# Generated by pormake.
# Topology ptr, (4,4)-cn, num edge types: 1
# Building blocks:
#     Node 0, Type 0, BuildingBlock: KUFVIS_clean_sbu_0, # of connection points: 4
#     Node 1, Type 0, BuildingBlock: KUFVIS_clean_sbu_0, # of connection points: 4
#     Node 2, Type 0, BuildingBlock: KUFVIS_clean_sbu_0, # of connection points: 4
#     Node 3, Type 0, BuildingBlock: KUFVIS_clean_sbu_0, # of connection points: 4
#     Node 4, Type 0, BuildingBlock: KUFVIS_clean_sbu_0, # of connection points: 4
#     Node 5, Type 0, BuildingBlock: KUFVIS_clean_sbu_0, # of connection points: 4
#     Node 6, Type 0, BuildingBlock: KUFVIS_clean_sbu_0, # of connection points: 4
#     Node 7, Type 0, BuildingBlock: KUFVIS_clean_sbu_0, # of connection points: 4
#     Node 8, Type 0, BuildingBlock: KUFVIS_clean_sbu_0, # of connection points: 4
#     Node 9, Type 0, BuildingBlock: KUFVIS_clean_sbu_0, # of connection points: 4
#     Node 10, Type 0, BuildingBlock: KUFVIS_clean_sbu_0, # of connection points: 4
#     Node 11, Type 0, BuildingBlock: KUFVIS_clean_sbu_0, # of connection points: 4
#     Node 12, Type 0, BuildingBlock: KUFVIS_clean_sbu_0, # of connection points: 4
#     Node 13, Type 0, BuildingBlock: KUFVIS_clean_sbu_0, # of connection points: 4
#     Node 14, Type 0, BuildingBlock: KUFVIS_clean_sbu_0, # of connection points: 4
#     Node 15, Type 0, BuildingBlock: KUFVIS_clean_sbu_0, # of connection points: 4
#     Node 16, Type 0, BuildingBlock: KUFVIS_clean_sbu_0, # of connection points: 4
#     Node 17, Type 0, BuildingBlock: KUFVIS_clean_sbu_0, # of connection points: 4
#     Node 18, Type 1, BuildingBlock: NAHDIM_clean_linker_0, # of connection points: 4
#     Node 19, Type 1, BuildingBlock: NAHDIM_clean_linker_0, # of connection points: 4
#     Node 20, Type 1, BuildingBlock: NAHDIM_clean_linker_0, # of connection points: 4
#     Node 21, Type 1, BuildingBlock: NAHDIM_clean_linker_0, # of connection points: 4
#     Node 22, Type 1, BuildingBlock: NAHDIM_clean_linker_0, # of connection points: 4
#     Node 23, Type 1, BuildingBlock: NAHDIM_clean_linker_0, # of connection points: 4
#     Node 24, Type 1, BuildingBlock: NAHDIM_clean_linker_0, # of connection points: 4
#     Node 25, Type 1, BuildingBlock: NAHDIM_clean_linker_0, # of connection points: 4
#     Node 26, Type 1, BuildingBlock: NAHDIM_clean_linker_0, # of connection points: 4
#     Node 27, Type 1, BuildingBlock: NAHDIM_clean_linker_0, # of connection points: 4
#     Node 28, Type 1, BuildingBlock: NAHDIM_clean_linker_0, # of connection points: 4
#     Node 29, Type 1, BuildingBlock: NAHDIM_clean_linker_0, # of connection points: 4
#     Node 30, Type 1, BuildingBlock: NAHDIM_clean_linker_0, # of connection points: 4
#     Node 31, Type 1, BuildingBlock: NAHDIM_clean_linker_0, # of connection points: 4
#     Node 32, Type 1, BuildingBlock: NAHDIM_clean_linker_0, # of connection points: 4
#     Node 33, Type 1, BuildingBlock: NAHDIM_clean_linker_0, # of connection points: 4
#     Node 34, Type 1, BuildingBlock: NAHDIM_clean_linker_0, # of connection points: 4
#     Node 35, Type 1, BuildingBlock: NAHDIM_clean_linker_0, # of connection points: 4
#     Edge 36, Type (0, 1), BuildingBlock: UVAHIK_clean_linker_0, # of connection points: 2
#     Edge 37, Type (0, 1), BuildingBlock: UVAHIK_clean_linker_0, # of connection points: 2
#     Edge 38, Type (0, 1), BuildingBlock: UVAHIK_clean_linker_0, # of connection points: 2
#     Edge 39, Type (0, 1), BuildingBlock: UVAHIK_clean_linker_0, # of connection points: 2
#     Edge 40, Type (0, 1), BuildingBlock: UVAHIK_clean_linker_0, # of connection points: 2
#     Edge 41, Type (0, 1), BuildingBlock: UVAHIK_clean_linker_0, # of connection points: 2
#     Edge 42, Type (0, 1), BuildingBlock: UVAHIK_clean_linker_0, # of connection points: 2
#     Edge 43, Type (0, 1), BuildingBlock: UVAHIK_clean_linker_0, # of connection points: 2
#     Edge 44, Type (0, 1), BuildingBlock: UVAHIK_clean_linker_0, # of connection points: 2
#     Edge 45, Type (0, 1), BuildingBlock: UVAHIK_clean_linker_0, # of connection points: 2
#     Edge 46, Type (0, 1), BuildingBlock: UVAHIK_clean_linker_0, # of connection points: 2
#     Edge 47, Type (0, 1), BuildingBlock: UVAHIK_clean_linker_0, # of connection points: 2
#     Edge 48, Type (0, 1), BuildingBlock: UVAHIK_clean_linker_0, # of connection points: 2
#     Edge 49, Type (0, 1), BuildingBlock: UVAHIK_clean_linker_0, # of connection points: 2
#     Edge 50, Type (0, 1), BuildingBlock: UVAHIK_clean_linker_0, # of connection points: 2
#     Edge 51, Type (0, 1), BuildingBlock: UVAHIK_clean_linker_0, # of connection points: 2
#     Edge 52, Type (0, 1), BuildingBlock: UVAHIK_clean_linker_0, # of connection points: 2
#     Edge 53, Type (0, 1), BuildingBlock: UVAHIK_clean_linker_0, # of connection points: 2
#     Edge 54, Type (0, 1), BuildingBlock: UVAHIK_clean_linker_0, # of connection points: 2
#     Edge 55, Type (0, 1), BuildingBlock: UVAHIK_clean_linker_0, # of connection points: 2
#     Edge 56, Type (0, 1), BuildingBlock: UVAHIK_clean_linker_0, # of connection points: 2
#     Edge 57, Type (0, 1), BuildingBlock: UVAHIK_clean_linker_0, # of connection points: 2
#     Edge 58, Type (0, 1), BuildingBlock: UVAHIK_clean_linker_0, # of connection points: 2
#     Edge 59, Type (0, 1), BuildingBlock: UVAHIK_clean_linker_0, # of connection points: 2
#     Edge 60, Type (0, 1), BuildingBlock: UVAHIK_clean_linker_0, # of connection points: 2
#     Edge 61, Type (0, 1), BuildingBlock: UVAHIK_clean_linker_0, # of connection points: 2
#     Edge 62, Type (0, 1), BuildingBlock: UVAHIK_clean_linker_0, # of connection points: 2
#     Edge 63, Type (0, 1), BuildingBlock: UVAHIK_clean_linker_0, # of connection points: 2
#     Edge 64, Type (0, 1), BuildingBlock: UVAHIK_clean_linker_0, # of connection points: 2
#     Edge 65, Type (0, 1), BuildingBlock: UVAHIK_clean_linker_0, # of connection points: 2
#     Edge 66, Type (0, 1), BuildingBlock: UVAHIK_clean_linker_0, # of connection points: 2
#     Edge 67, Type (0, 1), BuildingBlock: UVAHIK_clean_linker_0, # of connection points: 2
#     Edge 68, Type (0, 1), BuildingBlock: UVAHIK_clean_linker_0, # of connection points: 2
#     Edge 69, Type (0, 1), BuildingBlock: UVAHIK_clean_linker_0, # of connection points: 2
#     Edge 70, Type (0, 1), BuildingBlock: UVAHIK_clean_linker_0, # of connection points: 2
#     Edge 71, Type (0, 1), BuildingBlock: UVAHIK_clean_linker_0, # of connection points: 2
#     Edge 72, Type (0, 1), BuildingBlock: UVAHIK_clean_linker_0, # of connection points: 2
#     Edge 73, Type (0, 1), BuildingBlock: UVAHIK_clean_linker_0, # of connection points: 2
#     Edge 74, Type (0, 1), BuildingBlock: UVAHIK_clean_linker_0, # of connection points: 2
#     Edge 75, Type (0, 1), BuildingBlock: UVAHIK_clean_linker_0, # of connection points: 2
#     Edge 76, Type (0, 1), BuildingBlock: UVAHIK_clean_linker_0, # of connection points: 2
#     Edge 77, Type (0, 1), BuildingBlock: UVAHIK_clean_linker_0, # of connection points: 2
#     Edge 78, Type (0, 1), BuildingBlock: UVAHIK_clean_linker_0, # of connection points: 2
#     Edge 79, Type (0, 1), BuildingBlock: UVAHIK_clean_linker_0, # of connection points: 2
#     Edge 80, Type (0, 1), BuildingBlock: UVAHIK_clean_linker_0, # of connection points: 2
#     Edge 81, Type (0, 1), BuildingBlock: UVAHIK_clean_linker_0, # of connection points: 2
#     Edge 82, Type (0, 1), BuildingBlock: UVAHIK_clean_linker_0, # of connection points: 2
#     Edge 83, Type (0, 1), BuildingBlock: UVAHIK_clean_linker_0, # of connection points: 2
#     Edge 84, Type (0, 1), BuildingBlock: UVAHIK_clean_linker_0, # of connection points: 2
#     Edge 85, Type (0, 1), BuildingBlock: UVAHIK_clean_linker_0, # of connection points: 2
#     Edge 86, Type (0, 1), BuildingBlock: UVAHIK_clean_linker_0, # of connection points: 2
#     Edge 87, Type (0, 1), BuildingBlock: UVAHIK_clean_linker_0, # of connection points: 2
#     Edge 88, Type (0, 1), BuildingBlock: UVAHIK_clean_linker_0, # of connection points: 2
#     Edge 89, Type (0, 1), BuildingBlock: UVAHIK_clean_linker_0, # of connection points: 2
#     Edge 90, Type (0, 1), BuildingBlock: UVAHIK_clean_linker_0, # of connection points: 2
#     Edge 91, Type (0, 1), BuildingBlock: UVAHIK_clean_linker_0, # of connection points: 2
#     Edge 92, Type (0, 1), BuildingBlock: UVAHIK_clean_linker_0, # of connection points: 2
#     Edge 93, Type (0, 1), BuildingBlock: UVAHIK_clean_linker_0, # of connection points: 2
#     Edge 94, Type (0, 1), BuildingBlock: UVAHIK_clean_linker_0, # of connection points: 2
#     Edge 95, Type (0, 1), BuildingBlock: UVAHIK_clean_linker_0, # of connection points: 2
#     Edge 96, Type (0, 1), BuildingBlock: UVAHIK_clean_linker_0, # of connection points: 2
#     Edge 97, Type (0, 1), BuildingBlock: UVAHIK_clean_linker_0, # of connection points: 2
#     Edge 98, Type (0, 1), BuildingBlock: UVAHIK_clean_linker_0, # of connection points: 2
#     Edge 99, Type (0, 1), BuildingBlock: UVAHIK_clean_linker_0, # of connection points: 2
#     Edge 100, Type (0, 1), BuildingBlock: UVAHIK_clean_linker_0, # of connection points: 2
#     Edge 101, Type (0, 1), BuildingBlock: UVAHIK_clean_linker_0, # of connection points: 2
#     Edge 102, Type (0, 1), BuildingBlock: UVAHIK_clean_linker_0, # of connection points: 2
#     Edge 103, Type (0, 1), BuildingBlock: UVAHIK_clean_linker_0, # of connection points: 2
#     Edge 104, Type (0, 1), BuildingBlock: UVAHIK_clean_linker_0, # of connection points: 2
#     Edge 105, Type (0, 1), BuildingBlock: UVAHIK_clean_linker_0, # of connection points: 2
#     Edge 106, Type (0, 1), BuildingBlock: UVAHIK_clean_linker_0, # of connection points: 2
#     Edge 107, Type (0, 1), BuildingBlock: UVAHIK_clean_linker_0, # of connection points: 2
# Relax obj value: 0.038
# Max RMSD: 0.203
# Mean RMSD: 0.072
data_MOF--net-ptr--node1-KUFVIS_clean_sbu_0--node2-NAHDIM_clean_linker_0--edge1-UVAHIK_clean_linker_0
_symmetry_space_group_name_H-M    P1
_symmetry_Int_Tables_number       1
_symmetry_cell_setting            triclinic
loop_
_symmetry_equiv_pos_as_xyz
'x, y, z'
_cell_length_a     113.8147
_cell_length_b     112.78228
_cell_length_c     96.941779
_cell_angle_alpha  90.498155
_cell_angle_beta   90.857809
_cell_angle_gamma 119.58685
loop_
_atom_site_label
_atom_site_type_symbol
_atom_site_fract_x
_atom_site_fract_y
_atom_site_fract_z
_atom_type_partial_charge
Mn0 Mn 0.00375 0.33957 0.00262 0.0
Mn1 Mn 0.03326 0.36922 0.00481 0.0
C2 C 0.00668 0.3574 0.98905 0.0
C3 C 0.99159 0.31764 0.99325 0.0
C4 C 0.01124 0.36055 0.02595 0.0
O5 O 0.01621 0.33464 0.01315 0.0
O6 O 0.03599 0.35429 0.01219 0.0
C7 C 0.04843 0.36284 0.98431 0.0
N8 N 0.04352 0.371 0.98877 0.0
C9 C 0.05281 0.38575 0.9694 0.0
C10 C 0.05806 0.37757 0.96465 0.0
C11 C 0.05584 0.36605 0.97213 0.0
C12 C 0.04556 0.38208 0.98164 0.0
H13 H 0.04667 0.35393 0.99 0.0
C14 C 0.02889 0.34175 0.01553 0.0
O15 O 0.98808 0.32081 0.0048 0.0
O16 O 0.00212 0.32711 0.98728 0.0
N17 N 0.03227 0.38463 0.99811 0.0
C18 C 0.02615 0.39119 0.00385 0.0
C19 C 0.02716 0.40278 0.99748 0.0
C20 C 0.03456 0.40758 0.98536 0.0
C21 C 0.04099 0.40081 0.97979 0.0
C22 C 0.03972 0.38938 0.98666 0.0
H23 H 0.02044 0.38754 0.01316 0.0
O24 O 0.99468 0.3473 0.99114 0.0
O25 O 0.01674 0.35648 0.99451 0.0
O26 O 0.00238 0.34963 0.01976 0.0
O27 O 0.02312 0.36825 0.02148 0.0
C28 C 0.0484 0.40481 0.96755 0.0
C29 C 0.05428 0.39726 0.96235 0.0
H30 H 0.06372 0.37997 0.95522 0.0
H31 H 0.0598 0.35964 0.96849 0.0
H32 H 0.02219 0.40796 0.00185 0.0
H33 H 0.03519 0.41643 0.98038 0.0
H34 H 0.0495 0.41357 0.96198 0.0
H35 H 0.05982 0.40034 0.95284 0.0
Mn36 Mn 0.65141 0.65278 0.01769 0.0
Mn37 Mn 0.65269 0.62411 0.01057 0.0
C38 C 0.63918 0.63359 0.03073 0.0
C39 C 0.6607 0.67405 0.02865 0.0
C40 C 0.63644 0.6336 0.99337 0.0
O41 O 0.66774 0.65931 0.00539 0.0
O42 O 0.66916 0.64012 0.00355 0.0
C43 C 0.676 0.62918 0.02859 0.0
N44 N 0.66283 0.62111 0.02462 0.0
C45 C 0.66009 0.6039 0.04078 0.0
C46 C 0.67367 0.61197 0.04496 0.0
C47 C 0.68164 0.6247 0.03888 0.0
C48 C 0.65502 0.60894 0.03053 0.0
H49 H 0.68214 0.63897 0.02395 0.0
C50 C 0.6737 0.65284 0.00146 0.0
O51 O 0.65315 0.67124 0.01759 0.0
O52 O 0.66294 0.66457 0.03327 0.0
N53 N 0.63749 0.60778 0.01687 0.0
C54 C 0.62442 0.60153 0.01214 0.0
C55 C 0.61501 0.58887 0.01747 0.0
C56 C 0.61918 0.58267 0.02744 0.0
C57 C 0.63272 0.5892 0.032 0.0
C58 C 0.64162 0.60183 0.02635 0.0
H59 H 0.62117 0.60617 0.00439 0.0
O60 O 0.63603 0.64319 0.03056 0.0
O61 O 0.64953 0.63565 0.02351 0.0
O62 O 0.63872 0.64379 0.00104 0.0
O63 O 0.6417 0.62606 0.99566 0.0
C64 C 0.6377 0.58374 0.04201 0.0
C65 C 0.65136 0.59112 0.04647 0.0
H66 H 0.67806 0.60854 0.05288 0.0
H67 H 0.6921 0.63102 0.04211 0.0
H68 H 0.60459 0.58388 0.01388 0.0
H69 H 0.61189 0.57292 0.03156 0.0
H70 H 0.63107 0.57395 0.0465 0.0
H71 H 0.65501 0.58692 0.05436 0.0
Mn72 Mn 0.34067 0.99978 0.01008 0.0
Mn73 Mn 0.37014 0.02948 0.00989 0.0
C74 C 0.35841 0.00239 0.02394 0.0
C75 C 0.31895 0.98732 0.01868 0.0
C76 C 0.36125 0.00774 0.98729 0.0
O77 O 0.33583 0.01273 0.00042 0.0
O78 O 0.35532 0.03259 0.00292 0.0
C79 C 0.36437 0.04451 0.03146 0.0
N80 N 0.37226 0.03951 0.02661 0.0
C81 C 0.38729 0.04846 0.04639 0.0
C82 C 0.37939 0.0538 0.05156 0.0
C83 C 0.36787 0.0518 0.04407 0.0
C84 C 0.38335 0.04135 0.03374 0.0
H85 H 0.35547 0.04293 0.02576 0.0
C86 C 0.34288 0.02561 0.99906 0.0
O87 O 0.32194 0.98424 0.00677 0.0
O88 O 0.32849 0.99766 0.02538 0.0
N89 N 0.38536 0.02808 0.01642 0.0
C90 C 0.39155 0.02176 0.01031 0.0
C91 C 0.40306 0.02248 0.01667 0.0
C92 C 0.40815 0.02979 0.02916 0.0
C93 C 0.40173 0.03639 0.03515 0.0
C94 C 0.39035 0.0354 0.02828 0.0
H95 H 0.38768 0.01612 0.00071 0.0
O96 O 0.34843 0.99032 0.02097 0.0
O97 O 0.35747 0.01263 0.01907 0.0
O98 O 0.35044 0.99875 0.99288 0.0
O99 O 0.36892 0.01964 0.9925 0.0
C100 C 0.40602 0.04369 0.04779 0.0
C101 C 0.39879 0.04969 0.05342 0.0
H102 H 0.38201 0.05936 0.06132 0.0
H103 H 0.36168 0.05583 0.04802 0.0
H104 H 0.40796 0.01737 0.01197 0.0
H105 H 0.41695 0.03021 0.03411 0.0
H106 H 0.41476 0.0446 0.05335 0.0
H107 H 0.40208 0.05512 0.06323 0.0
Mn108 Mn 0.99768 0.66134 0.01036 0.0
Mn109 Mn 0.02761 0.66197 0.01218 0.0
C110 C 0.00171 0.64784 0.99541 0.0
C111 C 0.98507 0.67106 0.00213 0.0
C112 C 0.00507 0.647 0.03249 0.0
O113 O 0.00957 0.67822 0.02211 0.0
O114 O 0.02974 0.67921 0.02038 0.0
C115 C 0.04305 0.68442 0.99295 0.0
N116 N 0.03822 0.67122 0.99665 0.0
C117 C 0.04848 0.66687 0.97715 0.0
C118 C 0.05364 0.68045 0.97319 0.0
C119 C 0.05089 0.68925 0.98111 0.0
C120 C 0.04078 0.66266 0.98909 0.0
H121 H 0.0409 0.6912 0.99898 0.0
C122 C 0.02232 0.68417 0.02429 0.0
O123 O 0.98166 0.66377 0.0132 0.0
O124 O 0.99581 0.67273 0.99597 0.0
N125 N 0.0271 0.64602 0.00451 0.0
C126 C 0.02094 0.63309 0.00944 0.0
C127 C 0.02246 0.62295 0.00253 0.0
C128 C 0.03037 0.62622 0.99069 0.0
C129 C 0.03676 0.63963 0.98593 0.0
C130 C 0.03498 0.64933 0.99331 0.0
H131 H 0.01486 0.63051 0.01854 0.0
O132 O 0.98944 0.64524 0.99751 0.0
O133 O 0.01127 0.65853 0.0018 0.0
O134 O 0.99623 0.6491 0.02647 0.0
O135 O 0.0172 0.65191 0.02837 0.0
C136 C 0.04464 0.64369 0.97401 0.0
C137 C 0.05048 0.6573 0.96961 0.0
H138 H 0.05964 0.6842 0.96402 0.0
H139 H 0.05477 0.69972 0.97807 0.0
H140 H 0.0175 0.61263 0.00628 0.0
H141 H 0.0314 0.61834 0.98531 0.0
H142 H 0.04614 0.63639 0.96804 0.0
H143 H 0.05638 0.66026 0.96033 0.0
Mn144 Mn 0.35095 0.35365 0.00703 0.0
Mn145 Mn 0.37951 0.35288 1.00009 0.0
C146 C 0.36975 0.36531 0.02132 0.0
C147 C 0.32976 0.34352 0.01705 0.0
C148 C 0.37009 0.3699 0.98418 0.0
O149 O 0.34472 0.33782 0.99329 0.0
O150 O 0.36378 0.33655 0.99149 0.0
C151 C 0.37457 0.32857 0.01591 0.0
N152 N 0.38242 0.34209 0.01335 0.0
C153 C 0.39872 0.34446 0.03082 0.0
C154 C 0.39086 0.33053 0.03357 0.0
C155 C 0.37871 0.32256 0.0261 0.0
C156 C 0.39411 0.34986 0.02049 0.0
H157 H 0.36519 0.32242 0.01024 0.0
C158 C 0.35117 0.33198 0.98895 0.0
O159 O 0.33263 0.35185 0.00685 0.0
O160 O 0.33918 0.34106 0.02133 0.0
N161 N 0.39545 0.36801 0.008 0.0
C162 C 0.40152 0.38141 0.00455 0.0
C163 C 0.41362 0.39082 0.01133 0.0
C164 C 0.41938 0.38637 0.02152 0.0
C165 C 0.41302 0.37251 0.02479 0.0
C166 C 0.40105 0.36357 0.0176 0.0
H167 H 0.39714 0.38491 0.99674 0.0
O168 O 0.36022 0.36845 0.02134 0.0
O169 O 0.36785 0.3553 0.01313 0.0
O170 O 0.35998 0.36731 0.99163 0.0
O171 O 0.37759 0.36454 0.98609 0.0
C172 C 0.41797 0.36725 0.03508 0.0
C173 C 0.41081 0.35324 0.0381 0.0
H174 H 0.39398 0.32587 0.04148 0.0
H175 H 0.37255 0.31182 0.02822 0.0
H176 H 0.41846 0.4015 0.00875 0.0
H177 H 0.42864 0.39368 0.02682 0.0
H178 H 0.42716 0.37393 0.04086 0.0
H179 H 0.41462 0.34936 0.04616 0.0
Mn180 Mn 0.66138 0.00717 0.0105 0.0
Mn181 Mn 0.63292 0.97662 0.01027 0.0
C182 C 0.64388 0.00318 0.99549 0.0
C183 C 0.68325 0.02016 0.00246 0.0
C184 C 0.64001 0.99856 0.03242 0.0
O185 O 0.66666 0.9951 0.02128 0.0
O186 O 0.64813 0.97449 0.01792 0.0
C187 C 0.64021 0.96216 0.98943 0.0
N188 N 0.63173 0.96663 0.99379 0.0
C189 C 0.61738 0.95706 0.97359 0.0
C190 C 0.6259 0.95224 0.96895 0.0
C191 C 0.63738 0.95483 0.97689 0.0
C192 C 0.62068 0.96423 0.98621 0.0
H193 H 0.6491 0.96422 0.99546 0.0
C194 C 0.66027 0.98218 0.02244 0.0
O195 O 0.67974 0.02339 0.01399 0.0
O196 O 0.67417 0.0094 0.99588 0.0
N197 N 0.61746 0.97717 0.003 0.0
C198 C 0.61066 0.98309 0.0086 0.0
C199 C 0.5991 0.98177 0.00173 0.0
C200 C 0.59463 0.97432 0.98924 0.0
C201 C 0.60171 0.96819 0.98376 0.0
C202 C 0.61307 0.96974 0.99113 0.0
H203 H 0.61404 0.98884 0.01819 0.0
O204 O 0.65324 0.01558 0.99841 0.0
O205 O 0.6453 0.99356 0.00118 0.0
O206 O 0.65066 0.00794 0.02693 0.0
O207 O 0.63317 0.98644 0.02739 0.0
C208 C 0.59808 0.96083 0.97115 0.0
C209 C 0.60592 0.95528 0.96606 0.0
H210 H 0.6238 0.94667 0.95924 0.0
H211 H 0.64405 0.95123 0.97333 0.0
H212 H 0.5937 0.98654 0.00603 0.0
H213 H 0.5858 0.97346 0.9839 0.0
H214 H 0.58939 0.95953 0.96518 0.0
H215 H 0.60314 0.9498 0.95625 0.0
Mn216 Mn 0.66488 0.67539 0.34324 0.0
Mn217 Mn 0.69379 0.70482 0.35031 0.0
C218 C 0.67098 0.694 0.32945 0.0
C219 C 0.65352 0.65391 0.33268 0.0
C220 C 0.66813 0.69555 0.36636 0.0
O221 O 0.67522 0.66949 0.35611 0.0
O222 O 0.69457 0.68943 0.35935 0.0
C223 C 0.71271 0.69898 0.33496 0.0
N224 N 0.70718 0.7071 0.33732 0.0
C225 C 0.72104 0.72294 0.32017 0.0
C226 C 0.72695 0.7148 0.31762 0.0
C227 C 0.72274 0.70276 0.32503 0.0
C228 C 0.71114 0.71869 0.33023 0.0
H229 H 0.70947 0.6897 0.34061 0.0
C230 C 0.68714 0.67659 0.36122 0.0
O231 O 0.64874 0.6568 0.34349 0.0
O232 O 0.66498 0.66339 0.32818 0.0
N233 N 0.69454 0.72058 0.34218 0.0
C234 C 0.68729 0.72687 0.34532 0.0
C235 C 0.68997 0.73887 0.3385 0.0
C236 C 0.70014 0.74433 0.32864 0.0
C237 C 0.70757 0.73776 0.3257 0.0
C238 C 0.70451 0.72589 0.33288 0.0
H239 H 0.67947 0.72273 0.3529 0.0
O240 O 0.65847 0.68432 0.32974 0.0
O241 O 0.67955 0.69245 0.33718 0.0
O242 O 0.66082 0.68461 0.35937 0.0
O243 O 0.68059 0.70362 0.36399 0.0
C244 C 0.71769 0.74237 0.31571 0.0
C245 C 0.7244 0.73495 0.31293 0.0
H246 H 0.73464 0.71763 0.30992 0.0
H247 H 0.72721 0.69639 0.32307 0.0
H248 H 0.68418 0.74386 0.34082 0.0
H249 H 0.70208 0.7535 0.3233 0.0
H250 H 0.72022 0.75148 0.30994 0.0
H251 H 0.73202 0.73848 0.30508 0.0
Mn252 Mn 0.31138 0.98322 0.35639 0.0
Mn253 Mn 0.30819 0.95206 0.35109 0.0
C254 C 0.29998 0.96604 0.37204 0.0
C255 C 0.32333 0.00564 0.36487 0.0
C256 C 0.29131 0.96182 0.33566 0.0
O257 O 0.32569 0.98692 0.34201 0.0
O258 O 0.32313 0.96584 0.34012 0.0
C259 C 0.33409 0.95754 0.3642 0.0
N260 N 0.32037 0.94996 0.36325 0.0
C261 C 0.31997 0.93449 0.3804 0.0
C262 C 0.33411 0.9421 0.38153 0.0
C263 C 0.34119 0.95372 0.37345 0.0
C264 C 0.31344 0.93891 0.37115 0.0
H265 H 0.33956 0.96641 0.35791 0.0
C266 C 0.32891 0.97845 0.33696 0.0
O267 O 0.31438 0.0021 0.35495 0.0
O268 O 0.32551 0.99619 0.36974 0.0
N269 N 0.29412 0.9375 0.36099 0.0
C270 C 0.2805 0.93137 0.35875 0.0
C271 C 0.27193 0.91966 0.36613 0.0
C272 C 0.27746 0.9142 0.37549 0.0
C273 C 0.29152 0.9205 0.37737 0.0
C274 C 0.29955 0.93221 0.36982 0.0
H275 H 0.27621 0.93539 0.3514 0.0
O276 O 0.29788 0.97633 0.37148 0.0
O277 O 0.3088 0.96616 0.36359 0.0
O278 O 0.29629 0.97344 0.34174 0.0
O279 O 0.29513 0.95315 0.33833 0.0
C280 C 0.2979 0.9156 0.38641 0.0
C281 C 0.3121 0.92268 0.38805 0.0
H282 H 0.33962 0.93912 0.38858 0.0
H283 H 0.3521 0.95965 0.37428 0.0
H284 H 0.26109 0.91481 0.36456 0.0
H285 H 0.27082 0.90516 0.38115 0.0
H286 H 0.29195 0.90649 0.39228 0.0
H287 H 0.31686 0.91894 0.3952 0.0
Mn288 Mn 0.01537 0.32768 0.34202 0.0
Mn289 Mn 0.04552 0.35611 0.33781 0.0
C290 C 0.03289 0.33339 0.3578 0.0
C291 C 0.99344 0.31672 0.35036 0.0
C292 C 0.03635 0.33008 0.32112 0.0
O293 O 0.01078 0.3385 0.32833 0.0
O294 O 0.03125 0.35734 0.32701 0.0
C295 C 0.03972 0.37602 0.35182 0.0
N296 N 0.0475 0.37 0.35058 0.0
C297 C 0.06298 0.38462 0.36836 0.0
C298 C 0.05518 0.39103 0.3698 0.0
C299 C 0.04346 0.38666 0.36154 0.0
C300 C 0.0587 0.37401 0.35857 0.0
H301 H 0.03076 0.37274 0.34542 0.0
C302 C 0.01866 0.35037 0.32375 0.0
O303 O 0.99683 0.3117 0.34004 0.0
O304 O 0.00274 0.32823 0.35566 0.0
N305 N 0.06034 0.35643 0.34771 0.0
C306 C 0.06633 0.34869 0.34553 0.0
C307 C 0.07794 0.35144 0.3533 0.0
C308 C 0.08341 0.36224 0.36302 0.0
C309 C 0.07717 0.37017 0.36493 0.0
C310 C 0.06557 0.36689 0.35698 0.0
H311 H 0.06224 0.34048 0.33796 0.0
O312 O 0.02307 0.3209 0.35663 0.0
O313 O 0.03215 0.34216 0.34976 0.0
O314 O 0.02504 0.32306 0.32695 0.0
O315 O 0.04465 0.34249 0.32438 0.0
C316 C 0.08196 0.38114 0.37448 0.0
C317 C 0.0748 0.38828 0.37629 0.0
H318 H 0.05805 0.39926 0.37725 0.0
H319 H 0.03736 0.39153 0.36262 0.0
H320 H 0.08271 0.34528 0.35175 0.0
H321 H 0.09237 0.36432 0.36899 0.0
H322 H 0.09102 0.38403 0.38065 0.0
H323 H 0.07843 0.39651 0.38387 0.0
Mn324 Mn 0.66513 0.97674 0.34495 0.0
Mn325 Mn 0.69507 0.97846 0.35194 0.0
C326 C 0.67249 0.96514 0.33099 0.0
C327 C 0.65261 0.98565 0.33471 0.0
C328 C 0.66973 0.96124 0.36812 0.0
O329 O 0.6746 0.9931 0.35811 0.0
O330 O 0.695 0.99455 0.36045 0.0
C331 C 0.71286 0.00291 0.33594 0.0
N332 N 0.70796 0.98945 0.33859 0.0
C333 C 0.72171 0.98752 0.32106 0.0
C334 C 0.72697 0.00138 0.31821 0.0
C335 C 0.7225 0.0091 0.32567 0.0
C336 C 0.71217 0.98193 0.33146 0.0
H337 H 0.70941 0.00886 0.3416 0.0
C338 C 0.68681 0.99906 0.36264 0.0
O339 O 0.64821 0.97782 0.34533 0.0
O340 O 0.66436 0.98845 0.33016 0.0
N341 N 0.69654 0.96361 0.34412 0.0
C342 C 0.69 0.95023 0.34767 0.0
C343 C 0.69308 0.94105 0.34095 0.0
C344 C 0.70289 0.94573 0.3307 0.0
C345 C 0.70958 0.95956 0.3273 0.0
C346 C 0.70618 0.96826 0.33445 0.0
H347 H 0.68244 0.94657 0.35553 0.0
O348 O 0.65975 0.96154 0.33116 0.0
O349 O 0.68048 0.97548 0.33889 0.0
O350 O 0.66187 0.96375 0.36076 0.0
O351 O 0.6824 0.96661 0.36607 0.0
C352 C 0.71932 0.96502 0.31694 0.0
C353 C 0.72536 0.97898 0.31381 0.0
H354 H 0.73435 0.00618 0.31025 0.0
H355 H 0.72647 0.01978 0.32348 0.0
H356 H 0.68787 0.93039 0.34362 0.0
H357 H 0.70515 0.9386 0.32544 0.0
H358 H 0.72209 0.95853 0.31119 0.0
H359 H 0.73269 0.98302 0.3057 0.0
Mn360 Mn 0.02155 0.6939 0.34481 0.0
Mn361 Mn 0.05147 0.69561 0.33875 0.0
C362 C 0.03978 0.70606 0.35979 0.0
C363 C 1.00004 0.68281 0.35417 0.0
C364 C 0.041 0.71161 0.32271 0.0
O365 O 0.01654 0.67826 0.33102 0.0
O366 O 0.03673 0.6792 0.32933 0.0
C367 C 0.04754 0.67114 0.35363 0.0
N368 N 0.05476 0.68485 0.3517 0.0
C369 C 0.0713 0.68744 0.36897 0.0
C370 C 0.06408 0.67334 0.3711 0.0
C371 C 0.05211 0.66517 0.36343 0.0
C372 C 0.06623 0.69282 0.35908 0.0
H373 H 0.03836 0.66483 0.34772 0.0
C374 C 0.02402 0.6736 0.3266 0.0
O375 O 0.00288 0.69113 0.34398 0.0
O376 O 0.00966 0.68081 0.35881 0.0
N377 N 0.06658 0.71096 0.34749 0.0
C378 C 0.07196 0.72446 0.3447 0.0
C379 C 0.08372 0.73407 0.35183 0.0
C380 C 0.08991 0.7297 0.36164 0.0
C381 C 0.08426 0.71575 0.36423 0.0
C382 C 0.07252 0.70664 0.35682 0.0
H383 H 0.06729 0.72787 0.33712 0.0
O384 O 0.02983 0.70861 0.35943 0.0
O385 O 0.03869 0.69649 0.35146 0.0
O386 O 0.03034 0.70793 0.32962 0.0
O387 O 0.04927 0.70725 0.32502 0.0
C388 C 0.08974 0.71052 0.37397 0.0
C389 C 0.08325 0.69638 0.37636 0.0
H390 H 0.06757 0.66869 0.37866 0.0
H391 H 0.04645 0.65429 0.36506 0.0
H392 H 0.08802 0.74482 0.34977 0.0
H393 H 0.09895 0.73715 0.36715 0.0
H394 H 0.09883 0.71731 0.37984 0.0
H395 H 0.08745 0.69251 0.38404 0.0
Mn396 Mn 0.31998 0.34441 0.33997 0.0
Mn397 Mn 0.29208 0.31442 0.3463 0.0
C398 C 0.30109 0.33668 0.32572 0.0
C399 C 0.34108 0.35637 0.3299 0.0
C400 C 0.30023 0.3404 0.36288 0.0
O401 O 0.32693 0.33515 0.35307 0.0
O402 O 0.30808 0.31476 0.35529 0.0
C403 C 0.29876 0.29605 0.33047 0.0
N404 N 0.29026 0.30105 0.3329 0.0
C405 C 0.27477 0.28668 0.31498 0.0
C406 C 0.28332 0.28131 0.31234 0.0
C407 C 0.29538 0.28604 0.32011 0.0
C408 C 0.27864 0.29659 0.32548 0.0
H409 H 0.30807 0.2997 0.33637 0.0
C410 C 0.32069 0.32303 0.35763 0.0
O411 O 0.33795 0.3614 0.34042 0.0
O412 O 0.33198 0.34443 0.32533 0.0
N413 N 0.27589 0.31268 0.33808 0.0
C414 C 0.26908 0.31935 0.34149 0.0
C415 C 0.25692 0.31603 0.33447 0.0
C416 C 0.25188 0.30586 0.32408 0.0
C417 C 0.259 0.29904 0.32084 0.0
C418 C 0.27099 0.30269 0.32828 0.0
H419 H 0.27291 0.32719 0.34946 0.0
O420 O 0.31013 0.34953 0.3261 0.0
O421 O 0.30347 0.32882 0.3336 0.0
O422 O 0.31054 0.34823 0.35586 0.0
O423 O 0.29293 0.32761 0.36038 0.0
C424 C 0.2548 0.28894 0.31037 0.0
C425 C 0.26269 0.28278 0.30743 0.0
H426 H 0.28078 0.27364 0.30431 0.0
H427 H 0.30207 0.28199 0.31808 0.0
H428 H 0.25149 0.32135 0.33702 0.0
H429 H 0.24257 0.30342 0.3186 0.0
H430 H 0.24561 0.28596 0.30439 0.0
H431 H 0.25945 0.27515 0.29923 0.0
Mn432 Mn 0.3332 0.0184 0.6749 0.0
Mn433 Mn 0.36032 0.04964 0.67993 0.0
C434 C 0.33719 0.03561 0.65971 0.0
C435 C 0.32352 0.99622 0.66608 0.0
C436 C 0.33507 0.03851 0.69706 0.0
O437 O 0.34517 0.01513 0.68843 0.0
O438 O 0.3639 0.03587 0.68867 0.0
C439 C 0.38057 0.04685 0.66351 0.0
N440 N 0.37353 0.05344 0.66621 0.0
C441 C 0.38553 0.07014 0.64898 0.0
C442 C 0.39299 0.0636 0.64607 0.0
C443 C 0.39045 0.05186 0.65332 0.0
C444 C 0.3758 0.06466 0.6592 0.0
H445 H 0.37866 0.03784 0.66908 0.0
C446 C 0.3575 0.02327 0.69192 0.0
O447 O 0.3184 0.99926 0.6765 0.0
O448 O 0.3344 0.00604 0.66091 0.0
N449 N 0.35816 0.06385 0.67176 0.0
C450 C 0.34942 0.06835 0.6751 0.0
C451 C 0.35018 0.07964 0.6683 0.0
C452 C 0.36 0.08629 0.65829 0.0
C453 C 0.36895 0.08153 0.6551 0.0
C454 C 0.36767 0.07018 0.66216 0.0
H455 H 0.34191 0.06335 0.68286 0.0
O456 O 0.32517 0.02508 0.66049 0.0
O457 O 0.34645 0.03563 0.66771 0.0
O458 O 0.32807 0.02754 0.69008 0.0
O459 O 0.34737 0.04705 0.69456 0.0
C460 C 0.37898 0.08749 0.6451 0.0
C461 C 0.38724 0.08178 0.642 0.0
H462 H 0.4006 0.06743 0.63822 0.0
H463 H 0.39611 0.04671 0.65109 0.0
H464 H 0.34323 0.08324 0.67081 0.0
H465 H 0.36054 0.09498 0.65305 0.0
H466 H 0.38027 0.09633 0.63954 0.0
H467 H 0.39474 0.08631 0.63409 0.0
Mn468 Mn 0.98034 0.31507 0.67628 0.0
Mn469 Mn 0.98264 0.2869 0.6694 0.0
C470 C 0.96903 0.29602 0.68968 0.0
C471 C 0.9884 0.33615 0.68728 0.0
C472 C 0.96506 0.29497 0.65259 0.0
O473 O 0.9966 0.32215 0.66379 0.0
O474 O 0.99817 0.3031 0.66131 0.0
C475 C 0.00724 0.29389 0.68615 0.0
N476 N 0.99395 0.2852 0.68309 0.0
C477 C 0.99277 0.26965 0.70057 0.0
C478 C 0.00647 0.27839 0.70386 0.0
C479 C 0.01373 0.29058 0.69663 0.0
C480 C 0.98686 0.27347 0.69 0.0
H481 H 0.01284 0.30329 0.68067 0.0
C482 C 0.00251 0.31581 0.65931 0.0
O483 O 0.98067 0.33287 0.67631 0.0
O484 O 0.99182 0.32739 0.69158 0.0
N485 N 0.96835 0.27048 0.67675 0.0
C486 C 0.9551 0.26338 0.67262 0.0
C487 C 0.9464 0.25101 0.67895 0.0
C488 C 0.95141 0.24602 0.68938 0.0
C489 C 0.96511 0.25342 0.69333 0.0
C490 C 0.97333 0.26561 0.68656 0.0
H491 H 0.95119 0.26714 0.6646 0.0
O492 O 0.96529 0.30517 0.68935 0.0
O493 O 0.97941 0.29839 0.68233 0.0
O494 O 0.96754 0.30545 0.65988 0.0
O495 O 0.97048 0.28759 0.65499 0.0
C496 C 0.97088 0.24928 0.70387 0.0
C497 C 0.98469 0.2574 0.70751 0.0
H498 H 0.01149 0.2759 0.71197 0.0
H499 H 0.02429 0.29741 0.69915 0.0
H500 H 0.93584 0.24536 0.67583 0.0
H501 H 0.94464 0.23653 0.69431 0.0
H502 H 0.96475 0.23994 0.70936 0.0
H503 H 0.98898 0.25419 0.71574 0.0
Mn504 Mn 0.67824 0.66053 0.67524 0.0
Mn505 Mn 0.70697 0.68983 0.66915 0.0
C506 C 0.69701 0.66733 0.68957 0.0
C507 C 0.65704 0.6491 0.68522 0.0
C508 C 0.69758 0.66378 0.65224 0.0
O509 O 0.67202 0.67055 0.66223 0.0
O510 O 0.69136 0.69058 0.66068 0.0
C511 C 0.70201 0.70919 0.68544 0.0
N512 N 0.70986 0.70349 0.68266 0.0
C513 C 0.7267 0.71809 0.69948 0.0
C514 C 0.71884 0.72417 0.70249 0.0
C515 C 0.70641 0.71966 0.69547 0.0
C516 C 0.72178 0.70768 0.68941 0.0
H517 H 0.69249 0.70579 0.68003 0.0
C518 C 0.6787 0.68283 0.65814 0.0
O519 O 0.65993 0.64404 0.67457 0.0
O520 O 0.66641 0.66085 0.68995 0.0
N521 N 0.72284 0.69052 0.67695 0.0
C522 C 0.72876 0.68298 0.6735 0.0
C523 C 0.74101 0.68582 0.67999 0.0
C524 C 0.74713 0.69649 0.68981 0.0
C525 C 0.74092 0.70419 0.6931 0.0
C526 C 0.72868 0.70085 0.68634 0.0
H527 H 0.72414 0.67482 0.66589 0.0
O528 O 0.68753 0.65465 0.68903 0.0
O529 O 0.69515 0.67562 0.68182 0.0
O530 O 0.68724 0.65619 0.65931 0.0
O531 O 0.70522 0.6765 0.6548 0.0
C532 C 0.74629 0.71494 0.70293 0.0
C533 C 0.73915 0.72183 0.70619 0.0
H534 H 0.72219 0.73225 0.71022 0.0
H535 H 0.70027 0.72427 0.69777 0.0
H536 H 0.74573 0.67981 0.67741 0.0
H537 H 0.75657 0.69863 0.69483 0.0
H538 H 0.7558 0.71783 0.70823 0.0
H539 H 0.74326 0.7299 0.71397 0.0
Mn540 Mn 0.33047 0.31837 0.67301 0.0
Mn541 Mn 0.35978 0.31872 0.67998 0.0
C542 C 0.33759 0.30699 0.65841 0.0
C543 C 0.31886 0.32863 0.66343 0.0
C544 C 0.33389 0.30142 0.6954 0.0
O545 O 0.34 0.33389 0.68712 0.0
O546 O 0.36019 0.3348 0.68909 0.0
C547 C 0.37855 0.34349 0.66495 0.0
N548 N 0.37314 0.32987 0.66709 0.0
C549 C 0.38702 0.328 0.64969 0.0
C550 C 0.39281 0.34202 0.64736 0.0
C551 C 0.38853 0.34978 0.655 0.0
C552 C 0.37716 0.3223 0.65977 0.0
H553 H 0.37525 0.34948 0.67077 0.0
C554 C 0.35218 0.33944 0.69172 0.0
O555 O 0.31389 0.32007 0.67344 0.0
O556 O 0.33062 0.33129 0.65905 0.0
N557 N 0.36078 0.3038 0.67164 0.0
C558 C 0.35379 0.29031 0.67472 0.0
C559 C 0.35665 0.28109 0.66777 0.0
C560 C 0.36673 0.28583 0.6578 0.0
C561 C 0.3739 0.29978 0.6549 0.0
C562 C 0.37068 0.30851 0.66225 0.0
H563 H 0.34604 0.2866 0.68239 0.0
O564 O 0.32499 0.30389 0.65834 0.0
O565 O 0.34564 0.31679 0.66683 0.0
O566 O 0.32633 0.30434 0.68804 0.0
O567 O 0.3466 0.30668 0.69364 0.0
C568 C 0.38395 0.30532 0.64486 0.0
C569 C 0.39049 0.31942 0.64224 0.0
H570 H 0.40046 0.3469 0.63965 0.0
H571 H 0.3929 0.36059 0.65321 0.0
H572 H 0.35108 0.27034 0.67007 0.0
H573 H 0.36883 0.27867 0.65238 0.0
H574 H 0.38659 0.29881 0.63896 0.0
H575 H 0.39807 0.32354 0.63436 0.0
Mn576 Mn 0.68935 0.02508 0.66796 0.0
Mn577 Mn 0.71672 0.02174 0.66204 0.0
C578 C 0.70816 0.03588 0.68242 0.0
C579 C 0.66831 0.0176 0.67773 0.0
C580 C 0.7095 0.03991 0.64525 0.0
O581 O 0.68199 0.00857 0.6549 0.0
O582 O 0.70048 0.00622 0.65312 0.0
C583 C 0.70929 0.99685 0.67801 0.0
N584 N 0.71808 0.01022 0.67556 0.0
C585 C 0.73324 0.01116 0.69366 0.0
C586 C 0.72439 0.99738 0.69631 0.0
C587 C 0.71235 0.9902 0.68846 0.0
C588 C 0.72969 0.01722 0.68305 0.0
H589 H 0.69999 0.99131 0.67204 0.0
C590 C 0.68795 0.00219 0.6506 0.0
O591 O 0.67204 0.02535 0.66702 0.0
O592 O 0.67667 0.01387 0.68255 0.0
N593 N 0.73306 0.036 0.6703 0.0
C594 C 0.74019 0.0494 0.66689 0.0
C595 C 0.75235 0.05808 0.67401 0.0
C596 C 0.75709 0.05291 0.68451 0.0
C597 C 0.74965 0.03906 0.68775 0.0
C598 C 0.73766 0.03086 0.68022 0.0
H599 H 0.73659 0.05345 0.65885 0.0
O600 O 0.69949 0.04018 0.68179 0.0
O601 O 0.70549 0.02536 0.67465 0.0
O602 O 0.69928 0.03783 0.65222 0.0
O603 O 0.71647 0.03406 0.64773 0.0
C604 C 0.75352 0.03312 0.69834 0.0
C605 C 0.74532 0.01919 0.70129 0.0
H606 H 0.72668 0.99223 0.70442 0.0
H607 H 0.70544 0.97958 0.6905 0.0
H608 H 0.75803 0.06876 0.67145 0.0
H609 H 0.76639 0.05967 0.69008 0.0
H610 H 0.7627 0.03923 0.70439 0.0
H611 H 0.74832 0.01479 0.70957 0.0
Mn612 Mn 0.97956 0.67463 0.67504 0.0
Mn613 Mn 0.94884 0.64683 0.67865 0.0
C614 C 0.96243 0.66978 0.65906 0.0
C615 C 0.00159 0.68481 0.66696 0.0
C616 C 0.95884 0.6727 0.69595 0.0
O617 O 0.98329 0.66313 0.68865 0.0
O618 O 0.96261 0.64442 0.68916 0.0
C619 C 0.95359 0.62669 0.6636 0.0
N620 N 0.94636 0.63326 0.6652 0.0
C621 C 0.93155 0.62075 0.64604 0.0
C622 C 0.93879 0.61379 0.64424 0.0
C623 C 0.94988 0.6168 0.65304 0.0
C624 C 0.93571 0.63049 0.65675 0.0
H625 H 0.96214 0.629 0.67032 0.0
C626 C 0.97517 0.65108 0.69269 0.0
O627 O 0.99841 0.69006 0.67723 0.0
O628 O 0.99202 0.67352 0.66155 0.0
N629 N 0.93458 0.64776 0.6689 0.0
C630 C 0.92903 0.65579 0.67166 0.0
C631 C 0.91795 0.65423 0.66365 0.0
C632 C 0.91264 0.64437 0.65296 0.0
C633 C 0.91846 0.63615 0.65038 0.0
C634 C 0.92941 0.6381 0.65879 0.0
H635 H 0.93304 0.66336 0.67989 0.0
O636 O 0.97257 0.68209 0.66036 0.0
O637 O 0.96268 0.66076 0.66711 0.0
O638 O 0.9701 0.67959 0.68998 0.0
O639 O 0.95034 0.66032 0.69271 0.0
C640 C 0.91395 0.62625 0.63968 0.0
C641 C 0.92052 0.61858 0.63748 0.0
H642 H 0.93599 0.60619 0.63607 0.0
H643 H 0.95555 0.61151 0.65167 0.0
H644 H 0.91352 0.66061 0.6657 0.0
H645 H 0.90415 0.64324 0.64676 0.0
H646 H 0.90555 0.62457 0.63296 0.0
H647 H 0.91708 0.61113 0.6291 0.0
C648 C 0.18961 0.26578 0.06775 0.0
C649 C 0.19745 0.27872 0.07664 0.0
C650 C 0.18903 0.27708 0.09964 0.0
C651 C 0.19119 0.29017 0.10266 0.0
C652 C 0.18266 0.29205 0.11163 0.0
C653 C 0.17159 0.28054 0.11743 0.0
C654 C 0.16962 0.26732 0.11461 0.0
C655 C 0.17857 0.2658 0.10593 0.0
C656 C 0.18528 0.30631 0.1146 0.0
C657 C 0.15781 0.25477 0.12036 0.0
C658 C 0.08529 0.29104 0.08031 0.0
C659 C 0.09209 0.28473 0.08812 0.0
C660 C 0.11408 0.29136 0.09902 0.0
C661 C 0.11027 0.27856 0.10471 0.0
C662 C 0.11933 0.27665 0.11313 0.0
C663 C 0.13232 0.28783 0.1162 0.0
C664 C 0.13609 0.30076 0.11066 0.0
C665 C 0.12695 0.3023 0.10202 0.0
C666 C 0.11505 0.26265 0.11864 0.0
C667 C 0.1498 0.31294 0.11377 0.0
C668 C 0.10859 0.2862 0.20497 0.0
C669 C 0.10626 0.27362 0.19945 0.0
C670 C 0.11647 0.27262 0.19247 0.0
C671 C 0.12922 0.28442 0.19091 0.0
C672 C 0.13164 0.29704 0.19658 0.0
C673 C 0.12128 0.29774 0.20357 0.0
C674 C 0.11361 0.25898 0.18664 0.0
C675 C 0.14511 0.30981 0.19509 0.0
C676 C 0.21205 0.26209 0.20837 0.0
C677 C 0.20884 0.27353 0.2112 0.0
C678 C 0.1866 0.27121 0.20702 0.0
C679 C 0.17338 0.26092 0.20412 0.0
C680 C 0.16434 0.26364 0.19666 0.0
C681 C 0.16858 0.27709 0.19235 0.0
C682 C 0.18175 0.28771 0.19594 0.0
C683 C 0.19067 0.28464 0.20317 0.0
C684 C 0.15034 0.25208 0.19317 0.0
C685 C 0.18642 0.30226 0.192 0.0
C686 C 0.16151 0.28226 0.12549 0.0
C687 C 0.15196 0.2842 0.11811 0.0
C688 C 0.14213 0.28592 0.12484 0.0
C689 C 0.14171 0.28567 0.13941 0.0
C690 C 0.13204 0.28752 0.14654 0.0
C691 C 0.13148 0.28691 0.16086 0.0
C692 C 0.14063 0.28452 0.16861 0.0
C693 C 0.13994 0.28358 0.18315 0.0
C694 C 0.1493 0.28139 0.19057 0.0
C695 C 0.15933 0.27996 0.18386 0.0
C696 C 0.1601 0.28074 0.1693 0.0
C697 C 0.16999 0.27923 0.16218 0.0
C698 C 0.17061 0.27994 0.14786 0.0
C699 C 0.16121 0.2819 0.14007 0.0
C700 C 0.15121 0.28354 0.14704 0.0
C701 C 0.15068 0.28299 0.16167 0.0
C702 C 0.07745 0.27618 0.19977 0.0
C703 C 0.08548 0.27815 0.21325 0.0
O704 O 0.19676 0.27516 0.09038 0.0
O705 O 0.19513 0.26782 0.21355 0.0
O706 O 0.09897 0.28776 0.2116 0.0
O707 O 0.10576 0.29358 0.09057 0.0
H708 H 0.19257 0.2851 0.07498 0.0
H709 H 0.17887 0.26024 0.07087 0.0
H710 H 0.19394 0.25891 0.06905 0.0
H711 H 0.18992 0.2684 0.05669 0.0
H712 H 0.19948 0.29887 0.09788 0.0
H713 H 0.17709 0.25574 0.10352 0.0
H714 H 0.17771 0.30794 0.10884 0.0
H715 H 0.19552 0.31418 0.11142 0.0
H716 H 0.1842 0.30775 0.12576 0.0
H717 H 0.15707 0.2452 0.11624 0.0
H718 H 0.14823 0.25472 0.11788 0.0
H719 H 0.15887 0.2549 0.13177 0.0
H720 H 0.08984 0.27449 0.08416 0.0
H721 H 0.08181 0.28508 0.07028 0.0
H722 H 0.09352 0.30052 0.07549 0.0
H723 H 0.07181 0.29153 0.09448 0.0
H724 H 0.10033 0.26999 0.10248 0.0
H725 H 0.1298 0.31213 0.0976 0.0
H726 H 0.11435 0.26285 0.13004 0.0
H727 H 0.12273 0.25963 0.11623 0.0
H728 H 0.1051 0.25478 0.11429 0.0
H729 H 0.15052 0.3226 0.11019 0.0
H730 H 0.15764 0.31152 0.10854 0.0
H731 H 0.15209 0.31386 0.12503 0.0
H732 H 0.08461 0.26827 0.21631 0.0
H733 H 0.09654 0.26455 0.20046 0.0
H734 H 0.12301 0.30738 0.20788 0.0
H735 H 0.1143 0.25949 0.17523 0.0
H736 H 0.10342 0.25062 0.18933 0.0
H737 H 0.12131 0.25645 0.19056 0.0
H738 H 0.14532 0.3189 0.19988 0.0
H739 H 0.14747 0.31177 0.18399 0.0
H740 H 0.1532 0.30839 0.2 0.0
H741 H 0.21163 0.27985 0.20175 0.0
H742 H 0.22299 0.2664 0.20635 0.0
H743 H 0.2062 0.25604 0.19912 0.0
H744 H 0.20931 0.25515 0.21728 0.0
H745 H 0.17029 0.25063 0.20735 0.0
H746 H 0.20077 0.29272 0.20587 0.0
H747 H 0.14829 0.25167 0.18189 0.0
H748 H 0.14275 0.25388 0.19843 0.0
H749 H 0.14895 0.24204 0.19638 0.0
H750 H 0.19636 0.30952 0.19686 0.0
H751 H 0.17886 0.30523 0.19509 0.0
H752 H 0.18734 0.30316 0.18062 0.0
H753 H 0.15218 0.28435 0.10692 0.0
H754 H 0.12473 0.28937 0.14111 0.0
H755 H 0.12375 0.2883 0.16577 0.0
H756 H 0.14867 0.28062 0.20171 0.0
H757 H 0.17737 0.27749 0.16759 0.0
H758 H 0.17848 0.27879 0.14294 0.0
H759 H 0.06662 0.2686 0.20115 0.0
H760 H 0.08132 0.27236 0.1914 0.0
H761 H 0.07829 0.28599 0.19652 0.0
C762 C 0.74266 0.93359 0.10226 0.0
C763 C 0.72873 0.92263 0.09663 0.0
C764 C 0.71948 0.90417 0.11353 0.0
C765 C 0.70839 0.89664 0.12185 0.0
C766 C 0.70681 0.88508 0.12876 0.0
C767 C 0.71697 0.88135 0.12783 0.0
C768 C 0.72824 0.88892 0.11938 0.0
C769 C 0.72924 0.90008 0.11211 0.0
C770 C 0.69433 0.87698 0.13714 0.0
C771 C 0.73929 0.8853 0.11801 0.0
C772 C 0.69996 0.78503 0.08528 0.0
C773 C 0.70508 0.799 0.0912 0.0
C774 C 0.70224 0.81057 0.11118 0.0
C775 C 0.71525 0.82204 0.11133 0.0
C776 C 0.71838 0.83351 0.11964 0.0
C777 C 0.70815 0.83378 0.12756 0.0
C778 C 0.69496 0.82231 0.12725 0.0
C779 C 0.6923 0.81072 0.11934 0.0
C780 C 0.73263 0.84538 0.11983 0.0
C781 C 0.68363 0.8223 0.13516 0.0
C782 C 0.71235 0.81433 0.21716 0.0
C783 C 0.72486 0.82258 0.21099 0.0
C784 C 0.7272 0.83421 0.20368 0.0
C785 C 0.71674 0.83748 0.20227 0.0
C786 C 0.7042 0.82929 0.20861 0.0
C787 C 0.70225 0.81789 0.21609 0.0
C788 C 0.74081 0.84296 0.19736 0.0
C789 C 0.69282 0.83247 0.20733 0.0
C790 C 0.74339 0.9451 0.21641 0.0
C791 C 0.732 0.93069 0.2193 0.0
C792 C 0.73386 0.9102 0.21597 0.0
C793 C 0.74379 0.90661 0.21367 0.0
C794 C 0.7407 0.89446 0.20662 0.0
C795 C 0.72724 0.88554 0.2021 0.0
C796 C 0.71698 0.88877 0.20508 0.0
C797 C 0.72042 0.90112 0.21192 0.0
C798 C 0.75187 0.8913 0.20373 0.0
C799 C 0.70243 0.87925 0.20089 0.0
C800 C 0.71596 0.86974 0.13591 0.0
C801 C 0.7124 0.8575 0.1289 0.0
C802 C 0.71126 0.84618 0.13588 0.0
C803 C 0.71337 0.84694 0.15037 0.0
C804 C 0.71216 0.83574 0.15779 0.0
C805 C 0.71382 0.83646 0.17208 0.0
C806 C 0.71715 0.84853 0.17948 0.0
C807 C 0.7188 0.84936 0.19402 0.0
C808 C 0.72212 0.86152 0.20105 0.0
C809 C 0.72394 0.87302 0.19396 0.0
C810 C 0.72244 0.87243 0.17941 0.0
C811 C 0.72449 0.88389 0.17191 0.0
C812 C 0.72257 0.88309 0.15766 0.0
C813 C 0.71845 0.87079 0.15034 0.0
C814 C 0.71687 0.85926 0.15762 0.0
C815 C 0.71885 0.86008 0.17218 0.0
C816 C 0.71433 0.78825 0.21019 0.0
C817 C 0.71652 0.79571 0.22411 0.0
O818 O 0.72042 0.91537 0.10732 0.0
O819 O 0.73759 0.92246 0.22209 0.0
O820 O 0.70951 0.80286 0.22419 0.0
O821 O 0.69896 0.79922 0.1034 0.0
H822 H 0.73029 0.91566 0.08966 0.0
H823 H 0.7484 0.92885 0.10656 0.0
H824 H 0.74167 0.93979 0.11064 0.0
H825 H 0.74868 0.94043 0.09385 0.0
H826 H 0.70084 0.89979 0.12281 0.0
H827 H 0.7378 0.90563 0.10557 0.0
H828 H 0.69034 0.86587 0.13561 0.0
H829 H 0.68622 0.87937 0.1344 0.0
H830 H 0.69693 0.87946 0.14826 0.0
H831 H 0.74856 0.89373 0.11355 0.0
H832 H 0.73563 0.87624 0.11106 0.0
H833 H 0.74198 0.8827 0.12817 0.0
H834 H 0.70566 0.80678 0.08377 0.0
H835 H 0.71697 0.78239 0.08612 0.0
H836 H 0.69473 0.78491 0.07528 0.0
H837 H 0.69031 0.77812 0.09072 0.0
H838 H 0.72308 0.82205 0.10515 0.0
H839 H 0.68229 0.80182 0.11918 0.0
H840 H 0.73292 0.85369 0.11358 0.0
H841 H 0.73989 0.84254 0.11545 0.0
H842 H 0.73602 0.8494 0.13051 0.0
H843 H 0.6736 0.81367 0.13195 0.0
H844 H 0.68355 0.83201 0.13367 0.0
H845 H 0.68519 0.82141 0.14635 0.0
H846 H 0.72749 0.80285 0.22595 0.0
H847 H 0.73287 0.82007 0.21183 0.0
H848 H 0.69267 0.81152 0.22095 0.0
H849 H 0.73971 0.84219 0.18594 0.0
H850 H 0.74831 0.83986 0.20055 0.0
H851 H 0.74479 0.85383 0.20037 0.0
H852 H 0.68341 0.82458 0.21211 0.0
H853 H 0.69064 0.83328 0.19628 0.0
H854 H 0.69588 0.84246 0.21241 0.0
H855 H 0.72555 0.92707 0.20974 0.0
H856 H 0.73917 0.9519 0.21403 0.0
H857 H 0.74915 0.94484 0.20737 0.0
H858 H 0.75046 0.94938 0.22544 0.0
H859 H 0.7541 0.91361 0.21704 0.0
H860 H 0.7126 0.90364 0.21416 0.0
H861 H 0.75216 0.8895 0.19249 0.0
H862 H 0.74982 0.88181 0.20905 0.0
H863 H 0.76193 0.89965 0.20726 0.0
H864 H 0.69547 0.88242 0.20543 0.0
H865 H 0.69932 0.86871 0.20415 0.0
H866 H 0.70132 0.87906 0.18949 0.0
H867 H 0.71059 0.85679 0.11782 0.0
H868 H 0.70975 0.82622 0.15265 0.0
H869 H 0.7125 0.82742 0.17724 0.0
H870 H 0.72323 0.86203 0.21221 0.0
H871 H 0.72754 0.8936 0.17697 0.0
H872 H 0.72429 0.89225 0.15246 0.0
H873 H 0.7034 0.78106 0.20824 0.0
H874 H 0.7199 0.78247 0.21004 0.0
H875 H 0.71813 0.79566 0.20167 0.0
C876 C 0.178 0.90496 0.07116 0.0
C877 C 0.18862 0.9136 0.08229 0.0
C878 C 0.17892 0.8985 0.10207 0.0
C879 C 0.16876 0.90178 0.10489 0.0
C880 C 0.15834 0.89391 0.11394 0.0
C881 C 0.15794 0.88243 0.12017 0.0
C882 C 0.16837 0.87934 0.1177 0.0
C883 C 0.17884 0.88756 0.10882 0.0
C884 C 0.14752 0.89765 0.11654 0.0
C885 C 0.1682 0.86708 0.12402 0.0
C886 C 0.07713 0.82843 0.06455 0.0
C887 C 0.08316 0.82262 0.07488 0.0
C888 C 0.0899 0.83107 0.09839 0.0
C889 C 0.09992 0.82747 0.1007 0.0
C890 C 0.11024 0.8345 0.11063 0.0
C891 C 0.11067 0.84552 0.11819 0.0
C892 C 0.10029 0.84886 0.11615 0.0
C893 C 0.08985 0.84135 0.10646 0.0
C894 C 0.12091 0.83041 0.11274 0.0
C895 C 0.10052 0.86073 0.12373 0.0
C896 C 0.08559 0.82484 0.2058 0.0
C897 C 0.09575 0.82167 0.2027 0.0
C898 C 0.10768 0.83125 0.19639 0.0
C899 C 0.10947 0.84425 0.19318 0.0
C900 C 0.09952 0.84767 0.19688 0.0
C901 C 0.08773 0.83792 0.20327 0.0
C902 C 0.11828 0.82743 0.19294 0.0
C903 C 0.1012 0.8615 0.19378 0.0
C904 C 0.20176 0.9328 0.21088 0.0
C905 C 0.1943 0.92374 0.22304 0.0
C906 C 0.17858 0.90163 0.2117 0.0
C907 C 0.17644 0.88852 0.20894 0.0
C908 C 0.16542 0.87916 0.20075 0.0
C909 C 0.15622 0.883 0.19527 0.0
C910 C 0.15821 0.8962 0.19813 0.0
C911 C 0.16941 0.90542 0.20626 0.0
C912 C 0.16363 0.86518 0.19788 0.0
C913 C 0.1485 0.90055 0.19256 0.0
C914 C 0.14594 0.87292 0.12812 0.0
C915 C 0.13441 0.86369 0.12057 0.0
C916 C 0.12263 0.85438 0.12712 0.0
C917 C 0.12234 0.85405 0.14169 0.0
C918 C 0.11083 0.84452 0.14863 0.0
C919 C 0.11053 0.8445 0.16298 0.0
C920 C 0.12178 0.85397 0.17094 0.0
C921 C 0.12153 0.8541 0.18553 0.0
C922 C 0.13286 0.86369 0.19311 0.0
C923 C 0.14455 0.8732 0.18653 0.0
C924 C 0.14503 0.87317 0.17195 0.0
C925 C 0.15667 0.88251 0.16498 0.0
C926 C 0.157 0.88248 0.15063 0.0
C927 C 0.14574 0.87305 0.1427 0.0
C928 C 0.1339 0.86353 0.1495 0.0
C929 C 0.13357 0.86355 0.16414 0.0
C930 C 0.05278 0.79778 0.20201 0.0
C931 C 0.06672 0.80169 0.20818 0.0
O932 O 0.18879 0.90538 0.09278 0.0
O933 O 0.18961 0.91015 0.21958 0.0
O934 O 0.07364 0.81556 0.21123 0.0
O935 O 0.08043 0.82508 0.08816 0.0
H936 H 0.18624 0.92131 0.08662 0.0
H937 H 0.16774 0.89985 0.07554 0.0
H938 H 0.18008 0.89702 0.0669 0.0
H939 H 0.17806 0.91151 0.06263 0.0
H940 H 0.16876 0.91035 0.09998 0.0
H941 H 0.18676 0.88516 0.10668 0.0
H942 H 0.13796 0.89005 0.11129 0.0
H943 H 0.15029 0.90792 0.11263 0.0
H944 H 0.14558 0.89742 0.12775 0.0
H945 H 0.17684 0.86584 0.12072 0.0
H946 H 0.15864 0.8577 0.12107 0.0
H947 H 0.16858 0.86808 0.13544 0.0
H948 H 0.09428 0.82816 0.07322 0.0
H949 H 0.07913 0.82648 0.05381 0.0
H950 H 0.08184 0.83963 0.06622 0.0
H951 H 0.06605 0.8238 0.06582 0.0
H952 H 0.09972 0.81926 0.09464 0.0
H953 H 0.08197 0.84393 0.10464 0.0
H954 H 0.12302 0.83014 0.12393 0.0
H955 H 0.13044 0.83808 0.10799 0.0
H956 H 0.11786 0.82027 0.10799 0.0
H957 H 0.09254 0.86288 0.11985 0.0
H958 H 0.11051 0.87005 0.12268 0.0
H959 H 0.09895 0.85848 0.13488 0.0
H960 H 0.07189 0.79906 0.20004 0.0
H961 H 0.09442 0.81175 0.20522 0.0
H962 H 0.07993 0.84034 0.20593 0.0
H963 H 0.1194 0.82748 0.18158 0.0
H964 H 0.1157 0.81718 0.19676 0.0
H965 H 0.1282 0.83509 0.1975 0.0
H966 H 0.09256 0.86261 0.19739 0.0
H967 H 0.10215 0.86319 0.18248 0.0
H968 H 0.11063 0.86958 0.19882 0.0
H969 H 0.18567 0.92525 0.22581 0.0
H970 H 0.20557 0.9437 0.21362 0.0
H971 H 0.19485 0.93016 0.20176 0.0
H972 H 0.21043 0.93141 0.208 0.0
H973 H 0.18355 0.88568 0.21318 0.0
H974 H 0.17088 0.91552 0.20826 0.0
H975 H 0.163 0.86323 0.18657 0.0
H976 H 0.15399 0.85732 0.2023 0.0
H977 H 0.17204 0.86401 0.20234 0.0
H978 H 0.15098 0.91087 0.19637 0.0
H979 H 0.13803 0.89313 0.19553 0.0
H980 H 0.14872 0.90063 0.18111 0.0
H981 H 0.13457 0.86385 0.10938 0.0
H982 H 0.10189 0.83698 0.14304 0.0
H983 H 0.10135 0.83698 0.16775 0.0
H984 H 0.13258 0.86375 0.20429 0.0
H985 H 0.16565 0.88999 0.17056 0.0
H986 H 0.16619 0.88994 0.14582 0.0
H987 H 0.04702 0.80072 0.20907 0.0
H988 H 0.04689 0.78661 0.19988 0.0
H989 H 0.05399 0.80313 0.19212 0.0
C990 C 0.27383 0.0986 0.94238 0.0
C991 C 0.28003 0.09423 0.93082 0.0
C992 C 0.28637 0.11308 0.9146 0.0
C993 C 0.27318 0.10927 0.90992 0.0
C994 C 0.27078 0.11781 0.90127 0.0
C995 C 0.28175 0.13036 0.89717 0.0
C996 C 0.29505 0.13403 0.90151 0.0
C997 C 0.29717 0.12529 0.91013 0.0
C998 C 0.25648 0.11354 0.8967 0.0
C999 C 0.30699 0.1473 0.89725 0.0
C1000 C 0.25771 0.18866 0.94985 0.0
C1001 C 0.26917 0.19394 0.93952 0.0
C1002 C 0.26658 0.18423 0.91654 0.0
C1003 C 0.27988 0.18717 0.91431 0.0
C1004 C 0.28259 0.1793 0.90495 0.0
C1005 C 0.27173 0.16812 0.89789 0.0
C1006 C 0.25831 0.1654 0.89987 0.0
C1007 C 0.25596 0.17371 0.90898 0.0
C1008 C 0.29704 0.18273 0.9029 0.0
C1009 C 0.24642 0.15342 0.89278 0.0
C1010 C 0.26531 0.18735 0.81007 0.0
C1011 C 0.27863 0.1907 0.81359 0.0
C1012 C 0.28135 0.18117 0.81999 0.0
C1013 C 0.27054 0.16804 0.82288 0.0
C1014 C 0.2572 0.16443 0.81871 0.0
C1015 C 0.25479 0.17413 0.81222 0.0
C1016 C 0.29574 0.18519 0.82391 0.0
C1017 C 0.24548 0.15046 0.82146 0.0
C1018 C 0.28377 0.08362 0.81572 0.0
C1019 C 0.28088 0.08769 0.80154 0.0
C1020 C 0.28441 0.11054 0.80752 0.0
C1021 C 0.29443 0.12423 0.80851 0.0
C1022 C 0.29238 0.13378 0.81591 0.0
C1023 C 0.2798 0.12954 0.82216 0.0
C1024 C 0.26937 0.1158 0.82069 0.0
C1025 C 0.27184 0.10639 0.81354 0.0
C1026 C 0.30375 0.14833 0.81723 0.0
C1027 C 0.25565 0.11101 0.82677 0.0
C1028 C 0.27923 0.13998 0.88899 0.0
C1029 C 0.27679 0.14928 0.89622 0.0
C1030 C 0.27433 0.1587 0.88933 0.0
C1031 C 0.27424 0.15886 0.87474 0.0
C1032 C 0.27199 0.1683 0.86746 0.0
C1033 C 0.27158 0.16813 0.8531 0.0
C1034 C 0.27358 0.15863 0.84546 0.0
C1035 C 0.2731 0.15833 0.83086 0.0
C1036 C 0.27506 0.14871 0.8236 0.0
C1037 C 0.27769 0.13941 0.83053 0.0
C1038 C 0.27836 0.13965 0.84513 0.0
C1039 C 0.28123 0.13061 0.85244 0.0
C1040 C 0.28152 0.1307 0.8668 0.0
C1041 C 0.27911 0.13992 0.87441 0.0
C1042 C 0.27651 0.14933 0.86726 0.0
C1043 C 0.27615 0.1492 0.85261 0.0
C1044 C 0.25864 0.21456 0.81243 0.0
C1045 C 0.26892 0.21045 0.8077 0.0
O1046 O 0.28915 0.10548 0.92351 0.0
O1047 O 0.28737 0.10179 0.80069 0.0
O1048 O 0.26225 0.19659 0.80465 0.0
O1049 O 0.26371 0.19112 0.92623 0.0
H1050 H 0.27186 0.08688 0.92369 0.0
H1051 H 0.26803 0.10328 0.93807 0.0
H1052 H 0.28187 0.10618 0.94945 0.0
H1053 H 0.26678 0.08961 0.94841 0.0
H1054 H 0.26469 0.09976 0.91307 0.0
H1055 H 0.30731 0.12811 0.91368 0.0
H1056 H 0.25361 0.12097 0.90078 0.0
H1057 H 0.24909 0.10321 0.90029 0.0
H1058 H 0.25581 0.11362 0.88526 0.0
H1059 H 0.31675 0.14847 0.90113 0.0
H1060 H 0.30592 0.15596 0.90128 0.0
H1061 H 0.30722 0.14791 0.88583 0.0
H1062 H 0.2747 0.18825 0.9416 0.0
H1063 H 0.26189 0.19104 0.96058 0.0
H1064 H 0.25136 0.17741 0.94865 0.0
H1065 H 0.25115 0.19326 0.94812 0.0
H1066 H 0.28812 0.19554 0.91996 0.0
H1067 H 0.24573 0.17163 0.91074 0.0
H1068 H 0.299 0.18246 0.89174 0.0
H1069 H 0.29883 0.17499 0.90805 0.0
H1070 H 0.30436 0.19294 0.90728 0.0
H1071 H 0.2366 0.15187 0.89654 0.0
H1072 H 0.24692 0.14394 0.89446 0.0
H1073 H 0.24677 0.1551 0.8815 0.0
H1074 H 0.27612 0.21292 0.8166 0.0
H1075 H 0.28689 0.20075 0.81139 0.0
H1076 H 0.24458 0.17157 0.80923 0.0
H1077 H 0.29683 0.18534 0.83532 0.0
H1078 H 0.3031 0.1954 0.82003 0.0
H1079 H 0.29827 0.17754 0.81974 0.0
H1080 H 0.23571 0.14922 0.8175 0.0
H1081 H 0.24474 0.14865 0.83273 0.0
H1082 H 0.24721 0.14255 0.81653 0.0
H1083 H 0.26981 0.08336 0.79996 0.0
H1084 H 0.27864 0.07234 0.81651 0.0
H1085 H 0.27994 0.08754 0.82404 0.0
H1086 H 0.29482 0.08787 0.81742 0.0
H1087 H 0.30405 0.12736 0.80373 0.0
H1088 H 0.26389 0.09588 0.81271 0.0
H1089 H 0.3056 0.15165 0.82824 0.0
H1090 H 0.30085 0.15511 0.8117 0.0
H1091 H 0.3133 0.14968 0.81287 0.0
H1092 H 0.24804 0.10071 0.82283 0.0
H1093 H 0.25199 0.11827 0.82441 0.0
H1094 H 0.25642 0.11059 0.83816 0.0
H1095 H 0.27679 0.14918 0.90742 0.0
H1096 H 0.27042 0.17586 0.87278 0.0
H1097 H 0.26965 0.17555 0.84806 0.0
H1098 H 0.27459 0.14849 0.81241 0.0
H1099 H 0.28321 0.12331 0.84716 0.0
H1100 H 0.28366 0.12343 0.87187 0.0
H1101 H 0.25057 0.21189 0.80445 0.0
H1102 H 0.26373 0.22571 0.81466 0.0
H1103 H 0.25382 0.20912 0.82202 0.0
C1104 C 0.80711 0.06279 0.92478 0.0
C1105 C 0.80673 0.07566 0.9293 0.0
C1106 C 0.81559 0.09241 0.91071 0.0
C1107 C 0.81234 0.10059 0.90258 0.0
C1108 C 0.82222 0.11134 0.89501 0.0
C1109 C 0.83558 0.1135 0.89503 0.0
C1110 C 0.83889 0.10505 0.90302 0.0
C1111 C 0.82891 0.09475 0.91097 0.0
C1112 C 0.81832 0.12043 0.88714 0.0
C1113 C 0.85296 0.10689 0.9032 0.0
C1114 C 0.92623 0.21048 0.92836 0.0
C1115 C 0.91882 0.19775 0.91985 0.0
C1116 C 0.89578 0.18043 0.91355 0.0
C1117 C 0.89901 0.17158 0.90637 0.0
C1118 C 0.88925 0.16081 0.89815 0.0
C1119 C 0.87613 0.15916 0.89665 0.0
C1120 C 0.87286 0.1681 0.90385 0.0
C1121 C 0.8827 0.17847 0.9124 0.0
C1122 C 0.89298 0.15112 0.89119 0.0
C1123 C 0.85902 0.16673 0.90249 0.0
C1124 C 0.89724 0.18178 0.80738 0.0
C1125 C 0.89937 0.17099 0.8113 0.0
C1126 C 0.88953 0.15987 0.81851 0.0
C1127 C 0.87725 0.15943 0.82176 0.0
C1128 C 0.875 0.17017 0.81773 0.0
C1129 C 0.88507 0.18124 0.81064 0.0
C1130 C 0.89228 0.1486 0.82275 0.0
C1131 C 0.86199 0.16998 0.82099 0.0
C1132 C 0.79565 0.05478 0.80321 0.0
C1133 C 0.7984 0.0691 0.79967 0.0
C1134 C 0.82055 0.08897 0.80466 0.0
C1135 C 0.8338 0.09187 0.80732 0.0
C1136 C 0.84282 0.10343 0.81516 0.0
C1137 C 0.83853 0.11248 0.82012 0.0
C1138 C 0.82529 0.10992 0.81691 0.0
C1139 C 0.81641 0.09815 0.80923 0.0
C1140 C 0.8569 0.1059 0.81823 0.0
C1141 C 0.82053 0.11959 0.82165 0.0
C1142 C 0.84619 0.12493 0.88715 0.0
C1143 C 0.85576 0.13641 0.89461 0.0
C1144 C 0.86572 0.1478 0.88794 0.0
C1145 C 0.86592 0.14799 0.87335 0.0
C1146 C 0.87535 0.15954 0.86627 0.0
C1147 C 0.87568 0.1595 0.85193 0.0
C1148 C 0.8665 0.14796 0.8441 0.0
C1149 C 0.86685 0.14777 0.82953 0.0
C1150 C 0.85751 0.13617 0.82205 0.0
C1151 C 0.84788 0.12457 0.82874 0.0
C1152 C 0.84748 0.12449 0.84333 0.0
C1153 C 0.83814 0.11289 0.85042 0.0
C1154 C 0.83775 0.11297 0.86477 0.0
C1155 C 0.84668 0.12464 0.87258 0.0
C1156 C 0.85644 0.13631 0.86566 0.0
C1157 C 0.85678 0.13627 0.85102 0.0
C1158 C 0.92963 0.20058 0.80743 0.0
C1159 C 0.91892 0.19521 0.79574 0.0
O1160 O 0.80551 0.08231 0.91789 0.0
O1161 O 0.81211 0.07733 0.79752 0.0
O1162 O 0.90659 0.1929 0.8006 0.0
O1163 O 0.90497 0.19086 0.92171 0.0
H1164 H 0.8162 0.08251 0.93523 0.0
H1165 H 0.81604 0.06545 0.91837 0.0
H1166 H 0.79791 0.05581 0.9186 0.0
H1167 H 0.80778 0.05732 0.93398 0.0
H1168 H 0.80203 0.0987 0.90245 0.0
H1169 H 0.83158 0.08848 0.91719 0.0
H1170 H 0.82613 0.13131 0.8886 0.0
H1171 H 0.80844 0.11911 0.89042 0.0
H1172 H 0.81751 0.11789 0.87597 0.0
H1173 H 0.85328 0.09808 0.90783 0.0
H1174 H 0.85982 0.11619 0.90936 0.0
H1175 H 0.85689 0.10829 0.89258 0.0
H1176 H 0.92343 0.19103 0.92013 0.0
H1177 H 0.93307 0.20865 0.93546 0.0
H1178 H 0.9192 0.20982 0.93676 0.0
H1179 H 0.93367 0.22597 0.91372 0.0
H1180 H 0.90903 0.17281 0.90735 0.0
H1181 H 0.88029 0.18531 0.91803 0.0
H1182 H 0.88495 0.14038 0.89257 0.0
H1183 H 0.9027 0.15235 0.89529 0.0
H1184 H 0.894 0.15307 0.87996 0.0
H1185 H 0.85873 0.17564 0.90707 0.0
H1186 H 0.85159 0.15742 0.90783 0.0
H1187 H 0.85581 0.16561 0.89146 0.0
H1188 H 0.91791 0.18554 0.79149 0.0
H1189 H 0.9087 0.17117 0.80892 0.0
H1190 H 0.88349 0.18958 0.80759 0.0
H1191 H 0.89137 0.14733 0.8341 0.0
H1192 H 0.90249 0.15063 0.8198 0.0
H1193 H 0.88462 0.13883 0.81783 0.0
H1194 H 0.86162 0.17892 0.81677 0.0
H1195 H 0.86085 0.16993 0.83235 0.0
H1196 H 0.85327 0.16051 0.81669 0.0
H1197 H 0.79516 0.07286 0.8087 0.0
H1198 H 0.78471 0.04798 0.80504 0.0
H1199 H 0.8014 0.05524 0.81275 0.0
H1200 H 0.79882 0.05037 0.79471 0.0
H1201 H 0.83695 0.08483 0.80353 0.0
H1202 H 0.80631 0.09622 0.80669 0.0
H1203 H 0.85919 0.1076 0.82948 0.0
H1204 H 0.86434 0.11525 0.81294 0.0
H1205 H 0.85825 0.09725 0.81472 0.0
H1206 H 0.81038 0.11679 0.8173 0.0
H1207 H 0.82784 0.13016 0.8186 0.0
H1208 H 0.82005 0.11954 0.83308 0.0
H1209 H 0.8555 0.13645 0.90579 0.0
H1210 H 0.88262 0.16874 0.87175 0.0
H1211 H 0.88322 0.16866 0.84706 0.0
H1212 H 0.85786 0.13611 0.81087 0.0
H1213 H 0.83099 0.10362 0.84497 0.0
H1214 H 0.83036 0.10374 0.86967 0.0
H1215 H 0.93958 0.20275 0.8034 0.0
H1216 H 0.92683 0.19291 0.81564 0.0
H1217 H 0.93065 0.21006 0.81216 0.0
C1218 C 0.81129 0.71633 0.94573 0.0
C1219 C 0.8019 0.71715 0.93469 0.0
C1220 C 0.81237 0.7131 0.91457 0.0
C1221 C 0.82297 0.72651 0.91295 0.0
C1222 C 0.83413 0.72917 0.90491 0.0
C1223 C 0.83482 0.71819 0.89854 0.0
C1224 C 0.82403 0.7047 0.89993 0.0
C1225 C 0.81281 0.70239 0.90772 0.0
C1226 C 0.84533 0.74371 0.90344 0.0
C1227 C 0.8245 0.6927 0.89353 0.0
C1228 C 0.91122 0.74244 0.95633 0.0
C1229 C 0.90782 0.7304 0.94656 0.0
C1230 C 0.90181 0.73262 0.92302 0.0
C1231 C 0.89184 0.71928 0.91953 0.0
C1232 C 0.88193 0.71681 0.90937 0.0
C1233 C 0.88193 0.72796 0.90277 0.0
C1234 C 0.89221 0.74144 0.90609 0.0
C1235 C 0.90222 0.74356 0.916 0.0
C1236 C 0.87131 0.7023 0.90591 0.0
C1237 C 0.89238 0.75362 0.89956 0.0
C1238 C 0.91206 0.7375 0.81605 0.0
C1239 C 0.90229 0.72391 0.8185 0.0
C1240 C 0.88994 0.72076 0.82448 0.0
C1241 C 0.8873 0.73142 0.82799 0.0
C1242 C 0.89689 0.74506 0.82499 0.0
C1243 C 0.90912 0.7479 0.81894 0.0
C1244 C 0.87977 0.70608 0.8272 0.0
C1245 C 0.89431 0.75664 0.82843 0.0
C1246 C 0.78943 0.71346 0.81461 0.0
C1247 C 0.79663 0.71654 0.80076 0.0
C1248 C 0.81639 0.71437 0.80767 0.0
C1249 C 0.82053 0.70468 0.80919 0.0
C1250 C 0.83193 0.70744 0.81732 0.0
C1251 C 0.8396 0.72042 0.82378 0.0
C1252 C 0.83585 0.73054 0.82174 0.0
C1253 C 0.82417 0.72735 0.81387 0.0
C1254 C 0.83562 0.6964 0.81919 0.0
C1255 C 0.84409 0.74466 0.82803 0.0
C1256 C 0.84723 0.72077 0.89124 0.0
C1257 C 0.8584 0.7229 0.8993 0.0
C1258 C 0.87054 0.72558 0.89331 0.0
C1259 C 0.87163 0.72613 0.87878 0.0
C1260 C 0.88363 0.72867 0.87237 0.0
C1261 C 0.88468 0.72947 0.85808 0.0
C1262 C 0.87369 0.72755 0.84963 0.0
C1263 C 0.87465 0.72834 0.83509 0.0
C1264 C 0.86347 0.72617 0.827 0.0
C1265 C 0.85125 0.7232 0.83302 0.0
C1266 C 0.85014 0.72254 0.84755 0.0
C1267 C 0.83803 0.71969 0.85397 0.0
C1268 C 0.83711 0.71928 0.86827 0.0
C1269 C 0.84813 0.72133 0.8767 0.0
C1270 C 0.86039 0.72405 0.87046 0.0
C1271 C 0.86141 0.72473 0.85587 0.0
C1272 C 0.94555 0.74446 0.81952 0.0
C1273 C 0.93163 0.73428 0.81339 0.0
O1274 O 0.80172 0.71006 0.92284 0.0
O1275 O 0.80486 0.7107 0.8002 0.0
O1276 O 0.92437 0.74096 0.81092 0.0
O1277 O 0.91106 0.73517 0.93323 0.0
H1278 H 0.80551 0.72801 0.93224 0.0
H1279 H 0.8218 0.72106 0.942 0.0
H1280 H 0.80786 0.70552 0.94822 0.0
H1281 H 0.81145 0.72189 0.9553 0.0
H1282 H 0.82263 0.73494 0.91794 0.0
H1283 H 0.80454 0.69209 0.90896 0.0
H1284 H 0.85441 0.74523 0.90936 0.0
H1285 H 0.84243 0.75118 0.90733 0.0
H1286 H 0.84815 0.74585 0.89245 0.0
H1287 H 0.81583 0.6828 0.89656 0.0
H1288 H 0.83404 0.69293 0.89667 0.0
H1289 H 0.82437 0.69335 0.88213 0.0
H1290 H 0.89676 0.72317 0.94728 0.0
H1291 H 0.90852 0.73887 0.96707 0.0
H1292 H 0.90538 0.7475 0.95316 0.0
H1293 H 0.92217 0.75004 0.95607 0.0
H1294 H 0.89179 0.71083 0.92481 0.0
H1295 H 0.91008 0.75382 0.91874 0.0
H1296 H 0.86999 0.70069 0.89455 0.0
H1297 H 0.86149 0.70029 0.9101 0.0
H1298 H 0.8739 0.6948 0.91033 0.0
H1299 H 0.90032 0.76342 0.90422 0.0
H1300 H 0.88241 0.75303 0.90067 0.0
H1301 H 0.89426 0.75363 0.88836 0.0
H1302 H 0.92674 0.72637 0.82139 0.0
H1303 H 0.90425 0.71574 0.81572 0.0
H1304 H 0.91662 0.75833 0.81679 0.0
H1305 H 0.8781 0.70466 0.83846 0.0
H1306 H 0.8831 0.69892 0.82336 0.0
H1307 H 0.86992 0.70341 0.82216 0.0
H1308 H 0.90278 0.76669 0.82541 0.0
H1309 H 0.89279 0.7569 0.83969 0.0
H1310 H 0.88491 0.75496 0.82306 0.0
H1311 H 0.8028 0.72776 0.79954 0.0
H1312 H 0.7828 0.71808 0.81516 0.0
H1313 H 0.79693 0.71781 0.82327 0.0
H1314 H 0.78321 0.70226 0.81597 0.0
H1315 H 0.81454 0.69475 0.80426 0.0
H1316 H 0.82126 0.73507 0.8126 0.0
H1317 H 0.83673 0.69491 0.83035 0.0
H1318 H 0.84549 0.69955 0.81437 0.0
H1319 H 0.82795 0.68651 0.81446 0.0
H1320 H 0.84109 0.75191 0.82376 0.0
H1321 H 0.85501 0.74867 0.82622 0.0
H1322 H 0.84267 0.7442 0.83935 0.0
H1323 H 0.85766 0.72254 0.91046 0.0
H1324 H 0.89238 0.73014 0.87835 0.0
H1325 H 0.89421 0.73158 0.85373 0.0
H1326 H 0.86426 0.72671 0.81585 0.0
H1327 H 0.82914 0.71783 0.84802 0.0
H1328 H 0.8276 0.71724 0.87262 0.0
H1329 H 0.95171 0.73941 0.82118 0.0
H1330 H 0.94434 0.74838 0.82964 0.0
H1331 H 0.95103 0.75329 0.81266 0.0
C1332 C 0.85837 0.60738 0.40147 0.0
C1333 C 0.86641 0.62002 0.41073 0.0
C1334 C 0.85632 0.61695 0.43305 0.0
C1335 C 0.8575 0.62957 0.43647 0.0
C1336 C 0.84802 0.63037 0.44496 0.0
C1337 C 0.837 0.61823 0.44988 0.0
C1338 C 0.83595 0.60547 0.44659 0.0
C1339 C 0.84581 0.60503 0.4384 0.0
C1340 C 0.84963 0.64417 0.44843 0.0
C1341 C 0.82425 0.5923 0.45143 0.0
C1342 C 0.74676 0.62485 0.41622 0.0
C1343 C 0.75462 0.61863 0.42196 0.0
C1344 C 0.77701 0.62601 0.43231 0.0
C1345 C 0.77408 0.61305 0.43687 0.0
C1346 C 0.78357 0.6114 0.44482 0.0
C1347 C 0.79614 0.62295 0.44845 0.0
C1348 C 0.7991 0.63599 0.44386 0.0
C1349 C 0.78952 0.63731 0.43575 0.0
C1350 C 0.78016 0.59731 0.44937 0.0
C1351 C 0.81237 0.64853 0.44758 0.0
C1352 C 0.77205 0.62071 0.53727 0.0
C1353 C 0.76994 0.60809 0.53212 0.0
C1354 C 0.78017 0.60717 0.52507 0.0
C1355 C 0.79273 0.61909 0.52311 0.0
C1356 C 0.79494 0.63176 0.52841 0.0
C1357 C 0.78456 0.63238 0.53545 0.0
C1358 C 0.77753 0.59348 0.5196 0.0
C1359 C 0.80821 0.64466 0.52651 0.0
C1360 C 0.87703 0.59838 0.54005 0.0
C1361 C 0.87348 0.60964 0.54248 0.0
C1362 C 0.85104 0.60695 0.53876 0.0
C1363 C 0.83784 0.59656 0.53597 0.0
C1364 C 0.82861 0.59916 0.52873 0.0
C1365 C 0.83263 0.61261 0.52456 0.0
C1366 C 0.84576 0.62334 0.52811 0.0
C1367 C 0.85488 0.62037 0.53508 0.0
C1368 C 0.81466 0.58748 0.5253 0.0
C1369 C 0.8502 0.63788 0.52435 0.0
C1370 C 0.82624 0.61888 0.45781 0.0
C1371 C 0.81647 0.62043 0.45038 0.0
C1372 C 0.80618 0.62139 0.45706 0.0
C1373 C 0.80554 0.62083 0.47162 0.0
C1374 C 0.79546 0.62201 0.47869 0.0
C1375 C 0.7948 0.62126 0.493 0.0
C1376 C 0.80421 0.6193 0.5008 0.0
C1377 C 0.8035 0.61833 0.51534 0.0
C1378 C 0.81301 0.61639 0.52278 0.0
C1379 C 0.82326 0.61531 0.51609 0.0
C1380 C 0.82416 0.6163 0.50155 0.0
C1381 C 0.83435 0.61531 0.49447 0.0
C1382 C 0.83519 0.61635 0.48018 0.0
C1383 C 0.82566 0.61809 0.47237 0.0
C1384 C 0.81526 0.61906 0.47928 0.0
C1385 C 0.81457 0.61826 0.49389 0.0
C1386 C 0.74069 0.60974 0.53258 0.0
C1387 C 0.74903 0.61239 0.54597 0.0
O1388 O 0.86512 0.61611 0.42439 0.0
O1389 O 0.85978 0.60367 0.54499 0.0
O1390 O 0.76239 0.62219 0.54394 0.0
O1391 O 0.7681 0.62807 0.42465 0.0
H1392 H 0.8621 0.6269 0.40906 0.0
H1393 H 0.84753 0.60222 0.40421 0.0
H1394 H 0.86217 0.60007 0.4028 0.0
H1395 H 0.85919 0.61031 0.39047 0.0
H1396 H 0.86582 0.63877 0.43243 0.0
H1397 H 0.84508 0.59534 0.43569 0.0
H1398 H 0.84177 0.64538 0.44274 0.0
H1399 H 0.85971 0.65263 0.44559 0.0
H1400 H 0.84821 0.64502 0.45963 0.0
H1401 H 0.82434 0.5832 0.44704 0.0
H1402 H 0.81454 0.59178 0.44847 0.0
H1403 H 0.82468 0.59191 0.46284 0.0
H1404 H 0.75319 0.60932 0.41635 0.0
H1405 H 0.74349 0.62024 0.40554 0.0
H1406 H 0.75434 0.63526 0.41247 0.0
H1407 H 0.73295 0.62194 0.43166 0.0
H1408 H 0.76445 0.60419 0.43422 0.0
H1409 H 0.79168 0.64726 0.43217 0.0
H1410 H 0.78828 0.59511 0.44636 0.0
H1411 H 0.7704 0.58926 0.44485 0.0
H1412 H 0.77955 0.59683 0.46079 0.0
H1413 H 0.81269 0.65805 0.44414 0.0
H1414 H 0.82072 0.64776 0.44268 0.0
H1415 H 0.81418 0.6492 0.45892 0.0
H1416 H 0.74851 0.60275 0.54936 0.0
H1417 H 0.76037 0.59891 0.53347 0.0
H1418 H 0.78613 0.64206 0.53948 0.0
H1419 H 0.7783 0.59378 0.50819 0.0
H1420 H 0.76738 0.58509 0.52233 0.0
H1421 H 0.78531 0.59119 0.52378 0.0
H1422 H 0.8083 0.65374 0.53117 0.0
H1423 H 0.81026 0.64641 0.51533 0.0
H1424 H 0.81654 0.64356 0.53128 0.0
H1425 H 0.87597 0.61566 0.53284 0.0
H1426 H 0.88795 0.60288 0.53783 0.0
H1427 H 0.8711 0.59191 0.53105 0.0
H1428 H 0.87466 0.59181 0.54923 0.0
H1429 H 0.83493 0.58628 0.53908 0.0
H1430 H 0.86498 0.62853 0.53768 0.0
H1431 H 0.81251 0.58712 0.51404 0.0
H1432 H 0.80702 0.5891 0.5307 0.0
H1433 H 0.81346 0.57748 0.52838 0.0
H1434 H 0.85999 0.64523 0.52941 0.0
H1435 H 0.84242 0.64059 0.52733 0.0
H1436 H 0.85133 0.63897 0.51301 0.0
H1437 H 0.81691 0.62092 0.43921 0.0
H1438 H 0.78793 0.6235 0.47324 0.0
H1439 H 0.78679 0.6222 0.49787 0.0
H1440 H 0.81235 0.61555 0.53391 0.0
H1441 H 0.84186 0.61376 0.49989 0.0
H1442 H 0.84333 0.61565 0.47532 0.0
H1443 H 0.72996 0.60201 0.53426 0.0
H1444 H 0.74455 0.60579 0.52433 0.0
H1445 H 0.74118 0.6193 0.52898 0.0
C1446 C 0.39517 0.27042 0.44415 0.0
C1447 C 0.38805 0.262 0.43107 0.0
C1448 C 0.37913 0.23868 0.44003 0.0
C1449 C 0.36739 0.22761 0.44487 0.0
C1450 C 0.36776 0.21677 0.45141 0.0
C1451 C 0.38024 0.217 0.45305 0.0
C1452 C 0.39213 0.22794 0.44772 0.0
C1453 C 0.39147 0.2387 0.44122 0.0
C1454 C 0.35486 0.20526 0.45691 0.0
C1455 C 0.40555 0.22838 0.44923 0.0
C1456 C 0.36969 0.11573 0.42475 0.0
C1457 C 0.37548 0.12874 0.43291 0.0
C1458 C 0.3701 0.14647 0.43954 0.0
C1459 C 0.38311 0.15577 0.44471 0.0
C1460 C 0.38566 0.1679 0.45148 0.0
C1461 C 0.37494 0.17069 0.45337 0.0
C1462 C 0.36188 0.16144 0.448 0.0
C1463 C 0.35969 0.14952 0.44103 0.0
C1464 C 0.3998 0.17768 0.45674 0.0
C1465 C 0.35019 0.16403 0.44979 0.0
C1466 C 0.3725 0.14969 0.54234 0.0
C1467 C 0.38518 0.15784 0.53645 0.0
C1468 C 0.388 0.16984 0.52957 0.0
C1469 C 0.3778 0.1735 0.52819 0.0
C1470 C 0.36514 0.16545 0.53436 0.0
C1471 C 0.36275 0.15375 0.54153 0.0
C1472 C 0.40181 0.17848 0.52361 0.0
C1473 C 0.35403 0.16905 0.53314 0.0
C1474 C 0.40324 0.27953 0.54221 0.0
C1475 C 0.39149 0.26571 0.54621 0.0
C1476 C 0.39335 0.24527 0.54241 0.0
C1477 C 0.4036 0.24211 0.54022 0.0
C1478 C 0.40105 0.23036 0.53271 0.0
C1479 C 0.38781 0.22138 0.52759 0.0
C1480 C 0.37725 0.22423 0.53032 0.0
C1481 C 0.38015 0.23619 0.53766 0.0
C1482 C 0.41253 0.2276 0.53011 0.0
C1483 C 0.36292 0.21462 0.52549 0.0
C1484 C 0.38083 0.20616 0.4611 0.0
C1485 C 0.37866 0.19431 0.45413 0.0
C1486 C 0.3773 0.18303 0.46137 0.0
C1487 C 0.37791 0.1835 0.47597 0.0
C1488 C 0.37568 0.17207 0.48363 0.0
C1489 C 0.37628 0.17262 0.49797 0.0
C1490 C 0.37933 0.18469 0.50525 0.0
C1491 C 0.38016 0.1854 0.51984 0.0
C1492 C 0.38302 0.19749 0.52675 0.0
C1493 C 0.38501 0.20897 0.5195 0.0
C1494 C 0.38425 0.20847 0.5049 0.0
C1495 C 0.38617 0.2198 0.49726 0.0
C1496 C 0.38506 0.21908 0.48293 0.0
C1497 C 0.38225 0.20708 0.47565 0.0
C1498 C 0.38063 0.19565 0.48311 0.0
C1499 C 0.38145 0.19629 0.49777 0.0
C1500 C 0.37162 0.12261 0.53338 0.0
C1501 C 0.3752 0.12983 0.54755 0.0
O1502 O 0.37795 0.24906 0.43445 0.0
O1503 O 0.39648 0.25702 0.54933 0.0
O1504 O 0.36919 0.13787 0.54887 0.0
O1505 O 0.36718 0.13452 0.43312 0.0
H1506 H 0.39553 0.26118 0.42444 0.0
H1507 H 0.4003 0.26576 0.44994 0.0
H1508 H 0.38776 0.27104 0.45104 0.0
H1509 H 0.40297 0.28091 0.44139 0.0
H1510 H 0.35792 0.22765 0.44378 0.0
H1511 H 0.40059 0.24709 0.43727 0.0
H1512 H 0.35324 0.19535 0.45273 0.0
H1513 H 0.34589 0.20628 0.4542 0.0
H1514 H 0.3557 0.20502 0.46831 0.0
H1515 H 0.41379 0.2373 0.44405 0.0
H1516 H 0.40476 0.2189 0.4448 0.0
H1517 H 0.40827 0.22887 0.46035 0.0
H1518 H 0.3796 0.12845 0.44334 0.0
H1519 H 0.38303 0.12043 0.40846 0.0
H1520 H 0.3586 0.11215 0.4231 0.0
H1521 H 0.36801 0.10771 0.43252 0.0
H1522 H 0.39133 0.15364 0.44348 0.0
H1523 H 0.34971 0.14236 0.43693 0.0
H1524 H 0.4028 0.18825 0.45367 0.0
H1525 H 0.40733 0.17501 0.4528 0.0
H1526 H 0.40008 0.17751 0.46818 0.0
H1527 H 0.34041 0.15518 0.44633 0.0
H1528 H 0.35194 0.17302 0.44368 0.0
H1529 H 0.34945 0.1664 0.46078 0.0
H1530 H 0.38636 0.13623 0.54873 0.0
H1531 H 0.39294 0.155 0.53717 0.0
H1532 H 0.35306 0.14747 0.54623 0.0
H1533 H 0.40109 0.17725 0.5122 0.0
H1534 H 0.40923 0.17556 0.52753 0.0
H1535 H 0.40566 0.18943 0.5261 0.0
H1536 H 0.34442 0.16112 0.53755 0.0
H1537 H 0.35218 0.1704 0.52214 0.0
H1538 H 0.3572 0.17886 0.53866 0.0
H1539 H 0.38443 0.26179 0.5371 0.0
H1540 H 0.3995 0.28668 0.53955 0.0
H1541 H 0.40829 0.27825 0.53305 0.0
H1542 H 0.41081 0.28405 0.55082 0.0
H1543 H 0.4137 0.24909 0.54414 0.0
H1544 H 0.37208 0.23836 0.53983 0.0
H1545 H 0.4132 0.22605 0.51888 0.0
H1546 H 0.41056 0.21808 0.53532 0.0
H1547 H 0.42241 0.23605 0.53396 0.0
H1548 H 0.35568 0.21767 0.52949 0.0
H1549 H 0.35977 0.2041 0.52886 0.0
H1550 H 0.36235 0.21441 0.51405 0.0
H1551 H 0.37771 0.19375 0.44296 0.0
H1552 H 0.37333 0.16251 0.47862 0.0
H1553 H 0.37435 0.16344 0.50327 0.0
H1554 H 0.3836 0.19793 0.53795 0.0
H1555 H 0.38843 0.22933 0.50228 0.0
H1556 H 0.3865 0.22809 0.47761 0.0
H1557 H 0.37638 0.11612 0.53224 0.0
H1558 H 0.37539 0.13023 0.52505 0.0
H1559 H 0.36048 0.11614 0.53206 0.0
C1560 C 0.85101 0.23308 0.39592 0.0
C1561 C 0.8603 0.24131 0.40813 0.0
C1562 C 0.84886 0.22514 0.42679 0.0
C1563 C 0.8381 0.22782 0.4283 0.0
C1564 C 0.82704 0.21952 0.4365 0.0
C1565 C 0.82662 0.20822 0.44319 0.0
C1566 C 0.83751 0.20562 0.44186 0.0
C1567 C 0.84858 0.21425 0.43382 0.0
C1568 C 0.8157 0.22272 0.43785 0.0
C1569 C 0.83733 0.19354 0.44865 0.0
C1570 C 0.74689 0.14503 0.38806 0.0
C1571 C 0.75143 0.13989 0.40048 0.0
C1572 C 0.75901 0.15287 0.42209 0.0
C1573 C 0.7691 0.14976 0.42598 0.0
C1574 C 0.77947 0.1582 0.43537 0.0
C1575 C 0.77978 0.17002 0.44088 0.0
C1576 C 0.76936 0.17292 0.43729 0.0
C1577 C 0.75897 0.16414 0.4281 0.0
C1578 C 0.79022 0.15462 0.43923 0.0
C1579 C 0.76941 0.18547 0.44287 0.0
C1580 C 0.75272 0.15135 0.52762 0.0
C1581 C 0.76292 0.14817 0.52475 0.0
C1582 C 0.77503 0.15781 0.51879 0.0
C1583 C 0.77696 0.17088 0.51566 0.0
C1584 C 0.76698 0.17432 0.51917 0.0
C1585 C 0.75501 0.16451 0.52523 0.0
C1586 C 0.78566 0.15397 0.51556 0.0
C1587 C 0.7688 0.18822 0.51616 0.0
C1588 C 0.86913 0.2595 0.5313 0.0
C1589 C 0.86293 0.25082 0.54406 0.0
C1590 C 0.84668 0.22842 0.53366 0.0
C1591 C 0.8446 0.21538 0.53067 0.0
C1592 C 0.83329 0.20591 0.52288 0.0
C1593 C 0.82377 0.20959 0.51803 0.0
C1594 C 0.82562 0.22267 0.52126 0.0
C1595 C 0.83707 0.23198 0.52903 0.0
C1596 C 0.8316 0.19203 0.51967 0.0
C1597 C 0.81556 0.22684 0.51634 0.0
C1598 C 0.81445 0.19872 0.45094 0.0
C1599 C 0.8032 0.18905 0.44332 0.0
C1600 C 0.79136 0.17972 0.4498 0.0
C1601 C 0.79071 0.17987 0.46435 0.0
C1602 C 0.77906 0.17048 0.47121 0.0
C1603 C 0.77847 0.17078 0.48553 0.0
C1604 C 0.78957 0.18041 0.49355 0.0
C1605 C 0.78911 0.18072 0.50812 0.0
C1606 C 0.80033 0.1904 0.51578 0.0
C1607 C 0.81209 0.19986 0.50926 0.0
C1608 C 0.81272 0.19975 0.4947 0.0
C1609 C 0.82438 0.20917 0.48781 0.0
C1610 C 0.82494 0.20893 0.47349 0.0
C1611 C 0.81392 0.19919 0.46549 0.0
C1612 C 0.80202 0.18967 0.47221 0.0
C1613 C 0.80143 0.18996 0.48683 0.0
C1614 C 0.71953 0.12348 0.52482 0.0
C1615 C 0.73398 0.12809 0.52987 0.0
O1616 O 0.85956 0.23262 0.41857 0.0
O1617 O 0.8581 0.23715 0.54092 0.0
O1618 O 0.74057 0.14201 0.53261 0.0
O1619 O 0.74931 0.14529 0.41247 0.0
H1620 H 0.85722 0.24861 0.41213 0.0
H1621 H 0.84033 0.22744 0.39913 0.0
H1622 H 0.85386 0.22561 0.39191 0.0
H1623 H 0.85172 0.23999 0.38748 0.0
H1624 H 0.83819 0.23629 0.4231 0.0
H1625 H 0.85693 0.21229 0.43267 0.0
H1626 H 0.80654 0.21472 0.43232 0.0
H1627 H 0.81829 0.23277 0.43348 0.0
H1628 H 0.81314 0.22266 0.44887 0.0
H1629 H 0.8461 0.19234 0.44575 0.0
H1630 H 0.82787 0.18404 0.44573 0.0
H1631 H 0.83752 0.19479 0.46003 0.0
H1632 H 0.76242 0.14367 0.39913 0.0
H1633 H 0.74833 0.14069 0.37832 0.0
H1634 H 0.75303 0.15632 0.38768 0.0
H1635 H 0.73608 0.1422 0.38878 0.0
H1636 H 0.76887 0.14075 0.42167 0.0
H1637 H 0.75103 0.16633 0.42514 0.0
H1638 H 0.79152 0.1549 0.45063 0.0
H1639 H 0.80002 0.1623 0.43496 0.0
H1640 H 0.78777 0.14437 0.43524 0.0
H1641 H 0.761 0.18667 0.43846 0.0
H1642 H 0.77914 0.19471 0.44056 0.0
H1643 H 0.76851 0.18489 0.45426 0.0
H1644 H 0.73883 0.12565 0.52123 0.0
H1645 H 0.76145 0.13817 0.52713 0.0
H1646 H 0.74718 0.16694 0.52772 0.0
H1647 H 0.78679 0.15384 0.50422 0.0
H1648 H 0.78309 0.14379 0.51957 0.0
H1649 H 0.79558 0.1617 0.52008 0.0
H1650 H 0.7601 0.18932 0.51957 0.0
H1651 H 0.77003 0.19007 0.5049 0.0
H1652 H 0.77813 0.1962 0.52145 0.0
H1653 H 0.85453 0.2523 0.54776 0.0
H1654 H 0.87316 0.27047 0.53389 0.0
H1655 H 0.86139 0.25662 0.52293 0.0
H1656 H 0.87747 0.25804 0.5274 0.0
H1657 H 0.85201 0.2127 0.53433 0.0
H1658 H 0.83843 0.24199 0.53131 0.0
H1659 H 0.83124 0.19043 0.50832 0.0
H1660 H 0.82187 0.184 0.52376 0.0
H1661 H 0.83993 0.19076 0.52417 0.0
H1662 H 0.81812 0.23716 0.5202 0.0
H1663 H 0.80529 0.21936 0.5198 0.0
H1664 H 0.81523 0.22677 0.50488 0.0
H1665 H 0.80364 0.18881 0.43215 0.0
H1666 H 0.77024 0.16279 0.46559 0.0
H1667 H 0.76921 0.16332 0.49023 0.0
H1668 H 0.79993 0.19052 0.52695 0.0
H1669 H 0.83321 0.21685 0.49342 0.0
H1670 H 0.83414 0.21646 0.46875 0.0
H1671 H 0.71399 0.12605 0.53255 0.0
H1672 H 0.71397 0.1123 0.52277 0.0
H1673 H 0.71977 0.1287 0.51507 0.0
C1674 C 0.01322 0.46671 0.28229 0.0
C1675 C 0.00419 0.45724 0.2706 0.0
C1676 C 0.00668 0.46905 0.2489 0.0
C1677 C 0.99311 0.46498 0.24582 0.0
C1678 C 0.98973 0.47247 0.23668 0.0
C1679 C 1.00014 0.48414 0.2304 0.0
C1680 C 0.01381 0.4879 0.23304 0.0
C1681 C 0.0169 0.48019 0.24217 0.0
C1682 C 0.97505 0.46801 0.23383 0.0
C1683 C 0.02514 0.5002 0.22639 0.0
C1684 C 0.98333 0.56723 0.26341 0.0
C1685 C 0.97914 0.55483 0.25464 0.0
C1686 C 0.98996 0.54416 0.2417 0.0
C1687 C 0.00206 0.54628 0.23607 0.0
C1688 C 0.00287 0.53571 0.22925 0.0
C1689 C 0.99124 0.52266 0.22806 0.0
C1690 C 0.97895 0.52038 0.2338 0.0
C1691 C 0.97841 0.53117 0.24053 0.0
C1692 C 0.01613 0.53848 0.22324 0.0
C1693 C 0.9664 0.50656 0.23272 0.0
C1694 C 0.9709 0.5293 0.14252 0.0
C1695 C 0.98462 0.53329 0.14435 0.0
C1696 C 0.98854 0.52443 0.15027 0.0
C1697 C 0.97851 0.51136 0.15447 0.0
C1698 C 0.9647 0.50701 0.15179 0.0
C1699 C 0.96108 0.51603 0.14568 0.0
C1700 C 0.00337 0.52921 0.15254 0.0
C1701 C 0.95376 0.49308 0.15595 0.0
C1702 C 0.99512 0.42858 0.1526 0.0
C1703 C 0.98828 0.42973 0.13933 0.0
C1704 C 0.99162 0.45288 0.1426 0.0
C1705 C 0.00152 0.46655 0.14149 0.0
C1706 C 0.00037 0.47692 0.14837 0.0
C1707 C 0.98877 0.47352 0.1562 0.0
C1708 C 0.97841 0.45973 0.1569 0.0
C1709 C 0.98004 0.44953 0.15029 0.0
C1710 C 0.01165 0.49148 0.14741 0.0
C1711 C 0.96564 0.45576 0.16469 0.0
C1712 C 0.99671 0.49274 0.22161 0.0
C1713 C 0.99543 0.50315 0.2281 0.0
C1714 C 0.99192 0.51149 0.22058 0.0
C1715 C 0.98945 0.50935 0.2062 0.0
C1716 C 0.98562 0.51738 0.19839 0.0
C1717 C 0.98323 0.51522 0.18425 0.0
C1718 C 0.98469 0.50503 0.17732 0.0
C1719 C 0.98239 0.50286 0.1629 0.0
C1720 C 0.98378 0.49255 0.15635 0.0
C1721 C 0.98755 0.48434 0.16381 0.0
C1722 C 0.99004 0.48646 0.17822 0.0
C1723 C 0.99403 0.47854 0.18604 0.0
C1724 C 0.99616 0.48051 0.20026 0.0
C1725 C 0.9946 0.49064 0.20717 0.0
C1726 C 0.99086 0.49893 0.19946 0.0
C1727 C 0.98852 0.4968 0.18499 0.0
C1728 C 0.96159 0.55194 0.15231 0.0
C1729 C 0.97194 0.55133 0.14285 0.0
O1730 O 0.01027 0.46233 0.25809 0.0
O1731 O 0.99363 0.44335 0.13602 0.0
O1732 O 0.96689 0.53808 0.1379 0.0
O1733 O 0.98995 0.55488 0.24817 0.0
H1734 H 0.99431 0.45697 0.27123 0.0
H1735 H 0.01446 0.47704 0.28101 0.0
H1736 H 0.02337 0.46757 0.2822 0.0
H1737 H 0.00857 0.4628 0.29244 0.0
H1738 H 0.98514 0.45593 0.25044 0.0
H1739 H 0.02734 0.48306 0.24442 0.0
H1740 H 0.97289 0.47612 0.23738 0.0
H1741 H 0.96814 0.45839 0.23909 0.0
H1742 H 0.97286 0.46652 0.22255 0.0
H1743 H 0.03524 0.50159 0.22926 0.0
H1744 H 0.02479 0.5095 0.22954 0.0
H1745 H 0.02384 0.49915 0.21499 0.0
H1746 H 0.97032 0.55199 0.24753 0.0
H1747 H 0.97902 0.55967 0.28344 0.0
H1748 H 0.9783 0.5726 0.25842 0.0
H1749 H 0.99381 0.57502 0.26022 0.0
H1750 H 0.01091 0.55633 0.23704 0.0
H1751 H 0.96897 0.5294 0.24483 0.0
H1752 H 0.01485 0.53652 0.21193 0.0
H1753 H 0.0193 0.53144 0.22772 0.0
H1754 H 0.0243 0.54915 0.22521 0.0
H1755 H 0.95764 0.50638 0.23782 0.0
H1756 H 0.96839 0.4988 0.23752 0.0
H1757 H 0.9637 0.50358 0.22168 0.0
H1758 H 0.98124 0.55461 0.14932 0.0
H1759 H 0.99225 0.54338 0.14132 0.0
H1760 H 0.95053 0.51298 0.14395 0.0
H1761 H 0.00589 0.53094 0.16374 0.0
H1762 H 0.0099 0.53885 0.14711 0.0
H1763 H 0.00573 0.52127 0.14891 0.0
H1764 H 0.94351 0.49113 0.15288 0.0
H1765 H 0.95419 0.49211 0.16731 0.0
H1766 H 0.95548 0.48511 0.15112 0.0
H1767 H 0.97722 0.42495 0.14082 0.0
H1768 H 0.99092 0.41773 0.15544 0.0
H1769 H 0.99333 0.43395 0.16127 0.0
H1770 H 0.0062 0.43322 0.15124 0.0
H1771 H 0.01036 0.46905 0.13545 0.0
H1772 H 0.97213 0.43904 0.15106 0.0
H1773 H 0.0149 0.49613 0.1579 0.0
H1774 H 0.00794 0.49752 0.14169 0.0
H1775 H 0.02055 0.49227 0.14203 0.0
H1776 H 0.95772 0.44505 0.16242 0.0
H1777 H 0.96154 0.4626 0.16207 0.0
H1778 H 0.96794 0.45685 0.17594 0.0
H1779 H 0.99721 0.5048 0.23916 0.0
H1780 H 0.98438 0.52541 0.20314 0.0
H1781 H 0.98023 0.52169 0.17883 0.0
H1782 H 0.98192 0.4909 0.1453 0.0
H1783 H 0.9955 0.47066 0.18128 0.0
H1784 H 0.9991 0.47404 0.20576 0.0
H1785 H 0.95173 0.54825 0.14683 0.0
H1786 H 0.96534 0.56256 0.15611 0.0
H1787 H 0.95997 0.54537 0.16137 0.0
C1788 C 0.47622 0.41031 0.26852 0.0
C1789 C 0.47085 0.42006 0.26517 0.0
C1790 C 0.47924 0.43162 0.24365 0.0
C1791 C 0.47612 0.44118 0.2382 0.0
C1792 C 0.48562 0.45216 0.23053 0.0
C1793 C 0.49842 0.4534 0.22814 0.0
C1794 C 0.50146 0.44352 0.23338 0.0
C1795 C 0.49179 0.4327 0.24106 0.0
C1796 C 0.48202 0.46244 0.22499 0.0
C1797 C 0.51489 0.44437 0.23079 0.0
C1798 C 0.58026 0.54534 0.2739 0.0
C1799 C 0.57082 0.53179 0.26751 0.0
C1800 C 0.55606 0.52178 0.24723 0.0
C1801 C 0.55655 0.50958 0.24679 0.0
C1802 C 0.54774 0.4987 0.23807 0.0
C1803 C 0.53786 0.49981 0.22999 0.0
C1804 C 0.53716 0.512 0.23065 0.0
C1805 C 0.54653 0.52296 0.23899 0.0
C1806 C 0.54896 0.48596 0.23762 0.0
C1807 C 0.52645 0.51347 0.2227 0.0
C1808 C 0.56042 0.52113 0.14011 0.0
C1809 C 0.5637 0.5114 0.14503 0.0
C1810 C 0.55434 0.50015 0.15248 0.0
C1811 C 0.54149 0.49864 0.15514 0.0
C1812 C 0.53819 0.50845 0.15028 0.0
C1813 C 0.54772 0.51956 0.1428 0.0
C1814 C 0.55815 0.48984 0.15751 0.0
C1815 C 0.5246 0.50717 0.15298 0.0
C1816 C 0.46312 0.3922 0.13898 0.0
C1817 C 0.46495 0.4061 0.13506 0.0
C1818 C 0.48657 0.42686 0.13893 0.0
C1819 C 0.49992 0.43032 0.14198 0.0
C1820 C 0.50855 0.44228 0.1495 0.0
C1821 C 0.50376 0.45116 0.15368 0.0
C1822 C 0.49045 0.44807 0.14993 0.0
C1823 C 0.48195 0.43587 0.14266 0.0
C1824 C 0.52271 0.4453 0.15315 0.0
C1825 C 0.4852 0.45758 0.15371 0.0
C1826 C 0.5087 0.4651 0.22032 0.0
C1827 C 0.51782 0.47682 0.22777 0.0
C1828 C 0.5281 0.48807 0.2212 0.0
C1829 C 0.52916 0.48778 0.20667 0.0
C1830 C 0.53939 0.49886 0.19967 0.0
C1831 C 0.54009 0.49861 0.18536 0.0
C1832 C 0.53083 0.48713 0.17752 0.0
C1833 C 0.53146 0.48679 0.16297 0.0
C1834 C 0.52239 0.47504 0.15552 0.0
C1835 C 0.51261 0.46352 0.16219 0.0
C1836 C 0.51161 0.46378 0.17672 0.0
C1837 C 0.50181 0.45243 0.18378 0.0
C1838 C 0.50078 0.45286 0.19804 0.0
C1839 C 0.50965 0.46458 0.20583 0.0
C1840 C 0.51982 0.47602 0.19897 0.0
C1841 C 0.52074 0.47565 0.18439 0.0
C1842 C 0.58793 0.54598 0.11835 0.0
C1843 C 0.58199 0.53511 0.12884 0.0
O1844 O 0.46989 0.42115 0.25101 0.0
O1845 O 0.47845 0.4148 0.13231 0.0
O1846 O 0.56912 0.53205 0.13268 0.0
O1847 O 0.56459 0.53258 0.25542 0.0
H1848 H 0.47802 0.43024 0.26985 0.0
H1849 H 0.48698 0.4149 0.26573 0.0
H1850 H 0.4703 0.40047 0.26278 0.0
H1851 H 0.47561 0.40831 0.27976 0.0
H1852 H 0.46628 0.4401 0.24012 0.0
H1853 H 0.49397 0.425 0.24488 0.0
H1854 H 0.48932 0.47276 0.22913 0.0
H1855 H 0.47164 0.46004 0.22774 0.0
H1856 H 0.48278 0.46277 0.21358 0.0
H1857 H 0.51558 0.43572 0.23532 0.0
H1858 H 0.52316 0.45405 0.23528 0.0
H1859 H 0.51651 0.44448 0.21951 0.0
H1860 H 0.56357 0.52403 0.27469 0.0
H1861 H 0.59919 0.54647 0.27287 0.0
H1862 H 0.57553 0.54552 0.28397 0.0
H1863 H 0.578 0.55298 0.26884 0.0
H1864 H 0.5639 0.50852 0.25307 0.0
H1865 H 0.5462 0.5324 0.23941 0.0
H1866 H 0.54062 0.47787 0.24353 0.0
H1867 H 0.55869 0.48771 0.24224 0.0
H1868 H 0.5481 0.48216 0.22684 0.0
H1869 H 0.52556 0.52231 0.22648 0.0
H1870 H 0.51646 0.50409 0.22345 0.0
H1871 H 0.52908 0.51501 0.21164 0.0
H1872 H 0.58876 0.5364 0.13785 0.0
H1873 H 0.57352 0.51248 0.14307 0.0
H1874 H 0.54527 0.52711 0.13897 0.0
H1875 H 0.55752 0.48925 0.16893 0.0
H1876 H 0.56852 0.49242 0.15454 0.0
H1877 H 0.55089 0.47959 0.1532 0.0
H1878 H 0.52364 0.51575 0.14863 0.0
H1879 H 0.52297 0.50686 0.16427 0.0
H1880 H 0.51647 0.49745 0.14838 0.0
H1881 H 0.46178 0.40991 0.14411 0.0
H1882 H 0.45238 0.38504 0.14134 0.0
H1883 H 0.4694 0.39332 0.14831 0.0
H1884 H 0.46626 0.38779 0.13046 0.0
H1885 H 0.50343 0.42337 0.13883 0.0
H1886 H 0.47174 0.43343 0.13983 0.0
H1887 H 0.52462 0.44718 0.16445 0.0
H1888 H 0.5301 0.4547 0.14791 0.0
H1889 H 0.52453 0.43685 0.15005 0.0
H1890 H 0.47526 0.45453 0.14865 0.0
H1891 H 0.49253 0.46816 0.15073 0.0
H1892 H 0.48404 0.45762 0.16506 0.0
H1893 H 0.51704 0.47709 0.2389 0.0
H1894 H 0.5469 0.5079 0.20516 0.0
H1895 H 0.54806 0.50752 0.18053 0.0
H1896 H 0.52303 0.47481 0.14437 0.0
H1897 H 0.49474 0.44311 0.17836 0.0
H1898 H 0.49295 0.44387 0.20289 0.0
H1899 H 0.59693 0.55469 0.12373 0.0
H1900 H 0.5817 0.55125 0.11826 0.0
H1901 H 0.58971 0.53584 0.101 0.0
C1902 C 0.45731 0.00223 0.28113 0.0
C1903 C 0.45088 0.00655 0.26967 0.0
C1904 C 0.45927 0.00084 0.24908 0.0
C1905 C 0.46915 0.01389 0.24508 0.0
C1906 C 0.47964 0.01559 0.23646 0.0
C1907 C 0.48027 0.004 0.23177 0.0
C1908 C 0.47011 0.99081 0.23546 0.0
C1909 C 0.45962 0.9894 0.24394 0.0
C1910 C 0.4901 0.02978 0.2324 0.0
C1911 C 0.47045 0.97825 0.23056 0.0
C1912 C 0.58119 0.04413 0.25264 0.0
C1913 C 0.57171 0.03105 0.26029 0.0
C1914 C 0.55158 0.01873 0.24502 0.0
C1915 C 0.54384 0.00659 0.23754 0.0
C1916 C 0.53176 0.00383 0.23077 0.0
C1917 C 0.52761 0.01378 0.23101 0.0
C1918 C 0.53531 0.02605 0.2387 0.0
C1919 C 0.54708 0.02829 0.24584 0.0
C1920 C 0.52354 0.99031 0.22327 0.0
C1921 C 0.53121 0.0369 0.23931 0.0
C1922 C 0.55137 0.02414 0.14425 0.0
C1923 C 0.54261 0.01045 0.14743 0.0
C1924 C 0.53014 0.00653 0.15353 0.0
C1925 C 0.52637 0.0165 0.15642 0.0
C1926 C 0.53482 0.03014 0.15245 0.0
C1927 C 0.5472 0.03376 0.14627 0.0
C1928 C 0.52116 0.99181 0.15725 0.0
C1929 C 0.531 0.04097 0.15519 0.0
C1930 C 0.41789 0.97979 0.14765 0.0
C1931 C 0.43023 0.99093 0.14046 0.0
C1932 C 0.45185 0.99143 0.14401 0.0
C1933 C 0.45656 0.98237 0.14688 0.0
C1934 C 0.46918 0.98689 0.15339 0.0
C1935 C 0.47736 0.00088 0.15689 0.0
C1936 C 0.47296 0.01022 0.15336 0.0
C1937 C 0.46023 0.0054 0.14691 0.0
C1938 C 0.47364 0.97667 0.15684 0.0
C1939 C 0.48161 0.02525 0.15664 0.0
C1940 C 0.49179 0.00583 0.22332 0.0
C1941 C 0.50368 0.00831 0.23023 0.0
C1942 C 0.51537 0.01144 0.22301 0.0
C1943 C 0.51527 0.01224 0.20845 0.0
C1944 C 0.52704 0.01617 0.20089 0.0
C1945 C 0.52674 0.01653 0.18656 0.0
C1946 C 0.51466 0.01294 0.17921 0.0
C1947 C 0.51417 0.01289 0.16462 0.0
C1948 C 0.50197 0.00914 0.15763 0.0
C1949 C 0.49016 0.00554 0.16487 0.0
C1950 C 0.49051 0.0058 0.17947 0.0
C1951 C 0.47889 0.00256 0.18707 0.0
C1952 C 0.47932 0.00274 0.20143 0.0
C1953 C 0.49129 0.00584 0.20874 0.0
C1954 C 0.5031 0.00911 0.20129 0.0
C1955 C 0.50276 0.00932 0.18664 0.0
C1956 C 0.58322 0.03557 0.15397 0.0
C1957 C 0.57294 0.02447 0.14414 0.0
O1958 O 0.44925 0.99893 0.25775 0.0
O1959 O 0.43931 0.9863 0.13825 0.0
O1960 O 0.56386 0.02837 0.1392 0.0
O1961 O 0.56333 0.02079 0.25104 0.0
H1962 H 0.45759 0.01758 0.26782 0.0
H1963 H 0.46746 0.00419 0.27802 0.0
H1964 H 0.45094 0.99118 0.2832 0.0
H1965 H 0.45855 0.00816 0.29079 0.0
H1966 H 0.46863 0.02277 0.24848 0.0
H1967 H 0.45182 0.97936 0.24693 0.0
H1968 H 0.50016 0.03213 0.23661 0.0
H1969 H 0.48776 0.03768 0.23626 0.0
H1970 H 0.49079 0.03038 0.22099 0.0
H1971 H 0.4619 0.96872 0.23452 0.0
H1972 H 0.4801 0.97887 0.23398 0.0
H1973 H 0.47005 0.97773 0.21911 0.0
H1974 H 0.56552 0.03334 0.26747 0.0
H1975 H 0.58843 0.05202 0.26007 0.0
H1976 H 0.5754 0.04836 0.24736 0.0
H1977 H 0.58695 0.04213 0.2447 0.0
H1978 H 0.5473 0.9992 0.23708 0.0
H1979 H 0.55276 0.03763 0.2518 0.0
H1980 H 0.52516 0.99178 0.21201 0.0
H1981 H 0.51258 0.98609 0.22505 0.0
H1982 H 0.52648 0.98271 0.22656 0.0
H1983 H 0.53938 0.04669 0.24375 0.0
H1984 H 0.52221 0.03334 0.24585 0.0
H1985 H 0.52844 0.03878 0.22884 0.0
H1986 H 0.56774 0.01504 0.15028 0.0
H1987 H 0.54551 0.00283 0.1452 0.0
H1988 H 0.55392 0.04425 0.14349 0.0
H1989 H 0.52057 0.99095 0.16865 0.0
H1990 H 0.52495 0.98509 0.15322 0.0
H1991 H 0.51075 0.9881 0.15311 0.0
H1992 H 0.53847 0.05103 0.15108 0.0
H1993 H 0.53021 0.04209 0.16648 0.0
H1994 H 0.52093 0.03785 0.15042 0.0
H1995 H 0.43466 1.00005 0.14745 0.0
H1996 H 0.41048 0.98327 0.14971 0.0
H1997 H 0.42105 0.97741 0.15766 0.0
H1998 H 0.41291 0.97033 0.14117 0.0
H1999 H 0.45012 0.97165 0.14433 0.0
H2000 H 0.45693 0.01258 0.14407 0.0
H2001 H 0.47509 0.97656 0.16818 0.0
H2002 H 0.48352 0.97971 0.15206 0.0
H2003 H 0.46621 0.96618 0.1532 0.0
H2004 H 0.47707 0.0313 0.15258 0.0
H2005 H 0.49177 0.02912 0.15219 0.0
H2006 H 0.48301 0.02686 0.16799 0.0
H2007 H 0.50388 0.00798 0.24142 0.0
H2008 H 0.53663 0.01902 0.20595 0.0
H2009 H 0.53612 0.01956 0.18132 0.0
H2010 H 0.50162 0.00889 0.14643 0.0
H2011 H 0.46934 0.99991 0.18201 0.0
H2012 H 0.47009 0.00023 0.20673 0.0
H2013 H 0.59081 0.03279 0.1577 0.0
H2014 H 0.57795 0.03663 0.16305 0.0
H2015 H 0.58851 0.04558 0.14882 0.0
C2016 C 0.53595 0.9822 0.7392 0.0
C2017 C 0.54764 0.99366 0.74753 0.0
C2018 C 0.53924 0.99189 0.77059 0.0
C2019 C 0.54139 0.00497 0.77372 0.0
C2020 C 0.53308 0.00682 0.78302 0.0
C2021 C 0.52232 0.99531 0.78917 0.0
C2022 C 0.5203 0.9821 0.78617 0.0
C2023 C 0.52899 0.98061 0.77709 0.0
C2024 C 0.53567 0.02105 0.78615 0.0
C2025 C 0.50878 0.96954 0.79227 0.0
C2026 C 0.42655 0.99078 0.76099 0.0
C2027 C 0.43534 0.98757 0.76984 0.0
C2028 C 0.45853 0.99869 0.7791 0.0
C2029 C 0.45798 0.98656 0.78341 0.0
C2030 C 0.46923 0.98679 0.7898 0.0
C2031 C 0.48125 0.9994 0.79197 0.0
C2032 C 0.48191 0.0116 0.78748 0.0
C2033 C 0.47051 0.01107 0.7811 0.0
C2034 C 0.46821 0.97356 0.7944 0.0
C2035 C 0.4946 0.02517 0.78962 0.0
C2036 C 0.46299 0.99881 0.88041 0.0
C2037 C 0.45999 0.98677 0.87324 0.0
C2038 C 0.47009 0.98563 0.86621 0.0
C2039 C 0.4834 0.9969 0.86617 0.0
C2040 C 0.48653 0.00887 0.87383 0.0
C2041 C 0.47628 0.00959 0.88104 0.0
C2042 C 0.46648 0.97248 0.85864 0.0
C2043 C 0.50061 0.02103 0.8741 0.0
C2044 C 0.56219 0.96716 0.86737 0.0
C2045 C 0.55957 0.97756 0.87491 0.0
C2046 C 0.53787 0.97707 0.87318 0.0
C2047 C 0.52444 0.96802 0.86946 0.0
C2048 C 0.51597 0.97278 0.86434 0.0
C2049 C 0.52105 0.98699 0.86323 0.0
C2050 C 0.53438 0.99624 0.86786 0.0
C2051 C 0.5427 0.99118 0.8728 0.0
C2052 C 0.50173 0.96261 0.85971 0.0
C2053 C 0.53993 0.01144 0.86722 0.0
C2054 C 0.51278 0.99704 0.79815 0.0
C2055 C 0.50252 0.99852 0.79171 0.0
C2056 C 0.49288 0.99973 0.79942 0.0
C2057 C 0.49362 0.99983 0.81398 0.0
C2058 C 0.48438 0.00155 0.82202 0.0
C2059 C 0.4847 0.00087 0.83632 0.0
C2060 C 0.49408 0.99811 0.84311 0.0
C2061 C 0.49383 0.99637 0.85757 0.0
C2062 C 0.5031 0.99331 0.86393 0.0
C2063 C 0.5127 0.99199 0.85623 0.0
C2064 C 0.51332 0.99405 0.84183 0.0
C2065 C 0.52304 0.99308 0.83381 0.0
C2066 C 0.52318 0.99451 0.81956 0.0
C2067 C 0.51335 0.99654 0.81272 0.0
C2068 C 0.50369 0.99789 0.82064 0.0
C2069 C 0.5038 0.99684 0.83522 0.0
C2070 C 0.44335 0.0092 0.87126 0.0
C2071 C 0.44106 0.99759 0.88092 0.0
O2072 O 0.54688 0.98995 0.76122 0.0
O2073 O 0.54582 0.97179 0.87705 0.0
O2074 O 0.4533 0.00028 0.88691 0.0
O2075 O 0.44779 0.99888 0.77302 0.0
H2076 H 0.54672 0.00302 0.74666 0.0
H2077 H 0.52615 0.98041 0.74328 0.0
H2078 H 0.53636 0.97258 0.7399 0.0
H2079 H 0.53641 0.98503 0.72819 0.0
H2080 H 0.54957 0.0137 0.76887 0.0
H2081 H 0.52752 0.97056 0.77463 0.0
H2082 H 0.52729 0.02227 0.78171 0.0
H2083 H 0.54532 0.02899 0.7818 0.0
H2084 H 0.53595 0.02276 0.79748 0.0
H2085 H 0.50772 0.95998 0.7877 0.0
H2086 H 0.49912 0.96959 0.79063 0.0
H2087 H 0.5105 0.96953 0.80356 0.0
H2088 H 0.43034 0.98126 0.779 0.0
H2089 H 0.4247 0.98023 0.74243 0.0
H2090 H 0.4309 0.00219 0.76158 0.0
H2091 H 0.4176 0.98853 0.76753 0.0
H2092 H 0.44881 0.97689 0.7819 0.0
H2093 H 0.47085 0.02037 0.77769 0.0
H2094 H 0.46934 0.97372 0.8058 0.0
H2095 H 0.47652 0.9724 0.78995 0.0
H2096 H 0.45841 0.96455 0.79128 0.0
H2097 H 0.49354 0.03374 0.78542 0.0
H2098 H 0.50318 0.02496 0.78454 0.0
H2099 H 0.49715 0.02709 0.80081 0.0
H2100 H 0.43657 0.98791 0.87478 0.0
H2101 H 0.4498 0.9782 0.87322 0.0
H2102 H 0.4785 0.01876 0.88681 0.0
H2103 H 0.46632 0.97401 0.84736 0.0
H2104 H 0.4564 0.96405 0.86151 0.0
H2105 H 0.47417 0.96937 0.86082 0.0
H2106 H 0.50127 0.02978 0.88012 0.0
H2107 H 0.50385 0.02434 0.8634 0.0
H2108 H 0.50779 0.01813 0.87873 0.0
H2109 H 0.5632 0.98653 0.86806 0.0
H2110 H 0.57315 0.97155 0.86546 0.0
H2111 H 0.55668 0.96433 0.85725 0.0
H2112 H 0.55864 0.95776 0.87351 0.0
H2113 H 0.52076 0.95716 0.87009 0.0
H2114 H 0.55293 0.99825 0.87628 0.0
H2115 H 0.50024 0.96402 0.84863 0.0
H2116 H 0.49444 0.96438 0.86562 0.0
H2117 H 0.49935 0.9519 0.86118 0.0
H2118 H 0.55 0.01727 0.87243 0.0
H2119 H 0.53284 0.01423 0.8721 0.0
H2120 H 0.54088 0.01452 0.85627 0.0
H2121 H 0.5018 0.99836 0.78052 0.0
H2122 H 0.47673 0.00338 0.81734 0.0
H2123 H 0.47732 0.00226 0.84195 0.0
H2124 H 0.50256 0.99152 0.87494 0.0
H2125 H 0.53064 0.99116 0.83845 0.0
H2126 H 0.53089 0.99368 0.81393 0.0
H2127 H 0.43366 0.0072 0.86631 0.0
H2128 H 0.45034 0.01004 0.86297 0.0
H2129 H 0.44784 0.01906 0.87708 0.0
C2130 C 0.03355 0.56801 0.74544 0.0
C2131 C 0.02024 0.56384 0.75264 0.0
C2132 C 0.01864 0.55316 0.77462 0.0
C2133 C 0.00524 0.5425 0.77456 0.0
C2134 C 0.00154 0.53084 0.78243 0.0
C2135 C 0.01154 0.52979 0.79036 0.0
C2136 C 0.02506 0.54066 0.79053 0.0
C2137 C 0.02837 0.55235 0.78285 0.0
C2138 C 0.987 0.51958 0.78219 0.0
C2139 C 0.03608 0.53982 0.79859 0.0
C2140 C 0.01174 0.43506 0.75913 0.0
C2141 C 0.01487 0.44707 0.76811 0.0
C2142 C 0.00654 0.46287 0.77302 0.0
C2143 C 0.01679 0.47097 0.7827 0.0
C2144 C 0.01617 0.48124 0.79038 0.0
C2145 C 0.0048 0.48311 0.78876 0.0
C2146 C 0.99442 0.4749 0.77909 0.0
C2147 C 0.99554 0.46502 0.7712 0.0
C2148 C 0.02776 0.49011 0.80017 0.0
C2149 C 0.98212 0.47653 0.77712 0.0
C2150 C 0.99014 0.45369 0.87598 0.0
C2151 C 0.00327 0.46313 0.87201 0.0
C2152 C 0.00586 0.47514 0.8653 0.0
C2153 C 0.99508 0.47771 0.86249 0.0
C2154 C 0.98192 0.4684 0.86688 0.0
C2155 C 0.97966 0.45656 0.87372 0.0
C2156 C 0.02011 0.48507 0.86118 0.0
C2157 C 0.97023 0.47089 0.8642 0.0
C2158 C 0.02593 0.58218 0.87259 0.0
C2159 C 0.01473 0.57233 0.88198 0.0
C2160 C 0.01359 0.5503 0.87957 0.0
C2161 C 0.02313 0.54616 0.87741 0.0
C2162 C 0.01971 0.53415 0.86994 0.0
C2163 C 0.00631 0.52595 0.86483 0.0
C2164 C 0.99642 0.52972 0.86765 0.0
C2165 C 0.00018 0.54191 0.87498 0.0
C2166 C 0.03048 0.53036 0.86727 0.0
C2167 C 0.98195 0.52096 0.86275 0.0
C2168 C 0.00794 0.51712 0.798 0.0
C2169 C 0.00705 0.50602 0.79055 0.0
C2170 C 0.004 0.49383 0.79702 0.0
C2171 C 0.00148 0.49252 0.81133 0.0
C2172 C 0.99781 0.48022 0.81808 0.0
C2173 C 0.99624 0.4793 0.83231 0.0
C2174 C 0.99835 0.49066 0.84033 0.0
C2175 C 0.99758 0.49008 0.85489 0.0
C2176 C 0.99984 0.50161 0.86254 0.0
C2177 C 0.00285 0.51378 0.85606 0.0
C2178 C 0.00348 0.5145 0.84151 0.0
C2179 C 0.00631 0.52654 0.83463 0.0
C2180 C 0.00737 0.52729 0.82035 0.0
C2181 C 0.00603 0.51618 0.81242 0.0
C2182 C 0.00287 0.50385 0.8191 0.0
C2183 C 0.00144 0.50297 0.83364 0.0
C2184 C 0.98145 0.42139 0.87012 0.0
C2185 C 0.99219 0.43327 0.87886 0.0
O2186 O 0.02239 0.56432 0.7668 0.0
O2187 O 0.01758 0.56232 0.8863 0.0
O2188 O 0.98731 0.44196 0.8824 0.0
O2189 O 0.00694 0.45298 0.76524 0.0
H2190 H 0.01289 0.55324 0.74909 0.0
H2191 H 0.03732 0.56093 0.74824 0.0
H2192 H 0.04133 0.57854 0.74861 0.0
H2193 H 0.03204 0.56754 0.73405 0.0
H2194 H 0.99768 0.54336 0.76838 0.0
H2195 H 0.03868 0.56073 0.78287 0.0
H2196 H 0.98617 0.51044 0.77684 0.0
H2197 H 0.98022 0.52258 0.77678 0.0
H2198 H 0.98346 0.51664 0.79288 0.0
H2199 H 0.04628 0.54841 0.79635 0.0
H2200 H 0.03586 0.53007 0.79617 0.0
H2201 H 0.03436 0.54004 0.8098 0.0
H2202 H 0.02586 0.45459 0.76921 0.0
H2203 H 0.02122 0.43813 0.7532 0.0
H2204 H 0.00581 0.43553 0.74994 0.0
H2205 H 0.00393 0.41874 0.77281 0.0
H2206 H 0.02543 0.46953 0.7842 0.0
H2207 H 0.98769 0.45874 0.7637 0.0
H2208 H 0.02469 0.48698 0.81093 0.0
H2209 H 0.0305 0.50099 0.79932 0.0
H2210 H 0.03688 0.48921 0.79818 0.0
H2211 H 0.97414 0.46816 0.77065 0.0
H2212 H 0.98508 0.48636 0.77202 0.0
H2213 H 0.97784 0.47679 0.78727 0.0
H2214 H 0.00139 0.43855 0.87254 0.0
H2215 H 0.01155 0.46129 0.87436 0.0
H2216 H 0.96961 0.44932 0.87708 0.0
H2217 H 0.02064 0.48554 0.84976 0.0
H2218 H 0.02753 0.48216 0.86513 0.0
H2219 H 0.02307 0.49546 0.86515 0.0
H2220 H 0.9605 0.46238 0.86775 0.0
H2221 H 0.9693 0.47228 0.85298 0.0
H2222 H 0.97217 0.48043 0.8696 0.0
H2223 H 0.00506 0.56778 0.87592 0.0
H2224 H 0.02385 0.59034 0.86911 0.0
H2225 H 0.02641 0.57658 0.86332 0.0
H2226 H 0.03591 0.58693 0.87807 0.0
H2227 H 0.03339 0.55261 0.88125 0.0
H2228 H 0.99264 0.5448 0.87721 0.0
H2229 H 0.03132 0.5292 0.85599 0.0
H2230 H 0.0276 0.52039 0.87201 0.0
H2231 H 0.04054 0.53809 0.87152 0.0
H2232 H 0.97525 0.52471 0.86675 0.0
H2233 H 0.97807 0.51029 0.86607 0.0
H2234 H 0.98145 0.52084 0.8513 0.0
H2235 H 0.00907 0.507 0.77959 0.0
H2236 H 0.99624 0.47121 0.81245 0.0
H2237 H 0.99356 0.46962 0.83696 0.0
H2238 H 0.99954 0.50119 0.87372 0.0
H2239 H 0.00778 0.53554 0.84022 0.0
H2240 H 0.00954 0.53681 0.81563 0.0
H2241 H 0.98516 0.41432 0.86704 0.0
H2242 H 0.97913 0.42533 0.8606 0.0
H2243 H 0.97199 0.41565 0.87596 0.0
C2244 C 0.5171 0.56816 0.73825 0.0
C2245 C 0.52706 0.57641 0.75003 0.0
C2246 C 0.51626 0.56053 0.76905 0.0
C2247 C 0.50573 0.56345 0.77116 0.0
C2248 C 0.49494 0.5553 0.77972 0.0
C2249 C 0.49456 0.54393 0.78621 0.0
C2250 C 0.50527 0.54113 0.78434 0.0
C2251 C 0.51606 0.5496 0.77592 0.0
C2252 C 0.48379 0.55871 0.78165 0.0
C2253 C 0.50513 0.529 0.79094 0.0
C2254 C 0.41639 0.48356 0.73228 0.0
C2255 C 0.41979 0.47655 0.74387 0.0
C2256 C 0.42698 0.48833 0.76608 0.0
C2257 C 0.4372 0.48538 0.76982 0.0
C2258 C 0.4476 0.4939 0.77915 0.0
C2259 C 0.44779 0.50563 0.78474 0.0
C2260 C 0.43723 0.50836 0.78131 0.0
C2261 C 0.4268 0.4995 0.77218 0.0
C2262 C 0.45851 0.4905 0.78283 0.0
C2263 C 0.43716 0.52084 0.78695 0.0
C2264 C 0.42202 0.48807 0.87193 0.0
C2265 C 0.43196 0.48461 0.86871 0.0
C2266 C 0.44404 0.49411 0.86258 0.0
C2267 C 0.44619 0.50729 0.85962 0.0
C2268 C 0.43647 0.51099 0.86349 0.0
C2269 C 0.42455 0.50134 0.86974 0.0
C2270 C 0.45439 0.48998 0.859 0.0
C2271 C 0.43852 0.52501 0.86065 0.0
C2272 C 0.53843 0.59598 0.87358 0.0
C2273 C 0.53249 0.58752 0.88653 0.0
C2274 C 0.51614 0.56497 0.87649 0.0
C2275 C 0.51407 0.55192 0.87358 0.0
C2276 C 0.50269 0.54235 0.86594 0.0
C2277 C 0.49308 0.54593 0.86116 0.0
C2278 C 0.49492 0.55902 0.86431 0.0
C2279 C 0.50644 0.56844 0.87192 0.0
C2280 C 0.50102 0.52846 0.86281 0.0
C2281 C 0.48478 0.5631 0.85946 0.0
C2282 C 0.48255 0.5345 0.7942 0.0
C2283 C 0.47117 0.52478 0.78678 0.0
C2284 C 0.45947 0.51548 0.79347 0.0
C2285 C 0.45908 0.51576 0.80804 0.0
C2286 C 0.44755 0.50644 0.81512 0.0
C2287 C 0.44722 0.50687 0.82945 0.0
C2288 C 0.45846 0.51654 0.83728 0.0
C2289 C 0.45825 0.51697 0.85186 0.0
C2290 C 0.46962 0.52669 0.85932 0.0
C2291 C 0.48127 0.53608 0.85259 0.0
C2292 C 0.48166 0.53583 0.83801 0.0
C2293 C 0.49319 0.54516 0.83091 0.0
C2294 C 0.49349 0.54481 0.81656 0.0
C2295 C 0.4823 0.53505 0.80877 0.0
C2296 C 0.47053 0.5256 0.81571 0.0
C2297 C 0.47021 0.526 0.83034 0.0
C2298 C 0.38891 0.46224 0.86706 0.0
C2299 C 0.40254 0.46519 0.87331 0.0
O2300 O 0.52663 0.56779 0.76039 0.0
O2301 O 0.52764 0.5738 0.88361 0.0
O2302 O 0.40992 0.47887 0.87712 0.0
O2303 O 0.41729 0.48067 0.75648 0.0
H2304 H 0.52441 0.58394 0.75431 0.0
H2305 H 0.50658 0.5628 0.74198 0.0
H2306 H 0.5195 0.56044 0.73398 0.0
H2307 H 0.51758 0.57502 0.72985 0.0
H2308 H 0.50578 0.57198 0.76611 0.0
H2309 H 0.52424 0.54746 0.77432 0.0
H2310 H 0.47438 0.55073 0.77647 0.0
H2311 H 0.48633 0.56875 0.77728 0.0
H2312 H 0.4817 0.55881 0.79279 0.0
H2313 H 0.51387 0.52782 0.78788 0.0
H2314 H 0.49565 0.51953 0.788 0.0
H2315 H 0.50537 0.53014 0.80234 0.0
H2316 H 0.43074 0.47992 0.74293 0.0
H2317 H 0.41812 0.48022 0.72206 0.0
H2318 H 0.423 0.49478 0.73331 0.0
H2319 H 0.4057 0.48119 0.73274 0.0
H2320 H 0.43706 0.47645 0.7654 0.0
H2321 H 0.41876 0.50157 0.76931 0.0
H2322 H 0.46005 0.49093 0.7942 0.0
H2323 H 0.46819 0.49818 0.77832 0.0
H2324 H 0.45607 0.48023 0.77892 0.0
H2325 H 0.42863 0.5219 0.78266 0.0
H2326 H 0.4468 0.53014 0.78453 0.0
H2327 H 0.43639 0.52027 0.79834 0.0
H2328 H 0.40766 0.46268 0.86501 0.0
H2329 H 0.43028 0.47451 0.87096 0.0
H2330 H 0.41692 0.50397 0.87251 0.0
H2331 H 0.45514 0.48965 0.84762 0.0
H2332 H 0.45178 0.47982 0.86309 0.0
H2333 H 0.46449 0.49766 0.8632 0.0
H2334 H 0.42995 0.52627 0.8642 0.0
H2335 H 0.43971 0.52695 0.84941 0.0
H2336 H 0.44795 0.53284 0.86593 0.0
H2337 H 0.52414 0.58905 0.89031 0.0
H2338 H 0.54249 0.60699 0.87598 0.0
H2339 H 0.53055 0.59294 0.86534 0.0
H2340 H 0.54671 0.59447 0.86958 0.0
H2341 H 0.52155 0.54931 0.87719 0.0
H2342 H 0.50779 0.57844 0.87416 0.0
H2343 H 0.50052 0.52675 0.85147 0.0
H2344 H 0.49136 0.52045 0.86705 0.0
H2345 H 0.50943 0.52727 0.86723 0.0
H2346 H 0.48735 0.57346 0.86322 0.0
H2347 H 0.47457 0.55565 0.86309 0.0
H2348 H 0.48428 0.5629 0.84801 0.0
H2349 H 0.47141 0.52447 0.7756 0.0
H2350 H 0.43863 0.49872 0.80965 0.0
H2351 H 0.43803 0.49948 0.83432 0.0
H2352 H 0.46941 0.52692 0.8705 0.0
H2353 H 0.50214 0.55286 0.83636 0.0
H2354 H 0.50262 0.55227 0.81165 0.0
H2355 H 0.38325 0.46503 0.87441 0.0
H2356 H 0.38271 0.45125 0.86419 0.0
H2357 H 0.39058 0.4683 0.85758 0.0
C2358 C 0.60722 0.75595 0.6101 0.0
C2359 C 0.61235 0.7514 0.5977 0.0
C2360 C 0.61906 0.77091 0.58224 0.0
C2361 C 0.60595 0.76814 0.57851 0.0
C2362 C 0.60394 0.77729 0.57041 0.0
C2363 C 0.61525 0.78937 0.56589 0.0
C2364 C 0.62845 0.79204 0.56939 0.0
C2365 C 0.63017 0.78274 0.5775 0.0
C2366 C 0.58973 0.77411 0.56676 0.0
C2367 C 0.64073 0.80479 0.56468 0.0
C2368 C 0.60573 0.85671 0.61753 0.0
C2369 C 0.61519 0.86296 0.60539 0.0
C2370 C 0.60863 0.84951 0.58409 0.0
C2371 C 0.62115 0.85122 0.58006 0.0
C2372 C 0.62185 0.84164 0.57126 0.0
C2373 C 0.60976 0.8301 0.56646 0.0
C2374 C 0.59712 0.8286 0.57017 0.0
C2375 C 0.59673 0.83847 0.57879 0.0
C2376 C 0.6355 0.84374 0.56725 0.0
C2377 C 0.58404 0.81643 0.56527 0.0
C2378 C 0.59884 0.8469 0.48037 0.0
C2379 C 0.61221 0.85006 0.48328 0.0
C2380 C 0.61501 0.84027 0.48889 0.0
C2381 C 0.60421 0.82711 0.49169 0.0
C2382 C 0.59082 0.82368 0.48798 0.0
C2383 C 0.58833 0.83362 0.48222 0.0
C2384 C 0.62946 0.84411 0.49228 0.0
C2385 C 0.57909 0.80967 0.49061 0.0
C2386 C 0.60706 0.73702 0.48021 0.0
C2387 C 0.60962 0.74525 0.467 0.0
C2388 C 0.61594 0.76812 0.47641 0.0
C2389 C 0.62689 0.78103 0.47943 0.0
C2390 C 0.62522 0.79088 0.4867 0.0
C2391 C 0.61218 0.78773 0.49099 0.0
C2392 C 0.60096 0.7748 0.48769 0.0
C2393 C 0.60294 0.7651 0.48045 0.0
C2394 C 0.6374 0.80459 0.49001 0.0
C2395 C 0.58691 0.77118 0.49202 0.0
C2396 C 0.61327 0.79936 0.55776 0.0
C2397 C 0.61222 0.80957 0.56497 0.0
C2398 C 0.61039 0.81937 0.55803 0.0
C2399 C 0.60945 0.81894 0.54345 0.0
C2400 C 0.60747 0.82854 0.53613 0.0
C2401 C 0.60645 0.82797 0.5218 0.0
C2402 C 0.60764 0.81793 0.51419 0.0
C2403 C 0.60677 0.81737 0.4996 0.0
C2404 C 0.6082 0.8074 0.49235 0.0
C2405 C 0.6104 0.79783 0.49931 0.0
C2406 C 0.61109 0.7981 0.51391 0.0
C2407 C 0.61312 0.78852 0.52124 0.0
C2408 C 0.61376 0.78886 0.53559 0.0
C2409 C 0.61254 0.79887 0.54317 0.0
C2410 C 0.61056 0.80867 0.536 0.0
C2411 C 0.60976 0.80823 0.52136 0.0
C2412 C 0.59279 0.87482 0.48378 0.0
C2413 C 0.60277 0.87021 0.47935 0.0
O2414 O 0.62155 0.76264 0.59044 0.0
O2415 O 0.61847 0.75897 0.46973 0.0
O2416 O 0.59569 0.85642 0.47597 0.0
O2417 O 0.60776 0.85829 0.59313 0.0
H2418 H 0.60369 0.74457 0.59078 0.0
H2419 H 0.6018 0.76135 0.60664 0.0
H2420 H 0.61579 0.76296 0.61701 0.0
H2421 H 0.60006 0.74695 0.61605 0.0
H2422 H 0.59722 0.75895 0.58192 0.0
H2423 H 0.64024 0.78476 0.58035 0.0
H2424 H 0.58797 0.78227 0.57097 0.0
H2425 H 0.58198 0.76417 0.57085 0.0
H2426 H 0.58842 0.7739 0.55537 0.0
H2427 H 0.65033 0.80528 0.5681 0.0
H2428 H 0.64055 0.81391 0.5688 0.0
H2429 H 0.64054 0.80523 0.55324 0.0
H2430 H 0.62277 0.85947 0.60627 0.0
H2431 H 0.61145 0.8605 0.62747 0.0
H2432 H 0.60115 0.84543 0.61708 0.0
H2433 H 0.59745 0.85922 0.61719 0.0
H2434 H 0.63037 0.86004 0.58379 0.0
H2435 H 0.58712 0.83736 0.58184 0.0
H2436 H 0.63588 0.84281 0.55588 0.0
H2437 H 0.63711 0.83569 0.57192 0.0
H2438 H 0.64388 0.85385 0.57074 0.0
H2439 H 0.57505 0.81648 0.56952 0.0
H2440 H 0.58385 0.80688 0.56834 0.0
H2441 H 0.5833 0.81632 0.55383 0.0
H2442 H 0.60959 0.87212 0.48848 0.0
H2443 H 0.62046 0.86019 0.48132 0.0
H2444 H 0.57807 0.83122 0.47967 0.0
H2445 H 0.63097 0.84461 0.50366 0.0
H2446 H 0.63678 0.85415 0.48802 0.0
H2447 H 0.63166 0.83621 0.48816 0.0
H2448 H 0.5693 0.80855 0.48693 0.0
H2449 H 0.57851 0.80764 0.50184 0.0
H2450 H 0.58071 0.80183 0.48534 0.0
H2451 H 0.59989 0.74392 0.46277 0.0
H2452 H 0.60227 0.7404 0.48805 0.0
H2453 H 0.60014 0.72601 0.47796 0.0
H2454 H 0.61671 0.73837 0.48466 0.0
H2455 H 0.63687 0.7833 0.47623 0.0
H2456 H 0.59429 0.75521 0.47811 0.0
H2457 H 0.63864 0.80625 0.50137 0.0
H2458 H 0.63586 0.81281 0.48564 0.0
H2459 H 0.64685 0.80549 0.48586 0.0
H2460 H 0.57914 0.7609 0.48819 0.0
H2461 H 0.58433 0.77884 0.48806 0.0
H2462 H 0.58657 0.77145 0.50345 0.0
H2463 H 0.61289 0.80992 0.57616 0.0
H2464 H 0.6066 0.83656 0.54142 0.0
H2465 H 0.6048 0.83556 0.51677 0.0
H2466 H 0.60762 0.8071 0.48116 0.0
H2467 H 0.61418 0.78062 0.51596 0.0
H2468 H 0.61529 0.78121 0.54068 0.0
H2469 H 0.58514 0.87276 0.47549 0.0
H2470 H 0.59824 0.88591 0.48637 0.0
H2471 H 0.58742 0.8692 0.4931 0.0
C2472 C 0.14316 0.75039 0.61659 0.0
C2473 C 0.13485 0.75584 0.60924 0.0
C2474 C 0.14413 0.76387 0.58691 0.0
C2475 C 0.14279 0.77522 0.58375 0.0
C2476 C 0.15237 0.78568 0.57563 0.0
C2477 C 0.16359 0.78478 0.57079 0.0
C2478 C 0.16487 0.77321 0.57393 0.0
C2479 C 0.15496 0.76277 0.5818 0.0
C2480 C 0.15059 0.79776 0.57235 0.0
C2481 C 0.17681 0.77202 0.56918 0.0
C2482 C 0.23596 0.85283 0.61926 0.0
C2483 C 0.24263 0.86187 0.60682 0.0
C2484 C 0.22401 0.85127 0.58954 0.0
C2485 C 0.22529 0.83973 0.58657 0.0
C2486 C 0.21576 0.82914 0.57799 0.0
C2487 C 0.20468 0.83002 0.57238 0.0
C2488 C 0.20339 0.84163 0.5753 0.0
C2489 C 0.21318 0.85217 0.58373 0.0
C2490 C 0.2175 0.81694 0.57497 0.0
C2491 C 0.19162 0.84284 0.56962 0.0
C2492 C 0.22401 0.85354 0.48285 0.0
C2493 C 0.22728 0.84354 0.48689 0.0
C2494 C 0.21804 0.83203 0.49412 0.0
C2495 C 0.20532 0.83053 0.49745 0.0
C2496 C 0.20199 0.84055 0.49338 0.0
C2497 C 0.2114 0.85192 0.48612 0.0
C2498 C 0.22186 0.8215 0.49827 0.0
C2499 C 0.18851 0.83925 0.49676 0.0
C2500 C 0.1223 0.72371 0.48329 0.0
C2501 C 0.12664 0.73837 0.47931 0.0
C2502 C 0.14921 0.758 0.48323 0.0
C2503 C 0.16241 0.76105 0.48647 0.0
C2504 C 0.17155 0.77342 0.49304 0.0
C2505 C 0.16739 0.78305 0.49618 0.0
C2506 C 0.15431 0.7804 0.49211 0.0
C2507 C 0.14532 0.76786 0.48568 0.0
C2508 C 0.1855 0.77602 0.49703 0.0
C2509 C 0.14974 0.79066 0.49491 0.0
C2510 C 0.17422 0.79617 0.56291 0.0
C2511 C 0.18408 0.80747 0.57037 0.0
C2512 C 0.19432 0.81865 0.56369 0.0
C2513 C 0.1947 0.81874 0.54912 0.0
C2514 C 0.2047 0.82994 0.54206 0.0
C2515 C 0.20491 0.82997 0.52771 0.0
C2516 C 0.1953 0.81867 0.51987 0.0
C2517 C 0.1955 0.81854 0.50528 0.0
C2518 C 0.18617 0.80691 0.49783 0.0
C2519 C 0.17642 0.79542 0.50457 0.0
C2520 C 0.1757 0.79557 0.51912 0.0
C2521 C 0.16569 0.78437 0.52619 0.0
C2522 C 0.16504 0.78462 0.5405 0.0
C2523 C 0.17461 0.79593 0.54833 0.0
C2524 C 0.18485 0.8073 0.54143 0.0
C2525 C 0.18527 0.80719 0.52679 0.0
C2526 C 0.25141 0.87958 0.46182 0.0
C2527 C 0.24546 0.86805 0.4716 0.0
O2528 O 0.13511 0.75403 0.59511 0.0
O2529 O 0.14054 0.74545 0.47786 0.0
O2530 O 0.23263 0.8648 0.47578 0.0
O2531 O 0.23285 0.86168 0.59797 0.0
H2532 H 0.1395 0.76692 0.61188 0.0
H2533 H 0.15382 0.7561 0.61328 0.0
H2534 H 0.13907 0.73939 0.61407 0.0
H2535 H 0.14302 0.75172 0.62795 0.0
H2536 H 0.13427 0.77588 0.58772 0.0
H2537 H 0.15582 0.75388 0.58434 0.0
H2538 H 0.15878 0.80704 0.57755 0.0
H2539 H 0.1407 0.79632 0.57576 0.0
H2540 H 0.15139 0.79955 0.56107 0.0
H2541 H 0.17677 0.76282 0.57326 0.0
H2542 H 0.18637 0.7812 0.57255 0.0
H2543 H 0.17671 0.77148 0.55774 0.0
H2544 H 0.24869 0.85815 0.60125 0.0
H2545 H 0.22986 0.85645 0.62491 0.0
H2546 H 0.2292 0.8421 0.61584 0.0
H2547 H 0.24375 0.853 0.62642 0.0
H2548 H 0.23363 0.83886 0.59088 0.0
H2549 H 0.21229 0.86111 0.58604 0.0
H2550 H 0.20903 0.80771 0.57947 0.0
H2551 H 0.22717 0.81823 0.57927 0.0
H2552 H 0.21715 0.81515 0.56365 0.0
H2553 H 0.19168 0.85217 0.57349 0.0
H2554 H 0.18196 0.83378 0.57248 0.0
H2555 H 0.19193 0.84309 0.55819 0.0
H2556 H 0.25226 0.86874 0.48035 0.0
H2557 H 0.23701 0.84465 0.48444 0.0
H2558 H 0.20895 0.85965 0.48295 0.0
H2559 H 0.22156 0.82054 0.50966 0.0
H2560 H 0.23211 0.82409 0.49482 0.0
H2561 H 0.21441 0.8114 0.49377 0.0
H2562 H 0.18745 0.8479 0.49284 0.0
H2563 H 0.18726 0.83876 0.50812 0.0
H2564 H 0.18024 0.8296 0.4922 0.0
H2565 H 0.12361 0.74283 0.48792 0.0
H2566 H 0.11118 0.71781 0.48461 0.0
H2567 H 0.1273 0.72371 0.49322 0.0
H2568 H 0.12519 0.71859 0.47527 0.0
H2569 H 0.16537 0.75347 0.48429 0.0
H2570 H 0.13527 0.76578 0.48265 0.0
H2571 H 0.18701 0.77745 0.5084 0.0
H2572 H 0.19323 0.78555 0.49224 0.0
H2573 H 0.18719 0.76752 0.49377 0.0
H2574 H 0.13976 0.78763 0.48998 0.0
H2575 H 0.1573 0.80081 0.49108 0.0
H2576 H 0.14899 0.79172 0.50622 0.0
H2577 H 0.18382 0.80752 0.58156 0.0
H2578 H 0.21244 0.83886 0.54755 0.0
H2579 H 0.21278 0.83891 0.52284 0.0
H2580 H 0.18654 0.80677 0.48666 0.0
H2581 H 0.15815 0.7753 0.52074 0.0
H2582 H 0.15703 0.77577 0.54536 0.0
H2583 H 0.26046 0.88792 0.46751 0.0
H2584 H 0.24524 0.88489 0.4625 0.0
H2585 H 0.25304 0.87052 0.44355 0.0
C2586 C 0.14312 0.38997 0.61096 0.0
C2587 C 0.13375 0.38455 0.59815 0.0
C2588 C 0.14712 0.37805 0.58319 0.0
C2589 C 0.15708 0.39134 0.57984 0.0
C2590 C 0.16843 0.39358 0.57232 0.0
C2591 C 0.16986 0.38234 0.56806 0.0
C2592 C 0.15974 0.36895 0.5712 0.0
C2593 C 0.14846 0.367 0.57866 0.0
C2594 C 0.17899 0.40798 0.56901 0.0
C2595 C 0.16092 0.35672 0.5668 0.0
C2596 C 0.24973 0.40524 0.62416 0.0
C2597 C 0.24501 0.39347 0.61368 0.0
C2598 C 0.23759 0.3961 0.59084 0.0
C2599 C 0.22716 0.38279 0.58797 0.0
C2600 C 0.21683 0.38032 0.57834 0.0
C2601 C 0.21687 0.39144 0.57161 0.0
C2602 C 0.22756 0.40487 0.57433 0.0
C2603 C 0.23795 0.40698 0.58372 0.0
C2604 C 0.20576 0.36585 0.57552 0.0
C2605 C 0.22783 0.41702 0.56762 0.0
C2606 C 0.24447 0.39693 0.48406 0.0
C2607 C 0.23445 0.38352 0.48684 0.0
C2608 C 0.22241 0.38091 0.4932 0.0
C2609 C 0.22032 0.39193 0.4967 0.0
C2610 C 0.23015 0.40538 0.49337 0.0
C2611 C 0.24207 0.40769 0.48699 0.0
C2612 C 0.21197 0.36641 0.49629 0.0
C2613 C 0.22815 0.41734 0.49677 0.0
C2614 C 0.12297 0.37607 0.48511 0.0
C2615 C 0.12995 0.37895 0.47114 0.0
C2616 C 0.14953 0.37632 0.47765 0.0
C2617 C 0.15342 0.36643 0.47911 0.0
C2618 C 0.16489 0.36903 0.48702 0.0
C2619 C 0.17291 0.38205 0.49329 0.0
C2620 C 0.16943 0.39236 0.49128 0.0
C2621 C 0.15766 0.38934 0.48366 0.0
C2622 C 0.16829 0.35778 0.48886 0.0
C2623 C 0.17803 0.40653 0.49735 0.0
C2624 C 0.18211 0.3846 0.56067 0.0
C2625 C 0.19344 0.38694 0.56858 0.0
C2626 C 0.20533 0.38908 0.56239 0.0
C2627 C 0.20604 0.38899 0.54782 0.0
C2628 C 0.21779 0.39102 0.54121 0.0
C2629 C 0.21846 0.39121 0.52688 0.0
C2630 C 0.20734 0.38918 0.5186 0.0
C2631 C 0.20794 0.3894 0.50402 0.0
C2632 C 0.19665 0.38721 0.4961 0.0
C2633 C 0.18465 0.38468 0.50233 0.0
C2634 C 0.18387 0.38447 0.51689 0.0
C2635 C 0.17194 0.3819 0.52352 0.0
C2636 C 0.17136 0.38201 0.53783 0.0
C2637 C 0.18261 0.38445 0.54611 0.0
C2638 C 0.19465 0.38676 0.53967 0.0
C2639 C 0.19529 0.38682 0.52504 0.0
C2640 C 0.27705 0.4029 0.48823 0.0
C2641 C 0.26365 0.39311 0.48088 0.0
O2642 O 0.13616 0.37536 0.59082 0.0
O2643 O 0.13791 0.37282 0.47042 0.0
O2644 O 0.25644 0.39986 0.47841 0.0
O2645 O 0.24737 0.39872 0.60048 0.0
H2646 H 0.13549 0.39319 0.59144 0.0
H2647 H 0.15386 0.39557 0.60796 0.0
H2648 H 0.14164 0.38142 0.61768 0.0
H2649 H 0.14101 0.39713 0.61696 0.0
H2650 H 0.15614 0.40003 0.58309 0.0
H2651 H 0.14071 0.35678 0.5812 0.0
H2652 H 0.18876 0.41042 0.57408 0.0
H2653 H 0.17613 0.41561 0.5725 0.0
H2654 H 0.18058 0.40892 0.55771 0.0
H2655 H 0.15225 0.34698 0.57018 0.0
H2656 H 0.1704 0.35761 0.57118 0.0
H2657 H 0.16148 0.35641 0.55539 0.0
H2658 H 0.23397 0.38669 0.6152 0.0
H2659 H 0.2478 0.40129 0.63483 0.0
H2660 H 0.24409 0.41081 0.62236 0.0
H2661 H 0.26071 0.41251 0.62316 0.0
H2662 H 0.22712 0.37435 0.59326 0.0
H2663 H 0.24615 0.4172 0.58596 0.0
H2664 H 0.20398 0.36385 0.56423 0.0
H2665 H 0.19622 0.36435 0.58002 0.0
H2666 H 0.20818 0.35827 0.58005 0.0
H2667 H 0.23609 0.42684 0.57189 0.0
H2668 H 0.21804 0.41676 0.56905 0.0
H2669 H 0.22926 0.41665 0.55636 0.0
H2670 H 0.25823 0.38451 0.48804 0.0
H2671 H 0.23593 0.37506 0.48397 0.0
H2672 H 0.24975 0.41797 0.48456 0.0
H2673 H 0.21037 0.36532 0.50758 0.0
H2674 H 0.21498 0.35894 0.49267 0.0
H2675 H 0.20216 0.36391 0.49126 0.0
H2676 H 0.2367 0.42717 0.4934 0.0
H2677 H 0.22704 0.41793 0.50808 0.0
H2678 H 0.21869 0.41585 0.49171 0.0
H2679 H 0.1363 0.39014 0.46987 0.0
H2680 H 0.11656 0.38094 0.48579 0.0
H2681 H 0.1306 0.3803 0.49366 0.0
H2682 H 0.11655 0.36491 0.48651 0.0
H2683 H 0.14716 0.35647 0.47433 0.0
H2684 H 0.15496 0.39721 0.48243 0.0
H2685 H 0.16965 0.35643 0.5 0.0
H2686 H 0.17798 0.36062 0.48377 0.0
H2687 H 0.16035 0.34789 0.48437 0.0
H2688 H 0.17526 0.41391 0.49298 0.0
H2689 H 0.18889 0.41023 0.49546 0.0
H2690 H 0.17672 0.40628 0.50868 0.0
H2691 H 0.19299 0.38708 0.57975 0.0
H2692 H 0.22663 0.39258 0.54706 0.0
H2693 H 0.22782 0.39295 0.52238 0.0
H2694 H 0.19719 0.38739 0.48493 0.0
H2695 H 0.16292 0.37986 0.51771 0.0
H2696 H 0.16195 0.38012 0.54234 0.0
H2697 H 0.28313 0.39778 0.49004 0.0
H2698 H 0.27502 0.40609 0.49839 0.0
H2699 H 0.283 0.41218 0.48208 0.0
C2700 C 0.01746 0.37128 0.04936 0.0
C2701 C 0.00767 0.36497 0.0388 0.0
C2702 C 0.0148 0.37693 0.06094 0.0
C2703 C 0.98736 0.37942 0.07925 0.0
H2704 H 0.01782 0.41275 0.09378 0.0
C2705 C 0.98273 0.40762 0.12715 0.0
C2706 C 0.99033 0.42194 0.12764 0.0
C2707 C 0.98466 0.40016 0.11672 0.0
C2708 C 0.00913 0.40357 0.08976 0.0
H2709 H 0.98733 0.35933 0.03209 0.0
H2710 H 0.98281 0.36977 0.05201 0.0
H2711 H 0.0211 0.40062 0.07491 0.0
H2712 H 0.00619 0.43963 0.11757 0.0
H2713 H 0.009 0.42676 0.09902 0.0
H2714 H 0.97525 0.38289 0.09358 0.0
C2715 C 0.99243 0.37 0.05164 0.0
C2716 C 0.01107 0.3964 0.07906 0.0
C2717 C 0.995 0.36404 0.04018 0.0
C2718 C 1.0 0.42863 0.11746 0.0
C2719 C 0.00175 0.42119 0.10688 0.0
C2720 C 0.98537 0.38674 0.08981 0.0
C2721 C 0.00241 0.37676 0.06205 0.0
C2722 C 0.00024 0.3842 0.07366 0.0
C2723 C 0.99416 0.40684 0.10639 0.0
C2724 C 0.99623 0.39893 0.09521 0.0
H2725 H 0.02728 0.37198 0.0486 0.0
H2726 H 0.02259 0.38162 0.0689 0.0
H2727 H 0.97879 0.37 0.07551 0.0
H2728 H 0.97535 0.4022 0.13497 0.0
H2729 H 0.97883 0.38914 0.11691 0.0
C2730 C 0.64119 0.62107 0.05074 0.0
C2731 C 0.63303 0.62261 0.04077 0.0
C2732 C 0.63547 0.61076 0.06043 0.0
C2733 C 0.60246 0.58547 0.07534 0.0
H2734 H 0.62223 0.56667 0.08441 0.0
C2735 C 0.57081 0.52885 0.10498 0.0
C2736 C 0.582 0.52688 0.11788 0.0
C2737 C 0.57905 0.54412 0.09501 0.0
C2738 C 0.61663 0.5719 0.08222 0.0
H2739 H 0.61252 0.61535 0.03351 0.0
H2740 H 0.60243 0.59682 0.04998 0.0
H2741 H 0.63243 0.5864 0.06988 0.0
H2742 H 0.60684 0.53301 0.12311 0.0
H2743 H 0.61879 0.55661 0.10585 0.0
H2744 H 0.5867 0.57093 0.08787 0.0
C2745 C 0.61325 0.60363 0.05054 0.0
C2746 C 0.62248 0.58325 0.07374 0.0
C2747 C 0.61899 0.61413 0.041 0.0
C2748 C 0.60064 0.53516 0.11615 0.0
C2749 C 0.60792 0.55022 0.10583 0.0
C2750 C 0.59663 0.57413 0.08388 0.0
C2751 C 0.62143 0.60171 0.06031 0.0
C2752 C 0.61542 0.59009 0.07001 0.0
C2753 C 0.59725 0.55484 0.09583 0.0
C2754 C 0.60361 0.56716 0.08729 0.0
H2755 H 0.65203 0.62785 0.05101 0.0
H2756 H 0.64208 0.60988 0.06799 0.0
H2757 H 0.59683 0.59065 0.07301 0.0
H2758 H 0.55991 0.52289 0.10535 0.0
H2759 H 0.57299 0.54675 0.08838 0.0
C2760 C 0.37048 0.01119 0.0465 0.0
C2761 C 0.36866 0.00383 0.03418 0.0
C2762 C 0.37912 0.01127 0.05694 0.0
C2763 C 0.39228 0.98998 0.07053 0.0
H2764 H 0.41704 0.02231 0.09179 0.0
C2765 C 0.42468 0.98685 0.11478 0.0
C2766 C 0.42593 0.99434 0.12691 0.0
C2767 C 0.41942 0.98917 0.10264 0.0
C2768 C 0.41009 0.01317 0.08602 0.0
H2769 H 0.37383 0.99033 0.02318 0.0
H2770 H 0.38905 0.99049 0.0414 0.0
H2771 H 0.40459 0.02433 0.07202 0.0
H2772 H 0.42243 0.00994 0.13588 0.0
H2773 H 0.41294 0.0138 0.11478 0.0
H2774 H 0.39729 0.97869 0.08469 0.0
C2775 C 0.38398 0.99637 0.04294 0.0
C2776 C 0.40301 0.01435 0.07468 0.0
C2777 C 0.37536 0.99632 0.03252 0.0
C2778 C 0.42183 0.00422 0.12661 0.0
C2779 C 0.41644 0.00645 0.11449 0.0
C2780 C 0.39925 0.98878 0.0819 0.0
C2781 C 0.38584 0.00373 0.05532 0.0
C2782 C 0.39397 0.00274 0.06688 0.0
C2783 C 0.41501 0.99883 0.1024 0.0
C2784 C 0.4082 0.00033 0.08985 0.0
H2785 H 0.36495 0.0166 0.04818 0.0
H2786 H 0.38017 0.01684 0.06646 0.0
H2787 H 0.3852 0.98081 0.06486 0.0
H2788 H 0.42754 0.979 0.11473 0.0
H2789 H 0.41864 0.98323 0.09348 0.0
C2790 C 0.37346 0.01433 0.96508 0.0
C2791 C 0.3658 0.00414 0.97454 0.0
C2792 C 0.37929 0.01146 0.9539 0.0
C2793 C 0.39409 0.99088 0.94488 0.0
H2794 H 0.39333 0.00239 0.90743 0.0
C2795 C 0.4172 0.98942 0.88858 0.0
C2796 C 0.4311 0.99613 0.8919 0.0
C2797 C 0.40788 0.98873 0.89822 0.0
C2798 C 0.39353 0.99902 0.91781 0.0
H2799 H 0.35794 0.98289 0.97956 0.0
H2800 H 0.36851 0.97797 0.96011 0.0
H2801 H 0.37863 0.00398 0.92469 0.0
H2802 H 0.44612 0.00765 0.90795 0.0
H2803 H 0.42978 0.00601 0.92491 0.0
H2804 H 0.40944 0.9865 0.93817 0.0
C2805 C 0.36981 0.98811 0.96131 0.0
C2806 C 0.38518 0.99997 0.92766 0.0
C2807 C 0.36371 0.9909 0.97236 0.0
C2808 C 0.43548 0.00213 0.90512 0.0
C2809 C 0.42613 0.00121 0.91484 0.0
C2810 C 0.40263 0.99017 0.9351 0.0
C2811 C 0.3778 0.99843 0.95211 0.0
C2812 C 0.38549 0.99604 0.94131 0.0
C2813 C 0.41227 0.9946 0.91144 0.0
C2814 C 0.40253 0.99437 0.92152 0.0
H2815 H 0.37521 0.02462 0.96652 0.0
H2816 H 0.38549 0.01962 0.94701 0.0
H2817 H 0.39461 0.98792 0.95537 0.0
H2818 H 0.41358 0.98489 0.87841 0.0
H2819 H 0.39724 0.98361 0.89536 0.0
C2820 C 0.00053 0.37457 0.98155 0.0
C2821 C 0.00816 0.36806 0.97952 0.0
C2822 C 0.00023 0.38329 0.97161 0.0
C2823 C 0.0171 0.40323 0.94101 0.0
H2824 H 0.98114 0.39632 0.93086 0.0
C2825 C 0.00568 0.42417 0.89132 0.0
C2826 C 0.9956 0.42791 0.8917 0.0
C2827 C 0.00814 0.4181 0.90268 0.0
C2828 C 0.99129 0.3986 0.9337 0.0
H2829 H 0.02088 0.36487 0.96535 0.0
H2830 H 0.02054 0.38034 0.9479 0.0
H2831 H 0.98407 0.38384 0.94965 0.0
H2832 H 0.98005 0.42802 0.90427 0.0
H2833 H 0.98465 0.41792 0.92426 0.0
H2834 H 0.02433 0.41803 0.92504 0.0
C2835 C 0.01512 0.37902 0.95737 0.0
C2836 C 0.99296 0.3914 0.94447 0.0
C2837 C 0.01538 0.37025 0.96733 0.0
C2838 C 0.98805 0.42548 0.90373 0.0
C2839 C 0.99059 0.41953 0.91513 0.0
C2840 C 0.01545 0.41054 0.93028 0.0
C2841 C 0.00736 0.38546 0.95932 0.0
C2842 C 0.00585 0.39358 0.9482 0.0
C2843 C 0.00054 0.41558 0.91469 0.0
C2844 C 0.0025 0.40827 0.92645 0.0
H2845 H 0.99464 0.37275 0.99076 0.0
H2846 H 0.99422 0.38816 0.97342 0.0
H2847 H 0.02717 0.40518 0.94376 0.0
H2848 H 0.01145 0.42568 0.88207 0.0
H2849 H 0.0157 0.41497 0.90185 0.0
C2850 C 0.61879 0.63622 0.97999 0.0
C2851 C 0.62669 0.62987 0.98159 0.0
C2852 C 0.60895 0.63203 0.96944 0.0
C2853 C 0.58814 0.60253 0.94608 0.0
H2854 H 0.58106 0.62842 0.9268 0.0
C2855 C 0.55259 0.58743 0.89819 0.0
C2856 C 0.54334 0.59228 0.89778 0.0
C2857 C 0.56284 0.59218 0.90832 0.0
C2858 C 0.58284 0.62106 0.93219 0.0
H2859 H 0.63066 0.61438 0.97303 0.0
H2860 H 0.61378 0.60732 0.95451 0.0
H2861 H 0.59908 0.6366 0.94437 0.0
H2862 H 0.538 0.60639 0.90723 0.0
H2863 H 0.55593 0.61471 0.925 0.0
H2864 H 0.57198 0.58702 0.9338 0.0
C2865 C 0.61495 0.61533 0.9616 0.0
C2866 C 0.59316 0.62574 0.94227 0.0
C2867 C 0.62473 0.61946 0.97218 0.0
C2868 C 0.54482 0.60229 0.90748 0.0
C2869 C 0.55514 0.60712 0.91756 0.0
C2870 C 0.57789 0.59787 0.93596 0.0
C2871 C 0.60681 0.62143 0.9602 0.0
C2872 C 0.59594 0.61653 0.94935 0.0
C2873 C 0.56422 0.60207 0.91813 0.0
C2874 C 0.57512 0.60708 0.9289 0.0
H2875 H 0.61996 0.64423 0.98707 0.0
H2876 H 0.60278 0.63686 0.96879 0.0
H2877 H 0.58978 0.59511 0.95151 0.0
H2878 H 0.55193 0.57999 0.89062 0.0
H2879 H 0.56983 0.58827 0.90835 0.0
C2880 C 0.01204 0.64749 0.97316 0.0
C2881 C 0.00424 0.64043 0.98444 0.0
C2882 C 0.01383 0.64039 0.96227 0.0
C2883 C 0.01183 0.60762 0.95324 0.0
H2884 H 0.00849 0.61737 0.9157 0.0
C2885 C 0.02291 0.58376 0.90554 0.0
C2886 C 0.01366 0.57996 0.89436 0.0
C2887 C 0.02218 0.59128 0.91669 0.0
C2888 C 0.00939 0.61448 0.92612 0.0
H2889 H 0.99149 0.62055 0.99298 0.0
H2890 H 0.99469 0.60802 0.97398 0.0
H2891 H 0.0064 0.63022 0.93493 0.0
H2892 H 0.99669 0.58139 0.8859 0.0
H2893 H 0.99532 0.59443 0.90544 0.0
H2894 H 0.01456 0.5917 0.94441 0.0
C2895 C 0.99972 0.61905 0.97369 0.0
C2896 C 0.00834 0.62194 0.93713 0.0
C2897 C 0.99784 0.62616 0.9845 0.0
C2898 C 0.00382 0.58402 0.89447 0.0
C2899 C 0.00312 0.59158 0.90559 0.0
C2900 C 0.01293 0.60018 0.94222 0.0
C2901 C 0.00774 0.62609 0.96246 0.0
C2902 C 0.00943 0.61851 0.9508 0.0
C2903 C 0.0123 0.59531 0.91681 0.0
C2904 C 0.01159 0.60346 0.92854 0.0
H2905 H 0.01669 0.65849 0.97275 0.0
H2906 H 0.02008 0.64609 0.95378 0.0
H2907 H 0.01285 0.60484 0.96368 0.0
H2908 H 0.03076 0.58099 0.90558 0.0
H2909 H 0.02951 0.59417 0.9251 0.0
C2910 C 0.38246 0.3807 0.96258 0.0
C2911 C 0.37352 0.37981 0.97291 0.0
C2912 C 0.38586 0.39016 0.95204 0.0
C2913 C 0.38816 0.4228 0.94361 0.0
H2914 H 0.3868 0.41106 0.90563 0.0
C2915 C 0.39429 0.45758 0.89755 0.0
C2916 C 0.40058 0.45635 0.88569 0.0
C2917 C 0.39149 0.44863 0.90849 0.0
C2918 C 0.38748 0.4146 0.91619 0.0
H2919 H 0.36126 0.38829 0.9803 0.0
H2920 H 0.36736 0.40491 0.96195 0.0
H2921 H 0.38086 0.39464 0.92404 0.0
H2922 H 0.40947 0.44523 0.87626 0.0
H2923 H 0.40507 0.42994 0.89551 0.0
H2924 H 0.39502 0.44281 0.93585 0.0
C2925 C 0.37168 0.39824 0.96203 0.0
C2926 C 0.384 0.40515 0.92673 0.0
C2927 C 0.36812 0.38865 0.97248 0.0
C2928 C 0.40449 0.44634 0.88522 0.0
C2929 C 0.40185 0.4375 0.89621 0.0
C2930 C 0.3918 0.43231 0.93308 0.0
C2931 C 0.38056 0.39906 0.9517 0.0
C2932 C 0.38427 0.40914 0.94054 0.0
C2933 C 0.39509 0.43835 0.9079 0.0
C2934 C 0.39148 0.42833 0.91921 0.0
H2935 H 0.38681 0.37405 0.96258 0.0
H2936 H 0.39282 0.39064 0.94427 0.0
H2937 H 0.38861 0.42618 0.9542 0.0
H2938 H 0.39123 0.46526 0.89822 0.0
H2939 H 0.38617 0.44955 0.91723 0.0
C2940 C 0.63471 0.99339 0.97227 0.0
C2941 C 0.63443 0.00064 0.98396 0.0
C2942 C 0.62634 0.99156 0.96086 0.0
C2943 C 0.61408 0.99706 0.93541 0.0
H2944 H 0.57628 0.986 0.94015 0.0
C2945 C 0.57994 0.99365 0.8895 0.0
C2946 C 0.5673 0.98173 0.88852 0.0
C2947 C 0.58781 0.99685 0.9016 0.0
C2948 C 0.58681 0.98908 0.93869 0.0
H2949 H 0.62597 0.01238 0.99278 0.0
H2950 H 0.61104 0.00901 0.97281 0.0
H2951 H 0.59081 0.98958 0.96044 0.0
H2952 H 0.55297 0.96378 0.89939 0.0
H2953 H 0.56669 0.96938 0.92059 0.0
H2954 H 0.6101 0.99633 0.91371 0.0
C2955 C 0.61752 0.0045 0.97258 0.0
C2956 C 0.59513 0.99123 0.95028 0.0
C2957 C 0.62603 0.00646 0.98395 0.0
C2958 C 0.56258 0.97316 0.89996 0.0
C2959 C 0.57042 0.97638 0.91209 0.0
C2960 C 0.6058 0.995 0.92385 0.0
C2961 C 0.61762 0.99705 0.96092 0.0
C2962 C 0.60882 0.99514 0.94873 0.0
C2963 C 0.58322 0.98815 0.91296 0.0
C2964 C 0.59206 0.99092 0.92535 0.0
H2965 H 0.64145 0.98919 0.97196 0.0
H2966 H 0.62658 0.98572 0.95205 0.0
H2967 H 0.62462 0.00019 0.93392 0.0
H2968 H 0.58387 0.00035 0.88078 0.0
H2969 H 0.59757 0.00606 0.90202 0.0
C2970 C 0.63778 0.01536 0.04776 0.0
C2971 C 0.63473 0.0019 0.04483 0.0
C2972 C 0.63156 0.01818 0.05867 0.0
C2973 C 0.60133 0.00089 0.08055 0.0
H2974 H 0.61967 0.03415 0.1027 0.0
C2975 C 0.57939 0.00938 0.13052 0.0
C2976 C 0.57991 0.02202 0.13218 0.0
C2977 C 0.58611 0.00717 0.11972 0.0
C2978 C 0.6144 0.02487 0.09651 0.0
H2979 H 0.62334 0.98096 0.0515 0.0
H2980 H 0.61292 0.98591 0.07074 0.0
H2981 H 0.63188 0.02987 0.08459 0.0
H2982 H 0.58766 0.04217 0.12367 0.0
H2983 H 0.59963 0.03837 0.10487 0.0
H2984 H 0.58395 0.99579 0.09268 0.0
C2985 C 0.61972 0.99425 0.06436 0.0
C2986 C 0.62138 0.02242 0.08611 0.0
C2987 C 0.62578 0.99142 0.05338 0.0
C2988 C 0.5872 0.03238 0.12271 0.0
C2989 C 0.59406 0.03022 0.112 0.0
C2990 C 0.59443 0.00327 0.09102 0.0
C2991 C 0.62227 0.00761 0.06697 0.0
C2992 C 0.61494 0.01036 0.07803 0.0
C2993 C 0.59359 0.0176 0.11042 0.0
C2994 C 0.60089 0.01526 0.09913 0.0
H2995 H 0.64456 0.02364 0.0413 0.0
H2996 H 0.63369 0.02857 0.06028 0.0
H2997 H 0.59592 0.99166 0.07433 0.0
H2998 H 0.57384 0.00121 0.13764 0.0
H2999 H 0.58565 0.99737 0.11879 0.0
C3000 C 0.01096 0.63807 0.05348 0.0
C3001 C 0.00105 0.63793 0.04453 0.0
C3002 C 0.0073 0.62898 0.06437 0.0
C3003 C 0.98105 0.59544 0.07486 0.0
H3004 H 0.99688 0.6076 0.11151 0.0
C3005 C 0.9651 0.55897 0.12109 0.0
C3006 C 0.97513 0.56094 0.13093 0.0
C3007 C 0.96791 0.56834 0.11056 0.0
C3008 C 0.99251 0.60398 0.10129 0.0
H3009 H 0.9795 0.62818 0.04009 0.0
H3010 H 0.97313 0.61215 0.05907 0.0
H3011 H 0.00234 0.62422 0.09335 0.0
H3012 H 0.99609 0.57398 0.13715 0.0
H3013 H 0.00115 0.59006 0.11854 0.0
H3014 H 0.97152 0.57517 0.08262 0.0
C3015 C 0.98372 0.61936 0.05763 0.0
C3016 C 0.99558 0.61353 0.09092 0.0
C3017 C 0.98737 0.6286 0.04683 0.0
C3018 C 0.98813 0.57226 0.12978 0.0
C3019 C 0.99098 0.58154 0.11918 0.0
C3020 C 0.97809 0.58586 0.08519 0.0
C3021 C 0.99366 0.61943 0.06645 0.0
C3022 C 0.98993 0.60936 0.0776 0.0
C3023 C 0.98087 0.57981 0.10953 0.0
C3024 C 0.98383 0.59 0.09854 0.0
H3025 H 0.02159 0.64514 0.05202 0.0
H3026 H 0.01517 0.62919 0.07096 0.0
H3027 H 0.97668 0.59193 0.06462 0.0
H3028 H 0.95501 0.5503 0.1217 0.0
H3029 H 0.95983 0.56672 0.10342 0.0
C3030 C 0.3885 0.38459 0.0346 0.0
C3031 C 0.3801 0.37054 0.0324 0.0
C3032 C 0.39807 0.38942 0.04545 0.0
C3033 C 0.40518 0.37967 0.07927 0.0
H3034 H 0.44226 0.40762 0.0733 0.0
C3035 C 0.44338 0.40347 0.12444 0.0
C3036 C 0.45611 0.4046 0.12261 0.0
C3037 C 0.43446 0.40052 0.11323 0.0
C3038 C 0.43194 0.39979 0.07511 0.0
H3039 H 0.3742 0.35049 0.04021 0.0
H3040 H 0.39087 0.35885 0.05919 0.0
H3041 H 0.42579 0.39977 0.05407 0.0
H3042 H 0.46948 0.40351 0.1076 0.0
H3043 H 0.45388 0.39838 0.08794 0.0
H3044 H 0.41128 0.37946 0.10018 0.0
C3045 C 0.39031 0.36617 0.05245 0.0
C3046 C 0.42251 0.39539 0.06414 0.0
C3047 C 0.38089 0.36138 0.04153 0.0
C3048 C 0.45982 0.40293 0.10926 0.0
C3049 C 0.4509 0.40001 0.09802 0.0
C3050 C 0.41456 0.38412 0.09022 0.0
C3051 C 0.39907 0.38023 0.05448 0.0
C3052 C 0.40905 0.38523 0.06611 0.0
C3053 C 0.43803 0.39854 0.09993 0.0
C3054 C 0.42806 0.3942 0.08828 0.0
H3055 H 0.38779 0.39181 0.02782 0.0
H3056 H 0.40456 0.40031 0.04689 0.0
H3057 H 0.39486 0.3719 0.08112 0.0
H3058 H 0.44021 0.40456 0.13463 0.0
H3059 H 0.42467 0.39959 0.11501 0.0
C3060 C 0.66994 0.71018 0.38677 0.0
C3061 C 0.66182 0.69952 0.37744 0.0
C3062 C 0.66409 0.7146 0.39666 0.0
C3063 C 0.63193 0.7049 0.41437 0.0
H3064 H 0.64902 0.74385 0.42168 0.0
C3065 C 0.60717 0.72989 0.44665 0.0
C3066 C 0.61562 0.74003 0.4563 0.0
C3067 C 0.61258 0.72465 0.43709 0.0
C3068 C 0.6442 0.73294 0.41984 0.0
H3069 H 0.64113 0.68498 0.37137 0.0
H3070 H 0.63092 0.69287 0.38847 0.0
H3071 H 0.65878 0.73513 0.40498 0.0
H3072 H 0.63629 0.7521 0.46394 0.0
H3073 H 0.64576 0.7431 0.44711 0.0
H3074 H 0.61722 0.70281 0.42914 0.0
C3075 C 0.64183 0.69768 0.38828 0.0
C3076 C 0.64981 0.72792 0.41029 0.0
C3077 C 0.64769 0.69318 0.37843 0.0
C3078 C 0.62957 0.74458 0.45639 0.0
C3079 C 0.63499 0.73942 0.44676 0.0
C3080 C 0.62626 0.70995 0.42386 0.0
C3081 C 0.64996 0.70856 0.39742 0.0
C3082 C 0.64381 0.71383 0.40749 0.0
C3083 C 0.62656 0.72941 0.43699 0.0
C3084 C 0.63238 0.72401 0.42675 0.0
H3085 H 0.68086 0.71523 0.3864 0.0
H3086 H 0.67067 0.72278 0.40371 0.0
H3087 H 0.62713 0.69399 0.41261 0.0
H3088 H 0.59636 0.72602 0.44653 0.0
H3089 H 0.60584 0.71697 0.42966 0.0
C3090 C 0.28055 0.94897 0.38546 0.0
C3091 C 0.29448 0.95633 0.38336 0.0
C3092 C 0.27537 0.93924 0.39581 0.0
C3093 C 0.28559 0.91869 0.41787 0.0
H3094 H 0.25046 0.90665 0.43354 0.0
C3095 C 0.26398 0.86883 0.45805 0.0
C3096 C 0.24535 0.86051 0.45995 0.0
C3097 C 0.27131 0.88453 0.44874 0.0
C3098 C 0.26022 0.90981 0.42913 0.0
H3099 H 0.31411 0.96068 0.39123 0.0
H3100 H 0.30527 0.94433 0.40979 0.0
H3101 H 0.26033 0.92663 0.41903 0.0
H3102 H 0.22327 0.8574 0.44816 0.0
H3103 H 0.23643 0.88232 0.43271 0.0
H3104 H 0.2854 0.90181 0.42779 0.0
C3105 C 0.29815 0.94528 0.40301 0.0
C3106 C 0.26591 0.92129 0.42077 0.0
C3107 C 0.30327 0.95472 0.39242 0.0
C3108 C 0.23417 0.86336 0.44781 0.0
C3109 C 0.24246 0.87925 0.43883 0.0
C3110 C 0.2799 0.90724 0.4262 0.0
C3111 C 0.28409 0.93706 0.40461 0.0
C3112 C 0.27856 0.92572 0.41473 0.0
C3113 C 0.26068 0.88984 0.4397 0.0
C3114 C 0.26707 0.90254 0.43174 0.0
H3115 H 0.27364 0.95027 0.37868 0.0
H3116 H 0.26451 0.93308 0.39649 0.0
H3117 H 0.29533 0.92167 0.41356 0.0
H3118 H 0.27017 0.8662 0.46449 0.0
H3119 H 0.28218 0.89085 0.44875 0.0
C3120 C 0.04918 0.33043 0.3729 0.0
C3121 C 0.04233 0.33755 0.36969 0.0
C3122 C 0.05806 0.33442 0.38433 0.0
C3123 C 0.07836 0.36406 0.4074 0.0
H3124 H 0.08051 0.33753 0.43084 0.0
C3125 C 0.11292 0.38104 0.4559 0.0
C3126 C 0.1194 0.37364 0.45954 0.0
C3127 C 0.10295 0.37625 0.44549 0.0
C3128 C 0.08024 0.3451 0.42427 0.0
H3129 H 0.03824 0.35346 0.37645 0.0
H3130 H 0.05372 0.3605 0.3964 0.0
H3131 H 0.06422 0.32979 0.41164 0.0
H3132 H 0.12008 0.35504 0.45533 0.0
H3133 H 0.10333 0.34709 0.43666 0.0
H3134 H 0.09462 0.37939 0.41956 0.0
C3135 C 0.05268 0.35217 0.38988 0.0
C3136 C 0.07084 0.34064 0.41328 0.0
C3137 C 0.04386 0.34819 0.37846 0.0
C3138 C 0.1155 0.36116 0.45265 0.0
C3139 C 0.10571 0.35649 0.44204 0.0
C3140 C 0.08793 0.36853 0.41818 0.0
C3141 C 0.06 0.34544 0.39287 0.0
C3142 C 0.06982 0.35008 0.40469 0.0
C3143 C 0.0993 0.36398 0.43828 0.0
C3144 C 0.08901 0.35913 0.4268 0.0
H3145 H 0.04791 0.32201 0.36639 0.0
H3146 H 0.06359 0.32907 0.3863 0.0
H3147 H 0.07783 0.37161 0.40105 0.0
H3148 H 0.11554 0.39055 0.46122 0.0
H3149 H 0.09803 0.38215 0.4432 0.0
C3150 C 0.03323 0.30952 0.30758 0.0
C3151 C 0.04016 0.32373 0.30987 0.0
C3152 C 0.03706 0.3037 0.29696 0.0
C3153 C 0.05448 0.31185 0.2639 0.0
H3154 H 0.06096 0.28182 0.27138 0.0
C3155 C 0.0836 0.29675 0.22628 0.0
C3156 C 0.07967 0.28288 0.22461 0.0
C3157 C 0.0779 0.30101 0.23649 0.0
C3158 C 0.05899 0.29006 0.26903 0.0
H3159 H 0.05646 0.34294 0.30267 0.0
H3160 H 0.06297 0.33281 0.28419 0.0
H3161 H 0.05221 0.29033 0.2895 0.0
H3162 H 0.06621 0.26255 0.23185 0.0
H3163 H 0.05604 0.26995 0.24957 0.0
H3164 H 0.06115 0.31161 0.24347 0.0
C3165 C 0.05459 0.32618 0.29058 0.0
C3166 C 0.05399 0.29493 0.27943 0.0
C3167 C 0.0509 0.33196 0.30125 0.0
C3168 C 0.06964 0.27334 0.23313 0.0
C3169 C 0.06386 0.27759 0.24329 0.0
C3170 C 0.05935 0.30691 0.25348 0.0
C3171 C 0.04773 0.312 0.28832 0.0
C3172 C 0.05191 0.30603 0.27703 0.0
C3173 C 0.06794 0.29149 0.24512 0.0
C3174 C 0.06191 0.29612 0.25598 0.0
H3175 H 0.02494 0.30288 0.31405 0.0
H3176 H 0.03157 0.29273 0.29541 0.0
H3177 H 0.05276 0.32028 0.26169 0.0
H3178 H 0.09111 0.30433 0.21969 0.0
H3179 H 0.08142 0.31181 0.23769 0.0
C3180 C 0.68551 0.70588 0.3097 0.0
C3181 C 0.67526 0.70422 0.31862 0.0
C3182 C 0.68972 0.71558 0.29937 0.0
C3183 C 0.68848 0.74673 0.28936 0.0
H3184 H 0.70157 0.74086 0.25468 0.0
C3185 C 0.69884 0.78048 0.2413 0.0
C3186 C 0.71173 0.78547 0.23563 0.0
C3187 C 0.69448 0.77074 0.25163 0.0
C3188 C 0.69801 0.74264 0.26436 0.0
H3189 H 0.66036 0.71023 0.32303 0.0
H3190 H 0.66745 0.72708 0.30476 0.0
H3191 H 0.69307 0.723 0.27183 0.0
H3192 H 0.72984 0.78372 0.23596 0.0
H3193 H 0.72202 0.76636 0.2538 0.0
H3194 H 0.69302 0.76623 0.28152 0.0
C3195 C 0.67274 0.72139 0.3061 0.0
C3196 C 0.69319 0.73245 0.27424 0.0
C3197 C 0.66859 0.7117 0.31649 0.0
C3198 C 0.71997 0.78021 0.24029 0.0
C3199 C 0.71549 0.77027 0.25042 0.0
C3200 C 0.69307 0.75681 0.27936 0.0
C3201 C 0.68352 0.72362 0.29755 0.0
C3202 C 0.6884 0.73437 0.2869 0.0
C3203 C 0.70274 0.7655 0.25621 0.0
C3204 C 0.69792 0.75487 0.26681 0.0
H3205 H 0.69042 0.69979 0.31086 0.0
H3206 H 0.69809 0.71701 0.29309 0.0
H3207 H 0.68517 0.74873 0.29909 0.0
H3208 H 0.69208 0.78405 0.23776 0.0
H3209 H 0.68453 0.76707 0.25583 0.0
C3210 C 0.2746 0.96624 0.32261 0.0
C3211 C 0.28066 0.95813 0.32483 0.0
C3212 C 0.26463 0.96269 0.31227 0.0
C3213 C 0.24078 0.93343 0.28977 0.0
H3214 H 0.24037 0.96154 0.26736 0.0
C3215 C 0.21194 0.92175 0.23771 0.0
C3216 C 0.20379 0.92774 0.23549 0.0
C3217 C 0.22077 0.92562 0.24912 0.0
C3218 C 0.24029 0.9536 0.27363 0.0
H3219 H 0.28102 0.93998 0.31779 0.0
H3220 H 0.26402 0.93404 0.29969 0.0
H3221 H 0.25678 0.96798 0.28644 0.0
H3222 H 0.19914 0.94307 0.243 0.0
H3223 H 0.21478 0.94999 0.26294 0.0
H3224 H 0.22456 0.91906 0.27669 0.0
C3225 C 0.26667 0.94295 0.30611 0.0
C3226 C 0.24965 0.95728 0.2846 0.0
C3227 C 0.27652 0.94643 0.31647 0.0
C3228 C 0.20509 0.93809 0.24464 0.0
C3229 C 0.21408 0.94209 0.25597 0.0
C3230 C 0.23154 0.92977 0.27875 0.0
C3231 C 0.26055 0.951 0.30388 0.0
C3232 C 0.25011 0.94722 0.29271 0.0
C3233 C 0.2219 0.9358 0.25839 0.0
C3234 C 0.23129 0.9398 0.27048 0.0
H3235 H 0.27749 0.97529 0.32889 0.0
H3236 H 0.26003 0.96903 0.31097 0.0
H3237 H 0.2406 0.92541 0.29599 0.0
H3238 H 0.21148 0.91403 0.23064 0.0
H3239 H 0.22688 0.92079 0.25059 0.0
C3240 C 0.67268 0.94617 0.3177 0.0
C3241 C 0.67759 0.96016 0.31984 0.0
C3242 C 0.67755 0.94162 0.30688 0.0
C3243 C 0.6936 0.95185 0.27315 0.0
H3244 H 0.70553 0.92554 0.2798 0.0
C3245 C 0.72883 0.93254 0.24495 0.0
C3246 C 0.72382 0.931 0.23132 0.0
C3247 C 0.722 0.93448 0.25585 0.0
C3248 C 0.70224 0.9329 0.2778 0.0
H3249 H 0.69048 0.98031 0.31193 0.0
H3250 H 0.699 0.97244 0.29301 0.0
H3251 H 0.69592 0.9324 0.29863 0.0
H3252 H 0.70769 0.93011 0.21843 0.0
H3253 H 0.69566 0.93333 0.23745 0.0
H3254 H 0.70018 0.95266 0.25248 0.0
C3255 C 0.6916 0.96497 0.29976 0.0
C3256 C 0.69664 0.93673 0.28853 0.0
C3257 C 0.68686 0.96949 0.31065 0.0
C3258 C 0.71171 0.93116 0.22885 0.0
C3259 C 0.70489 0.93311 0.23972 0.0
C3260 C 0.69912 0.94798 0.26243 0.0
C3261 C 0.68709 0.951 0.29782 0.0
C3262 C 0.69238 0.94634 0.28634 0.0
C3263 C 0.71009 0.93505 0.25332 0.0
C3264 C 0.70359 0.93854 0.26464 0.0
H3265 H 0.66528 0.93881 0.32454 0.0
H3266 H 0.67377 0.93078 0.30551 0.0
H3267 H 0.69032 0.9592 0.27113 0.0
H3268 H 0.73825 0.93267 0.24711 0.0
H3269 H 0.72635 0.93611 0.26617 0.0
C3270 C 0.0538 0.72336 0.30163 0.0
C3271 C 0.04403 0.72143 0.31141 0.0
C3272 C 0.05662 0.73249 0.29088 0.0
C3273 C 0.05516 0.76287 0.28058 0.0
H3274 H 0.05606 0.75057 0.24335 0.0
C3275 C 0.05864 0.79464 0.23261 0.0
C3276 C 0.06548 0.79368 0.22107 0.0
C3277 C 0.05657 0.78637 0.24402 0.0
C3278 C 0.05611 0.7543 0.25369 0.0
H3279 H 0.02974 0.72783 0.31765 0.0
H3280 H 0.03484 0.74392 0.29891 0.0
H3281 H 0.05136 0.73512 0.26246 0.0
H3282 H 0.07627 0.78397 0.21281 0.0
H3283 H 0.07317 0.76996 0.23288 0.0
H3284 H 0.06019 0.78215 0.2719 0.0
C3285 C 0.04024 0.73829 0.2996 0.0
C3286 C 0.05333 0.74539 0.26463 0.0
C3287 C 0.03728 0.72901 0.31027 0.0
C3288 C 0.07078 0.78478 0.22147 0.0
C3289 C 0.06889 0.77666 0.23294 0.0
C3290 C 0.05812 0.77187 0.26964 0.0
C3291 C 0.04988 0.74004 0.28975 0.0
C3292 C 0.0528 0.74957 0.27818 0.0
C3293 C 0.0615 0.77712 0.24426 0.0
C3294 C 0.05862 0.7677 0.25603 0.0
H3295 H 0.05921 0.71771 0.30217 0.0
H3296 H 0.06419 0.73373 0.2835 0.0
H3297 H 0.05495 0.7664 0.29095 0.0
H3298 H 0.05459 0.80154 0.23266 0.0
H3299 H 0.05076 0.78698 0.25246 0.0
C3300 C 0.29127 0.32166 0.30509 0.0
C3301 C 0.29112 0.33123 0.31429 0.0
C3302 C 0.28213 0.31657 0.29395 0.0
C3303 C 0.24916 0.31101 0.28178 0.0
H3304 H 0.26171 0.30679 0.24607 0.0
C3305 C 0.21363 0.27732 0.23701 0.0
C3306 C 0.21709 0.2821 0.22351 0.0
C3307 C 0.22219 0.28452 0.24819 0.0
C3308 C 0.25805 0.30804 0.25592 0.0
H3309 H 0.28204 0.34371 0.31878 0.0
H3310 H 0.26574 0.3346 0.29928 0.0
H3311 H 0.27783 0.31727 0.26522 0.0
H3312 H 0.23209 0.29823 0.21115 0.0
H3313 H 0.24697 0.3109 0.23068 0.0
H3314 H 0.22932 0.30167 0.27245 0.0
C3315 C 0.27277 0.33086 0.30084 0.0
C3316 C 0.26727 0.31391 0.26693 0.0
C3317 C 0.28207 0.33609 0.31192 0.0
C3318 C 0.22913 0.29437 0.22146 0.0
C3319 C 0.23768 0.30155 0.23262 0.0
C3320 C 0.23988 0.30505 0.27076 0.0
C3321 C 0.27271 0.32102 0.29176 0.0
C3322 C 0.26292 0.31538 0.27999 0.0
C3323 C 0.23444 0.29658 0.24609 0.0
C3324 C 0.24423 0.30345 0.25772 0.0
H3325 H 0.29845 0.31808 0.30655 0.0
H3326 H 0.28228 0.30895 0.28719 0.0
H3327 H 0.24551 0.31192 0.29178 0.0
H3328 H 0.2045 0.26778 0.23885 0.0
H3329 H 0.21948 0.28033 0.25841 0.0
C3330 C 0.28703 0.3378 0.38419 0.0
C3331 C 0.29634 0.34635 0.37446 0.0
C3332 C 0.28315 0.34326 0.39502 0.0
C3333 C 0.29336 0.37549 0.4146 0.0
H3334 H 0.25654 0.35547 0.42735 0.0
C3335 C 0.27276 0.3968 0.4566 0.0
C3336 C 0.26611 0.38785 0.46741 0.0
C3337 C 0.27593 0.39208 0.4446 0.0
C3338 C 0.26687 0.36114 0.42393 0.0
H3339 H 0.30879 0.3674 0.3685 0.0
H3340 H 0.30176 0.37692 0.38722 0.0
H3341 H 0.2632 0.3468 0.40759 0.0
H3342 H 0.25713 0.36689 0.47393 0.0
H3343 H 0.26246 0.35859 0.45288 0.0
H3344 H 0.29692 0.3899 0.43091 0.0
C3345 C 0.29767 0.36599 0.38664 0.0
C3346 C 0.27072 0.35616 0.41264 0.0
C3347 C 0.30167 0.36052 0.37586 0.0
C3348 C 0.26227 0.37401 0.46578 0.0
C3349 C 0.26529 0.36926 0.45372 0.0
C3350 C 0.28946 0.38055 0.4258 0.0
C3351 C 0.28834 0.35742 0.39636 0.0
C3352 C 0.28407 0.36315 0.40793 0.0
C3353 C 0.27231 0.37828 0.44309 0.0
C3354 C 0.27622 0.37334 0.43068 0.0
H3355 H 0.28279 0.32684 0.38352 0.0
H3356 H 0.27618 0.33635 0.40246 0.0
H3357 H 0.30377 0.38107 0.41142 0.0
H3358 H 0.27573 0.4075 0.45754 0.0
H3359 H 0.28121 0.39922 0.4365 0.0
C3360 C 0.64973 0.94241 0.37959 0.0
C3361 C 0.66376 0.95136 0.37939 0.0
C3362 C 0.64404 0.93297 0.39009 0.0
C3363 C 0.64927 0.92696 0.42587 0.0
H3364 H 0.62277 0.88934 0.41715 0.0
C3365 C 0.62469 0.88758 0.46874 0.0
C3366 C 0.61081 0.87829 0.46718 0.0
C3367 C 0.63197 0.89573 0.45778 0.0
C3368 C 0.63004 0.89983 0.41979 0.0
H3369 H 0.6828 0.95739 0.39014 0.0
H3370 H 0.67275 0.94101 0.40869 0.0
H3371 H 0.63387 0.90522 0.39853 0.0
H3372 H 0.59372 0.87 0.45286 0.0
H3373 H 0.60624 0.88453 0.43385 0.0
H3374 H 0.64514 0.92182 0.44708 0.0
C3375 C 0.66622 0.94132 0.40062 0.0
C3376 C 0.63643 0.9089 0.40911 0.0
C3377 C 0.67196 0.95065 0.38999 0.0
C3378 C 0.60441 0.8771 0.45434 0.0
C3379 C 0.61164 0.88536 0.44342 0.0
C3380 C 0.64277 0.91794 0.43656 0.0
C3381 C 0.65221 0.93236 0.40074 0.0
C3382 C 0.64602 0.92257 0.41205 0.0
C3383 C 0.62549 0.8949 0.44503 0.0
C3384 C 0.63297 0.90428 0.43366 0.0
H3385 H 0.64312 0.94262 0.37155 0.0
H3386 H 0.63319 0.92627 0.39001 0.0
H3387 H 0.65653 0.93749 0.42842 0.0
H3388 H 0.62989 0.88865 0.47852 0.0
H3389 H 0.64266 0.90275 0.45933 0.0
C3390 C 0.05033 0.70147 0.38002 0.0
C3391 C 0.04944 0.71097 0.3715 0.0
C3392 C 0.05933 0.70582 0.39127 0.0
C3393 C 0.08001 0.73551 0.41452 0.0
H3394 H 0.09826 0.71494 0.42253 0.0
C3395 C 0.10777 0.73944 0.46634 0.0
C3396 C 0.11958 0.73844 0.46599 0.0
C3397 C 0.10028 0.73788 0.45423 0.0
C3398 C 0.09341 0.72093 0.42034 0.0
H3399 H 0.05649 0.73238 0.36838 0.0
H3400 H 0.07271 0.74017 0.3879 0.0
H3401 H 0.08298 0.70854 0.40274 0.0
H3402 H 0.13294 0.73522 0.45272 0.0
H3403 H 0.11999 0.73271 0.43152 0.0
H3404 H 0.09046 0.74782 0.43235 0.0
C3405 C 0.06642 0.72932 0.38594 0.0
C3406 C 0.08451 0.71717 0.40904 0.0
C3407 C 0.05724 0.72492 0.37473 0.0
C3408 C 0.12394 0.73618 0.45326 0.0
C3409 C 0.11647 0.73463 0.44116 0.0
C3410 C 0.08891 0.73925 0.42591 0.0
C3411 C 0.06766 0.71981 0.39427 0.0
C3412 C 0.07759 0.72432 0.40601 0.0
C3413 C 0.10441 0.73519 0.44155 0.0
C3414 C 0.09564 0.73193 0.42899 0.0
H3415 H 0.04404 0.69063 0.37795 0.0
H3416 H 0.0597 0.69817 0.39765 0.0
H3417 H 0.07476 0.74116 0.4126 0.0
H3418 H 0.1041 0.741 0.47605 0.0
H3419 H 0.09094 0.73819 0.45491 0.0
C3420 C 0.31456 0.03717 0.70773 0.0
C3421 C 0.32852 0.04184 0.70833 0.0
C3422 C 0.30854 0.04106 0.71795 0.0
C3423 C 0.31198 0.05254 0.75374 0.0
H3424 H 0.2922 0.0708 0.74235 0.0
C3425 C 0.27797 0.06788 0.78664 0.0
C3426 C 0.28571 0.08179 0.79029 0.0
C3427 C 0.28247 0.0621 0.77667 0.0
C3428 C 0.29759 0.06559 0.7456 0.0
H3429 H 0.34704 0.05387 0.72028 0.0
H3430 H 0.33641 0.06033 0.73836 0.0
H3431 H 0.3013 0.06185 0.72482 0.0
H3432 H 0.30453 0.10045 0.78652 0.0
H3433 H 0.31208 0.09036 0.76878 0.0
H3434 H 0.30826 0.05635 0.77453 0.0
C3435 C 0.33019 0.0538 0.7299 0.0
C3436 C 0.30274 0.06046 0.73564 0.0
C3437 C 0.33627 0.05016 0.71953 0.0
C3438 C 0.29815 0.08977 0.78381 0.0
C3439 C 0.30253 0.08403 0.77371 0.0
C3440 C 0.30665 0.0575 0.76369 0.0
C3441 C 0.31632 0.04943 0.7291 0.0
C3442 C 0.31012 0.05404 0.73963 0.0
C3443 C 0.29474 0.07017 0.77013 0.0
C3444 C 0.29957 0.06417 0.75966 0.0
H3445 H 0.30836 0.03082 0.69916 0.0
H3446 H 0.29781 0.03755 0.71715 0.0
H3447 H 0.31758 0.04757 0.75705 0.0
H3448 H 0.26847 0.06146 0.79161 0.0
H3449 H 0.2764 0.05135 0.77406 0.0
C3450 C 0.9496 0.27666 0.70094 0.0
C3451 C 0.96356 0.28543 0.70015 0.0
C3452 C 0.94443 0.26681 0.71117 0.0
C3453 C 0.93827 0.24183 0.72843 0.0
H3454 H 0.95057 0.2522 0.76643 0.0
C3455 C 0.92741 0.2028 0.7716 0.0
C3456 C 0.92326 0.20547 0.78428 0.0
C3457 C 0.93186 0.21248 0.76119 0.0
C3458 C 0.94699 0.24918 0.75587 0.0
H3459 H 0.98304 0.29176 0.70991 0.0
H3460 H 0.97405 0.27458 0.72789 0.0
H3461 H 0.95928 0.26946 0.74857 0.0
H3462 H 0.92051 0.22034 0.796 0.0
H3463 H 0.92843 0.23733 0.77783 0.0
H3464 H 0.92603 0.22153 0.73573 0.0
C3465 C 0.9671 0.27507 0.72047 0.0
C3466 C 0.95206 0.25902 0.74565 0.0
C3467 C 0.97225 0.28477 0.71013 0.0
C3468 C 0.92365 0.21802 0.78632 0.0
C3469 C 0.92823 0.22774 0.77597 0.0
C3470 C 0.93332 0.23195 0.73863 0.0
C3471 C 0.95315 0.2659 0.72101 0.0
C3472 C 0.94773 0.25545 0.73183 0.0
C3473 C 0.93242 0.22508 0.76332 0.0
C3474 C 0.9376 0.23554 0.75246 0.0
H3475 H 0.94273 0.27727 0.69351 0.0
H3476 H 0.93362 0.26 0.71149 0.0
H3477 H 0.93484 0.2388 0.71784 0.0
H3478 H 0.92731 0.19327 0.76978 0.0
H3479 H 0.93517 0.21021 0.75159 0.0
C3480 C 0.7087 0.68266 0.7097 0.0
C3481 C 0.70727 0.67218 0.70076 0.0
C3482 C 0.71816 0.68717 0.72059 0.0
C3483 C 0.73793 0.67689 0.74287 0.0
H3484 H 0.7609 0.71582 0.74881 0.0
C3485 C 0.78272 0.69867 0.78212 0.0
C3486 C 0.78624 0.71105 0.78901 0.0
C3487 C 0.77301 0.69378 0.77143 0.0
C3488 C 0.75445 0.70491 0.74751 0.0
H3489 H 0.71377 0.65746 0.6966 0.0
H3490 H 0.7305 0.66539 0.71566 0.0
H3491 H 0.74379 0.70748 0.73055 0.0
H3492 H 0.7818 0.72758 0.79057 0.0
H3493 H 0.76441 0.71877 0.77241 0.0
H3494 H 0.74809 0.67427 0.76029 0.0
C3495 C 0.72443 0.67025 0.71417 0.0
C3496 C 0.74471 0.70013 0.73688 0.0
C3497 C 0.71495 0.66577 0.70324 0.0
C3498 C 0.77948 0.71815 0.78526 0.0
C3499 C 0.76958 0.71313 0.77476 0.0
C3500 C 0.74749 0.68166 0.75371 0.0
C3501 C 0.7262 0.68108 0.7229 0.0
C3502 C 0.73642 0.68608 0.73435 0.0
C3503 C 0.76628 0.70093 0.76759 0.0
C3504 C 0.75595 0.69576 0.75614 0.0
H3505 H 0.70247 0.68737 0.70828 0.0
H3506 H 0.71909 0.69534 0.72729 0.0
H3507 H 0.73152 0.66599 0.74133 0.0
H3508 H 0.78753 0.69277 0.78487 0.0
H3509 H 0.77092 0.68445 0.76608 0.0
C3510 C 0.69538 0.64339 0.63911 0.0
C3511 C 0.70126 0.65762 0.64068 0.0
C3512 C 0.69947 0.63774 0.62857 0.0
C3513 C 0.71621 0.64556 0.59493 0.0
H3514 H 0.72524 0.61757 0.60405 0.0
C3515 C 0.74652 0.63101 0.55819 0.0
C3516 C 0.74319 0.61725 0.55719 0.0
C3517 C 0.74067 0.63533 0.56819 0.0
C3518 C 0.72258 0.62523 0.60126 0.0
H3519 H 0.71588 0.67704 0.63218 0.0
H3520 H 0.7229 0.6672 0.61386 0.0
H3521 H 0.71587 0.62594 0.62164 0.0
H3522 H 0.73064 0.59715 0.56544 0.0
H3523 H 0.72026 0.60464 0.58283 0.0
H3524 H 0.72286 0.64489 0.57458 0.0
C3525 C 0.71511 0.6604 0.62073 0.0
C3526 C 0.71721 0.63002 0.61135 0.0
C3527 C 0.71113 0.66604 0.63131 0.0
C3528 C 0.73363 0.60787 0.5662 0.0
C3529 C 0.72771 0.61217 0.57617 0.0
C3530 C 0.72149 0.64072 0.58483 0.0
C3531 C 0.70941 0.64621 0.6193 0.0
C3532 C 0.71415 0.64038 0.60834 0.0
C3533 C 0.73117 0.62597 0.5773 0.0
C3534 C 0.72492 0.63062 0.5879 0.0
H3535 H 0.68778 0.6366 0.64615 0.0
H3536 H 0.69484 0.62675 0.62765 0.0
H3537 H 0.71375 0.6534 0.59225 0.0
H3538 H 0.75365 0.63844 0.55121 0.0
H3539 H 0.7437 0.64606 0.56885 0.0
C3540 C 0.33297 0.0513 0.6451 0.0
C3541 C 0.34053 0.04486 0.64805 0.0
C3542 C 0.3362 0.05995 0.63382 0.0
C3543 C 0.36435 0.08046 0.61078 0.0
H3544 H 0.33651 0.08052 0.58734 0.0
C3545 C 0.37819 0.11314 0.56226 0.0
C3546 C 0.3705 0.11936 0.55885 0.0
C3547 C 0.37405 0.10341 0.57258 0.0
C3548 C 0.34443 0.08082 0.59392 0.0
H3549 H 0.35648 0.04127 0.64104 0.0
H3550 H 0.36216 0.05632 0.62134 0.0
H3551 H 0.33012 0.0649 0.60657 0.0
H3552 H 0.35201 0.11972 0.5632 0.0
H3553 H 0.3452 0.10339 0.58169 0.0
H3554 H 0.37868 0.09661 0.59857 0.0
C3555 C 0.35407 0.05515 0.62794 0.0
C3556 C 0.34074 0.07182 0.60492 0.0
C3557 C 0.35086 0.04657 0.63921 0.0
C3558 C 0.35835 0.11536 0.56575 0.0
C3559 C 0.35434 0.10581 0.57625 0.0
C3560 C 0.36803 0.08962 0.59998 0.0
C3561 C 0.34687 0.06205 0.62519 0.0
C3562 C 0.35067 0.07155 0.61348 0.0
C3563 C 0.36217 0.09976 0.57987 0.0
C3564 C 0.35814 0.08991 0.59136 0.0
H3565 H 0.32478 0.04987 0.65169 0.0
H3566 H 0.33051 0.06517 0.63201 0.0
H3567 H 0.37225 0.08051 0.61713 0.0
H3568 H 0.38744 0.11582 0.5569 0.0
H3569 H 0.38017 0.09872 0.57477 0.0
C3570 C 0.94729 0.29736 0.63924 0.0
C3571 C 0.95511 0.29093 0.64098 0.0
C3572 C 0.93755 0.29321 0.62862 0.0
C3573 C 0.91694 0.26405 0.6048 0.0
H3574 H 0.91093 0.2906 0.58542 0.0
C3575 C 0.88272 0.25033 0.55599 0.0
C3576 C 0.87357 0.25531 0.55549 0.0
C3577 C 0.89271 0.25477 0.56636 0.0
C3578 C 0.91242 0.28306 0.59083 0.0
H3579 H 0.95894 0.27525 0.63269 0.0
H3580 H 0.94219 0.26826 0.614 0.0
H3581 H 0.92851 0.29826 0.6034 0.0
H3582 H 0.86818 0.26935 0.56504 0.0
H3583 H 0.8857 0.27714 0.58321 0.0
H3584 H 0.90094 0.24888 0.59207 0.0
C3585 C 0.94338 0.2763 0.62104 0.0
C3586 C 0.92248 0.28744 0.60115 0.0
C3587 C 0.95306 0.28039 0.63171 0.0
C3588 C 0.87493 0.26516 0.56534 0.0
C3589 C 0.88501 0.26968 0.57565 0.0
C3590 C 0.90696 0.25969 0.59441 0.0
C3591 C 0.93543 0.2826 0.61941 0.0
C3592 C 0.92485 0.27798 0.60829 0.0
C3593 C 0.89395 0.26447 0.57632 0.0
C3594 C 0.90457 0.26914 0.58733 0.0
H3595 H 0.94852 0.30546 0.64622 0.0
H3596 H 0.93149 0.29816 0.62782 0.0
H3597 H 0.91829 0.25645 0.61025 0.0
H3598 H 0.88216 0.24301 0.54832 0.0
H3599 H 0.89962 0.25075 0.56646 0.0
C3600 C 0.33707 0.28777 0.64494 0.0
C3601 C 0.34259 0.30182 0.64731 0.0
C3602 C 0.34179 0.28299 0.63418 0.0
C3603 C 0.35859 0.29299 0.60082 0.0
H3604 H 0.36771 0.26456 0.60722 0.0
C3605 C 0.37287 0.26889 0.55626 0.0
C3606 C 0.38431 0.26744 0.55845 0.0
C3607 C 0.36702 0.27203 0.56726 0.0
C3608 C 0.36523 0.27253 0.6053 0.0
H3609 H 0.35643 0.32191 0.63984 0.0
H3610 H 0.36469 0.31363 0.621 0.0
H3611 H 0.35905 0.2724 0.62612 0.0
H3612 H 0.39867 0.26821 0.57386 0.0
H3613 H 0.3884 0.27363 0.59315 0.0
H3614 H 0.36492 0.29331 0.58011 0.0
C3615 C 0.35693 0.30627 0.62755 0.0
C3616 C 0.36017 0.27692 0.61607 0.0
C3617 C 0.35233 0.31102 0.63839 0.0
C3618 C 0.3897 0.26902 0.57192 0.0
C3619 C 0.38381 0.27211 0.58295 0.0
C3620 C 0.36355 0.28854 0.59005 0.0
C3621 C 0.3518 0.29221 0.6254 0.0
C3622 C 0.35685 0.28725 0.61395 0.0
C3623 C 0.37254 0.27387 0.5807 0.0
C3624 C 0.36695 0.27828 0.59216 0.0
H3625 H 0.3293 0.28052 0.65156 0.0
H3626 H 0.3375 0.2721 0.63264 0.0
H3627 H 0.35603 0.3009 0.59885 0.0
H3628 H 0.36861 0.2679 0.54596 0.0
H3629 H 0.35826 0.27318 0.56521 0.0
C3630 C 0.7085 0.05882 0.63287 0.0
C3631 C 0.71354 0.0497 0.63379 0.0
C3632 C 0.71222 0.06804 0.62208 0.0
C3633 C 0.72357 0.07296 0.58657 0.0
H3634 H 0.734 0.11083 0.59361 0.0
C3635 C 0.73862 0.11107 0.54217 0.0
C3636 C 0.73394 0.12048 0.54267 0.0
C3637 C 0.73764 0.10324 0.55365 0.0
C3638 C 0.73097 0.10026 0.59143 0.0
H3639 H 0.7265 0.04316 0.62406 0.0
H3640 H 0.73281 0.05916 0.60507 0.0
H3641 H 0.72918 0.09547 0.61291 0.0
H3642 H 0.72495 0.1294 0.5557 0.0
H3643 H 0.72278 0.11545 0.5756 0.0
H3644 H 0.72483 0.07751 0.56512 0.0
C3645 C 0.72601 0.05916 0.61276 0.0
C3646 C 0.72826 0.09149 0.6025 0.0
C3647 C 0.72243 0.05004 0.62367 0.0
C3648 C 0.72859 0.12218 0.55502 0.0
C3649 C 0.72746 0.11425 0.56646 0.0
C3650 C 0.72612 0.08168 0.57548 0.0
C3651 C 0.72095 0.06825 0.61188 0.0
C3652 C 0.72445 0.07773 0.60018 0.0
C3653 C 0.73181 0.10454 0.56587 0.0
C3654 C 0.72977 0.09544 0.57775 0.0
H3655 H 0.70169 0.05889 0.64051 0.0
H3656 H 0.70807 0.07485 0.62158 0.0
H3657 H 0.72049 0.06236 0.58447 0.0
H3658 H 0.74287 0.10961 0.53281 0.0
H3659 H 0.74137 0.0961 0.55289 0.0
C3660 C 0.94607 0.67226 0.6435 0.0
C3661 C 0.9536 0.66583 0.64672 0.0
C3662 C 0.93754 0.66812 0.63178 0.0
C3663 C 0.93171 0.65049 0.59809 0.0
H3664 H 0.89429 0.64116 0.60222 0.0
C3665 C 0.89407 0.63058 0.55209 0.0
C3666 C 0.88178 0.6187 0.55452 0.0
C3667 C 0.90268 0.63814 0.56309 0.0
C3668 C 0.90472 0.64376 0.60092 0.0
H3669 H 0.95921 0.65105 0.63982 0.0
H3670 H 0.94443 0.64384 0.61933 0.0
H3671 H 0.91024 0.6513 0.62174 0.0
H3672 H 0.86883 0.60542 0.57034 0.0
H3673 H 0.88384 0.61869 0.5896 0.0
H3674 H 0.9262 0.64268 0.57742 0.0
C3675 C 0.94486 0.65187 0.6259 0.0
C3676 C 0.91386 0.64966 0.61204 0.0
C3677 C 0.95319 0.65587 0.63767 0.0
C3678 C 0.87813 0.61468 0.56819 0.0
C3679 C 0.88671 0.62229 0.5792 0.0
C3680 C 0.92263 0.64472 0.58695 0.0
C3681 C 0.93679 0.6578 0.62292 0.0
C3682 C 0.9274 0.65285 0.6108 0.0
C3683 C 0.8992 0.63395 0.57675 0.0
C3684 C 0.90899 0.64111 0.5883 0.0
H3685 H 0.9465 0.68018 0.65025 0.0
H3686 H 0.93154 0.67295 0.62963 0.0
H3687 H 0.94211 0.65294 0.5968 0.0
H3688 H 0.89719 0.6338 0.54165 0.0
H3689 H 0.91219 0.64714 0.56088 0.0
C3690 C 0.96222 0.69351 0.70912 0.0
C3691 C 0.95542 0.67924 0.70735 0.0
C3692 C 0.959 0.69957 0.72 0.0
C3693 C 0.94552 0.69282 0.75468 0.0
H3694 H 0.93828 0.7226 0.74888 0.0
C3695 C 0.92781 0.71365 0.79927 0.0
C3696 C 0.93291 0.72779 0.80016 0.0
C3697 C 0.92975 0.70769 0.78745 0.0
C3698 C 0.94045 0.71442 0.75074 0.0
H3699 H 0.9399 0.66017 0.71566 0.0
H3700 H 0.93452 0.67076 0.73475 0.0
H3701 H 0.94375 0.7126 0.72927 0.0
H3702 H 0.94343 0.7467 0.78908 0.0
H3703 H 0.94738 0.73646 0.7687 0.0
H3704 H 0.94272 0.69481 0.77612 0.0
C3705 C 0.94228 0.67723 0.72767 0.0
C3706 C 0.94354 0.70867 0.73948 0.0
C3707 C 0.94533 0.67119 0.71669 0.0
C3708 C 0.93956 0.73579 0.78876 0.0
C3709 C 0.94169 0.72987 0.77702 0.0
C3710 C 0.94264 0.69867 0.76595 0.0
C3711 C 0.94909 0.69147 0.72945 0.0
C3712 C 0.94603 0.69777 0.74134 0.0
C3713 C 0.93699 0.71575 0.77628 0.0
C3714 C 0.93998 0.70951 0.76415 0.0
H3715 H 0.97 0.70001 0.70207 0.0
H3716 H 0.96446 0.71057 0.7212 0.0
H3717 H 0.94759 0.68454 0.75643 0.0
H3718 H 0.92245 0.70719 0.8078 0.0
H3719 H 0.92562 0.69674 0.78714 0.0
C3720 C 0.31355 0.28276 0.70674 0.0
C3721 C 0.32764 0.29139 0.70653 0.0
C3722 C 0.30766 0.27331 0.71723 0.0
C3723 C 0.31307 0.26707 0.75301 0.0
H3724 H 0.28594 0.22959 0.74465 0.0
C3725 C 0.29026 0.22779 0.79615 0.0
C3726 C 0.27636 0.21845 0.79521 0.0
C3727 C 0.29699 0.23593 0.78496 0.0
C3728 C 0.29337 0.24005 0.7472 0.0
H3729 H 0.34657 0.29681 0.71722 0.0
H3730 H 0.33622 0.28045 0.73566 0.0
H3731 H 0.29659 0.24542 0.72588 0.0
H3732 H 0.25867 0.20992 0.78165 0.0
H3733 H 0.27023 0.22446 0.76228 0.0
H3734 H 0.30961 0.26196 0.77428 0.0
C3735 C 0.32977 0.281 0.72766 0.0
C3736 C 0.2995 0.2491 0.73642 0.0
C3737 C 0.33569 0.29033 0.71706 0.0
C3738 C 0.26939 0.21712 0.78269 0.0
C3739 C 0.27606 0.22538 0.77155 0.0
C3740 C 0.30683 0.25809 0.76378 0.0
C3741 C 0.3157 0.2724 0.72785 0.0
C3742 C 0.30939 0.2627 0.73923 0.0
C3743 C 0.28993 0.23503 0.77259 0.0
C3744 C 0.29687 0.24445 0.76104 0.0
H3745 H 0.30705 0.28326 0.69876 0.0
H3746 H 0.29677 0.26688 0.71719 0.0
H3747 H 0.32054 0.27755 0.75547 0.0
H3748 H 0.29592 0.22894 0.80563 0.0
H3749 H 0.30772 0.243 0.78606 0.0
C3750 C 0.72726 0.05431 0.69622 0.0
C3751 C 0.71809 0.04043 0.69388 0.0
C3752 C 0.73641 0.05848 0.70742 0.0
C3753 C 0.7411 0.0476 0.74171 0.0
H3754 H 0.77909 0.07355 0.73712 0.0
C3755 C 0.77791 0.06833 0.7883 0.0
C3756 C 0.79027 0.06852 0.78693 0.0
C3757 C 0.76955 0.06622 0.77677 0.0
C3758 C 0.76852 0.06628 0.73855 0.0
H3759 H 0.71044 0.0201 0.70178 0.0
H3760 H 0.72639 0.02731 0.72135 0.0
H3761 H 0.76343 0.06694 0.71727 0.0
H3762 H 0.80359 0.06669 0.7724 0.0
H3763 H 0.78898 0.063 0.75219 0.0
H3764 H 0.74613 0.04665 0.76284 0.0
C3765 C 0.72674 0.03499 0.71447 0.0
C3766 C 0.75954 0.06259 0.72722 0.0
C3767 C 0.71772 0.03084 0.70321 0.0
C3768 C 0.79422 0.06681 0.77372 0.0
C3769 C 0.78586 0.06472 0.76216 0.0
C3770 C 0.75003 0.05132 0.75301 0.0
C3771 C 0.73623 0.04884 0.71666 0.0
C3772 C 0.74576 0.05315 0.72868 0.0
C3773 C 0.77332 0.06416 0.7636 0.0
C3774 C 0.76385 0.06066 0.75157 0.0
H3775 H 0.72746 0.06188 0.68928 0.0
H3776 H 0.74349 0.06925 0.70898 0.0
H3777 H 0.73052 0.04037 0.74318 0.0
H3778 H 0.77456 0.06949 0.79837 0.0
H3779 H 0.76003 0.06601 0.7782 0.0
C3780 C 0.0476 0.34341 0.03081 0.0
C3781 C 0.03561 0.33535 0.02315 0.0
C3782 C 0.0533 0.33734 0.03901 0.0
C3783 C 0.04428 0.30442 0.05574 0.0
H3784 H 0.08297 0.32178 0.06247 0.0
C3785 C 0.06728 0.27283 0.09068 0.0
C3786 C 0.08397 0.28488 0.09881 0.0
C3787 C 0.06083 0.28053 0.07881 0.0
C3788 C 0.07214 0.31688 0.06074 0.0
H3789 H 0.02054 0.31459 0.01756 0.0
H3790 H 0.03076 0.304 0.03137 0.0
H3791 H 0.07396 0.33183 0.04623 0.0
H3792 H 0.09931 0.31019 0.10673 0.0
H3793 H 0.08726 0.32113 0.08788 0.0
H3794 H 0.04257 0.28935 0.07008 0.0
C3795 C 0.03553 0.31501 0.03148 0.0
C3796 C 0.06694 0.32264 0.05147 0.0
C3797 C 0.02971 0.32108 0.02347 0.0
C3798 C 0.09025 0.30353 0.10077 0.0
C3799 C 0.08306 0.31021 0.08854 0.0
C3800 C 0.04951 0.29856 0.06484 0.0
C3801 C 0.04727 0.32305 0.03958 0.0
C3802 C 0.05292 0.31657 0.04893 0.0
C3803 C 0.06893 0.29888 0.07745 0.0
C3804 C 0.06346 0.30481 0.06751 0.0
H3805 H 0.05233 0.35443 0.03088 0.0
H3806 H 0.0622 0.3439 0.04523 0.0
H3807 H 0.03342 0.29958 0.05434 0.0
H3808 H 0.0633 0.26192 0.09065 0.0
H3809 H 0.05213 0.27406 0.07231 0.0
C3810 C 0.66976 0.69925 0.02836 0.0
C3811 C 0.66643 0.68742 0.03578 0.0
C3812 C 0.6755 0.71195 0.03514 0.0
C3813 C 0.69175 0.72916 0.06902 0.0
H3814 H 0.68668 0.75813 0.05406 0.0
C3815 C 0.71127 0.78344 0.10461 0.0
C3816 C 0.71698 0.79832 0.09308 0.0
C3817 C 0.70278 0.7671 0.09584 0.0
C3818 C 0.68816 0.7501 0.05832 0.0
H3819 H 0.66601 0.67942 0.05608 0.0
H3820 H 0.6751 0.70129 0.06807 0.0
H3821 H 0.67577 0.7358 0.04262 0.0
H3822 H 0.72484 0.8066 0.0682 0.0
H3823 H 0.71174 0.77961 0.05565 0.0
H3824 H 0.70366 0.74347 0.08506 0.0
C3825 C 0.674 0.70106 0.05695 0.0
C3826 C 0.68202 0.7373 0.05171 0.0
C3827 C 0.66865 0.68844 0.05011 0.0
C3828 C 0.72041 0.79759 0.07447 0.0
C3829 C 0.71159 0.78079 0.06672 0.0
C3830 C 0.69753 0.74183 0.07583 0.0
C3831 C 0.67767 0.71306 0.04957 0.0
C3832 C 0.68384 0.72664 0.05686 0.0
C3833 C 0.70258 0.76593 0.07723 0.0
C3834 C 0.69588 0.75241 0.07044 0.0
H3835 H 0.66824 0.69872 0.01726 0.0
H3836 H 0.67844 0.72088 0.02896 0.0
H3837 H 0.69377 0.72146 0.0732 0.0
H3838 H 0.71057 0.78435 0.11565 0.0
H3839 H 0.69775 0.75792 0.10181 0.0
C3840 C 0.3032 0.9823 0.03815 0.0
C3841 C 0.30538 0.97939 0.02462 0.0
C3842 C 0.2905 0.97495 0.04399 0.0
C3843 C 0.26134 0.96381 0.05122 0.0
H3844 H 0.2392 0.92483 0.04489 0.0
C3845 C 0.2068 0.93415 0.07037 0.0
C3846 C 0.20239 0.92117 0.07583 0.0
C3847 C 0.21914 0.94102 0.06373 0.0
C3848 C 0.2453 0.93569 0.04686 0.0
H3849 H 0.29594 0.96644 0.00658 0.0
H3850 H 0.27358 0.9537 0.0167 0.0
H3851 H 0.26121 0.93717 0.03417 0.0
H3852 H 0.20721 0.90491 0.07802 0.0
H3853 H 0.22903 0.9171 0.06686 0.0
H3854 H 0.24574 0.96232 0.06427 0.0
C3855 C 0.28179 0.96156 0.02287 0.0
C3856 C 0.25785 0.9428 0.04055 0.0
C3857 C 0.29457 0.96891 0.01704 0.0
C3858 C 0.21049 0.91505 0.07422 0.0
C3859 C 0.2229 0.92197 0.06765 0.0
C3860 C 0.24887 0.95671 0.05757 0.0
C3861 C 0.2796 0.96454 0.03642 0.0
C3862 C 0.26605 0.95695 0.04271 0.0
C3863 C 0.2274 0.93506 0.06235 0.0
C3864 C 0.24068 0.94256 0.0555 0.0
H3865 H 0.31134 0.99024 0.04433 0.0
H3866 H 0.28929 0.97734 0.05453 0.0
H3867 H 0.26729 0.97473 0.05297 0.0
H3868 H 0.2006 0.93894 0.07113 0.0
H3869 H 0.22211 0.95094 0.0595 0.0
C3870 C 0.34349 0.0471 0.99127 0.0
C3871 C 0.33641 0.03282 0.99243 0.0
C3872 C 0.33752 0.05383 0.98462 0.0
C3873 C 0.31072 0.04809 0.95921 0.0
H3874 H 0.31467 0.08177 0.97452 0.0
C3875 C 0.28049 0.07291 0.93786 0.0
C3876 C 0.2872 0.0872 0.93705 0.0
C3877 C 0.28669 0.06637 0.9444 0.0
C3878 C 0.31361 0.07247 0.97 0.0
H3879 H 0.31737 0.01447 0.98762 0.0
H3880 H 0.30701 0.02623 0.97612 0.0
H3881 H 0.32504 0.07022 0.9865 0.0
H3882 H 0.30552 0.10585 0.94283 0.0
H3883 H 0.31649 0.09443 0.95397 0.0
H3884 H 0.29934 0.05035 0.94268 0.0
C3885 C 0.31723 0.0322 0.98022 0.0
C3886 C 0.31954 0.06584 0.97689 0.0
C3887 C 0.32316 0.02547 0.9869 0.0
C3888 C 0.3002 0.09481 0.94307 0.0
C3889 C 0.30641 0.08827 0.94958 0.0
C3890 C 0.30482 0.05474 0.9523 0.0
C3891 C 0.32437 0.04645 0.97894 0.0
C3892 C 0.31813 0.05355 0.97159 0.0
C3893 C 0.29971 0.07396 0.95038 0.0
C3894 C 0.30617 0.067 0.95762 0.0
H3895 H 0.35369 0.05311 0.9954 0.0
H3896 H 0.34333 0.06481 0.9837 0.0
H3897 H 0.30963 0.03875 0.95474 0.0
H3898 H 0.27035 0.06681 0.93359 0.0
H3899 H 0.28113 0.05536 0.94505 0.0
C3900 C 0.99058 0.29837 0.97972 0.0
C3901 C 0.98379 0.30407 0.98667 0.0
C3902 C 0.98337 0.28632 0.97198 0.0
C3903 C 0.94826 0.25798 0.9631 0.0
H3904 H 0.96607 0.2558 0.93016 0.0
C3905 C 0.91412 0.21693 0.91382 0.0
C3906 C 0.92266 0.20703 0.90902 0.0
C3907 C 0.92322 0.23027 0.92652 0.0
C3908 C 0.96101 0.2562 0.93939 0.0
H3909 H 0.9642 0.30164 0.99132 0.0
H3910 H 0.95153 0.28103 0.9771 0.0
H3911 H 0.97806 0.27483 0.94618 0.0
H3912 H 0.94615 0.20867 0.90692 0.0
H3913 H 0.95983 0.23104 0.92652 0.0
H3914 H 0.93089 0.23962 0.95556 0.0
C3915 C 0.96239 0.28547 0.97799 0.0
C3916 C 0.96792 0.26708 0.94869 0.0
C3917 C 0.96963 0.29733 0.98612 0.0
C3918 C 0.94122 0.21407 0.91085 0.0
C3919 C 0.9494 0.22752 0.92359 0.0
C3920 C 0.94123 0.24726 0.95355 0.0
C3921 C 0.96919 0.27995 0.97055 0.0
C3922 C 0.96171 0.26812 0.96077 0.0
C3923 C 0.94036 0.23508 0.93159 0.0
C3924 C 0.94761 0.24628 0.94169 0.0
H3925 H 0.00151 0.30334 0.98015 0.0
H3926 H 0.989 0.28219 0.9669 0.0
H3927 H 0.94315 0.25822 0.97233 0.0
H3928 H 0.90355 0.21326 0.91143 0.0
H3929 H 0.91837 0.23549 0.93107 0.0
C3930 C 0.68978 0.67211 0.98676 0.0
C3931 C 0.6867 0.66038 0.99432 0.0
C3932 C 0.70201 0.679 0.97984 0.0
C3933 C 0.73669 0.68673 0.98106 0.0
H3934 H 0.73707 0.69008 0.94123 0.0
C3935 C 0.78522 0.71897 0.95019 0.0
C3936 C 0.78778 0.71134 0.94033 0.0
C3937 C 0.77266 0.71348 0.95643 0.0
C3938 C 0.73706 0.68926 0.95236 0.0
H3939 H 0.69411 0.64683 0.00076 0.0
H3940 H 0.71563 0.65917 0.98908 0.0
H3941 H 0.71541 0.67931 0.95318 0.0
H3942 H 0.77898 0.69185 0.92932 0.0
H3943 H 0.75686 0.68254 0.93985 0.0
H3944 H 0.75831 0.69679 0.98028 0.0
C3945 C 0.70848 0.66287 0.98836 0.0
C3946 C 0.72474 0.68318 0.95916 0.0
C3947 C 0.69616 0.6558 0.99499 0.0
C3948 C 0.77735 0.69813 0.93669 0.0
C3949 C 0.76468 0.69277 0.94271 0.0
C3950 C 0.749 0.69308 0.9743 0.0
C3951 C 0.71147 0.67446 0.98067 0.0
C3952 C 0.72447 0.68172 0.97354 0.0
C3953 C 0.76231 0.70033 0.95276 0.0
C3954 C 0.74927 0.69425 0.95989 0.0
H3955 H 0.68266 0.67584 0.98602 0.0
H3956 H 0.70416 0.68796 0.97397 0.0
H3957 H 0.73669 0.68569 0.99216 0.0
H3958 H 0.79308 0.72911 0.95327 0.0
H3959 H 0.77103 0.71947 0.96418 0.0
C3960 C 0.96436 0.67356 0.00188 0.0
C3961 C 0.97708 0.67711 0.9966 0.0
C3962 C 0.95672 0.67908 0.99629 0.0
C3963 C 0.95983 0.70819 0.97665 0.0
H3964 H 0.92181 0.68454 0.96776 0.0
C3965 C 0.92882 0.72786 0.94686 0.0
C3966 C 0.91549 0.72324 0.95101 0.0
C3967 C 0.93617 0.72187 0.95199 0.0
C3968 C 0.93237 0.69132 0.97033 0.0
H3969 H 0.99186 0.68933 0.98144 0.0
H3970 H 0.97861 0.699 0.9718 0.0
H3971 H 0.93492 0.67498 0.97807 0.0
H3972 H 0.89959 0.70905 0.96407 0.0
H3973 H 0.91245 0.69874 0.97324 0.0
H3974 H 0.95731 0.72458 0.96917 0.0
C3975 C 0.97453 0.69198 0.98026 0.0
C3976 C 0.93988 0.68583 0.97623 0.0
C3977 C 0.98209 0.68639 0.98574 0.0
C3978 C 0.90973 0.7126 0.96047 0.0
C3979 C 0.9171 0.70667 0.96568 0.0
C3980 C 0.95231 0.71371 0.97086 0.0
C3981 C 0.96175 0.68835 0.98542 0.0
C3982 C 0.95369 0.6942 0.97941 0.0
C3983 C 0.93045 0.71129 0.96158 0.0
C3984 C 0.93849 0.70535 0.96759 0.0
H3985 H 0.96023 0.66644 0.01024 0.0
H3986 H 0.94695 0.67618 0.00056 0.0
H3987 H 0.97042 0.71492 0.97915 0.0
H3988 H 0.93362 0.73622 0.93978 0.0
H3989 H 0.94637 0.72558 0.94848 0.0
C3990 C 0.34955 0.31071 0.97874 0.0
C3991 C 0.34355 0.31882 0.98124 0.0
C3992 C 0.3421 0.29781 0.97254 0.0
C3993 C 0.31176 0.27567 0.95141 0.0
H3994 H 0.3135 0.24642 0.97035 0.0
C3995 C 0.27405 0.21851 0.93997 0.0
C3996 C 0.27866 0.2091 0.94161 0.0
C3997 C 0.2825 0.23231 0.94335 0.0
C3998 C 0.31306 0.25446 0.96473 0.0
H3999 H 0.3251 0.31987 0.97863 0.0
H4000 H 0.31214 0.29733 0.96768 0.0
H4001 H 0.32729 0.26977 0.9787 0.0
H4002 H 0.29598 0.2069 0.94714 0.0
H4003 H 0.31089 0.23099 0.95252 0.0
H4004 H 0.29757 0.26034 0.93736 0.0
C4005 C 0.32262 0.30101 0.97057 0.0
C4006 C 0.32095 0.26786 0.96958 0.0
C4007 C 0.33004 0.31389 0.97691 0.0
C4008 C 0.2921 0.21389 0.94596 0.0
C4009 C 0.3006 0.22769 0.94915 0.0
C4010 C 0.30394 0.26224 0.94645 0.0
C4011 C 0.32851 0.29274 0.96856 0.0
C4012 C 0.32035 0.2786 0.96302 0.0
C4013 C 0.29581 0.23703 0.94825 0.0
C4014 C 0.30446 0.25144 0.95308 0.0
H4015 H 0.35992 0.31415 0.98191 0.0
H4016 H 0.34694 0.29172 0.97097 0.0
H4017 H 0.31118 0.28378 0.94609 0.0
H4018 H 0.26377 0.2151 0.9365 0.0
H4019 H 0.27841 0.23915 0.94259 0.0
C4020 C 0.70793 0.03778 0.0047 0.0
C4021 C 0.6968 0.02835 0.99662 0.0
C4022 C 0.72074 0.0451 0.99887 0.0
C4023 C 0.73711 0.05689 0.9656 0.0
H4024 H 0.76737 0.05441 0.9812 0.0
C4025 C 0.78158 0.06513 0.93264 0.0
C4026 C 0.79473 0.07188 0.93839 0.0
C4027 C 0.77043 0.06165 0.94086 0.0
C4028 C 0.75911 0.05544 0.97684 0.0
H4029 H 0.69026 0.01937 0.9761 0.0
H4030 H 0.71238 0.03221 0.96599 0.0
H4031 H 0.74636 0.04552 0.99395 0.0
H4032 H 0.8065 0.08008 0.95733 0.0
H4033 H 0.78694 0.07414 0.97177 0.0
H4034 H 0.74963 0.0666 0.94843 0.0
C4035 C 0.71129 0.03395 0.97679 0.0
C4036 C 0.7471 0.05035 0.98415 0.0
C4037 C 0.69864 0.02653 0.98262 0.0
C4038 C 0.79647 0.07494 0.95262 0.0
C4039 C 0.78528 0.07148 0.96088 0.0
C4040 C 0.7491 0.06205 0.95837 0.0
C4041 C 0.72248 0.04327 0.98483 0.0
C4042 C 0.73587 0.05066 0.97838 0.0
C4043 C 0.77213 0.06486 0.95507 0.0
C4044 C 0.7601 0.06099 0.96367 0.0
H4045 H 0.70679 0.03935 0.01553 0.0
H4046 H 0.72924 0.05223 0.00527 0.0
H4047 H 0.72864 0.05743 0.96102 0.0
H4048 H 0.77993 0.06254 0.92173 0.0
H4049 H 0.76045 0.05626 0.93609 0.0
C4050 C 0.67736 0.98314 0.03958 0.0
C4051 C 0.66721 0.97574 0.02955 0.0
C4052 C 0.68369 0.977 0.04661 0.0
C4053 C 0.69369 0.95142 0.04398 0.0
H4054 H 0.69244 0.95038 0.08392 0.0
C4055 C 0.7157 0.92332 0.07551 0.0
C4056 C 0.72177 0.92889 0.08844 0.0
C4057 C 0.70871 0.92861 0.06817 0.0
C4058 C 0.69313 0.95078 0.07279 0.0
H4059 H 0.65594 0.95623 0.0188 0.0
H4060 H 0.66741 0.94564 0.03086 0.0
H4061 H 0.6813 0.96076 0.07123 0.0
H4062 H 0.7246 0.94401 0.10409 0.0
H4063 H 0.71331 0.95382 0.09101 0.0
H4064 H 0.706 0.94204 0.04542 0.0
C4065 C 0.67026 0.95612 0.03335 0.0
C4066 C 0.68664 0.95663 0.06555 0.0
C4067 C 0.66369 0.96215 0.02652 0.0
C4068 C 0.72044 0.93972 0.09398 0.0
C4069 C 0.7137 0.94519 0.08655 0.0
C4070 C 0.70044 0.94582 0.05123 0.0
C4071 C 0.68021 0.96346 0.04354 0.0
C4072 C 0.68688 0.95701 0.0511 0.0
C4073 C 0.70767 0.93968 0.07356 0.0
C4074 C 0.70029 0.94544 0.06575 0.0
H4075 H 0.68024 0.9936 0.04218 0.0
H4076 H 0.69138 0.98285 0.0544 0.0
H4077 H 0.69407 0.95171 0.03282 0.0
H4078 H 0.71624 0.91473 0.07113 0.0
H4079 H 0.70395 0.92385 0.05838 0.0
C4080 C 0.02121 0.70293 0.03732 0.0
C4081 C 0.02895 0.69771 0.03135 0.0
C4082 C 0.02747 0.71593 0.04347 0.0
C4083 C 0.05862 0.74888 0.04224 0.0
H4084 H 0.0467 0.75646 0.07682 0.0
C4085 C 0.08567 0.80265 0.06674 0.0
C4086 C 0.07748 0.80749 0.07229 0.0
C4087 C 0.08021 0.78889 0.06312 0.0
C4088 C 0.05006 0.75454 0.0671 0.0
H4089 H 0.04943 0.70208 0.02739 0.0
H4090 H 0.06031 0.72475 0.03808 0.0
H4091 H 0.03617 0.73306 0.06781 0.0
H4092 H 0.05725 0.80171 0.07879 0.0
H4093 H 0.04758 0.7777 0.07215 0.0
H4094 H 0.07223 0.7703 0.04125 0.0
C4095 C 0.04938 0.71878 0.03793 0.0
C4096 C 0.04405 0.74113 0.06196 0.0
C4097 C 0.04313 0.70575 0.03187 0.0
C4098 C 0.06378 0.79822 0.07453 0.0
C4099 C 0.05828 0.78446 0.0708 0.0
C4100 C 0.06456 0.76227 0.04732 0.0
C4101 C 0.04162 0.72405 0.0437 0.0
C4102 C 0.04824 0.73817 0.04946 0.0
C4103 C 0.06639 0.77966 0.06483 0.0
C4104 C 0.06034 0.76529 0.05979 0.0
H4105 H 0.01027 0.69703 0.03714 0.0
H4106 H 0.02123 0.71977 0.04773 0.0
H4107 H 0.06191 0.74695 0.03247 0.0
H4108 H 0.09627 0.80956 0.06496 0.0
H4109 H 0.08681 0.78551 0.05883 0.0
C4110 C 0.30656 0.34056 0.01952 0.0
C4111 C 0.3164 0.33714 0.02359 0.0
C4112 C 0.29401 0.33461 0.02587 0.0
C4113 C 0.27077 0.30463 0.04578 0.0
H4114 H 0.25479 0.32683 0.05583 0.0
C4115 C 0.22148 0.28275 0.07642 0.0
C4116 C 0.21198 0.28659 0.07218 0.0
C4117 C 0.23457 0.28935 0.07127 0.0
C4118 C 0.25905 0.32046 0.05298 0.0
H4119 H 0.32078 0.32478 0.03749 0.0
H4120 H 0.29891 0.31441 0.04854 0.0
H4121 H 0.27681 0.33739 0.04502 0.0
H4122 H 0.20865 0.3001 0.059 0.0
H4123 H 0.23141 0.31154 0.04989 0.0
H4124 H 0.25296 0.28767 0.05354 0.0
C4125 C 0.30085 0.32162 0.04039 0.0
C4126 C 0.27167 0.32652 0.04678 0.0
C4127 C 0.31341 0.32761 0.03409 0.0
C4128 C 0.21585 0.29713 0.06266 0.0
C4129 C 0.2289 0.3037 0.05748 0.0
C4130 C 0.25813 0.29857 0.05193 0.0
C4131 C 0.29101 0.32506 0.03637 0.0
C4132 C 0.27765 0.31866 0.04307 0.0
C4133 C 0.2384 0.29983 0.06164 0.0
C4134 C 0.25208 0.30639 0.05556 0.0
H4135 H 0.30856 0.34786 0.01145 0.0
H4136 H 0.28658 0.33735 0.02243 0.0
H4137 H 0.27503 0.29827 0.04289 0.0
H4138 H 0.21871 0.2745 0.08357 0.0
H4139 H 0.24166 0.28619 0.07479 0.0
C4140 C 0.68758 0.65548 0.3684 0.0
C4141 C 0.69286 0.66965 0.3696 0.0
C4142 C 0.69334 0.64906 0.37597 0.0
C4143 C 0.72473 0.65664 0.39569 0.0
H4144 H 0.70228 0.62026 0.4096 0.0
C4145 C 0.75118 0.63428 0.43831 0.0
C4146 C 0.74632 0.61642 0.43334 0.0
C4147 C 0.74283 0.64146 0.42834 0.0
C4148 C 0.70869 0.63036 0.40566 0.0
H4149 H 0.70808 0.68813 0.37998 0.0
H4150 H 0.71777 0.67692 0.39353 0.0
H4151 H 0.69189 0.63116 0.39651 0.0
H4152 H 0.72675 0.59383 0.42291 0.0
H4153 H 0.71364 0.60654 0.40839 0.0
H4154 H 0.74146 0.65591 0.40519 0.0
C4155 C 0.70949 0.67078 0.38641 0.0
C4156 C 0.70274 0.63662 0.39812 0.0
C4157 C 0.70386 0.67722 0.37871 0.0
C4158 C 0.72988 0.60447 0.4247 0.0
C4159 C 0.72221 0.61263 0.4152 0.0
C4160 C 0.73062 0.65045 0.4034 0.0
C4161 C 0.7044 0.65663 0.38506 0.0
C4162 C 0.71069 0.64987 0.39304 0.0
C4163 C 0.72893 0.63086 0.41665 0.0
C4164 C 0.72265 0.63728 0.40845 0.0
H4165 H 0.67918 0.64938 0.36139 0.0
H4166 H 0.68927 0.63819 0.37447 0.0
H4167 H 0.73125 0.66669 0.39169 0.0
H4168 H 0.76014 0.64068 0.44452 0.0
H4169 H 0.74621 0.65223 0.4294 0.0
C4170 C 0.32619 0.02908 0.36687 0.0
C4171 C 0.3304 0.01973 0.37063 0.0
C4172 C 0.33253 0.04226 0.37262 0.0
C4173 C 0.35468 0.06291 0.4022 0.0
H4174 H 0.3596 0.09328 0.37982 0.0
C4175 C 0.39255 0.12265 0.42586 0.0
C4176 C 0.38482 0.13352 0.42222 0.0
C4177 C 0.38353 0.10574 0.41836 0.0
C4178 C 0.35814 0.08489 0.38627 0.0
H4179 H 0.34473 0.01696 0.3832 0.0
H4180 H 0.35609 0.04007 0.39294 0.0
H4181 H 0.34874 0.07039 0.36971 0.0
H4182 H 0.3702 0.13783 0.4042 0.0
H4183 H 0.35721 0.11057 0.39229 0.0
H4184 H 0.36436 0.07754 0.41866 0.0
C4185 C 0.34765 0.03714 0.38581 0.0
C4186 C 0.3519 0.07173 0.38047 0.0
C4187 C 0.34121 0.02391 0.38015 0.0
C4188 C 0.37357 0.13069 0.40691 0.0
C4189 C 0.36516 0.1135 0.40002 0.0
C4190 C 0.36104 0.0761 0.40795 0.0
C4191 C 0.34335 0.04648 0.38218 0.0
C4192 C 0.35007 0.06054 0.38836 0.0
C4193 C 0.36978 0.10116 0.40604 0.0
C4194 C 0.36282 0.0872 0.40004 0.0
H4195 H 0.31782 0.02615 0.35963 0.0
H4196 H 0.32877 0.04905 0.36973 0.0
H4197 H 0.35322 0.05454 0.4087 0.0
H4198 H 0.39998 0.12513 0.43408 0.0
H4199 H 0.38645 0.09831 0.42125 0.0
C4200 C 0.96937 0.29783 0.34936 0.0
C4201 C 0.97975 0.30942 0.35614 0.0
C4202 C 0.95656 0.29067 0.35509 0.0
C4203 C 0.93465 0.29383 0.38134 0.0
H4204 H 0.91465 0.25443 0.37749 0.0
C4205 C 0.8835 0.24411 0.4033 0.0
C4206 C 0.8747 0.24952 0.40324 0.0
C4207 C 0.89647 0.25154 0.39796 0.0
C4208 C 0.92015 0.26541 0.37882 0.0
H4209 H 0.98485 0.32258 0.37426 0.0
H4210 H 0.96266 0.30993 0.38444 0.0
H4211 H 0.93695 0.26711 0.36765 0.0
H4212 H 0.87237 0.26662 0.39696 0.0
H4213 H 0.89481 0.27944 0.38732 0.0
H4214 H 0.91808 0.29209 0.39296 0.0
C4215 C 0.96427 0.30651 0.37453 0.0
C4216 C 0.93288 0.27273 0.37297 0.0
C4217 C 0.97703 0.31374 0.36873 0.0
C4218 C 0.87906 0.26237 0.39745 0.0
C4219 C 0.89195 0.26972 0.39198 0.0
C4220 C 0.92198 0.2865 0.3873 0.0
C4221 C 0.95385 0.29485 0.36781 0.0
C4222 C 0.94029 0.28704 0.3741 0.0
C4223 C 0.90085 0.26442 0.39216 0.0
C4224 C 0.91451 0.2722 0.38608 0.0
H4225 H 0.97113 0.29428 0.3396 0.0
H4226 H 0.94874 0.2819 0.34948 0.0
H4227 H 0.93996 0.30484 0.3823 0.0
H4228 H 0.88035 0.23411 0.40742 0.0
H4229 H 0.90306 0.24717 0.39842 0.0
C4230 C 0.99978 0.35421 0.31555 0.0
C4231 C 0.01317 0.35689 0.31452 0.0
C4232 C 0.9954 0.362 0.30816 0.0
C4233 C 0.00448 0.38665 0.27965 0.0
H4234 H 0.98976 0.40405 0.30291 0.0
C4235 C 0.0123 0.44 0.26926 0.0
C4236 C 0.00206 0.44302 0.27251 0.0
C4237 C 0.01084 0.42725 0.27221 0.0
C4238 C 0.99358 0.39911 0.29615 0.0
H4239 H 0.03216 0.3691 0.30427 0.0
H4240 H 0.02454 0.38251 0.2914 0.0
H4241 H 0.99172 0.38491 0.31164 0.0
H4242 H 0.98227 0.43507 0.28137 0.0
H4243 H 0.97964 0.41269 0.28644 0.0
H4244 H 0.00682 0.40118 0.26434 0.0
C4245 C 0.0174 0.37448 0.29788 0.0
C4246 C 0.99468 0.3881 0.30115 0.0
C4247 C 0.02181 0.36687 0.30536 0.0
C4248 C 0.99026 0.43295 0.27863 0.0
C4249 C 0.98879 0.42019 0.2816 0.0
C4250 C 0.00335 0.39763 0.27463 0.0
C4251 C 0.00428 0.3724 0.29946 0.0
C4252 C 0.00057 0.38207 0.29313 0.0
C4253 C 0.99914 0.41725 0.27859 0.0
C4254 C 0.99831 0.40427 0.283 0.0
H4255 H 0.99291 0.34659 0.32256 0.0
H4256 H 0.9852 0.36014 0.30952 0.0
H4257 H 0.00888 0.38206 0.27316 0.0
H4258 H 0.0216 0.44765 0.26476 0.0
H4259 H 0.01913 0.42544 0.27001 0.0
C4260 C 0.63774 0.62874 0.33276 0.0
C4261 C 0.64607 0.64058 0.32549 0.0
C4262 C 0.63074 0.61612 0.32584 0.0
C4263 C 0.62904 0.59911 0.29174 0.0
H4264 H 0.59511 0.57086 0.30591 0.0
C4265 C 0.59239 0.54664 0.25447 0.0
C4266 C 0.58286 0.53149 0.26547 0.0
C4267 C 0.60105 0.56264 0.26382 0.0
C4268 C 0.60459 0.57868 0.30189 0.0
H4269 H 0.65337 0.6487 0.30532 0.0
H4270 H 0.64054 0.62701 0.29308 0.0
H4271 H 0.6071 0.59287 0.31792 0.0
H4272 H 0.58232 0.52199 0.28995 0.0
H4273 H 0.59747 0.54844 0.30345 0.0
H4274 H 0.62601 0.58496 0.27532 0.0
C4275 C 0.63983 0.62715 0.30419 0.0
C4276 C 0.61157 0.59129 0.30882 0.0
C4277 C 0.64713 0.63966 0.31118 0.0
C4278 C 0.58718 0.53121 0.28401 0.0
C4279 C 0.59598 0.54773 0.29237 0.0
C4280 C 0.62183 0.58665 0.28461 0.0
C4281 C 0.63159 0.61513 0.31141 0.0
C4282 C 0.62398 0.60169 0.30392 0.0
C4283 C 0.60233 0.56309 0.28243 0.0
C4284 C 0.60963 0.57634 0.28969 0.0
H4285 H 0.63684 0.62919 0.34384 0.0
H4286 H 0.62481 0.60716 0.3319 0.0
H4287 H 0.63868 0.60659 0.28776 0.0
H4288 H 0.59062 0.54624 0.24344 0.0
H4289 H 0.60547 0.57207 0.2582 0.0
C4290 C 0.35124 0.99644 0.32799 0.0
C4291 C 0.34016 0.98313 0.32724 0.0
C4292 C 0.36272 0.99992 0.32015 0.0
C4293 C 0.37995 0.98304 0.30452 0.0
H4294 H 0.40194 0.01746 0.28657 0.0
C4295 C 0.42556 0.9918 0.27268 0.0
C4296 C 0.43736 0.00453 0.27425 0.0
C4297 C 0.41334 0.98978 0.27791 0.0
C4298 C 0.39595 0.00784 0.29163 0.0
H4299 H 0.33191 0.96342 0.31686 0.0
H4300 H 0.35168 0.96953 0.30309 0.0
H4301 H 0.38115 0.01324 0.29784 0.0
H4302 H 0.44571 0.02497 0.28282 0.0
H4303 H 0.42443 0.02138 0.2922 0.0
H4304 H 0.39472 0.97765 0.29864 0.0
C4305 C 0.35175 0.97717 0.31 0.0
C4306 C 0.38405 0.00543 0.29807 0.0
C4307 C 0.3404 0.97369 0.31786 0.0
C4308 C 0.43669 0.01515 0.28122 0.0
C4309 C 0.4245 0.0131 0.28654 0.0
C4310 C 0.3918 0.98544 0.29815 0.0
C4311 C 0.36322 0.99015 0.31141 0.0
C4312 C 0.37589 0.99296 0.30451 0.0
C4313 C 0.4127 0.00035 0.28507 0.0
C4314 C 0.39994 0.99784 0.29158 0.0
H4315 H 0.35133 0.00391 0.33515 0.0
H4316 H 0.37143 0.01001 0.32145 0.0
H4317 H 0.37406 0.97345 0.30968 0.0
H4318 H 0.4258 0.98335 0.26756 0.0
H4319 H 0.40442 0.97987 0.27646 0.0
C4320 C 0.64729 0.99561 0.31425 0.0
C4321 C 0.64439 0.99076 0.32777 0.0
C4322 C 0.63914 0.99981 0.30737 0.0
C4323 C 0.61635 0.01326 0.31236 0.0
H4324 H 0.6017 0.99743 0.2762 0.0
C4325 C 0.5788 0.02505 0.28295 0.0
C4326 C 0.57983 0.02612 0.26854 0.0
C4327 C 0.58624 0.02039 0.2905 0.0
C4328 C 0.60587 0.00215 0.28618 0.0
H4329 H 0.63091 0.9868 0.34483 0.0
H4330 H 0.61683 0.99452 0.33287 0.0
H4331 H 0.61595 0.9905 0.28875 0.0
H4332 H 0.58924 0.02288 0.25072 0.0
H4333 H 0.60272 0.01546 0.26385 0.0
H4334 H 0.60675 0.0253 0.30967 0.0
C4335 C 0.62535 0.99492 0.3276 0.0
C4336 C 0.61396 0.99809 0.29338 0.0
C4337 C 0.63336 0.99047 0.3344 0.0
C4338 C 0.58837 0.02233 0.26183 0.0
C4339 C 0.59596 0.01789 0.26938 0.0
C4340 C 0.60844 0.01751 0.30505 0.0
C4341 C 0.62808 0.99946 0.31397 0.0
C4342 C 0.61931 0.00364 0.30651 0.0
C4343 C 0.59499 0.01681 0.28382 0.0
C4344 C 0.60312 0.01205 0.29182 0.0
H4345 H 0.65571 0.99592 0.30887 0.0
H4346 H 0.6415 0.00337 0.29689 0.0
H4347 H 0.62044 0.01775 0.32244 0.0
H4348 H 0.57218 0.02774 0.28838 0.0
H4349 H 0.585 0.01945 0.30156 0.0
C4350 C 0.00361 0.65203 0.31785 0.0
C4351 C 0.01774 0.66049 0.31871 0.0
C4352 C 0.99794 0.63895 0.31185 0.0
C4353 C 0.00668 0.61216 0.30553 0.0
H4354 H 0.97587 0.59637 0.28017 0.0
C4355 C 0.9932 0.5569 0.27598 0.0
C4356 C 0.97616 0.54838 0.26748 0.0
C4357 C 0.99812 0.57331 0.28366 0.0
C4358 C 0.98435 0.60055 0.28741 0.0
H4359 H 0.0369 0.66209 0.31317 0.0
H4360 H 0.02702 0.63948 0.30273 0.0
H4361 H 0.98436 0.61954 0.28929 0.0
H4362 H 0.95233 0.54619 0.26819 0.0
H4363 H 0.96133 0.57227 0.2818 0.0
H4364 H 0.00667 0.59329 0.3039 0.0
C4365 C 0.02034 0.64281 0.30693 0.0
C4366 C 0.98923 0.61384 0.29258 0.0
C4367 C 0.02599 0.65582 0.31287 0.0
C4368 C 0.96253 0.55209 0.27235 0.0
C4369 C 0.96843 0.56868 0.28018 0.0
C4370 C 0.00178 0.59891 0.30044 0.0
C4371 C 0.00629 0.6341 0.30665 0.0
C4372 C 0.00058 0.61984 0.30154 0.0
C4373 C 0.98604 0.57927 0.28526 0.0
C4374 C 0.99069 0.59302 0.29118 0.0
H4375 H 0.99696 0.65529 0.32225 0.0
H4376 H 0.98707 0.63243 0.31178 0.0
H4377 H 0.01525 0.61639 0.31268 0.0
H4378 H 0.00058 0.55376 0.27394 0.0
H4379 H 0.00852 0.57971 0.28703 0.0
C4380 C 0.36457 0.37637 0.32881 0.0
C4381 C 0.35437 0.36386 0.32329 0.0
C4382 C 0.37712 0.38334 0.32248 0.0
C4383 C 0.39371 0.38617 0.28926 0.0
H4384 H 0.42665 0.40117 0.31157 0.0
C4385 C 0.44573 0.40325 0.26563 0.0
C4386 C 0.45704 0.41485 0.27131 0.0
C4387 C 0.43315 0.3979 0.27182 0.0
C4388 C 0.41756 0.39724 0.30519 0.0
H4389 H 0.34931 0.34887 0.30681 0.0
H4390 H 0.37114 0.36099 0.29582 0.0
H4391 H 0.40482 0.39031 0.32275 0.0
H4392 H 0.46406 0.4299 0.28793 0.0
H4393 H 0.44202 0.42073 0.29862 0.0
H4394 H 0.4064 0.39304 0.2717 0.0
C4395 C 0.36944 0.36549 0.30495 0.0
C4396 C 0.40505 0.391 0.31161 0.0
C4397 C 0.35695 0.3585 0.31131 0.0
C4398 C 0.45549 0.42101 0.28328 0.0
C4399 C 0.4429 0.41568 0.28945 0.0
C4400 C 0.40621 0.39245 0.28285 0.0
C4401 C 0.37967 0.37798 0.31045 0.0
C4402 C 0.39298 0.38526 0.30371 0.0
C4403 C 0.43159 0.404 0.28385 0.0
C4404 C 0.4183 0.39794 0.29072 0.0
H4405 H 0.36288 0.38077 0.33803 0.0
H4406 H 0.38477 0.393 0.3269 0.0
H4407 H 0.38459 0.38204 0.2829 0.0
H4408 H 0.44669 0.39819 0.25652 0.0
H4409 H 0.42473 0.38876 0.26735 0.0
C4410 C 0.34248 0.32386 0.36435 0.0
C4411 C 0.32842 0.31799 0.36569 0.0
C4412 C 0.34956 0.31838 0.37125 0.0
C4413 C 0.3437 0.28651 0.38826 0.0
H4414 H 0.38012 0.30925 0.40291 0.0
C4415 C 0.3688 0.26677 0.42643 0.0
C4416 C 0.38173 0.26902 0.42312 0.0
C4417 C 0.36292 0.27317 0.41911 0.0
C4418 C 0.36999 0.3028 0.39875 0.0
H4419 H 0.31088 0.30216 0.37579 0.0
H4420 H 0.32321 0.29298 0.38819 0.0
H4421 H 0.36856 0.31979 0.39107 0.0
H4422 H 0.399 0.28051 0.41023 0.0
H4423 H 0.38871 0.29194 0.39747 0.0
H4424 H 0.345 0.26959 0.39634 0.0
C4425 C 0.32876 0.30148 0.38143 0.0
C4426 C 0.36337 0.3088 0.39194 0.0
C4427 C 0.32168 0.30682 0.3744 0.0
C4428 C 0.38891 0.27836 0.41277 0.0
C4429 C 0.38308 0.28494 0.40555 0.0
C4430 C 0.35023 0.28056 0.39522 0.0
C4431 C 0.34276 0.30702 0.37977 0.0
C4432 C 0.35007 0.30074 0.38671 0.0
C4433 C 0.36995 0.28223 0.40854 0.0
C4434 C 0.36339 0.28864 0.40062 0.0
H4435 H 0.34796 0.33243 0.35764 0.0
H4436 H 0.36029 0.32284 0.36959 0.0
H4437 H 0.33363 0.2799 0.38405 0.0
H4438 H 0.36317 0.25996 0.43464 0.0
H4439 H 0.35288 0.27111 0.42179 0.0
C4440 C 0.70599 0.02024 0.37333 0.0
C4441 C 0.6921 0.01231 0.37015 0.0
C4442 C 0.71125 0.03321 0.37936 0.0
C4443 C 0.70369 0.06134 0.38297 0.0
H4444 H 0.73497 0.07629 0.40777 0.0
C4445 C 0.72977 0.11726 0.40269 0.0
C4446 C 0.7438 0.12447 0.40073 0.0
C4447 C 0.72256 0.10303 0.4014 0.0
C4448 C 0.72623 0.07224 0.40086 0.0
H4449 H 0.67277 0.01167 0.37138 0.0
H4450 H 0.68193 0.03421 0.38217 0.0
H4451 H 0.72369 0.05215 0.40125 0.0
H4452 H 0.76136 0.12241 0.39652 0.0
H4453 H 0.74882 0.09758 0.39444 0.0
H4454 H 0.70635 0.08149 0.38249 0.0
C4455 C 0.68879 0.03049 0.37972 0.0
C4456 C 0.71978 0.05842 0.39708 0.0
C4457 C 0.68353 0.01752 0.37359 0.0
C4458 C 0.75055 0.11713 0.39808 0.0
C4459 C 0.74338 0.10291 0.39695 0.0
C4460 C 0.71007 0.07513 0.38685 0.0
C4461 C 0.70276 0.03858 0.38248 0.0
C4462 C 0.70862 0.05286 0.38782 0.0
C4463 C 0.72928 0.09573 0.39832 0.0
C4464 C 0.72159 0.08079 0.39559 0.0
H4465 H 0.71294 0.01663 0.37078 0.0
H4466 H 0.72207 0.0392 0.38112 0.0
H4467 H 0.69525 0.05749 0.37568 0.0
H4468 H 0.72433 0.12267 0.40482 0.0
H4469 H 0.71171 0.09775 0.40264 0.0
C4470 C 0.97672 0.67957 0.35617 0.0
C4471 C 0.98652 0.67616 0.36042 0.0
C4472 C 0.96411 0.67365 0.36237 0.0
C4473 C 0.94039 0.64393 0.38222 0.0
H4474 H 0.92508 0.66686 0.3918 0.0
C4475 C 0.89007 0.62296 0.41122 0.0
C4476 C 0.88111 0.62741 0.40672 0.0
C4477 C 0.90333 0.62919 0.4065 0.0
C4478 C 0.92914 0.66027 0.38908 0.0
H4479 H 0.99072 0.66374 0.3744 0.0
H4480 H 0.96866 0.65335 0.3852 0.0
H4481 H 0.94729 0.67697 0.38148 0.0
H4482 H 0.87889 0.64156 0.39346 0.0
H4483 H 0.9019 0.65233 0.3851 0.0
H4484 H 0.92215 0.62719 0.38958 0.0
C4485 C 0.97073 0.66058 0.37703 0.0
C4486 C 0.94188 0.66608 0.38316 0.0
C4487 C 0.98338 0.66657 0.37089 0.0
C4488 C 0.88566 0.63813 0.39734 0.0
C4489 C 0.89887 0.64432 0.39259 0.0
C4490 C 0.9276 0.6381 0.38807 0.0
C4491 C 0.96098 0.66412 0.37291 0.0
C4492 C 0.94761 0.65797 0.37957 0.0
C4493 C 0.90787 0.6399 0.39704 0.0
C4494 C 0.92177 0.64618 0.39147 0.0
H4495 H 0.97882 0.68691 0.34811 0.0
H4496 H 0.95676 0.67645 0.35882 0.0
H4497 H 0.94447 0.63738 0.37944 0.0
H4498 H 0.88676 0.61455 0.41826 0.0
H4499 H 0.91001 0.62559 0.41023 0.0
C4500 C 0.35852 0.00555 0.70671 0.0
C4501 C 0.36514 0.01791 0.69964 0.0
C4502 C 0.36599 0.00066 0.7139 0.0
C4503 C 0.40076 0.0121 0.72789 0.0
H4504 H 0.38882 0.97341 0.72782 0.0
C4505 C 0.44324 0.99454 0.74542 0.0
C4506 C 0.43541 0.98042 0.75794 0.0
C4507 C 0.43172 0.99926 0.73767 0.0
C4508 C 0.3922 0.98423 0.72802 0.0
H4509 H 0.3848 0.03465 0.69432 0.0
H4510 H 0.39767 0.02596 0.70627 0.0
H4511 H 0.37468 0.98142 0.71672 0.0
H4512 H 0.41295 0.95872 0.76397 0.0
H4513 H 0.3956 0.96699 0.75003 0.0
H4514 H 0.41846 0.01489 0.73876 0.0
C4515 C 0.38676 0.02023 0.70677 0.0
C4516 C 0.38408 0.98883 0.72171 0.0
C4517 C 0.37934 0.02518 0.69979 0.0
C4518 C 0.41712 0.96749 0.75736 0.0
C4519 C 0.40644 0.97308 0.74917 0.0
C4520 C 0.40893 0.00751 0.73395 0.0
C4521 C 0.38022 0.00796 0.714 0.0
C4522 C 0.38834 0.00286 0.72143 0.0
C4523 C 0.41371 0.98894 0.73998 0.0
C4524 C 0.40478 0.99357 0.73396 0.0
H4525 H 0.34759 0.99973 0.70682 0.0
H4526 H 0.3606 0.99125 0.71948 0.0
H4527 H 0.40421 0.02293 0.72825 0.0
H4528 H 0.45407 0.00116 0.74502 0.0
H4529 H 0.43567 0.0084 0.73163 0.0
C4530 C 0.00374 0.35459 0.70386 0.0
C4531 C 0.99211 0.3487 0.69533 0.0
C4532 C 0.00647 0.36559 0.71264 0.0
C4533 C 0.99494 0.39076 0.72137 0.0
H4534 H 0.0123 0.39209 0.75652 0.0
C4535 C 0.99183 0.42613 0.77118 0.0
C4536 C 0.00933 0.4371 0.77828 0.0
C4537 C 0.99032 0.41392 0.75818 0.0
C4538 C 0.00753 0.3919 0.7467 0.0
H4539 H 0.97429 0.34972 0.6891 0.0
H4540 H 0.97855 0.36833 0.70491 0.0
H4541 H 0.00916 0.37493 0.73933 0.0
H4542 H 0.03213 0.43775 0.78329 0.0
H4543 H 0.02784 0.41705 0.76295 0.0
H4544 H 0.9927 0.40735 0.72932 0.0
C4545 C 0.98593 0.36494 0.70454 0.0
C4546 C 0.00581 0.38212 0.73675 0.0
C4547 C 0.98342 0.35419 0.69548 0.0
C4548 C 0.02242 0.43181 0.77809 0.0
C4549 C 0.01987 0.4194 0.76493 0.0
C4550 C 0.99636 0.40031 0.73151 0.0
C4551 C 0.99739 0.37068 0.71342 0.0
C4552 C 0.99953 0.38141 0.72388 0.0
C4553 C 0.0043 0.41103 0.75486 0.0
C4554 C 0.00271 0.40097 0.7442 0.0
H4555 H 0.01066 0.3506 0.70384 0.0
H4556 H 0.01563 0.36995 0.71894 0.0
H4557 H 0.99031 0.3908 0.71156 0.0
H4558 H 0.98393 0.42871 0.77256 0.0
H4559 H 0.98094 0.40826 0.75235 0.0
C4560 C 0.64182 0.64621 0.70478 0.0
C4561 C 0.64378 0.64173 0.6919 0.0
C4562 C 0.6294 0.63914 0.71128 0.0
C4563 C 0.6003 0.62712 0.71963 0.0
H4564 H 0.57934 0.58773 0.71625 0.0
C4565 C 0.54557 0.59708 0.73858 0.0
C4566 C 0.5412 0.58425 0.7444 0.0
C4567 C 0.55817 0.60408 0.73243 0.0
C4568 C 0.58512 0.59872 0.71746 0.0
H4569 H 0.63421 0.62642 0.67564 0.0
H4570 H 0.6124 0.61431 0.68675 0.0
H4571 H 0.60116 0.59984 0.70532 0.0
H4572 H 0.54649 0.56847 0.74792 0.0
H4573 H 0.56873 0.58091 0.73773 0.0
H4574 H 0.58452 0.62597 0.7322 0.0
C4575 C 0.62054 0.62309 0.69203 0.0
C4576 C 0.59757 0.6057 0.71098 0.0
C4577 C 0.63302 0.63009 0.6856 0.0
C4578 C 0.54968 0.57848 0.7438 0.0
C4579 C 0.56236 0.58555 0.73777 0.0
C4580 C 0.58792 0.62013 0.72621 0.0
C4581 C 0.61857 0.62749 0.70499 0.0
C4582 C 0.60531 0.62001 0.71193 0.0
C4583 C 0.56676 0.59842 0.73194 0.0
C4584 C 0.58012 0.60583 0.72517 0.0
H4585 H 0.64994 0.65509 0.70996 0.0
H4586 H 0.62838 0.64272 0.72135 0.0
H4587 H 0.60586 0.63814 0.72046 0.0
H4588 H 0.5391 0.60161 0.73859 0.0
H4589 H 0.56103 0.6138 0.72777 0.0
C4590 C 0.65756 0.68101 0.64733 0.0
C4591 C 0.67145 0.68881 0.65066 0.0
C4592 C 0.65071 0.68706 0.64104 0.0
C4593 C 0.65285 0.72045 0.63761 0.0
H4594 H 0.62806 0.70406 0.60639 0.0
C4595 C 0.63268 0.75046 0.60746 0.0
C4596 C 0.61913 0.74356 0.60281 0.0
C4597 C 0.63868 0.74327 0.61293 0.0
C4598 C 0.63482 0.70869 0.61522 0.0
H4599 H 0.68903 0.70906 0.6496 0.0
H4600 H 0.67712 0.71947 0.63871 0.0
H4601 H 0.63907 0.69219 0.61661 0.0
H4602 H 0.60112 0.72377 0.60072 0.0
H4603 H 0.61153 0.71115 0.61051 0.0
H4604 H 0.64858 0.73684 0.63644 0.0
C4605 C 0.6715 0.70873 0.64108 0.0
C4606 C 0.64113 0.70189 0.62105 0.0
C4607 C 0.67834 0.7027 0.64727 0.0
C4608 C 0.61166 0.7293 0.60395 0.0
C4609 C 0.61764 0.7221 0.60952 0.0
C4610 C 0.6465 0.72718 0.63188 0.0
C4611 C 0.65759 0.70104 0.63806 0.0
C4612 C 0.65034 0.7078 0.63219 0.0
C4613 C 0.63121 0.72901 0.61415 0.0
C4614 C 0.63754 0.72149 0.6205 0.0
H4615 H 0.65193 0.67029 0.64977 0.0
H4616 H 0.63997 0.6809 0.63886 0.0
H4617 H 0.65969 0.72513 0.64638 0.0
H4618 H 0.63864 0.76147 0.60697 0.0
H4619 H 0.6492 0.74892 0.61622 0.0
C4620 C 0.30694 0.9713 0.66729 0.0
C4621 C 0.31689 0.98231 0.66001 0.0
C4622 C 0.30013 0.95826 0.66125 0.0
C4623 C 0.28907 0.94104 0.62795 0.0
H4624 H 0.28366 0.90884 0.64736 0.0
C4625 C 0.248 0.88613 0.61274 0.0
C4626 C 0.25221 0.87633 0.61182 0.0
C4627 C 0.25678 0.89922 0.61799 0.0
C4628 C 0.28517 0.91776 0.6418 0.0
H4629 H 0.32764 0.9883 0.64077 0.0
H4630 H 0.3155 0.96551 0.63011 0.0
H4631 H 0.29771 0.93146 0.65799 0.0
H4632 H 0.2687 0.87243 0.61619 0.0
H4633 H 0.28399 0.8953 0.62565 0.0
H4634 H 0.27624 0.92732 0.61193 0.0
C4635 C 0.31306 0.967 0.64052 0.0
C4636 C 0.29312 0.93066 0.6479 0.0
C4637 C 0.32003 0.98 0.64664 0.0
C4638 C 0.26528 0.87985 0.61657 0.0
C4639 C 0.27399 0.89287 0.62203 0.0
C4640 C 0.28094 0.92813 0.62195 0.0
C4641 C 0.30299 0.95603 0.64774 0.0
C4642 C 0.2951 0.94241 0.64105 0.0
C4643 C 0.26982 0.90268 0.62276 0.0
C4644 C 0.27887 0.91638 0.62885 0.0
H4645 H 0.30433 0.97278 0.67762 0.0
H4646 H 0.29235 0.94998 0.667 0.0
H4647 H 0.29037 0.94994 0.6225 0.0
H4648 H 0.23788 0.88367 0.60952 0.0
H4649 H 0.25326 0.90654 0.61865 0.0
C4650 C 0.02246 0.31689 0.64756 0.0
C4651 C 0.01526 0.32345 0.65166 0.0
C4652 C 0.03461 0.32397 0.64065 0.0
C4653 C 0.06267 0.35867 0.63459 0.0
H4654 H 0.07128 0.3401 0.60597 0.0
C4655 C 0.1124 0.38505 0.60404 0.0
C4656 C 0.11918 0.37755 0.60264 0.0
C4657 C 0.09926 0.37891 0.60905 0.0
C4658 C 0.06904 0.3454 0.61398 0.0
H4659 H 0.01526 0.34269 0.65155 0.0
H4660 H 0.03646 0.35504 0.63928 0.0
H4661 H 0.04904 0.32868 0.61626 0.0
H4662 H 0.11767 0.35784 0.60593 0.0
H4663 H 0.09467 0.34707 0.61442 0.0
H4664 H 0.08275 0.37538 0.63229 0.0
C4665 C 0.03272 0.34441 0.6416 0.0
C4666 C 0.05631 0.33885 0.6199 0.0
C4667 C 0.02052 0.3373 0.64857 0.0
C4668 C 0.11259 0.3638 0.60652 0.0
C4669 C 0.09942 0.35763 0.61139 0.0
C4670 C 0.0754 0.36525 0.62859 0.0
C4671 C 0.03991 0.33782 0.63757 0.0
C4672 C 0.05304 0.3453 0.63046 0.0
C4673 C 0.09262 0.36512 0.61276 0.0
C4674 C 0.07879 0.35859 0.61839 0.0
H4675 H 0.01882 0.30626 0.64982 0.0
H4676 H 0.03999 0.31863 0.63796 0.0
H4677 H 0.06056 0.36388 0.64279 0.0
H4678 H 0.11735 0.39573 0.60139 0.0
H4679 H 0.09427 0.38493 0.60998 0.0
C4680 C 0.3174 0.34509 0.64724 0.0
C4681 C 0.31139 0.33499 0.65724 0.0
C4682 C 0.31032 0.35107 0.64139 0.0
C4683 C 0.27584 0.34541 0.63527 0.0
H4684 H 0.29373 0.3847 0.63176 0.0
C4685 C 0.24649 0.37403 0.62465 0.0
C4686 C 0.25236 0.38558 0.61631 0.0
C4687 C 0.25368 0.36744 0.62839 0.0
C4688 C 0.28863 0.37369 0.63244 0.0
H4689 H 0.29323 0.3232 0.66891 0.0
H4690 H 0.28088 0.33363 0.6587 0.0
H4691 H 0.30636 0.37406 0.64073 0.0
H4692 H 0.27043 0.39937 0.60544 0.0
H4693 H 0.28292 0.38765 0.61166 0.0
H4694 H 0.25811 0.345 0.627 0.0
C4695 C 0.29103 0.33687 0.65531 0.0
C4696 C 0.29587 0.36761 0.63762 0.0
C4697 C 0.29814 0.33095 0.66123 0.0
C4698 C 0.26557 0.39035 0.6117 0.0
C4699 C 0.27277 0.38373 0.6154 0.0
C4700 C 0.26861 0.35148 0.63001 0.0
C4701 C 0.29704 0.34701 0.64534 0.0
C4702 C 0.28952 0.35341 0.63924 0.0
C4703 C 0.26696 0.37227 0.62393 0.0
C4704 C 0.27487 0.36572 0.62867 0.0
H4705 H 0.3276 0.34841 0.64394 0.0
H4706 H 0.31519 0.35878 0.63365 0.0
H4707 H 0.27072 0.33442 0.63618 0.0
H4708 H 0.23643 0.3703 0.62858 0.0
H4709 H 0.24897 0.35881 0.63518 0.0
C4710 C 0.66615 0.98394 0.63962 0.0
C4711 C 0.67995 0.98909 0.64284 0.0
C4712 C 0.65855 0.97117 0.63306 0.0
C4713 C 0.662 0.94435 0.61364 0.0
H4714 H 0.62651 0.92003 0.62785 0.0
C4715 C 0.63631 0.88586 0.60899 0.0
C4716 C 0.62232 0.87839 0.60628 0.0
C4717 C 0.64279 0.89998 0.6111 0.0
C4718 C 0.63631 0.92676 0.6236 0.0
H4719 H 0.69655 0.98484 0.64143 0.0
H4720 H 0.68335 0.96268 0.63032 0.0
H4721 H 0.6388 0.94371 0.63594 0.0
H4722 H 0.60423 0.87993 0.60314 0.0
H4723 H 0.61557 0.90467 0.60704 0.0
H4724 H 0.65969 0.92721 0.60173 0.0
C4725 C 0.6784 0.96856 0.63259 0.0
C4726 C 0.64336 0.94036 0.62822 0.0
C4727 C 0.68598 0.98129 0.63908 0.0
C4728 C 0.61501 0.88542 0.6053 0.0
C4729 C 0.62148 0.89955 0.60757 0.0
C4730 C 0.65499 0.93074 0.60911 0.0
C4731 C 0.66456 0.96326 0.62959 0.0
C4732 C 0.65642 0.94925 0.62352 0.0
C4733 C 0.63542 0.90695 0.61067 0.0
C4734 C 0.64219 0.92173 0.61425 0.0
H4735 H 0.66116 0.98967 0.64232 0.0
H4736 H 0.64795 0.96747 0.63077 0.0
H4737 H 0.6719 0.95098 0.60955 0.0
H4738 H 0.6422 0.88072 0.60982 0.0
H4739 H 0.65352 0.90536 0.6136 0.0
C4740 C 0.01854 0.68569 0.65021 0.0
C4741 C 0.01537 0.69161 0.66132 0.0
C4742 C 0.03139 0.69236 0.6445 0.0
C4743 C 0.06666 0.71955 0.65188 0.0
H4744 H 0.06981 0.71936 0.6121 0.0
C4745 C 0.11674 0.75433 0.62505 0.0
C4746 C 0.12046 0.74856 0.61424 0.0
C4747 C 0.10383 0.74729 0.63054 0.0
C4748 C 0.06911 0.71939 0.62323 0.0
H4749 H 0.02322 0.70915 0.67523 0.0
H4750 H 0.04558 0.72086 0.6652 0.0
H4751 H 0.04754 0.70715 0.62234 0.0
H4752 H 0.11366 0.73073 0.60093 0.0
H4753 H 0.091 0.71843 0.61046 0.0
H4754 H 0.08821 0.73186 0.65276 0.0
C4755 C 0.03821 0.71097 0.66099 0.0
C4756 C 0.05635 0.71238 0.62911 0.0
C4757 C 0.02536 0.70428 0.66671 0.0
C4758 C 0.11098 0.73555 0.60905 0.0
C4759 C 0.09802 0.72852 0.61452 0.0
C4760 C 0.0794 0.72659 0.646 0.0
C4761 C 0.04137 0.70513 0.64977 0.0
C4762 C 0.05496 0.7124 0.64351 0.0
C4763 C 0.09434 0.73427 0.62541 0.0
C4764 C 0.08077 0.72664 0.63161 0.0
H4765 H 0.01107 0.67591 0.64584 0.0
H4766 H 0.03353 0.68747 0.636 0.0
H4767 H 0.066 0.71959 0.66301 0.0
H4768 H 0.12391 0.76425 0.62938 0.0
H4769 H 0.10128 0.75206 0.63883 0.0
C4770 C 0.97162 0.63343 0.71001 0.0
C4771 C 0.98043 0.64402 0.7015 0.0
C4772 C 0.97608 0.62573 0.71731 0.0
C4773 C 0.00681 0.62403 0.72812 0.0
H4774 H 0.98123 0.58528 0.72897 0.0
C4775 C 0.01944 0.58592 0.75521 0.0
C4776 C 0.01484 0.57321 0.74855 0.0
C4777 C 0.01508 0.59487 0.75063 0.0
C4778 C 0.98855 0.59605 0.72875 0.0
H4779 H 0.00097 0.65515 0.6943 0.0
H4780 H 0.0087 0.64141 0.70669 0.0
H4781 H 0.97441 0.60058 0.71883 0.0
H4782 H 0.00252 0.56016 0.7316 0.0
H4783 H 0.99509 0.57579 0.72344 0.0
H4784 H 0.02116 0.61932 0.73745 0.0
C4785 C 0.99839 0.63922 0.70799 0.0
C4786 C 0.98457 0.6049 0.72312 0.0
C4787 C 0.99396 0.64708 0.70083 0.0
C4788 C 0.00597 0.56974 0.73712 0.0
C4789 C 0.00168 0.57871 0.73249 0.0
C4790 C 0.01084 0.61514 0.73367 0.0
C4791 C 0.98941 0.62826 0.71611 0.0
C4792 C 0.99365 0.61901 0.72266 0.0
C4793 C 0.00618 0.5914 0.73916 0.0
C4794 C 0.00178 0.60101 0.73394 0.0
H4795 H 0.96118 0.63096 0.71091 0.0
H4796 H 0.96897 0.61765 0.72376 0.0
H4797 H 0.01404 0.63484 0.7281 0.0
H4798 H 0.02651 0.58898 0.76388 0.0
H4799 H 0.01868 0.60451 0.75608 0.0
C4800 C 0.34933 0.35768 0.70387 0.0
C4801 C 0.35764 0.35227 0.70004 0.0
C4802 C 0.35477 0.37017 0.71104 0.0
C4803 C 0.38534 0.3955 0.73108 0.0
H4804 H 0.37409 0.42113 0.719 0.0
C4805 C 0.41798 0.45367 0.73874 0.0
C4806 C 0.41157 0.46119 0.74218 0.0
C4807 C 0.41038 0.43968 0.7359 0.0
C4808 C 0.37719 0.41402 0.72265 0.0
H4809 H 0.3782 0.35577 0.70098 0.0
H4810 H 0.38763 0.37752 0.71315 0.0
H4811 H 0.36255 0.39788 0.70968 0.0
H4812 H 0.39224 0.45987 0.74587 0.0
H4813 H 0.37889 0.43536 0.74071 0.0
H4814 H 0.40033 0.41187 0.74365 0.0
C4815 C 0.37687 0.37202 0.71089 0.0
C4816 C 0.37056 0.40067 0.71733 0.0
C4817 C 0.37145 0.35954 0.70379 0.0
C4818 C 0.39742 0.45433 0.74316 0.0
C4819 C 0.3898 0.44034 0.74017 0.0
C4820 C 0.39202 0.40888 0.73632 0.0
C4821 C 0.36864 0.37757 0.71452 0.0
C4822 C 0.37472 0.39132 0.72127 0.0
C4823 C 0.3962 0.43291 0.73634 0.0
C4824 C 0.38818 0.41835 0.73197 0.0
H4825 H 0.33865 0.35234 0.70121 0.0
H4826 H 0.3481 0.37405 0.71382 0.0
H4827 H 0.38862 0.3885 0.73458 0.0
H4828 H 0.42886 0.45868 0.7379 0.0
H4829 H 0.4156 0.43427 0.73285 0.0
C4830 C 0.65131 0.00519 0.69595 0.0
C4831 C 0.65549 0.01395 0.68464 0.0
C4832 C 0.63969 0.00258 0.70307 0.0
C4833 C 0.61846 0.01784 0.7105 0.0
H4834 H 0.5916 0.98138 0.72094 0.0
C4835 C 0.56682 0.00624 0.73123 0.0
C4836 C 0.561 0.99652 0.74159 0.0
C4837 C 0.5786 0.00833 0.72486 0.0
C4838 C 0.5991 0.99166 0.7183 0.0
H4839 H 0.65059 0.0266 0.67173 0.0
H4840 H 0.63038 0.02208 0.68417 0.0
H4841 H 0.61153 0.9848 0.70855 0.0
H4842 H 0.56274 0.98107 0.75313 0.0
H4843 H 0.58361 0.98502 0.74235 0.0
H4844 H 0.60622 0.02478 0.72034 0.0
C4845 C 0.63614 0.01731 0.6876 0.0
C4846 C 0.61049 0.9936 0.71116 0.0
C4847 C 0.64767 0.01982 0.68042 0.0
C4848 C 0.56716 0.98883 0.74537 0.0
C4849 C 0.57902 0.99099 0.73907 0.0
C4850 C 0.60716 0.01593 0.71773 0.0
C4851 C 0.63211 0.00879 0.69909 0.0
C4852 C 0.62021 0.00669 0.70705 0.0
C4853 C 0.58486 0.00073 0.72868 0.0
C4854 C 0.59724 0.0028 0.7216 0.0
H4855 H 0.65714 0.00052 0.69946 0.0
H4856 H 0.63686 0.99602 0.71193 0.0
H4857 H 0.62592 0.02808 0.70769 0.0
H4858 H 0.5621 0.01207 0.72788 0.0
H4859 H 0.58261 0.01569 0.71669 0.0
loop_
_geom_bond_atom_site_label_1
_geom_bond_atom_site_label_2
_geom_bond_distance
_geom_bond_site_symmetry_2
_ccdc_geom_bond_type
Mn0 O5 2.095 1_655 S
Mn0 O15 2.162 . S
Mn0 O16 2.297 1_554 S
Mn0 O24 2.385 1_554 S
Mn0 O25 2.209 1_654 S
Mn0 O26 2.094 . S
Mn1 O6 2.121 . S
Mn1 N8 2.242 1_554 S
Mn1 N17 2.282 . S
Mn1 O25 2.215 1_554 S
Mn1 O27 2.117 . S
C2 O24 1.234 1_455 S
C2 O25 1.283 . S
C3 O15 1.281 1_556 S
C3 O16 1.236 . S
C4 O26 1.239 . S
C4 O27 1.269 1_655 S
O5 Mn0 2.095 1_455 S
O5 C14 1.250 . S
O6 Mn1 2.121 . S
O6 C14 1.258 . S
C7 N8 1.331 . S
C7 C11 1.460 . S
C7 H13 0.929 1_556 S
N8 Mn1 2.242 1_556 S
N8 C7 1.331 . S
N8 C12 1.372 . S
C9 C10 1.258 . S
C9 C12 1.431 . S
C9 C29 1.449 . S
C10 C9 1.258 . S
C10 C11 1.477 . S
C10 H30 0.931 . S
C11 C7 1.460 . S
C11 C10 1.477 . S
C11 H31 0.930 . S
C12 N8 1.372 . S
C12 C9 1.431 . S
C12 C22 1.476 . S
H13 C7 0.929 1_554 S
C14 O5 1.250 . S
C14 O6 1.258 . S
O15 Mn0 2.162 . S
O15 C3 1.281 1_554 S
O16 Mn0 2.297 1_556 S
O16 C3 1.236 . S
N17 Mn1 2.282 . S
N17 C18 1.328 . S
N17 C22 1.318 1_554 S
C18 N17 1.328 . S
C18 C19 1.468 . S
C18 H23 0.929 . S
C19 C18 1.468 . S
C19 C20 1.277 1_554 S
C19 H32 0.934 . S
C20 C19 1.277 1_556 S
C20 C21 1.373 . S
C20 H33 0.929 . S
C21 C20 1.373 . S
C21 C22 1.396 . S
C21 C28 1.403 . S
C22 C12 1.476 . S
C22 N17 1.318 1_556 S
C22 C21 1.396 . S
H23 C18 0.929 . S
O24 Mn0 2.385 1_556 S
O24 C2 1.234 1_655 S
O25 Mn0 2.209 1_456 S
O25 Mn1 2.215 1_556 S
O25 C2 1.283 . S
O26 Mn0 2.094 . S
O26 C4 1.239 . S
O27 Mn1 2.117 . S
O27 C4 1.269 1_455 S
C28 C21 1.403 . S
C28 C29 1.399 . S
C28 H34 0.929 . S
C29 C9 1.449 . S
C29 C28 1.399 . S
C29 H35 0.930 . S
H30 C10 0.931 . S
H31 C11 0.930 . S
H32 C19 0.934 . S
H33 C20 0.929 . S
H34 C28 0.929 . S
H35 C29 0.930 . S
Mn36 O41 2.085 1_554 S
Mn36 O51 2.162 . S
Mn36 O52 2.297 . S
Mn36 O60 2.385 . S
Mn36 O61 2.209 . S
Mn36 O62 2.094 1_554 S
Mn37 O42 2.121 . S
Mn37 N44 2.257 . S
Mn37 N53 2.282 . S
Mn37 O61 2.215 . S
Mn37 O63 2.117 1_554 S
C38 O60 1.234 . S
C38 O61 1.283 . S
C39 O51 1.281 . S
C39 O52 1.236 . S
C40 O62 1.240 . S
C40 O63 1.264 . S
O41 Mn36 2.085 1_556 S
O41 C50 1.252 . S
O42 Mn37 2.121 . S
O42 C50 1.258 1_554 S
C43 N44 1.326 . S
C43 C47 1.460 . S
C43 H49 0.929 . S
N44 Mn37 2.257 . S
N44 C43 1.326 . S
N44 C48 1.362 . S
C45 C46 1.258 . S
C45 C48 1.431 . S
C45 C65 1.449 . S
C46 C45 1.258 . S
C46 C47 1.477 . S
C46 H66 0.931 . S
C47 C43 1.460 . S
C47 C46 1.477 . S
C47 H67 0.930 . S
C48 N44 1.362 . S
C48 C45 1.431 . S
C48 C58 1.476 . S
H49 C43 0.929 . S
C50 O41 1.252 . S
C50 O42 1.258 1_556 S
O51 Mn36 2.162 . S
O51 C39 1.281 . S
O52 Mn36 2.297 . S
O52 C39 1.236 . S
N53 Mn37 2.282 . S
N53 C54 1.328 . S
N53 C58 1.318 . S
C54 N53 1.328 . S
C54 C55 1.457 . S
C54 H59 0.929 . S
C55 C54 1.457 . S
C55 C56 1.291 . S
C55 H68 0.931 . S
C56 C55 1.291 . S
C56 C57 1.373 . S
C56 H69 0.929 . S
C57 C56 1.373 . S
C57 C58 1.396 . S
C57 C64 1.403 . S
C58 C48 1.476 . S
C58 N53 1.318 . S
C58 C57 1.396 . S
H59 C54 0.929 . S
O60 Mn36 2.385 . S
O60 C38 1.234 . S
O61 Mn36 2.209 . S
O61 Mn37 2.215 . S
O61 C38 1.283 . S
O62 Mn36 2.094 1_556 S
O62 C40 1.240 . S
O63 Mn37 2.117 1_556 S
O63 C40 1.264 . S
C64 C57 1.403 . S
C64 C65 1.399 . S
C64 H70 0.929 . S
C65 C45 1.449 . S
C65 C64 1.399 . S
C65 H71 0.930 . S
H66 C46 0.931 . S
H67 C47 0.930 . S
H68 C55 0.931 . S
H69 C56 0.929 . S
H70 C64 0.929 . S
H71 C65 0.930 . S
Mn72 O77 2.095 1_564 S
Mn72 O87 2.162 . S
Mn72 O88 2.297 . S
Mn72 O96 2.385 . S
Mn72 O97 2.209 1_565 S
Mn72 O98 2.094 1_554 S
Mn73 O78 2.121 1_554 S
Mn73 N80 2.257 . S
Mn73 N89 2.282 . S
Mn73 O97 2.215 . S
Mn73 O99 2.117 1_554 S
C74 O96 1.234 1_545 S
C74 O97 1.283 . S
C75 O87 1.281 . S
C75 O88 1.236 . S
C76 O98 1.240 . S
C76 O99 1.264 1_565 S
O77 Mn72 2.095 1_546 S
O77 C86 1.250 . S
O78 Mn73 2.121 1_556 S
O78 C86 1.258 . S
C79 N80 1.326 . S
C79 C83 1.460 . S
C79 H85 0.929 . S
N80 Mn73 2.257 . S
N80 C79 1.326 . S
N80 C84 1.362 . S
C81 C82 1.258 . S
C81 C84 1.431 . S
C81 C101 1.449 . S
C82 C81 1.258 . S
C82 C83 1.477 . S
C82 H102 0.931 . S
C83 C79 1.460 . S
C83 C82 1.477 . S
C83 H103 0.930 . S
C84 N80 1.362 . S
C84 C81 1.431 . S
C84 C94 1.476 . S
H85 C79 0.929 . S
C86 O77 1.250 . S
C86 O78 1.258 . S
O87 Mn72 2.162 . S
O87 C75 1.281 . S
O88 Mn72 2.297 . S
O88 C75 1.236 . S
N89 Mn73 2.282 . S
N89 C90 1.328 . S
N89 C94 1.318 . S
C90 N89 1.328 . S
C90 C91 1.457 . S
C90 H95 0.929 . S
C91 C90 1.457 . S
C91 C92 1.291 . S
C91 H104 0.931 . S
C92 C91 1.291 . S
C92 C93 1.373 . S
C92 H105 0.929 . S
C93 C92 1.373 . S
C93 C94 1.396 . S
C93 C100 1.403 . S
C94 C84 1.476 . S
C94 N89 1.318 . S
C94 C93 1.396 . S
H95 C90 0.929 . S
O96 Mn72 2.385 . S
O96 C74 1.234 1_565 S
O97 Mn72 2.209 1_545 S
O97 Mn73 2.215 . S
O97 C74 1.283 . S
O98 Mn72 2.094 1_556 S
O98 C76 1.240 . S
O99 Mn73 2.117 1_556 S
O99 C76 1.264 1_545 S
C100 C93 1.403 . S
C100 C101 1.399 . S
C100 H106 0.929 . S
C101 C81 1.449 . S
C101 C100 1.399 . S
C101 H107 0.930 . S
H102 C82 0.931 . S
H103 C83 0.930 . S
H104 C91 0.931 . S
H105 C92 0.929 . S
H106 C100 0.929 . S
H107 C101 0.930 . S
Mn108 O113 2.095 1_655 S
Mn108 O123 2.162 . S
Mn108 O124 2.297 1_554 S
Mn108 O132 2.385 1_554 S
Mn108 O133 2.240 1_655 S
Mn108 O134 2.094 . S
Mn109 O114 2.121 . S
Mn109 N116 2.257 . S
Mn109 N125 2.282 . S
Mn109 O133 2.259 . S
Mn109 O135 2.117 . S
C110 O132 1.234 1_455 S
C110 O133 1.249 1_556 S
C111 O123 1.281 1_556 S
C111 O124 1.236 . S
C112 O134 1.240 . S
C112 O135 1.264 1_655 S
O113 Mn108 2.095 1_455 S
O113 C122 1.250 . S
O114 Mn109 2.121 . S
O114 C122 1.258 . S
C115 N116 1.326 . S
C115 C119 1.460 1_554 S
C115 H121 0.929 . S
N116 Mn109 2.257 . S
N116 C115 1.326 . S
N116 C120 1.362 1_554 S
C117 C118 1.258 . S
C117 C120 1.431 . S
C117 C137 1.449 . S
C118 C117 1.258 . S
C118 C119 1.477 . S
C118 H138 0.931 . S
C119 C115 1.460 1_556 S
C119 C118 1.477 . S
C119 H139 0.930 . S
C120 N116 1.362 1_556 S
C120 C117 1.431 . S
C120 C130 1.468 1_556 S
H121 C115 0.929 . S
C122 O113 1.250 . S
C122 O114 1.258 . S
O123 Mn108 2.162 . S
O123 C111 1.281 1_554 S
O124 Mn108 2.297 1_556 S
O124 C111 1.236 . S
N125 Mn109 2.282 . S
N125 C126 1.328 . S
N125 C130 1.350 . S
C126 N125 1.328 . S
C126 C127 1.457 . S
C126 H131 0.929 . S
C127 C126 1.457 . S
C127 C128 1.291 1_554 S
C127 H140 0.931 . S
C128 C127 1.291 1_556 S
C128 C129 1.373 . S
C128 H141 0.929 . S
C129 C128 1.373 . S
C129 C130 1.375 1_556 S
C129 C136 1.403 . S
C130 C120 1.468 1_554 S
C130 N125 1.350 . S
C130 C129 1.375 1_554 S
H131 C126 0.929 . S
O132 Mn108 2.385 1_556 S
O132 C110 1.234 1_655 S
O133 Mn108 2.240 1_455 S
O133 Mn109 2.259 . S
O133 C110 1.249 1_554 S
O134 Mn108 2.094 . S
O134 C112 1.240 . S
O135 Mn109 2.117 . S
O135 C112 1.264 1_455 S
C136 C129 1.403 . S
C136 C137 1.399 . S
C136 H142 0.929 . S
C137 C117 1.449 . S
C137 C136 1.399 . S
C137 H143 0.930 . S
H138 C118 0.931 . S
H139 C119 0.930 . S
H140 C127 0.931 . S
H141 C128 0.929 . S
H142 C136 0.929 . S
H143 C137 0.930 . S
Mn144 O149 2.095 1_554 S
Mn144 O159 2.162 . S
Mn144 O160 2.297 . S
Mn144 O168 2.385 . S
Mn144 O169 2.209 . S
Mn144 O170 2.094 1_554 S
Mn145 O150 2.121 . S
Mn145 N152 2.257 1_556 S
Mn145 N161 2.282 1_556 S
Mn145 O169 2.215 1_556 S
Mn145 O171 2.117 . S
C146 O168 1.234 . S
C146 O169 1.283 . S
C147 O159 1.281 . S
C147 O160 1.236 . S
C148 O170 1.240 . S
C148 O171 1.264 . S
O149 Mn144 2.095 1_556 S
O149 C158 1.250 . S
O150 Mn145 2.121 . S
O150 C158 1.258 . S
C151 N152 1.326 . S
C151 C155 1.460 . S
C151 H157 0.929 . S
N152 Mn145 2.257 1_554 S
N152 C151 1.326 . S
N152 C156 1.362 . S
C153 C154 1.258 . S
C153 C156 1.431 . S
C153 C173 1.449 . S
C154 C153 1.258 . S
C154 C155 1.477 . S
C154 H174 0.931 . S
C155 C151 1.460 . S
C155 C154 1.477 . S
C155 H175 0.930 . S
C156 N152 1.362 . S
C156 C153 1.431 . S
C156 C166 1.476 . S
H157 C151 0.929 . S
C158 O149 1.250 . S
C158 O150 1.258 . S
O159 Mn144 2.162 . S
O159 C147 1.281 . S
O160 Mn144 2.297 . S
O160 C147 1.236 . S
N161 Mn145 2.282 1_554 S
N161 C162 1.328 . S
N161 C166 1.318 . S
C162 N161 1.328 . S
C162 C163 1.457 . S
C162 H167 0.929 1_554 S
C163 C162 1.457 . S
C163 C164 1.291 . S
C163 H176 0.931 . S
C164 C163 1.291 . S
C164 C165 1.373 . S
C164 H177 0.929 . S
C165 C164 1.373 . S
C165 C166 1.396 . S
C165 C172 1.403 . S
C166 C156 1.476 . S
C166 N161 1.318 . S
C166 C165 1.396 . S
H167 C162 0.929 1_556 S
O168 Mn144 2.385 . S
O168 C146 1.234 . S
O169 Mn144 2.209 . S
O169 Mn145 2.215 1_554 S
O169 C146 1.283 . S
O170 Mn144 2.094 1_556 S
O170 C148 1.240 . S
O171 Mn145 2.117 . S
O171 C148 1.264 . S
C172 C165 1.403 . S
C172 C173 1.399 . S
C172 H178 0.929 . S
C173 C153 1.449 . S
C173 C172 1.399 . S
C173 H179 0.930 . S
H174 C154 0.931 . S
H175 C155 0.930 . S
H176 C163 0.931 . S
H177 C164 0.929 . S
H178 C172 0.929 . S
H179 C173 0.930 . S
Mn180 O185 2.095 1_545 S
Mn180 O195 2.162 . S
Mn180 O196 2.297 1_554 S
Mn180 O204 2.385 1_554 S
Mn180 O205 2.209 1_545 S
Mn180 O206 2.094 . S
Mn181 O186 2.121 . S
Mn181 N188 2.257 . S
Mn181 N197 2.282 . S
Mn181 O205 2.215 . S
Mn181 O207 2.117 . S
C182 O204 1.149 1_565 S
C182 O205 1.363 1_556 S
C183 O195 1.286 . S
C183 O196 1.234 1_554 S
C184 O206 1.240 . S
C184 O207 1.264 1_545 S
O185 Mn180 2.095 1_565 S
O185 C194 1.250 . S
O186 Mn181 2.121 . S
O186 C194 1.258 . S
C187 N188 1.326 . S
C187 C191 1.460 1_554 S
C187 H193 0.929 . S
N188 Mn181 2.257 . S
N188 C187 1.326 . S
N188 C192 1.362 1_554 S
C189 C190 1.258 . S
C189 C192 1.431 . S
C189 C209 1.449 . S
C190 C189 1.258 . S
C190 C191 1.477 . S
C190 H210 0.931 . S
C191 C187 1.460 1_556 S
C191 C190 1.477 . S
C191 H211 0.930 . S
C192 N188 1.362 1_556 S
C192 C189 1.431 . S
C192 C202 1.476 1_556 S
H193 C187 0.929 . S
C194 O185 1.250 . S
C194 O186 1.258 . S
O195 Mn180 2.162 . S
O195 C183 1.286 . S
O196 Mn180 2.297 1_556 S
O196 C183 1.234 1_556 S
N197 Mn181 2.282 . S
N197 C198 1.328 . S
N197 C202 1.318 . S
C198 N197 1.328 . S
C198 C199 1.457 . S
C198 H203 0.929 . S
C199 C198 1.457 . S
C199 C200 1.291 1_554 S
C199 H212 0.931 . S
C200 C199 1.291 1_556 S
C200 C201 1.373 . S
C200 H213 0.929 . S
C201 C200 1.373 . S
C201 C202 1.396 1_556 S
C201 C208 1.403 . S
C202 C192 1.476 1_554 S
C202 N197 1.318 . S
C202 C201 1.396 1_554 S
H203 C198 0.929 . S
O204 Mn180 2.385 1_556 S
O204 C182 1.149 1_545 S
O205 Mn180 2.209 1_565 S
O205 Mn181 2.215 . S
O205 C182 1.363 1_554 S
O206 Mn180 2.094 . S
O206 C184 1.240 . S
O207 Mn181 2.117 . S
O207 C184 1.264 1_565 S
C208 C201 1.403 . S
C208 C209 1.399 . S
C208 H214 0.929 . S
C209 C189 1.449 . S
C209 C208 1.399 . S
C209 H215 0.930 . S
H210 C190 0.931 . S
H211 C191 0.930 . S
H212 C199 0.931 . S
H213 C200 0.929 . S
H214 C208 0.929 . S
H215 C209 0.930 . S
Mn216 O221 2.095 . S
Mn216 O231 2.162 . S
Mn216 O232 2.297 . S
Mn216 O240 2.385 . S
Mn216 O241 2.209 . S
Mn216 O242 2.094 . S
Mn217 O222 2.121 . S
Mn217 N224 2.257 . S
Mn217 N233 2.282 . S
Mn217 O241 2.215 . S
Mn217 O243 2.117 . S
C218 O240 1.234 . S
C218 O241 1.283 . S
C219 O231 1.281 . S
C219 O232 1.236 . S
C220 O242 1.240 . S
C220 O243 1.264 . S
O221 Mn216 2.095 . S
O221 C230 1.250 . S
O222 Mn217 2.121 . S
O222 C230 1.258 . S
C223 N224 1.326 . S
C223 C227 1.460 . S
C223 H229 0.929 . S
N224 Mn217 2.257 . S
N224 C223 1.326 . S
N224 C228 1.362 . S
C225 C226 1.258 . S
C225 C228 1.431 . S
C225 C245 1.449 . S
C226 C225 1.258 . S
C226 C227 1.477 . S
C226 H246 0.931 . S
C227 C223 1.460 . S
C227 C226 1.477 . S
C227 H247 0.930 . S
C228 N224 1.362 . S
C228 C225 1.431 . S
C228 C238 1.476 . S
H229 C223 0.929 . S
C230 O221 1.250 . S
C230 O222 1.258 . S
O231 Mn216 2.162 . S
O231 C219 1.281 . S
O232 Mn216 2.297 . S
O232 C219 1.236 . S
N233 Mn217 2.282 . S
N233 C234 1.328 . S
N233 C238 1.318 . S
C234 N233 1.328 . S
C234 C235 1.457 . S
C234 H239 0.929 . S
C235 C234 1.457 . S
C235 C236 1.291 . S
C235 H248 0.931 . S
C236 C235 1.291 . S
C236 C237 1.373 . S
C236 H249 0.929 . S
C237 C236 1.373 . S
C237 C238 1.396 . S
C237 C244 1.403 . S
C238 C228 1.476 . S
C238 N233 1.318 . S
C238 C237 1.396 . S
H239 C234 0.929 . S
O240 Mn216 2.385 . S
O240 C218 1.234 . S
O241 Mn216 2.209 . S
O241 Mn217 2.215 . S
O241 C218 1.283 . S
O242 Mn216 2.094 . S
O242 C220 1.240 . S
O243 Mn217 2.117 . S
O243 C220 1.264 . S
C244 C237 1.403 . S
C244 C245 1.399 . S
C244 H250 0.929 . S
C245 C225 1.449 . S
C245 C244 1.399 . S
C245 H251 0.930 . S
H246 C226 0.931 . S
H247 C227 0.930 . S
H248 C235 0.931 . S
H249 C236 0.929 . S
H250 C244 0.929 . S
H251 C245 0.930 . S
Mn252 O257 2.095 . S
Mn252 O267 2.162 1_565 S
Mn252 O268 2.296 . S
Mn252 O276 2.385 . S
Mn252 O277 2.209 . S
Mn252 O278 2.094 . S
Mn253 O258 2.121 . S
Mn253 N260 2.257 . S
Mn253 N269 2.282 . S
Mn253 O277 2.215 . S
Mn253 O279 2.117 . S
C254 O276 1.234 . S
C254 O277 1.283 . S
C255 O267 1.281 . S
C255 O268 1.238 1_545 S
C256 O278 1.240 . S
C256 O279 1.264 . S
O257 Mn252 2.095 . S
O257 C266 1.250 . S
O258 Mn253 2.121 . S
O258 C266 1.258 . S
C259 N260 1.326 . S
C259 C263 1.460 . S
C259 H265 0.929 . S
N260 Mn253 2.257 . S
N260 C259 1.326 . S
N260 C264 1.362 . S
C261 C262 1.258 . S
C261 C264 1.431 . S
C261 C281 1.449 . S
C262 C261 1.258 . S
C262 C263 1.477 . S
C262 H282 0.931 . S
C263 C259 1.460 . S
C263 C262 1.477 . S
C263 H283 0.930 . S
C264 N260 1.362 . S
C264 C261 1.431 . S
C264 C274 1.476 . S
H265 C259 0.929 . S
C266 O257 1.250 . S
C266 O258 1.258 . S
O267 Mn252 2.162 1_545 S
O267 C255 1.281 . S
O268 Mn252 2.296 . S
O268 C255 1.238 1_565 S
N269 Mn253 2.282 . S
N269 C270 1.328 . S
N269 C274 1.318 . S
C270 N269 1.328 . S
C270 C271 1.457 . S
C270 H275 0.929 . S
C271 C270 1.457 . S
C271 C272 1.291 . S
C271 H284 0.931 . S
C272 C271 1.291 . S
C272 C273 1.373 . S
C272 H285 0.929 . S
C273 C272 1.373 . S
C273 C274 1.396 . S
C273 C280 1.403 . S
C274 C264 1.476 . S
C274 N269 1.318 . S
C274 C273 1.396 . S
H275 C270 0.929 . S
O276 Mn252 2.385 . S
O276 C254 1.234 . S
O277 Mn252 2.209 . S
O277 Mn253 2.215 . S
O277 C254 1.283 . S
O278 Mn252 2.094 . S
O278 C256 1.240 . S
O279 Mn253 2.117 . S
O279 C256 1.264 . S
C280 C273 1.403 . S
C280 C281 1.399 . S
C280 H286 0.929 . S
C281 C261 1.449 . S
C281 C280 1.399 . S
C281 H287 0.930 . S
H282 C262 0.931 . S
H283 C263 0.930 . S
H284 C271 0.931 . S
H285 C272 0.929 . S
H286 C280 0.929 . S
H287 C281 0.930 . S
Mn288 O293 2.095 . S
Mn288 O303 2.162 1_455 S
Mn288 O304 2.350 . S
Mn288 O312 2.385 . S
Mn288 O313 2.209 . S
Mn288 O314 2.094 . S
Mn289 O294 2.121 . S
Mn289 N296 2.257 . S
Mn289 N305 2.282 . S
Mn289 O313 2.215 . S
Mn289 O315 2.117 . S
C290 O312 1.234 . S
C290 O313 1.283 . S
C291 O303 1.281 . S
C291 O304 1.223 1_655 S
C292 O314 1.240 . S
C292 O315 1.264 . S
O293 Mn288 2.095 . S
O293 C302 1.250 . S
O294 Mn289 2.121 . S
O294 C302 1.258 . S
C295 N296 1.326 . S
C295 C299 1.460 . S
C295 H301 0.929 . S
N296 Mn289 2.257 . S
N296 C295 1.326 . S
N296 C300 1.362 . S
C297 C298 1.258 . S
C297 C300 1.431 . S
C297 C317 1.449 . S
C298 C297 1.258 . S
C298 C299 1.477 . S
C298 H318 0.931 . S
C299 C295 1.460 . S
C299 C298 1.477 . S
C299 H319 0.930 . S
C300 N296 1.362 . S
C300 C297 1.431 . S
C300 C310 1.476 . S
H301 C295 0.929 . S
C302 O293 1.250 . S
C302 O294 1.258 . S
O303 Mn288 2.162 1_655 S
O303 C291 1.281 . S
O304 Mn288 2.350 . S
O304 C291 1.223 1_455 S
N305 Mn289 2.282 . S
N305 C306 1.328 . S
N305 C310 1.318 . S
C306 N305 1.328 . S
C306 C307 1.457 . S
C306 H311 0.929 . S
C307 C306 1.457 . S
C307 C308 1.291 . S
C307 H320 0.931 . S
C308 C307 1.291 . S
C308 C309 1.373 . S
C308 H321 0.929 . S
C309 C308 1.373 . S
C309 C310 1.396 . S
C309 C316 1.403 . S
C310 C300 1.476 . S
C310 N305 1.318 . S
C310 C309 1.396 . S
H311 C306 0.929 . S
O312 Mn288 2.385 . S
O312 C290 1.234 . S
O313 Mn288 2.209 . S
O313 Mn289 2.215 . S
O313 C290 1.283 . S
O314 Mn288 2.094 . S
O314 C292 1.240 . S
O315 Mn289 2.117 . S
O315 C292 1.264 . S
C316 C309 1.403 . S
C316 C317 1.399 . S
C316 H322 0.929 . S
C317 C297 1.449 . S
C317 C316 1.399 . S
C317 H323 0.930 . S
H318 C298 0.931 . S
H319 C299 0.930 . S
H320 C307 0.931 . S
H321 C308 0.929 . S
H322 C316 0.929 . S
H323 C317 0.930 . S
Mn324 O329 2.095 . S
Mn324 O339 2.162 . S
Mn324 O340 2.297 . S
Mn324 O348 2.385 . S
Mn324 O349 2.209 . S
Mn324 O350 2.094 . S
Mn325 O330 2.123 1_565 S
Mn325 N332 2.257 . S
Mn325 N341 2.282 . S
Mn325 O349 2.215 . S
Mn325 O351 2.117 . S
C326 O348 1.234 . S
C326 O349 1.283 . S
C327 O339 1.281 . S
C327 O340 1.236 . S
C328 O350 1.240 . S
C328 O351 1.264 . S
O329 Mn324 2.095 . S
O329 C338 1.250 1_565 S
O330 Mn325 2.123 1_545 S
O330 C338 1.257 . S
C331 N332 1.326 1_545 S
C331 C335 1.460 . S
C331 H337 0.929 . S
N332 Mn325 2.257 . S
N332 C331 1.326 1_565 S
N332 C336 1.362 . S
C333 C334 1.258 . S
C333 C336 1.431 . S
C333 C353 1.449 . S
C334 C333 1.258 . S
C334 C335 1.477 1_565 S
C334 H354 0.929 . S
C335 C331 1.460 . S
C335 C334 1.477 1_545 S
C335 H355 0.930 . S
C336 N332 1.362 . S
C336 C333 1.431 . S
C336 C346 1.476 . S
H337 C331 0.929 . S
C338 O329 1.250 1_545 S
C338 O330 1.257 . S
O339 Mn324 2.162 . S
O339 C327 1.281 . S
O340 Mn324 2.297 . S
O340 C327 1.236 . S
N341 Mn325 2.282 . S
N341 C342 1.328 . S
N341 C346 1.318 . S
C342 N341 1.328 . S
C342 C343 1.457 . S
C342 H347 0.929 . S
C343 C342 1.457 . S
C343 C344 1.291 . S
C343 H356 0.931 . S
C344 C343 1.291 . S
C344 C345 1.373 . S
C344 H357 0.929 . S
C345 C344 1.373 . S
C345 C346 1.396 . S
C345 C352 1.403 . S
C346 C336 1.476 . S
C346 N341 1.318 . S
C346 C345 1.396 . S
H347 C342 0.929 . S
O348 Mn324 2.385 . S
O348 C326 1.234 . S
O349 Mn324 2.209 . S
O349 Mn325 2.215 . S
O349 C326 1.283 . S
O350 Mn324 2.094 . S
O350 C328 1.240 . S
O351 Mn325 2.117 . S
O351 C328 1.264 . S
C352 C345 1.403 . S
C352 C353 1.399 . S
C352 H358 0.929 . S
C353 C333 1.449 . S
C353 C352 1.399 . S
C353 H359 0.930 . S
H354 C334 0.929 . S
H355 C335 0.930 . S
H356 C343 0.931 . S
H357 C344 0.929 . S
H358 C352 0.929 . S
H359 C353 0.930 . S
Mn360 O365 2.095 . S
Mn360 O375 2.162 1_455 S
Mn360 O376 2.297 . S
Mn360 O384 2.385 . S
Mn360 O385 2.209 . S
Mn360 O386 2.094 . S
Mn361 O366 2.121 . S
Mn361 N368 2.257 . S
Mn361 N377 2.282 . S
Mn361 O385 2.215 . S
Mn361 O387 2.117 . S
C362 O384 1.234 . S
C362 O385 1.283 . S
C363 O375 1.281 . S
C363 O376 1.236 1_655 S
C364 O386 1.240 . S
C364 O387 1.264 . S
O365 Mn360 2.095 . S
O365 C374 1.250 . S
O366 Mn361 2.121 . S
O366 C374 1.258 . S
C367 N368 1.326 . S
C367 C371 1.460 . S
C367 H373 0.929 . S
N368 Mn361 2.257 . S
N368 C367 1.326 . S
N368 C372 1.362 . S
C369 C370 1.258 . S
C369 C372 1.431 . S
C369 C389 1.449 . S
C370 C369 1.258 . S
C370 C371 1.477 . S
C370 H390 0.931 . S
C371 C367 1.460 . S
C371 C370 1.477 . S
C371 H391 0.930 . S
C372 N368 1.362 . S
C372 C369 1.431 . S
C372 C382 1.476 . S
H373 C367 0.929 . S
C374 O365 1.250 . S
C374 O366 1.258 . S
O375 Mn360 2.162 1_655 S
O375 C363 1.281 . S
O376 Mn360 2.297 . S
O376 C363 1.236 1_455 S
N377 Mn361 2.282 . S
N377 C378 1.328 . S
N377 C382 1.318 . S
C378 N377 1.328 . S
C378 C379 1.457 . S
C378 H383 0.929 . S
C379 C378 1.457 . S
C379 C380 1.291 . S
C379 H392 0.931 . S
C380 C379 1.291 . S
C380 C381 1.373 . S
C380 H393 0.929 . S
C381 C380 1.373 . S
C381 C382 1.396 . S
C381 C388 1.403 . S
C382 C372 1.476 . S
C382 N377 1.318 . S
C382 C381 1.396 . S
H383 C378 0.929 . S
O384 Mn360 2.385 . S
O384 C362 1.234 . S
O385 Mn360 2.209 . S
O385 Mn361 2.215 . S
O385 C362 1.283 . S
O386 Mn360 2.094 . S
O386 C364 1.240 . S
O387 Mn361 2.117 . S
O387 C364 1.264 . S
C388 C381 1.403 . S
C388 C389 1.399 . S
C388 H394 0.929 . S
C389 C369 1.449 . S
C389 C388 1.399 . S
C389 H395 0.930 . S
H390 C370 0.931 . S
H391 C371 0.930 . S
H392 C379 0.931 . S
H393 C380 0.929 . S
H394 C388 0.929 . S
H395 C389 0.930 . S
Mn396 O401 2.095 . S
Mn396 O411 2.162 . S
Mn396 O412 2.297 . S
Mn396 O420 2.385 . S
Mn396 O421 2.209 . S
Mn396 O422 2.094 . S
Mn397 O402 2.121 . S
Mn397 N404 2.257 . S
Mn397 N413 2.282 . S
Mn397 O421 2.215 . S
Mn397 O423 2.117 . S
C398 O420 1.234 . S
C398 O421 1.283 . S
C399 O411 1.281 . S
C399 O412 1.236 . S
C400 O422 1.240 . S
C400 O423 1.264 . S
O401 Mn396 2.095 . S
O401 C410 1.250 . S
O402 Mn397 2.121 . S
O402 C410 1.258 . S
C403 N404 1.326 . S
C403 C407 1.460 . S
C403 H409 0.929 . S
N404 Mn397 2.257 . S
N404 C403 1.326 . S
N404 C408 1.362 . S
C405 C406 1.258 . S
C405 C408 1.431 . S
C405 C425 1.449 . S
C406 C405 1.258 . S
C406 C407 1.477 . S
C406 H426 0.931 . S
C407 C403 1.460 . S
C407 C406 1.477 . S
C407 H427 0.930 . S
C408 N404 1.362 . S
C408 C405 1.431 . S
C408 C418 1.476 . S
H409 C403 0.929 . S
C410 O401 1.250 . S
C410 O402 1.258 . S
O411 Mn396 2.162 . S
O411 C399 1.281 . S
O412 Mn396 2.297 . S
O412 C399 1.236 . S
N413 Mn397 2.282 . S
N413 C414 1.328 . S
N413 C418 1.318 . S
C414 N413 1.328 . S
C414 C415 1.457 . S
C414 H419 0.929 . S
C415 C414 1.457 . S
C415 C416 1.291 . S
C415 H428 0.931 . S
C416 C415 1.291 . S
C416 C417 1.373 . S
C416 H429 0.929 . S
C417 C416 1.373 . S
C417 C418 1.396 . S
C417 C424 1.403 . S
C418 C408 1.476 . S
C418 N413 1.318 . S
C418 C417 1.396 . S
H419 C414 0.929 . S
O420 Mn396 2.385 . S
O420 C398 1.234 . S
O421 Mn396 2.209 . S
O421 Mn397 2.215 . S
O421 C398 1.283 . S
O422 Mn396 2.094 . S
O422 C400 1.240 . S
O423 Mn397 2.117 . S
O423 C400 1.264 . S
C424 C417 1.403 . S
C424 C425 1.399 . S
C424 H430 0.929 . S
C425 C405 1.449 . S
C425 C424 1.399 . S
C425 H431 0.930 . S
H426 C406 0.931 . S
H427 C407 0.930 . S
H428 C415 0.931 . S
H429 C416 0.929 . S
H430 C424 0.929 . S
H431 C425 0.930 . S
Mn432 O437 2.095 . S
Mn432 O447 2.162 1_545 S
Mn432 O448 2.297 . S
Mn432 O456 2.385 . S
Mn432 O457 2.209 . S
Mn432 O458 2.094 . S
Mn433 O438 2.121 . S
Mn433 N440 2.257 . S
Mn433 N449 2.282 . S
Mn433 O457 2.215 . S
Mn433 O459 2.117 . S
C434 O456 1.234 . S
C434 O457 1.283 . S
C435 O447 1.281 . S
C435 O448 1.236 1_565 S
C436 O458 1.240 . S
C436 O459 1.264 . S
O437 Mn432 2.095 . S
O437 C446 1.250 . S
O438 Mn433 2.121 . S
O438 C446 1.258 . S
C439 N440 1.326 . S
C439 C443 1.460 . S
C439 H445 0.929 . S
N440 Mn433 2.257 . S
N440 C439 1.326 . S
N440 C444 1.362 . S
C441 C442 1.258 . S
C441 C444 1.431 . S
C441 C461 1.449 . S
C442 C441 1.258 . S
C442 C443 1.477 . S
C442 H462 0.931 . S
C443 C439 1.460 . S
C443 C442 1.477 . S
C443 H463 0.930 . S
C444 N440 1.362 . S
C444 C441 1.431 . S
C444 C454 1.476 . S
H445 C439 0.929 . S
C446 O437 1.250 . S
C446 O438 1.258 . S
O447 Mn432 2.162 1_565 S
O447 C435 1.281 . S
O448 Mn432 2.297 . S
O448 C435 1.236 1_545 S
N449 Mn433 2.282 . S
N449 C450 1.328 . S
N449 C454 1.318 . S
C450 N449 1.328 . S
C450 C451 1.457 . S
C450 H455 0.929 . S
C451 C450 1.457 . S
C451 C452 1.291 . S
C451 H464 0.931 . S
C452 C451 1.291 . S
C452 C453 1.373 . S
C452 H465 0.929 . S
C453 C452 1.373 . S
C453 C454 1.396 . S
C453 C460 1.403 . S
C454 C444 1.476 . S
C454 N449 1.318 . S
C454 C453 1.396 . S
H455 C450 0.929 . S
O456 Mn432 2.385 . S
O456 C434 1.234 . S
O457 Mn432 2.209 . S
O457 Mn433 2.215 . S
O457 C434 1.283 . S
O458 Mn432 2.094 . S
O458 C436 1.240 . S
O459 Mn433 2.117 . S
O459 C436 1.264 . S
C460 C453 1.403 . S
C460 C461 1.399 . S
C460 H466 0.929 . S
C461 C441 1.449 . S
C461 C460 1.399 . S
C461 H467 0.930 . S
H462 C442 0.931 . S
H463 C443 0.930 . S
H464 C451 0.931 . S
H465 C452 0.929 . S
H466 C460 0.929 . S
H467 C461 0.930 . S
Mn468 O473 2.095 . S
Mn468 O483 2.162 . S
Mn468 O484 2.297 . S
Mn468 O492 2.385 . S
Mn468 O493 2.209 . S
Mn468 O494 2.094 . S
Mn469 O474 2.121 . S
Mn469 N476 2.257 . S
Mn469 N485 2.282 . S
Mn469 O493 2.215 . S
Mn469 O495 2.117 . S
C470 O492 1.234 . S
C470 O493 1.283 . S
C471 O483 1.281 . S
C471 O484 1.236 . S
C472 O494 1.240 . S
C472 O495 1.264 . S
O473 Mn468 2.095 . S
O473 C482 1.250 1_655 S
O474 Mn469 2.121 . S
O474 C482 1.258 1_655 S
C475 N476 1.326 1_455 S
C475 C479 1.460 . S
C475 H481 0.929 . S
N476 Mn469 2.257 . S
N476 C475 1.326 1_655 S
N476 C480 1.362 . S
C477 C478 1.258 . S
C477 C480 1.431 . S
C477 C497 1.449 . S
C478 C477 1.258 . S
C478 C479 1.477 1_655 S
C478 H498 0.925 . S
C479 C475 1.460 . S
C479 C478 1.477 1_455 S
C479 H499 0.930 . S
C480 N476 1.362 . S
C480 C477 1.431 . S
C480 C490 1.476 . S
H481 C475 0.929 . S
C482 O473 1.250 1_455 S
C482 O474 1.258 1_455 S
O483 Mn468 2.162 . S
O483 C471 1.281 . S
O484 Mn468 2.297 . S
O484 C471 1.236 . S
N485 Mn469 2.282 . S
N485 C486 1.328 . S
N485 C490 1.318 . S
C486 N485 1.328 . S
C486 C487 1.457 . S
C486 H491 0.929 . S
C487 C486 1.457 . S
C487 C488 1.291 . S
C487 H500 0.931 . S
C488 C487 1.291 . S
C488 C489 1.373 . S
C488 H501 0.929 . S
C489 C488 1.373 . S
C489 C490 1.396 . S
C489 C496 1.403 . S
C490 C480 1.476 . S
C490 N485 1.318 . S
C490 C489 1.396 . S
H491 C486 0.929 . S
O492 Mn468 2.385 . S
O492 C470 1.234 . S
O493 Mn468 2.209 . S
O493 Mn469 2.215 . S
O493 C470 1.283 . S
O494 Mn468 2.094 . S
O494 C472 1.240 . S
O495 Mn469 2.117 . S
O495 C472 1.264 . S
C496 C489 1.403 . S
C496 C497 1.399 . S
C496 H502 0.929 . S
C497 C477 1.449 . S
C497 C496 1.399 . S
C497 H503 0.930 . S
H498 C478 0.925 . S
H499 C479 0.930 . S
H500 C487 0.931 . S
H501 C488 0.929 . S
H502 C496 0.929 . S
H503 C497 0.930 . S
Mn504 O509 2.095 . S
Mn504 O519 2.162 . S
Mn504 O520 2.297 . S
Mn504 O528 2.385 . S
Mn504 O529 2.209 . S
Mn504 O530 2.094 . S
Mn505 O510 2.121 . S
Mn505 N512 2.257 . S
Mn505 N521 2.282 . S
Mn505 O529 2.215 . S
Mn505 O531 2.117 . S
C506 O528 1.234 . S
C506 O529 1.283 . S
C507 O519 1.281 . S
C507 O520 1.236 . S
C508 O530 1.240 . S
C508 O531 1.264 . S
O509 Mn504 2.095 . S
O509 C518 1.250 . S
O510 Mn505 2.121 . S
O510 C518 1.258 . S
C511 N512 1.326 . S
C511 C515 1.460 . S
C511 H517 0.929 . S
N512 Mn505 2.257 . S
N512 C511 1.326 . S
N512 C516 1.362 . S
C513 C514 1.258 . S
C513 C516 1.431 . S
C513 C533 1.449 . S
C514 C513 1.258 . S
C514 C515 1.477 . S
C514 H534 0.931 . S
C515 C511 1.460 . S
C515 C514 1.477 . S
C515 H535 0.930 . S
C516 N512 1.362 . S
C516 C513 1.431 . S
C516 C526 1.476 . S
H517 C511 0.929 . S
C518 O509 1.250 . S
C518 O510 1.258 . S
O519 Mn504 2.162 . S
O519 C507 1.281 . S
O520 Mn504 2.297 . S
O520 C507 1.236 . S
N521 Mn505 2.282 . S
N521 C522 1.328 . S
N521 C526 1.318 . S
C522 N521 1.328 . S
C522 C523 1.457 . S
C522 H527 0.929 . S
C523 C522 1.457 . S
C523 C524 1.291 . S
C523 H536 0.931 . S
C524 C523 1.291 . S
C524 C525 1.373 . S
C524 H537 0.929 . S
C525 C524 1.373 . S
C525 C526 1.396 . S
C525 C532 1.403 . S
C526 C516 1.476 . S
C526 N521 1.318 . S
C526 C525 1.396 . S
H527 C522 0.929 . S
O528 Mn504 2.385 . S
O528 C506 1.234 . S
O529 Mn504 2.209 . S
O529 Mn505 2.215 . S
O529 C506 1.283 . S
O530 Mn504 2.094 . S
O530 C508 1.240 . S
O531 Mn505 2.117 . S
O531 C508 1.264 . S
C532 C525 1.403 . S
C532 C533 1.399 . S
C532 H538 0.929 . S
C533 C513 1.449 . S
C533 C532 1.399 . S
C533 H539 0.930 . S
H534 C514 0.931 . S
H535 C515 0.930 . S
H536 C523 0.931 . S
H537 C524 0.929 . S
H538 C532 0.929 . S
H539 C533 0.930 . S
Mn540 O545 2.095 . S
Mn540 O555 2.162 . S
Mn540 O556 2.297 . S
Mn540 O564 2.385 . S
Mn540 O565 2.209 . S
Mn540 O566 2.094 . S
Mn541 O546 2.121 . S
Mn541 N548 2.257 . S
Mn541 N557 2.282 . S
Mn541 O565 2.215 . S
Mn541 O567 2.117 . S
C542 O564 1.234 . S
C542 O565 1.283 . S
C543 O555 1.281 . S
C543 O556 1.236 . S
C544 O566 1.240 . S
C544 O567 1.264 . S
O545 Mn540 2.095 . S
O545 C554 1.250 . S
O546 Mn541 2.121 . S
O546 C554 1.258 . S
C547 N548 1.326 . S
C547 C551 1.460 . S
C547 H553 0.929 . S
N548 Mn541 2.257 . S
N548 C547 1.326 . S
N548 C552 1.362 . S
C549 C550 1.258 . S
C549 C552 1.431 . S
C549 C569 1.449 . S
C550 C549 1.258 . S
C550 C551 1.477 . S
C550 H570 0.931 . S
C551 C547 1.460 . S
C551 C550 1.477 . S
C551 H571 0.930 . S
C552 N548 1.362 . S
C552 C549 1.431 . S
C552 C562 1.476 . S
H553 C547 0.929 . S
C554 O545 1.250 . S
C554 O546 1.258 . S
O555 Mn540 2.162 . S
O555 C543 1.281 . S
O556 Mn540 2.297 . S
O556 C543 1.236 . S
N557 Mn541 2.282 . S
N557 C558 1.328 . S
N557 C562 1.318 . S
C558 N557 1.328 . S
C558 C559 1.457 . S
C558 H563 0.929 . S
C559 C558 1.457 . S
C559 C560 1.291 . S
C559 H572 0.931 . S
C560 C559 1.291 . S
C560 C561 1.373 . S
C560 H573 0.929 . S
C561 C560 1.373 . S
C561 C562 1.396 . S
C561 C568 1.403 . S
C562 C552 1.476 . S
C562 N557 1.318 . S
C562 C561 1.396 . S
H563 C558 0.929 . S
O564 Mn540 2.385 . S
O564 C542 1.234 . S
O565 Mn540 2.209 . S
O565 Mn541 2.215 . S
O565 C542 1.283 . S
O566 Mn540 2.094 . S
O566 C544 1.240 . S
O567 Mn541 2.117 . S
O567 C544 1.264 . S
C568 C561 1.403 . S
C568 C569 1.399 . S
C568 H574 0.929 . S
C569 C549 1.449 . S
C569 C568 1.399 . S
C569 H575 0.930 . S
H570 C550 0.931 . S
H571 C551 0.930 . S
H572 C559 0.931 . S
H573 C560 0.929 . S
H574 C568 0.929 . S
H575 C569 0.930 . S
Mn576 O581 2.095 . S
Mn576 O591 2.162 . S
Mn576 O592 2.297 . S
Mn576 O600 2.385 . S
Mn576 O601 2.209 . S
Mn576 O602 2.094 . S
Mn577 O582 2.089 1_545 S
Mn577 N584 2.257 . S
Mn577 N593 2.282 . S
Mn577 O601 2.215 . S
Mn577 O603 2.117 . S
C578 O600 1.234 . S
C578 O601 1.283 . S
C579 O591 1.281 . S
C579 O592 1.236 . S
C580 O602 1.240 . S
C580 O603 1.264 . S
O581 Mn576 2.095 . S
O581 C590 1.250 1_545 S
O582 Mn577 2.089 1_565 S
O582 C590 1.241 . S
C583 N584 1.326 1_565 S
C583 C587 1.460 . S
C583 H589 0.929 . S
N584 Mn577 2.257 . S
N584 C583 1.326 1_545 S
N584 C588 1.362 . S
C585 C586 1.258 . S
C585 C588 1.431 . S
C585 C605 1.449 . S
C586 C585 1.258 . S
C586 C587 1.477 1_545 S
C586 H606 0.931 1_545 S
C587 C583 1.460 . S
C587 C586 1.477 1_565 S
C587 H607 0.930 . S
C588 N584 1.362 . S
C588 C585 1.431 . S
C588 C598 1.476 . S
H589 C583 0.929 . S
C590 O581 1.250 1_565 S
C590 O582 1.241 . S
O591 Mn576 2.162 . S
O591 C579 1.281 . S
O592 Mn576 2.297 . S
O592 C579 1.236 . S
N593 Mn577 2.282 . S
N593 C594 1.328 . S
N593 C598 1.318 . S
C594 N593 1.328 . S
C594 C595 1.457 . S
C594 H599 0.929 . S
C595 C594 1.457 . S
C595 C596 1.291 . S
C595 H608 0.931 . S
C596 C595 1.291 . S
C596 C597 1.373 . S
C596 H609 0.929 . S
C597 C596 1.373 . S
C597 C598 1.396 . S
C597 C604 1.403 . S
C598 C588 1.476 . S
C598 N593 1.318 . S
C598 C597 1.396 . S
H599 C594 0.929 . S
O600 Mn576 2.385 . S
O600 C578 1.234 . S
O601 Mn576 2.209 . S
O601 Mn577 2.215 . S
O601 C578 1.283 . S
O602 Mn576 2.094 . S
O602 C580 1.240 . S
O603 Mn577 2.117 . S
O603 C580 1.264 . S
C604 C597 1.403 . S
C604 C605 1.399 . S
C604 H610 0.929 . S
C605 C585 1.449 . S
C605 C604 1.399 . S
C605 H611 0.930 . S
H606 C586 0.931 1_565 S
H607 C587 0.930 . S
H608 C595 0.931 . S
H609 C596 0.929 . S
H610 C604 0.929 . S
H611 C605 0.930 . S
Mn612 O617 2.095 . S
Mn612 O627 2.162 1_655 S
Mn612 O628 2.297 . S
Mn612 O636 2.385 . S
Mn612 O637 2.209 . S
Mn612 O638 2.094 . S
Mn613 O618 2.121 . S
Mn613 N620 2.257 . S
Mn613 N629 2.282 . S
Mn613 O637 2.215 . S
Mn613 O639 2.117 . S
C614 O636 1.234 . S
C614 O637 1.283 . S
C615 O627 1.281 . S
C615 O628 1.236 1_455 S
C616 O638 1.240 . S
C616 O639 1.264 . S
O617 Mn612 2.095 . S
O617 C626 1.250 . S
O618 Mn613 2.121 . S
O618 C626 1.258 . S
C619 N620 1.326 . S
C619 C623 1.460 . S
C619 H625 0.929 . S
N620 Mn613 2.257 . S
N620 C619 1.326 . S
N620 C624 1.362 . S
C621 C622 1.258 . S
C621 C624 1.431 . S
C621 C641 1.449 . S
C622 C621 1.258 . S
C622 C623 1.477 . S
C622 H642 0.931 . S
C623 C619 1.460 . S
C623 C622 1.477 . S
C623 H643 0.930 . S
C624 N620 1.362 . S
C624 C621 1.431 . S
C624 C634 1.476 . S
H625 C619 0.929 . S
C626 O617 1.250 . S
C626 O618 1.258 . S
O627 Mn612 2.162 1_455 S
O627 C615 1.281 . S
O628 Mn612 2.297 . S
O628 C615 1.236 1_655 S
N629 Mn613 2.282 . S
N629 C630 1.328 . S
N629 C634 1.318 . S
C630 N629 1.328 . S
C630 C631 1.457 . S
C630 H635 0.929 . S
C631 C630 1.457 . S
C631 C632 1.291 . S
C631 H644 0.931 . S
C632 C631 1.291 . S
C632 C633 1.373 . S
C632 H645 0.929 . S
C633 C632 1.373 . S
C633 C634 1.396 . S
C633 C640 1.403 . S
C634 C624 1.476 . S
C634 N629 1.318 . S
C634 C633 1.396 . S
H635 C630 0.929 . S
O636 Mn612 2.385 . S
O636 C614 1.234 . S
O637 Mn612 2.209 . S
O637 Mn613 2.215 . S
O637 C614 1.283 . S
O638 Mn612 2.094 . S
O638 C616 1.240 . S
O639 Mn613 2.117 . S
O639 C616 1.264 . S
C640 C633 1.403 . S
C640 C641 1.399 . S
C640 H646 0.929 . S
C641 C621 1.449 . S
C641 C640 1.399 . S
C641 H647 0.930 . S
H642 C622 0.931 . S
H643 C623 0.930 . S
H644 C631 0.931 . S
H645 C632 0.929 . S
H646 C640 0.929 . S
H647 C641 0.930 . S
C648 C649 1.560 . S
C648 H709 0.959 . S
C648 H710 0.959 . S
C648 H711 0.960 . S
C649 C648 1.560 . S
C649 O704 1.426 . S
C649 H708 0.980 . S
C650 C651 1.407 . S
C650 C655 1.418 . S
C650 O704 1.334 . S
C651 C650 1.407 . S
C651 C652 1.360 . S
C651 H712 0.929 . S
C652 C651 1.360 . S
C652 C653 1.401 . S
C652 C656 1.527 . S
C653 C652 1.401 . S
C653 C654 1.405 . S
C653 C686 1.587 . S
C654 C653 1.405 . S
C654 C655 1.332 . S
C654 C657 1.496 . S
C655 C650 1.418 . S
C655 C654 1.332 . S
C655 H713 0.929 . S
C656 C652 1.527 . S
C656 H714 0.959 . S
C656 H715 0.961 . S
C656 H716 0.961 . S
C657 C654 1.496 . S
C657 H717 0.960 . S
C657 H718 0.960 . S
C657 H719 0.961 . S
C658 C659 1.517 . S
C658 H721 0.961 . S
C658 H722 0.960 . S
C658 H723 0.959 . S
C659 C658 1.517 . S
C659 O707 1.468 . S
C659 H720 0.980 . S
C660 C661 1.349 . S
C660 C665 1.367 . S
C660 O707 1.408 . S
C661 C660 1.349 . S
C661 C662 1.407 . S
C661 H724 0.930 . S
C662 C661 1.407 . S
C662 C663 1.449 . S
C662 C666 1.535 . S
C663 C662 1.449 . S
C663 C664 1.384 . S
C663 C688 1.553 . S
C664 C663 1.384 . S
C664 C665 1.364 . S
C664 C667 1.450 . S
C665 C660 1.367 . S
C665 C664 1.364 . S
C665 H725 0.931 . S
C666 C662 1.535 . S
C666 H726 0.959 . S
C666 H727 0.961 . S
C666 H728 0.959 . S
C667 C664 1.450 . S
C667 H729 0.960 . S
C667 H730 0.960 . S
C667 H731 0.960 . S
C668 C669 1.309 . S
C668 C673 1.304 . S
C668 O706 1.435 . S
C669 C668 1.309 . S
C669 C670 1.476 . S
C669 H733 0.930 . S
C670 C669 1.476 . S
C670 C671 1.400 . S
C670 C674 1.567 . S
C671 C670 1.400 . S
C671 C672 1.373 . S
C671 C693 1.432 . S
C672 C671 1.373 . S
C672 C673 1.339 . S
C672 C675 1.530 . S
C673 C668 1.304 . S
C673 C672 1.339 . S
C673 H734 0.930 . S
C674 C670 1.567 . S
C674 H735 0.961 . S
C674 H736 0.960 . S
C674 H737 0.958 . S
C675 C672 1.530 . S
C675 H738 0.961 . S
C675 H739 0.960 . S
C675 H740 0.960 . S
C676 C677 1.530 . S
C676 H742 0.961 . S
C676 H743 0.961 . S
C676 H744 0.959 . S
C677 C676 1.530 . S
C677 O705 1.412 . S
C677 H741 0.980 . S
C678 C679 1.288 . S
C678 C683 1.377 . S
C678 O705 1.393 . S
C679 C678 1.288 . S
C679 C680 1.369 . S
C679 H745 0.932 . S
C680 C679 1.369 . S
C680 C681 1.398 . S
C680 C684 1.527 . S
C681 C680 1.398 . S
C681 C682 1.380 . S
C681 C695 1.497 . S
C682 C681 1.380 . S
C682 C683 1.383 . S
C682 C685 1.603 . S
C683 C678 1.377 . S
C683 C682 1.383 . S
C683 H746 0.929 . S
C684 C680 1.527 . S
C684 H747 0.961 . S
C684 H748 0.959 . S
C684 H749 0.959 . S
C685 C682 1.603 . S
C685 H750 0.960 . S
C685 H751 0.962 . S
C685 H752 0.961 . S
C686 C653 1.587 . S
C686 C687 1.360 . S
C686 C699 1.412 . S
C687 C686 1.360 . S
C687 C688 1.365 . S
C687 H753 0.929 . S
C688 C663 1.553 . S
C688 C687 1.365 . S
C688 C689 1.404 . S
C689 C688 1.404 . S
C689 C690 1.395 . S
C689 C700 1.451 . S
C690 C689 1.395 . S
C690 C691 1.322 . S
C690 H754 0.930 . S
C691 C690 1.322 . S
C691 C692 1.459 . S
C691 H755 0.929 . S
C692 C691 1.459 . S
C692 C693 1.445 . S
C692 C701 1.395 . S
C693 C671 1.432 . S
C693 C692 1.445 . S
C693 C694 1.370 . S
C694 C693 1.370 . S
C694 C695 1.438 . S
C694 H756 0.930 . S
C695 C681 1.497 . S
C695 C694 1.438 . S
C695 C696 1.360 . S
C696 C695 1.360 . S
C696 C697 1.401 . S
C696 C701 1.446 . S
C697 C696 1.401 . S
C697 C698 1.347 . S
C697 H757 0.929 . S
C698 C697 1.347 . S
C698 C699 1.455 . S
C698 H758 0.930 . S
C699 C686 1.412 . S
C699 C698 1.455 . S
C699 C700 1.331 . S
C700 C689 1.451 . S
C700 C699 1.331 . S
C700 C701 1.497 . S
C701 C692 1.395 . S
C701 C696 1.446 . S
C701 C700 1.497 . S
C702 C703 1.582 . S
C702 H759 0.962 . S
C702 H760 0.959 . S
C702 H761 0.958 . S
C703 C702 1.582 . S
C703 O706 1.458 . S
C703 H732 0.980 . S
O704 C649 1.426 . S
O704 C650 1.334 . S
O705 C677 1.412 . S
O705 C678 1.393 . S
O706 C668 1.435 . S
O706 C703 1.458 . S
O707 C659 1.468 . S
O707 C660 1.408 . S
H708 C649 0.980 . S
H709 C648 0.959 . S
H710 C648 0.959 . S
H711 C648 0.960 . S
H712 C651 0.929 . S
H713 C655 0.929 . S
H714 C656 0.959 . S
H715 C656 0.961 . S
H716 C656 0.961 . S
H717 C657 0.960 . S
H718 C657 0.960 . S
H719 C657 0.961 . S
H720 C659 0.980 . S
H721 C658 0.961 . S
H722 C658 0.960 . S
H723 C658 0.959 . S
H724 C661 0.930 . S
H725 C665 0.931 . S
H726 C666 0.959 . S
H727 C666 0.961 . S
H728 C666 0.959 . S
H729 C667 0.960 . S
H730 C667 0.960 . S
H731 C667 0.960 . S
H732 C703 0.980 . S
H733 C669 0.930 . S
H734 C673 0.930 . S
H735 C674 0.961 . S
H736 C674 0.960 . S
H737 C674 0.958 . S
H738 C675 0.961 . S
H739 C675 0.960 . S
H740 C675 0.960 . S
H741 C677 0.980 . S
H742 C676 0.961 . S
H743 C676 0.961 . S
H744 C676 0.959 . S
H745 C679 0.932 . S
H746 C683 0.929 . S
H747 C684 0.961 . S
H748 C684 0.959 . S
H749 C684 0.959 . S
H750 C685 0.960 . S
H751 C685 0.962 . S
H752 C685 0.961 . S
H753 C687 0.929 . S
H754 C690 0.930 . S
H755 C691 0.929 . S
H756 C694 0.930 . S
H757 C697 0.929 . S
H758 C698 0.930 . S
H759 C702 0.962 . S
H760 C702 0.959 . S
H761 C702 0.958 . S
C762 C763 1.560 . S
C762 H823 0.959 . S
C762 H824 0.959 . S
C762 H825 0.960 . S
C763 C762 1.560 . S
C763 O818 1.426 . S
C763 H822 0.980 . S
C764 C765 1.407 . S
C764 C769 1.418 . S
C764 O818 1.334 . S
C765 C764 1.407 . S
C765 C766 1.360 . S
C765 H826 0.929 . S
C766 C765 1.360 . S
C766 C767 1.401 . S
C766 C770 1.527 . S
C767 C766 1.401 . S
C767 C768 1.405 . S
C767 C800 1.587 . S
C768 C767 1.405 . S
C768 C769 1.332 . S
C768 C771 1.496 . S
C769 C764 1.418 . S
C769 C768 1.332 . S
C769 H827 0.929 . S
C770 C766 1.527 . S
C770 H828 0.959 . S
C770 H829 0.961 . S
C770 H830 0.961 . S
C771 C768 1.496 . S
C771 H831 0.960 . S
C771 H832 0.960 . S
C771 H833 0.961 . S
C772 C773 1.517 . S
C772 H835 0.961 . S
C772 H836 0.960 . S
C772 H837 0.959 . S
C773 C772 1.517 . S
C773 O821 1.468 . S
C773 H834 0.980 . S
C774 C775 1.349 . S
C774 C779 1.367 . S
C774 O821 1.408 . S
C775 C774 1.349 . S
C775 C776 1.407 . S
C775 H838 0.930 . S
C776 C775 1.407 . S
C776 C777 1.449 . S
C776 C780 1.535 . S
C777 C776 1.449 . S
C777 C778 1.384 . S
C777 C802 1.553 . S
C778 C777 1.384 . S
C778 C779 1.364 . S
C778 C781 1.450 . S
C779 C774 1.367 . S
C779 C778 1.364 . S
C779 H839 0.931 . S
C780 C776 1.535 . S
C780 H840 0.959 . S
C780 H841 0.961 . S
C780 H842 0.959 . S
C781 C778 1.450 . S
C781 H843 0.960 . S
C781 H844 0.960 . S
C781 H845 0.960 . S
C782 C783 1.309 . S
C782 C787 1.304 . S
C782 O820 1.435 . S
C783 C782 1.309 . S
C783 C784 1.476 . S
C783 H847 0.930 . S
C784 C783 1.476 . S
C784 C785 1.400 . S
C784 C788 1.567 . S
C785 C784 1.400 . S
C785 C786 1.373 . S
C785 C807 1.432 . S
C786 C785 1.373 . S
C786 C787 1.339 . S
C786 C789 1.530 . S
C787 C782 1.304 . S
C787 C786 1.339 . S
C787 H848 0.930 . S
C788 C784 1.567 . S
C788 H849 0.961 . S
C788 H850 0.960 . S
C788 H851 0.958 . S
C789 C786 1.530 . S
C789 H852 0.961 . S
C789 H853 0.960 . S
C789 H854 0.960 . S
C790 C791 1.530 . S
C790 H856 0.961 . S
C790 H857 0.961 . S
C790 H858 0.959 . S
C791 C790 1.530 . S
C791 O819 1.412 . S
C791 H855 0.980 . S
C792 C793 1.288 . S
C792 C797 1.377 . S
C792 O819 1.393 . S
C793 C792 1.288 . S
C793 C794 1.369 . S
C793 H859 0.932 . S
C794 C793 1.369 . S
C794 C795 1.398 . S
C794 C798 1.527 . S
C795 C794 1.398 . S
C795 C796 1.380 . S
C795 C809 1.497 . S
C796 C795 1.380 . S
C796 C797 1.383 . S
C796 C799 1.603 . S
C797 C792 1.377 . S
C797 C796 1.383 . S
C797 H860 0.929 . S
C798 C794 1.527 . S
C798 H861 0.961 . S
C798 H862 0.959 . S
C798 H863 0.959 . S
C799 C796 1.603 . S
C799 H864 0.960 . S
C799 H865 0.962 . S
C799 H866 0.961 . S
C800 C767 1.587 . S
C800 C801 1.360 . S
C800 C813 1.412 . S
C801 C800 1.360 . S
C801 C802 1.365 . S
C801 H867 0.929 . S
C802 C777 1.553 . S
C802 C801 1.365 . S
C802 C803 1.404 . S
C803 C802 1.404 . S
C803 C804 1.395 . S
C803 C814 1.451 . S
C804 C803 1.395 . S
C804 C805 1.322 . S
C804 H868 0.930 . S
C805 C804 1.322 . S
C805 C806 1.459 . S
C805 H869 0.929 . S
C806 C805 1.459 . S
C806 C807 1.445 . S
C806 C815 1.395 . S
C807 C785 1.432 . S
C807 C806 1.445 . S
C807 C808 1.370 . S
C808 C807 1.370 . S
C808 C809 1.438 . S
C808 H870 0.930 . S
C809 C795 1.497 . S
C809 C808 1.438 . S
C809 C810 1.360 . S
C810 C809 1.360 . S
C810 C811 1.401 . S
C810 C815 1.446 . S
C811 C810 1.401 . S
C811 C812 1.347 . S
C811 H871 0.929 . S
C812 C811 1.347 . S
C812 C813 1.455 . S
C812 H872 0.930 . S
C813 C800 1.412 . S
C813 C812 1.455 . S
C813 C814 1.331 . S
C814 C803 1.451 . S
C814 C813 1.331 . S
C814 C815 1.497 . S
C815 C806 1.395 . S
C815 C810 1.446 . S
C815 C814 1.497 . S
C816 C817 1.582 . S
C816 H873 0.962 . S
C816 H874 0.959 . S
C816 H875 0.958 . S
C817 C816 1.582 . S
C817 O820 1.458 . S
C817 H846 0.980 . S
O818 C763 1.426 . S
O818 C764 1.334 . S
O819 C791 1.412 . S
O819 C792 1.393 . S
O820 C782 1.435 . S
O820 C817 1.458 . S
O821 C773 1.468 . S
O821 C774 1.408 . S
H822 C763 0.980 . S
H823 C762 0.959 . S
H824 C762 0.959 . S
H825 C762 0.960 . S
H826 C765 0.929 . S
H827 C769 0.929 . S
H828 C770 0.959 . S
H829 C770 0.961 . S
H830 C770 0.961 . S
H831 C771 0.960 . S
H832 C771 0.960 . S
H833 C771 0.961 . S
H834 C773 0.980 . S
H835 C772 0.961 . S
H836 C772 0.960 . S
H837 C772 0.959 . S
H838 C775 0.930 . S
H839 C779 0.931 . S
H840 C780 0.959 . S
H841 C780 0.961 . S
H842 C780 0.959 . S
H843 C781 0.960 . S
H844 C781 0.960 . S
H845 C781 0.960 . S
H846 C817 0.980 . S
H847 C783 0.930 . S
H848 C787 0.930 . S
H849 C788 0.961 . S
H850 C788 0.960 . S
H851 C788 0.958 . S
H852 C789 0.961 . S
H853 C789 0.960 . S
H854 C789 0.960 . S
H855 C791 0.980 . S
H856 C790 0.961 . S
H857 C790 0.961 . S
H858 C790 0.959 . S
H859 C793 0.932 . S
H860 C797 0.929 . S
H861 C798 0.961 . S
H862 C798 0.959 . S
H863 C798 0.959 . S
H864 C799 0.960 . S
H865 C799 0.962 . S
H866 C799 0.961 . S
H867 C801 0.929 . S
H868 C804 0.930 . S
H869 C805 0.929 . S
H870 C808 0.930 . S
H871 C811 0.929 . S
H872 C812 0.930 . S
H873 C816 0.962 . S
H874 C816 0.959 . S
H875 C816 0.958 . S
C876 C877 1.560 . S
C876 H937 0.959 . S
C876 H938 0.959 . S
C876 H939 0.960 . S
C877 C876 1.560 . S
C877 O932 1.426 . S
C877 H936 0.980 . S
C878 C879 1.407 . S
C878 C883 1.418 . S
C878 O932 1.334 . S
C879 C878 1.407 . S
C879 C880 1.360 . S
C879 H940 0.929 . S
C880 C879 1.360 . S
C880 C881 1.401 . S
C880 C884 1.527 . S
C881 C880 1.401 . S
C881 C882 1.405 . S
C881 C914 1.587 . S
C882 C881 1.405 . S
C882 C883 1.332 . S
C882 C885 1.496 . S
C883 C878 1.418 . S
C883 C882 1.332 . S
C883 H941 0.929 . S
C884 C880 1.527 . S
C884 H942 0.959 . S
C884 H943 0.961 . S
C884 H944 0.961 . S
C885 C882 1.496 . S
C885 H945 0.960 . S
C885 H946 0.960 . S
C885 H947 0.961 . S
C886 C887 1.517 . S
C886 H949 0.961 . S
C886 H950 0.960 . S
C886 H951 0.959 . S
C887 C886 1.517 . S
C887 O935 1.468 . S
C887 H948 0.980 . S
C888 C889 1.349 . S
C888 C893 1.367 . S
C888 O935 1.408 . S
C889 C888 1.349 . S
C889 C890 1.407 . S
C889 H952 0.930 . S
C890 C889 1.407 . S
C890 C891 1.449 . S
C890 C894 1.535 . S
C891 C890 1.449 . S
C891 C892 1.384 . S
C891 C916 1.553 . S
C892 C891 1.384 . S
C892 C893 1.364 . S
C892 C895 1.450 . S
C893 C888 1.367 . S
C893 C892 1.364 . S
C893 H953 0.931 . S
C894 C890 1.535 . S
C894 H954 0.959 . S
C894 H955 0.961 . S
C894 H956 0.959 . S
C895 C892 1.450 . S
C895 H957 0.960 . S
C895 H958 0.960 . S
C895 H959 0.960 . S
C896 C897 1.309 . S
C896 C901 1.304 . S
C896 O934 1.435 . S
C897 C896 1.309 . S
C897 C898 1.476 . S
C897 H961 0.930 . S
C898 C897 1.476 . S
C898 C899 1.400 . S
C898 C902 1.567 . S
C899 C898 1.400 . S
C899 C900 1.373 . S
C899 C921 1.432 . S
C900 C899 1.373 . S
C900 C901 1.339 . S
C900 C903 1.530 . S
C901 C896 1.304 . S
C901 C900 1.339 . S
C901 H962 0.930 . S
C902 C898 1.567 . S
C902 H963 0.961 . S
C902 H964 0.960 . S
C902 H965 0.958 . S
C903 C900 1.530 . S
C903 H966 0.961 . S
C903 H967 0.960 . S
C903 H968 0.960 . S
C904 C905 1.530 . S
C904 H970 0.961 . S
C904 H971 0.961 . S
C904 H972 0.959 . S
C905 C904 1.530 . S
C905 O933 1.412 . S
C905 H969 0.980 . S
C906 C907 1.288 . S
C906 C911 1.377 . S
C906 O933 1.393 . S
C907 C906 1.288 . S
C907 C908 1.369 . S
C907 H973 0.932 . S
C908 C907 1.369 . S
C908 C909 1.398 . S
C908 C912 1.527 . S
C909 C908 1.398 . S
C909 C910 1.380 . S
C909 C923 1.497 . S
C910 C909 1.380 . S
C910 C911 1.383 . S
C910 C913 1.603 . S
C911 C906 1.377 . S
C911 C910 1.383 . S
C911 H974 0.929 . S
C912 C908 1.527 . S
C912 H975 0.961 . S
C912 H976 0.959 . S
C912 H977 0.959 . S
C913 C910 1.603 . S
C913 H978 0.960 . S
C913 H979 0.962 . S
C913 H980 0.961 . S
C914 C881 1.587 . S
C914 C915 1.360 . S
C914 C927 1.412 . S
C915 C914 1.360 . S
C915 C916 1.365 . S
C915 H981 0.929 . S
C916 C891 1.553 . S
C916 C915 1.365 . S
C916 C917 1.404 . S
C917 C916 1.404 . S
C917 C918 1.395 . S
C917 C928 1.451 . S
C918 C917 1.395 . S
C918 C919 1.322 . S
C918 H982 0.930 . S
C919 C918 1.322 . S
C919 C920 1.459 . S
C919 H983 0.929 . S
C920 C919 1.459 . S
C920 C921 1.445 . S
C920 C929 1.395 . S
C921 C899 1.432 . S
C921 C920 1.445 . S
C921 C922 1.370 . S
C922 C921 1.370 . S
C922 C923 1.438 . S
C922 H984 0.930 . S
C923 C909 1.497 . S
C923 C922 1.438 . S
C923 C924 1.360 . S
C924 C923 1.360 . S
C924 C925 1.401 . S
C924 C929 1.446 . S
C925 C924 1.401 . S
C925 C926 1.347 . S
C925 H985 0.929 . S
C926 C925 1.347 . S
C926 C927 1.455 . S
C926 H986 0.930 . S
C927 C914 1.412 . S
C927 C926 1.455 . S
C927 C928 1.331 . S
C928 C917 1.451 . S
C928 C927 1.331 . S
C928 C929 1.497 . S
C929 C920 1.395 . S
C929 C924 1.446 . S
C929 C928 1.497 . S
C930 C931 1.582 . S
C930 H987 0.962 . S
C930 H988 0.959 . S
C930 H989 0.958 . S
C931 C930 1.582 . S
C931 O934 1.458 . S
C931 H960 0.980 . S
O932 C877 1.426 . S
O932 C878 1.334 . S
O933 C905 1.412 . S
O933 C906 1.393 . S
O934 C896 1.435 . S
O934 C931 1.458 . S
O935 C887 1.468 . S
O935 C888 1.408 . S
H936 C877 0.980 . S
H937 C876 0.959 . S
H938 C876 0.959 . S
H939 C876 0.960 . S
H940 C879 0.929 . S
H941 C883 0.929 . S
H942 C884 0.959 . S
H943 C884 0.961 . S
H944 C884 0.961 . S
H945 C885 0.960 . S
H946 C885 0.960 . S
H947 C885 0.961 . S
H948 C887 0.980 . S
H949 C886 0.961 . S
H950 C886 0.960 . S
H951 C886 0.959 . S
H952 C889 0.930 . S
H953 C893 0.931 . S
H954 C894 0.959 . S
H955 C894 0.961 . S
H956 C894 0.959 . S
H957 C895 0.960 . S
H958 C895 0.960 . S
H959 C895 0.960 . S
H960 C931 0.980 . S
H961 C897 0.930 . S
H962 C901 0.930 . S
H963 C902 0.961 . S
H964 C902 0.960 . S
H965 C902 0.958 . S
H966 C903 0.961 . S
H967 C903 0.960 . S
H968 C903 0.960 . S
H969 C905 0.980 . S
H970 C904 0.961 . S
H971 C904 0.961 . S
H972 C904 0.959 . S
H973 C907 0.932 . S
H974 C911 0.929 . S
H975 C912 0.961 . S
H976 C912 0.959 . S
H977 C912 0.959 . S
H978 C913 0.960 . S
H979 C913 0.962 . S
H980 C913 0.961 . S
H981 C915 0.929 . S
H982 C918 0.930 . S
H983 C919 0.929 . S
H984 C922 0.930 . S
H985 C925 0.929 . S
H986 C926 0.930 . S
H987 C930 0.962 . S
H988 C930 0.959 . S
H989 C930 0.958 . S
C990 C991 1.560 . S
C990 H1051 0.959 . S
C990 H1052 0.959 . S
C990 H1053 0.960 . S
C991 C990 1.560 . S
C991 O1046 1.426 . S
C991 H1050 0.980 . S
C992 C993 1.407 . S
C992 C997 1.418 . S
C992 O1046 1.334 . S
C993 C992 1.407 . S
C993 C994 1.360 . S
C993 H1054 0.929 . S
C994 C993 1.360 . S
C994 C995 1.401 . S
C994 C998 1.527 . S
C995 C994 1.401 . S
C995 C996 1.405 . S
C995 C1028 1.587 . S
C996 C995 1.405 . S
C996 C997 1.332 . S
C996 C999 1.496 . S
C997 C992 1.418 . S
C997 C996 1.332 . S
C997 H1055 0.929 . S
C998 C994 1.527 . S
C998 H1056 0.959 . S
C998 H1057 0.961 . S
C998 H1058 0.961 . S
C999 C996 1.496 . S
C999 H1059 0.960 . S
C999 H1060 0.960 . S
C999 H1061 0.961 . S
C1000 C1001 1.517 . S
C1000 H1063 0.961 . S
C1000 H1064 0.960 . S
C1000 H1065 0.959 . S
C1001 C1000 1.517 . S
C1001 O1049 1.468 . S
C1001 H1062 0.980 . S
C1002 C1003 1.349 . S
C1002 C1007 1.367 . S
C1002 O1049 1.408 . S
C1003 C1002 1.349 . S
C1003 C1004 1.407 . S
C1003 H1066 0.930 . S
C1004 C1003 1.407 . S
C1004 C1005 1.449 . S
C1004 C1008 1.535 . S
C1005 C1004 1.449 . S
C1005 C1006 1.384 . S
C1005 C1030 1.553 . S
C1006 C1005 1.384 . S
C1006 C1007 1.364 . S
C1006 C1009 1.450 . S
C1007 C1002 1.367 . S
C1007 C1006 1.364 . S
C1007 H1067 0.931 . S
C1008 C1004 1.535 . S
C1008 H1068 0.959 . S
C1008 H1069 0.961 . S
C1008 H1070 0.959 . S
C1009 C1006 1.450 . S
C1009 H1071 0.960 . S
C1009 H1072 0.960 . S
C1009 H1073 0.960 . S
C1010 C1011 1.309 . S
C1010 C1015 1.304 . S
C1010 O1048 1.435 . S
C1011 C1010 1.309 . S
C1011 C1012 1.476 . S
C1011 H1075 0.930 . S
C1012 C1011 1.476 . S
C1012 C1013 1.400 . S
C1012 C1016 1.567 . S
C1013 C1012 1.400 . S
C1013 C1014 1.373 . S
C1013 C1035 1.432 . S
C1014 C1013 1.373 . S
C1014 C1015 1.339 . S
C1014 C1017 1.530 . S
C1015 C1010 1.304 . S
C1015 C1014 1.339 . S
C1015 H1076 0.930 . S
C1016 C1012 1.567 . S
C1016 H1077 0.961 . S
C1016 H1078 0.960 . S
C1016 H1079 0.958 . S
C1017 C1014 1.530 . S
C1017 H1080 0.961 . S
C1017 H1081 0.960 . S
C1017 H1082 0.960 . S
C1018 C1019 1.530 . S
C1018 H1084 0.961 . S
C1018 H1085 0.961 . S
C1018 H1086 0.959 . S
C1019 C1018 1.530 . S
C1019 O1047 1.412 . S
C1019 H1083 0.980 . S
C1020 C1021 1.288 . S
C1020 C1025 1.377 . S
C1020 O1047 1.393 . S
C1021 C1020 1.288 . S
C1021 C1022 1.369 . S
C1021 H1087 0.932 . S
C1022 C1021 1.369 . S
C1022 C1023 1.398 . S
C1022 C1026 1.527 . S
C1023 C1022 1.398 . S
C1023 C1024 1.380 . S
C1023 C1037 1.497 . S
C1024 C1023 1.380 . S
C1024 C1025 1.383 . S
C1024 C1027 1.603 . S
C1025 C1020 1.377 . S
C1025 C1024 1.383 . S
C1025 H1088 0.929 . S
C1026 C1022 1.527 . S
C1026 H1089 0.961 . S
C1026 H1090 0.959 . S
C1026 H1091 0.959 . S
C1027 C1024 1.603 . S
C1027 H1092 0.960 . S
C1027 H1093 0.962 . S
C1027 H1094 0.961 . S
C1028 C995 1.587 . S
C1028 C1029 1.360 . S
C1028 C1041 1.412 . S
C1029 C1028 1.360 . S
C1029 C1030 1.365 . S
C1029 H1095 0.929 . S
C1030 C1005 1.553 . S
C1030 C1029 1.365 . S
C1030 C1031 1.404 . S
C1031 C1030 1.404 . S
C1031 C1032 1.395 . S
C1031 C1042 1.451 . S
C1032 C1031 1.395 . S
C1032 C1033 1.322 . S
C1032 H1096 0.930 . S
C1033 C1032 1.322 . S
C1033 C1034 1.459 . S
C1033 H1097 0.929 . S
C1034 C1033 1.459 . S
C1034 C1035 1.445 . S
C1034 C1043 1.395 . S
C1035 C1013 1.432 . S
C1035 C1034 1.445 . S
C1035 C1036 1.370 . S
C1036 C1035 1.370 . S
C1036 C1037 1.438 . S
C1036 H1098 0.930 . S
C1037 C1023 1.497 . S
C1037 C1036 1.438 . S
C1037 C1038 1.360 . S
C1038 C1037 1.360 . S
C1038 C1039 1.401 . S
C1038 C1043 1.446 . S
C1039 C1038 1.401 . S
C1039 C1040 1.347 . S
C1039 H1099 0.929 . S
C1040 C1039 1.347 . S
C1040 C1041 1.455 . S
C1040 H1100 0.930 . S
C1041 C1028 1.412 . S
C1041 C1040 1.455 . S
C1041 C1042 1.331 . S
C1042 C1031 1.451 . S
C1042 C1041 1.331 . S
C1042 C1043 1.497 . S
C1043 C1034 1.395 . S
C1043 C1038 1.446 . S
C1043 C1042 1.497 . S
C1044 C1045 1.582 . S
C1044 H1101 0.962 . S
C1044 H1102 0.959 . S
C1044 H1103 0.958 . S
C1045 C1044 1.582 . S
C1045 O1048 1.458 . S
C1045 H1074 0.980 . S
O1046 C991 1.426 . S
O1046 C992 1.334 . S
O1047 C1019 1.412 . S
O1047 C1020 1.393 . S
O1048 C1010 1.435 . S
O1048 C1045 1.458 . S
O1049 C1001 1.468 . S
O1049 C1002 1.408 . S
H1050 C991 0.980 . S
H1051 C990 0.959 . S
H1052 C990 0.959 . S
H1053 C990 0.960 . S
H1054 C993 0.929 . S
H1055 C997 0.929 . S
H1056 C998 0.959 . S
H1057 C998 0.961 . S
H1058 C998 0.961 . S
H1059 C999 0.960 . S
H1060 C999 0.960 . S
H1061 C999 0.961 . S
H1062 C1001 0.980 . S
H1063 C1000 0.961 . S
H1064 C1000 0.960 . S
H1065 C1000 0.959 . S
H1066 C1003 0.930 . S
H1067 C1007 0.931 . S
H1068 C1008 0.959 . S
H1069 C1008 0.961 . S
H1070 C1008 0.959 . S
H1071 C1009 0.960 . S
H1072 C1009 0.960 . S
H1073 C1009 0.960 . S
H1074 C1045 0.980 . S
H1075 C1011 0.930 . S
H1076 C1015 0.930 . S
H1077 C1016 0.961 . S
H1078 C1016 0.960 . S
H1079 C1016 0.958 . S
H1080 C1017 0.961 . S
H1081 C1017 0.960 . S
H1082 C1017 0.960 . S
H1083 C1019 0.980 . S
H1084 C1018 0.961 . S
H1085 C1018 0.961 . S
H1086 C1018 0.959 . S
H1087 C1021 0.932 . S
H1088 C1025 0.929 . S
H1089 C1026 0.961 . S
H1090 C1026 0.959 . S
H1091 C1026 0.959 . S
H1092 C1027 0.960 . S
H1093 C1027 0.962 . S
H1094 C1027 0.961 . S
H1095 C1029 0.929 . S
H1096 C1032 0.930 . S
H1097 C1033 0.929 . S
H1098 C1036 0.930 . S
H1099 C1039 0.929 . S
H1100 C1040 0.930 . S
H1101 C1044 0.962 . S
H1102 C1044 0.959 . S
H1103 C1044 0.958 . S
C1104 C1105 1.560 . S
C1104 H1165 0.959 . S
C1104 H1166 0.959 . S
C1104 H1167 0.960 . S
C1105 C1104 1.560 . S
C1105 O1160 1.426 . S
C1105 H1164 0.980 . S
C1106 C1107 1.407 . S
C1106 C1111 1.418 . S
C1106 O1160 1.334 . S
C1107 C1106 1.407 . S
C1107 C1108 1.360 . S
C1107 H1168 0.929 . S
C1108 C1107 1.360 . S
C1108 C1109 1.401 . S
C1108 C1112 1.527 . S
C1109 C1108 1.401 . S
C1109 C1110 1.405 . S
C1109 C1142 1.587 . S
C1110 C1109 1.405 . S
C1110 C1111 1.332 . S
C1110 C1113 1.496 . S
C1111 C1106 1.418 . S
C1111 C1110 1.332 . S
C1111 H1169 0.929 . S
C1112 C1108 1.527 . S
C1112 H1170 0.959 . S
C1112 H1171 0.961 . S
C1112 H1172 0.961 . S
C1113 C1110 1.496 . S
C1113 H1173 0.960 . S
C1113 H1174 0.960 . S
C1113 H1175 0.961 . S
C1114 C1115 1.517 . S
C1114 H1177 0.961 . S
C1114 H1178 0.960 . S
C1114 H1179 0.959 . S
C1115 C1114 1.517 . S
C1115 O1163 1.468 . S
C1115 H1176 0.980 . S
C1116 C1117 1.349 . S
C1116 C1121 1.367 . S
C1116 O1163 1.408 . S
C1117 C1116 1.349 . S
C1117 C1118 1.407 . S
C1117 H1180 0.930 . S
C1118 C1117 1.407 . S
C1118 C1119 1.449 . S
C1118 C1122 1.535 . S
C1119 C1118 1.449 . S
C1119 C1120 1.384 . S
C1119 C1144 1.553 . S
C1120 C1119 1.384 . S
C1120 C1121 1.364 . S
C1120 C1123 1.450 . S
C1121 C1116 1.367 . S
C1121 C1120 1.364 . S
C1121 H1181 0.931 . S
C1122 C1118 1.535 . S
C1122 H1182 0.959 . S
C1122 H1183 0.961 . S
C1122 H1184 0.959 . S
C1123 C1120 1.450 . S
C1123 H1185 0.960 . S
C1123 H1186 0.960 . S
C1123 H1187 0.960 . S
C1124 C1125 1.309 . S
C1124 C1129 1.304 . S
C1124 O1162 1.435 . S
C1125 C1124 1.309 . S
C1125 C1126 1.476 . S
C1125 H1189 0.930 . S
C1126 C1125 1.476 . S
C1126 C1127 1.400 . S
C1126 C1130 1.567 . S
C1127 C1126 1.400 . S
C1127 C1128 1.373 . S
C1127 C1149 1.432 . S
C1128 C1127 1.373 . S
C1128 C1129 1.339 . S
C1128 C1131 1.530 . S
C1129 C1124 1.304 . S
C1129 C1128 1.339 . S
C1129 H1190 0.930 . S
C1130 C1126 1.567 . S
C1130 H1191 0.961 . S
C1130 H1192 0.960 . S
C1130 H1193 0.958 . S
C1131 C1128 1.530 . S
C1131 H1194 0.961 . S
C1131 H1195 0.960 . S
C1131 H1196 0.960 . S
C1132 C1133 1.530 . S
C1132 H1198 0.961 . S
C1132 H1199 0.961 . S
C1132 H1200 0.959 . S
C1133 C1132 1.530 . S
C1133 O1161 1.412 . S
C1133 H1197 0.980 . S
C1134 C1135 1.288 . S
C1134 C1139 1.377 . S
C1134 O1161 1.393 . S
C1135 C1134 1.288 . S
C1135 C1136 1.369 . S
C1135 H1201 0.932 . S
C1136 C1135 1.369 . S
C1136 C1137 1.398 . S
C1136 C1140 1.527 . S
C1137 C1136 1.398 . S
C1137 C1138 1.380 . S
C1137 C1151 1.497 . S
C1138 C1137 1.380 . S
C1138 C1139 1.383 . S
C1138 C1141 1.603 . S
C1139 C1134 1.377 . S
C1139 C1138 1.383 . S
C1139 H1202 0.929 . S
C1140 C1136 1.527 . S
C1140 H1203 0.961 . S
C1140 H1204 0.959 . S
C1140 H1205 0.959 . S
C1141 C1138 1.603 . S
C1141 H1206 0.960 . S
C1141 H1207 0.962 . S
C1141 H1208 0.961 . S
C1142 C1109 1.587 . S
C1142 C1143 1.360 . S
C1142 C1155 1.412 . S
C1143 C1142 1.360 . S
C1143 C1144 1.365 . S
C1143 H1209 0.929 . S
C1144 C1119 1.553 . S
C1144 C1143 1.365 . S
C1144 C1145 1.404 . S
C1145 C1144 1.404 . S
C1145 C1146 1.395 . S
C1145 C1156 1.451 . S
C1146 C1145 1.395 . S
C1146 C1147 1.322 . S
C1146 H1210 0.930 . S
C1147 C1146 1.322 . S
C1147 C1148 1.459 . S
C1147 H1211 0.929 . S
C1148 C1147 1.459 . S
C1148 C1149 1.445 . S
C1148 C1157 1.395 . S
C1149 C1127 1.432 . S
C1149 C1148 1.445 . S
C1149 C1150 1.370 . S
C1150 C1149 1.370 . S
C1150 C1151 1.438 . S
C1150 H1212 0.930 . S
C1151 C1137 1.497 . S
C1151 C1150 1.438 . S
C1151 C1152 1.360 . S
C1152 C1151 1.360 . S
C1152 C1153 1.401 . S
C1152 C1157 1.446 . S
C1153 C1152 1.401 . S
C1153 C1154 1.347 . S
C1153 H1213 0.929 . S
C1154 C1153 1.347 . S
C1154 C1155 1.455 . S
C1154 H1214 0.930 . S
C1155 C1142 1.412 . S
C1155 C1154 1.455 . S
C1155 C1156 1.331 . S
C1156 C1145 1.451 . S
C1156 C1155 1.331 . S
C1156 C1157 1.497 . S
C1157 C1148 1.395 . S
C1157 C1152 1.446 . S
C1157 C1156 1.497 . S
C1158 C1159 1.582 . S
C1158 H1215 0.962 . S
C1158 H1216 0.959 . S
C1158 H1217 0.958 . S
C1159 C1158 1.582 . S
C1159 O1162 1.458 . S
C1159 H1188 0.980 . S
O1160 C1105 1.426 . S
O1160 C1106 1.334 . S
O1161 C1133 1.412 . S
O1161 C1134 1.393 . S
O1162 C1124 1.435 . S
O1162 C1159 1.458 . S
O1163 C1115 1.468 . S
O1163 C1116 1.408 . S
H1164 C1105 0.980 . S
H1165 C1104 0.959 . S
H1166 C1104 0.959 . S
H1167 C1104 0.960 . S
H1168 C1107 0.929 . S
H1169 C1111 0.929 . S
H1170 C1112 0.959 . S
H1171 C1112 0.961 . S
H1172 C1112 0.961 . S
H1173 C1113 0.960 . S
H1174 C1113 0.960 . S
H1175 C1113 0.961 . S
H1176 C1115 0.980 . S
H1177 C1114 0.961 . S
H1178 C1114 0.960 . S
H1179 C1114 0.959 . S
H1180 C1117 0.930 . S
H1181 C1121 0.931 . S
H1182 C1122 0.959 . S
H1183 C1122 0.961 . S
H1184 C1122 0.959 . S
H1185 C1123 0.960 . S
H1186 C1123 0.960 . S
H1187 C1123 0.960 . S
H1188 C1159 0.980 . S
H1189 C1125 0.930 . S
H1190 C1129 0.930 . S
H1191 C1130 0.961 . S
H1192 C1130 0.960 . S
H1193 C1130 0.958 . S
H1194 C1131 0.961 . S
H1195 C1131 0.960 . S
H1196 C1131 0.960 . S
H1197 C1133 0.980 . S
H1198 C1132 0.961 . S
H1199 C1132 0.961 . S
H1200 C1132 0.959 . S
H1201 C1135 0.932 . S
H1202 C1139 0.929 . S
H1203 C1140 0.961 . S
H1204 C1140 0.959 . S
H1205 C1140 0.959 . S
H1206 C1141 0.960 . S
H1207 C1141 0.962 . S
H1208 C1141 0.961 . S
H1209 C1143 0.929 . S
H1210 C1146 0.930 . S
H1211 C1147 0.929 . S
H1212 C1150 0.930 . S
H1213 C1153 0.929 . S
H1214 C1154 0.930 . S
H1215 C1158 0.962 . S
H1216 C1158 0.959 . S
H1217 C1158 0.958 . S
C1218 C1219 1.560 . S
C1218 H1279 0.959 . S
C1218 H1280 0.959 . S
C1218 H1281 0.960 . S
C1219 C1218 1.560 . S
C1219 O1274 1.426 . S
C1219 H1278 0.980 . S
C1220 C1221 1.407 . S
C1220 C1225 1.418 . S
C1220 O1274 1.334 . S
C1221 C1220 1.407 . S
C1221 C1222 1.360 . S
C1221 H1282 0.929 . S
C1222 C1221 1.360 . S
C1222 C1223 1.401 . S
C1222 C1226 1.527 . S
C1223 C1222 1.401 . S
C1223 C1224 1.405 . S
C1223 C1256 1.587 . S
C1224 C1223 1.405 . S
C1224 C1225 1.332 . S
C1224 C1227 1.496 . S
C1225 C1220 1.418 . S
C1225 C1224 1.332 . S
C1225 H1283 0.929 . S
C1226 C1222 1.527 . S
C1226 H1284 0.959 . S
C1226 H1285 0.961 . S
C1226 H1286 0.961 . S
C1227 C1224 1.496 . S
C1227 H1287 0.960 . S
C1227 H1288 0.960 . S
C1227 H1289 0.961 . S
C1228 C1229 1.517 . S
C1228 H1291 0.961 . S
C1228 H1292 0.960 . S
C1228 H1293 0.959 . S
C1229 C1228 1.517 . S
C1229 O1277 1.468 . S
C1229 H1290 0.980 . S
C1230 C1231 1.349 . S
C1230 C1235 1.367 . S
C1230 O1277 1.408 . S
C1231 C1230 1.349 . S
C1231 C1232 1.407 . S
C1231 H1294 0.930 . S
C1232 C1231 1.407 . S
C1232 C1233 1.449 . S
C1232 C1236 1.535 . S
C1233 C1232 1.449 . S
C1233 C1234 1.384 . S
C1233 C1258 1.553 . S
C1234 C1233 1.384 . S
C1234 C1235 1.364 . S
C1234 C1237 1.450 . S
C1235 C1230 1.367 . S
C1235 C1234 1.364 . S
C1235 H1295 0.931 . S
C1236 C1232 1.535 . S
C1236 H1296 0.959 . S
C1236 H1297 0.961 . S
C1236 H1298 0.959 . S
C1237 C1234 1.450 . S
C1237 H1299 0.960 . S
C1237 H1300 0.960 . S
C1237 H1301 0.960 . S
C1238 C1239 1.309 . S
C1238 C1243 1.304 . S
C1238 O1276 1.435 . S
C1239 C1238 1.309 . S
C1239 C1240 1.476 . S
C1239 H1303 0.930 . S
C1240 C1239 1.476 . S
C1240 C1241 1.400 . S
C1240 C1244 1.567 . S
C1241 C1240 1.400 . S
C1241 C1242 1.373 . S
C1241 C1263 1.432 . S
C1242 C1241 1.373 . S
C1242 C1243 1.339 . S
C1242 C1245 1.530 . S
C1243 C1238 1.304 . S
C1243 C1242 1.339 . S
C1243 H1304 0.930 . S
C1244 C1240 1.567 . S
C1244 H1305 0.961 . S
C1244 H1306 0.960 . S
C1244 H1307 0.958 . S
C1245 C1242 1.530 . S
C1245 H1308 0.961 . S
C1245 H1309 0.960 . S
C1245 H1310 0.960 . S
C1246 C1247 1.530 . S
C1246 H1312 0.961 . S
C1246 H1313 0.961 . S
C1246 H1314 0.959 . S
C1247 C1246 1.530 . S
C1247 O1275 1.412 . S
C1247 H1311 0.980 . S
C1248 C1249 1.288 . S
C1248 C1253 1.377 . S
C1248 O1275 1.393 . S
C1249 C1248 1.288 . S
C1249 C1250 1.369 . S
C1249 H1315 0.932 . S
C1250 C1249 1.369 . S
C1250 C1251 1.398 . S
C1250 C1254 1.527 . S
C1251 C1250 1.398 . S
C1251 C1252 1.380 . S
C1251 C1265 1.497 . S
C1252 C1251 1.380 . S
C1252 C1253 1.383 . S
C1252 C1255 1.603 . S
C1253 C1248 1.377 . S
C1253 C1252 1.383 . S
C1253 H1316 0.929 . S
C1254 C1250 1.527 . S
C1254 H1317 0.961 . S
C1254 H1318 0.959 . S
C1254 H1319 0.959 . S
C1255 C1252 1.603 . S
C1255 H1320 0.960 . S
C1255 H1321 0.962 . S
C1255 H1322 0.961 . S
C1256 C1223 1.587 . S
C1256 C1257 1.360 . S
C1256 C1269 1.412 . S
C1257 C1256 1.360 . S
C1257 C1258 1.365 . S
C1257 H1323 0.929 . S
C1258 C1233 1.553 . S
C1258 C1257 1.365 . S
C1258 C1259 1.404 . S
C1259 C1258 1.404 . S
C1259 C1260 1.395 . S
C1259 C1270 1.451 . S
C1260 C1259 1.395 . S
C1260 C1261 1.322 . S
C1260 H1324 0.930 . S
C1261 C1260 1.322 . S
C1261 C1262 1.459 . S
C1261 H1325 0.929 . S
C1262 C1261 1.459 . S
C1262 C1263 1.445 . S
C1262 C1271 1.395 . S
C1263 C1241 1.432 . S
C1263 C1262 1.445 . S
C1263 C1264 1.370 . S
C1264 C1263 1.370 . S
C1264 C1265 1.438 . S
C1264 H1326 0.930 . S
C1265 C1251 1.497 . S
C1265 C1264 1.438 . S
C1265 C1266 1.360 . S
C1266 C1265 1.360 . S
C1266 C1267 1.401 . S
C1266 C1271 1.446 . S
C1267 C1266 1.401 . S
C1267 C1268 1.347 . S
C1267 H1327 0.929 . S
C1268 C1267 1.347 . S
C1268 C1269 1.455 . S
C1268 H1328 0.930 . S
C1269 C1256 1.412 . S
C1269 C1268 1.455 . S
C1269 C1270 1.331 . S
C1270 C1259 1.451 . S
C1270 C1269 1.331 . S
C1270 C1271 1.497 . S
C1271 C1262 1.395 . S
C1271 C1266 1.446 . S
C1271 C1270 1.497 . S
C1272 C1273 1.582 . S
C1272 H1329 0.962 . S
C1272 H1330 0.959 . S
C1272 H1331 0.958 . S
C1273 C1272 1.582 . S
C1273 O1276 1.458 . S
C1273 H1302 0.980 . S
O1274 C1219 1.426 . S
O1274 C1220 1.334 . S
O1275 C1247 1.412 . S
O1275 C1248 1.393 . S
O1276 C1238 1.435 . S
O1276 C1273 1.458 . S
O1277 C1229 1.468 . S
O1277 C1230 1.408 . S
H1278 C1219 0.980 . S
H1279 C1218 0.959 . S
H1280 C1218 0.959 . S
H1281 C1218 0.960 . S
H1282 C1221 0.929 . S
H1283 C1225 0.929 . S
H1284 C1226 0.959 . S
H1285 C1226 0.961 . S
H1286 C1226 0.961 . S
H1287 C1227 0.960 . S
H1288 C1227 0.960 . S
H1289 C1227 0.961 . S
H1290 C1229 0.980 . S
H1291 C1228 0.961 . S
H1292 C1228 0.960 . S
H1293 C1228 0.959 . S
H1294 C1231 0.930 . S
H1295 C1235 0.931 . S
H1296 C1236 0.959 . S
H1297 C1236 0.961 . S
H1298 C1236 0.959 . S
H1299 C1237 0.960 . S
H1300 C1237 0.960 . S
H1301 C1237 0.960 . S
H1302 C1273 0.980 . S
H1303 C1239 0.930 . S
H1304 C1243 0.930 . S
H1305 C1244 0.961 . S
H1306 C1244 0.960 . S
H1307 C1244 0.958 . S
H1308 C1245 0.961 . S
H1309 C1245 0.960 . S
H1310 C1245 0.960 . S
H1311 C1247 0.980 . S
H1312 C1246 0.961 . S
H1313 C1246 0.961 . S
H1314 C1246 0.959 . S
H1315 C1249 0.932 . S
H1316 C1253 0.929 . S
H1317 C1254 0.961 . S
H1318 C1254 0.959 . S
H1319 C1254 0.959 . S
H1320 C1255 0.960 . S
H1321 C1255 0.962 . S
H1322 C1255 0.961 . S
H1323 C1257 0.929 . S
H1324 C1260 0.930 . S
H1325 C1261 0.929 . S
H1326 C1264 0.930 . S
H1327 C1267 0.929 . S
H1328 C1268 0.930 . S
H1329 C1272 0.962 . S
H1330 C1272 0.959 . S
H1331 C1272 0.958 . S
C1332 C1333 1.560 . S
C1332 H1393 0.959 . S
C1332 H1394 0.959 . S
C1332 H1395 0.960 . S
C1333 C1332 1.560 . S
C1333 O1388 1.426 . S
C1333 H1392 0.980 . S
C1334 C1335 1.407 . S
C1334 C1339 1.418 . S
C1334 O1388 1.334 . S
C1335 C1334 1.407 . S
C1335 C1336 1.360 . S
C1335 H1396 0.929 . S
C1336 C1335 1.360 . S
C1336 C1337 1.401 . S
C1336 C1340 1.527 . S
C1337 C1336 1.401 . S
C1337 C1338 1.405 . S
C1337 C1370 1.587 . S
C1338 C1337 1.405 . S
C1338 C1339 1.332 . S
C1338 C1341 1.496 . S
C1339 C1334 1.418 . S
C1339 C1338 1.332 . S
C1339 H1397 0.929 . S
C1340 C1336 1.527 . S
C1340 H1398 0.959 . S
C1340 H1399 0.961 . S
C1340 H1400 0.961 . S
C1341 C1338 1.496 . S
C1341 H1401 0.960 . S
C1341 H1402 0.960 . S
C1341 H1403 0.961 . S
C1342 C1343 1.517 . S
C1342 H1405 0.961 . S
C1342 H1406 0.960 . S
C1342 H1407 0.959 . S
C1343 C1342 1.517 . S
C1343 O1391 1.468 . S
C1343 H1404 0.980 . S
C1344 C1345 1.349 . S
C1344 C1349 1.367 . S
C1344 O1391 1.408 . S
C1345 C1344 1.349 . S
C1345 C1346 1.407 . S
C1345 H1408 0.930 . S
C1346 C1345 1.407 . S
C1346 C1347 1.449 . S
C1346 C1350 1.535 . S
C1347 C1346 1.449 . S
C1347 C1348 1.384 . S
C1347 C1372 1.553 . S
C1348 C1347 1.384 . S
C1348 C1349 1.364 . S
C1348 C1351 1.450 . S
C1349 C1344 1.367 . S
C1349 C1348 1.364 . S
C1349 H1409 0.931 . S
C1350 C1346 1.535 . S
C1350 H1410 0.959 . S
C1350 H1411 0.961 . S
C1350 H1412 0.959 . S
C1351 C1348 1.450 . S
C1351 H1413 0.960 . S
C1351 H1414 0.960 . S
C1351 H1415 0.960 . S
C1352 C1353 1.309 . S
C1352 C1357 1.304 . S
C1352 O1390 1.435 . S
C1353 C1352 1.309 . S
C1353 C1354 1.476 . S
C1353 H1417 0.930 . S
C1354 C1353 1.476 . S
C1354 C1355 1.400 . S
C1354 C1358 1.567 . S
C1355 C1354 1.400 . S
C1355 C1356 1.373 . S
C1355 C1377 1.432 . S
C1356 C1355 1.373 . S
C1356 C1357 1.339 . S
C1356 C1359 1.530 . S
C1357 C1352 1.304 . S
C1357 C1356 1.339 . S
C1357 H1418 0.930 . S
C1358 C1354 1.567 . S
C1358 H1419 0.961 . S
C1358 H1420 0.960 . S
C1358 H1421 0.958 . S
C1359 C1356 1.530 . S
C1359 H1422 0.961 . S
C1359 H1423 0.960 . S
C1359 H1424 0.960 . S
C1360 C1361 1.530 . S
C1360 H1426 0.961 . S
C1360 H1427 0.961 . S
C1360 H1428 0.959 . S
C1361 C1360 1.530 . S
C1361 O1389 1.412 . S
C1361 H1425 0.980 . S
C1362 C1363 1.288 . S
C1362 C1367 1.377 . S
C1362 O1389 1.393 . S
C1363 C1362 1.288 . S
C1363 C1364 1.369 . S
C1363 H1429 0.932 . S
C1364 C1363 1.369 . S
C1364 C1365 1.398 . S
C1364 C1368 1.527 . S
C1365 C1364 1.398 . S
C1365 C1366 1.380 . S
C1365 C1379 1.497 . S
C1366 C1365 1.380 . S
C1366 C1367 1.383 . S
C1366 C1369 1.603 . S
C1367 C1362 1.377 . S
C1367 C1366 1.383 . S
C1367 H1430 0.929 . S
C1368 C1364 1.527 . S
C1368 H1431 0.961 . S
C1368 H1432 0.959 . S
C1368 H1433 0.959 . S
C1369 C1366 1.603 . S
C1369 H1434 0.960 . S
C1369 H1435 0.962 . S
C1369 H1436 0.961 . S
C1370 C1337 1.587 . S
C1370 C1371 1.360 . S
C1370 C1383 1.412 . S
C1371 C1370 1.360 . S
C1371 C1372 1.365 . S
C1371 H1437 0.929 . S
C1372 C1347 1.553 . S
C1372 C1371 1.365 . S
C1372 C1373 1.404 . S
C1373 C1372 1.404 . S
C1373 C1374 1.395 . S
C1373 C1384 1.451 . S
C1374 C1373 1.395 . S
C1374 C1375 1.322 . S
C1374 H1438 0.930 . S
C1375 C1374 1.322 . S
C1375 C1376 1.459 . S
C1375 H1439 0.929 . S
C1376 C1375 1.459 . S
C1376 C1377 1.445 . S
C1376 C1385 1.395 . S
C1377 C1355 1.432 . S
C1377 C1376 1.445 . S
C1377 C1378 1.370 . S
C1378 C1377 1.370 . S
C1378 C1379 1.438 . S
C1378 H1440 0.930 . S
C1379 C1365 1.497 . S
C1379 C1378 1.438 . S
C1379 C1380 1.360 . S
C1380 C1379 1.360 . S
C1380 C1381 1.401 . S
C1380 C1385 1.446 . S
C1381 C1380 1.401 . S
C1381 C1382 1.347 . S
C1381 H1441 0.929 . S
C1382 C1381 1.347 . S
C1382 C1383 1.455 . S
C1382 H1442 0.930 . S
C1383 C1370 1.412 . S
C1383 C1382 1.455 . S
C1383 C1384 1.331 . S
C1384 C1373 1.451 . S
C1384 C1383 1.331 . S
C1384 C1385 1.497 . S
C1385 C1376 1.395 . S
C1385 C1380 1.446 . S
C1385 C1384 1.497 . S
C1386 C1387 1.582 . S
C1386 H1443 0.962 . S
C1386 H1444 0.959 . S
C1386 H1445 0.958 . S
C1387 C1386 1.582 . S
C1387 O1390 1.458 . S
C1387 H1416 0.980 . S
O1388 C1333 1.426 . S
O1388 C1334 1.334 . S
O1389 C1361 1.412 . S
O1389 C1362 1.393 . S
O1390 C1352 1.435 . S
O1390 C1387 1.458 . S
O1391 C1343 1.468 . S
O1391 C1344 1.408 . S
H1392 C1333 0.980 . S
H1393 C1332 0.959 . S
H1394 C1332 0.959 . S
H1395 C1332 0.960 . S
H1396 C1335 0.929 . S
H1397 C1339 0.929 . S
H1398 C1340 0.959 . S
H1399 C1340 0.961 . S
H1400 C1340 0.961 . S
H1401 C1341 0.960 . S
H1402 C1341 0.960 . S
H1403 C1341 0.961 . S
H1404 C1343 0.980 . S
H1405 C1342 0.961 . S
H1406 C1342 0.960 . S
H1407 C1342 0.959 . S
H1408 C1345 0.930 . S
H1409 C1349 0.931 . S
H1410 C1350 0.959 . S
H1411 C1350 0.961 . S
H1412 C1350 0.959 . S
H1413 C1351 0.960 . S
H1414 C1351 0.960 . S
H1415 C1351 0.960 . S
H1416 C1387 0.980 . S
H1417 C1353 0.930 . S
H1418 C1357 0.930 . S
H1419 C1358 0.961 . S
H1420 C1358 0.960 . S
H1421 C1358 0.958 . S
H1422 C1359 0.961 . S
H1423 C1359 0.960 . S
H1424 C1359 0.960 . S
H1425 C1361 0.980 . S
H1426 C1360 0.961 . S
H1427 C1360 0.961 . S
H1428 C1360 0.959 . S
H1429 C1363 0.932 . S
H1430 C1367 0.929 . S
H1431 C1368 0.961 . S
H1432 C1368 0.959 . S
H1433 C1368 0.959 . S
H1434 C1369 0.960 . S
H1435 C1369 0.962 . S
H1436 C1369 0.961 . S
H1437 C1371 0.929 . S
H1438 C1374 0.930 . S
H1439 C1375 0.929 . S
H1440 C1378 0.930 . S
H1441 C1381 0.929 . S
H1442 C1382 0.930 . S
H1443 C1386 0.962 . S
H1444 C1386 0.959 . S
H1445 C1386 0.958 . S
C1446 C1447 1.560 . S
C1446 H1507 0.959 . S
C1446 H1508 0.959 . S
C1446 H1509 0.960 . S
C1447 C1446 1.560 . S
C1447 O1502 1.426 . S
C1447 H1506 0.980 . S
C1448 C1449 1.407 . S
C1448 C1453 1.418 . S
C1448 O1502 1.334 . S
C1449 C1448 1.407 . S
C1449 C1450 1.360 . S
C1449 H1510 0.929 . S
C1450 C1449 1.360 . S
C1450 C1451 1.401 . S
C1450 C1454 1.527 . S
C1451 C1450 1.401 . S
C1451 C1452 1.405 . S
C1451 C1484 1.587 . S
C1452 C1451 1.405 . S
C1452 C1453 1.332 . S
C1452 C1455 1.496 . S
C1453 C1448 1.418 . S
C1453 C1452 1.332 . S
C1453 H1511 0.929 . S
C1454 C1450 1.527 . S
C1454 H1512 0.959 . S
C1454 H1513 0.961 . S
C1454 H1514 0.961 . S
C1455 C1452 1.496 . S
C1455 H1515 0.960 . S
C1455 H1516 0.960 . S
C1455 H1517 0.961 . S
C1456 C1457 1.517 . S
C1456 H1519 0.961 . S
C1456 H1520 0.960 . S
C1456 H1521 0.959 . S
C1457 C1456 1.517 . S
C1457 O1505 1.468 . S
C1457 H1518 0.980 . S
C1458 C1459 1.349 . S
C1458 C1463 1.367 . S
C1458 O1505 1.408 . S
C1459 C1458 1.349 . S
C1459 C1460 1.407 . S
C1459 H1522 0.930 . S
C1460 C1459 1.407 . S
C1460 C1461 1.449 . S
C1460 C1464 1.535 . S
C1461 C1460 1.449 . S
C1461 C1462 1.384 . S
C1461 C1486 1.553 . S
C1462 C1461 1.384 . S
C1462 C1463 1.364 . S
C1462 C1465 1.450 . S
C1463 C1458 1.367 . S
C1463 C1462 1.364 . S
C1463 H1523 0.931 . S
C1464 C1460 1.535 . S
C1464 H1524 0.959 . S
C1464 H1525 0.961 . S
C1464 H1526 0.959 . S
C1465 C1462 1.450 . S
C1465 H1527 0.960 . S
C1465 H1528 0.960 . S
C1465 H1529 0.960 . S
C1466 C1467 1.309 . S
C1466 C1471 1.304 . S
C1466 O1504 1.435 . S
C1467 C1466 1.309 . S
C1467 C1468 1.476 . S
C1467 H1531 0.930 . S
C1468 C1467 1.476 . S
C1468 C1469 1.400 . S
C1468 C1472 1.567 . S
C1469 C1468 1.400 . S
C1469 C1470 1.373 . S
C1469 C1491 1.432 . S
C1470 C1469 1.373 . S
C1470 C1471 1.339 . S
C1470 C1473 1.530 . S
C1471 C1466 1.304 . S
C1471 C1470 1.339 . S
C1471 H1532 0.930 . S
C1472 C1468 1.567 . S
C1472 H1533 0.961 . S
C1472 H1534 0.960 . S
C1472 H1535 0.958 . S
C1473 C1470 1.530 . S
C1473 H1536 0.961 . S
C1473 H1537 0.960 . S
C1473 H1538 0.960 . S
C1474 C1475 1.530 . S
C1474 H1540 0.961 . S
C1474 H1541 0.961 . S
C1474 H1542 0.959 . S
C1475 C1474 1.530 . S
C1475 O1503 1.412 . S
C1475 H1539 0.980 . S
C1476 C1477 1.288 . S
C1476 C1481 1.377 . S
C1476 O1503 1.393 . S
C1477 C1476 1.288 . S
C1477 C1478 1.369 . S
C1477 H1543 0.932 . S
C1478 C1477 1.369 . S
C1478 C1479 1.398 . S
C1478 C1482 1.527 . S
C1479 C1478 1.398 . S
C1479 C1480 1.380 . S
C1479 C1493 1.497 . S
C1480 C1479 1.380 . S
C1480 C1481 1.383 . S
C1480 C1483 1.603 . S
C1481 C1476 1.377 . S
C1481 C1480 1.383 . S
C1481 H1544 0.929 . S
C1482 C1478 1.527 . S
C1482 H1545 0.961 . S
C1482 H1546 0.959 . S
C1482 H1547 0.959 . S
C1483 C1480 1.603 . S
C1483 H1548 0.960 . S
C1483 H1549 0.962 . S
C1483 H1550 0.961 . S
C1484 C1451 1.587 . S
C1484 C1485 1.360 . S
C1484 C1497 1.412 . S
C1485 C1484 1.360 . S
C1485 C1486 1.365 . S
C1485 H1551 0.929 . S
C1486 C1461 1.553 . S
C1486 C1485 1.365 . S
C1486 C1487 1.404 . S
C1487 C1486 1.404 . S
C1487 C1488 1.395 . S
C1487 C1498 1.451 . S
C1488 C1487 1.395 . S
C1488 C1489 1.322 . S
C1488 H1552 0.930 . S
C1489 C1488 1.322 . S
C1489 C1490 1.459 . S
C1489 H1553 0.929 . S
C1490 C1489 1.459 . S
C1490 C1491 1.445 . S
C1490 C1499 1.395 . S
C1491 C1469 1.432 . S
C1491 C1490 1.445 . S
C1491 C1492 1.370 . S
C1492 C1491 1.370 . S
C1492 C1493 1.438 . S
C1492 H1554 0.930 . S
C1493 C1479 1.497 . S
C1493 C1492 1.438 . S
C1493 C1494 1.360 . S
C1494 C1493 1.360 . S
C1494 C1495 1.401 . S
C1494 C1499 1.446 . S
C1495 C1494 1.401 . S
C1495 C1496 1.347 . S
C1495 H1555 0.929 . S
C1496 C1495 1.347 . S
C1496 C1497 1.455 . S
C1496 H1556 0.930 . S
C1497 C1484 1.412 . S
C1497 C1496 1.455 . S
C1497 C1498 1.331 . S
C1498 C1487 1.451 . S
C1498 C1497 1.331 . S
C1498 C1499 1.497 . S
C1499 C1490 1.395 . S
C1499 C1494 1.446 . S
C1499 C1498 1.497 . S
C1500 C1501 1.582 . S
C1500 H1557 0.962 . S
C1500 H1558 0.959 . S
C1500 H1559 0.958 . S
C1501 C1500 1.582 . S
C1501 O1504 1.458 . S
C1501 H1530 0.980 . S
O1502 C1447 1.426 . S
O1502 C1448 1.334 . S
O1503 C1475 1.412 . S
O1503 C1476 1.393 . S
O1504 C1466 1.435 . S
O1504 C1501 1.458 . S
O1505 C1457 1.468 . S
O1505 C1458 1.408 . S
H1506 C1447 0.980 . S
H1507 C1446 0.959 . S
H1508 C1446 0.959 . S
H1509 C1446 0.960 . S
H1510 C1449 0.929 . S
H1511 C1453 0.929 . S
H1512 C1454 0.959 . S
H1513 C1454 0.961 . S
H1514 C1454 0.961 . S
H1515 C1455 0.960 . S
H1516 C1455 0.960 . S
H1517 C1455 0.961 . S
H1518 C1457 0.980 . S
H1519 C1456 0.961 . S
H1520 C1456 0.960 . S
H1521 C1456 0.959 . S
H1522 C1459 0.930 . S
H1523 C1463 0.931 . S
H1524 C1464 0.959 . S
H1525 C1464 0.961 . S
H1526 C1464 0.959 . S
H1527 C1465 0.960 . S
H1528 C1465 0.960 . S
H1529 C1465 0.960 . S
H1530 C1501 0.980 . S
H1531 C1467 0.930 . S
H1532 C1471 0.930 . S
H1533 C1472 0.961 . S
H1534 C1472 0.960 . S
H1535 C1472 0.958 . S
H1536 C1473 0.961 . S
H1537 C1473 0.960 . S
H1538 C1473 0.960 . S
H1539 C1475 0.980 . S
H1540 C1474 0.961 . S
H1541 C1474 0.961 . S
H1542 C1474 0.959 . S
H1543 C1477 0.932 . S
H1544 C1481 0.929 . S
H1545 C1482 0.961 . S
H1546 C1482 0.959 . S
H1547 C1482 0.959 . S
H1548 C1483 0.960 . S
H1549 C1483 0.962 . S
H1550 C1483 0.961 . S
H1551 C1485 0.929 . S
H1552 C1488 0.930 . S
H1553 C1489 0.929 . S
H1554 C1492 0.930 . S
H1555 C1495 0.929 . S
H1556 C1496 0.930 . S
H1557 C1500 0.962 . S
H1558 C1500 0.959 . S
H1559 C1500 0.958 . S
C1560 C1561 1.560 . S
C1560 H1621 0.959 . S
C1560 H1622 0.959 . S
C1560 H1623 0.960 . S
C1561 C1560 1.560 . S
C1561 O1616 1.426 . S
C1561 H1620 0.980 . S
C1562 C1563 1.407 . S
C1562 C1567 1.418 . S
C1562 O1616 1.334 . S
C1563 C1562 1.407 . S
C1563 C1564 1.360 . S
C1563 H1624 0.929 . S
C1564 C1563 1.360 . S
C1564 C1565 1.401 . S
C1564 C1568 1.527 . S
C1565 C1564 1.401 . S
C1565 C1566 1.405 . S
C1565 C1598 1.587 . S
C1566 C1565 1.405 . S
C1566 C1567 1.332 . S
C1566 C1569 1.496 . S
C1567 C1562 1.418 . S
C1567 C1566 1.332 . S
C1567 H1625 0.929 . S
C1568 C1564 1.527 . S
C1568 H1626 0.959 . S
C1568 H1627 0.961 . S
C1568 H1628 0.961 . S
C1569 C1566 1.496 . S
C1569 H1629 0.960 . S
C1569 H1630 0.960 . S
C1569 H1631 0.961 . S
C1570 C1571 1.517 . S
C1570 H1633 0.961 . S
C1570 H1634 0.960 . S
C1570 H1635 0.959 . S
C1571 C1570 1.517 . S
C1571 O1619 1.468 . S
C1571 H1632 0.980 . S
C1572 C1573 1.349 . S
C1572 C1577 1.367 . S
C1572 O1619 1.408 . S
C1573 C1572 1.349 . S
C1573 C1574 1.407 . S
C1573 H1636 0.930 . S
C1574 C1573 1.407 . S
C1574 C1575 1.449 . S
C1574 C1578 1.535 . S
C1575 C1574 1.449 . S
C1575 C1576 1.384 . S
C1575 C1600 1.553 . S
C1576 C1575 1.384 . S
C1576 C1577 1.364 . S
C1576 C1579 1.450 . S
C1577 C1572 1.367 . S
C1577 C1576 1.364 . S
C1577 H1637 0.931 . S
C1578 C1574 1.535 . S
C1578 H1638 0.959 . S
C1578 H1639 0.961 . S
C1578 H1640 0.959 . S
C1579 C1576 1.450 . S
C1579 H1641 0.960 . S
C1579 H1642 0.960 . S
C1579 H1643 0.960 . S
C1580 C1581 1.309 . S
C1580 C1585 1.304 . S
C1580 O1618 1.435 . S
C1581 C1580 1.309 . S
C1581 C1582 1.476 . S
C1581 H1645 0.930 . S
C1582 C1581 1.476 . S
C1582 C1583 1.400 . S
C1582 C1586 1.567 . S
C1583 C1582 1.400 . S
C1583 C1584 1.373 . S
C1583 C1605 1.432 . S
C1584 C1583 1.373 . S
C1584 C1585 1.339 . S
C1584 C1587 1.530 . S
C1585 C1580 1.304 . S
C1585 C1584 1.339 . S
C1585 H1646 0.930 . S
C1586 C1582 1.567 . S
C1586 H1647 0.961 . S
C1586 H1648 0.960 . S
C1586 H1649 0.958 . S
C1587 C1584 1.530 . S
C1587 H1650 0.961 . S
C1587 H1651 0.960 . S
C1587 H1652 0.960 . S
C1588 C1589 1.530 . S
C1588 H1654 0.961 . S
C1588 H1655 0.961 . S
C1588 H1656 0.959 . S
C1589 C1588 1.530 . S
C1589 O1617 1.412 . S
C1589 H1653 0.980 . S
C1590 C1591 1.288 . S
C1590 C1595 1.377 . S
C1590 O1617 1.393 . S
C1591 C1590 1.288 . S
C1591 C1592 1.369 . S
C1591 H1657 0.932 . S
C1592 C1591 1.369 . S
C1592 C1593 1.398 . S
C1592 C1596 1.527 . S
C1593 C1592 1.398 . S
C1593 C1594 1.380 . S
C1593 C1607 1.497 . S
C1594 C1593 1.380 . S
C1594 C1595 1.383 . S
C1594 C1597 1.603 . S
C1595 C1590 1.377 . S
C1595 C1594 1.383 . S
C1595 H1658 0.929 . S
C1596 C1592 1.527 . S
C1596 H1659 0.961 . S
C1596 H1660 0.959 . S
C1596 H1661 0.959 . S
C1597 C1594 1.603 . S
C1597 H1662 0.960 . S
C1597 H1663 0.962 . S
C1597 H1664 0.961 . S
C1598 C1565 1.587 . S
C1598 C1599 1.360 . S
C1598 C1611 1.412 . S
C1599 C1598 1.360 . S
C1599 C1600 1.365 . S
C1599 H1665 0.929 . S
C1600 C1575 1.553 . S
C1600 C1599 1.365 . S
C1600 C1601 1.404 . S
C1601 C1600 1.404 . S
C1601 C1602 1.395 . S
C1601 C1612 1.451 . S
C1602 C1601 1.395 . S
C1602 C1603 1.322 . S
C1602 H1666 0.930 . S
C1603 C1602 1.322 . S
C1603 C1604 1.459 . S
C1603 H1667 0.929 . S
C1604 C1603 1.459 . S
C1604 C1605 1.445 . S
C1604 C1613 1.395 . S
C1605 C1583 1.432 . S
C1605 C1604 1.445 . S
C1605 C1606 1.370 . S
C1606 C1605 1.370 . S
C1606 C1607 1.438 . S
C1606 H1668 0.930 . S
C1607 C1593 1.497 . S
C1607 C1606 1.438 . S
C1607 C1608 1.360 . S
C1608 C1607 1.360 . S
C1608 C1609 1.401 . S
C1608 C1613 1.446 . S
C1609 C1608 1.401 . S
C1609 C1610 1.347 . S
C1609 H1669 0.929 . S
C1610 C1609 1.347 . S
C1610 C1611 1.455 . S
C1610 H1670 0.930 . S
C1611 C1598 1.412 . S
C1611 C1610 1.455 . S
C1611 C1612 1.331 . S
C1612 C1601 1.451 . S
C1612 C1611 1.331 . S
C1612 C1613 1.497 . S
C1613 C1604 1.395 . S
C1613 C1608 1.446 . S
C1613 C1612 1.497 . S
C1614 C1615 1.582 . S
C1614 H1671 0.962 . S
C1614 H1672 0.959 . S
C1614 H1673 0.958 . S
C1615 C1614 1.582 . S
C1615 O1618 1.458 . S
C1615 H1644 0.980 . S
O1616 C1561 1.426 . S
O1616 C1562 1.334 . S
O1617 C1589 1.412 . S
O1617 C1590 1.393 . S
O1618 C1580 1.435 . S
O1618 C1615 1.458 . S
O1619 C1571 1.468 . S
O1619 C1572 1.408 . S
H1620 C1561 0.980 . S
H1621 C1560 0.959 . S
H1622 C1560 0.959 . S
H1623 C1560 0.960 . S
H1624 C1563 0.929 . S
H1625 C1567 0.929 . S
H1626 C1568 0.959 . S
H1627 C1568 0.961 . S
H1628 C1568 0.961 . S
H1629 C1569 0.960 . S
H1630 C1569 0.960 . S
H1631 C1569 0.961 . S
H1632 C1571 0.980 . S
H1633 C1570 0.961 . S
H1634 C1570 0.960 . S
H1635 C1570 0.959 . S
H1636 C1573 0.930 . S
H1637 C1577 0.931 . S
H1638 C1578 0.959 . S
H1639 C1578 0.961 . S
H1640 C1578 0.959 . S
H1641 C1579 0.960 . S
H1642 C1579 0.960 . S
H1643 C1579 0.960 . S
H1644 C1615 0.980 . S
H1645 C1581 0.930 . S
H1646 C1585 0.930 . S
H1647 C1586 0.961 . S
H1648 C1586 0.960 . S
H1649 C1586 0.958 . S
H1650 C1587 0.961 . S
H1651 C1587 0.960 . S
H1652 C1587 0.960 . S
H1653 C1589 0.980 . S
H1654 C1588 0.961 . S
H1655 C1588 0.961 . S
H1656 C1588 0.959 . S
H1657 C1591 0.932 . S
H1658 C1595 0.929 . S
H1659 C1596 0.961 . S
H1660 C1596 0.959 . S
H1661 C1596 0.959 . S
H1662 C1597 0.960 . S
H1663 C1597 0.962 . S
H1664 C1597 0.961 . S
H1665 C1599 0.929 . S
H1666 C1602 0.930 . S
H1667 C1603 0.929 . S
H1668 C1606 0.930 . S
H1669 C1609 0.929 . S
H1670 C1610 0.930 . S
H1671 C1614 0.962 . S
H1672 C1614 0.959 . S
H1673 C1614 0.958 . S
C1674 C1675 1.560 . S
C1674 H1735 0.959 . S
C1674 H1736 0.959 . S
C1674 H1737 0.960 . S
C1675 C1674 1.560 . S
C1675 O1730 1.426 . S
C1675 H1734 0.980 . S
C1676 C1677 1.407 1_455 S
C1676 C1681 1.418 . S
C1676 O1730 1.334 . S
C1677 C1676 1.407 1_655 S
C1677 C1678 1.360 . S
C1677 H1738 0.929 . S
C1678 C1677 1.360 . S
C1678 C1679 1.382 1_655 S
C1678 C1682 1.527 . S
C1679 C1678 1.382 1_455 S
C1679 C1680 1.497 . S
C1679 C1712 1.520 1_455 S
C1680 C1679 1.497 . S
C1680 C1681 1.332 . S
C1680 C1683 1.496 . S
C1681 C1676 1.418 . S
C1681 C1680 1.332 . S
C1681 H1739 0.929 . S
C1682 C1678 1.527 . S
C1682 H1740 0.959 . S
C1682 H1741 0.961 . S
C1682 H1742 0.961 . S
C1683 C1680 1.496 . S
C1683 H1743 0.960 . S
C1683 H1744 0.960 . S
C1683 H1745 0.961 . S
C1684 C1685 1.517 . S
C1684 H1747 0.972 . S
C1684 H1748 0.960 . S
C1684 H1749 0.959 . S
C1685 C1684 1.517 . S
C1685 O1733 1.468 . S
C1685 H1746 0.980 1_655 S
C1686 C1687 1.349 . S
C1686 C1691 1.367 . S
C1686 O1733 1.408 . S
C1687 C1686 1.349 . S
C1687 C1688 1.369 1_655 S
C1687 H1750 0.930 1_655 S
C1688 C1687 1.369 1_455 S
C1688 C1689 1.415 1_455 S
C1688 C1692 1.603 . S
C1689 C1688 1.415 1_655 S
C1689 C1690 1.384 . S
C1689 C1714 1.553 . S
C1690 C1689 1.384 . S
C1690 C1691 1.364 . S
C1690 C1693 1.450 . S
C1691 C1686 1.367 . S
C1691 C1690 1.364 . S
C1691 H1751 0.931 . S
C1692 C1688 1.603 . S
C1692 H1752 0.959 . S
C1692 H1753 0.961 . S
C1692 H1754 0.959 . S
C1693 C1690 1.450 . S
C1693 H1755 0.960 . S
C1693 H1756 0.960 . S
C1693 H1757 0.960 . S
C1694 C1695 1.309 . S
C1694 C1699 1.304 . S
C1694 O1732 1.435 . S
C1695 C1694 1.309 . S
C1695 C1696 1.446 1_655 S
C1695 H1759 0.930 1_655 S
C1696 C1695 1.446 1_455 S
C1696 C1697 1.380 1_455 S
C1696 C1700 1.617 . S
C1697 C1696 1.380 1_655 S
C1697 C1698 1.373 . S
C1697 C1719 1.432 . S
C1698 C1697 1.373 . S
C1698 C1699 1.339 . S
C1698 C1701 1.530 . S
C1699 C1694 1.304 . S
C1699 C1698 1.339 . S
C1699 H1760 0.930 . S
C1700 C1696 1.617 . S
C1700 H1761 0.961 . S
C1700 H1762 0.960 . S
C1700 H1763 0.958 . S
C1701 C1698 1.530 . S
C1701 H1764 0.961 . S
C1701 H1765 0.960 . S
C1701 H1766 0.960 . S
C1702 C1703 1.515 1_455 S
C1702 H1768 0.961 . S
C1702 H1769 0.961 . S
C1702 H1770 0.959 . S
C1703 C1702 1.515 1_655 S
C1703 O1731 1.408 1_655 S
C1703 H1767 0.985 . S
C1704 C1705 1.288 . S
C1704 C1709 1.377 1_455 S
C1704 O1731 1.393 . S
C1705 C1704 1.288 . S
C1705 C1706 1.369 . S
C1705 H1771 0.932 . S
C1706 C1705 1.369 . S
C1706 C1707 1.398 1_455 S
C1706 C1710 1.527 . S
C1707 C1706 1.398 1_655 S
C1707 C1708 1.380 . S
C1707 C1721 1.497 . S
C1708 C1707 1.380 . S
C1708 C1709 1.383 . S
C1708 C1711 1.603 . S
C1709 C1704 1.377 1_655 S
C1709 C1708 1.383 . S
C1709 H1772 0.929 . S
C1710 C1706 1.527 . S
C1710 H1773 0.961 . S
C1710 H1774 0.959 . S
C1710 H1775 0.959 . S
C1711 C1708 1.603 . S
C1711 H1776 0.960 . S
C1711 H1777 0.962 . S
C1711 H1778 0.961 . S
C1712 C1679 1.520 1_655 S
C1712 C1713 1.360 . S
C1712 C1725 1.412 . S
C1713 C1712 1.360 . S
C1713 C1714 1.365 . S
C1713 H1779 0.929 . S
C1714 C1689 1.553 . S
C1714 C1713 1.365 . S
C1714 C1715 1.404 . S
C1715 C1714 1.404 . S
C1715 C1716 1.395 . S
C1715 C1726 1.451 . S
C1716 C1715 1.395 . S
C1716 C1717 1.322 . S
C1716 H1780 0.930 . S
C1717 C1716 1.322 . S
C1717 C1718 1.459 . S
C1717 H1781 0.929 . S
C1718 C1717 1.459 . S
C1718 C1719 1.445 . S
C1718 C1727 1.395 . S
C1719 C1697 1.432 . S
C1719 C1718 1.445 . S
C1719 C1720 1.370 . S
C1720 C1719 1.370 . S
C1720 C1721 1.438 . S
C1720 H1782 0.930 . S
C1721 C1707 1.497 . S
C1721 C1720 1.438 . S
C1721 C1722 1.360 . S
C1722 C1721 1.360 . S
C1722 C1723 1.401 . S
C1722 C1727 1.446 . S
C1723 C1722 1.401 . S
C1723 C1724 1.347 . S
C1723 H1783 0.929 . S
C1724 C1723 1.347 . S
C1724 C1725 1.455 . S
C1724 H1784 0.930 . S
C1725 C1712 1.412 . S
C1725 C1724 1.455 . S
C1725 C1726 1.331 . S
C1726 C1715 1.451 . S
C1726 C1725 1.331 . S
C1726 C1727 1.497 . S
C1727 C1718 1.395 . S
C1727 C1722 1.446 . S
C1727 C1726 1.497 . S
C1728 C1729 1.582 . S
C1728 H1785 0.962 . S
C1728 H1786 0.959 . S
C1728 H1787 0.958 . S
C1729 C1728 1.582 . S
C1729 O1732 1.458 . S
C1729 H1758 0.980 . S
O1730 C1675 1.426 . S
O1730 C1676 1.334 . S
O1731 C1703 1.408 1_455 S
O1731 C1704 1.393 . S
O1732 C1694 1.435 . S
O1732 C1729 1.458 . S
O1733 C1685 1.468 . S
O1733 C1686 1.408 . S
H1734 C1675 0.980 . S
H1735 C1674 0.959 . S
H1736 C1674 0.959 . S
H1737 C1674 0.960 . S
H1738 C1677 0.929 . S
H1739 C1681 0.929 . S
H1740 C1682 0.959 . S
H1741 C1682 0.961 . S
H1742 C1682 0.961 . S
H1743 C1683 0.960 . S
H1744 C1683 0.960 . S
H1745 C1683 0.961 . S
H1746 C1685 0.980 1_455 S
H1747 C1684 0.972 . S
H1748 C1684 0.960 . S
H1749 C1684 0.959 . S
H1750 C1687 0.930 1_455 S
H1751 C1691 0.931 . S
H1752 C1692 0.959 . S
H1753 C1692 0.961 . S
H1754 C1692 0.959 . S
H1755 C1693 0.960 . S
H1756 C1693 0.960 . S
H1757 C1693 0.960 . S
H1758 C1729 0.980 . S
H1759 C1695 0.930 1_455 S
H1760 C1699 0.930 . S
H1761 C1700 0.961 . S
H1762 C1700 0.960 . S
H1763 C1700 0.958 . S
H1764 C1701 0.961 . S
H1765 C1701 0.960 . S
H1766 C1701 0.960 . S
H1767 C1703 0.985 . S
H1768 C1702 0.961 . S
H1769 C1702 0.961 . S
H1770 C1702 0.959 . S
H1771 C1705 0.932 . S
H1772 C1709 0.929 . S
H1773 C1710 0.961 . S
H1774 C1710 0.959 . S
H1775 C1710 0.959 . S
H1776 C1711 0.960 . S
H1777 C1711 0.962 . S
H1778 C1711 0.961 . S
H1779 C1713 0.929 . S
H1780 C1716 0.930 . S
H1781 C1717 0.929 . S
H1782 C1720 0.930 . S
H1783 C1723 0.929 . S
H1784 C1724 0.930 . S
H1785 C1728 0.962 . S
H1786 C1728 0.959 . S
H1787 C1728 0.958 . S
C1788 C1789 1.560 . S
C1788 H1849 0.959 . S
C1788 H1850 0.959 . S
C1788 H1851 0.960 . S
C1789 C1788 1.560 . S
C1789 O1844 1.426 . S
C1789 H1848 0.980 . S
C1790 C1791 1.407 . S
C1790 C1795 1.418 . S
C1790 O1844 1.334 . S
C1791 C1790 1.407 . S
C1791 C1792 1.360 . S
C1791 H1852 0.929 . S
C1792 C1791 1.360 . S
C1792 C1793 1.401 . S
C1792 C1796 1.527 . S
C1793 C1792 1.401 . S
C1793 C1794 1.405 . S
C1793 C1826 1.587 . S
C1794 C1793 1.405 . S
C1794 C1795 1.332 . S
C1794 C1797 1.496 . S
C1795 C1790 1.418 . S
C1795 C1794 1.332 . S
C1795 H1853 0.929 . S
C1796 C1792 1.527 . S
C1796 H1854 0.959 . S
C1796 H1855 0.961 . S
C1796 H1856 0.961 . S
C1797 C1794 1.496 . S
C1797 H1857 0.960 . S
C1797 H1858 0.960 . S
C1797 H1859 0.961 . S
C1798 C1799 1.517 . S
C1798 H1861 0.961 . S
C1798 H1862 0.960 . S
C1798 H1863 0.959 . S
C1799 C1798 1.517 . S
C1799 O1847 1.468 . S
C1799 H1860 0.980 . S
C1800 C1801 1.349 . S
C1800 C1805 1.367 . S
C1800 O1847 1.408 . S
C1801 C1800 1.349 . S
C1801 C1802 1.407 . S
C1801 H1864 0.930 . S
C1802 C1801 1.407 . S
C1802 C1803 1.449 . S
C1802 C1806 1.535 . S
C1803 C1802 1.449 . S
C1803 C1804 1.384 . S
C1803 C1828 1.553 . S
C1804 C1803 1.384 . S
C1804 C1805 1.364 . S
C1804 C1807 1.450 . S
C1805 C1800 1.367 . S
C1805 C1804 1.364 . S
C1805 H1865 0.931 . S
C1806 C1802 1.535 . S
C1806 H1866 0.959 . S
C1806 H1867 0.961 . S
C1806 H1868 0.959 . S
C1807 C1804 1.450 . S
C1807 H1869 0.960 . S
C1807 H1870 0.960 . S
C1807 H1871 0.960 . S
C1808 C1809 1.309 . S
C1808 C1813 1.304 . S
C1808 O1846 1.435 . S
C1809 C1808 1.309 . S
C1809 C1810 1.476 . S
C1809 H1873 0.930 . S
C1810 C1809 1.476 . S
C1810 C1811 1.400 . S
C1810 C1814 1.567 . S
C1811 C1810 1.400 . S
C1811 C1812 1.373 . S
C1811 C1833 1.432 . S
C1812 C1811 1.373 . S
C1812 C1813 1.339 . S
C1812 C1815 1.530 . S
C1813 C1808 1.304 . S
C1813 C1812 1.339 . S
C1813 H1874 0.930 . S
C1814 C1810 1.567 . S
C1814 H1875 0.961 . S
C1814 H1876 0.960 . S
C1814 H1877 0.958 . S
C1815 C1812 1.530 . S
C1815 H1878 0.961 . S
C1815 H1879 0.960 . S
C1815 H1880 0.960 . S
C1816 C1817 1.530 . S
C1816 H1882 0.961 . S
C1816 H1883 0.961 . S
C1816 H1884 0.959 . S
C1817 C1816 1.530 . S
C1817 O1845 1.412 . S
C1817 H1881 0.980 . S
C1818 C1819 1.288 . S
C1818 C1823 1.377 . S
C1818 O1845 1.393 . S
C1819 C1818 1.288 . S
C1819 C1820 1.369 . S
C1819 H1885 0.932 . S
C1820 C1819 1.369 . S
C1820 C1821 1.398 . S
C1820 C1824 1.527 . S
C1821 C1820 1.398 . S
C1821 C1822 1.380 . S
C1821 C1835 1.497 . S
C1822 C1821 1.380 . S
C1822 C1823 1.383 . S
C1822 C1825 1.603 . S
C1823 C1818 1.377 . S
C1823 C1822 1.383 . S
C1823 H1886 0.929 . S
C1824 C1820 1.527 . S
C1824 H1887 0.961 . S
C1824 H1888 0.959 . S
C1824 H1889 0.959 . S
C1825 C1822 1.603 . S
C1825 H1890 0.960 . S
C1825 H1891 0.962 . S
C1825 H1892 0.961 . S
C1826 C1793 1.587 . S
C1826 C1827 1.360 . S
C1826 C1839 1.412 . S
C1827 C1826 1.360 . S
C1827 C1828 1.365 . S
C1827 H1893 0.929 . S
C1828 C1803 1.553 . S
C1828 C1827 1.365 . S
C1828 C1829 1.404 . S
C1829 C1828 1.404 . S
C1829 C1830 1.395 . S
C1829 C1840 1.451 . S
C1830 C1829 1.395 . S
C1830 C1831 1.322 . S
C1830 H1894 0.930 . S
C1831 C1830 1.322 . S
C1831 C1832 1.459 . S
C1831 H1895 0.929 . S
C1832 C1831 1.459 . S
C1832 C1833 1.445 . S
C1832 C1841 1.395 . S
C1833 C1811 1.432 . S
C1833 C1832 1.445 . S
C1833 C1834 1.370 . S
C1834 C1833 1.370 . S
C1834 C1835 1.438 . S
C1834 H1896 0.930 . S
C1835 C1821 1.497 . S
C1835 C1834 1.438 . S
C1835 C1836 1.360 . S
C1836 C1835 1.360 . S
C1836 C1837 1.401 . S
C1836 C1841 1.446 . S
C1837 C1836 1.401 . S
C1837 C1838 1.347 . S
C1837 H1897 0.929 . S
C1838 C1837 1.347 . S
C1838 C1839 1.455 . S
C1838 H1898 0.930 . S
C1839 C1826 1.412 . S
C1839 C1838 1.455 . S
C1839 C1840 1.331 . S
C1840 C1829 1.451 . S
C1840 C1839 1.331 . S
C1840 C1841 1.497 . S
C1841 C1832 1.395 . S
C1841 C1836 1.446 . S
C1841 C1840 1.497 . S
C1842 C1843 1.582 . S
C1842 H1899 0.962 . S
C1842 H1900 0.959 . S
C1842 H1901 0.958 . S
C1843 C1842 1.582 . S
C1843 O1846 1.458 . S
C1843 H1872 0.980 . S
O1844 C1789 1.426 . S
O1844 C1790 1.334 . S
O1845 C1817 1.412 . S
O1845 C1818 1.393 . S
O1846 C1808 1.435 . S
O1846 C1843 1.458 . S
O1847 C1799 1.468 . S
O1847 C1800 1.408 . S
H1848 C1789 0.980 . S
H1849 C1788 0.959 . S
H1850 C1788 0.959 . S
H1851 C1788 0.960 . S
H1852 C1791 0.929 . S
H1853 C1795 0.929 . S
H1854 C1796 0.959 . S
H1855 C1796 0.961 . S
H1856 C1796 0.961 . S
H1857 C1797 0.960 . S
H1858 C1797 0.960 . S
H1859 C1797 0.961 . S
H1860 C1799 0.980 . S
H1861 C1798 0.961 . S
H1862 C1798 0.960 . S
H1863 C1798 0.959 . S
H1864 C1801 0.930 . S
H1865 C1805 0.931 . S
H1866 C1806 0.959 . S
H1867 C1806 0.961 . S
H1868 C1806 0.959 . S
H1869 C1807 0.960 . S
H1870 C1807 0.960 . S
H1871 C1807 0.960 . S
H1872 C1843 0.980 . S
H1873 C1809 0.930 . S
H1874 C1813 0.930 . S
H1875 C1814 0.961 . S
H1876 C1814 0.960 . S
H1877 C1814 0.958 . S
H1878 C1815 0.961 . S
H1879 C1815 0.960 . S
H1880 C1815 0.960 . S
H1881 C1817 0.980 . S
H1882 C1816 0.961 . S
H1883 C1816 0.961 . S
H1884 C1816 0.959 . S
H1885 C1819 0.932 . S
H1886 C1823 0.929 . S
H1887 C1824 0.961 . S
H1888 C1824 0.959 . S
H1889 C1824 0.959 . S
H1890 C1825 0.960 . S
H1891 C1825 0.962 . S
H1892 C1825 0.961 . S
H1893 C1827 0.929 . S
H1894 C1830 0.930 . S
H1895 C1831 0.929 . S
H1896 C1834 0.930 . S
H1897 C1837 0.929 . S
H1898 C1838 0.930 . S
H1899 C1842 0.962 . S
H1900 C1842 0.959 . S
H1901 C1842 0.958 . S
C1902 C1903 1.560 . S
C1902 H1963 0.959 . S
C1902 H1964 0.959 . S
C1902 H1965 0.960 . S
C1903 C1902 1.560 . S
C1903 O1958 1.426 . S
C1903 H1962 0.980 . S
C1904 C1905 1.407 1_565 S
C1904 C1909 1.418 . S
C1904 O1958 1.334 . S
C1905 C1904 1.407 1_545 S
C1905 C1906 1.360 . S
C1905 H1966 0.929 . S
C1906 C1905 1.360 . S
C1906 C1907 1.401 1_545 S
C1906 C1910 1.527 . S
C1907 C1906 1.401 1_565 S
C1907 C1908 1.405 . S
C1907 C1940 1.587 1_565 S
C1908 C1907 1.405 . S
C1908 C1909 1.332 . S
C1908 C1911 1.496 . S
C1909 C1904 1.418 . S
C1909 C1908 1.332 . S
C1909 H1967 0.929 . S
C1910 C1906 1.527 . S
C1910 H1968 0.959 . S
C1910 H1969 0.961 . S
C1910 H1970 0.961 . S
C1911 C1908 1.496 . S
C1911 H1971 0.960 . S
C1911 H1972 0.960 . S
C1911 H1973 0.961 . S
C1912 C1913 1.517 . S
C1912 H1975 0.910 1_545 S
C1912 H1976 0.960 . S
C1912 H1977 0.959 . S
C1913 C1912 1.517 . S
C1913 O1961 1.468 . S
C1913 H1974 0.980 1_545 S
C1914 C1915 1.401 . S
C1914 C1919 1.367 . S
C1914 O1961 1.408 . S
C1915 C1914 1.401 . S
C1915 C1916 1.436 1_545 S
C1915 H1978 0.851 1_545 S
C1916 C1915 1.436 1_565 S
C1916 C1917 1.449 1_565 S
C1916 C1920 1.535 . S
C1917 C1916 1.449 1_545 S
C1917 C1918 1.384 . S
C1917 C1942 1.553 . S
C1918 C1917 1.384 . S
C1918 C1919 1.364 . S
C1918 C1921 1.450 . S
C1919 C1914 1.367 . S
C1919 C1918 1.364 . S
C1919 H1979 0.931 . S
C1920 C1916 1.535 . S
C1920 H1980 0.959 . S
C1920 H1981 0.961 . S
C1920 H1982 0.959 . S
C1921 C1918 1.450 . S
C1921 H1983 0.960 . S
C1921 H1984 0.960 . S
C1921 H1985 0.960 . S
C1922 C1923 1.309 . S
C1922 C1927 1.304 . S
C1922 O1960 1.435 . S
C1923 C1922 1.309 . S
C1923 C1924 1.487 1_545 S
C1923 H1987 0.930 1_545 S
C1924 C1923 1.487 1_565 S
C1924 C1925 1.363 1_565 S
C1924 C1928 1.593 . S
C1925 C1924 1.363 1_545 S
C1925 C1926 1.373 . S
C1925 C1947 1.432 . S
C1926 C1925 1.373 . S
C1926 C1927 1.339 . S
C1926 C1929 1.530 . S
C1927 C1922 1.304 . S
C1927 C1926 1.339 . S
C1927 H1988 0.930 . S
C1928 C1924 1.593 . S
C1928 H1989 0.961 . S
C1928 H1990 0.960 . S
C1928 H1991 0.958 . S
C1929 C1926 1.530 . S
C1929 H1992 0.961 . S
C1929 H1993 0.960 . S
C1929 H1994 0.960 . S
C1930 C1931 1.519 1_565 S
C1930 H1996 0.961 . S
C1930 H1997 0.961 . S
C1930 H1998 0.959 . S
C1931 C1930 1.519 1_545 S
C1931 O1959 1.318 1_545 S
C1931 H1995 1.033 . S
C1932 C1933 1.288 . S
C1932 C1937 1.377 1_565 S
C1932 O1959 1.393 . S
C1933 C1932 1.288 . S
C1933 C1934 1.369 . S
C1933 H1999 0.932 . S
C1934 C1933 1.369 . S
C1934 C1935 1.398 1_565 S
C1934 C1938 1.527 . S
C1935 C1934 1.398 1_545 S
C1935 C1936 1.380 . S
C1935 C1949 1.497 . S
C1936 C1935 1.380 . S
C1936 C1937 1.383 . S
C1936 C1939 1.603 . S
C1937 C1932 1.377 1_545 S
C1937 C1936 1.383 . S
C1937 H2000 0.929 . S
C1938 C1934 1.527 . S
C1938 H2001 0.961 . S
C1938 H2002 0.959 . S
C1938 H2003 0.959 . S
C1939 C1936 1.603 . S
C1939 H2004 0.960 . S
C1939 H2005 0.962 . S
C1939 H2006 0.961 . S
C1940 C1907 1.587 1_545 S
C1940 C1941 1.360 . S
C1940 C1953 1.412 . S
C1941 C1940 1.360 . S
C1941 C1942 1.365 . S
C1941 H2007 0.929 . S
C1942 C1917 1.553 . S
C1942 C1941 1.365 . S
C1942 C1943 1.404 . S
C1943 C1942 1.404 . S
C1943 C1944 1.395 . S
C1943 C1954 1.451 . S
C1944 C1943 1.395 . S
C1944 C1945 1.322 . S
C1944 H2008 0.930 . S
C1945 C1944 1.322 . S
C1945 C1946 1.459 . S
C1945 H2009 0.929 . S
C1946 C1945 1.459 . S
C1946 C1947 1.445 . S
C1946 C1955 1.395 . S
C1947 C1925 1.432 . S
C1947 C1946 1.445 . S
C1947 C1948 1.370 . S
C1948 C1947 1.370 . S
C1948 C1949 1.438 . S
C1948 H2010 0.930 . S
C1949 C1935 1.497 . S
C1949 C1948 1.438 . S
C1949 C1950 1.360 . S
C1950 C1949 1.360 . S
C1950 C1951 1.401 . S
C1950 C1955 1.446 . S
C1951 C1950 1.401 . S
C1951 C1952 1.347 . S
C1951 H2011 0.929 . S
C1952 C1951 1.347 . S
C1952 C1953 1.455 . S
C1952 H2012 0.930 . S
C1953 C1940 1.412 . S
C1953 C1952 1.455 . S
C1953 C1954 1.331 . S
C1954 C1943 1.451 . S
C1954 C1953 1.331 . S
C1954 C1955 1.497 . S
C1955 C1946 1.395 . S
C1955 C1950 1.446 . S
C1955 C1954 1.497 . S
C1956 C1957 1.582 . S
C1956 H2013 0.962 . S
C1956 H2014 0.959 . S
C1956 H2015 0.958 . S
C1957 C1956 1.582 . S
C1957 O1960 1.458 . S
C1957 H1986 0.980 . S
O1958 C1903 1.426 . S
O1958 C1904 1.334 . S
O1959 C1931 1.318 1_565 S
O1959 C1932 1.393 . S
O1960 C1922 1.435 . S
O1960 C1957 1.458 . S
O1961 C1913 1.468 . S
O1961 C1914 1.408 . S
H1962 C1903 0.980 . S
H1963 C1902 0.959 . S
H1964 C1902 0.959 . S
H1965 C1902 0.960 . S
H1966 C1905 0.929 . S
H1967 C1909 0.929 . S
H1968 C1910 0.959 . S
H1969 C1910 0.961 . S
H1970 C1910 0.961 . S
H1971 C1911 0.960 . S
H1972 C1911 0.960 . S
H1973 C1911 0.961 . S
H1974 C1913 0.980 1_565 S
H1975 C1912 0.910 1_565 S
H1976 C1912 0.960 . S
H1977 C1912 0.959 . S
H1978 C1915 0.851 1_565 S
H1979 C1919 0.931 . S
H1980 C1920 0.959 . S
H1981 C1920 0.961 . S
H1982 C1920 0.959 . S
H1983 C1921 0.960 . S
H1984 C1921 0.960 . S
H1985 C1921 0.960 . S
H1986 C1957 0.980 . S
H1987 C1923 0.930 1_565 S
H1988 C1927 0.930 . S
H1989 C1928 0.961 . S
H1990 C1928 0.960 . S
H1991 C1928 0.958 . S
H1992 C1929 0.961 . S
H1993 C1929 0.960 . S
H1994 C1929 0.960 . S
H1995 C1931 1.033 . S
H1996 C1930 0.961 . S
H1997 C1930 0.961 . S
H1998 C1930 0.959 . S
H1999 C1933 0.932 . S
H2000 C1937 0.929 . S
H2001 C1938 0.961 . S
H2002 C1938 0.959 . S
H2003 C1938 0.959 . S
H2004 C1939 0.960 . S
H2005 C1939 0.962 . S
H2006 C1939 0.961 . S
H2007 C1941 0.929 . S
H2008 C1944 0.930 . S
H2009 C1945 0.929 . S
H2010 C1948 0.930 . S
H2011 C1951 0.929 . S
H2012 C1952 0.930 . S
H2013 C1956 0.962 . S
H2014 C1956 0.959 . S
H2015 C1956 0.958 . S
C2016 C2017 1.560 . S
C2016 H2077 0.959 . S
C2016 H2078 0.959 . S
C2016 H2079 0.960 . S
C2017 C2016 1.560 . S
C2017 O2072 1.426 . S
C2017 H2076 0.980 1_565 S
C2018 C2019 1.407 1_565 S
C2018 C2023 1.418 . S
C2018 O2072 1.334 . S
C2019 C2018 1.407 1_545 S
C2019 C2020 1.360 . S
C2019 H2080 0.929 . S
C2020 C2019 1.360 . S
C2020 C2021 1.401 . S
C2020 C2024 1.527 . S
C2021 C2020 1.401 . S
C2021 C2022 1.405 1_545 S
C2021 C2054 1.587 . S
C2022 C2021 1.405 1_565 S
C2022 C2023 1.332 . S
C2022 C2025 1.496 . S
C2023 C2018 1.418 . S
C2023 C2022 1.332 . S
C2023 H2081 0.929 . S
C2024 C2020 1.527 . S
C2024 H2082 0.959 . S
C2024 H2083 0.961 . S
C2024 H2084 0.961 . S
C2025 C2022 1.496 . S
C2025 H2085 0.960 . S
C2025 H2086 0.960 . S
C2025 H2087 0.961 . S
C2026 C2027 1.517 . S
C2026 H2089 0.961 . S
C2026 H2090 0.960 . S
C2026 H2091 0.959 . S
C2027 C2026 1.517 . S
C2027 O2075 1.468 . S
C2027 H2088 0.980 . S
C2028 C2029 1.349 . S
C2028 C2033 1.367 . S
C2028 O2075 1.408 . S
C2029 C2028 1.349 . S
C2029 C2030 1.407 . S
C2029 H2092 0.918 1_545 S
C2030 C2029 1.407 . S
C2030 C2031 1.449 . S
C2030 C2034 1.535 1_545 S
C2031 C2030 1.449 . S
C2031 C2032 1.384 . S
C2031 C2056 1.553 . S
C2032 C2031 1.384 . S
C2032 C2033 1.364 . S
C2032 C2035 1.450 . S
C2033 C2028 1.367 . S
C2033 C2032 1.364 . S
C2033 H2093 0.931 . S
C2034 C2030 1.535 1_565 S
C2034 H2094 0.959 . S
C2034 H2095 0.961 . S
C2034 H2096 0.959 . S
C2035 C2032 1.450 . S
C2035 H2097 0.960 . S
C2035 H2098 0.960 . S
C2035 H2099 0.960 . S
C2036 C2037 1.309 1_545 S
C2036 C2041 1.304 . S
C2036 O2074 1.435 . S
C2037 C2036 1.309 1_565 S
C2037 C2038 1.476 . S
C2037 H2101 0.930 . S
C2038 C2037 1.476 . S
C2038 C2039 1.400 1_565 S
C2038 C2042 1.567 . S
C2039 C2038 1.400 1_545 S
C2039 C2040 1.373 . S
C2039 C2061 1.432 . S
C2040 C2039 1.373 . S
C2040 C2041 1.339 . S
C2040 C2043 1.530 . S
C2041 C2036 1.304 . S
C2041 C2040 1.339 . S
C2041 H2102 0.930 . S
C2042 C2038 1.567 . S
C2042 H2103 0.961 . S
C2042 H2104 0.960 . S
C2042 H2105 0.958 . S
C2043 C2040 1.530 . S
C2043 H2106 0.961 . S
C2043 H2107 0.960 . S
C2043 H2108 0.960 . S
C2044 C2045 1.530 . S
C2044 H2110 0.961 . S
C2044 H2111 0.961 . S
C2044 H2112 0.959 . S
C2045 C2044 1.530 . S
C2045 O2073 1.412 . S
C2045 H2109 0.977 . S
C2046 C2047 1.288 . S
C2046 C2051 1.377 1_565 S
C2046 O2073 1.393 . S
C2047 C2046 1.288 . S
C2047 C2048 1.369 . S
C2047 H2113 0.932 . S
C2048 C2047 1.369 . S
C2048 C2049 1.398 . S
C2048 C2052 1.527 . S
C2049 C2048 1.398 . S
C2049 C2050 1.380 1_565 S
C2049 C2063 1.497 1_565 S
C2050 C2049 1.380 1_545 S
C2050 C2051 1.383 . S
C2050 C2053 1.603 . S
C2051 C2046 1.377 1_545 S
C2051 C2050 1.383 . S
C2051 H2114 0.929 . S
C2052 C2048 1.527 . S
C2052 H2115 0.961 . S
C2052 H2116 0.959 . S
C2052 H2117 0.959 . S
C2053 C2050 1.603 . S
C2053 H2118 0.960 . S
C2053 H2119 0.962 . S
C2053 H2120 0.961 . S
C2054 C2021 1.587 . S
C2054 C2055 1.360 . S
C2054 C2067 1.412 . S
C2055 C2054 1.360 . S
C2055 C2056 1.365 . S
C2055 H2121 0.929 . S
C2056 C2031 1.553 . S
C2056 C2055 1.365 . S
C2056 C2057 1.404 . S
C2057 C2056 1.404 . S
C2057 C2058 1.395 . S
C2057 C2068 1.451 . S
C2058 C2057 1.395 . S
C2058 C2059 1.322 . S
C2058 H2122 0.930 . S
C2059 C2058 1.322 . S
C2059 C2060 1.459 . S
C2059 H2123 0.929 . S
C2060 C2059 1.459 . S
C2060 C2061 1.445 . S
C2060 C2069 1.395 . S
C2061 C2039 1.432 . S
C2061 C2060 1.445 . S
C2061 C2062 1.370 . S
C2062 C2061 1.370 . S
C2062 C2063 1.438 . S
C2062 H2124 0.930 . S
C2063 C2049 1.497 1_545 S
C2063 C2062 1.438 . S
C2063 C2064 1.360 . S
C2064 C2063 1.360 . S
C2064 C2065 1.401 . S
C2064 C2069 1.446 . S
C2065 C2064 1.401 . S
C2065 C2066 1.347 . S
C2065 H2125 0.980 . S
C2066 C2065 1.347 . S
C2066 C2067 1.455 . S
C2066 H2126 0.930 . S
C2067 C2054 1.412 . S
C2067 C2066 1.455 . S
C2067 C2068 1.331 . S
C2068 C2057 1.451 . S
C2068 C2067 1.331 . S
C2068 C2069 1.497 . S
C2069 C2060 1.395 . S
C2069 C2064 1.446 . S
C2069 C2068 1.497 . S
C2070 C2071 1.598 . S
C2070 H2127 0.962 . S
C2070 H2128 0.959 . S
C2070 H2129 0.958 . S
C2071 C2070 1.598 . S
C2071 O2074 1.465 . S
C2071 H2100 0.980 1_545 S
O2072 C2017 1.426 . S
O2072 C2018 1.334 . S
O2073 C2045 1.412 . S
O2073 C2046 1.393 . S
O2074 C2036 1.435 . S
O2074 C2071 1.465 . S
O2075 C2027 1.468 . S
O2075 C2028 1.408 . S
H2076 C2017 0.980 1_545 S
H2077 C2016 0.959 . S
H2078 C2016 0.959 . S
H2079 C2016 0.960 . S
H2080 C2019 0.929 . S
H2081 C2023 0.929 . S
H2082 C2024 0.959 . S
H2083 C2024 0.961 . S
H2084 C2024 0.961 . S
H2085 C2025 0.960 . S
H2086 C2025 0.960 . S
H2087 C2025 0.961 . S
H2088 C2027 0.980 . S
H2089 C2026 0.961 . S
H2090 C2026 0.960 . S
H2091 C2026 0.959 . S
H2092 C2029 0.918 1_565 S
H2093 C2033 0.931 . S
H2094 C2034 0.959 . S
H2095 C2034 0.961 . S
H2096 C2034 0.959 . S
H2097 C2035 0.960 . S
H2098 C2035 0.960 . S
H2099 C2035 0.960 . S
H2100 C2071 0.980 1_565 S
H2101 C2037 0.930 . S
H2102 C2041 0.930 . S
H2103 C2042 0.961 . S
H2104 C2042 0.960 . S
H2105 C2042 0.958 . S
H2106 C2043 0.961 . S
H2107 C2043 0.960 . S
H2108 C2043 0.960 . S
H2109 C2045 0.977 . S
H2110 C2044 0.961 . S
H2111 C2044 0.961 . S
H2112 C2044 0.959 . S
H2113 C2047 0.932 . S
H2114 C2051 0.929 . S
H2115 C2052 0.961 . S
H2116 C2052 0.959 . S
H2117 C2052 0.959 . S
H2118 C2053 0.960 . S
H2119 C2053 0.962 . S
H2120 C2053 0.961 . S
H2121 C2055 0.929 . S
H2122 C2058 0.930 . S
H2123 C2059 0.929 . S
H2124 C2062 0.930 . S
H2125 C2065 0.980 . S
H2126 C2066 0.930 . S
H2127 C2070 0.962 . S
H2128 C2070 0.959 . S
H2129 C2070 0.958 . S
C2130 C2131 1.560 . S
C2130 H2191 0.959 . S
C2130 H2192 0.959 . S
C2130 H2193 0.960 . S
C2131 C2130 1.560 . S
C2131 O2186 1.426 . S
C2131 H2190 0.980 1_455 S
C2132 C2133 1.407 1_455 S
C2132 C2137 1.418 . S
C2132 O2186 1.334 . S
C2133 C2132 1.407 1_655 S
C2133 C2134 1.360 . S
C2133 H2194 0.929 . S
C2134 C2133 1.360 . S
C2134 C2135 1.401 . S
C2134 C2138 1.527 . S
C2135 C2134 1.401 . S
C2135 C2136 1.405 1_655 S
C2135 C2168 1.587 . S
C2136 C2135 1.405 1_455 S
C2136 C2137 1.332 . S
C2136 C2139 1.496 . S
C2137 C2132 1.418 . S
C2137 C2136 1.332 . S
C2137 H2195 0.929 . S
C2138 C2134 1.527 . S
C2138 H2196 0.959 . S
C2138 H2197 0.961 . S
C2138 H2198 0.961 . S
C2139 C2136 1.496 . S
C2139 H2199 0.960 . S
C2139 H2200 0.960 . S
C2139 H2201 0.961 . S
C2140 C2141 1.517 . S
C2140 H2203 0.961 . S
C2140 H2204 0.960 . S
C2140 H2205 0.959 . S
C2141 C2140 1.517 . S
C2141 O2189 1.468 . S
C2141 H2202 0.980 . S
C2142 C2143 1.349 . S
C2142 C2147 1.367 . S
C2142 O2189 1.408 . S
C2143 C2142 1.349 . S
C2143 C2144 1.407 . S
C2143 H2206 0.958 . S
C2144 C2143 1.407 . S
C2144 C2145 1.449 . S
C2144 C2148 1.535 1_655 S
C2145 C2144 1.449 . S
C2145 C2146 1.384 . S
C2145 C2170 1.553 . S
C2146 C2145 1.384 . S
C2146 C2147 1.364 . S
C2146 C2149 1.450 . S
C2147 C2142 1.367 . S
C2147 C2146 1.364 . S
C2147 H2207 0.931 . S
C2148 C2144 1.535 1_455 S
C2148 H2208 0.959 . S
C2148 H2209 0.961 . S
C2148 H2210 0.959 . S
C2149 C2146 1.450 . S
C2149 H2211 0.960 . S
C2149 H2212 0.960 . S
C2149 H2213 0.960 . S
C2150 C2151 1.309 1_655 S
C2150 C2155 1.304 . S
C2150 O2188 1.435 . S
C2151 C2150 1.309 1_455 S
C2151 C2152 1.476 . S
C2151 H2215 0.930 . S
C2152 C2151 1.476 . S
C2152 C2153 1.400 1_455 S
C2152 C2156 1.567 . S
C2153 C2152 1.400 1_655 S
C2153 C2154 1.373 . S
C2153 C2175 1.432 . S
C2154 C2153 1.373 . S
C2154 C2155 1.339 . S
C2154 C2157 1.530 . S
C2155 C2150 1.304 . S
C2155 C2154 1.339 . S
C2155 H2216 0.930 . S
C2156 C2152 1.567 . S
C2156 H2217 0.961 . S
C2156 H2218 0.960 . S
C2156 H2219 0.958 . S
C2157 C2154 1.530 . S
C2157 H2220 0.961 . S
C2157 H2221 0.960 . S
C2157 H2222 0.960 . S
C2158 C2159 1.530 . S
C2158 H2224 0.961 . S
C2158 H2225 0.961 . S
C2158 H2226 0.959 . S
C2159 C2158 1.530 . S
C2159 O2187 1.412 . S
C2159 H2223 1.026 . S
C2160 C2161 1.288 . S
C2160 C2165 1.377 1_455 S
C2160 O2187 1.393 . S
C2161 C2160 1.288 . S
C2161 C2162 1.369 . S
C2161 H2227 0.932 . S
C2162 C2161 1.369 . S
C2162 C2163 1.398 . S
C2162 C2166 1.527 . S
C2163 C2162 1.398 . S
C2163 C2164 1.380 1_455 S
C2163 C2177 1.497 1_455 S
C2164 C2163 1.380 1_655 S
C2164 C2165 1.383 . S
C2164 C2167 1.603 . S
C2165 C2160 1.377 1_655 S
C2165 C2164 1.383 . S
C2165 H2228 0.929 . S
C2166 C2162 1.527 . S
C2166 H2229 0.961 . S
C2166 H2230 0.959 . S
C2166 H2231 0.959 . S
C2167 C2164 1.603 . S
C2167 H2232 0.960 . S
C2167 H2233 0.962 . S
C2167 H2234 0.961 . S
C2168 C2135 1.587 . S
C2168 C2169 1.360 . S
C2168 C2181 1.412 . S
C2169 C2168 1.360 . S
C2169 C2170 1.365 . S
C2169 H2235 0.929 . S
C2170 C2145 1.553 . S
C2170 C2169 1.365 . S
C2170 C2171 1.404 . S
C2171 C2170 1.404 . S
C2171 C2172 1.395 . S
C2171 C2182 1.451 . S
C2172 C2171 1.395 . S
C2172 C2173 1.322 . S
C2172 H2236 0.930 . S
C2173 C2172 1.322 . S
C2173 C2174 1.459 . S
C2173 H2237 0.929 . S
C2174 C2173 1.459 . S
C2174 C2175 1.445 . S
C2174 C2183 1.395 . S
C2175 C2153 1.432 . S
C2175 C2174 1.445 . S
C2175 C2176 1.370 . S
C2176 C2175 1.370 . S
C2176 C2177 1.438 . S
C2176 H2238 0.930 . S
C2177 C2163 1.497 1_655 S
C2177 C2176 1.438 . S
C2177 C2178 1.360 . S
C2178 C2177 1.360 . S
C2178 C2179 1.401 . S
C2178 C2183 1.446 . S
C2179 C2178 1.401 . S
C2179 C2180 1.347 . S
C2179 H2239 0.916 . S
C2180 C2179 1.347 . S
C2180 C2181 1.455 . S
C2180 H2240 0.930 . S
C2181 C2168 1.412 . S
C2181 C2180 1.455 . S
C2181 C2182 1.331 . S
C2182 C2171 1.451 . S
C2182 C2181 1.331 . S
C2182 C2183 1.497 . S
C2183 C2174 1.395 . S
C2183 C2178 1.446 . S
C2183 C2182 1.497 . S
C2184 C2185 1.581 1_655 S
C2184 H2241 0.997 . S
C2184 H2242 0.959 . S
C2184 H2243 0.958 . S
C2185 C2184 1.581 1_455 S
C2185 O2188 1.444 1_455 S
C2185 H2214 0.985 . S
O2186 C2131 1.426 . S
O2186 C2132 1.334 . S
O2187 C2159 1.412 . S
O2187 C2160 1.393 . S
O2188 C2150 1.435 . S
O2188 C2185 1.444 1_655 S
O2189 C2141 1.468 . S
O2189 C2142 1.408 . S
H2190 C2131 0.980 1_655 S
H2191 C2130 0.959 . S
H2192 C2130 0.959 . S
H2193 C2130 0.960 . S
H2194 C2133 0.929 . S
H2195 C2137 0.929 . S
H2196 C2138 0.959 . S
H2197 C2138 0.961 . S
H2198 C2138 0.961 . S
H2199 C2139 0.960 . S
H2200 C2139 0.960 . S
H2201 C2139 0.961 . S
H2202 C2141 0.980 . S
H2203 C2140 0.961 . S
H2204 C2140 0.960 . S
H2205 C2140 0.959 . S
H2206 C2143 0.958 . S
H2207 C2147 0.931 . S
H2208 C2148 0.959 . S
H2209 C2148 0.961 . S
H2210 C2148 0.959 . S
H2211 C2149 0.960 . S
H2212 C2149 0.960 . S
H2213 C2149 0.960 . S
H2214 C2185 0.985 . S
H2215 C2151 0.930 . S
H2216 C2155 0.930 . S
H2217 C2156 0.961 . S
H2218 C2156 0.960 . S
H2219 C2156 0.958 . S
H2220 C2157 0.961 . S
H2221 C2157 0.960 . S
H2222 C2157 0.960 . S
H2223 C2159 1.026 . S
H2224 C2158 0.961 . S
H2225 C2158 0.961 . S
H2226 C2158 0.959 . S
H2227 C2161 0.932 . S
H2228 C2165 0.929 . S
H2229 C2166 0.961 . S
H2230 C2166 0.959 . S
H2231 C2166 0.959 . S
H2232 C2167 0.960 . S
H2233 C2167 0.962 . S
H2234 C2167 0.961 . S
H2235 C2169 0.929 . S
H2236 C2172 0.930 . S
H2237 C2173 0.929 . S
H2238 C2176 0.930 . S
H2239 C2179 0.916 . S
H2240 C2180 0.930 . S
H2241 C2184 0.997 . S
H2242 C2184 0.959 . S
H2243 C2184 0.958 . S
C2244 C2245 1.560 . S
C2244 H2305 0.959 . S
C2244 H2306 0.959 . S
C2244 H2307 0.960 . S
C2245 C2244 1.560 . S
C2245 O2300 1.426 . S
C2245 H2304 0.980 . S
C2246 C2247 1.407 . S
C2246 C2251 1.418 . S
C2246 O2300 1.334 . S
C2247 C2246 1.407 . S
C2247 C2248 1.360 . S
C2247 H2308 0.929 . S
C2248 C2247 1.360 . S
C2248 C2249 1.401 . S
C2248 C2252 1.527 . S
C2249 C2248 1.401 . S
C2249 C2250 1.405 . S
C2249 C2282 1.587 . S
C2250 C2249 1.405 . S
C2250 C2251 1.332 . S
C2250 C2253 1.496 . S
C2251 C2246 1.418 . S
C2251 C2250 1.332 . S
C2251 H2309 0.929 . S
C2252 C2248 1.527 . S
C2252 H2310 0.959 . S
C2252 H2311 0.961 . S
C2252 H2312 0.961 . S
C2253 C2250 1.496 . S
C2253 H2313 0.960 . S
C2253 H2314 0.960 . S
C2253 H2315 0.961 . S
C2254 C2255 1.517 . S
C2254 H2317 0.961 . S
C2254 H2318 0.960 . S
C2254 H2319 0.959 . S
C2255 C2254 1.517 . S
C2255 O2303 1.468 . S
C2255 H2316 0.980 . S
C2256 C2257 1.349 . S
C2256 C2261 1.367 . S
C2256 O2303 1.408 . S
C2257 C2256 1.349 . S
C2257 C2258 1.407 . S
C2257 H2320 0.930 . S
C2258 C2257 1.407 . S
C2258 C2259 1.449 . S
C2258 C2262 1.535 . S
C2259 C2258 1.449 . S
C2259 C2260 1.384 . S
C2259 C2284 1.553 . S
C2260 C2259 1.384 . S
C2260 C2261 1.364 . S
C2260 C2263 1.450 . S
C2261 C2256 1.367 . S
C2261 C2260 1.364 . S
C2261 H2321 0.931 . S
C2262 C2258 1.535 . S
C2262 H2322 0.959 . S
C2262 H2323 0.961 . S
C2262 H2324 0.959 . S
C2263 C2260 1.450 . S
C2263 H2325 0.960 . S
C2263 H2326 0.960 . S
C2263 H2327 0.960 . S
C2264 C2265 1.309 . S
C2264 C2269 1.304 . S
C2264 O2302 1.435 . S
C2265 C2264 1.309 . S
C2265 C2266 1.476 . S
C2265 H2329 0.930 . S
C2266 C2265 1.476 . S
C2266 C2267 1.400 . S
C2266 C2270 1.567 . S
C2267 C2266 1.400 . S
C2267 C2268 1.373 . S
C2267 C2289 1.432 . S
C2268 C2267 1.373 . S
C2268 C2269 1.339 . S
C2268 C2271 1.530 . S
C2269 C2264 1.304 . S
C2269 C2268 1.339 . S
C2269 H2330 0.930 . S
C2270 C2266 1.567 . S
C2270 H2331 0.961 . S
C2270 H2332 0.960 . S
C2270 H2333 0.958 . S
C2271 C2268 1.530 . S
C2271 H2334 0.961 . S
C2271 H2335 0.960 . S
C2271 H2336 0.960 . S
C2272 C2273 1.530 . S
C2272 H2338 0.961 . S
C2272 H2339 0.961 . S
C2272 H2340 0.959 . S
C2273 C2272 1.530 . S
C2273 O2301 1.412 . S
C2273 H2337 0.980 . S
C2274 C2275 1.288 . S
C2274 C2279 1.377 . S
C2274 O2301 1.393 . S
C2275 C2274 1.288 . S
C2275 C2276 1.369 . S
C2275 H2341 0.932 . S
C2276 C2275 1.369 . S
C2276 C2277 1.398 . S
C2276 C2280 1.527 . S
C2277 C2276 1.398 . S
C2277 C2278 1.380 . S
C2277 C2291 1.497 . S
C2278 C2277 1.380 . S
C2278 C2279 1.383 . S
C2278 C2281 1.603 . S
C2279 C2274 1.377 . S
C2279 C2278 1.383 . S
C2279 H2342 0.929 . S
C2280 C2276 1.527 . S
C2280 H2343 0.961 . S
C2280 H2344 0.959 . S
C2280 H2345 0.959 . S
C2281 C2278 1.603 . S
C2281 H2346 0.960 . S
C2281 H2347 0.962 . S
C2281 H2348 0.961 . S
C2282 C2249 1.587 . S
C2282 C2283 1.360 . S
C2282 C2295 1.412 . S
C2283 C2282 1.360 . S
C2283 C2284 1.365 . S
C2283 H2349 0.929 . S
C2284 C2259 1.553 . S
C2284 C2283 1.365 . S
C2284 C2285 1.404 . S
C2285 C2284 1.404 . S
C2285 C2286 1.395 . S
C2285 C2296 1.451 . S
C2286 C2285 1.395 . S
C2286 C2287 1.322 . S
C2286 H2350 0.930 . S
C2287 C2286 1.322 . S
C2287 C2288 1.459 . S
C2287 H2351 0.929 . S
C2288 C2287 1.459 . S
C2288 C2289 1.445 . S
C2288 C2297 1.395 . S
C2289 C2267 1.432 . S
C2289 C2288 1.445 . S
C2289 C2290 1.370 . S
C2290 C2289 1.370 . S
C2290 C2291 1.438 . S
C2290 H2352 0.930 . S
C2291 C2277 1.497 . S
C2291 C2290 1.438 . S
C2291 C2292 1.360 . S
C2292 C2291 1.360 . S
C2292 C2293 1.401 . S
C2292 C2297 1.446 . S
C2293 C2292 1.401 . S
C2293 C2294 1.347 . S
C2293 H2353 0.929 . S
C2294 C2293 1.347 . S
C2294 C2295 1.455 . S
C2294 H2354 0.930 . S
C2295 C2282 1.412 . S
C2295 C2294 1.455 . S
C2295 C2296 1.331 . S
C2296 C2285 1.451 . S
C2296 C2295 1.331 . S
C2296 C2297 1.497 . S
C2297 C2288 1.395 . S
C2297 C2292 1.446 . S
C2297 C2296 1.497 . S
C2298 C2299 1.582 . S
C2298 H2355 0.962 . S
C2298 H2356 0.959 . S
C2298 H2357 0.958 . S
C2299 C2298 1.582 . S
C2299 O2302 1.458 . S
C2299 H2328 0.980 . S
O2300 C2245 1.426 . S
O2300 C2246 1.334 . S
O2301 C2273 1.412 . S
O2301 C2274 1.393 . S
O2302 C2264 1.435 . S
O2302 C2299 1.458 . S
O2303 C2255 1.468 . S
O2303 C2256 1.408 . S
H2304 C2245 0.980 . S
H2305 C2244 0.959 . S
H2306 C2244 0.959 . S
H2307 C2244 0.960 . S
H2308 C2247 0.929 . S
H2309 C2251 0.929 . S
H2310 C2252 0.959 . S
H2311 C2252 0.961 . S
H2312 C2252 0.961 . S
H2313 C2253 0.960 . S
H2314 C2253 0.960 . S
H2315 C2253 0.961 . S
H2316 C2255 0.980 . S
H2317 C2254 0.961 . S
H2318 C2254 0.960 . S
H2319 C2254 0.959 . S
H2320 C2257 0.930 . S
H2321 C2261 0.931 . S
H2322 C2262 0.959 . S
H2323 C2262 0.961 . S
H2324 C2262 0.959 . S
H2325 C2263 0.960 . S
H2326 C2263 0.960 . S
H2327 C2263 0.960 . S
H2328 C2299 0.980 . S
H2329 C2265 0.930 . S
H2330 C2269 0.930 . S
H2331 C2270 0.961 . S
H2332 C2270 0.960 . S
H2333 C2270 0.958 . S
H2334 C2271 0.961 . S
H2335 C2271 0.960 . S
H2336 C2271 0.960 . S
H2337 C2273 0.980 . S
H2338 C2272 0.961 . S
H2339 C2272 0.961 . S
H2340 C2272 0.959 . S
H2341 C2275 0.932 . S
H2342 C2279 0.929 . S
H2343 C2280 0.961 . S
H2344 C2280 0.959 . S
H2345 C2280 0.959 . S
H2346 C2281 0.960 . S
H2347 C2281 0.962 . S
H2348 C2281 0.961 . S
H2349 C2283 0.929 . S
H2350 C2286 0.930 . S
H2351 C2287 0.929 . S
H2352 C2290 0.930 . S
H2353 C2293 0.929 . S
H2354 C2294 0.930 . S
H2355 C2298 0.962 . S
H2356 C2298 0.959 . S
H2357 C2298 0.958 . S
C2358 C2359 1.560 . S
C2358 H2419 0.959 . S
C2358 H2420 0.959 . S
C2358 H2421 0.960 . S
C2359 C2358 1.560 . S
C2359 O2414 1.426 . S
C2359 H2418 0.980 . S
C2360 C2361 1.407 . S
C2360 C2365 1.418 . S
C2360 O2414 1.334 . S
C2361 C2360 1.407 . S
C2361 C2362 1.360 . S
C2361 H2422 0.929 . S
C2362 C2361 1.360 . S
C2362 C2363 1.401 . S
C2362 C2366 1.527 . S
C2363 C2362 1.401 . S
C2363 C2364 1.405 . S
C2363 C2396 1.587 . S
C2364 C2363 1.405 . S
C2364 C2365 1.332 . S
C2364 C2367 1.496 . S
C2365 C2360 1.418 . S
C2365 C2364 1.332 . S
C2365 H2423 0.929 . S
C2366 C2362 1.527 . S
C2366 H2424 0.959 . S
C2366 H2425 0.961 . S
C2366 H2426 0.961 . S
C2367 C2364 1.496 . S
C2367 H2427 0.960 . S
C2367 H2428 0.960 . S
C2367 H2429 0.961 . S
C2368 C2369 1.517 . S
C2368 H2431 0.961 . S
C2368 H2432 0.960 . S
C2368 H2433 0.959 . S
C2369 C2368 1.517 . S
C2369 O2417 1.468 . S
C2369 H2430 0.980 . S
C2370 C2371 1.349 . S
C2370 C2375 1.367 . S
C2370 O2417 1.408 . S
C2371 C2370 1.349 . S
C2371 C2372 1.407 . S
C2371 H2434 0.930 . S
C2372 C2371 1.407 . S
C2372 C2373 1.449 . S
C2372 C2376 1.535 . S
C2373 C2372 1.449 . S
C2373 C2374 1.384 . S
C2373 C2398 1.553 . S
C2374 C2373 1.384 . S
C2374 C2375 1.364 . S
C2374 C2377 1.450 . S
C2375 C2370 1.367 . S
C2375 C2374 1.364 . S
C2375 H2435 0.931 . S
C2376 C2372 1.535 . S
C2376 H2436 0.959 . S
C2376 H2437 0.961 . S
C2376 H2438 0.959 . S
C2377 C2374 1.450 . S
C2377 H2439 0.960 . S
C2377 H2440 0.960 . S
C2377 H2441 0.960 . S
C2378 C2379 1.309 . S
C2378 C2383 1.304 . S
C2378 O2416 1.435 . S
C2379 C2378 1.309 . S
C2379 C2380 1.476 . S
C2379 H2443 0.930 . S
C2380 C2379 1.476 . S
C2380 C2381 1.400 . S
C2380 C2384 1.567 . S
C2381 C2380 1.400 . S
C2381 C2382 1.373 . S
C2381 C2403 1.432 . S
C2382 C2381 1.373 . S
C2382 C2383 1.339 . S
C2382 C2385 1.530 . S
C2383 C2378 1.304 . S
C2383 C2382 1.339 . S
C2383 H2444 0.930 . S
C2384 C2380 1.567 . S
C2384 H2445 0.961 . S
C2384 H2446 0.960 . S
C2384 H2447 0.958 . S
C2385 C2382 1.530 . S
C2385 H2448 0.961 . S
C2385 H2449 0.960 . S
C2385 H2450 0.960 . S
C2386 C2387 1.530 . S
C2386 H2452 0.961 . S
C2386 H2453 0.961 . S
C2386 H2454 0.959 . S
C2387 C2386 1.530 . S
C2387 O2415 1.412 . S
C2387 H2451 0.980 . S
C2388 C2389 1.288 . S
C2388 C2393 1.377 . S
C2388 O2415 1.393 . S
C2389 C2388 1.288 . S
C2389 C2390 1.369 . S
C2389 H2455 0.932 . S
C2390 C2389 1.369 . S
C2390 C2391 1.398 . S
C2390 C2394 1.527 . S
C2391 C2390 1.398 . S
C2391 C2392 1.380 . S
C2391 C2405 1.497 . S
C2392 C2391 1.380 . S
C2392 C2393 1.383 . S
C2392 C2395 1.603 . S
C2393 C2388 1.377 . S
C2393 C2392 1.383 . S
C2393 H2456 0.929 . S
C2394 C2390 1.527 . S
C2394 H2457 0.961 . S
C2394 H2458 0.959 . S
C2394 H2459 0.959 . S
C2395 C2392 1.603 . S
C2395 H2460 0.960 . S
C2395 H2461 0.962 . S
C2395 H2462 0.961 . S
C2396 C2363 1.587 . S
C2396 C2397 1.360 . S
C2396 C2409 1.412 . S
C2397 C2396 1.360 . S
C2397 C2398 1.365 . S
C2397 H2463 0.929 . S
C2398 C2373 1.553 . S
C2398 C2397 1.365 . S
C2398 C2399 1.404 . S
C2399 C2398 1.404 . S
C2399 C2400 1.395 . S
C2399 C2410 1.451 . S
C2400 C2399 1.395 . S
C2400 C2401 1.322 . S
C2400 H2464 0.930 . S
C2401 C2400 1.322 . S
C2401 C2402 1.459 . S
C2401 H2465 0.929 . S
C2402 C2401 1.459 . S
C2402 C2403 1.445 . S
C2402 C2411 1.395 . S
C2403 C2381 1.432 . S
C2403 C2402 1.445 . S
C2403 C2404 1.370 . S
C2404 C2403 1.370 . S
C2404 C2405 1.438 . S
C2404 H2466 0.930 . S
C2405 C2391 1.497 . S
C2405 C2404 1.438 . S
C2405 C2406 1.360 . S
C2406 C2405 1.360 . S
C2406 C2407 1.401 . S
C2406 C2411 1.446 . S
C2407 C2406 1.401 . S
C2407 C2408 1.347 . S
C2407 H2467 0.929 . S
C2408 C2407 1.347 . S
C2408 C2409 1.455 . S
C2408 H2468 0.930 . S
C2409 C2396 1.412 . S
C2409 C2408 1.455 . S
C2409 C2410 1.331 . S
C2410 C2399 1.451 . S
C2410 C2409 1.331 . S
C2410 C2411 1.497 . S
C2411 C2402 1.395 . S
C2411 C2406 1.446 . S
C2411 C2410 1.497 . S
C2412 C2413 1.582 . S
C2412 H2469 0.962 . S
C2412 H2470 0.959 . S
C2412 H2471 0.958 . S
C2413 C2412 1.582 . S
C2413 O2416 1.458 . S
C2413 H2442 0.980 . S
O2414 C2359 1.426 . S
O2414 C2360 1.334 . S
O2415 C2387 1.412 . S
O2415 C2388 1.393 . S
O2416 C2378 1.435 . S
O2416 C2413 1.458 . S
O2417 C2369 1.468 . S
O2417 C2370 1.408 . S
H2418 C2359 0.980 . S
H2419 C2358 0.959 . S
H2420 C2358 0.959 . S
H2421 C2358 0.960 . S
H2422 C2361 0.929 . S
H2423 C2365 0.929 . S
H2424 C2366 0.959 . S
H2425 C2366 0.961 . S
H2426 C2366 0.961 . S
H2427 C2367 0.960 . S
H2428 C2367 0.960 . S
H2429 C2367 0.961 . S
H2430 C2369 0.980 . S
H2431 C2368 0.961 . S
H2432 C2368 0.960 . S
H2433 C2368 0.959 . S
H2434 C2371 0.930 . S
H2435 C2375 0.931 . S
H2436 C2376 0.959 . S
H2437 C2376 0.961 . S
H2438 C2376 0.959 . S
H2439 C2377 0.960 . S
H2440 C2377 0.960 . S
H2441 C2377 0.960 . S
H2442 C2413 0.980 . S
H2443 C2379 0.930 . S
H2444 C2383 0.930 . S
H2445 C2384 0.961 . S
H2446 C2384 0.960 . S
H2447 C2384 0.958 . S
H2448 C2385 0.961 . S
H2449 C2385 0.960 . S
H2450 C2385 0.960 . S
H2451 C2387 0.980 . S
H2452 C2386 0.961 . S
H2453 C2386 0.961 . S
H2454 C2386 0.959 . S
H2455 C2389 0.932 . S
H2456 C2393 0.929 . S
H2457 C2394 0.961 . S
H2458 C2394 0.959 . S
H2459 C2394 0.959 . S
H2460 C2395 0.960 . S
H2461 C2395 0.962 . S
H2462 C2395 0.961 . S
H2463 C2397 0.929 . S
H2464 C2400 0.930 . S
H2465 C2401 0.929 . S
H2466 C2404 0.930 . S
H2467 C2407 0.929 . S
H2468 C2408 0.930 . S
H2469 C2412 0.962 . S
H2470 C2412 0.959 . S
H2471 C2412 0.958 . S
C2472 C2473 1.560 . S
C2472 H2533 0.959 . S
C2472 H2534 0.959 . S
C2472 H2535 0.960 . S
C2473 C2472 1.560 . S
C2473 O2528 1.426 . S
C2473 H2532 0.980 . S
C2474 C2475 1.407 . S
C2474 C2479 1.418 . S
C2474 O2528 1.334 . S
C2475 C2474 1.407 . S
C2475 C2476 1.360 . S
C2475 H2536 0.929 . S
C2476 C2475 1.360 . S
C2476 C2477 1.401 . S
C2476 C2480 1.527 . S
C2477 C2476 1.401 . S
C2477 C2478 1.405 . S
C2477 C2510 1.587 . S
C2478 C2477 1.405 . S
C2478 C2479 1.332 . S
C2478 C2481 1.496 . S
C2479 C2474 1.418 . S
C2479 C2478 1.332 . S
C2479 H2537 0.929 . S
C2480 C2476 1.527 . S
C2480 H2538 0.959 . S
C2480 H2539 0.961 . S
C2480 H2540 0.961 . S
C2481 C2478 1.496 . S
C2481 H2541 0.960 . S
C2481 H2542 0.960 . S
C2481 H2543 0.961 . S
C2482 C2483 1.517 . S
C2482 H2545 0.961 . S
C2482 H2546 0.960 . S
C2482 H2547 0.959 . S
C2483 C2482 1.517 . S
C2483 O2531 1.468 . S
C2483 H2544 0.980 . S
C2484 C2485 1.349 . S
C2484 C2489 1.367 . S
C2484 O2531 1.408 . S
C2485 C2484 1.349 . S
C2485 C2486 1.407 . S
C2485 H2548 0.930 . S
C2486 C2485 1.407 . S
C2486 C2487 1.449 . S
C2486 C2490 1.535 . S
C2487 C2486 1.449 . S
C2487 C2488 1.384 . S
C2487 C2512 1.553 . S
C2488 C2487 1.384 . S
C2488 C2489 1.364 . S
C2488 C2491 1.450 . S
C2489 C2484 1.367 . S
C2489 C2488 1.364 . S
C2489 H2549 0.931 . S
C2490 C2486 1.535 . S
C2490 H2550 0.959 . S
C2490 H2551 0.961 . S
C2490 H2552 0.959 . S
C2491 C2488 1.450 . S
C2491 H2553 0.960 . S
C2491 H2554 0.960 . S
C2491 H2555 0.960 . S
C2492 C2493 1.309 . S
C2492 C2497 1.304 . S
C2492 O2530 1.435 . S
C2493 C2492 1.309 . S
C2493 C2494 1.476 . S
C2493 H2557 0.930 . S
C2494 C2493 1.476 . S
C2494 C2495 1.400 . S
C2494 C2498 1.567 . S
C2495 C2494 1.400 . S
C2495 C2496 1.373 . S
C2495 C2517 1.432 . S
C2496 C2495 1.373 . S
C2496 C2497 1.339 . S
C2496 C2499 1.530 . S
C2497 C2492 1.304 . S
C2497 C2496 1.339 . S
C2497 H2558 0.930 . S
C2498 C2494 1.567 . S
C2498 H2559 0.961 . S
C2498 H2560 0.960 . S
C2498 H2561 0.958 . S
C2499 C2496 1.530 . S
C2499 H2562 0.961 . S
C2499 H2563 0.960 . S
C2499 H2564 0.960 . S
C2500 C2501 1.530 . S
C2500 H2566 0.961 . S
C2500 H2567 0.961 . S
C2500 H2568 0.959 . S
C2501 C2500 1.530 . S
C2501 O2529 1.412 . S
C2501 H2565 0.980 . S
C2502 C2503 1.288 . S
C2502 C2507 1.377 . S
C2502 O2529 1.393 . S
C2503 C2502 1.288 . S
C2503 C2504 1.369 . S
C2503 H2569 0.932 . S
C2504 C2503 1.369 . S
C2504 C2505 1.398 . S
C2504 C2508 1.527 . S
C2505 C2504 1.398 . S
C2505 C2506 1.380 . S
C2505 C2519 1.497 . S
C2506 C2505 1.380 . S
C2506 C2507 1.383 . S
C2506 C2509 1.603 . S
C2507 C2502 1.377 . S
C2507 C2506 1.383 . S
C2507 H2570 0.929 . S
C2508 C2504 1.527 . S
C2508 H2571 0.961 . S
C2508 H2572 0.959 . S
C2508 H2573 0.959 . S
C2509 C2506 1.603 . S
C2509 H2574 0.960 . S
C2509 H2575 0.962 . S
C2509 H2576 0.961 . S
C2510 C2477 1.587 . S
C2510 C2511 1.360 . S
C2510 C2523 1.412 . S
C2511 C2510 1.360 . S
C2511 C2512 1.365 . S
C2511 H2577 0.929 . S
C2512 C2487 1.553 . S
C2512 C2511 1.365 . S
C2512 C2513 1.404 . S
C2513 C2512 1.404 . S
C2513 C2514 1.395 . S
C2513 C2524 1.451 . S
C2514 C2513 1.395 . S
C2514 C2515 1.322 . S
C2514 H2578 0.930 . S
C2515 C2514 1.322 . S
C2515 C2516 1.459 . S
C2515 H2579 0.929 . S
C2516 C2515 1.459 . S
C2516 C2517 1.445 . S
C2516 C2525 1.395 . S
C2517 C2495 1.432 . S
C2517 C2516 1.445 . S
C2517 C2518 1.370 . S
C2518 C2517 1.370 . S
C2518 C2519 1.438 . S
C2518 H2580 0.930 . S
C2519 C2505 1.497 . S
C2519 C2518 1.438 . S
C2519 C2520 1.360 . S
C2520 C2519 1.360 . S
C2520 C2521 1.401 . S
C2520 C2525 1.446 . S
C2521 C2520 1.401 . S
C2521 C2522 1.347 . S
C2521 H2581 0.929 . S
C2522 C2521 1.347 . S
C2522 C2523 1.455 . S
C2522 H2582 0.930 . S
C2523 C2510 1.412 . S
C2523 C2522 1.455 . S
C2523 C2524 1.331 . S
C2524 C2513 1.451 . S
C2524 C2523 1.331 . S
C2524 C2525 1.497 . S
C2525 C2516 1.395 . S
C2525 C2520 1.446 . S
C2525 C2524 1.497 . S
C2526 C2527 1.582 . S
C2526 H2583 0.962 . S
C2526 H2584 0.959 . S
C2526 H2585 0.958 . S
C2527 C2526 1.582 . S
C2527 O2530 1.458 . S
C2527 H2556 0.980 . S
O2528 C2473 1.426 . S
O2528 C2474 1.334 . S
O2529 C2501 1.412 . S
O2529 C2502 1.393 . S
O2530 C2492 1.435 . S
O2530 C2527 1.458 . S
O2531 C2483 1.468 . S
O2531 C2484 1.408 . S
H2532 C2473 0.980 . S
H2533 C2472 0.959 . S
H2534 C2472 0.959 . S
H2535 C2472 0.960 . S
H2536 C2475 0.929 . S
H2537 C2479 0.929 . S
H2538 C2480 0.959 . S
H2539 C2480 0.961 . S
H2540 C2480 0.961 . S
H2541 C2481 0.960 . S
H2542 C2481 0.960 . S
H2543 C2481 0.961 . S
H2544 C2483 0.980 . S
H2545 C2482 0.961 . S
H2546 C2482 0.960 . S
H2547 C2482 0.959 . S
H2548 C2485 0.930 . S
H2549 C2489 0.931 . S
H2550 C2490 0.959 . S
H2551 C2490 0.961 . S
H2552 C2490 0.959 . S
H2553 C2491 0.960 . S
H2554 C2491 0.960 . S
H2555 C2491 0.960 . S
H2556 C2527 0.980 . S
H2557 C2493 0.930 . S
H2558 C2497 0.930 . S
H2559 C2498 0.961 . S
H2560 C2498 0.960 . S
H2561 C2498 0.958 . S
H2562 C2499 0.961 . S
H2563 C2499 0.960 . S
H2564 C2499 0.960 . S
H2565 C2501 0.980 . S
H2566 C2500 0.961 . S
H2567 C2500 0.961 . S
H2568 C2500 0.959 . S
H2569 C2503 0.932 . S
H2570 C2507 0.929 . S
H2571 C2508 0.961 . S
H2572 C2508 0.959 . S
H2573 C2508 0.959 . S
H2574 C2509 0.960 . S
H2575 C2509 0.962 . S
H2576 C2509 0.961 . S
H2577 C2511 0.929 . S
H2578 C2514 0.930 . S
H2579 C2515 0.929 . S
H2580 C2518 0.930 . S
H2581 C2521 0.929 . S
H2582 C2522 0.930 . S
H2583 C2526 0.962 . S
H2584 C2526 0.959 . S
H2585 C2526 0.958 . S
C2586 C2587 1.560 . S
C2586 H2647 0.959 . S
C2586 H2648 0.959 . S
C2586 H2649 0.960 . S
C2587 C2586 1.560 . S
C2587 O2642 1.426 . S
C2587 H2646 0.980 . S
C2588 C2589 1.407 . S
C2588 C2593 1.418 . S
C2588 O2642 1.334 . S
C2589 C2588 1.407 . S
C2589 C2590 1.360 . S
C2589 H2650 0.929 . S
C2590 C2589 1.360 . S
C2590 C2591 1.401 . S
C2590 C2594 1.527 . S
C2591 C2590 1.401 . S
C2591 C2592 1.405 . S
C2591 C2624 1.587 . S
C2592 C2591 1.405 . S
C2592 C2593 1.332 . S
C2592 C2595 1.496 . S
C2593 C2588 1.418 . S
C2593 C2592 1.332 . S
C2593 H2651 0.929 . S
C2594 C2590 1.527 . S
C2594 H2652 0.959 . S
C2594 H2653 0.961 . S
C2594 H2654 0.961 . S
C2595 C2592 1.496 . S
C2595 H2655 0.960 . S
C2595 H2656 0.960 . S
C2595 H2657 0.961 . S
C2596 C2597 1.517 . S
C2596 H2659 0.961 . S
C2596 H2660 0.960 . S
C2596 H2661 0.959 . S
C2597 C2596 1.517 . S
C2597 O2645 1.468 . S
C2597 H2658 0.980 . S
C2598 C2599 1.349 . S
C2598 C2603 1.367 . S
C2598 O2645 1.408 . S
C2599 C2598 1.349 . S
C2599 C2600 1.407 . S
C2599 H2662 0.930 . S
C2600 C2599 1.407 . S
C2600 C2601 1.449 . S
C2600 C2604 1.535 . S
C2601 C2600 1.449 . S
C2601 C2602 1.384 . S
C2601 C2626 1.553 . S
C2602 C2601 1.384 . S
C2602 C2603 1.364 . S
C2602 C2605 1.450 . S
C2603 C2598 1.367 . S
C2603 C2602 1.364 . S
C2603 H2663 0.931 . S
C2604 C2600 1.535 . S
C2604 H2664 0.959 . S
C2604 H2665 0.961 . S
C2604 H2666 0.959 . S
C2605 C2602 1.450 . S
C2605 H2667 0.960 . S
C2605 H2668 0.960 . S
C2605 H2669 0.960 . S
C2606 C2607 1.309 . S
C2606 C2611 1.304 . S
C2606 O2644 1.435 . S
C2607 C2606 1.309 . S
C2607 C2608 1.476 . S
C2607 H2671 0.930 . S
C2608 C2607 1.476 . S
C2608 C2609 1.400 . S
C2608 C2612 1.567 . S
C2609 C2608 1.400 . S
C2609 C2610 1.373 . S
C2609 C2631 1.432 . S
C2610 C2609 1.373 . S
C2610 C2611 1.339 . S
C2610 C2613 1.530 . S
C2611 C2606 1.304 . S
C2611 C2610 1.339 . S
C2611 H2672 0.930 . S
C2612 C2608 1.567 . S
C2612 H2673 0.961 . S
C2612 H2674 0.960 . S
C2612 H2675 0.958 . S
C2613 C2610 1.530 . S
C2613 H2676 0.961 . S
C2613 H2677 0.960 . S
C2613 H2678 0.960 . S
C2614 C2615 1.530 . S
C2614 H2680 0.961 . S
C2614 H2681 0.961 . S
C2614 H2682 0.959 . S
C2615 C2614 1.530 . S
C2615 O2643 1.412 . S
C2615 H2679 0.980 . S
C2616 C2617 1.288 . S
C2616 C2621 1.377 . S
C2616 O2643 1.393 . S
C2617 C2616 1.288 . S
C2617 C2618 1.369 . S
C2617 H2683 0.932 . S
C2618 C2617 1.369 . S
C2618 C2619 1.398 . S
C2618 C2622 1.527 . S
C2619 C2618 1.398 . S
C2619 C2620 1.380 . S
C2619 C2633 1.497 . S
C2620 C2619 1.380 . S
C2620 C2621 1.383 . S
C2620 C2623 1.603 . S
C2621 C2616 1.377 . S
C2621 C2620 1.383 . S
C2621 H2684 0.929 . S
C2622 C2618 1.527 . S
C2622 H2685 0.961 . S
C2622 H2686 0.959 . S
C2622 H2687 0.959 . S
C2623 C2620 1.603 . S
C2623 H2688 0.960 . S
C2623 H2689 0.962 . S
C2623 H2690 0.961 . S
C2624 C2591 1.587 . S
C2624 C2625 1.360 . S
C2624 C2637 1.412 . S
C2625 C2624 1.360 . S
C2625 C2626 1.365 . S
C2625 H2691 0.929 . S
C2626 C2601 1.553 . S
C2626 C2625 1.365 . S
C2626 C2627 1.404 . S
C2627 C2626 1.404 . S
C2627 C2628 1.395 . S
C2627 C2638 1.451 . S
C2628 C2627 1.395 . S
C2628 C2629 1.322 . S
C2628 H2692 0.930 . S
C2629 C2628 1.322 . S
C2629 C2630 1.459 . S
C2629 H2693 0.929 . S
C2630 C2629 1.459 . S
C2630 C2631 1.445 . S
C2630 C2639 1.395 . S
C2631 C2609 1.432 . S
C2631 C2630 1.445 . S
C2631 C2632 1.370 . S
C2632 C2631 1.370 . S
C2632 C2633 1.438 . S
C2632 H2694 0.930 . S
C2633 C2619 1.497 . S
C2633 C2632 1.438 . S
C2633 C2634 1.360 . S
C2634 C2633 1.360 . S
C2634 C2635 1.401 . S
C2634 C2639 1.446 . S
C2635 C2634 1.401 . S
C2635 C2636 1.347 . S
C2635 H2695 0.929 . S
C2636 C2635 1.347 . S
C2636 C2637 1.455 . S
C2636 H2696 0.930 . S
C2637 C2624 1.412 . S
C2637 C2636 1.455 . S
C2637 C2638 1.331 . S
C2638 C2627 1.451 . S
C2638 C2637 1.331 . S
C2638 C2639 1.497 . S
C2639 C2630 1.395 . S
C2639 C2634 1.446 . S
C2639 C2638 1.497 . S
C2640 C2641 1.582 . S
C2640 H2697 0.962 . S
C2640 H2698 0.959 . S
C2640 H2699 0.958 . S
C2641 C2640 1.582 . S
C2641 O2644 1.458 . S
C2641 H2670 0.980 . S
O2642 C2587 1.426 . S
O2642 C2588 1.334 . S
O2643 C2615 1.412 . S
O2643 C2616 1.393 . S
O2644 C2606 1.435 . S
O2644 C2641 1.458 . S
O2645 C2597 1.468 . S
O2645 C2598 1.408 . S
H2646 C2587 0.980 . S
H2647 C2586 0.959 . S
H2648 C2586 0.959 . S
H2649 C2586 0.960 . S
H2650 C2589 0.929 . S
H2651 C2593 0.929 . S
H2652 C2594 0.959 . S
H2653 C2594 0.961 . S
H2654 C2594 0.961 . S
H2655 C2595 0.960 . S
H2656 C2595 0.960 . S
H2657 C2595 0.961 . S
H2658 C2597 0.980 . S
H2659 C2596 0.961 . S
H2660 C2596 0.960 . S
H2661 C2596 0.959 . S
H2662 C2599 0.930 . S
H2663 C2603 0.931 . S
H2664 C2604 0.959 . S
H2665 C2604 0.961 . S
H2666 C2604 0.959 . S
H2667 C2605 0.960 . S
H2668 C2605 0.960 . S
H2669 C2605 0.960 . S
H2670 C2641 0.980 . S
H2671 C2607 0.930 . S
H2672 C2611 0.930 . S
H2673 C2612 0.961 . S
H2674 C2612 0.960 . S
H2675 C2612 0.958 . S
H2676 C2613 0.961 . S
H2677 C2613 0.960 . S
H2678 C2613 0.960 . S
H2679 C2615 0.980 . S
H2680 C2614 0.961 . S
H2681 C2614 0.961 . S
H2682 C2614 0.959 . S
H2683 C2617 0.932 . S
H2684 C2621 0.929 . S
H2685 C2622 0.961 . S
H2686 C2622 0.959 . S
H2687 C2622 0.959 . S
H2688 C2623 0.960 . S
H2689 C2623 0.962 . S
H2690 C2623 0.961 . S
H2691 C2625 0.929 . S
H2692 C2628 0.930 . S
H2693 C2629 0.929 . S
H2694 C2632 0.930 . S
H2695 C2635 0.929 . S
H2696 C2636 0.930 . S
H2697 C2640 0.962 . S
H2698 C2640 0.959 . S
H2699 C2640 0.958 . S
C2700 C2701 1.349 1_455 S
C2700 C2702 1.327 . S
C2700 H2725 0.950 . S
C2701 C2700 1.349 1_655 S
C2701 C2717 1.349 . S
C2702 C2700 1.327 . S
C2702 C2721 1.429 1_455 S
C2702 H2726 0.950 . S
C2703 C2720 1.574 . S
C2703 C2722 1.368 . S
C2703 H2727 0.949 . S
H2704 C2708 0.949 . S
C2705 C2706 1.349 . S
C2705 C2707 1.327 . S
C2705 H2728 0.950 . S
C2706 C2705 1.349 . S
C2706 C2718 1.349 1_655 S
C2707 C2705 1.327 . S
C2707 C2723 1.429 . S
C2707 H2729 0.950 . S
C2708 H2704 0.949 . S
C2708 C2716 1.574 . S
C2708 C2724 1.368 1_455 S
H2709 C2717 0.950 . S
H2710 C2715 0.950 . S
H2711 C2716 0.949 . S
H2712 C2718 0.950 . S
H2713 C2719 0.950 . S
H2714 C2720 0.949 . S
C2715 H2710 0.950 . S
C2715 C2717 1.327 . S
C2715 C2721 1.429 . S
C2716 C2708 1.574 . S
C2716 H2711 0.949 . S
C2716 C2722 1.368 1_455 S
C2717 C2701 1.349 . S
C2717 H2709 0.950 . S
C2717 C2715 1.327 . S
C2718 C2706 1.349 1_455 S
C2718 H2712 0.950 . S
C2718 C2719 1.327 . S
C2719 H2713 0.950 . S
C2719 C2718 1.327 . S
C2719 C2723 1.429 1_455 S
C2720 C2703 1.574 . S
C2720 H2714 0.949 . S
C2720 C2724 1.368 . S
C2721 C2702 1.429 1_655 S
C2721 C2715 1.429 . S
C2721 C2722 1.523 . S
C2722 C2703 1.368 . S
C2722 C2716 1.368 1_655 S
C2722 C2721 1.523 . S
C2723 C2707 1.429 . S
C2723 C2719 1.429 1_655 S
C2723 C2724 1.523 . S
C2724 C2708 1.368 1_655 S
C2724 C2720 1.368 . S
C2724 C2723 1.523 . S
H2725 C2700 0.950 . S
H2726 C2702 0.950 . S
H2727 C2703 0.949 . S
H2728 C2705 0.950 . S
H2729 C2707 0.950 . S
C2730 C2731 1.349 . S
C2730 C2732 1.327 . S
C2730 H2755 0.950 . S
C2731 C2730 1.349 . S
C2731 C2747 1.349 . S
C2732 C2730 1.327 . S
C2732 C2751 1.429 . S
C2732 H2756 0.950 . S
C2733 C2750 1.574 . S
C2733 C2752 1.368 . S
C2733 H2757 0.949 . S
H2734 C2738 0.949 . S
C2735 C2736 1.349 . S
C2735 C2737 1.327 . S
C2735 H2758 0.950 . S
C2736 C2735 1.349 . S
C2736 C2748 1.349 . S
C2737 C2735 1.327 . S
C2737 C2753 1.429 . S
C2737 H2759 0.950 . S
C2738 H2734 0.949 . S
C2738 C2746 1.574 . S
C2738 C2754 1.368 . S
H2739 C2747 0.950 . S
H2740 C2745 0.950 . S
H2741 C2746 0.949 . S
H2742 C2748 0.950 . S
H2743 C2749 0.950 . S
H2744 C2750 0.949 . S
C2745 H2740 0.950 . S
C2745 C2747 1.327 . S
C2745 C2751 1.429 . S
C2746 C2738 1.574 . S
C2746 H2741 0.949 . S
C2746 C2752 1.368 . S
C2747 C2731 1.349 . S
C2747 H2739 0.950 . S
C2747 C2745 1.327 . S
C2748 C2736 1.349 . S
C2748 H2742 0.950 . S
C2748 C2749 1.327 . S
C2749 H2743 0.950 . S
C2749 C2748 1.327 . S
C2749 C2753 1.429 . S
C2750 C2733 1.574 . S
C2750 H2744 0.949 . S
C2750 C2754 1.368 . S
C2751 C2732 1.429 . S
C2751 C2745 1.429 . S
C2751 C2752 1.523 . S
C2752 C2733 1.368 . S
C2752 C2746 1.368 . S
C2752 C2751 1.523 . S
C2753 C2737 1.429 . S
C2753 C2749 1.429 . S
C2753 C2754 1.523 . S
C2754 C2738 1.368 . S
C2754 C2750 1.368 . S
C2754 C2753 1.523 . S
H2755 C2730 0.950 . S
H2756 C2732 0.950 . S
H2757 C2733 0.949 . S
H2758 C2735 0.950 . S
H2759 C2737 0.950 . S
C2760 C2761 1.349 . S
C2760 C2762 1.327 . S
C2760 H2785 0.950 . S
C2761 C2760 1.349 . S
C2761 C2777 1.349 1_545 S
C2762 C2760 1.327 . S
C2762 C2781 1.429 . S
C2762 H2786 0.950 . S
C2763 C2780 1.574 . S
C2763 C2782 1.368 1_565 S
C2763 H2787 0.949 . S
H2764 C2768 0.949 . S
C2765 C2766 1.349 1_565 S
C2765 C2767 1.327 . S
C2765 H2788 0.950 . S
C2766 C2765 1.349 1_545 S
C2766 C2778 1.349 . S
C2767 C2765 1.327 . S
C2767 C2783 1.429 1_565 S
C2767 H2789 0.950 . S
C2768 H2764 0.949 . S
C2768 C2776 1.574 . S
C2768 C2784 1.368 . S
H2769 C2777 0.950 . S
H2770 C2775 0.950 . S
H2771 C2776 0.949 . S
H2772 C2778 0.950 . S
H2773 C2779 0.950 . S
H2774 C2780 0.949 . S
C2775 H2770 0.950 . S
C2775 C2777 1.327 . S
C2775 C2781 1.429 1_565 S
C2776 C2768 1.574 . S
C2776 H2771 0.949 . S
C2776 C2782 1.368 . S
C2777 C2761 1.349 1_565 S
C2777 H2769 0.950 . S
C2777 C2775 1.327 . S
C2778 C2766 1.349 . S
C2778 H2772 0.950 . S
C2778 C2779 1.327 . S
C2779 H2773 0.950 . S
C2779 C2778 1.327 . S
C2779 C2783 1.429 . S
C2780 C2763 1.574 . S
C2780 H2774 0.949 . S
C2780 C2784 1.368 1_565 S
C2781 C2762 1.429 . S
C2781 C2775 1.429 1_545 S
C2781 C2782 1.523 . S
C2782 C2763 1.368 1_545 S
C2782 C2776 1.368 . S
C2782 C2781 1.523 . S
C2783 C2767 1.429 1_545 S
C2783 C2779 1.429 . S
C2783 C2784 1.523 . S
C2784 C2768 1.368 . S
C2784 C2780 1.368 1_545 S
C2784 C2783 1.523 . S
H2785 C2760 0.950 . S
H2786 C2762 0.950 . S
H2787 C2763 0.949 . S
H2788 C2765 0.950 . S
H2789 C2767 0.950 . S
C2790 C2791 1.349 1_545 S
C2790 C2792 1.327 . S
C2790 H2815 0.950 . S
C2791 C2790 1.349 1_565 S
C2791 C2807 1.349 . S
C2792 C2790 1.327 . S
C2792 C2811 1.429 1_545 S
C2792 H2816 0.950 . S
C2793 C2810 1.574 . S
C2793 C2812 1.368 . S
C2793 H2817 0.949 . S
H2794 C2798 0.949 . S
C2795 C2796 1.349 . S
C2795 C2797 1.327 . S
C2795 H2818 0.950 . S
C2796 C2795 1.349 . S
C2796 C2808 1.349 1_565 S
C2797 C2795 1.327 . S
C2797 C2813 1.429 . S
C2797 H2819 0.950 . S
C2798 H2794 0.949 . S
C2798 C2806 1.574 . S
C2798 C2814 1.368 1_545 S
H2799 C2807 0.950 . S
H2800 C2805 0.950 . S
H2801 C2806 0.949 . S
H2802 C2808 0.950 . S
H2803 C2809 0.950 . S
H2804 C2810 0.949 . S
C2805 H2800 0.950 . S
C2805 C2807 1.327 . S
C2805 C2811 1.429 . S
C2806 C2798 1.574 . S
C2806 H2801 0.949 . S
C2806 C2812 1.368 1_545 S
C2807 C2791 1.349 . S
C2807 H2799 0.950 . S
C2807 C2805 1.327 . S
C2808 C2796 1.349 1_545 S
C2808 H2802 0.950 . S
C2808 C2809 1.327 . S
C2809 H2803 0.950 . S
C2809 C2808 1.327 . S
C2809 C2813 1.429 1_545 S
C2810 C2793 1.574 . S
C2810 H2804 0.949 . S
C2810 C2814 1.368 . S
C2811 C2792 1.429 1_565 S
C2811 C2805 1.429 . S
C2811 C2812 1.523 . S
C2812 C2793 1.368 . S
C2812 C2806 1.368 1_565 S
C2812 C2811 1.523 . S
C2813 C2797 1.429 . S
C2813 C2809 1.429 1_565 S
C2813 C2814 1.523 . S
C2814 C2798 1.368 1_565 S
C2814 C2810 1.368 . S
C2814 C2813 1.523 . S
H2815 C2790 0.950 . S
H2816 C2792 0.950 . S
H2817 C2793 0.949 . S
H2818 C2795 0.950 . S
H2819 C2797 0.950 . S
C2820 C2821 1.349 1_655 S
C2820 C2822 1.327 . S
C2820 H2845 0.950 . S
C2821 C2820 1.349 1_455 S
C2821 C2837 1.349 . S
C2822 C2820 1.327 . S
C2822 C2841 1.429 1_655 S
C2822 H2846 0.950 . S
C2823 C2840 1.574 . S
C2823 C2842 1.368 . S
C2823 H2847 0.949 . S
H2824 C2828 0.949 . S
C2825 C2826 1.349 . S
C2825 C2827 1.327 . S
C2825 H2848 0.950 . S
C2826 C2825 1.349 . S
C2826 C2838 1.349 1_455 S
C2827 C2825 1.327 . S
C2827 C2843 1.429 . S
C2827 H2849 0.950 . S
C2828 H2824 0.949 . S
C2828 C2836 1.574 . S
C2828 C2844 1.368 1_655 S
H2829 C2837 0.950 . S
H2830 C2835 0.950 . S
H2831 C2836 0.949 . S
H2832 C2838 0.950 . S
H2833 C2839 0.950 . S
H2834 C2840 0.949 . S
C2835 H2830 0.950 . S
C2835 C2837 1.327 . S
C2835 C2841 1.429 . S
C2836 C2828 1.574 . S
C2836 H2831 0.949 . S
C2836 C2842 1.368 1_655 S
C2837 C2821 1.349 . S
C2837 H2829 0.950 . S
C2837 C2835 1.327 . S
C2838 C2826 1.349 1_655 S
C2838 H2832 0.950 . S
C2838 C2839 1.327 . S
C2839 H2833 0.950 . S
C2839 C2838 1.327 . S
C2839 C2843 1.429 1_655 S
C2840 C2823 1.574 . S
C2840 H2834 0.949 . S
C2840 C2844 1.368 . S
C2841 C2822 1.429 1_455 S
C2841 C2835 1.429 . S
C2841 C2842 1.523 . S
C2842 C2823 1.368 . S
C2842 C2836 1.368 1_455 S
C2842 C2841 1.523 . S
C2843 C2827 1.429 . S
C2843 C2839 1.429 1_455 S
C2843 C2844 1.523 . S
C2844 C2828 1.368 1_455 S
C2844 C2840 1.368 . S
C2844 C2843 1.523 . S
H2845 C2820 0.950 . S
H2846 C2822 0.950 . S
H2847 C2823 0.949 . S
H2848 C2825 0.950 . S
H2849 C2827 0.950 . S
C2850 C2851 1.349 . S
C2850 C2852 1.327 . S
C2850 H2875 0.950 . S
C2851 C2850 1.349 . S
C2851 C2867 1.349 . S
C2852 C2850 1.327 . S
C2852 C2871 1.429 . S
C2852 H2876 0.950 . S
C2853 C2870 1.574 . S
C2853 C2872 1.368 . S
C2853 H2877 0.949 . S
H2854 C2858 0.949 . S
C2855 C2856 1.349 . S
C2855 C2857 1.327 . S
C2855 H2878 0.950 . S
C2856 C2855 1.349 . S
C2856 C2868 1.349 . S
C2857 C2855 1.327 . S
C2857 C2873 1.429 . S
C2857 H2879 0.950 . S
C2858 H2854 0.949 . S
C2858 C2866 1.574 . S
C2858 C2874 1.368 . S
H2859 C2867 0.950 . S
H2860 C2865 0.950 . S
H2861 C2866 0.949 . S
H2862 C2868 0.950 . S
H2863 C2869 0.950 . S
H2864 C2870 0.949 . S
C2865 H2860 0.950 . S
C2865 C2867 1.327 . S
C2865 C2871 1.429 . S
C2866 C2858 1.574 . S
C2866 H2861 0.949 . S
C2866 C2872 1.368 . S
C2867 C2851 1.349 . S
C2867 H2859 0.950 . S
C2867 C2865 1.327 . S
C2868 C2856 1.349 . S
C2868 H2862 0.950 . S
C2868 C2869 1.327 . S
C2869 H2863 0.950 . S
C2869 C2868 1.327 . S
C2869 C2873 1.429 . S
C2870 C2853 1.574 . S
C2870 H2864 0.949 . S
C2870 C2874 1.368 . S
C2871 C2852 1.429 . S
C2871 C2865 1.429 . S
C2871 C2872 1.523 . S
C2872 C2853 1.368 . S
C2872 C2866 1.368 . S
C2872 C2871 1.523 . S
C2873 C2857 1.429 . S
C2873 C2869 1.429 . S
C2873 C2874 1.523 . S
C2874 C2858 1.368 . S
C2874 C2870 1.368 . S
C2874 C2873 1.523 . S
H2875 C2850 0.950 . S
H2876 C2852 0.950 . S
H2877 C2853 0.949 . S
H2878 C2855 0.950 . S
H2879 C2857 0.950 . S
C2880 C2881 1.349 . S
C2880 C2882 1.327 . S
C2880 H2905 0.950 . S
C2881 C2880 1.349 . S
C2881 C2897 1.349 1_455 S
C2882 C2880 1.327 . S
C2882 C2901 1.429 . S
C2882 H2906 0.950 . S
C2883 C2900 1.574 . S
C2883 C2902 1.368 1_655 S
C2883 H2907 0.949 . S
H2884 C2888 0.949 . S
C2885 C2886 1.349 1_655 S
C2885 C2887 1.327 . S
C2885 H2908 0.950 . S
C2886 C2885 1.349 1_455 S
C2886 C2898 1.349 . S
C2887 C2885 1.327 . S
C2887 C2903 1.429 1_655 S
C2887 H2909 0.950 . S
C2888 H2884 0.949 . S
C2888 C2896 1.574 . S
C2888 C2904 1.368 . S
H2889 C2897 0.955 . S
H2890 C2895 0.957 . S
H2891 C2896 0.949 . S
H2892 C2898 0.950 . S
H2893 C2899 0.950 . S
H2894 C2900 0.949 . S
C2895 H2890 0.957 . S
C2895 C2897 1.356 . S
C2895 C2901 1.396 1_655 S
C2896 C2888 1.574 . S
C2896 H2891 0.949 . S
C2896 C2902 1.368 . S
C2897 C2881 1.349 1_655 S
C2897 H2889 0.955 . S
C2897 C2895 1.356 . S
C2898 C2886 1.349 . S
C2898 H2892 0.950 . S
C2898 C2899 1.327 . S
C2899 H2893 0.950 . S
C2899 C2898 1.327 . S
C2899 C2903 1.429 . S
C2900 C2883 1.574 . S
C2900 H2894 0.949 . S
C2900 C2904 1.368 1_655 S
C2901 C2882 1.429 . S
C2901 C2895 1.396 1_455 S
C2901 C2902 1.523 . S
C2902 C2883 1.368 1_455 S
C2902 C2896 1.368 . S
C2902 C2901 1.523 . S
C2903 C2887 1.429 1_455 S
C2903 C2899 1.429 . S
C2903 C2904 1.523 . S
C2904 C2888 1.368 . S
C2904 C2900 1.368 1_455 S
C2904 C2903 1.523 . S
H2905 C2880 0.950 . S
H2906 C2882 0.950 . S
H2907 C2883 0.949 . S
H2908 C2885 0.950 . S
H2909 C2887 0.950 . S
C2910 C2911 1.349 . S
C2910 C2912 1.327 . S
C2910 H2935 0.950 . S
C2911 C2910 1.349 . S
C2911 C2927 1.349 . S
C2912 C2910 1.327 . S
C2912 C2931 1.429 . S
C2912 H2936 0.950 . S
C2913 C2930 1.574 . S
C2913 C2932 1.368 . S
C2913 H2937 0.949 . S
H2914 C2918 0.949 . S
C2915 C2916 1.349 . S
C2915 C2917 1.327 . S
C2915 H2938 0.950 . S
C2916 C2915 1.349 . S
C2916 C2928 1.349 . S
C2917 C2915 1.327 . S
C2917 C2933 1.429 . S
C2917 H2939 0.950 . S
C2918 H2914 0.949 . S
C2918 C2926 1.574 . S
C2918 C2934 1.368 . S
H2919 C2927 0.950 . S
H2920 C2925 0.950 . S
H2921 C2926 0.949 . S
H2922 C2928 0.950 . S
H2923 C2929 0.950 . S
H2924 C2930 0.949 . S
C2925 H2920 0.950 . S
C2925 C2927 1.327 . S
C2925 C2931 1.429 . S
C2926 C2918 1.574 . S
C2926 H2921 0.949 . S
C2926 C2932 1.368 . S
C2927 C2911 1.349 . S
C2927 H2919 0.950 . S
C2927 C2925 1.327 . S
C2928 C2916 1.349 . S
C2928 H2922 0.950 . S
C2928 C2929 1.327 . S
C2929 H2923 0.950 . S
C2929 C2928 1.327 . S
C2929 C2933 1.429 . S
C2930 C2913 1.574 . S
C2930 H2924 0.949 . S
C2930 C2934 1.368 . S
C2931 C2912 1.429 . S
C2931 C2925 1.429 . S
C2931 C2932 1.523 . S
C2932 C2913 1.368 . S
C2932 C2926 1.368 . S
C2932 C2931 1.523 . S
C2933 C2917 1.429 . S
C2933 C2929 1.429 . S
C2933 C2934 1.523 . S
C2934 C2918 1.368 . S
C2934 C2930 1.368 . S
C2934 C2933 1.523 . S
H2935 C2910 0.950 . S
H2936 C2912 0.950 . S
H2937 C2913 0.949 . S
H2938 C2915 0.950 . S
H2939 C2917 0.950 . S
C2940 C2941 1.349 . S
C2940 C2942 1.327 . S
C2940 H2965 0.950 . S
C2941 C2940 1.349 . S
C2941 C2957 1.349 1_565 S
C2942 C2940 1.327 . S
C2942 C2961 1.429 . S
C2942 H2966 0.950 . S
C2943 C2960 1.574 . S
C2943 C2962 1.368 1_545 S
C2943 H2967 0.949 . S
H2944 C2948 0.949 . S
C2945 C2946 1.331 1_545 S
C2945 C2947 1.327 . S
C2945 H2968 0.950 . S
C2946 C2945 1.331 1_565 S
C2946 C2958 1.395 . S
C2947 C2945 1.327 . S
C2947 C2963 1.429 1_545 S
C2947 H2969 0.950 . S
C2948 H2944 0.949 . S
C2948 C2956 1.574 . S
C2948 C2964 1.368 . S
H2949 C2957 0.950 . S
H2950 C2955 0.950 . S
H2951 C2956 0.949 . S
H2952 C2958 0.950 . S
H2953 C2959 0.950 . S
H2954 C2960 0.949 . S
C2955 H2950 0.950 . S
C2955 C2957 1.327 . S
C2955 C2961 1.429 1_545 S
C2956 C2948 1.574 . S
C2956 H2951 0.949 . S
C2956 C2962 1.368 . S
C2957 C2941 1.349 1_545 S
C2957 H2949 0.950 . S
C2957 C2955 1.327 . S
C2958 C2946 1.395 . S
C2958 H2952 0.950 . S
C2958 C2959 1.327 . S
C2959 H2953 0.950 . S
C2959 C2958 1.327 . S
C2959 C2963 1.429 . S
C2960 C2943 1.574 . S
C2960 H2954 0.949 . S
C2960 C2964 1.368 1_545 S
C2961 C2942 1.429 . S
C2961 C2955 1.429 1_565 S
C2961 C2962 1.523 . S
C2962 C2943 1.368 1_565 S
C2962 C2956 1.368 . S
C2962 C2961 1.523 . S
C2963 C2947 1.429 1_565 S
C2963 C2959 1.429 . S
C2963 C2964 1.523 . S
C2964 C2948 1.368 . S
C2964 C2960 1.368 1_565 S
C2964 C2963 1.523 . S
H2965 C2940 0.950 . S
H2966 C2942 0.950 . S
H2967 C2943 0.949 . S
H2968 C2945 0.950 . S
H2969 C2947 0.950 . S
C2970 C2971 1.349 . S
C2970 C2972 1.327 . S
C2970 H2995 0.950 . S
C2971 C2970 1.349 . S
C2971 C2987 1.349 1_545 S
C2972 C2970 1.327 . S
C2972 C2991 1.429 . S
C2972 H2996 0.950 . S
C2973 C2990 1.574 . S
C2973 C2992 1.368 1_565 S
C2973 H2997 0.949 . S
H2974 C2978 0.949 . S
C2975 C2976 1.349 1_565 S
C2975 C2977 1.327 . S
C2975 H2998 0.950 . S
C2976 C2975 1.349 1_545 S
C2976 C2988 1.349 . S
C2977 C2975 1.327 . S
C2977 C2993 1.429 1_565 S
C2977 H2999 0.950 . S
C2978 H2974 0.949 . S
C2978 C2986 1.574 . S
C2978 C2994 1.368 . S
H2979 C2987 0.950 . S
H2980 C2985 0.950 . S
H2981 C2986 0.949 . S
H2982 C2988 0.950 . S
H2983 C2989 0.950 . S
H2984 C2990 0.949 . S
C2985 H2980 0.950 . S
C2985 C2987 1.327 . S
C2985 C2991 1.429 1_565 S
C2986 C2978 1.574 . S
C2986 H2981 0.949 . S
C2986 C2992 1.368 . S
C2987 C2971 1.349 1_565 S
C2987 H2979 0.950 . S
C2987 C2985 1.327 . S
C2988 C2976 1.349 . S
C2988 H2982 0.950 . S
C2988 C2989 1.327 . S
C2989 H2983 0.950 . S
C2989 C2988 1.327 . S
C2989 C2993 1.429 . S
C2990 C2973 1.574 . S
C2990 H2984 0.949 . S
C2990 C2994 1.368 1_565 S
C2991 C2972 1.429 . S
C2991 C2985 1.429 1_545 S
C2991 C2992 1.523 . S
C2992 C2973 1.368 1_545 S
C2992 C2986 1.368 . S
C2992 C2991 1.523 . S
C2993 C2977 1.429 1_545 S
C2993 C2989 1.429 . S
C2993 C2994 1.523 . S
C2994 C2978 1.368 . S
C2994 C2990 1.368 1_545 S
C2994 C2993 1.523 . S
H2995 C2970 0.950 . S
H2996 C2972 0.950 . S
H2997 C2973 0.949 . S
H2998 C2975 0.950 . S
H2999 C2977 0.950 . S
C3000 C3001 1.349 . S
C3000 C3002 1.327 . S
C3000 H3025 0.950 . S
C3001 C3000 1.349 . S
C3001 C3017 1.349 . S
C3002 C3000 1.327 . S
C3002 C3021 1.429 . S
C3002 H3026 0.950 . S
C3003 C3020 1.549 . S
C3003 C3022 1.407 . S
C3003 H3027 0.925 1_655 S
H3004 C3008 0.949 . S
C3005 C3006 1.327 1_455 S
C3005 C3007 1.364 . S
C3005 H3028 0.950 . S
C3006 C3005 1.327 1_655 S
C3006 C3018 1.408 . S
C3007 C3005 1.364 . S
C3007 C3023 1.369 1_455 S
C3007 H3029 0.982 . S
C3008 H3004 0.949 . S
C3008 C3016 1.574 . S
C3008 C3024 1.368 . S
H3009 C3017 0.977 . S
H3010 C3015 0.948 1_455 S
H3011 C3016 0.949 . S
H3012 C3018 0.950 . S
H3013 C3019 0.950 . S
H3014 C3020 0.955 1_455 S
C3015 H3010 0.948 1_655 S
C3015 C3017 1.327 . S
C3015 C3021 1.429 . S
C3016 C3008 1.574 . S
C3016 H3011 0.949 . S
C3016 C3022 1.368 . S
C3017 C3001 1.349 . S
C3017 H3009 0.977 . S
C3017 C3015 1.327 . S
C3018 C3006 1.408 . S
C3018 H3012 0.950 . S
C3018 C3019 1.327 . S
C3019 H3013 0.950 . S
C3019 C3018 1.327 . S
C3019 C3023 1.429 . S
C3020 C3003 1.549 . S
C3020 H3014 0.955 1_655 S
C3020 C3024 1.365 . S
C3021 C3002 1.429 . S
C3021 C3015 1.429 . S
C3021 C3022 1.523 . S
C3022 C3003 1.407 . S
C3022 C3016 1.368 . S
C3022 C3021 1.523 . S
C3023 C3007 1.369 1_655 S
C3023 C3019 1.429 . S
C3023 C3024 1.523 . S
C3024 C3008 1.368 . S
C3024 C3020 1.365 . S
C3024 C3023 1.523 . S
H3025 C3000 0.950 . S
H3026 C3002 0.950 . S
H3027 C3003 0.925 1_455 S
H3028 C3005 0.950 . S
H3029 C3007 0.982 . S
C3030 C3031 1.349 . S
C3030 C3032 1.327 . S
C3030 H3055 0.950 . S
C3031 C3030 1.349 . S
C3031 C3047 1.349 . S
C3032 C3030 1.327 . S
C3032 C3051 1.429 . S
C3032 H3056 0.950 . S
C3033 C3050 1.574 . S
C3033 C3052 1.368 . S
C3033 H3057 0.949 . S
H3034 C3038 0.949 . S
C3035 C3036 1.349 . S
C3035 C3037 1.327 . S
C3035 H3058 0.950 . S
C3036 C3035 1.349 . S
C3036 C3048 1.349 . S
C3037 C3035 1.327 . S
C3037 C3053 1.429 . S
C3037 H3059 0.950 . S
C3038 H3034 0.949 . S
C3038 C3046 1.574 . S
C3038 C3054 1.368 . S
H3039 C3047 0.950 . S
H3040 C3045 0.950 . S
H3041 C3046 0.949 . S
H3042 C3048 0.950 . S
H3043 C3049 0.950 . S
H3044 C3050 0.949 . S
C3045 H3040 0.950 . S
C3045 C3047 1.327 . S
C3045 C3051 1.429 . S
C3046 C3038 1.574 . S
C3046 H3041 0.949 . S
C3046 C3052 1.368 . S
C3047 C3031 1.349 . S
C3047 H3039 0.950 . S
C3047 C3045 1.327 . S
C3048 C3036 1.349 . S
C3048 H3042 0.950 . S
C3048 C3049 1.327 . S
C3049 H3043 0.950 . S
C3049 C3048 1.327 . S
C3049 C3053 1.429 . S
C3050 C3033 1.574 . S
C3050 H3044 0.949 . S
C3050 C3054 1.368 . S
C3051 C3032 1.429 . S
C3051 C3045 1.429 . S
C3051 C3052 1.523 . S
C3052 C3033 1.368 . S
C3052 C3046 1.368 . S
C3052 C3051 1.523 . S
C3053 C3037 1.429 . S
C3053 C3049 1.429 . S
C3053 C3054 1.523 . S
C3054 C3038 1.368 . S
C3054 C3050 1.368 . S
C3054 C3053 1.523 . S
H3055 C3030 0.950 . S
H3056 C3032 0.950 . S
H3057 C3033 0.949 . S
H3058 C3035 0.950 . S
H3059 C3037 0.950 . S
C3060 C3061 1.349 . S
C3060 C3062 1.327 . S
C3060 H3085 0.950 . S
C3061 C3060 1.349 . S
C3061 C3077 1.349 . S
C3062 C3060 1.327 . S
C3062 C3081 1.429 . S
C3062 H3086 0.950 . S
C3063 C3080 1.574 . S
C3063 C3082 1.368 . S
C3063 H3087 0.949 . S
H3064 C3068 0.949 . S
C3065 C3066 1.349 . S
C3065 C3067 1.327 . S
C3065 H3088 0.950 . S
C3066 C3065 1.349 . S
C3066 C3078 1.349 . S
C3067 C3065 1.327 . S
C3067 C3083 1.429 . S
C3067 H3089 0.950 . S
C3068 H3064 0.949 . S
C3068 C3076 1.574 . S
C3068 C3084 1.368 . S
H3069 C3077 0.950 . S
H3070 C3075 0.950 . S
H3071 C3076 0.949 . S
H3072 C3078 0.950 . S
H3073 C3079 0.950 . S
H3074 C3080 0.949 . S
C3075 H3070 0.950 . S
C3075 C3077 1.327 . S
C3075 C3081 1.429 . S
C3076 C3068 1.574 . S
C3076 H3071 0.949 . S
C3076 C3082 1.368 . S
C3077 C3061 1.349 . S
C3077 H3069 0.950 . S
C3077 C3075 1.327 . S
C3078 C3066 1.349 . S
C3078 H3072 0.950 . S
C3078 C3079 1.327 . S
C3079 H3073 0.950 . S
C3079 C3078 1.327 . S
C3079 C3083 1.429 . S
C3080 C3063 1.574 . S
C3080 H3074 0.949 . S
C3080 C3084 1.368 . S
C3081 C3062 1.429 . S
C3081 C3075 1.429 . S
C3081 C3082 1.523 . S
C3082 C3063 1.368 . S
C3082 C3076 1.368 . S
C3082 C3081 1.523 . S
C3083 C3067 1.429 . S
C3083 C3079 1.429 . S
C3083 C3084 1.523 . S
C3084 C3068 1.368 . S
C3084 C3080 1.368 . S
C3084 C3083 1.523 . S
H3085 C3060 0.950 . S
H3086 C3062 0.950 . S
H3087 C3063 0.949 . S
H3088 C3065 0.950 . S
H3089 C3067 0.950 . S
C3090 C3091 1.349 . S
C3090 C3092 1.327 . S
C3090 H3115 0.950 . S
C3091 C3090 1.349 . S
C3091 C3107 1.349 . S
C3092 C3090 1.327 . S
C3092 C3111 1.429 . S
C3092 H3116 0.950 . S
C3093 C3110 1.574 . S
C3093 C3112 1.368 . S
C3093 H3117 0.949 . S
H3094 C3098 0.949 . S
C3095 C3096 1.349 . S
C3095 C3097 1.327 . S
C3095 H3118 0.950 . S
C3096 C3095 1.349 . S
C3096 C3108 1.349 . S
C3097 C3095 1.327 . S
C3097 C3113 1.429 . S
C3097 H3119 0.950 . S
C3098 H3094 0.949 . S
C3098 C3106 1.574 . S
C3098 C3114 1.368 . S
H3099 C3107 0.950 . S
H3100 C3105 0.950 . S
H3101 C3106 0.949 . S
H3102 C3108 0.950 . S
H3103 C3109 0.950 . S
H3104 C3110 0.949 . S
C3105 H3100 0.950 . S
C3105 C3107 1.327 . S
C3105 C3111 1.429 . S
C3106 C3098 1.574 . S
C3106 H3101 0.949 . S
C3106 C3112 1.368 . S
C3107 C3091 1.349 . S
C3107 H3099 0.950 . S
C3107 C3105 1.327 . S
C3108 C3096 1.349 . S
C3108 H3102 0.950 . S
C3108 C3109 1.327 . S
C3109 H3103 0.950 . S
C3109 C3108 1.327 . S
C3109 C3113 1.429 . S
C3110 C3093 1.574 . S
C3110 H3104 0.949 . S
C3110 C3114 1.368 . S
C3111 C3092 1.429 . S
C3111 C3105 1.429 . S
C3111 C3112 1.523 . S
C3112 C3093 1.368 . S
C3112 C3106 1.368 . S
C3112 C3111 1.523 . S
C3113 C3097 1.429 . S
C3113 C3109 1.429 . S
C3113 C3114 1.523 . S
C3114 C3098 1.368 . S
C3114 C3110 1.368 . S
C3114 C3113 1.523 . S
H3115 C3090 0.950 . S
H3116 C3092 0.950 . S
H3117 C3093 0.949 . S
H3118 C3095 0.950 . S
H3119 C3097 0.950 . S
C3120 C3121 1.349 . S
C3120 C3122 1.327 . S
C3120 H3145 0.950 . S
C3121 C3120 1.349 . S
C3121 C3137 1.349 . S
C3122 C3120 1.327 . S
C3122 C3141 1.429 . S
C3122 H3146 0.950 . S
C3123 C3140 1.574 . S
C3123 C3142 1.368 . S
C3123 H3147 0.949 . S
H3124 C3128 0.949 . S
C3125 C3126 1.349 . S
C3125 C3127 1.327 . S
C3125 H3148 0.950 . S
C3126 C3125 1.349 . S
C3126 C3138 1.349 . S
C3127 C3125 1.327 . S
C3127 C3143 1.429 . S
C3127 H3149 0.950 . S
C3128 H3124 0.949 . S
C3128 C3136 1.574 . S
C3128 C3144 1.368 . S
H3129 C3137 0.950 . S
H3130 C3135 0.950 . S
H3131 C3136 0.949 . S
H3132 C3138 0.950 . S
H3133 C3139 0.950 . S
H3134 C3140 0.949 . S
C3135 H3130 0.950 . S
C3135 C3137 1.327 . S
C3135 C3141 1.429 . S
C3136 C3128 1.574 . S
C3136 H3131 0.949 . S
C3136 C3142 1.368 . S
C3137 C3121 1.349 . S
C3137 H3129 0.950 . S
C3137 C3135 1.327 . S
C3138 C3126 1.349 . S
C3138 H3132 0.950 . S
C3138 C3139 1.327 . S
C3139 H3133 0.950 . S
C3139 C3138 1.327 . S
C3139 C3143 1.429 . S
C3140 C3123 1.574 . S
C3140 H3134 0.949 . S
C3140 C3144 1.368 . S
C3141 C3122 1.429 . S
C3141 C3135 1.429 . S
C3141 C3142 1.523 . S
C3142 C3123 1.368 . S
C3142 C3136 1.368 . S
C3142 C3141 1.523 . S
C3143 C3127 1.429 . S
C3143 C3139 1.429 . S
C3143 C3144 1.523 . S
C3144 C3128 1.368 . S
C3144 C3140 1.368 . S
C3144 C3143 1.523 . S
H3145 C3120 0.950 . S
H3146 C3122 0.950 . S
H3147 C3123 0.949 . S
H3148 C3125 0.950 . S
H3149 C3127 0.950 . S
C3150 C3151 1.349 . S
C3150 C3152 1.327 . S
C3150 H3175 0.950 . S
C3151 C3150 1.349 . S
C3151 C3167 1.349 . S
C3152 C3150 1.327 . S
C3152 C3171 1.429 . S
C3152 H3176 0.950 . S
C3153 C3170 1.574 . S
C3153 C3172 1.368 . S
C3153 H3177 0.949 . S
H3154 C3158 0.949 . S
C3155 C3156 1.349 . S
C3155 C3157 1.327 . S
C3155 H3178 0.950 . S
C3156 C3155 1.349 . S
C3156 C3168 1.349 . S
C3157 C3155 1.327 . S
C3157 C3173 1.429 . S
C3157 H3179 0.950 . S
C3158 H3154 0.949 . S
C3158 C3166 1.574 . S
C3158 C3174 1.368 . S
H3159 C3167 0.950 . S
H3160 C3165 0.950 . S
H3161 C3166 0.949 . S
H3162 C3168 0.950 . S
H3163 C3169 0.950 . S
H3164 C3170 0.949 . S
C3165 H3160 0.950 . S
C3165 C3167 1.327 . S
C3165 C3171 1.429 . S
C3166 C3158 1.574 . S
C3166 H3161 0.949 . S
C3166 C3172 1.368 . S
C3167 C3151 1.349 . S
C3167 H3159 0.950 . S
C3167 C3165 1.327 . S
C3168 C3156 1.349 . S
C3168 H3162 0.950 . S
C3168 C3169 1.327 . S
C3169 H3163 0.950 . S
C3169 C3168 1.327 . S
C3169 C3173 1.429 . S
C3170 C3153 1.574 . S
C3170 H3164 0.949 . S
C3170 C3174 1.368 . S
C3171 C3152 1.429 . S
C3171 C3165 1.429 . S
C3171 C3172 1.523 . S
C3172 C3153 1.368 . S
C3172 C3166 1.368 . S
C3172 C3171 1.523 . S
C3173 C3157 1.429 . S
C3173 C3169 1.429 . S
C3173 C3174 1.523 . S
C3174 C3158 1.368 . S
C3174 C3170 1.368 . S
C3174 C3173 1.523 . S
H3175 C3150 0.950 . S
H3176 C3152 0.950 . S
H3177 C3153 0.949 . S
H3178 C3155 0.950 . S
H3179 C3157 0.950 . S
C3180 C3181 1.349 . S
C3180 C3182 1.327 . S
C3180 H3205 0.950 . S
C3181 C3180 1.349 . S
C3181 C3197 1.349 . S
C3182 C3180 1.327 . S
C3182 C3201 1.429 . S
C3182 H3206 0.950 . S
C3183 C3200 1.574 . S
C3183 C3202 1.368 . S
C3183 H3207 0.949 . S
H3184 C3188 0.949 . S
C3185 C3186 1.349 . S
C3185 C3187 1.327 . S
C3185 H3208 0.950 . S
C3186 C3185 1.349 . S
C3186 C3198 1.349 . S
C3187 C3185 1.327 . S
C3187 C3203 1.429 . S
C3187 H3209 0.950 . S
C3188 H3184 0.949 . S
C3188 C3196 1.574 . S
C3188 C3204 1.368 . S
H3189 C3197 0.950 . S
H3190 C3195 0.950 . S
H3191 C3196 0.949 . S
H3192 C3198 0.950 . S
H3193 C3199 0.950 . S
H3194 C3200 0.949 . S
C3195 H3190 0.950 . S
C3195 C3197 1.327 . S
C3195 C3201 1.429 . S
C3196 C3188 1.574 . S
C3196 H3191 0.949 . S
C3196 C3202 1.368 . S
C3197 C3181 1.349 . S
C3197 H3189 0.950 . S
C3197 C3195 1.327 . S
C3198 C3186 1.349 . S
C3198 H3192 0.950 . S
C3198 C3199 1.327 . S
C3199 H3193 0.950 . S
C3199 C3198 1.327 . S
C3199 C3203 1.429 . S
C3200 C3183 1.574 . S
C3200 H3194 0.949 . S
C3200 C3204 1.368 . S
C3201 C3182 1.429 . S
C3201 C3195 1.429 . S
C3201 C3202 1.523 . S
C3202 C3183 1.368 . S
C3202 C3196 1.368 . S
C3202 C3201 1.523 . S
C3203 C3187 1.429 . S
C3203 C3199 1.429 . S
C3203 C3204 1.523 . S
C3204 C3188 1.368 . S
C3204 C3200 1.368 . S
C3204 C3203 1.523 . S
H3205 C3180 0.950 . S
H3206 C3182 0.950 . S
H3207 C3183 0.949 . S
H3208 C3185 0.950 . S
H3209 C3187 0.950 . S
C3210 C3211 1.349 . S
C3210 C3212 1.327 . S
C3210 H3235 0.950 . S
C3211 C3210 1.349 . S
C3211 C3227 1.349 . S
C3212 C3210 1.327 . S
C3212 C3231 1.429 . S
C3212 H3236 0.950 . S
C3213 C3230 1.574 . S
C3213 C3232 1.368 . S
C3213 H3237 0.949 . S
H3214 C3218 0.949 . S
C3215 C3216 1.349 . S
C3215 C3217 1.327 . S
C3215 H3238 0.950 . S
C3216 C3215 1.349 . S
C3216 C3228 1.349 . S
C3217 C3215 1.327 . S
C3217 C3233 1.429 . S
C3217 H3239 0.950 . S
C3218 H3214 0.949 . S
C3218 C3226 1.574 . S
C3218 C3234 1.368 . S
H3219 C3227 0.950 . S
H3220 C3225 0.950 . S
H3221 C3226 0.949 . S
H3222 C3228 0.950 . S
H3223 C3229 0.950 . S
H3224 C3230 0.949 . S
C3225 H3220 0.950 . S
C3225 C3227 1.327 . S
C3225 C3231 1.429 . S
C3226 C3218 1.574 . S
C3226 H3221 0.949 . S
C3226 C3232 1.368 . S
C3227 C3211 1.349 . S
C3227 H3219 0.950 . S
C3227 C3225 1.327 . S
C3228 C3216 1.349 . S
C3228 H3222 0.950 . S
C3228 C3229 1.327 . S
C3229 H3223 0.950 . S
C3229 C3228 1.327 . S
C3229 C3233 1.429 . S
C3230 C3213 1.574 . S
C3230 H3224 0.949 . S
C3230 C3234 1.368 . S
C3231 C3212 1.429 . S
C3231 C3225 1.429 . S
C3231 C3232 1.523 . S
C3232 C3213 1.368 . S
C3232 C3226 1.368 . S
C3232 C3231 1.523 . S
C3233 C3217 1.429 . S
C3233 C3229 1.429 . S
C3233 C3234 1.523 . S
C3234 C3218 1.368 . S
C3234 C3230 1.368 . S
C3234 C3233 1.523 . S
H3235 C3210 0.950 . S
H3236 C3212 0.950 . S
H3237 C3213 0.949 . S
H3238 C3215 0.950 . S
H3239 C3217 0.950 . S
C3240 C3241 1.349 . S
C3240 C3242 1.327 . S
C3240 H3265 0.950 . S
C3241 C3240 1.349 . S
C3241 C3257 1.349 . S
C3242 C3240 1.327 . S
C3242 C3261 1.429 . S
C3242 H3266 0.950 . S
C3243 C3260 1.574 . S
C3243 C3262 1.368 . S
C3243 H3267 0.949 . S
H3244 C3248 0.949 . S
C3245 C3246 1.349 . S
C3245 C3247 1.327 . S
C3245 H3268 0.950 . S
C3246 C3245 1.349 . S
C3246 C3258 1.349 . S
C3247 C3245 1.327 . S
C3247 C3263 1.429 . S
C3247 H3269 0.950 . S
C3248 H3244 0.949 . S
C3248 C3256 1.574 . S
C3248 C3264 1.368 . S
H3249 C3257 0.950 . S
H3250 C3255 0.950 . S
H3251 C3256 0.949 . S
H3252 C3258 0.950 . S
H3253 C3259 0.950 . S
H3254 C3260 0.949 . S
C3255 H3250 0.950 . S
C3255 C3257 1.327 . S
C3255 C3261 1.429 . S
C3256 C3248 1.574 . S
C3256 H3251 0.949 . S
C3256 C3262 1.368 . S
C3257 C3241 1.349 . S
C3257 H3249 0.950 . S
C3257 C3255 1.327 . S
C3258 C3246 1.349 . S
C3258 H3252 0.950 . S
C3258 C3259 1.327 . S
C3259 H3253 0.950 . S
C3259 C3258 1.327 . S
C3259 C3263 1.429 . S
C3260 C3243 1.574 . S
C3260 H3254 0.949 . S
C3260 C3264 1.368 . S
C3261 C3242 1.429 . S
C3261 C3255 1.429 . S
C3261 C3262 1.523 . S
C3262 C3243 1.368 . S
C3262 C3256 1.368 . S
C3262 C3261 1.523 . S
C3263 C3247 1.429 . S
C3263 C3259 1.429 . S
C3263 C3264 1.523 . S
C3264 C3248 1.368 . S
C3264 C3260 1.368 . S
C3264 C3263 1.523 . S
H3265 C3240 0.950 . S
H3266 C3242 0.950 . S
H3267 C3243 0.949 . S
H3268 C3245 0.950 . S
H3269 C3247 0.950 . S
C3270 C3271 1.349 . S
C3270 C3272 1.327 . S
C3270 H3295 0.950 . S
C3271 C3270 1.349 . S
C3271 C3287 1.349 . S
C3272 C3270 1.327 . S
C3272 C3291 1.429 . S
C3272 H3296 0.950 . S
C3273 C3290 1.574 . S
C3273 C3292 1.368 . S
C3273 H3297 0.949 . S
H3274 C3278 0.949 . S
C3275 C3276 1.349 . S
C3275 C3277 1.327 . S
C3275 H3298 0.950 . S
C3276 C3275 1.349 . S
C3276 C3288 1.349 . S
C3277 C3275 1.327 . S
C3277 C3293 1.429 . S
C3277 H3299 0.950 . S
C3278 H3274 0.949 . S
C3278 C3286 1.574 . S
C3278 C3294 1.368 . S
H3279 C3287 0.950 . S
H3280 C3285 0.950 . S
H3281 C3286 0.949 . S
H3282 C3288 0.950 . S
H3283 C3289 0.950 . S
H3284 C3290 0.949 . S
C3285 H3280 0.950 . S
C3285 C3287 1.327 . S
C3285 C3291 1.429 . S
C3286 C3278 1.574 . S
C3286 H3281 0.949 . S
C3286 C3292 1.368 . S
C3287 C3271 1.349 . S
C3287 H3279 0.950 . S
C3287 C3285 1.327 . S
C3288 C3276 1.349 . S
C3288 H3282 0.950 . S
C3288 C3289 1.327 . S
C3289 H3283 0.950 . S
C3289 C3288 1.327 . S
C3289 C3293 1.429 . S
C3290 C3273 1.574 . S
C3290 H3284 0.949 . S
C3290 C3294 1.368 . S
C3291 C3272 1.429 . S
C3291 C3285 1.429 . S
C3291 C3292 1.523 . S
C3292 C3273 1.368 . S
C3292 C3286 1.368 . S
C3292 C3291 1.523 . S
C3293 C3277 1.429 . S
C3293 C3289 1.429 . S
C3293 C3294 1.523 . S
C3294 C3278 1.368 . S
C3294 C3290 1.368 . S
C3294 C3293 1.523 . S
H3295 C3270 0.950 . S
H3296 C3272 0.950 . S
H3297 C3273 0.949 . S
H3298 C3275 0.950 . S
H3299 C3277 0.950 . S
C3300 C3301 1.349 . S
C3300 C3302 1.327 . S
C3300 H3325 0.950 . S
C3301 C3300 1.349 . S
C3301 C3317 1.349 . S
C3302 C3300 1.327 . S
C3302 C3321 1.429 . S
C3302 H3326 0.950 . S
C3303 C3320 1.574 . S
C3303 C3322 1.368 . S
C3303 H3327 0.949 . S
H3304 C3308 0.949 . S
C3305 C3306 1.349 . S
C3305 C3307 1.327 . S
C3305 H3328 0.950 . S
C3306 C3305 1.349 . S
C3306 C3318 1.349 . S
C3307 C3305 1.327 . S
C3307 C3323 1.429 . S
C3307 H3329 0.950 . S
C3308 H3304 0.949 . S
C3308 C3316 1.574 . S
C3308 C3324 1.368 . S
H3309 C3317 0.950 . S
H3310 C3315 0.950 . S
H3311 C3316 0.949 . S
H3312 C3318 0.950 . S
H3313 C3319 0.950 . S
H3314 C3320 0.949 . S
C3315 H3310 0.950 . S
C3315 C3317 1.327 . S
C3315 C3321 1.429 . S
C3316 C3308 1.574 . S
C3316 H3311 0.949 . S
C3316 C3322 1.368 . S
C3317 C3301 1.349 . S
C3317 H3309 0.950 . S
C3317 C3315 1.327 . S
C3318 C3306 1.349 . S
C3318 H3312 0.950 . S
C3318 C3319 1.327 . S
C3319 H3313 0.950 . S
C3319 C3318 1.327 . S
C3319 C3323 1.429 . S
C3320 C3303 1.574 . S
C3320 H3314 0.949 . S
C3320 C3324 1.368 . S
C3321 C3302 1.429 . S
C3321 C3315 1.429 . S
C3321 C3322 1.523 . S
C3322 C3303 1.368 . S
C3322 C3316 1.368 . S
C3322 C3321 1.523 . S
C3323 C3307 1.429 . S
C3323 C3319 1.429 . S
C3323 C3324 1.523 . S
C3324 C3308 1.368 . S
C3324 C3320 1.368 . S
C3324 C3323 1.523 . S
H3325 C3300 0.950 . S
H3326 C3302 0.950 . S
H3327 C3303 0.949 . S
H3328 C3305 0.950 . S
H3329 C3307 0.950 . S
C3330 C3331 1.349 . S
C3330 C3332 1.327 . S
C3330 H3355 0.950 . S
C3331 C3330 1.349 . S
C3331 C3347 1.349 . S
C3332 C3330 1.327 . S
C3332 C3351 1.429 . S
C3332 H3356 0.950 . S
C3333 C3350 1.574 . S
C3333 C3352 1.368 . S
C3333 H3357 0.949 . S
H3334 C3338 0.949 . S
C3335 C3336 1.349 . S
C3335 C3337 1.327 . S
C3335 H3358 0.950 . S
C3336 C3335 1.349 . S
C3336 C3348 1.349 . S
C3337 C3335 1.327 . S
C3337 C3353 1.429 . S
C3337 H3359 0.950 . S
C3338 H3334 0.949 . S
C3338 C3346 1.574 . S
C3338 C3354 1.368 . S
H3339 C3347 0.950 . S
H3340 C3345 0.950 . S
H3341 C3346 0.949 . S
H3342 C3348 0.950 . S
H3343 C3349 0.950 . S
H3344 C3350 0.949 . S
C3345 H3340 0.950 . S
C3345 C3347 1.327 . S
C3345 C3351 1.429 . S
C3346 C3338 1.574 . S
C3346 H3341 0.949 . S
C3346 C3352 1.368 . S
C3347 C3331 1.349 . S
C3347 H3339 0.950 . S
C3347 C3345 1.327 . S
C3348 C3336 1.349 . S
C3348 H3342 0.950 . S
C3348 C3349 1.327 . S
C3349 H3343 0.950 . S
C3349 C3348 1.327 . S
C3349 C3353 1.429 . S
C3350 C3333 1.574 . S
C3350 H3344 0.949 . S
C3350 C3354 1.368 . S
C3351 C3332 1.429 . S
C3351 C3345 1.429 . S
C3351 C3352 1.523 . S
C3352 C3333 1.368 . S
C3352 C3346 1.368 . S
C3352 C3351 1.523 . S
C3353 C3337 1.429 . S
C3353 C3349 1.429 . S
C3353 C3354 1.523 . S
C3354 C3338 1.368 . S
C3354 C3350 1.368 . S
C3354 C3353 1.523 . S
H3355 C3330 0.950 . S
H3356 C3332 0.950 . S
H3357 C3333 0.949 . S
H3358 C3335 0.950 . S
H3359 C3337 0.950 . S
C3360 C3361 1.349 . S
C3360 C3362 1.327 . S
C3360 H3385 0.950 . S
C3361 C3360 1.349 . S
C3361 C3377 1.349 . S
C3362 C3360 1.327 . S
C3362 C3381 1.429 . S
C3362 H3386 0.950 . S
C3363 C3380 1.574 . S
C3363 C3382 1.368 . S
C3363 H3387 0.949 . S
H3364 C3368 0.949 . S
C3365 C3366 1.349 . S
C3365 C3367 1.327 . S
C3365 H3388 0.950 . S
C3366 C3365 1.349 . S
C3366 C3378 1.349 . S
C3367 C3365 1.327 . S
C3367 C3383 1.429 . S
C3367 H3389 0.950 . S
C3368 H3364 0.949 . S
C3368 C3376 1.574 . S
C3368 C3384 1.368 . S
H3369 C3377 0.950 . S
H3370 C3375 0.950 . S
H3371 C3376 0.949 . S
H3372 C3378 0.950 . S
H3373 C3379 0.950 . S
H3374 C3380 0.949 . S
C3375 H3370 0.950 . S
C3375 C3377 1.327 . S
C3375 C3381 1.429 . S
C3376 C3368 1.574 . S
C3376 H3371 0.949 . S
C3376 C3382 1.368 . S
C3377 C3361 1.349 . S
C3377 H3369 0.950 . S
C3377 C3375 1.327 . S
C3378 C3366 1.349 . S
C3378 H3372 0.950 . S
C3378 C3379 1.327 . S
C3379 H3373 0.950 . S
C3379 C3378 1.327 . S
C3379 C3383 1.429 . S
C3380 C3363 1.574 . S
C3380 H3374 0.949 . S
C3380 C3384 1.368 . S
C3381 C3362 1.429 . S
C3381 C3375 1.429 . S
C3381 C3382 1.523 . S
C3382 C3363 1.368 . S
C3382 C3376 1.368 . S
C3382 C3381 1.523 . S
C3383 C3367 1.429 . S
C3383 C3379 1.429 . S
C3383 C3384 1.523 . S
C3384 C3368 1.368 . S
C3384 C3380 1.368 . S
C3384 C3383 1.523 . S
H3385 C3360 0.950 . S
H3386 C3362 0.950 . S
H3387 C3363 0.949 . S
H3388 C3365 0.950 . S
H3389 C3367 0.950 . S
C3390 C3391 1.349 . S
C3390 C3392 1.327 . S
C3390 H3415 0.950 . S
C3391 C3390 1.349 . S
C3391 C3407 1.349 . S
C3392 C3390 1.327 . S
C3392 C3411 1.429 . S
C3392 H3416 0.950 . S
C3393 C3410 1.574 . S
C3393 C3412 1.368 . S
C3393 H3417 0.949 . S
H3394 C3398 0.949 . S
C3395 C3396 1.349 . S
C3395 C3397 1.327 . S
C3395 H3418 0.950 . S
C3396 C3395 1.349 . S
C3396 C3408 1.349 . S
C3397 C3395 1.327 . S
C3397 C3413 1.429 . S
C3397 H3419 0.950 . S
C3398 H3394 0.949 . S
C3398 C3406 1.574 . S
C3398 C3414 1.368 . S
H3399 C3407 0.950 . S
H3400 C3405 0.950 . S
H3401 C3406 0.949 . S
H3402 C3408 0.950 . S
H3403 C3409 0.950 . S
H3404 C3410 0.949 . S
C3405 H3400 0.950 . S
C3405 C3407 1.327 . S
C3405 C3411 1.429 . S
C3406 C3398 1.574 . S
C3406 H3401 0.949 . S
C3406 C3412 1.368 . S
C3407 C3391 1.349 . S
C3407 H3399 0.950 . S
C3407 C3405 1.327 . S
C3408 C3396 1.349 . S
C3408 H3402 0.950 . S
C3408 C3409 1.327 . S
C3409 H3403 0.950 . S
C3409 C3408 1.327 . S
C3409 C3413 1.429 . S
C3410 C3393 1.574 . S
C3410 H3404 0.949 . S
C3410 C3414 1.368 . S
C3411 C3392 1.429 . S
C3411 C3405 1.429 . S
C3411 C3412 1.523 . S
C3412 C3393 1.368 . S
C3412 C3406 1.368 . S
C3412 C3411 1.523 . S
C3413 C3397 1.429 . S
C3413 C3409 1.429 . S
C3413 C3414 1.523 . S
C3414 C3398 1.368 . S
C3414 C3410 1.368 . S
C3414 C3413 1.523 . S
H3415 C3390 0.950 . S
H3416 C3392 0.950 . S
H3417 C3393 0.949 . S
H3418 C3395 0.950 . S
H3419 C3397 0.950 . S
C3420 C3421 1.349 . S
C3420 C3422 1.327 . S
C3420 H3445 0.950 . S
C3421 C3420 1.349 . S
C3421 C3437 1.349 . S
C3422 C3420 1.327 . S
C3422 C3441 1.429 . S
C3422 H3446 0.950 . S
C3423 C3440 1.574 . S
C3423 C3442 1.368 . S
C3423 H3447 0.949 . S
H3424 C3428 0.949 . S
C3425 C3426 1.349 . S
C3425 C3427 1.327 . S
C3425 H3448 0.950 . S
C3426 C3425 1.349 . S
C3426 C3438 1.349 . S
C3427 C3425 1.327 . S
C3427 C3443 1.429 . S
C3427 H3449 0.950 . S
C3428 H3424 0.949 . S
C3428 C3436 1.574 . S
C3428 C3444 1.368 . S
H3429 C3437 0.950 . S
H3430 C3435 0.950 . S
H3431 C3436 0.949 . S
H3432 C3438 0.950 . S
H3433 C3439 0.950 . S
H3434 C3440 0.949 . S
C3435 H3430 0.950 . S
C3435 C3437 1.327 . S
C3435 C3441 1.429 . S
C3436 C3428 1.574 . S
C3436 H3431 0.949 . S
C3436 C3442 1.368 . S
C3437 C3421 1.349 . S
C3437 H3429 0.950 . S
C3437 C3435 1.327 . S
C3438 C3426 1.349 . S
C3438 H3432 0.950 . S
C3438 C3439 1.327 . S
C3439 H3433 0.950 . S
C3439 C3438 1.327 . S
C3439 C3443 1.429 . S
C3440 C3423 1.574 . S
C3440 H3434 0.949 . S
C3440 C3444 1.368 . S
C3441 C3422 1.429 . S
C3441 C3435 1.429 . S
C3441 C3442 1.523 . S
C3442 C3423 1.368 . S
C3442 C3436 1.368 . S
C3442 C3441 1.523 . S
C3443 C3427 1.429 . S
C3443 C3439 1.429 . S
C3443 C3444 1.523 . S
C3444 C3428 1.368 . S
C3444 C3440 1.368 . S
C3444 C3443 1.523 . S
H3445 C3420 0.950 . S
H3446 C3422 0.950 . S
H3447 C3423 0.949 . S
H3448 C3425 0.950 . S
H3449 C3427 0.950 . S
C3450 C3451 1.349 . S
C3450 C3452 1.327 . S
C3450 H3475 0.950 . S
C3451 C3450 1.349 . S
C3451 C3467 1.349 . S
C3452 C3450 1.327 . S
C3452 C3471 1.429 . S
C3452 H3476 0.950 . S
C3453 C3470 1.574 . S
C3453 C3472 1.368 . S
C3453 H3477 0.949 . S
H3454 C3458 0.949 . S
C3455 C3456 1.349 . S
C3455 C3457 1.327 . S
C3455 H3478 0.950 . S
C3456 C3455 1.349 . S
C3456 C3468 1.349 . S
C3457 C3455 1.327 . S
C3457 C3473 1.429 . S
C3457 H3479 0.950 . S
C3458 H3454 0.949 . S
C3458 C3466 1.574 . S
C3458 C3474 1.368 . S
H3459 C3467 0.950 . S
H3460 C3465 0.950 . S
H3461 C3466 0.949 . S
H3462 C3468 0.950 . S
H3463 C3469 0.950 . S
H3464 C3470 0.949 . S
C3465 H3460 0.950 . S
C3465 C3467 1.327 . S
C3465 C3471 1.429 . S
C3466 C3458 1.574 . S
C3466 H3461 0.949 . S
C3466 C3472 1.368 . S
C3467 C3451 1.349 . S
C3467 H3459 0.950 . S
C3467 C3465 1.327 . S
C3468 C3456 1.349 . S
C3468 H3462 0.950 . S
C3468 C3469 1.327 . S
C3469 H3463 0.950 . S
C3469 C3468 1.327 . S
C3469 C3473 1.429 . S
C3470 C3453 1.574 . S
C3470 H3464 0.949 . S
C3470 C3474 1.368 . S
C3471 C3452 1.429 . S
C3471 C3465 1.429 . S
C3471 C3472 1.523 . S
C3472 C3453 1.368 . S
C3472 C3466 1.368 . S
C3472 C3471 1.523 . S
C3473 C3457 1.429 . S
C3473 C3469 1.429 . S
C3473 C3474 1.523 . S
C3474 C3458 1.368 . S
C3474 C3470 1.368 . S
C3474 C3473 1.523 . S
H3475 C3450 0.950 . S
H3476 C3452 0.950 . S
H3477 C3453 0.949 . S
H3478 C3455 0.950 . S
H3479 C3457 0.950 . S
C3480 C3481 1.349 . S
C3480 C3482 1.327 . S
C3480 H3505 0.950 . S
C3481 C3480 1.349 . S
C3481 C3497 1.349 . S
C3482 C3480 1.327 . S
C3482 C3501 1.429 . S
C3482 H3506 0.950 . S
C3483 C3500 1.574 . S
C3483 C3502 1.368 . S
C3483 H3507 0.949 . S
H3484 C3488 0.949 . S
C3485 C3486 1.349 . S
C3485 C3487 1.327 . S
C3485 H3508 0.950 . S
C3486 C3485 1.349 . S
C3486 C3498 1.349 . S
C3487 C3485 1.327 . S
C3487 C3503 1.429 . S
C3487 H3509 0.950 . S
C3488 H3484 0.949 . S
C3488 C3496 1.574 . S
C3488 C3504 1.368 . S
H3489 C3497 0.950 . S
H3490 C3495 0.950 . S
H3491 C3496 0.949 . S
H3492 C3498 0.950 . S
H3493 C3499 0.950 . S
H3494 C3500 0.949 . S
C3495 H3490 0.950 . S
C3495 C3497 1.327 . S
C3495 C3501 1.429 . S
C3496 C3488 1.574 . S
C3496 H3491 0.949 . S
C3496 C3502 1.368 . S
C3497 C3481 1.349 . S
C3497 H3489 0.950 . S
C3497 C3495 1.327 . S
C3498 C3486 1.349 . S
C3498 H3492 0.950 . S
C3498 C3499 1.327 . S
C3499 H3493 0.950 . S
C3499 C3498 1.327 . S
C3499 C3503 1.429 . S
C3500 C3483 1.574 . S
C3500 H3494 0.949 . S
C3500 C3504 1.368 . S
C3501 C3482 1.429 . S
C3501 C3495 1.429 . S
C3501 C3502 1.523 . S
C3502 C3483 1.368 . S
C3502 C3496 1.368 . S
C3502 C3501 1.523 . S
C3503 C3487 1.429 . S
C3503 C3499 1.429 . S
C3503 C3504 1.523 . S
C3504 C3488 1.368 . S
C3504 C3500 1.368 . S
C3504 C3503 1.523 . S
H3505 C3480 0.950 . S
H3506 C3482 0.950 . S
H3507 C3483 0.949 . S
H3508 C3485 0.950 . S
H3509 C3487 0.950 . S
C3510 C3511 1.349 . S
C3510 C3512 1.327 . S
C3510 H3535 0.950 . S
C3511 C3510 1.349 . S
C3511 C3527 1.349 . S
C3512 C3510 1.327 . S
C3512 C3531 1.429 . S
C3512 H3536 0.950 . S
C3513 C3530 1.574 . S
C3513 C3532 1.368 . S
C3513 H3537 0.949 . S
H3514 C3518 0.949 . S
C3515 C3516 1.349 . S
C3515 C3517 1.327 . S
C3515 H3538 0.950 . S
C3516 C3515 1.349 . S
C3516 C3528 1.349 . S
C3517 C3515 1.327 . S
C3517 C3533 1.429 . S
C3517 H3539 0.950 . S
C3518 H3514 0.949 . S
C3518 C3526 1.574 . S
C3518 C3534 1.368 . S
H3519 C3527 0.950 . S
H3520 C3525 0.950 . S
H3521 C3526 0.949 . S
H3522 C3528 0.950 . S
H3523 C3529 0.950 . S
H3524 C3530 0.949 . S
C3525 H3520 0.950 . S
C3525 C3527 1.327 . S
C3525 C3531 1.429 . S
C3526 C3518 1.574 . S
C3526 H3521 0.949 . S
C3526 C3532 1.368 . S
C3527 C3511 1.349 . S
C3527 H3519 0.950 . S
C3527 C3525 1.327 . S
C3528 C3516 1.349 . S
C3528 H3522 0.950 . S
C3528 C3529 1.327 . S
C3529 H3523 0.950 . S
C3529 C3528 1.327 . S
C3529 C3533 1.429 . S
C3530 C3513 1.574 . S
C3530 H3524 0.949 . S
C3530 C3534 1.368 . S
C3531 C3512 1.429 . S
C3531 C3525 1.429 . S
C3531 C3532 1.523 . S
C3532 C3513 1.368 . S
C3532 C3526 1.368 . S
C3532 C3531 1.523 . S
C3533 C3517 1.429 . S
C3533 C3529 1.429 . S
C3533 C3534 1.523 . S
C3534 C3518 1.368 . S
C3534 C3530 1.368 . S
C3534 C3533 1.523 . S
H3535 C3510 0.950 . S
H3536 C3512 0.950 . S
H3537 C3513 0.949 . S
H3538 C3515 0.950 . S
H3539 C3517 0.950 . S
C3540 C3541 1.349 . S
C3540 C3542 1.327 . S
C3540 H3565 0.950 . S
C3541 C3540 1.349 . S
C3541 C3557 1.349 . S
C3542 C3540 1.327 . S
C3542 C3561 1.429 . S
C3542 H3566 0.950 . S
C3543 C3560 1.574 . S
C3543 C3562 1.368 . S
C3543 H3567 0.949 . S
H3544 C3548 0.949 . S
C3545 C3546 1.349 . S
C3545 C3547 1.327 . S
C3545 H3568 0.950 . S
C3546 C3545 1.349 . S
C3546 C3558 1.349 . S
C3547 C3545 1.327 . S
C3547 C3563 1.429 . S
C3547 H3569 0.950 . S
C3548 H3544 0.949 . S
C3548 C3556 1.574 . S
C3548 C3564 1.368 . S
H3549 C3557 0.950 . S
H3550 C3555 0.950 . S
H3551 C3556 0.949 . S
H3552 C3558 0.950 . S
H3553 C3559 0.950 . S
H3554 C3560 0.949 . S
C3555 H3550 0.950 . S
C3555 C3557 1.327 . S
C3555 C3561 1.429 . S
C3556 C3548 1.574 . S
C3556 H3551 0.949 . S
C3556 C3562 1.368 . S
C3557 C3541 1.349 . S
C3557 H3549 0.950 . S
C3557 C3555 1.327 . S
C3558 C3546 1.349 . S
C3558 H3552 0.950 . S
C3558 C3559 1.327 . S
C3559 H3553 0.950 . S
C3559 C3558 1.327 . S
C3559 C3563 1.429 . S
C3560 C3543 1.574 . S
C3560 H3554 0.949 . S
C3560 C3564 1.368 . S
C3561 C3542 1.429 . S
C3561 C3555 1.429 . S
C3561 C3562 1.523 . S
C3562 C3543 1.368 . S
C3562 C3556 1.368 . S
C3562 C3561 1.523 . S
C3563 C3547 1.429 . S
C3563 C3559 1.429 . S
C3563 C3564 1.523 . S
C3564 C3548 1.368 . S
C3564 C3560 1.368 . S
C3564 C3563 1.523 . S
H3565 C3540 0.950 . S
H3566 C3542 0.950 . S
H3567 C3543 0.949 . S
H3568 C3545 0.950 . S
H3569 C3547 0.950 . S
C3570 C3571 1.349 . S
C3570 C3572 1.327 . S
C3570 H3595 0.950 . S
C3571 C3570 1.349 . S
C3571 C3587 1.349 . S
C3572 C3570 1.327 . S
C3572 C3591 1.429 . S
C3572 H3596 0.950 . S
C3573 C3590 1.574 . S
C3573 C3592 1.368 . S
C3573 H3597 0.949 . S
H3574 C3578 0.949 . S
C3575 C3576 1.349 . S
C3575 C3577 1.327 . S
C3575 H3598 0.950 . S
C3576 C3575 1.349 . S
C3576 C3588 1.349 . S
C3577 C3575 1.327 . S
C3577 C3593 1.429 . S
C3577 H3599 0.950 . S
C3578 H3574 0.949 . S
C3578 C3586 1.574 . S
C3578 C3594 1.368 . S
H3579 C3587 0.950 . S
H3580 C3585 0.950 . S
H3581 C3586 0.949 . S
H3582 C3588 0.950 . S
H3583 C3589 0.950 . S
H3584 C3590 0.949 . S
C3585 H3580 0.950 . S
C3585 C3587 1.327 . S
C3585 C3591 1.429 . S
C3586 C3578 1.574 . S
C3586 H3581 0.949 . S
C3586 C3592 1.368 . S
C3587 C3571 1.349 . S
C3587 H3579 0.950 . S
C3587 C3585 1.327 . S
C3588 C3576 1.349 . S
C3588 H3582 0.950 . S
C3588 C3589 1.327 . S
C3589 H3583 0.950 . S
C3589 C3588 1.327 . S
C3589 C3593 1.429 . S
C3590 C3573 1.574 . S
C3590 H3584 0.949 . S
C3590 C3594 1.368 . S
C3591 C3572 1.429 . S
C3591 C3585 1.429 . S
C3591 C3592 1.523 . S
C3592 C3573 1.368 . S
C3592 C3586 1.368 . S
C3592 C3591 1.523 . S
C3593 C3577 1.429 . S
C3593 C3589 1.429 . S
C3593 C3594 1.523 . S
C3594 C3578 1.368 . S
C3594 C3590 1.368 . S
C3594 C3593 1.523 . S
H3595 C3570 0.950 . S
H3596 C3572 0.950 . S
H3597 C3573 0.949 . S
H3598 C3575 0.950 . S
H3599 C3577 0.950 . S
C3600 C3601 1.349 . S
C3600 C3602 1.327 . S
C3600 H3625 0.950 . S
C3601 C3600 1.349 . S
C3601 C3617 1.349 . S
C3602 C3600 1.327 . S
C3602 C3621 1.429 . S
C3602 H3626 0.950 . S
C3603 C3620 1.574 . S
C3603 C3622 1.368 . S
C3603 H3627 0.949 . S
H3604 C3608 0.949 . S
C3605 C3606 1.349 . S
C3605 C3607 1.327 . S
C3605 H3628 0.950 . S
C3606 C3605 1.349 . S
C3606 C3618 1.349 . S
C3607 C3605 1.327 . S
C3607 C3623 1.429 . S
C3607 H3629 0.950 . S
C3608 H3604 0.949 . S
C3608 C3616 1.574 . S
C3608 C3624 1.368 . S
H3609 C3617 0.950 . S
H3610 C3615 0.950 . S
H3611 C3616 0.949 . S
H3612 C3618 0.950 . S
H3613 C3619 0.950 . S
H3614 C3620 0.949 . S
C3615 H3610 0.950 . S
C3615 C3617 1.327 . S
C3615 C3621 1.429 . S
C3616 C3608 1.574 . S
C3616 H3611 0.949 . S
C3616 C3622 1.368 . S
C3617 C3601 1.349 . S
C3617 H3609 0.950 . S
C3617 C3615 1.327 . S
C3618 C3606 1.349 . S
C3618 H3612 0.950 . S
C3618 C3619 1.327 . S
C3619 H3613 0.950 . S
C3619 C3618 1.327 . S
C3619 C3623 1.429 . S
C3620 C3603 1.574 . S
C3620 H3614 0.949 . S
C3620 C3624 1.368 . S
C3621 C3602 1.429 . S
C3621 C3615 1.429 . S
C3621 C3622 1.523 . S
C3622 C3603 1.368 . S
C3622 C3616 1.368 . S
C3622 C3621 1.523 . S
C3623 C3607 1.429 . S
C3623 C3619 1.429 . S
C3623 C3624 1.523 . S
C3624 C3608 1.368 . S
C3624 C3620 1.368 . S
C3624 C3623 1.523 . S
H3625 C3600 0.950 . S
H3626 C3602 0.950 . S
H3627 C3603 0.949 . S
H3628 C3605 0.950 . S
H3629 C3607 0.950 . S
C3630 C3631 1.349 . S
C3630 C3632 1.327 . S
C3630 H3655 0.950 . S
C3631 C3630 1.349 . S
C3631 C3647 1.349 . S
C3632 C3630 1.327 . S
C3632 C3651 1.429 . S
C3632 H3656 0.950 . S
C3633 C3650 1.574 . S
C3633 C3652 1.368 . S
C3633 H3657 0.949 . S
H3634 C3638 0.949 . S
C3635 C3636 1.349 . S
C3635 C3637 1.327 . S
C3635 H3658 0.950 . S
C3636 C3635 1.349 . S
C3636 C3648 1.349 . S
C3637 C3635 1.327 . S
C3637 C3653 1.429 . S
C3637 H3659 0.950 . S
C3638 H3634 0.949 . S
C3638 C3646 1.574 . S
C3638 C3654 1.368 . S
H3639 C3647 0.950 . S
H3640 C3645 0.950 . S
H3641 C3646 0.949 . S
H3642 C3648 0.950 . S
H3643 C3649 0.950 . S
H3644 C3650 0.949 . S
C3645 H3640 0.950 . S
C3645 C3647 1.327 . S
C3645 C3651 1.429 . S
C3646 C3638 1.574 . S
C3646 H3641 0.949 . S
C3646 C3652 1.368 . S
C3647 C3631 1.349 . S
C3647 H3639 0.950 . S
C3647 C3645 1.327 . S
C3648 C3636 1.349 . S
C3648 H3642 0.950 . S
C3648 C3649 1.327 . S
C3649 H3643 0.950 . S
C3649 C3648 1.327 . S
C3649 C3653 1.429 . S
C3650 C3633 1.574 . S
C3650 H3644 0.949 . S
C3650 C3654 1.368 . S
C3651 C3632 1.429 . S
C3651 C3645 1.429 . S
C3651 C3652 1.523 . S
C3652 C3633 1.368 . S
C3652 C3646 1.368 . S
C3652 C3651 1.523 . S
C3653 C3637 1.429 . S
C3653 C3649 1.429 . S
C3653 C3654 1.523 . S
C3654 C3638 1.368 . S
C3654 C3650 1.368 . S
C3654 C3653 1.523 . S
H3655 C3630 0.950 . S
H3656 C3632 0.950 . S
H3657 C3633 0.949 . S
H3658 C3635 0.950 . S
H3659 C3637 0.950 . S
C3660 C3661 1.349 . S
C3660 C3662 1.327 . S
C3660 H3685 0.950 . S
C3661 C3660 1.349 . S
C3661 C3677 1.349 . S
C3662 C3660 1.327 . S
C3662 C3681 1.429 . S
C3662 H3686 0.950 . S
C3663 C3680 1.574 . S
C3663 C3682 1.368 . S
C3663 H3687 0.949 . S
H3664 C3668 0.949 . S
C3665 C3666 1.349 . S
C3665 C3667 1.327 . S
C3665 H3688 0.950 . S
C3666 C3665 1.349 . S
C3666 C3678 1.349 . S
C3667 C3665 1.327 . S
C3667 C3683 1.429 . S
C3667 H3689 0.950 . S
C3668 H3664 0.949 . S
C3668 C3676 1.574 . S
C3668 C3684 1.368 . S
H3669 C3677 0.950 . S
H3670 C3675 0.950 . S
H3671 C3676 0.949 . S
H3672 C3678 0.950 . S
H3673 C3679 0.950 . S
H3674 C3680 0.949 . S
C3675 H3670 0.950 . S
C3675 C3677 1.327 . S
C3675 C3681 1.429 . S
C3676 C3668 1.574 . S
C3676 H3671 0.949 . S
C3676 C3682 1.368 . S
C3677 C3661 1.349 . S
C3677 H3669 0.950 . S
C3677 C3675 1.327 . S
C3678 C3666 1.349 . S
C3678 H3672 0.950 . S
C3678 C3679 1.327 . S
C3679 H3673 0.950 . S
C3679 C3678 1.327 . S
C3679 C3683 1.429 . S
C3680 C3663 1.574 . S
C3680 H3674 0.949 . S
C3680 C3684 1.368 . S
C3681 C3662 1.429 . S
C3681 C3675 1.429 . S
C3681 C3682 1.523 . S
C3682 C3663 1.368 . S
C3682 C3676 1.368 . S
C3682 C3681 1.523 . S
C3683 C3667 1.429 . S
C3683 C3679 1.429 . S
C3683 C3684 1.523 . S
C3684 C3668 1.368 . S
C3684 C3680 1.368 . S
C3684 C3683 1.523 . S
H3685 C3660 0.950 . S
H3686 C3662 0.950 . S
H3687 C3663 0.949 . S
H3688 C3665 0.950 . S
H3689 C3667 0.950 . S
C3690 C3691 1.349 . S
C3690 C3692 1.327 . S
C3690 H3715 0.950 . S
C3691 C3690 1.349 . S
C3691 C3707 1.349 . S
C3692 C3690 1.327 . S
C3692 C3711 1.429 . S
C3692 H3716 0.950 . S
C3693 C3710 1.574 . S
C3693 C3712 1.368 . S
C3693 H3717 0.949 . S
H3694 C3698 0.949 . S
C3695 C3696 1.349 . S
C3695 C3697 1.327 . S
C3695 H3718 0.950 . S
C3696 C3695 1.349 . S
C3696 C3708 1.349 . S
C3697 C3695 1.327 . S
C3697 C3713 1.429 . S
C3697 H3719 0.950 . S
C3698 H3694 0.949 . S
C3698 C3706 1.574 . S
C3698 C3714 1.368 . S
H3699 C3707 0.950 . S
H3700 C3705 0.950 . S
H3701 C3706 0.949 . S
H3702 C3708 0.950 . S
H3703 C3709 0.950 . S
H3704 C3710 0.949 . S
C3705 H3700 0.950 . S
C3705 C3707 1.327 . S
C3705 C3711 1.429 . S
C3706 C3698 1.574 . S
C3706 H3701 0.949 . S
C3706 C3712 1.368 . S
C3707 C3691 1.349 . S
C3707 H3699 0.950 . S
C3707 C3705 1.327 . S
C3708 C3696 1.349 . S
C3708 H3702 0.950 . S
C3708 C3709 1.327 . S
C3709 H3703 0.950 . S
C3709 C3708 1.327 . S
C3709 C3713 1.429 . S
C3710 C3693 1.574 . S
C3710 H3704 0.949 . S
C3710 C3714 1.368 . S
C3711 C3692 1.429 . S
C3711 C3705 1.429 . S
C3711 C3712 1.523 . S
C3712 C3693 1.368 . S
C3712 C3706 1.368 . S
C3712 C3711 1.523 . S
C3713 C3697 1.429 . S
C3713 C3709 1.429 . S
C3713 C3714 1.523 . S
C3714 C3698 1.368 . S
C3714 C3710 1.368 . S
C3714 C3713 1.523 . S
H3715 C3690 0.950 . S
H3716 C3692 0.950 . S
H3717 C3693 0.949 . S
H3718 C3695 0.950 . S
H3719 C3697 0.950 . S
C3720 C3721 1.349 . S
C3720 C3722 1.327 . S
C3720 H3745 0.950 . S
C3721 C3720 1.349 . S
C3721 C3737 1.349 . S
C3722 C3720 1.327 . S
C3722 C3741 1.429 . S
C3722 H3746 0.950 . S
C3723 C3740 1.574 . S
C3723 C3742 1.368 . S
C3723 H3747 0.949 . S
H3724 C3728 0.949 . S
C3725 C3726 1.349 . S
C3725 C3727 1.327 . S
C3725 H3748 0.950 . S
C3726 C3725 1.349 . S
C3726 C3738 1.349 . S
C3727 C3725 1.327 . S
C3727 C3743 1.429 . S
C3727 H3749 0.950 . S
C3728 H3724 0.949 . S
C3728 C3736 1.574 . S
C3728 C3744 1.368 . S
H3729 C3737 0.950 . S
H3730 C3735 0.950 . S
H3731 C3736 0.949 . S
H3732 C3738 0.950 . S
H3733 C3739 0.950 . S
H3734 C3740 0.949 . S
C3735 H3730 0.950 . S
C3735 C3737 1.327 . S
C3735 C3741 1.429 . S
C3736 C3728 1.574 . S
C3736 H3731 0.949 . S
C3736 C3742 1.368 . S
C3737 C3721 1.349 . S
C3737 H3729 0.950 . S
C3737 C3735 1.327 . S
C3738 C3726 1.349 . S
C3738 H3732 0.950 . S
C3738 C3739 1.327 . S
C3739 H3733 0.950 . S
C3739 C3738 1.327 . S
C3739 C3743 1.429 . S
C3740 C3723 1.574 . S
C3740 H3734 0.949 . S
C3740 C3744 1.368 . S
C3741 C3722 1.429 . S
C3741 C3735 1.429 . S
C3741 C3742 1.523 . S
C3742 C3723 1.368 . S
C3742 C3736 1.368 . S
C3742 C3741 1.523 . S
C3743 C3727 1.429 . S
C3743 C3739 1.429 . S
C3743 C3744 1.523 . S
C3744 C3728 1.368 . S
C3744 C3740 1.368 . S
C3744 C3743 1.523 . S
H3745 C3720 0.950 . S
H3746 C3722 0.950 . S
H3747 C3723 0.949 . S
H3748 C3725 0.950 . S
H3749 C3727 0.950 . S
C3750 C3751 1.349 . S
C3750 C3752 1.327 . S
C3750 H3775 0.950 . S
C3751 C3750 1.349 . S
C3751 C3767 1.349 . S
C3752 C3750 1.327 . S
C3752 C3771 1.429 . S
C3752 H3776 0.950 . S
C3753 C3770 1.574 . S
C3753 C3772 1.368 . S
C3753 H3777 0.949 . S
H3754 C3758 0.949 . S
C3755 C3756 1.349 . S
C3755 C3757 1.327 . S
C3755 H3778 0.950 . S
C3756 C3755 1.349 . S
C3756 C3768 1.349 . S
C3757 C3755 1.327 . S
C3757 C3773 1.429 . S
C3757 H3779 0.950 . S
C3758 H3754 0.949 . S
C3758 C3766 1.574 . S
C3758 C3774 1.368 . S
H3759 C3767 0.950 . S
H3760 C3765 0.950 . S
H3761 C3766 0.949 . S
H3762 C3768 0.950 . S
H3763 C3769 0.950 . S
H3764 C3770 0.949 . S
C3765 H3760 0.950 . S
C3765 C3767 1.327 . S
C3765 C3771 1.429 . S
C3766 C3758 1.574 . S
C3766 H3761 0.949 . S
C3766 C3772 1.368 . S
C3767 C3751 1.349 . S
C3767 H3759 0.950 . S
C3767 C3765 1.327 . S
C3768 C3756 1.349 . S
C3768 H3762 0.950 . S
C3768 C3769 1.327 . S
C3769 H3763 0.950 . S
C3769 C3768 1.327 . S
C3769 C3773 1.429 . S
C3770 C3753 1.574 . S
C3770 H3764 0.949 . S
C3770 C3774 1.368 . S
C3771 C3752 1.429 . S
C3771 C3765 1.429 . S
C3771 C3772 1.523 . S
C3772 C3753 1.368 . S
C3772 C3766 1.368 . S
C3772 C3771 1.523 . S
C3773 C3757 1.429 . S
C3773 C3769 1.429 . S
C3773 C3774 1.523 . S
C3774 C3758 1.368 . S
C3774 C3770 1.368 . S
C3774 C3773 1.523 . S
H3775 C3750 0.950 . S
H3776 C3752 0.950 . S
H3777 C3753 0.949 . S
H3778 C3755 0.950 . S
H3779 C3757 0.950 . S
C3780 C3781 1.349 . S
C3780 C3782 1.327 . S
C3780 H3805 0.950 . S
C3781 C3780 1.349 . S
C3781 C3797 1.349 . S
C3782 C3780 1.327 . S
C3782 C3801 1.429 . S
C3782 H3806 0.950 . S
C3783 C3800 1.574 . S
C3783 C3802 1.368 . S
C3783 H3807 0.949 . S
H3784 C3788 0.949 . S
C3785 C3786 1.349 . S
C3785 C3787 1.327 . S
C3785 H3808 0.950 . S
C3786 C3785 1.349 . S
C3786 C3798 1.349 . S
C3787 C3785 1.327 . S
C3787 C3803 1.429 . S
C3787 H3809 0.950 . S
C3788 H3784 0.949 . S
C3788 C3796 1.574 . S
C3788 C3804 1.368 . S
H3789 C3797 0.950 . S
H3790 C3795 0.950 . S
H3791 C3796 0.949 . S
H3792 C3798 0.950 . S
H3793 C3799 0.950 . S
H3794 C3800 0.949 . S
C3795 H3790 0.950 . S
C3795 C3797 1.327 . S
C3795 C3801 1.429 . S
C3796 C3788 1.574 . S
C3796 H3791 0.949 . S
C3796 C3802 1.368 . S
C3797 C3781 1.349 . S
C3797 H3789 0.950 . S
C3797 C3795 1.327 . S
C3798 C3786 1.349 . S
C3798 H3792 0.950 . S
C3798 C3799 1.327 . S
C3799 H3793 0.950 . S
C3799 C3798 1.327 . S
C3799 C3803 1.429 . S
C3800 C3783 1.574 . S
C3800 H3794 0.949 . S
C3800 C3804 1.368 . S
C3801 C3782 1.429 . S
C3801 C3795 1.429 . S
C3801 C3802 1.523 . S
C3802 C3783 1.368 . S
C3802 C3796 1.368 . S
C3802 C3801 1.523 . S
C3803 C3787 1.429 . S
C3803 C3799 1.429 . S
C3803 C3804 1.523 . S
C3804 C3788 1.368 . S
C3804 C3800 1.368 . S
C3804 C3803 1.523 . S
H3805 C3780 0.950 . S
H3806 C3782 0.950 . S
H3807 C3783 0.949 . S
H3808 C3785 0.950 . S
H3809 C3787 0.950 . S
C3810 C3811 1.349 . S
C3810 C3812 1.327 . S
C3810 H3835 0.950 . S
C3811 C3810 1.349 . S
C3811 C3827 1.349 . S
C3812 C3810 1.327 . S
C3812 C3831 1.429 . S
C3812 H3836 0.950 . S
C3813 C3830 1.574 . S
C3813 C3832 1.368 . S
C3813 H3837 0.949 . S
H3814 C3818 0.949 . S
C3815 C3816 1.349 . S
C3815 C3817 1.327 . S
C3815 H3838 0.950 . S
C3816 C3815 1.349 . S
C3816 C3828 1.349 . S
C3817 C3815 1.327 . S
C3817 C3833 1.429 . S
C3817 H3839 0.950 . S
C3818 H3814 0.949 . S
C3818 C3826 1.574 . S
C3818 C3834 1.368 . S
H3819 C3827 0.950 . S
H3820 C3825 0.950 . S
H3821 C3826 0.949 . S
H3822 C3828 0.950 . S
H3823 C3829 0.950 . S
H3824 C3830 0.949 . S
C3825 H3820 0.950 . S
C3825 C3827 1.327 . S
C3825 C3831 1.429 . S
C3826 C3818 1.574 . S
C3826 H3821 0.949 . S
C3826 C3832 1.368 . S
C3827 C3811 1.349 . S
C3827 H3819 0.950 . S
C3827 C3825 1.327 . S
C3828 C3816 1.349 . S
C3828 H3822 0.950 . S
C3828 C3829 1.327 . S
C3829 H3823 0.950 . S
C3829 C3828 1.327 . S
C3829 C3833 1.429 . S
C3830 C3813 1.574 . S
C3830 H3824 0.949 . S
C3830 C3834 1.368 . S
C3831 C3812 1.429 . S
C3831 C3825 1.429 . S
C3831 C3832 1.523 . S
C3832 C3813 1.368 . S
C3832 C3826 1.368 . S
C3832 C3831 1.523 . S
C3833 C3817 1.429 . S
C3833 C3829 1.429 . S
C3833 C3834 1.523 . S
C3834 C3818 1.368 . S
C3834 C3830 1.368 . S
C3834 C3833 1.523 . S
H3835 C3810 0.950 . S
H3836 C3812 0.950 . S
H3837 C3813 0.949 . S
H3838 C3815 0.950 . S
H3839 C3817 0.950 . S
C3840 C3841 1.349 . S
C3840 C3842 1.327 . S
C3840 H3865 0.950 . S
C3841 C3840 1.349 . S
C3841 C3857 1.349 . S
C3842 C3840 1.327 . S
C3842 C3861 1.429 . S
C3842 H3866 0.950 . S
C3843 C3860 1.574 . S
C3843 C3862 1.368 . S
C3843 H3867 0.949 . S
H3844 C3848 0.949 . S
C3845 C3846 1.349 . S
C3845 C3847 1.327 . S
C3845 H3868 0.950 . S
C3846 C3845 1.349 . S
C3846 C3858 1.349 . S
C3847 C3845 1.327 . S
C3847 C3863 1.429 . S
C3847 H3869 0.950 . S
C3848 H3844 0.949 . S
C3848 C3856 1.574 . S
C3848 C3864 1.368 . S
H3849 C3857 0.950 . S
H3850 C3855 0.950 . S
H3851 C3856 0.949 . S
H3852 C3858 0.950 . S
H3853 C3859 0.950 . S
H3854 C3860 0.949 . S
C3855 H3850 0.950 . S
C3855 C3857 1.327 . S
C3855 C3861 1.429 . S
C3856 C3848 1.574 . S
C3856 H3851 0.949 . S
C3856 C3862 1.368 . S
C3857 C3841 1.349 . S
C3857 H3849 0.950 . S
C3857 C3855 1.327 . S
C3858 C3846 1.349 . S
C3858 H3852 0.950 . S
C3858 C3859 1.327 . S
C3859 H3853 0.950 . S
C3859 C3858 1.327 . S
C3859 C3863 1.429 . S
C3860 C3843 1.574 . S
C3860 H3854 0.949 . S
C3860 C3864 1.368 . S
C3861 C3842 1.429 . S
C3861 C3855 1.429 . S
C3861 C3862 1.523 . S
C3862 C3843 1.368 . S
C3862 C3856 1.368 . S
C3862 C3861 1.523 . S
C3863 C3847 1.429 . S
C3863 C3859 1.429 . S
C3863 C3864 1.523 . S
C3864 C3848 1.368 . S
C3864 C3860 1.368 . S
C3864 C3863 1.523 . S
H3865 C3840 0.950 . S
H3866 C3842 0.950 . S
H3867 C3843 0.949 . S
H3868 C3845 0.950 . S
H3869 C3847 0.950 . S
C3870 C3871 1.349 . S
C3870 C3872 1.327 . S
C3870 H3895 0.950 . S
C3871 C3870 1.349 . S
C3871 C3887 1.349 . S
C3872 C3870 1.327 . S
C3872 C3891 1.429 . S
C3872 H3896 0.950 . S
C3873 C3890 1.574 . S
C3873 C3892 1.368 . S
C3873 H3897 0.949 . S
H3874 C3878 0.949 . S
C3875 C3876 1.349 . S
C3875 C3877 1.327 . S
C3875 H3898 0.950 . S
C3876 C3875 1.349 . S
C3876 C3888 1.349 . S
C3877 C3875 1.327 . S
C3877 C3893 1.429 . S
C3877 H3899 0.950 . S
C3878 H3874 0.949 . S
C3878 C3886 1.574 . S
C3878 C3894 1.368 . S
H3879 C3887 0.950 . S
H3880 C3885 0.950 . S
H3881 C3886 0.949 . S
H3882 C3888 0.950 . S
H3883 C3889 0.950 . S
H3884 C3890 0.949 . S
C3885 H3880 0.950 . S
C3885 C3887 1.327 . S
C3885 C3891 1.429 . S
C3886 C3878 1.574 . S
C3886 H3881 0.949 . S
C3886 C3892 1.368 . S
C3887 C3871 1.349 . S
C3887 H3879 0.950 . S
C3887 C3885 1.327 . S
C3888 C3876 1.349 . S
C3888 H3882 0.950 . S
C3888 C3889 1.327 . S
C3889 H3883 0.950 . S
C3889 C3888 1.327 . S
C3889 C3893 1.429 . S
C3890 C3873 1.574 . S
C3890 H3884 0.949 . S
C3890 C3894 1.368 . S
C3891 C3872 1.429 . S
C3891 C3885 1.429 . S
C3891 C3892 1.523 . S
C3892 C3873 1.368 . S
C3892 C3886 1.368 . S
C3892 C3891 1.523 . S
C3893 C3877 1.429 . S
C3893 C3889 1.429 . S
C3893 C3894 1.523 . S
C3894 C3878 1.368 . S
C3894 C3890 1.368 . S
C3894 C3893 1.523 . S
H3895 C3870 0.950 . S
H3896 C3872 0.950 . S
H3897 C3873 0.949 . S
H3898 C3875 0.950 . S
H3899 C3877 0.950 . S
C3900 C3901 1.349 . S
C3900 C3902 1.327 . S
C3900 H3925 0.950 . S
C3901 C3900 1.349 . S
C3901 C3917 1.349 . S
C3902 C3900 1.327 . S
C3902 C3921 1.429 . S
C3902 H3926 0.950 . S
C3903 C3920 1.574 . S
C3903 C3922 1.368 . S
C3903 H3927 0.949 . S
H3904 C3908 0.949 . S
C3905 C3906 1.349 . S
C3905 C3907 1.327 . S
C3905 H3928 0.950 . S
C3906 C3905 1.349 . S
C3906 C3918 1.349 . S
C3907 C3905 1.327 . S
C3907 C3923 1.429 . S
C3907 H3929 0.950 . S
C3908 H3904 0.949 . S
C3908 C3916 1.574 . S
C3908 C3924 1.368 . S
H3909 C3917 0.950 . S
H3910 C3915 0.950 . S
H3911 C3916 0.949 . S
H3912 C3918 0.950 . S
H3913 C3919 0.950 . S
H3914 C3920 0.949 . S
C3915 H3910 0.950 . S
C3915 C3917 1.327 . S
C3915 C3921 1.429 . S
C3916 C3908 1.574 . S
C3916 H3911 0.949 . S
C3916 C3922 1.368 . S
C3917 C3901 1.349 . S
C3917 H3909 0.950 . S
C3917 C3915 1.327 . S
C3918 C3906 1.349 . S
C3918 H3912 0.950 . S
C3918 C3919 1.327 . S
C3919 H3913 0.950 . S
C3919 C3918 1.327 . S
C3919 C3923 1.429 . S
C3920 C3903 1.574 . S
C3920 H3914 0.949 . S
C3920 C3924 1.368 . S
C3921 C3902 1.429 . S
C3921 C3915 1.429 . S
C3921 C3922 1.523 . S
C3922 C3903 1.368 . S
C3922 C3916 1.368 . S
C3922 C3921 1.523 . S
C3923 C3907 1.429 . S
C3923 C3919 1.429 . S
C3923 C3924 1.523 . S
C3924 C3908 1.368 . S
C3924 C3920 1.368 . S
C3924 C3923 1.523 . S
H3925 C3900 0.950 . S
H3926 C3902 0.950 . S
H3927 C3903 0.949 . S
H3928 C3905 0.950 . S
H3929 C3907 0.950 . S
C3930 C3931 1.349 . S
C3930 C3932 1.327 . S
C3930 H3955 0.950 . S
C3931 C3930 1.349 . S
C3931 C3947 1.349 . S
C3932 C3930 1.327 . S
C3932 C3951 1.429 . S
C3932 H3956 0.950 . S
C3933 C3950 1.574 . S
C3933 C3952 1.368 . S
C3933 H3957 0.949 . S
H3934 C3938 0.949 . S
C3935 C3936 1.349 . S
C3935 C3937 1.327 . S
C3935 H3958 0.950 . S
C3936 C3935 1.349 . S
C3936 C3948 1.349 . S
C3937 C3935 1.327 . S
C3937 C3953 1.429 . S
C3937 H3959 0.950 . S
C3938 H3934 0.949 . S
C3938 C3946 1.574 . S
C3938 C3954 1.368 . S
H3939 C3947 0.950 1_554 S
H3940 C3945 0.950 . S
H3941 C3946 0.949 . S
H3942 C3948 0.950 . S
H3943 C3949 0.950 . S
H3944 C3950 0.949 . S
C3945 H3940 0.950 . S
C3945 C3947 1.327 . S
C3945 C3951 1.429 . S
C3946 C3938 1.574 . S
C3946 H3941 0.949 . S
C3946 C3952 1.368 . S
C3947 C3931 1.349 . S
C3947 H3939 0.950 1_556 S
C3947 C3945 1.327 . S
C3948 C3936 1.349 . S
C3948 H3942 0.950 . S
C3948 C3949 1.327 . S
C3949 H3943 0.950 . S
C3949 C3948 1.327 . S
C3949 C3953 1.429 . S
C3950 C3933 1.574 . S
C3950 H3944 0.949 . S
C3950 C3954 1.368 . S
C3951 C3932 1.429 . S
C3951 C3945 1.429 . S
C3951 C3952 1.523 . S
C3952 C3933 1.368 . S
C3952 C3946 1.368 . S
C3952 C3951 1.523 . S
C3953 C3937 1.429 . S
C3953 C3949 1.429 . S
C3953 C3954 1.523 . S
C3954 C3938 1.368 . S
C3954 C3950 1.368 . S
C3954 C3953 1.523 . S
H3955 C3930 0.950 . S
H3956 C3932 0.950 . S
H3957 C3933 0.949 . S
H3958 C3935 0.950 . S
H3959 C3937 0.950 . S
C3960 C3961 1.349 . S
C3960 C3962 1.327 . S
C3960 H3985 0.950 . S
C3961 C3960 1.349 . S
C3961 C3977 1.349 . S
C3962 C3960 1.327 . S
C3962 C3981 1.429 . S
C3962 H3986 0.950 . S
C3963 C3980 1.574 . S
C3963 C3982 1.368 . S
C3963 H3987 0.949 . S
H3964 C3968 0.949 . S
C3965 C3966 1.349 . S
C3965 C3967 1.327 . S
C3965 H3988 0.950 . S
C3966 C3965 1.349 . S
C3966 C3978 1.349 . S
C3967 C3965 1.327 . S
C3967 C3983 1.429 . S
C3967 H3989 0.950 . S
C3968 H3964 0.949 . S
C3968 C3976 1.574 . S
C3968 C3984 1.368 . S
H3969 C3977 0.926 1_554 S
H3970 C3975 0.950 . S
H3971 C3976 0.949 . S
H3972 C3978 0.950 . S
H3973 C3979 0.950 . S
H3974 C3980 0.949 . S
C3975 H3970 0.950 . S
C3975 C3977 1.327 . S
C3975 C3981 1.429 . S
C3976 C3968 1.574 . S
C3976 H3971 0.949 . S
C3976 C3982 1.368 . S
C3977 C3961 1.349 . S
C3977 H3969 0.926 1_556 S
C3977 C3975 1.327 . S
C3978 C3966 1.349 . S
C3978 H3972 0.950 . S
C3978 C3979 1.327 . S
C3979 H3973 0.950 . S
C3979 C3978 1.327 . S
C3979 C3983 1.429 . S
C3980 C3963 1.574 . S
C3980 H3974 0.949 . S
C3980 C3984 1.368 . S
C3981 C3962 1.429 . S
C3981 C3975 1.429 . S
C3981 C3982 1.523 . S
C3982 C3963 1.368 . S
C3982 C3976 1.368 . S
C3982 C3981 1.523 . S
C3983 C3967 1.429 . S
C3983 C3979 1.429 . S
C3983 C3984 1.523 . S
C3984 C3968 1.368 . S
C3984 C3980 1.368 . S
C3984 C3983 1.523 . S
H3985 C3960 0.950 . S
H3986 C3962 0.950 . S
H3987 C3963 0.949 . S
H3988 C3965 0.950 . S
H3989 C3967 0.950 . S
C3990 C3991 1.349 . S
C3990 C3992 1.327 . S
C3990 H4015 0.950 . S
C3991 C3990 1.349 . S
C3991 C4007 1.349 . S
C3992 C3990 1.327 . S
C3992 C4011 1.429 . S
C3992 H4016 0.950 . S
C3993 C4010 1.574 . S
C3993 C4012 1.368 . S
C3993 H4017 0.949 . S
H3994 C3998 0.949 . S
C3995 C3996 1.349 . S
C3995 C3997 1.327 . S
C3995 H4018 0.950 . S
C3996 C3995 1.349 . S
C3996 C4008 1.349 . S
C3997 C3995 1.327 . S
C3997 C4013 1.429 . S
C3997 H4019 0.950 . S
C3998 H3994 0.949 . S
C3998 C4006 1.574 . S
C3998 C4014 1.368 . S
H3999 C4007 0.950 . S
H4000 C4005 0.950 . S
H4001 C4006 0.949 . S
H4002 C4008 0.950 . S
H4003 C4009 0.950 . S
H4004 C4010 0.949 . S
C4005 H4000 0.950 . S
C4005 C4007 1.327 . S
C4005 C4011 1.429 . S
C4006 C3998 1.574 . S
C4006 H4001 0.949 . S
C4006 C4012 1.368 . S
C4007 C3991 1.349 . S
C4007 H3999 0.950 . S
C4007 C4005 1.327 . S
C4008 C3996 1.349 . S
C4008 H4002 0.950 . S
C4008 C4009 1.327 . S
C4009 H4003 0.950 . S
C4009 C4008 1.327 . S
C4009 C4013 1.429 . S
C4010 C3993 1.574 . S
C4010 H4004 0.949 . S
C4010 C4014 1.368 . S
C4011 C3992 1.429 . S
C4011 C4005 1.429 . S
C4011 C4012 1.523 . S
C4012 C3993 1.368 . S
C4012 C4006 1.368 . S
C4012 C4011 1.523 . S
C4013 C3997 1.429 . S
C4013 C4009 1.429 . S
C4013 C4014 1.523 . S
C4014 C3998 1.368 . S
C4014 C4010 1.368 . S
C4014 C4013 1.523 . S
H4015 C3990 0.950 . S
H4016 C3992 0.950 . S
H4017 C3993 0.949 . S
H4018 C3995 0.950 . S
H4019 C3997 0.950 . S
C4020 C4021 1.349 . S
C4020 C4022 1.327 . S
C4020 H4045 0.950 1_556 S
C4021 C4020 1.349 . S
C4021 C4037 1.349 . S
C4022 C4020 1.327 . S
C4022 C4041 1.429 . S
C4022 H4046 0.950 . S
C4023 C4040 1.574 . S
C4023 C4042 1.368 . S
C4023 H4047 0.949 . S
H4024 C4028 0.949 . S
C4025 C4026 1.349 . S
C4025 C4027 1.327 . S
C4025 H4048 0.950 . S
C4026 C4025 1.349 . S
C4026 C4038 1.349 . S
C4027 C4025 1.327 . S
C4027 C4043 1.429 . S
C4027 H4049 0.950 . S
C4028 H4024 0.949 . S
C4028 C4036 1.574 . S
C4028 C4044 1.368 . S
H4029 C4037 0.950 . S
H4030 C4035 0.950 . S
H4031 C4036 0.949 . S
H4032 C4038 0.950 . S
H4033 C4039 0.950 . S
H4034 C4040 0.949 . S
C4035 H4030 0.950 . S
C4035 C4037 1.327 . S
C4035 C4041 1.429 . S
C4036 C4028 1.574 . S
C4036 H4031 0.949 . S
C4036 C4042 1.368 . S
C4037 C4021 1.349 . S
C4037 H4029 0.950 . S
C4037 C4035 1.327 . S
C4038 C4026 1.349 . S
C4038 H4032 0.950 . S
C4038 C4039 1.327 . S
C4039 H4033 0.950 . S
C4039 C4038 1.327 . S
C4039 C4043 1.429 . S
C4040 C4023 1.574 . S
C4040 H4034 0.949 . S
C4040 C4044 1.368 . S
C4041 C4022 1.429 . S
C4041 C4035 1.429 . S
C4041 C4042 1.523 . S
C4042 C4023 1.368 . S
C4042 C4036 1.368 . S
C4042 C4041 1.523 . S
C4043 C4027 1.429 . S
C4043 C4039 1.429 . S
C4043 C4044 1.523 . S
C4044 C4028 1.368 . S
C4044 C4040 1.368 . S
C4044 C4043 1.523 . S
H4045 C4020 0.950 1_554 S
H4046 C4022 0.950 . S
H4047 C4023 0.949 . S
H4048 C4025 0.950 . S
H4049 C4027 0.950 . S
C4050 C4051 1.349 . S
C4050 C4052 1.327 . S
C4050 H4075 0.950 . S
C4051 C4050 1.349 . S
C4051 C4067 1.349 . S
C4052 C4050 1.327 . S
C4052 C4071 1.429 . S
C4052 H4076 0.950 . S
C4053 C4070 1.574 . S
C4053 C4072 1.368 . S
C4053 H4077 0.949 . S
H4054 C4058 0.949 . S
C4055 C4056 1.349 . S
C4055 C4057 1.327 . S
C4055 H4078 0.950 . S
C4056 C4055 1.349 . S
C4056 C4068 1.349 . S
C4057 C4055 1.327 . S
C4057 C4073 1.429 . S
C4057 H4079 0.950 . S
C4058 H4054 0.949 . S
C4058 C4066 1.574 . S
C4058 C4074 1.368 . S
H4059 C4067 0.950 . S
H4060 C4065 0.950 . S
H4061 C4066 0.949 . S
H4062 C4068 0.950 . S
H4063 C4069 0.950 . S
H4064 C4070 0.949 . S
C4065 H4060 0.950 . S
C4065 C4067 1.327 . S
C4065 C4071 1.429 . S
C4066 C4058 1.574 . S
C4066 H4061 0.949 . S
C4066 C4072 1.368 . S
C4067 C4051 1.349 . S
C4067 H4059 0.950 . S
C4067 C4065 1.327 . S
C4068 C4056 1.349 . S
C4068 H4062 0.950 . S
C4068 C4069 1.327 . S
C4069 H4063 0.950 . S
C4069 C4068 1.327 . S
C4069 C4073 1.429 . S
C4070 C4053 1.574 . S
C4070 H4064 0.949 . S
C4070 C4074 1.368 . S
C4071 C4052 1.429 . S
C4071 C4065 1.429 . S
C4071 C4072 1.523 . S
C4072 C4053 1.368 . S
C4072 C4066 1.368 . S
C4072 C4071 1.523 . S
C4073 C4057 1.429 . S
C4073 C4069 1.429 . S
C4073 C4074 1.523 . S
C4074 C4058 1.368 . S
C4074 C4070 1.368 . S
C4074 C4073 1.523 . S
H4075 C4050 0.950 . S
H4076 C4052 0.950 . S
H4077 C4053 0.949 . S
H4078 C4055 0.950 . S
H4079 C4057 0.950 . S
C4080 C4081 1.349 . S
C4080 C4082 1.327 . S
C4080 H4105 0.950 . S
C4081 C4080 1.349 . S
C4081 C4097 1.349 . S
C4082 C4080 1.327 . S
C4082 C4101 1.429 . S
C4082 H4106 0.950 . S
C4083 C4100 1.574 . S
C4083 C4102 1.368 . S
C4083 H4107 0.949 . S
H4084 C4088 0.949 . S
C4085 C4086 1.349 . S
C4085 C4087 1.327 . S
C4085 H4108 0.950 . S
C4086 C4085 1.349 . S
C4086 C4098 1.349 . S
C4087 C4085 1.327 . S
C4087 C4103 1.429 . S
C4087 H4109 0.950 . S
C4088 H4084 0.949 . S
C4088 C4096 1.574 . S
C4088 C4104 1.368 . S
H4089 C4097 0.950 . S
H4090 C4095 0.950 . S
H4091 C4096 0.949 . S
H4092 C4098 0.950 . S
H4093 C4099 0.950 . S
H4094 C4100 0.949 . S
C4095 H4090 0.950 . S
C4095 C4097 1.327 . S
C4095 C4101 1.429 . S
C4096 C4088 1.574 . S
C4096 H4091 0.949 . S
C4096 C4102 1.368 . S
C4097 C4081 1.349 . S
C4097 H4089 0.950 . S
C4097 C4095 1.327 . S
C4098 C4086 1.349 . S
C4098 H4092 0.950 . S
C4098 C4099 1.327 . S
C4099 H4093 0.950 . S
C4099 C4098 1.327 . S
C4099 C4103 1.429 . S
C4100 C4083 1.574 . S
C4100 H4094 0.949 . S
C4100 C4104 1.368 . S
C4101 C4082 1.429 . S
C4101 C4095 1.429 . S
C4101 C4102 1.523 . S
C4102 C4083 1.368 . S
C4102 C4096 1.368 . S
C4102 C4101 1.523 . S
C4103 C4087 1.429 . S
C4103 C4099 1.429 . S
C4103 C4104 1.523 . S
C4104 C4088 1.368 . S
C4104 C4100 1.368 . S
C4104 C4103 1.523 . S
H4105 C4080 0.950 . S
H4106 C4082 0.950 . S
H4107 C4083 0.949 . S
H4108 C4085 0.950 . S
H4109 C4087 0.950 . S
C4110 C4111 1.349 . S
C4110 C4112 1.327 . S
C4110 H4135 0.950 . S
C4111 C4110 1.349 . S
C4111 C4127 1.349 . S
C4112 C4110 1.327 . S
C4112 C4131 1.429 . S
C4112 H4136 0.950 . S
C4113 C4130 1.574 . S
C4113 C4132 1.368 . S
C4113 H4137 0.949 . S
H4114 C4118 0.949 . S
C4115 C4116 1.349 . S
C4115 C4117 1.327 . S
C4115 H4138 0.950 . S
C4116 C4115 1.349 . S
C4116 C4128 1.349 . S
C4117 C4115 1.327 . S
C4117 C4133 1.429 . S
C4117 H4139 0.950 . S
C4118 H4114 0.949 . S
C4118 C4126 1.574 . S
C4118 C4134 1.368 . S
H4119 C4127 0.950 . S
H4120 C4125 0.950 . S
H4121 C4126 0.949 . S
H4122 C4128 0.950 . S
H4123 C4129 0.950 . S
H4124 C4130 0.949 . S
C4125 H4120 0.950 . S
C4125 C4127 1.327 . S
C4125 C4131 1.429 . S
C4126 C4118 1.574 . S
C4126 H4121 0.949 . S
C4126 C4132 1.368 . S
C4127 C4111 1.349 . S
C4127 H4119 0.950 . S
C4127 C4125 1.327 . S
C4128 C4116 1.349 . S
C4128 H4122 0.950 . S
C4128 C4129 1.327 . S
C4129 H4123 0.950 . S
C4129 C4128 1.327 . S
C4129 C4133 1.429 . S
C4130 C4113 1.574 . S
C4130 H4124 0.949 . S
C4130 C4134 1.368 . S
C4131 C4112 1.429 . S
C4131 C4125 1.429 . S
C4131 C4132 1.523 . S
C4132 C4113 1.368 . S
C4132 C4126 1.368 . S
C4132 C4131 1.523 . S
C4133 C4117 1.429 . S
C4133 C4129 1.429 . S
C4133 C4134 1.523 . S
C4134 C4118 1.368 . S
C4134 C4130 1.368 . S
C4134 C4133 1.523 . S
H4135 C4110 0.950 . S
H4136 C4112 0.950 . S
H4137 C4113 0.949 . S
H4138 C4115 0.950 . S
H4139 C4117 0.950 . S
C4140 C4141 1.349 . S
C4140 C4142 1.327 . S
C4140 H4165 0.950 . S
C4141 C4140 1.349 . S
C4141 C4157 1.349 . S
C4142 C4140 1.327 . S
C4142 C4161 1.429 . S
C4142 H4166 0.950 . S
C4143 C4160 1.574 . S
C4143 C4162 1.368 . S
C4143 H4167 0.949 . S
H4144 C4148 0.949 . S
C4145 C4146 1.349 . S
C4145 C4147 1.327 . S
C4145 H4168 0.950 . S
C4146 C4145 1.349 . S
C4146 C4158 1.349 . S
C4147 C4145 1.327 . S
C4147 C4163 1.429 . S
C4147 H4169 0.950 . S
C4148 H4144 0.949 . S
C4148 C4156 1.574 . S
C4148 C4164 1.368 . S
H4149 C4157 0.950 . S
H4150 C4155 0.950 . S
H4151 C4156 0.949 . S
H4152 C4158 0.950 . S
H4153 C4159 0.950 . S
H4154 C4160 0.949 . S
C4155 H4150 0.950 . S
C4155 C4157 1.327 . S
C4155 C4161 1.429 . S
C4156 C4148 1.574 . S
C4156 H4151 0.949 . S
C4156 C4162 1.368 . S
C4157 C4141 1.349 . S
C4157 H4149 0.950 . S
C4157 C4155 1.327 . S
C4158 C4146 1.349 . S
C4158 H4152 0.950 . S
C4158 C4159 1.327 . S
C4159 H4153 0.950 . S
C4159 C4158 1.327 . S
C4159 C4163 1.429 . S
C4160 C4143 1.574 . S
C4160 H4154 0.949 . S
C4160 C4164 1.368 . S
C4161 C4142 1.429 . S
C4161 C4155 1.429 . S
C4161 C4162 1.523 . S
C4162 C4143 1.368 . S
C4162 C4156 1.368 . S
C4162 C4161 1.523 . S
C4163 C4147 1.429 . S
C4163 C4159 1.429 . S
C4163 C4164 1.523 . S
C4164 C4148 1.368 . S
C4164 C4160 1.368 . S
C4164 C4163 1.523 . S
H4165 C4140 0.950 . S
H4166 C4142 0.950 . S
H4167 C4143 0.949 . S
H4168 C4145 0.950 . S
H4169 C4147 0.950 . S
C4170 C4171 1.349 . S
C4170 C4172 1.327 . S
C4170 H4195 0.950 . S
C4171 C4170 1.349 . S
C4171 C4187 1.349 . S
C4172 C4170 1.327 . S
C4172 C4191 1.429 . S
C4172 H4196 0.950 . S
C4173 C4190 1.574 . S
C4173 C4192 1.368 . S
C4173 H4197 0.949 . S
H4174 C4178 0.949 . S
C4175 C4176 1.349 . S
C4175 C4177 1.327 . S
C4175 H4198 0.950 . S
C4176 C4175 1.349 . S
C4176 C4188 1.349 . S
C4177 C4175 1.327 . S
C4177 C4193 1.429 . S
C4177 H4199 0.950 . S
C4178 H4174 0.949 . S
C4178 C4186 1.574 . S
C4178 C4194 1.368 . S
H4179 C4187 0.950 . S
H4180 C4185 0.950 . S
H4181 C4186 0.949 . S
H4182 C4188 0.950 . S
H4183 C4189 0.950 . S
H4184 C4190 0.949 . S
C4185 H4180 0.950 . S
C4185 C4187 1.327 . S
C4185 C4191 1.429 . S
C4186 C4178 1.574 . S
C4186 H4181 0.949 . S
C4186 C4192 1.368 . S
C4187 C4171 1.349 . S
C4187 H4179 0.950 . S
C4187 C4185 1.327 . S
C4188 C4176 1.349 . S
C4188 H4182 0.950 . S
C4188 C4189 1.327 . S
C4189 H4183 0.950 . S
C4189 C4188 1.327 . S
C4189 C4193 1.429 . S
C4190 C4173 1.574 . S
C4190 H4184 0.949 . S
C4190 C4194 1.368 . S
C4191 C4172 1.429 . S
C4191 C4185 1.429 . S
C4191 C4192 1.523 . S
C4192 C4173 1.368 . S
C4192 C4186 1.368 . S
C4192 C4191 1.523 . S
C4193 C4177 1.429 . S
C4193 C4189 1.429 . S
C4193 C4194 1.523 . S
C4194 C4178 1.368 . S
C4194 C4190 1.368 . S
C4194 C4193 1.523 . S
H4195 C4170 0.950 . S
H4196 C4172 0.950 . S
H4197 C4173 0.949 . S
H4198 C4175 0.950 . S
H4199 C4177 0.950 . S
C4200 C4201 1.349 . S
C4200 C4202 1.327 . S
C4200 H4225 0.950 . S
C4201 C4200 1.349 . S
C4201 C4217 1.349 . S
C4202 C4200 1.327 . S
C4202 C4221 1.429 . S
C4202 H4226 0.950 . S
C4203 C4220 1.574 . S
C4203 C4222 1.368 . S
C4203 H4227 0.949 . S
H4204 C4208 0.949 . S
C4205 C4206 1.349 . S
C4205 C4207 1.327 . S
C4205 H4228 0.950 . S
C4206 C4205 1.349 . S
C4206 C4218 1.349 . S
C4207 C4205 1.327 . S
C4207 C4223 1.429 . S
C4207 H4229 0.950 . S
C4208 H4204 0.949 . S
C4208 C4216 1.574 . S
C4208 C4224 1.368 . S
H4209 C4217 0.950 . S
H4210 C4215 0.950 . S
H4211 C4216 0.949 . S
H4212 C4218 0.950 . S
H4213 C4219 0.950 . S
H4214 C4220 0.949 . S
C4215 H4210 0.950 . S
C4215 C4217 1.327 . S
C4215 C4221 1.429 . S
C4216 C4208 1.574 . S
C4216 H4211 0.949 . S
C4216 C4222 1.368 . S
C4217 C4201 1.349 . S
C4217 H4209 0.950 . S
C4217 C4215 1.327 . S
C4218 C4206 1.349 . S
C4218 H4212 0.950 . S
C4218 C4219 1.327 . S
C4219 H4213 0.950 . S
C4219 C4218 1.327 . S
C4219 C4223 1.429 . S
C4220 C4203 1.574 . S
C4220 H4214 0.949 . S
C4220 C4224 1.368 . S
C4221 C4202 1.429 . S
C4221 C4215 1.429 . S
C4221 C4222 1.523 . S
C4222 C4203 1.368 . S
C4222 C4216 1.368 . S
C4222 C4221 1.523 . S
C4223 C4207 1.429 . S
C4223 C4219 1.429 . S
C4223 C4224 1.523 . S
C4224 C4208 1.368 . S
C4224 C4220 1.368 . S
C4224 C4223 1.523 . S
H4225 C4200 0.950 . S
H4226 C4202 0.950 . S
H4227 C4203 0.949 . S
H4228 C4205 0.950 . S
H4229 C4207 0.950 . S
C4230 C4231 1.349 . S
C4230 C4232 1.327 . S
C4230 H4255 0.950 . S
C4231 C4230 1.349 . S
C4231 C4247 1.349 . S
C4232 C4230 1.327 . S
C4232 C4251 1.429 . S
C4232 H4256 0.950 . S
C4233 C4250 1.574 . S
C4233 C4252 1.368 . S
C4233 H4257 0.949 . S
H4234 C4238 0.949 . S
C4235 C4236 1.349 . S
C4235 C4237 1.327 . S
C4235 H4258 0.950 . S
C4236 C4235 1.349 . S
C4236 C4248 1.349 . S
C4237 C4235 1.327 . S
C4237 C4253 1.429 . S
C4237 H4259 0.950 . S
C4238 H4234 0.949 . S
C4238 C4246 1.574 . S
C4238 C4254 1.368 . S
H4239 C4247 0.950 . S
H4240 C4245 0.950 . S
H4241 C4246 0.949 . S
H4242 C4248 0.950 . S
H4243 C4249 0.950 . S
H4244 C4250 0.949 . S
C4245 H4240 0.950 . S
C4245 C4247 1.327 . S
C4245 C4251 1.429 . S
C4246 C4238 1.574 . S
C4246 H4241 0.949 . S
C4246 C4252 1.368 . S
C4247 C4231 1.349 . S
C4247 H4239 0.950 . S
C4247 C4245 1.327 . S
C4248 C4236 1.349 . S
C4248 H4242 0.950 . S
C4248 C4249 1.327 . S
C4249 H4243 0.950 . S
C4249 C4248 1.327 . S
C4249 C4253 1.429 . S
C4250 C4233 1.574 . S
C4250 H4244 0.949 . S
C4250 C4254 1.368 . S
C4251 C4232 1.429 . S
C4251 C4245 1.429 . S
C4251 C4252 1.523 . S
C4252 C4233 1.368 . S
C4252 C4246 1.368 . S
C4252 C4251 1.523 . S
C4253 C4237 1.429 . S
C4253 C4249 1.429 . S
C4253 C4254 1.523 . S
C4254 C4238 1.368 . S
C4254 C4250 1.368 . S
C4254 C4253 1.523 . S
H4255 C4230 0.950 . S
H4256 C4232 0.950 . S
H4257 C4233 0.949 . S
H4258 C4235 0.950 . S
H4259 C4237 0.950 . S
C4260 C4261 1.349 . S
C4260 C4262 1.327 . S
C4260 H4285 0.950 . S
C4261 C4260 1.349 . S
C4261 C4277 1.349 . S
C4262 C4260 1.327 . S
C4262 C4281 1.429 . S
C4262 H4286 0.950 . S
C4263 C4280 1.574 . S
C4263 C4282 1.368 . S
C4263 H4287 0.949 . S
H4264 C4268 0.949 . S
C4265 C4266 1.349 . S
C4265 C4267 1.327 . S
C4265 H4288 0.950 . S
C4266 C4265 1.349 . S
C4266 C4278 1.349 . S
C4267 C4265 1.327 . S
C4267 C4283 1.429 . S
C4267 H4289 0.950 . S
C4268 H4264 0.949 . S
C4268 C4276 1.574 . S
C4268 C4284 1.368 . S
H4269 C4277 0.950 . S
H4270 C4275 0.950 . S
H4271 C4276 0.949 . S
H4272 C4278 0.950 . S
H4273 C4279 0.950 . S
H4274 C4280 0.949 . S
C4275 H4270 0.950 . S
C4275 C4277 1.327 . S
C4275 C4281 1.429 . S
C4276 C4268 1.574 . S
C4276 H4271 0.949 . S
C4276 C4282 1.368 . S
C4277 C4261 1.349 . S
C4277 H4269 0.950 . S
C4277 C4275 1.327 . S
C4278 C4266 1.349 . S
C4278 H4272 0.950 . S
C4278 C4279 1.327 . S
C4279 H4273 0.950 . S
C4279 C4278 1.327 . S
C4279 C4283 1.429 . S
C4280 C4263 1.574 . S
C4280 H4274 0.949 . S
C4280 C4284 1.368 . S
C4281 C4262 1.429 . S
C4281 C4275 1.429 . S
C4281 C4282 1.523 . S
C4282 C4263 1.368 . S
C4282 C4276 1.368 . S
C4282 C4281 1.523 . S
C4283 C4267 1.429 . S
C4283 C4279 1.429 . S
C4283 C4284 1.523 . S
C4284 C4268 1.368 . S
C4284 C4280 1.368 . S
C4284 C4283 1.523 . S
H4285 C4260 0.950 . S
H4286 C4262 0.950 . S
H4287 C4263 0.949 . S
H4288 C4265 0.950 . S
H4289 C4267 0.950 . S
C4290 C4291 1.349 . S
C4290 C4292 1.327 . S
C4290 H4315 0.950 1_565 S
C4291 C4290 1.349 . S
C4291 C4307 1.349 . S
C4292 C4290 1.327 . S
C4292 C4311 1.429 . S
C4292 H4316 0.950 1_565 S
C4293 C4310 1.574 . S
C4293 C4312 1.368 . S
C4293 H4317 0.949 . S
H4294 C4298 0.966 . S
C4295 C4296 1.349 . S
C4295 C4297 1.327 . S
C4295 H4318 0.950 . S
C4296 C4295 1.349 . S
C4296 C4308 1.349 1_565 S
C4297 C4295 1.327 . S
C4297 C4313 1.429 . S
C4297 H4319 0.950 . S
C4298 H4294 0.966 . S
C4298 C4306 1.595 1_545 S
C4298 C4314 1.329 1_545 S
H4299 C4307 0.950 . S
H4300 C4305 0.950 . S
H4301 C4306 0.955 1_545 S
H4302 C4308 0.950 . S
H4303 C4309 0.950 . S
H4304 C4310 0.949 . S
C4305 H4300 0.950 . S
C4305 C4307 1.327 . S
C4305 C4311 1.429 . S
C4306 C4298 1.595 1_565 S
C4306 H4301 0.955 1_565 S
C4306 C4312 1.365 . S
C4307 C4291 1.349 . S
C4307 H4299 0.950 . S
C4307 C4305 1.327 . S
C4308 C4296 1.349 1_545 S
C4308 H4302 0.950 . S
C4308 C4309 1.327 . S
C4309 H4303 0.950 . S
C4309 C4308 1.327 . S
C4309 C4313 1.429 1_545 S
C4310 C4293 1.574 . S
C4310 H4304 0.949 . S
C4310 C4314 1.368 . S
C4311 C4292 1.429 . S
C4311 C4305 1.429 . S
C4311 C4312 1.523 . S
C4312 C4293 1.368 . S
C4312 C4306 1.365 . S
C4312 C4311 1.523 . S
C4313 C4297 1.429 . S
C4313 C4309 1.429 1_565 S
C4313 C4314 1.523 . S
C4314 C4298 1.329 1_565 S
C4314 C4310 1.368 . S
C4314 C4313 1.523 . S
H4315 C4290 0.950 1_545 S
H4316 C4292 0.950 1_545 S
H4317 C4293 0.949 . S
H4318 C4295 0.950 . S
H4319 C4297 0.950 . S
C4320 C4321 1.349 . S
C4320 C4322 1.327 . S
C4320 H4345 0.950 . S
C4321 C4320 1.349 . S
C4321 C4337 1.349 . S
C4322 C4320 1.327 . S
C4322 C4341 1.429 . S
C4322 H4346 0.950 . S
C4323 C4340 1.574 . S
C4323 C4342 1.368 . S
C4323 H4347 0.965 . S
H4324 C4328 0.949 . S
C4325 C4326 1.349 1_545 S
C4325 C4327 1.327 . S
C4325 H4348 0.950 . S
C4326 C4325 1.349 1_565 S
C4326 C4338 1.349 . S
C4327 C4325 1.327 . S
C4327 C4343 1.429 1_545 S
C4327 H4349 0.950 . S
C4328 H4324 0.949 . S
C4328 C4336 1.574 . S
C4328 C4344 1.368 . S
H4329 C4337 0.950 . S
H4330 C4335 0.950 . S
H4331 C4336 0.949 . S
H4332 C4338 0.950 . S
H4333 C4339 0.950 . S
H4334 C4340 0.949 1_545 S
C4335 H4330 0.950 . S
C4335 C4337 1.327 . S
C4335 C4341 1.429 . S
C4336 C4328 1.574 . S
C4336 H4331 0.949 . S
C4336 C4342 1.368 . S
C4337 C4321 1.349 . S
C4337 H4329 0.950 . S
C4337 C4335 1.327 . S
C4338 C4326 1.349 . S
C4338 H4332 0.950 . S
C4338 C4339 1.327 . S
C4339 H4333 0.950 . S
C4339 C4338 1.327 . S
C4339 C4343 1.429 . S
C4340 C4323 1.574 . S
C4340 H4334 0.949 1_565 S
C4340 C4344 1.368 . S
C4341 C4322 1.429 . S
C4341 C4335 1.429 . S
C4341 C4342 1.523 . S
C4342 C4323 1.368 . S
C4342 C4336 1.368 . S
C4342 C4341 1.523 . S
C4343 C4327 1.429 1_565 S
C4343 C4339 1.429 . S
C4343 C4344 1.523 . S
C4344 C4328 1.368 . S
C4344 C4340 1.368 . S
C4344 C4343 1.523 . S
H4345 C4320 0.950 . S
H4346 C4322 0.950 . S
H4347 C4323 0.965 . S
H4348 C4325 0.950 . S
H4349 C4327 0.950 . S
C4350 C4351 1.349 . S
C4350 C4352 1.300 . S
C4350 H4375 0.950 1_455 S
C4351 C4350 1.349 . S
C4351 C4367 1.349 . S
C4352 C4350 1.300 . S
C4352 C4371 1.501 . S
C4352 H4376 0.914 1_455 S
C4353 C4370 1.574 . S
C4353 C4372 1.368 . S
C4353 H4377 0.949 . S
H4354 C4358 0.949 . S
C4355 C4356 1.382 . S
C4355 C4357 1.327 . S
C4355 H4378 0.950 . S
C4356 C4355 1.382 . S
C4356 C4368 1.293 1_455 S
C4357 C4355 1.327 . S
C4357 C4373 1.429 . S
C4357 H4379 0.950 . S
C4358 H4354 0.949 . S
C4358 C4366 1.574 . S
C4358 C4374 1.368 1_655 S
H4359 C4367 0.950 . S
H4360 C4365 0.950 . S
H4361 C4366 0.949 . S
H4362 C4368 0.950 . S
H4363 C4369 0.950 . S
H4364 C4370 0.949 . S
C4365 H4360 0.950 . S
C4365 C4367 1.327 . S
C4365 C4371 1.429 . S
C4366 C4358 1.574 . S
C4366 H4361 0.949 . S
C4366 C4372 1.368 1_655 S
C4367 C4351 1.349 . S
C4367 H4359 0.950 . S
C4367 C4365 1.327 . S
C4368 C4356 1.293 1_655 S
C4368 H4362 0.950 . S
C4368 C4369 1.327 . S
C4369 H4363 0.950 . S
C4369 C4368 1.327 . S
C4369 C4373 1.429 1_655 S
C4370 C4353 1.574 . S
C4370 H4364 0.949 . S
C4370 C4374 1.368 . S
C4371 C4352 1.501 . S
C4371 C4365 1.429 . S
C4371 C4372 1.523 . S
C4372 C4353 1.368 . S
C4372 C4366 1.368 1_455 S
C4372 C4371 1.523 . S
C4373 C4357 1.429 . S
C4373 C4369 1.429 1_455 S
C4373 C4374 1.523 . S
C4374 C4358 1.368 1_455 S
C4374 C4370 1.368 . S
C4374 C4373 1.523 . S
H4375 C4350 0.950 1_655 S
H4376 C4352 0.914 1_655 S
H4377 C4353 0.949 . S
H4378 C4355 0.950 . S
H4379 C4357 0.950 . S
C4380 C4381 1.349 . S
C4380 C4382 1.327 . S
C4380 H4405 0.950 . S
C4381 C4380 1.349 . S
C4381 C4397 1.349 . S
C4382 C4380 1.327 . S
C4382 C4401 1.429 . S
C4382 H4406 0.950 . S
C4383 C4400 1.574 . S
C4383 C4402 1.368 . S
C4383 H4407 0.949 . S
H4384 C4388 0.949 . S
C4385 C4386 1.349 . S
C4385 C4387 1.327 . S
C4385 H4408 0.950 . S
C4386 C4385 1.349 . S
C4386 C4398 1.349 . S
C4387 C4385 1.327 . S
C4387 C4403 1.429 . S
C4387 H4409 0.950 . S
C4388 H4384 0.949 . S
C4388 C4396 1.574 . S
C4388 C4404 1.368 . S
H4389 C4397 0.950 . S
H4390 C4395 0.950 . S
H4391 C4396 0.949 . S
H4392 C4398 0.950 . S
H4393 C4399 0.950 . S
H4394 C4400 0.949 . S
C4395 H4390 0.950 . S
C4395 C4397 1.327 . S
C4395 C4401 1.429 . S
C4396 C4388 1.574 . S
C4396 H4391 0.949 . S
C4396 C4402 1.368 . S
C4397 C4381 1.349 . S
C4397 H4389 0.950 . S
C4397 C4395 1.327 . S
C4398 C4386 1.349 . S
C4398 H4392 0.950 . S
C4398 C4399 1.327 . S
C4399 H4393 0.950 . S
C4399 C4398 1.327 . S
C4399 C4403 1.429 . S
C4400 C4383 1.574 . S
C4400 H4394 0.949 . S
C4400 C4404 1.368 . S
C4401 C4382 1.429 . S
C4401 C4395 1.429 . S
C4401 C4402 1.523 . S
C4402 C4383 1.368 . S
C4402 C4396 1.368 . S
C4402 C4401 1.523 . S
C4403 C4387 1.429 . S
C4403 C4399 1.429 . S
C4403 C4404 1.523 . S
C4404 C4388 1.368 . S
C4404 C4400 1.368 . S
C4404 C4403 1.523 . S
H4405 C4380 0.950 . S
H4406 C4382 0.950 . S
H4407 C4383 0.949 . S
H4408 C4385 0.950 . S
H4409 C4387 0.950 . S
C4410 C4411 1.349 . S
C4410 C4412 1.327 . S
C4410 H4435 0.950 . S
C4411 C4410 1.349 . S
C4411 C4427 1.349 . S
C4412 C4410 1.327 . S
C4412 C4431 1.429 . S
C4412 H4436 0.950 . S
C4413 C4430 1.574 . S
C4413 C4432 1.368 . S
C4413 H4437 0.949 . S
H4414 C4418 0.949 . S
C4415 C4416 1.349 . S
C4415 C4417 1.327 . S
C4415 H4438 0.950 . S
C4416 C4415 1.349 . S
C4416 C4428 1.349 . S
C4417 C4415 1.327 . S
C4417 C4433 1.429 . S
C4417 H4439 0.950 . S
C4418 H4414 0.949 . S
C4418 C4426 1.574 . S
C4418 C4434 1.368 . S
H4419 C4427 0.950 . S
H4420 C4425 0.950 . S
H4421 C4426 0.949 . S
H4422 C4428 0.950 . S
H4423 C4429 0.950 . S
H4424 C4430 0.949 . S
C4425 H4420 0.950 . S
C4425 C4427 1.327 . S
C4425 C4431 1.429 . S
C4426 C4418 1.574 . S
C4426 H4421 0.949 . S
C4426 C4432 1.368 . S
C4427 C4411 1.349 . S
C4427 H4419 0.950 . S
C4427 C4425 1.327 . S
C4428 C4416 1.349 . S
C4428 H4422 0.950 . S
C4428 C4429 1.327 . S
C4429 H4423 0.950 . S
C4429 C4428 1.327 . S
C4429 C4433 1.429 . S
C4430 C4413 1.574 . S
C4430 H4424 0.949 . S
C4430 C4434 1.368 . S
C4431 C4412 1.429 . S
C4431 C4425 1.429 . S
C4431 C4432 1.523 . S
C4432 C4413 1.368 . S
C4432 C4426 1.368 . S
C4432 C4431 1.523 . S
C4433 C4417 1.429 . S
C4433 C4429 1.429 . S
C4433 C4434 1.523 . S
C4434 C4418 1.368 . S
C4434 C4430 1.368 . S
C4434 C4433 1.523 . S
H4435 C4410 0.950 . S
H4436 C4412 0.950 . S
H4437 C4413 0.949 . S
H4438 C4415 0.950 . S
H4439 C4417 0.950 . S
C4440 C4441 1.349 . S
C4440 C4442 1.327 . S
C4440 H4465 0.950 . S
C4441 C4440 1.349 . S
C4441 C4457 1.349 . S
C4442 C4440 1.327 . S
C4442 C4461 1.429 . S
C4442 H4466 0.950 . S
C4443 C4460 1.574 . S
C4443 C4462 1.368 . S
C4443 H4467 0.949 . S
H4444 C4448 0.949 . S
C4445 C4446 1.349 . S
C4445 C4447 1.327 . S
C4445 H4468 0.950 . S
C4446 C4445 1.349 . S
C4446 C4458 1.349 . S
C4447 C4445 1.327 . S
C4447 C4463 1.429 . S
C4447 H4469 0.950 . S
C4448 H4444 0.949 . S
C4448 C4456 1.574 . S
C4448 C4464 1.368 . S
H4449 C4457 0.950 . S
H4450 C4455 0.950 . S
H4451 C4456 0.949 . S
H4452 C4458 0.950 . S
H4453 C4459 0.950 . S
H4454 C4460 0.949 . S
C4455 H4450 0.950 . S
C4455 C4457 1.327 . S
C4455 C4461 1.429 . S
C4456 C4448 1.574 . S
C4456 H4451 0.949 . S
C4456 C4462 1.368 . S
C4457 C4441 1.349 . S
C4457 H4449 0.950 . S
C4457 C4455 1.327 . S
C4458 C4446 1.349 . S
C4458 H4452 0.950 . S
C4458 C4459 1.327 . S
C4459 H4453 0.950 . S
C4459 C4458 1.327 . S
C4459 C4463 1.429 . S
C4460 C4443 1.574 . S
C4460 H4454 0.949 . S
C4460 C4464 1.368 . S
C4461 C4442 1.429 . S
C4461 C4455 1.429 . S
C4461 C4462 1.523 . S
C4462 C4443 1.368 . S
C4462 C4456 1.368 . S
C4462 C4461 1.523 . S
C4463 C4447 1.429 . S
C4463 C4459 1.429 . S
C4463 C4464 1.523 . S
C4464 C4448 1.368 . S
C4464 C4460 1.368 . S
C4464 C4463 1.523 . S
H4465 C4440 0.950 . S
H4466 C4442 0.950 . S
H4467 C4443 0.949 . S
H4468 C4445 0.950 . S
H4469 C4447 0.950 . S
C4470 C4471 1.349 . S
C4470 C4472 1.327 . S
C4470 H4495 0.950 . S
C4471 C4470 1.349 . S
C4471 C4487 1.349 . S
C4472 C4470 1.327 . S
C4472 C4491 1.429 . S
C4472 H4496 0.950 . S
C4473 C4490 1.574 . S
C4473 C4492 1.368 . S
C4473 H4497 0.949 . S
H4474 C4478 0.949 . S
C4475 C4476 1.349 . S
C4475 C4477 1.327 . S
C4475 H4498 0.950 . S
C4476 C4475 1.349 . S
C4476 C4488 1.349 . S
C4477 C4475 1.327 . S
C4477 C4493 1.429 . S
C4477 H4499 0.950 . S
C4478 H4474 0.949 . S
C4478 C4486 1.574 . S
C4478 C4494 1.368 . S
H4479 C4487 0.950 . S
H4480 C4485 0.950 . S
H4481 C4486 0.949 . S
H4482 C4488 0.950 . S
H4483 C4489 0.950 . S
H4484 C4490 0.949 . S
C4485 H4480 0.950 . S
C4485 C4487 1.327 . S
C4485 C4491 1.429 . S
C4486 C4478 1.574 . S
C4486 H4481 0.949 . S
C4486 C4492 1.368 . S
C4487 C4471 1.349 . S
C4487 H4479 0.950 . S
C4487 C4485 1.327 . S
C4488 C4476 1.349 . S
C4488 H4482 0.950 . S
C4488 C4489 1.327 . S
C4489 H4483 0.950 . S
C4489 C4488 1.327 . S
C4489 C4493 1.429 . S
C4490 C4473 1.574 . S
C4490 H4484 0.949 . S
C4490 C4494 1.368 . S
C4491 C4472 1.429 . S
C4491 C4485 1.429 . S
C4491 C4492 1.523 . S
C4492 C4473 1.368 . S
C4492 C4486 1.368 . S
C4492 C4491 1.523 . S
C4493 C4477 1.429 . S
C4493 C4489 1.429 . S
C4493 C4494 1.523 . S
C4494 C4478 1.368 . S
C4494 C4490 1.368 . S
C4494 C4493 1.523 . S
H4495 C4470 0.950 . S
H4496 C4472 0.950 . S
H4497 C4473 0.949 . S
H4498 C4475 0.950 . S
H4499 C4477 0.950 . S
C4500 C4501 1.349 . S
C4500 C4502 1.327 . S
C4500 H4525 0.950 1_545 S
C4501 C4500 1.349 . S
C4501 C4517 1.349 . S
C4502 C4500 1.327 . S
C4502 C4521 1.429 . S
C4502 H4526 0.950 1_545 S
C4503 C4520 1.574 . S
C4503 C4522 1.368 . S
C4503 H4527 0.949 . S
H4504 C4508 0.949 . S
C4505 C4506 1.349 . S
C4505 C4507 1.327 . S
C4505 H4528 0.950 . S
C4506 C4505 1.349 . S
C4506 C4518 1.349 1_545 S
C4507 C4505 1.327 . S
C4507 C4523 1.429 . S
C4507 H4529 0.950 . S
C4508 H4504 0.949 . S
C4508 C4516 1.614 . S
C4508 C4524 1.368 1_565 S
H4509 C4517 0.950 . S
H4510 C4515 0.950 . S
H4511 C4516 0.973 . S
H4512 C4518 0.950 . S
H4513 C4519 0.950 . S
H4514 C4520 0.949 . S
C4515 H4510 0.950 . S
C4515 C4517 1.327 . S
C4515 C4521 1.429 . S
C4516 C4508 1.614 . S
C4516 H4511 0.973 . S
C4516 C4522 1.308 1_565 S
C4517 C4501 1.349 . S
C4517 H4509 0.950 . S
C4517 C4515 1.327 . S
C4518 C4506 1.349 1_565 S
C4518 H4512 0.950 . S
C4518 C4519 1.327 . S
C4519 H4513 0.950 . S
C4519 C4518 1.327 . S
C4519 C4523 1.429 1_565 S
C4520 C4503 1.574 . S
C4520 H4514 0.949 . S
C4520 C4524 1.368 . S
C4521 C4502 1.429 . S
C4521 C4515 1.429 . S
C4521 C4522 1.523 . S
C4522 C4503 1.368 . S
C4522 C4516 1.308 1_545 S
C4522 C4521 1.523 . S
C4523 C4507 1.429 . S
C4523 C4519 1.429 1_545 S
C4523 C4524 1.523 . S
C4524 C4508 1.368 1_545 S
C4524 C4520 1.368 . S
C4524 C4523 1.523 . S
H4525 C4500 0.950 1_565 S
H4526 C4502 0.950 1_565 S
H4527 C4503 0.949 . S
H4528 C4505 0.950 . S
H4529 C4507 0.950 . S
C4530 C4531 1.349 . S
C4530 C4532 1.309 . S
C4530 H4555 0.950 1_655 S
C4531 C4530 1.349 . S
C4531 C4547 1.349 . S
C4532 C4530 1.309 . S
C4532 C4551 1.485 . S
C4532 H4556 0.912 1_655 S
C4533 C4550 1.574 . S
C4533 C4552 1.368 . S
C4533 H4557 0.949 . S
H4534 C4538 0.949 . S
C4535 C4536 1.349 . S
C4535 C4537 1.327 . S
C4535 H4558 0.950 . S
C4536 C4535 1.349 . S
C4536 C4548 1.349 1_655 S
C4537 C4535 1.327 . S
C4537 C4553 1.429 . S
C4537 H4559 0.950 . S
C4538 H4534 0.949 . S
C4538 C4546 1.574 . S
C4538 C4554 1.368 1_455 S
H4539 C4547 0.950 . S
H4540 C4545 0.950 . S
H4541 C4546 0.949 . S
H4542 C4548 0.950 . S
H4543 C4549 0.950 . S
H4544 C4550 0.949 . S
C4545 H4540 0.950 . S
C4545 C4547 1.327 . S
C4545 C4551 1.429 . S
C4546 C4538 1.574 . S
C4546 H4541 0.949 . S
C4546 C4552 1.368 1_455 S
C4547 C4531 1.349 . S
C4547 H4539 0.950 . S
C4547 C4545 1.327 . S
C4548 C4536 1.349 1_455 S
C4548 H4542 0.950 . S
C4548 C4549 1.327 . S
C4549 H4543 0.950 . S
C4549 C4548 1.327 . S
C4549 C4553 1.429 1_455 S
C4550 C4533 1.574 . S
C4550 H4544 0.949 . S
C4550 C4554 1.368 . S
C4551 C4532 1.485 . S
C4551 C4545 1.429 . S
C4551 C4552 1.523 . S
C4552 C4533 1.368 . S
C4552 C4546 1.368 1_655 S
C4552 C4551 1.523 . S
C4553 C4537 1.429 . S
C4553 C4549 1.429 1_655 S
C4553 C4554 1.523 . S
C4554 C4538 1.368 1_655 S
C4554 C4550 1.368 . S
C4554 C4553 1.523 . S
H4555 C4530 0.950 1_455 S
H4556 C4532 0.912 1_455 S
H4557 C4533 0.949 . S
H4558 C4535 0.950 . S
H4559 C4537 0.950 . S
C4560 C4561 1.349 . S
C4560 C4562 1.327 . S
C4560 H4585 0.950 . S
C4561 C4560 1.349 . S
C4561 C4577 1.349 . S
C4562 C4560 1.327 . S
C4562 C4581 1.429 . S
C4562 H4586 0.950 . S
C4563 C4580 1.574 . S
C4563 C4582 1.368 . S
C4563 H4587 0.949 . S
H4564 C4568 0.949 . S
C4565 C4566 1.349 . S
C4565 C4567 1.327 . S
C4565 H4588 0.950 . S
C4566 C4565 1.349 . S
C4566 C4578 1.349 . S
C4567 C4565 1.327 . S
C4567 C4583 1.429 . S
C4567 H4589 0.950 . S
C4568 H4564 0.949 . S
C4568 C4576 1.574 . S
C4568 C4584 1.368 . S
H4569 C4577 0.950 . S
H4570 C4575 0.950 . S
H4571 C4576 0.949 . S
H4572 C4578 0.950 . S
H4573 C4579 0.950 . S
H4574 C4580 0.949 . S
C4575 H4570 0.950 . S
C4575 C4577 1.327 . S
C4575 C4581 1.429 . S
C4576 C4568 1.574 . S
C4576 H4571 0.949 . S
C4576 C4582 1.368 . S
C4577 C4561 1.349 . S
C4577 H4569 0.950 . S
C4577 C4575 1.327 . S
C4578 C4566 1.349 . S
C4578 H4572 0.950 . S
C4578 C4579 1.327 . S
C4579 H4573 0.950 . S
C4579 C4578 1.327 . S
C4579 C4583 1.429 . S
C4580 C4563 1.574 . S
C4580 H4574 0.949 . S
C4580 C4584 1.368 . S
C4581 C4562 1.429 . S
C4581 C4575 1.429 . S
C4581 C4582 1.523 . S
C4582 C4563 1.368 . S
C4582 C4576 1.368 . S
C4582 C4581 1.523 . S
C4583 C4567 1.429 . S
C4583 C4579 1.429 . S
C4583 C4584 1.523 . S
C4584 C4568 1.368 . S
C4584 C4580 1.368 . S
C4584 C4583 1.523 . S
H4585 C4560 0.950 . S
H4586 C4562 0.950 . S
H4587 C4563 0.949 . S
H4588 C4565 0.950 . S
H4589 C4567 0.950 . S
C4590 C4591 1.349 . S
C4590 C4592 1.327 . S
C4590 H4615 0.950 . S
C4591 C4590 1.349 . S
C4591 C4607 1.349 . S
C4592 C4590 1.327 . S
C4592 C4611 1.429 . S
C4592 H4616 0.950 . S
C4593 C4610 1.574 . S
C4593 C4612 1.368 . S
C4593 H4617 0.949 . S
H4594 C4598 0.949 . S
C4595 C4596 1.349 . S
C4595 C4597 1.327 . S
C4595 H4618 0.950 . S
C4596 C4595 1.349 . S
C4596 C4608 1.349 . S
C4597 C4595 1.327 . S
C4597 C4613 1.429 . S
C4597 H4619 0.950 . S
C4598 H4594 0.949 . S
C4598 C4606 1.574 . S
C4598 C4614 1.368 . S
H4599 C4607 0.950 . S
H4600 C4605 0.950 . S
H4601 C4606 0.949 . S
H4602 C4608 0.950 . S
H4603 C4609 0.950 . S
H4604 C4610 0.949 . S
C4605 H4600 0.950 . S
C4605 C4607 1.327 . S
C4605 C4611 1.429 . S
C4606 C4598 1.574 . S
C4606 H4601 0.949 . S
C4606 C4612 1.368 . S
C4607 C4591 1.349 . S
C4607 H4599 0.950 . S
C4607 C4605 1.327 . S
C4608 C4596 1.349 . S
C4608 H4602 0.950 . S
C4608 C4609 1.327 . S
C4609 H4603 0.950 . S
C4609 C4608 1.327 . S
C4609 C4613 1.429 . S
C4610 C4593 1.574 . S
C4610 H4604 0.949 . S
C4610 C4614 1.368 . S
C4611 C4592 1.429 . S
C4611 C4605 1.429 . S
C4611 C4612 1.523 . S
C4612 C4593 1.368 . S
C4612 C4606 1.368 . S
C4612 C4611 1.523 . S
C4613 C4597 1.429 . S
C4613 C4609 1.429 . S
C4613 C4614 1.523 . S
C4614 C4598 1.368 . S
C4614 C4610 1.368 . S
C4614 C4613 1.523 . S
H4615 C4590 0.950 . S
H4616 C4592 0.950 . S
H4617 C4593 0.949 . S
H4618 C4595 0.950 . S
H4619 C4597 0.950 . S
C4620 C4621 1.349 . S
C4620 C4622 1.327 . S
C4620 H4645 0.950 . S
C4621 C4620 1.349 . S
C4621 C4637 1.349 . S
C4622 C4620 1.327 . S
C4622 C4641 1.429 . S
C4622 H4646 0.950 . S
C4623 C4640 1.574 . S
C4623 C4642 1.368 . S
C4623 H4647 0.949 . S
H4624 C4628 0.949 . S
C4625 C4626 1.349 . S
C4625 C4627 1.327 . S
C4625 H4648 0.950 . S
C4626 C4625 1.349 . S
C4626 C4638 1.349 . S
C4627 C4625 1.327 . S
C4627 C4643 1.429 . S
C4627 H4649 0.950 . S
C4628 H4624 0.949 . S
C4628 C4636 1.574 . S
C4628 C4644 1.368 . S
H4629 C4637 0.950 . S
H4630 C4635 0.950 . S
H4631 C4636 0.949 . S
H4632 C4638 0.950 . S
H4633 C4639 0.950 . S
H4634 C4640 0.949 . S
C4635 H4630 0.950 . S
C4635 C4637 1.327 . S
C4635 C4641 1.429 . S
C4636 C4628 1.574 . S
C4636 H4631 0.949 . S
C4636 C4642 1.368 . S
C4637 C4621 1.349 . S
C4637 H4629 0.950 . S
C4637 C4635 1.327 . S
C4638 C4626 1.349 . S
C4638 H4632 0.950 . S
C4638 C4639 1.327 . S
C4639 H4633 0.950 . S
C4639 C4638 1.327 . S
C4639 C4643 1.429 . S
C4640 C4623 1.574 . S
C4640 H4634 0.949 . S
C4640 C4644 1.368 . S
C4641 C4622 1.429 . S
C4641 C4635 1.429 . S
C4641 C4642 1.523 . S
C4642 C4623 1.368 . S
C4642 C4636 1.368 . S
C4642 C4641 1.523 . S
C4643 C4627 1.429 . S
C4643 C4639 1.429 . S
C4643 C4644 1.523 . S
C4644 C4628 1.368 . S
C4644 C4640 1.368 . S
C4644 C4643 1.523 . S
H4645 C4620 0.950 . S
H4646 C4622 0.950 . S
H4647 C4623 0.949 . S
H4648 C4625 0.950 . S
H4649 C4627 0.950 . S
C4650 C4651 1.349 . S
C4650 C4652 1.327 . S
C4650 H4675 0.950 . S
C4651 C4650 1.349 . S
C4651 C4667 1.349 . S
C4652 C4650 1.327 . S
C4652 C4671 1.429 . S
C4652 H4676 0.950 . S
C4653 C4670 1.574 . S
C4653 C4672 1.368 . S
C4653 H4677 0.949 . S
H4654 C4658 0.949 . S
C4655 C4656 1.349 . S
C4655 C4657 1.327 . S
C4655 H4678 0.950 . S
C4656 C4655 1.349 . S
C4656 C4668 1.349 . S
C4657 C4655 1.327 . S
C4657 C4673 1.429 . S
C4657 H4679 0.950 . S
C4658 H4654 0.949 . S
C4658 C4666 1.574 . S
C4658 C4674 1.368 . S
H4659 C4667 0.950 . S
H4660 C4665 0.950 . S
H4661 C4666 0.949 . S
H4662 C4668 0.950 . S
H4663 C4669 0.950 . S
H4664 C4670 0.949 . S
C4665 H4660 0.950 . S
C4665 C4667 1.327 . S
C4665 C4671 1.429 . S
C4666 C4658 1.574 . S
C4666 H4661 0.949 . S
C4666 C4672 1.368 . S
C4667 C4651 1.349 . S
C4667 H4659 0.950 . S
C4667 C4665 1.327 . S
C4668 C4656 1.349 . S
C4668 H4662 0.950 . S
C4668 C4669 1.327 . S
C4669 H4663 0.950 . S
C4669 C4668 1.327 . S
C4669 C4673 1.429 . S
C4670 C4653 1.574 . S
C4670 H4664 0.949 . S
C4670 C4674 1.368 . S
C4671 C4652 1.429 . S
C4671 C4665 1.429 . S
C4671 C4672 1.523 . S
C4672 C4653 1.368 . S
C4672 C4666 1.368 . S
C4672 C4671 1.523 . S
C4673 C4657 1.429 . S
C4673 C4669 1.429 . S
C4673 C4674 1.523 . S
C4674 C4658 1.368 . S
C4674 C4670 1.368 . S
C4674 C4673 1.523 . S
H4675 C4650 0.950 . S
H4676 C4652 0.950 . S
H4677 C4653 0.949 . S
H4678 C4655 0.950 . S
H4679 C4657 0.950 . S
C4680 C4681 1.349 . S
C4680 C4682 1.327 . S
C4680 H4705 0.950 . S
C4681 C4680 1.349 . S
C4681 C4697 1.349 . S
C4682 C4680 1.327 . S
C4682 C4701 1.429 . S
C4682 H4706 0.950 . S
C4683 C4700 1.574 . S
C4683 C4702 1.368 . S
C4683 H4707 0.949 . S
H4684 C4688 0.949 . S
C4685 C4686 1.349 . S
C4685 C4687 1.327 . S
C4685 H4708 0.950 . S
C4686 C4685 1.349 . S
C4686 C4698 1.349 . S
C4687 C4685 1.327 . S
C4687 C4703 1.429 . S
C4687 H4709 0.950 . S
C4688 H4684 0.949 . S
C4688 C4696 1.574 . S
C4688 C4704 1.368 . S
H4689 C4697 0.950 . S
H4690 C4695 0.950 . S
H4691 C4696 0.949 . S
H4692 C4698 0.950 . S
H4693 C4699 0.950 . S
H4694 C4700 0.949 . S
C4695 H4690 0.950 . S
C4695 C4697 1.327 . S
C4695 C4701 1.429 . S
C4696 C4688 1.574 . S
C4696 H4691 0.949 . S
C4696 C4702 1.368 . S
C4697 C4681 1.349 . S
C4697 H4689 0.950 . S
C4697 C4695 1.327 . S
C4698 C4686 1.349 . S
C4698 H4692 0.950 . S
C4698 C4699 1.327 . S
C4699 H4693 0.950 . S
C4699 C4698 1.327 . S
C4699 C4703 1.429 . S
C4700 C4683 1.574 . S
C4700 H4694 0.949 . S
C4700 C4704 1.368 . S
C4701 C4682 1.429 . S
C4701 C4695 1.429 . S
C4701 C4702 1.523 . S
C4702 C4683 1.368 . S
C4702 C4696 1.368 . S
C4702 C4701 1.523 . S
C4703 C4687 1.429 . S
C4703 C4699 1.429 . S
C4703 C4704 1.523 . S
C4704 C4688 1.368 . S
C4704 C4700 1.368 . S
C4704 C4703 1.523 . S
H4705 C4680 0.950 . S
H4706 C4682 0.950 . S
H4707 C4683 0.949 . S
H4708 C4685 0.950 . S
H4709 C4687 0.950 . S
C4710 C4711 1.349 . S
C4710 C4712 1.327 . S
C4710 H4735 0.950 . S
C4711 C4710 1.349 . S
C4711 C4727 1.349 . S
C4712 C4710 1.327 . S
C4712 C4731 1.429 . S
C4712 H4736 0.950 . S
C4713 C4730 1.574 . S
C4713 C4732 1.368 . S
C4713 H4737 0.949 . S
H4714 C4718 0.949 . S
C4715 C4716 1.349 . S
C4715 C4717 1.327 . S
C4715 H4738 0.950 . S
C4716 C4715 1.349 . S
C4716 C4728 1.349 . S
C4717 C4715 1.327 . S
C4717 C4733 1.429 . S
C4717 H4739 0.950 . S
C4718 H4714 0.949 . S
C4718 C4726 1.574 . S
C4718 C4734 1.368 . S
H4719 C4727 0.950 . S
H4720 C4725 0.950 . S
H4721 C4726 0.949 . S
H4722 C4728 0.950 . S
H4723 C4729 0.950 . S
H4724 C4730 0.949 . S
C4725 H4720 0.950 . S
C4725 C4727 1.327 . S
C4725 C4731 1.429 . S
C4726 C4718 1.574 . S
C4726 H4721 0.949 . S
C4726 C4732 1.368 . S
C4727 C4711 1.349 . S
C4727 H4719 0.950 . S
C4727 C4725 1.327 . S
C4728 C4716 1.349 . S
C4728 H4722 0.950 . S
C4728 C4729 1.327 . S
C4729 H4723 0.950 . S
C4729 C4728 1.327 . S
C4729 C4733 1.429 . S
C4730 C4713 1.574 . S
C4730 H4724 0.949 . S
C4730 C4734 1.368 . S
C4731 C4712 1.429 . S
C4731 C4725 1.429 . S
C4731 C4732 1.523 . S
C4732 C4713 1.368 . S
C4732 C4726 1.368 . S
C4732 C4731 1.523 . S
C4733 C4717 1.429 . S
C4733 C4729 1.429 . S
C4733 C4734 1.523 . S
C4734 C4718 1.368 . S
C4734 C4730 1.368 . S
C4734 C4733 1.523 . S
H4735 C4710 0.950 . S
H4736 C4712 0.950 . S
H4737 C4713 0.949 . S
H4738 C4715 0.950 . S
H4739 C4717 0.950 . S
C4740 C4741 1.349 . S
C4740 C4742 1.327 . S
C4740 H4765 0.950 . S
C4741 C4740 1.349 . S
C4741 C4757 1.349 . S
C4742 C4740 1.327 . S
C4742 C4761 1.429 . S
C4742 H4766 0.950 . S
C4743 C4760 1.574 . S
C4743 C4762 1.368 . S
C4743 H4767 0.949 . S
H4744 C4748 0.949 . S
C4745 C4746 1.349 . S
C4745 C4747 1.327 . S
C4745 H4768 0.950 . S
C4746 C4745 1.349 . S
C4746 C4758 1.349 . S
C4747 C4745 1.327 . S
C4747 C4763 1.429 . S
C4747 H4769 0.950 . S
C4748 H4744 0.949 . S
C4748 C4756 1.574 . S
C4748 C4764 1.368 . S
H4749 C4757 0.950 . S
H4750 C4755 0.950 . S
H4751 C4756 0.949 . S
H4752 C4758 0.950 . S
H4753 C4759 0.950 . S
H4754 C4760 0.949 . S
C4755 H4750 0.950 . S
C4755 C4757 1.327 . S
C4755 C4761 1.429 . S
C4756 C4748 1.574 . S
C4756 H4751 0.949 . S
C4756 C4762 1.368 . S
C4757 C4741 1.349 . S
C4757 H4749 0.950 . S
C4757 C4755 1.327 . S
C4758 C4746 1.349 . S
C4758 H4752 0.950 . S
C4758 C4759 1.327 . S
C4759 H4753 0.950 . S
C4759 C4758 1.327 . S
C4759 C4763 1.429 . S
C4760 C4743 1.574 . S
C4760 H4754 0.949 . S
C4760 C4764 1.368 . S
C4761 C4742 1.429 . S
C4761 C4755 1.429 . S
C4761 C4762 1.523 . S
C4762 C4743 1.368 . S
C4762 C4756 1.368 . S
C4762 C4761 1.523 . S
C4763 C4747 1.429 . S
C4763 C4759 1.429 . S
C4763 C4764 1.523 . S
C4764 C4748 1.368 . S
C4764 C4760 1.368 . S
C4764 C4763 1.523 . S
H4765 C4740 0.950 . S
H4766 C4742 0.950 . S
H4767 C4743 0.949 . S
H4768 C4745 0.950 . S
H4769 C4747 0.950 . S
C4770 C4771 1.349 . S
C4770 C4772 1.327 . S
C4770 H4795 0.950 . S
C4771 C4770 1.349 . S
C4771 C4787 1.349 . S
C4772 C4770 1.327 . S
C4772 C4791 1.429 . S
C4772 H4796 0.950 . S
C4773 C4790 1.574 . S
C4773 C4792 1.368 1_455 S
C4773 H4797 0.949 . S
H4774 C4778 0.949 . S
C4775 C4776 1.349 1_455 S
C4775 C4777 1.327 . S
C4775 H4798 0.950 . S
C4776 C4775 1.349 1_655 S
C4776 C4788 1.349 . S
C4777 C4775 1.327 . S
C4777 C4793 1.429 1_455 S
C4777 H4799 0.950 . S
C4778 H4774 0.949 . S
C4778 C4786 1.574 . S
C4778 C4794 1.368 . S
H4779 C4787 0.950 1_455 S
H4780 C4785 0.970 . S
H4781 C4786 0.949 . S
H4782 C4788 0.950 . S
H4783 C4789 0.950 . S
H4784 C4790 0.949 . S
C4785 H4780 0.970 . S
C4785 C4787 1.317 1_455 S
C4785 C4791 1.419 1_455 S
C4786 C4778 1.574 . S
C4786 H4781 0.949 . S
C4786 C4792 1.368 . S
C4787 C4771 1.349 . S
C4787 H4779 0.950 1_655 S
C4787 C4785 1.317 1_655 S
C4788 C4776 1.349 . S
C4788 H4782 0.950 . S
C4788 C4789 1.327 . S
C4789 H4783 0.950 . S
C4789 C4788 1.327 . S
C4789 C4793 1.429 . S
C4790 C4773 1.574 . S
C4790 H4784 0.949 . S
C4790 C4794 1.368 1_455 S
C4791 C4772 1.429 . S
C4791 C4785 1.419 1_655 S
C4791 C4792 1.523 . S
C4792 C4773 1.368 1_655 S
C4792 C4786 1.368 . S
C4792 C4791 1.523 . S
C4793 C4777 1.429 1_655 S
C4793 C4789 1.429 . S
C4793 C4794 1.523 . S
C4794 C4778 1.368 . S
C4794 C4790 1.368 1_655 S
C4794 C4793 1.523 . S
H4795 C4770 0.950 . S
H4796 C4772 0.950 . S
H4797 C4773 0.949 . S
H4798 C4775 0.950 . S
H4799 C4777 0.950 . S
C4800 C4801 1.349 . S
C4800 C4802 1.327 . S
C4800 H4825 0.950 . S
C4801 C4800 1.349 . S
C4801 C4817 1.349 . S
C4802 C4800 1.327 . S
C4802 C4821 1.429 . S
C4802 H4826 0.950 . S
C4803 C4820 1.574 . S
C4803 C4822 1.368 . S
C4803 H4827 0.949 . S
H4804 C4808 0.949 . S
C4805 C4806 1.349 . S
C4805 C4807 1.327 . S
C4805 H4828 0.950 . S
C4806 C4805 1.349 . S
C4806 C4818 1.349 . S
C4807 C4805 1.327 . S
C4807 C4823 1.429 . S
C4807 H4829 0.950 . S
C4808 H4804 0.949 . S
C4808 C4816 1.574 . S
C4808 C4824 1.368 . S
H4809 C4817 0.950 . S
H4810 C4815 0.950 . S
H4811 C4816 0.949 . S
H4812 C4818 0.950 . S
H4813 C4819 0.950 . S
H4814 C4820 0.949 . S
C4815 H4810 0.950 . S
C4815 C4817 1.327 . S
C4815 C4821 1.429 . S
C4816 C4808 1.574 . S
C4816 H4811 0.949 . S
C4816 C4822 1.368 . S
C4817 C4801 1.349 . S
C4817 H4809 0.950 . S
C4817 C4815 1.327 . S
C4818 C4806 1.349 . S
C4818 H4812 0.950 . S
C4818 C4819 1.327 . S
C4819 H4813 0.950 . S
C4819 C4818 1.327 . S
C4819 C4823 1.429 . S
C4820 C4803 1.574 . S
C4820 H4814 0.949 . S
C4820 C4824 1.368 . S
C4821 C4802 1.429 . S
C4821 C4815 1.429 . S
C4821 C4822 1.523 . S
C4822 C4803 1.368 . S
C4822 C4816 1.368 . S
C4822 C4821 1.523 . S
C4823 C4807 1.429 . S
C4823 C4819 1.429 . S
C4823 C4824 1.523 . S
C4824 C4808 1.368 . S
C4824 C4820 1.368 . S
C4824 C4823 1.523 . S
H4825 C4800 0.950 . S
H4826 C4802 0.950 . S
H4827 C4803 0.949 . S
H4828 C4805 0.950 . S
H4829 C4807 0.950 . S
C4830 C4831 1.349 . S
C4830 C4832 1.327 . S
C4830 H4855 0.950 1_545 S
C4831 C4830 1.349 . S
C4831 C4847 1.349 . S
C4832 C4830 1.327 . S
C4832 C4851 1.429 . S
C4832 H4856 0.950 1_545 S
C4833 C4850 1.574 . S
C4833 C4852 1.368 . S
C4833 H4857 0.949 . S
H4834 C4838 0.949 . S
C4835 C4836 1.349 . S
C4835 C4837 1.327 . S
C4835 H4858 0.950 . S
C4836 C4835 1.349 . S
C4836 C4848 1.349 1_545 S
C4837 C4835 1.327 . S
C4837 C4853 1.429 . S
C4837 H4859 0.950 . S
C4838 H4834 0.949 . S
C4838 C4846 1.574 . S
C4838 C4854 1.368 1_565 S
H4839 C4847 0.950 . S
H4840 C4845 0.950 . S
H4841 C4846 0.949 . S
H4842 C4848 0.950 . S
H4843 C4849 0.950 . S
H4844 C4850 0.949 . S
C4845 H4840 0.950 . S
C4845 C4847 1.327 . S
C4845 C4851 1.429 . S
C4846 C4838 1.574 . S
C4846 H4841 0.949 . S
C4846 C4852 1.368 1_565 S
C4847 C4831 1.349 . S
C4847 H4839 0.950 . S
C4847 C4845 1.327 . S
C4848 C4836 1.349 1_565 S
C4848 H4842 0.950 . S
C4848 C4849 1.327 . S
C4849 H4843 0.950 . S
C4849 C4848 1.327 . S
C4849 C4853 1.429 1_565 S
C4850 C4833 1.574 . S
C4850 H4844 0.949 . S
C4850 C4854 1.368 . S
C4851 C4832 1.429 . S
C4851 C4845 1.429 . S
C4851 C4852 1.523 . S
C4852 C4833 1.368 . S
C4852 C4846 1.368 1_545 S
C4852 C4851 1.523 . S
C4853 C4837 1.429 . S
C4853 C4849 1.429 1_545 S
C4853 C4854 1.523 . S
C4854 C4838 1.368 1_545 S
C4854 C4850 1.368 . S
C4854 C4853 1.523 . S
H4855 C4830 0.950 1_565 S
H4856 C4832 0.950 1_565 S
H4857 C4833 0.949 . S
H4858 C4835 0.950 . S
H4859 C4837 0.950 . S
C2701 C4 1.244 . S
C2706 C1703 1.047 . S
C2731 C38 1.845 . S
C2736 C1843 1.208 . S
C2766 C1931 1.132 . S
C2761 C74 1.273 . S
C2791 C76 1.335 . S
C2796 C2071 0.999 1_565 S
C2821 C2 1.404 . S
C2826 C2185 1.088 . S
C2851 C40 1.650 . S
C2856 C2273 1.240 . S
C2881 C110 1.272 . S
C2886 C2159 1.069 . S
C2916 C2299 1.324 . S
C2911 C148 1.573 . S
C2946 C2045 1.164 . S
C2941 C182 1.331 . S
C2971 C184 1.392 . S
C2976 C1957 1.053 . S
C3006 C1729 1.045 . S
C3001 C112 1.304 . S
C3031 C146 1.668 . S
C3036 C1817 1.495 . S
C3061 C220 1.774 . S
C3066 C2387 1.332 . S
C3091 C254 1.954 . S
C3096 C2527 1.294 . S
C3126 C2615 1.318 . S
C3121 C290 1.762 . S
C3151 C292 1.687 . S
C3156 C703 1.103 . S
C3181 C218 1.872 . S
C3186 C817 1.250 . S
C3211 C256 1.713 . S
C3216 C905 1.285 . S
C3241 C326 1.619 . S
C3246 C791 1.456 . S
C3271 C364 1.671 . S
C3276 C931 1.429 . S
C3306 C677 1.583 . S
C3301 C398 1.751 . S
C3336 C2641 1.552 . S
C3331 C400 1.831 . S
C3366 C2413 1.307 . S
C3361 C328 1.551 . S
C3396 C2501 1.610 . S
C3391 C362 1.778 . S
C3421 C436 1.596 . S
C3426 C1019 1.180 . S
C3451 C470 1.934 . S
C3456 C1159 1.277 . S
C3481 C506 1.793 . S
C3486 C1247 1.353 . S
C3511 C508 1.867 . S
C3516 C1387 1.250 . S
C3546 C1501 1.209 . S
C3541 C434 1.828 . S
C3576 C1589 1.310 . S
C3571 C472 1.738 . S
C3606 C1475 1.633 . S
C3601 C542 1.811 . S
C3636 C1615 1.437 . S
C3631 C580 1.681 . S
C3661 C614 1.689 . S
C3666 C1361 1.525 . S
C3696 C1273 1.381 . S
C3691 C616 1.637 . S
C3721 C544 1.609 . S
C3726 C1045 1.354 . S
C3756 C1133 1.568 . S
C3751 C578 1.727 . S
C3786 C659 1.065 . S
C3781 C14 1.854 . S
C3811 C39 1.625 . S
C3816 C773 0.900 . S
C3846 C877 1.213 . S
C3841 C75 1.671 . S
C3876 C991 1.111 . S
C3871 C86 1.474 . S
C3906 C1115 0.996 . S
C3901 C3 1.779 . S
C3936 C1219 1.197 . S
C3931 C50 1.620 . S
C3961 C111 1.914 . S
C3966 C1229 1.446 . S
C3991 C158 1.647 . S
C3996 C1001 1.253 . S
C4021 C183 1.924 1_556 S
C4026 C1105 1.677 . S
C4051 C194 1.750 . S
C4056 C763 1.532 . S
C4086 C887 1.345 . S
C4081 C122 1.769 . S
C4111 C147 1.622 . S
C4116 C649 1.400 . S
C4146 C1343 1.022 . S
C4141 C230 1.758 . S
C4171 C255 1.838 . S
C4176 C1457 1.068 . S
C4201 C291 1.709 . S
C4206 C1561 1.284 . S
C4236 C1675 0.925 . S
C4231 C302 1.048 . S
C4261 C219 1.674 . S
C4266 C1799 0.937 . S
C4291 C266 1.268 . S
C4296 C1903 1.070 . S
C4321 C327 1.326 . S
C4326 C1913 0.871 1_565 S
C4351 C374 1.219 . S
C4356 C1685 0.863 1_455 S
C4386 C1789 1.574 . S
C4381 C399 1.826 . S
C4411 C410 1.662 . S
C4416 C1447 1.460 . S
C4441 C338 1.811 . S
C4446 C1571 1.400 . S
C4476 C1333 1.584 . S
C4471 C363 1.831 . S
C4506 C2027 0.903 . S
C4501 C446 1.357 . S
C4531 C471 1.281 . S
C4536 C2141 0.838 . S
C4561 C507 1.574 . S
C4566 C2245 1.157 . S
C4596 C2359 1.083 . S
C4591 C518 1.415 . S
C4626 C2483 1.070 . S
C4621 C435 1.823 . S
C4651 C482 1.798 . S
C4656 C2587 1.370 . S
C4681 C543 1.786 . S
C4686 C2597 1.338 . S
C4711 C590 1.840 . S
C4716 C2369 1.423 . S
C4746 C2473 1.699 . S
C4741 C615 1.946 . S
C4776 C2131 1.004 1_655 S
C4771 C626 1.159 . S
C4806 C2255 1.284 . S
C4801 C554 1.706 . S
C4831 C579 1.242 . S
C4836 C2017 1.013 1_545 S
