# Generated by pormake.
# Topology pth, (4,4)-cn, num edge types: 1
# Building blocks:
#     Node 0, Type 0, BuildingBlock: GALJAG_clean_sbu_0, # of connection points: 4
#     Node 1, Type 0, BuildingBlock: GALJAG_clean_sbu_0, # of connection points: 4
#     Node 2, Type 0, BuildingBlock: GALJAG_clean_sbu_0, # of connection points: 4
#     Node 3, Type 1, BuildingBlock: MUDLON_clean_linker_0, # of connection points: 4
#     Node 4, Type 1, BuildingBlock: MUDLON_clean_linker_0, # of connection points: 4
#     Node 5, Type 1, BuildingBlock: MUDLON_clean_linker_0, # of connection points: 4
#     Edge 6, Type (0, 1), BuildingBlock: CIFDUS_clean_linker_0, # of connection points: 2
#     Edge 7, Type (0, 1), BuildingBlock: CIFDUS_clean_linker_0, # of connection points: 2
#     Edge 8, Type (0, 1), BuildingBlock: CIFDUS_clean_linker_0, # of connection points: 2
#     Edge 9, Type (0, 1), BuildingBlock: CIFDUS_clean_linker_0, # of connection points: 2
#     Edge 10, Type (0, 1), BuildingBlock: CIFDUS_clean_linker_0, # of connection points: 2
#     Edge 11, Type (0, 1), BuildingBlock: CIFDUS_clean_linker_0, # of connection points: 2
#     Edge 12, Type (0, 1), BuildingBlock: CIFDUS_clean_linker_0, # of connection points: 2
#     Edge 13, Type (0, 1), BuildingBlock: CIFDUS_clean_linker_0, # of connection points: 2
#     Edge 14, Type (0, 1), BuildingBlock: CIFDUS_clean_linker_0, # of connection points: 2
#     Edge 15, Type (0, 1), BuildingBlock: CIFDUS_clean_linker_0, # of connection points: 2
#     Edge 16, Type (0, 1), BuildingBlock: CIFDUS_clean_linker_0, # of connection points: 2
#     Edge 17, Type (0, 1), BuildingBlock: CIFDUS_clean_linker_0, # of connection points: 2
# Relax obj value: 0.016
# Max RMSD: 0.066
# Mean RMSD: 0.062
data_MOF--net-pth--node1-GALJAG_clean_sbu_0--node2-MUDLON_clean_linker_0--edge1-CIFDUS_clean_linker_0
_symmetry_space_group_name_H-M    P1
_symmetry_Int_Tables_number       1
_symmetry_cell_setting            triclinic
loop_
_symmetry_equiv_pos_as_xyz
'x, y, z'
_cell_length_a     31.220381
_cell_length_b     31.168991
_cell_length_c     60.297804
_cell_angle_alpha  90.081324
_cell_angle_beta   90.177847
_cell_angle_gamma 120.04963
loop_
_atom_site_label
_atom_site_type_symbol
_atom_site_fract_x
_atom_site_fract_y
_atom_site_fract_z
_atom_type_partial_charge
In0 In 0.99107 0.00477 0.02596 0.0
O1 O 0.95698 0.04414 0.04543 0.0
O2 O 0.02567 0.05242 0.05614 0.0
C3 C 0.91991 0.9403 -0.00166 0.0
C4 C 0.05567 0.07579 -0.0015 0.0
C5 C 0.00313 0.93662 0.04807 0.0
O6 O 0.91046 0.96251 0.01348 0.0
O7 O 0.96469 0.95172 -0.0029 0.0
O8 O 0.0349 0.96665 0.0346 0.0
O9 O 0.96544 0.94124 0.05045 0.0
C10 C 0.99248 0.06349 0.05917 0.0
O11 O 0.06758 0.05056 0.01073 0.0
O12 O 0.01102 0.06487 -5e-05 0.0
In13 In 0.96572 0.98502 0.35972 0.0
O14 O 0.00721 0.06497 0.34695 0.0
O15 O 0.93437 0.01641 0.33488 0.0
C16 C 0.03048 0.97862 0.38686 0.0
C17 C 0.90245 0.98214 0.3905 0.0
C18 C 0.96178 0.91869 0.32997 0.0
O19 O 0.04321 0.01642 0.37483 0.0
O20 O 0.98578 0.94493 0.38497 0.0
O21 O 0.92656 0.90806 0.34325 0.0
O22 O 0.99743 0.96252 0.33148 0.0
C23 C 0.972 0.05919 0.33449 0.0
O24 O 0.88727 0.95491 0.37339 0.0
O25 O 0.94864 0.01037 0.3918 0.0
In26 In 0.99361 0.0155 0.68771 0.0
O27 O 0.95236 0.93292 0.69609 0.0
O28 O 0.94222 0.98125 0.7174 0.0
C29 C 0.04503 0.00372 0.65476 0.0
C30 C 0.93385 0.03906 0.66481 0.0
C31 C 0.06653 0.08055 0.71498 0.0
O32 O 0.03193 0.97709 0.67194 0.0
O33 O 0.03166 0.03581 0.65411 0.0
O34 O 0.02566 0.0793 0.71316 0.0
O35 O 0.07018 0.04909 0.70329 0.0
C36 C 0.93136 0.93738 0.71304 0.0
O37 O 0.97302 0.07151 0.67421 0.0
O38 O 0.92503 0.99515 0.66708 0.0
H39 H 0.95834 0.6775 0.20344 0.0
N40 N 0.04733 0.68916 0.19024 0.0
H41 H 0.94634 0.72407 0.23299 0.0
H42 H 0.11203 0.74246 0.22162 0.0
H43 H 0.10003 0.78759 0.25192 0.0
H44 H 0.10866 0.77158 0.16912 0.0
H45 H 0.08954 0.80907 0.13794 0.0
H46 H 0.96164 0.6449 0.16609 0.0
H47 H 0.942 0.68168 0.13447 0.0
H48 H 0.96864 0.60206 0.20483 0.0
H49 H 0.11373 0.66708 0.17584 0.0
H50 H 0.96531 0.52197 0.20725 0.0
H51 H 0.10997 0.58707 0.17705 0.0
H52 H 0.96568 0.32557 0.22478 0.0
H53 H 0.95844 0.27657 0.25786 0.0
H54 H 0.1077 0.30582 0.24761 0.0
H55 H 0.11445 0.35491 0.21485 0.0
H56 H 0.10145 0.37058 0.16365 0.0
H57 H 0.07909 0.31101 0.13316 0.0
H58 H 0.92801 0.23304 0.1562 0.0
H59 H 0.95073 0.29302 0.1866 0.0
H60 H 0.96201 0.3756 0.18917 0.0
H61 H 0.95977 0.4529 0.187 0.0
H62 H 0.11544 0.53528 0.2039 0.0
N63 N 0.04429 0.36751 0.19665 0.0
H64 H 0.11753 0.45812 0.20485 0.0
C65 C 0.03647 0.70733 0.21016 0.0
C66 C 0.98922 0.70082 0.21417 0.0
C67 C 0.98234 0.7273 0.23119 0.0
C68 C 0.02248 0.76034 0.24455 0.0
C69 C 0.06864 0.76344 0.24157 0.0
C70 C 0.07553 0.73736 0.22445 0.0
C71 C 0.03668 0.70579 0.16984 0.0
C72 C 0.07261 0.7514 0.16127 0.0
C73 C 0.06158 0.77258 0.14341 0.0
C74 C 0.01416 0.74839 0.13371 0.0
C75 C 0.97869 0.70145 0.14174 0.0
C76 C 0.98988 0.68025 0.15968 0.0
C77 C 0.04202 0.64064 0.19052 0.0
C78 C -0.0004 0.59897 0.19884 0.0
C79 C 0.99763 0.55311 0.20004 0.0
C80 C 0.03775 0.54816 0.19269 0.0
C81 C 0.07902 0.58969 0.18349 0.0
C82 C 0.08114 0.63537 0.18257 0.0
C83 C 0.04063 0.34352 0.21743 0.0
C84 C 0.99692 0.32185 0.22991 0.0
C85 C 0.99285 0.2938 0.24872 0.0
C86 C 0.03246 0.28715 0.25532 0.0
C87 C 0.07676 0.3107 0.24321 0.0
C88 C 0.08066 0.33853 0.22444 0.0
C89 C 0.02798 0.33615 0.17733 0.0
C90 C 0.06337 0.3412 0.16181 0.0
C91 C 0.05057 0.30705 0.14455 0.0
C92 C 0.00192 0.26712 0.1425 0.0
C93 C 0.96569 0.26359 0.15735 0.0
C94 C 0.97867 0.29778 0.17474 0.0
C95 C 0.04034 0.41148 0.19677 0.0
C96 C 0.99558 0.41034 0.1923 0.0
C97 C 0.99431 0.4546 0.19125 0.0
C98 C 0.03762 0.50052 0.19491 0.0
C99 C 0.08169 0.50089 0.20032 0.0
C100 C 0.08298 0.45688 0.20109 0.0
H101 H 0.76465 0.13006 0.5359 0.0
N102 N 0.67123 0.06957 0.52402 0.0
H103 H 0.80947 0.12046 0.56701 0.0
H104 H 0.629 0.00542 0.55966 0.0
H105 H 0.67292 0.99708 0.59085 0.0
H106 H 0.67807 0.98509 0.52287 0.0
H107 H 0.70937 0.95745 0.49221 0.0
H108 H 0.69576 0.10851 0.48358 0.0
H109 H 0.72599 0.07991 0.45251 0.0
H110 H 0.63233 0.12836 0.52469 0.0
H111 H 0.59265 0.9746 0.52305 0.0
H112 H 0.54475 0.1041 0.52287 0.0
H113 H 0.50554 0.9498 0.5227 0.0
H114 H 0.30785 0.04171 0.53533 0.0
H115 H 0.25913 0.04447 0.566 0.0
H116 H 0.20491 0.88924 0.57878 0.0
H117 H 0.25573 0.88736 0.5483 0.0
H118 H 0.24036 0.88941 0.49479 0.0
H119 H 0.19797 0.89999 0.46298 0.0
H120 H 0.29226 0.05902 0.46819 0.0
H121 H 0.33661 0.04751 0.49906 0.0
H122 H 0.38329 0.04351 0.5409 0.0
H123 H 0.47045 0.06935 0.54239 0.0
H124 H 0.44332 0.9457 0.50024 0.0
N125 N 0.30957 0.95969 0.51995 0.0
H126 H 0.3552 0.91812 0.50016 0.0
C127 C 0.69352 0.06849 0.54499 0.0
C128 C 0.74425 0.10162 0.54811 0.0
C129 C 0.76979 0.09613 0.56596 0.0
C130 C 0.7449 0.05746 0.58125 0.0
C131 C 0.69344 0.0265 0.57905 0.0
C132 C 0.66805 0.03162 0.5611 0.0
C133 C 0.68561 0.04973 0.50566 0.0
C134 C 0.68827 0.00607 0.50761 0.0
C135 C 0.70593 0.9901 0.49007 0.0
C136 C 0.7201 0.01668 0.47011 0.0
C137 C 0.71495 0.05868 0.46772 0.0
C138 C 0.69807 0.07517 0.48543 0.0
C139 C 0.61912 0.05355 0.52418 0.0
C140 C 0.60461 0.08937 0.52428 0.0
C141 C 0.55451 0.07532 0.52338 0.0
C142 C 0.51775 0.02487 0.52262 0.0
C143 C 0.53255 0.98899 0.52277 0.0
C144 C 0.58258 0.00313 0.52323 0.0
C145 C 0.28576 0.96419 0.53957 0.0
C146 C 0.28633 0.00841 0.5449 0.0
C147 C 0.25789 0.00982 0.56237 0.0
C148 C 0.22755 0.96691 0.5747 0.0
C149 C 0.22817 0.92309 0.56977 0.0
C150 C 0.25707 0.92187 0.55237 0.0
C151 C 0.29062 0.96753 0.49951 0.0
C152 C 0.2524 0.9264 0.48871 0.0
C153 C 0.22799 0.93267 0.47071 0.0
C154 C 0.24075 0.98047 0.4634 0.0
C155 C 0.28134 0.0217 0.47339 0.0
C156 C 0.30638 0.01525 0.49121 0.0
C157 C 0.36211 0.978 0.52067 0.0
C158 C 0.3956 0.02151 0.53212 0.0
C159 C 0.44601 0.03672 0.53276 0.0
C160 C 0.46425 0.0095 0.52159 0.0
C161 C 0.43073 0.96696 0.50958 0.0
C162 C 0.38033 0.9513 0.50932 0.0
H163 H 0.67341 0.71734 0.8705 0.0
N164 N 0.68201 0.64001 0.8542 0.0
H165 H 0.72072 0.77115 0.90141 0.0
H166 H 0.73415 0.62271 0.88402 0.0
H167 H 0.78027 0.67526 0.91558 0.0
H168 H 0.76275 0.65828 0.83234 0.0
H169 H 0.80339 0.71829 0.80261 0.0
H170 H 0.64334 0.68982 0.83251 0.0
H171 H 0.68361 0.75013 0.80254 0.0
H172 H 0.59852 0.63186 0.87347 0.0
H173 H 0.65296 0.55527 0.83316 0.0
H174 H 0.51733 0.55699 0.875 0.0
H175 H 0.57119 0.48124 0.83326 0.0
H176 H 0.29505 0.35526 0.88411 0.0
H177 H 0.24705 0.31435 0.91747 0.0
H178 H 0.31228 0.2204 0.9188 0.0
H179 H 0.36025 0.26204 0.88579 0.0
H180 H 0.34007 0.25132 0.83796 0.0
H181 H 0.27957 0.20885 0.80845 0.0
H182 H 0.23546 0.31997 0.81237 0.0
H183 H 0.29446 0.36045 0.84269 0.0
H184 H 0.36524 0.42183 0.86035 0.0
H185 H 0.4436 0.4998 0.85664 0.0
H186 H 0.52204 0.41809 0.85775 0.0
N187 N 0.35347 0.32902 0.86141 0.0
H188 H 0.44331 0.34066 0.86002 0.0
C189 C 0.70099 0.66638 0.8748 0.0
C190 C 0.696 0.70746 0.88047 0.0
C191 C 0.72286 0.73806 0.89827 0.0
C192 C 0.75493 0.72797 0.91073 0.0
C193 C 0.75673 0.68466 0.90601 0.0
C194 C 0.73014 0.65435 0.88815 0.0
C195 C 0.70039 0.66987 0.83458 0.0
C196 C 0.74487 0.6775 0.82553 0.0
C197 C 0.76789 0.71169 0.80853 0.0
C198 C 0.74681 0.73914 0.80026 0.0
C199 C 0.701 0.72994 0.80875 0.0
C200 C 0.67784 0.6954 0.82575 0.0
C201 C 0.63218 0.59869 0.85356 0.0
C202 C 0.5929 0.59913 0.86471 0.0
C203 C 0.54619 0.55625 0.86539 0.0
C204 C 0.53768 0.51252 0.85459 0.0
C205 C 0.57655 0.5135 0.8424 0.0
C206 C 0.62324 0.55593 0.84209 0.0
C207 C 0.33099 0.31138 0.88263 0.0
C208 C 0.2996 0.32656 0.89194 0.0
C209 C 0.27203 0.30293 0.91087 0.0
C210 C 0.27562 0.2639 0.92073 0.0
C211 C 0.30905 0.25069 0.91186 0.0
C212 C 0.3364 0.27425 0.89298 0.0
C213 C 0.32212 0.30916 0.84226 0.0
C214 C 0.31778 0.26677 0.83214 0.0
C215 C 0.28329 0.24276 0.81521 0.0
C216 C 0.25257 0.26102 0.80789 0.0
C217 C 0.25803 0.3045 0.81773 0.0
C218 C 0.29227 0.32817 0.83488 0.0
C219 C 0.39872 0.37557 0.86002 0.0
C220 C 0.39932 0.42087 0.85945 0.0
C221 C 0.4443 0.46547 0.85759 0.0
C222 C 0.4894 0.46547 0.85661 0.0
C223 C 0.48823 0.41976 0.85778 0.0
C224 C 0.44336 0.37541 0.8593 0.0
H225 H 0.93275 0.10297 0.06735 0.0
H226 H 0.06346 0.10265 0.09081 0.0
H227 H 0.07697 0.16464 0.11864 0.0
H228 H 0.05392 0.22093 0.13566 0.0
H229 H 0.92384 0.22308 0.11322 0.0
H230 H 0.9075 0.15816 0.08582 0.0
C231 C 0.9639 0.11628 0.07869 0.0
C232 C 0.99718 0.09839 0.07691 0.0
C233 C 0.97174 0.1524 0.09476 0.0
C234 C 0.03739 0.11591 0.09172 0.0
C235 C 0.04526 0.15146 0.10766 0.0
C236 C 0.02217 0.20745 0.12465 0.0
C237 C 0.99058 0.2272 0.12616 0.0
C238 C 0.01311 0.17038 0.10914 0.0
C239 C 0.94879 0.20846 0.11225 0.0
C240 C 0.93954 0.17149 0.09659 0.0
H241 H 0.81234 0.97455 0.38545 0.0
H242 H 0.92037 0.99083 0.43445 0.0
H243 H 0.87078 0.99847 0.46377 0.0
H244 H 0.80002 0.0065 0.47511 0.0
H245 H 0.69562 0.99879 0.42613 0.0
H246 H 0.74023 0.98196 0.39707 0.0
C247 C 0.82439 0.97903 0.40261 0.0
C248 C 0.86955 0.98186 0.40794 0.0
C249 C 0.79661 0.9854 0.41927 0.0
C250 C 0.8856 0.98859 0.43009 0.0
C251 C 0.85736 0.99302 0.44681 0.0
C252 C 0.78673 0.0004 0.4581 0.0
C253 C 0.74459 0.0034 0.45268 0.0
C254 C 0.81331 0.99236 0.44155 0.0
C255 C 0.72809 0.99654 0.43058 0.0
C256 C 0.75353 0.98693 0.41403 0.0
H257 H 0.87285 0.93673 0.74639 0.0
H258 H 0.91152 0.8419 0.70985 0.0
H259 H 0.85541 0.77135 0.73273 0.0
H260 H 0.7975 0.73729 0.76392 0.0
H261 H 0.75943 0.83236 0.80064 0.0
H262 H 0.8122 0.90179 0.77654 0.0
C263 C 0.86894 0.9006 0.74343 0.0
C264 C 0.89659 0.89461 0.72659 0.0
C265 C 0.83643 0.86016 0.75656 0.0
C266 C 0.89078 0.8475 0.72279 0.0
C267 C 0.85869 0.80714 0.73585 0.0
C268 C 0.80071 0.7732 0.76662 0.0
C269 C 0.77467 0.77962 0.7841 0.0
C270 C 0.83165 0.81314 0.7529 0.0
C271 C 0.77858 0.8262 0.78715 0.0
C272 C 0.80914 0.86607 0.77351 0.0
H273 H 0.93952 0.86826 0.0772 0.0
H274 H 0.08255 0.92259 0.04694 0.0
H275 H 0.09658 0.86546 0.06933 0.0
H276 H 0.07037 0.80386 0.09908 0.0
H277 H 0.92872 0.75202 0.13036 0.0
H278 H 0.91141 0.8033 0.10554 0.0
C279 C 0.97363 0.86737 0.07541 0.0
C280 C 0.01015 0.89991 0.0606 0.0
C281 C 0.98158 0.83469 0.08843 0.0
C282 C 0.05399 0.89811 0.05833 0.0
C283 C 0.06204 0.86546 0.07112 0.0
C284 C 0.03565 0.80368 0.10043 0.0
C285 C 0.00108 0.77435 0.11667 0.0
C286 C 0.02644 0.83418 0.08648 0.0
C287 C 0.95582 0.77379 0.11788 0.0
C288 C 0.94608 0.80353 0.10384 0.0
H289 H 0.13144 0.03477 0.38914 0.0
H290 H 0.00495 0.91111 0.4196 0.0
H291 H 0.05883 0.90123 0.44575 0.0
H292 H 0.14089 0.9279 0.46037 0.0
H293 H 0.26914 0.04855 0.42949 0.0
H294 H 0.21548 0.05995 0.40335 0.0
C295 C 0.11584 0.00576 0.40154 0.0
C296 C 0.06431 0.97377 0.40246 0.0
C297 C 0.14723 -0.0002 0.41646 0.0
C298 C 0.0445 0.93613 0.41849 0.0
C299 C 0.07526 0.93045 0.43349 0.0
C300 C 0.15742 0.95612 0.44767 0.0
C301 C 0.20909 0.98697 0.44681 0.0
C302 C 0.12657 0.96196 0.43259 0.0
C303 C 0.22947 0.02441 0.43064 0.0
C304 C 0.19881 0.03082 0.41562 0.0
H305 H 0.06252 0.13892 0.74765 0.0
H306 H 0.16158 0.10025 0.71515 0.0
H307 H 0.22867 0.15537 0.73996 0.0
H308 H 0.25862 0.21239 0.77149 0.0
H309 H 0.15842 0.24677 0.80597 0.0
H310 H 0.09298 0.19675 0.77942 0.0
C311 C 0.09889 0.14284 0.74596 0.0
C312 C 0.10706 0.11549 0.72965 0.0
C313 C 0.13722 0.17405 0.76055 0.0
C314 C 0.15428 0.12073 0.72766 0.0
C315 C 0.19271 0.15229 0.74181 0.0
C316 C 0.2224 0.20873 0.77336 0.0
C317 C 0.21365 0.2333 0.79083 0.0
C318 C 0.18446 0.17869 0.75846 0.0
C319 C 0.16666 0.22895 0.79256 0.0
C320 C 0.12895 0.1999 0.77749 0.0
H321 H 0.84916 0.97473 0.64367 0.0
H322 H 0.94667 0.1308 0.65578 0.0
H323 H 0.89536 0.15049 0.63185 0.0
H324 H 0.82428 0.12313 0.60638 0.0
H325 H 0.72931 0.96668 0.59361 0.0
H326 H 0.77761 0.94748 0.61923 0.0
C327 C 0.85909 0.01307 0.64118 0.0
C328 C 0.90172 0.05125 0.65139 0.0
C329 C 0.82973 0.02407 0.62734 0.0
C330 C 0.91402 0.10072 0.64805 0.0
C331 C 0.88475 0.112 0.63436 0.0
C332 C 0.81419 0.08486 0.6092 0.0
C333 C 0.77298 0.04648 0.59811 0.0
C334 C 0.84278 0.07396 0.62371 0.0
C335 C 0.76016 0.99702 0.60219 0.0
C336 C 0.78808 0.98593 0.6167 0.0
H337 H 0.93351 0.88346 0.96886 0.0
H338 H 0.82119 0.91135 0.99491 0.0
H339 H 0.75936 0.84705 0.9704 0.0
H340 H 0.73781 0.7829 0.94136 0.0
H341 H 0.85221 0.75719 0.91586 0.0
H342 H 0.91242 0.82012 0.94068 0.0
C343 C 0.89553 0.87566 0.96918 0.0
C344 C 0.88197 0.90228 0.98358 0.0
C345 C 0.86045 0.83866 0.95528 0.0
C346 C 0.83254 0.89142 0.9839 0.0
C347 C 0.79723 0.85464 0.96992 0.0
C348 C 0.77593 0.79116 0.94126 0.0
C349 C 0.79025 0.7649 0.92689 0.0
C350 C 0.81081 0.82801 0.95551 0.0
C351 C 0.83979 0.7759 0.92705 0.0
C352 C 0.87446 0.81229 0.9411 0.0
H353 H 0.03558 0.93548 0.30201 0.0
H354 H 0.89195 0.82067 0.32371 0.0
H355 H 0.89799 0.76084 0.29933 0.0
H356 H 0.94539 0.74129 0.2723 0.0
H357 H 0.08863 0.85811 0.2509 0.0
H358 H 0.08172 0.91674 0.27508 0.0
C359 C 0.00541 0.89742 0.30138 0.0
C360 C 0.96335 0.88253 0.3146 0.0
C361 C 0.00935 0.86343 0.28757 0.0
C362 C 0.92468 0.83305 0.31361 0.0
C363 C 0.9282 0.79885 0.29974 0.0
C364 C 0.97496 0.77961 0.27289 0.0
C365 C 0.01775 0.79498 0.25997 0.0
C366 C 0.97055 0.8136 0.28671 0.0
C367 C 0.05583 0.84481 0.26103 0.0
C368 C 0.05174 0.8786 0.2747 0.0
H369 H 0.09356 0.95174 0.65628 0.0
H370 H 0.06535 0.0466 0.61403 0.0
H371 H 0.11848 0.04264 0.58544 0.0
H372 H 0.17348 0.01316 0.57265 0.0
H373 H 0.20533 0.92154 0.61538 0.0
H374 H 0.14958 0.92267 0.64346 0.0
C375 C 0.09886 0.97129 0.64075 0.0
C376 C 0.07554 0.99937 0.63723 0.0
C377 C 0.13006 0.96943 0.6245 0.0
C378 C 0.08295 0.02479 0.61712 0.0
C379 C 0.11334 0.02257 0.60078 0.0
C380 C 0.16881 0.99394 0.58821 0.0
C381 C 0.19388 0.96758 0.59192 0.0
C382 C 0.13735 0.99534 0.60437 0.0
C383 C 0.18625 0.94181 0.61199 0.0
C384 C 0.15456 0.94264 0.6281 0.0
H385 H 0.15544 0.11673 -0.00195 0.0
H386 H 0.03516 0.12216 0.96534 0.0
H387 H 0.09322 0.18369 0.93929 0.0
H388 H 0.17736 0.23189 0.92447 0.0
H389 H 0.29798 0.22794 0.9577 0.0
H390 H 0.24053 0.1699 0.98494 0.0
C391 C 0.142 0.13153 0.98526 0.0
C392 C 0.0911 0.11462 0.98346 0.0
C393 C 0.1756 0.16707 0.97044 0.0
C394 C 0.0742 0.13449 0.96699 0.0
C395 C 0.10736 0.16964 0.9521 0.0
C396 C 0.1913 0.21922 0.93794 0.0
C397 C 0.24189 0.23403 0.93894 0.0
C398 C 0.15806 0.18579 0.95352 0.0
C399 C 0.25912 0.21659 0.95635 0.0
C400 C 0.22631 0.18345 0.97195 0.0
H401 H 0.04772 0.15454 0.33063 0.0
H402 H 0.90154 0.05194 0.30575 0.0
H403 H 0.90602 0.11457 0.28023 0.0
H404 H 0.95316 0.19649 0.26335 0.0
H405 H 0.09926 0.2999 0.28794 0.0
H406 H 0.09311 0.239 0.31516 0.0
C407 C 0.01679 0.14607 0.3197 0.0
C408 C 0.97454 0.09857 0.31999 0.0
C409 C 0.01962 0.18231 0.30496 0.0
C410 C 0.93462 0.08814 0.30581 0.0
C411 C 0.93711 0.12395 0.29119 0.0
C412 C 0.98327 0.20615 0.27496 0.0
C413 C 0.02663 0.25264 0.27356 0.0
C414 C 0.97962 0.17093 0.29044 0.0
C415 C 0.06565 0.26414 0.2885 0.0
C416 C 0.06215 0.22938 0.30409 0.0
loop_
_geom_bond_atom_site_label_1
_geom_bond_atom_site_label_2
_geom_bond_distance
_geom_bond_site_symmetry_2
_ccdc_geom_bond_type
In0 O1 2.294 1_455 S
In0 O2 2.326 . S
In0 O6 2.266 1_445 S
In0 O7 2.358 1_445 S
In0 O8 2.266 1_545 S
In0 O9 2.326 1_445 S
In0 O11 2.294 . S
In0 O12 2.326 . S
O1 In0 2.294 1_655 S
O1 C10 1.240 1_655 S
O2 In0 2.326 . S
O2 C10 1.252 . S
C3 O6 1.268 . S
C3 O7 1.260 . S
C4 O11 1.264 . S
C4 O12 1.255 . S
C5 O8 1.251 1_655 S
C5 O9 1.261 . S
O6 In0 2.266 1_665 S
O6 C3 1.268 . S
O7 In0 2.358 1_665 S
O7 C3 1.260 . S
O8 In0 2.266 1_565 S
O8 C5 1.251 1_455 S
O9 In0 2.326 1_665 S
O9 C5 1.261 . S
C10 O1 1.240 1_455 S
C10 O2 1.252 . S
O11 In0 2.294 . S
O11 C4 1.264 . S
O12 In0 2.326 . S
O12 C4 1.255 . S
In13 O14 2.294 . S
In13 O15 2.326 1_455 S
In13 O19 2.266 . S
In13 O20 2.326 1_545 S
In13 O21 2.266 1_445 S
In13 O22 2.326 1_545 S
In13 O24 2.294 1_445 S
In13 O25 2.326 1_455 S
O14 In13 2.294 . S
O14 C23 1.240 1_455 S
O15 In13 2.326 1_655 S
O15 C23 1.252 . S
C16 O19 1.236 1_565 S
C16 O20 1.268 . S
C17 O24 1.240 1_545 S
C17 O25 1.252 . S
C18 O21 1.252 1_455 S
C18 O22 1.260 . S
O19 In13 2.266 . S
O19 C16 1.236 1_545 S
O20 In13 2.326 1_565 S
O20 C16 1.268 . S
O21 In13 2.266 1_665 S
O21 C18 1.252 1_655 S
O22 In13 2.326 1_565 S
O22 C18 1.260 . S
C23 O14 1.240 1_655 S
C23 O15 1.252 . S
O24 In13 2.294 1_665 S
O24 C17 1.240 1_565 S
O25 In13 2.326 1_655 S
O25 C17 1.252 . S
In26 O27 2.294 1_445 S
In26 O28 2.326 1_445 S
In26 O32 2.266 1_545 S
In26 O33 2.326 . S
In26 O34 2.266 . S
In26 O35 2.326 . S
In26 O37 2.294 1_455 S
In26 O38 2.326 1_445 S
O27 In26 2.294 1_665 S
O27 C36 1.240 . S
O28 In26 2.326 1_665 S
O28 C36 1.252 . S
C29 O32 1.252 1_545 S
C29 O33 1.260 . S
C30 O37 1.240 1_565 S
C30 O38 1.252 . S
C31 O34 1.252 . S
C31 O35 1.260 . S
O32 In26 2.266 1_565 S
O32 C29 1.252 1_565 S
O33 In26 2.326 . S
O33 C29 1.260 . S
O34 In26 2.266 . S
O34 C31 1.252 . S
O35 In26 2.326 . S
O35 C31 1.260 . S
C36 O27 1.240 . S
C36 O28 1.252 . S
O37 In26 2.294 1_655 S
O37 C30 1.240 1_545 S
O38 In26 2.326 1_665 S
O38 C30 1.252 . S
H39 C66 0.929 . S
N40 C65 1.433 . S
N40 C71 1.435 . S
N40 C77 1.423 . S
H41 C67 0.930 . S
H42 C70 0.931 . S
H43 C69 0.929 . S
H44 C72 0.930 . S
H45 C73 0.932 . S
H46 C76 0.929 . S
H47 C75 0.931 . S
H48 C78 0.929 . S
H49 C82 0.935 . S
H50 C79 0.931 . S
H51 C81 0.929 1_455 S
H52 C84 0.929 . S
H53 C85 0.930 . S
H54 C87 0.929 . S
H55 C88 0.931 . S
H56 C90 0.930 . S
H57 C91 0.932 . S
H58 C93 0.931 . S
H59 C94 0.929 . S
H60 C96 0.929 . S
H61 C97 0.931 . S
H62 C99 0.929 1_455 S
N63 C83 1.433 . S
N63 C89 1.435 . S
N63 C95 1.423 . S
H64 C100 0.941 . S
C65 N40 1.433 . S
C65 C66 1.363 . S
C65 C70 1.370 1_655 S
C66 H39 0.929 . S
C66 C65 1.363 . S
C66 C67 1.385 . S
C67 H41 0.930 . S
C67 C66 1.385 . S
C67 C68 1.357 . S
C68 C67 1.357 . S
C68 C69 1.406 1_655 S
C69 H43 0.929 . S
C69 C68 1.406 1_455 S
C69 C70 1.391 . S
C70 H42 0.931 . S
C70 C65 1.370 1_455 S
C70 C69 1.391 . S
C71 N40 1.435 . S
C71 C72 1.358 1_655 S
C71 C76 1.371 . S
C72 H44 0.930 . S
C72 C71 1.358 1_455 S
C72 C73 1.405 . S
C73 H45 0.932 . S
C73 C72 1.405 . S
C73 C74 1.383 . S
C74 C73 1.383 . S
C74 C75 1.393 1_455 S
C75 H47 0.931 . S
C75 C74 1.393 1_655 S
C75 C76 1.382 . S
C76 H46 0.929 . S
C76 C71 1.371 . S
C76 C75 1.382 . S
C77 N40 1.423 . S
C77 C78 1.362 . S
C77 C82 1.380 1_655 S
C78 H48 0.929 . S
C78 C77 1.362 . S
C78 C79 1.376 . S
C79 H50 0.931 . S
C79 C78 1.376 . S
C79 C80 1.396 . S
C80 C79 1.396 . S
C80 C81 1.348 . S
C80 C98 1.472 . S
C81 H51 0.929 1_655 S
C81 C80 1.348 . S
C81 C82 1.448 1_655 S
C82 H49 0.935 . S
C82 C77 1.380 1_455 S
C82 C81 1.448 1_455 S
C83 N63 1.433 . S
C83 C84 1.363 . S
C83 C88 1.370 1_655 S
C84 H52 0.929 . S
C84 C83 1.363 . S
C84 C85 1.385 . S
C85 H53 0.930 . S
C85 C84 1.385 . S
C85 C86 1.357 . S
C86 C85 1.357 . S
C86 C87 1.406 1_655 S
C87 H54 0.929 . S
C87 C86 1.406 1_455 S
C87 C88 1.391 . S
C88 H55 0.931 . S
C88 C83 1.370 1_455 S
C88 C87 1.391 . S
C89 N63 1.435 . S
C89 C90 1.358 1_655 S
C89 C94 1.371 . S
C90 H56 0.930 . S
C90 C89 1.358 1_455 S
C90 C91 1.405 . S
C91 H57 0.932 . S
C91 C90 1.405 . S
C91 C92 1.383 . S
C92 C91 1.383 . S
C92 C93 1.393 1_455 S
C93 H58 0.931 . S
C93 C92 1.393 1_655 S
C93 C94 1.382 . S
C94 H59 0.929 . S
C94 C89 1.371 . S
C94 C93 1.382 . S
C95 N63 1.423 . S
C95 C96 1.362 . S
C95 C100 1.386 1_655 S
C96 H60 0.929 . S
C96 C95 1.362 . S
C96 C97 1.376 . S
C97 H61 0.931 . S
C97 C96 1.376 . S
C97 C98 1.396 . S
C98 C80 1.472 . S
C98 C97 1.396 . S
C98 C99 1.348 . S
C99 H62 0.929 1_655 S
C99 C98 1.348 . S
C99 C100 1.436 1_655 S
C100 H64 0.941 . S
C100 C95 1.386 1_455 S
C100 C99 1.436 1_455 S
H101 C128 0.929 . S
N102 C127 1.433 . S
N102 C133 1.435 . S
N102 C139 1.423 . S
H103 C129 0.930 . S
H104 C132 0.931 . S
H105 C131 0.929 . S
H106 C134 0.930 . S
H107 C135 0.932 . S
H108 C138 0.929 . S
H109 C137 0.931 . S
H110 C140 0.929 . S
H111 C144 0.932 1_565 S
H112 C141 0.931 . S
H113 C143 0.929 1_565 S
H114 C146 0.929 . S
H115 C147 0.930 . S
H116 C149 0.929 . S
H117 C150 0.931 . S
H118 C152 0.930 . S
H119 C153 0.932 . S
H120 C155 0.931 . S
H121 C156 0.929 . S
H122 C158 0.929 . S
H123 C159 0.931 . S
H124 C161 0.929 1_565 S
N125 C145 1.433 . S
N125 C151 1.435 . S
N125 C157 1.423 . S
H126 C162 0.932 1_565 S
C127 N102 1.433 . S
C127 C128 1.363 . S
C127 C132 1.370 1_545 S
C128 H101 0.929 . S
C128 C127 1.363 . S
C128 C129 1.385 . S
C129 H103 0.930 . S
C129 C128 1.385 . S
C129 C130 1.357 . S
C130 C129 1.357 . S
C130 C131 1.406 1_545 S
C131 H105 0.929 . S
C131 C130 1.406 1_565 S
C131 C132 1.391 . S
C132 H104 0.931 . S
C132 C127 1.370 1_565 S
C132 C131 1.391 . S
C133 N102 1.435 . S
C133 C134 1.358 1_545 S
C133 C138 1.371 . S
C134 H106 0.930 . S
C134 C133 1.358 1_565 S
C134 C135 1.405 . S
C135 H107 0.932 . S
C135 C134 1.405 . S
C135 C136 1.383 1_565 S
C136 C135 1.383 1_545 S
C136 C137 1.393 . S
C137 H109 0.931 . S
C137 C136 1.393 . S
C137 C138 1.382 . S
C138 H108 0.929 . S
C138 C133 1.371 . S
C138 C137 1.382 . S
C139 N102 1.423 . S
C139 C140 1.362 . S
C139 C144 1.388 . S
C140 H110 0.929 . S
C140 C139 1.362 . S
C140 C141 1.376 . S
C141 H112 0.931 . S
C141 C140 1.376 . S
C141 C142 1.396 . S
C142 C141 1.396 . S
C142 C143 1.348 . S
C142 C160 1.472 . S
C143 H113 0.929 1_545 S
C143 C142 1.348 . S
C143 C144 1.443 . S
C144 H111 0.932 1_545 S
C144 C139 1.388 . S
C144 C143 1.443 . S
C145 N125 1.433 . S
C145 C146 1.363 . S
C145 C150 1.370 1_545 S
C146 H114 0.929 . S
C146 C145 1.363 . S
C146 C147 1.385 . S
C147 H115 0.930 . S
C147 C146 1.385 . S
C147 C148 1.357 . S
C148 C147 1.357 . S
C148 C149 1.406 1_545 S
C149 H116 0.929 . S
C149 C148 1.406 1_565 S
C149 C150 1.391 . S
C150 H117 0.931 . S
C150 C145 1.370 1_565 S
C150 C149 1.391 . S
C151 N125 1.435 . S
C151 C152 1.358 1_545 S
C151 C156 1.371 . S
C152 H118 0.930 . S
C152 C151 1.358 1_565 S
C152 C153 1.405 . S
C153 H119 0.932 . S
C153 C152 1.405 . S
C153 C154 1.383 1_565 S
C154 C153 1.383 1_545 S
C154 C155 1.393 . S
C155 H120 0.931 . S
C155 C154 1.393 . S
C155 C156 1.382 . S
C156 H121 0.929 . S
C156 C151 1.371 . S
C156 C155 1.382 . S
C157 N125 1.423 . S
C157 C158 1.362 . S
C157 C162 1.388 . S
C158 H122 0.929 . S
C158 C157 1.362 . S
C158 C159 1.376 . S
C159 H123 0.931 . S
C159 C158 1.376 . S
C159 C160 1.396 . S
C160 C142 1.472 . S
C160 C159 1.396 . S
C160 C161 1.348 . S
C161 H124 0.929 1_545 S
C161 C160 1.348 . S
C161 C162 1.443 . S
C162 H126 0.932 1_545 S
C162 C157 1.388 . S
C162 C161 1.443 . S
H163 C190 0.929 . S
N164 C189 1.433 . S
N164 C195 1.435 . S
N164 C201 1.423 . S
H165 C191 0.930 . S
H166 C194 0.931 . S
H167 C193 0.929 . S
H168 C196 0.930 . S
H169 C197 0.932 . S
H170 C200 0.929 . S
H171 C199 0.931 . S
H172 C202 0.929 . S
H173 C206 0.932 . S
H174 C203 0.931 . S
H175 C205 0.929 . S
H176 C208 0.929 . S
H177 C209 0.930 . S
H178 C211 0.929 . S
H179 C212 0.931 . S
H180 C214 0.930 . S
H181 C215 0.932 . S
H182 C217 0.931 . S
H183 C218 0.929 . S
H184 C220 0.929 . S
H185 C221 0.931 . S
H186 C223 0.929 . S
N187 C207 1.433 . S
N187 C213 1.435 . S
N187 C219 1.423 . S
H188 C224 0.932 . S
C189 N164 1.433 . S
C189 C190 1.363 . S
C189 C194 1.370 . S
C190 H163 0.929 . S
C190 C189 1.363 . S
C190 C191 1.385 . S
C191 H165 0.930 . S
C191 C190 1.385 . S
C191 C192 1.357 . S
C192 C191 1.357 . S
C192 C193 1.406 . S
C193 H167 0.929 . S
C193 C192 1.406 . S
C193 C194 1.391 . S
C194 H166 0.931 . S
C194 C189 1.370 . S
C194 C193 1.391 . S
C195 N164 1.435 . S
C195 C196 1.358 . S
C195 C200 1.371 . S
C196 H168 0.930 . S
C196 C195 1.358 . S
C196 C197 1.405 . S
C197 H169 0.932 . S
C197 C196 1.405 . S
C197 C198 1.383 . S
C198 C197 1.383 . S
C198 C199 1.393 . S
C199 H171 0.931 . S
C199 C198 1.393 . S
C199 C200 1.382 . S
C200 H170 0.929 . S
C200 C195 1.371 . S
C200 C199 1.382 . S
C201 N164 1.423 . S
C201 C202 1.362 . S
C201 C206 1.388 . S
C202 H172 0.929 . S
C202 C201 1.362 . S
C202 C203 1.376 . S
C203 H174 0.931 . S
C203 C202 1.376 . S
C203 C204 1.396 . S
C204 C203 1.396 . S
C204 C205 1.348 . S
C204 C222 1.472 . S
C205 H175 0.929 . S
C205 C204 1.348 . S
C205 C206 1.443 . S
C206 H173 0.932 . S
C206 C201 1.388 . S
C206 C205 1.443 . S
C207 N187 1.433 . S
C207 C208 1.363 . S
C207 C212 1.370 . S
C208 H176 0.929 . S
C208 C207 1.363 . S
C208 C209 1.385 . S
C209 H177 0.930 . S
C209 C208 1.385 . S
C209 C210 1.357 . S
C210 C209 1.357 . S
C210 C211 1.406 . S
C211 H178 0.929 . S
C211 C210 1.406 . S
C211 C212 1.391 . S
C212 H179 0.931 . S
C212 C207 1.370 . S
C212 C211 1.391 . S
C213 N187 1.435 . S
C213 C214 1.358 . S
C213 C218 1.371 . S
C214 H180 0.930 . S
C214 C213 1.358 . S
C214 C215 1.405 . S
C215 H181 0.932 . S
C215 C214 1.405 . S
C215 C216 1.383 . S
C216 C215 1.383 . S
C216 C217 1.393 . S
C217 H182 0.931 . S
C217 C216 1.393 . S
C217 C218 1.382 . S
C218 H183 0.929 . S
C218 C213 1.371 . S
C218 C217 1.382 . S
C219 N187 1.423 . S
C219 C220 1.362 . S
C219 C224 1.388 . S
C220 H184 0.929 . S
C220 C219 1.362 . S
C220 C221 1.376 . S
C221 H185 0.931 . S
C221 C220 1.376 . S
C221 C222 1.396 . S
C222 C204 1.472 . S
C222 C221 1.396 . S
C222 C223 1.348 . S
C223 H186 0.929 . S
C223 C222 1.348 . S
C223 C224 1.443 . S
C224 H188 0.932 . S
C224 C219 1.388 . S
C224 C223 1.443 . S
H225 C231 0.930 1_655 S
H226 C234 0.930 . S
H227 C235 0.930 . S
H228 C236 0.930 . S
H229 C239 0.930 . S
H230 C240 0.930 . S
C231 H225 0.930 1_455 S
C231 C232 1.355 . S
C231 C233 1.415 . S
C232 C231 1.355 . S
C232 C234 1.419 . S
C233 C231 1.415 . S
C233 C238 1.425 . S
C233 C240 1.409 1_455 S
C234 H226 0.930 . S
C234 C232 1.419 . S
C234 C235 1.362 . S
C235 H227 0.930 . S
C235 C234 1.362 . S
C235 C238 1.409 . S
C236 H228 0.930 . S
C236 C237 1.355 . S
C236 C238 1.415 . S
C237 C236 1.355 . S
C237 C239 1.419 1_455 S
C238 C233 1.425 . S
C238 C235 1.409 . S
C238 C236 1.415 . S
C239 H229 0.930 . S
C239 C237 1.419 1_655 S
C239 C240 1.362 . S
C240 H230 0.930 . S
C240 C233 1.409 1_655 S
C240 C239 1.362 . S
H241 C247 0.930 1_565 S
H242 C250 0.930 . S
H243 C251 0.930 . S
H244 C252 0.930 . S
H245 C255 0.930 . S
H246 C256 0.930 . S
C247 H241 0.930 1_545 S
C247 C248 1.355 . S
C247 C249 1.408 . S
C248 C247 1.355 . S
C248 C250 1.419 . S
C249 C247 1.408 . S
C249 C254 1.425 . S
C249 C256 1.416 1_545 S
C250 H242 0.930 . S
C250 C248 1.419 . S
C250 C251 1.362 . S
C251 H243 0.930 . S
C251 C250 1.362 . S
C251 C254 1.409 . S
C252 H244 0.930 . S
C252 C253 1.355 . S
C252 C254 1.415 . S
C253 C252 1.355 . S
C253 C255 1.419 1_545 S
C254 C249 1.425 . S
C254 C251 1.409 . S
C254 C252 1.415 . S
C255 H245 0.930 . S
C255 C253 1.419 1_565 S
C255 C256 1.362 . S
C256 H246 0.930 . S
C256 C249 1.416 1_565 S
C256 C255 1.362 . S
H257 C263 0.930 . S
H258 C266 0.930 . S
H259 C267 0.930 . S
H260 C268 0.930 . S
H261 C271 0.930 . S
H262 C272 0.930 . S
C263 H257 0.930 . S
C263 C264 1.355 . S
C263 C265 1.415 . S
C264 C263 1.355 . S
C264 C266 1.419 . S
C265 C263 1.415 . S
C265 C270 1.425 . S
C265 C272 1.409 . S
C266 H258 0.930 . S
C266 C264 1.419 . S
C266 C267 1.362 . S
C267 H259 0.930 . S
C267 C266 1.362 . S
C267 C270 1.409 . S
C268 H260 0.930 . S
C268 C269 1.355 . S
C268 C270 1.415 . S
C269 C268 1.355 . S
C269 C271 1.419 . S
C270 C265 1.425 . S
C270 C267 1.409 . S
C270 C268 1.415 . S
C271 H261 0.930 . S
C271 C269 1.419 . S
C271 C272 1.362 . S
C272 H262 0.930 . S
C272 C265 1.409 . S
C272 C271 1.362 . S
H273 C279 0.930 . S
H274 C282 0.930 . S
H275 C283 0.930 . S
H276 C284 0.930 . S
H277 C287 0.930 . S
H278 C288 0.930 . S
C279 H273 0.930 . S
C279 C280 1.355 1_655 S
C279 C281 1.415 . S
C280 C279 1.355 1_455 S
C280 C282 1.419 . S
C281 C279 1.415 . S
C281 C286 1.425 1_655 S
C281 C288 1.409 . S
C282 H274 0.930 . S
C282 C280 1.419 . S
C282 C283 1.362 . S
C283 H275 0.930 . S
C283 C282 1.362 . S
C283 C286 1.409 . S
C284 H276 0.930 . S
C284 C285 1.344 1_455 S
C284 C286 1.415 . S
C285 C284 1.344 1_655 S
C285 C287 1.445 . S
C286 C281 1.425 1_455 S
C286 C283 1.409 . S
C286 C284 1.415 . S
C287 H277 0.930 . S
C287 C285 1.445 . S
C287 C288 1.362 . S
C288 H278 0.930 . S
C288 C281 1.409 . S
C288 C287 1.362 . S
H289 C295 0.930 . S
H290 C298 0.930 . S
H291 C299 0.930 . S
H292 C300 0.930 . S
H293 C303 0.930 . S
H294 C304 0.930 . S
C295 H289 0.930 . S
C295 C296 1.355 1_545 S
C295 C297 1.415 . S
C296 C295 1.355 1_565 S
C296 C298 1.419 . S
C297 C295 1.415 . S
C297 C302 1.425 1_545 S
C297 C304 1.409 . S
C298 H290 0.930 . S
C298 C296 1.419 . S
C298 C299 1.362 . S
C299 H291 0.930 . S
C299 C298 1.362 . S
C299 C302 1.409 . S
C300 H292 0.930 . S
C300 C301 1.355 1_565 S
C300 C302 1.415 . S
C301 C300 1.355 1_545 S
C301 C303 1.419 . S
C302 C297 1.425 1_565 S
C302 C299 1.409 . S
C302 C300 1.415 . S
C303 H293 0.930 . S
C303 C301 1.419 . S
C303 C304 1.362 . S
C304 H294 0.930 . S
C304 C297 1.409 . S
C304 C303 1.362 . S
H305 C311 0.930 . S
H306 C314 0.930 . S
H307 C315 0.930 . S
H308 C316 0.930 . S
H309 C319 0.930 . S
H310 C320 0.930 . S
C311 H305 0.930 . S
C311 C312 1.355 . S
C311 C313 1.415 . S
C312 C311 1.355 . S
C312 C314 1.419 . S
C313 C311 1.415 . S
C313 C318 1.425 . S
C313 C320 1.409 . S
C314 H306 0.930 . S
C314 C312 1.419 . S
C314 C315 1.362 . S
C315 H307 0.930 . S
C315 C314 1.362 . S
C315 C318 1.409 . S
C316 H308 0.930 . S
C316 C317 1.355 . S
C316 C318 1.415 . S
C317 C316 1.355 . S
C317 C319 1.419 . S
C318 C313 1.425 . S
C318 C315 1.409 . S
C318 C316 1.415 . S
C319 H309 0.930 . S
C319 C317 1.419 . S
C319 C320 1.362 . S
C320 H310 0.930 . S
C320 C313 1.409 . S
C320 C319 1.362 . S
H321 C327 0.930 . S
H322 C330 0.930 . S
H323 C331 0.930 . S
H324 C332 0.930 . S
H325 C335 0.930 . S
H326 C336 0.930 . S
C327 H321 0.930 . S
C327 C328 1.355 1_565 S
C327 C329 1.415 . S
C328 C327 1.355 1_545 S
C328 C330 1.419 . S
C329 C327 1.415 . S
C329 C334 1.425 1_565 S
C329 C336 1.409 . S
C330 H322 0.930 . S
C330 C328 1.419 . S
C330 C331 1.362 . S
C331 H323 0.930 . S
C331 C330 1.362 . S
C331 C334 1.409 . S
C332 H324 0.930 . S
C332 C333 1.355 1_545 S
C332 C334 1.415 . S
C333 C332 1.355 1_565 S
C333 C335 1.419 . S
C334 C329 1.425 1_545 S
C334 C331 1.409 . S
C334 C332 1.415 . S
C335 H325 0.930 . S
C335 C333 1.419 . S
C335 C336 1.362 . S
C336 H326 0.930 . S
C336 C329 1.409 . S
C336 C335 1.362 . S
H337 C343 0.930 . S
H338 C346 0.930 . S
H339 C347 0.930 1_554 S
H340 C348 0.930 . S
H341 C351 0.930 . S
H342 C352 0.930 . S
C343 H337 0.930 . S
C343 C344 1.355 . S
C343 C345 1.415 . S
C344 C343 1.355 . S
C344 C346 1.419 1_556 S
C345 C343 1.415 . S
C345 C350 1.425 . S
C345 C352 1.409 . S
C346 H338 0.930 . S
C346 C344 1.419 1_554 S
C346 C347 1.362 1_554 S
C347 H339 0.930 1_556 S
C347 C346 1.362 1_556 S
C347 C350 1.409 . S
C348 H340 0.930 . S
C348 C349 1.355 . S
C348 C350 1.415 . S
C349 C348 1.355 . S
C349 C351 1.419 . S
C350 C345 1.425 . S
C350 C347 1.409 . S
C350 C348 1.415 . S
C351 H341 0.930 . S
C351 C349 1.419 . S
C351 C352 1.362 . S
C352 H342 0.930 . S
C352 C345 1.409 . S
C352 C351 1.362 . S
H353 C359 0.930 . S
H354 C362 0.930 . S
H355 C363 0.930 . S
H356 C364 0.930 . S
H357 C367 0.930 . S
H358 C368 0.930 . S
C359 H353 0.930 . S
C359 C360 1.355 1_655 S
C359 C361 1.415 . S
C360 C359 1.355 1_455 S
C360 C362 1.419 . S
C361 C359 1.415 . S
C361 C366 1.425 1_655 S
C361 C368 1.409 . S
C362 H354 0.930 . S
C362 C360 1.419 . S
C362 C363 1.362 . S
C363 H355 0.930 . S
C363 C362 1.362 . S
C363 C366 1.409 . S
C364 H356 0.930 . S
C364 C365 1.355 . S
C364 C366 1.415 . S
C365 C364 1.355 . S
C365 C367 1.419 1_455 S
C366 C361 1.425 1_455 S
C366 C363 1.409 . S
C366 C364 1.415 . S
C367 H357 0.930 . S
C367 C365 1.419 1_655 S
C367 C368 1.362 . S
C368 H358 0.930 . S
C368 C361 1.409 . S
C368 C367 1.362 . S
H369 C375 0.930 . S
H370 C378 0.930 . S
H371 C379 0.931 1_565 S
H372 C380 0.930 . S
H373 C383 0.930 . S
H374 C384 0.930 . S
C375 H369 0.930 . S
C375 C376 1.355 . S
C375 C377 1.415 . S
C376 C375 1.355 . S
C376 C378 1.419 . S
C377 C375 1.415 . S
C377 C382 1.425 . S
C377 C384 1.409 . S
C378 H370 0.930 . S
C378 C376 1.419 . S
C378 C379 1.362 . S
C379 H371 0.931 1_545 S
C379 C378 1.362 . S
C379 C382 1.409 . S
C380 H372 0.930 . S
C380 C381 1.365 1_565 S
C380 C382 1.404 1_565 S
C381 C380 1.365 1_545 S
C381 C383 1.419 . S
C382 C377 1.425 . S
C382 C379 1.409 . S
C382 C380 1.404 1_545 S
C383 H373 0.930 . S
C383 C381 1.419 . S
C383 C384 1.362 . S
C384 H374 0.930 . S
C384 C377 1.409 . S
C384 C383 1.362 . S
H385 C391 0.930 1_554 S
H386 C394 0.930 . S
H387 C395 0.930 . S
H388 C396 0.930 . S
H389 C399 0.930 . S
H390 C400 0.930 . S
C391 H385 0.930 1_556 S
C391 C392 1.355 . S
C391 C393 1.415 . S
C392 C391 1.355 . S
C392 C394 1.419 . S
C393 C391 1.415 . S
C393 C398 1.425 . S
C393 C400 1.409 . S
C394 H386 0.930 . S
C394 C392 1.419 . S
C394 C395 1.362 . S
C395 H387 0.930 . S
C395 C394 1.362 . S
C395 C398 1.409 . S
C396 H388 0.930 . S
C396 C397 1.355 . S
C396 C398 1.415 . S
C397 C396 1.355 . S
C397 C399 1.419 . S
C398 C393 1.425 . S
C398 C395 1.409 . S
C398 C396 1.415 . S
C399 H389 0.930 . S
C399 C397 1.419 . S
C399 C400 1.362 . S
C400 H390 0.930 . S
C400 C393 1.409 . S
C400 C399 1.362 . S
H401 C407 0.930 . S
H402 C410 0.930 . S
H403 C411 0.930 . S
H404 C412 0.929 . S
H405 C415 0.930 . S
H406 C416 0.930 . S
C407 H401 0.930 . S
C407 C408 1.355 1_455 S
C407 C409 1.415 . S
C408 C407 1.355 1_655 S
C408 C410 1.419 . S
C409 C407 1.415 . S
C409 C414 1.425 1_455 S
C409 C416 1.409 . S
C410 H402 0.930 . S
C410 C408 1.419 . S
C410 C411 1.362 . S
C411 H403 0.930 . S
C411 C410 1.362 . S
C411 C414 1.409 . S
C412 H404 0.929 . S
C412 C413 1.358 1_655 S
C412 C414 1.412 . S
C413 C412 1.358 1_455 S
C413 C415 1.419 . S
C414 C409 1.425 1_655 S
C414 C411 1.409 . S
C414 C412 1.412 . S
C415 H405 0.930 . S
C415 C413 1.419 . S
C415 C416 1.362 . S
C416 H406 0.930 . S
C416 C409 1.409 . S
C416 C415 1.362 . S
C237 C92 1.409 . S
C232 C10 1.406 . S
C248 C17 1.405 . S
C253 C136 1.414 . S
C264 C36 1.406 . S
C269 C198 1.404 . S
C280 C5 1.408 1_455 S
C285 C74 1.373 1_655 S
C301 C154 1.403 . S
C296 C16 1.414 . S
C312 C31 1.405 . S
C317 C216 1.395 . S
C333 C130 1.641 1_565 S
C328 C30 1.739 1_545 S
C344 C3 1.718 1_556 S
C349 C192 1.573 . S
C365 C68 1.572 1_455 S
C360 C18 1.732 . S
C381 C148 1.657 . S
C376 C29 1.746 . S
C397 C210 1.656 . S
C392 C4 1.722 1_556 S
C408 C23 1.745 . S
C413 C86 1.656 1_455 S
