# Generated by pormake.
# Topology eea, (3,6)-cn, num edge types: 1
# Building blocks:
#     Node 0, Type 0, BuildingBlock: BETDIP_clean_linker_0, # of connection points: 3
#     Node 1, Type 0, BuildingBlock: BETDIP_clean_linker_0, # of connection points: 3
#     Node 2, Type 0, BuildingBlock: BETDIP_clean_linker_0, # of connection points: 3
#     Node 3, Type 0, BuildingBlock: BETDIP_clean_linker_0, # of connection points: 3
#     Node 4, Type 0, BuildingBlock: BETDIP_clean_linker_0, # of connection points: 3
#     Node 5, Type 0, BuildingBlock: BETDIP_clean_linker_0, # of connection points: 3
#     Node 6, Type 0, BuildingBlock: BETDIP_clean_linker_0, # of connection points: 3
#     Node 7, Type 0, BuildingBlock: BETDIP_clean_linker_0, # of connection points: 3
#     Node 8, Type 0, BuildingBlock: BETDIP_clean_linker_0, # of connection points: 3
#     Node 9, Type 0, BuildingBlock: BETDIP_clean_linker_0, # of connection points: 3
#     Node 10, Type 0, BuildingBlock: BETDIP_clean_linker_0, # of connection points: 3
#     Node 11, Type 0, BuildingBlock: BETDIP_clean_linker_0, # of connection points: 3
#     Node 12, Type 0, BuildingBlock: BETDIP_clean_linker_0, # of connection points: 3
#     Node 13, Type 0, BuildingBlock: BETDIP_clean_linker_0, # of connection points: 3
#     Node 14, Type 0, BuildingBlock: BETDIP_clean_linker_0, # of connection points: 3
#     Node 15, Type 0, BuildingBlock: BETDIP_clean_linker_0, # of connection points: 3
#     Node 16, Type 0, BuildingBlock: BETDIP_clean_linker_0, # of connection points: 3
#     Node 17, Type 0, BuildingBlock: BETDIP_clean_linker_0, # of connection points: 3
#     Node 18, Type 1, BuildingBlock: KUMBOL_clean_sbu_0, # of connection points: 6
#     Node 19, Type 1, BuildingBlock: KUMBOL_clean_sbu_0, # of connection points: 6
#     Node 20, Type 1, BuildingBlock: KUMBOL_clean_sbu_0, # of connection points: 6
#     Node 21, Type 1, BuildingBlock: KUMBOL_clean_sbu_0, # of connection points: 6
#     Node 22, Type 1, BuildingBlock: KUMBOL_clean_sbu_0, # of connection points: 6
#     Node 23, Type 1, BuildingBlock: KUMBOL_clean_sbu_0, # of connection points: 6
#     Node 24, Type 1, BuildingBlock: KUMBOL_clean_sbu_0, # of connection points: 6
#     Node 25, Type 1, BuildingBlock: KUMBOL_clean_sbu_0, # of connection points: 6
#     Node 26, Type 1, BuildingBlock: KUMBOL_clean_sbu_0, # of connection points: 6
#     Edge 27, Type (0, 1), BuildingBlock: KIFKEQ_clean_linker_1, # of connection points: 2
#     Edge 28, Type (0, 1), BuildingBlock: KIFKEQ_clean_linker_1, # of connection points: 2
#     Edge 29, Type (0, 1), BuildingBlock: KIFKEQ_clean_linker_1, # of connection points: 2
#     Edge 30, Type (0, 1), BuildingBlock: KIFKEQ_clean_linker_1, # of connection points: 2
#     Edge 31, Type (0, 1), BuildingBlock: KIFKEQ_clean_linker_1, # of connection points: 2
#     Edge 32, Type (0, 1), BuildingBlock: KIFKEQ_clean_linker_1, # of connection points: 2
#     Edge 33, Type (0, 1), BuildingBlock: KIFKEQ_clean_linker_1, # of connection points: 2
#     Edge 34, Type (0, 1), BuildingBlock: KIFKEQ_clean_linker_1, # of connection points: 2
#     Edge 35, Type (0, 1), BuildingBlock: KIFKEQ_clean_linker_1, # of connection points: 2
#     Edge 36, Type (0, 1), BuildingBlock: KIFKEQ_clean_linker_1, # of connection points: 2
#     Edge 37, Type (0, 1), BuildingBlock: KIFKEQ_clean_linker_1, # of connection points: 2
#     Edge 38, Type (0, 1), BuildingBlock: KIFKEQ_clean_linker_1, # of connection points: 2
#     Edge 39, Type (0, 1), BuildingBlock: KIFKEQ_clean_linker_1, # of connection points: 2
#     Edge 40, Type (0, 1), BuildingBlock: KIFKEQ_clean_linker_1, # of connection points: 2
#     Edge 41, Type (0, 1), BuildingBlock: KIFKEQ_clean_linker_1, # of connection points: 2
#     Edge 42, Type (0, 1), BuildingBlock: KIFKEQ_clean_linker_1, # of connection points: 2
#     Edge 43, Type (0, 1), BuildingBlock: KIFKEQ_clean_linker_1, # of connection points: 2
#     Edge 44, Type (0, 1), BuildingBlock: KIFKEQ_clean_linker_1, # of connection points: 2
#     Edge 45, Type (0, 1), BuildingBlock: KIFKEQ_clean_linker_1, # of connection points: 2
#     Edge 46, Type (0, 1), BuildingBlock: KIFKEQ_clean_linker_1, # of connection points: 2
#     Edge 47, Type (0, 1), BuildingBlock: KIFKEQ_clean_linker_1, # of connection points: 2
#     Edge 48, Type (0, 1), BuildingBlock: KIFKEQ_clean_linker_1, # of connection points: 2
#     Edge 49, Type (0, 1), BuildingBlock: KIFKEQ_clean_linker_1, # of connection points: 2
#     Edge 50, Type (0, 1), BuildingBlock: KIFKEQ_clean_linker_1, # of connection points: 2
#     Edge 51, Type (0, 1), BuildingBlock: KIFKEQ_clean_linker_1, # of connection points: 2
#     Edge 52, Type (0, 1), BuildingBlock: KIFKEQ_clean_linker_1, # of connection points: 2
#     Edge 53, Type (0, 1), BuildingBlock: KIFKEQ_clean_linker_1, # of connection points: 2
#     Edge 54, Type (0, 1), BuildingBlock: KIFKEQ_clean_linker_1, # of connection points: 2
#     Edge 55, Type (0, 1), BuildingBlock: KIFKEQ_clean_linker_1, # of connection points: 2
#     Edge 56, Type (0, 1), BuildingBlock: KIFKEQ_clean_linker_1, # of connection points: 2
#     Edge 57, Type (0, 1), BuildingBlock: KIFKEQ_clean_linker_1, # of connection points: 2
#     Edge 58, Type (0, 1), BuildingBlock: KIFKEQ_clean_linker_1, # of connection points: 2
#     Edge 59, Type (0, 1), BuildingBlock: KIFKEQ_clean_linker_1, # of connection points: 2
#     Edge 60, Type (0, 1), BuildingBlock: KIFKEQ_clean_linker_1, # of connection points: 2
#     Edge 61, Type (0, 1), BuildingBlock: KIFKEQ_clean_linker_1, # of connection points: 2
#     Edge 62, Type (0, 1), BuildingBlock: KIFKEQ_clean_linker_1, # of connection points: 2
#     Edge 63, Type (0, 1), BuildingBlock: KIFKEQ_clean_linker_1, # of connection points: 2
#     Edge 64, Type (0, 1), BuildingBlock: KIFKEQ_clean_linker_1, # of connection points: 2
#     Edge 65, Type (0, 1), BuildingBlock: KIFKEQ_clean_linker_1, # of connection points: 2
#     Edge 66, Type (0, 1), BuildingBlock: KIFKEQ_clean_linker_1, # of connection points: 2
#     Edge 67, Type (0, 1), BuildingBlock: KIFKEQ_clean_linker_1, # of connection points: 2
#     Edge 68, Type (0, 1), BuildingBlock: KIFKEQ_clean_linker_1, # of connection points: 2
#     Edge 69, Type (0, 1), BuildingBlock: KIFKEQ_clean_linker_1, # of connection points: 2
#     Edge 70, Type (0, 1), BuildingBlock: KIFKEQ_clean_linker_1, # of connection points: 2
#     Edge 71, Type (0, 1), BuildingBlock: KIFKEQ_clean_linker_1, # of connection points: 2
#     Edge 72, Type (0, 1), BuildingBlock: KIFKEQ_clean_linker_1, # of connection points: 2
#     Edge 73, Type (0, 1), BuildingBlock: KIFKEQ_clean_linker_1, # of connection points: 2
#     Edge 74, Type (0, 1), BuildingBlock: KIFKEQ_clean_linker_1, # of connection points: 2
#     Edge 75, Type (0, 1), BuildingBlock: KIFKEQ_clean_linker_1, # of connection points: 2
#     Edge 76, Type (0, 1), BuildingBlock: KIFKEQ_clean_linker_1, # of connection points: 2
#     Edge 77, Type (0, 1), BuildingBlock: KIFKEQ_clean_linker_1, # of connection points: 2
#     Edge 78, Type (0, 1), BuildingBlock: KIFKEQ_clean_linker_1, # of connection points: 2
#     Edge 79, Type (0, 1), BuildingBlock: KIFKEQ_clean_linker_1, # of connection points: 2
#     Edge 80, Type (0, 1), BuildingBlock: KIFKEQ_clean_linker_1, # of connection points: 2
# Relax obj value: 0.025
# Max RMSD: 0.165
# Mean RMSD: 0.120
data_MOF--net-eea--node1-KUMBOL_clean_sbu_0--node2-BETDIP_clean_linker_0--edge1-KIFKEQ_clean_linker_1
_symmetry_space_group_name_H-M    P1
_symmetry_Int_Tables_number       1
_symmetry_cell_setting            triclinic
loop_
_symmetry_equiv_pos_as_xyz
'x, y, z'
_cell_length_a     54.90503
_cell_length_b     56.660342
_cell_length_c     67.488412
_cell_angle_alpha  89.905206
_cell_angle_beta   89.703779
_cell_angle_gamma 119.96721
loop_
_atom_site_label
_atom_site_type_symbol
_atom_site_fract_x
_atom_site_fract_y
_atom_site_fract_z
_atom_type_partial_charge
H0 H 0.21695 0.09007 0.39122 0.0
H1 H 0.25421 0.14572 0.43981 0.0
H2 H 0.26683 0.07721 0.43425 0.0
H3 H 0.21736 0.15228 0.43475 0.0
C4 C 0.21676 0.153 0.41868 0.0
C5 C 0.22951 0.09617 0.40455 0.0
C6 C 0.24166 0.08095 0.41138 0.0
C7 C 0.23349 0.11932 0.41484 0.0
C8 C 0.25007 0.1274 0.43204 0.0
C9 C 0.26228 0.11238 0.43904 0.0
C10 C 0.25806 0.08928 0.42859 0.0
N11 N 0.22149 0.13462 0.40718 0.0
H12 H 0.9376 0.1231 0.38696 0.0
H13 H 0.88257 0.10019 0.43768 0.0
H14 H 0.95107 0.18244 0.43151 0.0
H15 H 0.87599 0.05891 0.43097 0.0
C16 C 0.87426 0.05818 0.41494 0.0
C17 C 0.93152 0.12834 0.40086 0.0
C18 C 0.94713 0.15493 0.40825 0.0
C19 C 0.90828 0.10835 0.41146 0.0
C20 C 0.90056 0.1154 0.42949 0.0
C21 C 0.9158 0.14203 0.43704 0.0
C22 C 0.93913 0.16169 0.42618 0.0
N23 N 0.89247 0.08163 0.40343 0.0
H24 H 0.8967 0.805 0.38352 0.0
H25 H 0.923 0.77843 0.4349 0.0
H26 H 0.84215 0.77337 0.43442 0.0
H27 H 0.96692 0.81946 0.42318 0.0
C28 C 0.96527 0.81148 0.4083 0.0
C29 C 0.8926 0.79655 0.39838 0.0
C30 C 0.86717 0.78997 0.40799 0.0
C31 C 0.91326 0.79324 0.40822 0.0
C32 C 0.90769 0.78207 0.42753 0.0
C33 C 0.88177 0.77421 0.43691 0.0
C34 C 0.86193 0.77875 0.42713 0.0
N35 N 0.93906 0.80038 0.39829 0.0
H36 H 0.09899 0.20709 0.6502 0.0
H37 H 0.15239 0.23132 0.5984 0.0
H38 H 0.0791 0.24027 0.59941 0.0
H39 H 0.15135 0.18886 0.61027 0.0
C40 C 0.15908 0.19773 0.62476 0.0
C41 C 0.10385 0.21543 0.63531 0.0
C42 C 0.0859 0.22291 0.62582 0.0
C43 C 0.12751 0.21771 0.62531 0.0
C44 C 0.13366 0.22855 0.60594 0.0
C45 C 0.11664 0.23726 0.59668 0.0
C46 C 0.09261 0.23404 0.60662 0.0
N47 N 0.14541 0.20988 0.63504 0.0
H48 H 0.82092 0.89604 0.64085 0.0
H49 H 0.78731 0.91877 0.59161 0.0
H50 H 0.77018 0.83653 0.59705 0.0
H51 H 0.82497 0.96028 0.5976 0.0
C52 C 0.82432 0.96096 0.61367 0.0
C53 C 0.80883 0.89067 0.6273 0.0
C54 C 0.79592 0.86375 0.62024 0.0
C55 C 0.8062 0.91079 0.61701 0.0
C56 C 0.79033 0.90379 0.59951 0.0
C57 C 0.77723 0.87704 0.59238 0.0
C58 C 0.77989 0.85708 0.60285 0.0
N59 N 0.81862 0.93754 0.62499 0.0
H60 H 0.12517 0.91937 0.64571 0.0
H61 H 0.10431 0.86657 0.59516 0.0
H62 H 0.18641 0.93713 0.59966 0.0
H63 H 0.06078 0.85385 0.60366 0.0
C64 C 0.06053 0.85392 0.61974 0.0
C65 C 0.13096 0.91438 0.63161 0.0
C66 C 0.15813 0.93107 0.6238 0.0
C67 C 0.11126 0.89104 0.62143 0.0
C68 C 0.11904 0.88456 0.60314 0.0
C69 C 0.14599 0.90127 0.59497 0.0
C70 C 0.16542 0.92427 0.60559 0.0
N71 N 0.08428 0.87403 0.63024 0.0
H72 H 0.88321 0.42727 0.72545 0.0
H73 H 0.92077 0.4819 0.77458 0.0
H74 H 0.93274 0.41311 0.76796 0.0
H75 H 0.88511 0.49002 0.76941 0.0
C76 C 0.88404 0.49042 0.75335 0.0
C77 C 0.89574 0.43302 0.7388 0.0
C78 C 0.90772 0.41753 0.74534 0.0
C79 C 0.89992 0.45605 0.74936 0.0
C80 C 0.91649 0.4637 0.76659 0.0
C81 C 0.92853 0.44837 0.77329 0.0
C82 C 0.92409 0.42541 0.76255 0.0
N83 N 0.88819 0.47169 0.74186 0.0
H84 H 0.60069 0.46764 0.7153 0.0
H85 H 0.54592 0.43695 0.76595 0.0
H86 H 0.62149 0.51532 0.76858 0.0
H87 H 0.55301 0.39778 0.7534 0.0
C88 C 0.5437 0.39878 0.73946 0.0
C89 C 0.59567 0.47027 0.73039 0.0
C90 C 0.61385 0.49403 0.74087 0.0
C91 C 0.57182 0.44921 0.73976 0.0
C92 C 0.5652 0.45274 0.75926 0.0
C93 C 0.58266 0.47669 0.76981 0.0
C94 C 0.60731 0.49702 0.76055 0.0
N95 N 0.55466 0.42436 0.72963 0.0
H96 H 0.56784 0.14624 0.71859 0.0
H97 H 0.58945 0.11451 0.76946 0.0
H98 H 0.50848 0.10862 0.76628 0.0
H99 H 0.63276 0.14378 0.76068 0.0
C100 C 0.63303 0.14366 0.7446 0.0
C101 C 0.56249 0.13626 0.73295 0.0
C102 C 0.53599 0.12814 0.74148 0.0
C103 C 0.58227 0.13185 0.74303 0.0
C104 C 0.57482 0.11857 0.76166 0.0
C105 C 0.54837 0.11031 0.77039 0.0
C106 C 0.52915 0.11523 0.76006 0.0
N107 N 0.60906 0.14027 0.73398 0.0
H108 H 0.76447 0.53221 0.98111 0.0
H109 H 0.82015 0.564 0.9307 0.0
H110 H 0.75035 0.57798 0.93631 0.0
H111 H 0.82775 0.5299 0.93758 0.0
C112 C 0.82973 0.53099 0.95361 0.0
C113 C 0.77049 0.54337 0.96722 0.0
C114 C 0.75448 0.55449 0.9597 0.0
C115 C 0.79433 0.54667 0.95685 0.0
C116 C 0.80187 0.56124 0.93877 0.0
C117 C 0.78607 0.57243 0.93096 0.0
C118 C 0.76256 0.56913 0.94177 0.0
N119 N 0.81097 0.53612 0.96511 0.0
H120 H 0.48855 0.22661 0.97267 0.0
H121 H 0.45599 0.25246 0.92486 0.0
H122 H 0.43471 0.1686 0.92932 0.0
H123 H 0.49515 0.29293 0.93085 0.0
C124 C 0.49432 0.29319 0.94694 0.0
C125 C 0.4761 0.22187 0.95932 0.0
C126 C 0.46221 0.19514 0.95195 0.0
C127 C 0.47407 0.24264 0.9496 0.0
C128 C 0.45769 0.23651 0.93239 0.0
C129 C 0.44331 0.20984 0.92488 0.0
C130 C 0.44564 0.18927 0.93488 0.0
N131 N 0.48769 0.26924 0.95789 0.0
H132 H 0.7941 0.24941 0.98222 0.0
H133 H 0.76797 0.19978 0.9299 0.0
H134 H 0.85117 0.26982 0.93299 0.0
H135 H 0.72429 0.19674 0.94168 0.0
C136 C 0.72603 0.19055 0.95662 0.0
C137 C 0.79863 0.24526 0.96739 0.0
C138 C 0.82491 0.26255 0.95861 0.0
C139 C 0.77802 0.22265 0.95712 0.0
C140 C 0.78386 0.21726 0.93783 0.0
C141 C 0.81024 0.2342 0.92887 0.0
C142 C 0.83065 0.25668 0.93953 0.0
N143 N 0.75201 0.20506 0.96677 0.0
H144 H 0.55584 0.76105 0.0543 0.0
H145 H 0.59332 0.8163 0.10303 0.0
H146 H 0.59954 0.74379 0.09976 0.0
H147 H 0.60353 0.8466 0.07548 0.0
C148 C 0.58217 0.83738 0.06991 0.0
C149 C 0.56746 0.7664 0.06806 0.0
C150 C 0.57715 0.74958 0.07582 0.0
C151 C 0.574 0.79092 0.07744 0.0
C152 C 0.58887 0.79778 0.0954 0.0
C153 C 0.59819 0.78088 0.1035 0.0
C154 C 0.59255 0.75702 0.09349 0.0
N155 N 0.56574 0.80855 0.06852 0.0
H156 H 0.26815 0.79535 0.05007 0.0
H157 H 0.21537 0.76767 0.1021 0.0
H158 H 0.28753 0.8483 0.10034 0.0
H159 H 0.21754 0.72678 0.0908 0.0
C160 C 0.20995 0.72778 0.07614 0.0
C161 C 0.26327 0.79907 0.06491 0.0
C162 C 0.28084 0.82409 0.07416 0.0
C163 C 0.2401 0.77835 0.07514 0.0
C164 C 0.23384 0.78323 0.09442 0.0
C165 C 0.2505 0.80862 0.10344 0.0
C166 C 0.27422 0.82882 0.09332 0.0
N167 N 0.22291 0.75298 0.06567 0.0
H168 H 0.23544 0.47757 0.05289 0.0
H169 H 0.25717 0.44533 0.10341 0.0
H170 H 0.17489 0.43631 0.09936 0.0
H171 H 0.30047 0.47599 0.09516 0.0
C172 C 0.30094 0.47578 0.07909 0.0
C173 C 0.22994 0.46703 0.06703 0.0
C174 C 0.20293 0.45757 0.07514 0.0
C175 C 0.24989 0.46289 0.07713 0.0
C176 C 0.2423 0.44899 0.09553 0.0
C177 C 0.21545 0.43963 0.10393 0.0
C178 C 0.19589 0.44384 0.09341 0.0
N179 N 0.27697 0.47206 0.0683 0.0
H180 H 0.43375 0.87455 0.3159 0.0
H181 H 0.48615 0.89735 0.26359 0.0
H182 H 0.41217 0.90427 0.26367 0.0
H183 H 0.51941 0.91284 0.28787 0.0
C184 C 0.51117 0.89465 0.29707 0.0
C185 C 0.43778 0.88171 0.3007 0.0
C186 C 0.41951 0.88888 0.2911 0.0
C187 C 0.46228 0.88525 0.29107 0.0
C188 C 0.46771 0.89489 0.27136 0.0
C189 C 0.45004 0.90235 0.2617 0.0
C190 C 0.42596 0.89898 0.27152 0.0
N191 N 0.48177 0.88002 0.30148 0.0
H192 H 0.14217 0.5519 0.31023 0.0
H193 H 0.10025 0.57425 0.267 0.0
H194 H 0.10031 0.49894 0.26075 0.0
H195 H 0.08914 0.58882 0.29803 0.0
C196 C 0.11112 0.60101 0.30214 0.0
C197 C 0.12986 0.54713 0.29682 0.0
C198 C 0.12223 0.52285 0.28646 0.0
C199 C 0.12128 0.56525 0.29021 0.0
C200 C 0.10596 0.55974 0.27258 0.0
C201 C 0.09885 0.53613 0.26171 0.0
C202 C 0.10684 0.51769 0.26878 0.0
N203 N 0.12869 0.58925 0.3012 0.0
H204 H 0.45983 0.58081 0.31426 0.0
H205 H 0.43403 0.52991 0.26254 0.0
H206 H 0.51631 0.60134 0.26467 0.0
H207 H 0.39013 0.52647 0.27434 0.0
C208 C 0.3921 0.52059 0.28933 0.0
C209 C 0.46432 0.57645 0.29948 0.0
C210 C 0.49033 0.59399 0.29044 0.0
C211 C 0.44392 0.55335 0.28951 0.0
C212 C 0.44972 0.54776 0.27026 0.0
C213 C 0.4758 0.56503 0.26106 0.0
C214 C 0.49601 0.58794 0.27143 0.0
N215 N 0.41813 0.53556 0.29935 0.0
Gd216 Gd 0.51481 0.02213 0.04115 0.0
Gd217 Gd 0.49401 0.99072 0.99126 0.0
C218 C 0.40936 0.91347 0.98173 0.0
C219 C 0.42358 0.88033 0.97348 0.0
C220 C 0.45878 0.92741 0.98003 0.0
C221 C 0.43788 0.93364 0.98365 0.0
C222 C 0.45194 0.90087 0.9744 0.0
C223 C 0.40231 0.88662 0.97716 0.0
C224 C 0.38888 0.92112 0.98374 0.0
C225 C 0.39714 0.94847 0.98673 0.0
N226 N 0.44552 0.95987 0.98773 0.0
C227 C 0.42572 0.96774 0.98841 0.0
H228 H 0.43169 0.98874 0.99082 0.0
C229 C 0.50719 0.94359 0.97478 0.0
N230 N 0.48586 0.94782 0.98081 0.0
C231 C 0.50151 0.91759 0.96914 0.0
C232 C 0.47378 0.89603 0.96922 0.0
H233 H 0.52867 0.96018 0.9749 0.0
H234 H 0.38052 0.87078 0.97584 0.0
H235 H 0.57845 0.02721 0.04132 0.0
H236 H 0.36673 0.90624 0.98244 0.0
H237 H 0.38151 0.95473 0.98785 0.0
H238 H 0.41788 0.85973 0.96938 0.0
H239 H 0.47729 0.05032 0.05686 0.0
H240 H 0.64056 0.11071 0.05025 0.0
H241 H 0.62811 0.06289 0.04441 0.0
H242 H 0.58556 0.15331 0.06331 0.0
H243 H 0.51851 0.91418 0.96482 0.0
H244 H 0.46941 0.87592 0.96479 0.0
H245 H 0.62447 0.14442 0.05707 0.0
H246 H 0.48524 0.09558 0.06679 0.0
N247 N 0.56275 0.05455 0.04484 0.0
C248 C 0.61868 0.09511 0.0489 0.0
C249 C 0.61173 0.06813 0.04567 0.0
C250 C 0.59724 0.10146 0.05103 0.0
C251 C 0.5691 0.0804 0.04903 0.0
C252 C 0.58348 0.04793 0.04394 0.0
N253 N 0.52059 0.06429 0.0514 0.0
C254 C 0.54731 0.08545 0.05246 0.0
C255 C 0.50288 0.09304 0.06271 0.0
C256 C 0.53019 0.11532 0.06295 0.0
C257 C 0.49845 0.06743 0.05711 0.0
C258 C 0.55288 0.11162 0.05808 0.0
H259 H 0.53358 0.13512 0.06734 0.0
O260 O 0.4911 0.0083 0.06869 0.0
O261 O 0.48254 0.98863 0.02298 0.0
O262 O 0.48011 0.02195 0.99726 0.0
O263 O 0.50999 0.05148 0.02148 0.0
O264 O 0.4678 0.00497 0.04382 0.0
O265 O 0.53088 0.00935 0.06587 0.0
O266 O 0.51496 0.99975 0.96248 0.0
O267 O 0.52648 0.02362 0.00951 0.0
O268 O 0.52983 0.99197 0.03506 0.0
O269 O 0.5005 0.96196 0.01081 0.0
O270 O 0.54108 0.00806 0.98808 0.0
O271 O 0.48152 0.0087 0.96787 0.0
C272 C 0.46046 0.98649 0.03045 0.0
C273 C 0.58084 0.13298 0.05922 0.0
C274 C 0.60299 0.12792 0.05566 0.0
C275 C 0.51011 0.00494 0.07766 0.0
C276 C 0.51753 0.01633 0.09775 0.0
C277 C 0.53206 0.04458 0.10053 0.0
C278 C 0.5091 0.99885 0.11435 0.0
C279 C 0.51473 0.00953 0.13377 0.0
C280 C 0.53766 0.05535 0.11959 0.0
C281 C 0.52891 0.03807 0.13607 0.0
C282 C 0.49236 0.04575 0.00658 0.0
C283 C 0.54858 0.02616 1.00175 0.0
C284 C 0.49889 0.00821 0.95485 0.0
C285 C 0.48709 0.99755 0.93518 0.0
C286 C 0.46451 0.97092 0.93317 0.0
C287 C 0.49777 0.01444 0.91833 0.0
C288 C 0.48552 0.00494 0.89961 0.0
C289 C 0.45247 0.96133 0.91465 0.0
C290 C 0.46275 0.97823 0.89798 0.0
C291 C 0.51842 0.96829 0.02565 0.0
H292 H 0.53884 0.05832 0.08801 0.0
H293 H 0.49828 0.97703 0.11204 0.0
H294 H 0.54857 0.07721 0.12161 0.0
H295 H 0.53293 0.04721 0.15062 0.0
H296 H 0.45602 0.95765 0.94591 0.0
H297 H 0.51511 0.03511 0.91986 0.0
H298 H 0.43499 0.94077 0.91322 0.0
H299 H 0.45306 0.97034 0.88376 0.0
Gd300 Gd 0.99928 0.49492 0.04076 0.0
Gd301 Gd 0.03443 0.49858 0.99301 0.0
C302 C 0.11299 0.4905 0.9887 0.0
C303 C 0.14875 0.53628 0.97897 0.0
C304 C 0.10025 0.52526 0.98368 0.0
C305 C 0.09273 0.49888 0.98887 0.0
C306 C 0.12823 0.54415 0.97831 0.0
C307 C 0.14114 0.50949 0.98415 0.0
C308 C 0.10423 0.46315 0.99268 0.0
C309 C 0.07578 0.44479 0.99609 0.0
N310 N 0.06533 0.48105 0.99313 0.0
C311 C 0.05646 0.45406 0.99602 0.0
H312 H 0.03459 0.4396 0.99875 0.0
C313 C 0.0856 0.55694 0.9758 0.0
N314 N 0.07987 0.5321 0.98301 0.0
C315 C 0.11309 0.57647 0.97049 0.0
C316 C 0.13457 0.57016 0.97196 0.0
H317 H 0.06904 0.56191 0.97474 0.0
H318 H 0.15705 0.50351 0.98417 0.0
H319 H 0.99713 0.55262 0.03376 0.0
H320 H 0.11915 0.45592 0.99278 0.0
H321 H 0.06871 0.42351 0.99886 0.0
H322 H 0.17041 0.55057 0.97507 0.0
H323 H 0.96709 0.43295 0.0613 0.0
H324 H 0.91208 0.53455 0.04073 0.0
H325 H 0.96204 0.56755 0.03348 0.0
H326 H 0.86389 0.44119 0.06188 0.0
H327 H 0.11768 0.59635 0.96525 0.0
H328 H 0.15583 0.58528 0.96774 0.0
H329 H 0.87548 0.48719 0.05106 0.0
H330 H 0.9195 0.39857 0.0728 0.0
N331 N 0.96735 0.51123 0.04044 0.0
C332 C 0.92741 0.52783 0.04084 0.0
C333 C 0.9556 0.54653 0.03679 0.0
C334 C 0.91952 0.50089 0.0456 0.0
C335 C 0.94029 0.49318 0.04542 0.0
C336 C 0.97546 0.53793 0.03696 0.0
N337 N 0.95469 0.46131 0.05212 0.0
C338 C 0.93377 0.46739 0.0515 0.0
C339 C 0.92319 0.41779 0.06675 0.0
C340 C 0.90109 0.42324 0.06532 0.0
C341 C 0.9501 0.4373 0.06027 0.0
C342 C 0.9063 0.44844 0.0579 0.0
H343 H 0.88027 0.40812 0.07039 0.0
O344 O 1.00803 0.48821 0.07098 0.0
O345 O 0.03429 0.49342 0.02549 0.0
O346 O 1.00097 0.4551 1.00115 0.0
O347 O 0.96949 0.45811 0.02298 0.0
O348 O 0.01635 0.46692 0.04882 0.0
O349 O 0.01481 0.52785 0.06199 0.0
O350 O 0.02709 0.50723 0.96295 0.0
O351 O 0.999 0.49967 0.00813 0.0
O352 O 0.03218 0.53848 0.03201 0.0
O353 O 0.06414 0.53416 0.01167 0.0
O354 O 0.01808 0.52717 0.98541 0.0
O355 O 0.01931 0.46685 0.9708 0.0
C356 C 0.03596 0.47558 0.03559 0.0
C357 C 0.8852 0.45555 0.05721 0.0
C358 C 0.89179 0.48173 0.05105 0.0
C359 C 0.01423 0.51255 0.07667 0.0
C360 C 1.00086 0.51413 0.09516 0.0
C361 C 0.97583 0.51513 0.0949 0.0
C362 C 0.01349 0.51493 0.11336 0.0
C363 C 1.00147 0.51709 0.13124 0.0
C364 C 0.96365 0.517 0.11259 0.0
C365 C 0.97639 0.51808 0.13067 0.0
C366 C 0.97592 0.44465 0.00988 0.0
C367 C 0.99784 0.51791 0.99817 0.0
C368 C 0.0205 0.48306 0.95658 0.0
C369 C 0.03408 0.48215 0.938 0.0
C370 C 0.06013 0.48317 0.93806 0.0
C371 C 0.02066 0.4801 0.91993 0.0
C372 C 0.03299 0.47877 0.90194 0.0
C373 C 0.0726 0.48209 0.92027 0.0
C374 C 0.05913 0.47983 0.9023 0.0
C375 C 0.05759 0.54828 0.02401 0.0
H376 H 0.96581 0.51468 0.08109 0.0
H377 H 0.03299 0.51446 0.11355 0.0
H378 H 0.94433 0.51774 0.11227 0.0
H379 H 0.96655 0.5195 0.14422 0.0
H380 H 0.07076 0.48464 0.95178 0.0
H381 H 1.00036 0.47899 0.91993 0.0
H382 H 0.09272 0.48292 0.92042 0.0
H383 H 0.06925 0.47911 0.88868 0.0
Gd384 Gd 0.51377 0.51936 0.99123 0.0
Gd385 Gd 0.53874 0.5121 0.04039 0.0
C386 C 0.62517 0.5205 0.04936 0.0
C387 C 0.61292 0.47448 0.05893 0.0
C388 C 0.57624 0.48543 0.05207 0.0
C389 C 0.59633 0.51201 0.04776 0.0
C390 C 0.58426 0.46646 0.05811 0.0
C391 C 0.63335 0.50145 0.05455 0.0
C392 C 0.64487 0.54799 0.04615 0.0
C393 C 0.63559 0.56637 0.04214 0.0
N394 N 0.58765 0.52988 0.04294 0.0
C395 C 0.60676 0.55699 0.04085 0.0
H396 H 0.60004 0.5715 0.03767 0.0
C397 C 0.52825 0.45333 0.05758 0.0
N398 N 0.5488 0.47845 0.05127 0.0
C399 C 0.53512 0.43375 0.06359 0.0
C400 C 0.56324 0.44023 0.06364 0.0
H401 H 0.50648 0.44818 0.05745 0.0
H402 H 0.65539 0.50753 0.05566 0.0
H403 H 0.45207 0.46059 0.99401 0.0
H404 H 0.66721 0.55531 0.04715 0.0
H405 H 0.65064 0.58777 0.03997 0.0
H406 H 0.61951 0.46014 0.06337 0.0
H407 H 0.54694 0.58298 0.97356 0.0
H408 H 0.38572 0.47808 0.98473 0.0
H409 H 0.40155 0.44504 0.99188 0.0
H410 H 0.43476 0.57304 0.96779 0.0
H411 H 0.51874 0.41368 0.06816 0.0
H412 H 0.56852 0.42506 0.06836 0.0
H413 H 0.39833 0.52602 0.97595 0.0
H414 H 0.53542 0.61785 0.96244 0.0
N415 N 0.46502 0.50232 0.9888 0.0
C416 C 0.408 0.48507 0.98568 0.0
C417 C 0.41685 0.46636 0.98967 0.0
C418 C 0.42803 0.51244 0.98235 0.0
C419 C 0.45676 0.52049 0.98389 0.0
C420 C 0.4456 0.47531 0.99087 0.0
N421 N 0.50448 0.55338 0.98005 0.0
C422 C 0.47716 0.54686 0.97932 0.0
C423 C 0.51883 0.598 0.96723 0.0
C424 C 0.49087 0.59202 0.96726 0.0
C425 C 0.52528 0.57821 0.97347 0.0
C426 C 0.46957 0.56606 0.97308 0.0
H427 H 0.48592 0.60736 0.96238 0.0
O428 O 0.53344 0.52907 0.96203 0.0
O429 O 0.54832 0.5197 0.00833 0.0
O430 O 0.55098 0.55599 0.03316 0.0
O431 O 0.51874 0.55426 0.01001 0.0
O432 O 0.56044 0.54849 0.98634 0.0
O433 O 0.4992 0.48835 0.96852 0.0
O434 O 0.5185 0.50164 0.06937 0.0
O435 O 0.50402 0.51175 0.02336 0.0
O436 O 0.5014 0.47545 0.9985 0.0
O437 O 0.53414 0.47755 0.02134 0.0
O438 O 0.49234 0.48222 0.04483 0.0
O439 O 0.5526 0.5426 0.06348 0.0
C440 C 0.56953 0.53855 0.99966 0.0
C441 C 0.44102 0.55852 0.97236 0.0
C442 C 0.42028 0.53175 0.97701 0.0
C443 C 0.51629 0.50496 0.95502 0.0
C444 C 0.50401 0.50404 0.93553 0.0
C445 C 0.47895 0.5048 0.93388 0.0
C446 C 0.51716 0.50161 0.91837 0.0
C447 C 0.50503 0.49933 0.89965 0.0
C448 C 0.46698 0.50283 0.91533 0.0
C449 C 0.4798 0.49993 0.8983 0.0
C450 C 0.53753 0.56689 0.02407 0.0
C451 C 0.483 0.49231 0.03181 0.0
C452 C 0.53532 0.52561 0.07672 0.0
C453 C 0.54728 0.52607 0.09625 0.0
C454 C 0.57136 0.52361 0.09797 0.0
C455 C 0.53478 0.52957 0.11337 0.0
C456 C 0.5466 0.53117 0.13212 0.0
C457 C 0.583 0.52489 0.11654 0.0
C458 C 0.57083 0.52879 0.13353 0.0
C459 C 0.51543 0.46489 0.00723 0.0
H460 H 0.46851 0.50665 0.9469 0.0
H461 H 0.53642 0.50082 0.91963 0.0
H462 H 0.44761 0.50336 0.91416 0.0
H463 H 0.47012 0.49836 0.88405 0.0
H464 H 0.58129 0.52094 0.085 0.0
H465 H 0.5163 0.53171 0.11204 0.0
H466 H 0.60161 0.52302 0.11777 0.0
H467 H 0.58025 0.52979 0.14779 0.0
Gd468 Gd 0.18094 0.35334 0.37484 0.0
Gd469 Gd 0.16072 0.32131 0.32514 0.0
C470 C 0.07574 0.24467 0.31524 0.0
C471 C 0.08946 0.21091 0.30793 0.0
C472 C 0.12501 0.25791 0.31434 0.0
C473 C 0.10431 0.2646 0.31735 0.0
C474 C 0.1179 0.23115 0.30914 0.0
C475 C 0.0684 0.21766 0.31099 0.0
C476 C 0.05548 0.25266 0.31692 0.0
C477 C 0.06402 0.28009 0.31986 0.0
N478 N 0.11221 0.29094 0.32125 0.0
C479 C 0.09265 0.29912 0.32172 0.0
H480 H 0.09882 0.32018 0.32407 0.0
C481 C 0.17344 0.27322 0.31023 0.0
N482 N 0.15221 0.27801 0.31545 0.0
C483 C 0.16749 0.24698 0.30508 0.0
C484 C 0.1396 0.22575 0.30478 0.0
H485 H 0.19504 0.28956 0.31063 0.0
H486 H 0.04655 0.20201 0.30953 0.0
H487 H 0.24413 0.35755 0.37564 0.0
H488 H 0.0333 0.23798 0.31548 0.0
H489 H 0.04857 0.28659 0.32078 0.0
H490 H 0.08354 0.19016 0.30414 0.0
H491 H 0.14399 0.38241 0.38989 0.0
H492 H 0.307 0.44094 0.38402 0.0
H493 H 0.29397 0.39286 0.37874 0.0
H494 H 0.25293 0.48479 0.39599 0.0
H495 H 0.1844 0.24312 0.3014 0.0
H496 H 0.13502 0.20545 0.30073 0.0
H497 H 0.29148 0.47522 0.39021 0.0
H498 H 0.15248 0.428 0.39942 0.0
N499 N 0.22897 0.38538 0.37856 0.0
C500 C 0.28505 0.42551 0.38265 0.0
C501 C 0.27777 0.39839 0.37974 0.0
C502 C 0.26385 0.43225 0.38445 0.0
C503 C 0.23563 0.4114 0.38245 0.0
C504 C 0.24945 0.37841 0.378 0.0
N505 N 0.1872 0.39588 0.38454 0.0
C506 C 0.21404 0.41684 0.38558 0.0
C507 C 0.16997 0.42517 0.39546 0.0
C508 C 0.19741 0.44726 0.39563 0.0
C509 C 0.16524 0.39938 0.39008 0.0
C510 C 0.21991 0.44318 0.39095 0.0
H511 H 0.20103 0.4672 0.39985 0.0
O512 O 0.15686 0.34013 0.40228 0.0
O513 O 0.14869 0.31981 0.35669 0.0
O514 O 0.14734 0.35304 0.33027 0.0
O515 O 0.17656 0.38266 0.35472 0.0
O516 O 0.13396 0.33663 0.37713 0.0
O517 O 0.1966 0.34101 0.4001 0.0
O518 O 0.18219 0.32951 0.2966 0.0
O519 O 0.19312 0.35433 0.34337 0.0
O520 O 0.19521 0.32234 0.36956 0.0
O521 O 0.16558 0.29235 0.34544 0.0
O522 O 0.20777 0.33801 0.3226 0.0
O523 O 0.14895 0.33899 0.30111 0.0
C524 C 0.12659 0.31791 0.36393 0.0
C525 C 0.24797 0.46433 0.39208 0.0
C526 C 0.26992 0.45888 0.3888 0.0
C527 C 0.17569 0.3369 0.41163 0.0
C528 C 0.18285 0.34872 0.43163 0.0
C529 C 0.197 0.37703 0.43408 0.0
C530 C 0.17455 0.33163 0.44846 0.0
C531 C 0.17993 0.34276 0.46776 0.0
C532 C 0.20229 0.38823 0.453 0.0
C533 C 0.19366 0.37135 0.46969 0.0
C534 C 0.15954 0.37695 0.33942 0.0
C535 C 0.21525 0.35647 0.336 0.0
C536 C 0.16648 0.33805 0.28847 0.0
C537 C 0.15502 0.32707 0.26878 0.0
C538 C 0.13293 0.30019 0.2668 0.0
C539 C 0.16552 0.34388 0.25187 0.0
C540 C 0.15357 0.33402 0.23313 0.0
C541 C 0.1212 0.29025 0.24826 0.0
C542 C 0.1313 0.30705 0.23154 0.0
C543 C 0.18308 0.29837 0.36049 0.0
H544 H 0.2037 0.39048 0.42141 0.0
H545 H 0.16405 0.30977 0.44643 0.0
H546 H 0.21289 0.41013 0.45475 0.0
H547 H 0.19743 0.38083 0.4841 0.0
H548 H 0.12459 0.28699 0.27959 0.0
H549 H 0.18246 0.36474 0.25338 0.0
H550 H 0.10411 0.26949 0.24686 0.0
H551 H 0.12185 0.29888 0.2173 0.0
Gd552 Gd 0.66307 0.8241 0.37404 0.0
Gd553 Gd 0.69967 0.83317 0.32595 0.0
C554 C 0.7779 0.82444 0.32149 0.0
C555 C 0.8144 0.87076 0.31373 0.0
C556 C 0.76584 0.85985 0.31778 0.0
C557 C 0.75787 0.83309 0.32194 0.0
C558 C 0.79406 0.87888 0.31312 0.0
C559 C 0.80633 0.84357 0.31792 0.0
C560 C 0.76863 0.7967 0.32395 0.0
C561 C 0.7399 0.77828 0.32597 0.0
N562 N 0.73018 0.81514 0.32505 0.0
C563 C 0.72084 0.78785 0.32624 0.0
H564 H 0.69876 0.77334 0.32794 0.0
C565 C 0.75174 0.89206 0.31043 0.0
N566 N 0.7456 0.86685 0.31706 0.0
C567 C 0.77946 0.91172 0.30574 0.0
C568 C 0.8008 0.90522 0.30736 0.0
H569 H 0.73532 0.89722 0.30932 0.0
H570 H 0.82208 0.83738 0.31778 0.0
H571 H 0.6607 0.88217 0.37334 0.0
H572 H 0.78334 0.78923 0.32378 0.0
H573 H 0.73243 0.7567 0.32745 0.0
H574 H 0.83625 0.88514 0.31042 0.0
H575 H 0.63058 0.75961 0.39019 0.0
H576 H 0.57487 0.86223 0.37918 0.0
H577 H 0.62519 0.8966 0.375 0.0
H578 H 0.5264 0.76609 0.39189 0.0
H579 H 0.78435 0.93186 0.30094 0.0
H580 H 0.82224 0.92044 0.30366 0.0
H581 H 0.53802 0.81331 0.38512 0.0
H582 H 0.58256 0.72339 0.39924 0.0
N583 N 0.6308 0.8399 0.37593 0.0
C584 C 0.59038 0.85575 0.37844 0.0
C585 C 0.61876 0.87522 0.37615 0.0
C586 C 0.58248 0.82826 0.38049 0.0
C587 C 0.6035 0.82091 0.37932 0.0
C588 C 0.63885 0.86693 0.37521 0.0
N589 N 0.61811 0.78862 0.38312 0.0
C590 C 0.59692 0.79439 0.38306 0.0
C591 C 0.58628 0.74323 0.39461 0.0
C592 C 0.56398 0.74843 0.39364 0.0
C593 C 0.61345 0.76378 0.38951 0.0
C594 C 0.56921 0.7744 0.38814 0.0
H595 H 0.54298 0.73251 0.39766 0.0
O596 O 0.67314 0.81405 0.40274 0.0
O597 O 0.69868 0.82467 0.358 0.0
O598 O 0.66544 0.78905 0.33173 0.0
O599 O 0.63345 0.79048 0.3539 0.0
O600 O 0.67954 0.7949 0.37923 0.0
O601 O 0.67494 0.8528 0.39836 0.0
O602 O 0.69389 0.8448 0.29638 0.0
O603 O 0.66454 0.83359 0.342 0.0
O604 O 0.69649 0.86849 0.36827 0.0
O605 O 0.72864 0.86756 0.34593 0.0
O606 O 0.68441 0.86311 0.32054 0.0
O607 O 0.68363 0.80324 0.30245 0.0
C608 C 0.69986 0.80549 0.36652 0.0
C609 C 0.54789 0.78124 0.38825 0.0
C610 C 0.55451 0.80813 0.3844 0.0
C611 C 0.6767 0.8363 0.41102 0.0
C612 C 0.6626 0.83273 0.43024 0.0
C613 C 0.63341 0.82186 0.43148 0.0
C614 C 0.67838 0.83895 0.44768 0.0
C615 C 0.66501 0.8337 0.46628 0.0
C616 C 0.62005 0.8167 0.44994 0.0
C617 C 0.63571 0.82235 0.46729 0.0
C618 C 0.64006 0.77811 0.34003 0.0
C619 C 0.66429 0.85325 0.3334 0.0
C620 C 0.68621 0.82088 0.28897 0.0
C621 C 0.70007 0.82051 0.27038 0.0
C622 C 0.72685 0.82313 0.27049 0.0
C623 C 0.68611 0.81693 0.25231 0.0
C624 C 0.69864 0.81552 0.23444 0.0
C625 C 0.73949 0.822 0.25281 0.0
C626 C 0.72546 0.81809 0.23487 0.0
C627 C 0.72184 0.8797 0.35989 0.0
H628 H 0.62093 0.81715 0.41826 0.0
H629 H 0.70094 0.84725 0.44679 0.0
H630 H 0.5975 0.80815 0.45079 0.0
H631 H 0.62504 0.81817 0.4815 0.0
H632 H 0.73791 0.82585 0.28421 0.0
H633 H 0.66528 0.81463 0.25223 0.0
H634 H 0.76016 0.82402 0.25302 0.0
H635 H 0.73567 0.8173 0.22131 0.0
Gd636 Gd 0.17992 0.85314 0.3249 0.0
Gd637 Gd 0.20173 0.84188 0.37421 0.0
C638 C 0.28663 0.84674 0.38261 0.0
C639 C 0.27272 0.79965 0.38999 0.0
C640 C 0.23728 0.81261 0.38427 0.0
C641 C 0.25806 0.83921 0.38087 0.0
C642 C 0.24432 0.79263 0.3894 0.0
C643 C 0.29386 0.82668 0.38659 0.0
C644 C 0.30697 0.87434 0.38112 0.0
C645 C 0.29852 0.89369 0.37886 0.0
N646 N 0.25026 0.85809 0.3774 0.0
C647 C 0.2699 0.88519 0.37728 0.0
H648 H 0.26375 0.90038 0.37541 0.0
C649 C 0.18898 0.78166 0.3898 0.0
N650 N 0.21014 0.8067 0.38386 0.0
C651 C 0.19486 0.76109 0.39492 0.0
C652 C 0.22263 0.76648 0.39444 0.0
H653 H 0.16747 0.77736 0.38999 0.0
H654 H 0.3157 0.83201 0.38773 0.0
H655 H 0.11646 0.79635 0.32514 0.0
H656 H 0.32914 0.88098 0.38234 0.0
H657 H 0.31404 0.91515 0.37819 0.0
H658 H 0.27857 0.78453 0.39368 0.0
H659 H 0.2168 0.91764 0.30884 0.0
H660 H 0.05379 0.81916 0.31682 0.0
H661 H 0.06666 0.78363 0.32243 0.0
H662 H 0.10804 0.91502 0.30345 0.0
H663 H 0.17799 0.7411 0.39915 0.0
H664 H 0.22715 0.75055 0.39847 0.0
H665 H 0.06945 0.86837 0.30999 0.0
H666 H 0.20834 0.95493 0.29901 0.0
N667 N 0.13184 0.83885 0.32165 0.0
C668 C 0.07574 0.8249 0.318 0.0
C669 C 0.08292 0.80478 0.3211 0.0
C670 C 0.09701 0.85206 0.31578 0.0
C671 C 0.12524 0.85843 0.31756 0.0
C672 C 0.11124 0.81211 0.32262 0.0
N673 N 0.17366 0.8895 0.31473 0.0
C674 C 0.14686 0.88462 0.31394 0.0
C675 C 0.19087 0.93529 0.30327 0.0
C676 C 0.16349 0.93096 0.3033 0.0
C677 C 0.19558 0.91411 0.30881 0.0
C678 C 0.14101 0.90526 0.30838 0.0
H679 H 0.15989 0.94738 0.29894 0.0
O680 O 0.20333 0.86234 0.29724 0.0
O681 O 0.21301 0.85114 0.34247 0.0
O682 O 0.21512 0.88657 0.3685 0.0
O683 O 0.18475 0.88706 0.34461 0.0
O684 O 0.22681 0.88208 0.32187 0.0
O685 O 0.1633 0.82509 0.30012 0.0
O686 O 0.1813 0.82997 0.40309 0.0
O687 O 0.1686 0.84338 0.35663 0.0
O688 O 0.16524 0.80842 0.33093 0.0
O689 O 0.19605 0.80766 0.35425 0.0
O690 O 0.1547 0.81334 0.3778 0.0
O691 O 0.21497 0.87136 0.39797 0.0
C692 C 0.23477 0.8708 0.33493 0.0
C693 C 0.11297 0.89937 0.3075 0.0
C694 C 0.091 0.87281 0.31122 0.0
C695 C 0.18398 0.84085 0.28827 0.0
C696 C 0.17646 0.84561 0.26838 0.0
C697 C 0.15938 0.85732 0.26597 0.0
C698 C 0.18773 0.83977 0.2516 0.0
C699 C 0.18258 0.84628 0.23254 0.0
C700 C 0.15412 0.86367 0.24706 0.0
C701 C 0.16584 0.85842 0.23041 0.0
C702 C 0.20271 0.89849 0.3593 0.0
C703 C 0.14672 0.8243 0.3645 0.0
C704 C 0.19782 0.85369 0.41094 0.0
C705 C 0.21001 0.8536 0.43027 0.0
C706 C 0.23288 0.84914 0.43157 0.0
C707 C 0.19919 0.85881 0.44757 0.0
C708 C 0.21151 0.8601 0.46608 0.0
C709 C 0.24502 0.85016 0.44989 0.0
C710 C 0.23454 0.85576 0.46705 0.0
C711 C 0.17739 0.79617 0.33993 0.0
H712 H 0.15036 0.86177 0.27867 0.0
H713 H 0.20104 0.83081 0.25337 0.0
H714 H 0.14107 0.87287 0.24531 0.0
H715 H 0.16167 0.86361 0.21584 0.0
H716 H 0.24149 0.84509 0.41845 0.0
H717 H 0.18165 0.86249 0.44657 0.0
H718 H 0.26271 0.84675 0.45078 0.0
H719 H 0.24429 0.85647 0.48112 0.0
Gd720 Gd 0.85003 0.69159 0.70979 0.0
Gd721 Gd 0.82882 0.65992 0.6601 0.0
C722 C 0.74263 0.58448 0.65077 0.0
C723 C 0.75503 0.5498 0.64343 0.0
C724 C 0.79155 0.59654 0.6495 0.0
C725 C 0.77141 0.60391 0.65266 0.0
C726 C 0.78368 0.56956 0.64437 0.0
C727 C 0.73453 0.55725 0.64664 0.0
C728 C 0.72295 0.59319 0.65244 0.0
C729 C 0.73224 0.62082 0.65512 0.0
N730 N 0.78005 0.63045 0.65639 0.0
C731 C 0.76104 0.63932 0.65682 0.0
H732 H 0.76778 0.66054 0.65902 0.0
C733 C 0.83964 0.61075 0.64482 0.0
N734 N 0.81896 0.6162 0.65031 0.0
C735 C 0.83292 0.58426 0.63972 0.0
C736 C 0.80483 0.56348 0.63975 0.0
H737 H 0.86141 0.62673 0.64497 0.0
H738 H 0.71251 0.54197 0.64536 0.0
H739 H 0.91267 0.69451 0.70977 0.0
H740 H 0.70064 0.57891 0.65115 0.0
H741 H 0.71724 0.62788 0.65601 0.0
H742 H 0.74853 0.52888 0.63971 0.0
H743 H 0.81413 0.72154 0.72523 0.0
H744 H 0.9767 0.77716 0.7193 0.0
H745 H 0.96274 0.72905 0.71299 0.0
H746 H 0.92426 0.82234 0.73256 0.0
H747 H 0.84941 0.57989 0.63583 0.0
H748 H 0.79966 0.54299 0.63573 0.0
H749 H 0.96213 0.81194 0.72639 0.0
H750 H 0.8236 0.76724 0.73537 0.0
N751 N 0.89827 0.72282 0.71358 0.0
C752 C 0.95464 0.76207 0.71787 0.0
C753 C 0.94684 0.73493 0.71436 0.0
C754 C 0.93382 0.76926 0.72009 0.0
C755 C 0.90544 0.74885 0.71796 0.0
C756 C 0.91838 0.71538 0.71255 0.0
N757 N 0.8572 0.73425 0.71999 0.0
C758 C 0.88422 0.75477 0.72128 0.0
C759 C 0.84084 0.76405 0.73134 0.0
C760 C 0.86849 0.78572 0.73179 0.0
C761 C 0.83555 0.7382 0.72563 0.0
C762 C 0.89064 0.78116 0.72702 0.0
H763 H 0.87253 0.80571 0.73628 0.0
O764 O 0.82572 0.67802 0.7371 0.0
O765 O 0.8173 0.65852 0.69167 0.0
O766 O 0.81637 0.69229 0.66562 0.0
O767 O 0.84617 0.72149 0.69004 0.0
O768 O 0.8031 0.67552 0.7123 0.0
O769 O 0.86549 0.67893 0.73498 0.0
O770 O 0.85038 0.66803 0.63161 0.0
O771 O 0.862 0.6928 0.67814 0.0
O772 O 0.86348 0.66009 0.70418 0.0
O773 O 0.83321 0.63042 0.6802 0.0
O774 O 0.87539 0.67502 0.65754 0.0
O775 O 0.81762 0.67815 0.63609 0.0
C776 C 0.79538 0.65689 0.69899 0.0
C777 C 0.91888 0.80186 0.72837 0.0
C778 C 0.94044 0.79593 0.72487 0.0
C779 C 0.84444 0.67462 0.74644 0.0
C780 C 0.85124 0.68598 0.76658 0.0
C781 C 0.86661 0.71424 0.76944 0.0
C782 C 0.84099 0.6685 0.78316 0.0
C783 C 0.84544 0.6793 0.80244 0.0
C784 C 0.87119 0.725 0.78853 0.0
C785 C 0.86049 0.70769 0.80495 0.0
C786 C 0.8288 0.71604 0.675 0.0
C787 C 0.88364 0.69389 0.67068 0.0
C788 C 0.83503 0.67697 0.62346 0.0
C789 C 0.82355 0.66612 0.60376 0.0
C790 C 0.80135 0.6393 0.60178 0.0
C791 C 0.8342 0.68292 0.58684 0.0
C792 C 0.82223 0.67309 0.5681 0.0
C793 C 0.78964 0.62938 0.58324 0.0
C794 C 0.79986 0.64615 0.56651 0.0
C795 C 0.85087 0.63614 0.69512 0.0
H796 H 0.87483 0.72799 0.75695 0.0
H797 H 0.82902 0.64663 0.78105 0.0
H798 H 0.88294 0.74685 0.7906 0.0
H799 H 0.86421 0.71644 0.81964 0.0
H800 H 0.79291 0.62611 0.61458 0.0
H801 H 0.85123 0.70374 0.58833 0.0
H802 H 0.77247 0.60866 0.58183 0.0
H803 H 0.79039 0.63801 0.55227 0.0
Gd804 Gd 0.33132 0.1623 0.7072 0.0
Gd805 Gd 0.36712 0.16901 0.65914 0.0
C806 C 0.44625 0.16188 0.65524 0.0
C807 C 0.48212 0.20829 0.64707 0.0
C808 C 0.4333 0.19661 0.65095 0.0
C809 C 0.42582 0.17003 0.65544 0.0
C810 C 0.46143 0.21594 0.64631 0.0
C811 C 0.47454 0.18129 0.65152 0.0
C812 C 0.43753 0.13433 0.65824 0.0
C813 C 0.40895 0.11559 0.66065 0.0
N814 N 0.39827 0.15178 0.65884 0.0
C815 C 0.38947 0.12466 0.66069 0.0
H816 H 0.3675 0.10993 0.66269 0.0
C817 C 0.41848 0.22825 0.64339 0.0
N818 N 0.41274 0.20319 0.65012 0.0
C819 C 0.44611 0.24822 0.63882 0.0
C820 C 0.46775 0.24215 0.64052 0.0
H821 H 0.4018 0.23303 0.64221 0.0
H822 H 0.49059 0.17549 0.65155 0.0
H823 H 0.32747 0.21941 0.703 0.0
H824 H 0.45257 0.12725 0.65827 0.0
H825 H 0.40192 0.09416 0.66262 0.0
H826 H 0.5039 0.22292 0.64375 0.0
H827 H 0.30019 0.09928 0.7262 0.0
H828 H 0.24124 0.19825 0.70842 0.0
H829 H 0.29122 0.23294 0.70316 0.0
H830 H 0.1947 0.10343 0.72558 0.0
H831 H 0.4507 0.26827 0.634 0.0
H832 H 0.48912 0.25761 0.63687 0.0
H833 H 0.20524 0.14969 0.71646 0.0
H834 H 0.25257 0.06316 0.7362 0.0
N835 N 0.29832 0.1773 0.70761 0.0
C836 C 0.25707 0.19218 0.70838 0.0
C837 C 0.28527 0.21182 0.70547 0.0
C838 C 0.24979 0.16508 0.71188 0.0
C839 C 0.27122 0.15824 0.71156 0.0
C840 C 0.30578 0.20405 0.70539 0.0
N841 N 0.28681 0.12705 0.71739 0.0
C842 C 0.26526 0.13226 0.71664 0.0
C843 C 0.25582 0.08245 0.73062 0.0
C844 C 0.23314 0.087 0.72898 0.0
C845 C 0.28275 0.10295 0.72499 0.0
C846 C 0.23776 0.11231 0.72223 0.0
H847 H 0.21232 0.07114 0.73342 0.0
O848 O 0.3429 0.15497 0.73629 0.0
O849 O 0.36685 0.16233 0.69144 0.0
O850 O 0.33343 0.12497 0.6659 0.0
O851 O 0.3019 0.1266 0.68849 0.0
O852 O 0.34852 0.13401 0.71372 0.0
O853 O 0.34239 0.19235 0.7305 0.0
O854 O 0.36111 0.17937 0.62925 0.0
O855 O 0.3318 0.16925 0.67487 0.0
O856 O 0.36402 0.2066 0.69985 0.0
O857 O 0.39611 0.20385 0.67858 0.0
O858 O 0.35 0.19738 0.65249 0.0
O859 O 0.35215 0.13834 0.63616 0.0
C860 C 0.36845 0.14384 0.7007 0.0
C861 C 0.21604 0.11857 0.72156 0.0
C862 C 0.22204 0.14491 0.71637 0.0
C863 C 0.34525 0.17717 0.74378 0.0
C864 C 0.33097 0.17387 0.7629 0.0
C865 C 0.30198 0.16427 0.7639 0.0
C866 C 0.34628 0.17888 0.78047 0.0
C867 C 0.33261 0.17367 0.79894 0.0
C868 C 0.28832 0.15911 0.78224 0.0
C869 C 0.30349 0.16355 0.79972 0.0
C870 C 0.30838 0.11395 0.67475 0.0
C871 C 0.33011 0.18764 0.66555 0.0
C872 C 0.35426 0.15538 0.62231 0.0
C873 C 0.36842 0.15498 0.60389 0.0
C874 C 0.39518 0.15755 0.60421 0.0
C875 C 0.3548 0.15163 0.58573 0.0
C876 C 0.36764 0.15051 0.56793 0.0
C877 C 0.40814 0.15667 0.58661 0.0
C878 C 0.39446 0.15308 0.56855 0.0
C879 C 0.38934 0.21717 0.69151 0.0
H880 H 0.28988 0.16055 0.75057 0.0
H881 H 0.36869 0.18621 0.77977 0.0
H882 H 0.26591 0.15153 0.78289 0.0
H883 H 0.2926 0.15939 0.81384 0.0
H884 H 0.40598 0.16005 0.61801 0.0
H885 H 0.33397 0.14933 0.58551 0.0
H886 H 0.4288 0.15868 0.58698 0.0
H887 H 0.40493 0.15253 0.55506 0.0
Gd888 Gd 0.84806 0.1908 0.65772 0.0
Gd889 Gd 0.87019 0.18011 0.70703 0.0
C890 C 0.95634 0.18777 0.71571 0.0
C891 C 0.94383 0.14115 0.72354 0.0
C892 C 0.90737 0.15267 0.71756 0.0
C893 C 0.92756 0.17945 0.71405 0.0
C894 C 0.9152 0.1333 0.72281 0.0
C895 C 0.96437 0.16835 0.71997 0.0
C896 C 0.97611 0.21546 0.71365 0.0
C897 C 0.96692 0.23416 0.71081 0.0
N898 N 0.919 0.19768 0.7102 0.0
C899 C 0.93813 0.22491 0.70938 0.0
H900 H 0.93146 0.23964 0.70706 0.0
C901 C 0.85929 0.12053 0.72267 0.0
N902 N 0.87997 0.1459 0.71692 0.0
C903 C 0.86598 0.10055 0.72791 0.0
C904 C 0.89405 0.10685 0.72773 0.0
H905 H 0.83755 0.11551 0.72265 0.0
H906 H 0.98639 0.17429 0.72108 0.0
H907 H 0.78575 0.13271 0.65795 0.0
H908 H 0.99843 0.22269 0.71474 0.0
H909 H 0.98201 0.2557 0.70961 0.0
H910 H 0.95029 0.12651 0.72734 0.0
H911 H 0.88322 0.25556 0.6422 0.0
H912 H 0.72101 0.15262 0.64906 0.0
H913 H 0.73552 0.11832 0.65502 0.0
H914 H 0.77247 0.24869 0.63598 0.0
H915 H 0.8495 0.0803 0.73202 0.0
H916 H 0.89919 0.09137 0.73185 0.0
H917 H 0.735 0.20143 0.64221 0.0
H918 H 0.87314 0.29185 0.63233 0.0
N919 N 0.79969 0.1749 0.65431 0.0
C920 C 0.74314 0.15908 0.65036 0.0
C921 C 0.75124 0.13966 0.65367 0.0
C922 C 0.76373 0.18652 0.64817 0.0
C923 C 0.79221 0.19385 0.65013 0.0
C924 C 0.77979 0.14792 0.65532 0.0
N925 N 0.84034 0.22632 0.64781 0.0
C926 C 0.81321 0.22043 0.64678 0.0
C927 C 0.8561 0.27189 0.63646 0.0
C928 C 0.82835 0.26655 0.6363 0.0
C929 C 0.86174 0.25131 0.64202 0.0
C930 C 0.80645 0.24044 0.64119 0.0
H931 H 0.82404 0.2825 0.63192 0.0
O932 O 0.8717 0.20124 0.63013 0.0
O933 O 0.88135 0.1895 0.67534 0.0
O934 O 0.88262 0.22449 0.7013 0.0
O935 O 0.85187 0.22432 0.67749 0.0
O936 O 0.895 0.2202 0.65468 0.0
O937 O 0.83218 0.16333 0.63256 0.0
O938 O 0.84911 0.16777 0.73568 0.0
O939 O 0.83644 0.18071 0.68945 0.0
O940 O 0.83517 0.14632 0.66327 0.0
O941 O 0.86594 0.14646 0.68708 0.0
O942 O 0.82362 0.15005 0.71011 0.0
O943 O 0.8826 0.20932 0.73094 0.0
C944 C 0.90313 0.20903 0.66775 0.0
C945 C 0.77811 0.23354 0.64006 0.0
C946 C 0.75678 0.20662 0.64358 0.0
C947 C 0.8528 0.17973 0.6209 0.0
C948 C 0.84529 0.1847 0.60105 0.0
C949 C 0.82848 0.19669 0.59875 0.0
C950 C 0.85639 0.1788 0.5842 0.0
C951 C 0.85134 0.18554 0.56518 0.0
C952 C 0.82335 0.20334 0.57989 0.0
C953 C 0.83489 0.19802 0.56318 0.0
C954 C 0.86977 0.236 0.69217 0.0
C955 C 0.81497 0.16081 0.69711 0.0
C956 C 0.86519 0.19146 0.7437 0.0
C957 C 0.87684 0.19132 0.76324 0.0
C958 C 0.89999 0.18736 0.76493 0.0
C959 C 0.86515 0.19591 0.78037 0.0
C960 C 0.87689 0.1971 0.79909 0.0
C961 C 0.91155 0.18824 0.78347 0.0
C962 C 0.90021 0.19323 0.80045 0.0
C963 C 0.84817 0.13487 0.67228 0.0
H964 H 0.81954 0.20114 0.61147 0.0
H965 H 0.86946 0.16957 0.58589 0.0
H966 H 0.81049 0.21275 0.57824 0.0
H967 H 0.83069 0.20332 0.54866 0.0
H968 H 0.90927 0.18382 0.75195 0.0
H969 H 0.84739 0.1992 0.77906 0.0
H970 H 0.92946 0.18522 0.78466 0.0
H971 H 0.90955 0.19387 0.81469 0.0
H972 H 0.28511 0.85425 0.04137 0.0
H973 H 0.33454 0.84155 0.08502 0.0
H974 H 0.3283 0.89233 0.0271 0.0
H975 H 0.37762 0.879 0.07058 0.0
H976 H 0.40937 0.98157 0.03632 0.0
H977 H 0.36485 0.93983 0.04343 0.0
H978 H 0.40618 0.89249 0.03675 0.0
H979 H 0.45057 0.93417 0.02936 0.0
C980 C 0.30527 0.85937 0.04764 0.0
C981 C 0.3067 0.84518 0.06425 0.0
C982 C 0.32986 0.88109 0.03955 0.0
C983 C 0.35623 0.88848 0.04772 0.0
C984 C 0.3576 0.87353 0.06387 0.0
C985 C 0.33304 0.85225 0.07218 0.0
C986 C 0.40871 0.96214 0.03597 0.0
C987 C 0.43321 0.96099 0.032 0.0
C988 C 0.38329 0.93831 0.03993 0.0
C989 C 0.38212 0.91299 0.0406 0.0
C990 C 0.40655 0.91178 0.0363 0.0
C991 C 0.43187 0.93557 0.03197 0.0
H992 H 0.19967 0.50392 0.0742 0.0
H993 H 0.15741 0.42064 0.05447 0.0
H994 H 0.16013 0.50884 0.06301 0.0
H995 H 0.11828 0.42558 0.04234 0.0
H996 H 0.0384 0.43142 0.04816 0.0
H997 H 0.07996 0.42795 0.05544 0.0
H998 H 0.13304 0.51188 0.03735 0.0
H999 H 0.09129 0.51546 0.03113 0.0
C1000 C 0.1822 0.48694 0.06689 0.0
C1001 C 0.1816 0.462 0.06503 0.0
C1002 C 0.15948 0.48968 0.06043 0.0
C1003 C 0.13564 0.46753 0.05188 0.0
C1004 C 0.13584 0.44294 0.04924 0.0
C1005 C 0.15841 0.44014 0.05592 0.0
C1006 C 0.059 0.44902 0.04563 0.0
C1007 C 0.06155 0.47344 0.03851 0.0
C1008 C 0.08292 0.44703 0.04963 0.0
C1009 C 0.11015 0.46953 0.0468 0.0
C1010 C 0.11259 0.49411 0.03987 0.0
C1011 C 0.0886 0.4961 0.03598 0.0
H1012 H 0.61513 0.73403 0.06608 0.0
H1013 H 0.52686 0.70818 0.06267 0.0
H1014 H 0.6061 0.691 0.05174 0.0
H1015 H 0.51742 0.6645 0.04896 0.0
H1016 H 0.51223 0.59552 0.0115 0.0
H1017 H 0.52263 0.64081 0.02166 0.0
H1018 H 0.5859 0.64512 0.06171 0.0
H1019 H 0.57664 0.60068 0.05078 0.0
C1020 C 0.59375 0.71903 0.06225 0.0
C1021 C 0.57165 0.72428 0.0656 0.0
C1022 C 0.58851 0.6943 0.05415 0.0
C1023 C 0.56096 0.67403 0.04943 0.0
C1024 C 0.53894 0.67969 0.05222 0.0
C1025 C 0.54427 0.70465 0.06012 0.0
C1026 C 0.52872 0.60633 0.02219 0.0
C1027 C 0.54386 0.59453 0.03007 0.0
C1028 C 0.53444 0.63221 0.02822 0.0
C1029 C 0.55521 0.64678 0.04246 0.0
C1030 C 0.5702 0.63485 0.0504 0.0
C1031 C 0.56469 0.60915 0.04423 0.0
H1032 H 0.87962 0.2777 0.96576 0.0
H1033 H 0.81845 0.30336 0.9743 0.0
H1034 H 0.91586 0.32017 0.98022 0.0
H1035 H 0.85478 0.34653 0.98781 0.0
H1036 H 0.9213 0.41566 0.02319 0.0
H1037 H 0.88515 0.3703 0.01352 0.0
H1038 H 0.94356 0.36602 0.97247 0.0
H1039 H 0.98018 0.41045 0.98324 0.0
C1040 C 0.874 0.29253 0.97077 0.0
C1041 C 0.8463 0.28732 0.96893 0.0
C1042 C 0.89479 0.31701 0.97891 0.0
C1043 C 0.88851 0.33714 0.98504 0.0
C1044 C 0.8605 0.33151 0.98358 0.0
C1045 C 0.83962 0.30679 0.97576 0.0
C1046 C 0.92666 0.40482 0.01245 0.0
C1047 C 0.95389 0.4167 1.00426 0.0
C1048 C 0.90571 0.37885 0.00663 0.0
C1049 C 0.91122 0.36424 0.99214 0.0
C1050 C 0.9385 0.3762 0.98397 0.0
C1051 C 0.95956 0.40195 0.99004 0.0
H1052 H 0.70341 0.50822 0.96246 0.0
H1053 H 0.74761 0.5927 0.97931 0.0
H1054 H 0.65924 0.50397 0.97429 0.0
H1055 H 0.70396 0.58843 0.99228 0.0
H1056 H 0.61815 0.58267 0.98786 0.0
H1057 H 0.66317 0.58583 0.98073 0.0
H1058 H 0.62912 0.50203 0.99937 0.0
H1059 H 0.58362 0.49865 1.00516 0.0
C1060 C 0.7037 0.52566 0.96927 0.0
C1061 C 0.72883 0.55074 0.97006 0.0
C1062 C 0.67839 0.52329 0.97613 0.0
C1063 C 0.67765 0.54593 0.98415 0.0
C1064 C 0.7033 0.57067 0.98579 0.0
C1065 C 0.72847 0.57311 0.97861 0.0
C1066 C 0.62043 0.56503 0.99059 0.0
C1067 C 0.5975 0.54065 0.99754 0.0
C1068 C 0.64639 0.56684 0.98667 0.0
C1069 C 0.65022 0.54425 0.98956 0.0
C1070 C 0.62716 0.51984 0.99669 0.0
C1071 C 0.60106 0.51798 1.00037 0.0
H1072 H 0.51084 0.19831 0.96458 0.0
H1073 H 0.4214 0.14297 0.96095 0.0
H1074 H 0.51714 0.16207 0.97853 0.0
H1075 H 0.42754 0.1067 0.97528 0.0
H1076 H 0.45418 0.04171 0.9788 0.0
H1077 H 0.44634 0.07783 0.96661 0.0
H1078 H 0.50874 0.13441 0.00722 0.0
H1079 H 0.51757 0.09878 0.01866 0.0
C1080 C 0.49247 0.17848 0.96708 0.0
C1081 C 0.46564 0.17346 0.96165 0.0
C1082 C 0.49605 0.15769 0.97511 0.0
C1083 C 0.47284 0.1314 0.97802 0.0
C1084 C 0.44592 0.12655 0.97292 0.0
C1085 C 0.44238 0.14733 0.96477 0.0
C1086 C 0.46619 0.06183 0.98517 0.0
C1087 C 0.48639 0.06723 0.99983 0.0
C1088 C 0.46153 0.08252 0.97828 0.0
C1089 C 0.47689 0.10907 0.98593 0.0
C1090 C 0.49677 0.11432 1.0008 0.0
C1091 C 0.50158 0.09372 0.00757 0.0
H1092 H 0.72282 0.16045 0.98956 0.0
H1093 H 0.67201 0.17084 0.94565 0.0
H1094 H 0.68037 0.12196 1.004 0.0
H1095 H 0.62964 0.13289 0.96035 0.0
H1096 H 0.55783 0.07829 1.0025 0.0
H1097 H 0.60172 0.12009 0.99455 0.0
H1098 H 0.64407 0.07362 0.98835 0.0
H1099 H 0.59997 0.0317 0.99606 0.0
C1100 C 0.70257 0.15477 0.9832 0.0
C1101 C 0.70062 0.16857 0.96648 0.0
C1102 C 0.67835 0.13275 0.99142 0.0
C1103 C 0.65177 0.12459 0.98333 0.0
C1104 C 0.64983 0.13896 0.967 0.0
C1105 C 0.67404 0.16054 0.95854 0.0
C1106 C 0.57664 0.07709 0.99995 0.0
C1107 C 0.57567 0.05184 1.00019 0.0
C1108 C 0.60169 0.10097 0.99526 0.0
C1109 C 0.62624 0.10004 0.99086 0.0
C1110 C 0.62551 0.07493 0.99188 0.0
C1111 C 0.60034 0.05099 0.99621 0.0
H1112 H 0.83781 0.52012 0.99244 0.0
H1113 H 0.8754 0.53736 0.93407 0.0
H1114 H 0.87795 0.51662 1.00524 0.0
H1115 H 0.91549 0.53473 0.94689 0.0
H1116 H 0.99619 0.56152 0.98355 0.0
H1117 H 0.95487 0.56485 0.97452 0.0
H1118 H 0.90066 0.48264 0.99524 0.0
H1119 H 0.94212 0.4789 1.00355 0.0
C1120 C 0.85466 0.52332 0.98242 0.0
C1121 C 0.85354 0.52907 0.96226 0.0
C1122 C 0.8775 0.52122 0.98971 0.0
C1123 C 0.89984 0.52554 0.97704 0.0
C1124 C 0.89868 0.53149 0.95699 0.0
C1125 C 0.8757 0.53292 0.94967 0.0
C1126 C 0.97545 0.54425 0.98635 0.0
C1127 C 0.97241 0.52019 0.99469 0.0
C1128 C 0.95184 0.54617 0.98122 0.0
C1129 C 0.92459 0.5241 0.98436 0.0
C1130 C 0.92143 0.5001 0.99294 0.0
C1131 C 0.94514 0.498 0.99775 0.0
H1132 H 0.49967 0.33822 0.92921 0.0
H1133 H 0.49773 0.30421 0.98689 0.0
H1134 H 0.50402 0.379 0.94481 0.0
H1135 H 0.50212 0.34512 1.00255 0.0
H1136 H 0.54305 0.43795 0.01852 0.0
H1137 H 0.53775 0.39579 1.0049 0.0
H1138 H 0.47293 0.38981 0.96581 0.0
H1139 H 0.47781 0.43166 0.9795 0.0
C1140 C 0.50028 0.33956 0.94523 0.0
C1141 C 0.49829 0.3181 0.95683 0.0
C1142 C 0.50258 0.36278 0.95416 0.0
C1143 C 0.50317 0.36511 0.97489 0.0
C1144 C 0.50179 0.34387 0.98653 0.0
C1145 C 0.4992 0.32046 0.97757 0.0
C1146 C 0.5273 0.42744 0.00728 0.0
C1147 C 0.51082 0.43824 1.00016 0.0
C1148 C 0.52433 0.4033 0.99947 0.0
C1149 C 0.50508 0.38966 0.98421 0.0
C1150 C 0.48821 0.40011 0.97738 0.0
C1151 C 0.49096 0.42406 0.98531 0.0
H1152 H 0.1747 0.72178 0.04541 0.0
H1153 H 0.19607 0.67642 0.08634 0.0
H1154 H 0.13741 0.67882 0.03152 0.0
H1155 H 0.15951 0.63364 0.072 0.0
H1156 H 0.11422 0.56866 0.02178 0.0
H1157 H 0.15148 0.61292 0.03328 0.0
H1158 H 0.08948 0.63474 0.05026 0.0
H1159 H 0.05188 0.59007 0.03926 0.0
C1160 C 0.17163 0.70266 0.05125 0.0
C1161 C 0.18828 0.7023 0.06687 0.0
C1162 C 0.15028 0.67818 0.04338 0.0
C1163 C 0.14578 0.65308 0.0507 0.0
C1164 C 0.16274 0.65279 0.06607 0.0
C1165 C 0.18355 0.67718 0.07426 0.0
C1166 C 0.10847 0.58292 0.02783 0.0
C1167 C 0.08007 0.57582 0.0297 0.0
C1168 C 0.12981 0.60818 0.03443 0.0
C1169 C 0.12324 0.62709 0.0426 0.0
C1170 C 0.09499 0.62046 0.0439 0.0
C1171 C 0.07354 0.59491 0.0377 0.0
H1172 H 0.34029 0.46816 0.09662 0.0
H1173 H 0.31956 0.48898 0.04008 0.0
H1174 H 0.38282 0.47159 0.08225 0.0
H1175 H 0.36305 0.49323 0.0257 0.0
H1176 H 0.46703 0.53109 0.02679 0.0
H1177 H 0.42124 0.5265 0.0352 0.0
H1178 H 0.39039 0.44306 0.05282 0.0
H1179 H 0.43559 0.44729 0.04375 0.0
C1180 C 0.34488 0.47353 0.08109 0.0
C1181 C 0.32651 0.47815 0.06947 0.0
C1182 C 0.3692 0.47543 0.07287 0.0
C1183 C 0.37618 0.48258 0.05287 0.0
C1184 C 0.35812 0.48769 0.04118 0.0
C1185 C 0.33325 0.48515 0.04936 0.0
C1186 C 0.45017 0.51154 0.03183 0.0
C1187 C 0.45472 0.48937 0.03425 0.0
C1188 C 0.42401 0.50895 0.0367 0.0
C1189 C 0.40228 0.48441 0.04465 0.0
C1190 C 0.40674 0.46219 0.04669 0.0
C1191 C 0.4326 0.46462 0.04152 0.0
H1192 H 0.52845 0.8239 0.05911 0.0
H1193 H 0.61303 0.89161 0.06409 0.0
H1194 H 0.51233 0.85502 0.04838 0.0
H1195 H 0.5974 0.92257 0.05259 0.0
H1196 H 0.55747 0.97512 0.05336 0.0
H1197 H 0.57154 0.94278 0.06379 0.0
H1198 H 0.51326 0.88382 0.02228 0.0
H1199 H 0.49789 0.91576 0.01269 0.0
C1200 C 0.54363 0.84541 0.05768 0.0
C1201 C 0.57198 0.85544 0.06248 0.0
C1202 C 0.53445 0.86324 0.05143 0.0
C1203 C 0.55351 0.89141 0.04972 0.0
C1204 C 0.58197 0.90116 0.05415 0.0
C1205 C 0.59102 0.88342 0.06059 0.0
C1206 C 0.54755 0.95527 0.04643 0.0
C1207 C 0.52686 0.94829 0.03188 0.0
C1208 C 0.55584 0.93673 0.05232 0.0
C1209 C 0.54388 0.91074 0.0437 0.0
C1210 C 0.52287 0.90358 0.02933 0.0
C1211 C 0.51433 0.92208 0.02359 0.0
H1212 H 0.95034 0.19225 0.3814 0.0
H1213 H 1.00052 0.16492 0.41198 0.0
H1214 H 0.99302 0.23011 0.36674 0.0
H1215 H 0.0433 0.20296 0.39787 0.0
H1216 H 0.11578 0.26522 0.36158 0.0
H1217 H 0.0713 0.22372 0.36847 0.0
H1218 H 0.03172 0.27208 0.37904 0.0
H1219 H 0.07605 0.3134 0.37148 0.0
C1220 C 0.97057 0.19426 0.38473 0.0
C1221 C 0.97237 0.1758 0.39766 0.0
C1222 C 0.99499 0.21596 0.3765 0.0
C1223 C 0.02167 0.2197 0.38118 0.0
C1224 C 0.02317 0.20054 0.39368 0.0
C1225 C 0.99875 0.17883 0.40185 0.0
C1226 C 0.09739 0.26689 0.36484 0.0
C1227 C 0.0992 0.29248 0.36562 0.0
C1228 C 0.07195 0.24312 0.36904 0.0
C1229 C 0.04787 0.24449 0.37439 0.0
C1230 C 0.04965 0.27014 0.37469 0.0
C1231 C 0.07507 0.29386 0.37048 0.0
H1232 H 0.85352 0.8283 0.41789 0.0
H1233 H 0.83198 0.76199 0.37751 0.0
H1234 H 0.81436 0.83312 0.40547 0.0
H1235 H 0.79234 0.76644 0.36518 0.0
H1236 H 0.70367 0.76049 0.37456 0.0
H1237 H 0.74606 0.75805 0.38188 0.0
H1238 H 0.79674 0.84512 0.37398 0.0
H1239 H 0.75443 0.84746 0.36657 0.0
C1240 C 0.84062 0.81509 0.40609 0.0
C1241 C 0.84581 0.79494 0.39851 0.0
C1242 C 0.81825 0.81784 0.39897 0.0
C1243 C 0.8002 0.8001 0.38439 0.0
C1244 C 0.80579 0.78028 0.3765 0.0
C1245 C 0.82853 0.77786 0.38341 0.0
C1246 C 0.72394 0.77902 0.37415 0.0
C1247 C 0.72581 0.80405 0.36953 0.0
C1248 C 0.7482 0.77762 0.37823 0.0
C1249 C 0.77478 0.80137 0.37839 0.0
C1250 C 0.77659 0.82647 0.37395 0.0
C1251 C 0.75237 0.82778 0.36956 0.0
H1252 H 0.19158 0.03878 0.39879 0.0
H1253 H 0.28028 0.06607 0.40132 0.0
H1254 H 0.18263 0.99522 0.38538 0.0
H1255 H 0.27158 0.02285 0.38744 0.0
H1256 H 0.24201 0.93182 0.38628 0.0
H1257 H 0.25158 0.97645 0.39743 0.0
H1258 H 0.18823 0.97253 0.35765 0.0
H1259 H 0.17764 0.92739 0.34731 0.0
C1260 C 0.20922 0.03563 0.39609 0.0
C1261 C 0.23659 0.05573 0.40118 0.0
C1262 C 0.20413 0.01068 0.38839 0.0
C1263 C 0.22636 0.00537 0.38546 0.0
C1264 C 0.25388 0.02595 0.38991 0.0
C1265 C 0.25891 0.05078 0.39775 0.0
C1266 C 0.23012 0.94046 0.37989 0.0
C1267 C 0.20923 0.92604 0.36573 0.0
C1268 C 0.23578 0.96621 0.38617 0.0
C1269 C 0.22079 0.97824 0.37838 0.0
C1270 C 0.20001 0.96384 0.36413 0.0
C1271 C 0.19419 0.93802 0.35799 0.0
H1272 H 0.48318 0.63508 0.30459 0.0
H1273 H 0.54521 0.61017 0.29785 0.0
H1274 H 0.51921 0.67926 0.31686 0.0
H1275 H 0.58118 0.6537 0.31117 0.0
H1276 H 0.64506 0.74407 0.31351 0.0
H1277 H 0.60871 0.69935 0.30272 0.0
H1278 H 0.54907 0.70436 0.34212 0.0
H1279 H 0.58476 0.74985 0.35155 0.0
C1280 C 0.50448 0.63891 0.30623 0.0
C1281 C 0.51148 0.61932 0.30029 0.0
C1282 C 0.5252 0.66422 0.31332 0.0
C1283 C 0.55337 0.67036 0.31496 0.0
C1284 C 0.55999 0.65015 0.30969 0.0
C1285 C 0.53935 0.62506 0.30226 0.0
C1286 C 0.62418 0.73567 0.31984 0.0
C1287 C 0.61806 0.75053 0.33368 0.0
C1288 C 0.60329 0.70978 0.3138 0.0
C1289 C 0.57578 0.69787 0.32162 0.0
C1290 C 0.56979 0.71278 0.33552 0.0
C1291 C 0.59051 0.73885 0.34125 0.0
H1292 H 0.3991 0.92404 0.28786 0.0
H1293 H 0.38255 0.85001 0.31783 0.0
H1294 H 0.35572 0.91895 0.30043 0.0
H1295 H 0.33981 0.84624 0.3323 0.0
H1296 H 0.24796 0.82999 0.33387 0.0
H1297 H 0.29368 0.83467 0.32606 0.0
H1298 H 0.33073 0.92239 0.32553 0.0
H1299 H 0.28468 0.91722 0.3317 0.0
C1300 C 0.38627 0.90664 0.29729 0.0
C1301 C 0.39424 0.88706 0.30131 0.0
C1302 C 0.36139 0.90401 0.30498 0.0
C1303 C 0.34378 0.88214 0.31757 0.0
C1304 C 0.35234 0.86313 0.3224 0.0
C1305 C 0.37718 0.8655 0.31431 0.0
C1306 C 0.26605 0.85022 0.33226 0.0
C1307 C 0.26287 0.87328 0.33345 0.0
C1308 C 0.29241 0.85299 0.32785 0.0
C1309 C 0.31625 0.87895 0.32471 0.0
C1310 C 0.31299 0.90197 0.32702 0.0
C1311 C 0.28659 0.89912 0.33084 0.0
H1312 H 0.13759 0.49061 0.26562 0.0
H1313 H 0.12282 0.50856 0.32528 0.0
H1314 H 0.14628 0.45526 0.27854 0.0
H1315 H 0.13264 0.47395 0.3381 0.0
H1316 H 0.18288 0.42974 0.35211 0.0
H1317 H 0.17433 0.46528 0.3396 0.0
H1318 H 0.11672 0.40936 0.29649 0.0
H1319 H 0.12454 0.37342 0.30931 0.0
C1320 C 0.13613 0.48705 0.28146 0.0
C1321 C 0.12935 0.50246 0.29436 0.0
C1322 C 0.1412 0.46685 0.28884 0.0
C1323 C 0.14003 0.46184 0.3093 0.0
C1324 C 0.13391 0.47757 0.32226 0.0
C1325 C 0.12845 0.49752 0.31488 0.0
C1326 C 0.16799 0.42477 0.34022 0.0
C1327 C 0.15407 0.3985 0.33197 0.0
C1328 C 0.16323 0.44523 0.333 0.0
C1329 C 0.14488 0.44006 0.31709 0.0
C1330 C 0.13115 0.41394 0.30868 0.0
C1331 C 0.13557 0.39334 0.3161 0.0
H1332 H 0.33796 0.50029 0.27849 0.0
H1333 H 0.38937 0.49107 0.32253 0.0
H1334 H 0.29585 0.46241 0.29347 0.0
H1335 H 0.34714 0.4526 0.33727 0.0
H1336 H 0.26673 0.36202 0.33043 0.0
H1337 H 0.31074 0.40384 0.32231 0.0
H1338 H 0.26822 0.45025 0.32763 0.0
H1339 H 0.22444 0.4086 0.33596 0.0
C1340 C 0.34018 0.49026 0.29147 0.0
C1341 C 0.36685 0.49862 0.29937 0.0
C1342 C 0.31611 0.46871 0.30009 0.0
C1343 C 0.31827 0.45467 0.31655 0.0
C1344 C 0.34494 0.46313 0.32459 0.0
C1345 C 0.36903 0.48514 0.3162 0.0
C1346 C 0.26704 0.38129 0.33029 0.0
C1347 C 0.24234 0.38215 0.33412 0.0
C1348 C 0.29217 0.40517 0.32573 0.0
C1349 C 0.29283 0.43023 0.32433 0.0
C1350 C 0.26825 0.43118 0.32861 0.0
C1351 C 0.24326 0.40737 0.33352 0.0
H1352 H 0.56453 0.916 0.28487 0.0
H1353 H 0.50413 0.85508 0.32477 0.0
H1354 H 0.59981 0.90489 0.29515 0.0
H1355 H 0.54024 0.84442 0.33591 0.0
H1356 H 0.60762 0.81581 0.33357 0.0
H1357 H 0.56908 0.8246 0.3263 0.0
H1358 H 0.6291 0.91076 0.3219 0.0
H1359 H 0.66721 0.90166 0.32835 0.0
C1360 C 0.55888 0.90031 0.29604 0.0
C1361 C 0.53161 0.88654 0.30406 0.0
C1362 C 0.57926 0.89406 0.30211 0.0
C1363 C 0.57321 0.87405 0.31667 0.0
C1364 C 0.54568 0.85989 0.32461 0.0
C1365 C 0.52502 0.86604 0.31832 0.0
C1366 C 0.61235 0.8366 0.33131 0.0
C1367 C 0.64033 0.85814 0.33172 0.0
C1368 C 0.59029 0.84169 0.32715 0.0
C1369 C 0.59587 0.86839 0.3232 0.0
C1370 C 0.62391 0.88986 0.32433 0.0
C1371 C 0.64581 0.88474 0.3282 0.0
H1372 H 0.16588 0.64102 0.30863 0.0
H1373 H 0.08029 0.62485 0.31018 0.0
H1374 H 0.18263 0.68846 0.31745 0.0
H1375 H 0.09675 0.67185 0.31976 0.0
H1376 H 0.135 0.76292 0.31497 0.0
H1377 H 0.12019 0.71621 0.30601 0.0
H1378 H 0.18493 0.7181 0.34328 0.0
H1379 H 0.20084 0.76544 0.3513 0.0
C1380 C 0.15064 0.64755 0.31112 0.0
C1381 C 0.12178 0.62934 0.30871 0.0
C1382 C 0.16021 0.67471 0.31626 0.0
C1383 C 0.14107 0.68411 0.31921 0.0
C1384 C 0.11216 0.66556 0.31719 0.0
C1385 C 0.10267 0.63856 0.31188 0.0
C1386 C 0.14619 0.75347 0.32122 0.0
C1387 C 0.16881 0.76785 0.33419 0.0
C1388 C 0.13751 0.72651 0.31621 0.0
C1389 C 0.15107 0.71315 0.32413 0.0
C1390 C 0.17404 0.72771 0.33682 0.0
C1391 C 0.18292 0.7548 0.34167 0.0
H1392 H 0.86573 0.04429 0.37537 0.0
H1393 H 0.83298 0.01466 0.43407 0.0
H1394 H 0.82838 1.00175 0.36121 0.0
H1395 H 0.7957 0.97237 0.41999 0.0
H1396 H 0.7162 0.91348 0.38625 0.0
H1397 H 0.75296 0.95729 0.39864 0.0
H1398 H 0.81417 0.95149 0.36174 0.0
H1399 H 0.77771 0.90747 0.34964 0.0
C1400 C 0.85056 0.02872 0.38522 0.0
C1401 C 0.85221 0.03271 0.40582 0.0
C1402 C 0.82926 0.00437 0.37714 0.0
C1403 C 0.80903 0.9838 0.3895 0.0
C1404 C 0.81074 0.98796 0.41007 0.0
C1405 C 0.83217 0.01208 0.41813 0.0
C1406 C 0.73745 0.92154 0.38068 0.0
C1407 C 0.74386 0.90696 0.36677 0.0
C1408 C 0.75851 0.94663 0.38784 0.0
C1409 C 0.78643 0.95784 0.38113 0.0
C1410 C 0.79279 0.94355 0.36697 0.0
C1411 C 0.7718 0.91831 0.36 0.0
H1412 H 0.97006 0.78435 0.37589 0.0
H1413 H 0.01896 0.84584 0.41907 0.0
H1414 H 0.01348 0.78815 0.36212 0.0
H1415 H 0.06218 0.85014 0.40506 0.0
H1416 H 0.13579 0.86655 0.3639 0.0
H1417 H 0.09108 0.86445 0.37162 0.0
H1418 H 0.05099 0.77711 0.37795 0.0
H1419 H 0.09585 0.77931 0.37054 0.0
C1420 C 0.99008 0.79896 0.38222 0.0
C1421 C 0.99117 0.81483 0.39855 0.0
C1422 C 0.01488 0.80107 0.37439 0.0
C1423 C 0.04123 0.81953 0.38247 0.0
C1424 C 0.04225 0.83596 0.39838 0.0
C1425 C 0.01751 0.83341 0.40645 0.0
C1426 C 0.11731 0.84687 0.36652 0.0
C1427 C 0.11917 0.82302 0.36633 0.0
C1428 C 0.09176 0.84568 0.37106 0.0
C1429 C 0.06751 0.8206 0.37535 0.0
C1430 C 0.06922 0.79668 0.3745 0.0
C1431 C 0.09487 0.79794 0.37034 0.0
H1432 H 0.21063 0.16048 0.37904 0.0
H1433 H 0.21078 0.1919 0.43731 0.0
H1434 H 0.2031 0.1958 0.36429 0.0
H1435 H 0.20309 0.22703 0.42263 0.0
H1436 H 0.22128 0.30367 0.38856 0.0
H1437 H 0.22946 0.26828 0.40188 0.0
H1438 H 0.1663 0.2094 0.36288 0.0
H1439 H 0.15788 0.24469 0.3496 0.0
C1440 C 0.20895 0.17486 0.38869 0.0
C1441 C 0.21133 0.17354 0.40933 0.0
C1442 C 0.20454 0.19501 0.38025 0.0
C1443 C 0.20267 0.2143 0.39229 0.0
C1444 C 0.20486 0.21274 0.41294 0.0
C1445 C 0.20907 0.19254 0.42135 0.0
C1446 C 0.20918 0.28323 0.38273 0.0
C1447 C 0.18903 0.27713 0.36789 0.0
C1448 C 0.2138 0.26291 0.39044 0.0
C1449 C 0.19847 0.23603 0.38347 0.0
C1450 C 0.17867 0.22998 0.3684 0.0
C1451 C 0.17389 0.25027 0.36077 0.0
H1452 H 0.61958 0.52443 0.70785 0.0
H1453 H 0.66721 0.5124 0.75337 0.0
H1454 H 0.66321 0.5629 0.69446 0.0
H1455 H 0.71074 0.55023 0.73978 0.0
H1456 H 0.78488 0.60435 0.69864 0.0
H1457 H 0.74023 0.56302 0.70593 0.0
H1458 H 0.69948 0.61101 0.71148 0.0
H1459 H 0.74435 0.65251 0.70447 0.0
C1460 C 0.63944 0.52979 0.71475 0.0
C1461 C 0.64016 0.51562 0.73163 0.0
C1462 C 0.66429 0.55176 0.70717 0.0
C1463 C 0.69027 0.55942 0.71608 0.0
C1464 C 0.69101 0.54457 0.73253 0.0
C1465 C 0.66617 0.52307 0.74035 0.0
C1466 C 0.76629 0.60601 0.70097 0.0
C1467 C 0.76792 0.63156 0.70067 0.0
C1468 C 0.7408 0.58239 0.70527 0.0
C1469 C 0.71644 0.58386 0.7092 0.0
C1470 C 0.71789 0.6093 0.70828 0.0
C1471 C 0.7435 0.63299 0.70436 0.0
H1472 H 0.52789 0.1713 0.74627 0.0
H1473 H 0.49587 0.09525 0.71523 0.0
H1474 H 0.48845 0.17596 0.73433 0.0
H1475 H 0.45646 0.09987 0.70293 0.0
H1476 H 0.37203 0.09928 0.71054 0.0
H1477 H 0.41426 0.09674 0.71782 0.0
H1478 H 0.46563 0.18291 0.70577 0.0
H1479 H 0.42329 0.18537 0.69894 0.0
C1480 C 0.51272 0.15596 0.73644 0.0
C1481 C 0.51499 0.1331 0.73145 0.0
C1482 C 0.49012 0.15858 0.72958 0.0
C1483 C 0.4691 0.1382 0.71774 0.0
C1484 C 0.47202 0.11576 0.71223 0.0
C1485 C 0.4947 0.11322 0.71905 0.0
C1486 C 0.39241 0.11758 0.70927 0.0
C1487 C 0.39439 0.14234 0.70365 0.0
C1488 C 0.41664 0.11613 0.71331 0.0
C1489 C 0.44347 0.13958 0.71223 0.0
C1490 C 0.44537 0.16446 0.70681 0.0
C1491 C 0.4211 0.16583 0.70266 0.0
H1492 H 0.9464 0.40316 0.73447 0.0
H1493 H 0.85758 0.37547 0.73267 0.0
H1494 H 0.93779 0.36023 0.72012 0.0
H1495 H 0.8487 0.33213 0.7188 0.0
H1496 H 0.84388 0.26431 0.68045 0.0
H1497 H 0.85406 0.30935 0.6909 0.0
H1498 H 0.9182 0.314 0.73023 0.0
H1499 H 0.90903 0.26959 0.719 0.0
C1500 C 0.92502 0.38784 0.73095 0.0
C1501 C 0.90264 0.39257 0.73476 0.0
C1502 C 0.92004 0.36318 0.72284 0.0
C1503 C 0.89251 0.34252 0.71851 0.0
C1504 C 0.87021 0.34764 0.72174 0.0
C1505 C 0.87525 0.37246 0.7297 0.0
C1506 C 0.86051 0.27511 0.69105 0.0
C1507 C 0.8759 0.26341 0.69864 0.0
C1508 C 0.8661 0.30086 0.69725 0.0
C1509 C 0.88703 0.31544 0.71138 0.0
C1510 C 0.90231 0.30365 0.71903 0.0
C1511 C 0.89687 0.278 0.71271 0.0
H1512 H 0.15143 0.97281 0.6375 0.0
H1513 H 0.21217 0.94594 0.63301 0.0
H1514 H 0.18757 0.01643 0.65064 0.0
H1515 H 0.24815 0.98898 0.64691 0.0
H1516 H 0.3131 0.07939 0.64859 0.0
H1517 H 0.27643 0.0348 0.63781 0.0
H1518 H 0.21706 0.04051 0.67701 0.0
H1519 H 0.25323 0.08577 0.68674 0.0
C1520 C 0.17241 0.97606 0.63977 0.0
C1521 C 0.17906 0.95609 0.63417 0.0
C1522 C 0.19318 1.00106 0.64734 0.0
C1523 C 0.22102 0.0065 0.64971 0.0
C1524 C 0.22723 0.98592 0.64485 0.0
C1525 C 0.20656 0.96113 0.63704 0.0
C1526 C 0.29224 0.07116 0.65495 0.0
C1527 C 0.28632 0.08618 0.66876 0.0
C1528 C 0.27118 0.04537 0.64888 0.0
C1529 C 0.24364 0.03376 0.65659 0.0
C1530 C 0.23784 0.04876 0.67054 0.0
C1531 C 0.2588 0.07468 0.67639 0.0
H1532 H 0.08036 0.25163 0.65634 0.0
H1533 H 0.0324 0.18524 0.61638 0.0
H1534 H 0.03651 0.24765 0.66943 0.0
H1535 H 0.98866 0.18086 0.62956 0.0
H1536 H 0.91437 0.16696 0.66865 0.0
H1537 H 0.95914 0.16911 0.66142 0.0
H1538 H 0.99879 0.25624 0.65373 0.0
H1539 H 0.95386 0.254 0.66087 0.0
C1540 C 0.06039 0.23589 0.65066 0.0
C1541 C 0.05963 0.21864 0.63546 0.0
C1542 C 0.03536 0.2337 0.65803 0.0
C1543 C 1.00911 0.21392 0.65054 0.0
C1544 C 1.00847 0.19609 0.6358 0.0
C1545 C 0.03346 0.19861 0.62822 0.0
C1546 C 0.93273 0.18662 0.66582 0.0
C1547 C 0.93073 0.21041 0.66567 0.0
C1548 C 0.95835 0.18783 0.66152 0.0
C1549 C 0.98255 0.21285 0.65703 0.0
C1550 C 0.98064 0.2367 0.65736 0.0
C1551 C 0.95493 0.23543 0.66136 0.0
H1552 H 0.84488 0.86857 0.634 0.0
H1553 H 0.75601 0.81136 0.6293 0.0
H1554 H 0.85216 0.83298 0.64815 0.0
H1555 H 0.76306 0.77582 0.64388 0.0
H1556 H 0.79109 0.71226 0.64698 0.0
H1557 H 0.78283 0.74817 0.63508 0.0
H1558 H 0.84442 0.80455 0.67622 0.0
H1559 H 0.85373 0.76905 0.68738 0.0
C1560 C 0.82682 0.84849 0.63635 0.0
C1561 C 0.7999 0.84272 0.63047 0.0
C1562 C 0.83096 0.82806 0.64449 0.0
C1563 C 0.80822 0.80142 0.64708 0.0
C1564 C 0.78115 0.79592 0.64173 0.0
C1565 C 0.77707 0.8163 0.63345 0.0
C1566 C 0.80287 0.73229 0.65353 0.0
C1567 C 0.82293 0.73763 0.66829 0.0
C1568 C 0.79794 0.75288 0.64681 0.0
C1569 C 0.81285 0.7793 0.65473 0.0
C1570 C 0.83274 0.78455 0.66962 0.0
C1571 C 0.83782 0.76403 0.67622 0.0
H1572 H 0.02125 0.807 0.60354 0.0
H1573 H 0.04362 0.85084 0.65884 0.0
H1574 H 0.98017 0.76921 0.61944 0.0
H1575 H 1.00167 0.81298 0.6747 0.0
H1576 H 0.89749 0.74759 0.67439 0.0
H1577 H 0.94241 0.78783 0.66527 0.0
H1578 H 0.97661 0.73597 0.65096 0.0
H1579 H 0.93221 0.69591 0.66077 0.0
C1580 C 0.01729 0.80855 0.6191 0.0
C1581 C 0.03565 0.83173 0.62997 0.0
C1582 C 0.99387 0.78693 0.62819 0.0
C1583 C 0.98794 0.78821 0.64827 0.0
C1584 C 1.00592 0.81158 0.65918 0.0
C1585 C 0.02987 0.83311 0.65014 0.0
C1586 C 0.91493 0.74489 0.67003 0.0
C1587 C 0.91155 0.71865 0.6686 0.0
C1588 C 0.94056 0.7679 0.66474 0.0
C1589 C 0.96285 0.76489 0.65741 0.0
C1590 C 0.95972 0.73877 0.65661 0.0
C1591 C 0.93437 0.71591 0.66221 0.0
H1592 H 0.17667 0.16295 0.61353 0.0
H1593 H 0.19462 0.22709 0.65531 0.0
H1594 H 0.21684 0.15982 0.62572 0.0
H1595 H 0.23544 0.22439 0.66724 0.0
H1596 H 0.32598 0.23227 0.65668 0.0
H1597 H 0.28328 0.23425 0.64933 0.0
H1598 H 0.2331 0.14748 0.65888 0.0
H1599 H 0.27566 0.14561 0.66648 0.0
C1600 C 0.18911 0.17623 0.62545 0.0
C1601 C 0.18245 0.19516 0.63351 0.0
C1602 C 0.21205 0.17438 0.63246 0.0
C1603 C 0.22928 0.19186 0.64743 0.0
C1604 C 0.22254 0.21072 0.65565 0.0
C1605 C 0.19913 0.21217 0.6489 0.0
C1606 C 0.30575 0.21373 0.65747 0.0
C1607 C 0.30407 0.18891 0.66257 0.0
C1608 C 0.28134 0.21487 0.65336 0.0
C1609 C 0.25485 0.19105 0.65364 0.0
C1610 C 0.25322 0.16617 0.65859 0.0
C1611 C 0.27756 0.16513 0.66307 0.0
H1612 H 0.8278 0.97307 0.65344 0.0
H1613 H 0.82941 0.00546 0.59519 0.0
H1614 H 0.83266 0.01454 0.66838 0.0
H1615 H 0.83431 0.04686 0.61007 0.0
H1616 H 0.87484 0.1071 0.68357 0.0
H1617 H 0.86853 0.06448 0.67027 0.0
H1618 H 0.80507 0.06008 0.63049 0.0
H1619 H 0.81104 0.10255 0.6439 0.0
C1620 C 0.82928 0.98907 0.64384 0.0
C1621 C 0.8282 0.98611 0.62315 0.0
C1622 C 0.83213 0.01283 0.65239 0.0
C1623 C 0.83368 0.03386 0.64039 0.0
C1624 C 0.83276 0.03085 0.6197 0.0
C1625 C 0.83016 0.00726 0.61118 0.0
C1626 C 0.85916 0.09685 0.67226 0.0
C1627 C 0.8433 0.10822 0.66494 0.0
C1628 C 0.8556 0.07242 0.66461 0.0
C1629 C 0.83637 0.05899 0.64931 0.0
C1630 C 0.82029 0.07015 0.64214 0.0
C1631 C 0.82365 0.09445 0.6499 0.0
H1632 H 0.50457 0.39175 0.71123 0.0
H1633 H 0.53223 0.34796 0.74868 0.0
H1634 H 0.46626 0.3482 0.69879 0.0
H1635 H 0.49465 0.30472 0.73585 0.0
H1636 H 0.44592 0.23838 0.68829 0.0
H1637 H 0.48311 0.28315 0.6987 0.0
H1638 H 0.42094 0.30373 0.71778 0.0
H1639 H 0.38331 0.25845 0.7077 0.0
C1640 C 0.50264 0.37286 0.71661 0.0
C1641 C 0.5214 0.37311 0.73081 0.0
C1642 C 0.48068 0.34804 0.7096 0.0
C1643 C 0.47763 0.32322 0.71638 0.0
C1644 C 0.49667 0.32359 0.73034 0.0
C1645 C 0.51811 0.34828 0.73766 0.0
C1646 C 0.44006 0.25244 0.69459 0.0
C1647 C 0.41162 0.24483 0.69723 0.0
C1648 C 0.46139 0.27803 0.70057 0.0
C1649 C 0.45482 0.29681 0.70899 0.0
C1650 C 0.42647 0.2896 0.7112 0.0
C1651 C 0.40501 0.26369 0.70556 0.0
H1652 H 0.67199 0.13494 0.76156 0.0
H1653 H 0.65173 0.15798 0.70571 0.0
H1654 H 0.71445 0.13858 0.74687 0.0
H1655 H 0.69519 0.16247 0.69105 0.0
H1656 H 0.79971 0.20027 0.69349 0.0
H1657 H 0.75384 0.19556 0.70177 0.0
H1658 H 0.72151 0.11078 0.71594 0.0
H1659 H 0.76683 0.11517 0.70698 0.0
C1660 C 0.67667 0.14083 0.74612 0.0
C1661 C 0.65847 0.14602 0.73478 0.0
C1662 C 0.70095 0.14286 0.73772 0.0
C1663 C 0.70804 0.15073 0.71784 0.0
C1664 C 0.69014 0.15637 0.70643 0.0
C1665 C 0.6653 0.15369 0.71478 0.0
C1666 C 0.78252 0.18044 0.6977 0.0
C1667 C 0.78669 0.15793 0.69921 0.0
C1668 C 0.75632 0.17778 0.7025 0.0
C1669 C 0.73415 0.15278 0.70946 0.0
C1670 C 0.73821 0.13023 0.71055 0.0
C1671 C 0.76413 0.13276 0.70544 0.0
H1672 H 0.87859 0.52971 0.77187 0.0
H1673 H 0.87679 0.49714 0.71376 0.0
H1674 H 0.8707 0.56468 0.75712 0.0
H1675 H 0.86907 0.5323 0.69893 0.0
H1676 H 0.88939 0.64108 0.72274 0.0
H1677 H 0.89713 0.60545 0.73602 0.0
H1678 H 0.83274 0.54665 0.69769 0.0
H1679 H 0.82476 0.58228 0.6844 0.0
C1680 C 0.87647 0.53005 0.75593 0.0
C1681 C 0.87837 0.5108 0.74398 0.0
C1682 C 0.87213 0.55015 0.74748 0.0
C1683 C 0.86947 0.55137 0.72685 0.0
C1684 C 0.87089 0.53179 0.71488 0.0
C1685 C 0.87542 0.51173 0.72336 0.0
C1686 C 0.8769 0.62061 0.71704 0.0
C1687 C 0.85652 0.61464 0.7024 0.0
C1688 C 0.88128 0.60015 0.72474 0.0
C1689 C 0.86546 0.57321 0.71797 0.0
C1690 C 0.84545 0.56727 0.70306 0.0
C1691 C 0.84093 0.58774 0.69543 0.0
H1692 H 0.45647 0.95156 0.25177 0.0
H1693 H 0.46207 0.88403 0.22745 0.0
H1694 H 0.47228 0.97574 0.22004 0.0
H1695 H 0.47719 0.90806 0.19537 0.0
H1696 H 0.46714 0.95896 0.13878 0.0
H1697 H 0.45127 0.93096 0.16888 0.0
H1698 H 0.5245 0.99121 0.19976 0.0
H1699 H 0.54151 0.01848 0.16961 0.0
C1700 C 0.46072 0.94177 0.23953 0.0
C1701 C 0.45801 0.91594 0.24201 0.0
C1702 C 0.46984 0.95562 0.22146 0.0
C1703 C 0.47588 0.94368 0.20536 0.0
C1704 C 0.47253 0.91757 0.2076 0.0
C1705 C 0.464 0.90393 0.22588 0.0
C1706 C 0.48029 0.96604 0.15178 0.0
C1707 C 0.50555 0.99132 0.15165 0.0
C1708 C 0.47105 0.95001 0.16904 0.0
C1709 C 0.4866 0.95913 0.18658 0.0
C1710 C 0.51203 0.98393 0.18643 0.0
C1711 C 0.52157 0.99965 0.16914 0.0
H1712 H 0.1107 0.52113 0.22612 0.0
H1713 H 0.05191 0.5397 0.25486 0.0
H1714 H 0.08694 0.51582 0.19459 0.0
H1715 H 0.02755 0.53362 0.22357 0.0
H1716 H 1.01135 0.55277 0.16128 0.0
H1717 H 0.03429 0.55615 0.19276 0.0
H1718 H 0.04527 0.48833 0.1762 0.0
H1719 H 0.02292 0.48554 0.14442 0.0
C1720 C 0.09241 0.52364 0.22572 0.0
C1721 C 0.08323 0.53098 0.24288 0.0
C1722 C 0.07872 0.52055 0.20768 0.0
C1723 C 0.0554 0.52448 0.20646 0.0
C1724 C 0.04581 0.53106 0.22382 0.0
C1725 C 0.05966 0.53441 0.24178 0.0
C1726 C 0.01852 0.53849 0.16444 0.0
C1727 C 0.01529 0.51886 0.15044 0.0
C1728 C 0.03159 0.54034 0.18252 0.0
C1729 C 0.04152 0.5224 0.18713 0.0
C1730 C 0.03824 0.50272 0.17307 0.0
C1731 C 0.02538 0.50105 0.15488 0.0
H1732 H 0.50422 0.60163 0.23126 0.0
H1733 H 0.46242 0.5155 0.24478 0.0
H1734 H 0.51965 0.59316 0.1995 0.0
H1735 H 0.4772 0.50706 0.21257 0.0
H1736 H 0.57388 0.56907 0.16067 0.0
H1737 H 0.55414 0.57673 0.19086 0.0
H1738 H 0.47171 0.51181 0.17469 0.0
H1739 H 0.49154 0.50421 0.14428 0.0
C1740 C 0.49826 0.58087 0.22748 0.0
C1741 C 0.48245 0.55931 0.24079 0.0
C1742 C 0.50701 0.57605 0.20923 0.0
C1743 C 0.49984 0.54951 0.20367 0.0
C1744 C 0.4829 0.52773 0.21646 0.0
C1745 C 0.47439 0.53258 0.23489 0.0
C1746 C 0.55155 0.55644 0.16357 0.0
C1747 C 0.53424 0.53602 0.15018 0.0
C1748 C 0.54022 0.56094 0.18076 0.0
C1749 C 0.51139 0.54489 0.18508 0.0
C1750 C 0.49402 0.5244 0.17173 0.0
C1751 C 0.50531 0.52017 0.15433 0.0
H1752 H 0.97932 0.45176 0.77893 0.0
H1753 H 0.91554 0.46162 0.80919 0.0
H1754 H 1.00553 0.46092 0.8097 0.0
H1755 H 0.94134 0.47015 0.84017 0.0
H1756 H 1.00685 0.50639 0.88924 0.0
H1757 H 0.98288 0.50128 0.85781 0.0
H1758 H 1.00172 0.43867 0.84047 0.0
H1759 H 0.02606 0.44423 0.87165 0.0
C1760 C 0.97091 0.45585 0.79221 0.0
C1761 C 0.94534 0.45585 0.79171 0.0
C1762 C 0.98584 0.46098 0.80987 0.0
C1763 C 0.97543 0.466 0.82749 0.0
C1764 C 0.95016 0.46667 0.82685 0.0
C1765 C 0.93533 0.46174 0.80912 0.0
C1766 C 1.00576 0.4915 0.8787 0.0
C1767 C 0.01841 0.47577 0.88287 0.0
C1768 C 0.992 0.48853 0.86071 0.0
C1769 C 0.99043 0.46964 0.84654 0.0
C1770 C 1.00302 0.45384 0.85082 0.0
C1771 C 0.01691 0.45695 0.86872 0.0
H1772 H 0.55724 0.43835 0.79932 0.0
H1773 H 0.58971 0.52383 0.78668 0.0
H1774 H 0.53987 0.4438 0.83133 0.0
H1775 H 0.57332 0.5293 0.8191 0.0
H1776 H 0.55972 0.52997 0.88738 0.0
H1777 H 0.58097 0.52482 0.85679 0.0
H1778 H 0.50132 0.45545 0.84075 0.0
H1779 H 0.4801 0.46075 0.87114 0.0
C1780 C 0.56076 0.45831 0.80332 0.0
C1781 C 0.57462 0.48057 0.7902 0.0
C1782 C 0.55092 0.46141 0.82172 0.0
C1783 C 0.55513 0.48693 0.82762 0.0
C1784 C 0.56999 0.50944 0.81497 0.0
C1785 C 0.57947 0.50628 0.79641 0.0
C1786 C 0.54687 0.51356 0.87734 0.0
C1787 C 0.51827 0.49581 0.88154 0.0
C1788 C 0.55896 0.51071 0.85984 0.0
C1789 C 0.54278 0.48972 0.84646 0.0
C1790 C 0.51433 0.47167 0.85089 0.0
C1791 C 0.50215 0.47482 0.86817 0.0
H1792 H 0.51735 0.11592 0.80025 0.0
H1793 H 0.56195 0.07324 0.78576 0.0
H1794 H 0.50311 0.09194 0.83194 0.0
H1795 H 0.54862 0.05025 0.81788 0.0
H1796 H 0.53975 0.03465 0.88601 0.0
H1797 H 0.55632 0.06157 0.85531 0.0
H1798 H 0.47138 0.04204 0.84232 0.0
H1799 H 0.45487 0.01505 0.8728 0.0
C1800 C 0.5241 0.10141 0.80372 0.0
C1801 C 0.54071 0.09649 0.79023 0.0
C1802 C 0.51605 0.08781 0.82198 0.0
C1803 C 0.52476 0.06923 0.82739 0.0
C1804 C 0.54187 0.0647 0.8142 0.0
C1805 C 0.54958 0.078 0.79579 0.0
C1806 C 0.52473 0.03635 0.87664 0.0
C1807 C 0.49602 0.02271 0.88174 0.0
C1808 C 0.53415 0.05157 0.85904 0.0
C1809 C 0.51513 0.05387 0.84641 0.0
C1810 C 0.48655 0.04079 0.85181 0.0
C1811 C 0.47708 0.02522 0.86919 0.0
H1812 H 0.12769 0.21862 0.56226 0.0
H1813 H 0.12408 0.28701 0.58696 0.0
H1814 H 0.14243 0.24242 0.53011 0.0
H1815 H 0.13954 0.31099 0.55511 0.0
H1816 H 0.20659 0.35319 0.50376 0.0
H1817 H 0.18997 0.32668 0.53424 0.0
H1818 H 0.11761 0.26451 0.50372 0.0
H1819 H 0.13304 0.29175 0.47325 0.0
C1820 C 0.13003 0.23869 0.56077 0.0
C1821 C 0.1247 0.251 0.57703 0.0
C1822 C 0.13833 0.25221 0.54243 0.0
C1823 C 0.14212 0.27849 0.54023 0.0
C1824 C 0.13679 0.29075 0.55648 0.0
C1825 C 0.12787 0.27702 0.57463 0.0
C1826 C 0.18689 0.33411 0.50344 0.0
C1827 C 0.17099 0.32502 0.48591 0.0
C1828 C 0.17756 0.31883 0.52093 0.0
C1829 C 0.15249 0.2937 0.5213 0.0
C1830 C 0.13709 0.28384 0.50374 0.0
C1831 C 0.1461 0.29944 0.48627 0.0
H1832 H 0.79578 0.89966 0.55601 0.0
H1833 H 0.72227 0.83891 0.5872 0.0
H1834 H 0.76925 0.88843 0.52527 0.0
H1835 H 0.69491 0.82866 0.55685 0.0
H1836 H 0.65847 0.79856 0.49602 0.0
H1837 H 0.6862 0.80827 0.52612 0.0
H1838 H 0.73546 0.89289 0.50827 0.0
H1839 H 0.70873 0.88243 0.47765 0.0
C1840 C 0.77378 0.88405 0.55623 0.0
C1841 C 0.76098 0.87009 0.57384 0.0
C1842 C 0.75844 0.87772 0.53868 0.0
C1843 C 0.72975 0.85768 0.53845 0.0
C1844 C 0.71703 0.84381 0.55624 0.0
C1845 C 0.73258 0.84977 0.57369 0.0
C1846 C 0.67532 0.81917 0.49863 0.0
C1847 C 0.68159 0.83977 0.48462 0.0
C1848 C 0.69112 0.82486 0.51593 0.0
C1849 C 0.71317 0.85144 0.51981 0.0
C1850 C 0.71914 0.87206 0.50572 0.0
C1851 C 0.70372 0.8662 0.48822 0.0
H1852 H 0.13208 0.85108 0.5796 0.0
H1853 H 0.17789 0.93713 0.56559 0.0
H1854 H 0.14632 0.84126 0.54773 0.0
H1855 H 0.19291 0.92722 0.53419 0.0
H1856 H 0.24183 0.89797 0.49404 0.0
H1857 H 0.22467 0.90777 0.52467 0.0
H1858 H 0.13989 0.84617 0.51013 0.0
H1859 H 0.15711 0.83645 0.47933 0.0
C1860 C 0.14494 0.86789 0.56972 0.0
C1861 C 0.15397 0.89495 0.57532 0.0
C1862 C 0.15315 0.86223 0.55149 0.0
C1863 C 0.17084 0.88349 0.53857 0.0
C1864 C 0.17958 0.91046 0.544 0.0
C1865 C 0.17108 0.91611 0.56207 0.0
C1866 C 0.21953 0.88654 0.4974 0.0
C1867 C 0.20079 0.86643 0.48436 0.0
C1868 C 0.2097 0.89226 0.51484 0.0
C1869 C 0.18096 0.87772 0.51976 0.0
C1870 C 0.16217 0.85757 0.50674 0.0
C1871 C 0.17197 0.85215 0.48909 0.0
H1872 H 0.64723 0.78179 0.1114 0.0
H1873 H 0.58401 0.79563 0.1383 0.0
H1874 H 0.67186 0.79132 0.14287 0.0
H1875 H 0.608 0.80426 0.17008 0.0
H1876 H 0.67181 0.84165 0.22019 0.0
H1877 H 0.64833 0.83484 0.18834 0.0
H1878 H 0.66747 0.77139 0.17429 0.0
H1879 H 0.69165 0.77895 0.20577 0.0
C1880 C 0.63856 0.78675 0.12413 0.0
C1881 C 0.61371 0.7879 0.12247 0.0
C1882 C 0.65256 0.79207 0.14221 0.0
C1883 C 0.64182 0.79831 0.15914 0.0
C1884 C 0.61712 0.79986 0.15734 0.0
C1885 C 0.6033 0.79485 0.13916 0.0
C1886 C 0.67086 0.82622 0.21026 0.0
C1887 C 0.68367 0.81094 0.21537 0.0
C1888 C 0.65735 0.82223 0.19203 0.0
C1889 C 0.65609 0.80265 0.17862 0.0
C1890 C 0.66857 0.7871 0.18397 0.0
C1891 C 0.68233 0.79132 0.20207 0.0
H1892 H 0.23968 0.77924 0.13776 0.0
H1893 H 0.24292 0.85101 0.1131 0.0
H1894 H 0.22585 0.7888 0.16988 0.0
H1895 H 0.22752 0.85989 0.14464 0.0
H1896 H 0.2205 0.88335 0.20677 0.0
H1897 H 0.23944 0.87475 0.17663 0.0
H1898 H 0.18931 0.78798 0.18765 0.0
H1899 H 0.17207 0.79711 0.21848 0.0
C1900 C 0.23722 0.79698 0.13925 0.0
C1901 C 0.24248 0.81448 0.12304 0.0
C1902 C 0.2291 0.80242 0.15761 0.0
C1903 C 0.22548 0.82519 0.16005 0.0
C1904 C 0.23069 0.84255 0.14365 0.0
C1905 C 0.23936 0.83741 0.12547 0.0
C1906 C 0.21387 0.86251 0.20274 0.0
C1907 C 0.1949 0.84087 0.21481 0.0
C1908 C 0.22446 0.85747 0.18537 0.0
C1909 C 0.21574 0.83059 0.17939 0.0
C1910 C 0.19695 0.80896 0.19178 0.0
C1911 C 0.18686 0.8141 0.2094 0.0
H1912 H 0.18301 0.44367 0.13342 0.0
H1913 H 0.23047 0.40365 0.11948 0.0
H1914 H 0.16896 0.41953 0.16504 0.0
H1915 H 0.21726 0.38047 0.15155 0.0
H1916 H 0.20781 0.36488 0.21976 0.0
H1917 H 0.22405 0.3917 0.189 0.0
H1918 H 0.13853 0.36959 0.17538 0.0
H1919 H 0.12236 0.34272 0.20593 0.0
C1920 C 0.1904 0.42969 0.13699 0.0
C1921 C 0.20777 0.42556 0.12367 0.0
C1922 C 0.18247 0.41599 0.15521 0.0
C1923 C 0.19201 0.39812 0.16077 0.0
C1924 C 0.20984 0.39437 0.14775 0.0
C1925 C 0.21747 0.40777 0.12938 0.0
C1926 C 0.19258 0.36599 0.21024 0.0
C1927 C 0.16383 0.35168 0.21519 0.0
C1928 C 0.20182 0.38114 0.1926 0.0
C1929 C 0.18254 0.3827 0.17978 0.0
C1930 C 0.15389 0.36892 0.18501 0.0
C1931 C 0.14463 0.35342 0.20243 0.0
H1932 H 0.83914 0.60536 0.91524 0.0
H1933 H 0.7511 0.57352 0.90222 0.0
H1934 H 0.85174 0.62844 0.8832 0.0
H1935 H 0.76416 0.59819 0.87073 0.0
H1936 H 0.80963 0.67878 0.83069 0.0
H1937 H 0.79404 0.65145 0.8612 0.0
H1938 H 0.84193 0.61288 0.8449 0.0
H1939 H 0.85692 0.63974 0.81407 0.0
C1940 C 0.82239 0.60302 0.9056 0.0
C1941 C 0.79399 0.58732 0.91151 0.0
C1942 C 0.82971 0.61643 0.88725 0.0
C1943 C 0.80892 0.61502 0.8745 0.0
C1944 C 0.78061 0.5997 0.88036 0.0
C1945 C 0.7732 0.58578 0.89852 0.0
C1946 C 0.81651 0.6642 0.83356 0.0
C1947 C 0.83441 0.66127 0.82008 0.0
C1948 C 0.80757 0.64857 0.85094 0.0
C1949 C 0.81688 0.63016 0.8554 0.0
C1950 C 0.83456 0.62702 0.84182 0.0
C1951 C 0.84299 0.64222 0.82419 0.0
H1952 H 0.43665 0.17389 0.89519 0.0
H1953 H 0.41097 0.23172 0.91275 0.0
H1954 H 0.40892 0.16425 0.86505 0.0
H1955 H 0.38492 0.22319 0.88195 0.0
H1956 H 0.3767 0.22144 0.81142 0.0
H1957 H 0.40305 0.2298 0.84238 0.0
H1958 H 0.35149 0.14507 0.85849 0.0
H1959 H 0.32458 0.13688 0.8278 0.0
C1960 C 0.42503 0.18443 0.89278 0.0
C1961 C 0.42619 0.20366 0.90652 0.0
C1962 C 0.40935 0.17902 0.87543 0.0
C1963 C 0.39503 0.19312 0.87126 0.0
C1964 C 0.39609 0.21229 0.88483 0.0
C1965 C 0.41122 0.21728 0.90239 0.0
C1966 C 0.37106 0.20469 0.82163 0.0
C1967 C 0.34869 0.17857 0.8174 0.0
C1968 C 0.38599 0.20946 0.83927 0.0
C1969 C 0.37918 0.18804 0.85267 0.0
C1970 C 0.35709 0.16183 0.8483 0.0
C1971 C 0.34172 0.15719 0.83087 0.0
H1972 H 0.79504 0.18448 0.91211 0.0
H1973 H 0.84055 0.27091 0.89948 0.0
H1974 H 0.809 0.17567 0.87975 0.0
H1975 H 0.85521 0.26202 0.86755 0.0
H1976 H 0.90587 0.2347 0.82751 0.0
H1977 H 0.88754 0.24351 0.85795 0.0
H1978 H 0.80358 0.1813 0.84217 0.0
H1979 H 0.82201 0.17255 0.81153 0.0
C1980 C 0.80768 0.20158 0.90239 0.0
C1981 C 0.81691 0.22845 0.90858 0.0
C1982 C 0.81573 0.19651 0.88387 0.0
C1983 C 0.83341 0.21818 0.87123 0.0
C1984 C 0.84194 0.24494 0.87713 0.0
C1985 C 0.83364 0.25 0.8955 0.0
C1986 C 0.8835 0.22294 0.83053 0.0
C1987 C 0.86537 0.2029 0.8172 0.0
C1988 C 0.87298 0.2281 0.84787 0.0
C1989 C 0.84413 0.2131 0.85241 0.0
C1990 C 0.82593 0.19307 0.83907 0.0
C1991 C 0.83642 0.18819 0.82152 0.0
H1992 H 0.31338 0.11662 0.44516 0.0
H1993 H 0.24864 0.12586 0.47454 0.0
H1994 H 0.33978 0.12747 0.47596 0.0
H1995 H 0.27456 0.13599 0.50554 0.0
H1996 H 0.33987 0.17594 0.55414 0.0
H1997 H 0.31559 0.16865 0.52259 0.0
H1998 H 0.3373 0.10731 0.50735 0.0
H1999 H 0.36208 0.11516 0.53862 0.0
C2000 C 0.30478 0.12089 0.45827 0.0
C2001 C 0.27895 0.12034 0.4575 0.0
C2002 C 0.31982 0.12699 0.47594 0.0
C2003 C 0.30923 0.13241 0.49331 0.0
C2004 C 0.28357 0.1323 0.49242 0.0
C2005 C 0.26866 0.12644 0.47468 0.0
C2006 C 0.33936 0.16088 0.54402 0.0
C2007 C 0.35291 0.14617 0.54879 0.0
C2008 C 0.32541 0.15664 0.52597 0.0
C2009 C 0.32451 0.13743 0.51237 0.0
C2010 C 0.33804 0.12268 0.51725 0.0
C2011 C 0.35217 0.12709 0.5352 0.0
H2012 H 0.94984 0.17743 0.46586 0.0
H2013 H 0.86236 0.12285 0.45193 0.0
H2014 H 0.93563 0.1886 0.49723 0.0
H2015 H 0.84867 0.13286 0.48382 0.0
H2016 H 0.84322 0.13629 0.55319 0.0
H2017 H 0.85977 0.12594 0.5223 0.0
H2018 H 0.90265 0.21116 0.50635 0.0
H2019 H 0.88545 0.2214 0.53696 0.0
C2020 C 0.92764 0.16787 0.46934 0.0
C2021 C 0.90732 0.14911 0.45622 0.0
C2022 C 0.91959 0.17414 0.4874 0.0
C2023 C 0.89112 0.16137 0.49293 0.0
C2024 C 0.8708 0.14265 0.47998 0.0
C2025 C 0.87875 0.13682 0.46175 0.0
C2026 C 0.85636 0.15277 0.54312 0.0
C2027 C 0.86306 0.17959 0.54733 0.0
C2028 C 0.8657 0.14686 0.52549 0.0
C2029 C 0.88242 0.16779 0.51203 0.0
C2030 C 0.88988 0.19473 0.51656 0.0
C2031 C 0.88 0.20055 0.53396 0.0
H2032 H 0.91337 0.78898 0.47088 0.0
H2033 H 0.83403 0.72759 0.44711 0.0
H2034 H 0.9 0.76661 0.50338 0.0
H2035 H 0.82103 0.70466 0.47907 0.0
H2036 H 0.79097 0.68247 0.54152 0.0
H2037 H 0.80639 0.70834 0.51073 0.0
H2038 H 0.89189 0.72834 0.5227 0.0
H2039 H 0.87631 0.70326 0.55409 0.0
C2040 C 0.8932 0.77054 0.47258 0.0
C2041 C 0.87461 0.7602 0.45652 0.0
C2042 C 0.88553 0.75764 0.49119 0.0
C2043 C 0.85921 0.73391 0.49407 0.0
C2044 C 0.84108 0.72329 0.47773 0.0
C2045 C 0.84858 0.73634 0.4593 0.0
C2046 C 0.81309 0.69255 0.5376 0.0
C2047 C 0.8324 0.69068 0.55011 0.0
C2048 C 0.82197 0.70724 0.51984 0.0
C2049 C 0.85039 0.72012 0.51388 0.0
C2050 C 0.86989 0.71891 0.52676 0.0
C2051 C 0.86099 0.70448 0.54474 0.0
loop_
_geom_bond_atom_site_label_1
_geom_bond_atom_site_label_2
_geom_bond_distance
_geom_bond_site_symmetry_2
_ccdc_geom_bond_type
H0 C5 0.930 . S
H1 C8 0.930 . S
H2 C10 0.930 . S
H3 C4 1.016 . S
C4 H3 1.016 . S
C4 N11 1.286 . S
C5 H0 0.930 . S
C5 C6 1.397 . S
C5 C7 1.361 . S
C6 C5 1.397 . S
C6 C10 1.390 . S
C7 C5 1.361 . S
C7 C8 1.393 . S
C7 N11 1.413 . S
C8 H1 0.930 . S
C8 C7 1.393 . S
C8 C9 1.399 . S
C9 C8 1.399 . S
C9 C10 1.381 . S
C10 H2 0.930 . S
C10 C6 1.390 . S
C10 C9 1.381 . S
N11 C4 1.286 . S
N11 C7 1.413 . S
H12 C17 0.930 . S
H13 C20 0.930 . S
H14 C22 0.930 . S
H15 C16 1.016 . S
C16 H15 1.016 . S
C16 N23 1.286 . S
C17 H12 0.930 . S
C17 C18 1.397 . S
C17 C19 1.361 . S
C18 C17 1.397 . S
C18 C22 1.390 . S
C19 C17 1.361 . S
C19 C20 1.393 . S
C19 N23 1.413 . S
C20 H13 0.930 . S
C20 C19 1.393 . S
C20 C21 1.399 . S
C21 C20 1.399 . S
C21 C22 1.381 . S
C22 H14 0.930 . S
C22 C18 1.390 . S
C22 C21 1.381 . S
N23 C16 1.286 . S
N23 C19 1.413 . S
H24 C29 0.930 . S
H25 C32 0.930 . S
H26 C34 0.930 . S
H27 C28 1.016 . S
C28 H27 1.016 . S
C28 N35 1.286 . S
C29 H24 0.930 . S
C29 C30 1.397 . S
C29 C31 1.361 . S
C30 C29 1.397 . S
C30 C34 1.390 . S
C31 C29 1.361 . S
C31 C32 1.393 . S
C31 N35 1.413 . S
C32 H25 0.930 . S
C32 C31 1.393 . S
C32 C33 1.399 . S
C33 C32 1.399 . S
C33 C34 1.381 . S
C34 H26 0.930 . S
C34 C30 1.390 . S
C34 C33 1.381 . S
N35 C28 1.286 . S
N35 C31 1.413 . S
H36 C41 0.930 . S
H37 C44 0.930 . S
H38 C46 0.930 . S
H39 C40 1.016 . S
C40 H39 1.016 . S
C40 N47 1.286 . S
C41 H36 0.930 . S
C41 C42 1.397 . S
C41 C43 1.361 . S
C42 C41 1.397 . S
C42 C46 1.390 . S
C43 C41 1.361 . S
C43 C44 1.393 . S
C43 N47 1.413 . S
C44 H37 0.930 . S
C44 C43 1.393 . S
C44 C45 1.399 . S
C45 C44 1.399 . S
C45 C46 1.381 . S
C46 H38 0.930 . S
C46 C42 1.390 . S
C46 C45 1.381 . S
N47 C40 1.286 . S
N47 C43 1.413 . S
H48 C53 0.930 . S
H49 C56 0.930 . S
H50 C58 0.930 . S
H51 C52 1.016 . S
C52 H51 1.016 . S
C52 N59 1.286 . S
C53 H48 0.930 . S
C53 C54 1.397 . S
C53 C55 1.361 . S
C54 C53 1.397 . S
C54 C58 1.390 . S
C55 C53 1.361 . S
C55 C56 1.393 . S
C55 N59 1.413 . S
C56 H49 0.930 . S
C56 C55 1.393 . S
C56 C57 1.399 . S
C57 C56 1.399 . S
C57 C58 1.381 . S
C58 H50 0.930 . S
C58 C54 1.390 . S
C58 C57 1.381 . S
N59 C52 1.286 . S
N59 C55 1.413 . S
H60 C65 0.930 . S
H61 C68 0.930 . S
H62 C70 0.930 . S
H63 C64 1.016 . S
C64 H63 1.016 . S
C64 N71 1.286 . S
C65 H60 0.930 . S
C65 C66 1.397 . S
C65 C67 1.361 . S
C66 C65 1.397 . S
C66 C70 1.390 . S
C67 C65 1.361 . S
C67 C68 1.393 . S
C67 N71 1.413 . S
C68 H61 0.930 . S
C68 C67 1.393 . S
C68 C69 1.399 . S
C69 C68 1.399 . S
C69 C70 1.381 . S
C70 H62 0.930 . S
C70 C66 1.390 . S
C70 C69 1.381 . S
N71 C64 1.286 . S
N71 C67 1.413 . S
H72 C77 0.930 . S
H73 C80 0.930 . S
H74 C82 0.930 . S
H75 C76 1.016 . S
C76 H75 1.016 . S
C76 N83 1.286 . S
C77 H72 0.930 . S
C77 C78 1.397 . S
C77 C79 1.361 . S
C78 C77 1.397 . S
C78 C82 1.390 . S
C79 C77 1.361 . S
C79 C80 1.393 . S
C79 N83 1.413 . S
C80 H73 0.930 . S
C80 C79 1.393 . S
C80 C81 1.399 . S
C81 C80 1.399 . S
C81 C82 1.381 . S
C82 H74 0.930 . S
C82 C78 1.390 . S
C82 C81 1.381 . S
N83 C76 1.286 . S
N83 C79 1.413 . S
H84 C89 0.930 . S
H85 C92 0.930 . S
H86 C94 0.930 . S
H87 C88 1.016 . S
C88 H87 1.016 . S
C88 N95 1.286 . S
C89 H84 0.930 . S
C89 C90 1.397 . S
C89 C91 1.361 . S
C90 C89 1.397 . S
C90 C94 1.390 . S
C91 C89 1.361 . S
C91 C92 1.393 . S
C91 N95 1.413 . S
C92 H85 0.930 . S
C92 C91 1.393 . S
C92 C93 1.399 . S
C93 C92 1.399 . S
C93 C94 1.381 . S
C94 H86 0.930 . S
C94 C90 1.390 . S
C94 C93 1.381 . S
N95 C88 1.286 . S
N95 C91 1.413 . S
H96 C101 0.930 . S
H97 C104 0.930 . S
H98 C106 0.930 . S
H99 C100 1.016 . S
C100 H99 1.016 . S
C100 N107 1.286 . S
C101 H96 0.930 . S
C101 C102 1.397 . S
C101 C103 1.361 . S
C102 C101 1.397 . S
C102 C106 1.390 . S
C103 C101 1.361 . S
C103 C104 1.393 . S
C103 N107 1.413 . S
C104 H97 0.930 . S
C104 C103 1.393 . S
C104 C105 1.399 . S
C105 C104 1.399 . S
C105 C106 1.381 . S
C106 H98 0.930 . S
C106 C102 1.390 . S
C106 C105 1.381 . S
N107 C100 1.286 . S
N107 C103 1.413 . S
H108 C113 0.930 . S
H109 C116 0.930 . S
H110 C118 0.930 . S
H111 C112 1.016 . S
C112 H111 1.016 . S
C112 N119 1.286 . S
C113 H108 0.930 . S
C113 C114 1.397 . S
C113 C115 1.361 . S
C114 C113 1.397 . S
C114 C118 1.390 . S
C115 C113 1.361 . S
C115 C116 1.393 . S
C115 N119 1.413 . S
C116 H109 0.930 . S
C116 C115 1.393 . S
C116 C117 1.399 . S
C117 C116 1.399 . S
C117 C118 1.381 . S
C118 H110 0.930 . S
C118 C114 1.390 . S
C118 C117 1.381 . S
N119 C112 1.286 . S
N119 C115 1.413 . S
H120 C125 0.930 . S
H121 C128 0.930 . S
H122 C130 0.930 . S
H123 C124 1.016 . S
C124 H123 1.016 . S
C124 N131 1.286 . S
C125 H120 0.930 . S
C125 C126 1.397 . S
C125 C127 1.361 . S
C126 C125 1.397 . S
C126 C130 1.390 . S
C127 C125 1.361 . S
C127 C128 1.393 . S
C127 N131 1.413 . S
C128 H121 0.930 . S
C128 C127 1.393 . S
C128 C129 1.399 . S
C129 C128 1.399 . S
C129 C130 1.381 . S
C130 H122 0.930 . S
C130 C126 1.390 . S
C130 C129 1.381 . S
N131 C124 1.286 . S
N131 C127 1.413 . S
H132 C137 0.930 . S
H133 C140 0.930 . S
H134 C142 0.930 . S
H135 C136 1.016 . S
C136 H135 1.016 . S
C136 N143 1.286 . S
C137 H132 0.930 . S
C137 C138 1.397 . S
C137 C139 1.361 . S
C138 C137 1.397 . S
C138 C142 1.390 . S
C139 C137 1.361 . S
C139 C140 1.393 . S
C139 N143 1.413 . S
C140 H133 0.930 . S
C140 C139 1.393 . S
C140 C141 1.399 . S
C141 C140 1.399 . S
C141 C142 1.381 . S
C142 H134 0.930 . S
C142 C138 1.390 . S
C142 C141 1.381 . S
N143 C136 1.286 . S
N143 C139 1.413 . S
H144 C149 0.930 . S
H145 C152 0.930 . S
H146 C154 0.930 . S
H147 C148 1.016 . S
C148 H147 1.016 . S
C148 N155 1.286 . S
C149 H144 0.930 . S
C149 C150 1.397 . S
C149 C151 1.361 . S
C150 C149 1.397 . S
C150 C154 1.390 . S
C151 C149 1.361 . S
C151 C152 1.393 . S
C151 N155 1.413 . S
C152 H145 0.930 . S
C152 C151 1.393 . S
C152 C153 1.399 . S
C153 C152 1.399 . S
C153 C154 1.381 . S
C154 H146 0.930 . S
C154 C150 1.390 . S
C154 C153 1.381 . S
N155 C148 1.286 . S
N155 C151 1.413 . S
H156 C161 0.930 . S
H157 C164 0.930 . S
H158 C166 0.930 . S
H159 C160 1.016 . S
C160 H159 1.016 . S
C160 N167 1.286 . S
C161 H156 0.930 . S
C161 C162 1.397 . S
C161 C163 1.361 . S
C162 C161 1.397 . S
C162 C166 1.390 . S
C163 C161 1.361 . S
C163 C164 1.393 . S
C163 N167 1.413 . S
C164 H157 0.930 . S
C164 C163 1.393 . S
C164 C165 1.399 . S
C165 C164 1.399 . S
C165 C166 1.381 . S
C166 H158 0.930 . S
C166 C162 1.390 . S
C166 C165 1.381 . S
N167 C160 1.286 . S
N167 C163 1.413 . S
H168 C173 0.930 . S
H169 C176 0.930 . S
H170 C178 0.930 . S
H171 C172 1.016 . S
C172 H171 1.016 . S
C172 N179 1.286 . S
C173 H168 0.930 . S
C173 C174 1.397 . S
C173 C175 1.361 . S
C174 C173 1.397 . S
C174 C178 1.390 . S
C175 C173 1.361 . S
C175 C176 1.393 . S
C175 N179 1.413 . S
C176 H169 0.930 . S
C176 C175 1.393 . S
C176 C177 1.399 . S
C177 C176 1.399 . S
C177 C178 1.381 . S
C178 H170 0.930 . S
C178 C174 1.390 . S
C178 C177 1.381 . S
N179 C172 1.286 . S
N179 C175 1.413 . S
H180 C185 0.930 . S
H181 C188 0.930 . S
H182 C190 0.930 . S
H183 C184 1.016 . S
C184 H183 1.016 . S
C184 N191 1.286 . S
C185 H180 0.930 . S
C185 C186 1.397 . S
C185 C187 1.361 . S
C186 C185 1.397 . S
C186 C190 1.390 . S
C187 C185 1.361 . S
C187 C188 1.393 . S
C187 N191 1.413 . S
C188 H181 0.930 . S
C188 C187 1.393 . S
C188 C189 1.399 . S
C189 C188 1.399 . S
C189 C190 1.381 . S
C190 H182 0.930 . S
C190 C186 1.390 . S
C190 C189 1.381 . S
N191 C184 1.286 . S
N191 C187 1.413 . S
H192 C197 0.930 . S
H193 C200 0.930 . S
H194 C202 0.930 . S
H195 C196 1.016 . S
C196 H195 1.016 . S
C196 N203 1.286 . S
C197 H192 0.930 . S
C197 C198 1.397 . S
C197 C199 1.361 . S
C198 C197 1.397 . S
C198 C202 1.390 . S
C199 C197 1.361 . S
C199 C200 1.393 . S
C199 N203 1.413 . S
C200 H193 0.930 . S
C200 C199 1.393 . S
C200 C201 1.399 . S
C201 C200 1.399 . S
C201 C202 1.381 . S
C202 H194 0.930 . S
C202 C198 1.390 . S
C202 C201 1.381 . S
N203 C196 1.286 . S
N203 C199 1.413 . S
H204 C209 0.930 . S
H205 C212 0.930 . S
H206 C214 0.930 . S
H207 C208 1.016 . S
C208 H207 1.016 . S
C208 N215 1.286 . S
C209 H204 0.930 . S
C209 C210 1.397 . S
C209 C211 1.361 . S
C210 C209 1.397 . S
C210 C214 1.390 . S
C211 C209 1.361 . S
C211 C212 1.393 . S
C211 N215 1.413 . S
C212 H205 0.930 . S
C212 C211 1.393 . S
C212 C213 1.399 . S
C213 C212 1.399 . S
C213 C214 1.381 . S
C214 H206 0.930 . S
C214 C210 1.390 . S
C214 C213 1.381 . S
N215 C208 1.286 . S
N215 C211 1.413 . S
Gd216 N247 2.661 . S
Gd216 N253 2.601 . S
Gd216 O260 2.545 . S
Gd216 O261 2.606 1_545 S
Gd216 O263 2.429 . S
Gd216 O264 2.545 1_545 S
Gd216 O265 2.412 1_545 S
Gd216 O267 2.362 . S
Gd216 O268 2.324 1_545 S
Gd216 C275 2.828 . S
Gd217 N226 2.661 . S
Gd217 N230 2.601 . S
Gd217 O261 2.362 1_556 S
Gd217 O262 2.324 1_565 S
Gd217 O266 2.545 . S
Gd217 O267 2.606 1_566 S
Gd217 O269 2.430 . S
Gd217 O270 2.545 1_565 S
Gd217 O271 2.412 1_565 S
Gd217 C284 2.827 1_565 S
C218 C221 1.417 . S
C218 C223 1.431 . S
C218 C224 1.412 . S
C219 C222 1.437 . S
C219 C223 1.317 . S
C219 H238 0.929 . S
C220 C221 1.426 . S
C220 C222 1.413 . S
C220 N230 1.359 . S
C221 C218 1.417 . S
C221 C220 1.426 . S
C221 N226 1.350 . S
C222 C219 1.437 . S
C222 C220 1.413 . S
C222 C232 1.391 . S
C223 C218 1.431 . S
C223 C219 1.317 . S
C223 H234 0.930 . S
C224 C218 1.412 . S
C224 C225 1.355 . S
C224 H236 0.930 . S
C225 C224 1.355 . S
C225 C227 1.402 . S
C225 H237 0.930 . S
N226 Gd217 2.661 . S
N226 C221 1.350 . S
N226 C227 1.307 . S
C227 C225 1.402 . S
C227 N226 1.307 . S
C227 H228 0.930 . S
H228 C227 0.930 . S
C229 N230 1.334 . S
C229 C231 1.394 . S
C229 H233 0.930 . S
N230 Gd217 2.601 . S
N230 C220 1.359 . S
N230 C229 1.334 . S
C231 C229 1.394 . S
C231 C232 1.359 . S
C231 H243 0.930 . S
C232 C222 1.391 . S
C232 C231 1.359 . S
C232 H244 0.929 . S
H233 C229 0.930 . S
H234 C223 0.930 . S
H235 C252 0.930 . S
H236 C224 0.930 . S
H237 C225 0.930 . S
H238 C219 0.929 . S
H239 C257 0.930 . S
H240 C248 0.930 . S
H241 C249 0.930 . S
H242 C273 0.929 . S
H243 C231 0.930 . S
H244 C232 0.929 . S
H245 C274 0.930 . S
H246 C255 0.930 . S
N247 Gd216 2.661 . S
N247 C251 1.350 . S
N247 C252 1.307 . S
C248 H240 0.930 . S
C248 C249 1.355 . S
C248 C250 1.412 . S
C249 H241 0.930 . S
C249 C248 1.355 . S
C249 C252 1.402 . S
C250 C248 1.412 . S
C250 C251 1.417 . S
C250 C274 1.431 . S
C251 N247 1.350 . S
C251 C250 1.417 . S
C251 C254 1.426 . S
C252 H235 0.930 . S
C252 N247 1.307 . S
C252 C249 1.402 . S
N253 Gd216 2.601 . S
N253 C254 1.359 . S
N253 C257 1.334 . S
C254 C251 1.426 . S
C254 N253 1.359 . S
C254 C258 1.413 . S
C255 H246 0.930 . S
C255 C256 1.359 . S
C255 C257 1.394 . S
C256 C255 1.359 . S
C256 C258 1.391 . S
C256 H259 0.929 . S
C257 H239 0.930 . S
C257 N253 1.334 . S
C257 C255 1.394 . S
C258 C254 1.413 . S
C258 C256 1.391 . S
C258 C273 1.437 . S
H259 C256 0.929 . S
O260 Gd216 2.545 . S
O260 C275 1.258 . S
O261 Gd216 2.606 1_565 S
O261 Gd217 2.362 1_554 S
O261 C272 1.284 . S
O262 Gd217 2.324 1_545 S
O262 C282 1.254 1_556 S
O263 Gd216 2.429 . S
O263 C282 1.268 . S
O264 Gd216 2.545 1_565 S
O264 C272 1.250 . S
O265 Gd216 2.412 1_565 S
O265 C275 1.252 1_565 S
O266 Gd217 2.545 . S
O266 C284 1.245 1_565 S
O267 Gd216 2.362 . S
O267 Gd217 2.606 1_544 S
O267 C283 1.284 1_554 S
O268 Gd216 2.324 1_565 S
O268 C291 1.254 . S
O269 Gd217 2.430 . S
O269 C291 1.267 1_556 S
O270 Gd217 2.545 1_545 S
O270 C283 1.250 . S
O271 Gd217 2.412 1_545 S
O271 C284 1.263 . S
C272 O261 1.284 . S
C272 O264 1.250 . S
C273 H242 0.929 . S
C273 C258 1.437 . S
C273 C274 1.317 . S
C274 H245 0.930 . S
C274 C250 1.431 . S
C274 C273 1.317 . S
C275 Gd216 2.828 . S
C275 O260 1.258 . S
C275 O265 1.252 1_545 S
C275 C276 1.497 . S
C276 C275 1.497 . S
C276 C277 1.395 . S
C276 C278 1.380 1_545 S
C277 C276 1.395 . S
C277 C280 1.398 . S
C277 H292 0.930 . S
C278 C276 1.380 1_565 S
C278 C279 1.391 . S
C278 H293 0.930 . S
C279 C278 1.391 . S
C279 C281 1.387 . S
C280 C277 1.398 . S
C280 C281 1.380 1_545 S
C280 H294 0.930 . S
C281 C279 1.387 . S
C281 C280 1.380 1_565 S
C281 H295 0.930 . S
C282 O262 1.254 1_554 S
C282 O263 1.268 . S
C283 O267 1.284 1_556 S
C283 O270 1.250 . S
C284 Gd217 2.827 1_545 S
C284 O266 1.245 1_545 S
C284 O271 1.263 . S
C284 C285 1.499 . S
C285 C284 1.499 . S
C285 C286 1.395 1_545 S
C285 C287 1.380 . S
C286 C285 1.395 1_565 S
C286 C289 1.398 . S
C286 H296 0.930 . S
C287 C285 1.380 . S
C287 C288 1.391 . S
C287 H297 0.930 . S
C288 C287 1.391 . S
C288 C290 1.387 . S
C289 C286 1.398 . S
C289 C290 1.380 1_565 S
C289 H298 0.930 . S
C290 C288 1.387 . S
C290 C289 1.380 1_545 S
C290 H299 0.930 . S
C291 O268 1.254 . S
C291 O269 1.267 1_554 S
H292 C277 0.930 . S
H293 C278 0.930 . S
H294 C280 0.930 . S
H295 C281 0.930 . S
H296 C286 0.930 . S
H297 C287 0.930 . S
H298 C289 0.930 . S
H299 C290 0.930 . S
Gd300 N331 2.661 . S
Gd300 N337 2.601 . S
Gd300 O344 2.545 . S
Gd300 O345 2.606 1_655 S
Gd300 O347 2.429 . S
Gd300 O348 2.545 1_655 S
Gd300 O349 2.412 1_655 S
Gd300 O351 2.362 . S
Gd300 O352 2.324 1_655 S
Gd300 C359 2.828 . S
Gd301 N310 2.661 . S
Gd301 N314 2.601 . S
Gd301 O345 2.362 1_556 S
Gd301 O346 2.324 1_455 S
Gd301 O350 2.545 . S
Gd301 O351 2.606 1_456 S
Gd301 O353 2.405 1_556 S
Gd301 O354 2.545 1_455 S
Gd301 O355 2.416 . S
Gd301 C368 2.828 . S
C302 C305 1.417 . S
C302 C307 1.431 . S
C302 C308 1.412 . S
C303 C306 1.437 . S
C303 C307 1.317 . S
C303 H322 0.929 . S
C304 C305 1.426 . S
C304 C306 1.413 . S
C304 N314 1.359 . S
C305 C302 1.417 . S
C305 C304 1.426 . S
C305 N310 1.350 . S
C306 C303 1.437 . S
C306 C304 1.413 . S
C306 C316 1.391 . S
C307 C302 1.431 . S
C307 C303 1.317 . S
C307 H318 0.930 . S
C308 C302 1.412 . S
C308 C309 1.355 . S
C308 H320 0.930 . S
C309 C308 1.355 . S
C309 C311 1.402 . S
C309 H321 0.930 . S
N310 Gd301 2.661 . S
N310 C305 1.350 . S
N310 C311 1.307 . S
C311 C309 1.402 . S
C311 N310 1.307 . S
C311 H312 0.930 . S
H312 C311 0.930 . S
C313 N314 1.334 . S
C313 C315 1.394 . S
C313 H317 0.930 . S
N314 Gd301 2.601 . S
N314 C304 1.359 . S
N314 C313 1.334 . S
C315 C313 1.394 . S
C315 C316 1.359 . S
C315 H327 0.930 . S
C316 C306 1.391 . S
C316 C315 1.359 . S
C316 H328 0.929 . S
H317 C313 0.930 . S
H318 C307 0.930 . S
H319 C336 0.930 . S
H320 C308 0.930 . S
H321 C309 0.930 . S
H322 C303 0.929 . S
H323 C341 0.930 . S
H324 C332 0.930 . S
H325 C333 0.930 . S
H326 C357 0.929 . S
H327 C315 0.930 . S
H328 C316 0.929 . S
H329 C358 0.930 . S
H330 C339 0.930 . S
N331 Gd300 2.661 . S
N331 C335 1.350 . S
N331 C336 1.307 . S
C332 H324 0.930 . S
C332 C333 1.355 . S
C332 C334 1.412 . S
C333 H325 0.930 . S
C333 C332 1.355 . S
C333 C336 1.402 . S
C334 C332 1.412 . S
C334 C335 1.417 . S
C334 C358 1.431 . S
C335 N331 1.350 . S
C335 C334 1.417 . S
C335 C338 1.426 . S
C336 H319 0.930 . S
C336 N331 1.307 . S
C336 C333 1.402 . S
N337 Gd300 2.601 . S
N337 C338 1.359 . S
N337 C341 1.334 . S
C338 C335 1.426 . S
C338 N337 1.359 . S
C338 C342 1.413 . S
C339 H330 0.930 . S
C339 C340 1.359 . S
C339 C341 1.394 . S
C340 C339 1.359 . S
C340 C342 1.391 . S
C340 H343 0.929 . S
C341 H323 0.930 . S
C341 N337 1.334 . S
C341 C339 1.394 . S
C342 C338 1.413 . S
C342 C340 1.391 . S
C342 C357 1.437 . S
H343 C340 0.929 . S
O344 Gd300 2.545 . S
O344 C359 1.258 . S
O345 Gd300 2.606 1_455 S
O345 Gd301 2.362 1_554 S
O345 C356 1.284 . S
O346 Gd301 2.324 1_655 S
O346 C366 1.254 1_556 S
O347 Gd300 2.429 . S
O347 C366 1.268 . S
O348 Gd300 2.545 1_455 S
O348 C356 1.250 . S
O349 Gd300 2.412 1_455 S
O349 C359 1.252 1_455 S
O350 Gd301 2.545 . S
O350 C368 1.258 . S
O351 Gd300 2.362 . S
O351 Gd301 2.606 1_654 S
O351 C367 1.284 1_554 S
O352 Gd300 2.324 1_455 S
O352 C375 1.254 . S
O353 Gd301 2.405 1_554 S
O353 C375 1.316 . S
O354 Gd301 2.545 1_655 S
O354 C367 1.250 . S
O355 Gd301 2.416 . S
O355 C368 1.251 . S
C356 O345 1.284 . S
C356 O348 1.250 . S
C357 H326 0.929 . S
C357 C342 1.437 . S
C357 C358 1.317 . S
C358 H329 0.930 . S
C358 C334 1.431 . S
C358 C357 1.317 . S
C359 Gd300 2.828 . S
C359 O344 1.258 . S
C359 O349 1.252 1_655 S
C359 C360 1.497 1_655 S
C360 C359 1.497 1_455 S
C360 C361 1.395 1_455 S
C360 C362 1.380 . S
C361 C360 1.395 1_655 S
C361 C364 1.398 . S
C361 H376 0.930 . S
C362 C360 1.380 . S
C362 C363 1.391 . S
C362 H377 0.930 . S
C363 C362 1.391 . S
C363 C365 1.387 . S
C364 C361 1.398 . S
C364 C365 1.380 1_655 S
C364 H378 0.930 . S
C365 C363 1.387 . S
C365 C364 1.380 1_455 S
C365 H379 0.930 . S
C366 O346 1.254 1_554 S
C366 O347 1.268 . S
C367 O351 1.284 1_556 S
C367 O354 1.250 . S
C368 Gd301 2.828 . S
C368 O350 1.258 . S
C368 O355 1.251 . S
C368 C369 1.497 . S
C369 C368 1.497 . S
C369 C370 1.395 . S
C369 C371 1.380 1_455 S
C370 C369 1.395 . S
C370 C373 1.398 . S
C370 H380 0.930 . S
C371 C369 1.380 1_655 S
C371 C372 1.391 . S
C371 H381 0.930 . S
C372 C371 1.391 . S
C372 C374 1.387 . S
C373 C370 1.398 . S
C373 C374 1.380 1_455 S
C373 H382 0.930 . S
C374 C372 1.387 . S
C374 C373 1.380 1_655 S
C374 H383 0.930 . S
C375 O352 1.254 . S
C375 O353 1.316 . S
H376 C361 0.930 . S
H377 C362 0.930 . S
H378 C364 0.930 . S
H379 C365 0.930 . S
H380 C370 0.930 . S
H381 C371 0.930 . S
H382 C373 0.930 . S
H383 C374 0.930 . S
Gd384 N415 2.661 . S
Gd384 N421 2.601 . S
Gd384 O428 2.545 . S
Gd384 O429 2.606 1_556 S
Gd384 O431 2.429 1_556 S
Gd384 O432 2.545 . S
Gd384 O433 2.412 . S
Gd384 O435 2.362 1_556 S
Gd384 O436 2.324 . S
Gd384 C443 2.828 . S
Gd385 N394 2.661 . S
Gd385 N398 2.601 . S
Gd385 O429 2.362 . S
Gd385 O430 2.324 . S
Gd385 O434 2.545 . S
Gd385 O435 2.606 . S
Gd385 O437 2.429 . S
Gd385 O438 2.545 . S
Gd385 O439 2.412 . S
Gd385 C452 2.828 . S
C386 C389 1.417 . S
C386 C391 1.431 . S
C386 C392 1.412 . S
C387 C390 1.437 . S
C387 C391 1.317 . S
C387 H406 0.929 . S
C388 C389 1.426 . S
C388 C390 1.413 . S
C388 N398 1.359 . S
C389 C386 1.417 . S
C389 C388 1.426 . S
C389 N394 1.350 . S
C390 C387 1.437 . S
C390 C388 1.413 . S
C390 C400 1.391 . S
C391 C386 1.431 . S
C391 C387 1.317 . S
C391 H402 0.930 . S
C392 C386 1.412 . S
C392 C393 1.355 . S
C392 H404 0.930 . S
C393 C392 1.355 . S
C393 C395 1.402 . S
C393 H405 0.930 . S
N394 Gd385 2.661 . S
N394 C389 1.350 . S
N394 C395 1.307 . S
C395 C393 1.402 . S
C395 N394 1.307 . S
C395 H396 0.930 . S
H396 C395 0.930 . S
C397 N398 1.334 . S
C397 C399 1.394 . S
C397 H401 0.930 . S
N398 Gd385 2.601 . S
N398 C388 1.359 . S
N398 C397 1.334 . S
C399 C397 1.394 . S
C399 C400 1.359 . S
C399 H411 0.930 . S
C400 C390 1.391 . S
C400 C399 1.359 . S
C400 H412 0.929 . S
H401 C397 0.930 . S
H402 C391 0.930 . S
H403 C420 0.930 . S
H404 C392 0.930 . S
H405 C393 0.930 . S
H406 C387 0.929 . S
H407 C425 0.930 . S
H408 C416 0.930 . S
H409 C417 0.930 . S
H410 C441 0.929 . S
H411 C399 0.930 . S
H412 C400 0.929 . S
H413 C442 0.930 . S
H414 C423 0.930 . S
N415 Gd384 2.661 . S
N415 C419 1.350 . S
N415 C420 1.307 . S
C416 H408 0.930 . S
C416 C417 1.355 . S
C416 C418 1.412 . S
C417 H409 0.930 . S
C417 C416 1.355 . S
C417 C420 1.402 . S
C418 C416 1.412 . S
C418 C419 1.417 . S
C418 C442 1.431 . S
C419 N415 1.350 . S
C419 C418 1.417 . S
C419 C422 1.426 . S
C420 H403 0.930 . S
C420 N415 1.307 . S
C420 C417 1.402 . S
N421 Gd384 2.601 . S
N421 C422 1.359 . S
N421 C425 1.334 . S
C422 C419 1.426 . S
C422 N421 1.359 . S
C422 C426 1.413 . S
C423 H414 0.930 . S
C423 C424 1.359 . S
C423 C425 1.394 . S
C424 C423 1.359 . S
C424 C426 1.391 . S
C424 H427 0.929 . S
C425 H407 0.930 . S
C425 N421 1.334 . S
C425 C423 1.394 . S
C426 C422 1.413 . S
C426 C424 1.391 . S
C426 C441 1.437 . S
H427 C424 0.929 . S
O428 Gd384 2.545 . S
O428 C443 1.258 . S
O429 Gd384 2.606 1_554 S
O429 Gd385 2.362 . S
O429 C440 1.284 1_554 S
O430 Gd385 2.324 . S
O430 C450 1.254 . S
O431 Gd384 2.429 1_554 S
O431 C450 1.268 . S
O432 Gd384 2.545 . S
O432 C440 1.250 . S
O433 Gd384 2.412 . S
O433 C443 1.252 . S
O434 Gd385 2.545 . S
O434 C452 1.258 . S
O435 Gd384 2.362 1_554 S
O435 Gd385 2.606 . S
O435 C451 1.284 . S
O436 Gd384 2.324 . S
O436 C459 1.254 1_556 S
O437 Gd385 2.429 . S
O437 C459 1.268 . S
O438 Gd385 2.545 . S
O438 C451 1.250 . S
O439 Gd385 2.412 . S
O439 C452 1.252 . S
C440 O429 1.284 1_556 S
C440 O432 1.250 . S
C441 H410 0.929 . S
C441 C426 1.437 . S
C441 C442 1.317 . S
C442 H413 0.930 . S
C442 C418 1.431 . S
C442 C441 1.317 . S
C443 Gd384 2.828 . S
C443 O428 1.258 . S
C443 O433 1.252 . S
C443 C444 1.497 . S
C444 C443 1.497 . S
C444 C445 1.395 . S
C444 C446 1.380 . S
C445 C444 1.395 . S
C445 C448 1.398 . S
C445 H460 0.930 . S
C446 C444 1.380 . S
C446 C447 1.391 . S
C446 H461 0.930 . S
C447 C446 1.391 . S
C447 C449 1.387 . S
C448 C445 1.398 . S
C448 C449 1.380 . S
C448 H462 0.930 . S
C449 C447 1.387 . S
C449 C448 1.380 . S
C449 H463 0.930 . S
C450 O430 1.254 . S
C450 O431 1.268 . S
C451 O435 1.284 . S
C451 O438 1.250 . S
C452 Gd385 2.828 . S
C452 O434 1.258 . S
C452 O439 1.252 . S
C452 C453 1.497 . S
C453 C452 1.497 . S
C453 C454 1.395 . S
C453 C455 1.380 . S
C454 C453 1.395 . S
C454 C457 1.398 . S
C454 H464 0.930 . S
C455 C453 1.380 . S
C455 C456 1.391 . S
C455 H465 0.930 . S
C456 C455 1.391 . S
C456 C458 1.387 . S
C457 C454 1.398 . S
C457 C458 1.380 . S
C457 H466 0.930 . S
C458 C456 1.387 . S
C458 C457 1.380 . S
C458 H467 0.930 . S
C459 O436 1.254 1_554 S
C459 O437 1.268 . S
H460 C445 0.930 . S
H461 C446 0.930 . S
H462 C448 0.930 . S
H463 C449 0.930 . S
H464 C454 0.930 . S
H465 C455 0.930 . S
H466 C457 0.930 . S
H467 C458 0.930 . S
Gd468 N499 2.661 . S
Gd468 N505 2.601 . S
Gd468 O512 2.545 . S
Gd468 O513 2.606 . S
Gd468 O515 2.429 . S
Gd468 O516 2.545 . S
Gd468 O517 2.412 . S
Gd468 O519 2.362 . S
Gd468 O520 2.324 . S
Gd468 C527 2.828 . S
Gd469 N478 2.661 . S
Gd469 N482 2.601 . S
Gd469 O513 2.362 . S
Gd469 O514 2.324 . S
Gd469 O518 2.545 . S
Gd469 O519 2.606 . S
Gd469 O521 2.429 . S
Gd469 O522 2.545 . S
Gd469 O523 2.412 . S
Gd469 C536 2.828 . S
C470 C473 1.417 . S
C470 C475 1.431 . S
C470 C476 1.412 . S
C471 C474 1.437 . S
C471 C475 1.317 . S
C471 H490 0.929 . S
C472 C473 1.426 . S
C472 C474 1.413 . S
C472 N482 1.359 . S
C473 C470 1.417 . S
C473 C472 1.426 . S
C473 N478 1.350 . S
C474 C471 1.437 . S
C474 C472 1.413 . S
C474 C484 1.391 . S
C475 C470 1.431 . S
C475 C471 1.317 . S
C475 H486 0.930 . S
C476 C470 1.412 . S
C476 C477 1.355 . S
C476 H488 0.930 . S
C477 C476 1.355 . S
C477 C479 1.402 . S
C477 H489 0.930 . S
N478 Gd469 2.661 . S
N478 C473 1.350 . S
N478 C479 1.307 . S
C479 C477 1.402 . S
C479 N478 1.307 . S
C479 H480 0.930 . S
H480 C479 0.930 . S
C481 N482 1.334 . S
C481 C483 1.394 . S
C481 H485 0.930 . S
N482 Gd469 2.601 . S
N482 C472 1.359 . S
N482 C481 1.334 . S
C483 C481 1.394 . S
C483 C484 1.359 . S
C483 H495 0.930 . S
C484 C474 1.391 . S
C484 C483 1.359 . S
C484 H496 0.929 . S
H485 C481 0.930 . S
H486 C475 0.930 . S
H487 C504 0.930 . S
H488 C476 0.930 . S
H489 C477 0.930 . S
H490 C471 0.929 . S
H491 C509 0.930 . S
H492 C500 0.930 . S
H493 C501 0.930 . S
H494 C525 0.929 . S
H495 C483 0.930 . S
H496 C484 0.929 . S
H497 C526 0.930 . S
H498 C507 0.930 . S
N499 Gd468 2.661 . S
N499 C503 1.350 . S
N499 C504 1.307 . S
C500 H492 0.930 . S
C500 C501 1.355 . S
C500 C502 1.412 . S
C501 H493 0.930 . S
C501 C500 1.355 . S
C501 C504 1.402 . S
C502 C500 1.412 . S
C502 C503 1.417 . S
C502 C526 1.431 . S
C503 N499 1.350 . S
C503 C502 1.417 . S
C503 C506 1.426 . S
C504 H487 0.930 . S
C504 N499 1.307 . S
C504 C501 1.402 . S
N505 Gd468 2.601 . S
N505 C506 1.359 . S
N505 C509 1.334 . S
C506 C503 1.426 . S
C506 N505 1.359 . S
C506 C510 1.413 . S
C507 H498 0.930 . S
C507 C508 1.359 . S
C507 C509 1.394 . S
C508 C507 1.359 . S
C508 C510 1.391 . S
C508 H511 0.929 . S
C509 H491 0.930 . S
C509 N505 1.334 . S
C509 C507 1.394 . S
C510 C506 1.413 . S
C510 C508 1.391 . S
C510 C525 1.437 . S
H511 C508 0.929 . S
O512 Gd468 2.545 . S
O512 C527 1.258 . S
O513 Gd468 2.606 . S
O513 Gd469 2.362 . S
O513 C524 1.284 . S
O514 Gd469 2.324 . S
O514 C534 1.254 . S
O515 Gd468 2.429 . S
O515 C534 1.268 . S
O516 Gd468 2.545 . S
O516 C524 1.250 . S
O517 Gd468 2.412 . S
O517 C527 1.252 . S
O518 Gd469 2.545 . S
O518 C536 1.258 . S
O519 Gd468 2.362 . S
O519 Gd469 2.606 . S
O519 C535 1.284 . S
O520 Gd468 2.324 . S
O520 C543 1.254 . S
O521 Gd469 2.429 . S
O521 C543 1.268 . S
O522 Gd469 2.545 . S
O522 C535 1.250 . S
O523 Gd469 2.412 . S
O523 C536 1.252 . S
C524 O513 1.284 . S
C524 O516 1.250 . S
C525 H494 0.929 . S
C525 C510 1.437 . S
C525 C526 1.317 . S
C526 H497 0.930 . S
C526 C502 1.431 . S
C526 C525 1.317 . S
C527 Gd468 2.828 . S
C527 O512 1.258 . S
C527 O517 1.252 . S
C527 C528 1.497 . S
C528 C527 1.497 . S
C528 C529 1.395 . S
C528 C530 1.380 . S
C529 C528 1.395 . S
C529 C532 1.398 . S
C529 H544 0.930 . S
C530 C528 1.380 . S
C530 C531 1.391 . S
C530 H545 0.930 . S
C531 C530 1.391 . S
C531 C533 1.387 . S
C532 C529 1.398 . S
C532 C533 1.380 . S
C532 H546 0.930 . S
C533 C531 1.387 . S
C533 C532 1.380 . S
C533 H547 0.930 . S
C534 O514 1.254 . S
C534 O515 1.268 . S
C535 O519 1.284 . S
C535 O522 1.250 . S
C536 Gd469 2.828 . S
C536 O518 1.258 . S
C536 O523 1.252 . S
C536 C537 1.497 . S
C537 C536 1.497 . S
C537 C538 1.395 . S
C537 C539 1.380 . S
C538 C537 1.395 . S
C538 C541 1.398 . S
C538 H548 0.930 . S
C539 C537 1.380 . S
C539 C540 1.391 . S
C539 H549 0.930 . S
C540 C539 1.391 . S
C540 C542 1.387 . S
C541 C538 1.398 . S
C541 C542 1.380 . S
C541 H550 0.930 . S
C542 C540 1.387 . S
C542 C541 1.380 . S
C542 H551 0.930 . S
C543 O520 1.254 . S
C543 O521 1.268 . S
H544 C529 0.930 . S
H545 C530 0.930 . S
H546 C532 0.930 . S
H547 C533 0.930 . S
H548 C538 0.930 . S
H549 C539 0.930 . S
H550 C541 0.930 . S
H551 C542 0.930 . S
Gd552 N583 2.661 . S
Gd552 N589 2.601 . S
Gd552 O596 2.545 . S
Gd552 O597 2.606 . S
Gd552 O599 2.429 . S
Gd552 O600 2.545 . S
Gd552 O601 2.412 . S
Gd552 O603 2.362 . S
Gd552 O604 2.324 . S
Gd552 C611 2.828 . S
Gd553 N562 2.661 . S
Gd553 N566 2.601 . S
Gd553 O597 2.362 . S
Gd553 O598 2.324 . S
Gd553 O602 2.545 . S
Gd553 O603 2.606 . S
Gd553 O605 2.429 . S
Gd553 O606 2.545 . S
Gd553 O607 2.412 . S
Gd553 C620 2.828 . S
C554 C557 1.417 . S
C554 C559 1.431 . S
C554 C560 1.412 . S
C555 C558 1.437 . S
C555 C559 1.317 . S
C555 H574 0.929 . S
C556 C557 1.426 . S
C556 C558 1.413 . S
C556 N566 1.359 . S
C557 C554 1.417 . S
C557 C556 1.426 . S
C557 N562 1.350 . S
C558 C555 1.437 . S
C558 C556 1.413 . S
C558 C568 1.391 . S
C559 C554 1.431 . S
C559 C555 1.317 . S
C559 H570 0.930 . S
C560 C554 1.412 . S
C560 C561 1.355 . S
C560 H572 0.930 . S
C561 C560 1.355 . S
C561 C563 1.402 . S
C561 H573 0.930 . S
N562 Gd553 2.661 . S
N562 C557 1.350 . S
N562 C563 1.307 . S
C563 C561 1.402 . S
C563 N562 1.307 . S
C563 H564 0.930 . S
H564 C563 0.930 . S
C565 N566 1.334 . S
C565 C567 1.394 . S
C565 H569 0.930 . S
N566 Gd553 2.601 . S
N566 C556 1.359 . S
N566 C565 1.334 . S
C567 C565 1.394 . S
C567 C568 1.359 . S
C567 H579 0.930 . S
C568 C558 1.391 . S
C568 C567 1.359 . S
C568 H580 0.929 . S
H569 C565 0.930 . S
H570 C559 0.930 . S
H571 C588 0.930 . S
H572 C560 0.930 . S
H573 C561 0.930 . S
H574 C555 0.929 . S
H575 C593 0.930 . S
H576 C584 0.930 . S
H577 C585 0.930 . S
H578 C609 0.929 . S
H579 C567 0.930 . S
H580 C568 0.929 . S
H581 C610 0.930 . S
H582 C591 0.930 . S
N583 Gd552 2.661 . S
N583 C587 1.350 . S
N583 C588 1.307 . S
C584 H576 0.930 . S
C584 C585 1.355 . S
C584 C586 1.412 . S
C585 H577 0.930 . S
C585 C584 1.355 . S
C585 C588 1.402 . S
C586 C584 1.412 . S
C586 C587 1.417 . S
C586 C610 1.431 . S
C587 N583 1.350 . S
C587 C586 1.417 . S
C587 C590 1.426 . S
C588 H571 0.930 . S
C588 N583 1.307 . S
C588 C585 1.402 . S
N589 Gd552 2.601 . S
N589 C590 1.359 . S
N589 C593 1.334 . S
C590 C587 1.426 . S
C590 N589 1.359 . S
C590 C594 1.413 . S
C591 H582 0.930 . S
C591 C592 1.359 . S
C591 C593 1.394 . S
C592 C591 1.359 . S
C592 C594 1.391 . S
C592 H595 0.929 . S
C593 H575 0.930 . S
C593 N589 1.334 . S
C593 C591 1.394 . S
C594 C590 1.413 . S
C594 C592 1.391 . S
C594 C609 1.437 . S
H595 C592 0.929 . S
O596 Gd552 2.545 . S
O596 C611 1.258 . S
O597 Gd552 2.606 . S
O597 Gd553 2.362 . S
O597 C608 1.284 . S
O598 Gd553 2.324 . S
O598 C618 1.254 . S
O599 Gd552 2.429 . S
O599 C618 1.268 . S
O600 Gd552 2.545 . S
O600 C608 1.250 . S
O601 Gd552 2.412 . S
O601 C611 1.252 . S
O602 Gd553 2.545 . S
O602 C620 1.258 . S
O603 Gd552 2.362 . S
O603 Gd553 2.606 . S
O603 C619 1.284 . S
O604 Gd552 2.324 . S
O604 C627 1.254 . S
O605 Gd553 2.429 . S
O605 C627 1.268 . S
O606 Gd553 2.545 . S
O606 C619 1.250 . S
O607 Gd553 2.412 . S
O607 C620 1.252 . S
C608 O597 1.284 . S
C608 O600 1.250 . S
C609 H578 0.929 . S
C609 C594 1.437 . S
C609 C610 1.317 . S
C610 H581 0.930 . S
C610 C586 1.431 . S
C610 C609 1.317 . S
C611 Gd552 2.828 . S
C611 O596 1.258 . S
C611 O601 1.252 . S
C611 C612 1.497 . S
C612 C611 1.497 . S
C612 C613 1.395 . S
C612 C614 1.380 . S
C613 C612 1.395 . S
C613 C616 1.398 . S
C613 H628 0.930 . S
C614 C612 1.380 . S
C614 C615 1.391 . S
C614 H629 0.930 . S
C615 C614 1.391 . S
C615 C617 1.387 . S
C616 C613 1.398 . S
C616 C617 1.380 . S
C616 H630 0.930 . S
C617 C615 1.387 . S
C617 C616 1.380 . S
C617 H631 0.930 . S
C618 O598 1.254 . S
C618 O599 1.268 . S
C619 O603 1.284 . S
C619 O606 1.250 . S
C620 Gd553 2.828 . S
C620 O602 1.258 . S
C620 O607 1.252 . S
C620 C621 1.497 . S
C621 C620 1.497 . S
C621 C622 1.395 . S
C621 C623 1.380 . S
C622 C621 1.395 . S
C622 C625 1.398 . S
C622 H632 0.930 . S
C623 C621 1.380 . S
C623 C624 1.391 . S
C623 H633 0.930 . S
C624 C623 1.391 . S
C624 C626 1.387 . S
C625 C622 1.398 . S
C625 C626 1.380 . S
C625 H634 0.930 . S
C626 C624 1.387 . S
C626 C625 1.380 . S
C626 H635 0.930 . S
C627 O604 1.254 . S
C627 O605 1.268 . S
H628 C613 0.930 . S
H629 C614 0.930 . S
H630 C616 0.930 . S
H631 C617 0.930 . S
H632 C622 0.930 . S
H633 C623 0.930 . S
H634 C625 0.930 . S
H635 C626 0.930 . S
Gd636 N667 2.661 . S
Gd636 N673 2.601 . S
Gd636 O680 2.545 . S
Gd636 O681 2.606 . S
Gd636 O683 2.429 . S
Gd636 O684 2.545 . S
Gd636 O685 2.412 . S
Gd636 O687 2.362 . S
Gd636 O688 2.324 . S
Gd636 C695 2.828 . S
Gd637 N646 2.661 . S
Gd637 N650 2.601 . S
Gd637 O681 2.362 . S
Gd637 O682 2.324 . S
Gd637 O686 2.545 . S
Gd637 O687 2.606 . S
Gd637 O689 2.429 . S
Gd637 O690 2.545 . S
Gd637 O691 2.412 . S
Gd637 C704 2.828 . S
C638 C641 1.417 . S
C638 C643 1.431 . S
C638 C644 1.412 . S
C639 C642 1.437 . S
C639 C643 1.317 . S
C639 H658 0.929 . S
C640 C641 1.426 . S
C640 C642 1.413 . S
C640 N650 1.359 . S
C641 C638 1.417 . S
C641 C640 1.426 . S
C641 N646 1.350 . S
C642 C639 1.437 . S
C642 C640 1.413 . S
C642 C652 1.391 . S
C643 C638 1.431 . S
C643 C639 1.317 . S
C643 H654 0.930 . S
C644 C638 1.412 . S
C644 C645 1.355 . S
C644 H656 0.930 . S
C645 C644 1.355 . S
C645 C647 1.402 . S
C645 H657 0.930 . S
N646 Gd637 2.661 . S
N646 C641 1.350 . S
N646 C647 1.307 . S
C647 C645 1.402 . S
C647 N646 1.307 . S
C647 H648 0.930 . S
H648 C647 0.930 . S
C649 N650 1.334 . S
C649 C651 1.394 . S
C649 H653 0.930 . S
N650 Gd637 2.601 . S
N650 C640 1.359 . S
N650 C649 1.334 . S
C651 C649 1.394 . S
C651 C652 1.359 . S
C651 H663 0.930 . S
C652 C642 1.391 . S
C652 C651 1.359 . S
C652 H664 0.929 . S
H653 C649 0.930 . S
H654 C643 0.930 . S
H655 C672 0.930 . S
H656 C644 0.930 . S
H657 C645 0.930 . S
H658 C639 0.929 . S
H659 C677 0.930 . S
H660 C668 0.930 . S
H661 C669 0.930 . S
H662 C693 0.929 . S
H663 C651 0.930 . S
H664 C652 0.929 . S
H665 C694 0.930 . S
H666 C675 0.930 . S
N667 Gd636 2.661 . S
N667 C671 1.350 . S
N667 C672 1.307 . S
C668 H660 0.930 . S
C668 C669 1.355 . S
C668 C670 1.412 . S
C669 H661 0.930 . S
C669 C668 1.355 . S
C669 C672 1.402 . S
C670 C668 1.412 . S
C670 C671 1.417 . S
C670 C694 1.431 . S
C671 N667 1.350 . S
C671 C670 1.417 . S
C671 C674 1.426 . S
C672 H655 0.930 . S
C672 N667 1.307 . S
C672 C669 1.402 . S
N673 Gd636 2.601 . S
N673 C674 1.359 . S
N673 C677 1.334 . S
C674 C671 1.426 . S
C674 N673 1.359 . S
C674 C678 1.413 . S
C675 H666 0.930 . S
C675 C676 1.359 . S
C675 C677 1.394 . S
C676 C675 1.359 . S
C676 C678 1.391 . S
C676 H679 0.929 . S
C677 H659 0.930 . S
C677 N673 1.334 . S
C677 C675 1.394 . S
C678 C674 1.413 . S
C678 C676 1.391 . S
C678 C693 1.437 . S
H679 C676 0.929 . S
O680 Gd636 2.545 . S
O680 C695 1.258 . S
O681 Gd636 2.606 . S
O681 Gd637 2.362 . S
O681 C692 1.284 . S
O682 Gd637 2.324 . S
O682 C702 1.254 . S
O683 Gd636 2.429 . S
O683 C702 1.268 . S
O684 Gd636 2.545 . S
O684 C692 1.250 . S
O685 Gd636 2.412 . S
O685 C695 1.252 . S
O686 Gd637 2.545 . S
O686 C704 1.258 . S
O687 Gd636 2.362 . S
O687 Gd637 2.606 . S
O687 C703 1.284 . S
O688 Gd636 2.324 . S
O688 C711 1.254 . S
O689 Gd637 2.429 . S
O689 C711 1.268 . S
O690 Gd637 2.545 . S
O690 C703 1.250 . S
O691 Gd637 2.412 . S
O691 C704 1.252 . S
C692 O681 1.284 . S
C692 O684 1.250 . S
C693 H662 0.929 . S
C693 C678 1.437 . S
C693 C694 1.317 . S
C694 H665 0.930 . S
C694 C670 1.431 . S
C694 C693 1.317 . S
C695 Gd636 2.828 . S
C695 O680 1.258 . S
C695 O685 1.252 . S
C695 C696 1.497 . S
C696 C695 1.497 . S
C696 C697 1.395 . S
C696 C698 1.380 . S
C697 C696 1.395 . S
C697 C700 1.398 . S
C697 H712 0.930 . S
C698 C696 1.380 . S
C698 C699 1.391 . S
C698 H713 0.930 . S
C699 C698 1.391 . S
C699 C701 1.387 . S
C700 C697 1.398 . S
C700 C701 1.380 . S
C700 H714 0.930 . S
C701 C699 1.387 . S
C701 C700 1.380 . S
C701 H715 0.930 . S
C702 O682 1.254 . S
C702 O683 1.268 . S
C703 O687 1.284 . S
C703 O690 1.250 . S
C704 Gd637 2.828 . S
C704 O686 1.258 . S
C704 O691 1.252 . S
C704 C705 1.497 . S
C705 C704 1.497 . S
C705 C706 1.395 . S
C705 C707 1.380 . S
C706 C705 1.395 . S
C706 C709 1.398 . S
C706 H716 0.930 . S
C707 C705 1.380 . S
C707 C708 1.391 . S
C707 H717 0.930 . S
C708 C707 1.391 . S
C708 C710 1.387 . S
C709 C706 1.398 . S
C709 C710 1.380 . S
C709 H718 0.930 . S
C710 C708 1.387 . S
C710 C709 1.380 . S
C710 H719 0.930 . S
C711 O688 1.254 . S
C711 O689 1.268 . S
H712 C697 0.930 . S
H713 C698 0.930 . S
H714 C700 0.930 . S
H715 C701 0.930 . S
H716 C706 0.930 . S
H717 C707 0.930 . S
H718 C709 0.930 . S
H719 C710 0.930 . S
Gd720 N751 2.661 . S
Gd720 N757 2.601 . S
Gd720 O764 2.545 . S
Gd720 O765 2.606 . S
Gd720 O767 2.429 . S
Gd720 O768 2.545 . S
Gd720 O769 2.412 . S
Gd720 O771 2.362 . S
Gd720 O772 2.324 . S
Gd720 C779 2.828 . S
Gd721 N730 2.661 . S
Gd721 N734 2.601 . S
Gd721 O765 2.362 . S
Gd721 O766 2.324 . S
Gd721 O770 2.545 . S
Gd721 O771 2.606 . S
Gd721 O773 2.429 . S
Gd721 O774 2.545 . S
Gd721 O775 2.412 . S
Gd721 C788 2.828 . S
C722 C725 1.417 . S
C722 C727 1.431 . S
C722 C728 1.412 . S
C723 C726 1.437 . S
C723 C727 1.317 . S
C723 H742 0.929 . S
C724 C725 1.426 . S
C724 C726 1.413 . S
C724 N734 1.359 . S
C725 C722 1.417 . S
C725 C724 1.426 . S
C725 N730 1.350 . S
C726 C723 1.437 . S
C726 C724 1.413 . S
C726 C736 1.391 . S
C727 C722 1.431 . S
C727 C723 1.317 . S
C727 H738 0.930 . S
C728 C722 1.412 . S
C728 C729 1.355 . S
C728 H740 0.930 . S
C729 C728 1.355 . S
C729 C731 1.402 . S
C729 H741 0.930 . S
N730 Gd721 2.661 . S
N730 C725 1.350 . S
N730 C731 1.307 . S
C731 C729 1.402 . S
C731 N730 1.307 . S
C731 H732 0.930 . S
H732 C731 0.930 . S
C733 N734 1.334 . S
C733 C735 1.394 . S
C733 H737 0.930 . S
N734 Gd721 2.601 . S
N734 C724 1.359 . S
N734 C733 1.334 . S
C735 C733 1.394 . S
C735 C736 1.359 . S
C735 H747 0.930 . S
C736 C726 1.391 . S
C736 C735 1.359 . S
C736 H748 0.929 . S
H737 C733 0.930 . S
H738 C727 0.930 . S
H739 C756 0.930 . S
H740 C728 0.930 . S
H741 C729 0.930 . S
H742 C723 0.929 . S
H743 C761 0.930 . S
H744 C752 0.930 . S
H745 C753 0.930 . S
H746 C777 0.929 . S
H747 C735 0.930 . S
H748 C736 0.929 . S
H749 C778 0.930 . S
H750 C759 0.930 . S
N751 Gd720 2.661 . S
N751 C755 1.350 . S
N751 C756 1.307 . S
C752 H744 0.930 . S
C752 C753 1.355 . S
C752 C754 1.412 . S
C753 H745 0.930 . S
C753 C752 1.355 . S
C753 C756 1.402 . S
C754 C752 1.412 . S
C754 C755 1.417 . S
C754 C778 1.431 . S
C755 N751 1.350 . S
C755 C754 1.417 . S
C755 C758 1.426 . S
C756 H739 0.930 . S
C756 N751 1.307 . S
C756 C753 1.402 . S
N757 Gd720 2.601 . S
N757 C758 1.359 . S
N757 C761 1.334 . S
C758 C755 1.426 . S
C758 N757 1.359 . S
C758 C762 1.413 . S
C759 H750 0.930 . S
C759 C760 1.359 . S
C759 C761 1.394 . S
C760 C759 1.359 . S
C760 C762 1.391 . S
C760 H763 0.929 . S
C761 H743 0.930 . S
C761 N757 1.334 . S
C761 C759 1.394 . S
C762 C758 1.413 . S
C762 C760 1.391 . S
C762 C777 1.437 . S
H763 C760 0.929 . S
O764 Gd720 2.545 . S
O764 C779 1.258 . S
O765 Gd720 2.606 . S
O765 Gd721 2.362 . S
O765 C776 1.284 . S
O766 Gd721 2.324 . S
O766 C786 1.254 . S
O767 Gd720 2.429 . S
O767 C786 1.268 . S
O768 Gd720 2.545 . S
O768 C776 1.250 . S
O769 Gd720 2.412 . S
O769 C779 1.252 . S
O770 Gd721 2.545 . S
O770 C788 1.258 . S
O771 Gd720 2.362 . S
O771 Gd721 2.606 . S
O771 C787 1.284 . S
O772 Gd720 2.324 . S
O772 C795 1.254 . S
O773 Gd721 2.429 . S
O773 C795 1.268 . S
O774 Gd721 2.545 . S
O774 C787 1.250 . S
O775 Gd721 2.412 . S
O775 C788 1.252 . S
C776 O765 1.284 . S
C776 O768 1.250 . S
C777 H746 0.929 . S
C777 C762 1.437 . S
C777 C778 1.317 . S
C778 H749 0.930 . S
C778 C754 1.431 . S
C778 C777 1.317 . S
C779 Gd720 2.828 . S
C779 O764 1.258 . S
C779 O769 1.252 . S
C779 C780 1.497 . S
C780 C779 1.497 . S
C780 C781 1.395 . S
C780 C782 1.380 . S
C781 C780 1.395 . S
C781 C784 1.398 . S
C781 H796 0.930 . S
C782 C780 1.380 . S
C782 C783 1.391 . S
C782 H797 0.930 . S
C783 C782 1.391 . S
C783 C785 1.387 . S
C784 C781 1.398 . S
C784 C785 1.380 . S
C784 H798 0.930 . S
C785 C783 1.387 . S
C785 C784 1.380 . S
C785 H799 0.930 . S
C786 O766 1.254 . S
C786 O767 1.268 . S
C787 O771 1.284 . S
C787 O774 1.250 . S
C788 Gd721 2.828 . S
C788 O770 1.258 . S
C788 O775 1.252 . S
C788 C789 1.497 . S
C789 C788 1.497 . S
C789 C790 1.395 . S
C789 C791 1.380 . S
C790 C789 1.395 . S
C790 C793 1.398 . S
C790 H800 0.930 . S
C791 C789 1.380 . S
C791 C792 1.391 . S
C791 H801 0.930 . S
C792 C791 1.391 . S
C792 C794 1.387 . S
C793 C790 1.398 . S
C793 C794 1.380 . S
C793 H802 0.930 . S
C794 C792 1.387 . S
C794 C793 1.380 . S
C794 H803 0.930 . S
C795 O772 1.254 . S
C795 O773 1.268 . S
H796 C781 0.930 . S
H797 C782 0.930 . S
H798 C784 0.930 . S
H799 C785 0.930 . S
H800 C790 0.930 . S
H801 C791 0.930 . S
H802 C793 0.930 . S
H803 C794 0.930 . S
Gd804 N835 2.661 . S
Gd804 N841 2.601 . S
Gd804 O848 2.545 . S
Gd804 O849 2.606 . S
Gd804 O851 2.429 . S
Gd804 O852 2.545 . S
Gd804 O853 2.412 . S
Gd804 O855 2.362 . S
Gd804 O856 2.324 . S
Gd804 C863 2.828 . S
Gd805 N814 2.661 . S
Gd805 N818 2.601 . S
Gd805 O849 2.362 . S
Gd805 O850 2.324 . S
Gd805 O854 2.545 . S
Gd805 O855 2.606 . S
Gd805 O857 2.429 . S
Gd805 O858 2.545 . S
Gd805 O859 2.412 . S
Gd805 C872 2.828 . S
C806 C809 1.417 . S
C806 C811 1.431 . S
C806 C812 1.412 . S
C807 C810 1.437 . S
C807 C811 1.317 . S
C807 H826 0.929 . S
C808 C809 1.426 . S
C808 C810 1.413 . S
C808 N818 1.359 . S
C809 C806 1.417 . S
C809 C808 1.426 . S
C809 N814 1.350 . S
C810 C807 1.437 . S
C810 C808 1.413 . S
C810 C820 1.391 . S
C811 C806 1.431 . S
C811 C807 1.317 . S
C811 H822 0.930 . S
C812 C806 1.412 . S
C812 C813 1.355 . S
C812 H824 0.930 . S
C813 C812 1.355 . S
C813 C815 1.402 . S
C813 H825 0.930 . S
N814 Gd805 2.661 . S
N814 C809 1.350 . S
N814 C815 1.307 . S
C815 C813 1.402 . S
C815 N814 1.307 . S
C815 H816 0.930 . S
H816 C815 0.930 . S
C817 N818 1.334 . S
C817 C819 1.394 . S
C817 H821 0.930 . S
N818 Gd805 2.601 . S
N818 C808 1.359 . S
N818 C817 1.334 . S
C819 C817 1.394 . S
C819 C820 1.359 . S
C819 H831 0.930 . S
C820 C810 1.391 . S
C820 C819 1.359 . S
C820 H832 0.929 . S
H821 C817 0.930 . S
H822 C811 0.930 . S
H823 C840 0.930 . S
H824 C812 0.930 . S
H825 C813 0.930 . S
H826 C807 0.929 . S
H827 C845 0.930 . S
H828 C836 0.930 . S
H829 C837 0.930 . S
H830 C861 0.929 . S
H831 C819 0.930 . S
H832 C820 0.929 . S
H833 C862 0.930 . S
H834 C843 0.930 . S
N835 Gd804 2.661 . S
N835 C839 1.350 . S
N835 C840 1.307 . S
C836 H828 0.930 . S
C836 C837 1.355 . S
C836 C838 1.412 . S
C837 H829 0.930 . S
C837 C836 1.355 . S
C837 C840 1.402 . S
C838 C836 1.412 . S
C838 C839 1.417 . S
C838 C862 1.431 . S
C839 N835 1.350 . S
C839 C838 1.417 . S
C839 C842 1.426 . S
C840 H823 0.930 . S
C840 N835 1.307 . S
C840 C837 1.402 . S
N841 Gd804 2.601 . S
N841 C842 1.359 . S
N841 C845 1.334 . S
C842 C839 1.426 . S
C842 N841 1.359 . S
C842 C846 1.413 . S
C843 H834 0.930 . S
C843 C844 1.359 . S
C843 C845 1.394 . S
C844 C843 1.359 . S
C844 C846 1.391 . S
C844 H847 0.929 . S
C845 H827 0.930 . S
C845 N841 1.334 . S
C845 C843 1.394 . S
C846 C842 1.413 . S
C846 C844 1.391 . S
C846 C861 1.437 . S
H847 C844 0.929 . S
O848 Gd804 2.545 . S
O848 C863 1.258 . S
O849 Gd804 2.606 . S
O849 Gd805 2.362 . S
O849 C860 1.284 . S
O850 Gd805 2.324 . S
O850 C870 1.254 . S
O851 Gd804 2.429 . S
O851 C870 1.268 . S
O852 Gd804 2.545 . S
O852 C860 1.250 . S
O853 Gd804 2.412 . S
O853 C863 1.252 . S
O854 Gd805 2.545 . S
O854 C872 1.258 . S
O855 Gd804 2.362 . S
O855 Gd805 2.606 . S
O855 C871 1.284 . S
O856 Gd804 2.324 . S
O856 C879 1.254 . S
O857 Gd805 2.429 . S
O857 C879 1.268 . S
O858 Gd805 2.545 . S
O858 C871 1.250 . S
O859 Gd805 2.412 . S
O859 C872 1.252 . S
C860 O849 1.284 . S
C860 O852 1.250 . S
C861 H830 0.929 . S
C861 C846 1.437 . S
C861 C862 1.317 . S
C862 H833 0.930 . S
C862 C838 1.431 . S
C862 C861 1.317 . S
C863 Gd804 2.828 . S
C863 O848 1.258 . S
C863 O853 1.252 . S
C863 C864 1.497 . S
C864 C863 1.497 . S
C864 C865 1.395 . S
C864 C866 1.380 . S
C865 C864 1.395 . S
C865 C868 1.398 . S
C865 H880 0.930 . S
C866 C864 1.380 . S
C866 C867 1.391 . S
C866 H881 0.930 . S
C867 C866 1.391 . S
C867 C869 1.387 . S
C868 C865 1.398 . S
C868 C869 1.380 . S
C868 H882 0.930 . S
C869 C867 1.387 . S
C869 C868 1.380 . S
C869 H883 0.930 . S
C870 O850 1.254 . S
C870 O851 1.268 . S
C871 O855 1.284 . S
C871 O858 1.250 . S
C872 Gd805 2.828 . S
C872 O854 1.258 . S
C872 O859 1.252 . S
C872 C873 1.497 . S
C873 C872 1.497 . S
C873 C874 1.395 . S
C873 C875 1.380 . S
C874 C873 1.395 . S
C874 C877 1.398 . S
C874 H884 0.930 . S
C875 C873 1.380 . S
C875 C876 1.391 . S
C875 H885 0.930 . S
C876 C875 1.391 . S
C876 C878 1.387 . S
C877 C874 1.398 . S
C877 C878 1.380 . S
C877 H886 0.930 . S
C878 C876 1.387 . S
C878 C877 1.380 . S
C878 H887 0.930 . S
C879 O856 1.254 . S
C879 O857 1.268 . S
H880 C865 0.930 . S
H881 C866 0.930 . S
H882 C868 0.930 . S
H883 C869 0.930 . S
H884 C874 0.930 . S
H885 C875 0.930 . S
H886 C877 0.930 . S
H887 C878 0.930 . S
Gd888 N919 2.661 . S
Gd888 N925 2.601 . S
Gd888 O932 2.545 . S
Gd888 O933 2.606 . S
Gd888 O935 2.429 . S
Gd888 O936 2.545 . S
Gd888 O937 2.412 . S
Gd888 O939 2.362 . S
Gd888 O940 2.324 . S
Gd888 C947 2.828 . S
Gd889 N898 2.661 . S
Gd889 N902 2.601 . S
Gd889 O933 2.362 . S
Gd889 O934 2.324 . S
Gd889 O938 2.545 . S
Gd889 O939 2.606 . S
Gd889 O941 2.429 . S
Gd889 O942 2.545 . S
Gd889 O943 2.412 . S
Gd889 C956 2.828 . S
C890 C893 1.417 . S
C890 C895 1.431 . S
C890 C896 1.412 . S
C891 C894 1.437 . S
C891 C895 1.317 . S
C891 H910 0.929 . S
C892 C893 1.426 . S
C892 C894 1.413 . S
C892 N902 1.359 . S
C893 C890 1.417 . S
C893 C892 1.426 . S
C893 N898 1.350 . S
C894 C891 1.437 . S
C894 C892 1.413 . S
C894 C904 1.391 . S
C895 C890 1.431 . S
C895 C891 1.317 . S
C895 H906 0.930 1_655 S
C896 C890 1.412 . S
C896 C897 1.355 . S
C896 H908 0.930 1_655 S
C897 C896 1.355 . S
C897 C899 1.402 . S
C897 H909 0.930 . S
N898 Gd889 2.661 . S
N898 C893 1.350 . S
N898 C899 1.307 . S
C899 C897 1.402 . S
C899 N898 1.307 . S
C899 H900 0.930 . S
H900 C899 0.930 . S
C901 N902 1.334 . S
C901 C903 1.394 . S
C901 H905 0.930 . S
N902 Gd889 2.601 . S
N902 C892 1.359 . S
N902 C901 1.334 . S
C903 C901 1.394 . S
C903 C904 1.359 . S
C903 H915 0.930 . S
C904 C894 1.391 . S
C904 C903 1.359 . S
C904 H916 0.929 . S
H905 C901 0.930 . S
H906 C895 0.930 1_455 S
H907 C924 0.930 . S
H908 C896 0.930 1_455 S
H909 C897 0.930 . S
H910 C891 0.929 . S
H911 C929 0.930 . S
H912 C920 0.930 . S
H913 C921 0.930 . S
H914 C945 0.929 . S
H915 C903 0.930 . S
H916 C904 0.929 . S
H917 C946 0.930 . S
H918 C927 0.930 . S
N919 Gd888 2.661 . S
N919 C923 1.350 . S
N919 C924 1.307 . S
C920 H912 0.930 . S
C920 C921 1.355 . S
C920 C922 1.412 . S
C921 H913 0.930 . S
C921 C920 1.355 . S
C921 C924 1.402 . S
C922 C920 1.412 . S
C922 C923 1.417 . S
C922 C946 1.431 . S
C923 N919 1.350 . S
C923 C922 1.417 . S
C923 C926 1.426 . S
C924 H907 0.930 . S
C924 N919 1.307 . S
C924 C921 1.402 . S
N925 Gd888 2.601 . S
N925 C926 1.359 . S
N925 C929 1.334 . S
C926 C923 1.426 . S
C926 N925 1.359 . S
C926 C930 1.413 . S
C927 H918 0.930 . S
C927 C928 1.359 . S
C927 C929 1.394 . S
C928 C927 1.359 . S
C928 C930 1.391 . S
C928 H931 0.929 . S
C929 H911 0.930 . S
C929 N925 1.334 . S
C929 C927 1.394 . S
C930 C926 1.413 . S
C930 C928 1.391 . S
C930 C945 1.437 . S
H931 C928 0.929 . S
O932 Gd888 2.545 . S
O932 C947 1.258 . S
O933 Gd888 2.606 . S
O933 Gd889 2.362 . S
O933 C944 1.284 . S
O934 Gd889 2.324 . S
O934 C954 1.254 . S
O935 Gd888 2.429 . S
O935 C954 1.268 . S
O936 Gd888 2.545 . S
O936 C944 1.250 . S
O937 Gd888 2.412 . S
O937 C947 1.252 . S
O938 Gd889 2.545 . S
O938 C956 1.258 . S
O939 Gd888 2.362 . S
O939 Gd889 2.606 . S
O939 C955 1.284 . S
O940 Gd888 2.324 . S
O940 C963 1.254 . S
O941 Gd889 2.429 . S
O941 C963 1.268 . S
O942 Gd889 2.545 . S
O942 C955 1.250 . S
O943 Gd889 2.412 . S
O943 C956 1.252 . S
C944 O933 1.284 . S
C944 O936 1.250 . S
C945 H914 0.929 . S
C945 C930 1.437 . S
C945 C946 1.317 . S
C946 H917 0.930 . S
C946 C922 1.431 . S
C946 C945 1.317 . S
C947 Gd888 2.828 . S
C947 O932 1.258 . S
C947 O937 1.252 . S
C947 C948 1.497 . S
C948 C947 1.497 . S
C948 C949 1.395 . S
C948 C950 1.380 . S
C949 C948 1.395 . S
C949 C952 1.398 . S
C949 H964 0.930 . S
C950 C948 1.380 . S
C950 C951 1.391 . S
C950 H965 0.930 . S
C951 C950 1.391 . S
C951 C953 1.387 . S
C952 C949 1.398 . S
C952 C953 1.380 . S
C952 H966 0.930 . S
C953 C951 1.387 . S
C953 C952 1.380 . S
C953 H967 0.930 . S
C954 O934 1.254 . S
C954 O935 1.268 . S
C955 O939 1.284 . S
C955 O942 1.250 . S
C956 Gd889 2.828 . S
C956 O938 1.258 . S
C956 O943 1.252 . S
C956 C957 1.497 . S
C957 C956 1.497 . S
C957 C958 1.395 . S
C957 C959 1.380 . S
C958 C957 1.395 . S
C958 C961 1.398 . S
C958 H968 0.930 . S
C959 C957 1.380 . S
C959 C960 1.391 . S
C959 H969 0.930 . S
C960 C959 1.391 . S
C960 C962 1.387 . S
C961 C958 1.398 . S
C961 C962 1.380 . S
C961 H970 0.930 . S
C962 C960 1.387 . S
C962 C961 1.380 . S
C962 H971 0.930 . S
C963 O940 1.254 . S
C963 O941 1.268 . S
H964 C949 0.930 . S
H965 C950 0.930 . S
H966 C952 0.930 . S
H967 C953 0.930 . S
H968 C958 0.930 . S
H969 C959 0.930 . S
H970 C961 0.930 . S
H971 C962 0.930 . S
H972 C980 0.950 . S
H973 C985 0.950 . S
H974 C982 0.950 . S
H975 C984 0.950 . S
H976 C986 0.950 . S
H977 C988 0.950 . S
H978 C990 0.950 . S
H979 C991 0.950 1_556 S
C980 H972 0.950 . S
C980 C981 1.386 . S
C980 C982 1.391 . S
C981 C980 1.386 . S
C981 C985 1.393 . S
C982 H974 0.950 . S
C982 C980 1.391 . S
C982 C983 1.400 . S
C983 C982 1.400 . S
C983 C984 1.398 . S
C983 C989 1.491 . S
C984 H975 0.950 . S
C984 C983 1.398 . S
C984 C985 1.391 . S
C985 H973 0.950 . S
C985 C981 1.393 . S
C985 C984 1.391 . S
C986 H976 0.950 . S
C986 C987 1.386 . S
C986 C988 1.391 . S
C987 C986 1.386 . S
C987 C991 1.393 . S
C988 H977 0.950 . S
C988 C986 1.391 . S
C988 C989 1.400 . S
C989 C983 1.491 . S
C989 C988 1.400 . S
C989 C990 1.398 . S
C990 H978 0.950 . S
C990 C989 1.398 . S
C990 C991 1.391 . S
C991 H979 0.950 1_554 S
C991 C987 1.393 . S
C991 C990 1.391 . S
H992 C1000 0.950 . S
H993 C1005 0.950 . S
H994 C1002 0.950 . S
H995 C1004 0.950 . S
H996 C1006 0.950 . S
H997 C1008 0.950 . S
H998 C1010 0.950 . S
H999 C1011 0.950 . S
C1000 H992 0.950 . S
C1000 C1001 1.386 . S
C1000 C1002 1.391 . S
C1001 C1000 1.386 . S
C1001 C1005 1.393 . S
C1002 H994 0.950 . S
C1002 C1000 1.391 . S
C1002 C1003 1.400 . S
C1003 C1002 1.400 . S
C1003 C1004 1.398 . S
C1003 C1009 1.491 . S
C1004 H995 0.950 . S
C1004 C1003 1.398 . S
C1004 C1005 1.391 . S
C1005 H993 0.950 . S
C1005 C1001 1.393 . S
C1005 C1004 1.391 . S
C1006 H996 0.950 . S
C1006 C1007 1.386 . S
C1006 C1008 1.391 . S
C1007 C1006 1.386 . S
C1007 C1011 1.393 . S
C1008 H997 0.950 . S
C1008 C1006 1.391 . S
C1008 C1009 1.400 . S
C1009 C1003 1.491 . S
C1009 C1008 1.400 . S
C1009 C1010 1.398 . S
C1010 H998 0.950 . S
C1010 C1009 1.398 . S
C1010 C1011 1.391 . S
C1011 H999 0.950 . S
C1011 C1007 1.393 . S
C1011 C1010 1.391 . S
H1012 C1020 0.950 . S
H1013 C1025 0.950 . S
H1014 C1022 0.950 . S
H1015 C1024 0.950 . S
H1016 C1026 0.950 . S
H1017 C1028 0.950 . S
H1018 C1030 0.950 . S
H1019 C1031 0.950 . S
C1020 H1012 0.950 . S
C1020 C1021 1.386 . S
C1020 C1022 1.391 . S
C1021 C1020 1.386 . S
C1021 C1025 1.393 . S
C1022 H1014 0.950 . S
C1022 C1020 1.391 . S
C1022 C1023 1.400 . S
C1023 C1022 1.400 . S
C1023 C1024 1.398 . S
C1023 C1029 1.491 . S
C1024 H1015 0.950 . S
C1024 C1023 1.398 . S
C1024 C1025 1.391 . S
C1025 H1013 0.950 . S
C1025 C1021 1.393 . S
C1025 C1024 1.391 . S
C1026 H1016 0.950 . S
C1026 C1027 1.386 . S
C1026 C1028 1.391 . S
C1027 C1026 1.386 . S
C1027 C1031 1.393 . S
C1028 H1017 0.950 . S
C1028 C1026 1.391 . S
C1028 C1029 1.400 . S
C1029 C1023 1.491 . S
C1029 C1028 1.400 . S
C1029 C1030 1.398 . S
C1030 H1018 0.950 . S
C1030 C1029 1.398 . S
C1030 C1031 1.391 . S
C1031 H1019 0.950 . S
C1031 C1027 1.393 . S
C1031 C1030 1.391 . S
H1032 C1040 0.950 . S
H1033 C1045 0.950 . S
H1034 C1042 0.950 . S
H1035 C1044 0.950 . S
H1036 C1046 0.950 . S
H1037 C1048 0.950 1_554 S
H1038 C1050 0.950 . S
H1039 C1051 0.950 . S
C1040 H1032 0.950 . S
C1040 C1041 1.386 . S
C1040 C1042 1.391 . S
C1041 C1040 1.386 . S
C1041 C1045 1.393 . S
C1042 H1034 0.950 . S
C1042 C1040 1.391 . S
C1042 C1043 1.400 . S
C1043 C1042 1.400 . S
C1043 C1044 1.398 . S
C1043 C1049 1.491 . S
C1044 H1035 0.950 . S
C1044 C1043 1.398 . S
C1044 C1045 1.391 . S
C1045 H1033 0.950 . S
C1045 C1041 1.393 . S
C1045 C1044 1.391 . S
C1046 H1036 0.950 . S
C1046 C1047 1.386 1_554 S
C1046 C1048 1.391 1_554 S
C1047 C1046 1.386 1_556 S
C1047 C1051 1.393 . S
C1048 H1037 0.950 1_556 S
C1048 C1046 1.391 1_556 S
C1048 C1049 1.400 . S
C1049 C1043 1.491 . S
C1049 C1048 1.400 . S
C1049 C1050 1.398 . S
C1050 H1038 0.950 . S
C1050 C1049 1.398 . S
C1050 C1051 1.391 . S
C1051 H1039 0.950 . S
C1051 C1047 1.393 . S
C1051 C1050 1.391 . S
H1052 C1060 0.950 . S
H1053 C1065 0.950 . S
H1054 C1062 0.950 . S
H1055 C1064 0.950 . S
H1056 C1066 0.950 . S
H1057 C1068 0.950 . S
H1058 C1070 0.950 . S
H1059 C1071 0.950 . S
C1060 H1052 0.950 . S
C1060 C1061 1.386 . S
C1060 C1062 1.391 . S
C1061 C1060 1.386 . S
C1061 C1065 1.393 . S
C1062 H1054 0.950 . S
C1062 C1060 1.391 . S
C1062 C1063 1.400 . S
C1063 C1062 1.400 . S
C1063 C1064 1.398 . S
C1063 C1069 1.491 . S
C1064 H1055 0.950 . S
C1064 C1063 1.398 . S
C1064 C1065 1.391 . S
C1065 H1053 0.950 . S
C1065 C1061 1.393 . S
C1065 C1064 1.391 . S
C1066 H1056 0.950 . S
C1066 C1067 1.386 . S
C1066 C1068 1.391 . S
C1067 C1066 1.386 . S
C1067 C1071 1.393 . S
C1068 H1057 0.950 . S
C1068 C1066 1.391 . S
C1068 C1069 1.400 . S
C1069 C1063 1.491 . S
C1069 C1068 1.400 . S
C1069 C1070 1.398 . S
C1070 H1058 0.950 . S
C1070 C1069 1.398 . S
C1070 C1071 1.391 . S
C1071 H1059 0.950 . S
C1071 C1067 1.393 . S
C1071 C1070 1.391 . S
H1072 C1080 0.950 . S
H1073 C1085 0.950 . S
H1074 C1082 0.950 . S
H1075 C1084 0.950 . S
H1076 C1086 0.950 . S
H1077 C1088 0.950 . S
H1078 C1090 0.950 1_554 S
H1079 C1091 0.950 . S
C1080 H1072 0.950 . S
C1080 C1081 1.386 . S
C1080 C1082 1.391 . S
C1081 C1080 1.386 . S
C1081 C1085 1.393 . S
C1082 H1074 0.950 . S
C1082 C1080 1.391 . S
C1082 C1083 1.400 . S
C1083 C1082 1.400 . S
C1083 C1084 1.398 . S
C1083 C1089 1.491 . S
C1084 H1075 0.950 . S
C1084 C1083 1.398 . S
C1084 C1085 1.391 . S
C1085 H1073 0.950 . S
C1085 C1081 1.393 . S
C1085 C1084 1.391 . S
C1086 H1076 0.950 . S
C1086 C1087 1.386 . S
C1086 C1088 1.391 . S
C1087 C1086 1.386 . S
C1087 C1091 1.393 1_556 S
C1088 H1077 0.950 . S
C1088 C1086 1.391 . S
C1088 C1089 1.400 . S
C1089 C1083 1.491 . S
C1089 C1088 1.400 . S
C1089 C1090 1.398 . S
C1090 H1078 0.950 1_556 S
C1090 C1089 1.398 . S
C1090 C1091 1.391 1_556 S
C1091 H1079 0.950 . S
C1091 C1087 1.393 1_554 S
C1091 C1090 1.391 1_554 S
H1092 C1100 0.950 . S
H1093 C1105 0.950 . S
H1094 C1102 0.950 . S
H1095 C1104 0.950 . S
H1096 C1106 0.950 . S
H1097 C1108 0.950 . S
H1098 C1110 0.950 . S
H1099 C1111 0.950 . S
C1100 H1092 0.950 . S
C1100 C1101 1.386 . S
C1100 C1102 1.391 . S
C1101 C1100 1.386 . S
C1101 C1105 1.393 . S
C1102 H1094 0.950 . S
C1102 C1100 1.391 . S
C1102 C1103 1.400 . S
C1103 C1102 1.400 . S
C1103 C1104 1.398 . S
C1103 C1109 1.491 . S
C1104 H1095 0.950 . S
C1104 C1103 1.398 . S
C1104 C1105 1.391 . S
C1105 H1093 0.950 . S
C1105 C1101 1.393 . S
C1105 C1104 1.391 . S
C1106 H1096 0.950 . S
C1106 C1107 1.386 . S
C1106 C1108 1.391 . S
C1107 C1106 1.386 . S
C1107 C1111 1.393 . S
C1108 H1097 0.950 . S
C1108 C1106 1.391 . S
C1108 C1109 1.400 . S
C1109 C1103 1.491 . S
C1109 C1108 1.400 . S
C1109 C1110 1.398 . S
C1110 H1098 0.950 . S
C1110 C1109 1.398 . S
C1110 C1111 1.391 . S
C1111 H1099 0.950 . S
C1111 C1107 1.393 . S
C1111 C1110 1.391 . S
H1112 C1120 0.950 . S
H1113 C1125 0.950 . S
H1114 C1122 0.950 1_554 S
H1115 C1124 0.950 . S
H1116 C1126 0.950 . S
H1117 C1128 0.950 . S
H1118 C1130 0.950 . S
H1119 C1131 0.950 . S
C1120 H1112 0.950 . S
C1120 C1121 1.386 . S
C1120 C1122 1.391 . S
C1121 C1120 1.386 . S
C1121 C1125 1.393 . S
C1122 H1114 0.950 1_556 S
C1122 C1120 1.391 . S
C1122 C1123 1.400 . S
C1123 C1122 1.400 . S
C1123 C1124 1.398 . S
C1123 C1129 1.491 . S
C1124 H1115 0.950 . S
C1124 C1123 1.398 . S
C1124 C1125 1.391 . S
C1125 H1113 0.950 . S
C1125 C1121 1.393 . S
C1125 C1124 1.391 . S
C1126 H1116 0.950 . S
C1126 C1127 1.386 . S
C1126 C1128 1.391 . S
C1127 C1126 1.386 . S
C1127 C1131 1.393 1_556 S
C1128 H1117 0.950 . S
C1128 C1126 1.391 . S
C1128 C1129 1.400 . S
C1129 C1123 1.491 . S
C1129 C1128 1.400 . S
C1129 C1130 1.398 1_556 S
C1130 H1118 0.950 . S
C1130 C1129 1.398 1_554 S
C1130 C1131 1.391 . S
C1131 H1119 0.950 . S
C1131 C1127 1.393 1_554 S
C1131 C1130 1.391 . S
H1132 C1140 0.950 . S
H1133 C1145 0.950 1_554 S
H1134 C1142 0.950 . S
H1135 C1144 0.950 1_554 S
H1136 C1146 0.950 . S
H1137 C1148 0.950 . S
H1138 C1150 0.950 . S
H1139 C1151 0.950 . S
C1140 H1132 0.950 . S
C1140 C1141 1.386 . S
C1140 C1142 1.391 . S
C1141 C1140 1.386 . S
C1141 C1145 1.393 . S
C1142 H1134 0.950 . S
C1142 C1140 1.391 . S
C1142 C1143 1.400 . S
C1143 C1142 1.400 . S
C1143 C1144 1.398 . S
C1143 C1149 1.491 . S
C1144 H1135 0.950 1_556 S
C1144 C1143 1.398 . S
C1144 C1145 1.391 . S
C1145 H1133 0.950 1_556 S
C1145 C1141 1.393 . S
C1145 C1144 1.391 . S
C1146 H1136 0.950 . S
C1146 C1147 1.386 1_554 S
C1146 C1148 1.391 . S
C1147 C1146 1.386 1_556 S
C1147 C1151 1.393 . S
C1148 H1137 0.950 . S
C1148 C1146 1.391 . S
C1148 C1149 1.400 1_554 S
C1149 C1143 1.491 . S
C1149 C1148 1.400 1_556 S
C1149 C1150 1.398 . S
C1150 H1138 0.950 . S
C1150 C1149 1.398 . S
C1150 C1151 1.391 . S
C1151 H1139 0.950 . S
C1151 C1147 1.393 . S
C1151 C1150 1.391 . S
H1152 C1160 0.950 . S
H1153 C1165 0.950 . S
H1154 C1162 0.950 . S
H1155 C1164 0.950 . S
H1156 C1166 0.950 . S
H1157 C1168 0.950 . S
H1158 C1170 0.950 . S
H1159 C1171 0.950 . S
C1160 H1152 0.950 . S
C1160 C1161 1.386 . S
C1160 C1162 1.391 . S
C1161 C1160 1.386 . S
C1161 C1165 1.393 . S
C1162 H1154 0.950 . S
C1162 C1160 1.391 . S
C1162 C1163 1.400 . S
C1163 C1162 1.400 . S
C1163 C1164 1.398 . S
C1163 C1169 1.491 . S
C1164 H1155 0.950 . S
C1164 C1163 1.398 . S
C1164 C1165 1.391 . S
C1165 H1153 0.950 . S
C1165 C1161 1.393 . S
C1165 C1164 1.391 . S
C1166 H1156 0.950 . S
C1166 C1167 1.386 . S
C1166 C1168 1.391 . S
C1167 C1166 1.386 . S
C1167 C1171 1.393 . S
C1168 H1157 0.950 . S
C1168 C1166 1.391 . S
C1168 C1169 1.400 . S
C1169 C1163 1.491 . S
C1169 C1168 1.400 . S
C1169 C1170 1.398 . S
C1170 H1158 0.950 . S
C1170 C1169 1.398 . S
C1170 C1171 1.391 . S
C1171 H1159 0.950 . S
C1171 C1167 1.393 . S
C1171 C1170 1.391 . S
H1172 C1180 0.950 . S
H1173 C1185 0.950 . S
H1174 C1182 0.950 . S
H1175 C1184 0.950 . S
H1176 C1186 0.950 . S
H1177 C1188 0.950 . S
H1178 C1190 0.950 . S
H1179 C1191 0.950 . S
C1180 H1172 0.950 . S
C1180 C1181 1.386 . S
C1180 C1182 1.391 . S
C1181 C1180 1.386 . S
C1181 C1185 1.393 . S
C1182 H1174 0.950 . S
C1182 C1180 1.391 . S
C1182 C1183 1.400 . S
C1183 C1182 1.400 . S
C1183 C1184 1.398 . S
C1183 C1189 1.491 . S
C1184 H1175 0.950 . S
C1184 C1183 1.398 . S
C1184 C1185 1.391 . S
C1185 H1173 0.950 . S
C1185 C1181 1.393 . S
C1185 C1184 1.391 . S
C1186 H1176 0.950 . S
C1186 C1187 1.386 . S
C1186 C1188 1.391 . S
C1187 C1186 1.386 . S
C1187 C1191 1.393 . S
C1188 H1177 0.950 . S
C1188 C1186 1.391 . S
C1188 C1189 1.400 . S
C1189 C1183 1.491 . S
C1189 C1188 1.400 . S
C1189 C1190 1.398 . S
C1190 H1178 0.950 . S
C1190 C1189 1.398 . S
C1190 C1191 1.391 . S
C1191 H1179 0.950 . S
C1191 C1187 1.393 . S
C1191 C1190 1.391 . S
H1192 C1200 0.950 . S
H1193 C1205 0.950 . S
H1194 C1202 0.950 . S
H1195 C1204 0.950 . S
H1196 C1206 0.950 . S
H1197 C1208 0.950 . S
H1198 C1210 0.950 . S
H1199 C1211 0.950 . S
C1200 H1192 0.950 . S
C1200 C1201 1.386 . S
C1200 C1202 1.391 . S
C1201 C1200 1.386 . S
C1201 C1205 1.393 . S
C1202 H1194 0.950 . S
C1202 C1200 1.391 . S
C1202 C1203 1.400 . S
C1203 C1202 1.400 . S
C1203 C1204 1.398 . S
C1203 C1209 1.491 . S
C1204 H1195 0.950 . S
C1204 C1203 1.398 . S
C1204 C1205 1.391 . S
C1205 H1193 0.950 . S
C1205 C1201 1.393 . S
C1205 C1204 1.391 . S
C1206 H1196 0.950 . S
C1206 C1207 1.386 . S
C1206 C1208 1.391 . S
C1207 C1206 1.386 . S
C1207 C1211 1.393 . S
C1208 H1197 0.950 . S
C1208 C1206 1.391 . S
C1208 C1209 1.400 . S
C1209 C1203 1.491 . S
C1209 C1208 1.400 . S
C1209 C1210 1.398 . S
C1210 H1198 0.950 . S
C1210 C1209 1.398 . S
C1210 C1211 1.391 . S
C1211 H1199 0.950 . S
C1211 C1207 1.393 . S
C1211 C1210 1.391 . S
H1212 C1220 0.950 . S
H1213 C1225 0.950 . S
H1214 C1222 0.950 . S
H1215 C1224 0.950 1_455 S
H1216 C1226 0.950 . S
H1217 C1228 0.950 . S
H1218 C1230 0.933 1_655 S
H1219 C1231 0.950 . S
C1220 H1212 0.950 . S
C1220 C1221 1.386 . S
C1220 C1222 1.391 . S
C1221 C1220 1.386 . S
C1221 C1225 1.393 . S
C1222 H1214 0.950 . S
C1222 C1220 1.391 . S
C1222 C1223 1.400 . S
C1223 C1222 1.400 . S
C1223 C1224 1.398 . S
C1223 C1229 1.491 1_655 S
C1224 H1215 0.950 1_655 S
C1224 C1223 1.398 . S
C1224 C1225 1.391 . S
C1225 H1213 0.950 . S
C1225 C1221 1.393 . S
C1225 C1224 1.391 . S
C1226 H1216 0.950 . S
C1226 C1227 1.386 . S
C1226 C1228 1.391 . S
C1227 C1226 1.386 . S
C1227 C1231 1.393 . S
C1228 H1217 0.950 . S
C1228 C1226 1.391 . S
C1228 C1229 1.400 . S
C1229 C1223 1.491 1_455 S
C1229 C1228 1.400 . S
C1229 C1230 1.398 . S
C1230 H1218 0.933 1_455 S
C1230 C1229 1.398 . S
C1230 C1231 1.391 . S
C1231 H1219 0.950 . S
C1231 C1227 1.393 . S
C1231 C1230 1.391 . S
H1232 C1240 0.950 . S
H1233 C1245 0.950 . S
H1234 C1242 0.950 . S
H1235 C1244 0.950 . S
H1236 C1246 0.950 . S
H1237 C1248 0.950 . S
H1238 C1250 0.950 . S
H1239 C1251 0.950 . S
C1240 H1232 0.950 . S
C1240 C1241 1.386 . S
C1240 C1242 1.391 . S
C1241 C1240 1.386 . S
C1241 C1245 1.393 . S
C1242 H1234 0.950 . S
C1242 C1240 1.391 . S
C1242 C1243 1.400 . S
C1243 C1242 1.400 . S
C1243 C1244 1.398 . S
C1243 C1249 1.491 . S
C1244 H1235 0.950 . S
C1244 C1243 1.398 . S
C1244 C1245 1.391 . S
C1245 H1233 0.950 . S
C1245 C1241 1.393 . S
C1245 C1244 1.391 . S
C1246 H1236 0.950 . S
C1246 C1247 1.386 . S
C1246 C1248 1.391 . S
C1247 C1246 1.386 . S
C1247 C1251 1.393 . S
C1248 H1237 0.950 . S
C1248 C1246 1.391 . S
C1248 C1249 1.400 . S
C1249 C1243 1.491 . S
C1249 C1248 1.400 . S
C1249 C1250 1.398 . S
C1250 H1238 0.950 . S
C1250 C1249 1.398 . S
C1250 C1251 1.391 . S
C1251 H1239 0.950 . S
C1251 C1247 1.393 . S
C1251 C1250 1.391 . S
H1252 C1260 0.950 . S
H1253 C1265 0.950 . S
H1254 C1262 0.950 . S
H1255 C1264 0.950 . S
H1256 C1266 0.950 . S
H1257 C1268 0.950 1_545 S
H1258 C1270 0.950 . S
H1259 C1271 0.950 . S
C1260 H1252 0.950 . S
C1260 C1261 1.386 . S
C1260 C1262 1.391 . S
C1261 C1260 1.386 . S
C1261 C1265 1.393 . S
C1262 H1254 0.950 . S
C1262 C1260 1.391 . S
C1262 C1263 1.400 . S
C1263 C1262 1.400 . S
C1263 C1264 1.398 . S
C1263 C1269 1.491 1_545 S
C1264 H1255 0.950 . S
C1264 C1263 1.398 . S
C1264 C1265 1.391 . S
C1265 H1253 0.950 . S
C1265 C1261 1.393 . S
C1265 C1264 1.391 . S
C1266 H1256 0.950 . S
C1266 C1267 1.386 . S
C1266 C1268 1.391 . S
C1267 C1266 1.386 . S
C1267 C1271 1.393 . S
C1268 H1257 0.950 1_565 S
C1268 C1266 1.391 . S
C1268 C1269 1.400 . S
C1269 C1263 1.491 1_565 S
C1269 C1268 1.400 . S
C1269 C1270 1.398 . S
C1270 H1258 0.950 . S
C1270 C1269 1.398 . S
C1270 C1271 1.391 . S
C1271 H1259 0.950 . S
C1271 C1267 1.393 . S
C1271 C1270 1.391 . S
H1272 C1280 0.950 . S
H1273 C1285 0.950 . S
H1274 C1282 0.950 . S
H1275 C1284 0.950 . S
H1276 C1286 0.950 . S
H1277 C1288 0.950 . S
H1278 C1290 0.950 . S
H1279 C1291 0.950 . S
C1280 H1272 0.950 . S
C1280 C1281 1.386 . S
C1280 C1282 1.391 . S
C1281 C1280 1.386 . S
C1281 C1285 1.393 . S
C1282 H1274 0.950 . S
C1282 C1280 1.391 . S
C1282 C1283 1.400 . S
C1283 C1282 1.400 . S
C1283 C1284 1.398 . S
C1283 C1289 1.491 . S
C1284 H1275 0.950 . S
C1284 C1283 1.398 . S
C1284 C1285 1.391 . S
C1285 H1273 0.950 . S
C1285 C1281 1.393 . S
C1285 C1284 1.391 . S
C1286 H1276 0.950 . S
C1286 C1287 1.386 . S
C1286 C1288 1.391 . S
C1287 C1286 1.386 . S
C1287 C1291 1.393 . S
C1288 H1277 0.950 . S
C1288 C1286 1.391 . S
C1288 C1289 1.400 . S
C1289 C1283 1.491 . S
C1289 C1288 1.400 . S
C1289 C1290 1.398 . S
C1290 H1278 0.950 . S
C1290 C1289 1.398 . S
C1290 C1291 1.391 . S
C1291 H1279 0.950 . S
C1291 C1287 1.393 . S
C1291 C1290 1.391 . S
H1292 C1300 0.950 . S
H1293 C1305 0.950 . S
H1294 C1302 0.950 . S
H1295 C1304 0.950 . S
H1296 C1306 0.950 . S
H1297 C1308 0.950 . S
H1298 C1310 0.950 . S
H1299 C1311 0.950 . S
C1300 H1292 0.950 . S
C1300 C1301 1.386 . S
C1300 C1302 1.391 . S
C1301 C1300 1.386 . S
C1301 C1305 1.393 . S
C1302 H1294 0.950 . S
C1302 C1300 1.391 . S
C1302 C1303 1.400 . S
C1303 C1302 1.400 . S
C1303 C1304 1.398 . S
C1303 C1309 1.491 . S
C1304 H1295 0.950 . S
C1304 C1303 1.398 . S
C1304 C1305 1.391 . S
C1305 H1293 0.950 . S
C1305 C1301 1.393 . S
C1305 C1304 1.391 . S
C1306 H1296 0.950 . S
C1306 C1307 1.386 . S
C1306 C1308 1.391 . S
C1307 C1306 1.386 . S
C1307 C1311 1.393 . S
C1308 H1297 0.950 . S
C1308 C1306 1.391 . S
C1308 C1309 1.400 . S
C1309 C1303 1.491 . S
C1309 C1308 1.400 . S
C1309 C1310 1.398 . S
C1310 H1298 0.950 . S
C1310 C1309 1.398 . S
C1310 C1311 1.391 . S
C1311 H1299 0.950 . S
C1311 C1307 1.393 . S
C1311 C1310 1.391 . S
H1312 C1320 0.950 . S
H1313 C1325 0.950 . S
H1314 C1322 0.950 . S
H1315 C1324 0.950 . S
H1316 C1326 0.950 . S
H1317 C1328 0.950 . S
H1318 C1330 0.950 . S
H1319 C1331 0.950 . S
C1320 H1312 0.950 . S
C1320 C1321 1.386 . S
C1320 C1322 1.391 . S
C1321 C1320 1.386 . S
C1321 C1325 1.393 . S
C1322 H1314 0.950 . S
C1322 C1320 1.391 . S
C1322 C1323 1.400 . S
C1323 C1322 1.400 . S
C1323 C1324 1.398 . S
C1323 C1329 1.491 . S
C1324 H1315 0.950 . S
C1324 C1323 1.398 . S
C1324 C1325 1.391 . S
C1325 H1313 0.950 . S
C1325 C1321 1.393 . S
C1325 C1324 1.391 . S
C1326 H1316 0.950 . S
C1326 C1327 1.386 . S
C1326 C1328 1.391 . S
C1327 C1326 1.386 . S
C1327 C1331 1.393 . S
C1328 H1317 0.950 . S
C1328 C1326 1.391 . S
C1328 C1329 1.400 . S
C1329 C1323 1.491 . S
C1329 C1328 1.400 . S
C1329 C1330 1.398 . S
C1330 H1318 0.950 . S
C1330 C1329 1.398 . S
C1330 C1331 1.391 . S
C1331 H1319 0.950 . S
C1331 C1327 1.393 . S
C1331 C1330 1.391 . S
H1332 C1340 0.950 . S
H1333 C1345 0.950 . S
H1334 C1342 0.950 . S
H1335 C1344 0.950 . S
H1336 C1346 0.950 . S
H1337 C1348 0.950 . S
H1338 C1350 0.950 . S
H1339 C1351 0.950 . S
C1340 H1332 0.950 . S
C1340 C1341 1.386 . S
C1340 C1342 1.391 . S
C1341 C1340 1.386 . S
C1341 C1345 1.393 . S
C1342 H1334 0.950 . S
C1342 C1340 1.391 . S
C1342 C1343 1.400 . S
C1343 C1342 1.400 . S
C1343 C1344 1.398 . S
C1343 C1349 1.491 . S
C1344 H1335 0.950 . S
C1344 C1343 1.398 . S
C1344 C1345 1.391 . S
C1345 H1333 0.950 . S
C1345 C1341 1.393 . S
C1345 C1344 1.391 . S
C1346 H1336 0.950 . S
C1346 C1347 1.386 . S
C1346 C1348 1.391 . S
C1347 C1346 1.386 . S
C1347 C1351 1.393 . S
C1348 H1337 0.950 . S
C1348 C1346 1.391 . S
C1348 C1349 1.400 . S
C1349 C1343 1.491 . S
C1349 C1348 1.400 . S
C1349 C1350 1.398 . S
C1350 H1338 0.950 . S
C1350 C1349 1.398 . S
C1350 C1351 1.391 . S
C1351 H1339 0.950 . S
C1351 C1347 1.393 . S
C1351 C1350 1.391 . S
H1352 C1360 0.950 . S
H1353 C1365 0.950 . S
H1354 C1362 0.950 . S
H1355 C1364 0.950 . S
H1356 C1366 0.950 . S
H1357 C1368 0.950 . S
H1358 C1370 0.950 . S
H1359 C1371 0.950 . S
C1360 H1352 0.950 . S
C1360 C1361 1.386 . S
C1360 C1362 1.391 . S
C1361 C1360 1.386 . S
C1361 C1365 1.393 . S
C1362 H1354 0.950 . S
C1362 C1360 1.391 . S
C1362 C1363 1.400 . S
C1363 C1362 1.400 . S
C1363 C1364 1.398 . S
C1363 C1369 1.491 . S
C1364 H1355 0.950 . S
C1364 C1363 1.398 . S
C1364 C1365 1.391 . S
C1365 H1353 0.950 . S
C1365 C1361 1.393 . S
C1365 C1364 1.391 . S
C1366 H1356 0.950 . S
C1366 C1367 1.386 . S
C1366 C1368 1.391 . S
C1367 C1366 1.386 . S
C1367 C1371 1.393 . S
C1368 H1357 0.950 . S
C1368 C1366 1.391 . S
C1368 C1369 1.400 . S
C1369 C1363 1.491 . S
C1369 C1368 1.400 . S
C1369 C1370 1.398 . S
C1370 H1358 0.950 . S
C1370 C1369 1.398 . S
C1370 C1371 1.391 . S
C1371 H1359 0.950 . S
C1371 C1367 1.393 . S
C1371 C1370 1.391 . S
H1372 C1380 0.950 . S
H1373 C1385 0.950 . S
H1374 C1382 0.950 . S
H1375 C1384 0.950 . S
H1376 C1386 0.950 . S
H1377 C1388 0.950 . S
H1378 C1390 0.950 . S
H1379 C1391 0.950 . S
C1380 H1372 0.950 . S
C1380 C1381 1.386 . S
C1380 C1382 1.391 . S
C1381 C1380 1.386 . S
C1381 C1385 1.393 . S
C1382 H1374 0.950 . S
C1382 C1380 1.391 . S
C1382 C1383 1.400 . S
C1383 C1382 1.400 . S
C1383 C1384 1.398 . S
C1383 C1389 1.491 . S
C1384 H1375 0.950 . S
C1384 C1383 1.398 . S
C1384 C1385 1.391 . S
C1385 H1373 0.950 . S
C1385 C1381 1.393 . S
C1385 C1384 1.391 . S
C1386 H1376 0.950 . S
C1386 C1387 1.386 . S
C1386 C1388 1.391 . S
C1387 C1386 1.386 . S
C1387 C1391 1.393 . S
C1388 H1377 0.950 . S
C1388 C1386 1.391 . S
C1388 C1389 1.400 . S
C1389 C1383 1.491 . S
C1389 C1388 1.400 . S
C1389 C1390 1.398 . S
C1390 H1378 0.950 . S
C1390 C1389 1.398 . S
C1390 C1391 1.391 . S
C1391 H1379 0.950 . S
C1391 C1387 1.393 . S
C1391 C1390 1.391 . S
H1392 C1400 0.950 . S
H1393 C1405 0.950 . S
H1394 C1402 0.950 . S
H1395 C1404 0.950 . S
H1396 C1406 0.950 . S
H1397 C1408 0.950 . S
H1398 C1410 0.950 . S
H1399 C1411 0.950 . S
C1400 H1392 0.950 . S
C1400 C1401 1.386 . S
C1400 C1402 1.391 1_545 S
C1401 C1400 1.386 . S
C1401 C1405 1.393 . S
C1402 H1394 0.950 . S
C1402 C1400 1.391 1_565 S
C1402 C1403 1.400 . S
C1403 C1402 1.400 . S
C1403 C1404 1.398 . S
C1403 C1409 1.491 . S
C1404 H1395 0.950 . S
C1404 C1403 1.398 . S
C1404 C1405 1.391 1_565 S
C1405 H1393 0.950 . S
C1405 C1401 1.393 . S
C1405 C1404 1.391 1_545 S
C1406 H1396 0.950 . S
C1406 C1407 1.386 . S
C1406 C1408 1.391 . S
C1407 C1406 1.386 . S
C1407 C1411 1.393 . S
C1408 H1397 0.950 . S
C1408 C1406 1.391 . S
C1408 C1409 1.400 . S
C1409 C1403 1.491 . S
C1409 C1408 1.400 . S
C1409 C1410 1.398 . S
C1410 H1398 0.950 . S
C1410 C1409 1.398 . S
C1410 C1411 1.391 . S
C1411 H1399 0.950 . S
C1411 C1407 1.393 . S
C1411 C1410 1.391 . S
H1412 C1420 0.949 1_655 S
H1413 C1425 0.950 . S
H1414 C1422 0.950 . S
H1415 C1424 0.950 . S
H1416 C1426 0.950 . S
H1417 C1428 0.950 . S
H1418 C1430 0.950 . S
H1419 C1431 0.950 . S
C1420 H1412 0.949 1_455 S
C1420 C1421 1.385 1_455 S
C1420 C1422 1.392 . S
C1421 C1420 1.385 1_655 S
C1421 C1425 1.393 1_655 S
C1422 H1414 0.950 . S
C1422 C1420 1.392 . S
C1422 C1423 1.400 . S
C1423 C1422 1.400 . S
C1423 C1424 1.398 . S
C1423 C1429 1.491 . S
C1424 H1415 0.950 . S
C1424 C1423 1.398 . S
C1424 C1425 1.391 . S
C1425 H1413 0.950 . S
C1425 C1421 1.393 1_455 S
C1425 C1424 1.391 . S
C1426 H1416 0.950 . S
C1426 C1427 1.386 . S
C1426 C1428 1.391 . S
C1427 C1426 1.386 . S
C1427 C1431 1.393 . S
C1428 H1417 0.950 . S
C1428 C1426 1.391 . S
C1428 C1429 1.400 . S
C1429 C1423 1.491 . S
C1429 C1428 1.400 . S
C1429 C1430 1.398 . S
C1430 H1418 0.950 . S
C1430 C1429 1.398 . S
C1430 C1431 1.391 . S
C1431 H1419 0.950 . S
C1431 C1427 1.393 . S
C1431 C1430 1.391 . S
H1432 C1440 0.950 . S
H1433 C1445 0.950 . S
H1434 C1442 0.950 . S
H1435 C1444 0.950 . S
H1436 C1446 0.950 . S
H1437 C1448 0.950 . S
H1438 C1450 0.950 . S
H1439 C1451 0.950 . S
C1440 H1432 0.950 . S
C1440 C1441 1.386 . S
C1440 C1442 1.391 . S
C1441 C1440 1.386 . S
C1441 C1445 1.393 . S
C1442 H1434 0.950 . S
C1442 C1440 1.391 . S
C1442 C1443 1.400 . S
C1443 C1442 1.400 . S
C1443 C1444 1.398 . S
C1443 C1449 1.491 . S
C1444 H1435 0.950 . S
C1444 C1443 1.398 . S
C1444 C1445 1.391 . S
C1445 H1433 0.950 . S
C1445 C1441 1.393 . S
C1445 C1444 1.391 . S
C1446 H1436 0.950 . S
C1446 C1447 1.386 . S
C1446 C1448 1.391 . S
C1447 C1446 1.386 . S
C1447 C1451 1.393 . S
C1448 H1437 0.950 . S
C1448 C1446 1.391 . S
C1448 C1449 1.400 . S
C1449 C1443 1.491 . S
C1449 C1448 1.400 . S
C1449 C1450 1.398 . S
C1450 H1438 0.950 . S
C1450 C1449 1.398 . S
C1450 C1451 1.391 . S
C1451 H1439 0.950 . S
C1451 C1447 1.393 . S
C1451 C1450 1.391 . S
H1452 C1460 0.950 . S
H1453 C1465 0.950 . S
H1454 C1462 0.950 . S
H1455 C1464 0.950 . S
H1456 C1466 0.950 . S
H1457 C1468 0.950 . S
H1458 C1470 0.950 . S
H1459 C1471 0.950 . S
C1460 H1452 0.950 . S
C1460 C1461 1.386 . S
C1460 C1462 1.391 . S
C1461 C1460 1.386 . S
C1461 C1465 1.393 . S
C1462 H1454 0.950 . S
C1462 C1460 1.391 . S
C1462 C1463 1.400 . S
C1463 C1462 1.400 . S
C1463 C1464 1.398 . S
C1463 C1469 1.491 . S
C1464 H1455 0.950 . S
C1464 C1463 1.398 . S
C1464 C1465 1.391 . S
C1465 H1453 0.950 . S
C1465 C1461 1.393 . S
C1465 C1464 1.391 . S
C1466 H1456 0.950 . S
C1466 C1467 1.386 . S
C1466 C1468 1.391 . S
C1467 C1466 1.386 . S
C1467 C1471 1.393 . S
C1468 H1457 0.950 . S
C1468 C1466 1.391 . S
C1468 C1469 1.400 . S
C1469 C1463 1.491 . S
C1469 C1468 1.400 . S
C1469 C1470 1.398 . S
C1470 H1458 0.950 . S
C1470 C1469 1.398 . S
C1470 C1471 1.391 . S
C1471 H1459 0.950 . S
C1471 C1467 1.393 . S
C1471 C1470 1.391 . S
H1472 C1480 0.950 . S
H1473 C1485 0.950 . S
H1474 C1482 0.950 . S
H1475 C1484 0.950 . S
H1476 C1486 0.950 . S
H1477 C1488 0.950 . S
H1478 C1490 0.950 . S
H1479 C1491 0.950 . S
C1480 H1472 0.950 . S
C1480 C1481 1.386 . S
C1480 C1482 1.391 . S
C1481 C1480 1.386 . S
C1481 C1485 1.393 . S
C1482 H1474 0.950 . S
C1482 C1480 1.391 . S
C1482 C1483 1.400 . S
C1483 C1482 1.400 . S
C1483 C1484 1.398 . S
C1483 C1489 1.491 . S
C1484 H1475 0.950 . S
C1484 C1483 1.398 . S
C1484 C1485 1.391 . S
C1485 H1473 0.950 . S
C1485 C1481 1.393 . S
C1485 C1484 1.391 . S
C1486 H1476 0.950 . S
C1486 C1487 1.386 . S
C1486 C1488 1.391 . S
C1487 C1486 1.386 . S
C1487 C1491 1.393 . S
C1488 H1477 0.950 . S
C1488 C1486 1.391 . S
C1488 C1489 1.400 . S
C1489 C1483 1.491 . S
C1489 C1488 1.400 . S
C1489 C1490 1.398 . S
C1490 H1478 0.950 . S
C1490 C1489 1.398 . S
C1490 C1491 1.391 . S
C1491 H1479 0.950 . S
C1491 C1487 1.393 . S
C1491 C1490 1.391 . S
H1492 C1500 0.950 . S
H1493 C1505 0.950 . S
H1494 C1502 0.950 . S
H1495 C1504 0.950 . S
H1496 C1506 0.950 . S
H1497 C1508 0.950 . S
H1498 C1510 0.950 . S
H1499 C1511 0.950 . S
C1500 H1492 0.950 . S
C1500 C1501 1.386 . S
C1500 C1502 1.391 . S
C1501 C1500 1.386 . S
C1501 C1505 1.393 . S
C1502 H1494 0.950 . S
C1502 C1500 1.391 . S
C1502 C1503 1.400 . S
C1503 C1502 1.400 . S
C1503 C1504 1.398 . S
C1503 C1509 1.491 . S
C1504 H1495 0.950 . S
C1504 C1503 1.398 . S
C1504 C1505 1.391 . S
C1505 H1493 0.950 . S
C1505 C1501 1.393 . S
C1505 C1504 1.391 . S
C1506 H1496 0.950 . S
C1506 C1507 1.386 . S
C1506 C1508 1.391 . S
C1507 C1506 1.386 . S
C1507 C1511 1.393 . S
C1508 H1497 0.950 . S
C1508 C1506 1.391 . S
C1508 C1509 1.400 . S
C1509 C1503 1.491 . S
C1509 C1508 1.400 . S
C1509 C1510 1.398 . S
C1510 H1498 0.950 . S
C1510 C1509 1.398 . S
C1510 C1511 1.391 . S
C1511 H1499 0.950 . S
C1511 C1507 1.393 . S
C1511 C1510 1.391 . S
H1512 C1520 0.950 . S
H1513 C1525 0.950 . S
H1514 C1522 0.950 . S
H1515 C1524 0.950 . S
H1516 C1526 0.950 . S
H1517 C1528 0.950 . S
H1518 C1530 0.950 . S
H1519 C1531 0.950 . S
C1520 H1512 0.950 . S
C1520 C1521 1.386 . S
C1520 C1522 1.391 . S
C1521 C1520 1.386 . S
C1521 C1525 1.393 . S
C1522 H1514 0.950 . S
C1522 C1520 1.391 . S
C1522 C1523 1.400 . S
C1523 C1522 1.400 . S
C1523 C1524 1.398 . S
C1523 C1529 1.491 1_565 S
C1524 H1515 0.950 . S
C1524 C1523 1.398 . S
C1524 C1525 1.391 . S
C1525 H1513 0.950 . S
C1525 C1521 1.393 . S
C1525 C1524 1.391 . S
C1526 H1516 0.950 . S
C1526 C1527 1.386 . S
C1526 C1528 1.391 . S
C1527 C1526 1.386 . S
C1527 C1531 1.393 . S
C1528 H1517 0.950 . S
C1528 C1526 1.391 . S
C1528 C1529 1.400 . S
C1529 C1523 1.491 1_545 S
C1529 C1528 1.400 . S
C1529 C1530 1.398 . S
C1530 H1518 0.950 . S
C1530 C1529 1.398 . S
C1530 C1531 1.391 . S
C1531 H1519 0.950 . S
C1531 C1527 1.393 . S
C1531 C1530 1.391 . S
H1532 C1540 0.950 . S
H1533 C1545 0.950 . S
H1534 C1542 0.950 . S
H1535 C1544 0.950 1_655 S
H1536 C1546 0.950 . S
H1537 C1548 0.950 . S
H1538 C1550 0.950 1_455 S
H1539 C1551 0.950 . S
C1540 H1532 0.950 . S
C1540 C1541 1.386 . S
C1540 C1542 1.391 . S
C1541 C1540 1.386 . S
C1541 C1545 1.393 . S
C1542 H1534 0.950 . S
C1542 C1540 1.391 . S
C1542 C1543 1.400 . S
C1543 C1542 1.400 . S
C1543 C1544 1.398 . S
C1543 C1549 1.491 1_455 S
C1544 H1535 0.950 1_455 S
C1544 C1543 1.398 . S
C1544 C1545 1.391 . S
C1545 H1533 0.950 . S
C1545 C1541 1.393 . S
C1545 C1544 1.391 . S
C1546 H1536 0.950 . S
C1546 C1547 1.386 . S
C1546 C1548 1.391 . S
C1547 C1546 1.386 . S
C1547 C1551 1.393 . S
C1548 H1537 0.950 . S
C1548 C1546 1.391 . S
C1548 C1549 1.400 . S
C1549 C1543 1.491 1_655 S
C1549 C1548 1.400 . S
C1549 C1550 1.398 . S
C1550 H1538 0.950 1_655 S
C1550 C1549 1.398 . S
C1550 C1551 1.391 . S
C1551 H1539 0.950 . S
C1551 C1547 1.393 . S
C1551 C1550 1.391 . S
H1552 C1560 0.950 . S
H1553 C1565 0.950 . S
H1554 C1562 0.950 . S
H1555 C1564 0.950 . S
H1556 C1566 0.950 . S
H1557 C1568 0.950 . S
H1558 C1570 0.950 . S
H1559 C1571 0.950 . S
C1560 H1552 0.950 . S
C1560 C1561 1.386 . S
C1560 C1562 1.391 . S
C1561 C1560 1.386 . S
C1561 C1565 1.393 . S
C1562 H1554 0.950 . S
C1562 C1560 1.391 . S
C1562 C1563 1.400 . S
C1563 C1562 1.400 . S
C1563 C1564 1.398 . S
C1563 C1569 1.491 . S
C1564 H1555 0.950 . S
C1564 C1563 1.398 . S
C1564 C1565 1.391 . S
C1565 H1553 0.950 . S
C1565 C1561 1.393 . S
C1565 C1564 1.391 . S
C1566 H1556 0.950 . S
C1566 C1567 1.386 . S
C1566 C1568 1.391 . S
C1567 C1566 1.386 . S
C1567 C1571 1.393 . S
C1568 H1557 0.950 . S
C1568 C1566 1.391 . S
C1568 C1569 1.400 . S
C1569 C1563 1.491 . S
C1569 C1568 1.400 . S
C1569 C1570 1.398 . S
C1570 H1558 0.950 . S
C1570 C1569 1.398 . S
C1570 C1571 1.391 . S
C1571 H1559 0.950 . S
C1571 C1567 1.393 . S
C1571 C1570 1.391 . S
H1572 C1580 0.950 . S
H1573 C1585 0.950 1_455 S
H1574 C1582 0.950 . S
H1575 C1584 0.950 . S
H1576 C1586 0.950 . S
H1577 C1588 0.950 . S
H1578 C1590 0.950 . S
H1579 C1591 0.950 . S
C1580 H1572 0.950 . S
C1580 C1581 1.386 . S
C1580 C1582 1.391 1_455 S
C1581 C1580 1.386 . S
C1581 C1585 1.393 1_455 S
C1582 H1574 0.950 . S
C1582 C1580 1.391 1_655 S
C1582 C1583 1.400 . S
C1583 C1582 1.400 . S
C1583 C1584 1.398 . S
C1583 C1589 1.491 . S
C1584 H1575 0.950 . S
C1584 C1583 1.398 . S
C1584 C1585 1.391 . S
C1585 H1573 0.950 1_655 S
C1585 C1581 1.393 1_655 S
C1585 C1584 1.391 . S
C1586 H1576 0.950 . S
C1586 C1587 1.386 . S
C1586 C1588 1.391 . S
C1587 C1586 1.386 . S
C1587 C1591 1.393 . S
C1588 H1577 0.950 . S
C1588 C1586 1.391 . S
C1588 C1589 1.400 . S
C1589 C1583 1.491 . S
C1589 C1588 1.400 . S
C1589 C1590 1.398 . S
C1590 H1578 0.950 . S
C1590 C1589 1.398 . S
C1590 C1591 1.391 . S
C1591 H1579 0.950 . S
C1591 C1587 1.393 . S
C1591 C1590 1.391 . S
H1592 C1600 0.950 . S
H1593 C1605 0.950 . S
H1594 C1602 0.950 . S
H1595 C1604 0.950 . S
H1596 C1606 0.950 . S
H1597 C1608 0.950 . S
H1598 C1610 0.950 . S
H1599 C1611 0.950 . S
C1600 H1592 0.950 . S
C1600 C1601 1.386 . S
C1600 C1602 1.391 . S
C1601 C1600 1.386 . S
C1601 C1605 1.393 . S
C1602 H1594 0.950 . S
C1602 C1600 1.391 . S
C1602 C1603 1.400 . S
C1603 C1602 1.400 . S
C1603 C1604 1.398 . S
C1603 C1609 1.491 . S
C1604 H1595 0.950 . S
C1604 C1603 1.398 . S
C1604 C1605 1.391 . S
C1605 H1593 0.950 . S
C1605 C1601 1.393 . S
C1605 C1604 1.391 . S
C1606 H1596 0.950 . S
C1606 C1607 1.386 . S
C1606 C1608 1.391 . S
C1607 C1606 1.386 . S
C1607 C1611 1.393 . S
C1608 H1597 0.950 . S
C1608 C1606 1.391 . S
C1608 C1609 1.400 . S
C1609 C1603 1.491 . S
C1609 C1608 1.400 . S
C1609 C1610 1.398 . S
C1610 H1598 0.950 . S
C1610 C1609 1.398 . S
C1610 C1611 1.391 . S
C1611 H1599 0.950 . S
C1611 C1607 1.393 . S
C1611 C1610 1.391 . S
H1612 C1620 0.950 . S
H1613 C1625 0.950 1_565 S
H1614 C1622 0.950 . S
H1615 C1624 0.950 . S
H1616 C1626 0.950 . S
H1617 C1628 0.950 . S
H1618 C1630 0.950 . S
H1619 C1631 0.950 . S
C1620 H1612 0.950 . S
C1620 C1621 1.386 . S
C1620 C1622 1.391 1_565 S
C1621 C1620 1.386 . S
C1621 C1625 1.393 1_565 S
C1622 H1614 0.950 . S
C1622 C1620 1.391 1_545 S
C1622 C1623 1.400 . S
C1623 C1622 1.400 . S
C1623 C1624 1.398 . S
C1623 C1629 1.491 . S
C1624 H1615 0.950 . S
C1624 C1623 1.398 . S
C1624 C1625 1.391 . S
C1625 H1613 0.950 1_545 S
C1625 C1621 1.393 1_545 S
C1625 C1624 1.391 . S
C1626 H1616 0.950 . S
C1626 C1627 1.386 . S
C1626 C1628 1.391 . S
C1627 C1626 1.386 . S
C1627 C1631 1.393 . S
C1628 H1617 0.950 . S
C1628 C1626 1.391 . S
C1628 C1629 1.400 . S
C1629 C1623 1.491 . S
C1629 C1628 1.400 . S
C1629 C1630 1.398 . S
C1630 H1618 0.950 . S
C1630 C1629 1.398 . S
C1630 C1631 1.391 . S
C1631 H1619 0.950 . S
C1631 C1627 1.393 . S
C1631 C1630 1.391 . S
H1632 C1640 0.950 . S
H1633 C1645 0.950 . S
H1634 C1642 0.950 . S
H1635 C1644 0.950 . S
H1636 C1646 0.950 . S
H1637 C1648 0.950 . S
H1638 C1650 0.950 . S
H1639 C1651 0.950 . S
C1640 H1632 0.950 . S
C1640 C1641 1.386 . S
C1640 C1642 1.391 . S
C1641 C1640 1.386 . S
C1641 C1645 1.393 . S
C1642 H1634 0.950 . S
C1642 C1640 1.391 . S
C1642 C1643 1.400 . S
C1643 C1642 1.400 . S
C1643 C1644 1.398 . S
C1643 C1649 1.491 . S
C1644 H1635 0.950 . S
C1644 C1643 1.398 . S
C1644 C1645 1.391 . S
C1645 H1633 0.950 . S
C1645 C1641 1.393 . S
C1645 C1644 1.391 . S
C1646 H1636 0.950 . S
C1646 C1647 1.386 . S
C1646 C1648 1.391 . S
C1647 C1646 1.386 . S
C1647 C1651 1.393 . S
C1648 H1637 0.950 . S
C1648 C1646 1.391 . S
C1648 C1649 1.400 . S
C1649 C1643 1.491 . S
C1649 C1648 1.400 . S
C1649 C1650 1.398 . S
C1650 H1638 0.950 . S
C1650 C1649 1.398 . S
C1650 C1651 1.391 . S
C1651 H1639 0.950 . S
C1651 C1647 1.393 . S
C1651 C1650 1.391 . S
H1652 C1660 0.950 . S
H1653 C1665 0.950 . S
H1654 C1662 0.950 . S
H1655 C1664 0.950 . S
H1656 C1666 0.950 . S
H1657 C1668 0.950 . S
H1658 C1670 0.950 . S
H1659 C1671 0.950 . S
C1660 H1652 0.950 . S
C1660 C1661 1.386 . S
C1660 C1662 1.391 . S
C1661 C1660 1.386 . S
C1661 C1665 1.393 . S
C1662 H1654 0.950 . S
C1662 C1660 1.391 . S
C1662 C1663 1.400 . S
C1663 C1662 1.400 . S
C1663 C1664 1.398 . S
C1663 C1669 1.491 . S
C1664 H1655 0.950 . S
C1664 C1663 1.398 . S
C1664 C1665 1.391 . S
C1665 H1653 0.950 . S
C1665 C1661 1.393 . S
C1665 C1664 1.391 . S
C1666 H1656 0.950 . S
C1666 C1667 1.386 . S
C1666 C1668 1.391 . S
C1667 C1666 1.386 . S
C1667 C1671 1.393 . S
C1668 H1657 0.950 . S
C1668 C1666 1.391 . S
C1668 C1669 1.400 . S
C1669 C1663 1.491 . S
C1669 C1668 1.400 . S
C1669 C1670 1.398 . S
C1670 H1658 0.950 . S
C1670 C1669 1.398 . S
C1670 C1671 1.391 . S
C1671 H1659 0.950 . S
C1671 C1667 1.393 . S
C1671 C1670 1.391 . S
H1672 C1680 0.950 . S
H1673 C1685 0.950 . S
H1674 C1682 0.950 . S
H1675 C1684 0.950 . S
H1676 C1686 0.950 . S
H1677 C1688 0.950 . S
H1678 C1690 0.950 . S
H1679 C1691 0.950 . S
C1680 H1672 0.950 . S
C1680 C1681 1.386 . S
C1680 C1682 1.391 . S
C1681 C1680 1.386 . S
C1681 C1685 1.393 . S
C1682 H1674 0.950 . S
C1682 C1680 1.391 . S
C1682 C1683 1.400 . S
C1683 C1682 1.400 . S
C1683 C1684 1.398 . S
C1683 C1689 1.491 . S
C1684 H1675 0.950 . S
C1684 C1683 1.398 . S
C1684 C1685 1.391 . S
C1685 H1673 0.950 . S
C1685 C1681 1.393 . S
C1685 C1684 1.391 . S
C1686 H1676 0.950 . S
C1686 C1687 1.386 . S
C1686 C1688 1.391 . S
C1687 C1686 1.386 . S
C1687 C1691 1.393 . S
C1688 H1677 0.950 . S
C1688 C1686 1.391 . S
C1688 C1689 1.400 . S
C1689 C1683 1.491 . S
C1689 C1688 1.400 . S
C1689 C1690 1.398 . S
C1690 H1678 0.950 . S
C1690 C1689 1.398 . S
C1690 C1691 1.391 . S
C1691 H1679 0.950 . S
C1691 C1687 1.393 . S
C1691 C1690 1.391 . S
H1692 C1700 0.950 . S
H1693 C1705 0.950 . S
H1694 C1702 0.950 . S
H1695 C1704 0.950 . S
H1696 C1706 0.950 . S
H1697 C1708 0.950 . S
H1698 C1710 0.950 . S
H1699 C1711 0.950 . S
C1700 H1692 0.950 . S
C1700 C1701 1.386 . S
C1700 C1702 1.391 . S
C1701 C1700 1.386 . S
C1701 C1705 1.393 . S
C1702 H1694 0.950 . S
C1702 C1700 1.391 . S
C1702 C1703 1.400 . S
C1703 C1702 1.400 . S
C1703 C1704 1.398 . S
C1703 C1709 1.491 . S
C1704 H1695 0.950 . S
C1704 C1703 1.398 . S
C1704 C1705 1.391 . S
C1705 H1693 0.950 . S
C1705 C1701 1.393 . S
C1705 C1704 1.391 . S
C1706 H1696 0.950 . S
C1706 C1707 1.386 . S
C1706 C1708 1.391 . S
C1707 C1706 1.386 . S
C1707 C1711 1.393 . S
C1708 H1697 0.950 . S
C1708 C1706 1.391 . S
C1708 C1709 1.400 . S
C1709 C1703 1.491 . S
C1709 C1708 1.400 . S
C1709 C1710 1.398 . S
C1710 H1698 0.950 . S
C1710 C1709 1.398 . S
C1710 C1711 1.391 . S
C1711 H1699 0.950 . S
C1711 C1707 1.393 . S
C1711 C1710 1.391 . S
H1712 C1720 0.950 . S
H1713 C1725 0.950 . S
H1714 C1722 0.950 . S
H1715 C1724 0.950 . S
H1716 C1726 0.950 . S
H1717 C1728 0.950 . S
H1718 C1730 0.950 . S
H1719 C1731 0.950 . S
C1720 H1712 0.950 . S
C1720 C1721 1.386 . S
C1720 C1722 1.391 . S
C1721 C1720 1.386 . S
C1721 C1725 1.393 . S
C1722 H1714 0.950 . S
C1722 C1720 1.391 . S
C1722 C1723 1.400 . S
C1723 C1722 1.400 . S
C1723 C1724 1.398 . S
C1723 C1729 1.491 . S
C1724 H1715 0.950 . S
C1724 C1723 1.398 . S
C1724 C1725 1.391 . S
C1725 H1713 0.950 . S
C1725 C1721 1.393 . S
C1725 C1724 1.391 . S
C1726 H1716 0.950 . S
C1726 C1727 1.386 . S
C1726 C1728 1.391 . S
C1727 C1726 1.386 . S
C1727 C1731 1.393 . S
C1728 H1717 0.950 . S
C1728 C1726 1.391 . S
C1728 C1729 1.400 . S
C1729 C1723 1.491 . S
C1729 C1728 1.400 . S
C1729 C1730 1.398 . S
C1730 H1718 0.950 . S
C1730 C1729 1.398 . S
C1730 C1731 1.391 . S
C1731 H1719 0.950 . S
C1731 C1727 1.393 . S
C1731 C1730 1.391 . S
H1732 C1740 0.950 . S
H1733 C1745 0.950 . S
H1734 C1742 0.950 . S
H1735 C1744 0.950 . S
H1736 C1746 0.950 . S
H1737 C1748 0.950 . S
H1738 C1750 0.950 . S
H1739 C1751 0.950 . S
C1740 H1732 0.950 . S
C1740 C1741 1.386 . S
C1740 C1742 1.391 . S
C1741 C1740 1.386 . S
C1741 C1745 1.393 . S
C1742 H1734 0.950 . S
C1742 C1740 1.391 . S
C1742 C1743 1.400 . S
C1743 C1742 1.400 . S
C1743 C1744 1.398 . S
C1743 C1749 1.491 . S
C1744 H1735 0.950 . S
C1744 C1743 1.398 . S
C1744 C1745 1.391 . S
C1745 H1733 0.950 . S
C1745 C1741 1.393 . S
C1745 C1744 1.391 . S
C1746 H1736 0.950 . S
C1746 C1747 1.386 . S
C1746 C1748 1.391 . S
C1747 C1746 1.386 . S
C1747 C1751 1.393 . S
C1748 H1737 0.950 . S
C1748 C1746 1.391 . S
C1748 C1749 1.400 . S
C1749 C1743 1.491 . S
C1749 C1748 1.400 . S
C1749 C1750 1.398 . S
C1750 H1738 0.950 . S
C1750 C1749 1.398 . S
C1750 C1751 1.391 . S
C1751 H1739 0.950 . S
C1751 C1747 1.393 . S
C1751 C1750 1.391 . S
H1752 C1760 0.950 . S
H1753 C1765 0.950 . S
H1754 C1762 0.950 . S
H1755 C1764 0.950 . S
H1756 C1766 0.950 . S
H1757 C1768 0.950 . S
H1758 C1770 0.950 . S
H1759 C1771 0.950 . S
C1760 H1752 0.950 . S
C1760 C1761 1.386 . S
C1760 C1762 1.391 . S
C1761 C1760 1.386 . S
C1761 C1765 1.393 . S
C1762 H1754 0.950 . S
C1762 C1760 1.391 . S
C1762 C1763 1.400 . S
C1763 C1762 1.400 . S
C1763 C1764 1.398 . S
C1763 C1769 1.491 . S
C1764 H1755 0.950 . S
C1764 C1763 1.398 . S
C1764 C1765 1.391 . S
C1765 H1753 0.950 . S
C1765 C1761 1.393 . S
C1765 C1764 1.391 . S
C1766 H1756 0.950 . S
C1766 C1767 1.386 . S
C1766 C1768 1.391 . S
C1767 C1766 1.386 . S
C1767 C1771 1.393 . S
C1768 H1757 0.950 . S
C1768 C1766 1.391 . S
C1768 C1769 1.400 . S
C1769 C1763 1.491 . S
C1769 C1768 1.400 . S
C1769 C1770 1.398 . S
C1770 H1758 0.950 . S
C1770 C1769 1.398 . S
C1770 C1771 1.391 . S
C1771 H1759 0.950 . S
C1771 C1767 1.393 . S
C1771 C1770 1.391 . S
H1772 C1780 0.950 . S
H1773 C1785 0.950 . S
H1774 C1782 0.950 . S
H1775 C1784 0.950 . S
H1776 C1786 0.950 . S
H1777 C1788 0.950 . S
H1778 C1790 0.950 . S
H1779 C1791 0.950 . S
C1780 H1772 0.950 . S
C1780 C1781 1.386 . S
C1780 C1782 1.391 . S
C1781 C1780 1.386 . S
C1781 C1785 1.393 . S
C1782 H1774 0.950 . S
C1782 C1780 1.391 . S
C1782 C1783 1.400 . S
C1783 C1782 1.400 . S
C1783 C1784 1.398 . S
C1783 C1789 1.491 . S
C1784 H1775 0.950 . S
C1784 C1783 1.398 . S
C1784 C1785 1.391 . S
C1785 H1773 0.950 . S
C1785 C1781 1.393 . S
C1785 C1784 1.391 . S
C1786 H1776 0.950 . S
C1786 C1787 1.386 . S
C1786 C1788 1.391 . S
C1787 C1786 1.386 . S
C1787 C1791 1.393 . S
C1788 H1777 0.950 . S
C1788 C1786 1.391 . S
C1788 C1789 1.400 . S
C1789 C1783 1.491 . S
C1789 C1788 1.400 . S
C1789 C1790 1.398 . S
C1790 H1778 0.950 . S
C1790 C1789 1.398 . S
C1790 C1791 1.391 . S
C1791 H1779 0.950 . S
C1791 C1787 1.393 . S
C1791 C1790 1.391 . S
H1792 C1800 0.950 . S
H1793 C1805 0.950 . S
H1794 C1802 0.950 . S
H1795 C1804 0.950 . S
H1796 C1806 0.950 . S
H1797 C1808 0.950 . S
H1798 C1810 0.950 . S
H1799 C1811 0.950 . S
C1800 H1792 0.950 . S
C1800 C1801 1.386 . S
C1800 C1802 1.391 . S
C1801 C1800 1.386 . S
C1801 C1805 1.393 . S
C1802 H1794 0.950 . S
C1802 C1800 1.391 . S
C1802 C1803 1.400 . S
C1803 C1802 1.400 . S
C1803 C1804 1.398 . S
C1803 C1809 1.491 . S
C1804 H1795 0.950 . S
C1804 C1803 1.398 . S
C1804 C1805 1.391 . S
C1805 H1793 0.950 . S
C1805 C1801 1.393 . S
C1805 C1804 1.391 . S
C1806 H1796 0.950 . S
C1806 C1807 1.386 . S
C1806 C1808 1.391 . S
C1807 C1806 1.386 . S
C1807 C1811 1.393 . S
C1808 H1797 0.950 . S
C1808 C1806 1.391 . S
C1808 C1809 1.400 . S
C1809 C1803 1.491 . S
C1809 C1808 1.400 . S
C1809 C1810 1.398 . S
C1810 H1798 0.950 . S
C1810 C1809 1.398 . S
C1810 C1811 1.391 . S
C1811 H1799 0.950 . S
C1811 C1807 1.393 . S
C1811 C1810 1.391 . S
H1812 C1820 0.950 . S
H1813 C1825 0.950 . S
H1814 C1822 0.950 . S
H1815 C1824 0.950 . S
H1816 C1826 0.950 . S
H1817 C1828 0.950 . S
H1818 C1830 0.950 . S
H1819 C1831 0.950 . S
C1820 H1812 0.950 . S
C1820 C1821 1.386 . S
C1820 C1822 1.391 . S
C1821 C1820 1.386 . S
C1821 C1825 1.393 . S
C1822 H1814 0.950 . S
C1822 C1820 1.391 . S
C1822 C1823 1.400 . S
C1823 C1822 1.400 . S
C1823 C1824 1.398 . S
C1823 C1829 1.491 . S
C1824 H1815 0.950 . S
C1824 C1823 1.398 . S
C1824 C1825 1.391 . S
C1825 H1813 0.950 . S
C1825 C1821 1.393 . S
C1825 C1824 1.391 . S
C1826 H1816 0.950 . S
C1826 C1827 1.386 . S
C1826 C1828 1.391 . S
C1827 C1826 1.386 . S
C1827 C1831 1.393 . S
C1828 H1817 0.950 . S
C1828 C1826 1.391 . S
C1828 C1829 1.400 . S
C1829 C1823 1.491 . S
C1829 C1828 1.400 . S
C1829 C1830 1.398 . S
C1830 H1818 0.950 . S
C1830 C1829 1.398 . S
C1830 C1831 1.391 . S
C1831 H1819 0.950 . S
C1831 C1827 1.393 . S
C1831 C1830 1.391 . S
H1832 C1840 0.950 . S
H1833 C1845 0.950 . S
H1834 C1842 0.950 . S
H1835 C1844 0.950 . S
H1836 C1846 0.950 . S
H1837 C1848 0.950 . S
H1838 C1850 0.950 . S
H1839 C1851 0.950 . S
C1840 H1832 0.950 . S
C1840 C1841 1.386 . S
C1840 C1842 1.391 . S
C1841 C1840 1.386 . S
C1841 C1845 1.393 . S
C1842 H1834 0.950 . S
C1842 C1840 1.391 . S
C1842 C1843 1.400 . S
C1843 C1842 1.400 . S
C1843 C1844 1.398 . S
C1843 C1849 1.491 . S
C1844 H1835 0.950 . S
C1844 C1843 1.398 . S
C1844 C1845 1.391 . S
C1845 H1833 0.950 . S
C1845 C1841 1.393 . S
C1845 C1844 1.391 . S
C1846 H1836 0.950 . S
C1846 C1847 1.386 . S
C1846 C1848 1.391 . S
C1847 C1846 1.386 . S
C1847 C1851 1.393 . S
C1848 H1837 0.950 . S
C1848 C1846 1.391 . S
C1848 C1849 1.400 . S
C1849 C1843 1.491 . S
C1849 C1848 1.400 . S
C1849 C1850 1.398 . S
C1850 H1838 0.950 . S
C1850 C1849 1.398 . S
C1850 C1851 1.391 . S
C1851 H1839 0.950 . S
C1851 C1847 1.393 . S
C1851 C1850 1.391 . S
H1852 C1860 0.950 . S
H1853 C1865 0.950 . S
H1854 C1862 0.950 . S
H1855 C1864 0.950 . S
H1856 C1866 0.950 . S
H1857 C1868 0.950 . S
H1858 C1870 0.950 . S
H1859 C1871 0.950 . S
C1860 H1852 0.950 . S
C1860 C1861 1.386 . S
C1860 C1862 1.391 . S
C1861 C1860 1.386 . S
C1861 C1865 1.393 . S
C1862 H1854 0.950 . S
C1862 C1860 1.391 . S
C1862 C1863 1.400 . S
C1863 C1862 1.400 . S
C1863 C1864 1.398 . S
C1863 C1869 1.491 . S
C1864 H1855 0.950 . S
C1864 C1863 1.398 . S
C1864 C1865 1.391 . S
C1865 H1853 0.950 . S
C1865 C1861 1.393 . S
C1865 C1864 1.391 . S
C1866 H1856 0.950 . S
C1866 C1867 1.386 . S
C1866 C1868 1.391 . S
C1867 C1866 1.386 . S
C1867 C1871 1.393 . S
C1868 H1857 0.950 . S
C1868 C1866 1.391 . S
C1868 C1869 1.400 . S
C1869 C1863 1.491 . S
C1869 C1868 1.400 . S
C1869 C1870 1.398 . S
C1870 H1858 0.950 . S
C1870 C1869 1.398 . S
C1870 C1871 1.391 . S
C1871 H1859 0.950 . S
C1871 C1867 1.393 . S
C1871 C1870 1.391 . S
H1872 C1880 0.950 . S
H1873 C1885 0.950 . S
H1874 C1882 0.950 . S
H1875 C1884 0.950 . S
H1876 C1886 0.950 . S
H1877 C1888 0.950 . S
H1878 C1890 0.950 . S
H1879 C1891 0.950 . S
C1880 H1872 0.950 . S
C1880 C1881 1.386 . S
C1880 C1882 1.391 . S
C1881 C1880 1.386 . S
C1881 C1885 1.393 . S
C1882 H1874 0.950 . S
C1882 C1880 1.391 . S
C1882 C1883 1.400 . S
C1883 C1882 1.400 . S
C1883 C1884 1.398 . S
C1883 C1889 1.491 . S
C1884 H1875 0.950 . S
C1884 C1883 1.398 . S
C1884 C1885 1.391 . S
C1885 H1873 0.950 . S
C1885 C1881 1.393 . S
C1885 C1884 1.391 . S
C1886 H1876 0.950 . S
C1886 C1887 1.386 . S
C1886 C1888 1.391 . S
C1887 C1886 1.386 . S
C1887 C1891 1.393 . S
C1888 H1877 0.950 . S
C1888 C1886 1.391 . S
C1888 C1889 1.400 . S
C1889 C1883 1.491 . S
C1889 C1888 1.400 . S
C1889 C1890 1.398 . S
C1890 H1878 0.950 . S
C1890 C1889 1.398 . S
C1890 C1891 1.391 . S
C1891 H1879 0.950 . S
C1891 C1887 1.393 . S
C1891 C1890 1.391 . S
H1892 C1900 0.950 . S
H1893 C1905 0.950 . S
H1894 C1902 0.950 . S
H1895 C1904 0.950 . S
H1896 C1906 0.950 . S
H1897 C1908 0.950 . S
H1898 C1910 0.950 . S
H1899 C1911 0.950 . S
C1900 H1892 0.950 . S
C1900 C1901 1.386 . S
C1900 C1902 1.391 . S
C1901 C1900 1.386 . S
C1901 C1905 1.393 . S
C1902 H1894 0.950 . S
C1902 C1900 1.391 . S
C1902 C1903 1.400 . S
C1903 C1902 1.400 . S
C1903 C1904 1.398 . S
C1903 C1909 1.491 . S
C1904 H1895 0.950 . S
C1904 C1903 1.398 . S
C1904 C1905 1.391 . S
C1905 H1893 0.950 . S
C1905 C1901 1.393 . S
C1905 C1904 1.391 . S
C1906 H1896 0.950 . S
C1906 C1907 1.386 . S
C1906 C1908 1.391 . S
C1907 C1906 1.386 . S
C1907 C1911 1.393 . S
C1908 H1897 0.950 . S
C1908 C1906 1.391 . S
C1908 C1909 1.400 . S
C1909 C1903 1.491 . S
C1909 C1908 1.400 . S
C1909 C1910 1.398 . S
C1910 H1898 0.950 . S
C1910 C1909 1.398 . S
C1910 C1911 1.391 . S
C1911 H1899 0.950 . S
C1911 C1907 1.393 . S
C1911 C1910 1.391 . S
H1912 C1920 0.950 . S
H1913 C1925 0.950 . S
H1914 C1922 0.950 . S
H1915 C1924 0.950 . S
H1916 C1926 0.950 . S
H1917 C1928 0.950 . S
H1918 C1930 0.950 . S
H1919 C1931 0.950 . S
C1920 H1912 0.950 . S
C1920 C1921 1.386 . S
C1920 C1922 1.391 . S
C1921 C1920 1.386 . S
C1921 C1925 1.393 . S
C1922 H1914 0.950 . S
C1922 C1920 1.391 . S
C1922 C1923 1.400 . S
C1923 C1922 1.400 . S
C1923 C1924 1.398 . S
C1923 C1929 1.491 . S
C1924 H1915 0.950 . S
C1924 C1923 1.398 . S
C1924 C1925 1.391 . S
C1925 H1913 0.950 . S
C1925 C1921 1.393 . S
C1925 C1924 1.391 . S
C1926 H1916 0.950 . S
C1926 C1927 1.386 . S
C1926 C1928 1.391 . S
C1927 C1926 1.386 . S
C1927 C1931 1.393 . S
C1928 H1917 0.950 . S
C1928 C1926 1.391 . S
C1928 C1929 1.400 . S
C1929 C1923 1.491 . S
C1929 C1928 1.400 . S
C1929 C1930 1.398 . S
C1930 H1918 0.950 . S
C1930 C1929 1.398 . S
C1930 C1931 1.391 . S
C1931 H1919 0.950 . S
C1931 C1927 1.393 . S
C1931 C1930 1.391 . S
H1932 C1940 0.950 . S
H1933 C1945 0.950 . S
H1934 C1942 0.950 . S
H1935 C1944 0.950 . S
H1936 C1946 0.950 . S
H1937 C1948 0.950 . S
H1938 C1950 0.950 . S
H1939 C1951 0.950 . S
C1940 H1932 0.950 . S
C1940 C1941 1.386 . S
C1940 C1942 1.391 . S
C1941 C1940 1.386 . S
C1941 C1945 1.393 . S
C1942 H1934 0.950 . S
C1942 C1940 1.391 . S
C1942 C1943 1.400 . S
C1943 C1942 1.400 . S
C1943 C1944 1.398 . S
C1943 C1949 1.491 . S
C1944 H1935 0.950 . S
C1944 C1943 1.398 . S
C1944 C1945 1.391 . S
C1945 H1933 0.950 . S
C1945 C1941 1.393 . S
C1945 C1944 1.391 . S
C1946 H1936 0.950 . S
C1946 C1947 1.386 . S
C1946 C1948 1.391 . S
C1947 C1946 1.386 . S
C1947 C1951 1.393 . S
C1948 H1937 0.950 . S
C1948 C1946 1.391 . S
C1948 C1949 1.400 . S
C1949 C1943 1.491 . S
C1949 C1948 1.400 . S
C1949 C1950 1.398 . S
C1950 H1938 0.950 . S
C1950 C1949 1.398 . S
C1950 C1951 1.391 . S
C1951 H1939 0.950 . S
C1951 C1947 1.393 . S
C1951 C1950 1.391 . S
H1952 C1960 0.950 . S
H1953 C1965 0.950 . S
H1954 C1962 0.950 . S
H1955 C1964 0.950 . S
H1956 C1966 0.950 . S
H1957 C1968 0.950 . S
H1958 C1970 0.950 . S
H1959 C1971 0.950 . S
C1960 H1952 0.950 . S
C1960 C1961 1.386 . S
C1960 C1962 1.391 . S
C1961 C1960 1.386 . S
C1961 C1965 1.393 . S
C1962 H1954 0.950 . S
C1962 C1960 1.391 . S
C1962 C1963 1.400 . S
C1963 C1962 1.400 . S
C1963 C1964 1.398 . S
C1963 C1969 1.491 . S
C1964 H1955 0.950 . S
C1964 C1963 1.398 . S
C1964 C1965 1.391 . S
C1965 H1953 0.950 . S
C1965 C1961 1.393 . S
C1965 C1964 1.391 . S
C1966 H1956 0.950 . S
C1966 C1967 1.386 . S
C1966 C1968 1.391 . S
C1967 C1966 1.386 . S
C1967 C1971 1.393 . S
C1968 H1957 0.950 . S
C1968 C1966 1.391 . S
C1968 C1969 1.400 . S
C1969 C1963 1.491 . S
C1969 C1968 1.400 . S
C1969 C1970 1.398 . S
C1970 H1958 0.950 . S
C1970 C1969 1.398 . S
C1970 C1971 1.391 . S
C1971 H1959 0.950 . S
C1971 C1967 1.393 . S
C1971 C1970 1.391 . S
H1972 C1980 0.950 . S
H1973 C1985 0.950 . S
H1974 C1982 0.950 . S
H1975 C1984 0.950 . S
H1976 C1986 0.950 . S
H1977 C1988 0.950 . S
H1978 C1990 0.950 . S
H1979 C1991 0.950 . S
C1980 H1972 0.950 . S
C1980 C1981 1.386 . S
C1980 C1982 1.391 . S
C1981 C1980 1.386 . S
C1981 C1985 1.393 . S
C1982 H1974 0.950 . S
C1982 C1980 1.391 . S
C1982 C1983 1.400 . S
C1983 C1982 1.400 . S
C1983 C1984 1.398 . S
C1983 C1989 1.491 . S
C1984 H1975 0.950 . S
C1984 C1983 1.398 . S
C1984 C1985 1.391 . S
C1985 H1973 0.950 . S
C1985 C1981 1.393 . S
C1985 C1984 1.391 . S
C1986 H1976 0.950 . S
C1986 C1987 1.386 . S
C1986 C1988 1.391 . S
C1987 C1986 1.386 . S
C1987 C1991 1.393 . S
C1988 H1977 0.950 . S
C1988 C1986 1.391 . S
C1988 C1989 1.400 . S
C1989 C1983 1.491 . S
C1989 C1988 1.400 . S
C1989 C1990 1.398 . S
C1990 H1978 0.950 . S
C1990 C1989 1.398 . S
C1990 C1991 1.391 . S
C1991 H1979 0.950 . S
C1991 C1987 1.393 . S
C1991 C1990 1.391 . S
H1992 C2000 0.950 . S
H1993 C2005 0.950 . S
H1994 C2002 0.950 . S
H1995 C2004 0.950 . S
H1996 C2006 0.950 . S
H1997 C2008 0.950 . S
H1998 C2010 0.950 . S
H1999 C2011 0.950 . S
C2000 H1992 0.950 . S
C2000 C2001 1.386 . S
C2000 C2002 1.391 . S
C2001 C2000 1.386 . S
C2001 C2005 1.393 . S
C2002 H1994 0.950 . S
C2002 C2000 1.391 . S
C2002 C2003 1.400 . S
C2003 C2002 1.400 . S
C2003 C2004 1.398 . S
C2003 C2009 1.491 . S
C2004 H1995 0.950 . S
C2004 C2003 1.398 . S
C2004 C2005 1.391 . S
C2005 H1993 0.950 . S
C2005 C2001 1.393 . S
C2005 C2004 1.391 . S
C2006 H1996 0.950 . S
C2006 C2007 1.386 . S
C2006 C2008 1.391 . S
C2007 C2006 1.386 . S
C2007 C2011 1.393 . S
C2008 H1997 0.950 . S
C2008 C2006 1.391 . S
C2008 C2009 1.400 . S
C2009 C2003 1.491 . S
C2009 C2008 1.400 . S
C2009 C2010 1.398 . S
C2010 H1998 0.950 . S
C2010 C2009 1.398 . S
C2010 C2011 1.391 . S
C2011 H1999 0.950 . S
C2011 C2007 1.393 . S
C2011 C2010 1.391 . S
H2012 C2020 0.950 . S
H2013 C2025 0.950 . S
H2014 C2022 0.950 . S
H2015 C2024 0.950 . S
H2016 C2026 0.950 . S
H2017 C2028 0.950 . S
H2018 C2030 0.950 . S
H2019 C2031 0.950 . S
C2020 H2012 0.950 . S
C2020 C2021 1.386 . S
C2020 C2022 1.391 . S
C2021 C2020 1.386 . S
C2021 C2025 1.393 . S
C2022 H2014 0.950 . S
C2022 C2020 1.391 . S
C2022 C2023 1.400 . S
C2023 C2022 1.400 . S
C2023 C2024 1.398 . S
C2023 C2029 1.491 . S
C2024 H2015 0.950 . S
C2024 C2023 1.398 . S
C2024 C2025 1.391 . S
C2025 H2013 0.950 . S
C2025 C2021 1.393 . S
C2025 C2024 1.391 . S
C2026 H2016 0.950 . S
C2026 C2027 1.386 . S
C2026 C2028 1.391 . S
C2027 C2026 1.386 . S
C2027 C2031 1.393 . S
C2028 H2017 0.950 . S
C2028 C2026 1.391 . S
C2028 C2029 1.400 . S
C2029 C2023 1.491 . S
C2029 C2028 1.400 . S
C2029 C2030 1.398 . S
C2030 H2018 0.950 . S
C2030 C2029 1.398 . S
C2030 C2031 1.391 . S
C2031 H2019 0.950 . S
C2031 C2027 1.393 . S
C2031 C2030 1.391 . S
H2032 C2040 0.950 . S
H2033 C2045 0.950 . S
H2034 C2042 0.950 . S
H2035 C2044 0.950 . S
H2036 C2046 0.950 . S
H2037 C2048 0.950 . S
H2038 C2050 0.950 . S
H2039 C2051 0.950 . S
C2040 H2032 0.950 . S
C2040 C2041 1.386 . S
C2040 C2042 1.391 . S
C2041 C2040 1.386 . S
C2041 C2045 1.393 . S
C2042 H2034 0.950 . S
C2042 C2040 1.391 . S
C2042 C2043 1.400 . S
C2043 C2042 1.400 . S
C2043 C2044 1.398 . S
C2043 C2049 1.491 . S
C2044 H2035 0.950 . S
C2044 C2043 1.398 . S
C2044 C2045 1.391 . S
C2045 H2033 0.950 . S
C2045 C2041 1.393 . S
C2045 C2044 1.391 . S
C2046 H2036 0.950 . S
C2046 C2047 1.386 . S
C2046 C2048 1.391 . S
C2047 C2046 1.386 . S
C2047 C2051 1.393 . S
C2048 H2037 0.950 . S
C2048 C2046 1.391 . S
C2048 C2049 1.400 . S
C2049 C2043 1.491 . S
C2049 C2048 1.400 . S
C2049 C2050 1.398 . S
C2050 H2038 0.950 . S
C2050 C2049 1.398 . S
C2050 C2051 1.391 . S
C2051 H2039 0.950 . S
C2051 C2047 1.393 . S
C2051 C2050 1.391 . S
C981 C162 1.445 . S
C987 C272 1.396 . S
C1001 C174 1.476 . S
C1007 C356 1.408 . S
C1021 C150 1.443 . S
C1027 C450 1.433 . S
C1041 C138 1.428 . S
C1047 C366 1.417 1_556 S
C1067 C440 1.360 . S
C1061 C114 1.437 . S
C1081 C126 1.406 . S
C1087 C282 1.405 1_556 S
C1107 C283 1.428 . S
C1101 C136 1.503 . S
C1127 C367 1.466 . S
C1121 C112 1.515 . S
C1141 C124 1.511 . S
C1147 C459 1.492 1_556 S
C1161 C160 1.492 . S
C1167 C375 1.455 . S
C1181 C172 1.475 . S
C1187 C451 1.418 . S
C1207 C291 1.422 . S
C1201 C148 1.455 . S
C1227 C524 1.405 . S
C1221 C18 1.445 . S
C1241 C30 1.478 . S
C1247 C608 1.406 . S
C1261 C6 1.449 . S
C1267 C702 1.443 . S
C1281 C210 1.425 . S
C1287 C618 1.430 . S
C1301 C186 1.432 . S
C1307 C692 1.390 . S
C1321 C198 1.410 . S
C1327 C534 1.397 . S
C1341 C208 1.496 . S
C1347 C535 1.450 . S
C1361 C184 1.527 . S
C1367 C619 1.457 . S
C1387 C711 1.470 . S
C1381 C196 1.502 . S
C1401 C16 1.480 . S
C1407 C627 1.441 . S
C1427 C703 1.402 . S
C1421 C28 1.476 . S
C1441 C4 1.463 . S
C1447 C543 1.421 . S
C1467 C776 1.405 . S
C1461 C90 1.444 . S
C1481 C102 1.471 . S
C1487 C860 1.421 . S
C1507 C954 1.434 . S
C1501 C78 1.442 . S
C1527 C870 1.430 . S
C1521 C66 1.425 . S
C1547 C944 1.389 . S
C1541 C42 1.430 . S
C1561 C54 1.404 . S
C1567 C786 1.406 . S
C1581 C64 1.503 . S
C1587 C787 1.432 . S
C1601 C40 1.512 . S
C1607 C871 1.482 . S
C1627 C963 1.486 . S
C1621 C52 1.520 . S
C1641 C88 1.493 . S
C1647 C879 1.460 . S
C1661 C100 1.478 . S
C1667 C955 1.411 . S
C1681 C76 1.455 . S
C1687 C795 1.435 . S
C1701 C189 1.574 . S
C1707 C279 1.446 . S
C1727 C363 1.492 . S
C1721 C201 1.619 . S
C1741 C213 1.568 . S
C1747 C456 1.389 . S
C1761 C81 1.600 . S
C1767 C372 1.422 . S
C1781 C93 1.585 . S
C1787 C447 1.436 . S
C1807 C288 1.382 . S
C1801 C105 1.534 . S
C1821 C45 1.562 . S
C1827 C531 1.452 . S
C1841 C57 1.625 . S
C1847 C615 1.462 . S
C1861 C69 1.580 . S
C1867 C708 1.387 . S
C1881 C153 1.600 . S
C1887 C624 1.421 . S
C1907 C699 1.435 . S
C1901 C165 1.586 . S
C1921 C177 1.536 . S
C1927 C540 1.388 . S
C1941 C117 1.572 . S
C1947 C783 1.429 . S
C1961 C129 1.623 . S
C1967 C867 1.500 . S
C1987 C960 1.387 . S
C1981 C141 1.580 . S
C2001 C9 1.602 . S
C2007 C876 1.412 . S
C2021 C21 1.581 . S
C2027 C951 1.465 . S
C2041 C33 1.539 . S
C2047 C792 1.349 . S
