# Generated by pormake.
# Topology cml, (3,6)-cn, num edge types: 1
# Building blocks:
#     Node 0, Type 0, BuildingBlock: PAMTOO_clean_linker_0, # of connection points: 3
#     Node 1, Type 0, BuildingBlock: PAMTOO_clean_linker_0, # of connection points: 3
#     Node 2, Type 0, BuildingBlock: PAMTOO_clean_linker_0, # of connection points: 3
#     Node 3, Type 0, BuildingBlock: PAMTOO_clean_linker_0, # of connection points: 3
#     Node 4, Type 0, BuildingBlock: PAMTOO_clean_linker_0, # of connection points: 3
#     Node 5, Type 0, BuildingBlock: PAMTOO_clean_linker_0, # of connection points: 3
#     Node 6, Type 0, BuildingBlock: PAMTOO_clean_linker_0, # of connection points: 3
#     Node 7, Type 0, BuildingBlock: PAMTOO_clean_linker_0, # of connection points: 3
#     Node 8, Type 1, BuildingBlock: IZENUY_clean_sbu_0, # of connection points: 6
#     Node 9, Type 1, BuildingBlock: IZENUY_clean_sbu_0, # of connection points: 6
#     Node 10, Type 1, BuildingBlock: IZENUY_clean_sbu_0, # of connection points: 6
#     Node 11, Type 1, BuildingBlock: IZENUY_clean_sbu_0, # of connection points: 6
#     Edge 12, Type (0, 1), BuildingBlock: XUDNAN_clean_linker_2, # of connection points: 2
#     Edge 13, Type (0, 1), BuildingBlock: XUDNAN_clean_linker_2, # of connection points: 2
#     Edge 14, Type (0, 1), BuildingBlock: XUDNAN_clean_linker_2, # of connection points: 2
#     Edge 15, Type (0, 1), BuildingBlock: XUDNAN_clean_linker_2, # of connection points: 2
#     Edge 16, Type (0, 1), BuildingBlock: XUDNAN_clean_linker_2, # of connection points: 2
#     Edge 17, Type (0, 1), BuildingBlock: XUDNAN_clean_linker_2, # of connection points: 2
#     Edge 18, Type (0, 1), BuildingBlock: XUDNAN_clean_linker_2, # of connection points: 2
#     Edge 19, Type (0, 1), BuildingBlock: XUDNAN_clean_linker_2, # of connection points: 2
#     Edge 20, Type (0, 1), BuildingBlock: XUDNAN_clean_linker_2, # of connection points: 2
#     Edge 21, Type (0, 1), BuildingBlock: XUDNAN_clean_linker_2, # of connection points: 2
#     Edge 22, Type (0, 1), BuildingBlock: XUDNAN_clean_linker_2, # of connection points: 2
#     Edge 23, Type (0, 1), BuildingBlock: XUDNAN_clean_linker_2, # of connection points: 2
#     Edge 24, Type (0, 1), BuildingBlock: XUDNAN_clean_linker_2, # of connection points: 2
#     Edge 25, Type (0, 1), BuildingBlock: XUDNAN_clean_linker_2, # of connection points: 2
#     Edge 26, Type (0, 1), BuildingBlock: XUDNAN_clean_linker_2, # of connection points: 2
#     Edge 27, Type (0, 1), BuildingBlock: XUDNAN_clean_linker_2, # of connection points: 2
#     Edge 28, Type (0, 1), BuildingBlock: XUDNAN_clean_linker_2, # of connection points: 2
#     Edge 29, Type (0, 1), BuildingBlock: XUDNAN_clean_linker_2, # of connection points: 2
#     Edge 30, Type (0, 1), BuildingBlock: XUDNAN_clean_linker_2, # of connection points: 2
#     Edge 31, Type (0, 1), BuildingBlock: XUDNAN_clean_linker_2, # of connection points: 2
#     Edge 32, Type (0, 1), BuildingBlock: XUDNAN_clean_linker_2, # of connection points: 2
#     Edge 33, Type (0, 1), BuildingBlock: XUDNAN_clean_linker_2, # of connection points: 2
#     Edge 34, Type (0, 1), BuildingBlock: XUDNAN_clean_linker_2, # of connection points: 2
#     Edge 35, Type (0, 1), BuildingBlock: XUDNAN_clean_linker_2, # of connection points: 2
# Relax obj value: 0.004
# Max RMSD: 0.069
# Mean RMSD: 0.053
data_MOF--net-cml--node1-IZENUY_clean_sbu_0--node2-PAMTOO_clean_linker_0--edge1-XUDNAN_clean_linker_2
_symmetry_space_group_name_H-M    P1
_symmetry_Int_Tables_number       1
_symmetry_cell_setting            triclinic
loop_
_symmetry_equiv_pos_as_xyz
'x, y, z'
_cell_length_a     36.771599
_cell_length_b     41.272004
_cell_length_c     35.740058
_cell_angle_alpha  90.038214
_cell_angle_beta   88.908169
_cell_angle_gamma 90.183854
loop_
_atom_site_label
_atom_site_type_symbol
_atom_site_fract_x
_atom_site_fract_y
_atom_site_fract_z
_atom_type_partial_charge
H0 H 0.35943 0.41988 0.04477 0.0
H1 H 0.2855 0.39574 0.95646 0.0
H2 H 0.28148 0.34276 0.05952 0.0
H3 H 0.28719 0.30733 0.9799 0.0
C4 C 0.26465 0.3217 0.96785 0.0
O5 O 0.25545 0.34702 0.99153 0.0
H6 H 0.27467 0.33161 0.94059 0.0
C7 C 0.33726 0.40553 0.03394 0.0
C8 C 0.32142 0.38136 0.0567 0.0
C9 C 0.32467 0.41119 0.99755 0.0
C10 C 0.29609 0.39183 0.98416 0.0
C11 C 0.2812 0.36673 0.006 0.0
C12 C 0.29348 0.36185 0.04247 0.0
H13 H 0.6517 0.61482 0.5308 0.0
H14 H 0.73561 0.68609 0.54824 0.0
H15 H 0.73586 0.63087 0.44712 0.0
H16 H 0.807 0.64365 0.48663 0.0
C17 C 0.80232 0.66999 0.49147 0.0
O18 O 0.767 0.67796 0.48321 0.0
H19 H 0.80737 0.67515 0.52149 0.0
C20 C 0.6765 0.62686 0.52159 0.0
C21 C 0.69196 0.61914 0.48633 0.0
C22 C 0.69205 0.65074 0.54457 0.0
C23 C 0.72288 0.66767 0.53126 0.0
C24 C 0.73817 0.66064 0.49611 0.0
C25 C 0.72308 0.63629 0.47393 0.0
H26 H 0.67428 0.43695 0.0448 0.0
H27 H 0.74269 0.35545 0.06734 0.0
H28 H 0.73797 0.39322 0.95568 0.0
H29 H 0.73819 0.32089 0.96725 0.0
C30 C 0.76176 0.32042 0.98635 0.0
O31 O 0.76937 0.3512 0.99913 0.0
H32 H 0.75461 0.30456 0.01056 0.0
C33 C 0.6931 0.41864 0.03469 0.0
C34 C 0.70351 0.41781 0.99661 0.0
C35 C 0.70658 0.39607 0.06022 0.0
C36 C 0.73161 0.37273 0.04781 0.0
C37 C 0.74327 0.37222 0.01029 0.0
C38 C 0.72908 0.39445 0.98471 0.0
H39 H 0.34971 0.59639 0.56063 0.0
H40 H 0.29826 0.62615 0.45905 0.0
H41 H 0.29767 0.68935 0.55493 0.0
H42 H 0.22795 0.68321 0.51764 0.0
C43 C 0.23718 0.67964 0.48808 0.0
O44 O 0.27471 0.6816 0.48611 0.0
H45 H 0.22812 0.65516 0.479 0.0
C46 C 0.33474 0.61424 0.54487 0.0
C47 C 0.3253 0.64367 0.56191 0.0
C48 C 0.32542 0.60768 0.50775 0.0
C49 C 0.30618 0.63104 0.48756 0.0
C50 C 0.29571 0.66031 0.50471 0.0
C51 C 0.30585 0.66682 0.54171 0.0
H52 H 0.84343 0.93882 0.04813 0.0
H53 H 0.78177 0.90793 0.9533 0.0
H54 H 0.78582 0.84793 0.05162 0.0
H55 H 0.79124 0.81691 0.9724 0.0
C56 C 0.76674 0.82946 0.96178 0.0
O57 O 0.75701 0.85465 0.9853 0.0
H58 H 0.77374 0.83926 0.93356 0.0
C59 C 0.82638 0.92094 0.03465 0.0
C60 C 0.81665 0.89255 0.05396 0.0
C61 C 0.81441 0.92657 0.99822 0.0
C62 C 0.792 0.9035 0.98106 0.0
C63 C 0.78153 0.8752 1.00038 0.0
C64 C 0.79437 0.86953 0.0366 0.0
H65 H 0.16835 0.08518 0.52509 0.0
H66 H 0.23471 0.16908 0.54514 0.0
H67 H 0.2603 0.10622 0.4526 0.0
H68 H 0.32524 0.13451 0.48077 0.0
C69 C 0.31377 0.1557 0.49615 0.0
O70 O 0.27788 0.15978 0.48678 0.0
H71 H 0.31588 0.15078 0.52667 0.0
C72 C 0.19215 0.09967 0.51807 0.0
C73 C 0.21387 0.09144 0.4868 0.0
C74 C 0.19925 0.12758 0.5392 0.0
C75 C 0.22935 0.14707 0.52962 0.0
C76 C 0.2512 0.13928 0.49828 0.0
C77 C 0.24348 0.11159 0.47702 0.0
H78 H 0.16985 0.9405 0.02645 0.0
H79 H 0.24348 0.86198 0.04483 0.0
H80 H 0.23501 0.90239 0.93481 0.0
H81 H 0.24338 0.83143 0.93326 0.0
C82 C 0.25561 0.82816 0.96123 0.0
O83 O 0.2661 0.85793 0.97501 0.0
H84 H 0.23462 0.81692 0.98003 0.0
C85 C 0.19063 0.92432 0.01552 0.0
C86 C 0.20032 0.92481 0.97726 0.0
C87 C 0.20631 0.9021 0.03999 0.0
C88 C 0.23155 0.87952 0.0262 0.0
C89 C 0.24164 0.87969 0.98822 0.0
C90 C 0.22643 0.90243 0.96395 0.0
H91 H 0.85733 0.09907 0.54377 0.0
H92 H 0.79984 0.11699 0.44178 0.0
H93 H 0.79389 0.1856 0.5323 0.0
H94 H 0.72558 0.16267 0.49455 0.0
C95 C 0.73509 0.16903 0.46569 0.0
O96 O 0.77248 0.17268 0.46434 0.0
H97 H 0.72746 0.14884 0.44674 0.0
C98 C 0.8399 0.11419 0.527 0.0
C99 C 0.82706 0.14345 0.54198 0.0
C100 C 0.83012 0.10408 0.49098 0.0
C101 C 0.80787 0.12433 0.46955 0.0
C102 C 0.79475 0.15367 0.48452 0.0
C103 C 0.80436 0.16313 0.52073 0.0
Fe104 Fe 0.01963 0.84332 0.30956 0.0
Fe105 Fe 0.01759 0.87401 0.38818 0.0
O106 O 0.01599 0.87817 0.3387 0.0
Fe107 Fe 0.01148 0.91719 0.31854 0.0
O108 O 0.98418 0.90337 0.27928 0.0
O109 O 0.97594 0.85101 0.28832 0.0
O110 O 0.99546 0.81665 0.34273 0.0
C111 C 0.97401 0.82269 0.37002 0.0
C112 C 0.06188 0.89011 0.27035 0.0
O113 O 0.97722 0.84842 0.38891 0.0
C114 C 0.06154 0.92706 0.37611 0.0
O115 O 0.06377 0.8329 0.32839 0.0
O116 O 0.04775 0.83864 0.38745 0.0
O117 O 0.05371 0.91292 0.29228 0.0
O118 O 0.04425 0.86375 0.27113 0.0
C119 C 0.9652 0.92382 0.37865 0.0
O120 O 0.05832 0.8992 0.39044 0.0
O121 O 0.03799 0.93787 0.35408 0.0
C122 C 0.06973 0.8282 0.36263 0.0
O123 O 0.98766 0.90859 0.39844 0.0
O124 O 0.96902 0.92491 0.34356 0.0
C125 C 0.96661 0.87747 0.27372 0.0
Fe126 Fe 1.00564 0.14361 0.88775 0.0
Fe127 Fe 0.99603 0.11126 0.81146 0.0
O128 O 1.00534 0.14632 0.83835 0.0
Fe129 Fe 0.01382 0.18368 0.81506 0.0
O130 O 0.04632 0.19946 0.84951 0.0
O131 O 0.05107 0.15995 0.89021 0.0
O132 O 0.02727 0.10312 0.88753 0.0
C133 C 0.04389 0.08747 0.86165 0.0
C134 C 0.96898 0.20298 0.87346 0.0
O135 O 0.03661 0.09178 0.82761 0.0
C136 C 0.95495 0.15556 0.77568 0.0
O137 O 0.95988 0.12708 0.89019 0.0
O138 O 0.9681 0.09026 0.84715 0.0
O139 O 0.97609 0.20282 0.83886 0.0
O140 O 0.98439 0.18356 0.89565 0.0
C141 C 0.04865 0.14403 0.76618 0.0
O142 O 0.95485 0.12952 0.79425 0.0
O143 O 0.98194 0.17492 0.77672 0.0
C144 C 0.95025 0.10111 0.87489 0.0
O145 O 0.02218 0.1246 0.77002 0.0
O146 O 0.05249 0.16699 0.78901 0.0
C147 C 0.06251 0.18619 0.87647 0.0
Fe148 Fe 0.51169 0.34399 0.32985 0.0
Fe149 Fe 0.51422 0.38478 0.40184 0.0
O150 O 0.50936 0.38228 0.35274 0.0
Fe151 Fe 0.5022 0.41785 0.32626 0.0
O152 O 0.45938 0.40235 0.30897 0.0
O153 O 0.48097 0.35503 0.29173 0.0
O154 O 0.47218 0.32913 0.35623 0.0
C155 C 0.46969 0.3293 0.3916 0.0
C156 C 0.55272 0.38208 0.28284 0.0
O157 O 0.49146 0.3459 0.41104 0.0
C158 C 0.55299 0.44026 0.3751 0.0
O159 O 0.54302 0.32568 0.36327 0.0
O160 O 0.55893 0.36614 0.39931 0.0
O161 O 0.52796 0.40329 0.28525 0.0
O162 O 0.55142 0.35669 0.30251 0.0
C163 C 0.45978 0.42909 0.3922 0.0
O164 O 0.53754 0.42435 0.40126 0.0
O165 O 0.54428 0.43592 0.34154 0.0
C166 C 0.56517 0.33847 0.38566 0.0
O167 O 0.46993 0.40354 0.40818 0.0
O168 O 0.4758 0.43905 0.36274 0.0
C169 C 0.45675 0.37669 0.29007 0.0
Fe170 Fe 0.51248 0.63597 0.90314 0.0
Fe171 Fe 0.51519 0.6089 0.82338 0.0
O172 O 0.51364 0.64255 0.85405 0.0
Fe173 Fe 0.51312 0.68248 0.83552 0.0
O174 O 0.54035 0.70022 0.87334 0.0
O175 O 0.55428 0.6586 0.90882 0.0
O176 O 0.54038 0.59907 0.90092 0.0
C177 C 0.56234 0.58852 0.876 0.0
C178 C 0.46425 0.68887 0.894 0.0
O179 O 0.5583 0.59554 0.84197 0.0
C180 C 0.46562 0.64721 0.78861 0.0
O181 O 0.47047 0.61253 0.90098 0.0
O182 O 0.4893 0.58174 0.85448 0.0
O183 O 0.47052 0.69159 0.85938 0.0
O184 O 0.4845 0.6717 0.91423 0.0
C185 C 0.56094 0.65456 0.78612 0.0
O186 O 0.47222 0.62019 0.80342 0.0
O187 O 0.48586 0.67163 0.79434 0.0
C188 C 0.46706 0.58746 0.88108 0.0
O189 O 0.54106 0.62951 0.78605 0.0
O190 O 0.55565 0.67658 0.80998 0.0
C191 C 0.56042 0.6871 0.89754 0.0
H192 H 0.21693 0.32142 0.90887 0.0
H193 H 0.24009 0.27257 0.01301 0.0
H194 H 0.19085 0.23306 1.00091 0.0
H195 H 0.11786 0.31037 0.91394 0.0
H196 H 0.11404 0.30404 0.86426 0.0
H197 H 0.14994 0.32924 0.88194 0.0
H198 H 0.19759 0.29382 0.84688 0.0
H199 H 0.16188 0.26833 0.82938 0.0
H200 H 0.19846 0.25077 0.85532 0.0
H201 H 0.14256 0.19699 0.97563 0.0
H202 H 0.09422 0.16881 0.94191 0.0
H203 H 0.10031 0.24151 0.85407 0.0
C204 C 0.21127 0.30257 0.92924 0.0
C205 C 0.23242 0.29971 0.96175 0.0
C206 C 0.22426 0.27492 0.9879 0.0
C207 C 0.19646 0.25241 0.9812 0.0
C208 C 0.17679 0.25527 0.94838 0.0
C209 C 0.18346 0.27992 0.92301 0.0
C210 C 0.15844 0.2772 0.88977 0.0
C211 C 0.13359 0.30698 0.88735 0.0
C212 C 0.18041 0.27223 0.85318 0.0
C213 C 0.13693 0.24698 0.90026 0.0
C214 C 0.14818 0.23472 0.9341 0.0
C215 C 0.13329 0.20652 0.94928 0.0
C216 C 0.10586 0.1906 0.9297 0.0
C217 C 0.09316 0.2029 0.89524 0.0
C218 C 0.10917 0.2315 0.88036 0.0
H219 H 0.83406 0.72899 0.50673 0.0
H220 H 0.82666 0.65522 0.42083 0.0
H221 H 0.86821 0.6872 0.37977 0.0
H222 H 0.83678 0.7981 0.44386 0.0
H223 H 0.86874 0.82055 0.47146 0.0
H224 H 0.83792 0.79222 0.4938 0.0
H225 H 0.89244 0.76218 0.52264 0.0
H226 H 0.92339 0.79044 0.50047 0.0
H227 H 0.92862 0.74758 0.4924 0.0
H228 H 0.9116 0.72598 0.34921 0.0
H229 H 0.95409 0.76938 0.33018 0.0
H230 H 0.93325 0.81888 0.43572 0.0
C231 C 0.84138 0.71964 0.4793 0.0
C232 C 0.82789 0.68944 0.467 0.0
C233 C 0.83733 0.67809 0.43078 0.0
C234 C 0.86073 0.69611 0.40733 0.0
C235 C 0.87406 0.72558 0.42046 0.0
C236 C 0.8647 0.73737 0.45552 0.0
C237 C 0.88316 0.76961 0.46287 0.0
C238 C 0.85496 0.79672 0.46831 0.0
C239 C 0.9084 0.7673 0.49659 0.0
C240 C 0.90467 0.77392 0.4266 0.0
C241 C 0.89889 0.74825 0.40256 0.0
C242 C 0.91627 0.74627 0.36773 0.0
C243 C 0.94045 0.77106 0.35724 0.0
C244 C 0.94712 0.79758 0.38145 0.0
C245 C 0.92864 0.79907 0.41649 0.0
H246 H 0.8051 0.26789 1.00331 0.0
H247 H 0.79155 0.34442 0.92178 0.0
H248 H 0.84547 0.32455 0.88625 0.0
H249 H 0.90395 0.26781 1.00219 0.0
H250 H 0.90738 0.2244 0.00624 0.0
H251 H 0.8685 0.24516 0.02605 0.0
H252 H 0.82545 0.2087 0.98768 0.0
H253 H 0.86416 0.18773 0.96793 0.0
H254 H 0.83163 0.20627 0.9376 0.0
H255 H 0.89894 0.29575 0.85885 0.0
H256 H 0.94812 0.25873 0.83947 0.0
H257 H 0.92781 0.20032 0.93877 0.0
C258 C 0.81365 0.28044 0.97803 0.0
C259 C 0.79439 0.30769 0.96511 0.0
C260 C 0.80613 0.32352 0.93192 0.0
C261 C 0.83668 0.31247 0.91173 0.0
C262 C 0.85514 0.28557 0.92517 0.0
C263 C 0.84408 0.26964 0.95745 0.0
C264 C 0.86817 0.24066 0.96499 0.0
C265 C 0.88819 0.24477 1.00207 0.0
C266 C 0.84603 0.20897 0.96451 0.0
C267 C 0.89431 0.24268 0.93175 0.0
C268 C 0.8863 0.26888 0.9093 0.0
C269 C 0.90562 0.27527 0.87628 0.0
C270 C 0.93351 0.25404 0.86552 0.0
C271 C 0.94196 0.2267 0.8877 0.0
C272 C 0.92238 0.22128 0.92156 0.0
H273 H 0.18405 0.72392 0.50653 0.0
H274 H 0.24971 0.68954 0.41283 0.0
H275 H 0.21644 0.72605 0.37033 0.0
H276 H 0.10151 0.72729 0.45911 0.0
H277 H 0.08518 0.76328 0.48247 0.0
H278 H 0.11636 0.73683 0.50564 0.0
H279 H 0.16078 0.78488 0.51527 0.0
H280 H 0.12958 0.81156 0.49232 0.0
H281 H 0.17594 0.80843 0.47543 0.0
H282 H 0.17259 0.76404 0.33763 0.0
H283 H 0.1229 0.80016 0.31787 0.0
H284 H 0.08637 0.80898 0.43366 0.0
C285 C 0.19196 0.72463 0.4772 0.0
C286 C 0.21992 0.70444 0.46298 0.0
C287 C 0.22883 0.70534 0.42428 0.0
C288 C 0.21001 0.7259 0.4 0.0
C289 C 0.1823 0.74533 0.4149 0.0
C290 C 0.17346 0.74494 0.45268 0.0
C291 C 0.14146 0.76682 0.46151 0.0
C292 C 0.10923 0.74739 0.47815 0.0
C293 C 0.15262 0.79457 0.48768 0.0
C294 C 0.13324 0.77927 0.42277 0.0
C295 C 0.15712 0.76679 0.3962 0.0
C296 C 0.15394 0.77413 0.35829 0.0
C297 C 0.12556 0.79463 0.34731 0.0
C298 C 0.10063 0.80751 0.37413 0.0
C299 C 0.10495 0.79976 0.41235 0.0
H300 H 0.71294 0.82615 0.90888 0.0
H301 H 0.75039 0.77954 0.00963 0.0
H302 H 0.70068 0.73911 0.00527 0.0
H303 H 0.61596 0.81442 0.92762 0.0
H304 H 0.60559 0.80695 0.87928 0.0
H305 H 0.6434 0.83268 0.89094 0.0
H306 H 0.68655 0.7967 0.85075 0.0
H307 H 0.6489 0.77085 0.83901 0.0
H308 H 0.68869 0.75382 0.86002 0.0
H309 H 0.64903 0.70231 0.98813 0.0
H310 H 0.59757 0.67261 0.96099 0.0
H311 H 0.59236 0.74367 0.87172 0.0
C312 C 0.71051 0.80743 0.93001 0.0
C313 C 0.73572 0.80554 0.95933 0.0
C314 C 0.73155 0.78104 0.98677 0.0
C315 C 0.70342 0.75808 0.98451 0.0
C316 C 0.67942 0.76018 0.95486 0.0
C317 C 0.68249 0.78434 0.92821 0.0
C318 C 0.65332 0.78087 0.89896 0.0
C319 C 0.62807 0.81049 0.89923 0.0
C320 C 0.67039 0.77522 0.85988 0.0
C321 C 0.63357 0.75083 0.91313 0.0
C322 C 0.64912 0.7393 0.9454 0.0
C323 C 0.63646 0.71126 0.96305 0.0
C324 C 0.60721 0.6945 0.94732 0.0
C325 C 0.59066 0.70584 0.9143 0.0
C326 C 0.60406 0.73454 0.8972 0.0
H327 H 0.3477 0.17083 0.42892 0.0
H328 H 0.3262 0.2086 0.5403 0.0
H329 H 0.36127 0.25818 0.52439 0.0
H330 H 0.439 0.19973 0.41958 0.0
H331 H 0.43587 0.20978 0.37068 0.0
H332 H 0.40791 0.17793 0.39029 0.0
H333 H 0.3502 0.2068 0.36678 0.0
H334 H 0.37802 0.2388 0.34714 0.0
H335 H 0.34182 0.24831 0.38001 0.0
H336 H 0.4011 0.30178 0.49783 0.0
H337 H 0.44238 0.3378 0.462 0.0
H338 H 0.43739 0.27283 0.36664 0.0
C339 C 0.35045 0.18963 0.44983 0.0
C340 C 0.33493 0.18584 0.48606 0.0
C341 C 0.33845 0.211 0.51264 0.0
C342 C 0.35816 0.23919 0.50378 0.0
C343 C 0.37373 0.24199 0.46805 0.0
C344 C 0.36998 0.21801 0.44138 0.0
C345 C 0.39003 0.22694 0.4053 0.0
C346 C 0.41998 0.20212 0.39593 0.0
C347 C 0.36342 0.23042 0.37289 0.0
C348 C 0.4061 0.25945 0.41606 0.0
C349 C 0.39623 0.26762 0.45238 0.0
C350 C 0.40879 0.29578 0.46929 0.0
C351 C 0.43235 0.31601 0.44872 0.0
C352 C 0.44308 0.30816 0.41151 0.0
C353 C 0.42934 0.27966 0.39485 0.0
H354 H 0.29508 0.81016 0.89828 0.0
H355 H 0.2892 0.79711 0.01853 0.0
H356 H 0.34215 0.76009 0.01486 0.0
H357 H 0.3188 0.72815 0.87507 0.0
H358 H 0.34923 0.73934 0.83707 0.0
H359 H 0.3114 0.76507 0.84941 0.0
H360 H 0.35547 0.81356 0.8579 0.0
H361 H 0.39342 0.78797 0.84551 0.0
H362 H 0.39305 0.80974 0.88926 0.0
H363 H 0.39502 0.72382 0.99758 0.0
H364 H 0.44468 0.69186 0.96846 0.0
H365 H 0.41569 0.72883 0.85927 0.0
C366 C 0.30501 0.79945 0.92377 0.0
C367 C 0.28803 0.80606 0.95869 0.0
C368 C 0.30184 0.79197 0.99156 0.0
C369 C 0.3318 0.771 0.9897 0.0
C370 C 0.34768 0.76458 0.95474 0.0
C371 C 0.33482 0.77845 0.92238 0.0
C372 C 0.35668 0.76751 0.88834 0.0
C373 C 0.33259 0.74891 0.86086 0.0
C374 C 0.37579 0.79642 0.86913 0.0
C375 C 0.38379 0.74527 0.90657 0.0
C376 C 0.37816 0.74389 0.94487 0.0
C377 C 0.39973 0.72477 0.96762 0.0
C378 C 0.42787 0.70668 0.95079 0.0
C379 C 0.43424 0.70783 0.91156 0.0
C380 C 0.41171 0.72741 0.88933 0.0
H381 H 0.68037 0.17704 0.41501 0.0
H382 H 0.74648 0.23032 0.49321 0.0
H383 H 0.71247 0.28049 0.47901 0.0
H384 H 0.67103 0.24193 0.34598 0.0
H385 H 0.62457 0.23136 0.3362 0.0
H386 H 0.65588 0.20052 0.35067 0.0
H387 H 0.61199 0.18484 0.40537 0.0
H388 H 0.58065 0.21568 0.39115 0.0
H389 H 0.59737 0.21552 0.43823 0.0
H390 H 0.6687 0.32417 0.4584 0.0
H391 H 0.61895 0.35756 0.43355 0.0
H392 H 0.58161 0.27515 0.369 0.0
C393 C 0.68812 0.19943 0.42857 0.0
C394 C 0.71656 0.20007 0.45459 0.0
C395 C 0.72526 0.22958 0.47262 0.0
C396 C 0.70604 0.2581 0.46478 0.0
C397 C 0.67807 0.25664 0.43898 0.0
C398 C 0.6692 0.22804 0.4211 0.0
C399 C 0.63696 0.23253 0.39587 0.0
C400 C 0.64777 0.22621 0.35474 0.0
C401 C 0.60485 0.21086 0.40842 0.0
C402 C 0.62877 0.26801 0.40261 0.0
C403 C 0.65283 0.28157 0.42743 0.0
C404 C 0.64987 0.31383 0.43875 0.0
C405 C 0.62146 0.33261 0.4245 0.0
C406 C 0.59629 0.31909 0.39924 0.0
C407 C 0.60041 0.28639 0.38805 0.0
H408 H 0.35182 0.4713 0.01796 0.0
H409 H 0.33804 0.4082 0.9218 0.0
H410 H 0.36757 0.44906 0.88138 0.0
H411 H 0.33946 0.54827 0.96995 0.0
H412 H 0.3745 0.56869 0.99562 0.0
H413 H 0.34933 0.53581 0.01701 0.0
H414 H 0.40955 0.50571 0.02991 0.0
H415 H 0.43486 0.53858 0.00882 0.0
H416 H 0.44098 0.49784 0.99167 0.0
H417 H 0.40145 0.49464 0.85175 0.0
H418 H 0.4401 0.54143 0.83498 0.0
H419 H 0.43436 0.57507 0.95006 0.0
C420 C 0.35496 0.46599 0.98841 0.0
C421 C 0.34203 0.43648 0.97316 0.0
C422 C 0.3467 0.43081 0.93422 0.0
C423 C 0.36368 0.45384 0.91096 0.0
C424 C 0.3761 0.48249 0.92692 0.0
C425 C 0.37217 0.48865 0.96475 0.0
C426 C 0.38996 0.52063 0.97501 0.0
C427 C 0.36161 0.54478 0.9903 0.0
C428 C 0.42066 0.51536 1.003 0.0
C429 C 0.40491 0.53122 0.93707 0.0
C430 C 0.39626 0.5089 0.90975 0.0
C431 C 0.40821 0.5124 0.87281 0.0
C432 C 0.43021 0.53906 0.8636 0.0
C433 C 0.44019 0.56196 0.89117 0.0
C434 C 0.42675 0.55826 0.92828 0.0
H435 H 0.659 0.56194 0.50874 0.0
H436 H 0.68617 0.61862 0.4096 0.0
H437 H 0.65754 0.57704 0.37028 0.0
H438 H 0.6706 0.48233 0.46769 0.0
H439 H 0.63205 0.46521 0.49262 0.0
H440 H 0.65722 0.49815 0.51291 0.0
H441 H 0.59797 0.53168 0.51963 0.0
H442 H 0.57262 0.49881 0.49954 0.0
H443 H 0.57075 0.53863 0.479 0.0
H444 H 0.624 0.53028 0.34176 0.0
H445 H 0.58563 0.48321 0.32641 0.0
H446 H 0.57753 0.45839 0.4444 0.0
C447 C 0.65889 0.5658 0.47879 0.0
C448 C 0.67522 0.59365 0.46241 0.0
C449 C 0.67466 0.5973 0.42295 0.0
C450 C 0.65824 0.57386 0.40031 0.0
C451 C 0.64226 0.54691 0.41746 0.0
C452 C 0.64228 0.54285 0.45581 0.0
C453 C 0.62162 0.51252 0.46739 0.0
C454 C 0.64689 0.48811 0.48626 0.0
C455 C 0.58879 0.52092 0.49289 0.0
C456 C 0.60963 0.50034 0.42956 0.0
C457 C 0.62214 0.52036 0.40111 0.0
C458 C 0.61411 0.5144 0.3638 0.0
C459 C 0.59228 0.48753 0.35539 0.0
C460 C 0.57841 0.46703 0.38417 0.0
C461 C 0.58768 0.47348 0.4217 0.0
H462 H 0.63407 0.44224 0.99754 0.0
H463 H 0.73669 0.44782 0.93559 0.0
H464 H 0.7108 0.49006 0.89502 0.0
H465 H 0.57359 0.45836 0.92133 0.0
H466 H 0.5436 0.48289 0.94994 0.0
H467 H 0.56895 0.45054 0.97081 0.0
H468 H 0.59634 0.49118 0.01803 0.0
H469 H 0.57117 0.52362 0.99723 0.0
H470 H 0.6199 0.52667 1.00077 0.0
H471 H 0.67324 0.53371 0.86232 0.0
H472 H 0.62907 0.57575 0.84328 0.0
H473 H 0.55485 0.54423 0.93179 0.0
C474 C 0.65141 0.45231 0.97564 0.0
C475 C 0.68762 0.44159 0.97006 0.0
C476 C 0.70873 0.45513 0.94027 0.0
C477 C 0.69432 0.47934 0.91718 0.0
C478 C 0.65885 0.4899 0.92434 0.0
C479 C 0.63782 0.47682 0.95302 0.0
C480 C 0.60147 0.4936 0.95685 0.0
C481 C 0.57005 0.46993 0.94927 0.0
C482 C 0.59698 0.50973 0.99551 0.0
C483 C 0.60536 0.51853 0.92612 0.0
C484 C 0.63831 0.51578 0.90713 0.0
C485 C 0.64745 0.5361 0.87714 0.0
C486 C 0.62228 0.55986 0.86651 0.0
C487 C 0.58886 0.56343 0.88639 0.0
C488 C 0.58046 0.5424 0.91645 0.0
H489 H 0.36343 0.59673 0.4422 0.0
H490 H 0.31206 0.5477 0.53659 0.0
H491 H 0.33609 0.49533 0.51367 0.0
H492 H 0.35207 0.53006 0.37267 0.0
H493 H 0.39604 0.5377 0.35126 0.0
H494 H 0.37065 0.57054 0.37221 0.0
H495 H 0.42547 0.58423 0.41397 0.0
H496 H 0.45088 0.55137 0.39337 0.0
H497 H 0.44404 0.55317 0.4434 0.0
H498 H 0.37113 0.44956 0.4847 0.0
H499 H 0.4141 0.41343 0.45111 0.0
H500 H 0.44289 0.49208 0.37539 0.0
C501 C 0.3564 0.57478 0.45731 0.0
C502 C 0.33571 0.57609 0.49096 0.0
C503 C 0.32784 0.54708 0.51069 0.0
C504 C 0.34126 0.51726 0.49784 0.0
C505 C 0.36247 0.51684 0.46514 0.0
C506 C 0.36984 0.54478 0.44497 0.0
C507 C 0.39584 0.53803 0.41251 0.0
C508 C 0.37755 0.54446 0.37493 0.0
C509 C 0.43114 0.55787 0.41605 0.0
C510 C 0.40261 0.50218 0.41817 0.0
C511 C 0.38285 0.49035 0.44846 0.0
C512 C 0.38635 0.45842 0.46057 0.0
C513 C 0.41093 0.4381 0.4414 0.0
C514 C 0.43178 0.44981 0.4105 0.0
C515 C 0.42703 0.48219 0.39856 0.0
H516 H 0.85387 0.93452 0.93294 0.0
H517 H 0.79987 0.98756 0.02253 0.0
H518 H 0.82367 0.03909 0.99647 0.0
H519 H 0.93398 0.97967 0.9335 0.0
H520 H 0.94231 0.97885 0.88365 0.0
H521 H 0.91672 0.94671 0.90579 0.0
H522 H 0.8631 0.95705 0.86139 0.0
H523 H 0.88865 0.98918 0.83893 0.0
H524 H 0.84397 0.99711 0.85838 0.0
H525 H 0.85836 0.08391 0.96494 0.0
H526 H 0.90187 0.11898 0.93038 0.0
H527 H 0.9344 0.03703 0.86135 0.0
C528 C 0.84622 0.95714 0.94625 0.0
C529 C 0.82465 0.9573 0.97935 0.0
C530 C 0.81609 0.98714 0.99691 0.0
C531 C 0.82943 0.01645 0.98228 0.0
C532 C 0.8514 0.01553 0.9501 0.0
C533 C 0.85969 0.98667 0.93218 0.0
C534 C 0.88658 0.99217 0.90008 0.0
C535 C 0.92199 0.97323 0.90614 0.0
C536 C 0.86955 0.98335 0.86246 0.0
C537 C 0.89273 0.02842 0.90334 0.0
C538 C 0.87187 0.04146 0.93212 0.0
C539 C 0.87447 0.07406 0.942 0.0
C540 C 0.89936 0.09379 0.92226 0.0
C541 C 0.92149 0.08086 0.89301 0.0
C542 C 0.91755 0.04781 0.88317 0.0
H543 H 0.1866 0.03197 0.50851 0.0
H544 H 0.21381 0.08949 0.41017 0.0
H545 H 0.18508 0.04842 0.37035 0.0
H546 H 0.19401 0.94994 0.46269 0.0
H547 H 0.15538 0.9347 0.48911 0.0
H548 H 0.18456 0.965 0.50922 0.0
H549 H 0.12871 1.00195 0.52112 0.0
H550 H 0.09946 0.97201 0.50081 0.0
H551 H 0.10032 0.0127 0.48249 0.0
H552 H 0.1443 1.00756 0.34276 0.0
H553 H 0.09667 0.96758 0.32846 0.0
H554 H 0.09496 0.93546 0.44398 0.0
C555 C 0.18729 0.03556 0.4785 0.0
C556 C 0.20269 0.06397 0.46251 0.0
C557 C 0.20293 0.06772 0.42312 0.0
C558 C 0.18646 0.04456 0.40023 0.0
C559 C 0.17015 0.0176 0.41708 0.0
C560 C 0.1708 0.01272 0.45527 0.0
C561 C 0.14798 0.9835 0.46667 0.0
C562 C 0.17192 0.95669 0.48288 0.0
C563 C 0.11731 0.99314 0.49439 0.0
C564 C 0.13302 0.97363 0.42911 0.0
C565 C 0.14657 0.99346 0.40087 0.0
C566 C 0.13417 0.99139 0.36441 0.0
C567 C 0.10697 0.96875 0.35663 0.0
C568 C 0.09249 0.94831 0.38506 0.0
C569 C 0.10622 0.95032 0.42161 0.0
H570 H 0.17565 0.98675 0.99234 0.0
H571 H 0.18166 0.91451 0.90385 0.0
H572 H 0.14628 0.95029 0.86331 0.0
H573 H 0.08342 1.0055 0.97874 0.0
H574 H 0.08816 0.04794 0.98963 0.0
H575 H 0.11835 0.01888 0.00998 0.0
H576 H 0.17399 0.05054 0.98324 0.0
H577 H 0.14396 0.0798 0.96288 0.0
H578 H 0.17699 0.05902 0.9338 0.0
H579 H 0.10721 0.99238 0.83358 0.0
H580 H 0.06565 0.03677 0.81751 0.0
H581 H 0.08031 0.07919 0.92744 0.0
C582 C 0.16966 0.97826 0.96447 0.0
C583 C 0.18177 0.94761 0.95147 0.0
C584 C 0.17358 0.93803 0.91443 0.0
C585 C 0.15318 0.95812 0.8912 0.0
C586 C 0.14088 0.98765 0.9054 0.0
C587 C 0.14872 0.99765 0.94121 0.0
C588 C 0.12993 0.02932 0.95078 0.0
C589 C 0.10339 0.02514 0.98426 0.0
C590 C 0.15789 0.05626 0.9581 0.0
C591 C 0.10983 0.03533 0.91488 0.0
C592 C 0.117 0.01125 0.88888 0.0
C593 C 0.10147 0.0114 0.85368 0.0
C594 C 0.07789 0.03675 0.84484 0.0
C595 C 0.06959 0.0614 0.8713 0.0
C596 C 0.08593 0.0606 0.90674 0.0
H597 H 0.86001 0.08881 0.42171 0.0
H598 H 0.82875 0.04678 0.52886 0.0
H599 H 0.8549 0.99446 0.50906 0.0
H600 H 0.8439 0.01445 0.36486 0.0
H601 H 0.88276 0.02218 0.33464 0.0
H602 H 0.8582 0.05554 0.35555 0.0
H603 H 0.9179 0.07701 0.38401 0.0
H604 H 0.94258 0.04375 0.36331 0.0
H605 H 0.9443 0.05064 0.41305 0.0
H606 H 0.89034 0.94894 0.48117 0.0
H607 H 0.93137 0.91234 0.44572 0.0
H608 H 0.93804 0.98223 0.35523 0.0
C609 C 0.85791 0.06835 0.44058 0.0
C610 C 0.84248 0.07192 0.47691 0.0
C611 C 0.84082 0.04472 0.50108 0.0
C612 C 0.85538 0.01482 0.49 0.0
C613 C 0.87124 0.01229 0.45445 0.0
C614 C 0.87234 0.03818 0.4299 0.0
C615 C 0.89305 0.02937 0.39419 0.0
C616 C 0.86797 0.03045 0.3603 0.0
C617 C 0.92643 0.0515 0.38832 0.0
C618 C 0.90422 0.99487 0.40301 0.0
C619 C 0.89114 0.98549 0.43786 0.0
C620 C 0.90018 0.95574 0.45353 0.0
C621 C 0.92356 0.93515 0.43327 0.0
C622 C 0.93746 0.94427 0.3976 0.0
C623 C 0.92709 0.9743 0.38205 0.0
H624 H 0.38947 0.36506 0.07986 0.0
H625 H 0.28138 0.38946 0.12085 0.0
H626 H 0.30332 0.38845 0.18603 0.0
H627 H 0.41086 0.30936 0.15721 0.0
H628 H 0.45802 0.32141 0.15758 0.0
H629 H 0.43323 0.32273 0.1146 0.0
H630 H 0.45025 0.38334 0.10665 0.0
H631 H 0.47491 0.38223 0.14964 0.0
H632 H 0.43919 0.41149 0.14372 0.0
H633 H 0.33917 0.3912 0.24585 0.0
H634 H 0.38451 0.39129 0.29639 0.0
H635 H 0.46767 0.35989 0.217 0.0
C636 C 0.37041 0.36968 0.10271 0.0
C637 C 0.33377 0.37729 0.09562 0.0
C638 C 0.30948 0.38334 0.12596 0.0
C639 C 0.32174 0.38292 0.16295 0.0
C640 C 0.35821 0.37577 0.16907 0.0
C641 C 0.38203 0.36864 0.13981 0.0
C642 C 0.41987 0.36185 0.1539 0.0
C643 C 0.43115 0.32674 0.14531 0.0
C644 C 0.44768 0.38618 0.13751 0.0
C645 C 0.41388 0.36705 0.19553 0.0
C646 C 0.3782 0.37536 0.20372 0.0
C647 C 0.36695 0.38399 0.23989 0.0
C648 C 0.3928 0.38406 0.26837 0.0
C649 C 0.42921 0.37492 0.26062 0.0
C650 C 0.43971 0.36606 0.22381 0.0
H651 H 0.6611 0.60775 0.59478 0.0
H652 H 0.68647 0.70991 0.58011 0.0
H653 H 0.6606 0.72128 0.64289 0.0
H654 H 0.57454 0.62055 0.63851 0.0
H655 H 0.57818 0.58629 0.66944 0.0
H656 H 0.60153 0.586 0.62473 0.0
H657 H 0.66247 0.57519 0.6578 0.0
H658 H 0.63932 0.57575 0.70268 0.0
H659 H 0.67732 0.60254 0.69382 0.0
H660 H 0.6302 0.72172 0.70694 0.0
H661 H 0.59356 0.71176 0.76452 0.0
H662 H 0.58536 0.60995 0.73508 0.0
C663 C 0.66111 0.6326 0.60451 0.0
C664 C 0.67618 0.65785 0.58237 0.0
C665 C 0.67587 0.68994 0.59669 0.0
C666 C 0.66107 0.69671 0.63231 0.0
C667 C 0.64645 0.6712 0.65326 0.0
C668 C 0.64608 0.63984 0.63972 0.0
C669 C 0.62687 0.61705 0.66676 0.0
C670 C 0.59329 0.60158 0.64879 0.0
C671 C 0.65307 0.5911 0.68111 0.0
C672 C 0.6161 0.64056 0.69748 0.0
C673 C 0.62805 0.6716 0.68947 0.0
C674 C 0.62077 0.69749 0.71353 0.0
C675 C 0.60004 0.69157 0.74624 0.0
C676 C 0.5865 0.6601 0.75427 0.0
C677 C 0.59526 0.63429 0.72975 0.0
H678 H 0.67558 0.34712 0.10176 0.0
H679 H 0.70717 0.4483 0.10647 0.0
H680 H 0.67688 0.45344 0.16838 0.0
H681 H 0.58911 0.35718 0.13784 0.0
H682 H 0.58703 0.32044 0.16503 0.0
H683 H 0.61637 0.32273 0.12427 0.0
H684 H 0.67174 0.30709 0.16412 0.0
H685 H 0.64245 0.30442 0.20506 0.0
H686 H 0.68195 0.33039 0.20532 0.0
H687 H 0.63565 0.45038 0.22327 0.0
H688 H 0.5882 0.43843 0.27098 0.0
H689 H 0.58391 0.33859 0.23342 0.0
C690 C 0.67716 0.36996 0.11658 0.0
C691 C 0.69384 0.3973 0.09968 0.0
C692 C 0.69455 0.42713 0.11915 0.0
C693 C 0.67755 0.43023 0.15431 0.0
C694 C 0.66018 0.40318 0.1697 0.0
C695 C 0.66016 0.37348 0.15179 0.0
C696 C 0.63653 0.34918 0.17299 0.0
C697 C 0.60543 0.33667 0.14857 0.0
C698 C 0.65955 0.32111 0.18776 0.0
C699 C 0.62224 0.37025 0.20476 0.0
C700 C 0.63653 0.40124 0.20233 0.0
C701 C 0.62492 0.42604 0.22606 0.0
C702 C 0.59784 0.41909 0.25287 0.0
C703 C 0.58288 0.38757 0.25597 0.0
C704 C 0.59564 0.36268 0.23206 0.0
H705 H 0.38002 0.6813 0.58955 0.0
H706 H 0.29381 0.61482 0.62215 0.0
H707 H 0.31658 0.61394 0.6868 0.0
H708 H 0.44759 0.64402 0.63843 0.0
H709 H 0.47123 0.68017 0.65268 0.0
H710 H 0.44472 0.6805 0.61092 0.0
H711 H 0.4072 0.72896 0.63653 0.0
H712 H 0.4339 0.72903 0.67833 0.0
H713 H 0.38505 0.72594 0.68184 0.0
H714 H 0.3538 0.61304 0.74391 0.0
H715 H 0.40151 0.61448 0.79156 0.0
H716 H 0.4636 0.68277 0.72363 0.0
C717 C 0.36522 0.6677 0.61084 0.0
C718 C 0.33472 0.64871 0.60145 0.0
C719 C 0.31675 0.63001 0.6293 0.0
C720 C 0.32954 0.62934 0.66597 0.0
C721 C 0.36032 0.64757 0.67427 0.0
C722 C 0.37775 0.66674 0.64768 0.0
C723 C 0.41229 0.68146 0.66309 0.0
C724 C 0.44593 0.67089 0.6399 0.0
C725 C 0.40942 0.71856 0.66507 0.0
C726 C 0.4122 0.66662 0.70192 0.0
C727 C 0.38181 0.64734 0.70781 0.0
C728 C 0.37726 0.62865 0.74002 0.0
C729 C 0.40456 0.62949 0.76682 0.0
C730 C 0.43591 0.64905 0.76145 0.0
C731 C 0.43944 0.66826 0.72884 0.0
H732 H 0.8638 0.84766 0.08242 0.0
H733 H 0.79738 0.93049 0.11262 0.0
H734 H 0.82359 0.93086 0.17573 0.0
H735 H 0.8633 0.80856 0.17786 0.0
H736 H 0.91015 0.7963 0.17283 0.0
H737 H 0.88201 0.79903 0.13219 0.0
H738 H 0.92889 0.83798 0.10105 0.0
H739 H 0.957 0.83557 0.14159 0.0
H740 H 0.94186 0.87447 0.12523 0.0
H741 H 0.86294 0.92806 0.23079 0.0
H742 H 0.91181 0.92071 0.27642 0.0
H743 H 0.95272 0.83858 0.213 0.0
C744 C 0.85397 0.86504 0.10292 0.0
C745 C 0.82822 0.88876 0.09313 0.0
C746 C 0.81678 0.91194 0.11997 0.0
C747 C 0.83149 0.9123 0.1558 0.0
C748 C 0.85761 0.88924 0.16441 0.0
C749 C 0.86861 0.8658 0.13896 0.0
C750 C 0.89963 0.84587 0.15433 0.0
C751 C 0.88807 0.81033 0.15962 0.0
C752 C 0.93386 0.84866 0.12904 0.0
C753 C 0.90506 0.86247 0.19176 0.0
C754 C 0.88028 0.88728 0.19699 0.0
C755 C 0.88191 0.90822 0.2275 0.0
C756 C 0.90978 0.90396 0.25318 0.0
C757 C 0.93542 0.87877 0.24846 0.0
C758 C 0.93269 0.8574 0.21772 0.0
H759 H 0.21124 0.14129 0.61372 0.0
H760 H 0.12695 0.13501 0.53071 0.0
H761 H 0.08009 0.14319 0.57986 0.0
H762 H 0.16575 0.0978 0.68342 0.0
H763 H 0.18011 0.12196 0.72252 0.0
H764 H 0.20801 0.12003 0.68066 0.0
H765 H 0.20661 0.18256 0.67502 0.0
H766 H 0.17899 0.18474 0.71718 0.0
H767 H 0.16347 0.20318 0.67468 0.0
H768 H 0.04263 0.14328 0.63687 0.0
H769 H 0.01521 0.14102 0.70008 0.0
H770 H 0.12198 0.15075 0.74854 0.0
C771 C 0.18295 0.14261 0.60597 0.0
C772 C 0.17255 0.13742 0.56854 0.0
C773 C 0.13533 0.13871 0.5593 0.0
C774 C 0.10857 0.14346 0.58697 0.0
C775 C 0.11945 0.14727 0.62376 0.0
C776 C 0.15566 0.14748 0.63346 0.0
C777 C 0.15934 0.15017 0.67567 0.0
C778 C 0.17949 0.12074 0.69148 0.0
C779 C 0.17822 0.18207 0.68626 0.0
C780 C 0.11956 0.15022 0.68801 0.0
C781 C 0.09722 0.14859 0.65738 0.0
C782 C 0.05968 0.14538 0.6611 0.0
C783 C 0.0444 0.14392 0.6971 0.0
C784 C 0.06648 0.14609 0.72901 0.0
C785 C 0.10455 0.14965 0.72449 0.0
H786 H 0.16862 0.85543 0.07844 0.0
H787 H 0.21656 0.95085 0.08953 0.0
H788 H 0.1897 0.95572 0.1533 0.0
H789 H 0.08568 0.87527 0.11908 0.0
H790 H 0.07798 0.83724 0.14274 0.0
H791 H 0.10595 0.83863 0.10094 0.0
H792 H 0.15918 0.8123 0.13628 0.0
H793 H 0.1312 0.81051 0.17821 0.0
H794 H 0.17482 0.83053 0.17894 0.0
H795 H 0.15235 0.95287 0.21204 0.0
H796 H 0.1069 0.94273 0.26224 0.0
H797 H 0.08154 0.84948 0.21249 0.0
C798 C 0.1744 0.87677 0.09498 0.0
C799 C 0.19511 0.90255 0.07977 0.0
C800 C 0.20115 0.93075 0.10127 0.0
C801 C 0.18605 0.93367 0.13738 0.0
C802 C 0.16488 0.9082 0.15136 0.0
C803 C 0.15913 0.88021 0.13094 0.0
C804 C 0.13225 0.85795 0.15086 0.0
C805 C 0.09848 0.85194 0.12698 0.0
C806 C 0.15046 0.82593 0.16172 0.0
C807 C 0.12306 0.87819 0.1851 0.0
C808 C 0.14254 0.90687 0.18506 0.0
C809 C 0.13727 0.93031 0.21266 0.0
C810 C 0.11125 0.92437 0.24098 0.0
C811 C 0.09059 0.89531 0.24136 0.0
C812 C 0.09702 0.87183 0.21319 0.0
H813 H 0.88998 0.17058 0.56647 0.0
H814 H 0.78549 0.13319 0.60424 0.0
H815 H 0.80445 0.13846 0.67014 0.0
H816 H 0.94263 0.13053 0.63006 0.0
H817 H 0.97457 0.16296 0.63775 0.0
H818 H 0.95108 0.16048 0.5942 0.0
H819 H 0.92691 0.2189 0.60388 0.0
H820 H 0.95058 0.22148 0.64751 0.0
H821 H 0.90234 0.22896 0.64643 0.0
H822 H 0.83845 0.13888 0.73021 0.0
H823 H 0.88337 0.13857 0.78088 0.0
H824 H 0.96433 0.17998 0.70508 0.0
C825 C 0.87081 0.16461 0.58882 0.0
C826 C 0.83614 0.15201 0.58075 0.0
C827 C 0.8119 0.14345 0.61026 0.0
C828 C 0.82249 0.1463 0.64762 0.0
C829 C 0.85721 0.15819 0.65483 0.0
C830 C 0.88081 0.16777 0.62629 0.0
C831 C 0.91741 0.17774 0.64146 0.0
C832 C 0.94821 0.15666 0.62488 0.0
C833 C 0.92473 0.21393 0.6344 0.0
C834 C 0.91123 0.17097 0.68275 0.0
C835 C 0.87631 0.15977 0.6899 0.0
C836 C 0.86552 0.14848 0.72518 0.0
C837 C 0.89119 0.14829 0.75374 0.0
C838 C 0.92703 0.15971 0.74696 0.0
C839 C 0.93683 0.17187 0.71124 0.0
loop_
_geom_bond_atom_site_label_1
_geom_bond_atom_site_label_2
_geom_bond_distance
_geom_bond_site_symmetry_2
_ccdc_geom_bond_type
H0 C7 0.929 . S
H1 C10 0.930 . S
H2 C12 0.929 . S
H3 C4 0.969 . S
C4 H3 0.969 . S
C4 O5 1.550 1_556 S
C4 H6 0.973 . S
O5 C4 1.550 1_554 S
O5 C11 1.412 . S
H6 C4 0.973 . S
C7 H0 0.929 . S
C7 C8 1.400 . S
C7 C9 1.364 1_554 S
C8 C7 1.400 . S
C8 C12 1.377 . S
C9 C7 1.364 1_556 S
C9 C10 1.374 . S
C10 H1 0.930 . S
C10 C9 1.374 . S
C10 C11 1.383 1_556 S
C11 O5 1.412 . S
C11 C10 1.383 1_554 S
C11 C12 1.394 . S
C12 H2 0.929 . S
C12 C8 1.377 . S
C12 C11 1.394 . S
H13 C20 0.929 . S
H14 C23 0.930 . S
H15 C25 0.929 . S
H16 C17 0.969 . S
C17 H16 0.969 . S
C17 O18 1.550 . S
C17 H19 0.973 . S
O18 C17 1.550 . S
O18 C24 1.412 . S
H19 C17 0.973 . S
C20 H13 0.929 . S
C20 C21 1.400 . S
C20 C22 1.364 . S
C21 C20 1.400 . S
C21 C25 1.377 . S
C22 C20 1.364 . S
C22 C23 1.374 . S
C23 H14 0.930 . S
C23 C22 1.374 . S
C23 C24 1.383 . S
C24 O18 1.412 . S
C24 C23 1.383 . S
C24 C25 1.394 . S
C25 H15 0.929 . S
C25 C21 1.377 . S
C25 C24 1.394 . S
H26 C33 0.929 . S
H27 C36 0.930 . S
H28 C38 0.929 . S
H29 C30 0.969 . S
C30 H29 0.969 . S
C30 O31 1.550 . S
C30 H32 0.973 1_556 S
O31 C30 1.550 . S
O31 C37 1.412 . S
H32 C30 0.973 1_554 S
C33 H26 0.929 . S
C33 C34 1.400 1_554 S
C33 C35 1.364 . S
C34 C33 1.400 1_556 S
C34 C38 1.377 . S
C35 C33 1.364 . S
C35 C36 1.374 . S
C36 H27 0.930 . S
C36 C35 1.374 . S
C36 C37 1.383 1_554 S
C37 O31 1.412 . S
C37 C36 1.383 1_556 S
C37 C38 1.394 . S
C38 H28 0.929 . S
C38 C34 1.377 . S
C38 C37 1.394 . S
H39 C46 0.929 . S
H40 C49 0.930 . S
H41 C51 0.929 . S
H42 C43 0.969 . S
C43 H42 0.969 . S
C43 O44 1.550 . S
C43 H45 0.973 . S
O44 C43 1.550 . S
O44 C50 1.412 . S
H45 C43 0.973 . S
C46 H39 0.929 . S
C46 C47 1.400 . S
C46 C48 1.364 . S
C47 C46 1.400 . S
C47 C51 1.377 . S
C48 C46 1.364 . S
C48 C49 1.374 . S
C49 H40 0.930 . S
C49 C48 1.374 . S
C49 C50 1.383 . S
C50 O44 1.412 . S
C50 C49 1.383 . S
C50 C51 1.394 . S
C51 H41 0.929 . S
C51 C47 1.377 . S
C51 C50 1.394 . S
H52 C59 0.929 . S
H53 C62 0.930 . S
H54 C64 0.929 . S
H55 C56 0.969 . S
C56 H55 0.969 . S
C56 O57 1.550 1_556 S
C56 H58 0.973 . S
O57 C56 1.550 1_554 S
O57 C63 1.412 . S
H58 C56 0.973 . S
C59 H52 0.929 . S
C59 C60 1.400 . S
C59 C61 1.364 1_554 S
C60 C59 1.400 . S
C60 C64 1.377 . S
C61 C59 1.364 1_556 S
C61 C62 1.374 . S
C62 H53 0.930 . S
C62 C61 1.374 . S
C62 C63 1.383 1_556 S
C63 O57 1.412 . S
C63 C62 1.383 1_554 S
C63 C64 1.394 . S
C64 H54 0.929 . S
C64 C60 1.377 . S
C64 C63 1.394 . S
H65 C72 0.929 . S
H66 C75 0.930 . S
H67 C77 0.929 . S
H68 C69 0.969 . S
C69 H68 0.969 . S
C69 O70 1.550 . S
C69 H71 0.973 . S
O70 C69 1.550 . S
O70 C76 1.412 . S
H71 C69 0.973 . S
C72 H65 0.929 . S
C72 C73 1.400 . S
C72 C74 1.364 . S
C73 C72 1.400 . S
C73 C77 1.377 . S
C74 C72 1.364 . S
C74 C75 1.374 . S
C75 H66 0.930 . S
C75 C74 1.374 . S
C75 C76 1.383 . S
C76 O70 1.412 . S
C76 C75 1.383 . S
C76 C77 1.394 . S
C77 H67 0.929 . S
C77 C73 1.377 . S
C77 C76 1.394 . S
H78 C85 0.929 . S
H79 C88 0.930 . S
H80 C90 0.929 . S
H81 C82 0.969 . S
C82 H81 0.969 . S
C82 O83 1.550 . S
C82 H84 0.973 1_556 S
O83 C82 1.550 . S
O83 C89 1.412 . S
H84 C82 0.973 1_554 S
C85 H78 0.929 . S
C85 C86 1.400 1_554 S
C85 C87 1.364 . S
C86 C85 1.400 1_556 S
C86 C90 1.377 . S
C87 C85 1.364 . S
C87 C88 1.374 . S
C88 H79 0.930 . S
C88 C87 1.374 . S
C88 C89 1.383 1_554 S
C89 O83 1.412 . S
C89 C88 1.383 1_556 S
C89 C90 1.394 . S
C90 H80 0.929 . S
C90 C86 1.377 . S
C90 C89 1.394 . S
H91 C98 0.929 . S
H92 C101 0.930 . S
H93 C103 0.929 . S
H94 C95 0.969 . S
C95 H94 0.969 . S
C95 O96 1.550 . S
C95 H97 0.973 . S
O96 C95 1.550 . S
O96 C102 1.412 . S
H97 C95 0.973 . S
C98 H91 0.929 . S
C98 C99 1.400 . S
C98 C100 1.364 . S
C99 C98 1.400 . S
C99 C103 1.377 . S
C100 C98 1.364 . S
C100 C101 1.374 . S
C101 H92 0.930 . S
C101 C100 1.374 . S
C101 C102 1.383 . S
C102 O96 1.412 . S
C102 C101 1.383 . S
C102 C103 1.394 . S
C103 H93 0.929 . S
C103 C99 1.377 . S
C103 C102 1.394 . S
Fe104 O106 1.918 . S
Fe104 O109 1.997 1_455 S
Fe104 O110 2.002 1_455 S
Fe104 O115 1.976 . S
Fe104 O118 1.996 . S
Fe105 O106 1.918 . S
Fe105 O113 1.997 1_455 S
Fe105 O116 1.996 . S
Fe105 O120 1.976 . S
Fe105 O123 2.002 1_455 S
O106 Fe104 1.918 . S
O106 Fe105 1.918 . S
O106 Fe107 1.918 . S
Fe107 O106 1.918 . S
Fe107 O108 2.002 1_455 S
Fe107 O117 1.976 . S
Fe107 O121 1.996 . S
Fe107 O124 1.997 1_455 S
O108 Fe107 2.002 1_655 S
O108 C125 1.295 . S
O109 Fe104 1.997 1_655 S
O109 C125 1.235 . S
O110 Fe104 2.002 1_655 S
O110 C111 1.295 . S
C111 O110 1.295 . S
C111 O113 1.235 . S
C112 O117 1.287 . S
C112 O118 1.255 . S
O113 Fe105 1.997 1_655 S
O113 C111 1.235 . S
C114 O120 1.287 . S
C114 O121 1.255 . S
O115 Fe104 1.976 . S
O115 C122 1.287 . S
O116 Fe105 1.996 . S
O116 C122 1.255 . S
O117 Fe107 1.976 . S
O117 C112 1.287 . S
O118 Fe104 1.996 . S
O118 C112 1.255 . S
C119 O123 1.295 . S
C119 O124 1.235 . S
O120 Fe105 1.976 . S
O120 C114 1.287 . S
O121 Fe107 1.996 . S
O121 C114 1.255 . S
C122 O115 1.287 . S
C122 O116 1.255 . S
O123 Fe105 2.002 1_655 S
O123 C119 1.295 . S
O124 Fe107 1.997 1_655 S
O124 C119 1.235 . S
C125 O108 1.295 . S
C125 O109 1.235 . S
Fe126 O128 1.918 . S
Fe126 O131 1.997 1_655 S
Fe126 O132 2.002 1_655 S
Fe126 O137 1.976 . S
Fe126 O140 1.996 . S
Fe127 O128 1.918 . S
Fe127 O135 1.983 1_655 S
Fe127 O138 2.009 . S
Fe127 O142 1.989 . S
Fe127 O145 1.989 1_655 S
O128 Fe126 1.918 . S
O128 Fe127 1.918 . S
O128 Fe129 1.918 . S
Fe129 O128 1.918 . S
Fe129 O130 1.992 1_655 S
Fe129 O139 1.986 . S
Fe129 O143 2.006 . S
Fe129 O146 1.986 1_655 S
O130 Fe129 1.992 1_455 S
O130 C147 1.295 . S
O131 Fe126 1.997 1_455 S
O131 C147 1.235 . S
O132 Fe126 2.002 1_455 S
O132 C133 1.295 . S
C133 O132 1.295 . S
C133 O135 1.235 . S
C134 O139 1.287 . S
C134 O140 1.255 . S
O135 Fe127 1.983 1_455 S
O135 C133 1.235 . S
C136 O142 1.287 . S
C136 O143 1.255 . S
O137 Fe126 1.976 . S
O137 C144 1.287 . S
O138 Fe127 2.009 . S
O138 C144 1.255 . S
O139 Fe129 1.986 . S
O139 C134 1.287 . S
O140 Fe126 1.996 . S
O140 C134 1.255 . S
C141 O145 1.295 . S
C141 O146 1.235 . S
O142 Fe127 1.989 . S
O142 C136 1.287 . S
O143 Fe129 2.006 . S
O143 C136 1.255 . S
C144 O137 1.287 . S
C144 O138 1.255 . S
O145 Fe127 1.989 1_455 S
O145 C141 1.295 . S
O146 Fe129 1.986 1_455 S
O146 C141 1.235 . S
C147 O130 1.295 . S
C147 O131 1.235 . S
Fe148 O150 1.918 . S
Fe148 O153 1.997 . S
Fe148 O154 2.002 . S
Fe148 O159 1.976 . S
Fe148 O162 1.996 . S
Fe149 O150 1.918 . S
Fe149 O157 1.997 . S
Fe149 O160 1.996 . S
Fe149 O164 1.976 . S
Fe149 O167 2.002 . S
O150 Fe148 1.918 . S
O150 Fe149 1.918 . S
O150 Fe151 1.918 . S
Fe151 O150 1.918 . S
Fe151 O152 2.002 . S
Fe151 O161 1.976 . S
Fe151 O165 1.996 . S
Fe151 O168 1.997 . S
O152 Fe151 2.002 . S
O152 C169 1.295 . S
O153 Fe148 1.997 . S
O153 C169 1.235 . S
O154 Fe148 2.002 . S
O154 C155 1.295 . S
C155 O154 1.295 . S
C155 O157 1.235 . S
C156 O161 1.287 . S
C156 O162 1.255 . S
O157 Fe149 1.997 . S
O157 C155 1.235 . S
C158 O164 1.287 . S
C158 O165 1.255 . S
O159 Fe148 1.976 . S
O159 C166 1.287 . S
O160 Fe149 1.996 . S
O160 C166 1.255 . S
O161 Fe151 1.976 . S
O161 C156 1.287 . S
O162 Fe148 1.996 . S
O162 C156 1.255 . S
C163 O167 1.295 . S
C163 O168 1.235 . S
O164 Fe149 1.976 . S
O164 C158 1.287 . S
O165 Fe151 1.996 . S
O165 C158 1.255 . S
C166 O159 1.287 . S
C166 O160 1.255 . S
O167 Fe149 2.002 . S
O167 C163 1.295 . S
O168 Fe151 1.997 . S
O168 C163 1.235 . S
C169 O152 1.295 . S
C169 O153 1.235 . S
Fe170 O172 1.918 . S
Fe170 O175 1.997 . S
Fe170 O176 2.002 . S
Fe170 O181 1.976 . S
Fe170 O184 1.996 . S
Fe171 O172 1.918 . S
Fe171 O179 1.997 . S
Fe171 O182 1.996 . S
Fe171 O186 1.976 . S
Fe171 O189 2.002 . S
O172 Fe170 1.918 . S
O172 Fe171 1.918 . S
O172 Fe173 1.918 . S
Fe173 O172 1.918 . S
Fe173 O174 2.002 . S
Fe173 O183 1.976 . S
Fe173 O187 1.996 . S
Fe173 O190 1.997 . S
O174 Fe173 2.002 . S
O174 C191 1.295 . S
O175 Fe170 1.997 . S
O175 C191 1.235 . S
O176 Fe170 2.002 . S
O176 C177 1.295 . S
C177 O176 1.295 . S
C177 O179 1.235 . S
C178 O183 1.287 . S
C178 O184 1.255 . S
O179 Fe171 1.997 . S
O179 C177 1.235 . S
C180 O186 1.287 . S
C180 O187 1.255 . S
O181 Fe170 1.976 . S
O181 C188 1.287 . S
O182 Fe171 1.996 . S
O182 C188 1.255 . S
O183 Fe173 1.976 . S
O183 C178 1.287 . S
O184 Fe170 1.996 . S
O184 C178 1.255 . S
C185 O189 1.295 . S
C185 O190 1.235 . S
O186 Fe171 1.976 . S
O186 C180 1.287 . S
O187 Fe173 1.996 . S
O187 C180 1.255 . S
C188 O181 1.287 . S
C188 O182 1.255 . S
O189 Fe171 2.002 . S
O189 C185 1.295 . S
O190 Fe173 1.997 . S
O190 C185 1.235 . S
C191 O174 1.295 . S
C191 O175 1.235 . S
H192 C204 0.930 . S
H193 C206 0.930 1_554 S
H194 C207 0.930 . S
H195 C211 0.959 . S
H196 C211 0.959 . S
H197 C211 0.961 . S
H198 C212 0.960 . S
H199 C212 0.961 . S
H200 C212 0.959 . S
H201 C215 0.929 . S
H202 C216 0.931 . S
H203 C218 0.930 . S
C204 H192 0.930 . S
C204 C205 1.399 . S
C204 C209 1.399 . S
C205 C204 1.399 . S
C205 C206 1.376 . S
C206 H193 0.930 1_556 S
C206 C205 1.376 . S
C206 C207 1.388 . S
C207 H194 0.930 . S
C207 C206 1.388 . S
C207 C208 1.390 . S
C208 C207 1.390 . S
C208 C209 1.394 . S
C208 C214 1.465 . S
C209 C204 1.399 . S
C209 C208 1.394 . S
C209 C210 1.516 . S
C210 C209 1.516 . S
C210 C211 1.502 . S
C210 C212 1.561 . S
C210 C213 1.526 . S
C211 H195 0.959 . S
C211 H196 0.959 . S
C211 H197 0.961 . S
C211 C210 1.502 . S
C212 H198 0.960 . S
C212 H199 0.961 . S
C212 H200 0.959 . S
C212 C210 1.561 . S
C213 C210 1.526 . S
C213 C214 1.396 . S
C213 C218 1.390 . S
C214 C208 1.465 . S
C214 C213 1.396 . S
C214 C215 1.399 . S
C215 H201 0.929 . S
C215 C214 1.399 . S
C215 C216 1.385 . S
C216 H202 0.931 . S
C216 C215 1.385 . S
C216 C217 1.389 . S
C217 C216 1.389 . S
C217 C218 1.387 . S
C218 H203 0.930 . S
C218 C213 1.390 . S
C218 C217 1.387 . S
H219 C231 0.930 . S
H220 C233 0.930 . S
H221 C234 0.930 . S
H222 C238 0.959 . S
H223 C238 0.959 . S
H224 C238 0.961 . S
H225 C239 0.960 . S
H226 C239 0.961 . S
H227 C239 0.959 . S
H228 C242 0.929 . S
H229 C243 0.931 . S
H230 C245 0.930 . S
C231 H219 0.930 . S
C231 C232 1.399 . S
C231 C236 1.399 . S
C232 C231 1.399 . S
C232 C233 1.376 . S
C233 H220 0.930 . S
C233 C232 1.376 . S
C233 C234 1.388 . S
C234 H221 0.930 . S
C234 C233 1.388 . S
C234 C235 1.390 . S
C235 C234 1.390 . S
C235 C236 1.394 . S
C235 C241 1.465 . S
C236 C231 1.399 . S
C236 C235 1.394 . S
C236 C237 1.516 . S
C237 C236 1.516 . S
C237 C238 1.502 . S
C237 C239 1.561 . S
C237 C240 1.526 . S
C238 H222 0.959 . S
C238 H223 0.959 . S
C238 H224 0.961 . S
C238 C237 1.502 . S
C239 H225 0.960 . S
C239 H226 0.961 . S
C239 H227 0.959 . S
C239 C237 1.561 . S
C240 C237 1.526 . S
C240 C241 1.396 . S
C240 C245 1.390 . S
C241 C235 1.465 . S
C241 C240 1.396 . S
C241 C242 1.399 . S
C242 H228 0.929 . S
C242 C241 1.399 . S
C242 C243 1.385 . S
C243 H229 0.931 . S
C243 C242 1.385 . S
C243 C244 1.389 . S
C244 C243 1.389 . S
C244 C245 1.387 . S
C245 H230 0.930 . S
C245 C240 1.390 . S
C245 C244 1.387 . S
H246 C258 0.930 1_554 S
H247 C260 0.930 . S
H248 C261 0.930 . S
H249 C265 0.959 . S
H250 C265 0.959 1_554 S
H251 C265 0.961 1_554 S
H252 C266 0.970 . S
H253 C266 0.961 . S
H254 C266 0.959 . S
H255 C269 0.929 . S
H256 C270 0.931 . S
H257 C272 0.930 . S
C258 H246 0.930 1_556 S
C258 C259 1.399 . S
C258 C263 1.399 . S
C259 C258 1.399 . S
C259 C260 1.376 . S
C260 H247 0.930 . S
C260 C259 1.376 . S
C260 C261 1.388 . S
C261 H248 0.930 . S
C261 C260 1.388 . S
C261 C262 1.390 . S
C262 C261 1.390 . S
C262 C263 1.394 . S
C262 C268 1.465 . S
C263 C258 1.399 . S
C263 C262 1.394 . S
C263 C264 1.516 . S
C264 C263 1.516 . S
C264 C265 1.502 . S
C264 C266 1.561 . S
C264 C267 1.526 . S
C265 H249 0.959 . S
C265 H250 0.959 1_556 S
C265 H251 0.961 1_556 S
C265 C264 1.502 . S
C266 H252 0.970 . S
C266 H253 0.961 . S
C266 H254 0.959 . S
C266 C264 1.561 . S
C267 C264 1.526 . S
C267 C268 1.396 . S
C267 C272 1.390 . S
C268 C262 1.465 . S
C268 C267 1.396 . S
C268 C269 1.399 . S
C269 H255 0.929 . S
C269 C268 1.399 . S
C269 C270 1.385 . S
C270 H256 0.931 . S
C270 C269 1.385 . S
C270 C271 1.389 . S
C271 C270 1.389 . S
C271 C272 1.387 . S
C272 H257 0.930 . S
C272 C267 1.390 . S
C272 C271 1.387 . S
H273 C285 0.930 . S
H274 C287 0.930 . S
H275 C288 0.930 . S
H276 C292 0.959 . S
H277 C292 0.959 . S
H278 C292 0.961 . S
H279 C293 0.960 . S
H280 C293 0.961 . S
H281 C293 0.959 . S
H282 C296 0.929 . S
H283 C297 0.931 . S
H284 C299 0.930 . S
C285 H273 0.930 . S
C285 C286 1.399 . S
C285 C290 1.399 . S
C286 C285 1.399 . S
C286 C287 1.376 . S
C287 H274 0.930 . S
C287 C286 1.376 . S
C287 C288 1.388 . S
C288 H275 0.930 . S
C288 C287 1.388 . S
C288 C289 1.390 . S
C289 C288 1.390 . S
C289 C290 1.394 . S
C289 C295 1.465 . S
C290 C285 1.399 . S
C290 C289 1.394 . S
C290 C291 1.516 . S
C291 C290 1.516 . S
C291 C292 1.502 . S
C291 C293 1.561 . S
C291 C294 1.526 . S
C292 H276 0.959 . S
C292 H277 0.959 . S
C292 H278 0.961 . S
C292 C291 1.502 . S
C293 H279 0.960 . S
C293 H280 0.961 . S
C293 H281 0.959 . S
C293 C291 1.561 . S
C294 C291 1.526 . S
C294 C295 1.396 . S
C294 C299 1.390 . S
C295 C289 1.465 . S
C295 C294 1.396 . S
C295 C296 1.399 . S
C296 H282 0.929 . S
C296 C295 1.399 . S
C296 C297 1.385 . S
C297 H283 0.931 . S
C297 C296 1.385 . S
C297 C298 1.389 . S
C298 C297 1.389 . S
C298 C299 1.387 . S
C299 H284 0.930 . S
C299 C294 1.390 . S
C299 C298 1.387 . S
H300 C312 0.930 . S
H301 C314 0.930 1_554 S
H302 C315 0.930 . S
H303 C319 0.959 . S
H304 C319 0.959 . S
H305 C319 0.961 . S
H306 C320 0.960 . S
H307 C320 0.961 . S
H308 C320 0.959 . S
H309 C323 0.929 . S
H310 C324 0.931 . S
H311 C326 0.930 . S
C312 H300 0.930 . S
C312 C313 1.399 . S
C312 C317 1.399 . S
C313 C312 1.399 . S
C313 C314 1.376 . S
C314 H301 0.930 1_556 S
C314 C313 1.376 . S
C314 C315 1.388 . S
C315 H302 0.930 . S
C315 C314 1.388 . S
C315 C316 1.390 . S
C316 C315 1.390 . S
C316 C317 1.394 . S
C316 C322 1.465 . S
C317 C312 1.399 . S
C317 C316 1.394 . S
C317 C318 1.516 . S
C318 C317 1.516 . S
C318 C319 1.502 . S
C318 C320 1.561 . S
C318 C321 1.526 . S
C319 H303 0.959 . S
C319 H304 0.959 . S
C319 H305 0.961 . S
C319 C318 1.502 . S
C320 H306 0.960 . S
C320 H307 0.961 . S
C320 H308 0.959 . S
C320 C318 1.561 . S
C321 C318 1.526 . S
C321 C322 1.396 . S
C321 C326 1.390 . S
C322 C316 1.465 . S
C322 C321 1.396 . S
C322 C323 1.399 . S
C323 H309 0.929 . S
C323 C322 1.399 . S
C323 C324 1.385 . S
C324 H310 0.931 . S
C324 C323 1.385 . S
C324 C325 1.389 . S
C325 C324 1.389 . S
C325 C326 1.387 . S
C326 H311 0.930 . S
C326 C321 1.390 . S
C326 C325 1.387 . S
H327 C339 0.930 . S
H328 C341 0.930 . S
H329 C342 0.930 . S
H330 C346 0.959 . S
H331 C346 0.959 . S
H332 C346 0.961 . S
H333 C347 0.960 . S
H334 C347 0.961 . S
H335 C347 0.959 . S
H336 C350 0.929 . S
H337 C351 0.931 . S
H338 C353 0.930 . S
C339 H327 0.930 . S
C339 C340 1.399 . S
C339 C344 1.399 . S
C340 C339 1.399 . S
C340 C341 1.376 . S
C341 H328 0.930 . S
C341 C340 1.376 . S
C341 C342 1.388 . S
C342 H329 0.930 . S
C342 C341 1.388 . S
C342 C343 1.390 . S
C343 C342 1.390 . S
C343 C344 1.394 . S
C343 C349 1.465 . S
C344 C339 1.399 . S
C344 C343 1.394 . S
C344 C345 1.516 . S
C345 C344 1.516 . S
C345 C346 1.502 . S
C345 C347 1.561 . S
C345 C348 1.526 . S
C346 H330 0.959 . S
C346 H331 0.959 . S
C346 H332 0.961 . S
C346 C345 1.502 . S
C347 H333 0.960 . S
C347 H334 0.961 . S
C347 H335 0.959 . S
C347 C345 1.561 . S
C348 C345 1.526 . S
C348 C349 1.396 . S
C348 C353 1.390 . S
C349 C343 1.465 . S
C349 C348 1.396 . S
C349 C350 1.399 . S
C350 H336 0.929 . S
C350 C349 1.399 . S
C350 C351 1.385 . S
C351 H337 0.931 . S
C351 C350 1.385 . S
C351 C352 1.389 . S
C352 C351 1.389 . S
C352 C353 1.387 . S
C353 H338 0.930 . S
C353 C348 1.390 . S
C353 C352 1.387 . S
H354 C366 0.930 . S
H355 C368 0.926 1_554 S
H356 C369 0.930 . S
H357 C373 0.959 . S
H358 C373 0.959 . S
H359 C373 0.961 . S
H360 C374 0.960 . S
H361 C374 0.961 . S
H362 C374 0.959 . S
H363 C377 0.929 . S
H364 C378 0.931 . S
H365 C380 0.930 . S
C366 H354 0.930 . S
C366 C367 1.399 . S
C366 C371 1.399 . S
C367 C366 1.399 . S
C367 C368 1.376 . S
C368 H355 0.926 1_556 S
C368 C367 1.376 . S
C368 C369 1.388 . S
C369 H356 0.930 . S
C369 C368 1.388 . S
C369 C370 1.390 . S
C370 C369 1.390 . S
C370 C371 1.394 . S
C370 C376 1.465 . S
C371 C366 1.399 . S
C371 C370 1.394 . S
C371 C372 1.516 . S
C372 C371 1.516 . S
C372 C373 1.502 . S
C372 C374 1.561 . S
C372 C375 1.526 . S
C373 H357 0.959 . S
C373 H358 0.959 . S
C373 H359 0.961 . S
C373 C372 1.502 . S
C374 H360 0.960 . S
C374 H361 0.961 . S
C374 H362 0.959 . S
C374 C372 1.561 . S
C375 C372 1.526 . S
C375 C376 1.396 . S
C375 C380 1.390 . S
C376 C370 1.465 . S
C376 C375 1.396 . S
C376 C377 1.399 . S
C377 H363 0.929 . S
C377 C376 1.399 . S
C377 C378 1.385 . S
C378 H364 0.931 . S
C378 C377 1.385 . S
C378 C379 1.389 . S
C379 C378 1.389 . S
C379 C380 1.387 . S
C380 H365 0.930 . S
C380 C375 1.390 . S
C380 C379 1.387 . S
H381 C393 0.930 . S
H382 C395 0.930 . S
H383 C396 0.930 . S
H384 C400 0.959 . S
H385 C400 0.959 . S
H386 C400 0.961 . S
H387 C401 0.960 . S
H388 C401 0.961 . S
H389 C401 0.959 . S
H390 C404 0.929 . S
H391 C405 0.931 . S
H392 C407 0.930 . S
C393 H381 0.930 . S
C393 C394 1.399 . S
C393 C398 1.399 . S
C394 C393 1.399 . S
C394 C395 1.376 . S
C395 H382 0.930 . S
C395 C394 1.376 . S
C395 C396 1.388 . S
C396 H383 0.930 . S
C396 C395 1.388 . S
C396 C397 1.390 . S
C397 C396 1.390 . S
C397 C398 1.394 . S
C397 C403 1.465 . S
C398 C393 1.399 . S
C398 C397 1.394 . S
C398 C399 1.516 . S
C399 C398 1.516 . S
C399 C400 1.502 . S
C399 C401 1.561 . S
C399 C402 1.526 . S
C400 H384 0.959 . S
C400 H385 0.959 . S
C400 H386 0.961 . S
C400 C399 1.502 . S
C401 H387 0.960 . S
C401 H388 0.961 . S
C401 H389 0.959 . S
C401 C399 1.561 . S
C402 C399 1.526 . S
C402 C403 1.396 . S
C402 C407 1.390 . S
C403 C397 1.465 . S
C403 C402 1.396 . S
C403 C404 1.399 . S
C404 H390 0.929 . S
C404 C403 1.399 . S
C404 C405 1.385 . S
C405 H391 0.931 . S
C405 C404 1.385 . S
C405 C406 1.389 . S
C406 C405 1.389 . S
C406 C407 1.387 . S
C407 H392 0.930 . S
C407 C402 1.390 . S
C407 C406 1.387 . S
H408 C420 0.930 . S
H409 C422 0.930 1_554 S
H410 C423 0.930 . S
H411 C427 0.959 . S
H412 C427 0.959 . S
H413 C427 0.961 . S
H414 C428 0.960 . S
H415 C428 0.961 . S
H416 C428 0.959 . S
H417 C431 0.929 . S
H418 C432 0.931 . S
H419 C434 0.930 . S
C420 H408 0.930 . S
C420 C421 1.399 . S
C420 C425 1.399 . S
C421 C420 1.399 . S
C421 C422 1.376 . S
C422 H409 0.930 1_556 S
C422 C421 1.376 . S
C422 C423 1.388 . S
C423 H410 0.930 . S
C423 C422 1.388 . S
C423 C424 1.390 . S
C424 C423 1.390 . S
C424 C425 1.394 . S
C424 C430 1.465 . S
C425 C420 1.399 . S
C425 C424 1.394 . S
C425 C426 1.516 . S
C426 C425 1.516 . S
C426 C427 1.502 . S
C426 C428 1.561 . S
C426 C429 1.526 . S
C427 H411 0.959 . S
C427 H412 0.959 . S
C427 H413 0.961 . S
C427 C426 1.502 . S
C428 H414 0.960 . S
C428 H415 0.961 . S
C428 H416 0.959 . S
C428 C426 1.561 . S
C429 C426 1.526 . S
C429 C430 1.396 . S
C429 C434 1.390 . S
C430 C424 1.465 . S
C430 C429 1.396 . S
C430 C431 1.399 . S
C431 H417 0.929 . S
C431 C430 1.399 . S
C431 C432 1.385 . S
C432 H418 0.931 . S
C432 C431 1.385 . S
C432 C433 1.389 . S
C433 C432 1.389 . S
C433 C434 1.387 . S
C434 H419 0.930 . S
C434 C429 1.390 . S
C434 C433 1.387 . S
H435 C447 0.930 . S
H436 C449 0.930 . S
H437 C450 0.930 . S
H438 C454 0.959 . S
H439 C454 0.959 . S
H440 C454 0.961 . S
H441 C455 0.960 . S
H442 C455 0.961 . S
H443 C455 0.959 . S
H444 C458 0.929 . S
H445 C459 0.931 . S
H446 C461 0.930 . S
C447 H435 0.930 . S
C447 C448 1.399 . S
C447 C452 1.399 . S
C448 C447 1.399 . S
C448 C449 1.376 . S
C449 H436 0.930 . S
C449 C448 1.376 . S
C449 C450 1.388 . S
C450 H437 0.930 . S
C450 C449 1.388 . S
C450 C451 1.390 . S
C451 C450 1.390 . S
C451 C452 1.394 . S
C451 C457 1.465 . S
C452 C447 1.399 . S
C452 C451 1.394 . S
C452 C453 1.516 . S
C453 C452 1.516 . S
C453 C454 1.502 . S
C453 C455 1.561 . S
C453 C456 1.526 . S
C454 H438 0.959 . S
C454 H439 0.959 . S
C454 H440 0.961 . S
C454 C453 1.502 . S
C455 H441 0.960 . S
C455 H442 0.961 . S
C455 H443 0.959 . S
C455 C453 1.561 . S
C456 C453 1.526 . S
C456 C457 1.396 . S
C456 C461 1.390 . S
C457 C451 1.465 . S
C457 C456 1.396 . S
C457 C458 1.399 . S
C458 H444 0.929 . S
C458 C457 1.399 . S
C458 C459 1.385 . S
C459 H445 0.931 . S
C459 C458 1.385 . S
C459 C460 1.389 . S
C460 C459 1.389 . S
C460 C461 1.387 . S
C461 H446 0.930 . S
C461 C456 1.390 . S
C461 C460 1.387 . S
H462 C474 0.930 1_554 S
H463 C476 0.930 . S
H464 C477 0.930 . S
H465 C481 0.959 . S
H466 C481 0.959 . S
H467 C481 0.969 . S
H468 C482 0.960 1_554 S
H469 C482 0.961 1_554 S
H470 C482 0.959 . S
H471 C485 0.929 . S
H472 C486 0.931 . S
H473 C488 0.930 . S
C474 H462 0.930 1_556 S
C474 C475 1.399 . S
C474 C479 1.399 . S
C475 C474 1.399 . S
C475 C476 1.376 . S
C476 H463 0.930 . S
C476 C475 1.376 . S
C476 C477 1.388 . S
C477 H464 0.930 . S
C477 C476 1.388 . S
C477 C478 1.390 . S
C478 C477 1.390 . S
C478 C479 1.394 . S
C478 C484 1.465 . S
C479 C474 1.399 . S
C479 C478 1.394 . S
C479 C480 1.516 . S
C480 C479 1.516 . S
C480 C481 1.502 . S
C480 C482 1.561 . S
C480 C483 1.526 . S
C481 H465 0.959 . S
C481 H466 0.959 . S
C481 H467 0.969 . S
C481 C480 1.502 . S
C482 H468 0.960 1_556 S
C482 H469 0.961 1_556 S
C482 H470 0.959 . S
C482 C480 1.561 . S
C483 C480 1.526 . S
C483 C484 1.396 . S
C483 C488 1.390 . S
C484 C478 1.465 . S
C484 C483 1.396 . S
C484 C485 1.399 . S
C485 H471 0.929 . S
C485 C484 1.399 . S
C485 C486 1.385 . S
C486 H472 0.931 . S
C486 C485 1.385 . S
C486 C487 1.389 . S
C487 C486 1.389 . S
C487 C488 1.387 . S
C488 H473 0.930 . S
C488 C483 1.390 . S
C488 C487 1.387 . S
H489 C501 0.930 . S
H490 C503 0.930 . S
H491 C504 0.930 . S
H492 C508 0.959 . S
H493 C508 0.959 . S
H494 C508 0.961 . S
H495 C509 0.960 . S
H496 C509 0.961 . S
H497 C509 0.959 . S
H498 C512 0.929 . S
H499 C513 0.931 . S
H500 C515 0.930 . S
C501 H489 0.930 . S
C501 C502 1.399 . S
C501 C506 1.399 . S
C502 C501 1.399 . S
C502 C503 1.376 . S
C503 H490 0.930 . S
C503 C502 1.376 . S
C503 C504 1.388 . S
C504 H491 0.930 . S
C504 C503 1.388 . S
C504 C505 1.390 . S
C505 C504 1.390 . S
C505 C506 1.394 . S
C505 C511 1.465 . S
C506 C501 1.399 . S
C506 C505 1.394 . S
C506 C507 1.516 . S
C507 C506 1.516 . S
C507 C508 1.502 . S
C507 C509 1.561 . S
C507 C510 1.526 . S
C508 H492 0.959 . S
C508 H493 0.959 . S
C508 H494 0.961 . S
C508 C507 1.502 . S
C509 H495 0.960 . S
C509 H496 0.961 . S
C509 H497 0.959 . S
C509 C507 1.561 . S
C510 C507 1.526 . S
C510 C511 1.396 . S
C510 C515 1.390 . S
C511 C505 1.465 . S
C511 C510 1.396 . S
C511 C512 1.399 . S
C512 H498 0.929 . S
C512 C511 1.399 . S
C512 C513 1.385 . S
C513 H499 0.931 . S
C513 C512 1.385 . S
C513 C514 1.389 . S
C514 C513 1.389 . S
C514 C515 1.387 . S
C515 H500 0.930 . S
C515 C510 1.390 . S
C515 C514 1.387 . S
H516 C528 0.930 . S
H517 C530 0.930 1_554 S
H518 C531 0.930 1_545 S
H519 C535 0.959 . S
H520 C535 0.959 . S
H521 C535 0.961 . S
H522 C536 0.960 . S
H523 C536 0.961 . S
H524 C536 0.959 . S
H525 C539 0.929 . S
H526 C540 0.931 . S
H527 C542 0.930 . S
C528 H516 0.930 . S
C528 C529 1.399 . S
C528 C533 1.399 . S
C529 C528 1.399 . S
C529 C530 1.376 . S
C530 H517 0.930 1_556 S
C530 C529 1.376 . S
C530 C531 1.388 . S
C531 H518 0.930 1_565 S
C531 C530 1.388 . S
C531 C532 1.390 . S
C532 C531 1.390 . S
C532 C533 1.394 . S
C532 C538 1.465 1_565 S
C533 C528 1.399 . S
C533 C532 1.394 . S
C533 C534 1.516 . S
C534 C533 1.516 . S
C534 C535 1.502 . S
C534 C536 1.561 . S
C534 C537 1.525 . S
C535 H519 0.959 . S
C535 H520 0.959 . S
C535 H521 0.961 . S
C535 C534 1.502 . S
C536 H522 0.960 . S
C536 H523 0.961 . S
C536 H524 0.959 . S
C536 C534 1.561 . S
C537 C534 1.525 . S
C537 C538 1.396 1_565 S
C537 C542 1.390 1_565 S
C538 C532 1.465 1_545 S
C538 C537 1.396 1_545 S
C538 C539 1.399 . S
C539 H525 0.929 . S
C539 C538 1.399 . S
C539 C540 1.385 . S
C540 H526 0.931 . S
C540 C539 1.385 . S
C540 C541 1.389 . S
C541 C540 1.389 . S
C541 C542 1.387 . S
C542 H527 0.930 . S
C542 C537 1.390 1_545 S
C542 C541 1.387 . S
H543 C555 0.930 . S
H544 C557 0.930 . S
H545 C558 0.930 . S
H546 C562 0.959 . S
H547 C562 0.959 . S
H548 C562 0.961 . S
H549 C563 0.960 . S
H550 C563 0.961 . S
H551 C563 0.959 . S
H552 C566 0.929 . S
H553 C567 0.931 . S
H554 C569 0.930 . S
C555 H543 0.930 . S
C555 C556 1.399 . S
C555 C560 1.399 . S
C556 C555 1.399 . S
C556 C557 1.376 . S
C557 H544 0.930 . S
C557 C556 1.376 . S
C557 C558 1.388 . S
C558 H545 0.930 . S
C558 C557 1.388 . S
C558 C559 1.390 . S
C559 C558 1.390 . S
C559 C560 1.394 . S
C559 C565 1.465 . S
C560 C555 1.399 . S
C560 C559 1.394 . S
C560 C561 1.516 1_545 S
C561 C560 1.516 1_565 S
C561 C562 1.502 . S
C561 C563 1.561 . S
C561 C564 1.526 . S
C562 H546 0.959 . S
C562 H547 0.959 . S
C562 H548 0.961 . S
C562 C561 1.502 . S
C563 H549 0.960 . S
C563 H550 0.961 . S
C563 H551 0.959 . S
C563 C561 1.561 . S
C564 C561 1.526 . S
C564 C565 1.396 1_565 S
C564 C569 1.390 . S
C565 C559 1.465 . S
C565 C564 1.396 1_545 S
C565 C566 1.399 . S
C566 H552 0.929 . S
C566 C565 1.399 . S
C566 C567 1.385 1_545 S
C567 H553 0.931 . S
C567 C566 1.385 1_565 S
C567 C568 1.389 . S
C568 C567 1.389 . S
C568 C569 1.387 . S
C569 H554 0.930 . S
C569 C564 1.390 . S
C569 C568 1.387 . S
H570 C582 0.930 . S
H571 C584 0.930 . S
H572 C585 0.930 . S
H573 C589 0.959 . S
H574 C589 0.959 . S
H575 C589 0.961 1_554 S
H576 C590 0.960 . S
H577 C590 0.961 . S
H578 C590 0.959 . S
H579 C593 0.929 . S
H580 C594 0.931 . S
H581 C596 0.930 . S
C582 H570 0.930 . S
C582 C583 1.399 . S
C582 C587 1.399 . S
C583 C582 1.399 . S
C583 C584 1.376 . S
C584 H571 0.930 . S
C584 C583 1.376 . S
C584 C585 1.388 . S
C585 H572 0.930 . S
C585 C584 1.388 . S
C585 C586 1.390 . S
C586 C585 1.390 . S
C586 C587 1.394 . S
C586 C592 1.465 1_565 S
C587 C582 1.399 . S
C587 C586 1.394 . S
C587 C588 1.516 1_565 S
C588 C587 1.516 1_545 S
C588 C589 1.502 . S
C588 C590 1.561 . S
C588 C591 1.526 . S
C589 H573 0.959 . S
C589 H574 0.959 . S
C589 H575 0.961 1_556 S
C589 C588 1.502 . S
C590 H576 0.960 . S
C590 H577 0.961 . S
C590 H578 0.959 . S
C590 C588 1.561 . S
C591 C588 1.526 . S
C591 C592 1.396 . S
C591 C596 1.390 . S
C592 C586 1.465 1_545 S
C592 C591 1.396 . S
C592 C593 1.399 1_545 S
C593 H579 0.929 . S
C593 C592 1.399 1_565 S
C593 C594 1.385 1_565 S
C594 H580 0.931 . S
C594 C593 1.385 1_545 S
C594 C595 1.389 . S
C595 C594 1.389 . S
C595 C596 1.387 . S
C596 H581 0.930 . S
C596 C591 1.390 . S
C596 C595 1.387 . S
H597 C609 0.930 . S
H598 C611 0.930 . S
H599 C612 0.937 . S
H600 C616 0.959 . S
H601 C616 0.959 . S
H602 C616 0.961 . S
H603 C617 0.960 . S
H604 C617 0.961 . S
H605 C617 0.959 . S
H606 C620 0.929 . S
H607 C621 0.931 . S
H608 C623 0.930 . S
C609 H597 0.930 . S
C609 C610 1.399 . S
C609 C614 1.399 . S
C610 C609 1.399 . S
C610 C611 1.376 . S
C611 H598 0.930 . S
C611 C610 1.376 . S
C611 C612 1.388 . S
C612 H599 0.937 . S
C612 C611 1.388 . S
C612 C613 1.390 . S
C613 C612 1.390 . S
C613 C614 1.394 . S
C613 C619 1.465 1_545 S
C614 C609 1.399 . S
C614 C613 1.394 . S
C614 C615 1.516 . S
C615 C614 1.516 . S
C615 C616 1.502 . S
C615 C617 1.561 . S
C615 C618 1.526 1_545 S
C616 H600 0.959 . S
C616 H601 0.959 . S
C616 H602 0.961 . S
C616 C615 1.502 . S
C617 H603 0.960 . S
C617 H604 0.961 . S
C617 H605 0.959 . S
C617 C615 1.561 . S
C618 C615 1.526 1_565 S
C618 C619 1.396 . S
C618 C623 1.390 . S
C619 C613 1.465 1_565 S
C619 C618 1.396 . S
C619 C620 1.399 . S
C620 H606 0.929 . S
C620 C619 1.399 . S
C620 C621 1.385 . S
C621 H607 0.931 . S
C621 C620 1.385 . S
C621 C622 1.389 . S
C622 C621 1.389 . S
C622 C623 1.387 . S
C623 H608 0.930 . S
C623 C618 1.390 . S
C623 C622 1.387 . S
H624 C636 0.930 . S
H625 C638 0.930 . S
H626 C639 0.930 . S
H627 C643 0.959 . S
H628 C643 0.959 . S
H629 C643 0.961 . S
H630 C644 0.960 . S
H631 C644 0.961 . S
H632 C644 0.959 . S
H633 C647 0.929 . S
H634 C648 0.931 . S
H635 C650 0.930 . S
C636 H624 0.930 . S
C636 C637 1.399 . S
C636 C641 1.399 . S
C637 C636 1.399 . S
C637 C638 1.376 . S
C638 H625 0.930 . S
C638 C637 1.376 . S
C638 C639 1.388 . S
C639 H626 0.930 . S
C639 C638 1.388 . S
C639 C640 1.390 . S
C640 C639 1.390 . S
C640 C641 1.394 . S
C640 C646 1.465 . S
C641 C636 1.399 . S
C641 C640 1.394 . S
C641 C642 1.516 . S
C642 C641 1.516 . S
C642 C643 1.502 . S
C642 C644 1.561 . S
C642 C645 1.526 . S
C643 H627 0.959 . S
C643 H628 0.959 . S
C643 H629 0.961 . S
C643 C642 1.502 . S
C644 H630 0.960 . S
C644 H631 0.961 . S
C644 H632 0.959 . S
C644 C642 1.561 . S
C645 C642 1.526 . S
C645 C646 1.396 . S
C645 C650 1.390 . S
C646 C640 1.465 . S
C646 C645 1.396 . S
C646 C647 1.399 . S
C647 H633 0.929 . S
C647 C646 1.399 . S
C647 C648 1.385 . S
C648 H634 0.931 . S
C648 C647 1.385 . S
C648 C649 1.389 . S
C649 C648 1.389 . S
C649 C650 1.387 . S
C650 H635 0.930 . S
C650 C645 1.390 . S
C650 C649 1.387 . S
H651 C663 0.930 . S
H652 C665 0.930 . S
H653 C666 0.930 . S
H654 C670 0.959 . S
H655 C670 0.959 . S
H656 C670 0.961 . S
H657 C671 0.960 . S
H658 C671 0.961 . S
H659 C671 0.959 . S
H660 C674 0.929 . S
H661 C675 0.931 . S
H662 C677 0.930 . S
C663 H651 0.930 . S
C663 C664 1.399 . S
C663 C668 1.399 . S
C664 C663 1.399 . S
C664 C665 1.376 . S
C665 H652 0.930 . S
C665 C664 1.376 . S
C665 C666 1.388 . S
C666 H653 0.930 . S
C666 C665 1.388 . S
C666 C667 1.390 . S
C667 C666 1.390 . S
C667 C668 1.394 . S
C667 C673 1.465 . S
C668 C663 1.399 . S
C668 C667 1.394 . S
C668 C669 1.516 . S
C669 C668 1.516 . S
C669 C670 1.502 . S
C669 C671 1.561 . S
C669 C672 1.526 . S
C670 H654 0.959 . S
C670 H655 0.959 . S
C670 H656 0.961 . S
C670 C669 1.502 . S
C671 H657 0.960 . S
C671 H658 0.961 . S
C671 H659 0.959 . S
C671 C669 1.561 . S
C672 C669 1.526 . S
C672 C673 1.396 . S
C672 C677 1.390 . S
C673 C667 1.465 . S
C673 C672 1.396 . S
C673 C674 1.399 . S
C674 H660 0.929 . S
C674 C673 1.399 . S
C674 C675 1.385 . S
C675 H661 0.931 . S
C675 C674 1.385 . S
C675 C676 1.389 . S
C676 C675 1.389 . S
C676 C677 1.387 . S
C677 H662 0.930 . S
C677 C672 1.390 . S
C677 C676 1.387 . S
H678 C690 0.930 . S
H679 C692 0.930 . S
H680 C693 0.930 . S
H681 C697 0.959 . S
H682 C697 0.959 . S
H683 C697 0.961 . S
H684 C698 0.960 . S
H685 C698 0.961 . S
H686 C698 0.959 . S
H687 C701 0.929 . S
H688 C702 0.931 . S
H689 C704 0.930 . S
C690 H678 0.930 . S
C690 C691 1.399 . S
C690 C695 1.399 . S
C691 C690 1.399 . S
C691 C692 1.376 . S
C692 H679 0.930 . S
C692 C691 1.376 . S
C692 C693 1.388 . S
C693 H680 0.930 . S
C693 C692 1.388 . S
C693 C694 1.390 . S
C694 C693 1.390 . S
C694 C695 1.394 . S
C694 C700 1.465 . S
C695 C690 1.399 . S
C695 C694 1.394 . S
C695 C696 1.516 . S
C696 C695 1.516 . S
C696 C697 1.502 . S
C696 C698 1.561 . S
C696 C699 1.526 . S
C697 H681 0.959 . S
C697 H682 0.959 . S
C697 H683 0.961 . S
C697 C696 1.502 . S
C698 H684 0.960 . S
C698 H685 0.961 . S
C698 H686 0.959 . S
C698 C696 1.561 . S
C699 C696 1.526 . S
C699 C700 1.396 . S
C699 C704 1.390 . S
C700 C694 1.465 . S
C700 C699 1.396 . S
C700 C701 1.399 . S
C701 H687 0.929 . S
C701 C700 1.399 . S
C701 C702 1.385 . S
C702 H688 0.931 . S
C702 C701 1.385 . S
C702 C703 1.389 . S
C703 C702 1.389 . S
C703 C704 1.387 . S
C704 H689 0.930 . S
C704 C699 1.390 . S
C704 C703 1.387 . S
H705 C717 0.930 . S
H706 C719 0.930 . S
H707 C720 0.930 . S
H708 C724 0.959 . S
H709 C724 0.959 . S
H710 C724 0.961 . S
H711 C725 0.960 . S
H712 C725 0.961 . S
H713 C725 0.959 . S
H714 C728 0.929 . S
H715 C729 0.931 . S
H716 C731 0.930 . S
C717 H705 0.930 . S
C717 C718 1.399 . S
C717 C722 1.399 . S
C718 C717 1.399 . S
C718 C719 1.376 . S
C719 H706 0.930 . S
C719 C718 1.376 . S
C719 C720 1.388 . S
C720 H707 0.930 . S
C720 C719 1.388 . S
C720 C721 1.390 . S
C721 C720 1.390 . S
C721 C722 1.394 . S
C721 C727 1.465 . S
C722 C717 1.399 . S
C722 C721 1.394 . S
C722 C723 1.516 . S
C723 C722 1.516 . S
C723 C724 1.502 . S
C723 C725 1.561 . S
C723 C726 1.526 . S
C724 H708 0.959 . S
C724 H709 0.959 . S
C724 H710 0.961 . S
C724 C723 1.502 . S
C725 H711 0.960 . S
C725 H712 0.961 . S
C725 H713 0.959 . S
C725 C723 1.561 . S
C726 C723 1.526 . S
C726 C727 1.396 . S
C726 C731 1.390 . S
C727 C721 1.465 . S
C727 C726 1.396 . S
C727 C728 1.399 . S
C728 H714 0.929 . S
C728 C727 1.399 . S
C728 C729 1.385 . S
C729 H715 0.931 . S
C729 C728 1.385 . S
C729 C730 1.389 . S
C730 C729 1.389 . S
C730 C731 1.387 . S
C731 H716 0.930 . S
C731 C726 1.390 . S
C731 C730 1.387 . S
H732 C744 0.930 . S
H733 C746 0.930 . S
H734 C747 0.930 . S
H735 C751 0.959 . S
H736 C751 0.959 . S
H737 C751 0.961 . S
H738 C752 0.960 . S
H739 C752 0.961 . S
H740 C752 0.959 . S
H741 C755 0.929 . S
H742 C756 0.931 . S
H743 C758 0.930 . S
C744 H732 0.930 . S
C744 C745 1.399 . S
C744 C749 1.399 . S
C745 C744 1.399 . S
C745 C746 1.376 . S
C746 H733 0.930 . S
C746 C745 1.376 . S
C746 C747 1.388 . S
C747 H734 0.930 . S
C747 C746 1.388 . S
C747 C748 1.390 . S
C748 C747 1.390 . S
C748 C749 1.394 . S
C748 C754 1.465 . S
C749 C744 1.399 . S
C749 C748 1.394 . S
C749 C750 1.516 . S
C750 C749 1.516 . S
C750 C751 1.502 . S
C750 C752 1.561 . S
C750 C753 1.526 . S
C751 H735 0.959 . S
C751 H736 0.959 . S
C751 H737 0.961 . S
C751 C750 1.502 . S
C752 H738 0.960 . S
C752 H739 0.961 . S
C752 H740 0.959 . S
C752 C750 1.561 . S
C753 C750 1.526 . S
C753 C754 1.396 . S
C753 C758 1.390 . S
C754 C748 1.465 . S
C754 C753 1.396 . S
C754 C755 1.399 . S
C755 H741 0.929 . S
C755 C754 1.399 . S
C755 C756 1.385 . S
C756 H742 0.931 . S
C756 C755 1.385 . S
C756 C757 1.389 . S
C757 C756 1.389 . S
C757 C758 1.387 . S
C758 H743 0.930 . S
C758 C753 1.390 . S
C758 C757 1.387 . S
H759 C771 0.930 . S
H760 C773 0.930 . S
H761 C774 0.930 . S
H762 C778 0.959 . S
H763 C778 0.959 . S
H764 C778 0.961 . S
H765 C779 0.960 . S
H766 C779 0.961 . S
H767 C779 0.959 . S
H768 C782 0.929 . S
H769 C783 0.931 . S
H770 C785 0.930 . S
C771 H759 0.930 . S
C771 C772 1.399 . S
C771 C776 1.399 . S
C772 C771 1.399 . S
C772 C773 1.376 . S
C773 H760 0.930 . S
C773 C772 1.376 . S
C773 C774 1.388 . S
C774 H761 0.930 . S
C774 C773 1.388 . S
C774 C775 1.390 . S
C775 C774 1.390 . S
C775 C776 1.394 . S
C775 C781 1.465 . S
C776 C771 1.399 . S
C776 C775 1.394 . S
C776 C777 1.516 . S
C777 C776 1.516 . S
C777 C778 1.502 . S
C777 C779 1.561 . S
C777 C780 1.526 . S
C778 H762 0.959 . S
C778 H763 0.959 . S
C778 H764 0.961 . S
C778 C777 1.502 . S
C779 H765 0.960 . S
C779 H766 0.961 . S
C779 H767 0.959 . S
C779 C777 1.561 . S
C780 C777 1.526 . S
C780 C781 1.396 . S
C780 C785 1.390 . S
C781 C775 1.465 . S
C781 C780 1.396 . S
C781 C782 1.399 . S
C782 H768 0.929 . S
C782 C781 1.399 . S
C782 C783 1.385 . S
C783 H769 0.931 . S
C783 C782 1.385 . S
C783 C784 1.389 . S
C784 C783 1.389 . S
C784 C785 1.387 . S
C785 H770 0.930 . S
C785 C780 1.390 . S
C785 C784 1.387 . S
H786 C798 0.930 . S
H787 C800 0.930 . S
H788 C801 0.930 . S
H789 C805 0.959 . S
H790 C805 0.959 . S
H791 C805 0.961 . S
H792 C806 0.960 . S
H793 C806 0.961 . S
H794 C806 0.959 . S
H795 C809 0.929 . S
H796 C810 0.931 . S
H797 C812 0.930 . S
C798 H786 0.930 . S
C798 C799 1.399 . S
C798 C803 1.399 . S
C799 C798 1.399 . S
C799 C800 1.376 . S
C800 H787 0.930 . S
C800 C799 1.376 . S
C800 C801 1.388 . S
C801 H788 0.930 . S
C801 C800 1.388 . S
C801 C802 1.390 . S
C802 C801 1.390 . S
C802 C803 1.394 . S
C802 C808 1.465 . S
C803 C798 1.399 . S
C803 C802 1.394 . S
C803 C804 1.516 . S
C804 C803 1.516 . S
C804 C805 1.502 . S
C804 C806 1.561 . S
C804 C807 1.526 . S
C805 H789 0.959 . S
C805 H790 0.959 . S
C805 H791 0.961 . S
C805 C804 1.502 . S
C806 H792 0.960 . S
C806 H793 0.961 . S
C806 H794 0.959 . S
C806 C804 1.561 . S
C807 C804 1.526 . S
C807 C808 1.396 . S
C807 C812 1.390 . S
C808 C802 1.465 . S
C808 C807 1.396 . S
C808 C809 1.399 . S
C809 H795 0.929 . S
C809 C808 1.399 . S
C809 C810 1.385 . S
C810 H796 0.931 . S
C810 C809 1.385 . S
C810 C811 1.389 . S
C811 C810 1.389 . S
C811 C812 1.387 . S
C812 H797 0.930 . S
C812 C807 1.390 . S
C812 C811 1.387 . S
H813 C825 0.930 . S
H814 C827 0.930 . S
H815 C828 0.930 . S
H816 C832 0.959 . S
H817 C832 0.959 . S
H818 C832 0.961 . S
H819 C833 0.960 . S
H820 C833 0.961 . S
H821 C833 0.959 . S
H822 C836 0.929 . S
H823 C837 0.931 . S
H824 C839 0.930 . S
C825 H813 0.930 . S
C825 C826 1.399 . S
C825 C830 1.399 . S
C826 C825 1.399 . S
C826 C827 1.376 . S
C827 H814 0.930 . S
C827 C826 1.376 . S
C827 C828 1.388 . S
C828 H815 0.930 . S
C828 C827 1.388 . S
C828 C829 1.390 . S
C829 C828 1.390 . S
C829 C830 1.394 . S
C829 C835 1.465 . S
C830 C825 1.399 . S
C830 C829 1.394 . S
C830 C831 1.516 . S
C831 C830 1.516 . S
C831 C832 1.502 . S
C831 C833 1.561 . S
C831 C834 1.526 . S
C832 H816 0.959 . S
C832 H817 0.959 . S
C832 H818 0.961 . S
C832 C831 1.502 . S
C833 H819 0.960 . S
C833 H820 0.961 . S
C833 H821 0.959 . S
C833 C831 1.561 . S
C834 C831 1.526 . S
C834 C835 1.396 . S
C834 C839 1.390 . S
C835 C829 1.465 . S
C835 C834 1.396 . S
C835 C836 1.399 . S
C836 H822 0.929 . S
C836 C835 1.399 . S
C836 C837 1.385 . S
C837 H823 0.931 . S
C837 C836 1.385 . S
C837 C838 1.389 . S
C838 C837 1.389 . S
C838 C839 1.387 . S
C839 H824 0.930 . S
C839 C834 1.390 . S
C839 C838 1.387 . S
C205 C4 1.537 . S
C217 C147 1.606 . S
C244 C111 1.447 . S
C232 C17 1.437 . S
C271 C134 1.474 . S
C259 C30 1.406 . S
C298 C122 1.600 . S
C286 C43 1.545 . S
C325 C191 1.602 . S
C313 C56 1.548 . S
C352 C155 1.491 . S
C340 C69 1.467 . S
C367 C82 1.432 . S
C379 C178 1.458 . S
C406 C166 1.593 . S
C394 C95 1.586 . S
C421 C9 1.507 . S
C433 C188 1.562 . S
C460 C158 1.443 . S
C448 C21 1.427 . S
C475 C34 1.474 . S
C487 C177 1.476 . S
C502 C48 1.552 . S
C514 C163 1.588 . S
C541 C144 1.571 . S
C529 C61 1.551 . S
C556 C73 1.416 . S
C568 C114 1.438 . S
C595 C133 1.463 . S
C583 C86 1.457 . S
C622 C119 1.578 . S
C610 C100 1.539 . S
C649 C169 1.510 . S
C637 C8 1.503 . S
C676 C185 1.537 . S
C664 C22 1.535 . S
C691 C35 1.483 . S
C703 C156 1.503 . S
C730 C180 1.498 . S
C718 C47 1.499 . S
C757 C125 1.511 . S
C745 C60 1.503 . S
C772 C74 1.482 . S
C784 C141 1.511 . S
C799 C87 1.484 . S
C811 C112 1.503 . S
C826 C99 1.503 . S
C838 C136 1.501 . S
