# Generated by pormake.
# Topology dag, (6,3)-cn, num edge types: 1
# Building blocks:
#     Node 0, Type 0, BuildingBlock: IZENUY_clean_sbu_0, # of connection points: 6
#     Node 1, Type 0, BuildingBlock: IZENUY_clean_sbu_0, # of connection points: 6
#     Node 2, Type 0, BuildingBlock: IZENUY_clean_sbu_0, # of connection points: 6
#     Node 3, Type 0, BuildingBlock: IZENUY_clean_sbu_0, # of connection points: 6
#     Node 4, Type 1, BuildingBlock: BETDIP_clean_linker_0, # of connection points: 3
#     Node 5, Type 1, BuildingBlock: BETDIP_clean_linker_0, # of connection points: 3
#     Node 6, Type 1, BuildingBlock: BETDIP_clean_linker_0, # of connection points: 3
#     Node 7, Type 1, BuildingBlock: BETDIP_clean_linker_0, # of connection points: 3
#     Node 8, Type 1, BuildingBlock: BETDIP_clean_linker_0, # of connection points: 3
#     Node 9, Type 1, BuildingBlock: BETDIP_clean_linker_0, # of connection points: 3
#     Node 10, Type 1, BuildingBlock: BETDIP_clean_linker_0, # of connection points: 3
#     Node 11, Type 1, BuildingBlock: BETDIP_clean_linker_0, # of connection points: 3
#     Edge 12, Type (0, 1), BuildingBlock: OJICUG_clean_linker_0, # of connection points: 2
#     Edge 13, Type (0, 1), BuildingBlock: OJICUG_clean_linker_0, # of connection points: 2
#     Edge 14, Type (0, 1), BuildingBlock: OJICUG_clean_linker_0, # of connection points: 2
#     Edge 15, Type (0, 1), BuildingBlock: OJICUG_clean_linker_0, # of connection points: 2
#     Edge 16, Type (0, 1), BuildingBlock: OJICUG_clean_linker_0, # of connection points: 2
#     Edge 17, Type (0, 1), BuildingBlock: OJICUG_clean_linker_0, # of connection points: 2
#     Edge 18, Type (0, 1), BuildingBlock: OJICUG_clean_linker_0, # of connection points: 2
#     Edge 19, Type (0, 1), BuildingBlock: OJICUG_clean_linker_0, # of connection points: 2
#     Edge 20, Type (0, 1), BuildingBlock: OJICUG_clean_linker_0, # of connection points: 2
#     Edge 21, Type (0, 1), BuildingBlock: OJICUG_clean_linker_0, # of connection points: 2
#     Edge 22, Type (0, 1), BuildingBlock: OJICUG_clean_linker_0, # of connection points: 2
#     Edge 23, Type (0, 1), BuildingBlock: OJICUG_clean_linker_0, # of connection points: 2
#     Edge 24, Type (0, 1), BuildingBlock: OJICUG_clean_linker_0, # of connection points: 2
#     Edge 25, Type (0, 1), BuildingBlock: OJICUG_clean_linker_0, # of connection points: 2
#     Edge 26, Type (0, 1), BuildingBlock: OJICUG_clean_linker_0, # of connection points: 2
#     Edge 27, Type (0, 1), BuildingBlock: OJICUG_clean_linker_0, # of connection points: 2
#     Edge 28, Type (0, 1), BuildingBlock: OJICUG_clean_linker_0, # of connection points: 2
#     Edge 29, Type (0, 1), BuildingBlock: OJICUG_clean_linker_0, # of connection points: 2
#     Edge 30, Type (0, 1), BuildingBlock: OJICUG_clean_linker_0, # of connection points: 2
#     Edge 31, Type (0, 1), BuildingBlock: OJICUG_clean_linker_0, # of connection points: 2
#     Edge 32, Type (0, 1), BuildingBlock: OJICUG_clean_linker_0, # of connection points: 2
#     Edge 33, Type (0, 1), BuildingBlock: OJICUG_clean_linker_0, # of connection points: 2
#     Edge 34, Type (0, 1), BuildingBlock: OJICUG_clean_linker_0, # of connection points: 2
#     Edge 35, Type (0, 1), BuildingBlock: OJICUG_clean_linker_0, # of connection points: 2
# Relax obj value: 0.088
# Max RMSD: 0.108
# Mean RMSD: 0.091
data_MOF--net-dag--node1-IZENUY_clean_sbu_0--node2-BETDIP_clean_linker_0--edge1-OJICUG_clean_linker_0
_symmetry_space_group_name_H-M    P1
_symmetry_Int_Tables_number       1
_symmetry_cell_setting            triclinic
loop_
_symmetry_equiv_pos_as_xyz
'x, y, z'
_cell_length_a     29.714877
_cell_length_b     29.108497
_cell_length_c     26.351613
_cell_angle_alpha  86.406041
_cell_angle_beta   89.804239
_cell_angle_gamma 89.916159
loop_
_atom_site_label
_atom_site_type_symbol
_atom_site_fract_x
_atom_site_fract_y
_atom_site_fract_z
_atom_type_partial_charge
Fe0 Fe 0.20027 0.87296 0.99738 0.0
Fe1 Fe 0.10083 0.89448 0.014 0.0
O2 O 0.14361 0.85396 0.00401 0.0
Fe3 Fe 0.12981 0.79478 0.00075 0.0
O4 O 0.18271 0.77414 0.03008 0.0
O5 O 0.21715 0.8367 0.05255 0.0
O6 O 0.19453 0.92063 0.03977 0.0
C7 C 0.1662 0.92707 0.07464 0.0
C8 C 0.19331 0.8055 0.92487 0.0
O9 O 0.12696 0.91086 0.0723 0.0
C10 C 0.05803 0.84105 0.94754 0.0
O11 O 0.18688 0.91038 0.94144 0.0
O12 O 0.12782 0.9415 0.97626 0.0
O13 O 0.15357 0.79351 0.93686 0.0
O14 O 0.21648 0.82915 0.95385 0.0
C15 C 0.07483 0.81832 0.07886 0.0
O16 O 0.07219 0.88054 0.95649 0.0
O17 O 0.07415 0.80536 0.97099 0.0
C18 C 0.1564 0.94058 0.9408 0.0
O19 O 0.06559 0.85519 0.05332 0.0
O20 O 0.10516 0.79152 0.06461 0.0
C21 C 0.21106 0.79371 0.05744 0.0
Fe22 Fe 0.70246 0.61798 0.55785 0.0
Fe23 Fe 0.63658 0.69888 0.53485 0.0
O24 O 0.648 0.63885 0.54097 0.0
Fe25 Fe 0.60479 0.59951 0.52992 0.0
O26 O 0.60865 0.57457 0.59414 0.0
O27 O 0.68209 0.56566 0.59396 0.0
O28 O 0.70048 0.64617 0.61675 0.0
C29 C 0.6949 0.6887 0.62052 0.0
C30 C 0.68068 0.55913 0.48556 0.0
O31 O 0.67692 0.71349 0.58466 0.0
C32 C 0.58788 0.66358 0.45303 0.0
O33 O 0.73217 0.66642 0.52471 0.0
O34 O 0.67871 0.7068 0.48509 0.0
O35 O 0.64187 0.5558 0.50518 0.0
O36 O 0.70859 0.58801 0.49985 0.0
C37 C 0.55981 0.66774 0.58266 0.0
O38 O 0.59414 0.69484 0.48383 0.0
O39 O 0.59877 0.62255 0.46516 0.0
C40 C 0.71926 0.69388 0.48841 0.0
O41 O 0.59318 0.69445 0.58423 0.0
O42 O 0.55929 0.63554 0.55263 0.0
C43 C 0.64381 0.55708 0.61373 0.0
Fe44 Fe 0.86342 0.20733 0.03593 0.0
Fe45 Fe 0.8883 0.10632 0.02919 0.0
O46 O 0.84765 0.14841 0.04048 0.0
Fe47 Fe 0.79175 0.13111 0.0563 0.0
O48 O 0.76989 0.16429 0.00156 0.0
O49 O 0.80879 0.22751 0.01144 0.0
O50 O 0.88144 0.2052 0.96999 0.0
C51 C 0.90984 0.17663 0.95561 0.0
C52 C 0.80909 0.20405 0.12028 0.0
O53 O 0.92142 0.14254 0.98444 0.0
C54 C 0.83931 0.06495 0.11067 0.0
O55 O 0.92092 0.19692 0.06013 0.0
O56 O 0.92094 0.12285 0.08259 0.0
O57 O 0.7817 0.17825 0.09856 0.0
O58 O 0.84693 0.21384 0.10093 0.0
C59 C 0.81731 0.07304 0.97844 0.0
O60 O 0.86345 0.0616 0.0717 0.0
O61 O 0.81004 0.09621 0.11243 0.0
C62 C 0.93571 0.16288 0.08754 0.0
O63 O 0.857 0.08825 0.97547 0.0
O64 O 0.79243 0.08098 0.01627 0.0
C65 C 0.77795 0.20611 0.98977 0.0
Fe66 Fe 0.3866 0.39537 0.51573 0.0
Fe67 Fe 0.29045 0.36886 0.48953 0.0
O68 O 0.34669 0.35269 0.50494 0.0
Fe69 Fe 0.36299 0.29392 0.50986 0.0
O70 O 0.37981 0.2964 0.57575 0.0
O71 O 0.41862 0.36021 0.56282 0.0
O72 O 0.3542 0.41492 0.56818 0.0
C73 C 0.31501 0.43104 0.56385 0.0
C74 C 0.43706 0.33824 0.46051 0.0
O75 O 0.29027 0.42088 0.52695 0.0
C76 C 0.30867 0.29484 0.42687 0.0
O77 O 0.36197 0.43845 0.47052 0.0
O78 O 0.30812 0.40218 0.43218 0.0
O79 O 0.42094 0.30419 0.48681 0.0
O80 O 0.42107 0.37801 0.46388 0.0
C81 C 0.27853 0.2951 0.55773 0.0
O82 O 0.28088 0.32004 0.44926 0.0
O83 O 0.34741 0.28727 0.4447 0.0
C84 C 0.33711 0.43377 0.43237 0.0
O85 O 0.26983 0.33687 0.54605 0.0
O86 O 0.30813 0.27369 0.5338 0.0
C87 C 0.40712 0.32544 0.59095 0.0
H88 H 0.12415 0.21086 0.2112 0.0
H89 H 0.22699 0.10541 0.21543 0.0
H90 H 0.09663 0.07941 0.15382 0.0
H91 H 0.26861 0.15592 0.255 0.0
C92 C 0.24836 0.18508 0.26495 0.0
C93 C 0.13523 0.17649 0.20338 0.0
C94 C 0.10546 0.14645 0.18167 0.0
C95 C 0.17881 0.16205 0.21684 0.0
C96 C 0.19333 0.11723 0.20626 0.0
C97 C 0.1633 0.08712 0.18388 0.0
C98 C 0.1196 0.10209 0.17216 0.0
N99 N 0.20539 0.19332 0.24302 0.0
H100 H 0.25977 0.61683 0.69378 0.0
H101 H 0.36862 0.71406 0.70621 0.0
H102 H 0.3882 0.5921 0.62573 0.0
H103 H 0.31728 0.75879 0.73761 0.0
C104 C 0.28941 0.73815 0.75281 0.0
C105 C 0.29383 0.62798 0.68483 0.0
C106 C 0.32208 0.60014 0.65717 0.0
C107 C 0.30981 0.66943 0.70272 0.0
C108 C 0.3548 0.68312 0.69187 0.0
C109 C 0.38322 0.65513 0.66417 0.0
C110 C 0.36639 0.61398 0.64693 0.0
N111 N 0.28056 0.69425 0.73422 0.0
H112 H 0.91557 0.77012 0.25942 0.0
H113 H 0.82089 0.88191 0.26652 0.0
H114 H 0.94073 0.89892 0.17565 0.0
H115 H 0.88257 0.74832 0.33773 0.0
C116 C 0.84807 0.76066 0.33588 0.0
C117 C 0.90578 0.80531 0.24919 0.0
C118 C 0.93332 0.83292 0.21623 0.0
C119 C 0.86531 0.82355 0.26789 0.0
C120 C 0.85222 0.86844 0.25233 0.0
C121 C 0.87951 0.8963 0.21992 0.0
C122 C 0.92004 0.87823 0.20224 0.0
N123 N 0.83599 0.7981 0.30158 0.0
H124 H 0.55624 0.2725 0.7764 0.0
H125 H 0.65785 0.37829 0.78013 0.0
H126 H 0.53735 0.40365 0.69494 0.0
H127 H 0.703 0.31891 0.79565 0.0
C128 C 0.68353 0.29583 0.82112 0.0
C129 C 0.56794 0.30702 0.76575 0.0
C130 C 0.54103 0.33708 0.73519 0.0
C131 C 0.61038 0.32128 0.78197 0.0
C132 C 0.62575 0.36603 0.76734 0.0
C133 C 0.59934 0.39583 0.73625 0.0
C134 C 0.55702 0.38126 0.72081 0.0
N135 N 0.63661 0.29034 0.81346 0.0
H136 H 0.62811 0.28163 0.34786 0.0
H137 H 0.73996 0.37653 0.34918 0.0
H138 H 0.61288 0.41197 0.41337 0.0
H139 H 0.77846 0.32242 0.31262 0.0
C140 C 0.75542 0.29784 0.29759 0.0
C141 C 0.6424 0.31395 0.35831 0.0
C142 C 0.61535 0.34574 0.38177 0.0
C143 C 0.68727 0.32454 0.34578 0.0
C144 C 0.70564 0.36715 0.35862 0.0
C145 C 0.67849 0.39873 0.38283 0.0
C146 C 0.63371 0.38764 0.39426 0.0
N147 N 0.71105 0.2927 0.31705 0.0
H148 H 0.06769 0.22573 0.78077 0.0
H149 H 0.17149 0.12177 0.77966 0.0
H150 H 0.04983 0.09495 0.86337 0.0
H151 H 0.21522 0.17972 0.75618 0.0
C152 C 0.19454 0.20342 0.73293 0.0
C153 C 0.08006 0.19165 0.79239 0.0
C154 C 0.05322 0.1615 0.8229 0.0
C155 C 0.12292 0.17798 0.77671 0.0
C156 C 0.13906 0.13366 0.79212 0.0
C157 C 0.1127 0.10354 0.82313 0.0
C158 C 0.06978 0.11761 0.838 0.0
N159 N 0.14819 0.20896 0.74412 0.0
H160 H 0.43154 0.7157 0.27172 0.0
H161 H 0.32731 0.61286 0.26659 0.0
H162 H 0.4437 0.58666 0.35939 0.0
H163 H 0.32412 0.64205 0.18466 0.0
C164 C 0.32526 0.67883 0.18947 0.0
C165 C 0.41829 0.68202 0.28347 0.0
C166 C 0.44263 0.65261 0.31761 0.0
C167 C 0.3775 0.66721 0.26309 0.0
C168 C 0.35976 0.6239 0.27981 0.0
C169 C 0.38386 0.59452 0.31388 0.0
C170 C 0.42537 0.60895 0.3321 0.0
N171 N 0.3548 0.69624 0.22601 0.0
H172 H 0.75836 0.8961 0.83602 0.0
H173 H 0.86642 0.79782 0.82326 0.0
H174 H 0.8869 0.92008 0.90305 0.0
H175 H 0.807 0.74929 0.81037 0.0
C176 C 0.78476 0.77101 0.78663 0.0
C177 C 0.79247 0.88491 0.8445 0.0
C178 C 0.82084 0.9125 0.87185 0.0
C179 C 0.80827 0.84319 0.82712 0.0
C180 C 0.85309 0.82911 0.83761 0.0
C181 C 0.88169 0.85716 0.8646 0.0
C182 C 0.86509 0.89847 0.88174 0.0
N183 N 0.7792 0.81807 0.79636 0.0
C184 C 0.14743 0.96438 0.15488 0.0
C185 C 0.17519 0.96197 0.11189 0.0
H186 H 0.12357 0.00603 0.21341 0.0
C187 C 0.20721 0.99695 0.10134 0.0
H188 H 0.12295 0.93767 0.1645 0.0
C189 C 0.20752 0.03623 0.12951 0.0
C190 C 0.17613 0.04075 0.16879 0.0
H191 H 0.22927 0.99595 0.06862 0.0
H192 H 0.22911 0.06482 0.11734 0.0
C193 C 0.1481 0.00329 0.18322 0.0
C194 C 0.50759 0.63675 0.64902 0.0
C195 C 0.5195 0.67326 0.61447 0.0
H196 H 0.45517 0.6032 0.69303 0.0
C197 C 0.48801 0.70841 0.60288 0.0
H198 H 0.53109 0.60907 0.65788 0.0
C199 C 0.44405 0.70501 0.62284 0.0
C200 C 0.43132 0.66631 0.65426 0.0
H201 H 0.49621 0.7364 0.57538 0.0
H202 H 0.41921 0.73057 0.61054 0.0
C203 C 0.46411 0.63338 0.66893 0.0
C204 C 0.81063 0.99513 0.15987 0.0
C205 C 0.84417 0.02855 0.15123 0.0
H206 H 0.79572 0.92617 0.18834 0.0
C207 C 0.88713 0.02072 0.1718 0.0
H208 H 0.77757 0.00015 0.14319 0.0
C209 C 0.89754 0.97891 0.19763 0.0
C210 C 0.86539 0.94361 0.20242 0.0
H211 H 0.91364 0.04576 0.16472 0.0
H212 H 0.93158 0.97327 0.21127 0.0
C213 C 0.82119 0.95278 0.18537 0.0
C214 C 0.46509 0.28325 0.643 0.0
C215 C 0.43118 0.31683 0.63891 0.0
H216 H 0.52738 0.26298 0.67879 0.0
C217 C 0.42802 0.34966 0.67538 0.0
H218 H 0.46825 0.25805 0.61463 0.0
C219 C 0.46118 0.35208 0.71232 0.0
C220 C 0.49848 0.32236 0.71239 0.0
H221 H 0.40215 0.37598 0.67249 0.0
H222 H 0.46024 0.38029 0.73727 0.0
C223 C 0.49875 0.28601 0.67974 0.0
C224 C 0.67162 0.52339 0.4039 0.0
C225 C 0.69412 0.5245 0.45041 0.0
H226 H 0.65116 0.48194 0.3439 0.0
C227 C 0.72089 0.48693 0.46754 0.0
H228 H 0.65042 0.55192 0.39046 0.0
C229 C 0.7211 0.44666 0.44104 0.0
C230 C 0.69468 0.44396 0.39725 0.0
H231 H 0.73786 0.48702 0.50386 0.0
H232 H 0.73784 0.41626 0.45767 0.0
C233 C 0.67227 0.48353 0.3772 0.0
C234 C 0.93596 0.15045 0.874 0.0
C235 C 0.93578 0.18502 0.90869 0.0
H236 H 0.97361 0.11665 0.81792 0.0
C237 C 0.96991 0.21833 0.9063 0.0
H238 H 0.91018 0.12411 0.87582 0.0
C239 C 0.00661 0.21381 0.87346 0.0
C240 C 0.0093 0.17583 0.84315 0.0
H241 H 0.97075 0.24466 0.93358 0.0
H242 H 0.03485 0.23707 0.87575 0.0
C243 C 0.97236 0.146 0.84124 0.0
C244 C 0.38132 0.47025 0.36203 0.0
C245 C 0.34116 0.46853 0.39001 0.0
H246 H 0.42601 0.51173 0.31479 0.0
C247 C 0.31139 0.50601 0.38595 0.0
H248 H 0.4048 0.44178 0.36519 0.0
C249 C 0.32351 0.54626 0.35721 0.0
C250 C 0.36569 0.54934 0.33289 0.0
H251 H 0.28069 0.50558 0.40828 0.0
H252 H 0.30168 0.57607 0.3575 0.0
C253 C 0.39349 0.51028 0.33356 0.0
C254 C 0.98476 0.80299 0.92714 0.0
C255 C 0.01655 0.83821 0.91682 0.0
H256 H 0.91622 0.78121 0.91794 0.0
C257 C 0.00556 0.87467 0.88162 0.0
H258 H 0.99224 0.77446 0.95419 0.0
C259 C 0.96258 0.87824 0.86081 0.0
C260 C 0.92946 0.84551 0.87483 0.0
H261 H 0.02936 0.90195 0.87231 0.0
H262 H 0.95425 0.90836 0.83635 0.0
C263 C 0.94135 0.80671 0.90633 0.0
C264 C 0.78029 -0.00172 0.96179 0.0
C265 C 0.80533 0.037 0.94399 0.0
H266 H 0.76528 0.92726 0.95158 0.0
C267 C 0.82638 0.03695 0.89618 0.0
H268 H 0.76393 0.99737 0.99864 0.0
C269 C 0.82689 0.99719 0.86942 0.0
C270 C 0.80619 0.95695 0.88993 0.0
H271 H 0.84552 0.06651 0.88139 0.0
H272 H 0.84678 0.99666 0.83491 0.0
C273 C 0.78093 0.95826 0.93491 0.0
C274 C 0.51004 0.29785 0.445 0.0
C275 C 0.47962 0.33381 0.43237 0.0
H276 H 0.57795 0.27339 0.43822 0.0
C277 C 0.4923 0.36895 0.39627 0.0
H278 H 0.50104 0.27024 0.47262 0.0
C279 C 0.53573 0.37047 0.37658 0.0
C280 C 0.56739 0.33698 0.39273 0.0
H281 H 0.46943 0.39669 0.3852 0.0
H282 H 0.54541 0.39939 0.35098 0.0
C283 C 0.55388 0.2995 0.42528 0.0
C284 C 0.11383 0.97899 0.87059 0.0
C285 C 0.1532 0.97671 0.89969 0.0
H286 H 0.07054 0.02089 0.82233 0.0
C287 C 0.18303 0.01407 0.89701 0.0
H288 H 0.0904 0.95057 0.87256 0.0
C289 C 0.17161 0.05467 0.86847 0.0
C290 C 0.13014 0.05818 0.84282 0.0
H291 H 0.21318 0.0132 0.92007 0.0
H292 H 0.19345 0.08435 0.86972 0.0
C293 C 0.10242 0.01926 0.84223 0.0
C294 C 0.55914 0.64029 0.36997 0.0
C295 C 0.55784 0.67137 0.40867 0.0
H296 H 0.52342 0.61085 0.30959 0.0
C297 C 0.52244 0.7035 0.4092 0.0
H298 H 0.58621 0.61544 0.36828 0.0
C299 C 0.48639 0.70087 0.37526 0.0
C300 C 0.48559 0.66628 0.34043 0.0
H301 H 0.52049 0.72774 0.4387 0.0
H302 H 0.45741 0.72296 0.37941 0.0
C303 C 0.52334 0.63775 0.33623 0.0
C304 C 0.28121 0.50916 0.57295 0.0
C305 C 0.30414 0.47043 0.59455 0.0
H306 H 0.26879 0.58172 0.57667 0.0
C307 C 0.3249 0.47328 0.64211 0.0
H308 H 0.26535 0.50807 0.53609 0.0
C309 C 0.32673 0.5151 0.66509 0.0
C310 C 0.30767 0.55479 0.64111 0.0
H311 H 0.34271 0.44396 0.6597 0.0
H312 H 0.34604 0.51725 0.69968 0.0
C313 C 0.28319 0.55126 0.59605 0.0
C314 C 0.00815 0.78007 0.12033 0.0
C315 C 0.04693 0.80715 0.12417 0.0
H316 H 0.94115 0.76627 0.14832 0.0
C317 C 0.05121 0.83493 0.1655 0.0
H318 H 0.00365 0.75945 0.0879 0.0
C319 C 0.01561 0.83903 0.19969 0.0
C320 C 0.97502 0.81551 0.19304 0.0
H321 H 0.08037 0.8569 0.1685 0.0
H322 H 0.0182 0.86389 0.22848 0.0
C323 C 0.9724 0.78408 0.15478 0.0
C324 C 0.59921 0.51874 0.68414 0.0
C325 C 0.63837 0.5201 0.65413 0.0
H326 H 0.55671 0.47839 0.73503 0.0
C327 C 0.66884 0.48314 0.65892 0.0
H328 H 0.57565 0.54708 0.68206 0.0
C329 C 0.65794 0.44358 0.68943 0.0
C330 C 0.6166 0.44078 0.71554 0.0
H331 H 0.69936 0.48335 0.63632 0.0
H332 H 0.68015 0.41404 0.68947 0.0
C333 C 0.58845 0.47951 0.7146 0.0
C334 C 0.01027 0.19844 0.1045 0.0
C335 C 0.97563 0.16765 0.11942 0.0
H336 H 0.07985 0.21591 0.11366 0.0
C337 C 0.98179 0.1367 0.16179 0.0
H338 H 0.00614 0.22272 0.07197 0.0
C339 C 0.02343 0.13303 0.18551 0.0
C340 C 0.05948 0.16036 0.16726 0.0
H341 H 0.95514 0.11351 0.17476 0.0
H342 H 0.02841 0.10657 0.21578 0.0
C343 C 0.05223 0.1947 0.12835 0.0
C344 C 0.27059 0.78506 0.12512 0.0
C345 C 0.24035 0.76497 0.09199 0.0
H346 H 0.32133 0.77372 0.18232 0.0
C347 C 0.2385 0.71673 0.09174 0.0
H348 H 0.27277 0.82212 0.12634 0.0
C349 C 0.26636 0.68925 0.12346 0.0
C350 C 0.2965 0.70924 0.15641 0.0
H351 H 0.2157 0.70001 0.06675 0.0
H352 H 0.26425 0.65217 0.12227 0.0
C353 C 0.29838 0.7574 0.15719 0.0
C354 C 0.73997 0.6829 0.70079 0.0
C355 C 0.71515 0.7101 0.66468 0.0
H356 H 0.78143 0.68119 0.76722 0.0
C357 C 0.71184 0.75771 0.67027 0.0
H358 H 0.74325 0.6461 0.69789 0.0
C359 C 0.73366 0.77771 0.71044 0.0
C360 C 0.75934 0.75046 0.74557 0.0
H361 H 0.69298 0.77963 0.64324 0.0
H362 H 0.73107 0.81457 0.71332 0.0
C363 C 0.76194 0.70292 0.74058 0.0
C364 C 0.82561 0.25597 0.19018 0.0
C365 C 0.79562 0.22629 0.16702 0.0
H366 H 0.83615 0.30163 0.24975 0.0
C367 C 0.75279 0.21875 0.18864 0.0
H368 H 0.85901 0.26238 0.17478 0.0
C369 C 0.7399 0.24119 0.23175 0.0
C370 C 0.76961 0.27159 0.25407 0.0
H371 H 0.729 0.19596 0.17196 0.0
H372 H 0.7064 0.23513 0.24702 0.0
C373 C 0.81267 0.2784 0.23321 0.0
C374 C 0.21416 0.28722 0.61933 0.0
C375 C 0.25515 0.27081 0.60083 0.0
H376 H 0.16224 0.27838 0.67576 0.0
C377 C 0.27555 0.23222 0.62594 0.0
H378 H 0.19786 0.31704 0.6008 0.0
C379 C 0.25577 0.21087 0.66919 0.0
C380 C 0.21485 0.22711 0.68757 0.0
H381 H 0.30746 0.21915 0.61296 0.0
H382 H 0.27241 0.18146 0.68818 0.0
C383 C 0.19386 0.26519 0.66216 0.0
C384 C 0.79736 0.69601 0.45142 0.0
C385 C 0.75249 0.71169 0.44997 0.0
H386 H 0.8626 0.69908 0.41606 0.0
C387 C 0.73926 0.74317 0.41018 0.0
H388 H 0.80865 0.67149 0.48131 0.0
C389 C 0.77012 0.75874 0.37291 0.0
C390 C 0.81494 0.74312 0.37447 0.0
H391 H 0.70496 0.75574 0.40762 0.0
H392 H 0.75868 0.78303 0.34288 0.0
C393 C 0.82824 0.71155 0.41397 0.0
C394 C 0.70979 0.21384 0.93427 0.0
C395 C 0.75195 0.23035 0.94882 0.0
H396 H 0.65448 0.22199 0.88244 0.0
C397 C 0.77073 0.26871 0.92157 0.0
H398 H 0.69463 0.18422 0.95456 0.0
C399 C 0.74829 0.28956 0.87988 0.0
C400 C 0.70631 0.27305 0.8653 0.0
H401 H 0.80341 0.28186 0.93154 0.0
H402 H 0.76376 0.31871 0.85901 0.0
C403 C 0.68688 0.23536 0.89307 0.0
C404 C 0.3222 0.23496 0.36409 0.0
C405 C 0.29407 0.26893 0.38319 0.0
H406 H 0.32947 0.18181 0.31182 0.0
C407 C 0.25149 0.27654 0.36129 0.0
H408 H 0.3553 0.2282 0.37995 0.0
C409 C 0.23696 0.2501 0.32203 0.0
C410 C 0.26465 0.21531 0.30404 0.0
H411 H 0.2291 0.30251 0.37489 0.0
H412 H 0.20365 0.25644 0.30657 0.0
C413 C 0.30752 0.20833 0.32507 0.0
C414 C 0.25408 0.81167 0.85911 0.0
C415 C 0.21537 0.78903 0.87873 0.0
H416 H 0.30712 0.81343 0.80382 0.0
C417 C 0.19972 0.75017 0.85502 0.0
H418 H 0.26687 0.84196 0.87611 0.0
C419 C 0.22328 0.73351 0.81365 0.0
C420 C 0.26248 0.75587 0.79489 0.0
H421 H 0.17004 0.73196 0.86921 0.0
H422 H 0.21101 0.70299 0.79674 0.0
C423 C 0.27715 0.79545 0.81759 0.0
loop_
_geom_bond_atom_site_label_1
_geom_bond_atom_site_label_2
_geom_bond_distance
_geom_bond_site_symmetry_2
_ccdc_geom_bond_type
Fe0 O2 1.918 . S
Fe0 O5 1.997 1_556 S
Fe0 O6 2.002 1_556 S
Fe0 O11 1.976 . S
Fe0 O14 1.996 . S
Fe1 O2 1.918 1_554 S
Fe1 O9 1.997 . S
Fe1 O12 1.996 1_554 S
Fe1 O16 1.976 1_554 S
Fe1 O19 2.002 . S
O2 Fe0 1.918 . S
O2 Fe1 1.918 1_556 S
O2 Fe3 1.918 1_556 S
Fe3 O2 1.918 1_554 S
Fe3 O4 2.002 . S
Fe3 O13 1.976 1_554 S
Fe3 O17 1.996 1_554 S
Fe3 O20 1.997 . S
O4 Fe3 2.002 . S
O4 C21 1.295 . S
O5 Fe0 1.997 1_554 S
O5 C21 1.235 . S
O6 Fe0 2.002 1_554 S
O6 C7 1.295 . S
C7 O6 1.295 . S
C7 O9 1.235 . S
C8 O13 1.287 . S
C8 O14 1.255 . S
O9 Fe1 1.997 . S
O9 C7 1.235 . S
C10 O16 1.287 . S
C10 O17 1.255 . S
O11 Fe0 1.976 . S
O11 C18 1.287 . S
O12 Fe1 1.996 1_556 S
O12 C18 1.255 . S
O13 Fe3 1.976 1_556 S
O13 C8 1.287 . S
O14 Fe0 1.996 . S
O14 C8 1.255 . S
C15 O19 1.295 . S
C15 O20 1.235 . S
O16 Fe1 1.976 1_556 S
O16 C10 1.287 . S
O17 Fe3 1.996 1_556 S
O17 C10 1.255 . S
C18 O11 1.287 . S
C18 O12 1.255 . S
O19 Fe1 2.002 . S
O19 C15 1.295 . S
O20 Fe3 1.997 . S
O20 C15 1.235 . S
C21 O4 1.295 . S
C21 O5 1.235 . S
Fe22 O24 1.918 . S
Fe22 O27 1.997 . S
Fe22 O28 2.002 . S
Fe22 O33 1.976 . S
Fe22 O36 1.996 . S
Fe23 O24 1.918 . S
Fe23 O31 1.997 . S
Fe23 O34 1.996 . S
Fe23 O38 1.976 . S
Fe23 O41 2.002 . S
O24 Fe22 1.918 . S
O24 Fe23 1.918 . S
O24 Fe25 1.918 . S
Fe25 O24 1.918 . S
Fe25 O26 2.002 . S
Fe25 O35 1.976 . S
Fe25 O39 1.996 . S
Fe25 O42 1.997 . S
O26 Fe25 2.002 . S
O26 C43 1.295 . S
O27 Fe22 1.997 . S
O27 C43 1.235 . S
O28 Fe22 2.002 . S
O28 C29 1.295 . S
C29 O28 1.295 . S
C29 O31 1.235 . S
C30 O35 1.287 . S
C30 O36 1.255 . S
O31 Fe23 1.997 . S
O31 C29 1.235 . S
C32 O38 1.287 . S
C32 O39 1.255 . S
O33 Fe22 1.976 . S
O33 C40 1.287 . S
O34 Fe23 1.996 . S
O34 C40 1.255 . S
O35 Fe25 1.976 . S
O35 C30 1.287 . S
O36 Fe22 1.996 . S
O36 C30 1.255 . S
C37 O41 1.295 . S
C37 O42 1.235 . S
O38 Fe23 1.976 . S
O38 C32 1.287 . S
O39 Fe25 1.996 . S
O39 C32 1.255 . S
C40 O33 1.287 . S
C40 O34 1.255 . S
O41 Fe23 2.002 . S
O41 C37 1.295 . S
O42 Fe25 1.997 . S
O42 C37 1.235 . S
C43 O26 1.295 . S
C43 O27 1.235 . S
Fe44 O46 1.918 . S
Fe44 O49 1.997 1_554 S
Fe44 O50 2.002 1_554 S
Fe44 O55 1.976 . S
Fe44 O58 1.996 . S
Fe45 O46 1.918 . S
Fe45 O53 1.997 1_554 S
Fe45 O56 1.996 . S
Fe45 O60 1.976 . S
Fe45 O63 2.002 1_554 S
O46 Fe44 1.918 . S
O46 Fe45 1.918 . S
O46 Fe47 1.918 . S
Fe47 O46 1.918 . S
Fe47 O48 2.002 . S
Fe47 O57 1.976 . S
Fe47 O61 1.996 . S
Fe47 O64 1.997 . S
O48 Fe47 2.002 . S
O48 C65 1.295 1_554 S
O49 Fe44 1.997 1_556 S
O49 C65 1.235 . S
O50 Fe44 2.002 1_556 S
O50 C51 1.295 . S
C51 O50 1.295 . S
C51 O53 1.235 . S
C52 O57 1.287 . S
C52 O58 1.255 . S
O53 Fe45 1.997 1_556 S
O53 C51 1.235 . S
C54 O60 1.287 . S
C54 O61 1.255 . S
O55 Fe44 1.976 . S
O55 C62 1.287 . S
O56 Fe45 1.996 . S
O56 C62 1.255 . S
O57 Fe47 1.976 . S
O57 C52 1.287 . S
O58 Fe44 1.996 . S
O58 C52 1.255 . S
C59 O63 1.295 . S
C59 O64 1.235 1_556 S
O60 Fe45 1.976 . S
O60 C54 1.287 . S
O61 Fe47 1.996 . S
O61 C54 1.255 . S
C62 O55 1.287 . S
C62 O56 1.255 . S
O63 Fe45 2.002 1_556 S
O63 C59 1.295 . S
O64 Fe47 1.997 . S
O64 C59 1.235 1_554 S
C65 O48 1.295 1_556 S
C65 O49 1.235 . S
Fe66 O68 1.918 . S
Fe66 O71 1.997 . S
Fe66 O72 2.002 . S
Fe66 O77 1.976 . S
Fe66 O80 1.996 . S
Fe67 O68 1.918 . S
Fe67 O75 1.997 . S
Fe67 O78 1.996 . S
Fe67 O82 1.976 . S
Fe67 O85 2.002 . S
O68 Fe66 1.918 . S
O68 Fe67 1.918 . S
O68 Fe69 1.918 . S
Fe69 O68 1.918 . S
Fe69 O70 2.002 . S
Fe69 O79 1.976 . S
Fe69 O83 1.996 . S
Fe69 O86 1.997 . S
O70 Fe69 2.002 . S
O70 C87 1.295 . S
O71 Fe66 1.997 . S
O71 C87 1.235 . S
O72 Fe66 2.002 . S
O72 C73 1.295 . S
C73 O72 1.295 . S
C73 O75 1.235 . S
C74 O79 1.287 . S
C74 O80 1.255 . S
O75 Fe67 1.997 . S
O75 C73 1.235 . S
C76 O82 1.287 . S
C76 O83 1.255 . S
O77 Fe66 1.976 . S
O77 C84 1.287 . S
O78 Fe67 1.996 . S
O78 C84 1.255 . S
O79 Fe69 1.976 . S
O79 C74 1.287 . S
O80 Fe66 1.996 . S
O80 C74 1.255 . S
C81 O85 1.295 . S
C81 O86 1.235 . S
O82 Fe67 1.976 . S
O82 C76 1.287 . S
O83 Fe69 1.996 . S
O83 C76 1.255 . S
C84 O77 1.287 . S
C84 O78 1.255 . S
O85 Fe67 2.002 . S
O85 C81 1.295 . S
O86 Fe69 1.997 . S
O86 C81 1.235 . S
C87 O70 1.295 . S
C87 O71 1.235 . S
H88 C93 0.930 . S
H89 C96 0.930 . S
H90 C98 0.930 . S
H91 C92 1.016 . S
C92 H91 1.016 . S
C92 N99 1.286 . S
C93 H88 0.930 . S
C93 C94 1.397 . S
C93 C95 1.361 . S
C94 C93 1.397 . S
C94 C98 1.390 . S
C95 C93 1.361 . S
C95 C96 1.393 . S
C95 N99 1.413 . S
C96 H89 0.930 . S
C96 C95 1.393 . S
C96 C97 1.399 . S
C97 C96 1.399 . S
C97 C98 1.381 . S
C98 H90 0.930 . S
C98 C94 1.390 . S
C98 C97 1.381 . S
N99 C92 1.286 . S
N99 C95 1.413 . S
H100 C105 0.930 . S
H101 C108 0.930 . S
H102 C110 0.930 . S
H103 C104 1.016 . S
C104 H103 1.016 . S
C104 N111 1.286 . S
C105 H100 0.930 . S
C105 C106 1.397 . S
C105 C107 1.361 . S
C106 C105 1.397 . S
C106 C110 1.390 . S
C107 C105 1.361 . S
C107 C108 1.393 . S
C107 N111 1.413 . S
C108 H101 0.930 . S
C108 C107 1.393 . S
C108 C109 1.399 . S
C109 C108 1.399 . S
C109 C110 1.381 . S
C110 H102 0.930 . S
C110 C106 1.390 . S
C110 C109 1.381 . S
N111 C104 1.286 . S
N111 C107 1.413 . S
H112 C117 0.930 . S
H113 C120 0.930 . S
H114 C122 0.930 . S
H115 C116 1.016 . S
C116 H115 1.016 . S
C116 N123 1.286 . S
C117 H112 0.930 . S
C117 C118 1.397 . S
C117 C119 1.361 . S
C118 C117 1.397 . S
C118 C122 1.390 . S
C119 C117 1.361 . S
C119 C120 1.393 . S
C119 N123 1.413 . S
C120 H113 0.930 . S
C120 C119 1.393 . S
C120 C121 1.399 . S
C121 C120 1.399 . S
C121 C122 1.381 . S
C122 H114 0.930 . S
C122 C118 1.390 . S
C122 C121 1.381 . S
N123 C116 1.286 . S
N123 C119 1.413 . S
H124 C129 0.930 . S
H125 C132 0.930 . S
H126 C134 0.930 . S
H127 C128 1.016 . S
C128 H127 1.016 . S
C128 N135 1.286 . S
C129 H124 0.930 . S
C129 C130 1.397 . S
C129 C131 1.361 . S
C130 C129 1.397 . S
C130 C134 1.390 . S
C131 C129 1.361 . S
C131 C132 1.393 . S
C131 N135 1.413 . S
C132 H125 0.930 . S
C132 C131 1.393 . S
C132 C133 1.399 . S
C133 C132 1.399 . S
C133 C134 1.381 . S
C134 H126 0.930 . S
C134 C130 1.390 . S
C134 C133 1.381 . S
N135 C128 1.286 . S
N135 C131 1.413 . S
H136 C141 0.930 . S
H137 C144 0.930 . S
H138 C146 0.930 . S
H139 C140 1.016 . S
C140 H139 1.016 . S
C140 N147 1.286 . S
C141 H136 0.930 . S
C141 C142 1.397 . S
C141 C143 1.361 . S
C142 C141 1.397 . S
C142 C146 1.390 . S
C143 C141 1.361 . S
C143 C144 1.393 . S
C143 N147 1.413 . S
C144 H137 0.930 . S
C144 C143 1.393 . S
C144 C145 1.399 . S
C145 C144 1.399 . S
C145 C146 1.381 . S
C146 H138 0.930 . S
C146 C142 1.390 . S
C146 C145 1.381 . S
N147 C140 1.286 . S
N147 C143 1.413 . S
H148 C153 0.930 . S
H149 C156 0.930 . S
H150 C158 0.930 . S
H151 C152 1.016 . S
C152 H151 1.016 . S
C152 N159 1.286 . S
C153 H148 0.930 . S
C153 C154 1.397 . S
C153 C155 1.361 . S
C154 C153 1.397 . S
C154 C158 1.390 . S
C155 C153 1.361 . S
C155 C156 1.393 . S
C155 N159 1.413 . S
C156 H149 0.930 . S
C156 C155 1.393 . S
C156 C157 1.399 . S
C157 C156 1.399 . S
C157 C158 1.381 . S
C158 H150 0.930 . S
C158 C154 1.390 . S
C158 C157 1.381 . S
N159 C152 1.286 . S
N159 C155 1.413 . S
H160 C165 0.930 . S
H161 C168 0.930 . S
H162 C170 0.930 . S
H163 C164 1.016 . S
C164 H163 1.016 . S
C164 N171 1.286 . S
C165 H160 0.930 . S
C165 C166 1.397 . S
C165 C167 1.361 . S
C166 C165 1.397 . S
C166 C170 1.390 . S
C167 C165 1.361 . S
C167 C168 1.393 . S
C167 N171 1.413 . S
C168 H161 0.930 . S
C168 C167 1.393 . S
C168 C169 1.399 . S
C169 C168 1.399 . S
C169 C170 1.381 . S
C170 H162 0.930 . S
C170 C166 1.390 . S
C170 C169 1.381 . S
N171 C164 1.286 . S
N171 C167 1.413 . S
H172 C177 0.930 . S
H173 C180 0.930 . S
H174 C182 0.930 . S
H175 C176 1.016 . S
C176 H175 1.016 . S
C176 N183 1.286 . S
C177 H172 0.930 . S
C177 C178 1.397 . S
C177 C179 1.361 . S
C178 C177 1.397 . S
C178 C182 1.390 . S
C179 C177 1.361 . S
C179 C180 1.393 . S
C179 N183 1.413 . S
C180 H173 0.930 . S
C180 C179 1.393 . S
C180 C181 1.399 . S
C181 C180 1.399 . S
C181 C182 1.381 . S
C182 H174 0.930 . S
C182 C178 1.390 . S
C182 C181 1.381 . S
N183 C176 1.286 . S
N183 C179 1.413 . S
C184 C185 1.387 . S
C184 H188 0.950 1_545 S
C184 C193 1.390 . S
C185 C184 1.387 . S
C185 C187 1.387 . S
H186 C193 0.950 . S
C187 C185 1.387 . S
C187 C189 1.390 . S
C187 H191 0.950 . S
H188 C184 0.950 1_565 S
C189 C187 1.390 . S
C189 C190 1.387 . S
C189 H192 0.950 . S
C190 C189 1.387 . S
C190 C193 1.387 . S
H191 C187 0.950 . S
H192 C189 0.950 . S
C193 C184 1.390 . S
C193 H186 0.950 . S
C193 C190 1.387 . S
C194 C195 1.387 . S
C194 H198 0.950 . S
C194 C203 1.390 . S
C195 C194 1.387 . S
C195 C197 1.387 . S
H196 C203 0.950 . S
C197 C195 1.387 . S
C197 C199 1.390 . S
C197 H201 0.950 . S
H198 C194 0.950 . S
C199 C197 1.390 . S
C199 C200 1.387 . S
C199 H202 0.950 . S
C200 C199 1.387 . S
C200 C203 1.387 . S
H201 C197 0.950 . S
H202 C199 0.950 . S
C203 C194 1.390 . S
C203 H196 0.950 . S
C203 C200 1.387 . S
C204 C205 1.387 1_565 S
C204 H208 0.950 . S
C204 C213 1.390 . S
C205 C204 1.387 1_545 S
C205 C207 1.387 . S
H206 C213 0.950 . S
C207 C205 1.387 . S
C207 C209 1.390 1_545 S
C207 H211 0.950 . S
H208 C204 0.950 . S
C209 C207 1.390 1_565 S
C209 C210 1.387 . S
C209 H212 0.950 . S
C210 C209 1.387 . S
C210 C213 1.387 . S
H211 C207 0.950 . S
H212 C209 0.950 . S
C213 C204 1.390 . S
C213 H206 0.950 . S
C213 C210 1.387 . S
C214 C215 1.387 . S
C214 H218 0.950 . S
C214 C223 1.390 . S
C215 C214 1.387 . S
C215 C217 1.387 . S
H216 C223 0.950 . S
C217 C215 1.387 . S
C217 C219 1.390 . S
C217 H221 0.950 . S
H218 C214 0.950 . S
C219 C217 1.390 . S
C219 C220 1.387 . S
C219 H222 0.950 . S
C220 C219 1.387 . S
C220 C223 1.387 . S
H221 C217 0.950 . S
H222 C219 0.950 . S
C223 C214 1.390 . S
C223 H216 0.950 . S
C223 C220 1.387 . S
C224 C225 1.387 . S
C224 H228 0.950 . S
C224 C233 1.390 . S
C225 C224 1.387 . S
C225 C227 1.387 . S
H226 C233 0.950 . S
C227 C225 1.387 . S
C227 C229 1.390 . S
C227 H231 0.950 . S
H228 C224 0.950 . S
C229 C227 1.390 . S
C229 C230 1.387 . S
C229 H232 0.950 . S
C230 C229 1.387 . S
C230 C233 1.387 . S
H231 C227 0.950 . S
H232 C229 0.950 . S
C233 C224 1.390 . S
C233 H226 0.950 . S
C233 C230 1.387 . S
C234 C235 1.387 . S
C234 H238 0.950 . S
C234 C243 1.390 . S
C235 C234 1.387 . S
C235 C237 1.387 . S
H236 C243 0.950 1_455 S
C237 C235 1.387 . S
C237 C239 1.390 . S
C237 H241 0.950 . S
H238 C234 0.950 . S
C239 C237 1.390 . S
C239 C240 1.387 1_655 S
C239 H242 0.950 1_655 S
C240 C239 1.387 1_455 S
C240 C243 1.387 1_455 S
H241 C237 0.950 . S
H242 C239 0.950 1_455 S
C243 C234 1.390 . S
C243 H236 0.950 1_655 S
C243 C240 1.387 1_655 S
C244 C245 1.387 . S
C244 H248 0.950 . S
C244 C253 1.390 . S
C245 C244 1.387 . S
C245 C247 1.387 . S
H246 C253 0.950 . S
C247 C245 1.387 . S
C247 C249 1.390 . S
C247 H251 0.950 . S
H248 C244 0.950 . S
C249 C247 1.390 . S
C249 C250 1.387 . S
C249 H252 0.950 . S
C250 C249 1.387 . S
C250 C253 1.387 . S
H251 C247 0.950 . S
H252 C249 0.950 . S
C253 C244 1.390 . S
C253 H246 0.950 . S
C253 C250 1.387 . S
C254 C255 1.387 . S
C254 H258 0.950 . S
C254 C263 1.390 . S
C255 C254 1.387 . S
C255 C257 1.387 . S
H256 C263 0.950 . S
C257 C255 1.387 . S
C257 C259 1.390 . S
C257 H261 0.950 . S
H258 C254 0.950 . S
C259 C257 1.390 . S
C259 C260 1.387 . S
C259 H262 0.950 . S
C260 C259 1.387 . S
C260 C263 1.387 . S
H261 C257 0.950 . S
H262 C259 0.950 . S
C263 C254 1.390 . S
C263 H256 0.950 . S
C263 C260 1.387 . S
C264 C265 1.387 1_565 S
C264 H268 0.950 1_565 S
C264 C273 1.390 . S
C265 C264 1.387 1_545 S
C265 C267 1.387 1_545 S
H266 C273 0.950 . S
C267 C265 1.387 1_565 S
C267 C269 1.390 . S
C267 H271 0.950 . S
H268 C264 0.950 1_545 S
C269 C267 1.390 . S
C269 C270 1.387 . S
C269 H272 0.950 . S
C270 C269 1.387 . S
C270 C273 1.387 . S
H271 C267 0.950 . S
H272 C269 0.950 . S
C273 C264 1.390 . S
C273 H266 0.950 . S
C273 C270 1.387 . S
C274 C275 1.387 . S
C274 H278 0.950 . S
C274 C283 1.390 . S
C275 C274 1.387 . S
C275 C277 1.387 . S
H276 C283 0.950 . S
C277 C275 1.387 . S
C277 C279 1.390 . S
C277 H281 0.950 . S
H278 C274 0.950 . S
C279 C277 1.390 . S
C279 C280 1.387 . S
C279 H282 0.950 . S
C280 C279 1.387 . S
C280 C283 1.387 . S
H281 C277 0.950 . S
H282 C279 0.950 . S
C283 C274 1.390 . S
C283 H276 0.950 . S
C283 C280 1.387 . S
C284 C285 1.387 1_565 S
C284 H288 0.950 . S
C284 C293 1.390 1_565 S
C285 C284 1.387 1_545 S
C285 C287 1.389 . S
H286 C293 0.950 . S
C287 C285 1.389 . S
C287 C289 1.390 . S
C287 H291 0.950 . S
H288 C284 0.950 . S
C289 C287 1.390 . S
C289 C290 1.387 . S
C289 H292 0.950 . S
C290 C289 1.387 . S
C290 C293 1.387 . S
H291 C287 0.950 . S
H292 C289 0.950 . S
C293 C284 1.390 1_545 S
C293 H286 0.950 . S
C293 C290 1.387 . S
C294 C295 1.387 . S
C294 H298 0.950 . S
C294 C303 1.390 . S
C295 C294 1.387 . S
C295 C297 1.387 . S
H296 C303 0.950 . S
C297 C295 1.387 . S
C297 C299 1.390 . S
C297 H301 0.950 . S
H298 C294 0.950 . S
C299 C297 1.390 . S
C299 C300 1.387 . S
C299 H302 0.950 . S
C300 C299 1.387 . S
C300 C303 1.387 . S
H301 C297 0.950 . S
H302 C299 0.950 . S
C303 C294 1.390 . S
C303 H296 0.950 . S
C303 C300 1.387 . S
C304 C305 1.387 . S
C304 H308 0.950 . S
C304 C313 1.390 . S
C305 C304 1.387 . S
C305 C307 1.387 . S
H306 C313 0.950 . S
C307 C305 1.387 . S
C307 C309 1.390 . S
C307 H311 0.950 . S
H308 C304 0.950 . S
C309 C307 1.390 . S
C309 C310 1.387 . S
C309 H312 0.950 . S
C310 C309 1.387 . S
C310 C313 1.387 . S
H311 C307 0.950 . S
H312 C309 0.950 . S
C313 C304 1.390 . S
C313 H306 0.950 . S
C313 C310 1.387 . S
C314 C315 1.387 . S
C314 H318 0.950 . S
C314 C323 1.390 . S
C315 C314 1.387 . S
C315 C317 1.387 . S
H316 C323 0.950 1_655 S
C317 C315 1.387 . S
C317 C319 1.390 . S
C317 H321 0.950 . S
H318 C314 0.950 . S
C319 C317 1.390 . S
C319 C320 1.387 1_455 S
C319 H322 0.950 1_455 S
C320 C319 1.387 1_655 S
C320 C323 1.387 1_655 S
H321 C317 0.950 . S
H322 C319 0.950 1_655 S
C323 C314 1.390 . S
C323 H316 0.950 1_455 S
C323 C320 1.387 1_455 S
C324 C325 1.387 . S
C324 H328 0.950 . S
C324 C333 1.390 . S
C325 C324 1.387 . S
C325 C327 1.387 . S
H326 C333 0.950 . S
C327 C325 1.387 . S
C327 C329 1.390 . S
C327 H331 0.950 . S
H328 C324 0.950 . S
C329 C327 1.390 . S
C329 C330 1.387 . S
C329 H332 0.950 . S
C330 C329 1.387 . S
C330 C333 1.387 . S
H331 C327 0.950 . S
H332 C329 0.950 . S
C333 C324 1.390 . S
C333 H326 0.950 . S
C333 C330 1.387 . S
C334 C335 1.387 . S
C334 H338 0.950 . S
C334 C343 1.390 . S
C335 C334 1.387 . S
C335 C337 1.387 . S
H336 C343 0.950 . S
C337 C335 1.387 . S
C337 C339 1.390 . S
C337 H341 0.950 . S
H338 C334 0.950 . S
C339 C337 1.390 . S
C339 C340 1.387 . S
C339 H342 0.950 . S
C340 C339 1.387 . S
C340 C343 1.387 . S
H341 C337 0.950 . S
H342 C339 0.950 . S
C343 C334 1.390 . S
C343 H336 0.950 . S
C343 C340 1.387 . S
C344 C345 1.387 . S
C344 H348 0.950 . S
C344 C353 1.390 . S
C345 C344 1.387 . S
C345 C347 1.387 . S
H346 C353 0.950 . S
C347 C345 1.387 . S
C347 C349 1.390 . S
C347 H351 0.950 . S
H348 C344 0.950 . S
C349 C347 1.390 . S
C349 C350 1.387 . S
C349 H352 0.950 . S
C350 C349 1.387 . S
C350 C353 1.387 . S
H351 C347 0.950 . S
H352 C349 0.950 . S
C353 C344 1.390 . S
C353 H346 0.950 . S
C353 C350 1.387 . S
C354 C355 1.387 . S
C354 H358 0.950 . S
C354 C363 1.390 . S
C355 C354 1.387 . S
C355 C357 1.387 . S
H356 C363 0.950 . S
C357 C355 1.387 . S
C357 C359 1.390 . S
C357 H361 0.950 . S
H358 C354 0.950 . S
C359 C357 1.390 . S
C359 C360 1.387 . S
C359 H362 0.950 . S
C360 C359 1.387 . S
C360 C363 1.387 . S
H361 C357 0.950 . S
H362 C359 0.950 . S
C363 C354 1.390 . S
C363 H356 0.950 . S
C363 C360 1.387 . S
C364 C365 1.387 . S
C364 H368 0.950 . S
C364 C373 1.390 . S
C365 C364 1.387 . S
C365 C367 1.387 . S
H366 C373 0.950 . S
C367 C365 1.387 . S
C367 C369 1.390 . S
C367 H371 0.950 . S
H368 C364 0.950 . S
C369 C367 1.390 . S
C369 C370 1.387 . S
C369 H372 0.950 . S
C370 C369 1.387 . S
C370 C373 1.387 . S
H371 C367 0.950 . S
H372 C369 0.950 . S
C373 C364 1.390 . S
C373 H366 0.950 . S
C373 C370 1.387 . S
C374 C375 1.387 . S
C374 H378 0.950 . S
C374 C383 1.390 . S
C375 C374 1.387 . S
C375 C377 1.387 . S
H376 C383 0.950 . S
C377 C375 1.387 . S
C377 C379 1.390 . S
C377 H381 0.950 . S
H378 C374 0.950 . S
C379 C377 1.390 . S
C379 C380 1.387 . S
C379 H382 0.950 . S
C380 C379 1.387 . S
C380 C383 1.387 . S
H381 C377 0.950 . S
H382 C379 0.950 . S
C383 C374 1.390 . S
C383 H376 0.950 . S
C383 C380 1.387 . S
C384 C385 1.387 . S
C384 H388 0.950 . S
C384 C393 1.390 . S
C385 C384 1.387 . S
C385 C387 1.387 . S
H386 C393 0.950 . S
C387 C385 1.387 . S
C387 C389 1.390 . S
C387 H391 0.950 . S
H388 C384 0.950 . S
C389 C387 1.390 . S
C389 C390 1.387 . S
C389 H392 0.950 . S
C390 C389 1.387 . S
C390 C393 1.387 . S
H391 C387 0.950 . S
H392 C389 0.950 . S
C393 C384 1.390 . S
C393 H386 0.950 . S
C393 C390 1.387 . S
C394 C395 1.387 . S
C394 H398 0.950 . S
C394 C403 1.390 . S
C395 C394 1.387 . S
C395 C397 1.387 . S
H396 C403 0.950 . S
C397 C395 1.387 . S
C397 C399 1.390 . S
C397 H401 0.933 1_556 S
H398 C394 0.950 . S
C399 C397 1.390 . S
C399 C400 1.387 . S
C399 H402 0.950 . S
C400 C399 1.387 . S
C400 C403 1.387 . S
H401 C397 0.933 1_554 S
H402 C399 0.950 . S
C403 C394 1.390 . S
C403 H396 0.950 . S
C403 C400 1.387 . S
C404 C405 1.387 . S
C404 H408 0.950 . S
C404 C413 1.390 . S
C405 C404 1.387 . S
C405 C407 1.387 . S
H406 C413 0.950 . S
C407 C405 1.387 . S
C407 C409 1.390 . S
C407 H411 0.950 . S
H408 C404 0.950 . S
C409 C407 1.390 . S
C409 C410 1.387 . S
C409 H412 0.950 . S
C410 C409 1.387 . S
C410 C413 1.387 . S
H411 C407 0.950 . S
H412 C409 0.950 . S
C413 C404 1.390 . S
C413 H406 0.950 . S
C413 C410 1.387 . S
C414 C415 1.387 . S
C414 H418 0.950 . S
C414 C423 1.390 . S
C415 C414 1.387 . S
C415 C417 1.387 . S
H416 C423 0.950 . S
C417 C415 1.387 . S
C417 C419 1.390 . S
C417 H421 0.950 . S
H418 C414 0.950 . S
C419 C417 1.390 . S
C419 C420 1.387 . S
C419 H422 0.950 . S
C420 C419 1.387 . S
C420 C423 1.387 . S
H421 C417 0.950 . S
H422 C419 0.950 . S
C423 C414 1.390 . S
C423 H416 0.950 . S
C423 C420 1.387 . S
C185 C7 1.458 1_545 S
C190 C97 1.388 . S
C195 C37 1.474 . S
C200 C109 1.449 . S
C205 C54 1.422 . S
C210 C121 1.369 . S
C220 C130 1.343 . S
C215 C87 1.393 . S
C230 C145 1.357 . S
C225 C30 1.440 . S
C235 C51 1.394 . S
C240 C154 1.346 . S
C245 C84 1.422 . S
C250 C169 1.374 . S
C255 C10 1.482 1_655 S
C260 C181 1.435 . S
C265 C59 1.362 . S
C270 C178 1.344 . S
C280 C142 1.329 . S
C275 C74 1.331 . S
C290 C157 1.386 . S
C285 C18 1.421 1_545 S
C295 C32 1.376 . S
C300 C166 1.307 . S
C310 C106 1.316 . S
C305 C73 1.331 . S
C315 C15 1.401 . S
C320 C118 1.338 . S
C330 C133 1.416 . S
C325 C43 1.444 . S
C340 C94 1.324 . S
C335 C62 1.324 1_455 S
C350 C164 1.407 . S
C345 C21 1.418 . S
C360 C176 1.441 . S
C355 C29 1.470 . S
C365 C52 1.449 . S
C370 C140 1.429 . S
C380 C152 1.405 . S
C375 C81 1.430 . S
C390 C116 1.413 . S
C385 C40 1.435 . S
C395 C65 1.431 . S
C400 C128 1.409 . S
C410 C92 1.435 . S
C405 C76 1.454 . S
C420 C104 1.422 . S
C415 C8 1.444 . S
