# Generated by pormake.
# Topology zzz, (3,6)-cn, num edge types: 1
# Building blocks:
#     Node 0, Type 0, BuildingBlock: QEWDON_clean_linker_0, # of connection points: 3
#     Node 1, Type 0, BuildingBlock: QEWDON_clean_linker_0, # of connection points: 3
#     Node 2, Type 0, BuildingBlock: QEWDON_clean_linker_0, # of connection points: 3
#     Node 3, Type 0, BuildingBlock: QEWDON_clean_linker_0, # of connection points: 3
#     Node 4, Type 0, BuildingBlock: QEWDON_clean_linker_0, # of connection points: 3
#     Node 5, Type 0, BuildingBlock: QEWDON_clean_linker_0, # of connection points: 3
#     Node 6, Type 0, BuildingBlock: QEWDON_clean_linker_0, # of connection points: 3
#     Node 7, Type 0, BuildingBlock: QEWDON_clean_linker_0, # of connection points: 3
#     Node 8, Type 1, BuildingBlock: BETDEL_clean_sbu_0, # of connection points: 6
#     Node 9, Type 1, BuildingBlock: BETDEL_clean_sbu_0, # of connection points: 6
#     Node 10, Type 1, BuildingBlock: BETDEL_clean_sbu_0, # of connection points: 6
#     Node 11, Type 1, BuildingBlock: BETDEL_clean_sbu_0, # of connection points: 6
#     Edge 12, Type (0, 1), BuildingBlock: OJICUG_clean_linker_0, # of connection points: 2
#     Edge 13, Type (0, 1), BuildingBlock: OJICUG_clean_linker_0, # of connection points: 2
#     Edge 14, Type (0, 1), BuildingBlock: OJICUG_clean_linker_0, # of connection points: 2
#     Edge 15, Type (0, 1), BuildingBlock: OJICUG_clean_linker_0, # of connection points: 2
#     Edge 16, Type (0, 1), BuildingBlock: OJICUG_clean_linker_0, # of connection points: 2
#     Edge 17, Type (0, 1), BuildingBlock: OJICUG_clean_linker_0, # of connection points: 2
#     Edge 18, Type (0, 1), BuildingBlock: OJICUG_clean_linker_0, # of connection points: 2
#     Edge 19, Type (0, 1), BuildingBlock: OJICUG_clean_linker_0, # of connection points: 2
#     Edge 20, Type (0, 1), BuildingBlock: OJICUG_clean_linker_0, # of connection points: 2
#     Edge 21, Type (0, 1), BuildingBlock: OJICUG_clean_linker_0, # of connection points: 2
#     Edge 22, Type (0, 1), BuildingBlock: OJICUG_clean_linker_0, # of connection points: 2
#     Edge 23, Type (0, 1), BuildingBlock: OJICUG_clean_linker_0, # of connection points: 2
#     Edge 24, Type (0, 1), BuildingBlock: OJICUG_clean_linker_0, # of connection points: 2
#     Edge 25, Type (0, 1), BuildingBlock: OJICUG_clean_linker_0, # of connection points: 2
#     Edge 26, Type (0, 1), BuildingBlock: OJICUG_clean_linker_0, # of connection points: 2
#     Edge 27, Type (0, 1), BuildingBlock: OJICUG_clean_linker_0, # of connection points: 2
#     Edge 28, Type (0, 1), BuildingBlock: OJICUG_clean_linker_0, # of connection points: 2
#     Edge 29, Type (0, 1), BuildingBlock: OJICUG_clean_linker_0, # of connection points: 2
#     Edge 30, Type (0, 1), BuildingBlock: OJICUG_clean_linker_0, # of connection points: 2
#     Edge 31, Type (0, 1), BuildingBlock: OJICUG_clean_linker_0, # of connection points: 2
#     Edge 32, Type (0, 1), BuildingBlock: OJICUG_clean_linker_0, # of connection points: 2
#     Edge 33, Type (0, 1), BuildingBlock: OJICUG_clean_linker_0, # of connection points: 2
#     Edge 34, Type (0, 1), BuildingBlock: OJICUG_clean_linker_0, # of connection points: 2
#     Edge 35, Type (0, 1), BuildingBlock: OJICUG_clean_linker_0, # of connection points: 2
# Relax obj value: 0.098
# Max RMSD: 0.197
# Mean RMSD: 0.077
data_MOF--net-zzz--node1-BETDEL_clean_sbu_0--node2-QEWDON_clean_linker_0--edge1-OJICUG_clean_linker_0
_symmetry_space_group_name_H-M    P1
_symmetry_Int_Tables_number       1
_symmetry_cell_setting            triclinic
loop_
_symmetry_equiv_pos_as_xyz
'x, y, z'
_cell_length_a     37.865904
_cell_length_b     38.597017
_cell_length_c     11.260966
_cell_angle_alpha  91.756777
_cell_angle_beta   88.277886
_cell_angle_gamma 94.367599
loop_
_atom_site_label
_atom_site_type_symbol
_atom_site_fract_x
_atom_site_fract_y
_atom_site_fract_z
_atom_type_partial_charge
H0 H 0.7833 0.51204 0.95381 0.0
C1 C 0.80118 0.52695 0.01266 0.0
C2 C 0.83766 0.52333 -0.0003 0.0
C3 C 0.78805 0.54894 0.10423 0.0
H4 H 0.88934 0.53937 0.06171 0.0
C5 C 0.86113 0.54243 0.07337 0.0
C6 C 0.8494 0.56415 0.16424 0.0
C7 C 0.81269 0.56714 0.18137 0.0
C8 C 0.74882 0.55144 0.12218 0.0
H9 H 0.80363 0.58358 0.25389 0.0
C10 C 0.72583 0.54968 0.02485 0.0
C11 C 0.68861 0.54996 0.04226 0.0
C12 C 0.73384 0.55431 0.2376 0.0
H13 H 0.75021 0.55493 0.31489 0.0
C14 C 0.69727 0.55534 0.25545 0.0
H15 H 0.73694 0.54835 0.93527 0.0
C16 C 0.67481 0.55303 0.15908 0.0
H17 H 0.64651 0.55268 0.17667 0.0
H18 H 0.68618 0.55722 0.34495 0.0
H19 H 0.05795 0.79545 0.94367 0.0
C20 C 0.0427 0.81261 -0.00093 0.0
C21 C 0.04949 0.84866 -0.01113 0.0
C22 C 1.0173 0.7991 0.08396 0.0
H23 H 0.03557 0.89902 0.05038 0.0
C24 C 1.03018 0.87119 0.05957 0.0
C25 C 1.00518 0.85906 0.14438 0.0
C26 C 0.99878 0.82291 0.15707 0.0
C27 C 1.01124 0.76052 0.10005 0.0
H28 H 0.9793 0.81363 0.22328 0.0
C29 C 1.01453 0.73626 0.00376 0.0
C30 C 1.00929 0.69994 0.02085 0.0
C31 C 1.00276 0.74758 0.21378 0.0
H32 H 1.00112 0.76488 0.29088 0.0
C33 C 0.99687 0.71198 0.23079 0.0
H34 H 1.02136 0.74557 0.91577 0.0
C35 C 0.99991 0.68838 0.1356 0.0
H36 H 0.99467 0.66099 0.15228 0.0
H37 H 0.99006 0.70256 0.31876 0.0
H38 H 0.78177 0.03825 0.92966 0.0
C39 C 0.76404 0.03582 0.00645 0.0
C40 C 0.73186 0.05158 0.00324 0.0
C41 C 0.77229 1.0162 0.10541 0.0
H42 H 0.68116 0.05651 0.08983 0.0
C43 C 0.70701 0.04638 0.0959 0.0
C44 C 0.71313 1.02573 0.19101 0.0
C45 C 0.74591 1.01117 0.19755 0.0
C46 C 0.80747 1.00011 0.10956 0.0
H47 H 0.75036 0.99633 0.27479 0.0
C48 C 0.83714 1.01249 0.03876 0.0
C49 C 0.86929 0.99611 0.03639 0.0
C50 C 0.81171 0.97152 0.18178 0.0
H51 H 0.79004 0.95986 0.235 0.0
C52 C 0.84411 0.95649 0.18459 0.0
H53 H 0.83568 0.03484 -0.01589 0.0
C54 C 0.87269 0.96854 0.11227 0.0
H55 H 0.89693 0.95532 0.11212 0.0
H56 H 0.84673 0.93461 0.24072 0.0
H57 H 0.50869 0.77373 -0.02724 0.0
C58 C 0.5241 0.75805 0.02667 0.0
C59 C 0.51852 0.72165 0.01843 0.0
C60 C 0.54838 0.77395 0.10874 0.0
H61 H 0.53445 0.67314 0.07834 0.0
C62 C 0.53846 0.70125 0.08681 0.0
C63 C 0.56255 0.71581 0.16837 0.0
C64 C 0.5673 0.75229 0.18062 0.0
C65 C 0.55227 0.81283 0.12516 0.0
H66 H 0.58575 0.76358 0.24524 0.0
C67 C 0.55111 0.83556 0.02852 0.0
C68 C 0.55485 0.87217 0.04727 0.0
C69 C 0.55647 0.82752 0.24027 0.0
H70 H 0.55642 0.81126 0.31694 0.0
C71 C 0.55994 0.86345 0.2591 0.0
H72 H 0.54816 0.82491 0.93898 0.0
C73 C 0.55919 0.88556 0.16396 0.0
H74 H 0.56141 0.91334 0.18233 0.0
H75 H 0.56294 0.87426 0.3484 0.0
H76 H 0.28652 0.56471 0.11716 0.0
C77 C 0.26834 0.55126 0.05587 0.0
C78 C 0.23214 0.55675 0.06699 0.0
C79 C 0.28075 0.52914 0.96335 0.0
H80 H 0.18033 0.54407 -0.00019 0.0
C81 C 0.20829 0.53961 -0.01023 0.0
C82 C 0.21928 0.51739 0.89934 0.0
C83 C 0.25562 0.51238 0.88455 0.0
C84 C 0.3197 0.52452 0.94606 0.0
H85 H 0.26399 0.49535 0.81264 0.0
C86 C 0.34278 0.52478 0.04322 0.0
C87 C 0.37952 0.5207 0.02501 0.0
C88 C 0.33425 0.52039 0.83044 0.0
H89 H 0.31801 0.52111 0.75323 0.0
C90 C 0.37019 0.51583 0.81197 0.0
H91 H 0.33223 0.52827 0.13277 0.0
C92 C 0.39258 0.51579 0.90788 0.0
H93 H 0.4202 0.5116 0.88979 0.0
H94 H 0.38081 0.5124 0.7224 0.0
H95 H 1.01175 0.28031 0.16948 0.0
C96 C 1.02769 0.26303 0.11708 0.0
C97 C 1.02397 0.2273 0.13806 0.0
C98 C 0.05066 0.27588 0.02436 0.0
H99 H 0.0404 0.17703 0.08768 0.0
C100 C 0.04401 0.20462 0.07061 0.0
C101 C 0.06638 0.21606 -0.02284 0.0
C102 C 0.06976 0.2519 0.95421 0.0
C103 C 0.05302 0.31375 -0.00417 0.0
H104 H 0.0871 0.2609 0.88153 0.0
C105 C 0.05131 0.34008 0.08593 0.0
C106 C 0.05326 0.37576 0.05757 0.0
C107 C 0.05628 0.32378 0.87668 0.0
H108 H 0.05657 0.30456 0.80466 0.0
C109 C 0.05855 0.35878 0.84813 0.0
H110 H 0.04833 0.33278 0.17791 0.0
C111 C 0.05727 0.38454 0.93731 0.0
H112 H 0.05978 0.41143 0.91156 0.0
H113 H 0.06126 0.36601 0.75598 0.0
H114 H 0.28348 1.00939 0.13715 0.0
C115 C 0.30358 1.01909 0.07375 0.0
C116 C 0.33829 1.00959 0.08584 0.0
C117 C 0.29517 0.04035 -0.02044 0.0
H118 H 0.39173 1.01448 0.01529 0.0
C119 C 0.36466 1.02109 0.00423 0.0
C120 C 0.35751 0.04198 0.91088 0.0
C121 C 0.32295 0.05218 0.89909 0.0
C122 C 0.25758 0.04935 0.96381 0.0
H123 H 0.31803 0.06905 0.82737 0.0
C124 C 0.23303 0.05088 0.06126 0.0
C125 C 0.19732 0.0578 0.04504 0.0
C126 C 0.24548 0.05535 0.84966 0.0
H127 H 0.2626 0.05335 0.77153 0.0
C128 C 0.21065 0.06328 0.8335 0.0
H129 H 0.24146 0.04625 0.14982 0.0
C130 C 0.18678 0.06457 0.92989 0.0
H131 H 0.16001 0.07093 0.91381 0.0
H132 H 0.20195 0.06806 0.74516 0.0
H133 H 0.56624 0.29192 0.0899 0.0
C134 C 0.55253 0.30801 0.03212 0.0
C135 C 0.56149 0.34403 0.03344 0.0
C136 C 0.52615 0.29305 0.9558 0.0
H137 H 0.55001 0.39296 0.9639 0.0
C138 C 0.54363 0.36505 0.96077 0.0
C139 C 0.5159 0.35174 0.89089 0.0
C140 C 0.50761 0.3155 0.88557 0.0
C141 C 0.5188 0.25424 0.94667 0.0
H142 H 0.48647 0.30506 0.82913 0.0
C143 C 0.52034 0.23254 0.04613 0.0
C144 C 0.51404 0.1959 0.03351 0.0
C145 C 0.51131 0.23844 0.83509 0.0
H146 H 0.51083 0.25382 0.75642 0.0
C147 C 0.50537 0.20248 0.82216 0.0
H148 H 0.52564 0.24405 0.13329 0.0
C149 C 0.50676 0.18142 0.91989 0.0
H150 H 0.5027 0.15354 0.90582 0.0
H151 H 0.49999 0.19078 0.73534 0.0
Dy152 Dy 0.058 1.01549 0.62385 0.0
C153 C 0.99094 0.11708 0.40958 0.0
C154 C 0.0847 0.9582 0.71488 0.0
Dy155 Dy 1.01701 0.0591 0.49715 0.0
O156 O 0.07828 0.9863 0.77616 0.0
O157 O 0.07651 0.96172 0.60575 0.0
O158 O 0.1088 0.04005 0.54887 0.0
O159 O 0.06486 0.03383 0.43921 0.0
C160 C 0.09691 0.04562 0.44519 0.0
C161 C 0.97666 1.02802 0.66859 0.0
O162 O 1.00597 1.01082 0.38411 0.0
O163 O 1.01723 0.97781 0.54192 0.0
O164 O 0.99761 0.08939 0.34622 0.0
O165 O 0.99858 0.1128 0.51882 0.0
O166 O 0.96599 0.03491 0.5645 0.0
O167 O 1.00881 0.03947 0.68071 0.0
O168 O 0.06847 0.06352 0.73818 0.0
O169 O 0.05817 0.09627 0.57927 0.0
C170 C 1.00482 0.98021 0.43465 0.0
C171 C 0.06982 0.09407 0.68754 0.0
Dy172 Dy 0.50645 1.01143 0.47542 0.0
C173 C 0.63016 0.07534 0.68809 0.0
C174 C 0.4402 0.9913 0.39933 0.0
Dy175 Dy 0.56278 0.05929 0.6152 0.0
O176 O 0.4684 0.97507 0.3711 0.0
O177 O 0.44871 1.01854 0.46531 0.0
O178 O 0.55047 0.98366 0.38059 0.0
O179 O 0.55859 0.03558 0.43982 0.0
C180 C 0.57376 1.00995 0.39733 0.0
C181 C 0.49556 0.06086 0.69449 0.0
O182 O 0.55352 0.09581 0.46896 0.0
O183 O 0.50456 0.06387 0.38911 0.0
O184 O 0.60344 0.09379 0.71618 0.0
O185 O 0.61953 0.04846 0.62361 0.0
O186 O 0.51907 0.08693 0.71267 0.0
O187 O 0.51064 0.03528 0.65081 0.0
O188 O 0.51567 0.97484 0.62088 0.0
O189 O 0.56415 1.00694 0.70263 0.0
C190 C 0.52643 0.09268 0.39567 0.0
C191 C 0.54254 0.97801 0.69479 0.0
Dy192 Dy 0.51074 0.55525 0.61049 0.0
C193 C 0.57111 0.4581 0.31288 0.0
C194 C 0.48244 0.61015 0.72841 0.0
Dy195 Dy 0.55496 0.5139 0.45031 0.0
O196 O 0.48818 0.60731 0.61501 0.0
O197 O 0.49183 0.58245 0.77878 0.0
O198 O 0.46205 0.52948 0.52951 0.0
O199 O 0.50692 0.54056 0.41969 0.0
C200 C 0.47526 0.52725 0.42238 0.0
C201 C 0.59405 0.52689 0.64418 0.0
O202 O 0.56707 0.56503 0.36384 0.0
O203 O 0.55136 0.59484 0.53552 0.0
O204 O 0.5894 0.48815 0.31018 0.0
O205 O 0.54305 0.46014 0.38028 0.0
O206 O 0.60433 0.51035 0.54953 0.0
O207 O 0.56343 0.53715 0.63069 0.0
O208 O 0.50358 0.50541 0.70923 0.0
O209 O 0.51773 0.47445 0.53986 0.0
C210 C 0.56598 0.59449 0.42728 0.0
C211 C 0.50507 0.47538 0.64992 0.0
Dy212 Dy 1.01234 0.51935 0.61073 0.0
C213 C 0.1138 0.58987 0.3186 0.0
C214 C 0.95511 0.49114 0.73994 0.0
Dy215 Dy 0.05644 0.56267 0.4499 0.0
O216 O 0.96163 0.48561 0.62791 0.0
O217 O 0.98063 0.51195 0.78251 0.0
O218 O 0.03548 0.47135 0.54007 0.0
O219 O 1.02802 0.51137 0.42212 0.0
C220 C 0.03994 0.48172 0.43184 0.0
C221 C 1.02907 0.6001 0.63017 0.0
O222 O 1.00583 0.56863 0.35753 0.0
O223 O 0.97339 0.55105 0.52417 0.0
O224 O 0.10644 0.5974 0.42879 0.0
O225 O 0.08887 0.56782 0.279 0.0
O226 O 1.03362 0.61082 0.52227 0.0
O227 O 0.04096 0.57042 0.63866 0.0
O228 O 0.06294 0.51362 0.70348 0.0
O229 O 0.09563 0.53158 0.53782 0.0
C230 C 0.97521 0.56444 0.41728 0.0
C231 C 0.09365 0.51801 0.64437 0.0
C232 C 0.13527 0.04414 0.12986 0.0
C233 C 0.17077 0.05693 0.14675 0.0
H234 H 0.08397 0.03108 0.20995 0.0
C235 C 0.18068 0.06804 0.26208 0.0
H236 H 0.12653 0.03482 0.04316 0.0
C237 C 0.15628 0.06528 0.35791 0.0
C238 C 0.12121 0.05175 0.34101 0.0
H239 H 0.20736 0.07879 0.27885 0.0
H240 H 0.16504 0.07335 0.44591 0.0
C241 C 0.11075 0.04183 0.22564 0.0
C242 C 0.49048 0.14303 0.14554 0.0
C243 C 0.5153 0.172 0.13589 0.0
H244 H 0.47433 0.09585 0.23348 0.0
C245 C 0.5426 0.17594 0.2185 0.0
H246 H 0.46873 0.13931 0.085 0.0
C247 C 0.54584 0.15075 0.30472 0.0
C248 C 0.52177 0.12106 0.31086 0.0
H249 H 0.56231 0.19774 0.21351 0.0
H250 H 0.56777 0.15416 0.36454 0.0
C251 C 0.49367 0.11801 0.23134 0.0
C252 C 0.43978 0.53597 0.11325 0.0
C253 C 0.40448 0.52156 0.12653 0.0
H254 H 0.48994 0.54845 0.1946 0.0
C255 C 0.3936 0.5077 0.23704 0.0
H256 H 0.44921 0.54752 0.03067 0.0
C257 C 0.41699 0.50875 0.33153 0.0
C258 C 0.45201 0.52337 0.31806 0.0
H259 H 0.36703 0.49579 0.25075 0.0
H260 H 0.40751 0.49831 0.41585 0.0
C261 C 0.46328 0.53662 0.20743 0.0
C262 C 0.06567 0.40046 0.26418 0.0
C263 C 0.05111 0.4039 0.15204 0.0
H264 H 0.07378 0.4225 0.43916 0.0
C265 C 0.03455 0.43465 0.13084 0.0
H266 H 0.07936 0.37777 0.28367 0.0
C267 C 1.03224 0.46081 0.21949 0.0
C268 C 0.04588 0.45663 0.33217 0.0
H269 H 1.02247 0.43825 0.04663 0.0
H270 H 1.01863 0.48368 0.20119 0.0
C271 C 0.06287 0.42635 0.35311 0.0
C272 C 0.93395 1.0084 -0.02667 0.0
C273 C 0.89771 1.00536 0.94576 0.0
H274 H 0.98779 1.0183 0.9076 0.0
C275 C 0.88837 1.00924 0.82763 0.0
H276 H 0.94197 1.00538 0.06369 0.0
C277 C 0.91429 1.01605 0.73933 0.0
C278 C 0.95046 1.01964 0.76619 0.0
H279 H 0.86087 1.00625 0.80261 0.0
H280 H 0.90574 1.01861 0.64928 0.0
C281 C 0.96015 1.01575 0.88429 0.0
C282 C 0.52797 0.89273 0.86064 0.0
C283 C 0.55387 0.89709 0.94799 0.0
H284 H 0.50381 0.91469 0.71305 0.0
C285 C 0.57727 0.92727 0.94603 0.0
H286 H 0.50936 0.86998 0.85982 0.0
C287 C 0.57406 0.95294 0.86253 0.0
C288 C 0.54729 0.94934 0.77809 0.0
H289 H 0.59789 0.93137 0.01071 0.0
H290 H 0.59226 0.97597 0.86601 0.0
C291 C 0.52465 0.91856 0.77698 0.0
C292 C 0.67197 0.52258 0.84415 0.0
C293 C 0.66409 0.54516 0.93988 0.0
H294 H 0.65614 0.4993 0.67799 0.0
C295 C 0.63207 0.56177 0.93837 0.0
H296 H 0.69571 0.5086 0.84272 0.0
C297 C 0.60875 0.55587 0.84359 0.0
C298 C 0.61709 0.53342 0.74813 0.0
H299 H 0.62513 0.5796 0.00986 0.0
H300 H 0.58449 0.56906 0.84447 0.0
C301 C 0.64895 0.51695 0.74981 0.0
C302 C 1.004 0.68075 0.80448 0.0
C303 C 1.01369 0.67389 0.92064 0.0
H304 H 1.001 0.66275 0.62277 0.0
C305 C 1.02737 0.64157 0.94065 0.0
H306 H 0.99273 0.70484 0.78528 0.0
C307 C 1.03134 0.61706 0.84757 0.0
C308 C 1.02226 0.62439 0.73162 0.0
H309 H 0.03575 0.63534 0.02803 0.0
H310 H 0.04239 0.59276 0.86588 0.0
C311 C 1.00839 0.65641 0.71129 0.0
C312 C 1.01119 0.21087 0.34517 0.0
C313 C 0.99952 0.21115 0.22832 0.0
H314 H 1.01673 0.17988 0.49681 0.0
C315 C 0.97525 0.18413 0.18828 0.0
H316 H 1.02991 0.23131 0.37796 0.0
C317 C 0.96964 0.15374 0.25254 0.0
C318 C 0.98622 0.15126 0.36091 0.0
H319 H 0.96582 0.18395 0.09832 0.0
H320 H 0.95512 0.13128 0.21269 0.0
C321 C 1.00419 0.18105 0.41198 0.0
C322 C 0.35109 1.01098 0.29881 0.0
C323 C 0.35005 0.99203 0.1907 0.0
H324 H 0.38138 1.02529 0.4522 0.0
C325 C 0.37257 0.96482 0.17234 0.0
H326 H 0.33397 0.03197 0.31528 0.0
C327 C 0.40044 0.96161 0.24889 0.0
C328 C 0.40527 0.98505 0.34551 0.0
H329 H 0.37201 0.94972 0.0896 0.0
H330 H 0.42021 0.94358 0.22491 0.0
C331 C 0.37869 1.00753 0.37602 0.0
C332 C 0.56584 0.36271 0.24053 0.0
C333 C 0.58232 0.36256 0.1277 0.0
H334 H 0.54821 0.39431 0.38555 0.0
C335 C 0.60532 0.39156 0.09572 0.0
H336 H 0.5486 0.3406 0.26885 0.0
C337 C 0.60414 0.42302 0.16075 0.0
C338 C 0.5812 0.42482 0.26019 0.0
H339 H 0.61889 0.39176 0.00961 0.0
H340 H 0.61809 0.44634 0.12661 0.0
C341 C 0.56471 0.3939 0.30541 0.0
C342 C 0.20382 0.55802 0.26272 0.0
C343 C 0.21596 0.57705 0.16385 0.0
H344 H 0.15968 0.5453 0.3791 0.0
C345 C 0.19766 0.60579 0.13242 0.0
H346 H 0.21674 0.53517 0.28634 0.0
C347 C 0.16486 0.61183 0.18726 0.0
C348 C 0.15063 0.58947 0.27484 0.0
H349 H 0.20616 0.62035 0.05455 0.0
H350 H 0.14956 0.63203 0.15511 0.0
C351 C 0.1709 0.56356 0.31524 0.0
C352 C 0.09837 0.89252 0.94296 0.0
C353 C 0.07475 0.86514 0.90131 0.0
H354 H 0.11846 0.94534 0.91767 0.0
C355 C 0.06473 0.86464 0.78247 0.0
H356 H 0.10669 0.89323 0.03431 0.0
C357 C 0.07233 0.89414 0.71453 0.0
C358 C 0.08939 0.92434 0.76617 0.0
H359 H 0.04666 0.84385 0.74816 0.0
H360 H 0.06082 0.89475 0.62776 0.0
C361 C 0.10464 0.92256 0.87721 0.0
C362 C 0.71622 0.04788 0.79124 0.0
C363 C 0.71969 0.06809 0.89631 0.0
H364 H 0.68459 0.03497 0.64003 0.0
C365 C 0.70023 0.09774 0.911 0.0
H366 H 0.73096 1.02505 0.77709 0.0
C367 C 0.67272 0.10277 0.83476 0.0
C368 C 0.66533 0.07878 0.74138 0.0
H369 H 0.70286 0.11404 -0.00919 0.0
H370 H 0.65515 0.12306 0.85633 0.0
C371 C 0.68919 0.05329 0.71382 0.0
C372 C 0.50172 0.70374 0.8135 0.0
C373 C 0.49379 0.70269 0.93569 0.0
H374 H 0.50317 0.67439 0.64946 0.0
C375 C 0.47203 0.67439 -0.02028 0.0
H376 H 0.51836 0.72519 0.77733 0.0
C377 C 0.46524 0.64449 0.90867 0.0
C378 C 0.47809 0.6436 0.791 0.0
H379 H 0.46525 0.67323 0.07379 0.0
H380 H 0.45283 0.62125 0.9485 0.0
C381 C 0.49347 0.67435 0.74093 0.0
C382 C 0.86393 0.51946 0.80096 0.0
C383 C 0.85419 0.50225 0.90576 0.0
H384 H 0.90565 0.5312 0.67481 0.0
C385 C 0.87449 0.47539 0.94135 0.0
H386 H 0.84948 0.54097 0.77398 0.0
C387 C 0.90694 0.46979 0.88345 0.0
C388 C 0.91866 0.49042 0.78804 0.0
H389 H 0.86781 0.4623 0.0237 0.0
H390 H 0.92387 0.45136 0.91838 0.0
C391 C 0.89632 0.5141 0.74445 0.0
C392 C 0.07445 0.18964 0.77358 0.0
C393 C 0.08053 0.18886 0.89561 0.0
H394 H 0.06709 0.16027 0.61153 0.0
C395 C 0.09125 0.15783 0.94203 0.0
H396 H 0.0662 0.21293 0.73461 0.0
C397 C 0.09041 0.12706 0.87246 0.0
C398 C 0.07992 0.12702 0.75407 0.0
H399 H 0.09694 0.15655 0.03546 0.0
H400 H 0.09559 0.10302 0.91365 0.0
C401 C 0.07441 0.1591 0.70341 0.0
C402 C 0.40695 0.08328 0.83502 0.0
C403 C 0.38746 0.05081 0.82694 0.0
H404 H 0.45679 0.11225 0.79801 0.0
C405 C 0.40274 1.02314 0.76632 0.0
H406 H 0.39618 0.10469 0.88482 0.0
C407 C 0.4376 1.02686 0.72305 0.0
C408 C 0.45777 0.05879 0.73425 0.0
H409 H 0.3887 0.99759 0.76209 0.0
H410 H 0.44922 1.00407 0.68537 0.0
C411 C 0.44183 0.08735 0.78772 0.0
C412 C 0.48697 0.40764 0.88523 0.0
C413 C 0.49795 0.37766 0.82371 0.0
H414 H 0.48134 0.46253 0.87974 0.0
C415 C 0.50294 0.37866 0.70024 0.0
H416 H 0.48293 0.40755 -0.01909 0.0
C417 C 0.50169 0.41012 0.64218 0.0
C418 C 0.49606 0.44132 0.7067 0.0
H419 H 0.5116 0.35621 0.65056 0.0
H420 H 0.50817 0.41038 0.54799 0.0
C421 C 0.48648 0.4393 0.82765 0.0
C422 C 0.15977 0.48782 0.85931 0.0
C423 C 0.19171 0.50453 0.81483 0.0
H424 H 0.10336 0.47932 0.84167 0.0
C425 C 0.19174 0.52034 0.70485 0.0
H426 H 0.15896 0.47597 0.94543 0.0
C427 C 0.15991 0.52309 0.64767 0.0
C428 C 0.12736 0.50951 0.69743 0.0
H429 H 0.21559 0.53427 0.67018 0.0
H430 H 0.16066 0.53863 0.56985 0.0
C431 C 0.12781 0.49041 0.80136 0.0
C432 C 0.99745 0.88454 0.34861 0.0
C433 C 0.99069 0.88561 0.22719 0.0
H434 H 1.00677 0.91375 0.5101 0.0
C435 C 0.98038 0.91691 0.18179 0.0
H436 H 1.00554 0.86099 0.38624 0.0
C437 C 0.98228 0.94763 0.25159 0.0
C438 C 0.99361 0.94739 0.36899 0.0
H439 H 0.97464 0.91841 0.08846 0.0
H440 H 0.97747 0.97184 0.21095 0.0
C441 C 0.99872 0.91511 0.41899 0.0
C442 C 0.66354 0.98593 0.27227 0.0
C443 C 0.68285 1.01856 0.27532 0.0
H444 H 0.61343 0.9574 0.30846 0.0
C445 C 0.66705 0.04705 0.32881 0.0
H446 H 0.67477 0.96379 0.22819 0.0
C447 C 0.63183 0.04383 0.36884 0.0
C448 C 0.6118 1.01171 0.36122 0.0
H449 H 0.681 0.07264 0.32955 0.0
H450 H 0.61988 0.06701 0.40166 0.0
C451 C 0.62826 0.98247 0.31566 0.0
C452 C 0.56766 0.69063 0.3676 0.0
C453 C 0.57814 0.69107 0.24717 0.0
H454 H 0.55608 0.65964 0.51996 0.0
C455 C 0.59264 0.66132 0.19564 0.0
H456 H 0.55615 0.71293 0.40953 0.0
C457 C 0.59147 0.63026 0.25735 0.0
C458 C 0.57657 0.62857 0.37286 0.0
H459 H 0.60095 0.66095 0.10271 0.0
H460 H 0.59968 0.60704 0.21127 0.0
C461 C 0.56707 0.65972 0.43009 0.0
C462 C 0.90847 0.59482 0.20445 0.0
C463 C 0.87672 0.57763 0.24879 0.0
H464 H 0.96493 0.60358 0.22112 0.0
C465 C 0.87705 0.56157 0.3582 0.0
H466 H 0.90904 0.60688 0.11872 0.0
C467 C 0.90903 0.55891 0.41438 0.0
C468 C 0.94139 0.57289 0.36473 0.0
H469 H 0.85342 0.54723 0.39275 0.0
H470 H 0.90861 0.54301 0.491 0.0
C471 C 0.9406 0.59228 0.26157 0.0
loop_
_geom_bond_atom_site_label_1
_geom_bond_atom_site_label_2
_geom_bond_distance
_geom_bond_site_symmetry_2
_ccdc_geom_bond_type
H0 C1 0.949 1_556 S
C1 H0 0.949 1_554 S
C1 C2 1.395 . S
C1 C3 1.391 . S
C2 C1 1.395 . S
C2 C5 1.390 . S
C3 C1 1.391 . S
C3 C7 1.387 . S
C3 C8 1.491 . S
H4 C5 0.950 . S
C5 C2 1.390 . S
C5 H4 0.950 . S
C5 C6 1.378 . S
C6 C5 1.378 . S
C6 C7 1.409 . S
C7 C3 1.387 . S
C7 C6 1.409 . S
C7 H9 0.951 . S
C8 C3 1.491 . S
C8 C10 1.382 . S
C8 C12 1.404 . S
H9 C7 0.951 . S
C10 C8 1.382 . S
C10 C11 1.390 . S
C10 H15 0.949 1_554 S
C11 C10 1.390 . S
C11 C16 1.399 . S
C12 C8 1.404 . S
C12 H13 0.950 . S
C12 C14 1.375 . S
H13 C12 0.950 . S
C14 C12 1.375 . S
C14 C16 1.382 . S
C14 H18 0.950 . S
H15 C10 0.949 1_556 S
C16 C11 1.399 . S
C16 C14 1.382 . S
C16 H17 0.952 . S
H17 C16 0.952 . S
H18 C14 0.950 . S
H19 C20 0.949 . S
C20 H19 0.949 . S
C20 C21 1.395 . S
C20 C22 1.391 1_556 S
C21 C20 1.395 . S
C21 C24 1.389 1_656 S
C22 C20 1.391 1_554 S
C22 C26 1.387 . S
C22 C27 1.491 . S
H23 C24 0.951 . S
C24 C21 1.389 1_454 S
C24 H23 0.951 . S
C24 C25 1.378 1_455 S
C25 C24 1.378 1_655 S
C25 C26 1.409 . S
C26 C22 1.387 . S
C26 C25 1.409 . S
C26 H28 0.951 . S
C27 C22 1.491 . S
C27 C29 1.382 . S
C27 C31 1.404 . S
H28 C26 0.951 . S
C29 C27 1.382 . S
C29 C30 1.390 1_554 S
C29 H34 0.949 1_654 S
C30 C29 1.390 1_556 S
C30 C35 1.399 1_556 S
C31 C27 1.404 . S
C31 H32 0.950 . S
C31 C33 1.375 . S
H32 C31 0.950 . S
C33 C31 1.375 . S
C33 C35 1.382 . S
C33 H37 0.950 . S
H34 C29 0.949 1_456 S
C35 C30 1.399 1_554 S
C35 C33 1.382 . S
C35 H36 0.952 . S
H36 C35 0.952 . S
H37 C33 0.950 . S
H38 C39 0.949 . S
C39 H38 0.949 . S
C39 C40 1.395 . S
C39 C41 1.391 1_556 S
C40 C39 1.395 . S
C40 C43 1.390 1_556 S
C41 C39 1.391 1_554 S
C41 C45 1.387 . S
C41 C46 1.491 . S
H42 C43 0.950 . S
C43 C40 1.390 1_554 S
C43 H42 0.950 . S
C43 C44 1.378 . S
C44 C43 1.378 . S
C44 C45 1.409 . S
C45 C41 1.387 . S
C45 C44 1.409 . S
C45 H47 0.951 . S
C46 C41 1.491 . S
C46 C48 1.382 1_554 S
C46 C50 1.404 . S
H47 C45 0.951 . S
C48 C46 1.382 1_556 S
C48 C49 1.390 . S
C48 H53 0.949 . S
C49 C48 1.390 . S
C49 C54 1.399 1_556 S
C50 C46 1.404 . S
C50 H51 0.950 . S
C50 C52 1.375 . S
H51 C50 0.950 . S
C52 C50 1.375 . S
C52 C54 1.382 . S
C52 H56 0.950 . S
H53 C48 0.949 . S
C54 C49 1.399 1_554 S
C54 C52 1.382 . S
C54 H55 0.952 . S
H55 C54 0.952 . S
H56 C52 0.950 . S
H57 C58 0.949 1_556 S
C58 H57 0.949 1_554 S
C58 C59 1.395 . S
C58 C60 1.391 . S
C59 C58 1.395 . S
C59 C62 1.390 . S
C60 C58 1.391 . S
C60 C64 1.387 . S
C60 C65 1.491 . S
H61 C62 0.950 . S
C62 C59 1.390 . S
C62 H61 0.950 . S
C62 C63 1.378 . S
C63 C62 1.378 . S
C63 C64 1.409 . S
C64 C60 1.387 . S
C64 C63 1.409 . S
C64 H66 0.951 . S
C65 C60 1.491 . S
C65 C67 1.382 . S
C65 C69 1.404 . S
H66 C64 0.951 . S
C67 C65 1.382 . S
C67 C68 1.390 . S
C67 H72 0.949 . S
C68 C67 1.390 . S
C68 C73 1.399 . S
C69 C65 1.404 . S
C69 H70 0.950 . S
C69 C71 1.375 . S
H70 C69 0.950 . S
C71 C69 1.375 . S
C71 C73 1.382 . S
C71 H75 0.950 . S
H72 C67 0.949 . S
C73 C68 1.399 . S
C73 C71 1.382 . S
C73 H74 0.952 . S
H74 C73 0.952 . S
H75 C71 0.950 . S
H76 C77 0.949 . S
C77 H76 0.949 . S
C77 C78 1.395 . S
C77 C79 1.391 . S
C78 C77 1.395 . S
C78 C81 1.390 . S
C79 C77 1.391 . S
C79 C83 1.387 1_554 S
C79 C84 1.491 . S
H80 C81 0.950 . S
C81 C78 1.390 . S
C81 H80 0.950 . S
C81 C82 1.378 1_554 S
C82 C81 1.378 1_556 S
C82 C83 1.409 . S
C83 C79 1.387 1_556 S
C83 C82 1.409 . S
C83 H85 0.951 . S
C84 C79 1.491 . S
C84 C86 1.382 . S
C84 C88 1.404 1_554 S
H85 C83 0.951 . S
C86 C84 1.382 . S
C86 C87 1.390 . S
C86 H91 0.949 . S
C87 C86 1.390 . S
C87 C92 1.399 . S
C88 C84 1.404 1_556 S
C88 H89 0.950 . S
C88 C90 1.375 . S
H89 C88 0.950 . S
C90 C88 1.375 . S
C90 C92 1.382 1_556 S
C90 H94 0.950 . S
H91 C86 0.949 . S
C92 C87 1.399 . S
C92 C90 1.382 1_554 S
C92 H93 0.952 . S
H93 C92 0.952 . S
H94 C90 0.950 . S
H95 C96 0.949 . S
C96 H95 0.949 . S
C96 C97 1.395 1_655 S
C96 C98 1.391 . S
C97 C96 1.395 1_455 S
C97 C100 1.390 . S
C98 C96 1.391 . S
C98 C102 1.387 1_554 S
C98 C103 1.491 . S
H99 C100 0.950 . S
C100 C97 1.390 . S
C100 H99 0.950 . S
C100 C101 1.378 1_554 S
C101 C100 1.378 1_556 S
C101 C102 1.409 1_455 S
C102 C98 1.387 1_556 S
C102 C101 1.409 1_655 S
C102 H104 0.951 . S
C103 C98 1.491 . S
C103 C105 1.374 1_655 S
C103 C107 1.404 1_554 S
H104 C102 0.951 . S
C105 C103 1.374 1_455 S
C105 C106 1.384 1_455 S
C105 H110 0.962 . S
C106 C105 1.384 1_655 S
C106 C111 1.399 . S
C107 C103 1.404 1_556 S
C107 H108 0.950 . S
C107 C109 1.375 . S
H108 C107 0.950 . S
C109 C107 1.375 . S
C109 C111 1.382 1_556 S
C109 H113 0.950 . S
H110 C105 0.962 . S
C111 C106 1.399 . S
C111 C109 1.382 1_554 S
C111 H112 0.952 . S
H112 C111 0.952 . S
H113 C109 0.950 . S
H114 C115 0.949 . S
C115 H114 0.949 . S
C115 C116 1.395 . S
C115 C117 1.391 . S
C116 C115 1.395 . S
C116 C119 1.390 . S
C117 C115 1.391 . S
C117 C121 1.387 1_554 S
C117 C122 1.491 . S
H118 C119 0.950 . S
C119 C116 1.390 . S
C119 H118 0.950 . S
C119 C120 1.378 1_554 S
C120 C119 1.378 1_556 S
C120 C121 1.409 . S
C121 C117 1.387 1_556 S
C121 C120 1.409 . S
C121 H123 0.951 . S
C122 C117 1.491 . S
C122 C124 1.382 . S
C122 C126 1.404 1_554 S
H123 C121 0.951 . S
C124 C122 1.382 . S
C124 C125 1.390 . S
C124 H129 0.949 . S
C125 C124 1.390 . S
C125 C130 1.399 . S
C126 C122 1.404 1_556 S
C126 H127 0.950 1_545 S
C126 C128 1.375 1_545 S
H127 C126 0.950 1_565 S
C128 C126 1.375 1_565 S
C128 C130 1.382 1_566 S
C128 H132 0.950 . S
H129 C124 0.949 . S
C130 C125 1.399 . S
C130 C128 1.382 1_544 S
C130 H131 0.952 . S
H131 C130 0.952 . S
H132 C128 0.950 . S
H133 C134 0.949 . S
C134 H133 0.949 . S
C134 C135 1.395 . S
C134 C136 1.391 1_554 S
C135 C134 1.395 . S
C135 C138 1.390 1_554 S
C136 C134 1.391 1_556 S
C136 C140 1.387 . S
C136 C141 1.491 . S
H137 C138 0.950 . S
C138 C135 1.390 1_556 S
C138 H137 0.950 . S
C138 C139 1.378 . S
C139 C138 1.378 . S
C139 C140 1.409 . S
C140 C136 1.387 . S
C140 C139 1.409 . S
C140 H142 0.951 . S
C141 C136 1.491 . S
C141 C143 1.382 1_556 S
C141 C145 1.404 . S
H142 C140 0.951 . S
C143 C141 1.382 1_554 S
C143 C144 1.390 . S
C143 H148 0.949 . S
C144 C143 1.390 . S
C144 C149 1.399 1_554 S
C145 C141 1.404 . S
C145 H146 0.950 . S
C145 C147 1.375 . S
H146 C145 0.950 . S
C147 C145 1.375 . S
C147 C149 1.382 . S
C147 H151 0.950 . S
H148 C143 0.949 . S
C149 C144 1.399 1_556 S
C149 C147 1.382 . S
C149 H150 0.952 . S
H150 C149 0.952 . S
H151 C147 0.950 . S
Dy152 O156 2.398 . S
Dy152 O157 2.491 1_455 S
Dy152 O158 2.403 . S
Dy152 O159 2.664 1_565 S
Dy152 O163 2.326 . S
Dy152 O167 2.310 1_455 S
Dy152 O168 2.351 1_565 S
C153 O164 1.185 . S
C153 O165 1.355 1_655 S
C154 O156 1.185 . S
C154 O157 1.355 1_455 S
Dy155 O159 2.310 1_655 S
Dy155 O162 2.351 1_545 S
Dy155 O164 2.398 . S
Dy155 O165 2.491 1_655 S
Dy155 O166 2.403 . S
Dy155 O167 2.664 1_545 S
Dy155 O169 2.326 . S
O156 Dy152 2.398 . S
O156 C154 1.185 . S
O157 Dy152 2.491 1_655 S
O157 C154 1.355 1_655 S
O158 Dy152 2.403 . S
O158 C160 1.254 1_565 S
O159 Dy152 2.664 1_545 S
O159 Dy155 2.310 1_455 S
O159 C160 1.268 . S
C160 O158 1.254 1_545 S
C160 O159 1.268 . S
C161 O166 1.233 1_565 S
C161 O167 1.278 . S
O162 Dy155 2.351 1_565 S
O162 C170 1.249 . S
O163 Dy152 2.326 . S
O163 C170 1.267 1_455 S
O164 C153 1.185 . S
O164 Dy155 2.398 . S
O165 C153 1.355 1_455 S
O165 Dy155 2.491 1_455 S
O166 Dy155 2.403 . S
O166 C161 1.233 1_545 S
O167 Dy152 2.310 1_655 S
O167 Dy155 2.664 1_565 S
O167 C161 1.278 . S
O168 Dy152 2.351 1_545 S
O168 C171 1.249 . S
O169 Dy155 2.326 . S
O169 C171 1.267 1_655 S
C170 O162 1.249 . S
C170 O163 1.267 1_655 S
C171 O168 1.249 . S
C171 O169 1.267 1_455 S
Dy172 O176 2.398 . S
Dy172 O177 2.491 1_565 S
Dy172 O178 2.403 . S
Dy172 O179 2.664 . S
Dy172 O183 2.326 1_565 S
Dy172 O187 2.310 1_565 S
Dy172 O188 2.351 . S
C173 O184 1.185 . S
C173 O185 1.355 1_545 S
C174 O176 1.185 1_545 S
C174 O177 1.355 . S
Dy175 O179 2.310 1_545 S
Dy175 O182 2.351 . S
Dy175 O184 2.398 . S
Dy175 O185 2.491 1_545 S
Dy175 O186 2.403 . S
Dy175 O187 2.664 . S
Dy175 O189 2.326 1_545 S
O176 Dy172 2.398 . S
O176 C174 1.185 1_565 S
O177 Dy172 2.491 1_545 S
O177 C174 1.355 . S
O178 Dy172 2.403 . S
O178 C180 1.254 . S
O179 Dy172 2.664 . S
O179 Dy175 2.310 1_565 S
O179 C180 1.268 . S
C180 O178 1.254 . S
C180 O179 1.268 . S
C181 O186 1.254 . S
C181 O187 1.268 . S
O182 Dy175 2.351 . S
O182 C190 1.249 . S
O183 Dy172 2.326 1_545 S
O183 C190 1.267 . S
O184 C173 1.185 . S
O184 Dy175 2.398 . S
O185 C173 1.355 1_565 S
O185 Dy175 2.491 1_565 S
O186 Dy175 2.403 . S
O186 C181 1.254 . S
O187 Dy172 2.310 1_545 S
O187 Dy175 2.664 . S
O187 C181 1.268 . S
O188 Dy172 2.351 . S
O188 C191 1.249 . S
O189 Dy175 2.326 1_565 S
O189 C191 1.267 . S
C190 O182 1.249 . S
C190 O183 1.267 . S
C191 O188 1.249 . S
C191 O189 1.267 . S
Dy192 O196 2.398 . S
Dy192 O197 2.491 . S
Dy192 O198 2.403 . S
Dy192 O199 2.664 . S
Dy192 O203 2.326 . S
Dy192 O207 2.310 . S
Dy192 O208 2.351 . S
C193 O204 1.185 . S
C193 O205 1.355 . S
C194 O196 1.185 . S
C194 O197 1.355 . S
Dy195 O199 2.310 . S
Dy195 O202 2.351 . S
Dy195 O204 2.398 . S
Dy195 O205 2.491 . S
Dy195 O206 2.403 . S
Dy195 O207 2.664 . S
Dy195 O209 2.326 . S
O196 Dy192 2.398 . S
O196 C194 1.185 . S
O197 Dy192 2.491 . S
O197 C194 1.355 . S
O198 Dy192 2.403 . S
O198 C200 1.254 . S
O199 Dy192 2.664 . S
O199 Dy195 2.310 . S
O199 C200 1.268 . S
C200 O198 1.254 . S
C200 O199 1.268 . S
C201 O206 1.254 . S
C201 O207 1.268 . S
O202 Dy195 2.351 . S
O202 C210 1.249 . S
O203 Dy192 2.326 . S
O203 C210 1.267 . S
O204 C193 1.185 . S
O204 Dy195 2.398 . S
O205 C193 1.355 . S
O205 Dy195 2.491 . S
O206 Dy195 2.403 . S
O206 C201 1.254 . S
O207 Dy192 2.310 . S
O207 Dy195 2.664 . S
O207 C201 1.268 . S
O208 Dy192 2.351 . S
O208 C211 1.249 . S
O209 Dy195 2.326 . S
O209 C211 1.267 . S
C210 O202 1.249 . S
C210 O203 1.267 . S
C211 O208 1.249 . S
C211 O209 1.267 . S
Dy212 O216 2.398 . S
Dy212 O217 2.491 . S
Dy212 O218 2.403 . S
Dy212 O219 2.664 1_655 S
Dy212 O223 2.326 . S
Dy212 O227 2.310 . S
Dy212 O228 2.351 1_655 S
C213 O224 1.185 . S
C213 O225 1.355 . S
C214 O216 1.185 . S
C214 O217 1.355 . S
Dy215 O219 2.310 . S
Dy215 O222 2.351 1_455 S
Dy215 O224 2.398 . S
Dy215 O225 2.491 . S
Dy215 O226 2.403 . S
Dy215 O227 2.664 1_455 S
Dy215 O229 2.326 . S
O216 Dy212 2.398 . S
O216 C214 1.185 . S
O217 Dy212 2.491 . S
O217 C214 1.355 . S
O218 Dy212 2.403 . S
O218 C220 1.254 . S
O219 Dy212 2.664 1_455 S
O219 Dy215 2.310 . S
O219 C220 1.268 1_455 S
C220 O218 1.254 . S
C220 O219 1.268 1_655 S
C221 O226 1.254 . S
C221 O227 1.268 1_455 S
O222 Dy215 2.351 1_655 S
O222 C230 1.249 . S
O223 Dy212 2.326 . S
O223 C230 1.267 . S
O224 C213 1.185 . S
O224 Dy215 2.398 . S
O225 C213 1.355 . S
O225 Dy215 2.491 . S
O226 Dy215 2.403 . S
O226 C221 1.254 . S
O227 Dy212 2.310 . S
O227 Dy215 2.664 1_655 S
O227 C221 1.268 1_655 S
O228 Dy212 2.351 1_455 S
O228 C231 1.249 . S
O229 Dy215 2.326 . S
O229 C231 1.267 . S
C230 O222 1.249 . S
C230 O223 1.267 . S
C231 O228 1.249 . S
C231 O229 1.267 . S
C232 C233 1.387 . S
C232 H236 0.950 . S
C232 C241 1.390 . S
C233 C232 1.387 . S
C233 C235 1.387 . S
H234 C241 0.950 1_565 S
C235 C233 1.387 . S
C235 C237 1.390 . S
C235 H239 0.950 . S
H236 C232 0.950 . S
C237 C235 1.390 . S
C237 C238 1.387 . S
C237 H240 0.950 . S
C238 C237 1.387 . S
C238 C241 1.387 . S
H239 C235 0.950 . S
H240 C237 0.950 . S
C241 C232 1.390 . S
C241 H234 0.950 1_545 S
C241 C238 1.387 . S
C242 C243 1.387 . S
C242 H246 0.950 . S
C242 C251 1.390 . S
C243 C242 1.387 . S
C243 C245 1.387 . S
H244 C251 0.950 . S
C245 C243 1.387 . S
C245 C247 1.390 . S
C245 H249 0.950 . S
H246 C242 0.950 . S
C247 C245 1.390 . S
C247 C248 1.387 . S
C247 H250 0.950 . S
C248 C247 1.387 . S
C248 C251 1.387 . S
H249 C245 0.950 . S
H250 C247 0.950 . S
C251 C242 1.390 . S
C251 H244 0.950 . S
C251 C248 1.387 . S
C252 C253 1.387 . S
C252 H256 0.950 . S
C252 C261 1.390 . S
C253 C252 1.387 . S
C253 C255 1.387 . S
H254 C261 0.950 . S
C255 C253 1.387 . S
C255 C257 1.390 . S
C255 H259 0.950 . S
H256 C252 0.950 . S
C257 C255 1.390 . S
C257 C258 1.387 . S
C257 H260 0.950 . S
C258 C257 1.387 . S
C258 C261 1.387 . S
H259 C255 0.950 . S
H260 C257 0.950 . S
C261 C252 1.390 . S
C261 H254 0.950 . S
C261 C258 1.387 . S
C262 C263 1.387 . S
C262 H266 0.950 . S
C262 C271 1.390 . S
C263 C262 1.387 . S
C263 C265 1.387 1_455 S
H264 C271 0.950 . S
C265 C263 1.387 1_655 S
C265 C267 1.390 . S
C265 H269 0.950 . S
H266 C262 0.950 . S
C267 C265 1.390 . S
C267 C268 1.388 1_655 S
C267 H270 0.950 . S
C268 C267 1.388 1_455 S
C268 C271 1.387 . S
H269 C265 0.950 . S
H270 C267 0.950 . S
C271 C262 1.390 . S
C271 H264 0.950 . S
C271 C268 1.387 . S
C272 C273 1.387 . S
C272 H276 0.950 . S
C272 C281 1.390 . S
C273 C272 1.387 . S
C273 C275 1.387 . S
H274 C281 0.950 . S
C275 C273 1.387 . S
C275 C277 1.390 . S
C275 H279 0.950 . S
H276 C272 0.950 . S
C277 C275 1.390 . S
C277 C278 1.387 . S
C277 H280 0.950 1_565 S
C278 C277 1.387 . S
C278 C281 1.387 . S
H279 C275 0.950 . S
H280 C277 0.950 1_545 S
C281 C272 1.390 . S
C281 H274 0.950 . S
C281 C278 1.387 . S
C282 C283 1.387 . S
C282 H286 0.950 . S
C282 C291 1.390 . S
C283 C282 1.387 . S
C283 C285 1.387 . S
H284 C291 0.950 . S
C285 C283 1.387 . S
C285 C287 1.390 . S
C285 H289 0.950 . S
H286 C282 0.950 . S
C287 C285 1.390 . S
C287 C288 1.387 . S
C287 H290 0.950 . S
C288 C287 1.387 . S
C288 C291 1.387 . S
H289 C285 0.950 . S
H290 C287 0.950 . S
C291 C282 1.390 . S
C291 H284 0.950 . S
C291 C288 1.387 . S
C292 C293 1.387 . S
C292 H296 0.950 . S
C292 C301 1.390 . S
C293 C292 1.387 . S
C293 C295 1.387 . S
H294 C301 0.950 . S
C295 C293 1.387 . S
C295 C297 1.390 . S
C295 H299 0.950 . S
H296 C292 0.950 . S
C297 C295 1.390 . S
C297 C298 1.387 . S
C297 H300 0.950 . S
C298 C297 1.387 . S
C298 C301 1.387 . S
H299 C295 0.950 . S
H300 C297 0.950 . S
C301 C292 1.390 . S
C301 H294 0.950 . S
C301 C298 1.387 . S
C302 C303 1.387 . S
C302 H306 0.950 . S
C302 C311 1.390 . S
C303 C302 1.387 . S
C303 C305 1.387 1_655 S
H304 C311 0.950 . S
C305 C303 1.387 1_455 S
C305 C307 1.390 . S
C305 H309 0.950 . S
H306 C302 0.950 . S
C307 C305 1.390 . S
C307 C308 1.402 . S
C307 H310 0.950 . S
C308 C307 1.402 . S
C308 C311 1.372 1_455 S
H309 C305 0.950 . S
H310 C307 0.950 . S
C311 C302 1.390 . S
C311 H304 0.950 . S
C311 C308 1.372 1_655 S
C312 C313 1.389 . S
C312 H316 0.950 . S
C312 C321 1.388 1_455 S
C313 C312 1.389 . S
C313 C315 1.385 1_455 S
H314 C321 0.943 1_455 S
C315 C313 1.385 1_655 S
C315 C317 1.390 . S
C315 H319 0.950 . S
H316 C312 0.950 . S
C317 C315 1.390 . S
C317 C318 1.387 . S
C317 H320 0.950 . S
C318 C317 1.387 . S
C318 C321 1.398 . S
H319 C315 0.950 . S
H320 C317 0.950 . S
C321 C312 1.388 1_655 S
C321 H314 0.943 1_655 S
C321 C318 1.398 . S
C322 C323 1.387 . S
C322 H326 0.950 . S
C322 C331 1.390 . S
C323 C322 1.387 . S
C323 C325 1.387 . S
H324 C331 0.950 . S
C325 C323 1.387 . S
C325 C327 1.390 . S
C325 H329 0.950 . S
H326 C322 0.950 . S
C327 C325 1.390 . S
C327 C328 1.387 . S
C327 H330 0.950 . S
C328 C327 1.387 . S
C328 C331 1.387 . S
H329 C325 0.950 . S
H330 C327 0.950 . S
C331 C322 1.390 . S
C331 H324 0.950 . S
C331 C328 1.387 . S
C332 C333 1.387 . S
C332 H336 0.950 . S
C332 C341 1.390 . S
C333 C332 1.387 . S
C333 C335 1.387 . S
H334 C341 0.950 . S
C335 C333 1.387 . S
C335 C337 1.390 . S
C335 H339 0.950 . S
H336 C332 0.950 . S
C337 C335 1.390 . S
C337 C338 1.387 . S
C337 H340 0.950 . S
C338 C337 1.387 . S
C338 C341 1.387 . S
H339 C335 0.950 . S
H340 C337 0.950 . S
C341 C332 1.390 . S
C341 H334 0.950 . S
C341 C338 1.387 . S
C342 C343 1.387 . S
C342 H346 0.950 . S
C342 C351 1.390 . S
C343 C342 1.387 . S
C343 C345 1.387 . S
H344 C351 0.950 . S
C345 C343 1.387 . S
C345 C347 1.390 . S
C345 H349 0.950 . S
H346 C342 0.950 . S
C347 C345 1.390 . S
C347 C348 1.387 . S
C347 H350 0.950 . S
C348 C347 1.387 . S
C348 C351 1.387 . S
H349 C345 0.950 . S
H350 C347 0.950 . S
C351 C342 1.390 . S
C351 H344 0.950 . S
C351 C348 1.387 . S
C352 C353 1.386 . S
C352 H356 0.950 . S
C352 C361 1.390 . S
C353 C352 1.386 . S
C353 C355 1.389 1_455 S
H354 C361 0.950 . S
C355 C353 1.389 1_655 S
C355 C357 1.390 . S
C355 H359 0.950 . S
H356 C352 0.950 . S
C357 C355 1.390 . S
C357 C358 1.387 1_655 S
C357 H360 0.950 . S
C358 C357 1.387 1_455 S
C358 C361 1.387 . S
H359 C355 0.950 . S
H360 C357 0.950 . S
C361 C352 1.390 . S
C361 H354 0.950 . S
C361 C358 1.387 . S
C362 C363 1.387 . S
C362 H366 0.950 . S
C362 C371 1.390 . S
C363 C362 1.387 . S
C363 C365 1.387 1_556 S
H364 C371 0.950 . S
C365 C363 1.387 1_554 S
C365 C367 1.390 . S
C365 H369 0.950 . S
H366 C362 0.950 . S
C367 C365 1.390 . S
C367 C368 1.387 1_554 S
C367 H370 0.950 . S
C368 C367 1.387 1_556 S
C368 C371 1.387 . S
H369 C365 0.950 . S
H370 C367 0.950 . S
C371 C362 1.390 . S
C371 H364 0.950 . S
C371 C368 1.387 . S
C372 C373 1.387 . S
C372 H376 0.950 . S
C372 C381 1.390 . S
C373 C372 1.387 . S
C373 C375 1.387 1_556 S
H374 C381 0.950 . S
C375 C373 1.387 1_554 S
C375 C377 1.390 1_554 S
C375 H379 0.950 . S
H376 C372 0.950 . S
C377 C375 1.390 1_556 S
C377 C378 1.387 . S
C377 H380 0.950 1_556 S
C378 C377 1.387 . S
C378 C381 1.387 . S
H379 C375 0.950 . S
H380 C377 0.950 1_554 S
C381 C372 1.390 . S
C381 H374 0.950 . S
C381 C378 1.387 . S
C382 C383 1.387 . S
C382 H386 0.950 1_556 S
C382 C391 1.390 . S
C383 C382 1.387 . S
C383 C385 1.387 . S
H384 C391 0.950 . S
C385 C383 1.387 . S
C385 C387 1.390 . S
C385 H389 0.950 . S
H386 C382 0.950 1_554 S
C387 C385 1.390 . S
C387 C388 1.387 . S
C387 H390 0.950 . S
C388 C387 1.387 . S
C388 C391 1.387 . S
H389 C385 0.950 . S
H390 C387 0.950 . S
C391 C382 1.390 . S
C391 H384 0.950 . S
C391 C388 1.387 . S
C392 C393 1.387 . S
C392 H396 0.950 . S
C392 C401 1.390 . S
C393 C392 1.387 . S
C393 C395 1.387 1_455 S
H394 C401 0.950 . S
C395 C393 1.387 1_655 S
C395 C397 1.390 . S
C395 H399 0.950 1_556 S
H396 C392 0.950 . S
C397 C395 1.390 . S
C397 C398 1.387 1_655 S
C397 H400 0.950 . S
C398 C397 1.387 1_455 S
C398 C401 1.387 . S
H399 C395 0.950 1_554 S
H400 C397 0.950 . S
C401 C392 1.390 . S
C401 H394 0.950 . S
C401 C398 1.387 . S
C402 C403 1.387 . S
C402 H406 0.950 . S
C402 C411 1.390 . S
C403 C402 1.387 . S
C403 C405 1.387 . S
H404 C411 0.950 . S
C405 C403 1.387 . S
C405 C407 1.390 . S
C405 H409 0.950 1_545 S
H406 C402 0.950 . S
C407 C405 1.390 . S
C407 C408 1.387 . S
C407 H410 0.950 1_545 S
C408 C407 1.387 . S
C408 C411 1.387 . S
H409 C405 0.950 1_565 S
H410 C407 0.950 1_565 S
C411 C402 1.390 . S
C411 H404 0.950 . S
C411 C408 1.387 . S
C412 C413 1.387 . S
C412 H416 0.950 . S
C412 C421 1.390 . S
C413 C412 1.387 . S
C413 C415 1.387 . S
H414 C421 0.950 . S
C415 C413 1.387 . S
C415 C417 1.390 . S
C415 H419 0.950 . S
H416 C412 0.950 . S
C417 C415 1.390 . S
C417 C418 1.387 . S
C417 H420 0.950 . S
C418 C417 1.387 . S
C418 C421 1.387 . S
H419 C415 0.950 . S
H420 C417 0.950 . S
C421 C412 1.390 . S
C421 H414 0.950 . S
C421 C418 1.387 . S
C422 C423 1.387 . S
C422 H426 0.950 . S
C422 C431 1.390 . S
C423 C422 1.387 . S
C423 C425 1.387 . S
H424 C431 0.950 . S
C425 C423 1.387 . S
C425 C427 1.390 . S
C425 H429 0.950 . S
H426 C422 0.950 . S
C427 C425 1.390 . S
C427 C428 1.387 . S
C427 H430 0.950 . S
C428 C427 1.387 . S
C428 C431 1.387 . S
H429 C425 0.950 . S
H430 C427 0.950 . S
C431 C422 1.390 . S
C431 H424 0.950 . S
C431 C428 1.387 . S
C432 C433 1.387 1_455 S
C432 H436 0.950 . S
C432 C441 1.392 . S
C433 C432 1.387 1_655 S
C433 C435 1.387 . S
H434 C441 0.951 . S
C435 C433 1.387 . S
C435 C437 1.390 . S
C435 H439 0.950 . S
H436 C432 0.950 . S
C437 C435 1.390 . S
C437 C438 1.387 . S
C437 H440 0.950 . S
C438 C437 1.387 . S
C438 C441 1.384 1_655 S
H439 C435 0.950 . S
H440 C437 0.950 . S
C441 C432 1.392 . S
C441 H434 0.951 . S
C441 C438 1.384 1_455 S
C442 C443 1.387 . S
C442 H446 0.950 . S
C442 C451 1.390 . S
C443 C442 1.387 . S
C443 C445 1.387 . S
H444 C451 0.950 . S
C445 C443 1.387 . S
C445 C447 1.390 1_565 S
C445 H449 0.950 1_565 S
H446 C442 0.950 . S
C447 C445 1.390 1_545 S
C447 C448 1.387 1_545 S
C447 H450 0.950 . S
C448 C447 1.387 1_565 S
C448 C451 1.387 . S
H449 C445 0.950 1_545 S
H450 C447 0.950 . S
C451 C442 1.390 . S
C451 H444 0.950 . S
C451 C448 1.387 . S
C452 C453 1.387 . S
C452 H456 0.950 . S
C452 C461 1.390 . S
C453 C452 1.387 . S
C453 C455 1.387 . S
H454 C461 0.950 . S
C455 C453 1.387 . S
C455 C457 1.390 . S
C455 H459 0.950 . S
H456 C452 0.950 . S
C457 C455 1.390 . S
C457 C458 1.387 . S
C457 H460 0.950 . S
C458 C457 1.387 . S
C458 C461 1.387 . S
H459 C455 0.950 . S
H460 C457 0.950 . S
C461 C452 1.390 . S
C461 H454 0.950 . S
C461 C458 1.387 . S
C462 C463 1.387 . S
C462 H466 0.950 . S
C462 C471 1.390 . S
C463 C462 1.387 . S
C463 C465 1.387 . S
H464 C471 0.950 . S
C465 C463 1.387 . S
C465 C467 1.390 . S
C465 H469 0.950 . S
H466 C462 0.950 . S
C467 C465 1.390 . S
C467 C468 1.387 . S
C467 H470 0.950 . S
C468 C467 1.387 . S
C468 C471 1.387 . S
H469 C465 0.950 . S
H470 C467 0.950 . S
C471 C462 1.390 . S
C471 H464 0.950 . S
C471 C468 1.387 . S
C233 C125 1.620 . S
C238 C160 1.736 . S
C248 C190 1.803 . S
C243 C144 1.755 . S
C258 C200 1.634 . S
C253 C87 1.591 . S
C268 C220 1.516 1_455 S
C263 C106 1.470 1_455 S
C278 C161 1.744 . S
C273 C49 1.719 . S
C283 C68 1.833 1_556 S
C288 C191 1.802 . S
C293 C11 1.599 1_556 S
C298 C201 1.634 . S
C303 C30 1.478 . S
C308 C221 1.518 . S
C318 C153 1.077 . S
C313 C97 1.039 . S
C328 C174 0.967 . S
C323 C116 0.911 . S
C338 C193 1.221 . S
C333 C135 1.180 . S
C343 C78 0.960 . S
C348 C213 0.988 . S
C353 C21 1.039 1_455 S
C358 C154 1.078 . S
C368 C173 0.968 1_565 S
C363 C40 0.911 . S
C378 C194 1.218 . S
C373 C59 1.181 1_556 S
C383 C2 0.965 1_556 S
C388 C214 0.987 . S
C393 C101 1.536 . S
C398 C171 1.637 . S
C403 C120 1.487 . S
C408 C181 1.636 . S
C418 C211 1.828 . S
C413 C139 1.684 . S
C428 C231 1.798 . S
C423 C82 1.681 . S
C433 C25 1.534 . S
C438 C170 1.637 . S
C448 C180 1.635 . S
C443 C44 1.487 . S
C458 C210 1.827 . S
C453 C63 1.686 . S
C463 C6 1.676 . S
C468 C230 1.798 . S
