# Generated by pormake.
# Topology pto, (3,4)-cn, num edge types: 1
# Building blocks:
#     Node 0, Type 0, BuildingBlock: MIDCAF_clean_linker_0, # of connection points: 3
#     Node 1, Type 0, BuildingBlock: MIDCAF_clean_linker_0, # of connection points: 3
#     Node 2, Type 0, BuildingBlock: MIDCAF_clean_linker_0, # of connection points: 3
#     Node 3, Type 0, BuildingBlock: MIDCAF_clean_linker_0, # of connection points: 3
#     Node 4, Type 0, BuildingBlock: MIDCAF_clean_linker_0, # of connection points: 3
#     Node 5, Type 0, BuildingBlock: MIDCAF_clean_linker_0, # of connection points: 3
#     Node 6, Type 0, BuildingBlock: MIDCAF_clean_linker_0, # of connection points: 3
#     Node 7, Type 0, BuildingBlock: MIDCAF_clean_linker_0, # of connection points: 3
#     Node 8, Type 1, BuildingBlock: NAWXER_clean_sbu_0, # of connection points: 4
#     Node 9, Type 1, BuildingBlock: NAWXER_clean_sbu_0, # of connection points: 4
#     Node 10, Type 1, BuildingBlock: NAWXER_clean_sbu_0, # of connection points: 4
#     Node 11, Type 1, BuildingBlock: NAWXER_clean_sbu_0, # of connection points: 4
#     Node 12, Type 1, BuildingBlock: NAWXER_clean_sbu_0, # of connection points: 4
#     Node 13, Type 1, BuildingBlock: NAWXER_clean_sbu_0, # of connection points: 4
#     Edge 14, Type (0, 1), BuildingBlock: OJICUG_clean_linker_0, # of connection points: 2
#     Edge 15, Type (0, 1), BuildingBlock: OJICUG_clean_linker_0, # of connection points: 2
#     Edge 16, Type (0, 1), BuildingBlock: OJICUG_clean_linker_0, # of connection points: 2
#     Edge 17, Type (0, 1), BuildingBlock: OJICUG_clean_linker_0, # of connection points: 2
#     Edge 18, Type (0, 1), BuildingBlock: OJICUG_clean_linker_0, # of connection points: 2
#     Edge 19, Type (0, 1), BuildingBlock: OJICUG_clean_linker_0, # of connection points: 2
#     Edge 20, Type (0, 1), BuildingBlock: OJICUG_clean_linker_0, # of connection points: 2
#     Edge 21, Type (0, 1), BuildingBlock: OJICUG_clean_linker_0, # of connection points: 2
#     Edge 22, Type (0, 1), BuildingBlock: OJICUG_clean_linker_0, # of connection points: 2
#     Edge 23, Type (0, 1), BuildingBlock: OJICUG_clean_linker_0, # of connection points: 2
#     Edge 24, Type (0, 1), BuildingBlock: OJICUG_clean_linker_0, # of connection points: 2
#     Edge 25, Type (0, 1), BuildingBlock: OJICUG_clean_linker_0, # of connection points: 2
#     Edge 26, Type (0, 1), BuildingBlock: OJICUG_clean_linker_0, # of connection points: 2
#     Edge 27, Type (0, 1), BuildingBlock: OJICUG_clean_linker_0, # of connection points: 2
#     Edge 28, Type (0, 1), BuildingBlock: OJICUG_clean_linker_0, # of connection points: 2
#     Edge 29, Type (0, 1), BuildingBlock: OJICUG_clean_linker_0, # of connection points: 2
#     Edge 30, Type (0, 1), BuildingBlock: OJICUG_clean_linker_0, # of connection points: 2
#     Edge 31, Type (0, 1), BuildingBlock: OJICUG_clean_linker_0, # of connection points: 2
#     Edge 32, Type (0, 1), BuildingBlock: OJICUG_clean_linker_0, # of connection points: 2
#     Edge 33, Type (0, 1), BuildingBlock: OJICUG_clean_linker_0, # of connection points: 2
#     Edge 34, Type (0, 1), BuildingBlock: OJICUG_clean_linker_0, # of connection points: 2
#     Edge 35, Type (0, 1), BuildingBlock: OJICUG_clean_linker_0, # of connection points: 2
#     Edge 36, Type (0, 1), BuildingBlock: OJICUG_clean_linker_0, # of connection points: 2
#     Edge 37, Type (0, 1), BuildingBlock: OJICUG_clean_linker_0, # of connection points: 2
# Relax obj value: 0.000
# Max RMSD: 0.002
# Mean RMSD: 0.001
data_MOF--net-pto--node1-NAWXER_clean_sbu_0--node2-MIDCAF_clean_linker_0--edge1-OJICUG_clean_linker_0
_symmetry_space_group_name_H-M    P1
_symmetry_Int_Tables_number       1
_symmetry_cell_setting            triclinic
loop_
_symmetry_equiv_pos_as_xyz
'x, y, z'
_cell_length_a     41.248024
_cell_length_b     38.814065
_cell_length_c     36.40666
_cell_angle_alpha  89.730258
_cell_angle_beta   90.087853
_cell_angle_gamma 90.213833
loop_
_atom_site_label
_atom_site_type_symbol
_atom_site_fract_x
_atom_site_fract_y
_atom_site_fract_z
_atom_type_partial_charge
C0 C 0.33347 0.21298 0.14511 0.0
C1 C 0.33806 0.23959 0.11931 0.0
C2 C 0.31281 0.26329 0.11352 0.0
C3 C 0.28395 0.26086 0.13354 0.0
H4 H 0.20041 0.31484 0.15748 0.0
H5 H 0.16152 0.36205 0.15696 0.0
H6 H 0.10326 0.30808 0.23731 0.0
H7 H 0.14219 0.26128 0.23846 0.0
H8 H 0.17655 0.20318 0.28772 0.0
H9 H 0.17605 0.16181 0.3384 0.0
H10 H 0.25476 0.10646 0.2878 0.0
H11 H 0.25588 0.14808 0.23779 0.0
H12 H 0.30224 0.18991 0.1851 0.0
H13 H 0.3525 0.1945 0.15058 0.0
H14 H 0.31529 0.28379 0.09342 0.0
H15 H 0.26521 0.27978 0.12852 0.0
N16 N 0.22632 0.25746 0.17921 0.0
N17 N 0.19631 0.23103 0.22634 0.0
N18 N 0.24585 0.20745 0.20787 0.0
C19 C 0.19951 0.25665 0.20095 0.0
C20 C 0.2193 0.20625 0.22989 0.0
C21 C 0.24961 0.23289 0.18246 0.0
C22 C 0.17473 0.2843 0.19833 0.0
C23 C 0.17921 0.31288 0.17488 0.0
C24 C 0.1568 0.33991 0.17439 0.0
C25 C 0.12941 0.33901 0.19733 0.0
C26 C 0.1244 0.30991 0.21979 0.0
C27 C 0.14674 0.28296 0.22032 0.0
C28 C 0.21657 0.17931 0.25885 0.0
C29 C 0.19356 0.18201 0.28721 0.0
C30 C 0.19314 0.15817 0.31622 0.0
C31 C 0.21563 0.13104 0.31744 0.0
C32 C 0.23758 0.12748 0.28818 0.0
C33 C 0.23813 0.15134 0.25937 0.0
C34 C 0.27958 0.2346 0.15984 0.0
C35 C 0.30461 0.2105 0.16509 0.0
C36 C 0.1594 0.67463 0.82857 0.0
C37 C 0.132 0.6759 0.80557 0.0
C38 C 0.12748 0.7051 0.78317 0.0
C39 C 0.15028 0.7318 0.78277 0.0
H40 H 0.18058 0.81163 0.71628 0.0
H41 H 0.17996 0.85333 0.66598 0.0
H42 H 0.26071 0.9072 0.71534 0.0
H43 H 0.26195 0.86519 0.76499 0.0
H44 H 0.30677 0.82389 0.8191 0.0
H45 H 0.35661 0.81957 0.8545 0.0
H46 H 0.31821 0.73067 0.91173 0.0
H47 H 0.26854 0.7344 0.87572 0.0
H48 H 0.20346 0.69917 0.84566 0.0
H49 H 0.16374 0.6524 0.84596 0.0
H50 H 0.10635 0.70723 0.76561 0.0
H51 H 0.14608 0.75357 0.76468 0.0
N52 N 0.20068 0.78312 0.77693 0.0
N53 N 0.25041 0.80646 0.79577 0.0
N54 N 0.23016 0.75661 0.82439 0.0
C55 C 0.22399 0.80775 0.7735 0.0
C56 C 0.25375 0.78107 0.82129 0.0
C57 C 0.20346 0.75753 0.80239 0.0
C58 C 0.22158 0.83473 0.74455 0.0
C59 C 0.19806 0.83252 0.71659 0.0
C60 C 0.19757 0.85656 0.68779 0.0
C61 C 0.2205 0.88344 0.68636 0.0
C62 C 0.24314 0.8864 0.71512 0.0
C63 C 0.24375 0.86233 0.74374 0.0
C64 C 0.28353 0.77938 0.84432 0.0
C65 C 0.30879 0.80344 0.83929 0.0
C66 C 0.33741 0.80111 0.85979 0.0
C67 C 0.34155 0.77471 0.88591 0.0
C68 C 0.31609 0.75101 0.89142 0.0
C69 C 0.28746 0.75329 0.87088 0.0
C70 C 0.17826 0.7301 0.80483 0.0
C71 C 0.18228 0.70141 0.82821 0.0
C72 C 0.70798 0.75482 0.11492 0.0
C73 C 0.68258 0.77829 0.12059 0.0
C74 C 0.68706 0.80485 0.14623 0.0
C75 C 0.71594 0.80746 0.16623 0.0
H76 H 0.76453 0.86957 0.23911 0.0
H77 H 0.76557 0.91081 0.28906 0.0
H78 H 0.84455 0.85539 0.33988 0.0
H79 H 0.84413 0.8144 0.28924 0.0
H80 H 0.87848 0.7564 0.24042 0.0
H81 H 0.91753 0.7097 0.2391 0.0
H82 H 0.85966 0.65706 0.15772 0.0
H83 H 0.82069 0.70416 0.15841 0.0
H84 H 0.7557 0.73861 0.13003 0.0
H85 H 0.70559 0.73439 0.09493 0.0
H86 H 0.66791 0.82316 0.15157 0.0
H87 H 0.71824 0.82797 0.18614 0.0
N88 N 0.77476 0.8105 0.20924 0.0
N89 N 0.82443 0.78698 0.22781 0.0
N90 N 0.79448 0.76086 0.1806 0.0
C91 C 0.80133 0.81162 0.23132 0.0
C92 C 0.8213 0.76158 0.20239 0.0
C93 C 0.77109 0.78528 0.1838 0.0
C94 C 0.80398 0.83833 0.26028 0.0
C95 C 0.78232 0.86621 0.26073 0.0
C96 C 0.78283 0.88985 0.28951 0.0
C97 C 0.80483 0.88616 0.31881 0.0
C98 C 0.82741 0.85913 0.31767 0.0
C99 C 0.82703 0.83551 0.28868 0.0
C100 C 0.84615 0.73403 0.19978 0.0
C101 C 0.87405 0.73505 0.22202 0.0
C102 C 0.89645 0.70814 0.22139 0.0
C103 C 0.89158 0.67944 0.19858 0.0
C104 C 0.86428 0.67889 0.17542 0.0
C105 C 0.84182 0.70586 0.17601 0.0
C106 C 0.74111 0.78354 0.16113 0.0
C107 C 0.73686 0.75739 0.13493 0.0
C108 C 0.82294 0.15818 0.68861 0.0
C109 C 0.79985 0.13148 0.68704 0.0
C110 C 0.77708 0.12849 0.71562 0.0
C111 C 0.77653 0.15235 0.74421 0.0
H112 H 0.71373 0.19052 0.81963 0.0
H113 H 0.66387 0.19511 0.85478 0.0
H114 H 0.70276 0.28364 0.91149 0.0
H115 H 0.75244 0.27962 0.87577 0.0
H116 H 0.81769 0.3144 0.84619 0.0
H117 H 0.8575 0.36107 0.84644 0.0
H118 H 0.91451 0.30677 0.76608 0.0
H119 H 0.87468 0.26054 0.76521 0.0
H120 H 0.84014 0.20276 0.71717 0.0
H121 H 0.84066 0.16144 0.66694 0.0
H122 H 0.75937 0.10782 0.71574 0.0
H123 H 0.75824 0.14947 0.76532 0.0
N124 N 0.77018 0.20781 0.79625 0.0
N125 N 0.79069 0.25735 0.82482 0.0
N126 N 0.82003 0.23101 0.77753 0.0
C127 C 0.76698 0.23306 0.82171 0.0
C128 C 0.81738 0.25645 0.80292 0.0
C129 C 0.79661 0.20653 0.77407 0.0
C130 C 0.73721 0.23482 0.84463 0.0
C131 C 0.71181 0.21094 0.83967 0.0
C132 C 0.68318 0.21342 0.86002 0.0
C133 C 0.67918 0.23982 0.88589 0.0
C134 C 0.70479 0.26331 0.89136 0.0
C135 C 0.73341 0.26087 0.87098 0.0
C136 C 0.84268 0.28376 0.80536 0.0
C137 C 0.83881 0.31226 0.82873 0.0
C138 C 0.86174 0.33898 0.82906 0.0
C139 C 0.88906 0.33783 0.80604 0.0
C140 C 0.89345 0.3088 0.78366 0.0
C141 C 0.87059 0.28216 0.78329 0.0
C142 C 0.79889 0.17976 0.74516 0.0
C143 C 0.82251 0.18201 0.71737 0.0
C144 C 0.62927 0.71899 0.79474 0.0
C145 C 0.63335 0.6979 0.8259 0.0
C146 C 0.66115 0.67713 0.82827 0.0
C147 C 0.68496 0.67859 0.80086 0.0
H148 H 0.77024 0.63336 0.76449 0.0
H149 H 0.81846 0.5975 0.76731 0.0
H150 H 0.861 0.65595 0.67828 0.0
H151 H 0.81257 0.69149 0.67486 0.0
H152 H 0.77431 0.75302 0.6394 0.0
H153 H 0.77529 0.80423 0.60069 0.0
H154 H 0.689 0.84164 0.65421 0.0
H155 H 0.68747 0.78999 0.69241 0.0
H156 H 0.64922 0.73769 0.74435 0.0
H157 H 0.60783 0.73478 0.79162 0.0
H158 H 0.66517 0.66077 0.85201 0.0
H159 H 0.70652 0.66303 0.80411 0.0
N160 N 0.73385 0.68364 0.74306 0.0
N161 N 0.75715 0.71524 0.69467 0.0
N162 N 0.70699 0.73181 0.71877 0.0
C163 C 0.75856 0.68842 0.71879 0.0
C164 C 0.73146 0.73706 0.69445 0.0
C165 C 0.70788 0.70515 0.7431 0.0
C166 C 0.78743 0.66554 0.71956 0.0
C167 C 0.78975 0.63855 0.74534 0.0
C168 C 0.81753 0.61805 0.74711 0.0
C169 C 0.84374 0.62396 0.72318 0.0
C170 C 0.84117 0.65046 0.6969 0.0
C171 C 0.8134 0.671 0.69512 0.0
C172 C 0.73095 0.76735 0.66931 0.0
C173 C 0.75539 0.772 0.64285 0.0
C174 C 0.75607 0.80152 0.62073 0.0
C175 C 0.73241 0.82729 0.62456 0.0
C176 C 0.70745 0.82223 0.65029 0.0
C177 C 0.7067 0.79261 0.67237 0.0
C178 C 0.6815 0.70093 0.77055 0.0
C179 C 0.65303 0.72057 0.76751 0.0
C180 C 0.76294 0.20051 0.36721 0.0
C181 C 0.73381 0.1851 0.3792 0.0
C182 C 0.70429 0.19992 0.3679 0.0
C183 C 0.70398 0.22912 0.34513 0.0
H184 H 0.64863 0.27649 0.26312 0.0
H185 H 0.60616 0.28007 0.21694 0.0
H186 H 0.66295 0.35445 0.15595 0.0
H187 H 0.7053 0.35154 0.20269 0.0
H188 H 0.77053 0.37999 0.23981 0.0
H189 H 0.8185 0.41662 0.23681 0.0
H190 H 0.86344 0.3564 0.32282 0.0
H191 H 0.81531 0.32004 0.32639 0.0
H192 H 0.78554 0.24096 0.33634 0.0
H193 H 0.78621 0.18952 0.37432 0.0
H194 H 0.68134 0.18927 0.37691 0.0
H195 H 0.68086 0.23983 0.33689 0.0
N196 N 0.70747 0.28138 0.28664 0.0
N197 N 0.73427 0.32959 0.26188 0.0
N198 N 0.75926 0.2965 0.30788 0.0
C199 C 0.70787 0.30846 0.26279 0.0
C200 C 0.75999 0.32394 0.28455 0.0
C201 C 0.73308 0.27518 0.30917 0.0
C202 C 0.68067 0.31338 0.23648 0.0
C203 C 0.65204 0.29388 0.24008 0.0
C204 C 0.62767 0.29584 0.21348 0.0
C205 C 0.6313 0.31718 0.18242 0.0
C206 C 0.65925 0.3379 0.17962 0.0
C207 C 0.68364 0.33607 0.20638 0.0
C208 C 0.78896 0.34686 0.28324 0.0
C209 C 0.79054 0.37454 0.25822 0.0
C210 C 0.81815 0.3955 0.25635 0.0
C211 C 0.84491 0.38937 0.27946 0.0
C212 C 0.84316 0.36207 0.30488 0.0
C213 C 0.81556 0.34106 0.30672 0.0
C214 C 0.73316 0.24457 0.33366 0.0
C215 C 0.76261 0.23002 0.34512 0.0
C216 C 0.3129 0.19338 0.6488 0.0
C217 C 0.28782 0.18834 0.62316 0.0
C218 C 0.26408 0.21405 0.61927 0.0
C219 C 0.26478 0.24349 0.64122 0.0
H220 H 0.20743 0.32376 0.67318 0.0
H221 H 0.1589 0.35913 0.67688 0.0
H222 H 0.20216 0.41734 0.76521 0.0
H223 H 0.25046 0.38168 0.7621 0.0
H224 H 0.31446 0.35257 0.80118 0.0
H225 H 0.356 0.35496 0.84895 0.0
H226 H 0.41289 0.28045 0.78967 0.0
H227 H 0.3713 0.2774 0.74251 0.0
H228 H 0.333 0.22551 0.69068 0.0
H229 H 0.33141 0.17401 0.65279 0.0
H230 H 0.24476 0.21137 0.59929 0.0
H231 H 0.2458 0.26243 0.63771 0.0
N232 N 0.26316 0.30008 0.69272 0.0
N233 N 0.28671 0.3316 0.74077 0.0
N234 N 0.31353 0.28358 0.71669 0.0
C235 C 0.26185 0.32683 0.71666 0.0
C236 C 0.31273 0.31017 0.74083 0.0
C237 C 0.28891 0.27833 0.69252 0.0
C238 C 0.23293 0.34961 0.71751 0.0
C239 C 0.20673 0.34417 0.69334 0.0
C240 C 0.17891 0.36461 0.69528 0.0
C241 C 0.17652 0.39096 0.72147 0.0
C242 C 0.20296 0.39688 0.7451 0.0
C243 C 0.23079 0.3765 0.74316 0.0
C244 C 0.33924 0.31441 0.76817 0.0
C245 C 0.33597 0.33692 0.79814 0.0
C246 C 0.35988 0.33846 0.82547 0.0
C247 C 0.38762 0.31759 0.82339 0.0
C248 C 0.39152 0.29632 0.79257 0.0
C249 C 0.36763 0.29467 0.7654 0.0
C250 C 0.28935 0.24812 0.66757 0.0
C251 C 0.31368 0.22291 0.67071 0.0
C252 C 0.20291 0.62158 0.25759 0.0
C253 C 0.17613 0.62758 0.28054 0.0
C254 C 0.17786 0.65471 0.30591 0.0
C255 C 0.20547 0.6757 0.30782 0.0
H256 H 0.23534 0.77587 0.33667 0.0
H257 H 0.23454 0.82723 0.37426 0.0
H258 H 0.3394 0.82756 0.37751 0.0
H259 H 0.34001 0.77709 0.33787 0.0
H260 H 0.37225 0.7409 0.26411 0.0
H261 H 0.41474 0.73725 0.21813 0.0
H262 H 0.35833 0.66212 0.1583 0.0
H263 H 0.31598 0.6651 0.20482 0.0
H264 H 0.25055 0.63717 0.24123 0.0
H265 H 0.20257 0.60059 0.23809 0.0
H266 H 0.15756 0.66026 0.32373 0.0
H267 H 0.20571 0.6966 0.32743 0.0
N268 N 0.26171 0.72038 0.30888 0.0
N269 N 0.31352 0.73558 0.28778 0.0
N270 N 0.2868 0.68737 0.26331 0.0
C271 C 0.28787 0.74173 0.31012 0.0
C272 C 0.31318 0.70852 0.26418 0.0
C273 C 0.26104 0.69297 0.28579 0.0
C274 C 0.28773 0.77231 0.33434 0.0
C275 C 0.25824 0.78682 0.34551 0.0
C276 C 0.25783 0.81627 0.36738 0.0
C277 C 0.28693 0.83168 0.37944 0.0
C278 C 0.31648 0.81691 0.36843 0.0
C279 C 0.31687 0.78777 0.34588 0.0
C280 C 0.3404 0.70363 0.23803 0.0
C281 C 0.36892 0.72333 0.24138 0.0
C282 C 0.39331 0.72133 0.21489 0.0
C283 C 0.38979 0.69975 0.18421 0.0
C284 C 0.36195 0.67885 0.18168 0.0
C285 C 0.33756 0.68073 0.20831 0.0
C286 C 0.23209 0.67004 0.28447 0.0
C287 C 0.23053 0.64251 0.25953 0.0
C288 C 0.96161 0.47251 0.26527 0.0
C289 C 0.05937 0.54474 0.26565 0.0
O290 O 0.97707 0.48354 0.29312 0.0
Zn291 Zn 0.01049 0.50862 0.26658 0.0
O292 O 0.97172 0.48024 0.23295 0.0
Zn293 Zn 0.01044 0.5091 0.20794 0.0
O294 O 0.03395 0.47379 0.1812 0.0
O295 O 0.03741 0.46803 0.24137 0.0
O296 O 0.04921 0.53753 0.23326 0.0
O297 O 0.04395 0.53327 0.29339 0.0
O298 O 0.98356 0.54965 0.24169 0.0
O299 O 0.98692 0.54487 0.18149 0.0
C300 C 0.04463 0.4575 0.20908 0.0
C301 C 0.97631 0.56072 0.20949 0.0
C302 C 0.9759 0.45538 0.79384 0.0
C303 C 0.04499 0.55853 0.79369 0.0
O304 O 0.98687 0.47132 0.8217 0.0
Zn305 Zn 0.01043 0.50696 0.79496 0.0
O306 O 0.98304 0.46629 0.76154 0.0
Zn307 Zn 0.01015 0.5073 0.7364 0.0
O308 O 0.0433 0.48271 0.70946 0.0
O309 O 0.04896 0.47855 0.76956 0.0
O310 O 0.03754 0.54799 0.76142 0.0
O311 O 0.03426 0.54229 0.8216 0.0
O312 O 0.97164 0.53566 0.77001 0.0
O313 O 0.97673 0.53218 0.70985 0.0
C314 C 0.05889 0.47136 0.73711 0.0
C315 C 0.9614 0.54321 0.73767 0.0
C316 C 0.22909 0.9732 0.55872 0.0
C317 C 0.22719 0.04339 0.44641 0.0
O318 O 0.20412 0.98406 0.54174 0.0
Zn319 Zn 0.22695 0.00828 0.50277 0.0
O320 O 0.25739 0.98104 0.5466 0.0
Zn321 Zn 0.27877 0.00951 0.50197 0.0
O322 O 0.30193 0.04616 0.52707 0.0
O323 O 0.24879 0.05039 0.5318 0.0
O324 O 0.25581 0.03668 0.45808 0.0
O325 O 0.20283 0.03169 0.46391 0.0
O326 O 0.24958 0.96636 0.4745 0.0
O327 O 0.30263 0.97424 0.47582 0.0
C328 C 0.27722 0.06206 0.53903 0.0
C329 C 0.27821 0.95636 0.46609 0.0
C330 C 0.56128 0.76194 0.04129 0.0
C331 C 0.46206 0.76067 0.96726 0.0
O332 O 0.55109 0.73139 0.03427 0.0
Zn333 Zn 0.51174 0.70719 0.00513 0.0
O334 O 0.54542 0.78771 0.02934 0.0
Zn335 Zn 0.51166 0.76212 0.00432 0.0
O336 O 0.48546 0.73891 0.04874 0.0
O337 O 0.48884 0.68242 0.04391 0.0
O338 O 0.47782 0.78681 0.9785 0.0
O339 O 0.47233 0.73036 0.97518 0.0
O340 O 0.53479 0.68198 0.96716 0.0
O341 O 0.53805 0.7384 0.96069 0.0
C342 C 0.47837 0.70873 0.06083 0.0
C343 C 0.54527 0.7081 0.94953 0.0
C344 C 0.74311 0.95397 0.5399 0.0
C345 C 0.74228 0.06006 0.46656 0.0
O346 O 0.71841 0.96995 0.52778 0.0
Zn347 Zn 0.74164 0.00672 0.50265 0.0
O348 O 0.77155 0.96565 0.53276 0.0
Zn349 Zn 0.79346 0.00789 0.50368 0.0
O350 O 0.81626 0.03187 0.54268 0.0
O351 O 0.76299 0.03491 0.54728 0.0
O352 O 0.77089 0.04998 0.47514 0.0
O353 O 0.71784 0.04214 0.47624 0.0
O354 O 0.76461 0.97974 0.45897 0.0
O355 O 0.81758 0.98467 0.46501 0.0
C356 C 0.79128 0.04264 0.55951 0.0
C357 C 0.79323 0.97307 0.44745 0.0
C358 C 0.54261 0.30773 0.05896 0.0
C359 C 0.47578 0.30788 0.94738 0.0
O360 O 0.53538 0.2775 0.04741 0.0
Zn361 Zn 0.50906 0.25409 0.00333 0.0
O362 O 0.53225 0.33396 0.04153 0.0
Zn363 Zn 0.50924 0.30903 0.00312 0.0
O364 O 0.46974 0.28529 0.03255 0.0
O365 O 0.47514 0.22891 0.02866 0.0
O366 O 0.48636 0.33408 0.96458 0.0
O367 O 0.48284 0.27763 0.95913 0.0
O368 O 0.54279 0.22901 0.97809 0.0
O369 O 0.54854 0.2854 0.97378 0.0
C370 C 0.4594 0.25485 0.04006 0.0
C371 C 0.55867 0.25498 0.96644 0.0
C372 C 0.09575 0.37997 0.2339 0.0
C373 C 0.10708 0.36899 0.19954 0.0
H374 H 0.0674 0.41611 0.26375 0.0
C375 C 0.0974 0.38725 0.16788 0.0
H376 H 0.10314 0.36694 0.2589 0.0
C377 C 0.0768 0.41582 0.17065 0.0
C378 C 0.06567 0.42679 0.20516 0.0
H379 H 0.10555 0.37932 0.14097 0.0
H380 H 0.0698 0.42941 0.14585 0.0
C381 C 0.07537 0.40842 0.23667 0.0
C382 C 0.09914 0.62807 0.83493 0.0
C383 C 0.10908 0.64624 0.8033 0.0
H384 H 0.07083 0.58627 0.85692 0.0
C385 C 0.09739 0.63549 0.76893 0.0
H386 H 0.10754 0.63584 0.86185 0.0
C387 C 0.07644 0.60733 0.76613 0.0
C388 C 0.06651 0.58904 0.79762 0.0
H389 H 0.10494 0.64845 0.74394 0.0
H390 H 0.06822 0.59978 0.73905 0.0
C391 C 0.07797 0.59981 0.83213 0.0
C392 C 0.92526 0.63788 0.23489 0.0
C393 C 0.91397 0.64947 0.20059 0.0
H394 H 0.95355 0.60116 0.26449 0.0
C395 C 0.92369 0.63178 0.1688 0.0
H396 H 0.91785 0.65045 0.25999 0.0
C397 C 0.94425 0.60314 0.17136 0.0
C398 C 0.95532 0.59153 0.2058 0.0
H399 H 0.91557 0.6402 0.14192 0.0
H400 H 0.95126 0.59 0.14645 0.0
C401 C 0.94562 0.60936 0.23746 0.0
C402 C 0.92352 0.37852 0.76929 0.0
C403 C 0.912 0.36749 0.8037 0.0
H404 H 0.9525 0.41451 0.7393 0.0
C405 C 0.92207 0.3854 0.83528 0.0
H406 H 0.91585 0.36575 0.74433 0.0
C407 C 0.94319 0.41371 0.8324 0.0
C408 C 0.95447 0.42479 0.79785 0.0
H409 H 0.9138 0.37741 0.86223 0.0
H410 H 0.95044 0.42706 0.85717 0.0
C411 C 0.94442 0.40673 0.7664 0.0
C412 C 0.24841 0.09854 0.36387 0.0
C413 C 0.21784 0.10786 0.35008 0.0
H414 H 0.27522 0.07113 0.40456 0.0
C415 C 0.18994 0.09556 0.36821 0.0
H416 H 0.27043 0.10808 0.35116 0.0
C417 C 0.19268 0.07432 0.39938 0.0
C418 C 0.22338 0.06513 0.41305 0.0
H419 H 0.16601 0.10212 0.35817 0.0
H420 H 0.17082 0.06526 0.4128 0.0
C421 C 0.25114 0.07747 0.3948 0.0
C422 C 0.38604 0.73876 0.91338 0.0
C423 C 0.37255 0.77141 0.9067 0.0
H424 H 0.4247 0.70983 0.93735 0.0
C425 C 0.38911 0.80072 0.91969 0.0
H426 H 0.37431 0.71567 0.90323 0.0
C427 C 0.41832 0.7974 0.93907 0.0
C428 C 0.43161 0.76469 0.94591 0.0
H429 H 0.37927 0.82624 0.91537 0.0
H430 H 0.4303 0.82045 0.94895 0.0
C431 C 0.41514 0.73545 0.93274 0.0
C432 C 0.8305 0.92139 0.36953 0.0
C433 C 0.80261 0.90911 0.35139 0.0
H434 H 0.84961 0.95149 0.41404 0.0
C435 C 0.77203 0.91828 0.3651 0.0
H436 H 0.85444 0.91496 0.35955 0.0
C437 C 0.76929 0.93917 0.39595 0.0
C438 C 0.79705 0.95149 0.4142 0.0
H439 H 0.75002 0.90875 0.35239 0.0
H440 H 0.74521 0.9454 0.40564 0.0
C441 C 0.82775 0.94244 0.40062 0.0
C442 C 0.63489 0.27615 0.91265 0.0
C443 C 0.64815 0.24339 0.90644 0.0
H444 H 0.59643 0.30544 0.93609 0.0
C445 C 0.63136 0.21423 0.91969 0.0
H446 H 0.6468 0.29913 0.90229 0.0
C447 C 0.60216 0.21783 0.93889 0.0
C448 C 0.5891 0.25066 0.94528 0.0
H449 H 0.64102 0.18862 0.9157 0.0
H450 H 0.59001 0.1949 0.94899 0.0
C451 C 0.6058 0.27974 0.93183 0.0
C452 C 0.25238 0.91694 0.6397 0.0
C453 C 0.22211 0.9072 0.65414 0.0
H454 H 0.27823 0.94519 0.59871 0.0
C455 C 0.19382 0.91969 0.63705 0.0
H456 H 0.27466 0.90731 0.65161 0.0
C457 C 0.19586 0.9414 0.60622 0.0
C458 C 0.22622 0.95099 0.59184 0.0
H459 H 0.17012 0.9129 0.64765 0.0
H460 H 0.17368 0.95054 0.59361 0.0
C461 C 0.2544 0.93855 0.60908 0.0
C462 C 0.63445 0.80344 0.08714 0.0
C463 C 0.65126 0.77447 0.10052 0.0
H464 H 0.59291 0.82235 0.05796 0.0
C465 C 0.63778 0.7416 0.09486 0.0
H466 H 0.64427 0.82912 0.09075 0.0
C467 C 0.6085 0.73773 0.07599 0.0
C468 C 0.59182 0.76662 0.06231 0.0
H469 H 0.6497 0.71877 0.10536 0.0
H470 H 0.59899 0.71195 0.0721 0.0
C471 C 0.60506 0.79956 0.06824 0.0
C472 C 0.76797 0.09848 0.64019 0.0
C473 C 0.79823 0.10796 0.65486 0.0
H474 H 0.74213 0.07065 0.59905 0.0
C475 C 0.82652 0.09543 0.63801 0.0
H476 H 0.74569 0.10814 0.65191 0.0
C477 C 0.82449 0.07396 0.6072 0.0
C478 C 0.79413 0.06463 0.5926 0.0
H479 H 0.85022 0.10201 0.64878 0.0
H480 H 0.84667 0.06479 0.59479 0.0
C481 C 0.76595 0.07709 0.60959 0.0
C482 C 0.38305 0.27591 0.09316 0.0
C483 C 0.36935 0.24317 0.09918 0.0
H484 H 0.42205 0.30521 0.07016 0.0
C485 C 0.38592 0.21404 0.08614 0.0
H486 H 0.37132 0.29886 0.10338 0.0
C487 C 0.41533 0.21765 0.06728 0.0
C488 C 0.42881 0.25048 0.06102 0.0
H489 H 0.37592 0.18845 0.09 0.0
H490 H 0.4273 0.19475 0.0573 0.0
C491 C 0.41235 0.27952 0.07431 0.0
C492 C 0.89074 0.59203 0.69508 0.0
C493 C 0.87397 0.60325 0.72646 0.0
H494 H 0.93142 0.5642 0.67386 0.0
C495 C 0.88648 0.59486 0.76128 0.0
H496 H 0.88163 0.59782 0.66784 0.0
C497 C 0.91486 0.5756 0.76471 0.0
C498 C 0.93157 0.56417 0.73342 0.0
H499 H 0.87455 0.60356 0.78602 0.0
H500 H 0.92368 0.56968 0.79205 0.0
C501 C 0.91921 0.57265 0.69852 0.0
C502 C 0.88666 0.42032 0.24149 0.0
C503 C 0.87483 0.41079 0.27627 0.0
H504 H 0.92311 0.44694 0.21082 0.0
C505 C 0.89196 0.42158 0.30767 0.0
H506 H 0.87441 0.41201 0.21672 0.0
C507 C 0.92017 0.44161 0.30431 0.0
C508 C 0.9319 0.45115 0.26946 0.0
H509 H 0.88335 0.41491 0.33489 0.0
H510 H 0.93271 0.44965 0.329 0.0
C511 C 0.91479 0.4402 0.23814 0.0
C512 C 0.13409 0.4196 0.75996 0.0
C513 C 0.14625 0.41151 0.72502 0.0
H514 H 0.0972 0.44446 0.7911 0.0
C515 C 0.12912 0.42293 0.69381 0.0
H516 H 0.1463 0.41072 0.78458 0.0
C517 C 0.10066 0.44225 0.69753 0.0
C518 C 0.08868 0.45045 0.73255 0.0
H519 H 0.13795 0.41737 0.66648 0.0
H520 H 0.08817 0.45088 0.67299 0.0
C521 C 0.10573 0.43878 0.76367 0.0
C522 C 0.12901 0.59516 0.30849 0.0
C523 C 0.14619 0.60625 0.27718 0.0
H524 H 0.08821 0.56692 0.32958 0.0
C525 C 0.13439 0.59709 0.24234 0.0
H526 H 0.13759 0.60155 0.33576 0.0
C527 C 0.10624 0.57728 0.23881 0.0
C528 C 0.08909 0.56602 0.27004 0.0
H529 H 0.14668 0.60564 0.21764 0.0
H530 H 0.09795 0.57083 0.21145 0.0
C531 C 0.10079 0.57519 0.30496 0.0
C532 C 0.70678 0.87578 0.58833 0.0
C533 C 0.73465 0.85983 0.60282 0.0
H534 H 0.68745 0.91799 0.55703 0.0
C535 C 0.76497 0.87547 0.5968 0.0
H536 H 0.68306 0.8643 0.59222 0.0
C537 C 0.76749 0.90597 0.57657 0.0
C538 C 0.73973 0.92185 0.56185 0.0
H539 H 0.78688 0.86437 0.60816 0.0
H540 H 0.79133 0.91714 0.57258 0.0
C541 C 0.70929 0.90648 0.56805 0.0
C542 C 0.59775 0.34556 0.13259 0.0
C543 C 0.60721 0.31573 0.15193 0.0
H544 H 0.56963 0.36667 0.08822 0.0
C545 C 0.59437 0.28378 0.14103 0.0
H546 H 0.60703 0.37061 0.14045 0.0
C547 C 0.57301 0.28156 0.11142 0.0
C548 C 0.56384 0.31121 0.0917 0.0
H549 H 0.6015 0.26019 0.15478 0.0
H550 H 0.56407 0.25634 0.10368 0.0
C551 C 0.57619 0.34334 0.10283 0.0
C552 C 0.31347 0.1401 0.58714 0.0
C553 C 0.2856 0.15589 0.60157 0.0
H554 H 0.33283 0.09811 0.55601 0.0
C555 C 0.2553 0.14019 0.59563 0.0
H556 H 0.33718 0.15163 0.59096 0.0
C557 C 0.25281 0.10978 0.57552 0.0
C558 C 0.28057 0.09407 0.56086 0.0
H559 H 0.2334 0.15117 0.60694 0.0
H560 H 0.22898 0.09856 0.57158 0.0
C561 C 0.31098 0.10949 0.56699 0.0
C562 C 0.42346 0.67117 0.13502 0.0
C563 C 0.41388 0.7011 0.15378 0.0
H564 H 0.45166 0.64988 0.09112 0.0
C565 C 0.42657 0.73303 0.14233 0.0
H566 H 0.41431 0.64614 0.14332 0.0
C567 C 0.44789 0.73514 0.11272 0.0
C568 C 0.45718 0.70539 0.09358 0.0
H569 H 0.41933 0.75668 0.15562 0.0
H570 H 0.45671 0.76034 0.10453 0.0
C571 C 0.445 0.67328 0.10527 0.0
C572 C 0.75982 0.14889 0.4286 0.0
C573 C 0.73451 0.15367 0.40312 0.0
H574 H 0.7821 0.11564 0.46816 0.0
C575 C 0.71056 0.12778 0.40021 0.0
H576 H 0.77819 0.1685 0.43266 0.0
C577 C 0.71235 0.09772 0.42163 0.0
C578 C 0.73844 0.09263 0.44583 0.0
H579 H 0.69089 0.13018 0.38068 0.0
H580 H 0.69395 0.07798 0.41834 0.0
C581 C 0.76196 0.11863 0.44928 0.0
C582 C 0.42372 0.28404 0.86563 0.0
C583 C 0.41133 0.31604 0.85427 0.0
H584 H 0.45362 0.25651 0.90339 0.0
C585 C 0.42104 0.34586 0.8733 0.0
H586 H 0.41636 0.26047 0.85212 0.0
C587 C 0.44252 0.34358 0.90315 0.0
C588 C 0.45451 0.31141 0.91466 0.0
H589 H 0.4121 0.37094 0.86508 0.0
H590 H 0.44935 0.3669 0.91748 0.0
C591 C 0.44499 0.28177 0.89533 0.0
C592 C 0.31009 0.88894 0.40027 0.0
C593 C 0.28615 0.86302 0.40317 0.0
H594 H 0.32664 0.93867 0.41823 0.0
C595 C 0.26078 0.86769 0.42846 0.0
H596 H 0.32981 0.88663 0.38088 0.0
C597 C 0.25858 0.89786 0.44897 0.0
C598 C 0.2821 0.92389 0.44552 0.0
H599 H 0.24242 0.84804 0.43252 0.0
H600 H 0.2384 0.90076 0.46771 0.0
C601 C 0.30824 0.91892 0.42152 0.0
C602 C 0.59732 0.73161 0.86761 0.0
C603 C 0.60975 0.69958 0.85678 0.0
H604 H 0.56738 0.75928 0.90483 0.0
C605 C 0.60012 0.66985 0.87628 0.0
H606 H 0.60462 0.75513 0.85373 0.0
C607 C 0.57865 0.67224 0.90604 0.0
C608 C 0.56659 0.70445 0.91699 0.0
H609 H 0.6091 0.64474 0.86848 0.0
H610 H 0.57187 0.64898 0.92072 0.0
C611 C 0.57606 0.734 0.89721 0.0
loop_
_geom_bond_atom_site_label_1
_geom_bond_atom_site_label_2
_geom_bond_distance
_geom_bond_site_symmetry_2
_ccdc_geom_bond_type
C0 C1 1.384 . S
C0 H13 0.947 . S
C0 C35 1.382 . S
C1 C0 1.384 . S
C1 C2 1.378 . S
C2 C1 1.378 . S
C2 C3 1.378 . S
C2 H14 0.952 . S
C3 C2 1.378 . S
C3 H15 0.950 . S
C3 C34 1.383 . S
H4 C23 0.947 . S
H5 C24 0.946 . S
H6 C26 0.953 . S
H7 C27 0.945 . S
H8 C29 0.952 . S
H9 C30 0.949 . S
H10 C32 0.950 . S
H11 C33 0.948 . S
H12 C35 0.951 . S
H13 C0 0.947 . S
H14 C2 0.952 . S
H15 C3 0.950 . S
N16 C19 1.382 . S
N16 C21 1.363 . S
N17 C19 1.371 . S
N17 C20 1.372 . S
N18 C20 1.361 . S
N18 C21 1.377 . S
C19 N16 1.382 . S
C19 N17 1.371 . S
C19 C22 1.480 . S
C20 N17 1.372 . S
C20 N18 1.361 . S
C20 C28 1.457 . S
C21 N16 1.363 . S
C21 N18 1.377 . S
C21 C34 1.479 . S
C22 C19 1.480 . S
C22 C23 1.383 . S
C22 C27 1.385 . S
C23 H4 0.947 . S
C23 C22 1.383 . S
C23 C24 1.388 . S
C24 H5 0.946 . S
C24 C23 1.388 . S
C24 C25 1.384 . S
C25 C24 1.384 . S
C25 C26 1.377 . S
C26 H6 0.953 . S
C26 C25 1.377 . S
C26 C27 1.369 . S
C27 H7 0.945 . S
C27 C22 1.385 . S
C27 C26 1.369 . S
C28 C20 1.457 . S
C28 C29 1.372 . S
C28 C33 1.364 . S
C29 H8 0.952 . S
C29 C28 1.372 . S
C29 C30 1.389 . S
C30 H9 0.949 . S
C30 C29 1.389 . S
C30 C31 1.387 . S
C31 C30 1.387 . S
C31 C32 1.372 . S
C32 H10 0.950 . S
C32 C31 1.372 . S
C32 C33 1.379 . S
C33 H11 0.948 . S
C33 C28 1.364 . S
C33 C32 1.379 . S
C34 C3 1.383 . S
C34 C21 1.479 . S
C34 C35 1.398 . S
C35 C0 1.382 . S
C35 H12 0.951 . S
C35 C34 1.398 . S
C36 C37 1.384 . S
C36 H49 0.947 . S
C36 C71 1.382 . S
C37 C36 1.384 . S
C37 C38 1.378 . S
C38 C37 1.378 . S
C38 C39 1.378 . S
C38 H50 0.952 . S
C39 C38 1.378 . S
C39 H51 0.950 . S
C39 C70 1.383 . S
H40 C59 0.947 . S
H41 C60 0.946 . S
H42 C62 0.953 . S
H43 C63 0.945 . S
H44 C65 0.952 . S
H45 C66 0.949 . S
H46 C68 0.950 . S
H47 C69 0.948 . S
H48 C71 0.951 . S
H49 C36 0.947 . S
H50 C38 0.952 . S
H51 C39 0.950 . S
N52 C55 1.382 . S
N52 C57 1.363 . S
N53 C55 1.371 . S
N53 C56 1.372 . S
N54 C56 1.361 . S
N54 C57 1.377 . S
C55 N52 1.382 . S
C55 N53 1.371 . S
C55 C58 1.480 . S
C56 N53 1.372 . S
C56 N54 1.361 . S
C56 C64 1.457 . S
C57 N52 1.363 . S
C57 N54 1.377 . S
C57 C70 1.479 . S
C58 C55 1.480 . S
C58 C59 1.383 . S
C58 C63 1.385 . S
C59 H40 0.947 . S
C59 C58 1.383 . S
C59 C60 1.388 . S
C60 H41 0.946 . S
C60 C59 1.388 . S
C60 C61 1.384 . S
C61 C60 1.384 . S
C61 C62 1.377 . S
C62 H42 0.953 . S
C62 C61 1.377 . S
C62 C63 1.369 . S
C63 H43 0.945 . S
C63 C58 1.385 . S
C63 C62 1.369 . S
C64 C56 1.457 . S
C64 C65 1.372 . S
C64 C69 1.364 . S
C65 H44 0.952 . S
C65 C64 1.372 . S
C65 C66 1.389 . S
C66 H45 0.949 . S
C66 C65 1.389 . S
C66 C67 1.387 . S
C67 C66 1.387 . S
C67 C68 1.372 . S
C68 H46 0.950 . S
C68 C67 1.372 . S
C68 C69 1.379 . S
C69 H47 0.948 . S
C69 C64 1.364 . S
C69 C68 1.379 . S
C70 C39 1.383 . S
C70 C57 1.479 . S
C70 C71 1.398 . S
C71 C36 1.382 . S
C71 H48 0.951 . S
C71 C70 1.398 . S
C72 C73 1.384 . S
C72 H85 0.947 . S
C72 C107 1.382 . S
C73 C72 1.384 . S
C73 C74 1.378 . S
C74 C73 1.378 . S
C74 C75 1.378 . S
C74 H86 0.952 . S
C75 C74 1.378 . S
C75 H87 0.950 . S
C75 C106 1.383 . S
H76 C95 0.947 . S
H77 C96 0.946 . S
H78 C98 0.953 . S
H79 C99 0.945 . S
H80 C101 0.952 . S
H81 C102 0.949 . S
H82 C104 0.950 . S
H83 C105 0.948 . S
H84 C107 0.951 . S
H85 C72 0.947 . S
H86 C74 0.952 . S
H87 C75 0.950 . S
N88 C91 1.382 . S
N88 C93 1.363 . S
N89 C91 1.371 . S
N89 C92 1.372 . S
N90 C92 1.361 . S
N90 C93 1.377 . S
C91 N88 1.382 . S
C91 N89 1.371 . S
C91 C94 1.480 . S
C92 N89 1.372 . S
C92 N90 1.361 . S
C92 C100 1.457 . S
C93 N88 1.363 . S
C93 N90 1.377 . S
C93 C106 1.479 . S
C94 C91 1.480 . S
C94 C95 1.383 . S
C94 C99 1.385 . S
C95 H76 0.947 . S
C95 C94 1.383 . S
C95 C96 1.388 . S
C96 H77 0.946 . S
C96 C95 1.388 . S
C96 C97 1.384 . S
C97 C96 1.384 . S
C97 C98 1.377 . S
C98 H78 0.953 . S
C98 C97 1.377 . S
C98 C99 1.369 . S
C99 H79 0.945 . S
C99 C94 1.385 . S
C99 C98 1.369 . S
C100 C92 1.457 . S
C100 C101 1.372 . S
C100 C105 1.364 . S
C101 H80 0.952 . S
C101 C100 1.372 . S
C101 C102 1.389 . S
C102 H81 0.949 . S
C102 C101 1.389 . S
C102 C103 1.387 . S
C103 C102 1.387 . S
C103 C104 1.372 . S
C104 H82 0.950 . S
C104 C103 1.372 . S
C104 C105 1.379 . S
C105 H83 0.948 . S
C105 C100 1.364 . S
C105 C104 1.379 . S
C106 C75 1.383 . S
C106 C93 1.479 . S
C106 C107 1.398 . S
C107 C72 1.382 . S
C107 H84 0.951 . S
C107 C106 1.398 . S
C108 C109 1.384 . S
C108 H121 0.947 . S
C108 C143 1.382 . S
C109 C108 1.384 . S
C109 C110 1.378 . S
C110 C109 1.378 . S
C110 C111 1.378 . S
C110 H122 0.952 . S
C111 C110 1.378 . S
C111 H123 0.950 . S
C111 C142 1.383 . S
H112 C131 0.947 . S
H113 C132 0.946 . S
H114 C134 0.953 . S
H115 C135 0.945 . S
H116 C137 0.952 . S
H117 C138 0.949 . S
H118 C140 0.950 . S
H119 C141 0.948 . S
H120 C143 0.951 . S
H121 C108 0.947 . S
H122 C110 0.952 . S
H123 C111 0.950 . S
N124 C127 1.382 . S
N124 C129 1.363 . S
N125 C127 1.371 . S
N125 C128 1.372 . S
N126 C128 1.361 . S
N126 C129 1.377 . S
C127 N124 1.382 . S
C127 N125 1.371 . S
C127 C130 1.480 . S
C128 N125 1.372 . S
C128 N126 1.361 . S
C128 C136 1.457 . S
C129 N124 1.363 . S
C129 N126 1.377 . S
C129 C142 1.479 . S
C130 C127 1.480 . S
C130 C131 1.383 . S
C130 C135 1.385 . S
C131 H112 0.947 . S
C131 C130 1.383 . S
C131 C132 1.388 . S
C132 H113 0.946 . S
C132 C131 1.388 . S
C132 C133 1.384 . S
C133 C132 1.384 . S
C133 C134 1.377 . S
C134 H114 0.953 . S
C134 C133 1.377 . S
C134 C135 1.369 . S
C135 H115 0.945 . S
C135 C130 1.385 . S
C135 C134 1.369 . S
C136 C128 1.457 . S
C136 C137 1.372 . S
C136 C141 1.364 . S
C137 H116 0.952 . S
C137 C136 1.372 . S
C137 C138 1.389 . S
C138 H117 0.949 . S
C138 C137 1.389 . S
C138 C139 1.387 . S
C139 C138 1.387 . S
C139 C140 1.372 . S
C140 H118 0.950 . S
C140 C139 1.372 . S
C140 C141 1.379 . S
C141 H119 0.948 . S
C141 C136 1.364 . S
C141 C140 1.379 . S
C142 C111 1.383 . S
C142 C129 1.479 . S
C142 C143 1.398 . S
C143 C108 1.382 . S
C143 H120 0.951 . S
C143 C142 1.398 . S
C144 C145 1.384 . S
C144 H157 0.947 . S
C144 C179 1.382 . S
C145 C144 1.384 . S
C145 C146 1.378 . S
C146 C145 1.378 . S
C146 C147 1.378 . S
C146 H158 0.952 . S
C147 C146 1.378 . S
C147 H159 0.950 . S
C147 C178 1.383 . S
H148 C167 0.947 . S
H149 C168 0.946 . S
H150 C170 0.953 . S
H151 C171 0.945 . S
H152 C173 0.952 . S
H153 C174 0.949 . S
H154 C176 0.950 . S
H155 C177 0.948 . S
H156 C179 0.951 . S
H157 C144 0.947 . S
H158 C146 0.952 . S
H159 C147 0.950 . S
N160 C163 1.382 . S
N160 C165 1.363 . S
N161 C163 1.371 . S
N161 C164 1.372 . S
N162 C164 1.361 . S
N162 C165 1.377 . S
C163 N160 1.382 . S
C163 N161 1.371 . S
C163 C166 1.480 . S
C164 N161 1.372 . S
C164 N162 1.361 . S
C164 C172 1.457 . S
C165 N160 1.363 . S
C165 N162 1.377 . S
C165 C178 1.479 . S
C166 C163 1.480 . S
C166 C167 1.383 . S
C166 C171 1.385 . S
C167 H148 0.947 . S
C167 C166 1.383 . S
C167 C168 1.388 . S
C168 H149 0.946 . S
C168 C167 1.388 . S
C168 C169 1.384 . S
C169 C168 1.384 . S
C169 C170 1.377 . S
C170 H150 0.953 . S
C170 C169 1.377 . S
C170 C171 1.369 . S
C171 H151 0.945 . S
C171 C166 1.385 . S
C171 C170 1.369 . S
C172 C164 1.457 . S
C172 C173 1.372 . S
C172 C177 1.364 . S
C173 H152 0.952 . S
C173 C172 1.372 . S
C173 C174 1.389 . S
C174 H153 0.949 . S
C174 C173 1.389 . S
C174 C175 1.387 . S
C175 C174 1.387 . S
C175 C176 1.372 . S
C176 H154 0.950 . S
C176 C175 1.372 . S
C176 C177 1.379 . S
C177 H155 0.948 . S
C177 C172 1.364 . S
C177 C176 1.379 . S
C178 C147 1.383 . S
C178 C165 1.479 . S
C178 C179 1.398 . S
C179 C144 1.382 . S
C179 H156 0.951 . S
C179 C178 1.398 . S
C180 C181 1.384 . S
C180 H193 0.947 . S
C180 C215 1.382 . S
C181 C180 1.384 . S
C181 C182 1.378 . S
C182 C181 1.378 . S
C182 C183 1.378 . S
C182 H194 0.952 . S
C183 C182 1.378 . S
C183 H195 0.950 . S
C183 C214 1.383 . S
H184 C203 0.947 . S
H185 C204 0.946 . S
H186 C206 0.953 . S
H187 C207 0.945 . S
H188 C209 0.952 . S
H189 C210 0.949 . S
H190 C212 0.950 . S
H191 C213 0.948 . S
H192 C215 0.951 . S
H193 C180 0.947 . S
H194 C182 0.952 . S
H195 C183 0.950 . S
N196 C199 1.382 . S
N196 C201 1.363 . S
N197 C199 1.371 . S
N197 C200 1.372 . S
N198 C200 1.361 . S
N198 C201 1.377 . S
C199 N196 1.382 . S
C199 N197 1.371 . S
C199 C202 1.480 . S
C200 N197 1.372 . S
C200 N198 1.361 . S
C200 C208 1.457 . S
C201 N196 1.363 . S
C201 N198 1.377 . S
C201 C214 1.479 . S
C202 C199 1.480 . S
C202 C203 1.383 . S
C202 C207 1.385 . S
C203 H184 0.947 . S
C203 C202 1.383 . S
C203 C204 1.388 . S
C204 H185 0.946 . S
C204 C203 1.388 . S
C204 C205 1.384 . S
C205 C204 1.384 . S
C205 C206 1.377 . S
C206 H186 0.953 . S
C206 C205 1.377 . S
C206 C207 1.369 . S
C207 H187 0.945 . S
C207 C202 1.385 . S
C207 C206 1.369 . S
C208 C200 1.457 . S
C208 C209 1.372 . S
C208 C213 1.364 . S
C209 H188 0.952 . S
C209 C208 1.372 . S
C209 C210 1.389 . S
C210 H189 0.949 . S
C210 C209 1.389 . S
C210 C211 1.387 . S
C211 C210 1.387 . S
C211 C212 1.372 . S
C212 H190 0.950 . S
C212 C211 1.372 . S
C212 C213 1.379 . S
C213 H191 0.948 . S
C213 C208 1.364 . S
C213 C212 1.379 . S
C214 C183 1.383 . S
C214 C201 1.479 . S
C214 C215 1.398 . S
C215 C180 1.382 . S
C215 H192 0.951 . S
C215 C214 1.398 . S
C216 C217 1.384 . S
C216 H229 0.947 . S
C216 C251 1.382 . S
C217 C216 1.384 . S
C217 C218 1.378 . S
C218 C217 1.378 . S
C218 C219 1.378 . S
C218 H230 0.952 . S
C219 C218 1.378 . S
C219 H231 0.950 . S
C219 C250 1.383 . S
H220 C239 0.947 . S
H221 C240 0.946 . S
H222 C242 0.953 . S
H223 C243 0.945 . S
H224 C245 0.952 . S
H225 C246 0.949 . S
H226 C248 0.950 . S
H227 C249 0.948 . S
H228 C251 0.951 . S
H229 C216 0.947 . S
H230 C218 0.952 . S
H231 C219 0.950 . S
N232 C235 1.382 . S
N232 C237 1.363 . S
N233 C235 1.371 . S
N233 C236 1.372 . S
N234 C236 1.361 . S
N234 C237 1.377 . S
C235 N232 1.382 . S
C235 N233 1.371 . S
C235 C238 1.480 . S
C236 N233 1.372 . S
C236 N234 1.361 . S
C236 C244 1.457 . S
C237 N232 1.363 . S
C237 N234 1.377 . S
C237 C250 1.479 . S
C238 C235 1.480 . S
C238 C239 1.383 . S
C238 C243 1.385 . S
C239 H220 0.947 . S
C239 C238 1.383 . S
C239 C240 1.388 . S
C240 H221 0.946 . S
C240 C239 1.388 . S
C240 C241 1.384 . S
C241 C240 1.384 . S
C241 C242 1.377 . S
C242 H222 0.953 . S
C242 C241 1.377 . S
C242 C243 1.369 . S
C243 H223 0.945 . S
C243 C238 1.385 . S
C243 C242 1.369 . S
C244 C236 1.457 . S
C244 C245 1.372 . S
C244 C249 1.364 . S
C245 H224 0.952 . S
C245 C244 1.372 . S
C245 C246 1.389 . S
C246 H225 0.949 . S
C246 C245 1.389 . S
C246 C247 1.387 . S
C247 C246 1.387 . S
C247 C248 1.372 . S
C248 H226 0.950 . S
C248 C247 1.372 . S
C248 C249 1.379 . S
C249 H227 0.948 . S
C249 C244 1.364 . S
C249 C248 1.379 . S
C250 C219 1.383 . S
C250 C237 1.479 . S
C250 C251 1.398 . S
C251 C216 1.382 . S
C251 H228 0.951 . S
C251 C250 1.398 . S
C252 C253 1.384 . S
C252 H265 0.947 . S
C252 C287 1.382 . S
C253 C252 1.384 . S
C253 C254 1.378 . S
C254 C253 1.378 . S
C254 C255 1.378 . S
C254 H266 0.952 . S
C255 C254 1.378 . S
C255 H267 0.950 . S
C255 C286 1.383 . S
H256 C275 0.947 . S
H257 C276 0.946 . S
H258 C278 0.953 . S
H259 C279 0.945 . S
H260 C281 0.952 . S
H261 C282 0.949 . S
H262 C284 0.950 . S
H263 C285 0.948 . S
H264 C287 0.951 . S
H265 C252 0.947 . S
H266 C254 0.952 . S
H267 C255 0.950 . S
N268 C271 1.382 . S
N268 C273 1.363 . S
N269 C271 1.371 . S
N269 C272 1.372 . S
N270 C272 1.361 . S
N270 C273 1.377 . S
C271 N268 1.382 . S
C271 N269 1.371 . S
C271 C274 1.480 . S
C272 N269 1.372 . S
C272 N270 1.361 . S
C272 C280 1.457 . S
C273 N268 1.363 . S
C273 N270 1.377 . S
C273 C286 1.479 . S
C274 C271 1.480 . S
C274 C275 1.383 . S
C274 C279 1.385 . S
C275 H256 0.947 . S
C275 C274 1.383 . S
C275 C276 1.388 . S
C276 H257 0.946 . S
C276 C275 1.388 . S
C276 C277 1.384 . S
C277 C276 1.384 . S
C277 C278 1.377 . S
C278 H258 0.953 . S
C278 C277 1.377 . S
C278 C279 1.369 . S
C279 H259 0.945 . S
C279 C274 1.385 . S
C279 C278 1.369 . S
C280 C272 1.457 . S
C280 C281 1.372 . S
C280 C285 1.364 . S
C281 H260 0.952 . S
C281 C280 1.372 . S
C281 C282 1.389 . S
C282 H261 0.949 . S
C282 C281 1.389 . S
C282 C283 1.387 . S
C283 C282 1.387 . S
C283 C284 1.372 . S
C284 H262 0.950 . S
C284 C283 1.372 . S
C284 C285 1.379 . S
C285 H263 0.948 . S
C285 C280 1.364 . S
C285 C284 1.379 . S
C286 C255 1.383 . S
C286 C273 1.479 . S
C286 C287 1.398 . S
C287 C252 1.382 . S
C287 H264 0.951 . S
C287 C286 1.398 . S
C288 O290 1.247 . S
C288 O292 1.258 . S
C289 O296 1.247 . S
C289 O297 1.258 . S
O290 C288 1.247 . S
O290 Zn291 2.028 1_655 S
Zn291 O290 2.028 1_455 S
Zn291 O295 2.035 . S
Zn291 O297 2.035 . S
Zn291 O298 2.028 1_455 S
O292 C288 1.258 . S
O292 Zn293 2.035 1_655 S
Zn293 O292 2.035 1_455 S
Zn293 O294 2.028 . S
Zn293 O296 2.028 . S
Zn293 O299 2.035 1_455 S
O294 Zn293 2.028 . S
O294 C300 1.247 . S
O295 Zn291 2.035 . S
O295 C300 1.258 . S
O296 C289 1.247 . S
O296 Zn293 2.028 . S
O297 C289 1.258 . S
O297 Zn291 2.035 . S
O298 Zn291 2.028 1_655 S
O298 C301 1.247 . S
O299 Zn293 2.035 1_655 S
O299 C301 1.258 . S
C300 O294 1.247 . S
C300 O295 1.258 . S
C301 O298 1.247 . S
C301 O299 1.258 . S
C302 O304 1.247 . S
C302 O306 1.258 . S
C303 O310 1.247 . S
C303 O311 1.258 . S
O304 C302 1.247 . S
O304 Zn305 2.028 1_655 S
Zn305 O304 2.028 1_455 S
Zn305 O309 2.035 . S
Zn305 O311 2.035 . S
Zn305 O312 2.028 1_455 S
O306 C302 1.258 . S
O306 Zn307 2.035 1_655 S
Zn307 O306 2.035 1_455 S
Zn307 O308 2.028 . S
Zn307 O310 2.028 . S
Zn307 O313 2.035 1_455 S
O308 Zn307 2.028 . S
O308 C314 1.247 . S
O309 Zn305 2.035 . S
O309 C314 1.258 . S
O310 C303 1.247 . S
O310 Zn307 2.028 . S
O311 C303 1.258 . S
O311 Zn305 2.035 . S
O312 Zn305 2.028 1_655 S
O312 C315 1.247 . S
O313 Zn307 2.035 1_655 S
O313 C315 1.258 . S
C314 O308 1.247 . S
C314 O309 1.258 . S
C315 O312 1.247 . S
C315 O313 1.258 . S
C316 O318 1.247 . S
C316 O320 1.258 . S
C317 O324 1.247 . S
C317 O325 1.258 . S
O318 C316 1.247 . S
O318 Zn319 2.028 1_565 S
Zn319 O318 2.028 1_545 S
Zn319 O323 2.035 . S
Zn319 O325 2.035 . S
Zn319 O326 2.028 1_545 S
O320 C316 1.258 . S
O320 Zn321 2.035 1_565 S
Zn321 O320 2.035 1_545 S
Zn321 O322 2.028 . S
Zn321 O324 2.028 . S
Zn321 O327 2.035 1_545 S
O322 Zn321 2.028 . S
O322 C328 1.247 . S
O323 Zn319 2.035 . S
O323 C328 1.258 . S
O324 C317 1.247 . S
O324 Zn321 2.028 . S
O325 C317 1.258 . S
O325 Zn319 2.035 . S
O326 Zn319 2.028 1_565 S
O326 C329 1.247 . S
O327 Zn321 2.035 1_565 S
O327 C329 1.258 . S
C328 O322 1.247 . S
C328 O323 1.258 . S
C329 O326 1.247 . S
C329 O327 1.258 . S
C330 O332 1.247 . S
C330 O334 1.258 . S
C331 O338 1.247 . S
C331 O339 1.258 . S
O332 C330 1.247 . S
O332 Zn333 2.028 . S
Zn333 O332 2.028 . S
Zn333 O337 2.035 . S
Zn333 O339 2.035 1_554 S
Zn333 O340 2.028 1_554 S
O334 C330 1.258 . S
O334 Zn335 2.035 . S
Zn335 O334 2.035 . S
Zn335 O336 2.028 . S
Zn335 O338 2.028 1_554 S
Zn335 O341 2.035 1_554 S
O336 Zn335 2.028 . S
O336 C342 1.247 . S
O337 Zn333 2.035 . S
O337 C342 1.258 . S
O338 C331 1.247 . S
O338 Zn335 2.028 1_556 S
O339 C331 1.258 . S
O339 Zn333 2.035 1_556 S
O340 Zn333 2.028 1_556 S
O340 C343 1.247 . S
O341 Zn335 2.035 1_556 S
O341 C343 1.258 . S
C342 O336 1.247 . S
C342 O337 1.258 . S
C343 O340 1.247 . S
C343 O341 1.258 . S
C344 O346 1.247 . S
C344 O348 1.258 . S
C345 O352 1.247 . S
C345 O353 1.258 . S
O346 C344 1.247 . S
O346 Zn347 2.028 1_565 S
Zn347 O346 2.028 1_545 S
Zn347 O351 2.035 . S
Zn347 O353 2.035 . S
Zn347 O354 2.028 1_545 S
O348 C344 1.258 . S
O348 Zn349 2.035 1_565 S
Zn349 O348 2.035 1_545 S
Zn349 O350 2.028 . S
Zn349 O352 2.028 . S
Zn349 O355 2.035 1_545 S
O350 Zn349 2.028 . S
O350 C356 1.247 . S
O351 Zn347 2.035 . S
O351 C356 1.258 . S
O352 C345 1.247 . S
O352 Zn349 2.028 . S
O353 C345 1.258 . S
O353 Zn347 2.035 . S
O354 Zn347 2.028 1_565 S
O354 C357 1.247 . S
O355 Zn349 2.035 1_565 S
O355 C357 1.258 . S
C356 O350 1.247 . S
C356 O351 1.258 . S
C357 O354 1.247 . S
C357 O355 1.258 . S
C358 O360 1.247 . S
C358 O362 1.258 . S
C359 O366 1.247 . S
C359 O367 1.258 . S
O360 C358 1.247 . S
O360 Zn361 2.036 . S
Zn361 O360 2.036 . S
Zn361 O365 2.043 . S
Zn361 O367 2.028 1_554 S
Zn361 O368 2.020 1_554 S
O362 C358 1.258 . S
O362 Zn363 2.034 1_554 S
Zn363 O362 2.034 1_556 S
Zn363 O364 2.027 1_556 S
Zn363 O366 2.029 . S
Zn363 O369 2.036 . S
O364 Zn363 2.027 1_554 S
O364 C370 1.247 . S
O365 Zn361 2.043 . S
O365 C370 1.258 . S
O366 C359 1.247 . S
O366 Zn363 2.029 . S
O367 C359 1.258 . S
O367 Zn361 2.028 1_556 S
O368 Zn361 2.020 1_556 S
O368 C371 1.247 . S
O369 Zn363 2.036 . S
O369 C371 1.258 . S
C370 O364 1.247 . S
C370 O365 1.258 . S
C371 O368 1.247 . S
C371 O369 1.258 . S
C372 C373 1.387 . S
C372 H376 0.950 . S
C372 C381 1.390 . S
C373 C372 1.387 . S
C373 C375 1.387 . S
H374 C381 0.950 . S
C375 C373 1.387 . S
C375 C377 1.390 . S
C375 H379 0.950 . S
H376 C372 0.950 . S
C377 C375 1.390 . S
C377 C378 1.387 . S
C377 H380 0.950 . S
C378 C377 1.387 . S
C378 C381 1.387 . S
H379 C375 0.950 . S
H380 C377 0.950 . S
C381 C372 1.390 . S
C381 H374 0.950 . S
C381 C378 1.387 . S
C382 C383 1.387 . S
C382 H386 0.950 . S
C382 C391 1.390 . S
C383 C382 1.387 . S
C383 C385 1.387 . S
H384 C391 0.950 . S
C385 C383 1.387 . S
C385 C387 1.390 . S
C385 H389 0.950 . S
H386 C382 0.950 . S
C387 C385 1.390 . S
C387 C388 1.387 . S
C387 H390 0.950 . S
C388 C387 1.387 . S
C388 C391 1.387 . S
H389 C385 0.950 . S
H390 C387 0.950 . S
C391 C382 1.390 . S
C391 H384 0.950 . S
C391 C388 1.387 . S
C392 C393 1.387 . S
C392 H396 0.950 . S
C392 C401 1.390 . S
C393 C392 1.387 . S
C393 C395 1.387 . S
H394 C401 0.950 . S
C395 C393 1.387 . S
C395 C397 1.390 . S
C395 H399 0.950 . S
H396 C392 0.950 . S
C397 C395 1.390 . S
C397 C398 1.387 . S
C397 H400 0.950 . S
C398 C397 1.387 . S
C398 C401 1.387 . S
H399 C395 0.950 . S
H400 C397 0.950 . S
C401 C392 1.390 . S
C401 H394 0.950 . S
C401 C398 1.387 . S
C402 C403 1.387 . S
C402 H406 0.950 . S
C402 C411 1.390 . S
C403 C402 1.387 . S
C403 C405 1.387 . S
H404 C411 0.950 . S
C405 C403 1.387 . S
C405 C407 1.390 . S
C405 H409 0.950 . S
H406 C402 0.950 . S
C407 C405 1.390 . S
C407 C408 1.387 . S
C407 H410 0.950 . S
C408 C407 1.387 . S
C408 C411 1.387 . S
H409 C405 0.950 . S
H410 C407 0.950 . S
C411 C402 1.390 . S
C411 H404 0.950 . S
C411 C408 1.387 . S
C412 C413 1.387 . S
C412 H416 0.950 . S
C412 C421 1.390 . S
C413 C412 1.387 . S
C413 C415 1.387 . S
H414 C421 0.950 . S
C415 C413 1.387 . S
C415 C417 1.390 . S
C415 H419 0.950 . S
H416 C412 0.950 . S
C417 C415 1.390 . S
C417 C418 1.387 . S
C417 H420 0.950 . S
C418 C417 1.387 . S
C418 C421 1.387 . S
H419 C415 0.950 . S
H420 C417 0.950 . S
C421 C412 1.390 . S
C421 H414 0.950 . S
C421 C418 1.387 . S
C422 C423 1.387 . S
C422 H426 0.950 . S
C422 C431 1.390 . S
C423 C422 1.387 . S
C423 C425 1.387 . S
H424 C431 0.950 . S
C425 C423 1.387 . S
C425 C427 1.390 . S
C425 H429 0.950 . S
H426 C422 0.950 . S
C427 C425 1.390 . S
C427 C428 1.387 . S
C427 H430 0.950 . S
C428 C427 1.387 . S
C428 C431 1.387 . S
H429 C425 0.950 . S
H430 C427 0.950 . S
C431 C422 1.390 . S
C431 H424 0.950 . S
C431 C428 1.387 . S
C432 C433 1.387 . S
C432 H436 0.950 . S
C432 C441 1.390 . S
C433 C432 1.387 . S
C433 C435 1.387 . S
H434 C441 0.950 . S
C435 C433 1.387 . S
C435 C437 1.390 . S
C435 H439 0.950 . S
H436 C432 0.950 . S
C437 C435 1.390 . S
C437 C438 1.387 . S
C437 H440 0.950 . S
C438 C437 1.387 . S
C438 C441 1.387 . S
H439 C435 0.950 . S
H440 C437 0.950 . S
C441 C432 1.390 . S
C441 H434 0.950 . S
C441 C438 1.387 . S
C442 C443 1.387 . S
C442 H446 0.950 . S
C442 C451 1.390 . S
C443 C442 1.387 . S
C443 C445 1.387 . S
H444 C451 0.950 . S
C445 C443 1.387 . S
C445 C447 1.390 . S
C445 H449 0.950 . S
H446 C442 0.950 . S
C447 C445 1.390 . S
C447 C448 1.387 . S
C447 H450 0.950 . S
C448 C447 1.387 . S
C448 C451 1.387 . S
H449 C445 0.950 . S
H450 C447 0.950 . S
C451 C442 1.390 . S
C451 H444 0.950 . S
C451 C448 1.387 . S
C452 C453 1.387 . S
C452 H456 0.950 . S
C452 C461 1.390 . S
C453 C452 1.387 . S
C453 C455 1.387 . S
H454 C461 0.950 . S
C455 C453 1.387 . S
C455 C457 1.390 . S
C455 H459 0.950 . S
H456 C452 0.950 . S
C457 C455 1.390 . S
C457 C458 1.387 . S
C457 H460 0.950 . S
C458 C457 1.387 . S
C458 C461 1.387 . S
H459 C455 0.950 . S
H460 C457 0.950 . S
C461 C452 1.390 . S
C461 H454 0.950 . S
C461 C458 1.387 . S
C462 C463 1.387 . S
C462 H466 0.950 . S
C462 C471 1.390 . S
C463 C462 1.387 . S
C463 C465 1.387 . S
H464 C471 0.950 . S
C465 C463 1.387 . S
C465 C467 1.390 . S
C465 H469 0.950 . S
H466 C462 0.950 . S
C467 C465 1.390 . S
C467 C468 1.387 . S
C467 H470 0.950 . S
C468 C467 1.387 . S
C468 C471 1.387 . S
H469 C465 0.950 . S
H470 C467 0.950 . S
C471 C462 1.390 . S
C471 H464 0.950 . S
C471 C468 1.387 . S
C472 C473 1.387 . S
C472 H476 0.950 . S
C472 C481 1.390 . S
C473 C472 1.387 . S
C473 C475 1.387 . S
H474 C481 0.950 . S
C475 C473 1.387 . S
C475 C477 1.390 . S
C475 H479 0.950 . S
H476 C472 0.950 . S
C477 C475 1.390 . S
C477 C478 1.387 . S
C477 H480 0.950 . S
C478 C477 1.387 . S
C478 C481 1.387 . S
H479 C475 0.950 . S
H480 C477 0.950 . S
C481 C472 1.390 . S
C481 H474 0.950 . S
C481 C478 1.387 . S
C482 C483 1.387 . S
C482 H486 0.950 . S
C482 C491 1.390 . S
C483 C482 1.387 . S
C483 C485 1.387 . S
H484 C491 0.950 . S
C485 C483 1.387 . S
C485 C487 1.390 . S
C485 H489 0.950 . S
H486 C482 0.950 . S
C487 C485 1.390 . S
C487 C488 1.387 . S
C487 H490 0.950 . S
C488 C487 1.387 . S
C488 C491 1.387 . S
H489 C485 0.950 . S
H490 C487 0.950 . S
C491 C482 1.390 . S
C491 H484 0.950 . S
C491 C488 1.387 . S
C492 C493 1.387 . S
C492 H496 0.950 . S
C492 C501 1.390 . S
C493 C492 1.387 . S
C493 C495 1.387 . S
H494 C501 0.950 . S
C495 C493 1.387 . S
C495 C497 1.390 . S
C495 H499 0.950 . S
H496 C492 0.950 . S
C497 C495 1.390 . S
C497 C498 1.387 . S
C497 H500 0.950 . S
C498 C497 1.387 . S
C498 C501 1.387 . S
H499 C495 0.950 . S
H500 C497 0.950 . S
C501 C492 1.390 . S
C501 H494 0.950 . S
C501 C498 1.387 . S
C502 C503 1.387 . S
C502 H506 0.950 . S
C502 C511 1.390 . S
C503 C502 1.387 . S
C503 C505 1.387 . S
H504 C511 0.950 . S
C505 C503 1.387 . S
C505 C507 1.390 . S
C505 H509 0.950 . S
H506 C502 0.950 . S
C507 C505 1.390 . S
C507 C508 1.387 . S
C507 H510 0.950 . S
C508 C507 1.387 . S
C508 C511 1.387 . S
H509 C505 0.950 . S
H510 C507 0.950 . S
C511 C502 1.390 . S
C511 H504 0.950 . S
C511 C508 1.387 . S
C512 C513 1.387 . S
C512 H516 0.950 . S
C512 C521 1.390 . S
C513 C512 1.387 . S
C513 C515 1.387 . S
H514 C521 0.950 . S
C515 C513 1.387 . S
C515 C517 1.390 . S
C515 H519 0.950 . S
H516 C512 0.950 . S
C517 C515 1.390 . S
C517 C518 1.387 . S
C517 H520 0.950 . S
C518 C517 1.387 . S
C518 C521 1.387 . S
H519 C515 0.950 . S
H520 C517 0.950 . S
C521 C512 1.390 . S
C521 H514 0.950 . S
C521 C518 1.387 . S
C522 C523 1.387 . S
C522 H526 0.950 . S
C522 C531 1.390 . S
C523 C522 1.387 . S
C523 C525 1.387 . S
H524 C531 0.950 . S
C525 C523 1.387 . S
C525 C527 1.390 . S
C525 H529 0.950 . S
H526 C522 0.950 . S
C527 C525 1.390 . S
C527 C528 1.387 . S
C527 H530 0.950 . S
C528 C527 1.387 . S
C528 C531 1.387 . S
H529 C525 0.950 . S
H530 C527 0.950 . S
C531 C522 1.390 . S
C531 H524 0.950 . S
C531 C528 1.387 . S
C532 C533 1.387 . S
C532 H536 0.950 . S
C532 C541 1.390 . S
C533 C532 1.387 . S
C533 C535 1.387 . S
H534 C541 0.950 . S
C535 C533 1.387 . S
C535 C537 1.390 . S
C535 H539 0.950 . S
H536 C532 0.950 . S
C537 C535 1.390 . S
C537 C538 1.387 . S
C537 H540 0.950 . S
C538 C537 1.387 . S
C538 C541 1.387 . S
H539 C535 0.950 . S
H540 C537 0.950 . S
C541 C532 1.390 . S
C541 H534 0.950 . S
C541 C538 1.387 . S
C542 C543 1.387 . S
C542 H546 0.950 . S
C542 C551 1.390 . S
C543 C542 1.387 . S
C543 C545 1.387 . S
H544 C551 0.950 . S
C545 C543 1.387 . S
C545 C547 1.390 . S
C545 H549 0.950 . S
H546 C542 0.950 . S
C547 C545 1.390 . S
C547 C548 1.387 . S
C547 H550 0.950 . S
C548 C547 1.387 . S
C548 C551 1.387 . S
H549 C545 0.950 . S
H550 C547 0.950 . S
C551 C542 1.390 . S
C551 H544 0.950 . S
C551 C548 1.387 . S
C552 C553 1.387 . S
C552 H556 0.950 . S
C552 C561 1.390 . S
C553 C552 1.387 . S
C553 C555 1.387 . S
H554 C561 0.950 . S
C555 C553 1.387 . S
C555 C557 1.390 . S
C555 H559 0.950 . S
H556 C552 0.950 . S
C557 C555 1.390 . S
C557 C558 1.387 . S
C557 H560 0.950 . S
C558 C557 1.387 . S
C558 C561 1.387 . S
H559 C555 0.950 . S
H560 C557 0.950 . S
C561 C552 1.390 . S
C561 H554 0.950 . S
C561 C558 1.387 . S
C562 C563 1.387 . S
C562 H566 0.950 . S
C562 C571 1.390 . S
C563 C562 1.387 . S
C563 C565 1.387 . S
H564 C571 0.950 . S
C565 C563 1.387 . S
C565 C567 1.390 . S
C565 H569 0.950 . S
H566 C562 0.950 . S
C567 C565 1.390 . S
C567 C568 1.387 . S
C567 H570 0.950 . S
C568 C567 1.387 . S
C568 C571 1.387 . S
H569 C565 0.950 . S
H570 C567 0.950 . S
C571 C562 1.390 . S
C571 H564 0.950 . S
C571 C568 1.387 . S
C572 C573 1.387 . S
C572 H576 0.950 . S
C572 C581 1.390 . S
C573 C572 1.387 . S
C573 C575 1.387 . S
H574 C581 0.950 . S
C575 C573 1.387 . S
C575 C577 1.390 . S
C575 H579 0.950 . S
H576 C572 0.950 . S
C577 C575 1.390 . S
C577 C578 1.387 . S
C577 H580 0.950 . S
C578 C577 1.387 . S
C578 C581 1.387 . S
H579 C575 0.950 . S
H580 C577 0.950 . S
C581 C572 1.390 . S
C581 H574 0.950 . S
C581 C578 1.387 . S
C582 C583 1.387 . S
C582 H586 0.950 . S
C582 C591 1.390 . S
C583 C582 1.387 . S
C583 C585 1.387 . S
H584 C591 0.950 . S
C585 C583 1.387 . S
C585 C587 1.390 . S
C585 H589 0.950 . S
H586 C582 0.950 . S
C587 C585 1.390 . S
C587 C588 1.387 . S
C587 H590 0.950 . S
C588 C587 1.387 . S
C588 C591 1.387 . S
H589 C585 0.950 . S
H590 C587 0.950 . S
C591 C582 1.390 . S
C591 H584 0.950 . S
C591 C588 1.387 . S
C592 C593 1.387 . S
C592 H596 0.950 . S
C592 C601 1.390 . S
C593 C592 1.387 . S
C593 C595 1.387 . S
H594 C601 0.950 . S
C595 C593 1.387 . S
C595 C597 1.390 . S
C595 H599 0.950 . S
H596 C592 0.950 . S
C597 C595 1.390 . S
C597 C598 1.387 . S
C597 H600 0.950 . S
C598 C597 1.387 . S
C598 C601 1.387 . S
H599 C595 0.950 . S
H600 C597 0.950 . S
C601 C592 1.390 . S
C601 H594 0.950 . S
C601 C598 1.387 . S
C602 C603 1.387 . S
C602 H606 0.950 . S
C602 C611 1.390 . S
C603 C602 1.387 . S
C603 C605 1.387 . S
H604 C611 0.950 . S
C605 C603 1.387 . S
C605 C607 1.390 . S
C605 H609 0.950 . S
H606 C602 0.950 . S
C607 C605 1.390 . S
C607 C608 1.387 . S
C607 H610 0.950 . S
C608 C607 1.387 . S
C608 C611 1.387 . S
H609 C605 0.950 . S
H610 C607 0.950 . S
C611 C602 1.390 . S
C611 H604 0.950 . S
C611 C608 1.387 . S
C378 C300 1.508 . S
C373 C25 1.509 . S
C388 C303 1.506 . S
C383 C37 1.509 . S
C398 C301 1.516 . S
C393 C103 1.508 . S
C408 C302 1.508 . S
C403 C139 1.510 . S
C418 C317 1.503 . S
C413 C31 1.503 . S
C428 C331 1.505 . S
C423 C67 1.506 . S
C433 C97 1.502 . S
C438 C357 1.510 . S
C448 C371 1.499 . S
C443 C133 1.499 . S
C458 C316 1.502 . S
C453 C61 1.502 . S
C463 C73 1.509 . S
C468 C330 1.510 . S
C478 C356 1.505 . S
C473 C109 1.506 . S
C488 C370 1.501 . S
C483 C1 1.502 . S
C493 C169 1.500 . S
C498 C315 1.506 . S
C508 C288 1.507 . S
C503 C211 1.500 . S
C513 C241 1.502 . S
C518 C314 1.501 . S
C523 C253 1.504 . S
C528 C289 1.508 . S
C538 C344 1.509 . S
C533 C175 1.504 . S
C548 C358 1.503 . S
C543 C205 1.499 . S
C558 C328 1.502 . S
C553 C217 1.501 . S
C563 C283 1.509 . S
C568 C342 1.511 . S
C578 C345 1.508 . S
C573 C181 1.503 . S
C588 C359 1.504 . S
C583 C247 1.506 . S
C598 C329 1.504 . S
C593 C277 1.498 . S
C603 C145 1.506 . S
C608 C343 1.508 . S
