# Generated by pormake.
# Topology pyr, (3,6)-cn, num edge types: 1
# Building blocks:
#     Node 0, Type 0, BuildingBlock: QEWDON_clean_linker_0, # of connection points: 3
#     Node 1, Type 0, BuildingBlock: QEWDON_clean_linker_0, # of connection points: 3
#     Node 2, Type 0, BuildingBlock: QEWDON_clean_linker_0, # of connection points: 3
#     Node 3, Type 0, BuildingBlock: QEWDON_clean_linker_0, # of connection points: 3
#     Node 4, Type 0, BuildingBlock: QEWDON_clean_linker_0, # of connection points: 3
#     Node 5, Type 0, BuildingBlock: QEWDON_clean_linker_0, # of connection points: 3
#     Node 6, Type 0, BuildingBlock: QEWDON_clean_linker_0, # of connection points: 3
#     Node 7, Type 0, BuildingBlock: QEWDON_clean_linker_0, # of connection points: 3
#     Node 8, Type 1, BuildingBlock: BETGAK_clean_sbu_0, # of connection points: 6
#     Node 9, Type 1, BuildingBlock: BETGAK_clean_sbu_0, # of connection points: 6
#     Node 10, Type 1, BuildingBlock: BETGAK_clean_sbu_0, # of connection points: 6
#     Node 11, Type 1, BuildingBlock: BETGAK_clean_sbu_0, # of connection points: 6
#     Edge 12, Type (0, 1), BuildingBlock: MIFKUJ_clean_linker_0, # of connection points: 2
#     Edge 13, Type (0, 1), BuildingBlock: MIFKUJ_clean_linker_0, # of connection points: 2
#     Edge 14, Type (0, 1), BuildingBlock: MIFKUJ_clean_linker_0, # of connection points: 2
#     Edge 15, Type (0, 1), BuildingBlock: MIFKUJ_clean_linker_0, # of connection points: 2
#     Edge 16, Type (0, 1), BuildingBlock: MIFKUJ_clean_linker_0, # of connection points: 2
#     Edge 17, Type (0, 1), BuildingBlock: MIFKUJ_clean_linker_0, # of connection points: 2
#     Edge 18, Type (0, 1), BuildingBlock: MIFKUJ_clean_linker_0, # of connection points: 2
#     Edge 19, Type (0, 1), BuildingBlock: MIFKUJ_clean_linker_0, # of connection points: 2
#     Edge 20, Type (0, 1), BuildingBlock: MIFKUJ_clean_linker_0, # of connection points: 2
#     Edge 21, Type (0, 1), BuildingBlock: MIFKUJ_clean_linker_0, # of connection points: 2
#     Edge 22, Type (0, 1), BuildingBlock: MIFKUJ_clean_linker_0, # of connection points: 2
#     Edge 23, Type (0, 1), BuildingBlock: MIFKUJ_clean_linker_0, # of connection points: 2
#     Edge 24, Type (0, 1), BuildingBlock: MIFKUJ_clean_linker_0, # of connection points: 2
#     Edge 25, Type (0, 1), BuildingBlock: MIFKUJ_clean_linker_0, # of connection points: 2
#     Edge 26, Type (0, 1), BuildingBlock: MIFKUJ_clean_linker_0, # of connection points: 2
#     Edge 27, Type (0, 1), BuildingBlock: MIFKUJ_clean_linker_0, # of connection points: 2
#     Edge 28, Type (0, 1), BuildingBlock: MIFKUJ_clean_linker_0, # of connection points: 2
#     Edge 29, Type (0, 1), BuildingBlock: MIFKUJ_clean_linker_0, # of connection points: 2
#     Edge 30, Type (0, 1), BuildingBlock: MIFKUJ_clean_linker_0, # of connection points: 2
#     Edge 31, Type (0, 1), BuildingBlock: MIFKUJ_clean_linker_0, # of connection points: 2
#     Edge 32, Type (0, 1), BuildingBlock: MIFKUJ_clean_linker_0, # of connection points: 2
#     Edge 33, Type (0, 1), BuildingBlock: MIFKUJ_clean_linker_0, # of connection points: 2
#     Edge 34, Type (0, 1), BuildingBlock: MIFKUJ_clean_linker_0, # of connection points: 2
#     Edge 35, Type (0, 1), BuildingBlock: MIFKUJ_clean_linker_0, # of connection points: 2
# Relax obj value: 0.145
# Max RMSD: 0.266
# Mean RMSD: 0.196
data_MOF--net-pyr--node1-BETGAK_clean_sbu_0--node2-QEWDON_clean_linker_0--edge1-MIFKUJ_clean_linker_0
_symmetry_space_group_name_H-M    P1
_symmetry_Int_Tables_number       1
_symmetry_cell_setting            triclinic
loop_
_symmetry_equiv_pos_as_xyz
'x, y, z'
_cell_length_a     49.35235
_cell_length_b     53.25837
_cell_length_c     50.765249
_cell_angle_alpha  91.823371
_cell_angle_beta   89.791941
_cell_angle_gamma 107.78983
loop_
_atom_site_label
_atom_site_type_symbol
_atom_site_fract_x
_atom_site_fract_y
_atom_site_fract_z
_atom_type_partial_charge
H0 H 0.36778 0.30218 0.19596 0.0
C1 C 0.35147 0.295 0.21064 0.0
C2 C 0.3463 0.26941 0.22 0.0
C3 C 0.33534 0.31119 0.21968 0.0
H4 H 0.3211 0.24065 0.24649 0.0
C5 C 0.32494 0.26019 0.23882 0.0
C6 C 0.30867 0.27609 0.24806 0.0
C7 C 0.31374 0.30143 0.23819 0.0
C8 C 0.34181 0.33865 0.21064 0.0
H9 H 0.30164 0.31395 0.2458 0.0
C10 C 0.31976 0.34903 0.20402 0.0
C11 C 0.32586 0.37536 0.19624 0.0
C12 C 0.37017 0.35485 0.20921 0.0
H13 H 0.38756 0.34753 0.2145 0.0
C14 C 0.37639 0.38091 0.20157 0.0
H15 H 0.2979 0.33641 0.20445 0.0
C16 C 0.35448 0.39117 0.19524 0.0
H17 H 0.36 0.41164 0.18992 0.0
H18 H 0.3983 0.39331 0.20081 0.0
H19 H 0.27664 0.90756 0.70777 0.0
C20 C 0.28869 0.89637 0.69751 0.0
C21 C 0.31634 0.89823 0.70608 0.0
C22 C 0.27626 0.87962 0.67604 0.0
H23 H 0.3524 0.88395 0.69965 0.0
C24 C 0.33156 0.88347 0.69254 0.0
C25 C 0.31943 0.86688 0.67083 0.0
C26 C 0.29181 0.86523 0.66268 0.0
C27 C 0.2468 0.87658 0.66757 0.0
H28 H 0.28234 0.85278 0.64573 0.0
C29 C 0.23853 0.89877 0.66169 0.0
C30 C 0.21131 0.89562 0.65131 0.0
C31 C 0.22726 0.85123 0.66391 0.0
H32 H 0.23318 0.83386 0.66847 0.0
C33 C 0.19998 0.8481 0.65422 0.0
H34 H 0.25368 0.91834 0.66398 0.0
C35 C 0.19206 0.87015 0.64772 0.0
H36 H 0.17091 0.86733 0.63991 0.0
H37 H 0.18504 0.82853 0.65144 0.0
H38 H 0.69885 0.43834 0.88998 0.0
C39 C 0.69031 0.41853 0.8971 0.0
C40 C 0.70622 0.40896 0.91534 0.0
C41 C 0.66275 0.40308 0.889 0.0
H42 H 0.70532 0.37645 0.94007 0.0
C43 C 0.694 0.38339 0.92511 0.0
C44 C 0.66666 0.36731 0.91722 0.0
C45 C 0.65148 0.37744 0.89894 0.0
C46 C 0.64336 0.4149 0.87433 0.0
H47 H 0.63032 0.36558 0.89278 0.0
C48 C 0.64964 0.42682 0.84931 0.0
C49 C 0.62968 0.43724 0.83687 0.0
C50 C 0.61738 0.41404 0.88636 0.0
H51 H 0.61202 0.40543 0.90548 0.0
C52 C 0.5981 0.42444 0.87427 0.0
H53 H 0.66948 0.42773 0.83961 0.0
C54 C 0.60413 0.43588 0.84983 0.0
H55 H 0.58862 0.44369 0.84086 0.0
H56 H 0.57827 0.4236 0.88395 0.0
H57 H 0.90118 0.77919 0.37511 0.0
C58 C 0.88384 0.76617 0.38596 0.0
C59 C 0.87832 0.77328 0.41198 0.0
C60 C 0.86637 0.74293 0.3733 0.0
H61 H 0.8509 0.76178 0.44534 0.0
C62 C 0.85508 0.75641 0.42534 0.0
C63 C 0.83643 0.73356 0.4129 0.0
C64 C 0.8426 0.72694 0.38681 0.0
C65 C 0.86891 0.73908 0.34425 0.0
H66 H 0.82804 0.71027 0.37629 0.0
C67 C 0.88484 0.72349 0.33257 0.0
C68 C 0.88731 0.72189 0.30469 0.0
C69 C 0.85534 0.75234 0.32788 0.0
H70 H 0.84308 0.76433 0.33634 0.0
C71 C 0.85755 0.75054 0.30058 0.0
H72 H 0.89554 0.71322 0.34494 0.0
C73 C 0.87347 0.73559 0.28908 0.0
H74 H 0.87494 0.73465 0.26778 0.0
H75 H 0.847 0.76094 0.28823 0.0
H76 H 0.74058 0.80888 0.94298 0.0
C77 C 0.74959 0.8209 0.92639 0.0
C78 C 0.77627 0.82098 0.91659 0.0
C79 C 0.73464 0.83664 0.91518 0.0
H80 H 0.80777 0.83619 0.88676 0.0
C81 C 0.78755 0.8365 0.89497 0.0
C82 C 0.77292 0.85227 0.88359 0.0
C83 C 0.74671 0.85268 0.89405 0.0
C84 C 0.70575 0.83517 0.92459 0.0
H85 H 0.73513 0.86451 0.88498 0.0
C86 C 0.6983 0.85824 0.9304 0.0
C87 C 0.67064 0.85667 0.93902 0.0
C88 C 0.68529 0.81045 0.92738 0.0
H89 H 0.69042 0.79243 0.92279 0.0
C90 C 0.6578 0.80874 0.93551 0.0
H91 H 0.71429 0.8773 0.92885 0.0
C92 C 0.65045 0.8316 0.9412 0.0
H93 H 0.62879 0.82958 0.94709 0.0
H94 H 0.64207 0.7896 0.93728 0.0
H95 H 0.77238 0.20734 0.51823 0.0
C96 C 0.76196 0.20633 0.49928 0.0
C97 C 0.77395 0.1983 0.47671 0.0
C98 C 0.73637 0.2125 0.49773 0.0
H99 H 0.76927 0.18983 0.43499 0.0
C100 C 0.76025 0.19661 0.45229 0.0
C101 C 0.73483 0.20315 0.45019 0.0
C102 C 0.72303 0.21111 0.47305 0.0
C103 C 0.72344 0.21993 0.52201 0.0
H104 H 0.70332 0.21597 0.47171 0.0
C105 C 0.71238 0.24131 0.52228 0.0
C106 C 0.70038 0.24864 0.54533 0.0
C107 C 0.72233 0.20581 0.54514 0.0
H108 H 0.73039 0.18905 0.54544 0.0
C109 C 0.71047 0.213 0.56807 0.0
H110 H 0.7138 0.25268 0.50471 0.0
C111 C 0.69956 0.23428 0.56823 0.0
H112 H 0.69013 0.23926 0.58617 0.0
H113 H 0.7096 0.20195 0.58575 0.0
H114 H 0.4248 0.7884 0.2475 0.0
C115 C 0.4034 0.77773 0.24091 0.0
C116 C 0.38887 0.78988 0.22386 0.0
C117 C 0.39115 0.75137 0.24859 0.0
H118 H 0.35027 0.78402 0.20157 0.0
C119 C 0.36149 0.775 0.21474 0.0
C120 C 0.34896 0.74832 0.22128 0.0
C121 C 0.36403 0.73692 0.23856 0.0
C122 C 0.40971 0.7369 0.26027 0.0
H123 H 0.35567 0.71617 0.24277 0.0
C124 C 0.41088 0.73172 0.28762 0.0
C125 C 0.42962 0.71797 0.29675 0.0
C126 C 0.42676 0.72779 0.24258 0.0
H127 H 0.42618 0.73134 0.22171 0.0
C128 C 0.44449 0.71388 0.25132 0.0
H129 H 0.39792 0.7387 0.30155 0.0
C130 C 0.44591 0.709 0.27796 0.0
H131 H 0.45985 0.69791 0.28388 0.0
H132 H 0.4573 0.70682 0.23731 0.0
H133 H 0.22806 0.45004 0.75665 0.0
C134 C 0.21578 0.43268 0.74541 0.0
C135 C 0.22556 0.42684 0.72047 0.0
C136 C 0.19163 0.41488 0.75683 0.0
H137 H 0.21848 0.3988 0.6878 0.0
C138 C 0.2107 0.40327 0.70682 0.0
C139 C 0.18638 0.38528 0.71759 0.0
C140 C 0.17694 0.39147 0.74253 0.0
C141 C 0.18585 0.4169 0.78565 0.0
H142 H 0.15919 0.37719 0.75172 0.0
C143 C 0.17363 0.43557 0.79727 0.0
C144 C 0.16732 0.43491 0.82468 0.0
C145 C 0.19221 0.39849 0.8018 0.0
H146 H 0.20163 0.38412 0.79349 0.0
C147 C 0.18649 0.3982 0.82867 0.0
H148 H 0.16838 0.4498 0.78511 0.0
C149 C 0.17404 0.4161 0.83998 0.0
H150 H 0.16956 0.41524 0.86091 0.0
H151 H 0.19153 0.38385 0.84079 0.0
La152 La 0.03432 0.09104 0.53632 0.0
La153 La 0.02129 0.06971 0.59052 0.0
C154 C 0.03818 0.11612 0.49442 0.0
C155 C 0.0607 0.13514 0.47982 0.0
C156 C 0.08844 0.13327 0.47891 0.0
C157 C 0.10878 0.14953 0.46263 0.0
C158 C 0.10196 0.16831 0.4472 0.0
C159 C 0.07444 0.17089 0.44917 0.0
C160 C 0.05397 0.15431 0.46519 0.0
C161 C 0.07262 0.07113 0.55568 0.0
C162 C 0.05571 0.1292 0.58702 0.0
C163 C 0.01382 0.04492 0.63276 0.0
C164 C 0.98874 0.02976 0.64784 0.0
C165 C 0.96975 0.042 0.65916 0.0
C166 C 0.94727 0.02779 0.6748 0.0
C167 C 0.94338 1.00107 0.67971 0.0
C168 C 0.96196 0.98872 0.66776 0.0
C169 C 0.9842 1.00287 0.65185 0.0
C170 C 0.98304 0.08936 0.57046 0.0
C171 C 1.00237 0.03114 0.54002 0.0
O172 O 0.04044 0.09236 0.49557 0.0
O173 O 0.03064 0.12437 0.51702 0.0
O174 O 0.06769 0.07196 0.53081 0.0
O175 O 0.05909 0.08392 0.56826 0.0
O176 O 0.04736 0.1272 0.562 0.0
O177 O 0.05268 0.1077 0.60064 0.0
O178 O 0.018 0.07028 0.63161 0.0
O179 O 0.01848 0.03464 0.61009 0.0
O180 O 0.98781 0.08889 0.59534 0.0
O181 O 0.99669 0.07643 0.55843 0.0
O182 O 0.01118 0.03359 0.56492 0.0
O183 O 1.00415 0.05238 0.52639 0.0
H184 H 0.09415 0.11863 0.49011 0.0
H185 H 0.12951 0.1466 0.46142 0.0
H186 H 0.06852 0.18542 0.43802 0.0
H187 H 0.03266 0.15602 0.46567 0.0
H188 H 0.97235 0.06265 0.6562 0.0
H189 H 0.93304 0.03783 0.68317 0.0
H190 H 0.9599 0.96827 0.67125 0.0
H191 H 0.99812 0.99286 0.64299 0.0
La192 La 0.55472 0.08988 0.08564 0.0
La193 La 0.50104 0.06908 0.05895 0.0
C194 C 0.59891 0.11864 0.10904 0.0
C195 C 0.606 0.12839 0.13631 0.0
C196 C 0.59149 0.11412 0.15757 0.0
C197 C 0.59916 0.12314 0.18345 0.0
C198 C 0.62129 0.14675 0.18853 0.0
C199 C 0.63519 0.16131 0.16706 0.0
C200 C 0.62765 0.15214 0.14119 0.0
C201 C 0.52479 0.0421 0.10168 0.0
C202 C 0.50063 0.1037 0.10802 0.0
C203 C 0.45611 0.04117 0.03595 0.0
C204 C 0.44701 0.03096 1.00912 0.0
C205 C 0.42023 0.03105 1.00019 0.0
C206 C 0.41103 0.02195 0.97469 0.0
C207 C 0.42841 1.0124 0.95761 0.0
C208 C 0.45535 1.01237 0.96664 0.0
C209 C 0.46462 0.02166 0.99216 0.0
C210 C 0.53133 0.11694 0.04313 0.0
C211 C 0.55484 0.05486 0.03672 0.0
O212 O 0.59321 0.09322 0.10492 0.0
O213 O 0.58093 0.12791 0.09684 0.0
O214 O 0.5521 0.05063 0.09947 0.0
O215 O 0.51502 0.06076 0.09662 0.0
O216 O 0.52859 0.11152 0.1056 0.0
O217 O 0.48506 0.08275 0.0946 0.0
O218 O 0.4628 0.06669 0.0395 0.0
O219 O 0.47393 0.03146 0.04789 0.0
O220 O 0.50403 0.1086 0.04547 0.0
O221 O 0.5408 0.09807 0.04799 0.0
O222 O 0.5269 0.04714 0.03925 0.0
O223 O 0.57064 0.07583 0.05003 0.0
H224 H 0.57452 0.0958 0.15417 0.0
H225 H 0.58821 0.11126 0.19944 0.0
H226 H 0.65194 0.1798 0.17022 0.0
H227 H 0.63886 0.16353 0.12498 0.0
H228 H 0.40646 0.03836 1.01293 0.0
H229 H 0.39041 0.02272 0.96827 0.0
H230 H 0.46914 1.0049 0.95411 0.0
H231 H 0.48548 0.02154 0.9986 0.0
La232 La 0.52933 0.55783 0.54982 0.0
La233 La 0.53295 0.60223 0.58562 0.0
C234 C 0.53965 0.52165 0.52232 0.0
C235 C 0.55172 0.5002 0.52745 0.0
C236 C 0.53832 0.47488 0.51679 0.0
C237 C 0.54995 0.45444 0.52065 0.0
C238 C 0.57543 0.45903 0.53505 0.0
C239 C 0.58847 0.48437 0.5462 0.0
C240 C 0.57666 0.50472 0.54255 0.0
C241 C 0.48192 0.55412 0.57628 0.0
C242 C 0.55503 0.55846 0.60852 0.0
C243 C 0.52125 0.63765 0.61304 0.0
C244 C 0.50509 0.65621 0.60836 0.0
C245 C 0.51312 0.67523 0.58883 0.0
C246 C 0.49717 0.69242 0.58475 0.0
C247 C 0.4728 0.69056 0.59985 0.0
C248 C 0.46468 0.67138 0.61912 0.0
C249 C 0.48076 0.65446 0.62342 0.0
C250 C 0.5808 0.60674 0.55967 0.0
C251 C 0.50794 0.6019 0.52714 0.0
O252 O 0.5148 0.51952 0.53267 0.0
O253 O 0.55707 0.54566 0.52487 0.0
O254 O 0.48272 0.54709 0.55169 0.0
O255 O 0.50703 0.56209 0.58515 0.0
O256 O 0.55206 0.54825 0.58407 0.0
O257 O 0.5467 0.57926 0.61458 0.0
O258 O 0.54517 0.64135 0.60031 0.0
O259 O 0.50621 0.61273 0.61317 0.0
O260 O 0.57934 0.61431 0.58401 0.0
O261 O 0.5558 0.59794 0.55043 0.0
O262 O 0.50814 0.61022 0.55209 0.0
O263 O 0.51876 0.58273 0.52071 0.0
H264 H 0.51892 0.47095 0.5053 0.0
H265 H 0.53899 0.43505 0.51227 0.0
H266 H 0.60823 0.48873 0.55719 0.0
H267 H 0.58733 0.52407 0.55121 0.0
H268 H 0.53168 0.67691 0.57675 0.0
H269 H 0.5038 0.70708 0.56979 0.0
H270 H 0.44622 0.66985 0.63132 0.0
H271 H 0.4742 0.63997 0.63856 0.0
La272 La 0.02761 0.55358 0.0778 0.0
La273 La 0.0304 0.60343 0.05353 0.0
C274 C 0.03838 0.51253 0.09168 0.0
C275 C 0.06309 0.50539 0.1018 0.0
C276 C 0.06571 0.50174 0.12886 0.0
C277 C 0.08801 0.49338 0.13831 0.0
C278 C 0.10807 0.48827 0.12089 0.0
C279 C 0.10564 0.49228 0.09387 0.0
C280 C 0.0834 0.50069 0.08442 0.0
C281 C 1.00068 0.582 0.10494 0.0
C282 C 0.08237 0.60434 0.08864 0.0
C283 C 0.02166 0.64487 0.03808 0.0
C284 C 0.99867 0.65363 0.02692 0.0
C285 C 1.00466 0.66994 1.00518 0.0
C286 C 0.98418 0.68042 0.99535 0.0
C287 C 0.95729 0.67497 1.00722 0.0
C288 C 0.95097 0.65786 0.0285 0.0
C289 C 0.97148 0.64724 0.03826 0.0
C290 C 0.0574 0.57469 0.02681 0.0
C291 C 0.97532 0.55288 0.04335 0.0
O292 O 0.02729 0.52668 0.10736 0.0
O293 O 0.03983 0.52025 0.06737 0.0
O294 O 0.99214 0.55645 0.10247 0.0
O295 O 0.02421 0.59065 0.09318 0.0
O296 O 0.07117 0.57831 0.08892 0.0
O297 O 0.06878 0.6191 0.07744 0.0
O298 O 0.03167 0.6295 0.02297 0.0
O299 O 0.01903 0.63754 0.06256 0.0
O300 O 0.06634 0.60017 0.02961 0.0
O301 O 0.03366 0.56639 0.03818 0.0
O302 O 0.98623 0.57898 0.04376 0.0
O303 O 0.98943 0.53809 0.0537 0.0
H304 H 0.0503 0.50501 0.14272 0.0
H305 H 0.08944 0.49082 0.15928 0.0
H306 H 0.12042 0.48815 0.07983 0.0
H307 H 0.08189 0.50301 0.06341 0.0
H308 H 0.02544 0.675 0.99606 0.0
H309 H 0.98957 0.69304 0.97858 0.0
H310 H 0.93055 0.65337 0.0382 0.0
H311 H 0.96627 0.63456 0.05501 0.0
H312 H 0.25323 0.27577 0.248 0.0
H313 H 0.21759 0.25959 0.28221 0.0
H314 H 0.28037 0.23981 0.32936 0.0
H315 H 0.31562 0.25502 0.29474 0.0
H316 H 0.23387 0.20198 0.33109 0.0
H317 H 0.25711 0.29577 0.34254 0.0
H318 H 0.26389 0.34132 0.32895 0.0
H319 H 0.17559 0.32076 0.3073 0.0
H320 H 0.16837 0.27497 0.32043 0.0
H321 H 0.1601 0.18844 0.45273 0.0
H322 H 0.1946 0.20889 0.41907 0.0
H323 H 0.12627 0.20495 0.36494 0.0
H324 H 0.09153 0.18324 0.39787 0.0
H325 H 0.17454 0.25511 0.36715 0.0
H326 H 0.1531 0.1604 0.35606 0.0
H327 H 0.1478 0.1158 0.37169 0.0
H328 H 0.23568 0.14021 0.3954 0.0
H329 H 0.24137 0.18512 0.38029 0.0
C330 C 0.25934 0.26801 0.26573 0.0
C331 C 0.2871 0.26659 0.26878 0.0
C332 C 0.23904 0.2589 0.28533 0.0
C333 C 0.24636 0.24882 0.30861 0.0
C334 C 0.27415 0.24744 0.3116 0.0
C335 C 0.29428 0.25612 0.29183 0.0
C336 C 0.22499 0.23914 0.32965 0.0
C337 C 0.22125 0.21383 0.33917 0.0
C338 C 0.20804 0.25431 0.33998 0.0
C339 C 0.21226 0.28187 0.33223 0.0
C340 C 0.23918 0.30092 0.33471 0.0
C341 C 0.2431 0.32678 0.32712 0.0
C342 C 0.2202 0.33391 0.31721 0.0
C343 C 0.19332 0.3152 0.31495 0.0
C344 C 0.18929 0.28929 0.32248 0.0
C345 C 0.1523 0.19179 0.43366 0.0
C346 C 0.12292 0.18384 0.42802 0.0
C347 C 0.17208 0.2037 0.41455 0.0
C348 C 0.16291 0.20826 0.38956 0.0
C349 C 0.1337 0.20167 0.3842 0.0
C350 C 0.11388 0.18937 0.40316 0.0
C351 C 0.18383 0.21826 0.36848 0.0
C352 C 0.18735 0.24348 0.35899 0.0
C353 C 0.2009 0.20322 0.35841 0.0
C354 C 0.19757 0.17618 0.36732 0.0
C355 C 0.17122 0.15633 0.36484 0.0
C356 C 0.16816 0.13098 0.37356 0.0
C357 C 0.19137 0.12519 0.3846 0.0
C358 C 0.21771 0.14473 0.38688 0.0
C359 C 0.22086 0.17013 0.37823 0.0
H360 H 0.18896 0.10555 0.39133 0.0
H361 H 0.22328 0.35394 0.31133 0.0
H362 H 0.28978 0.90205 0.75272 0.0
H363 H 0.31094 0.92577 0.79321 0.0
H364 H 0.39224 0.95367 0.75471 0.0
H365 H 0.37111 0.93012 0.71395 0.0
H366 H 0.39731 0.93376 0.80172 0.0
H367 H 0.35472 0.99579 0.76932 0.0
H368 H 0.31661 1.01128 0.75115 0.0
H369 H 0.26671 0.98715 0.8206 0.0
H370 H 0.30435 0.97114 0.83903 0.0
H371 H 0.45913 0.01949 0.91176 0.0
H372 H 0.44208 1.00328 0.86731 0.0
H373 H 0.35784 0.96736 0.89765 0.0
H374 H 0.37475 0.9829 0.94215 0.0
H375 H 0.3575 0.99521 0.8527 0.0
H376 H 0.39906 0.93006 0.88301 0.0
H377 H 0.43751 0.91487 0.90092 0.0
H378 H 0.49004 0.94592 0.83467 0.0
H379 H 0.45201 0.96164 0.81654 0.0
C380 C 0.31203 0.91366 0.75267 0.0
C381 C 0.32875 0.91424 0.73009 0.0
C382 C 0.32412 0.92717 0.77587 0.0
C383 C 0.35313 0.94165 0.77692 0.0
C384 C 0.36982 0.94258 0.75433 0.0
C385 C 0.35773 0.92907 0.73109 0.0
C386 C 0.36621 0.95471 0.80202 0.0
C387 C 0.38896 0.9476 0.81262 0.0
C388 C 0.35499 0.97241 0.81644 0.0
C389 C 0.33229 0.98206 0.80546 0.0
C390 C 0.33553 0.99358 0.78063 0.0
C391 C 0.31402 1.00249 0.7703 0.0
C392 C 0.28923 1.00015 0.78469 0.0
C393 C 0.28592 0.98894 0.80947 0.0
C394 C 0.30735 0.97996 0.81988 0.0
C395 C 0.43705 1.00788 0.90904 0.0
C396 C 0.41831 1.0025 0.93056 0.0
C397 C 0.42733 0.99877 0.88361 0.0
C398 C 0.39872 0.98409 0.87924 0.0
C399 C 0.37996 0.97881 0.9006 0.0
C400 C 0.38966 0.98779 0.92601 0.0
C401 C 0.38825 0.97394 0.85248 0.0
C402 C 0.36601 0.9816 0.8416 0.0
C403 C 0.4 0.95684 0.83776 0.0
C404 C 0.42282 0.9473 0.84858 0.0
C405 C 0.4189 0.93386 0.87237 0.0
C406 C 0.4406 0.92511 0.88255 0.0
C407 C 0.46624 0.9295 0.86899 0.0
C408 C 0.47019 0.94258 0.84518 0.0
C409 C 0.44857 0.9514 0.83494 0.0
H410 H 0.48301 0.92271 0.87689 0.0
H411 H 0.27261 1.00706 0.77666 0.0
H412 H 0.64572 0.48962 0.82672 0.0
H413 H 0.63774 0.5097 0.78585 0.0
H414 H 0.6107 0.4329 0.74697 0.0
H415 H 0.61912 0.41287 0.78795 0.0
H416 H 0.63844 0.47036 0.71201 0.0
H417 H 0.5625 0.45988 0.77364 0.0
H418 H 0.5411 0.46476 0.81671 0.0
H419 H 0.57158 0.54909 0.81168 0.0
H420 H 0.59361 0.54471 0.76876 0.0
H421 H 0.56023 0.50823 0.60897 0.0
H422 H 0.57619 0.48685 0.64526 0.0
H423 H 0.59296 0.55859 0.69284 0.0
H424 H 0.57561 0.57943 0.65718 0.0
H425 H 0.57031 0.5217 0.72279 0.0
H426 H 0.6465 0.53167 0.65998 0.0
H427 H 0.66673 0.52559 0.6166 0.0
H428 H 0.63504 0.44149 0.62333 0.0
H429 H 0.61414 0.44705 0.66646 0.0
C430 C 0.63925 0.47715 0.80915 0.0
C431 C 0.63377 0.44969 0.81049 0.0
C432 C 0.63423 0.4886 0.7858 0.0
C433 C 0.62304 0.47289 0.76316 0.0
C434 C 0.61931 0.44561 0.76396 0.0
C435 C 0.62441 0.43414 0.78739 0.0
C436 C 0.61304 0.4846 0.73973 0.0
C437 C 0.62337 0.48141 0.71436 0.0
C438 C 0.59346 0.49926 0.74245 0.0
C439 C 0.57994 0.50196 0.76811 0.0
C440 C 0.56481 0.47946 0.7818 0.0
C441 C 0.55255 0.48214 0.80618 0.0
C442 C 0.55503 0.50722 0.81695 0.0
C443 C 0.56971 0.52967 0.80333 0.0
C444 C 0.58209 0.52711 0.77897 0.0
C445 C 0.56747 0.51952 0.62711 0.0
C446 C 0.56658 0.54568 0.62997 0.0
C447 C 0.57685 0.50727 0.64796 0.0
C448 C 0.58642 0.52102 0.67209 0.0
C449 C 0.58576 0.54725 0.67472 0.0
C450 C 0.57588 0.5593 0.65413 0.0
C451 C 0.59623 0.50817 0.69491 0.0
C452 C 0.58562 0.51092 0.72029 0.0
C453 C 0.6155 0.49309 0.69209 0.0
C454 C 0.62852 0.48978 0.66635 0.0
C455 C 0.64371 0.51188 0.65213 0.0
C456 C 0.65527 0.50852 0.62756 0.0
C457 C 0.65207 0.48316 0.61715 0.0
C458 C 0.63742 0.46112 0.63134 0.0
C459 C 0.62571 0.46436 0.65585 0.0
H460 H 0.66098 0.48059 0.5981 0.0
H461 H 0.54552 0.50926 0.83583 0.0
H462 H 0.93588 0.74147 0.27677 0.0
H463 H 0.95741 0.71763 0.24519 0.0
H464 H 0.89671 0.64413 0.26688 0.0
H465 H 0.87561 0.66811 0.29912 0.0
H466 H 0.94643 0.63613 0.25602 0.0
H467 H 0.88735 0.67803 0.21174 0.0
H468 H 0.87018 0.71502 0.1996 0.0
H469 H 0.95192 0.75501 0.16721 0.0
H470 H 0.96973 0.71843 0.17955 0.0
H471 H 0.95594 0.56288 0.13817 0.0
H472 H 0.93916 0.58636 0.17374 0.0
H473 H 1.00362 0.65852 0.15457 0.0
H474 H 0.0206 0.63496 0.11887 0.0
H475 H 0.95268 0.66716 0.1644 0.0
H476 H 0.01107 0.62393 0.20816 0.0
H477 H 0.02717 0.58622 0.21997 0.0
H478 H 0.94514 0.54767 0.25261 0.0
H479 H 0.92841 0.58501 0.24065 0.0
C480 C 0.92771 0.72013 0.27538 0.0
C481 C 0.90427 0.70665 0.29071 0.0
C482 C 0.93978 0.7065 0.25701 0.0
C483 C 0.92835 0.679 0.25296 0.0
C484 C 0.90595 0.6653 0.26939 0.0
C485 C 0.89399 0.67899 0.28801 0.0
C486 C 0.93876 0.66495 0.23073 0.0
C487 C 0.94744 0.64278 0.23596 0.0
C488 C 0.94066 0.67366 0.20441 0.0
C489 C 0.92996 0.69561 0.19681 0.0
C490 C 0.90173 0.6948 0.20219 0.0
C491 C 0.89187 0.71568 0.19526 0.0
C492 C 0.90997 0.73738 0.18269 0.0
C493 C 0.93794 0.73821 0.17698 0.0
C494 C 0.94793 0.7174 0.18393 0.0
C495 C 0.96655 0.58377 0.14144 0.0
C496 C 0.98971 0.59698 0.12563 0.0
C497 C 0.95699 0.5972 0.16195 0.0
C498 C 0.97028 0.62426 0.16729 0.0
C499 C 0.99298 0.63767 0.15106 0.0
C500 C 1.0027 0.62417 0.13059 0.0
C501 C 0.96044 0.63843 0.18971 0.0
C502 C 0.95176 0.66058 0.18448 0.0
C503 C 0.95837 0.62958 0.21596 0.0
C504 C 0.9684 0.60716 0.22328 0.0
C505 C 0.99639 0.60732 0.21767 0.0
C506 C 1.00564 0.58603 0.22443 0.0
C507 C 0.98716 0.56453 0.23698 0.0
C508 C 0.95942 0.56432 0.24286 0.0
C509 C 0.95004 0.58556 0.23612 0.0
H510 H 0.99437 0.54807 0.24219 0.0
H511 H 0.90229 0.75353 0.17733 0.0
H512 H 0.40399 0.28295 0.2137 0.0
H513 H 0.43194 0.25473 0.19789 0.0
H514 H 0.355 0.18925 0.18851 0.0
H515 H 0.32703 0.21731 0.20465 0.0
H516 H 0.39511 0.1732 0.20997 0.0
H517 H 0.38928 0.22455 0.13544 0.0
H518 H 0.3943 0.2652 0.11137 0.0
H519 H 0.48431 0.2908 0.12649 0.0
H520 H 0.47976 0.25044 0.15098 0.0
H521 H 0.44415 0.0915 0.12005 0.0
H522 H 0.42015 0.1196 0.14301 0.0
H523 H 0.50086 0.17947 0.15618 0.0
H524 H 0.52511 0.1515 0.13311 0.0
H525 H 0.46112 0.19914 0.13472 0.0
H526 H 0.46622 0.14508 0.20706 0.0
H527 H 0.45994 0.10329 0.22946 0.0
H528 H 0.36968 0.08148 0.2165 0.0
H529 H 0.37546 0.12299 0.19369 0.0
C530 C 0.39305 0.26258 0.2081 0.0
C531 C 0.36332 0.25237 0.21031 0.0
C532 C 0.40903 0.24646 0.19908 0.0
C533 C 0.39555 0.21992 0.19171 0.0
C534 C 0.36589 0.20963 0.19414 0.0
C535 C 0.34993 0.22568 0.20336 0.0
C536 C 0.4123 0.20286 0.18135 0.0
C537 C 0.40932 0.17876 0.19334 0.0
C538 C 0.43133 0.21033 0.16 0.0
C539 C 0.43412 0.23461 0.14529 0.0
C540 C 0.41011 0.23895 0.13382 0.0
C541 C 0.41288 0.26192 0.12007 0.0
C542 C 0.4396 0.28061 0.11747 0.0
C543 C 0.46362 0.27633 0.12856 0.0
C544 C 0.46096 0.25341 0.14236 0.0
C545 C 0.45688 0.11048 0.12815 0.0
C546 C 0.48655 0.11928 0.12469 0.0
C547 C 0.44312 0.12649 0.14135 0.0
C548 C 0.45873 0.15159 0.15138 0.0
C549 C 0.48843 0.16016 0.14858 0.0
C550 C 0.50225 0.14409 0.13549 0.0
C551 C 0.44382 0.16948 0.16327 0.0
C552 C 0.44709 0.19371 0.1515 0.0
C553 C 0.42487 0.16199 0.18463 0.0
C554 C 0.42131 0.13707 0.19847 0.0
C555 C 0.44506 0.13129 0.20881 0.0
C556 C 0.44158 0.10766 0.22161 0.0
C557 C 0.41444 0.08972 0.22435 0.0
C558 C 0.3907 0.09539 0.21435 0.0
C559 C 0.39406 0.11898 0.20151 0.0
H560 H 0.41179 0.07143 0.23426 0.0
H561 H 0.4417 0.29838 0.10681 0.0
H562 H 0.18973 0.90261 0.604 0.0
H563 H 0.17446 0.94 0.59082 0.0
H564 H 0.19932 0.97804 0.66708 0.0
H565 H 0.21499 0.94063 0.68029 0.0
H566 H 0.14265 0.97297 0.65097 0.0
H567 H 0.23696 1.0056 0.61843 0.0
H568 H 0.27979 1.00358 0.59444 0.0
H569 H 0.23246 0.98754 0.52178 0.0
H570 H 0.1892 0.98906 0.54538 0.0
H571 H 0.092 0.0757 0.60634 0.0
H572 H 0.12281 0.05276 0.62573 0.0
H573 H 0.12542 1.01281 0.55081 0.0
H574 H 0.09574 0.03664 0.53119 0.0
H575 H 0.17539 0.02584 0.57175 0.0
H576 H 0.08069 0.98212 0.6041 0.0
H577 H 0.03561 0.97792 0.62707 0.0
H578 H 0.08155 1.01081 0.69817 0.0
H579 H 0.127 1.01497 0.67551 0.0
C580 C 0.19208 0.91904 0.61787 0.0
C581 C 0.20331 0.91878 0.64318 0.0
C582 C 0.18362 0.94043 0.61027 0.0
C583 C 0.18604 0.96181 0.62793 0.0
C584 C 0.19753 0.96176 0.65316 0.0
C585 C 0.20643 0.94048 0.66065 0.0
C586 C 0.1742 0.98294 0.62052 0.0
C587 C 0.15022 0.98509 0.63407 0.0
C588 C 0.18376 0.99813 0.59808 0.0
C589 C 0.20976 0.9973 0.58374 0.0
C590 C 0.23561 1.00144 0.59737 0.0
C591 C 0.25998 1.00042 0.58383 0.0
C592 C 0.25884 0.9954 0.55661 0.0
C593 C 0.23331 0.99143 0.54286 0.0
C594 C 0.20886 0.99241 0.55631 0.0
C595 C 0.09936 0.06214 0.59405 0.0
C596 C 0.09157 0.05785 0.56732 0.0
C597 C 0.11682 0.04894 0.60514 0.0
C598 C 0.12615 0.03076 0.58984 0.0
C599 C 0.1186 0.0268 0.56302 0.0
C600 C 0.10157 0.04032 0.55183 0.0
C601 C 0.14313 1.01525 0.60169 0.0
C602 C 0.16814 1.0142 0.58901 0.0
C603 C 0.13428 1.00068 0.62471 0.0
C604 C 0.10716 0.99917 0.63805 0.0
C605 C 0.08115 0.98871 0.62455 0.0
C606 C 0.05554 0.98627 0.63756 0.0
C607 C 0.05568 0.99427 0.66408 0.0
C608 C 0.08147 1.0047 0.67762 0.0
C609 C 0.10716 1.00703 0.66474 0.0
H610 H 0.03586 0.99223 0.67423 0.0
H611 H 0.27773 0.99461 0.54616 0.0
H612 H 0.75338 0.39391 0.92706 0.0
H613 H 0.7979 0.4201 0.94805 0.0
H614 H 0.76936 0.4889 0.94822 0.0
H615 H 0.72432 0.46264 0.92762 0.0
H616 H 0.82638 0.50119 0.93518 0.0
H617 H 0.7664 0.45559 1.004 0.0
H618 H 0.73484 0.41683 0.0258 0.0
H619 H 0.80231 0.38162 0.02721 0.0
H620 H 0.83416 0.42001 1.00504 0.0
H621 H 0.93579 0.57546 0.02494 0.0
H622 H 0.89008 0.5534 1.00314 0.0
H623 H 0.90571 0.47841 1.0092 0.0
H624 H 0.95073 0.50016 0.03172 0.0
H625 H 0.85338 0.4711 0.01984 0.0
H626 H 0.91275 0.51508 0.94921 0.0
H627 H 0.94455 0.55323 0.9267 0.0
H628 H 0.87906 0.59094 0.92808 0.0
H629 H 0.84697 0.5531 0.95087 0.0
C630 C 0.75637 0.41458 0.9316 0.0
C631 C 0.73479 0.4259 0.92577 0.0
C632 C 0.78202 0.42962 0.94361 0.0
C633 C 0.78704 0.45651 0.95021 0.0
C634 C 0.76613 0.46822 0.94345 0.0
C635 C 0.74032 0.45312 0.93149 0.0
C636 C 0.81367 0.47198 0.96485 0.0
C637 C 0.83208 0.4948 0.95388 0.0
C638 C 0.8216 0.46358 0.98909 0.0
C639 C 0.80259 0.44058 1.00264 0.0
C640 C 0.77444 0.4395 1.00879 0.0
C641 C 0.75651 0.41761 0.02123 0.0
C642 C 0.76654 0.39675 0.02783 0.0
C643 C 0.79456 0.39778 0.02206 0.0
C644 C 0.81257 0.41961 1.00957 0.0
C645 C 0.92949 0.55426 0.02167 0.0
C646 C 0.94716 0.53969 0.03018 0.0
C647 C 0.90331 0.54161 1.00897 0.0
C648 C 0.89427 0.51408 1.00397 0.0
C649 C 0.91187 0.49958 1.01269 0.0
C650 C 0.93781 0.51214 0.0256 0.0
C651 C 0.86655 0.50017 0.99 0.0
C652 C 0.84779 0.4776 1.00116 0.0
C653 C 0.85843 0.50875 0.96587 0.0
C654 C 0.87757 0.53139 0.95197 0.0
C655 C 0.9052 0.53158 0.94485 0.0
C656 C 0.92326 0.55313 0.93202 0.0
C657 C 0.91386 0.57453 0.92603 0.0
C658 C 0.88633 0.57437 0.93277 0.0
C659 C 0.86818 0.55286 0.94562 0.0
H660 H 0.92788 0.59121 0.91612 0.0
H661 H 0.75262 0.37981 0.03746 0.0
H662 H 0.80741 0.67986 0.40845 0.0
H663 H 0.76371 0.65523 0.43093 0.0
H664 H 0.76135 0.72651 0.47192 0.0
H665 H 0.80345 0.75163 0.44846 0.0
H666 H 0.75662 0.67387 0.50315 0.0
H667 H 0.71817 0.71344 0.43154 0.0
H668 H 0.7123 0.72067 0.38443 0.0
H669 H 0.67839 0.63705 0.36965 0.0
H670 H 0.6845 0.62933 0.41665 0.0
H671 H 0.62878 0.64657 0.57287 0.0
H672 H 0.671 0.66505 0.5465 0.0
H673 H 0.63537 0.60784 0.48386 0.0
H674 H 0.59173 0.59089 0.50955 0.0
H675 H 0.66094 0.64846 0.4614 0.0
H676 H 0.69351 0.60616 0.52983 0.0
H677 H 0.70086 0.59422 0.5752 0.0
H678 H 0.74799 0.67483 0.59437 0.0
H679 H 0.7406 0.68734 0.54921 0.0
C680 C 0.79749 0.6905 0.42193 0.0
C681 C 0.80965 0.71794 0.42665 0.0
C682 C 0.77253 0.67626 0.43493 0.0
C683 C 0.75935 0.689 0.45326 0.0
C684 C 0.77129 0.7162 0.45807 0.0
C685 C 0.79576 0.73052 0.44472 0.0
C686 C 0.73319 0.67419 0.46767 0.0
C687 C 0.73563 0.66842 0.49415 0.0
C688 C 0.70597 0.6661 0.45563 0.0
C689 C 0.70214 0.67081 0.4275 0.0
C690 C 0.70976 0.6966 0.41819 0.0
C691 C 0.70632 0.70078 0.39152 0.0
C692 C 0.69507 0.67933 0.37404 0.0
C693 C 0.68716 0.65365 0.3832 0.0
C694 C 0.69059 0.64936 0.40985 0.0
C695 C 0.62992 0.63781 0.55351 0.0
C696 C 0.60695 0.61692 0.54352 0.0
C697 C 0.65437 0.64827 0.53843 0.0
C698 C 0.65725 0.63744 0.51329 0.0
C699 C 0.63413 0.6166 0.50319 0.0
C700 C 0.60916 0.60669 0.51801 0.0
C701 C 0.68397 0.64842 0.49749 0.0
C702 C 0.68178 0.65351 0.47063 0.0
C703 C 0.71162 0.65516 0.50901 0.0
C704 C 0.71631 0.64771 0.53616 0.0
C705 C 0.70531 0.62137 0.54376 0.0
C706 C 0.7095 0.6145 0.56944 0.0
C707 C 0.72484 0.63376 0.58767 0.0
C708 C 0.7361 0.65993 0.58023 0.0
C709 C 0.73195 0.66692 0.55458 0.0
H710 H 0.72804 0.62841 0.60754 0.0
H711 H 0.69242 0.68261 0.35341 0.0
H712 H 0.32547 0.40971 0.15722 0.0
H713 H 0.2882 0.42927 0.14694 0.0
H714 H 0.23573 0.38514 0.20818 0.0
H715 H 0.27334 0.3661 0.21933 0.0
H716 H 0.20658 0.38364 0.16002 0.0
H717 H 0.26696 0.44728 0.22023 0.0
H718 H 0.31245 0.47717 0.23741 0.0
H719 H 0.32383 0.52103 0.16653 0.0
H720 H 0.2786 0.49112 0.14873 0.0
H721 H 0.10374 0.45154 0.15856 0.0
H722 H 0.14045 0.43304 0.17328 0.0
H723 H 0.20011 0.4818 0.11942 0.0
H724 H 0.16375 0.5011 0.10523 0.0
H725 H 0.22512 0.48065 0.16581 0.0
H726 H 0.16641 0.41667 0.10463 0.0
H727 H 0.1215 0.38666 0.08641 0.0
H728 H 0.10755 0.34335 0.1577 0.0
H729 H 0.15222 0.37335 0.17651 0.0
C730 C 0.3062 0.40436 0.16878 0.0
C731 C 0.30259 0.38644 0.18927 0.0
C732 C 0.28484 0.41548 0.16276 0.0
C733 C 0.25934 0.40882 0.17696 0.0
C734 C 0.25529 0.39051 0.19699 0.0
C735 C 0.27677 0.37955 0.20323 0.0
C736 C 0.23698 0.42107 0.1708 0.0
C737 C 0.21043 0.40481 0.16167 0.0
C738 C 0.24233 0.44873 0.17238 0.0
C739 C 0.26952 0.46679 0.18304 0.0
C740 C 0.27929 0.46314 0.2082 0.0
C741 C 0.305 0.48012 0.21807 0.0
C742 C 0.32106 0.50094 0.20305 0.0
C743 C 0.31139 0.50487 0.17814 0.0
C744 C 0.28571 0.48792 0.16815 0.0
C745 C 0.12479 0.45867 0.15012 0.0
C746 C 0.13077 0.47781 0.13066 0.0
C747 C 0.14567 0.44784 0.15836 0.0
C748 C 0.1729 0.45572 0.14716 0.0
C749 C 0.17919 0.47531 0.12824 0.0
C750 C 0.15832 0.48618 0.12001 0.0
C751 C 0.1947 0.44325 0.15485 0.0
C752 C 0.22117 0.45947 0.16425 0.0
C753 C 0.18934 0.41554 0.15336 0.0
C754 C 0.16251 0.39743 0.14208 0.0
C755 C 0.15365 0.40088 0.11651 0.0
C756 C 0.12826 0.38385 0.10606 0.0
C757 C 0.11164 0.36315 0.12092 0.0
C758 C 0.12043 0.35941 0.14623 0.0
C759 C 0.14579 0.37641 0.15679 0.0
H760 H 0.092 0.34998 0.11279 0.0
H761 H 0.34096 0.51407 0.21073 0.0
H762 H 0.61043 0.34336 0.93074 0.0
H763 H 0.5895 0.30111 0.95139 0.0
H764 H 0.67174 0.28868 0.95347 0.0
H765 H 0.69264 0.33039 0.93157 0.0
H766 H 0.63374 0.24348 0.94152 0.0
H767 H 0.63977 0.30917 1.00963 0.0
H768 H 0.63227 0.34898 0.03044 0.0
H769 H 0.54177 0.31359 0.02392 0.0
H770 H 0.54873 0.27369 1.00274 0.0
H771 H 0.58874 0.13668 0.03165 0.0
H772 H 0.61357 0.17862 1.01097 0.0
H773 H 0.53424 0.19647 1.00566 0.0
H774 H 0.50974 0.15515 0.02671 0.0
H775 H 0.57336 0.23928 0.02053 0.0
H776 H 0.56783 0.17399 0.95098 0.0
H777 H 0.57582 0.13418 0.93065 0.0
H778 H 0.66607 0.16885 0.94073 0.0
H779 H 0.65858 0.20875 0.96143 0.0
C780 C 0.62414 0.33158 0.93513 0.0
C781 C 0.65346 0.34073 0.92933 0.0
C782 C 0.6121 0.30738 0.9474 0.0
C783 C 0.62896 0.29158 0.95465 0.0
C784 C 0.65809 0.30034 0.94837 0.0
C785 C 0.67014 0.32449 0.93598 0.0
C786 C 0.61628 0.26613 0.96883 0.0
C787 C 0.62087 0.24273 0.95902 0.0
C788 C 0.59905 0.26462 0.99155 0.0
C789 C 0.59479 0.28854 1.00437 0.0
C790 C 0.61827 0.30995 1.01247 0.0
C791 C 0.61412 0.33252 0.02435 0.0
C792 C 0.58657 0.33384 0.02844 0.0
C793 C 0.5631 0.31255 0.02071 0.0
C794 C 0.56714 0.28995 1.00879 0.0
C795 C 0.57665 0.14958 0.02605 0.0
C796 C 0.54717 0.14239 0.03075 0.0
C797 C 0.59084 0.17358 1.01405 0.0
C798 C 0.57588 0.19091 1.00626 0.0
C799 C 0.5465 0.18374 1.01133 0.0
C800 C 0.53241 0.15992 0.02335 0.0
C801 C 0.59045 0.21654 0.99302 0.0
C802 C 0.58627 0.24002 1.00306 0.0
C803 C 0.6081 0.2181 0.97059 0.0
C804 C 0.61263 0.19423 0.95799 0.0
C805 C 0.58937 0.17304 0.94902 0.0
C806 C 0.5938 0.15048 0.93741 0.0
C807 C 0.62143 0.14895 0.93447 0.0
C808 C 0.64468 0.17004 0.94306 0.0
C809 C 0.64036 0.19264 0.95471 0.0
H810 H 0.62482 0.13146 0.92549 0.0
H811 H 0.58339 0.35133 0.03765 0.0
H812 H 0.89733 0.78398 0.46334 0.0
H813 H 0.91974 0.827 0.48499 0.0
H814 H 0.91913 0.865 0.41137 0.0
H815 H 0.89668 0.82199 0.38957 0.0
H816 H 0.96771 0.8885 0.43702 0.0
H817 H 0.86895 0.86315 0.46002 0.0
H818 H 0.82402 0.83392 0.47737 0.0
H819 H 0.86324 0.83663 0.55321 0.0
H820 H 0.90856 0.86558 0.53619 0.0
H821 H 0.98586 0.0186 0.48843 0.0
H822 H 0.96669 0.97485 0.46729 0.0
H823 H 0.97164 0.93884 0.54123 0.0
H824 H 0.99079 0.98265 0.56262 0.0
H825 H 0.92159 0.91411 0.51604 0.0
H826 H 0.02018 0.94048 0.493 0.0
H827 H 0.06485 0.96994 0.47543 0.0
H828 H 0.02555 0.96567 0.3994 0.0
H829 H 0.98048 0.93649 0.41664 0.0
C830 C 0.90198 0.80146 0.45168 0.0
C831 C 0.89493 0.79934 0.42464 0.0
C832 C 0.9148 0.82615 0.46415 0.0
C833 C 0.92074 0.84952 0.45003 0.0
C834 C 0.91478 0.8474 0.42282 0.0
C835 C 0.90201 0.82268 0.41031 0.0
C836 C 0.93247 0.87609 0.46371 0.0
C837 C 0.95738 0.89416 0.4541 0.0
C838 C 0.9195 0.88355 0.48641 0.0
C839 C 0.89223 0.86631 0.49676 0.0
C840 C 0.86805 0.85736 0.48035 0.0
C841 C 0.84251 0.84086 0.49013 0.0
C842 C 0.8408 0.83337 0.51636 0.0
C843 C 0.86461 0.84242 0.53289 0.0
C844 C 0.89023 0.85888 0.52319 0.0
C845 C 0.98285 1.00143 0.5003 0.0
C846 C 0.98998 1.00432 0.52731 0.0
C847 C 0.97198 0.97632 0.48809 0.0
C848 C 0.96793 0.95335 0.5025 0.0
C849 C 0.97456 0.95615 0.52959 0.0
C850 C 0.9856 0.98129 0.5418 0.0
C851 C 0.95677 0.92651 0.48931 0.0
C852 C 0.93195 0.90841 0.49901 0.0
C853 C 0.96977 0.91906 0.46665 0.0
C854 C 0.99687 0.9365 0.45618 0.0
C855 C 0.02099 0.94599 0.47259 0.0
C856 C 0.0464 0.96261 0.46268 0.0
C857 C 0.04802 0.96972 0.43633 0.0
C858 C 0.02425 0.96017 0.41982 0.0
C859 C 0.99878 0.94357 0.42964 0.0
H860 H 0.06771 0.98259 0.42869 0.0
H861 H 0.821 0.82059 0.5239 0.0
H862 H 0.29764 0.81556 0.65354 0.0
H863 H 0.32309 0.78729 0.63351 0.0
H864 H 0.4017 0.85126 0.63909 0.0
H865 H 0.37607 0.88023 0.65816 0.0
H866 H 0.39786 0.82177 0.59271 0.0
H867 H 0.38644 0.8066 0.68536 0.0
H868 H 0.3599 0.79685 0.72696 0.0
H869 H 0.30911 0.7221 0.69401 0.0
H870 H 0.3351 0.73158 0.65204 0.0
H871 H 0.49355 0.74414 0.59866 0.0
H872 H 0.46612 0.77537 0.60209 0.0
H873 H 0.38803 0.71061 0.59801 0.0
H874 H 0.41542 0.67933 0.59481 0.0
H875 H 0.39107 0.74086 0.64153 0.0
H876 H 0.40612 0.7554 0.54914 0.0
H877 H 0.43439 0.76582 0.50854 0.0
H878 H 0.48081 0.84181 0.54193 0.0
H879 H 0.45295 0.83183 0.58282 0.0
C880 C 0.32023 0.82387 0.65 0.0
C881 C 0.33486 0.85015 0.65755 0.0
C882 C 0.33478 0.8076 0.63871 0.0
C883 C 0.3643 0.81712 0.63514 0.0
C884 C 0.3789 0.84357 0.64175 0.0
C885 C 0.36429 0.85997 0.65292 0.0
C886 C 0.38007 0.79884 0.62632 0.0
C887 C 0.39663 0.80417 0.60343 0.0
C888 C 0.37808 0.77575 0.6402 0.0
C889 C 0.36252 0.76992 0.66548 0.0
C890 C 0.36947 0.78817 0.68692 0.0
C891 C 0.35455 0.78268 0.71057 0.0
C892 C 0.33278 0.7589 0.7131 0.0
C893 C 0.32595 0.74053 0.692 0.0
C894 C 0.34077 0.74594 0.66828 0.0
C895 C 0.47054 0.73667 0.59775 0.0
C896 C 0.45652 0.70939 0.59681 0.0
C897 C 0.45489 0.7545 0.59964 0.0
C898 C 0.42505 0.74527 0.60036 0.0
C899 C 0.41106 0.71809 0.5976 0.0
C900 C 0.42667 0.70028 0.59585 0.0
C901 C 0.40864 0.76346 0.60763 0.0
C902 C 0.39209 0.75825 0.6305 0.0
C903 C 0.41093 0.78667 0.59381 0.0
C904 C 0.42757 0.79278 0.56915 0.0
C905 C 0.42248 0.77427 0.54792 0.0
C906 C 0.43841 0.7801 0.52484 0.0
C907 C 0.45946 0.80439 0.52271 0.0
C908 C 0.46452 0.82298 0.54362 0.0
C909 C 0.44862 0.81727 0.56673 0.0
H910 H 0.47178 0.80885 0.50483 0.0
H911 H 0.32126 0.75468 0.73143 0.0
H912 H 0.78402 0.90515 0.87702 0.0
H913 H 0.80863 0.93082 0.83996 0.0
H914 H 0.81278 0.85912 0.80037 0.0
H915 H 0.78929 0.83373 0.83781 0.0
H916 H 0.86175 0.89323 0.79867 0.0
H917 H 0.76775 0.89575 0.77989 0.0
H918 H 0.72185 0.90358 0.78908 0.0
H919 H 0.76501 0.98577 0.80494 0.0
H920 H 0.81123 0.97837 0.79619 0.0
H921 H 0.91044 0.94911 0.67595 0.0
H922 H 0.87722 0.92427 0.70856 0.0
H923 H 0.89126 0.99491 0.75726 0.0
H924 H 0.92539 0.01977 0.72539 0.0
H925 H 0.83216 0.96169 0.753 0.0
H926 H 0.92635 0.95712 0.77297 0.0
H927 H 0.97137 0.94826 0.76209 0.0
H928 H 0.92544 0.86758 0.74185 0.0
H929 H 0.88007 0.87609 0.75222 0.0
C930 C 0.78991 0.89496 0.86019 0.0
C931 C 0.78495 0.86757 0.86021 0.0
C932 C 0.80385 0.90957 0.83899 0.0
C933 C 0.81242 0.89691 0.8172 0.0
C934 C 0.80654 0.86938 0.81695 0.0
C935 C 0.79309 0.85488 0.83829 0.0
C936 C 0.82919 0.91234 0.79548 0.0
C937 C 0.85491 0.90784 0.78844 0.0
C938 C 0.82074 0.9319 0.78242 0.0
C939 C 0.79298 0.93645 0.78763 0.0
C940 C 0.76748 0.91546 0.78553 0.0
C941 C 0.7414 0.91983 0.79063 0.0
C942 C 0.74052 0.94515 0.79766 0.0
C943 C 0.76572 0.96616 0.79953 0.0
C944 C 0.79187 0.9619 0.79448 0.0
C945 C 0.90659 0.95941 0.69361 0.0
C946 C 0.9209 0.98644 0.6981 0.0
C947 C 0.88739 0.94521 0.71209 0.0
C948 C 0.88194 0.95778 0.73531 0.0
C949 C 0.89509 0.98493 0.73936 0.0
C950 C 0.91454 0.99911 0.72103 0.0
C951 C 0.86426 0.94221 0.75627 0.0
C952 C 0.83863 0.94684 0.76321 0.0
C953 C 0.87253 0.92252 0.76907 0.0
C954 C 0.89981 0.91732 0.76309 0.0
C955 C 0.92583 0.93755 0.76598 0.0
C956 C 0.95142 0.93258 0.75995 0.0
C957 C 0.95126 0.90739 0.75121 0.0
C958 C 0.92552 0.8871 0.74858 0.0
C959 C 0.89987 0.89198 0.75454 0.0
H960 H 0.97109 0.90358 0.74655 0.0
H961 H 0.72031 0.94849 0.8016 0.0
H962 H 0.7592 0.2176 0.40232 0.0
H963 H 0.73593 0.21093 0.35926 0.0
H964 H 0.65438 0.17779 0.39608 0.0
H965 H 0.67774 0.1833 0.43923 0.0
H966 H 0.65952 0.14794 0.35537 0.0
H967 H 0.67322 0.23966 0.3695 0.0
H968 H 0.69934 0.2861 0.38084 0.0
H969 H 0.75547 0.28825 0.31555 0.0
H970 H 0.72994 0.24168 0.30402 0.0
H971 H 0.58785 0.14406 0.2324 0.0
H972 H 0.60352 0.15635 0.27798 0.0
H973 H 0.69086 0.18233 0.25255 0.0
H974 H 0.67558 0.16944 0.20713 0.0
H975 H 0.67764 0.2174 0.2889 0.0
H976 H 0.66581 0.12392 0.27828 0.0
H977 H 0.63894 0.07756 0.2673 0.0
H978 H 0.57758 0.0796 0.32687 0.0
H979 H 0.6039 0.12612 0.33795 0.0
C980 C 0.73632 0.20883 0.40128 0.0
C981 C 0.72035 0.2009 0.42422 0.0
C982 C 0.72298 0.20533 0.37665 0.0
C983 C 0.69334 0.19417 0.37444 0.0
C984 C 0.67726 0.18657 0.39733 0.0
C985 C 0.69062 0.18993 0.422 0.0
C986 C 0.67949 0.18913 0.34808 0.0
C987 C 0.663 0.16329 0.34104 0.0
C988 C 0.68436 0.20904 0.32921 0.0
C989 C 0.69977 0.23709 0.33602 0.0
C990 C 0.69126 0.24996 0.35767 0.0
C991 C 0.70594 0.27633 0.36411 0.0
C992 C 0.72908 0.2901 0.34895 0.0
C993 C 0.73755 0.27755 0.32728 0.0
C994 C 0.72295 0.25118 0.32076 0.0
C995 C 0.61041 0.15225 0.23649 0.0
C996 C 0.63045 0.15565 0.21605 0.0
C997 C 0.61929 0.15939 0.26253 0.0
C998 C 0.64834 0.17012 0.26859 0.0
C999 C 0.66833 0.1742 0.24822 0.0
C1000 C 0.65951 0.16691 0.22224 0.0
C1001 C 0.65816 0.17624 0.29624 0.0
C1002 C 0.67388 0.20224 0.30345 0.0
C1003 C 0.65241 0.15655 0.31533 0.0
C1004 C 0.63663 0.12858 0.30872 0.0
C1005 C 0.64645 0.11455 0.28887 0.0
C1006 C 0.63134 0.08824 0.28266 0.0
C1007 C 0.60651 0.07567 0.29632 0.0
C1008 C 0.59678 0.08938 0.31627 0.0
C1009 C 0.61179 0.11571 0.32253 0.0
H1010 H 0.59485 0.05529 0.29149 0.0
H1011 H 0.74042 0.31051 0.35397 0.0
H1012 H 0.47953 0.72574 0.32352 0.0
H1013 H 0.48714 0.70764 0.36544 0.0
H1014 H 0.39661 0.67889 0.37734 0.0
H1015 H 0.38869 0.69639 0.33449 0.0
H1016 H 0.44506 0.7074 0.42626 0.0
H1017 H 0.40902 0.63371 0.36222 0.0
H1018 H 0.40839 0.61335 0.31781 0.0
H1019 H 0.49779 0.62311 0.32417 0.0
H1020 H 0.499 0.64394 0.36848 0.0
H1021 H 0.46449 0.62451 0.5295 0.0
H1022 H 0.44593 0.64484 0.49396 0.0
H1023 H 0.50966 0.63167 0.4415 0.0
H1024 H 0.52634 0.60936 0.4763 0.0
H1025 H 0.4684 0.62364 0.41367 0.0
H1026 H 0.5073 0.69749 0.47516 0.0
H1027 H 0.51224 0.72139 0.51822 0.0
H1028 H 0.4234 0.71497 0.51677 0.0
H1029 H 0.41793 0.69105 0.47369 0.0
C1030 C 0.4611 0.71595 0.33515 0.0
C1031 C 0.43341 0.71237 0.32527 0.0
C1032 C 0.46557 0.70563 0.35927 0.0
C1033 C 0.44255 0.6917 0.37467 0.0
C1034 C 0.41481 0.68961 0.36592 0.0
C1035 C 0.41027 0.69977 0.34144 0.0
C1036 C 0.44797 0.6773 0.39817 0.0
C1037 C 0.44965 0.68882 0.42366 0.0
C1038 C 0.45495 0.65352 0.39489 0.0
C1039 C 0.45414 0.6406 0.36851 0.0
C1040 C 0.42858 0.63172 0.35404 0.0
C1041 C 0.42811 0.62006 0.32891 0.0
C1042 C 0.45305 0.617 0.31814 0.0
C1043 C 0.4785 0.62552 0.33252 0.0
C1044 C 0.47908 0.63723 0.35765 0.0
C1045 C 0.47446 0.62593 0.51033 0.0
C1046 C 0.49689 0.61516 0.50583 0.0
C1047 C 0.46403 0.63793 0.48992 0.0
C1048 C 0.47654 0.64062 0.46465 0.0
C1049 C 0.49918 0.62999 0.46043 0.0
C1050 C 0.5089 0.61721 0.48051 0.0
C1051 C 0.466 0.65372 0.44234 0.0
C1052 C 0.46357 0.64205 0.41676 0.0
C1053 C 0.45882 0.67762 0.44563 0.0
C1054 C 0.46217 0.69231 0.47132 0.0
C1055 C 0.48882 0.70114 0.48406 0.0
C1056 C 0.49171 0.71471 0.50845 0.0
C1057 C 0.46814 0.7197 0.52021 0.0
C1058 C 0.44164 0.71114 0.5076 0.0
C1059 C 0.43865 0.69764 0.48317 0.0
H1060 H 0.47042 0.73025 0.53904 0.0
H1061 H 0.45265 0.60798 0.29868 0.0
H1062 H 0.11362 0.42156 0.84403 0.0
H1063 H 0.09418 0.44646 0.87629 0.0
H1064 H 0.17056 0.51252 0.87138 0.0
H1065 H 0.19011 0.4873 0.83908 0.0
H1066 H 0.15775 0.50177 0.92186 0.0
H1067 H 0.1047 0.51433 0.84726 0.0
H1068 H 0.07337 0.50098 0.80825 0.0
H1069 H 1.00661 0.45354 0.85631 0.0
H1070 H 0.03768 0.46633 0.89557 0.0
H1071 H 0.10724 0.59164 0.99987 0.0
H1072 H 0.12468 0.56878 0.96421 0.0
H1073 H 0.05012 0.50118 0.97085 0.0
H1074 H 0.03253 0.52414 1.0067 0.0
H1075 H 0.06175 0.51316 0.91921 0.0
H1076 H 0.11397 0.49953 0.99334 0.0
H1077 H 0.14442 0.51252 0.03294 0.0
H1078 H 0.21203 0.56089 0.98635 0.0
H1079 H 0.18179 0.54852 0.9465 0.0
C1080 C 0.12582 0.44176 0.84912 0.0
C1081 C 0.15312 0.45268 0.83846 0.0
C1082 C 0.11475 0.45599 0.86775 0.0
C1083 C 0.13069 0.48161 0.8764 0.0
C1084 C 0.15768 0.49289 0.86512 0.0
C1085 C 0.16873 0.47862 0.84632 0.0
C1086 C 0.11993 0.49573 0.89833 0.0
C1087 C 0.13695 0.50465 0.92098 0.0
C1088 C 0.09236 0.49884 0.8979 0.0
C1089 C 0.07362 0.49111 0.87432 0.0
C1090 C 0.08342 0.50088 0.84948 0.0
C1091 C 0.06569 0.49345 0.82733 0.0
C1092 C 0.03804 0.47637 0.82979 0.0
C1093 C 0.02804 0.46675 0.85442 0.0
C1094 C 0.04569 0.47411 0.87664 0.0
C1095 C 0.09462 0.57182 0.99389 0.0
C1096 C 0.0685 0.55974 1.00624 0.0
C1097 C 0.10466 0.55871 0.97346 0.0
C1098 C 0.08889 0.53308 0.96472 0.0
C1099 C 0.06276 0.52091 0.97709 0.0
C1100 C 0.05278 0.534 0.99772 0.0
C1101 C 0.09963 0.51928 0.94258 0.0
C1102 C 0.08259 0.51036 0.91998 0.0
C1103 C 0.12711 0.51603 0.9431 0.0
C1104 C 0.1455 0.52329 0.96696 0.0
C1105 C 0.13526 0.51309 0.99155 0.0
C1106 C 0.15249 0.52032 1.01405 0.0
C1107 C 0.18012 0.53757 1.01217 0.0
C1108 C 0.1906 0.54756 0.98777 0.0
C1109 C 0.17343 0.54043 0.96522 0.0
H1110 H 0.19343 0.54316 0.02961 0.0
H1111 H 0.02434 0.47064 0.81261 0.0
H1112 H 0.63626 0.86384 0.97917 0.0
H1113 H 0.621 0.90251 0.98927 0.0
H1114 H 0.67285 0.94386 0.92632 0.0
H1115 H 0.68721 0.90467 0.91498 0.0
H1116 H 0.66669 0.96337 0.99529 0.0
H1117 H 0.62938 0.94674 0.90254 0.0
H1118 H 0.60452 0.91549 0.86708 0.0
H1119 H 0.53365 0.88399 0.91833 0.0
H1120 H 0.55836 0.91482 0.9542 0.0
H1121 H 0.60945 0.06904 0.01806 0.0
H1122 H 0.63311 0.04059 0.99494 0.0
H1123 H 0.55514 0.97573 0.99647 0.0
H1124 H 0.53116 1.00432 0.01833 0.0
H1125 H 0.57973 0.97217 0.9529 0.0
H1126 H 0.6114 0.98631 0.04366 0.0
H1127 H 0.63309 1.013 0.08314 0.0
H1128 H 0.71136 0.0445 0.04136 0.0
H1129 H 0.68999 0.01822 1.00152 0.0
C1130 C 0.64416 0.88095 0.96714 0.0
C1131 C 0.66271 0.88091 0.94599 0.0
C1132 C 0.6356 0.90311 0.97313 0.0
C1133 C 0.64559 0.92582 0.95836 0.0
C1134 C 0.66474 0.92635 0.93777 0.0
C1135 C 0.6731 0.904 0.9315 0.0
C1136 C 0.63541 0.94868 0.96462 0.0
C1137 C 0.64815 0.96586 0.98563 0.0
C1138 C 0.61069 0.95118 0.95257 0.0
C1139 C 0.59583 0.9328 0.93106 0.0
C1140 C 0.60864 0.93294 0.90629 0.0
C1141 C 0.59455 0.91537 0.88612 0.0
C1142 C 0.56756 0.8977 0.89047 0.0
C1143 C 0.55457 0.89763 0.915 0.0
C1144 C 0.5686 0.91515 0.93524 0.0
C1145 C 0.59729 0.04881 1.01309 0.0
C1146 C 0.56851 0.03886 0.0202 0.0
C1147 C 0.61086 0.03252 1.00001 0.0
C1148 C 0.59612 1.00579 0.99446 0.0
C1149 C 0.56705 0.99623 1.00053 0.0
C1150 C 0.55335 1.01261 1.01311 0.0
C1151 C 0.61103 0.98728 0.98372 0.0
C1152 C 0.59889 0.97051 0.96211 0.0
C1153 C 0.63609 0.98491 0.99559 0.0
C1154 C 0.64901 1.00056 0.01955 0.0
C1155 C 0.63318 0.99906 0.04286 0.0
C1156 C 0.64542 1.01409 0.0653 0.0
C1157 C 0.67356 0.0305 0.06473 0.0
C1158 C 0.68955 0.03183 0.04175 0.0
C1159 C 0.67739 0.01687 0.01925 0.0
H1160 H 0.68299 0.04213 0.08212 0.0
H1161 H 0.55667 0.88412 0.87483 0.0
H1162 H 0.78223 0.15282 0.45778 0.0
H1163 H 0.82183 0.13606 0.46822 0.0
H1164 H 0.86317 0.2082 0.51218 0.0
H1165 H 0.82361 0.22509 0.50179 0.0
H1166 H 0.90161 0.18575 0.483 0.0
H1167 H 0.82375 0.1629 0.5453 0.0
H1168 H 0.77321 0.14455 0.55722 0.0
H1169 H 0.77159 0.06905 0.52368 0.0
H1170 H 0.82205 0.08713 0.51113 0.0
H1171 H 0.94898 0.11377 0.59558 0.0
H1172 H 0.91605 0.13402 0.57549 0.0
H1173 H 0.93998 0.11265 0.49812 0.0
H1174 H 0.97274 0.09209 0.51815 0.0
H1175 H 0.86984 0.11028 0.54264 0.0
H1176 H 0.93945 0.16507 0.45808 0.0
H1177 H 0.99034 0.18478 0.44787 0.0
H1178 H 1.00982 0.19898 0.5304 0.0
H1179 H 0.95904 0.17977 0.54107 0.0
C1180 C 0.80015 0.16537 0.46904 0.0
C1181 C 0.79983 0.19011 0.47923 0.0
C1182 C 0.82269 0.15579 0.47499 0.0
C1183 C 0.84523 0.17088 0.49107 0.0
C1184 C 0.84596 0.19635 0.49967 0.0
C1185 C 0.8233 0.20585 0.49393 0.0
C1186 C 0.86579 0.15878 0.50197 0.0
C1187 C 0.89473 0.16913 0.49587 0.0
C1188 C 0.85672 0.13744 0.51912 0.0
C1189 C 0.82655 0.12643 0.52703 0.0
C1190 C 0.81255 0.14245 0.54029 0.0
C1191 C 0.78393 0.13209 0.54718 0.0
C1192 C 0.76918 0.10566 0.54116 0.0
C1193 C 0.78304 0.08953 0.5283 0.0
C1194 C 0.81164 0.09982 0.52129 0.0
C1195 C 0.94716 0.11339 0.5743 0.0
C1196 C 0.9633 0.10145 0.55836 0.0
C1197 C 0.92838 0.1249 0.56288 0.0
C1198 C 0.92577 0.1249 0.53538 0.0
C1199 C 0.94193 0.113 0.51939 0.0
C1200 C 0.96054 0.10127 0.53083 0.0
C1201 C 0.90573 0.13704 0.52353 0.0
C1202 C 0.87678 0.12669 0.52951 0.0
C1203 C 0.91493 0.15856 0.50658 0.0
C1204 C 0.94545 0.17073 0.50036 0.0
C1205 C 0.95457 0.17252 0.47403 0.0
C1206 C 0.9834 0.18361 0.46816 0.0
C1207 C 1.00329 0.1931 0.48847 0.0
C1208 C 0.9944 0.19158 0.51469 0.0
C1209 C 0.9656 0.18056 0.52066 0.0
H1210 H 0.0256 0.20164 0.48389 0.0
H1211 H 0.74702 0.09768 0.54651 0.0
H1212 H 0.32891 0.75193 0.17112 0.0
H1213 H 0.28389 0.72664 0.15071 0.0
H1214 H 0.26114 0.68073 0.22022 0.0
H1215 H 0.30576 0.70689 0.2416 0.0
H1216 H 0.25052 0.64993 0.17057 0.0
H1217 H 0.23002 0.72496 0.21156 0.0
H1218 H 0.23847 0.77243 0.2211 0.0
H1219 H 0.23007 0.78505 0.13881 0.0
H1220 H 0.22198 0.73769 0.12872 0.0
H1221 H 0.10651 0.58659 0.13 0.0
H1222 H 0.15067 0.60934 0.15374 0.0
H1223 H 0.16639 0.67395 0.10071 0.0
H1224 H 0.12126 0.652 0.0782 0.0
H1225 H 0.18069 0.69474 0.14448 0.0
H1226 H 0.20354 0.62228 0.1015 0.0
H1227 H 0.1978 0.57572 0.08928 0.0
H1228 H 0.20478 0.55884 0.17067 0.0
H1229 H 0.2102 0.60523 0.18342 0.0
C1230 C 0.31428 0.7369 0.18253 0.0
C1231 C 0.32124 0.73204 0.20846 0.0
C1232 C 0.28849 0.72217 0.17055 0.0
C1233 C 0.26887 0.70179 0.18387 0.0
C1234 C 0.27588 0.6963 0.20944 0.0
C1235 C 0.30158 0.71131 0.22164 0.0
C1236 C 0.24098 0.68671 0.17112 0.0
C1237 C 0.23503 0.65961 0.16517 0.0
C1238 C 0.22104 0.69938 0.16331 0.0
C1239 C 0.22564 0.72781 0.16937 0.0
C1240 C 0.23019 0.73789 0.19547 0.0
C1241 C 0.23488 0.76477 0.20099 0.0
C1242 C 0.23488 0.78176 0.18057 0.0
C1243 C 0.2301 0.77188 0.1546 0.0
C1244 C 0.22543 0.74501 0.14898 0.0
C1245 C 0.11947 0.60559 0.12331 0.0
C1246 C 0.11028 0.6174 0.1021 0.0
C1247 C 0.14499 0.6186 0.13684 0.0
C1248 C 0.16264 0.6434 0.12895 0.0
C1249 C 0.15347 0.65498 0.1075 0.0
C1250 C 0.1276 0.64232 0.09446 0.0
C1251 C 0.19006 0.65772 0.14334 0.0
C1252 C 0.196 0.68482 0.14972 0.0
C1253 C 0.21024 0.64509 0.15105 0.0
C1254 C 0.207 0.61719 0.14343 0.0
C1255 C 0.20365 0.6086 0.1168 0.0
C1256 C 0.20048 0.58225 0.10979 0.0
C1257 C 0.20087 0.56434 0.1292 0.0
C1258 C 0.20445 0.57274 0.15566 0.0
C1259 C 0.2076 0.59906 0.1628 0.0
H1260 H 0.19852 0.54398 0.12373 0.0
H1261 H 0.23852 0.80257 0.18487 0.0
H1262 H 0.23655 0.47503 0.69782 0.0
H1263 H 0.28034 0.49988 0.67512 0.0
H1264 H 0.31958 0.44087 0.69506 0.0
H1265 H 0.27574 0.41588 0.71721 0.0
H1266 H 0.35624 0.49439 0.70233 0.0
H1267 H 0.2933 0.43831 0.63603 0.0
H1268 H 0.24803 0.42206 0.61133 0.0
H1269 H 0.2581 0.50032 0.58532 0.0
H1270 H 0.30325 0.51709 0.6102 0.0
H1271 H 0.47551 0.5221 0.61811 0.0
H1272 H 0.43249 0.50274 0.64361 0.0
H1273 H 0.38789 0.54536 0.5985 0.0
H1274 H 0.4304 0.56264 0.57137 0.0
H1275 H 0.3527 0.50291 0.60552 0.0
H1276 H 0.41448 0.56064 0.66876 0.0
H1277 H 0.45862 0.58017 0.6945 0.0
H1278 H 0.4499 0.50516 0.72815 0.0
H1279 H 0.4059 0.4851 0.70236 0.0
C1280 C 0.25471 0.46764 0.69762 0.0
C1281 C 0.25287 0.44365 0.70939 0.0
C1282 C 0.27966 0.48175 0.68457 0.0
C1283 C 0.30334 0.47224 0.68326 0.0
C1284 C 0.30174 0.4487 0.69583 0.0
C1285 C 0.2767 0.43443 0.70848 0.0
C1286 C 0.32935 0.48606 0.66793 0.0
C1287 C 0.35558 0.49614 0.68113 0.0
C1288 C 0.32843 0.48916 0.64038 0.0
C1289 C 0.30149 0.47899 0.62518 0.0
C1290 C 0.28575 0.45208 0.6252 0.0
C1291 C 0.26013 0.44277 0.61115 0.0
C1292 C 0.25016 0.46016 0.59682 0.0
C1293 C 0.26583 0.48688 0.59645 0.0
C1294 C 0.29144 0.49629 0.61051 0.0
C1295 C 0.4565 0.52739 0.61379 0.0
C1296 C 0.45631 0.54402 0.59292 0.0
C1297 C 0.43185 0.51651 0.62859 0.0
C1298 C 0.40667 0.52298 0.62379 0.0
C1299 C 0.40674 0.53988 0.60291 0.0
C1300 C 0.43112 0.54995 0.58744 0.0
C1301 C 0.38015 0.51148 0.63981 0.0
C1302 C 0.35367 0.50164 0.62675 0.0
C1303 C 0.38075 0.50925 0.66765 0.0
C1304 C 0.40701 0.52133 0.68346 0.0
C1305 C 0.42205 0.54829 0.68156 0.0
C1306 C 0.44704 0.55945 0.69616 0.0
C1307 C 0.45709 0.5439 0.71291 0.0
C1308 C 0.4421 0.51718 0.71516 0.0
C1309 C 0.41712 0.50591 0.70058 0.0
H1310 H 0.47646 0.55257 0.72417 0.0
H1311 H 0.23031 0.45292 0.58596 0.0
H1312 H 0.83308 0.83544 0.92776 0.0
H1313 H 0.86056 0.80782 0.94366 0.0
H1314 H 0.78376 0.74216 0.94841 0.0
H1315 H 0.75601 0.76974 0.93224 0.0
H1316 H 0.81975 0.74616 0.99132 0.0
H1317 H 0.826 0.7443 0.8973 0.0
H1318 H 0.83442 0.76344 0.8533 0.0
H1319 H 0.92117 0.80436 0.87467 0.0
H1320 H 0.91314 0.78579 0.91896 0.0
H1321 H 0.89922 0.65386 1.0016 0.0
H1322 H 0.86548 0.67617 0.98699 0.0
H1323 H 0.93467 0.74782 0.97744 0.0
H1324 H 0.96833 0.72597 0.99242 0.0
H1325 H 0.89883 0.73668 0.9352 0.0
H1326 H 0.89182 0.74127 0.02986 0.0
H1327 H 0.88365 0.72297 0.07424 0.0
H1328 H 0.79871 0.67715 0.05174 0.0
H1329 H 0.80652 0.69492 1.00708 0.0
C1330 C 0.82201 0.81511 0.93213 0.0
C1331 C 0.79242 0.80468 0.92841 0.0
C1332 C 0.83773 0.79937 0.94128 0.0
C1333 C 0.82425 0.77282 0.94678 0.0
C1334 C 0.79456 0.76259 0.94418 0.0
C1335 C 0.77875 0.77837 0.93501 0.0
C1336 C 0.84149 0.75574 0.95439 0.0
C1337 C 0.83672 0.74368 0.97888 0.0
C1338 C 0.86388 0.75283 0.93827 0.0
C1339 C 0.86889 0.76381 0.91153 0.0
C1340 C 0.84682 0.75753 0.89268 0.0
C1341 C 0.85153 0.76826 0.86768 0.0
C1342 C 0.8783 0.78515 0.86121 0.0
C1343 C 0.90044 0.79129 0.87972 0.0
C1344 C 0.89582 0.78065 0.90477 0.0
C1345 C 0.90721 0.67443 0.9966 0.0
C1346 C 0.93652 0.68808 0.99809 0.0
C1347 C 0.88791 0.68711 0.98819 0.0
C1348 C 0.89758 0.71367 0.98121 0.0
C1349 C 0.92678 0.72727 0.98257 0.0
C1350 C 0.94601 0.71468 0.99103 0.0
C1351 C 0.87748 0.72751 0.97236 0.0
C1352 C 0.88168 0.73892 0.94756 0.0
C1353 C 0.85463 0.72981 0.9882 0.0
C1354 C 0.84987 0.71918 1.01505 0.0
C1355 C 0.87148 0.72711 0.03431 0.0
C1356 C 0.8669 0.71687 0.05953 0.0
C1357 C 0.8407 0.69884 0.06578 0.0
C1358 C 0.81901 0.69108 0.04685 0.0
C1359 C 0.82349 0.70123 0.02159 0.0
H1360 H 0.8372 0.69094 0.08532 0.0
H1361 H 0.8819 0.79344 0.84185 0.0
H1362 H 0.445 0.81299 0.20971 0.0
H1363 H 0.46665 0.85596 0.19043 0.0
H1364 H 0.38623 0.87194 0.1945 0.0
H1365 H 0.36448 0.82912 0.21409 0.0
H1366 H 0.40971 0.88616 0.1479 0.0
H1367 H 0.44285 0.90292 0.23718 0.0
H1368 H 0.46577 0.89538 0.27799 0.0
H1369 H 0.54431 0.90577 0.23665 0.0
H1370 H 0.52174 0.91303 0.19549 0.0
H1371 H 0.468 0.0231 0.11574 0.0
H1372 H 0.4439 0.98158 0.13746 0.0
H1373 H 0.52245 0.96196 0.13751 0.0
H1374 H 0.54648 1.00336 0.11636 0.0
H1375 H 0.49841 0.95036 0.18316 0.0
H1376 H 0.46516 0.93235 0.09367 0.0
H1377 H 0.44256 0.9402 0.05279 0.0
H1378 H 0.36455 0.93219 0.0943 0.0
H1379 H 0.38683 0.92468 0.13554 0.0
C1380 C 0.43193 0.82576 0.20703 0.0
C1381 C 0.40282 0.81724 0.2137 0.0
C1382 C 0.44439 0.85046 0.1958 0.0
C1383 C 0.42828 0.86762 0.19099 0.0
C1384 C 0.39929 0.85926 0.19777 0.0
C1385 C 0.38681 0.83458 0.20902 0.0
C1386 C 0.44147 0.89399 0.17861 0.0
C1387 C 0.42889 0.90031 0.1559 0.0
C1388 C 0.46687 0.91257 0.18847 0.0
C1389 C 0.48052 0.90827 0.2132 0.0
C1390 C 0.46495 0.9034 0.23675 0.0
C1391 C 0.47789 0.89921 0.25995 0.0
C1392 C 0.50646 0.90003 0.2599 0.0
C1393 C 0.52217 0.90511 0.23665 0.0
C1394 C 0.50932 0.90929 0.21338 0.0
C1395 C 0.48007 1.00989 0.12036 0.0
C1396 C 0.50923 0.01668 0.11429 0.0
C1397 C 0.46624 0.98601 0.13272 0.0
C1398 C 0.48115 0.96818 0.13913 0.0
C1399 C 0.51028 0.97512 0.13301 0.0
C1400 C 0.52404 0.9989 0.12076 0.0
C1401 C 0.46681 0.94246 0.1523 0.0
C1402 C 0.47919 0.93625 0.17518 0.0
C1403 C 0.44128 0.92399 0.14255 0.0
C1404 C 0.42775 0.92823 0.11774 0.0
C1405 C 0.44324 0.93244 0.09412 0.0
C1406 C 0.43049 0.93681 0.07088 0.0
C1407 C 0.40216 0.93677 0.07096 0.0
C1408 C 0.3865 0.93227 0.09428 0.0
C1409 C 0.39918 0.92794 0.11758 0.0
H1410 H 0.39232 0.94017 0.05296 0.0
H1411 H 0.51644 0.89678 0.27788 0.0
H1412 H 0.12905 0.35903 0.7116 0.0
H1413 H 0.10648 0.31643 0.68896 0.0
H1414 H 0.18921 0.30954 0.66993 0.0
H1415 H 0.21175 0.35217 0.69208 0.0
H1416 H 0.15708 0.29332 0.62921 0.0
H1417 H 0.14557 0.27454 0.72111 0.0
H1418 H 0.13067 0.27982 0.76684 0.0
H1419 H 0.0437 0.26092 0.74127 0.0
H1420 H 0.05814 0.25587 0.69531 0.0
H1421 H 0.08067 0.14074 0.63601 0.0
H1422 H 0.10244 0.18407 0.6572 0.0
H1423 H 0.08267 0.22143 0.58886 0.0
H1424 H 0.06147 0.17811 0.56727 0.0
H1425 H 0.08368 0.2222 0.67336 0.0
H1426 H 0.13094 0.28181 0.58179 0.0
H1427 H 0.14968 0.27461 0.538 0.0
H1428 H 0.17228 0.20857 0.5665 0.0
H1429 H 0.15402 0.21559 0.61052 0.0
C1430 C 0.14244 0.3484 0.70266 0.0
C1431 C 0.17229 0.35922 0.70368 0.0
C1432 C 0.12949 0.32393 0.68971 0.0
C1433 C 0.14602 0.30935 0.67782 0.0
C1434 C 0.17581 0.32025 0.67871 0.0
C1435 C 0.18874 0.34477 0.69142 0.0
C1436 C 0.1325 0.28278 0.66458 0.0
C1437 C 0.14096 0.27786 0.63891 0.0
C1438 C 0.11173 0.26216 0.67713 0.0
C1439 C 0.10298 0.26509 0.70475 0.0
C1440 C 0.12329 0.27169 0.72522 0.0
C1441 C 0.11493 0.27462 0.75118 0.0
C1442 C 0.08627 0.27078 0.75695 0.0
C1443 C 0.0659 0.26393 0.73677 0.0
C1444 C 0.07416 0.26101 0.71076 0.0
C1445 C 0.08106 0.15815 0.62536 0.0
C1446 C 0.06943 0.15578 0.59976 0.0
C1447 C 0.09345 0.18302 0.63762 0.0
C1448 C 0.09458 0.2063 0.62469 0.0
C1449 C 0.08267 0.20397 0.59921 0.0
C1450 C 0.07043 0.17907 0.58686 0.0
C1451 C 0.10813 0.23283 0.63795 0.0
C1452 C 0.09967 0.23774 0.66361 0.0
C1453 C 0.12939 0.25322 0.62564 0.0
C1454 C 0.14083 0.24907 0.59935 0.0
C1455 C 0.14001 0.26582 0.57873 0.0
C1456 C 0.15053 0.26176 0.55387 0.0
C1457 C 0.16207 0.24109 0.54945 0.0
C1458 C 0.16323 0.22451 0.56992 0.0
C1459 C 0.15278 0.22851 0.59481 0.0
H1460 H 0.17016 0.23796 0.53018 0.0
H1461 H 0.07983 0.27306 0.77706 0.0
H1462 H 0.70634 0.28743 0.58355 0.0
H1463 H 0.68677 0.32448 0.58348 0.0
H1464 H 0.64884 0.29803 0.50711 0.0
H1465 H 0.66807 0.26086 0.50713 0.0
H1466 H 0.67586 0.35111 0.50971 0.0
H1467 H 0.60895 0.28645 0.56222 0.0
H1468 H 0.5951 0.25616 0.59909 0.0
H1469 H 0.62713 0.32106 0.65453 0.0
H1470 H 0.64153 0.35169 0.61795 0.0
H1471 H 0.57788 0.42142 0.49789 0.0
H1472 H 0.60037 0.38691 0.50169 0.0
H1473 H 0.6277 0.41478 0.58085 0.0
H1474 H 0.60352 0.44842 0.57789 0.0
H1475 H 0.60938 0.36325 0.57899 0.0
H1476 H 0.67415 0.42849 0.52789 0.0
H1477 H 0.68922 0.45958 0.49181 0.0
H1478 H 0.66361 0.39529 0.43485 0.0
H1479 H 0.648 0.36383 0.47058 0.0
C1480 C 0.69361 0.28938 0.56686 0.0
C1481 C 0.68868 0.27119 0.54537 0.0
C1482 C 0.68254 0.31058 0.56682 0.0
C1483 C 0.66621 0.31385 0.54537 0.0
C1484 C 0.66148 0.29588 0.52381 0.0
C1485 C 0.67253 0.27471 0.52383 0.0
C1486 C 0.65392 0.33594 0.5453 0.0
C1487 C 0.6611 0.35366 0.52469 0.0
C1488 C 0.63544 0.3397 0.56537 0.0
C1489 C 0.62658 0.32131 0.58735 0.0
C1490 C 0.61323 0.29423 0.58227 0.0
C1491 C 0.60525 0.277 0.60312 0.0
C1492 C 0.61031 0.28667 0.62914 0.0
C1493 C 0.62327 0.31359 0.63437 0.0
C1494 C 0.63133 0.3309 0.61359 0.0
C1495 C 0.58822 0.42001 0.51632 0.0
C1496 C 0.58888 0.43777 0.53759 0.0
C1497 C 0.60148 0.40048 0.5183 0.0
C1498 C 0.61623 0.39862 0.54137 0.0
C1499 C 0.61662 0.41602 0.5628 0.0
C1500 C 0.60302 0.43539 0.56096 0.0
C1501 C 0.63093 0.37826 0.54312 0.0
C1502 C 0.62428 0.36089 0.56407 0.0
C1503 C 0.65014 0.37497 0.52349 0.0
C1504 C 0.6597 0.39382 0.50193 0.0
C1505 C 0.67155 0.421 0.50767 0.0
C1506 C 0.68022 0.43868 0.48728 0.0
C1507 C 0.67733 0.42942 0.46106 0.0
C1508 C 0.66583 0.40244 0.45517 0.0
C1509 C 0.6571 0.38466 0.47549 0.0
H1510 H 0.68404 0.44315 0.4453 0.0
H1511 H 0.60412 0.2733 0.64525 0.0
loop_
_geom_bond_atom_site_label_1
_geom_bond_atom_site_label_2
_geom_bond_distance
_geom_bond_site_symmetry_2
_ccdc_geom_bond_type
H0 C1 0.949 . S
C1 H0 0.949 . S
C1 C2 1.395 . S
C1 C3 1.391 . S
C2 C1 1.395 . S
C2 C5 1.390 . S
C3 C1 1.391 . S
C3 C7 1.387 . S
C3 C8 1.491 . S
H4 C5 0.950 . S
C5 C2 1.390 . S
C5 H4 0.950 . S
C5 C6 1.378 . S
C6 C5 1.378 . S
C6 C7 1.409 . S
C7 C3 1.387 . S
C7 C6 1.409 . S
C7 H9 0.951 . S
C8 C3 1.491 . S
C8 C10 1.382 . S
C8 C12 1.404 . S
H9 C7 0.951 . S
C10 C8 1.382 . S
C10 C11 1.390 . S
C10 H15 0.949 . S
C11 C10 1.390 . S
C11 C16 1.399 . S
C12 C8 1.404 . S
C12 H13 0.950 . S
C12 C14 1.375 . S
H13 C12 0.950 . S
C14 C12 1.375 . S
C14 C16 1.382 . S
C14 H18 0.950 . S
H15 C10 0.949 . S
C16 C11 1.399 . S
C16 C14 1.382 . S
C16 H17 0.952 . S
H17 C16 0.952 . S
H18 C14 0.950 . S
H19 C20 0.949 . S
C20 H19 0.949 . S
C20 C21 1.395 . S
C20 C22 1.391 . S
C21 C20 1.395 . S
C21 C24 1.390 . S
C22 C20 1.391 . S
C22 C26 1.387 . S
C22 C27 1.491 . S
H23 C24 0.950 . S
C24 C21 1.390 . S
C24 H23 0.950 . S
C24 C25 1.378 . S
C25 C24 1.378 . S
C25 C26 1.409 . S
C26 C22 1.387 . S
C26 C25 1.409 . S
C26 H28 0.951 . S
C27 C22 1.491 . S
C27 C29 1.382 . S
C27 C31 1.404 . S
H28 C26 0.951 . S
C29 C27 1.382 . S
C29 C30 1.390 . S
C29 H34 0.949 . S
C30 C29 1.390 . S
C30 C35 1.399 . S
C31 C27 1.404 . S
C31 H32 0.950 . S
C31 C33 1.375 . S
H32 C31 0.950 . S
C33 C31 1.375 . S
C33 C35 1.382 . S
C33 H37 0.950 . S
H34 C29 0.949 . S
C35 C30 1.399 . S
C35 C33 1.382 . S
C35 H36 0.952 . S
H36 C35 0.952 . S
H37 C33 0.950 . S
H38 C39 0.949 . S
C39 H38 0.949 . S
C39 C40 1.395 . S
C39 C41 1.391 . S
C40 C39 1.395 . S
C40 C43 1.390 . S
C41 C39 1.391 . S
C41 C45 1.387 . S
C41 C46 1.491 . S
H42 C43 0.950 . S
C43 C40 1.390 . S
C43 H42 0.950 . S
C43 C44 1.378 . S
C44 C43 1.378 . S
C44 C45 1.409 . S
C45 C41 1.387 . S
C45 C44 1.409 . S
C45 H47 0.951 . S
C46 C41 1.491 . S
C46 C48 1.382 . S
C46 C50 1.404 . S
H47 C45 0.951 . S
C48 C46 1.382 . S
C48 C49 1.390 . S
C48 H53 0.949 . S
C49 C48 1.390 . S
C49 C54 1.399 . S
C50 C46 1.404 . S
C50 H51 0.950 . S
C50 C52 1.375 . S
H51 C50 0.950 . S
C52 C50 1.375 . S
C52 C54 1.382 . S
C52 H56 0.950 . S
H53 C48 0.949 . S
C54 C49 1.399 . S
C54 C52 1.382 . S
C54 H55 0.952 . S
H55 C54 0.952 . S
H56 C52 0.950 . S
H57 C58 0.949 . S
C58 H57 0.949 . S
C58 C59 1.395 . S
C58 C60 1.391 . S
C59 C58 1.395 . S
C59 C62 1.390 . S
C60 C58 1.391 . S
C60 C64 1.387 . S
C60 C65 1.491 . S
H61 C62 0.950 . S
C62 C59 1.390 . S
C62 H61 0.950 . S
C62 C63 1.378 . S
C63 C62 1.378 . S
C63 C64 1.409 . S
C64 C60 1.387 . S
C64 C63 1.409 . S
C64 H66 0.951 . S
C65 C60 1.491 . S
C65 C67 1.382 . S
C65 C69 1.404 . S
H66 C64 0.951 . S
C67 C65 1.382 . S
C67 C68 1.390 . S
C67 H72 0.949 . S
C68 C67 1.390 . S
C68 C73 1.399 . S
C69 C65 1.404 . S
C69 H70 0.950 . S
C69 C71 1.375 . S
H70 C69 0.950 . S
C71 C69 1.375 . S
C71 C73 1.382 . S
C71 H75 0.950 . S
H72 C67 0.949 . S
C73 C68 1.399 . S
C73 C71 1.382 . S
C73 H74 0.952 . S
H74 C73 0.952 . S
H75 C71 0.950 . S
H76 C77 0.949 . S
C77 H76 0.949 . S
C77 C78 1.395 . S
C77 C79 1.391 . S
C78 C77 1.395 . S
C78 C81 1.390 . S
C79 C77 1.391 . S
C79 C83 1.387 . S
C79 C84 1.491 . S
H80 C81 0.950 . S
C81 C78 1.390 . S
C81 H80 0.950 . S
C81 C82 1.378 . S
C82 C81 1.378 . S
C82 C83 1.409 . S
C83 C79 1.387 . S
C83 C82 1.409 . S
C83 H85 0.951 . S
C84 C79 1.491 . S
C84 C86 1.382 . S
C84 C88 1.404 . S
H85 C83 0.951 . S
C86 C84 1.382 . S
C86 C87 1.390 . S
C86 H91 0.949 . S
C87 C86 1.390 . S
C87 C92 1.399 . S
C88 C84 1.404 . S
C88 H89 0.950 . S
C88 C90 1.375 . S
H89 C88 0.950 . S
C90 C88 1.375 . S
C90 C92 1.382 . S
C90 H94 0.950 . S
H91 C86 0.949 . S
C92 C87 1.399 . S
C92 C90 1.382 . S
C92 H93 0.952 . S
H93 C92 0.952 . S
H94 C90 0.950 . S
H95 C96 0.949 . S
C96 H95 0.949 . S
C96 C97 1.395 . S
C96 C98 1.391 . S
C97 C96 1.395 . S
C97 C100 1.390 . S
C98 C96 1.391 . S
C98 C102 1.387 . S
C98 C103 1.491 . S
H99 C100 0.950 . S
C100 C97 1.390 . S
C100 H99 0.950 . S
C100 C101 1.378 . S
C101 C100 1.378 . S
C101 C102 1.409 . S
C102 C98 1.387 . S
C102 C101 1.409 . S
C102 H104 0.951 . S
C103 C98 1.491 . S
C103 C105 1.382 . S
C103 C107 1.404 . S
H104 C102 0.951 . S
C105 C103 1.382 . S
C105 C106 1.390 . S
C105 H110 0.949 . S
C106 C105 1.390 . S
C106 C111 1.399 . S
C107 C103 1.404 . S
C107 H108 0.950 . S
C107 C109 1.375 . S
H108 C107 0.950 . S
C109 C107 1.375 . S
C109 C111 1.382 . S
C109 H113 0.950 . S
H110 C105 0.949 . S
C111 C106 1.399 . S
C111 C109 1.382 . S
C111 H112 0.952 . S
H112 C111 0.952 . S
H113 C109 0.950 . S
H114 C115 0.949 . S
C115 H114 0.949 . S
C115 C116 1.395 . S
C115 C117 1.391 . S
C116 C115 1.395 . S
C116 C119 1.390 . S
C117 C115 1.391 . S
C117 C121 1.387 . S
C117 C122 1.491 . S
H118 C119 0.950 . S
C119 C116 1.390 . S
C119 H118 0.950 . S
C119 C120 1.378 . S
C120 C119 1.378 . S
C120 C121 1.409 . S
C121 C117 1.387 . S
C121 C120 1.409 . S
C121 H123 0.951 . S
C122 C117 1.491 . S
C122 C124 1.382 . S
C122 C126 1.404 . S
H123 C121 0.951 . S
C124 C122 1.382 . S
C124 C125 1.390 . S
C124 H129 0.949 . S
C125 C124 1.390 . S
C125 C130 1.399 . S
C126 C122 1.404 . S
C126 H127 0.950 . S
C126 C128 1.375 . S
H127 C126 0.950 . S
C128 C126 1.375 . S
C128 C130 1.382 . S
C128 H132 0.950 . S
H129 C124 0.949 . S
C130 C125 1.399 . S
C130 C128 1.382 . S
C130 H131 0.952 . S
H131 C130 0.952 . S
H132 C128 0.950 . S
H133 C134 0.949 . S
C134 H133 0.949 . S
C134 C135 1.395 . S
C134 C136 1.391 . S
C135 C134 1.395 . S
C135 C138 1.390 . S
C136 C134 1.391 . S
C136 C140 1.387 . S
C136 C141 1.491 . S
H137 C138 0.950 . S
C138 C135 1.390 . S
C138 H137 0.950 . S
C138 C139 1.378 . S
C139 C138 1.378 . S
C139 C140 1.409 . S
C140 C136 1.387 . S
C140 C139 1.409 . S
C140 H142 0.951 . S
C141 C136 1.491 . S
C141 C143 1.382 . S
C141 C145 1.404 . S
H142 C140 0.951 . S
C143 C141 1.382 . S
C143 C144 1.390 . S
C143 H148 0.949 . S
C144 C143 1.390 . S
C144 C149 1.399 . S
C145 C141 1.404 . S
C145 H146 0.950 . S
C145 C147 1.375 . S
H146 C145 0.950 . S
C147 C145 1.375 . S
C147 C149 1.382 . S
C147 H151 0.950 . S
H148 C143 0.949 . S
C149 C144 1.399 . S
C149 C147 1.382 . S
C149 H150 0.952 . S
H150 C149 0.952 . S
H151 C147 0.950 . S
La152 C154 2.928 . S
La152 O172 2.521 . S
La152 O173 2.628 . S
La152 O174 2.554 . S
La152 O175 2.757 . S
La152 O176 2.470 . S
La152 O181 2.482 1_455 S
La152 O183 2.503 . S
La153 C163 2.928 1_545 S
La153 O175 2.482 1_655 S
La153 O177 2.503 1_655 S
La153 O178 2.521 . S
La153 O179 2.628 1_545 S
La153 O180 2.554 . S
La153 O181 2.757 . S
La153 O182 2.470 . S
C154 La152 2.928 . S
C154 C155 1.503 . S
C154 O172 1.261 . S
C154 O173 1.243 . S
C155 C154 1.503 . S
C155 C156 1.394 . S
C155 C160 1.373 . S
C156 C155 1.394 . S
C156 C157 1.380 . S
C156 H184 0.930 . S
C157 C156 1.380 . S
C157 C158 1.376 . S
C157 H185 0.930 . S
C158 C157 1.376 . S
C158 C159 1.370 . S
C159 C158 1.370 . S
C159 C160 1.396 . S
C159 H186 0.929 . S
C160 C155 1.373 . S
C160 C159 1.396 . S
C160 H187 0.929 . S
C161 O174 1.240 . S
C161 O175 1.289 . S
C162 O176 1.258 . S
C162 O177 1.256 . S
C163 La153 2.928 1_565 S
C163 C164 1.503 . S
C163 O178 1.261 1_565 S
C163 O179 1.243 . S
C164 C163 1.503 . S
C164 C165 1.394 . S
C164 C169 1.373 . S
C165 C164 1.394 . S
C165 C166 1.380 . S
C165 H188 0.930 . S
C166 C165 1.380 . S
C166 C167 1.376 . S
C166 H189 0.930 . S
C167 C166 1.376 . S
C167 C168 1.370 . S
C168 C167 1.370 . S
C168 C169 1.396 . S
C168 H190 0.929 . S
C169 C164 1.373 . S
C169 C168 1.396 . S
C169 H191 0.929 . S
C170 O180 1.240 . S
C170 O181 1.289 . S
C171 O182 1.258 1_565 S
C171 O183 1.256 1_665 S
O172 La152 2.521 . S
O172 C154 1.261 . S
O173 La152 2.628 . S
O173 C154 1.243 . S
O174 La152 2.554 . S
O174 C161 1.240 . S
O175 La152 2.757 . S
O175 La153 2.482 1_455 S
O175 C161 1.289 . S
O176 La152 2.470 . S
O176 C162 1.258 . S
O177 La153 2.503 1_455 S
O177 C162 1.256 . S
O178 La153 2.521 . S
O178 C163 1.261 1_545 S
O179 La153 2.628 1_565 S
O179 C163 1.243 . S
O180 La153 2.554 . S
O180 C170 1.240 . S
O181 La152 2.482 1_655 S
O181 La153 2.757 . S
O181 C170 1.289 . S
O182 La153 2.470 . S
O182 C171 1.258 1_545 S
O183 La152 2.503 . S
O183 C171 1.256 1_445 S
H184 C156 0.930 . S
H185 C157 0.930 . S
H186 C159 0.929 . S
H187 C160 0.929 . S
H188 C165 0.930 . S
H189 C166 0.930 . S
H190 C168 0.929 . S
H191 C169 0.929 . S
La192 C194 2.928 . S
La192 O212 2.521 . S
La192 O213 2.628 . S
La192 O214 2.554 . S
La192 O215 2.757 . S
La192 O216 2.470 . S
La192 O221 2.482 . S
La192 O223 2.503 . S
La193 C203 2.928 . S
La193 O215 2.482 . S
La193 O217 2.503 . S
La193 O218 2.532 . S
La193 O219 2.628 1_545 S
La193 O220 2.554 . S
La193 O221 2.757 . S
La193 O222 2.470 . S
C194 La192 2.928 . S
C194 C195 1.503 . S
C194 O212 1.261 . S
C194 O213 1.243 . S
C195 C194 1.503 . S
C195 C196 1.394 . S
C195 C200 1.373 . S
C196 C195 1.394 . S
C196 C197 1.380 . S
C196 H224 0.930 . S
C197 C196 1.380 . S
C197 C198 1.376 . S
C197 H225 0.930 . S
C198 C197 1.376 . S
C198 C199 1.370 . S
C199 C198 1.370 . S
C199 C200 1.396 . S
C199 H226 0.929 . S
C200 C195 1.373 . S
C200 C199 1.396 . S
C200 H227 0.929 . S
C201 O214 1.240 1_565 S
C201 O215 1.289 1_565 S
C202 O216 1.258 . S
C202 O217 1.256 . S
C203 La193 2.928 . S
C203 C204 1.503 1_544 S
C203 O218 1.262 . S
C203 O219 1.243 1_545 S
C204 C203 1.503 1_566 S
C204 C205 1.394 . S
C204 C209 1.373 . S
C205 C204 1.394 . S
C205 C206 1.380 . S
C205 H228 0.930 1_565 S
C206 C205 1.380 . S
C206 C207 1.376 . S
C206 H229 0.930 . S
C207 C206 1.376 . S
C207 C208 1.370 . S
C208 C207 1.370 . S
C208 C209 1.396 . S
C208 H230 0.929 . S
C209 C204 1.373 . S
C209 C208 1.396 . S
C209 H231 0.929 . S
C210 O220 1.240 . S
C210 O221 1.289 . S
C211 O222 1.258 . S
C211 O223 1.256 . S
O212 La192 2.521 . S
O212 C194 1.261 . S
O213 La192 2.628 . S
O213 C194 1.243 . S
O214 La192 2.554 . S
O214 C201 1.240 1_545 S
O215 La192 2.757 . S
O215 La193 2.482 . S
O215 C201 1.289 1_545 S
O216 La192 2.470 . S
O216 C202 1.258 . S
O217 La193 2.503 . S
O217 C202 1.256 . S
O218 La193 2.532 . S
O218 C203 1.262 . S
O219 La193 2.628 1_565 S
O219 C203 1.243 1_565 S
O220 La193 2.554 . S
O220 C210 1.240 . S
O221 La192 2.482 . S
O221 La193 2.757 . S
O221 C210 1.289 . S
O222 La193 2.470 . S
O222 C211 1.258 . S
O223 La192 2.503 . S
O223 C211 1.256 . S
H224 C196 0.930 . S
H225 C197 0.930 . S
H226 C199 0.929 . S
H227 C200 0.929 . S
H228 C205 0.930 1_545 S
H229 C206 0.930 . S
H230 C208 0.929 . S
H231 C209 0.929 . S
La232 C234 2.928 . S
La232 O252 2.521 . S
La232 O253 2.628 . S
La232 O254 2.554 . S
La232 O255 2.757 . S
La232 O256 2.470 . S
La232 O261 2.482 . S
La232 O263 2.503 . S
La233 C243 2.928 . S
La233 O255 2.482 . S
La233 O257 2.503 . S
La233 O258 2.521 . S
La233 O259 2.628 . S
La233 O260 2.554 . S
La233 O261 2.757 . S
La233 O262 2.470 . S
C234 La232 2.928 . S
C234 C235 1.503 . S
C234 O252 1.261 . S
C234 O253 1.243 . S
C235 C234 1.503 . S
C235 C236 1.394 . S
C235 C240 1.373 . S
C236 C235 1.394 . S
C236 C237 1.380 . S
C236 H264 0.930 . S
C237 C236 1.380 . S
C237 C238 1.376 . S
C237 H265 0.930 . S
C238 C237 1.376 . S
C238 C239 1.370 . S
C239 C238 1.370 . S
C239 C240 1.396 . S
C239 H266 0.929 . S
C240 C235 1.373 . S
C240 C239 1.396 . S
C240 H267 0.929 . S
C241 O254 1.240 . S
C241 O255 1.289 . S
C242 O256 1.258 . S
C242 O257 1.256 . S
C243 La233 2.928 . S
C243 C244 1.503 . S
C243 O258 1.261 . S
C243 O259 1.243 . S
C244 C243 1.503 . S
C244 C245 1.394 . S
C244 C249 1.373 . S
C245 C244 1.394 . S
C245 C246 1.380 . S
C245 H268 0.930 . S
C246 C245 1.380 . S
C246 C247 1.376 . S
C246 H269 0.930 . S
C247 C246 1.376 . S
C247 C248 1.370 . S
C248 C247 1.370 . S
C248 C249 1.396 . S
C248 H270 0.929 . S
C249 C244 1.373 . S
C249 C248 1.396 . S
C249 H271 0.929 . S
C250 O260 1.240 . S
C250 O261 1.289 . S
C251 O262 1.258 . S
C251 O263 1.256 . S
O252 La232 2.521 . S
O252 C234 1.261 . S
O253 La232 2.628 . S
O253 C234 1.243 . S
O254 La232 2.554 . S
O254 C241 1.240 . S
O255 La232 2.757 . S
O255 La233 2.482 . S
O255 C241 1.289 . S
O256 La232 2.470 . S
O256 C242 1.258 . S
O257 La233 2.503 . S
O257 C242 1.256 . S
O258 La233 2.521 . S
O258 C243 1.261 . S
O259 La233 2.628 . S
O259 C243 1.243 . S
O260 La233 2.554 . S
O260 C250 1.240 . S
O261 La232 2.482 . S
O261 La233 2.757 . S
O261 C250 1.289 . S
O262 La233 2.470 . S
O262 C251 1.258 . S
O263 La232 2.503 . S
O263 C251 1.256 . S
H264 C236 0.930 . S
H265 C237 0.930 . S
H266 C239 0.929 . S
H267 C240 0.929 . S
H268 C245 0.930 . S
H269 C246 0.930 . S
H270 C248 0.929 . S
H271 C249 0.929 . S
La272 C274 2.928 . S
La272 O292 2.521 . S
La272 O293 2.628 . S
La272 O294 2.554 . S
La272 O295 2.757 . S
La272 O296 2.470 . S
La272 O301 2.482 1_554 S
La272 O303 2.503 1_455 S
La273 C283 2.922 1_454 S
La273 O295 2.492 . S
La273 O297 2.510 . S
La273 O298 2.511 1_554 S
La273 O299 2.627 1_454 S
La273 O300 2.544 1_554 S
La273 O301 2.757 1_554 S
La273 O302 2.486 1_554 S
C274 La272 2.928 . S
C274 C275 1.503 . S
C274 O292 1.261 . S
C274 O293 1.243 . S
C275 C274 1.503 . S
C275 C276 1.394 . S
C275 C280 1.373 . S
C276 C275 1.394 . S
C276 C277 1.380 . S
C276 H304 0.930 . S
C277 C276 1.380 . S
C277 C278 1.376 . S
C277 H305 0.930 . S
C278 C277 1.376 . S
C278 C279 1.370 . S
C279 C278 1.370 . S
C279 C280 1.396 . S
C279 H306 0.929 . S
C280 C275 1.373 . S
C280 C279 1.396 . S
C280 H307 0.929 . S
C281 O294 1.240 . S
C281 O295 1.289 . S
C282 O296 1.258 . S
C282 O297 1.256 . S
C283 La273 2.922 1_656 S
C283 C284 1.503 . S
C283 O298 1.261 1_655 S
C283 O299 1.243 . S
C284 C283 1.503 . S
C284 C285 1.394 . S
C284 C289 1.373 . S
C285 C284 1.394 . S
C285 C286 1.380 . S
C285 H308 0.930 . S
C286 C285 1.380 . S
C286 C287 1.376 . S
C286 H309 0.930 . S
C287 C286 1.376 . S
C287 C288 1.370 . S
C288 C287 1.370 . S
C288 C289 1.396 . S
C288 H310 0.929 . S
C289 C284 1.373 . S
C289 C288 1.396 . S
C289 H311 0.929 . S
C290 O300 1.240 . S
C290 O301 1.289 . S
C291 O302 1.245 1_655 S
C291 O303 1.256 1_556 S
O292 La272 2.521 . S
O292 C274 1.261 . S
O293 La272 2.628 . S
O293 C274 1.243 . S
O294 La272 2.554 . S
O294 C281 1.240 . S
O295 La272 2.757 . S
O295 La273 2.492 . S
O295 C281 1.289 . S
O296 La272 2.470 . S
O296 C282 1.258 . S
O297 La273 2.510 . S
O297 C282 1.256 . S
O298 La273 2.511 1_556 S
O298 C283 1.261 1_455 S
O299 La273 2.627 1_656 S
O299 C283 1.243 . S
O300 La273 2.544 1_556 S
O300 C290 1.240 . S
O301 La272 2.482 1_556 S
O301 La273 2.757 1_556 S
O301 C290 1.289 . S
O302 La273 2.486 1_556 S
O302 C291 1.245 1_455 S
O303 La272 2.503 1_655 S
O303 C291 1.256 1_554 S
H304 C276 0.930 . S
H305 C277 0.930 . S
H306 C279 0.929 . S
H307 C280 0.929 . S
H308 C285 0.930 . S
H309 C286 0.930 . S
H310 C288 0.929 . S
H311 C289 0.929 . S
H312 C330 0.951 . S
H313 C332 0.951 . S
H314 C334 0.950 . S
H315 C335 0.950 . S
H316 C337 0.950 . S
H317 C340 0.950 . S
H318 C341 0.950 . S
H319 C343 0.950 . S
H320 C344 0.950 . S
H321 C345 0.951 . S
H322 C347 0.951 . S
H323 C349 0.950 . S
H324 C350 0.950 . S
H325 C352 0.950 . S
H326 C355 0.950 . S
H327 C356 0.950 . S
H328 C358 0.950 . S
H329 C359 0.950 . S
C330 H312 0.951 . S
C330 C331 1.366 . S
C330 C332 1.388 . S
C331 C330 1.366 . S
C331 C335 1.385 . S
C332 H313 0.951 . S
C332 C330 1.388 . S
C332 C333 1.366 . S
C333 C332 1.366 . S
C333 C334 1.414 . S
C333 C336 1.499 . S
C334 H314 0.950 . S
C334 C333 1.414 . S
C334 C335 1.374 . S
C335 H315 0.950 . S
C335 C331 1.385 . S
C335 C334 1.374 . S
C336 C333 1.499 . S
C336 C337 1.373 . S
C336 C338 1.389 . S
C337 H316 0.950 . S
C337 C336 1.373 . S
C337 C353 1.377 . S
C338 C336 1.389 . S
C338 C339 1.524 . S
C338 C352 1.377 . S
C339 C338 1.524 . S
C339 C340 1.397 . S
C339 C344 1.363 . S
C340 H317 0.950 . S
C340 C339 1.397 . S
C340 C341 1.334 . S
C341 H318 0.950 . S
C341 C340 1.334 . S
C341 C342 1.287 . S
C342 C341 1.287 . S
C342 C343 1.524 . S
C342 H361 0.913 . S
C343 H319 0.950 . S
C343 C342 1.524 . S
C343 C344 1.415 . S
C344 H320 0.950 . S
C344 C339 1.363 . S
C344 C343 1.415 . S
C345 H321 0.951 . S
C345 C346 1.366 . S
C345 C347 1.388 . S
C346 C345 1.366 . S
C346 C350 1.385 . S
C347 H322 0.951 . S
C347 C345 1.388 . S
C347 C348 1.366 . S
C348 C347 1.366 . S
C348 C349 1.414 . S
C348 C351 1.499 . S
C349 H323 0.950 . S
C349 C348 1.414 . S
C349 C350 1.374 . S
C350 H324 0.950 . S
C350 C346 1.385 . S
C350 C349 1.374 . S
C351 C348 1.499 . S
C351 C352 1.373 . S
C351 C353 1.389 . S
C352 H325 0.950 . S
C352 C338 1.377 . S
C352 C351 1.373 . S
C353 C337 1.377 . S
C353 C351 1.389 . S
C353 C354 1.524 . S
C354 C353 1.524 . S
C354 C355 1.397 . S
C354 C359 1.363 . S
C355 H326 0.950 . S
C355 C354 1.397 . S
C355 C356 1.334 . S
C356 H327 0.950 . S
C356 C355 1.334 . S
C356 C357 1.287 . S
C357 C356 1.287 . S
C357 C358 1.524 . S
C357 H360 0.999 . S
C358 H328 0.950 . S
C358 C357 1.524 . S
C358 C359 1.415 . S
C359 H329 0.950 . S
C359 C354 1.363 . S
C359 C358 1.415 . S
H360 C357 0.999 . S
H361 C342 0.913 . S
H362 C380 0.951 . S
H363 C382 0.951 . S
H364 C384 0.950 . S
H365 C385 0.950 . S
H366 C387 0.950 . S
H367 C390 0.950 . S
H368 C391 0.950 1_545 S
H369 C393 0.950 . S
H370 C394 0.950 . S
H371 C395 0.951 . S
H372 C397 0.951 . S
H373 C399 0.950 . S
H374 C400 0.950 . S
H375 C402 0.950 . S
H376 C405 0.950 . S
H377 C406 0.950 . S
H378 C408 0.950 . S
H379 C409 0.950 . S
C380 H362 0.951 . S
C380 C381 1.366 . S
C380 C382 1.388 . S
C381 C380 1.366 . S
C381 C385 1.385 . S
C382 H363 0.951 . S
C382 C380 1.388 . S
C382 C383 1.366 . S
C383 C382 1.366 . S
C383 C384 1.414 . S
C383 C386 1.499 . S
C384 H364 0.950 . S
C384 C383 1.414 . S
C384 C385 1.374 . S
C385 H365 0.950 . S
C385 C381 1.385 . S
C385 C384 1.374 . S
C386 C383 1.499 . S
C386 C387 1.373 . S
C386 C388 1.389 . S
C387 H366 0.950 . S
C387 C386 1.373 . S
C387 C403 1.377 . S
C388 C386 1.389 . S
C388 C389 1.524 . S
C388 C402 1.377 . S
C389 C388 1.524 . S
C389 C390 1.397 . S
C389 C394 1.363 . S
C390 H367 0.950 . S
C390 C389 1.397 . S
C390 C391 1.334 . S
C391 H368 0.950 1_565 S
C391 C390 1.334 . S
C391 C392 1.287 1_565 S
C392 C391 1.287 1_545 S
C392 C393 1.524 . S
C392 H411 0.913 . S
C393 H369 0.950 . S
C393 C392 1.524 . S
C393 C394 1.415 1_545 S
C394 H370 0.950 . S
C394 C389 1.363 . S
C394 C393 1.415 1_565 S
C395 H371 0.951 . S
C395 C396 1.366 . S
C395 C397 1.388 . S
C396 C395 1.366 . S
C396 C400 1.385 . S
C397 H372 0.951 . S
C397 C395 1.388 . S
C397 C398 1.366 . S
C398 C397 1.366 . S
C398 C399 1.414 . S
C398 C401 1.499 . S
C399 H373 0.950 . S
C399 C398 1.414 . S
C399 C400 1.374 . S
C400 H374 0.950 . S
C400 C396 1.385 . S
C400 C399 1.374 . S
C401 C398 1.499 . S
C401 C402 1.373 . S
C401 C403 1.389 . S
C402 H375 0.950 . S
C402 C388 1.377 . S
C402 C401 1.373 . S
C403 C387 1.377 . S
C403 C401 1.389 . S
C403 C404 1.524 . S
C404 C403 1.524 . S
C404 C405 1.397 . S
C404 C409 1.363 . S
C405 H376 0.950 . S
C405 C404 1.397 . S
C405 C406 1.334 . S
C406 H377 0.950 . S
C406 C405 1.334 . S
C406 C407 1.287 . S
C407 C406 1.287 . S
C407 C408 1.524 . S
C407 H410 0.999 . S
C408 H378 0.950 . S
C408 C407 1.524 . S
C408 C409 1.415 . S
C409 H379 0.950 . S
C409 C404 1.363 . S
C409 C408 1.415 . S
H410 C407 0.999 . S
H411 C392 0.913 . S
H412 C430 0.951 . S
H413 C432 0.951 . S
H414 C434 0.950 . S
H415 C435 0.950 . S
H416 C437 0.950 . S
H417 C440 0.950 . S
H418 C441 0.950 . S
H419 C443 0.950 . S
H420 C444 0.950 . S
H421 C445 0.951 . S
H422 C447 0.951 . S
H423 C449 0.950 . S
H424 C450 0.950 . S
H425 C452 0.950 . S
H426 C455 0.950 . S
H427 C456 0.950 . S
H428 C458 0.950 . S
H429 C459 0.950 . S
C430 H412 0.951 . S
C430 C431 1.366 . S
C430 C432 1.388 . S
C431 C430 1.366 . S
C431 C435 1.385 . S
C432 H413 0.951 . S
C432 C430 1.388 . S
C432 C433 1.366 . S
C433 C432 1.366 . S
C433 C434 1.414 . S
C433 C436 1.499 . S
C434 H414 0.950 . S
C434 C433 1.414 . S
C434 C435 1.374 . S
C435 H415 0.950 . S
C435 C431 1.385 . S
C435 C434 1.374 . S
C436 C433 1.499 . S
C436 C437 1.373 . S
C436 C438 1.389 . S
C437 H416 0.950 . S
C437 C436 1.373 . S
C437 C453 1.377 . S
C438 C436 1.389 . S
C438 C439 1.524 . S
C438 C452 1.377 . S
C439 C438 1.524 . S
C439 C440 1.397 . S
C439 C444 1.363 . S
C440 H417 0.950 . S
C440 C439 1.397 . S
C440 C441 1.334 . S
C441 H418 0.950 . S
C441 C440 1.334 . S
C441 C442 1.287 . S
C442 C441 1.287 . S
C442 C443 1.524 . S
C442 H461 0.913 . S
C443 H419 0.950 . S
C443 C442 1.524 . S
C443 C444 1.415 . S
C444 H420 0.950 . S
C444 C439 1.363 . S
C444 C443 1.415 . S
C445 H421 0.951 . S
C445 C446 1.366 . S
C445 C447 1.388 . S
C446 C445 1.366 . S
C446 C450 1.385 . S
C447 H422 0.951 . S
C447 C445 1.388 . S
C447 C448 1.366 . S
C448 C447 1.366 . S
C448 C449 1.414 . S
C448 C451 1.499 . S
C449 H423 0.950 . S
C449 C448 1.414 . S
C449 C450 1.374 . S
C450 H424 0.950 . S
C450 C446 1.385 . S
C450 C449 1.374 . S
C451 C448 1.499 . S
C451 C452 1.373 . S
C451 C453 1.389 . S
C452 H425 0.950 . S
C452 C438 1.377 . S
C452 C451 1.373 . S
C453 C437 1.377 . S
C453 C451 1.389 . S
C453 C454 1.524 . S
C454 C453 1.524 . S
C454 C455 1.397 . S
C454 C459 1.363 . S
C455 H426 0.950 . S
C455 C454 1.397 . S
C455 C456 1.334 . S
C456 H427 0.950 . S
C456 C455 1.334 . S
C456 C457 1.287 . S
C457 C456 1.287 . S
C457 C458 1.524 . S
C457 H460 0.999 . S
C458 H428 0.950 . S
C458 C457 1.524 . S
C458 C459 1.415 . S
C459 H429 0.950 . S
C459 C454 1.363 . S
C459 C458 1.415 . S
H460 C457 0.999 . S
H461 C442 0.913 . S
H462 C480 0.951 . S
H463 C482 0.951 . S
H464 C484 0.950 . S
H465 C485 0.950 . S
H466 C487 0.950 . S
H467 C490 0.950 . S
H468 C491 0.950 . S
H469 C493 0.950 . S
H470 C494 0.950 . S
H471 C495 0.951 . S
H472 C497 0.951 . S
H473 C499 0.950 . S
H474 C500 0.950 1_455 S
H475 C502 0.950 . S
H476 C505 0.950 . S
H477 C506 0.950 . S
H478 C508 0.950 . S
H479 C509 0.950 . S
C480 H462 0.951 . S
C480 C481 1.366 . S
C480 C482 1.388 . S
C481 C480 1.366 . S
C481 C485 1.385 . S
C482 H463 0.951 . S
C482 C480 1.388 . S
C482 C483 1.366 . S
C483 C482 1.366 . S
C483 C484 1.414 . S
C483 C486 1.499 . S
C484 H464 0.950 . S
C484 C483 1.414 . S
C484 C485 1.374 . S
C485 H465 0.950 . S
C485 C481 1.385 . S
C485 C484 1.374 . S
C486 C483 1.499 . S
C486 C487 1.373 . S
C486 C488 1.389 . S
C487 H466 0.950 . S
C487 C486 1.373 . S
C487 C503 1.377 . S
C488 C486 1.389 . S
C488 C489 1.524 . S
C488 C502 1.377 . S
C489 C488 1.524 . S
C489 C490 1.397 . S
C489 C494 1.363 . S
C490 H467 0.950 . S
C490 C489 1.397 . S
C490 C491 1.334 . S
C491 H468 0.950 . S
C491 C490 1.334 . S
C491 C492 1.287 . S
C492 C491 1.287 . S
C492 C493 1.524 . S
C492 H511 0.913 . S
C493 H469 0.950 . S
C493 C492 1.524 . S
C493 C494 1.415 . S
C494 H470 0.950 . S
C494 C489 1.363 . S
C494 C493 1.415 . S
C495 H471 0.951 . S
C495 C496 1.366 . S
C495 C497 1.388 . S
C496 C495 1.366 . S
C496 C500 1.385 . S
C497 H472 0.951 . S
C497 C495 1.388 . S
C497 C498 1.366 . S
C498 C497 1.366 . S
C498 C499 1.414 . S
C498 C501 1.499 . S
C499 H473 0.950 . S
C499 C498 1.414 . S
C499 C500 1.374 . S
C500 H474 0.950 1_655 S
C500 C496 1.385 . S
C500 C499 1.374 . S
C501 C498 1.499 . S
C501 C502 1.373 . S
C501 C503 1.389 . S
C502 H475 0.950 . S
C502 C488 1.377 . S
C502 C501 1.373 . S
C503 C487 1.377 . S
C503 C501 1.389 . S
C503 C504 1.524 . S
C504 C503 1.524 . S
C504 C505 1.397 1_655 S
C504 C509 1.363 . S
C505 H476 0.950 . S
C505 C504 1.397 1_455 S
C505 C506 1.334 . S
C506 H477 0.950 . S
C506 C505 1.334 . S
C506 C507 1.287 . S
C507 C506 1.287 . S
C507 C508 1.524 1_455 S
C507 H510 0.999 . S
C508 H478 0.950 . S
C508 C507 1.524 1_655 S
C508 C509 1.415 . S
C509 H479 0.950 . S
C509 C504 1.363 . S
C509 C508 1.415 . S
H510 C507 0.999 . S
H511 C492 0.913 . S
H512 C530 0.951 . S
H513 C532 0.951 . S
H514 C534 0.950 . S
H515 C535 0.950 . S
H516 C537 0.950 . S
H517 C540 0.950 . S
H518 C541 0.950 . S
H519 C543 0.950 . S
H520 C544 0.950 . S
H521 C545 0.951 . S
H522 C547 0.951 . S
H523 C549 0.950 . S
H524 C550 0.950 . S
H525 C552 0.950 . S
H526 C555 0.950 . S
H527 C556 0.950 . S
H528 C558 0.950 . S
H529 C559 0.950 . S
C530 H512 0.951 . S
C530 C531 1.366 . S
C530 C532 1.388 . S
C531 C530 1.366 . S
C531 C535 1.385 . S
C532 H513 0.951 . S
C532 C530 1.388 . S
C532 C533 1.366 . S
C533 C532 1.366 . S
C533 C534 1.414 . S
C533 C536 1.499 . S
C534 H514 0.950 . S
C534 C533 1.414 . S
C534 C535 1.374 . S
C535 H515 0.950 . S
C535 C531 1.385 . S
C535 C534 1.374 . S
C536 C533 1.499 . S
C536 C537 1.373 . S
C536 C538 1.389 . S
C537 H516 0.950 . S
C537 C536 1.373 . S
C537 C553 1.377 . S
C538 C536 1.389 . S
C538 C539 1.524 . S
C538 C552 1.377 . S
C539 C538 1.524 . S
C539 C540 1.397 . S
C539 C544 1.363 . S
C540 H517 0.950 . S
C540 C539 1.397 . S
C540 C541 1.334 . S
C541 H518 0.950 . S
C541 C540 1.334 . S
C541 C542 1.287 . S
C542 C541 1.287 . S
C542 C543 1.524 . S
C542 H561 0.913 . S
C543 H519 0.950 . S
C543 C542 1.524 . S
C543 C544 1.415 . S
C544 H520 0.950 . S
C544 C539 1.363 . S
C544 C543 1.415 . S
C545 H521 0.951 . S
C545 C546 1.366 . S
C545 C547 1.388 . S
C546 C545 1.366 . S
C546 C550 1.385 . S
C547 H522 0.951 . S
C547 C545 1.388 . S
C547 C548 1.366 . S
C548 C547 1.366 . S
C548 C549 1.414 . S
C548 C551 1.499 . S
C549 H523 0.950 . S
C549 C548 1.414 . S
C549 C550 1.374 . S
C550 H524 0.950 . S
C550 C546 1.385 . S
C550 C549 1.374 . S
C551 C548 1.499 . S
C551 C552 1.373 . S
C551 C553 1.389 . S
C552 H525 0.950 . S
C552 C538 1.377 . S
C552 C551 1.373 . S
C553 C537 1.377 . S
C553 C551 1.389 . S
C553 C554 1.524 . S
C554 C553 1.524 . S
C554 C555 1.397 . S
C554 C559 1.363 . S
C555 H526 0.950 . S
C555 C554 1.397 . S
C555 C556 1.334 . S
C556 H527 0.950 . S
C556 C555 1.334 . S
C556 C557 1.287 . S
C557 C556 1.287 . S
C557 C558 1.524 . S
C557 H560 0.999 . S
C558 H528 0.950 . S
C558 C557 1.524 . S
C558 C559 1.415 . S
C559 H529 0.950 . S
C559 C554 1.363 . S
C559 C558 1.415 . S
H560 C557 0.999 . S
H561 C542 0.913 . S
H562 C580 0.951 . S
H563 C582 0.951 . S
H564 C584 0.950 . S
H565 C585 0.950 . S
H566 C587 0.950 . S
H567 C590 0.950 . S
H568 C591 0.950 . S
H569 C593 0.950 . S
H570 C594 0.950 . S
H571 C595 0.951 . S
H572 C597 0.951 . S
H573 C599 0.950 . S
H574 C600 0.950 . S
H575 C602 0.950 . S
H576 C605 0.950 . S
H577 C606 0.950 . S
H578 C608 0.940 1_545 S
H579 C609 0.950 1_545 S
C580 H562 0.951 . S
C580 C581 1.366 . S
C580 C582 1.388 . S
C581 C580 1.366 . S
C581 C585 1.385 . S
C582 H563 0.951 . S
C582 C580 1.388 . S
C582 C583 1.366 . S
C583 C582 1.366 . S
C583 C584 1.414 . S
C583 C586 1.499 . S
C584 H564 0.950 . S
C584 C583 1.414 . S
C584 C585 1.374 . S
C585 H565 0.950 . S
C585 C581 1.385 . S
C585 C584 1.374 . S
C586 C583 1.499 . S
C586 C587 1.373 . S
C586 C588 1.389 . S
C587 H566 0.950 . S
C587 C586 1.373 . S
C587 C603 1.377 . S
C588 C586 1.389 . S
C588 C589 1.524 . S
C588 C602 1.377 . S
C589 C588 1.524 . S
C589 C590 1.397 . S
C589 C594 1.363 . S
C590 H567 0.950 . S
C590 C589 1.397 . S
C590 C591 1.334 . S
C591 H568 0.950 . S
C591 C590 1.334 . S
C591 C592 1.287 . S
C592 C591 1.287 . S
C592 C593 1.524 . S
C592 H611 0.913 . S
C593 H569 0.950 . S
C593 C592 1.524 . S
C593 C594 1.415 . S
C594 H570 0.950 . S
C594 C589 1.363 . S
C594 C593 1.415 . S
C595 H571 0.951 . S
C595 C596 1.366 . S
C595 C597 1.388 . S
C596 C595 1.366 . S
C596 C600 1.385 1_545 S
C597 H572 0.951 . S
C597 C595 1.388 . S
C597 C598 1.366 1_545 S
C598 C597 1.366 1_565 S
C598 C599 1.414 . S
C598 C601 1.499 . S
C599 H573 0.950 . S
C599 C598 1.414 . S
C599 C600 1.374 . S
C600 H574 0.950 . S
C600 C596 1.385 1_565 S
C600 C599 1.374 . S
C601 C598 1.499 . S
C601 C602 1.373 . S
C601 C603 1.389 . S
C602 H575 0.950 . S
C602 C588 1.377 . S
C602 C601 1.373 . S
C603 C587 1.377 . S
C603 C601 1.389 . S
C603 C604 1.524 . S
C604 C603 1.524 . S
C604 C605 1.397 . S
C604 C609 1.363 . S
C605 H576 0.950 . S
C605 C604 1.397 . S
C605 C606 1.334 . S
C606 H577 0.950 . S
C606 C605 1.334 . S
C606 C607 1.287 . S
C607 C606 1.287 . S
C607 C608 1.528 . S
C607 H610 0.999 . S
C608 H578 0.940 1_565 S
C608 C607 1.528 . S
C608 C609 1.422 . S
C609 H579 0.950 1_565 S
C609 C604 1.363 . S
C609 C608 1.422 . S
H610 C607 0.999 . S
H611 C592 0.913 . S
H612 C630 0.951 . S
H613 C632 0.951 . S
H614 C634 0.950 . S
H615 C635 0.950 . S
H616 C637 0.950 . S
H617 C640 0.950 . S
H618 C641 0.938 1_554 S
H619 C643 0.950 . S
H620 C644 0.950 . S
H621 C645 0.951 . S
H622 C647 0.951 . S
H623 C649 0.950 . S
H624 C650 0.950 . S
H625 C652 0.950 . S
H626 C655 0.950 . S
H627 C656 0.950 . S
H628 C658 0.950 . S
H629 C659 0.950 . S
C630 H612 0.951 . S
C630 C631 1.366 . S
C630 C632 1.388 . S
C631 C630 1.366 . S
C631 C635 1.385 . S
C632 H613 0.951 . S
C632 C630 1.388 . S
C632 C633 1.366 . S
C633 C632 1.366 . S
C633 C634 1.414 . S
C633 C636 1.499 . S
C634 H614 0.950 . S
C634 C633 1.414 . S
C634 C635 1.374 . S
C635 H615 0.950 . S
C635 C631 1.385 . S
C635 C634 1.374 . S
C636 C633 1.499 . S
C636 C637 1.373 . S
C636 C638 1.389 . S
C637 H616 0.950 . S
C637 C636 1.373 . S
C637 C653 1.377 . S
C638 C636 1.389 . S
C638 C639 1.524 . S
C638 C652 1.377 . S
C639 C638 1.524 . S
C639 C640 1.397 . S
C639 C644 1.363 . S
C640 H617 0.950 . S
C640 C639 1.397 . S
C640 C641 1.334 . S
C641 H618 0.938 1_556 S
C641 C640 1.334 . S
C641 C642 1.287 . S
C642 C641 1.287 . S
C642 C643 1.524 . S
C642 H661 0.913 1_556 S
C643 H619 0.950 . S
C643 C642 1.524 . S
C643 C644 1.415 . S
C644 H620 0.950 . S
C644 C639 1.363 . S
C644 C643 1.415 . S
C645 H621 0.951 . S
C645 C646 1.366 . S
C645 C647 1.388 . S
C646 C645 1.366 . S
C646 C650 1.385 . S
C647 H622 0.951 . S
C647 C645 1.388 . S
C647 C648 1.366 . S
C648 C647 1.366 . S
C648 C649 1.414 . S
C648 C651 1.499 . S
C649 H623 0.950 . S
C649 C648 1.414 . S
C649 C650 1.374 . S
C650 H624 0.950 . S
C650 C646 1.385 . S
C650 C649 1.374 . S
C651 C648 1.499 . S
C651 C652 1.373 . S
C651 C653 1.389 . S
C652 H625 0.950 . S
C652 C638 1.377 . S
C652 C651 1.373 . S
C653 C637 1.377 . S
C653 C651 1.389 . S
C653 C654 1.524 . S
C654 C653 1.524 . S
C654 C655 1.397 . S
C654 C659 1.363 . S
C655 H626 0.950 . S
C655 C654 1.397 . S
C655 C656 1.334 . S
C656 H627 0.950 . S
C656 C655 1.334 . S
C656 C657 1.287 . S
C657 C656 1.287 . S
C657 C658 1.524 . S
C657 H660 0.999 . S
C658 H628 0.950 . S
C658 C657 1.524 . S
C658 C659 1.415 . S
C659 H629 0.950 . S
C659 C654 1.363 . S
C659 C658 1.415 . S
H660 C657 0.999 . S
H661 C642 0.913 1_554 S
H662 C680 0.951 . S
H663 C682 0.951 . S
H664 C684 0.950 . S
H665 C685 0.950 . S
H666 C687 0.950 . S
H667 C690 0.950 . S
H668 C691 0.950 . S
H669 C693 0.950 . S
H670 C694 0.950 . S
H671 C695 0.951 . S
H672 C697 0.951 . S
H673 C699 0.950 . S
H674 C700 0.950 . S
H675 C702 0.950 . S
H676 C705 0.950 . S
H677 C706 0.950 . S
H678 C708 0.950 . S
H679 C709 0.950 . S
C680 H662 0.951 . S
C680 C681 1.366 . S
C680 C682 1.388 . S
C681 C680 1.366 . S
C681 C685 1.385 . S
C682 H663 0.951 . S
C682 C680 1.388 . S
C682 C683 1.366 . S
C683 C682 1.366 . S
C683 C684 1.414 . S
C683 C686 1.499 . S
C684 H664 0.950 . S
C684 C683 1.414 . S
C684 C685 1.374 . S
C685 H665 0.950 . S
C685 C681 1.385 . S
C685 C684 1.374 . S
C686 C683 1.499 . S
C686 C687 1.373 . S
C686 C688 1.389 . S
C687 H666 0.950 . S
C687 C686 1.373 . S
C687 C703 1.377 . S
C688 C686 1.389 . S
C688 C689 1.524 . S
C688 C702 1.377 . S
C689 C688 1.524 . S
C689 C690 1.397 . S
C689 C694 1.363 . S
C690 H667 0.950 . S
C690 C689 1.397 . S
C690 C691 1.334 . S
C691 H668 0.950 . S
C691 C690 1.334 . S
C691 C692 1.287 . S
C692 C691 1.287 . S
C692 C693 1.524 . S
C692 H711 0.913 . S
C693 H669 0.950 . S
C693 C692 1.524 . S
C693 C694 1.415 . S
C694 H670 0.950 . S
C694 C689 1.363 . S
C694 C693 1.415 . S
C695 H671 0.951 . S
C695 C696 1.366 . S
C695 C697 1.388 . S
C696 C695 1.366 . S
C696 C700 1.385 . S
C697 H672 0.951 . S
C697 C695 1.388 . S
C697 C698 1.366 . S
C698 C697 1.366 . S
C698 C699 1.414 . S
C698 C701 1.499 . S
C699 H673 0.950 . S
C699 C698 1.414 . S
C699 C700 1.374 . S
C700 H674 0.950 . S
C700 C696 1.385 . S
C700 C699 1.374 . S
C701 C698 1.499 . S
C701 C702 1.373 . S
C701 C703 1.389 . S
C702 H675 0.950 . S
C702 C688 1.377 . S
C702 C701 1.373 . S
C703 C687 1.377 . S
C703 C701 1.389 . S
C703 C704 1.524 . S
C704 C703 1.524 . S
C704 C705 1.397 . S
C704 C709 1.363 . S
C705 H676 0.950 . S
C705 C704 1.397 . S
C705 C706 1.334 . S
C706 H677 0.950 . S
C706 C705 1.334 . S
C706 C707 1.287 . S
C707 C706 1.287 . S
C707 C708 1.524 . S
C707 H710 0.999 . S
C708 H678 0.950 . S
C708 C707 1.524 . S
C708 C709 1.415 . S
C709 H679 0.950 . S
C709 C704 1.363 . S
C709 C708 1.415 . S
H710 C707 0.999 . S
H711 C692 0.913 . S
H712 C730 0.951 . S
H713 C732 0.951 . S
H714 C734 0.950 . S
H715 C735 0.950 . S
H716 C737 0.950 . S
H717 C740 0.950 . S
H718 C741 0.950 . S
H719 C743 0.950 . S
H720 C744 0.950 . S
H721 C745 0.951 . S
H722 C747 0.951 . S
H723 C749 0.950 . S
H724 C750 0.950 . S
H725 C752 0.950 . S
H726 C755 0.950 . S
H727 C756 0.950 . S
H728 C758 0.950 . S
H729 C759 0.950 . S
C730 H712 0.951 . S
C730 C731 1.366 . S
C730 C732 1.388 . S
C731 C730 1.366 . S
C731 C735 1.385 . S
C732 H713 0.951 . S
C732 C730 1.388 . S
C732 C733 1.366 . S
C733 C732 1.366 . S
C733 C734 1.414 . S
C733 C736 1.499 . S
C734 H714 0.950 . S
C734 C733 1.414 . S
C734 C735 1.374 . S
C735 H715 0.950 . S
C735 C731 1.385 . S
C735 C734 1.374 . S
C736 C733 1.499 . S
C736 C737 1.373 . S
C736 C738 1.389 . S
C737 H716 0.950 . S
C737 C736 1.373 . S
C737 C753 1.377 . S
C738 C736 1.389 . S
C738 C739 1.524 . S
C738 C752 1.377 . S
C739 C738 1.524 . S
C739 C740 1.397 . S
C739 C744 1.363 . S
C740 H717 0.950 . S
C740 C739 1.397 . S
C740 C741 1.334 . S
C741 H718 0.950 . S
C741 C740 1.334 . S
C741 C742 1.287 . S
C742 C741 1.287 . S
C742 C743 1.524 . S
C742 H761 0.913 . S
C743 H719 0.950 . S
C743 C742 1.524 . S
C743 C744 1.415 . S
C744 H720 0.950 . S
C744 C739 1.363 . S
C744 C743 1.415 . S
C745 H721 0.951 . S
C745 C746 1.366 . S
C745 C747 1.388 . S
C746 C745 1.366 . S
C746 C750 1.385 . S
C747 H722 0.951 . S
C747 C745 1.388 . S
C747 C748 1.366 . S
C748 C747 1.366 . S
C748 C749 1.414 . S
C748 C751 1.499 . S
C749 H723 0.950 . S
C749 C748 1.414 . S
C749 C750 1.374 . S
C750 H724 0.950 . S
C750 C746 1.385 . S
C750 C749 1.374 . S
C751 C748 1.499 . S
C751 C752 1.373 . S
C751 C753 1.389 . S
C752 H725 0.950 . S
C752 C738 1.377 . S
C752 C751 1.373 . S
C753 C737 1.377 . S
C753 C751 1.389 . S
C753 C754 1.524 . S
C754 C753 1.524 . S
C754 C755 1.397 . S
C754 C759 1.363 . S
C755 H726 0.950 . S
C755 C754 1.397 . S
C755 C756 1.334 . S
C756 H727 0.950 . S
C756 C755 1.334 . S
C756 C757 1.287 . S
C757 C756 1.287 . S
C757 C758 1.524 . S
C757 H760 0.999 . S
C758 H728 0.950 . S
C758 C757 1.524 . S
C758 C759 1.415 . S
C759 H729 0.950 . S
C759 C754 1.363 . S
C759 C758 1.415 . S
H760 C757 0.999 . S
H761 C742 0.913 . S
H762 C780 0.951 . S
H763 C782 0.951 . S
H764 C784 0.950 . S
H765 C785 0.950 . S
H766 C787 0.950 . S
H767 C790 0.950 . S
H768 C791 0.950 . S
H769 C793 0.950 . S
H770 C794 0.950 . S
H771 C795 0.951 . S
H772 C797 0.951 1_556 S
H773 C799 0.950 . S
H774 C800 0.950 . S
H775 C802 0.913 1_554 S
H776 C805 0.950 . S
H777 C806 0.950 . S
H778 C808 0.950 . S
H779 C809 0.950 . S
C780 H762 0.951 . S
C780 C781 1.366 . S
C780 C782 1.388 . S
C781 C780 1.366 . S
C781 C785 1.385 . S
C782 H763 0.951 . S
C782 C780 1.388 . S
C782 C783 1.366 . S
C783 C782 1.366 . S
C783 C784 1.414 . S
C783 C786 1.499 . S
C784 H764 0.950 . S
C784 C783 1.414 . S
C784 C785 1.374 . S
C785 H765 0.950 . S
C785 C781 1.385 . S
C785 C784 1.374 . S
C786 C783 1.499 . S
C786 C787 1.373 . S
C786 C788 1.389 . S
C787 H766 0.950 . S
C787 C786 1.373 . S
C787 C803 1.377 . S
C788 C786 1.389 . S
C788 C789 1.524 1_556 S
C788 C802 1.396 . S
C789 C788 1.524 1_554 S
C789 C790 1.397 . S
C789 C794 1.363 . S
C790 H767 0.950 . S
C790 C789 1.397 . S
C790 C791 1.334 . S
C791 H768 0.950 . S
C791 C790 1.334 . S
C791 C792 1.287 . S
C792 C791 1.287 . S
C792 C793 1.524 . S
C792 H811 0.913 . S
C793 H769 0.950 . S
C793 C792 1.524 . S
C793 C794 1.415 . S
C794 H770 0.950 . S
C794 C789 1.363 . S
C794 C793 1.415 . S
C795 H771 0.951 . S
C795 C796 1.366 . S
C795 C797 1.388 . S
C796 C795 1.366 . S
C796 C800 1.385 . S
C797 H772 0.951 1_554 S
C797 C795 1.388 . S
C797 C798 1.366 1_554 S
C798 C797 1.366 1_556 S
C798 C799 1.415 1_556 S
C798 C801 1.497 . S
C799 H773 0.950 . S
C799 C798 1.415 1_554 S
C799 C800 1.374 . S
C800 H774 0.950 . S
C800 C796 1.385 . S
C800 C799 1.374 . S
C801 C798 1.497 . S
C801 C802 1.392 . S
C801 C803 1.389 . S
C802 H775 0.913 1_556 S
C802 C788 1.396 . S
C802 C801 1.392 . S
C803 C787 1.377 . S
C803 C801 1.389 . S
C803 C804 1.524 . S
C804 C803 1.524 . S
C804 C805 1.397 . S
C804 C809 1.363 . S
C805 H776 0.950 . S
C805 C804 1.397 . S
C805 C806 1.334 . S
C806 H777 0.950 . S
C806 C805 1.334 . S
C806 C807 1.287 . S
C807 C806 1.287 . S
C807 C808 1.524 . S
C807 H810 0.999 . S
C808 H778 0.950 . S
C808 C807 1.524 . S
C808 C809 1.415 . S
C809 H779 0.950 . S
C809 C804 1.363 . S
C809 C808 1.415 . S
H810 C807 0.999 . S
H811 C792 0.913 . S
H812 C830 0.951 . S
H813 C832 0.951 . S
H814 C834 0.950 . S
H815 C835 0.950 . S
H816 C837 0.950 . S
H817 C840 0.950 . S
H818 C841 0.950 . S
H819 C843 0.950 . S
H820 C844 0.950 . S
H821 C845 0.951 . S
H822 C847 0.951 . S
H823 C849 0.950 . S
H824 C850 0.950 . S
H825 C852 0.950 . S
H826 C855 0.950 . S
H827 C856 0.950 . S
H828 C858 0.947 1_455 S
H829 C859 0.950 . S
C830 H812 0.951 . S
C830 C831 1.366 . S
C830 C832 1.388 . S
C831 C830 1.366 . S
C831 C835 1.385 . S
C832 H813 0.951 . S
C832 C830 1.388 . S
C832 C833 1.366 . S
C833 C832 1.366 . S
C833 C834 1.414 . S
C833 C836 1.499 . S
C834 H814 0.950 . S
C834 C833 1.414 . S
C834 C835 1.374 . S
C835 H815 0.950 . S
C835 C831 1.385 . S
C835 C834 1.374 . S
C836 C833 1.499 . S
C836 C837 1.373 . S
C836 C838 1.389 . S
C837 H816 0.950 . S
C837 C836 1.373 . S
C837 C853 1.377 . S
C838 C836 1.389 . S
C838 C839 1.524 . S
C838 C852 1.377 . S
C839 C838 1.524 . S
C839 C840 1.397 . S
C839 C844 1.363 . S
C840 H817 0.950 . S
C840 C839 1.397 . S
C840 C841 1.334 . S
C841 H818 0.950 . S
C841 C840 1.334 . S
C841 C842 1.287 . S
C842 C841 1.287 . S
C842 C843 1.524 . S
C842 H861 0.913 . S
C843 H819 0.950 . S
C843 C842 1.524 . S
C843 C844 1.415 . S
C844 H820 0.950 . S
C844 C839 1.363 . S
C844 C843 1.415 . S
C845 H821 0.951 . S
C845 C846 1.366 . S
C845 C847 1.388 . S
C846 C845 1.366 . S
C846 C850 1.385 . S
C847 H822 0.951 . S
C847 C845 1.388 . S
C847 C848 1.366 . S
C848 C847 1.366 . S
C848 C849 1.414 . S
C848 C851 1.499 . S
C849 H823 0.950 . S
C849 C848 1.414 . S
C849 C850 1.374 . S
C850 H824 0.950 . S
C850 C846 1.385 . S
C850 C849 1.374 . S
C851 C848 1.499 . S
C851 C852 1.373 . S
C851 C853 1.389 . S
C852 H825 0.950 . S
C852 C838 1.377 . S
C852 C851 1.373 . S
C853 C837 1.377 . S
C853 C851 1.389 . S
C853 C854 1.524 . S
C854 C853 1.524 . S
C854 C855 1.397 . S
C854 C859 1.363 . S
C855 H826 0.950 . S
C855 C854 1.397 . S
C855 C856 1.334 1_655 S
C856 H827 0.950 . S
C856 C855 1.334 1_455 S
C856 C857 1.287 . S
C857 C856 1.287 . S
C857 C858 1.494 1_455 S
C857 H860 0.999 . S
C858 H828 0.947 1_655 S
C858 C857 1.494 1_655 S
C858 C859 1.449 . S
C859 H829 0.950 . S
C859 C854 1.363 . S
C859 C858 1.449 . S
H860 C857 0.999 . S
H861 C842 0.913 . S
H862 C880 0.951 . S
H863 C882 0.951 . S
H864 C884 0.950 . S
H865 C885 0.950 . S
H866 C887 0.950 . S
H867 C890 0.950 . S
H868 C891 0.950 . S
H869 C893 0.950 . S
H870 C894 0.950 . S
H871 C895 0.951 . S
H872 C897 0.951 . S
H873 C899 0.950 . S
H874 C900 0.950 . S
H875 C902 0.950 . S
H876 C905 0.950 . S
H877 C906 0.950 . S
H878 C908 0.950 . S
H879 C909 0.950 . S
C880 H862 0.951 . S
C880 C881 1.366 . S
C880 C882 1.388 . S
C881 C880 1.366 . S
C881 C885 1.385 . S
C882 H863 0.951 . S
C882 C880 1.388 . S
C882 C883 1.366 . S
C883 C882 1.366 . S
C883 C884 1.414 . S
C883 C886 1.499 . S
C884 H864 0.950 . S
C884 C883 1.414 . S
C884 C885 1.374 . S
C885 H865 0.950 . S
C885 C881 1.385 . S
C885 C884 1.374 . S
C886 C883 1.499 . S
C886 C887 1.373 . S
C886 C888 1.389 . S
C887 H866 0.950 . S
C887 C886 1.373 . S
C887 C903 1.377 . S
C888 C886 1.389 . S
C888 C889 1.524 . S
C888 C902 1.377 . S
C889 C888 1.524 . S
C889 C890 1.397 . S
C889 C894 1.363 . S
C890 H867 0.950 . S
C890 C889 1.397 . S
C890 C891 1.334 . S
C891 H868 0.950 . S
C891 C890 1.334 . S
C891 C892 1.287 . S
C892 C891 1.287 . S
C892 C893 1.524 . S
C892 H911 0.913 . S
C893 H869 0.950 . S
C893 C892 1.524 . S
C893 C894 1.415 . S
C894 H870 0.950 . S
C894 C889 1.363 . S
C894 C893 1.415 . S
C895 H871 0.951 . S
C895 C896 1.366 . S
C895 C897 1.388 . S
C896 C895 1.366 . S
C896 C900 1.385 . S
C897 H872 0.951 . S
C897 C895 1.388 . S
C897 C898 1.366 . S
C898 C897 1.366 . S
C898 C899 1.414 . S
C898 C901 1.499 . S
C899 H873 0.950 . S
C899 C898 1.414 . S
C899 C900 1.374 . S
C900 H874 0.950 . S
C900 C896 1.385 . S
C900 C899 1.374 . S
C901 C898 1.499 . S
C901 C902 1.373 . S
C901 C903 1.389 . S
C902 H875 0.950 . S
C902 C888 1.377 . S
C902 C901 1.373 . S
C903 C887 1.377 . S
C903 C901 1.389 . S
C903 C904 1.524 . S
C904 C903 1.524 . S
C904 C905 1.397 . S
C904 C909 1.363 . S
C905 H876 0.950 . S
C905 C904 1.397 . S
C905 C906 1.334 . S
C906 H877 0.950 . S
C906 C905 1.334 . S
C906 C907 1.287 . S
C907 C906 1.287 . S
C907 C908 1.524 . S
C907 H910 0.999 . S
C908 H878 0.950 . S
C908 C907 1.524 . S
C908 C909 1.415 . S
C909 H879 0.950 . S
C909 C904 1.363 . S
C909 C908 1.415 . S
H910 C907 0.999 . S
H911 C892 0.913 . S
H912 C930 0.951 . S
H913 C932 0.951 . S
H914 C934 0.950 . S
H915 C935 0.950 . S
H916 C937 0.950 . S
H917 C940 0.950 . S
H918 C941 0.950 . S
H919 C943 0.950 . S
H920 C944 0.950 . S
H921 C945 0.951 . S
H922 C947 0.951 . S
H923 C949 0.950 . S
H924 C950 0.950 . S
H925 C952 0.950 . S
H926 C955 0.950 . S
H927 C956 0.950 . S
H928 C958 0.950 . S
H929 C959 0.950 . S
C930 H912 0.951 . S
C930 C931 1.366 . S
C930 C932 1.388 . S
C931 C930 1.366 . S
C931 C935 1.385 . S
C932 H913 0.951 . S
C932 C930 1.388 . S
C932 C933 1.366 . S
C933 C932 1.366 . S
C933 C934 1.414 . S
C933 C936 1.499 . S
C934 H914 0.950 . S
C934 C933 1.414 . S
C934 C935 1.374 . S
C935 H915 0.950 . S
C935 C931 1.385 . S
C935 C934 1.374 . S
C936 C933 1.499 . S
C936 C937 1.373 . S
C936 C938 1.389 . S
C937 H916 0.950 . S
C937 C936 1.373 . S
C937 C953 1.377 . S
C938 C936 1.389 . S
C938 C939 1.524 . S
C938 C952 1.377 . S
C939 C938 1.524 . S
C939 C940 1.397 . S
C939 C944 1.363 . S
C940 H917 0.950 . S
C940 C939 1.397 . S
C940 C941 1.334 . S
C941 H918 0.950 . S
C941 C940 1.334 . S
C941 C942 1.287 . S
C942 C941 1.287 . S
C942 C943 1.524 . S
C942 H961 0.913 . S
C943 H919 0.950 . S
C943 C942 1.524 . S
C943 C944 1.415 . S
C944 H920 0.950 . S
C944 C939 1.363 . S
C944 C943 1.415 . S
C945 H921 0.951 . S
C945 C946 1.366 . S
C945 C947 1.388 . S
C946 C945 1.366 . S
C946 C950 1.385 . S
C947 H922 0.951 . S
C947 C945 1.388 . S
C947 C948 1.366 . S
C948 C947 1.366 . S
C948 C949 1.414 . S
C948 C951 1.499 . S
C949 H923 0.950 . S
C949 C948 1.414 . S
C949 C950 1.374 . S
C950 H924 0.950 . S
C950 C946 1.385 . S
C950 C949 1.374 . S
C951 C948 1.499 . S
C951 C952 1.373 . S
C951 C953 1.389 . S
C952 H925 0.950 . S
C952 C938 1.377 . S
C952 C951 1.373 . S
C953 C937 1.377 . S
C953 C951 1.389 . S
C953 C954 1.524 . S
C954 C953 1.524 . S
C954 C955 1.397 . S
C954 C959 1.363 . S
C955 H926 0.950 . S
C955 C954 1.397 . S
C955 C956 1.334 . S
C956 H927 0.950 . S
C956 C955 1.334 . S
C956 C957 1.287 . S
C957 C956 1.287 . S
C957 C958 1.524 . S
C957 H960 0.999 . S
C958 H928 0.950 . S
C958 C957 1.524 . S
C958 C959 1.415 . S
C959 H929 0.950 . S
C959 C954 1.363 . S
C959 C958 1.415 . S
H960 C957 0.999 . S
H961 C942 0.913 . S
H962 C980 0.951 . S
H963 C982 0.951 . S
H964 C984 0.950 . S
H965 C985 0.950 . S
H966 C987 0.950 . S
H967 C990 0.950 . S
H968 C991 0.950 . S
H969 C993 0.950 . S
H970 C994 0.950 . S
H971 C995 0.951 . S
H972 C997 0.951 . S
H973 C999 0.950 . S
H974 C1000 0.950 . S
H975 C1002 0.950 . S
H976 C1005 0.950 . S
H977 C1006 0.950 . S
H978 C1008 0.950 . S
H979 C1009 0.950 . S
C980 H962 0.951 . S
C980 C981 1.366 . S
C980 C982 1.388 . S
C981 C980 1.366 . S
C981 C985 1.385 . S
C982 H963 0.951 . S
C982 C980 1.388 . S
C982 C983 1.366 . S
C983 C982 1.366 . S
C983 C984 1.414 . S
C983 C986 1.499 . S
C984 H964 0.950 . S
C984 C983 1.414 . S
C984 C985 1.374 . S
C985 H965 0.950 . S
C985 C981 1.385 . S
C985 C984 1.374 . S
C986 C983 1.499 . S
C986 C987 1.373 . S
C986 C988 1.389 . S
C987 H966 0.950 . S
C987 C986 1.373 . S
C987 C1003 1.377 . S
C988 C986 1.389 . S
C988 C989 1.524 . S
C988 C1002 1.377 . S
C989 C988 1.524 . S
C989 C990 1.397 . S
C989 C994 1.363 . S
C990 H967 0.950 . S
C990 C989 1.397 . S
C990 C991 1.334 . S
C991 H968 0.950 . S
C991 C990 1.334 . S
C991 C992 1.287 . S
C992 C991 1.287 . S
C992 C993 1.524 . S
C992 H1011 0.913 . S
C993 H969 0.950 . S
C993 C992 1.524 . S
C993 C994 1.415 . S
C994 H970 0.950 . S
C994 C989 1.363 . S
C994 C993 1.415 . S
C995 H971 0.951 . S
C995 C996 1.366 . S
C995 C997 1.388 . S
C996 C995 1.366 . S
C996 C1000 1.385 . S
C997 H972 0.951 . S
C997 C995 1.388 . S
C997 C998 1.366 . S
C998 C997 1.366 . S
C998 C999 1.414 . S
C998 C1001 1.499 . S
C999 H973 0.950 . S
C999 C998 1.414 . S
C999 C1000 1.374 . S
C1000 H974 0.950 . S
C1000 C996 1.385 . S
C1000 C999 1.374 . S
C1001 C998 1.499 . S
C1001 C1002 1.373 . S
C1001 C1003 1.389 . S
C1002 H975 0.950 . S
C1002 C988 1.377 . S
C1002 C1001 1.373 . S
C1003 C987 1.377 . S
C1003 C1001 1.389 . S
C1003 C1004 1.524 . S
C1004 C1003 1.524 . S
C1004 C1005 1.397 . S
C1004 C1009 1.363 . S
C1005 H976 0.950 . S
C1005 C1004 1.397 . S
C1005 C1006 1.334 . S
C1006 H977 0.950 . S
C1006 C1005 1.334 . S
C1006 C1007 1.287 . S
C1007 C1006 1.287 . S
C1007 C1008 1.524 . S
C1007 H1010 0.999 . S
C1008 H978 0.950 . S
C1008 C1007 1.524 . S
C1008 C1009 1.415 . S
C1009 H979 0.950 . S
C1009 C1004 1.363 . S
C1009 C1008 1.415 . S
H1010 C1007 0.999 . S
H1011 C992 0.913 . S
H1012 C1030 0.951 . S
H1013 C1032 0.951 . S
H1014 C1034 0.950 . S
H1015 C1035 0.950 . S
H1016 C1037 0.950 . S
H1017 C1040 0.950 . S
H1018 C1041 0.950 . S
H1019 C1043 0.950 . S
H1020 C1044 0.950 . S
H1021 C1045 0.951 . S
H1022 C1047 0.951 . S
H1023 C1049 0.950 . S
H1024 C1050 0.950 . S
H1025 C1052 0.950 . S
H1026 C1055 0.950 . S
H1027 C1056 0.950 . S
H1028 C1058 0.950 . S
H1029 C1059 0.950 . S
C1030 H1012 0.951 . S
C1030 C1031 1.366 . S
C1030 C1032 1.388 . S
C1031 C1030 1.366 . S
C1031 C1035 1.385 . S
C1032 H1013 0.951 . S
C1032 C1030 1.388 . S
C1032 C1033 1.366 . S
C1033 C1032 1.366 . S
C1033 C1034 1.414 . S
C1033 C1036 1.499 . S
C1034 H1014 0.950 . S
C1034 C1033 1.414 . S
C1034 C1035 1.374 . S
C1035 H1015 0.950 . S
C1035 C1031 1.385 . S
C1035 C1034 1.374 . S
C1036 C1033 1.499 . S
C1036 C1037 1.373 . S
C1036 C1038 1.389 . S
C1037 H1016 0.950 . S
C1037 C1036 1.373 . S
C1037 C1053 1.377 . S
C1038 C1036 1.389 . S
C1038 C1039 1.524 . S
C1038 C1052 1.377 . S
C1039 C1038 1.524 . S
C1039 C1040 1.397 . S
C1039 C1044 1.363 . S
C1040 H1017 0.950 . S
C1040 C1039 1.397 . S
C1040 C1041 1.334 . S
C1041 H1018 0.950 . S
C1041 C1040 1.334 . S
C1041 C1042 1.287 . S
C1042 C1041 1.287 . S
C1042 C1043 1.524 . S
C1042 H1061 0.913 . S
C1043 H1019 0.950 . S
C1043 C1042 1.524 . S
C1043 C1044 1.415 . S
C1044 H1020 0.950 . S
C1044 C1039 1.363 . S
C1044 C1043 1.415 . S
C1045 H1021 0.951 . S
C1045 C1046 1.366 . S
C1045 C1047 1.388 . S
C1046 C1045 1.366 . S
C1046 C1050 1.385 . S
C1047 H1022 0.951 . S
C1047 C1045 1.388 . S
C1047 C1048 1.366 . S
C1048 C1047 1.366 . S
C1048 C1049 1.414 . S
C1048 C1051 1.499 . S
C1049 H1023 0.950 . S
C1049 C1048 1.414 . S
C1049 C1050 1.374 . S
C1050 H1024 0.950 . S
C1050 C1046 1.385 . S
C1050 C1049 1.374 . S
C1051 C1048 1.499 . S
C1051 C1052 1.373 . S
C1051 C1053 1.389 . S
C1052 H1025 0.950 . S
C1052 C1038 1.377 . S
C1052 C1051 1.373 . S
C1053 C1037 1.377 . S
C1053 C1051 1.389 . S
C1053 C1054 1.524 . S
C1054 C1053 1.524 . S
C1054 C1055 1.397 . S
C1054 C1059 1.363 . S
C1055 H1026 0.950 . S
C1055 C1054 1.397 . S
C1055 C1056 1.334 . S
C1056 H1027 0.950 . S
C1056 C1055 1.334 . S
C1056 C1057 1.287 . S
C1057 C1056 1.287 . S
C1057 C1058 1.524 . S
C1057 H1060 0.999 . S
C1058 H1028 0.950 . S
C1058 C1057 1.524 . S
C1058 C1059 1.415 . S
C1059 H1029 0.950 . S
C1059 C1054 1.363 . S
C1059 C1058 1.415 . S
H1060 C1057 0.999 . S
H1061 C1042 0.913 . S
H1062 C1080 0.951 . S
H1063 C1082 0.951 . S
H1064 C1084 0.950 . S
H1065 C1085 0.950 . S
H1066 C1087 0.950 . S
H1067 C1090 0.950 . S
H1068 C1091 0.950 . S
H1069 C1093 0.950 . S
H1070 C1094 0.950 . S
H1071 C1095 0.951 . S
H1072 C1097 0.951 . S
H1073 C1099 0.950 . S
H1074 C1100 0.950 . S
H1075 C1102 0.950 . S
H1076 C1105 0.950 . S
H1077 C1106 0.950 . S
H1078 C1108 0.950 . S
H1079 C1109 0.950 . S
C1080 H1062 0.951 . S
C1080 C1081 1.366 . S
C1080 C1082 1.388 . S
C1081 C1080 1.366 . S
C1081 C1085 1.385 . S
C1082 H1063 0.951 . S
C1082 C1080 1.388 . S
C1082 C1083 1.366 . S
C1083 C1082 1.366 . S
C1083 C1084 1.414 . S
C1083 C1086 1.499 . S
C1084 H1064 0.950 . S
C1084 C1083 1.414 . S
C1084 C1085 1.374 . S
C1085 H1065 0.950 . S
C1085 C1081 1.385 . S
C1085 C1084 1.374 . S
C1086 C1083 1.499 . S
C1086 C1087 1.373 . S
C1086 C1088 1.389 . S
C1087 H1066 0.950 . S
C1087 C1086 1.373 . S
C1087 C1103 1.377 . S
C1088 C1086 1.389 . S
C1088 C1089 1.524 . S
C1088 C1102 1.377 . S
C1089 C1088 1.524 . S
C1089 C1090 1.397 . S
C1089 C1094 1.363 . S
C1090 H1067 0.950 . S
C1090 C1089 1.397 . S
C1090 C1091 1.334 . S
C1091 H1068 0.950 . S
C1091 C1090 1.334 . S
C1091 C1092 1.287 . S
C1092 C1091 1.287 . S
C1092 C1093 1.524 . S
C1092 H1111 0.913 . S
C1093 H1069 0.950 . S
C1093 C1092 1.524 . S
C1093 C1094 1.415 . S
C1094 H1070 0.950 . S
C1094 C1089 1.363 . S
C1094 C1093 1.415 . S
C1095 H1071 0.951 . S
C1095 C1096 1.366 . S
C1095 C1097 1.388 . S
C1096 C1095 1.366 . S
C1096 C1100 1.385 . S
C1097 H1072 0.951 . S
C1097 C1095 1.388 . S
C1097 C1098 1.366 . S
C1098 C1097 1.366 . S
C1098 C1099 1.414 . S
C1098 C1101 1.499 . S
C1099 H1073 0.950 . S
C1099 C1098 1.414 . S
C1099 C1100 1.374 . S
C1100 H1074 0.950 . S
C1100 C1096 1.385 . S
C1100 C1099 1.374 . S
C1101 C1098 1.499 . S
C1101 C1102 1.373 . S
C1101 C1103 1.389 . S
C1102 H1075 0.950 . S
C1102 C1088 1.377 . S
C1102 C1101 1.373 . S
C1103 C1087 1.377 . S
C1103 C1101 1.389 . S
C1103 C1104 1.524 . S
C1104 C1103 1.524 . S
C1104 C1105 1.397 . S
C1104 C1109 1.363 . S
C1105 H1076 0.950 . S
C1105 C1104 1.397 . S
C1105 C1106 1.334 . S
C1106 H1077 0.950 . S
C1106 C1105 1.334 . S
C1106 C1107 1.287 . S
C1107 C1106 1.287 . S
C1107 C1108 1.524 . S
C1107 H1110 0.999 . S
C1108 H1078 0.950 . S
C1108 C1107 1.524 . S
C1108 C1109 1.415 . S
C1109 H1079 0.950 . S
C1109 C1104 1.363 . S
C1109 C1108 1.415 . S
H1110 C1107 0.999 . S
H1111 C1092 0.913 . S
H1112 C1130 0.951 . S
H1113 C1132 0.951 . S
H1114 C1134 0.950 . S
H1115 C1135 0.950 . S
H1116 C1137 0.950 . S
H1117 C1140 0.950 . S
H1118 C1141 0.950 . S
H1119 C1143 0.950 . S
H1120 C1144 0.950 . S
H1121 C1145 0.924 1_545 S
H1122 C1147 0.951 . S
H1123 C1149 0.950 . S
H1124 C1150 0.950 . S
H1125 C1152 0.950 . S
H1126 C1155 0.950 1_554 S
H1127 C1156 0.950 1_554 S
H1128 C1158 0.950 . S
H1129 C1159 0.950 . S
C1130 H1112 0.951 . S
C1130 C1131 1.366 . S
C1130 C1132 1.388 . S
C1131 C1130 1.366 . S
C1131 C1135 1.385 . S
C1132 H1113 0.951 . S
C1132 C1130 1.388 . S
C1132 C1133 1.366 . S
C1133 C1132 1.366 . S
C1133 C1134 1.414 . S
C1133 C1136 1.499 . S
C1134 H1114 0.950 . S
C1134 C1133 1.414 . S
C1134 C1135 1.374 . S
C1135 H1115 0.950 . S
C1135 C1131 1.385 . S
C1135 C1134 1.374 . S
C1136 C1133 1.499 . S
C1136 C1137 1.373 . S
C1136 C1138 1.389 . S
C1137 H1116 0.950 . S
C1137 C1136 1.373 . S
C1137 C1153 1.377 . S
C1138 C1136 1.389 . S
C1138 C1139 1.524 . S
C1138 C1152 1.377 . S
C1139 C1138 1.524 . S
C1139 C1140 1.397 . S
C1139 C1144 1.363 . S
C1140 H1117 0.950 . S
C1140 C1139 1.397 . S
C1140 C1141 1.334 . S
C1141 H1118 0.950 . S
C1141 C1140 1.334 . S
C1141 C1142 1.287 . S
C1142 C1141 1.287 . S
C1142 C1143 1.524 . S
C1142 H1161 0.913 . S
C1143 H1119 0.950 . S
C1143 C1142 1.524 . S
C1143 C1144 1.415 . S
C1144 H1120 0.950 . S
C1144 C1139 1.363 . S
C1144 C1143 1.415 . S
C1145 H1121 0.924 1_565 S
C1145 C1146 1.366 1_556 S
C1145 C1147 1.388 . S
C1146 C1145 1.366 1_554 S
C1146 C1150 1.385 . S
C1147 H1122 0.951 . S
C1147 C1145 1.388 . S
C1147 C1148 1.366 . S
C1148 C1147 1.366 . S
C1148 C1149 1.414 1_556 S
C1148 C1151 1.499 . S
C1149 H1123 0.950 . S
C1149 C1148 1.414 1_554 S
C1149 C1150 1.374 . S
C1150 H1124 0.950 . S
C1150 C1146 1.385 . S
C1150 C1149 1.374 . S
C1151 C1148 1.499 . S
C1151 C1152 1.373 . S
C1151 C1153 1.389 . S
C1152 H1125 0.950 . S
C1152 C1138 1.377 . S
C1152 C1151 1.373 . S
C1153 C1137 1.377 . S
C1153 C1151 1.389 . S
C1153 C1154 1.524 . S
C1154 C1153 1.524 . S
C1154 C1155 1.397 . S
C1154 C1159 1.363 . S
C1155 H1126 0.950 1_556 S
C1155 C1154 1.397 . S
C1155 C1156 1.334 . S
C1156 H1127 0.950 1_556 S
C1156 C1155 1.334 . S
C1156 C1157 1.287 . S
C1157 C1156 1.287 . S
C1157 C1158 1.524 . S
C1157 H1160 1.023 . S
C1158 H1128 0.950 . S
C1158 C1157 1.524 . S
C1158 C1159 1.415 . S
C1159 H1129 0.950 . S
C1159 C1154 1.363 . S
C1159 C1158 1.415 . S
H1160 C1157 1.023 . S
H1161 C1142 0.913 . S
H1162 C1180 0.951 . S
H1163 C1182 0.951 . S
H1164 C1184 0.950 . S
H1165 C1185 0.950 . S
H1166 C1187 0.950 . S
H1167 C1190 0.950 . S
H1168 C1191 0.950 . S
H1169 C1193 0.950 . S
H1170 C1194 0.950 . S
H1171 C1195 0.951 . S
H1172 C1197 0.951 . S
H1173 C1199 0.950 . S
H1174 C1200 0.950 . S
H1175 C1202 0.950 . S
H1176 C1205 0.950 . S
H1177 C1206 0.950 . S
H1178 C1208 0.950 . S
H1179 C1209 0.950 . S
C1180 H1162 0.951 . S
C1180 C1181 1.366 . S
C1180 C1182 1.388 . S
C1181 C1180 1.366 . S
C1181 C1185 1.385 . S
C1182 H1163 0.951 . S
C1182 C1180 1.388 . S
C1182 C1183 1.366 . S
C1183 C1182 1.366 . S
C1183 C1184 1.414 . S
C1183 C1186 1.499 . S
C1184 H1164 0.950 . S
C1184 C1183 1.414 . S
C1184 C1185 1.374 . S
C1185 H1165 0.950 . S
C1185 C1181 1.385 . S
C1185 C1184 1.374 . S
C1186 C1183 1.499 . S
C1186 C1187 1.373 . S
C1186 C1188 1.389 . S
C1187 H1166 0.950 . S
C1187 C1186 1.373 . S
C1187 C1203 1.377 . S
C1188 C1186 1.389 . S
C1188 C1189 1.524 . S
C1188 C1202 1.377 . S
C1189 C1188 1.524 . S
C1189 C1190 1.397 . S
C1189 C1194 1.363 . S
C1190 H1167 0.950 . S
C1190 C1189 1.397 . S
C1190 C1191 1.334 . S
C1191 H1168 0.950 . S
C1191 C1190 1.334 . S
C1191 C1192 1.287 . S
C1192 C1191 1.287 . S
C1192 C1193 1.524 . S
C1192 H1211 0.913 . S
C1193 H1169 0.950 . S
C1193 C1192 1.524 . S
C1193 C1194 1.415 . S
C1194 H1170 0.950 . S
C1194 C1189 1.363 . S
C1194 C1193 1.415 . S
C1195 H1171 0.951 . S
C1195 C1196 1.366 . S
C1195 C1197 1.388 . S
C1196 C1195 1.366 . S
C1196 C1200 1.385 . S
C1197 H1172 0.951 . S
C1197 C1195 1.388 . S
C1197 C1198 1.366 . S
C1198 C1197 1.366 . S
C1198 C1199 1.414 . S
C1198 C1201 1.499 . S
C1199 H1173 0.950 . S
C1199 C1198 1.414 . S
C1199 C1200 1.374 . S
C1200 H1174 0.950 . S
C1200 C1196 1.385 . S
C1200 C1199 1.374 . S
C1201 C1198 1.499 . S
C1201 C1202 1.373 . S
C1201 C1203 1.389 . S
C1202 H1175 0.950 . S
C1202 C1188 1.377 . S
C1202 C1201 1.373 . S
C1203 C1187 1.377 . S
C1203 C1201 1.389 . S
C1203 C1204 1.524 . S
C1204 C1203 1.524 . S
C1204 C1205 1.397 . S
C1204 C1209 1.363 . S
C1205 H1176 0.950 . S
C1205 C1204 1.397 . S
C1205 C1206 1.334 . S
C1206 H1177 0.950 . S
C1206 C1205 1.334 . S
C1206 C1207 1.287 . S
C1207 C1206 1.287 . S
C1207 C1208 1.524 . S
C1207 H1210 0.999 . S
C1208 H1178 0.950 . S
C1208 C1207 1.524 . S
C1208 C1209 1.415 . S
C1209 H1179 0.950 . S
C1209 C1204 1.363 . S
C1209 C1208 1.415 . S
H1210 C1207 0.999 . S
H1211 C1192 0.913 . S
H1212 C1230 0.951 . S
H1213 C1232 0.951 . S
H1214 C1234 0.950 . S
H1215 C1235 0.950 . S
H1216 C1237 0.950 . S
H1217 C1240 0.950 . S
H1218 C1241 0.950 . S
H1219 C1243 0.950 . S
H1220 C1244 0.950 . S
H1221 C1245 0.951 . S
H1222 C1247 0.951 . S
H1223 C1249 0.950 . S
H1224 C1250 0.950 . S
H1225 C1252 0.950 . S
H1226 C1255 0.950 . S
H1227 C1256 0.950 . S
H1228 C1258 0.950 . S
H1229 C1259 0.950 . S
C1230 H1212 0.951 . S
C1230 C1231 1.366 . S
C1230 C1232 1.388 . S
C1231 C1230 1.366 . S
C1231 C1235 1.385 . S
C1232 H1213 0.951 . S
C1232 C1230 1.388 . S
C1232 C1233 1.366 . S
C1233 C1232 1.366 . S
C1233 C1234 1.414 . S
C1233 C1236 1.499 . S
C1234 H1214 0.950 . S
C1234 C1233 1.414 . S
C1234 C1235 1.374 . S
C1235 H1215 0.950 . S
C1235 C1231 1.385 . S
C1235 C1234 1.374 . S
C1236 C1233 1.499 . S
C1236 C1237 1.373 . S
C1236 C1238 1.389 . S
C1237 H1216 0.950 . S
C1237 C1236 1.373 . S
C1237 C1253 1.377 . S
C1238 C1236 1.389 . S
C1238 C1239 1.524 . S
C1238 C1252 1.377 . S
C1239 C1238 1.524 . S
C1239 C1240 1.397 . S
C1239 C1244 1.363 . S
C1240 H1217 0.950 . S
C1240 C1239 1.397 . S
C1240 C1241 1.334 . S
C1241 H1218 0.950 . S
C1241 C1240 1.334 . S
C1241 C1242 1.287 . S
C1242 C1241 1.287 . S
C1242 C1243 1.524 . S
C1242 H1261 0.913 . S
C1243 H1219 0.950 . S
C1243 C1242 1.524 . S
C1243 C1244 1.415 . S
C1244 H1220 0.950 . S
C1244 C1239 1.363 . S
C1244 C1243 1.415 . S
C1245 H1221 0.951 . S
C1245 C1246 1.366 . S
C1245 C1247 1.388 . S
C1246 C1245 1.366 . S
C1246 C1250 1.385 . S
C1247 H1222 0.951 . S
C1247 C1245 1.388 . S
C1247 C1248 1.366 . S
C1248 C1247 1.366 . S
C1248 C1249 1.414 . S
C1248 C1251 1.499 . S
C1249 H1223 0.950 . S
C1249 C1248 1.414 . S
C1249 C1250 1.374 . S
C1250 H1224 0.950 . S
C1250 C1246 1.385 . S
C1250 C1249 1.374 . S
C1251 C1248 1.499 . S
C1251 C1252 1.373 . S
C1251 C1253 1.389 . S
C1252 H1225 0.950 . S
C1252 C1238 1.377 . S
C1252 C1251 1.373 . S
C1253 C1237 1.377 . S
C1253 C1251 1.389 . S
C1253 C1254 1.524 . S
C1254 C1253 1.524 . S
C1254 C1255 1.397 . S
C1254 C1259 1.363 . S
C1255 H1226 0.950 . S
C1255 C1254 1.397 . S
C1255 C1256 1.334 . S
C1256 H1227 0.950 . S
C1256 C1255 1.334 . S
C1256 C1257 1.287 . S
C1257 C1256 1.287 . S
C1257 C1258 1.524 . S
C1257 H1260 0.999 . S
C1258 H1228 0.950 . S
C1258 C1257 1.524 . S
C1258 C1259 1.415 . S
C1259 H1229 0.950 . S
C1259 C1254 1.363 . S
C1259 C1258 1.415 . S
H1260 C1257 0.999 . S
H1261 C1242 0.913 . S
H1262 C1280 0.951 . S
H1263 C1282 0.951 . S
H1264 C1284 0.950 . S
H1265 C1285 0.950 . S
H1266 C1287 0.950 . S
H1267 C1290 0.950 . S
H1268 C1291 0.950 . S
H1269 C1293 0.950 . S
H1270 C1294 0.950 . S
H1271 C1295 0.951 . S
H1272 C1297 0.951 . S
H1273 C1299 0.950 . S
H1274 C1300 0.950 . S
H1275 C1302 0.950 . S
H1276 C1305 0.950 . S
H1277 C1306 0.950 . S
H1278 C1308 0.950 . S
H1279 C1309 0.950 . S
C1280 H1262 0.951 . S
C1280 C1281 1.366 . S
C1280 C1282 1.388 . S
C1281 C1280 1.366 . S
C1281 C1285 1.385 . S
C1282 H1263 0.951 . S
C1282 C1280 1.388 . S
C1282 C1283 1.366 . S
C1283 C1282 1.366 . S
C1283 C1284 1.414 . S
C1283 C1286 1.499 . S
C1284 H1264 0.950 . S
C1284 C1283 1.414 . S
C1284 C1285 1.374 . S
C1285 H1265 0.950 . S
C1285 C1281 1.385 . S
C1285 C1284 1.374 . S
C1286 C1283 1.499 . S
C1286 C1287 1.373 . S
C1286 C1288 1.389 . S
C1287 H1266 0.950 . S
C1287 C1286 1.373 . S
C1287 C1303 1.377 . S
C1288 C1286 1.389 . S
C1288 C1289 1.524 . S
C1288 C1302 1.377 . S
C1289 C1288 1.524 . S
C1289 C1290 1.397 . S
C1289 C1294 1.363 . S
C1290 H1267 0.950 . S
C1290 C1289 1.397 . S
C1290 C1291 1.334 . S
C1291 H1268 0.950 . S
C1291 C1290 1.334 . S
C1291 C1292 1.287 . S
C1292 C1291 1.287 . S
C1292 C1293 1.524 . S
C1292 H1311 0.913 . S
C1293 H1269 0.950 . S
C1293 C1292 1.524 . S
C1293 C1294 1.415 . S
C1294 H1270 0.950 . S
C1294 C1289 1.363 . S
C1294 C1293 1.415 . S
C1295 H1271 0.951 . S
C1295 C1296 1.366 . S
C1295 C1297 1.388 . S
C1296 C1295 1.366 . S
C1296 C1300 1.385 . S
C1297 H1272 0.951 . S
C1297 C1295 1.388 . S
C1297 C1298 1.366 . S
C1298 C1297 1.366 . S
C1298 C1299 1.414 . S
C1298 C1301 1.499 . S
C1299 H1273 0.950 . S
C1299 C1298 1.414 . S
C1299 C1300 1.374 . S
C1300 H1274 0.950 . S
C1300 C1296 1.385 . S
C1300 C1299 1.374 . S
C1301 C1298 1.499 . S
C1301 C1302 1.373 . S
C1301 C1303 1.389 . S
C1302 H1275 0.950 . S
C1302 C1288 1.377 . S
C1302 C1301 1.373 . S
C1303 C1287 1.377 . S
C1303 C1301 1.389 . S
C1303 C1304 1.524 . S
C1304 C1303 1.524 . S
C1304 C1305 1.397 . S
C1304 C1309 1.363 . S
C1305 H1276 0.950 . S
C1305 C1304 1.397 . S
C1305 C1306 1.334 . S
C1306 H1277 0.950 . S
C1306 C1305 1.334 . S
C1306 C1307 1.287 . S
C1307 C1306 1.287 . S
C1307 C1308 1.524 . S
C1307 H1310 0.999 . S
C1308 H1278 0.950 . S
C1308 C1307 1.524 . S
C1308 C1309 1.415 . S
C1309 H1279 0.950 . S
C1309 C1304 1.363 . S
C1309 C1308 1.415 . S
H1310 C1307 0.999 . S
H1311 C1292 0.913 . S
H1312 C1330 0.951 . S
H1313 C1332 0.951 . S
H1314 C1334 0.950 . S
H1315 C1335 0.950 . S
H1316 C1337 0.950 . S
H1317 C1340 0.950 . S
H1318 C1341 0.950 . S
H1319 C1343 0.950 . S
H1320 C1344 0.950 . S
H1321 C1345 0.951 . S
H1322 C1347 0.951 . S
H1323 C1349 0.950 . S
H1324 C1350 0.950 . S
H1325 C1352 0.950 . S
H1326 C1355 0.950 . S
H1327 C1356 0.950 . S
H1328 C1358 0.950 . S
H1329 C1359 0.950 . S
C1330 H1312 0.951 . S
C1330 C1331 1.366 . S
C1330 C1332 1.388 . S
C1331 C1330 1.366 . S
C1331 C1335 1.385 . S
C1332 H1313 0.951 . S
C1332 C1330 1.388 . S
C1332 C1333 1.366 . S
C1333 C1332 1.366 . S
C1333 C1334 1.414 . S
C1333 C1336 1.499 . S
C1334 H1314 0.950 . S
C1334 C1333 1.414 . S
C1334 C1335 1.374 . S
C1335 H1315 0.950 . S
C1335 C1331 1.385 . S
C1335 C1334 1.374 . S
C1336 C1333 1.499 . S
C1336 C1337 1.373 . S
C1336 C1338 1.389 . S
C1337 H1316 0.950 . S
C1337 C1336 1.373 . S
C1337 C1353 1.377 . S
C1338 C1336 1.389 . S
C1338 C1339 1.524 . S
C1338 C1352 1.377 . S
C1339 C1338 1.524 . S
C1339 C1340 1.397 . S
C1339 C1344 1.363 . S
C1340 H1317 0.950 . S
C1340 C1339 1.397 . S
C1340 C1341 1.334 . S
C1341 H1318 0.950 . S
C1341 C1340 1.334 . S
C1341 C1342 1.287 . S
C1342 C1341 1.287 . S
C1342 C1343 1.524 . S
C1342 H1361 0.913 . S
C1343 H1319 0.950 . S
C1343 C1342 1.524 . S
C1343 C1344 1.415 . S
C1344 H1320 0.950 . S
C1344 C1339 1.363 . S
C1344 C1343 1.415 . S
C1345 H1321 0.951 . S
C1345 C1346 1.366 . S
C1345 C1347 1.388 . S
C1346 C1345 1.366 . S
C1346 C1350 1.385 . S
C1347 H1322 0.951 . S
C1347 C1345 1.388 . S
C1347 C1348 1.366 . S
C1348 C1347 1.366 . S
C1348 C1349 1.414 . S
C1348 C1351 1.499 . S
C1349 H1323 0.950 . S
C1349 C1348 1.414 . S
C1349 C1350 1.374 . S
C1350 H1324 0.950 . S
C1350 C1346 1.385 . S
C1350 C1349 1.374 . S
C1351 C1348 1.499 . S
C1351 C1352 1.373 . S
C1351 C1353 1.389 . S
C1352 H1325 0.950 . S
C1352 C1338 1.377 . S
C1352 C1351 1.373 . S
C1353 C1337 1.377 . S
C1353 C1351 1.389 . S
C1353 C1354 1.524 . S
C1354 C1353 1.524 . S
C1354 C1355 1.397 . S
C1354 C1359 1.363 . S
C1355 H1326 0.950 . S
C1355 C1354 1.397 . S
C1355 C1356 1.334 . S
C1356 H1327 0.950 . S
C1356 C1355 1.334 . S
C1356 C1357 1.287 . S
C1357 C1356 1.287 . S
C1357 C1358 1.524 . S
C1357 H1360 0.999 1_556 S
C1358 H1328 0.950 . S
C1358 C1357 1.524 . S
C1358 C1359 1.415 . S
C1359 H1329 0.950 . S
C1359 C1354 1.363 . S
C1359 C1358 1.415 . S
H1360 C1357 0.999 1_554 S
H1361 C1342 0.913 . S
H1362 C1380 0.951 . S
H1363 C1382 0.951 . S
H1364 C1384 0.950 . S
H1365 C1385 0.950 . S
H1366 C1387 0.950 . S
H1367 C1390 0.950 . S
H1368 C1391 0.950 . S
H1369 C1393 0.950 . S
H1370 C1394 0.950 . S
H1371 C1395 0.951 . S
H1372 C1397 0.951 . S
H1373 C1399 0.950 . S
H1374 C1400 0.950 . S
H1375 C1402 0.950 . S
H1376 C1405 0.950 . S
H1377 C1406 0.950 . S
H1378 C1408 0.950 . S
H1379 C1409 0.950 . S
C1380 H1362 0.951 . S
C1380 C1381 1.366 . S
C1380 C1382 1.388 . S
C1381 C1380 1.366 . S
C1381 C1385 1.385 . S
C1382 H1363 0.951 . S
C1382 C1380 1.388 . S
C1382 C1383 1.366 . S
C1383 C1382 1.366 . S
C1383 C1384 1.414 . S
C1383 C1386 1.499 . S
C1384 H1364 0.950 . S
C1384 C1383 1.414 . S
C1384 C1385 1.374 . S
C1385 H1365 0.950 . S
C1385 C1381 1.385 . S
C1385 C1384 1.374 . S
C1386 C1383 1.499 . S
C1386 C1387 1.373 . S
C1386 C1388 1.389 . S
C1387 H1366 0.950 . S
C1387 C1386 1.373 . S
C1387 C1403 1.377 . S
C1388 C1386 1.389 . S
C1388 C1389 1.524 . S
C1388 C1402 1.377 . S
C1389 C1388 1.524 . S
C1389 C1390 1.397 . S
C1389 C1394 1.363 . S
C1390 H1367 0.950 . S
C1390 C1389 1.397 . S
C1390 C1391 1.334 . S
C1391 H1368 0.950 . S
C1391 C1390 1.334 . S
C1391 C1392 1.287 . S
C1392 C1391 1.287 . S
C1392 C1393 1.524 . S
C1392 H1411 0.913 . S
C1393 H1369 0.950 . S
C1393 C1392 1.524 . S
C1393 C1394 1.415 . S
C1394 H1370 0.950 . S
C1394 C1389 1.363 . S
C1394 C1393 1.415 . S
C1395 H1371 0.951 . S
C1395 C1396 1.366 . S
C1395 C1397 1.388 . S
C1396 C1395 1.366 . S
C1396 C1400 1.385 . S
C1397 H1372 0.951 . S
C1397 C1395 1.388 . S
C1397 C1398 1.366 . S
C1398 C1397 1.366 . S
C1398 C1399 1.414 . S
C1398 C1401 1.499 . S
C1399 H1373 0.950 . S
C1399 C1398 1.414 . S
C1399 C1400 1.374 . S
C1400 H1374 0.950 . S
C1400 C1396 1.385 . S
C1400 C1399 1.374 . S
C1401 C1398 1.499 . S
C1401 C1402 1.373 . S
C1401 C1403 1.389 . S
C1402 H1375 0.950 . S
C1402 C1388 1.377 . S
C1402 C1401 1.373 . S
C1403 C1387 1.377 . S
C1403 C1401 1.389 . S
C1403 C1404 1.524 . S
C1404 C1403 1.524 . S
C1404 C1405 1.397 . S
C1404 C1409 1.363 . S
C1405 H1376 0.950 . S
C1405 C1404 1.397 . S
C1405 C1406 1.334 . S
C1406 H1377 0.950 . S
C1406 C1405 1.334 . S
C1406 C1407 1.287 . S
C1407 C1406 1.287 . S
C1407 C1408 1.524 . S
C1407 H1410 0.999 . S
C1408 H1378 0.950 . S
C1408 C1407 1.524 . S
C1408 C1409 1.415 . S
C1409 H1379 0.950 . S
C1409 C1404 1.363 . S
C1409 C1408 1.415 . S
H1410 C1407 0.999 . S
H1411 C1392 0.913 . S
H1412 C1430 0.951 . S
H1413 C1432 0.951 . S
H1414 C1434 0.950 . S
H1415 C1435 0.950 . S
H1416 C1437 0.950 . S
H1417 C1440 0.950 . S
H1418 C1441 0.950 . S
H1419 C1443 0.950 . S
H1420 C1444 0.950 . S
H1421 C1445 0.951 . S
H1422 C1447 0.951 . S
H1423 C1449 0.950 . S
H1424 C1450 0.950 . S
H1425 C1452 0.950 . S
H1426 C1455 0.950 . S
H1427 C1456 0.950 . S
H1428 C1458 0.950 . S
H1429 C1459 0.950 . S
C1430 H1412 0.951 . S
C1430 C1431 1.366 . S
C1430 C1432 1.388 . S
C1431 C1430 1.366 . S
C1431 C1435 1.385 . S
C1432 H1413 0.951 . S
C1432 C1430 1.388 . S
C1432 C1433 1.366 . S
C1433 C1432 1.366 . S
C1433 C1434 1.414 . S
C1433 C1436 1.499 . S
C1434 H1414 0.950 . S
C1434 C1433 1.414 . S
C1434 C1435 1.374 . S
C1435 H1415 0.950 . S
C1435 C1431 1.385 . S
C1435 C1434 1.374 . S
C1436 C1433 1.499 . S
C1436 C1437 1.373 . S
C1436 C1438 1.389 . S
C1437 H1416 0.950 . S
C1437 C1436 1.373 . S
C1437 C1453 1.377 . S
C1438 C1436 1.389 . S
C1438 C1439 1.524 . S
C1438 C1452 1.377 . S
C1439 C1438 1.524 . S
C1439 C1440 1.397 . S
C1439 C1444 1.363 . S
C1440 H1417 0.950 . S
C1440 C1439 1.397 . S
C1440 C1441 1.334 . S
C1441 H1418 0.950 . S
C1441 C1440 1.334 . S
C1441 C1442 1.287 . S
C1442 C1441 1.287 . S
C1442 C1443 1.524 . S
C1442 H1461 0.913 . S
C1443 H1419 0.950 . S
C1443 C1442 1.524 . S
C1443 C1444 1.415 . S
C1444 H1420 0.950 . S
C1444 C1439 1.363 . S
C1444 C1443 1.415 . S
C1445 H1421 0.951 . S
C1445 C1446 1.366 . S
C1445 C1447 1.388 . S
C1446 C1445 1.366 . S
C1446 C1450 1.385 . S
C1447 H1422 0.951 . S
C1447 C1445 1.388 . S
C1447 C1448 1.366 . S
C1448 C1447 1.366 . S
C1448 C1449 1.414 . S
C1448 C1451 1.499 . S
C1449 H1423 0.950 . S
C1449 C1448 1.414 . S
C1449 C1450 1.374 . S
C1450 H1424 0.950 . S
C1450 C1446 1.385 . S
C1450 C1449 1.374 . S
C1451 C1448 1.499 . S
C1451 C1452 1.373 . S
C1451 C1453 1.389 . S
C1452 H1425 0.950 . S
C1452 C1438 1.377 . S
C1452 C1451 1.373 . S
C1453 C1437 1.377 . S
C1453 C1451 1.389 . S
C1453 C1454 1.524 . S
C1454 C1453 1.524 . S
C1454 C1455 1.397 . S
C1454 C1459 1.363 . S
C1455 H1426 0.950 . S
C1455 C1454 1.397 . S
C1455 C1456 1.334 . S
C1456 H1427 0.950 . S
C1456 C1455 1.334 . S
C1456 C1457 1.287 . S
C1457 C1456 1.287 . S
C1457 C1458 1.524 . S
C1457 H1460 0.999 . S
C1458 H1428 0.950 . S
C1458 C1457 1.524 . S
C1458 C1459 1.415 . S
C1459 H1429 0.950 . S
C1459 C1454 1.363 . S
C1459 C1458 1.415 . S
H1460 C1457 0.999 . S
H1461 C1442 0.913 . S
H1462 C1480 0.951 . S
H1463 C1482 0.951 . S
H1464 C1484 0.950 . S
H1465 C1485 0.950 . S
H1466 C1487 0.950 . S
H1467 C1490 0.950 . S
H1468 C1491 0.950 . S
H1469 C1493 0.950 . S
H1470 C1494 0.950 . S
H1471 C1495 0.951 . S
H1472 C1497 0.951 . S
H1473 C1499 0.950 . S
H1474 C1500 0.950 . S
H1475 C1502 0.950 . S
H1476 C1505 0.950 . S
H1477 C1506 0.950 . S
H1478 C1508 0.950 . S
H1479 C1509 0.950 . S
C1480 H1462 0.951 . S
C1480 C1481 1.366 . S
C1480 C1482 1.388 . S
C1481 C1480 1.366 . S
C1481 C1485 1.385 . S
C1482 H1463 0.951 . S
C1482 C1480 1.388 . S
C1482 C1483 1.366 . S
C1483 C1482 1.366 . S
C1483 C1484 1.414 . S
C1483 C1486 1.499 . S
C1484 H1464 0.950 . S
C1484 C1483 1.414 . S
C1484 C1485 1.374 . S
C1485 H1465 0.950 . S
C1485 C1481 1.385 . S
C1485 C1484 1.374 . S
C1486 C1483 1.499 . S
C1486 C1487 1.373 . S
C1486 C1488 1.389 . S
C1487 H1466 0.950 . S
C1487 C1486 1.373 . S
C1487 C1503 1.377 . S
C1488 C1486 1.389 . S
C1488 C1489 1.524 . S
C1488 C1502 1.377 . S
C1489 C1488 1.524 . S
C1489 C1490 1.397 . S
C1489 C1494 1.363 . S
C1490 H1467 0.950 . S
C1490 C1489 1.397 . S
C1490 C1491 1.334 . S
C1491 H1468 0.950 . S
C1491 C1490 1.334 . S
C1491 C1492 1.287 . S
C1492 C1491 1.287 . S
C1492 C1493 1.524 . S
C1492 H1511 0.913 . S
C1493 H1469 0.950 . S
C1493 C1492 1.524 . S
C1493 C1494 1.415 . S
C1494 H1470 0.950 . S
C1494 C1489 1.363 . S
C1494 C1493 1.415 . S
C1495 H1471 0.951 . S
C1495 C1496 1.366 . S
C1495 C1497 1.388 . S
C1496 C1495 1.366 . S
C1496 C1500 1.385 . S
C1497 H1472 0.951 . S
C1497 C1495 1.388 . S
C1497 C1498 1.366 . S
C1498 C1497 1.366 . S
C1498 C1499 1.414 . S
C1498 C1501 1.499 . S
C1499 H1473 0.950 . S
C1499 C1498 1.414 . S
C1499 C1500 1.374 . S
C1500 H1474 0.950 . S
C1500 C1496 1.385 . S
C1500 C1499 1.374 . S
C1501 C1498 1.499 . S
C1501 C1502 1.373 . S
C1501 C1503 1.389 . S
C1502 H1475 0.950 . S
C1502 C1488 1.377 . S
C1502 C1501 1.373 . S
C1503 C1487 1.377 . S
C1503 C1501 1.389 . S
C1503 C1504 1.524 . S
C1504 C1503 1.524 . S
C1504 C1505 1.397 . S
C1504 C1509 1.363 . S
C1505 H1476 0.950 . S
C1505 C1504 1.397 . S
C1505 C1506 1.334 . S
C1506 H1477 0.950 . S
C1506 C1505 1.334 . S
C1506 C1507 1.287 . S
C1507 C1506 1.287 . S
C1507 C1508 1.524 . S
C1507 H1510 0.999 . S
C1508 H1478 0.950 . S
C1508 C1507 1.524 . S
C1508 C1509 1.415 . S
C1509 H1479 0.950 . S
C1509 C1504 1.363 . S
C1509 C1508 1.415 . S
H1510 C1507 0.999 . S
H1511 C1492 0.913 . S
C331 C6 1.191 . S
C346 C158 1.207 . S
C381 C21 1.513 . S
C396 C207 1.527 . S
C446 C242 1.696 . S
C431 C49 1.652 . S
C481 C68 1.972 . S
C496 C281 2.021 1_655 S
C546 C202 3.212 . S
C531 C2 3.128 . S
C596 C161 0.399 . S
C581 C30 0.476 . S
C646 C291 1.762 . S
C631 C40 1.807 . S
C696 C250 1.356 . S
C681 C63 1.360 . S
C731 C11 1.455 . S
C746 C278 1.594 . S
C796 C210 2.611 . S
C781 C44 2.703 . S
C831 C59 1.901 . S
C846 C171 1.894 . S
C881 C25 1.074 . S
C896 C247 1.065 . S
C946 C167 1.540 . S
C931 C82 1.536 . S
C981 C101 1.175 . S
C996 C198 1.176 . S
C1031 C125 2.225 . S
C1046 C251 2.328 . S
C1081 C144 1.640 . S
C1096 C290 1.727 . S
C1131 C87 1.877 . S
C1146 C211 1.996 1_565 S
C1196 C170 1.929 . S
C1181 C97 1.990 . S
C1246 C282 1.552 . S
C1231 C120 1.617 . S
C1296 C241 1.351 . S
C1281 C135 1.417 . S
C1331 C78 2.004 . S
C1346 C287 2.086 . S
C1396 C201 1.803 . S
C1381 C116 1.862 . S
C1446 C162 2.665 . S
C1431 C139 2.681 . S
C1481 C106 0.772 . S
C1496 C238 0.794 . S
