# Generated by pormake.
# Topology dag, (6,3)-cn, num edge types: 1
# Building blocks:
#     Node 0, Type 0, BuildingBlock: IZENUY_clean_sbu_0, # of connection points: 6
#     Node 1, Type 0, BuildingBlock: IZENUY_clean_sbu_0, # of connection points: 6
#     Node 2, Type 0, BuildingBlock: IZENUY_clean_sbu_0, # of connection points: 6
#     Node 3, Type 0, BuildingBlock: IZENUY_clean_sbu_0, # of connection points: 6
#     Node 4, Type 1, BuildingBlock: KAKCAD_clean_linker_0, # of connection points: 3
#     Node 5, Type 1, BuildingBlock: KAKCAD_clean_linker_0, # of connection points: 3
#     Node 6, Type 1, BuildingBlock: KAKCAD_clean_linker_0, # of connection points: 3
#     Node 7, Type 1, BuildingBlock: KAKCAD_clean_linker_0, # of connection points: 3
#     Node 8, Type 1, BuildingBlock: KAKCAD_clean_linker_0, # of connection points: 3
#     Node 9, Type 1, BuildingBlock: KAKCAD_clean_linker_0, # of connection points: 3
#     Node 10, Type 1, BuildingBlock: KAKCAD_clean_linker_0, # of connection points: 3
#     Node 11, Type 1, BuildingBlock: KAKCAD_clean_linker_0, # of connection points: 3
#     Edge 12, Type (0, 1), BuildingBlock: KIFKEQ_clean_linker_1, # of connection points: 2
#     Edge 13, Type (0, 1), BuildingBlock: KIFKEQ_clean_linker_1, # of connection points: 2
#     Edge 14, Type (0, 1), BuildingBlock: KIFKEQ_clean_linker_1, # of connection points: 2
#     Edge 15, Type (0, 1), BuildingBlock: KIFKEQ_clean_linker_1, # of connection points: 2
#     Edge 16, Type (0, 1), BuildingBlock: KIFKEQ_clean_linker_1, # of connection points: 2
#     Edge 17, Type (0, 1), BuildingBlock: KIFKEQ_clean_linker_1, # of connection points: 2
#     Edge 18, Type (0, 1), BuildingBlock: KIFKEQ_clean_linker_1, # of connection points: 2
#     Edge 19, Type (0, 1), BuildingBlock: KIFKEQ_clean_linker_1, # of connection points: 2
#     Edge 20, Type (0, 1), BuildingBlock: KIFKEQ_clean_linker_1, # of connection points: 2
#     Edge 21, Type (0, 1), BuildingBlock: KIFKEQ_clean_linker_1, # of connection points: 2
#     Edge 22, Type (0, 1), BuildingBlock: KIFKEQ_clean_linker_1, # of connection points: 2
#     Edge 23, Type (0, 1), BuildingBlock: KIFKEQ_clean_linker_1, # of connection points: 2
#     Edge 24, Type (0, 1), BuildingBlock: KIFKEQ_clean_linker_1, # of connection points: 2
#     Edge 25, Type (0, 1), BuildingBlock: KIFKEQ_clean_linker_1, # of connection points: 2
#     Edge 26, Type (0, 1), BuildingBlock: KIFKEQ_clean_linker_1, # of connection points: 2
#     Edge 27, Type (0, 1), BuildingBlock: KIFKEQ_clean_linker_1, # of connection points: 2
#     Edge 28, Type (0, 1), BuildingBlock: KIFKEQ_clean_linker_1, # of connection points: 2
#     Edge 29, Type (0, 1), BuildingBlock: KIFKEQ_clean_linker_1, # of connection points: 2
#     Edge 30, Type (0, 1), BuildingBlock: KIFKEQ_clean_linker_1, # of connection points: 2
#     Edge 31, Type (0, 1), BuildingBlock: KIFKEQ_clean_linker_1, # of connection points: 2
#     Edge 32, Type (0, 1), BuildingBlock: KIFKEQ_clean_linker_1, # of connection points: 2
#     Edge 33, Type (0, 1), BuildingBlock: KIFKEQ_clean_linker_1, # of connection points: 2
#     Edge 34, Type (0, 1), BuildingBlock: KIFKEQ_clean_linker_1, # of connection points: 2
#     Edge 35, Type (0, 1), BuildingBlock: KIFKEQ_clean_linker_1, # of connection points: 2
# Relax obj value: 0.253
# Max RMSD: 0.193
# Mean RMSD: 0.160
data_MOF--net-dag--node1-IZENUY_clean_sbu_0--node2-KAKCAD_clean_linker_0--edge1-KIFKEQ_clean_linker_1
_symmetry_space_group_name_H-M    P1
_symmetry_Int_Tables_number       1
_symmetry_cell_setting            triclinic
loop_
_symmetry_equiv_pos_as_xyz
'x, y, z'
_cell_length_a     47.426358
_cell_length_b     49.426284
_cell_length_c     41.777658
_cell_angle_alpha  95.148196
_cell_angle_beta   90.267826
_cell_angle_gamma 90.012114
loop_
_atom_site_label
_atom_site_type_symbol
_atom_site_fract_x
_atom_site_fract_y
_atom_site_fract_z
_atom_type_partial_charge
Fe0 Fe 0.18637 0.85131 0.09507 0.0
Fe1 Fe 0.13047 0.86696 0.06465 0.0
O2 O 0.15465 0.84176 0.07443 0.0
Fe3 Fe 0.14703 0.80705 0.06368 0.0
O4 O 0.16464 0.79488 0.09899 0.0
O5 O 0.17697 0.83217 0.12834 0.0
O6 O 0.17113 0.8813 0.11813 0.0
C7 C 0.14572 0.88713 0.12514 0.0
C8 C 0.20319 0.8083 0.04972 0.0
O9 O 0.12591 0.87875 0.10659 0.0
C10 C 0.12843 0.83315 0.00946 0.0
O11 O 0.19779 0.8712 0.0631 0.0
O12 O 0.15754 0.89264 0.05904 0.0
O13 O 0.17853 0.80311 0.03964 0.0
O14 O 0.20735 0.82305 0.07574 0.0
C15 C 0.09498 0.82498 0.08298 0.0
O16 O 0.13352 0.85673 0.02222 0.0
O17 O 0.12807 0.81301 0.02628 0.0
C18 C 0.18356 0.89015 0.05278 0.0
O19 O 0.09895 0.84589 0.06817 0.0
O20 O 0.11488 0.80877 0.0871 0.0
C21 C 0.17091 0.80724 0.12599 0.0
Fe22 Fe 0.68451 0.64995 0.49221 0.0
Fe23 Fe 0.64415 0.69535 0.51832 0.0
O24 O 0.65245 0.66042 0.51106 0.0
Fe25 Fe 0.62846 0.63575 0.52253 0.0
O26 O 0.65551 0.61075 0.53028 0.0
O27 O 0.6957 0.63208 0.52629 0.0
O28 O 0.70501 0.67929 0.50968 0.0
C29 C 0.7003 0.6961 0.53378 0.0
C30 C 0.64434 0.61277 0.4636 0.0
O31 O 0.67545 0.70169 0.54266 0.0
C32 C 0.59238 0.67555 0.50008 0.0
O33 O 0.67551 0.6667 0.4569 0.0
O34 O 0.66176 0.70538 0.48204 0.0
O35 O 0.62418 0.62167 0.48117 0.0
O36 O 0.66962 0.61891 0.47117 0.0
C37 C 0.62626 0.67266 0.57494 0.0
O38 O 0.61211 0.69145 0.49434 0.0
O39 O 0.59673 0.65607 0.51713 0.0
C40 C 0.66884 0.69132 0.45648 0.0
O41 O 0.62516 0.69142 0.55609 0.0
O42 O 0.63157 0.6485 0.56433 0.0
C43 C 0.68149 0.61328 0.5369 0.0
Fe44 Fe 0.85336 0.19714 0.01873 0.0
Fe45 Fe 0.86704 0.13686 0.02117 0.0
O46 O 0.84374 0.1625 0.01083 0.0
Fe47 Fe 0.8109 0.15343 0.9927 0.0
O48 O 0.80984 0.18244 0.96829 0.0
O49 O 0.85099 0.20253 0.97636 0.0
O50 O 0.89138 0.19119 0.01253 0.0
C51 C 0.90432 0.17164 0.99729 0.0
C52 C 0.79509 0.19679 0.03367 0.0
O53 O 0.89391 0.14805 0.99475 0.0
C54 C 0.81713 0.11621 0.04003 0.0
O55 O 0.85631 0.19387 0.06176 0.0
O56 O 0.88206 0.15691 0.05596 0.0
O57 O 0.79192 0.17184 0.02526 0.0
O58 O 0.8171 0.20926 0.02613 0.0
C59 C 0.84462 0.115 0.96159 0.0
O60 O 0.84154 0.12426 0.04826 0.0
O61 O 0.8061 0.12278 0.01412 0.0
C62 C 0.87176 0.1765 0.07366 0.0
O63 O 0.85625 0.11197 0.98833 0.0
O64 O 0.82778 0.13438 0.95876 0.0
C65 C 0.82931 0.19753 0.95921 0.0
Fe66 Fe 0.36737 0.36194 0.55666 0.0
Fe67 Fe 0.31467 0.34627 0.5931 0.0
O68 O 0.34564 0.33672 0.57122 0.0
Fe69 Fe 0.35493 0.30194 0.56381 0.0
O70 O 0.38847 0.30716 0.58467 0.0
O71 O 0.40031 0.34317 0.56057 0.0
O72 O 0.37382 0.37757 0.59684 0.0
C73 C 0.35489 0.38571 0.6165 0.0
C74 C 0.36797 0.32384 0.50522 0.0
O75 O 0.32951 0.3781 0.61229 0.0
C76 C 0.29795 0.29959 0.55316 0.0
O77 O 0.33855 0.38535 0.55002 0.0
O78 O 0.29989 0.36315 0.55999 0.0
O79 O 0.37111 0.30567 0.52451 0.0
O80 O 0.36226 0.34794 0.51554 0.0
C81 C 0.33454 0.30584 0.6277 0.0
O82 O 0.29434 0.31601 0.5779 0.0
O83 O 0.32231 0.2945 0.54232 0.0
C84 C 0.31238 0.38133 0.54618 0.0
O85 O 0.32723 0.33032 0.62769 0.0
O86 O 0.34029 0.29183 0.60166 0.0
C87 C 0.40676 0.32413 0.57757 0.0
C88 C 0.99229 0.19062 0.28423 0.0
C89 C 0.965 0.17985 0.28724 0.0
C90 C 0.01439 0.18288 0.30366 0.0
C91 C 0.00977 0.16397 0.32612 0.0
C92 C 0.98242 0.15437 0.33063 0.0
C93 C 0.96014 0.16257 0.31172 0.0
C94 C 0.03404 0.1517 0.34154 0.0
C95 C 0.05089 0.16719 0.36386 0.0
C96 C 0.07548 0.15604 0.37624 0.0
C97 C 0.08307 0.12918 0.36573 0.0
C98 C 0.06674 0.11366 0.34262 0.0
C99 C 0.04193 0.12504 0.33113 0.0
C100 C 0.07686 0.08678 0.32802 0.0
C101 C 0.10562 0.08266 0.32105 0.0
C102 C 0.0577 0.06581 0.31858 0.0
C103 C 0.06684 0.04193 0.30122 0.0
C104 C 0.09543 0.0383 0.2931 0.0
C105 C 0.09447 0.17298 0.39817 0.0
C106 C 0.10108 0.19967 0.39173 0.0
C107 C 0.10736 0.16215 0.42456 0.0
C108 C 0.12707 0.17739 0.44352 0.0
C109 C 0.13438 0.20375 0.43638 0.0
C110 C 0.12082 0.21487 0.41061 0.0
C111 C 0.11479 0.05868 0.30401 0.0
H112 H 0.99716 0.20362 0.26549 0.0
H113 H 0.03548 0.19031 0.29969 0.0
H114 H 0.9785 0.1398 0.34798 0.0
H115 H 0.93934 0.1544 0.31542 0.0
H116 H 0.04493 0.18797 0.37134 0.0
H117 H 0.02951 0.11385 0.31253 0.0
H118 H 0.10232 0.12072 0.37468 0.0
H119 H 0.12102 0.09838 0.32757 0.0
H120 H 0.03546 0.06808 0.32394 0.0
H121 H 0.05124 0.02681 0.2931 0.0
H122 H 0.09172 0.20852 0.3714 0.0
H123 H 0.10249 0.14172 0.43029 0.0
H124 H 0.13705 0.05641 0.29878 0.0
H125 H 0.12577 0.23523 0.40473 0.0
H126 H 0.13729 0.16819 0.46308 0.0
C127 C 0.38283 0.55884 0.78994 0.0
C128 C 0.40057 0.53592 0.78903 0.0
C129 C 0.39035 0.583 0.80786 0.0
C130 C 0.41595 0.58496 0.82485 0.0
C131 C 0.43326 0.56196 0.82498 0.0
C132 C 0.42551 0.53761 0.80755 0.0
C133 C 0.42576 0.61167 0.83954 0.0
C134 C 0.40819 0.62802 0.86002 0.0
C135 C 0.41621 0.65466 0.87095 0.0
C136 C 0.4422 0.66481 0.86116 0.0
C137 C 0.45984 0.64875 0.8402 0.0
C138 C 0.45159 0.62202 0.83004 0.0
C139 C 0.48489 0.66057 0.82528 0.0
C140 C 0.4833 0.6864 0.81375 0.0
C141 C 0.50909 0.64471 0.8185 0.0
C142 C 0.52997 0.65336 0.79827 0.0
C143 C 0.52726 0.67822 0.78457 0.0
C144 C 0.3964 0.67253 0.89042 0.0
C145 C 0.36775 0.6731 0.88184 0.0
C146 C 0.4059 0.68941 0.91718 0.0
C147 C 0.38703 0.70641 0.93508 0.0
C148 C 0.35839 0.70704 0.92632 0.0
C149 C 0.34898 0.69014 0.89956 0.0
C150 C 0.50432 0.69517 0.79374 0.0
H151 H 0.36373 0.55863 0.77565 0.0
H152 H 0.37683 0.6006 0.80705 0.0
H153 H 0.45305 0.56301 0.83809 0.0
H154 H 0.4394 0.52028 0.80814 0.0
H155 H 0.38808 0.62005 0.86709 0.0
H156 H 0.46429 0.60981 0.81275 0.0
H157 H 0.44812 0.68559 0.86874 0.0
H158 H 0.46494 0.69915 0.81838 0.0
H159 H 0.51119 0.62491 0.82748 0.0
H160 H 0.54724 0.63967 0.79174 0.0
H161 H 0.35984 0.66061 0.8611 0.0
H162 H 0.42786 0.68931 0.92441 0.0
H163 H 0.50187 0.71469 0.78419 0.0
H164 H 0.32699 0.68989 0.89244 0.0
H165 H 0.3949 0.71931 0.9555 0.0
C166 C 0.87375 0.79486 0.14541 0.0
C167 C 0.89631 0.81162 0.15672 0.0
C168 C 0.84591 0.80244 0.15272 0.0
C169 C 0.84028 0.82712 0.1709 0.0
C170 C 0.86283 0.84343 0.18293 0.0
C171 C 0.89057 0.83569 0.17607 0.0
C172 C 0.81102 0.83676 0.17609 0.0
C173 C 0.79097 0.82075 0.19011 0.0
C174 C 0.76376 0.83093 0.19718 0.0
C175 C 0.75646 0.85698 0.18877 0.0
C176 C 0.77643 0.87306 0.17463 0.0
C177 C 0.8036 0.86283 0.16842 0.0
C178 C 0.76973 0.90107 0.16739 0.0
C179 C 0.74675 0.90639 0.1476 0.0
C180 C 0.78778 0.92241 0.17848 0.0
C181 C 0.78374 0.94839 0.16883 0.0
C182 C 0.76166 0.95356 0.14768 0.0
C183 C 0.74438 0.81552 0.21656 0.0
C184 C 0.74172 0.78721 0.21055 0.0
C185 C 0.73077 0.82871 0.2434 0.0
C186 C 0.7163 0.81374 0.26488 0.0
C187 C 0.71509 0.78526 0.25995 0.0
C188 C 0.72717 0.77223 0.232 0.0
C189 C 0.74287 0.93243 0.13759 0.0
H190 H 0.87765 0.77619 0.13047 0.0
H191 H 0.82879 0.78958 0.14319 0.0
H192 H 0.85896 0.86245 0.19721 0.0
H193 H 0.9075 0.84915 0.18479 0.0
H194 H 0.79715 0.80103 0.19723 0.0
H195 H 0.81909 0.87523 0.15748 0.0
H196 H 0.73562 0.8651 0.19418 0.0
H197 H 0.73261 0.89018 0.13875 0.0
H198 H 0.80554 0.91879 0.19395 0.0
H199 H 0.79879 0.96412 0.1767 0.0
H200 H 0.75166 0.77655 0.18979 0.0
H201 H 0.73272 0.85047 0.2489 0.0
H202 H 0.72562 0.9359 0.12138 0.0
H203 H 0.72614 0.75035 0.22722 0.0
H204 H 0.70753 0.82441 0.28633 0.0
C205 C 0.62385 0.3123 0.65514 0.0
C206 C 0.6152 0.30956 0.62275 0.0
C207 C 0.65211 0.31718 0.66329 0.0
C208 C 0.67234 0.3197 0.63928 0.0
C209 C 0.66402 0.31588 0.60691 0.0
C210 C 0.63579 0.31065 0.59872 0.0
C211 C 0.70135 0.3287 0.64831 0.0
C212 C 0.71588 0.31719 0.673 0.0
C213 C 0.74157 0.32826 0.68508 0.0
C214 C 0.75291 0.35096 0.67155 0.0
C215 C 0.73891 0.36219 0.64617 0.0
C216 C 0.71332 0.3508 0.63454 0.0
C217 C 0.74882 0.38765 0.63382 0.0
C218 C 0.75264 0.41113 0.65493 0.0
C219 C 0.75019 0.38964 0.60058 0.0
C220 C 0.7529 0.41497 0.58859 0.0
C221 C 0.75385 0.43884 0.60962 0.0
C222 C 0.75566 0.31664 0.71263 0.0
C223 C 0.73932 0.30706 0.73727 0.0
C224 C 0.78523 0.3143 0.71426 0.0
C225 C 0.79801 0.30184 0.73945 0.0
C226 C 0.78137 0.29126 0.76304 0.0
C227 C 0.75202 0.29428 0.76197 0.0
C228 C 0.75506 0.43655 0.64292 0.0
H229 H 0.60864 0.31203 0.67435 0.0
H230 H 0.65786 0.32038 0.68847 0.0
H231 H 0.67927 0.31745 0.58794 0.0
H232 H 0.63004 0.30804 0.57352 0.0
H233 H 0.70686 0.29966 0.683 0.0
H234 H 0.70174 0.36034 0.61613 0.0
H235 H 0.77218 0.36032 0.6812 0.0
H236 H 0.7515 0.4101 0.68068 0.0
H237 H 0.74758 0.37174 0.58386 0.0
H238 H 0.75256 0.41599 0.5628 0.0
H239 H 0.7166 0.30927 0.73746 0.0
H240 H 0.79843 0.32135 0.69564 0.0
H241 H 0.7556 0.45451 0.6598 0.0
H242 H 0.73885 0.28661 0.78028 0.0
H243 H 0.82073 0.29968 0.73994 0.0
C244 C 0.59766 0.45406 0.26923 0.0
C245 C 0.60335 0.45489 0.30237 0.0
C246 C 0.58856 0.42989 0.25223 0.0
C247 C 0.5845 0.40645 0.26831 0.0
C248 C 0.59052 0.40726 0.3013 0.0
C249 C 0.59997 0.43118 0.31812 0.0
C250 C 0.57307 0.38126 0.25136 0.0
C251 C 0.58659 0.36859 0.22426 0.0
C252 C 0.57732 0.34307 0.21029 0.0
C253 C 0.55349 0.33095 0.2232 0.0
C254 C 0.5402 0.34342 0.25054 0.0
C255 C 0.54993 0.36857 0.26427 0.0
C256 C 0.51826 0.32921 0.26745 0.0
C257 C 0.49159 0.32383 0.25366 0.0
C258 C 0.52339 0.32335 0.29915 0.0
C259 C 0.50187 0.31352 0.31744 0.0
C260 C 0.47463 0.30947 0.30448 0.0
C261 C 0.59461 0.32782 0.18505 0.0
C262 C 0.60899 0.3415 0.1619 0.0
C263 C 0.59898 0.29971 0.18582 0.0
C264 C 0.61805 0.2859 0.16492 0.0
C265 C 0.63347 0.29991 0.14305 0.0
C266 C 0.62839 0.32772 0.14129 0.0
C267 C 0.46981 0.31416 0.27216 0.0
H268 H 0.60023 0.47207 0.25655 0.0
H269 H 0.58399 0.42967 0.22678 0.0
H270 H 0.58773 0.38936 0.31416 0.0
H271 H 0.60393 0.43132 0.34369 0.0
H272 H 0.60546 0.37783 0.21556 0.0
H273 H 0.53978 0.37802 0.28566 0.0
H274 H 0.54605 0.31128 0.21304 0.0
H275 H 0.48729 0.32831 0.22921 0.0
H276 H 0.54388 0.32738 0.31018 0.0
H277 H 0.50626 0.31059 0.34236 0.0
H278 H 0.60579 0.36302 0.1602 0.0
H279 H 0.58878 0.28852 0.20365 0.0
H280 H 0.44905 0.31113 0.26152 0.0
H281 H 0.63982 0.33891 0.12435 0.0
H282 H 0.6218 0.2645 0.16701 0.0
C283 C 0.12234 0.18633 0.91621 0.0
C284 C 0.11101 0.18372 0.94678 0.0
C285 C 0.15103 0.18204 0.91049 0.0
C286 C 0.16914 0.17518 0.93527 0.0
C287 C 0.15803 0.17377 0.96621 0.0
C288 C 0.12927 0.17798 0.97191 0.0
C289 C 0.19886 0.1674 0.92801 0.0
C290 C 0.2145 0.181 0.90601 0.0
C291 C 0.2409 0.1712 0.89509 0.0
C292 C 0.2523 0.14808 0.90763 0.0
C293 C 0.23726 0.13469 0.93046 0.0
C294 C 0.21064 0.14451 0.94049 0.0
C295 C 0.24736 0.10867 0.94143 0.0
C296 C 0.25563 0.08731 0.91899 0.0
C297 C 0.24499 0.10382 0.97392 0.0
C298 C 0.24858 0.07768 0.98341 0.0
C299 C 0.25453 0.05581 0.96055 0.0
C300 C 0.25529 0.1842 0.86894 0.0
C301 C 0.23938 0.19252 0.84311 0.0
C302 C 0.28459 0.18872 0.86956 0.0
C303 C 0.29748 0.2021 0.84531 0.0
C304 C 0.28123 0.21126 0.82022 0.0
C305 C 0.25216 0.20598 0.81916 0.0
C306 C 0.25912 0.06109 0.92846 0.0
H307 H 0.10891 0.19111 0.89645 0.0
H308 H 0.15876 0.18301 0.88626 0.0
H309 H 0.17147 0.16881 0.98589 0.0
H310 H 0.1212 0.17564 0.99571 0.0
H311 H 0.20576 0.19904 0.89681 0.0
H312 H 0.19827 0.1332 0.9565 0.0
H313 H 0.27236 0.13999 0.89893 0.0
H314 H 0.2575 0.09046 0.89376 0.0
H315 H 0.23885 0.12001 0.99174 0.0
H316 H 0.24469 0.07433 0.00827 0.0
H317 H 0.21692 0.18864 0.84136 0.0
H318 H 0.29739 0.18255 0.88917 0.0
H319 H 0.26404 0.04469 0.91038 0.0
H320 H 0.23924 0.21224 0.79968 0.0
H321 H 0.31996 0.20595 0.84663 0.0
C322 C 0.36959 0.69846 0.43694 0.0
C323 C 0.39181 0.6806 0.42784 0.0
C324 C 0.34159 0.69079 0.43033 0.0
C325 C 0.33541 0.66495 0.41512 0.0
C326 C 0.35764 0.64736 0.40551 0.0
C327 C 0.38554 0.65516 0.41164 0.0
C328 C 0.3059 0.6558 0.40995 0.0
C329 C 0.28667 0.6712 0.39362 0.0
C330 C 0.25933 0.66131 0.38625 0.0
C331 C 0.25109 0.63615 0.39664 0.0
C332 C 0.27026 0.62057 0.41286 0.0
C333 C 0.29753 0.63058 0.41951 0.0
C334 C 0.26294 0.59287 0.4208 0.0
C335 C 0.23897 0.58798 0.43906 0.0
C336 C 0.28097 0.57121 0.41112 0.0
C337 C 0.27577 0.54532 0.42039 0.0
C338 C 0.25246 0.54046 0.43973 0.0
C339 C 0.24093 0.67572 0.36445 0.0
C340 C 0.2399 0.70426 0.36678 0.0
C341 C 0.22655 0.66104 0.33899 0.0
C342 C 0.21287 0.67455 0.31544 0.0
C343 C 0.21333 0.70306 0.31668 0.0
C344 C 0.22627 0.71779 0.34313 0.0
C345 C 0.2339 0.56198 0.44872 0.0
H346 H 0.37389 0.7182 0.44942 0.0
H347 H 0.32475 0.70467 0.43795 0.0
H348 H 0.35339 0.62743 0.39347 0.0
H349 H 0.4022 0.64086 0.40469 0.0
H350 H 0.29369 0.69007 0.38491 0.0
H351 H 0.31242 0.61854 0.43197 0.0
H352 H 0.2302 0.62816 0.39097 0.0
H353 H 0.22478 0.60443 0.44678 0.0
H354 H 0.29946 0.57443 0.3968 0.0
H355 H 0.29074 0.52933 0.41347 0.0
H356 H 0.25047 0.71616 0.38632 0.0
H357 H 0.22709 0.63905 0.33625 0.0
H358 H 0.21577 0.55879 0.4636 0.0
H359 H 0.22713 0.73977 0.34477 0.0
H360 H 0.20269 0.66262 0.29564 0.0
C361 C 0.03231 0.83773 0.77189 0.0
C362 C 0.02619 0.82398 0.7992 0.0
C363 C 0.01062 0.84561 0.75191 0.0
C364 C 0.98256 0.83915 0.75829 0.0
C365 C 0.97654 0.82358 0.7838 0.0
C366 C 0.99806 0.8162 0.80417 0.0
C367 C 0.95924 0.85271 0.74273 0.0
C368 C 0.94112 0.83816 0.72086 0.0
C369 C 0.91638 0.85036 0.71023 0.0
C370 C 0.91003 0.87727 0.72193 0.0
C371 C 0.92758 0.89164 0.74463 0.0
C372 C 0.9526 0.87945 0.75412 0.0
C373 C 0.91771 0.91737 0.76205 0.0
C374 C 0.90477 0.93787 0.74585 0.0
C375 C 0.91942 0.92056 0.79575 0.0
C376 C 0.90795 0.94332 0.81294 0.0
C377 C 0.89445 0.96353 0.79694 0.0
C378 C 0.89576 0.8343 0.68947 0.0
C379 C 0.90469 0.81657 0.66327 0.0
C380 C 0.86679 0.83636 0.69623 0.0
C381 C 0.84718 0.8214 0.67702 0.0
C382 C 0.85599 0.8039 0.65063 0.0
C383 C 0.88498 0.80148 0.64404 0.0
C384 C 0.8934 0.96091 0.76318 0.0
H385 H 0.05371 0.84351 0.76671 0.0
H386 H 0.01558 0.85779 0.73238 0.0
H387 H 0.9549 0.81883 0.78936 0.0
H388 H 0.9922 0.80605 0.82506 0.0
H389 H 0.94565 0.81704 0.7134 0.0
H390 H 0.96617 0.89018 0.77198 0.0
H391 H 0.89058 0.88655 0.71469 0.0
H392 H 0.9032 0.93595 0.71988 0.0
H393 H 0.92881 0.90497 0.80902 0.0
H394 H 0.90945 0.945 0.83894 0.0
H395 H 0.92686 0.81463 0.65742 0.0
H396 H 0.85922 0.84922 0.71674 0.0
H397 H 0.88314 0.97626 0.7503 0.0
H398 H 0.89237 0.78824 0.62375 0.0
H399 H 0.82506 0.82324 0.68319 0.0
H400 H 0.18295 0.91837 0.16264 0.0
H401 H 0.0941 0.90039 0.15095 0.0
H402 H 0.17209 0.9531 0.2061 0.0
H403 H 0.08334 0.9352 0.19431 0.0
H404 H 0.07681 0.98542 0.29173 0.0
H405 H 0.08981 0.94707 0.25366 0.0
H406 H 0.14823 0.99831 0.20805 0.0
H407 H 0.13485 0.03671 0.24529 0.0
C408 C 0.16114 0.92165 0.16949 0.0
C409 C 0.13938 0.90676 0.1531 0.0
C410 C 0.15493 0.94162 0.19429 0.0
C411 C 0.12686 0.94696 0.20349 0.0
C412 C 0.10519 0.93141 0.18792 0.0
C413 C 0.11136 0.9116 0.16292 0.0
C414 C 0.09237 0.98855 0.27354 0.0
C415 C 0.10474 0.01425 0.27166 0.0
C416 C 0.09985 0.96655 0.2518 0.0
C417 C 0.12006 0.96969 0.22792 0.0
C418 C 0.13292 0.99514 0.22651 0.0
C419 C 0.12527 0.01716 0.24799 0.0
H420 H 0.63026 0.63886 0.62298 0.0
H421 H 0.60171 0.71884 0.60351 0.0
H422 H 0.61045 0.64557 0.67672 0.0
H423 H 0.5821 0.7256 0.65759 0.0
H424 H 0.51271 0.70111 0.7297 0.0
H425 H 0.54113 0.70451 0.68214 0.0
H426 H 0.61274 0.67199 0.73007 0.0
H427 H 0.58434 0.66902 0.77829 0.0
C428 C 0.6201 0.65803 0.63031 0.0
C429 C 0.6172 0.67815 0.60877 0.0
C430 C 0.60898 0.66198 0.66126 0.0
C431 C 0.5946 0.68608 0.67134 0.0
C432 C 0.59283 0.70671 0.65035 0.0
C433 C 0.60413 0.70284 0.61942 0.0
C434 C 0.53475 0.69553 0.73066 0.0
C435 C 0.54613 0.6846 0.75788 0.0
C436 C 0.55106 0.69743 0.70324 0.0
C437 C 0.57911 0.68831 0.70225 0.0
C438 C 0.59103 0.67881 0.73 0.0
C439 C 0.57475 0.67707 0.75757 0.0
H440 H 0.76819 0.08819 0.02514 0.0
H441 H 0.83428 0.09826 0.09686 0.0
H442 H 0.74776 0.05171 0.0533 0.0
H443 H 0.81424 0.06165 0.12446 0.0
H444 H 0.76713 0.00421 0.17922 0.0
H445 H 0.77471 0.04683 0.15515 0.0
H446 H 0.76207 0.00521 0.06073 0.0
H447 H 0.75425 0.96279 0.08482 0.0
C448 C 0.77822 0.08282 0.04705 0.0
C449 C 0.80307 0.09593 0.05854 0.0
C450 C 0.76655 0.06186 0.06309 0.0
C451 C 0.77941 0.05371 0.09105 0.0
C452 C 0.80356 0.06763 0.10324 0.0
C453 C 0.81524 0.08849 0.08721 0.0
C454 C 0.76547 0.00434 0.15336 0.0
C455 C 0.76042 0.98014 0.13387 0.0
C456 C 0.76988 0.02869 0.13958 0.0
C457 C 0.76943 0.02932 0.106 0.0
C458 C 0.76235 0.0055 0.08668 0.0
C459 C 0.75785 0.98115 0.10049 0.0
H460 H 0.44836 0.3618 0.57783 0.0
H461 H 0.43307 0.27848 0.59642 0.0
H462 H 0.49821 0.35612 0.58838 0.0
H463 H 0.48355 0.27245 0.60607 0.0
H464 H 0.57286 0.28275 0.65208 0.0
H465 H 0.52224 0.2853 0.6422 0.0
H466 H 0.53786 0.33415 0.56338 0.0
H467 H 0.588 0.33317 0.57452 0.0
C468 C 0.4557 0.34217 0.58402 0.0
C469 C 0.43678 0.32052 0.586 0.0
C470 C 0.48437 0.33884 0.58985 0.0
C471 C 0.49504 0.31367 0.59749 0.0
C472 C 0.47603 0.29213 0.60033 0.0
C473 C 0.44714 0.29556 0.59474 0.0
C474 C 0.56548 0.29414 0.63273 0.0
C475 C 0.58463 0.30796 0.61432 0.0
C476 C 0.53645 0.29532 0.62682 0.0
C477 C 0.52591 0.31025 0.60228 0.0
C478 C 0.54516 0.32297 0.58296 0.0
C479 C 0.57407 0.322 0.58902 0.0
H480 H 0.59325 0.59378 0.4401 0.0
H481 H 0.68307 0.58569 0.4246 0.0
H482 H 0.58479 0.55779 0.39717 0.0
H483 H 0.67448 0.54999 0.38164 0.0
H484 H 0.64651 0.46228 0.3454 0.0
H485 H 0.65698 0.50274 0.38125 0.0
H486 H 0.58958 0.54571 0.3378 0.0
H487 H 0.57888 0.50491 0.30207 0.0
C488 C 0.61117 0.58453 0.42739 0.0
C489 C 0.63885 0.59238 0.43609 0.0
C490 C 0.60629 0.56406 0.40263 0.0
C491 C 0.629 0.55099 0.38619 0.0
C492 C 0.6566 0.55947 0.39418 0.0
C493 C 0.66148 0.57998 0.41877 0.0
C494 C 0.63413 0.48046 0.34332 0.0
C495 C 0.61182 0.48047 0.32111 0.0
C496 C 0.64023 0.50368 0.36366 0.0
C497 C 0.62402 0.52735 0.36239 0.0
C498 C 0.60225 0.52765 0.33947 0.0
C499 C 0.59631 0.50444 0.31886 0.0
H500 H 0.93648 0.21783 0.00528 0.0
H501 H 0.93862 0.13415 0.96503 0.0
H502 H 0.98586 0.22307 0.99086 0.0
H503 H 0.98795 0.13931 0.95123 0.0
H504 H 0.06959 0.16221 0.9066 0.0
H505 H 0.01901 0.16188 0.91598 0.0
H506 H 0.03172 0.20665 0.00857 0.0
H507 H 0.08237 0.20796 0.99862 0.0
C508 C 0.9474 0.20061 0.99322 0.0
C509 C 0.93362 0.17552 0.98648 0.0
C510 C 0.97574 0.20358 0.98514 0.0
C511 C 0.99085 0.18159 0.97003 0.0
C512 C 0.97684 0.15675 0.96253 0.0
C513 C 0.94857 0.15375 0.97064 0.0
C514 C 0.06159 0.17249 0.92869 0.0
C515 C 0.08004 0.18512 0.95188 0.0
C516 C 0.03261 0.172 0.93422 0.0
C517 C 0.02137 0.18407 0.9631 0.0
C518 C 0.0397 0.19735 0.98595 0.0
C519 C 0.06874 0.19784 0.98042 0.0
H520 H 0.2583 0.40029 0.55558 0.0
H521 H 0.33089 0.40455 0.49423 0.0
H522 H 0.23502 0.43577 0.52722 0.0
H523 H 0.30775 0.4393 0.4659 0.0
H524 H 0.25812 0.49036 0.40712 0.0
H525 H 0.2655 0.4474 0.43052 0.0
H526 H 0.2481 0.48674 0.52479 0.0
H527 H 0.24097 0.52983 0.50146 0.0
C528 C 0.26897 0.4084 0.53566 0.0
C529 C 0.29643 0.39993 0.52719 0.0
C530 C 0.25573 0.42868 0.51956 0.0
C531 C 0.26954 0.44015 0.49429 0.0
C532 C 0.29642 0.43059 0.48496 0.0
C533 C 0.30978 0.41087 0.50136 0.0
C534 C 0.25525 0.48969 0.43275 0.0
C535 C 0.24954 0.51355 0.45255 0.0
C536 C 0.2594 0.46512 0.4461 0.0
C537 C 0.2578 0.46388 0.47949 0.0
C538 C 0.24933 0.4871 0.49895 0.0
C539 C 0.24526 0.51178 0.48557 0.0
H540 H 0.12186 0.78585 0.97039 0.0
H541 H 0.11331 0.87298 0.97172 0.0
H542 H 0.10321 0.7807 0.91558 0.0
H543 H 0.09357 0.8679 0.91809 0.0
H544 H 0.07026 0.85827 0.81705 0.0
H545 H 0.10064 0.8575 0.86354 0.0
H546 H 0.06029 0.78372 0.88796 0.0
H547 H 0.03172 0.78297 0.83954 0.0
C548 C 0.11604 0.80389 0.95898 0.0
C549 C 0.11894 0.8298 0.9755 0.0
C550 C 0.10521 0.80095 0.9276 0.0
C551 C 0.09677 0.82385 0.91221 0.0
C552 C 0.10035 0.84976 0.92865 0.0
C553 C 0.11148 0.85269 0.95971 0.0
C554 C 0.06845 0.84125 0.8315 0.0
C555 C 0.04799 0.8209 0.82455 0.0
C556 C 0.08563 0.84112 0.85871 0.0
C557 C 0.08244 0.82102 0.88021 0.0
C558 C 0.06341 0.79962 0.87212 0.0
C559 C 0.04661 0.79944 0.84449 0.0
H560 H 0.83161 0.11687 0.89744 0.0
H561 H 0.86744 0.06503 0.96509 0.0
H562 H 0.83958 0.08099 0.8537 0.0
H563 H 0.87518 0.02977 0.92194 0.0
H564 H 0.85981 0.96156 0.84815 0.0
H565 H 0.84404 -0.00068 0.88519 0.0
H566 H 0.88331 0.05597 0.82629 0.0
H567 H 0.89922 0.01788 0.78892 0.0
C568 C 0.84102 0.09787 0.90299 0.0
C569 C 0.84881 0.09377 0.93474 0.0
C570 C 0.84566 0.07746 0.878 0.0
C571 C 0.8577 0.05255 0.88455 0.0
C572 C 0.86542 0.04859 0.91625 0.0
C573 C 0.86114 0.06893 0.94097 0.0
C574 C 0.86483 0.98208 0.84291 0.0
C575 C 0.88123 0.98681 0.81606 0.0
C576 C 0.85577 0.00367 0.86405 0.0
C577 C 0.86288 0.03049 0.85886 0.0
C578 C 0.87752 0.03545 0.83079 0.0
C579 C 0.88664 0.01371 0.80948 0.0
H580 H 0.37334 0.35968 0.45947 0.0
H581 H 0.37932 0.27424 0.47329 0.0
H582 H 0.39223 0.35079 0.40575 0.0
H583 H 0.39736 0.26514 0.41883 0.0
H584 H 0.42222 0.33258 0.30791 0.0
H585 H 0.38863 0.33134 0.35173 0.0
H586 H 0.4416 0.27346 0.39525 0.0
H587 H 0.4742 0.27364 0.35065 0.0
C588 C 0.37812 0.33888 0.4508 0.0
C589 C 0.3754 0.31775 0.47095 0.0
C590 C 0.38871 0.3337 0.41974 0.0
C591 C 0.39659 0.30724 0.40795 0.0
C592 C 0.39203 0.28583 0.42736 0.0
C593 C 0.38163 0.29105 0.45856 0.0
C594 C 0.4261 0.3188 0.32618 0.0
C595 C 0.45114 0.30359 0.32616 0.0
C596 C 0.40704 0.31836 0.35155 0.0
C597 C 0.41272 0.30283 0.37746 0.0
C598 C 0.43642 0.28567 0.37578 0.0
C599 C 0.45534 0.28596 0.35033 0.0
H600 H 0.15883 0.92601 0.01587 0.0
H601 H 0.24009 0.90212 0.05113 0.0
H602 H 0.18101 0.96264 0.99005 0.0
H603 H 0.2624 0.93913 0.0251 0.0
H604 H 0.274 0.03432 0.0149 0.0
H605 H 0.26031 0.99092 0.03415 0.0
H606 H 0.21467 0.97016 0.9457 0.0
H607 H 0.22771 0.01358 0.92678 0.0
C608 C 0.18148 0.92849 0.01795 0.0
C609 C 0.19768 0.9113 0.03573 0.0
C610 C 0.19423 0.94933 0.00289 0.0
C611 C 0.22346 0.95365 0.00545 0.0
C612 C 0.23981 0.93625 0.02282 0.0
C613 C 0.22706 0.91508 0.03761 0.0
C614 C 0.26148 0.02025 -0.00063 0.0
C615 C 0.25173 0.02751 0.96946 0.0
C616 C 0.25382 0.99535 0.01028 0.0
C617 C 0.23613 0.97736 0.99156 0.0
C618 C 0.22805 0.9838 0.96077 0.0
C619 C 0.23579 0.00858 0.94981 0.0
H620 H 0.54385 0.65842 0.52606 0.0
H621 H 0.57504 0.70504 0.45097 0.0
H622 H 0.49571 0.66554 0.50837 0.0
H623 H 0.52641 0.71196 0.43299 0.0
H624 H 0.43883 0.67522 0.39025 0.0
H625 H 0.48803 0.67898 0.40803 0.0
H626 H 0.46053 0.7042 0.50448 0.0
H627 H 0.41138 0.70035 0.48675 0.0
C628 C 0.54042 0.6703 0.50582 0.0
C629 C 0.56324 0.68108 0.4898 0.0
C630 C 0.51281 0.67458 0.4959 0.0
C631 C 0.50735 0.68943 0.46944 0.0
C632 C 0.5301 0.70044 0.45348 0.0
C633 C 0.55784 0.69654 0.46379 0.0
C634 C 0.44337 0.68203 0.41511 0.0
C635 C 0.42134 0.68729 0.4372 0.0
C636 C 0.47147 0.68436 0.42522 0.0
C637 C 0.47802 0.69167 0.45766 0.0
C638 C 0.45601 0.69833 0.47937 0.0
C639 C 0.42793 0.69631 0.46919 0.0
H640 H 0.32624 0.39685 0.67262 0.0
H641 H 0.39966 0.42052 0.6211 0.0
H642 H 0.33788 0.43053 0.71692 0.0
H643 H 0.41054 0.45515 0.66438 0.0
H644 H 0.43771 0.50184 0.75513 0.0
H645 H 0.42714 0.46355 0.71666 0.0
H646 H 0.33795 0.4771 0.73192 0.0
H647 H 0.34859 0.51384 0.77265 0.0
C648 C 0.34474 0.40945 0.67067 0.0
C649 C 0.362 0.4061 0.64337 0.0
C650 C 0.35137 0.42888 0.69601 0.0
C651 C 0.37517 0.44573 0.69438 0.0
C652 C 0.3924 0.44224 0.66696 0.0
C653 C 0.38604 0.4225 0.64193 0.0
C654 C 0.41583 0.49626 0.75105 0.0
C655 C 0.39403 0.51119 0.76709 0.0
C656 C 0.40973 0.47451 0.72839 0.0
C657 C 0.38165 0.46735 0.72063 0.0
C658 C 0.35985 0.48177 0.73731 0.0
C659 C 0.36597 0.50324 0.76041 0.0
H660 H 0.07892 0.79059 0.12753 0.0
H661 H 0.04574 0.8446 0.06075 0.0
H662 H 0.03081 0.78146 0.14502 0.0
H663 H 0.99805 0.83531 0.07799 0.0
H664 H 0.91455 0.79758 0.09581 0.0
H665 H 0.96329 0.79585 0.07699 0.0
H666 H 0.99286 0.81148 0.1748 0.0
H667 H 0.94408 0.81308 0.19367 0.0
C668 C 0.06139 0.80029 0.11641 0.0
C669 C 0.06609 0.8184 0.09288 0.0
C670 C 0.03394 0.7951 0.12645 0.0
C671 C 0.01077 0.80754 0.11267 0.0
C672 C 0.0155 0.82514 0.08868 0.0
C673 C 0.04284 0.83065 0.07904 0.0
C674 C 0.93148 0.79989 0.11335 0.0
C675 C 0.92559 0.80565 0.14617 0.0
C676 C 0.95932 0.79912 0.10257 0.0
C677 C 0.98176 0.80379 0.12444 0.0
C678 C 0.97595 0.80771 0.15746 0.0
C679 C 0.94808 0.80878 0.16822 0.0
H680 H 0.65636 0.57339 0.56699 0.0
H681 H 0.73847 0.60264 0.5415 0.0
H682 H 0.67786 0.5327 0.58464 0.0
H683 H 0.76009 0.56142 0.55966 0.0
H684 H 0.77874 0.48825 0.62873 0.0
H685 H 0.76427 0.53307 0.61323 0.0
H686 H 0.70283 0.49454 0.54764 0.0
H687 H 0.71664 0.45032 0.56316 0.0
C688 C 0.67906 0.57131 0.56547 0.0
C689 C 0.69564 0.59105 0.55225 0.0
C690 C 0.69134 0.54796 0.57557 0.0
C691 C 0.72051 0.54378 0.57291 0.0
C692 C 0.7375 0.56422 0.56179 0.0
C693 C 0.72513 0.58773 0.55143 0.0
C694 C 0.76241 0.48942 0.61071 0.0
C695 C 0.74885 0.46569 0.5972 0.0
C696 C 0.75428 0.51499 0.60178 0.0
C697 C 0.73225 0.51714 0.57958 0.0
C698 C 0.7197 0.4934 0.56507 0.0
C699 C 0.72788 0.46802 0.57373 0.0
H700 H 0.89654 0.13829 0.10666 0.0
H701 H 0.86545 0.22077 0.11855 0.0
H702 H 0.91271 0.14208 0.16167 0.0
H703 H 0.88148 0.22443 0.17486 0.0
H704 H 0.95508 0.22471 0.25366 0.0
H705 H 0.92727 0.22589 0.20453 0.0
H706 H 0.89603 0.1453 0.21603 0.0
H707 H 0.92516 0.14314 0.26331 0.0
C708 C 0.89295 0.15727 0.12113 0.0
C709 C 0.87992 0.17933 0.10805 0.0
C710 C 0.90195 0.15932 0.15295 0.0
C711 C 0.89813 0.18346 0.17284 0.0
C712 C 0.88473 0.20556 0.16007 0.0
C713 C 0.87551 0.20345 0.12794 0.0
C714 C 0.94218 0.20727 0.24583 0.0
C715 C 0.94308 0.18357 0.26222 0.0
C716 C 0.92589 0.20814 0.21788 0.0
C717 C 0.90996 0.18543 0.20598 0.0
C718 C 0.90863 0.1629 0.22416 0.0
C719 C 0.92514 0.16185 0.2517 0.0
H720 H 0.18709 0.82643 0.18678 0.0
H721 H 0.16066 0.75319 0.13021 0.0
H722 H 0.19386 0.80065 0.23319 0.0
H723 H 0.16689 0.72754 0.17691 0.0
H724 H 0.18315 0.75058 0.31815 0.0
H725 H 0.16957 0.77551 0.27253 0.0
H726 H 0.20666 0.71259 0.20754 0.0
H727 H 0.22016 0.68783 0.25286 0.0
C728 C 0.1825 0.80487 0.18428 0.0
C729 C 0.17364 0.79182 0.15464 0.0
C730 C 0.18615 0.79013 0.211 0.0
C731 C 0.18099 0.76203 0.20872 0.0
C732 C 0.17143 0.74911 0.17932 0.0
C733 C 0.16779 0.76383 0.15257 0.0
C734 C 0.18827 0.74206 0.29409 0.0
C735 C 0.20269 0.71721 0.28915 0.0
C736 C 0.18053 0.75633 0.26798 0.0
C737 C 0.18708 0.74605 0.23641 0.0
C738 C 0.20086 0.72087 0.23148 0.0
C739 C 0.20858 0.70664 0.25752 0.0
H740 H 0.69765 0.73444 0.58497 0.0
H741 H 0.75671 0.69191 0.5199 0.0
H742 H 0.73628 0.76005 0.61135 0.0
H743 H 0.79543 0.71802 0.54617 0.0
H744 H 0.85813 0.7503 0.6273 0.0
H745 H 0.82123 0.72377 0.59788 0.0
H746 H 0.76919 0.79558 0.59911 0.0
H747 H 0.8059 0.82197 0.62846 0.0
C748 C 0.71886 0.73058 0.5762 0.0
C749 C 0.72403 0.71119 0.55017 0.0
C750 C 0.741 0.74541 0.59123 0.0
C751 C 0.76888 0.74125 0.58066 0.0
C752 C 0.77418 0.72158 0.55497 0.0
C753 C 0.75198 0.70672 0.53984 0.0
C754 C 0.83895 0.76045 0.62087 0.0
C755 C 0.83477 0.78814 0.63049 0.0
C756 C 0.81783 0.74527 0.60405 0.0
C757 C 0.79217 0.75752 0.59653 0.0
C758 C 0.78846 0.78542 0.60519 0.0
C759 C 0.8095 0.80054 0.62196 0.0
H760 H 0.7863 0.25155 0.03714 0.0
H761 H 0.75027 0.17696 0.06506 0.0
H762 H 0.74646 0.27688 0.06085 0.0
H763 H 0.711 0.20238 0.09013 0.0
H764 H 0.63102 0.25102 0.10705 0.0
H765 H 0.66972 0.22653 0.07916 0.0
H766 H 0.72647 0.29228 0.11044 0.0
H767 H 0.6875 0.317 0.13709 0.0
C768 C 0.77001 0.2406 0.0487 0.0
C769 C 0.77142 0.21226 0.04923 0.0
C770 C 0.74718 0.25514 0.06242 0.0
C771 C 0.7254 0.24173 0.07744 0.0
C772 C 0.72703 0.21336 0.07822 0.0
C773 C 0.74968 0.19878 0.06408 0.0
C774 C 0.65176 0.26023 0.10762 0.0
C775 C 0.65629 0.2859 0.12407 0.0
C776 C 0.674 0.24616 0.09189 0.0
C777 C 0.70135 0.25729 0.09268 0.0
C778 C 0.70567 0.28322 0.1088 0.0
C779 C 0.68335 0.29742 0.12414 0.0
H780 H 0.33891 0.25162 0.63615 0.0
H781 H 0.32651 0.33034 0.68814 0.0
H782 H 0.33064 0.22986 0.68544 0.0
H783 H 0.31879 0.30859 0.73736 0.0
H784 H 0.26197 0.25814 0.79896 0.0
H785 H 0.27956 0.28157 0.75438 0.0
H786 H 0.34729 0.22326 0.74065 0.0
H787 H 0.32912 0.19933 0.78524 0.0
C788 C 0.33487 0.2643 0.65816 0.0
C789 C 0.33285 0.29268 0.65808 0.0
C790 C 0.33033 0.25184 0.68645 0.0
C791 C 0.32376 0.26751 0.71519 0.0
C792 C 0.32329 0.29595 0.71544 0.0
C793 C 0.32775 0.30839 0.68722 0.0
C794 C 0.2807 0.2504 0.78653 0.0
C795 C 0.29403 0.22679 0.7953 0.0
C796 C 0.29097 0.26398 0.7612 0.0
C797 C 0.31482 0.25426 0.74398 0.0
C798 C 0.32873 0.23109 0.75335 0.0
C799 C 0.31851 0.21754 0.77896 0.0
H800 H 0.6795 0.66651 0.39677 0.0
H801 H 0.66424 0.74537 0.44721 0.0
H802 H 0.68652 0.68774 0.3471 0.0
H803 H 0.67189 0.76665 0.3975 0.0
H804 H 0.66805 0.79534 0.29728 0.0
H805 H 0.65344 0.7717 0.34342 0.0
H806 H 0.723 0.71583 0.32684 0.0
H807 H 0.73755 0.73932 0.28108 0.0
C808 C 0.67765 0.68839 0.39729 0.0
C809 C 0.67166 0.70428 0.42608 0.0
C810 C 0.68172 0.70054 0.3688 0.0
C811 C 0.67998 0.72888 0.3684 0.0
C812 C 0.67311 0.74473 0.39694 0.0
C813 C 0.66894 0.73255 0.42549 0.0
C814 C 0.68007 0.77788 0.30341 0.0
C815 C 0.70395 0.76921 0.28549 0.0
C816 C 0.67174 0.76439 0.32984 0.0
C817 C 0.68711 0.74195 0.33884 0.0
C818 C 0.71042 0.73278 0.32027 0.0
C819 C 0.71873 0.74624 0.29393 0.0
H820 H 0.86743 0.22757 0.92772 0.0
H821 H 0.78149 0.19821 0.92318 0.0
H822 H 0.8598 0.24903 0.87778 0.0
H823 H 0.77375 0.22007 0.87439 0.0
H824 H 0.77124 0.23911 0.77356 0.0
H825 H 0.78651 0.21531 0.8192 0.0
H826 H 0.83391 0.28617 0.85619 0.0
H827 H 0.81935 0.30953 0.80942 0.0
C828 C 0.84694 0.22579 0.91619 0.0
C829 C 0.82512 0.21109 0.92938 0.0
C830 C 0.84255 0.23813 0.88766 0.0
C831 C 0.81627 0.236 0.87187 0.0
C832 C 0.79448 0.22155 0.88539 0.0
C833 C 0.79888 0.20916 0.91361 0.0
C834 C 0.78531 0.24935 0.79124 0.0
C835 C 0.79398 0.27612 0.78834 0.0
C836 C 0.7939 0.23586 0.81747 0.0
C837 C 0.81093 0.24905 0.84173 0.0
C838 C 0.82087 0.27541 0.8379 0.0
C839 C 0.81252 0.28882 0.81126 0.0
H840 H 0.24265 0.30121 0.57237 0.0
H841 H 0.29778 0.26565 0.4979 0.0
H842 H 0.20231 0.27864 0.54485 0.0
H843 H 0.25763 0.24302 0.47081 0.0
H844 H 0.17692 0.23279 0.41219 0.0
H845 H 0.21555 0.25644 0.44134 0.0
H846 H 0.1829 0.23202 0.5307 0.0
H847 H 0.14365 0.20885 0.50152 0.0
C848 C 0.24621 0.2885 0.55027 0.0
C849 C 0.27347 0.28527 0.53735 0.0
C850 C 0.22312 0.27549 0.5346 0.0
C851 C 0.22679 0.25919 0.50559 0.0
C852 C 0.25406 0.25578 0.49288 0.0
C853 C 0.27711 0.26862 0.50857 0.0
C854 C 0.17772 0.23278 0.4381 0.0
C855 C 0.1572 0.21898 0.45456 0.0
C856 C 0.20004 0.24607 0.45476 0.0
C857 C 0.20236 0.24593 0.48828 0.0
C858 C 0.18157 0.23259 0.50488 0.0
C859 C 0.15927 0.21914 0.48816 0.0
H860 H 0.20151 0.77625 0.9931 0.0
H861 H 0.25939 0.81065 0.06602 0.0
H862 H 0.24052 0.75396 0.96408 0.0
H863 H 0.2987 0.78854 0.03641 0.0
H864 H 0.35351 0.71593 0.99175 0.0
H865 H 0.31729 0.74236 0.022 0.0
H866 H 0.28145 0.76516 0.93304 0.0
H867 H 0.31746 0.73873 0.90294 0.0
C868 C 0.22258 0.77918 0.00291 0.0
C869 C 0.22727 0.7952 0.03198 0.0
C870 C 0.24501 0.76654 0.98609 0.0
C871 C 0.27274 0.76959 0.99784 0.0
C872 C 0.27754 0.78564 0.02688 0.0
C873 C 0.25503 0.79839 0.04375 0.0
C874 C 0.33813 0.72694 0.97874 0.0
C875 C 0.33811 0.72499 0.94496 0.0
C876 C 0.31741 0.74208 0.99605 0.0
C877 C 0.29631 0.75559 0.97989 0.0
C878 C 0.29704 0.7545 0.94617 0.0
C879 C 0.31766 0.73937 0.92892 0.0
loop_
_geom_bond_atom_site_label_1
_geom_bond_atom_site_label_2
_geom_bond_distance
_geom_bond_site_symmetry_2
_ccdc_geom_bond_type
Fe0 O2 1.918 . S
Fe0 O5 1.997 . S
Fe0 O6 2.002 . S
Fe0 O11 1.976 . S
Fe0 O14 1.996 . S
Fe1 O2 1.918 . S
Fe1 O9 1.997 . S
Fe1 O12 1.996 . S
Fe1 O16 1.976 . S
Fe1 O19 2.002 . S
O2 Fe0 1.918 . S
O2 Fe1 1.918 . S
O2 Fe3 1.918 . S
Fe3 O2 1.918 . S
Fe3 O4 2.002 . S
Fe3 O13 1.976 . S
Fe3 O17 1.996 . S
Fe3 O20 1.997 . S
O4 Fe3 2.002 . S
O4 C21 1.295 . S
O5 Fe0 1.997 . S
O5 C21 1.235 . S
O6 Fe0 2.002 . S
O6 C7 1.295 . S
C7 O6 1.295 . S
C7 O9 1.235 . S
C8 O13 1.287 . S
C8 O14 1.255 . S
O9 Fe1 1.997 . S
O9 C7 1.235 . S
C10 O16 1.287 . S
C10 O17 1.255 . S
O11 Fe0 1.976 . S
O11 C18 1.287 . S
O12 Fe1 1.996 . S
O12 C18 1.255 . S
O13 Fe3 1.976 . S
O13 C8 1.287 . S
O14 Fe0 1.996 . S
O14 C8 1.255 . S
C15 O19 1.295 . S
C15 O20 1.235 . S
O16 Fe1 1.976 . S
O16 C10 1.287 . S
O17 Fe3 1.996 . S
O17 C10 1.255 . S
C18 O11 1.287 . S
C18 O12 1.255 . S
O19 Fe1 2.002 . S
O19 C15 1.295 . S
O20 Fe3 1.997 . S
O20 C15 1.235 . S
C21 O4 1.295 . S
C21 O5 1.235 . S
Fe22 O24 1.918 . S
Fe22 O27 1.997 . S
Fe22 O28 2.002 . S
Fe22 O33 1.976 . S
Fe22 O36 1.996 . S
Fe23 O24 1.918 . S
Fe23 O31 1.997 . S
Fe23 O34 1.996 . S
Fe23 O38 1.976 . S
Fe23 O41 2.002 . S
O24 Fe22 1.918 . S
O24 Fe23 1.918 . S
O24 Fe25 1.918 . S
Fe25 O24 1.918 . S
Fe25 O26 2.002 . S
Fe25 O35 1.976 . S
Fe25 O39 1.996 . S
Fe25 O42 1.997 . S
O26 Fe25 2.002 . S
O26 C43 1.295 . S
O27 Fe22 1.997 . S
O27 C43 1.235 . S
O28 Fe22 2.002 . S
O28 C29 1.295 . S
C29 O28 1.295 . S
C29 O31 1.235 . S
C30 O35 1.287 . S
C30 O36 1.255 . S
O31 Fe23 1.997 . S
O31 C29 1.235 . S
C32 O38 1.287 . S
C32 O39 1.255 . S
O33 Fe22 1.976 . S
O33 C40 1.287 . S
O34 Fe23 1.996 . S
O34 C40 1.255 . S
O35 Fe25 1.976 . S
O35 C30 1.287 . S
O36 Fe22 1.996 . S
O36 C30 1.255 . S
C37 O41 1.295 . S
C37 O42 1.235 . S
O38 Fe23 1.976 . S
O38 C32 1.287 . S
O39 Fe25 1.996 . S
O39 C32 1.255 . S
C40 O33 1.287 . S
C40 O34 1.255 . S
O41 Fe23 2.002 . S
O41 C37 1.295 . S
O42 Fe25 1.997 . S
O42 C37 1.235 . S
C43 O26 1.295 . S
C43 O27 1.235 . S
Fe44 O46 1.918 . S
Fe44 O49 1.997 1_554 S
Fe44 O50 2.002 . S
Fe44 O55 1.976 . S
Fe44 O58 1.996 . S
Fe45 O46 1.918 . S
Fe45 O53 1.997 . S
Fe45 O56 1.996 . S
Fe45 O60 1.976 . S
Fe45 O63 2.002 1_554 S
O46 Fe44 1.918 . S
O46 Fe45 1.918 . S
O46 Fe47 1.918 1_554 S
Fe47 O46 1.918 1_556 S
Fe47 O48 2.002 . S
Fe47 O57 1.976 1_556 S
Fe47 O61 1.996 1_556 S
Fe47 O64 1.997 . S
O48 Fe47 2.002 . S
O48 C65 1.295 . S
O49 Fe44 1.997 1_556 S
O49 C65 1.235 . S
O50 Fe44 2.002 . S
O50 C51 1.295 1_554 S
C51 O50 1.295 1_556 S
C51 O53 1.235 1_556 S
C52 O57 1.287 . S
C52 O58 1.255 . S
O53 Fe45 1.997 . S
O53 C51 1.235 1_554 S
C54 O60 1.287 . S
C54 O61 1.255 . S
O55 Fe44 1.976 . S
O55 C62 1.287 . S
O56 Fe45 1.996 . S
O56 C62 1.255 . S
O57 Fe47 1.976 1_554 S
O57 C52 1.287 . S
O58 Fe44 1.996 . S
O58 C52 1.255 . S
C59 O63 1.295 . S
C59 O64 1.235 . S
O60 Fe45 1.976 . S
O60 C54 1.287 . S
O61 Fe47 1.996 1_554 S
O61 C54 1.255 . S
C62 O55 1.287 . S
C62 O56 1.255 . S
O63 Fe45 2.002 1_556 S
O63 C59 1.295 . S
O64 Fe47 1.997 . S
O64 C59 1.235 . S
C65 O48 1.295 . S
C65 O49 1.235 . S
Fe66 O68 1.918 . S
Fe66 O71 1.997 . S
Fe66 O72 2.002 . S
Fe66 O77 1.976 . S
Fe66 O80 1.996 . S
Fe67 O68 1.918 . S
Fe67 O75 1.997 . S
Fe67 O78 1.996 . S
Fe67 O82 1.976 . S
Fe67 O85 2.002 . S
O68 Fe66 1.918 . S
O68 Fe67 1.918 . S
O68 Fe69 1.918 . S
Fe69 O68 1.918 . S
Fe69 O70 2.002 . S
Fe69 O79 1.976 . S
Fe69 O83 1.996 . S
Fe69 O86 1.997 . S
O70 Fe69 2.002 . S
O70 C87 1.295 . S
O71 Fe66 1.997 . S
O71 C87 1.235 . S
O72 Fe66 2.002 . S
O72 C73 1.295 . S
C73 O72 1.295 . S
C73 O75 1.235 . S
C74 O79 1.287 . S
C74 O80 1.255 . S
O75 Fe67 1.997 . S
O75 C73 1.235 . S
C76 O82 1.287 . S
C76 O83 1.255 . S
O77 Fe66 1.976 . S
O77 C84 1.287 . S
O78 Fe67 1.996 . S
O78 C84 1.255 . S
O79 Fe69 1.976 . S
O79 C74 1.287 . S
O80 Fe66 1.996 . S
O80 C74 1.255 . S
C81 O85 1.295 . S
C81 O86 1.235 . S
O82 Fe67 1.976 . S
O82 C76 1.287 . S
O83 Fe69 1.996 . S
O83 C76 1.255 . S
C84 O77 1.287 . S
C84 O78 1.255 . S
O85 Fe67 2.002 . S
O85 C81 1.295 . S
O86 Fe69 1.997 . S
O86 C81 1.235 . S
C87 O70 1.295 . S
C87 O71 1.235 . S
C88 C89 1.382 1_455 S
C88 C90 1.401 . S
C88 H112 0.931 . S
C89 C88 1.382 1_655 S
C89 C93 1.397 . S
C90 C88 1.401 . S
C90 C91 1.384 . S
C90 H113 0.930 . S
C91 C90 1.384 . S
C91 C92 1.392 . S
C91 C94 1.481 . S
C92 C91 1.392 . S
C92 C93 1.374 1_455 S
C92 H114 0.929 . S
C93 C89 1.397 . S
C93 C92 1.374 1_655 S
C93 H115 0.931 . S
C94 C91 1.481 . S
C94 C95 1.387 . S
C94 C99 1.390 . S
C95 C94 1.387 . S
C95 C96 1.401 . S
C95 H116 0.930 . S
C96 C95 1.401 . S
C96 C97 1.376 . S
C96 C105 1.511 . S
C97 C96 1.376 . S
C97 C98 1.392 . S
C97 H118 0.931 . S
C98 C97 1.392 . S
C98 C99 1.361 . S
C98 C100 1.500 . S
C99 C94 1.390 . S
C99 C98 1.361 . S
C99 H117 0.931 . S
C100 C98 1.500 . S
C100 C101 1.371 . S
C100 C102 1.365 . S
C101 C100 1.371 . S
C101 C111 1.386 . S
C101 H119 0.931 . S
C102 C100 1.365 . S
C102 C103 1.409 . S
C102 H120 0.929 . S
C103 C102 1.409 . S
C103 C104 1.380 . S
C103 H121 0.930 . S
C104 C103 1.380 . S
C104 C111 1.357 . S
C105 C96 1.511 . S
C105 C106 1.341 . S
C105 C107 1.371 . S
C106 C105 1.341 . S
C106 C110 1.394 . S
C106 H122 0.930 . S
C107 C105 1.371 . S
C107 C108 1.392 . S
C107 H123 0.931 . S
C108 C107 1.392 . S
C108 C109 1.331 . S
C108 H126 0.932 . S
C109 C108 1.331 . S
C109 C110 1.336 . S
C110 C106 1.394 . S
C110 C109 1.336 . S
C110 H125 0.929 . S
C111 C101 1.386 . S
C111 C104 1.357 . S
C111 H124 0.928 . S
H112 C88 0.931 . S
H113 C90 0.930 . S
H114 C92 0.929 . S
H115 C93 0.931 . S
H116 C95 0.930 . S
H117 C99 0.931 . S
H118 C97 0.931 . S
H119 C101 0.931 . S
H120 C102 0.929 . S
H121 C103 0.930 . S
H122 C106 0.930 . S
H123 C107 0.931 . S
H124 C111 0.928 . S
H125 C110 0.929 . S
H126 C108 0.932 . S
C127 C128 1.386 . S
C127 C129 1.397 . S
C127 H151 0.931 . S
C128 C127 1.386 . S
C128 C132 1.397 . S
C129 C127 1.397 . S
C129 C130 1.384 . S
C129 H152 0.930 . S
C130 C129 1.384 . S
C130 C131 1.377 . S
C130 C133 1.481 . S
C131 C130 1.377 . S
C131 C132 1.389 . S
C131 H153 0.929 . S
C132 C128 1.397 . S
C132 C131 1.389 . S
C132 H154 0.931 . S
C133 C130 1.481 . S
C133 C134 1.387 . S
C133 C138 1.390 . S
C134 C133 1.387 . S
C134 C135 1.401 . S
C134 H155 0.930 . S
C135 C134 1.401 . S
C135 C136 1.376 . S
C135 C144 1.511 . S
C136 C135 1.376 . S
C136 C137 1.392 . S
C136 H157 0.931 . S
C137 C136 1.392 . S
C137 C138 1.361 . S
C137 C139 1.500 . S
C138 C133 1.390 . S
C138 C137 1.361 . S
C138 H156 0.931 . S
C139 C137 1.500 . S
C139 C140 1.371 . S
C139 C141 1.365 . S
C140 C139 1.371 . S
C140 C150 1.386 . S
C140 H158 0.931 . S
C141 C139 1.365 . S
C141 C142 1.409 . S
C141 H159 0.929 . S
C142 C141 1.409 . S
C142 C143 1.380 . S
C142 H160 0.930 . S
C143 C142 1.380 . S
C143 C150 1.357 . S
C144 C135 1.511 . S
C144 C145 1.341 . S
C144 C146 1.371 . S
C145 C144 1.341 . S
C145 C149 1.394 . S
C145 H161 0.930 . S
C146 C144 1.371 . S
C146 C147 1.392 . S
C146 H162 0.931 . S
C147 C146 1.392 . S
C147 C148 1.331 . S
C147 H165 0.932 . S
C148 C147 1.331 . S
C148 C149 1.336 . S
C149 C145 1.394 . S
C149 C148 1.336 . S
C149 H164 0.929 . S
C150 C140 1.386 . S
C150 C143 1.357 . S
C150 H163 0.928 . S
H151 C127 0.931 . S
H152 C129 0.930 . S
H153 C131 0.929 . S
H154 C132 0.931 . S
H155 C134 0.930 . S
H156 C138 0.931 . S
H157 C136 0.931 . S
H158 C140 0.931 . S
H159 C141 0.929 . S
H160 C142 0.930 . S
H161 C145 0.930 . S
H162 C146 0.931 . S
H163 C150 0.928 . S
H164 C149 0.929 . S
H165 C147 0.932 . S
C166 C167 1.386 . S
C166 C168 1.397 . S
C166 H190 0.931 . S
C167 C166 1.386 . S
C167 C171 1.397 . S
C168 C166 1.397 . S
C168 C169 1.384 . S
C168 H191 0.930 . S
C169 C168 1.384 . S
C169 C170 1.377 . S
C169 C172 1.481 . S
C170 C169 1.377 . S
C170 C171 1.389 . S
C170 H192 0.929 . S
C171 C167 1.397 . S
C171 C170 1.389 . S
C171 H193 0.931 . S
C172 C169 1.481 . S
C172 C173 1.387 . S
C172 C177 1.390 . S
C173 C172 1.387 . S
C173 C174 1.401 . S
C173 H194 0.930 . S
C174 C173 1.401 . S
C174 C175 1.376 . S
C174 C183 1.511 . S
C175 C174 1.376 . S
C175 C176 1.392 . S
C175 H196 0.931 . S
C176 C175 1.392 . S
C176 C177 1.361 . S
C176 C178 1.500 . S
C177 C172 1.390 . S
C177 C176 1.361 . S
C177 H195 0.931 . S
C178 C176 1.500 . S
C178 C179 1.371 . S
C178 C180 1.365 . S
C179 C178 1.371 . S
C179 C189 1.386 . S
C179 H197 0.931 . S
C180 C178 1.365 . S
C180 C181 1.409 . S
C180 H198 0.929 . S
C181 C180 1.409 . S
C181 C182 1.380 . S
C181 H199 0.930 . S
C182 C181 1.380 . S
C182 C189 1.357 . S
C183 C174 1.511 . S
C183 C184 1.341 . S
C183 C185 1.371 . S
C184 C183 1.341 . S
C184 C188 1.394 . S
C184 H200 0.930 . S
C185 C183 1.371 . S
C185 C186 1.392 . S
C185 H201 0.931 . S
C186 C185 1.392 . S
C186 C187 1.331 . S
C186 H204 0.932 . S
C187 C186 1.331 . S
C187 C188 1.336 . S
C188 C184 1.394 . S
C188 C187 1.336 . S
C188 H203 0.929 . S
C189 C179 1.386 . S
C189 C182 1.357 . S
C189 H202 0.928 . S
H190 C166 0.931 . S
H191 C168 0.930 . S
H192 C170 0.929 . S
H193 C171 0.931 . S
H194 C173 0.930 . S
H195 C177 0.931 . S
H196 C175 0.931 . S
H197 C179 0.931 . S
H198 C180 0.929 . S
H199 C181 0.930 . S
H200 C184 0.930 . S
H201 C185 0.931 . S
H202 C189 0.928 . S
H203 C188 0.929 . S
H204 C186 0.932 . S
C205 C206 1.386 . S
C205 C207 1.397 . S
C205 H229 0.931 . S
C206 C205 1.386 . S
C206 C210 1.397 . S
C207 C205 1.397 . S
C207 C208 1.384 . S
C207 H230 0.930 . S
C208 C207 1.384 . S
C208 C209 1.377 . S
C208 C211 1.481 . S
C209 C208 1.377 . S
C209 C210 1.389 . S
C209 H231 0.929 . S
C210 C206 1.397 . S
C210 C209 1.389 . S
C210 H232 0.931 . S
C211 C208 1.481 . S
C211 C212 1.387 . S
C211 C216 1.390 . S
C212 C211 1.387 . S
C212 C213 1.401 . S
C212 H233 0.930 . S
C213 C212 1.401 . S
C213 C214 1.376 . S
C213 C222 1.511 . S
C214 C213 1.376 . S
C214 C215 1.392 . S
C214 H235 0.931 . S
C215 C214 1.392 . S
C215 C216 1.361 . S
C215 C217 1.500 . S
C216 C211 1.390 . S
C216 C215 1.361 . S
C216 H234 0.931 . S
C217 C215 1.500 . S
C217 C218 1.371 . S
C217 C219 1.365 . S
C218 C217 1.371 . S
C218 C228 1.386 . S
C218 H236 0.931 . S
C219 C217 1.365 . S
C219 C220 1.409 . S
C219 H237 0.929 . S
C220 C219 1.409 . S
C220 C221 1.380 . S
C220 H238 0.930 . S
C221 C220 1.380 . S
C221 C228 1.357 . S
C222 C213 1.511 . S
C222 C223 1.341 . S
C222 C224 1.371 . S
C223 C222 1.341 . S
C223 C227 1.394 . S
C223 H239 0.930 . S
C224 C222 1.371 . S
C224 C225 1.392 . S
C224 H240 0.931 . S
C225 C224 1.392 . S
C225 C226 1.331 . S
C225 H243 0.932 . S
C226 C225 1.331 . S
C226 C227 1.336 . S
C227 C223 1.394 . S
C227 C226 1.336 . S
C227 H242 0.929 . S
C228 C218 1.386 . S
C228 C221 1.357 . S
C228 H241 0.928 . S
H229 C205 0.931 . S
H230 C207 0.930 . S
H231 C209 0.929 . S
H232 C210 0.931 . S
H233 C212 0.930 . S
H234 C216 0.931 . S
H235 C214 0.931 . S
H236 C218 0.931 . S
H237 C219 0.929 . S
H238 C220 0.930 . S
H239 C223 0.930 . S
H240 C224 0.931 . S
H241 C228 0.928 . S
H242 C227 0.929 . S
H243 C225 0.932 . S
C244 C245 1.386 . S
C244 C246 1.397 . S
C244 H268 0.931 . S
C245 C244 1.386 . S
C245 C249 1.397 . S
C246 C244 1.397 . S
C246 C247 1.384 . S
C246 H269 0.930 . S
C247 C246 1.384 . S
C247 C248 1.377 . S
C247 C250 1.481 . S
C248 C247 1.377 . S
C248 C249 1.389 . S
C248 H270 0.929 . S
C249 C245 1.397 . S
C249 C248 1.389 . S
C249 H271 0.931 . S
C250 C247 1.481 . S
C250 C251 1.387 . S
C250 C255 1.390 . S
C251 C250 1.387 . S
C251 C252 1.401 . S
C251 H272 0.930 . S
C252 C251 1.401 . S
C252 C253 1.376 . S
C252 C261 1.511 . S
C253 C252 1.376 . S
C253 C254 1.392 . S
C253 H274 0.931 . S
C254 C253 1.392 . S
C254 C255 1.361 . S
C254 C256 1.500 . S
C255 C250 1.390 . S
C255 C254 1.361 . S
C255 H273 0.931 . S
C256 C254 1.500 . S
C256 C257 1.371 . S
C256 C258 1.365 . S
C257 C256 1.371 . S
C257 C267 1.386 . S
C257 H275 0.931 . S
C258 C256 1.365 . S
C258 C259 1.409 . S
C258 H276 0.929 . S
C259 C258 1.409 . S
C259 C260 1.380 . S
C259 H277 0.930 . S
C260 C259 1.380 . S
C260 C267 1.357 . S
C261 C252 1.511 . S
C261 C262 1.341 . S
C261 C263 1.371 . S
C262 C261 1.341 . S
C262 C266 1.394 . S
C262 H278 0.930 . S
C263 C261 1.371 . S
C263 C264 1.392 . S
C263 H279 0.931 . S
C264 C263 1.392 . S
C264 C265 1.331 . S
C264 H282 0.932 . S
C265 C264 1.331 . S
C265 C266 1.336 . S
C266 C262 1.394 . S
C266 C265 1.336 . S
C266 H281 0.929 . S
C267 C257 1.386 . S
C267 C260 1.357 . S
C267 H280 0.928 . S
H268 C244 0.931 . S
H269 C246 0.930 . S
H270 C248 0.929 . S
H271 C249 0.931 . S
H272 C251 0.930 . S
H273 C255 0.931 . S
H274 C253 0.931 . S
H275 C257 0.931 . S
H276 C258 0.929 . S
H277 C259 0.930 . S
H278 C262 0.930 . S
H279 C263 0.931 . S
H280 C267 0.928 . S
H281 C266 0.929 . S
H282 C264 0.932 . S
C283 C284 1.386 . S
C283 C285 1.397 . S
C283 H307 0.931 . S
C284 C283 1.386 . S
C284 C288 1.397 . S
C285 C283 1.397 . S
C285 C286 1.384 . S
C285 H308 0.930 . S
C286 C285 1.384 . S
C286 C287 1.377 . S
C286 C289 1.481 . S
C287 C286 1.377 . S
C287 C288 1.389 . S
C287 H309 0.929 . S
C288 C284 1.397 . S
C288 C287 1.389 . S
C288 H310 0.931 1_556 S
C289 C286 1.481 . S
C289 C290 1.387 . S
C289 C294 1.390 . S
C290 C289 1.387 . S
C290 C291 1.401 . S
C290 H311 0.930 . S
C291 C290 1.401 . S
C291 C292 1.376 . S
C291 C300 1.511 . S
C292 C291 1.376 . S
C292 C293 1.392 . S
C292 H313 0.931 . S
C293 C292 1.392 . S
C293 C294 1.361 . S
C293 C295 1.500 . S
C294 C289 1.390 . S
C294 C293 1.361 . S
C294 H312 0.931 . S
C295 C293 1.500 . S
C295 C296 1.371 . S
C295 C297 1.365 . S
C296 C295 1.371 . S
C296 C306 1.386 . S
C296 H314 0.931 . S
C297 C295 1.365 . S
C297 C298 1.409 . S
C297 H315 0.929 . S
C298 C297 1.409 . S
C298 C299 1.380 . S
C298 H316 0.930 1_556 S
C299 C298 1.380 . S
C299 C306 1.357 . S
C300 C291 1.511 . S
C300 C301 1.341 . S
C300 C302 1.371 . S
C301 C300 1.341 . S
C301 C305 1.394 . S
C301 H317 0.930 . S
C302 C300 1.371 . S
C302 C303 1.392 . S
C302 H318 0.931 . S
C303 C302 1.392 . S
C303 C304 1.331 . S
C303 H321 0.932 . S
C304 C303 1.331 . S
C304 C305 1.336 . S
C305 C301 1.394 . S
C305 C304 1.336 . S
C305 H320 0.929 . S
C306 C296 1.386 . S
C306 C299 1.357 . S
C306 H319 0.928 . S
H307 C283 0.931 . S
H308 C285 0.930 . S
H309 C287 0.929 . S
H310 C288 0.931 1_554 S
H311 C290 0.930 . S
H312 C294 0.931 . S
H313 C292 0.931 . S
H314 C296 0.931 . S
H315 C297 0.929 . S
H316 C298 0.930 1_554 S
H317 C301 0.930 . S
H318 C302 0.931 . S
H319 C306 0.928 . S
H320 C305 0.929 . S
H321 C303 0.932 . S
C322 C323 1.386 . S
C322 C324 1.397 . S
C322 H346 0.931 . S
C323 C322 1.386 . S
C323 C327 1.397 . S
C324 C322 1.397 . S
C324 C325 1.384 . S
C324 H347 0.930 . S
C325 C324 1.384 . S
C325 C326 1.377 . S
C325 C328 1.481 . S
C326 C325 1.377 . S
C326 C327 1.389 . S
C326 H348 0.929 . S
C327 C323 1.397 . S
C327 C326 1.389 . S
C327 H349 0.931 . S
C328 C325 1.481 . S
C328 C329 1.387 . S
C328 C333 1.390 . S
C329 C328 1.387 . S
C329 C330 1.401 . S
C329 H350 0.930 . S
C330 C329 1.401 . S
C330 C331 1.376 . S
C330 C339 1.511 . S
C331 C330 1.376 . S
C331 C332 1.392 . S
C331 H352 0.931 . S
C332 C331 1.392 . S
C332 C333 1.361 . S
C332 C334 1.500 . S
C333 C328 1.390 . S
C333 C332 1.361 . S
C333 H351 0.931 . S
C334 C332 1.500 . S
C334 C335 1.371 . S
C334 C336 1.365 . S
C335 C334 1.371 . S
C335 C345 1.386 . S
C335 H353 0.931 . S
C336 C334 1.365 . S
C336 C337 1.409 . S
C336 H354 0.929 . S
C337 C336 1.409 . S
C337 C338 1.380 . S
C337 H355 0.930 . S
C338 C337 1.380 . S
C338 C345 1.357 . S
C339 C330 1.511 . S
C339 C340 1.341 . S
C339 C341 1.371 . S
C340 C339 1.341 . S
C340 C344 1.394 . S
C340 H356 0.930 . S
C341 C339 1.371 . S
C341 C342 1.392 . S
C341 H357 0.931 . S
C342 C341 1.392 . S
C342 C343 1.331 . S
C342 H360 0.932 . S
C343 C342 1.331 . S
C343 C344 1.336 . S
C344 C340 1.394 . S
C344 C343 1.336 . S
C344 H359 0.929 . S
C345 C335 1.386 . S
C345 C338 1.357 . S
C345 H358 0.928 . S
H346 C322 0.931 . S
H347 C324 0.930 . S
H348 C326 0.929 . S
H349 C327 0.931 . S
H350 C329 0.930 . S
H351 C333 0.931 . S
H352 C331 0.931 . S
H353 C335 0.931 . S
H354 C336 0.929 . S
H355 C337 0.930 . S
H356 C340 0.930 . S
H357 C341 0.931 . S
H358 C345 0.928 . S
H359 C344 0.929 . S
H360 C342 0.932 . S
C361 C362 1.386 . S
C361 C363 1.397 1_455 S
C361 H385 0.931 . S
C362 C361 1.386 . S
C362 C366 1.397 . S
C363 C361 1.397 1_655 S
C363 C364 1.384 . S
C363 H386 0.930 . S
C364 C363 1.384 . S
C364 C365 1.377 . S
C364 C367 1.481 . S
C365 C364 1.377 . S
C365 C366 1.389 1_655 S
C365 H387 0.929 . S
C366 C362 1.397 . S
C366 C365 1.389 1_455 S
C366 H388 0.931 . S
C367 C364 1.481 . S
C367 C368 1.387 . S
C367 C372 1.390 . S
C368 C367 1.387 . S
C368 C369 1.401 . S
C368 H389 0.930 . S
C369 C368 1.401 . S
C369 C370 1.376 . S
C369 C378 1.511 . S
C370 C369 1.376 . S
C370 C371 1.392 . S
C370 H391 0.931 . S
C371 C370 1.392 . S
C371 C372 1.361 . S
C371 C373 1.500 . S
C372 C367 1.390 . S
C372 C371 1.361 . S
C372 H390 0.931 . S
C373 C371 1.500 . S
C373 C374 1.371 . S
C373 C375 1.365 . S
C374 C373 1.371 . S
C374 C384 1.386 . S
C374 H392 0.931 . S
C375 C373 1.365 . S
C375 C376 1.409 . S
C375 H393 0.929 . S
C376 C375 1.409 . S
C376 C377 1.380 . S
C376 H394 0.930 . S
C377 C376 1.380 . S
C377 C384 1.357 . S
C378 C369 1.511 . S
C378 C379 1.341 . S
C378 C380 1.371 . S
C379 C378 1.341 . S
C379 C383 1.394 . S
C379 H395 0.930 . S
C380 C378 1.371 . S
C380 C381 1.392 . S
C380 H396 0.931 . S
C381 C380 1.392 . S
C381 C382 1.331 . S
C381 H399 0.932 . S
C382 C381 1.331 . S
C382 C383 1.336 . S
C383 C379 1.394 . S
C383 C382 1.336 . S
C383 H398 0.929 . S
C384 C374 1.386 . S
C384 C377 1.357 . S
C384 H397 0.928 . S
H385 C361 0.931 . S
H386 C363 0.930 . S
H387 C365 0.929 . S
H388 C366 0.931 . S
H389 C368 0.930 . S
H390 C372 0.931 . S
H391 C370 0.931 . S
H392 C374 0.931 . S
H393 C375 0.929 . S
H394 C376 0.930 . S
H395 C379 0.930 . S
H396 C380 0.931 . S
H397 C384 0.928 . S
H398 C383 0.929 . S
H399 C381 0.932 . S
H400 C408 0.950 . S
H401 C413 0.950 . S
H402 C410 0.950 . S
H403 C412 0.950 . S
H404 C414 0.950 . S
H405 C416 0.950 . S
H406 C418 0.950 . S
H407 C419 0.975 . S
C408 H400 0.950 . S
C408 C409 1.386 . S
C408 C410 1.391 . S
C409 C408 1.386 . S
C409 C413 1.393 . S
C410 H402 0.950 . S
C410 C408 1.391 . S
C410 C411 1.400 . S
C411 C410 1.400 . S
C411 C412 1.398 . S
C411 C417 1.491 . S
C412 H403 0.950 . S
C412 C411 1.398 . S
C412 C413 1.391 . S
C413 H401 0.950 . S
C413 C409 1.393 . S
C413 C412 1.391 . S
C414 H404 0.950 . S
C414 C415 1.402 . S
C414 C416 1.391 . S
C415 C414 1.402 . S
C415 C419 1.388 1_565 S
C416 H405 0.950 . S
C416 C414 1.391 . S
C416 C417 1.400 . S
C417 C411 1.491 . S
C417 C416 1.400 . S
C417 C418 1.398 . S
C418 H406 0.950 . S
C418 C417 1.398 . S
C418 C419 1.369 1_565 S
C419 H407 0.975 . S
C419 C415 1.388 1_545 S
C419 C418 1.369 1_545 S
H420 C428 0.950 . S
H421 C433 0.950 . S
H422 C430 0.950 . S
H423 C432 0.950 . S
H424 C434 0.950 . S
H425 C436 0.950 . S
H426 C438 0.950 . S
H427 C439 0.950 . S
C428 H420 0.950 . S
C428 C429 1.386 . S
C428 C430 1.391 . S
C429 C428 1.386 . S
C429 C433 1.393 . S
C430 H422 0.950 . S
C430 C428 1.391 . S
C430 C431 1.400 . S
C431 C430 1.400 . S
C431 C432 1.398 . S
C431 C437 1.491 . S
C432 H423 0.950 . S
C432 C431 1.398 . S
C432 C433 1.391 . S
C433 H421 0.950 . S
C433 C429 1.393 . S
C433 C432 1.391 . S
C434 H424 0.950 . S
C434 C435 1.386 . S
C434 C436 1.391 . S
C435 C434 1.386 . S
C435 C439 1.393 . S
C436 H425 0.950 . S
C436 C434 1.391 . S
C436 C437 1.400 . S
C437 C431 1.491 . S
C437 C436 1.400 . S
C437 C438 1.398 . S
C438 H426 0.950 . S
C438 C437 1.398 . S
C438 C439 1.391 . S
C439 H427 0.950 . S
C439 C435 1.393 . S
C439 C438 1.391 . S
H440 C448 0.950 . S
H441 C453 0.950 . S
H442 C450 0.950 . S
H443 C452 0.950 . S
H444 C454 0.950 . S
H445 C456 0.950 . S
H446 C458 0.950 . S
H447 C459 0.950 . S
C448 H440 0.950 . S
C448 C449 1.386 . S
C448 C450 1.391 . S
C449 C448 1.386 . S
C449 C453 1.393 . S
C450 H442 0.950 . S
C450 C448 1.391 . S
C450 C451 1.400 . S
C451 C450 1.400 . S
C451 C452 1.398 . S
C451 C457 1.491 . S
C452 H443 0.950 . S
C452 C451 1.398 . S
C452 C453 1.391 . S
C453 H441 0.950 . S
C453 C449 1.393 . S
C453 C452 1.391 . S
C454 H444 0.950 . S
C454 C455 1.386 . S
C454 C456 1.391 1_565 S
C455 C454 1.386 . S
C455 C459 1.393 . S
C456 H445 0.950 . S
C456 C454 1.391 1_545 S
C456 C457 1.400 . S
C457 C451 1.491 . S
C457 C456 1.400 . S
C457 C458 1.398 1_545 S
C458 H446 0.950 . S
C458 C457 1.398 1_565 S
C458 C459 1.391 . S
C459 H447 0.950 . S
C459 C455 1.393 . S
C459 C458 1.391 . S
H460 C468 0.950 . S
H461 C473 0.950 . S
H462 C470 0.950 . S
H463 C472 0.950 . S
H464 C474 0.950 . S
H465 C476 0.950 . S
H466 C478 0.950 . S
H467 C479 0.950 . S
C468 H460 0.950 . S
C468 C469 1.386 . S
C468 C470 1.391 . S
C469 C468 1.386 . S
C469 C473 1.393 . S
C470 H462 0.950 . S
C470 C468 1.391 . S
C470 C471 1.400 . S
C471 C470 1.400 . S
C471 C472 1.398 . S
C471 C477 1.491 . S
C472 H463 0.950 . S
C472 C471 1.398 . S
C472 C473 1.391 . S
C473 H461 0.950 . S
C473 C469 1.393 . S
C473 C472 1.391 . S
C474 H464 0.950 . S
C474 C475 1.386 . S
C474 C476 1.391 . S
C475 C474 1.386 . S
C475 C479 1.393 . S
C476 H465 0.950 . S
C476 C474 1.391 . S
C476 C477 1.400 . S
C477 C471 1.491 . S
C477 C476 1.400 . S
C477 C478 1.398 . S
C478 H466 0.950 . S
C478 C477 1.398 . S
C478 C479 1.391 . S
C479 H467 0.950 . S
C479 C475 1.393 . S
C479 C478 1.391 . S
H480 C488 0.950 . S
H481 C493 0.950 . S
H482 C490 0.950 . S
H483 C492 0.950 . S
H484 C494 0.950 . S
H485 C496 0.950 . S
H486 C498 0.950 . S
H487 C499 0.950 . S
C488 H480 0.950 . S
C488 C489 1.386 . S
C488 C490 1.391 . S
C489 C488 1.386 . S
C489 C493 1.393 . S
C490 H482 0.950 . S
C490 C488 1.391 . S
C490 C491 1.400 . S
C491 C490 1.400 . S
C491 C492 1.398 . S
C491 C497 1.491 . S
C492 H483 0.950 . S
C492 C491 1.398 . S
C492 C493 1.391 . S
C493 H481 0.950 . S
C493 C489 1.393 . S
C493 C492 1.391 . S
C494 H484 0.950 . S
C494 C495 1.386 . S
C494 C496 1.391 . S
C495 C494 1.386 . S
C495 C499 1.393 . S
C496 H485 0.950 . S
C496 C494 1.391 . S
C496 C497 1.400 . S
C497 C491 1.491 . S
C497 C496 1.400 . S
C497 C498 1.398 . S
C498 H486 0.950 . S
C498 C497 1.398 . S
C498 C499 1.391 . S
C499 H487 0.950 . S
C499 C495 1.393 . S
C499 C498 1.391 . S
H500 C508 0.950 . S
H501 C513 0.950 . S
H502 C510 0.950 1_554 S
H503 C512 0.950 . S
H504 C514 0.950 . S
H505 C516 0.950 . S
H506 C518 0.953 . S
H507 C519 0.950 . S
C508 H500 0.950 . S
C508 C509 1.386 1_554 S
C508 C510 1.391 1_554 S
C509 C508 1.386 1_556 S
C509 C513 1.393 . S
C510 H502 0.950 1_556 S
C510 C508 1.391 1_556 S
C510 C511 1.400 . S
C511 C510 1.400 . S
C511 C512 1.398 . S
C511 C517 1.491 1_655 S
C512 H503 0.950 . S
C512 C511 1.398 . S
C512 C513 1.391 . S
C513 H501 0.950 . S
C513 C509 1.393 . S
C513 C512 1.391 . S
C514 H504 0.950 . S
C514 C515 1.386 . S
C514 C516 1.391 . S
C515 C514 1.386 . S
C515 C519 1.393 . S
C516 H505 0.950 . S
C516 C514 1.391 . S
C516 C517 1.400 . S
C517 C511 1.491 1_455 S
C517 C516 1.400 . S
C517 C518 1.398 . S
C518 H506 0.953 . S
C518 C517 1.398 . S
C518 C519 1.391 . S
C519 H507 0.950 . S
C519 C515 1.393 . S
C519 C518 1.391 . S
H520 C528 0.950 . S
H521 C533 0.950 . S
H522 C530 0.950 . S
H523 C532 0.950 . S
H524 C534 0.950 . S
H525 C536 0.950 . S
H526 C538 0.950 . S
H527 C539 0.950 . S
C528 H520 0.950 . S
C528 C529 1.386 . S
C528 C530 1.391 . S
C529 C528 1.386 . S
C529 C533 1.393 . S
C530 H522 0.950 . S
C530 C528 1.391 . S
C530 C531 1.400 . S
C531 C530 1.400 . S
C531 C532 1.398 . S
C531 C537 1.491 . S
C532 H523 0.950 . S
C532 C531 1.398 . S
C532 C533 1.391 . S
C533 H521 0.950 . S
C533 C529 1.393 . S
C533 C532 1.391 . S
C534 H524 0.950 . S
C534 C535 1.386 . S
C534 C536 1.391 . S
C535 C534 1.386 . S
C535 C539 1.393 . S
C536 H525 0.950 . S
C536 C534 1.391 . S
C536 C537 1.400 . S
C537 C531 1.491 . S
C537 C536 1.400 . S
C537 C538 1.398 . S
C538 H526 0.950 . S
C538 C537 1.398 . S
C538 C539 1.391 . S
C539 H527 0.950 . S
C539 C535 1.393 . S
C539 C538 1.391 . S
H540 C548 0.950 . S
H541 C553 0.950 . S
H542 C550 0.950 . S
H543 C552 0.950 . S
H544 C554 0.950 . S
H545 C556 0.950 . S
H546 C558 0.950 . S
H547 C559 0.950 . S
C548 H540 0.950 . S
C548 C549 1.386 . S
C548 C550 1.391 . S
C549 C548 1.386 . S
C549 C553 1.393 . S
C550 H542 0.950 . S
C550 C548 1.391 . S
C550 C551 1.400 . S
C551 C550 1.400 . S
C551 C552 1.398 . S
C551 C557 1.491 . S
C552 H543 0.950 . S
C552 C551 1.398 . S
C552 C553 1.391 . S
C553 H541 0.950 . S
C553 C549 1.393 . S
C553 C552 1.391 . S
C554 H544 0.950 . S
C554 C555 1.386 . S
C554 C556 1.391 . S
C555 C554 1.386 . S
C555 C559 1.393 . S
C556 H545 0.950 . S
C556 C554 1.391 . S
C556 C557 1.400 . S
C557 C551 1.491 . S
C557 C556 1.400 . S
C557 C558 1.398 . S
C558 H546 0.950 . S
C558 C557 1.398 . S
C558 C559 1.391 . S
C559 H547 0.950 . S
C559 C555 1.393 . S
C559 C558 1.391 . S
H560 C568 0.950 . S
H561 C573 0.950 . S
H562 C570 0.950 . S
H563 C572 0.950 . S
H564 C574 0.950 . S
H565 C576 0.950 . S
H566 C578 0.950 . S
H567 C579 0.950 . S
C568 H560 0.950 . S
C568 C569 1.386 . S
C568 C570 1.391 . S
C569 C568 1.386 . S
C569 C573 1.393 . S
C570 H562 0.950 . S
C570 C568 1.391 . S
C570 C571 1.400 . S
C571 C570 1.400 . S
C571 C572 1.398 . S
C571 C577 1.491 . S
C572 H563 0.950 . S
C572 C571 1.398 . S
C572 C573 1.391 . S
C573 H561 0.950 . S
C573 C569 1.393 . S
C573 C572 1.391 . S
C574 H564 0.950 . S
C574 C575 1.386 . S
C574 C576 1.391 1_565 S
C575 C574 1.386 . S
C575 C579 1.393 1_565 S
C576 H565 0.950 . S
C576 C574 1.391 1_545 S
C576 C577 1.400 . S
C577 C571 1.491 . S
C577 C576 1.400 . S
C577 C578 1.398 . S
C578 H566 0.950 . S
C578 C577 1.398 . S
C578 C579 1.391 . S
C579 H567 0.950 . S
C579 C575 1.393 1_545 S
C579 C578 1.391 . S
H580 C588 0.950 . S
H581 C593 0.950 . S
H582 C590 0.950 . S
H583 C592 0.950 . S
H584 C594 0.950 . S
H585 C596 0.950 . S
H586 C598 0.950 . S
H587 C599 0.950 . S
C588 H580 0.950 . S
C588 C589 1.386 . S
C588 C590 1.391 . S
C589 C588 1.386 . S
C589 C593 1.393 . S
C590 H582 0.950 . S
C590 C588 1.391 . S
C590 C591 1.400 . S
C591 C590 1.400 . S
C591 C592 1.398 . S
C591 C597 1.491 . S
C592 H583 0.950 . S
C592 C591 1.398 . S
C592 C593 1.391 . S
C593 H581 0.950 . S
C593 C589 1.393 . S
C593 C592 1.391 . S
C594 H584 0.950 . S
C594 C595 1.386 . S
C594 C596 1.391 . S
C595 C594 1.386 . S
C595 C599 1.393 . S
C596 H585 0.950 . S
C596 C594 1.391 . S
C596 C597 1.400 . S
C597 C591 1.491 . S
C597 C596 1.400 . S
C597 C598 1.398 . S
C598 H586 0.950 . S
C598 C597 1.398 . S
C598 C599 1.391 . S
C599 H587 0.950 . S
C599 C595 1.393 . S
C599 C598 1.391 . S
H600 C608 0.950 . S
H601 C613 0.950 . S
H602 C610 0.950 1_556 S
H603 C612 0.950 . S
H604 C614 0.947 1_554 S
H605 C616 0.950 . S
H606 C618 0.950 . S
H607 C619 0.950 . S
C608 H600 0.950 . S
C608 C609 1.386 . S
C608 C610 1.391 . S
C609 C608 1.386 . S
C609 C613 1.393 . S
C610 H602 0.950 1_554 S
C610 C608 1.391 . S
C610 C611 1.400 . S
C611 C610 1.400 . S
C611 C612 1.398 . S
C611 C617 1.504 . S
C612 H603 0.950 . S
C612 C611 1.398 . S
C612 C613 1.391 . S
C613 H601 0.950 . S
C613 C609 1.393 . S
C613 C612 1.391 . S
C614 H604 0.947 1_556 S
C614 C615 1.393 . S
C614 C616 1.387 1_546 S
C615 C614 1.393 . S
C615 C619 1.393 . S
C616 H605 0.950 . S
C616 C614 1.387 1_564 S
C616 C617 1.407 . S
C617 C611 1.504 . S
C617 C616 1.407 . S
C617 C618 1.379 1_564 S
C618 H606 0.950 . S
C618 C617 1.379 1_546 S
C618 C619 1.391 . S
C619 H607 0.950 . S
C619 C615 1.393 . S
C619 C618 1.391 . S
H620 C628 0.950 . S
H621 C633 0.950 . S
H622 C630 0.950 . S
H623 C632 0.950 . S
H624 C634 0.950 . S
H625 C636 0.950 . S
H626 C638 0.950 . S
H627 C639 0.950 . S
C628 H620 0.950 . S
C628 C629 1.386 . S
C628 C630 1.391 . S
C629 C628 1.386 . S
C629 C633 1.393 . S
C630 H622 0.950 . S
C630 C628 1.391 . S
C630 C631 1.400 . S
C631 C630 1.400 . S
C631 C632 1.398 . S
C631 C637 1.491 . S
C632 H623 0.950 . S
C632 C631 1.398 . S
C632 C633 1.391 . S
C633 H621 0.950 . S
C633 C629 1.393 . S
C633 C632 1.391 . S
C634 H624 0.950 . S
C634 C635 1.386 . S
C634 C636 1.391 . S
C635 C634 1.386 . S
C635 C639 1.393 . S
C636 H625 0.950 . S
C636 C634 1.391 . S
C636 C637 1.400 . S
C637 C631 1.491 . S
C637 C636 1.400 . S
C637 C638 1.398 . S
C638 H626 0.950 . S
C638 C637 1.398 . S
C638 C639 1.391 . S
C639 H627 0.950 . S
C639 C635 1.393 . S
C639 C638 1.391 . S
H640 C648 0.950 . S
H641 C653 0.950 . S
H642 C650 0.950 . S
H643 C652 0.950 . S
H644 C654 0.950 . S
H645 C656 0.950 . S
H646 C658 0.950 . S
H647 C659 0.950 . S
C648 H640 0.950 . S
C648 C649 1.386 . S
C648 C650 1.391 . S
C649 C648 1.386 . S
C649 C653 1.393 . S
C650 H642 0.950 . S
C650 C648 1.391 . S
C650 C651 1.400 . S
C651 C650 1.400 . S
C651 C652 1.398 . S
C651 C657 1.491 . S
C652 H643 0.950 . S
C652 C651 1.398 . S
C652 C653 1.391 . S
C653 H641 0.950 . S
C653 C649 1.393 . S
C653 C652 1.391 . S
C654 H644 0.950 . S
C654 C655 1.386 . S
C654 C656 1.391 . S
C655 C654 1.386 . S
C655 C659 1.393 . S
C656 H645 0.950 . S
C656 C654 1.391 . S
C656 C657 1.400 . S
C657 C651 1.491 . S
C657 C656 1.400 . S
C657 C658 1.398 . S
C658 H646 0.950 . S
C658 C657 1.398 . S
C658 C659 1.391 . S
C659 H647 0.950 . S
C659 C655 1.393 . S
C659 C658 1.391 . S
H660 C668 0.950 . S
H661 C673 0.950 . S
H662 C670 0.950 . S
H663 C672 0.961 . S
H664 C674 0.950 . S
H665 C676 0.950 . S
H666 C678 0.950 . S
H667 C679 0.950 . S
C668 H660 0.950 . S
C668 C669 1.386 . S
C668 C670 1.391 . S
C669 C668 1.386 . S
C669 C673 1.393 . S
C670 H662 0.950 . S
C670 C668 1.391 . S
C670 C671 1.400 . S
C671 C670 1.400 . S
C671 C672 1.398 . S
C671 C677 1.491 1_455 S
C672 H663 0.961 . S
C672 C671 1.398 . S
C672 C673 1.391 . S
C673 H661 0.950 . S
C673 C669 1.393 . S
C673 C672 1.391 . S
C674 H664 0.950 . S
C674 C675 1.386 . S
C674 C676 1.391 . S
C675 C674 1.386 . S
C675 C679 1.393 . S
C676 H665 0.950 . S
C676 C674 1.391 . S
C676 C677 1.400 . S
C677 C671 1.491 1_655 S
C677 C676 1.400 . S
C677 C678 1.398 . S
C678 H666 0.950 . S
C678 C677 1.398 . S
C678 C679 1.391 . S
C679 H667 0.950 . S
C679 C675 1.393 . S
C679 C678 1.391 . S
H680 C688 0.950 . S
H681 C693 0.950 . S
H682 C690 0.950 . S
H683 C692 0.950 . S
H684 C694 0.950 . S
H685 C696 0.950 . S
H686 C698 0.950 . S
H687 C699 0.950 . S
C688 H680 0.950 . S
C688 C689 1.386 . S
C688 C690 1.391 . S
C689 C688 1.386 . S
C689 C693 1.393 . S
C690 H682 0.950 . S
C690 C688 1.391 . S
C690 C691 1.400 . S
C691 C690 1.400 . S
C691 C692 1.398 . S
C691 C697 1.491 . S
C692 H683 0.950 . S
C692 C691 1.398 . S
C692 C693 1.391 . S
C693 H681 0.950 . S
C693 C689 1.393 . S
C693 C692 1.391 . S
C694 H684 0.950 . S
C694 C695 1.386 . S
C694 C696 1.391 . S
C695 C694 1.386 . S
C695 C699 1.393 . S
C696 H685 0.950 . S
C696 C694 1.391 . S
C696 C697 1.400 . S
C697 C691 1.491 . S
C697 C696 1.400 . S
C697 C698 1.398 . S
C698 H686 0.950 . S
C698 C697 1.398 . S
C698 C699 1.391 . S
C699 H687 0.950 . S
C699 C695 1.393 . S
C699 C698 1.391 . S
H700 C708 0.950 . S
H701 C713 0.950 . S
H702 C710 0.950 . S
H703 C712 0.950 . S
H704 C714 0.950 . S
H705 C716 0.950 . S
H706 C718 0.950 . S
H707 C719 0.950 . S
C708 H700 0.950 . S
C708 C709 1.386 . S
C708 C710 1.391 . S
C709 C708 1.386 . S
C709 C713 1.393 . S
C710 H702 0.950 . S
C710 C708 1.391 . S
C710 C711 1.400 . S
C711 C710 1.400 . S
C711 C712 1.398 . S
C711 C717 1.491 . S
C712 H703 0.950 . S
C712 C711 1.398 . S
C712 C713 1.391 . S
C713 H701 0.950 . S
C713 C709 1.393 . S
C713 C712 1.391 . S
C714 H704 0.950 . S
C714 C715 1.386 . S
C714 C716 1.391 . S
C715 C714 1.386 . S
C715 C719 1.393 . S
C716 H705 0.950 . S
C716 C714 1.391 . S
C716 C717 1.400 . S
C717 C711 1.491 . S
C717 C716 1.400 . S
C717 C718 1.398 . S
C718 H706 0.950 . S
C718 C717 1.398 . S
C718 C719 1.391 . S
C719 H707 0.950 . S
C719 C715 1.393 . S
C719 C718 1.391 . S
H720 C728 0.950 . S
H721 C733 0.950 . S
H722 C730 0.950 . S
H723 C732 0.950 . S
H724 C734 0.950 . S
H725 C736 0.950 . S
H726 C738 0.950 . S
H727 C739 0.950 . S
C728 H720 0.950 . S
C728 C729 1.386 . S
C728 C730 1.391 . S
C729 C728 1.386 . S
C729 C733 1.393 . S
C730 H722 0.950 . S
C730 C728 1.391 . S
C730 C731 1.400 . S
C731 C730 1.400 . S
C731 C732 1.398 . S
C731 C737 1.491 . S
C732 H723 0.950 . S
C732 C731 1.398 . S
C732 C733 1.391 . S
C733 H721 0.950 . S
C733 C729 1.393 . S
C733 C732 1.391 . S
C734 H724 0.950 . S
C734 C735 1.386 . S
C734 C736 1.391 . S
C735 C734 1.386 . S
C735 C739 1.393 . S
C736 H725 0.950 . S
C736 C734 1.391 . S
C736 C737 1.400 . S
C737 C731 1.491 . S
C737 C736 1.400 . S
C737 C738 1.398 . S
C738 H726 0.950 . S
C738 C737 1.398 . S
C738 C739 1.391 . S
C739 H727 0.950 . S
C739 C735 1.393 . S
C739 C738 1.391 . S
H740 C748 0.950 . S
H741 C753 0.950 . S
H742 C750 0.950 . S
H743 C752 0.950 . S
H744 C754 0.950 . S
H745 C756 0.950 . S
H746 C758 0.950 . S
H747 C759 0.950 . S
C748 H740 0.950 . S
C748 C749 1.386 . S
C748 C750 1.391 . S
C749 C748 1.386 . S
C749 C753 1.393 . S
C750 H742 0.950 . S
C750 C748 1.391 . S
C750 C751 1.400 . S
C751 C750 1.400 . S
C751 C752 1.398 . S
C751 C757 1.491 . S
C752 H743 0.950 . S
C752 C751 1.398 . S
C752 C753 1.391 . S
C753 H741 0.950 . S
C753 C749 1.393 . S
C753 C752 1.391 . S
C754 H744 0.950 . S
C754 C755 1.386 . S
C754 C756 1.391 . S
C755 C754 1.386 . S
C755 C759 1.393 . S
C756 H745 0.950 . S
C756 C754 1.391 . S
C756 C757 1.400 . S
C757 C751 1.491 . S
C757 C756 1.400 . S
C757 C758 1.398 . S
C758 H746 0.950 . S
C758 C757 1.398 . S
C758 C759 1.391 . S
C759 H747 0.950 . S
C759 C755 1.393 . S
C759 C758 1.391 . S
H760 C768 0.950 . S
H761 C773 0.950 . S
H762 C770 0.950 . S
H763 C772 0.950 . S
H764 C774 0.950 . S
H765 C776 0.950 . S
H766 C778 0.950 . S
H767 C779 0.950 . S
C768 H760 0.950 . S
C768 C769 1.386 . S
C768 C770 1.391 . S
C769 C768 1.386 . S
C769 C773 1.393 . S
C770 H762 0.950 . S
C770 C768 1.391 . S
C770 C771 1.400 . S
C771 C770 1.400 . S
C771 C772 1.398 . S
C771 C777 1.491 . S
C772 H763 0.950 . S
C772 C771 1.398 . S
C772 C773 1.391 . S
C773 H761 0.950 . S
C773 C769 1.393 . S
C773 C772 1.391 . S
C774 H764 0.950 . S
C774 C775 1.386 . S
C774 C776 1.391 . S
C775 C774 1.386 . S
C775 C779 1.393 . S
C776 H765 0.950 . S
C776 C774 1.391 . S
C776 C777 1.400 . S
C777 C771 1.491 . S
C777 C776 1.400 . S
C777 C778 1.398 . S
C778 H766 0.950 . S
C778 C777 1.398 . S
C778 C779 1.391 . S
C779 H767 0.950 . S
C779 C775 1.393 . S
C779 C778 1.391 . S
H780 C788 0.950 . S
H781 C793 0.950 . S
H782 C790 0.950 . S
H783 C792 0.950 . S
H784 C794 0.950 . S
H785 C796 0.950 . S
H786 C798 0.950 . S
H787 C799 0.950 . S
C788 H780 0.950 . S
C788 C789 1.386 . S
C788 C790 1.391 . S
C789 C788 1.386 . S
C789 C793 1.393 . S
C790 H782 0.950 . S
C790 C788 1.391 . S
C790 C791 1.400 . S
C791 C790 1.400 . S
C791 C792 1.398 . S
C791 C797 1.491 . S
C792 H783 0.950 . S
C792 C791 1.398 . S
C792 C793 1.391 . S
C793 H781 0.950 . S
C793 C789 1.393 . S
C793 C792 1.391 . S
C794 H784 0.950 . S
C794 C795 1.386 . S
C794 C796 1.391 . S
C795 C794 1.386 . S
C795 C799 1.393 . S
C796 H785 0.950 . S
C796 C794 1.391 . S
C796 C797 1.400 . S
C797 C791 1.491 . S
C797 C796 1.400 . S
C797 C798 1.398 . S
C798 H786 0.950 . S
C798 C797 1.398 . S
C798 C799 1.391 . S
C799 H787 0.950 . S
C799 C795 1.393 . S
C799 C798 1.391 . S
H800 C808 0.950 . S
H801 C813 0.950 . S
H802 C810 0.950 . S
H803 C812 0.950 . S
H804 C814 0.950 . S
H805 C816 0.950 . S
H806 C818 0.950 . S
H807 C819 0.950 . S
C808 H800 0.950 . S
C808 C809 1.386 . S
C808 C810 1.391 . S
C809 C808 1.386 . S
C809 C813 1.393 . S
C810 H802 0.950 . S
C810 C808 1.391 . S
C810 C811 1.400 . S
C811 C810 1.400 . S
C811 C812 1.398 . S
C811 C817 1.491 . S
C812 H803 0.950 . S
C812 C811 1.398 . S
C812 C813 1.391 . S
C813 H801 0.950 . S
C813 C809 1.393 . S
C813 C812 1.391 . S
C814 H804 0.950 . S
C814 C815 1.386 . S
C814 C816 1.391 . S
C815 C814 1.386 . S
C815 C819 1.393 . S
C816 H805 0.950 . S
C816 C814 1.391 . S
C816 C817 1.400 . S
C817 C811 1.491 . S
C817 C816 1.400 . S
C817 C818 1.398 . S
C818 H806 0.950 . S
C818 C817 1.398 . S
C818 C819 1.391 . S
C819 H807 0.950 . S
C819 C815 1.393 . S
C819 C818 1.391 . S
H820 C828 0.950 . S
H821 C833 0.950 . S
H822 C830 0.950 . S
H823 C832 0.950 . S
H824 C834 0.950 . S
H825 C836 0.950 . S
H826 C838 0.950 . S
H827 C839 0.950 . S
C828 H820 0.950 . S
C828 C829 1.386 . S
C828 C830 1.391 . S
C829 C828 1.386 . S
C829 C833 1.393 . S
C830 H822 0.950 . S
C830 C828 1.391 . S
C830 C831 1.400 . S
C831 C830 1.400 . S
C831 C832 1.398 . S
C831 C837 1.491 . S
C832 H823 0.950 . S
C832 C831 1.398 . S
C832 C833 1.391 . S
C833 H821 0.950 . S
C833 C829 1.393 . S
C833 C832 1.391 . S
C834 H824 0.950 . S
C834 C835 1.386 . S
C834 C836 1.391 . S
C835 C834 1.386 . S
C835 C839 1.393 . S
C836 H825 0.950 . S
C836 C834 1.391 . S
C836 C837 1.400 . S
C837 C831 1.491 . S
C837 C836 1.400 . S
C837 C838 1.398 . S
C838 H826 0.950 . S
C838 C837 1.398 . S
C838 C839 1.391 . S
C839 H827 0.950 . S
C839 C835 1.393 . S
C839 C838 1.391 . S
H840 C848 0.950 . S
H841 C853 0.950 . S
H842 C850 0.950 . S
H843 C852 0.950 . S
H844 C854 0.950 . S
H845 C856 0.950 . S
H846 C858 0.950 . S
H847 C859 0.950 . S
C848 H840 0.950 . S
C848 C849 1.386 . S
C848 C850 1.391 . S
C849 C848 1.386 . S
C849 C853 1.393 . S
C850 H842 0.950 . S
C850 C848 1.391 . S
C850 C851 1.400 . S
C851 C850 1.400 . S
C851 C852 1.398 . S
C851 C857 1.491 . S
C852 H843 0.950 . S
C852 C851 1.398 . S
C852 C853 1.391 . S
C853 H841 0.950 . S
C853 C849 1.393 . S
C853 C852 1.391 . S
C854 H844 0.950 . S
C854 C855 1.386 . S
C854 C856 1.391 . S
C855 C854 1.386 . S
C855 C859 1.393 . S
C856 H845 0.950 . S
C856 C854 1.391 . S
C856 C857 1.400 . S
C857 C851 1.491 . S
C857 C856 1.400 . S
C857 C858 1.398 . S
C858 H846 0.950 . S
C858 C857 1.398 . S
C858 C859 1.391 . S
C859 H847 0.950 . S
C859 C855 1.393 . S
C859 C858 1.391 . S
H860 C868 0.950 . S
H861 C873 0.950 . S
H862 C870 0.950 . S
H863 C872 0.950 . S
H864 C874 0.950 1_554 S
H865 C876 0.950 . S
H866 C878 0.950 . S
H867 C879 0.950 . S
C868 H860 0.950 . S
C868 C869 1.386 1_556 S
C868 C870 1.391 . S
C869 C868 1.386 1_554 S
C869 C873 1.393 . S
C870 H862 0.950 . S
C870 C868 1.391 . S
C870 C871 1.406 . S
C871 C870 1.406 . S
C871 C872 1.390 1_556 S
C871 C877 1.493 . S
C872 H863 0.950 . S
C872 C871 1.390 1_554 S
C872 C873 1.391 . S
C873 H861 0.950 . S
C873 C869 1.393 . S
C873 C872 1.391 . S
C874 H864 0.950 1_556 S
C874 C875 1.386 . S
C874 C876 1.391 1_556 S
C875 C874 1.386 . S
C875 C879 1.393 . S
C876 H865 0.950 . S
C876 C874 1.391 1_554 S
C876 C877 1.400 1_554 S
C877 C871 1.493 . S
C877 C876 1.400 1_556 S
C877 C878 1.398 . S
C878 H866 0.950 . S
C878 C877 1.398 . S
C878 C879 1.391 . S
C879 H867 0.950 . S
C879 C875 1.393 . S
C879 C878 1.391 . S
C409 C7 1.575 . S
C415 C104 1.507 1_565 S
C429 C37 1.518 . S
C435 C143 1.401 . S
C449 C54 1.708 . S
C455 C182 1.603 . S
C475 C206 1.488 . S
C469 C87 1.507 . S
C495 C245 1.456 . S
C489 C30 1.529 . S
C509 C51 1.519 . S
C515 C284 1.506 . S
C529 C84 1.755 . S
C535 C338 1.638 . S
C549 C10 1.469 1_556 S
C555 C362 1.379 . S
C569 C59 1.588 . S
C575 C377 1.531 . S
C595 C260 1.365 . S
C589 C74 1.477 . S
C615 C299 1.639 . S
C609 C18 1.754 . S
C629 C32 1.497 . S
C635 C323 1.465 . S
C655 C128 1.515 . S
C649 C73 1.586 . S
C669 C15 1.507 . S
C675 C167 1.504 . S
C695 C221 1.650 . S
C689 C43 1.765 . S
C715 C89 1.387 . S
C709 C62 1.475 . S
C735 C343 1.524 . S
C729 C21 1.574 . S
C755 C382 1.348 . S
C749 C29 1.361 . S
C769 C52 1.313 . S
C775 C265 1.283 . S
C795 C304 1.486 . S
C789 C81 1.558 . S
C815 C187 1.476 . S
C809 C40 1.517 . S
C829 C65 1.542 . S
C835 C226 1.473 . S
C855 C109 1.299 . S
C849 C76 1.336 . S
C875 C148 1.326 . S
C869 C8 1.365 . S
