# Generated by pormake.
# Topology ftw, (4,12)-cn, num edge types: 1
# Building blocks:
#     Node 0, Type 0, BuildingBlock: KUFVIS_clean_linker_0, # of connection points: 4
#     Node 1, Type 0, BuildingBlock: KUFVIS_clean_linker_0, # of connection points: 4
#     Node 2, Type 0, BuildingBlock: KUFVIS_clean_linker_0, # of connection points: 4
#     Node 3, Type 1, BuildingBlock: QEWDON_clean_sbu_0, # of connection points: 12
#     Edge 4, Type (0, 1), BuildingBlock: EZIPEK_clean_linker_0, # of connection points: 2
#     Edge 5, Type (0, 1), BuildingBlock: EZIPEK_clean_linker_0, # of connection points: 2
#     Edge 6, Type (0, 1), BuildingBlock: EZIPEK_clean_linker_0, # of connection points: 2
#     Edge 7, Type (0, 1), BuildingBlock: EZIPEK_clean_linker_0, # of connection points: 2
#     Edge 8, Type (0, 1), BuildingBlock: EZIPEK_clean_linker_0, # of connection points: 2
#     Edge 9, Type (0, 1), BuildingBlock: EZIPEK_clean_linker_0, # of connection points: 2
#     Edge 10, Type (0, 1), BuildingBlock: EZIPEK_clean_linker_0, # of connection points: 2
#     Edge 11, Type (0, 1), BuildingBlock: EZIPEK_clean_linker_0, # of connection points: 2
#     Edge 12, Type (0, 1), BuildingBlock: EZIPEK_clean_linker_0, # of connection points: 2
#     Edge 13, Type (0, 1), BuildingBlock: EZIPEK_clean_linker_0, # of connection points: 2
#     Edge 14, Type (0, 1), BuildingBlock: EZIPEK_clean_linker_0, # of connection points: 2
#     Edge 15, Type (0, 1), BuildingBlock: EZIPEK_clean_linker_0, # of connection points: 2
# Relax obj value: 0.104
# Max RMSD: 0.253
# Mean RMSD: 0.192
data_MOF--net-ftw--node1-QEWDON_clean_sbu_0--node2-KUFVIS_clean_linker_0--edge1-EZIPEK_clean_linker_0
_symmetry_space_group_name_H-M    P1
_symmetry_Int_Tables_number       1
_symmetry_cell_setting            triclinic
loop_
_symmetry_equiv_pos_as_xyz
'x, y, z'
_cell_length_a     17.90613
_cell_length_b     20.367368
_cell_length_c     19.273244
_cell_angle_alpha  90.199712
_cell_angle_beta   89.980714
_cell_angle_gamma 89.981651
loop_
_atom_site_label
_atom_site_type_symbol
_atom_site_fract_x
_atom_site_fract_y
_atom_site_fract_z
_atom_type_partial_charge
H0 H 0.00466 0.27352 0.51064 0.0
H1 H -0.01498 0.45139 0.62305 0.0
H2 H -0.01793 0.45148 0.39928 0.0
H3 H 0.9629 0.55222 0.39807 0.0
H4 H -0.00397 0.73062 0.5115 0.0
H5 H 0.97127 0.55229 0.62295 0.0
C6 C -0.00714 0.3256 0.50951 0.0
C7 C 0.97295 0.35674 0.44698 0.0
C8 C -0.00488 0.35966 0.57257 0.0
C9 C -0.01536 0.42787 0.57297 0.0
C10 C 0.97782 0.46373 0.51024 0.0
C11 C 0.9765 0.42646 0.44754 0.0
C12 C 0.97484 0.53892 0.51017 0.0
C13 C 0.97144 0.57577 0.44755 0.0
C14 C -0.01885 0.64469 0.44691 0.0
C15 C -0.01174 0.67783 0.51058 0.0
C16 C -0.01907 0.64433 0.5734 0.0
C17 C 0.97561 0.57553 0.57304 0.0
H18 H 0.47528 0.99566 0.76653 0.0
H19 H 0.59995 0.97894 0.5779 0.0
H20 H 0.36036 0.01221 0.57335 0.0
H21 H 0.36707 0.96576 0.47205 0.0
H22 H 0.48433 0.00036 0.28232 0.0
H23 H 0.59863 0.02652 0.47589 0.0
C24 C 0.47671 0.99529 0.71023 0.0
C25 C 0.41005 0.00054 0.67313 0.0
C26 C 0.54518 0.98966 0.67595 0.0
C27 C 0.54674 0.98712 0.60304 0.0
C28 C 0.48055 0.99551 0.56377 0.0
C29 C 0.41227 0.00334 0.60036 0.0
C30 C 0.48249 0.99635 0.48549 0.0
C31 C 0.41812 0.9807 0.44663 0.0
C32 C 0.41738 0.9857 0.37402 0.0
C33 C 0.48405 -0.00074 0.33856 0.0
C34 C 0.5503 0.01137 0.37543 0.0
C35 C 0.54812 0.0131 0.44858 0.0
H36 H 0.51342 0.7209 1.00236 0.0
H37 H 0.60033 0.52836 0.04027 0.0
H38 H 0.37389 0.55355 0.96766 0.0
H39 H 0.36203 0.46616 0.04496 0.0
H40 H 0.44587 0.27316 1.00158 0.0
H41 H 0.58581 0.43948 0.9659 0.0
C42 C 0.50619 0.66798 1.00153 0.0
C43 C 0.4373 0.64114 0.98483 0.0
C44 C 0.56509 0.62682 0.01948 0.0
C45 C 0.55474 0.55928 0.02297 0.0
C46 C 0.48595 0.53231 1.00327 0.0
C47 C 0.42771 0.57347 0.98262 0.0
C48 C 0.47472 0.46146 1.00379 0.0
C49 C 0.40655 0.43489 0.02577 0.0
C50 C 0.39493 0.36751 0.02094 0.0
C51 C 0.45333 0.32605 1.00134 0.0
C52 C 0.52241 0.3523 0.98453 0.0
C53 C 0.53222 0.41991 0.98189 0.0
Zn54 Zn 0.07332 0.08292 0.96105 0.0
Zn55 Zn 0.07587 0.09796 0.13161 0.0
O56 O 0.05124 0.03514 0.05263 0.0
H57 H 0.05029 0.98802 0.05471 0.0
C58 C 0.02333 0.19686 0.81903 0.0
O59 O 0.0843 0.16553 0.8369 0.0
Zn60 Zn 0.88993 0.89694 0.13204 0.0
Zn61 Zn 0.88499 0.90961 0.96137 0.0
O62 O 0.90981 0.95906 0.05099 0.0
H63 H 0.91327 0.00623 0.05215 0.0
Zn64 Zn 0.91574 0.13108 0.93401 0.0
O65 O 0.95166 0.12754 0.03594 0.0
Zn66 Zn 0.86306 0.12212 0.10305 0.0
H67 H -0.00507 0.15392 0.04649 0.0
Zn68 Zn 0.05585 0.87923 0.93862 0.0
O69 O 0.01655 0.87246 0.03973 0.0
H70 H 0.02874 0.87534 0.99103 0.0
Zn71 Zn 0.10566 0.87555 0.10643 0.0
C72 C 0.9623 0.79926 0.82755 0.0
O73 O 0.9006 0.80212 0.86404 0.0
O74 O 0.13377 0.16716 0.97872 0.0
O75 O 0.13715 0.16692 0.09399 0.0
O76 O 0.82161 0.82953 0.98389 0.0
O77 O 0.82875 0.8244 0.09876 0.0
O78 O 0.80959 0.1651 0.93786 0.0
O79 O 0.77637 0.15256 0.04869 0.0
C80 C 0.15702 0.99778 0.20233 0.0
O81 O 0.15829 0.83822 0.94035 0.0
O82 O 0.19221 0.84599 0.05129 0.0
O83 O 0.84146 0.95218 0.8717 0.0
C84 C 0.15573 0.19098 0.03622 0.0
O85 O 0.11317 0.03613 0.87135 0.0
C86 C 0.81079 0.0009 0.2023 0.0
O87 O 0.96245 0.18673 0.85164 0.0
C88 C 0.80483 0.80297 0.04126 0.0
O89 O 0.021 0.82751 0.8495 0.0
C90 C 0.94453 0.18635 0.2054 0.0
O91 O 0.14118 0.05834 0.20253 0.0
O92 O 0.12625 0.96282 0.15516 0.0
C93 C 0.76283 0.17076 0.98697 0.0
O94 O 0.82701 0.94023 0.20376 0.0
O95 O 0.84148 0.03517 0.15442 0.0
C96 C 0.02401 0.81156 0.20516 0.0
O97 O 0.87958 0.18616 0.17955 0.0
O98 O -0.00478 0.15215 0.1768 0.0
C99 C 0.20449 0.82867 0.98899 0.0
O100 O 0.09074 0.8116 0.1838 0.0
O101 O 0.97758 0.84741 0.17261 0.0
C102 C 0.78501 0.98969 0.87628 0.0
O103 O 0.76418 0.01065 0.93781 0.0
C104 C 0.17308 0.00291 0.87449 0.0
O105 O 0.20003 0.98793 0.93578 0.0
C106 C 0.95053 0.34058 0.31391 0.0
C107 C 0.95477 0.31479 0.38252 0.0
C108 C 0.95316 0.20312 0.33276 0.0
C109 C 0.96042 0.22939 0.26556 0.0
N110 N 0.97597 0.32335 0.19169 0.0
N111 N 0.90126 0.22383 0.44529 0.0
C112 C 0.96291 0.29823 0.25614 0.0
C113 C 0.94028 0.24616 0.38938 0.0
N114 N 0.91839 0.40028 0.30273 0.0
N115 N 0.95716 0.13685 0.34273 0.0
H116 H 0.87682 0.25619 0.48057 0.0
H117 H 0.88347 0.17535 0.4504 0.0
H118 H 0.96582 0.10367 0.30211 0.0
H119 H 0.95894 0.11592 0.39202 0.0
H120 H 0.90985 0.41971 0.25341 0.0
H121 H 0.88687 0.42348 0.34119 0.0
H122 H -0.01502 0.37327 0.18322 0.0
H123 H -0.01509 0.29348 0.14832 0.0
C124 C 0.68294 0.97607 0.35088 0.0
C125 C 0.62285 0.01949 0.33739 0.0
C126 C 0.69703 0.06974 0.24353 0.0
C127 C 0.75623 0.02491 0.25693 0.0
N128 N 0.81655 0.96244 0.34636 0.0
N129 N 0.5821 0.12056 0.28482 0.0
C130 C 0.75265 0.98731 0.31856 0.0
C131 C 0.63271 0.07044 0.28784 0.0
N132 N 0.67294 0.92146 0.39081 0.0
N133 N 0.70181 0.11144 0.18895 0.0
H134 H 0.53605 0.12338 0.31787 0.0
H135 H 0.58937 0.16222 0.2544 0.0
H136 H 0.75218 0.11954 0.16433 0.0
H137 H 0.65693 0.13835 0.16972 0.0
H138 H 0.71406 0.88555 0.39623 0.0
H139 H 0.62155 0.90826 0.41201 0.0
H140 H 0.81756 0.93844 0.39406 0.0
H141 H 0.86884 0.97387 0.32563 0.0
C142 C 0.03001 0.66346 0.32345 0.0
C143 C -0.01613 0.68329 0.38007 0.0
C144 C 0.96269 0.78855 0.32112 0.0
C145 C 0.00178 0.76579 0.26191 0.0
N146 N 0.05129 0.67239 0.19981 0.0
N147 N 0.88545 0.75688 0.4178 0.0
C148 C 0.02824 0.70011 0.26075 0.0
C149 C 0.94357 0.74339 0.37423 0.0
N150 N 0.07981 0.61312 0.33036 0.0
N151 N 0.9478 0.8537 0.32955 0.0
H152 H 0.86529 0.72263 0.45321 0.0
H153 H 0.85202 0.79852 0.4124 0.0
H154 H 0.96215 0.88905 0.29291 0.0
H155 H 0.92885 0.87266 0.37669 0.0
H156 H 0.11816 0.60083 0.29171 0.0
H157 H 0.08958 0.58918 0.37712 0.0
H158 H 0.06536 0.62286 0.19548 0.0
H159 H 0.04769 0.69695 0.15249 0.0
C160 C 0.28642 0.02409 0.34961 0.0
C161 C 0.34529 0.97934 0.33567 0.0
C162 C 0.26929 0.92844 0.24389 0.0
C163 C 0.21134 0.97472 0.257 0.0
N164 N 0.15331 0.04266 0.34429 0.0
N165 N 0.38391 0.87695 0.28403 0.0
C166 C 0.21622 0.01423 0.31761 0.0
C167 C 0.33409 0.92774 0.2871 0.0
N168 N 0.29833 0.07842 0.38994 0.0
N169 N 0.26291 0.88533 0.19046 0.0
H170 H 0.43085 0.8744 0.31596 0.0
H171 H 0.37539 0.83465 0.25461 0.0
H172 H 0.21169 0.87616 0.16812 0.0
H173 H 0.30713 0.85782 0.1706 0.0
H174 H 0.25872 0.11559 0.39566 0.0
H175 H 0.35006 0.08997 0.41157 0.0
H176 H 0.15288 0.06855 0.39106 0.0
H177 H 0.10045 0.03336 0.32356 0.0
C178 C 0.91297 0.7239 0.65168 0.0
C179 C 0.97546 0.68229 0.63986 0.0
C180 C 0.02291 0.71007 0.75574 0.0
C181 C 0.96605 0.75847 0.76324 0.0
N182 N 0.86537 0.82 0.71127 0.0
N183 N 0.0967 0.64404 0.67642 0.0
C184 C 0.91328 0.76777 0.70925 0.0
C185 C 0.03246 0.67771 0.69072 0.0
N186 N 0.85184 0.71971 0.60951 0.0
N187 N 0.06556 0.69254 0.81152 0.0
H188 H 0.10603 0.62012 0.62927 0.0
H189 H 0.14327 0.64493 0.7088 0.0
H190 H 0.05822 0.71249 0.86094 0.0
H191 H 0.10266 0.65313 0.81058 0.0
H192 H 0.80212 0.74462 0.61946 0.0
H193 H 0.84789 0.68576 0.56906 0.0
H194 H 0.83121 0.83283 0.6697 0.0
H195 H 0.86505 0.85439 0.75147 0.0
C196 C 0.32845 0.06216 0.75575 0.0
C197 C 0.33889 0.00623 0.71296 0.0
C198 C 0.22742 0.95532 0.76452 0.0
C199 C 0.22549 0.00607 0.81497 0.0
N200 N 0.2764 0.10683 0.86166 0.0
N201 N 0.30068 0.89748 0.67765 0.0
C202 C 0.27623 0.05956 0.81105 0.0
C203 C 0.28828 0.95251 0.71676 0.0
N204 N 0.3683 0.11806 0.74283 0.0
N205 N 0.17124 0.91 0.76248 0.0
H206 H 0.34408 0.89378 0.64178 0.0
H207 H 0.2709 0.85398 0.68372 0.0
H208 H 0.12683 0.91078 0.79752 0.0
H209 H 0.16532 0.87537 0.72298 0.0
H210 H 0.35851 0.16259 0.76792 0.0
H211 H 0.40633 0.1216 0.70195 0.0
H212 H 0.31819 0.14207 0.86665 0.0
H213 H 0.23748 0.10844 0.90182 0.0
C214 C 0.94972 0.27204 0.65348 0.0
C215 C 0.00294 0.3215 0.63857 0.0
C216 C 0.07093 0.29148 0.74492 0.0
C217 C 0.02154 0.23758 0.75476 0.0
N218 N 0.93147 0.16472 0.70242 0.0
N219 N 0.1221 0.37129 0.66443 0.0
C220 C 0.96603 0.22438 0.70437 0.0
C221 C 0.06588 0.32949 0.68282 0.0
N222 N 0.88197 0.2719 0.62106 0.0
N223 N 0.12143 0.30743 0.79523 0.0
H224 H 0.12088 0.39914 0.61917 0.0
H225 H 0.17266 0.37423 0.69095 0.0
H226 H 0.12854 0.27961 0.83993 0.0
H227 H 0.15259 0.35058 0.79472 0.0
H228 H 0.83947 0.23911 0.634 0.0
H229 H 0.86546 0.30934 0.58759 0.0
H230 H 0.89727 0.15058 0.6612 0.0
H231 H 0.94467 0.12687 0.73665 0.0
C232 C 0.66665 0.03801 0.71999 0.0
C233 C 0.61446 0.98533 0.71867 0.0
C234 C 0.6745 0.93654 0.82046 0.0
C235 C 0.72877 0.98734 0.81991 0.0
N236 N 0.78513 0.07972 0.76303 0.0
N237 N 0.57961 0.87698 0.75662 0.0
C238 C 0.72783 0.03575 0.76733 0.0
C239 C 0.62201 0.9322 0.76552 0.0
N240 N 0.65545 0.09182 0.67904 0.0
N241 N 0.67139 0.89355 0.87478 0.0
H242 H 0.54173 0.87162 0.71586 0.0
H243 H 0.58717 0.83417 0.78517 0.0
H244 H 0.70997 0.89343 0.91526 0.0
H245 H 0.62721 0.86117 0.88261 0.0
H246 H 0.68658 0.13481 0.68308 0.0
H247 H 0.61123 0.0958 0.64419 0.0
H248 H 0.79108 0.11252 0.7222 0.0
H249 H 0.82961 0.08016 0.798 0.0
C250 C 0.32373 0.28826 0.08878 0.0
C251 C 0.323 0.33783 0.03802 0.0
C252 C 0.20047 0.30142 0.99958 0.0
C253 C 0.21139 0.24297 0.03763 0.0
N254 N 0.29329 0.17513 0.108 0.0
N255 N 0.2623 0.39015 0.94032 0.0
C256 C 0.27525 0.23488 0.08036 0.0
C257 C 0.26122 0.34509 0.99263 0.0
N258 N 0.37383 0.29054 0.14212 0.0
N259 N 0.13246 0.31573 0.97146 0.0
H260 H 0.30593 0.42309 0.9326 0.0
H261 H 0.22173 0.39168 0.90161 0.0
H262 H 0.08627 0.28492 0.97663 0.0
H263 H 0.12052 0.36088 0.94866 0.0
H264 H 0.37312 0.25711 0.18299 0.0
H265 H 0.41058 0.32992 0.14856 0.0
H266 H 0.34301 0.16676 0.13467 0.0
H267 H 0.26381 0.13215 0.09722 0.0
C268 C 0.36767 0.72887 0.92317 0.0
C269 C 0.37292 0.68428 0.97923 0.0
C270 C 0.25613 0.72327 0.02604 0.0
C271 C 0.25944 0.77699 0.97959 0.0
N272 N 0.31775 0.83278 0.88352 0.0
N273 N 0.32958 0.64744 0.09196 0.0
C274 C 0.31452 0.78016 0.92717 0.0
C275 C 0.31913 0.68342 0.03291 0.0
N276 N 0.41288 0.72164 0.86656 0.0
N277 N 0.19223 0.70925 0.06207 0.0
H278 H 0.37689 0.61891 0.1011 0.0
H279 H 0.29451 0.65143 0.13499 0.0
H280 H 0.14225 0.73466 0.05467 0.0
H281 H 0.18647 0.66738 0.0926 0.0
H282 H 0.40696 0.74926 0.82153 0.0
H283 H 0.45206 0.68386 0.86242 0.0
H284 H 0.36112 0.84037 0.84844 0.0
H285 H 0.27958 0.87138 0.88575 0.0
C286 C 0.64196 0.31256 0.0322 0.0
C287 C 0.58686 0.30882 0.97974 0.0
C288 C 0.64688 0.21235 0.92954 0.0
C289 C 0.70418 0.21948 0.97939 0.0
N290 N 0.77034 0.2909 0.05956 0.0
N291 N 0.5437 0.26503 0.8704 0.0
C292 C 0.70631 0.27428 0.02488 0.0
C293 C 0.59143 0.26174 0.92556 0.0
N294 N 0.63158 0.34984 0.09063 0.0
N295 N 0.64418 0.1579 0.88807 0.0
H296 H 0.50298 0.30144 0.86592 0.0
H297 H 0.54869 0.23538 0.82651 0.0
H298 H 0.68452 0.12104 0.89002 0.0
H299 H 0.59948 0.14712 0.85541 0.0
H300 H 0.66789 0.34822 0.13289 0.0
H301 H 0.58319 0.37678 0.10043 0.0
H302 H 0.77529 0.33382 0.08887 0.0
H303 H 0.82098 0.2664 0.05245 0.0
C304 C 0.69348 0.65666 0.98331 0.0
C305 C 0.63716 0.65648 0.03479 0.0
C306 C 0.69097 0.75133 0.09111 0.0
C307 C 0.75045 0.74962 0.04222 0.0
N308 N 0.81969 0.68868 0.95551 0.0
N309 N 0.59529 0.68828 0.14869 0.0
C310 C 0.75557 0.6983 0.99259 0.0
C311 C 0.6414 0.69799 0.09322 0.0
N312 N 0.68581 0.62021 0.92407 0.0
N313 N 0.67685 0.80601 0.13048 0.0
H314 H 0.55753 0.64925 0.15056 0.0
H315 H 0.60033 0.71465 0.19493 0.0
H316 H 0.70551 0.85019 0.12508 0.0
H317 H 0.63005 0.81037 0.16234 0.0
H318 H 0.7211 0.62532 0.88142 0.0
H319 H 0.64133 0.58815 0.91558 0.0
H320 H 0.82737 0.64896 0.92201 0.0
H321 H 0.86805 0.71597 0.96433 0.0
loop_
_geom_bond_atom_site_label_1
_geom_bond_atom_site_label_2
_geom_bond_distance
_geom_bond_site_symmetry_2
_ccdc_geom_bond_type
H0 C6 0.930 1_655 S
H1 C9 0.931 . S
H2 C11 0.931 . S
H3 C13 0.930 . S
H4 C15 0.930 . S
H5 C17 0.931 . S
C6 H0 0.930 1_455 S
C6 C7 1.380 1_455 S
C6 C8 1.394 . S
C7 C6 1.380 1_655 S
C7 C11 1.382 . S
C8 C6 1.394 . S
C8 C9 1.400 . S
C9 H1 0.931 . S
C9 C8 1.400 . S
C9 C10 1.375 . S
C10 C9 1.375 . S
C10 C11 1.415 1_455 S
C10 C12 1.501 . S
C11 H2 0.931 . S
C11 C7 1.382 . S
C11 C10 1.415 1_655 S
C12 C10 1.501 . S
C12 C13 1.384 . S
C12 C17 1.408 1_455 S
C13 H3 0.930 . S
C13 C12 1.384 . S
C13 C14 1.389 . S
C14 C13 1.389 . S
C14 C15 1.405 . S
C15 H4 0.930 . S
C15 C14 1.405 . S
C15 C16 1.364 1_455 S
C16 C15 1.364 1_655 S
C16 C17 1.400 . S
C17 H5 0.931 . S
C17 C12 1.408 1_655 S
C17 C16 1.400 . S
H18 C24 0.930 . S
H19 C27 0.931 . S
H20 C29 0.931 . S
H21 C31 0.930 . S
H22 C33 0.930 . S
H23 C35 0.931 . S
C24 H18 0.930 . S
C24 C25 1.380 . S
C24 C26 1.394 1_545 S
C25 C24 1.380 . S
C25 C29 1.382 . S
C26 C24 1.394 1_565 S
C26 C27 1.400 . S
C27 H19 0.931 . S
C27 C26 1.400 . S
C27 C28 1.375 . S
C28 C27 1.375 . S
C28 C29 1.415 1_565 S
C28 C30 1.501 . S
C29 H20 0.931 . S
C29 C25 1.382 . S
C29 C28 1.415 1_545 S
C30 C28 1.501 . S
C30 C31 1.384 . S
C30 C35 1.408 1_565 S
C31 H21 0.930 . S
C31 C30 1.384 . S
C31 C32 1.389 . S
C32 C31 1.389 . S
C32 C33 1.405 . S
C33 H22 0.930 . S
C33 C32 1.405 . S
C33 C34 1.364 1_565 S
C34 C33 1.364 1_545 S
C34 C35 1.400 . S
C35 H23 0.931 . S
C35 C30 1.408 1_545 S
C35 C34 1.400 . S
H36 C42 0.930 . S
H37 C45 0.931 . S
H38 C47 0.931 . S
H39 C49 0.930 . S
H40 C51 0.930 . S
H41 C53 0.931 . S
C42 H36 0.930 . S
C42 C43 1.380 . S
C42 C44 1.394 . S
C43 C42 1.380 . S
C43 C47 1.382 . S
C44 C42 1.394 . S
C44 C45 1.400 . S
C45 H37 0.931 . S
C45 C44 1.400 . S
C45 C46 1.375 . S
C46 C45 1.375 . S
C46 C47 1.415 . S
C46 C48 1.501 . S
C47 H38 0.931 . S
C47 C43 1.382 . S
C47 C46 1.415 . S
C48 C46 1.501 . S
C48 C49 1.384 . S
C48 C53 1.408 . S
C49 H39 0.930 . S
C49 C48 1.384 . S
C49 C50 1.389 . S
C50 C49 1.389 . S
C50 C51 1.405 . S
C51 H40 0.930 . S
C51 C50 1.405 . S
C51 C52 1.364 . S
C52 C51 1.364 . S
C52 C53 1.400 . S
C53 H41 0.931 . S
C53 C48 1.408 . S
C53 C52 1.400 . S
Zn54 O56 1.933 1_556 S
Zn54 O74 1.985 . S
Zn54 O85 1.955 . S
Zn55 O56 1.911 . S
Zn55 O75 1.970 . S
Zn55 O91 1.945 . S
Zn55 O98 1.981 . S
O56 Zn54 1.933 1_554 S
O56 Zn55 1.911 . S
O56 H57 0.841 . S
H57 O56 0.841 . S
C58 O59 1.246 . S
C58 O87 1.276 1_455 S
O59 C58 1.246 . S
Zn60 O62 1.911 . S
Zn60 O77 1.970 . S
Zn60 O94 1.945 . S
Zn60 O101 1.981 . S
Zn61 O62 1.933 1_556 S
Zn61 O76 1.985 . S
Zn61 O83 1.955 . S
O62 Zn60 1.911 . S
O62 Zn61 1.933 1_554 S
O62 H63 0.841 . S
H63 O62 0.841 . S
Zn64 O65 1.933 1_556 S
Zn64 O78 1.985 . S
Zn64 O87 1.955 . S
O65 Zn64 1.933 1_554 S
O65 Zn66 1.911 . S
O65 H67 0.841 . S
Zn66 O65 1.911 . S
Zn66 O79 1.970 . S
Zn66 O95 1.981 . S
Zn66 O97 1.945 . S
H67 O65 0.841 . S
Zn68 O69 1.933 1_556 S
Zn68 O81 1.985 . S
Zn68 O89 1.955 . S
O69 Zn68 1.933 1_554 S
O69 H70 0.841 . S
O69 Zn71 1.911 . S
H70 O69 0.841 . S
Zn71 O69 1.911 . S
Zn71 O82 1.970 . S
Zn71 O92 1.981 . S
Zn71 O100 1.945 . S
C72 O73 1.246 . S
C72 O89 1.276 1_655 S
O73 C72 1.246 . S
O74 Zn54 1.985 . S
O74 C84 1.245 1_556 S
O75 Zn55 1.970 . S
O75 C84 1.263 . S
O76 Zn61 1.985 . S
O76 C88 1.245 1_556 S
O77 Zn60 1.970 . S
O77 C88 1.263 . S
O78 Zn64 1.985 . S
O78 C93 1.245 1_556 S
O79 Zn66 1.970 . S
O79 C93 1.263 . S
C80 O91 1.263 . S
C80 O92 1.244 1_545 S
O81 Zn68 1.985 . S
O81 C99 1.245 1_556 S
O82 Zn71 1.970 . S
O82 C99 1.263 . S
O83 Zn61 1.955 . S
O83 C102 1.276 1_565 S
C84 O74 1.245 1_554 S
C84 O75 1.263 . S
O85 Zn54 1.955 . S
O85 C104 1.276 1_545 S
C86 O94 1.261 1_545 S
C86 O95 1.245 . S
O87 C58 1.276 1_655 S
O87 Zn64 1.955 . S
C88 O76 1.245 1_554 S
C88 O77 1.263 . S
O89 Zn68 1.955 . S
O89 C72 1.276 1_455 S
C90 O97 1.262 1_455 S
C90 O98 1.245 . S
O91 Zn55 1.945 . S
O91 C80 1.263 . S
O92 Zn71 1.981 . S
O92 C80 1.244 1_565 S
C93 O78 1.245 1_554 S
C93 O79 1.263 . S
O94 Zn60 1.945 . S
O94 C86 1.261 1_565 S
O95 Zn66 1.981 . S
O95 C86 1.245 . S
C96 O100 1.262 . S
C96 O101 1.245 1_455 S
O97 Zn66 1.945 . S
O97 C90 1.262 1_655 S
O98 Zn55 1.981 . S
O98 C90 1.245 . S
C99 O81 1.245 1_554 S
C99 O82 1.263 . S
O100 Zn71 1.945 . S
O100 C96 1.262 . S
O101 Zn60 1.981 . S
O101 C96 1.245 1_655 S
C102 O83 1.276 1_545 S
C102 O103 1.246 . S
O103 C102 1.246 . S
C104 O85 1.276 1_565 S
C104 O105 1.246 . S
O105 C104 1.246 . S
C106 C107 1.363 . S
C106 C112 1.379 1_655 S
C106 N114 1.356 . S
C107 C106 1.363 . S
C107 C113 1.363 1_655 S
C108 C109 1.363 . S
C108 C113 1.379 . S
C108 N115 1.356 . S
C109 C108 1.363 . S
C109 C112 1.363 . S
N110 C112 1.356 . S
N110 H122 0.984 1_455 S
N110 H123 0.985 . S
N111 C113 1.356 . S
N111 H116 0.984 . S
N111 H117 0.985 . S
C112 C106 1.379 1_455 S
C112 C109 1.363 . S
C112 N110 1.356 . S
C113 C107 1.363 1_455 S
C113 C108 1.379 . S
C113 N111 1.356 . S
N114 C106 1.356 . S
N114 H120 0.984 . S
N114 H121 0.984 . S
N115 C108 1.356 . S
N115 H118 0.984 . S
N115 H119 0.985 . S
H116 N111 0.984 . S
H117 N111 0.985 . S
H118 N115 0.984 . S
H119 N115 0.985 . S
H120 N114 0.984 . S
H121 N114 0.984 . S
H122 N110 0.984 1_655 S
H123 N110 0.985 . S
C124 C125 1.363 1_565 S
C124 C130 1.379 . S
C124 N132 1.356 . S
C125 C124 1.363 1_545 S
C125 C131 1.363 . S
C126 C127 1.363 . S
C126 C131 1.379 . S
C126 N133 1.356 . S
C127 C126 1.363 . S
C127 C130 1.363 1_545 S
N128 C130 1.356 . S
N128 H140 0.984 . S
N128 H141 0.985 . S
N129 C131 1.356 . S
N129 H134 0.984 . S
N129 H135 0.985 . S
C130 C124 1.379 . S
C130 C127 1.363 1_565 S
C130 N128 1.356 . S
C131 C125 1.363 . S
C131 C126 1.379 . S
C131 N129 1.356 . S
N132 C124 1.356 . S
N132 H138 0.984 . S
N132 H139 0.984 . S
N133 C126 1.356 . S
N133 H136 0.984 . S
N133 H137 0.985 . S
H134 N129 0.984 . S
H135 N129 0.985 . S
H136 N133 0.984 . S
H137 N133 0.985 . S
H138 N132 0.984 . S
H139 N132 0.984 . S
H140 N128 0.984 . S
H141 N128 0.985 . S
C142 C143 1.363 . S
C142 C148 1.379 . S
C142 N150 1.356 . S
C143 C142 1.363 . S
C143 C149 1.363 1_455 S
C144 C145 1.363 . S
C144 C149 1.379 . S
C144 N151 1.356 . S
C145 C144 1.363 . S
C145 C148 1.363 1_655 S
N146 C148 1.356 . S
N146 H158 0.984 . S
N146 H159 0.985 . S
N147 C149 1.356 . S
N147 H152 0.984 . S
N147 H153 0.985 . S
C148 C142 1.379 . S
C148 C145 1.363 1_455 S
C148 N146 1.356 . S
C149 C143 1.363 1_655 S
C149 C144 1.379 . S
C149 N147 1.356 . S
N150 C142 1.356 . S
N150 H156 0.984 . S
N150 H157 0.984 . S
N151 C144 1.356 . S
N151 H154 0.984 . S
N151 H155 0.985 . S
H152 N147 0.984 . S
H153 N147 0.985 . S
H154 N151 0.984 . S
H155 N151 0.985 . S
H156 N150 0.984 . S
H157 N150 0.984 . S
H158 N146 0.984 . S
H159 N146 0.985 . S
C160 C161 1.363 1_545 S
C160 C166 1.379 . S
C160 N168 1.356 . S
C161 C160 1.363 1_565 S
C161 C167 1.363 . S
C162 C163 1.363 . S
C162 C167 1.379 . S
C162 N169 1.356 . S
C163 C162 1.363 . S
C163 C166 1.363 1_565 S
N164 C166 1.356 . S
N164 H176 0.984 . S
N164 H177 0.985 . S
N165 C167 1.356 . S
N165 H170 0.984 . S
N165 H171 0.985 . S
C166 C160 1.379 . S
C166 C163 1.363 1_545 S
C166 N164 1.356 . S
C167 C161 1.363 . S
C167 C162 1.379 . S
C167 N165 1.356 . S
N168 C160 1.356 . S
N168 H174 0.984 . S
N168 H175 0.984 . S
N169 C162 1.356 . S
N169 H172 0.984 . S
N169 H173 0.985 . S
H170 N165 0.984 . S
H171 N165 0.985 . S
H172 N169 0.984 . S
H173 N169 0.985 . S
H174 N168 0.984 . S
H175 N168 0.984 . S
H176 N164 0.984 . S
H177 N164 0.985 . S
C178 C179 1.363 . S
C178 C184 1.379 . S
C178 N186 1.356 . S
C179 C178 1.363 . S
C179 C185 1.363 1_655 S
C180 C181 1.363 1_455 S
C180 C185 1.379 . S
C180 N187 1.356 . S
C181 C180 1.363 1_655 S
C181 C184 1.363 . S
N182 C184 1.356 . S
N182 H194 0.984 . S
N182 H195 0.985 . S
N183 C185 1.356 . S
N183 H188 0.984 . S
N183 H189 0.985 . S
C184 C178 1.379 . S
C184 C181 1.363 . S
C184 N182 1.356 . S
C185 C179 1.363 1_455 S
C185 C180 1.379 . S
C185 N183 1.356 . S
N186 C178 1.356 . S
N186 H192 0.984 . S
N186 H193 0.984 . S
N187 C180 1.356 . S
N187 H190 0.984 . S
N187 H191 0.985 . S
H188 N183 0.984 . S
H189 N183 0.985 . S
H190 N187 0.984 . S
H191 N187 0.985 . S
H192 N186 0.984 . S
H193 N186 0.984 . S
H194 N182 0.984 . S
H195 N182 0.985 . S
C196 C197 1.363 . S
C196 C202 1.379 . S
C196 N204 1.356 . S
C197 C196 1.363 . S
C197 C203 1.363 1_545 S
C198 C199 1.363 . S
C198 C203 1.379 . S
C198 N205 1.356 . S
C199 C198 1.363 . S
C199 C202 1.363 1_565 S
N200 C202 1.356 . S
N200 H212 0.984 . S
N200 H213 0.985 . S
N201 C203 1.356 . S
N201 H206 0.984 . S
N201 H207 0.985 . S
C202 C196 1.379 . S
C202 C199 1.363 1_545 S
C202 N200 1.356 . S
C203 C197 1.363 1_565 S
C203 C198 1.379 . S
C203 N201 1.356 . S
N204 C196 1.356 . S
N204 H210 0.984 . S
N204 H211 0.984 . S
N205 C198 1.356 . S
N205 H208 0.984 . S
N205 H209 0.985 . S
H206 N201 0.984 . S
H207 N201 0.985 . S
H208 N205 0.984 . S
H209 N205 0.985 . S
H210 N204 0.984 . S
H211 N204 0.984 . S
H212 N200 0.984 . S
H213 N200 0.985 . S
C214 C215 1.363 1_655 S
C214 C220 1.379 . S
C214 N222 1.356 . S
C215 C214 1.363 1_455 S
C215 C221 1.363 . S
C216 C217 1.363 . S
C216 C221 1.379 . S
C216 N223 1.356 . S
C217 C216 1.363 . S
C217 C220 1.363 1_455 S
N218 C220 1.356 . S
N218 H230 0.984 . S
N218 H231 0.985 . S
N219 C221 1.356 . S
N219 H224 0.984 . S
N219 H225 0.985 . S
C220 C214 1.379 . S
C220 C217 1.363 1_655 S
C220 N218 1.356 . S
C221 C215 1.363 . S
C221 C216 1.379 . S
C221 N219 1.356 . S
N222 C214 1.356 . S
N222 H228 0.984 . S
N222 H229 0.984 . S
N223 C216 1.356 . S
N223 H226 0.984 . S
N223 H227 0.985 . S
H224 N219 0.984 . S
H225 N219 0.985 . S
H226 N223 0.984 . S
H227 N223 0.985 . S
H228 N222 0.984 . S
H229 N222 0.984 . S
H230 N218 0.984 . S
H231 N218 0.985 . S
C232 C233 1.363 1_545 S
C232 C238 1.379 . S
C232 N240 1.356 . S
C233 C232 1.363 1_565 S
C233 C239 1.363 . S
C234 C235 1.363 1_565 S
C234 C239 1.379 . S
C234 N241 1.356 . S
C235 C234 1.363 1_545 S
C235 C238 1.363 . S
N236 C238 1.356 . S
N236 H248 0.984 . S
N236 H249 0.985 . S
N237 C239 1.356 . S
N237 H242 0.984 . S
N237 H243 0.985 . S
C238 C232 1.379 . S
C238 C235 1.363 . S
C238 N236 1.356 . S
C239 C233 1.363 . S
C239 C234 1.379 . S
C239 N237 1.356 . S
N240 C232 1.356 . S
N240 H246 0.984 . S
N240 H247 0.984 . S
N241 C234 1.356 . S
N241 H244 0.984 . S
N241 H245 0.985 . S
H242 N237 0.984 . S
H243 N237 0.985 . S
H244 N241 0.984 . S
H245 N241 0.985 . S
H246 N240 0.984 . S
H247 N240 0.984 . S
H248 N236 0.984 . S
H249 N236 0.985 . S
C250 C251 1.363 . S
C250 C256 1.379 . S
C250 N258 1.356 . S
C251 C250 1.363 . S
C251 C257 1.363 1_554 S
C252 C253 1.363 1_556 S
C252 C257 1.379 . S
C252 N259 1.356 . S
C253 C252 1.363 1_554 S
C253 C256 1.363 . S
N254 C256 1.356 . S
N254 H266 0.984 . S
N254 H267 0.985 . S
N255 C257 1.356 . S
N255 H260 0.984 . S
N255 H261 0.985 . S
C256 C250 1.379 . S
C256 C253 1.363 . S
C256 N254 1.356 . S
C257 C251 1.363 1_556 S
C257 C252 1.379 . S
C257 N255 1.356 . S
N258 C250 1.356 . S
N258 H264 0.984 . S
N258 H265 0.984 . S
N259 C252 1.356 . S
N259 H262 0.984 . S
N259 H263 0.985 . S
H260 N255 0.984 . S
H261 N255 0.985 . S
H262 N259 0.984 . S
H263 N259 0.985 . S
H264 N258 0.984 . S
H265 N258 0.984 . S
H266 N254 0.984 . S
H267 N254 0.985 . S
C268 C269 1.363 1_556 S
C268 C274 1.379 . S
C268 N276 1.356 . S
C269 C268 1.363 1_554 S
C269 C275 1.363 . S
C270 C271 1.363 . S
C270 C275 1.379 . S
C270 N277 1.356 . S
C271 C270 1.363 . S
C271 C274 1.363 1_554 S
N272 C274 1.356 . S
N272 H284 0.984 . S
N272 H285 0.985 . S
N273 C275 1.356 . S
N273 H278 0.984 . S
N273 H279 0.985 . S
C274 C268 1.379 . S
C274 C271 1.363 1_556 S
C274 N272 1.356 . S
C275 C269 1.363 . S
C275 C270 1.379 . S
C275 N273 1.356 . S
N276 C268 1.356 . S
N276 H282 0.984 . S
N276 H283 0.984 . S
N277 C270 1.356 . S
N277 H280 0.984 . S
N277 H281 0.985 . S
H278 N273 0.984 . S
H279 N273 0.985 . S
H280 N277 0.984 . S
H281 N277 0.985 . S
H282 N276 0.984 . S
H283 N276 0.984 . S
H284 N272 0.984 . S
H285 N272 0.985 . S
C286 C287 1.363 . S
C286 C292 1.379 . S
C286 N294 1.356 . S
C287 C286 1.363 . S
C287 C293 1.363 1_554 S
C288 C289 1.363 1_556 S
C288 C293 1.379 . S
C288 N295 1.356 . S
C289 C288 1.363 1_554 S
C289 C292 1.363 . S
N290 C292 1.356 . S
N290 H302 0.984 . S
N290 H303 0.985 . S
N291 C293 1.356 . S
N291 H296 0.984 . S
N291 H297 0.985 . S
C292 C286 1.379 . S
C292 C289 1.363 . S
C292 N290 1.356 . S
C293 C287 1.363 1_556 S
C293 C288 1.379 . S
C293 N291 1.356 . S
N294 C286 1.356 . S
N294 H300 0.984 . S
N294 H301 0.984 . S
N295 C288 1.356 . S
N295 H298 0.984 . S
N295 H299 0.985 . S
H296 N291 0.984 . S
H297 N291 0.985 . S
H298 N295 0.984 . S
H299 N295 0.985 . S
H300 N294 0.984 . S
H301 N294 0.984 . S
H302 N290 0.984 . S
H303 N290 0.985 . S
C304 C305 1.363 1_556 S
C304 C310 1.379 . S
C304 N312 1.356 . S
C305 C304 1.363 1_554 S
C305 C311 1.363 . S
C306 C307 1.363 . S
C306 C311 1.379 . S
C306 N313 1.356 . S
C307 C306 1.363 . S
C307 C310 1.363 1_554 S
N308 C310 1.356 . S
N308 H320 0.984 . S
N308 H321 0.985 . S
N309 C311 1.356 . S
N309 H314 0.984 . S
N309 H315 0.985 . S
C310 C304 1.379 . S
C310 C307 1.363 1_556 S
C310 N308 1.356 . S
C311 C305 1.363 . S
C311 C306 1.379 . S
C311 N309 1.356 . S
N312 C304 1.356 . S
N312 H318 0.984 . S
N312 H319 0.984 . S
N313 C306 1.356 . S
N313 H316 0.984 . S
N313 H317 0.985 . S
H314 N309 0.984 . S
H315 N309 0.985 . S
H316 N313 0.984 . S
H317 N313 0.985 . S
H318 N312 0.984 . S
H319 N312 0.984 . S
H320 N308 0.984 . S
H321 N308 0.985 . S
C109 C90 1.905 . S
C107 C7 1.988 . S
C127 C86 1.359 . S
C125 C34 1.454 . S
C145 C96 1.905 1_655 S
C143 C14 1.996 . S
C163 C80 1.360 1_565 S
C161 C32 1.457 . S
C179 C16 2.073 . S
C181 C72 1.975 . S
C199 C104 1.427 . S
C197 C25 1.566 . S
C215 C8 2.072 . S
C217 C58 1.970 . S
C233 C26 1.567 . S
C235 C102 1.421 . S
C251 C50 1.150 . S
C253 C84 1.117 . S
C269 C43 1.139 . S
C271 C99 1.126 . S
C289 C93 1.123 . S
C287 C52 1.135 . S
C307 C88 1.112 . S
C305 C44 1.145 . S
