# Generated by pormake.
# Topology ssa, (4,4)-cn, num edge types: 1
# Building blocks:
#     Node 0, Type 0, BuildingBlock: NAWXER_clean_sbu_0, # of connection points: 4
#     Node 1, Type 0, BuildingBlock: NAWXER_clean_sbu_0, # of connection points: 4
#     Node 2, Type 0, BuildingBlock: NAWXER_clean_sbu_0, # of connection points: 4
#     Node 3, Type 0, BuildingBlock: NAWXER_clean_sbu_0, # of connection points: 4
#     Node 4, Type 0, BuildingBlock: NAWXER_clean_sbu_0, # of connection points: 4
#     Node 5, Type 0, BuildingBlock: NAWXER_clean_sbu_0, # of connection points: 4
#     Node 6, Type 1, BuildingBlock: NAHDIM_clean_linker_0, # of connection points: 4
#     Node 7, Type 1, BuildingBlock: NAHDIM_clean_linker_0, # of connection points: 4
#     Node 8, Type 1, BuildingBlock: NAHDIM_clean_linker_0, # of connection points: 4
#     Node 9, Type 1, BuildingBlock: NAHDIM_clean_linker_0, # of connection points: 4
#     Node 10, Type 1, BuildingBlock: NAHDIM_clean_linker_0, # of connection points: 4
#     Node 11, Type 1, BuildingBlock: NAHDIM_clean_linker_0, # of connection points: 4
#     Edge 12, Type (0, 1), None
#     Edge 13, Type (0, 1), None
#     Edge 14, Type (0, 1), None
#     Edge 15, Type (0, 1), None
#     Edge 16, Type (0, 1), None
#     Edge 17, Type (0, 1), None
#     Edge 18, Type (0, 1), None
#     Edge 19, Type (0, 1), None
#     Edge 20, Type (0, 1), None
#     Edge 21, Type (0, 1), None
#     Edge 22, Type (0, 1), None
#     Edge 23, Type (0, 1), None
#     Edge 24, Type (0, 1), None
#     Edge 25, Type (0, 1), None
#     Edge 26, Type (0, 1), None
#     Edge 27, Type (0, 1), None
#     Edge 28, Type (0, 1), None
#     Edge 29, Type (0, 1), None
#     Edge 30, Type (0, 1), None
#     Edge 31, Type (0, 1), None
#     Edge 32, Type (0, 1), None
#     Edge 33, Type (0, 1), None
#     Edge 34, Type (0, 1), None
#     Edge 35, Type (0, 1), None
# Relax obj value: 0.029
# Max RMSD: 0.058
# Mean RMSD: 0.044
data_MOF--net-ssa--node1-NAWXER_clean_sbu_0--node2-NAHDIM_clean_linker_0--edge1-none
_symmetry_space_group_name_H-M    P1
_symmetry_Int_Tables_number       1
_symmetry_cell_setting            triclinic
loop_
_symmetry_equiv_pos_as_xyz
'x, y, z'
_cell_length_a     36.316499
_cell_length_b     36.317829
_cell_length_c     31.235911
_cell_angle_alpha  89.678925
_cell_angle_beta   90.97406
_cell_angle_gamma 120.00656
loop_
_atom_site_label
_atom_site_type_symbol
_atom_site_fract_x
_atom_site_fract_y
_atom_site_fract_z
_atom_type_partial_charge
C0 C 0.98971 0.56534 0.07642 0.0
C1 C 0.94068 0.44052 0.98603 0.0
O2 O 0.95215 0.53965 0.06322 0.0
Zn3 Zn 0.96557 0.50419 0.02936 0.0
O4 O 0.0207 0.56082 0.06396 0.0
Zn5 Zn 0.0287 0.51746 0.02335 0.0
O6 O 0.0636 0.55297 0.9779 0.0
O7 O 0.9991 0.54463 0.97655 0.0
O8 O 0.98122 0.46038 0.99133 0.0
O9 O 0.91888 0.45527 0.00228 0.0
O10 O 0.98728 0.47554 0.0771 0.0
O11 O 0.05379 0.4949 0.06221 0.0
C12 C 0.03629 0.56067 0.96061 0.0
C13 C 0.02131 0.47407 0.08529 0.0
C14 C 0.44999 0.98942 0.58056 0.0
C15 C 0.46302 0.89083 0.48622 0.0
O16 O 0.42704 0.94922 0.5785 0.0
Zn17 Zn 0.45646 0.94017 0.53309 0.0
O18 O 0.48086 0.00892 0.55456 0.0
Zn19 Zn 0.50914 0.99161 0.50389 0.0
O20 O 0.50206 0.01976 0.45481 0.0
O21 O 0.44142 0.96734 0.47872 0.0
O22 O 0.49119 0.9296 0.47875 0.0
O23 O 0.43572 0.88236 0.51506 0.0
O24 O 0.51755 0.95752 0.56166 0.0
O25 O 0.56621 0.01136 0.52451 0.0
C26 C 0.46176 0.99783 0.4523 0.0
C27 C 0.55667 0.98488 0.55487 0.0
C28 C 0.52079 0.45236 0.00176 0.0
C29 C 0.6075 0.54656 0.11748 0.0
O30 O 0.52727 0.4902 0.99654 0.0
Zn31 Zn 0.55845 0.54912 0.03132 0.0
O32 O 0.53591 0.44376 0.03473 0.0
Zn33 Zn 0.56284 0.49917 0.06118 0.0
O34 O 0.51188 0.5076 0.08333 0.0
O35 O 0.51407 0.56055 0.04627 0.0
O36 O 0.59416 0.50696 0.11382 0.0
O37 O 0.59616 0.56529 0.08973 0.0
O38 O 0.6007 0.58781 0.99265 0.0
O39 O 0.61461 0.53955 0.01978 0.0
C40 C 0.49737 0.53272 0.07533 0.0
C41 C 0.62514 0.57231 0.99621 0.0
C42 C 0.03849 0.59647 0.46955 0.0
C43 C 0.93347 0.46949 0.54119 0.0
O44 O 0.05547 0.58532 0.49959 0.0
Zn45 Zn 0.03409 0.53345 0.54506 0.0
O46 O 0.9995 0.5728 0.45951 0.0
Zn47 Zn 0.9875 0.53079 0.5025 0.0
O48 O 0.99979 0.56944 0.55941 0.0
O49 O 0.04929 0.56499 0.5975 0.0
O50 O 0.92908 0.48734 0.50805 0.0
O51 O 0.97052 0.48335 0.55812 0.0
O52 O 0.06518 0.50532 0.53158 0.0
O53 O 0.01993 0.49879 0.48016 0.0
C54 C 0.02467 0.58017 0.59234 0.0
C55 C 0.04844 0.49096 0.49512 0.0
C56 C 0.48109 0.89667 0.05443 0.0
C57 C 0.45853 0.96981 0.93574 0.0
O58 O 0.50305 0.93708 0.05974 0.0
Zn59 Zn 0.51356 0.99227 0.02389 0.0
O60 O 0.45873 0.88153 0.02066 0.0
Zn61 Zn 0.47163 0.93425 0.9941 0.0
O62 O 0.53678 0.96273 0.97417 0.0
O63 O 0.57311 0.0216 0.0121 0.0
O64 O 0.44296 0.93008 0.94116 0.0
O65 O 0.48495 0.99619 0.96345 0.0
O66 O 0.49439 0.01993 0.06216 0.0
O67 O 0.44249 0.96012 0.0348 0.0
C68 C 0.57222 0.99596 0.98417 0.0
C69 C 0.45495 0.99318 0.05841 0.0
C70 C 0.59005 0.59177 0.61249 0.0
C71 C 0.50053 0.52658 0.48638 0.0
O72 O 0.56231 0.59931 0.59586 0.0
Zn73 Zn 0.54575 0.55927 0.54967 0.0
O74 O 0.59725 0.56405 0.59531 0.0
Zn75 Zn 0.57385 0.52157 0.54067 0.0
O76 O 0.62393 0.54083 0.50731 0.0
O77 O 0.60261 0.5879 0.51201 0.0
O78 O 0.52483 0.51106 0.49434 0.0
O79 O 0.50204 0.55508 0.51084 0.0
O80 O 0.51592 0.49895 0.5831 0.0
O81 O 0.55218 0.46716 0.56668 0.0
C82 C 0.62949 0.57749 0.49899 0.0
C83 C 0.52211 0.46718 0.58675 0.0
C84 C 0.03168 0.43658 0.43781 0.0
C85 C 0.0661 0.46987 0.46765 0.0
C86 C 0.13254 0.50074 0.42688 0.0
C87 C 0.16311 0.53772 0.40689 0.0
C88 C 0.19782 0.53913 0.3864 0.0
C89 C 0.20163 0.50224 0.38537 0.0
C90 C 0.17162 0.46503 0.40673 0.0
C91 C 0.13741 0.46466 0.42747 0.0
C92 C 0.22957 0.57958 0.36451 0.0
C93 C 0.17487 0.42521 0.4062 0.0
C94 C 0.48254 0.49287 0.41338 0.0
C95 C 0.46691 0.50747 0.45156 0.0
C96 C 0.41901 0.52943 0.41791 0.0
C97 C 0.38542 0.48816 0.40865 0.0
C98 C 0.3482 0.48184 0.38766 0.0
C99 C 0.34454 0.5174 0.37522 0.0
C100 C 0.37823 0.55894 0.38436 0.0
C101 C 0.41495 0.56434 0.40576 0.0
C102 C 0.31275 0.43708 0.37862 0.0
C103 C 0.37551 0.59757 0.37128 0.0
C104 C 0.3876 0.50183 0.10103 0.0
C105 C 0.35361 0.46124 0.10918 0.0
C106 C 0.31794 0.45587 0.13131 0.0
C107 C 0.31612 0.49214 0.14452 0.0
C108 C 0.34897 0.53322 0.13326 0.0
C109 C 0.38453 0.53765 0.1118 0.0
C110 C 0.28313 0.4116 0.14224 0.0
C111 C 0.34731 0.57254 0.14539 0.0
C112 C 0.97933 0.41581 0.13795 0.0
C113 C 0.02362 0.44982 0.12353 0.0
C114 C 0.08685 0.44217 0.12656 0.0
C115 C 0.09822 0.41092 0.1316 0.0
C116 C 0.13854 0.42109 0.14763 0.0
C117 C 0.16855 0.46391 0.15765 0.0
C118 C 0.15818 0.49613 0.14993 0.0
C119 C 0.11724 0.48489 0.13483 0.0
C120 C 0.1486 0.38595 0.15503 0.0
C121 C 0.18994 0.54231 0.1587 0.0
C122 C 0.23436 0.50144 0.35824 0.0
C123 C 0.27289 0.50966 0.37721 0.0
C124 C 0.30536 0.51089 0.35265 0.0
C125 C 0.29972 0.50476 0.30777 0.0
C126 C 0.33209 0.50703 0.28188 0.0
C127 C 0.32623 0.50115 0.23775 0.0
C128 C 0.28774 0.49276 0.21775 0.0
C129 C 0.28166 0.48743 0.17282 0.0
C130 C 0.24277 0.47839 0.1541 0.0
C131 C 0.20946 0.47446 0.17914 0.0
C132 C 0.21512 0.48021 0.22402 0.0
C133 C 0.18229 0.47658 0.25011 0.0
C134 C 0.1885 0.48348 0.294 0.0
C135 C 0.22758 0.49363 0.31371 0.0
C136 C 0.26061 0.496 0.2883 0.0
C137 C 0.25449 0.48965 0.24333 0.0
C138 C 0.46667 0.51781 0.14891 0.0
C139 C 0.46392 0.5324 0.10319 0.0
O140 O 0.09868 0.50129 0.44407 0.0
O141 O 0.04645 0.42988 0.11357 0.0
O142 O 0.42403 0.50565 0.08546 0.0
O143 O 0.45577 0.53712 0.4381 0.0
H144 H 0.07845 0.45397 0.48936 0.0
H145 H 0.00467 0.41249 0.45679 0.0
H146 H 0.04469 0.41987 0.41916 0.0
H147 H 0.01975 0.45186 0.41485 0.0
H148 H 0.15927 0.56548 0.40683 0.0
H149 H 0.11425 0.43581 0.44304 0.0
H150 H 0.26252 0.58741 0.37305 0.0
H151 H 0.22548 0.60689 0.37326 0.0
H152 H 0.22555 0.57503 0.32928 0.0
H153 H 0.14953 0.39909 0.42509 0.0
H154 H 0.20632 0.43223 0.41937 0.0
H155 H 0.17258 0.41417 0.37267 0.0
H156 H 0.43929 0.47957 0.46616 0.0
H157 H 0.45765 0.47925 0.38784 0.0
H158 H 0.48994 0.46785 0.4234 0.0
H159 H 0.51141 0.52003 0.39971 0.0
H160 H 0.38783 0.46062 0.4175 0.0
H161 H 0.44087 0.59604 0.41299 0.0
H162 H 0.28262 0.43227 0.39228 0.0
H163 H 0.31959 0.41272 0.39212 0.0
H164 H 0.30771 0.43204 0.3435 0.0
H165 H 0.40511 0.62774 0.3793 0.0
H166 H 0.34847 0.5973 0.38763 0.0
H167 H 0.36928 0.59664 0.33626 0.0
H168 H 0.4699 0.56553 0.10436 0.0
H169 H 0.35618 0.43382 0.10028 0.0
H170 H 0.41014 0.56913 0.10409 0.0
H171 H 0.27918 0.40847 0.17749 0.0
H172 H 0.2898 0.38674 0.1305 0.0
H173 H 0.25255 0.40588 0.12786 0.0
H174 H 0.37216 0.60144 0.12918 0.0
H175 H 0.35215 0.57756 0.18052 0.0
H176 H 0.31561 0.56845 0.13711 0.0
H177 H 0.03865 0.47236 0.15079 0.0
H178 H 0.96068 0.43071 0.1484 0.0
H179 H 0.98233 0.39794 0.1655 0.0
H180 H 0.96186 0.393 0.11148 0.0
H181 H 0.07474 0.37816 0.12438 0.0
H182 H 0.10918 0.50951 0.12955 0.0
H183 H 0.15862 0.38637 0.1889 0.0
H184 H 0.17551 0.39123 0.13459 0.0
H185 H 0.12102 0.35404 0.14758 0.0
H186 H 0.17947 0.56387 0.1448 0.0
H187 H 0.22138 0.55077 0.14543 0.0
H188 H 0.19416 0.54778 0.19381 0.0
H189 H 0.2776 0.51502 0.4115 0.0
H190 H 0.36243 0.51361 0.29543 0.0
H191 H 0.35233 0.50332 0.21953 0.0
H192 H 0.23838 0.47438 0.11965 0.0
H193 H 0.15144 0.46869 0.23692 0.0
H194 H 0.16211 0.48058 0.31226 0.0
H195 H 0.44575 0.52315 0.17044 0.0
H196 H 0.49969 0.53602 0.16189 0.0
H197 H 0.45644 0.4834 0.14919 0.0
C198 C 0.90809 0.36376 -0.00019 0.0
C199 C 0.91918 0.39757 0.96498 0.0
C200 C 0.85841 0.3586 0.9155 0.0
C201 C 0.87138 0.33068 0.89981 0.0
C202 C 0.84437 0.29624 0.87334 0.0
C203 C 0.80378 0.28985 0.86166 0.0
C204 C 0.79114 0.31864 0.87609 0.0
C205 C 0.81871 0.35272 0.90281 0.0
C206 C 0.85899 0.26624 0.85836 0.0
C207 C 0.74833 0.31306 0.86366 0.0
C208 C 0.61608 0.97056 0.94714 0.0
C209 C 0.6106 0.00868 0.95744 0.0
C210 C 0.63366 0.06315 0.90179 0.0
C211 C 0.61847 0.08649 0.87967 0.0
C212 C 0.64638 0.12473 0.85928 0.0
C213 C 0.69049 0.13893 0.85963 0.0
C214 C 0.70608 0.11534 0.88199 0.0
C215 C 0.67748 0.07782 0.90318 0.0
C216 C 0.62859 0.14957 0.83694 0.0
C217 C 0.75283 0.12929 0.88274 0.0
C218 C 0.65469 0.05468 0.58836 0.0
C219 C 0.63647 0.07836 0.60292 0.0
C220 C 0.66174 0.11821 0.6224 0.0
C221 C 0.7058 0.13377 0.62904 0.0
C222 C 0.72436 0.11042 0.61323 0.0
C223 C 0.69856 0.07149 0.59229 0.0
C224 C 0.64094 0.14304 0.6366 0.0
C225 C 0.77119 0.12597 0.61942 0.0
C226 C 0.88901 0.45556 0.60473 0.0
C227 C 0.89495 0.43611 0.56369 0.0
C228 C 0.87111 0.36376 0.58968 0.0
C229 C 0.82761 0.35085 0.59174 0.0
C230 C 0.79898 0.31283 0.61209 0.0
C231 C 0.81394 0.28683 0.63004 0.0
C232 C 0.85718 0.29853 0.62599 0.0
C233 C 0.88522 0.33695 0.60589 0.0
C234 C 0.75292 0.30095 0.61544 0.0
C235 C 0.87394 0.27099 0.64393 0.0
C236 C 0.77429 0.25216 0.83549 0.0
C237 C 0.74552 0.21521 0.85702 0.0
C238 C 0.71998 0.17721 0.83483 0.0
C239 C 0.72328 0.17578 0.78988 0.0
C240 C 0.69976 0.1376 0.7668 0.0
C241 C 0.70279 0.13658 0.72257 0.0
C242 C 0.72931 0.17374 0.69957 0.0
C243 C 0.73194 0.17318 0.65444 0.0
C244 C 0.75959 0.21047 0.63274 0.0
C245 C 0.78484 0.24855 0.65492 0.0
C246 C 0.78211 0.24991 0.69996 0.0
C247 C 0.80665 0.28785 0.72321 0.0
C248 C 0.8041 0.28873 0.76756 0.0
C249 C 0.77666 0.25178 0.79036 0.0
C250 C 0.75122 0.21336 0.76753 0.0
C251 C 0.75416 0.21236 0.72231 0.0
C252 C 0.58792 0.94169 0.58199 0.0
C253 C 0.59068 0.9851 0.58323 0.0
O254 O 0.88262 0.39084 0.94338 0.0
O255 O 0.90056 0.40193 0.57334 0.0
O256 O 0.63088 0.01567 0.57029 0.0
O257 O 0.60497 0.02595 0.92 0.0
H258 H 0.94211 0.39666 0.94247 0.0
H259 H 0.89371 0.3315 0.98556 0.0
H260 H 0.88509 0.36414 0.02258 0.0
H261 H 0.93724 0.3698 0.01788 0.0
H262 H 0.90225 0.33504 0.90846 0.0
H263 H 0.80904 0.37455 0.91462 0.0
H264 H 0.83593 0.23325 0.86823 0.0
H265 H 0.89094 0.27476 0.87141 0.0
H266 H 0.86016 0.2666 0.82287 0.0
H267 H 0.74422 0.33959 0.87538 0.0
H268 H 0.72281 0.28279 0.87711 0.0
H269 H 0.7443 0.31095 0.82827 0.0
H270 H 0.63914 0.03248 0.97585 0.0
H271 H 0.61895 0.9556 0.97719 0.0
H272 H 0.64543 0.98116 0.92848 0.0
H273 H 0.58861 0.94648 0.92787 0.0
H274 H 0.58453 0.07479 0.87882 0.0
H275 H 0.68928 0.05941 0.91969 0.0
H276 H 0.63036 0.14684 0.80176 0.0
H277 H 0.64768 0.1838 0.84554 0.0
H278 H 0.59487 0.13777 0.84519 0.0
H279 H 0.75934 0.10547 0.89824 0.0
H280 H 0.77071 0.15976 0.90055 0.0
H281 H 0.7651 0.13489 0.8496 0.0
H282 H 0.58523 0.99099 0.61687 0.0
H283 H 0.6026 0.06593 0.59885 0.0
H284 H 0.71231 0.05314 0.58034 0.0
H285 H 0.6626 0.17781 0.63314 0.0
H286 H 0.63245 0.13626 0.67084 0.0
H287 H 0.61139 0.13385 0.61777 0.0
H288 H 0.77987 0.10221 0.60874 0.0
H289 H 0.78045 0.13357 0.6537 0.0
H290 H 0.78991 0.15564 0.60088 0.0
H291 H 0.86692 0.42581 0.5419 0.0
H292 H 0.85903 0.43301 0.62076 0.0
H293 H 0.88747 0.4846 0.59695 0.0
H294 H 0.9159 0.46417 0.62761 0.0
H295 H 0.8158 0.37052 0.57827 0.0
H296 H 0.91865 0.3468 0.60366 0.0
H297 H 0.74409 0.29805 0.64966 0.0
H298 H 0.73232 0.2695 0.6001 0.0
H299 H 0.74627 0.32469 0.6 0.0
H300 H 0.90744 0.28263 0.6349 0.0
H301 H 0.85393 0.23777 0.63233 0.0
H302 H 0.87217 0.27046 0.67939 0.0
H303 H 0.74364 0.21582 0.89162 0.0
H304 H 0.67876 0.10795 0.78265 0.0
H305 H 0.68401 0.10618 0.7067 0.0
H306 H 0.76153 0.20985 0.59815 0.0
H307 H 0.82824 0.31732 0.7074 0.0
H308 H 0.82379 0.31878 0.78378 0.0
H309 H 0.59197 0.93359 0.54878 0.0
H310 H 0.55673 0.91651 0.59404 0.0
H311 H 0.61336 0.94227 0.60274 0.0
C312 C 0.69899 0.59487 0.46521 0.0
C313 C 0.6657 0.6083 0.47183 0.0
C314 C 0.63486 0.63831 0.42375 0.0
C315 C 0.59383 0.62195 0.40688 0.0
C316 C 0.57855 0.649 0.39426 0.0
C317 C 0.60583 0.69359 0.39717 0.0
C318 C 0.64688 0.71025 0.41592 0.0
C319 C 0.66097 0.6823 0.42915 0.0
C320 C 0.53431 0.63002 0.37516 0.0
C321 C 0.6768 0.75757 0.41926 0.0
C322 C 0.44063 0.85467 0.416 0.0
C323 C 0.46166 0.85602 0.45943 0.0
C324 C 0.51688 0.8398 0.43687 0.0
C325 C 0.56032 0.85823 0.42919 0.0
C326 C 0.57684 0.83524 0.40928 0.0
C327 C 0.549 0.79269 0.39659 0.0
C328 C 0.50516 0.77317 0.4057 0.0
C329 C 0.48952 0.79686 0.42606 0.0
C330 C 0.62389 0.85674 0.40086 0.0
C331 C 0.47478 0.72761 0.39304 0.0
C332 C 0.5336 0.85157 0.11946 0.0
C333 C 0.57684 0.86885 0.12919 0.0
C334 C 0.59189 0.84542 0.15188 0.0
C335 C 0.56286 0.80345 0.16484 0.0
C336 C 0.51917 0.78526 0.15423 0.0
C337 C 0.50491 0.80953 0.13186 0.0
C338 C 0.63869 0.86572 0.16268 0.0
C339 C 0.48743 0.74033 0.1671 0.0
C340 C 0.66978 0.55874 0.16343 0.0
C341 C 0.63654 0.57197 0.15408 0.0
C342 C 0.64254 0.6425 0.15029 0.0
C343 C 0.67149 0.6861 0.14789 0.0
C344 C 0.65927 0.71613 0.15769 0.0
C345 C 0.61684 0.70197 0.16942 0.0
C346 C 0.58646 0.65806 0.16776 0.0
C347 C 0.59968 0.6287 0.15883 0.0
C348 C 0.6923 0.76273 0.15865 0.0
C349 C 0.54058 0.64197 0.17873 0.0
C350 C 0.59474 0.72202 0.37289 0.0
C351 C 0.57775 0.74364 0.39437 0.0
C352 C 0.56555 0.76943 0.37196 0.0
C353 C 0.56955 0.77316 0.32687 0.0
C354 C 0.55677 0.79804 0.30315 0.0
C355 C 0.56009 0.80067 0.25871 0.0
C356 C 0.57598 0.77823 0.23623 0.0
C357 C 0.5779 0.77913 0.19093 0.0
C358 C 0.59263 0.75524 0.16962 0.0
C359 C 0.60626 0.73096 0.19257 0.0
C360 C 0.60604 0.73102 0.23779 0.0
C361 C 0.62102 0.70811 0.26168 0.0
C362 C 0.61822 0.70592 0.30586 0.0
C363 C 0.60004 0.72632 0.32809 0.0
C364 C 0.58665 0.75127 0.30492 0.0
C365 C 0.58985 0.75379 0.25963 0.0
C366 C 0.45899 0.87248 0.12886 0.0
C367 C 0.48001 0.86728 0.08896 0.0
O368 O 0.64933 0.61117 0.43253 0.0
O369 O 0.65737 0.61508 0.14467 0.0
O370 O 0.5212 0.87669 0.09858 0.0
O371 O 0.50311 0.86494 0.45413 0.0
H372 H 0.68195 0.63961 0.48856 0.0
H373 H 0.72548 0.61926 0.44592 0.0
H374 H 0.68482 0.56396 0.44794 0.0
H375 H 0.71225 0.59199 0.49656 0.0
H376 H 0.57406 0.58788 0.40302 0.0
H377 H 0.69305 0.69484 0.44168 0.0
H378 H 0.51807 0.64675 0.38747 0.0
H379 H 0.51473 0.59556 0.38226 0.0
H380 H 0.53633 0.63394 0.33986 0.0
H381 H 0.70662 0.76546 0.43704 0.0
H382 H 0.66096 0.77283 0.43565 0.0
H383 H 0.68507 0.77133 0.38663 0.0
H384 H 0.44298 0.82527 0.47644 0.0
H385 H 0.43682 0.82769 0.39624 0.0
H386 H 0.46043 0.88458 0.39814 0.0
H387 H 0.4085 0.85059 0.42057 0.0
H388 H 0.58123 0.89118 0.43818 0.0
H389 H 0.45597 0.78179 0.43287 0.0
H390 H 0.63708 0.83702 0.4136 0.0
H391 H 0.64171 0.88889 0.4156 0.0
H392 H 0.62914 0.85983 0.3658 0.0
H393 H 0.44158 0.71694 0.40248 0.0
H394 H 0.48503 0.70643 0.40828 0.0
H395 H 0.4754 0.72397 0.35783 0.0
H396 H 0.46088 0.83422 0.07651 0.0
H397 H 0.59879 0.90117 0.11943 0.0
H398 H 0.47133 0.79536 0.12462 0.0
H399 H 0.64329 0.86624 0.19795 0.0
H400 H 0.65717 0.89876 0.15043 0.0
H401 H 0.65162 0.84651 0.1488 0.0
H402 H 0.45506 0.72972 0.15382 0.0
H403 H 0.48566 0.7382 0.20255 0.0
H404 H 0.49798 0.71815 0.15596 0.0
H405 H 0.6175 0.56539 0.18358 0.0
H406 H 0.65422 0.52489 0.1734 0.0
H407 H 0.69131 0.57849 0.18991 0.0
H408 H 0.68915 0.56325 0.13462 0.0
H409 H 0.70429 0.69652 0.1404 0.0
H410 H 0.57654 0.59512 0.15962 0.0
H411 H 0.69868 0.77411 0.19235 0.0
H412 H 0.68023 0.78137 0.14115 0.0
H413 H 0.72268 0.76904 0.14427 0.0
H414 H 0.51944 0.60951 0.16602 0.0
H415 H 0.52954 0.66338 0.16573 0.0
H416 H 0.5375 0.64104 0.21408 0.0
H417 H 0.574 0.74038 0.4288 0.0
H418 H 0.54374 0.81552 0.31861 0.0
H419 H 0.54954 0.82011 0.24219 0.0
H420 H 0.59256 0.75478 0.1349 0.0
H421 H 0.63494 0.69129 0.24658 0.0
H422 H 0.63018 0.68759 0.3222 0.0
H423 H 0.4561 0.84946 0.15393 0.0
H424 H 0.42656 0.86651 0.12078 0.0
H425 H 0.47815 0.90513 0.14225 0.0
C426 C 0.69912 0.62355 0.01655 0.0
C427 C 0.66948 0.59636 0.97973 0.0
C428 C 0.71322 0.5746 0.93961 0.0
C429 C 0.74332 0.61542 0.92545 0.0
C430 C 0.77707 0.62142 0.89968 0.0
C431 C 0.77929 0.5856 0.88559 0.0
C432 C 0.74882 0.54443 0.89944 0.0
C433 C 0.71658 0.53963 0.92688 0.0
C434 C 0.80985 0.66606 0.88697 0.0
C435 C 0.74987 0.5054 0.88487 0.0
C436 C 0.08971 0.60033 0.90282 0.0
C437 C 0.04677 0.58884 0.92196 0.0
C438 C 0.98218 0.57476 0.88175 0.0
C439 C 0.94382 0.54007 0.86776 0.0
C440 C 0.90903 0.54485 0.85586 0.0
C441 C 0.91305 0.58563 0.85751 0.0
C442 C 0.95174 0.62093 0.87183 0.0
C443 C 0.98609 0.61524 0.88347 0.0
C444 C 0.86832 0.50654 0.84052 0.0
C445 C 0.95719 0.66491 0.87341 0.0
C446 C 0.97401 0.63483 0.60938 0.0
C447 C 0.9361 0.59556 0.61047 0.0
C448 C 0.89805 0.59328 0.6226 0.0
C449 C 0.89858 0.63084 0.63545 0.0
C450 C 0.93554 0.67079 0.62934 0.0
C451 C 0.9729 0.67227 0.61577 0.0
C452 C 0.85858 0.55021 0.62615 0.0
C453 C 0.93674 0.71152 0.64137 0.0
C454 C 0.59733 0.64062 0.67314 0.0
C455 C 0.61568 0.61574 0.65143 0.0
C456 C 0.69135 0.63836 0.64516 0.0
C457 C 0.68754 0.59793 0.6475 0.0
C458 C 0.72334 0.59357 0.65527 0.0
C459 C 0.76355 0.63033 0.66221 0.0
C460 C 0.76783 0.67107 0.65767 0.0
C461 C 0.73166 0.67449 0.64855 0.0
C462 C 0.71783 0.54958 0.6579 0.0
C463 C 0.81027 0.71098 0.66425 0.0
C464 C 0.81186 0.59098 0.85435 0.0
C465 C 0.84647 0.5872 0.86888 0.0
C466 C 0.87803 0.59183 0.8408 0.0
C467 C 0.87558 0.60129 0.79725 0.0
C468 C 0.90726 0.60701 0.76844 0.0
C469 C 0.90452 0.61603 0.72568 0.0
C470 C 0.86967 0.61921 0.70972 0.0
C471 C 0.86617 0.62735 0.66591 0.0
C472 C 0.83148 0.63084 0.65108 0.0
C473 C 0.79975 0.62613 0.67916 0.0
C474 C 0.80254 0.61746 0.72302 0.0
C475 C 0.77102 0.61204 0.75206 0.0
C476 C 0.77357 0.60262 0.79481 0.0
C477 C 0.80842 0.59954 0.81067 0.0
C478 C 0.8406 0.60504 0.78211 0.0
C479 C 0.8376 0.61394 0.73825 0.0
C480 C 0.06835 0.63824 0.64537 0.0
C481 C 0.02455 0.61089 0.62429 0.0
O482 O 0.68077 0.56733 0.96575 0.0
O483 O 0.65719 0.64393 0.63986 0.0
O484 O 0.01224 0.63739 0.60439 0.0
O485 O 0.015 0.56803 0.89126 0.0
H486 H 0.67027 0.61695 0.95282 0.0
H487 H 0.73257 0.6422 0.00621 0.0
H488 H 0.69789 0.60309 0.04375 0.0
H489 H 0.68946 0.64634 0.02809 0.0
H490 H 0.74093 0.64286 0.93433 0.0
H491 H 0.69324 0.50829 0.93799 0.0
H492 H 0.84226 0.67012 0.8874 0.0
H493 H 0.80973 0.69022 0.90854 0.0
H494 H 0.80273 0.67237 0.85394 0.0
H495 H 0.72105 0.4755 0.89443 0.0
H496 H 0.77818 0.50566 0.89919 0.0
H497 H 0.75266 0.50553 0.84951 0.0
H498 H 0.04861 0.61874 0.93282 0.0
H499 H 0.11582 0.61794 0.92661 0.0
H500 H 0.09569 0.62105 0.87446 0.0
H501 H 0.08994 0.57119 0.89258 0.0
H502 H 0.94126 0.50907 0.86609 0.0
H503 H 0.01614 0.64277 0.89234 0.0
H504 H 0.86184 0.51118 0.80664 0.0
H505 H 0.84127 0.50298 0.8597 0.0
H506 H 0.8697 0.47671 0.84286 0.0
H507 H 0.98814 0.68857 0.88814 0.0
H508 H 0.9311 0.66436 0.89196 0.0
H509 H 0.9552 0.67541 0.84043 0.0
H510 H 0.00225 0.59216 0.65026 0.0
H511 H 0.93651 0.56656 0.60378 0.0
H512 H 0.00217 0.70251 0.61358 0.0
H513 H 0.85941 0.53574 0.6573 0.0
H514 H 0.85724 0.5288 0.60022 0.0
H515 H 0.82915 0.55235 0.62426 0.0
H516 H 0.96556 0.73996 0.6292 0.0
H517 H 0.93662 0.71389 0.67679 0.0
H518 H 0.90804 0.71151 0.62853 0.0
H519 H 0.61456 0.59248 0.67548 0.0
H520 H 0.564 0.61876 0.68281 0.0
H521 H 0.61646 0.65668 0.70235 0.0
H522 H 0.59812 0.66524 0.65127 0.0
H523 H 0.65677 0.56961 0.64374 0.0
H524 H 0.73443 0.70554 0.64588 0.0
H525 H 0.71869 0.54122 0.69199 0.0
H526 H 0.74417 0.54853 0.64144 0.0
H527 H 0.68707 0.52516 0.64344 0.0
H528 H 0.80817 0.74028 0.66009 0.0
H529 H 0.83341 0.71162 0.64106 0.0
H530 H 0.82286 0.71112 0.69694 0.0
H531 H 0.84873 0.58032 0.90235 0.0
H532 H 0.9347 0.60472 0.77858 0.0
H533 H 0.93027 0.62043 0.70544 0.0
H534 H 0.82901 0.63696 0.61743 0.0
H535 H 0.74376 0.6147 0.74212 0.0
H536 H 0.74785 0.59799 0.81526 0.0
H537 H 0.09254 0.6565 0.62078 0.0
H538 H 0.0781 0.61808 0.66364 0.0
H539 H 0.06719 0.66105 0.66808 0.0
C540 C 0.07339 0.67294 0.48653 0.0
C541 C 0.06314 0.64008 0.45077 0.0
C542 C 0.12677 0.6761 0.40648 0.0
C543 C 0.11891 0.70812 0.39126 0.0
C544 C 0.148 0.74061 0.36481 0.0
C545 C 0.18482 0.7401 0.3517 0.0
C546 C 0.19249 0.70752 0.36618 0.0
C547 C 0.16345 0.67611 0.3937 0.0
C548 C 0.13925 0.77544 0.35086 0.0
C549 C 0.23126 0.70584 0.35245 0.0
C550 C 0.46018 0.05005 0.39998 0.0
C551 C 0.43755 0.0043 0.41646 0.0
C552 C 0.3952 0.94428 0.36788 0.0
C553 C 0.39567 0.90933 0.35015 0.0
C554 C 0.35838 0.87445 0.33384 0.0
C555 C 0.31987 0.87531 0.33406 0.0
C556 C 0.31925 0.91099 0.35117 0.0
C557 C 0.35698 0.94523 0.36778 0.0
C558 C 0.36025 0.83697 0.31582 0.0
C559 C 0.27889 0.91327 0.35095 0.0
C560 C 0.35003 0.94156 0.07333 0.0
C561 C 0.35483 0.90699 0.08567 0.0
C562 C 0.32022 0.86956 0.101 0.0
C563 C 0.28073 0.86777 0.10661 0.0
C564 C 0.27512 0.9015 0.0915 0.0
C565 C 0.30982 0.93771 0.07407 0.0
C566 C 0.32699 0.83327 0.11406 0.0
C567 C 0.23329 0.90039 0.09598 0.0
C568 C 0.95779 0.59595 0.1262 0.0
C569 C 0.9985 0.60067 0.10716 0.0
C570 C 0.05992 0.67075 0.09689 0.0
C571 C 0.09324 0.66226 0.10363 0.0
C572 C 0.13385 0.69473 0.11645 0.0
C573 C 0.14076 0.73617 0.12392 0.0
C574 C 0.10755 0.74506 0.1154 0.0
C575 C 0.06771 0.71227 0.10118 0.0
C576 C 0.16893 0.6844 0.12327 0.0
C577 C 0.11367 0.78884 0.12263 0.0
C578 C 0.21484 0.77327 0.32221 0.0
C579 C 0.25205 0.80716 0.33963 0.0
C580 C 0.28092 0.84019 0.31378 0.0
C581 C 0.27259 0.83959 0.26936 0.0
C582 C 0.30052 0.87281 0.24269 0.0
C583 C 0.29245 0.87172 0.199 0.0
C584 C 0.25632 0.83712 0.18003 0.0
C585 C 0.24884 0.83499 0.13525 0.0
C586 C 0.2115 0.80137 0.11766 0.0
C587 C 0.18135 0.76936 0.14378 0.0
C588 C 0.18931 0.77005 0.18843 0.0
C589 C 0.16043 0.73779 0.21555 0.0
C590 C 0.16904 0.73833 0.25918 0.0
C591 C 0.20617 0.77191 0.27774 0.0
C592 C 0.23527 0.80515 0.25123 0.0
C593 C 0.227 0.80403 0.2065 0.0
C594 C 0.437 0.04649 0.08767 0.0
C595 C 0.42285 0.99935 0.08243 0.0
O596 O 0.10035 0.64512 0.4338 0.0
O597 O 0.01996 0.63949 0.0865 0.0
O598 O 0.38368 0.97918 0.06137 0.0
O599 O 0.43244 0.97677 0.38344 0.0
H600 H 0.04316 0.64341 0.42537 0.0
H601 H 0.09395 0.67041 0.51178 0.0
H602 H 0.04355 0.66776 0.50137 0.0
H603 H 0.09022 0.70582 0.47391 0.0
H604 H 0.0904 0.7084 0.40002 0.0
H605 H 0.16922 0.65123 0.40536 0.0
H606 H 0.16825 0.80709 0.35499 0.0
H607 H 0.11307 0.77501 0.36914 0.0
H608 H 0.13019 0.77141 0.31638 0.0
H609 H 0.23113 0.67689 0.36422 0.0
H610 H 0.26036 0.73418 0.36501 0.0
H611 H 0.23302 0.70666 0.31697 0.0
H612 H 0.40659 0.99761 0.42968 0.0
H613 H 0.46554 0.07257 0.42647 0.0
H614 H 0.44017 0.05362 0.37487 0.0
H615 H 0.49125 0.05829 0.38584 0.0
H616 H 0.4255 0.9094 0.34934 0.0
H617 H 0.35658 0.97302 0.37945 0.0
H618 H 0.35319 0.83441 0.28089 0.0
H619 H 0.33568 0.8071 0.33086 0.0
H620 H 0.3919 0.83978 0.32106 0.0
H621 H 0.28352 0.94306 0.36577 0.0
H622 H 0.25384 0.88574 0.36862 0.0
H623 H 0.26718 0.91131 0.31749 0.0
H624 H 0.42032 0.98613 0.11522 0.0
H625 H 0.38564 0.90929 0.08424 0.0
H626 H 0.30636 0.96431 0.06352 0.0
H627 H 0.33799 0.83764 0.14799 0.0
H628 H 0.35173 0.83255 0.09426 0.0
H629 H 0.29719 0.80213 0.11094 0.0
H630 H 0.23477 0.93009 0.08444 0.0
H631 H 0.22362 0.89549 0.13002 0.0
H632 H 0.20831 0.87324 0.07726 0.0
H633 H 0.01779 0.59897 0.13443 0.0
H634 H 0.96604 0.62196 0.14962 0.0
H635 H 0.94002 0.56511 0.14319 0.0
H636 H 0.93704 0.59776 0.10068 0.0
H637 H 0.08747 0.63026 0.09904 0.0
H638 H 0.04185 0.71851 0.09518 0.0
H639 H 0.17424 0.68253 0.15811 0.0
H640 H 0.19916 0.70981 0.10974 0.0
H641 H 0.16098 0.65351 0.10841 0.0
H642 H 0.08379 0.78975 0.11741 0.0
H643 H 0.13791 0.81163 0.10033 0.0
H644 H 0.12557 0.79975 0.15577 0.0
H645 H 0.25845 0.80801 0.37378 0.0
H646 H 0.329 0.90013 0.25525 0.0
H647 H 0.31505 0.89855 0.18042 0.0
H648 H 0.20572 0.80022 0.08338 0.0
H649 H 0.13098 0.71144 0.20338 0.0
H650 H 0.14599 0.71217 0.27821 0.0
H651 H 0.44183 0.06199 0.05586 0.0
H652 H 0.46706 0.0631 0.10678 0.0
H653 H 0.41224 0.04981 0.10479 0.0
C654 C 0.42524 0.99186 0.65422 0.0
C655 C 0.43904 0.01446 0.61086 0.0
C656 C 0.47552 0.08946 0.63396 0.0
C657 C 0.51528 0.12384 0.64509 0.0
C658 C 0.51905 0.15964 0.66609 0.0
C659 C 0.48192 0.16115 0.67569 0.0
C660 C 0.44163 0.12749 0.66248 0.0
C661 C 0.43876 0.09185 0.64194 0.0
C662 C 0.56252 0.19492 0.67976 0.0
C663 C 0.40144 0.12841 0.67174 0.0
C664 C 0.46775 0.44006 0.64522 0.0
C665 C 0.495 0.43034 0.61541 0.0
C666 C 0.5136 0.38257 0.65445 0.0
C667 C 0.47264 0.34654 0.65424 0.0
C668 C 0.4657 0.30797 0.67183 0.0
C669 C 0.5004 0.30532 0.68957 0.0
C670 C 0.54177 0.34122 0.68888 0.0
C671 C 0.5477 0.3795 0.67167 0.0
C672 C 0.42115 0.27024 0.6723 0.0
C673 C 0.57959 0.33935 0.707 0.0
C674 C 0.48024 0.3456 0.96509 0.0
C675 C 0.44153 0.30836 0.9579 0.0
C676 C 0.43958 0.27449 0.93455 0.0
C677 C 0.47761 0.27765 0.9194 0.0
C678 C 0.51721 0.31434 0.92918 0.0
C679 C 0.51802 0.34819 0.95152 0.0
C680 C 0.39679 0.23587 0.92519 0.0
C681 C 0.55858 0.31827 0.91514 0.0
C682 C 0.41728 0.95184 0.8658 0.0
C683 C 0.44469 0.98651 0.89848 0.0
C684 C 0.43351 0.04624 0.91424 0.0
C685 C 0.40175 0.05712 0.91143 0.0
C686 C 0.41201 0.09948 0.90554 0.0
C687 C 0.45522 0.13164 0.90316 0.0
C688 C 0.48754 0.12136 0.91089 0.0
C689 C 0.47636 0.07864 0.91634 0.0
C690 C 0.37668 0.1094 0.89849 0.0
C691 C 0.53391 0.15508 0.90992 0.0
C692 C 0.48472 0.19523 0.70393 0.0
C693 C 0.49126 0.23315 0.68554 0.0
C694 C 0.49314 0.26571 0.71088 0.0
C695 C 0.48837 0.2605 0.75576 0.0
C696 C 0.48918 0.29223 0.78205 0.0
C697 C 0.48485 0.2869 0.82619 0.0
C698 C 0.47971 0.24969 0.84587 0.0
C699 C 0.47574 0.2441 0.89085 0.0
C700 C 0.46892 0.20588 0.90908 0.0
C701 C 0.46607 0.17306 0.88345 0.0
C702 C 0.47115 0.17863 0.83865 0.0
C703 C 0.46903 0.14638 0.8121 0.0
C704 C 0.47385 0.15191 0.76818 0.0
C705 C 0.48037 0.18965 0.74876 0.0
C706 C 0.48232 0.22244 0.77476 0.0
C707 C 0.47794 0.21701 0.81983 0.0
C708 C 0.46151 0.4238 0.94691 0.0
C709 C 0.49737 0.41905 0.9678 0.0
O710 O 0.47429 0.05459 0.61656 0.0
O711 O 0.42147 0.00431 0.91381 0.0
O712 O 0.4805 0.3787 0.98519 0.0
O713 O 0.52177 0.42102 0.63929 0.0
H714 H 0.4124 0.01673 0.5956 0.0
H715 H 0.41747 0.01058 0.67654 0.0
H716 H 0.45115 0.98793 0.6689 0.0
H717 H 0.39633 0.9601 0.65022 0.0
H718 H 0.54339 0.12182 0.63861 0.0
H719 H 0.40769 0.06585 0.63308 0.0
H720 H 0.5675 0.22587 0.66769 0.0
H721 H 0.58842 0.18998 0.66791 0.0
H722 H 0.56466 0.19686 0.71527 0.0
H723 H 0.37315 0.10229 0.65522 0.0
H724 H 0.40482 0.15931 0.66165 0.0
H725 H 0.39588 0.1253 0.70675 0.0
H726 H 0.4741 0.4032 0.594 0.0
H727 H 0.44875 0.41258 0.66645 0.0
H728 H 0.44536 0.44635 0.6262 0.0
H729 H 0.48828 0.4682 0.66562 0.0
H730 H 0.44583 0.34839 0.64125 0.0
H731 H 0.57916 0.40743 0.67163 0.0
H732 H 0.42002 0.24355 0.65403 0.0
H733 H 0.39737 0.2777 0.65816 0.0
H734 H 0.41209 0.25926 0.70573 0.0
H735 H 0.61014 0.36866 0.70012 0.0
H736 H 0.58048 0.31156 0.69357 0.0
H737 H 0.57657 0.33516 0.74224 0.0
H738 H 0.52071 0.42431 0.94248 0.0
H739 H 0.41264 0.30659 0.96922 0.0
H740 H 0.54807 0.37672 0.95838 0.0
H741 H 0.39312 0.22837 0.89042 0.0
H742 H 0.37007 0.2403 0.93529 0.0
H743 H 0.39462 0.2081 0.94249 0.0
H744 H 0.58644 0.34473 0.93185 0.0
H745 H 0.56215 0.32443 0.8802 0.0
H746 H 0.55874 0.28819 0.92126 0.0
H747 H 0.47351 0.01054 0.88154 0.0
H748 H 0.43512 0.93689 0.8531 0.0
H749 H 0.40873 0.96607 0.83856 0.0
H750 H 0.38746 0.92699 0.8806 0.0
H751 H 0.36876 0.03196 0.91118 0.0
H752 H 0.5012 0.07072 0.92095 0.0
H753 H 0.37717 0.11985 0.86492 0.0
H754 H 0.38163 0.1359 0.91979 0.0
H755 H 0.34486 0.08148 0.90468 0.0
H756 H 0.55473 0.14348 0.92352 0.0
H757 H 0.53942 0.18368 0.92801 0.0
H758 H 0.54321 0.16482 0.87626 0.0
H759 H 0.49476 0.2373 0.65114 0.0
H760 H 0.49312 0.32158 0.76883 0.0
H761 H 0.48555 0.31239 0.84462 0.0
H762 H 0.46509 0.20136 0.94341 0.0
H763 H 0.46371 0.11638 0.82482 0.0
H764 H 0.47218 0.12599 0.74967 0.0
H765 H 0.44456 0.39849 0.92243 0.0
H766 H 0.4745 0.45507 0.93068 0.0
H767 H 0.43831 0.42094 0.97131 0.0
loop_
_geom_bond_atom_site_label_1
_geom_bond_atom_site_label_2
_geom_bond_distance
_geom_bond_site_symmetry_2
_ccdc_geom_bond_type
C0 O2 1.247 . S
C0 O4 1.258 . S
C1 O8 1.247 1_655 S
C1 O9 1.258 . S
O2 C0 1.247 . S
O2 Zn3 2.028 1_455 S
Zn3 O2 2.028 1_655 S
Zn3 O7 2.035 1_554 S
Zn3 O9 2.035 1_554 S
Zn3 O10 2.028 1_655 S
O4 C0 1.258 . S
O4 Zn5 2.035 1_554 S
Zn5 O4 2.035 1_556 S
Zn5 O6 2.028 . S
Zn5 O8 2.028 . S
Zn5 O11 2.035 1_556 S
O6 Zn5 2.028 . S
O6 C12 1.247 1_455 S
O7 Zn3 2.035 1_556 S
O7 C12 1.258 . S
O8 C1 1.247 1_455 S
O8 Zn5 2.028 . S
O9 C1 1.258 . S
O9 Zn3 2.035 1_556 S
O10 Zn3 2.028 1_455 S
O10 C13 1.247 . S
O11 Zn5 2.035 1_554 S
O11 C13 1.258 . S
C12 O6 1.247 1_655 S
C12 O7 1.258 . S
C13 O10 1.247 . S
C13 O11 1.258 . S
C14 O16 1.247 . S
C14 O18 1.258 . S
C15 O22 1.247 1_565 S
C15 O23 1.258 . S
O16 C14 1.247 . S
O16 Zn17 2.028 1_545 S
Zn17 O16 2.028 1_565 S
Zn17 O21 2.035 . S
Zn17 O23 2.035 . S
Zn17 O24 2.028 1_565 S
O18 C14 1.258 . S
O18 Zn19 2.035 . S
Zn19 O18 2.035 . S
Zn19 O20 2.028 . S
Zn19 O22 2.028 . S
Zn19 O25 2.035 . S
O20 Zn19 2.028 . S
O20 C26 1.247 1_545 S
O21 Zn17 2.035 . S
O21 C26 1.258 . S
O22 C15 1.247 1_545 S
O22 Zn19 2.028 . S
O23 C15 1.258 . S
O23 Zn17 2.035 . S
O24 Zn17 2.028 1_545 S
O24 C27 1.247 . S
O25 Zn19 2.035 . S
O25 C27 1.258 . S
C26 O20 1.247 1_565 S
C26 O21 1.258 . S
C27 O24 1.247 . S
C27 O25 1.258 . S
C28 O30 1.247 . S
C28 O32 1.258 1_556 S
C29 O36 1.247 . S
C29 O37 1.258 . S
O30 C28 1.247 . S
O30 Zn31 2.028 . S
Zn31 O30 2.028 . S
Zn31 O35 2.035 1_556 S
Zn31 O37 2.035 1_556 S
Zn31 O38 2.028 . S
O32 C28 1.258 1_554 S
O32 Zn33 2.035 . S
Zn33 O32 2.035 . S
Zn33 O34 2.028 . S
Zn33 O36 2.028 . S
Zn33 O39 2.035 . S
O34 Zn33 2.028 . S
O34 C40 1.247 . S
O35 Zn31 2.035 1_554 S
O35 C40 1.258 . S
O36 C29 1.247 . S
O36 Zn33 2.028 . S
O37 C29 1.258 . S
O37 Zn31 2.035 1_554 S
O38 Zn31 2.028 . S
O38 C41 1.247 . S
O39 Zn33 2.035 . S
O39 C41 1.258 1_554 S
C40 O34 1.247 . S
C40 O35 1.258 . S
C41 O38 1.247 . S
C41 O39 1.258 1_556 S
C42 O44 1.247 . S
C42 O46 1.258 . S
C43 O50 1.247 . S
C43 O51 1.258 1_655 S
O44 C42 1.247 . S
O44 Zn45 2.028 . S
Zn45 O44 2.028 . S
Zn45 O49 2.035 . S
Zn45 O51 2.035 . S
Zn45 O52 2.028 . S
O46 C42 1.258 . S
O46 Zn47 2.035 1_455 S
Zn47 O46 2.035 1_655 S
Zn47 O48 2.028 . S
Zn47 O50 2.028 . S
Zn47 O53 2.035 1_655 S
O48 Zn47 2.028 . S
O48 C54 1.247 . S
O49 Zn45 2.035 . S
O49 C54 1.258 1_455 S
O50 C43 1.247 . S
O50 Zn47 2.028 . S
O51 C43 1.258 1_455 S
O51 Zn45 2.035 . S
O52 Zn45 2.028 . S
O52 C55 1.247 . S
O53 Zn47 2.035 1_455 S
O53 C55 1.258 . S
C54 O48 1.247 . S
C54 O49 1.258 1_655 S
C55 O52 1.247 . S
C55 O53 1.258 . S
C56 O58 1.247 1_565 S
C56 O60 1.258 . S
C57 O64 1.247 . S
C57 O65 1.258 1_556 S
O58 C56 1.247 1_545 S
O58 Zn59 2.028 . S
Zn59 O58 2.028 . S
Zn59 O63 2.035 . S
Zn59 O65 2.035 . S
Zn59 O66 2.028 . S
O60 C56 1.258 . S
O60 Zn61 2.035 1_554 S
Zn61 O60 2.035 1_556 S
Zn61 O62 2.028 1_565 S
Zn61 O64 2.028 1_565 S
Zn61 O67 2.035 1_556 S
O62 Zn61 2.028 1_545 S
O62 C68 1.247 . S
O63 Zn59 2.035 . S
O63 C68 1.258 1_554 S
O64 C57 1.247 . S
O64 Zn61 2.028 1_545 S
O65 C57 1.258 1_554 S
O65 Zn59 2.035 . S
O66 Zn59 2.028 . S
O66 C69 1.247 1_545 S
O67 Zn61 2.035 1_554 S
O67 C69 1.258 . S
C68 O62 1.247 . S
C68 O63 1.258 1_556 S
C69 O66 1.247 1_565 S
C69 O67 1.258 . S
C70 O72 1.247 . S
C70 O74 1.258 . S
C71 O78 1.247 . S
C71 O79 1.258 . S
O72 C70 1.247 . S
O72 Zn73 2.028 . S
Zn73 O72 2.028 . S
Zn73 O77 2.035 . S
Zn73 O79 2.035 . S
Zn73 O80 2.028 . S
O74 C70 1.258 . S
O74 Zn75 2.035 . S
Zn75 O74 2.035 . S
Zn75 O76 2.028 . S
Zn75 O78 2.028 . S
Zn75 O81 2.035 . S
O76 Zn75 2.028 . S
O76 C82 1.247 . S
O77 Zn73 2.035 . S
O77 C82 1.258 . S
O78 C71 1.247 . S
O78 Zn75 2.028 . S
O79 C71 1.258 . S
O79 Zn73 2.035 . S
O80 Zn73 2.028 . S
O80 C83 1.247 . S
O81 Zn75 2.035 . S
O81 C83 1.258 . S
C82 O76 1.247 . S
C82 O77 1.258 . S
C83 O80 1.247 . S
C83 O81 1.258 . S
C84 C85 1.560 1_655 S
C84 H145 0.959 . S
C84 H146 0.959 . S
C84 H147 0.960 . S
C85 C84 1.560 1_455 S
C85 O140 1.426 . S
C85 H144 0.980 . S
C86 C87 1.407 . S
C86 C91 1.418 . S
C86 O140 1.334 . S
C87 C86 1.407 . S
C87 C88 1.360 . S
C87 H148 0.929 . S
C88 C87 1.360 . S
C88 C89 1.401 . S
C88 C92 1.527 . S
C89 C88 1.401 . S
C89 C90 1.405 . S
C89 C122 1.587 . S
C90 C89 1.405 . S
C90 C91 1.332 . S
C90 C93 1.496 . S
C91 C86 1.418 . S
C91 C90 1.332 . S
C91 H149 0.929 . S
C92 C88 1.527 . S
C92 H150 0.959 . S
C92 H151 0.961 . S
C92 H152 0.961 . S
C93 C90 1.496 . S
C93 H153 0.960 . S
C93 H154 0.960 . S
C93 H155 0.961 . S
C94 C95 1.517 . S
C94 H157 0.961 . S
C94 H158 0.960 . S
C94 H159 0.959 . S
C95 C94 1.517 . S
C95 O143 1.468 . S
C95 H156 0.980 . S
C96 C97 1.349 . S
C96 C101 1.367 . S
C96 O143 1.408 . S
C97 C96 1.349 . S
C97 C98 1.407 . S
C97 H160 0.930 . S
C98 C97 1.407 . S
C98 C99 1.449 . S
C98 C102 1.535 . S
C99 C98 1.449 . S
C99 C100 1.384 . S
C99 C124 1.553 . S
C100 C99 1.384 . S
C100 C101 1.364 . S
C100 C103 1.450 . S
C101 C96 1.367 . S
C101 C100 1.364 . S
C101 H161 0.931 . S
C102 C98 1.535 . S
C102 H162 0.959 . S
C102 H163 0.961 . S
C102 H164 0.959 . S
C103 C100 1.450 . S
C103 H165 0.960 . S
C103 H166 0.960 . S
C103 H167 0.960 . S
C104 C105 1.309 . S
C104 C109 1.304 . S
C104 O142 1.435 . S
C105 C104 1.309 . S
C105 C106 1.476 . S
C105 H169 0.930 . S
C106 C105 1.476 . S
C106 C107 1.400 . S
C106 C110 1.567 . S
C107 C106 1.400 . S
C107 C108 1.373 . S
C107 C129 1.432 . S
C108 C107 1.373 . S
C108 C109 1.339 . S
C108 C111 1.530 . S
C109 C104 1.304 . S
C109 C108 1.339 . S
C109 H170 0.930 . S
C110 C106 1.567 . S
C110 H171 0.961 . S
C110 H172 0.960 . S
C110 H173 0.958 . S
C111 C108 1.530 . S
C111 H174 0.961 . S
C111 H175 0.960 . S
C111 H176 0.960 . S
C112 C113 1.530 1_655 S
C112 H178 0.961 . S
C112 H179 0.961 . S
C112 H180 0.959 . S
C113 C112 1.530 1_455 S
C113 O141 1.412 . S
C113 H177 0.980 . S
C114 C115 1.288 . S
C114 C119 1.377 . S
C114 O141 1.393 . S
C115 C114 1.288 . S
C115 C116 1.369 . S
C115 H181 0.932 . S
C116 C115 1.369 . S
C116 C117 1.398 . S
C116 C120 1.527 . S
C117 C116 1.398 . S
C117 C118 1.380 . S
C117 C131 1.497 . S
C118 C117 1.380 . S
C118 C119 1.383 . S
C118 C121 1.603 . S
C119 C114 1.377 . S
C119 C118 1.383 . S
C119 H182 0.929 . S
C120 C116 1.527 . S
C120 H183 0.961 . S
C120 H184 0.959 . S
C120 H185 0.959 . S
C121 C118 1.603 . S
C121 H186 0.960 . S
C121 H187 0.962 . S
C121 H188 0.961 . S
C122 C89 1.587 . S
C122 C123 1.360 . S
C122 C135 1.412 . S
C123 C122 1.360 . S
C123 C124 1.365 . S
C123 H189 0.929 . S
C124 C99 1.553 . S
C124 C123 1.365 . S
C124 C125 1.404 . S
C125 C124 1.404 . S
C125 C126 1.395 . S
C125 C136 1.451 . S
C126 C125 1.395 . S
C126 C127 1.322 . S
C126 H190 0.930 . S
C127 C126 1.322 . S
C127 C128 1.459 . S
C127 H191 0.929 . S
C128 C127 1.459 . S
C128 C129 1.445 . S
C128 C137 1.395 . S
C129 C107 1.432 . S
C129 C128 1.445 . S
C129 C130 1.370 . S
C130 C129 1.370 . S
C130 C131 1.438 . S
C130 H192 0.930 . S
C131 C117 1.497 . S
C131 C130 1.438 . S
C131 C132 1.360 . S
C132 C131 1.360 . S
C132 C133 1.401 . S
C132 C137 1.446 . S
C133 C132 1.401 . S
C133 C134 1.347 . S
C133 H193 0.929 . S
C134 C133 1.347 . S
C134 C135 1.455 . S
C134 H194 0.930 . S
C135 C122 1.412 . S
C135 C134 1.455 . S
C135 C136 1.331 . S
C136 C125 1.451 . S
C136 C135 1.331 . S
C136 C137 1.497 . S
C137 C128 1.395 . S
C137 C132 1.446 . S
C137 C136 1.497 . S
C138 C139 1.582 . S
C138 H195 0.962 . S
C138 H196 0.959 . S
C138 H197 0.958 . S
C139 C138 1.582 . S
C139 O142 1.458 . S
C139 H168 0.980 . S
O140 C85 1.426 . S
O140 C86 1.334 . S
O141 C113 1.412 . S
O141 C114 1.393 . S
O142 C104 1.435 . S
O142 C139 1.458 . S
O143 C95 1.468 . S
O143 C96 1.408 . S
H144 C85 0.980 . S
H145 C84 0.959 . S
H146 C84 0.959 . S
H147 C84 0.960 . S
H148 C87 0.929 . S
H149 C91 0.929 . S
H150 C92 0.959 . S
H151 C92 0.961 . S
H152 C92 0.961 . S
H153 C93 0.960 . S
H154 C93 0.960 . S
H155 C93 0.961 . S
H156 C95 0.980 . S
H157 C94 0.961 . S
H158 C94 0.960 . S
H159 C94 0.959 . S
H160 C97 0.930 . S
H161 C101 0.931 . S
H162 C102 0.959 . S
H163 C102 0.961 . S
H164 C102 0.959 . S
H165 C103 0.960 . S
H166 C103 0.960 . S
H167 C103 0.960 . S
H168 C139 0.980 . S
H169 C105 0.930 . S
H170 C109 0.930 . S
H171 C110 0.961 . S
H172 C110 0.960 . S
H173 C110 0.958 . S
H174 C111 0.961 . S
H175 C111 0.960 . S
H176 C111 0.960 . S
H177 C113 0.980 . S
H178 C112 0.961 . S
H179 C112 0.961 . S
H180 C112 0.959 . S
H181 C115 0.932 . S
H182 C119 0.929 . S
H183 C120 0.961 . S
H184 C120 0.959 . S
H185 C120 0.959 . S
H186 C121 0.960 . S
H187 C121 0.962 . S
H188 C121 0.961 . S
H189 C123 0.929 . S
H190 C126 0.930 . S
H191 C127 0.929 . S
H192 C130 0.930 . S
H193 C133 0.929 . S
H194 C134 0.930 . S
H195 C138 0.962 . S
H196 C138 0.959 . S
H197 C138 0.958 . S
C198 C199 1.560 1_554 S
C198 H259 0.959 . S
C198 H260 0.959 1_654 S
C198 H261 0.960 1_655 S
C199 C198 1.560 1_556 S
C199 O254 1.426 . S
C199 H258 0.994 . S
C200 C201 1.407 . S
C200 C205 1.418 . S
C200 O254 1.334 . S
C201 C200 1.407 . S
C201 C202 1.360 . S
C201 H262 0.929 . S
C202 C201 1.360 . S
C202 C203 1.401 . S
C202 C206 1.527 . S
C203 C202 1.401 . S
C203 C204 1.405 . S
C203 C236 1.587 . S
C204 C203 1.405 . S
C204 C205 1.332 . S
C204 C207 1.496 . S
C205 C200 1.418 . S
C205 C204 1.332 . S
C205 H263 0.929 . S
C206 C202 1.527 . S
C206 H264 0.959 . S
C206 H265 0.961 . S
C206 H266 0.961 . S
C207 C204 1.496 . S
C207 H267 0.960 . S
C207 H268 0.960 . S
C207 H269 0.961 . S
C208 C209 1.515 . S
C208 H271 0.961 1_556 S
C208 H272 0.960 1_556 S
C208 H273 0.959 . S
C209 C208 1.515 . S
C209 O257 1.466 . S
C209 H270 0.982 1_565 S
C210 C211 1.349 . S
C210 C215 1.367 . S
C210 O257 1.408 1_545 S
C211 C210 1.349 . S
C211 C212 1.407 . S
C211 H274 0.930 . S
C212 C211 1.407 . S
C212 C213 1.449 . S
C212 C216 1.535 . S
C213 C212 1.449 . S
C213 C214 1.384 . S
C213 C238 1.553 . S
C214 C213 1.384 . S
C214 C215 1.364 . S
C214 C217 1.450 . S
C215 C210 1.367 . S
C215 C214 1.364 . S
C215 H275 0.931 . S
C216 C212 1.535 . S
C216 H276 0.959 . S
C216 H277 0.961 . S
C216 H278 0.959 . S
C217 C214 1.450 . S
C217 H279 0.960 . S
C217 H280 0.960 . S
C217 H281 0.960 . S
C218 C219 1.309 . S
C218 C223 1.304 . S
C218 O256 1.450 . S
C219 C218 1.309 . S
C219 C220 1.476 . S
C219 H283 0.930 . S
C220 C219 1.476 . S
C220 C221 1.400 . S
C220 C224 1.567 . S
C221 C220 1.400 . S
C221 C222 1.373 . S
C221 C243 1.432 . S
C222 C221 1.373 . S
C222 C223 1.339 . S
C222 C225 1.530 . S
C223 C218 1.304 . S
C223 C222 1.339 . S
C223 H284 0.930 . S
C224 C220 1.567 . S
C224 H285 0.961 . S
C224 H286 0.960 . S
C224 H287 0.958 . S
C225 C222 1.530 . S
C225 H288 0.961 . S
C225 H289 0.960 . S
C225 H290 0.960 . S
C226 C227 1.527 . S
C226 H292 0.961 . S
C226 H293 0.961 . S
C226 H294 0.962 . S
C227 C226 1.527 . S
C227 O255 1.391 1_455 S
C227 H291 0.992 . S
C228 C229 1.288 . S
C228 C233 1.377 . S
C228 O255 1.393 . S
C229 C228 1.288 . S
C229 C230 1.369 . S
C229 H295 0.932 . S
C230 C229 1.369 . S
C230 C231 1.398 . S
C230 C234 1.527 . S
C231 C230 1.398 . S
C231 C232 1.380 . S
C231 C245 1.497 . S
C232 C231 1.380 . S
C232 C233 1.383 . S
C232 C235 1.603 . S
C233 C228 1.377 . S
C233 C232 1.383 . S
C233 H296 0.929 . S
C234 C230 1.527 . S
C234 H297 0.961 . S
C234 H298 0.959 . S
C234 H299 0.959 . S
C235 C232 1.603 . S
C235 H300 0.960 . S
C235 H301 0.962 . S
C235 H302 0.961 . S
C236 C203 1.587 . S
C236 C237 1.360 . S
C236 C249 1.412 . S
C237 C236 1.360 . S
C237 C238 1.365 . S
C237 H303 0.929 . S
C238 C213 1.553 . S
C238 C237 1.365 . S
C238 C239 1.404 . S
C239 C238 1.404 . S
C239 C240 1.395 . S
C239 C250 1.451 . S
C240 C239 1.395 . S
C240 C241 1.322 . S
C240 H304 0.930 . S
C241 C240 1.322 . S
C241 C242 1.459 . S
C241 H305 0.929 . S
C242 C241 1.459 . S
C242 C243 1.445 . S
C242 C251 1.395 . S
C243 C221 1.432 . S
C243 C242 1.445 . S
C243 C244 1.370 . S
C244 C243 1.370 . S
C244 C245 1.438 . S
C244 H306 0.930 . S
C245 C231 1.497 . S
C245 C244 1.438 . S
C245 C246 1.360 . S
C246 C245 1.360 . S
C246 C247 1.401 . S
C246 C251 1.446 . S
C247 C246 1.401 . S
C247 C248 1.347 . S
C247 H307 0.929 . S
C248 C247 1.347 . S
C248 C249 1.455 . S
C248 H308 0.930 . S
C249 C236 1.412 . S
C249 C248 1.455 . S
C249 C250 1.331 . S
C250 C239 1.451 . S
C250 C249 1.331 . S
C250 C251 1.497 . S
C251 C242 1.395 . S
C251 C246 1.446 . S
C251 C250 1.497 . S
C252 C253 1.582 . S
C252 H309 0.962 . S
C252 H310 0.959 . S
C252 H311 0.958 . S
C253 C252 1.582 . S
C253 O256 1.466 1_565 S
C253 H282 0.980 . S
O254 C199 1.426 . S
O254 C200 1.334 . S
O255 C227 1.391 1_655 S
O255 C228 1.393 . S
O256 C218 1.450 . S
O256 C253 1.466 1_545 S
O257 C209 1.466 . S
O257 C210 1.408 1_565 S
H258 C199 0.994 . S
H259 C198 0.959 . S
H260 C198 0.959 1_456 S
H261 C198 0.960 1_455 S
H262 C201 0.929 . S
H263 C205 0.929 . S
H264 C206 0.959 . S
H265 C206 0.961 . S
H266 C206 0.961 . S
H267 C207 0.960 . S
H268 C207 0.960 . S
H269 C207 0.961 . S
H270 C209 0.982 1_545 S
H271 C208 0.961 1_554 S
H272 C208 0.960 1_554 S
H273 C208 0.959 . S
H274 C211 0.930 . S
H275 C215 0.931 . S
H276 C216 0.959 . S
H277 C216 0.961 . S
H278 C216 0.959 . S
H279 C217 0.960 . S
H280 C217 0.960 . S
H281 C217 0.960 . S
H282 C253 0.980 . S
H283 C219 0.930 . S
H284 C223 0.930 . S
H285 C224 0.961 . S
H286 C224 0.960 . S
H287 C224 0.958 . S
H288 C225 0.961 . S
H289 C225 0.960 . S
H290 C225 0.960 . S
H291 C227 0.992 . S
H292 C226 0.961 . S
H293 C226 0.961 . S
H294 C226 0.962 . S
H295 C229 0.932 . S
H296 C233 0.929 . S
H297 C234 0.961 . S
H298 C234 0.959 . S
H299 C234 0.959 . S
H300 C235 0.960 . S
H301 C235 0.962 . S
H302 C235 0.961 . S
H303 C237 0.929 . S
H304 C240 0.930 . S
H305 C241 0.929 . S
H306 C244 0.930 . S
H307 C247 0.929 . S
H308 C248 0.930 . S
H309 C252 0.962 . S
H310 C252 0.959 . S
H311 C252 0.958 . S
C312 C313 1.560 . S
C312 H373 0.959 . S
C312 H374 0.959 . S
C312 H375 0.960 . S
C313 C312 1.560 . S
C313 O368 1.426 . S
C313 H372 0.980 . S
C314 C315 1.407 . S
C314 C319 1.418 . S
C314 O368 1.334 . S
C315 C314 1.407 . S
C315 C316 1.360 . S
C315 H376 0.929 . S
C316 C315 1.360 . S
C316 C317 1.401 . S
C316 C320 1.527 . S
C317 C316 1.401 . S
C317 C318 1.405 . S
C317 C350 1.587 . S
C318 C317 1.405 . S
C318 C319 1.332 . S
C318 C321 1.496 . S
C319 C314 1.418 . S
C319 C318 1.332 . S
C319 H377 0.929 . S
C320 C316 1.527 . S
C320 H378 0.959 . S
C320 H379 0.961 . S
C320 H380 0.961 . S
C321 C318 1.496 . S
C321 H381 0.960 . S
C321 H382 0.960 . S
C321 H383 0.961 . S
C322 C323 1.517 1_545 S
C322 H385 0.961 . S
C322 H386 0.960 . S
C322 H387 0.959 . S
C323 C322 1.517 1_565 S
C323 O371 1.468 . S
C323 H384 0.980 . S
C324 C325 1.349 . S
C324 C329 1.367 . S
C324 O371 1.408 . S
C325 C324 1.349 . S
C325 C326 1.407 . S
C325 H388 0.930 . S
C326 C325 1.407 . S
C326 C327 1.449 . S
C326 C330 1.535 . S
C327 C326 1.449 . S
C327 C328 1.384 . S
C327 C352 1.553 . S
C328 C327 1.384 . S
C328 C329 1.364 . S
C328 C331 1.450 . S
C329 C324 1.367 . S
C329 C328 1.364 . S
C329 H389 0.931 . S
C330 C326 1.535 . S
C330 H390 0.959 . S
C330 H391 0.961 . S
C330 H392 0.959 . S
C331 C328 1.450 . S
C331 H393 0.960 . S
C331 H394 0.960 . S
C331 H395 0.960 . S
C332 C333 1.309 . S
C332 C337 1.304 . S
C332 O370 1.435 . S
C333 C332 1.309 . S
C333 C334 1.476 . S
C333 H397 0.930 . S
C334 C333 1.476 . S
C334 C335 1.400 . S
C334 C338 1.567 . S
C335 C334 1.400 . S
C335 C336 1.373 . S
C335 C357 1.432 . S
C336 C335 1.373 . S
C336 C337 1.339 . S
C336 C339 1.530 . S
C337 C332 1.304 . S
C337 C336 1.339 . S
C337 H398 0.930 . S
C338 C334 1.567 . S
C338 H399 0.961 . S
C338 H400 0.960 . S
C338 H401 0.958 . S
C339 C336 1.530 . S
C339 H402 0.961 . S
C339 H403 0.960 . S
C339 H404 0.960 . S
C340 C341 1.530 . S
C340 H406 0.961 . S
C340 H407 0.961 . S
C340 H408 0.959 . S
C341 C340 1.530 . S
C341 O369 1.412 . S
C341 H405 0.980 . S
C342 C343 1.288 . S
C342 C347 1.377 . S
C342 O369 1.393 . S
C343 C342 1.288 . S
C343 C344 1.369 . S
C343 H409 0.932 . S
C344 C343 1.369 . S
C344 C345 1.398 . S
C344 C348 1.527 . S
C345 C344 1.398 . S
C345 C346 1.380 . S
C345 C359 1.497 . S
C346 C345 1.380 . S
C346 C347 1.383 . S
C346 C349 1.603 . S
C347 C342 1.377 . S
C347 C346 1.383 . S
C347 H410 0.929 . S
C348 C344 1.527 . S
C348 H411 0.961 . S
C348 H412 0.959 . S
C348 H413 0.959 . S
C349 C346 1.603 . S
C349 H414 0.960 . S
C349 H415 0.962 . S
C349 H416 0.961 . S
C350 C317 1.587 . S
C350 C351 1.360 . S
C350 C363 1.412 . S
C351 C350 1.360 . S
C351 C352 1.365 . S
C351 H417 0.929 . S
C352 C327 1.553 . S
C352 C351 1.365 . S
C352 C353 1.404 . S
C353 C352 1.404 . S
C353 C354 1.395 . S
C353 C364 1.451 . S
C354 C353 1.395 . S
C354 C355 1.322 . S
C354 H418 0.930 . S
C355 C354 1.322 . S
C355 C356 1.459 . S
C355 H419 0.929 . S
C356 C355 1.459 . S
C356 C357 1.445 . S
C356 C365 1.395 . S
C357 C335 1.432 . S
C357 C356 1.445 . S
C357 C358 1.370 . S
C358 C357 1.370 . S
C358 C359 1.438 . S
C358 H420 0.930 . S
C359 C345 1.497 . S
C359 C358 1.438 . S
C359 C360 1.360 . S
C360 C359 1.360 . S
C360 C361 1.401 . S
C360 C365 1.446 . S
C361 C360 1.401 . S
C361 C362 1.347 . S
C361 H421 0.929 . S
C362 C361 1.347 . S
C362 C363 1.455 . S
C362 H422 0.930 . S
C363 C350 1.412 . S
C363 C362 1.455 . S
C363 C364 1.331 . S
C364 C353 1.451 . S
C364 C363 1.331 . S
C364 C365 1.497 . S
C365 C356 1.395 . S
C365 C360 1.446 . S
C365 C364 1.497 . S
C366 C367 1.582 . S
C366 H423 0.962 . S
C366 H424 0.959 . S
C366 H425 0.958 . S
C367 C366 1.582 . S
C367 O370 1.458 1_545 S
C367 H396 0.980 . S
O368 C313 1.426 . S
O368 C314 1.334 . S
O369 C341 1.412 . S
O369 C342 1.393 . S
O370 C332 1.435 . S
O370 C367 1.458 1_565 S
O371 C323 1.468 . S
O371 C324 1.408 . S
H372 C313 0.980 . S
H373 C312 0.959 . S
H374 C312 0.959 . S
H375 C312 0.960 . S
H376 C315 0.929 . S
H377 C319 0.929 . S
H378 C320 0.959 . S
H379 C320 0.961 . S
H380 C320 0.961 . S
H381 C321 0.960 . S
H382 C321 0.960 . S
H383 C321 0.961 . S
H384 C323 0.980 . S
H385 C322 0.961 . S
H386 C322 0.960 . S
H387 C322 0.959 . S
H388 C325 0.930 . S
H389 C329 0.931 . S
H390 C330 0.959 . S
H391 C330 0.961 . S
H392 C330 0.959 . S
H393 C331 0.960 . S
H394 C331 0.960 . S
H395 C331 0.960 . S
H396 C367 0.980 . S
H397 C333 0.930 . S
H398 C337 0.930 . S
H399 C338 0.961 . S
H400 C338 0.960 . S
H401 C338 0.958 . S
H402 C339 0.961 . S
H403 C339 0.960 . S
H404 C339 0.960 . S
H405 C341 0.980 . S
H406 C340 0.961 . S
H407 C340 0.961 . S
H408 C340 0.959 . S
H409 C343 0.932 . S
H410 C347 0.929 . S
H411 C348 0.961 . S
H412 C348 0.959 . S
H413 C348 0.959 . S
H414 C349 0.960 . S
H415 C349 0.962 . S
H416 C349 0.961 . S
H417 C351 0.929 . S
H418 C354 0.930 . S
H419 C355 0.929 . S
H420 C358 0.930 . S
H421 C361 0.929 . S
H422 C362 0.930 . S
H423 C366 0.962 . S
H424 C366 0.959 . S
H425 C366 0.958 . S
C426 C427 1.560 1_554 S
C426 H487 0.959 . S
C426 H488 0.959 . S
C426 H489 0.960 . S
C427 C426 1.560 1_556 S
C427 O482 1.426 . S
C427 H486 0.980 1_556 S
C428 C429 1.407 . S
C428 C433 1.418 . S
C428 O482 1.334 . S
C429 C428 1.407 . S
C429 C430 1.360 . S
C429 H490 0.929 . S
C430 C429 1.360 . S
C430 C431 1.401 . S
C430 C434 1.527 . S
C431 C430 1.401 . S
C431 C432 1.405 . S
C431 C464 1.587 . S
C432 C431 1.405 . S
C432 C433 1.332 . S
C432 C435 1.496 . S
C433 C428 1.418 . S
C433 C432 1.332 . S
C433 H491 0.929 . S
C434 C430 1.527 . S
C434 H492 0.959 . S
C434 H493 0.961 . S
C434 H494 0.961 . S
C435 C432 1.496 . S
C435 H495 0.960 . S
C435 H496 0.960 . S
C435 H497 0.961 . S
C436 C437 1.517 . S
C436 H499 0.961 1_556 S
C436 H500 0.960 1_556 S
C436 H501 0.959 . S
C437 C436 1.517 . S
C437 O485 1.468 . S
C437 H498 0.980 . S
C438 C439 1.349 . S
C438 C443 1.367 . S
C438 O485 1.408 1_655 S
C439 C438 1.349 . S
C439 C440 1.407 . S
C439 H502 0.930 . S
C440 C439 1.407 . S
C440 C441 1.449 . S
C440 C444 1.535 . S
C441 C440 1.449 . S
C441 C442 1.384 . S
C441 C466 1.553 . S
C442 C441 1.384 . S
C442 C443 1.364 . S
C442 C445 1.450 . S
C443 C438 1.367 . S
C443 C442 1.364 . S
C443 H503 0.931 1_655 S
C444 C440 1.535 . S
C444 H504 0.959 . S
C444 H505 0.961 . S
C444 H506 0.959 . S
C445 C442 1.450 . S
C445 H507 0.960 . S
C445 H508 0.960 . S
C445 H509 0.960 . S
C446 C447 1.309 . S
C446 C451 1.304 . S
C446 O484 1.435 1_655 S
C447 C446 1.309 . S
C447 C448 1.476 . S
C447 H511 0.930 . S
C448 C447 1.476 . S
C448 C449 1.400 . S
C448 C452 1.567 . S
C449 C448 1.400 . S
C449 C450 1.373 . S
C449 C471 1.432 . S
C450 C449 1.373 . S
C450 C451 1.339 . S
C450 C453 1.530 . S
C451 C446 1.304 . S
C451 C450 1.339 . S
C451 H512 0.930 . S
C452 C448 1.567 . S
C452 H513 0.961 . S
C452 H514 0.960 . S
C452 H515 0.958 . S
C453 C450 1.530 . S
C453 H516 0.961 . S
C453 H517 0.960 . S
C453 H518 0.960 . S
C454 C455 1.530 . S
C454 H520 0.961 . S
C454 H521 0.961 . S
C454 H522 0.959 . S
C455 C454 1.530 . S
C455 O483 1.412 . S
C455 H519 0.980 . S
C456 C457 1.288 . S
C456 C461 1.377 . S
C456 O483 1.393 . S
C457 C456 1.288 . S
C457 C458 1.369 . S
C457 H523 0.932 . S
C458 C457 1.369 . S
C458 C459 1.398 . S
C458 C462 1.527 . S
C459 C458 1.398 . S
C459 C460 1.380 . S
C459 C473 1.497 . S
C460 C459 1.380 . S
C460 C461 1.383 . S
C460 C463 1.603 . S
C461 C456 1.377 . S
C461 C460 1.383 . S
C461 H524 0.929 . S
C462 C458 1.527 . S
C462 H525 0.961 . S
C462 H526 0.959 . S
C462 H527 0.959 . S
C463 C460 1.603 . S
C463 H528 0.960 . S
C463 H529 0.962 . S
C463 H530 0.961 . S
C464 C431 1.587 . S
C464 C465 1.360 . S
C464 C477 1.412 . S
C465 C464 1.360 . S
C465 C466 1.365 . S
C465 H531 0.929 . S
C466 C441 1.553 . S
C466 C465 1.365 . S
C466 C467 1.404 . S
C467 C466 1.404 . S
C467 C468 1.395 . S
C467 C478 1.451 . S
C468 C467 1.395 . S
C468 C469 1.322 . S
C468 H532 0.930 . S
C469 C468 1.322 . S
C469 C470 1.459 . S
C469 H533 0.929 . S
C470 C469 1.459 . S
C470 C471 1.445 . S
C470 C479 1.395 . S
C471 C449 1.432 . S
C471 C470 1.445 . S
C471 C472 1.370 . S
C472 C471 1.370 . S
C472 C473 1.438 . S
C472 H534 0.930 . S
C473 C459 1.497 . S
C473 C472 1.438 . S
C473 C474 1.360 . S
C474 C473 1.360 . S
C474 C475 1.401 . S
C474 C479 1.446 . S
C475 C474 1.401 . S
C475 C476 1.347 . S
C475 H535 0.929 . S
C476 C475 1.347 . S
C476 C477 1.455 . S
C476 H536 0.930 . S
C477 C464 1.412 . S
C477 C476 1.455 . S
C477 C478 1.331 . S
C478 C467 1.451 . S
C478 C477 1.331 . S
C478 C479 1.497 . S
C479 C470 1.395 . S
C479 C474 1.446 . S
C479 C478 1.497 . S
C480 C481 1.582 . S
C480 H537 0.962 . S
C480 H538 0.959 . S
C480 H539 0.958 . S
C481 C480 1.582 . S
C481 O484 1.458 . S
C481 H510 0.980 . S
O482 C427 1.426 . S
O482 C428 1.334 . S
O483 C455 1.412 . S
O483 C456 1.393 . S
O484 C446 1.435 1_455 S
O484 C481 1.458 . S
O485 C437 1.468 . S
O485 C438 1.408 1_455 S
H486 C427 0.980 1_554 S
H487 C426 0.959 . S
H488 C426 0.959 . S
H489 C426 0.960 . S
H490 C429 0.929 . S
H491 C433 0.929 . S
H492 C434 0.959 . S
H493 C434 0.961 . S
H494 C434 0.961 . S
H495 C435 0.960 . S
H496 C435 0.960 . S
H497 C435 0.961 . S
H498 C437 0.980 . S
H499 C436 0.961 1_554 S
H500 C436 0.960 1_554 S
H501 C436 0.959 . S
H502 C439 0.930 . S
H503 C443 0.931 1_455 S
H504 C444 0.959 . S
H505 C444 0.961 . S
H506 C444 0.959 . S
H507 C445 0.960 . S
H508 C445 0.960 . S
H509 C445 0.960 . S
H510 C481 0.980 . S
H511 C447 0.930 . S
H512 C451 0.930 . S
H513 C452 0.961 . S
H514 C452 0.960 . S
H515 C452 0.958 . S
H516 C453 0.961 . S
H517 C453 0.960 . S
H518 C453 0.960 . S
H519 C455 0.980 . S
H520 C454 0.961 . S
H521 C454 0.961 . S
H522 C454 0.959 . S
H523 C457 0.932 . S
H524 C461 0.929 . S
H525 C462 0.961 . S
H526 C462 0.959 . S
H527 C462 0.959 . S
H528 C463 0.960 . S
H529 C463 0.962 . S
H530 C463 0.961 . S
H531 C465 0.929 . S
H532 C468 0.930 . S
H533 C469 0.929 . S
H534 C472 0.930 . S
H535 C475 0.929 . S
H536 C476 0.930 . S
H537 C480 0.962 . S
H538 C480 0.959 . S
H539 C480 0.958 . S
C540 C541 1.560 . S
C540 H601 0.959 . S
C540 H602 0.959 . S
C540 H603 0.960 . S
C541 C540 1.560 . S
C541 O596 1.426 . S
C541 H600 0.980 . S
C542 C543 1.407 . S
C542 C547 1.418 . S
C542 O596 1.334 . S
C543 C542 1.407 . S
C543 C544 1.360 . S
C543 H604 0.929 . S
C544 C543 1.360 . S
C544 C545 1.401 . S
C544 C548 1.527 . S
C545 C544 1.401 . S
C545 C546 1.405 . S
C545 C578 1.587 . S
C546 C545 1.405 . S
C546 C547 1.332 . S
C546 C549 1.496 . S
C547 C542 1.418 . S
C547 C546 1.332 . S
C547 H605 0.929 . S
C548 C544 1.527 . S
C548 H606 0.959 . S
C548 H607 0.961 . S
C548 H608 0.961 . S
C549 C546 1.496 . S
C549 H609 0.960 . S
C549 H610 0.960 . S
C549 H611 0.961 . S
C550 C551 1.517 . S
C550 H613 0.961 . S
C550 H614 0.960 . S
C550 H615 0.959 . S
C551 C550 1.517 . S
C551 O599 1.468 . S
C551 H612 0.980 1_545 S
C552 C553 1.349 . S
C552 C557 1.367 . S
C552 O599 1.408 1_565 S
C553 C552 1.349 . S
C553 C554 1.407 . S
C553 H616 0.930 . S
C554 C553 1.407 . S
C554 C555 1.449 . S
C554 C558 1.535 . S
C555 C554 1.449 . S
C555 C556 1.384 . S
C555 C580 1.553 . S
C556 C555 1.384 . S
C556 C557 1.364 . S
C556 C559 1.450 . S
C557 C552 1.367 . S
C557 C556 1.364 . S
C557 H617 0.931 . S
C558 C554 1.535 . S
C558 H618 0.959 . S
C558 H619 0.961 . S
C558 H620 0.959 . S
C559 C556 1.450 . S
C559 H621 0.960 . S
C559 H622 0.960 . S
C559 H623 0.960 . S
C560 C561 1.309 . S
C560 C565 1.304 . S
C560 O598 1.435 1_565 S
C561 C560 1.309 . S
C561 C562 1.476 . S
C561 H625 0.930 . S
C562 C561 1.476 . S
C562 C563 1.400 . S
C562 C566 1.567 . S
C563 C562 1.400 . S
C563 C564 1.373 . S
C563 C585 1.432 . S
C564 C563 1.373 . S
C564 C565 1.339 . S
C564 C567 1.530 . S
C565 C560 1.304 . S
C565 C564 1.339 . S
C565 H626 0.930 . S
C566 C562 1.567 . S
C566 H627 0.961 . S
C566 H628 0.960 . S
C566 H629 0.958 . S
C567 C564 1.530 . S
C567 H630 0.961 . S
C567 H631 0.960 . S
C567 H632 0.960 . S
C568 C569 1.530 . S
C568 H634 0.961 1_455 S
C568 H635 0.961 . S
C568 H636 0.959 . S
C569 C568 1.530 . S
C569 O597 1.412 . S
C569 H633 0.980 . S
C570 C571 1.288 . S
C570 C575 1.377 . S
C570 O597 1.393 . S
C571 C570 1.288 . S
C571 C572 1.369 . S
C571 H637 0.932 . S
C572 C571 1.369 . S
C572 C573 1.398 . S
C572 C576 1.527 . S
C573 C572 1.398 . S
C573 C574 1.380 . S
C573 C587 1.497 . S
C574 C573 1.380 . S
C574 C575 1.383 . S
C574 C577 1.603 . S
C575 C570 1.377 . S
C575 C574 1.383 . S
C575 H638 0.929 . S
C576 C572 1.527 . S
C576 H639 0.961 . S
C576 H640 0.959 . S
C576 H641 0.959 . S
C577 C574 1.603 . S
C577 H642 0.960 . S
C577 H643 0.962 . S
C577 H644 0.961 . S
C578 C545 1.587 . S
C578 C579 1.360 . S
C578 C591 1.412 . S
C579 C578 1.360 . S
C579 C580 1.365 . S
C579 H645 0.929 . S
C580 C555 1.553 . S
C580 C579 1.365 . S
C580 C581 1.404 . S
C581 C580 1.404 . S
C581 C582 1.395 . S
C581 C592 1.451 . S
C582 C581 1.395 . S
C582 C583 1.322 . S
C582 H646 0.930 . S
C583 C582 1.322 . S
C583 C584 1.459 . S
C583 H647 0.929 . S
C584 C583 1.459 . S
C584 C585 1.445 . S
C584 C593 1.395 . S
C585 C563 1.432 . S
C585 C584 1.445 . S
C585 C586 1.370 . S
C586 C585 1.370 . S
C586 C587 1.438 . S
C586 H648 0.930 . S
C587 C573 1.497 . S
C587 C586 1.438 . S
C587 C588 1.360 . S
C588 C587 1.360 . S
C588 C589 1.401 . S
C588 C593 1.446 . S
C589 C588 1.401 . S
C589 C590 1.347 . S
C589 H649 0.929 . S
C590 C589 1.347 . S
C590 C591 1.455 . S
C590 H650 0.930 . S
C591 C578 1.412 . S
C591 C590 1.455 . S
C591 C592 1.331 . S
C592 C581 1.451 . S
C592 C591 1.331 . S
C592 C593 1.497 . S
C593 C584 1.395 . S
C593 C588 1.446 . S
C593 C592 1.497 . S
C594 C595 1.582 . S
C594 H651 0.962 . S
C594 H652 0.959 . S
C594 H653 0.958 . S
C595 C594 1.582 . S
C595 O598 1.458 . S
C595 H624 0.980 . S
O596 C541 1.426 . S
O596 C542 1.334 . S
O597 C569 1.412 . S
O597 C570 1.393 . S
O598 C560 1.435 1_545 S
O598 C595 1.458 . S
O599 C551 1.468 . S
O599 C552 1.408 1_545 S
H600 C541 0.980 . S
H601 C540 0.959 . S
H602 C540 0.959 . S
H603 C540 0.960 . S
H604 C543 0.929 . S
H605 C547 0.929 . S
H606 C548 0.959 . S
H607 C548 0.961 . S
H608 C548 0.961 . S
H609 C549 0.960 . S
H610 C549 0.960 . S
H611 C549 0.961 . S
H612 C551 0.980 1_565 S
H613 C550 0.961 . S
H614 C550 0.960 . S
H615 C550 0.959 . S
H616 C553 0.930 . S
H617 C557 0.931 . S
H618 C558 0.959 . S
H619 C558 0.961 . S
H620 C558 0.959 . S
H621 C559 0.960 . S
H622 C559 0.960 . S
H623 C559 0.960 . S
H624 C595 0.980 . S
H625 C561 0.930 . S
H626 C565 0.930 . S
H627 C566 0.961 . S
H628 C566 0.960 . S
H629 C566 0.958 . S
H630 C567 0.961 . S
H631 C567 0.960 . S
H632 C567 0.960 . S
H633 C569 0.980 . S
H634 C568 0.961 1_655 S
H635 C568 0.961 . S
H636 C568 0.959 . S
H637 C571 0.932 . S
H638 C575 0.929 . S
H639 C576 0.961 . S
H640 C576 0.959 . S
H641 C576 0.959 . S
H642 C577 0.960 . S
H643 C577 0.962 . S
H644 C577 0.961 . S
H645 C579 0.929 . S
H646 C582 0.930 . S
H647 C583 0.929 . S
H648 C586 0.930 . S
H649 C589 0.929 . S
H650 C590 0.930 . S
H651 C594 0.962 . S
H652 C594 0.959 . S
H653 C594 0.958 . S
C654 C655 1.560 1_565 S
C654 H715 0.959 . S
C654 H716 0.959 . S
C654 H717 0.960 . S
C655 C654 1.560 1_545 S
C655 O710 1.426 . S
C655 H714 0.980 . S
C656 C657 1.407 . S
C656 C661 1.418 . S
C656 O710 1.334 . S
C657 C656 1.407 . S
C657 C658 1.360 . S
C657 H718 0.929 . S
C658 C657 1.360 . S
C658 C659 1.401 . S
C658 C662 1.527 . S
C659 C658 1.401 . S
C659 C660 1.405 . S
C659 C692 1.587 . S
C660 C659 1.405 . S
C660 C661 1.332 . S
C660 C663 1.496 . S
C661 C656 1.418 . S
C661 C660 1.332 . S
C661 H719 0.929 . S
C662 C658 1.527 . S
C662 H720 0.959 . S
C662 H721 0.961 . S
C662 H722 0.961 . S
C663 C660 1.496 . S
C663 H723 0.960 . S
C663 H724 0.960 . S
C663 H725 0.961 . S
C664 C665 1.517 . S
C664 H727 0.961 . S
C664 H728 0.960 . S
C664 H729 0.959 . S
C665 C664 1.517 . S
C665 O713 1.468 . S
C665 H726 0.980 . S
C666 C667 1.349 . S
C666 C671 1.367 . S
C666 O713 1.408 . S
C667 C666 1.349 . S
C667 C668 1.407 . S
C667 H730 0.930 . S
C668 C667 1.407 . S
C668 C669 1.449 . S
C668 C672 1.535 . S
C669 C668 1.449 . S
C669 C670 1.384 . S
C669 C694 1.553 . S
C670 C669 1.384 . S
C670 C671 1.364 . S
C670 C673 1.450 . S
C671 C666 1.367 . S
C671 C670 1.364 . S
C671 H731 0.931 . S
C672 C668 1.535 . S
C672 H732 0.959 . S
C672 H733 0.961 . S
C672 H734 0.959 . S
C673 C670 1.450 . S
C673 H735 0.960 . S
C673 H736 0.960 . S
C673 H737 0.960 . S
C674 C675 1.309 . S
C674 C679 1.304 . S
C674 O712 1.435 . S
C675 C674 1.309 . S
C675 C676 1.476 . S
C675 H739 0.930 . S
C676 C675 1.476 . S
C676 C677 1.400 . S
C676 C680 1.567 . S
C677 C676 1.400 . S
C677 C678 1.373 . S
C677 C699 1.432 . S
C678 C677 1.373 . S
C678 C679 1.339 . S
C678 C681 1.530 . S
C679 C674 1.304 . S
C679 C678 1.339 . S
C679 H740 0.930 . S
C680 C676 1.567 . S
C680 H741 0.961 . S
C680 H742 0.960 . S
C680 H743 0.958 . S
C681 C678 1.530 . S
C681 H744 0.961 . S
C681 H745 0.960 . S
C681 H746 0.960 . S
C682 C683 1.530 1_565 S
C682 H748 0.961 . S
C682 H749 0.961 . S
C682 H750 0.959 . S
C683 C682 1.530 1_545 S
C683 O711 1.412 . S
C683 H747 0.980 . S
C684 C685 1.288 . S
C684 C689 1.377 . S
C684 O711 1.393 . S
C685 C684 1.288 . S
C685 C686 1.369 . S
C685 H751 0.932 . S
C686 C685 1.369 . S
C686 C687 1.398 . S
C686 C690 1.527 . S
C687 C686 1.398 . S
C687 C688 1.380 . S
C687 C701 1.497 . S
C688 C687 1.380 . S
C688 C689 1.383 . S
C688 C691 1.603 . S
C689 C684 1.377 . S
C689 C688 1.383 . S
C689 H752 0.929 . S
C690 C686 1.527 . S
C690 H753 0.961 . S
C690 H754 0.959 . S
C690 H755 0.959 . S
C691 C688 1.603 . S
C691 H756 0.960 . S
C691 H757 0.962 . S
C691 H758 0.961 . S
C692 C659 1.587 . S
C692 C693 1.360 . S
C692 C705 1.412 . S
C693 C692 1.360 . S
C693 C694 1.365 . S
C693 H759 0.929 . S
C694 C669 1.553 . S
C694 C693 1.365 . S
C694 C695 1.404 . S
C695 C694 1.404 . S
C695 C696 1.395 . S
C695 C706 1.451 . S
C696 C695 1.395 . S
C696 C697 1.322 . S
C696 H760 0.930 . S
C697 C696 1.322 . S
C697 C698 1.459 . S
C697 H761 0.929 . S
C698 C697 1.459 . S
C698 C699 1.445 . S
C698 C707 1.395 . S
C699 C677 1.432 . S
C699 C698 1.445 . S
C699 C700 1.370 . S
C700 C699 1.370 . S
C700 C701 1.438 . S
C700 H762 0.930 . S
C701 C687 1.497 . S
C701 C700 1.438 . S
C701 C702 1.360 . S
C702 C701 1.360 . S
C702 C703 1.401 . S
C702 C707 1.446 . S
C703 C702 1.401 . S
C703 C704 1.347 . S
C703 H763 0.929 . S
C704 C703 1.347 . S
C704 C705 1.455 . S
C704 H764 0.930 . S
C705 C692 1.412 . S
C705 C704 1.455 . S
C705 C706 1.331 . S
C706 C695 1.451 . S
C706 C705 1.331 . S
C706 C707 1.497 . S
C707 C698 1.395 . S
C707 C702 1.446 . S
C707 C706 1.497 . S
C708 C709 1.582 . S
C708 H765 0.962 . S
C708 H766 0.959 . S
C708 H767 0.958 . S
C709 C708 1.582 . S
C709 O712 1.458 . S
C709 H738 0.980 . S
O710 C655 1.426 . S
O710 C656 1.334 . S
O711 C683 1.412 . S
O711 C684 1.393 . S
O712 C674 1.435 . S
O712 C709 1.458 . S
O713 C665 1.468 . S
O713 C666 1.408 . S
H714 C655 0.980 . S
H715 C654 0.959 . S
H716 C654 0.959 . S
H717 C654 0.960 . S
H718 C657 0.929 . S
H719 C661 0.929 . S
H720 C662 0.959 . S
H721 C662 0.961 . S
H722 C662 0.961 . S
H723 C663 0.960 . S
H724 C663 0.960 . S
H725 C663 0.961 . S
H726 C665 0.980 . S
H727 C664 0.961 . S
H728 C664 0.960 . S
H729 C664 0.959 . S
H730 C667 0.930 . S
H731 C671 0.931 . S
H732 C672 0.959 . S
H733 C672 0.961 . S
H734 C672 0.959 . S
H735 C673 0.960 . S
H736 C673 0.960 . S
H737 C673 0.960 . S
H738 C709 0.980 . S
H739 C675 0.930 . S
H740 C679 0.930 . S
H741 C680 0.961 . S
H742 C680 0.960 . S
H743 C680 0.958 . S
H744 C681 0.961 . S
H745 C681 0.960 . S
H746 C681 0.960 . S
H747 C683 0.980 . S
H748 C682 0.961 . S
H749 C682 0.961 . S
H750 C682 0.959 . S
H751 C685 0.932 . S
H752 C689 0.929 . S
H753 C690 0.961 . S
H754 C690 0.959 . S
H755 C690 0.959 . S
H756 C691 0.960 . S
H757 C691 0.962 . S
H758 C691 0.961 . S
H759 C693 0.929 . S
H760 C696 0.930 . S
H761 C697 0.929 . S
H762 C700 0.930 . S
H763 C703 0.929 . S
H764 C704 0.930 . S
H765 C708 0.962 . S
H766 C708 0.959 . S
H767 C708 0.958 . S
C13 C113 3.368 . S
C27 C253 3.297 1_545 S
C341 C29 3.199 . S
C481 C54 3.449 1_455 S
C595 C69 3.221 1_545 S
C665 C83 2.243 . S
C15 C323 2.246 . S
C41 C427 2.619 . S
C541 C42 2.447 . S
C683 C57 3.216 . S
C71 C95 2.354 . S
C199 C1 2.573 . S
C437 C12 3.515 1_455 S
C26 C551 3.712 1_565 S
C709 C28 2.694 . S
C55 C85 3.617 . S
C68 C209 3.719 1_545 S
C82 C313 3.693 . S
C14 C655 3.687 . S
C139 C40 2.630 . S
C43 C227 2.809 1_655 S
C56 C367 2.606 1_565 S
C70 C455 2.645 . S
C0 C569 2.867 . S
