# Generated by pormake.
# Topology rtl, (3,6)-cn, num edge types: 1
# Building blocks:
#     Node 0, Type 0, BuildingBlock: CUQRIR_clean_linker_1, # of connection points: 3
#     Node 1, Type 0, BuildingBlock: CUQRIR_clean_linker_1, # of connection points: 3
#     Node 2, Type 0, BuildingBlock: CUQRIR_clean_linker_1, # of connection points: 3
#     Node 3, Type 0, BuildingBlock: CUQRIR_clean_linker_1, # of connection points: 3
#     Node 4, Type 1, BuildingBlock: KUMJIN_clean_sbu_1, # of connection points: 6
#     Node 5, Type 1, BuildingBlock: KUMJIN_clean_sbu_1, # of connection points: 6
#     Edge 6, Type (0, 1), BuildingBlock: XUDNAN_clean_linker_2, # of connection points: 2
#     Edge 7, Type (0, 1), BuildingBlock: XUDNAN_clean_linker_2, # of connection points: 2
#     Edge 8, Type (0, 1), BuildingBlock: XUDNAN_clean_linker_2, # of connection points: 2
#     Edge 9, Type (0, 1), BuildingBlock: XUDNAN_clean_linker_2, # of connection points: 2
#     Edge 10, Type (0, 1), BuildingBlock: XUDNAN_clean_linker_2, # of connection points: 2
#     Edge 11, Type (0, 1), BuildingBlock: XUDNAN_clean_linker_2, # of connection points: 2
#     Edge 12, Type (0, 1), BuildingBlock: XUDNAN_clean_linker_2, # of connection points: 2
#     Edge 13, Type (0, 1), BuildingBlock: XUDNAN_clean_linker_2, # of connection points: 2
#     Edge 14, Type (0, 1), BuildingBlock: XUDNAN_clean_linker_2, # of connection points: 2
#     Edge 15, Type (0, 1), BuildingBlock: XUDNAN_clean_linker_2, # of connection points: 2
#     Edge 16, Type (0, 1), BuildingBlock: XUDNAN_clean_linker_2, # of connection points: 2
#     Edge 17, Type (0, 1), BuildingBlock: XUDNAN_clean_linker_2, # of connection points: 2
# Relax obj value: 0.064
# Max RMSD: 0.226
# Mean RMSD: 0.176
data_MOF--net-rtl--node1-KUMJIN_clean_sbu_1--node2-CUQRIR_clean_linker_1--edge1-XUDNAN_clean_linker_2
_symmetry_space_group_name_H-M    P1
_symmetry_Int_Tables_number       1
_symmetry_cell_setting            triclinic
loop_
_symmetry_equiv_pos_as_xyz
'x, y, z'
_cell_length_a     32.992316
_cell_length_b     33.171519
_cell_length_c     24.888581
_cell_angle_alpha  76.45475
_cell_angle_beta   98.739223
_cell_angle_gamma 90.98718
loop_
_atom_site_label
_atom_site_type_symbol
_atom_site_fract_x
_atom_site_fract_y
_atom_site_fract_z
_atom_type_partial_charge
C0 C 0.21687 0.77795 0.99924 0.0
N1 N 0.19136 0.806 1.00938 0.0
N2 N 0.23526 0.75306 0.04793 0.0
C3 C 0.22393 0.77477 0.94196 0.0
C4 C 0.21987 0.76718 0.08783 0.0
N5 N 0.19345 0.79939 0.06442 0.0
C6 C 0.2316 0.75074 0.14986 0.0
H7 H 0.19764 0.78725 0.90935 0.0
H8 H 0.22977 0.74206 0.94135 0.0
H9 H 0.25124 0.79304 0.93109 0.0
H10 H 0.26307 0.73703 0.16006 0.0
H11 H 0.20971 0.72647 0.1649 0.0
H12 H 0.22989 0.77581 0.17221 0.0
C13 C 0.7361 0.73054 0.71914 0.0
N14 N 0.70476 0.70538 0.70745 0.0
N15 N 0.75968 0.73842 0.67791 0.0
C16 C 0.74422 0.7467 0.77124 0.0
C17 C 0.74156 0.71727 0.64066 0.0
N18 N 0.70817 0.69727 0.65842 0.0
C19 C 0.755 0.71791 0.58522 0.0
H20 H 0.72567 0.7755 0.76476 0.0
H21 H 0.77707 0.75413 0.78071 0.0
H22 H 0.73508 0.72376 0.80734 0.0
H23 H 0.74942 0.68752 0.57425 0.0
H24 H 0.78777 0.72556 0.58508 0.0
H25 H 0.73664 0.74189 0.55231 0.0
C26 C 0.79418 0.21833 0.1366 0.0
N27 N 0.81702 0.18768 0.12763 0.0
N28 N 0.77332 0.24055 0.08766 0.0
C29 C 0.79566 0.22928 0.19228 0.0
C30 C 0.78479 0.22232 0.04866 0.0
N31 N 0.81157 0.19056 0.07295 0.0
C32 C 0.76904 0.23456 0.98704 0.0
H33 H 0.76949 0.21467 0.21226 0.0
H34 H 0.79301 0.26334 0.18687 0.0
H35 H 0.82441 0.21779 0.22081 0.0
H36 H 0.79089 0.25612 0.96584 0.0
H37 H 0.7385 0.25016 0.9789 0.0
H38 H 0.76684 0.2069 0.96893 0.0
C39 C 0.30184 0.28 0.42323 0.0
N40 N 0.32802 0.31185 0.42593 0.0
N41 N 0.27791 0.27485 0.46398 0.0
C42 C 0.30088 0.25257 0.38279 0.0
C43 C 0.29011 0.30498 0.4909 0.0
N44 N 0.32046 0.32747 0.46807 0.0
C45 C 0.27421 0.31073 0.54228 0.0
H46 H 0.26996 0.23969 0.37456 0.0
H47 H 0.32284 0.22625 0.40118 0.0
H48 H 0.30978 0.26995 0.34263 0.0
H49 H 0.29393 0.29262 0.58006 0.0
H50 H 0.24231 0.29963 0.54279 0.0
H51 H 0.27521 0.34386 0.54406 0.0
Eu52 Eu 0.05586 0.97551 0.53321 0.0
C53 C 0.95891 0.13291 0.50748 0.0
N54 N 0.99051 0.1168 0.54832 0.0
C55 C 0.02529 0.18165 0.52911 0.0
C56 C 0.9604 0.1734 0.47378 0.0
C57 C 0.02175 0.14184 0.56239 0.0
C58 C 0.99498 0.19713 0.48364 0.0
C59 C 0.88807 0.128 0.46607 0.0
C60 C 0.92331 0.11043 0.50305 0.0
C61 C 0.89022 0.16724 0.43009 0.0
C62 C 0.92647 0.18975 0.43357 0.0
Eu63 Eu 0.98319 0.04669 0.59717 0.0
N64 N 0.92227 0.07235 0.53764 0.0
C65 C 0.85138 0.10621 0.4679 0.0
C66 C 0.88656 0.05117 0.54041 0.0
C67 C 0.8506 0.06765 0.50531 0.0
H68 H 0.04413 0.13148 0.59939 0.0
H69 H 0.8223 0.05076 0.50733 0.0
H70 H 0.06458 0.87822 0.61189 0.0
H71 H 0.18374 0.06849 0.45973 0.0
H72 H 0.88602 0.02156 0.56979 0.0
H73 H 0.82332 0.11921 0.44143 0.0
H74 H 0.11313 0.04154 0.45266 0.0
H75 H 0.05102 0.20065 0.53921 0.0
H76 H 0.86368 0.18096 0.40061 0.0
H77 H 0.92727 0.22057 0.40684 0.0
H78 H 0.11548 0.83407 0.68434 0.0
H79 H 0.99743 0.22827 0.45853 0.0
H80 H 0.23495 0.03923 0.5428 0.0
N81 N 0.10362 0.93006 0.59961 0.0
C82 C 0.1419 0.94445 0.61065 0.0
C83 C 0.12302 0.86541 0.66485 0.0
C84 C 0.17172 0.92082 0.6521 0.0
C85 C 0.09446 0.89021 0.62359 0.0
C86 C 0.16141 0.88125 0.68045 0.0
N87 N 0.12405 0.99923 0.53223 0.0
C88 C 0.13538 0.02874 0.48912 0.0
C89 C 0.19318 0.9944 0.58132 0.0
C90 C 0.15247 0.98054 0.57574 0.0
C91 C 0.20402 0.02755 0.54007 0.0
C92 C 0.17525 0.04404 0.49299 0.0
H93 H 0.18352 0.86192 0.7123 0.0
H94 H 0.23465 0.91897 0.69349 0.0
H95 H 0.25347 0.98368 0.63145 0.0
O96 O 0.08535 0.94237 0.48278 0.0
O97 O 0.04774 0.95527 0.62508 0.0
O98 O 0.04303 0.01799 0.64732 0.0
O99 O 0.02004 0.95196 0.4658 0.0
O100 O 0.06204 0.04554 0.51877 0.0
O101 O 0.05169 0.06029 0.60078 0.0
O102 O 0.96034 0.02157 0.67634 0.0
O103 O 0.96183 0.02872 0.5141 0.0
O104 O 0.02267 0.03365 0.48149 0.0
O105 O 0.95982 0.08748 0.64315 0.0
O106 O 0.95808 0.98191 0.60131 0.0
O107 O 1.00041 0.94169 0.56528 0.0
C108 C 0.05166 0.97814 0.66201 0.0
C109 C 0.05519 0.95654 0.38873 0.0
C110 C 0.07128 0.94617 0.30011 0.0
C111 C 0.0665 0.98913 0.27743 0.0
C112 C 0.05083 0.99932 0.3652 0.0
C113 C 0.05617 0.01542 0.30978 0.0
C114 C 0.06524 0.92999 0.35598 0.0
C115 C 0.07279 0.06462 0.55907 0.0
C116 C 0.0521 0.9402 0.44834 0.0
C117 C 0.21146 0.93629 0.66118 0.0
C118 C 0.22218 0.97313 0.62583 0.0
C119 C 0.98272 0.03813 0.47214 0.0
C120 C 0.97202 0.06428 0.74066 0.0
C121 C 0.96362 0.08037 0.82919 0.0
C122 C 1.0064 0.08288 0.84205 0.0
C123 C 0.01472 0.0666 0.75443 0.0
C124 C 0.94652 0.07066 0.77848 0.0
C125 C 0.03177 0.07563 0.80505 0.0
C126 C 0.96769 0.94729 0.58801 0.0
C127 C 0.95407 0.05781 0.68555 0.0
H128 H 0.07051 1.00236 0.23449 0.0
H129 H 0.04385 0.02036 0.38991 0.0
H130 H 0.05264 0.04846 0.29198 0.0
H131 H 0.06945 0.89704 0.37439 0.0
H132 H 0.02015 0.09028 0.88088 0.0
H133 H 0.03477 0.06212 0.7256 0.0
H134 H 0.91349 0.0693 0.7678 0.0
H135 H 0.06472 0.07751 0.81531 0.0
Eu136 Eu 0.4835 0.47756 1.01107 0.0
C137 C 0.61292 0.60049 0.06001 0.0
N138 N 0.60988 0.55921 0.08313 0.0
C139 C 0.6779 0.54725 0.06635 0.0
C140 C 0.64781 0.61616 0.03613 0.0
C141 C 0.64292 0.53327 0.09004 0.0
C142 C 0.68002 0.5887 0.03826 0.0
C143 C 0.58385 0.67037 0.03839 0.0
C144 C 0.5815 0.6275 0.06155 0.0
C145 C 0.61809 0.68579 1.01332 0.0
C146 C 0.64991 0.65876 1.01206 0.0
Eu147 Eu 0.5479 0.53916 0.11902 0.0
N148 N 0.54789 0.61156 0.08399 0.0
C149 C 0.55139 0.69638 0.04042 0.0
C150 C 0.51642 0.6367 0.08689 0.0
C151 C 0.51766 0.67948 0.06507 0.0
H152 H 0.6432 0.50203 0.11506 0.0
H153 H 0.4926 0.69939 0.06718 0.0
H154 H 0.38724 0.51404 1.00974 0.0
H155 H 0.5382 0.31707 0.06253 0.0
H156 H 0.49037 0.62361 0.10599 0.0
H157 H 0.55207 0.7295 0.0231 0.0
H158 H 0.54071 0.39285 0.0238 0.0
H159 H 0.70352 0.52619 0.07072 0.0
H160 H 0.62028 0.7186 0.99484 0.0
H161 H 0.67629 0.67121 0.99302 0.0
H162 H 0.32583 0.48998 0.05187 0.0
H163 H 0.70731 0.5995 0.02033 0.0
H164 H 0.47877 0.28715 0.10675 0.0
N165 N 0.42077 0.45731 0.04459 0.0
C166 C 0.41778 0.41616 0.06833 0.0
C167 C 0.35182 0.46907 0.05789 0.0
C168 C 0.38249 0.40053 0.0912 0.0
C169 C 0.38729 0.48298 0.03538 0.0
C170 C 0.34978 0.42789 0.08714 0.0
N171 N 0.4832 0.40507 0.04565 0.0
C172 C 0.51463 0.37985 0.0429 0.0
C173 C 0.44703 0.34634 0.09112 0.0
C174 C 0.44945 0.38916 0.06779 0.0
C175 C 0.47952 0.32027 0.08942 0.0
C176 C 0.51327 0.33707 0.06474 0.0
H177 H 0.32217 0.41714 0.10426 0.0
H178 H 0.35376 0.34561 0.13421 0.0
H179 H 0.41033 0.29822 0.13435 0.0
O180 O 0.4884 0.44889 0.94173 0.0
O181 O 0.50138 0.44413 0.10294 0.0
O182 O 0.49964 0.49448 0.15194 0.0
O183 O 0.4402 0.49388 0.93286 0.0
O184 O 0.55267 0.4748 0.02108 0.0
O185 O 0.57445 0.47705 0.11329 0.0
O186 O 0.54286 0.5678 0.18842 0.0
O187 O 0.52904 0.57238 0.02716 0.0
O188 O 0.53242 0.52175 0.9793 0.0
O189 O 0.59262 0.52486 0.19599 0.0
O190 O 0.4788 0.54227 0.1104 0.0
O191 O 0.45639 0.5389 0.01854 0.0
C192 C 0.49268 0.45652 0.14628 0.0
C193 C 0.42752 0.441 0.88305 0.0
C194 C 0.40284 0.41331 0.80156 0.0
C195 C 0.37801 0.38583 0.83377 0.0
C196 C 0.40213 0.41369 0.91419 0.0
C197 C 0.37749 0.38629 0.88959 0.0
C198 C 0.42743 0.44114 0.82642 0.0
C199 C 0.57799 0.46349 0.06829 0.0
C200 C 0.45601 0.46753 0.91003 0.0
C201 C 0.38043 0.35802 0.11585 0.0
C202 C 0.41256 0.33099 0.11569 0.0
C203 C 0.53814 0.56006 0.98396 0.0
C204 C 0.604 0.57863 0.2446 0.0
C205 C 0.62683 0.61004 0.32341 0.0
C206 C 0.65258 0.63597 0.29078 0.0
C207 C 0.63028 0.60447 0.21314 0.0
C208 C 0.60265 0.58117 0.3 0.0
C209 C 0.6544 0.63298 0.23617 0.0
C210 C 0.45238 0.55169 0.06397 0.0
C211 C 0.57626 0.55069 0.21911 0.0
H212 H 0.35865 0.36429 0.81547 0.0
H213 H 0.40161 0.41325 0.95756 0.0
H214 H 0.3581 0.36517 0.91397 0.0
H215 H 0.44714 0.46206 0.80219 0.0
H216 H 0.67183 0.65815 0.30786 0.0
H217 H 0.63199 0.6028 0.17076 0.0
H218 H 0.58225 0.56137 0.3244 0.0
H219 H 0.67453 0.65289 0.21155 0.0
H220 H 0.20599 0.25041 0.41283 0.0
H221 H 0.29622 0.2198 0.5625 0.0
H222 H 0.25299 0.16274 0.60411 0.0
H223 H 0.11677 0.22986 0.47915 0.0
H224 H 0.08845 0.2068 0.42651 0.0
H225 H 0.12652 0.24502 0.40789 0.0
H226 H 0.16336 0.19362 0.3672 0.0
H227 H 0.12598 0.15465 0.38601 0.0
H228 H 0.17978 0.14342 0.41058 0.0
H229 H 0.19763 0.11277 0.63212 0.0
H230 H 0.13726 0.06734 0.64013 0.0
H231 H 0.08549 0.1261 0.46959 0.0
C232 C 0.21675 0.23109 0.45389 0.0
C233 C 0.25424 0.23927 0.48477 0.0
C234 C 0.26738 0.2139 0.53865 0.0
C235 C 0.24308 0.18156 0.56249 0.0
C236 C 0.20588 0.17463 0.53151 0.0
C237 C 0.19301 0.19819 0.47802 0.0
C238 C 0.15186 0.1838 0.45367 0.0
C239 C 0.11897 0.21844 0.44107 0.0
C240 C 0.15546 0.16791 0.40127 0.0
C241 C 0.14364 0.14878 0.50187 0.0
C242 C 0.1749 0.1444 0.5467 0.0
C243 C 0.17318 0.11557 0.59708 0.0
C244 C 0.1388 0.09017 0.60147 0.0
C245 C 0.10725 0.09332 0.55541 0.0
C246 C 0.10965 0.12298 0.50511 0.0
H247 H 0.30379 0.75014 0.99989 0.0
H248 H 0.2281 0.67627 0.11236 0.0
H249 H 0.27561 0.6164 0.12845 0.0
H250 H 0.32441 0.6659 0.93507 0.0
H251 H 0.3758 0.68237 0.9261 0.0
H252 H 0.33684 0.72002 0.92531 0.0
H253 H 0.38261 0.74507 1.00521 0.0
H254 H 0.42158 0.70772 1.00533 0.0
H255 H 0.40187 0.70782 0.06899 0.0
H256 H 0.33381 0.56664 0.1375 0.0
H257 H 0.39508 0.52723 0.13097 0.0
H258 H 0.42791 0.62942 1.00231 0.0
C259 C 0.29697 0.7212 0.02726 0.0
C260 C 0.26258 0.71795 0.0556 0.0
C261 C 0.25487 0.67966 0.09151 0.0
C262 C 0.28147 0.64546 0.10048 0.0
C263 C 0.31512 0.64972 0.07206 0.0
C264 C 0.3226 0.68634 0.0354 0.0
C265 C 0.36017 0.68208 1.00859 0.0
C266 C 0.3486 0.68793 0.94499 0.0
C267 C 0.39352 0.71248 0.02293 0.0
C268 C 0.37305 0.63757 0.03674 0.0
C269 C 0.34686 0.6197 0.07374 0.0
C270 C 0.35402 0.57995 0.10784 0.0
C271 C 0.38881 0.55786 0.10396 0.0
C272 C 0.41522 0.57503 0.06516 0.0
C273 C 0.40725 0.61529 0.03099 0.0
H274 H 0.76537 0.82182 0.66401 0.0
H275 H 0.83572 0.70933 0.68218 0.0
H276 H 0.8975 0.75075 0.66376 0.0
H277 H 0.80928 0.88298 0.55245 0.0
H278 H 0.81037 0.93038 0.5762 0.0
H279 H 0.7725 0.89208 0.5952 0.0
H280 H 0.79654 0.88911 0.70011 0.0
H281 H 0.8342 0.92781 0.68138 0.0
H282 H 0.84989 0.87882 0.72887 0.0
H283 H 0.94905 0.8041 0.63448 0.0
H284 H 0.9899 0.8658 0.60475 0.0
H285 H 0.88748 0.94503 0.60867 0.0
C286 C 0.79414 0.80619 0.66522 0.0
C287 C 0.79623 0.76258 0.67432 0.0
C288 C 0.83397 0.74277 0.6752 0.0
C289 C 0.86898 0.76602 0.6647 0.0
C290 C 0.86578 0.8091 0.65412 0.0
C291 C 0.82956 0.82908 0.65515 0.0
C292 C 0.8344 0.87584 0.64104 0.0
C293 C 0.80488 0.89652 0.58807 0.0
C294 C 0.82841 0.89396 0.69082 0.0
C295 C 0.87868 0.87895 0.63077 0.0
C296 C 0.89607 0.84003 0.63847 0.0
C297 C 0.93594 0.83474 0.629 0.0
C298 C 0.95885 0.8701 0.61171 0.0
C299 C 0.94208 0.91044 0.60438 0.0
C300 C 0.90138 0.91473 0.61427 0.0
H301 H 0.71158 0.25392 0.14289 0.0
H302 H 0.78191 0.31281 1.0133 0.0
H303 H 0.74075 0.37731 0.99643 0.0
H304 H 0.61477 0.30082 0.08033 0.0
H305 H 0.60006 0.30806 0.1444 0.0
H306 H 0.63481 0.26636 0.14617 0.0
H307 H 0.68839 0.29324 0.21623 0.0
H308 H 0.65374 0.33501 0.21491 0.0
H309 H 0.70475 0.34622 0.19864 0.0
H310 H 0.68931 0.43343 0.98949 0.0
H311 H 0.63319 0.47944 0.99664 0.0
H312 H 0.60058 0.38756 0.13754 0.0
C313 C 0.71846 0.28058 0.11138 0.0
C314 C 0.74941 0.27824 0.07862 0.0
C315 C 0.75755 0.31364 0.03764 0.0
C316 C 0.73465 0.35049 0.02824 0.0
C317 C 0.70427 0.35175 0.06108 0.0
C318 C 0.69644 0.31796 0.10233 0.0
C319 C 0.66234 0.32782 0.13213 0.0
C320 C 0.62582 0.29906 0.12532 0.0
C321 C 0.67827 0.32543 0.19416 0.0
C322 C 0.65163 0.37215 0.10034 0.0
C323 C 0.67616 0.38521 0.05937 0.0
C324 C 0.67041 0.42386 0.02202 0.0
C325 C 0.63855 0.44973 0.02632 0.0
C326 C 0.61345 0.43721 0.06832 0.0
C327 C 0.62031 0.39816 0.1062 0.0
H328 H 0.20294 0.87294 0.09384 0.0
H329 H 0.1263 0.7653 0.10307 0.0
H330 H 0.08491 0.79171 0.16337 0.0
H331 H 0.20616 0.88036 0.23307 0.0
H332 H 0.20408 0.93622 0.21787 0.0
H333 H 0.22564 0.91036 0.17243 0.0
H334 H 0.17468 0.95003 0.08756 0.0
H335 H 0.15328 0.97646 0.13263 0.0
H336 H 0.12043 0.9479 0.09063 0.0
H337 H 0.05565 0.82745 0.22829 0.0
H338 H 0.03716 0.87235 0.28786 0.0
H339 H 0.13201 0.9579 0.23423 0.0
C340 C 0.17666 0.85579 0.10734 0.0
C341 C 0.1669 0.81767 0.09328 0.0
C342 C 0.13341 0.79494 0.11306 0.0
C343 C 0.11002 0.80963 0.14733 0.0
C344 C 0.1206 0.8472 0.16117 0.0
C345 C 0.15284 0.87024 0.14129 0.0
C346 C 0.15852 0.90901 0.16368 0.0
C347 C 0.20113 0.90896 0.19885 0.0
C348 C 0.15128 0.94817 0.11577 0.0
C349 C 0.12485 0.90392 0.19981 0.0
C350 C 0.10341 0.868 0.19796 0.0
C351 C 0.07195 0.85588 0.22963 0.0
C352 C 0.06185 0.88137 0.26362 0.0
C353 C 0.08296 0.91867 0.26541 0.0
C354 C 0.11491 0.92988 0.23306 0.0
H355 H 0.69471 0.62666 0.76467 0.0
H356 H 0.64652 0.75195 0.73025 0.0
H357 H 0.59747 0.7288 0.79733 0.0
H358 H 0.59718 0.57383 0.77827 0.0
H359 H 0.62 0.5318 0.83406 0.0
H360 H 0.64992 0.55853 0.78221 0.0
H361 H 0.7044 0.57392 0.86111 0.0
H362 H 0.6743 0.54812 0.91326 0.0
H363 H 0.68919 0.60108 0.90988 0.0
H364 H 0.55641 0.69192 0.87261 0.0
H365 H 0.52345 0.64363 0.94467 0.0
H366 H 0.59686 0.54192 0.92655 0.0
C367 C 0.67283 0.64877 0.76994 0.0
C368 C 0.67335 0.69082 0.74138 0.0
C369 C 0.64582 0.7195 0.75129 0.0
C370 C 0.61812 0.70662 0.78938 0.0
C371 C 0.61843 0.66487 0.81724 0.0
C372 C 0.64487 0.63631 0.80761 0.0
C373 C 0.63964 0.59344 0.8437 0.0
C374 C 0.62585 0.56258 0.80739 0.0
C375 C 0.67924 0.57825 0.88439 0.0
C376 C 0.60592 0.60221 0.87471 0.0
C377 C 0.59442 0.64368 0.85949 0.0
C378 C 0.56489 0.65932 0.88431 0.0
C379 C 0.54644 0.63177 0.92529 0.0
C380 C 0.5574 0.58911 0.94073 0.0
C381 C 0.58746 0.5743 0.91492 0.0
H382 H 0.80657 0.12133 0.21056 0.0
H383 H 0.89753 0.20182 0.13599 0.0
H384 H 0.95087 0.16958 0.21519 0.0
H385 H 0.83688 0.12309 0.3456 0.0
H386 H 0.82976 0.06886 0.37692 0.0
H387 H 0.80033 0.09314 0.31076 0.0
H388 H 0.82603 0.03811 0.26543 0.0
H389 H 0.85501 0.01287 0.33192 0.0
H390 H 0.88034 0.02864 0.27128 0.0
H391 H 0.99144 0.13504 0.30608 0.0
H392 H 0.01986 0.09585 0.40049 0.0
H393 H 0.90293 0.03608 0.41845 0.0
C394 C 0.8381 0.13089 0.21047 0.0
C395 C 0.84858 0.1635 0.16759 0.0
C396 C 0.88961 0.17635 0.16848 0.0
C397 C 0.91982 0.15835 0.21324 0.0
C398 C 0.90839 0.12709 0.25607 0.0
C399 C 0.8688 0.11262 0.25446 0.0
C400 C 0.86449 0.07973 0.307 0.0
C401 C 0.83091 0.09199 0.33695 0.0
C402 C 0.85597 0.03732 0.29306 0.0
C403 C 0.90701 0.08024 0.34026 0.0
C404 C 0.93196 0.10716 0.30929 0.0
C405 C 0.97243 0.11343 0.33044 0.0
C406 C 0.98825 0.09099 0.38422 0.0
C407 C 0.96367 0.06271 0.41671 0.0
C408 C 0.92234 0.05757 0.39458 0.0
H409 H 0.37598 0.29757 0.5571 0.0
H410 H 0.32123 0.41102 0.4502 0.0
H411 H 0.35054 0.44978 0.52047 0.0
H412 H 0.34446 0.31299 0.67048 0.0
H413 H 0.3876 0.28964 0.72111 0.0
H414 H 0.37578 0.27376 0.65645 0.0
H415 H 0.449 0.29196 0.63405 0.0
H416 H 0.46152 0.30721 0.69948 0.0
H417 H 0.46846 0.34296 0.63493 0.0
H418 H 0.37349 0.47283 0.61003 0.0
H419 H 0.38499 0.4774 0.70924 0.0
H420 H 0.41807 0.34678 0.76054 0.0
C421 C 0.37271 0.33103 0.54735 0.0
C422 C 0.34801 0.3518 0.49762 0.0
C423 C 0.34163 0.39509 0.48707 0.0
C424 C 0.35786 0.41714 0.52709 0.0
C425 C 0.37996 0.39519 0.57764 0.0
C426 C 0.38752 0.35295 0.58767 0.0
C427 C 0.40439 0.3348 0.64852 0.0
C428 C 0.37638 0.30083 0.67569 0.0
C429 C 0.44847 0.31827 0.65459 0.0
C430 C 0.40347 0.3729 0.67188 0.0
C431 C 0.39052 0.40774 0.63023 0.0
C432 C 0.38442 0.44591 0.64271 0.0
C433 C 0.39099 0.44827 0.69907 0.0
C434 C 0.40253 0.41247 0.74219 0.0
C435 C 0.40959 0.37465 0.72817 0.0
H436 H 0.65946 0.73132 0.56323 0.0
H437 H 0.69858 0.6144 0.67658 0.0
H438 H 0.66774 0.57709 0.60571 0.0
H439 H 0.56483 0.69459 0.47905 0.0
H440 H 0.57743 0.72733 0.41526 0.0
H441 H 0.58967 0.74328 0.48023 0.0
H442 H 0.66543 0.75178 0.4645 0.0
H443 H 0.65392 0.73502 0.40042 0.0
H444 H 0.69312 0.7082 0.45502 0.0
H445 H 0.64541 0.55383 0.51633 0.0
H446 H 0.63605 0.54712 0.41816 0.0
H447 H 0.61785 0.68019 0.36053 0.0
C448 C 0.65912 0.69776 0.57391 0.0
C449 C 0.67968 0.67554 0.62601 0.0
C450 C 0.68112 0.63176 0.63803 0.0
C451 C 0.66409 0.61043 0.59758 0.0
C452 C 0.64617 0.63345 0.54511 0.0
C453 C 0.64341 0.67631 0.53336 0.0
C454 C 0.6302 0.69444 0.47146 0.0
C455 C 0.58802 0.71619 0.46089 0.0
C456 C 0.6626 0.72407 0.44642 0.0
C457 C 0.62774 0.65538 0.44972 0.0
C458 C 0.63587 0.62038 0.49287 0.0
C459 C 0.63823 0.58099 0.48239 0.0
C460 C 0.63286 0.57742 0.42655 0.0
C461 C 0.62616 0.61312 0.3819 0.0
C462 C 0.62276 0.65238 0.39392 0.0
H463 H 0.86803 0.21716 1.00556 0.0
H464 H 0.8018 0.10924 0.07691 0.0
H465 H 0.83338 0.06816 0.02169 0.0
H466 H 0.86141 0.20102 0.8686 0.0
H467 H 0.91254 0.21818 0.85912 0.0
H468 H 0.88539 0.23827 0.90507 0.0
H469 H 0.94518 0.2144 0.98656 0.0
H470 H 0.9727 0.19454 0.94074 0.0
H471 H 0.96245 0.16097 1.00529 0.0
H472 H 0.86848 0.04114 0.9524 0.0
H473 H 0.91047 0.02769 0.88345 0.0
H474 H 0.95732 0.15229 0.86276 0.0
C475 C 0.86067 0.18476 1.00963 0.0
C476 C 0.83258 0.16601 0.04483 0.0
C477 C 0.82342 0.12368 0.04993 0.0
C478 C 0.84105 0.10038 0.01866 0.0
C479 C 0.86823 0.11993 0.98334 0.0
C480 C 0.87855 0.161 0.97951 0.0
C481 C 0.909 0.17459 0.93928 0.0
C482 C 0.89099 0.21011 0.89011 0.0
C483 C 0.94975 0.18683 0.9698 0.0
C484 C 0.91381 0.13499 0.92034 0.0
C485 C 0.88975 0.1039 0.94575 0.0
C486 C 0.88781 0.0651 0.93284 0.0
C487 C 0.9115 0.05777 0.89354 0.0
C488 C 0.93714 0.08888 0.86838 0.0
C489 C 0.9382 0.12791 0.88197 0.0
H490 H 0.33689 0.39014 0.36659 0.0
H491 H 0.38821 0.2657 0.40497 0.0
H492 H 0.43611 0.28868 0.33656 0.0
H493 H 0.34228 0.41492 0.22045 0.0
H494 H 0.35648 0.46807 0.21686 0.0
H495 H 0.32646 0.44199 0.26896 0.0
H496 H 0.38062 0.45859 0.34755 0.0
H497 H 0.41046 0.48526 0.29556 0.0
H498 H 0.43353 0.44369 0.35185 0.0
H499 H 0.47522 0.3249 0.25868 0.0
H500 H 0.50758 0.373 0.18577 0.0
H501 H 0.43426 0.47473 0.20396 0.0
C502 C 0.35884 0.36806 0.36132 0.0
C503 C 0.3588 0.32613 0.39064 0.0
C504 C 0.38744 0.29781 0.38216 0.0
C505 C 0.41474 0.31062 0.34352 0.0
C506 C 0.41337 0.35205 0.31422 0.0
C507 C 0.38655 0.38049 0.3233 0.0
C508 C 0.39144 0.42326 0.28675 0.0
C509 C 0.3518 0.43791 0.24585 0.0
C510 C 0.40482 0.45454 0.32257 0.0
C511 C 0.42534 0.41453 0.256 0.0
C512 C 0.43715 0.37315 0.27165 0.0
C513 C 0.46658 0.35746 0.24674 0.0
C514 C 0.48469 0.38489 0.20528 0.0
C515 C 0.4736 0.42752 0.18968 0.0
C516 C 0.44365 0.44237 0.2156 0.0
H517 H 0.12681 0.79769 0.93209 0.0
H518 H 0.20594 0.88747 0.99351 0.0
H519 H 0.17329 0.94345 0.9152 0.0
H520 H 0.13409 0.83489 0.79299 0.0
H521 H 0.08158 0.8255 0.76632 0.0
H522 H 0.10567 0.79466 0.83241 0.0
H523 H 0.04681 0.81495 0.87957 0.0
H524 H 0.02286 0.84599 0.81315 0.0
H525 H 0.03493 0.86898 0.87235 0.0
H526 H 0.13695 0.98786 0.82572 0.0
H527 H 0.1008 0.01779 0.73062 0.0
H528 H 0.04872 0.89792 0.72288 0.0
C529 C 0.13622 0.82942 0.92949 0.0
C530 C 0.1683 0.8388 0.96872 0.0
C531 C 0.18075 0.88023 0.96422 0.0
C532 C 0.16253 0.912 0.91982 0.0
C533 C 0.13194 0.9016 0.8804 0.0
C534 C 0.11866 0.86133 0.88496 0.0
C535 C 0.08816 0.85772 0.83431 0.0
C536 C 0.10334 0.82637 0.80472 0.0
C537 C 0.04567 0.84624 0.85085 0.0
C538 C 0.08796 0.90176 0.79921 0.0
C539 C 0.11251 0.9268 0.82732 0.0
C540 C 0.11742 0.96864 0.80348 0.0
C541 C 0.09676 0.98535 0.74948 0.0
C542 C 0.07211 0.96011 0.71949 0.0
C543 C 0.06763 0.9178 0.74481 0.0
loop_
_geom_bond_atom_site_label_1
_geom_bond_atom_site_label_2
_geom_bond_distance
_geom_bond_site_symmetry_2
_ccdc_geom_bond_type
C0 N1 1.317 . S
C0 N2 1.348 1_556 S
C0 C3 1.485 . S
N1 C0 1.317 . S
N1 N5 1.370 1_556 S
N2 C0 1.348 1_554 S
N2 C4 1.346 . S
C3 C0 1.485 . S
C3 H7 0.960 . S
C3 H8 0.961 . S
C3 H9 0.960 . S
C4 N2 1.346 . S
C4 N5 1.307 . S
C4 C6 1.486 . S
N5 N1 1.370 1_554 S
N5 C4 1.307 . S
C6 C4 1.486 . S
C6 H10 0.960 . S
C6 H11 0.960 . S
C6 H12 0.959 . S
H7 C3 0.960 . S
H8 C3 0.961 . S
H9 C3 0.960 . S
H10 C6 0.960 . S
H11 C6 0.960 . S
H12 C6 0.959 . S
C13 N14 1.317 . S
C13 N15 1.348 . S
C13 C16 1.485 . S
N14 C13 1.317 . S
N14 N18 1.370 . S
N15 C13 1.348 . S
N15 C17 1.346 . S
C16 C13 1.485 . S
C16 H20 0.960 . S
C16 H21 0.961 . S
C16 H22 0.960 . S
C17 N15 1.346 . S
C17 N18 1.307 . S
C17 C19 1.486 . S
N18 N14 1.370 . S
N18 C17 1.307 . S
C19 C17 1.486 . S
C19 H23 0.960 . S
C19 H24 0.960 . S
C19 H25 0.959 . S
H20 C16 0.960 . S
H21 C16 0.961 . S
H22 C16 0.960 . S
H23 C19 0.960 . S
H24 C19 0.960 . S
H25 C19 0.959 . S
C26 N27 1.317 . S
C26 N28 1.348 . S
C26 C29 1.485 . S
N27 C26 1.317 . S
N27 N31 1.370 . S
N28 C26 1.348 . S
N28 C30 1.346 . S
C29 C26 1.485 . S
C29 H33 0.960 . S
C29 H34 0.961 . S
C29 H35 0.960 . S
C30 N28 1.346 . S
C30 N31 1.307 . S
C30 C32 1.486 1_554 S
N31 N27 1.370 . S
N31 C30 1.307 . S
C32 C30 1.486 1_556 S
C32 H36 0.960 . S
C32 H37 0.960 . S
C32 H38 0.959 . S
H33 C29 0.960 . S
H34 C29 0.961 . S
H35 C29 0.960 . S
H36 C32 0.960 . S
H37 C32 0.960 . S
H38 C32 0.959 . S
C39 N40 1.317 . S
C39 N41 1.348 . S
C39 C42 1.485 . S
N40 C39 1.317 . S
N40 N44 1.370 . S
N41 C39 1.348 . S
N41 C43 1.346 . S
C42 C39 1.485 . S
C42 H46 0.960 . S
C42 H47 0.961 . S
C42 H48 0.960 . S
C43 N41 1.346 . S
C43 N44 1.307 . S
C43 C45 1.486 . S
N44 N40 1.370 . S
N44 C43 1.307 . S
C45 C43 1.486 . S
C45 H49 0.960 . S
C45 H50 0.960 . S
C45 H51 0.959 . S
H46 C42 0.960 . S
H47 C42 0.961 . S
H48 C42 0.960 . S
H49 C45 0.960 . S
H50 C45 0.960 . S
H51 C45 0.959 . S
Eu52 N81 2.600 . S
Eu52 N87 2.562 . S
Eu52 O96 2.462 . S
Eu52 O97 2.373 . S
Eu52 O99 2.432 . S
Eu52 O100 2.291 1_565 S
Eu52 O104 2.335 1_465 S
Eu52 O107 2.372 1_455 S
Eu52 C116 2.787 . S
C53 N54 1.365 . S
C53 C56 1.405 . S
C53 C60 1.448 . S
N54 C53 1.365 . S
N54 C57 1.319 1_655 S
N54 Eu63 2.600 . S
C55 C57 1.397 . S
C55 C58 1.367 1_455 S
C55 H75 0.931 . S
C56 C53 1.405 . S
C56 C58 1.403 . S
C56 C62 1.439 . S
C57 N54 1.319 1_455 S
C57 C55 1.397 . S
C57 H68 0.930 . S
C58 C55 1.367 1_655 S
C58 C56 1.403 . S
C58 H79 0.929 . S
C59 C60 1.430 . S
C59 C61 1.387 . S
C59 C65 1.404 . S
C60 C53 1.448 . S
C60 C59 1.430 . S
C60 N64 1.351 . S
C61 C59 1.387 . S
C61 C62 1.374 . S
C61 H76 0.931 . S
C62 C56 1.439 . S
C62 C61 1.374 . S
C62 H77 0.931 . S
Eu63 N54 2.600 . S
Eu63 N64 2.562 . S
Eu63 O98 2.335 1_655 S
Eu63 O101 2.372 1_655 S
Eu63 O102 2.462 . S
Eu63 O103 2.373 . S
Eu63 O105 2.432 . S
Eu63 O106 2.291 1_545 S
Eu63 C127 2.787 . S
N64 C60 1.351 . S
N64 Eu63 2.562 . S
N64 C66 1.325 . S
C65 C59 1.404 . S
C65 C67 1.366 . S
C65 H73 0.930 . S
C66 N64 1.325 . S
C66 C67 1.416 . S
C66 H72 0.929 . S
C67 C65 1.366 . S
C67 C66 1.416 . S
C67 H69 0.930 . S
H68 C57 0.930 . S
H69 C67 0.930 . S
H70 C85 0.930 1_655 S
H71 C92 0.930 . S
H72 C66 0.929 . S
H73 C65 0.930 . S
H74 C88 0.929 . S
H75 C55 0.931 . S
H76 C61 0.931 . S
H77 C62 0.931 . S
H78 C83 0.931 1_655 S
H79 C58 0.929 . S
H80 C91 0.930 . S
N81 Eu52 2.600 . S
N81 C82 1.365 . S
N81 C85 1.319 . S
C82 N81 1.365 . S
C82 C84 1.405 . S
C82 C90 1.448 . S
C83 H78 0.931 1_455 S
C83 C85 1.397 . S
C83 C86 1.367 . S
C84 C82 1.405 . S
C84 C86 1.403 . S
C84 C117 1.439 . S
C85 H70 0.930 1_455 S
C85 N81 1.319 . S
C85 C83 1.397 . S
C86 C83 1.367 . S
C86 C84 1.403 . S
C86 H93 0.929 . S
N87 Eu52 2.562 . S
N87 C88 1.325 . S
N87 C90 1.351 . S
C88 H74 0.929 . S
C88 N87 1.325 . S
C88 C92 1.416 . S
C89 C90 1.430 . S
C89 C91 1.404 . S
C89 C118 1.387 . S
C90 C82 1.448 . S
C90 N87 1.351 . S
C90 C89 1.430 . S
C91 H80 0.930 . S
C91 C89 1.404 . S
C91 C92 1.366 . S
C92 H71 0.930 . S
C92 C88 1.416 . S
C92 C91 1.366 . S
H93 C86 0.929 . S
H94 C117 0.931 . S
H95 C118 0.931 . S
O96 Eu52 2.462 . S
O96 C116 1.252 . S
O97 Eu52 2.373 . S
O97 C108 1.249 . S
O98 Eu63 2.335 1_455 S
O98 C108 1.264 1_545 S
O99 Eu52 2.432 . S
O99 C116 1.268 . S
O100 Eu52 2.291 1_545 S
O100 C115 1.255 . S
O101 Eu63 2.372 1_455 S
O101 C115 1.257 . S
O102 Eu63 2.462 . S
O102 C127 1.252 . S
O103 Eu63 2.373 . S
O103 C119 1.249 . S
O104 Eu52 2.335 1_645 S
O104 C119 1.264 . S
O105 Eu63 2.432 . S
O105 C127 1.268 . S
O106 Eu63 2.291 1_565 S
O106 C126 1.255 . S
O107 Eu52 2.372 1_655 S
O107 C126 1.257 . S
C108 O97 1.249 . S
C108 O98 1.264 1_565 S
C109 C112 1.382 . S
C109 C114 1.390 . S
C109 C116 1.506 . S
C110 C111 1.398 . S
C110 C114 1.392 . S
C111 C110 1.398 . S
C111 C113 1.372 . S
C111 H128 0.931 . S
C112 C109 1.382 . S
C112 C113 1.390 . S
C112 H129 0.931 . S
C113 C111 1.372 . S
C113 C112 1.390 . S
C113 H130 0.929 . S
C114 C109 1.390 . S
C114 C110 1.392 . S
C114 H131 0.930 . S
C115 O100 1.255 . S
C115 O101 1.257 . S
C116 Eu52 2.787 . S
C116 O96 1.252 . S
C116 O99 1.268 . S
C116 C109 1.506 . S
C117 C84 1.439 . S
C117 H94 0.931 . S
C117 C118 1.374 . S
C118 C89 1.387 . S
C118 H95 0.931 . S
C118 C117 1.374 . S
C119 O103 1.249 . S
C119 O104 1.264 . S
C120 C123 1.382 . S
C120 C124 1.390 . S
C120 C127 1.506 . S
C121 C122 1.398 . S
C121 C124 1.392 . S
C122 C121 1.398 . S
C122 C125 1.372 . S
C122 H132 0.931 . S
C123 C120 1.382 . S
C123 C125 1.390 . S
C123 H133 0.931 . S
C124 C120 1.390 . S
C124 C121 1.392 . S
C124 H134 0.930 . S
C125 C122 1.372 . S
C125 C123 1.390 . S
C125 H135 0.929 . S
C126 O106 1.255 . S
C126 O107 1.257 . S
C127 Eu63 2.787 . S
C127 O102 1.252 . S
C127 O105 1.268 . S
C127 C120 1.506 . S
H128 C111 0.931 . S
H129 C112 0.931 . S
H130 C113 0.929 . S
H131 C114 0.930 . S
H132 C122 0.931 . S
H133 C123 0.931 . S
H134 C124 0.930 . S
H135 C125 0.929 . S
Eu136 N165 2.599 1_556 S
Eu136 N171 2.562 1_556 S
Eu136 O180 2.462 . S
Eu136 O181 2.373 1_556 S
Eu136 O183 2.432 . S
Eu136 O184 2.291 1_556 S
Eu136 O188 2.335 . S
Eu136 O191 2.372 1_556 S
Eu136 C200 2.787 . S
C137 N138 1.365 . S
C137 C140 1.405 . S
C137 C144 1.448 . S
N138 C137 1.365 . S
N138 C141 1.319 . S
N138 Eu147 2.600 . S
C139 C141 1.397 . S
C139 C142 1.367 . S
C139 H159 0.931 . S
C140 C137 1.405 . S
C140 C142 1.403 . S
C140 C146 1.439 . S
C141 N138 1.319 . S
C141 C139 1.397 . S
C141 H152 0.930 . S
C142 C139 1.367 . S
C142 C140 1.403 . S
C142 H163 0.929 . S
C143 C144 1.430 . S
C143 C145 1.387 . S
C143 C149 1.404 . S
C144 C137 1.448 . S
C144 C143 1.430 . S
C144 N148 1.351 . S
C145 C143 1.387 . S
C145 C146 1.374 . S
C145 H160 0.931 . S
C146 C140 1.439 . S
C146 C145 1.374 . S
C146 H161 0.931 . S
Eu147 N138 2.600 . S
Eu147 N148 2.562 . S
Eu147 O182 2.335 . S
Eu147 O185 2.372 . S
Eu147 O186 2.462 . S
Eu147 O187 2.373 . S
Eu147 O189 2.432 . S
Eu147 O190 2.291 . S
Eu147 C211 2.787 . S
N148 C144 1.351 . S
N148 Eu147 2.562 . S
N148 C150 1.325 . S
C149 C143 1.404 . S
C149 C151 1.366 . S
C149 H157 0.930 . S
C150 N148 1.325 . S
C150 C151 1.416 . S
C150 H156 0.929 . S
C151 C149 1.366 . S
C151 C150 1.416 . S
C151 H153 0.930 . S
H152 C141 0.930 . S
H153 C151 0.930 . S
H154 C169 0.930 . S
H155 C176 0.930 . S
H156 C150 0.929 . S
H157 C149 0.930 . S
H158 C172 0.929 . S
H159 C139 0.931 . S
H160 C145 0.931 . S
H161 C146 0.931 . S
H162 C167 0.931 . S
H163 C142 0.929 . S
H164 C175 0.930 . S
N165 Eu136 2.599 1_554 S
N165 C166 1.366 . S
N165 C169 1.319 1_554 S
C166 N165 1.366 . S
C166 C168 1.405 . S
C166 C174 1.448 . S
C167 H162 0.931 . S
C167 C169 1.397 . S
C167 C170 1.367 1_556 S
C168 C166 1.405 . S
C168 C170 1.403 . S
C168 C201 1.439 . S
C169 H154 0.930 . S
C169 N165 1.319 1_556 S
C169 C167 1.397 . S
C170 C167 1.367 1_554 S
C170 C168 1.403 . S
C170 H177 0.929 . S
N171 Eu136 2.562 1_554 S
N171 C172 1.325 . S
N171 C174 1.351 . S
C172 H158 0.929 . S
C172 N171 1.325 . S
C172 C176 1.416 . S
C173 C174 1.430 . S
C173 C175 1.404 . S
C173 C202 1.387 . S
C174 C166 1.448 . S
C174 N171 1.351 . S
C174 C173 1.430 . S
C175 H164 0.930 . S
C175 C173 1.404 . S
C175 C176 1.366 . S
C176 H155 0.930 . S
C176 C172 1.416 . S
C176 C175 1.366 . S
H177 C170 0.929 . S
H178 C201 0.931 . S
H179 C202 0.931 . S
O180 Eu136 2.462 . S
O180 C200 1.252 . S
O181 Eu136 2.373 1_554 S
O181 C192 1.249 . S
O182 Eu147 2.335 . S
O182 C192 1.264 . S
O183 Eu136 2.432 . S
O183 C200 1.268 . S
O184 Eu136 2.291 1_554 S
O184 C199 1.255 . S
O185 Eu147 2.372 . S
O185 C199 1.257 . S
O186 Eu147 2.462 . S
O186 C211 1.252 . S
O187 Eu147 2.373 . S
O187 C203 1.249 1_554 S
O188 Eu136 2.335 . S
O188 C203 1.264 . S
O189 Eu147 2.432 . S
O189 C211 1.268 . S
O190 Eu147 2.291 . S
O190 C210 1.255 . S
O191 Eu136 2.372 1_554 S
O191 C210 1.257 . S
C192 O181 1.249 . S
C192 O182 1.264 . S
C193 C196 1.382 . S
C193 C198 1.390 . S
C193 C200 1.506 . S
C194 C195 1.398 . S
C194 C198 1.392 . S
C195 C194 1.398 . S
C195 C197 1.372 . S
C195 H212 0.931 . S
C196 C193 1.382 . S
C196 C197 1.390 . S
C196 H213 0.931 . S
C197 C195 1.372 . S
C197 C196 1.390 . S
C197 H214 0.929 . S
C198 C193 1.390 . S
C198 C194 1.392 . S
C198 H215 0.930 . S
C199 O184 1.255 . S
C199 O185 1.257 . S
C200 Eu136 2.787 . S
C200 O180 1.252 . S
C200 O183 1.268 . S
C200 C193 1.506 . S
C201 C168 1.439 . S
C201 H178 0.931 . S
C201 C202 1.374 . S
C202 C173 1.387 . S
C202 H179 0.931 . S
C202 C201 1.374 . S
C203 O187 1.249 1_556 S
C203 O188 1.264 . S
C204 C207 1.382 . S
C204 C208 1.390 . S
C204 C211 1.506 . S
C205 C206 1.398 . S
C205 C208 1.392 . S
C206 C205 1.398 . S
C206 C209 1.372 . S
C206 H216 0.931 . S
C207 C204 1.382 . S
C207 C209 1.390 . S
C207 H217 0.931 . S
C208 C204 1.390 . S
C208 C205 1.392 . S
C208 H218 0.930 . S
C209 C206 1.372 . S
C209 C207 1.390 . S
C209 H219 0.929 . S
C210 O190 1.255 . S
C210 O191 1.257 . S
C211 Eu147 2.787 . S
C211 O186 1.252 . S
C211 O189 1.268 . S
C211 C204 1.506 . S
H212 C195 0.931 . S
H213 C196 0.931 . S
H214 C197 0.929 . S
H215 C198 0.930 . S
H216 C206 0.931 . S
H217 C207 0.931 . S
H218 C208 0.930 . S
H219 C209 0.929 . S
H220 C232 0.930 . S
H221 C234 0.930 . S
H222 C235 0.930 . S
H223 C239 0.959 . S
H224 C239 0.959 . S
H225 C239 0.961 . S
H226 C240 0.960 . S
H227 C240 0.961 . S
H228 C240 0.959 . S
H229 C243 0.929 . S
H230 C244 0.931 . S
H231 C246 0.930 . S
C232 H220 0.930 . S
C232 C233 1.399 . S
C232 C237 1.399 . S
C233 C232 1.399 . S
C233 C234 1.376 . S
C234 H221 0.930 . S
C234 C233 1.376 . S
C234 C235 1.388 . S
C235 H222 0.930 . S
C235 C234 1.388 . S
C235 C236 1.390 . S
C236 C235 1.390 . S
C236 C237 1.394 . S
C236 C242 1.465 . S
C237 C232 1.399 . S
C237 C236 1.394 . S
C237 C238 1.516 . S
C238 C237 1.516 . S
C238 C239 1.502 . S
C238 C240 1.561 . S
C238 C241 1.526 . S
C239 H223 0.959 . S
C239 H224 0.959 . S
C239 H225 0.961 . S
C239 C238 1.502 . S
C240 H226 0.960 . S
C240 H227 0.961 . S
C240 H228 0.959 . S
C240 C238 1.561 . S
C241 C238 1.526 . S
C241 C242 1.396 . S
C241 C246 1.390 . S
C242 C236 1.465 . S
C242 C241 1.396 . S
C242 C243 1.399 . S
C243 H229 0.929 . S
C243 C242 1.399 . S
C243 C244 1.385 . S
C244 H230 0.931 . S
C244 C243 1.385 . S
C244 C245 1.389 . S
C245 C244 1.389 . S
C245 C246 1.387 . S
C246 H231 0.930 . S
C246 C241 1.390 . S
C246 C245 1.387 . S
H247 C259 0.930 . S
H248 C261 0.930 . S
H249 C262 0.930 . S
H250 C266 0.959 . S
H251 C266 0.959 . S
H252 C266 0.961 . S
H253 C267 0.960 . S
H254 C267 0.961 . S
H255 C267 0.959 . S
H256 C270 0.929 . S
H257 C271 0.931 . S
H258 C273 0.930 . S
C259 H247 0.930 . S
C259 C260 1.399 . S
C259 C264 1.399 . S
C260 C259 1.399 . S
C260 C261 1.376 . S
C261 H248 0.930 . S
C261 C260 1.376 . S
C261 C262 1.388 . S
C262 H249 0.930 . S
C262 C261 1.388 . S
C262 C263 1.390 . S
C263 C262 1.390 . S
C263 C264 1.394 . S
C263 C269 1.465 . S
C264 C259 1.399 . S
C264 C263 1.394 . S
C264 C265 1.516 . S
C265 C264 1.516 . S
C265 C266 1.502 . S
C265 C267 1.561 . S
C265 C268 1.526 . S
C266 H250 0.959 . S
C266 H251 0.959 . S
C266 H252 0.961 . S
C266 C265 1.502 . S
C267 H253 0.960 . S
C267 H254 0.961 . S
C267 H255 0.959 . S
C267 C265 1.561 . S
C268 C265 1.526 . S
C268 C269 1.396 . S
C268 C273 1.390 . S
C269 C263 1.465 . S
C269 C268 1.396 . S
C269 C270 1.399 . S
C270 H256 0.929 . S
C270 C269 1.399 . S
C270 C271 1.385 . S
C271 H257 0.931 . S
C271 C270 1.385 . S
C271 C272 1.389 . S
C272 C271 1.389 . S
C272 C273 1.387 . S
C273 H258 0.930 . S
C273 C268 1.390 . S
C273 C272 1.387 . S
H274 C286 0.930 . S
H275 C288 0.930 . S
H276 C289 0.930 . S
H277 C293 0.959 . S
H278 C293 0.959 . S
H279 C293 0.961 . S
H280 C294 0.960 . S
H281 C294 0.961 . S
H282 C294 0.959 . S
H283 C297 0.929 . S
H284 C298 0.931 . S
H285 C300 0.930 . S
C286 H274 0.930 . S
C286 C287 1.399 . S
C286 C291 1.399 . S
C287 C286 1.399 . S
C287 C288 1.376 . S
C288 H275 0.930 . S
C288 C287 1.376 . S
C288 C289 1.388 . S
C289 H276 0.930 . S
C289 C288 1.388 . S
C289 C290 1.390 . S
C290 C289 1.390 . S
C290 C291 1.394 . S
C290 C296 1.465 . S
C291 C286 1.399 . S
C291 C290 1.394 . S
C291 C292 1.516 . S
C292 C291 1.516 . S
C292 C293 1.502 . S
C292 C294 1.561 . S
C292 C295 1.526 . S
C293 H277 0.959 . S
C293 H278 0.959 . S
C293 H279 0.961 . S
C293 C292 1.502 . S
C294 H280 0.960 . S
C294 H281 0.961 . S
C294 H282 0.959 . S
C294 C292 1.561 . S
C295 C292 1.526 . S
C295 C296 1.396 . S
C295 C300 1.390 . S
C296 C290 1.465 . S
C296 C295 1.396 . S
C296 C297 1.399 . S
C297 H283 0.929 . S
C297 C296 1.399 . S
C297 C298 1.385 . S
C298 H284 0.931 . S
C298 C297 1.385 . S
C298 C299 1.389 . S
C299 C298 1.389 . S
C299 C300 1.387 . S
C300 H285 0.930 . S
C300 C295 1.390 . S
C300 C299 1.387 . S
H301 C313 0.930 . S
H302 C315 0.930 1_556 S
H303 C316 0.930 . S
H304 C320 0.959 . S
H305 C320 0.959 . S
H306 C320 0.961 . S
H307 C321 0.960 . S
H308 C321 0.961 . S
H309 C321 0.959 . S
H310 C324 0.929 . S
H311 C325 0.931 . S
H312 C327 0.930 . S
C313 H301 0.930 . S
C313 C314 1.399 . S
C313 C318 1.399 . S
C314 C313 1.399 . S
C314 C315 1.376 . S
C315 H302 0.930 1_554 S
C315 C314 1.376 . S
C315 C316 1.388 1_554 S
C316 H303 0.930 . S
C316 C315 1.388 1_556 S
C316 C317 1.390 1_556 S
C317 C316 1.390 1_554 S
C317 C318 1.394 . S
C317 C323 1.465 . S
C318 C313 1.399 . S
C318 C317 1.394 . S
C318 C319 1.516 . S
C319 C318 1.516 . S
C319 C320 1.502 . S
C319 C321 1.561 . S
C319 C322 1.526 . S
C320 H304 0.959 . S
C320 H305 0.959 . S
C320 H306 0.961 . S
C320 C319 1.502 . S
C321 H307 0.960 . S
C321 H308 0.961 . S
C321 H309 0.959 . S
C321 C319 1.561 . S
C322 C319 1.526 . S
C322 C323 1.396 . S
C322 C327 1.390 . S
C323 C317 1.465 . S
C323 C322 1.396 . S
C323 C324 1.399 1_554 S
C324 H310 0.929 . S
C324 C323 1.399 1_556 S
C324 C325 1.385 . S
C325 H311 0.931 . S
C325 C324 1.385 . S
C325 C326 1.389 1_556 S
C326 C325 1.389 1_554 S
C326 C327 1.387 . S
C327 H312 0.930 . S
C327 C322 1.390 . S
C327 C326 1.387 . S
H328 C340 0.930 . S
H329 C342 0.930 . S
H330 C343 0.930 . S
H331 C347 0.959 . S
H332 C347 0.959 . S
H333 C347 0.961 . S
H334 C348 0.960 . S
H335 C348 0.961 1_545 S
H336 C348 0.959 . S
H337 C351 0.929 . S
H338 C352 0.931 . S
H339 C354 0.930 . S
C340 H328 0.930 . S
C340 C341 1.399 . S
C340 C345 1.399 . S
C341 C340 1.399 . S
C341 C342 1.376 . S
C342 H329 0.930 . S
C342 C341 1.376 . S
C342 C343 1.388 . S
C343 H330 0.930 . S
C343 C342 1.388 . S
C343 C344 1.390 . S
C344 C343 1.390 . S
C344 C345 1.394 . S
C344 C350 1.465 . S
C345 C340 1.399 . S
C345 C344 1.394 . S
C345 C346 1.516 . S
C346 C345 1.516 . S
C346 C347 1.502 . S
C346 C348 1.561 . S
C346 C349 1.526 . S
C347 H331 0.959 . S
C347 H332 0.959 . S
C347 H333 0.961 . S
C347 C346 1.502 . S
C348 H334 0.960 . S
C348 H335 0.961 1_565 S
C348 H336 0.959 . S
C348 C346 1.561 . S
C349 C346 1.526 . S
C349 C350 1.396 . S
C349 C354 1.390 . S
C350 C344 1.465 . S
C350 C349 1.396 . S
C350 C351 1.399 . S
C351 H337 0.929 . S
C351 C350 1.399 . S
C351 C352 1.385 . S
C352 H338 0.931 . S
C352 C351 1.385 . S
C352 C353 1.389 . S
C353 C352 1.389 . S
C353 C354 1.387 . S
C354 H339 0.930 . S
C354 C349 1.390 . S
C354 C353 1.387 . S
H355 C367 0.930 . S
H356 C369 0.930 . S
H357 C370 0.930 . S
H358 C374 0.959 . S
H359 C374 0.959 . S
H360 C374 0.961 . S
H361 C375 0.960 . S
H362 C375 0.961 . S
H363 C375 0.959 . S
H364 C378 0.929 . S
H365 C379 0.931 . S
H366 C381 0.930 . S
C367 H355 0.930 . S
C367 C368 1.399 . S
C367 C372 1.399 . S
C368 C367 1.399 . S
C368 C369 1.376 . S
C369 H356 0.930 . S
C369 C368 1.376 . S
C369 C370 1.388 . S
C370 H357 0.930 . S
C370 C369 1.388 . S
C370 C371 1.390 . S
C371 C370 1.390 . S
C371 C372 1.394 . S
C371 C377 1.465 . S
C372 C367 1.399 . S
C372 C371 1.394 . S
C372 C373 1.516 . S
C373 C372 1.516 . S
C373 C374 1.502 . S
C373 C375 1.561 . S
C373 C376 1.526 . S
C374 H358 0.959 . S
C374 H359 0.959 . S
C374 H360 0.961 . S
C374 C373 1.502 . S
C375 H361 0.960 . S
C375 H362 0.961 . S
C375 H363 0.959 . S
C375 C373 1.561 . S
C376 C373 1.526 . S
C376 C377 1.396 . S
C376 C381 1.390 . S
C377 C371 1.465 . S
C377 C376 1.396 . S
C377 C378 1.399 . S
C378 H364 0.929 . S
C378 C377 1.399 . S
C378 C379 1.385 . S
C379 H365 0.931 . S
C379 C378 1.385 . S
C379 C380 1.389 . S
C380 C379 1.389 . S
C380 C381 1.387 . S
C381 H366 0.930 . S
C381 C376 1.390 . S
C381 C380 1.387 . S
H382 C394 0.930 . S
H383 C396 0.930 . S
H384 C397 0.930 . S
H385 C401 0.959 . S
H386 C401 0.959 . S
H387 C401 0.961 . S
H388 C402 0.960 . S
H389 C402 0.961 . S
H390 C402 0.959 . S
H391 C405 0.929 . S
H392 C406 0.931 . S
H393 C408 0.930 . S
C394 H382 0.930 . S
C394 C395 1.399 . S
C394 C399 1.399 . S
C395 C394 1.399 . S
C395 C396 1.376 . S
C396 H383 0.930 . S
C396 C395 1.376 . S
C396 C397 1.388 . S
C397 H384 0.930 . S
C397 C396 1.388 . S
C397 C398 1.390 . S
C398 C397 1.390 . S
C398 C399 1.394 . S
C398 C404 1.465 . S
C399 C394 1.399 . S
C399 C398 1.394 . S
C399 C400 1.516 . S
C400 C399 1.516 . S
C400 C401 1.502 . S
C400 C402 1.561 . S
C400 C403 1.526 . S
C401 H385 0.959 . S
C401 H386 0.959 . S
C401 H387 0.961 . S
C401 C400 1.502 . S
C402 H388 0.960 . S
C402 H389 0.961 . S
C402 H390 0.959 . S
C402 C400 1.561 . S
C403 C400 1.526 . S
C403 C404 1.396 . S
C403 C408 1.390 . S
C404 C398 1.465 . S
C404 C403 1.396 . S
C404 C405 1.399 . S
C405 H391 0.929 . S
C405 C404 1.399 . S
C405 C406 1.385 . S
C406 H392 0.931 . S
C406 C405 1.385 . S
C406 C407 1.389 . S
C407 C406 1.389 . S
C407 C408 1.387 . S
C408 H393 0.930 . S
C408 C403 1.390 . S
C408 C407 1.387 . S
H409 C421 0.930 . S
H410 C423 0.930 . S
H411 C424 0.930 . S
H412 C428 0.959 . S
H413 C428 0.959 . S
H414 C428 0.961 . S
H415 C429 0.960 . S
H416 C429 0.961 . S
H417 C429 0.959 . S
H418 C432 0.929 . S
H419 C433 0.931 . S
H420 C435 0.930 . S
C421 H409 0.930 . S
C421 C422 1.399 . S
C421 C426 1.399 . S
C422 C421 1.399 . S
C422 C423 1.376 . S
C423 H410 0.930 . S
C423 C422 1.376 . S
C423 C424 1.388 . S
C424 H411 0.930 . S
C424 C423 1.388 . S
C424 C425 1.390 . S
C425 C424 1.390 . S
C425 C426 1.394 . S
C425 C431 1.465 . S
C426 C421 1.399 . S
C426 C425 1.394 . S
C426 C427 1.516 . S
C427 C426 1.516 . S
C427 C428 1.502 . S
C427 C429 1.561 . S
C427 C430 1.526 . S
C428 H412 0.959 . S
C428 H413 0.959 . S
C428 H414 0.961 . S
C428 C427 1.502 . S
C429 H415 0.960 . S
C429 H416 0.961 . S
C429 H417 0.959 . S
C429 C427 1.561 . S
C430 C427 1.526 . S
C430 C431 1.396 . S
C430 C435 1.390 . S
C431 C425 1.465 . S
C431 C430 1.396 . S
C431 C432 1.399 . S
C432 H418 0.929 . S
C432 C431 1.399 . S
C432 C433 1.385 . S
C433 H419 0.931 . S
C433 C432 1.385 . S
C433 C434 1.389 . S
C434 C433 1.389 . S
C434 C435 1.387 . S
C435 H420 0.930 . S
C435 C430 1.390 . S
C435 C434 1.387 . S
H436 C448 0.930 . S
H437 C450 0.930 . S
H438 C451 0.930 . S
H439 C455 0.959 . S
H440 C455 0.959 . S
H441 C455 0.961 . S
H442 C456 0.960 . S
H443 C456 0.961 . S
H444 C456 0.959 . S
H445 C459 0.929 . S
H446 C460 0.931 . S
H447 C462 0.930 . S
C448 H436 0.930 . S
C448 C449 1.399 . S
C448 C453 1.399 . S
C449 C448 1.399 . S
C449 C450 1.376 . S
C450 H437 0.930 . S
C450 C449 1.376 . S
C450 C451 1.388 . S
C451 H438 0.930 . S
C451 C450 1.388 . S
C451 C452 1.390 . S
C452 C451 1.390 . S
C452 C453 1.394 . S
C452 C458 1.465 . S
C453 C448 1.399 . S
C453 C452 1.394 . S
C453 C454 1.516 . S
C454 C453 1.516 . S
C454 C455 1.502 . S
C454 C456 1.561 . S
C454 C457 1.526 . S
C455 H439 0.959 . S
C455 H440 0.959 . S
C455 H441 0.961 . S
C455 C454 1.502 . S
C456 H442 0.960 . S
C456 H443 0.961 . S
C456 H444 0.959 . S
C456 C454 1.561 . S
C457 C454 1.526 . S
C457 C458 1.396 . S
C457 C462 1.390 . S
C458 C452 1.465 . S
C458 C457 1.396 . S
C458 C459 1.399 . S
C459 H445 0.929 . S
C459 C458 1.399 . S
C459 C460 1.385 . S
C460 H446 0.931 . S
C460 C459 1.385 . S
C460 C461 1.389 . S
C461 C460 1.389 . S
C461 C462 1.387 . S
C462 H447 0.930 . S
C462 C457 1.390 . S
C462 C461 1.387 . S
H463 C475 0.930 . S
H464 C477 0.930 . S
H465 C478 0.930 . S
H466 C482 0.959 . S
H467 C482 0.959 . S
H468 C482 0.961 . S
H469 C483 0.960 . S
H470 C483 0.961 . S
H471 C483 0.959 . S
H472 C486 0.929 . S
H473 C487 0.928 . S
H474 C489 0.930 . S
C475 H463 0.930 . S
C475 C476 1.399 1_556 S
C475 C480 1.399 . S
C476 C475 1.399 1_554 S
C476 C477 1.376 . S
C477 H464 0.930 . S
C477 C476 1.376 . S
C477 C478 1.388 . S
C478 H465 0.930 . S
C478 C477 1.388 . S
C478 C479 1.390 1_554 S
C479 C478 1.390 1_556 S
C479 C480 1.394 . S
C479 C485 1.465 . S
C480 C475 1.399 . S
C480 C479 1.394 . S
C480 C481 1.516 . S
C481 C480 1.516 . S
C481 C482 1.502 . S
C481 C483 1.561 . S
C481 C484 1.526 . S
C482 H466 0.959 . S
C482 H467 0.959 . S
C482 H468 0.961 . S
C482 C481 1.502 . S
C483 H469 0.960 . S
C483 H470 0.961 . S
C483 H471 0.959 . S
C483 C481 1.561 . S
C484 C481 1.526 . S
C484 C485 1.396 . S
C484 C489 1.390 . S
C485 C479 1.465 . S
C485 C484 1.396 . S
C485 C486 1.399 . S
C486 H472 0.929 . S
C486 C485 1.399 . S
C486 C487 1.385 . S
C487 H473 0.928 . S
C487 C486 1.385 . S
C487 C488 1.389 . S
C488 C487 1.389 . S
C488 C489 1.387 . S
C489 H474 0.930 . S
C489 C484 1.390 . S
C489 C488 1.387 . S
H490 C502 0.930 . S
H491 C504 0.930 . S
H492 C505 0.930 . S
H493 C509 0.959 . S
H494 C509 0.959 . S
H495 C509 0.961 . S
H496 C510 0.960 . S
H497 C510 0.961 . S
H498 C510 0.959 . S
H499 C513 0.929 . S
H500 C514 0.931 . S
H501 C516 0.930 . S
C502 H490 0.930 . S
C502 C503 1.399 . S
C502 C507 1.399 . S
C503 C502 1.399 . S
C503 C504 1.376 . S
C504 H491 0.930 . S
C504 C503 1.376 . S
C504 C505 1.388 . S
C505 H492 0.930 . S
C505 C504 1.388 . S
C505 C506 1.390 . S
C506 C505 1.390 . S
C506 C507 1.394 . S
C506 C512 1.465 . S
C507 C502 1.399 . S
C507 C506 1.394 . S
C507 C508 1.516 . S
C508 C507 1.516 . S
C508 C509 1.502 . S
C508 C510 1.561 . S
C508 C511 1.526 . S
C509 H493 0.959 . S
C509 H494 0.959 . S
C509 H495 0.961 . S
C509 C508 1.502 . S
C510 H496 0.960 . S
C510 H497 0.961 . S
C510 H498 0.959 . S
C510 C508 1.561 . S
C511 C508 1.526 . S
C511 C512 1.396 . S
C511 C516 1.390 . S
C512 C506 1.465 . S
C512 C511 1.396 . S
C512 C513 1.399 . S
C513 H499 0.929 . S
C513 C512 1.399 . S
C513 C514 1.385 . S
C514 H500 0.931 . S
C514 C513 1.385 . S
C514 C515 1.389 . S
C515 C514 1.389 . S
C515 C516 1.387 . S
C516 H501 0.930 . S
C516 C511 1.390 . S
C516 C515 1.387 . S
H517 C529 0.930 . S
H518 C531 0.930 . S
H519 C532 0.930 . S
H520 C536 0.959 . S
H521 C536 0.959 . S
H522 C536 0.961 . S
H523 C537 0.960 . S
H524 C537 0.961 . S
H525 C537 0.959 . S
H526 C540 0.931 1_545 S
H527 C541 0.931 1_545 S
H528 C543 0.930 . S
C529 H517 0.930 . S
C529 C530 1.399 . S
C529 C534 1.399 . S
C530 C529 1.399 . S
C530 C531 1.376 . S
C531 H518 0.930 . S
C531 C530 1.376 . S
C531 C532 1.388 . S
C532 H519 0.930 . S
C532 C531 1.388 . S
C532 C533 1.390 . S
C533 C532 1.390 . S
C533 C534 1.394 . S
C533 C539 1.465 . S
C534 C529 1.399 . S
C534 C533 1.394 . S
C534 C535 1.516 . S
C535 C534 1.516 . S
C535 C536 1.502 . S
C535 C537 1.561 . S
C535 C538 1.526 . S
C536 H520 0.959 . S
C536 H521 0.959 . S
C536 H522 0.961 . S
C536 C535 1.502 . S
C537 H523 0.960 . S
C537 H524 0.961 . S
C537 H525 0.959 . S
C537 C535 1.561 . S
C538 C535 1.526 . S
C538 C539 1.396 . S
C538 C543 1.390 . S
C539 C533 1.465 . S
C539 C538 1.396 . S
C539 C540 1.399 . S
C540 H526 0.931 1_565 S
C540 C539 1.399 . S
C540 C541 1.385 . S
C541 H527 0.931 1_565 S
C541 C540 1.385 . S
C541 C542 1.389 . S
C542 C541 1.389 . S
C542 C543 1.387 . S
C543 H528 0.930 . S
C543 C538 1.390 . S
C543 C542 1.387 . S
C245 C115 1.634 . S
C233 N41 1.682 . S
C260 N2 1.627 . S
C272 C210 1.613 . S
C287 N15 1.666 . S
C299 C126 1.633 . S
C314 N28 1.623 . S
C326 C199 1.637 . S
C353 C110 1.334 . S
C341 N5 1.589 . S
C380 C203 1.657 . S
C368 N14 1.639 . S
C395 N27 1.598 . S
C407 C119 1.610 . S
C422 N44 1.589 . S
C434 C194 1.399 . S
C461 C205 1.380 . S
C449 N18 1.572 . S
C488 C121 1.441 . S
C476 N31 1.602 . S
C515 C192 1.663 . S
C503 N40 1.658 . S
C530 N1 1.607 . S
C542 C108 1.611 . S
