# Generated by pormake.
# Topology anh, (6,3)-cn, num edge types: 1
# Building blocks:
#     Node 0, Type 0, BuildingBlock: BETDAH_clean_sbu_0, # of connection points: 6
#     Node 1, Type 0, BuildingBlock: BETDAH_clean_sbu_0, # of connection points: 6
#     Node 2, Type 0, BuildingBlock: BETDAH_clean_sbu_0, # of connection points: 6
#     Node 3, Type 1, BuildingBlock: PAMTOO_clean_linker_0, # of connection points: 3
#     Node 4, Type 1, BuildingBlock: PAMTOO_clean_linker_0, # of connection points: 3
#     Node 5, Type 1, BuildingBlock: PAMTOO_clean_linker_0, # of connection points: 3
#     Node 6, Type 1, BuildingBlock: PAMTOO_clean_linker_0, # of connection points: 3
#     Node 7, Type 1, BuildingBlock: PAMTOO_clean_linker_0, # of connection points: 3
#     Node 8, Type 1, BuildingBlock: PAMTOO_clean_linker_0, # of connection points: 3
#     Edge 9, Type (0, 1), BuildingBlock: ZUJKAS_clean_linker_0, # of connection points: 2
#     Edge 10, Type (0, 1), BuildingBlock: ZUJKAS_clean_linker_0, # of connection points: 2
#     Edge 11, Type (0, 1), BuildingBlock: ZUJKAS_clean_linker_0, # of connection points: 2
#     Edge 12, Type (0, 1), BuildingBlock: ZUJKAS_clean_linker_0, # of connection points: 2
#     Edge 13, Type (0, 1), BuildingBlock: ZUJKAS_clean_linker_0, # of connection points: 2
#     Edge 14, Type (0, 1), BuildingBlock: ZUJKAS_clean_linker_0, # of connection points: 2
#     Edge 15, Type (0, 1), BuildingBlock: ZUJKAS_clean_linker_0, # of connection points: 2
#     Edge 16, Type (0, 1), BuildingBlock: ZUJKAS_clean_linker_0, # of connection points: 2
#     Edge 17, Type (0, 1), BuildingBlock: ZUJKAS_clean_linker_0, # of connection points: 2
#     Edge 18, Type (0, 1), BuildingBlock: ZUJKAS_clean_linker_0, # of connection points: 2
#     Edge 19, Type (0, 1), BuildingBlock: ZUJKAS_clean_linker_0, # of connection points: 2
#     Edge 20, Type (0, 1), BuildingBlock: ZUJKAS_clean_linker_0, # of connection points: 2
#     Edge 21, Type (0, 1), BuildingBlock: ZUJKAS_clean_linker_0, # of connection points: 2
#     Edge 22, Type (0, 1), BuildingBlock: ZUJKAS_clean_linker_0, # of connection points: 2
#     Edge 23, Type (0, 1), BuildingBlock: ZUJKAS_clean_linker_0, # of connection points: 2
#     Edge 24, Type (0, 1), BuildingBlock: ZUJKAS_clean_linker_0, # of connection points: 2
#     Edge 25, Type (0, 1), BuildingBlock: ZUJKAS_clean_linker_0, # of connection points: 2
#     Edge 26, Type (0, 1), BuildingBlock: ZUJKAS_clean_linker_0, # of connection points: 2
# Relax obj value: 0.135
# Max RMSD: 0.170
# Mean RMSD: 0.122
data_MOF--net-anh--node1-BETDAH_clean_sbu_0--node2-PAMTOO_clean_linker_0--edge1-ZUJKAS_clean_linker_0
_symmetry_space_group_name_H-M    P1
_symmetry_Int_Tables_number       1
_symmetry_cell_setting            triclinic
loop_
_symmetry_equiv_pos_as_xyz
'x, y, z'
_cell_length_a     39.124849
_cell_length_b     46.695648
_cell_length_c     63.757874
_cell_angle_alpha  88.722501
_cell_angle_beta   92.109786
_cell_angle_gamma 127.83074
loop_
_atom_site_label
_atom_site_type_symbol
_atom_site_fract_x
_atom_site_fract_y
_atom_site_fract_z
_atom_type_partial_charge
Ho0 Ho 0.20762 0.57543 0.15714 0.0
Ho1 Ho 0.15098 0.59644 0.16958 0.0
C2 C 0.24889 0.66062 0.1622 0.0
C3 C 0.25662 0.56337 0.14023 0.0
C4 C 0.25239 0.5302 0.13778 0.0
C5 C 0.28347 0.53109 0.12694 0.0
C6 C 0.28024 0.49972 0.12525 0.0
C7 C 0.24582 0.46698 0.1344 0.0
C8 C 0.21439 0.46618 0.14501 0.0
C9 C 0.21766 0.49756 0.14668 0.0
C10 C 0.19554 0.57392 0.19848 0.0
C11 C 0.10886 0.51067 0.16461 0.0
C12 C 0.09474 0.59893 0.18746 0.0
C13 C 1.04766 0.57132 0.1884 0.0
C14 C 1.02392 0.57358 0.20327 0.0
C15 C 0.97912 0.54644 0.20427 0.0
C16 C 0.95765 0.51658 0.19049 0.0
C17 C 0.98201 0.51424 0.17596 0.0
C18 C 1.02642 0.54147 0.1748 0.0
C19 C 0.15949 0.59436 0.1279 0.0
O20 O 0.25033 0.63652 0.1525 0.0
O21 O 0.21507 0.65071 0.17305 0.0
O22 O 0.22831 0.56449 0.1295 0.0
O23 O 0.26215 0.57455 0.15957 0.0
O24 O 0.19759 0.55065 0.18912 0.0
O25 O 0.20212 0.59774 0.18574 0.0
O26 O 0.10638 0.53528 0.17255 0.0
O27 O 0.14401 0.51986 0.15539 0.0
O28 O 0.10943 0.61236 0.16881 0.0
O29 O 0.11724 0.59049 0.19745 0.0
O30 O 0.1564 0.61751 0.1366 0.0
O31 O 0.15501 0.57245 0.14146 0.0
H32 H 0.31051 0.55613 0.12004 0.0
H33 H 0.30532 0.50135 0.11724 0.0
H34 H 0.18731 0.44134 0.15204 0.0
H35 H 0.19334 0.49644 0.15511 0.0
H36 H 1.03994 0.59636 0.21397 0.0
H37 H 0.96123 0.54923 0.2155 0.0
H38 H 0.96674 0.49134 0.16539 0.0
H39 H 1.0442 0.53918 0.16323 0.0
Ho40 Ho 0.67306 0.04141 0.48769 0.0
Ho41 Ho 0.6152 0.06125 0.47329 0.0
C42 C 0.57058 0.97772 0.47614 0.0
C43 C 0.70586 0.01361 0.50689 0.0
C44 C 0.69627 0.97779 0.50796 0.0
C45 C 0.70338 0.96624 0.52695 0.0
C46 C 0.6953 0.93266 0.52824 0.0
C47 C 0.68019 0.91009 0.51051 0.0
C48 C 0.67267 0.92158 0.49153 0.0
C49 C 0.68037 0.95505 0.49029 0.0
C50 C 0.67124 0.05153 0.44603 0.0
C51 C 0.71853 0.12501 0.4831 0.0
C52 C 0.58234 0.09035 0.45599 0.0
C53 C 0.58887 0.1243 0.46005 0.0
C54 C 0.57446 0.13769 0.4453 0.0
C55 C 0.57954 0.16945 0.44945 0.0
C56 C 0.59899 0.18829 0.46851 0.0
C57 C 0.61396 0.17489 0.48309 0.0
C58 C 0.60912 0.14331 0.47886 0.0
C59 C 0.61934 0.05289 0.51517 0.0
O60 O 0.60552 0.98742 0.48724 0.0
O61 O 0.5694 1.002 0.46584 0.0
O62 O 0.71957 0.03079 0.48899 0.0
O63 O 0.6777 0.01597 0.51533 0.0
O64 O 0.70536 0.06024 0.45657 0.0
O65 O 0.63912 0.03561 0.45769 0.0
O66 O 0.6827 0.11495 0.47279 0.0
O67 O 0.72061 0.1012 0.4934 0.0
O68 O 0.56378 0.06613 0.47093 0.0
O69 O 0.61546 0.09392 0.44852 0.0
O70 O 0.58471 0.04382 0.50509 0.0
O71 O 0.65027 0.06806 0.5029 0.0
H72 H 0.71551 0.98336 0.54075 0.0
H73 H 0.70175 0.92468 0.54303 0.0
H74 H 0.66054 0.90457 0.47768 0.0
H75 H 0.67414 0.96323 0.47552 0.0
H76 H 0.55907 0.12349 0.43063 0.0
H77 H 0.56831 0.17926 0.4377 0.0
H78 H 0.62854 0.18827 0.49803 0.0
H79 H 0.62062 0.13341 0.49042 0.0
Ho80 Ho 0.65684 0.56075 0.84254 0.0
Ho81 Ho 0.59525 0.47895 0.84896 0.0
C82 C 0.55235 0.51933 0.84647 0.0
C83 C 0.69526 0.62582 0.82842 0.0
C84 C 0.6863 0.65215 0.82623 0.0
C85 C 0.69406 0.67019 0.80705 0.0
C86 C 0.68643 0.69564 0.80454 0.0
C87 C 0.67114 0.70372 0.82124 0.0
C88 C 0.66316 0.6855 0.84045 0.0
C89 C 0.67044 0.65976 0.84289 0.0
C90 C 0.64345 0.53808 0.88278 0.0
C91 C 0.70054 0.52123 0.84626 0.0
C92 C 0.55774 0.4134 0.86197 0.0
C93 C 0.56484 0.3865 0.85836 0.0
C94 C 0.5428 0.35448 0.87013 0.0
C95 C 0.54848 0.32828 0.86629 0.0
C96 C 0.57626 0.33369 0.85055 0.0
C97 C 0.59887 0.36626 0.83904 0.0
C98 C 0.59326 0.39246 0.84295 0.0
C99 C 0.60798 0.50064 0.80857 0.0
O100 O 0.59005 0.54766 0.83918 0.0
O101 O 0.54812 0.49073 0.85424 0.0
O102 O 0.70169 0.61863 0.84746 0.0
O103 O 0.67142 0.59691 0.81656 0.0
O104 O 0.68045 0.56637 0.87632 0.0
O105 O 0.61565 0.52517 0.86807 0.0
O106 O 0.66208 0.49211 0.85231 0.0
O107 O 0.7056 0.55048 0.83919 0.0
O108 O 0.5441 0.42148 0.84556 0.0
O109 O 0.58844 0.44206 0.87271 0.0
O110 O 0.57164 0.47224 0.81541 0.0
O111 O 0.63641 0.51428 0.8231 0.0
H112 H 0.70629 0.66471 0.79401 0.0
H113 H 0.69329 0.70952 0.78963 0.0
H114 H 0.65096 0.69093 0.85351 0.0
H115 H 0.66378 0.64594 0.85781 0.0
H116 H 0.52099 0.34962 0.88219 0.0
H117 H 0.53115 0.30382 0.87568 0.0
H118 H 0.6201 0.37119 0.82666 0.0
H119 H 0.61064 0.41717 0.83375 0.0
H120 H 0.74477 0.15664 0.22629 0.0
H121 H 0.63532 0.04621 0.21212 0.0
H122 H 0.70841 0.12044 0.16217 0.0
H123 H 0.6093 0.05654 0.14842 0.0
C124 C 0.60445 0.0442 0.16421 0.0
O125 O 0.64363 0.05333 0.17169 0.0
H126 H 0.59252 0.05505 0.1746 0.0
C127 C 0.72294 0.13551 0.21501 0.0
C128 C 0.73032 0.14316 0.19347 0.0
C129 C 0.68882 0.10067 0.2221 0.0
C130 C 0.66219 0.07319 0.2072 0.0
C131 C 0.66936 0.08034 0.18571 0.0
C132 C 0.70335 0.1152 0.17885 0.0
H133 H 0.65533 0.60953 0.58808 0.0
H134 H 0.64723 0.51447 0.57892 0.0
H135 H 0.64429 0.57058 0.52563 0.0
H136 H 0.58742 0.49114 0.51985 0.0
C137 C 0.60244 0.48435 0.53209 0.0
O138 O 0.64237 0.51581 0.53804 0.0
H139 H 0.58075 0.47212 0.54572 0.0
C140 C 0.65206 0.5899 0.57767 0.0
C141 C 0.64957 0.59365 0.55583 0.0
C142 C 0.65106 0.56144 0.58626 0.0
C143 C 0.64862 0.53692 0.57268 0.0
C144 C 0.64621 0.54034 0.5509 0.0
C145 C 0.64688 0.56868 0.5425 0.0
H146 H 1.07167 0.54454 0.90541 0.0
H147 H 0.17261 0.53409 0.89954 0.0
H148 H 0.09767 0.52341 0.84484 0.0
H149 H 0.21885 0.57502 0.86247 0.0
C150 C 0.20316 0.55088 0.85209 0.0
O151 O 0.16252 0.52263 0.85938 0.0
H152 H 0.19862 0.55872 0.83625 0.0
C153 C 0.09051 0.54058 0.89559 0.0
C154 C 0.0804 0.53445 0.87396 0.0
C155 C 0.12355 0.54061 0.90497 0.0
C156 C 0.14686 0.53397 0.89253 0.0
C157 C 0.13831 0.52826 0.87086 0.0
C158 C 0.1046 0.52809 0.86155 0.0
H159 H 1.06668 0.48117 0.41639 0.0
H160 H 0.18456 0.58865 0.42831 0.0
H161 H 0.11395 0.51755 0.47984 0.0
H162 H 0.17174 0.60138 0.49413 0.0
C163 C 0.18005 0.60788 0.47733 0.0
O164 O 0.18261 0.58221 0.46898 0.0
H165 H 0.15371 0.60726 0.4694 0.0
C166 C 0.09046 0.5021 0.42734 0.0
C167 C 0.08558 0.49508 0.44903 0.0
C168 C 0.126 0.53569 0.41961 0.0
C169 C 0.15665 0.56268 0.43389 0.0
C170 C 0.15222 0.55612 0.45551 0.0
C171 C 0.11697 0.52232 0.46307 0.0
H172 H 0.64669 0.97885 0.73633 0.0
H173 H 0.63814 0.06501 0.74716 0.0
H174 H 0.63545 1.00404 0.7991 0.0
H175 H 0.57947 0.02491 0.80611 0.0
C176 C 0.59158 0.04511 0.7932 0.0
O177 O 0.63183 0.05619 0.78769 0.0
H178 H 0.56802 0.0318 0.77969 0.0
C179 C 0.64406 0.99511 0.74699 0.0
C180 C 0.64167 0.98807 0.76868 0.0
C181 C 0.64266 0.02268 0.73891 0.0
C182 C 0.63901 0.04345 0.75291 0.0
C183 C 0.63647 0.03663 0.77449 0.0
C184 C 0.63808 0.00925 0.78236 0.0
H185 H 0.59199 0.3763 0.0922 0.0
H186 H 0.46101 0.33712 0.07896 0.0
H187 H 0.49476 0.31568 0.13868 0.0
H188 H 0.39824 0.2547 0.12371 0.0
C189 C 0.3975 0.2728 0.1124 0.0
O190 O 0.43327 0.30824 0.11585 0.0
H191 H 0.39699 0.26415 0.09617 0.0
C192 C 0.55875 0.36156 0.09687 0.0
C193 C 0.54728 0.34658 0.11712 0.0
C194 C 0.52807 0.35838 0.0828 0.0
C195 C 0.48503 0.33882 0.08909 0.0
C196 C 0.4731 0.3229 0.10904 0.0
C197 C 0.50402 0.32653 0.12294 0.0
H198 H 0.22557 0.4186 0.16595 0.0
H199 H 0.22928 0.36816 0.16544 0.0
H200 H 0.26663 0.39167 0.10081 0.0
H201 H 0.26174 0.44142 0.10097 0.0
H202 H 0.20632 0.31488 0.11112 0.0
H203 H 0.35102 0.39365 0.16531 0.0
H204 H 0.30224 0.38515 0.1738 0.0
H205 H 0.3298 0.41422 0.1517 0.0
C206 C 0.23363 0.41253 0.15149 0.0
C207 C 0.24387 0.43427 0.13355 0.0
C208 C 0.23597 0.38386 0.15128 0.0
C209 C 0.24873 0.37657 0.13317 0.0
C210 C 0.25681 0.39698 0.11495 0.0
H211 H 0.35703 0.28728 0.08352 0.0
H212 H 0.30826 0.30178 0.09055 0.0
C213 C 0.25445 0.42561 0.11513 0.0
C214 C 0.25778 0.35014 0.13356 0.0
H215 H 0.33316 0.34017 0.15131 0.0
C216 C 0.2336 0.31997 0.12015 0.0
C217 C 0.2932 0.35679 0.14549 0.0
C218 C 0.32086 0.38927 0.15982 0.0
C219 C 0.24505 0.29704 0.11771 0.0
C220 C 0.2821 0.30505 0.12864 0.0
C221 C 0.30467 0.33398 0.14297 0.0
C222 C 0.30196 0.28749 0.12351 0.0
C223 C 0.21794 0.26498 0.10312 0.0
C224 C 0.31414 0.27406 0.13958 0.0
C225 C 0.34232 0.26603 0.13557 0.0
C226 C 0.35843 0.27107 0.11539 0.0
C227 C 0.34407 0.28228 0.09905 0.0
C228 C 0.31607 0.29043 0.10307 0.0
H229 H 0.18369 0.25466 0.10249 0.0
H230 H 0.23046 0.27353 0.08703 0.0
H231 H 0.21899 0.24256 0.10804 0.0
H232 H 0.3041 0.27203 0.15551 0.0
H233 H 0.35377 0.25821 0.1485 0.0
H234 H 0.7266 0.18088 0.46261 0.0
H235 H 0.7906 0.24424 0.46088 0.0
H236 H 0.8612 0.22122 0.50185 0.0
H237 H 0.79745 0.15742 0.50334 0.0
H238 H 0.83792 0.29589 0.49162 0.0
H239 H 0.94041 0.26933 0.45229 0.0
H240 H 0.88277 0.23514 0.45465 0.0
H241 H 0.91878 0.24581 0.47669 0.0
C242 C 0.75568 0.18917 0.47128 0.0
C243 C 0.75691 0.16388 0.48298 0.0
C244 C 0.79228 0.2255 0.47029 0.0
C245 C 0.83097 0.23742 0.48094 0.0
C246 C 0.83202 0.21251 0.49311 0.0
H247 H 0.08562 0.45191 0.4789 0.0
H248 H 1.02432 0.3903 0.48925 0.0
C249 C 0.79543 0.17605 0.49405 0.0
C250 C 0.87005 0.27589 0.47908 0.0
H251 H 0.97337 0.33006 0.46131 0.0
C252 C 0.86758 0.30334 0.48506 0.0
C253 C 0.90882 0.28565 0.47054 0.0
C254 C 0.91294 0.25751 0.46299 0.0
C255 C 0.90263 0.3402 0.4826 0.0
C256 C 0.94102 0.3499 0.4737 0.0
C257 C 0.94394 0.32253 0.4682 0.0
C258 C 0.97751 0.38812 0.46871 0.0
C259 C 0.89829 0.36848 0.48954 0.0
C260 C 0.9715 0.40732 0.45379 0.0
C261 C 1.00635 0.44237 0.44785 0.0
C262 C 1.04803 0.45898 0.45669 0.0
C263 C 1.05383 0.44 0.47198 0.0
C264 C 1.01892 0.40476 0.47781 0.0
H265 H 0.8724 0.35737 0.50113 0.0
H266 H 0.92923 0.39225 0.49659 0.0
H267 H 0.88971 0.37798 0.4757 0.0
H268 H 0.94 0.39483 0.44631 0.0
H269 H 1.00076 0.45636 0.43614 0.0
H270 H 0.69637 0.75877 0.84812 0.0
H271 H 0.68827 0.80656 0.84281 0.0
H272 H 0.62328 0.75965 0.78309 0.0
H273 H 0.63096 0.71172 0.78833 0.0
H274 H 0.72127 0.85563 0.80649 0.0
H275 H 0.54357 0.77511 0.81465 0.0
H276 H 0.57385 0.76024 0.82517 0.0
H277 H 0.56041 0.75595 0.79761 0.0
C278 C 0.67978 0.75837 0.83401 0.0
C279 C 0.66428 0.73153 0.81863 0.0
C280 C 0.67537 0.78572 0.83097 0.0
C281 C 0.65482 0.78635 0.81267 0.0
C282 C 0.63875 0.75932 0.79744 0.0
H283 H 0.601 0.92055 0.75185 0.0
H284 H 0.60536 0.87298 0.76414 0.0
C285 C 0.64347 0.73217 0.80038 0.0
C286 C 0.6522 0.81633 0.80885 0.0
H287 H 0.58063 0.83459 0.80073 0.0
C288 C 0.69063 0.85124 0.80546 0.0
C289 C 0.61213 0.81029 0.80745 0.0
C290 C 0.57008 0.77345 0.81157 0.0
C291 C 0.68994 0.88014 0.79987 0.0
C292 C 0.64975 0.87403 0.79815 0.0
C293 C 0.61139 0.83922 0.80205 0.0
C294 C 0.64657 0.9029 0.79127 0.0
C295 C 0.73208 0.91649 0.79495 0.0
C296 C 0.66773 0.93534 0.80262 0.0
C297 C 0.66587 0.9629 0.79544 0.0
C298 C 0.64244 0.95837 0.77687 0.0
C299 C 0.62017 0.92532 0.76593 0.0
C300 C 0.62227 0.89793 0.77305 0.0
H301 H 0.75814 0.91424 0.79192 0.0
H302 H 0.72812 0.92905 0.78104 0.0
H303 H 0.74275 0.9349 0.80855 0.0
H304 H 0.6859 0.93945 0.81698 0.0
H305 H 0.68349 0.98801 0.80422 0.0
H306 H 0.90393 0.48602 0.22423 0.0
H307 H 0.82454 0.44179 0.22321 0.0
H308 H 0.8247 0.44073 0.1556 0.0
H309 H 0.903 0.48492 0.1564 0.0
H310 H 0.76801 0.45156 0.20451 0.0
H311 H 0.74205 0.33311 0.1689 0.0
H312 H 0.79306 0.36922 0.18132 0.0
H313 H 0.78103 0.37309 0.15431 0.0
C314 C 0.88694 0.47619 0.20917 0.0
C315 C 0.90985 0.48879 0.1904 0.0
C316 C 0.84172 0.45071 0.20864 0.0
C317 C 0.81888 0.43723 0.18936 0.0
C318 C 0.84174 0.44973 0.17069 0.0
H319 H 0.62423 0.41229 0.12479 0.0
H320 H 0.68237 0.42699 0.14904 0.0
C321 C 0.88663 0.47515 0.17118 0.0
C322 C 0.77104 0.41336 0.18806 0.0
H323 H 0.68781 0.34236 0.15904 0.0
C324 C 0.75001 0.42695 0.19519 0.0
C325 C 0.74717 0.38069 0.17644 0.0
C326 C 0.767 0.363 0.17004 0.0
C327 C 0.70727 0.41127 0.18869 0.0
C328 C 0.68567 0.38185 0.17444 0.0
C329 C 0.70474 0.36545 0.16958 0.0
C330 C 0.64801 0.37254 0.16144 0.0
C331 C 0.68668 0.42783 0.19603 0.0
C332 C 0.60963 0.33679 0.15996 0.0
C333 C 0.57631 0.32817 0.1458 0.0
C334 C 0.58139 0.3551 0.13269 0.0
C335 C 0.61964 0.39086 0.13445 0.0
C336 C 0.65262 0.39942 0.14859 0.0
H337 H 0.69843 0.4389 0.21216 0.0
H338 H 0.69591 0.4507 0.18553 0.0
H339 H 0.65082 0.40774 0.19585 0.0
H340 H 0.60577 0.31557 0.16954 0.0
H341 H 0.54712 0.30038 0.1447 0.0
H342 H 0.49461 0.94671 0.45344 0.0
H343 H 0.43073 0.88288 0.45283 0.0
H344 H 0.49589 0.85666 0.49553 0.0
H345 H 0.55988 0.92038 0.49635 0.0
H346 H 0.42339 0.81937 0.44176 0.0
H347 H 0.38098 0.81662 0.52444 0.0
H348 H 0.41767 0.85839 0.51029 0.0
H349 H 0.43571 0.83343 0.52056 0.0
C350 C 0.49546 0.92741 0.4627 0.0
C351 C 0.53236 0.9388 0.47506 0.0
C352 C 0.45891 0.89091 0.46228 0.0
C353 C 0.45836 0.86512 0.47434 0.0
C354 C 0.49538 0.87622 0.48636 0.0
H355 H 0.25504 0.63614 0.5001 0.0
H356 H 0.32404 0.69755 0.49834 0.0
C357 C 0.53202 0.91268 0.48674 0.0
C358 C 0.41887 0.82669 0.47447 0.0
H359 H 0.33885 0.76109 0.50606 0.0
C360 C 0.40483 0.80657 0.45579 0.0
C361 C 0.39486 0.81005 0.49282 0.0
C362 C 0.40771 0.8307 0.51316 0.0
C363 C 0.36764 0.7701 0.45503 0.0
C364 C 0.34324 0.75357 0.47334 0.0
C365 C 0.35753 0.7737 0.49204 0.0
C366 C 0.30232 0.71571 0.47343 0.0
C367 C 0.35539 0.74946 0.43473 0.0
C368 C 0.26716 0.7054 0.46001 0.0
C369 C 0.22794 0.67033 0.46093 0.0
C370 C 0.22288 0.64512 0.47556 0.0
C371 C 0.25816 0.65522 0.48879 0.0
C372 C 0.29746 0.69024 0.48779 0.0
H373 H 0.3837 0.76193 0.42452 0.0
H374 H 0.3416 0.72075 0.43767 0.0
H375 H 0.33065 0.74995 0.42604 0.0
H376 H 0.2697 0.7247 0.44911 0.0
H377 H 0.20125 0.66314 0.45051 0.0
H378 H 0.51253 0.26025 0.84922 0.0
H379 H 0.51926 0.21326 0.84057 0.0
H380 H 0.65577 0.29506 0.83102 0.0
H381 H 0.64975 0.34223 0.84056 0.0
H382 H 0.54477 0.20406 0.80376 0.0
H383 H 0.65461 0.22373 0.86936 0.0
H384 H 0.62688 0.2435 0.86935 0.0
H385 H 0.67486 0.26403 0.85442 0.0
C386 C 0.54419 0.26827 0.8457 0.0
C387 C 0.58065 0.30506 0.84572 0.0
C388 C 0.5479 0.24137 0.84058 0.0
C389 C 0.58809 0.2506 0.8354 0.0
C390 C 0.62458 0.28725 0.83535 0.0
H391 H 0.61623 0.10416 0.76964 0.0
H392 H 0.6179 0.15553 0.77959 0.0
C393 C 0.62095 0.31421 0.84056 0.0
C394 C 0.59124 0.22184 0.82929 0.0
H395 H 0.6402 0.18321 0.84231 0.0
C396 C 0.56561 0.19948 0.81219 0.0
C397 C 0.61817 0.21572 0.84044 0.0
C398 C 0.64492 0.23776 0.85954 0.0
C399 C 0.56618 0.17117 0.8059 0.0
C400 C 0.59383 0.16555 0.81675 0.0
C401 C 0.61937 0.18782 0.8339 0.0
C402 C 0.59542 0.1358 0.81101 0.0
C403 C 0.53632 0.14697 0.78804 0.0
C404 C 0.58371 0.1084 0.82559 0.0
C405 C 0.58318 0.07936 0.82001 0.0
C406 C 0.59453 0.07733 0.79975 0.0
C407 C 0.60725 0.10519 0.78532 0.0
C408 C 0.60793 0.13431 0.79094 0.0
H409 H 0.50979 0.14908 0.78501 0.0
H410 H 0.55508 0.15518 0.77353 0.0
H411 H 0.52177 0.11818 0.79134 0.0
H412 H 0.5741 0.10911 0.84118 0.0
H413 H 0.57329 0.05821 0.8314 0.0
H414 H 0.70538 0.88268 0.48289 0.0
H415 H 0.69675 0.8261 0.48601 0.0
H416 H 0.63127 0.80219 0.54421 0.0
H417 H 0.63953 0.85852 0.54116 0.0
H418 H 0.729 0.8078 0.52206 0.0
H419 H 0.55135 0.70744 0.50812 0.0
H420 H 0.58203 0.7541 0.49965 0.0
H421 H 0.5682 0.7426 0.5267 0.0
C422 C 0.68859 0.86508 0.49619 0.0
C423 C 0.67311 0.875 0.51179 0.0
C424 C 0.68386 0.8329 0.49798 0.0
C425 C 0.663 0.80986 0.51522 0.0
C426 C 0.64698 0.81942 0.53065 0.0
H427 H 0.60737 0.61831 0.57094 0.0
H428 H 0.61147 0.67021 0.55885 0.0
C429 C 0.65204 0.85171 0.52898 0.0
C430 C 0.66002 0.7768 0.51779 0.0
H431 H 0.58775 0.68473 0.52204 0.0
C432 C 0.69823 0.7808 0.52181 0.0
C433 C 0.61979 0.74176 0.51748 0.0
C434 C 0.57795 0.73599 0.51259 0.0
C435 C 0.69716 0.75073 0.52649 0.0
C436 C 0.65678 0.71562 0.5266 0.0
C437 C 0.61867 0.71161 0.52194 0.0
C438 C 0.65309 0.68306 0.533 0.0
C439 C 0.73908 0.75706 0.53227 0.0
C440 C 0.67438 0.67246 0.52222 0.0
C441 C 0.67268 0.64302 0.52933 0.0
C442 C 0.64931 0.62345 0.54725 0.0
C443 C 0.62656 0.63329 0.55741 0.0
C444 C 0.62851 0.66277 0.5504 0.0
H445 H 0.76545 0.78589 0.53628 0.0
H446 H 0.73495 0.73994 0.54582 0.0
H447 H 0.74943 0.7498 0.51873 0.0
H448 H 0.69274 0.68721 0.50846 0.0
H449 H 0.69057 0.63621 0.52112 0.0
H450 H 0.78277 0.57312 0.83202 0.0
H451 H 0.84543 0.57312 0.83404 0.0
H452 H 0.76831 0.46852 0.86406 0.0
H453 H 0.70539 0.46825 0.86212 0.0
H454 H 0.85839 0.52363 0.81799 0.0
H455 H 0.87332 0.53099 0.90499 0.0
H456 H 0.82085 0.49444 0.89446 0.0
H457 H 0.84103 0.54049 0.89024 0.0
C458 C 0.77894 0.55002 0.83907 0.0
C459 C 0.73872 0.52079 0.84704 0.0
C460 C 0.81496 0.55003 0.84015 0.0
C461 C 0.81211 0.52104 0.84943 0.0
C462 C 0.77184 0.49154 0.8571 0.0
H463 H 1.06774 0.58475 0.8811 0.0
H464 H 1.00304 0.58036 0.87354 0.0
C465 C 0.73568 0.49138 0.85591 0.0
C466 C 0.85137 0.52208 0.8514 0.0
H467 H 0.92058 0.5249 0.88744 0.0
C468 C 0.87186 0.52376 0.83318 0.0
C469 C 0.86953 0.52264 0.87118 0.0
C470 C 0.8504 0.52235 0.89138 0.0
C471 C 0.90949 0.52574 0.83424 0.0
C472 C 0.92741 0.526 0.85404 0.0
C473 C 0.90695 0.52444 0.87222 0.0
C474 C 0.96852 0.52982 0.85648 0.0
C475 C 0.9305 0.52853 0.81415 0.0
C476 C 0.97176 0.50337 0.849 0.0
C477 C 1.0092 0.50585 0.85336 0.0
C478 C 1.04418 0.53474 0.86539 0.0
C479 C 1.04146 0.56194 0.87194 0.0
C480 C 1.00426 0.55942 0.86766 0.0
H481 H 0.91828 0.53552 0.80055 0.0
H482 H 0.9662 0.54931 0.81559 0.0
H483 H 0.92336 0.50208 0.81087 0.0
H484 H 0.94464 0.47997 0.84055 0.0
H485 H 1.0098 0.48418 0.84829 0.0
H486 H 0.25227 0.71816 0.17411 0.0
H487 H 0.31383 0.78244 0.17304 0.0
H488 H 0.39231 0.75615 0.14779 0.0
H489 H 0.33036 0.69166 0.14824 0.0
H490 H 0.39026 0.81841 0.19323 0.0
H491 H 0.41628 0.83379 0.10755 0.0
H492 H 0.36843 0.79394 0.11887 0.0
H493 H 0.41809 0.79932 0.11907 0.0
C494 C 0.28252 0.72598 0.16819 0.0
C495 C 0.28629 0.6997 0.16119 0.0
C496 C 0.31774 0.76281 0.16761 0.0
C497 C 0.35762 0.77428 0.16007 0.0
C498 C 0.36163 0.74811 0.15319 0.0
H499 H 0.59859 0.9902 0.18728 0.0
H500 H 0.5404 0.92487 0.18588 0.0
C501 C 0.32621 0.71119 0.15358 0.0
C502 C 0.39515 0.81354 0.16017 0.0
H503 H 0.47019 0.88382 0.12892 0.0
C504 C 0.40768 0.83271 0.17915 0.0
C505 C 0.41758 0.83235 0.14175 0.0
C506 C 0.4042 0.81392 0.12061 0.0
C507 C 0.44195 0.87004 0.18026 0.0
C508 C 0.46528 0.88862 0.16199 0.0
C509 C 0.45265 0.86951 0.14297 0.0
C510 C 0.50191 0.92813 0.16212 0.0
C511 C 0.4519 0.88932 0.2009 0.0
C512 C 0.5005 0.95168 0.14871 0.0
C513 C 0.53421 0.98899 0.14916 0.0
C514 C 0.57023 1.00353 0.16288 0.0
C515 C 0.57168 0.97989 0.17627 0.0
C516 C 0.53815 0.94252 0.17566 0.0
H517 H 0.42385 0.87389 0.21141 0.0
H518 H 0.4794 0.89218 0.20905 0.0
H519 H 0.46101 0.91681 0.19847 0.0
H520 H 0.47288 0.94125 0.13815 0.0
H521 H 0.53189 1.00665 0.13897 0.0
H522 H 0.54014 0.20085 0.45931 0.0
H523 H 0.54504 0.25381 0.46834 0.0
H524 H 0.66916 0.30205 0.49918 0.0
H525 H 0.66568 0.25011 0.48923 0.0
H526 H 0.54879 0.2783 0.50664 0.0
H527 H 0.6957 0.38584 0.46411 0.0
H528 H 0.668 0.33822 0.45947 0.0
H529 H 0.70463 0.3604 0.48174 0.0
C530 C 0.569 0.22306 0.46758 0.0
C531 C 0.6026 0.22115 0.47343 0.0
C532 C 0.57156 0.25322 0.47291 0.0
C533 C 0.60773 0.2822 0.48419 0.0
C534 C 0.64135 0.28045 0.49007 0.0
H535 H 0.65347 0.46644 0.548 0.0
H536 H 0.65612 0.41816 0.53606 0.0
C537 C 0.63898 0.2504 0.48462 0.0
C538 C 0.6091 0.31327 0.4907 0.0
H539 H 0.66917 0.40561 0.48843 0.0
C540 C 0.57501 0.30609 0.50253 0.0
C541 C 0.64336 0.3496 0.48537 0.0
C542 C 0.67978 0.35903 0.4718 0.0
C543 C 0.57447 0.33418 0.50933 0.0
C544 C 0.60884 0.37038 0.50417 0.0
C545 C 0.64301 0.37774 0.49242 0.0
C546 C 0.60918 0.4008 0.51061 0.0
C547 C 0.53735 0.32517 0.52214 0.0
C548 C 0.58221 0.40705 0.50009 0.0
C549 C 0.58099 0.43474 0.50672 0.0
C550 C 0.60693 0.45679 0.52389 0.0
C551 C 0.63393 0.45041 0.53441 0.0
C552 C 0.63536 0.42284 0.52768 0.0
H553 H 0.51592 0.29625 0.527 0.0
H554 H 0.54985 0.34249 0.5364 0.0
H555 H 0.51771 0.33088 0.51273 0.0
H556 H 0.56167 0.39016 0.48694 0.0
H557 H 0.55927 0.4386 0.49861 0.0
H558 H 0.47406 0.47182 0.86561 0.0
H559 H 0.41324 0.47422 0.8666 0.0
H560 H 0.48416 0.57195 0.82963 0.0
H561 H 0.54523 0.56992 0.82865 0.0
H562 H 0.41195 0.53177 0.88201 0.0
H563 H 0.36573 0.50445 0.79735 0.0
H564 H 0.39943 0.49473 0.81028 0.0
H565 H 0.42194 0.54047 0.80312 0.0
C566 C 0.47682 0.49382 0.8576 0.0
C567 C 0.51483 0.52057 0.84695 0.0
C568 C 0.44188 0.49519 0.85823 0.0
C569 C 0.44357 0.52302 0.84799 0.0
C570 C 0.48151 0.54984 0.83742 0.0
H571 H 0.27223 0.58163 0.82688 0.0
H572 H 0.32828 0.57352 0.82666 0.0
C573 C 0.51664 0.5487 0.83694 0.0
C574 C 0.40601 0.52425 0.84857 0.0
H575 H 0.33034 0.52078 0.81734 0.0
C576 C 0.39394 0.52916 0.86788 0.0
C577 C 0.38234 0.52098 0.83019 0.0
C578 C 0.39262 0.51456 0.80904 0.0
C579 C 0.36009 0.53202 0.86923 0.0
C580 C 0.33625 0.52869 0.85081 0.0
C581 C 0.34812 0.52331 0.83154 0.0
C582 C 0.30047 0.53244 0.85091 0.0
C583 C 0.35157 0.54012 0.89034 0.0
C584 C 0.26507 0.5118 0.86436 0.0
C585 C 0.23283 0.51667 0.86459 0.0
C586 C 0.23438 0.54155 0.85091 0.0
C587 C 0.26937 0.56164 0.83728 0.0
C588 C 0.30167 0.55707 0.83721 0.0
H589 H 0.38007 0.55236 0.90128 0.0
H590 H 0.34319 0.5589 0.88884 0.0
H591 H 0.32408 0.51446 0.89749 0.0
H592 H 0.26233 0.49193 0.8748 0.0
H593 H 0.20693 0.5012 0.87559 0.0
H594 H 1.03471 0.4814 0.18587 0.0
H595 H 0.9708 0.41806 0.18727 0.0
H596 H 1.03072 0.38877 0.14667 0.0
H597 H 0.09544 0.45222 0.14551 0.0
H598 H 0.91541 0.3728 0.15615 0.0
H599 H 0.99411 0.3179 0.19441 0.0
H600 H 1.02058 0.36587 0.19274 0.0
H601 H 1.01816 0.34182 0.17038 0.0
C602 C 1.03451 0.46156 0.17727 0.0
C603 C 1.07037 0.47196 0.16562 0.0
C604 C 0.99782 0.42528 0.17808 0.0
C605 C 0.99609 0.39851 0.16732 0.0
C606 C 1.03164 0.40879 0.1555 0.0
H607 H 0.79068 0.16296 0.16401 0.0
H608 H 0.85395 0.2246 0.15502 0.0
C609 C 1.06856 0.44514 0.15476 0.0
C610 C 0.95672 0.36004 0.16837 0.0
H611 H 0.92046 0.27541 0.18406 0.0
C612 C 0.91656 0.3515 0.1622 0.0
C613 C 0.95819 0.3322 0.17623 0.0
C614 C 0.99997 0.33984 0.184 0.0
C615 C 0.87789 0.31603 0.16383 0.0
C616 C 0.87932 0.28837 0.17201 0.0
C617 C 0.9195 0.29665 0.1777 0.0
C618 C 0.83938 0.25123 0.17612 0.0
C619 C 0.83579 0.30846 0.15681 0.0
C620 C 0.81022 0.2458 0.19091 0.0
C621 C 0.77424 0.21076 0.19606 0.0
C622 C 0.76668 0.18035 0.18658 0.0
C623 C 0.79541 0.18584 0.17142 0.0
C624 C 0.83164 0.221 0.16636 0.0
H625 H 0.84113 0.32937 0.14563 0.0
H626 H 0.81356 0.28141 0.14924 0.0
H627 H 0.81969 0.30874 0.17069 0.0
H628 H 0.8159 0.26867 0.19888 0.0
H629 H 0.75254 0.20743 0.20769 0.0
H630 H 0.15388 0.5407 0.10779 0.0
H631 H 0.15434 0.53318 0.06997 0.0
H632 H 0.16562 0.63007 0.05866 0.0
H633 H 0.16651 0.63831 0.09656 0.0
H634 H 0.09667 0.52294 0.04011 0.0
H635 H 0.26013 0.64818 0.02253 0.0
H636 H 0.24347 0.63186 0.04895 0.0
H637 H 0.22762 0.65677 0.03585 0.0
C638 C 0.15719 0.56073 0.09725 0.0
C639 C 0.16065 0.59033 0.10509 0.0
C640 C 0.15725 0.55631 0.07564 0.0
C641 C 0.16077 0.58139 0.06147 0.0
C642 C 0.16399 0.61089 0.0693 0.0
H643 H 0.13182 0.59333 0.92789 0.0
H644 H 0.14272 0.60248 0.96591 0.0
C645 C 0.16415 0.61542 0.09093 0.0
C646 C 0.15878 0.57559 0.03851 0.0
H647 H 0.21236 0.61574 0.99309 0.0
C648 C 0.12218 0.54307 0.02986 0.0
C649 C 0.19211 0.60187 0.02514 0.0
C650 C 0.23325 0.63647 0.03359 0.0
C651 C 0.1174 0.53657 0.00815 0.0
C652 C 0.15033 0.56313 0.99478 0.0
C653 C 0.18718 0.59545 0.00341 0.0
C654 C 0.14611 0.55845 0.97168 0.0
C655 C 0.07655 0.50183 -0.00039 0.0
C656 C 0.14529 0.5311 0.96231 0.0
C657 C 0.13902 0.52577 0.94056 0.0
C658 C 0.13332 0.54765 0.92786 0.0
C659 C 0.13544 0.57568 0.93729 0.0
C660 C 0.14191 0.58108 0.95898 0.0
H661 H 1.05093 0.48742 0.01146 0.0
H662 H 1.06374 0.50736 0.98558 0.0
H663 H 0.08395 0.48353 0.99475 0.0
H664 H 0.14901 0.51364 0.97184 0.0
H665 H 0.13742 0.50391 0.93375 0.0
H666 H 0.73931 0.09428 0.42067 0.0
H667 H 0.73749 0.10148 0.38265 0.0
H668 H 0.59793 0.02516 0.38174 0.0
H669 H 0.59965 0.01919 0.41999 0.0
H670 H 0.71023 0.05388 0.35289 0.0
H671 H 0.61412 0.10468 0.34707 0.0
H672 H 0.63535 0.10128 0.37178 0.0
H673 H 0.58633 0.06179 0.3602 0.0
C674 C 0.70824 0.07932 0.41236 0.0
C675 C 0.66963 0.05625 0.42319 0.0
C676 C 0.70722 0.0834 0.39064 0.0
C677 C 0.66756 0.06423 0.37931 0.0
C678 C 0.62887 0.04098 0.39015 0.0
H679 H 0.66208 0.03845 0.2434 0.0
H680 H 0.65266 0.0272 0.28106 0.0
C681 C 0.62987 0.03736 0.41197 0.0
C682 C 0.66723 0.06762 0.35609 0.0
H683 H 0.62753 0.08852 0.31503 0.0
C684 C 0.69223 0.06156 0.34462 0.0
C685 C 0.64409 0.078 0.3453 0.0
C686 C 0.61882 0.08718 0.35673 0.0
C687 C 0.69507 0.06585 0.32275 0.0
C688 C 0.67087 0.07511 0.31189 0.0
C689 C 0.64568 0.08101 0.32333 0.0
C690 C 0.67297 0.0806 0.28879 0.0
C691 C 0.72525 0.06166 0.31169 0.0
C692 C 0.68523 0.11364 0.28043 0.0
C693 C 0.68933 0.11978 0.25881 0.0
C694 C 0.68168 0.09313 0.24503 0.0
C695 C 0.66811 0.05961 0.25343 0.0
C696 C 0.66335 0.05329 0.27505 0.0
H697 H 0.75028 0.06515 0.32268 0.0
H698 H 0.70635 0.034 0.30493 0.0
H699 H 0.74184 0.08164 0.29877 0.0
H700 H 0.69237 0.135 0.29068 0.0
H701 H 0.69867 0.14555 0.25293 0.0
H702 H 0.68577 0.55185 0.79066 0.0
H703 H 0.69954 0.56523 0.7531 0.0
H704 H 0.56331 0.48456 0.73868 0.0
H705 H 0.5495 0.47081 0.77603 0.0
H706 H 0.61589 0.47835 0.71432 0.0
H707 H 0.67071 0.61994 0.71476 0.0
H708 H 0.69939 0.61079 0.73276 0.0
H709 H 0.64313 0.58927 0.73648 0.0
C710 C 0.6588 0.53722 0.77944 0.0
C711 C 0.61657 0.51031 0.78619 0.0
C712 C 0.66666 0.54496 0.75803 0.0
C713 C 0.63237 0.52608 0.74313 0.0
C714 C 0.59021 0.49943 0.74992 0.0
H715 H 0.60541 0.56765 0.61464 0.0
H716 H 0.60487 0.5601 0.65267 0.0
C717 C 0.58236 0.49166 0.77125 0.0
C718 C 0.64011 0.53314 0.72035 0.0
H719 H 0.67254 0.59724 0.68243 0.0
C720 C 0.6285 0.50439 0.70733 0.0
C721 C 0.65629 0.56708 0.71131 0.0
C722 C 0.66781 0.59852 0.72447 0.0
C723 C 0.63197 0.50846 0.68546 0.0
C724 C 0.64819 0.54241 0.67641 0.0
C725 C 0.66041 0.57133 0.68945 0.0
C726 C 0.64992 0.54776 0.65335 0.0
C727 C 0.61673 0.47603 0.67218 0.0
C728 C 0.67574 0.54361 0.64112 0.0
C729 C 0.67613 0.54791 0.6193 0.0
C730 C 0.65102 0.55681 0.60941 0.0
C731 C 0.62557 0.56129 0.62179 0.0
C732 C 0.62512 0.55688 0.64352 0.0
H733 H 0.59653 0.45026 0.68114 0.0
H734 H 0.59765 0.47415 0.6582 0.0
H735 H 0.64526 0.47893 0.66662 0.0
H736 H 0.69572 0.53719 0.64844 0.0
H737 H 0.69647 0.54475 0.61022 0.0
H738 H 0.69307 0.08106 0.53875 0.0
H739 H 0.69945 0.07681 0.57692 0.0
H740 H 0.56099 0.01352 0.58122 0.0
H741 H 0.55437 0.01787 0.54307 0.0
H742 H 0.66414 0.09905 0.60896 0.0
H743 H 0.59875 0.95439 0.6122 0.0
H744 H 0.62181 0.98169 0.58881 0.0
H745 H 0.56872 0.96489 0.59631 0.0
C746 C 0.66401 0.06618 0.54785 0.0
C747 C 0.62321 0.04979 0.53803 0.0
C748 C 0.66772 0.06383 0.5696 0.0
C749 C 0.63066 0.04471 0.58178 0.0
C750 C 0.58988 0.02817 0.572 0.0
H751 H 0.59546 0.03781 0.71534 0.0
H752 H 0.59527 0.04547 0.67726 0.0
C753 C 0.58617 0.03075 0.55028 0.0
C754 C 0.63467 0.04258 0.60479 0.0
H755 H 0.61247 0.98389 0.64462 0.0
C756 C 0.65298 0.07395 0.6168 0.0
C757 C 0.62034 0.00982 0.61483 0.0
C758 C 0.60152 0.97572 0.60246 0.0
C759 C 0.65658 0.07321 0.63876 0.0
C760 C 0.64139 0.04025 0.64885 0.0
C761 C 0.62386 0.00905 0.63679 0.0
C762 C 0.6432 0.03751 0.67195 0.0
C763 C 0.67684 0.10764 0.65105 0.0
C764 C 0.6702 0.03047 0.6815 0.0
C765 C 0.67076 0.02646 0.70326 0.0
C766 C 0.64387 0.02896 0.71587 0.0
C767 C 0.61708 0.0363 0.70618 0.0
C768 C 0.61678 0.04055 0.68442 0.0
H769 H 0.69441 0.13201 0.6408 0.0
H770 H 0.65108 0.10631 0.65894 0.0
H771 H 0.6997 0.11077 0.66339 0.0
H772 H 0.69083 0.02807 0.67209 0.0
H773 H 0.69228 0.0214 0.71021 0.0
H774 H 0.56655 0.47943 0.89692 0.0
H775 H 0.55135 0.45106 0.93149 0.0
H776 H 0.68454 0.53203 0.95121 0.0
H777 H 0.70024 0.56052 0.91634 0.0
H778 H 0.59971 0.42583 0.95186 0.0
H779 H 0.60506 0.52975 -0.00338 0.0
H780 H 0.59486 0.52431 0.96857 0.0
H781 H 0.64837 0.54503 0.97912 0.0
C782 C 0.59265 0.49126 0.9086 0.0
C783 C 0.63463 0.52212 0.90397 0.0
C784 C 0.58388 0.475 0.92832 0.0
C785 C 0.61677 0.48957 0.94385 0.0
C786 C 0.6587 0.5206 0.9394 0.0
H787 H 0.60269 0.42585 0.07426 0.0
H788 H 0.62584 0.45685 0.0405 0.0
C789 C 0.66762 0.53679 0.91954 0.0
C790 C 0.60688 0.47162 0.96454 0.0
H791 H 0.58971 0.47936 0.01547 0.0
C792 C 0.59768 0.43751 0.96583 0.0
C793 C 0.60446 0.48712 0.98264 0.0
C794 C 0.61346 0.5235 0.98183 0.0
C795 C 0.58607 0.41837 0.98485 0.0
C796 C 0.58241 0.43337 0.00288 0.0
C797 C 0.59231 0.46781 0.00161 0.0
C798 C 0.56836 0.41384 0.02323 0.0
C799 C 0.57855 0.38257 0.98548 0.0
C800 C 0.52808 0.37944 0.02482 0.0
C801 C 0.51498 0.3613 0.04409 0.0
C802 C 0.54174 0.3774 0.0622 0.0
C803 C 0.5817 0.41219 0.06058 0.0
C804 C 0.59485 0.43016 0.04131 0.0
H805 H 0.59497 0.38029 0.97252 0.0
H806 H 0.59031 0.37886 0.00064 0.0
H807 H 0.54333 0.36019 0.98366 0.0
H808 H 0.50661 0.36669 0.01118 0.0
H809 H 0.48407 0.33456 0.04475 0.0
H810 H 0.17037 0.51922 0.22574 0.0
H811 H 0.15543 0.51607 0.26299 0.0
H812 H 0.18465 0.62132 0.25902 0.0
H813 H 0.19983 0.6247 0.2216 0.0
H814 H 0.22675 0.6114 0.29349 0.0
H815 H 1.04959 0.50114 0.28876 0.0
H816 H 0.08122 0.4913 0.27567 0.0
H817 H 0.08041 0.52741 0.26618 0.0
C818 C 0.17347 0.54164 0.23279 0.0
C819 C 0.18616 0.57217 0.22084 0.0
C820 C 0.16466 0.5397 0.25401 0.0
C821 C 0.16838 0.56824 0.26364 0.0
C822 C 0.18131 0.59892 0.25179 0.0
H823 H 0.14982 0.59626 0.39763 0.0
H824 H 0.15957 0.60656 0.35973 0.0
C825 C 0.18992 0.6008 0.23048 0.0
C826 C 0.16039 0.5664 0.28632 0.0
H827 H 0.08335 0.51549 0.32285 0.0
C828 C 0.19532 0.59079 0.29995 0.0
C829 C 0.11933 0.53943 0.2946 0.0
C830 C 0.08034 0.5135 0.28056 0.0
C831 C 0.19073 0.58786 0.32181 0.0
C832 C 0.14988 0.56025 0.33014 0.0
C833 C 0.11466 0.53656 0.31643 0.0
C834 C 0.14345 0.55424 0.35305 0.0
C835 C 0.23005 0.61331 0.33579 0.0
C836 C 0.13018 0.52113 0.36177 0.0
C837 C 0.12441 0.51512 0.38334 0.0
C838 C 0.13167 0.5421 0.39664 0.0
C839 C 0.14458 0.57516 0.38783 0.0
C840 C 0.1502 0.5811 0.3662 0.0
H841 H 0.2606 0.62732 0.32715 0.0
H842 H 0.22825 0.6343 0.3421 0.0
H843 H 0.23134 0.5985 0.34928 0.0
H844 H 0.12482 0.50005 0.35189 0.0
H845 H 0.11497 0.48955 0.38966 0.0
loop_
_geom_bond_atom_site_label_1
_geom_bond_atom_site_label_2
_geom_bond_distance
_geom_bond_site_symmetry_2
_ccdc_geom_bond_type
Ho0 C3 2.811 . S
Ho0 O20 2.322 . S
Ho0 O22 2.378 . S
Ho0 O23 2.524 . S
Ho0 O24 2.381 . S
Ho0 O25 2.669 1_455 S
Ho0 O27 2.346 1_455 S
Ho0 O31 2.305 . S
Ho1 C12 2.811 . S
Ho1 O21 2.346 1_655 S
Ho1 O25 2.305 . S
Ho1 O26 2.322 . S
Ho1 O28 2.378 . S
Ho1 O29 2.524 . S
Ho1 O30 2.381 . S
Ho1 O31 2.669 1_655 S
C2 O20 1.259 . S
C2 O21 1.268 . S
C3 Ho0 2.811 . S
C3 C4 1.488 . S
C3 O22 1.215 . S
C3 O23 1.289 . S
C4 C3 1.488 . S
C4 C5 1.348 . S
C4 C9 1.413 . S
C5 C4 1.348 . S
C5 C6 1.442 . S
C5 H32 0.930 . S
C6 C5 1.442 . S
C6 C7 1.381 . S
C6 H33 0.931 . S
C7 C6 1.381 . S
C7 C8 1.321 . S
C8 C7 1.321 . S
C8 C9 1.403 . S
C8 H34 0.934 . S
C9 C4 1.413 . S
C9 C8 1.403 . S
C9 H35 0.930 . S
C10 O24 1.275 . S
C10 O25 1.256 1_455 S
C11 O26 1.259 . S
C11 O27 1.268 . S
C12 Ho1 2.811 . S
C12 C13 1.488 . S
C12 O28 1.215 . S
C12 O29 1.289 . S
C13 C12 1.488 . S
C13 C14 1.348 . S
C13 C18 1.413 . S
C14 C13 1.348 . S
C14 C15 1.442 . S
C14 H36 0.930 . S
C15 C14 1.442 . S
C15 C16 1.381 . S
C15 H37 0.931 . S
C16 C15 1.381 . S
C16 C17 1.321 . S
C17 C16 1.321 . S
C17 C18 1.403 . S
C17 H38 0.934 . S
C18 C13 1.413 . S
C18 C17 1.403 . S
C18 H39 0.930 . S
C19 O30 1.275 1_455 S
C19 O31 1.256 . S
O20 Ho0 2.322 . S
O20 C2 1.259 . S
O21 Ho1 2.346 1_455 S
O21 C2 1.268 . S
O22 Ho0 2.378 . S
O22 C3 1.215 . S
O23 Ho0 2.524 . S
O23 C3 1.289 . S
O24 Ho0 2.381 . S
O24 C10 1.275 . S
O25 Ho0 2.669 1_655 S
O25 Ho1 2.305 . S
O25 C10 1.256 1_655 S
O26 Ho1 2.322 . S
O26 C11 1.259 . S
O27 Ho0 2.346 1_655 S
O27 C11 1.268 . S
O28 Ho1 2.378 . S
O28 C12 1.215 . S
O29 Ho1 2.524 . S
O29 C12 1.289 . S
O30 Ho1 2.381 . S
O30 C19 1.275 1_655 S
O31 Ho0 2.305 . S
O31 Ho1 2.669 1_455 S
O31 C19 1.256 . S
H32 C5 0.930 . S
H33 C6 0.931 . S
H34 C8 0.934 . S
H35 C9 0.930 . S
H36 C14 0.930 . S
H37 C15 0.931 . S
H38 C17 0.934 . S
H39 C18 0.930 . S
Ho40 C43 2.811 1_545 S
Ho40 O60 2.322 1_545 S
Ho40 O62 2.378 1_545 S
Ho40 O63 2.524 1_545 S
Ho40 O64 2.381 . S
Ho40 O65 2.669 . S
Ho40 O67 2.346 . S
Ho40 O71 2.305 . S
Ho41 C52 2.811 . S
Ho41 O61 2.346 1_545 S
Ho41 O65 2.305 . S
Ho41 O66 2.322 . S
Ho41 O68 2.378 . S
Ho41 O69 2.524 . S
Ho41 O70 2.381 . S
Ho41 O71 2.669 . S
C42 O60 1.259 . S
C42 O61 1.268 . S
C43 Ho40 2.811 1_565 S
C43 C44 1.488 . S
C43 O62 1.215 . S
C43 O63 1.289 . S
C44 C43 1.488 . S
C44 C45 1.348 . S
C44 C49 1.413 . S
C45 C44 1.348 . S
C45 C46 1.442 . S
C45 H72 0.930 . S
C46 C45 1.442 . S
C46 C47 1.381 . S
C46 H73 0.931 . S
C47 C46 1.381 . S
C47 C48 1.321 . S
C48 C47 1.321 . S
C48 C49 1.403 . S
C48 H74 0.934 . S
C49 C44 1.413 . S
C49 C48 1.403 . S
C49 H75 0.930 . S
C50 O64 1.275 . S
C50 O65 1.256 . S
C51 O66 1.259 . S
C51 O67 1.268 . S
C52 Ho41 2.811 . S
C52 C53 1.488 . S
C52 O68 1.215 . S
C52 O69 1.289 . S
C53 C52 1.488 . S
C53 C54 1.348 . S
C53 C58 1.413 . S
C54 C53 1.348 . S
C54 C55 1.442 . S
C54 H76 0.930 . S
C55 C54 1.442 . S
C55 C56 1.381 . S
C55 H77 0.931 . S
C56 C55 1.381 . S
C56 C57 1.321 . S
C57 C56 1.321 . S
C57 C58 1.403 . S
C57 H78 0.934 . S
C58 C53 1.413 . S
C58 C57 1.403 . S
C58 H79 0.930 . S
C59 O70 1.275 . S
C59 O71 1.256 . S
O60 Ho40 2.322 1_565 S
O60 C42 1.259 . S
O61 Ho41 2.346 1_565 S
O61 C42 1.268 . S
O62 Ho40 2.378 1_565 S
O62 C43 1.215 . S
O63 Ho40 2.524 1_565 S
O63 C43 1.289 . S
O64 Ho40 2.381 . S
O64 C50 1.275 . S
O65 Ho40 2.669 . S
O65 Ho41 2.305 . S
O65 C50 1.256 . S
O66 Ho41 2.322 . S
O66 C51 1.259 . S
O67 Ho40 2.346 . S
O67 C51 1.268 . S
O68 Ho41 2.378 . S
O68 C52 1.215 . S
O69 Ho41 2.524 . S
O69 C52 1.289 . S
O70 Ho41 2.381 . S
O70 C59 1.275 . S
O71 Ho40 2.305 . S
O71 Ho41 2.669 . S
O71 C59 1.256 . S
H72 C45 0.930 . S
H73 C46 0.931 . S
H74 C48 0.934 . S
H75 C49 0.930 . S
H76 C54 0.930 . S
H77 C55 0.931 . S
H78 C57 0.934 . S
H79 C58 0.930 . S
Ho80 C83 2.811 . S
Ho80 O100 2.322 . S
Ho80 O102 2.378 . S
Ho80 O103 2.524 . S
Ho80 O104 2.381 . S
Ho80 O105 2.669 . S
Ho80 O107 2.346 . S
Ho80 O111 2.305 . S
Ho81 C92 2.811 . S
Ho81 O101 2.346 . S
Ho81 O105 2.305 . S
Ho81 O106 2.322 . S
Ho81 O108 2.378 . S
Ho81 O109 2.524 . S
Ho81 O110 2.381 . S
Ho81 O111 2.669 . S
C82 O100 1.259 . S
C82 O101 1.268 . S
C83 Ho80 2.811 . S
C83 C84 1.488 . S
C83 O102 1.215 . S
C83 O103 1.289 . S
C84 C83 1.488 . S
C84 C85 1.348 . S
C84 C89 1.413 . S
C85 C84 1.348 . S
C85 C86 1.442 . S
C85 H112 0.930 . S
C86 C85 1.442 . S
C86 C87 1.381 . S
C86 H113 0.931 . S
C87 C86 1.381 . S
C87 C88 1.321 . S
C88 C87 1.321 . S
C88 C89 1.403 . S
C88 H114 0.934 . S
C89 C84 1.413 . S
C89 C88 1.403 . S
C89 H115 0.930 . S
C90 O104 1.275 . S
C90 O105 1.256 . S
C91 O106 1.259 . S
C91 O107 1.268 . S
C92 Ho81 2.811 . S
C92 C93 1.488 . S
C92 O108 1.215 . S
C92 O109 1.289 . S
C93 C92 1.488 . S
C93 C94 1.348 . S
C93 C98 1.413 . S
C94 C93 1.348 . S
C94 C95 1.442 . S
C94 H116 0.930 . S
C95 C94 1.442 . S
C95 C96 1.381 . S
C95 H117 0.931 . S
C96 C95 1.381 . S
C96 C97 1.321 . S
C97 C96 1.321 . S
C97 C98 1.403 . S
C97 H118 0.934 . S
C98 C93 1.413 . S
C98 C97 1.403 . S
C98 H119 0.930 . S
C99 O110 1.275 . S
C99 O111 1.256 . S
O100 Ho80 2.322 . S
O100 C82 1.259 . S
O101 Ho81 2.346 . S
O101 C82 1.268 . S
O102 Ho80 2.378 . S
O102 C83 1.215 . S
O103 Ho80 2.524 . S
O103 C83 1.289 . S
O104 Ho80 2.381 . S
O104 C90 1.275 . S
O105 Ho80 2.669 . S
O105 Ho81 2.305 . S
O105 C90 1.256 . S
O106 Ho81 2.322 . S
O106 C91 1.259 . S
O107 Ho80 2.346 . S
O107 C91 1.268 . S
O108 Ho81 2.378 . S
O108 C92 1.215 . S
O109 Ho81 2.524 . S
O109 C92 1.289 . S
O110 Ho81 2.381 . S
O110 C99 1.275 . S
O111 Ho80 2.305 . S
O111 Ho81 2.669 . S
O111 C99 1.256 . S
H112 C85 0.930 . S
H113 C86 0.931 . S
H114 C88 0.934 . S
H115 C89 0.930 . S
H116 C94 0.930 . S
H117 C95 0.931 . S
H118 C97 0.934 . S
H119 C98 0.930 . S
H120 C127 0.929 . S
H121 C130 0.930 . S
H122 C132 0.929 . S
H123 C124 0.969 . S
C124 H123 0.969 . S
C124 O125 1.550 . S
C124 H126 0.973 . S
O125 C124 1.550 . S
O125 C131 1.412 . S
H126 C124 0.973 . S
C127 H120 0.929 . S
C127 C128 1.400 . S
C127 C129 1.364 . S
C128 C127 1.400 . S
C128 C132 1.377 . S
C129 C127 1.364 . S
C129 C130 1.374 1_545 S
C130 H121 0.930 . S
C130 C129 1.374 1_565 S
C130 C131 1.383 . S
C131 O125 1.412 . S
C131 C130 1.383 . S
C131 C132 1.394 1_565 S
C132 H122 0.929 . S
C132 C128 1.377 . S
C132 C131 1.394 1_545 S
H133 C140 0.929 . S
H134 C143 0.930 . S
H135 C145 0.929 . S
H136 C137 0.969 . S
C137 H136 0.969 . S
C137 O138 1.550 . S
C137 H139 0.973 . S
O138 C137 1.550 . S
O138 C144 1.412 . S
H139 C137 0.973 . S
C140 H133 0.929 . S
C140 C141 1.400 . S
C140 C142 1.364 . S
C141 C140 1.400 . S
C141 C145 1.377 . S
C142 C140 1.364 . S
C142 C143 1.374 . S
C143 H134 0.930 . S
C143 C142 1.374 . S
C143 C144 1.383 . S
C144 O138 1.412 . S
C144 C143 1.383 . S
C144 C145 1.394 . S
C145 H135 0.929 . S
C145 C141 1.377 . S
C145 C144 1.394 . S
H146 C153 0.929 . S
H147 C156 0.930 . S
H148 C158 0.929 . S
H149 C150 0.969 . S
C150 H149 0.969 . S
C150 O151 1.550 . S
C150 H152 0.973 . S
O151 C150 1.550 . S
O151 C157 1.412 . S
H152 C150 0.973 . S
C153 H146 0.929 . S
C153 C154 1.400 . S
C153 C155 1.364 . S
C154 C153 1.400 . S
C154 C158 1.377 . S
C155 C153 1.364 . S
C155 C156 1.374 . S
C156 H147 0.930 . S
C156 C155 1.374 . S
C156 C157 1.383 . S
C157 O151 1.412 . S
C157 C156 1.383 . S
C157 C158 1.394 . S
C158 H148 0.929 . S
C158 C154 1.377 . S
C158 C157 1.394 . S
H159 C166 0.934 . S
H160 C169 0.930 . S
H161 C171 0.929 . S
H162 C163 0.969 . S
C163 H162 0.969 . S
C163 O164 1.550 . S
C163 H165 0.973 . S
O164 C163 1.550 . S
O164 C170 1.412 . S
H165 C163 0.973 . S
C166 H159 0.934 . S
C166 C167 1.400 . S
C166 C168 1.358 1_655 S
C167 C166 1.400 . S
C167 C171 1.377 1_655 S
C168 C166 1.358 1_455 S
C168 C169 1.374 . S
C169 H160 0.930 . S
C169 C168 1.374 . S
C169 C170 1.383 . S
C170 O164 1.412 . S
C170 C169 1.383 . S
C170 C171 1.394 . S
C171 H161 0.929 . S
C171 C167 1.377 1_455 S
C171 C170 1.394 . S
H172 C179 0.929 . S
H173 C182 0.930 . S
H174 C184 0.929 . S
H175 C176 0.969 . S
C176 H175 0.969 . S
C176 O177 1.550 . S
C176 H178 0.973 . S
O177 C176 1.550 . S
O177 C183 1.412 . S
H178 C176 0.973 . S
C179 H172 0.929 . S
C179 C180 1.400 . S
C179 C181 1.364 1_565 S
C180 C179 1.400 . S
C180 C184 1.377 1_565 S
C181 C179 1.364 1_545 S
C181 C182 1.374 . S
C182 H173 0.930 . S
C182 C181 1.374 . S
C182 C183 1.383 . S
C183 O177 1.412 . S
C183 C182 1.383 . S
C183 C184 1.394 . S
C184 H174 0.929 . S
C184 C180 1.377 1_545 S
C184 C183 1.394 . S
H185 C192 0.929 . S
H186 C195 0.930 . S
H187 C197 0.929 . S
H188 C189 0.969 . S
C189 H188 0.969 . S
C189 O190 1.550 . S
C189 H191 0.973 . S
O190 C189 1.550 . S
O190 C196 1.412 . S
H191 C189 0.973 . S
C192 H185 0.929 . S
C192 C193 1.400 . S
C192 C194 1.364 . S
C193 C192 1.400 . S
C193 C197 1.377 . S
C194 C192 1.364 . S
C194 C195 1.374 . S
C195 H186 0.930 . S
C195 C194 1.374 . S
C195 C196 1.383 . S
C196 O190 1.412 . S
C196 C195 1.383 . S
C196 C197 1.394 . S
C197 H187 0.929 . S
C197 C193 1.377 . S
C197 C196 1.394 . S
H198 C206 0.929 . S
H199 C208 0.930 . S
H200 C210 0.930 . S
H201 C213 0.929 . S
H202 C216 0.930 . S
H203 C218 0.960 . S
H204 C218 0.960 . S
H205 C218 0.960 . S
C206 H198 0.929 . S
C206 C207 1.377 . S
C206 C208 1.384 . S
C207 C206 1.377 . S
C207 C213 1.390 . S
C208 H199 0.930 . S
C208 C206 1.384 . S
C208 C209 1.372 . S
C209 C208 1.372 . S
C209 C210 1.400 . S
C209 C214 1.490 . S
C210 H200 0.930 . S
C210 C209 1.400 . S
C210 C213 1.386 . S
H211 C227 0.930 . S
H212 C228 0.931 . S
C213 H201 0.929 . S
C213 C207 1.390 . S
C213 C210 1.386 . S
C214 C209 1.490 . S
C214 C216 1.395 . S
C214 C217 1.403 . S
H215 C221 0.930 . S
C216 H202 0.930 . S
C216 C214 1.395 . S
C216 C219 1.403 . S
C217 C214 1.403 . S
C217 C218 1.524 . S
C217 C221 1.400 . S
C218 H203 0.960 . S
C218 H204 0.960 . S
C218 H205 0.960 . S
C218 C217 1.524 . S
C219 C216 1.403 . S
C219 C220 1.392 . S
C219 C223 1.495 . S
C220 C219 1.392 . S
C220 C221 1.385 . S
C220 C222 1.478 . S
C221 H215 0.930 . S
C221 C217 1.400 . S
C221 C220 1.385 . S
C222 C220 1.478 . S
C222 C224 1.381 . S
C222 C228 1.383 . S
C223 C219 1.495 . S
C223 H229 0.959 . S
C223 H230 0.961 . S
C223 H231 0.960 . S
C224 C222 1.381 . S
C224 C225 1.394 . S
C224 H232 0.930 . S
C225 C224 1.394 . S
C225 C226 1.383 . S
C225 H233 0.929 . S
C226 C225 1.383 . S
C226 C227 1.377 . S
C227 H211 0.930 . S
C227 C226 1.377 . S
C227 C228 1.379 . S
C228 H212 0.931 . S
C228 C222 1.383 . S
C228 C227 1.379 . S
H229 C223 0.959 . S
H230 C223 0.961 . S
H231 C223 0.960 . S
H232 C224 0.930 . S
H233 C225 0.929 . S
H234 C242 0.929 . S
H235 C244 0.930 . S
H236 C246 0.930 . S
H237 C249 0.929 . S
H238 C252 0.930 . S
H239 C254 0.960 . S
H240 C254 0.960 . S
H241 C254 0.960 . S
C242 H234 0.929 . S
C242 C243 1.377 . S
C242 C244 1.384 . S
C243 C242 1.377 . S
C243 C249 1.390 . S
C244 H235 0.930 . S
C244 C242 1.384 . S
C244 C245 1.372 . S
C245 C244 1.372 . S
C245 C246 1.400 . S
C245 C250 1.490 . S
C246 H236 0.930 . S
C246 C245 1.400 . S
C246 C249 1.386 . S
H247 C263 0.930 . S
H248 C264 0.931 . S
C249 H237 0.929 . S
C249 C243 1.390 . S
C249 C246 1.386 . S
C250 C245 1.490 . S
C250 C252 1.395 . S
C250 C253 1.403 . S
H251 C257 0.930 . S
C252 H238 0.930 . S
C252 C250 1.395 . S
C252 C255 1.403 . S
C253 C250 1.403 . S
C253 C254 1.524 . S
C253 C257 1.400 . S
C254 H239 0.960 . S
C254 H240 0.960 . S
C254 H241 0.960 . S
C254 C253 1.524 . S
C255 C252 1.403 . S
C255 C256 1.392 . S
C255 C259 1.495 . S
C256 C255 1.392 . S
C256 C257 1.385 . S
C256 C258 1.478 . S
C257 H251 0.930 . S
C257 C253 1.400 . S
C257 C256 1.385 . S
C258 C256 1.478 . S
C258 C260 1.381 . S
C258 C264 1.383 . S
C259 C255 1.495 . S
C259 H265 0.959 . S
C259 H266 0.961 . S
C259 H267 0.960 . S
C260 C258 1.381 . S
C260 C261 1.394 . S
C260 H268 0.930 . S
C261 C260 1.394 . S
C261 C262 1.383 . S
C261 H269 0.929 . S
C262 C261 1.383 . S
C262 C263 1.377 . S
C263 H247 0.930 . S
C263 C262 1.377 . S
C263 C264 1.379 . S
C264 H248 0.931 . S
C264 C258 1.383 . S
C264 C263 1.379 . S
H265 C259 0.959 . S
H266 C259 0.961 . S
H267 C259 0.960 . S
H268 C260 0.930 . S
H269 C261 0.929 . S
H270 C278 0.929 . S
H271 C280 0.930 . S
H272 C282 0.930 . S
H273 C285 0.929 . S
H274 C288 0.930 . S
H275 C290 0.960 . S
H276 C290 0.960 . S
H277 C290 0.960 . S
C278 H270 0.929 . S
C278 C279 1.377 . S
C278 C280 1.384 . S
C279 C278 1.377 . S
C279 C285 1.390 . S
C280 H271 0.930 . S
C280 C278 1.384 . S
C280 C281 1.372 . S
C281 C280 1.372 . S
C281 C282 1.400 . S
C281 C286 1.490 . S
C282 H272 0.930 . S
C282 C281 1.400 . S
C282 C285 1.386 . S
H283 C299 0.930 . S
H284 C300 0.931 . S
C285 H273 0.929 . S
C285 C279 1.390 . S
C285 C282 1.386 . S
C286 C281 1.490 . S
C286 C288 1.395 . S
C286 C289 1.403 . S
H287 C293 0.930 . S
C288 H274 0.930 . S
C288 C286 1.395 . S
C288 C291 1.403 . S
C289 C286 1.403 . S
C289 C290 1.524 . S
C289 C293 1.400 . S
C290 H275 0.960 . S
C290 H276 0.960 . S
C290 H277 0.960 . S
C290 C289 1.524 . S
C291 C288 1.403 . S
C291 C292 1.392 . S
C291 C295 1.495 . S
C292 C291 1.392 . S
C292 C293 1.385 . S
C292 C294 1.478 . S
C293 H287 0.930 . S
C293 C289 1.400 . S
C293 C292 1.385 . S
C294 C292 1.478 . S
C294 C296 1.381 . S
C294 C300 1.383 . S
C295 C291 1.495 . S
C295 H301 0.959 . S
C295 H302 0.961 . S
C295 H303 0.960 . S
C296 C294 1.381 . S
C296 C297 1.394 . S
C296 H304 0.930 . S
C297 C296 1.394 . S
C297 C298 1.383 . S
C297 H305 0.929 1_565 S
C298 C297 1.383 . S
C298 C299 1.377 . S
C299 H283 0.930 . S
C299 C298 1.377 . S
C299 C300 1.379 . S
C300 H284 0.931 . S
C300 C294 1.383 . S
C300 C299 1.379 . S
H301 C295 0.959 . S
H302 C295 0.961 . S
H303 C295 0.960 . S
H304 C296 0.930 . S
H305 C297 0.929 1_545 S
H306 C314 0.929 . S
H307 C316 0.930 . S
H308 C318 0.930 . S
H309 C321 0.929 . S
H310 C324 0.930 . S
H311 C326 0.960 . S
H312 C326 0.960 . S
H313 C326 0.960 . S
C314 H306 0.929 . S
C314 C315 1.377 . S
C314 C316 1.384 . S
C315 C314 1.377 . S
C315 C321 1.390 . S
C316 H307 0.930 . S
C316 C314 1.384 . S
C316 C317 1.372 . S
C317 C316 1.372 . S
C317 C318 1.400 . S
C317 C322 1.490 . S
C318 H308 0.930 . S
C318 C317 1.400 . S
C318 C321 1.386 . S
H319 C335 0.930 . S
H320 C336 0.931 . S
C321 H309 0.929 . S
C321 C315 1.390 . S
C321 C318 1.386 . S
C322 C317 1.490 . S
C322 C324 1.395 . S
C322 C325 1.403 . S
H323 C329 0.930 . S
C324 H310 0.930 . S
C324 C322 1.395 . S
C324 C327 1.403 . S
C325 C322 1.403 . S
C325 C326 1.524 . S
C325 C329 1.400 . S
C326 H311 0.960 . S
C326 H312 0.960 . S
C326 H313 0.960 . S
C326 C325 1.524 . S
C327 C324 1.403 . S
C327 C328 1.392 . S
C327 C331 1.495 . S
C328 C327 1.392 . S
C328 C329 1.385 . S
C328 C330 1.478 . S
C329 H323 0.930 . S
C329 C325 1.400 . S
C329 C328 1.385 . S
C330 C328 1.478 . S
C330 C332 1.381 . S
C330 C336 1.383 . S
C331 C327 1.495 . S
C331 H337 0.959 . S
C331 H338 0.961 . S
C331 H339 0.960 . S
C332 C330 1.381 . S
C332 C333 1.394 . S
C332 H340 0.930 . S
C333 C332 1.394 . S
C333 C334 1.383 . S
C333 H341 0.929 . S
C334 C333 1.383 . S
C334 C335 1.377 . S
C335 H319 0.930 . S
C335 C334 1.377 . S
C335 C336 1.379 . S
C336 H320 0.931 . S
C336 C330 1.383 . S
C336 C335 1.379 . S
H337 C331 0.959 . S
H338 C331 0.961 . S
H339 C331 0.960 . S
H340 C332 0.930 . S
H341 C333 0.929 . S
H342 C350 0.929 . S
H343 C352 0.930 . S
H344 C354 0.930 . S
H345 C357 0.929 . S
H346 C360 0.930 . S
H347 C362 0.960 . S
H348 C362 0.960 . S
H349 C362 0.960 . S
C350 H342 0.929 . S
C350 C351 1.377 . S
C350 C352 1.384 . S
C351 C350 1.377 . S
C351 C357 1.390 . S
C352 H343 0.930 . S
C352 C350 1.384 . S
C352 C353 1.372 . S
C353 C352 1.372 . S
C353 C354 1.400 . S
C353 C358 1.490 . S
C354 H344 0.930 . S
C354 C353 1.400 . S
C354 C357 1.386 . S
H355 C371 0.930 . S
H356 C372 0.931 . S
C357 H345 0.929 . S
C357 C351 1.390 . S
C357 C354 1.386 . S
C358 C353 1.490 . S
C358 C360 1.395 . S
C358 C361 1.403 . S
H359 C365 0.930 . S
C360 H346 0.930 . S
C360 C358 1.395 . S
C360 C363 1.403 . S
C361 C358 1.403 . S
C361 C362 1.524 . S
C361 C365 1.400 . S
C362 H347 0.960 . S
C362 H348 0.960 . S
C362 H349 0.960 . S
C362 C361 1.524 . S
C363 C360 1.403 . S
C363 C364 1.392 . S
C363 C367 1.495 . S
C364 C363 1.392 . S
C364 C365 1.385 . S
C364 C366 1.478 . S
C365 H359 0.930 . S
C365 C361 1.400 . S
C365 C364 1.385 . S
C366 C364 1.478 . S
C366 C368 1.381 . S
C366 C372 1.383 . S
C367 C363 1.495 . S
C367 H373 0.959 . S
C367 H374 0.961 . S
C367 H375 0.960 . S
C368 C366 1.381 . S
C368 C369 1.394 . S
C368 H376 0.930 . S
C369 C368 1.394 . S
C369 C370 1.383 . S
C369 H377 0.929 . S
C370 C369 1.383 . S
C370 C371 1.377 . S
C371 H355 0.930 . S
C371 C370 1.377 . S
C371 C372 1.379 . S
C372 H356 0.931 . S
C372 C366 1.383 . S
C372 C371 1.379 . S
H373 C367 0.959 . S
H374 C367 0.961 . S
H375 C367 0.960 . S
H376 C368 0.930 . S
H377 C369 0.929 . S
H378 C386 0.929 . S
H379 C388 0.930 . S
H380 C390 0.930 . S
H381 C393 0.929 . S
H382 C396 0.930 . S
H383 C398 0.960 . S
H384 C398 0.960 . S
H385 C398 0.960 . S
C386 H378 0.929 . S
C386 C387 1.377 . S
C386 C388 1.384 . S
C387 C386 1.377 . S
C387 C393 1.390 . S
C388 H379 0.930 . S
C388 C386 1.384 . S
C388 C389 1.372 . S
C389 C388 1.372 . S
C389 C390 1.400 . S
C389 C394 1.490 . S
C390 H380 0.930 . S
C390 C389 1.400 . S
C390 C393 1.386 . S
H391 C407 0.930 . S
H392 C408 0.931 . S
C393 H381 0.929 . S
C393 C387 1.390 . S
C393 C390 1.386 . S
C394 C389 1.490 . S
C394 C396 1.395 . S
C394 C397 1.403 . S
H395 C401 0.930 . S
C396 H382 0.930 . S
C396 C394 1.395 . S
C396 C399 1.403 . S
C397 C394 1.403 . S
C397 C398 1.524 . S
C397 C401 1.400 . S
C398 H383 0.960 . S
C398 H384 0.960 . S
C398 H385 0.960 . S
C398 C397 1.524 . S
C399 C396 1.403 . S
C399 C400 1.392 . S
C399 C403 1.495 . S
C400 C399 1.392 . S
C400 C401 1.385 . S
C400 C402 1.478 . S
C401 H395 0.930 . S
C401 C397 1.400 . S
C401 C400 1.385 . S
C402 C400 1.478 . S
C402 C404 1.381 . S
C402 C408 1.383 . S
C403 C399 1.495 . S
C403 H409 0.959 . S
C403 H410 0.961 . S
C403 H411 0.960 . S
C404 C402 1.381 . S
C404 C405 1.394 . S
C404 H412 0.930 . S
C405 C404 1.394 . S
C405 C406 1.383 . S
C405 H413 0.929 . S
C406 C405 1.383 . S
C406 C407 1.377 . S
C407 H391 0.930 . S
C407 C406 1.377 . S
C407 C408 1.379 . S
C408 H392 0.931 . S
C408 C402 1.383 . S
C408 C407 1.379 . S
H409 C403 0.959 . S
H410 C403 0.961 . S
H411 C403 0.960 . S
H412 C404 0.930 . S
H413 C405 0.929 . S
H414 C422 0.929 . S
H415 C424 0.930 . S
H416 C426 0.930 . S
H417 C429 0.929 . S
H418 C432 0.930 . S
H419 C434 0.960 . S
H420 C434 0.960 . S
H421 C434 0.960 . S
C422 H414 0.929 . S
C422 C423 1.377 . S
C422 C424 1.384 . S
C423 C422 1.377 . S
C423 C429 1.390 . S
C424 H415 0.930 . S
C424 C422 1.384 . S
C424 C425 1.372 . S
C425 C424 1.372 . S
C425 C426 1.400 . S
C425 C430 1.490 . S
C426 H416 0.930 . S
C426 C425 1.400 . S
C426 C429 1.386 . S
H427 C443 0.930 . S
H428 C444 0.931 . S
C429 H417 0.929 . S
C429 C423 1.390 . S
C429 C426 1.386 . S
C430 C425 1.490 . S
C430 C432 1.395 . S
C430 C433 1.403 . S
H431 C437 0.930 . S
C432 H418 0.930 . S
C432 C430 1.395 . S
C432 C435 1.403 . S
C433 C430 1.403 . S
C433 C434 1.524 . S
C433 C437 1.400 . S
C434 H419 0.960 . S
C434 H420 0.960 . S
C434 H421 0.960 . S
C434 C433 1.524 . S
C435 C432 1.403 . S
C435 C436 1.392 . S
C435 C439 1.495 . S
C436 C435 1.392 . S
C436 C437 1.385 . S
C436 C438 1.478 . S
C437 H431 0.930 . S
C437 C433 1.400 . S
C437 C436 1.385 . S
C438 C436 1.478 . S
C438 C440 1.381 . S
C438 C444 1.383 . S
C439 C435 1.495 . S
C439 H445 0.959 . S
C439 H446 0.961 . S
C439 H447 0.960 . S
C440 C438 1.381 . S
C440 C441 1.394 . S
C440 H448 0.930 . S
C441 C440 1.394 . S
C441 C442 1.383 . S
C441 H449 0.929 . S
C442 C441 1.383 . S
C442 C443 1.377 . S
C443 H427 0.930 . S
C443 C442 1.377 . S
C443 C444 1.379 . S
C444 H428 0.931 . S
C444 C438 1.383 . S
C444 C443 1.379 . S
H445 C439 0.959 . S
H446 C439 0.961 . S
H447 C439 0.960 . S
H448 C440 0.930 . S
H449 C441 0.929 . S
H450 C458 0.929 . S
H451 C460 0.930 . S
H452 C462 0.930 . S
H453 C465 0.929 . S
H454 C468 0.930 . S
H455 C470 0.960 . S
H456 C470 0.960 . S
H457 C470 0.960 . S
C458 H450 0.929 . S
C458 C459 1.377 . S
C458 C460 1.384 . S
C459 C458 1.377 . S
C459 C465 1.390 . S
C460 H451 0.930 . S
C460 C458 1.384 . S
C460 C461 1.372 . S
C461 C460 1.372 . S
C461 C462 1.400 . S
C461 C466 1.490 . S
C462 H452 0.930 . S
C462 C461 1.400 . S
C462 C465 1.386 . S
H463 C479 0.930 . S
H464 C480 0.931 . S
C465 H453 0.929 . S
C465 C459 1.390 . S
C465 C462 1.386 . S
C466 C461 1.490 . S
C466 C468 1.395 . S
C466 C469 1.403 . S
H467 C473 0.930 . S
C468 H454 0.930 . S
C468 C466 1.395 . S
C468 C471 1.403 . S
C469 C466 1.403 . S
C469 C470 1.524 . S
C469 C473 1.400 . S
C470 H455 0.960 . S
C470 H456 0.960 . S
C470 H457 0.960 . S
C470 C469 1.524 . S
C471 C468 1.403 . S
C471 C472 1.392 . S
C471 C475 1.495 . S
C472 C471 1.392 . S
C472 C473 1.385 . S
C472 C474 1.478 . S
C473 H467 0.930 . S
C473 C469 1.400 . S
C473 C472 1.385 . S
C474 C472 1.478 . S
C474 C476 1.381 . S
C474 C480 1.383 . S
C475 C471 1.495 . S
C475 H481 0.959 . S
C475 H482 0.961 . S
C475 H483 0.960 . S
C476 C474 1.381 . S
C476 C477 1.394 . S
C476 H484 0.930 . S
C477 C476 1.394 . S
C477 C478 1.383 . S
C477 H485 0.929 . S
C478 C477 1.383 . S
C478 C479 1.377 . S
C479 H463 0.930 . S
C479 C478 1.377 . S
C479 C480 1.379 . S
C480 H464 0.931 . S
C480 C474 1.383 . S
C480 C479 1.379 . S
H481 C475 0.959 . S
H482 C475 0.961 . S
H483 C475 0.960 . S
H484 C476 0.930 . S
H485 C477 0.929 . S
H486 C494 0.929 . S
H487 C496 0.930 . S
H488 C498 0.930 . S
H489 C501 0.929 . S
H490 C504 0.930 . S
H491 C506 0.960 . S
H492 C506 0.960 . S
H493 C506 0.960 . S
C494 H486 0.929 . S
C494 C495 1.377 . S
C494 C496 1.384 . S
C495 C494 1.377 . S
C495 C501 1.390 . S
C496 H487 0.930 . S
C496 C494 1.384 . S
C496 C497 1.372 . S
C497 C496 1.372 . S
C497 C498 1.400 . S
C497 C502 1.490 . S
C498 H488 0.930 . S
C498 C497 1.400 . S
C498 C501 1.386 . S
H499 C515 0.930 . S
H500 C516 0.931 . S
C501 H489 0.929 . S
C501 C495 1.390 . S
C501 C498 1.386 . S
C502 C497 1.490 . S
C502 C504 1.395 . S
C502 C505 1.403 . S
H503 C509 0.930 . S
C504 H490 0.930 . S
C504 C502 1.395 . S
C504 C507 1.403 . S
C505 C502 1.403 . S
C505 C506 1.524 . S
C505 C509 1.400 . S
C506 H491 0.960 . S
C506 H492 0.960 . S
C506 H493 0.960 . S
C506 C505 1.524 . S
C507 C504 1.403 . S
C507 C508 1.392 . S
C507 C511 1.495 . S
C508 C507 1.392 . S
C508 C509 1.385 . S
C508 C510 1.478 . S
C509 H503 0.930 . S
C509 C505 1.400 . S
C509 C508 1.385 . S
C510 C508 1.478 . S
C510 C512 1.381 . S
C510 C516 1.383 . S
C511 C507 1.495 . S
C511 H517 0.959 . S
C511 H518 0.961 . S
C511 H519 0.960 . S
C512 C510 1.381 . S
C512 C513 1.394 . S
C512 H520 0.930 . S
C513 C512 1.394 . S
C513 C514 1.383 . S
C513 H521 0.929 . S
C514 C513 1.383 . S
C514 C515 1.377 . S
C515 H499 0.930 . S
C515 C514 1.377 . S
C515 C516 1.379 . S
C516 H500 0.931 . S
C516 C510 1.383 . S
C516 C515 1.379 . S
H517 C511 0.959 . S
H518 C511 0.961 . S
H519 C511 0.960 . S
H520 C512 0.930 . S
H521 C513 0.929 . S
H522 C530 0.929 . S
H523 C532 0.930 . S
H524 C534 0.930 . S
H525 C537 0.929 . S
H526 C540 0.930 . S
H527 C542 0.960 . S
H528 C542 0.960 . S
H529 C542 0.960 . S
C530 H522 0.929 . S
C530 C531 1.377 . S
C530 C532 1.384 . S
C531 C530 1.377 . S
C531 C537 1.390 . S
C532 H523 0.930 . S
C532 C530 1.384 . S
C532 C533 1.372 . S
C533 C532 1.372 . S
C533 C534 1.400 . S
C533 C538 1.490 . S
C534 H524 0.930 . S
C534 C533 1.400 . S
C534 C537 1.386 . S
H535 C551 0.930 . S
H536 C552 0.931 . S
C537 H525 0.929 . S
C537 C531 1.390 . S
C537 C534 1.386 . S
C538 C533 1.490 . S
C538 C540 1.395 . S
C538 C541 1.403 . S
H539 C545 0.930 . S
C540 H526 0.930 . S
C540 C538 1.395 . S
C540 C543 1.403 . S
C541 C538 1.403 . S
C541 C542 1.524 . S
C541 C545 1.400 . S
C542 H527 0.960 . S
C542 H528 0.960 . S
C542 H529 0.960 . S
C542 C541 1.524 . S
C543 C540 1.403 . S
C543 C544 1.392 . S
C543 C547 1.495 . S
C544 C543 1.392 . S
C544 C545 1.385 . S
C544 C546 1.478 . S
C545 H539 0.930 . S
C545 C541 1.400 . S
C545 C544 1.385 . S
C546 C544 1.478 . S
C546 C548 1.381 . S
C546 C552 1.383 . S
C547 C543 1.495 . S
C547 H553 0.959 . S
C547 H554 0.961 . S
C547 H555 0.960 . S
C548 C546 1.381 . S
C548 C549 1.394 . S
C548 H556 0.930 . S
C549 C548 1.394 . S
C549 C550 1.383 . S
C549 H557 0.929 . S
C550 C549 1.383 . S
C550 C551 1.377 . S
C551 H535 0.930 . S
C551 C550 1.377 . S
C551 C552 1.379 . S
C552 H536 0.931 . S
C552 C546 1.383 . S
C552 C551 1.379 . S
H553 C547 0.959 . S
H554 C547 0.961 . S
H555 C547 0.960 . S
H556 C548 0.930 . S
H557 C549 0.929 . S
H558 C566 0.929 . S
H559 C568 0.930 . S
H560 C570 0.930 . S
H561 C573 0.929 . S
H562 C576 0.930 . S
H563 C578 0.960 . S
H564 C578 0.960 . S
H565 C578 0.960 . S
C566 H558 0.929 . S
C566 C567 1.377 . S
C566 C568 1.384 . S
C567 C566 1.377 . S
C567 C573 1.390 . S
C568 H559 0.930 . S
C568 C566 1.384 . S
C568 C569 1.372 . S
C569 C568 1.372 . S
C569 C570 1.400 . S
C569 C574 1.490 . S
C570 H560 0.930 . S
C570 C569 1.400 . S
C570 C573 1.386 . S
H571 C587 0.930 . S
H572 C588 0.931 . S
C573 H561 0.929 . S
C573 C567 1.390 . S
C573 C570 1.386 . S
C574 C569 1.490 . S
C574 C576 1.395 . S
C574 C577 1.403 . S
H575 C581 0.930 . S
C576 H562 0.930 . S
C576 C574 1.395 . S
C576 C579 1.403 . S
C577 C574 1.403 . S
C577 C578 1.524 . S
C577 C581 1.400 . S
C578 H563 0.960 . S
C578 H564 0.960 . S
C578 H565 0.960 . S
C578 C577 1.524 . S
C579 C576 1.403 . S
C579 C580 1.392 . S
C579 C583 1.495 . S
C580 C579 1.392 . S
C580 C581 1.385 . S
C580 C582 1.478 . S
C581 H575 0.930 . S
C581 C577 1.400 . S
C581 C580 1.385 . S
C582 C580 1.478 . S
C582 C584 1.381 . S
C582 C588 1.383 . S
C583 C579 1.495 . S
C583 H589 0.959 . S
C583 H590 0.961 . S
C583 H591 0.960 . S
C584 C582 1.381 . S
C584 C585 1.394 . S
C584 H592 0.930 . S
C585 C584 1.394 . S
C585 C586 1.383 . S
C585 H593 0.929 . S
C586 C585 1.383 . S
C586 C587 1.377 . S
C587 H571 0.930 . S
C587 C586 1.377 . S
C587 C588 1.379 . S
C588 H572 0.931 . S
C588 C582 1.383 . S
C588 C587 1.379 . S
H589 C583 0.959 . S
H590 C583 0.961 . S
H591 C583 0.960 . S
H592 C584 0.930 . S
H593 C585 0.929 . S
H594 C602 0.929 . S
H595 C604 0.930 . S
H596 C606 0.930 . S
H597 C609 0.929 . S
H598 C612 0.930 . S
H599 C614 0.960 . S
H600 C614 0.960 . S
H601 C614 0.960 . S
C602 H594 0.929 . S
C602 C603 1.377 . S
C602 C604 1.384 . S
C603 C602 1.377 . S
C603 C609 1.390 . S
C604 H595 0.930 . S
C604 C602 1.384 . S
C604 C605 1.372 . S
C605 C604 1.372 . S
C605 C606 1.400 . S
C605 C610 1.490 . S
C606 H596 0.930 . S
C606 C605 1.400 . S
C606 C609 1.386 . S
H607 C623 0.930 . S
H608 C624 0.931 . S
C609 H597 0.929 . S
C609 C603 1.390 . S
C609 C606 1.386 . S
C610 C605 1.490 . S
C610 C612 1.395 . S
C610 C613 1.403 . S
H611 C617 0.930 . S
C612 H598 0.930 . S
C612 C610 1.395 . S
C612 C615 1.403 . S
C613 C610 1.403 . S
C613 C614 1.524 . S
C613 C617 1.400 . S
C614 H599 0.960 . S
C614 H600 0.960 . S
C614 H601 0.960 . S
C614 C613 1.524 . S
C615 C612 1.403 . S
C615 C616 1.392 . S
C615 C619 1.495 . S
C616 C615 1.392 . S
C616 C617 1.385 . S
C616 C618 1.478 . S
C617 H611 0.930 . S
C617 C613 1.400 . S
C617 C616 1.385 . S
C618 C616 1.478 . S
C618 C620 1.381 . S
C618 C624 1.383 . S
C619 C615 1.495 . S
C619 H625 0.959 . S
C619 H626 0.961 . S
C619 H627 0.960 . S
C620 C618 1.381 . S
C620 C621 1.394 . S
C620 H628 0.930 . S
C621 C620 1.394 . S
C621 C622 1.383 . S
C621 H629 0.929 . S
C622 C621 1.383 . S
C622 C623 1.377 . S
C623 H607 0.930 . S
C623 C622 1.377 . S
C623 C624 1.379 . S
C624 H608 0.931 . S
C624 C618 1.383 . S
C624 C623 1.379 . S
H625 C619 0.959 . S
H626 C619 0.961 . S
H627 C619 0.960 . S
H628 C620 0.930 . S
H629 C621 0.929 . S
H630 C638 0.929 . S
H631 C640 0.930 . S
H632 C642 0.930 1_655 S
H633 C645 0.929 . S
H634 C648 0.930 . S
H635 C650 0.960 . S
H636 C650 0.960 . S
H637 C650 0.960 . S
C638 H630 0.929 . S
C638 C639 1.377 . S
C638 C640 1.384 . S
C639 C638 1.377 . S
C639 C645 1.390 1_455 S
C640 H631 0.930 . S
C640 C638 1.384 . S
C640 C641 1.372 . S
C641 C640 1.372 . S
C641 C642 1.400 . S
C641 C646 1.490 . S
C642 H632 0.930 1_455 S
C642 C641 1.400 . S
C642 C645 1.386 1_455 S
H643 C659 0.930 . S
H644 C660 0.931 . S
C645 H633 0.929 . S
C645 C639 1.390 1_655 S
C645 C642 1.386 1_655 S
C646 C641 1.490 . S
C646 C648 1.395 . S
C646 C649 1.403 . S
H647 C653 0.930 1_556 S
C648 H634 0.930 . S
C648 C646 1.395 . S
C648 C651 1.403 . S
C649 C646 1.403 . S
C649 C650 1.524 . S
C649 C653 1.400 . S
C650 H635 0.960 . S
C650 H636 0.960 . S
C650 H637 0.960 . S
C650 C649 1.524 . S
C651 C648 1.403 . S
C651 C652 1.392 1_554 S
C651 C655 1.495 1_554 S
C652 C651 1.392 1_556 S
C652 C653 1.385 1_556 S
C652 C654 1.478 . S
C653 H647 0.930 1_554 S
C653 C649 1.400 . S
C653 C652 1.385 1_554 S
C654 C652 1.478 . S
C654 C656 1.381 . S
C654 C660 1.383 . S
C655 C651 1.495 1_556 S
C655 H661 0.959 1_556 S
C655 H662 0.961 1_455 S
C655 H663 0.960 . S
C656 C654 1.381 . S
C656 C657 1.394 . S
C656 H664 0.930 . S
C657 C656 1.394 . S
C657 C658 1.383 . S
C657 H665 0.929 . S
C658 C657 1.383 . S
C658 C659 1.377 . S
C659 H643 0.930 . S
C659 C658 1.377 . S
C659 C660 1.379 . S
C660 H644 0.931 . S
C660 C654 1.383 . S
C660 C659 1.379 . S
H661 C655 0.959 1_554 S
H662 C655 0.961 1_655 S
H663 C655 0.960 . S
H664 C656 0.930 . S
H665 C657 0.929 . S
H666 C674 0.929 . S
H667 C676 0.930 . S
H668 C678 0.930 . S
H669 C681 0.929 . S
H670 C684 0.930 . S
H671 C686 0.960 . S
H672 C686 0.960 1_545 S
H673 C686 0.960 . S
C674 H666 0.929 . S
C674 C675 1.377 . S
C674 C676 1.384 . S
C675 C674 1.377 . S
C675 C681 1.390 1_545 S
C676 H667 0.930 . S
C676 C674 1.384 . S
C676 C677 1.372 . S
C677 C676 1.372 . S
C677 C678 1.400 1_545 S
C677 C682 1.490 . S
C678 H668 0.930 . S
C678 C677 1.400 1_565 S
C678 C681 1.386 . S
H679 C695 0.930 . S
H680 C696 0.931 . S
C681 H669 0.929 . S
C681 C675 1.390 1_565 S
C681 C678 1.386 . S
C682 C677 1.490 . S
C682 C684 1.395 . S
C682 C685 1.403 . S
H683 C689 0.930 1_565 S
C684 H670 0.930 . S
C684 C682 1.395 . S
C684 C687 1.403 . S
C685 C682 1.403 . S
C685 C686 1.524 1_545 S
C685 C689 1.400 . S
C686 H671 0.960 . S
C686 H672 0.960 1_565 S
C686 H673 0.960 . S
C686 C685 1.524 1_565 S
C687 C684 1.403 . S
C687 C688 1.392 . S
C687 C691 1.495 . S
C688 C687 1.392 . S
C688 C689 1.385 . S
C688 C690 1.478 . S
C689 H683 0.930 1_545 S
C689 C685 1.400 . S
C689 C688 1.385 . S
C690 C688 1.478 . S
C690 C692 1.381 . S
C690 C696 1.383 1_545 S
C691 C687 1.495 . S
C691 H697 0.959 . S
C691 H698 0.961 . S
C691 H699 0.960 . S
C692 C690 1.381 . S
C692 C693 1.394 . S
C692 H700 0.930 . S
C693 C692 1.394 . S
C693 C694 1.383 . S
C693 H701 0.929 . S
C694 C693 1.383 . S
C694 C695 1.377 1_545 S
C695 H679 0.930 . S
C695 C694 1.377 1_565 S
C695 C696 1.379 . S
C696 H680 0.931 . S
C696 C690 1.383 1_565 S
C696 C695 1.379 . S
H697 C691 0.959 . S
H698 C691 0.961 . S
H699 C691 0.960 . S
H700 C692 0.930 . S
H701 C693 0.929 . S
H702 C710 0.929 . S
H703 C712 0.930 . S
H704 C714 0.930 . S
H705 C717 0.929 . S
H706 C720 0.930 . S
H707 C722 0.960 . S
H708 C722 0.960 . S
H709 C722 0.960 . S
C710 H702 0.929 . S
C710 C711 1.377 . S
C710 C712 1.384 . S
C711 C710 1.377 . S
C711 C717 1.390 . S
C712 H703 0.930 . S
C712 C710 1.384 . S
C712 C713 1.372 . S
C713 C712 1.372 . S
C713 C714 1.400 . S
C713 C718 1.490 . S
C714 H704 0.930 . S
C714 C713 1.400 . S
C714 C717 1.386 . S
H715 C731 0.930 . S
H716 C732 0.931 . S
C717 H705 0.929 . S
C717 C711 1.390 . S
C717 C714 1.386 . S
C718 C713 1.490 . S
C718 C720 1.395 . S
C718 C721 1.403 . S
H719 C725 0.930 . S
C720 H706 0.930 . S
C720 C718 1.395 . S
C720 C723 1.403 . S
C721 C718 1.403 . S
C721 C722 1.524 . S
C721 C725 1.400 . S
C722 H707 0.960 . S
C722 H708 0.960 . S
C722 H709 0.960 . S
C722 C721 1.524 . S
C723 C720 1.403 . S
C723 C724 1.392 . S
C723 C727 1.495 . S
C724 C723 1.392 . S
C724 C725 1.385 . S
C724 C726 1.478 . S
C725 H719 0.930 . S
C725 C721 1.400 . S
C725 C724 1.385 . S
C726 C724 1.478 . S
C726 C728 1.381 . S
C726 C732 1.383 . S
C727 C723 1.495 . S
C727 H733 0.959 . S
C727 H734 0.961 . S
C727 H735 0.960 . S
C728 C726 1.381 . S
C728 C729 1.394 . S
C728 H736 0.930 . S
C729 C728 1.394 . S
C729 C730 1.383 . S
C729 H737 0.929 . S
C730 C729 1.383 . S
C730 C731 1.377 . S
C731 H715 0.930 . S
C731 C730 1.377 . S
C731 C732 1.379 . S
C732 H716 0.931 . S
C732 C726 1.383 . S
C732 C731 1.379 . S
H733 C727 0.959 . S
H734 C727 0.961 . S
H735 C727 0.960 . S
H736 C728 0.930 . S
H737 C729 0.929 . S
H738 C746 0.929 . S
H739 C748 0.930 . S
H740 C750 0.930 . S
H741 C753 0.929 . S
H742 C756 0.930 . S
H743 C758 0.960 . S
H744 C758 0.960 . S
H745 C758 0.960 . S
C746 H738 0.929 . S
C746 C747 1.377 . S
C746 C748 1.384 . S
C747 C746 1.377 . S
C747 C753 1.390 . S
C748 H739 0.930 . S
C748 C746 1.384 . S
C748 C749 1.372 . S
C749 C748 1.372 . S
C749 C750 1.400 . S
C749 C754 1.490 . S
C750 H740 0.930 . S
C750 C749 1.400 . S
C750 C753 1.386 . S
H751 C767 0.930 . S
H752 C768 0.931 . S
C753 H741 0.929 . S
C753 C747 1.390 . S
C753 C750 1.386 . S
C754 C749 1.490 . S
C754 C756 1.395 . S
C754 C757 1.403 1_545 S
H755 C761 0.930 . S
C756 H742 0.930 . S
C756 C754 1.395 . S
C756 C759 1.403 . S
C757 C754 1.403 1_565 S
C757 C758 1.524 . S
C757 C761 1.400 . S
C758 H743 0.960 . S
C758 H744 0.960 . S
C758 H745 0.960 . S
C758 C757 1.524 . S
C759 C756 1.403 . S
C759 C760 1.392 . S
C759 C763 1.495 . S
C760 C759 1.392 . S
C760 C761 1.385 1_545 S
C760 C762 1.478 . S
C761 H755 0.930 . S
C761 C757 1.400 . S
C761 C760 1.385 1_565 S
C762 C760 1.478 . S
C762 C764 1.381 . S
C762 C768 1.383 . S
C763 C759 1.495 . S
C763 H769 0.959 . S
C763 H770 0.961 . S
C763 H771 0.960 . S
C764 C762 1.381 . S
C764 C765 1.394 . S
C764 H772 0.930 . S
C765 C764 1.394 . S
C765 C766 1.383 . S
C765 H773 0.929 . S
C766 C765 1.383 . S
C766 C767 1.377 . S
C767 H751 0.930 . S
C767 C766 1.377 . S
C767 C768 1.379 . S
C768 H752 0.931 . S
C768 C762 1.383 . S
C768 C767 1.379 . S
H769 C763 0.959 . S
H770 C763 0.961 . S
H771 C763 0.960 . S
H772 C764 0.930 . S
H773 C765 0.929 . S
H774 C782 0.929 . S
H775 C784 0.930 . S
H776 C786 0.930 . S
H777 C789 0.929 . S
H778 C792 0.930 . S
H779 C794 0.960 . S
H780 C794 0.960 . S
H781 C794 0.960 . S
C782 H774 0.929 . S
C782 C783 1.377 . S
C782 C784 1.384 . S
C783 C782 1.377 . S
C783 C789 1.390 . S
C784 H775 0.930 . S
C784 C782 1.384 . S
C784 C785 1.372 . S
C785 C784 1.372 . S
C785 C786 1.400 . S
C785 C790 1.490 . S
C786 H776 0.930 . S
C786 C785 1.400 . S
C786 C789 1.386 . S
H787 C803 0.930 . S
H788 C804 0.931 . S
C789 H777 0.929 . S
C789 C783 1.390 . S
C789 C786 1.386 . S
C790 C785 1.490 . S
C790 C792 1.395 . S
C790 C793 1.403 . S
H791 C797 0.930 1_554 S
C792 H778 0.930 . S
C792 C790 1.395 . S
C792 C795 1.403 . S
C793 C790 1.403 . S
C793 C794 1.524 . S
C793 C797 1.400 . S
C794 H779 0.960 . S
C794 H780 0.960 . S
C794 H781 0.960 . S
C794 C793 1.524 . S
C795 C792 1.403 . S
C795 C796 1.392 1_556 S
C795 C799 1.495 1_556 S
C796 C795 1.392 1_554 S
C796 C797 1.385 1_554 S
C796 C798 1.478 . S
C797 H791 0.930 1_556 S
C797 C793 1.400 . S
C797 C796 1.385 1_556 S
C798 C796 1.478 . S
C798 C800 1.381 . S
C798 C804 1.383 . S
C799 C795 1.495 1_554 S
C799 H805 0.959 1_554 S
C799 H806 0.961 . S
C799 H807 0.960 . S
C800 C798 1.381 . S
C800 C801 1.394 . S
C800 H808 0.930 . S
C801 C800 1.394 . S
C801 C802 1.383 . S
C801 H809 0.929 . S
C802 C801 1.383 . S
C802 C803 1.377 . S
C803 H787 0.930 . S
C803 C802 1.377 . S
C803 C804 1.379 . S
C804 H788 0.931 . S
C804 C798 1.383 . S
C804 C803 1.379 . S
H805 C799 0.959 1_556 S
H806 C799 0.961 . S
H807 C799 0.960 . S
H808 C800 0.930 . S
H809 C801 0.929 . S
H810 C818 0.929 . S
H811 C820 0.930 . S
H812 C822 0.930 . S
H813 C825 0.929 . S
H814 C828 0.930 . S
H815 C830 0.960 . S
H816 C830 0.960 . S
H817 C830 0.960 . S
C818 H810 0.929 . S
C818 C819 1.377 1_455 S
C818 C820 1.384 . S
C819 C818 1.377 1_655 S
C819 C825 1.390 . S
C820 H811 0.930 . S
C820 C818 1.384 . S
C820 C821 1.372 . S
C821 C820 1.372 . S
C821 C822 1.400 1_455 S
C821 C826 1.490 . S
C822 H812 0.930 . S
C822 C821 1.400 1_655 S
C822 C825 1.386 . S
H823 C839 0.930 . S
H824 C840 0.931 . S
C825 H813 0.929 . S
C825 C819 1.390 . S
C825 C822 1.386 . S
C826 C821 1.490 . S
C826 C828 1.395 . S
C826 C829 1.403 1_455 S
H827 C833 0.930 . S
C828 H814 0.930 . S
C828 C826 1.395 . S
C828 C831 1.403 . S
C829 C826 1.403 1_655 S
C829 C830 1.524 . S
C829 C833 1.400 . S
C830 H815 0.960 . S
C830 H816 0.960 . S
C830 H817 0.960 . S
C830 C829 1.524 . S
C831 C828 1.403 . S
C831 C832 1.392 . S
C831 C835 1.495 . S
C832 C831 1.392 . S
C832 C833 1.385 1_455 S
C832 C834 1.478 . S
C833 H827 0.930 . S
C833 C829 1.400 . S
C833 C832 1.385 1_655 S
C834 C832 1.478 . S
C834 C836 1.381 . S
C834 C840 1.383 . S
C835 C831 1.495 . S
C835 H841 0.959 . S
C835 H842 0.961 . S
C835 H843 0.960 . S
C836 C834 1.381 . S
C836 C837 1.394 . S
C836 H844 0.930 . S
C837 C836 1.394 . S
C837 C838 1.383 . S
C837 H845 0.929 . S
C838 C837 1.383 . S
C838 C839 1.377 . S
C839 H823 0.930 . S
C839 C838 1.377 . S
C839 C840 1.379 . S
C840 H824 0.931 . S
C840 C834 1.383 . S
C840 C839 1.379 . S
H841 C835 0.959 . S
H842 C835 0.961 . S
H843 C835 0.960 . S
H844 C836 0.930 . S
H845 C837 0.929 . S
C207 C7 0.502 . S
C226 C189 0.603 . S
C243 C51 1.795 . S
C262 C167 1.768 . S
C279 C87 1.107 . S
C298 C180 1.082 . S
C315 C16 0.299 . S
C334 C193 0.279 . S
C370 C163 1.842 . S
C351 C42 2.015 . S
C406 C176 1.220 . S
C387 C96 1.322 . S
C423 C47 1.053 . S
C442 C141 1.035 . S
C459 C91 2.998 . S
C478 C154 2.962 1_655 S
C495 C2 2.016 . S
C514 C124 1.862 . S
C550 C137 1.250 . S
C531 C56 1.337 . S
C586 C150 2.842 . S
C567 C82 3.030 . S
C603 C11 1.800 . S
C622 C128 1.785 . S
C658 C155 1.733 . S
C639 C19 1.697 . S
C675 C50 1.475 . S
C694 C129 1.492 . S
C711 C99 1.530 . S
C730 C142 1.612 . S
C766 C181 1.546 . S
C747 C59 1.489 . S
C802 C194 1.344 . S
C783 C90 1.339 . S
C819 C10 1.446 1_655 S
C838 C168 1.495 . S
