# Generated by pormake.
# Topology sqc, (4,8)-cn, num edge types: 1
# Building blocks:
#     Node 0, Type 0, BuildingBlock: NAWXER_clean_linker_0, # of connection points: 4
#     Node 1, Type 0, BuildingBlock: NAWXER_clean_linker_0, # of connection points: 4
#     Node 2, Type 0, BuildingBlock: NAWXER_clean_linker_0, # of connection points: 4
#     Node 3, Type 0, BuildingBlock: NAWXER_clean_linker_0, # of connection points: 4
#     Node 4, Type 0, BuildingBlock: NAWXER_clean_linker_0, # of connection points: 4
#     Node 5, Type 0, BuildingBlock: NAWXER_clean_linker_0, # of connection points: 4
#     Node 6, Type 0, BuildingBlock: NAWXER_clean_linker_0, # of connection points: 4
#     Node 7, Type 0, BuildingBlock: NAWXER_clean_linker_0, # of connection points: 4
#     Node 8, Type 1, BuildingBlock: VETTIZ_charged_sbu_0, # of connection points: 8
#     Node 9, Type 1, BuildingBlock: VETTIZ_charged_sbu_0, # of connection points: 8
#     Node 10, Type 1, BuildingBlock: VETTIZ_charged_sbu_0, # of connection points: 8
#     Node 11, Type 1, BuildingBlock: VETTIZ_charged_sbu_0, # of connection points: 8
#     Edge 12, Type (0, 1), BuildingBlock: TEMPAE_clean_linker_10, # of connection points: 2
#     Edge 13, Type (0, 1), BuildingBlock: TEMPAE_clean_linker_10, # of connection points: 2
#     Edge 14, Type (0, 1), BuildingBlock: TEMPAE_clean_linker_10, # of connection points: 2
#     Edge 15, Type (0, 1), BuildingBlock: TEMPAE_clean_linker_10, # of connection points: 2
#     Edge 16, Type (0, 1), BuildingBlock: TEMPAE_clean_linker_10, # of connection points: 2
#     Edge 17, Type (0, 1), BuildingBlock: TEMPAE_clean_linker_10, # of connection points: 2
#     Edge 18, Type (0, 1), BuildingBlock: TEMPAE_clean_linker_10, # of connection points: 2
#     Edge 19, Type (0, 1), BuildingBlock: TEMPAE_clean_linker_10, # of connection points: 2
#     Edge 20, Type (0, 1), BuildingBlock: TEMPAE_clean_linker_10, # of connection points: 2
#     Edge 21, Type (0, 1), BuildingBlock: TEMPAE_clean_linker_10, # of connection points: 2
#     Edge 22, Type (0, 1), BuildingBlock: TEMPAE_clean_linker_10, # of connection points: 2
#     Edge 23, Type (0, 1), BuildingBlock: TEMPAE_clean_linker_10, # of connection points: 2
#     Edge 24, Type (0, 1), BuildingBlock: TEMPAE_clean_linker_10, # of connection points: 2
#     Edge 25, Type (0, 1), BuildingBlock: TEMPAE_clean_linker_10, # of connection points: 2
#     Edge 26, Type (0, 1), BuildingBlock: TEMPAE_clean_linker_10, # of connection points: 2
#     Edge 27, Type (0, 1), BuildingBlock: TEMPAE_clean_linker_10, # of connection points: 2
#     Edge 28, Type (0, 1), BuildingBlock: TEMPAE_clean_linker_10, # of connection points: 2
#     Edge 29, Type (0, 1), BuildingBlock: TEMPAE_clean_linker_10, # of connection points: 2
#     Edge 30, Type (0, 1), BuildingBlock: TEMPAE_clean_linker_10, # of connection points: 2
#     Edge 31, Type (0, 1), BuildingBlock: TEMPAE_clean_linker_10, # of connection points: 2
#     Edge 32, Type (0, 1), BuildingBlock: TEMPAE_clean_linker_10, # of connection points: 2
#     Edge 33, Type (0, 1), BuildingBlock: TEMPAE_clean_linker_10, # of connection points: 2
#     Edge 34, Type (0, 1), BuildingBlock: TEMPAE_clean_linker_10, # of connection points: 2
#     Edge 35, Type (0, 1), BuildingBlock: TEMPAE_clean_linker_10, # of connection points: 2
#     Edge 36, Type (0, 1), BuildingBlock: TEMPAE_clean_linker_10, # of connection points: 2
#     Edge 37, Type (0, 1), BuildingBlock: TEMPAE_clean_linker_10, # of connection points: 2
#     Edge 38, Type (0, 1), BuildingBlock: TEMPAE_clean_linker_10, # of connection points: 2
#     Edge 39, Type (0, 1), BuildingBlock: TEMPAE_clean_linker_10, # of connection points: 2
#     Edge 40, Type (0, 1), BuildingBlock: TEMPAE_clean_linker_10, # of connection points: 2
#     Edge 41, Type (0, 1), BuildingBlock: TEMPAE_clean_linker_10, # of connection points: 2
#     Edge 42, Type (0, 1), BuildingBlock: TEMPAE_clean_linker_10, # of connection points: 2
#     Edge 43, Type (0, 1), BuildingBlock: TEMPAE_clean_linker_10, # of connection points: 2
# Relax obj value: 0.124
# Max RMSD: 0.266
# Mean RMSD: 0.155
data_MOF--net-sqc--node1-VETTIZ_charged_sbu_0--node2-NAWXER_clean_linker_0--edge1-TEMPAE_clean_linker_10
_symmetry_space_group_name_H-M    P1
_symmetry_Int_Tables_number       1
_symmetry_cell_setting            triclinic
loop_
_symmetry_equiv_pos_as_xyz
'x, y, z'
_cell_length_a     28.366474
_cell_length_b     28.359573
_cell_length_c     84.876224
_cell_angle_alpha  90.021631
_cell_angle_beta   89.975176
_cell_angle_gamma 90.010133
loop_
_atom_site_label
_atom_site_type_symbol
_atom_site_fract_x
_atom_site_fract_y
_atom_site_fract_z
_atom_type_partial_charge
C0 C 0.15773 1.00201 0.47713 0.0
C1 C 0.16227 0.95444 0.47281 0.0
C2 C 0.11967 0.01695 0.48638 0.0
C3 C 0.08631 0.9843 0.49205 0.0
C4 C 0.12795 0.92209 0.47785 0.0
C5 C 0.09049 0.93683 0.48742 0.0
C6 C 0.04599 0.99928 0.50221 0.0
C7 C 0.17546 0.04062 0.52935 0.0
C8 C 0.18096 0.08952 0.53141 0.0
C9 C 0.13305 0.02218 0.52372 0.0
C10 C 0.09552 0.05231 0.51986 0.0
C11 C 0.14332 0.11959 0.52749 0.0
C12 C 0.1009 0.1011 0.52186 0.0
C13 C 0.04991 0.03299 0.51448 0.0
C14 C 0.86271 0.02291 0.54734 0.0
C15 C 0.84745 0.07025 0.54745 0.0
C16 C 0.9015 0.00897 0.53825 0.0
C17 C 0.92648 0.04206 0.52921 0.0
C18 C 0.87279 0.1032 0.53831 0.0
C19 C 0.91218 0.08936 0.52948 0.0
C20 C 0.96721 0.02734 0.51939 0.0
C21 C 0.83734 0.98054 0.49355 0.0
C22 C 0.83368 0.9315 0.49147 0.0
C23 C 0.87916 1.00056 0.49903 0.0
C24 C 0.91794 0.97189 0.50272 0.0
C25 C 0.87237 0.90281 0.49538 0.0
C26 C 0.91421 0.92289 0.50088 0.0
C27 C 0.96341 0.993 0.50743 0.0
H28 H 0.18329 0.02777 0.47314 0.0
H29 H 0.11635 0.05415 0.48898 0.0
H30 H 0.13062 0.88523 0.47463 0.0
H31 H 0.06502 0.91093 0.49137 0.0
H32 H 0.20337 0.01645 0.53259 0.0
H33 H 0.12928 0.9843 0.52265 0.0
H34 H 0.14657 0.15742 0.52887 0.0
H35 H 0.07226 0.12491 0.51903 0.0
H36 H 0.84516 0.99652 0.55444 0.0
H37 H 0.91228 0.97233 0.53836 0.0
H38 H 0.86194 0.13974 0.53775 0.0
H39 H 0.93083 0.11544 0.52254 0.0
H40 H 0.80858 1.00368 0.49029 0.0
H41 H 0.88165 0.03858 0.49985 0.0
H42 H 0.8705 0.8649 0.49396 0.0
H43 H 0.94384 0.90018 0.50358 0.0
N44 N 1.00281 0.98032 0.49932 0.0
N45 N 0.01034 0.04608 0.52246 0.0
C46 C 0.31161 0.5848 0.74282 0.0
C47 C 0.30445 0.58558 0.72638 0.0
C48 C 0.30086 0.6242 0.7521 0.0
C49 C 0.28096 0.66471 0.74527 0.0
C50 C 0.28584 0.62681 0.71957 0.0
C51 C 0.27405 0.66563 0.72889 0.0
C52 C 0.2696 0.70759 0.75462 0.0
C53 C 0.19055 0.58857 0.77899 0.0
C54 C 0.2076 0.58047 0.79433 0.0
C55 C 0.2031 0.62957 0.77078 0.0
C56 C 0.23287 0.66318 0.77777 0.0
C57 C 0.2372 0.61439 0.80128 0.0
C58 C 0.24936 0.65544 0.79313 0.0
C59 C 0.24642 0.70702 0.76943 0.0
C60 C 0.18825 0.91094 0.77486 0.0
C61 C 0.19218 0.91816 0.79117 0.0
C62 C 0.20547 0.86967 0.76796 0.0
C63 C 0.22798 0.83509 0.77716 0.0
C64 C 0.21361 0.88302 0.80044 0.0
C65 C 0.23122 0.84184 0.7935 0.0
C66 C 0.24649 0.79133 0.76979 0.0
C67 C 0.33608 0.90861 0.75094 0.0
C68 C 0.32684 0.91936 0.73508 0.0
C69 C 0.31838 0.86718 0.75764 0.0
C70 C 0.29144 0.83563 0.74857 0.0
C71 C 0.30026 0.88752 0.726 0.0
C72 C 0.28315 0.84578 0.73265 0.0
C73 C 0.27252 0.79175 0.75562 0.0
H74 H 0.32557 0.55379 0.7486 0.0
H75 H 0.30873 0.62295 0.76456 0.0
H76 H 0.28105 0.62966 0.70696 0.0
H77 H 0.2596 0.69666 0.72323 0.0
H78 H 0.16766 0.56313 0.77333 0.0
H79 H 0.18943 0.63513 0.75901 0.0
H80 H 0.25019 0.60965 0.81317 0.0
H81 H 0.27202 0.68111 0.79879 0.0
H82 H 0.17104 0.93685 0.76746 0.0
H83 H 0.20071 0.86463 0.75541 0.0
H84 H 0.21729 0.88766 0.81305 0.0
H85 H 0.2479 0.81551 0.80087 0.0
H86 H 0.3565 0.93253 0.75818 0.0
H87 H 0.3259 0.85965 0.7699 0.0
H88 H 0.29317 0.89468 0.71369 0.0
H89 H 0.2628 0.82176 0.72541 0.0
N90 N 0.2821 0.75005 0.74843 0.0
N91 N 0.23544 0.74896 0.77635 0.0
C92 C 0.33638 0.0514 0.99403 0.0
C93 C 0.3337 0.10067 0.9924 0.0
C94 C 0.37766 0.03013 0.99939 0.0
C95 C 0.41691 0.05775 0.00338 0.0
C96 C 0.37289 0.12829 0.9966 0.0
C97 C 0.41425 0.10694 0.00197 0.0
C98 C 0.46176 0.03537 0.008 0.0
C99 C 0.35809 0.00467 0.04699 0.0
C100 C 0.34435 0.95691 0.04753 0.0
C101 C 0.3971 0.0189 0.03804 0.0
C102 C 0.42355 0.98575 0.02949 0.0
C103 C 0.37122 0.92387 0.03893 0.0
C104 C 0.41061 0.93808 0.03018 0.0
C105 C 0.46471 1.00053 0.01984 0.0
C106 C 0.67215 0.98501 0.03014 0.0
C107 C 0.67757 0.93604 0.03199 0.0
C108 C 0.62996 1.00364 0.02445 0.0
C109 C 0.59253 0.97366 0.02038 0.0
C110 C 0.64005 0.9061 0.02781 0.0
C111 C 0.59776 0.92481 0.02216 0.0
C112 C 0.54725 0.99334 0.01492 0.0
C113 C 0.65556 0.02077 0.97759 0.0
C114 C 0.66163 0.06812 0.97323 0.0
C115 C 0.61702 0.00713 0.98682 0.0
C116 C 0.58469 0.04086 0.99246 0.0
C117 C 0.6283 0.10158 0.97822 0.0
C118 C 0.59034 0.08812 0.98779 0.0
C119 C 0.54406 0.02714 0.00269 0.0
H120 H 0.30724 0.02905 0.99052 0.0
H121 H 0.37937 0.99202 0.99992 0.0
H122 H 0.3718 0.16633 0.99552 0.0
H123 H 0.44431 0.12882 0.0049 0.0
H124 H 0.33919 0.03113 0.05366 0.0
H125 H 0.40687 0.05583 0.0379 0.0
H126 H 0.36155 0.88695 0.03876 0.0
H127 H 0.43044 0.91189 0.02367 0.0
H128 H 0.69992 0.00909 0.03359 0.0
H129 H 0.62625 0.04156 0.02351 0.0
H130 H 0.64325 0.86822 0.02901 0.0
H131 H 0.56916 0.90115 0.01915 0.0
H132 H 0.6803 0.99418 0.97363 0.0
H133 H 0.61254 0.97008 0.98946 0.0
H134 H 0.63216 0.13831 0.97497 0.0
H135 H 0.56568 0.11483 0.99171 0.0
N136 N 0.50138 0.04723 0.99987 0.0
N137 N 0.50744 0.98086 0.02286 0.0
C138 C 0.24988 0.09031 0.23247 0.0
C139 C 0.20522 0.08794 0.22545 0.0
C140 C 0.26209 0.12884 0.2419 0.0
C141 C 0.22921 0.16491 0.24499 0.0
C142 C 0.17247 0.12399 0.22833 0.0
C143 C 0.18426 0.16196 0.23807 0.0
C144 C 0.24272 0.20818 0.25383 0.0
C145 C 0.26642 0.09589 0.2909 0.0
C146 C 0.31436 0.08431 0.29301 0.0
C147 C 0.25323 0.13532 0.28203 0.0
C148 C 0.28758 0.1647 0.27532 0.0
C149 C 0.34856 0.11347 0.28586 0.0
C150 C 0.3353 0.15364 0.27738 0.0
C151 C 0.27366 0.2082 0.2669 0.0
C152 C 0.27801 0.41305 0.28648 0.0
C153 C 0.32692 0.42041 0.28757 0.0
C154 C 0.26022 0.37113 0.28016 0.0
C155 C 0.29101 0.33619 0.27452 0.0
C156 C 0.35763 0.38483 0.28229 0.0
C157 C 0.33981 0.34309 0.27587 0.0
C158 C 0.2729 0.29243 0.26716 0.0
C159 C 0.22713 0.41494 0.23709 0.0
C160 C 0.17789 0.41879 0.23559 0.0
C161 C 0.24752 0.37377 0.24307 0.0
C162 C 0.21903 0.33602 0.248 0.0
C163 C 0.14953 0.38054 0.24019 0.0
C164 C 0.16993 0.33957 0.24631 0.0
C165 C 0.23975 0.29242 0.25472 0.0
H166 H 0.27589 0.06318 0.23018 0.0
H167 H 0.29785 0.13101 0.24624 0.0
H168 H 0.13777 0.12277 0.22302 0.0
H169 H 0.15837 0.18943 0.24001 0.0
H170 H 0.23886 0.07533 0.29643 0.0
H171 H 0.21615 0.14368 0.28078 0.0
H172 H 0.38575 0.10546 0.28678 0.0
H173 H 0.36235 0.17586 0.27227 0.0
H174 H 0.25348 0.43936 0.29077 0.0
H175 H 0.2224 0.36608 0.27965 0.0
H176 H 0.39548 0.38951 0.28297 0.0
H177 H 0.36421 0.31648 0.27168 0.0
H178 H 0.24995 0.44339 0.2333 0.0
H179 H 0.28557 0.37141 0.24378 0.0
H180 H 0.11152 0.38245 0.23917 0.0
H181 H 0.14724 0.31077 0.24991 0.0
N182 N 0.22635 0.25035 0.24849 0.0
N183 N 0.28829 0.25029 0.27284 0.0
C184 C 0.833 0.1103 0.25235 0.0
C185 C 0.83384 0.10317 0.23598 0.0
C186 C 0.81317 0.15129 0.25868 0.0
C187 C 0.79254 0.1854 0.2488 0.0
C188 C 0.81434 0.13783 0.22608 0.0
C189 C 0.79397 0.17851 0.23243 0.0
C190 C 0.7716 0.22928 0.25538 0.0
C191 C 0.68398 0.1111 0.27344 0.0
C192 C 0.68469 0.1045 0.28983 0.0
C193 C 0.70257 0.15213 0.26679 0.0
C194 C 0.72342 0.18693 0.27635 0.0
C195 C 0.70409 0.14 0.29944 0.0
C196 C 0.72319 0.18086 0.29275 0.0
C197 C 0.74394 0.23019 0.26926 0.0
C198 C 0.69225 0.43442 0.27817 0.0
C199 C 0.70956 0.44239 0.29348 0.0
C200 C 0.70398 0.3931 0.27 0.0
C201 C 0.73295 0.35891 0.27705 0.0
C202 C 0.73874 0.40816 0.30043 0.0
C203 C 0.74994 0.36668 0.29235 0.0
C204 C 0.74498 0.31442 0.26882 0.0
C205 C 0.81953 0.43038 0.24118 0.0
C206 C 0.80149 0.43439 0.22576 0.0
C207 C 0.80804 0.39155 0.25061 0.0
C208 C 0.77853 0.35593 0.24477 0.0
C209 C 0.77125 0.39883 0.22014 0.0
C210 C 0.76035 0.35982 0.22948 0.0
C211 C 0.76803 0.31326 0.25409 0.0
H212 H 0.8484 0.08452 0.26023 0.0
H213 H 0.81436 0.15642 0.27132 0.0
H214 H 0.8142 0.13312 0.21342 0.0
H215 H 0.77884 0.2044 0.22453 0.0
H216 H 0.66845 0.08479 0.26578 0.0
H217 H 0.70051 0.15666 0.25414 0.0
H218 H 0.70523 0.13578 0.31212 0.0
H219 H 0.73847 0.20739 0.30039 0.0
H220 H 0.66963 0.46014 0.27254 0.0
H221 H 0.68991 0.38757 0.25829 0.0
H222 H 0.752 0.41294 0.31229 0.0
H223 H 0.7721 0.34064 0.29803 0.0
H224 H 0.84354 0.45657 0.24584 0.0
H225 H 0.82303 0.38879 0.26231 0.0
H226 H 0.75591 0.40104 0.20848 0.0
H227 H 0.73747 0.33265 0.22477 0.0
N228 N 0.7812 0.27083 0.24807 0.0
N229 N 0.73305 0.27277 0.27574 0.0
C230 C 0.67833 0.9319 0.74473 0.0
C231 C 0.69514 0.93498 0.72913 0.0
C232 C 0.6893 0.89285 0.75413 0.0
C233 C 0.71716 0.85618 0.74808 0.0
C234 C 0.72361 0.89833 0.72328 0.0
C235 C 0.73407 0.85919 0.7326 0.0
C236 C 0.7273 0.8134 0.75739 0.0
C237 C 0.8053 0.93366 0.78094 0.0
C238 C 0.78962 0.94169 0.79644 0.0
C239 C 0.79253 0.89245 0.7729 0.0
C240 C 0.76391 0.85847 0.78023 0.0
C241 C 0.76092 0.9076 0.80371 0.0
C242 C 0.74854 0.86627 0.79572 0.0
C243 C 0.75063 0.81419 0.77208 0.0
C244 C 0.81052 0.61078 0.77653 0.0
C245 C 0.80921 0.60374 0.7929 0.0
C246 C 0.792 0.65191 0.76992 0.0
C247 C 0.77075 0.68641 0.77949 0.0
C248 C 0.78917 0.63887 0.80252 0.0
C249 C 0.77024 0.67986 0.79588 0.0
C250 C 0.75064 0.72991 0.77245 0.0
C251 C 0.66223 0.61025 0.75487 0.0
C252 C 0.66135 0.60407 0.73846 0.0
C253 C 0.68179 0.65103 0.76145 0.0
C254 C 0.70222 0.68579 0.75176 0.0
C255 C 0.68044 0.63942 0.72877 0.0
C256 C 0.70066 0.67983 0.73535 0.0
C257 C 0.72305 0.72941 0.75856 0.0
H258 H 0.65571 0.95904 0.74956 0.0
H259 H 0.67522 0.89081 0.76597 0.0
H260 H 0.73794 0.89981 0.71146 0.0
H261 H 0.75565 0.83122 0.72773 0.0
H262 H 0.82748 0.95925 0.77504 0.0
H263 H 0.80548 0.88687 0.76104 0.0
H264 H 0.74895 0.91235 0.81572 0.0
H265 H 0.72674 0.84038 0.80164 0.0
H266 H 0.82657 0.58482 0.76886 0.0
H267 H 0.79453 0.65679 0.75729 0.0
H268 H 0.78751 0.63433 0.81518 0.0
H269 H 0.75459 0.70615 0.80352 0.0
H270 H 0.64716 0.58383 0.76259 0.0
H271 H 0.68061 0.65544 0.77411 0.0
H272 H 0.6805 0.63541 0.71607 0.0
H273 H 0.71559 0.70624 0.72759 0.0
N274 N 0.71375 0.77115 0.75134 0.0
N275 N 0.76207 0.77233 0.77895 0.0
C276 C 0.67347 0.48113 0.99569 0.0
C277 C 0.67685 0.43338 0.99135 0.0
C278 C 0.63112 0.49961 1.00127 0.0
C279 C 0.59161 0.47038 0.00335 0.0
C280 C 0.63722 0.40414 0.99341 0.0
C281 C 0.59511 0.42247 0.99937 0.0
C282 C 0.54565 0.49016 0.00835 0.0
C283 C 0.64722 0.51997 0.04781 0.0
C284 C 0.65962 0.56799 0.04897 0.0
C285 C 0.60849 0.50571 0.03874 0.0
C286 C 0.58106 0.53907 0.03065 0.0
C287 C 0.63146 0.60129 0.04099 0.0
C288 C 0.59239 0.58702 0.0321 0.0
C289 C 0.54108 0.52419 0.02047 0.0
C290 C 0.3324 0.54111 0.02857 0.0
C291 C 0.32775 0.59018 0.03037 0.0
C292 C 0.37469 0.52165 0.02325 0.0
C293 C 0.41302 0.55088 0.01951 0.0
C294 C 0.366 0.6194 0.02637 0.0
C295 C 0.40836 0.59987 0.02108 0.0
C296 C 0.45883 0.53036 0.01489 0.0
C297 C 0.35792 0.50049 0.97528 0.0
C298 C 0.34571 0.45256 0.97404 0.0
C299 C 0.3961 0.51464 0.98461 0.0
C300 C 0.42304 0.48115 0.99284 0.0
C301 C 0.37304 0.41906 0.98216 0.0
C302 C 0.41162 0.43319 0.99133 0.0
C303 C 0.46321 0.49597 0.00294 0.0
H304 H 0.70329 0.50468 0.99446 0.0
H305 H 0.62912 0.5371 0.00353 0.0
H306 H 0.63807 0.36745 0.98989 0.0
H307 H 0.56493 0.39933 1.00062 0.0
H308 H 0.66715 0.49328 0.05403 0.0
H309 H 0.59997 0.46853 0.03803 0.0
H310 H 0.64003 0.63847 0.04134 0.0
H311 H 0.57178 0.6134 0.02596 0.0
H312 H 0.30403 0.51755 0.03189 0.0
H313 H 0.37787 0.48365 0.02254 0.0
H314 H 0.3634 0.65734 0.02753 0.0
H315 H 0.43762 0.62299 0.01831 0.0
H316 H 0.33749 0.52715 0.96921 0.0
H317 H 0.40463 0.5518 0.98538 0.0
H318 H 0.36484 0.38184 0.9813 0.0
H319 H 0.43207 0.4067 0.99748 0.0
N320 N 0.50646 0.47711 1.00016 0.0
N321 N 0.49786 0.54327 0.02316 0.0
C322 C 0.83071 0.49347 0.52515 0.0
C323 C 0.82315 0.44681 0.53018 0.0
C324 C 0.87523 0.50799 0.52008 0.0
C325 C 0.91282 0.47577 0.51933 0.0
C326 C 0.86122 0.41494 0.52974 0.0
C327 C 0.9055 0.42927 0.52436 0.0
C328 C 0.96014 0.49066 0.51386 0.0
C329 C 0.85777 0.51145 0.47435 0.0
C330 C 0.85372 0.55813 0.46899 0.0
C331 C 0.89545 0.49808 0.48401 0.0
C332 C 0.92888 0.53156 0.48904 0.0
C333 C 0.88857 0.59097 0.47325 0.0
C334 C 0.9257 0.57784 0.4832 0.0
C335 C 0.96726 0.5188 0.50027 0.0
C336 C 0.17923 0.5314 0.49574 0.0
C337 C 0.18286 0.57848 0.49064 0.0
C338 C 0.13612 0.51325 0.50086 0.0
C339 C 0.09605 0.54227 0.5016 0.0
C340 C 0.14254 0.60732 0.49132 0.0
C341 C 0.09972 0.58943 0.49678 0.0
C342 C 0.04946 0.52341 0.50633 0.0
C343 C 0.14716 0.50021 0.54752 0.0
C344 C 0.15973 0.4523 0.54904 0.0
C345 C 0.10872 0.51377 0.53818 0.0
C346 C 0.08161 0.4798 0.53025 0.0
C347 C 0.13181 0.41842 0.54122 0.0
C348 C 0.09293 0.432 0.53211 0.0
C349 C 0.04262 0.49388 0.51956 0.0
H350 H 0.80236 0.51902 0.52524 0.0
H351 H 0.88024 0.54453 0.51678 0.0
H352 H 0.85729 0.37912 0.53395 0.0
H353 H 0.93411 0.40398 0.52414 0.0
H354 H 0.83182 0.48527 0.47101 0.0
H355 H 0.89799 0.46166 0.48773 0.0
H356 H 0.8863 0.62717 0.46925 0.0
H357 H 0.95129 0.60423 0.48667 0.0
H358 H 0.20949 0.50815 0.49553 0.0
H359 H 0.13408 0.47623 0.50385 0.0
H360 H 0.1435 0.64337 0.48713 0.0
H361 H 0.06918 0.61236 0.49702 0.0
H362 H 0.16682 0.5274 0.55359 0.0
H363 H 0.1003 0.55088 0.53706 0.0
H364 H 0.14048 0.3813 0.54179 0.0
H365 H 0.07263 0.40519 0.52606 0.0
N366 N 0.99819 0.47865 0.5228 0.0
N367 N 0.01157 0.53458 0.49723 0.0
Fe368 Fe 0.00422 0.76113 0.15494 0.0
O369 O 0.04111 0.73261 0.13733 0.0
Fe370 Fe 0.89781 0.7902 0.13737 0.0
Fe371 Fe 0.11033 0.73345 0.1368 0.0
O372 O 0.96704 0.79105 0.13768 0.0
O373 O 0.96698 0.79104 0.1361 0.0
O374 O 0.04116 0.73273 0.13576 0.0
Fe375 Fe 1.00379 0.76234 0.11839 0.0
C376 C 0.09112 0.81898 0.15806 0.0
O377 O 0.04769 0.72346 0.17087 0.0
O378 O 0.10145 0.68587 0.15477 0.0
O379 O 0.95973 0.70407 0.11732 0.0
O380 O 0.88988 0.73931 0.12046 0.0
O381 O 0.8912 0.73848 0.1546 0.0
O382 O 0.96123 0.70355 0.15503 0.0
O383 O 0.10224 0.68838 0.11779 0.0
O384 O 0.04818 0.72812 0.10229 0.0
C385 C 0.91751 0.70359 0.15809 0.0
O386 O 0.95893 0.79742 0.1027 0.0
O387 O 0.90535 0.83633 0.11864 0.0
O388 O 0.04715 0.81871 0.15544 0.0
O389 O 0.11747 0.78435 0.15428 0.0
C390 C 0.0794 0.69104 0.16807 0.0
C391 C 0.08185 0.69743 0.10438 0.0
C392 C 0.09246 0.8196 0.11564 0.0
O393 O 0.11779 0.78531 0.1202 0.0
O394 O 0.04783 0.82064 0.11749 0.0
C395 C 0.91505 0.70523 0.11562 0.0
O396 O 0.90708 0.83656 0.15568 0.0
O397 O 0.96098 0.79748 0.17131 0.0
C398 C 0.92538 0.82803 0.10511 0.0
C399 C 0.92906 0.82997 0.16892 0.0
Fe400 Fe 0.50698 0.76007 0.40596 0.0
O401 O 0.47961 0.72144 0.38863 0.0
Fe402 Fe 0.52752 0.8678 0.38807 0.0
Fe403 Fe 0.48295 0.65265 0.3886 0.0
O404 O 0.53294 0.79884 0.38839 0.0
O405 O 0.53313 0.79867 0.38677 0.0
O406 O 0.47918 0.72158 0.38704 0.0
Fe407 Fe 0.50581 0.75964 0.36929 0.0
C408 C 0.56977 0.67659 0.40878 0.0
O409 O 0.47463 0.71524 0.42232 0.0
O410 O 0.43573 0.66087 0.40685 0.0
O411 O 0.44529 0.80011 0.36844 0.0
O412 O 0.47628 0.87204 0.37115 0.0
O413 O 0.47513 0.87141 0.40526 0.0
O414 O 0.4463 0.79866 0.40662 0.0
O415 O 0.43637 0.65789 0.36998 0.0
O416 O 0.47251 0.71237 0.3536 0.0
C417 C 0.44268 0.84253 0.40916 0.0
O418 O 0.53825 0.80671 0.35332 0.0
O419 O 0.57385 0.86266 0.36935 0.0
O420 O 0.56735 0.72063 0.40618 0.0
O421 O 0.53567 0.64881 0.40561 0.0
C422 C 0.44177 0.68413 0.41987 0.0
C423 C 0.44319 0.67772 0.35633 0.0
C424 C 0.56708 0.67356 0.36677 0.0
O425 O 0.53411 0.64697 0.37172 0.0
O426 O 0.56608 0.71839 0.36825 0.0
C427 C 0.44381 0.84461 0.36645 0.0
O428 O 0.57492 0.86216 0.40635 0.0
O429 O 0.54041 0.80544 0.42198 0.0
C430 C 0.56705 0.84198 0.35583 0.0
C431 C 0.5706 0.83926 0.41952 0.0
Fe432 Fe 0.50344 0.26155 0.65512 0.0
O433 O 0.54212 0.2909 0.63814 0.0
Fe434 Fe 0.39991 0.2305 0.63673 0.0
Fe435 Fe 0.61135 0.28981 0.6388 0.0
O436 O 0.46884 0.23176 0.6373 0.0
O437 O 0.46904 0.23165 0.63571 0.0
O438 O 0.54225 0.29092 0.63655 0.0
Fe439 Fe 0.50675 0.26198 0.61853 0.0
C440 C 0.5765 0.33153 0.66958 0.0
O441 O 0.54645 0.20425 0.65594 0.0
O442 O 0.6162 0.2393 0.6565 0.0
O443 O 0.46346 0.22729 0.60216 0.0
O444 O 0.40935 0.18672 0.61746 0.0
O445 O 0.41035 0.18193 0.65436 0.0
O446 O 0.45947 0.22403 0.67084 0.0
O447 O 0.62114 0.23788 0.62235 0.0
O448 O 0.5513 0.20415 0.6176 0.0
C449 C 0.43179 0.18848 0.6677 0.0
O450 O 0.46152 0.31946 0.61742 0.0
O451 O 0.39174 0.28341 0.6205 0.0
O452 O 0.54456 0.29895 0.67176 0.0
O453 O 0.60009 0.33736 0.65662 0.0
C454 C 0.58946 0.20464 0.65984 0.0
C455 C 0.59621 0.20464 0.61676 0.0
C456 C 0.58785 0.32645 0.60599 0.0
O457 O 0.60609 0.33476 0.61979 0.0
O458 O 0.55289 0.29766 0.60317 0.0
C459 C 0.43004 0.1962 0.60413 0.0
O460 O 0.39143 0.27992 0.65468 0.0
O461 O 0.45945 0.3186 0.65475 0.0
C462 C 0.41675 0.31783 0.61575 0.0
C463 C 0.41571 0.31663 0.65774 0.0
Fe464 Fe 0.0049 0.26047 0.90605 0.0
O465 O 0.0315 0.22241 0.88848 0.0
Fe466 Fe 0.97779 0.36706 0.88932 0.0
Fe467 Fe 0.02874 0.15344 0.88843 0.0
O468 O 0.9759 0.29827 0.8889 0.0
O469 O 0.97529 0.29801 0.88732 0.0
O470 O 0.03179 0.22263 0.88691 0.0
Fe471 Fe 1.00298 0.26077 0.86951 0.0
C472 C 0.07179 0.18459 0.91955 0.0
O473 O 0.94556 0.22016 0.9069 0.0
O474 O 0.97698 0.14847 0.90588 0.0
O475 O 0.96828 0.30745 0.85396 0.0
O476 O 0.93188 0.36164 0.87048 0.0
O477 O 0.9302 0.3569 0.90732 0.0
O478 O 0.97168 0.30414 0.92259 0.0
O479 O 0.97685 0.1472 0.87186 0.0
O480 O 0.94366 0.21809 0.8687 0.0
C481 C 0.93729 0.33357 0.92025 0.0
O482 O 0.06204 0.3038 0.86842 0.0
O483 O 0.02938 0.37458 0.87266 0.0
O484 O 0.03988 0.21666 0.922 0.0
O485 O 0.07676 0.16131 0.90647 0.0
C486 C 0.94358 0.17637 0.90971 0.0
C487 C 0.94314 0.17329 0.86724 0.0
C488 C 0.06671 0.18028 0.85601 0.0
O489 O 0.0742 0.15977 0.86951 0.0
O490 O 0.03679 0.21462 0.85349 0.0
C491 C 0.93862 0.34173 0.85683 0.0
O492 O 0.02966 0.37133 0.9068 0.0
O493 O 0.06426 0.3013 0.90584 0.0
C494 C 0.06237 0.34874 0.86729 0.0
C495 C 0.06512 0.34469 0.9094 0.0
C496 C 0.24909 0.94696 0.46821 0.0
C497 C 0.20287 0.93861 0.4631 0.0
C498 C 0.28796 0.9314 0.45933 0.0
C499 C 0.28043 0.90806 0.44477 0.0
C500 C 0.2337 0.90026 0.43945 0.0
C501 C 0.19547 0.91506 0.44879 0.0
C502 C 0.33708 0.93927 0.46565 0.0
C503 C 0.2241 0.87652 0.42386 0.0
C504 C 0.38395 0.90564 0.41603 0.0
C505 C 0.40073 0.85951 0.41794 0.0
C506 C 0.34416 0.92159 0.42441 0.0
C507 C 0.32146 0.8911 0.43528 0.0
C508 C 0.33847 0.84452 0.43727 0.0
C509 C 0.37744 0.82917 0.42844 0.0
C510 C 0.32634 0.97102 0.42161 0.0
C511 C 0.31606 0.81101 0.4489 0.0
H512 H 0.25478 0.96486 0.47934 0.0
H513 H 0.15969 0.9089 0.44481 0.0
H514 H 0.35548 0.90495 0.4669 0.0
H515 H 0.35783 0.96087 0.45725 0.0
H516 H 0.33691 0.9573 0.47727 0.0
H517 H 0.18586 0.87502 0.42109 0.0
H518 H 0.24246 0.89568 0.41425 0.0
H519 H 0.23817 0.84004 0.424 0.0
H520 H 0.40152 0.92905 0.40782 0.0
H521 H 0.39039 0.79352 0.43005 0.0
H522 H 0.32912 0.99195 0.43261 0.0
H523 H 0.28853 0.97006 0.41827 0.0
H524 H 0.34633 0.98942 0.41217 0.0
H525 H 0.3343 0.77636 0.44929 0.0
H526 H 0.27861 0.80494 0.44575 0.0
H527 H 0.31663 0.82668 0.46088 0.0
C528 C 0.31515 0.99238 0.71909 0.0
C529 C 0.34517 0.96338 0.7279 0.0
C530 C 0.3325 0.03225 0.71122 0.0
C531 C 0.38124 0.04301 0.71196 0.0
C532 C 0.41141 0.01488 0.72137 0.0
C533 C 0.39293 0.97546 0.72929 0.0
C534 C 0.29893 0.06169 0.70153 0.0
C535 C 0.46366 0.02439 0.72233 0.0
C536 C 0.42354 0.10439 0.67503 0.0
C537 C 0.42469 0.1517 0.67976 0.0
C538 C 0.41232 0.06846 0.68569 0.0
C539 C 0.40082 0.0802 0.70143 0.0
C540 C 0.40406 0.12776 0.70649 0.0
C541 C 0.41654 0.16308 0.69558 0.0
C542 C 0.411 0.01808 0.67992 0.0
C543 C 0.39224 0.14153 0.7232 0.0
H544 H 0.27807 0.98346 0.71821 0.0
H545 H 0.41627 0.95293 0.73603 0.0
H546 H 0.30324 0.09962 0.7044 0.0
H547 H 0.30711 0.05725 0.68883 0.0
H548 H 0.26154 0.05163 0.7035 0.0
H549 H 0.47962 0.00781 0.73292 0.0
H550 H 0.48106 0.00929 0.71176 0.0
H551 H 0.47123 0.06275 0.72256 0.0
H552 H 0.43085 0.0955 0.66284 0.0
H553 H 0.41764 0.19969 0.69924 0.0
H554 H 0.37417 0.00491 0.68014 0.0
H555 H 0.43208 0.99516 0.68782 0.0
H556 H 0.42483 0.01451 0.66773 0.0
H557 H 0.35416 0.13534 0.72539 0.0
H558 H 0.40023 0.17919 0.72562 0.0
H559 H 0.41216 0.11928 0.73163 0.0
C560 C 0.29716 0.15625 0.97312 0.0
C561 C 0.29164 0.12233 0.985 0.0
C562 C 0.25853 0.17137 0.96418 0.0
C563 C 0.21349 0.15184 0.96714 0.0
C564 C 0.20707 0.12033 0.97988 0.0
C565 C 0.24631 0.10591 0.98867 0.0
C566 C 0.26654 0.20568 0.95083 0.0
C567 C 0.15937 0.09942 0.98355 0.0
C568 C 0.10919 0.20495 0.94545 0.0
C569 C 0.1058 0.17482 0.93236 0.0
C570 C 0.14361 0.19765 0.95708 0.0
C571 C 0.17503 0.15919 0.95559 0.0
C572 C 0.17114 0.12815 0.94259 0.0
C573 C 0.13662 0.13634 0.93115 0.0
C574 C 0.14647 0.23117 0.97087 0.0
C575 C 0.20419 0.08678 0.94056 0.0
H576 H 0.3321 0.16894 0.97016 0.0
H577 H 0.24178 0.08042 0.99807 0.0
H578 H 0.26316 0.1869 0.93941 0.0
H579 H 0.23949 0.23391 0.95103 0.0
H580 H 0.302 0.22222 0.95137 0.0
H581 H 0.15906 0.08071 0.99504 0.0
H582 H 0.13197 0.12731 0.98373 0.0
H583 H 0.14959 0.07392 0.97418 0.0
H584 H 0.0856 0.23486 0.94649 0.0
H585 H 0.1342 0.1127 0.92115 0.0
H586 H 0.1833 0.24304 0.97276 0.0
H587 H 0.13514 0.21266 0.98174 0.0
H588 H 0.12372 0.26267 0.96923 0.0
H589 H 0.241 0.09964 0.93946 0.0
H590 H 0.19566 0.06533 0.92998 0.0
H591 H 0.20265 0.06362 0.95108 0.0
C592 C 0.18045 0.05757 0.19914 0.0
C593 C 0.19313 0.04854 0.21479 0.0
C594 C 0.1678 0.02065 0.18897 0.0
C595 C 0.16659 0.97382 0.19476 0.0
C596 C 0.17994 0.96457 0.21054 0.0
C597 C 0.19367 1.00206 0.22033 0.0
C598 C 0.15462 0.03186 0.17215 0.0
C599 C 0.17802 0.91533 0.21727 0.0
C600 C 0.08091 0.88882 0.17558 0.0
C601 C 0.11103 0.85948 0.16686 0.0
C602 C 0.09861 0.92628 0.18456 0.0
C603 C 0.14768 0.93512 0.18473 0.0
C604 C 0.17828 0.90649 0.17564 0.0
C605 C 0.15962 0.86865 0.16691 0.0
C606 C 0.06475 0.95564 0.19416 0.0
C607 C 0.23065 0.91577 0.17517 0.0
H608 H 0.18052 0.09361 0.19487 0.0
H609 H 0.20342 0.9953 0.23247 0.0
H610 H 0.17441 0.0088 0.16391 0.0
H611 H 0.11655 0.02483 0.17029 0.0
H612 H 0.16181 0.06925 0.16907 0.0
H613 H 0.19144 0.91378 0.22955 0.0
H614 H 0.14107 0.90244 0.21716 0.0
H615 H 0.19907 0.89085 0.20989 0.0
H616 H 0.04332 0.88193 0.17568 0.0
H617 H 0.18302 0.84643 0.16006 0.0
H618 H 0.06973 0.9937 0.19169 0.0
H619 H 0.07173 0.95011 0.20689 0.0
H620 H 0.02747 0.94641 0.19168 0.0
H621 H 0.2374 0.95278 0.17159 0.0
H622 H 0.2493 0.89187 0.16688 0.0
H623 H 0.24588 0.9111 0.1871 0.0
C624 C 0.22127 0.14265 0.55065 0.0
C625 C 0.22452 0.10856 0.53873 0.0
C626 C 0.2613 0.15725 0.55898 0.0
C627 C 0.30571 0.13716 0.55534 0.0
C628 C 0.30972 0.1047 0.54275 0.0
C629 C 0.26898 0.09062 0.53462 0.0
C630 C 0.25553 0.19216 0.57231 0.0
C631 C 0.3566 0.08324 0.53836 0.0
C632 C 0.40613 0.20028 0.57585 0.0
C633 C 0.40844 0.17483 0.59 0.0
C634 C 0.37517 0.1865 0.56378 0.0
C635 C 0.34628 0.1463 0.56597 0.0
C636 C 0.35185 0.11813 0.57961 0.0
C637 C 0.38288 0.13277 0.59146 0.0
C638 C 0.37056 0.21721 0.54935 0.0
C639 C 0.322 0.07479 0.58236 0.0
H640 H 0.18703 0.15634 0.554 0.0
H641 H 0.27177 0.06486 0.52522 0.0
H642 H 0.26252 0.17432 0.58371 0.0
H643 H 0.28136 0.2213 0.57114 0.0
H644 H 0.21952 0.20753 0.57271 0.0
H645 H 0.35492 0.06391 0.52699 0.0
H646 H 0.38412 0.11093 0.53752 0.0
H647 H 0.36775 0.0582 0.54768 0.0
H648 H 0.4257 0.23293 0.57466 0.0
H649 H 0.385 0.11271 0.60231 0.0
H650 H 0.33808 0.23882 0.55032 0.0
H651 H 0.36739 0.1954 0.53855 0.0
H652 H 0.40108 0.24146 0.54802 0.0
H653 H 0.28493 0.08557 0.58451 0.0
H654 H 0.33432 0.05399 0.59266 0.0
H655 H 0.32223 0.0517 0.57182 0.0
C656 C 0.18218 0.00619 0.7917 0.0
C657 C 0.17343 0.96192 0.79851 0.0
C658 C 0.16557 0.04783 0.79878 0.0
C659 C 0.13942 0.04507 0.81296 0.0
C660 C 0.12952 1.00037 0.81966 0.0
C661 C 0.14678 0.95942 0.81239 0.0
C662 C 0.17703 0.09477 0.79134 0.0
C663 C 0.10134 0.99579 0.83469 0.0
C664 C 0.13578 0.14061 0.84398 0.0
C665 C 0.08951 0.15722 0.84243 0.0
C666 C 0.15392 0.10681 0.83356 0.0
C667 C 0.12472 0.0886 0.82148 0.0
C668 C 0.07924 0.10809 0.81909 0.0
C669 C 0.06223 0.14254 0.82958 0.0
C670 C 0.20284 0.08762 0.8364 0.0
C671 C 0.04694 0.08957 0.8064 0.0
H672 H 0.20301 0.00833 0.78101 0.0
H673 H 0.13923 0.92528 0.81755 0.0
H674 H 0.14439 0.11574 0.78969 0.0
H675 H 0.20044 0.11524 0.79927 0.0
H676 H 0.19483 0.09077 0.77975 0.0
H677 H 0.09482 0.95842 0.83795 0.0
H678 H 0.12046 0.01314 0.84451 0.0
H679 H 0.06688 0.01389 0.83342 0.0
H680 H 0.1568 0.15193 0.85396 0.0
H681 H 0.02616 0.15482 0.82852 0.0
H682 H 0.22267 0.08499 0.82517 0.0
H683 H 0.20022 0.05156 0.8414 0.0
H684 H 0.22323 0.10991 0.84473 0.0
H685 H 0.06616 0.08562 0.79509 0.0
H686 H 0.01604 0.11298 0.80452 0.0
H687 H 0.03386 0.05415 0.80983 0.0
C688 C 0.26266 0.97057 0.05865 0.0
C689 C 0.30263 0.94154 0.05712 0.0
C690 C 0.22374 0.95678 0.06788 0.0
C691 C 0.22421 0.91252 0.07558 0.0
C692 C 0.26396 0.88269 0.07387 0.0
C693 C 0.30272 0.89773 0.06486 0.0
C694 C 0.18219 0.98969 0.06946 0.0
C695 C 0.26578 0.83487 0.0817 0.0
C696 C 0.15161 0.88293 0.11191 0.0
C697 C 0.11618 0.8544 0.10552 0.0
C698 C 0.18497 0.90514 0.10216 0.0
C699 C 0.18371 0.89726 0.08566 0.0
C700 C 0.14639 0.87034 0.07911 0.0
C701 C 0.11283 0.84952 0.08914 0.0
C702 C 0.22357 0.93411 0.10964 0.0
C703 C 0.14419 0.85999 0.06168 0.0
H704 H 0.2615 1.00407 0.05254 0.0
H705 H 0.33348 0.87522 0.06409 0.0
H706 H 0.14976 0.97218 0.06509 0.0
H707 H 0.1763 0.99833 0.08206 0.0
H708 H 0.18731 0.02306 0.06282 0.0
H709 H 0.29788 0.81468 0.07842 0.0
H710 H 0.26515 0.83918 0.09469 0.0
H711 H 0.23434 0.8138 0.07839 0.0
H712 H 0.15482 0.88565 0.12462 0.0
H713 H 0.0863 0.82615 0.08427 0.0
H714 H 0.22847 0.96774 0.10317 0.0
H715 H 0.25734 0.91447 0.10902 0.0
H716 H 0.21597 0.94217 0.1222 0.0
H717 H 0.11024 0.84339 0.05824 0.0
H718 H 0.17324 0.8356 0.05847 0.0
H719 H 0.14906 0.89276 0.05474 0.0
C720 C 0.37065 0.04454 0.3118 0.0
C721 C 0.32863 0.04314 0.30303 0.0
C722 C 0.38431 0.00672 0.32144 0.0
C723 C 0.3545 0.96689 0.32289 0.0
C724 C 0.31203 0.96503 0.31418 0.0
C725 C 0.29999 1.00274 0.30419 0.0
C726 C 0.43057 0.00972 0.33023 0.0
C727 C 0.27896 0.92355 0.31562 0.0
C728 C 0.41626 0.85884 0.33932 0.0
C729 C 0.40949 0.86527 0.35551 0.0
C730 C 0.39624 0.89015 0.32838 0.0
C731 C 0.36788 0.92795 0.33382 0.0
C732 C 0.35758 0.9318 0.35012 0.0
C733 C 0.37933 0.90092 0.36082 0.0
C734 C 0.4091 0.8854 0.31119 0.0
C735 C 0.32671 0.97085 0.35641 0.0
H736 H 0.39278 0.07562 0.31142 0.0
H737 H 0.26799 1.00037 0.29728 0.0
H738 H 0.45219 0.97786 0.3279 0.0
H739 H 0.45142 0.04132 0.32687 0.0
H740 H 0.4238 0.01108 0.34309 0.0
H741 H 0.24711 0.92752 0.30812 0.0
H742 H 0.29735 0.89057 0.31223 0.0
H743 H 0.26761 0.91949 0.32806 0.0
H744 H 0.44068 0.83196 0.33531 0.0
H745 H 0.37498 0.90636 0.37339 0.0
H746 H 0.43087 0.91604 0.30755 0.0
H747 H 0.37691 0.88559 0.30379 0.0
H748 H 0.42924 0.8526 0.30875 0.0
H749 H 0.34611 0.00478 0.35584 0.0
H750 H 0.31616 0.96454 0.36884 0.0
H751 H 0.29446 0.97459 0.34912 0.0
C752 C 0.80431 0.13028 0.56409 0.0
C753 C 0.80581 0.08524 0.55717 0.0
C754 C 0.76571 0.14486 0.57327 0.0
C755 C 0.72791 0.1133 0.57607 0.0
C756 C 0.729 0.06782 0.56921 0.0
C757 C 0.76752 0.05457 0.55972 0.0
C758 C 0.76564 0.19409 0.58009 0.0
C759 C 0.68968 0.03296 0.57204 0.0
C760 C 0.6594 0.14522 0.61303 0.0
C761 C 0.62123 0.17029 0.60678 0.0
C762 C 0.69244 0.12321 0.60312 0.0
C763 C 0.6881 0.1279 0.58655 0.0
C764 C 0.64811 0.15114 0.58021 0.0
C765 C 0.61485 0.17168 0.59043 0.0
C766 C 0.73378 0.09783 0.61041 0.0
C767 C 0.64252 0.15802 0.56267 0.0
H768 H 0.83373 0.15419 0.56257 0.0
H769 H 0.76739 0.02009 0.55423 0.0
H770 H 0.7329 0.21288 0.57665 0.0
H771 H 0.76621 0.19226 0.59315 0.0
H772 H 0.79639 0.21523 0.57611 0.0
H773 H 0.69576 0.9989 0.5659 0.0
H774 H 0.68613 0.02606 0.58485 0.0
H775 H 0.65568 0.04789 0.56795 0.0
H776 H 0.66471 0.14492 0.62569 0.0
H777 H 0.58604 0.19225 0.58561 0.0
H778 H 0.76619 0.11924 0.60885 0.0
H779 H 0.73971 0.06347 0.60448 0.0
H780 H 0.72855 0.09152 0.62322 0.0
H781 H 0.66861 0.18443 0.55853 0.0
H782 H 0.60668 0.17072 0.55954 0.0
H783 H 0.64952 0.1247 0.55624 0.0
C784 C 0.63558 0.06312 0.31004 0.0
C785 C 0.6654 0.06068 0.29691 0.0
C786 C 0.61889 0.02203 0.31735 0.0
C787 C 0.63283 0.97734 0.31151 0.0
C788 C 0.66164 0.97461 0.29792 0.0
C789 C 0.6775 0.01636 0.29074 0.0
C790 C 0.58742 0.02649 0.33164 0.0
C791 C 0.67694 0.92765 0.29129 0.0
C792 C 0.63349 0.88644 0.344 0.0
C793 C 0.58898 0.86573 0.34223 0.0
C794 C 0.64981 0.92026 0.33328 0.0
C795 C 0.62059 0.93411 0.32058 0.0
C796 C 0.57727 0.91042 0.31798 0.0
C797 C 0.562 0.87623 0.32885 0.0
C798 C 0.69655 0.94404 0.33637 0.0
C799 C 0.54498 0.92393 0.30461 0.0
H800 H 0.62545 0.09732 0.31465 0.0
H801 H 0.70064 0.01433 0.28059 0.0
H802 H 0.5547 0.00566 0.32993 0.0
H803 H 0.6057 0.01203 0.34214 0.0
H804 H 0.57753 0.06367 0.33411 0.0
H805 H 0.69587 0.93143 0.2799 0.0
H806 H 0.70061 0.90976 0.2998 0.0
H807 H 0.64591 0.90443 0.28952 0.0
H808 H 0.65438 0.87823 0.35434 0.0
H809 H 0.52727 0.86072 0.32755 0.0
H810 H 0.6903 0.98067 0.34048 0.0
H811 H 0.71768 0.94607 0.3254 0.0
H812 H 0.71748 0.92527 0.34548 0.0
H813 H 0.52418 0.9554 0.30808 0.0
H814 H 0.51993 0.89506 0.30175 0.0
H815 H 0.56522 0.93305 0.29384 0.0
C816 C 0.76535 0.93557 0.03571 0.0
C817 C 0.72088 0.91681 0.03938 0.0
C818 C 0.80569 0.92165 0.04407 0.0
C819 C 0.80129 0.88831 0.05637 0.0
C820 C 0.757 0.86725 0.0595 0.0
C821 C 0.71732 0.88188 0.051 0.0
C822 C 0.85251 0.94422 0.04024 0.0
C823 C 0.75092 0.83122 0.07246 0.0
C824 C 0.90185 0.82561 0.0768 0.0
C825 C 0.90298 0.84984 0.09121 0.0
C826 C 0.8711 0.83966 0.06474 0.0
C827 C 0.84127 0.87898 0.06718 0.0
C828 C 0.84546 0.906 0.08114 0.0
C829 C 0.87622 0.891 0.09302 0.0
C830 C 0.86778 0.81005 0.05 0.0
C831 C 0.8146 0.94848 0.08414 0.0
H832 H 0.76843 0.96195 0.02653 0.0
H833 H 0.68308 0.86753 0.05402 0.0
H834 H 0.86268 0.96852 0.04991 0.0
H835 H 0.8805 0.91705 0.0393 0.0
H836 H 0.85126 0.9646 0.02908 0.0
H837 H 0.71517 0.81519 0.07245 0.0
H838 H 0.77735 0.80263 0.07124 0.0
H839 H 0.7568 0.84826 0.08407 0.0
H840 H 0.92234 0.79363 0.07534 0.0
H841 H 0.87741 0.91012 0.10407 0.0
H842 H 0.8644 0.83262 0.03939 0.0
H843 H 0.83586 0.78751 0.05065 0.0
H844 H 0.89896 0.78672 0.04857 0.0
H845 H 0.81499 0.97247 0.07382 0.0
H846 H 0.82594 0.9686 0.09471 0.0
H847 H 0.77764 0.9368 0.08593 0.0
C848 C 0.85259 0.9975 0.80546 0.0
C849 C 0.80499 0.98417 0.80538 0.0
C850 C 0.86867 0.03428 0.81516 0.0
C851 C 0.83629 0.05869 0.82493 0.0
C852 C 0.78778 0.04711 0.82426 0.0
C853 C 0.77276 0.00975 0.81458 0.0
C854 C 0.92079 0.04521 0.81558 0.0
C855 C 0.75205 0.0728 0.83426 0.0
C856 C 0.89349 0.10302 0.86234 0.0
C857 C 0.9054 0.14942 0.85827 0.0
C858 C 0.86824 0.0741 0.85197 0.0
C859 C 0.85435 0.09203 0.83712 0.0
C860 C 0.86268 0.14015 0.8335 0.0
C861 C 0.88823 0.16843 0.84416 0.0
C862 C 0.85991 0.02321 0.85644 0.0
C863 C 0.84778 0.16082 0.81791 0.0
H864 H 0.87773 0.97769 0.79847 0.0
H865 H 0.7358 1.00003 0.81439 0.0
H866 H 0.92681 0.08354 0.81393 0.0
H867 H 0.93537 0.03553 0.82727 0.0
H868 H 0.94072 0.02576 0.80637 0.0
H869 H 0.71528 0.06413 0.83081 0.0
H870 H 0.75697 0.06304 0.84681 0.0
H871 H 0.75718 0.11149 0.83334 0.0
H872 H 0.90648 0.08838 0.87332 0.0
H873 H 0.89768 0.20419 0.84092 0.0
H874 H 0.882 1.00004 0.84891 0.0
H875 H 0.82258 0.01333 0.8544 0.0
H876 H 0.86874 0.01611 0.86897 0.0
H877 H 0.8719 0.14814 0.80852 0.0
H878 H 0.84887 0.19998 0.81805 0.0
H879 H 0.81163 0.14922 0.81476 0.0
C880 C 0.79627 0.87829 0.47166 0.0
C881 C 0.79122 0.91113 0.48389 0.0
C882 C 0.75726 0.86343 0.46286 0.0
C883 C 0.71208 0.88187 0.46637 0.0
C884 C 0.7063 0.913 0.47926 0.0
C885 C 0.74603 0.92735 0.48787 0.0
C886 C 0.76497 0.83032 0.44916 0.0
C887 C 0.65869 0.93334 0.48338 0.0
C888 C 0.63218 0.89215 0.43091 0.0
C889 C 0.60355 0.85202 0.4324 0.0
C890 C 0.66645 0.90298 0.44219 0.0
C891 C 0.67242 0.873 0.45535 0.0
C892 C 0.64262 0.83339 0.4573 0.0
C893 C 0.60838 0.82338 0.4458 0.0
C894 C 0.69736 0.94578 0.43973 0.0
C895 C 0.64754 0.80117 0.47136 0.0
H896 H 0.83113 0.86603 0.46841 0.0
H897 H 0.74192 0.95229 0.49745 0.0
H898 H 0.73886 0.8013 0.44947 0.0
H899 H 0.75983 0.84968 0.43794 0.0
H900 H 0.80094 0.81483 0.44916 0.0
H901 H 0.65907 0.95187 0.49491 0.0
H902 H 0.64794 0.95887 0.47415 0.0
H903 H 0.63157 0.9052 0.48374 0.0
H904 H 0.62848 0.9149 0.42073 0.0
H905 H 0.58633 0.79242 0.44713 0.0
H906 H 0.73447 0.93452 0.438 0.0
H907 H 0.6964 0.96878 0.45029 0.0
H908 H 0.68642 0.96691 0.42933 0.0
H909 H 0.68448 0.78872 0.47247 0.0
H910 H 0.62393 0.76999 0.47058 0.0
H911 H 0.63901 0.82086 0.48229 0.0
C912 C 0.88506 0.0625 0.21621 0.0
C913 C 0.85451 0.05962 0.22914 0.0
C914 C 0.9013 0.0217 0.2086 0.0
C915 C 0.88629 0.97683 0.21397 0.0
C916 C 0.85742 0.97361 0.22755 0.0
C917 C 0.84197 0.01511 0.23501 0.0
C918 C 0.93258 0.02675 0.19431 0.0
C919 C 0.84024 0.92661 0.23359 0.0
C920 C 0.87418 0.88864 0.18081 0.0
C921 C 0.91631 0.86282 0.1819 0.0
C922 C 0.86323 0.92424 0.19162 0.0
C923 C 0.89507 0.93454 0.20396 0.0
C924 C 0.93642 0.90695 0.20574 0.0
C925 C 0.94657 0.87122 0.19468 0.0
C926 C 0.81845 0.95232 0.18934 0.0
C927 C 0.97042 0.9161 0.21906 0.0
H928 H 0.89554 0.09686 0.21183 0.0
H929 H 0.81823 0.01274 0.245 0.0
H930 H 0.96427 1.00422 0.19558 0.0
H931 H 0.91338 0.01468 0.18365 0.0
H932 H 0.94413 0.06375 0.1924 0.0
H933 H 0.82512 0.92944 0.24563 0.0
H934 H 0.81251 0.91288 0.22559 0.0
H935 H 0.86927 0.90044 0.23375 0.0
H936 H 0.84995 0.88189 0.1712 0.0
H937 H 0.97896 0.8512 0.19571 0.0
H938 H 0.82739 0.98927 0.18623 0.0
H939 H 0.79778 0.95328 0.20043 0.0
H940 H 0.79579 0.93759 0.17987 0.0
H941 H 0.95253 0.91011 0.2305 0.0
H942 H 0.98208 0.95345 0.21889 0.0
H943 H 1.00198 0.89297 0.21843 0.0
C944 C 0.6964 0.10645 0.94928 0.0
C945 C 0.70284 0.08255 0.96357 0.0
C946 C 0.73522 0.12005 0.94001 0.0
C947 C 0.7816 0.11067 0.94538 0.0
C948 C 0.78817 0.08685 0.95989 0.0
C949 C 0.7487 0.07251 0.9687 0.0
C950 C 0.72659 0.14444 0.92447 0.0
C951 C 0.83692 0.07749 0.9663 0.0
C952 C 0.88546 0.11276 0.91673 0.0
C953 C 0.90248 0.15874 0.91877 0.0
C954 C 0.84562 0.09684 0.92511 0.0
C955 C 0.82324 0.12718 0.93611 0.0
C956 C 0.84086 0.17343 0.93834 0.0
C957 C 0.87974 0.18879 0.9295 0.0
C958 C 0.82715 0.04777 0.92205 0.0
C959 C 0.81884 0.20681 0.95011 0.0
H960 H 0.6609 0.11391 0.94527 0.0
H961 H 0.75365 0.05435 0.97982 0.0
H962 H 0.74086 0.18083 0.92488 0.0
H963 H 0.74532 0.12557 0.91487 0.0
H964 H 0.68851 0.14631 0.92149 0.0
H965 H 0.83603 0.05868 0.97778 0.0
H966 H 0.8575 0.05609 0.95779 0.0
H967 H 0.85595 0.11136 0.9679 0.0
H968 H 0.90264 0.08961 0.90833 0.0
H969 H 0.89291 0.22433 0.9312 0.0
H970 H 0.78956 0.04949 0.91848 0.0
H971 H 0.8289 0.02655 0.93301 0.0
H972 H 0.84735 0.02925 0.9127 0.0
H973 H 0.78277 0.21636 0.94623 0.0
H974 H 0.83958 0.23979 0.9515 0.0
H975 H 0.81569 0.18955 0.96179 0.0
C976 C 0.67919 0.0214 0.72495 0.0
C977 C 0.68212 0.9755 0.71883 0.0
C978 C 0.66589 0.05954 0.71538 0.0
C979 C 0.6558 0.05175 0.69925 0.0
C980 C 0.65939 0.00573 0.69293 0.0
C981 C 0.67211 0.96817 0.70281 0.0
C982 C 0.66186 0.10806 0.72259 0.0
C983 C 0.64903 0.996 0.67578 0.0
C984 C 0.57498 0.13684 0.6779 0.0
C985 C 0.60715 0.16534 0.66968 0.0
C986 C 0.59042 0.10026 0.68769 0.0
C987 C 0.63928 0.09127 0.68914 0.0
C988 C 0.67202 0.11957 0.68078 0.0
C989 C 0.65556 0.1566 0.67124 0.0
C990 C 0.55432 0.07134 0.69652 0.0
C991 C 0.72435 0.1105 0.68185 0.0
H992 H 0.68747 0.0276 0.73724 0.0
H993 H 0.67335 0.93281 0.69799 0.0
H994 H 0.68475 0.13326 0.71615 0.0
H995 H 0.62507 0.12097 0.72149 0.0
H996 H 0.67188 0.10842 0.73524 0.0
H997 H 0.65637 0.95881 0.67248 0.0
H998 H 0.61144 1.00366 0.67325 0.0
H999 H 0.67051 0.01947 0.66817 0.0
H1000 H 0.53748 0.14358 0.67689 0.0
H1001 H 0.68054 0.17837 0.66487 0.0
H1002 H 0.56235 0.07142 0.70931 0.0
H1003 H 0.55565 0.03417 0.69247 0.0
H1004 H 0.51787 0.08474 0.69482 0.0
H1005 H 0.73615 0.11347 0.69427 0.0
H1006 H 0.74514 0.13553 0.67456 0.0
H1007 H 0.73225 0.07404 0.6779 0.0
C1008 C 0.74485 0.44387 0.97289 0.0
C1009 C 0.72018 0.41519 0.98355 0.0
C1010 C 0.78357 0.42662 0.96448 0.0
C1011 C 0.79748 0.37907 0.96643 0.0
C1012 C 0.77386 0.35019 0.9775 0.0
C1013 C 0.7356 0.36869 0.986 0.0
C1014 C 0.8082 0.4588 0.95291 0.0
C1015 C 0.78695 0.29908 0.97981 0.0
C1016 C 0.85454 0.33462 0.9292 0.0
C1017 C 0.90237 0.33946 0.93282 0.0
C1018 C 0.81995 0.34354 0.94056 0.0
C1019 C 0.8337 0.35925 0.9557 0.0
C1020 C 0.88216 0.36176 0.95966 0.0
C1021 C 0.91615 0.35117 0.94815 0.0
C1022 C 0.76868 0.3383 0.93613 0.0
C1023 C 0.89797 0.37813 0.97572 0.0
H1024 H 0.73287 0.47949 0.97061 0.0
H1025 H 0.71728 0.34638 0.99436 0.0
H1026 H 0.84691 0.45766 0.95475 0.0
H1027 H 0.80117 0.44663 0.94071 0.0
H1028 H 0.79624 0.49596 0.95397 0.0
H1029 H 0.77623 0.28626 0.99165 0.0
H1030 H 0.76821 0.2775 0.97089 0.0
H1031 H 0.82533 0.29313 0.97831 0.0
H1032 H 0.84421 0.32434 0.91739 0.0
H1033 H 0.95335 0.35435 0.95089 0.0
H1034 H 0.75191 0.3736 0.93553 0.0
H1035 H 0.7497 0.31757 0.94522 0.0
H1036 H 0.76413 0.3206 0.92455 0.0
H1037 H 0.88913 0.416 0.9772 0.0
H1038 H 0.93653 0.37365 0.97744 0.0
H1039 H 0.87906 0.35838 0.98507 0.0
C1040 C 0.82299 0.46746 0.19924 0.0
C1041 C 0.81516 0.47463 0.21541 0.0
C1042 C 0.83677 0.50466 0.18936 0.0
C1043 C 0.84381 0.5501 0.19583 0.0
C1044 C 0.83573 0.5578 0.21209 0.0
C1045 C 0.82117 0.52009 0.22166 0.0
C1046 C 0.84488 0.49508 0.17206 0.0
C1047 C 0.8434 0.60567 0.21945 0.0
C1048 C 0.9287 0.6319 0.17474 0.0
C1049 C 0.898 0.66342 0.16717 0.0
C1050 C 0.91144 0.59495 0.18405 0.0
C1051 C 0.86221 0.58892 0.18576 0.0
C1052 C 0.83091 0.62 0.17793 0.0
C1053 C 0.84919 0.6571 0.16879 0.0
C1054 C 0.94605 0.56283 0.19225 0.0
C1055 C 0.77818 0.61414 0.17928 0.0
H1056 H 0.81937 0.43242 0.19429 0.0
H1057 H 0.8145 0.5263 0.23405 0.0
H1058 H 0.8246 0.52046 0.16479 0.0
H1059 H 0.88271 0.50005 0.16919 0.0
H1060 H 0.83449 0.4587 0.16866 0.0
H1061 H 0.8342 0.6062 0.23217 0.0
H1062 H 0.88089 0.61615 0.21814 0.0
H1063 H 0.82185 0.63258 0.21328 0.0
H1064 H 0.96649 0.63657 0.17365 0.0
H1065 H 0.82524 0.68114 0.16292 0.0
H1066 H 0.93941 0.52559 0.18893 0.0
H1067 H 0.94145 0.56558 0.2052 0.0
H1068 H 0.98314 0.57164 0.18928 0.0
H1069 H 0.7678 0.5783 0.17533 0.0
H1070 H 0.75863 0.64053 0.17215 0.0
H1071 H 0.76721 0.61766 0.19177 0.0
C1072 C 0.81895 0.59633 0.44499 0.0
C1073 C 0.81252 0.57287 0.45937 0.0
C1074 C 0.78011 0.61132 0.43599 0.0
C1075 C 0.73376 0.60376 0.4417 0.0
C1076 C 0.72717 0.58003 0.45623 0.0
C1077 C 0.76661 0.56439 0.46479 0.0
C1078 C 0.78868 0.63564 0.42043 0.0
C1079 C 0.6785 0.57228 0.46295 0.0
C1080 C 0.63733 0.68657 0.42735 0.0
C1081 C 0.6122 0.65789 0.41683 0.0
C1082 C 0.6767 0.66927 0.43554 0.0
C1083 C 0.69224 0.6225 0.43286 0.0
C1084 C 0.66762 0.59367 0.42197 0.0
C1085 C 0.62747 0.61149 0.41425 0.0
C1086 C 0.70105 0.70088 0.4473 0.0
C1087 C 0.68374 0.54406 0.41845 0.0
H1088 H 0.85445 0.60264 0.44075 0.0
H1089 H 0.76161 0.54665 0.47598 0.0
H1090 H 0.76847 0.61782 0.41095 0.0
H1091 H 0.77604 0.67261 0.42104 0.0
H1092 H 0.82659 0.63594 0.41714 0.0
H1093 H 0.67935 0.55282 0.47431 0.0
H1094 H 0.66097 0.60678 0.4649 0.0
H1095 H 0.65651 0.5522 0.45449 0.0
H1096 H 0.62546 0.72235 0.42948 0.0
H1097 H 0.60839 0.58934 0.40602 0.0
H1098 H 0.73884 0.70485 0.44422 0.0
H1099 H 0.69929 0.68487 0.45921 0.0
H1100 H 0.68475 0.73638 0.44777 0.0
H1101 H 0.72125 0.54426 0.41473 0.0
H1102 H 0.66237 0.52714 0.40905 0.0
H1103 H 0.68134 0.5222 0.42926 0.0
C1104 C 0.65598 0.51606 0.73669 0.0
C1105 C 0.64149 0.56056 0.73138 0.0
C1106 C 0.6418 0.47477 0.72885 0.0
C1107 C 0.61216 0.47821 0.71547 0.0
C1108 C 0.59488 0.52289 0.71075 0.0
C1109 C 0.61006 0.56356 0.71868 0.0
C1110 C 0.66115 0.42792 0.73424 0.0
C1111 C 0.56244 0.52801 0.69675 0.0
C1112 C 0.62774 0.39353 0.68146 0.0
C1113 C 0.58719 0.36526 0.68251 0.0
C1114 C 0.63693 0.42909 0.69246 0.0
C1115 C 0.60494 0.43674 0.70498 0.0
C1116 C 0.56506 0.40704 0.70662 0.0
C1117 C 0.55657 0.37154 0.69534 0.0
C1118 C 0.6801 0.45969 0.69029 0.0
C1119 C 0.53107 0.41334 0.72012 0.0
H1120 H 0.68034 0.51366 0.7465 0.0
H1121 H 0.59816 0.59791 0.71474 0.0
H1122 H 0.63316 0.40062 0.73429 0.0
H1123 H 0.6889 0.41609 0.72591 0.0
H1124 H 0.67686 0.43014 0.74621 0.0
H1125 H 0.54824 0.56435 0.69563 0.0
H1126 H 0.58195 0.51925 0.68579 0.0
H1127 H 0.53246 0.50301 0.6977 0.0
H1128 H 0.65219 0.38862 0.67178 0.0
H1129 H 0.52533 0.34973 0.69633 0.0
H1130 H 0.70132 0.46033 0.70126 0.0
H1131 H 0.66915 0.49648 0.68776 0.0
H1132 H 0.70292 0.44729 0.68048 0.0
H1133 H 0.54936 0.40612 0.73141 0.0
H1134 H 0.50019 0.38941 0.7192 0.0
H1135 H 0.5185 0.45035 0.72061 0.0
C1136 C 0.70085 0.62603 0.06682 0.0
C1137 C 0.70157 0.5833 0.05843 0.0
C1138 C 0.74003 0.64121 0.0756 0.0
C1139 C 0.78094 0.61262 0.07636 0.0
C1140 C 0.78199 0.56938 0.06803 0.0
C1141 C 0.74257 0.55545 0.05909 0.0
C1142 C 0.73753 0.68792 0.08414 0.0
C1143 C 0.8248 0.53782 0.06858 0.0
C1144 C 0.8918 0.67794 0.0891 0.0
C1145 C 0.89101 0.67087 0.10543 0.0
C1146 C 0.85759 0.65719 0.07932 0.0
C1147 C 0.82217 0.62817 0.08604 0.0
C1148 C 0.82352 0.61825 0.10241 0.0
C1149 C 0.8575 0.64037 0.11195 0.0
C1150 C 0.85703 0.66969 0.06203 0.0
C1151 C 0.78699 0.58706 0.11006 0.0
H1152 H 0.66934 0.64759 0.06671 0.0
H1153 H 0.74417 0.52283 0.05246 0.0
H1154 H 0.74069 0.68214 0.09702 0.0
H1155 H 0.76736 0.71079 0.08051 0.0
H1156 H 0.70405 0.70699 0.08179 0.0
H1157 H 0.8199 0.50498 0.06164 0.0
H1158 H 0.85598 0.55691 0.06393 0.0
H1159 H 0.83273 0.52814 0.08097 0.0
H1160 H 0.91683 0.7028 0.08416 0.0
H1161 H 0.8562 0.63599 0.12464 0.0
H1162 H 0.82672 0.69334 0.0596 0.0
H1163 H 0.85239 0.63761 0.05472 0.0
H1164 H 0.88986 0.68795 0.05832 0.0
H1165 H 0.75252 0.60553 0.11022 0.0
H1166 H 0.79657 0.5778 0.12237 0.0
H1167 H 0.78236 0.55405 0.10321 0.0
C1168 C 0.64788 0.49788 0.30361 0.0
C1169 C 0.69548 0.48496 0.30258 0.0
C1170 C 0.63327 0.53461 0.31359 0.0
C1171 C 0.66719 0.55947 0.32263 0.0
C1172 C 0.71559 0.54833 0.32095 0.0
C1173 C 0.72912 0.51093 0.31106 0.0
C1174 C 0.58121 0.545 0.31512 0.0
C1175 C 0.75288 0.57456 0.33012 0.0
C1176 C 0.61807 0.66912 0.34272 0.0
C1177 C 0.60389 0.65027 0.35723 0.0
C1178 C 0.64174 0.64085 0.33159 0.0
C1179 C 0.65119 0.59288 0.33512 0.0
C1180 C 0.64048 0.57517 0.3503 0.0
C1181 C 0.61707 0.6041 0.36115 0.0
C1182 C 0.65333 0.66132 0.31565 0.0
C1183 C 0.65006 0.52444 0.35467 0.0
H1184 H 0.62172 0.47775 0.29717 0.0
H1185 H 0.76604 0.50145 0.31013 0.0
H1186 H 0.56909 0.53586 0.32718 0.0
H1187 H 0.57444 0.58316 0.31337 0.0
H1188 H 0.5597 0.52481 0.30651 0.0
H1189 H 0.78901 0.56614 0.32592 0.0
H1190 H 0.74724 0.61318 0.32922 0.0
H1191 H 0.75041 0.56504 0.34277 0.0
H1192 H 0.60754 0.70466 0.3396 0.0
H1193 H 0.6063 0.58957 0.37241 0.0
H1194 H 0.62743 0.64836 0.30687 0.0
H1195 H 0.68883 0.64986 0.31171 0.0
H1196 H 0.65206 0.70048 0.31575 0.0
H1197 H 0.62672 0.50096 0.3477 0.0
H1198 H 0.64377 0.51753 0.36739 0.0
H1199 H 0.68698 0.5148 0.35184 0.0
C1200 C 0.76033 0.38591 0.53507 0.0
C1201 C 0.777 0.4322 0.53701 0.0
C1202 C 0.72173 0.36927 0.5438 0.0
C1203 C 0.69876 0.39993 0.55449 0.0
C1204 C 0.71224 0.44791 0.55524 0.0
C1205 C 0.75149 0.46335 0.54665 0.0
C1206 C 0.70866 0.31775 0.54269 0.0
C1207 C 0.68828 0.48191 0.56635 0.0
C1208 C 0.59251 0.35817 0.57829 0.0
C1209 C 0.61436 0.34585 0.59251 0.0
C1210 C 0.61934 0.37589 0.56563 0.0
C1211 C 0.66892 0.38004 0.56723 0.0
C1212 C 0.69099 0.36626 0.58144 0.0
C1213 C 0.66345 0.34982 0.59389 0.0
C1214 C 0.59476 0.39077 0.55068 0.0
C1215 C 0.74388 0.36893 0.58357 0.0
H1216 H 0.7788 0.36192 0.52728 0.0
H1217 H 0.76389 0.49911 0.54835 0.0
H1218 H 0.72317 0.29876 0.55304 0.0
H1219 H 0.66986 0.31306 0.54284 0.0
H1220 H 0.72306 0.30112 0.53186 0.0
H1221 H 0.69628 0.51918 0.56334 0.0
H1222 H 0.6495 0.47685 0.5662 0.0
H1223 H 0.70067 0.47522 0.57855 0.0
H1224 H 0.5546 0.35469 0.57718 0.0
H1225 H 0.68072 0.33908 0.6047 0.0
H1226 H 0.6104 0.3724 0.54039 0.0
H1227 H 0.59986 0.42914 0.5488 0.0
H1228 H 0.55633 0.38323 0.55103 0.0
H1229 H 0.76186 0.3484 0.5742 0.0
H1230 H 0.75546 0.35511 0.59519 0.0
H1231 H 0.75583 0.40605 0.58254 0.0
C1232 C 0.85778 0.56265 0.81332 0.0
C1233 C 0.82898 0.56003 0.79994 0.0
C1234 C 0.87553 0.52172 0.82045 0.0
C1235 C 0.86392 0.47694 0.81412 0.0
C1236 C 0.83575 0.47406 0.80039 0.0
C1237 C 0.8187 0.51568 0.79343 0.0
C1238 C 0.90588 0.52643 0.83499 0.0
C1239 C 0.82243 0.42703 0.79335 0.0
C1240 C 0.94094 0.37863 0.83021 0.0
C1241 C 0.91491 0.36517 0.8435 0.0
C1242 C 0.92342 0.41293 0.81977 0.0
C1243 C 0.87871 0.43354 0.82267 0.0
C1244 C 0.85062 0.41662 0.83525 0.0
C1245 C 0.86924 0.3829 0.84558 0.0
C1246 C 0.95443 0.43 0.8065 0.0
C1247 C 0.80254 0.43708 0.83866 0.0
H1248 H 0.86648 0.59686 0.81823 0.0
H1249 H 0.79621 0.51347 0.78314 0.0
H1250 H 0.88777 0.51006 0.8452 0.0
H1251 H 0.93972 0.50747 0.83329 0.0
H1252 H 0.91369 0.5638 0.83791 0.0
H1253 H 0.80377 0.43089 0.78192 0.0
H1254 H 0.85431 0.40505 0.79152 0.0
H1255 H 0.79913 0.40771 0.80163 0.0
H1256 H 0.97655 0.36543 0.82871 0.0
H1257 H 0.84913 0.37246 0.85588 0.0
H1258 H 0.96779 0.46579 0.80933 0.0
H1259 H 0.93402 0.43271 0.7954 0.0
H1260 H 0.98512 0.40638 0.80454 0.0
H1261 H 0.80657 0.47338 0.84336 0.0
H1262 H 0.78275 0.41579 0.84744 0.0
H1263 H 0.78135 0.43944 0.82771 0.0
C1264 C 0.23992 0.59228 0.034 0.0
C1265 C 0.2847 0.61015 0.03774 0.0
C1266 C 0.19982 0.60651 0.04246 0.0
C1267 C 0.20481 0.63917 0.05494 0.0
C1268 C 0.24943 0.65944 0.05813 0.0
C1269 C 0.28883 0.64458 0.04952 0.0
C1270 C 0.15265 0.58484 0.03856 0.0
C1271 C 0.25618 0.69465 0.07131 0.0
C1272 C 0.10521 0.70167 0.07607 0.0
C1273 C 0.10394 0.67642 0.09029 0.0
C1274 C 0.1357 0.68813 0.06385 0.0
C1275 C 0.16513 0.64832 0.06593 0.0
C1276 C 0.16083 0.62043 0.07969 0.0
C1277 C 0.13033 0.63491 0.09172 0.0
C1278 C 0.13917 0.71871 0.04935 0.0
C1279 C 0.19129 0.57745 0.0823 0.0
H1280 H 0.23642 0.56626 0.02472 0.0
H1281 H 0.32331 0.65823 0.05259 0.0
H1282 H 0.14234 0.55998 0.04805 0.0
H1283 H 0.125 0.61243 0.03791 0.0
H1284 H 0.15345 0.56525 0.02722 0.0
H1285 H 0.29199 0.71053 0.07123 0.0
H1286 H 0.22983 0.72341 0.07043 0.0
H1287 H 0.25073 0.6769 0.08282 0.0
H1288 H 0.08506 0.73397 0.07491 0.0
H1289 H 0.12905 0.61504 0.10263 0.0
H1290 H 0.14192 0.6968 0.03855 0.0
H1291 H 0.17149 0.74064 0.05007 0.0
H1292 H 0.10837 0.74265 0.0482 0.0
H1293 H 0.19036 0.55406 0.07183 0.0
H1294 H 0.18 0.55684 0.09277 0.0
H1295 H 0.22842 0.5886 0.08405 0.0
C1296 C 0.14549 0.52454 0.80399 0.0
C1297 C 0.19302 0.53802 0.80344 0.0
C1298 C 0.13033 0.48787 0.81389 0.0
C1299 C 0.16356 0.46377 0.82342 0.0
C1300 C 0.21195 0.47549 0.82227 0.0
C1301 C 0.22607 0.51266 0.81237 0.0
C1302 C 0.07832 0.47674 0.81481 0.0
C1303 C 0.24856 0.4502 0.83201 0.0
C1304 C 0.11021 0.41982 0.86155 0.0
C1305 C 0.09865 0.37309 0.85777 0.0
C1306 C 0.13395 0.4488 0.8508 0.0
C1307 C 0.14665 0.43063 0.83585 0.0
C1308 C 0.1386 0.3823 0.83246 0.0
C1309 C 0.11461 0.35396 0.8435 0.0
C1310 C 0.14207 0.49993 0.85501 0.0
C1311 C 0.15218 0.3614 0.81676 0.0
H1312 H 0.11973 0.54416 0.79721 0.0
H1313 H 0.26298 0.52244 0.81181 0.0
H1314 H 0.07235 0.43832 0.8134 0.0
H1315 H 0.06457 0.4869 0.82658 0.0
H1316 H 0.05765 0.49571 0.80568 0.0
H1317 H 0.28502 0.45901 0.82824 0.0
H1318 H 0.24449 0.46017 0.84458 0.0
H1319 H 0.2436 0.41146 0.8312 0.0
H1320 H 0.09817 0.43461 0.87263 0.0
H1321 H 0.10541 0.31797 0.84048 0.0
H1322 H 0.11929 0.52264 0.84757 0.0
H1323 H 0.17917 0.51005 0.85266 0.0
H1324 H 0.13401 0.50739 0.86758 0.0
H1325 H 0.1272 0.37384 0.8076 0.0
H1326 H 0.15128 0.32224 0.81698 0.0
H1327 H 0.18798 0.3731 0.81323 0.0
C1328 C 0.20165 0.39487 0.567 0.0
C1329 C 0.20174 0.4377 0.55865 0.0
C1330 C 0.241 0.38021 0.57579 0.0
C1331 C 0.28139 0.40949 0.5767 0.0
C1332 C 0.28177 0.45291 0.56847 0.0
C1333 C 0.24229 0.46624 0.55945 0.0
C1334 C 0.23924 0.33323 0.58417 0.0
C1335 C 0.32393 0.48531 0.56922 0.0
C1336 C 0.35805 0.38184 0.6123 0.0
C1337 C 0.39229 0.35229 0.60569 0.0
C1338 C 0.32379 0.4037 0.6028 0.0
C1339 C 0.32284 0.39441 0.58638 0.0
C1340 C 0.35896 0.36641 0.57958 0.0
C1341 C 0.39347 0.34598 0.58933 0.0
C1342 C 0.2866 0.43392 0.61053 0.0
C1343 C 0.35886 0.35455 0.56225 0.0
H1344 H 0.17052 0.37276 0.56682 0.0
H1345 H 0.24354 0.49892 0.55287 0.0
H1346 H 0.26977 0.31118 0.58062 0.0
H1347 H 0.2417 0.33875 0.59708 0.0
H1348 H 0.20634 0.31342 0.5816 0.0
H1349 H 0.31842 0.51834 0.56243 0.0
H1350 H 0.33159 0.49462 0.58166 0.0
H1351 H 0.35551 0.46706 0.5645 0.0
H1352 H 0.35648 0.38568 0.625 0.0
H1353 H 0.41907 0.32187 0.58431 0.0
H1354 H 0.25253 0.41471 0.61063 0.0
H1355 H 0.28129 0.46698 0.60377 0.0
H1356 H 0.29597 0.44307 0.62287 0.0
H1357 H 0.3289 0.3306 0.55965 0.0
H1358 H 0.39199 0.33688 0.55851 0.0
H1359 H 0.35392 0.38683 0.55506 0.0
C1360 C 0.32663 0.50843 0.29084 0.0
C1361 C 0.34575 0.46432 0.29475 0.0
C1362 C 0.34205 0.54975 0.2984 0.0
C1363 C 0.37689 0.54671 0.31029 0.0
C1364 C 0.39757 0.50248 0.31383 0.0
C1365 C 0.38184 0.46189 0.30599 0.0
C1366 C 0.31988 0.59635 0.29407 0.0
C1367 C 0.4347 0.4976 0.32649 0.0
C1368 C 0.44356 0.64955 0.32837 0.0
C1369 C 0.42017 0.65397 0.34286 0.0
C1370 C 0.42799 0.61688 0.31702 0.0
C1371 C 0.38822 0.58826 0.32031 0.0
C1372 C 0.3623 0.59561 0.33435 0.0
C1373 C 0.37854 0.62842 0.34542 0.0
C1374 C 0.45615 0.61055 0.30209 0.0
C1375 C 0.31966 0.56599 0.33835 0.0
H1376 H 0.29925 0.51056 0.28196 0.0
H1377 H 0.39651 0.42788 0.30913 0.0
H1378 H 0.29706 0.60861 0.30386 0.0
H1379 H 0.34745 0.62356 0.29224 0.0
H1380 H 0.29807 0.59374 0.28323 0.0
H1381 H 0.44927 0.46129 0.32714 0.0
H1382 H 0.46414 0.5225 0.32431 0.0
H1383 H 0.41923 0.50665 0.33812 0.0
H1384 H 0.47591 0.669 0.32635 0.0
H1385 H 0.36008 0.63208 0.35654 0.0
H1386 H 0.4324 0.60784 0.29174 0.0
H1387 H 0.47655 0.57724 0.30277 0.0
H1388 H 0.48127 0.64004 0.30016 0.0
H1389 H 0.29455 0.56535 0.32834 0.0
H1390 H 0.3009 0.57917 0.34897 0.0
H1391 H 0.33088 0.5291 0.34058 0.0
C1392 C 0.27135 0.40568 0.97031 0.0
C1393 C 0.30459 0.43762 0.96431 0.0
C1394 C 0.23217 0.3916 0.96131 0.0
C1395 C 0.2263 0.40939 0.94583 0.0
C1396 C 0.25998 0.44133 0.93966 0.0
C1397 C 0.29846 0.45534 0.94901 0.0
C1398 C 0.19697 0.3577 0.96837 0.0
C1399 C 0.25568 0.46026 0.9231 0.0
C1400 C 0.1493 0.33735 0.91803 0.0
C1401 C 0.10693 0.36301 0.91805 0.0
C1402 C 0.1885 0.35238 0.92682 0.0
C1403 C 0.18532 0.39391 0.93603 0.0
C1404 C 0.14277 0.42014 0.93604 0.0
C1405 C 0.10425 0.40462 0.92695 0.0
C1406 C 0.23338 0.32379 0.9262 0.0
C1407 C 0.1376 0.46406 0.94594 0.0
H1408 H 0.27565 0.39221 0.98218 0.0
H1409 H 0.32432 0.47961 0.94424 0.0
H1410 H 0.16159 0.37436 0.96875 0.0
H1411 H 0.19404 0.32581 0.96087 0.0
H1412 H 0.20681 0.34662 0.98048 0.0
H1413 H 0.28491 0.48466 0.92003 0.0
H1414 H 0.2556 0.43062 0.91456 0.0
H1415 H 0.22176 0.47925 0.92171 0.0
H1416 H 0.15189 0.30528 0.91113 0.0
H1417 H 0.07159 0.42445 0.92716 0.0
H1418 H 0.24548 0.31499 0.93827 0.0
H1419 H 0.26164 0.34497 0.92058 0.0
H1420 H 0.22902 0.29048 0.91946 0.0
H1421 H 0.14312 0.45527 0.95855 0.0
H1422 H 0.10233 0.48062 0.94462 0.0
H1423 H 0.1649 0.49024 0.94263 0.0
C1424 C 0.35653 0.51606 0.72005 0.0
C1425 C 0.31744 0.54432 0.71629 0.0
C1426 C 0.36986 0.47806 0.71042 0.0
C1427 C 0.34445 0.46866 0.69643 0.0
C1428 C 0.30501 0.49683 0.69252 0.0
C1429 C 0.29154 0.53374 0.7026 0.0
C1430 C 0.41163 0.44828 0.71513 0.0
C1431 C 0.27761 0.48857 0.67752 0.0
C1432 C 0.41251 0.40179 0.66502 0.0
C1433 C 0.39436 0.35606 0.66663 0.0
C1434 C 0.39539 0.43908 0.67426 0.0
C1435 C 0.3601 0.43017 0.68568 0.0
C1436 C 0.34121 0.38415 0.68722 0.0
C1437 C 0.35815 0.34773 0.67752 0.0
C1438 C 0.41582 0.4878 0.67201 0.0
C1439 C 0.30447 0.37297 0.69955 0.0
H1440 H 0.3775 0.5241 0.73036 0.0
H1441 H 0.26066 0.5544 0.69968 0.0
H1442 H 0.40123 0.4106 0.71574 0.0
H1443 H 0.43969 0.45126 0.70609 0.0
H1444 H 0.42647 0.4589 0.72671 0.0
H1445 H 0.248 0.51385 0.67611 0.0
H1446 H 0.30144 0.49196 0.6672 0.0
H1447 H 0.26317 0.45223 0.67736 0.0
H1448 H 0.44038 0.40837 0.65654 0.0
H1449 H 0.34443 0.3123 0.67892 0.0
H1450 H 0.43613 0.49815 0.68262 0.0
H1451 H 0.38713 0.514 0.67048 0.0
H1452 H 0.43964 0.48971 0.66163 0.0
H1453 H 0.31922 0.37953 0.71145 0.0
H1454 H 0.29237 0.33576 0.69892 0.0
H1455 H 0.27348 0.39644 0.69815 0.0
C1456 C 0.25448 0.56686 0.4738 0.0
C1457 C 0.22726 0.59641 0.48345 0.0
C1458 C 0.2934 0.5843 0.4655 0.0
C1459 C 0.30485 0.63276 0.46655 0.0
C1460 C 0.27908 0.66241 0.47683 0.0
C1461 C 0.24079 0.64377 0.48525 0.0
C1462 C 0.3205 0.55132 0.45484 0.0
C1463 C 0.28955 0.71444 0.47818 0.0
C1464 C 0.42158 0.66701 0.44792 0.0
C1465 C 0.40722 0.67598 0.43244 0.0
C1466 C 0.38834 0.65471 0.45949 0.0
C1467 C 0.33994 0.65273 0.45544 0.0
C1468 C 0.32528 0.66524 0.44006 0.0
C1469 C 0.35924 0.67598 0.42867 0.0
C1470 C 0.40507 0.64172 0.47579 0.0
C1471 C 0.27385 0.66551 0.43547 0.0
H1472 H 0.24419 0.53044 0.47208 0.0
H1473 H 0.22067 0.66676 0.49292 0.0
H1474 H 0.31304 0.56018 0.44235 0.0
H1475 H 0.35899 0.55546 0.45671 0.0
H1476 H 0.31093 0.5138 0.45682 0.0
H1477 H 0.27705 0.72894 0.4896 0.0
H1478 H 0.32775 0.72194 0.47695 0.0
H1479 H 0.27079 0.73335 0.46861 0.0
H1480 H 0.45883 0.66747 0.45077 0.0
H1481 H 0.34831 0.68408 0.41673 0.0
H1482 H 0.39859 0.60364 0.47789 0.0
H1483 H 0.38491 0.66158 0.48481 0.0
H1484 H 0.44327 0.64888 0.47742 0.0
H1485 H 0.25984 0.62899 0.43568 0.0
H1486 H 0.26818 0.68035 0.4235 0.0
H1487 H 0.25314 0.68655 0.44405 0.0
C1488 C 0.1719 0.50679 0.23303 0.0
C1489 C 0.1565 0.46173 0.22855 0.0
C1490 C 0.15505 0.54739 0.2254 0.0
C1491 C 0.12258 0.54274 0.21282 0.0
C1492 C 0.10529 0.49745 0.20876 0.0
C1493 C 0.12223 0.45757 0.21674 0.0
C1494 C 0.17399 0.59499 0.23022 0.0
C1495 C 0.07067 0.49084 0.19543 0.0
C1496 C 0.0625 0.64901 0.19375 0.0
C1497 C 0.09162 0.65645 0.1806 0.0
C1498 C 0.07253 0.61282 0.20465 0.0
C1499 C 0.11255 0.58368 0.20233 0.0
C1500 C 0.14274 0.59215 0.18937 0.0
C1501 C 0.13205 0.62835 0.17878 0.0
C1502 C 0.04009 0.60541 0.21852 0.0
C1503 C 0.18569 0.56187 0.18635 0.0
H1504 H 0.19783 0.51023 0.24235 0.0
H1505 H 0.11029 0.42283 0.21319 0.0
H1506 H 0.19846 0.60817 0.22102 0.0
H1507 H 0.1449 0.62093 0.23129 0.0
H1508 H 0.19333 0.59342 0.24158 0.0
H1509 H 0.06087 0.45327 0.19369 0.0
H1510 H 0.03819 0.51121 0.19789 0.0
H1511 H 0.08585 0.50452 0.18428 0.0
H1512 H 0.03126 0.67051 0.1953 0.0
H1513 H 0.15528 0.63399 0.16881 0.0
H1514 H 0.05955 0.61235 0.22962 0.0
H1515 H 0.02793 0.56825 0.21895 0.0
H1516 H 0.00875 0.62887 0.21809 0.0
H1517 H 0.20928 0.56229 0.19676 0.0
H1518 H 0.20615 0.57382 0.17592 0.0
H1519 H 0.17471 0.52477 0.18438 0.0
loop_
_geom_bond_atom_site_label_1
_geom_bond_atom_site_label_2
_geom_bond_distance
_geom_bond_site_symmetry_2
_ccdc_geom_bond_type
C0 C1 1.384 . S
C0 C2 1.384 1_565 S
C0 H28 0.931 1_565 S
C1 C0 1.384 . S
C1 C4 1.382 . S
C2 C0 1.384 1_545 S
C2 C3 1.381 1_545 S
C2 H29 0.930 . S
C3 C2 1.381 1_565 S
C3 C5 1.381 . S
C3 C6 1.491 . S
C4 C1 1.382 . S
C4 C5 1.387 . S
C4 H30 0.930 . S
C5 C3 1.381 . S
C5 C4 1.387 . S
C5 H31 0.931 . S
C6 C3 1.491 . S
C6 C13 1.391 1_565 S
C6 N44 1.347 . S
C7 C8 1.384 . S
C7 C9 1.384 . S
C7 H32 0.931 . S
C8 C7 1.384 . S
C8 C11 1.382 . S
C9 C7 1.384 . S
C9 C10 1.381 . S
C9 H33 0.930 1_545 S
C10 C9 1.381 . S
C10 C12 1.381 . S
C10 C13 1.487 . S
C11 C8 1.382 . S
C11 C12 1.387 . S
C11 H34 0.930 . S
C12 C10 1.381 . S
C12 C11 1.387 . S
C12 H35 0.931 . S
C13 C6 1.391 1_545 S
C13 C10 1.487 . S
C13 N45 1.343 . S
C14 C15 1.384 . S
C14 C16 1.384 . S
C14 H36 0.931 . S
C15 C14 1.384 . S
C15 C18 1.382 . S
C16 C14 1.384 . S
C16 C17 1.381 . S
C16 H37 0.930 1_545 S
C17 C16 1.381 . S
C17 C19 1.381 . S
C17 C20 1.487 . S
C18 C15 1.382 . S
C18 C19 1.387 . S
C18 H38 0.930 . S
C19 C17 1.381 . S
C19 C18 1.387 . S
C19 H39 0.931 . S
C20 C17 1.487 . S
C20 C27 1.391 1_545 S
C20 N45 1.343 1_655 S
C21 C22 1.384 . S
C21 C23 1.384 1_565 S
C21 H40 0.931 1_565 S
C22 C21 1.384 . S
C22 C25 1.382 . S
C23 C21 1.384 1_545 S
C23 C24 1.381 1_545 S
C23 H41 0.930 . S
C24 C23 1.381 1_565 S
C24 C26 1.381 . S
C24 C27 1.491 . S
C25 C22 1.382 . S
C25 C26 1.387 . S
C25 H42 0.930 . S
C26 C24 1.381 . S
C26 C25 1.387 . S
C26 H43 0.931 . S
C27 C20 1.391 1_565 S
C27 C24 1.491 . S
C27 N44 1.347 1_655 S
H28 C0 0.931 1_545 S
H29 C2 0.930 . S
H30 C4 0.930 . S
H31 C5 0.931 . S
H32 C7 0.931 . S
H33 C9 0.930 1_565 S
H34 C11 0.930 . S
H35 C12 0.931 . S
H36 C14 0.931 . S
H37 C16 0.930 1_565 S
H38 C18 0.930 . S
H39 C19 0.931 . S
H40 C21 0.931 1_545 S
H41 C23 0.930 . S
H42 C25 0.930 . S
H43 C26 0.931 . S
N44 C6 1.347 . S
N44 C27 1.347 1_455 S
N45 C13 1.343 . S
N45 C20 1.343 1_455 S
C46 C47 1.384 . S
C46 C48 1.384 . S
C46 H74 0.931 . S
C47 C46 1.384 . S
C47 C50 1.382 . S
C48 C46 1.384 . S
C48 C49 1.381 . S
C48 H75 0.930 . S
C49 C48 1.381 . S
C49 C51 1.381 . S
C49 C52 1.487 . S
C50 C47 1.382 . S
C50 C51 1.387 . S
C50 H76 0.930 . S
C51 C49 1.381 . S
C51 C50 1.387 . S
C51 H77 0.931 . S
C52 C49 1.487 . S
C52 C59 1.399 . S
C52 N90 1.343 . S
C53 C54 1.384 . S
C53 C55 1.384 . S
C53 H78 0.931 . S
C54 C53 1.384 . S
C54 C57 1.382 . S
C55 C53 1.384 . S
C55 C56 1.381 . S
C55 H79 0.930 . S
C56 C55 1.381 . S
C56 C58 1.381 . S
C56 C59 1.487 . S
C57 C54 1.382 . S
C57 C58 1.387 . S
C57 H80 0.930 . S
C58 C56 1.381 . S
C58 C57 1.387 . S
C58 H81 0.931 . S
C59 C52 1.399 . S
C59 C56 1.487 . S
C59 N91 1.343 . S
C60 C61 1.384 . S
C60 C62 1.384 . S
C60 H82 0.931 . S
C61 C60 1.384 . S
C61 C64 1.382 . S
C62 C60 1.384 . S
C62 C63 1.381 . S
C62 H83 0.930 . S
C63 C62 1.381 . S
C63 C65 1.381 . S
C63 C66 1.487 . S
C64 C61 1.382 . S
C64 C65 1.387 . S
C64 H84 0.930 . S
C65 C63 1.381 . S
C65 C64 1.387 . S
C65 H85 0.931 . S
C66 C63 1.487 . S
C66 C73 1.399 . S
C66 N91 1.343 . S
C67 C68 1.384 . S
C67 C69 1.384 . S
C67 H86 0.931 . S
C68 C67 1.384 . S
C68 C71 1.382 . S
C69 C67 1.384 . S
C69 C70 1.381 . S
C69 H87 0.930 . S
C70 C69 1.381 . S
C70 C72 1.381 . S
C70 C73 1.487 . S
C71 C68 1.382 . S
C71 C72 1.387 . S
C71 H88 0.930 . S
C72 C70 1.381 . S
C72 C71 1.387 . S
C72 H89 0.931 . S
C73 C66 1.399 . S
C73 C70 1.487 . S
C73 N90 1.343 . S
H74 C46 0.931 . S
H75 C48 0.930 . S
H76 C50 0.930 . S
H77 C51 0.931 . S
H78 C53 0.931 . S
H79 C55 0.930 . S
H80 C57 0.930 . S
H81 C58 0.931 . S
H82 C60 0.931 . S
H83 C62 0.930 . S
H84 C64 0.930 . S
H85 C65 0.931 . S
H86 C67 0.931 . S
H87 C69 0.930 . S
H88 C71 0.930 . S
H89 C72 0.931 . S
N90 C52 1.343 . S
N90 C73 1.343 . S
N91 C59 1.343 . S
N91 C66 1.343 . S
C92 C93 1.384 . S
C92 C94 1.384 . S
C92 H120 0.931 1_545 S
C93 C92 1.384 . S
C93 C96 1.382 . S
C94 C92 1.384 . S
C94 C95 1.381 . S
C94 H121 0.930 1_545 S
C95 C94 1.381 . S
C95 C97 1.381 . S
C95 C98 1.487 1_556 S
C96 C93 1.382 . S
C96 C97 1.387 . S
C96 H122 0.930 . S
C97 C95 1.381 . S
C97 C96 1.387 . S
C97 H123 0.931 . S
C98 C95 1.487 1_554 S
C98 C105 1.399 1_545 S
C98 N136 1.343 1_554 S
C99 C100 1.384 . S
C99 C101 1.384 . S
C99 H124 0.931 1_565 S
C100 C99 1.384 . S
C100 C103 1.382 . S
C101 C99 1.384 . S
C101 C102 1.381 . S
C101 H125 0.930 1_565 S
C102 C101 1.381 . S
C102 C104 1.381 . S
C102 C105 1.487 . S
C103 C100 1.382 . S
C103 C104 1.387 . S
C103 H126 0.930 . S
C104 C102 1.381 . S
C104 C103 1.387 . S
C104 H127 0.931 . S
C105 C98 1.399 1_565 S
C105 C102 1.487 . S
C105 N137 1.343 . S
C106 C107 1.384 . S
C106 C108 1.384 . S
C106 H128 0.931 1_565 S
C107 C106 1.384 . S
C107 C110 1.382 . S
C108 C106 1.384 . S
C108 C109 1.381 . S
C108 H129 0.930 1_565 S
C109 C108 1.381 . S
C109 C111 1.381 . S
C109 C112 1.487 . S
C110 C107 1.382 . S
C110 C111 1.387 . S
C110 H130 0.930 . S
C111 C109 1.381 . S
C111 C110 1.387 . S
C111 H131 0.931 . S
C112 C109 1.487 . S
C112 C119 1.399 1_565 S
C112 N137 1.343 . S
C113 C114 1.384 . S
C113 C115 1.384 . S
C113 H132 0.931 1_545 S
C114 C113 1.384 . S
C114 C117 1.382 . S
C115 C113 1.384 . S
C115 C116 1.381 . S
C115 H133 0.930 1_545 S
C116 C115 1.381 . S
C116 C118 1.381 . S
C116 C119 1.487 1_556 S
C117 C114 1.382 . S
C117 C118 1.387 . S
C117 H134 0.930 . S
C118 C116 1.381 . S
C118 C117 1.387 . S
C118 H135 0.931 . S
C119 C112 1.399 1_545 S
C119 C116 1.487 1_554 S
C119 N136 1.343 1_554 S
H120 C92 0.931 1_565 S
H121 C94 0.930 1_565 S
H122 C96 0.930 . S
H123 C97 0.931 . S
H124 C99 0.931 1_545 S
H125 C101 0.930 1_545 S
H126 C103 0.930 . S
H127 C104 0.931 . S
H128 C106 0.931 1_545 S
H129 C108 0.930 1_545 S
H130 C110 0.930 . S
H131 C111 0.931 . S
H132 C113 0.931 1_565 S
H133 C115 0.930 1_565 S
H134 C117 0.930 . S
H135 C118 0.931 . S
N136 C98 1.343 1_556 S
N136 C119 1.343 1_556 S
N137 C105 1.343 . S
N137 C112 1.343 . S
C138 C139 1.384 . S
C138 C140 1.384 . S
C138 H166 0.931 . S
C139 C138 1.384 . S
C139 C142 1.382 . S
C140 C138 1.384 . S
C140 C141 1.381 . S
C140 H167 0.930 . S
C141 C140 1.381 . S
C141 C143 1.381 . S
C141 C144 1.487 . S
C142 C139 1.382 . S
C142 C143 1.387 . S
C142 H168 0.930 . S
C143 C141 1.381 . S
C143 C142 1.387 . S
C143 H169 0.931 . S
C144 C141 1.487 . S
C144 C151 1.399 . S
C144 N182 1.343 . S
C145 C146 1.384 . S
C145 C147 1.384 . S
C145 H170 0.931 . S
C146 C145 1.384 . S
C146 C149 1.382 . S
C147 C145 1.384 . S
C147 C148 1.381 . S
C147 H171 0.930 . S
C148 C147 1.381 . S
C148 C150 1.381 . S
C148 C151 1.487 . S
C149 C146 1.382 . S
C149 C150 1.387 . S
C149 H172 0.930 . S
C150 C148 1.381 . S
C150 C149 1.387 . S
C150 H173 0.931 . S
C151 C144 1.399 . S
C151 C148 1.487 . S
C151 N183 1.343 . S
C152 C153 1.384 . S
C152 C154 1.384 . S
C152 H174 0.931 . S
C153 C152 1.384 . S
C153 C156 1.382 . S
C154 C152 1.384 . S
C154 C155 1.381 . S
C154 H175 0.930 . S
C155 C154 1.381 . S
C155 C157 1.381 . S
C155 C158 1.487 . S
C156 C153 1.382 . S
C156 C157 1.387 . S
C156 H176 0.930 . S
C157 C155 1.381 . S
C157 C156 1.387 . S
C157 H177 0.931 . S
C158 C155 1.487 . S
C158 C165 1.399 . S
C158 N183 1.343 . S
C159 C160 1.384 . S
C159 C161 1.384 . S
C159 H178 0.931 . S
C160 C159 1.384 . S
C160 C163 1.382 . S
C161 C159 1.384 . S
C161 C162 1.381 . S
C161 H179 0.930 . S
C162 C161 1.381 . S
C162 C164 1.381 . S
C162 C165 1.487 . S
C163 C160 1.382 . S
C163 C164 1.387 . S
C163 H180 0.930 . S
C164 C162 1.381 . S
C164 C163 1.387 . S
C164 H181 0.931 . S
C165 C158 1.399 . S
C165 C162 1.487 . S
C165 N182 1.343 . S
H166 C138 0.931 . S
H167 C140 0.930 . S
H168 C142 0.930 . S
H169 C143 0.931 . S
H170 C145 0.931 . S
H171 C147 0.930 . S
H172 C149 0.930 . S
H173 C150 0.931 . S
H174 C152 0.931 . S
H175 C154 0.930 . S
H176 C156 0.930 . S
H177 C157 0.931 . S
H178 C159 0.931 . S
H179 C161 0.930 . S
H180 C163 0.930 . S
H181 C164 0.931 . S
N182 C144 1.343 . S
N182 C165 1.343 . S
N183 C151 1.343 . S
N183 C158 1.343 . S
C184 C185 1.384 . S
C184 C186 1.384 . S
C184 H212 0.931 . S
C185 C184 1.384 . S
C185 C188 1.382 . S
C186 C184 1.384 . S
C186 C187 1.381 . S
C186 H213 0.930 . S
C187 C186 1.381 . S
C187 C189 1.381 . S
C187 C190 1.487 . S
C188 C185 1.382 . S
C188 C189 1.387 . S
C188 H214 0.930 . S
C189 C187 1.381 . S
C189 C188 1.387 . S
C189 H215 0.931 . S
C190 C187 1.487 . S
C190 C197 1.399 . S
C190 N228 1.343 . S
C191 C192 1.384 . S
C191 C193 1.384 . S
C191 H216 0.931 . S
C192 C191 1.384 . S
C192 C195 1.382 . S
C193 C191 1.384 . S
C193 C194 1.381 . S
C193 H217 0.930 . S
C194 C193 1.381 . S
C194 C196 1.381 . S
C194 C197 1.487 . S
C195 C192 1.382 . S
C195 C196 1.387 . S
C195 H218 0.930 . S
C196 C194 1.381 . S
C196 C195 1.387 . S
C196 H219 0.931 . S
C197 C190 1.399 . S
C197 C194 1.487 . S
C197 N229 1.343 . S
C198 C199 1.384 . S
C198 C200 1.384 . S
C198 H220 0.931 . S
C199 C198 1.384 . S
C199 C202 1.382 . S
C200 C198 1.384 . S
C200 C201 1.381 . S
C200 H221 0.930 . S
C201 C200 1.381 . S
C201 C203 1.381 . S
C201 C204 1.487 . S
C202 C199 1.382 . S
C202 C203 1.387 . S
C202 H222 0.930 . S
C203 C201 1.381 . S
C203 C202 1.387 . S
C203 H223 0.931 . S
C204 C201 1.487 . S
C204 C211 1.399 . S
C204 N229 1.343 . S
C205 C206 1.384 . S
C205 C207 1.384 . S
C205 H224 0.931 . S
C206 C205 1.384 . S
C206 C209 1.382 . S
C207 C205 1.384 . S
C207 C208 1.381 . S
C207 H225 0.930 . S
C208 C207 1.381 . S
C208 C210 1.381 . S
C208 C211 1.487 . S
C209 C206 1.382 . S
C209 C210 1.387 . S
C209 H226 0.930 . S
C210 C208 1.381 . S
C210 C209 1.387 . S
C210 H227 0.931 . S
C211 C204 1.399 . S
C211 C208 1.487 . S
C211 N228 1.343 . S
H212 C184 0.931 . S
H213 C186 0.930 . S
H214 C188 0.930 . S
H215 C189 0.931 . S
H216 C191 0.931 . S
H217 C193 0.930 . S
H218 C195 0.930 . S
H219 C196 0.931 . S
H220 C198 0.931 . S
H221 C200 0.930 . S
H222 C202 0.930 . S
H223 C203 0.931 . S
H224 C205 0.931 . S
H225 C207 0.930 . S
H226 C209 0.930 . S
H227 C210 0.931 . S
N228 C190 1.343 . S
N228 C211 1.343 . S
N229 C197 1.343 . S
N229 C204 1.343 . S
C230 C231 1.384 . S
C230 C232 1.384 . S
C230 H258 0.931 . S
C231 C230 1.384 . S
C231 C234 1.382 . S
C232 C230 1.384 . S
C232 C233 1.381 . S
C232 H259 0.930 . S
C233 C232 1.381 . S
C233 C235 1.381 . S
C233 C236 1.487 . S
C234 C231 1.382 . S
C234 C235 1.387 . S
C234 H260 0.930 . S
C235 C233 1.381 . S
C235 C234 1.387 . S
C235 H261 0.931 . S
C236 C233 1.487 . S
C236 C243 1.399 . S
C236 N274 1.343 . S
C237 C238 1.384 . S
C237 C239 1.384 . S
C237 H262 0.931 . S
C238 C237 1.384 . S
C238 C241 1.382 . S
C239 C237 1.384 . S
C239 C240 1.381 . S
C239 H263 0.930 . S
C240 C239 1.381 . S
C240 C242 1.381 . S
C240 C243 1.487 . S
C241 C238 1.382 . S
C241 C242 1.387 . S
C241 H264 0.930 . S
C242 C240 1.381 . S
C242 C241 1.387 . S
C242 H265 0.931 . S
C243 C236 1.399 . S
C243 C240 1.487 . S
C243 N275 1.343 . S
C244 C245 1.384 . S
C244 C246 1.384 . S
C244 H266 0.931 . S
C245 C244 1.384 . S
C245 C248 1.382 . S
C246 C244 1.384 . S
C246 C247 1.381 . S
C246 H267 0.930 . S
C247 C246 1.381 . S
C247 C249 1.381 . S
C247 C250 1.487 . S
C248 C245 1.382 . S
C248 C249 1.387 . S
C248 H268 0.930 . S
C249 C247 1.381 . S
C249 C248 1.387 . S
C249 H269 0.931 . S
C250 C247 1.487 . S
C250 C257 1.399 . S
C250 N275 1.343 . S
C251 C252 1.384 . S
C251 C253 1.384 . S
C251 H270 0.931 . S
C252 C251 1.384 . S
C252 C255 1.382 . S
C253 C251 1.384 . S
C253 C254 1.381 . S
C253 H271 0.930 . S
C254 C253 1.381 . S
C254 C256 1.381 . S
C254 C257 1.487 . S
C255 C252 1.382 . S
C255 C256 1.387 . S
C255 H272 0.930 . S
C256 C254 1.381 . S
C256 C255 1.387 . S
C256 H273 0.931 . S
C257 C250 1.399 . S
C257 C254 1.487 . S
C257 N274 1.343 . S
H258 C230 0.931 . S
H259 C232 0.930 . S
H260 C234 0.930 . S
H261 C235 0.931 . S
H262 C237 0.931 . S
H263 C239 0.930 . S
H264 C241 0.930 . S
H265 C242 0.931 . S
H266 C244 0.931 . S
H267 C246 0.930 . S
H268 C248 0.930 . S
H269 C249 0.931 . S
H270 C251 0.931 . S
H271 C253 0.930 . S
H272 C255 0.930 . S
H273 C256 0.931 . S
N274 C236 1.343 . S
N274 C257 1.343 . S
N275 C243 1.343 . S
N275 C250 1.343 . S
C276 C277 1.384 . S
C276 C278 1.384 . S
C276 H304 0.931 . S
C277 C276 1.384 . S
C277 C280 1.382 . S
C278 C276 1.384 . S
C278 C279 1.381 . S
C278 H305 0.930 . S
C279 C278 1.381 . S
C279 C281 1.381 . S
C279 C282 1.487 1_556 S
C280 C277 1.382 . S
C280 C281 1.387 . S
C280 H306 0.930 . S
C281 C279 1.381 . S
C281 C280 1.387 . S
C281 H307 0.931 . S
C282 C279 1.487 1_554 S
C282 C289 1.399 . S
C282 N320 1.343 1_554 S
C283 C284 1.384 . S
C283 C285 1.384 . S
C283 H308 0.931 . S
C284 C283 1.384 . S
C284 C287 1.382 . S
C285 C283 1.384 . S
C285 C286 1.381 . S
C285 H309 0.930 . S
C286 C285 1.381 . S
C286 C288 1.381 . S
C286 C289 1.487 . S
C287 C284 1.382 . S
C287 C288 1.387 . S
C287 H310 0.930 . S
C288 C286 1.381 . S
C288 C287 1.387 . S
C288 H311 0.931 . S
C289 C282 1.399 . S
C289 C286 1.487 . S
C289 N321 1.343 . S
C290 C291 1.384 . S
C290 C292 1.384 . S
C290 H312 0.931 . S
C291 C290 1.384 . S
C291 C294 1.382 . S
C292 C290 1.384 . S
C292 C293 1.381 . S
C292 H313 0.930 . S
C293 C292 1.381 . S
C293 C295 1.381 . S
C293 C296 1.487 . S
C294 C291 1.382 . S
C294 C295 1.387 . S
C294 H314 0.930 . S
C295 C293 1.381 . S
C295 C294 1.387 . S
C295 H315 0.931 . S
C296 C293 1.487 . S
C296 C303 1.399 . S
C296 N321 1.343 . S
C297 C298 1.384 . S
C297 C299 1.384 . S
C297 H316 0.931 . S
C298 C297 1.384 . S
C298 C301 1.382 . S
C299 C297 1.384 . S
C299 C300 1.381 . S
C299 H317 0.930 . S
C300 C299 1.381 . S
C300 C302 1.381 . S
C300 C303 1.487 1_556 S
C301 C298 1.382 . S
C301 C302 1.387 . S
C301 H318 0.930 . S
C302 C300 1.381 . S
C302 C301 1.387 . S
C302 H319 0.931 . S
C303 C296 1.399 . S
C303 C300 1.487 1_554 S
C303 N320 1.343 1_554 S
H304 C276 0.931 . S
H305 C278 0.930 . S
H306 C280 0.930 . S
H307 C281 0.931 . S
H308 C283 0.931 . S
H309 C285 0.930 . S
H310 C287 0.930 . S
H311 C288 0.931 . S
H312 C290 0.931 . S
H313 C292 0.930 . S
H314 C294 0.930 . S
H315 C295 0.931 . S
H316 C297 0.931 . S
H317 C299 0.930 . S
H318 C301 0.930 . S
H319 C302 0.931 . S
N320 C282 1.343 1_556 S
N320 C303 1.343 1_556 S
N321 C289 1.343 . S
N321 C296 1.343 . S
C322 C323 1.384 . S
C322 C324 1.384 . S
C322 H350 0.931 . S
C323 C322 1.384 . S
C323 C326 1.382 . S
C324 C322 1.384 . S
C324 C325 1.381 . S
C324 H351 0.930 . S
C325 C324 1.381 . S
C325 C327 1.381 . S
C325 C328 1.487 . S
C326 C323 1.382 . S
C326 C327 1.387 . S
C326 H352 0.930 . S
C327 C325 1.381 . S
C327 C326 1.387 . S
C327 H353 0.931 . S
C328 C325 1.487 . S
C328 C335 1.399 . S
C328 N366 1.343 1_655 S
C329 C330 1.384 . S
C329 C331 1.384 . S
C329 H354 0.931 . S
C330 C329 1.384 . S
C330 C333 1.382 . S
C331 C329 1.384 . S
C331 C332 1.381 . S
C331 H355 0.930 . S
C332 C331 1.381 . S
C332 C334 1.381 . S
C332 C335 1.487 . S
C333 C330 1.382 . S
C333 C334 1.387 . S
C333 H356 0.930 . S
C334 C332 1.381 . S
C334 C333 1.387 . S
C334 H357 0.931 . S
C335 C328 1.399 . S
C335 C332 1.487 . S
C335 N367 1.343 1_655 S
C336 C337 1.384 . S
C336 C338 1.384 . S
C336 H358 0.931 . S
C337 C336 1.384 . S
C337 C340 1.382 . S
C338 C336 1.384 . S
C338 C339 1.381 . S
C338 H359 0.930 . S
C339 C338 1.381 . S
C339 C341 1.381 . S
C339 C342 1.487 . S
C340 C337 1.382 . S
C340 C341 1.387 . S
C340 H360 0.930 . S
C341 C339 1.381 . S
C341 C340 1.387 . S
C341 H361 0.931 . S
C342 C339 1.487 . S
C342 C349 1.399 . S
C342 N367 1.343 . S
C343 C344 1.384 . S
C343 C345 1.384 . S
C343 H362 0.931 . S
C344 C343 1.384 . S
C344 C347 1.382 . S
C345 C343 1.384 . S
C345 C346 1.381 . S
C345 H363 0.930 . S
C346 C345 1.381 . S
C346 C348 1.381 . S
C346 C349 1.487 . S
C347 C344 1.382 . S
C347 C348 1.387 . S
C347 H364 0.930 . S
C348 C346 1.381 . S
C348 C347 1.387 . S
C348 H365 0.931 . S
C349 C342 1.399 . S
C349 C346 1.487 . S
C349 N366 1.343 . S
H350 C322 0.931 . S
H351 C324 0.930 . S
H352 C326 0.930 . S
H353 C327 0.931 . S
H354 C329 0.931 . S
H355 C331 0.930 . S
H356 C333 0.930 . S
H357 C334 0.931 . S
H358 C336 0.931 . S
H359 C338 0.930 . S
H360 C340 0.930 . S
H361 C341 0.931 . S
H362 C343 0.931 . S
H363 C345 0.930 . S
H364 C347 0.930 . S
H365 C348 0.931 . S
N366 C328 1.343 1_455 S
N366 C349 1.343 . S
N367 C335 1.343 1_455 S
N367 C342 1.343 . S
Fe368 O369 1.886 . S
Fe368 O372 1.715 1_455 S
Fe368 O377 2.077 . S
Fe368 O382 1.935 1_455 S
Fe368 O388 2.077 . S
Fe368 O397 1.935 1_455 S
O369 Fe368 1.886 . S
O369 Fe371 1.715 . S
Fe370 O372 1.886 . S
Fe370 O373 1.715 . S
Fe370 O380 1.935 . S
Fe370 O381 2.077 . S
Fe370 O387 1.935 . S
Fe370 O396 2.077 . S
Fe371 O369 1.715 . S
Fe371 O374 1.886 . S
Fe371 O378 1.935 . S
Fe371 O383 2.077 . S
Fe371 O389 1.935 . S
Fe371 O393 2.077 . S
O372 Fe368 1.715 1_655 S
O372 Fe370 1.886 . S
O373 Fe370 1.715 . S
O373 Fe375 1.886 . S
O374 Fe371 1.886 . S
O374 Fe375 1.715 1_455 S
Fe375 O373 1.886 . S
Fe375 O374 1.715 1_655 S
Fe375 O379 2.077 . S
Fe375 O384 1.935 1_655 S
Fe375 O386 2.077 . S
Fe375 O394 1.935 1_655 S
C376 O388 1.381 . S
C376 O389 1.421 . S
O377 Fe368 2.077 . S
O377 C390 1.381 . S
O378 Fe371 1.935 . S
O378 C390 1.421 . S
O379 Fe375 2.077 . S
O379 C395 1.381 . S
O380 Fe370 1.935 . S
O380 C395 1.421 . S
O381 Fe370 2.077 . S
O381 C385 1.381 . S
O382 Fe368 1.935 1_655 S
O382 C385 1.421 . S
O383 Fe371 2.077 . S
O383 C391 1.381 . S
O384 Fe375 1.935 1_455 S
O384 C391 1.421 . S
C385 O381 1.381 . S
C385 O382 1.421 . S
O386 Fe375 2.077 . S
O386 C398 1.381 . S
O387 Fe370 1.935 . S
O387 C398 1.421 . S
O388 Fe368 2.077 . S
O388 C376 1.381 . S
O389 Fe371 1.935 . S
O389 C376 1.421 . S
C390 O377 1.381 . S
C390 O378 1.421 . S
C391 O383 1.381 . S
C391 O384 1.421 . S
C392 O393 1.381 . S
C392 O394 1.421 . S
O393 Fe371 2.077 . S
O393 C392 1.381 . S
O394 Fe375 1.935 1_455 S
O394 C392 1.421 . S
C395 O379 1.381 . S
C395 O380 1.421 . S
O396 Fe370 2.077 . S
O396 C399 1.381 . S
O397 Fe368 1.935 1_655 S
O397 C399 1.421 . S
C398 O386 1.381 . S
C398 O387 1.421 . S
C399 O396 1.381 . S
C399 O397 1.421 . S
Fe400 O401 1.886 . S
Fe400 O404 1.715 . S
Fe400 O409 2.077 . S
Fe400 O414 1.935 . S
Fe400 O420 2.077 . S
Fe400 O429 1.935 . S
O401 Fe400 1.886 . S
O401 Fe403 1.715 . S
Fe402 O404 1.886 . S
Fe402 O405 1.715 . S
Fe402 O412 1.935 . S
Fe402 O413 2.077 . S
Fe402 O419 1.935 . S
Fe402 O428 2.077 . S
Fe403 O401 1.715 . S
Fe403 O406 1.886 . S
Fe403 O410 1.935 . S
Fe403 O415 2.077 . S
Fe403 O421 1.935 . S
Fe403 O425 2.077 . S
O404 Fe400 1.715 . S
O404 Fe402 1.886 . S
O405 Fe402 1.715 . S
O405 Fe407 1.886 . S
O406 Fe403 1.886 . S
O406 Fe407 1.715 . S
Fe407 O405 1.886 . S
Fe407 O406 1.715 . S
Fe407 O411 2.077 . S
Fe407 O416 1.935 . S
Fe407 O418 2.077 . S
Fe407 O426 1.935 . S
C408 O420 1.381 . S
C408 O421 1.421 . S
O409 Fe400 2.077 . S
O409 C422 1.381 . S
O410 Fe403 1.935 . S
O410 C422 1.421 . S
O411 Fe407 2.077 . S
O411 C427 1.381 . S
O412 Fe402 1.935 . S
O412 C427 1.421 . S
O413 Fe402 2.077 . S
O413 C417 1.381 . S
O414 Fe400 1.935 . S
O414 C417 1.421 . S
O415 Fe403 2.077 . S
O415 C423 1.381 . S
O416 Fe407 1.935 . S
O416 C423 1.421 . S
C417 O413 1.381 . S
C417 O414 1.421 . S
O418 Fe407 2.077 . S
O418 C430 1.381 . S
O419 Fe402 1.935 . S
O419 C430 1.421 . S
O420 Fe400 2.077 . S
O420 C408 1.381 . S
O421 Fe403 1.935 . S
O421 C408 1.421 . S
C422 O409 1.381 . S
C422 O410 1.421 . S
C423 O415 1.381 . S
C423 O416 1.421 . S
C424 O425 1.381 . S
C424 O426 1.421 . S
O425 Fe403 2.077 . S
O425 C424 1.381 . S
O426 Fe407 1.935 . S
O426 C424 1.421 . S
C427 O411 1.381 . S
C427 O412 1.421 . S
O428 Fe402 2.077 . S
O428 C431 1.381 . S
O429 Fe400 1.935 . S
O429 C431 1.421 . S
C430 O418 1.381 . S
C430 O419 1.421 . S
C431 O428 1.381 . S
C431 O429 1.421 . S
Fe432 O433 1.886 . S
Fe432 O436 1.715 . S
Fe432 O441 2.077 . S
Fe432 O446 1.935 . S
Fe432 O452 2.077 . S
Fe432 O461 1.935 . S
O433 Fe432 1.886 . S
O433 Fe435 1.715 . S
Fe434 O436 1.886 . S
Fe434 O437 1.715 . S
Fe434 O444 1.935 . S
Fe434 O445 2.077 . S
Fe434 O451 1.935 . S
Fe434 O460 2.077 . S
Fe435 O433 1.715 . S
Fe435 O438 1.886 . S
Fe435 O442 1.935 . S
Fe435 O447 2.077 . S
Fe435 O453 1.935 . S
Fe435 O457 2.077 . S
O436 Fe432 1.715 . S
O436 Fe434 1.886 . S
O437 Fe434 1.715 . S
O437 Fe439 1.886 . S
O438 Fe435 1.886 . S
O438 Fe439 1.715 . S
Fe439 O437 1.886 . S
Fe439 O438 1.715 . S
Fe439 O443 2.077 . S
Fe439 O448 1.935 . S
Fe439 O450 2.077 . S
Fe439 O458 1.935 . S
C440 O452 1.381 . S
C440 O453 1.421 . S
O441 Fe432 2.077 . S
O441 C454 1.381 . S
O442 Fe435 1.935 . S
O442 C454 1.421 . S
O443 Fe439 2.077 . S
O443 C459 1.381 . S
O444 Fe434 1.935 . S
O444 C459 1.421 . S
O445 Fe434 2.077 . S
O445 C449 1.381 . S
O446 Fe432 1.935 . S
O446 C449 1.421 . S
O447 Fe435 2.077 . S
O447 C455 1.381 . S
O448 Fe439 1.935 . S
O448 C455 1.421 . S
C449 O445 1.381 . S
C449 O446 1.421 . S
O450 Fe439 2.077 . S
O450 C462 1.381 . S
O451 Fe434 1.935 . S
O451 C462 1.421 . S
O452 Fe432 2.077 . S
O452 C440 1.381 . S
O453 Fe435 1.935 . S
O453 C440 1.421 . S
C454 O441 1.381 . S
C454 O442 1.421 . S
C455 O447 1.381 . S
C455 O448 1.421 . S
C456 O457 1.381 . S
C456 O458 1.421 . S
O457 Fe435 2.077 . S
O457 C456 1.381 . S
O458 Fe439 1.935 . S
O458 C456 1.421 . S
C459 O443 1.381 . S
C459 O444 1.421 . S
O460 Fe434 2.077 . S
O460 C463 1.381 . S
O461 Fe432 1.935 . S
O461 C463 1.421 . S
C462 O450 1.381 . S
C462 O451 1.421 . S
C463 O460 1.381 . S
C463 O461 1.421 . S
Fe464 O465 1.886 . S
Fe464 O468 1.715 . S
Fe464 O473 2.077 1_455 S
Fe464 O478 1.935 1_455 S
Fe464 O484 2.077 . S
Fe464 O493 1.935 . S
O465 Fe464 1.886 . S
O465 Fe467 1.715 . S
Fe466 O468 1.886 . S
Fe466 O469 1.715 . S
Fe466 O476 1.935 1_455 S
Fe466 O477 2.077 1_455 S
Fe466 O483 1.935 . S
Fe466 O492 2.077 . S
Fe467 O465 1.715 . S
Fe467 O470 1.886 . S
Fe467 O474 1.935 1_455 S
Fe467 O479 2.077 1_455 S
Fe467 O485 1.935 . S
Fe467 O489 2.077 . S
O468 Fe464 1.715 . S
O468 Fe466 1.886 . S
O469 Fe466 1.715 . S
O469 Fe471 1.886 . S
O470 Fe467 1.886 . S
O470 Fe471 1.715 . S
Fe471 O469 1.886 . S
Fe471 O470 1.715 . S
Fe471 O475 2.077 1_455 S
Fe471 O480 1.935 1_455 S
Fe471 O482 2.077 . S
Fe471 O490 1.935 . S
C472 O484 1.381 . S
C472 O485 1.421 . S
O473 Fe464 2.077 1_655 S
O473 C486 1.381 . S
O474 Fe467 1.935 1_655 S
O474 C486 1.421 . S
O475 Fe471 2.077 1_655 S
O475 C491 1.381 . S
O476 Fe466 1.935 1_655 S
O476 C491 1.421 . S
O477 Fe466 2.077 1_655 S
O477 C481 1.381 . S
O478 Fe464 1.935 1_655 S
O478 C481 1.421 . S
O479 Fe467 2.077 1_655 S
O479 C487 1.381 . S
O480 Fe471 1.935 1_655 S
O480 C487 1.421 . S
C481 O477 1.381 . S
C481 O478 1.421 . S
O482 Fe471 2.077 . S
O482 C494 1.381 . S
O483 Fe466 1.935 . S
O483 C494 1.421 . S
O484 Fe464 2.077 . S
O484 C472 1.381 . S
O485 Fe467 1.935 . S
O485 C472 1.421 . S
C486 O473 1.381 . S
C486 O474 1.421 . S
C487 O479 1.381 . S
C487 O480 1.421 . S
C488 O489 1.381 . S
C488 O490 1.421 . S
O489 Fe467 2.077 . S
O489 C488 1.381 . S
O490 Fe471 1.935 . S
O490 C488 1.421 . S
C491 O475 1.381 . S
C491 O476 1.421 . S
O492 Fe466 2.077 . S
O492 C495 1.381 . S
O493 Fe464 1.935 . S
O493 C495 1.421 . S
C494 O482 1.381 . S
C494 O483 1.421 . S
C495 O492 1.381 . S
C495 O493 1.421 . S
C496 C497 1.391 . S
C496 C498 1.394 . S
C496 H512 0.931 . S
C497 C496 1.391 . S
C497 C501 1.376 . S
C498 C496 1.394 . S
C498 C499 1.369 . S
C498 C502 1.531 . S
C499 C498 1.369 . S
C499 C500 1.410 . S
C499 C507 1.503 . S
C500 C499 1.410 . S
C500 C501 1.392 . S
C500 C503 1.511 . S
C501 C497 1.376 . S
C501 C500 1.392 . S
C501 H513 0.929 . S
C502 C498 1.531 . S
C502 H514 0.960 . S
C502 H515 0.962 . S
C502 H516 0.960 . S
C503 C500 1.511 . S
C503 H517 0.961 . S
C503 H518 0.961 . S
C503 H519 0.961 . S
C504 C505 1.370 . S
C504 C506 1.363 . S
C504 H520 0.931 . S
C505 C504 1.370 . S
C505 C509 1.408 . S
C506 C504 1.363 . S
C506 C507 1.370 . S
C506 C510 1.524 . S
C507 C499 1.503 . S
C507 C506 1.370 . S
C507 C508 1.403 . S
C508 C507 1.403 . S
C508 C509 1.404 . S
C508 C511 1.539 . S
C509 C505 1.408 . S
C509 C508 1.404 . S
C509 H521 0.930 . S
C510 C506 1.524 . S
C510 H522 0.956 . S
C510 H523 0.961 . S
C510 H524 0.961 . S
C511 C508 1.539 . S
C511 H525 0.958 . S
C511 H526 0.961 . S
C511 H527 0.960 . S
H512 C496 0.931 . S
H513 C501 0.929 . S
H514 C502 0.960 . S
H515 C502 0.962 . S
H516 C502 0.960 . S
H517 C503 0.961 . S
H518 C503 0.961 . S
H519 C503 0.961 . S
H520 C504 0.931 . S
H521 C509 0.930 . S
H522 C510 0.956 . S
H523 C510 0.961 . S
H524 C510 0.961 . S
H525 C511 0.958 . S
H526 C511 0.961 . S
H527 C511 0.960 . S
C528 C529 1.391 . S
C528 C530 1.394 1_565 S
C528 H544 0.931 . S
C529 C528 1.391 . S
C529 C533 1.376 . S
C530 C528 1.394 1_545 S
C530 C531 1.369 . S
C530 C534 1.531 . S
C531 C530 1.369 . S
C531 C532 1.410 . S
C531 C539 1.503 . S
C532 C531 1.410 . S
C532 C533 1.392 1_545 S
C532 C535 1.511 . S
C533 C529 1.376 . S
C533 C532 1.392 1_565 S
C533 H545 0.929 . S
C534 C530 1.531 . S
C534 H546 0.960 . S
C534 H547 0.962 . S
C534 H548 0.960 . S
C535 C532 1.511 . S
C535 H549 0.961 . S
C535 H550 0.961 . S
C535 H551 0.961 . S
C536 C537 1.370 . S
C536 C538 1.363 . S
C536 H552 0.931 . S
C537 C536 1.370 . S
C537 C541 1.408 . S
C538 C536 1.363 . S
C538 C539 1.370 . S
C538 C542 1.524 . S
C539 C531 1.503 . S
C539 C538 1.370 . S
C539 C540 1.403 . S
C540 C539 1.403 . S
C540 C541 1.404 . S
C540 C543 1.539 . S
C541 C537 1.408 . S
C541 C540 1.404 . S
C541 H553 0.930 . S
C542 C538 1.524 . S
C542 H554 0.956 . S
C542 H555 0.961 1_545 S
C542 H556 0.961 . S
C543 C540 1.539 . S
C543 H557 0.958 . S
C543 H558 0.961 . S
C543 H559 0.960 . S
H544 C528 0.931 . S
H545 C533 0.929 . S
H546 C534 0.960 . S
H547 C534 0.962 . S
H548 C534 0.960 . S
H549 C535 0.961 . S
H550 C535 0.961 . S
H551 C535 0.961 . S
H552 C536 0.931 . S
H553 C541 0.930 . S
H554 C542 0.956 . S
H555 C542 0.961 1_565 S
H556 C542 0.961 . S
H557 C543 0.958 . S
H558 C543 0.961 . S
H559 C543 0.960 . S
C560 C561 1.391 . S
C560 C562 1.394 . S
C560 H576 0.931 . S
C561 C560 1.391 . S
C561 C565 1.376 . S
C562 C560 1.394 . S
C562 C563 1.369 . S
C562 C566 1.531 . S
C563 C562 1.369 . S
C563 C564 1.410 . S
C563 C571 1.503 . S
C564 C563 1.410 . S
C564 C565 1.392 . S
C564 C567 1.511 . S
C565 C561 1.376 . S
C565 C564 1.392 . S
C565 H577 0.929 . S
C566 C562 1.531 . S
C566 H578 0.960 . S
C566 H579 0.962 . S
C566 H580 0.960 . S
C567 C564 1.511 . S
C567 H581 0.961 . S
C567 H582 0.961 . S
C567 H583 0.961 . S
C568 C569 1.370 . S
C568 C570 1.363 . S
C568 H584 0.931 . S
C569 C568 1.370 . S
C569 C573 1.408 . S
C570 C568 1.363 . S
C570 C571 1.370 . S
C570 C574 1.524 . S
C571 C563 1.503 . S
C571 C570 1.370 . S
C571 C572 1.403 . S
C572 C571 1.403 . S
C572 C573 1.404 . S
C572 C575 1.539 . S
C573 C569 1.408 . S
C573 C572 1.404 . S
C573 H585 0.930 . S
C574 C570 1.524 . S
C574 H586 0.956 . S
C574 H587 0.961 . S
C574 H588 0.961 . S
C575 C572 1.539 . S
C575 H589 0.958 . S
C575 H590 0.961 . S
C575 H591 0.960 . S
H576 C560 0.931 . S
H577 C565 0.929 . S
H578 C566 0.960 . S
H579 C566 0.962 . S
H580 C566 0.960 . S
H581 C567 0.961 . S
H582 C567 0.961 . S
H583 C567 0.961 . S
H584 C568 0.931 . S
H585 C573 0.930 . S
H586 C574 0.956 . S
H587 C574 0.961 . S
H588 C574 0.961 . S
H589 C575 0.958 . S
H590 C575 0.961 . S
H591 C575 0.960 . S
C592 C593 1.391 . S
C592 C594 1.394 . S
C592 H608 0.931 . S
C593 C592 1.391 . S
C593 C597 1.376 . S
C594 C592 1.394 . S
C594 C595 1.369 1_545 S
C594 C598 1.531 . S
C595 C594 1.369 1_565 S
C595 C596 1.410 . S
C595 C603 1.503 . S
C596 C595 1.410 . S
C596 C597 1.392 1_565 S
C596 C599 1.511 . S
C597 C593 1.376 . S
C597 C596 1.392 1_545 S
C597 H609 0.929 . S
C598 C594 1.531 . S
C598 H610 0.960 . S
C598 H611 0.962 . S
C598 H612 0.960 . S
C599 C596 1.511 . S
C599 H613 0.961 . S
C599 H614 0.961 . S
C599 H615 0.961 . S
C600 C601 1.370 . S
C600 C602 1.363 . S
C600 H616 0.931 . S
C601 C600 1.370 . S
C601 C605 1.408 . S
C602 C600 1.363 . S
C602 C603 1.370 . S
C602 C606 1.524 . S
C603 C595 1.503 . S
C603 C602 1.370 . S
C603 C604 1.403 . S
C604 C603 1.403 . S
C604 C605 1.404 . S
C604 C607 1.539 . S
C605 C601 1.408 . S
C605 C604 1.404 . S
C605 H617 0.930 . S
C606 C602 1.524 . S
C606 H618 0.956 . S
C606 H619 0.961 . S
C606 H620 0.961 . S
C607 C604 1.539 . S
C607 H621 0.958 . S
C607 H622 0.961 . S
C607 H623 0.960 . S
H608 C592 0.931 . S
H609 C597 0.929 . S
H610 C598 0.960 . S
H611 C598 0.962 . S
H612 C598 0.960 . S
H613 C599 0.961 . S
H614 C599 0.961 . S
H615 C599 0.961 . S
H616 C600 0.931 . S
H617 C605 0.930 . S
H618 C606 0.956 . S
H619 C606 0.961 . S
H620 C606 0.961 . S
H621 C607 0.958 . S
H622 C607 0.961 . S
H623 C607 0.960 . S
C624 C625 1.391 . S
C624 C626 1.394 . S
C624 H640 0.931 . S
C625 C624 1.391 . S
C625 C629 1.376 . S
C626 C624 1.394 . S
C626 C627 1.369 . S
C626 C630 1.531 . S
C627 C626 1.369 . S
C627 C628 1.410 . S
C627 C635 1.503 . S
C628 C627 1.410 . S
C628 C629 1.392 . S
C628 C631 1.511 . S
C629 C625 1.376 . S
C629 C628 1.392 . S
C629 H641 0.929 . S
C630 C626 1.531 . S
C630 H642 0.960 . S
C630 H643 0.962 . S
C630 H644 0.960 . S
C631 C628 1.511 . S
C631 H645 0.961 . S
C631 H646 0.961 . S
C631 H647 0.961 . S
C632 C633 1.370 . S
C632 C634 1.363 . S
C632 H648 0.931 . S
C633 C632 1.370 . S
C633 C637 1.408 . S
C634 C632 1.363 . S
C634 C635 1.370 . S
C634 C638 1.524 . S
C635 C627 1.503 . S
C635 C634 1.370 . S
C635 C636 1.403 . S
C636 C635 1.403 . S
C636 C637 1.404 . S
C636 C639 1.539 . S
C637 C633 1.408 . S
C637 C636 1.404 . S
C637 H649 0.930 . S
C638 C634 1.524 . S
C638 H650 0.956 . S
C638 H651 0.961 . S
C638 H652 0.961 . S
C639 C636 1.539 . S
C639 H653 0.958 . S
C639 H654 0.961 . S
C639 H655 0.960 . S
H640 C624 0.931 . S
H641 C629 0.929 . S
H642 C630 0.960 . S
H643 C630 0.962 . S
H644 C630 0.960 . S
H645 C631 0.961 . S
H646 C631 0.961 . S
H647 C631 0.961 . S
H648 C632 0.931 . S
H649 C637 0.930 . S
H650 C638 0.956 . S
H651 C638 0.961 . S
H652 C638 0.961 . S
H653 C639 0.958 . S
H654 C639 0.961 . S
H655 C639 0.960 . S
C656 C657 1.391 . S
C656 C658 1.394 1_565 S
C656 H672 0.931 . S
C657 C656 1.391 . S
C657 C661 1.376 . S
C658 C656 1.394 1_545 S
C658 C659 1.369 . S
C658 C662 1.531 . S
C659 C658 1.369 . S
C659 C660 1.410 . S
C659 C667 1.503 . S
C660 C659 1.410 . S
C660 C661 1.392 1_545 S
C660 C663 1.511 . S
C661 C657 1.376 . S
C661 C660 1.392 1_565 S
C661 H673 0.929 . S
C662 C658 1.531 . S
C662 H674 0.960 . S
C662 H675 0.962 . S
C662 H676 0.960 . S
C663 C660 1.511 . S
C663 H677 0.961 1_545 S
C663 H678 0.961 . S
C663 H679 0.961 . S
C664 C665 1.370 . S
C664 C666 1.363 . S
C664 H680 0.931 . S
C665 C664 1.370 . S
C665 C669 1.408 . S
C666 C664 1.363 . S
C666 C667 1.370 . S
C666 C670 1.524 . S
C667 C659 1.503 . S
C667 C666 1.370 . S
C667 C668 1.403 . S
C668 C667 1.403 . S
C668 C669 1.404 . S
C668 C671 1.539 . S
C669 C665 1.408 . S
C669 C668 1.404 . S
C669 H681 0.930 . S
C670 C666 1.524 . S
C670 H682 0.956 . S
C670 H683 0.961 1_545 S
C670 H684 0.961 . S
C671 C668 1.539 . S
C671 H685 0.958 . S
C671 H686 0.961 . S
C671 H687 0.960 . S
H672 C656 0.931 . S
H673 C661 0.929 . S
H674 C662 0.960 . S
H675 C662 0.962 . S
H676 C662 0.960 . S
H677 C663 0.961 1_565 S
H678 C663 0.961 . S
H679 C663 0.961 . S
H680 C664 0.931 . S
H681 C669 0.930 . S
H682 C670 0.956 . S
H683 C670 0.961 1_565 S
H684 C670 0.961 . S
H685 C671 0.958 . S
H686 C671 0.961 . S
H687 C671 0.960 . S
C688 C689 1.391 . S
C688 C690 1.394 . S
C688 H704 0.931 . S
C689 C688 1.391 . S
C689 C693 1.376 . S
C690 C688 1.394 . S
C690 C691 1.369 . S
C690 C694 1.531 . S
C691 C690 1.369 . S
C691 C692 1.410 . S
C691 C699 1.503 . S
C692 C691 1.410 . S
C692 C693 1.392 . S
C692 C695 1.511 . S
C693 C689 1.376 . S
C693 C692 1.392 . S
C693 H705 0.929 . S
C694 C690 1.531 . S
C694 H706 0.960 . S
C694 H707 0.962 . S
C694 H708 0.960 . S
C695 C692 1.511 . S
C695 H709 0.961 . S
C695 H710 0.961 . S
C695 H711 0.961 . S
C696 C697 1.370 . S
C696 C698 1.363 . S
C696 H712 0.931 . S
C697 C696 1.370 . S
C697 C701 1.408 . S
C698 C696 1.363 . S
C698 C699 1.370 . S
C698 C702 1.524 . S
C699 C691 1.503 . S
C699 C698 1.370 . S
C699 C700 1.403 . S
C700 C699 1.403 . S
C700 C701 1.404 . S
C700 C703 1.539 . S
C701 C697 1.408 . S
C701 C700 1.404 . S
C701 H713 0.930 . S
C702 C698 1.524 . S
C702 H714 0.956 . S
C702 H715 0.961 . S
C702 H716 0.961 . S
C703 C700 1.539 . S
C703 H717 0.958 . S
C703 H718 0.961 . S
C703 H719 0.960 . S
H704 C688 0.931 . S
H705 C693 0.929 . S
H706 C694 0.960 . S
H707 C694 0.962 . S
H708 C694 0.960 . S
H709 C695 0.961 . S
H710 C695 0.961 . S
H711 C695 0.961 . S
H712 C696 0.931 . S
H713 C701 0.930 . S
H714 C702 0.956 . S
H715 C702 0.961 . S
H716 C702 0.961 . S
H717 C703 0.958 . S
H718 C703 0.961 . S
H719 C703 0.960 . S
C720 C721 1.391 . S
C720 C722 1.394 . S
C720 H736 0.931 . S
C721 C720 1.391 . S
C721 C725 1.376 . S
C722 C720 1.394 . S
C722 C723 1.369 1_545 S
C722 C726 1.531 . S
C723 C722 1.369 1_565 S
C723 C724 1.410 . S
C723 C731 1.503 . S
C724 C723 1.410 . S
C724 C725 1.392 1_565 S
C724 C727 1.511 . S
C725 C721 1.376 . S
C725 C724 1.392 1_545 S
C725 H737 0.929 . S
C726 C722 1.531 . S
C726 H738 0.960 . S
C726 H739 0.962 . S
C726 H740 0.960 . S
C727 C724 1.511 . S
C727 H741 0.961 . S
C727 H742 0.961 . S
C727 H743 0.961 . S
C728 C729 1.370 . S
C728 C730 1.363 . S
C728 H744 0.931 . S
C729 C728 1.370 . S
C729 C733 1.408 . S
C730 C728 1.363 . S
C730 C731 1.370 . S
C730 C734 1.524 . S
C731 C723 1.503 . S
C731 C730 1.370 . S
C731 C732 1.403 . S
C732 C731 1.403 . S
C732 C733 1.404 . S
C732 C735 1.539 . S
C733 C729 1.408 . S
C733 C732 1.404 . S
C733 H745 0.930 . S
C734 C730 1.524 . S
C734 H746 0.956 . S
C734 H747 0.961 . S
C734 H748 0.961 . S
C735 C732 1.539 . S
C735 H749 0.958 1_565 S
C735 H750 0.961 . S
C735 H751 0.960 . S
H736 C720 0.931 . S
H737 C725 0.929 . S
H738 C726 0.960 . S
H739 C726 0.962 . S
H740 C726 0.960 . S
H741 C727 0.961 . S
H742 C727 0.961 . S
H743 C727 0.961 . S
H744 C728 0.931 . S
H745 C733 0.930 . S
H746 C734 0.956 . S
H747 C734 0.961 . S
H748 C734 0.961 . S
H749 C735 0.958 1_545 S
H750 C735 0.961 . S
H751 C735 0.960 . S
C752 C753 1.391 . S
C752 C754 1.394 . S
C752 H768 0.931 . S
C753 C752 1.391 . S
C753 C757 1.376 . S
C754 C752 1.394 . S
C754 C755 1.369 . S
C754 C758 1.531 . S
C755 C754 1.369 . S
C755 C756 1.410 . S
C755 C763 1.503 . S
C756 C755 1.410 . S
C756 C757 1.392 . S
C756 C759 1.511 . S
C757 C753 1.376 . S
C757 C756 1.392 . S
C757 H769 0.929 . S
C758 C754 1.531 . S
C758 H770 0.960 . S
C758 H771 0.962 . S
C758 H772 0.960 . S
C759 C756 1.511 . S
C759 H773 0.961 . S
C759 H774 0.961 . S
C759 H775 0.961 . S
C760 C761 1.370 . S
C760 C762 1.363 . S
C760 H776 0.931 . S
C761 C760 1.370 . S
C761 C765 1.408 . S
C762 C760 1.363 . S
C762 C763 1.370 . S
C762 C766 1.524 . S
C763 C755 1.503 . S
C763 C762 1.370 . S
C763 C764 1.403 . S
C764 C763 1.403 . S
C764 C765 1.404 . S
C764 C767 1.539 . S
C765 C761 1.408 . S
C765 C764 1.404 . S
C765 H777 0.930 . S
C766 C762 1.524 . S
C766 H778 0.956 . S
C766 H779 0.961 . S
C766 H780 0.961 . S
C767 C764 1.539 . S
C767 H781 0.958 . S
C767 H782 0.961 . S
C767 H783 0.960 . S
H768 C752 0.931 . S
H769 C757 0.929 . S
H770 C758 0.960 . S
H771 C758 0.962 . S
H772 C758 0.960 . S
H773 C759 0.961 . S
H774 C759 0.961 . S
H775 C759 0.961 . S
H776 C760 0.931 . S
H777 C765 0.930 . S
H778 C766 0.956 . S
H779 C766 0.961 . S
H780 C766 0.961 . S
H781 C767 0.958 . S
H782 C767 0.961 . S
H783 C767 0.960 . S
C784 C785 1.391 . S
C784 C786 1.394 . S
C784 H800 0.931 . S
C785 C784 1.391 . S
C785 C789 1.376 . S
C786 C784 1.394 . S
C786 C787 1.369 1_545 S
C786 C790 1.531 . S
C787 C786 1.369 1_565 S
C787 C788 1.410 . S
C787 C795 1.503 . S
C788 C787 1.410 . S
C788 C789 1.392 1_565 S
C788 C791 1.511 . S
C789 C785 1.376 . S
C789 C788 1.392 1_545 S
C789 H801 0.929 . S
C790 C786 1.531 . S
C790 H802 0.960 . S
C790 H803 0.962 . S
C790 H804 0.960 . S
C791 C788 1.511 . S
C791 H805 0.961 . S
C791 H806 0.961 . S
C791 H807 0.961 . S
C792 C793 1.370 . S
C792 C794 1.363 . S
C792 H808 0.931 . S
C793 C792 1.370 . S
C793 C797 1.408 . S
C794 C792 1.363 . S
C794 C795 1.370 . S
C794 C798 1.524 . S
C795 C787 1.503 . S
C795 C794 1.370 . S
C795 C796 1.403 . S
C796 C795 1.403 . S
C796 C797 1.404 . S
C796 C799 1.539 . S
C797 C793 1.408 . S
C797 C796 1.404 . S
C797 H809 0.930 . S
C798 C794 1.524 . S
C798 H810 0.956 . S
C798 H811 0.961 . S
C798 H812 0.961 . S
C799 C796 1.539 . S
C799 H813 0.958 . S
C799 H814 0.961 . S
C799 H815 0.960 . S
H800 C784 0.931 . S
H801 C789 0.929 . S
H802 C790 0.960 . S
H803 C790 0.962 . S
H804 C790 0.960 . S
H805 C791 0.961 . S
H806 C791 0.961 . S
H807 C791 0.961 . S
H808 C792 0.931 . S
H809 C797 0.930 . S
H810 C798 0.956 . S
H811 C798 0.961 . S
H812 C798 0.961 . S
H813 C799 0.958 . S
H814 C799 0.961 . S
H815 C799 0.960 . S
C816 C817 1.391 . S
C816 C818 1.394 . S
C816 H832 0.931 . S
C817 C816 1.391 . S
C817 C821 1.376 . S
C818 C816 1.394 . S
C818 C819 1.369 . S
C818 C822 1.531 . S
C819 C818 1.369 . S
C819 C820 1.410 . S
C819 C827 1.503 . S
C820 C819 1.410 . S
C820 C821 1.392 . S
C820 C823 1.511 . S
C821 C817 1.376 . S
C821 C820 1.392 . S
C821 H833 0.929 . S
C822 C818 1.531 . S
C822 H834 0.960 . S
C822 H835 0.962 . S
C822 H836 0.960 . S
C823 C820 1.511 . S
C823 H837 0.961 . S
C823 H838 0.961 . S
C823 H839 0.961 . S
C824 C825 1.370 . S
C824 C826 1.363 . S
C824 H840 0.931 . S
C825 C824 1.370 . S
C825 C829 1.408 . S
C826 C824 1.363 . S
C826 C827 1.370 . S
C826 C830 1.524 . S
C827 C819 1.503 . S
C827 C826 1.370 . S
C827 C828 1.403 . S
C828 C827 1.403 . S
C828 C829 1.404 . S
C828 C831 1.539 . S
C829 C825 1.408 . S
C829 C828 1.404 . S
C829 H841 0.930 . S
C830 C826 1.524 . S
C830 H842 0.956 . S
C830 H843 0.961 . S
C830 H844 0.961 . S
C831 C828 1.539 . S
C831 H845 0.958 . S
C831 H846 0.961 . S
C831 H847 0.960 . S
H832 C816 0.931 . S
H833 C821 0.929 . S
H834 C822 0.960 . S
H835 C822 0.962 . S
H836 C822 0.960 . S
H837 C823 0.961 . S
H838 C823 0.961 . S
H839 C823 0.961 . S
H840 C824 0.931 . S
H841 C829 0.930 . S
H842 C830 0.956 . S
H843 C830 0.961 . S
H844 C830 0.961 . S
H845 C831 0.958 . S
H846 C831 0.961 . S
H847 C831 0.960 . S
C848 C849 1.391 . S
C848 C850 1.394 1_565 S
C848 H864 0.931 . S
C849 C848 1.391 . S
C849 C853 1.376 . S
C850 C848 1.394 1_545 S
C850 C851 1.369 . S
C850 C854 1.531 . S
C851 C850 1.369 . S
C851 C852 1.410 . S
C851 C859 1.503 . S
C852 C851 1.410 . S
C852 C853 1.392 1_545 S
C852 C855 1.511 . S
C853 C849 1.376 . S
C853 C852 1.392 1_565 S
C853 H865 0.929 . S
C854 C850 1.531 . S
C854 H866 0.960 . S
C854 H867 0.962 . S
C854 H868 0.960 . S
C855 C852 1.511 . S
C855 H869 0.961 . S
C855 H870 0.961 . S
C855 H871 0.961 . S
C856 C857 1.370 . S
C856 C858 1.363 . S
C856 H872 0.931 . S
C857 C856 1.370 . S
C857 C861 1.408 . S
C858 C856 1.363 . S
C858 C859 1.370 . S
C858 C862 1.524 . S
C859 C851 1.503 . S
C859 C858 1.370 . S
C859 C860 1.403 . S
C860 C859 1.403 . S
C860 C861 1.404 . S
C860 C863 1.539 . S
C861 C857 1.408 . S
C861 C860 1.404 . S
C861 H873 0.930 . S
C862 C858 1.524 . S
C862 H874 0.947 1_545 S
C862 H875 0.952 1_545 S
C862 H876 0.961 . S
C863 C860 1.539 . S
C863 H877 0.958 . S
C863 H878 0.961 . S
C863 H879 0.960 . S
H864 C848 0.931 . S
H865 C853 0.929 . S
H866 C854 0.960 . S
H867 C854 0.962 . S
H868 C854 0.960 . S
H869 C855 0.961 . S
H870 C855 0.961 . S
H871 C855 0.961 . S
H872 C856 0.931 . S
H873 C861 0.930 . S
H874 C862 0.947 1_565 S
H875 C862 0.952 1_565 S
H876 C862 0.961 . S
H877 C863 0.958 . S
H878 C863 0.961 . S
H879 C863 0.960 . S
C880 C881 1.391 . S
C880 C882 1.394 . S
C880 H896 0.931 . S
C881 C880 1.391 . S
C881 C885 1.376 . S
C882 C880 1.394 . S
C882 C883 1.369 . S
C882 C886 1.531 . S
C883 C882 1.369 . S
C883 C884 1.410 . S
C883 C891 1.503 . S
C884 C883 1.410 . S
C884 C885 1.392 . S
C884 C887 1.511 . S
C885 C881 1.376 . S
C885 C884 1.392 . S
C885 H897 0.929 . S
C886 C882 1.531 . S
C886 H898 0.960 . S
C886 H899 0.962 . S
C886 H900 0.960 . S
C887 C884 1.511 . S
C887 H901 0.961 . S
C887 H902 0.961 . S
C887 H903 0.961 . S
C888 C889 1.370 . S
C888 C890 1.363 . S
C888 H904 0.931 . S
C889 C888 1.370 . S
C889 C893 1.408 . S
C890 C888 1.363 . S
C890 C891 1.370 . S
C890 C894 1.524 . S
C891 C883 1.503 . S
C891 C890 1.370 . S
C891 C892 1.403 . S
C892 C891 1.403 . S
C892 C893 1.404 . S
C892 C895 1.539 . S
C893 C889 1.408 . S
C893 C892 1.404 . S
C893 H905 0.930 . S
C894 C890 1.524 . S
C894 H906 0.956 . S
C894 H907 0.961 . S
C894 H908 0.961 . S
C895 C892 1.539 . S
C895 H909 0.958 . S
C895 H910 0.961 . S
C895 H911 0.960 . S
H896 C880 0.931 . S
H897 C885 0.929 . S
H898 C886 0.960 . S
H899 C886 0.962 . S
H900 C886 0.960 . S
H901 C887 0.961 . S
H902 C887 0.961 . S
H903 C887 0.961 . S
H904 C888 0.931 . S
H905 C893 0.930 . S
H906 C894 0.956 . S
H907 C894 0.961 . S
H908 C894 0.961 . S
H909 C895 0.958 . S
H910 C895 0.961 . S
H911 C895 0.960 . S
C912 C913 1.391 . S
C912 C914 1.394 . S
C912 H928 0.931 . S
C913 C912 1.391 . S
C913 C917 1.376 . S
C914 C912 1.394 . S
C914 C915 1.369 1_545 S
C914 C918 1.531 . S
C915 C914 1.369 1_565 S
C915 C916 1.410 . S
C915 C923 1.503 . S
C916 C915 1.410 . S
C916 C917 1.392 1_565 S
C916 C919 1.511 . S
C917 C913 1.376 . S
C917 C916 1.392 1_545 S
C917 H929 0.929 . S
C918 C914 1.531 . S
C918 H930 0.960 . S
C918 H931 0.962 . S
C918 H932 0.960 . S
C919 C916 1.511 . S
C919 H933 0.961 . S
C919 H934 0.961 . S
C919 H935 0.961 . S
C920 C921 1.370 . S
C920 C922 1.363 . S
C920 H936 0.931 . S
C921 C920 1.370 . S
C921 C925 1.408 . S
C922 C920 1.363 . S
C922 C923 1.370 . S
C922 C926 1.524 . S
C923 C915 1.503 . S
C923 C922 1.370 . S
C923 C924 1.403 . S
C924 C923 1.403 . S
C924 C925 1.404 . S
C924 C927 1.539 . S
C925 C921 1.408 . S
C925 C924 1.404 . S
C925 H937 0.930 . S
C926 C922 1.524 . S
C926 H938 0.956 . S
C926 H939 0.961 . S
C926 H940 0.961 . S
C927 C924 1.539 . S
C927 H941 0.958 . S
C927 H942 0.961 . S
C927 H943 0.960 . S
H928 C912 0.931 . S
H929 C917 0.929 . S
H930 C918 0.960 . S
H931 C918 0.962 . S
H932 C918 0.960 . S
H933 C919 0.961 . S
H934 C919 0.961 . S
H935 C919 0.961 . S
H936 C920 0.931 . S
H937 C925 0.930 . S
H938 C926 0.956 . S
H939 C926 0.961 . S
H940 C926 0.961 . S
H941 C927 0.958 . S
H942 C927 0.961 . S
H943 C927 0.960 . S
C944 C945 1.391 . S
C944 C946 1.394 . S
C944 H960 0.931 . S
C945 C944 1.391 . S
C945 C949 1.376 . S
C946 C944 1.394 . S
C946 C947 1.369 . S
C946 C950 1.531 . S
C947 C946 1.369 . S
C947 C948 1.410 . S
C947 C955 1.503 . S
C948 C947 1.410 . S
C948 C949 1.392 . S
C948 C951 1.511 . S
C949 C945 1.376 . S
C949 C948 1.392 . S
C949 H961 0.929 . S
C950 C946 1.531 . S
C950 H962 0.960 . S
C950 H963 0.962 . S
C950 H964 0.960 . S
C951 C948 1.511 . S
C951 H965 0.961 . S
C951 H966 0.961 . S
C951 H967 0.961 . S
C952 C953 1.370 . S
C952 C954 1.363 . S
C952 H968 0.931 . S
C953 C952 1.370 . S
C953 C957 1.408 . S
C954 C952 1.363 . S
C954 C955 1.370 . S
C954 C958 1.524 . S
C955 C947 1.503 . S
C955 C954 1.370 . S
C955 C956 1.403 . S
C956 C955 1.403 . S
C956 C957 1.404 . S
C956 C959 1.539 . S
C957 C953 1.408 . S
C957 C956 1.404 . S
C957 H969 0.930 . S
C958 C954 1.524 . S
C958 H970 0.956 . S
C958 H971 0.961 . S
C958 H972 0.961 . S
C959 C956 1.539 . S
C959 H973 0.958 . S
C959 H974 0.961 . S
C959 H975 0.960 . S
H960 C944 0.931 . S
H961 C949 0.929 . S
H962 C950 0.960 . S
H963 C950 0.962 . S
H964 C950 0.960 . S
H965 C951 0.961 . S
H966 C951 0.961 . S
H967 C951 0.961 . S
H968 C952 0.931 . S
H969 C957 0.930 . S
H970 C958 0.956 . S
H971 C958 0.961 . S
H972 C958 0.961 . S
H973 C959 0.958 . S
H974 C959 0.961 . S
H975 C959 0.960 . S
C976 C977 1.398 . S
C976 C978 1.387 1_565 S
C976 H992 0.930 1_565 S
C977 C976 1.398 . S
C977 C981 1.376 . S
C978 C976 1.387 1_545 S
C978 C979 1.369 . S
C978 C982 1.531 . S
C979 C978 1.369 . S
C979 C980 1.410 1_545 S
C979 C987 1.503 . S
C980 C979 1.410 1_565 S
C980 C981 1.392 . S
C980 C983 1.511 . S
C981 C977 1.376 . S
C981 C980 1.392 . S
C981 H993 0.929 . S
C982 C978 1.531 . S
C982 H994 0.960 . S
C982 H995 0.962 . S
C982 H996 0.960 . S
C983 C980 1.511 . S
C983 H997 0.961 . S
C983 H998 0.961 1_565 S
C983 H999 0.961 1_565 S
C984 C985 1.370 . S
C984 C986 1.363 . S
C984 H1000 0.931 . S
C985 C984 1.370 . S
C985 C989 1.408 . S
C986 C984 1.363 . S
C986 C987 1.370 . S
C986 C990 1.524 . S
C987 C979 1.503 . S
C987 C986 1.370 . S
C987 C988 1.403 . S
C988 C987 1.403 . S
C988 C989 1.404 . S
C988 C991 1.539 . S
C989 C985 1.408 . S
C989 C988 1.404 . S
C989 H1001 0.930 . S
C990 C986 1.524 . S
C990 H1002 0.956 . S
C990 H1003 0.961 . S
C990 H1004 0.961 . S
C991 C988 1.539 . S
C991 H1005 0.958 . S
C991 H1006 0.961 . S
C991 H1007 0.960 . S
H992 C976 0.930 1_545 S
H993 C981 0.929 . S
H994 C982 0.960 . S
H995 C982 0.962 . S
H996 C982 0.960 . S
H997 C983 0.961 . S
H998 C983 0.961 1_545 S
H999 C983 0.961 1_545 S
H1000 C984 0.931 . S
H1001 C989 0.930 . S
H1002 C990 0.956 . S
H1003 C990 0.961 . S
H1004 C990 0.961 . S
H1005 C991 0.958 . S
H1006 C991 0.961 . S
H1007 C991 0.960 . S
C1008 C1009 1.391 . S
C1008 C1010 1.394 . S
C1008 H1024 0.931 . S
C1009 C1008 1.391 . S
C1009 C1013 1.376 . S
C1010 C1008 1.394 . S
C1010 C1011 1.369 . S
C1010 C1014 1.531 . S
C1011 C1010 1.369 . S
C1011 C1012 1.410 . S
C1011 C1019 1.503 . S
C1012 C1011 1.410 . S
C1012 C1013 1.392 . S
C1012 C1015 1.511 . S
C1013 C1009 1.376 . S
C1013 C1012 1.392 . S
C1013 H1025 0.929 . S
C1014 C1010 1.531 . S
C1014 H1026 0.960 . S
C1014 H1027 0.962 . S
C1014 H1028 0.960 . S
C1015 C1012 1.511 . S
C1015 H1029 0.961 . S
C1015 H1030 0.961 . S
C1015 H1031 0.961 . S
C1016 C1017 1.370 . S
C1016 C1018 1.363 . S
C1016 H1032 0.931 . S
C1017 C1016 1.370 . S
C1017 C1021 1.408 . S
C1018 C1016 1.363 . S
C1018 C1019 1.370 . S
C1018 C1022 1.524 . S
C1019 C1011 1.503 . S
C1019 C1018 1.370 . S
C1019 C1020 1.403 . S
C1020 C1019 1.403 . S
C1020 C1021 1.404 . S
C1020 C1023 1.539 . S
C1021 C1017 1.408 . S
C1021 C1020 1.404 . S
C1021 H1033 0.930 . S
C1022 C1018 1.524 . S
C1022 H1034 0.956 . S
C1022 H1035 0.961 . S
C1022 H1036 0.961 . S
C1023 C1020 1.539 . S
C1023 H1037 0.958 . S
C1023 H1038 0.961 . S
C1023 H1039 0.960 . S
H1024 C1008 0.931 . S
H1025 C1013 0.929 . S
H1026 C1014 0.960 . S
H1027 C1014 0.962 . S
H1028 C1014 0.960 . S
H1029 C1015 0.961 . S
H1030 C1015 0.961 . S
H1031 C1015 0.961 . S
H1032 C1016 0.931 . S
H1033 C1021 0.930 . S
H1034 C1022 0.956 . S
H1035 C1022 0.961 . S
H1036 C1022 0.961 . S
H1037 C1023 0.958 . S
H1038 C1023 0.961 . S
H1039 C1023 0.960 . S
C1040 C1041 1.391 . S
C1040 C1042 1.394 . S
C1040 H1056 0.931 . S
C1041 C1040 1.391 . S
C1041 C1045 1.376 . S
C1042 C1040 1.394 . S
C1042 C1043 1.369 . S
C1042 C1046 1.531 . S
C1043 C1042 1.369 . S
C1043 C1044 1.410 . S
C1043 C1051 1.503 . S
C1044 C1043 1.410 . S
C1044 C1045 1.392 . S
C1044 C1047 1.511 . S
C1045 C1041 1.376 . S
C1045 C1044 1.392 . S
C1045 H1057 0.929 . S
C1046 C1042 1.531 . S
C1046 H1058 0.960 . S
C1046 H1059 0.962 . S
C1046 H1060 0.960 . S
C1047 C1044 1.511 . S
C1047 H1061 0.961 . S
C1047 H1062 0.961 . S
C1047 H1063 0.961 . S
C1048 C1049 1.370 . S
C1048 C1050 1.363 . S
C1048 H1064 0.931 . S
C1049 C1048 1.370 . S
C1049 C1053 1.408 . S
C1050 C1048 1.363 . S
C1050 C1051 1.370 . S
C1050 C1054 1.524 . S
C1051 C1043 1.503 . S
C1051 C1050 1.370 . S
C1051 C1052 1.403 . S
C1052 C1051 1.403 . S
C1052 C1053 1.404 . S
C1052 C1055 1.539 . S
C1053 C1049 1.408 . S
C1053 C1052 1.404 . S
C1053 H1065 0.930 . S
C1054 C1050 1.524 . S
C1054 H1066 0.956 . S
C1054 H1067 0.961 . S
C1054 H1068 0.961 . S
C1055 C1052 1.539 . S
C1055 H1069 0.958 . S
C1055 H1070 0.961 . S
C1055 H1071 0.960 . S
H1056 C1040 0.931 . S
H1057 C1045 0.929 . S
H1058 C1046 0.960 . S
H1059 C1046 0.962 . S
H1060 C1046 0.960 . S
H1061 C1047 0.961 . S
H1062 C1047 0.961 . S
H1063 C1047 0.961 . S
H1064 C1048 0.931 . S
H1065 C1053 0.930 . S
H1066 C1054 0.956 . S
H1067 C1054 0.961 . S
H1068 C1054 0.961 . S
H1069 C1055 0.958 . S
H1070 C1055 0.961 . S
H1071 C1055 0.960 . S
C1072 C1073 1.391 . S
C1072 C1074 1.394 . S
C1072 H1088 0.931 . S
C1073 C1072 1.391 . S
C1073 C1077 1.376 . S
C1074 C1072 1.394 . S
C1074 C1075 1.369 . S
C1074 C1078 1.531 . S
C1075 C1074 1.369 . S
C1075 C1076 1.410 . S
C1075 C1083 1.503 . S
C1076 C1075 1.410 . S
C1076 C1077 1.392 . S
C1076 C1079 1.511 . S
C1077 C1073 1.376 . S
C1077 C1076 1.392 . S
C1077 H1089 0.929 . S
C1078 C1074 1.531 . S
C1078 H1090 0.960 . S
C1078 H1091 0.962 . S
C1078 H1092 0.960 . S
C1079 C1076 1.511 . S
C1079 H1093 0.961 . S
C1079 H1094 0.961 . S
C1079 H1095 0.961 . S
C1080 C1081 1.370 . S
C1080 C1082 1.363 . S
C1080 H1096 0.931 . S
C1081 C1080 1.370 . S
C1081 C1085 1.408 . S
C1082 C1080 1.363 . S
C1082 C1083 1.370 . S
C1082 C1086 1.524 . S
C1083 C1075 1.503 . S
C1083 C1082 1.370 . S
C1083 C1084 1.403 . S
C1084 C1083 1.403 . S
C1084 C1085 1.404 . S
C1084 C1087 1.539 . S
C1085 C1081 1.408 . S
C1085 C1084 1.404 . S
C1085 H1097 0.930 . S
C1086 C1082 1.524 . S
C1086 H1098 0.956 . S
C1086 H1099 0.961 . S
C1086 H1100 0.961 . S
C1087 C1084 1.539 . S
C1087 H1101 0.958 . S
C1087 H1102 0.961 . S
C1087 H1103 0.960 . S
H1088 C1072 0.931 . S
H1089 C1077 0.929 . S
H1090 C1078 0.960 . S
H1091 C1078 0.962 . S
H1092 C1078 0.960 . S
H1093 C1079 0.961 . S
H1094 C1079 0.961 . S
H1095 C1079 0.961 . S
H1096 C1080 0.931 . S
H1097 C1085 0.930 . S
H1098 C1086 0.956 . S
H1099 C1086 0.961 . S
H1100 C1086 0.961 . S
H1101 C1087 0.958 . S
H1102 C1087 0.961 . S
H1103 C1087 0.960 . S
C1104 C1105 1.391 . S
C1104 C1106 1.394 . S
C1104 H1120 0.931 . S
C1105 C1104 1.391 . S
C1105 C1109 1.376 . S
C1106 C1104 1.394 . S
C1106 C1107 1.369 . S
C1106 C1110 1.531 . S
C1107 C1106 1.369 . S
C1107 C1108 1.410 . S
C1107 C1115 1.503 . S
C1108 C1107 1.410 . S
C1108 C1109 1.392 . S
C1108 C1111 1.511 . S
C1109 C1105 1.376 . S
C1109 C1108 1.392 . S
C1109 H1121 0.929 . S
C1110 C1106 1.531 . S
C1110 H1122 0.960 . S
C1110 H1123 0.962 . S
C1110 H1124 0.960 . S
C1111 C1108 1.511 . S
C1111 H1125 0.961 . S
C1111 H1126 0.961 . S
C1111 H1127 0.961 . S
C1112 C1113 1.370 . S
C1112 C1114 1.363 . S
C1112 H1128 0.931 . S
C1113 C1112 1.370 . S
C1113 C1117 1.408 . S
C1114 C1112 1.363 . S
C1114 C1115 1.370 . S
C1114 C1118 1.524 . S
C1115 C1107 1.503 . S
C1115 C1114 1.370 . S
C1115 C1116 1.403 . S
C1116 C1115 1.403 . S
C1116 C1117 1.404 . S
C1116 C1119 1.539 . S
C1117 C1113 1.408 . S
C1117 C1116 1.404 . S
C1117 H1129 0.930 . S
C1118 C1114 1.524 . S
C1118 H1130 0.956 . S
C1118 H1131 0.961 . S
C1118 H1132 0.961 . S
C1119 C1116 1.539 . S
C1119 H1133 0.958 . S
C1119 H1134 0.961 . S
C1119 H1135 0.960 . S
H1120 C1104 0.931 . S
H1121 C1109 0.929 . S
H1122 C1110 0.960 . S
H1123 C1110 0.962 . S
H1124 C1110 0.960 . S
H1125 C1111 0.961 . S
H1126 C1111 0.961 . S
H1127 C1111 0.961 . S
H1128 C1112 0.931 . S
H1129 C1117 0.930 . S
H1130 C1118 0.956 . S
H1131 C1118 0.961 . S
H1132 C1118 0.961 . S
H1133 C1119 0.958 . S
H1134 C1119 0.961 . S
H1135 C1119 0.960 . S
C1136 C1137 1.391 . S
C1136 C1138 1.394 . S
C1136 H1152 0.931 . S
C1137 C1136 1.391 . S
C1137 C1141 1.376 . S
C1138 C1136 1.394 . S
C1138 C1139 1.369 . S
C1138 C1142 1.531 . S
C1139 C1138 1.369 . S
C1139 C1140 1.410 . S
C1139 C1147 1.503 . S
C1140 C1139 1.410 . S
C1140 C1141 1.392 . S
C1140 C1143 1.511 . S
C1141 C1137 1.376 . S
C1141 C1140 1.392 . S
C1141 H1153 0.929 . S
C1142 C1138 1.531 . S
C1142 H1154 0.960 . S
C1142 H1155 0.962 . S
C1142 H1156 0.960 . S
C1143 C1140 1.511 . S
C1143 H1157 0.961 . S
C1143 H1158 0.961 . S
C1143 H1159 0.961 . S
C1144 C1145 1.370 . S
C1144 C1146 1.363 . S
C1144 H1160 0.931 . S
C1145 C1144 1.370 . S
C1145 C1149 1.408 . S
C1146 C1144 1.363 . S
C1146 C1147 1.370 . S
C1146 C1150 1.524 . S
C1147 C1139 1.503 . S
C1147 C1146 1.370 . S
C1147 C1148 1.403 . S
C1148 C1147 1.403 . S
C1148 C1149 1.404 . S
C1148 C1151 1.539 . S
C1149 C1145 1.408 . S
C1149 C1148 1.404 . S
C1149 H1161 0.930 . S
C1150 C1146 1.524 . S
C1150 H1162 0.956 . S
C1150 H1163 0.961 . S
C1150 H1164 0.961 . S
C1151 C1148 1.539 . S
C1151 H1165 0.958 . S
C1151 H1166 0.961 . S
C1151 H1167 0.960 . S
H1152 C1136 0.931 . S
H1153 C1141 0.929 . S
H1154 C1142 0.960 . S
H1155 C1142 0.962 . S
H1156 C1142 0.960 . S
H1157 C1143 0.961 . S
H1158 C1143 0.961 . S
H1159 C1143 0.961 . S
H1160 C1144 0.931 . S
H1161 C1149 0.930 . S
H1162 C1150 0.956 . S
H1163 C1150 0.961 . S
H1164 C1150 0.961 . S
H1165 C1151 0.958 . S
H1166 C1151 0.961 . S
H1167 C1151 0.960 . S
C1168 C1169 1.391 . S
C1168 C1170 1.394 . S
C1168 H1184 0.931 . S
C1169 C1168 1.391 . S
C1169 C1173 1.376 . S
C1170 C1168 1.394 . S
C1170 C1171 1.369 . S
C1170 C1174 1.531 . S
C1171 C1170 1.369 . S
C1171 C1172 1.410 . S
C1171 C1179 1.503 . S
C1172 C1171 1.410 . S
C1172 C1173 1.392 . S
C1172 C1175 1.511 . S
C1173 C1169 1.376 . S
C1173 C1172 1.392 . S
C1173 H1185 0.929 . S
C1174 C1170 1.531 . S
C1174 H1186 0.960 . S
C1174 H1187 0.962 . S
C1174 H1188 0.960 . S
C1175 C1172 1.511 . S
C1175 H1189 0.961 . S
C1175 H1190 0.961 . S
C1175 H1191 0.961 . S
C1176 C1177 1.370 . S
C1176 C1178 1.363 . S
C1176 H1192 0.931 . S
C1177 C1176 1.370 . S
C1177 C1181 1.408 . S
C1178 C1176 1.363 . S
C1178 C1179 1.370 . S
C1178 C1182 1.524 . S
C1179 C1171 1.503 . S
C1179 C1178 1.370 . S
C1179 C1180 1.403 . S
C1180 C1179 1.403 . S
C1180 C1181 1.404 . S
C1180 C1183 1.539 . S
C1181 C1177 1.408 . S
C1181 C1180 1.404 . S
C1181 H1193 0.930 . S
C1182 C1178 1.524 . S
C1182 H1194 0.956 . S
C1182 H1195 0.961 . S
C1182 H1196 0.961 . S
C1183 C1180 1.539 . S
C1183 H1197 0.958 . S
C1183 H1198 0.961 . S
C1183 H1199 0.960 . S
H1184 C1168 0.931 . S
H1185 C1173 0.929 . S
H1186 C1174 0.960 . S
H1187 C1174 0.962 . S
H1188 C1174 0.960 . S
H1189 C1175 0.961 . S
H1190 C1175 0.961 . S
H1191 C1175 0.961 . S
H1192 C1176 0.931 . S
H1193 C1181 0.930 . S
H1194 C1182 0.956 . S
H1195 C1182 0.961 . S
H1196 C1182 0.961 . S
H1197 C1183 0.958 . S
H1198 C1183 0.961 . S
H1199 C1183 0.960 . S
C1200 C1201 1.391 . S
C1200 C1202 1.394 . S
C1200 H1216 0.931 . S
C1201 C1200 1.391 . S
C1201 C1205 1.376 . S
C1202 C1200 1.394 . S
C1202 C1203 1.369 . S
C1202 C1206 1.531 . S
C1203 C1202 1.369 . S
C1203 C1204 1.410 . S
C1203 C1211 1.503 . S
C1204 C1203 1.410 . S
C1204 C1205 1.392 . S
C1204 C1207 1.511 . S
C1205 C1201 1.376 . S
C1205 C1204 1.392 . S
C1205 H1217 0.929 . S
C1206 C1202 1.531 . S
C1206 H1218 0.960 . S
C1206 H1219 0.962 . S
C1206 H1220 0.960 . S
C1207 C1204 1.511 . S
C1207 H1221 0.961 . S
C1207 H1222 0.961 . S
C1207 H1223 0.961 . S
C1208 C1209 1.370 . S
C1208 C1210 1.363 . S
C1208 H1224 0.931 . S
C1209 C1208 1.370 . S
C1209 C1213 1.408 . S
C1210 C1208 1.363 . S
C1210 C1211 1.370 . S
C1210 C1214 1.524 . S
C1211 C1203 1.503 . S
C1211 C1210 1.370 . S
C1211 C1212 1.403 . S
C1212 C1211 1.403 . S
C1212 C1213 1.404 . S
C1212 C1215 1.539 . S
C1213 C1209 1.408 . S
C1213 C1212 1.404 . S
C1213 H1225 0.930 . S
C1214 C1210 1.524 . S
C1214 H1226 0.956 . S
C1214 H1227 0.961 . S
C1214 H1228 0.961 . S
C1215 C1212 1.539 . S
C1215 H1229 0.958 . S
C1215 H1230 0.961 . S
C1215 H1231 0.960 . S
H1216 C1200 0.931 . S
H1217 C1205 0.929 . S
H1218 C1206 0.960 . S
H1219 C1206 0.962 . S
H1220 C1206 0.960 . S
H1221 C1207 0.961 . S
H1222 C1207 0.961 . S
H1223 C1207 0.961 . S
H1224 C1208 0.931 . S
H1225 C1213 0.930 . S
H1226 C1214 0.956 . S
H1227 C1214 0.961 . S
H1228 C1214 0.961 . S
H1229 C1215 0.958 . S
H1230 C1215 0.961 . S
H1231 C1215 0.960 . S
C1232 C1233 1.391 . S
C1232 C1234 1.394 . S
C1232 H1248 0.931 . S
C1233 C1232 1.391 . S
C1233 C1237 1.376 . S
C1234 C1232 1.394 . S
C1234 C1235 1.369 . S
C1234 C1238 1.531 . S
C1235 C1234 1.369 . S
C1235 C1236 1.410 . S
C1235 C1243 1.503 . S
C1236 C1235 1.410 . S
C1236 C1237 1.392 . S
C1236 C1239 1.511 . S
C1237 C1233 1.376 . S
C1237 C1236 1.392 . S
C1237 H1249 0.929 . S
C1238 C1234 1.531 . S
C1238 H1250 0.960 . S
C1238 H1251 0.962 . S
C1238 H1252 0.960 . S
C1239 C1236 1.511 . S
C1239 H1253 0.961 . S
C1239 H1254 0.961 . S
C1239 H1255 0.961 . S
C1240 C1241 1.370 . S
C1240 C1242 1.363 . S
C1240 H1256 0.931 . S
C1241 C1240 1.370 . S
C1241 C1245 1.408 . S
C1242 C1240 1.363 . S
C1242 C1243 1.370 . S
C1242 C1246 1.524 . S
C1243 C1235 1.503 . S
C1243 C1242 1.370 . S
C1243 C1244 1.403 . S
C1244 C1243 1.403 . S
C1244 C1245 1.404 . S
C1244 C1247 1.539 . S
C1245 C1241 1.408 . S
C1245 C1244 1.404 . S
C1245 H1257 0.930 . S
C1246 C1242 1.524 . S
C1246 H1258 0.956 . S
C1246 H1259 0.961 . S
C1246 H1260 0.961 . S
C1247 C1244 1.539 . S
C1247 H1261 0.958 . S
C1247 H1262 0.961 . S
C1247 H1263 0.960 . S
H1248 C1232 0.931 . S
H1249 C1237 0.929 . S
H1250 C1238 0.960 . S
H1251 C1238 0.962 . S
H1252 C1238 0.960 . S
H1253 C1239 0.961 . S
H1254 C1239 0.961 . S
H1255 C1239 0.961 . S
H1256 C1240 0.931 . S
H1257 C1245 0.930 . S
H1258 C1246 0.956 . S
H1259 C1246 0.961 . S
H1260 C1246 0.961 . S
H1261 C1247 0.958 . S
H1262 C1247 0.961 . S
H1263 C1247 0.960 . S
C1264 C1265 1.391 . S
C1264 C1266 1.394 . S
C1264 H1280 0.931 . S
C1265 C1264 1.391 . S
C1265 C1269 1.376 . S
C1266 C1264 1.394 . S
C1266 C1267 1.369 . S
C1266 C1270 1.531 . S
C1267 C1266 1.369 . S
C1267 C1268 1.410 . S
C1267 C1275 1.503 . S
C1268 C1267 1.410 . S
C1268 C1269 1.392 . S
C1268 C1271 1.511 . S
C1269 C1265 1.376 . S
C1269 C1268 1.392 . S
C1269 H1281 0.929 . S
C1270 C1266 1.531 . S
C1270 H1282 0.960 . S
C1270 H1283 0.962 . S
C1270 H1284 0.960 . S
C1271 C1268 1.511 . S
C1271 H1285 0.961 . S
C1271 H1286 0.961 . S
C1271 H1287 0.961 . S
C1272 C1273 1.370 . S
C1272 C1274 1.363 . S
C1272 H1288 0.931 . S
C1273 C1272 1.370 . S
C1273 C1277 1.408 . S
C1274 C1272 1.363 . S
C1274 C1275 1.370 . S
C1274 C1278 1.524 . S
C1275 C1267 1.503 . S
C1275 C1274 1.370 . S
C1275 C1276 1.403 . S
C1276 C1275 1.403 . S
C1276 C1277 1.404 . S
C1276 C1279 1.539 . S
C1277 C1273 1.408 . S
C1277 C1276 1.404 . S
C1277 H1289 0.930 . S
C1278 C1274 1.524 . S
C1278 H1290 0.956 . S
C1278 H1291 0.961 . S
C1278 H1292 0.961 . S
C1279 C1276 1.539 . S
C1279 H1293 0.958 . S
C1279 H1294 0.961 . S
C1279 H1295 0.960 . S
H1280 C1264 0.931 . S
H1281 C1269 0.929 . S
H1282 C1270 0.960 . S
H1283 C1270 0.962 . S
H1284 C1270 0.960 . S
H1285 C1271 0.961 . S
H1286 C1271 0.961 . S
H1287 C1271 0.961 . S
H1288 C1272 0.931 . S
H1289 C1277 0.930 . S
H1290 C1278 0.956 . S
H1291 C1278 0.961 . S
H1292 C1278 0.961 . S
H1293 C1279 0.958 . S
H1294 C1279 0.961 . S
H1295 C1279 0.960 . S
C1296 C1297 1.391 . S
C1296 C1298 1.394 . S
C1296 H1312 0.931 . S
C1297 C1296 1.391 . S
C1297 C1301 1.376 . S
C1298 C1296 1.394 . S
C1298 C1299 1.369 . S
C1298 C1302 1.531 . S
C1299 C1298 1.369 . S
C1299 C1300 1.410 . S
C1299 C1307 1.503 . S
C1300 C1299 1.410 . S
C1300 C1301 1.392 . S
C1300 C1303 1.511 . S
C1301 C1297 1.376 . S
C1301 C1300 1.392 . S
C1301 H1313 0.929 . S
C1302 C1298 1.531 . S
C1302 H1314 0.960 . S
C1302 H1315 0.962 . S
C1302 H1316 0.960 . S
C1303 C1300 1.511 . S
C1303 H1317 0.961 . S
C1303 H1318 0.961 . S
C1303 H1319 0.961 . S
C1304 C1305 1.370 . S
C1304 C1306 1.363 . S
C1304 H1320 0.931 . S
C1305 C1304 1.370 . S
C1305 C1309 1.408 . S
C1306 C1304 1.363 . S
C1306 C1307 1.370 . S
C1306 C1310 1.524 . S
C1307 C1299 1.503 . S
C1307 C1306 1.370 . S
C1307 C1308 1.403 . S
C1308 C1307 1.403 . S
C1308 C1309 1.404 . S
C1308 C1311 1.539 . S
C1309 C1305 1.408 . S
C1309 C1308 1.404 . S
C1309 H1321 0.930 . S
C1310 C1306 1.524 . S
C1310 H1322 0.956 . S
C1310 H1323 0.961 . S
C1310 H1324 0.961 . S
C1311 C1308 1.539 . S
C1311 H1325 0.958 . S
C1311 H1326 0.961 . S
C1311 H1327 0.960 . S
H1312 C1296 0.931 . S
H1313 C1301 0.929 . S
H1314 C1302 0.960 . S
H1315 C1302 0.962 . S
H1316 C1302 0.960 . S
H1317 C1303 0.961 . S
H1318 C1303 0.961 . S
H1319 C1303 0.961 . S
H1320 C1304 0.931 . S
H1321 C1309 0.930 . S
H1322 C1310 0.956 . S
H1323 C1310 0.961 . S
H1324 C1310 0.961 . S
H1325 C1311 0.958 . S
H1326 C1311 0.961 . S
H1327 C1311 0.960 . S
C1328 C1329 1.391 . S
C1328 C1330 1.394 . S
C1328 H1344 0.931 . S
C1329 C1328 1.391 . S
C1329 C1333 1.376 . S
C1330 C1328 1.394 . S
C1330 C1331 1.369 . S
C1330 C1334 1.531 . S
C1331 C1330 1.369 . S
C1331 C1332 1.410 . S
C1331 C1339 1.503 . S
C1332 C1331 1.410 . S
C1332 C1333 1.392 . S
C1332 C1335 1.511 . S
C1333 C1329 1.376 . S
C1333 C1332 1.392 . S
C1333 H1345 0.929 . S
C1334 C1330 1.531 . S
C1334 H1346 0.960 . S
C1334 H1347 0.962 . S
C1334 H1348 0.960 . S
C1335 C1332 1.511 . S
C1335 H1349 0.961 . S
C1335 H1350 0.961 . S
C1335 H1351 0.961 . S
C1336 C1337 1.370 . S
C1336 C1338 1.363 . S
C1336 H1352 0.931 . S
C1337 C1336 1.370 . S
C1337 C1341 1.408 . S
C1338 C1336 1.363 . S
C1338 C1339 1.370 . S
C1338 C1342 1.524 . S
C1339 C1331 1.503 . S
C1339 C1338 1.370 . S
C1339 C1340 1.403 . S
C1340 C1339 1.403 . S
C1340 C1341 1.404 . S
C1340 C1343 1.539 . S
C1341 C1337 1.408 . S
C1341 C1340 1.404 . S
C1341 H1353 0.930 . S
C1342 C1338 1.524 . S
C1342 H1354 0.956 . S
C1342 H1355 0.961 . S
C1342 H1356 0.961 . S
C1343 C1340 1.539 . S
C1343 H1357 0.958 . S
C1343 H1358 0.961 . S
C1343 H1359 0.960 . S
H1344 C1328 0.931 . S
H1345 C1333 0.929 . S
H1346 C1334 0.960 . S
H1347 C1334 0.962 . S
H1348 C1334 0.960 . S
H1349 C1335 0.961 . S
H1350 C1335 0.961 . S
H1351 C1335 0.961 . S
H1352 C1336 0.931 . S
H1353 C1341 0.930 . S
H1354 C1342 0.956 . S
H1355 C1342 0.961 . S
H1356 C1342 0.961 . S
H1357 C1343 0.958 . S
H1358 C1343 0.961 . S
H1359 C1343 0.960 . S
C1360 C1361 1.391 . S
C1360 C1362 1.394 . S
C1360 H1376 0.931 . S
C1361 C1360 1.391 . S
C1361 C1365 1.376 . S
C1362 C1360 1.394 . S
C1362 C1363 1.369 . S
C1362 C1366 1.531 . S
C1363 C1362 1.369 . S
C1363 C1364 1.410 . S
C1363 C1371 1.503 . S
C1364 C1363 1.410 . S
C1364 C1365 1.392 . S
C1364 C1367 1.511 . S
C1365 C1361 1.376 . S
C1365 C1364 1.392 . S
C1365 H1377 0.929 . S
C1366 C1362 1.531 . S
C1366 H1378 0.960 . S
C1366 H1379 0.962 . S
C1366 H1380 0.960 . S
C1367 C1364 1.511 . S
C1367 H1381 0.961 . S
C1367 H1382 0.961 . S
C1367 H1383 0.961 . S
C1368 C1369 1.370 . S
C1368 C1370 1.363 . S
C1368 H1384 0.931 . S
C1369 C1368 1.370 . S
C1369 C1373 1.408 . S
C1370 C1368 1.363 . S
C1370 C1371 1.370 . S
C1370 C1374 1.524 . S
C1371 C1363 1.503 . S
C1371 C1370 1.370 . S
C1371 C1372 1.403 . S
C1372 C1371 1.403 . S
C1372 C1373 1.404 . S
C1372 C1375 1.539 . S
C1373 C1369 1.408 . S
C1373 C1372 1.404 . S
C1373 H1385 0.930 . S
C1374 C1370 1.524 . S
C1374 H1386 0.956 . S
C1374 H1387 0.961 . S
C1374 H1388 0.961 . S
C1375 C1372 1.539 . S
C1375 H1389 0.958 . S
C1375 H1390 0.961 . S
C1375 H1391 0.960 . S
H1376 C1360 0.931 . S
H1377 C1365 0.929 . S
H1378 C1366 0.960 . S
H1379 C1366 0.962 . S
H1380 C1366 0.960 . S
H1381 C1367 0.961 . S
H1382 C1367 0.961 . S
H1383 C1367 0.961 . S
H1384 C1368 0.931 . S
H1385 C1373 0.930 . S
H1386 C1374 0.956 . S
H1387 C1374 0.961 . S
H1388 C1374 0.961 . S
H1389 C1375 0.958 . S
H1390 C1375 0.961 . S
H1391 C1375 0.960 . S
C1392 C1393 1.391 . S
C1392 C1394 1.394 . S
C1392 H1408 0.931 . S
C1393 C1392 1.391 . S
C1393 C1397 1.376 . S
C1394 C1392 1.394 . S
C1394 C1395 1.369 . S
C1394 C1398 1.531 . S
C1395 C1394 1.369 . S
C1395 C1396 1.410 . S
C1395 C1403 1.503 . S
C1396 C1395 1.410 . S
C1396 C1397 1.392 . S
C1396 C1399 1.511 . S
C1397 C1393 1.376 . S
C1397 C1396 1.392 . S
C1397 H1409 0.929 . S
C1398 C1394 1.531 . S
C1398 H1410 0.960 . S
C1398 H1411 0.962 . S
C1398 H1412 0.960 . S
C1399 C1396 1.511 . S
C1399 H1413 0.961 . S
C1399 H1414 0.961 . S
C1399 H1415 0.961 . S
C1400 C1401 1.370 . S
C1400 C1402 1.363 . S
C1400 H1416 0.931 . S
C1401 C1400 1.370 . S
C1401 C1405 1.408 . S
C1402 C1400 1.363 . S
C1402 C1403 1.370 . S
C1402 C1406 1.524 . S
C1403 C1395 1.503 . S
C1403 C1402 1.370 . S
C1403 C1404 1.403 . S
C1404 C1403 1.403 . S
C1404 C1405 1.404 . S
C1404 C1407 1.539 . S
C1405 C1401 1.408 . S
C1405 C1404 1.404 . S
C1405 H1417 0.930 . S
C1406 C1402 1.524 . S
C1406 H1418 0.956 . S
C1406 H1419 0.961 . S
C1406 H1420 0.961 . S
C1407 C1404 1.539 . S
C1407 H1421 0.958 . S
C1407 H1422 0.961 . S
C1407 H1423 0.960 . S
H1408 C1392 0.931 . S
H1409 C1397 0.929 . S
H1410 C1398 0.960 . S
H1411 C1398 0.962 . S
H1412 C1398 0.960 . S
H1413 C1399 0.961 . S
H1414 C1399 0.961 . S
H1415 C1399 0.961 . S
H1416 C1400 0.931 . S
H1417 C1405 0.930 . S
H1418 C1406 0.956 . S
H1419 C1406 0.961 . S
H1420 C1406 0.961 . S
H1421 C1407 0.958 . S
H1422 C1407 0.961 . S
H1423 C1407 0.960 . S
C1424 C1425 1.391 . S
C1424 C1426 1.394 . S
C1424 H1440 0.931 . S
C1425 C1424 1.391 . S
C1425 C1429 1.376 . S
C1426 C1424 1.394 . S
C1426 C1427 1.369 . S
C1426 C1430 1.531 . S
C1427 C1426 1.369 . S
C1427 C1428 1.410 . S
C1427 C1435 1.503 . S
C1428 C1427 1.410 . S
C1428 C1429 1.392 . S
C1428 C1431 1.511 . S
C1429 C1425 1.376 . S
C1429 C1428 1.392 . S
C1429 H1441 0.929 . S
C1430 C1426 1.531 . S
C1430 H1442 0.960 . S
C1430 H1443 0.962 . S
C1430 H1444 0.960 . S
C1431 C1428 1.511 . S
C1431 H1445 0.961 . S
C1431 H1446 0.961 . S
C1431 H1447 0.961 . S
C1432 C1433 1.370 . S
C1432 C1434 1.363 . S
C1432 H1448 0.931 . S
C1433 C1432 1.370 . S
C1433 C1437 1.408 . S
C1434 C1432 1.363 . S
C1434 C1435 1.370 . S
C1434 C1438 1.524 . S
C1435 C1427 1.503 . S
C1435 C1434 1.370 . S
C1435 C1436 1.403 . S
C1436 C1435 1.403 . S
C1436 C1437 1.404 . S
C1436 C1439 1.539 . S
C1437 C1433 1.408 . S
C1437 C1436 1.404 . S
C1437 H1449 0.930 . S
C1438 C1434 1.524 . S
C1438 H1450 0.956 . S
C1438 H1451 0.961 . S
C1438 H1452 0.961 . S
C1439 C1436 1.539 . S
C1439 H1453 0.958 . S
C1439 H1454 0.961 . S
C1439 H1455 0.960 . S
H1440 C1424 0.931 . S
H1441 C1429 0.929 . S
H1442 C1430 0.960 . S
H1443 C1430 0.962 . S
H1444 C1430 0.960 . S
H1445 C1431 0.961 . S
H1446 C1431 0.961 . S
H1447 C1431 0.961 . S
H1448 C1432 0.931 . S
H1449 C1437 0.930 . S
H1450 C1438 0.956 . S
H1451 C1438 0.961 . S
H1452 C1438 0.961 . S
H1453 C1439 0.958 . S
H1454 C1439 0.961 . S
H1455 C1439 0.960 . S
C1456 C1457 1.391 . S
C1456 C1458 1.394 . S
C1456 H1472 0.931 . S
C1457 C1456 1.391 . S
C1457 C1461 1.376 . S
C1458 C1456 1.394 . S
C1458 C1459 1.369 . S
C1458 C1462 1.531 . S
C1459 C1458 1.369 . S
C1459 C1460 1.410 . S
C1459 C1467 1.503 . S
C1460 C1459 1.410 . S
C1460 C1461 1.392 . S
C1460 C1463 1.511 . S
C1461 C1457 1.376 . S
C1461 C1460 1.392 . S
C1461 H1473 0.929 . S
C1462 C1458 1.531 . S
C1462 H1474 0.960 . S
C1462 H1475 0.962 . S
C1462 H1476 0.960 . S
C1463 C1460 1.511 . S
C1463 H1477 0.961 . S
C1463 H1478 0.961 . S
C1463 H1479 0.961 . S
C1464 C1465 1.370 . S
C1464 C1466 1.363 . S
C1464 H1480 0.931 . S
C1465 C1464 1.370 . S
C1465 C1469 1.408 . S
C1466 C1464 1.363 . S
C1466 C1467 1.370 . S
C1466 C1470 1.524 . S
C1467 C1459 1.503 . S
C1467 C1466 1.370 . S
C1467 C1468 1.403 . S
C1468 C1467 1.403 . S
C1468 C1469 1.404 . S
C1468 C1471 1.539 . S
C1469 C1465 1.408 . S
C1469 C1468 1.404 . S
C1469 H1481 0.930 . S
C1470 C1466 1.524 . S
C1470 H1482 0.956 . S
C1470 H1483 0.961 . S
C1470 H1484 0.961 . S
C1471 C1468 1.539 . S
C1471 H1485 0.958 . S
C1471 H1486 0.961 . S
C1471 H1487 0.960 . S
H1472 C1456 0.931 . S
H1473 C1461 0.929 . S
H1474 C1462 0.960 . S
H1475 C1462 0.962 . S
H1476 C1462 0.960 . S
H1477 C1463 0.961 . S
H1478 C1463 0.961 . S
H1479 C1463 0.961 . S
H1480 C1464 0.931 . S
H1481 C1469 0.930 . S
H1482 C1470 0.956 . S
H1483 C1470 0.961 . S
H1484 C1470 0.961 . S
H1485 C1471 0.958 . S
H1486 C1471 0.961 . S
H1487 C1471 0.960 . S
C1488 C1489 1.391 . S
C1488 C1490 1.394 . S
C1488 H1504 0.931 . S
C1489 C1488 1.391 . S
C1489 C1493 1.376 . S
C1490 C1488 1.394 . S
C1490 C1491 1.369 . S
C1490 C1494 1.531 . S
C1491 C1490 1.369 . S
C1491 C1492 1.410 . S
C1491 C1499 1.503 . S
C1492 C1491 1.410 . S
C1492 C1493 1.392 . S
C1492 C1495 1.511 . S
C1493 C1489 1.376 . S
C1493 C1492 1.392 . S
C1493 H1505 0.929 . S
C1494 C1490 1.531 . S
C1494 H1506 0.960 . S
C1494 H1507 0.962 . S
C1494 H1508 0.960 . S
C1495 C1492 1.511 . S
C1495 H1509 0.961 . S
C1495 H1510 0.961 . S
C1495 H1511 0.961 . S
C1496 C1497 1.370 . S
C1496 C1498 1.363 . S
C1496 H1512 0.931 . S
C1497 C1496 1.370 . S
C1497 C1501 1.408 . S
C1498 C1496 1.363 . S
C1498 C1499 1.370 . S
C1498 C1502 1.524 . S
C1499 C1491 1.503 . S
C1499 C1498 1.370 . S
C1499 C1500 1.403 . S
C1500 C1499 1.403 . S
C1500 C1501 1.404 . S
C1500 C1503 1.539 . S
C1501 C1497 1.408 . S
C1501 C1500 1.404 . S
C1501 H1513 0.930 . S
C1502 C1498 1.524 . S
C1502 H1514 0.956 . S
C1502 H1515 0.961 . S
C1502 H1516 0.961 . S
C1503 C1500 1.539 . S
C1503 H1517 0.958 . S
C1503 H1518 0.961 . S
C1503 H1519 0.960 . S
H1504 C1488 0.931 . S
H1505 C1493 0.929 . S
H1506 C1494 0.960 . S
H1507 C1494 0.962 . S
H1508 C1494 0.960 . S
H1509 C1495 0.961 . S
H1510 C1495 0.961 . S
H1511 C1495 0.961 . S
H1512 C1496 0.931 . S
H1513 C1501 0.930 . S
H1514 C1502 0.956 . S
H1515 C1502 0.961 . S
H1516 C1502 0.961 . S
H1517 C1503 0.958 . S
H1518 C1503 0.961 . S
H1519 C1503 0.960 . S
C505 C417 1.498 . S
C497 C1 1.515 . S
C529 C68 1.515 . S
C537 C449 1.489 . S
C561 C93 1.515 . S
C569 C472 1.507 . S
C601 C376 1.513 . S
C593 C139 1.515 . S
C633 C459 1.370 . S
C625 C8 1.478 . S
C665 C488 1.349 . S
C657 C61 1.485 . S
C697 C392 1.339 . S
C689 C100 1.484 . S
C729 C427 1.358 . S
C721 C146 1.481 . S
C753 C15 1.486 . S
C761 C455 1.347 . S
C785 C192 1.488 . S
C793 C430 1.332 . S
C817 C107 1.480 . S
C825 C398 1.366 . S
C857 C487 1.368 . S
C849 C238 1.482 . S
C889 C431 1.491 . S
C881 C22 1.519 . S
C913 C185 1.520 . S
C921 C399 1.494 . S
C945 C114 1.517 . S
C953 C486 1.508 . S
C985 C454 1.508 . S
C977 C231 1.509 . S
C1009 C277 1.515 . S
C1017 C481 1.499 . S
C1041 C206 1.509 . S
C1049 C385 1.506 . S
C1073 C330 1.515 . S
C1081 C408 1.510 . S
C1105 C252 1.519 . S
C1113 C440 1.507 . S
C1145 C395 1.370 . S
C1137 C284 1.483 . S
C1169 C199 1.475 . S
C1177 C424 1.367 . S
C1201 C323 1.485 . S
C1209 C456 1.347 . S
C1241 C491 1.359 . S
C1233 C245 1.473 . S
C1265 C291 1.480 . S
C1273 C391 1.374 . S
C1297 C54 1.475 . S
C1305 C494 1.367 . S
C1329 C344 1.486 . S
C1337 C462 1.339 . S
C1369 C423 1.372 . S
C1361 C153 1.480 . S
C1401 C495 1.497 . S
C1393 C298 1.513 . S
C1433 C463 1.492 . S
C1425 C47 1.513 . S
C1465 C422 1.513 . S
C1457 C337 1.515 . S
C1497 C390 1.515 . S
C1489 C160 1.515 . S
