# Generated by pormake.
# Topology ptr, (4,4)-cn, num edge types: 1
# Building blocks:
#     Node 0, Type 0, BuildingBlock: GALJAG_clean_sbu_0, # of connection points: 4
#     Node 1, Type 0, BuildingBlock: GALJAG_clean_sbu_0, # of connection points: 4
#     Node 2, Type 0, BuildingBlock: GALJAG_clean_sbu_0, # of connection points: 4
#     Node 3, Type 0, BuildingBlock: GALJAG_clean_sbu_0, # of connection points: 4
#     Node 4, Type 0, BuildingBlock: GALJAG_clean_sbu_0, # of connection points: 4
#     Node 5, Type 0, BuildingBlock: GALJAG_clean_sbu_0, # of connection points: 4
#     Node 6, Type 0, BuildingBlock: GALJAG_clean_sbu_0, # of connection points: 4
#     Node 7, Type 0, BuildingBlock: GALJAG_clean_sbu_0, # of connection points: 4
#     Node 8, Type 0, BuildingBlock: GALJAG_clean_sbu_0, # of connection points: 4
#     Node 9, Type 0, BuildingBlock: GALJAG_clean_sbu_0, # of connection points: 4
#     Node 10, Type 0, BuildingBlock: GALJAG_clean_sbu_0, # of connection points: 4
#     Node 11, Type 0, BuildingBlock: GALJAG_clean_sbu_0, # of connection points: 4
#     Node 12, Type 0, BuildingBlock: GALJAG_clean_sbu_0, # of connection points: 4
#     Node 13, Type 0, BuildingBlock: GALJAG_clean_sbu_0, # of connection points: 4
#     Node 14, Type 0, BuildingBlock: GALJAG_clean_sbu_0, # of connection points: 4
#     Node 15, Type 0, BuildingBlock: GALJAG_clean_sbu_0, # of connection points: 4
#     Node 16, Type 0, BuildingBlock: GALJAG_clean_sbu_0, # of connection points: 4
#     Node 17, Type 0, BuildingBlock: GALJAG_clean_sbu_0, # of connection points: 4
#     Node 18, Type 1, BuildingBlock: GIZVER_clean_linker_0, # of connection points: 4
#     Node 19, Type 1, BuildingBlock: GIZVER_clean_linker_0, # of connection points: 4
#     Node 20, Type 1, BuildingBlock: GIZVER_clean_linker_0, # of connection points: 4
#     Node 21, Type 1, BuildingBlock: GIZVER_clean_linker_0, # of connection points: 4
#     Node 22, Type 1, BuildingBlock: GIZVER_clean_linker_0, # of connection points: 4
#     Node 23, Type 1, BuildingBlock: GIZVER_clean_linker_0, # of connection points: 4
#     Node 24, Type 1, BuildingBlock: GIZVER_clean_linker_0, # of connection points: 4
#     Node 25, Type 1, BuildingBlock: GIZVER_clean_linker_0, # of connection points: 4
#     Node 26, Type 1, BuildingBlock: GIZVER_clean_linker_0, # of connection points: 4
#     Node 27, Type 1, BuildingBlock: GIZVER_clean_linker_0, # of connection points: 4
#     Node 28, Type 1, BuildingBlock: GIZVER_clean_linker_0, # of connection points: 4
#     Node 29, Type 1, BuildingBlock: GIZVER_clean_linker_0, # of connection points: 4
#     Node 30, Type 1, BuildingBlock: GIZVER_clean_linker_0, # of connection points: 4
#     Node 31, Type 1, BuildingBlock: GIZVER_clean_linker_0, # of connection points: 4
#     Node 32, Type 1, BuildingBlock: GIZVER_clean_linker_0, # of connection points: 4
#     Node 33, Type 1, BuildingBlock: GIZVER_clean_linker_0, # of connection points: 4
#     Node 34, Type 1, BuildingBlock: GIZVER_clean_linker_0, # of connection points: 4
#     Node 35, Type 1, BuildingBlock: GIZVER_clean_linker_0, # of connection points: 4
#     Edge 36, Type (0, 1), BuildingBlock: UVAHIK_clean_linker_0, # of connection points: 2
#     Edge 37, Type (0, 1), BuildingBlock: UVAHIK_clean_linker_0, # of connection points: 2
#     Edge 38, Type (0, 1), BuildingBlock: UVAHIK_clean_linker_0, # of connection points: 2
#     Edge 39, Type (0, 1), BuildingBlock: UVAHIK_clean_linker_0, # of connection points: 2
#     Edge 40, Type (0, 1), BuildingBlock: UVAHIK_clean_linker_0, # of connection points: 2
#     Edge 41, Type (0, 1), BuildingBlock: UVAHIK_clean_linker_0, # of connection points: 2
#     Edge 42, Type (0, 1), BuildingBlock: UVAHIK_clean_linker_0, # of connection points: 2
#     Edge 43, Type (0, 1), BuildingBlock: UVAHIK_clean_linker_0, # of connection points: 2
#     Edge 44, Type (0, 1), BuildingBlock: UVAHIK_clean_linker_0, # of connection points: 2
#     Edge 45, Type (0, 1), BuildingBlock: UVAHIK_clean_linker_0, # of connection points: 2
#     Edge 46, Type (0, 1), BuildingBlock: UVAHIK_clean_linker_0, # of connection points: 2
#     Edge 47, Type (0, 1), BuildingBlock: UVAHIK_clean_linker_0, # of connection points: 2
#     Edge 48, Type (0, 1), BuildingBlock: UVAHIK_clean_linker_0, # of connection points: 2
#     Edge 49, Type (0, 1), BuildingBlock: UVAHIK_clean_linker_0, # of connection points: 2
#     Edge 50, Type (0, 1), BuildingBlock: UVAHIK_clean_linker_0, # of connection points: 2
#     Edge 51, Type (0, 1), BuildingBlock: UVAHIK_clean_linker_0, # of connection points: 2
#     Edge 52, Type (0, 1), BuildingBlock: UVAHIK_clean_linker_0, # of connection points: 2
#     Edge 53, Type (0, 1), BuildingBlock: UVAHIK_clean_linker_0, # of connection points: 2
#     Edge 54, Type (0, 1), BuildingBlock: UVAHIK_clean_linker_0, # of connection points: 2
#     Edge 55, Type (0, 1), BuildingBlock: UVAHIK_clean_linker_0, # of connection points: 2
#     Edge 56, Type (0, 1), BuildingBlock: UVAHIK_clean_linker_0, # of connection points: 2
#     Edge 57, Type (0, 1), BuildingBlock: UVAHIK_clean_linker_0, # of connection points: 2
#     Edge 58, Type (0, 1), BuildingBlock: UVAHIK_clean_linker_0, # of connection points: 2
#     Edge 59, Type (0, 1), BuildingBlock: UVAHIK_clean_linker_0, # of connection points: 2
#     Edge 60, Type (0, 1), BuildingBlock: UVAHIK_clean_linker_0, # of connection points: 2
#     Edge 61, Type (0, 1), BuildingBlock: UVAHIK_clean_linker_0, # of connection points: 2
#     Edge 62, Type (0, 1), BuildingBlock: UVAHIK_clean_linker_0, # of connection points: 2
#     Edge 63, Type (0, 1), BuildingBlock: UVAHIK_clean_linker_0, # of connection points: 2
#     Edge 64, Type (0, 1), BuildingBlock: UVAHIK_clean_linker_0, # of connection points: 2
#     Edge 65, Type (0, 1), BuildingBlock: UVAHIK_clean_linker_0, # of connection points: 2
#     Edge 66, Type (0, 1), BuildingBlock: UVAHIK_clean_linker_0, # of connection points: 2
#     Edge 67, Type (0, 1), BuildingBlock: UVAHIK_clean_linker_0, # of connection points: 2
#     Edge 68, Type (0, 1), BuildingBlock: UVAHIK_clean_linker_0, # of connection points: 2
#     Edge 69, Type (0, 1), BuildingBlock: UVAHIK_clean_linker_0, # of connection points: 2
#     Edge 70, Type (0, 1), BuildingBlock: UVAHIK_clean_linker_0, # of connection points: 2
#     Edge 71, Type (0, 1), BuildingBlock: UVAHIK_clean_linker_0, # of connection points: 2
#     Edge 72, Type (0, 1), BuildingBlock: UVAHIK_clean_linker_0, # of connection points: 2
#     Edge 73, Type (0, 1), BuildingBlock: UVAHIK_clean_linker_0, # of connection points: 2
#     Edge 74, Type (0, 1), BuildingBlock: UVAHIK_clean_linker_0, # of connection points: 2
#     Edge 75, Type (0, 1), BuildingBlock: UVAHIK_clean_linker_0, # of connection points: 2
#     Edge 76, Type (0, 1), BuildingBlock: UVAHIK_clean_linker_0, # of connection points: 2
#     Edge 77, Type (0, 1), BuildingBlock: UVAHIK_clean_linker_0, # of connection points: 2
#     Edge 78, Type (0, 1), BuildingBlock: UVAHIK_clean_linker_0, # of connection points: 2
#     Edge 79, Type (0, 1), BuildingBlock: UVAHIK_clean_linker_0, # of connection points: 2
#     Edge 80, Type (0, 1), BuildingBlock: UVAHIK_clean_linker_0, # of connection points: 2
#     Edge 81, Type (0, 1), BuildingBlock: UVAHIK_clean_linker_0, # of connection points: 2
#     Edge 82, Type (0, 1), BuildingBlock: UVAHIK_clean_linker_0, # of connection points: 2
#     Edge 83, Type (0, 1), BuildingBlock: UVAHIK_clean_linker_0, # of connection points: 2
#     Edge 84, Type (0, 1), BuildingBlock: UVAHIK_clean_linker_0, # of connection points: 2
#     Edge 85, Type (0, 1), BuildingBlock: UVAHIK_clean_linker_0, # of connection points: 2
#     Edge 86, Type (0, 1), BuildingBlock: UVAHIK_clean_linker_0, # of connection points: 2
#     Edge 87, Type (0, 1), BuildingBlock: UVAHIK_clean_linker_0, # of connection points: 2
#     Edge 88, Type (0, 1), BuildingBlock: UVAHIK_clean_linker_0, # of connection points: 2
#     Edge 89, Type (0, 1), BuildingBlock: UVAHIK_clean_linker_0, # of connection points: 2
#     Edge 90, Type (0, 1), BuildingBlock: UVAHIK_clean_linker_0, # of connection points: 2
#     Edge 91, Type (0, 1), BuildingBlock: UVAHIK_clean_linker_0, # of connection points: 2
#     Edge 92, Type (0, 1), BuildingBlock: UVAHIK_clean_linker_0, # of connection points: 2
#     Edge 93, Type (0, 1), BuildingBlock: UVAHIK_clean_linker_0, # of connection points: 2
#     Edge 94, Type (0, 1), BuildingBlock: UVAHIK_clean_linker_0, # of connection points: 2
#     Edge 95, Type (0, 1), BuildingBlock: UVAHIK_clean_linker_0, # of connection points: 2
#     Edge 96, Type (0, 1), BuildingBlock: UVAHIK_clean_linker_0, # of connection points: 2
#     Edge 97, Type (0, 1), BuildingBlock: UVAHIK_clean_linker_0, # of connection points: 2
#     Edge 98, Type (0, 1), BuildingBlock: UVAHIK_clean_linker_0, # of connection points: 2
#     Edge 99, Type (0, 1), BuildingBlock: UVAHIK_clean_linker_0, # of connection points: 2
#     Edge 100, Type (0, 1), BuildingBlock: UVAHIK_clean_linker_0, # of connection points: 2
#     Edge 101, Type (0, 1), BuildingBlock: UVAHIK_clean_linker_0, # of connection points: 2
#     Edge 102, Type (0, 1), BuildingBlock: UVAHIK_clean_linker_0, # of connection points: 2
#     Edge 103, Type (0, 1), BuildingBlock: UVAHIK_clean_linker_0, # of connection points: 2
#     Edge 104, Type (0, 1), BuildingBlock: UVAHIK_clean_linker_0, # of connection points: 2
#     Edge 105, Type (0, 1), BuildingBlock: UVAHIK_clean_linker_0, # of connection points: 2
#     Edge 106, Type (0, 1), BuildingBlock: UVAHIK_clean_linker_0, # of connection points: 2
#     Edge 107, Type (0, 1), BuildingBlock: UVAHIK_clean_linker_0, # of connection points: 2
# Relax obj value: 0.069
# Max RMSD: 0.094
# Mean RMSD: 0.093
data_MOF--net-ptr--node1-GALJAG_clean_sbu_0--node2-GIZVER_clean_linker_0--edge1-UVAHIK_clean_linker_0
_symmetry_space_group_name_H-M    P1
_symmetry_Int_Tables_number       1
_symmetry_cell_setting            triclinic
loop_
_symmetry_equiv_pos_as_xyz
'x, y, z'
_cell_length_a     101.43434
_cell_length_b     101.48326
_cell_length_c     65.644516
_cell_angle_alpha  90.198261
_cell_angle_beta   90.267431
_cell_angle_gamma 120.1041
loop_
_atom_site_label
_atom_site_type_symbol
_atom_site_fract_x
_atom_site_fract_y
_atom_site_fract_z
_atom_type_partial_charge
In0 In 0.01076 0.37646 0.01007 0.0
O1 O 1.00129 0.38083 0.03948 0.0
O2 O 0.02114 0.39923 0.0268 0.0
C3 C 0.98786 0.34773 0.00272 0.0
C4 C 0.03361 0.37125 0.02003 0.0
C5 C 0.01037 0.39175 0.97656 0.0
O6 O 0.98587 0.35739 0.01233 0.0
O7 O 1.00129 0.3526 0.99664 0.0
O8 O 0.0224 0.39252 0.98331 0.0
O9 O 0.99853 0.38295 0.98632 0.0
C10 C 0.01136 0.39472 0.04072 0.0
O11 O 0.03346 0.37762 0.0036 0.0
O12 O 0.02233 0.36765 0.03144 0.0
In13 In 0.64164 0.64059 0.01929 0.0
O14 O 0.63149 0.61749 0.03475 0.0
O15 O 0.63455 0.63625 0.05277 0.0
C16 C 0.66912 0.64363 0.01088 0.0
C17 C 0.64566 0.66859 0.02734 0.0
C18 C 0.62262 0.62717 0.98706 0.0
O19 O 0.66422 0.65148 0.00236 0.0
O20 O 0.66013 0.63414 0.02364 0.0
O21 O 0.63692 0.63444 0.98542 0.0
O22 O 0.6179 0.62701 0.00479 0.0
C23 C 0.62983 0.62215 0.05185 0.0
O24 O 0.63335 0.65792 0.02012 0.0
O25 O 0.65573 0.66507 0.03078 0.0
In26 In 0.37041 0.00863 0.01427 0.0
O27 O 0.36941 0.02999 0.0224 0.0
O28 O 0.36249 0.02085 0.99253 0.0
C29 C 0.38854 0.0096 0.04538 0.0
C30 C 0.38708 0.00843 0.98238 0.0
C31 C 0.34211 0.98561 0.02329 0.0
O32 O 0.38767 0.02106 0.04006 0.0
O33 O 0.38007 0.99766 0.03535 0.0
O34 O 0.35041 0.98427 0.01018 0.0
O35 O 0.34803 0.99851 0.03179 0.0
C36 C 0.36444 0.03108 0.0052 0.0
O37 O 0.37413 0.99728 0.98648 0.0
O38 O 0.39144 0.0198 0.99403 0.0
In39 In 0.00671 0.64329 0.01214 0.0
O40 O 0.0211 0.63667 0.99249 0.0
O41 O 0.99845 0.62929 0.98281 0.0
C42 C 0.03065 0.67168 0.0182 0.0
C43 C 0.98308 0.64758 0.00334 0.0
C44 C 0.00343 0.62589 0.04525 0.0
O45 O 0.03198 0.66141 0.00917 0.0
O46 O 0.01734 0.66761 0.02414 0.0
O47 O 0.00968 0.64018 0.04615 0.0
O48 O 0.9984 0.62034 0.02787 0.0
C49 C 0.01066 0.62922 0.97961 0.0
O50 O 0.9821 0.63805 0.01646 0.0
O51 O 0.99584 0.65475 0.99469 0.0
In52 In 0.37305 0.37467 0.01882 0.0
O53 O 0.37623 0.38765 0.98899 0.0
O54 O 0.39599 0.39093 0.00468 0.0
C55 C 0.34428 0.36954 0.02313 0.0
C56 C 0.36988 0.34752 0.00791 0.0
C57 C 0.38851 0.38774 0.05379 0.0
O58 O 0.3555 0.38259 0.01978 0.0
O59 O 0.34753 0.35909 0.02425 0.0
O60 O 0.39041 0.37821 0.04378 0.0
O61 O 0.37841 0.39021 0.04662 0.0
C62 C 0.39059 0.39426 0.98953 0.0
O63 O 0.3694 0.35103 0.02627 0.0
O64 O 0.37184 0.35763 0.99518 0.0
In65 In 0.64394 0.00821 0.01094 0.0
O66 O 0.63862 0.01863 0.03858 0.0
O67 O 0.62184 0.99649 0.02872 0.0
C68 C 0.67226 0.03129 0.00247 0.0
C69 C 0.64955 0.98548 0.02011 0.0
C70 C 0.6268 0.0088 0.97972 0.0
O71 O 0.66547 0.03085 0.01876 0.0
O72 O 0.66483 0.02007 0.99067 0.0
O73 O 0.62697 0.99688 0.98465 0.0
O74 O 0.63548 0.02043 0.99023 0.0
C75 C 0.62547 0.00729 0.04113 0.0
O76 O 0.64435 0.98639 0.003 0.0
O77 O 0.65205 0.99608 0.03239 0.0
In78 In 0.67566 0.70708 0.34299 0.0
O79 O 0.665 0.7128 0.36985 0.0
O80 O 0.68796 0.72859 0.36243 0.0
C81 C 0.6523 0.6788 0.33463 0.0
C82 C 0.69807 0.70073 0.35113 0.0
C83 C 0.67519 0.72422 0.31188 0.0
O84 O 0.6533 0.68562 0.35118 0.0
O85 O 0.66309 0.68621 0.32241 0.0
O86 O 0.68707 0.724 0.31704 0.0
O87 O 0.66352 0.71559 0.32212 0.0
C88 C 0.67676 0.72544 0.37372 0.0
O89 O 0.69761 0.70709 0.33488 0.0
O90 O 0.68724 0.69755 0.36318 0.0
In91 In 0.30745 0.97457 0.3518 0.0
O92 O 0.30372 0.95749 0.37705 0.0
O93 O 0.29227 0.97004 0.37956 0.0
C94 C 0.33449 0.97768 0.34078 0.0
C95 C 0.31326 0.00361 0.3558 0.0
C96 C 0.28745 0.95661 0.32265 0.0
O97 O 0.33097 0.9778 0.3592 0.0
O98 O 0.32443 0.97611 0.32803 0.0
O99 O 0.29315 0.97089 0.32288 0.0
O100 O 0.29192 0.95151 0.33692 0.0
C101 C 0.29451 0.95989 0.38696 0.0
O102 O 0.30009 0.99255 0.35219 0.0
O103 O 0.32348 1.00005 0.35735 0.0
In104 In 0.03802 0.34101 0.34468 0.0
O105 O 0.04439 0.36588 0.34915 0.0
O106 O 0.02587 0.35217 0.32927 0.0
C107 C 0.05548 0.34084 0.37585 0.0
C108 C 0.05397 0.33957 0.31262 0.0
C109 C 0.00943 0.31876 0.35384 0.0
O110 O 0.05184 0.351 0.37409 0.0
O111 O 0.05016 0.33076 0.36211 0.0
O112 O 0.01479 0.32056 0.33611 0.0
O113 O 0.01844 0.3282 0.36686 0.0
C114 C 0.03414 0.36508 0.33738 0.0
O115 O 0.04309 0.32789 0.3205 0.0
O116 O 0.05653 0.35198 0.3205 0.0
In117 In 0.6752 0.97796 0.34378 0.0
O118 O 0.68806 0.97373 0.31844 0.0
O119 O 0.6641 0.9592 0.31962 0.0
C120 C 0.69713 0.00647 0.35426 0.0
C121 C 0.65105 0.98187 0.33716 0.0
C122 C 0.67629 0.9603 0.37371 0.0
O123 O 0.69553 0.00135 0.33632 0.0
O124 O 0.68766 0.99724 0.36684 0.0
O125 O 0.66556 0.96316 0.37218 0.0
O126 O 0.68647 0.96651 0.36039 0.0
C127 C 0.6764 0.9624 0.31095 0.0
O128 O 0.6505 0.97186 0.34904 0.0
O129 O 0.66373 0.98985 0.32859 0.0
In130 In 0.03972 0.70669 0.35253 0.0
O131 O 0.04289 0.71952 0.32253 0.0
O132 O 0.06234 0.72051 0.3362 0.0
C133 C 0.0113 0.70221 0.3581 0.0
C134 C 0.03459 0.67851 0.34352 0.0
C135 C 0.0562 0.72101 0.38634 0.0
O136 O 0.02246 0.71501 0.35347 0.0
O137 O 0.01448 0.69176 0.35999 0.0
O138 O 0.05745 0.71077 0.37717 0.0
O139 O 0.04627 0.72363 0.37892 0.0
C140 C 0.05706 0.72459 0.3217 0.0
O141 O 0.03668 0.68358 0.36157 0.0
O142 O 0.03511 0.68766 0.33011 0.0
In143 In 0.30987 0.34068 0.34584 0.0
O144 O 0.31086 0.31932 0.33747 0.0
O145 O 0.31748 0.32821 0.36752 0.0
C146 C 0.29451 0.34089 0.31209 0.0
C147 C 0.29087 0.33915 0.37577 0.0
C148 C 0.33823 0.36467 0.34046 0.0
O149 O 0.29343 0.32884 0.31912 0.0
O150 O 0.30365 0.35282 0.32169 0.0
O151 O 0.32802 0.36577 0.34993 0.0
O152 O 0.33415 0.35151 0.33371 0.0
C153 C 0.31561 0.31805 0.35477 0.0
O154 O 0.30475 0.34935 0.37544 0.0
O155 O 0.28675 0.32969 0.36131 0.0
In156 In 0.34311 0.04133 0.67734 0.0
O157 O 0.36822 0.05259 0.68693 0.0
O158 O 0.35753 0.02973 0.67648 0.0
C159 C 0.3444 0.05738 0.64379 0.0
C160 C 0.33852 0.05517 0.70962 0.0
C161 C 0.32008 0.01224 0.67308 0.0
O162 O 0.35621 0.05923 0.65284 0.0
O163 O 0.33207 0.04724 0.65133 0.0
O164 O 0.32127 0.02033 0.68841 0.0
O165 O 0.33048 0.01882 0.66008 0.0
C166 C 0.36947 0.04105 0.68339 0.0
O167 O 0.34282 0.04552 0.71159 0.0
O168 O 0.33612 0.05746 0.69149 0.0
In169 In 0.97755 0.31094 0.68562 0.0
O170 O 0.97037 0.32898 0.68211 0.0
O171 O 0.99134 0.33539 0.69719 0.0
C172 C 0.9596 0.29612 0.65294 0.0
C173 C 0.96421 0.29428 0.71923 0.0
C174 C 0.00532 0.31393 0.67987 0.0
O175 O 0.97393 0.30333 0.6522 0.0
O176 O 0.95428 0.29673 0.66996 0.0
O177 O 0.99573 0.30431 0.69204 0.0
O178 O 1.00089 0.32196 0.67076 0.0
C179 C 0.98209 0.33937 0.69094 0.0
O180 O 0.96823 0.28919 0.70442 0.0
O181 O 0.96744 0.30794 0.71743 0.0
In182 In 0.70175 0.67145 0.675 0.0
O183 O 0.70652 0.6959 0.67802 0.0
O184 O 0.68954 0.68129 0.65671 0.0
C185 C 0.7186 0.67119 0.70702 0.0
C186 C 0.71823 0.67097 0.643 0.0
C187 C 0.67323 0.64931 0.68447 0.0
O188 O 0.71579 0.68183 0.70426 0.0
O189 O 0.71271 0.66067 0.69394 0.0
O190 O 0.68074 0.64789 0.67023 0.0
O191 O 0.68011 0.66182 0.69401 0.0
C192 C 0.69668 0.69433 0.6649 0.0
O193 O 0.70594 0.65945 0.64837 0.0
O194 O 0.722 0.68281 0.65341 0.0
In195 In 0.34243 0.31032 0.67685 0.0
O196 O 0.3546 0.30558 0.65116 0.0
O197 O 0.33077 0.29071 0.65384 0.0
C198 C 0.36541 0.33874 0.68557 0.0
C199 C 0.31923 0.31523 0.66765 0.0
C200 C 0.34284 0.29342 0.7085 0.0
O201 O 0.36523 0.33147 0.66986 0.0
O202 O 0.35399 0.3317 0.69697 0.0
O203 O 0.33296 0.29745 0.7069 0.0
O204 O 0.35253 0.29814 0.69447 0.0
C205 C 0.34285 0.2939 0.64453 0.0
O206 O 0.31763 0.30465 0.67927 0.0
O207 O 0.33247 0.32323 0.66057 0.0
In208 In 0.70545 0.04172 0.68097 0.0
O209 O 0.70828 0.05475 0.65116 0.0
O210 O 0.72758 0.05459 0.66325 0.0
C211 C 0.67722 0.03659 0.68988 0.0
C212 C 0.70032 0.01358 0.67164 0.0
C213 C 0.72237 0.05707 0.71402 0.0
O214 O 0.68723 0.04874 0.68172 0.0
O215 O 0.68145 0.02709 0.69368 0.0
O216 O 0.72274 0.04589 0.70625 0.0
O217 O 0.71313 0.06022 0.70554 0.0
C218 C 0.72227 0.05919 0.64943 0.0
O219 O 0.70676 0.02042 0.68799 0.0
O220 O 0.69642 0.02091 0.65994 0.0
In221 In 0.9763 0.67492 0.67759 0.0
O222 O 0.97722 0.65335 0.66977 0.0
O223 O 0.98436 0.66292 0.69934 0.0
C224 C 0.95933 0.67518 0.64593 0.0
C225 C 0.95738 0.67378 0.70727 0.0
C226 C 0.00463 0.69821 0.66977 0.0
O227 O 0.95963 0.66336 0.6511 0.0
O228 O 0.96782 0.68689 0.65644 0.0
O229 O 0.99767 0.69754 0.68598 0.0
O230 O 0.99735 0.68713 0.65771 0.0
C231 C 0.98223 0.65245 0.68704 0.0
O232 O 0.9704 0.68533 0.70469 0.0
O233 O 0.95413 0.66289 0.69517 0.0
H234 H 0.15574 0.32504 0.15567 0.0
H235 H 0.15042 0.32906 0.09112 0.0
H236 H 0.12884 0.344 0.13416 0.0
H237 H 0.15917 0.30859 0.12886 0.0
H238 H 0.16107 0.31395 0.10275 0.0
H239 H 0.17917 0.32593 0.15465 0.0
H240 H 0.22431 0.35118 0.13042 0.0
H241 H 0.18571 0.33196 0.08979 0.0
C242 C 0.15163 0.32894 0.14315 0.0
C243 C 0.14255 0.33546 0.14729 0.0
C244 C 0.15492 0.32697 0.1229 0.0
C245 C 0.14864 0.33123 0.10676 0.0
C246 C 0.13907 0.33719 0.11085 0.0
C247 C 0.13647 0.33965 0.13106 0.0
C248 C 0.16342 0.31857 0.11858 0.0
C249 C 0.18041 0.32853 0.12191 0.0
C250 C 0.18661 0.33097 0.14173 0.0
C251 C 0.20243 0.33939 0.1449 0.0
C252 C 0.21207 0.34538 0.12808 0.0
C253 C 0.20618 0.3426 0.10818 0.0
C254 C 0.19031 0.33434 0.10516 0.0
H255 H 0.69024 0.83813 0.15289 0.0
H256 H 0.68343 0.82898 0.08836 0.0
H257 H 0.66463 0.79208 0.13102 0.0
H258 H 0.70711 0.8574 0.12593 0.0
H259 H 0.70082 0.85443 0.1 0.0
H260 H 0.69253 0.86243 0.15277 0.0
H261 H 0.6669 0.88287 0.1315 0.0
H262 H 0.68266 0.86179 0.08867 0.0
C263 C 0.68507 0.83018 0.14033 0.0
C264 C 0.67668 0.81452 0.14431 0.0
C265 C 0.68716 0.83557 0.12019 0.0
C266 C 0.68126 0.82501 0.10395 0.0
C267 C 0.67303 0.80929 0.10782 0.0
C268 C 0.67046 0.80421 0.12801 0.0
C269 C 0.69677 0.85243 0.11602 0.0
C270 C 0.68808 0.86063 0.12032 0.0
C271 C 0.68702 0.86491 0.1404 0.0
C272 C 0.67914 0.87269 0.14455 0.0
C273 C 0.67239 0.87624 0.12845 0.0
C274 C 0.67375 0.87255 0.10827 0.0
C275 C 0.68149 0.86459 0.10425 0.0
H276 H 0.17228 0.81377 0.16314 0.0
H277 H 0.17172 0.81211 0.09747 0.0
H278 H 0.12977 0.78963 0.13066 0.0
H279 H 0.19534 0.81908 0.1432 0.0
H280 H 0.1953 0.82027 0.1161 0.0
H281 H 0.19397 0.83948 0.16456 0.0
H282 H 0.21923 0.88407 0.13858 0.0
H283 H 0.20419 0.84451 0.10047 0.0
C284 C 0.166 0.81057 0.14888 0.0
C285 C 0.15006 0.8014 0.14908 0.0
C286 C 0.17392 0.8147 0.13028 0.0
C287 C 0.1657 0.80954 0.11182 0.0
C288 C 0.14974 0.8006 0.11192 0.0
C289 C 0.14207 0.79687 0.13055 0.0
C290 C 0.19113 0.82303 0.13023 0.0
C291 C 0.19789 0.84007 0.13217 0.0
C292 C 0.19871 0.84669 0.15136 0.0
C293 C 0.20616 0.86259 0.1537 0.0
C294 C 0.21268 0.87181 0.13659 0.0
C295 C 0.21211 0.86547 0.11735 0.0
C296 C 0.20452 0.84953 0.11519 0.0
H297 H 0.35967 0.19484 0.86603 0.0
H298 H 0.36659 0.20498 0.93021 0.0
H299 H 0.3456 0.22432 0.8933 0.0
H300 H 0.38046 0.19377 0.88657 0.0
H301 H 0.37997 0.19413 0.91365 0.0
H302 H 0.36189 0.17123 0.86692 0.0
H303 H 0.34084 0.12902 0.89964 0.0
H304 H 0.36288 0.17141 0.93255 0.0
C305 C 0.35809 0.20015 0.87942 0.0
C306 C 0.35142 0.20934 0.87746 0.0
C307 C 0.36346 0.1984 0.89844 0.0
C308 C 0.362 0.20586 0.91566 0.0
C309 C 0.35534 0.21507 0.91395 0.0
C310 C 0.3499 0.21651 0.89488 0.0
C311 C 0.37261 0.1904 0.89977 0.0
C312 C 0.36259 0.17327 0.89974 0.0
C313 C 0.3583 0.16512 0.88118 0.0
C314 C 0.35066 0.14912 0.88105 0.0
C315 C 0.34652 0.14136 0.89964 0.0
C316 C 0.35102 0.14926 0.91823 0.0
C317 C 0.35894 0.16524 0.91824 0.0
H318 H 0.86196 0.17968 0.87516 0.0
H319 H 0.86484 0.18635 0.9403 0.0
H320 H 0.8854 0.22489 0.90055 0.0
H321 H 0.8588 0.15906 0.90071 0.0
H322 H 0.85531 0.16118 0.9268 0.0
H323 H 0.8397 0.15529 0.8737 0.0
H324 H 0.79344 0.13546 0.89371 0.0
H325 H 0.82996 0.1549 0.93765 0.0
C326 C 0.86532 0.1872 0.88827 0.0
C327 C 0.87366 0.20304 0.88541 0.0
C328 C 0.8617 0.18104 0.90803 0.0
C329 C 0.86691 0.19094 0.92501 0.0
C330 C 0.87527 0.20677 0.92227 0.0
C331 C 0.87831 0.21268 0.90252 0.0
C332 C 0.85365 0.16398 0.91096 0.0
C333 C 0.83681 0.15653 0.90615 0.0
C334 C 0.83162 0.15279 0.88586 0.0
C335 C 0.81598 0.14544 0.88128 0.0
C336 C 0.80555 0.14182 0.89713 0.0
C337 C 0.81043 0.145 0.91749 0.0
C338 C 0.82612 0.15253 0.92194 0.0
H339 H 0.83711 0.64859 0.86151 0.0
H340 H 0.84202 0.64625 0.92639 0.0
H341 H 0.88165 0.66811 0.88849 0.0
H342 H 0.81616 0.62866 0.8833 0.0
H343 H 0.81763 0.63026 0.91036 0.0
H344 H 0.81416 0.64898 0.86282 0.0
H345 H 0.7875 0.6652 0.89273 0.0
H346 H 0.80799 0.64435 0.92778 0.0
C347 C 0.8443 0.65162 0.87496 0.0
C348 C 0.86021 0.65953 0.8728 0.0
C349 C 0.83763 0.64701 0.89428 0.0
C350 C 0.84707 0.65025 0.91156 0.0
C351 C 0.86301 0.65803 0.90959 0.0
C352 C 0.86941 0.66283 0.89022 0.0
C353 C 0.82054 0.63703 0.8961 0.0
C354 C 0.81245 0.64612 0.89547 0.0
C355 C 0.80983 0.65112 0.87672 0.0
C356 C 0.80113 0.65836 0.87572 0.0
C357 C 0.79501 0.66051 0.89369 0.0
C358 C 0.79728 0.65542 0.91255 0.0
C359 C 0.80626 0.64845 0.91336 0.0
H360 H 0.81956 0.65656 0.48644 0.0
H361 H 0.81959 0.66505 0.42215 0.0
H362 H 0.79779 0.68061 0.46408 0.0
H363 H 0.82458 0.64152 0.46008 0.0
H364 H 0.82714 0.64722 0.43403 0.0
H365 H 0.84414 0.65875 0.48666 0.0
H366 H 0.88987 0.68402 0.46432 0.0
H367 H 0.85224 0.66477 0.42205 0.0
C368 C 0.81685 0.66171 0.47389 0.0
C369 C 0.8087 0.66926 0.47764 0.0
C370 C 0.82117 0.66046 0.45394 0.0
C371 C 0.81681 0.66646 0.43763 0.0
C372 C 0.80843 0.67384 0.4412 0.0
C373 C 0.80476 0.67546 0.46128 0.0
C374 C 0.82926 0.65163 0.44996 0.0
C375 C 0.8462 0.66127 0.45393 0.0
C376 C 0.8519 0.66372 0.47402 0.0
C377 C 0.86764 0.67216 0.47784 0.0
C378 C 0.87769 0.67817 0.46143 0.0
C379 C 0.87228 0.67538 0.44128 0.0
C380 C 0.85648 0.66709 0.43759 0.0
H381 H 0.35967 0.17149 0.48505 0.0
H382 H 0.35329 0.16399 0.42018 0.0
H383 H 0.33528 0.12596 0.46097 0.0
H384 H 0.37622 0.19169 0.45934 0.0
H385 H 0.37066 0.18917 0.43313 0.0
H386 H 0.36 0.19503 0.48573 0.0
H387 H 0.33555 0.21651 0.46374 0.0
H388 H 0.35299 0.19681 0.42121 0.0
C389 C 0.35477 0.16383 0.47215 0.0
C390 C 0.34675 0.14804 0.47539 0.0
C391 C 0.35681 0.16972 0.4523 0.0
C392 C 0.35119 0.1596 0.43557 0.0
C393 C 0.34329 0.14378 0.43868 0.0
C394 C 0.34084 0.13816 0.4586 0.0
C395 C 0.36615 0.18671 0.44893 0.0
C396 C 0.35699 0.19445 0.45304 0.0
C397 C 0.35501 0.19795 0.47317 0.0
C398 C 0.34703 0.20565 0.47711 0.0
C399 C 0.34103 0.20986 0.46076 0.0
C400 C 0.34327 0.20692 0.44057 0.0
C401 C 0.3511 0.19901 0.43678 0.0
H402 H 0.83949 0.15667 0.49588 0.0
H403 H 0.83601 0.14761 0.43136 0.0
H404 H 0.79551 0.1316 0.46699 0.0
H405 H 0.86062 0.15634 0.47565 0.0
H406 H 0.85992 0.15623 0.44852 0.0
H407 H 0.86594 0.17927 0.49546 0.0
H408 H 0.88987 0.22167 0.4635 0.0
H409 H 0.86744 0.1796 0.42983 0.0
C410 C 0.83258 0.15218 0.48222 0.0
C411 C 0.8166 0.14442 0.48365 0.0
C412 C 0.83968 0.15358 0.46335 0.0
C413 C 0.83065 0.1471 0.4458 0.0
C414 C 0.81469 0.13935 0.44703 0.0
C415 C 0.80781 0.13832 0.46589 0.0
C416 C 0.85674 0.16033 0.46237 0.0
C417 C 0.86503 0.17752 0.4626 0.0
C418 C 0.86906 0.18551 0.48127 0.0
C419 C 0.8782 0.20144 0.48167 0.0
C420 C 0.88258 0.20938 0.46324 0.0
C421 C 0.87882 0.20163 0.44453 0.0
C422 C 0.86998 0.18567 0.44423 0.0
H423 H 0.03026 0.53561 0.20198 0.0
H424 H 0.03129 0.53654 0.26762 0.0
H425 H 0.00979 0.55733 0.2349 0.0
H426 H 0.04923 0.53205 0.22196 0.0
H427 H 0.04793 0.53032 0.24896 0.0
H428 H 0.02949 0.51083 0.1997 0.0
H429 H 0.01376 0.46643 0.22476 0.0
H430 H 0.03326 0.5057 0.26417 0.0
C431 C 0.02674 0.53821 0.21628 0.0
C432 C 0.01926 0.54669 0.21624 0.0
C433 C 0.0309 0.53424 0.2348 0.0
C434 C 0.02741 0.5388 0.25334 0.0
C435 C 0.01968 0.54703 0.25342 0.0
C436 C 0.0153 0.55053 0.23486 0.0
C437 C 0.04099 0.52724 0.23472 0.0
C438 C 0.03197 0.51013 0.23228 0.0
C439 C 0.02729 0.50356 0.21278 0.0
C440 C 0.02044 0.48773 0.21 0.0
C441 C 0.01813 0.47851 0.22702 0.0
C442 C 0.02271 0.48481 0.24663 0.0
C443 C 0.02945 0.50066 0.24918 0.0
H444 H 0.53393 0.50595 0.21287 0.0
H445 H 0.52891 0.51754 0.27462 0.0
H446 H 0.55593 0.55276 0.23188 0.0
H447 H 0.52501 0.48668 0.2401 0.0
H448 H 0.52283 0.49148 0.26557 0.0
H449 H 0.50627 0.486 0.21248 0.0
H450 H 0.46042 0.46616 0.23463 0.0
H451 H 0.49782 0.48387 0.27703 0.0
C452 C 0.53595 0.51441 0.22446 0.0
C453 C 0.54538 0.52989 0.22011 0.0
C454 C 0.5298 0.50982 0.2441 0.0
C455 C 0.53318 0.52095 0.2593 0.0
C456 C 0.54242 0.53648 0.25481 0.0
C457 C 0.54835 0.5408 0.2352 0.0
C458 C 0.52089 0.4931 0.2493 0.0
C459 C 0.50405 0.48642 0.24517 0.0
C460 C 0.49843 0.48328 0.22502 0.0
C461 C 0.48269 0.47611 0.22107 0.0
C462 C 0.47262 0.47233 0.23745 0.0
C463 C 0.47799 0.47499 0.25758 0.0
C464 C 0.49371 0.48212 0.26143 0.0
H465 H 0.50674 0.98446 0.19644 0.0
H466 H 0.51063 0.98236 0.26152 0.0
H467 H 0.55075 0.00192 0.2243 0.0
H468 H 0.48501 0.96553 0.21777 0.0
H469 H 0.48638 0.96663 0.24486 0.0
H470 H 0.48558 0.98795 0.19831 0.0
H471 H 0.45848 0.00379 0.22794 0.0
H472 H 0.47577 0.97964 0.26224 0.0
C473 C 0.51374 0.98723 0.21004 0.0
C474 C 0.52965 0.99443 0.20821 0.0
C475 C 0.5068 0.98302 0.22926 0.0
C476 C 0.51596 0.98598 0.24676 0.0
C477 C 0.53189 0.99291 0.24514 0.0
C478 C 0.53857 0.9973 0.22583 0.0
C479 C 0.48964 0.97366 0.23081 0.0
C480 C 0.48222 0.98339 0.23055 0.0
C481 C 0.48077 0.98959 0.21212 0.0
C482 C 0.47245 0.99722 0.21117 0.0
C483 C 0.46567 0.99873 0.22892 0.0
C484 C 0.46664 0.99231 0.24737 0.0
C485 C 0.47517 0.98486 0.24816 0.0
H486 H 0.4862 0.99312 0.82315 0.0
H487 H 0.48819 0.00457 0.75963 0.0
H488 H 0.46772 0.02073 0.80283 0.0
H489 H 0.49105 0.97866 0.79616 0.0
H490 H 0.49363 0.98482 0.77027 0.0
H491 H 0.51114 0.99572 0.82288 0.0
H492 H 0.55682 0.01899 0.79998 0.0
H493 H 0.51897 1.00074 0.75813 0.0
C494 C 0.48423 0.99917 0.81104 0.0
C495 C 0.4769 0.00745 0.81543 0.0
C496 C 0.48873 0.9984 0.79102 0.0
C497 C 0.48532 0.0056 0.77522 0.0
C498 C 0.47783 0.01378 0.77945 0.0
C499 C 0.474 0.01491 0.79962 0.0
C500 C 0.49606 0.98894 0.78633 0.0
C501 C 0.51307 0.99787 0.7901 0.0
C502 C 0.51887 1.00025 0.81014 0.0
C503 C 0.53465 0.00809 0.81377 0.0
C504 C 0.54463 0.01356 0.79724 0.0
C505 C 0.5391 0.01078 0.77717 0.0
C506 C 0.52329 0.00306 0.77364 0.0
H507 H 0.02577 0.50653 0.8192 0.0
H508 H 0.01976 0.49907 0.75431 0.0
H509 H 1.00039 0.46105 0.79516 0.0
H510 H 0.04304 0.52641 0.79331 0.0
H511 H 0.0373 0.52412 0.76717 0.0
H512 H 0.02829 0.53125 0.81988 0.0
H513 H 0.00305 0.55215 0.79861 0.0
H514 H 0.01887 0.53119 0.75574 0.0
C515 C 0.02076 0.49889 0.80629 0.0
C516 C 0.01231 0.48312 0.80954 0.0
C517 C 0.02313 0.5048 0.78642 0.0
C518 C 0.01737 0.49468 0.76971 0.0
C519 C 0.00905 0.47888 0.77282 0.0
C520 C 0.00625 0.47326 0.79276 0.0
C521 C 0.03291 0.52174 0.78303 0.0
C522 C 0.0242 0.5299 0.78739 0.0
C523 C 0.02297 0.53397 0.80752 0.0
C524 C 0.01514 0.5418 0.81173 0.0
C525 C 0.00853 0.54551 0.79559 0.0
C526 C 0.00989 0.54184 0.77541 0.0
C527 C 0.01767 0.53394 0.77134 0.0
H528 H 0.50615 0.48478 0.83024 0.0
H529 H 0.50314 0.48147 0.76472 0.0
H530 H 0.46272 0.4578 0.80099 0.0
H531 H 0.52842 0.48969 0.80915 0.0
H532 H 0.52728 0.48946 0.78206 0.0
H533 H 0.53113 0.51177 0.82915 0.0
H534 H 0.55236 0.55424 0.79716 0.0
H535 H 0.53268 0.51215 0.76352 0.0
C536 C 0.49934 0.48089 0.81642 0.0
C537 C 0.48353 0.47114 0.81773 0.0
C538 C 0.50649 0.48463 0.79729 0.0
C539 C 0.49761 0.47889 0.77943 0.0
C540 C 0.48172 0.46929 0.78058 0.0
C541 C 0.47487 0.46566 0.79981 0.0
C542 C 0.52366 0.49296 0.79607 0.0
C543 C 0.53043 0.51002 0.79628 0.0
C544 C 0.53386 0.51799 0.81496 0.0
C545 C 0.54198 0.53398 0.81532 0.0
C546 C 0.54585 0.54189 0.79685 0.0
C547 C 0.54268 0.5342 0.7781 0.0
C548 C 0.53482 0.5182 0.77789 0.0
H549 H 0.69638 0.86463 0.53274 0.0
H550 H 0.6964 0.87054 0.59773 0.0
H551 H 0.67887 0.89172 0.55776 0.0
H552 H 0.71519 0.86248 0.55721 0.0
H553 H 0.7111 0.86033 0.58373 0.0
H554 H 0.69646 0.84238 0.53216 0.0
H555 H 0.6756 0.7971 0.55583 0.0
H556 H 0.69508 0.83536 0.59698 0.0
C557 C 0.69327 0.86888 0.54591 0.0
C558 C 0.68637 0.87775 0.54305 0.0
C559 C 0.69671 0.86599 0.56561 0.0
C560 C 0.69338 0.87235 0.58256 0.0
C561 C 0.68683 0.88162 0.57991 0.0
C562 C 0.68319 0.884 0.5601 0.0
C563 C 0.7057 0.85789 0.56835 0.0
C564 C 0.69611 0.84085 0.56501 0.0
C565 C 0.69265 0.83482 0.54509 0.0
C566 C 0.68489 0.81902 0.54171 0.0
C567 C 0.6807 0.80925 0.55847 0.0
C568 C 0.68444 0.81498 0.57843 0.0
C569 C 0.69194 0.83083 0.58164 0.0
H570 H 0.1967 0.84567 0.54611 0.0
H571 H 0.19689 0.85303 0.61087 0.0
H572 H 0.21803 0.89114 0.57027 0.0
H573 H 0.19273 0.82542 0.57225 0.0
H574 H 0.18907 0.82787 0.59815 0.0
H575 H 0.1737 0.82124 0.54484 0.0
H576 H 0.12731 0.80141 0.56437 0.0
H577 H 0.1636 0.82145 0.60856 0.0
C578 C 0.19941 0.85332 0.55899 0.0
C579 C 0.20733 0.86911 0.55582 0.0
C580 C 0.19526 0.84739 0.57879 0.0
C581 C 0.19955 0.85748 0.59552 0.0
C582 C 0.20767 0.87332 0.59252 0.0
C583 C 0.21122 0.87895 0.57262 0.0
C584 C 0.18744 0.83039 0.58216 0.0
C585 C 0.17062 0.82273 0.57718 0.0
C586 C 0.16554 0.81878 0.55688 0.0
C587 C 0.14992 0.8113 0.55215 0.0
C588 C 0.13941 0.80782 0.56786 0.0
C589 C 0.14419 0.81128 0.58821 0.0
C590 C 0.15984 0.81887 0.59283 0.0
H591 H 0.17164 0.3161 0.53076 0.0
H592 H 0.17746 0.31453 0.59557 0.0
H593 H 0.21653 0.33586 0.55667 0.0
H594 H 0.15098 0.29648 0.55317 0.0
H595 H 0.15285 0.29835 0.58018 0.0
H596 H 0.14917 0.31705 0.53269 0.0
H597 H 0.12247 0.33312 0.56287 0.0
H598 H 0.14295 0.31214 0.59763 0.0
C599 C 0.17901 0.31928 0.54402 0.0
C600 C 0.19489 0.32715 0.54145 0.0
C601 C 0.17261 0.31492 0.56354 0.0
C602 C 0.1823 0.31836 0.58059 0.0
C603 C 0.1982 0.3261 0.57822 0.0
C604 C 0.20432 0.33064 0.55867 0.0
C605 C 0.15555 0.30497 0.56581 0.0
C606 C 0.14744 0.31405 0.56531 0.0
C607 C 0.14481 0.31912 0.54662 0.0
C608 C 0.1361 0.32634 0.54571 0.0
C609 C 0.12997 0.32841 0.56373 0.0
C610 C 0.13226 0.32327 0.58253 0.0
C611 C 0.14123 0.31629 0.58325 0.0
C612 C 0.02333 0.42036 0.05737 0.0
C613 C 0.0116 0.40506 0.05682 0.0
C614 C 0.02358 0.43028 0.07235 0.0
C615 C 0.99932 0.43562 0.1094 0.0
H616 H 0.03782 0.46258 0.13628 0.0
C617 C 0.0043 0.4665 0.18561 0.0
C618 C 0.01735 0.48075 0.18931 0.0
C619 C 0.00276 0.45852 0.16754 0.0
C620 C 0.02701 0.45536 0.12869 0.0
H621 H 0.99088 0.38815 0.07147 0.0
H622 H 0.99138 0.40549 0.09783 0.0
H623 H 0.03689 0.44589 0.10897 0.0
H624 H 0.03855 0.49824 0.17631 0.0
H625 H 0.03565 0.48454 0.1445 0.0
H626 H 0.98942 0.44501 0.12933 0.0
C627 C 1.0003 0.40984 0.08652 0.0
C628 C 0.02648 0.44574 0.11306 0.0
C629 C 1.00007 0.39989 0.07153 0.0
C630 C 0.02832 0.48733 0.17392 0.0
C631 C 0.02676 0.47937 0.1558 0.0
C632 C 0.99986 0.4453 0.12502 0.0
C633 C 0.01209 0.42515 0.08713 0.0
C634 C 0.01262 0.43567 0.10334 0.0
C635 C 0.01422 0.46465 0.1527 0.0
C636 C 0.0137 0.45521 0.13497 0.0
H637 H 0.03233 0.42471 0.04617 0.0
H638 H 0.03271 0.44204 0.07225 0.0
H639 H 0.9885 0.42815 0.102 0.0
H640 H 0.99556 0.46121 0.1971 0.0
H641 H 0.99298 0.44721 0.16574 0.0
C642 C 0.61668 0.59601 0.06681 0.0
C643 C 0.62215 0.6117 0.06899 0.0
C644 C 0.6086 0.58596 0.08254 0.0
C645 C 0.60143 0.58464 0.13785 0.0
H646 H 0.5653 0.54601 0.12491 0.0
C647 C 0.56944 0.54152 0.20062 0.0
C648 C 0.55356 0.53505 0.20066 0.0
C649 C 0.57786 0.54919 0.18351 0.0
C650 C 0.57533 0.55677 0.12876 0.0
H651 H 0.62358 0.6292 0.08942 0.0
H652 H 0.60941 0.61168 0.11685 0.0
H653 H 0.58002 0.5633 0.09746 0.0
H654 H 0.53384 0.53089 0.18286 0.0
H655 H 0.54857 0.54448 0.15274 0.0
H656 H 0.59657 0.5784 0.1691 0.0
C657 C 0.6115 0.60714 0.10307 0.0
C658 C 0.58386 0.56661 0.11304 0.0
C659 C 0.61957 0.61718 0.08734 0.0
C660 C 0.54609 0.53567 0.18299 0.0
C661 C 0.55454 0.54345 0.16582 0.0
C662 C 0.59294 0.57482 0.15352 0.0
C663 C 0.60583 0.59139 0.10081 0.0
C664 C 0.59696 0.5807 0.11742 0.0
C665 C 0.57057 0.5507 0.16614 0.0
C666 C 0.57977 0.56078 0.1492 0.0
H667 H 0.6185 0.59145 0.05284 0.0
H668 H 0.60458 0.57395 0.08041 0.0
H669 H 0.61154 0.59532 0.14176 0.0
H670 H 0.5754 0.54118 0.21418 0.0
H671 H 0.59014 0.55434 0.18412 0.0
C672 C 0.40758 0.02342 0.07328 0.0
C673 C 0.39905 0.01018 0.06148 0.0
C674 C 0.41774 0.02397 0.08822 0.0
C675 C 0.43982 0.00576 0.10371 0.0
H676 H 0.43841 0.02052 0.15773 0.0
C677 C 0.46329 0.99135 0.17503 0.0
C678 C 0.46888 0.00176 0.19136 0.0
C679 C 0.4573 0.99441 0.15766 0.0
C680 C 0.43923 0.01666 0.14264 0.0
H681 H 0.39451 0.98719 0.05595 0.0
H682 H 0.41221 0.98815 0.08198 0.0
H683 H 0.4228 0.02194 0.13051 0.0
H684 H 0.47359 0.024 0.20174 0.0
H685 H 0.46345 0.02955 0.1712 0.0
H686 H 0.45614 1.00034 0.11584 0.0
C687 C 0.41114 0.99814 0.07962 0.0
C688 C 0.43021 0.01743 0.12705 0.0
C689 C 0.40091 0.99754 0.06483 0.0
C690 C 0.46921 0.01571 0.18945 0.0
C691 C 0.46331 0.01883 0.17202 0.0
C692 C 0.44893 0.00509 0.11926 0.0
C693 C 0.41966 0.01135 0.09148 0.0
C694 C 0.4302 0.01172 0.10753 0.0
C695 C 0.45684 0.00801 0.15618 0.0
C696 C 0.44853 0.01027 0.13903 0.0
H697 H 0.40641 0.03335 0.07098 0.0
H698 H 0.42421 0.03433 0.09706 0.0
H699 H 0.44023 0.00151 0.08871 0.0
H700 H 0.46268 0.98041 0.17618 0.0
H701 H 0.45227 0.98573 0.14591 0.0
C702 C 0.40992 0.02129 0.95991 0.0
C703 C 0.39669 0.00796 0.96587 0.0
C704 C 0.41933 0.02077 0.94483 0.0
C705 C 0.41976 0.99625 0.90282 0.0
H706 H 0.46349 0.02337 0.90652 0.0
C707 C 0.46093 0.99321 0.84532 0.0
C708 C 0.47073 0.00717 0.83594 0.0
C709 C 0.45296 0.99278 0.86287 0.0
C710 C 0.4513 0.01574 0.90532 0.0
H711 H 0.38298 0.98361 0.96085 0.0
H712 H 0.39958 0.98256 0.93499 0.0
H713 H 0.44713 0.02354 0.93354 0.0
H714 H 0.48058 0.03163 0.83811 0.0
H715 H 0.46687 0.03091 0.86901 0.0
H716 H 0.42403 0.98837 0.87466 0.0
C717 C 0.40255 0.99352 0.94153 0.0
C718 C 0.44188 0.01589 0.92071 0.0
C719 C 0.39304 0.99409 0.95643 0.0
C720 C 0.47309 0.02073 0.84507 0.0
C721 C 0.46528 0.02031 0.86276 0.0
C722 C 0.4292 0.99596 0.88758 0.0
C723 C 0.41584 0.00685 0.93552 0.0
C724 C 0.42596 0.00627 0.91955 0.0
C725 C 0.45481 0.00631 0.8715 0.0
C726 C 0.44504 0.00582 0.88856 0.0
H727 H 0.41299 0.03216 0.96687 0.0
H728 H 0.42927 0.03132 0.94034 0.0
H729 H 0.40757 0.98886 0.90115 0.0
H730 H 0.45882 0.98259 0.83848 0.0
H731 H 0.44504 0.98184 0.8694 0.0
C732 C 0.02399 0.41288 0.95159 0.0
C733 C 0.01026 0.40116 0.95951 0.0
C734 C 0.02385 0.42245 0.93642 0.0
C735 C 0.99996 0.42454 0.89587 0.0
H736 H 0.02678 0.46823 0.90075 0.0
C737 C 0.99722 0.46472 0.83699 0.0
C738 C 0.01123 0.47657 0.83001 0.0
C739 C 0.99658 0.4566 0.85445 0.0
C740 C 0.01931 0.45606 0.89905 0.0
H741 H 0.98563 0.39009 0.95755 0.0
H742 H 0.98539 0.40668 0.93086 0.0
H743 H 0.02701 0.45148 0.9272 0.0
H744 H 0.03547 0.48963 0.83621 0.0
H745 H 0.03448 0.47531 0.86648 0.0
H746 H 0.99252 0.42894 0.86753 0.0
C747 C 0.99625 0.40848 0.93639 0.0
C748 C 0.01945 0.44647 0.91421 0.0
C749 C 0.9964 0.39901 0.95169 0.0
C750 C 0.0245 0.48066 0.84141 0.0
C751 C 0.0239 0.47243 0.85876 0.0
C752 C 0.99991 0.4341 0.88064 0.0
C753 C 0.00998 0.42039 0.92872 0.0
C754 C 0.0098 0.43061 0.91274 0.0
C755 C 0.00999 0.46 0.86517 0.0
C756 C 0.0096 0.44999 0.88199 0.0
H757 H 0.03486 0.41484 0.95736 0.0
H758 H 0.0346 0.43143 0.93062 0.0
H759 H 0.99252 0.41235 0.89419 0.0
H760 H 0.98681 0.46142 0.82853 0.0
H761 H 0.98562 0.44737 0.85922 0.0
C762 C 0.61821 0.6197 0.95029 0.0
C763 C 0.61233 0.61866 0.9699 0.0
C764 C 0.6087 0.61085 0.93433 0.0
C765 C 0.57318 0.57513 0.92394 0.0
H766 H 0.57849 0.59192 0.86967 0.0
C767 C 0.53927 0.53993 0.85196 0.0
C768 C 0.54829 0.54266 0.83457 0.0
C769 C 0.54542 0.54906 0.86946 0.0
C770 C 0.5769 0.58704 0.88473 0.0
H771 H 0.59185 0.60771 0.98816 0.0
H772 H 0.57521 0.59219 0.96018 0.0
H773 H 0.59228 0.60866 0.89824 0.0
H774 H 0.57106 0.55631 0.82237 0.0
H775 H 0.58166 0.57208 0.85255 0.0
H776 H 0.55805 0.55341 0.91021 0.0
C777 C 0.58719 0.59982 0.95721 0.0
C778 C 0.5848 0.59664 0.90109 0.0
C779 C 0.59669 0.60877 0.97317 0.0
C780 C 0.56367 0.55422 0.8353 0.0
C781 C 0.56976 0.56328 0.8526 0.0
C782 C 0.56526 0.56549 0.90751 0.0
C783 C 0.59312 0.60069 0.93764 0.0
C784 C 0.58334 0.59074 0.92079 0.0
C785 C 0.56067 0.56103 0.86975 0.0
C786 C 0.56737 0.57131 0.88765 0.0
H787 H 0.63022 0.62718 0.94732 0.0
H788 H 0.61367 0.61165 0.91949 0.0
H789 H 0.57188 0.57024 0.93895 0.0
H790 H 0.5274 0.53104 0.85183 0.0
H791 H 0.53817 0.54702 0.88252 0.0
C792 C 0.99954 0.61076 0.95063 0.0
C793 C 0.01216 0.62019 0.96303 0.0
C794 C 1.00052 0.60133 0.93592 0.0
C795 C 0.02757 0.59612 0.90476 0.0
H796 H 0.99377 0.55478 0.89901 0.0
C797 C 0.02821 0.55511 0.84427 0.0
C798 C 0.01479 0.54735 0.83256 0.0
C799 C 0.02837 0.56255 0.86235 0.0
C800 C 0.00328 0.56631 0.90035 0.0
H801 H 0.03581 0.62736 0.96948 0.0
H802 H 0.03756 0.61091 0.9436 0.0
H803 H 0.99327 0.57127 0.92573 0.0
H804 H 0.99082 0.54039 0.83127 0.0
H805 H 0.99111 0.55346 0.86255 0.0
H806 H 0.03739 0.59132 0.87905 0.0
C807 C 0.02691 0.61085 0.94528 0.0
C808 C 0.00298 0.57576 0.91564 0.0
C809 C 0.0259 0.62024 0.96011 0.0
C810 C 1.00136 0.54641 0.83989 0.0
C811 C 1.00151 0.55381 0.85792 0.0
C812 C 0.02784 0.58668 0.88939 0.0
C813 C 0.01417 0.60115 0.93321 0.0
C814 C 0.015 0.59085 0.9178 0.0
C815 C 0.01511 0.56231 0.8691 0.0
C816 C 0.01558 0.57174 0.8868 0.0
H817 H 0.98879 0.61048 0.95251 0.0
H818 H 0.99058 0.59419 0.92661 0.0
H819 H 0.03695 0.60773 0.90594 0.0
H820 H 0.03876 0.55611 0.83895 0.0
H821 H 0.03898 0.56881 0.87077 0.0
C822 C 0.39407 0.40845 0.95699 0.0
C823 C 0.4004 0.40469 0.97347 0.0
C824 C 0.40338 0.41772 0.94135 0.0
C825 C 0.44385 0.44424 0.92731 0.0
H826 H 0.4286 0.43063 0.8725 0.0
C827 C 0.47704 0.47486 0.8535 0.0
C828 C 0.47597 0.46513 0.83751 0.0
C829 C 0.4683 0.46884 0.87113 0.0
C830 C 0.43307 0.43456 0.88771 0.0
H831 H 0.42147 0.40799 0.98679 0.0
H832 H 0.43763 0.42386 0.95935 0.0
H833 H 0.41226 0.41793 0.90132 0.0
H834 H 0.4659 0.44156 0.82791 0.0
H835 H 0.45093 0.4311 0.85855 0.0
H836 H 0.46492 0.46051 0.9135 0.0
C837 C 0.42554 0.4199 0.95861 0.0
C838 C 0.4236 0.42741 0.90426 0.0
C839 C 0.41625 0.41069 0.97427 0.0
C840 C 0.46669 0.44932 0.83985 0.0
C841 C 0.45806 0.44335 0.85736 0.0
C842 C 0.45336 0.45141 0.91069 0.0
C843 C 0.4192 0.42337 0.94181 0.0
C844 C 0.42893 0.43199 0.92428 0.0
C845 C 0.45843 0.45302 0.87298 0.0
C846 C 0.44815 0.44642 0.89072 0.0
H847 H 0.3819 0.40408 0.95605 0.0
H848 H 0.39814 0.42036 0.92878 0.0
H849 H 0.44825 0.44818 0.94254 0.0
H850 H 0.48415 0.48708 0.85201 0.0
H851 H 0.46885 0.47658 0.88294 0.0
C852 C 0.60514 0.99543 0.95495 0.0
C853 C 0.61679 0.00907 0.96349 0.0
C854 C 0.59529 0.99572 0.94019 0.0
C855 C 0.59284 0.02004 0.90116 0.0
H856 H 0.54916 0.99304 0.90493 0.0
C857 C 0.5529 0.02307 0.84179 0.0
C858 C 0.54102 0.00911 0.83443 0.0
C859 C 0.56091 0.02362 0.85943 0.0
C860 C 0.56133 1.00057 0.90353 0.0
H861 H 0.62738 0.03368 0.9632 0.0
H862 H 0.61035 0.03417 0.93717 0.0
H863 H 0.56594 0.99256 0.93137 0.0
H864 H 0.52776 0.98489 0.84008 0.0
H865 H 0.54194 0.98572 0.87062 0.0
H866 H 0.58846 0.02772 0.87308 0.0
C867 C 0.6088 0.02328 0.94193 0.0
C868 C 0.57093 1.00029 0.9187 0.0
C869 C 0.61852 0.02299 0.95685 0.0
C870 C 0.53676 0.99582 0.8456 0.0
C871 C 0.54492 0.99633 0.86311 0.0
C872 C 0.58329 0.02021 0.8859 0.0
C873 C 0.59704 0.00965 0.93352 0.0
C874 C 0.58678 0.01001 0.91763 0.0
C875 C 0.5574 0.01018 0.86992 0.0
C876 C 0.5674 0.01046 0.88684 0.0
H877 H 0.60351 0.98453 0.95983 0.0
H878 H 0.58642 0.98505 0.93381 0.0
H879 H 0.60504 0.02752 0.8998 0.0
H880 H 0.55632 0.03349 0.83346 0.0
H881 H 0.57017 0.03455 0.8645 0.0
C882 C 0.61929 0.01876 0.07093 0.0
C883 C 0.61493 0.00667 0.05707 0.0
C884 C 0.60916 0.01804 0.08589 0.0
C885 C 0.57476 0.99034 0.11367 0.0
H886 H 0.57196 0.02589 0.12841 0.0
C887 C 0.53125 0.9862 0.17265 0.0
C888 C 0.53708 0.99746 0.18796 0.0
C889 C 0.5396 0.98799 0.15496 0.0
C890 C 0.57266 0.01588 0.12451 0.0
H891 H 0.59648 0.98444 0.04782 0.0
H892 H 0.57881 0.98325 0.07369 0.0
H893 H 0.58918 0.02767 0.10127 0.0
H894 H 0.5557 0.01988 0.19609 0.0
H895 H 0.57034 0.02293 0.16534 0.0
H896 H 0.55844 0.97859 0.137 0.0
C897 C 0.59011 0.99319 0.07327 0.0
C898 C 0.58256 0.01691 0.10901 0.0
C899 C 0.60022 0.99391 0.05837 0.0
C900 C 0.55099 0.01094 0.18463 0.0
C901 C 0.55932 0.01273 0.16694 0.0
C902 C 0.56488 0.98931 0.12911 0.0
C903 C 0.59446 0.00521 0.08727 0.0
C904 C 0.58378 0.00417 0.10348 0.0
C905 C 0.55393 1.00108 0.15217 0.0
C906 C 0.56375 0.00208 0.1348 0.0
H907 H 0.63056 0.02875 0.07028 0.0
H908 H 0.61294 0.02742 0.09659 0.0
H909 H 0.5756 0.98037 0.11005 0.0
H910 H 0.52063 0.97564 0.1748 0.0
H911 H 0.53501 0.97891 0.1437 0.0
C912 C 0.00975 0.6235 0.0814 0.0
C913 C 0.00323 0.61657 0.06263 0.0
C914 C 0.01095 0.61498 0.09722 0.0
C915 C 0.99651 0.57577 0.11602 0.0
H916 H 0.03471 0.59488 0.14607 0.0
C917 C 0.01133 0.5449 0.17933 0.0
C918 C 0.0175 0.55355 0.19722 0.0
C919 C 0.00954 0.55171 0.16175 0.0
C920 C 0.02394 0.5894 0.13789 0.0
H921 H 0.99241 0.59519 0.04589 0.0
H922 H 0.99458 0.58031 0.07352 0.0
H923 H 0.03107 0.60844 0.11812 0.0
H924 H 0.02717 0.57617 0.21048 0.0
H925 H 0.02392 0.58788 0.18017 0.0
H926 H 0.98939 0.55674 0.13605 0.0
C927 C 0.99867 0.5923 0.07606 0.0
C928 C 0.02183 0.5972 0.12192 0.0
C929 C 0.99747 0.60084 0.06022 0.0
C930 C 0.02213 0.56913 0.19705 0.0
C931 C 0.02044 0.5759 0.17958 0.0
C932 C 0.99863 0.56794 0.13206 0.0
C933 C 0.00569 0.59934 0.09462 0.0
C934 C 0.008 0.59061 0.11101 0.0
C935 C 0.01412 0.5673 0.16173 0.0
C936 C 0.01228 0.5748 0.1434 0.0
H937 H 0.01423 0.63558 0.08375 0.0
H938 H 0.01614 0.62069 0.11147 0.0
H939 H 0.9857 0.5704 0.10794 0.0
H940 H 0.00771 0.53289 0.17905 0.0
H941 H 0.00472 0.54483 0.14815 0.0
C942 C 0.39588 0.40718 0.08153 0.0
C943 C 0.39834 0.39647 0.07122 0.0
C944 C 0.40601 0.4165 0.09671 0.0
C945 C 0.43655 0.42025 0.13157 0.0
H946 H 0.44696 0.4626 0.13388 0.0
C947 C 0.48115 0.46218 0.18877 0.0
C948 C 0.47635 0.47066 0.20033 0.0
C949 C 0.47316 0.45443 0.17116 0.0
C950 C 0.44413 0.45079 0.13346 0.0
H951 H 0.41318 0.38689 0.06896 0.0
H952 H 0.43095 0.40324 0.09534 0.0
H953 H 0.42943 0.44582 0.1076 0.0
H954 H 0.46013 0.47859 0.20178 0.0
H955 H 0.44618 0.4651 0.17107 0.0
H956 H 0.45118 0.42521 0.15752 0.0
C957 C 0.42111 0.40435 0.09188 0.0
C958 C 0.43403 0.44115 0.11847 0.0
C959 C 0.41094 0.39499 0.07673 0.0
C960 C 0.46403 0.47206 0.19321 0.0
C961 C 0.45609 0.46439 0.17557 0.0
C962 C 0.44669 0.4299 0.14651 0.0
C963 C 0.41888 0.41535 0.10188 0.0
C964 C 0.42998 0.42571 0.11747 0.0
C965 C 0.46027 0.4551 0.16471 0.0
C966 C 0.45049 0.44525 0.14776 0.0
H967 H 0.38625 0.40856 0.07765 0.0
H968 H 0.40377 0.42463 0.10438 0.0
H969 H 0.43355 0.40839 0.13142 0.0
H970 H 0.49053 0.46078 0.19396 0.0
H971 H 0.47678 0.44754 0.16295 0.0
C972 C 0.66458 0.73215 0.40196 0.0
C973 C 0.67731 0.73599 0.38971 0.0
C974 C 0.6651 0.74235 0.41676 0.0
C975 C 0.69228 0.77559 0.44754 0.0
H976 H 0.65725 0.78045 0.45712 0.0
C977 C 0.69496 0.81836 0.50713 0.0
C978 C 0.68275 0.81249 0.52086 0.0
C979 C 0.69389 0.81055 0.48905 0.0
C980 C 0.66711 0.77918 0.45466 0.0
H981 H 0.7005 0.75356 0.38319 0.0
H982 H 0.70136 0.77138 0.40883 0.0
H983 H 0.65624 0.7634 0.43002 0.0
H984 H 0.6595 0.79445 0.52574 0.0
H985 H 0.65768 0.78073 0.49432 0.0
H986 H 0.70307 0.79115 0.47231 0.0
C987 C 0.69105 0.76043 0.40725 0.0
C988 C 0.66651 0.76938 0.43919 0.0
C989 C 0.69054 0.75023 0.3925 0.0
C990 C 0.66913 0.79918 0.51551 0.0
C991 C 0.66806 0.79138 0.49744 0.0
C992 C 0.69288 0.78539 0.46296 0.0
C993 C 0.67835 0.75661 0.41958 0.0
C994 C 0.67906 0.76738 0.43556 0.0
C995 C 0.68061 0.79672 0.48433 0.0
C996 C 0.68026 0.78722 0.46682 0.0
H997 H 0.65423 0.72125 0.40014 0.0
H998 H 0.65519 0.73898 0.42618 0.0
H999 H 0.70206 0.77414 0.44539 0.0
H1000 H 0.70564 0.82853 0.51086 0.0
H1001 H 0.70367 0.81509 0.47909 0.0
C1002 C 0.2873 0.93812 0.41081 0.0
C1003 C 0.28602 0.9507 0.40475 0.0
C1004 C 0.27828 0.9287 0.42656 0.0
C1005 C 0.25542 0.9277 0.47075 0.0
H1006 H 0.23576 0.88384 0.46411 0.0
C1007 C 0.21155 0.88801 0.52865 0.0
C1008 C 0.21303 0.8757 0.53543 0.0
C1009 C 0.21929 0.89616 0.51139 0.0
C1010 C 0.24126 0.89606 0.46627 0.0
H1011 H 0.2745 0.96344 0.41063 0.0
H1012 H 0.25882 0.94706 0.43811 0.0
H1013 H 0.25239 0.90049 0.43736 0.0
H1014 H 0.22315 0.86178 0.52891 0.0
H1015 H 0.23682 0.87608 0.49876 0.0
H1016 H 0.24449 0.92337 0.49967 0.0
C1017 C 0.26684 0.9445 0.43081 0.0
C1018 C 0.25081 0.9056 0.45096 0.0
C1019 C 0.27579 0.95387 0.41502 0.0
C1020 C 0.2217 0.87113 0.5239 0.0
C1021 C 0.22955 0.87936 0.50666 0.0
C1022 C 0.24592 0.91819 0.48603 0.0
C1023 C 0.26786 0.93172 0.43663 0.0
C1024 C 0.25796 0.92153 0.45302 0.0
C1025 C 0.22881 0.89227 0.50058 0.0
C1026 C 0.23866 0.90225 0.48397 0.0
H1027 H 0.29507 0.93539 0.40314 0.0
H1028 H 0.27948 0.91906 0.43087 0.0
H1029 H 0.26095 0.93991 0.47296 0.0
H1030 H 0.2048 0.89166 0.53716 0.0
H1031 H 0.21815 0.90579 0.50684 0.0
C1032 C 0.07171 0.35263 0.40694 0.0
C1033 C 0.06536 0.3408 0.39244 0.0
C1034 C 0.08115 0.35257 0.4225 0.0
C1035 C 0.10461 0.33535 0.43718 0.0
H1036 H 0.09931 0.3463 0.49191 0.0
C1037 C 0.12678 0.32002 0.50952 0.0
C1038 C 0.13195 0.33041 0.52591 0.0
C1039 C 0.12067 0.32284 0.49204 0.0
C1040 C 0.10113 0.34345 0.47667 0.0
H1041 H 0.0639 0.31964 0.38283 0.0
H1042 H 0.08012 0.31938 0.41012 0.0
H1043 H 0.08446 0.34813 0.46399 0.0
H1044 H 0.13577 0.35237 0.53622 0.0
H1045 H 0.12517 0.35732 0.50568 0.0
H1046 H 0.12107 0.33036 0.45002 0.0
C1047 C 0.07806 0.32886 0.40932 0.0
C1048 C 0.0926 0.34449 0.46064 0.0
C1049 C 0.06865 0.32894 0.39377 0.0
C1050 C 0.13165 0.34405 0.52397 0.0
C1051 C 0.12554 0.34686 0.50651 0.0
C1052 C 0.11313 0.33427 0.45323 0.0
C1053 C 0.08442 0.34066 0.42389 0.0
C1054 C 0.09412 0.34031 0.44073 0.0
C1055 C 0.11961 0.3361 0.49058 0.0
C1056 C 0.11139 0.33819 0.4732 0.0
H1057 H 0.06943 0.36197 0.40624 0.0
H1058 H 0.086 0.36192 0.43333 0.0
H1059 H 0.10625 0.33229 0.42197 0.0
H1060 H 0.12668 0.30933 0.51064 0.0
H1061 H 0.11608 0.31426 0.48011 0.0
C1062 C 0.06217 0.32474 0.2908 0.0
C1063 C 0.0636 0.33877 0.29639 0.0
C1064 C 0.07193 0.32409 0.27637 0.0
C1065 C 0.10909 0.34839 0.25084 0.0
H1066 H 0.09331 0.3152 0.21162 0.0
C1067 C 0.13848 0.34987 0.17512 0.0
C1068 C 0.13773 0.33638 0.16825 0.0
C1069 C 0.1312 0.35 0.19306 0.0
C1070 C 0.09796 0.32441 0.22269 0.0
H1071 H 0.07613 0.36309 0.29098 0.0
H1072 H 0.09283 0.36194 0.26534 0.0
H1073 H 0.0765 0.31572 0.23755 0.0
H1074 H 0.12944 0.31266 0.17516 0.0
H1075 H 0.11666 0.31286 0.20663 0.0
H1076 H 0.13043 0.35732 0.23538 0.0
C1077 C 0.08447 0.35145 0.27246 0.0
C1078 C 0.08831 0.32472 0.23757 0.0
C1079 C 0.0748 0.35211 0.28702 0.0
C1080 C 0.1303 0.32323 0.18023 0.0
C1081 C 0.12286 0.32331 0.19809 0.0
C1082 C 0.1187 0.34814 0.23584 0.0
C1083 C 0.08325 0.33745 0.26706 0.0
C1084 C 0.0937 0.3368 0.25172 0.0
C1085 C 0.12289 0.33659 0.20437 0.0
C1086 C 0.11319 0.33621 0.22149 0.0
H1087 H 0.05372 0.31427 0.29789 0.0
H1088 H 0.07076 0.31312 0.2728 0.0
H1089 H 0.11373 0.3577 0.26174 0.0
H1090 H 0.14413 0.36014 0.1661 0.0
H1091 H 0.13136 0.36038 0.19743 0.0
C1092 C 0.68867 0.74554 0.28712 0.0
C1093 C 0.675 0.73418 0.29565 0.0
C1094 C 0.68848 0.75529 0.27225 0.0
C1095 C 0.66405 0.75769 0.233 0.0
H1096 H 0.69216 0.80123 0.23594 0.0
C1097 C 0.66172 0.79716 0.17271 0.0
C1098 C 0.67576 0.80851 0.1651 0.0
C1099 C 0.66112 0.78942 0.19054 0.0
C1100 C 0.68432 0.78909 0.23478 0.0
H1101 H 0.65042 0.72404 0.29527 0.0
H1102 H 0.65008 0.74092 0.2691 0.0
H1103 H 0.69239 0.78473 0.26279 0.0
H1104 H 0.70011 0.82114 0.17051 0.0
H1105 H 0.69919 0.80744 0.20141 0.0
H1106 H 0.65629 0.76181 0.20477 0.0
C1107 C 0.66094 0.7423 0.27392 0.0
C1108 C 0.68445 0.77965 0.25018 0.0
C1109 C 0.66114 0.73267 0.28893 0.0
C1110 C 0.68912 0.81255 0.17621 0.0
C1111 C 0.68857 0.80467 0.19392 0.0
C1112 C 0.66402 0.76708 0.21752 0.0
C1113 C 0.6746 0.75374 0.26548 0.0
C1114 C 0.67435 0.76385 0.2494 0.0
C1115 C 0.67459 0.79269 0.20099 0.0
C1116 C 0.67417 0.78291 0.21816 0.0
H1117 H 0.69953 0.747 0.29205 0.0
H1118 H 0.69918 0.7639 0.26585 0.0
H1119 H 0.65627 0.74553 0.23185 0.0
H1120 H 0.65124 0.79391 0.16445 0.0
H1121 H 0.65012 0.78055 0.1958 0.0
C1122 C 0.27044 0.95234 0.29254 0.0
C1123 C 0.27652 0.94658 0.3069 0.0
C1124 C 0.26022 0.94277 0.27756 0.0
C1125 C 0.23512 0.9018 0.26359 0.0
H1126 H 0.24006 0.91778 0.20887 0.0
C1127 C 0.21414 0.86474 0.19038 0.0
C1128 C 0.20887 0.86989 0.17414 0.0
C1129 C 0.21959 0.87336 0.20831 0.0
C1130 C 0.23834 0.91319 0.22413 0.0
H1131 H 0.27666 0.92632 0.31694 0.0
H1132 H 0.25925 0.90977 0.29055 0.0
H1133 H 0.25539 0.93454 0.23653 0.0
H1134 H 0.20389 0.88739 0.16465 0.0
H1135 H 0.21346 0.90246 0.1959 0.0
H1136 H 0.21845 0.88027 0.25084 0.0
C1137 C 0.26202 0.92155 0.29106 0.0
C1138 C 0.24713 0.92282 0.24003 0.0
C1139 C 0.27212 0.93108 0.30611 0.0
C1140 C 0.20814 0.88327 0.17677 0.0
C1141 C 0.21363 0.89191 0.19463 0.0
C1142 C 0.22641 0.89213 0.24762 0.0
C1143 C 0.25597 0.92727 0.27653 0.0
C1144 C 0.24578 0.91722 0.25993 0.0
C1145 C 0.21989 0.88731 0.2103 0.0
C1146 C 0.22804 0.8977 0.22768 0.0
H1147 H 0.27355 0.96422 0.29289 0.0
H1148 H 0.25563 0.94753 0.26682 0.0
H1149 H 0.23356 0.89715 0.27878 0.0
H1150 H 0.215 0.85457 0.18877 0.0
H1151 H 0.22441 0.86956 0.22008 0.0
C1152 C 0.66379 0.941 0.28578 0.0
C1153 C 0.67719 0.95298 0.29433 0.0
C1154 C 0.66451 0.93149 0.27093 0.0
C1155 C 0.69064 0.92915 0.23367 0.0
H1156 H 0.66043 0.8861 0.23378 0.0
C1157 C 0.69278 0.88743 0.17592 0.0
C1158 C 0.67904 0.87852 0.16524 0.0
C1159 C 0.69304 0.89526 0.19364 0.0
C1160 C 0.66894 0.8981 0.23356 0.0
H1161 H 0.70187 0.96444 0.29401 0.0
H1162 H 0.70315 0.9477 0.26834 0.0
H1163 H 0.66002 0.90274 0.26038 0.0
H1164 H 0.65473 0.86998 0.16532 0.0
H1165 H 0.65515 0.88351 0.19635 0.0
H1166 H 0.6995 0.92448 0.20681 0.0
C1167 C 0.69207 0.94579 0.27282 0.0
C1168 C 0.66866 0.90766 0.24873 0.0
C1169 C 0.69134 0.95537 0.28758 0.0
C1170 C 0.66547 0.87682 0.17326 0.0
C1171 C 0.66571 0.88451 0.19106 0.0
C1172 C 0.69098 0.91956 0.21861 0.0
C1173 C 0.67865 0.93366 0.26439 0.0
C1174 C 0.67938 0.92335 0.24881 0.0
C1175 C 0.67956 0.89417 0.2011 0.0
C1176 C 0.68001 0.90397 0.21824 0.0
H1177 H 0.65272 0.93891 0.29065 0.0
H1178 H 0.65395 0.92248 0.26449 0.0
H1179 H 0.69894 0.94119 0.23307 0.0
H1180 H 0.70342 0.88903 0.16997 0.0
H1181 H 0.70386 0.90251 0.2012 0.0
C1182 C 0.0823 0.73886 0.30454 0.0
C1183 C 0.06678 0.73441 0.3051 0.0
C1184 C 0.09151 0.74784 0.28867 0.0
C1185 C 0.08903 0.75798 0.23554 0.0
H1186 H 0.13163 0.78814 0.24411 0.0
C1187 C 0.1309 0.77948 0.16942 0.0
C1188 C 0.14165 0.7951 0.16833 0.0
C1189 C 0.12211 0.77339 0.18679 0.0
C1190 C 0.11972 0.77989 0.24149 0.0
H1191 H 0.04878 0.73619 0.28977 0.0
H1192 H 0.06489 0.75207 0.26212 0.0
H1193 H 0.11537 0.77564 0.27339 0.0
H1194 H 0.15207 0.8165 0.1849 0.0
H1195 H 0.13653 0.80581 0.21555 0.0
H1196 H 0.09329 0.76227 0.20373 0.0
C1197 C 0.06991 0.7484 0.27379 0.0
C1198 C 0.11044 0.77259 0.25824 0.0
C1199 C 0.06068 0.73936 0.28965 0.0
C1200 C 0.14384 0.80443 0.18535 0.0
C1201 C 0.13495 0.79831 0.20284 0.0
C1202 C 0.09828 0.76527 0.21885 0.0
C1203 C 0.08542 0.75264 0.273 0.0
C1204 C 0.09503 0.76137 0.25544 0.0
C1205 C 0.1238 0.78275 0.20358 0.0
C1206 C 0.11381 0.77609 0.22158 0.0
H1207 H 0.08733 0.73521 0.31624 0.0
H1208 H 0.10332 0.75067 0.28841 0.0
H1209 H 0.07728 0.74932 0.23276 0.0
H1210 H 0.12924 0.77193 0.15674 0.0
H1211 H 0.11397 0.76129 0.18706 0.0
C1212 C 0.28755 0.35483 0.28686 0.0
C1213 C 0.28509 0.34097 0.29491 0.0
C1214 C 0.27807 0.35498 0.27147 0.0
C1215 C 0.2397 0.33217 0.24937 0.0
H1216 H 0.2572 0.35838 0.20261 0.0
C1217 C 0.20505 0.3272 0.17656 0.0
C1218 C 0.20925 0.34045 0.16529 0.0
C1219 C 0.2134 0.32774 0.19386 0.0
C1220 C 0.25207 0.3512 0.21573 0.0
H1221 H 0.27086 0.3164 0.29308 0.0
H1222 H 0.25426 0.31667 0.26615 0.0
H1223 H 0.27387 0.35824 0.22927 0.0
H1224 H 0.22476 0.36478 0.16397 0.0
H1225 H 0.23906 0.36586 0.19454 0.0
H1226 H 0.21788 0.32517 0.23591 0.0
C1227 C 0.26348 0.32741 0.27185 0.0
C1228 C 0.26166 0.35107 0.23097 0.0
C1229 C 0.27305 0.32725 0.28712 0.0
C1230 C 0.22137 0.35439 0.17233 0.0
C1231 C 0.22963 0.35496 0.18972 0.0
C1232 C 0.23008 0.33238 0.23419 0.0
C1233 C 0.26585 0.34128 0.26393 0.0
C1234 C 0.25559 0.3415 0.24789 0.0
C1235 C 0.22607 0.34156 0.20033 0.0
C1236 C 0.23615 0.34185 0.21712 0.0
H1237 H 0.29671 0.36558 0.29261 0.0
H1238 H 0.28011 0.36585 0.26577 0.0
H1239 H 0.23469 0.32482 0.2624 0.0
H1240 H 0.19587 0.31627 0.17132 0.0
H1241 H 0.2104 0.31717 0.20151 0.0
C1242 C 0.26503 0.32627 0.39144 0.0
C1243 C 0.28013 0.33843 0.39146 0.0
C1244 C 0.25471 0.32559 0.406 0.0
C1245 C 0.24749 0.34909 0.44218 0.0
H1246 H 0.22201 0.3106 0.46914 0.0
C1247 C 0.2156 0.34369 0.5171 0.0
C1248 C 0.20185 0.33015 0.52087 0.0
C1249 C 0.22376 0.34535 0.49928 0.0
C1250 C 0.22879 0.32138 0.4615 0.0
H1251 H 0.29628 0.35947 0.40665 0.0
H1252 H 0.27823 0.35826 0.43222 0.0
H1253 H 0.23928 0.31214 0.44249 0.0
H1254 H 0.18537 0.30815 0.50818 0.0
H1255 H 0.19932 0.31126 0.47676 0.0
H1256 H 0.23705 0.35836 0.46131 0.0
C1257 C 0.27435 0.34931 0.42082 0.0
C1258 C 0.23876 0.32226 0.44627 0.0
C1259 C 0.28471 0.34995 0.4063 0.0
C1260 C 0.19589 0.31876 0.50574 0.0
C1261 C 0.20401 0.32045 0.48785 0.0
C1262 C 0.23744 0.34819 0.45736 0.0
C1263 C 0.25925 0.3371 0.42085 0.0
C1264 C 0.24832 0.33615 0.43657 0.0
C1265 C 0.2183 0.33354 0.48473 0.0
C1266 C 0.22806 0.33435 0.46736 0.0
H1267 H 0.26114 0.31726 0.38014 0.0
H1268 H 0.24312 0.31612 0.4055 0.0
H1269 H 0.25456 0.3599 0.43476 0.0
H1270 H 0.2204 0.35277 0.52836 0.0
H1271 H 0.23473 0.35557 0.49748 0.0
C1272 C 0.68924 0.94775 0.39054 0.0
C1273 C 0.67685 0.9503 0.38957 0.0
C1274 C 0.68982 0.93825 0.40541 0.0
C1275 C 0.66593 0.9075 0.44123 0.0
H1276 H 0.70412 0.92124 0.47007 0.0
C1277 C 0.67054 0.88252 0.51797 0.0
C1278 C 0.68384 0.88199 0.52235 0.0
C1279 C 0.66915 0.88886 0.49981 0.0
C1280 C 0.69344 0.91706 0.46192 0.0
H1281 H 0.65532 0.94482 0.40331 0.0
H1282 H 0.6564 0.92829 0.42946 0.0
H1283 H 0.70282 0.93655 0.44256 0.0
H1284 H 0.70578 0.88693 0.51057 0.0
H1285 H 0.7032 0.89765 0.47859 0.0
H1286 H 0.6565 0.8881 0.46082 0.0
C1287 C 0.66558 0.93352 0.41857 0.0
C1288 C 0.69268 0.92588 0.44618 0.0
C1289 C 0.66501 0.94308 0.4037 0.0
C1290 C 0.69535 0.88709 0.50761 0.0
C1291 C 0.69395 0.89342 0.48941 0.0
C1292 C 0.66669 0.89865 0.45696 0.0
C1293 C 0.67802 0.93105 0.41963 0.0
C1294 C 0.67889 0.92129 0.43578 0.0
C1295 C 0.68103 0.89478 0.48556 0.0
C1296 C 0.68042 0.90341 0.46765 0.0
H1297 H 0.6985 0.9531 0.37979 0.0
H1298 H 0.69948 0.93644 0.40567 0.0
H1299 H 0.65519 0.90354 0.43329 0.0
H1300 H 0.6614 0.87852 0.52896 0.0
H1301 H 0.65908 0.88979 0.49743 0.0
C1302 C 0.06468 0.74164 0.4126 0.0
C1303 C 0.06645 0.73017 0.40321 0.0
C1304 C 0.07511 0.75119 0.42735 0.0
C1305 C 0.10492 0.75449 0.46312 0.0
H1306 H 0.11705 0.79733 0.46294 0.0
C1307 C 0.14894 0.79662 0.52085 0.0
C1308 C 0.14416 0.80559 0.5313 0.0
C1309 C 0.14134 0.78872 0.50311 0.0
C1310 C 0.11376 0.78539 0.4632 0.0
H1311 H 0.08039 0.71954 0.40211 0.0
H1312 H 0.0987 0.73629 0.42777 0.0
H1313 H 0.09952 0.78034 0.43682 0.0
H1314 H 0.12848 0.8142 0.53068 0.0
H1315 H 0.11526 0.80048 0.49974 0.0
H1316 H 0.11904 0.75952 0.48965 0.0
C1317 C 0.08916 0.73782 0.4239 0.0
C1318 C 0.10365 0.77564 0.4483 0.0
C1319 C 0.07869 0.72823 0.40917 0.0
C1320 C 0.13234 0.80731 0.52295 0.0
C1321 C 0.12482 0.7995 0.50518 0.0
C1322 C 0.11507 0.76426 0.47798 0.0
C1323 C 0.08759 0.74953 0.433 0.0
C1324 C 0.09893 0.76002 0.44826 0.0
C1325 C 0.12892 0.78975 0.49542 0.0
C1326 C 0.11944 0.77978 0.47836 0.0
H1327 H 0.05534 0.74338 0.40835 0.0
H1328 H 0.07339 0.75988 0.43434 0.0
H1329 H 0.10141 0.74251 0.46368 0.0
H1330 H 0.15795 0.79501 0.52703 0.0
H1331 H 0.14489 0.78144 0.49576 0.0
C1332 C 0.34237 0.06254 0.74647 0.0
C1333 C 0.33766 0.06406 0.72691 0.0
C1334 C 0.34311 0.07209 0.76235 0.0
C1335 C 0.3299 0.09819 0.77945 0.0
H1336 H 0.36658 0.11538 0.8127 0.0
C1337 C 0.34359 0.14326 0.84379 0.0
C1338 C 0.34903 0.14042 0.86203 0.0
C1339 C 0.3421 0.13472 0.82617 0.0
C1340 C 0.35621 0.11061 0.80365 0.0
H1341 H 0.32945 0.07636 0.70881 0.0
H1342 H 0.33072 0.09303 0.73662 0.0
H1343 H 0.3634 0.09825 0.7847 0.0
H1344 H 0.35771 0.12686 0.87588 0.0
H1345 H 0.35482 0.11192 0.84562 0.0
H1346 H 0.32266 0.11046 0.79872 0.0
C1347 C 0.33382 0.08445 0.73967 0.0
C1348 C 0.35439 0.10076 0.78763 0.0
C1349 C 0.33314 0.07493 0.72374 0.0
C1350 C 0.35318 0.12913 0.8622 0.0
C1351 C 0.35174 0.12069 0.84473 0.0
C1352 C 0.33171 0.10804 0.7956 0.0
C1353 C 0.33912 0.08334 0.75903 0.0
C1354 C 0.34112 0.09424 0.77555 0.0
C1355 C 0.34621 0.12336 0.82649 0.0
C1356 C 0.34478 0.11414 0.8081 0.0
H1357 H 0.34588 0.05424 0.7494 0.0
H1358 H 0.34699 0.07079 0.77721 0.0
H1359 H 0.31954 0.09333 0.77039 0.0
H1360 H 0.34035 0.15192 0.84322 0.0
H1361 H 0.3379 0.1371 0.81228 0.0
C1362 C 0.94867 0.29001 0.75052 0.0
C1363 C 0.95529 0.28463 0.73646 0.0
C1364 C 0.93917 0.28051 0.76583 0.0
C1365 C 0.91562 0.23967 0.77966 0.0
H1366 H 0.91607 0.25654 0.8329 0.0
C1367 C 0.88608 0.20404 0.85197 0.0
C1368 C 0.87916 0.20981 0.86499 0.0
C1369 C 0.89402 0.21222 0.83474 0.0
C1370 C 0.91568 0.25169 0.81803 0.0
H1371 H 0.95746 0.26521 0.72766 0.0
H1372 H 0.94126 0.24873 0.75479 0.0
H1373 H 0.93353 0.2729 0.80687 0.0
H1374 H 0.874 0.22794 0.86916 0.0
H1375 H 0.88788 0.2422 0.83919 0.0
H1376 H 0.89795 0.21833 0.79122 0.0
C1377 C 0.94308 0.26017 0.75371 0.0
C1378 C 0.92569 0.26108 0.80307 0.0
C1379 C 0.9525 0.26966 0.73828 0.0
C1380 C 0.87943 0.22334 0.85962 0.0
C1381 C 0.88741 0.23153 0.84251 0.0
C1382 C 0.90568 0.23023 0.79474 0.0
C1383 C 0.93617 0.26543 0.76757 0.0
C1384 C 0.92574 0.25524 0.78364 0.0
C1385 C 0.89522 0.22632 0.83028 0.0
C1386 C 0.90554 0.23618 0.81403 0.0
H1387 H 0.95051 0.30146 0.7494 0.0
H1388 H 0.93388 0.2849 0.77598 0.0
H1389 H 0.91518 0.23481 0.76479 0.0
H1390 H 0.8862 0.19373 0.85578 0.0
H1391 H 0.89995 0.20795 0.8256 0.0
C1392 C 0.73536 0.68345 0.73757 0.0
C1393 C 0.72841 0.6712 0.72375 0.0
C1394 C 0.74495 0.68353 0.75303 0.0
C1395 C 0.768 0.66594 0.7678 0.0
H1396 H 0.76436 0.6785 0.82232 0.0
C1397 C 0.7914 0.65167 0.83977 0.0
C1398 C 0.79691 0.66229 0.85588 0.0
C1399 C 0.78507 0.65432 0.82238 0.0
C1400 C 0.76573 0.6752 0.80711 0.0
H1401 H 0.72599 0.64941 0.71529 0.0
H1402 H 0.7425 0.64944 0.74236 0.0
H1403 H 0.74904 0.68 0.79476 0.0
H1404 H 0.80111 0.68447 0.8658 0.0
H1405 H 0.79021 0.68917 0.83536 0.0
H1406 H 0.7845 0.66089 0.78029 0.0
C1407 C 0.74077 0.6591 0.74112 0.0
C1408 C 0.75692 0.67605 0.79131 0.0
C1409 C 0.7312 0.65903 0.7257 0.0
C1410 C 0.79676 0.67599 0.85373 0.0
C1411 C 0.79046 0.67864 0.83635 0.0
C1412 C 0.77681 0.66509 0.78362 0.0
C1413 C 0.7478 0.67136 0.75495 0.0
C1414 C 0.75781 0.67126 0.7715 0.0
C1415 C 0.78415 0.66765 0.82072 0.0
C1416 C 0.77567 0.66957 0.80352 0.0
H1417 H 0.73348 0.69302 0.73638 0.0
H1418 H 0.75029 0.69321 0.76332 0.0
H1419 H 0.76915 0.66241 0.75264 0.0
H1420 H 0.79119 0.64093 0.84107 0.0
H1421 H 0.7802 0.64556 0.81071 0.0
C1422 C 0.74038 0.68394 0.61942 0.0
C1423 C 0.7279 0.67045 0.62662 0.0
C1424 C 0.74995 0.68343 0.60458 0.0
C1425 C 0.75185 0.65794 0.56531 0.0
H1426 H 0.79507 0.68758 0.56712 0.0
C1427 C 0.79388 0.65572 0.50862 0.0
C1428 C 0.80276 0.66942 0.49815 0.0
C1429 C 0.78596 0.65546 0.52614 0.0
C1430 C 0.78302 0.67923 0.56645 0.0
H1431 H 0.71567 0.64584 0.62403 0.0
H1432 H 0.73257 0.64487 0.59856 0.0
H1433 H 0.77845 0.68774 0.59376 0.0
H1434 H 0.81108 0.69368 0.49835 0.0
H1435 H 0.79745 0.69329 0.52918 0.0
H1436 H 0.75652 0.64941 0.53806 0.0
C1437 C 0.73481 0.6559 0.60396 0.0
C1438 C 0.77346 0.67937 0.58162 0.0
C1439 C 0.72514 0.65643 0.61863 0.0
C1440 C 0.8043 0.68298 0.50617 0.0
C1441 C 0.79655 0.68275 0.52382 0.0
C1442 C 0.76145 0.6577 0.5503 0.0
C1443 C 0.74738 0.66939 0.59676 0.0
C1444 C 0.7577 0.66885 0.5811 0.0
C1445 C 0.78694 0.66893 0.53363 0.0
C1446 C 0.7771 0.66844 0.55059 0.0
H1447 H 0.74275 0.69493 0.62526 0.0
H1448 H 0.7593 0.69408 0.59914 0.0
H1449 H 0.73977 0.64982 0.56417 0.0
H1450 H 0.7924 0.6451 0.50265 0.0
H1451 H 0.77873 0.64467 0.53353 0.0
C1452 C 0.35866 0.07951 0.62036 0.0
C1453 C 0.34484 0.06693 0.62657 0.0
C1454 C 0.35884 0.08903 0.60486 0.0
C1455 C 0.33638 0.08995 0.56119 0.0
H1456 H 0.36072 0.13383 0.56747 0.0
C1457 C 0.33202 0.12924 0.5026 0.0
C1458 C 0.34583 0.14153 0.49586 0.0
C1459 C 0.33163 0.1212 0.52002 0.0
C1460 C 0.35396 0.1216 0.56542 0.0
H1461 H 0.32041 0.05436 0.6213 0.0
H1462 H 0.32074 0.07091 0.59425 0.0
H1463 H 0.36098 0.11731 0.5943 0.0
H1464 H 0.36993 0.15555 0.50258 0.0
H1465 H 0.36932 0.14144 0.53296 0.0
H1466 H 0.32951 0.09411 0.53226 0.0
C1467 C 0.33145 0.07339 0.60125 0.0
C1468 C 0.35412 0.11214 0.58077 0.0
C1469 C 0.33125 0.06393 0.61679 0.0
C1470 C 0.3591 0.1462 0.50756 0.0
C1471 C 0.35873 0.13809 0.52494 0.0
C1472 C 0.33625 0.09937 0.54584 0.0
C1473 C 0.34522 0.0861 0.59519 0.0
C1474 C 0.3453 0.09621 0.57882 0.0
C1475 C 0.34507 0.1252 0.53101 0.0
C1476 C 0.34499 0.11532 0.54777 0.0
H1477 H 0.3693 0.08211 0.62766 0.0
H1478 H 0.36965 0.09864 0.60035 0.0
H1479 H 0.32965 0.07772 0.55908 0.0
H1480 H 0.3216 0.1255 0.49395 0.0
H1481 H 0.32084 0.11158 0.52456 0.0
C1482 C 0.95662 0.28601 0.61747 0.0
C1483 C 0.94993 0.28672 0.6358 0.0
C1484 C 0.94771 0.27608 0.6019 0.0
C1485 C 0.90835 0.25314 0.58223 0.0
H1486 H 0.92523 0.23112 0.55465 0.0
C1487 C 0.87619 0.20774 0.51834 0.0
C1488 C 0.88505 0.20977 0.50098 0.0
C1489 C 0.88302 0.21607 0.53621 0.0
C1490 C 0.92037 0.23721 0.56217 0.0
H1491 H 0.92859 0.27794 0.65199 0.0
H1492 H 0.91298 0.26051 0.62473 0.0
H1493 H 0.93926 0.24824 0.58276 0.0
H1494 H 0.90799 0.22159 0.4889 0.0
H1495 H 0.91978 0.23607 0.51978 0.0
H1496 H 0.88951 0.24213 0.56132 0.0
C1497 C 0.92511 0.26769 0.62239 0.0
C1498 C 0.92844 0.24706 0.57822 0.0
C1499 C 0.93406 0.27764 0.638 0.0
C1500 C 0.90083 0.21996 0.50194 0.0
C1501 C 0.90762 0.22813 0.51972 0.0
C1502 C 0.90024 0.24322 0.56611 0.0
C1503 C 0.93189 0.26661 0.60431 0.0
C1504 C 0.92269 0.2554 0.58815 0.0
C1505 C 0.89882 0.22633 0.53704 0.0
C1506 C 0.90635 0.23541 0.55565 0.0
H1507 H 0.96881 0.29291 0.61529 0.0
H1508 H 0.95324 0.27575 0.58799 0.0
H1509 H 0.90364 0.25942 0.58956 0.0
H1510 H 0.86401 0.19992 0.51797 0.0
H1511 H 0.87599 0.21441 0.5494 0.0
C1512 C 0.35746 0.2866 0.62101 0.0
C1513 C 0.34339 0.28426 0.62802 0.0
C1514 C 0.35803 0.27701 0.60615 0.0
C1515 C 0.33435 0.2391 0.58137 0.0
H1516 H 0.36571 0.25625 0.54014 0.0
C1517 C 0.33255 0.20929 0.50523 0.0
C1518 C 0.3463 0.21098 0.4979 0.0
C1519 C 0.33234 0.21668 0.52311 0.0
C1520 C 0.35702 0.25125 0.55173 0.0
H1521 H 0.31888 0.27021 0.62479 0.0
H1522 H 0.31984 0.25377 0.59835 0.0
H1523 H 0.36492 0.27272 0.56654 0.0
H1524 H 0.37049 0.22114 0.50397 0.0
H1525 H 0.37014 0.2341 0.53529 0.0
H1526 H 0.32618 0.2177 0.56595 0.0
C1527 C 0.33046 0.26275 0.60468 0.0
C1528 C 0.35656 0.26069 0.5669 0.0
C1529 C 0.32989 0.27226 0.6197 0.0
C1530 C 0.35971 0.21954 0.50936 0.0
C1531 C 0.35954 0.22708 0.52715 0.0
C1532 C 0.33473 0.22968 0.56605 0.0
C1533 C 0.34454 0.26494 0.59779 0.0
C1534 C 0.34518 0.25477 0.58188 0.0
C1535 C 0.34592 0.22604 0.5339 0.0
C1536 C 0.34604 0.23568 0.55103 0.0
H1537 H 0.36805 0.29568 0.62727 0.0
H1538 H 0.36908 0.27892 0.6015 0.0
H1539 H 0.3256 0.23407 0.59286 0.0
H1540 H 0.32205 0.20273 0.49666 0.0
H1541 H 0.32169 0.21573 0.52789 0.0
C1542 C 0.7261 0.07578 0.6192 0.0
C1543 C 0.7319 0.06941 0.63306 0.0
C1544 C 0.7355 0.08588 0.60423 0.0
C1545 C 0.77631 0.11095 0.59097 0.0
H1546 H 0.76039 0.10758 0.53624 0.0
C1547 C 0.814 0.13513 0.5196 0.0
C1548 C 0.80885 0.14072 0.50372 0.0
C1549 C 0.80512 0.12882 0.53696 0.0
C1550 C 0.76496 0.10887 0.55153 0.0
H1551 H 0.75203 0.06849 0.64202 0.0
H1552 H 0.76828 0.08576 0.61572 0.0
H1553 H 0.7436 0.09141 0.563 0.0
H1554 H 0.79095 0.14521 0.49438 0.0
H1555 H 0.77545 0.13419 0.52469 0.0
H1556 H 0.7978 0.12814 0.57926 0.0
C1557 C 0.7566 0.08327 0.61661 0.0
C1558 C 0.75532 0.09957 0.56689 0.0
C1559 C 0.74723 0.07325 0.63159 0.0
C1560 C 0.79511 0.14078 0.50622 0.0
C1561 C 0.78621 0.13443 0.52353 0.0
C1562 C 0.78597 0.12021 0.57558 0.0
C1563 C 0.75089 0.08978 0.60279 0.0
C1564 C 0.76092 0.10035 0.58675 0.0
C1565 C 0.79089 0.12794 0.53879 0.0
C1566 C 0.78044 0.11915 0.55563 0.0
H1567 H 0.71435 0.07309 0.62005 0.0
H1568 H 0.73076 0.09079 0.59398 0.0
H1569 H 0.78094 0.11208 0.60619 0.0
H1570 H 0.82442 0.13474 0.51807 0.0
H1571 H 0.809 0.12383 0.54837 0.0
C1572 C 0.938 0.6615 0.6208 0.0
C1573 C 0.94939 0.67523 0.62946 0.0
C1574 C 0.92819 0.66157 0.6058 0.0
C1575 C 0.92553 0.68558 0.56646 0.0
H1576 H 0.88196 0.65772 0.5694 0.0
C1577 C 0.88551 0.68742 0.50607 0.0
C1578 C 0.87398 0.67332 0.49856 0.0
C1579 C 0.89347 0.68819 0.52388 0.0
C1580 C 0.89411 0.66548 0.56823 0.0
H1581 H 0.95955 0.6998 0.62912 0.0
H1582 H 0.94258 0.69992 0.60269 0.0
H1583 H 0.89869 0.6577 0.59628 0.0
H1584 H 0.86127 0.64905 0.5041 0.0
H1585 H 0.87535 0.65028 0.53494 0.0
H1586 H 0.92119 0.69305 0.53818 0.0
C1587 C 0.94121 0.68912 0.60754 0.0
C1588 C 0.90367 0.66547 0.58365 0.0
C1589 C 0.95089 0.68904 0.62269 0.0
C1590 C 0.87 0.66009 0.50973 0.0
C1591 C 0.8781 0.66082 0.52741 0.0
C1592 C 0.91602 0.68549 0.55095 0.0
C1593 C 0.92972 0.67538 0.59901 0.0
C1594 C 0.91949 0.6755 0.58288 0.0
C1595 C 0.89023 0.67484 0.53439 0.0
C1596 C 0.90017 0.67542 0.55158 0.0
H1597 H 0.93654 0.65068 0.62577 0.0
H1598 H 0.91953 0.65082 0.59934 0.0
H1599 H 0.9377 0.6933 0.56533 0.0
H1600 H 0.88871 0.6978 0.49777 0.0
H1601 H 0.90246 0.69923 0.52907 0.0
C1602 C 0.93204 0.66005 0.7242 0.0
C1603 C 0.94658 0.67304 0.72289 0.0
C1604 C 0.92169 0.65922 0.7388 0.0
C1605 C 0.91305 0.68269 0.77353 0.0
H1606 H 0.8897 0.64454 0.8022 0.0
C1607 C 0.88103 0.67649 0.84883 0.0
C1608 C 0.86743 0.66274 0.85239 0.0
C1609 C 0.88939 0.67842 0.83112 0.0
C1610 C 0.8959 0.6552 0.7941 0.0
H1611 H 0.96168 0.6954 0.73576 0.0
H1612 H 0.94365 0.69386 0.76156 0.0
H1613 H 0.90719 0.64656 0.77561 0.0
H1614 H 0.85149 0.64061 0.83956 0.0
H1615 H 0.86588 0.64412 0.80842 0.0
H1616 H 0.90189 0.69137 0.79239 0.0
C1617 C 0.94018 0.6844 0.75109 0.0
C1618 C 0.90598 0.65637 0.77887 0.0
C1619 C 0.95055 0.68524 0.73642 0.0
C1620 C 0.86186 0.65137 0.83724 0.0
C1621 C 0.87022 0.6533 0.81952 0.0
C1622 C 0.90295 0.68152 0.78882 0.0
C1623 C 0.92564 0.67133 0.75249 0.0
C1624 C 0.91473 0.67014 0.76844 0.0
C1625 C 0.88432 0.66665 0.81657 0.0
C1626 C 0.89431 0.66777 0.79935 0.0
H1627 H 0.9286 0.6505 0.71388 0.0
H1628 H 0.91052 0.64909 0.73924 0.0
H1629 H 0.91946 0.69339 0.7656 0.0
H1630 H 0.88553 0.68552 0.86015 0.0
H1631 H 0.90021 0.68883 0.82937 0.0
C1632 C 0.3543 0.27959 0.72567 0.0
C1633 C 0.34291 0.28359 0.72502 0.0
C1634 C 0.35435 0.27007 0.74093 0.0
C1635 C 0.32982 0.24148 0.77879 0.0
H1636 H 0.3684 0.25199 0.80447 0.0
C1637 C 0.3352 0.21512 0.85429 0.0
C1638 C 0.34798 0.21334 0.85711 0.0
C1639 C 0.33354 0.22174 0.83654 0.0
C1640 C 0.35756 0.2487 0.79722 0.0
H1641 H 0.32257 0.28071 0.73979 0.0
H1642 H 0.32272 0.26414 0.76668 0.0
H1643 H 0.36771 0.26786 0.77733 0.0
H1644 H 0.36852 0.21625 0.84287 0.0
H1645 H 0.36538 0.22734 0.81168 0.0
H1646 H 0.31967 0.22237 0.79892 0.0
C1647 C 0.33154 0.26826 0.75523 0.0
C1648 C 0.35716 0.25786 0.78169 0.0
C1649 C 0.33151 0.27784 0.73994 0.0
C1650 C 0.3585 0.21736 0.84117 0.0
C1651 C 0.35681 0.22394 0.82341 0.0
C1652 C 0.33023 0.23228 0.79435 0.0
C1653 C 0.34299 0.2643 0.75591 0.0
C1654 C 0.34329 0.25439 0.77232 0.0
C1655 C 0.34461 0.2267 0.82118 0.0
C1656 C 0.34411 0.23582 0.8038 0.0
H1657 H 0.36319 0.28377 0.71431 0.0
H1658 H 0.36321 0.26708 0.74085 0.0
H1659 H 0.31898 0.23839 0.77169 0.0
H1660 H 0.32681 0.21197 0.86619 0.0
H1661 H 0.32402 0.22371 0.83538 0.0
C1662 C 0.73142 0.07838 0.73938 0.0
C1663 C 0.73271 0.0664 0.73072 0.0
C1664 C 0.74178 0.0878 0.7543 0.0
C1665 C 0.77034 0.08981 0.79156 0.0
H1666 H 0.78372 0.13295 0.79169 0.0
C1667 C 0.81471 0.13093 0.8497 0.0
C1668 C 0.81013 0.13995 0.8604 0.0
C1669 C 0.80706 0.12327 0.83186 0.0
C1670 C 0.78008 0.12093 0.79184 0.0
H1671 H 0.74579 0.05484 0.73094 0.0
H1672 H 0.76401 0.07141 0.75672 0.0
H1673 H 0.76637 0.11647 0.76502 0.0
H1674 H 0.79472 0.14889 0.8602 0.0
H1675 H 0.78144 0.13565 0.82899 0.0
H1676 H 0.78401 0.09428 0.81843 0.0
C1677 C 0.75487 0.0734 0.75227 0.0
C1678 C 0.77006 0.11146 0.77664 0.0
C1679 C 0.74445 0.06392 0.73744 0.0
C1680 C 0.79844 0.14197 0.85225 0.0
C1681 C 0.79088 0.13443 0.83434 0.0
C1682 C 0.78042 0.0993 0.80666 0.0
C1683 C 0.75373 0.08553 0.76081 0.0
C1684 C 0.76491 0.09574 0.77646 0.0
C1685 C 0.79479 0.12463 0.82431 0.0
C1686 C 0.78526 0.11493 0.80712 0.0
H1687 H 0.72246 0.08054 0.73453 0.0
H1688 H 0.74036 0.09683 0.76081 0.0
H1689 H 0.76646 0.07775 0.79209 0.0
H1690 H 0.82361 0.12908 0.85573 0.0
H1691 H 0.81043 0.11592 0.82431 0.0
C1692 C 0.0597 0.3748 0.0149 0.0
C1693 C 0.04572 0.36776 0.02523 0.0
C1694 C 0.07105 0.37131 0.01987 0.0
C1695 C 0.07646 0.34131 0.042 0.0
H1696 H 0.11667 0.37336 0.05866 0.0
C1697 C 0.11396 0.33033 0.09587 0.0
C1698 C 0.12989 0.33894 0.09467 0.0
C1699 C 0.10485 0.33321 0.08284 0.0
C1700 C 0.10564 0.36428 0.05358 0.0
H1701 H 0.03258 0.35148 0.04866 0.0
H1702 H 0.05223 0.34518 0.05702 0.0
H1703 H 0.09838 0.37998 0.04457 0.0
H1704 H 0.1489 0.35688 0.07845 0.0
H1705 H 0.13285 0.36197 0.05524 0.0
H1706 H 0.08349 0.32558 0.05115 0.0
C1707 C 0.05445 0.35343 0.04516 0.0
C1708 C 0.09515 0.36809 0.04561 0.0
C1709 C 0.04325 0.35712 0.04048 0.0
C1710 C 0.13661 0.35006 0.07954 0.0
C1711 C 0.12743 0.35303 0.06644 0.0
C1712 C 0.08696 0.33751 0.04971 0.0
C1713 C 0.06846 0.36049 0.03493 0.0
C1714 C 0.0803 0.35662 0.04042 0.0
C1715 C 0.11143 0.34481 0.06822 0.0
C1716 C 0.10148 0.34892 0.05633 0.0
H1717 H 0.0619 0.38307 0.00309 0.0
H1718 H 0.08176 0.37691 0.01178 0.0
H1719 H 0.06516 0.33226 0.03776 0.0
H1720 H 0.10855 0.3217 0.10748 0.0
H1721 H 0.09263 0.32681 0.08496 0.0
C1722 C 0.63597 0.6866 0.03379 0.0
C1723 C 0.64825 0.68405 0.03131 0.0
C1724 C 0.63859 0.70122 0.03832 0.0
C1725 C 0.66915 0.73881 0.05819 0.0
H1726 H 0.64074 0.75199 0.04225 0.0
C1727 C 0.68054 0.79839 0.07904 0.0
C1728 C 0.66899 0.79788 0.09132 0.0
C1729 C 0.67782 0.78569 0.06742 0.0
C1730 C 0.64879 0.74845 0.04668 0.0
H1731 H 0.67286 0.69483 0.03063 0.0
H1732 H 0.67747 0.72035 0.03746 0.0
H1733 H 0.63665 0.72734 0.03037 0.0
H1734 H 0.64529 0.7843 0.09983 0.0
H1735 H 0.64041 0.7622 0.07906 0.0
H1736 H 0.68134 0.76 0.07429 0.0
C1737 C 0.66579 0.71108 0.03684 0.0
C1738 C 0.64641 0.73427 0.04006 0.0
C1739 C 0.66317 0.69644 0.03277 0.0
C1740 C 0.65434 0.78497 0.0904 0.0
C1741 C 0.65156 0.77235 0.07853 0.0
C1742 C 0.67167 0.75305 0.06445 0.0
C1743 C 0.65355 0.71367 0.04005 0.0
C1744 C 0.65645 0.72915 0.04596 0.0
C1745 C 0.66346 0.77236 0.06765 0.0
C1746 C 0.66144 0.75795 0.05898 0.0
H1747 H 0.62435 0.67723 0.03277 0.0
H1748 H 0.62884 0.70263 0.04097 0.0
H1749 H 0.67697 0.73523 0.06355 0.0
H1750 H 0.69197 0.80815 0.07967 0.0
H1751 H 0.68716 0.786 0.05906 0.0
C1752 C 0.32242 0.95787 0.02375 0.0
C1753 C 0.32684 0.973 0.02873 0.0
C1754 C 0.30834 0.94589 0.0301 0.0
C1755 C 0.27836 0.93742 0.06859 0.0
H1756 H 0.25592 0.8996 0.03814 0.0
C1757 C 0.2215 0.88968 0.09778 0.0
C1758 C 0.22115 0.87577 0.10051 0.0
C1759 C 0.23255 0.90101 0.08551 0.0
C1760 C 0.26208 0.91012 0.04675 0.0
H1761 H 0.31974 0.98757 0.04337 0.0
H1762 H 0.29497 0.96684 0.05369 0.0
H1763 H 0.27891 0.92083 0.02357 0.0
H1764 H 0.23133 0.86238 0.09109 0.0
H1765 H 0.25049 0.88212 0.0693 0.0
H1766 H 0.26151 0.92676 0.09167 0.0
C1767 C 0.30253 0.96406 0.04557 0.0
C1768 C 0.2753 0.92226 0.0385 0.0
C1769 C 0.31671 0.97599 0.03953 0.0
C1770 C 0.23122 0.87293 0.08921 0.0
C1771 C 0.24224 0.88425 0.07678 0.0
C1772 C 0.26507 0.9254 0.07666 0.0
C1773 C 0.29826 0.94881 0.04132 0.0
C1774 C 0.28371 0.93605 0.04941 0.0
C1775 C 0.2434 0.89862 0.07553 0.0
C1776 C 0.25685 0.91159 0.06593 0.0
H1777 H 0.33005 0.95524 0.01547 0.0
H1778 H 0.3056 0.93433 0.02675 0.0
H1779 H 0.28465 0.94763 0.07775 0.0
H1780 H 0.21372 0.89211 0.10601 0.0
H1781 H 0.23302 0.91189 0.08452 0.0
C1782 C 0.35732 0.04511 0.98031 0.0
C1783 C 0.36125 0.04343 0.00027 0.0
C1784 C 0.35453 0.0569 0.97553 0.0
C1785 C 0.3619 0.09462 0.99378 0.0
H1786 H 0.33192 0.08795 0.95218 0.0
C1787 C 0.33604 0.12761 0.94185 0.0
C1788 C 0.34994 0.14049 0.93673 0.0
C1789 C 0.33575 0.11658 0.95484 0.0
C1790 C 0.34013 0.09004 0.96416 0.0
H1791 H 0.36516 0.05265 0.03096 0.0
H1792 H 0.36 0.07309 0.02271 0.0
H1793 H 0.33425 0.06666 0.96417 0.0
H1794 H 0.37427 0.15258 0.94227 0.0
H1795 H 0.3739 0.13329 0.96454 0.0
H1796 H 0.36767 0.11801 0.99387 0.0
C1797 C 0.35933 0.06547 0.01065 0.0
C1798 C 0.34166 0.07781 0.97077 0.0
C1799 C 0.36221 0.05371 0.01541 0.0
C1800 C 0.36338 0.14283 0.94622 0.0
C1801 C 0.36313 0.13171 0.95897 0.0
C1802 C 0.36029 0.10686 0.98728 0.0
C1803 C 0.35549 0.06724 0.99063 0.0
C1804 C 0.35283 0.08 0.98526 0.0
C1805 C 0.3494 0.11808 0.96263 0.0
C1806 C 0.34962 0.10481 0.972 0.0
H1807 H 0.35657 0.03741 0.96829 0.0
H1808 H 0.35192 0.05807 0.95986 0.0
H1809 H 0.37067 0.09677 0.00492 0.0
H1810 H 0.32553 0.12557 0.9347 0.0
H1811 H 0.3249 0.10646 0.9578 0.0
C1812 C 0.96017 0.32822 -0.00071 0.0
C1813 C 0.97549 0.33194 -0.00108 0.0
C1814 C 0.94853 0.31335 0.99492 0.0
C1815 C 0.9424 0.27737 0.97052 0.0
H1816 H 0.90176 0.26107 0.9925 0.0
C1817 C 0.89489 0.21715 0.9498 0.0
C1818 C 0.8829 0.21743 0.93944 0.0
C1819 C 0.90518 0.22967 0.96158 0.0
C1820 C 0.9131 0.26547 0.98639 0.0
H1821 H 0.99067 0.32297 0.99462 0.0
H1822 H 0.97047 0.29695 0.98807 0.0
H1823 H 0.92222 0.28591 0.00421 0.0
H1824 H 0.87152 0.23035 0.93434 0.0
H1825 H 0.88921 0.25205 0.95555 0.0
H1826 H 0.93325 0.2568 0.95295 0.0
C1827 C 0.96732 0.30553 0.99082 0.0
C1828 C 0.92482 0.27978 0.9929 0.0
C1829 C 0.97895 0.32045 0.99472 0.0
C1830 C 0.88059 0.22983 0.94242 0.0
C1831 C 0.89071 0.24223 0.9545 0.0
C1832 C 0.93079 0.26298 0.96438 0.0
C1833 C 0.95193 0.30177 0.9905 0.0
C1834 C 0.9396 0.28606 0.98479 0.0
C1835 C 0.90348 0.24254 0.96342 0.0
C1836 C 0.91598 0.25698 0.97201 0.0
H1837 H 0.9572 0.33689 0.00242 0.0
H1838 H 0.93691 0.31108 0.99449 0.0
H1839 H 0.95344 0.28183 0.96348 0.0
H1840 H 0.89703 0.20781 0.94745 0.0
H1841 H 0.91492 0.22964 0.96836 0.0
C1842 C 0.6947 0.65784 0.99456 0.0
C1843 C 0.68413 0.64538 0.00606 0.0
C1844 C 0.70874 0.65933 0.98941 0.0
C1845 C 0.72661 0.63666 0.97949 0.0
H1846 H 0.76427 0.67551 0.98163 0.0
C1847 C 0.78067 0.64289 0.94287 0.0
C1848 C 0.78861 0.65582 0.93055 0.0
C1849 C 0.76994 0.64204 0.95694 0.0
C1850 C 0.75385 0.66458 0.98083 0.0
H1851 H 0.68003 0.6248 0.02144 0.0
H1852 H 0.70451 0.62726 0.01205 0.0
H1853 H 0.74116 0.67314 0.99651 0.0
H1854 H 0.79256 0.67853 0.92475 0.0
H1855 H 0.77359 0.67688 0.94859 0.0
H1856 H 0.73891 0.62823 0.96286 0.0
C1857 C 0.70193 0.6359 0.00714 0.0
C1858 C 0.74064 0.66323 0.98941 0.0
C1859 C 0.68795 0.63452 0.01254 0.0
C1860 C 0.78645 0.66831 0.93376 0.0
C1861 C 0.77564 0.6674 0.94765 0.0
C1862 C 0.73976 0.63804 0.97068 0.0
C1863 C 0.71243 0.64829 0.99544 0.0
C1864 C 0.72682 0.64934 0.98847 0.0
C1865 C 0.76683 0.65404 0.9589 0.0
C1866 C 0.7535 0.65211 0.97084 0.0
H1867 H 0.69209 0.66641 0.9894 0.0
H1868 H 0.71652 0.6689 0.98017 0.0
H1869 H 0.71609 0.62584 0.97835 0.0
H1870 H 0.78201 0.63304 0.94078 0.0
H1871 H 0.76365 0.63171 0.96568 0.0
C1872 C 0.97323 0.66335 0.98775 0.0
C1873 C 0.97035 0.65014 0.99819 0.0
C1874 C 0.96126 0.66562 0.98194 0.0
C1875 C 0.91963 0.65116 0.98899 0.0
H1876 H 0.92384 0.66956 0.936 0.0
C1877 C 0.8701 0.64667 0.93855 0.0
C1878 C 0.87319 0.65948 0.92686 0.0
C1879 C 0.8814 0.64691 0.95116 0.0
C1880 C 0.92256 0.66463 0.95098 0.0
H1881 H 0.95272 0.62904 0.01114 0.0
H1882 H 0.93167 0.63264 0.00024 0.0
H1883 H 0.94461 0.66696 0.94974 0.0
H1884 H 0.8899 0.68305 0.92085 0.0
H1885 H 0.9096 0.68346 0.94281 0.0
H1886 H 0.89712 0.64824 0.98951 0.0
C1887 C 0.94321 0.64148 0.99697 0.0
C1888 C 0.93452 0.66315 0.95893 0.0
C1889 C 0.95526 0.63935 0.00311 0.0
C1890 C 0.88729 0.67294 0.92944 0.0
C1891 C 0.89857 0.67316 0.94195 0.0
C1892 C 0.90753 0.65247 0.98086 0.0
C1893 C 0.94604 0.65457 0.98605 0.0
C1894 C 0.93327 0.65641 0.97805 0.0
C1895 C 0.89597 0.65995 0.95223 0.0
C1896 C 0.9089 0.65924 0.96177 0.0
H1897 H 0.98478 0.67198 0.98402 0.0
H1898 H 0.96398 0.67603 0.97407 0.0
H1899 H 0.91829 0.64607 0.00386 0.0
H1900 H 0.8594 0.6361 0.93676 0.0
H1901 H 0.87909 0.63655 0.95886 0.0
C1902 C 0.37124 0.33052 0.98144 0.0
C1903 C 0.36845 0.33283 0.0017 0.0
C1904 C 0.37014 0.31678 0.97544 0.0
C1905 C 0.35221 0.27633 0.98809 0.0
H1906 H 0.38322 0.27754 0.95254 0.0
C1907 C 0.34346 0.22703 0.93491 0.0
C1908 C 0.35596 0.22502 0.93101 0.0
C1909 C 0.34503 0.23876 0.94776 0.0
C1910 C 0.37457 0.27696 0.96271 0.0
H1911 H 0.36213 0.32249 0.03154 0.0
H1912 H 0.36001 0.29831 0.02094 0.0
H1913 H 0.38616 0.3012 0.96629 0.0
H1914 H 0.37964 0.23311 0.93857 0.0
H1915 H 0.38235 0.25349 0.9612 0.0
H1916 H 0.34046 0.25206 0.98408 0.0
C1917 C 0.3631 0.30719 0.00976 0.0
C1918 C 0.37617 0.29054 0.97039 0.0
C1919 C 0.36437 0.32104 0.01582 0.0
C1920 C 0.36977 0.2343 0.94137 0.0
C1921 C 0.37137 0.24608 0.95415 0.0
C1922 C 0.35054 0.26271 0.98025 0.0
C1923 C 0.36608 0.30497 0.98952 0.0
C1924 C 0.3649 0.2904 0.98288 0.0
C1925 C 0.35918 0.24878 0.9569 0.0
C1926 C 0.36161 0.2629 0.96724 0.0
H1927 H 0.37438 0.33937 0.97019 0.0
H1928 H 0.37229 0.31533 0.95968 0.0
H1929 H 0.34331 0.27588 0.99763 0.0
H1930 H 0.33266 0.21999 0.9272 0.0
H1931 H 0.33543 0.24056 0.94947 0.0
C1932 C 0.69565 0.05633 0.01084 0.0
C1933 C 0.68743 0.04419 0.99714 0.0
C1934 C 0.70968 0.06881 0.00523 0.0
C1935 C 0.731 0.08902 0.95964 0.0
H1936 H 0.76673 0.10666 0.99478 0.0
C1937 C 0.7859 0.14035 0.93255 0.0
C1938 C 0.79876 0.13858 0.93368 0.0
C1939 C 0.77296 0.13109 0.944 0.0
C1940 C 0.75683 0.10188 0.98484 0.0
H1941 H 0.68761 0.03543 0.96702 0.0
H1942 H 0.71197 0.05714 0.95726 0.0
H1943 H 0.74271 0.08521 0.00689 0.0
H1944 H 0.80863 0.12662 0.94885 0.0
H1945 H 0.78596 0.11034 0.96887 0.0
H1946 H 0.74501 0.10525 0.93739 0.0
C1947 C 0.70755 0.05711 0.97225 0.0
C1948 C 0.74307 0.08967 0.99181 0.0
C1949 C 0.69363 0.04464 0.97789 0.0
C1950 C 0.79892 0.12831 0.94783 0.0
C1951 C 0.7859 0.11896 0.95925 0.0
C1952 C 0.74465 0.10123 0.95276 0.0
C1953 C 0.71566 0.06942 0.98575 0.0
C1954 C 0.73008 0.08296 0.97912 0.0
C1955 C 0.77254 0.11977 0.95673 0.0
C1956 C 0.75779 0.10773 0.96516 0.0
H1957 H 0.69116 0.05629 0.02579 0.0
H1958 H 0.71564 0.07815 0.01591 0.0
H1959 H 0.72115 0.08423 0.94959 0.0
H1960 H 0.78554 0.14827 0.92184 0.0
H1961 H 0.76297 0.13225 0.94207 0.0
C1962 C 0.64874 0.96088 0.01188 0.0
C1963 C 0.6519 0.9727 0.02577 0.0
C1964 C 0.65024 0.94844 0.01779 0.0
C1965 C 0.65004 0.92775 0.06384 0.0
H1966 H 0.66922 0.91075 0.03012 0.0
C1967 C 0.65387 0.87693 0.09244 0.0
C1968 C 0.66854 0.87879 0.09175 0.0
C1969 C 0.6502 0.88605 0.08059 0.0
C1970 C 0.6638 0.91535 0.03967 0.0
H1971 H 0.6595 0.98095 0.05654 0.0
H1972 H 0.66217 0.95937 0.06678 0.0
H1973 H 0.6668 0.93216 0.01755 0.0
H1974 H 0.6905 0.89079 0.07705 0.0
H1975 H 0.68418 0.90689 0.05643 0.0
H1976 H 0.64745 0.91145 0.08622 0.0
C1977 C 0.65834 0.95957 0.05142 0.0
C1978 C 0.66232 0.92754 0.03243 0.0
C1979 C 0.65689 0.97199 0.04551 0.0
C1980 C 0.67906 0.88903 0.0777 0.0
C1981 C 0.67543 0.89828 0.06593 0.0
C1982 C 0.65145 0.91559 0.07102 0.0
C1983 C 0.65484 0.94755 0.03773 0.0
C1984 C 0.65565 0.93403 0.04461 0.0
C1985 C 0.66119 0.89737 0.06797 0.0
C1986 C 0.65849 0.90932 0.05915 0.0
H1987 H 0.64488 0.96112 0.99655 0.0
H1988 H 0.64741 0.93932 0.00693 0.0
H1989 H 0.64465 0.93233 0.07348 0.0
H1990 H 0.64554 0.86904 0.1031 0.0
H1991 H 0.639 0.88479 0.08214 0.0
C1992 C 0.05872 0.69038 0.01984 0.0
C1993 C 0.04362 0.68715 0.02212 0.0
C1994 C 0.07092 0.70477 0.02507 0.0
C1995 C 0.07922 0.73787 0.05767 0.0
H1996 H 0.11845 0.75685 0.03085 0.0
C1997 C 0.12744 0.79352 0.08904 0.0
C1998 C 0.14082 0.79313 0.09324 0.0
C1999 C 0.11652 0.78298 0.07558 0.0
C2000 C 0.10754 0.75168 0.03845 0.0
H2001 H 0.02945 0.69665 0.03056 0.0
H2002 H 0.05063 0.72179 0.03908 0.0
H2003 H 0.09717 0.73341 0.01668 0.0
H2004 H 0.15393 0.78236 0.08539 0.0
H2005 H 0.13479 0.76384 0.06187 0.0
H2006 H 0.08953 0.75585 0.0796 0.0
C2007 C 0.05313 0.71314 0.03389 0.0
C2008 C 0.09537 0.73823 0.0304 0.0
C2009 C 0.04097 0.69874 0.0289 0.0
C2010 C 0.14376 0.78298 0.08225 0.0
C2011 C 0.13277 0.77235 0.06883 0.0
C2012 C 0.0913 0.7513 0.06559 0.0
C2013 C 0.06827 0.71626 0.0325 0.0
C2014 C 0.08108 0.73107 0.04005 0.0
C2015 C 0.1187 0.77175 0.06618 0.0
C2016 C 0.10565 0.75832 0.05622 0.0
H2017 H 0.06109 0.68165 0.01463 0.0
H2018 H 0.0824 0.70668 0.02399 0.0
H2019 H 0.06855 0.73255 0.06585 0.0
H2020 H 0.12497 0.80129 0.09728 0.0
H2021 H 0.10594 0.78303 0.07349 0.0
C2022 C 0.31615 0.35188 0.02552 0.0
C2023 C 0.32866 0.36676 0.02625 0.0
C2024 C 0.30145 0.34914 0.02948 0.0
C2025 C 0.2786 0.36861 0.03663 0.0
H2026 H 0.25284 0.33251 0.06813 0.0
C2027 C 0.22998 0.36091 0.0899 0.0
C2028 C 0.21691 0.3464 0.09101 0.0
C2029 C 0.24201 0.36345 0.07713 0.0
C2030 C 0.25977 0.3425 0.05902 0.0
H2031 H 0.33563 0.39048 0.03137 0.0
H2032 H 0.31016 0.3857 0.03917 0.0
H2033 H 0.27717 0.33672 0.05585 0.0
H2034 H 0.20574 0.32344 0.07876 0.0
H2035 H 0.22683 0.32785 0.05648 0.0
H2036 H 0.26137 0.37471 0.04102 0.0
C2037 C 0.31151 0.37613 0.03495 0.0
C2038 C 0.27376 0.34493 0.0519 0.0
C2039 C 0.32617 0.37888 0.03063 0.0
C2040 C 0.21562 0.33477 0.07805 0.0
C2041 C 0.22774 0.33725 0.06547 0.0
C2042 C 0.26467 0.36627 0.04404 0.0
C2043 C 0.29894 0.36119 0.03466 0.0
C2044 C 0.28349 0.35811 0.04081 0.0
C2045 C 0.24127 0.35146 0.06545 0.0
C2046 C 0.25519 0.35326 0.05549 0.0
H2047 H 0.31771 0.34233 0.02196 0.0
H2048 H 0.29207 0.33752 0.02862 0.0
H2049 H 0.2856 0.37874 0.02781 0.0
H2050 H 0.23125 0.37004 0.09981 0.0
H2051 H 0.25232 0.37449 0.07752 0.0
C2052 C 0.7095 0.68903 0.37328 0.0
C2053 C 0.71042 0.69747 0.35591 0.0
C2054 C 0.72128 0.68622 0.37818 0.0
C2055 C 0.76221 0.70142 0.37143 0.0
H2056 H 0.75297 0.66213 0.39275 0.0
C2057 C 0.79294 0.66754 0.40911 0.0
C2058 C 0.80171 0.67824 0.42426 0.0
C2059 C 0.78358 0.67022 0.3961 0.0
C2060 C 0.75581 0.6731 0.3865 0.0
H2061 H 0.72434 0.70951 0.32993 0.0
H2062 H 0.74504 0.70467 0.33861 0.0
H2063 H 0.73248 0.66554 0.37922 0.0
H2064 H 0.80862 0.70064 0.43651 0.0
H2065 H 0.79234 0.70535 0.41385 0.0
H2066 H 0.78552 0.70907 0.3792 0.0
C2067 C 0.73519 0.70026 0.34843 0.0
C2068 C 0.74403 0.6751 0.37898 0.0
C2069 C 0.72332 0.70297 0.34343 0.0
C2070 C 0.80191 0.69217 0.42503 0.0
C2071 C 0.79263 0.69489 0.41196 0.0
C2072 C 0.774 0.69945 0.37908 0.0
C2073 C 0.7343 0.69186 0.36589 0.0
C2074 C 0.74704 0.68936 0.37178 0.0
C2075 C 0.7829 0.68369 0.3979 0.0
C2076 C 0.77089 0.68534 0.38708 0.0
H2077 H 0.69971 0.68466 0.38321 0.0
H2078 H 0.72034 0.6799 0.39188 0.0
H2079 H 0.76489 0.71257 0.36605 0.0
H2080 H 0.79249 0.65666 0.40825 0.0
H2081 H 0.77636 0.66146 0.38523 0.0
C2082 C 0.33143 0.03166 0.35814 0.0
C2083 C 0.31641 0.01939 0.35868 0.0
C2084 C 0.33452 0.04652 0.36184 0.0
C2085 C 0.31589 0.07026 0.36781 0.0
H2086 H 0.35223 0.09594 0.39974 0.0
C2087 C 0.32467 0.1199 0.42038 0.0
C2088 C 0.33929 0.13284 0.42158 0.0
C2089 C 0.32188 0.10764 0.40775 0.0
C2090 C 0.34217 0.08903 0.3905 0.0
H2091 H 0.29282 0.01303 0.36322 0.0
H2092 H 0.29821 0.03881 0.37057 0.0
H2093 H 0.34745 0.07123 0.38792 0.0
H2094 H 0.36221 0.14352 0.40968 0.0
H2095 H 0.35738 0.12201 0.38764 0.0
H2096 H 0.31028 0.0879 0.37162 0.0
C2097 C 0.30762 0.03713 0.36669 0.0
C2098 C 0.33942 0.07482 0.38365 0.0
C2099 C 0.30451 0.02229 0.36263 0.0
C2100 C 0.3508 0.13375 0.40886 0.0
C2101 C 0.34808 0.12139 0.39643 0.0
C2102 C 0.31855 0.08441 0.37495 0.0
C2103 C 0.3227 0.04946 0.36656 0.0
C2104 C 0.32614 0.06512 0.37242 0.0
C2105 C 0.33374 0.10801 0.39631 0.0
C2106 C 0.33164 0.09386 0.38656 0.0
H2107 H 0.34082 0.02977 0.35491 0.0
H2108 H 0.34624 0.0557 0.36111 0.0
H2109 H 0.3057 0.06329 0.35886 0.0
H2110 H 0.31563 0.11892 0.43014 0.0
H2111 H 0.31075 0.09746 0.40807 0.0
C2112 C 0.98895 0.30459 0.37935 0.0
C2113 C 0.99391 0.30649 0.35909 0.0
C2114 C 0.97442 0.29289 0.38453 0.0
C2115 C 0.94309 0.25554 0.36691 0.0
H2116 H 0.92133 0.26271 0.40988 0.0
C2117 C 0.88558 0.22339 0.42109 0.0
C2118 C 0.88647 0.21042 0.42608 0.0
C2119 C 0.89612 0.23426 0.40781 0.0
C2120 C 0.92701 0.26049 0.39755 0.0
H2121 H 0.98749 0.29769 0.3283 0.0
H2122 H 0.96196 0.27731 0.33731 0.0
H2123 H 0.94475 0.28379 0.39701 0.0
H2124 H 0.8983 0.19806 0.4201 0.0
H2125 H 0.91693 0.21713 0.3973 0.0
H2126 H 0.92524 0.23219 0.36745 0.0
C2127 C 0.9694 0.28476 0.34924 0.0
C2128 C 0.94065 0.27259 0.39041 0.0
C2129 C 0.98399 0.29648 0.34406 0.0
C2130 C 0.89727 0.20788 0.41627 0.0
C2131 C 0.90796 0.21887 0.40321 0.0
C2132 C 0.92936 0.2434 0.37399 0.0
C2133 C 0.96444 0.28282 0.36956 0.0
C2134 C 0.94908 0.27021 0.3754 0.0
C2135 C 0.90797 0.23254 0.39959 0.0
C2136 C 0.92131 0.24565 0.38975 0.0
H2137 H 0.99635 0.31207 0.3913 0.0
H2138 H 0.97113 0.29158 0.40039 0.0
H2139 H 0.94931 0.25328 0.35536 0.0
H2140 H 0.87733 0.22557 0.4285 0.0
H2141 H 0.89549 0.24443 0.40493 0.0
C2142 C 0.04309 0.39297 0.33978 0.0
C2143 C 0.03219 0.3783 0.33304 0.0
C2144 C 0.04159 0.40557 0.33484 0.0
C2145 C 0.014 0.4169 0.31756 0.0
H2146 H 0.04927 0.45128 0.29356 0.0
C2147 C 0.00963 0.45993 0.26524 0.0
C2148 C 0.02209 0.47481 0.26359 0.0
C2149 C 0.01036 0.44938 0.27811 0.0
C2150 C 0.03937 0.44199 0.30066 0.0
H2151 H 0.01096 0.36524 0.31633 0.0
H2152 H 0.00831 0.38721 0.30781 0.0
H2153 H 0.05157 0.4304 0.30763 0.0
H2154 H 0.04463 0.49059 0.27549 0.0
H2155 H 0.04566 0.47237 0.29858 0.0
H2156 H 1.00174 0.4284 0.31042 0.0
C2157 C 0.01799 0.38898 0.31695 0.0
C2158 C 0.0407 0.42996 0.30866 0.0
C2159 C 0.01957 0.37642 0.32171 0.0
C2160 C 0.0348 0.47925 0.2764 0.0
C2161 C 0.03548 0.46871 0.28943 0.0
C2162 C 0.0127 0.42901 0.30974 0.0
C2163 C 0.02908 0.40371 0.32326 0.0
C2164 C 0.02796 0.41714 0.31678 0.0
C2165 C 0.02352 0.45347 0.28985 0.0
C2166 C 0.02529 0.44157 0.30075 0.0
H2167 H 0.05293 0.39478 0.34858 0.0
H2168 H 0.05026 0.41677 0.34002 0.0
H2169 H 0.00403 0.40726 0.324 0.0
H2170 H 0.99958 0.45621 0.25579 0.0
H2171 H 1.00092 0.43777 0.27789 0.0
C2172 C 0.63857 0.65686 0.31055 0.0
C2173 C 0.63935 0.66351 0.32964 0.0
C2174 C 0.62614 0.64267 0.30541 0.0
C2175 C 0.59448 0.60749 0.32672 0.0
H2176 H 0.5784 0.60261 0.2718 0.0
C2177 C 0.54517 0.56082 0.26766 0.0
C2178 C 0.54755 0.54849 0.27061 0.0
C2179 C 0.55368 0.57433 0.27869 0.0
C2180 C 0.58252 0.60378 0.28732 0.0
H2181 H 0.62784 0.66037 0.35848 0.0
H2182 H 0.60603 0.63549 0.34945 0.0
H2183 H 0.59887 0.62729 0.283 0.0
H2184 H 0.55982 0.54009 0.28826 0.0
H2185 H 0.57493 0.56378 0.30743 0.0
H2186 H 0.57809 0.58383 0.33091 0.0
C2187 C 0.61509 0.64126 0.33851 0.0
C2188 C 0.59445 0.61792 0.29364 0.0
C2189 C 0.62754 0.65553 0.34364 0.0
C2190 C 0.55766 0.54941 0.28595 0.0
C2191 C 0.56633 0.563 0.29687 0.0
C2192 C 0.58251 0.59326 0.32036 0.0
C2193 C 0.61418 0.63476 0.31924 0.0
C2194 C 0.60076 0.61989 0.31327 0.0
C2195 C 0.56495 0.57586 0.29264 0.0
C2196 C 0.57651 0.5912 0.30048 0.0
H2197 H 0.64752 0.66267 0.29947 0.0
H2198 H 0.62592 0.63785 0.29058 0.0
H2199 H 0.59913 0.60864 0.34193 0.0
H2200 H 0.53744 0.56035 0.25584 0.0
H2201 H 0.55207 0.58388 0.27541 0.0
C2202 C 0.36081 0.9826 0.34885 0.0
C2203 C 0.34915 0.97912 0.33452 0.0
C2204 C 0.37461 0.98384 0.34277 0.0
C2205 C 0.39115 0.97158 0.30227 0.0
H2206 H 0.42988 0.00619 0.31883 0.0
C2207 C 0.44705 0.9774 0.27376 0.0
C2208 C 0.45676 0.99147 0.26454 0.0
C2209 C 0.43527 0.97572 0.28644 0.0
C2210 C 0.41915 0.99642 0.31418 0.0
H2211 H 0.34279 0.97425 0.30264 0.0
H2212 H 0.36676 0.97631 0.29209 0.0
H2213 H 0.40612 0.00347 0.33213 0.0
H2214 H 0.46257 0.0151 0.26279 0.0
H2215 H 0.44198 0.01216 0.28486 0.0
H2216 H 0.40401 0.96473 0.28386 0.0
C2217 C 0.36524 0.978 0.30802 0.0
C2218 C 0.40557 0.99482 0.32188 0.0
C2219 C 0.35154 0.97691 0.31404 0.0
C2220 C 0.45519 0.00409 0.26957 0.0
C2221 C 0.44344 0.00242 0.28231 0.0
C2222 C 0.40469 0.97311 0.29472 0.0
C2223 C 0.37692 0.98144 0.3223 0.0
C2224 C 0.39141 0.98254 0.31566 0.0
C2225 C 0.43298 0.98808 0.29022 0.0
C2226 C 0.41884 0.98568 0.3003 0.0
H2227 H 0.35929 0.98437 0.36474 0.0
H2228 H 0.38338 0.98644 0.35412 0.0
H2229 H 0.38042 0.96191 0.29738 0.0
H2230 H 0.44788 0.96743 0.27009 0.0
H2231 H 0.42753 0.96457 0.29256 0.0
C2232 C 0.62326 0.97318 0.34026 0.0
C2233 C 0.63781 0.98389 0.33321 0.0
C2234 C 0.61063 0.97473 0.33562 0.0
C2235 C 0.59915 0.0022 0.31855 0.0
H2236 H 0.56456 0.96684 0.29421 0.0
C2237 C 0.55642 0.00633 0.26499 0.0
C2238 C 0.54158 0.99382 0.26279 0.0
C2239 C 0.56682 0.00573 0.27843 0.0
C2240 C 0.5739 0.97676 0.30143 0.0
H2241 H 0.65064 0.00487 0.31635 0.0
H2242 H 0.62862 0.00761 0.30836 0.0
H2243 H 0.58545 0.96454 0.3085 0.0
H2244 H 0.52565 0.9714 0.2744 0.0
H2245 H 0.54358 0.97062 0.2985 0.0
H2246 H 0.58771 0.01449 0.31127 0.0
C2247 C 0.62697 0.99804 0.3175 0.0
C2248 C 0.58593 0.97543 0.30955 0.0
C2249 C 0.63956 0.99641 0.32194 0.0
C2250 C 0.53697 0.98126 0.27571 0.0
C2251 C 0.54735 0.98071 0.28931 0.0
C2252 C 0.58703 0.0035 0.31061 0.0
C2253 C 0.61234 0.98712 0.32406 0.0
C2254 C 0.59885 0.98821 0.31774 0.0
C2255 C 0.56259 0.99266 0.2902 0.0
C2256 C 0.57441 0.99088 0.30146 0.0
H2257 H 0.62158 0.96344 0.34902 0.0
H2258 H 0.5995 0.96619 0.34097 0.0
H2259 H 0.60888 0.0122 0.32504 0.0
H2260 H 0.56025 0.01629 0.2555 0.0
H2261 H 0.57843 0.01515 0.27857 0.0
C2262 C 0.03078 0.653 0.3537 0.0
C2263 C 0.03155 0.66302 0.3384 0.0
C2264 C 0.02778 0.63831 0.34868 0.0
C2265 C 0.01163 0.6095 0.30722 0.0
H2266 H 0.03532 0.59325 0.33171 0.0
C2267 C 0.03183 0.56522 0.28234 0.0
C2268 C 0.01849 0.55459 0.27209 0.0
C2269 C 0.03162 0.57595 0.29556 0.0
C2270 C 0.02856 0.5976 0.32477 0.0
H2271 H 0.02987 0.66556 0.30587 0.0
H2272 H 0.02483 0.64013 0.2971 0.0
H2273 H 0.03879 0.61765 0.3436 0.0
H2274 H 0.99421 0.54567 0.26922 0.0
H2275 H 0.99364 0.56396 0.29296 0.0
H2276 H 1.00201 0.59004 0.28763 0.0
C2277 C 0.02628 0.64345 0.31301 0.0
C2278 C 0.03046 0.61152 0.33171 0.0
C2279 C 0.02929 0.65809 0.31802 0.0
C2280 C 0.00465 0.55382 0.27691 0.0
C2281 C 0.00439 0.56441 0.29031 0.0
C2282 C 0.00976 0.59565 0.30027 0.0
C2283 C 0.02542 0.63335 0.32826 0.0
C2284 C 0.02229 0.61782 0.32263 0.0
C2285 C 0.01801 0.57615 0.29889 0.0
C2286 C 0.01844 0.58966 0.30862 0.0
H2287 H 0.03246 0.65649 0.36956 0.0
H2288 H 0.0271 0.63079 0.36079 0.0
H2289 H 0.00494 0.61387 0.30015 0.0
H2290 H 0.04268 0.56616 0.27869 0.0
H2291 H 0.04235 0.58482 0.30178 0.0
C2292 C 0.35631 0.39278 0.33881 0.0
C2293 C 0.35361 0.37782 0.33702 0.0
C2294 C 0.37067 0.40519 0.33437 0.0
C2295 C 0.4112 0.41773 0.33059 0.0
H2296 H 0.41217 0.44425 0.28758 0.0
C2297 C 0.46532 0.45534 0.28427 0.0
C2298 C 0.46677 0.46812 0.27411 0.0
C2299 C 0.45245 0.4463 0.29604 0.0
C2300 C 0.41223 0.43729 0.3 0.0
H2301 H 0.36389 0.36411 0.32992 0.0
H2302 H 0.3891 0.38584 0.32267 0.0
H2303 H 0.38782 0.42464 0.30069 0.0
H2304 H 0.45663 0.48219 0.26925 0.0
H2305 H 0.43462 0.46706 0.29088 0.0
H2306 H 0.43556 0.4304 0.33019 0.0
C2307 C 0.38007 0.38793 0.32733 0.0
C2308 C 0.3982 0.42596 0.30739 0.0
C2309 C 0.36564 0.37552 0.33135 0.0
C2310 C 0.45574 0.47239 0.27706 0.0
C2311 C 0.44302 0.46355 0.2892 0.0
C2312 C 0.42527 0.42929 0.3235 0.0
C2313 C 0.38265 0.40286 0.32851 0.0
C2314 C 0.39755 0.41586 0.32241 0.0
C2315 C 0.44085 0.45 0.29813 0.0
C2316 C 0.426 0.43901 0.30773 0.0
H2317 H 0.34723 0.39488 0.34312 0.0
H2318 H 0.37239 0.41661 0.33539 0.0
H2319 H 0.41098 0.41016 0.34234 0.0
H2320 H 0.47358 0.4517 0.28189 0.0
H2321 H 0.45122 0.43591 0.30235 0.0
C2322 C 0.32591 0.30595 0.37822 0.0
C2323 C 0.31876 0.30568 0.35973 0.0
C2324 C 0.32885 0.29427 0.38303 0.0
C2325 C 0.31586 0.2541 0.3727 0.0
H2326 H 0.35439 0.26383 0.39789 0.0
C2327 C 0.35021 0.22377 0.41008 0.0
C2328 C 0.33909 0.21401 0.42392 0.0
C2329 C 0.34756 0.23345 0.39775 0.0
C2330 C 0.34366 0.26088 0.39057 0.0
H2331 H 0.30905 0.29294 0.33176 0.0
H2332 H 0.31405 0.27237 0.3403 0.0
H2333 H 0.35056 0.2843 0.38556 0.0
H2334 H 0.31608 0.20574 0.43449 0.0
H2335 H 0.3114 0.22252 0.4129 0.0
H2336 H 0.30884 0.23067 0.37821 0.0
C2337 C 0.31739 0.28166 0.35104 0.0
C2338 C 0.3414 0.27263 0.38374 0.0
C2339 C 0.31459 0.29346 0.34613 0.0
C2340 C 0.32485 0.21319 0.42397 0.0
C2341 C 0.32216 0.22277 0.41155 0.0
C2342 C 0.31807 0.24232 0.3797 0.0
C2343 C 0.32459 0.28197 0.36953 0.0
C2344 C 0.32739 0.26939 0.37507 0.0
C2345 C 0.33371 0.23344 0.39891 0.0
C2346 C 0.33192 0.24561 0.38901 0.0
H2347 H 0.32925 0.31521 0.38901 0.0
H2348 H 0.33423 0.29472 0.39751 0.0
H2349 H 0.30492 0.25125 0.36614 0.0
H2350 H 0.36133 0.22472 0.40983 0.0
H2351 H 0.35661 0.24142 0.38797 0.0
C2352 C 0.71095 0.02666 0.38065 0.0
C2353 C 0.70923 0.02196 0.3602 0.0
C2354 C 0.72252 0.04117 0.38646 0.0
C2355 C 0.75984 0.07281 0.37029 0.0
H2356 H 0.75231 0.09415 0.41366 0.0
C2357 C 0.79173 0.13077 0.42466 0.0
C2358 C 0.80494 0.13026 0.42966 0.0
C2359 C 0.78067 0.11976 0.41176 0.0
C2360 C 0.75462 0.08856 0.40125 0.0
H2361 H 0.71816 0.0288 0.32973 0.0
H2362 H 0.7383 0.05429 0.33985 0.0
H2363 H 0.73137 0.07068 0.40002 0.0
H2364 H 0.81742 0.11847 0.42414 0.0
H2365 H 0.79806 0.09908 0.40195 0.0
H2366 H 0.78313 0.09079 0.37151 0.0
C2367 C 0.73083 0.04668 0.35144 0.0
C2368 C 0.74261 0.07492 0.39365 0.0
C2369 C 0.71925 0.03211 0.34563 0.0
C2370 C 0.80741 0.11922 0.42035 0.0
C2371 C 0.79627 0.10809 0.40762 0.0
C2372 C 0.77188 0.08653 0.37784 0.0
C2373 C 0.73261 0.05137 0.37194 0.0
C2374 C 0.74512 0.06667 0.37843 0.0
C2375 C 0.78249 0.10787 0.40382 0.0
C2376 C 0.76948 0.09442 0.39373 0.0
H2377 H 0.70345 0.01908 0.39225 0.0
H2378 H 0.72372 0.04428 0.40244 0.0
H2379 H 0.76221 0.06673 0.3586 0.0
H2380 H 0.78963 0.13925 0.43156 0.0
H2381 H 0.77038 0.12018 0.40874 0.0
C2382 C 0.99345 0.71189 0.3656 0.0
C2383 C 0.9958 0.69964 0.36148 0.0
C2384 C 0.97885 0.70929 0.37003 0.0
C2385 C 0.94104 0.67832 0.38743 0.0
H2386 H 0.92866 0.70802 0.37579 0.0
C2387 C 0.88242 0.66783 0.41164 0.0
C2388 C 0.88341 0.67934 0.42459 0.0
C2389 C 0.89479 0.67045 0.3995 0.0
C2390 C 0.93196 0.6996 0.37903 0.0
H2391 H 0.98467 0.67515 0.35777 0.0
H2392 H 0.95917 0.67061 0.36455 0.0
H2393 H 0.953 0.71203 0.36301 0.0
H2394 H 0.89752 0.70292 0.43381 0.0
H2395 H 0.91905 0.70761 0.41227 0.0
H2396 H 0.91999 0.66591 0.40338 0.0
C2397 C 0.9686 0.68221 0.36519 0.0
C2398 C 0.94596 0.70194 0.37187 0.0
C2399 C 0.98322 0.6848 0.36115 0.0
C2400 C 0.89648 0.69388 0.42391 0.0
C2401 C 0.90877 0.69656 0.41157 0.0
C2402 C 0.92698 0.67589 0.39428 0.0
C2403 C 0.96622 0.69438 0.3701 0.0
C2404 C 0.95081 0.69145 0.37627 0.0
C2405 C 0.90828 0.68468 0.39991 0.0
C2406 C 0.92239 0.6866 0.39043 0.0
H2407 H 0.00297 0.72346 0.36601 0.0
H2408 H 0.97759 0.71896 0.37403 0.0
H2409 H 0.94442 0.67013 0.39159 0.0
H2410 H 0.87254 0.65648 0.41202 0.0
H2411 H 0.89408 0.66114 0.39052 0.0
C2412 C 0.38408 0.02717 0.68467 0.0
C2413 C 0.38347 0.04053 0.68817 0.0
C2414 C 0.39682 0.02624 0.69083 0.0
C2415 C 0.42757 0.04265 0.7289 0.0
H2416 H 0.44375 0.02108 0.69864 0.0
C2417 C 0.47451 0.0345 0.76427 0.0
C2418 C 0.47219 0.01967 0.76298 0.0
C2419 C 0.46634 0.03896 0.75166 0.0
C2420 C 0.43933 0.02709 0.70732 0.0
H2421 H 0.39598 0.06359 0.70009 0.0
H2422 H 0.41822 0.062 0.71076 0.0
H2423 H 0.42411 0.02515 0.68318 0.0
H2424 H 0.46022 0.99817 0.74674 0.0
H2425 H 0.4457 0.00581 0.72493 0.0
H2426 H 0.44223 0.04414 0.7533 0.0
C2427 C 0.40878 0.05218 0.70348 0.0
C2428 C 0.42808 0.02942 0.69845 0.0
C2429 C 0.39607 0.05311 0.69728 0.0
C2430 C 0.46234 0.00973 0.74788 0.0
C2431 C 0.45401 0.01413 0.7354 0.0
C2432 C 0.43872 0.04026 0.73778 0.0
C2433 C 0.40919 0.03864 0.70067 0.0
C2434 C 0.42196 0.03709 0.70924 0.0
C2435 C 0.45548 0.02862 0.73768 0.0
C2436 C 0.44466 0.03231 0.72722 0.0
H2437 H 0.37455 0.01728 0.67766 0.0
H2438 H 0.3967 0.01561 0.68861 0.0
H2439 H 0.42291 0.04835 0.7378 0.0
H2440 H 0.48212 0.04239 0.77573 0.0
H2441 H 0.46807 0.05034 0.75347 0.0
C2442 C 0.97266 0.35779 0.69505 0.0
C2443 C 0.98484 0.35497 0.69398 0.0
C2444 C 0.97536 0.37247 0.69936 0.0
C2445 C 0.00553 0.40943 0.72143 0.0
H2446 H 0.9781 0.42347 0.70399 0.0
C2447 C 0.01693 0.46872 0.74361 0.0
C2448 C 0.00521 0.46792 0.75579 0.0
C2449 C 0.01436 0.4563 0.73145 0.0
C2450 C 0.98589 0.41969 0.70881 0.0
H2451 H 0.00939 0.3653 0.69536 0.0
H2452 H 0.01421 0.39097 0.70163 0.0
H2453 H 0.97417 0.399 0.69151 0.0
H2454 H 0.98137 0.4542 0.76355 0.0
H2455 H 0.97675 0.43261 0.7418 0.0
H2456 H 0.01731 0.43021 0.73849 0.0
C2457 C 0.0025 0.38186 0.70019 0.0
C2458 C 0.98359 0.40561 0.70186 0.0
C2459 C 0.99977 0.36714 0.69642 0.0
C2460 C 0.99055 0.45508 0.75421 0.0
C2461 C 0.98792 0.44276 0.74178 0.0
C2462 C 0.008 0.42358 0.72798 0.0
C2463 C 0.99033 0.38471 0.70222 0.0
C2464 C 0.99325 0.40016 0.70832 0.0
C2465 C 0.99997 0.443 0.73102 0.0
C2466 C 0.9981 0.42877 0.72198 0.0
H2467 H 0.96102 0.34855 0.69328 0.0
H2468 H 0.96564 0.37406 0.70107 0.0
H2469 H 0.01302 0.40559 0.72727 0.0
H2470 H 0.02837 0.47842 0.74474 0.0
H2471 H 0.02381 0.45676 0.72322 0.0
C2472 C 0.65219 0.62211 0.68372 0.0
C2473 C 0.65762 0.63729 0.68963 0.0
C2474 C 0.63764 0.61064 0.68946 0.0
C2475 C 0.60758 0.60321 0.72746 0.0
H2476 H 0.58391 0.56635 0.69551 0.0
C2477 C 0.55025 0.55705 0.75631 0.0
C2478 C 0.55002 0.54325 0.75958 0.0
C2479 C 0.56093 0.56797 0.74325 0.0
C2480 C 0.59039 0.57664 0.70449 0.0
H2481 H 0.6519 0.65256 0.70528 0.0
H2482 H 0.62633 0.6328 0.71446 0.0
H2483 H 0.60767 0.58708 0.68182 0.0
H2484 H 0.55964 0.5294 0.75001 0.0
H2485 H 0.57813 0.54841 0.72682 0.0
H2486 H 0.59029 0.59282 0.75002 0.0
C2487 C 0.63343 0.62952 0.70613 0.0
C2488 C 0.60407 0.58848 0.69677 0.0
C2489 C 0.64807 0.6409 0.70077 0.0
C2490 C 0.55948 0.53988 0.74772 0.0
C2491 C 0.57012 0.5508 0.7345 0.0
C2492 C 0.59384 0.59154 0.73496 0.0
C2493 C 0.62809 0.61416 0.70092 0.0
C2494 C 0.61298 0.60187 0.70829 0.0
C2495 C 0.57148 0.56524 0.73304 0.0
C2496 C 0.58517 0.57806 0.72369 0.0
H2497 H 0.65935 0.61902 0.67514 0.0
H2498 H 0.63411 0.59898 0.68539 0.0
H2499 H 0.6142 0.61308 0.7371 0.0
H2500 H 0.54296 0.55986 0.76507 0.0
H2501 H 0.56159 0.57893 0.74212 0.0
C2502 C 0.70391 0.72183 0.66552 0.0
C2503 C 0.69371 0.70674 0.65955 0.0
C2504 C 0.70126 0.73361 0.65996 0.0
C2505 C 0.67939 0.74243 0.62226 0.0
H2506 H 0.6922 0.77821 0.65628 0.0
C2507 C 0.66906 0.78995 0.59594 0.0
C2508 C 0.68242 0.80427 0.59509 0.0
C2509 C 0.66864 0.77826 0.60759 0.0
C2510 C 0.68854 0.76826 0.64667 0.0
H2511 H 0.67245 0.69203 0.64376 0.0
H2512 H 0.66751 0.7124 0.63464 0.0
H2513 H 0.69492 0.75703 0.6689 0.0
H2514 H 0.70531 0.81796 0.60726 0.0
H2515 H 0.70448 0.79757 0.62787 0.0
H2516 H 0.67305 0.75363 0.60006 0.0
C2517 C 0.67784 0.71531 0.64305 0.0
C2518 C 0.69018 0.75616 0.65381 0.0
C2519 C 0.68061 0.70359 0.64836 0.0
C2520 C 0.69481 0.80709 0.60771 0.0
C2521 C 0.69436 0.79538 0.61946 0.0
C2522 C 0.6776 0.75441 0.61526 0.0
C2523 C 0.68823 0.73053 0.64852 0.0
C2524 C 0.68578 0.74314 0.64159 0.0
C2525 C 0.68153 0.78066 0.61873 0.0
C2526 C 0.68228 0.76752 0.62728 0.0
H2527 H 0.71412 0.7246 0.67414 0.0
H2528 H 0.70965 0.74517 0.6642 0.0
H2529 H 0.67619 0.73281 0.61217 0.0
H2530 H 0.65926 0.78751 0.58657 0.0
H2531 H 0.65848 0.7671 0.60706 0.0
C2532 C 0.29512 0.98989 0.68377 0.0
C2533 C 0.30748 0.99639 0.67028 0.0
C2534 C 0.28302 0.97503 0.68054 0.0
C2535 C 0.27273 0.93915 0.65303 0.0
H2536 H 0.23144 0.93201 0.65454 0.0
C2537 C 0.21385 0.89788 0.60955 0.0
C2538 C 0.21426 0.88424 0.6098 0.0
C2539 C 0.22325 0.90992 0.62257 0.0
C2540 C 0.2429 0.93379 0.65419 0.0
H2541 H 0.31698 0.99235 0.64303 0.0
H2542 H 0.29596 0.96656 0.63739 0.0
H2543 H 0.25261 0.95658 0.66578 0.0
H2544 H 0.22385 0.87204 0.62507 0.0
H2545 H 0.24012 0.89301 0.64813 0.0
H2546 H 0.26322 0.91674 0.64048 0.0
C2547 C 0.29563 0.97283 0.65057 0.0
C2548 C 0.25501 0.94783 0.66077 0.0
C2549 C 0.30763 0.98767 0.65371 0.0
C2550 C 0.22325 0.88239 0.62458 0.0
C2551 C 0.2327 0.89448 0.63761 0.0
C2552 C 0.26065 0.92514 0.64651 0.0
C2553 C 0.28314 0.96635 0.66387 0.0
C2554 C 0.27011 0.95081 0.65968 0.0
C2555 C 0.23329 0.9086 0.63613 0.0
C2556 C 0.24562 0.92243 0.64647 0.0
H2557 H 0.29471 0.99635 0.69669 0.0
H2558 H 0.2736 0.97033 0.6911 0.0
H2559 H 0.28421 0.94102 0.65229 0.0
H2560 H 0.20695 0.89956 0.59837 0.0
H2561 H 0.22343 0.92062 0.62091 0.0
C2562 C 0.03143 0.32799 0.66508 0.0
C2563 C 0.02037 0.31547 0.67602 0.0
C2564 C 0.04538 0.32914 0.66037 0.0
C2565 C 0.0622 0.30554 0.65028 0.0
H2566 H 0.10041 0.34385 0.65268 0.0
C2567 C 0.11564 0.31077 0.61287 0.0
C2568 C 0.12368 0.32372 0.60062 0.0
C2569 C 0.10507 0.31005 0.62711 0.0
C2570 C 0.08984 0.33306 0.65182 0.0
H2571 H 0.01536 0.29447 0.69099 0.0
H2572 H 0.03973 0.29635 0.6824 0.0
H2573 H 0.07761 0.34199 0.66782 0.0
H2574 H 0.12795 0.34657 0.59505 0.0
H2575 H 0.10929 0.34517 0.61926 0.0
H2576 H 0.07406 0.29677 0.63333 0.0
C2577 C 0.03758 0.3053 0.67757 0.0
C2578 C 0.0768 0.33201 0.66056 0.0
C2579 C 0.02367 0.30425 0.68253 0.0
C2580 C 0.12176 0.33633 0.60403 0.0
C2581 C 0.11114 0.33558 0.61812 0.0
C2582 C 0.07519 0.30663 0.64134 0.0
C2583 C 0.04853 0.31771 0.6663 0.0
C2584 C 0.06277 0.31833 0.65948 0.0
C2585 C 0.10225 0.32222 0.62934 0.0
C2586 C 0.08911 0.32051 0.64155 0.0
H2587 H 0.02922 0.33684 0.6599 0.0
H2588 H 0.05351 0.33874 0.65146 0.0
H2589 H 0.05151 0.29488 0.64902 0.0
H2590 H 0.1168 0.30083 0.61061 0.0
H2591 H 0.09868 0.2997 0.6358 0.0
C2592 C 0.29146 0.30705 0.66696 0.0
C2593 C 0.30661 0.31798 0.66253 0.0
C2594 C 0.27949 0.30943 0.6613 0.0
C2595 C 0.27081 0.33219 0.62527 0.0
H2596 H 0.23359 0.31645 0.65649 0.0
C2597 C 0.2227 0.34129 0.59749 0.0
C2598 C 0.20864 0.32774 0.59523 0.0
C2599 C 0.23424 0.34167 0.60959 0.0
C2600 C 0.24394 0.32092 0.64765 0.0
H2601 H 0.32119 0.34022 0.64948 0.0
H2602 H 0.30046 0.34463 0.64021 0.0
H2603 H 0.25491 0.31415 0.66984 0.0
H2604 H 0.19519 0.30437 0.60528 0.0
H2605 H 0.21534 0.30508 0.62665 0.0
H2606 H 0.25987 0.33889 0.60309 0.0
C2607 C 0.29768 0.33399 0.64747 0.0
C2608 C 0.25613 0.31954 0.65522 0.0
C2609 C 0.3096 0.33151 0.65288 0.0
C2610 C 0.20587 0.315 0.60684 0.0
C2611 C 0.21743 0.3154 0.61903 0.0
C2612 C 0.25873 0.33371 0.61786 0.0
C2613 C 0.28243 0.32288 0.65129 0.0
C2614 C 0.26968 0.32503 0.64401 0.0
C2615 C 0.23195 0.32853 0.61976 0.0
C2616 C 0.24511 0.32798 0.62885 0.0
H2617 H 0.28881 0.29649 0.67437 0.0
H2618 H 0.26792 0.30051 0.66427 0.0
H2619 H 0.28087 0.33624 0.61593 0.0
H2620 H 0.22507 0.35133 0.5889 0.0
H2621 H 0.24522 0.35205 0.6102 0.0
C2622 C 0.70578 0.99236 0.67686 0.0
C2623 C 0.69767 0.99823 0.66658 0.0
C2624 C 0.70367 0.97805 0.67163 0.0
C2625 C 0.677 0.94136 0.64839 0.0
H2626 H 0.71282 0.93994 0.63145 0.0
C2627 C 0.67331 0.89342 0.59754 0.0
C2628 C 0.68549 0.89051 0.59708 0.0
C2629 C 0.6738 0.90464 0.6104 0.0
C2630 C 0.70269 0.93991 0.63662 0.0
H2631 H 0.68071 0.99361 0.6432 0.0
H2632 H 0.67677 0.9684 0.63437 0.0
H2633 H 0.71561 0.96343 0.64545 0.0
H2634 H 0.707 0.8961 0.6114 0.0
H2635 H 0.70741 0.91499 0.63472 0.0
H2636 H 0.66402 0.91786 0.63984 0.0
C2637 C 0.68482 0.97494 0.64636 0.0
C2638 C 0.70433 0.95347 0.64451 0.0
C2639 C 0.68715 0.98938 0.65131 0.0
C2640 C 0.69743 0.89803 0.61129 0.0
C2641 C 0.69779 0.9091 0.62443 0.0
C2642 C 0.67536 0.92769 0.64087 0.0
C2643 C 0.69318 0.96923 0.65632 0.0
C2644 C 0.69148 0.95441 0.65 0.0
C2645 C 0.68634 0.91308 0.62348 0.0
C2646 C 0.68816 0.92687 0.63436 0.0
H2647 H 0.71397 0.99895 0.68869 0.0
H2648 H 0.71023 0.97388 0.67953 0.0
H2649 H 0.66693 0.94177 0.65277 0.0
H2650 H 0.66377 0.8876 0.5871 0.0
H2651 H 0.66474 0.90729 0.60905 0.0
C2652 C 0.02794 0.72312 0.67886 0.0
C2653 C 0.01986 0.71117 0.66485 0.0
C2654 C 0.04207 0.73563 0.67367 0.0
C2655 C 0.06413 0.75633 0.62877 0.0
H2656 H 0.09938 0.77316 0.66474 0.0
C2657 C 0.11977 0.8072 0.60289 0.0
C2658 C 0.13242 0.80512 0.60428 0.0
C2659 C 0.10666 0.7981 0.61414 0.0
C2660 C 0.08961 0.76862 0.65458 0.0
H2661 H 0.02039 0.70279 0.63461 0.0
H2662 H 0.04493 0.72454 0.62558 0.0
H2663 H 0.07506 0.75178 0.67617 0.0
H2664 H 0.14179 0.79279 0.61971 0.0
H2665 H 0.11882 0.77677 0.63935 0.0
H2666 H 0.07857 0.77269 0.60695 0.0
C2667 C 0.04032 0.72435 0.64049 0.0
C2668 C 0.07568 0.75645 0.66116 0.0
C2669 C 0.02629 0.71185 0.64571 0.0
C2670 C 0.13223 0.79472 0.6185 0.0
C2671 C 0.11905 0.78552 0.62971 0.0
C2672 C 0.07795 0.7685 0.62227 0.0
C2673 C 0.0483 0.73646 0.65431 0.0
C2674 C 0.06287 0.75001 0.64815 0.0
C2675 C 0.10587 0.78663 0.6269 0.0
C2676 C 0.09092 0.77469 0.63497 0.0
H2677 H 0.02327 0.7229 0.69375 0.0
H2678 H 0.04793 0.74482 0.6846 0.0
H2679 H 0.05442 0.75176 0.61849 0.0
H2680 H 0.11969 0.81521 0.59209 0.0
H2681 H 0.09683 0.79949 0.61199 0.0
C2682 C 0.98212 0.62819 0.67883 0.0
C2683 C 0.98485 0.63986 0.69278 0.0
C2684 C 0.98394 0.61594 0.68476 0.0
C2685 C 0.98402 0.59536 0.73081 0.0
H2686 H 0.00435 0.57946 0.69733 0.0
C2687 C 0.01487 0.55835 0.74495 0.0
C2688 C 0.00447 0.54791 0.75892 0.0
C2689 C 0.0109 0.56733 0.73315 0.0
C2690 C 0.99861 0.58376 0.70681 0.0
H2691 H 0.99199 0.64803 0.72369 0.0
H2692 H 0.99522 0.6268 0.73397 0.0
H2693 H 1.00122 0.60044 0.68473 0.0
H2694 H 0.9814 0.53754 0.77017 0.0
H2695 H 0.97427 0.55281 0.74916 0.0
H2696 H 0.98183 0.5792 0.75317 0.0
C2697 C 0.99147 0.62696 0.71855 0.0
C2698 C 0.99673 0.5957 0.69955 0.0
C2699 C 0.98971 0.63919 0.71261 0.0
C2700 C 0.98963 0.54559 0.75956 0.0
C2701 C 0.98562 0.55444 0.74768 0.0
C2702 C 0.98584 0.58346 0.73801 0.0
C2703 C 0.98843 0.6151 0.70479 0.0
C2704 C 0.98964 0.60179 0.71165 0.0
C2705 C 0.99644 0.56594 0.7351 0.0
C2706 C 0.99331 0.5776 0.72624 0.0
H2707 H 0.97837 0.62841 0.66342 0.0
H2708 H 0.98145 0.60695 0.67385 0.0
H2709 H 0.97831 0.59964 0.74039 0.0
H2710 H 0.02644 0.56044 0.74435 0.0
H2711 H 0.01954 0.5761 0.72369 0.0
C2712 C 0.3763 0.36336 0.70487 0.0
C2713 C 0.37809 0.35421 0.69032 0.0
C2714 C 0.38841 0.37789 0.70961 0.0
C2715 C 0.42945 0.39924 0.71261 0.0
H2716 H 0.42482 0.43485 0.71605 0.0
C2717 C 0.4772 0.45418 0.74828 0.0
C2718 C 0.47226 0.46123 0.76236 0.0
C2719 C 0.46693 0.44349 0.73425 0.0
C2720 C 0.42632 0.42502 0.71533 0.0
H2721 H 0.39387 0.35308 0.6692 0.0
H2722 H 0.41521 0.37833 0.67799 0.0
H2723 H 0.40395 0.41094 0.70261 0.0
H2724 H 0.45315 0.46388 0.77118 0.0
H2725 H 0.43518 0.44488 0.74761 0.0
H2726 H 0.45128 0.41276 0.72653 0.0
C2727 C 0.40437 0.3743 0.68551 0.0
C2728 C 0.41436 0.41135 0.70753 0.0
C2729 C 0.39218 0.35989 0.68048 0.0
C2730 C 0.45723 0.45841 0.76081 0.0
C2731 C 0.44693 0.44758 0.74705 0.0
C2732 C 0.44128 0.41279 0.72076 0.0
C2733 C 0.40261 0.38341 0.70015 0.0
C2734 C 0.41573 0.39828 0.70644 0.0
C2735 C 0.45146 0.43947 0.73417 0.0
C2736 C 0.43978 0.42582 0.72264 0.0
H2737 H 0.36555 0.35928 0.71263 0.0
H2738 H 0.38681 0.38464 0.7211 0.0
H2739 H 0.43074 0.38927 0.71207 0.0
H2740 H 0.48869 0.45609 0.74901 0.0
H2741 H 0.47098 0.43785 0.72416 0.0
C2742 C 0.65892 0.04581 0.6967 0.0
C2743 C 0.66178 0.03369 0.69472 0.0
C2744 C 0.64443 0.04307 0.70207 0.0
C2745 C 0.60815 0.01305 0.72511 0.0
H2746 H 0.59355 0.04018 0.70859 0.0
C2747 C 0.54912 0.0021 0.74868 0.0
C2748 C 0.55005 0.01412 0.76045 0.0
C2749 C 0.56143 0.00434 0.73667 0.0
C2750 C 0.59748 0.03248 0.7132 0.0
H2751 H 0.65163 0.00918 0.69592 0.0
H2752 H 0.62621 0.00427 0.70424 0.0
H2753 H 0.61768 0.04399 0.69529 0.0
H2754 H 0.56397 0.03808 0.76786 0.0
H2755 H 0.58533 0.04214 0.74631 0.0
H2756 H 0.5878 0.00145 0.74277 0.0
C2757 C 0.63522 0.01597 0.70253 0.0
C2758 C 0.61137 0.03472 0.70576 0.0
C2759 C 0.64979 0.01876 0.69761 0.0
C2760 C 0.56297 0.02868 0.75878 0.0
C2761 C 0.57516 0.03099 0.74648 0.0
C2762 C 0.59415 0.01064 0.73218 0.0
C2763 C 0.63235 0.0281 0.70517 0.0
C2764 C 0.61704 0.02518 0.71188 0.0
C2765 C 0.57474 0.0187 0.73598 0.0
C2766 C 0.58878 0.02045 0.72654 0.0
H2767 H 0.668 0.05745 0.69463 0.0
H2768 H 0.64285 0.05276 0.70429 0.0
H2769 H 0.61217 0.00564 0.73063 0.0
H2770 H 0.53936 0.99073 0.74993 0.0
H2771 H 0.56082 0.99471 0.72864 0.0
loop_
_geom_bond_atom_site_label_1
_geom_bond_atom_site_label_2
_geom_bond_distance
_geom_bond_site_symmetry_2
_ccdc_geom_bond_type
In0 O1 2.294 1_455 S
In0 O2 2.326 . S
In0 O6 2.266 1_455 S
In0 O7 2.326 1_454 S
In0 O8 2.266 1_554 S
In0 O9 2.326 1_454 S
In0 O11 2.294 . S
In0 O12 2.326 . S
O1 In0 2.294 1_655 S
O1 C10 1.240 1_655 S
O2 In0 2.326 . S
O2 C10 1.252 . S
C3 O6 1.252 1_556 S
C3 O7 1.260 . S
C4 O11 1.240 . S
C4 O12 1.252 . S
C5 O8 1.252 . S
C5 O9 1.260 1_455 S
O6 In0 2.266 1_655 S
O6 C3 1.252 1_554 S
O7 In0 2.326 1_656 S
O7 C3 1.260 . S
O8 In0 2.266 1_556 S
O8 C5 1.252 . S
O9 In0 2.326 1_656 S
O9 C5 1.260 1_655 S
C10 O1 1.240 1_455 S
C10 O2 1.252 . S
O11 In0 2.294 . S
O11 C4 1.240 . S
O12 In0 2.326 . S
O12 C4 1.252 . S
In13 O14 2.294 . S
In13 O15 2.326 . S
In13 O19 2.266 . S
In13 O20 2.326 1_554 S
In13 O21 2.266 1_554 S
In13 O22 2.326 1_554 S
In13 O24 2.294 . S
In13 O25 2.326 . S
O14 In13 2.294 . S
O14 C23 1.240 . S
O15 In13 2.326 . S
O15 C23 1.252 . S
C16 O19 1.252 1_556 S
C16 O20 1.260 . S
C17 O24 1.240 . S
C17 O25 1.252 . S
C18 O21 1.252 . S
C18 O22 1.260 . S
O19 In13 2.266 . S
O19 C16 1.252 1_554 S
O20 In13 2.326 1_556 S
O20 C16 1.260 . S
O21 In13 2.266 1_556 S
O21 C18 1.252 . S
O22 In13 2.326 1_556 S
O22 C18 1.260 . S
C23 O14 1.240 . S
C23 O15 1.252 . S
O24 In13 2.294 . S
O24 C17 1.240 . S
O25 In13 2.326 . S
O25 C17 1.252 . S
In26 O27 2.294 . S
In26 O28 2.326 1_554 S
In26 O32 2.266 . S
In26 O33 2.326 1_545 S
In26 O34 2.266 1_545 S
In26 O35 2.334 1_545 S
In26 O37 2.294 1_544 S
In26 O38 2.326 1_554 S
O27 In26 2.294 . S
O27 C36 1.240 1_554 S
O28 In26 2.326 1_556 S
O28 C36 1.252 . S
C29 O32 1.252 . S
C29 O33 1.260 1_545 S
C30 O37 1.240 1_545 S
C30 O38 1.252 . S
C31 O34 1.252 . S
C31 O35 1.329 . S
O32 In26 2.266 . S
O32 C29 1.252 . S
O33 In26 2.326 1_565 S
O33 C29 1.260 1_565 S
O34 In26 2.266 1_565 S
O34 C31 1.252 . S
O35 In26 2.334 1_565 S
O35 C31 1.329 . S
C36 O27 1.240 1_556 S
C36 O28 1.252 . S
O37 In26 2.294 1_566 S
O37 C30 1.240 1_565 S
O38 In26 2.326 1_556 S
O38 C30 1.252 . S
In39 O40 2.294 1_554 S
In39 O41 2.326 1_454 S
In39 O45 2.266 . S
In39 O46 2.326 . S
In39 O47 2.266 1_455 S
In39 O48 2.326 . S
In39 O50 2.294 1_455 S
In39 O51 2.326 1_454 S
O40 In39 2.294 1_556 S
O40 C49 1.240 . S
O41 In39 2.326 1_656 S
O41 C49 1.252 1_655 S
C42 O45 1.252 . S
C42 O46 1.260 . S
C43 O50 1.240 1_556 S
C43 O51 1.252 . S
C44 O47 1.252 1_455 S
C44 O48 1.260 . S
O45 In39 2.266 . S
O45 C42 1.252 . S
O46 In39 2.326 . S
O46 C42 1.260 . S
O47 In39 2.266 1_655 S
O47 C44 1.252 1_655 S
O48 In39 2.326 . S
O48 C44 1.260 . S
C49 O40 1.240 . S
C49 O41 1.252 1_455 S
O50 In39 2.294 1_655 S
O50 C43 1.240 1_554 S
O51 In39 2.326 1_656 S
O51 C43 1.252 . S
In52 O53 2.294 1_554 S
In52 O54 2.326 1_554 S
In52 O58 2.266 . S
In52 O59 2.326 . S
In52 O60 2.266 . S
In52 O61 2.326 . S
In52 O63 2.294 . S
In52 O64 2.326 1_554 S
O53 In52 2.294 1_556 S
O53 C62 1.240 . S
O54 In52 2.326 1_556 S
O54 C62 1.252 . S
C55 O58 1.252 . S
C55 O59 1.260 . S
C56 O63 1.240 1_556 S
C56 O64 1.252 . S
C57 O60 1.252 . S
C57 O61 1.260 . S
O58 In52 2.266 . S
O58 C55 1.252 . S
O59 In52 2.326 . S
O59 C55 1.260 . S
O60 In52 2.266 . S
O60 C57 1.252 . S
O61 In52 2.326 . S
O61 C57 1.260 . S
C62 O53 1.240 . S
C62 O54 1.252 . S
O63 In52 2.294 . S
O63 C56 1.240 1_554 S
O64 In52 2.326 1_556 S
O64 C56 1.252 . S
In65 O66 2.294 . S
In65 O67 2.326 1_545 S
In65 O71 2.266 . S
In65 O72 2.326 1_554 S
In65 O73 2.266 1_544 S
In65 O74 2.326 1_554 S
In65 O76 2.294 1_545 S
In65 O77 2.326 1_545 S
O66 In65 2.294 . S
O66 C75 1.240 . S
O67 In65 2.326 1_565 S
O67 C75 1.252 1_565 S
C68 O71 1.252 1_556 S
C68 O72 1.260 . S
C69 O76 1.240 . S
C69 O77 1.252 . S
C70 O73 1.252 1_545 S
C70 O74 1.260 . S
O71 In65 2.266 . S
O71 C68 1.252 1_554 S
O72 In65 2.326 1_556 S
O72 C68 1.260 . S
O73 In65 2.266 1_566 S
O73 C70 1.252 1_565 S
O74 In65 2.326 1_556 S
O74 C70 1.260 . S
C75 O66 1.240 . S
C75 O67 1.252 1_545 S
O76 In65 2.294 1_565 S
O76 C69 1.240 . S
O77 In65 2.326 1_565 S
O77 C69 1.252 . S
In78 O79 2.294 . S
In78 O80 2.326 . S
In78 O84 2.266 . S
In78 O85 2.326 . S
In78 O86 2.266 . S
In78 O87 2.326 . S
In78 O89 2.294 . S
In78 O90 2.326 . S
O79 In78 2.294 . S
O79 C88 1.240 . S
O80 In78 2.326 . S
O80 C88 1.252 . S
C81 O84 1.252 . S
C81 O85 1.260 . S
C82 O89 1.240 . S
C82 O90 1.252 . S
C83 O86 1.252 . S
C83 O87 1.260 . S
O84 In78 2.266 . S
O84 C81 1.252 . S
O85 In78 2.326 . S
O85 C81 1.260 . S
O86 In78 2.266 . S
O86 C83 1.252 . S
O87 In78 2.326 . S
O87 C83 1.260 . S
C88 O79 1.240 . S
C88 O80 1.252 . S
O89 In78 2.294 . S
O89 C82 1.240 . S
O90 In78 2.326 . S
O90 C82 1.252 . S
In91 O92 2.294 . S
In91 O93 2.326 . S
In91 O97 2.266 . S
In91 O98 2.326 . S
In91 O99 2.266 . S
In91 O100 2.326 . S
In91 O102 2.294 1_565 S
In91 O103 2.326 1_565 S
O92 In91 2.294 . S
O92 C101 1.240 . S
O93 In91 2.326 . S
O93 C101 1.252 . S
C94 O97 1.252 . S
C94 O98 1.260 . S
C95 O102 1.240 . S
C95 O103 1.252 . S
C96 O99 1.252 . S
C96 O100 1.260 . S
O97 In91 2.266 . S
O97 C94 1.252 . S
O98 In91 2.326 . S
O98 C94 1.260 . S
O99 In91 2.266 . S
O99 C96 1.252 . S
O100 In91 2.326 . S
O100 C96 1.260 . S
C101 O92 1.240 . S
C101 O93 1.252 . S
O102 In91 2.294 1_545 S
O102 C95 1.240 . S
O103 In91 2.326 1_545 S
O103 C95 1.252 . S
In104 O105 2.294 . S
In104 O106 2.326 . S
In104 O110 2.266 . S
In104 O111 2.326 . S
In104 O112 2.266 . S
In104 O113 2.326 . S
In104 O115 2.294 . S
In104 O116 2.326 . S
O105 In104 2.294 . S
O105 C114 1.240 . S
O106 In104 2.326 . S
O106 C114 1.252 . S
C107 O110 1.252 . S
C107 O111 1.260 . S
C108 O115 1.240 . S
C108 O116 1.252 . S
C109 O112 1.295 . S
C109 O113 1.263 . S
O110 In104 2.266 . S
O110 C107 1.252 . S
O111 In104 2.326 . S
O111 C107 1.260 . S
O112 In104 2.266 . S
O112 C109 1.295 . S
O113 In104 2.326 . S
O113 C109 1.263 . S
C114 O105 1.240 . S
C114 O106 1.252 . S
O115 In104 2.294 . S
O115 C108 1.240 . S
O116 In104 2.326 . S
O116 C108 1.252 . S
In117 O118 2.294 . S
In117 O119 2.326 . S
In117 O123 2.266 1_565 S
In117 O124 2.326 1_565 S
In117 O125 2.266 . S
In117 O126 2.326 . S
In117 O128 2.294 . S
In117 O129 2.326 . S
O118 In117 2.294 . S
O118 C127 1.240 . S
O119 In117 2.326 . S
O119 C127 1.252 . S
C120 O123 1.252 . S
C120 O124 1.260 . S
C121 O128 1.240 . S
C121 O129 1.252 . S
C122 O125 1.252 . S
C122 O126 1.260 . S
O123 In117 2.266 1_545 S
O123 C120 1.252 . S
O124 In117 2.326 1_545 S
O124 C120 1.260 . S
O125 In117 2.266 . S
O125 C122 1.252 . S
O126 In117 2.326 . S
O126 C122 1.260 . S
C127 O118 1.240 . S
C127 O119 1.252 . S
O128 In117 2.294 . S
O128 C121 1.240 . S
O129 In117 2.326 . S
O129 C121 1.252 . S
In130 O131 2.294 . S
In130 O132 2.326 . S
In130 O136 2.266 . S
In130 O137 2.326 . S
In130 O138 2.266 . S
In130 O139 2.326 . S
In130 O141 2.294 . S
In130 O142 2.326 . S
O131 In130 2.294 . S
O131 C140 1.240 . S
O132 In130 2.326 . S
O132 C140 1.252 . S
C133 O136 1.256 . S
C133 O137 1.292 . S
C134 O141 1.240 . S
C134 O142 1.252 . S
C135 O138 1.252 . S
C135 O139 1.260 . S
O136 In130 2.266 . S
O136 C133 1.256 . S
O137 In130 2.326 . S
O137 C133 1.292 . S
O138 In130 2.266 . S
O138 C135 1.252 . S
O139 In130 2.326 . S
O139 C135 1.260 . S
C140 O131 1.240 . S
C140 O132 1.252 . S
O141 In130 2.294 . S
O141 C134 1.240 . S
O142 In130 2.326 . S
O142 C134 1.252 . S
In143 O144 2.294 . S
In143 O145 2.326 . S
In143 O149 2.266 . S
In143 O150 2.326 . S
In143 O151 2.266 . S
In143 O152 2.326 . S
In143 O154 2.294 . S
In143 O155 2.326 . S
O144 In143 2.294 . S
O144 C153 1.240 . S
O145 In143 2.326 . S
O145 C153 1.252 . S
C146 O149 1.252 . S
C146 O150 1.260 . S
C147 O154 1.240 . S
C147 O155 1.252 . S
C148 O151 1.252 . S
C148 O152 1.260 . S
O149 In143 2.266 . S
O149 C146 1.252 . S
O150 In143 2.326 . S
O150 C146 1.260 . S
O151 In143 2.266 . S
O151 C148 1.252 . S
O152 In143 2.326 . S
O152 C148 1.260 . S
C153 O144 1.240 . S
C153 O145 1.252 . S
O154 In143 2.294 . S
O154 C147 1.240 . S
O155 In143 2.326 . S
O155 C147 1.252 . S
In156 O157 2.294 . S
In156 O158 2.326 . S
In156 O162 2.266 . S
In156 O163 2.326 . S
In156 O164 2.266 . S
In156 O165 2.326 . S
In156 O167 2.294 . S
In156 O168 2.326 . S
O157 In156 2.294 . S
O157 C166 1.240 . S
O158 In156 2.326 . S
O158 C166 1.252 . S
C159 O162 1.252 . S
C159 O163 1.260 . S
C160 O167 1.240 . S
C160 O168 1.252 . S
C161 O164 1.288 . S
C161 O165 1.262 . S
O162 In156 2.266 . S
O162 C159 1.252 . S
O163 In156 2.326 . S
O163 C159 1.260 . S
O164 In156 2.266 . S
O164 C161 1.288 . S
O165 In156 2.326 . S
O165 C161 1.262 . S
C166 O157 1.240 . S
C166 O158 1.252 . S
O167 In156 2.294 . S
O167 C160 1.240 . S
O168 In156 2.326 . S
O168 C160 1.252 . S
In169 O170 2.294 . S
In169 O171 2.326 . S
In169 O175 2.266 . S
In169 O176 2.326 . S
In169 O177 2.266 1_655 S
In169 O178 2.326 1_655 S
In169 O180 2.294 . S
In169 O181 2.326 . S
O170 In169 2.294 . S
O170 C179 1.240 . S
O171 In169 2.326 . S
O171 C179 1.252 . S
C172 O175 1.252 . S
C172 O176 1.260 . S
C173 O180 1.240 . S
C173 O181 1.252 . S
C174 O177 1.252 . S
C174 O178 1.260 . S
O175 In169 2.266 . S
O175 C172 1.252 . S
O176 In169 2.326 . S
O176 C172 1.260 . S
O177 In169 2.266 1_455 S
O177 C174 1.252 . S
O178 In169 2.326 1_455 S
O178 C174 1.260 . S
C179 O170 1.240 . S
C179 O171 1.252 . S
O180 In169 2.294 . S
O180 C173 1.240 . S
O181 In169 2.326 . S
O181 C173 1.252 . S
In182 O183 2.294 . S
In182 O184 2.326 . S
In182 O188 2.266 . S
In182 O189 2.326 . S
In182 O190 2.266 . S
In182 O191 2.326 . S
In182 O193 2.294 . S
In182 O194 2.326 . S
O183 In182 2.294 . S
O183 C192 1.240 . S
O184 In182 2.326 . S
O184 C192 1.252 . S
C185 O188 1.252 . S
C185 O189 1.260 . S
C186 O193 1.240 . S
C186 O194 1.252 . S
C187 O190 1.252 . S
C187 O191 1.260 . S
O188 In182 2.266 . S
O188 C185 1.252 . S
O189 In182 2.326 . S
O189 C185 1.260 . S
O190 In182 2.266 . S
O190 C187 1.252 . S
O191 In182 2.326 . S
O191 C187 1.260 . S
C192 O183 1.240 . S
C192 O184 1.252 . S
O193 In182 2.294 . S
O193 C186 1.240 . S
O194 In182 2.326 . S
O194 C186 1.252 . S
In195 O196 2.294 . S
In195 O197 2.326 . S
In195 O201 2.266 . S
In195 O202 2.326 . S
In195 O203 2.266 . S
In195 O204 2.326 . S
In195 O206 2.294 . S
In195 O207 2.326 . S
O196 In195 2.294 . S
O196 C205 1.240 . S
O197 In195 2.326 . S
O197 C205 1.252 . S
C198 O201 1.252 . S
C198 O202 1.260 . S
C199 O206 1.240 . S
C199 O207 1.252 . S
C200 O203 1.252 . S
C200 O204 1.260 . S
O201 In195 2.266 . S
O201 C198 1.252 . S
O202 In195 2.326 . S
O202 C198 1.260 . S
O203 In195 2.266 . S
O203 C200 1.252 . S
O204 In195 2.326 . S
O204 C200 1.260 . S
C205 O196 1.240 . S
C205 O197 1.252 . S
O206 In195 2.294 . S
O206 C199 1.240 . S
O207 In195 2.326 . S
O207 C199 1.252 . S
In208 O209 2.294 . S
In208 O210 2.326 . S
In208 O214 2.266 . S
In208 O215 2.326 . S
In208 O216 2.266 . S
In208 O217 2.326 . S
In208 O219 2.294 . S
In208 O220 2.326 . S
O209 In208 2.294 . S
O209 C218 1.240 . S
O210 In208 2.326 . S
O210 C218 1.252 . S
C211 O214 1.252 . S
C211 O215 1.260 . S
C212 O219 1.241 . S
C212 O220 1.263 . S
C213 O216 1.252 . S
C213 O217 1.260 . S
O214 In208 2.266 . S
O214 C211 1.252 . S
O215 In208 2.326 . S
O215 C211 1.260 . S
O216 In208 2.266 . S
O216 C213 1.252 . S
O217 In208 2.326 . S
O217 C213 1.260 . S
C218 O209 1.240 . S
C218 O210 1.252 . S
O219 In208 2.294 . S
O219 C212 1.241 . S
O220 In208 2.326 . S
O220 C212 1.263 . S
In221 O222 2.294 . S
In221 O223 2.326 . S
In221 O227 2.266 . S
In221 O228 2.326 . S
In221 O229 2.266 1_655 S
In221 O230 2.326 1_655 S
In221 O232 2.294 . S
In221 O233 2.326 . S
O222 In221 2.294 . S
O222 C231 1.240 . S
O223 In221 2.326 . S
O223 C231 1.252 . S
C224 O227 1.252 . S
C224 O228 1.260 . S
C225 O232 1.240 . S
C225 O233 1.252 . S
C226 O229 1.252 . S
C226 O230 1.260 . S
O227 In221 2.266 . S
O227 C224 1.252 . S
O228 In221 2.326 . S
O228 C224 1.260 . S
O229 In221 2.266 1_455 S
O229 C226 1.252 . S
O230 In221 2.326 1_455 S
O230 C226 1.260 . S
C231 O222 1.240 . S
C231 O223 1.252 . S
O232 In221 2.294 . S
O232 C225 1.240 . S
O233 In221 2.326 . S
O233 C225 1.252 . S
H234 C242 0.930 . S
H235 C245 0.930 . S
H236 C247 0.930 . S
H237 C248 0.970 . S
H238 C248 0.970 . S
H239 C250 0.930 . S
H240 C252 0.930 . S
H241 C254 0.930 . S
C242 H234 0.930 . S
C242 C243 1.382 . S
C242 C244 1.426 . S
C243 C242 1.382 . S
C243 C247 1.389 . S
C244 C242 1.426 . S
C244 C245 1.375 . S
C244 C248 1.532 . S
C245 H235 0.930 . S
C245 C244 1.375 . S
C245 C246 1.416 . S
C246 C245 1.416 . S
C246 C247 1.371 . S
C247 H236 0.930 . S
C247 C243 1.389 . S
C247 C246 1.371 . S
C248 H237 0.970 . S
C248 H238 0.970 . S
C248 C244 1.532 . S
C248 C249 1.499 . S
C249 C248 1.499 . S
C249 C250 1.370 . S
C249 C254 1.415 . S
C250 H239 0.930 . S
C250 C249 1.370 . S
C250 C251 1.407 . S
C251 C250 1.407 . S
C251 C252 1.365 . S
C252 H240 0.930 . S
C252 C251 1.365 . S
C252 C253 1.393 . S
C253 C252 1.393 . S
C253 C254 1.387 . S
C254 H241 0.930 . S
C254 C249 1.415 . S
C254 C253 1.387 . S
H255 C263 0.930 . S
H256 C266 0.930 . S
H257 C268 0.930 . S
H258 C269 0.970 . S
H259 C269 0.970 . S
H260 C271 0.930 . S
H261 C273 0.930 . S
H262 C275 0.930 . S
C263 H255 0.930 . S
C263 C264 1.382 . S
C263 C265 1.426 . S
C264 C263 1.382 . S
C264 C268 1.389 . S
C265 C263 1.426 . S
C265 C266 1.375 . S
C265 C269 1.532 . S
C266 H256 0.930 . S
C266 C265 1.375 . S
C266 C267 1.416 . S
C267 C266 1.416 . S
C267 C268 1.371 . S
C268 H257 0.930 . S
C268 C264 1.389 . S
C268 C267 1.371 . S
C269 H258 0.970 . S
C269 H259 0.970 . S
C269 C265 1.532 . S
C269 C270 1.499 . S
C270 C269 1.499 . S
C270 C271 1.370 . S
C270 C275 1.415 . S
C271 H260 0.930 . S
C271 C270 1.370 . S
C271 C272 1.407 . S
C272 C271 1.407 . S
C272 C273 1.365 . S
C273 H261 0.930 . S
C273 C272 1.365 . S
C273 C274 1.393 . S
C274 C273 1.393 . S
C274 C275 1.387 . S
C275 H262 0.930 . S
C275 C270 1.415 . S
C275 C274 1.387 . S
H276 C284 0.930 . S
H277 C287 0.930 . S
H278 C289 0.930 . S
H279 C290 0.970 . S
H280 C290 0.970 . S
H281 C292 0.930 . S
H282 C294 0.930 . S
H283 C296 0.930 . S
C284 H276 0.930 . S
C284 C285 1.382 . S
C284 C286 1.426 . S
C285 C284 1.382 . S
C285 C289 1.389 . S
C286 C284 1.426 . S
C286 C287 1.375 . S
C286 C290 1.532 . S
C287 H277 0.930 . S
C287 C286 1.375 . S
C287 C288 1.416 . S
C288 C287 1.416 . S
C288 C289 1.371 . S
C289 H278 0.930 . S
C289 C285 1.389 . S
C289 C288 1.371 . S
C290 H279 0.970 . S
C290 H280 0.970 . S
C290 C286 1.532 . S
C290 C291 1.499 . S
C291 C290 1.499 . S
C291 C292 1.370 . S
C291 C296 1.415 . S
C292 H281 0.930 . S
C292 C291 1.370 . S
C292 C293 1.407 . S
C293 C292 1.407 . S
C293 C294 1.365 . S
C294 H282 0.930 . S
C294 C293 1.365 . S
C294 C295 1.393 . S
C295 C294 1.393 . S
C295 C296 1.387 . S
C296 H283 0.930 . S
C296 C291 1.415 . S
C296 C295 1.387 . S
H297 C305 0.930 . S
H298 C308 0.930 . S
H299 C310 0.930 . S
H300 C311 0.970 . S
H301 C311 0.970 . S
H302 C313 0.930 . S
H303 C315 0.930 . S
H304 C317 0.930 . S
C305 H297 0.930 . S
C305 C306 1.382 . S
C305 C307 1.426 . S
C306 C305 1.382 . S
C306 C310 1.389 . S
C307 C305 1.426 . S
C307 C308 1.375 . S
C307 C311 1.532 . S
C308 H298 0.930 . S
C308 C307 1.375 . S
C308 C309 1.416 . S
C309 C308 1.416 . S
C309 C310 1.371 . S
C310 H299 0.930 . S
C310 C306 1.389 . S
C310 C309 1.371 . S
C311 H300 0.970 . S
C311 H301 0.970 . S
C311 C307 1.532 . S
C311 C312 1.499 . S
C312 C311 1.499 . S
C312 C313 1.370 . S
C312 C317 1.415 . S
C313 H302 0.930 . S
C313 C312 1.370 . S
C313 C314 1.407 . S
C314 C313 1.407 . S
C314 C315 1.365 . S
C315 H303 0.930 . S
C315 C314 1.365 . S
C315 C316 1.393 . S
C316 C315 1.393 . S
C316 C317 1.387 . S
C317 H304 0.930 . S
C317 C312 1.415 . S
C317 C316 1.387 . S
H318 C326 0.930 . S
H319 C329 0.930 . S
H320 C331 0.930 . S
H321 C332 0.970 . S
H322 C332 0.970 . S
H323 C334 0.930 . S
H324 C336 0.930 . S
H325 C338 0.930 . S
C326 H318 0.930 . S
C326 C327 1.382 . S
C326 C328 1.426 . S
C327 C326 1.382 . S
C327 C331 1.389 . S
C328 C326 1.426 . S
C328 C329 1.375 . S
C328 C332 1.532 . S
C329 H319 0.930 . S
C329 C328 1.375 . S
C329 C330 1.416 . S
C330 C329 1.416 . S
C330 C331 1.371 . S
C331 H320 0.930 . S
C331 C327 1.389 . S
C331 C330 1.371 . S
C332 H321 0.970 . S
C332 H322 0.970 . S
C332 C328 1.532 . S
C332 C333 1.499 . S
C333 C332 1.499 . S
C333 C334 1.370 . S
C333 C338 1.415 . S
C334 H323 0.930 . S
C334 C333 1.370 . S
C334 C335 1.407 . S
C335 C334 1.407 . S
C335 C336 1.365 . S
C336 H324 0.930 . S
C336 C335 1.365 . S
C336 C337 1.393 . S
C337 C336 1.393 . S
C337 C338 1.387 . S
C338 H325 0.930 . S
C338 C333 1.415 . S
C338 C337 1.387 . S
H339 C347 0.930 . S
H340 C350 0.930 . S
H341 C352 0.930 . S
H342 C353 0.970 . S
H343 C353 0.970 . S
H344 C355 0.930 . S
H345 C357 0.930 . S
H346 C359 0.930 . S
C347 H339 0.930 . S
C347 C348 1.382 . S
C347 C349 1.426 . S
C348 C347 1.382 . S
C348 C352 1.389 . S
C349 C347 1.426 . S
C349 C350 1.375 . S
C349 C353 1.532 . S
C350 H340 0.930 . S
C350 C349 1.375 . S
C350 C351 1.416 . S
C351 C350 1.416 . S
C351 C352 1.371 . S
C352 H341 0.930 . S
C352 C348 1.389 . S
C352 C351 1.371 . S
C353 H342 0.970 . S
C353 H343 0.970 . S
C353 C349 1.532 . S
C353 C354 1.499 . S
C354 C353 1.499 . S
C354 C355 1.370 . S
C354 C359 1.415 . S
C355 H344 0.930 . S
C355 C354 1.370 . S
C355 C356 1.407 . S
C356 C355 1.407 . S
C356 C357 1.365 . S
C357 H345 0.930 . S
C357 C356 1.365 . S
C357 C358 1.393 . S
C358 C357 1.393 . S
C358 C359 1.387 . S
C359 H346 0.930 . S
C359 C354 1.415 . S
C359 C358 1.387 . S
H360 C368 0.930 . S
H361 C371 0.930 . S
H362 C373 0.930 . S
H363 C374 0.970 . S
H364 C374 0.970 . S
H365 C376 0.930 . S
H366 C378 0.930 . S
H367 C380 0.930 . S
C368 H360 0.930 . S
C368 C369 1.382 . S
C368 C370 1.426 . S
C369 C368 1.382 . S
C369 C373 1.389 . S
C370 C368 1.426 . S
C370 C371 1.375 . S
C370 C374 1.532 . S
C371 H361 0.930 . S
C371 C370 1.375 . S
C371 C372 1.416 . S
C372 C371 1.416 . S
C372 C373 1.371 . S
C373 H362 0.930 . S
C373 C369 1.389 . S
C373 C372 1.371 . S
C374 H363 0.970 . S
C374 H364 0.970 . S
C374 C370 1.532 . S
C374 C375 1.499 . S
C375 C374 1.499 . S
C375 C376 1.370 . S
C375 C380 1.415 . S
C376 H365 0.930 . S
C376 C375 1.370 . S
C376 C377 1.407 . S
C377 C376 1.407 . S
C377 C378 1.365 . S
C378 H366 0.930 . S
C378 C377 1.365 . S
C378 C379 1.393 . S
C379 C378 1.393 . S
C379 C380 1.387 . S
C380 H367 0.930 . S
C380 C375 1.415 . S
C380 C379 1.387 . S
H381 C389 0.930 . S
H382 C392 0.930 . S
H383 C394 0.930 . S
H384 C395 0.970 . S
H385 C395 0.970 . S
H386 C397 0.930 . S
H387 C399 0.930 . S
H388 C401 0.930 . S
C389 H381 0.930 . S
C389 C390 1.382 . S
C389 C391 1.426 . S
C390 C389 1.382 . S
C390 C394 1.389 . S
C391 C389 1.426 . S
C391 C392 1.375 . S
C391 C395 1.532 . S
C392 H382 0.930 . S
C392 C391 1.375 . S
C392 C393 1.416 . S
C393 C392 1.416 . S
C393 C394 1.371 . S
C394 H383 0.930 . S
C394 C390 1.389 . S
C394 C393 1.371 . S
C395 H384 0.970 . S
C395 H385 0.970 . S
C395 C391 1.532 . S
C395 C396 1.499 . S
C396 C395 1.499 . S
C396 C397 1.370 . S
C396 C401 1.415 . S
C397 H386 0.930 . S
C397 C396 1.370 . S
C397 C398 1.407 . S
C398 C397 1.407 . S
C398 C399 1.365 . S
C399 H387 0.930 . S
C399 C398 1.365 . S
C399 C400 1.393 . S
C400 C399 1.393 . S
C400 C401 1.387 . S
C401 H388 0.930 . S
C401 C396 1.415 . S
C401 C400 1.387 . S
H402 C410 0.930 . S
H403 C413 0.930 . S
H404 C415 0.930 . S
H405 C416 0.970 . S
H406 C416 0.970 . S
H407 C418 0.930 . S
H408 C420 0.930 . S
H409 C422 0.930 . S
C410 H402 0.930 . S
C410 C411 1.382 . S
C410 C412 1.426 . S
C411 C410 1.382 . S
C411 C415 1.389 . S
C412 C410 1.426 . S
C412 C413 1.375 . S
C412 C416 1.532 . S
C413 H403 0.930 . S
C413 C412 1.375 . S
C413 C414 1.416 . S
C414 C413 1.416 . S
C414 C415 1.371 . S
C415 H404 0.930 . S
C415 C411 1.389 . S
C415 C414 1.371 . S
C416 H405 0.970 . S
C416 H406 0.970 . S
C416 C412 1.532 . S
C416 C417 1.499 . S
C417 C416 1.499 . S
C417 C418 1.370 . S
C417 C422 1.415 . S
C418 H407 0.930 . S
C418 C417 1.370 . S
C418 C419 1.407 . S
C419 C418 1.407 . S
C419 C420 1.365 . S
C420 H408 0.930 . S
C420 C419 1.365 . S
C420 C421 1.393 . S
C421 C420 1.393 . S
C421 C422 1.387 . S
C422 H409 0.930 . S
C422 C417 1.415 . S
C422 C421 1.387 . S
H423 C431 0.930 . S
H424 C434 0.930 . S
H425 C436 0.930 . S
H426 C437 0.970 . S
H427 C437 0.970 . S
H428 C439 0.930 . S
H429 C441 0.930 . S
H430 C443 0.930 . S
C431 H423 0.930 . S
C431 C432 1.382 . S
C431 C433 1.426 . S
C432 C431 1.382 . S
C432 C436 1.389 . S
C433 C431 1.426 . S
C433 C434 1.375 . S
C433 C437 1.532 . S
C434 H424 0.930 . S
C434 C433 1.375 . S
C434 C435 1.416 . S
C435 C434 1.416 . S
C435 C436 1.371 . S
C436 H425 0.930 . S
C436 C432 1.389 . S
C436 C435 1.371 . S
C437 H426 0.970 . S
C437 H427 0.970 . S
C437 C433 1.532 . S
C437 C438 1.499 . S
C438 C437 1.499 . S
C438 C439 1.370 . S
C438 C443 1.415 . S
C439 H428 0.930 . S
C439 C438 1.370 . S
C439 C440 1.407 . S
C440 C439 1.407 . S
C440 C441 1.365 . S
C441 H429 0.930 . S
C441 C440 1.365 . S
C441 C442 1.393 . S
C442 C441 1.393 . S
C442 C443 1.387 . S
C443 H430 0.930 . S
C443 C438 1.415 . S
C443 C442 1.387 . S
H444 C452 0.930 . S
H445 C455 0.930 . S
H446 C457 0.930 . S
H447 C458 0.970 . S
H448 C458 0.970 . S
H449 C460 0.930 . S
H450 C462 0.930 . S
H451 C464 0.930 . S
C452 H444 0.930 . S
C452 C453 1.382 . S
C452 C454 1.426 . S
C453 C452 1.382 . S
C453 C457 1.389 . S
C454 C452 1.426 . S
C454 C455 1.375 . S
C454 C458 1.532 . S
C455 H445 0.930 . S
C455 C454 1.375 . S
C455 C456 1.416 . S
C456 C455 1.416 . S
C456 C457 1.371 . S
C457 H446 0.930 . S
C457 C453 1.389 . S
C457 C456 1.371 . S
C458 H447 0.970 . S
C458 H448 0.970 . S
C458 C454 1.532 . S
C458 C459 1.499 . S
C459 C458 1.499 . S
C459 C460 1.370 . S
C459 C464 1.415 . S
C460 H449 0.930 . S
C460 C459 1.370 . S
C460 C461 1.407 . S
C461 C460 1.407 . S
C461 C462 1.365 . S
C462 H450 0.930 . S
C462 C461 1.365 . S
C462 C463 1.393 . S
C463 C462 1.393 . S
C463 C464 1.387 . S
C464 H451 0.930 . S
C464 C459 1.415 . S
C464 C463 1.387 . S
H465 C473 0.930 . S
H466 C476 0.930 . S
H467 C478 0.930 . S
H468 C479 0.970 . S
H469 C479 0.970 . S
H470 C481 0.930 . S
H471 C483 0.930 . S
H472 C485 0.930 . S
C473 H465 0.930 . S
C473 C474 1.382 . S
C473 C475 1.426 . S
C474 C473 1.382 . S
C474 C478 1.389 1_565 S
C475 C473 1.426 . S
C475 C476 1.375 . S
C475 C479 1.532 . S
C476 H466 0.930 . S
C476 C475 1.375 . S
C476 C477 1.416 . S
C477 C476 1.416 . S
C477 C478 1.371 1_565 S
C478 H467 0.930 . S
C478 C474 1.389 1_545 S
C478 C477 1.371 1_545 S
C479 H468 0.970 . S
C479 H469 0.970 . S
C479 C475 1.532 . S
C479 C480 1.499 . S
C480 C479 1.499 . S
C480 C481 1.370 . S
C480 C485 1.415 . S
C481 H470 0.930 . S
C481 C480 1.370 . S
C481 C482 1.443 . S
C482 C481 1.443 . S
C482 C483 1.350 1_565 S
C483 H471 0.930 . S
C483 C482 1.350 1_545 S
C483 C484 1.393 1_545 S
C484 C483 1.393 1_565 S
C484 C485 1.387 . S
C485 H472 0.930 . S
C485 C480 1.415 . S
C485 C484 1.387 . S
H486 C494 0.965 . S
H487 C497 0.930 . S
H488 C499 0.930 . S
H489 C500 0.970 . S
H490 C500 0.970 . S
H491 C502 0.930 1_565 S
H492 C504 0.930 . S
H493 C506 0.930 1_565 S
C494 H486 0.965 . S
C494 C495 1.326 1_565 S
C494 C496 1.450 . S
C495 C494 1.326 1_545 S
C495 C499 1.389 . S
C496 C494 1.450 . S
C496 C497 1.375 1_565 S
C496 C500 1.532 . S
C497 H487 0.930 . S
C497 C496 1.375 1_545 S
C497 C498 1.416 . S
C498 C497 1.416 . S
C498 C499 1.371 . S
C499 H488 0.930 . S
C499 C495 1.389 . S
C499 C498 1.371 . S
C500 H489 0.970 . S
C500 H490 0.970 . S
C500 C496 1.532 . S
C500 C501 1.499 . S
C501 C500 1.499 . S
C501 C502 1.370 1_565 S
C501 C506 1.415 1_565 S
C502 H491 0.930 1_545 S
C502 C501 1.370 1_545 S
C502 C503 1.407 . S
C503 C502 1.407 . S
C503 C504 1.365 . S
C504 H492 0.930 . S
C504 C503 1.365 . S
C504 C505 1.393 . S
C505 C504 1.393 . S
C505 C506 1.387 . S
C506 H493 0.930 1_545 S
C506 C501 1.415 1_545 S
C506 C505 1.387 . S
H507 C515 0.930 . S
H508 C518 0.930 . S
H509 C520 0.930 . S
H510 C521 0.970 . S
H511 C521 0.970 . S
H512 C523 0.930 . S
H513 C525 0.930 . S
H514 C527 0.930 . S
C515 H507 0.930 . S
C515 C516 1.382 . S
C515 C517 1.426 . S
C516 C515 1.382 . S
C516 C520 1.389 1_455 S
C517 C515 1.426 . S
C517 C518 1.375 . S
C517 C521 1.532 . S
C518 H508 0.930 . S
C518 C517 1.375 . S
C518 C519 1.421 . S
C519 C518 1.421 . S
C519 C520 1.381 1_455 S
C520 H509 0.930 . S
C520 C516 1.389 1_655 S
C520 C519 1.381 1_655 S
C521 H510 0.970 . S
C521 H511 0.970 . S
C521 C517 1.532 . S
C521 C522 1.499 . S
C522 C521 1.499 . S
C522 C523 1.370 . S
C522 C527 1.415 . S
C523 H512 0.930 . S
C523 C522 1.370 . S
C523 C524 1.407 . S
C524 C523 1.407 . S
C524 C525 1.365 1_455 S
C525 H513 0.930 . S
C525 C524 1.365 1_655 S
C525 C526 1.393 1_655 S
C526 C525 1.393 1_455 S
C526 C527 1.387 . S
C527 H514 0.930 . S
C527 C522 1.415 . S
C527 C526 1.387 . S
H528 C536 0.930 . S
H529 C539 0.930 . S
H530 C541 0.930 . S
H531 C542 0.970 . S
H532 C542 0.970 . S
H533 C544 0.930 . S
H534 C546 0.930 . S
H535 C548 0.930 . S
C536 H528 0.930 . S
C536 C537 1.382 . S
C536 C538 1.426 . S
C537 C536 1.382 . S
C537 C541 1.389 . S
C538 C536 1.426 . S
C538 C539 1.375 . S
C538 C542 1.532 . S
C539 H529 0.930 . S
C539 C538 1.375 . S
C539 C540 1.416 . S
C540 C539 1.416 . S
C540 C541 1.371 . S
C541 H530 0.930 . S
C541 C537 1.389 . S
C541 C540 1.371 . S
C542 H531 0.970 . S
C542 H532 0.970 . S
C542 C538 1.532 . S
C542 C543 1.499 . S
C543 C542 1.499 . S
C543 C544 1.370 . S
C543 C548 1.415 . S
C544 H533 0.930 . S
C544 C543 1.370 . S
C544 C545 1.407 . S
C545 C544 1.407 . S
C545 C546 1.365 . S
C546 H534 0.930 . S
C546 C545 1.365 . S
C546 C547 1.393 . S
C547 C546 1.393 . S
C547 C548 1.387 . S
C548 H535 0.930 . S
C548 C543 1.415 . S
C548 C547 1.387 . S
H549 C557 0.930 . S
H550 C560 0.930 . S
H551 C562 0.930 . S
H552 C563 0.970 . S
H553 C563 0.970 . S
H554 C565 0.930 . S
H555 C567 0.930 . S
H556 C569 0.930 . S
C557 H549 0.930 . S
C557 C558 1.382 . S
C557 C559 1.426 . S
C558 C557 1.382 . S
C558 C562 1.389 . S
C559 C557 1.426 . S
C559 C560 1.375 . S
C559 C563 1.532 . S
C560 H550 0.930 . S
C560 C559 1.375 . S
C560 C561 1.416 . S
C561 C560 1.416 . S
C561 C562 1.371 . S
C562 H551 0.930 . S
C562 C558 1.389 . S
C562 C561 1.371 . S
C563 H552 0.970 . S
C563 H553 0.970 . S
C563 C559 1.532 . S
C563 C564 1.499 . S
C564 C563 1.499 . S
C564 C565 1.370 . S
C564 C569 1.415 . S
C565 H554 0.930 . S
C565 C564 1.370 . S
C565 C566 1.407 . S
C566 C565 1.407 . S
C566 C567 1.365 . S
C567 H555 0.930 . S
C567 C566 1.365 . S
C567 C568 1.393 . S
C568 C567 1.393 . S
C568 C569 1.387 . S
C569 H556 0.930 . S
C569 C564 1.415 . S
C569 C568 1.387 . S
H570 C578 0.930 . S
H571 C581 0.930 . S
H572 C583 0.930 . S
H573 C584 0.970 . S
H574 C584 0.970 . S
H575 C586 0.930 . S
H576 C588 0.930 . S
H577 C590 0.930 . S
C578 H570 0.930 . S
C578 C579 1.382 . S
C578 C580 1.426 . S
C579 C578 1.382 . S
C579 C583 1.389 . S
C580 C578 1.426 . S
C580 C581 1.375 . S
C580 C584 1.532 . S
C581 H571 0.930 . S
C581 C580 1.375 . S
C581 C582 1.416 . S
C582 C581 1.416 . S
C582 C583 1.371 . S
C583 H572 0.930 . S
C583 C579 1.389 . S
C583 C582 1.371 . S
C584 H573 0.970 . S
C584 H574 0.970 . S
C584 C580 1.532 . S
C584 C585 1.499 . S
C585 C584 1.499 . S
C585 C586 1.370 . S
C585 C590 1.415 . S
C586 H575 0.930 . S
C586 C585 1.370 . S
C586 C587 1.407 . S
C587 C586 1.407 . S
C587 C588 1.365 . S
C588 H576 0.930 . S
C588 C587 1.365 . S
C588 C589 1.393 . S
C589 C588 1.393 . S
C589 C590 1.387 . S
C590 H577 0.930 . S
C590 C585 1.415 . S
C590 C589 1.387 . S
H591 C599 0.930 . S
H592 C602 0.930 . S
H593 C604 0.930 . S
H594 C605 0.970 . S
H595 C605 0.970 . S
H596 C607 0.930 . S
H597 C609 0.930 . S
H598 C611 0.930 . S
C599 H591 0.930 . S
C599 C600 1.382 . S
C599 C601 1.426 . S
C600 C599 1.382 . S
C600 C604 1.389 . S
C601 C599 1.426 . S
C601 C602 1.375 . S
C601 C605 1.532 . S
C602 H592 0.930 . S
C602 C601 1.375 . S
C602 C603 1.416 . S
C603 C602 1.416 . S
C603 C604 1.371 . S
C604 H593 0.930 . S
C604 C600 1.389 . S
C604 C603 1.371 . S
C605 H594 0.970 . S
C605 H595 0.970 . S
C605 C601 1.532 . S
C605 C606 1.499 . S
C606 C605 1.499 . S
C606 C607 1.370 . S
C606 C611 1.415 . S
C607 H596 0.930 . S
C607 C606 1.370 . S
C607 C608 1.407 . S
C608 C607 1.407 . S
C608 C609 1.365 . S
C609 H597 0.930 . S
C609 C608 1.365 . S
C609 C610 1.393 . S
C610 C609 1.393 . S
C610 C611 1.387 . S
C611 H598 0.930 . S
C611 C606 1.415 . S
C611 C610 1.387 . S
C612 C613 1.349 . S
C612 C614 1.327 . S
C612 H637 0.950 . S
C613 C612 1.349 . S
C613 C629 1.349 1_455 S
C614 C612 1.327 . S
C614 C633 1.429 . S
C614 H638 0.950 . S
C615 C632 1.574 . S
C615 C634 1.368 1_655 S
C615 H639 0.949 . S
H616 C620 0.949 . S
C617 C618 1.349 1_655 S
C617 C619 1.327 . S
C617 H640 0.950 . S
C618 C617 1.349 1_455 S
C618 C630 1.349 . S
C619 C617 1.327 . S
C619 C635 1.429 1_655 S
C619 H641 0.950 . S
C620 H616 0.949 . S
C620 C628 1.574 . S
C620 C636 1.368 . S
H621 C629 0.950 . S
H622 C627 0.950 . S
H623 C628 0.949 . S
H624 C630 0.950 . S
H625 C631 0.950 . S
H626 C632 0.949 . S
C627 H622 0.950 . S
C627 C629 1.327 . S
C627 C633 1.429 1_655 S
C628 C620 1.574 . S
C628 H623 0.949 . S
C628 C634 1.368 . S
C629 C613 1.349 1_655 S
C629 H621 0.950 . S
C629 C627 1.327 . S
C630 C618 1.349 . S
C630 H624 0.950 . S
C630 C631 1.327 . S
C631 H625 0.950 . S
C631 C630 1.327 . S
C631 C635 1.429 . S
C632 C615 1.574 . S
C632 H626 0.949 . S
C632 C636 1.368 1_655 S
C633 C614 1.429 . S
C633 C627 1.429 1_455 S
C633 C634 1.523 . S
C634 C615 1.368 1_455 S
C634 C628 1.368 . S
C634 C633 1.523 . S
C635 C619 1.429 1_455 S
C635 C631 1.429 . S
C635 C636 1.523 . S
C636 C620 1.368 . S
C636 C632 1.368 1_455 S
C636 C635 1.523 . S
H637 C612 0.950 . S
H638 C614 0.950 . S
H639 C615 0.949 . S
H640 C617 0.950 . S
H641 C619 0.950 . S
C642 C643 1.349 . S
C642 C644 1.327 . S
C642 H667 0.950 . S
C643 C642 1.349 . S
C643 C659 1.349 . S
C644 C642 1.327 . S
C644 C663 1.429 . S
C644 H668 0.950 . S
C645 C662 1.574 . S
C645 C664 1.368 . S
C645 H669 0.949 . S
H646 C650 0.949 . S
C647 C648 1.349 . S
C647 C649 1.327 . S
C647 H670 0.950 . S
C648 C647 1.349 . S
C648 C660 1.349 . S
C649 C647 1.327 . S
C649 C665 1.429 . S
C649 H671 0.950 . S
C650 H646 0.949 . S
C650 C658 1.574 . S
C650 C666 1.368 . S
H651 C659 0.950 . S
H652 C657 0.950 . S
H653 C658 0.949 . S
H654 C660 0.950 . S
H655 C661 0.950 . S
H656 C662 0.949 . S
C657 H652 0.950 . S
C657 C659 1.327 . S
C657 C663 1.429 . S
C658 C650 1.574 . S
C658 H653 0.949 . S
C658 C664 1.368 . S
C659 C643 1.349 . S
C659 H651 0.950 . S
C659 C657 1.327 . S
C660 C648 1.349 . S
C660 H654 0.950 . S
C660 C661 1.327 . S
C661 H655 0.950 . S
C661 C660 1.327 . S
C661 C665 1.429 . S
C662 C645 1.574 . S
C662 H656 0.949 . S
C662 C666 1.368 . S
C663 C644 1.429 . S
C663 C657 1.429 . S
C663 C664 1.523 . S
C664 C645 1.368 . S
C664 C658 1.368 . S
C664 C663 1.523 . S
C665 C649 1.429 . S
C665 C661 1.429 . S
C665 C666 1.523 . S
C666 C650 1.368 . S
C666 C662 1.368 . S
C666 C665 1.523 . S
H667 C642 0.950 . S
H668 C644 0.950 . S
H669 C645 0.949 . S
H670 C647 0.950 . S
H671 C649 0.950 . S
C672 C673 1.349 . S
C672 C674 1.327 . S
C672 H697 0.950 . S
C673 C672 1.349 . S
C673 C689 1.349 1_545 S
C674 C672 1.327 . S
C674 C693 1.429 . S
C674 H698 0.950 . S
C675 C692 1.574 . S
C675 C694 1.368 1_565 S
C675 H699 0.949 . S
H676 C680 0.949 . S
C677 C678 1.349 1_565 S
C677 C679 1.327 . S
C677 H700 0.950 . S
C678 C677 1.349 1_545 S
C678 C690 1.349 . S
C679 C677 1.327 . S
C679 C695 1.429 1_565 S
C679 H701 0.950 . S
C680 H676 0.949 . S
C680 C688 1.574 . S
C680 C696 1.368 . S
H681 C689 0.950 . S
H682 C687 0.950 . S
H683 C688 0.949 . S
H684 C690 0.950 . S
H685 C691 0.950 . S
H686 C692 0.949 . S
C687 H682 0.950 . S
C687 C689 1.327 . S
C687 C693 1.429 1_565 S
C688 C680 1.574 . S
C688 H683 0.949 . S
C688 C694 1.368 . S
C689 C673 1.349 1_565 S
C689 H681 0.950 . S
C689 C687 1.327 . S
C690 C678 1.349 . S
C690 H684 0.950 . S
C690 C691 1.327 . S
C691 H685 0.950 . S
C691 C690 1.327 . S
C691 C695 1.429 . S
C692 C675 1.574 . S
C692 H686 0.949 . S
C692 C696 1.368 1_565 S
C693 C674 1.429 . S
C693 C687 1.429 1_545 S
C693 C694 1.523 . S
C694 C675 1.368 1_545 S
C694 C688 1.368 . S
C694 C693 1.523 . S
C695 C679 1.429 1_545 S
C695 C691 1.429 . S
C695 C696 1.523 . S
C696 C680 1.368 . S
C696 C692 1.368 1_545 S
C696 C695 1.523 . S
H697 C672 0.950 . S
H698 C674 0.950 . S
H699 C675 0.949 . S
H700 C677 0.950 . S
H701 C679 0.950 . S
C702 C703 1.349 . S
C702 C704 1.327 . S
C702 H727 0.950 . S
C703 C702 1.349 . S
C703 C719 1.349 1_545 S
C704 C702 1.327 . S
C704 C723 1.429 . S
C704 H728 0.950 . S
C705 C722 1.574 . S
C705 C724 1.368 1_565 S
C705 H729 0.949 . S
H706 C710 0.949 . S
C707 C708 1.349 1_565 S
C707 C709 1.327 . S
C707 H730 0.950 . S
C708 C707 1.349 1_545 S
C708 C720 1.349 . S
C709 C707 1.327 . S
C709 C725 1.429 1_565 S
C709 H731 0.950 . S
C710 H706 0.949 . S
C710 C718 1.574 . S
C710 C726 1.368 . S
H711 C719 0.950 . S
H712 C717 0.950 . S
H713 C718 0.949 . S
H714 C720 0.950 . S
H715 C721 0.950 . S
H716 C722 0.949 . S
C717 H712 0.950 . S
C717 C719 1.327 . S
C717 C723 1.429 1_565 S
C718 C710 1.574 . S
C718 H713 0.949 . S
C718 C724 1.368 . S
C719 C703 1.349 1_565 S
C719 H711 0.950 . S
C719 C717 1.327 . S
C720 C708 1.349 . S
C720 H714 0.950 . S
C720 C721 1.327 . S
C721 H715 0.950 . S
C721 C720 1.327 . S
C721 C725 1.429 . S
C722 C705 1.574 . S
C722 H716 0.949 . S
C722 C726 1.368 1_565 S
C723 C704 1.429 . S
C723 C717 1.429 1_545 S
C723 C724 1.523 . S
C724 C705 1.368 1_545 S
C724 C718 1.368 . S
C724 C723 1.523 . S
C725 C709 1.429 1_545 S
C725 C721 1.429 . S
C725 C726 1.523 . S
C726 C710 1.368 . S
C726 C722 1.368 1_545 S
C726 C725 1.523 . S
H727 C702 0.950 . S
H728 C704 0.950 . S
H729 C705 0.949 . S
H730 C707 0.950 . S
H731 C709 0.950 . S
C732 C733 1.349 . S
C732 C734 1.327 . S
C732 H757 0.950 . S
C733 C732 1.349 . S
C733 C749 1.349 1_455 S
C734 C732 1.327 . S
C734 C753 1.429 . S
C734 H758 0.950 . S
C735 C752 1.574 . S
C735 C754 1.368 1_655 S
C735 H759 0.949 . S
H736 C740 0.949 . S
C737 C738 1.349 1_655 S
C737 C739 1.327 . S
C737 H760 0.950 . S
C738 C737 1.349 1_455 S
C738 C750 1.349 . S
C739 C737 1.327 . S
C739 C755 1.429 1_655 S
C739 H761 0.950 . S
C740 H736 0.949 . S
C740 C748 1.574 . S
C740 C756 1.368 . S
H741 C749 0.950 . S
H742 C747 0.950 . S
H743 C748 0.949 . S
H744 C750 0.950 . S
H745 C751 0.950 . S
H746 C752 0.949 . S
C747 H742 0.950 . S
C747 C749 1.327 . S
C747 C753 1.429 1_655 S
C748 C740 1.574 . S
C748 H743 0.949 . S
C748 C754 1.368 . S
C749 C733 1.349 1_655 S
C749 H741 0.950 . S
C749 C747 1.327 . S
C750 C738 1.349 . S
C750 H744 0.950 . S
C750 C751 1.327 . S
C751 H745 0.950 . S
C751 C750 1.327 . S
C751 C755 1.429 . S
C752 C735 1.574 . S
C752 H746 0.949 . S
C752 C756 1.368 1_655 S
C753 C734 1.429 . S
C753 C747 1.429 1_455 S
C753 C754 1.523 . S
C754 C735 1.368 1_455 S
C754 C748 1.368 . S
C754 C753 1.523 . S
C755 C739 1.429 1_455 S
C755 C751 1.429 . S
C755 C756 1.523 . S
C756 C740 1.368 . S
C756 C752 1.368 1_455 S
C756 C755 1.523 . S
H757 C732 0.950 . S
H758 C734 0.950 . S
H759 C735 0.949 . S
H760 C737 0.950 . S
H761 C739 0.950 . S
C762 C763 1.349 . S
C762 C764 1.327 . S
C762 H787 0.950 . S
C763 C762 1.349 . S
C763 C779 1.349 . S
C764 C762 1.327 . S
C764 C783 1.429 . S
C764 H788 0.950 . S
C765 C782 1.574 . S
C765 C784 1.368 . S
C765 H789 0.949 . S
H766 C770 0.949 . S
C767 C768 1.349 . S
C767 C769 1.327 . S
C767 H790 0.950 . S
C768 C767 1.349 . S
C768 C780 1.349 . S
C769 C767 1.327 . S
C769 C785 1.429 . S
C769 H791 0.950 . S
C770 H766 0.949 . S
C770 C778 1.574 . S
C770 C786 1.368 . S
H771 C779 0.950 . S
H772 C777 0.950 . S
H773 C778 0.949 . S
H774 C780 0.950 . S
H775 C781 0.950 . S
H776 C782 0.949 . S
C777 H772 0.950 . S
C777 C779 1.327 . S
C777 C783 1.429 . S
C778 C770 1.574 . S
C778 H773 0.949 . S
C778 C784 1.368 . S
C779 C763 1.349 . S
C779 H771 0.950 . S
C779 C777 1.327 . S
C780 C768 1.349 . S
C780 H774 0.950 . S
C780 C781 1.327 . S
C781 H775 0.950 . S
C781 C780 1.327 . S
C781 C785 1.429 . S
C782 C765 1.574 . S
C782 H776 0.949 . S
C782 C786 1.368 . S
C783 C764 1.429 . S
C783 C777 1.429 . S
C783 C784 1.523 . S
C784 C765 1.368 . S
C784 C778 1.368 . S
C784 C783 1.523 . S
C785 C769 1.429 . S
C785 C781 1.429 . S
C785 C786 1.523 . S
C786 C770 1.368 . S
C786 C782 1.368 . S
C786 C785 1.523 . S
H787 C762 0.950 . S
H788 C764 0.950 . S
H789 C765 0.949 . S
H790 C767 0.950 . S
H791 C769 0.950 . S
C792 C793 1.349 . S
C792 C794 1.327 . S
C792 H817 0.950 . S
C793 C792 1.349 . S
C793 C809 1.349 1_455 S
C794 C792 1.327 . S
C794 C813 1.429 . S
C794 H818 0.950 . S
C795 C812 1.574 . S
C795 C814 1.368 1_655 S
C795 H819 0.949 . S
H796 C800 0.949 . S
C797 C798 1.311 1_655 S
C797 C799 1.327 . S
C797 H820 0.950 . S
C798 C797 1.311 1_455 S
C798 C810 1.369 . S
C799 C797 1.327 . S
C799 C815 1.429 1_655 S
C799 H821 0.950 . S
C800 H796 0.949 . S
C800 C808 1.574 . S
C800 C816 1.368 . S
H801 C809 0.950 . S
H802 C807 0.950 . S
H803 C808 0.949 . S
H804 C810 0.950 . S
H805 C811 0.950 . S
H806 C812 0.949 . S
C807 H802 0.950 . S
C807 C809 1.327 . S
C807 C813 1.429 1_655 S
C808 C800 1.574 . S
C808 H803 0.949 . S
C808 C814 1.368 . S
C809 C793 1.349 1_655 S
C809 H801 0.950 . S
C809 C807 1.327 . S
C810 C798 1.369 . S
C810 H804 0.950 . S
C810 C811 1.327 . S
C811 H805 0.950 . S
C811 C810 1.327 . S
C811 C815 1.429 . S
C812 C795 1.574 . S
C812 H806 0.949 . S
C812 C816 1.368 1_655 S
C813 C794 1.429 . S
C813 C807 1.429 1_455 S
C813 C814 1.523 . S
C814 C795 1.368 1_455 S
C814 C808 1.368 . S
C814 C813 1.523 . S
C815 C799 1.429 1_455 S
C815 C811 1.429 . S
C815 C816 1.523 . S
C816 C800 1.368 . S
C816 C812 1.368 1_455 S
C816 C815 1.523 . S
H817 C792 0.950 . S
H818 C794 0.950 . S
H819 C795 0.949 . S
H820 C797 0.950 . S
H821 C799 0.950 . S
C822 C823 1.349 . S
C822 C824 1.327 . S
C822 H847 0.950 . S
C823 C822 1.349 . S
C823 C839 1.349 . S
C824 C822 1.327 . S
C824 C843 1.429 . S
C824 H848 0.950 . S
C825 C842 1.574 . S
C825 C844 1.368 . S
C825 H849 0.949 . S
H826 C830 0.949 . S
C827 C828 1.349 . S
C827 C829 1.327 . S
C827 H850 0.950 . S
C828 C827 1.349 . S
C828 C840 1.349 . S
C829 C827 1.327 . S
C829 C845 1.429 . S
C829 H851 0.950 . S
C830 H826 0.949 . S
C830 C838 1.574 . S
C830 C846 1.368 . S
H831 C839 0.950 . S
H832 C837 0.950 . S
H833 C838 0.949 . S
H834 C840 0.950 . S
H835 C841 0.950 . S
H836 C842 0.949 . S
C837 H832 0.950 . S
C837 C839 1.327 . S
C837 C843 1.429 . S
C838 C830 1.574 . S
C838 H833 0.949 . S
C838 C844 1.368 . S
C839 C823 1.349 . S
C839 H831 0.950 . S
C839 C837 1.327 . S
C840 C828 1.349 . S
C840 H834 0.950 . S
C840 C841 1.327 . S
C841 H835 0.950 . S
C841 C840 1.327 . S
C841 C845 1.429 . S
C842 C825 1.574 . S
C842 H836 0.949 . S
C842 C846 1.368 . S
C843 C824 1.429 . S
C843 C837 1.429 . S
C843 C844 1.523 . S
C844 C825 1.368 . S
C844 C838 1.368 . S
C844 C843 1.523 . S
C845 C829 1.429 . S
C845 C841 1.429 . S
C845 C846 1.523 . S
C846 C830 1.368 . S
C846 C842 1.368 . S
C846 C845 1.523 . S
H847 C822 0.950 . S
H848 C824 0.950 . S
H849 C825 0.949 . S
H850 C827 0.950 . S
H851 C829 0.950 . S
C852 C853 1.349 1_565 S
C852 C854 1.327 . S
C852 H877 0.950 . S
C853 C852 1.349 1_545 S
C853 C869 1.349 . S
C854 C852 1.327 . S
C854 C873 1.429 1_565 S
C854 H878 0.950 . S
C855 C872 1.574 . S
C855 C874 1.368 . S
C855 H879 0.949 . S
H856 C860 0.949 . S
C857 C858 1.349 . S
C857 C859 1.327 . S
C857 H880 0.950 . S
C858 C857 1.349 . S
C858 C870 1.354 . S
C859 C857 1.327 . S
C859 C875 1.429 . S
C859 H881 0.950 . S
C860 H856 0.949 . S
C860 C868 1.574 . S
C860 C876 1.368 1_565 S
H861 C869 0.950 . S
H862 C867 0.950 . S
H863 C868 0.949 . S
H864 C870 0.948 1_565 S
H865 C871 0.980 . S
H866 C872 0.949 . S
C867 H862 0.950 . S
C867 C869 1.327 . S
C867 C873 1.429 . S
C868 C860 1.574 . S
C868 H863 0.949 . S
C868 C874 1.368 1_565 S
C869 C853 1.349 . S
C869 H861 0.950 . S
C869 C867 1.327 . S
C870 C858 1.354 . S
C870 H864 0.948 1_545 S
C870 C871 1.307 1_545 S
C871 H865 0.980 . S
C871 C870 1.307 1_565 S
C871 C875 1.417 1_565 S
C872 C855 1.574 . S
C872 H866 0.949 . S
C872 C876 1.368 . S
C873 C854 1.429 1_545 S
C873 C867 1.429 . S
C873 C874 1.523 . S
C874 C855 1.368 . S
C874 C868 1.368 1_545 S
C874 C873 1.523 . S
C875 C859 1.429 . S
C875 C871 1.417 1_545 S
C875 C876 1.523 . S
C876 C860 1.368 1_545 S
C876 C872 1.368 . S
C876 C875 1.523 . S
H877 C852 0.950 . S
H878 C854 0.950 . S
H879 C855 0.949 . S
H880 C857 0.950 . S
H881 C859 0.950 . S
C882 C883 1.349 . S
C882 C884 1.327 . S
C882 H907 0.950 . S
C883 C882 1.349 . S
C883 C899 1.349 1_545 S
C884 C882 1.327 . S
C884 C903 1.429 . S
C884 H908 0.950 . S
C885 C902 1.574 . S
C885 C904 1.368 1_565 S
C885 H909 0.949 . S
H886 C890 0.949 . S
C887 C888 1.296 1_565 S
C887 C889 1.327 . S
C887 H910 0.950 . S
C888 C887 1.296 1_545 S
C888 C900 1.384 . S
C889 C887 1.327 . S
C889 C905 1.429 1_565 S
C889 H911 0.950 . S
C890 H886 0.949 . S
C890 C898 1.574 . S
C890 C906 1.368 . S
H891 C899 0.950 . S
H892 C897 0.950 . S
H893 C898 0.949 . S
H894 C900 0.950 . S
H895 C901 0.950 . S
H896 C902 0.949 . S
C897 H892 0.950 . S
C897 C899 1.327 . S
C897 C903 1.429 1_565 S
C898 C890 1.574 . S
C898 H893 0.949 . S
C898 C904 1.368 . S
C899 C883 1.349 1_565 S
C899 H891 0.950 . S
C899 C897 1.327 . S
C900 C888 1.384 . S
C900 H894 0.950 . S
C900 C901 1.327 . S
C901 H895 0.950 . S
C901 C900 1.327 . S
C901 C905 1.429 . S
C902 C885 1.574 . S
C902 H896 0.949 . S
C902 C906 1.368 1_565 S
C903 C884 1.429 . S
C903 C897 1.429 1_545 S
C903 C904 1.523 . S
C904 C885 1.368 1_545 S
C904 C898 1.368 . S
C904 C903 1.523 . S
C905 C889 1.429 1_545 S
C905 C901 1.429 . S
C905 C906 1.523 . S
C906 C890 1.368 . S
C906 C902 1.368 1_545 S
C906 C905 1.523 . S
H907 C882 0.950 . S
H908 C884 0.950 . S
H909 C885 0.949 . S
H910 C887 0.950 . S
H911 C889 0.950 . S
C912 C913 1.349 . S
C912 C914 1.327 . S
C912 H937 0.950 . S
C913 C912 1.349 . S
C913 C929 1.349 . S
C914 C912 1.327 . S
C914 C933 1.429 . S
C914 H938 0.950 . S
C915 C932 1.574 . S
C915 C934 1.368 . S
C915 H939 0.949 . S
H916 C920 0.949 . S
C917 C918 1.349 . S
C917 C919 1.327 . S
C917 H940 0.950 . S
C918 C917 1.349 . S
C918 C930 1.349 . S
C919 C917 1.327 . S
C919 C935 1.429 . S
C919 H941 0.950 . S
C920 H916 0.949 . S
C920 C928 1.574 . S
C920 C936 1.368 . S
H921 C929 0.950 . S
H922 C927 0.950 . S
H923 C928 0.949 . S
H924 C930 0.950 . S
H925 C931 0.950 . S
H926 C932 0.949 . S
C927 H922 0.950 . S
C927 C929 1.327 . S
C927 C933 1.429 . S
C928 C920 1.574 . S
C928 H923 0.949 . S
C928 C934 1.368 . S
C929 C913 1.349 . S
C929 H921 0.950 . S
C929 C927 1.327 . S
C930 C918 1.349 . S
C930 H924 0.950 . S
C930 C931 1.327 . S
C931 H925 0.950 . S
C931 C930 1.327 . S
C931 C935 1.429 . S
C932 C915 1.574 . S
C932 H926 0.949 . S
C932 C936 1.368 . S
C933 C914 1.429 . S
C933 C927 1.429 . S
C933 C934 1.523 . S
C934 C915 1.368 . S
C934 C928 1.368 . S
C934 C933 1.523 . S
C935 C919 1.429 . S
C935 C931 1.429 . S
C935 C936 1.523 . S
C936 C920 1.368 . S
C936 C932 1.368 . S
C936 C935 1.523 . S
H937 C912 0.950 . S
H938 C914 0.950 . S
H939 C915 0.949 . S
H940 C917 0.950 . S
H941 C919 0.950 . S
C942 C943 1.349 . S
C942 C944 1.327 . S
C942 H967 0.950 . S
C943 C942 1.349 . S
C943 C959 1.349 . S
C944 C942 1.327 . S
C944 C963 1.429 . S
C944 H968 0.950 . S
C945 C962 1.574 . S
C945 C964 1.368 . S
C945 H969 0.949 . S
H946 C950 0.949 . S
C947 C948 1.349 . S
C947 C949 1.327 . S
C947 H970 0.950 . S
C948 C947 1.349 . S
C948 C960 1.349 . S
C949 C947 1.327 . S
C949 C965 1.429 . S
C949 H971 0.950 . S
C950 H946 0.949 . S
C950 C958 1.574 . S
C950 C966 1.368 . S
H951 C959 0.950 . S
H952 C957 0.950 . S
H953 C958 0.949 . S
H954 C960 0.950 . S
H955 C961 0.950 . S
H956 C962 0.949 . S
C957 H952 0.950 . S
C957 C959 1.327 . S
C957 C963 1.429 . S
C958 C950 1.574 . S
C958 H953 0.949 . S
C958 C964 1.368 . S
C959 C943 1.349 . S
C959 H951 0.950 . S
C959 C957 1.327 . S
C960 C948 1.349 . S
C960 H954 0.950 . S
C960 C961 1.327 . S
C961 H955 0.950 . S
C961 C960 1.327 . S
C961 C965 1.429 . S
C962 C945 1.574 . S
C962 H956 0.949 . S
C962 C966 1.368 . S
C963 C944 1.429 . S
C963 C957 1.429 . S
C963 C964 1.523 . S
C964 C945 1.368 . S
C964 C958 1.368 . S
C964 C963 1.523 . S
C965 C949 1.429 . S
C965 C961 1.429 . S
C965 C966 1.523 . S
C966 C950 1.368 . S
C966 C962 1.368 . S
C966 C965 1.523 . S
H967 C942 0.950 . S
H968 C944 0.950 . S
H969 C945 0.949 . S
H970 C947 0.950 . S
H971 C949 0.950 . S
C972 C973 1.349 . S
C972 C974 1.327 . S
C972 H997 0.950 . S
C973 C972 1.349 . S
C973 C989 1.349 . S
C974 C972 1.327 . S
C974 C993 1.429 . S
C974 H998 0.950 . S
C975 C992 1.574 . S
C975 C994 1.368 . S
C975 H999 0.949 . S
H976 C980 0.949 . S
C977 C978 1.349 . S
C977 C979 1.327 . S
C977 H1000 0.950 . S
C978 C977 1.349 . S
C978 C990 1.349 . S
C979 C977 1.327 . S
C979 C995 1.429 . S
C979 H1001 0.950 . S
C980 H976 0.949 . S
C980 C988 1.574 . S
C980 C996 1.368 . S
H981 C989 0.950 . S
H982 C987 0.950 . S
H983 C988 0.949 . S
H984 C990 0.950 . S
H985 C991 0.950 . S
H986 C992 0.949 . S
C987 H982 0.950 . S
C987 C989 1.327 . S
C987 C993 1.429 . S
C988 C980 1.574 . S
C988 H983 0.949 . S
C988 C994 1.368 . S
C989 C973 1.349 . S
C989 H981 0.950 . S
C989 C987 1.327 . S
C990 C978 1.349 . S
C990 H984 0.950 . S
C990 C991 1.327 . S
C991 H985 0.950 . S
C991 C990 1.327 . S
C991 C995 1.429 . S
C992 C975 1.574 . S
C992 H986 0.949 . S
C992 C996 1.368 . S
C993 C974 1.429 . S
C993 C987 1.429 . S
C993 C994 1.523 . S
C994 C975 1.368 . S
C994 C988 1.368 . S
C994 C993 1.523 . S
C995 C979 1.429 . S
C995 C991 1.429 . S
C995 C996 1.523 . S
C996 C980 1.368 . S
C996 C992 1.368 . S
C996 C995 1.523 . S
H997 C972 0.950 . S
H998 C974 0.950 . S
H999 C975 0.949 . S
H1000 C977 0.950 . S
H1001 C979 0.950 . S
C1002 C1003 1.349 . S
C1002 C1004 1.327 . S
C1002 H1027 0.950 . S
C1003 C1002 1.349 . S
C1003 C1019 1.349 . S
C1004 C1002 1.327 . S
C1004 C1023 1.429 . S
C1004 H1028 0.950 . S
C1005 C1022 1.574 . S
C1005 C1024 1.368 . S
C1005 H1029 0.949 . S
H1006 C1010 0.949 . S
C1007 C1008 1.349 . S
C1007 C1009 1.327 . S
C1007 H1030 0.950 . S
C1008 C1007 1.349 . S
C1008 C1020 1.349 . S
C1009 C1007 1.327 . S
C1009 C1025 1.429 . S
C1009 H1031 0.950 . S
C1010 H1006 0.949 . S
C1010 C1018 1.574 . S
C1010 C1026 1.368 . S
H1011 C1019 0.950 . S
H1012 C1017 0.950 . S
H1013 C1018 0.949 . S
H1014 C1020 0.950 . S
H1015 C1021 0.950 . S
H1016 C1022 0.949 . S
C1017 H1012 0.950 . S
C1017 C1019 1.327 . S
C1017 C1023 1.429 . S
C1018 C1010 1.574 . S
C1018 H1013 0.949 . S
C1018 C1024 1.368 . S
C1019 C1003 1.349 . S
C1019 H1011 0.950 . S
C1019 C1017 1.327 . S
C1020 C1008 1.349 . S
C1020 H1014 0.950 . S
C1020 C1021 1.327 . S
C1021 H1015 0.950 . S
C1021 C1020 1.327 . S
C1021 C1025 1.429 . S
C1022 C1005 1.574 . S
C1022 H1016 0.949 . S
C1022 C1026 1.368 . S
C1023 C1004 1.429 . S
C1023 C1017 1.429 . S
C1023 C1024 1.523 . S
C1024 C1005 1.368 . S
C1024 C1018 1.368 . S
C1024 C1023 1.523 . S
C1025 C1009 1.429 . S
C1025 C1021 1.429 . S
C1025 C1026 1.523 . S
C1026 C1010 1.368 . S
C1026 C1022 1.368 . S
C1026 C1025 1.523 . S
H1027 C1002 0.950 . S
H1028 C1004 0.950 . S
H1029 C1005 0.949 . S
H1030 C1007 0.950 . S
H1031 C1009 0.950 . S
C1032 C1033 1.349 . S
C1032 C1034 1.327 . S
C1032 H1057 0.950 . S
C1033 C1032 1.349 . S
C1033 C1049 1.349 . S
C1034 C1032 1.327 . S
C1034 C1053 1.429 . S
C1034 H1058 0.950 . S
C1035 C1052 1.574 . S
C1035 C1054 1.368 . S
C1035 H1059 0.949 . S
H1036 C1040 0.949 . S
C1037 C1038 1.349 . S
C1037 C1039 1.327 . S
C1037 H1060 0.950 . S
C1038 C1037 1.349 . S
C1038 C1050 1.349 . S
C1039 C1037 1.327 . S
C1039 C1055 1.429 . S
C1039 H1061 0.950 . S
C1040 H1036 0.949 . S
C1040 C1048 1.574 . S
C1040 C1056 1.368 . S
H1041 C1049 0.950 . S
H1042 C1047 0.950 . S
H1043 C1048 0.949 . S
H1044 C1050 0.950 . S
H1045 C1051 0.950 . S
H1046 C1052 0.949 . S
C1047 H1042 0.950 . S
C1047 C1049 1.327 . S
C1047 C1053 1.429 . S
C1048 C1040 1.574 . S
C1048 H1043 0.949 . S
C1048 C1054 1.368 . S
C1049 C1033 1.349 . S
C1049 H1041 0.950 . S
C1049 C1047 1.327 . S
C1050 C1038 1.349 . S
C1050 H1044 0.950 . S
C1050 C1051 1.327 . S
C1051 H1045 0.950 . S
C1051 C1050 1.327 . S
C1051 C1055 1.429 . S
C1052 C1035 1.574 . S
C1052 H1046 0.949 . S
C1052 C1056 1.368 . S
C1053 C1034 1.429 . S
C1053 C1047 1.429 . S
C1053 C1054 1.523 . S
C1054 C1035 1.368 . S
C1054 C1048 1.368 . S
C1054 C1053 1.523 . S
C1055 C1039 1.429 . S
C1055 C1051 1.429 . S
C1055 C1056 1.523 . S
C1056 C1040 1.368 . S
C1056 C1052 1.368 . S
C1056 C1055 1.523 . S
H1057 C1032 0.950 . S
H1058 C1034 0.950 . S
H1059 C1035 0.949 . S
H1060 C1037 0.950 . S
H1061 C1039 0.950 . S
C1062 C1063 1.349 . S
C1062 C1064 1.327 . S
C1062 H1087 0.950 . S
C1063 C1062 1.349 . S
C1063 C1079 1.349 . S
C1064 C1062 1.327 . S
C1064 C1083 1.429 . S
C1064 H1088 0.950 . S
C1065 C1082 1.574 . S
C1065 C1084 1.368 . S
C1065 H1089 0.949 . S
H1066 C1070 0.949 . S
C1067 C1068 1.349 . S
C1067 C1069 1.327 . S
C1067 H1090 0.950 . S
C1068 C1067 1.349 . S
C1068 C1080 1.349 . S
C1069 C1067 1.327 . S
C1069 C1085 1.429 . S
C1069 H1091 0.950 . S
C1070 H1066 0.949 . S
C1070 C1078 1.574 . S
C1070 C1086 1.368 . S
H1071 C1079 0.950 . S
H1072 C1077 0.950 . S
H1073 C1078 0.949 . S
H1074 C1080 0.950 . S
H1075 C1081 0.950 . S
H1076 C1082 0.949 . S
C1077 H1072 0.950 . S
C1077 C1079 1.327 . S
C1077 C1083 1.429 . S
C1078 C1070 1.574 . S
C1078 H1073 0.949 . S
C1078 C1084 1.368 . S
C1079 C1063 1.349 . S
C1079 H1071 0.950 . S
C1079 C1077 1.327 . S
C1080 C1068 1.349 . S
C1080 H1074 0.950 . S
C1080 C1081 1.327 . S
C1081 H1075 0.950 . S
C1081 C1080 1.327 . S
C1081 C1085 1.429 . S
C1082 C1065 1.574 . S
C1082 H1076 0.949 . S
C1082 C1086 1.368 . S
C1083 C1064 1.429 . S
C1083 C1077 1.429 . S
C1083 C1084 1.523 . S
C1084 C1065 1.368 . S
C1084 C1078 1.368 . S
C1084 C1083 1.523 . S
C1085 C1069 1.429 . S
C1085 C1081 1.429 . S
C1085 C1086 1.523 . S
C1086 C1070 1.368 . S
C1086 C1082 1.368 . S
C1086 C1085 1.523 . S
H1087 C1062 0.950 . S
H1088 C1064 0.950 . S
H1089 C1065 0.949 . S
H1090 C1067 0.950 . S
H1091 C1069 0.950 . S
C1092 C1093 1.349 . S
C1092 C1094 1.327 . S
C1092 H1117 0.950 . S
C1093 C1092 1.349 . S
C1093 C1109 1.349 . S
C1094 C1092 1.327 . S
C1094 C1113 1.429 . S
C1094 H1118 0.950 . S
C1095 C1112 1.574 . S
C1095 C1114 1.368 . S
C1095 H1119 0.949 . S
H1096 C1100 0.949 . S
C1097 C1098 1.349 . S
C1097 C1099 1.327 . S
C1097 H1120 0.950 . S
C1098 C1097 1.349 . S
C1098 C1110 1.349 . S
C1099 C1097 1.327 . S
C1099 C1115 1.429 . S
C1099 H1121 0.950 . S
C1100 H1096 0.949 . S
C1100 C1108 1.574 . S
C1100 C1116 1.368 . S
H1101 C1109 0.950 . S
H1102 C1107 0.950 . S
H1103 C1108 0.949 . S
H1104 C1110 0.950 . S
H1105 C1111 0.950 . S
H1106 C1112 0.949 . S
C1107 H1102 0.950 . S
C1107 C1109 1.327 . S
C1107 C1113 1.429 . S
C1108 C1100 1.574 . S
C1108 H1103 0.949 . S
C1108 C1114 1.368 . S
C1109 C1093 1.349 . S
C1109 H1101 0.950 . S
C1109 C1107 1.327 . S
C1110 C1098 1.349 . S
C1110 H1104 0.950 . S
C1110 C1111 1.327 . S
C1111 H1105 0.950 . S
C1111 C1110 1.327 . S
C1111 C1115 1.429 . S
C1112 C1095 1.574 . S
C1112 H1106 0.949 . S
C1112 C1116 1.368 . S
C1113 C1094 1.429 . S
C1113 C1107 1.429 . S
C1113 C1114 1.523 . S
C1114 C1095 1.368 . S
C1114 C1108 1.368 . S
C1114 C1113 1.523 . S
C1115 C1099 1.429 . S
C1115 C1111 1.429 . S
C1115 C1116 1.523 . S
C1116 C1100 1.368 . S
C1116 C1112 1.368 . S
C1116 C1115 1.523 . S
H1117 C1092 0.950 . S
H1118 C1094 0.950 . S
H1119 C1095 0.949 . S
H1120 C1097 0.950 . S
H1121 C1099 0.950 . S
C1122 C1123 1.349 . S
C1122 C1124 1.327 . S
C1122 H1147 0.950 . S
C1123 C1122 1.349 . S
C1123 C1139 1.349 . S
C1124 C1122 1.327 . S
C1124 C1143 1.429 . S
C1124 H1148 0.950 . S
C1125 C1142 1.574 . S
C1125 C1144 1.368 . S
C1125 H1149 0.949 . S
H1126 C1130 0.949 . S
C1127 C1128 1.349 . S
C1127 C1129 1.327 . S
C1127 H1150 0.950 . S
C1128 C1127 1.349 . S
C1128 C1140 1.349 . S
C1129 C1127 1.327 . S
C1129 C1145 1.429 . S
C1129 H1151 0.950 . S
C1130 H1126 0.949 . S
C1130 C1138 1.574 . S
C1130 C1146 1.368 . S
H1131 C1139 0.950 . S
H1132 C1137 0.950 . S
H1133 C1138 0.949 . S
H1134 C1140 0.950 . S
H1135 C1141 0.950 . S
H1136 C1142 0.949 . S
C1137 H1132 0.950 . S
C1137 C1139 1.327 . S
C1137 C1143 1.429 . S
C1138 C1130 1.574 . S
C1138 H1133 0.949 . S
C1138 C1144 1.368 . S
C1139 C1123 1.349 . S
C1139 H1131 0.950 . S
C1139 C1137 1.327 . S
C1140 C1128 1.349 . S
C1140 H1134 0.950 . S
C1140 C1141 1.327 . S
C1141 H1135 0.950 . S
C1141 C1140 1.327 . S
C1141 C1145 1.429 . S
C1142 C1125 1.574 . S
C1142 H1136 0.949 . S
C1142 C1146 1.368 . S
C1143 C1124 1.429 . S
C1143 C1137 1.429 . S
C1143 C1144 1.523 . S
C1144 C1125 1.368 . S
C1144 C1138 1.368 . S
C1144 C1143 1.523 . S
C1145 C1129 1.429 . S
C1145 C1141 1.429 . S
C1145 C1146 1.523 . S
C1146 C1130 1.368 . S
C1146 C1142 1.368 . S
C1146 C1145 1.523 . S
H1147 C1122 0.950 . S
H1148 C1124 0.950 . S
H1149 C1125 0.949 . S
H1150 C1127 0.950 . S
H1151 C1129 0.950 . S
C1152 C1153 1.349 . S
C1152 C1154 1.327 . S
C1152 H1177 0.950 . S
C1153 C1152 1.349 . S
C1153 C1169 1.349 . S
C1154 C1152 1.327 . S
C1154 C1173 1.429 . S
C1154 H1178 0.950 . S
C1155 C1172 1.574 . S
C1155 C1174 1.368 . S
C1155 H1179 0.949 . S
H1156 C1160 0.949 . S
C1157 C1158 1.349 . S
C1157 C1159 1.327 . S
C1157 H1180 0.950 . S
C1158 C1157 1.349 . S
C1158 C1170 1.349 . S
C1159 C1157 1.327 . S
C1159 C1175 1.429 . S
C1159 H1181 0.950 . S
C1160 H1156 0.949 . S
C1160 C1168 1.574 . S
C1160 C1176 1.368 . S
H1161 C1169 0.950 . S
H1162 C1167 0.950 . S
H1163 C1168 0.949 . S
H1164 C1170 0.950 . S
H1165 C1171 0.950 . S
H1166 C1172 0.949 . S
C1167 H1162 0.950 . S
C1167 C1169 1.327 . S
C1167 C1173 1.429 . S
C1168 C1160 1.574 . S
C1168 H1163 0.949 . S
C1168 C1174 1.368 . S
C1169 C1153 1.349 . S
C1169 H1161 0.950 . S
C1169 C1167 1.327 . S
C1170 C1158 1.349 . S
C1170 H1164 0.950 . S
C1170 C1171 1.327 . S
C1171 H1165 0.950 . S
C1171 C1170 1.327 . S
C1171 C1175 1.429 . S
C1172 C1155 1.574 . S
C1172 H1166 0.949 . S
C1172 C1176 1.368 . S
C1173 C1154 1.429 . S
C1173 C1167 1.429 . S
C1173 C1174 1.523 . S
C1174 C1155 1.368 . S
C1174 C1168 1.368 . S
C1174 C1173 1.523 . S
C1175 C1159 1.429 . S
C1175 C1171 1.429 . S
C1175 C1176 1.523 . S
C1176 C1160 1.368 . S
C1176 C1172 1.368 . S
C1176 C1175 1.523 . S
H1177 C1152 0.950 . S
H1178 C1154 0.950 . S
H1179 C1155 0.949 . S
H1180 C1157 0.950 . S
H1181 C1159 0.950 . S
C1182 C1183 1.349 . S
C1182 C1184 1.327 . S
C1182 H1207 0.950 . S
C1183 C1182 1.349 . S
C1183 C1199 1.349 . S
C1184 C1182 1.327 . S
C1184 C1203 1.429 . S
C1184 H1208 0.950 . S
C1185 C1202 1.574 . S
C1185 C1204 1.368 . S
C1185 H1209 0.949 . S
H1186 C1190 0.949 . S
C1187 C1188 1.349 . S
C1187 C1189 1.327 . S
C1187 H1210 0.950 . S
C1188 C1187 1.349 . S
C1188 C1200 1.349 . S
C1189 C1187 1.327 . S
C1189 C1205 1.429 . S
C1189 H1211 0.950 . S
C1190 H1186 0.949 . S
C1190 C1198 1.574 . S
C1190 C1206 1.368 . S
H1191 C1199 0.950 . S
H1192 C1197 0.950 . S
H1193 C1198 0.949 . S
H1194 C1200 0.950 . S
H1195 C1201 0.950 . S
H1196 C1202 0.949 . S
C1197 H1192 0.950 . S
C1197 C1199 1.327 . S
C1197 C1203 1.429 . S
C1198 C1190 1.574 . S
C1198 H1193 0.949 . S
C1198 C1204 1.368 . S
C1199 C1183 1.349 . S
C1199 H1191 0.950 . S
C1199 C1197 1.327 . S
C1200 C1188 1.349 . S
C1200 H1194 0.950 . S
C1200 C1201 1.327 . S
C1201 H1195 0.950 . S
C1201 C1200 1.327 . S
C1201 C1205 1.429 . S
C1202 C1185 1.574 . S
C1202 H1196 0.949 . S
C1202 C1206 1.368 . S
C1203 C1184 1.429 . S
C1203 C1197 1.429 . S
C1203 C1204 1.523 . S
C1204 C1185 1.368 . S
C1204 C1198 1.368 . S
C1204 C1203 1.523 . S
C1205 C1189 1.429 . S
C1205 C1201 1.429 . S
C1205 C1206 1.523 . S
C1206 C1190 1.368 . S
C1206 C1202 1.368 . S
C1206 C1205 1.523 . S
H1207 C1182 0.950 . S
H1208 C1184 0.950 . S
H1209 C1185 0.949 . S
H1210 C1187 0.950 . S
H1211 C1189 0.950 . S
C1212 C1213 1.349 . S
C1212 C1214 1.327 . S
C1212 H1237 0.950 . S
C1213 C1212 1.349 . S
C1213 C1229 1.349 . S
C1214 C1212 1.327 . S
C1214 C1233 1.429 . S
C1214 H1238 0.950 . S
C1215 C1232 1.574 . S
C1215 C1234 1.368 . S
C1215 H1239 0.949 . S
H1216 C1220 0.949 . S
C1217 C1218 1.349 . S
C1217 C1219 1.327 . S
C1217 H1240 0.950 . S
C1218 C1217 1.349 . S
C1218 C1230 1.349 . S
C1219 C1217 1.327 . S
C1219 C1235 1.429 . S
C1219 H1241 0.950 . S
C1220 H1216 0.949 . S
C1220 C1228 1.574 . S
C1220 C1236 1.368 . S
H1221 C1229 0.950 . S
H1222 C1227 0.950 . S
H1223 C1228 0.949 . S
H1224 C1230 0.950 . S
H1225 C1231 0.950 . S
H1226 C1232 0.949 . S
C1227 H1222 0.950 . S
C1227 C1229 1.327 . S
C1227 C1233 1.429 . S
C1228 C1220 1.574 . S
C1228 H1223 0.949 . S
C1228 C1234 1.368 . S
C1229 C1213 1.349 . S
C1229 H1221 0.950 . S
C1229 C1227 1.327 . S
C1230 C1218 1.349 . S
C1230 H1224 0.950 . S
C1230 C1231 1.327 . S
C1231 H1225 0.950 . S
C1231 C1230 1.327 . S
C1231 C1235 1.429 . S
C1232 C1215 1.574 . S
C1232 H1226 0.949 . S
C1232 C1236 1.368 . S
C1233 C1214 1.429 . S
C1233 C1227 1.429 . S
C1233 C1234 1.523 . S
C1234 C1215 1.368 . S
C1234 C1228 1.368 . S
C1234 C1233 1.523 . S
C1235 C1219 1.429 . S
C1235 C1231 1.429 . S
C1235 C1236 1.523 . S
C1236 C1220 1.368 . S
C1236 C1232 1.368 . S
C1236 C1235 1.523 . S
H1237 C1212 0.950 . S
H1238 C1214 0.950 . S
H1239 C1215 0.949 . S
H1240 C1217 0.950 . S
H1241 C1219 0.950 . S
C1242 C1243 1.349 . S
C1242 C1244 1.327 . S
C1242 H1267 0.950 . S
C1243 C1242 1.349 . S
C1243 C1259 1.349 . S
C1244 C1242 1.327 . S
C1244 C1263 1.429 . S
C1244 H1268 0.950 . S
C1245 C1262 1.574 . S
C1245 C1264 1.368 . S
C1245 H1269 0.949 . S
H1246 C1250 0.949 . S
C1247 C1248 1.349 . S
C1247 C1249 1.327 . S
C1247 H1270 0.950 . S
C1248 C1247 1.349 . S
C1248 C1260 1.349 . S
C1249 C1247 1.327 . S
C1249 C1265 1.429 . S
C1249 H1271 0.950 . S
C1250 H1246 0.949 . S
C1250 C1258 1.574 . S
C1250 C1266 1.368 . S
H1251 C1259 0.950 . S
H1252 C1257 0.950 . S
H1253 C1258 0.949 . S
H1254 C1260 0.950 . S
H1255 C1261 0.950 . S
H1256 C1262 0.949 . S
C1257 H1252 0.950 . S
C1257 C1259 1.327 . S
C1257 C1263 1.429 . S
C1258 C1250 1.574 . S
C1258 H1253 0.949 . S
C1258 C1264 1.368 . S
C1259 C1243 1.349 . S
C1259 H1251 0.950 . S
C1259 C1257 1.327 . S
C1260 C1248 1.349 . S
C1260 H1254 0.950 . S
C1260 C1261 1.327 . S
C1261 H1255 0.950 . S
C1261 C1260 1.327 . S
C1261 C1265 1.429 . S
C1262 C1245 1.574 . S
C1262 H1256 0.949 . S
C1262 C1266 1.368 . S
C1263 C1244 1.429 . S
C1263 C1257 1.429 . S
C1263 C1264 1.523 . S
C1264 C1245 1.368 . S
C1264 C1258 1.368 . S
C1264 C1263 1.523 . S
C1265 C1249 1.429 . S
C1265 C1261 1.429 . S
C1265 C1266 1.523 . S
C1266 C1250 1.368 . S
C1266 C1262 1.368 . S
C1266 C1265 1.523 . S
H1267 C1242 0.950 . S
H1268 C1244 0.950 . S
H1269 C1245 0.949 . S
H1270 C1247 0.950 . S
H1271 C1249 0.950 . S
C1272 C1273 1.349 . S
C1272 C1274 1.327 . S
C1272 H1297 0.950 . S
C1273 C1272 1.349 . S
C1273 C1289 1.349 . S
C1274 C1272 1.327 . S
C1274 C1293 1.429 . S
C1274 H1298 0.950 . S
C1275 C1292 1.574 . S
C1275 C1294 1.368 . S
C1275 H1299 0.949 . S
H1276 C1280 0.949 . S
C1277 C1278 1.349 . S
C1277 C1279 1.327 . S
C1277 H1300 0.950 . S
C1278 C1277 1.349 . S
C1278 C1290 1.349 . S
C1279 C1277 1.327 . S
C1279 C1295 1.429 . S
C1279 H1301 0.950 . S
C1280 H1276 0.949 . S
C1280 C1288 1.574 . S
C1280 C1296 1.368 . S
H1281 C1289 0.950 . S
H1282 C1287 0.950 . S
H1283 C1288 0.949 . S
H1284 C1290 0.950 . S
H1285 C1291 0.950 . S
H1286 C1292 0.949 . S
C1287 H1282 0.950 . S
C1287 C1289 1.327 . S
C1287 C1293 1.429 . S
C1288 C1280 1.574 . S
C1288 H1283 0.949 . S
C1288 C1294 1.368 . S
C1289 C1273 1.349 . S
C1289 H1281 0.950 . S
C1289 C1287 1.327 . S
C1290 C1278 1.349 . S
C1290 H1284 0.950 . S
C1290 C1291 1.327 . S
C1291 H1285 0.950 . S
C1291 C1290 1.327 . S
C1291 C1295 1.429 . S
C1292 C1275 1.574 . S
C1292 H1286 0.949 . S
C1292 C1296 1.368 . S
C1293 C1274 1.429 . S
C1293 C1287 1.429 . S
C1293 C1294 1.523 . S
C1294 C1275 1.368 . S
C1294 C1288 1.368 . S
C1294 C1293 1.523 . S
C1295 C1279 1.429 . S
C1295 C1291 1.429 . S
C1295 C1296 1.523 . S
C1296 C1280 1.368 . S
C1296 C1292 1.368 . S
C1296 C1295 1.523 . S
H1297 C1272 0.950 . S
H1298 C1274 0.950 . S
H1299 C1275 0.949 . S
H1300 C1277 0.950 . S
H1301 C1279 0.950 . S
C1302 C1303 1.349 . S
C1302 C1304 1.327 . S
C1302 H1327 0.950 . S
C1303 C1302 1.349 . S
C1303 C1319 1.349 . S
C1304 C1302 1.327 . S
C1304 C1323 1.429 . S
C1304 H1328 0.950 . S
C1305 C1322 1.574 . S
C1305 C1324 1.368 . S
C1305 H1329 0.949 . S
H1306 C1310 0.949 . S
C1307 C1308 1.349 . S
C1307 C1309 1.327 . S
C1307 H1330 0.950 . S
C1308 C1307 1.349 . S
C1308 C1320 1.349 . S
C1309 C1307 1.327 . S
C1309 C1325 1.429 . S
C1309 H1331 0.950 . S
C1310 H1306 0.949 . S
C1310 C1318 1.574 . S
C1310 C1326 1.368 . S
H1311 C1319 0.950 . S
H1312 C1317 0.950 . S
H1313 C1318 0.949 . S
H1314 C1320 0.950 . S
H1315 C1321 0.950 . S
H1316 C1322 0.949 . S
C1317 H1312 0.950 . S
C1317 C1319 1.327 . S
C1317 C1323 1.429 . S
C1318 C1310 1.574 . S
C1318 H1313 0.949 . S
C1318 C1324 1.368 . S
C1319 C1303 1.349 . S
C1319 H1311 0.950 . S
C1319 C1317 1.327 . S
C1320 C1308 1.349 . S
C1320 H1314 0.950 . S
C1320 C1321 1.327 . S
C1321 H1315 0.950 . S
C1321 C1320 1.327 . S
C1321 C1325 1.429 . S
C1322 C1305 1.574 . S
C1322 H1316 0.949 . S
C1322 C1326 1.368 . S
C1323 C1304 1.429 . S
C1323 C1317 1.429 . S
C1323 C1324 1.523 . S
C1324 C1305 1.368 . S
C1324 C1318 1.368 . S
C1324 C1323 1.523 . S
C1325 C1309 1.429 . S
C1325 C1321 1.429 . S
C1325 C1326 1.523 . S
C1326 C1310 1.368 . S
C1326 C1322 1.368 . S
C1326 C1325 1.523 . S
H1327 C1302 0.950 . S
H1328 C1304 0.950 . S
H1329 C1305 0.949 . S
H1330 C1307 0.950 . S
H1331 C1309 0.950 . S
C1332 C1333 1.349 . S
C1332 C1334 1.327 . S
C1332 H1357 0.950 . S
C1333 C1332 1.349 . S
C1333 C1349 1.349 . S
C1334 C1332 1.327 . S
C1334 C1353 1.429 . S
C1334 H1358 0.950 . S
C1335 C1352 1.574 . S
C1335 C1354 1.368 . S
C1335 H1359 0.949 . S
H1336 C1340 0.949 . S
C1337 C1338 1.349 . S
C1337 C1339 1.327 . S
C1337 H1360 0.950 . S
C1338 C1337 1.349 . S
C1338 C1350 1.349 . S
C1339 C1337 1.327 . S
C1339 C1355 1.429 . S
C1339 H1361 0.950 . S
C1340 H1336 0.949 . S
C1340 C1348 1.574 . S
C1340 C1356 1.368 . S
H1341 C1349 0.950 . S
H1342 C1347 0.950 . S
H1343 C1348 0.949 . S
H1344 C1350 0.950 . S
H1345 C1351 0.950 . S
H1346 C1352 0.949 . S
C1347 H1342 0.950 . S
C1347 C1349 1.327 . S
C1347 C1353 1.429 . S
C1348 C1340 1.574 . S
C1348 H1343 0.949 . S
C1348 C1354 1.368 . S
C1349 C1333 1.349 . S
C1349 H1341 0.950 . S
C1349 C1347 1.327 . S
C1350 C1338 1.349 . S
C1350 H1344 0.950 . S
C1350 C1351 1.327 . S
C1351 H1345 0.950 . S
C1351 C1350 1.327 . S
C1351 C1355 1.429 . S
C1352 C1335 1.574 . S
C1352 H1346 0.949 . S
C1352 C1356 1.368 . S
C1353 C1334 1.429 . S
C1353 C1347 1.429 . S
C1353 C1354 1.523 . S
C1354 C1335 1.368 . S
C1354 C1348 1.368 . S
C1354 C1353 1.523 . S
C1355 C1339 1.429 . S
C1355 C1351 1.429 . S
C1355 C1356 1.523 . S
C1356 C1340 1.368 . S
C1356 C1352 1.368 . S
C1356 C1355 1.523 . S
H1357 C1332 0.950 . S
H1358 C1334 0.950 . S
H1359 C1335 0.949 . S
H1360 C1337 0.950 . S
H1361 C1339 0.950 . S
C1362 C1363 1.349 . S
C1362 C1364 1.327 . S
C1362 H1387 0.950 . S
C1363 C1362 1.349 . S
C1363 C1379 1.349 . S
C1364 C1362 1.327 . S
C1364 C1383 1.429 . S
C1364 H1388 0.950 . S
C1365 C1382 1.574 . S
C1365 C1384 1.368 . S
C1365 H1389 0.949 . S
H1366 C1370 0.949 . S
C1367 C1368 1.349 . S
C1367 C1369 1.327 . S
C1367 H1390 0.950 . S
C1368 C1367 1.349 . S
C1368 C1380 1.349 . S
C1369 C1367 1.327 . S
C1369 C1385 1.429 . S
C1369 H1391 0.950 . S
C1370 H1366 0.949 . S
C1370 C1378 1.574 . S
C1370 C1386 1.368 . S
H1371 C1379 0.950 . S
H1372 C1377 0.950 . S
H1373 C1378 0.949 . S
H1374 C1380 0.950 . S
H1375 C1381 0.950 . S
H1376 C1382 0.949 . S
C1377 H1372 0.950 . S
C1377 C1379 1.327 . S
C1377 C1383 1.429 . S
C1378 C1370 1.574 . S
C1378 H1373 0.949 . S
C1378 C1384 1.368 . S
C1379 C1363 1.349 . S
C1379 H1371 0.950 . S
C1379 C1377 1.327 . S
C1380 C1368 1.349 . S
C1380 H1374 0.950 . S
C1380 C1381 1.327 . S
C1381 H1375 0.950 . S
C1381 C1380 1.327 . S
C1381 C1385 1.429 . S
C1382 C1365 1.574 . S
C1382 H1376 0.949 . S
C1382 C1386 1.368 . S
C1383 C1364 1.429 . S
C1383 C1377 1.429 . S
C1383 C1384 1.523 . S
C1384 C1365 1.368 . S
C1384 C1378 1.368 . S
C1384 C1383 1.523 . S
C1385 C1369 1.429 . S
C1385 C1381 1.429 . S
C1385 C1386 1.523 . S
C1386 C1370 1.368 . S
C1386 C1382 1.368 . S
C1386 C1385 1.523 . S
H1387 C1362 0.950 . S
H1388 C1364 0.950 . S
H1389 C1365 0.949 . S
H1390 C1367 0.950 . S
H1391 C1369 0.950 . S
C1392 C1393 1.349 . S
C1392 C1394 1.327 . S
C1392 H1417 0.950 . S
C1393 C1392 1.349 . S
C1393 C1409 1.349 . S
C1394 C1392 1.327 . S
C1394 C1413 1.429 . S
C1394 H1418 0.950 . S
C1395 C1412 1.574 . S
C1395 C1414 1.368 . S
C1395 H1419 0.949 . S
H1396 C1400 0.949 . S
C1397 C1398 1.349 . S
C1397 C1399 1.327 . S
C1397 H1420 0.950 . S
C1398 C1397 1.349 . S
C1398 C1410 1.349 . S
C1399 C1397 1.327 . S
C1399 C1415 1.429 . S
C1399 H1421 0.950 . S
C1400 H1396 0.949 . S
C1400 C1408 1.574 . S
C1400 C1416 1.368 . S
H1401 C1409 0.950 . S
H1402 C1407 0.950 . S
H1403 C1408 0.949 . S
H1404 C1410 0.950 . S
H1405 C1411 0.950 . S
H1406 C1412 0.949 . S
C1407 H1402 0.950 . S
C1407 C1409 1.327 . S
C1407 C1413 1.429 . S
C1408 C1400 1.574 . S
C1408 H1403 0.949 . S
C1408 C1414 1.368 . S
C1409 C1393 1.349 . S
C1409 H1401 0.950 . S
C1409 C1407 1.327 . S
C1410 C1398 1.349 . S
C1410 H1404 0.950 . S
C1410 C1411 1.327 . S
C1411 H1405 0.950 . S
C1411 C1410 1.327 . S
C1411 C1415 1.429 . S
C1412 C1395 1.574 . S
C1412 H1406 0.949 . S
C1412 C1416 1.368 . S
C1413 C1394 1.429 . S
C1413 C1407 1.429 . S
C1413 C1414 1.523 . S
C1414 C1395 1.368 . S
C1414 C1408 1.368 . S
C1414 C1413 1.523 . S
C1415 C1399 1.429 . S
C1415 C1411 1.429 . S
C1415 C1416 1.523 . S
C1416 C1400 1.368 . S
C1416 C1412 1.368 . S
C1416 C1415 1.523 . S
H1417 C1392 0.950 . S
H1418 C1394 0.950 . S
H1419 C1395 0.949 . S
H1420 C1397 0.950 . S
H1421 C1399 0.950 . S
C1422 C1423 1.349 . S
C1422 C1424 1.327 . S
C1422 H1447 0.950 . S
C1423 C1422 1.349 . S
C1423 C1439 1.349 . S
C1424 C1422 1.327 . S
C1424 C1443 1.429 . S
C1424 H1448 0.950 . S
C1425 C1442 1.574 . S
C1425 C1444 1.368 . S
C1425 H1449 0.949 . S
H1426 C1430 0.949 . S
C1427 C1428 1.349 . S
C1427 C1429 1.327 . S
C1427 H1450 0.950 . S
C1428 C1427 1.349 . S
C1428 C1440 1.349 . S
C1429 C1427 1.327 . S
C1429 C1445 1.429 . S
C1429 H1451 0.950 . S
C1430 H1426 0.949 . S
C1430 C1438 1.574 . S
C1430 C1446 1.368 . S
H1431 C1439 0.950 . S
H1432 C1437 0.950 . S
H1433 C1438 0.949 . S
H1434 C1440 0.950 . S
H1435 C1441 0.950 . S
H1436 C1442 0.949 . S
C1437 H1432 0.950 . S
C1437 C1439 1.327 . S
C1437 C1443 1.429 . S
C1438 C1430 1.574 . S
C1438 H1433 0.949 . S
C1438 C1444 1.368 . S
C1439 C1423 1.349 . S
C1439 H1431 0.950 . S
C1439 C1437 1.327 . S
C1440 C1428 1.349 . S
C1440 H1434 0.950 . S
C1440 C1441 1.327 . S
C1441 H1435 0.950 . S
C1441 C1440 1.327 . S
C1441 C1445 1.429 . S
C1442 C1425 1.574 . S
C1442 H1436 0.949 . S
C1442 C1446 1.368 . S
C1443 C1424 1.429 . S
C1443 C1437 1.429 . S
C1443 C1444 1.523 . S
C1444 C1425 1.368 . S
C1444 C1438 1.368 . S
C1444 C1443 1.523 . S
C1445 C1429 1.429 . S
C1445 C1441 1.429 . S
C1445 C1446 1.523 . S
C1446 C1430 1.368 . S
C1446 C1442 1.368 . S
C1446 C1445 1.523 . S
H1447 C1422 0.950 . S
H1448 C1424 0.950 . S
H1449 C1425 0.949 . S
H1450 C1427 0.950 . S
H1451 C1429 0.950 . S
C1452 C1453 1.349 . S
C1452 C1454 1.327 . S
C1452 H1477 0.950 . S
C1453 C1452 1.349 . S
C1453 C1469 1.349 . S
C1454 C1452 1.327 . S
C1454 C1473 1.429 . S
C1454 H1478 0.950 . S
C1455 C1472 1.574 . S
C1455 C1474 1.368 . S
C1455 H1479 0.949 . S
H1456 C1460 0.949 . S
C1457 C1458 1.349 . S
C1457 C1459 1.327 . S
C1457 H1480 0.950 . S
C1458 C1457 1.349 . S
C1458 C1470 1.349 . S
C1459 C1457 1.327 . S
C1459 C1475 1.429 . S
C1459 H1481 0.950 . S
C1460 H1456 0.949 . S
C1460 C1468 1.574 . S
C1460 C1476 1.368 . S
H1461 C1469 0.950 . S
H1462 C1467 0.950 . S
H1463 C1468 0.949 . S
H1464 C1470 0.950 . S
H1465 C1471 0.950 . S
H1466 C1472 0.949 . S
C1467 H1462 0.950 . S
C1467 C1469 1.327 . S
C1467 C1473 1.429 . S
C1468 C1460 1.574 . S
C1468 H1463 0.949 . S
C1468 C1474 1.368 . S
C1469 C1453 1.349 . S
C1469 H1461 0.950 . S
C1469 C1467 1.327 . S
C1470 C1458 1.349 . S
C1470 H1464 0.950 . S
C1470 C1471 1.327 . S
C1471 H1465 0.950 . S
C1471 C1470 1.327 . S
C1471 C1475 1.429 . S
C1472 C1455 1.574 . S
C1472 H1466 0.949 . S
C1472 C1476 1.368 . S
C1473 C1454 1.429 . S
C1473 C1467 1.429 . S
C1473 C1474 1.523 . S
C1474 C1455 1.368 . S
C1474 C1468 1.368 . S
C1474 C1473 1.523 . S
C1475 C1459 1.429 . S
C1475 C1471 1.429 . S
C1475 C1476 1.523 . S
C1476 C1460 1.368 . S
C1476 C1472 1.368 . S
C1476 C1475 1.523 . S
H1477 C1452 0.950 . S
H1478 C1454 0.950 . S
H1479 C1455 0.949 . S
H1480 C1457 0.950 . S
H1481 C1459 0.950 . S
C1482 C1483 1.349 . S
C1482 C1484 1.327 . S
C1482 H1507 0.950 . S
C1483 C1482 1.349 . S
C1483 C1499 1.349 . S
C1484 C1482 1.327 . S
C1484 C1503 1.429 . S
C1484 H1508 0.950 . S
C1485 C1502 1.574 . S
C1485 C1504 1.368 . S
C1485 H1509 0.949 . S
H1486 C1490 0.949 . S
C1487 C1488 1.349 . S
C1487 C1489 1.327 . S
C1487 H1510 0.950 . S
C1488 C1487 1.349 . S
C1488 C1500 1.349 . S
C1489 C1487 1.327 . S
C1489 C1505 1.429 . S
C1489 H1511 0.950 . S
C1490 H1486 0.949 . S
C1490 C1498 1.574 . S
C1490 C1506 1.368 . S
H1491 C1499 0.950 . S
H1492 C1497 0.950 . S
H1493 C1498 0.949 . S
H1494 C1500 0.950 . S
H1495 C1501 0.950 . S
H1496 C1502 0.949 . S
C1497 H1492 0.950 . S
C1497 C1499 1.327 . S
C1497 C1503 1.429 . S
C1498 C1490 1.574 . S
C1498 H1493 0.949 . S
C1498 C1504 1.368 . S
C1499 C1483 1.349 . S
C1499 H1491 0.950 . S
C1499 C1497 1.327 . S
C1500 C1488 1.349 . S
C1500 H1494 0.950 . S
C1500 C1501 1.327 . S
C1501 H1495 0.950 . S
C1501 C1500 1.327 . S
C1501 C1505 1.429 . S
C1502 C1485 1.574 . S
C1502 H1496 0.949 . S
C1502 C1506 1.368 . S
C1503 C1484 1.429 . S
C1503 C1497 1.429 . S
C1503 C1504 1.523 . S
C1504 C1485 1.368 . S
C1504 C1498 1.368 . S
C1504 C1503 1.523 . S
C1505 C1489 1.429 . S
C1505 C1501 1.429 . S
C1505 C1506 1.523 . S
C1506 C1490 1.368 . S
C1506 C1502 1.368 . S
C1506 C1505 1.523 . S
H1507 C1482 0.950 . S
H1508 C1484 0.950 . S
H1509 C1485 0.949 . S
H1510 C1487 0.950 . S
H1511 C1489 0.950 . S
C1512 C1513 1.349 . S
C1512 C1514 1.327 . S
C1512 H1537 0.950 . S
C1513 C1512 1.349 . S
C1513 C1529 1.349 . S
C1514 C1512 1.327 . S
C1514 C1533 1.429 . S
C1514 H1538 0.950 . S
C1515 C1532 1.574 . S
C1515 C1534 1.368 . S
C1515 H1539 0.949 . S
H1516 C1520 0.949 . S
C1517 C1518 1.349 . S
C1517 C1519 1.327 . S
C1517 H1540 0.950 . S
C1518 C1517 1.349 . S
C1518 C1530 1.349 . S
C1519 C1517 1.327 . S
C1519 C1535 1.429 . S
C1519 H1541 0.950 . S
C1520 H1516 0.949 . S
C1520 C1528 1.574 . S
C1520 C1536 1.368 . S
H1521 C1529 0.950 . S
H1522 C1527 0.950 . S
H1523 C1528 0.949 . S
H1524 C1530 0.950 . S
H1525 C1531 0.950 . S
H1526 C1532 0.949 . S
C1527 H1522 0.950 . S
C1527 C1529 1.327 . S
C1527 C1533 1.429 . S
C1528 C1520 1.574 . S
C1528 H1523 0.949 . S
C1528 C1534 1.368 . S
C1529 C1513 1.349 . S
C1529 H1521 0.950 . S
C1529 C1527 1.327 . S
C1530 C1518 1.349 . S
C1530 H1524 0.950 . S
C1530 C1531 1.327 . S
C1531 H1525 0.950 . S
C1531 C1530 1.327 . S
C1531 C1535 1.429 . S
C1532 C1515 1.574 . S
C1532 H1526 0.949 . S
C1532 C1536 1.368 . S
C1533 C1514 1.429 . S
C1533 C1527 1.429 . S
C1533 C1534 1.523 . S
C1534 C1515 1.368 . S
C1534 C1528 1.368 . S
C1534 C1533 1.523 . S
C1535 C1519 1.429 . S
C1535 C1531 1.429 . S
C1535 C1536 1.523 . S
C1536 C1520 1.368 . S
C1536 C1532 1.368 . S
C1536 C1535 1.523 . S
H1537 C1512 0.950 . S
H1538 C1514 0.950 . S
H1539 C1515 0.949 . S
H1540 C1517 0.950 . S
H1541 C1519 0.950 . S
C1542 C1543 1.349 . S
C1542 C1544 1.327 . S
C1542 H1567 0.950 . S
C1543 C1542 1.349 . S
C1543 C1559 1.349 . S
C1544 C1542 1.327 . S
C1544 C1563 1.429 . S
C1544 H1568 0.950 . S
C1545 C1562 1.574 . S
C1545 C1564 1.368 . S
C1545 H1569 0.949 . S
H1546 C1550 0.949 . S
C1547 C1548 1.349 . S
C1547 C1549 1.327 . S
C1547 H1570 0.950 . S
C1548 C1547 1.349 . S
C1548 C1560 1.349 . S
C1549 C1547 1.327 . S
C1549 C1565 1.429 . S
C1549 H1571 0.950 . S
C1550 H1546 0.949 . S
C1550 C1558 1.574 . S
C1550 C1566 1.368 . S
H1551 C1559 0.950 . S
H1552 C1557 0.950 . S
H1553 C1558 0.949 . S
H1554 C1560 0.950 . S
H1555 C1561 0.950 . S
H1556 C1562 0.949 . S
C1557 H1552 0.950 . S
C1557 C1559 1.327 . S
C1557 C1563 1.429 . S
C1558 C1550 1.574 . S
C1558 H1553 0.949 . S
C1558 C1564 1.368 . S
C1559 C1543 1.349 . S
C1559 H1551 0.950 . S
C1559 C1557 1.327 . S
C1560 C1548 1.349 . S
C1560 H1554 0.950 . S
C1560 C1561 1.327 . S
C1561 H1555 0.950 . S
C1561 C1560 1.327 . S
C1561 C1565 1.429 . S
C1562 C1545 1.574 . S
C1562 H1556 0.949 . S
C1562 C1566 1.368 . S
C1563 C1544 1.429 . S
C1563 C1557 1.429 . S
C1563 C1564 1.523 . S
C1564 C1545 1.368 . S
C1564 C1558 1.368 . S
C1564 C1563 1.523 . S
C1565 C1549 1.429 . S
C1565 C1561 1.429 . S
C1565 C1566 1.523 . S
C1566 C1550 1.368 . S
C1566 C1562 1.368 . S
C1566 C1565 1.523 . S
H1567 C1542 0.950 . S
H1568 C1544 0.950 . S
H1569 C1545 0.949 . S
H1570 C1547 0.950 . S
H1571 C1549 0.950 . S
C1572 C1573 1.349 . S
C1572 C1574 1.327 . S
C1572 H1597 0.950 . S
C1573 C1572 1.349 . S
C1573 C1589 1.349 . S
C1574 C1572 1.327 . S
C1574 C1593 1.429 . S
C1574 H1598 0.950 . S
C1575 C1592 1.574 . S
C1575 C1594 1.368 . S
C1575 H1599 0.949 . S
H1576 C1580 0.949 . S
C1577 C1578 1.349 . S
C1577 C1579 1.327 . S
C1577 H1600 0.950 . S
C1578 C1577 1.349 . S
C1578 C1590 1.349 . S
C1579 C1577 1.327 . S
C1579 C1595 1.429 . S
C1579 H1601 0.950 . S
C1580 H1576 0.949 . S
C1580 C1588 1.574 . S
C1580 C1596 1.368 . S
H1581 C1589 0.950 . S
H1582 C1587 0.950 . S
H1583 C1588 0.949 . S
H1584 C1590 0.950 . S
H1585 C1591 0.950 . S
H1586 C1592 0.949 . S
C1587 H1582 0.950 . S
C1587 C1589 1.327 . S
C1587 C1593 1.429 . S
C1588 C1580 1.574 . S
C1588 H1583 0.949 . S
C1588 C1594 1.368 . S
C1589 C1573 1.349 . S
C1589 H1581 0.950 . S
C1589 C1587 1.327 . S
C1590 C1578 1.349 . S
C1590 H1584 0.950 . S
C1590 C1591 1.327 . S
C1591 H1585 0.950 . S
C1591 C1590 1.327 . S
C1591 C1595 1.429 . S
C1592 C1575 1.574 . S
C1592 H1586 0.949 . S
C1592 C1596 1.368 . S
C1593 C1574 1.429 . S
C1593 C1587 1.429 . S
C1593 C1594 1.523 . S
C1594 C1575 1.368 . S
C1594 C1588 1.368 . S
C1594 C1593 1.523 . S
C1595 C1579 1.429 . S
C1595 C1591 1.429 . S
C1595 C1596 1.523 . S
C1596 C1580 1.368 . S
C1596 C1592 1.368 . S
C1596 C1595 1.523 . S
H1597 C1572 0.950 . S
H1598 C1574 0.950 . S
H1599 C1575 0.949 . S
H1600 C1577 0.950 . S
H1601 C1579 0.950 . S
C1602 C1603 1.349 . S
C1602 C1604 1.327 . S
C1602 H1627 0.950 . S
C1603 C1602 1.349 . S
C1603 C1619 1.349 . S
C1604 C1602 1.327 . S
C1604 C1623 1.429 . S
C1604 H1628 0.950 . S
C1605 C1622 1.574 . S
C1605 C1624 1.368 . S
C1605 H1629 0.949 . S
H1606 C1610 0.949 . S
C1607 C1608 1.349 . S
C1607 C1609 1.327 . S
C1607 H1630 0.950 . S
C1608 C1607 1.349 . S
C1608 C1620 1.349 . S
C1609 C1607 1.327 . S
C1609 C1625 1.429 . S
C1609 H1631 0.950 . S
C1610 H1606 0.949 . S
C1610 C1618 1.574 . S
C1610 C1626 1.368 . S
H1611 C1619 0.950 . S
H1612 C1617 0.950 . S
H1613 C1618 0.949 . S
H1614 C1620 0.950 . S
H1615 C1621 0.950 . S
H1616 C1622 0.949 . S
C1617 H1612 0.950 . S
C1617 C1619 1.327 . S
C1617 C1623 1.429 . S
C1618 C1610 1.574 . S
C1618 H1613 0.949 . S
C1618 C1624 1.368 . S
C1619 C1603 1.349 . S
C1619 H1611 0.950 . S
C1619 C1617 1.327 . S
C1620 C1608 1.349 . S
C1620 H1614 0.950 . S
C1620 C1621 1.327 . S
C1621 H1615 0.950 . S
C1621 C1620 1.327 . S
C1621 C1625 1.429 . S
C1622 C1605 1.574 . S
C1622 H1616 0.949 . S
C1622 C1626 1.368 . S
C1623 C1604 1.429 . S
C1623 C1617 1.429 . S
C1623 C1624 1.523 . S
C1624 C1605 1.368 . S
C1624 C1618 1.368 . S
C1624 C1623 1.523 . S
C1625 C1609 1.429 . S
C1625 C1621 1.429 . S
C1625 C1626 1.523 . S
C1626 C1610 1.368 . S
C1626 C1622 1.368 . S
C1626 C1625 1.523 . S
H1627 C1602 0.950 . S
H1628 C1604 0.950 . S
H1629 C1605 0.949 . S
H1630 C1607 0.950 . S
H1631 C1609 0.950 . S
C1632 C1633 1.349 . S
C1632 C1634 1.327 . S
C1632 H1657 0.950 . S
C1633 C1632 1.349 . S
C1633 C1649 1.349 . S
C1634 C1632 1.327 . S
C1634 C1653 1.429 . S
C1634 H1658 0.950 . S
C1635 C1652 1.574 . S
C1635 C1654 1.368 . S
C1635 H1659 0.949 . S
H1636 C1640 0.949 . S
C1637 C1638 1.349 . S
C1637 C1639 1.327 . S
C1637 H1660 0.950 . S
C1638 C1637 1.349 . S
C1638 C1650 1.349 . S
C1639 C1637 1.327 . S
C1639 C1655 1.429 . S
C1639 H1661 0.950 . S
C1640 H1636 0.949 . S
C1640 C1648 1.574 . S
C1640 C1656 1.368 . S
H1641 C1649 0.950 . S
H1642 C1647 0.950 . S
H1643 C1648 0.949 . S
H1644 C1650 0.950 . S
H1645 C1651 0.950 . S
H1646 C1652 0.949 . S
C1647 H1642 0.950 . S
C1647 C1649 1.327 . S
C1647 C1653 1.429 . S
C1648 C1640 1.574 . S
C1648 H1643 0.949 . S
C1648 C1654 1.368 . S
C1649 C1633 1.349 . S
C1649 H1641 0.950 . S
C1649 C1647 1.327 . S
C1650 C1638 1.349 . S
C1650 H1644 0.950 . S
C1650 C1651 1.327 . S
C1651 H1645 0.950 . S
C1651 C1650 1.327 . S
C1651 C1655 1.429 . S
C1652 C1635 1.574 . S
C1652 H1646 0.949 . S
C1652 C1656 1.368 . S
C1653 C1634 1.429 . S
C1653 C1647 1.429 . S
C1653 C1654 1.523 . S
C1654 C1635 1.368 . S
C1654 C1648 1.368 . S
C1654 C1653 1.523 . S
C1655 C1639 1.429 . S
C1655 C1651 1.429 . S
C1655 C1656 1.523 . S
C1656 C1640 1.368 . S
C1656 C1652 1.368 . S
C1656 C1655 1.523 . S
H1657 C1632 0.950 . S
H1658 C1634 0.950 . S
H1659 C1635 0.949 . S
H1660 C1637 0.950 . S
H1661 C1639 0.950 . S
C1662 C1663 1.349 . S
C1662 C1664 1.327 . S
C1662 H1687 0.950 . S
C1663 C1662 1.349 . S
C1663 C1679 1.349 . S
C1664 C1662 1.327 . S
C1664 C1683 1.429 . S
C1664 H1688 0.950 . S
C1665 C1682 1.574 . S
C1665 C1684 1.368 . S
C1665 H1689 0.949 . S
H1666 C1670 0.949 . S
C1667 C1668 1.349 . S
C1667 C1669 1.327 . S
C1667 H1690 0.950 . S
C1668 C1667 1.349 . S
C1668 C1680 1.349 . S
C1669 C1667 1.327 . S
C1669 C1685 1.429 . S
C1669 H1691 0.950 . S
C1670 H1666 0.949 . S
C1670 C1678 1.574 . S
C1670 C1686 1.368 . S
H1671 C1679 0.950 . S
H1672 C1677 0.950 . S
H1673 C1678 0.949 . S
H1674 C1680 0.950 . S
H1675 C1681 0.950 . S
H1676 C1682 0.949 . S
C1677 H1672 0.950 . S
C1677 C1679 1.327 . S
C1677 C1683 1.429 . S
C1678 C1670 1.574 . S
C1678 H1673 0.949 . S
C1678 C1684 1.368 . S
C1679 C1663 1.349 . S
C1679 H1671 0.950 . S
C1679 C1677 1.327 . S
C1680 C1668 1.349 . S
C1680 H1674 0.950 . S
C1680 C1681 1.327 . S
C1681 H1675 0.950 . S
C1681 C1680 1.327 . S
C1681 C1685 1.429 . S
C1682 C1665 1.574 . S
C1682 H1676 0.949 . S
C1682 C1686 1.368 . S
C1683 C1664 1.429 . S
C1683 C1677 1.429 . S
C1683 C1684 1.523 . S
C1684 C1665 1.368 . S
C1684 C1678 1.368 . S
C1684 C1683 1.523 . S
C1685 C1669 1.429 . S
C1685 C1681 1.429 . S
C1685 C1686 1.523 . S
C1686 C1670 1.368 . S
C1686 C1682 1.368 . S
C1686 C1685 1.523 . S
H1687 C1662 0.950 . S
H1688 C1664 0.950 . S
H1689 C1665 0.949 . S
H1690 C1667 0.950 . S
H1691 C1669 0.950 . S
C1692 C1693 1.349 . S
C1692 C1694 1.327 . S
C1692 H1717 0.950 . S
C1693 C1692 1.349 . S
C1693 C1709 1.349 . S
C1694 C1692 1.327 . S
C1694 C1713 1.429 . S
C1694 H1718 0.950 . S
C1695 C1712 1.574 . S
C1695 C1714 1.368 . S
C1695 H1719 0.949 . S
H1696 C1700 0.949 . S
C1697 C1698 1.349 . S
C1697 C1699 1.327 . S
C1697 H1720 0.950 . S
C1698 C1697 1.349 . S
C1698 C1710 1.349 . S
C1699 C1697 1.327 . S
C1699 C1715 1.429 . S
C1699 H1721 0.950 . S
C1700 H1696 0.949 . S
C1700 C1708 1.574 . S
C1700 C1716 1.368 . S
H1701 C1709 0.950 . S
H1702 C1707 0.950 . S
H1703 C1708 0.949 . S
H1704 C1710 0.950 . S
H1705 C1711 0.950 . S
H1706 C1712 0.949 . S
C1707 H1702 0.950 . S
C1707 C1709 1.327 . S
C1707 C1713 1.429 . S
C1708 C1700 1.574 . S
C1708 H1703 0.949 . S
C1708 C1714 1.368 . S
C1709 C1693 1.349 . S
C1709 H1701 0.950 . S
C1709 C1707 1.327 . S
C1710 C1698 1.349 . S
C1710 H1704 0.950 . S
C1710 C1711 1.327 . S
C1711 H1705 0.950 . S
C1711 C1710 1.327 . S
C1711 C1715 1.429 . S
C1712 C1695 1.574 . S
C1712 H1706 0.949 . S
C1712 C1716 1.368 . S
C1713 C1694 1.429 . S
C1713 C1707 1.429 . S
C1713 C1714 1.523 . S
C1714 C1695 1.368 . S
C1714 C1708 1.368 . S
C1714 C1713 1.523 . S
C1715 C1699 1.429 . S
C1715 C1711 1.429 . S
C1715 C1716 1.523 . S
C1716 C1700 1.368 . S
C1716 C1712 1.368 . S
C1716 C1715 1.523 . S
H1717 C1692 0.950 . S
H1718 C1694 0.950 . S
H1719 C1695 0.949 . S
H1720 C1697 0.950 . S
H1721 C1699 0.950 . S
C1722 C1723 1.349 . S
C1722 C1724 1.327 . S
C1722 H1747 0.950 . S
C1723 C1722 1.349 . S
C1723 C1739 1.349 . S
C1724 C1722 1.327 . S
C1724 C1743 1.429 . S
C1724 H1748 0.950 . S
C1725 C1742 1.574 . S
C1725 C1744 1.368 . S
C1725 H1749 0.949 . S
H1726 C1730 0.949 . S
C1727 C1728 1.349 . S
C1727 C1729 1.327 . S
C1727 H1750 0.950 . S
C1728 C1727 1.349 . S
C1728 C1740 1.349 . S
C1729 C1727 1.327 . S
C1729 C1745 1.429 . S
C1729 H1751 0.950 . S
C1730 H1726 0.949 . S
C1730 C1738 1.574 . S
C1730 C1746 1.368 . S
H1731 C1739 0.950 . S
H1732 C1737 0.950 . S
H1733 C1738 0.949 . S
H1734 C1740 0.950 . S
H1735 C1741 0.950 . S
H1736 C1742 0.949 . S
C1737 H1732 0.950 . S
C1737 C1739 1.327 . S
C1737 C1743 1.429 . S
C1738 C1730 1.574 . S
C1738 H1733 0.949 . S
C1738 C1744 1.368 . S
C1739 C1723 1.349 . S
C1739 H1731 0.950 . S
C1739 C1737 1.327 . S
C1740 C1728 1.349 . S
C1740 H1734 0.950 . S
C1740 C1741 1.327 . S
C1741 H1735 0.950 . S
C1741 C1740 1.327 . S
C1741 C1745 1.429 . S
C1742 C1725 1.574 . S
C1742 H1736 0.949 . S
C1742 C1746 1.368 . S
C1743 C1724 1.429 . S
C1743 C1737 1.429 . S
C1743 C1744 1.523 . S
C1744 C1725 1.368 . S
C1744 C1738 1.368 . S
C1744 C1743 1.523 . S
C1745 C1729 1.429 . S
C1745 C1741 1.429 . S
C1745 C1746 1.523 . S
C1746 C1730 1.368 . S
C1746 C1742 1.368 . S
C1746 C1745 1.523 . S
H1747 C1722 0.950 . S
H1748 C1724 0.950 . S
H1749 C1725 0.949 . S
H1750 C1727 0.950 . S
H1751 C1729 0.950 . S
C1752 C1753 1.349 . S
C1752 C1754 1.327 . S
C1752 H1777 0.950 . S
C1753 C1752 1.349 . S
C1753 C1769 1.349 . S
C1754 C1752 1.327 . S
C1754 C1773 1.429 . S
C1754 H1778 0.950 . S
C1755 C1772 1.574 . S
C1755 C1774 1.368 . S
C1755 H1779 0.949 . S
H1756 C1760 0.949 . S
C1757 C1758 1.349 . S
C1757 C1759 1.327 . S
C1757 H1780 0.950 . S
C1758 C1757 1.349 . S
C1758 C1770 1.349 . S
C1759 C1757 1.327 . S
C1759 C1775 1.429 . S
C1759 H1781 0.950 . S
C1760 H1756 0.949 . S
C1760 C1768 1.574 . S
C1760 C1776 1.368 . S
H1761 C1769 0.950 . S
H1762 C1767 0.950 . S
H1763 C1768 0.949 . S
H1764 C1770 0.950 . S
H1765 C1771 0.950 . S
H1766 C1772 0.949 . S
C1767 H1762 0.950 . S
C1767 C1769 1.327 . S
C1767 C1773 1.429 . S
C1768 C1760 1.574 . S
C1768 H1763 0.949 . S
C1768 C1774 1.368 . S
C1769 C1753 1.349 . S
C1769 H1761 0.950 . S
C1769 C1767 1.327 . S
C1770 C1758 1.349 . S
C1770 H1764 0.950 . S
C1770 C1771 1.327 . S
C1771 H1765 0.950 . S
C1771 C1770 1.327 . S
C1771 C1775 1.429 . S
C1772 C1755 1.574 . S
C1772 H1766 0.949 . S
C1772 C1776 1.368 . S
C1773 C1754 1.429 . S
C1773 C1767 1.429 . S
C1773 C1774 1.523 . S
C1774 C1755 1.368 . S
C1774 C1768 1.368 . S
C1774 C1773 1.523 . S
C1775 C1759 1.429 . S
C1775 C1771 1.429 . S
C1775 C1776 1.523 . S
C1776 C1760 1.368 . S
C1776 C1772 1.368 . S
C1776 C1775 1.523 . S
H1777 C1752 0.950 . S
H1778 C1754 0.950 . S
H1779 C1755 0.949 . S
H1780 C1757 0.950 . S
H1781 C1759 0.950 . S
C1782 C1783 1.349 . S
C1782 C1784 1.327 . S
C1782 H1807 0.950 . S
C1783 C1782 1.349 . S
C1783 C1799 1.328 1_556 S
C1784 C1782 1.327 . S
C1784 C1803 1.429 . S
C1784 H1808 0.950 . S
C1785 C1802 1.574 . S
C1785 C1804 1.368 . S
C1785 H1809 0.949 . S
H1786 C1790 0.949 . S
C1787 C1788 1.349 . S
C1787 C1789 1.327 . S
C1787 H1810 0.950 . S
C1788 C1787 1.349 . S
C1788 C1800 1.349 . S
C1789 C1787 1.327 . S
C1789 C1805 1.429 . S
C1789 H1811 0.950 . S
C1790 H1786 0.949 . S
C1790 C1798 1.574 . S
C1790 C1806 1.368 . S
H1791 C1799 0.986 . S
H1792 C1797 0.950 1_554 S
H1793 C1798 0.949 . S
H1794 C1800 0.950 . S
H1795 C1801 0.950 . S
H1796 C1802 0.949 . S
C1797 H1792 0.950 1_556 S
C1797 C1799 1.313 1_556 S
C1797 C1803 1.429 . S
C1798 C1790 1.574 . S
C1798 H1793 0.949 . S
C1798 C1804 1.368 . S
C1799 C1783 1.328 1_554 S
C1799 H1791 0.986 . S
C1799 C1797 1.313 1_554 S
C1800 C1788 1.349 . S
C1800 H1794 0.950 . S
C1800 C1801 1.327 . S
C1801 H1795 0.950 . S
C1801 C1800 1.327 . S
C1801 C1805 1.429 . S
C1802 C1785 1.574 . S
C1802 H1796 0.949 . S
C1802 C1806 1.368 . S
C1803 C1784 1.429 . S
C1803 C1797 1.429 . S
C1803 C1804 1.523 . S
C1804 C1785 1.368 . S
C1804 C1798 1.368 . S
C1804 C1803 1.523 . S
C1805 C1789 1.429 . S
C1805 C1801 1.429 . S
C1805 C1806 1.523 . S
C1806 C1790 1.368 . S
C1806 C1802 1.368 . S
C1806 C1805 1.523 . S
H1807 C1782 0.950 . S
H1808 C1784 0.950 . S
H1809 C1785 0.949 . S
H1810 C1787 0.950 . S
H1811 C1789 0.950 . S
C1812 C1813 1.349 . S
C1812 C1814 1.327 . S
C1812 H1837 0.950 1_556 S
C1813 C1812 1.349 . S
C1813 C1829 1.349 . S
C1814 C1812 1.327 . S
C1814 C1833 1.429 . S
C1814 H1838 0.950 . S
C1815 C1832 1.574 . S
C1815 C1834 1.368 . S
C1815 H1839 0.949 . S
H1816 C1820 0.949 . S
C1817 C1818 1.349 . S
C1817 C1819 1.327 . S
C1817 H1840 0.950 . S
C1818 C1817 1.349 . S
C1818 C1830 1.349 . S
C1819 C1817 1.327 . S
C1819 C1835 1.429 . S
C1819 H1841 0.950 . S
C1820 H1816 0.949 . S
C1820 C1828 1.574 . S
C1820 C1836 1.368 . S
H1821 C1829 0.950 . S
H1822 C1827 0.950 . S
H1823 C1828 0.949 . S
H1824 C1830 0.950 . S
H1825 C1831 0.950 . S
H1826 C1832 0.949 . S
C1827 H1822 0.950 . S
C1827 C1829 1.327 . S
C1827 C1833 1.429 . S
C1828 C1820 1.574 . S
C1828 H1823 0.949 . S
C1828 C1834 1.368 . S
C1829 C1813 1.349 . S
C1829 H1821 0.950 . S
C1829 C1827 1.327 . S
C1830 C1818 1.349 . S
C1830 H1824 0.950 . S
C1830 C1831 1.327 . S
C1831 H1825 0.950 . S
C1831 C1830 1.327 . S
C1831 C1835 1.429 . S
C1832 C1815 1.574 . S
C1832 H1826 0.949 . S
C1832 C1836 1.368 . S
C1833 C1814 1.429 . S
C1833 C1827 1.429 . S
C1833 C1834 1.523 . S
C1834 C1815 1.368 . S
C1834 C1828 1.368 . S
C1834 C1833 1.523 . S
C1835 C1819 1.429 . S
C1835 C1831 1.429 . S
C1835 C1836 1.523 . S
C1836 C1820 1.368 . S
C1836 C1832 1.368 . S
C1836 C1835 1.523 . S
H1837 C1812 0.950 1_554 S
H1838 C1814 0.950 . S
H1839 C1815 0.949 . S
H1840 C1817 0.950 . S
H1841 C1819 0.950 . S
C1842 C1843 1.349 . S
C1842 C1844 1.327 . S
C1842 H1867 0.950 1_556 S
C1843 C1842 1.349 . S
C1843 C1859 1.349 . S
C1844 C1842 1.327 . S
C1844 C1863 1.429 . S
C1844 H1868 0.950 . S
C1845 C1862 1.574 . S
C1845 C1864 1.368 . S
C1845 H1869 0.949 . S
H1846 C1850 0.949 . S
C1847 C1848 1.349 . S
C1847 C1849 1.327 . S
C1847 H1870 0.950 . S
C1848 C1847 1.349 . S
C1848 C1860 1.349 . S
C1849 C1847 1.327 . S
C1849 C1865 1.429 . S
C1849 H1871 0.950 . S
C1850 H1846 0.949 . S
C1850 C1858 1.574 . S
C1850 C1866 1.368 . S
H1851 C1859 0.950 . S
H1852 C1857 0.950 . S
H1853 C1858 0.949 . S
H1854 C1860 0.950 . S
H1855 C1861 0.950 . S
H1856 C1862 0.949 . S
C1857 H1852 0.950 . S
C1857 C1859 1.327 . S
C1857 C1863 1.429 . S
C1858 C1850 1.574 . S
C1858 H1853 0.949 . S
C1858 C1864 1.368 . S
C1859 C1843 1.349 . S
C1859 H1851 0.950 . S
C1859 C1857 1.327 . S
C1860 C1848 1.349 . S
C1860 H1854 0.950 . S
C1860 C1861 1.327 . S
C1861 H1855 0.950 . S
C1861 C1860 1.327 . S
C1861 C1865 1.429 . S
C1862 C1845 1.574 . S
C1862 H1856 0.949 . S
C1862 C1866 1.368 . S
C1863 C1844 1.429 . S
C1863 C1857 1.429 . S
C1863 C1864 1.523 . S
C1864 C1845 1.368 . S
C1864 C1858 1.368 . S
C1864 C1863 1.523 . S
C1865 C1849 1.429 . S
C1865 C1861 1.429 . S
C1865 C1866 1.523 . S
C1866 C1850 1.368 . S
C1866 C1862 1.368 . S
C1866 C1865 1.523 . S
H1867 C1842 0.950 1_554 S
H1868 C1844 0.950 . S
H1869 C1845 0.949 . S
H1870 C1847 0.950 . S
H1871 C1849 0.950 . S
C1872 C1873 1.349 . S
C1872 C1874 1.327 . S
C1872 H1897 0.950 . S
C1873 C1872 1.349 . S
C1873 C1889 1.349 . S
C1874 C1872 1.327 . S
C1874 C1893 1.429 . S
C1874 H1898 0.950 . S
C1875 C1892 1.574 . S
C1875 C1894 1.368 . S
C1875 H1899 0.949 . S
H1876 C1880 0.949 . S
C1877 C1878 1.349 . S
C1877 C1879 1.327 . S
C1877 H1900 0.950 . S
C1878 C1877 1.349 . S
C1878 C1890 1.349 . S
C1879 C1877 1.327 . S
C1879 C1895 1.429 . S
C1879 H1901 0.950 . S
C1880 H1876 0.949 . S
C1880 C1888 1.574 . S
C1880 C1896 1.368 . S
H1881 C1889 0.950 1_554 S
H1882 C1887 0.950 . S
H1883 C1888 0.949 . S
H1884 C1890 0.950 . S
H1885 C1891 0.950 . S
H1886 C1892 0.949 . S
C1887 H1882 0.950 . S
C1887 C1889 1.327 . S
C1887 C1893 1.429 . S
C1888 C1880 1.574 . S
C1888 H1883 0.949 . S
C1888 C1894 1.368 . S
C1889 C1873 1.349 . S
C1889 H1881 0.950 1_556 S
C1889 C1887 1.327 . S
C1890 C1878 1.349 . S
C1890 H1884 0.950 . S
C1890 C1891 1.327 . S
C1891 H1885 0.950 . S
C1891 C1890 1.327 . S
C1891 C1895 1.429 . S
C1892 C1875 1.574 . S
C1892 H1886 0.949 . S
C1892 C1896 1.368 . S
C1893 C1874 1.429 . S
C1893 C1887 1.429 . S
C1893 C1894 1.523 . S
C1894 C1875 1.368 . S
C1894 C1888 1.368 . S
C1894 C1893 1.523 . S
C1895 C1879 1.429 . S
C1895 C1891 1.429 . S
C1895 C1896 1.523 . S
C1896 C1880 1.368 . S
C1896 C1892 1.368 . S
C1896 C1895 1.523 . S
H1897 C1872 0.950 . S
H1898 C1874 0.950 . S
H1899 C1875 0.949 . S
H1900 C1877 0.950 . S
H1901 C1879 0.950 . S
C1902 C1903 1.349 . S
C1902 C1904 1.327 . S
C1902 H1927 0.950 . S
C1903 C1902 1.349 . S
C1903 C1919 1.361 . S
C1904 C1902 1.327 . S
C1904 C1923 1.429 . S
C1904 H1928 0.950 . S
C1905 C1922 1.574 . S
C1905 C1924 1.368 . S
C1905 H1929 0.949 . S
H1906 C1910 0.949 . S
C1907 C1908 1.349 . S
C1907 C1909 1.327 . S
C1907 H1930 0.950 . S
C1908 C1907 1.349 . S
C1908 C1920 1.349 . S
C1909 C1907 1.327 . S
C1909 C1925 1.429 . S
C1909 H1931 0.950 . S
C1910 H1906 0.949 . S
C1910 C1918 1.574 . S
C1910 C1926 1.368 . S
H1911 C1919 0.930 1_554 S
H1912 C1917 0.945 1_554 S
H1913 C1918 0.949 . S
H1914 C1920 0.950 . S
H1915 C1921 0.950 . S
H1916 C1922 0.949 . S
C1917 H1912 0.945 1_556 S
C1917 C1919 1.335 . S
C1917 C1923 1.429 . S
C1918 C1910 1.574 . S
C1918 H1913 0.949 . S
C1918 C1924 1.368 . S
C1919 C1903 1.361 . S
C1919 H1911 0.930 1_556 S
C1919 C1917 1.335 . S
C1920 C1908 1.349 . S
C1920 H1914 0.950 . S
C1920 C1921 1.327 . S
C1921 H1915 0.950 . S
C1921 C1920 1.327 . S
C1921 C1925 1.429 . S
C1922 C1905 1.574 . S
C1922 H1916 0.949 . S
C1922 C1926 1.368 . S
C1923 C1904 1.429 . S
C1923 C1917 1.429 . S
C1923 C1924 1.523 . S
C1924 C1905 1.368 . S
C1924 C1918 1.368 . S
C1924 C1923 1.523 . S
C1925 C1909 1.429 . S
C1925 C1921 1.429 . S
C1925 C1926 1.523 . S
C1926 C1910 1.368 . S
C1926 C1922 1.368 . S
C1926 C1925 1.523 . S
H1927 C1902 0.950 . S
H1928 C1904 0.950 . S
H1929 C1905 0.949 . S
H1930 C1907 0.950 . S
H1931 C1909 0.950 . S
C1932 C1933 1.349 . S
C1932 C1934 1.327 . S
C1932 H1957 0.950 1_556 S
C1933 C1932 1.349 . S
C1933 C1949 1.349 . S
C1934 C1932 1.327 . S
C1934 C1953 1.429 . S
C1934 H1958 0.950 . S
C1935 C1952 1.574 . S
C1935 C1954 1.368 . S
C1935 H1959 0.949 . S
H1936 C1940 0.949 . S
C1937 C1938 1.349 . S
C1937 C1939 1.327 . S
C1937 H1960 0.950 . S
C1938 C1937 1.349 . S
C1938 C1950 1.349 . S
C1939 C1937 1.327 . S
C1939 C1955 1.429 . S
C1939 H1961 0.950 . S
C1940 H1936 0.949 . S
C1940 C1948 1.574 . S
C1940 C1956 1.368 . S
H1941 C1949 0.950 . S
H1942 C1947 0.950 . S
H1943 C1948 0.949 . S
H1944 C1950 0.950 . S
H1945 C1951 0.950 . S
H1946 C1952 0.949 . S
C1947 H1942 0.950 . S
C1947 C1949 1.327 . S
C1947 C1953 1.429 . S
C1948 C1940 1.574 . S
C1948 H1943 0.949 . S
C1948 C1954 1.368 . S
C1949 C1933 1.349 . S
C1949 H1941 0.950 . S
C1949 C1947 1.327 . S
C1950 C1938 1.349 . S
C1950 H1944 0.950 . S
C1950 C1951 1.327 . S
C1951 H1945 0.950 . S
C1951 C1950 1.327 . S
C1951 C1955 1.429 . S
C1952 C1935 1.574 . S
C1952 H1946 0.949 . S
C1952 C1956 1.368 . S
C1953 C1934 1.429 . S
C1953 C1947 1.429 . S
C1953 C1954 1.523 . S
C1954 C1935 1.368 . S
C1954 C1948 1.368 . S
C1954 C1953 1.523 . S
C1955 C1939 1.429 . S
C1955 C1951 1.429 . S
C1955 C1956 1.523 . S
C1956 C1940 1.368 . S
C1956 C1952 1.368 . S
C1956 C1955 1.523 . S
H1957 C1932 0.950 1_554 S
H1958 C1934 0.950 . S
H1959 C1935 0.949 . S
H1960 C1937 0.950 . S
H1961 C1939 0.950 . S
C1962 C1963 1.349 . S
C1962 C1964 1.327 . S
C1962 H1987 0.950 . S
C1963 C1962 1.349 . S
C1963 C1979 1.349 . S
C1964 C1962 1.327 . S
C1964 C1983 1.429 . S
C1964 H1988 0.950 . S
C1965 C1982 1.574 . S
C1965 C1984 1.368 . S
C1965 H1989 0.949 . S
H1966 C1970 0.949 . S
C1967 C1968 1.349 . S
C1967 C1969 1.327 . S
C1967 H1990 0.950 . S
C1968 C1967 1.349 . S
C1968 C1980 1.349 . S
C1969 C1967 1.327 . S
C1969 C1985 1.429 . S
C1969 H1991 0.950 . S
C1970 H1966 0.949 . S
C1970 C1978 1.574 . S
C1970 C1986 1.368 . S
H1971 C1979 0.950 . S
H1972 C1977 0.950 . S
H1973 C1978 0.949 . S
H1974 C1980 0.950 . S
H1975 C1981 0.950 . S
H1976 C1982 0.949 . S
C1977 H1972 0.950 . S
C1977 C1979 1.327 . S
C1977 C1983 1.429 . S
C1978 C1970 1.574 . S
C1978 H1973 0.949 . S
C1978 C1984 1.368 . S
C1979 C1963 1.349 . S
C1979 H1971 0.950 . S
C1979 C1977 1.327 . S
C1980 C1968 1.349 . S
C1980 H1974 0.950 . S
C1980 C1981 1.327 . S
C1981 H1975 0.950 . S
C1981 C1980 1.327 . S
C1981 C1985 1.429 . S
C1982 C1965 1.574 . S
C1982 H1976 0.949 . S
C1982 C1986 1.368 . S
C1983 C1964 1.429 . S
C1983 C1977 1.429 . S
C1983 C1984 1.523 . S
C1984 C1965 1.368 . S
C1984 C1978 1.368 . S
C1984 C1983 1.523 . S
C1985 C1969 1.429 . S
C1985 C1981 1.429 . S
C1985 C1986 1.523 . S
C1986 C1970 1.368 . S
C1986 C1982 1.368 . S
C1986 C1985 1.523 . S
H1987 C1962 0.950 . S
H1988 C1964 0.950 . S
H1989 C1965 0.949 . S
H1990 C1967 0.950 . S
H1991 C1969 0.950 . S
C1992 C1993 1.349 . S
C1992 C1994 1.327 . S
C1992 H2017 0.950 . S
C1993 C1992 1.349 . S
C1993 C2009 1.349 . S
C1994 C1992 1.327 . S
C1994 C2013 1.429 . S
C1994 H2018 0.950 . S
C1995 C2012 1.574 . S
C1995 C2014 1.368 . S
C1995 H2019 0.949 . S
H1996 C2000 0.949 . S
C1997 C1998 1.349 . S
C1997 C1999 1.327 . S
C1997 H2020 0.950 . S
C1998 C1997 1.349 . S
C1998 C2010 1.349 . S
C1999 C1997 1.327 . S
C1999 C2015 1.429 . S
C1999 H2021 0.950 . S
C2000 H1996 0.949 . S
C2000 C2008 1.574 . S
C2000 C2016 1.368 . S
H2001 C2009 0.950 . S
H2002 C2007 0.950 . S
H2003 C2008 0.949 . S
H2004 C2010 0.950 . S
H2005 C2011 0.950 . S
H2006 C2012 0.949 . S
C2007 H2002 0.950 . S
C2007 C2009 1.327 . S
C2007 C2013 1.429 . S
C2008 C2000 1.574 . S
C2008 H2003 0.949 . S
C2008 C2014 1.368 . S
C2009 C1993 1.349 . S
C2009 H2001 0.950 . S
C2009 C2007 1.327 . S
C2010 C1998 1.349 . S
C2010 H2004 0.950 . S
C2010 C2011 1.327 . S
C2011 H2005 0.950 . S
C2011 C2010 1.327 . S
C2011 C2015 1.429 . S
C2012 C1995 1.574 . S
C2012 H2006 0.949 . S
C2012 C2016 1.368 . S
C2013 C1994 1.429 . S
C2013 C2007 1.429 . S
C2013 C2014 1.523 . S
C2014 C1995 1.368 . S
C2014 C2008 1.368 . S
C2014 C2013 1.523 . S
C2015 C1999 1.429 . S
C2015 C2011 1.429 . S
C2015 C2016 1.523 . S
C2016 C2000 1.368 . S
C2016 C2012 1.368 . S
C2016 C2015 1.523 . S
H2017 C1992 0.950 . S
H2018 C1994 0.950 . S
H2019 C1995 0.949 . S
H2020 C1997 0.950 . S
H2021 C1999 0.950 . S
C2022 C2023 1.349 . S
C2022 C2024 1.327 . S
C2022 H2047 0.950 . S
C2023 C2022 1.349 . S
C2023 C2039 1.349 . S
C2024 C2022 1.327 . S
C2024 C2043 1.429 . S
C2024 H2048 0.950 . S
C2025 C2042 1.574 . S
C2025 C2044 1.368 . S
C2025 H2049 0.949 . S
H2026 C2030 0.949 . S
C2027 C2028 1.349 . S
C2027 C2029 1.327 . S
C2027 H2050 0.950 . S
C2028 C2027 1.349 . S
C2028 C2040 1.349 . S
C2029 C2027 1.327 . S
C2029 C2045 1.429 . S
C2029 H2051 0.950 . S
C2030 H2026 0.949 . S
C2030 C2038 1.574 . S
C2030 C2046 1.368 . S
H2031 C2039 0.950 . S
H2032 C2037 0.950 . S
H2033 C2038 0.949 . S
H2034 C2040 0.950 . S
H2035 C2041 0.950 . S
H2036 C2042 0.949 . S
C2037 H2032 0.950 . S
C2037 C2039 1.327 . S
C2037 C2043 1.429 . S
C2038 C2030 1.574 . S
C2038 H2033 0.949 . S
C2038 C2044 1.368 . S
C2039 C2023 1.349 . S
C2039 H2031 0.950 . S
C2039 C2037 1.327 . S
C2040 C2028 1.349 . S
C2040 H2034 0.950 . S
C2040 C2041 1.327 . S
C2041 H2035 0.950 . S
C2041 C2040 1.327 . S
C2041 C2045 1.429 . S
C2042 C2025 1.574 . S
C2042 H2036 0.949 . S
C2042 C2046 1.368 . S
C2043 C2024 1.429 . S
C2043 C2037 1.429 . S
C2043 C2044 1.523 . S
C2044 C2025 1.368 . S
C2044 C2038 1.368 . S
C2044 C2043 1.523 . S
C2045 C2029 1.429 . S
C2045 C2041 1.429 . S
C2045 C2046 1.523 . S
C2046 C2030 1.368 . S
C2046 C2042 1.368 . S
C2046 C2045 1.523 . S
H2047 C2022 0.950 . S
H2048 C2024 0.950 . S
H2049 C2025 0.949 . S
H2050 C2027 0.950 . S
H2051 C2029 0.950 . S
C2052 C2053 1.349 . S
C2052 C2054 1.327 . S
C2052 H2077 0.950 . S
C2053 C2052 1.349 . S
C2053 C2069 1.349 . S
C2054 C2052 1.327 . S
C2054 C2073 1.429 . S
C2054 H2078 0.950 . S
C2055 C2072 1.574 . S
C2055 C2074 1.368 . S
C2055 H2079 0.949 . S
H2056 C2060 0.949 . S
C2057 C2058 1.349 . S
C2057 C2059 1.327 . S
C2057 H2080 0.950 . S
C2058 C2057 1.349 . S
C2058 C2070 1.349 . S
C2059 C2057 1.327 . S
C2059 C2075 1.429 . S
C2059 H2081 0.950 . S
C2060 H2056 0.949 . S
C2060 C2068 1.574 . S
C2060 C2076 1.368 . S
H2061 C2069 0.950 . S
H2062 C2067 0.950 . S
H2063 C2068 0.949 . S
H2064 C2070 0.950 . S
H2065 C2071 0.950 . S
H2066 C2072 0.949 . S
C2067 H2062 0.950 . S
C2067 C2069 1.327 . S
C2067 C2073 1.429 . S
C2068 C2060 1.574 . S
C2068 H2063 0.949 . S
C2068 C2074 1.368 . S
C2069 C2053 1.349 . S
C2069 H2061 0.950 . S
C2069 C2067 1.327 . S
C2070 C2058 1.349 . S
C2070 H2064 0.950 . S
C2070 C2071 1.327 . S
C2071 H2065 0.950 . S
C2071 C2070 1.327 . S
C2071 C2075 1.429 . S
C2072 C2055 1.574 . S
C2072 H2066 0.949 . S
C2072 C2076 1.368 . S
C2073 C2054 1.429 . S
C2073 C2067 1.429 . S
C2073 C2074 1.523 . S
C2074 C2055 1.368 . S
C2074 C2068 1.368 . S
C2074 C2073 1.523 . S
C2075 C2059 1.429 . S
C2075 C2071 1.429 . S
C2075 C2076 1.523 . S
C2076 C2060 1.368 . S
C2076 C2072 1.368 . S
C2076 C2075 1.523 . S
H2077 C2052 0.950 . S
H2078 C2054 0.950 . S
H2079 C2055 0.949 . S
H2080 C2057 0.950 . S
H2081 C2059 0.950 . S
C2082 C2083 1.349 . S
C2082 C2084 1.327 . S
C2082 H2107 0.950 . S
C2083 C2082 1.349 . S
C2083 C2099 1.349 . S
C2084 C2082 1.327 . S
C2084 C2103 1.429 . S
C2084 H2108 0.950 . S
C2085 C2102 1.574 . S
C2085 C2104 1.368 . S
C2085 H2109 0.949 . S
H2086 C2090 0.949 . S
C2087 C2088 1.349 . S
C2087 C2089 1.327 . S
C2087 H2110 0.950 . S
C2088 C2087 1.349 . S
C2088 C2100 1.349 . S
C2089 C2087 1.327 . S
C2089 C2105 1.429 . S
C2089 H2111 0.950 . S
C2090 H2086 0.949 . S
C2090 C2098 1.574 . S
C2090 C2106 1.368 . S
H2091 C2099 0.950 . S
H2092 C2097 0.950 . S
H2093 C2098 0.949 . S
H2094 C2100 0.950 . S
H2095 C2101 0.950 . S
H2096 C2102 0.949 . S
C2097 H2092 0.950 . S
C2097 C2099 1.327 . S
C2097 C2103 1.429 . S
C2098 C2090 1.574 . S
C2098 H2093 0.949 . S
C2098 C2104 1.368 . S
C2099 C2083 1.349 . S
C2099 H2091 0.950 . S
C2099 C2097 1.327 . S
C2100 C2088 1.349 . S
C2100 H2094 0.950 . S
C2100 C2101 1.327 . S
C2101 H2095 0.950 . S
C2101 C2100 1.327 . S
C2101 C2105 1.429 . S
C2102 C2085 1.574 . S
C2102 H2096 0.949 . S
C2102 C2106 1.368 . S
C2103 C2084 1.429 . S
C2103 C2097 1.429 . S
C2103 C2104 1.523 . S
C2104 C2085 1.368 . S
C2104 C2098 1.368 . S
C2104 C2103 1.523 . S
C2105 C2089 1.429 . S
C2105 C2101 1.429 . S
C2105 C2106 1.523 . S
C2106 C2090 1.368 . S
C2106 C2102 1.368 . S
C2106 C2105 1.523 . S
H2107 C2082 0.950 . S
H2108 C2084 0.950 . S
H2109 C2085 0.949 . S
H2110 C2087 0.950 . S
H2111 C2089 0.950 . S
C2112 C2113 1.349 . S
C2112 C2114 1.327 . S
C2112 H2137 0.950 . S
C2113 C2112 1.349 . S
C2113 C2129 1.349 . S
C2114 C2112 1.327 . S
C2114 C2133 1.429 . S
C2114 H2138 0.950 . S
C2115 C2132 1.574 . S
C2115 C2134 1.368 . S
C2115 H2139 0.949 . S
H2116 C2120 0.949 . S
C2117 C2118 1.349 . S
C2117 C2119 1.327 . S
C2117 H2140 0.950 . S
C2118 C2117 1.349 . S
C2118 C2130 1.349 . S
C2119 C2117 1.327 . S
C2119 C2135 1.429 . S
C2119 H2141 0.950 . S
C2120 H2116 0.949 . S
C2120 C2128 1.574 . S
C2120 C2136 1.368 . S
H2121 C2129 0.950 . S
H2122 C2127 0.950 . S
H2123 C2128 0.949 . S
H2124 C2130 0.950 . S
H2125 C2131 0.950 . S
H2126 C2132 0.949 . S
C2127 H2122 0.950 . S
C2127 C2129 1.327 . S
C2127 C2133 1.429 . S
C2128 C2120 1.574 . S
C2128 H2123 0.949 . S
C2128 C2134 1.368 . S
C2129 C2113 1.349 . S
C2129 H2121 0.950 . S
C2129 C2127 1.327 . S
C2130 C2118 1.349 . S
C2130 H2124 0.950 . S
C2130 C2131 1.327 . S
C2131 H2125 0.950 . S
C2131 C2130 1.327 . S
C2131 C2135 1.429 . S
C2132 C2115 1.574 . S
C2132 H2126 0.949 . S
C2132 C2136 1.368 . S
C2133 C2114 1.429 . S
C2133 C2127 1.429 . S
C2133 C2134 1.523 . S
C2134 C2115 1.368 . S
C2134 C2128 1.368 . S
C2134 C2133 1.523 . S
C2135 C2119 1.429 . S
C2135 C2131 1.429 . S
C2135 C2136 1.523 . S
C2136 C2120 1.368 . S
C2136 C2132 1.368 . S
C2136 C2135 1.523 . S
H2137 C2112 0.950 . S
H2138 C2114 0.950 . S
H2139 C2115 0.949 . S
H2140 C2117 0.950 . S
H2141 C2119 0.950 . S
C2142 C2143 1.349 . S
C2142 C2144 1.327 . S
C2142 H2167 0.950 . S
C2143 C2142 1.349 . S
C2143 C2159 1.349 . S
C2144 C2142 1.327 . S
C2144 C2163 1.429 . S
C2144 H2168 0.950 . S
C2145 C2162 1.574 . S
C2145 C2164 1.368 . S
C2145 H2169 0.949 1_455 S
H2146 C2150 0.949 . S
C2147 C2148 1.349 . S
C2147 C2149 1.327 . S
C2147 H2170 0.950 1_455 S
C2148 C2147 1.349 . S
C2148 C2160 1.349 . S
C2149 C2147 1.327 . S
C2149 C2165 1.429 . S
C2149 H2171 0.950 1_455 S
C2150 H2146 0.949 . S
C2150 C2158 1.574 . S
C2150 C2166 1.368 . S
H2151 C2159 0.950 1_655 S
H2152 C2157 0.950 1_655 S
H2153 C2158 0.949 . S
H2154 C2160 0.950 . S
H2155 C2161 0.950 . S
H2156 C2162 0.949 1_655 S
C2157 H2152 0.950 1_455 S
C2157 C2159 1.327 . S
C2157 C2163 1.429 . S
C2158 C2150 1.574 . S
C2158 H2153 0.949 . S
C2158 C2164 1.368 . S
C2159 C2143 1.349 . S
C2159 H2151 0.950 1_455 S
C2159 C2157 1.327 . S
C2160 C2148 1.349 . S
C2160 H2154 0.950 . S
C2160 C2161 1.327 . S
C2161 H2155 0.950 . S
C2161 C2160 1.327 . S
C2161 C2165 1.429 . S
C2162 C2145 1.574 . S
C2162 H2156 0.949 1_455 S
C2162 C2166 1.368 . S
C2163 C2144 1.429 . S
C2163 C2157 1.429 . S
C2163 C2164 1.523 . S
C2164 C2145 1.368 . S
C2164 C2158 1.368 . S
C2164 C2163 1.523 . S
C2165 C2149 1.429 . S
C2165 C2161 1.429 . S
C2165 C2166 1.523 . S
C2166 C2150 1.368 . S
C2166 C2162 1.368 . S
C2166 C2165 1.523 . S
H2167 C2142 0.950 . S
H2168 C2144 0.950 . S
H2169 C2145 0.949 1_655 S
H2170 C2147 0.950 1_655 S
H2171 C2149 0.950 1_655 S
C2172 C2173 1.349 . S
C2172 C2174 1.327 . S
C2172 H2197 0.950 . S
C2173 C2172 1.349 . S
C2173 C2189 1.349 . S
C2174 C2172 1.327 . S
C2174 C2193 1.429 . S
C2174 H2198 0.950 . S
C2175 C2192 1.574 . S
C2175 C2194 1.368 . S
C2175 H2199 0.949 . S
H2176 C2180 0.949 . S
C2177 C2178 1.349 . S
C2177 C2179 1.327 . S
C2177 H2200 0.950 . S
C2178 C2177 1.349 . S
C2178 C2190 1.349 . S
C2179 C2177 1.327 . S
C2179 C2195 1.429 . S
C2179 H2201 0.950 . S
C2180 H2176 0.949 . S
C2180 C2188 1.574 . S
C2180 C2196 1.368 . S
H2181 C2189 0.950 . S
H2182 C2187 0.950 . S
H2183 C2188 0.949 . S
H2184 C2190 0.950 . S
H2185 C2191 0.950 . S
H2186 C2192 0.949 . S
C2187 H2182 0.950 . S
C2187 C2189 1.327 . S
C2187 C2193 1.429 . S
C2188 C2180 1.574 . S
C2188 H2183 0.949 . S
C2188 C2194 1.368 . S
C2189 C2173 1.349 . S
C2189 H2181 0.950 . S
C2189 C2187 1.327 . S
C2190 C2178 1.349 . S
C2190 H2184 0.950 . S
C2190 C2191 1.327 . S
C2191 H2185 0.950 . S
C2191 C2190 1.327 . S
C2191 C2195 1.429 . S
C2192 C2175 1.574 . S
C2192 H2186 0.949 . S
C2192 C2196 1.368 . S
C2193 C2174 1.429 . S
C2193 C2187 1.429 . S
C2193 C2194 1.523 . S
C2194 C2175 1.368 . S
C2194 C2188 1.368 . S
C2194 C2193 1.523 . S
C2195 C2179 1.429 . S
C2195 C2191 1.429 . S
C2195 C2196 1.523 . S
C2196 C2180 1.368 . S
C2196 C2192 1.368 . S
C2196 C2195 1.523 . S
H2197 C2172 0.950 . S
H2198 C2174 0.950 . S
H2199 C2175 0.949 . S
H2200 C2177 0.950 . S
H2201 C2179 0.950 . S
C2202 C2203 1.349 . S
C2202 C2204 1.327 . S
C2202 H2227 0.950 . S
C2203 C2202 1.349 . S
C2203 C2219 1.349 . S
C2204 C2202 1.327 . S
C2204 C2223 1.429 . S
C2204 H2228 0.950 . S
C2205 C2222 1.545 . S
C2205 C2224 1.345 1_545 S
C2205 H2229 1.000 . S
H2206 C2210 0.949 . S
C2207 C2208 1.349 1_545 S
C2207 C2209 1.327 . S
C2207 H2230 0.950 . S
C2208 C2207 1.349 1_565 S
C2208 C2220 1.349 . S
C2209 C2207 1.327 . S
C2209 C2225 1.429 1_545 S
C2209 H2231 0.950 . S
C2210 H2206 0.949 . S
C2210 C2218 1.574 . S
C2210 C2226 1.368 . S
H2211 C2219 0.950 1_545 S
H2212 C2217 0.939 1_545 S
H2213 C2218 0.949 . S
H2214 C2220 0.950 . S
H2215 C2221 0.950 . S
H2216 C2222 0.949 . S
C2217 H2212 0.939 1_565 S
C2217 C2219 1.311 . S
C2217 C2223 1.457 . S
C2218 C2210 1.574 . S
C2218 H2213 0.949 . S
C2218 C2224 1.368 . S
C2219 C2203 1.349 . S
C2219 H2211 0.950 1_565 S
C2219 C2217 1.311 . S
C2220 C2208 1.349 . S
C2220 H2214 0.950 . S
C2220 C2221 1.327 . S
C2221 H2215 0.950 . S
C2221 C2220 1.327 . S
C2221 C2225 1.429 . S
C2222 C2205 1.545 . S
C2222 H2216 0.949 . S
C2222 C2226 1.368 1_545 S
C2223 C2204 1.429 . S
C2223 C2217 1.457 . S
C2223 C2224 1.523 . S
C2224 C2205 1.345 1_565 S
C2224 C2218 1.368 . S
C2224 C2223 1.523 . S
C2225 C2209 1.429 1_565 S
C2225 C2221 1.429 . S
C2225 C2226 1.523 . S
C2226 C2210 1.368 . S
C2226 C2222 1.368 1_565 S
C2226 C2225 1.523 . S
H2227 C2202 0.950 . S
H2228 C2204 0.950 . S
H2229 C2205 1.000 . S
H2230 C2207 0.950 . S
H2231 C2209 0.950 . S
C2232 C2233 1.349 . S
C2232 C2234 1.327 . S
C2232 H2257 0.950 . S
C2233 C2232 1.349 . S
C2233 C2249 1.349 1_565 S
C2234 C2232 1.327 . S
C2234 C2253 1.429 . S
C2234 H2258 0.950 . S
C2235 C2252 1.574 . S
C2235 C2254 1.368 1_545 S
C2235 H2259 0.949 . S
H2236 C2240 0.949 . S
C2237 C2238 1.310 1_545 S
C2237 C2239 1.327 . S
C2237 H2260 0.950 . S
C2238 C2237 1.310 1_565 S
C2238 C2250 1.433 . S
C2239 C2237 1.327 . S
C2239 C2255 1.429 1_545 S
C2239 H2261 0.950 . S
C2240 H2236 0.949 . S
C2240 C2248 1.574 . S
C2240 C2256 1.368 . S
H2241 C2249 0.950 . S
H2242 C2247 0.950 . S
H2243 C2248 0.949 . S
H2244 C2250 0.950 . S
H2245 C2251 0.950 . S
H2246 C2252 0.949 . S
C2247 H2242 0.950 . S
C2247 C2249 1.327 . S
C2247 C2253 1.429 1_545 S
C2248 C2240 1.574 . S
C2248 H2243 0.949 . S
C2248 C2254 1.368 . S
C2249 C2233 1.349 1_545 S
C2249 H2241 0.950 . S
C2249 C2247 1.327 . S
C2250 C2238 1.433 . S
C2250 H2244 0.950 . S
C2250 C2251 1.327 . S
C2251 H2245 0.950 . S
C2251 C2250 1.327 . S
C2251 C2255 1.429 . S
C2252 C2235 1.574 . S
C2252 H2246 0.949 . S
C2252 C2256 1.368 1_545 S
C2253 C2234 1.429 . S
C2253 C2247 1.429 1_565 S
C2253 C2254 1.523 . S
C2254 C2235 1.368 1_565 S
C2254 C2248 1.368 . S
C2254 C2253 1.523 . S
C2255 C2239 1.429 1_565 S
C2255 C2251 1.429 . S
C2255 C2256 1.523 . S
C2256 C2240 1.368 . S
C2256 C2252 1.368 1_565 S
C2256 C2255 1.523 . S
H2257 C2232 0.950 . S
H2258 C2234 0.950 . S
H2259 C2235 0.949 . S
H2260 C2237 0.950 . S
H2261 C2239 0.950 . S
C2262 C2263 1.349 . S
C2262 C2264 1.327 . S
C2262 H2287 0.950 . S
C2263 C2262 1.349 . S
C2263 C2279 1.349 . S
C2264 C2262 1.327 . S
C2264 C2283 1.429 . S
C2264 H2288 0.950 . S
C2265 C2282 1.574 . S
C2265 C2284 1.368 . S
C2265 H2289 0.949 . S
H2266 C2270 0.949 . S
C2267 C2268 1.349 . S
C2267 C2269 1.327 . S
C2267 H2290 0.950 . S
C2268 C2267 1.349 . S
C2268 C2280 1.349 . S
C2269 C2267 1.327 . S
C2269 C2285 1.429 . S
C2269 H2291 0.950 . S
C2270 H2266 0.949 . S
C2270 C2278 1.574 . S
C2270 C2286 1.368 . S
H2271 C2279 0.950 . S
H2272 C2277 0.950 . S
H2273 C2278 0.949 . S
H2274 C2280 0.950 . S
H2275 C2281 0.950 . S
H2276 C2282 0.949 . S
C2277 H2272 0.950 . S
C2277 C2279 1.327 . S
C2277 C2283 1.429 . S
C2278 C2270 1.574 . S
C2278 H2273 0.949 . S
C2278 C2284 1.368 . S
C2279 C2263 1.349 . S
C2279 H2271 0.950 . S
C2279 C2277 1.327 . S
C2280 C2268 1.349 . S
C2280 H2274 0.950 . S
C2280 C2281 1.327 . S
C2281 H2275 0.950 . S
C2281 C2280 1.327 . S
C2281 C2285 1.429 . S
C2282 C2265 1.574 . S
C2282 H2276 0.949 . S
C2282 C2286 1.368 . S
C2283 C2264 1.429 . S
C2283 C2277 1.429 . S
C2283 C2284 1.523 . S
C2284 C2265 1.368 . S
C2284 C2278 1.368 . S
C2284 C2283 1.523 . S
C2285 C2269 1.429 . S
C2285 C2281 1.429 . S
C2285 C2286 1.523 . S
C2286 C2270 1.368 . S
C2286 C2282 1.368 . S
C2286 C2285 1.523 . S
H2287 C2262 0.950 . S
H2288 C2264 0.950 . S
H2289 C2265 0.949 . S
H2290 C2267 0.950 . S
H2291 C2269 0.950 . S
C2292 C2293 1.349 . S
C2292 C2294 1.327 . S
C2292 H2317 0.950 . S
C2293 C2292 1.349 . S
C2293 C2309 1.349 . S
C2294 C2292 1.327 . S
C2294 C2313 1.429 . S
C2294 H2318 0.950 . S
C2295 C2312 1.574 . S
C2295 C2314 1.368 . S
C2295 H2319 0.949 . S
H2296 C2300 0.949 . S
C2297 C2298 1.349 . S
C2297 C2299 1.327 . S
C2297 H2320 0.950 . S
C2298 C2297 1.349 . S
C2298 C2310 1.349 . S
C2299 C2297 1.327 . S
C2299 C2315 1.429 . S
C2299 H2321 0.950 . S
C2300 H2296 0.949 . S
C2300 C2308 1.574 . S
C2300 C2316 1.368 . S
H2301 C2309 0.950 . S
H2302 C2307 0.950 . S
H2303 C2308 0.949 . S
H2304 C2310 0.950 . S
H2305 C2311 0.950 . S
H2306 C2312 0.949 . S
C2307 H2302 0.950 . S
C2307 C2309 1.327 . S
C2307 C2313 1.429 . S
C2308 C2300 1.574 . S
C2308 H2303 0.949 . S
C2308 C2314 1.368 . S
C2309 C2293 1.349 . S
C2309 H2301 0.950 . S
C2309 C2307 1.327 . S
C2310 C2298 1.349 . S
C2310 H2304 0.950 . S
C2310 C2311 1.327 . S
C2311 H2305 0.950 . S
C2311 C2310 1.327 . S
C2311 C2315 1.429 . S
C2312 C2295 1.574 . S
C2312 H2306 0.949 . S
C2312 C2316 1.368 . S
C2313 C2294 1.429 . S
C2313 C2307 1.429 . S
C2313 C2314 1.523 . S
C2314 C2295 1.368 . S
C2314 C2308 1.368 . S
C2314 C2313 1.523 . S
C2315 C2299 1.429 . S
C2315 C2311 1.429 . S
C2315 C2316 1.523 . S
C2316 C2300 1.368 . S
C2316 C2312 1.368 . S
C2316 C2315 1.523 . S
H2317 C2292 0.950 . S
H2318 C2294 0.950 . S
H2319 C2295 0.949 . S
H2320 C2297 0.950 . S
H2321 C2299 0.950 . S
C2322 C2323 1.349 . S
C2322 C2324 1.327 . S
C2322 H2347 0.950 . S
C2323 C2322 1.349 . S
C2323 C2339 1.349 . S
C2324 C2322 1.327 . S
C2324 C2343 1.429 . S
C2324 H2348 0.950 . S
C2325 C2342 1.574 . S
C2325 C2344 1.368 . S
C2325 H2349 0.949 . S
H2326 C2330 0.949 . S
C2327 C2328 1.349 . S
C2327 C2329 1.327 . S
C2327 H2350 0.950 . S
C2328 C2327 1.349 . S
C2328 C2340 1.349 . S
C2329 C2327 1.327 . S
C2329 C2345 1.429 . S
C2329 H2351 0.950 . S
C2330 H2326 0.949 . S
C2330 C2338 1.574 . S
C2330 C2346 1.368 . S
H2331 C2339 0.950 . S
H2332 C2337 0.950 . S
H2333 C2338 0.949 . S
H2334 C2340 0.950 . S
H2335 C2341 0.950 . S
H2336 C2342 0.949 . S
C2337 H2332 0.950 . S
C2337 C2339 1.327 . S
C2337 C2343 1.429 . S
C2338 C2330 1.574 . S
C2338 H2333 0.949 . S
C2338 C2344 1.368 . S
C2339 C2323 1.349 . S
C2339 H2331 0.950 . S
C2339 C2337 1.327 . S
C2340 C2328 1.349 . S
C2340 H2334 0.950 . S
C2340 C2341 1.327 . S
C2341 H2335 0.950 . S
C2341 C2340 1.327 . S
C2341 C2345 1.429 . S
C2342 C2325 1.574 . S
C2342 H2336 0.949 . S
C2342 C2346 1.368 . S
C2343 C2324 1.429 . S
C2343 C2337 1.429 . S
C2343 C2344 1.523 . S
C2344 C2325 1.368 . S
C2344 C2338 1.368 . S
C2344 C2343 1.523 . S
C2345 C2329 1.429 . S
C2345 C2341 1.429 . S
C2345 C2346 1.523 . S
C2346 C2330 1.368 . S
C2346 C2342 1.368 . S
C2346 C2345 1.523 . S
H2347 C2322 0.950 . S
H2348 C2324 0.950 . S
H2349 C2325 0.949 . S
H2350 C2327 0.950 . S
H2351 C2329 0.950 . S
C2352 C2353 1.349 . S
C2352 C2354 1.327 . S
C2352 H2377 0.950 . S
C2353 C2352 1.349 . S
C2353 C2369 1.349 . S
C2354 C2352 1.327 . S
C2354 C2373 1.429 . S
C2354 H2378 0.950 . S
C2355 C2372 1.574 . S
C2355 C2374 1.368 . S
C2355 H2379 0.949 . S
H2356 C2360 0.949 . S
C2357 C2358 1.349 . S
C2357 C2359 1.327 . S
C2357 H2380 0.950 . S
C2358 C2357 1.349 . S
C2358 C2370 1.349 . S
C2359 C2357 1.327 . S
C2359 C2375 1.429 . S
C2359 H2381 0.950 . S
C2360 H2356 0.949 . S
C2360 C2368 1.574 . S
C2360 C2376 1.368 . S
H2361 C2369 0.950 . S
H2362 C2367 0.950 . S
H2363 C2368 0.949 . S
H2364 C2370 0.950 . S
H2365 C2371 0.950 . S
H2366 C2372 0.949 . S
C2367 H2362 0.950 . S
C2367 C2369 1.327 . S
C2367 C2373 1.429 . S
C2368 C2360 1.574 . S
C2368 H2363 0.949 . S
C2368 C2374 1.368 . S
C2369 C2353 1.349 . S
C2369 H2361 0.950 . S
C2369 C2367 1.327 . S
C2370 C2358 1.349 . S
C2370 H2364 0.950 . S
C2370 C2371 1.327 . S
C2371 H2365 0.950 . S
C2371 C2370 1.327 . S
C2371 C2375 1.429 . S
C2372 C2355 1.574 . S
C2372 H2366 0.949 . S
C2372 C2376 1.368 . S
C2373 C2354 1.429 . S
C2373 C2367 1.429 . S
C2373 C2374 1.523 . S
C2374 C2355 1.368 . S
C2374 C2368 1.368 . S
C2374 C2373 1.523 . S
C2375 C2359 1.429 . S
C2375 C2371 1.429 . S
C2375 C2376 1.523 . S
C2376 C2360 1.368 . S
C2376 C2372 1.368 . S
C2376 C2375 1.523 . S
H2377 C2352 0.950 . S
H2378 C2354 0.950 . S
H2379 C2355 0.949 . S
H2380 C2357 0.950 . S
H2381 C2359 0.950 . S
C2382 C2383 1.349 . S
C2382 C2384 1.327 . S
C2382 H2407 0.950 . S
C2383 C2382 1.349 . S
C2383 C2399 1.349 . S
C2384 C2382 1.327 . S
C2384 C2403 1.429 . S
C2384 H2408 0.950 . S
C2385 C2402 1.574 . S
C2385 C2404 1.368 . S
C2385 H2409 0.949 . S
H2386 C2390 0.949 . S
C2387 C2388 1.349 . S
C2387 C2389 1.327 . S
C2387 H2410 0.950 . S
C2388 C2387 1.349 . S
C2388 C2400 1.349 . S
C2389 C2387 1.327 . S
C2389 C2405 1.429 . S
C2389 H2411 0.950 . S
C2390 H2386 0.949 . S
C2390 C2398 1.574 . S
C2390 C2406 1.368 . S
H2391 C2399 0.950 . S
H2392 C2397 0.950 . S
H2393 C2398 0.949 . S
H2394 C2400 0.950 . S
H2395 C2401 0.950 . S
H2396 C2402 0.949 . S
C2397 H2392 0.950 . S
C2397 C2399 1.327 . S
C2397 C2403 1.429 . S
C2398 C2390 1.574 . S
C2398 H2393 0.949 . S
C2398 C2404 1.368 . S
C2399 C2383 1.349 . S
C2399 H2391 0.950 . S
C2399 C2397 1.327 . S
C2400 C2388 1.349 . S
C2400 H2394 0.950 . S
C2400 C2401 1.327 . S
C2401 H2395 0.950 . S
C2401 C2400 1.327 . S
C2401 C2405 1.429 . S
C2402 C2385 1.574 . S
C2402 H2396 0.949 . S
C2402 C2406 1.368 . S
C2403 C2384 1.429 . S
C2403 C2397 1.429 . S
C2403 C2404 1.523 . S
C2404 C2385 1.368 . S
C2404 C2398 1.368 . S
C2404 C2403 1.523 . S
C2405 C2389 1.429 . S
C2405 C2401 1.429 . S
C2405 C2406 1.523 . S
C2406 C2390 1.368 . S
C2406 C2402 1.368 . S
C2406 C2405 1.523 . S
H2407 C2382 0.950 . S
H2408 C2384 0.950 . S
H2409 C2385 0.949 . S
H2410 C2387 0.950 . S
H2411 C2389 0.950 . S
C2412 C2413 1.349 . S
C2412 C2414 1.327 . S
C2412 H2437 0.950 . S
C2413 C2412 1.349 . S
C2413 C2429 1.349 . S
C2414 C2412 1.327 . S
C2414 C2433 1.429 . S
C2414 H2438 1.017 . S
C2415 C2432 1.574 . S
C2415 C2434 1.368 . S
C2415 H2439 0.949 . S
H2416 C2420 0.873 1_565 S
C2417 C2418 1.349 . S
C2417 C2419 1.327 . S
C2417 H2440 0.950 . S
C2418 C2417 1.349 . S
C2418 C2430 1.349 . S
C2419 C2417 1.327 . S
C2419 C2435 1.429 . S
C2419 H2441 0.950 . S
C2420 H2416 0.873 1_545 S
C2420 C2428 1.574 . S
C2420 C2436 1.368 . S
H2421 C2429 0.950 . S
H2422 C2427 0.950 . S
H2423 C2428 0.946 . S
H2424 C2430 0.950 1_565 S
H2425 C2431 0.950 1_565 S
H2426 C2432 0.949 . S
C2427 H2422 0.950 . S
C2427 C2429 1.327 . S
C2427 C2433 1.429 . S
C2428 C2420 1.574 . S
C2428 H2423 0.946 . S
C2428 C2434 1.368 . S
C2429 C2413 1.349 . S
C2429 H2421 0.950 . S
C2429 C2427 1.327 . S
C2430 C2418 1.349 . S
C2430 H2424 0.950 1_545 S
C2430 C2431 1.327 . S
C2431 H2425 0.950 1_545 S
C2431 C2430 1.327 . S
C2431 C2435 1.429 . S
C2432 C2415 1.574 . S
C2432 H2426 0.949 . S
C2432 C2436 1.368 . S
C2433 C2414 1.429 . S
C2433 C2427 1.429 . S
C2433 C2434 1.523 . S
C2434 C2415 1.368 . S
C2434 C2428 1.368 . S
C2434 C2433 1.523 . S
C2435 C2419 1.429 . S
C2435 C2431 1.429 . S
C2435 C2436 1.523 . S
C2436 C2420 1.368 . S
C2436 C2432 1.368 . S
C2436 C2435 1.523 . S
H2437 C2412 0.950 . S
H2438 C2414 1.017 . S
H2439 C2415 0.949 . S
H2440 C2417 0.950 . S
H2441 C2419 0.950 . S
C2442 C2443 1.349 . S
C2442 C2444 1.327 . S
C2442 H2467 0.950 . S
C2443 C2442 1.349 . S
C2443 C2459 1.349 1_655 S
C2444 C2442 1.327 . S
C2444 C2463 1.429 . S
C2444 H2468 0.950 . S
C2445 C2462 1.574 . S
C2445 C2464 1.368 1_455 S
C2445 H2469 0.949 . S
H2446 C2450 0.949 . S
C2447 C2448 1.349 1_455 S
C2447 C2449 1.327 . S
C2447 H2470 0.950 . S
C2448 C2447 1.349 1_655 S
C2448 C2460 1.349 . S
C2449 C2447 1.327 . S
C2449 C2465 1.429 1_455 S
C2449 H2471 0.950 . S
C2450 H2446 0.949 . S
C2450 C2458 1.574 . S
C2450 C2466 1.368 . S
H2451 C2459 0.950 . S
H2452 C2457 0.950 . S
H2453 C2458 0.949 . S
H2454 C2460 0.950 . S
H2455 C2461 0.950 . S
H2456 C2462 0.949 . S
C2457 H2452 0.950 . S
C2457 C2459 1.327 . S
C2457 C2463 1.429 1_455 S
C2458 C2450 1.574 . S
C2458 H2453 0.949 . S
C2458 C2464 1.368 . S
C2459 C2443 1.349 1_455 S
C2459 H2451 0.950 . S
C2459 C2457 1.327 . S
C2460 C2448 1.349 . S
C2460 H2454 0.950 . S
C2460 C2461 1.327 . S
C2461 H2455 0.950 . S
C2461 C2460 1.327 . S
C2461 C2465 1.429 . S
C2462 C2445 1.574 . S
C2462 H2456 0.949 . S
C2462 C2466 1.368 1_455 S
C2463 C2444 1.429 . S
C2463 C2457 1.429 1_655 S
C2463 C2464 1.523 . S
C2464 C2445 1.368 1_655 S
C2464 C2458 1.368 . S
C2464 C2463 1.523 . S
C2465 C2449 1.429 1_655 S
C2465 C2461 1.429 . S
C2465 C2466 1.523 . S
C2466 C2450 1.368 . S
C2466 C2462 1.368 1_655 S
C2466 C2465 1.523 . S
H2467 C2442 0.950 . S
H2468 C2444 0.950 . S
H2469 C2445 0.949 . S
H2470 C2447 0.950 . S
H2471 C2449 0.950 . S
C2472 C2473 1.349 . S
C2472 C2474 1.327 . S
C2472 H2497 0.950 . S
C2473 C2472 1.349 . S
C2473 C2489 1.349 . S
C2474 C2472 1.327 . S
C2474 C2493 1.429 . S
C2474 H2498 0.950 . S
C2475 C2492 1.574 . S
C2475 C2494 1.368 . S
C2475 H2499 0.949 . S
H2476 C2480 0.949 . S
C2477 C2478 1.349 . S
C2477 C2479 1.327 . S
C2477 H2500 0.950 . S
C2478 C2477 1.349 . S
C2478 C2490 1.349 . S
C2479 C2477 1.327 . S
C2479 C2495 1.429 . S
C2479 H2501 0.950 . S
C2480 H2476 0.949 . S
C2480 C2488 1.574 . S
C2480 C2496 1.368 . S
H2481 C2489 0.950 . S
H2482 C2487 0.950 . S
H2483 C2488 0.949 . S
H2484 C2490 0.950 . S
H2485 C2491 0.950 . S
H2486 C2492 0.949 . S
C2487 H2482 0.950 . S
C2487 C2489 1.327 . S
C2487 C2493 1.429 . S
C2488 C2480 1.574 . S
C2488 H2483 0.949 . S
C2488 C2494 1.368 . S
C2489 C2473 1.349 . S
C2489 H2481 0.950 . S
C2489 C2487 1.327 . S
C2490 C2478 1.349 . S
C2490 H2484 0.950 . S
C2490 C2491 1.327 . S
C2491 H2485 0.950 . S
C2491 C2490 1.327 . S
C2491 C2495 1.429 . S
C2492 C2475 1.574 . S
C2492 H2486 0.949 . S
C2492 C2496 1.368 . S
C2493 C2474 1.429 . S
C2493 C2487 1.429 . S
C2493 C2494 1.523 . S
C2494 C2475 1.368 . S
C2494 C2488 1.368 . S
C2494 C2493 1.523 . S
C2495 C2479 1.429 . S
C2495 C2491 1.429 . S
C2495 C2496 1.523 . S
C2496 C2480 1.368 . S
C2496 C2492 1.368 . S
C2496 C2495 1.523 . S
H2497 C2472 0.950 . S
H2498 C2474 0.950 . S
H2499 C2475 0.949 . S
H2500 C2477 0.950 . S
H2501 C2479 0.950 . S
C2502 C2503 1.349 . S
C2502 C2504 1.327 . S
C2502 H2527 0.950 . S
C2503 C2502 1.349 . S
C2503 C2519 1.349 . S
C2504 C2502 1.327 . S
C2504 C2523 1.429 . S
C2504 H2528 0.950 . S
C2505 C2522 1.574 . S
C2505 C2524 1.368 . S
C2505 H2529 0.949 . S
H2506 C2510 0.949 . S
C2507 C2508 1.349 . S
C2507 C2509 1.327 . S
C2507 H2530 0.950 . S
C2508 C2507 1.349 . S
C2508 C2520 1.349 . S
C2509 C2507 1.327 . S
C2509 C2525 1.429 . S
C2509 H2531 0.950 . S
C2510 H2506 0.949 . S
C2510 C2518 1.574 . S
C2510 C2526 1.368 . S
H2511 C2519 0.950 . S
H2512 C2517 0.950 . S
H2513 C2518 0.949 . S
H2514 C2520 0.950 . S
H2515 C2521 0.950 . S
H2516 C2522 0.949 . S
C2517 H2512 0.950 . S
C2517 C2519 1.327 . S
C2517 C2523 1.429 . S
C2518 C2510 1.574 . S
C2518 H2513 0.949 . S
C2518 C2524 1.368 . S
C2519 C2503 1.349 . S
C2519 H2511 0.950 . S
C2519 C2517 1.327 . S
C2520 C2508 1.349 . S
C2520 H2514 0.950 . S
C2520 C2521 1.327 . S
C2521 H2515 0.950 . S
C2521 C2520 1.327 . S
C2521 C2525 1.429 . S
C2522 C2505 1.574 . S
C2522 H2516 0.949 . S
C2522 C2526 1.368 . S
C2523 C2504 1.429 . S
C2523 C2517 1.429 . S
C2523 C2524 1.523 . S
C2524 C2505 1.368 . S
C2524 C2518 1.368 . S
C2524 C2523 1.523 . S
C2525 C2509 1.429 . S
C2525 C2521 1.429 . S
C2525 C2526 1.523 . S
C2526 C2510 1.368 . S
C2526 C2522 1.368 . S
C2526 C2525 1.523 . S
H2527 C2502 0.950 . S
H2528 C2504 0.950 . S
H2529 C2505 0.949 . S
H2530 C2507 0.950 . S
H2531 C2509 0.950 . S
C2532 C2533 1.349 . S
C2532 C2534 1.327 . S
C2532 H2557 0.950 . S
C2533 C2532 1.349 . S
C2533 C2549 1.349 . S
C2534 C2532 1.327 . S
C2534 C2553 1.429 . S
C2534 H2558 0.950 . S
C2535 C2552 1.574 . S
C2535 C2554 1.368 . S
C2535 H2559 0.949 . S
H2536 C2540 0.949 . S
C2537 C2538 1.349 . S
C2537 C2539 1.327 . S
C2537 H2560 0.950 . S
C2538 C2537 1.349 . S
C2538 C2550 1.349 . S
C2539 C2537 1.327 . S
C2539 C2555 1.429 . S
C2539 H2561 0.950 . S
C2540 H2536 0.949 . S
C2540 C2548 1.574 . S
C2540 C2556 1.368 . S
H2541 C2549 0.950 . S
H2542 C2547 0.950 . S
H2543 C2548 0.949 . S
H2544 C2550 0.950 . S
H2545 C2551 0.950 . S
H2546 C2552 0.949 . S
C2547 H2542 0.950 . S
C2547 C2549 1.327 . S
C2547 C2553 1.429 . S
C2548 C2540 1.574 . S
C2548 H2543 0.949 . S
C2548 C2554 1.368 . S
C2549 C2533 1.349 . S
C2549 H2541 0.950 . S
C2549 C2547 1.327 . S
C2550 C2538 1.349 . S
C2550 H2544 0.950 . S
C2550 C2551 1.327 . S
C2551 H2545 0.950 . S
C2551 C2550 1.327 . S
C2551 C2555 1.429 . S
C2552 C2535 1.574 . S
C2552 H2546 0.949 . S
C2552 C2556 1.368 . S
C2553 C2534 1.429 . S
C2553 C2547 1.429 . S
C2553 C2554 1.523 . S
C2554 C2535 1.368 . S
C2554 C2548 1.368 . S
C2554 C2553 1.523 . S
C2555 C2539 1.429 . S
C2555 C2551 1.429 . S
C2555 C2556 1.523 . S
C2556 C2540 1.368 . S
C2556 C2552 1.368 . S
C2556 C2555 1.523 . S
H2557 C2532 0.950 . S
H2558 C2534 0.950 . S
H2559 C2535 0.949 . S
H2560 C2537 0.950 . S
H2561 C2539 0.950 . S
C2562 C2563 1.349 . S
C2562 C2564 1.327 . S
C2562 H2587 0.950 . S
C2563 C2562 1.349 . S
C2563 C2579 1.349 . S
C2564 C2562 1.327 . S
C2564 C2583 1.429 . S
C2564 H2588 0.950 . S
C2565 C2582 1.574 . S
C2565 C2584 1.368 . S
C2565 H2589 0.949 . S
H2566 C2570 0.949 . S
C2567 C2568 1.349 . S
C2567 C2569 1.327 . S
C2567 H2590 0.950 . S
C2568 C2567 1.349 . S
C2568 C2580 1.349 . S
C2569 C2567 1.327 . S
C2569 C2585 1.429 . S
C2569 H2591 0.950 . S
C2570 H2566 0.949 . S
C2570 C2578 1.574 . S
C2570 C2586 1.368 . S
H2571 C2579 0.950 . S
H2572 C2577 0.950 . S
H2573 C2578 0.949 . S
H2574 C2580 0.950 . S
H2575 C2581 0.950 . S
H2576 C2582 0.949 . S
C2577 H2572 0.950 . S
C2577 C2579 1.327 . S
C2577 C2583 1.429 . S
C2578 C2570 1.574 . S
C2578 H2573 0.949 . S
C2578 C2584 1.368 . S
C2579 C2563 1.349 . S
C2579 H2571 0.950 . S
C2579 C2577 1.327 . S
C2580 C2568 1.349 . S
C2580 H2574 0.950 . S
C2580 C2581 1.327 . S
C2581 H2575 0.950 . S
C2581 C2580 1.327 . S
C2581 C2585 1.429 . S
C2582 C2565 1.574 . S
C2582 H2576 0.949 . S
C2582 C2586 1.368 . S
C2583 C2564 1.429 . S
C2583 C2577 1.429 . S
C2583 C2584 1.523 . S
C2584 C2565 1.368 . S
C2584 C2578 1.368 . S
C2584 C2583 1.523 . S
C2585 C2569 1.429 . S
C2585 C2581 1.429 . S
C2585 C2586 1.523 . S
C2586 C2570 1.368 . S
C2586 C2582 1.368 . S
C2586 C2585 1.523 . S
H2587 C2562 0.950 . S
H2588 C2564 0.950 . S
H2589 C2565 0.949 . S
H2590 C2567 0.950 . S
H2591 C2569 0.950 . S
C2592 C2593 1.349 . S
C2592 C2594 1.327 . S
C2592 H2617 0.950 . S
C2593 C2592 1.349 . S
C2593 C2609 1.349 . S
C2594 C2592 1.327 . S
C2594 C2613 1.429 . S
C2594 H2618 0.950 . S
C2595 C2612 1.574 . S
C2595 C2614 1.368 . S
C2595 H2619 0.949 . S
H2596 C2600 0.949 . S
C2597 C2598 1.349 . S
C2597 C2599 1.327 . S
C2597 H2620 0.950 . S
C2598 C2597 1.349 . S
C2598 C2610 1.349 . S
C2599 C2597 1.327 . S
C2599 C2615 1.429 . S
C2599 H2621 0.950 . S
C2600 H2596 0.949 . S
C2600 C2608 1.574 . S
C2600 C2616 1.368 . S
H2601 C2609 0.950 . S
H2602 C2607 0.950 . S
H2603 C2608 0.949 . S
H2604 C2610 0.950 . S
H2605 C2611 0.950 . S
H2606 C2612 0.949 . S
C2607 H2602 0.950 . S
C2607 C2609 1.327 . S
C2607 C2613 1.429 . S
C2608 C2600 1.574 . S
C2608 H2603 0.949 . S
C2608 C2614 1.368 . S
C2609 C2593 1.349 . S
C2609 H2601 0.950 . S
C2609 C2607 1.327 . S
C2610 C2598 1.349 . S
C2610 H2604 0.950 . S
C2610 C2611 1.327 . S
C2611 H2605 0.950 . S
C2611 C2610 1.327 . S
C2611 C2615 1.429 . S
C2612 C2595 1.574 . S
C2612 H2606 0.949 . S
C2612 C2616 1.368 . S
C2613 C2594 1.429 . S
C2613 C2607 1.429 . S
C2613 C2614 1.523 . S
C2614 C2595 1.368 . S
C2614 C2608 1.368 . S
C2614 C2613 1.523 . S
C2615 C2599 1.429 . S
C2615 C2611 1.429 . S
C2615 C2616 1.523 . S
C2616 C2600 1.368 . S
C2616 C2612 1.368 . S
C2616 C2615 1.523 . S
H2617 C2592 0.950 . S
H2618 C2594 0.950 . S
H2619 C2595 0.949 . S
H2620 C2597 0.950 . S
H2621 C2599 0.950 . S
C2622 C2623 1.349 . S
C2622 C2624 1.327 . S
C2622 H2647 0.950 . S
C2623 C2622 1.349 . S
C2623 C2639 1.349 . S
C2624 C2622 1.327 . S
C2624 C2643 1.429 . S
C2624 H2648 0.950 . S
C2625 C2642 1.574 . S
C2625 C2644 1.368 . S
C2625 H2649 0.949 . S
H2626 C2630 0.949 . S
C2627 C2628 1.349 . S
C2627 C2629 1.327 . S
C2627 H2650 0.950 . S
C2628 C2627 1.349 . S
C2628 C2640 1.349 . S
C2629 C2627 1.327 . S
C2629 C2645 1.429 . S
C2629 H2651 0.950 . S
C2630 H2626 0.949 . S
C2630 C2638 1.574 . S
C2630 C2646 1.368 . S
H2631 C2639 0.950 . S
H2632 C2637 0.950 . S
H2633 C2638 0.949 . S
H2634 C2640 0.950 . S
H2635 C2641 0.950 . S
H2636 C2642 0.949 . S
C2637 H2632 0.950 . S
C2637 C2639 1.327 . S
C2637 C2643 1.429 . S
C2638 C2630 1.574 . S
C2638 H2633 0.949 . S
C2638 C2644 1.368 . S
C2639 C2623 1.349 . S
C2639 H2631 0.950 . S
C2639 C2637 1.327 . S
C2640 C2628 1.349 . S
C2640 H2634 0.950 . S
C2640 C2641 1.327 . S
C2641 H2635 0.950 . S
C2641 C2640 1.327 . S
C2641 C2645 1.429 . S
C2642 C2625 1.574 . S
C2642 H2636 0.949 . S
C2642 C2646 1.368 . S
C2643 C2624 1.429 . S
C2643 C2637 1.429 . S
C2643 C2644 1.523 . S
C2644 C2625 1.368 . S
C2644 C2638 1.368 . S
C2644 C2643 1.523 . S
C2645 C2629 1.429 . S
C2645 C2641 1.429 . S
C2645 C2646 1.523 . S
C2646 C2630 1.368 . S
C2646 C2642 1.368 . S
C2646 C2645 1.523 . S
H2647 C2622 0.950 . S
H2648 C2624 0.950 . S
H2649 C2625 0.949 . S
H2650 C2627 0.950 . S
H2651 C2629 0.950 . S
C2652 C2653 1.349 . S
C2652 C2654 1.327 . S
C2652 H2677 0.950 . S
C2653 C2652 1.349 . S
C2653 C2669 1.349 . S
C2654 C2652 1.327 . S
C2654 C2673 1.429 . S
C2654 H2678 0.950 . S
C2655 C2672 1.574 . S
C2655 C2674 1.368 . S
C2655 H2679 0.949 . S
H2656 C2660 0.949 . S
C2657 C2658 1.349 . S
C2657 C2659 1.327 . S
C2657 H2680 0.950 . S
C2658 C2657 1.349 . S
C2658 C2670 1.349 . S
C2659 C2657 1.327 . S
C2659 C2675 1.429 . S
C2659 H2681 0.950 . S
C2660 H2656 0.949 . S
C2660 C2668 1.574 . S
C2660 C2676 1.368 . S
H2661 C2669 0.950 . S
H2662 C2667 0.950 . S
H2663 C2668 0.949 . S
H2664 C2670 0.950 . S
H2665 C2671 0.950 . S
H2666 C2672 0.949 . S
C2667 H2662 0.950 . S
C2667 C2669 1.327 . S
C2667 C2673 1.429 . S
C2668 C2660 1.574 . S
C2668 H2663 0.949 . S
C2668 C2674 1.368 . S
C2669 C2653 1.349 . S
C2669 H2661 0.950 . S
C2669 C2667 1.327 . S
C2670 C2658 1.349 . S
C2670 H2664 0.950 . S
C2670 C2671 1.327 . S
C2671 H2665 0.950 . S
C2671 C2670 1.327 . S
C2671 C2675 1.429 . S
C2672 C2655 1.574 . S
C2672 H2666 0.949 . S
C2672 C2676 1.368 . S
C2673 C2654 1.429 . S
C2673 C2667 1.429 . S
C2673 C2674 1.523 . S
C2674 C2655 1.368 . S
C2674 C2668 1.368 . S
C2674 C2673 1.523 . S
C2675 C2659 1.429 . S
C2675 C2671 1.429 . S
C2675 C2676 1.523 . S
C2676 C2660 1.368 . S
C2676 C2672 1.368 . S
C2676 C2675 1.523 . S
H2677 C2652 0.950 . S
H2678 C2654 0.950 . S
H2679 C2655 0.949 . S
H2680 C2657 0.950 . S
H2681 C2659 0.950 . S
C2682 C2683 1.349 . S
C2682 C2684 1.327 . S
C2682 H2707 0.950 . S
C2683 C2682 1.349 . S
C2683 C2699 1.349 . S
C2684 C2682 1.327 . S
C2684 C2703 1.429 . S
C2684 H2708 0.950 . S
C2685 C2702 1.574 . S
C2685 C2704 1.368 . S
C2685 H2709 0.934 . S
H2686 C2690 0.949 . S
C2687 C2688 1.349 1_455 S
C2687 C2689 1.340 . S
C2687 H2710 0.950 . S
C2688 C2687 1.349 1_655 S
C2688 C2700 1.349 . S
C2689 C2687 1.340 . S
C2689 C2705 1.423 1_455 S
C2689 H2711 0.943 . S
C2690 H2686 0.949 . S
C2690 C2698 1.574 . S
C2690 C2706 1.368 . S
H2691 C2699 0.950 . S
H2692 C2697 0.950 . S
H2693 C2698 0.949 . S
H2694 C2700 0.950 . S
H2695 C2701 0.950 . S
H2696 C2702 0.934 1_455 S
C2697 H2692 0.950 . S
C2697 C2699 1.327 . S
C2697 C2703 1.429 . S
C2698 C2690 1.574 . S
C2698 H2693 0.949 . S
C2698 C2704 1.368 . S
C2699 C2683 1.349 . S
C2699 H2691 0.950 . S
C2699 C2697 1.327 . S
C2700 C2688 1.349 . S
C2700 H2694 0.950 . S
C2700 C2701 1.327 . S
C2701 H2695 0.950 . S
C2701 C2700 1.327 . S
C2701 C2705 1.429 . S
C2702 C2685 1.574 . S
C2702 H2696 0.934 1_655 S
C2702 C2706 1.368 . S
C2703 C2684 1.429 . S
C2703 C2697 1.429 . S
C2703 C2704 1.523 . S
C2704 C2685 1.368 . S
C2704 C2698 1.368 . S
C2704 C2703 1.523 . S
C2705 C2689 1.423 1_655 S
C2705 C2701 1.429 . S
C2705 C2706 1.523 . S
C2706 C2690 1.368 . S
C2706 C2702 1.368 . S
C2706 C2705 1.523 . S
H2707 C2682 0.950 . S
H2708 C2684 0.950 . S
H2709 C2685 0.934 . S
H2710 C2687 0.950 . S
H2711 C2689 0.943 . S
C2712 C2713 1.349 . S
C2712 C2714 1.327 . S
C2712 H2737 0.950 . S
C2713 C2712 1.349 . S
C2713 C2729 1.349 . S
C2714 C2712 1.327 . S
C2714 C2733 1.429 . S
C2714 H2738 0.950 . S
C2715 C2732 1.574 . S
C2715 C2734 1.368 . S
C2715 H2739 0.949 . S
H2716 C2720 0.949 . S
C2717 C2718 1.349 . S
C2717 C2719 1.327 . S
C2717 H2740 0.950 . S
C2718 C2717 1.349 . S
C2718 C2730 1.349 . S
C2719 C2717 1.327 . S
C2719 C2735 1.429 . S
C2719 H2741 0.950 . S
C2720 H2716 0.949 . S
C2720 C2728 1.574 . S
C2720 C2736 1.368 . S
H2721 C2729 0.950 . S
H2722 C2727 0.950 . S
H2723 C2728 0.949 . S
H2724 C2730 0.950 . S
H2725 C2731 0.950 . S
H2726 C2732 0.949 . S
C2727 H2722 0.950 . S
C2727 C2729 1.327 . S
C2727 C2733 1.429 . S
C2728 C2720 1.574 . S
C2728 H2723 0.949 . S
C2728 C2734 1.368 . S
C2729 C2713 1.349 . S
C2729 H2721 0.950 . S
C2729 C2727 1.327 . S
C2730 C2718 1.349 . S
C2730 H2724 0.950 . S
C2730 C2731 1.327 . S
C2731 H2725 0.950 . S
C2731 C2730 1.327 . S
C2731 C2735 1.429 . S
C2732 C2715 1.574 . S
C2732 H2726 0.949 . S
C2732 C2736 1.368 . S
C2733 C2714 1.429 . S
C2733 C2727 1.429 . S
C2733 C2734 1.523 . S
C2734 C2715 1.368 . S
C2734 C2728 1.368 . S
C2734 C2733 1.523 . S
C2735 C2719 1.429 . S
C2735 C2731 1.429 . S
C2735 C2736 1.523 . S
C2736 C2720 1.368 . S
C2736 C2732 1.368 . S
C2736 C2735 1.523 . S
H2737 C2712 0.950 . S
H2738 C2714 0.950 . S
H2739 C2715 0.949 . S
H2740 C2717 0.950 . S
H2741 C2719 0.950 . S
C2742 C2743 1.349 . S
C2742 C2744 1.327 . S
C2742 H2767 0.950 . S
C2743 C2742 1.349 . S
C2743 C2759 1.349 . S
C2744 C2742 1.327 . S
C2744 C2763 1.429 . S
C2744 H2768 0.950 . S
C2745 C2762 1.574 . S
C2745 C2764 1.368 . S
C2745 H2769 0.949 1_545 S
H2746 C2750 0.949 . S
C2747 C2748 1.349 . S
C2747 C2749 1.327 . S
C2747 H2770 0.950 1_545 S
C2748 C2747 1.349 . S
C2748 C2760 1.349 . S
C2749 C2747 1.327 . S
C2749 C2765 1.429 . S
C2749 H2771 0.950 1_545 S
C2750 H2746 0.949 . S
C2750 C2758 1.574 . S
C2750 C2766 1.368 . S
H2751 C2759 0.927 1_565 S
H2752 C2757 0.950 1_565 S
H2753 C2758 0.949 . S
H2754 C2760 0.950 . S
H2755 C2761 0.950 . S
H2756 C2762 0.949 1_565 S
C2757 H2752 0.950 1_545 S
C2757 C2759 1.327 . S
C2757 C2763 1.429 . S
C2758 C2750 1.574 . S
C2758 H2753 0.949 . S
C2758 C2764 1.368 . S
C2759 C2743 1.349 . S
C2759 H2751 0.927 1_545 S
C2759 C2757 1.327 . S
C2760 C2748 1.349 . S
C2760 H2754 0.950 . S
C2760 C2761 1.327 . S
C2761 H2755 0.950 . S
C2761 C2760 1.327 . S
C2761 C2765 1.429 . S
C2762 C2745 1.574 . S
C2762 H2756 0.949 1_545 S
C2762 C2766 1.368 . S
C2763 C2744 1.429 . S
C2763 C2757 1.429 . S
C2763 C2764 1.523 . S
C2764 C2745 1.368 . S
C2764 C2758 1.368 . S
C2764 C2763 1.523 . S
C2765 C2749 1.429 . S
C2765 C2761 1.429 . S
C2765 C2766 1.523 . S
C2766 C2750 1.368 . S
C2766 C2762 1.368 . S
C2766 C2765 1.523 . S
H2767 C2742 0.950 . S
H2768 C2744 0.950 . S
H2769 C2745 0.949 1_565 S
H2770 C2747 0.950 1_565 S
H2771 C2749 0.950 1_565 S
C613 C10 1.654 . S
C618 C440 1.592 . S
C643 C23 1.639 . S
C648 C453 1.599 . S
C678 C482 1.565 1_545 S
C673 C29 1.643 . S
C703 C30 1.642 . S
C708 C495 1.603 . S
C733 C5 1.655 . S
C738 C516 1.622 . S
C763 C18 1.643 . S
C768 C545 1.585 . S
C793 C49 1.650 . S
C798 C524 1.617 . S
C828 C537 1.588 . S
C823 C62 1.635 . S
C858 C503 1.590 . S
C853 C70 1.637 . S
C883 C75 1.637 . S
C888 C474 1.597 1_545 S
C918 C432 1.606 . S
C913 C44 1.651 . S
C943 C57 1.639 . S
C948 C461 1.591 . S
C973 C88 1.654 . S
C978 C566 1.592 . S
C1003 C101 1.639 . S
C1008 C579 1.600 . S
C1038 C608 1.583 . S
C1033 C107 1.640 . S
C1063 C108 1.642 . S
C1068 C243 1.603 . S
C1093 C83 1.655 . S
C1098 C264 1.620 . S
C1123 C96 1.642 . S
C1128 C293 1.585 . S
C1153 C127 1.650 . S
C1158 C272 1.599 . S
C1183 C140 1.635 . S
C1188 C285 1.588 . S
C1218 C251 1.590 . S
C1213 C146 1.637 . S
C1248 C600 1.590 . S
C1243 C147 1.638 . S
C1278 C558 1.606 . S
C1273 C122 1.651 . S
C1308 C587 1.591 . S
C1303 C135 1.638 . S
C1333 C160 1.654 . S
C1338 C314 1.592 . S
C1363 C173 1.639 . S
C1368 C327 1.600 . S
C1393 C185 1.641 . S
C1398 C356 1.583 . S
C1423 C186 1.642 . S
C1428 C369 1.602 . S
C1458 C390 1.620 . S
C1453 C159 1.655 . S
C1488 C419 1.585 . S
C1483 C172 1.642 . S
C1518 C398 1.599 . S
C1513 C205 1.650 . S
C1548 C411 1.587 . S
C1543 C218 1.635 . S
C1573 C224 1.637 . S
C1578 C377 1.590 . S
C1608 C348 1.590 . S
C1603 C225 1.637 . S
C1633 C200 1.651 . S
C1638 C306 1.606 . S
C1668 C335 1.591 . S
C1663 C213 1.639 . S
C1698 C246 1.390 . S
C1693 C4 1.514 . S
C1723 C17 1.497 . S
C1728 C267 1.375 . S
C1758 C295 1.415 . S
C1753 C31 1.507 . S
C1788 C316 1.405 . S
C1783 C36 1.494 . S
C1818 C330 1.391 . S
C1813 C3 1.518 . S
C1848 C358 1.417 . S
C1843 C16 1.509 . S
C1873 C43 1.516 . S
C1878 C351 1.389 . S
C1903 C56 1.499 . S
C1908 C309 1.374 . S
C1933 C68 1.508 . S
C1938 C337 1.417 . S
C1963 C69 1.496 . S
C1968 C274 1.408 . S
C1998 C288 1.390 . S
C1993 C42 1.519 . S
C2023 C55 1.510 . S
C2028 C253 1.419 . S
C2058 C372 1.390 . S
C2053 C82 1.514 . S
C2083 C95 1.497 . S
C2088 C393 1.375 . S
C2113 C109 1.469 1_655 S
C2118 C421 1.415 . S
C2148 C442 1.405 . S
C2143 C114 1.494 . S
C2173 C81 1.518 . S
C2178 C456 1.391 . S
C2203 C94 1.509 . S
C2208 C484 1.420 . S
C2233 C121 1.516 . S
C2238 C477 1.370 . S
C2263 C134 1.499 . S
C2268 C435 1.374 . S
C2298 C463 1.417 . S
C2293 C148 1.508 . S
C2323 C153 1.496 . S
C2328 C400 1.407 . S
C2353 C120 1.519 . S
C2358 C414 1.391 . S
C2388 C379 1.419 . S
C2383 C133 1.474 1_655 S
C2418 C498 1.390 . S
C2413 C166 1.514 . S
C2443 C179 1.497 . S
C2448 C519 1.391 1_655 S
C2473 C187 1.507 . S
C2478 C547 1.415 . S
C2508 C568 1.405 . S
C2503 C192 1.494 . S
C2538 C582 1.391 . S
C2533 C161 1.487 1_565 S
C2563 C174 1.509 . S
C2568 C610 1.417 . S
C2593 C199 1.516 . S
C2598 C603 1.389 . S
C2623 C212 1.487 1_565 S
C2628 C561 1.374 . S
C2658 C589 1.417 . S
C2653 C226 1.508 . S
C2688 C526 1.408 1_655 S
C2683 C231 1.491 . S
C2718 C540 1.391 . S
C2713 C198 1.519 . S
C2743 C211 1.510 . S
C2748 C505 1.419 . S
