# Generated by pormake.
# Topology anh, (6,3)-cn, num edge types: 1
# Building blocks:
#     Node 0, Type 0, BuildingBlock: MIFKUJ_clean_sbu_0, # of connection points: 6
#     Node 1, Type 0, BuildingBlock: MIFKUJ_clean_sbu_0, # of connection points: 6
#     Node 2, Type 0, BuildingBlock: MIFKUJ_clean_sbu_0, # of connection points: 6
#     Node 3, Type 1, BuildingBlock: MIDCAF_clean_linker_0, # of connection points: 3
#     Node 4, Type 1, BuildingBlock: MIDCAF_clean_linker_0, # of connection points: 3
#     Node 5, Type 1, BuildingBlock: MIDCAF_clean_linker_0, # of connection points: 3
#     Node 6, Type 1, BuildingBlock: MIDCAF_clean_linker_0, # of connection points: 3
#     Node 7, Type 1, BuildingBlock: MIDCAF_clean_linker_0, # of connection points: 3
#     Node 8, Type 1, BuildingBlock: MIDCAF_clean_linker_0, # of connection points: 3
#     Edge 9, Type (0, 1), BuildingBlock: CIFDUS_clean_linker_0, # of connection points: 2
#     Edge 10, Type (0, 1), BuildingBlock: CIFDUS_clean_linker_0, # of connection points: 2
#     Edge 11, Type (0, 1), BuildingBlock: CIFDUS_clean_linker_0, # of connection points: 2
#     Edge 12, Type (0, 1), BuildingBlock: CIFDUS_clean_linker_0, # of connection points: 2
#     Edge 13, Type (0, 1), BuildingBlock: CIFDUS_clean_linker_0, # of connection points: 2
#     Edge 14, Type (0, 1), BuildingBlock: CIFDUS_clean_linker_0, # of connection points: 2
#     Edge 15, Type (0, 1), BuildingBlock: CIFDUS_clean_linker_0, # of connection points: 2
#     Edge 16, Type (0, 1), BuildingBlock: CIFDUS_clean_linker_0, # of connection points: 2
#     Edge 17, Type (0, 1), BuildingBlock: CIFDUS_clean_linker_0, # of connection points: 2
#     Edge 18, Type (0, 1), BuildingBlock: CIFDUS_clean_linker_0, # of connection points: 2
#     Edge 19, Type (0, 1), BuildingBlock: CIFDUS_clean_linker_0, # of connection points: 2
#     Edge 20, Type (0, 1), BuildingBlock: CIFDUS_clean_linker_0, # of connection points: 2
#     Edge 21, Type (0, 1), BuildingBlock: CIFDUS_clean_linker_0, # of connection points: 2
#     Edge 22, Type (0, 1), BuildingBlock: CIFDUS_clean_linker_0, # of connection points: 2
#     Edge 23, Type (0, 1), BuildingBlock: CIFDUS_clean_linker_0, # of connection points: 2
#     Edge 24, Type (0, 1), BuildingBlock: CIFDUS_clean_linker_0, # of connection points: 2
#     Edge 25, Type (0, 1), BuildingBlock: CIFDUS_clean_linker_0, # of connection points: 2
#     Edge 26, Type (0, 1), BuildingBlock: CIFDUS_clean_linker_0, # of connection points: 2
# Relax obj value: 0.135
# Max RMSD: 0.185
# Mean RMSD: 0.147
data_MOF--net-anh--node1-MIFKUJ_clean_sbu_0--node2-MIDCAF_clean_linker_0--edge1-CIFDUS_clean_linker_0
_symmetry_space_group_name_H-M    P1
_symmetry_Int_Tables_number       1
_symmetry_cell_setting            triclinic
loop_
_symmetry_equiv_pos_as_xyz
'x, y, z'
_cell_length_a     33.52722
_cell_length_b     33.532631
_cell_length_c     57.144514
_cell_angle_alpha  93.703621
_cell_angle_beta   90.790586
_cell_angle_gamma 120.26383
loop_
_atom_site_label
_atom_site_type_symbol
_atom_site_fract_x
_atom_site_fract_y
_atom_site_fract_z
_atom_type_partial_charge
Zn0 Zn 0.02871 0.57539 0.16445 0.0
Zn1 Zn 0.90062 0.47723 0.16757 0.0
C2 C 0.10789 0.56904 0.16978 0.0
O3 O 0.1101 0.59557 0.18831 0.0
C4 C 0.82073 0.48427 0.15633 0.0
O5 O 0.80522 0.4409 0.14873 0.0
O6 O 0.06824 0.64458 0.16543 0.0
O7 O 0.97608 0.55482 0.14071 0.0
O8 O 0.93347 0.47923 0.13796 0.0
C9 C 0.09449 0.66137 0.14855 0.0
O10 O 0.09077 0.63344 0.13035 0.0
O11 O 0.07267 0.55239 0.15547 0.0
C12 C 0.86238 0.37688 0.16799 0.0
O13 O 0.90443 0.38545 0.16419 0.0
O14 O 0.85457 0.4102 0.17035 0.0
O15 O 0.93865 0.49986 0.19835 0.0
O16 O 0.01105 0.55809 0.19729 0.0
O17 O 0.86247 0.50887 0.16449 0.0
C18 C 0.96182 0.51623 0.12905 0.0
C19 C 0.97759 0.52913 0.20853 0.0
Zn20 Zn 0.52339 0.04933 0.49852 0.0
Zn21 Zn 0.5059 0.93639 0.50012 0.0
C22 C 0.61842 0.11262 0.50954 0.0
O23 O 0.59891 0.12547 0.52581 0.0
C24 C 0.42228 0.86404 0.47596 0.0
O25 O 0.45128 0.87201 0.45924 0.0
O26 O 0.51612 0.10474 0.49467 0.0
O27 O 0.48698 0.00342 0.47128 0.0
O28 O 0.52993 0.97114 0.47114 0.0
C29 C 0.53747 0.12941 0.47807 0.0
O30 O 0.55875 0.11528 0.46356 0.0
O31 O 0.59274 0.07652 0.49587 0.0
C32 C 0.57647 0.9114 0.50786 0.0
O33 O 0.60382 0.95563 0.51434 0.0
O34 O 0.5346 0.89667 0.50146 0.0
O35 O 0.51709 0.96998 0.53232 0.0
O36 O 0.50675 0.03029 0.53112 0.0
O37 O 0.43705 0.88918 0.49528 0.0
C38 C 0.50747 0.98578 0.46005 0.0
C39 C 0.51215 0.00194 0.54257 0.0
Zn40 Zn 0.59151 0.5191 0.8276 0.0
Zn41 Zn 0.48347 0.5499 0.82942 0.0
C42 C 0.60441 0.44552 0.8381 0.0
O43 O 0.63985 0.48051 0.8501 0.0
C44 C 0.54003 0.64911 0.8303 0.0
O45 O 0.56664 0.63926 0.81747 0.0
O46 O 0.65872 0.5588 0.82136 0.0
O47 O 0.55048 0.52766 0.80309 0.0
O48 O 0.49326 0.54082 0.79539 0.0
C49 C 0.67656 0.54518 0.8056 0.0
O50 O 0.64954 0.50729 0.79207 0.0
O51 O 0.5771 0.45308 0.82601 0.0
C52 C 0.40656 0.52508 0.85621 0.0
O53 O 0.43922 0.56061 0.86929 0.0
O54 O 0.41721 0.51097 0.83747 0.0
O55 O 0.52788 0.53765 0.84486 0.0
O56 O 0.58298 0.5337 0.86186 0.0
O57 O 0.50288 0.61639 0.83731 0.0
C58 C 0.52488 0.533 0.78829 0.0
C59 C 0.54873 0.53949 0.86371 0.0
C60 C 0.35346 0.86835 0.1989 0.0
C61 C 0.3484 0.86788 0.17443 0.0
C62 C 0.38772 0.89525 0.16195 0.0
C63 C 0.43125 0.92205 0.17375 0.0
H64 H 0.56613 0.04082 0.17122 0.0
H65 H 0.6334 0.10698 0.15653 0.0
H66 H 0.71958 0.1064 0.21319 0.0
H67 H 0.65267 0.04034 0.22789 0.0
H68 H 0.60397 0.00488 0.27671 0.0
H69 H 0.60664 0.00456 0.31945 0.0
H70 H 0.45752 0.92448 0.31761 0.0
H71 H 0.45448 0.92471 0.2751 0.0
H72 H 0.39888 0.89366 0.22946 0.0
H73 H 0.3242 0.84692 0.20903 0.0
H74 H 0.38487 0.89568 0.14308 0.0
H75 H 0.46097 0.94243 0.16366 0.0
N76 N 0.52069 0.97715 0.20004 0.0
N77 N 0.56507 0.99644 0.23553 0.0
N78 N 0.48555 0.94399 0.23434 0.0
C79 C 0.5624 1.00126 0.21222 0.0
C80 C 0.52675 0.96787 0.24673 0.0
C81 C 0.48208 0.94814 0.21105 0.0
C82 C 0.60391 0.0358 0.20095 0.0
C83 C 0.59957 0.05411 0.18026 0.0
C84 C 0.63802 0.09207 0.17188 0.0
C85 C 0.68154 0.11201 0.18387 0.0
C86 C 0.6865 0.09158 0.20354 0.0
C87 C 0.64804 0.05398 0.21206 0.0
C88 C 0.52901 0.96508 0.27243 0.0
C89 C 0.57174 0.98694 0.28539 0.0
C90 C 0.57334 0.98662 0.30984 0.0
C91 C 0.53227 0.96481 0.32179 0.0
C92 C 0.48968 0.94209 0.30884 0.0
C93 C 0.48804 0.94204 0.28444 0.0
C94 C 0.43623 0.9217 0.19822 0.0
C95 C 0.39665 0.89489 0.21062 0.0
C96 C 0.60777 0.39898 0.52535 0.0
C97 C 0.57073 0.37799 0.50845 0.0
C98 C 0.54836 0.40188 0.50213 0.0
C99 C 0.56226 0.44588 0.51303 0.0
H100 H 0.59348 0.5887 0.50322 0.0
H101 H 0.58829 0.65231 0.4877 0.0
H102 H 0.63396 0.72897 0.55578 0.0
H103 H 0.64014 0.66658 0.57108 0.0
H104 H 0.61998 0.61144 0.61502 0.0
H105 H 0.61068 0.60619 0.65701 0.0
H106 H 0.60747 0.47562 0.65161 0.0
H107 H 0.61695 0.48062 0.60939 0.0
H108 H 0.64811 0.45682 0.5504 0.0
H109 H 0.6252 0.38092 0.5306 0.0
H110 H 0.51956 0.38606 0.48919 0.0
H111 H 0.54372 0.46324 0.50844 0.0
N112 N 0.60863 0.54431 0.53517 0.0
N113 N 0.62064 0.58311 0.57254 0.0
N114 N 0.61233 0.50945 0.56891 0.0
C115 C 0.61608 0.58247 0.54884 0.0
C116 C 0.61866 0.54681 0.58275 0.0
C117 C 0.60737 0.508 0.54519 0.0
C118 C 0.61672 0.6222 0.53848 0.0
C119 C 0.60304 0.61942 0.51476 0.0
C120 C 0.59988 0.65576 0.50589 0.0
C121 C 0.61061 0.69567 0.52051 0.0
C122 C 0.62605 0.69909 0.54392 0.0
C123 C 0.6291 0.66291 0.55277 0.0
C124 C 0.61872 0.54619 0.60868 0.0
C125 C 0.61785 0.58178 0.6227 0.0
C126 C 0.61228 0.57873 0.64679 0.0
C127 C 0.60778 0.54023 0.65749 0.0
C128 C 0.61094 0.50572 0.64379 0.0
C129 C 0.6162 0.50857 0.61959 0.0
C130 C 0.59767 0.46568 0.53087 0.0
C131 C 0.62073 0.4422 0.53668 0.0
C132 C 0.9188 0.57899 0.86029 0.0
C133 C 0.9153 0.56861 0.83584 0.0
C134 C 0.94476 0.55443 0.82591 0.0
C135 C 0.97512 0.5483 0.84025 0.0
H136 H 0.09282 0.52756 0.84329 0.0
H137 H 0.15245 0.51029 0.83118 0.0
H138 H 0.13669 0.43952 0.89395 0.0
H139 H 0.07823 0.4578 0.90635 0.0
H140 H 0.05227 0.49736 0.95179 0.0
H141 H 0.04717 0.50386 0.9942 0.0
H142 H 0.98364 0.58706 0.98649 0.0
H143 H 0.98882 0.58091 0.94399 0.0
H144 H 0.94945 0.57984 0.89337 0.0
H145 H 0.89622 0.58928 0.86866 0.0
H146 H 0.94335 0.5467 0.80712 0.0
H147 H 0.99616 0.53579 0.83209 0.0
N148 N 0.02963 0.52641 0.87123 0.0
N149 N 0.04884 0.51639 0.90917 0.0
N150 N 0.00131 0.54792 0.9041 0.0
C151 C 0.05208 0.51243 0.88558 0.0
C152 C 0.02375 0.53427 0.9186 0.0
C153 C 0.0039 0.544 0.8804 0.0
C154 C 0.08168 0.49501 0.87603 0.0
C155 C 0.10146 0.50753 0.85425 0.0
C156 C 0.13543 0.49739 0.84725 0.0
C157 C 0.14982 0.47425 0.86183 0.0
C158 C 0.12709 0.45834 0.88261 0.0
C159 C 0.0936 0.46884 0.8897 0.0
C160 C 0.02085 0.53853 0.94441 0.0
C161 C 0.0373 0.51718 0.95906 0.0
C162 C 0.03422 0.52068 0.98337 0.0
C163 C 0.015 0.54593 0.99362 0.0
C164 C 0.99901 0.56773 0.97906 0.0
C165 C 0.0017 0.5639 0.95471 0.0
C166 C 0.9766 0.5562 0.86482 0.0
C167 C 0.94911 0.57301 0.87456 0.0
C168 C 0.17471 0.59763 0.46057 0.0
C169 C 0.17724 0.63038 0.4781 0.0
C170 C 0.13729 0.61978 0.49036 0.0
C171 C 0.09505 0.57897 0.48393 0.0
H172 H 0.96603 0.42823 0.50069 0.0
H173 H 0.9024 0.36273 0.51841 0.0
H174 H 0.83568 0.30475 0.44954 0.0
H175 H 0.8986 0.36836 0.43202 0.0
H176 H 0.93646 0.41441 0.38716 0.0
H177 H 0.92389 0.41953 0.34569 0.0
H178 H 0.03213 0.56353 0.35213 0.0
H179 H 0.04591 0.55788 0.39334 0.0
H180 H 0.13144 0.53437 0.43949 0.0
H181 H 0.20496 0.60385 0.45123 0.0
H182 H 0.13799 0.64419 0.50395 0.0
H183 H 0.06412 0.57301 0.49251 0.0
N184 N 0.01439 0.47736 0.46539 0.0
N185 N 0.968 0.44727 0.43026 0.0
N186 N 0.03996 0.51482 0.43059 0.0
C187 C 0.97444 0.44411 0.45346 0.0
C188 C 1.00027 0.48251 0.41875 0.0
C189 C 0.04739 0.51264 0.45376 0.0
C190 C 0.9376 0.40401 0.46491 0.0
C191 C 0.93797 0.40121 0.48937 0.0
C192 C 0.90139 0.36375 0.49952 0.0
C193 C 0.86388 0.32817 0.48541 0.0
C194 C 0.86421 0.33078 0.46099 0.0
C195 C 0.90039 0.36792 0.45093 0.0
C196 C 0.99229 0.48569 0.39357 0.0
C197 C 0.95759 0.44717 0.37973 0.0
C198 C 0.95019 0.4502 0.35595 0.0
C199 C 0.97695 0.49196 0.34549 0.0
C200 C 0.01141 0.53057 0.35943 0.0
C201 C 0.01918 0.52739 0.38314 0.0
C202 C 0.09227 0.54839 0.46514 0.0
C203 C 0.13273 0.55747 0.45404 0.0
C204 C 0.51125 0.15666 0.79845 0.0
C205 C 0.5335 0.18058 0.82008 0.0
C206 C 0.55584 0.16329 0.83369 0.0
C207 C 0.55753 0.12398 0.82529 0.0
H208 H 0.64406 0.0092 0.79976 0.0
H209 H 0.6561 0.9478 0.81264 0.0
H210 H 0.51222 0.86998 0.82915 0.0
H211 H 0.5015 0.93278 0.81744 0.0
H212 H 0.53485 0.94919 0.73002 0.0
H213 H 0.5288 0.93816 0.68729 0.0
H214 H 0.55574 0.07803 0.6838 0.0
H215 H 0.55955 0.08811 0.72641 0.0
H216 H 0.49692 0.1013 0.77291 0.0
H217 H 0.49422 0.16928 0.78738 0.0
H218 H 0.573 0.18083 0.85053 0.0
H219 H 0.57637 0.11234 0.8357 0.0
N220 N 0.55452 0.03824 0.8053 0.0
N221 N 0.55985 0.9995 0.77068 0.0
N222 N 0.54252 0.05846 0.76833 0.0
C223 C 0.5622 0.00556 0.79447 0.0
C224 C 0.55002 0.0259 0.75749 0.0
C225 C 0.54457 0.06487 0.79213 0.0
C226 C 0.57205 0.9755 0.80788 0.0
C227 C 0.61571 0.97968 0.80707 0.0
C228 C 0.62231 0.94425 0.81415 0.0
C229 C 0.58494 0.90343 0.82151 0.0
C230 C 0.54198 0.90099 0.82384 0.0
C231 C 0.53567 0.93688 0.81714 0.0
C232 C 0.5475 0.01945 0.73158 0.0
C233 C 0.53947 0.97754 0.72009 0.0
C234 C 0.53624 0.97133 0.69557 0.0
C235 C 0.54166 0.00715 0.682 0.0
C236 C 0.55032 0.04928 0.6936 0.0
C237 C 0.55282 0.0552 0.71808 0.0
C238 C 0.5374 0.1018 0.80302 0.0
C239 C 0.51323 0.11787 0.79003 0.0
C240 C 0.6312 0.57492 0.12519 0.0
C241 C 0.61682 0.53954 0.14046 0.0
C242 C 0.5706 0.51736 0.14711 0.0
C243 C 0.53887 0.52825 0.13744 0.0
H244 H 0.4125 0.54451 0.14441 0.0
H245 H 0.33773 0.5322 0.1568 0.0
H246 H 0.29955 0.53869 0.08524 0.0
H247 H 0.37289 0.54985 0.07285 0.0
H248 H 0.44291 0.58294 0.03425 0.0
H249 H 0.45965 0.59296 0.9929 0.0
H250 H 0.59543 0.61297 0.00817 0.0
H251 H 0.57946 0.60428 0.04927 0.0
H252 H 0.61166 0.61159 0.10292 0.0
H253 H 0.66625 0.59252 0.11947 0.0
H254 H 0.55853 0.49036 0.15912 0.0
H255 H 0.50305 0.50893 0.14191 0.0
N256 N 0.47635 0.5559 0.11425 0.0
N257 N 0.45661 0.5714 0.07761 0.0
N258 N 0.52905 0.57916 0.08436 0.0
C259 C 0.44522 0.55879 0.09979 0.0
C260 C 0.49841 0.58166 0.06976 0.0
C261 C 0.51865 0.56645 0.10651 0.0
C262 C 0.39907 0.5485 0.10765 0.0
C263 C 0.38793 0.54281 0.13131 0.0
C264 C 0.34515 0.536 0.13843 0.0
C265 C 0.31252 0.53443 0.12202 0.0
C266 C 0.32338 0.53898 0.09833 0.0
C267 C 0.36591 0.54588 0.09127 0.0
C268 C 0.50964 0.59234 0.04512 0.0
C269 C 0.47659 0.59017 0.02884 0.0
C270 C 0.48608 0.5957 0.00512 0.0
C271 C 0.52881 0.60359 -0.0028 0.0
C272 C 0.56241 0.60761 0.01367 0.0
C273 C 0.55301 0.60217 0.03729 0.0
C274 C 0.55277 0.56125 0.12081 0.0
C275 C 0.59963 0.58559 0.1155 0.0
H276 H 0.11646 0.51596 0.13382 0.0
H277 H 0.18972 0.60819 0.19532 0.0
H278 H 0.25805 0.60326 0.18688 0.0
H279 H 0.2991 0.57703 0.16082 0.0
H280 H 0.22641 0.48373 0.09964 0.0
H281 H 0.15621 0.4849 0.10919 0.0
C282 C 0.14725 0.53466 0.14546 0.0
C283 C 0.14783 0.5626 0.16509 0.0
C284 C 0.18682 0.53175 0.14052 0.0
C285 C 0.18809 0.58647 0.18003 0.0
C286 C 0.22739 0.58376 0.17523 0.0
C287 C 0.2677 0.55618 0.14981 0.0
C288 C 0.26834 0.53068 0.12943 0.0
C289 C 0.22739 0.557 0.15538 0.0
C290 C 0.22727 0.50436 0.11524 0.0
C291 C 0.18698 0.50488 0.12071 0.0
H292 H 0.6784 0.19611 0.53269 0.0
H293 H 0.66909 0.10098 0.47532 0.0
H294 H 0.74651 0.15782 0.46434 0.0
H295 H 0.81395 0.23677 0.469 0.0
H296 H 0.82092 0.33316 0.52504 0.0
H297 H 0.74794 0.27316 0.53888 0.0
C298 C 0.69345 0.18744 0.51795 0.0
C299 C 0.66767 0.14429 0.50477 0.0
C300 C 0.73765 0.22063 0.51146 0.0
C301 C 0.68797 0.13385 0.48577 0.0
C302 C 0.73224 0.16645 0.47942 0.0
C303 C 0.7996 0.24471 0.48428 0.0
C304 C 0.8229 0.28978 0.49577 0.0
C305 C 0.75691 0.21034 0.4918 0.0
C306 C 0.80418 0.29888 0.5159 0.0
C307 C 0.76211 0.26464 0.52372 0.0
H308 H 0.59829 0.72294 0.80698 0.0
H309 H 0.50452 0.68317 0.86328 0.0
H310 H 0.51465 0.76075 0.86754 0.0
H311 H 0.5447 0.8375 0.85289 0.0
H312 H 0.63312 0.87415 0.79424 0.0
H313 H 0.63158 0.80092 0.79381 0.0
C314 C 0.5806 0.73146 0.82041 0.0
C315 C 0.55041 0.69733 0.83463 0.0
C316 C 0.58564 0.7757 0.82237 0.0
C317 C 0.52761 0.70879 0.85193 0.0
C318 C 0.53338 0.75312 0.85438 0.0
C319 C 0.56377 0.82958 0.84007 0.0
C320 C 0.58889 0.86153 0.82364 0.0
C321 C 0.56136 0.78648 0.83928 0.0
C322 C 0.61408 0.85084 0.80741 0.0
C323 C 0.61282 0.80859 0.80694 0.0
H324 H 0.72735 0.43504 0.15124 0.0
H325 H 0.84243 0.57519 0.16124 0.0
H326 H 0.78904 0.60485 0.15923 0.0
H327 H 0.70977 0.59066 0.15263 0.0
H328 H 0.59562 0.44988 0.1422 0.0
H329 H 0.64851 0.42088 0.14708 0.0
C330 C 0.74088 0.47213 0.15299 0.0
C331 C 0.78891 0.50288 0.15606 0.0
C332 C 0.71006 0.48882 0.15197 0.0
C333 C 0.80567 0.55078 0.15872 0.0
C334 C 0.77513 0.56773 0.15758 0.0
C335 C 0.69643 0.55363 0.15154 0.0
C336 C 0.64862 0.52258 0.14697 0.0
C337 C 0.72727 0.53704 0.15392 0.0
C338 C 0.63198 0.47468 0.14601 0.0
C339 C 0.66233 0.45799 0.14852 0.0
H340 H 0.36193 0.81913 0.50989 0.0
H341 H 0.3757 0.81723 0.43488 0.0
H342 H 0.30065 0.74637 0.4291 0.0
H343 H 0.23281 0.68327 0.44512 0.0
H344 H 0.219 0.68167 0.52005 0.0
H345 H 0.29183 0.75586 0.52604 0.0
C346 C 0.34822 0.80347 0.49228 0.0
C347 C 0.37457 0.82353 0.47284 0.0
C348 C 0.30511 0.76195 0.48906 0.0
C349 C 0.35638 0.80254 0.45016 0.0
C350 C 0.31342 0.76192 0.44682 0.0
C351 C 0.24585 0.69878 0.46283 0.0
C352 C 0.22067 0.67638 0.48212 0.0
C353 C 0.28789 0.74094 0.46613 0.0
C354 C 0.23755 0.69801 0.50486 0.0
C355 C 0.27933 0.74038 0.5083 0.0
H356 H 0.52472 0.36392 0.82751 0.0
H357 H 0.66818 0.42162 0.84968 0.0
H358 H 0.65774 0.34396 0.84843 0.0
H359 H 0.60935 0.26029 0.83802 0.0
H360 H 0.46536 0.20238 0.81687 0.0
H361 H 0.47443 0.27949 0.82097 0.0
C362 C 0.55363 0.35942 0.83212 0.0
C363 C 0.59725 0.39838 0.83836 0.0
C364 C 0.5473 0.31468 0.83159 0.0
C365 C 0.63426 0.39211 0.84471 0.0
C366 C 0.62834 0.34774 0.844 0.0
C367 C 0.57966 0.26435 0.83489 0.0
C368 C 0.53687 0.22569 0.8269 0.0
C369 C 0.58517 0.30882 0.83715 0.0
C370 C 0.49887 0.2317 0.82268 0.0
C371 C 0.50401 0.27576 0.825 0.0
H372 H 0.53187 0.82115 0.49088 0.0
H373 H 0.6585 0.92711 0.5276 0.0
H374 H 0.68256 0.87029 0.53262 0.0
H375 H 0.66476 0.7894 0.5292 0.0
H376 H 0.53672 0.68342 0.49364 0.0
H377 H 0.51675 0.74169 0.48497 0.0
C378 C 0.56489 0.83195 0.49987 0.0
C379 C 0.59307 0.87819 0.50913 0.0
C380 C 0.57835 0.79913 0.5028 0.0
C381 C 0.63601 0.89169 0.52043 0.0
C382 C 0.64977 0.8592 0.52333 0.0
C383 C 0.63258 0.7791 0.51945 0.0
C384 C 0.60212 0.73202 0.51227 0.0
C385 C 0.62077 0.81265 0.51501 0.0
C386 C 0.56102 0.71939 0.49922 0.0
C387 C 0.54932 0.75264 0.49446 0.0
H388 H 0.72384 0.50672 0.78595 0.0
H389 H 0.74288 0.62729 0.828 0.0
H390 H 0.82326 0.65034 0.83752 0.0
H391 H 0.88321 0.62901 0.83931 0.0
H392 H 0.86062 0.50395 0.80045 0.0
H393 H 0.78749 0.49091 0.78365 0.0
C394 C 0.74585 0.53866 0.79672 0.0
C395 C 0.72719 0.56479 0.80661 0.0
C396 C 0.79147 0.55074 0.80287 0.0
C397 C 0.75627 0.60621 0.82044 0.0
C398 C 0.8022 0.61934 0.82596 0.0
C399 C 0.86253 0.59918 0.82695 0.0
C400 C 0.87707 0.56708 0.82156 0.0
C401 C 0.81941 0.59066 0.81818 0.0
C402 C 0.8505 0.52936 0.80495 0.0
C403 C 0.8083 0.52153 0.7955 0.0
H404 H 0.1723 0.69741 0.12407 0.0
H405 H 0.10795 0.73126 0.18079 0.0
H406 H 0.18043 0.80334 0.19135 0.0
H407 H 0.26411 0.85064 0.18795 0.0
H408 H 0.32987 0.81272 0.13362 0.0
H409 H 0.25461 0.74926 0.11815 0.0
C410 C 0.17381 0.72103 0.13841 0.0
C411 C 0.13496 0.70875 0.15182 0.0
C412 C 0.21599 0.7616 0.14489 0.0
C413 C 0.13751 0.73973 0.17035 0.0
C414 C 0.17897 0.78088 0.17643 0.0
C415 C 0.26193 0.82872 0.17259 0.0
C416 C 0.30263 0.83591 0.16223 0.0
C417 C 0.21881 0.79118 0.16441 0.0
C418 C 0.29914 0.80806 0.14194 0.0
C419 C 0.25612 0.77143 0.13322 0.0
H420 H 0.48262 0.16233 0.49411 0.0
H421 H 0.61176 0.20329 0.46172 0.0
H422 H 0.63198 0.28428 0.46628 0.0
H423 H 0.61657 0.34423 0.48333 0.0
H424 H 0.48644 0.30371 0.51423 0.0
H425 H 0.46253 0.22181 0.50614 0.0
C426 C 0.51484 0.189 0.48777 0.0
C427 C 0.54585 0.177 0.47784 0.0
C428 C 0.52609 0.23555 0.49024 0.0
C429 C 0.58726 0.21168 0.46941 0.0
C430 C 0.59899 0.25805 0.47211 0.0
C431 C 0.58264 0.31728 0.48779 0.0
C432 C 0.55328 0.32953 0.49939 0.0
C433 C 0.5692 0.27048 0.48303 0.0
C434 C 0.50935 0.29473 0.50514 0.0
C435 C 0.49588 0.24804 0.50068 0.0
H436 H 0.33124 0.48431 0.82555 0.0
H437 H 0.37334 0.52747 0.89885 0.0
H438 H 0.29548 0.51065 0.9073 0.0
H439 H 0.21893 0.49269 0.89324 0.0
H440 H 0.17664 0.45313 0.81978 0.0
H441 H 0.25138 0.45987 0.81191 0.0
C442 C 0.32299 0.48901 0.84343 0.0
C443 C 0.35787 0.50723 0.86157 0.0
C444 C 0.27847 0.48065 0.84804 0.0
C445 C 0.34702 0.51371 0.88461 0.0
C446 C 0.3026 0.50424 0.88944 0.0
C447 C 0.22547 0.4843 0.87559 0.0
C448 C 0.19223 0.4723 0.85713 0.0
C449 C 0.26852 0.489 0.87119 0.0
C450 C 0.20182 0.46274 0.83426 0.0
C451 C 0.24447 0.46652 0.82978 0.0
H452 H 0.86681 0.29799 0.16987 0.0
H453 H 0.77074 0.34809 0.16859 0.0
H454 H 0.70638 0.26993 0.17134 0.0
H455 H 0.67744 0.18825 0.17617 0.0
H456 H 0.77235 0.13726 0.17907 0.0
H457 H 0.8371 0.21481 0.17352 0.0
C458 C 0.83177 0.29173 0.17008 0.0
C459 C 0.82371 0.32892 0.16914 0.0
C460 C 0.7947 0.24656 0.17193 0.0
C461 C 0.77807 0.32022 0.16946 0.0
C462 C 0.74113 0.27547 0.17097 0.0
C463 C 0.71218 0.1939 0.17509 0.0
C464 C 0.72016 0.15716 0.17782 0.0
C465 C 0.74907 0.23852 0.17243 0.0
C466 C 0.76548 0.16516 0.17699 0.0
C467 C 0.80243 0.20943 0.17387 0.0
H468 H 0.00165 0.58825 0.10151 0.0
H469 H 0.94554 0.44054 0.10045 0.0
H470 H 0.95896 0.43714 0.05866 0.0
H471 H 0.98323 0.4755 0.02204 0.0
H472 H 0.03708 0.62267 0.02286 0.0
H473 H 0.02768 0.62688 0.06515 0.0
C474 C 0.99265 0.55534 0.0922 0.0
C475 C 0.97243 0.51468 0.10408 0.0
C476 C 0.99973 0.5535 0.0681 0.0
C477 C 0.96087 0.47232 0.0917 0.0
C478 C 0.96853 0.47033 0.0678 0.0
C479 C 0.99337 0.50855 0.03155 0.0
C480 C 0.01075 0.5487 0.01938 0.0
C481 C 0.98743 0.5106 0.05577 0.0
C482 C 0.02316 0.59122 0.03183 0.0
C483 C 0.01796 0.59366 0.056 0.0
H484 H 0.5584 0.96352 0.43124 0.0
H485 H 0.45495 0.00414 0.43062 0.0
H486 H 0.45348 1.00093 0.38782 0.0
H487 H 0.48165 0.98683 0.3506 0.0
H488 H 0.58613 0.94785 0.35108 0.0
H489 H 0.58746 0.95059 0.39401 0.0
C490 C 0.53546 0.9716 0.42176 0.0
C491 C 0.50671 0.98389 0.43413 0.0
C492 C 0.53508 0.97012 0.39716 0.0
C493 C 0.47743 0.99457 0.42155 0.0
C494 C 0.47654 0.99273 0.39707 0.0
C495 C 0.50445 0.97862 0.36013 0.0
C496 C 0.53354 0.96687 0.34776 0.0
C497 C 0.50517 0.98051 0.38471 0.0
C498 C 0.56359 0.95718 0.36028 0.0
C499 C 0.56422 0.95857 0.38477 0.0
H500 H 0.58678 0.5153 0.7662 0.0
H501 H 0.4817 0.55079 0.75318 0.0
H502 H 0.49803 0.55569 0.71178 0.0
H503 H 0.54314 0.55191 0.67939 0.0
H504 H 0.64803 0.51616 0.69165 0.0
H505 H 0.63065 0.50909 0.73323 0.0
C506 C 0.56737 0.52392 0.7543 0.0
C507 C 0.53323 0.53285 0.7629 0.0
C508 C 0.57697 0.52679 0.73039 0.0
C509 C 0.50818 0.54373 0.74714 0.0
C510 C 0.51755 0.54669 0.72342 0.0
C511 C 0.56241 0.54288 0.69121 0.0
C512 C 0.59714 0.53509 0.68258 0.0
C513 C 0.55212 0.53874 0.71492 0.0
C514 C 0.62111 0.52232 0.69793 0.0
C515 C 0.61126 0.5184 0.72168 0.0
H516 H 0.54536 0.96512 0.57287 0.0
H517 H 0.48135 0.04894 0.57058 0.0
H518 H 0.4836 0.05668 0.61344 0.0
H519 H 0.50364 0.03963 0.65143 0.0
H520 H 0.57255 0.96029 0.65366 0.0
H521 H 0.56738 0.94992 0.6109 0.0
C522 C 0.53168 0.98491 0.58173 0.0
C523 C 0.51305 0.00626 0.56852 0.0
C524 C 0.53371 0.98982 0.60635 0.0
C525 C 0.49596 0.03222 0.58031 0.0
C526 C 0.49717 0.03661 0.60482 0.0
C527 C 0.51812 0.02057 0.64263 0.0
C528 C 0.53841 1.00076 0.65589 0.0
C529 C 0.51613 0.01571 0.618 0.0
C530 C 0.55602 0.97531 0.64403 0.0
C531 C 0.55344 0.96965 0.61953 0.0
H532 H 0.60454 0.60734 0.89663 0.0
H533 H 0.46477 0.4951 0.88191 0.0
H534 H 0.44434 0.50831 0.92151 0.0
H535 H 0.46867 0.54693 0.96132 0.0
H536 H 0.60853 0.66015 0.97595 0.0
H537 H 0.62661 0.65161 0.93536 0.0
C538 C 0.56955 0.58628 0.90214 0.0
C539 C 0.53597 0.55061 0.8866 0.0
C540 C 0.55828 0.59403 0.92488 0.0
C541 C 0.4908 0.5232 0.89367 0.0
C542 C 0.47927 0.53058 0.91629 0.0
C543 C 0.50277 0.57054 0.95552 0.0
C544 C 0.53737 0.6037 0.97176 0.0
C545 C 0.51298 0.56536 0.93218 0.0
C546 C 0.58152 0.63369 0.96393 0.0
C547 C 0.5919 0.6289 0.94071 0.0
H548 H 0.91231 0.48336 0.23985 0.0
H549 H 0.05943 0.573 0.23474 0.0
H550 H 0.07204 0.56931 0.27647 0.0
H551 H 0.04175 0.53895 0.31411 0.0
H552 H 0.8944 0.45217 0.31973 0.0
H553 H 0.8817 0.45577 0.27799 0.0
C554 C 0.94715 0.50219 0.24785 0.0
C555 C 0.98482 0.52832 0.23411 0.0
C556 C 0.95423 0.50013 0.27192 0.0
C557 C 0.02971 0.55271 0.24486 0.0
C558 C 0.03702 0.55053 0.26874 0.0
C559 C 0.00676 0.52135 0.30635 0.0
C560 C 0.96916 0.49517 0.32014 0.0
C561 C 0.99957 0.5242 0.28241 0.0
C562 C 0.92414 0.47191 0.30953 0.0
C563 C 0.91676 0.47422 0.28567 0.0
loop_
_geom_bond_atom_site_label_1
_geom_bond_atom_site_label_2
_geom_bond_distance
_geom_bond_site_symmetry_2
_ccdc_geom_bond_type
Zn0 O6 1.969 . S
Zn0 O7 1.965 . S
Zn0 O11 2.024 . S
Zn0 O16 1.969 . S
Zn1 O8 1.969 . S
Zn1 O14 1.969 . S
Zn1 O15 1.965 . S
Zn1 O17 2.024 . S
C2 O3 1.229 . S
C2 O11 1.058 . S
O3 C2 1.229 . S
C4 O5 1.229 . S
C4 O17 1.058 . S
O5 C4 1.229 . S
O6 Zn0 1.969 . S
O6 C9 1.267 . S
O7 Zn0 1.965 . S
O7 C18 1.260 1_455 S
O8 Zn1 1.969 . S
O8 C18 1.258 . S
C9 O6 1.267 . S
C9 O10 1.228 . S
O10 C9 1.228 . S
O11 Zn0 2.024 . S
O11 C2 1.058 . S
C12 O13 1.228 . S
C12 O14 1.267 . S
O13 C12 1.228 . S
O14 Zn1 1.969 . S
O14 C12 1.267 . S
O15 Zn1 1.965 . S
O15 C19 1.260 1_655 S
O16 Zn0 1.969 . S
O16 C19 1.258 . S
O17 Zn1 2.024 . S
O17 C4 1.058 . S
C18 O7 1.260 1_655 S
C18 O8 1.258 . S
C19 O15 1.260 1_455 S
C19 O16 1.258 . S
Zn20 O26 1.969 . S
Zn20 O27 1.965 . S
Zn20 O31 2.024 . S
Zn20 O36 1.969 . S
Zn21 O28 1.969 . S
Zn21 O34 1.969 . S
Zn21 O35 1.965 . S
Zn21 O37 2.024 . S
C22 O23 1.229 . S
C22 O31 1.058 . S
O23 C22 1.229 . S
C24 O25 1.229 . S
C24 O37 1.058 . S
O25 C24 1.229 . S
O26 Zn20 1.969 . S
O26 C29 1.267 . S
O27 Zn20 1.965 . S
O27 C38 1.260 . S
O28 Zn21 1.969 . S
O28 C38 1.258 1_565 S
C29 O26 1.267 . S
C29 O30 1.228 . S
O30 C29 1.228 . S
O31 Zn20 2.024 . S
O31 C22 1.058 . S
C32 O33 1.228 . S
C32 O34 1.267 . S
O33 C32 1.228 . S
O34 Zn21 1.969 . S
O34 C32 1.267 . S
O35 Zn21 1.965 . S
O35 C39 1.260 1_565 S
O36 Zn20 1.969 . S
O36 C39 1.258 . S
O37 Zn21 2.024 . S
O37 C24 1.058 . S
C38 O27 1.260 . S
C38 O28 1.258 1_545 S
C39 O35 1.260 1_545 S
C39 O36 1.258 . S
Zn40 O46 1.969 . S
Zn40 O47 1.965 . S
Zn40 O51 2.024 . S
Zn40 O56 1.969 . S
Zn41 O48 1.969 . S
Zn41 O54 1.969 . S
Zn41 O55 1.965 . S
Zn41 O57 2.024 . S
C42 O43 1.229 . S
C42 O51 1.058 . S
O43 C42 1.229 . S
C44 O45 1.229 . S
C44 O57 1.058 . S
O45 C44 1.229 . S
O46 Zn40 1.969 . S
O46 C49 1.267 . S
O47 Zn40 1.965 . S
O47 C58 1.260 . S
O48 Zn41 1.969 . S
O48 C58 1.258 . S
C49 O46 1.267 . S
C49 O50 1.228 . S
O50 C49 1.228 . S
O51 Zn40 2.024 . S
O51 C42 1.058 . S
C52 O53 1.228 . S
C52 O54 1.267 . S
O53 C52 1.228 . S
O54 Zn41 1.969 . S
O54 C52 1.267 . S
O55 Zn41 1.965 . S
O55 C59 1.260 . S
O56 Zn40 1.969 . S
O56 C59 1.258 . S
O57 Zn41 2.024 . S
O57 C44 1.058 . S
C58 O47 1.260 . S
C58 O48 1.258 . S
C59 O55 1.260 . S
C59 O56 1.258 . S
C60 C61 1.384 . S
C60 H73 0.947 . S
C60 C95 1.382 . S
C61 C60 1.384 . S
C61 C62 1.378 . S
C62 C61 1.378 . S
C62 C63 1.378 . S
C62 H74 0.952 . S
C63 C62 1.378 . S
C63 H75 0.950 . S
C63 C94 1.383 . S
H64 C83 0.947 . S
H65 C84 0.946 . S
H66 C86 0.953 . S
H67 C87 0.945 . S
H68 C89 0.952 . S
H69 C90 0.949 . S
H70 C92 0.950 . S
H71 C93 0.948 . S
H72 C95 0.951 . S
H73 C60 0.947 . S
H74 C62 0.952 . S
H75 C63 0.950 . S
N76 C79 1.382 . S
N76 C81 1.363 1_545 S
N77 C79 1.371 . S
N77 C80 1.372 . S
N78 C80 1.361 1_565 S
N78 C81 1.377 . S
C79 N76 1.382 . S
C79 N77 1.371 . S
C79 C82 1.480 . S
C80 N77 1.372 . S
C80 N78 1.361 1_545 S
C80 C88 1.457 . S
C81 N76 1.363 1_565 S
C81 N78 1.377 . S
C81 C94 1.479 . S
C82 C79 1.480 . S
C82 C83 1.383 . S
C82 C87 1.385 . S
C83 H64 0.947 . S
C83 C82 1.383 . S
C83 C84 1.388 . S
C84 H65 0.946 . S
C84 C83 1.388 . S
C84 C85 1.384 . S
C85 C84 1.384 . S
C85 C86 1.377 . S
C86 H66 0.953 . S
C86 C85 1.377 . S
C86 C87 1.369 . S
C87 H67 0.945 . S
C87 C82 1.385 . S
C87 C86 1.369 . S
C88 C80 1.457 . S
C88 C89 1.372 . S
C88 C93 1.364 1_545 S
C89 H68 0.952 . S
C89 C88 1.372 . S
C89 C90 1.389 . S
C90 H69 0.949 . S
C90 C89 1.389 . S
C90 C91 1.387 . S
C91 C90 1.387 . S
C91 C92 1.372 1_545 S
C92 H70 0.950 . S
C92 C91 1.372 1_565 S
C92 C93 1.379 . S
C93 H71 0.948 . S
C93 C88 1.364 1_565 S
C93 C92 1.379 . S
C94 C63 1.383 . S
C94 C81 1.479 . S
C94 C95 1.398 . S
C95 C60 1.382 . S
C95 H72 0.951 . S
C95 C94 1.398 . S
C96 C97 1.384 . S
C96 H109 0.947 . S
C96 C131 1.382 . S
C97 C96 1.384 . S
C97 C98 1.378 . S
C98 C97 1.378 . S
C98 C99 1.378 . S
C98 H110 0.952 . S
C99 C98 1.378 . S
C99 H111 0.950 . S
C99 C130 1.383 . S
H100 C119 0.947 . S
H101 C120 0.946 . S
H102 C122 0.953 . S
H103 C123 0.945 . S
H104 C125 0.952 . S
H105 C126 0.949 . S
H106 C128 0.950 . S
H107 C129 0.948 . S
H108 C131 0.951 . S
H109 C96 0.947 . S
H110 C98 0.952 . S
H111 C99 0.950 . S
N112 C115 1.382 . S
N112 C117 1.363 . S
N113 C115 1.371 . S
N113 C116 1.372 . S
N114 C116 1.361 . S
N114 C117 1.377 . S
C115 N112 1.382 . S
C115 N113 1.371 . S
C115 C118 1.480 . S
C116 N113 1.372 . S
C116 N114 1.361 . S
C116 C124 1.457 . S
C117 N112 1.363 . S
C117 N114 1.377 . S
C117 C130 1.479 . S
C118 C115 1.480 . S
C118 C119 1.383 . S
C118 C123 1.385 . S
C119 H100 0.947 . S
C119 C118 1.383 . S
C119 C120 1.388 . S
C120 H101 0.946 . S
C120 C119 1.388 . S
C120 C121 1.384 . S
C121 C120 1.384 . S
C121 C122 1.377 . S
C122 H102 0.953 . S
C122 C121 1.377 . S
C122 C123 1.369 . S
C123 H103 0.945 . S
C123 C118 1.385 . S
C123 C122 1.369 . S
C124 C116 1.457 . S
C124 C125 1.372 . S
C124 C129 1.364 . S
C125 H104 0.952 . S
C125 C124 1.372 . S
C125 C126 1.389 . S
C126 H105 0.949 . S
C126 C125 1.389 . S
C126 C127 1.387 . S
C127 C126 1.387 . S
C127 C128 1.372 . S
C128 H106 0.950 . S
C128 C127 1.372 . S
C128 C129 1.379 . S
C129 H107 0.948 . S
C129 C124 1.364 . S
C129 C128 1.379 . S
C130 C99 1.383 . S
C130 C117 1.479 . S
C130 C131 1.398 . S
C131 C96 1.382 . S
C131 H108 0.951 . S
C131 C130 1.398 . S
C132 C133 1.384 . S
C132 H145 0.947 . S
C132 C167 1.382 . S
C133 C132 1.384 . S
C133 C134 1.378 . S
C134 C133 1.378 . S
C134 C135 1.378 . S
C134 H146 0.952 . S
C135 C134 1.378 . S
C135 H147 0.950 . S
C135 C166 1.383 . S
H136 C155 0.947 . S
H137 C156 0.946 . S
H138 C158 0.953 . S
H139 C159 0.945 . S
H140 C161 0.952 . S
H141 C162 0.949 . S
H142 C164 0.950 . S
H143 C165 0.948 . S
H144 C167 0.951 . S
H145 C132 0.947 . S
H146 C134 0.952 . S
H147 C135 0.950 . S
N148 C151 1.382 . S
N148 C153 1.363 1_455 S
N149 C151 1.371 . S
N149 C152 1.372 . S
N150 C152 1.361 1_655 S
N150 C153 1.377 . S
C151 N148 1.382 . S
C151 N149 1.371 . S
C151 C154 1.480 . S
C152 N149 1.372 . S
C152 N150 1.361 1_455 S
C152 C160 1.457 . S
C153 N148 1.363 1_655 S
C153 N150 1.377 . S
C153 C166 1.479 . S
C154 C151 1.480 . S
C154 C155 1.383 . S
C154 C159 1.385 . S
C155 H136 0.947 . S
C155 C154 1.383 . S
C155 C156 1.388 . S
C156 H137 0.946 . S
C156 C155 1.388 . S
C156 C157 1.384 . S
C157 C156 1.384 . S
C157 C158 1.377 . S
C158 H138 0.953 . S
C158 C157 1.377 . S
C158 C159 1.369 . S
C159 H139 0.945 . S
C159 C154 1.385 . S
C159 C158 1.369 . S
C160 C152 1.457 . S
C160 C161 1.372 . S
C160 C165 1.364 1_455 S
C161 H140 0.952 . S
C161 C160 1.372 . S
C161 C162 1.389 . S
C162 H141 0.949 . S
C162 C161 1.389 . S
C162 C163 1.387 . S
C163 C162 1.387 . S
C163 C164 1.372 1_455 S
C164 H142 0.950 . S
C164 C163 1.372 1_655 S
C164 C165 1.379 . S
C165 H143 0.948 . S
C165 C160 1.364 1_655 S
C165 C164 1.379 . S
C166 C135 1.383 . S
C166 C153 1.479 . S
C166 C167 1.398 . S
C167 C132 1.382 . S
C167 H144 0.951 . S
C167 C166 1.398 . S
C168 C169 1.384 . S
C168 H181 0.947 . S
C168 C203 1.382 . S
C169 C168 1.384 . S
C169 C170 1.378 . S
C170 C169 1.378 . S
C170 C171 1.378 . S
C170 H182 0.952 . S
C171 C170 1.378 . S
C171 H183 0.950 . S
C171 C202 1.383 . S
H172 C191 0.947 . S
H173 C192 0.946 . S
H174 C194 0.953 . S
H175 C195 0.945 . S
H176 C197 0.952 . S
H177 C198 0.949 . S
H178 C200 0.950 . S
H179 C201 0.948 . S
H180 C203 0.951 . S
H181 C168 0.947 . S
H182 C170 0.952 . S
H183 C171 0.950 . S
N184 C187 1.382 1_455 S
N184 C189 1.363 . S
N185 C187 1.371 . S
N185 C188 1.372 1_655 S
N186 C188 1.361 . S
N186 C189 1.377 . S
C187 N184 1.382 1_655 S
C187 N185 1.371 . S
C187 C190 1.480 . S
C188 N185 1.372 1_455 S
C188 N186 1.361 . S
C188 C196 1.457 . S
C189 N184 1.363 . S
C189 N186 1.377 . S
C189 C202 1.479 . S
C190 C187 1.480 . S
C190 C191 1.383 . S
C190 C195 1.385 . S
C191 H172 0.947 . S
C191 C190 1.383 . S
C191 C192 1.388 . S
C192 H173 0.946 . S
C192 C191 1.388 . S
C192 C193 1.384 . S
C193 C192 1.384 . S
C193 C194 1.377 . S
C194 H174 0.953 . S
C194 C193 1.377 . S
C194 C195 1.369 . S
C195 H175 0.945 . S
C195 C190 1.385 . S
C195 C194 1.369 . S
C196 C188 1.457 . S
C196 C197 1.372 1_455 S
C196 C201 1.364 . S
C197 H176 0.952 . S
C197 C196 1.372 1_655 S
C197 C198 1.389 . S
C198 H177 0.949 . S
C198 C197 1.389 . S
C198 C199 1.387 1_655 S
C199 C198 1.387 1_455 S
C199 C200 1.372 . S
C200 H178 0.950 . S
C200 C199 1.372 . S
C200 C201 1.379 . S
C201 H179 0.948 . S
C201 C196 1.364 . S
C201 C200 1.379 . S
C202 C171 1.383 . S
C202 C189 1.479 . S
C202 C203 1.398 . S
C203 C168 1.382 . S
C203 H180 0.951 . S
C203 C202 1.398 . S
C204 C205 1.384 . S
C204 H217 0.947 . S
C204 C239 1.382 . S
C205 C204 1.384 . S
C205 C206 1.378 . S
C206 C205 1.378 . S
C206 C207 1.378 . S
C206 H218 0.952 . S
C207 C206 1.378 . S
C207 H219 0.950 . S
C207 C238 1.383 . S
H208 C227 0.947 . S
H209 C228 0.946 . S
H210 C230 0.953 . S
H211 C231 0.945 . S
H212 C233 0.952 . S
H213 C234 0.949 . S
H214 C236 0.950 . S
H215 C237 0.948 . S
H216 C239 0.951 . S
H217 C204 0.947 . S
H218 C206 0.952 . S
H219 C207 0.950 . S
N220 C223 1.382 1_545 S
N220 C225 1.363 . S
N221 C223 1.371 . S
N221 C224 1.372 1_565 S
N222 C224 1.361 . S
N222 C225 1.377 . S
C223 N220 1.382 1_565 S
C223 N221 1.371 . S
C223 C226 1.480 . S
C224 N221 1.372 1_545 S
C224 N222 1.361 . S
C224 C232 1.457 . S
C225 N220 1.363 . S
C225 N222 1.377 . S
C225 C238 1.479 . S
C226 C223 1.480 . S
C226 C227 1.383 . S
C226 C231 1.385 . S
C227 H208 0.947 . S
C227 C226 1.383 . S
C227 C228 1.388 . S
C228 H209 0.946 . S
C228 C227 1.388 . S
C228 C229 1.384 . S
C229 C228 1.384 . S
C229 C230 1.377 . S
C230 H210 0.953 . S
C230 C229 1.377 . S
C230 C231 1.369 . S
C231 H211 0.945 . S
C231 C226 1.385 . S
C231 C230 1.369 . S
C232 C224 1.457 . S
C232 C233 1.372 1_545 S
C232 C237 1.364 . S
C233 H212 0.952 . S
C233 C232 1.372 1_565 S
C233 C234 1.389 . S
C234 H213 0.949 . S
C234 C233 1.389 . S
C234 C235 1.387 1_565 S
C235 C234 1.387 1_545 S
C235 C236 1.372 . S
C236 H214 0.950 . S
C236 C235 1.372 . S
C236 C237 1.379 . S
C237 H215 0.948 . S
C237 C232 1.364 . S
C237 C236 1.379 . S
C238 C207 1.383 . S
C238 C225 1.479 . S
C238 C239 1.398 . S
C239 C204 1.382 . S
C239 H216 0.951 . S
C239 C238 1.398 . S
C240 C241 1.384 . S
C240 H253 0.947 . S
C240 C275 1.382 . S
C241 C240 1.384 . S
C241 C242 1.378 . S
C242 C241 1.378 . S
C242 C243 1.378 . S
C242 H254 0.952 . S
C243 C242 1.378 . S
C243 H255 0.950 . S
C243 C274 1.383 . S
H244 C263 0.947 . S
H245 C264 0.946 . S
H246 C266 0.953 . S
H247 C267 0.945 . S
H248 C269 0.952 . S
H249 C270 0.949 . S
H250 C272 0.950 . S
H251 C273 0.948 . S
H252 C275 0.951 . S
H253 C240 0.947 . S
H254 C242 0.952 . S
H255 C243 0.950 . S
N256 C259 1.382 . S
N256 C261 1.363 . S
N257 C259 1.371 . S
N257 C260 1.372 . S
N258 C260 1.361 . S
N258 C261 1.377 . S
C259 N256 1.382 . S
C259 N257 1.371 . S
C259 C262 1.480 . S
C260 N257 1.372 . S
C260 N258 1.361 . S
C260 C268 1.457 . S
C261 N256 1.363 . S
C261 N258 1.377 . S
C261 C274 1.479 . S
C262 C259 1.480 . S
C262 C263 1.383 . S
C262 C267 1.385 . S
C263 H244 0.947 . S
C263 C262 1.383 . S
C263 C264 1.388 . S
C264 H245 0.946 . S
C264 C263 1.388 . S
C264 C265 1.384 . S
C265 C264 1.384 . S
C265 C266 1.377 . S
C266 H246 0.953 . S
C266 C265 1.377 . S
C266 C267 1.369 . S
C267 H247 0.945 . S
C267 C262 1.385 . S
C267 C266 1.369 . S
C268 C260 1.457 . S
C268 C269 1.372 . S
C268 C273 1.364 . S
C269 H248 0.952 . S
C269 C268 1.372 . S
C269 C270 1.389 . S
C270 H249 0.949 . S
C270 C269 1.389 . S
C270 C271 1.387 . S
C271 C270 1.387 . S
C271 C272 1.372 . S
C272 H250 0.950 . S
C272 C271 1.372 . S
C272 C273 1.379 . S
C273 H251 0.948 . S
C273 C268 1.364 . S
C273 C272 1.379 . S
C274 C243 1.383 . S
C274 C261 1.479 . S
C274 C275 1.398 . S
C275 C240 1.382 . S
C275 H252 0.951 . S
C275 C274 1.398 . S
H276 C282 0.930 . S
H277 C285 0.930 . S
H278 C286 0.930 . S
H279 C287 0.930 . S
H280 C290 0.930 . S
H281 C291 0.930 . S
C282 H276 0.930 . S
C282 C283 1.355 . S
C282 C284 1.415 . S
C283 C282 1.355 . S
C283 C285 1.419 . S
C284 C282 1.415 . S
C284 C289 1.425 . S
C284 C291 1.409 . S
C285 H277 0.930 . S
C285 C283 1.419 . S
C285 C286 1.362 . S
C286 H278 0.930 . S
C286 C285 1.362 . S
C286 C289 1.409 . S
C287 H279 0.930 . S
C287 C288 1.355 . S
C287 C289 1.415 . S
C288 C287 1.355 . S
C288 C290 1.419 . S
C289 C284 1.425 . S
C289 C286 1.409 . S
C289 C287 1.415 . S
C290 H280 0.930 . S
C290 C288 1.419 . S
C290 C291 1.362 . S
C291 H281 0.930 . S
C291 C284 1.409 . S
C291 C290 1.362 . S
H292 C298 0.930 . S
H293 C301 0.930 . S
H294 C302 0.930 . S
H295 C303 0.930 . S
H296 C306 0.930 . S
H297 C307 0.930 . S
C298 H292 0.930 . S
C298 C299 1.355 . S
C298 C300 1.415 . S
C299 C298 1.355 . S
C299 C301 1.419 . S
C300 C298 1.415 . S
C300 C305 1.425 . S
C300 C307 1.409 . S
C301 H293 0.930 . S
C301 C299 1.419 . S
C301 C302 1.362 . S
C302 H294 0.930 . S
C302 C301 1.362 . S
C302 C305 1.409 . S
C303 H295 0.930 . S
C303 C304 1.355 . S
C303 C305 1.415 . S
C304 C303 1.355 . S
C304 C306 1.419 . S
C305 C300 1.425 . S
C305 C302 1.409 . S
C305 C303 1.415 . S
C306 H296 0.930 . S
C306 C304 1.419 . S
C306 C307 1.362 . S
C307 H297 0.930 . S
C307 C300 1.409 . S
C307 C306 1.362 . S
H308 C314 0.930 . S
H309 C317 0.930 . S
H310 C318 0.930 . S
H311 C319 0.930 . S
H312 C322 0.930 . S
H313 C323 0.930 . S
C314 H308 0.930 . S
C314 C315 1.355 . S
C314 C316 1.415 . S
C315 C314 1.355 . S
C315 C317 1.419 . S
C316 C314 1.415 . S
C316 C321 1.425 . S
C316 C323 1.409 . S
C317 H309 0.930 . S
C317 C315 1.419 . S
C317 C318 1.362 . S
C318 H310 0.930 . S
C318 C317 1.362 . S
C318 C321 1.409 . S
C319 H311 0.930 . S
C319 C320 1.355 . S
C319 C321 1.415 . S
C320 C319 1.355 . S
C320 C322 1.419 . S
C321 C316 1.425 . S
C321 C318 1.409 . S
C321 C319 1.415 . S
C322 H312 0.930 . S
C322 C320 1.419 . S
C322 C323 1.362 . S
C323 H313 0.930 . S
C323 C316 1.409 . S
C323 C322 1.362 . S
H324 C330 0.930 . S
H325 C333 0.930 . S
H326 C334 0.930 . S
H327 C335 0.930 . S
H328 C338 0.930 . S
H329 C339 0.930 . S
C330 H324 0.930 . S
C330 C331 1.355 . S
C330 C332 1.415 . S
C331 C330 1.355 . S
C331 C333 1.419 . S
C332 C330 1.415 . S
C332 C337 1.425 . S
C332 C339 1.409 . S
C333 H325 0.930 . S
C333 C331 1.419 . S
C333 C334 1.362 . S
C334 H326 0.930 . S
C334 C333 1.362 . S
C334 C337 1.409 . S
C335 H327 0.930 . S
C335 C336 1.355 . S
C335 C337 1.415 . S
C336 C335 1.355 . S
C336 C338 1.419 . S
C337 C332 1.425 . S
C337 C334 1.409 . S
C337 C335 1.415 . S
C338 H328 0.930 . S
C338 C336 1.419 . S
C338 C339 1.362 . S
C339 H329 0.930 . S
C339 C332 1.409 . S
C339 C338 1.362 . S
H340 C346 0.930 . S
H341 C349 0.930 . S
H342 C350 0.930 . S
H343 C351 0.930 . S
H344 C354 0.930 . S
H345 C355 0.930 . S
C346 H340 0.930 . S
C346 C347 1.355 . S
C346 C348 1.415 . S
C347 C346 1.355 . S
C347 C349 1.419 . S
C348 C346 1.415 . S
C348 C353 1.425 . S
C348 C355 1.409 . S
C349 H341 0.930 . S
C349 C347 1.419 . S
C349 C350 1.362 . S
C350 H342 0.930 . S
C350 C349 1.362 . S
C350 C353 1.409 . S
C351 H343 0.930 . S
C351 C352 1.355 . S
C351 C353 1.415 . S
C352 C351 1.355 . S
C352 C354 1.419 . S
C353 C348 1.425 . S
C353 C350 1.409 . S
C353 C351 1.415 . S
C354 H344 0.930 . S
C354 C352 1.419 . S
C354 C355 1.362 . S
C355 H345 0.930 . S
C355 C348 1.409 . S
C355 C354 1.362 . S
H356 C362 0.930 . S
H357 C365 0.930 . S
H358 C366 0.930 . S
H359 C367 0.930 . S
H360 C370 0.930 . S
H361 C371 0.930 . S
C362 H356 0.930 . S
C362 C363 1.355 . S
C362 C364 1.415 . S
C363 C362 1.355 . S
C363 C365 1.419 . S
C364 C362 1.415 . S
C364 C369 1.425 . S
C364 C371 1.409 . S
C365 H357 0.930 . S
C365 C363 1.419 . S
C365 C366 1.362 . S
C366 H358 0.930 . S
C366 C365 1.362 . S
C366 C369 1.409 . S
C367 H359 0.930 . S
C367 C368 1.355 . S
C367 C369 1.415 . S
C368 C367 1.355 . S
C368 C370 1.419 . S
C369 C364 1.425 . S
C369 C366 1.409 . S
C369 C367 1.415 . S
C370 H360 0.930 . S
C370 C368 1.419 . S
C370 C371 1.362 . S
C371 H361 0.930 . S
C371 C364 1.409 . S
C371 C370 1.362 . S
H372 C378 0.930 . S
H373 C381 0.930 . S
H374 C382 0.930 . S
H375 C383 0.930 . S
H376 C386 0.930 . S
H377 C387 0.930 . S
C378 H372 0.930 . S
C378 C379 1.355 . S
C378 C380 1.415 . S
C379 C378 1.355 . S
C379 C381 1.419 . S
C380 C378 1.415 . S
C380 C385 1.425 . S
C380 C387 1.409 . S
C381 H373 0.930 . S
C381 C379 1.419 . S
C381 C382 1.362 . S
C382 H374 0.930 . S
C382 C381 1.362 . S
C382 C385 1.409 . S
C383 H375 0.930 . S
C383 C384 1.355 . S
C383 C385 1.415 . S
C384 C383 1.355 . S
C384 C386 1.419 . S
C385 C380 1.425 . S
C385 C382 1.409 . S
C385 C383 1.415 . S
C386 H376 0.930 . S
C386 C384 1.419 . S
C386 C387 1.362 . S
C387 H377 0.930 . S
C387 C380 1.409 . S
C387 C386 1.362 . S
H388 C394 0.930 . S
H389 C397 0.930 . S
H390 C398 0.930 . S
H391 C399 0.930 . S
H392 C402 0.930 . S
H393 C403 0.930 . S
C394 H388 0.930 . S
C394 C395 1.355 . S
C394 C396 1.415 . S
C395 C394 1.355 . S
C395 C397 1.419 . S
C396 C394 1.415 . S
C396 C401 1.425 . S
C396 C403 1.409 . S
C397 H389 0.930 . S
C397 C395 1.419 . S
C397 C398 1.362 . S
C398 H390 0.930 . S
C398 C397 1.362 . S
C398 C401 1.409 . S
C399 H391 0.930 . S
C399 C400 1.355 . S
C399 C401 1.415 . S
C400 C399 1.355 . S
C400 C402 1.419 . S
C401 C396 1.425 . S
C401 C398 1.409 . S
C401 C399 1.415 . S
C402 H392 0.930 . S
C402 C400 1.419 . S
C402 C403 1.362 . S
C403 H393 0.930 . S
C403 C396 1.409 . S
C403 C402 1.362 . S
H404 C410 0.930 . S
H405 C413 0.930 . S
H406 C414 0.930 . S
H407 C415 0.930 . S
H408 C418 0.930 . S
H409 C419 0.930 . S
C410 H404 0.930 . S
C410 C411 1.355 . S
C410 C412 1.415 . S
C411 C410 1.355 . S
C411 C413 1.419 . S
C412 C410 1.415 . S
C412 C417 1.425 . S
C412 C419 1.409 . S
C413 H405 0.930 . S
C413 C411 1.419 . S
C413 C414 1.362 . S
C414 H406 0.930 . S
C414 C413 1.362 . S
C414 C417 1.409 . S
C415 H407 0.930 . S
C415 C416 1.355 . S
C415 C417 1.415 . S
C416 C415 1.355 . S
C416 C418 1.419 . S
C417 C412 1.425 . S
C417 C414 1.409 . S
C417 C415 1.415 . S
C418 H408 0.930 . S
C418 C416 1.419 . S
C418 C419 1.362 . S
C419 H409 0.930 . S
C419 C412 1.409 . S
C419 C418 1.362 . S
H420 C426 0.930 . S
H421 C429 0.930 . S
H422 C430 0.930 . S
H423 C431 0.930 . S
H424 C434 0.930 . S
H425 C435 0.930 . S
C426 H420 0.930 . S
C426 C427 1.355 . S
C426 C428 1.415 . S
C427 C426 1.355 . S
C427 C429 1.419 . S
C428 C426 1.415 . S
C428 C433 1.425 . S
C428 C435 1.409 . S
C429 H421 0.930 . S
C429 C427 1.419 . S
C429 C430 1.362 . S
C430 H422 0.930 . S
C430 C429 1.362 . S
C430 C433 1.409 . S
C431 H423 0.930 . S
C431 C432 1.355 . S
C431 C433 1.415 . S
C432 C431 1.355 . S
C432 C434 1.419 . S
C433 C428 1.425 . S
C433 C430 1.409 . S
C433 C431 1.415 . S
C434 H424 0.930 . S
C434 C432 1.419 . S
C434 C435 1.362 . S
C435 H425 0.930 . S
C435 C428 1.409 . S
C435 C434 1.362 . S
H436 C442 0.930 . S
H437 C445 0.930 . S
H438 C446 0.930 . S
H439 C447 0.930 . S
H440 C450 0.930 . S
H441 C451 0.930 . S
C442 H436 0.930 . S
C442 C443 1.355 . S
C442 C444 1.415 . S
C443 C442 1.355 . S
C443 C445 1.419 . S
C444 C442 1.415 . S
C444 C449 1.425 . S
C444 C451 1.409 . S
C445 H437 0.930 . S
C445 C443 1.419 . S
C445 C446 1.362 . S
C446 H438 0.930 . S
C446 C445 1.362 . S
C446 C449 1.409 . S
C447 H439 0.930 . S
C447 C448 1.355 . S
C447 C449 1.415 . S
C448 C447 1.355 . S
C448 C450 1.419 . S
C449 C444 1.425 . S
C449 C446 1.409 . S
C449 C447 1.415 . S
C450 H440 0.930 . S
C450 C448 1.419 . S
C450 C451 1.362 . S
C451 H441 0.930 . S
C451 C444 1.409 . S
C451 C450 1.362 . S
H452 C458 0.930 . S
H453 C461 0.930 . S
H454 C462 0.930 . S
H455 C463 0.930 . S
H456 C466 0.930 . S
H457 C467 0.930 . S
C458 H452 0.930 . S
C458 C459 1.355 . S
C458 C460 1.415 . S
C459 C458 1.355 . S
C459 C461 1.419 . S
C460 C458 1.415 . S
C460 C465 1.425 . S
C460 C467 1.409 . S
C461 H453 0.930 . S
C461 C459 1.419 . S
C461 C462 1.362 . S
C462 H454 0.930 . S
C462 C461 1.362 . S
C462 C465 1.409 . S
C463 H455 0.930 . S
C463 C464 1.355 . S
C463 C465 1.415 . S
C464 C463 1.355 . S
C464 C466 1.419 . S
C465 C460 1.425 . S
C465 C462 1.409 . S
C465 C463 1.415 . S
C466 H456 0.930 . S
C466 C464 1.419 . S
C466 C467 1.362 . S
C467 H457 0.930 . S
C467 C460 1.409 . S
C467 C466 1.362 . S
H468 C474 0.930 . S
H469 C477 0.930 . S
H470 C478 0.930 . S
H471 C479 0.930 . S
H472 C482 0.930 1_655 S
H473 C483 0.930 . S
C474 H468 0.930 . S
C474 C475 1.355 1_655 S
C474 C476 1.415 1_655 S
C475 C474 1.355 1_455 S
C475 C477 1.419 . S
C476 C474 1.415 1_455 S
C476 C481 1.425 . S
C476 C483 1.409 1_455 S
C477 H469 0.930 . S
C477 C475 1.419 . S
C477 C478 1.362 . S
C478 H470 0.930 . S
C478 C477 1.362 . S
C478 C481 1.409 . S
C479 H471 0.930 . S
C479 C480 1.355 . S
C479 C481 1.415 . S
C480 C479 1.355 . S
C480 C482 1.419 . S
C481 C476 1.425 . S
C481 C478 1.409 . S
C481 C479 1.415 . S
C482 H472 0.930 1_455 S
C482 C480 1.419 . S
C482 C483 1.362 1_455 S
C483 H473 0.930 . S
C483 C476 1.409 1_655 S
C483 C482 1.362 1_655 S
H484 C490 0.930 . S
H485 C493 0.930 . S
H486 C494 0.930 . S
H487 C495 0.930 1_565 S
H488 C498 0.930 . S
H489 C499 0.930 . S
C490 H484 0.930 . S
C490 C491 1.355 . S
C490 C492 1.415 . S
C491 C490 1.355 . S
C491 C493 1.419 1_545 S
C492 C490 1.415 . S
C492 C497 1.425 . S
C492 C499 1.409 . S
C493 H485 0.930 . S
C493 C491 1.419 1_565 S
C493 C494 1.362 . S
C494 H486 0.930 . S
C494 C493 1.362 . S
C494 C497 1.409 1_565 S
C495 H487 0.930 1_545 S
C495 C496 1.355 . S
C495 C497 1.415 . S
C496 C495 1.355 . S
C496 C498 1.419 . S
C497 C492 1.425 . S
C497 C494 1.409 1_545 S
C497 C495 1.415 . S
C498 H488 0.930 . S
C498 C496 1.419 . S
C498 C499 1.362 . S
C499 H489 0.930 . S
C499 C492 1.409 . S
C499 C498 1.362 . S
H500 C506 0.930 . S
H501 C509 0.930 . S
H502 C510 0.930 . S
H503 C511 0.930 . S
H504 C514 0.930 . S
H505 C515 0.930 . S
C506 H500 0.930 . S
C506 C507 1.355 . S
C506 C508 1.415 . S
C507 C506 1.355 . S
C507 C509 1.419 . S
C508 C506 1.415 . S
C508 C513 1.425 . S
C508 C515 1.409 . S
C509 H501 0.930 . S
C509 C507 1.419 . S
C509 C510 1.362 . S
C510 H502 0.930 . S
C510 C509 1.362 . S
C510 C513 1.409 . S
C511 H503 0.930 . S
C511 C512 1.355 . S
C511 C513 1.415 . S
C512 C511 1.355 . S
C512 C514 1.419 . S
C513 C508 1.425 . S
C513 C510 1.409 . S
C513 C511 1.415 . S
C514 H504 0.930 . S
C514 C512 1.419 . S
C514 C515 1.362 . S
C515 H505 0.930 . S
C515 C508 1.409 . S
C515 C514 1.362 . S
H516 C522 0.930 . S
H517 C525 0.930 . S
H518 C526 0.930 . S
H519 C527 0.930 . S
H520 C530 0.930 . S
H521 C531 0.930 . S
C522 H516 0.930 . S
C522 C523 1.355 . S
C522 C524 1.415 . S
C523 C522 1.355 . S
C523 C525 1.419 . S
C524 C522 1.415 . S
C524 C529 1.425 . S
C524 C531 1.409 . S
C525 H517 0.930 . S
C525 C523 1.419 . S
C525 C526 1.362 . S
C526 H518 0.930 . S
C526 C525 1.362 . S
C526 C529 1.409 . S
C527 H519 0.930 . S
C527 C528 1.355 . S
C527 C529 1.415 . S
C528 C527 1.355 . S
C528 C530 1.419 . S
C529 C524 1.425 . S
C529 C526 1.409 . S
C529 C527 1.415 . S
C530 H520 0.930 . S
C530 C528 1.419 . S
C530 C531 1.362 . S
C531 H521 0.930 . S
C531 C524 1.409 . S
C531 C530 1.362 . S
H532 C538 0.930 . S
H533 C541 0.930 . S
H534 C542 0.930 . S
H535 C543 0.930 . S
H536 C546 0.930 . S
H537 C547 0.930 . S
C538 H532 0.930 . S
C538 C539 1.355 . S
C538 C540 1.415 . S
C539 C538 1.355 . S
C539 C541 1.419 . S
C540 C538 1.415 . S
C540 C545 1.425 . S
C540 C547 1.409 . S
C541 H533 0.930 . S
C541 C539 1.419 . S
C541 C542 1.362 . S
C542 H534 0.930 . S
C542 C541 1.362 . S
C542 C545 1.409 . S
C543 H535 0.930 . S
C543 C544 1.355 . S
C543 C545 1.415 . S
C544 C543 1.355 . S
C544 C546 1.419 . S
C545 C540 1.425 . S
C545 C542 1.409 . S
C545 C543 1.415 . S
C546 H536 0.930 . S
C546 C544 1.419 . S
C546 C547 1.362 . S
C547 H537 0.930 . S
C547 C540 1.409 . S
C547 C546 1.362 . S
H548 C554 0.930 . S
H549 C557 0.930 . S
H550 C558 0.930 . S
H551 C559 0.930 . S
H552 C562 0.930 . S
H553 C563 0.930 . S
C554 H548 0.930 . S
C554 C555 1.355 1_655 S
C554 C556 1.415 . S
C555 C554 1.355 1_455 S
C555 C557 1.419 . S
C556 C554 1.415 . S
C556 C561 1.425 1_655 S
C556 C563 1.409 . S
C557 H549 0.930 . S
C557 C555 1.419 . S
C557 C558 1.362 . S
C558 H550 0.930 . S
C558 C557 1.362 . S
C558 C561 1.409 . S
C559 H551 0.930 . S
C559 C560 1.342 1_455 S
C559 C561 1.415 . S
C560 C559 1.342 1_655 S
C560 C562 1.436 . S
C561 C556 1.425 1_455 S
C561 C558 1.409 . S
C561 C559 1.415 . S
C562 H552 0.930 . S
C562 C560 1.436 . S
C562 C563 1.362 . S
C563 H553 0.930 . S
C563 C556 1.409 . S
C563 C562 1.362 . S
C283 C2 1.361 . S
C288 C265 1.419 . S
C299 C22 1.385 . S
C304 C193 1.475 . S
C315 C44 1.447 . S
C320 C229 1.450 . S
C331 C4 1.596 . S
C336 C241 1.675 . S
C352 C169 1.703 . S
C347 C24 1.611 . S
C368 C205 1.601 . S
C363 C42 1.503 . S
C379 C32 1.363 . S
C384 C121 1.384 . S
C395 C49 1.323 . S
C400 C133 1.347 . S
C411 C9 1.323 . S
C416 C61 1.332 . S
C432 C97 1.318 . S
C427 C29 1.226 . S
C448 C157 1.280 . S
C443 C52 1.264 . S
C459 C12 1.293 . S
C464 C85 1.262 . S
C480 C163 1.436 1_554 S
C475 C18 1.443 1_455 S
C491 C38 1.401 . S
C496 C91 1.428 . S
C507 C58 1.393 . S
C512 C127 1.434 . S
C528 C235 1.486 . S
C523 C39 1.496 . S
C544 C271 1.493 1_556 S
C539 C59 1.451 . S
C555 C19 1.455 . S
C560 C199 1.492 1_655 S
