# Generated by pormake.
# Topology eea, (3,6)-cn, num edge types: 1
# Building blocks:
#     Node 0, Type 0, BuildingBlock: PAMTOO_clean_linker_0, # of connection points: 3
#     Node 1, Type 0, BuildingBlock: PAMTOO_clean_linker_0, # of connection points: 3
#     Node 2, Type 0, BuildingBlock: PAMTOO_clean_linker_0, # of connection points: 3
#     Node 3, Type 0, BuildingBlock: PAMTOO_clean_linker_0, # of connection points: 3
#     Node 4, Type 0, BuildingBlock: PAMTOO_clean_linker_0, # of connection points: 3
#     Node 5, Type 0, BuildingBlock: PAMTOO_clean_linker_0, # of connection points: 3
#     Node 6, Type 0, BuildingBlock: PAMTOO_clean_linker_0, # of connection points: 3
#     Node 7, Type 0, BuildingBlock: PAMTOO_clean_linker_0, # of connection points: 3
#     Node 8, Type 0, BuildingBlock: PAMTOO_clean_linker_0, # of connection points: 3
#     Node 9, Type 0, BuildingBlock: PAMTOO_clean_linker_0, # of connection points: 3
#     Node 10, Type 0, BuildingBlock: PAMTOO_clean_linker_0, # of connection points: 3
#     Node 11, Type 0, BuildingBlock: PAMTOO_clean_linker_0, # of connection points: 3
#     Node 12, Type 0, BuildingBlock: PAMTOO_clean_linker_0, # of connection points: 3
#     Node 13, Type 0, BuildingBlock: PAMTOO_clean_linker_0, # of connection points: 3
#     Node 14, Type 0, BuildingBlock: PAMTOO_clean_linker_0, # of connection points: 3
#     Node 15, Type 0, BuildingBlock: PAMTOO_clean_linker_0, # of connection points: 3
#     Node 16, Type 0, BuildingBlock: PAMTOO_clean_linker_0, # of connection points: 3
#     Node 17, Type 0, BuildingBlock: PAMTOO_clean_linker_0, # of connection points: 3
#     Node 18, Type 1, BuildingBlock: CUKXOW_clean_sbu_0, # of connection points: 6
#     Node 19, Type 1, BuildingBlock: CUKXOW_clean_sbu_0, # of connection points: 6
#     Node 20, Type 1, BuildingBlock: CUKXOW_clean_sbu_0, # of connection points: 6
#     Node 21, Type 1, BuildingBlock: CUKXOW_clean_sbu_0, # of connection points: 6
#     Node 22, Type 1, BuildingBlock: CUKXOW_clean_sbu_0, # of connection points: 6
#     Node 23, Type 1, BuildingBlock: CUKXOW_clean_sbu_0, # of connection points: 6
#     Node 24, Type 1, BuildingBlock: CUKXOW_clean_sbu_0, # of connection points: 6
#     Node 25, Type 1, BuildingBlock: CUKXOW_clean_sbu_0, # of connection points: 6
#     Node 26, Type 1, BuildingBlock: CUKXOW_clean_sbu_0, # of connection points: 6
#     Edge 27, Type (0, 1), BuildingBlock: UVAHIK_clean_linker_0, # of connection points: 2
#     Edge 28, Type (0, 1), BuildingBlock: UVAHIK_clean_linker_0, # of connection points: 2
#     Edge 29, Type (0, 1), BuildingBlock: UVAHIK_clean_linker_0, # of connection points: 2
#     Edge 30, Type (0, 1), BuildingBlock: UVAHIK_clean_linker_0, # of connection points: 2
#     Edge 31, Type (0, 1), BuildingBlock: UVAHIK_clean_linker_0, # of connection points: 2
#     Edge 32, Type (0, 1), BuildingBlock: UVAHIK_clean_linker_0, # of connection points: 2
#     Edge 33, Type (0, 1), BuildingBlock: UVAHIK_clean_linker_0, # of connection points: 2
#     Edge 34, Type (0, 1), BuildingBlock: UVAHIK_clean_linker_0, # of connection points: 2
#     Edge 35, Type (0, 1), BuildingBlock: UVAHIK_clean_linker_0, # of connection points: 2
#     Edge 36, Type (0, 1), BuildingBlock: UVAHIK_clean_linker_0, # of connection points: 2
#     Edge 37, Type (0, 1), BuildingBlock: UVAHIK_clean_linker_0, # of connection points: 2
#     Edge 38, Type (0, 1), BuildingBlock: UVAHIK_clean_linker_0, # of connection points: 2
#     Edge 39, Type (0, 1), BuildingBlock: UVAHIK_clean_linker_0, # of connection points: 2
#     Edge 40, Type (0, 1), BuildingBlock: UVAHIK_clean_linker_0, # of connection points: 2
#     Edge 41, Type (0, 1), BuildingBlock: UVAHIK_clean_linker_0, # of connection points: 2
#     Edge 42, Type (0, 1), BuildingBlock: UVAHIK_clean_linker_0, # of connection points: 2
#     Edge 43, Type (0, 1), BuildingBlock: UVAHIK_clean_linker_0, # of connection points: 2
#     Edge 44, Type (0, 1), BuildingBlock: UVAHIK_clean_linker_0, # of connection points: 2
#     Edge 45, Type (0, 1), BuildingBlock: UVAHIK_clean_linker_0, # of connection points: 2
#     Edge 46, Type (0, 1), BuildingBlock: UVAHIK_clean_linker_0, # of connection points: 2
#     Edge 47, Type (0, 1), BuildingBlock: UVAHIK_clean_linker_0, # of connection points: 2
#     Edge 48, Type (0, 1), BuildingBlock: UVAHIK_clean_linker_0, # of connection points: 2
#     Edge 49, Type (0, 1), BuildingBlock: UVAHIK_clean_linker_0, # of connection points: 2
#     Edge 50, Type (0, 1), BuildingBlock: UVAHIK_clean_linker_0, # of connection points: 2
#     Edge 51, Type (0, 1), BuildingBlock: UVAHIK_clean_linker_0, # of connection points: 2
#     Edge 52, Type (0, 1), BuildingBlock: UVAHIK_clean_linker_0, # of connection points: 2
#     Edge 53, Type (0, 1), BuildingBlock: UVAHIK_clean_linker_0, # of connection points: 2
#     Edge 54, Type (0, 1), BuildingBlock: UVAHIK_clean_linker_0, # of connection points: 2
#     Edge 55, Type (0, 1), BuildingBlock: UVAHIK_clean_linker_0, # of connection points: 2
#     Edge 56, Type (0, 1), BuildingBlock: UVAHIK_clean_linker_0, # of connection points: 2
#     Edge 57, Type (0, 1), BuildingBlock: UVAHIK_clean_linker_0, # of connection points: 2
#     Edge 58, Type (0, 1), BuildingBlock: UVAHIK_clean_linker_0, # of connection points: 2
#     Edge 59, Type (0, 1), BuildingBlock: UVAHIK_clean_linker_0, # of connection points: 2
#     Edge 60, Type (0, 1), BuildingBlock: UVAHIK_clean_linker_0, # of connection points: 2
#     Edge 61, Type (0, 1), BuildingBlock: UVAHIK_clean_linker_0, # of connection points: 2
#     Edge 62, Type (0, 1), BuildingBlock: UVAHIK_clean_linker_0, # of connection points: 2
#     Edge 63, Type (0, 1), BuildingBlock: UVAHIK_clean_linker_0, # of connection points: 2
#     Edge 64, Type (0, 1), BuildingBlock: UVAHIK_clean_linker_0, # of connection points: 2
#     Edge 65, Type (0, 1), BuildingBlock: UVAHIK_clean_linker_0, # of connection points: 2
#     Edge 66, Type (0, 1), BuildingBlock: UVAHIK_clean_linker_0, # of connection points: 2
#     Edge 67, Type (0, 1), BuildingBlock: UVAHIK_clean_linker_0, # of connection points: 2
#     Edge 68, Type (0, 1), BuildingBlock: UVAHIK_clean_linker_0, # of connection points: 2
#     Edge 69, Type (0, 1), BuildingBlock: UVAHIK_clean_linker_0, # of connection points: 2
#     Edge 70, Type (0, 1), BuildingBlock: UVAHIK_clean_linker_0, # of connection points: 2
#     Edge 71, Type (0, 1), BuildingBlock: UVAHIK_clean_linker_0, # of connection points: 2
#     Edge 72, Type (0, 1), BuildingBlock: UVAHIK_clean_linker_0, # of connection points: 2
#     Edge 73, Type (0, 1), BuildingBlock: UVAHIK_clean_linker_0, # of connection points: 2
#     Edge 74, Type (0, 1), BuildingBlock: UVAHIK_clean_linker_0, # of connection points: 2
#     Edge 75, Type (0, 1), BuildingBlock: UVAHIK_clean_linker_0, # of connection points: 2
#     Edge 76, Type (0, 1), BuildingBlock: UVAHIK_clean_linker_0, # of connection points: 2
#     Edge 77, Type (0, 1), BuildingBlock: UVAHIK_clean_linker_0, # of connection points: 2
#     Edge 78, Type (0, 1), BuildingBlock: UVAHIK_clean_linker_0, # of connection points: 2
#     Edge 79, Type (0, 1), BuildingBlock: UVAHIK_clean_linker_0, # of connection points: 2
#     Edge 80, Type (0, 1), BuildingBlock: UVAHIK_clean_linker_0, # of connection points: 2
# Relax obj value: 0.032
# Max RMSD: 0.154
# Mean RMSD: 0.094
data_MOF--net-eea--node1-CUKXOW_clean_sbu_0--node2-PAMTOO_clean_linker_0--edge1-UVAHIK_clean_linker_0
_symmetry_space_group_name_H-M    P1
_symmetry_Int_Tables_number       1
_symmetry_cell_setting            triclinic
loop_
_symmetry_equiv_pos_as_xyz
'x, y, z'
_cell_length_a     76.779619
_cell_length_b     73.333129
_cell_length_c     65.778116
_cell_angle_alpha  93.107705
_cell_angle_beta   93.169073
_cell_angle_gamma 119.91166
loop_
_atom_site_label
_atom_site_type_symbol
_atom_site_fract_x
_atom_site_fract_y
_atom_site_fract_z
_atom_type_partial_charge
H0 H 0.24713 0.09148 0.43372 0.0
H1 H 0.24176 0.14723 0.43461 0.0
H2 H 0.21541 0.10078 0.38288 0.0
H3 H 0.23045 0.14183 0.3695 0.0
C4 C 0.23274 0.151 0.38441 0.0
O5 O 0.22178 0.13735 0.39842 0.0
H6 H 0.24912 0.15944 0.38981 0.0
C7 C 0.24207 0.10108 0.42626 0.0
C8 C 0.2309 0.09374 0.407 0.0
C9 C 0.24584 0.12021 0.43647 0.0
C10 C 0.23883 0.13235 0.42702 0.0
C11 C 0.2281 0.12539 0.40764 0.0
C12 C 0.22388 0.10602 0.39782 0.0
H13 H 0.91517 0.17138 0.44333 0.0
H14 H 0.85837 0.11281 0.4341 0.0
H15 H 0.90363 0.12582 0.39274 0.0
H16 H 0.86374 0.10133 0.37104 0.0
C17 C 0.85473 0.09596 0.38438 0.0
O18 O 0.86729 0.09844 0.40144 0.0
H19 H 0.84754 0.10574 0.38699 0.0
C20 C 0.90514 0.15635 0.43454 0.0
C21 C 0.91158 0.15037 0.41715 0.0
C22 C 0.88603 0.14285 0.44092 0.0
C23 C 0.87311 0.1235 0.42934 0.0
C24 C 0.8795 0.11742 0.41203 0.0
C25 C 0.89878 0.13071 0.4061 0.0
H26 H 0.84789 0.75448 0.45278 0.0
H27 H 0.89889 0.74633 0.44498 0.0
H28 H 0.88268 0.77793 0.4013 0.0
H29 H 0.89761 0.75272 0.38225 0.0
C30 C 0.9071 0.75236 0.39545 0.0
O31 O 0.90824 0.76572 0.41168 0.0
H32 H 0.9001 0.73588 0.39984 0.0
C33 C 0.86036 0.75686 0.44413 0.0
C34 C 0.86343 0.76698 0.42602 0.0
C35 C 0.87304 0.74939 0.45106 0.0
C36 C 0.88881 0.75179 0.43966 0.0
C37 C 0.89217 0.76207 0.42177 0.0
C38 C 0.87959 0.76966 0.41499 0.0
H39 H 0.07644 0.23564 0.5572 0.0
H40 H 0.13524 0.24176 0.56627 0.0
H41 H 0.09588 0.22132 0.61387 0.0
H42 H 0.13933 0.2474 0.62916 0.0
C43 C 0.14565 0.24467 0.61527 0.0
O44 O 0.13043 0.22838 0.60239 0.0
H45 H 0.15268 0.25956 0.6076 0.0
C46 C 0.08787 0.23474 0.5668 0.0
C47 C 0.08382 0.22814 0.58656 0.0
C48 C 0.10641 0.23989 0.55921 0.0
C49 C 0.12071 0.23768 0.57149 0.0
C50 C 0.11669 0.23077 0.59096 0.0
C51 C 0.09843 0.22614 0.59852 0.0
H52 H 0.76057 0.83964 0.58261 0.0
H53 H 0.76604 0.90111 0.59059 0.0
H54 H 0.78861 0.87957 0.63887 0.0
H55 H 0.77526 0.90801 0.65596 0.0
C56 C 0.77299 0.91353 0.64117 0.0
O57 O 0.78443 0.91069 0.62724 0.0
H58 H 0.75665 0.90405 0.6356 0.0
C59 C 0.76531 0.85427 0.59189 0.0
C60 C 0.77453 0.85731 0.61186 0.0
C61 C 0.76227 0.86998 0.58379 0.0
C62 C 0.76848 0.88885 0.59615 0.0
C63 C 0.77789 0.89216 0.61588 0.0
C64 C 0.78099 0.87653 0.62366 0.0
H65 H 0.16149 0.91401 0.58085 0.0
H66 H 0.10192 0.85879 0.57363 0.0
H67 H 0.12305 0.89886 0.62984 0.0
H68 H 0.10176 0.85205 0.63379 0.0
C69 C 0.09077 0.84669 0.61996 0.0
O70 O 0.09338 0.86411 0.61047 0.0
H71 H 0.09358 0.83628 0.60936 0.0
C72 C 0.14727 0.90371 0.5868 0.0
C73 C 0.14406 0.90878 0.60664 0.0
C74 C 0.13219 0.88579 0.57453 0.0
C75 C 0.11393 0.87258 0.58271 0.0
C76 C 0.11085 0.87714 0.6027 0.0
C77 C 0.12575 0.89532 0.61452 0.0
H78 H 0.91762 0.42728 0.76382 0.0
H79 H 0.9135 0.48375 0.76449 0.0
H80 H 0.887 0.43745 0.71261 0.0
H81 H 0.90368 0.47939 0.69965 0.0
C82 C 0.90539 0.48828 0.71456 0.0
O83 O 0.89393 0.47432 0.72813 0.0
H84 H 0.92163 0.49674 0.72055 0.0
C85 C 0.91292 0.43712 0.75628 0.0
C86 C 0.90191 0.42998 0.73693 0.0
C87 C 0.91695 0.45636 0.76647 0.0
C88 C 0.91038 0.4688 0.7569 0.0
C89 C 0.89986 0.46207 0.73741 0.0
C90 C 0.89536 0.44258 0.7276 0.0
H91 H 0.57568 0.50128 0.77242 0.0
H92 H 0.51932 0.44249 0.76494 0.0
H93 H 0.56089 0.45709 0.71933 0.0
H94 H 0.51953 0.42959 0.70105 0.0
C95 C 0.51222 0.4245 0.71541 0.0
O96 O 0.52672 0.42845 0.73108 0.0
H97 H 0.50455 0.43362 0.71904 0.0
C98 C 0.56533 0.48657 0.76336 0.0
C99 C 0.57068 0.48131 0.74471 0.0
C100 C 0.54676 0.47283 0.77064 0.0
C101 C 0.53349 0.45349 0.75929 0.0
C102 C 0.53883 0.44781 0.74102 0.0
C103 C 0.55723 0.4617 0.73368 0.0
H104 H 0.50962 0.07387 0.77692 0.0
H105 H 0.56583 0.07533 0.77177 0.0
H106 H 0.54156 0.09523 0.72325 0.0
H107 H 0.56302 0.07226 0.70881 0.0
C108 C 0.57248 0.07524 0.72339 0.0
O109 O 0.57151 0.09026 0.73606 0.0
H110 H 0.56663 0.06014 0.73063 0.0
C111 C 0.52209 0.0768 0.76804 0.0
C112 C 0.52351 0.08511 0.74901 0.0
C113 C 0.53718 0.0731 0.77628 0.0
C114 C 0.55397 0.07794 0.76551 0.0
C115 C 0.55533 0.08571 0.74636 0.0
C116 C 0.54018 0.08923 0.73812 0.0
H117 H 0.75284 0.58422 0.90529 0.0
H118 H 0.81073 0.58856 0.91408 0.0
H119 H 0.7697 0.56485 0.96026 0.0
H120 H 0.81344 0.58895 0.97733 0.0
C121 C 0.81983 0.58743 0.96298 0.0
O122 O 0.80458 0.5724 0.94916 0.0
H123 H 0.82719 0.60313 0.95673 0.0
C124 C 0.76364 0.58213 0.9147 0.0
C125 C 0.75879 0.57398 0.93377 0.0
C126 C 0.78241 0.58772 0.90761 0.0
C127 C 0.7963 0.58466 0.91949 0.0
C128 C 0.79152 0.57621 0.93829 0.0
C129 C 0.77294 0.57103 0.94549 0.0
H130 H 0.42614 0.17311 0.9182 0.0
H131 H 0.42696 0.23245 0.92503 0.0
H132 H 0.45258 0.21439 0.97381 0.0
H133 H 0.43687 0.24077 0.9899 0.0
C134 C 0.43478 0.2466 0.97524 0.0
O135 O 0.44634 0.24401 0.96128 0.0
H136 H 0.4185 0.23728 0.96943 0.0
C137 C 0.42958 0.18747 0.9273 0.0
C138 C 0.43935 0.19163 0.94714 0.0
C139 C 0.42513 0.20211 0.91888 0.0
C140 C 0.43044 0.22098 0.93084 0.0
C141 C 0.44041 0.22536 0.95046 0.0
C142 C 0.44491 0.21079 0.95855 0.0
H143 H 0.83398 0.24647 0.9181 0.0
H144 H 0.77566 0.19013 0.91528 0.0
H145 H 0.79732 0.23471 0.9685 0.0
H146 H 0.77639 0.19056 0.97835 0.0
C147 C 0.76669 0.18296 0.96374 0.0
O148 O 0.76785 0.19832 0.95175 0.0
H149 H 0.77227 0.17333 0.95582 0.0
C150 C 0.82037 0.23643 0.92521 0.0
C151 C 0.81759 0.24298 0.94463 0.0
C152 C 0.80525 0.21752 0.91441 0.0
C153 C 0.7874 0.20485 0.92336 0.0
C154 C 0.78478 0.21093 0.94296 0.0
C155 C 0.79967 0.23007 0.95344 0.0
H156 H 0.57534 0.75798 0.10205 0.0
H157 H 0.57365 0.81576 0.09971 0.0
H158 H 0.55294 0.77101 0.04668 0.0
H159 H 0.57175 0.81399 0.03482 0.0
C160 C 0.57166 0.82225 0.04945 0.0
O161 O 0.55859 0.80762 0.06161 0.0
H162 H 0.58724 0.83069 0.05734 0.0
C163 C 0.57171 0.76828 0.09387 0.0
C164 C 0.56351 0.76208 0.0734 0.0
C165 C 0.57547 0.78758 0.10372 0.0
C166 C 0.57126 0.80096 0.09249 0.0
C167 C 0.56334 0.79503 0.07195 0.0
C168 C 0.55948 0.77564 0.06243 0.0
H169 H 0.25114 0.83026 0.11133 0.0
H170 H 0.19586 0.77025 0.09994 0.0
H171 H 0.23961 0.78954 0.05645 0.0
H172 H 0.19903 0.76354 0.03556 0.0
C173 C 0.19103 0.75784 0.04946 0.0
O174 O 0.20464 0.7598 0.06524 0.0
H175 H 0.18417 0.76765 0.05361 0.0
C176 C 0.24144 0.81573 0.10174 0.0
C177 C 0.24761 0.81214 0.08289 0.0
C178 C 0.22289 0.80068 0.10834 0.0
C179 C 0.21041 0.78197 0.09558 0.0
C180 C 0.2165 0.77814 0.07698 0.0
C181 C 0.23505 0.79304 0.07075 0.0
H182 H 0.18177 0.41594 0.11591 0.0
H183 H 0.23167 0.40588 0.10714 0.0
H184 H 0.21791 0.441 0.06576 0.0
H185 H 0.23084 0.41347 0.04573 0.0
C186 C 0.24026 0.41289 0.05888 0.0
O187 O 0.24212 0.42677 0.07498 0.0
H188 H 0.2327 0.39643 0.06339 0.0
C189 C 0.19421 0.41806 0.10738 0.0
C190 C 0.19812 0.42932 0.08996 0.0
C191 C 0.20617 0.4095 0.11386 0.0
C192 C 0.22231 0.41245 0.10266 0.0
C193 C 0.22635 0.42369 0.08536 0.0
C194 C 0.21436 0.43212 0.07905 0.0
H195 H 0.41322 0.9153 0.23096 0.0
H196 H 0.47201 0.92165 0.23946 0.0
H197 H 0.42733 0.88622 0.2796 0.0
H198 H 0.46754 0.9091 0.30103 0.0
C199 C 0.47662 0.91148 0.28778 0.0
O200 O 0.46414 0.89922 0.27072 0.0
H201 H 0.48419 0.92851 0.28506 0.0
C202 C 0.42363 0.91175 0.23919 0.0
C203 C 0.41774 0.89985 0.25615 0.0
C204 C 0.44316 0.91971 0.2331 0.0
C205 C 0.45693 0.91579 0.2441 0.0
C206 C 0.45112 0.90373 0.26079 0.0
C207 C 0.43162 0.89574 0.26677 0.0
H208 H 0.09886 0.50856 0.24826 0.0
H209 H 0.0964 0.56606 0.25623 0.0
H210 H 0.11994 0.54684 0.30588 0.0
H211 H 0.10211 0.57173 0.32117 0.0
C212 C 0.10097 0.57821 0.30659 0.0
O213 O 0.11357 0.57645 0.29347 0.0
H214 H 0.08504 0.56904 0.29965 0.0
C215 C 0.10126 0.52233 0.25771 0.0
C216 C 0.10945 0.52566 0.27812 0.0
C217 C 0.09632 0.5367 0.24947 0.0
C218 C 0.10006 0.5547 0.26201 0.0
C219 C 0.10864 0.55832 0.28218 0.0
C220 C 0.11314 0.54376 0.29027 0.0
H221 H 0.49984 0.58582 0.24846 0.0
H222 H 0.4432 0.52726 0.24674 0.0
H223 H 0.46239 0.57365 0.298 0.0
H224 H 0.43967 0.53121 0.31013 0.0
C225 C 0.43167 0.52259 0.29507 0.0
O226 O 0.43356 0.5369 0.28134 0.0
H227 H 0.43854 0.51324 0.28944 0.0
C228 C 0.48643 0.57522 0.25551 0.0
C229 C 0.4832 0.58184 0.27468 0.0
C230 C 0.47209 0.55561 0.24503 0.0
C231 C 0.45443 0.54256 0.25423 0.0
C232 C 0.451 0.54916 0.27319 0.0
C233 C 0.46526 0.56876 0.28332 0.0
Tb234 Tb 0.52172 0.02275 0.01138 0.0
C235 C 0.50935 0.97403 0.00981 0.0
Tb236 Tb 0.47693 0.98848 0.00826 0.0
O237 O 0.52135 0.03127 0.04376 0.0
O238 O 0.50196 0.00076 0.03037 0.0
O239 O 0.5235 0.9938 0.00759 0.0
C240 C 0.43932 0.96393 0.01796 0.0
O241 O 0.49043 0.96872 0.01267 0.0
C242 C 0.49277 0.99788 0.97341 0.0
C243 C 0.48937 0.03716 0.00881 0.0
O244 O 0.44558 0.96317 0.00016 0.0
O245 O 0.45415 0.9786 0.03013 0.0
O246 O 0.47736 0.9796 0.97601 0.0
O247 O 0.49677 0.01027 0.98917 0.0
O248 O 0.47516 0.01754 0.01149 0.0
O249 O 0.50816 0.04216 0.00576 0.0
C250 C 0.55993 0.04762 0.00362 0.0
O251 O 0.55205 0.04973 0.01989 0.0
O252 O 0.54632 0.03145 0.99173 0.0
C253 C 0.50602 0.01297 0.04626 0.0
Tb254 Tb 0.98901 0.50487 0.00748 0.0
C255 C 0.03467 0.53907 0.01005 0.0
Tb256 Tb 0.0195 0.48976 0.01078 0.0
O257 O -0.00025 0.52104 0.03831 0.0
O258 O 0.00047 0.49343 0.03044 0.0
O259 O 0.01602 0.53467 0.00439 0.0
C260 C 0.04904 0.48267 0.0234 0.0
O261 O 0.03908 0.52427 0.01456 0.0
C262 C 0.00309 0.48634 0.9739 0.0
C263 C 0.97386 0.45565 0.00719 0.0
O264 O 0.04422 0.48409 0.00458 0.0
O265 O 0.03719 0.48517 0.03511 0.0
O266 O 0.00926 0.47375 0.97991 0.0
O267 O 0.00799 0.50108 0.98773 0.0
O268 O 0.9923 0.46001 0.01385 0.0
O269 O 0.96975 0.47046 0.00191 0.0
C270 C 0.95952 0.51283 0.99727 0.0
O271 O 0.96221 0.50632 0.01447 0.0
O272 O 0.97338 0.51474 0.98568 0.0
C273 C 0.00554 0.50816 0.04428 0.0
Tb274 Tb 0.48355 0.50289 0.00632 0.0
C275 C 0.49607 0.4677 0.00562 0.0
Tb276 Tb 0.52847 0.5165 0.00626 0.0
O277 O 0.48353 0.51332 0.97547 0.0
O278 O 0.50297 0.50292 0.98479 0.0
O279 O 0.48185 0.47254 0.00884 0.0
C280 C 0.56448 0.52457 0.99599 0.0
O281 O 0.51496 0.48213 0.00292 0.0
C282 C 0.51733 0.52113 0.04219 0.0
C283 C 0.51552 0.5509 0.0088 0.0
O284 O 0.55534 0.51349 0.01077 0.0
O285 O 0.55337 0.53111 0.98707 0.0
O286 O 0.53566 0.53215 0.03725 0.0
O287 O 0.5069 0.50676 0.02804 0.0
O288 O 0.52836 0.54577 0.00124 0.0
O289 O 0.49798 0.53658 0.01463 0.0
C290 C 0.4454 0.48813 0.01431 0.0
O291 O 0.46114 0.50301 0.02541 0.0
O292 O 0.45114 0.4816 0.9987 0.0
C293 C 0.49858 0.5111 0.97064 0.0
Tb294 Tb 0.18818 0.35311 0.34089 0.0
C295 C 0.17433 0.30561 0.34523 0.0
Tb296 Tb 0.14323 0.32283 0.34481 0.0
O297 O 0.19531 0.34903 0.37229 0.0
O298 O 0.16786 0.34708 0.36366 0.0
O299 O 0.1886 0.32372 0.33932 0.0
C300 C 0.10782 0.29638 0.35831 0.0
O301 O 0.15614 0.30227 0.34902 0.0
C302 C 0.1528 0.32866 0.30715 0.0
C303 C 0.15758 0.36991 0.33949 0.0
O304 O 0.12515 0.29905 0.36526 0.0
O305 O 0.11043 0.30852 0.3438 0.0
O306 O 0.1348 0.32253 0.31236 0.0
O307 O 0.16343 0.32837 0.3222 0.0
O308 O 0.14516 0.35352 0.34915 0.0
O309 O 0.17406 0.37143 0.33245 0.0
C310 C 0.2247 0.38153 0.33123 0.0
O311 O 0.21723 0.3822 0.34827 0.0
O312 O 0.21157 0.36489 0.31954 0.0
C313 C 0.17789 0.34477 0.37804 0.0
Tb314 Tb 0.6547 0.84255 0.34259 0.0
C315 C 0.7003 0.87646 0.34439 0.0
Tb316 Tb 0.68491 0.82712 0.34545 0.0
O317 O 0.66594 0.85871 0.37337 0.0
O318 O 0.66603 0.83076 0.36533 0.0
O319 O 0.68167 0.87206 0.33862 0.0
C320 C 0.71432 0.81981 0.35791 0.0
O321 O 0.70463 0.86166 0.34916 0.0
C322 C 0.66829 0.8239 0.30876 0.0
C323 C 0.63915 0.79319 0.34267 0.0
O324 O 0.70934 0.82103 0.33907 0.0
O325 O 0.70273 0.82265 0.36971 0.0
O326 O 0.67428 0.81111 0.31462 0.0
O327 O 0.67345 0.83868 0.32262 0.0
O328 O 0.6577 0.79735 0.34857 0.0
O329 O 0.63499 0.80814 0.3381 0.0
C330 C 0.62515 0.85036 0.33231 0.0
O331 O 0.63028 0.8479 0.35061 0.0
O332 O 0.63664 0.84838 0.31968 0.0
C333 C 0.67138 0.84553 0.37923 0.0
Tb334 Tb 0.14747 0.83307 0.33932 0.0
C335 C 0.15962 0.79838 0.33836 0.0
Tb336 Tb 0.19209 0.84746 0.33715 0.0
O337 O 0.14065 0.81697 0.30849 0.0
O338 O 0.16833 0.84448 0.31702 0.0
O339 O 0.14592 0.80326 0.34367 0.0
C340 C 0.22676 0.85347 0.32445 0.0
O341 O 0.17785 0.81281 0.3338 0.0
C342 C 0.18172 0.85098 0.37357 0.0
C343 C 0.17991 0.88222 0.33968 0.0
O344 O 0.21152 0.8512 0.31278 0.0
O345 O 0.22257 0.85247 0.34334 0.0
O346 O 0.19962 0.86333 0.36804 0.0
O347 O 0.17137 0.83636 0.3596 0.0
O348 O 0.19382 0.87768 0.33421 0.0
O349 O 0.1616 0.86754 0.34376 0.0
C350 C 0.11146 0.82571 0.34911 0.0
O351 O 0.11728 0.82778 0.33083 0.0
O352 O 0.12596 0.82792 0.36197 0.0
C353 C 0.15833 0.82992 0.30296 0.0
Tb354 Tb 0.85034 0.68645 0.68091 0.0
C355 C 0.83975 0.63842 0.68056 0.0
Tb356 Tb 0.80588 0.65077 0.67689 0.0
O357 O 0.84953 0.69435 0.71339 0.0
O358 O 0.83049 0.66403 0.69956 0.0
O359 O 0.85339 0.65822 0.67775 0.0
C360 C 0.7679 0.62502 0.68488 0.0
O361 O 0.82077 0.63271 0.68358 0.0
C362 C 0.82249 0.66135 0.64247 0.0
C363 C 0.81662 0.699 0.67746 0.0
O364 O 0.77681 0.6214 0.67028 0.0
O365 O 0.78034 0.64315 0.69489 0.0
O366 O 0.80716 0.64284 0.64445 0.0
O367 O 0.82567 0.67317 0.65839 0.0
O368 O 0.80276 0.67907 0.67959 0.0
O369 O 0.83576 0.70488 0.67517 0.0
C370 C 0.88804 0.712 0.67205 0.0
O371 O 0.88027 0.71455 0.68824 0.0
O372 O 0.87463 0.69504 0.66093 0.0
C373 C 0.83406 0.67597 0.71552 0.0
Tb374 Tb 0.31685 0.16819 0.67686 0.0
C375 C 0.36239 0.20253 0.68247 0.0
Tb376 Tb 0.34751 0.15326 0.68098 0.0
O377 O 0.32625 0.18361 0.70805 0.0
O378 O 0.32785 0.15654 0.70008 0.0
O379 O 0.34415 0.19802 0.67493 0.0
C380 C 0.37648 0.1451 0.69295 0.0
O381 O 0.36643 0.18771 0.68793 0.0
C382 C 0.33229 0.1506 0.64368 0.0
C383 C 0.30166 0.11891 0.67536 0.0
O384 O 0.37621 0.15461 0.67696 0.0
O385 O 0.36048 0.14028 0.70228 0.0
O386 O 0.33865 0.13819 0.64968 0.0
O387 O 0.33655 0.1649 0.65777 0.0
O388 O 0.32005 0.12306 0.68195 0.0
O389 O 0.29757 0.1339 0.67077 0.0
C390 C 0.28804 0.1766 0.66495 0.0
O391 O 0.29002 0.17019 0.68246 0.0
O392 O 0.30223 0.17819 0.65405 0.0
C393 C 0.33222 0.17091 0.71412 0.0
Tb394 Tb 0.81728 0.16814 0.67484 0.0
C395 C 0.83078 0.13361 0.6739 0.0
Tb396 Tb 0.86253 0.18275 0.67497 0.0
O397 O 0.81697 0.17816 0.6439 0.0
O398 O 0.83696 0.16846 0.65354 0.0
O399 O 0.81604 0.13788 0.67628 0.0
C400 C 0.89858 0.19148 0.66427 0.0
O401 O 0.84977 0.14847 0.67213 0.0
C402 C 0.8508 0.18755 0.71044 0.0
C403 C 0.84848 0.21639 0.67583 0.0
O404 O 0.89004 0.18088 0.67954 0.0
O405 O 0.88688 0.19721 0.65519 0.0
O406 O 0.8691 0.19914 0.70562 0.0
O407 O 0.84088 0.17279 0.69654 0.0
O408 O 0.86185 0.2115 0.66932 0.0
O409 O 0.83087 0.20206 0.68158 0.0
C410 C 0.77931 0.15265 0.68371 0.0
O411 O 0.78481 0.14812 0.66674 0.0
O412 O 0.79521 0.16594 0.69573 0.0
C413 C 0.83226 0.17628 0.63924 0.0
C414 C 0.26864 0.83186 0.05505 0.0
C415 C 0.26709 0.82827 0.07586 0.0
C416 C 0.2869 0.8469 0.04839 0.0
C417 C 0.33443 0.89522 0.06561 0.0
H418 H 0.35518 0.8799 0.0193 0.0
C419 C 0.41547 0.94898 0.04465 0.0
C420 C 0.41904 0.94952 0.02394 0.0
C421 C 0.39655 0.93465 0.05058 0.0
C422 C 0.34948 0.88461 0.03203 0.0
H423 H 0.28382 0.83768 0.1059 0.0
H424 H 0.3155 0.86435 0.09428 0.0
H425 H 0.32282 0.85407 0.03032 0.0
H426 H 0.40569 0.93596 0.99312 0.0
H427 H 0.37237 0.91139 0.00332 0.0
H428 H 0.36078 0.92584 0.06718 0.0
C429 C 0.30248 0.85549 0.0832 0.0
C430 C 0.33097 0.86975 0.03839 0.0
C431 C 0.28429 0.84026 0.08984 0.0
C432 C 0.4033 0.93577 0.0092 0.0
C433 C 0.38427 0.92159 0.0151 0.0
C434 C 0.35282 0.91018 0.05911 0.0
C435 C 0.30397 0.8589 0.0624 0.0
C436 C 0.32335 0.87485 0.05534 0.0
C437 C 0.38069 0.9207 0.0359 0.0
C438 C 0.36069 0.90503 0.04233 0.0
H439 H 0.25566 0.82325 0.04389 0.0
H440 H 0.28759 0.84938 0.0323 0.0
H441 H 0.32876 0.89965 0.07857 0.0
H442 H 0.42743 0.95933 0.05634 0.0
H443 H 0.39454 0.93421 0.06674 0.0
C444 C 0.17885 0.43619 0.06221 0.0
C445 C 0.18495 0.43775 0.0831 0.0
C446 C 0.1654 0.44283 0.05589 0.0
C447 C 0.12506 0.45019 0.07432 0.0
H448 H 0.13219 0.48233 0.02749 0.0
C449 C 0.07059 0.47982 0.05136 0.0
C450 C 0.06536 0.47883 0.03039 0.0
C451 C 0.08602 0.47605 0.058 0.0
C452 C 0.12985 0.47314 0.04045 0.0
H453 H 0.18244 0.4485 0.11361 0.0
H454 H 0.15871 0.45974 0.10257 0.0
H455 H 0.15789 0.4737 0.03854 0.0
H456 H 0.07199 0.47317 -0.00011 0.0
H457 H 0.09857 0.46602 0.01141 0.0
H458 H 0.09686 0.44912 0.07602 0.0
C459 C 0.16416 0.45313 0.09114 0.0
C460 C 0.14461 0.46827 0.04681 0.0
C461 C 0.17771 0.44663 0.09745 0.0
C462 C 0.07581 0.47408 0.01616 0.0
C463 C 0.09113 0.47015 0.02278 0.0
C464 C 0.11024 0.4549 0.06788 0.0
C465 C 0.15768 0.45106 0.07033 0.0
C466 C 0.14234 0.45673 0.06379 0.0
C467 C 0.09641 0.47105 0.04379 0.0
C468 C 0.11242 0.46641 0.05085 0.0
H469 H 0.18396 0.4292 0.05077 0.0
H470 H 0.16052 0.44088 0.03975 0.0
H471 H 0.12276 0.44098 0.08727 0.0
H472 H 0.06282 0.48358 0.06264 0.0
H473 H 0.08989 0.47722 0.07429 0.0
C474 C 0.56571 0.73872 0.04542 0.0
C475 C 0.55858 0.74102 0.06405 0.0
C476 C 0.5623 0.71888 0.03772 0.0
C477 C 0.54905 0.6665 0.05536 0.0
H478 H 0.53699 0.64694 0.9976 0.0
C479 C 0.51142 0.57924 0.02651 0.0
C480 C 0.52137 0.57341 0.0125 0.0
C481 C 0.51743 0.60042 0.03129 0.0
C482 C 0.54058 0.65237 0.01374 0.0
H483 H 0.54137 0.7244 0.08861 0.0
H484 H 0.53481 0.68986 0.07499 0.0
H485 H 0.54418 0.68268 0.00879 0.0
H486 H 0.54511 0.58528 0.99206 0.0
H487 H 0.55536 0.62265 0.00017 0.0
H488 H 0.54462 0.63594 0.06035 0.0
C489 C 0.54371 0.70333 0.06663 0.0
C490 C 0.54473 0.6728 0.02017 0.0
C491 C 0.54732 0.7231 0.07439 0.0
C492 C 0.53719 0.5893 0.00295 0.0
C493 C 0.543 0.61061 0.0075 0.0
C494 C 0.54466 0.6461 0.04896 0.0
C495 C 0.55153 0.70099 0.04844 0.0
C496 C 0.54861 0.67996 0.04113 0.0
C497 C 0.53335 0.61631 0.02198 0.0
C498 C 0.54004 0.63871 0.02816 0.0
H499 H 0.57448 0.75235 0.0372 0.0
H500 H 0.5686 0.7177 0.02372 0.0
H501 H 0.5526 0.67164 0.07155 0.0
H502 H 0.49925 0.56747 0.03426 0.0
H503 H 0.50967 0.60442 0.04239 0.0
C504 C 0.82741 0.27795 0.96322 0.0
C505 C 0.83305 0.26371 0.95518 0.0
C506 C 0.8421 0.29823 0.97153 0.0
C507 C 0.89495 0.33079 0.99306 0.0
H508 H 0.89114 0.37697 0.9715 0.0
C509 C 0.96159 0.41684 0.00321 0.0
C510 C 0.95733 0.43337 0.00471 0.0
C511 C 0.94596 0.39586 0.99929 0.0
C512 C 0.8923 0.36435 0.97805 0.0
H513 H 0.85834 0.25913 0.9503 0.0
H514 H 0.88405 0.29456 0.96505 0.0
H515 H 0.86457 0.34074 0.96147 0.0
H516 H 0.93331 0.44083 0.00418 0.0
H517 H 0.90606 0.40429 0.99809 0.0
H518 H 0.92259 0.35433 0.0098 0.0
C519 C 0.86829 0.29005 0.96484 0.0
C520 C 0.87706 0.34355 0.97221 0.0
C521 C 0.85361 0.26986 0.95628 0.0
C522 C 0.9371 0.42845 0.00289 0.0
C523 C 0.92147 0.40747 0.99926 0.0
C524 C 0.9101 0.35163 0.99913 0.0
C525 C 0.86269 0.30455 0.9722 0.0
C526 C 0.87833 0.32657 0.97949 0.0
C527 C 0.92568 0.3909 0.99703 0.0
C528 C 0.90908 0.36869 0.99153 0.0
H529 H 0.81168 0.27367 0.96244 0.0
H530 H 0.83738 0.30907 0.97723 0.0
H531 H 0.89619 0.31796 0.99904 0.0
H532 H 0.97704 0.42012 0.0044 0.0
H533 H 0.94986 0.38361 0.99739 0.0
C534 C 0.72844 0.55067 0.95199 0.0
C535 C 0.73901 0.5686 0.94129 0.0
C536 C 0.7096 0.54539 0.9585 0.0
C537 C 0.66592 0.55119 0.94614 0.0
H538 H 0.65405 0.53967 0.0021 0.0
C539 C 0.59395 0.54372 0.97597 0.0
C540 C 0.58433 0.52902 0.99011 0.0
C541 C 0.61278 0.54804 0.9703 0.0
C542 C 0.65697 0.5425 0.98633 0.0
H543 H 0.73827 0.59543 0.92978 0.0
H544 H 0.70516 0.58579 0.94057 0.0
H545 H 0.68704 0.54784 0.99172 0.0
H546 H 0.58658 0.50709 0.00935 0.0
H547 H 0.61924 0.51405 0.99897 0.0
H548 H 0.63587 0.54544 0.94046 0.0
C549 C 0.71146 0.57579 0.94377 0.0
C550 C 0.6759 0.54725 0.98044 0.0
C551 C 0.73038 0.58123 0.93751 0.0
C552 C 0.59379 0.51859 0.99847 0.0
C553 C 0.61254 0.5227 0.9926 0.0
C554 C 0.64693 0.54616 0.95192 0.0
C555 C 0.70086 0.55779 0.95423 0.0
C556 C 0.6806 0.55188 0.96036 0.0
C557 C 0.62229 0.5375 0.97844 0.0
C558 C 0.64228 0.542 0.97215 0.0
H559 H 0.73449 0.54042 0.95494 0.0
H560 H 0.70163 0.53134 0.96644 0.0
H561 H 0.66909 0.5544 0.93047 0.0
H562 H 0.58699 0.55206 0.9694 0.0
H563 H 0.61998 0.55984 0.95969 0.0
C564 C 0.42951 0.15455 0.95401 0.0
C565 C 0.44411 0.17616 0.95573 0.0
C566 C 0.43411 0.13992 0.96182 0.0
C567 C 0.47679 0.13209 0.97408 0.0
H568 H 0.44005 0.08772 0.00552 0.0
C569 C 0.49865 0.07494 0.00784 0.0
C570 C 0.48366 0.05352 0.00662 0.0
C571 C 0.49362 0.09032 0.00377 0.0
C572 C 0.45039 0.09987 0.99658 0.0
H573 H 0.47493 0.19941 0.96695 0.0
H574 H 0.48299 0.17384 0.9805 0.0
H575 H 0.43152 0.11365 0.99391 0.0
H576 H 0.45151 0.03148 0.00078 0.0
H577 H 0.44275 0.05823 0.99312 0.0
H578 H 0.49539 0.11815 0.97609 0.0
C579 C 0.468 0.16823 0.97314 0.0
C580 C 0.44551 0.11474 0.98999 0.0
C581 C 0.46334 0.18287 0.96552 0.0
C582 C 0.46341 0.04787 0.00193 0.0
C583 C 0.45839 0.06325 0.99761 0.0
C584 C 0.48158 0.11714 0.98047 0.0
C585 C 0.45345 0.1466 0.97129 0.0
C586 C 0.45867 0.13099 0.97867 0.0
C587 C 0.47349 0.08464 0.99811 0.0
C588 C 0.46846 0.10083 0.99182 0.0
H589 H 0.41451 0.14896 0.94668 0.0
H590 H 0.42265 0.12333 0.96004 0.0
H591 H 0.48707 0.14424 0.9651 0.0
H592 H 0.51437 0.07984 0.01167 0.0
H593 H 0.5056 0.10668 0.00484 0.0
C594 C 0.73789 0.17286 0.98569 0.0
C595 C 0.74513 0.16887 0.96786 0.0
C596 C 0.71777 0.15985 0.98938 0.0
C597 C 0.66741 0.12173 0.96351 0.0
H598 H 0.65523 0.1041 0.01796 0.0
C599 C 0.58786 0.05784 0.98108 0.0
C600 C 0.58096 0.06149 0.99932 0.0
C601 C 0.60785 0.07103 0.97704 0.0
C602 C 0.65835 0.10907 0.00273 0.0
H603 H 0.73708 0.14893 0.93948 0.0
H604 H 0.70186 0.12595 0.94595 0.0
H605 H 0.69017 0.12712 0.01124 0.0
H606 H 0.58931 0.08175 0.02758 0.0
H607 H 0.62417 0.10493 0.0205 0.0
H608 H 0.63557 0.10368 0.95502 0.0
C609 C 0.71169 0.13906 0.95713 0.0
C610 C 0.67837 0.12226 0.99888 0.0
C611 C 0.73183 0.15206 0.95348 0.0
C612 C 0.59431 0.07855 0.01343 0.0
C613 C 0.61429 0.09174 0.00942 0.0
C614 C 0.64737 0.10854 0.96737 0.0
C615 C 0.70446 0.14275 0.97518 0.0
C616 C 0.68314 0.12876 0.97923 0.0
C617 C 0.62131 0.08812 0.99119 0.0
C618 C 0.64261 0.10207 0.98703 0.0
H619 H 0.74782 0.18601 0.99679 0.0
H620 H 0.71257 0.16334 0.00324 0.0
H621 H 0.67056 0.12668 0.94828 0.0
H622 H 0.57783 0.04476 0.96995 0.0
H623 H 0.61285 0.06767 0.96297 0.0
C624 C 0.8491 0.58376 0.95278 0.0
C625 C 0.8352 0.5808 0.96706 0.0
C626 C 0.86254 0.57632 0.95573 0.0
C627 C 0.88603 0.55967 0.99543 0.0
H628 H 0.89522 0.53109 0.94949 0.0
C629 C 0.93015 0.51609 0.00657 0.0
C630 C 0.94417 0.51879 0.99253 0.0
C631 C 0.91645 0.52306 0.00292 0.0
C632 C 0.89298 0.53923 0.96243 0.0
H633 H 0.82389 0.56726 0.9952 0.0
H634 H 0.84746 0.55427 0.00048 0.0
H635 H 0.87245 0.54499 0.94437 0.0
H636 H 0.95466 0.53038 0.96347 0.0
H637 H 0.93082 0.54283 0.95711 0.0
H638 H 0.9066 0.55406 0.01349 0.0
C639 C 0.84827 0.56271 0.98723 0.0
C640 C 0.87995 0.5472 0.95949 0.0
C641 C 0.83479 0.5701 0.98423 0.0
C642 C 0.94396 0.5281 0.97451 0.0
C643 C 0.93026 0.53514 0.97086 0.0
C644 C 0.89908 0.55176 0.99836 0.0
C645 C 0.86224 0.56567 0.97297 0.0
C646 C 0.87629 0.55746 0.97598 0.0
C647 C 0.91652 0.53294 0.98516 0.0
C648 C 0.90266 0.54138 0.98191 0.0
H649 H 0.84941 0.59168 0.93926 0.0
H650 H 0.87322 0.57897 0.94456 0.0
H651 H 0.88376 0.56779 0.00837 0.0
H652 H 0.92995 0.50885 0.02055 0.0
H653 H 0.90582 0.52075 0.01405 0.0
C654 C 0.42706 0.27626 0.97897 0.0
C655 C 0.44138 0.26968 0.97899 0.0
C656 C 0.4332 0.29767 0.98258 0.0
C657 C 0.47669 0.34948 0.00405 0.0
H658 H 0.44838 0.37164 0.9726 0.0
C659 C 0.50497 0.43905 0.00276 0.0
C660 C 0.49031 0.44511 0.00417 0.0
C661 C 0.49928 0.41766 0.00047 0.0
C662 C 0.45632 0.36564 0.98163 0.0
H663 H 0.47324 0.28013 0.98358 0.0
H664 H 0.4841 0.31763 0.9893 0.0
H665 H 0.43797 0.33436 0.96695 0.0
H666 H 0.45817 0.43335 0.00454 0.0
H667 H 0.44835 0.39617 0.00048 0.0
H668 H 0.49527 0.381 0.01844 0.0
C669 C 0.46811 0.3063 0.98667 0.0
C670 C 0.45032 0.34425 0.97845 0.0
C671 C 0.46193 0.28486 0.9832 0.0
C672 C 0.46989 0.4293 0.0035 0.0
C673 C 0.46421 0.40796 0.00104 0.0
C674 C 0.4828 0.37095 0.00711 0.0
C675 C 0.45382 0.313 0.98632 0.0
C676 C 0.46036 0.33585 0.98968 0.0
C677 C 0.47882 0.40191 0.99935 0.0
C678 C 0.4726 0.37921 0.996 0.0
H679 H 0.41109 0.26482 0.97614 0.0
H680 H 0.42175 0.30217 0.98264 0.0
H681 H 0.48459 0.34353 0.0132 0.0
H682 H 0.52083 0.4508 0.00324 0.0
H683 H 0.51085 0.41344 0.99908 0.0
C684 C 0.15446 0.72932 0.04187 0.0
C685 C 0.17485 0.735 0.04483 0.0
C686 C 0.13948 0.70817 0.03728 0.0
C687 C 0.13152 0.65571 0.01809 0.0
H688 H 0.08109 0.63504 0.04278 0.0
C689 C 0.07133 0.56685 0.01625 0.0
C690 C 0.05107 0.56145 0.0121 0.0
C691 C 0.08664 0.58806 0.0193 0.0
C692 C 0.09502 0.64063 0.03561 0.0
H693 H 0.1957 0.72323 0.04455 0.0
H694 H 0.16953 0.68615 0.03714 0.0
H695 H 0.10742 0.67191 0.05017 0.0
H696 H 0.03109 0.57416 0.0076 0.0
H697 H 0.05778 0.61105 0.01297 0.0
H698 H 0.11912 0.6242 0.00385 0.0
C699 C 0.16505 0.698 0.0382 0.0
C700 C 0.11011 0.66178 0.0398 0.0
C701 C 0.18004 0.71919 0.04264 0.0
C702 C 0.04651 0.57772 0.01076 0.0
C703 C 0.06179 0.59888 0.01397 0.0
C704 C 0.11647 0.63449 0.01403 0.0
C705 C 0.14456 0.6922 0.03552 0.0
C706 C 0.12854 0.66963 0.03105 0.0
C707 C 0.08198 0.60427 0.01844 0.0
C708 C 0.09804 0.62676 0.0227 0.0
H709 H 0.1501 0.74127 0.04308 0.0
H710 H 0.12392 0.70436 0.03488 0.0
H711 H 0.14539 0.66126 0.01083 0.0
H712 H 0.07538 0.55473 0.01739 0.0
H713 H 0.10206 0.59175 0.02285 0.0
C714 C 0.26985 0.43422 0.03893 0.0
C715 C 0.26093 0.41907 0.0529 0.0
C716 C 0.28962 0.44107 0.03439 0.0
C717 C 0.33704 0.44508 0.05542 0.0
H718 H 0.35148 0.45438 -0.00018 0.0
C719 C 0.41984 0.48818 0.03609 0.0
C720 C 0.42432 0.47992 0.01871 0.0
C721 C 0.39981 0.48043 0.04021 0.0
C722 C 0.34767 0.45171 0.0154 0.0
H723 H 0.26565 0.39962 0.07354 0.0
H724 H 0.30016 0.41128 0.06539 0.0
H725 H 0.31649 0.4408 0.00685 0.0
H726 H 0.41159 0.45708 0.99206 0.0
H727 H 0.37657 0.44335 0.99932 0.0
H728 H 0.36815 0.45566 0.06392 0.0
C729 C 0.29192 0.41789 0.05793 0.0
C730 C 0.32766 0.44415 0.01946 0.0
C731 C 0.27215 0.41106 0.06246 0.0
C732 C 0.4085 0.46376 0.00553 0.0
C733 C 0.38847 0.456 0.00964 0.0
C734 C 0.35705 0.45265 0.05136 0.0
C735 C 0.30091 0.43304 0.04391 0.0
C736 C 0.32212 0.44077 0.03952 0.0
C737 C 0.38389 0.46426 0.02701 0.0
C738 C 0.3626 0.45608 0.03131 0.0
H739 H 0.26158 0.44094 0.03174 0.0
H740 H 0.29622 0.45302 0.0238 0.0
H741 H 0.33332 0.44288 0.07108 0.0
H742 H 0.43181 0.50069 0.04647 0.0
H743 H 0.39679 0.4873 0.05358 0.0
C744 C 0.57928 0.8593 0.04432 0.0
C745 C 0.56495 0.83785 0.0448 0.0
C746 C 0.57321 0.87376 0.03951 0.0
C747 C 0.53011 0.87724 0.01535 0.0
H748 H 0.55775 0.93297 0.04499 0.0
C749 C 0.50099 0.93656 0.01276 0.0
C750 C 0.51545 0.95786 0.01132 0.0
C751 C 0.50694 0.92162 0.01561 0.0
C752 C 0.55002 0.91754 0.03643 0.0
H753 H 0.53313 0.81447 0.03964 0.0
H754 H 0.52238 0.83977 0.03191 0.0
H755 H 0.56817 0.90751 0.05268 0.0
H756 H 0.54754 0.97997 0.01124 0.0
H757 H 0.55784 0.95392 0.01627 0.0
H758 H 0.5117 0.88729 0.99943 0.0
C759 C 0.53835 0.84549 0.03514 0.0
C760 C 0.55602 0.90294 0.0408 0.0
C761 C 0.54445 0.83102 0.0398 0.0
C762 C 0.53597 0.96374 0.01233 0.0
C763 C 0.54191 0.94884 0.01534 0.0
C764 C 0.52401 0.89182 0.01111 0.0
C765 C 0.55265 0.86708 0.035 0.0
C766 C 0.54618 0.8826 0.03029 0.0
C767 C 0.52749 0.92767 0.01724 0.0
C768 C 0.53395 0.91215 0.02157 0.0
H769 H 0.59522 0.8649 0.04762 0.0
H770 H 0.5847 0.89015 0.03909 0.0
H771 H 0.52239 0.86187 0.00672 0.0
H772 H 0.48506 0.93146 0.01201 0.0
H773 H 0.49549 0.90544 0.01713 0.0
C774 C 0.94594 0.15808 0.40917 0.0
C775 C 0.93174 0.16471 0.41071 0.0
C776 C 0.96526 0.17198 0.40374 0.0
C777 C 0.99292 0.21657 0.37503 0.0
H778 H 0.04016 0.23107 0.41177 0.0
C779 C 0.07124 0.28344 0.35986 0.0
C780 C 0.08815 0.28156 0.36528 0.0
C781 C 0.05237 0.2691 0.36586 0.0
C782 C 0.02721 0.22695 0.40111 0.0
H783 H 0.92622 0.19067 0.40754 0.0
H784 H 0.95986 0.21481 0.39732 0.0
H785 H 0.00667 0.20539 0.42072 0.0
H786 H 0.09884 0.26344 0.38123 0.0
H787 H 0.06572 0.2377 0.39092 0.0
H788 H 0.01313 0.2373 0.35498 0.0
C789 C 0.95613 0.199 0.40059 0.0
C790 C 0.00804 0.21233 0.40635 0.0
C791 C 0.93699 0.18529 0.40646 0.0
C792 C 0.08597 0.26521 0.37692 0.0
C793 C 0.06699 0.25056 0.38258 0.0
C794 C 0.01206 0.23083 0.36957 0.0
C795 C 0.97045 0.19251 0.39933 0.0
C796 C 0.99076 0.20722 0.39344 0.0
C797 C 0.04988 0.25224 0.37704 0.0
C798 C 0.0295 0.23646 0.38265 0.0
H799 H 0.94219 0.14229 0.41249 0.0
H800 H 0.97609 0.16666 0.40279 0.0
H801 H 0.97976 0.21267 0.36475 0.0
H802 H 0.0726 0.29607 0.35106 0.0
H803 H 0.03978 0.27136 0.36177 0.0
C804 C 0.84248 0.78379 0.43279 0.0
C805 C 0.84975 0.77463 0.41876 0.0
C806 C 0.82871 0.78986 0.42614 0.0
C807 C 0.80889 0.80376 0.38119 0.0
H808 H 0.76142 0.78566 0.41067 0.0
C809 C 0.74056 0.81045 0.35057 0.0
C810 C 0.73049 0.81572 0.36483 0.0
C811 C 0.75568 0.80621 0.35716 0.0
C812 C 0.77472 0.79114 0.40244 0.0
H813 H 0.84849 0.76505 0.38666 0.0
H814 H 0.82465 0.77601 0.37504 0.0
H815 H 0.78718 0.77742 0.42218 0.0
H816 H 0.7284 0.82109 0.39708 0.0
H817 H 0.75514 0.81422 0.40867 0.0
H818 H 0.79658 0.81769 0.36157 0.0
C819 C 0.82969 0.7785 0.39118 0.0
C820 C 0.78945 0.78636 0.40902 0.0
C821 C 0.84337 0.77226 0.39784 0.0
C822 C 0.73589 0.81692 0.38579 0.0
C823 C 0.75111 0.81286 0.39239 0.0
C824 C 0.79423 0.80871 0.3747 0.0
C825 C 0.82203 0.78709 0.4053 0.0
C826 C 0.80665 0.79257 0.39844 0.0
C827 C 0.76112 0.80732 0.37816 0.0
C828 C 0.77693 0.8024 0.38521 0.0
H829 H 0.84742 0.78627 0.44895 0.0
H830 H 0.82329 0.79676 0.43732 0.0
H831 H 0.82212 0.80892 0.37288 0.0
H832 H 0.7366 0.80936 0.3343 0.0
H833 H 0.76284 0.80169 0.34578 0.0
C834 C 0.20619 0.05849 0.38849 0.0
C835 C 0.22598 0.07294 0.39689 0.0
C836 C 0.20123 0.03842 0.38002 0.0
C837 C 0.22243 0.00713 0.35857 0.0
H838 H 0.17525 0.95971 0.37683 0.0
C839 C 0.20545 0.92089 0.34521 0.0
C840 C 0.18517 0.9046 0.34234 0.0
C841 C 0.21036 0.94185 0.34984 0.0
C842 C 0.18825 0.97272 0.37122 0.0
H843 H 0.25623 0.078 0.40238 0.0
H844 H 0.24756 0.04286 0.38749 0.0
H845 H 0.1839 0.99555 0.38835 0.0
H846 H 0.15415 0.89766 0.34102 0.0
H847 H 0.16266 0.93418 0.34838 0.0
H848 H 0.22673 0.98432 0.34132 0.0
C849 C 0.23591 0.04709 0.38749 0.0
C850 C 0.19324 0.99328 0.37791 0.0
C851 C 0.24083 0.06711 0.39616 0.0
C852 C 0.16992 0.90981 0.34337 0.0
C853 C 0.17482 0.93077 0.34774 0.0
C854 C 0.21732 0.98652 0.35169 0.0
C855 C 0.216 0.03245 0.3796 0.0
C856 C 0.21043 0.0107 0.37176 0.0
C857 C 0.1951 0.94702 0.35149 0.0
C858 C 0.20022 0.96904 0.35803 0.0
H859 H 0.19441 0.0625 0.38897 0.0
H860 H 0.1858 0.0275 0.3739 0.0
H861 H 0.23568 0.02029 0.35345 0.0
H862 H 0.21755 0.91737 0.34466 0.0
H863 H 0.22613 0.95387 0.35285 0.0
C864 C 0.49259 0.61674 0.29328 0.0
C865 C 0.49842 0.60265 0.28529 0.0
C866 C 0.50711 0.63687 0.30214 0.0
C867 C 0.55954 0.66859 0.32538 0.0
H868 H 0.55658 0.7159 0.30559 0.0
C869 C 0.6266 0.75432 0.33807 0.0
C870 C 0.62251 0.77095 0.34013 0.0
C871 C 0.61087 0.73345 0.33369 0.0
C872 C 0.55748 0.70293 0.31164 0.0
H873 H 0.52389 0.59821 0.28097 0.0
H874 H 0.54928 0.63335 0.29659 0.0
H875 H 0.53003 0.68 0.29414 0.0
H876 H 0.59864 0.77863 0.3402 0.0
H877 H 0.57122 0.74225 0.33327 0.0
H878 H 0.58694 0.69146 0.34298 0.0
C879 C 0.53349 0.62885 0.29596 0.0
C880 C 0.54226 0.68233 0.30499 0.0
C881 C 0.519 0.60884 0.28687 0.0
C882 C 0.60232 0.76619 0.33849 0.0
C883 C 0.58659 0.74531 0.33437 0.0
C884 C 0.57468 0.68922 0.33223 0.0
C885 C 0.52772 0.64318 0.30342 0.0
C886 C 0.54325 0.66496 0.31161 0.0
C887 C 0.59065 0.72869 0.33149 0.0
C888 C 0.57397 0.70668 0.32526 0.0
H889 H 0.47684 0.61242 0.29216 0.0
H890 H 0.50224 0.64756 0.3079 0.0
H891 H 0.56056 0.65547 0.33088 0.0
H892 H 0.64201 0.75748 0.3391 0.0
H893 H 0.61464 0.72115 0.33131 0.0
C894 C 0.39463 0.89315 0.28385 0.0
C895 C 0.39729 0.89216 0.26293 0.0
C896 C 0.37557 0.88705 0.2902 0.0
C897 C 0.32742 0.88232 0.27239 0.0
H898 H 0.3075 0.8494 0.3186 0.0
C899 C 0.24772 0.85533 0.29621 0.0
C900 C 0.24573 0.8565 0.31724 0.0
C901 C 0.26574 0.85831 0.28929 0.0
C902 C 0.31294 0.85879 0.30581 0.0
H903 H 0.38185 0.88312 0.2323 0.0
H904 H 0.34863 0.87273 0.24342 0.0
H905 H 0.33988 0.85679 0.30705 0.0
H906 H 0.26079 0.8616 0.34758 0.0
H907 H 0.29251 0.86732 0.33554 0.0
H908 H 0.30081 0.88478 0.27134 0.0
C909 C 0.36136 0.87848 0.25487 0.0
C910 C 0.33145 0.86296 0.29917 0.0
C911 C 0.38038 0.88447 0.24852 0.0
C912 C 0.26198 0.86059 0.33127 0.0
C913 C 0.28006 0.86371 0.32436 0.0
C914 C 0.309 0.87827 0.27909 0.0
C915 C 0.35881 0.87992 0.27576 0.0
C916 C 0.33888 0.87482 0.28243 0.0
C917 C 0.28217 0.86266 0.30328 0.0
C918 C 0.30156 0.86651 0.29591 0.0
H919 H 0.40737 0.89926 0.29533 0.0
H920 H 0.37408 0.88856 0.3064 0.0
H921 H 0.33293 0.89179 0.25964 0.0
H922 H 0.23532 0.85204 0.2851 0.0
H923 H 0.26674 0.85706 0.27297 0.0
C924 C 0.12644 0.50417 0.27606 0.0
C925 C 0.1146 0.51046 0.28657 0.0
C926 C 0.13141 0.48991 0.28402 0.0
C927 C 0.1143 0.4466 0.31616 0.0
H928 H 0.16992 0.45949 0.31949 0.0
C929 C 0.13824 0.38864 0.34628 0.0
C930 C 0.15297 0.38688 0.33599 0.0
C931 C 0.13384 0.40458 0.3424 0.0
C932 C 0.15427 0.45549 0.31846 0.0
H933 H 0.09846 0.50669 0.31345 0.0
H934 H 0.10683 0.48126 0.32722 0.0
H935 H 0.16152 0.48549 0.30818 0.0
H936 H 0.17439 0.40027 0.31331 0.0
H937 H 0.16636 0.4274 0.30614 0.0
H938 H 0.10684 0.41626 0.32557 0.0
C939 C 0.11237 0.48755 0.31293 0.0
C940 C 0.14951 0.47046 0.31207 0.0
C941 C 0.10769 0.50213 0.30513 0.0
C942 C 0.16314 0.40131 0.32173 0.0
C943 C 0.15861 0.41703 0.3177 0.0
C944 C 0.11901 0.43145 0.32227 0.0
C945 C 0.12436 0.48141 0.30248 0.0
C946 C 0.12947 0.46605 0.31061 0.0
C947 C 0.14395 0.41895 0.328 0.0
C948 C 0.13903 0.43559 0.32319 0.0
H949 H 0.13204 0.51047 0.26178 0.0
H950 H 0.14055 0.48529 0.2756 0.0
H951 H 0.09869 0.4428 0.31505 0.0
H952 H 0.13018 0.37778 0.35739 0.0
H953 H 0.12262 0.40572 0.35078 0.0
C954 C 0.40255 0.48673 0.30049 0.0
C955 C 0.40971 0.50808 0.29776 0.0
C956 C 0.3823 0.47332 0.30351 0.0
C957 C 0.33692 0.47405 0.31914 0.0
H958 H 0.30926 0.41591 0.29528 0.0
C959 C 0.25901 0.41227 0.34159 0.0
C960 C 0.24525 0.39671 0.32647 0.0
C961 C 0.27878 0.42617 0.33747 0.0
C962 C 0.31666 0.43217 0.30185 0.0
H963 H 0.40159 0.53243 0.297 0.0
H964 H 0.36612 0.50894 0.30151 0.0
H965 H 0.34412 0.43954 0.28893 0.0
H966 H 0.24104 0.38363 0.29508 0.0
H967 H 0.27548 0.4083 0.28762 0.0
H968 H 0.30929 0.46689 0.33152 0.0
C969 C 0.37609 0.50249 0.30145 0.0
C970 C 0.33678 0.44565 0.29847 0.0
C971 C 0.39637 0.51592 0.29863 0.0
C972 C 0.25144 0.39546 0.30703 0.0
C973 C 0.2712 0.4095 0.30283 0.0
C974 C 0.31676 0.46062 0.32238 0.0
C975 C 0.36878 0.481 0.30393 0.0
C976 C 0.34722 0.46674 0.30718 0.0
C977 C 0.28517 0.42494 0.31806 0.0
C978 C 0.3064 0.43946 0.31391 0.0
H979 H 0.41265 0.48042 0.30037 0.0
H980 H 0.37735 0.457 0.30585 0.0
H981 H 0.34451 0.4901 0.3263 0.0
H982 H 0.25461 0.41347 0.35675 0.0
H983 H 0.28917 0.43759 0.34968 0.0
C984 C 0.48546 0.88409 0.29705 0.0
C985 C 0.4919 0.90486 0.29252 0.0
C986 C 0.49945 0.8775 0.30077 0.0
C987 C 0.55204 0.89166 0.29301 0.0
H988 H 0.54419 0.85394 0.33509 0.0
C989 C 0.60386 0.85643 0.30657 0.0
C990 C 0.60923 0.85534 0.32701 0.0
C991 C 0.58897 0.8616 0.30175 0.0
C992 C 0.54671 0.8646 0.32338 0.0
H993 H 0.51791 0.93515 0.2885 0.0
H994 H 0.5425 0.92389 0.2956 0.0
H995 H 0.51984 0.8654 0.32847 0.0
H996 H 0.60343 0.85873 0.35845 0.0
H997 H 0.57785 0.86821 0.35017 0.0
H998 H 0.57934 0.8915 0.28849 0.0
C999 C 0.52662 0.91251 0.29583 0.0
C1000 C 0.53258 0.87096 0.3194 0.0
C1001 C 0.51259 0.91903 0.29196 0.0
C1002 C 0.59947 0.85937 0.34254 0.0
C1003 C 0.58471 0.86467 0.33777 0.0
C1004 C 0.56625 0.88541 0.29709 0.0
C1005 C 0.52021 0.89163 0.3002 0.0
C1006 C 0.53511 0.88463 0.30422 0.0
C1007 C 0.57928 0.86587 0.31733 0.0
C1008 C 0.5638 0.87189 0.31241 0.0
H1009 H 0.46953 0.8729 0.29746 0.0
H1010 H 0.49394 0.86124 0.30379 0.0
H1011 H 0.55431 0.90195 0.281 0.0
H1012 H 0.61115 0.8533 0.29432 0.0
H1013 H 0.58496 0.8621 0.28583 0.0
C1014 C 0.12771 0.61665 0.31485 0.0
C1015 C 0.10721 0.60115 0.31104 0.0
C1016 C 0.1335 0.63794 0.31875 0.0
C1017 C 0.11422 0.67492 0.31247 0.0
H1018 H 0.1608 0.71261 0.35034 0.0
C1019 C 0.13395 0.75999 0.33786 0.0
C1020 C 0.15413 0.77589 0.33704 0.0
C1021 C 0.12843 0.73869 0.33551 0.0
C1022 C 0.14785 0.70227 0.33962 0.0
H1023 H 0.07666 0.59551 0.3097 0.0
H1024 H 0.08667 0.63261 0.31703 0.0
H1025 H 0.15047 0.67522 0.34514 0.0
H1026 H 0.18442 0.78185 0.33355 0.0
H1027 H 0.17474 0.74454 0.32966 0.0
H1028 H 0.11145 0.70197 0.30724 0.0
C1029 C 0.09835 0.62849 0.3162 0.0
C1030 C 0.14194 0.68086 0.33658 0.0
C1031 C 0.09258 0.60722 0.31211 0.0
C1032 C 0.16875 0.77 0.33424 0.0
C1033 C 0.16324 0.74866 0.33211 0.0
C1034 C 0.12 0.69625 0.31567 0.0
C1035 C 0.1189 0.64417 0.31934 0.0
C1036 C 0.12506 0.66691 0.32292 0.0
C1037 C 0.14298 0.7328 0.33248 0.0
C1038 C 0.13689 0.71015 0.32925 0.0
H1039 H 0.13928 0.61233 0.31452 0.0
H1040 H 0.14945 0.64954 0.32093 0.0
H1041 H 0.10141 0.66479 0.30152 0.0
H1042 H 0.12228 0.76393 0.33995 0.0
H1043 H 0.11274 0.7268 0.33608 0.0
C1044 C 0.84437 0.05739 0.37873 0.0
C1045 C 0.83887 0.073 0.37976 0.0
C1046 C 0.82968 0.03609 0.37427 0.0
C1047 C 0.77459 0.99936 0.37381 0.0
H1048 H 0.78545 0.96179 0.34008 0.0
C1049 C 0.7122 0.91506 0.34415 0.0
C1050 C 0.71672 0.89885 0.34635 0.0
C1051 C 0.7274 0.93624 0.34743 0.0
C1052 C 0.78228 0.97207 0.34964 0.0
H1053 H 0.81388 0.07878 0.37603 0.0
H1054 H 0.78824 0.04167 0.36784 0.0
H1055 H 0.81137 0.99897 0.34729 0.0
H1056 H 0.74091 0.89227 0.35322 0.0
H1057 H 0.76748 0.92935 0.35883 0.0
H1058 H 0.74543 0.9725 0.37595 0.0
C1059 C 0.8038 0.04573 0.37111 0.0
C1060 C 0.79713 0.99336 0.35383 0.0
C1061 C 0.81848 0.067 0.3757 0.0
C1062 C 0.7369 0.90434 0.35139 0.0
C1063 C 0.75214 0.92558 0.35454 0.0
C1064 C 0.75972 0.97814 0.3695 0.0
C1065 C 0.80919 0.02997 0.37046 0.0
C1066 C 0.79346 0.00729 0.36596 0.0
C1067 C 0.74749 0.94174 0.35287 0.0
C1068 C 0.76339 0.96427 0.35735 0.0
H1069 H 0.86005 0.06169 0.38153 0.0
H1070 H 0.83438 0.0244 0.37409 0.0
H1071 H 0.77136 0.00948 0.38355 0.0
H1072 H 0.69685 0.91144 0.34026 0.0
H1073 H 0.72341 0.94835 0.34577 0.0
C1074 C 0.93666 0.74695 0.39043 0.0
C1075 C 0.92801 0.75984 0.3894 0.0
C1076 C 0.95653 0.75454 0.38581 0.0
C1077 C 0.99761 0.79692 0.36033 0.0
H1078 H 0.03123 0.78156 0.39276 0.0
C1079 C 0.07581 0.81491 0.33838 0.0
C1080 C 0.09107 0.82016 0.35412 0.0
C1081 C 0.05612 0.80841 0.3429 0.0
C1082 C 0.02215 0.78624 0.38372 0.0
H1083 H 0.93301 0.79053 0.38259 0.0
H1084 H 0.9679 0.80409 0.37501 0.0
H1085 H 0.9965 0.76853 0.40014 0.0
H1086 H 0.09806 0.82335 0.38692 0.0
H1087 H 0.06373 0.81255 0.39497 0.0
H1088 H 0.02345 0.81521 0.34438 0.0
C1089 C 0.95933 0.78799 0.37897 0.0
C1090 C 0.0021 0.77846 0.38773 0.0
C1091 C 0.93942 0.78032 0.38341 0.0
C1092 C 0.08648 0.81928 0.37451 0.0
C1093 C 0.0668 0.81295 0.37908 0.0
C1094 C 0.0177 0.80483 0.35644 0.0
C1095 C 0.96818 0.77524 0.38023 0.0
C1096 C 0.98955 0.78361 0.37601 0.0
C1097 C 0.05133 0.80721 0.3633 0.0
C1098 C 0.03019 0.79948 0.36799 0.0
H1099 H 0.92811 0.73106 0.39496 0.0
H1100 H 0.96272 0.74415 0.38656 0.0
H1101 H 0.98834 0.80105 0.35086 0.0
H1102 H 0.07897 0.81537 0.3225 0.0
H1103 H 0.04457 0.8038 0.33035 0.0
C1104 C 0.23998 0.18781 0.37905 0.0
C1105 C 0.22583 0.16668 0.38133 0.0
C1106 C 0.23367 0.20229 0.37534 0.0
C1107 C 0.18901 0.20565 0.35662 0.0
H1108 H 0.22098 0.26315 0.3819 0.0
C1109 C 0.16422 0.26855 0.35267 0.0
C1110 C 0.17916 0.2887 0.34822 0.0
C1111 C 0.16918 0.25303 0.35657 0.0
C1112 C 0.21198 0.24718 0.37463 0.0
H1113 H 0.19394 0.14384 0.38066 0.0
H1114 H 0.18285 0.16926 0.37482 0.0
H1115 H 0.2309 0.23728 0.38948 0.0
H1116 H 0.211 0.30823 0.34418 0.0
H1117 H 0.21955 0.28123 0.35104 0.0
H1118 H 0.16996 0.21567 0.34198 0.0
C1119 C 0.19885 0.17468 0.37581 0.0
C1120 C 0.21768 0.23235 0.37891 0.0
C1121 C 0.20518 0.16017 0.37938 0.0
C1122 C 0.19908 0.29289 0.34752 0.0
C1123 C 0.20405 0.27748 0.3516 0.0
C1124 C 0.18321 0.22047 0.35247 0.0
C1125 C 0.21303 0.19594 0.37377 0.0
C1126 C 0.20641 0.21145 0.3698 0.0
C1127 C 0.1892 0.25746 0.35632 0.0
C1128 C 0.19477 0.24144 0.36126 0.0
H1129 H 0.25596 0.19311 0.37999 0.0
H1130 H 0.24499 0.21839 0.37337 0.0
H1131 H 0.18011 0.18978 0.34912 0.0
H1132 H 0.14873 0.26479 0.35336 0.0
H1133 H 0.15745 0.23775 0.36028 0.0
C1134 C 0.59853 0.51814 0.7403 0.0
C1135 C 0.5904 0.49613 0.73709 0.0
C1136 C 0.61738 0.53209 0.73396 0.0
C1137 C 0.65357 0.5372 0.69787 0.0
H1138 H 0.69342 0.58134 0.73774 0.0
C1139 C 0.73663 0.58951 0.68114 0.0
C1140 C 0.74719 0.61055 0.6898 0.0
C1141 C 0.71726 0.57559 0.68643 0.0
C1142 C 0.68242 0.56939 0.72625 0.0
H1143 H 0.59592 0.47168 0.72443 0.0
H1144 H 0.62851 0.49613 0.71274 0.0
H1145 H 0.65989 0.55721 0.74743 0.0
H1146 H 0.74579 0.63377 0.71033 0.0
H1147 H 0.71172 0.60985 0.71894 0.0
H1148 H 0.67576 0.54962 0.67647 0.0
C1149 C 0.6202 0.50246 0.72027 0.0
C1150 C 0.66323 0.55549 0.73189 0.0
C1151 C 0.60146 0.48848 0.7269 0.0
C1152 C 0.73798 0.61756 0.70354 0.0
C1153 C 0.7185 0.60376 0.70859 0.0
C1154 C 0.67267 0.55133 0.69211 0.0
C1155 C 0.62842 0.52438 0.72396 0.0
C1156 C 0.64865 0.53923 0.71779 0.0
C1157 C 0.70792 0.5825 0.70028 0.0
C1158 C 0.68741 0.56759 0.70625 0.0
H1159 H 0.5903 0.52467 0.74764 0.0
H1160 H 0.62329 0.54894 0.73675 0.0
H1161 H 0.64251 0.52489 0.68666 0.0
H1162 H 0.74349 0.5837 0.67058 0.0
H1163 H 0.70982 0.5593 0.67996 0.0
C1164 C 0.51371 0.10838 0.73067 0.0
C1165 C 0.50807 0.09026 0.74107 0.0
C1166 C 0.49945 0.11396 0.72439 0.0
C1167 C 0.44393 0.09328 0.71691 0.0
H1168 H 0.46089 0.15291 0.72056 0.0
C1169 C 0.38832 0.12488 0.71317 0.0
C1170 C 0.39192 0.13959 0.69884 0.0
C1171 C 0.40256 0.11882 0.71794 0.0
C1172 C 0.45601 0.13621 0.71938 0.0
H1173 H 0.48267 0.06336 0.75226 0.0
H1174 H 0.45814 0.07368 0.74237 0.0
H1175 H 0.48546 0.14208 0.72927 0.0
H1176 H 0.41323 0.15986 0.67857 0.0
H1177 H 0.43843 0.14967 0.68737 0.0
H1178 H 0.41427 0.08757 0.70773 0.0
C1179 C 0.4735 0.0834 0.73864 0.0
C1180 C 0.47009 0.12997 0.72422 0.0
C1181 C 0.48769 0.07765 0.74464 0.0
C1182 C 0.41013 0.14848 0.68968 0.0
C1183 C 0.42453 0.14271 0.69473 0.0
C1184 C 0.4298 0.09954 0.71242 0.0
C1185 C 0.47921 0.10175 0.72859 0.0
C1186 C 0.46426 0.1084 0.72303 0.0
C1187 C 0.42077 0.12766 0.70874 0.0
C1188 C 0.43573 0.12106 0.71359 0.0
H1189 H 0.52927 0.11863 0.72782 0.0
H1190 H 0.50438 0.12796 0.71633 0.0
H1191 H 0.43891 0.07657 0.71541 0.0
H1192 H 0.37436 0.11779 0.72041 0.0
H1193 H 0.39941 0.10731 0.72891 0.0
C1194 C 0.8767 0.39464 0.71889 0.0
C1195 C 0.89663 0.409 0.72695 0.0
C1196 C 0.87135 0.37429 0.71088 0.0
C1197 C 0.89138 0.34165 0.69004 0.0
H1198 H 0.84499 0.29553 0.71086 0.0
C1199 C 0.87401 0.2551 0.6795 0.0
C1200 C 0.85375 0.23879 0.67786 0.0
C1201 C 0.87902 0.27619 0.68342 0.0
C1202 C 0.85774 0.30814 0.70452 0.0
H1203 H 0.92674 0.41364 0.73224 0.0
H1204 H 0.91741 0.37806 0.71805 0.0
H1205 H 0.85404 0.33179 0.72097 0.0
H1206 H 0.82281 0.23185 0.67797 0.0
H1207 H 0.83144 0.26855 0.684 0.0
H1208 H 0.89501 0.31805 0.6734 0.0
C1209 C 0.90594 0.38255 0.718 0.0
C1210 C 0.86297 0.32896 0.71042 0.0
C1211 C 0.91124 0.40283 0.72625 0.0
C1212 C 0.83858 0.24405 0.67939 0.0
C1213 C 0.84356 0.26512 0.68301 0.0
C1214 C 0.88601 0.32079 0.68391 0.0
C1215 C 0.88588 0.36797 0.71054 0.0
C1216 C 0.87991 0.34593 0.70338 0.0
C1217 C 0.86387 0.28146 0.68552 0.0
C1218 C 0.86919 0.30374 0.6912 0.0
H1219 H 0.86511 0.39893 0.71935 0.0
H1220 H 0.8558 0.36341 0.7051 0.0
H1221 H 0.90443 0.35446 0.68425 0.0
H1222 H 0.88606 0.25154 0.67853 0.0
H1223 H 0.89483 0.28825 0.68551 0.0
C1224 C 0.18001 0.93448 0.61981 0.0
C1225 C 0.15953 0.92869 0.61854 0.0
C1226 C 0.19481 0.95425 0.62918 0.0
C1227 C 0.20416 0.00785 0.6385 0.0
H1228 H 0.24982 0.01717 0.67505 0.0
C1229 C 0.26486 0.09187 0.67085 0.0
C1230 C 0.28506 0.09666 0.67232 0.0
C1231 C 0.24913 0.07099 0.66679 0.0
C1232 C 0.23729 0.01488 0.66468 0.0
H1233 H 0.13842 0.93875 0.62653 0.0
H1234 H 0.16432 0.9734 0.64279 0.0
H1235 H 0.22307 0.98111 0.66364 0.0
H1236 H 0.30458 0.08325 0.67094 0.0
H1237 H 0.2772 0.04688 0.66317 0.0
H1238 H 0.21854 0.04138 0.63872 0.0
C1239 C 0.16889 0.96263 0.63655 0.0
C1240 C 0.22194 0.99421 0.65824 0.0
C1241 C 0.15408 0.94276 0.62741 0.0
C1242 C 0.28917 0.08006 0.67002 0.0
C1243 C 0.27342 0.05916 0.66567 0.0
C1244 C 0.21959 0.02847 0.64471 0.0
C1245 C 0.18943 0.9687 0.63723 0.0
C1246 C 0.20525 0.99051 0.64504 0.0
C1247 C 0.25318 0.05436 0.66377 0.0
C1248 C 0.23642 0.0323 0.65783 0.0
H1249 H 0.18461 0.92387 0.61322 0.0
H1250 H 0.21052 0.95855 0.62939 0.0
H1251 H 0.19165 0.00547 0.62804 0.0
H1252 H 0.26117 0.10428 0.67278 0.0
H1253 H 0.23376 0.06792 0.66594 0.0
C1254 C 0.05477 0.20724 0.60733 0.0
C1255 C 0.06459 0.22377 0.59481 0.0
C1256 C 0.03689 0.20345 0.61531 0.0
C1257 C 0.9936 0.21081 0.60601 0.0
H1258 H 0.98775 0.20485 0.66385 0.0
C1259 C 0.92663 0.20924 0.64227 0.0
C1260 C 0.91806 0.19558 0.65751 0.0
C1261 C 0.94469 0.21262 0.63515 0.0
C1262 C 0.98899 0.20615 0.64761 0.0
H1263 H 0.06335 0.2495 0.58123 0.0
H1264 H 0.03186 0.24241 0.59467 0.0
H1265 H 0.01873 0.21026 0.65013 0.0
H1266 H 0.9215 0.17478 0.67739 0.0
H1267 H 0.95283 0.18016 0.66455 0.0
H1268 H 0.96383 0.20628 0.60323 0.0
C1269 C 0.03802 0.23238 0.59819 0.0
C1270 C 0.00676 0.20932 0.6398 0.0
C1271 C 0.05602 0.23634 0.59043 0.0
C1272 C 0.9279 0.18548 0.66568 0.0
C1273 C 0.94589 0.18866 0.65838 0.0
C1274 C 0.97576 0.20739 0.61374 0.0
C1275 C 0.02832 0.21593 0.61074 0.0
C1276 C 0.00928 0.21186 0.61896 0.0
C1277 C 0.95444 0.20218 0.64292 0.0
C1278 C 0.97329 0.20523 0.63468 0.0
H1279 H 0.06076 0.19703 0.61078 0.0
H1280 H 0.02958 0.19053 0.62479 0.0
H1281 H 0.99506 0.21242 0.58982 0.0
H1282 H 0.91936 0.21732 0.63581 0.0
H1283 H 0.95103 0.2235 0.62358 0.0
C1284 C 0.77479 0.83646 0.64095 0.0
C1285 C 0.77746 0.84049 0.62033 0.0
C1286 C 0.77748 0.82062 0.64888 0.0
C1287 C 0.77745 0.77164 0.63369 0.0
H1288 H 0.81066 0.78404 0.68481 0.0
C1289 C 0.78983 0.70845 0.66992 0.0
C1290 C 0.81021 0.7148 0.67501 0.0
C1291 C 0.78423 0.72335 0.66533 0.0
C1292 C 0.80129 0.78034 0.67056 0.0
H1293 H 0.78542 0.83114 0.59204 0.0
H1294 H 0.78966 0.80326 0.60579 0.0
H1295 H 0.80403 0.81094 0.6721 0.0
H1296 H 0.84055 0.74187 0.68027 0.0
H1297 H 0.83073 0.76778 0.67248 0.0
H1298 H 0.775 0.74119 0.63194 0.0
C1299 C 0.78531 0.81227 0.61574 0.0
C1300 C 0.79739 0.79567 0.66336 0.0
C1301 C 0.78283 0.82823 0.60786 0.0
C1302 C 0.82473 0.73643 0.67631 0.0
C1303 C 0.8191 0.75131 0.67196 0.0
C1304 C 0.78116 0.75623 0.641 0.0
C1305 C 0.78269 0.80831 0.63633 0.0
C1306 C 0.7857 0.79159 0.64468 0.0
C1307 C 0.79886 0.74489 0.66602 0.0
C1308 C 0.79337 0.76054 0.65936 0.0
H1309 H 0.77034 0.84534 0.65093 0.0
H1310 H 0.77519 0.81779 0.66476 0.0
H1311 H 0.76822 0.76799 0.61934 0.0
H1312 H 0.77828 0.69191 0.66876 0.0
H1313 H 0.76849 0.71799 0.66095 0.0
C1314 C 0.05335 0.83515 0.61668 0.0
C1315 C 0.0696 0.83395 0.62613 0.0
C1316 C 0.03376 0.8224 0.62209 0.0
C1317 C 0.00166 0.77217 0.64299 0.0
H1318 H 0.96736 0.79569 0.65415 0.0
C1319 C 0.91619 0.72041 0.65022 0.0
C1320 C 0.90878 0.72613 0.66696 0.0
C1321 C 0.93588 0.73372 0.6454 0.0
C1322 C 0.97681 0.78894 0.65115 0.0
H1323 H 0.07794 0.81787 0.64789 0.0
H1324 H 0.04365 0.79544 0.65725 0.0
H1325 H 0.00183 0.81884 0.64556 0.0
H1326 H 0.91591 0.75022 0.6917 0.0
H1327 H 0.95033 0.77367 0.68313 0.0
H1328 H 0.97664 0.74227 0.64848 0.0
C1329 C 0.04614 0.80646 0.64591 0.0
C1330 C 0.99645 0.80213 0.64608 0.0
C1331 C 0.06574 0.81937 0.64067 0.0
C1332 C 0.9213 0.74545 0.67872 0.0
C1333 C 0.94093 0.75889 0.67376 0.0
C1334 C 0.98196 0.75894 0.6478 0.0
C1335 C 0.02994 0.80785 0.63669 0.0
C1336 C 0.00909 0.79389 0.64201 0.0
C1337 C 0.94844 0.75311 0.6571 0.0
C1338 C 0.96934 0.76719 0.65197 0.0
H1339 H 0.0557 0.84582 0.60503 0.0
H1340 H 0.02151 0.82356 0.61452 0.0
H1341 H 0.01101 0.76536 0.63976 0.0
H1342 H 0.9068 0.70561 0.64089 0.0
H1343 H 0.94121 0.72896 0.63237 0.0
C1344 C 0.16112 0.22969 0.6391 0.0
C1345 C 0.16137 0.23887 0.62088 0.0
C1346 C 0.17503 0.22315 0.64367 0.0
C1347 C 0.20803 0.20709 0.61943 0.0
H1348 H 0.2341 0.21816 0.67447 0.0
C1349 C 0.27294 0.19078 0.64027 0.0
C1350 C 0.27286 0.18248 0.65902 0.0
C1351 C 0.25917 0.1974 0.63521 0.0
C1352 C 0.22677 0.21471 0.65908 0.0
H1353 H 0.17574 0.2479 0.59286 0.0
H1354 H 0.2003 0.23668 0.60091 0.0
H1355 H 0.21064 0.23061 0.66656 0.0
H1356 H 0.25816 0.17409 0.68698 0.0
H1357 H 0.23393 0.18534 0.67806 0.0
H1358 H 0.22411 0.19111 0.61197 0.0
C1359 C 0.18942 0.23456 0.61169 0.0
C1360 C 0.21335 0.22188 0.65455 0.0
C1361 C 0.17554 0.24115 0.60716 0.0
C1362 C 0.25858 0.18053 0.67245 0.0
C1363 C 0.24481 0.18711 0.6674 0.0
C1364 C 0.22144 0.19989 0.62397 0.0
C1365 C 0.18929 0.22545 0.62999 0.0
C1366 C 0.20379 0.2181 0.63469 0.0
C1367 C 0.24507 0.19583 0.64882 0.0
C1368 C 0.23091 0.20356 0.64387 0.0
H1369 H 0.15004 0.22739 0.64969 0.0
H1370 H 0.17433 0.21586 0.65773 0.0
H1371 H 0.20069 0.20368 0.60405 0.0
H1372 H 0.28385 0.19247 0.62967 0.0
H1373 H 0.25988 0.20421 0.62086 0.0
C1374 C 0.79997 0.95192 0.64886 0.0
C1375 C 0.77947 0.93662 0.64454 0.0
C1376 C 0.80599 0.97333 0.6523 0.0
C1377 C 0.78786 0.01104 0.64409 0.0
H1378 H 0.83174 0.04747 0.68524 0.0
C1379 C 0.80518 0.09495 0.67071 0.0
C1380 C 0.82551 0.11115 0.67212 0.0
C1381 C 0.80001 0.07378 0.6678 0.0
C1382 C 0.81958 0.03751 0.67358 0.0
H1383 H 0.74911 0.93154 0.64129 0.0
H1384 H 0.75947 0.9688 0.64769 0.0
H1385 H 0.82176 0.01023 0.67927 0.0
H1386 H 0.85637 0.11768 0.67206 0.0
H1387 H 0.84726 0.08061 0.66711 0.0
H1388 H 0.78551 0.03827 0.63864 0.0
C1389 C 0.77102 0.96443 0.64779 0.0
C1390 C 0.81388 0.01618 0.67011 0.0
C1391 C 0.76505 0.94306 0.64422 0.0
C1392 C 0.84056 0.10562 0.67102 0.0
C1393 C 0.83537 0.08439 0.66826 0.0
C1394 C 0.79346 0.03229 0.64767 0.0
C1395 C 0.79158 0.97987 0.65177 0.0
C1396 C 0.7979 0.00265 0.65535 0.0
C1397 C 0.81501 0.06826 0.66637 0.0
C1398 C 0.80933 0.04575 0.66249 0.0
H1399 H 0.81136 0.94729 0.64946 0.0
H1400 H 0.82195 0.98476 0.65514 0.0
H1401 H 0.77578 0.00123 0.63232 0.0
H1402 H 0.79317 0.09857 0.6715 0.0
H1403 H 0.78421 0.06168 0.66667 0.0
C1404 C 0.47633 0.39404 0.7093 0.0
C1405 C 0.49706 0.40117 0.71234 0.0
C1406 C 0.46228 0.37242 0.70618 0.0
C1407 C 0.45742 0.32033 0.69126 0.0
H1408 H 0.40661 0.299 0.71532 0.0
C1409 C 0.39872 0.23084 0.69102 0.0
C1410 C 0.37852 0.22504 0.68556 0.0
C1411 C 0.41373 0.25218 0.69436 0.0
C1412 C 0.42069 0.30474 0.7084 0.0
H1413 H 0.51944 0.39141 0.71362 0.0
H1414 H 0.49491 0.3536 0.70879 0.0
H1415 H 0.43174 0.33644 0.72112 0.0
H1416 H 0.35832 0.2372 0.67932 0.0
H1417 H 0.38441 0.27423 0.68524 0.0
H1418 H 0.4463 0.28841 0.67878 0.0
C1419 C 0.48945 0.36465 0.70869 0.0
C1420 C 0.43508 0.32623 0.71165 0.0
C1421 C 0.5035 0.38629 0.71166 0.0
C1422 C 0.37371 0.24104 0.68347 0.0
C1423 C 0.38863 0.2623 0.687 0.0
C1424 C 0.44306 0.29876 0.68816 0.0
C1425 C 0.46863 0.35742 0.70598 0.0
C1426 C 0.45357 0.33437 0.70296 0.0
C1427 C 0.40878 0.26812 0.69255 0.0
C1428 C 0.42446 0.2908 0.69653 0.0
H1429 H 0.47099 0.4052 0.70933 0.0
H1430 H 0.44642 0.3675 0.70366 0.0
H1431 H 0.47136 0.32604 0.6841 0.0
H1432 H 0.40295 0.21891 0.69276 0.0
H1433 H 0.42913 0.25622 0.69873 0.0
C1434 C 0.59925 0.08097 0.69976 0.0
C1435 C 0.59409 0.08289 0.71958 0.0
C1436 C 0.61933 0.0879 0.69634 0.0
C1437 C 0.67122 0.12457 0.71795 0.0
H1438 H 0.68473 0.0899 0.68319 0.0
C1439 C 0.75389 0.14817 0.70799 0.0
C1440 C 0.75828 0.14418 0.68839 0.0
C1441 C 0.73387 0.14016 0.71231 0.0
C1442 C 0.68121 0.09991 0.69273 0.0
H1443 H 0.60553 0.09259 0.75148 0.0
H1444 H 0.64074 0.10507 0.74547 0.0
H1445 H 0.64965 0.07693 0.68952 0.0
H1446 H 0.7454 0.1289 0.65788 0.0
H1447 H 0.71052 0.11541 0.66518 0.0
H1448 H 0.70263 0.14776 0.72084 0.0
C1449 C 0.62933 0.0985 0.73256 0.0
C1450 C 0.66111 0.09243 0.69638 0.0
C1451 C 0.60924 0.09137 0.736 0.0
C1452 C 0.74239 0.1321 0.67317 0.0
C1453 C 0.7224 0.12425 0.67741 0.0
C1454 C 0.6913 0.13214 0.71415 0.0
C1455 C 0.63458 0.09689 0.71269 0.0
C1456 C 0.65592 0.1047 0.709 0.0
C1457 C 0.71787 0.12816 0.69704 0.0
C1458 C 0.69655 0.11993 0.70145 0.0
H1459 H 0.58778 0.07419 0.6869 0.0
H1460 H 0.62297 0.08654 0.68086 0.0
H1461 H 0.66759 0.13446 0.72756 0.0
H1462 H 0.76592 0.15737 0.72002 0.0
H1463 H 0.73095 0.14322 0.72768 0.0
C1464 C 0.91256 0.5254 0.71075 0.0
C1465 C 0.89842 0.50388 0.71122 0.0
C1466 C 0.90618 0.53982 0.7069 0.0
C1467 C 0.86233 0.54302 0.6849 0.0
H1468 H 0.89024 0.59861 0.71483 0.0
C1469 C 0.83224 0.60138 0.6841 0.0
C1470 C 0.84639 0.62273 0.68244 0.0
C1471 C 0.83858 0.58673 0.6868 0.0
C1472 C 0.88243 0.58323 0.7062 0.0
H1473 H 0.86661 0.48038 0.7073 0.0
H1474 H 0.85534 0.50561 0.70118 0.0
H1475 H 0.90114 0.5733 0.7215 0.0
H1476 H 0.8783 0.64532 0.68199 0.0
H1477 H 0.8893 0.61974 0.68677 0.0
H1478 H 0.8434 0.55294 0.66985 0.0
C1479 C 0.87138 0.5114 0.70365 0.0
C1480 C 0.88869 0.56871 0.70999 0.0
C1481 C 0.87779 0.49697 0.70737 0.0
C1482 C 0.86699 0.62902 0.68325 0.0
C1483 C 0.87332 0.6144 0.68611 0.0
C1484 C 0.85598 0.55751 0.68121 0.0
C1485 C 0.8855 0.53302 0.70337 0.0
C1486 C 0.87874 0.54843 0.69937 0.0
C1487 C 0.8592 0.59313 0.68805 0.0
C1488 C 0.86599 0.57777 0.6918 0.0
H1489 H 0.92858 0.53107 0.71323 0.0
H1490 H 0.9175 0.55626 0.70638 0.0
H1491 H 0.85452 0.52769 0.67618 0.0
H1492 H 0.81625 0.59597 0.6835 0.0
H1493 H 0.82736 0.57048 0.6884 0.0
C1494 C 0.43708 0.92303 0.19622 0.0
C1495 C 0.44897 0.93169 0.21493 0.0
C1496 C 0.44278 0.93396 0.17883 0.0
C1497 C 0.48729 0.97737 0.15804 0.0
H1498 H 0.44672 0.97007 0.11545 0.0
C1499 C 0.50574 0.02017 0.08377 0.0
C1500 C 0.49832 0.00593 0.06607 0.0
C1501 C 0.49921 0.01311 0.10274 0.0
C1502 C 0.45816 0.97229 0.1273 0.0
H1503 H 0.47576 0.95868 0.23049 0.0
H1504 H 0.48538 0.97831 0.20033 0.0
H1505 H 0.43627 0.95453 0.1476 0.0
H1506 H 0.47851 0.97319 0.0543 0.0
H1507 H 0.46639 0.96113 0.08723 0.0
H1508 H 0.50913 0.99548 0.13765 0.0
C1509 C 0.472 0.96278 0.1988 0.0
C1510 C 0.45223 0.96326 0.14565 0.0
C1511 C 0.46647 0.95164 0.21612 0.0
C1512 C 0.48407 0.98463 0.06758 0.0
C1513 C 0.47721 0.97769 0.08642 0.0
C1514 C 0.49321 0.98675 0.13984 0.0
C1515 C 0.46032 0.954 0.17986 0.0
C1516 C 0.46669 0.96526 0.1611 0.0
C1517 C 0.4849 0.99182 0.10417 0.0
C1518 C 0.47868 0.98392 0.1242 0.0
H1519 H 0.42362 0.90755 0.19493 0.0
H1520 H 0.43363 0.92641 0.16449 0.0
H1521 H 0.49888 0.97902 0.16937 0.0
H1522 H 0.51683 0.03665 0.08302 0.0
H1523 H 0.50535 0.02424 0.11629 0.0
C1524 C 0.07406 0.51249 0.21877 0.0
C1525 C 0.08759 0.53306 0.22781 0.0
C1526 C 0.06603 0.50908 0.19841 0.0
C1527 C 0.07341 0.53571 0.1502 0.0
H1528 H 0.01819 0.49102 0.13492 0.0
C1529 C 0.02628 0.53005 0.07602 0.0
C1530 C 0.01607 0.51035 0.06443 0.0
C1531 C 0.03599 0.53223 0.09533 0.0
C1532 C 0.03369 0.50342 0.13896 0.0
H1533 H 0.10335 0.56618 0.22219 0.0
H1534 H 0.0885 0.56037 0.18726 0.0
H1535 H 0.0329 0.49617 0.17003 0.0
H1536 H 0.00788 0.47744 0.06377 0.0
H1537 H 0.02455 0.48115 0.09791 0.0
H1538 H 0.07372 0.54344 0.11919 0.0
C1539 C 0.08449 0.54675 0.19569 0.0
C1540 C 0.0422 0.50635 0.15906 0.0
C1541 C 0.09275 0.55013 0.21593 0.0
C1542 C 0.01574 0.49282 0.07242 0.0
C1543 C 0.02517 0.49492 0.09192 0.0
C1544 C 0.06477 0.53299 0.1302 0.0
C1545 C 0.07105 0.52617 0.1866 0.0
C1546 C 0.06216 0.52262 0.165 0.0
C1547 C 0.03535 0.51465 0.10354 0.0
C1548 C 0.04482 0.51688 0.12444 0.0
H1549 H 0.06946 0.49894 0.22745 0.0
H1550 H 0.05597 0.49297 0.19194 0.0
H1551 H 0.08895 0.54808 0.154 0.0
H1552 H 0.02678 0.54381 0.07012 0.0
H1553 H 0.04363 0.54757 0.10405 0.0
C1554 C 0.45895 0.53818 0.20908 0.0
C1555 C 0.47528 0.5493 0.22425 0.0
C1556 C 0.46218 0.53355 0.18921 0.0
C1557 C 0.49886 0.55456 0.15279 0.0
H1558 H 0.47355 0.49814 0.12486 0.0
C1559 C 0.525 0.53935 0.07715 0.0
C1560 C 0.51097 0.5235 0.06241 0.0
C1561 C 0.51952 0.54177 0.09652 0.0
C1562 C 0.48046 0.51405 0.13225 0.0
H1563 H 0.50774 0.56326 0.23042 0.0
H1564 H 0.51334 0.55601 0.19552 0.0
H1565 H 0.46578 0.5032 0.15957 0.0
H1566 H 0.48026 0.49749 0.05638 0.0
H1567 H 0.4702 0.50238 0.08995 0.0
H1568 H 0.51301 0.56573 0.12557 0.0
C1569 C 0.49808 0.55091 0.19916 0.0
C1570 C 0.4761 0.51687 0.15217 0.0
C1571 C 0.49484 0.55518 0.2191 0.0
C1572 C 0.49127 0.51007 0.06738 0.0
C1573 C 0.48563 0.51271 0.08673 0.0
C1574 C 0.50291 0.55183 0.1328 0.0
C1575 C 0.48181 0.54026 0.18403 0.0
C1576 C 0.48554 0.53712 0.16268 0.0
C1577 C 0.49972 0.52862 0.10158 0.0
C1578 C 0.4941 0.5315 0.12236 0.0
H1579 H 0.44371 0.53364 0.2123 0.0
H1580 H 0.44942 0.52541 0.1777 0.0
H1581 H 0.50605 0.57038 0.16052 0.0
H1582 H 0.54036 0.54983 0.07379 0.0
H1583 H 0.53099 0.55381 0.10762 0.0
C1584 C 0.91832 0.46749 0.80342 0.0
C1585 C 0.92728 0.46287 0.78743 0.0
C1586 C 0.92715 0.47176 0.82356 0.0
C1587 C 0.9638 0.46388 0.85581 0.0
H1588 H 0.95763 0.50041 0.89598 0.0
C1589 C 0.98474 0.46521 0.9411 0.0
C1590 C 0.99351 0.48449 0.95329 0.0
C1591 C 0.97645 0.4634 0.92116 0.0
C1592 C 0.95973 0.49034 0.88494 0.0
H1593 H 0.95291 0.46007 0.77963 0.0
H1594 H 0.96892 0.4685 0.81455 0.0
H1595 H 0.94515 0.49731 0.86042 0.0
H1596 H 0.00033 0.51698 0.95451 0.0
H1597 H 0.98656 0.51415 0.91932 0.0
H1598 H 0.97919 0.45764 0.87999 0.0
C1599 C 0.95466 0.46804 0.81183 0.0
C1600 C 0.95228 0.48831 0.86453 0.0
C1601 C 0.94562 0.46338 0.79177 0.0
C1602 C 0.99357 0.5019 0.94537 0.0
C1603 C 0.98558 0.50021 0.92524 0.0
C1604 C 0.9715 0.46615 0.87608 0.0
C1605 C 0.94534 0.47184 0.82809 0.0
C1606 C 0.95406 0.4749 0.8497 0.0
C1607 C 0.97711 0.48097 0.91278 0.0
C1608 C 0.96936 0.4792 0.89102 0.0
H1609 H 0.90406 0.46699 0.80045 0.0
H1610 H 0.91931 0.47427 0.8356 0.0
H1611 H 0.96521 0.45312 0.84501 0.0
H1612 H 0.98427 0.45147 0.94699 0.0
H1613 H 0.96955 0.44816 0.91234 0.0
C1614 C 0.52318 0.47758 0.79235 0.0
C1615 C 0.54168 0.47831 0.79059 0.0
C1616 C 0.51843 0.48258 0.81133 0.0
C1617 C 0.52763 0.48089 0.86542 0.0
H1618 H 0.51276 0.52384 0.87459 0.0
C1619 C 0.51992 0.50603 0.94652 0.0
C1620 C 0.50467 0.51078 0.94978 0.0
C1621 C 0.52471 0.50364 0.92681 0.0
C1622 C 0.51658 0.51158 0.87225 0.0
H1623 H 0.5696 0.48464 0.80714 0.0
H1624 H 0.56106 0.49284 0.84041 0.0
H1625 H 0.5199 0.51607 0.84038 0.0
H1626 H 0.48251 0.51699 0.93498 0.0
H1627 H 0.49019 0.51184 0.90023 0.0
H1628 H 0.52368 0.47561 0.89679 0.0
C1629 C 0.5504 0.48868 0.82708 0.0
C1630 C 0.52074 0.50722 0.85268 0.0
C1631 C 0.5553 0.48409 0.80809 0.0
C1632 C 0.49445 0.51347 0.93288 0.0
C1633 C 0.49894 0.5106 0.91299 0.0
C1634 C 0.52313 0.48493 0.88482 0.0
C1635 C 0.53192 0.48794 0.82888 0.0
C1636 C 0.52657 0.49205 0.84921 0.0
C1637 C 0.51392 0.50527 0.90969 0.0
C1638 C 0.51788 0.50058 0.88864 0.0
H1639 H 0.51248 0.47324 0.77903 0.0
H1640 H 0.50405 0.48181 0.81239 0.0
H1641 H 0.53178 0.46887 0.86303 0.0
H1642 H 0.52786 0.50356 0.9592 0.0
H1643 H 0.53671 0.50015 0.92504 0.0
C1644 C 0.55073 0.07532 0.81235 0.0
C1645 C 0.5354 0.06445 0.7963 0.0
C1646 C 0.54837 0.06776 0.83165 0.0
C1647 C 0.52249 0.02082 0.8588 0.0
H1648 H 0.52465 0.0586 0.90368 0.0
C1649 C 0.49172 0.99094 0.93565 0.0
C1650 C 0.50043 0.00476 0.95354 0.0
C1651 C 0.49794 0.99801 0.91662 0.0
C1652 C 0.52443 0.04792 0.89152 0.0
H1653 H 0.50602 0.03693 0.78742 0.0
H1654 H 0.50213 0.02337 0.82112 0.0
H1655 H 0.53265 0.07127 0.87013 0.0
H1656 H 0.5227 0.03666 0.96568 0.0
H1657 H 0.53454 0.04865 0.93281 0.0
H1658 H 0.51469 0.99754 0.8801 0.0
C1659 C 0.51582 0.03779 0.8188 0.0
C1660 C 0.52892 0.05521 0.87225 0.0
C1661 C 0.51799 0.04558 0.79963 0.0
C1662 C 0.51587 0.02559 0.95216 0.0
C1663 C 0.52242 0.03254 0.93322 0.0
C1664 C 0.51839 0.01361 0.87818 0.0
C1665 C 0.53086 0.04899 0.83503 0.0
C1666 C 0.5277 0.04164 0.85569 0.0
C1667 C 0.51327 0.01899 0.91511 0.0
C1668 C 0.519 0.02698 0.89475 0.0
H1669 H 0.56424 0.08995 0.81009 0.0
H1670 H 0.56016 0.07662 0.84398 0.0
H1671 H 0.52159 0.01012 0.84622 0.0
H1672 H 0.47967 0.97482 0.93629 0.0
H1673 H 0.49025 0.98717 0.90308 0.0
C1674 C 0.12295 0.24337 0.52652 0.0
C1675 C 0.11114 0.24824 0.53885 0.0
C1676 C 0.12877 0.25259 0.50823 0.0
C1677 C 0.11679 0.27759 0.46772 0.0
H1678 H 0.17449 0.30839 0.46349 0.0
C1679 C 0.15205 0.33213 0.40329 0.0
C1680 C 0.16939 0.33338 0.39597 0.0
C1681 C 0.14405 0.32107 0.42026 0.0
C1682 C 0.15831 0.29956 0.46415 0.0
H1683 H 0.09579 0.26632 0.54115 0.0
H1684 H 0.10538 0.28172 0.50881 0.0
H1685 H 0.16151 0.28915 0.49318 0.0
H1686 H 0.19159 0.32355 0.39996 0.0
H1687 H 0.17734 0.30366 0.42893 0.0
H1688 H 0.11345 0.28745 0.43844 0.0
C1689 C 0.11016 0.27083 0.51348 0.0
C1690 C 0.15091 0.28863 0.48125 0.0
C1691 C 0.10462 0.2619 0.53196 0.0
C1692 C 0.1784 0.32313 0.40556 0.0
C1693 C 0.17025 0.3118 0.42225 0.0
C1694 C 0.12416 0.28823 0.45037 0.0
C1695 C 0.1226 0.26656 0.50168 0.0
C1696 C 0.13013 0.2776 0.48321 0.0
C1697 C 0.15311 0.31081 0.43002 0.0
C1698 C 0.14504 0.29939 0.44838 0.0
H1699 H 0.12787 0.23256 0.53104 0.0
H1700 H 0.1382 0.2489 0.49924 0.0
H1701 H 0.10067 0.26909 0.4689 0.0
H1702 H 0.14482 0.33988 0.39603 0.0
H1703 H 0.13098 0.32087 0.4259 0.0
C1704 C 0.75947 0.88391 0.55031 0.0
C1705 C 0.75298 0.86683 0.5624 0.0
C1706 C 0.75095 0.88099 0.53023 0.0
C1707 C 0.70655 0.84268 0.49424 0.0
H1708 H 0.73956 0.87748 0.45379 0.0
C1709 C 0.68066 0.82947 0.40736 0.0
C1710 C 0.68172 0.84733 0.39939 0.0
C1711 C 0.68984 0.83119 0.4269 0.0
C1712 C 0.73021 0.86767 0.46497 0.0
H1713 H 0.73209 0.83319 0.56262 0.0
H1714 H 0.7182 0.82789 0.52736 0.0
H1715 H 0.75465 0.88138 0.4885 0.0
H1716 H 0.69352 0.88101 0.40512 0.0
H1717 H 0.71006 0.88412 0.43909 0.0
H1718 H 0.68228 0.82861 0.47028 0.0
C1719 C 0.72951 0.84372 0.53355 0.0
C1720 C 0.73877 0.86999 0.48493 0.0
C1721 C 0.73777 0.84671 0.55376 0.0
C1722 C 0.69245 0.867 0.411 0.0
C1723 C 0.70197 0.8688 0.43034 0.0
C1724 C 0.69812 0.84009 0.47416 0.0
C1725 C 0.73594 0.86082 0.52148 0.0
C1726 C 0.727 0.85773 0.49995 0.0
C1727 C 0.70056 0.85088 0.43854 0.0
C1728 C 0.70982 0.85274 0.45944 0.0
H1729 H 0.77134 0.89959 0.55622 0.0
H1730 H 0.75609 0.89467 0.52166 0.0
H1731 H 0.69686 0.83319 0.50535 0.0
H1732 H 0.67241 0.81412 0.39868 0.0
H1733 H 0.68863 0.81718 0.43291 0.0
C1734 C 0.14658 0.89775 0.54112 0.0
C1735 C 0.13553 0.88115 0.5532 0.0
C1736 C 0.15054 0.89359 0.52148 0.0
C1737 C 0.13305 0.8545 0.47766 0.0
H1738 H 0.18901 0.88373 0.46583 0.0
C1739 C 0.15855 0.83681 0.4012 0.0
C1740 C 0.17494 0.85372 0.39341 0.0
C1741 C 0.15292 0.83946 0.42055 0.0
C1742 C 0.17326 0.87569 0.46867 0.0
H1743 H 0.11963 0.84702 0.55367 0.0
H1744 H 0.126 0.83982 0.51896 0.0
H1745 H 0.18037 0.88976 0.49958 0.0
H1746 H 0.1978 0.88678 0.39911 0.0
H1747 H 0.18758 0.89174 0.43233 0.0
H1748 H 0.12577 0.84094 0.44657 0.0
C1749 C 0.13168 0.85605 0.52495 0.0
C1750 C 0.16836 0.87906 0.48809 0.0
C1751 C 0.12799 0.86021 0.54479 0.0
C1752 C 0.18526 0.87342 0.40494 0.0
C1753 C 0.17946 0.87618 0.42406 0.0
C1754 C 0.1379 0.85137 0.45805 0.0
C1755 C 0.14323 0.87273 0.51326 0.0
C1756 C 0.14823 0.86858 0.49275 0.0
C1757 C 0.16344 0.85917 0.43233 0.0
C1758 C 0.15809 0.86203 0.45326 0.0
H1759 H 0.15216 0.91403 0.54677 0.0
H1760 H 0.15926 0.90671 0.51263 0.0
H1761 H 0.11739 0.84632 0.48089 0.0
H1762 H 0.15042 0.82142 0.39258 0.0
H1763 H 0.14066 0.82592 0.42643 0.0
C1764 C 0.57755 0.77762 0.13935 0.0
C1765 C 0.58356 0.79338 0.12569 0.0
C1766 C 0.58636 0.78247 0.15947 0.0
C1767 C 0.61144 0.82258 0.20175 0.0
H1768 H 0.63786 0.79119 0.21646 0.0
C1769 C 0.6577 0.83883 0.2804 0.0
C1770 C 0.65762 0.82153 0.28864 0.0
C1771 C 0.6485 0.8365 0.26069 0.0
C1772 C 0.63027 0.79986 0.21283 0.0
H1773 H 0.60294 0.8269 0.12299 0.0
H1774 H 0.6178 0.83543 0.15859 0.0
H1775 H 0.6215 0.78521 0.18211 0.0
H1776 H 0.6471 0.78811 0.2834 0.0
H1777 H 0.6303 0.78371 0.2496 0.0
H1778 H 0.61946 0.83664 0.2327 0.0
C1779 C 0.60642 0.81929 0.1534 0.0
C1780 C 0.62106 0.79653 0.19305 0.0
C1781 C 0.59785 0.81437 0.13307 0.0
C1782 C 0.64763 0.80176 0.27723 0.0
C1783 C 0.63814 0.79932 0.25776 0.0
C1784 C 0.62036 0.82565 0.22175 0.0
C1785 C 0.60105 0.80326 0.16658 0.0
C1786 C 0.61145 0.80773 0.18738 0.0
C1787 C 0.6388 0.81673 0.24899 0.0
C1788 C 0.62975 0.81416 0.22761 0.0
H1789 H 0.56615 0.76141 0.13448 0.0
H1790 H 0.58179 0.76991 0.16948 0.0
H1791 H 0.60404 0.83134 0.19768 0.0
H1792 H 0.66537 0.85426 0.28895 0.0
H1793 H 0.64949 0.85031 0.25446 0.0
C1794 C 0.20615 0.78735 0.14045 0.0
C1795 C 0.21672 0.80429 0.1286 0.0
C1796 C 0.20042 0.79064 0.15947 0.0
C1797 C 0.19384 0.82997 0.19149 0.0
H1798 H 0.19225 0.7952 0.23454 0.0
C1799 C 0.18151 0.84512 0.27562 0.0
C1800 C 0.16578 0.82755 0.28342 0.0
C1801 C 0.1884 0.84282 0.25695 0.0
C1802 C 0.19259 0.80497 0.22261 0.0
H1803 H 0.22935 0.83809 0.12765 0.0
H1804 H 0.22041 0.84401 0.16121 0.0
H1805 H 0.20348 0.79053 0.20172 0.0
H1806 H 0.14504 0.79382 0.27816 0.0
H1807 H 0.15741 0.78969 0.24566 0.0
H1808 H 0.18349 0.84477 0.21284 0.0
C1809 C 0.21605 0.82802 0.15559 0.0
C1810 C 0.19889 0.80223 0.20373 0.0
C1811 C 0.2215 0.82467 0.1364 0.0
C1812 C 0.15716 0.80761 0.2724 0.0
C1813 C 0.16429 0.80524 0.25392 0.0
C1814 C 0.1879 0.83295 0.21052 0.0
C1815 C 0.20539 0.81105 0.16739 0.0
C1816 C 0.19938 0.81452 0.1878 0.0
C1817 C 0.17988 0.82284 0.24598 0.0
C1818 C 0.18703 0.82032 0.22615 0.0
H1819 H 0.20245 0.77147 0.13518 0.0
H1820 H 0.19192 0.77708 0.16785 0.0
H1821 H 0.19366 0.8395 0.17957 0.0
H1822 H 0.18832 0.86067 0.28385 0.0
H1823 H 0.2005 0.8566 0.25116 0.0
C1824 C 0.18181 0.38462 0.1368 0.0
C1825 C 0.20183 0.39773 0.13241 0.0
C1826 C 0.17767 0.37478 0.1549 0.0
C1827 C 0.20142 0.37923 0.20692 0.0
H1828 H 0.15207 0.32602 0.20997 0.0
C1829 C 0.17811 0.33754 0.28152 0.0
C1830 C 0.15915 0.33382 0.28652 0.0
C1831 C 0.18437 0.34352 0.2622 0.0
C1832 C 0.16593 0.34085 0.20928 0.0
H1833 H 0.23322 0.4101 0.14342 0.0
H1834 H 0.22597 0.39209 0.17452 0.0
H1835 H 0.16156 0.33924 0.17674 0.0
H1836 H 0.13144 0.33241 0.27511 0.0
H1837 H 0.1421 0.34222 0.24114 0.0
H1838 H 0.20575 0.38055 0.23957 0.0
C1839 C 0.21345 0.38993 0.16423 0.0
C1840 C 0.17133 0.34853 0.19029 0.0
C1841 C 0.21761 0.40004 0.14622 0.0
C1842 C 0.14619 0.33529 0.27166 0.0
C1843 C 0.15225 0.34084 0.25224 0.0
C1844 C 0.19618 0.37134 0.22588 0.0
C1845 C 0.19342 0.37745 0.16898 0.0
C1846 C 0.18888 0.36809 0.1889 0.0
C1847 C 0.17148 0.34525 0.24743 0.0
C1848 C 0.17816 0.35234 0.22724 0.0
H1849 H 0.16925 0.3821 0.12634 0.0
H1850 H 0.16205 0.36555 0.15806 0.0
H1851 H 0.21488 0.39447 0.20656 0.0
H1852 H 0.18806 0.33576 0.29248 0.0
H1853 H 0.19918 0.34663 0.25872 0.0
C1854 C 0.80547 0.61595 0.88661 0.0
C1855 C 0.78746 0.59686 0.88782 0.0
C1856 C 0.80987 0.625 0.86806 0.0
C1857 C 0.80019 0.61207 0.81304 0.0
H1858 H 0.81478 0.67062 0.81014 0.0
C1859 C 0.81103 0.64735 0.7359 0.0
C1860 C 0.82677 0.66819 0.73527 0.0
C1861 C 0.80517 0.63919 0.7546 0.0
C1862 C 0.81101 0.65434 0.8107 0.0
H1863 H 0.76012 0.57202 0.87072 0.0
H1864 H 0.76805 0.58763 0.83811 0.0
H1865 H 0.80741 0.65524 0.84279 0.0
H1866 H 0.84856 0.697 0.75357 0.0
H1867 H 0.83896 0.68255 0.78631 0.0
H1868 H 0.80443 0.61115 0.78131 0.0
C1869 C 0.77862 0.59566 0.85154 0.0
C1870 C 0.80672 0.64554 0.82939 0.0
C1871 C 0.77406 0.5868 0.87015 0.0
C1872 C 0.8363 0.68089 0.75366 0.0
C1873 C 0.83069 0.67261 0.77242 0.0
C1874 C 0.80477 0.62092 0.79445 0.0
C1875 C 0.7965 0.6149 0.85037 0.0
C1876 C 0.80121 0.62432 0.83068 0.0
C1877 C 0.81523 0.65153 0.77312 0.0
C1878 C 0.81016 0.64216 0.79298 0.0
H1879 H 0.81596 0.62404 0.90008 0.0
H1880 H 0.82381 0.63977 0.86748 0.0
H1881 H 0.7962 0.59572 0.81372 0.0
H1882 H 0.80349 0.63717 0.72194 0.0
H1883 H 0.79289 0.62308 0.75447 0.0
C1884 C 0.42093 0.21477 0.88509 0.0
C1885 C 0.4156 0.19804 0.89747 0.0
C1886 C 0.41223 0.21102 0.86499 0.0
C1887 C 0.36901 0.17035 0.82927 0.0
H1888 H 0.40051 0.20616 0.7886 0.0
C1889 C 0.34283 0.15587 0.74224 0.0
C1890 C 0.34269 0.1732 0.73434 0.0
C1891 C 0.35219 0.15806 0.76181 0.0
C1892 C 0.39158 0.19605 0.79983 0.0
H1893 H 0.39661 0.16413 0.89816 0.0
H1894 H 0.38238 0.15746 0.86284 0.0
H1895 H 0.41601 0.21121 0.82332 0.0
H1896 H 0.35259 0.20646 0.7402 0.0
H1897 H 0.36947 0.21045 0.77418 0.0
H1898 H 0.34477 0.15488 0.80534 0.0
C1899 C 0.39292 0.17361 0.86883 0.0
C1900 C 0.40036 0.19903 0.8198 0.0
C1901 C 0.40136 0.17741 0.88908 0.0
C1902 C 0.35242 0.19285 0.74604 0.0
C1903 C 0.36214 0.19515 0.76538 0.0
C1904 C 0.36037 0.16713 0.80917 0.0
C1905 C 0.39821 0.19037 0.85649 0.0
C1906 C 0.38911 0.18644 0.83491 0.0
C1907 C 0.36193 0.17774 0.77352 0.0
C1908 C 0.3715 0.18015 0.79438 0.0
H1909 H 0.43206 0.23083 0.89079 0.0
H1910 H 0.41645 0.22443 0.8562 0.0
H1911 H 0.35971 0.16054 0.84045 0.0
H1912 H 0.33536 0.14055 0.73348 0.0
H1913 H 0.35191 0.14445 0.76777 0.0
C1914 C 0.82533 0.21048 0.88983 0.0
C1915 C 0.808 0.21147 0.89355 0.0
C1916 C 0.82861 0.20611 0.86994 0.0
C1917 C 0.80367 0.18736 0.81651 0.0
H1918 H 0.85917 0.21681 0.8033 0.0
C1919 C 0.82715 0.17288 0.73757 0.0
C1920 C 0.84382 0.18991 0.73026 0.0
C1921 C 0.82175 0.17489 0.7572 0.0
C1922 C 0.84353 0.20867 0.80656 0.0
H1923 H 0.7804 0.20851 0.87963 0.0
H1924 H 0.78645 0.20176 0.84473 0.0
H1925 H 0.85167 0.22131 0.83778 0.0
H1926 H 0.8672 0.22266 0.73696 0.0
H1927 H 0.85731 0.22658 0.77069 0.0
H1928 H 0.79551 0.17567 0.7849 0.0
C1929 C 0.79726 0.20368 0.85713 0.0
C1930 C 0.83924 0.21092 0.82656 0.0
C1931 C 0.79381 0.20765 0.8771 0.0
C1932 C 0.85446 0.2092 0.74243 0.0
C1933 C 0.84886 0.21136 0.76184 0.0
C1934 C 0.80795 0.18538 0.79637 0.0
C1935 C 0.81485 0.2031 0.85324 0.0
C1936 C 0.81927 0.20027 0.83187 0.0
C1937 C 0.83274 0.1941 0.76972 0.0
C1938 C 0.82795 0.19606 0.79111 0.0
H1939 H 0.83637 0.21316 0.90235 0.0
H1940 H 0.84204 0.20523 0.8677 0.0
H1941 H 0.78813 0.17868 0.82001 0.0
H1942 H 0.81874 0.15781 0.72842 0.0
H1943 H 0.80937 0.16119 0.76274 0.0
C1944 C 0.24739 0.13136 0.47344 0.0
C1945 C 0.25637 0.12693 0.45734 0.0
C1946 C 0.25643 0.13585 0.4935 0.0
C1947 C 0.29383 0.12885 0.52538 0.0
H1948 H 0.28707 0.16477 0.56577 0.0
C1949 C 0.31449 0.12977 0.61063 0.0
C1950 C 0.32298 0.14892 0.62299 0.0
C1951 C 0.30638 0.12808 0.59065 0.0
C1952 C 0.28935 0.15489 0.55466 0.0
H1953 H 0.28223 0.12473 0.44926 0.0
H1954 H 0.29859 0.13354 0.48405 0.0
H1955 H 0.27445 0.16161 0.53025 0.0
H1956 H 0.32956 0.18133 0.62443 0.0
H1957 H 0.31603 0.17871 0.58918 0.0
H1958 H 0.30951 0.12285 0.54947 0.0
C1959 C 0.28418 0.13276 0.48147 0.0
C1960 C 0.28182 0.15282 0.53428 0.0
C1961 C 0.27493 0.12787 0.46149 0.0
C1962 C 0.32298 0.16634 0.61517 0.0
C1963 C 0.31514 0.16478 0.595 0.0
C1964 C 0.30161 0.13117 0.54563 0.0
C1965 C 0.27485 0.13636 0.49784 0.0
C1966 C 0.28377 0.13959 0.51938 0.0
C1967 C 0.30692 0.14565 0.58239 0.0
C1968 C 0.29924 0.14397 0.56064 0.0
H1969 H 0.23296 0.13053 0.47061 0.0
H1970 H 0.24859 0.13819 0.50564 0.0
H1971 H 0.29541 0.11825 0.51453 0.0
H1972 H 0.31409 0.11603 0.61643 0.0
H1973 H 0.29966 0.11292 0.5817 0.0
C1974 C 0.8615 0.14727 0.46142 0.0
C1975 C 0.88022 0.14835 0.4604 0.0
C1976 C 0.85596 0.15182 0.48013 0.0
C1977 C 0.86298 0.14841 0.53403 0.0
H1978 H 0.84846 0.19154 0.54398 0.0
C1979 C 0.85383 0.17146 0.61525 0.0
C1980 C 0.83861 0.17628 0.61848 0.0
C1981 C 0.85893 0.16953 0.59559 0.0
C1982 C 0.85217 0.17921 0.5414 0.0
H1983 H 0.90777 0.1549 0.47797 0.0
H1984 H 0.89787 0.16232 0.51069 0.0
H1985 H 0.85659 0.18488 0.50985 0.0
H1986 H 0.81684 0.18304 0.60368 0.0
H1987 H 0.82509 0.1787 0.56899 0.0
H1988 H 0.858 0.14202 0.56504 0.0
C1989 C 0.88764 0.15826 0.49702 0.0
C1990 C 0.85688 0.17549 0.52189 0.0
C1991 C 0.89332 0.15412 0.47833 0.0
C1992 C 0.82874 0.17945 0.60161 0.0
C1993 C 0.83356 0.17706 0.58176 0.0
C1994 C 0.85793 0.15182 0.55334 0.0
C1995 C 0.86889 0.15704 0.4981 0.0
C1996 C 0.86265 0.1603 0.51819 0.0
C1997 C 0.84851 0.1717 0.57848 0.0
C1998 C 0.85285 0.16755 0.55745 0.0
H1999 H 0.85118 0.1429 0.44776 0.0
H2000 H 0.84138 0.15069 0.48066 0.0
H2001 H 0.86707 0.13638 0.53143 0.0
H2002 H 0.8615 0.16861 0.6279 0.0
H2003 H 0.87091 0.16599 0.59383 0.0
C2004 C 0.86677 0.71933 0.47169 0.0
C2005 C 0.87015 0.73989 0.47068 0.0
C2006 C 0.86271 0.71003 0.49016 0.0
C2007 C 0.84569 0.71616 0.54063 0.0
H2008 H 0.86315 0.67708 0.55614 0.0
C2009 C 0.84235 0.69101 0.62166 0.0
C2010 C 0.83054 0.66916 0.623 0.0
C2011 C 0.84834 0.69879 0.60289 0.0
C2012 C 0.85815 0.68791 0.55187 0.0
H2013 H 0.87307 0.76733 0.48805 0.0
H2014 H 0.86698 0.75166 0.52044 0.0
H2015 H 0.87184 0.69288 0.52368 0.0
H2016 H 0.81663 0.63826 0.60612 0.0
H2017 H 0.82755 0.65201 0.57306 0.0
H2018 H 0.83261 0.7117 0.56913 0.0
C2019 C 0.86654 0.74223 0.50696 0.0
C2020 C 0.86301 0.69689 0.53328 0.0
C2021 C 0.87019 0.75132 0.48847 0.0
C2022 C 0.82566 0.65517 0.60541 0.0
C2023 C 0.83194 0.66299 0.5866 0.0
C2024 C 0.84118 0.70751 0.55928 0.0
C2025 C 0.86231 0.7213 0.50799 0.0
C2026 C 0.85695 0.71127 0.5275 0.0
C2027 C 0.8429 0.68488 0.58516 0.0
C2028 C 0.84745 0.69342 0.5651 0.0
H2029 H 0.86663 0.71025 0.45806 0.0
H2030 H 0.85935 0.69384 0.49031 0.0
H2031 H 0.84021 0.72663 0.5365 0.0
H2032 H 0.8464 0.70216 0.635 0.0
H2033 H 0.85692 0.71573 0.60212 0.0
loop_
_geom_bond_atom_site_label_1
_geom_bond_atom_site_label_2
_geom_bond_distance
_geom_bond_site_symmetry_2
_ccdc_geom_bond_type
H0 C7 0.929 . S
H1 C10 0.930 . S
H2 C12 0.929 . S
H3 C4 0.969 . S
C4 H3 0.969 . S
C4 O5 1.550 . S
C4 H6 0.973 . S
O5 C4 1.550 . S
O5 C11 1.412 . S
H6 C4 0.973 . S
C7 H0 0.929 . S
C7 C8 1.400 . S
C7 C9 1.364 . S
C8 C7 1.400 . S
C8 C12 1.377 . S
C9 C7 1.364 . S
C9 C10 1.374 . S
C10 H1 0.930 . S
C10 C9 1.374 . S
C10 C11 1.383 . S
C11 O5 1.412 . S
C11 C10 1.383 . S
C11 C12 1.394 . S
C12 H2 0.929 . S
C12 C8 1.377 . S
C12 C11 1.394 . S
H13 C20 0.929 . S
H14 C23 0.930 . S
H15 C25 0.929 . S
H16 C17 0.969 . S
C17 H16 0.969 . S
C17 O18 1.550 . S
C17 H19 0.973 . S
O18 C17 1.550 . S
O18 C24 1.412 . S
H19 C17 0.973 . S
C20 H13 0.929 . S
C20 C21 1.400 . S
C20 C22 1.364 . S
C21 C20 1.400 . S
C21 C25 1.377 . S
C22 C20 1.364 . S
C22 C23 1.374 . S
C23 H14 0.930 . S
C23 C22 1.374 . S
C23 C24 1.383 . S
C24 O18 1.412 . S
C24 C23 1.383 . S
C24 C25 1.394 . S
C25 H15 0.929 . S
C25 C21 1.377 . S
C25 C24 1.394 . S
H26 C33 0.929 . S
H27 C36 0.930 . S
H28 C38 0.929 . S
H29 C30 0.969 . S
C30 H29 0.969 . S
C30 O31 1.550 . S
C30 H32 0.973 . S
O31 C30 1.550 . S
O31 C37 1.412 . S
H32 C30 0.973 . S
C33 H26 0.929 . S
C33 C34 1.400 . S
C33 C35 1.364 . S
C34 C33 1.400 . S
C34 C38 1.377 . S
C35 C33 1.364 . S
C35 C36 1.374 . S
C36 H27 0.930 . S
C36 C35 1.374 . S
C36 C37 1.383 . S
C37 O31 1.412 . S
C37 C36 1.383 . S
C37 C38 1.394 . S
C38 H28 0.929 . S
C38 C34 1.377 . S
C38 C37 1.394 . S
H39 C46 0.929 . S
H40 C49 0.930 . S
H41 C51 0.929 . S
H42 C43 0.969 . S
C43 H42 0.969 . S
C43 O44 1.550 . S
C43 H45 0.973 . S
O44 C43 1.550 . S
O44 C50 1.412 . S
H45 C43 0.973 . S
C46 H39 0.929 . S
C46 C47 1.400 . S
C46 C48 1.364 . S
C47 C46 1.400 . S
C47 C51 1.377 . S
C48 C46 1.364 . S
C48 C49 1.374 . S
C49 H40 0.930 . S
C49 C48 1.374 . S
C49 C50 1.383 . S
C50 O44 1.412 . S
C50 C49 1.383 . S
C50 C51 1.394 . S
C51 H41 0.929 . S
C51 C47 1.377 . S
C51 C50 1.394 . S
H52 C59 0.929 . S
H53 C62 0.930 . S
H54 C64 0.929 . S
H55 C56 0.969 . S
C56 H55 0.969 . S
C56 O57 1.550 . S
C56 H58 0.973 . S
O57 C56 1.550 . S
O57 C63 1.412 . S
H58 C56 0.973 . S
C59 H52 0.929 . S
C59 C60 1.400 . S
C59 C61 1.364 . S
C60 C59 1.400 . S
C60 C64 1.377 . S
C61 C59 1.364 . S
C61 C62 1.374 . S
C62 H53 0.930 . S
C62 C61 1.374 . S
C62 C63 1.383 . S
C63 O57 1.412 . S
C63 C62 1.383 . S
C63 C64 1.394 . S
C64 H54 0.929 . S
C64 C60 1.377 . S
C64 C63 1.394 . S
H65 C72 0.929 . S
H66 C75 0.930 . S
H67 C77 0.929 . S
H68 C69 0.969 . S
C69 H68 0.969 . S
C69 O70 1.550 . S
C69 H71 0.973 . S
O70 C69 1.550 . S
O70 C76 1.412 . S
H71 C69 0.973 . S
C72 H65 0.929 . S
C72 C73 1.400 . S
C72 C74 1.364 . S
C73 C72 1.400 . S
C73 C77 1.377 . S
C74 C72 1.364 . S
C74 C75 1.374 . S
C75 H66 0.930 . S
C75 C74 1.374 . S
C75 C76 1.383 . S
C76 O70 1.412 . S
C76 C75 1.383 . S
C76 C77 1.394 . S
C77 H67 0.929 . S
C77 C73 1.377 . S
C77 C76 1.394 . S
H78 C85 0.929 . S
H79 C88 0.930 . S
H80 C90 0.929 . S
H81 C82 0.969 . S
C82 H81 0.969 . S
C82 O83 1.550 . S
C82 H84 0.973 . S
O83 C82 1.550 . S
O83 C89 1.412 . S
H84 C82 0.973 . S
C85 H78 0.929 . S
C85 C86 1.400 . S
C85 C87 1.364 . S
C86 C85 1.400 . S
C86 C90 1.377 . S
C87 C85 1.364 . S
C87 C88 1.374 . S
C88 H79 0.930 . S
C88 C87 1.374 . S
C88 C89 1.383 . S
C89 O83 1.412 . S
C89 C88 1.383 . S
C89 C90 1.394 . S
C90 H80 0.929 . S
C90 C86 1.377 . S
C90 C89 1.394 . S
H91 C98 0.929 . S
H92 C101 0.930 . S
H93 C103 0.929 . S
H94 C95 0.969 . S
C95 H94 0.969 . S
C95 O96 1.550 . S
C95 H97 0.973 . S
O96 C95 1.550 . S
O96 C102 1.412 . S
H97 C95 0.973 . S
C98 H91 0.929 . S
C98 C99 1.400 . S
C98 C100 1.364 . S
C99 C98 1.400 . S
C99 C103 1.377 . S
C100 C98 1.364 . S
C100 C101 1.374 . S
C101 H92 0.930 . S
C101 C100 1.374 . S
C101 C102 1.383 . S
C102 O96 1.412 . S
C102 C101 1.383 . S
C102 C103 1.394 . S
C103 H93 0.929 . S
C103 C99 1.377 . S
C103 C102 1.394 . S
H104 C111 0.929 . S
H105 C114 0.930 . S
H106 C116 0.929 . S
H107 C108 0.969 . S
C108 H107 0.969 . S
C108 O109 1.550 . S
C108 H110 0.973 . S
O109 C108 1.550 . S
O109 C115 1.412 . S
H110 C108 0.973 . S
C111 H104 0.929 . S
C111 C112 1.400 . S
C111 C113 1.364 . S
C112 C111 1.400 . S
C112 C116 1.377 . S
C113 C111 1.364 . S
C113 C114 1.374 . S
C114 H105 0.930 . S
C114 C113 1.374 . S
C114 C115 1.383 . S
C115 O109 1.412 . S
C115 C114 1.383 . S
C115 C116 1.394 . S
C116 H106 0.929 . S
C116 C112 1.377 . S
C116 C115 1.394 . S
H117 C124 0.929 . S
H118 C127 0.930 . S
H119 C129 0.929 . S
H120 C121 0.969 . S
C121 H120 0.969 . S
C121 O122 1.550 . S
C121 H123 0.973 . S
O122 C121 1.550 . S
O122 C128 1.412 . S
H123 C121 0.973 . S
C124 H117 0.929 . S
C124 C125 1.400 . S
C124 C126 1.364 . S
C125 C124 1.400 . S
C125 C129 1.377 . S
C126 C124 1.364 . S
C126 C127 1.374 . S
C127 H118 0.930 . S
C127 C126 1.374 . S
C127 C128 1.383 . S
C128 O122 1.412 . S
C128 C127 1.383 . S
C128 C129 1.394 . S
C129 H119 0.929 . S
C129 C125 1.377 . S
C129 C128 1.394 . S
H130 C137 0.929 . S
H131 C140 0.930 . S
H132 C142 0.929 . S
H133 C134 0.969 . S
C134 H133 0.969 . S
C134 O135 1.550 . S
C134 H136 0.973 . S
O135 C134 1.550 . S
O135 C141 1.412 . S
H136 C134 0.973 . S
C137 H130 0.929 . S
C137 C138 1.400 . S
C137 C139 1.364 . S
C138 C137 1.400 . S
C138 C142 1.377 . S
C139 C137 1.364 . S
C139 C140 1.374 . S
C140 H131 0.930 . S
C140 C139 1.374 . S
C140 C141 1.383 . S
C141 O135 1.412 . S
C141 C140 1.383 . S
C141 C142 1.394 . S
C142 H132 0.929 . S
C142 C138 1.377 . S
C142 C141 1.394 . S
H143 C150 0.929 . S
H144 C153 0.930 . S
H145 C155 0.929 . S
H146 C147 0.969 . S
C147 H146 0.969 . S
C147 O148 1.550 . S
C147 H149 0.973 . S
O148 C147 1.550 . S
O148 C154 1.412 . S
H149 C147 0.973 . S
C150 H143 0.929 . S
C150 C151 1.400 . S
C150 C152 1.364 . S
C151 C150 1.400 . S
C151 C155 1.377 . S
C152 C150 1.364 . S
C152 C153 1.374 . S
C153 H144 0.930 . S
C153 C152 1.374 . S
C153 C154 1.383 . S
C154 O148 1.412 . S
C154 C153 1.383 . S
C154 C155 1.394 . S
C155 H145 0.929 . S
C155 C151 1.377 . S
C155 C154 1.394 . S
H156 C163 0.929 . S
H157 C166 0.930 . S
H158 C168 0.929 . S
H159 C160 0.969 . S
C160 H159 0.969 . S
C160 O161 1.550 . S
C160 H162 0.973 . S
O161 C160 1.550 . S
O161 C167 1.412 . S
H162 C160 0.973 . S
C163 H156 0.929 . S
C163 C164 1.400 . S
C163 C165 1.364 . S
C164 C163 1.400 . S
C164 C168 1.377 . S
C165 C163 1.364 . S
C165 C166 1.374 . S
C166 H157 0.930 . S
C166 C165 1.374 . S
C166 C167 1.383 . S
C167 O161 1.412 . S
C167 C166 1.383 . S
C167 C168 1.394 . S
C168 H158 0.929 . S
C168 C164 1.377 . S
C168 C167 1.394 . S
H169 C176 0.929 . S
H170 C179 0.930 . S
H171 C181 0.929 . S
H172 C173 0.969 . S
C173 H172 0.969 . S
C173 O174 1.550 . S
C173 H175 0.973 . S
O174 C173 1.550 . S
O174 C180 1.412 . S
H175 C173 0.973 . S
C176 H169 0.929 . S
C176 C177 1.400 . S
C176 C178 1.364 . S
C177 C176 1.400 . S
C177 C181 1.377 . S
C178 C176 1.364 . S
C178 C179 1.374 . S
C179 H170 0.930 . S
C179 C178 1.374 . S
C179 C180 1.383 . S
C180 O174 1.412 . S
C180 C179 1.383 . S
C180 C181 1.394 . S
C181 H171 0.929 . S
C181 C177 1.377 . S
C181 C180 1.394 . S
H182 C189 0.929 . S
H183 C192 0.930 . S
H184 C194 0.929 . S
H185 C186 0.969 . S
C186 H185 0.969 . S
C186 O187 1.550 . S
C186 H188 0.973 . S
O187 C186 1.550 . S
O187 C193 1.412 . S
H188 C186 0.973 . S
C189 H182 0.929 . S
C189 C190 1.400 . S
C189 C191 1.364 . S
C190 C189 1.400 . S
C190 C194 1.377 . S
C191 C189 1.364 . S
C191 C192 1.374 . S
C192 H183 0.930 . S
C192 C191 1.374 . S
C192 C193 1.383 . S
C193 O187 1.412 . S
C193 C192 1.383 . S
C193 C194 1.394 . S
C194 H184 0.929 . S
C194 C190 1.377 . S
C194 C193 1.394 . S
H195 C202 0.929 . S
H196 C205 0.930 . S
H197 C207 0.929 . S
H198 C199 0.969 . S
C199 H198 0.969 . S
C199 O200 1.550 . S
C199 H201 0.973 . S
O200 C199 1.550 . S
O200 C206 1.412 . S
H201 C199 0.973 . S
C202 H195 0.929 . S
C202 C203 1.400 . S
C202 C204 1.364 . S
C203 C202 1.400 . S
C203 C207 1.377 . S
C204 C202 1.364 . S
C204 C205 1.374 . S
C205 H196 0.930 . S
C205 C204 1.374 . S
C205 C206 1.383 . S
C206 O200 1.412 . S
C206 C205 1.383 . S
C206 C207 1.394 . S
C207 H197 0.929 . S
C207 C203 1.377 . S
C207 C206 1.394 . S
H208 C215 0.929 . S
H209 C218 0.930 . S
H210 C220 0.929 . S
H211 C212 0.969 . S
C212 H211 0.969 . S
C212 O213 1.550 . S
C212 H214 0.973 . S
O213 C212 1.550 . S
O213 C219 1.412 . S
H214 C212 0.973 . S
C215 H208 0.929 . S
C215 C216 1.400 . S
C215 C217 1.364 . S
C216 C215 1.400 . S
C216 C220 1.377 . S
C217 C215 1.364 . S
C217 C218 1.374 . S
C218 H209 0.930 . S
C218 C217 1.374 . S
C218 C219 1.383 . S
C219 O213 1.412 . S
C219 C218 1.383 . S
C219 C220 1.394 . S
C220 H210 0.929 . S
C220 C216 1.377 . S
C220 C219 1.394 . S
H221 C228 0.929 . S
H222 C231 0.930 . S
H223 C233 0.929 . S
H224 C225 0.969 . S
C225 H224 0.969 . S
C225 O226 1.550 . S
C225 H227 0.973 . S
O226 C225 1.550 . S
O226 C232 1.412 . S
H227 C225 0.973 . S
C228 H221 0.929 . S
C228 C229 1.400 . S
C228 C230 1.364 . S
C229 C228 1.400 . S
C229 C233 1.377 . S
C230 C228 1.364 . S
C230 C231 1.374 . S
C231 H222 0.930 . S
C231 C230 1.374 . S
C231 C232 1.383 . S
C232 O226 1.412 . S
C232 C231 1.383 . S
C232 C233 1.394 . S
C233 H223 0.929 . S
C233 C229 1.377 . S
C233 C232 1.394 . S
Tb234 O237 2.453 . S
Tb234 O238 2.596 1_545 S
Tb234 O239 2.374 1_545 S
Tb234 O247 2.343 1_554 S
Tb234 O249 2.353 . S
Tb234 O251 2.427 . S
Tb234 O252 2.529 . S
C235 O239 1.251 . S
C235 O241 1.233 1_554 S
Tb236 O238 2.343 1_556 S
Tb236 O241 2.361 . S
Tb236 O244 2.427 1_556 S
Tb236 O245 2.513 1_556 S
Tb236 O246 2.453 . S
Tb236 O247 2.596 1_565 S
Tb236 O248 2.373 1_566 S
O237 Tb234 2.453 . S
O237 C253 1.245 1_545 S
O238 Tb234 2.596 1_565 S
O238 Tb236 2.343 1_554 S
O238 C253 1.259 . S
O239 Tb234 2.374 1_565 S
O239 C235 1.251 . S
C240 O244 1.275 . S
C240 O245 1.246 . S
O241 C235 1.233 1_556 S
O241 Tb236 2.361 . S
C242 O246 1.245 1_545 S
C242 O247 1.259 . S
C243 O248 1.253 . S
C243 O249 1.263 . S
O244 Tb236 2.427 1_554 S
O244 C240 1.275 . S
O245 Tb236 2.513 1_554 S
O245 C240 1.246 . S
O246 Tb236 2.453 . S
O246 C242 1.245 1_565 S
O247 Tb234 2.343 1_556 S
O247 Tb236 2.596 1_545 S
O247 C242 1.259 . S
O248 Tb236 2.373 1_544 S
O248 C243 1.253 . S
O249 Tb234 2.353 . S
O249 C243 1.263 . S
C250 O251 1.275 1_556 S
C250 O252 1.241 1_556 S
O251 Tb234 2.427 . S
O251 C250 1.275 1_554 S
O252 Tb234 2.529 . S
O252 C250 1.241 1_554 S
C253 O237 1.245 1_565 S
C253 O238 1.259 . S
Tb254 O257 2.453 . S
Tb254 O258 2.596 1_655 S
Tb254 O259 2.374 1_655 S
Tb254 O267 2.343 1_554 S
Tb254 O269 2.353 . S
Tb254 O271 2.427 1_554 S
Tb254 O272 2.513 1_554 S
C255 O259 1.251 . S
C255 O261 1.263 . S
Tb256 O258 2.343 1_556 S
Tb256 O261 2.353 1_556 S
Tb256 O264 2.427 1_556 S
Tb256 O265 2.513 1_556 S
Tb256 O266 2.453 . S
Tb256 O267 2.596 1_455 S
Tb256 O268 2.374 1_455 S
O257 Tb254 2.453 . S
O257 C273 1.245 1_655 S
O258 Tb254 2.596 1_455 S
O258 Tb256 2.343 1_554 S
O258 C273 1.259 . S
O259 Tb254 2.374 1_455 S
O259 C255 1.251 . S
C260 O264 1.275 . S
C260 O265 1.246 . S
O261 C255 1.263 . S
O261 Tb256 2.353 1_554 S
C262 O266 1.245 1_655 S
C262 O267 1.259 . S
C263 O268 1.250 1_554 S
C263 O269 1.263 . S
O264 Tb256 2.427 1_554 S
O264 C260 1.275 . S
O265 Tb256 2.513 1_554 S
O265 C260 1.246 . S
O266 Tb256 2.453 . S
O266 C262 1.245 1_455 S
O267 Tb254 2.343 1_556 S
O267 Tb256 2.596 1_655 S
O267 C262 1.259 . S
O268 Tb256 2.374 1_655 S
O268 C263 1.250 1_556 S
O269 Tb254 2.353 . S
O269 C263 1.263 . S
C270 O271 1.275 . S
C270 O272 1.246 . S
O271 Tb254 2.427 1_556 S
O271 C270 1.275 . S
O272 Tb254 2.513 1_556 S
O272 C270 1.246 . S
C273 O257 1.245 1_455 S
C273 O258 1.259 . S
Tb274 O277 2.452 1_554 S
Tb274 O278 2.596 1_554 S
Tb274 O279 2.374 . S
Tb274 O287 2.344 . S
Tb274 O289 2.353 . S
Tb274 O291 2.427 . S
Tb274 O292 2.513 . S
C275 O279 1.251 . S
C275 O281 1.263 . S
Tb276 O278 2.343 1_554 S
Tb276 O281 2.353 . S
Tb276 O284 2.427 . S
Tb276 O285 2.533 . S
Tb276 O286 2.453 . S
Tb276 O287 2.596 . S
Tb276 O288 2.374 . S
O277 Tb274 2.452 1_556 S
O277 C293 1.245 . S
O278 Tb274 2.596 1_556 S
O278 Tb276 2.343 1_556 S
O278 C293 1.259 . S
O279 Tb274 2.374 . S
O279 C275 1.251 . S
C280 O284 1.275 1_556 S
C280 O285 1.241 1_556 S
O281 C275 1.263 . S
O281 Tb276 2.353 . S
C282 O286 1.245 . S
C282 O287 1.259 . S
C283 O288 1.250 . S
C283 O289 1.263 . S
O284 Tb276 2.427 . S
O284 C280 1.275 1_554 S
O285 Tb276 2.533 . S
O285 C280 1.241 1_554 S
O286 Tb276 2.453 . S
O286 C282 1.245 . S
O287 Tb274 2.344 . S
O287 Tb276 2.596 . S
O287 C282 1.259 . S
O288 Tb276 2.374 . S
O288 C283 1.250 . S
O289 Tb274 2.353 . S
O289 C283 1.263 . S
C290 O291 1.275 . S
C290 O292 1.246 . S
O291 Tb274 2.427 . S
O291 C290 1.275 . S
O292 Tb274 2.513 . S
O292 C290 1.246 . S
C293 O277 1.245 . S
C293 O278 1.259 . S
Tb294 O297 2.453 . S
Tb294 O298 2.596 . S
Tb294 O299 2.374 . S
Tb294 O307 2.343 . S
Tb294 O309 2.353 . S
Tb294 O311 2.427 . S
Tb294 O312 2.513 . S
C295 O299 1.251 . S
C295 O301 1.263 . S
Tb296 O298 2.343 . S
Tb296 O301 2.353 . S
Tb296 O304 2.427 . S
Tb296 O305 2.513 . S
Tb296 O306 2.453 . S
Tb296 O307 2.596 . S
Tb296 O308 2.374 . S
O297 Tb294 2.453 . S
O297 C313 1.245 . S
O298 Tb294 2.596 . S
O298 Tb296 2.343 . S
O298 C313 1.259 . S
O299 Tb294 2.374 . S
O299 C295 1.251 . S
C300 O304 1.275 . S
C300 O305 1.246 . S
O301 C295 1.263 . S
O301 Tb296 2.353 . S
C302 O306 1.245 . S
C302 O307 1.259 . S
C303 O308 1.250 . S
C303 O309 1.263 . S
O304 Tb296 2.427 . S
O304 C300 1.275 . S
O305 Tb296 2.513 . S
O305 C300 1.246 . S
O306 Tb296 2.453 . S
O306 C302 1.245 . S
O307 Tb294 2.343 . S
O307 Tb296 2.596 . S
O307 C302 1.259 . S
O308 Tb296 2.374 . S
O308 C303 1.250 . S
O309 Tb294 2.353 . S
O309 C303 1.263 . S
C310 O311 1.275 . S
C310 O312 1.246 . S
O311 Tb294 2.427 . S
O311 C310 1.275 . S
O312 Tb294 2.513 . S
O312 C310 1.246 . S
C313 O297 1.245 . S
C313 O298 1.259 . S
Tb314 O317 2.453 . S
Tb314 O318 2.596 . S
Tb314 O319 2.374 . S
Tb314 O327 2.343 . S
Tb314 O329 2.353 . S
Tb314 O331 2.427 . S
Tb314 O332 2.513 . S
C315 O319 1.251 . S
C315 O321 1.263 . S
Tb316 O318 2.343 . S
Tb316 O321 2.353 . S
Tb316 O324 2.427 . S
Tb316 O325 2.513 . S
Tb316 O326 2.453 . S
Tb316 O327 2.596 . S
Tb316 O328 2.374 . S
O317 Tb314 2.453 . S
O317 C333 1.245 . S
O318 Tb314 2.596 . S
O318 Tb316 2.343 . S
O318 C333 1.259 . S
O319 Tb314 2.374 . S
O319 C315 1.251 . S
C320 O324 1.275 . S
C320 O325 1.246 . S
O321 C315 1.263 . S
O321 Tb316 2.353 . S
C322 O326 1.245 . S
C322 O327 1.259 . S
C323 O328 1.250 . S
C323 O329 1.263 . S
O324 Tb316 2.427 . S
O324 C320 1.275 . S
O325 Tb316 2.513 . S
O325 C320 1.246 . S
O326 Tb316 2.453 . S
O326 C322 1.245 . S
O327 Tb314 2.343 . S
O327 Tb316 2.596 . S
O327 C322 1.259 . S
O328 Tb316 2.374 . S
O328 C323 1.250 . S
O329 Tb314 2.353 . S
O329 C323 1.263 . S
C330 O331 1.275 . S
C330 O332 1.246 . S
O331 Tb314 2.427 . S
O331 C330 1.275 . S
O332 Tb314 2.513 . S
O332 C330 1.246 . S
C333 O317 1.245 . S
C333 O318 1.259 . S
Tb334 O337 2.453 . S
Tb334 O338 2.596 . S
Tb334 O339 2.374 . S
Tb334 O347 2.343 . S
Tb334 O349 2.353 . S
Tb334 O351 2.427 . S
Tb334 O352 2.513 . S
C335 O339 1.251 . S
C335 O341 1.263 . S
Tb336 O338 2.343 . S
Tb336 O341 2.353 . S
Tb336 O344 2.427 . S
Tb336 O345 2.513 . S
Tb336 O346 2.453 . S
Tb336 O347 2.596 . S
Tb336 O348 2.374 . S
O337 Tb334 2.453 . S
O337 C353 1.245 . S
O338 Tb334 2.596 . S
O338 Tb336 2.343 . S
O338 C353 1.259 . S
O339 Tb334 2.374 . S
O339 C335 1.251 . S
C340 O344 1.275 . S
C340 O345 1.246 . S
O341 C335 1.263 . S
O341 Tb336 2.353 . S
C342 O346 1.245 . S
C342 O347 1.259 . S
C343 O348 1.250 . S
C343 O349 1.263 . S
O344 Tb336 2.427 . S
O344 C340 1.275 . S
O345 Tb336 2.513 . S
O345 C340 1.246 . S
O346 Tb336 2.453 . S
O346 C342 1.245 . S
O347 Tb334 2.343 . S
O347 Tb336 2.596 . S
O347 C342 1.259 . S
O348 Tb336 2.374 . S
O348 C343 1.250 . S
O349 Tb334 2.353 . S
O349 C343 1.263 . S
C350 O351 1.275 . S
C350 O352 1.246 . S
O351 Tb334 2.427 . S
O351 C350 1.275 . S
O352 Tb334 2.513 . S
O352 C350 1.246 . S
C353 O337 1.245 . S
C353 O338 1.259 . S
Tb354 O357 2.453 . S
Tb354 O358 2.596 . S
Tb354 O359 2.374 . S
Tb354 O367 2.343 . S
Tb354 O369 2.353 . S
Tb354 O371 2.427 . S
Tb354 O372 2.513 . S
C355 O359 1.251 . S
C355 O361 1.263 . S
Tb356 O358 2.343 . S
Tb356 O361 2.353 . S
Tb356 O364 2.427 . S
Tb356 O365 2.513 . S
Tb356 O366 2.453 . S
Tb356 O367 2.596 . S
Tb356 O368 2.374 . S
O357 Tb354 2.453 . S
O357 C373 1.245 . S
O358 Tb354 2.596 . S
O358 Tb356 2.343 . S
O358 C373 1.259 . S
O359 Tb354 2.374 . S
O359 C355 1.251 . S
C360 O364 1.275 . S
C360 O365 1.246 . S
O361 C355 1.263 . S
O361 Tb356 2.353 . S
C362 O366 1.245 . S
C362 O367 1.259 . S
C363 O368 1.250 . S
C363 O369 1.263 . S
O364 Tb356 2.427 . S
O364 C360 1.275 . S
O365 Tb356 2.513 . S
O365 C360 1.246 . S
O366 Tb356 2.453 . S
O366 C362 1.245 . S
O367 Tb354 2.343 . S
O367 Tb356 2.596 . S
O367 C362 1.259 . S
O368 Tb356 2.374 . S
O368 C363 1.250 . S
O369 Tb354 2.353 . S
O369 C363 1.263 . S
C370 O371 1.275 . S
C370 O372 1.246 . S
O371 Tb354 2.427 . S
O371 C370 1.275 . S
O372 Tb354 2.513 . S
O372 C370 1.246 . S
C373 O357 1.245 . S
C373 O358 1.259 . S
Tb374 O377 2.453 . S
Tb374 O378 2.596 . S
Tb374 O379 2.374 . S
Tb374 O387 2.343 . S
Tb374 O389 2.353 . S
Tb374 O391 2.427 . S
Tb374 O392 2.513 . S
C375 O379 1.251 . S
C375 O381 1.263 . S
Tb376 O378 2.343 . S
Tb376 O381 2.353 . S
Tb376 O384 2.427 . S
Tb376 O385 2.513 . S
Tb376 O386 2.453 . S
Tb376 O387 2.596 . S
Tb376 O388 2.374 . S
O377 Tb374 2.453 . S
O377 C393 1.245 . S
O378 Tb374 2.596 . S
O378 Tb376 2.343 . S
O378 C393 1.259 . S
O379 Tb374 2.374 . S
O379 C375 1.251 . S
C380 O384 1.275 . S
C380 O385 1.246 . S
O381 C375 1.263 . S
O381 Tb376 2.353 . S
C382 O386 1.245 . S
C382 O387 1.259 . S
C383 O388 1.250 . S
C383 O389 1.263 . S
O384 Tb376 2.427 . S
O384 C380 1.275 . S
O385 Tb376 2.513 . S
O385 C380 1.246 . S
O386 Tb376 2.453 . S
O386 C382 1.245 . S
O387 Tb374 2.343 . S
O387 Tb376 2.596 . S
O387 C382 1.259 . S
O388 Tb376 2.374 . S
O388 C383 1.250 . S
O389 Tb374 2.353 . S
O389 C383 1.263 . S
C390 O391 1.275 . S
C390 O392 1.246 . S
O391 Tb374 2.427 . S
O391 C390 1.275 . S
O392 Tb374 2.513 . S
O392 C390 1.246 . S
C393 O377 1.245 . S
C393 O378 1.259 . S
Tb394 O397 2.453 . S
Tb394 O398 2.596 . S
Tb394 O399 2.374 . S
Tb394 O407 2.343 . S
Tb394 O409 2.353 . S
Tb394 O411 2.427 . S
Tb394 O412 2.513 . S
C395 O399 1.251 . S
C395 O401 1.263 . S
Tb396 O398 2.343 . S
Tb396 O401 2.353 . S
Tb396 O404 2.427 . S
Tb396 O405 2.513 . S
Tb396 O406 2.453 . S
Tb396 O407 2.596 . S
Tb396 O408 2.374 . S
O397 Tb394 2.453 . S
O397 C413 1.245 . S
O398 Tb394 2.596 . S
O398 Tb396 2.343 . S
O398 C413 1.259 . S
O399 Tb394 2.374 . S
O399 C395 1.251 . S
C400 O404 1.275 . S
C400 O405 1.246 . S
O401 C395 1.263 . S
O401 Tb396 2.353 . S
C402 O406 1.245 . S
C402 O407 1.259 . S
C403 O408 1.250 . S
C403 O409 1.263 . S
O404 Tb396 2.427 . S
O404 C400 1.275 . S
O405 Tb396 2.513 . S
O405 C400 1.246 . S
O406 Tb396 2.453 . S
O406 C402 1.245 . S
O407 Tb394 2.343 . S
O407 Tb396 2.596 . S
O407 C402 1.259 . S
O408 Tb396 2.374 . S
O408 C403 1.250 . S
O409 Tb394 2.353 . S
O409 C403 1.263 . S
C410 O411 1.275 . S
C410 O412 1.246 . S
O411 Tb394 2.427 . S
O411 C410 1.275 . S
O412 Tb394 2.513 . S
O412 C410 1.246 . S
C413 O397 1.245 . S
C413 O398 1.259 . S
C414 C415 1.349 . S
C414 C416 1.327 . S
C414 H439 0.950 . S
C415 C414 1.349 . S
C415 C431 1.349 . S
C416 C414 1.327 . S
C416 C435 1.429 . S
C416 H440 0.950 . S
C417 C434 1.574 . S
C417 C436 1.368 . S
C417 H441 0.949 . S
H418 C422 0.949 . S
C419 C420 1.349 . S
C419 C421 1.327 . S
C419 H442 0.950 . S
C420 C419 1.349 . S
C420 C432 1.349 . S
C421 C419 1.327 . S
C421 C437 1.429 . S
C421 H443 0.950 . S
C422 H418 0.949 . S
C422 C430 1.574 . S
C422 C438 1.368 . S
H423 C431 0.950 . S
H424 C429 0.950 . S
H425 C430 0.949 . S
H426 C432 0.950 . S
H427 C433 0.950 . S
H428 C434 0.949 . S
C429 H424 0.950 . S
C429 C431 1.327 . S
C429 C435 1.429 . S
C430 C422 1.574 . S
C430 H425 0.949 . S
C430 C436 1.368 . S
C431 C415 1.349 . S
C431 H423 0.950 . S
C431 C429 1.327 . S
C432 C420 1.349 . S
C432 H426 0.950 . S
C432 C433 1.327 . S
C433 H427 0.950 . S
C433 C432 1.327 . S
C433 C437 1.429 . S
C434 C417 1.574 . S
C434 H428 0.949 . S
C434 C438 1.368 . S
C435 C416 1.429 . S
C435 C429 1.429 . S
C435 C436 1.523 . S
C436 C417 1.368 . S
C436 C430 1.368 . S
C436 C435 1.523 . S
C437 C421 1.429 . S
C437 C433 1.429 . S
C437 C438 1.523 . S
C438 C422 1.368 . S
C438 C434 1.368 . S
C438 C437 1.523 . S
H439 C414 0.950 . S
H440 C416 0.950 . S
H441 C417 0.949 . S
H442 C419 0.950 . S
H443 C421 0.950 . S
C444 C445 1.349 . S
C444 C446 1.327 . S
C444 H469 0.950 . S
C445 C444 1.349 . S
C445 C461 1.349 . S
C446 C444 1.327 . S
C446 C465 1.429 . S
C446 H470 0.950 . S
C447 C464 1.574 . S
C447 C466 1.368 . S
C447 H471 0.949 . S
H448 C452 0.949 . S
C449 C450 1.349 . S
C449 C451 1.327 . S
C449 H472 0.950 . S
C450 C449 1.349 . S
C450 C462 1.349 . S
C451 C449 1.327 . S
C451 C467 1.429 . S
C451 H473 0.950 . S
C452 H448 0.949 . S
C452 C460 1.574 . S
C452 C468 1.368 . S
H453 C461 0.950 . S
H454 C459 0.950 . S
H455 C460 0.949 . S
H456 C462 0.950 . S
H457 C463 0.950 . S
H458 C464 0.949 . S
C459 H454 0.950 . S
C459 C461 1.327 . S
C459 C465 1.429 . S
C460 C452 1.574 . S
C460 H455 0.949 . S
C460 C466 1.368 . S
C461 C445 1.349 . S
C461 H453 0.950 . S
C461 C459 1.327 . S
C462 C450 1.349 . S
C462 H456 0.950 . S
C462 C463 1.327 . S
C463 H457 0.950 . S
C463 C462 1.327 . S
C463 C467 1.429 . S
C464 C447 1.574 . S
C464 H458 0.949 . S
C464 C468 1.368 . S
C465 C446 1.429 . S
C465 C459 1.429 . S
C465 C466 1.523 . S
C466 C447 1.368 . S
C466 C460 1.368 . S
C466 C465 1.523 . S
C467 C451 1.429 . S
C467 C463 1.429 . S
C467 C468 1.523 . S
C468 C452 1.368 . S
C468 C464 1.368 . S
C468 C467 1.523 . S
H469 C444 0.950 . S
H470 C446 0.950 . S
H471 C447 0.949 . S
H472 C449 0.950 . S
H473 C451 0.950 . S
C474 C475 1.349 . S
C474 C476 1.327 . S
C474 H499 0.950 . S
C475 C474 1.349 . S
C475 C491 1.349 . S
C476 C474 1.327 . S
C476 C495 1.429 . S
C476 H500 0.950 . S
C477 C494 1.574 . S
C477 C496 1.368 . S
C477 H501 0.949 . S
H478 C482 0.949 . S
C479 C480 1.349 . S
C479 C481 1.327 . S
C479 H502 0.950 . S
C480 C479 1.349 . S
C480 C492 1.349 . S
C481 C479 1.327 . S
C481 C497 1.429 . S
C481 H503 0.950 . S
C482 H478 0.949 . S
C482 C490 1.574 . S
C482 C498 1.368 . S
H483 C491 0.950 . S
H484 C489 0.950 . S
H485 C490 0.949 . S
H486 C492 0.950 1_556 S
H487 C493 0.911 1_556 S
H488 C494 0.949 . S
C489 H484 0.950 . S
C489 C491 1.327 . S
C489 C495 1.429 . S
C490 C482 1.574 . S
C490 H485 0.949 . S
C490 C496 1.368 . S
C491 C475 1.349 . S
C491 H483 0.950 . S
C491 C489 1.327 . S
C492 C480 1.349 . S
C492 H486 0.950 1_554 S
C492 C493 1.327 . S
C493 H487 0.911 1_554 S
C493 C492 1.327 . S
C493 C497 1.429 . S
C494 C477 1.574 . S
C494 H488 0.949 . S
C494 C498 1.368 . S
C495 C476 1.429 . S
C495 C489 1.429 . S
C495 C496 1.523 . S
C496 C477 1.368 . S
C496 C490 1.368 . S
C496 C495 1.523 . S
C497 C481 1.429 . S
C497 C493 1.429 . S
C497 C498 1.523 . S
C498 C482 1.368 . S
C498 C494 1.368 . S
C498 C497 1.523 . S
H499 C474 0.950 . S
H500 C476 0.950 . S
H501 C477 0.949 . S
H502 C479 0.950 . S
H503 C481 0.950 . S
C504 C505 1.349 . S
C504 C506 1.327 . S
C504 H529 0.950 . S
C505 C504 1.349 . S
C505 C521 1.349 . S
C506 C504 1.327 . S
C506 C525 1.429 . S
C506 H530 0.950 . S
C507 C524 1.574 . S
C507 C526 1.368 . S
C507 H531 0.949 . S
H508 C512 0.949 . S
C509 C510 1.349 1_554 S
C509 C511 1.333 . S
C509 H532 0.950 . S
C510 C509 1.349 1_556 S
C510 C522 1.349 . S
C511 C509 1.333 . S
C511 C527 1.401 1_554 S
C511 H533 0.974 . S
C512 H508 0.949 . S
C512 C520 1.574 . S
C512 C528 1.368 . S
H513 C521 0.950 . S
H514 C519 0.950 . S
H515 C520 0.949 . S
H516 C522 0.950 . S
H517 C523 0.950 . S
H518 C524 0.949 1_554 S
C519 H514 0.950 . S
C519 C521 1.327 . S
C519 C525 1.429 . S
C520 C512 1.574 . S
C520 H515 0.949 . S
C520 C526 1.368 . S
C521 C505 1.349 . S
C521 H513 0.950 . S
C521 C519 1.327 . S
C522 C510 1.349 . S
C522 H516 0.950 . S
C522 C523 1.327 . S
C523 H517 0.950 . S
C523 C522 1.327 . S
C523 C527 1.429 . S
C524 C507 1.574 . S
C524 H518 0.949 1_556 S
C524 C528 1.368 . S
C525 C506 1.429 . S
C525 C519 1.429 . S
C525 C526 1.523 . S
C526 C507 1.368 . S
C526 C520 1.368 . S
C526 C525 1.523 . S
C527 C511 1.401 1_556 S
C527 C523 1.429 . S
C527 C528 1.523 . S
C528 C512 1.368 . S
C528 C524 1.368 . S
C528 C527 1.523 . S
H529 C504 0.950 . S
H530 C506 0.950 . S
H531 C507 0.949 . S
H532 C509 0.950 . S
H533 C511 0.974 . S
C534 C535 1.349 . S
C534 C536 1.327 . S
C534 H559 0.950 . S
C535 C534 1.349 . S
C535 C551 1.349 . S
C536 C534 1.327 . S
C536 C555 1.429 . S
C536 H560 0.950 . S
C537 C554 1.574 . S
C537 C556 1.368 . S
C537 H561 0.949 . S
H538 C542 0.949 . S
C539 C540 1.349 . S
C539 C541 1.327 . S
C539 H562 0.950 . S
C540 C539 1.349 . S
C540 C552 1.349 . S
C541 C539 1.327 . S
C541 C557 1.429 . S
C541 H563 0.950 . S
C542 H538 0.949 . S
C542 C550 1.574 . S
C542 C558 1.368 . S
H543 C551 0.950 . S
H544 C549 0.950 . S
H545 C550 0.949 . S
H546 C552 0.950 . S
H547 C553 0.950 . S
H548 C554 0.949 . S
C549 H544 0.950 . S
C549 C551 1.327 . S
C549 C555 1.429 . S
C550 C542 1.574 . S
C550 H545 0.949 . S
C550 C556 1.368 . S
C551 C535 1.349 . S
C551 H543 0.950 . S
C551 C549 1.327 . S
C552 C540 1.349 . S
C552 H546 0.950 . S
C552 C553 1.327 . S
C553 H547 0.950 . S
C553 C552 1.327 . S
C553 C557 1.429 . S
C554 C537 1.574 . S
C554 H548 0.949 . S
C554 C558 1.368 . S
C555 C536 1.429 . S
C555 C549 1.429 . S
C555 C556 1.523 . S
C556 C537 1.368 . S
C556 C550 1.368 . S
C556 C555 1.523 . S
C557 C541 1.429 . S
C557 C553 1.429 . S
C557 C558 1.523 . S
C558 C542 1.368 . S
C558 C554 1.368 . S
C558 C557 1.523 . S
H559 C534 0.950 . S
H560 C536 0.950 . S
H561 C537 0.949 . S
H562 C539 0.950 . S
H563 C541 0.950 . S
C564 C565 1.349 . S
C564 C566 1.327 . S
C564 H589 0.950 . S
C565 C564 1.349 . S
C565 C581 1.349 . S
C566 C564 1.327 . S
C566 C585 1.429 . S
C566 H590 0.950 . S
C567 C584 1.574 . S
C567 C586 1.368 . S
C567 H591 0.949 . S
H568 C572 0.916 1_554 S
C569 C570 1.354 . S
C569 C571 1.327 . S
C569 H592 0.950 . S
C570 C569 1.354 . S
C570 C582 1.345 1_556 S
C571 C569 1.327 . S
C571 C587 1.429 . S
C571 H593 0.950 . S
C572 H568 0.916 1_556 S
C572 C580 1.584 . S
C572 C588 1.396 . S
H573 C581 0.950 . S
H574 C579 0.950 . S
H575 C580 0.949 1_554 S
H576 C582 0.950 . S
H577 C583 0.950 . S
H578 C584 0.949 . S
C579 H574 0.950 . S
C579 C581 1.327 . S
C579 C585 1.429 . S
C580 C572 1.584 . S
C580 H575 0.949 1_556 S
C580 C586 1.368 . S
C581 C565 1.349 . S
C581 H573 0.950 . S
C581 C579 1.327 . S
C582 C570 1.345 1_554 S
C582 H576 0.950 . S
C582 C583 1.327 . S
C583 H577 0.950 . S
C583 C582 1.327 . S
C583 C587 1.429 1_554 S
C584 C567 1.574 . S
C584 H578 0.949 . S
C584 C588 1.368 . S
C585 C566 1.429 . S
C585 C579 1.429 . S
C585 C586 1.523 . S
C586 C567 1.368 . S
C586 C580 1.368 . S
C586 C585 1.523 . S
C587 C571 1.429 . S
C587 C583 1.429 1_556 S
C587 C588 1.523 . S
C588 C572 1.396 . S
C588 C584 1.368 . S
C588 C587 1.523 . S
H589 C564 0.950 . S
H590 C566 0.950 . S
H591 C567 0.949 . S
H592 C569 0.950 . S
H593 C571 0.950 . S
C594 C595 1.349 . S
C594 C596 1.327 . S
C594 H619 0.950 . S
C595 C594 1.349 . S
C595 C611 1.349 . S
C596 C594 1.327 . S
C596 C615 1.429 . S
C596 H620 0.950 . S
C597 C614 1.574 . S
C597 C616 1.368 . S
C597 H621 0.949 . S
H598 C602 0.949 1_554 S
C599 C600 1.349 . S
C599 C601 1.327 . S
C599 H622 0.950 . S
C600 C599 1.349 . S
C600 C612 1.349 1_556 S
C601 C599 1.327 . S
C601 C617 1.429 . S
C601 H623 0.950 . S
C602 H598 0.949 1_556 S
C602 C610 1.574 . S
C602 C618 1.368 . S
H603 C611 0.950 . S
H604 C609 0.950 . S
H605 C610 0.963 . S
H606 C612 0.950 . S
H607 C613 0.950 . S
H608 C614 0.949 . S
C609 H604 0.950 . S
C609 C611 1.327 . S
C609 C615 1.429 . S
C610 C602 1.574 . S
C610 H605 0.963 . S
C610 C616 1.368 . S
C611 C595 1.349 . S
C611 H603 0.950 . S
C611 C609 1.327 . S
C612 C600 1.349 1_554 S
C612 H606 0.950 . S
C612 C613 1.327 . S
C613 H607 0.950 . S
C613 C612 1.327 . S
C613 C617 1.429 1_554 S
C614 C597 1.574 . S
C614 H608 0.949 . S
C614 C618 1.368 . S
C615 C596 1.429 . S
C615 C609 1.429 . S
C615 C616 1.523 . S
C616 C597 1.368 . S
C616 C610 1.368 . S
C616 C615 1.523 . S
C617 C601 1.429 . S
C617 C613 1.429 1_556 S
C617 C618 1.523 . S
C618 C602 1.368 . S
C618 C614 1.368 . S
C618 C617 1.523 . S
H619 C594 0.950 . S
H620 C596 0.950 . S
H621 C597 0.949 . S
H622 C599 0.950 . S
H623 C601 0.950 . S
C624 C625 1.349 . S
C624 C626 1.327 . S
C624 H649 0.950 . S
C625 C624 1.349 . S
C625 C641 1.349 . S
C626 C624 1.327 . S
C626 C645 1.429 . S
C626 H650 0.950 . S
C627 C644 1.574 . S
C627 C646 1.368 . S
C627 H651 0.949 . S
H628 C632 0.949 . S
C629 C630 1.349 . S
C629 C631 1.327 . S
C629 H652 0.950 1_556 S
C630 C629 1.349 . S
C630 C642 1.349 . S
C631 C629 1.327 . S
C631 C647 1.429 . S
C631 H653 0.922 1_556 S
C632 H628 0.949 . S
C632 C640 1.574 . S
C632 C648 1.368 . S
H633 C641 0.950 . S
H634 C639 0.950 . S
H635 C640 0.949 . S
H636 C642 0.950 . S
H637 C643 0.950 . S
H638 C644 0.949 . S
C639 H634 0.950 . S
C639 C641 1.327 . S
C639 C645 1.429 . S
C640 C632 1.574 . S
C640 H635 0.949 . S
C640 C646 1.368 . S
C641 C625 1.349 . S
C641 H633 0.950 . S
C641 C639 1.327 . S
C642 C630 1.349 . S
C642 H636 0.950 . S
C642 C643 1.327 . S
C643 H637 0.950 . S
C643 C642 1.327 . S
C643 C647 1.429 . S
C644 C627 1.574 . S
C644 H638 0.949 . S
C644 C648 1.368 . S
C645 C626 1.429 . S
C645 C639 1.429 . S
C645 C646 1.523 . S
C646 C627 1.368 . S
C646 C640 1.368 . S
C646 C645 1.523 . S
C647 C631 1.429 . S
C647 C643 1.429 . S
C647 C648 1.523 . S
C648 C632 1.368 . S
C648 C644 1.368 . S
C648 C647 1.523 . S
H649 C624 0.950 . S
H650 C626 0.950 . S
H651 C627 0.949 . S
H652 C629 0.950 1_554 S
H653 C631 0.922 1_554 S
C654 C655 1.349 . S
C654 C656 1.327 . S
C654 H679 0.950 . S
C655 C654 1.349 . S
C655 C671 1.349 . S
C656 C654 1.327 . S
C656 C675 1.429 . S
C656 H680 0.950 . S
C657 C674 1.574 . S
C657 C676 1.368 1_554 S
C657 H681 0.949 . S
H658 C662 0.949 . S
C659 C660 1.349 . S
C659 C661 1.327 . S
C659 H682 0.950 . S
C660 C659 1.349 . S
C660 C672 1.349 1_554 S
C661 C659 1.327 . S
C661 C677 1.429 1_554 S
C661 H683 0.950 . S
C662 H658 0.949 . S
C662 C670 1.574 . S
C662 C678 1.368 . S
H663 C671 0.950 1_554 S
H664 C669 0.950 1_554 S
H665 C670 0.949 . S
H666 C672 0.950 . S
H667 C673 0.950 . S
H668 C674 0.949 . S
C669 H664 0.950 1_556 S
C669 C671 1.327 . S
C669 C675 1.429 . S
C670 C662 1.574 . S
C670 H665 0.949 . S
C670 C676 1.368 . S
C671 C655 1.349 . S
C671 H663 0.950 1_556 S
C671 C669 1.327 . S
C672 C660 1.349 1_556 S
C672 H666 0.950 . S
C672 C673 1.327 . S
C673 H667 0.950 . S
C673 C672 1.327 . S
C673 C677 1.429 . S
C674 C657 1.574 . S
C674 H668 0.949 . S
C674 C678 1.368 1_554 S
C675 C656 1.429 . S
C675 C669 1.429 . S
C675 C676 1.523 . S
C676 C657 1.368 1_556 S
C676 C670 1.368 . S
C676 C675 1.523 . S
C677 C661 1.429 1_556 S
C677 C673 1.429 . S
C677 C678 1.523 . S
C678 C662 1.368 . S
C678 C674 1.368 1_556 S
C678 C677 1.523 . S
H679 C654 0.950 . S
H680 C656 0.950 . S
H681 C657 0.949 . S
H682 C659 0.950 . S
H683 C661 0.950 . S
C684 C685 1.349 . S
C684 C686 1.327 . S
C684 H709 0.950 . S
C685 C684 1.349 . S
C685 C701 1.349 . S
C686 C684 1.327 . S
C686 C705 1.429 . S
C686 H710 0.950 . S
C687 C704 1.574 . S
C687 C706 1.368 . S
C687 H711 0.949 . S
H688 C692 0.949 . S
C689 C690 1.349 . S
C689 C691 1.327 . S
C689 H712 0.950 1_554 S
C690 C689 1.349 . S
C690 C702 1.349 . S
C691 C689 1.327 . S
C691 C707 1.429 . S
C691 H713 0.950 . S
C692 H688 0.949 . S
C692 C700 1.574 . S
C692 C708 1.368 . S
H693 C701 0.950 . S
H694 C699 0.950 . S
H695 C700 0.949 . S
H696 C702 0.950 . S
H697 C703 0.950 . S
H698 C704 0.949 . S
C699 H694 0.950 . S
C699 C701 1.327 . S
C699 C705 1.429 . S
C700 C692 1.574 . S
C700 H695 0.949 . S
C700 C706 1.368 . S
C701 C685 1.349 . S
C701 H693 0.950 . S
C701 C699 1.327 . S
C702 C690 1.349 . S
C702 H696 0.950 . S
C702 C703 1.327 . S
C703 H697 0.950 . S
C703 C702 1.327 . S
C703 C707 1.429 . S
C704 C687 1.574 . S
C704 H698 0.949 . S
C704 C708 1.368 . S
C705 C686 1.429 . S
C705 C699 1.429 . S
C705 C706 1.523 . S
C706 C687 1.368 . S
C706 C700 1.368 . S
C706 C705 1.523 . S
C707 C691 1.429 . S
C707 C703 1.429 . S
C707 C708 1.523 . S
C708 C692 1.368 . S
C708 C704 1.368 . S
C708 C707 1.523 . S
H709 C684 0.950 . S
H710 C686 0.950 . S
H711 C687 0.949 . S
H712 C689 0.950 1_556 S
H713 C691 0.950 . S
C714 C715 1.349 . S
C714 C716 1.327 . S
C714 H739 0.950 . S
C715 C714 1.349 . S
C715 C731 1.349 . S
C716 C714 1.327 . S
C716 C735 1.429 . S
C716 H740 0.950 . S
C717 C734 1.574 . S
C717 C736 1.368 . S
C717 H741 0.949 . S
H718 C722 0.949 . S
C719 C720 1.349 . S
C719 C721 1.327 . S
C719 H742 0.950 . S
C720 C719 1.349 . S
C720 C732 1.349 . S
C721 C719 1.327 . S
C721 C737 1.429 . S
C721 H743 0.950 . S
C722 H718 0.949 . S
C722 C730 1.574 . S
C722 C738 1.368 . S
H723 C731 0.950 . S
H724 C729 0.950 . S
H725 C730 0.949 . S
H726 C732 0.950 . S
H727 C733 0.950 . S
H728 C734 0.949 . S
C729 H724 0.950 . S
C729 C731 1.327 . S
C729 C735 1.429 . S
C730 C722 1.574 . S
C730 H725 0.949 . S
C730 C736 1.368 . S
C731 C715 1.349 . S
C731 H723 0.950 . S
C731 C729 1.327 . S
C732 C720 1.349 . S
C732 H726 0.950 . S
C732 C733 1.327 . S
C733 H727 0.950 . S
C733 C732 1.327 . S
C733 C737 1.429 . S
C734 C717 1.574 . S
C734 H728 0.949 . S
C734 C738 1.368 . S
C735 C716 1.429 . S
C735 C729 1.429 . S
C735 C736 1.523 . S
C736 C717 1.368 . S
C736 C730 1.368 . S
C736 C735 1.523 . S
C737 C721 1.429 . S
C737 C733 1.429 . S
C737 C738 1.523 . S
C738 C722 1.368 . S
C738 C734 1.368 . S
C738 C737 1.523 . S
H739 C714 0.950 . S
H740 C716 0.950 . S
H741 C717 0.949 . S
H742 C719 0.950 . S
H743 C721 0.950 . S
C744 C745 1.349 . S
C744 C746 1.327 . S
C744 H769 0.950 . S
C745 C744 1.349 . S
C745 C761 1.349 . S
C746 C744 1.327 . S
C746 C765 1.429 . S
C746 H770 0.950 . S
C747 C764 1.574 . S
C747 C766 1.368 . S
C747 H771 0.949 . S
H748 C752 0.949 . S
C749 C750 1.349 . S
C749 C751 1.327 . S
C749 H772 0.950 1_554 S
C750 C749 1.349 . S
C750 C762 1.349 . S
C751 C749 1.327 . S
C751 C767 1.429 . S
C751 H773 0.950 . S
C752 H748 0.949 . S
C752 C760 1.574 . S
C752 C768 1.368 . S
H753 C761 0.950 . S
H754 C759 0.950 . S
H755 C760 0.949 . S
H756 C762 0.950 . S
H757 C763 0.950 . S
H758 C764 0.949 . S
C759 H754 0.950 . S
C759 C761 1.327 . S
C759 C765 1.429 . S
C760 C752 1.574 . S
C760 H755 0.949 . S
C760 C766 1.368 . S
C761 C745 1.349 . S
C761 H753 0.950 . S
C761 C759 1.327 . S
C762 C750 1.349 . S
C762 H756 0.950 . S
C762 C763 1.327 . S
C763 H757 0.950 . S
C763 C762 1.327 . S
C763 C767 1.429 . S
C764 C747 1.574 . S
C764 H758 0.949 . S
C764 C768 1.368 . S
C765 C746 1.429 . S
C765 C759 1.429 . S
C765 C766 1.523 . S
C766 C747 1.368 . S
C766 C760 1.368 . S
C766 C765 1.523 . S
C767 C751 1.429 . S
C767 C763 1.429 . S
C767 C768 1.523 . S
C768 C752 1.368 . S
C768 C764 1.368 . S
C768 C767 1.523 . S
H769 C744 0.950 . S
H770 C746 0.950 . S
H771 C747 0.949 . S
H772 C749 0.950 1_556 S
H773 C751 0.950 . S
C774 C775 1.349 . S
C774 C776 1.327 . S
C774 H799 0.950 . S
C775 C774 1.349 . S
C775 C791 1.349 . S
C776 C774 1.327 . S
C776 C795 1.429 . S
C776 H800 0.950 . S
C777 C794 1.574 . S
C777 C796 1.368 . S
C777 H801 0.949 . S
H778 C782 0.949 . S
C779 C780 1.349 . S
C779 C781 1.327 . S
C779 H802 0.950 . S
C780 C779 1.349 . S
C780 C792 1.349 . S
C781 C779 1.327 . S
C781 C797 1.429 . S
C781 H803 0.950 . S
C782 H778 0.949 . S
C782 C790 1.574 1_455 S
C782 C798 1.368 . S
H783 C791 0.950 . S
H784 C789 0.950 . S
H785 C790 0.949 . S
H786 C792 0.950 . S
H787 C793 0.950 . S
H788 C794 0.949 1_455 S
C789 H784 0.950 . S
C789 C791 1.327 . S
C789 C795 1.429 . S
C790 C782 1.574 1_655 S
C790 H785 0.949 . S
C790 C796 1.368 . S
C791 C775 1.349 . S
C791 H783 0.950 . S
C791 C789 1.327 . S
C792 C780 1.349 . S
C792 H786 0.950 . S
C792 C793 1.327 . S
C793 H787 0.950 . S
C793 C792 1.327 . S
C793 C797 1.429 . S
C794 C777 1.574 . S
C794 H788 0.949 1_655 S
C794 C798 1.368 1_655 S
C795 C776 1.429 . S
C795 C789 1.429 . S
C795 C796 1.523 . S
C796 C777 1.368 . S
C796 C790 1.368 . S
C796 C795 1.523 . S
C797 C781 1.429 . S
C797 C793 1.429 . S
C797 C798 1.523 . S
C798 C782 1.368 . S
C798 C794 1.368 1_455 S
C798 C797 1.523 . S
H799 C774 0.950 . S
H800 C776 0.950 . S
H801 C777 0.949 . S
H802 C779 0.950 . S
H803 C781 0.950 . S
C804 C805 1.349 . S
C804 C806 1.327 . S
C804 H829 0.950 . S
C805 C804 1.349 . S
C805 C821 1.349 . S
C806 C804 1.327 . S
C806 C825 1.429 . S
C806 H830 0.950 . S
C807 C824 1.574 . S
C807 C826 1.368 . S
C807 H831 0.949 . S
H808 C812 0.949 . S
C809 C810 1.349 . S
C809 C811 1.327 . S
C809 H832 0.950 . S
C810 C809 1.349 . S
C810 C822 1.349 . S
C811 C809 1.327 . S
C811 C827 1.429 . S
C811 H833 0.950 . S
C812 H808 0.949 . S
C812 C820 1.574 . S
C812 C828 1.368 . S
H813 C821 0.950 . S
H814 C819 0.950 . S
H815 C820 0.949 . S
H816 C822 0.950 . S
H817 C823 0.950 . S
H818 C824 0.949 . S
C819 H814 0.950 . S
C819 C821 1.327 . S
C819 C825 1.429 . S
C820 C812 1.574 . S
C820 H815 0.949 . S
C820 C826 1.368 . S
C821 C805 1.349 . S
C821 H813 0.950 . S
C821 C819 1.327 . S
C822 C810 1.349 . S
C822 H816 0.950 . S
C822 C823 1.327 . S
C823 H817 0.950 . S
C823 C822 1.327 . S
C823 C827 1.429 . S
C824 C807 1.574 . S
C824 H818 0.949 . S
C824 C828 1.368 . S
C825 C806 1.429 . S
C825 C819 1.429 . S
C825 C826 1.523 . S
C826 C807 1.368 . S
C826 C820 1.368 . S
C826 C825 1.523 . S
C827 C811 1.429 . S
C827 C823 1.429 . S
C827 C828 1.523 . S
C828 C812 1.368 . S
C828 C824 1.368 . S
C828 C827 1.523 . S
H829 C804 0.950 . S
H830 C806 0.950 . S
H831 C807 0.949 . S
H832 C809 0.950 . S
H833 C811 0.950 . S
C834 C835 1.349 . S
C834 C836 1.327 . S
C834 H859 0.950 . S
C835 C834 1.349 . S
C835 C851 1.349 . S
C836 C834 1.327 . S
C836 C855 1.429 . S
C836 H860 0.950 . S
C837 C854 1.574 1_545 S
C837 C856 1.368 . S
C837 H861 0.949 . S
H838 C842 0.949 . S
C839 C840 1.349 . S
C839 C841 1.327 . S
C839 H862 0.950 . S
C840 C839 1.349 . S
C840 C852 1.349 . S
C841 C839 1.327 . S
C841 C857 1.429 . S
C841 H863 0.950 . S
C842 H838 0.949 . S
C842 C850 1.574 1_565 S
C842 C858 1.368 . S
H843 C851 0.950 . S
H844 C849 0.950 . S
H845 C850 0.949 . S
H846 C852 0.950 . S
H847 C853 0.950 . S
H848 C854 0.949 . S
C849 H844 0.950 . S
C849 C851 1.327 . S
C849 C855 1.429 . S
C850 C842 1.574 1_545 S
C850 H845 0.949 . S
C850 C856 1.368 . S
C851 C835 1.349 . S
C851 H843 0.950 . S
C851 C849 1.327 . S
C852 C840 1.349 . S
C852 H846 0.950 . S
C852 C853 1.327 . S
C853 H847 0.950 . S
C853 C852 1.327 . S
C853 C857 1.429 . S
C854 C837 1.574 1_565 S
C854 H848 0.949 . S
C854 C858 1.368 . S
C855 C836 1.429 . S
C855 C849 1.429 . S
C855 C856 1.523 . S
C856 C837 1.368 . S
C856 C850 1.368 . S
C856 C855 1.523 . S
C857 C841 1.429 . S
C857 C853 1.429 . S
C857 C858 1.523 . S
C858 C842 1.368 . S
C858 C854 1.368 . S
C858 C857 1.523 . S
H859 C834 0.950 . S
H860 C836 0.950 . S
H861 C837 0.949 . S
H862 C839 0.950 . S
H863 C841 0.950 . S
C864 C865 1.349 . S
C864 C866 1.327 . S
C864 H889 0.950 . S
C865 C864 1.349 . S
C865 C881 1.349 . S
C866 C864 1.327 . S
C866 C885 1.429 . S
C866 H890 0.950 . S
C867 C884 1.574 . S
C867 C886 1.368 . S
C867 H891 0.949 . S
H868 C872 0.949 . S
C869 C870 1.349 . S
C869 C871 1.327 . S
C869 H892 0.950 . S
C870 C869 1.349 . S
C870 C882 1.349 . S
C871 C869 1.327 . S
C871 C887 1.429 . S
C871 H893 0.950 . S
C872 H868 0.949 . S
C872 C880 1.574 . S
C872 C888 1.368 . S
H873 C881 0.950 . S
H874 C879 0.950 . S
H875 C880 0.949 . S
H876 C882 0.950 . S
H877 C883 0.950 . S
H878 C884 0.949 . S
C879 H874 0.950 . S
C879 C881 1.327 . S
C879 C885 1.429 . S
C880 C872 1.574 . S
C880 H875 0.949 . S
C880 C886 1.368 . S
C881 C865 1.349 . S
C881 H873 0.950 . S
C881 C879 1.327 . S
C882 C870 1.349 . S
C882 H876 0.950 . S
C882 C883 1.327 . S
C883 H877 0.950 . S
C883 C882 1.327 . S
C883 C887 1.429 . S
C884 C867 1.574 . S
C884 H878 0.949 . S
C884 C888 1.368 . S
C885 C866 1.429 . S
C885 C879 1.429 . S
C885 C886 1.523 . S
C886 C867 1.368 . S
C886 C880 1.368 . S
C886 C885 1.523 . S
C887 C871 1.429 . S
C887 C883 1.429 . S
C887 C888 1.523 . S
C888 C872 1.368 . S
C888 C884 1.368 . S
C888 C887 1.523 . S
H889 C864 0.950 . S
H890 C866 0.950 . S
H891 C867 0.949 . S
H892 C869 0.950 . S
H893 C871 0.950 . S
C894 C895 1.349 . S
C894 C896 1.327 . S
C894 H919 0.950 . S
C895 C894 1.349 . S
C895 C911 1.349 . S
C896 C894 1.327 . S
C896 C915 1.429 . S
C896 H920 0.950 . S
C897 C914 1.574 . S
C897 C916 1.368 . S
C897 H921 0.949 . S
H898 C902 0.949 . S
C899 C900 1.349 . S
C899 C901 1.327 . S
C899 H922 0.950 . S
C900 C899 1.349 . S
C900 C912 1.349 . S
C901 C899 1.327 . S
C901 C917 1.429 . S
C901 H923 0.950 . S
C902 H898 0.949 . S
C902 C910 1.574 . S
C902 C918 1.368 . S
H903 C911 0.950 . S
H904 C909 0.950 . S
H905 C910 0.949 . S
H906 C912 0.950 . S
H907 C913 0.950 . S
H908 C914 0.949 . S
C909 H904 0.950 . S
C909 C911 1.327 . S
C909 C915 1.429 . S
C910 C902 1.574 . S
C910 H905 0.949 . S
C910 C916 1.368 . S
C911 C895 1.349 . S
C911 H903 0.950 . S
C911 C909 1.327 . S
C912 C900 1.349 . S
C912 H906 0.950 . S
C912 C913 1.327 . S
C913 H907 0.950 . S
C913 C912 1.327 . S
C913 C917 1.429 . S
C914 C897 1.574 . S
C914 H908 0.949 . S
C914 C918 1.368 . S
C915 C896 1.429 . S
C915 C909 1.429 . S
C915 C916 1.523 . S
C916 C897 1.368 . S
C916 C910 1.368 . S
C916 C915 1.523 . S
C917 C901 1.429 . S
C917 C913 1.429 . S
C917 C918 1.523 . S
C918 C902 1.368 . S
C918 C914 1.368 . S
C918 C917 1.523 . S
H919 C894 0.950 . S
H920 C896 0.950 . S
H921 C897 0.949 . S
H922 C899 0.950 . S
H923 C901 0.950 . S
C924 C925 1.349 . S
C924 C926 1.327 . S
C924 H949 0.950 . S
C925 C924 1.349 . S
C925 C941 1.349 . S
C926 C924 1.327 . S
C926 C945 1.429 . S
C926 H950 0.950 . S
C927 C944 1.574 . S
C927 C946 1.368 . S
C927 H951 0.949 . S
H928 C932 0.949 . S
C929 C930 1.349 . S
C929 C931 1.327 . S
C929 H952 0.950 . S
C930 C929 1.349 . S
C930 C942 1.349 . S
C931 C929 1.327 . S
C931 C947 1.429 . S
C931 H953 0.950 . S
C932 H928 0.949 . S
C932 C940 1.574 . S
C932 C948 1.368 . S
H933 C941 0.950 . S
H934 C939 0.950 . S
H935 C940 0.949 . S
H936 C942 0.950 . S
H937 C943 0.950 . S
H938 C944 0.949 . S
C939 H934 0.950 . S
C939 C941 1.327 . S
C939 C945 1.429 . S
C940 C932 1.574 . S
C940 H935 0.949 . S
C940 C946 1.368 . S
C941 C925 1.349 . S
C941 H933 0.950 . S
C941 C939 1.327 . S
C942 C930 1.349 . S
C942 H936 0.950 . S
C942 C943 1.327 . S
C943 H937 0.950 . S
C943 C942 1.327 . S
C943 C947 1.429 . S
C944 C927 1.574 . S
C944 H938 0.949 . S
C944 C948 1.368 . S
C945 C926 1.429 . S
C945 C939 1.429 . S
C945 C946 1.523 . S
C946 C927 1.368 . S
C946 C940 1.368 . S
C946 C945 1.523 . S
C947 C931 1.429 . S
C947 C943 1.429 . S
C947 C948 1.523 . S
C948 C932 1.368 . S
C948 C944 1.368 . S
C948 C947 1.523 . S
H949 C924 0.950 . S
H950 C926 0.950 . S
H951 C927 0.949 . S
H952 C929 0.950 . S
H953 C931 0.950 . S
C954 C955 1.349 . S
C954 C956 1.327 . S
C954 H979 0.950 . S
C955 C954 1.349 . S
C955 C971 1.349 . S
C956 C954 1.327 . S
C956 C975 1.429 . S
C956 H980 0.950 . S
C957 C974 1.574 . S
C957 C976 1.368 . S
C957 H981 0.949 . S
H958 C962 0.949 . S
C959 C960 1.349 . S
C959 C961 1.327 . S
C959 H982 0.950 . S
C960 C959 1.349 . S
C960 C972 1.349 . S
C961 C959 1.327 . S
C961 C977 1.429 . S
C961 H983 0.950 . S
C962 H958 0.949 . S
C962 C970 1.574 . S
C962 C978 1.368 . S
H963 C971 0.950 . S
H964 C969 0.950 . S
H965 C970 0.949 . S
H966 C972 0.950 . S
H967 C973 0.950 . S
H968 C974 0.949 . S
C969 H964 0.950 . S
C969 C971 1.327 . S
C969 C975 1.429 . S
C970 C962 1.574 . S
C970 H965 0.949 . S
C970 C976 1.368 . S
C971 C955 1.349 . S
C971 H963 0.950 . S
C971 C969 1.327 . S
C972 C960 1.349 . S
C972 H966 0.950 . S
C972 C973 1.327 . S
C973 H967 0.950 . S
C973 C972 1.327 . S
C973 C977 1.429 . S
C974 C957 1.574 . S
C974 H968 0.949 . S
C974 C978 1.368 . S
C975 C956 1.429 . S
C975 C969 1.429 . S
C975 C976 1.523 . S
C976 C957 1.368 . S
C976 C970 1.368 . S
C976 C975 1.523 . S
C977 C961 1.429 . S
C977 C973 1.429 . S
C977 C978 1.523 . S
C978 C962 1.368 . S
C978 C974 1.368 . S
C978 C977 1.523 . S
H979 C954 0.950 . S
H980 C956 0.950 . S
H981 C957 0.949 . S
H982 C959 0.950 . S
H983 C961 0.950 . S
C984 C985 1.349 . S
C984 C986 1.327 . S
C984 H1009 0.950 . S
C985 C984 1.349 . S
C985 C1001 1.349 . S
C986 C984 1.327 . S
C986 C1005 1.429 . S
C986 H1010 0.950 . S
C987 C1004 1.574 . S
C987 C1006 1.368 . S
C987 H1011 0.949 . S
H988 C992 0.949 . S
C989 C990 1.349 . S
C989 C991 1.327 . S
C989 H1012 0.950 . S
C990 C989 1.349 . S
C990 C1002 1.349 . S
C991 C989 1.327 . S
C991 C1007 1.429 . S
C991 H1013 0.950 . S
C992 H988 0.949 . S
C992 C1000 1.574 . S
C992 C1008 1.368 . S
H993 C1001 0.950 . S
H994 C999 0.950 . S
H995 C1000 0.949 . S
H996 C1002 0.950 . S
H997 C1003 0.950 . S
H998 C1004 0.949 . S
C999 H994 0.950 . S
C999 C1001 1.327 . S
C999 C1005 1.429 . S
C1000 C992 1.574 . S
C1000 H995 0.949 . S
C1000 C1006 1.368 . S
C1001 C985 1.349 . S
C1001 H993 0.950 . S
C1001 C999 1.327 . S
C1002 C990 1.349 . S
C1002 H996 0.950 . S
C1002 C1003 1.327 . S
C1003 H997 0.950 . S
C1003 C1002 1.327 . S
C1003 C1007 1.429 . S
C1004 C987 1.574 . S
C1004 H998 0.949 . S
C1004 C1008 1.368 . S
C1005 C986 1.429 . S
C1005 C999 1.429 . S
C1005 C1006 1.523 . S
C1006 C987 1.368 . S
C1006 C1000 1.368 . S
C1006 C1005 1.523 . S
C1007 C991 1.429 . S
C1007 C1003 1.429 . S
C1007 C1008 1.523 . S
C1008 C992 1.368 . S
C1008 C1004 1.368 . S
C1008 C1007 1.523 . S
H1009 C984 0.950 . S
H1010 C986 0.950 . S
H1011 C987 0.949 . S
H1012 C989 0.950 . S
H1013 C991 0.950 . S
C1014 C1015 1.349 . S
C1014 C1016 1.327 . S
C1014 H1039 0.950 . S
C1015 C1014 1.349 . S
C1015 C1031 1.349 . S
C1016 C1014 1.327 . S
C1016 C1035 1.429 . S
C1016 H1040 0.950 . S
C1017 C1034 1.574 . S
C1017 C1036 1.368 . S
C1017 H1041 0.949 . S
H1018 C1022 0.949 . S
C1019 C1020 1.349 . S
C1019 C1021 1.327 . S
C1019 H1042 0.950 . S
C1020 C1019 1.349 . S
C1020 C1032 1.349 . S
C1021 C1019 1.327 . S
C1021 C1037 1.429 . S
C1021 H1043 0.950 . S
C1022 H1018 0.949 . S
C1022 C1030 1.574 . S
C1022 C1038 1.368 . S
H1023 C1031 0.950 . S
H1024 C1029 0.950 . S
H1025 C1030 0.949 . S
H1026 C1032 0.950 . S
H1027 C1033 0.950 . S
H1028 C1034 0.949 . S
C1029 H1024 0.950 . S
C1029 C1031 1.327 . S
C1029 C1035 1.429 . S
C1030 C1022 1.574 . S
C1030 H1025 0.949 . S
C1030 C1036 1.368 . S
C1031 C1015 1.349 . S
C1031 H1023 0.950 . S
C1031 C1029 1.327 . S
C1032 C1020 1.349 . S
C1032 H1026 0.950 . S
C1032 C1033 1.327 . S
C1033 H1027 0.950 . S
C1033 C1032 1.327 . S
C1033 C1037 1.429 . S
C1034 C1017 1.574 . S
C1034 H1028 0.949 . S
C1034 C1038 1.368 . S
C1035 C1016 1.429 . S
C1035 C1029 1.429 . S
C1035 C1036 1.523 . S
C1036 C1017 1.368 . S
C1036 C1030 1.368 . S
C1036 C1035 1.523 . S
C1037 C1021 1.429 . S
C1037 C1033 1.429 . S
C1037 C1038 1.523 . S
C1038 C1022 1.368 . S
C1038 C1034 1.368 . S
C1038 C1037 1.523 . S
H1039 C1014 0.950 . S
H1040 C1016 0.950 . S
H1041 C1017 0.949 . S
H1042 C1019 0.950 . S
H1043 C1021 0.950 . S
C1044 C1045 1.349 . S
C1044 C1046 1.327 . S
C1044 H1069 0.950 . S
C1045 C1044 1.349 . S
C1045 C1061 1.349 . S
C1046 C1044 1.327 . S
C1046 C1065 1.429 . S
C1046 H1070 0.950 . S
C1047 C1064 1.574 . S
C1047 C1066 1.368 . S
C1047 H1071 0.949 . S
H1048 C1052 0.949 . S
C1049 C1050 1.349 . S
C1049 C1051 1.327 . S
C1049 H1072 0.950 . S
C1050 C1049 1.349 . S
C1050 C1062 1.349 . S
C1051 C1049 1.327 . S
C1051 C1067 1.429 . S
C1051 H1073 0.950 . S
C1052 H1048 0.949 . S
C1052 C1060 1.574 . S
C1052 C1068 1.368 . S
H1053 C1061 0.950 . S
H1054 C1059 0.950 . S
H1055 C1060 0.949 . S
H1056 C1062 0.950 . S
H1057 C1063 0.950 . S
H1058 C1064 0.949 . S
C1059 H1054 0.950 . S
C1059 C1061 1.327 . S
C1059 C1065 1.429 . S
C1060 C1052 1.574 . S
C1060 H1055 0.949 . S
C1060 C1066 1.368 . S
C1061 C1045 1.349 . S
C1061 H1053 0.950 . S
C1061 C1059 1.327 . S
C1062 C1050 1.349 . S
C1062 H1056 0.950 . S
C1062 C1063 1.327 . S
C1063 H1057 0.950 . S
C1063 C1062 1.327 . S
C1063 C1067 1.429 . S
C1064 C1047 1.574 . S
C1064 H1058 0.949 . S
C1064 C1068 1.368 . S
C1065 C1046 1.429 . S
C1065 C1059 1.429 . S
C1065 C1066 1.523 1_545 S
C1066 C1047 1.368 . S
C1066 C1060 1.368 . S
C1066 C1065 1.523 1_565 S
C1067 C1051 1.429 . S
C1067 C1063 1.429 . S
C1067 C1068 1.523 . S
C1068 C1052 1.368 . S
C1068 C1064 1.368 . S
C1068 C1067 1.523 . S
H1069 C1044 0.950 . S
H1070 C1046 0.950 . S
H1071 C1047 0.949 . S
H1072 C1049 0.950 . S
H1073 C1051 0.950 . S
C1074 C1075 1.349 . S
C1074 C1076 1.327 . S
C1074 H1099 0.950 . S
C1075 C1074 1.349 . S
C1075 C1091 1.349 . S
C1076 C1074 1.327 . S
C1076 C1095 1.429 . S
C1076 H1100 0.950 . S
C1077 C1094 1.574 . S
C1077 C1096 1.368 . S
C1077 H1101 0.949 . S
H1078 C1082 0.949 . S
C1079 C1080 1.349 . S
C1079 C1081 1.327 . S
C1079 H1102 0.950 . S
C1080 C1079 1.349 . S
C1080 C1092 1.349 . S
C1081 C1079 1.327 . S
C1081 C1097 1.429 . S
C1081 H1103 0.950 . S
C1082 H1078 0.949 . S
C1082 C1090 1.574 . S
C1082 C1098 1.368 . S
H1083 C1091 0.950 . S
H1084 C1089 0.950 . S
H1085 C1090 0.949 . S
H1086 C1092 0.950 . S
H1087 C1093 0.950 . S
H1088 C1094 0.949 . S
C1089 H1084 0.950 . S
C1089 C1091 1.327 . S
C1089 C1095 1.429 . S
C1090 C1082 1.574 . S
C1090 H1085 0.949 . S
C1090 C1096 1.368 . S
C1091 C1075 1.349 . S
C1091 H1083 0.950 . S
C1091 C1089 1.327 . S
C1092 C1080 1.349 . S
C1092 H1086 0.950 . S
C1092 C1093 1.327 . S
C1093 H1087 0.950 . S
C1093 C1092 1.327 . S
C1093 C1097 1.429 . S
C1094 C1077 1.574 . S
C1094 H1088 0.949 . S
C1094 C1098 1.368 . S
C1095 C1076 1.429 . S
C1095 C1089 1.429 . S
C1095 C1096 1.523 1_655 S
C1096 C1077 1.368 . S
C1096 C1090 1.368 . S
C1096 C1095 1.523 1_455 S
C1097 C1081 1.429 . S
C1097 C1093 1.429 . S
C1097 C1098 1.523 . S
C1098 C1082 1.368 . S
C1098 C1094 1.368 . S
C1098 C1097 1.523 . S
H1099 C1074 0.950 . S
H1100 C1076 0.950 . S
H1101 C1077 0.949 . S
H1102 C1079 0.950 . S
H1103 C1081 0.950 . S
C1104 C1105 1.349 . S
C1104 C1106 1.327 . S
C1104 H1129 0.950 . S
C1105 C1104 1.349 . S
C1105 C1121 1.349 . S
C1106 C1104 1.327 . S
C1106 C1125 1.429 . S
C1106 H1130 0.950 . S
C1107 C1124 1.574 . S
C1107 C1126 1.368 . S
C1107 H1131 0.949 . S
H1108 C1112 0.949 . S
C1109 C1110 1.349 . S
C1109 C1111 1.327 . S
C1109 H1132 0.950 . S
C1110 C1109 1.349 . S
C1110 C1122 1.349 . S
C1111 C1109 1.327 . S
C1111 C1127 1.429 . S
C1111 H1133 0.950 . S
C1112 H1108 0.949 . S
C1112 C1120 1.574 . S
C1112 C1128 1.368 . S
H1113 C1121 0.950 . S
H1114 C1119 0.950 . S
H1115 C1120 0.949 . S
H1116 C1122 0.950 . S
H1117 C1123 0.950 . S
H1118 C1124 0.949 . S
C1119 H1114 0.950 . S
C1119 C1121 1.327 . S
C1119 C1125 1.429 . S
C1120 C1112 1.574 . S
C1120 H1115 0.949 . S
C1120 C1126 1.368 . S
C1121 C1105 1.349 . S
C1121 H1113 0.950 . S
C1121 C1119 1.327 . S
C1122 C1110 1.349 . S
C1122 H1116 0.950 . S
C1122 C1123 1.327 . S
C1123 H1117 0.950 . S
C1123 C1122 1.327 . S
C1123 C1127 1.429 . S
C1124 C1107 1.574 . S
C1124 H1118 0.949 . S
C1124 C1128 1.368 . S
C1125 C1106 1.429 . S
C1125 C1119 1.429 . S
C1125 C1126 1.523 . S
C1126 C1107 1.368 . S
C1126 C1120 1.368 . S
C1126 C1125 1.523 . S
C1127 C1111 1.429 . S
C1127 C1123 1.429 . S
C1127 C1128 1.523 . S
C1128 C1112 1.368 . S
C1128 C1124 1.368 . S
C1128 C1127 1.523 . S
H1129 C1104 0.950 . S
H1130 C1106 0.950 . S
H1131 C1107 0.949 . S
H1132 C1109 0.950 . S
H1133 C1111 0.950 . S
C1134 C1135 1.349 . S
C1134 C1136 1.327 . S
C1134 H1159 0.950 . S
C1135 C1134 1.349 . S
C1135 C1151 1.349 . S
C1136 C1134 1.327 . S
C1136 C1155 1.429 . S
C1136 H1160 0.950 . S
C1137 C1154 1.574 . S
C1137 C1156 1.368 . S
C1137 H1161 0.949 . S
H1138 C1142 0.949 . S
C1139 C1140 1.349 . S
C1139 C1141 1.327 . S
C1139 H1162 0.950 . S
C1140 C1139 1.349 . S
C1140 C1152 1.349 . S
C1141 C1139 1.327 . S
C1141 C1157 1.429 . S
C1141 H1163 0.950 . S
C1142 H1138 0.949 . S
C1142 C1150 1.574 . S
C1142 C1158 1.368 . S
H1143 C1151 0.950 . S
H1144 C1149 0.950 . S
H1145 C1150 0.949 . S
H1146 C1152 0.950 . S
H1147 C1153 0.950 . S
H1148 C1154 0.949 . S
C1149 H1144 0.950 . S
C1149 C1151 1.327 . S
C1149 C1155 1.429 . S
C1150 C1142 1.574 . S
C1150 H1145 0.949 . S
C1150 C1156 1.368 . S
C1151 C1135 1.349 . S
C1151 H1143 0.950 . S
C1151 C1149 1.327 . S
C1152 C1140 1.349 . S
C1152 H1146 0.950 . S
C1152 C1153 1.327 . S
C1153 H1147 0.950 . S
C1153 C1152 1.327 . S
C1153 C1157 1.429 . S
C1154 C1137 1.574 . S
C1154 H1148 0.949 . S
C1154 C1158 1.368 . S
C1155 C1136 1.429 . S
C1155 C1149 1.429 . S
C1155 C1156 1.523 . S
C1156 C1137 1.368 . S
C1156 C1150 1.368 . S
C1156 C1155 1.523 . S
C1157 C1141 1.429 . S
C1157 C1153 1.429 . S
C1157 C1158 1.523 . S
C1158 C1142 1.368 . S
C1158 C1154 1.368 . S
C1158 C1157 1.523 . S
H1159 C1134 0.950 . S
H1160 C1136 0.950 . S
H1161 C1137 0.949 . S
H1162 C1139 0.950 . S
H1163 C1141 0.950 . S
C1164 C1165 1.349 . S
C1164 C1166 1.327 . S
C1164 H1189 0.950 . S
C1165 C1164 1.349 . S
C1165 C1181 1.349 . S
C1166 C1164 1.327 . S
C1166 C1185 1.429 . S
C1166 H1190 0.950 . S
C1167 C1184 1.574 . S
C1167 C1186 1.368 . S
C1167 H1191 0.949 . S
H1168 C1172 0.949 . S
C1169 C1170 1.349 . S
C1169 C1171 1.327 . S
C1169 H1192 0.950 . S
C1170 C1169 1.349 . S
C1170 C1182 1.349 . S
C1171 C1169 1.327 . S
C1171 C1187 1.429 . S
C1171 H1193 0.950 . S
C1172 H1168 0.949 . S
C1172 C1180 1.574 . S
C1172 C1188 1.368 . S
H1173 C1181 0.950 . S
H1174 C1179 0.950 . S
H1175 C1180 0.949 . S
H1176 C1182 0.950 . S
H1177 C1183 0.950 . S
H1178 C1184 0.949 . S
C1179 H1174 0.950 . S
C1179 C1181 1.327 . S
C1179 C1185 1.429 . S
C1180 C1172 1.574 . S
C1180 H1175 0.949 . S
C1180 C1186 1.368 . S
C1181 C1165 1.349 . S
C1181 H1173 0.950 . S
C1181 C1179 1.327 . S
C1182 C1170 1.349 . S
C1182 H1176 0.950 . S
C1182 C1183 1.327 . S
C1183 H1177 0.950 . S
C1183 C1182 1.327 . S
C1183 C1187 1.429 . S
C1184 C1167 1.574 . S
C1184 H1178 0.949 . S
C1184 C1188 1.368 . S
C1185 C1166 1.429 . S
C1185 C1179 1.429 . S
C1185 C1186 1.523 . S
C1186 C1167 1.368 . S
C1186 C1180 1.368 . S
C1186 C1185 1.523 . S
C1187 C1171 1.429 . S
C1187 C1183 1.429 . S
C1187 C1188 1.523 . S
C1188 C1172 1.368 . S
C1188 C1184 1.368 . S
C1188 C1187 1.523 . S
H1189 C1164 0.950 . S
H1190 C1166 0.950 . S
H1191 C1167 0.949 . S
H1192 C1169 0.950 . S
H1193 C1171 0.950 . S
C1194 C1195 1.349 . S
C1194 C1196 1.327 . S
C1194 H1219 0.950 . S
C1195 C1194 1.349 . S
C1195 C1211 1.349 . S
C1196 C1194 1.327 . S
C1196 C1215 1.429 . S
C1196 H1220 0.950 . S
C1197 C1214 1.574 . S
C1197 C1216 1.368 . S
C1197 H1221 0.949 . S
H1198 C1202 0.949 . S
C1199 C1200 1.349 . S
C1199 C1201 1.327 . S
C1199 H1222 0.950 . S
C1200 C1199 1.349 . S
C1200 C1212 1.349 . S
C1201 C1199 1.327 . S
C1201 C1217 1.429 . S
C1201 H1223 0.950 . S
C1202 H1198 0.949 . S
C1202 C1210 1.574 . S
C1202 C1218 1.368 . S
H1203 C1211 0.950 . S
H1204 C1209 0.950 . S
H1205 C1210 0.949 . S
H1206 C1212 0.950 . S
H1207 C1213 0.950 . S
H1208 C1214 0.949 . S
C1209 H1204 0.950 . S
C1209 C1211 1.327 . S
C1209 C1215 1.429 . S
C1210 C1202 1.574 . S
C1210 H1205 0.949 . S
C1210 C1216 1.368 . S
C1211 C1195 1.349 . S
C1211 H1203 0.950 . S
C1211 C1209 1.327 . S
C1212 C1200 1.349 . S
C1212 H1206 0.950 . S
C1212 C1213 1.327 . S
C1213 H1207 0.950 . S
C1213 C1212 1.327 . S
C1213 C1217 1.429 . S
C1214 C1197 1.574 . S
C1214 H1208 0.949 . S
C1214 C1218 1.368 . S
C1215 C1196 1.429 . S
C1215 C1209 1.429 . S
C1215 C1216 1.523 . S
C1216 C1197 1.368 . S
C1216 C1210 1.368 . S
C1216 C1215 1.523 . S
C1217 C1201 1.429 . S
C1217 C1213 1.429 . S
C1217 C1218 1.523 . S
C1218 C1202 1.368 . S
C1218 C1214 1.368 . S
C1218 C1217 1.523 . S
H1219 C1194 0.950 . S
H1220 C1196 0.950 . S
H1221 C1197 0.949 . S
H1222 C1199 0.950 . S
H1223 C1201 0.950 . S
C1224 C1225 1.349 . S
C1224 C1226 1.327 . S
C1224 H1249 0.950 . S
C1225 C1224 1.349 . S
C1225 C1241 1.349 . S
C1226 C1224 1.327 . S
C1226 C1245 1.429 . S
C1226 H1250 0.950 . S
C1227 C1244 1.574 1_565 S
C1227 C1246 1.368 . S
C1227 H1251 0.949 . S
H1228 C1232 0.949 . S
C1229 C1230 1.349 . S
C1229 C1231 1.327 . S
C1229 H1252 0.950 . S
C1230 C1229 1.349 . S
C1230 C1242 1.349 . S
C1231 C1229 1.327 . S
C1231 C1247 1.429 . S
C1231 H1253 0.950 . S
C1232 H1228 0.949 . S
C1232 C1240 1.574 1_545 S
C1232 C1248 1.368 . S
H1233 C1241 0.950 . S
H1234 C1239 0.950 . S
H1235 C1240 0.949 . S
H1236 C1242 0.950 . S
H1237 C1243 0.950 . S
H1238 C1244 0.949 . S
C1239 H1234 0.950 . S
C1239 C1241 1.327 . S
C1239 C1245 1.429 . S
C1240 C1232 1.574 1_565 S
C1240 H1235 0.949 . S
C1240 C1246 1.368 . S
C1241 C1225 1.349 . S
C1241 H1233 0.950 . S
C1241 C1239 1.327 . S
C1242 C1230 1.349 . S
C1242 H1236 0.950 . S
C1242 C1243 1.327 . S
C1243 H1237 0.950 . S
C1243 C1242 1.327 . S
C1243 C1247 1.429 . S
C1244 C1227 1.574 1_545 S
C1244 H1238 0.949 . S
C1244 C1248 1.368 . S
C1245 C1226 1.429 . S
C1245 C1239 1.429 . S
C1245 C1246 1.523 . S
C1246 C1227 1.368 . S
C1246 C1240 1.368 . S
C1246 C1245 1.523 . S
C1247 C1231 1.429 . S
C1247 C1243 1.429 . S
C1247 C1248 1.523 . S
C1248 C1232 1.368 . S
C1248 C1244 1.368 . S
C1248 C1247 1.523 . S
H1249 C1224 0.950 . S
H1250 C1226 0.950 . S
H1251 C1227 0.949 . S
H1252 C1229 0.950 . S
H1253 C1231 0.950 . S
C1254 C1255 1.349 . S
C1254 C1256 1.327 . S
C1254 H1279 0.950 . S
C1255 C1254 1.349 . S
C1255 C1271 1.349 . S
C1256 C1254 1.327 . S
C1256 C1275 1.429 . S
C1256 H1280 0.950 . S
C1257 C1274 1.574 1_455 S
C1257 C1276 1.368 . S
C1257 H1281 0.949 . S
H1258 C1262 0.949 . S
C1259 C1260 1.349 . S
C1259 C1261 1.327 . S
C1259 H1282 0.950 . S
C1260 C1259 1.349 . S
C1260 C1272 1.349 . S
C1261 C1259 1.327 . S
C1261 C1277 1.429 . S
C1261 H1283 0.950 . S
C1262 H1258 0.949 . S
C1262 C1270 1.574 1_655 S
C1262 C1278 1.368 . S
H1263 C1271 0.950 . S
H1264 C1269 0.950 . S
H1265 C1270 0.949 . S
H1266 C1272 0.950 . S
H1267 C1273 0.950 . S
H1268 C1274 0.949 . S
C1269 H1264 0.950 . S
C1269 C1271 1.327 . S
C1269 C1275 1.429 . S
C1270 C1262 1.574 1_455 S
C1270 H1265 0.949 . S
C1270 C1276 1.368 . S
C1271 C1255 1.349 . S
C1271 H1263 0.950 . S
C1271 C1269 1.327 . S
C1272 C1260 1.349 . S
C1272 H1266 0.950 . S
C1272 C1273 1.327 . S
C1273 H1267 0.950 . S
C1273 C1272 1.327 . S
C1273 C1277 1.429 . S
C1274 C1257 1.574 1_655 S
C1274 H1268 0.949 . S
C1274 C1278 1.368 . S
C1275 C1256 1.429 . S
C1275 C1269 1.429 . S
C1275 C1276 1.523 . S
C1276 C1257 1.368 . S
C1276 C1270 1.368 . S
C1276 C1275 1.523 . S
C1277 C1261 1.429 . S
C1277 C1273 1.429 . S
C1277 C1278 1.523 . S
C1278 C1262 1.368 . S
C1278 C1274 1.368 . S
C1278 C1277 1.523 . S
H1279 C1254 0.950 . S
H1280 C1256 0.950 . S
H1281 C1257 0.949 . S
H1282 C1259 0.950 . S
H1283 C1261 0.950 . S
C1284 C1285 1.349 . S
C1284 C1286 1.327 . S
C1284 H1309 0.950 . S
C1285 C1284 1.349 . S
C1285 C1301 1.349 . S
C1286 C1284 1.327 . S
C1286 C1305 1.429 . S
C1286 H1310 0.950 . S
C1287 C1304 1.574 . S
C1287 C1306 1.368 . S
C1287 H1311 0.949 . S
H1288 C1292 0.949 . S
C1289 C1290 1.349 . S
C1289 C1291 1.327 . S
C1289 H1312 0.950 . S
C1290 C1289 1.349 . S
C1290 C1302 1.349 . S
C1291 C1289 1.327 . S
C1291 C1307 1.429 . S
C1291 H1313 0.950 . S
C1292 H1288 0.949 . S
C1292 C1300 1.574 . S
C1292 C1308 1.368 . S
H1293 C1301 0.950 . S
H1294 C1299 0.950 . S
H1295 C1300 0.949 . S
H1296 C1302 0.950 . S
H1297 C1303 0.950 . S
H1298 C1304 0.949 . S
C1299 H1294 0.950 . S
C1299 C1301 1.327 . S
C1299 C1305 1.429 . S
C1300 C1292 1.574 . S
C1300 H1295 0.949 . S
C1300 C1306 1.368 . S
C1301 C1285 1.349 . S
C1301 H1293 0.950 . S
C1301 C1299 1.327 . S
C1302 C1290 1.349 . S
C1302 H1296 0.950 . S
C1302 C1303 1.327 . S
C1303 H1297 0.950 . S
C1303 C1302 1.327 . S
C1303 C1307 1.429 . S
C1304 C1287 1.574 . S
C1304 H1298 0.949 . S
C1304 C1308 1.368 . S
C1305 C1286 1.429 . S
C1305 C1299 1.429 . S
C1305 C1306 1.523 . S
C1306 C1287 1.368 . S
C1306 C1300 1.368 . S
C1306 C1305 1.523 . S
C1307 C1291 1.429 . S
C1307 C1303 1.429 . S
C1307 C1308 1.523 . S
C1308 C1292 1.368 . S
C1308 C1304 1.368 . S
C1308 C1307 1.523 . S
H1309 C1284 0.950 . S
H1310 C1286 0.950 . S
H1311 C1287 0.949 . S
H1312 C1289 0.950 . S
H1313 C1291 0.950 . S
C1314 C1315 1.349 . S
C1314 C1316 1.327 . S
C1314 H1339 0.950 . S
C1315 C1314 1.349 . S
C1315 C1331 1.349 . S
C1316 C1314 1.327 . S
C1316 C1335 1.429 . S
C1316 H1340 0.950 . S
C1317 C1334 1.574 . S
C1317 C1336 1.368 . S
C1317 H1341 0.890 1_655 S
H1318 C1322 0.949 . S
C1319 C1320 1.349 . S
C1319 C1321 1.327 . S
C1319 H1342 0.950 . S
C1320 C1319 1.349 . S
C1320 C1332 1.349 . S
C1321 C1319 1.327 . S
C1321 C1337 1.429 . S
C1321 H1343 0.950 . S
C1322 H1318 0.949 . S
C1322 C1330 1.574 . S
C1322 C1338 1.368 . S
H1323 C1331 0.950 . S
H1324 C1329 0.950 . S
H1325 C1330 0.949 . S
H1326 C1332 0.950 . S
H1327 C1333 0.950 . S
H1328 C1334 0.949 . S
C1329 H1324 0.950 . S
C1329 C1331 1.327 . S
C1329 C1335 1.429 . S
C1330 C1322 1.574 . S
C1330 H1325 0.949 . S
C1330 C1336 1.368 . S
C1331 C1315 1.349 . S
C1331 H1323 0.950 . S
C1331 C1329 1.327 . S
C1332 C1320 1.349 . S
C1332 H1326 0.950 . S
C1332 C1333 1.327 . S
C1333 H1327 0.950 . S
C1333 C1332 1.327 . S
C1333 C1337 1.429 . S
C1334 C1317 1.574 . S
C1334 H1328 0.949 . S
C1334 C1338 1.368 . S
C1335 C1316 1.429 . S
C1335 C1329 1.429 . S
C1335 C1336 1.523 1_455 S
C1336 C1317 1.368 . S
C1336 C1330 1.368 . S
C1336 C1335 1.523 1_655 S
C1337 C1321 1.429 . S
C1337 C1333 1.429 . S
C1337 C1338 1.523 . S
C1338 C1322 1.368 . S
C1338 C1334 1.368 . S
C1338 C1337 1.523 . S
H1339 C1314 0.950 . S
H1340 C1316 0.950 . S
H1341 C1317 0.890 1_455 S
H1342 C1319 0.950 . S
H1343 C1321 0.950 . S
C1344 C1345 1.349 . S
C1344 C1346 1.327 . S
C1344 H1369 0.950 . S
C1345 C1344 1.349 . S
C1345 C1361 1.349 . S
C1346 C1344 1.327 . S
C1346 C1365 1.429 . S
C1346 H1370 0.950 . S
C1347 C1364 1.574 . S
C1347 C1366 1.368 . S
C1347 H1371 0.949 . S
H1348 C1352 0.949 . S
C1349 C1350 1.349 . S
C1349 C1351 1.327 . S
C1349 H1372 0.950 . S
C1350 C1349 1.349 . S
C1350 C1362 1.349 . S
C1351 C1349 1.327 . S
C1351 C1367 1.429 . S
C1351 H1373 0.950 . S
C1352 H1348 0.949 . S
C1352 C1360 1.574 . S
C1352 C1368 1.368 . S
H1353 C1361 0.950 . S
H1354 C1359 0.950 . S
H1355 C1360 0.949 . S
H1356 C1362 0.950 . S
H1357 C1363 0.950 . S
H1358 C1364 0.949 . S
C1359 H1354 0.950 . S
C1359 C1361 1.327 . S
C1359 C1365 1.429 . S
C1360 C1352 1.574 . S
C1360 H1355 0.949 . S
C1360 C1366 1.368 . S
C1361 C1345 1.349 . S
C1361 H1353 0.950 . S
C1361 C1359 1.327 . S
C1362 C1350 1.349 . S
C1362 H1356 0.950 . S
C1362 C1363 1.327 . S
C1363 H1357 0.950 . S
C1363 C1362 1.327 . S
C1363 C1367 1.429 . S
C1364 C1347 1.574 . S
C1364 H1358 0.949 . S
C1364 C1368 1.368 . S
C1365 C1346 1.429 . S
C1365 C1359 1.429 . S
C1365 C1366 1.523 . S
C1366 C1347 1.368 . S
C1366 C1360 1.368 . S
C1366 C1365 1.523 . S
C1367 C1351 1.429 . S
C1367 C1363 1.429 . S
C1367 C1368 1.523 . S
C1368 C1352 1.368 . S
C1368 C1364 1.368 . S
C1368 C1367 1.523 . S
H1369 C1344 0.950 . S
H1370 C1346 0.950 . S
H1371 C1347 0.949 . S
H1372 C1349 0.950 . S
H1373 C1351 0.950 . S
C1374 C1375 1.349 . S
C1374 C1376 1.327 . S
C1374 H1399 0.950 . S
C1375 C1374 1.349 . S
C1375 C1391 1.349 . S
C1376 C1374 1.327 . S
C1376 C1395 1.429 . S
C1376 H1400 0.950 . S
C1377 C1394 1.574 . S
C1377 C1396 1.368 . S
C1377 H1401 0.949 . S
H1378 C1382 0.949 . S
C1379 C1380 1.349 . S
C1379 C1381 1.327 . S
C1379 H1402 0.950 . S
C1380 C1379 1.349 . S
C1380 C1392 1.349 . S
C1381 C1379 1.327 . S
C1381 C1397 1.429 . S
C1381 H1403 0.950 . S
C1382 H1378 0.949 . S
C1382 C1390 1.574 . S
C1382 C1398 1.368 . S
H1383 C1391 0.950 . S
H1384 C1389 0.950 . S
H1385 C1390 0.949 . S
H1386 C1392 0.950 . S
H1387 C1393 0.950 . S
H1388 C1394 0.949 . S
C1389 H1384 0.950 . S
C1389 C1391 1.327 . S
C1389 C1395 1.429 . S
C1390 C1382 1.574 . S
C1390 H1385 0.949 . S
C1390 C1396 1.368 . S
C1391 C1375 1.349 . S
C1391 H1383 0.950 . S
C1391 C1389 1.327 . S
C1392 C1380 1.349 . S
C1392 H1386 0.950 . S
C1392 C1393 1.327 . S
C1393 H1387 0.950 . S
C1393 C1392 1.327 . S
C1393 C1397 1.429 . S
C1394 C1377 1.574 . S
C1394 H1388 0.949 . S
C1394 C1398 1.368 . S
C1395 C1376 1.429 . S
C1395 C1389 1.429 . S
C1395 C1396 1.523 1_565 S
C1396 C1377 1.368 . S
C1396 C1390 1.368 . S
C1396 C1395 1.523 1_545 S
C1397 C1381 1.429 . S
C1397 C1393 1.429 . S
C1397 C1398 1.523 . S
C1398 C1382 1.368 . S
C1398 C1394 1.368 . S
C1398 C1397 1.523 . S
H1399 C1374 0.950 . S
H1400 C1376 0.950 . S
H1401 C1377 0.949 . S
H1402 C1379 0.950 . S
H1403 C1381 0.950 . S
C1404 C1405 1.349 . S
C1404 C1406 1.327 . S
C1404 H1429 0.950 . S
C1405 C1404 1.349 . S
C1405 C1421 1.349 . S
C1406 C1404 1.327 . S
C1406 C1425 1.429 . S
C1406 H1430 0.950 . S
C1407 C1424 1.574 . S
C1407 C1426 1.368 . S
C1407 H1431 0.949 . S
H1408 C1412 0.949 . S
C1409 C1410 1.349 . S
C1409 C1411 1.327 . S
C1409 H1432 0.950 . S
C1410 C1409 1.349 . S
C1410 C1422 1.349 . S
C1411 C1409 1.327 . S
C1411 C1427 1.429 . S
C1411 H1433 0.950 . S
C1412 H1408 0.949 . S
C1412 C1420 1.574 . S
C1412 C1428 1.368 . S
H1413 C1421 0.950 . S
H1414 C1419 0.950 . S
H1415 C1420 0.949 . S
H1416 C1422 0.950 . S
H1417 C1423 0.950 . S
H1418 C1424 0.949 . S
C1419 H1414 0.950 . S
C1419 C1421 1.327 . S
C1419 C1425 1.429 . S
C1420 C1412 1.574 . S
C1420 H1415 0.949 . S
C1420 C1426 1.368 . S
C1421 C1405 1.349 . S
C1421 H1413 0.950 . S
C1421 C1419 1.327 . S
C1422 C1410 1.349 . S
C1422 H1416 0.950 . S
C1422 C1423 1.327 . S
C1423 H1417 0.950 . S
C1423 C1422 1.327 . S
C1423 C1427 1.429 . S
C1424 C1407 1.574 . S
C1424 H1418 0.949 . S
C1424 C1428 1.368 . S
C1425 C1406 1.429 . S
C1425 C1419 1.429 . S
C1425 C1426 1.523 . S
C1426 C1407 1.368 . S
C1426 C1420 1.368 . S
C1426 C1425 1.523 . S
C1427 C1411 1.429 . S
C1427 C1423 1.429 . S
C1427 C1428 1.523 . S
C1428 C1412 1.368 . S
C1428 C1424 1.368 . S
C1428 C1427 1.523 . S
H1429 C1404 0.950 . S
H1430 C1406 0.950 . S
H1431 C1407 0.949 . S
H1432 C1409 0.950 . S
H1433 C1411 0.950 . S
C1434 C1435 1.349 . S
C1434 C1436 1.327 . S
C1434 H1459 0.950 . S
C1435 C1434 1.349 . S
C1435 C1451 1.349 . S
C1436 C1434 1.327 . S
C1436 C1455 1.429 . S
C1436 H1460 0.950 . S
C1437 C1454 1.574 . S
C1437 C1456 1.368 . S
C1437 H1461 0.949 . S
H1438 C1442 0.949 . S
C1439 C1440 1.349 . S
C1439 C1441 1.327 . S
C1439 H1462 0.950 . S
C1440 C1439 1.349 . S
C1440 C1452 1.349 . S
C1441 C1439 1.327 . S
C1441 C1457 1.429 . S
C1441 H1463 0.950 . S
C1442 H1438 0.949 . S
C1442 C1450 1.574 . S
C1442 C1458 1.368 . S
H1443 C1451 0.950 . S
H1444 C1449 0.950 . S
H1445 C1450 0.949 . S
H1446 C1452 0.950 . S
H1447 C1453 0.950 . S
H1448 C1454 0.949 . S
C1449 H1444 0.950 . S
C1449 C1451 1.327 . S
C1449 C1455 1.429 . S
C1450 C1442 1.574 . S
C1450 H1445 0.949 . S
C1450 C1456 1.368 . S
C1451 C1435 1.349 . S
C1451 H1443 0.950 . S
C1451 C1449 1.327 . S
C1452 C1440 1.349 . S
C1452 H1446 0.950 . S
C1452 C1453 1.327 . S
C1453 H1447 0.950 . S
C1453 C1452 1.327 . S
C1453 C1457 1.429 . S
C1454 C1437 1.574 . S
C1454 H1448 0.949 . S
C1454 C1458 1.368 . S
C1455 C1436 1.429 . S
C1455 C1449 1.429 . S
C1455 C1456 1.523 . S
C1456 C1437 1.368 . S
C1456 C1450 1.368 . S
C1456 C1455 1.523 . S
C1457 C1441 1.429 . S
C1457 C1453 1.429 . S
C1457 C1458 1.523 . S
C1458 C1442 1.368 . S
C1458 C1454 1.368 . S
C1458 C1457 1.523 . S
H1459 C1434 0.950 . S
H1460 C1436 0.950 . S
H1461 C1437 0.949 . S
H1462 C1439 0.950 . S
H1463 C1441 0.950 . S
C1464 C1465 1.349 . S
C1464 C1466 1.327 . S
C1464 H1489 0.950 . S
C1465 C1464 1.349 . S
C1465 C1481 1.349 . S
C1466 C1464 1.327 . S
C1466 C1485 1.429 . S
C1466 H1490 0.950 . S
C1467 C1484 1.574 . S
C1467 C1486 1.368 . S
C1467 H1491 0.949 . S
H1468 C1472 0.949 . S
C1469 C1470 1.349 . S
C1469 C1471 1.327 . S
C1469 H1492 0.950 . S
C1470 C1469 1.349 . S
C1470 C1482 1.349 . S
C1471 C1469 1.327 . S
C1471 C1487 1.429 . S
C1471 H1493 0.950 . S
C1472 H1468 0.949 . S
C1472 C1480 1.574 . S
C1472 C1488 1.368 . S
H1473 C1481 0.950 . S
H1474 C1479 0.950 . S
H1475 C1480 0.949 . S
H1476 C1482 0.950 . S
H1477 C1483 0.950 . S
H1478 C1484 0.949 . S
C1479 H1474 0.950 . S
C1479 C1481 1.327 . S
C1479 C1485 1.429 . S
C1480 C1472 1.574 . S
C1480 H1475 0.949 . S
C1480 C1486 1.368 . S
C1481 C1465 1.349 . S
C1481 H1473 0.950 . S
C1481 C1479 1.327 . S
C1482 C1470 1.349 . S
C1482 H1476 0.950 . S
C1482 C1483 1.327 . S
C1483 H1477 0.950 . S
C1483 C1482 1.327 . S
C1483 C1487 1.429 . S
C1484 C1467 1.574 . S
C1484 H1478 0.949 . S
C1484 C1488 1.368 . S
C1485 C1466 1.429 . S
C1485 C1479 1.429 . S
C1485 C1486 1.523 . S
C1486 C1467 1.368 . S
C1486 C1480 1.368 . S
C1486 C1485 1.523 . S
C1487 C1471 1.429 . S
C1487 C1483 1.429 . S
C1487 C1488 1.523 . S
C1488 C1472 1.368 . S
C1488 C1484 1.368 . S
C1488 C1487 1.523 . S
H1489 C1464 0.950 . S
H1490 C1466 0.950 . S
H1491 C1467 0.949 . S
H1492 C1469 0.950 . S
H1493 C1471 0.950 . S
C1494 C1495 1.349 . S
C1494 C1496 1.327 . S
C1494 H1519 0.950 . S
C1495 C1494 1.349 . S
C1495 C1511 1.349 . S
C1496 C1494 1.327 . S
C1496 C1515 1.429 . S
C1496 H1520 0.950 . S
C1497 C1514 1.574 . S
C1497 C1516 1.368 . S
C1497 H1521 0.949 . S
H1498 C1502 0.949 . S
C1499 C1500 1.349 . S
C1499 C1501 1.327 . S
C1499 H1522 0.950 1_565 S
C1500 C1499 1.349 . S
C1500 C1512 1.349 . S
C1501 C1499 1.327 . S
C1501 C1517 1.429 . S
C1501 H1523 0.950 . S
C1502 H1498 0.949 . S
C1502 C1510 1.574 . S
C1502 C1518 1.368 . S
H1503 C1511 0.950 . S
H1504 C1509 0.950 . S
H1505 C1510 0.949 . S
H1506 C1512 0.950 . S
H1507 C1513 0.950 . S
H1508 C1514 0.949 . S
C1509 H1504 0.950 . S
C1509 C1511 1.327 . S
C1509 C1515 1.429 . S
C1510 C1502 1.574 . S
C1510 H1505 0.949 . S
C1510 C1516 1.368 . S
C1511 C1495 1.349 . S
C1511 H1503 0.950 . S
C1511 C1509 1.327 . S
C1512 C1500 1.349 . S
C1512 H1506 0.950 . S
C1512 C1513 1.327 . S
C1513 H1507 0.950 . S
C1513 C1512 1.327 . S
C1513 C1517 1.429 . S
C1514 C1497 1.574 . S
C1514 H1508 0.949 . S
C1514 C1518 1.368 . S
C1515 C1496 1.429 . S
C1515 C1509 1.429 . S
C1515 C1516 1.523 . S
C1516 C1497 1.368 . S
C1516 C1510 1.368 . S
C1516 C1515 1.523 . S
C1517 C1501 1.429 . S
C1517 C1513 1.429 . S
C1517 C1518 1.523 . S
C1518 C1502 1.368 . S
C1518 C1514 1.368 . S
C1518 C1517 1.523 . S
H1519 C1494 0.950 . S
H1520 C1496 0.950 . S
H1521 C1497 0.949 . S
H1522 C1499 0.950 1_545 S
H1523 C1501 0.950 . S
C1524 C1525 1.349 . S
C1524 C1526 1.327 . S
C1524 H1549 0.950 . S
C1525 C1524 1.349 . S
C1525 C1541 1.349 . S
C1526 C1524 1.327 . S
C1526 C1545 1.429 . S
C1526 H1550 0.950 . S
C1527 C1544 1.574 . S
C1527 C1546 1.368 . S
C1527 H1551 0.949 . S
H1528 C1532 0.949 . S
C1529 C1530 1.349 . S
C1529 C1531 1.327 . S
C1529 H1552 0.950 . S
C1530 C1529 1.349 . S
C1530 C1542 1.349 . S
C1531 C1529 1.327 . S
C1531 C1547 1.429 . S
C1531 H1553 0.950 . S
C1532 H1528 0.949 . S
C1532 C1540 1.574 . S
C1532 C1548 1.368 . S
H1533 C1541 0.950 . S
H1534 C1539 0.950 . S
H1535 C1540 0.949 . S
H1536 C1542 0.950 1_655 S
H1537 C1543 0.950 . S
H1538 C1544 0.949 . S
C1539 H1534 0.950 . S
C1539 C1541 1.327 . S
C1539 C1545 1.429 . S
C1540 C1532 1.574 . S
C1540 H1535 0.949 . S
C1540 C1546 1.368 . S
C1541 C1525 1.349 . S
C1541 H1533 0.950 . S
C1541 C1539 1.327 . S
C1542 C1530 1.349 . S
C1542 H1536 0.950 1_455 S
C1542 C1543 1.327 . S
C1543 H1537 0.950 . S
C1543 C1542 1.327 . S
C1543 C1547 1.429 . S
C1544 C1527 1.574 . S
C1544 H1538 0.949 . S
C1544 C1548 1.368 . S
C1545 C1526 1.429 . S
C1545 C1539 1.429 . S
C1545 C1546 1.523 . S
C1546 C1527 1.368 . S
C1546 C1540 1.368 . S
C1546 C1545 1.523 . S
C1547 C1531 1.429 . S
C1547 C1543 1.429 . S
C1547 C1548 1.523 . S
C1548 C1532 1.368 . S
C1548 C1544 1.368 . S
C1548 C1547 1.523 . S
H1549 C1524 0.950 . S
H1550 C1526 0.950 . S
H1551 C1527 0.949 . S
H1552 C1529 0.950 . S
H1553 C1531 0.950 . S
C1554 C1555 1.349 . S
C1554 C1556 1.327 . S
C1554 H1579 0.950 . S
C1555 C1554 1.349 . S
C1555 C1571 1.349 . S
C1556 C1554 1.327 . S
C1556 C1575 1.429 . S
C1556 H1580 0.950 . S
C1557 C1574 1.574 . S
C1557 C1576 1.368 . S
C1557 H1581 0.949 . S
H1558 C1562 0.949 . S
C1559 C1560 1.349 . S
C1559 C1561 1.327 . S
C1559 H1582 0.950 . S
C1560 C1559 1.349 . S
C1560 C1572 1.349 . S
C1561 C1559 1.327 . S
C1561 C1577 1.429 . S
C1561 H1583 0.950 . S
C1562 H1558 0.949 . S
C1562 C1570 1.574 . S
C1562 C1578 1.368 . S
H1563 C1571 0.950 . S
H1564 C1569 0.950 . S
H1565 C1570 0.949 . S
H1566 C1572 0.950 . S
H1567 C1573 0.950 . S
H1568 C1574 0.949 . S
C1569 H1564 0.950 . S
C1569 C1571 1.327 . S
C1569 C1575 1.429 . S
C1570 C1562 1.574 . S
C1570 H1565 0.949 . S
C1570 C1576 1.368 . S
C1571 C1555 1.349 . S
C1571 H1563 0.950 . S
C1571 C1569 1.327 . S
C1572 C1560 1.349 . S
C1572 H1566 0.950 . S
C1572 C1573 1.327 . S
C1573 H1567 0.950 . S
C1573 C1572 1.327 . S
C1573 C1577 1.429 . S
C1574 C1557 1.574 . S
C1574 H1568 0.949 . S
C1574 C1578 1.368 . S
C1575 C1556 1.429 . S
C1575 C1569 1.429 . S
C1575 C1576 1.523 . S
C1576 C1557 1.368 . S
C1576 C1570 1.368 . S
C1576 C1575 1.523 . S
C1577 C1561 1.429 . S
C1577 C1573 1.429 . S
C1577 C1578 1.523 . S
C1578 C1562 1.368 . S
C1578 C1574 1.368 . S
C1578 C1577 1.523 . S
H1579 C1554 0.950 . S
H1580 C1556 0.950 . S
H1581 C1557 0.949 . S
H1582 C1559 0.950 . S
H1583 C1561 0.950 . S
C1584 C1585 1.349 . S
C1584 C1586 1.327 . S
C1584 H1609 0.950 . S
C1585 C1584 1.349 . S
C1585 C1601 1.349 . S
C1586 C1584 1.327 . S
C1586 C1605 1.429 . S
C1586 H1610 0.950 . S
C1587 C1604 1.574 . S
C1587 C1606 1.368 . S
C1587 H1611 0.949 . S
H1588 C1592 0.949 . S
C1589 C1590 1.349 . S
C1589 C1591 1.327 . S
C1589 H1612 0.950 . S
C1590 C1589 1.349 . S
C1590 C1602 1.349 . S
C1591 C1589 1.327 . S
C1591 C1607 1.429 . S
C1591 H1613 0.950 . S
C1592 H1588 0.949 . S
C1592 C1600 1.574 . S
C1592 C1608 1.368 . S
H1593 C1601 0.950 . S
H1594 C1599 0.950 . S
H1595 C1600 0.949 . S
H1596 C1602 0.950 . S
H1597 C1603 0.950 . S
H1598 C1604 0.949 . S
C1599 H1594 0.950 . S
C1599 C1601 1.327 . S
C1599 C1605 1.429 . S
C1600 C1592 1.574 . S
C1600 H1595 0.949 . S
C1600 C1606 1.368 . S
C1601 C1585 1.349 . S
C1601 H1593 0.950 . S
C1601 C1599 1.327 . S
C1602 C1590 1.349 . S
C1602 H1596 0.950 . S
C1602 C1603 1.327 . S
C1603 H1597 0.950 . S
C1603 C1602 1.327 . S
C1603 C1607 1.429 . S
C1604 C1587 1.574 . S
C1604 H1598 0.949 . S
C1604 C1608 1.368 . S
C1605 C1586 1.429 . S
C1605 C1599 1.429 . S
C1605 C1606 1.523 . S
C1606 C1587 1.368 . S
C1606 C1600 1.368 . S
C1606 C1605 1.523 . S
C1607 C1591 1.429 . S
C1607 C1603 1.429 . S
C1607 C1608 1.523 . S
C1608 C1592 1.368 . S
C1608 C1604 1.368 . S
C1608 C1607 1.523 . S
H1609 C1584 0.950 . S
H1610 C1586 0.950 . S
H1611 C1587 0.949 . S
H1612 C1589 0.950 . S
H1613 C1591 0.950 . S
C1614 C1615 1.349 . S
C1614 C1616 1.327 . S
C1614 H1639 0.950 . S
C1615 C1614 1.349 . S
C1615 C1631 1.349 . S
C1616 C1614 1.327 . S
C1616 C1635 1.429 . S
C1616 H1640 0.950 . S
C1617 C1634 1.574 . S
C1617 C1636 1.368 . S
C1617 H1641 0.949 . S
H1618 C1622 0.949 . S
C1619 C1620 1.349 . S
C1619 C1621 1.327 . S
C1619 H1642 0.950 . S
C1620 C1619 1.349 . S
C1620 C1632 1.349 . S
C1621 C1619 1.327 . S
C1621 C1637 1.429 . S
C1621 H1643 0.950 . S
C1622 H1618 0.949 . S
C1622 C1630 1.574 . S
C1622 C1638 1.368 . S
H1623 C1631 0.950 . S
H1624 C1629 0.950 . S
H1625 C1630 0.949 . S
H1626 C1632 0.950 . S
H1627 C1633 0.950 . S
H1628 C1634 0.949 . S
C1629 H1624 0.950 . S
C1629 C1631 1.327 . S
C1629 C1635 1.429 . S
C1630 C1622 1.574 . S
C1630 H1625 0.949 . S
C1630 C1636 1.368 . S
C1631 C1615 1.349 . S
C1631 H1623 0.950 . S
C1631 C1629 1.327 . S
C1632 C1620 1.349 . S
C1632 H1626 0.950 . S
C1632 C1633 1.327 . S
C1633 H1627 0.950 . S
C1633 C1632 1.327 . S
C1633 C1637 1.429 . S
C1634 C1617 1.574 . S
C1634 H1628 0.949 . S
C1634 C1638 1.368 . S
C1635 C1616 1.429 . S
C1635 C1629 1.429 . S
C1635 C1636 1.523 . S
C1636 C1617 1.368 . S
C1636 C1630 1.368 . S
C1636 C1635 1.523 . S
C1637 C1621 1.429 . S
C1637 C1633 1.429 . S
C1637 C1638 1.523 . S
C1638 C1622 1.368 . S
C1638 C1634 1.368 . S
C1638 C1637 1.523 . S
H1639 C1614 0.950 . S
H1640 C1616 0.950 . S
H1641 C1617 0.949 . S
H1642 C1619 0.950 . S
H1643 C1621 0.950 . S
C1644 C1645 1.349 . S
C1644 C1646 1.327 . S
C1644 H1669 0.950 . S
C1645 C1644 1.349 . S
C1645 C1661 1.349 . S
C1646 C1644 1.327 . S
C1646 C1665 1.429 . S
C1646 H1670 0.950 . S
C1647 C1664 1.574 . S
C1647 C1666 1.368 . S
C1647 H1671 0.949 . S
H1648 C1652 0.949 . S
C1649 C1650 1.349 . S
C1649 C1651 1.327 . S
C1649 H1672 0.950 1_545 S
C1650 C1649 1.349 . S
C1650 C1662 1.349 . S
C1651 C1649 1.327 . S
C1651 C1667 1.429 . S
C1651 H1673 0.950 . S
C1652 H1648 0.949 . S
C1652 C1660 1.574 . S
C1652 C1668 1.368 . S
H1653 C1661 0.950 . S
H1654 C1659 0.950 . S
H1655 C1660 0.949 . S
H1656 C1662 0.950 . S
H1657 C1663 0.950 . S
H1658 C1664 0.949 . S
C1659 H1654 0.950 . S
C1659 C1661 1.327 . S
C1659 C1665 1.429 . S
C1660 C1652 1.574 . S
C1660 H1655 0.949 . S
C1660 C1666 1.368 . S
C1661 C1645 1.349 . S
C1661 H1653 0.950 . S
C1661 C1659 1.327 . S
C1662 C1650 1.349 . S
C1662 H1656 0.950 . S
C1662 C1663 1.327 . S
C1663 H1657 0.950 . S
C1663 C1662 1.327 . S
C1663 C1667 1.429 . S
C1664 C1647 1.574 . S
C1664 H1658 0.949 . S
C1664 C1668 1.368 . S
C1665 C1646 1.429 . S
C1665 C1659 1.429 . S
C1665 C1666 1.523 . S
C1666 C1647 1.368 . S
C1666 C1660 1.368 . S
C1666 C1665 1.523 . S
C1667 C1651 1.429 . S
C1667 C1663 1.429 . S
C1667 C1668 1.523 . S
C1668 C1652 1.368 . S
C1668 C1664 1.368 . S
C1668 C1667 1.523 . S
H1669 C1644 0.950 . S
H1670 C1646 0.950 . S
H1671 C1647 0.949 . S
H1672 C1649 0.950 1_565 S
H1673 C1651 0.950 . S
C1674 C1675 1.349 . S
C1674 C1676 1.327 . S
C1674 H1699 0.950 . S
C1675 C1674 1.349 . S
C1675 C1691 1.349 . S
C1676 C1674 1.327 . S
C1676 C1695 1.429 . S
C1676 H1700 0.950 . S
C1677 C1694 1.574 . S
C1677 C1696 1.368 . S
C1677 H1701 0.949 . S
H1678 C1682 0.949 . S
C1679 C1680 1.349 . S
C1679 C1681 1.327 . S
C1679 H1702 0.950 . S
C1680 C1679 1.349 . S
C1680 C1692 1.349 . S
C1681 C1679 1.327 . S
C1681 C1697 1.429 . S
C1681 H1703 0.950 . S
C1682 H1678 0.949 . S
C1682 C1690 1.574 . S
C1682 C1698 1.368 . S
H1683 C1691 0.950 . S
H1684 C1689 0.950 . S
H1685 C1690 0.949 . S
H1686 C1692 0.950 . S
H1687 C1693 0.950 . S
H1688 C1694 0.949 . S
C1689 H1684 0.950 . S
C1689 C1691 1.327 . S
C1689 C1695 1.429 . S
C1690 C1682 1.574 . S
C1690 H1685 0.949 . S
C1690 C1696 1.368 . S
C1691 C1675 1.349 . S
C1691 H1683 0.950 . S
C1691 C1689 1.327 . S
C1692 C1680 1.349 . S
C1692 H1686 0.950 . S
C1692 C1693 1.327 . S
C1693 H1687 0.950 . S
C1693 C1692 1.327 . S
C1693 C1697 1.429 . S
C1694 C1677 1.574 . S
C1694 H1688 0.949 . S
C1694 C1698 1.368 . S
C1695 C1676 1.429 . S
C1695 C1689 1.429 . S
C1695 C1696 1.523 . S
C1696 C1677 1.368 . S
C1696 C1690 1.368 . S
C1696 C1695 1.523 . S
C1697 C1681 1.429 . S
C1697 C1693 1.429 . S
C1697 C1698 1.523 . S
C1698 C1682 1.368 . S
C1698 C1694 1.368 . S
C1698 C1697 1.523 . S
H1699 C1674 0.950 . S
H1700 C1676 0.950 . S
H1701 C1677 0.949 . S
H1702 C1679 0.950 . S
H1703 C1681 0.950 . S
C1704 C1705 1.349 . S
C1704 C1706 1.327 . S
C1704 H1729 0.950 . S
C1705 C1704 1.349 . S
C1705 C1721 1.349 . S
C1706 C1704 1.327 . S
C1706 C1725 1.429 . S
C1706 H1730 0.950 . S
C1707 C1724 1.574 . S
C1707 C1726 1.368 . S
C1707 H1731 0.949 . S
H1708 C1712 0.949 . S
C1709 C1710 1.349 . S
C1709 C1711 1.327 . S
C1709 H1732 0.950 . S
C1710 C1709 1.349 . S
C1710 C1722 1.349 . S
C1711 C1709 1.327 . S
C1711 C1727 1.429 . S
C1711 H1733 0.950 . S
C1712 H1708 0.949 . S
C1712 C1720 1.574 . S
C1712 C1728 1.368 . S
H1713 C1721 0.950 . S
H1714 C1719 0.950 . S
H1715 C1720 0.949 . S
H1716 C1722 0.950 . S
H1717 C1723 0.950 . S
H1718 C1724 0.949 . S
C1719 H1714 0.950 . S
C1719 C1721 1.327 . S
C1719 C1725 1.429 . S
C1720 C1712 1.574 . S
C1720 H1715 0.949 . S
C1720 C1726 1.368 . S
C1721 C1705 1.349 . S
C1721 H1713 0.950 . S
C1721 C1719 1.327 . S
C1722 C1710 1.349 . S
C1722 H1716 0.950 . S
C1722 C1723 1.327 . S
C1723 H1717 0.950 . S
C1723 C1722 1.327 . S
C1723 C1727 1.429 . S
C1724 C1707 1.574 . S
C1724 H1718 0.949 . S
C1724 C1728 1.368 . S
C1725 C1706 1.429 . S
C1725 C1719 1.429 . S
C1725 C1726 1.523 . S
C1726 C1707 1.368 . S
C1726 C1720 1.368 . S
C1726 C1725 1.523 . S
C1727 C1711 1.429 . S
C1727 C1723 1.429 . S
C1727 C1728 1.523 . S
C1728 C1712 1.368 . S
C1728 C1724 1.368 . S
C1728 C1727 1.523 . S
H1729 C1704 0.950 . S
H1730 C1706 0.950 . S
H1731 C1707 0.949 . S
H1732 C1709 0.950 . S
H1733 C1711 0.950 . S
C1734 C1735 1.349 . S
C1734 C1736 1.327 . S
C1734 H1759 0.950 . S
C1735 C1734 1.349 . S
C1735 C1751 1.349 . S
C1736 C1734 1.327 . S
C1736 C1755 1.429 . S
C1736 H1760 0.950 . S
C1737 C1754 1.574 . S
C1737 C1756 1.368 . S
C1737 H1761 0.949 . S
H1738 C1742 0.949 . S
C1739 C1740 1.349 . S
C1739 C1741 1.327 . S
C1739 H1762 0.950 . S
C1740 C1739 1.349 . S
C1740 C1752 1.349 . S
C1741 C1739 1.327 . S
C1741 C1757 1.429 . S
C1741 H1763 0.950 . S
C1742 H1738 0.949 . S
C1742 C1750 1.574 . S
C1742 C1758 1.368 . S
H1743 C1751 0.950 . S
H1744 C1749 0.950 . S
H1745 C1750 0.949 . S
H1746 C1752 0.950 . S
H1747 C1753 0.950 . S
H1748 C1754 0.949 . S
C1749 H1744 0.950 . S
C1749 C1751 1.327 . S
C1749 C1755 1.429 . S
C1750 C1742 1.574 . S
C1750 H1745 0.949 . S
C1750 C1756 1.368 . S
C1751 C1735 1.349 . S
C1751 H1743 0.950 . S
C1751 C1749 1.327 . S
C1752 C1740 1.349 . S
C1752 H1746 0.950 . S
C1752 C1753 1.327 . S
C1753 H1747 0.950 . S
C1753 C1752 1.327 . S
C1753 C1757 1.429 . S
C1754 C1737 1.574 . S
C1754 H1748 0.949 . S
C1754 C1758 1.368 . S
C1755 C1736 1.429 . S
C1755 C1749 1.429 . S
C1755 C1756 1.523 . S
C1756 C1737 1.368 . S
C1756 C1750 1.368 . S
C1756 C1755 1.523 . S
C1757 C1741 1.429 . S
C1757 C1753 1.429 . S
C1757 C1758 1.523 . S
C1758 C1742 1.368 . S
C1758 C1754 1.368 . S
C1758 C1757 1.523 . S
H1759 C1734 0.950 . S
H1760 C1736 0.950 . S
H1761 C1737 0.949 . S
H1762 C1739 0.950 . S
H1763 C1741 0.950 . S
C1764 C1765 1.349 . S
C1764 C1766 1.327 . S
C1764 H1789 0.950 . S
C1765 C1764 1.349 . S
C1765 C1781 1.349 . S
C1766 C1764 1.327 . S
C1766 C1785 1.429 . S
C1766 H1790 0.950 . S
C1767 C1784 1.574 . S
C1767 C1786 1.368 . S
C1767 H1791 0.949 . S
H1768 C1772 0.949 . S
C1769 C1770 1.349 . S
C1769 C1771 1.327 . S
C1769 H1792 0.950 . S
C1770 C1769 1.349 . S
C1770 C1782 1.349 . S
C1771 C1769 1.327 . S
C1771 C1787 1.429 . S
C1771 H1793 0.950 . S
C1772 H1768 0.949 . S
C1772 C1780 1.574 . S
C1772 C1788 1.368 . S
H1773 C1781 0.950 . S
H1774 C1779 0.950 . S
H1775 C1780 0.949 . S
H1776 C1782 0.950 . S
H1777 C1783 0.950 . S
H1778 C1784 0.949 . S
C1779 H1774 0.950 . S
C1779 C1781 1.327 . S
C1779 C1785 1.429 . S
C1780 C1772 1.574 . S
C1780 H1775 0.949 . S
C1780 C1786 1.368 . S
C1781 C1765 1.349 . S
C1781 H1773 0.950 . S
C1781 C1779 1.327 . S
C1782 C1770 1.349 . S
C1782 H1776 0.950 . S
C1782 C1783 1.327 . S
C1783 H1777 0.950 . S
C1783 C1782 1.327 . S
C1783 C1787 1.429 . S
C1784 C1767 1.574 . S
C1784 H1778 0.949 . S
C1784 C1788 1.368 . S
C1785 C1766 1.429 . S
C1785 C1779 1.429 . S
C1785 C1786 1.523 . S
C1786 C1767 1.368 . S
C1786 C1780 1.368 . S
C1786 C1785 1.523 . S
C1787 C1771 1.429 . S
C1787 C1783 1.429 . S
C1787 C1788 1.523 . S
C1788 C1772 1.368 . S
C1788 C1784 1.368 . S
C1788 C1787 1.523 . S
H1789 C1764 0.950 . S
H1790 C1766 0.950 . S
H1791 C1767 0.949 . S
H1792 C1769 0.950 . S
H1793 C1771 0.950 . S
C1794 C1795 1.349 . S
C1794 C1796 1.327 . S
C1794 H1819 0.950 . S
C1795 C1794 1.349 . S
C1795 C1811 1.349 . S
C1796 C1794 1.327 . S
C1796 C1815 1.429 . S
C1796 H1820 0.950 . S
C1797 C1814 1.574 . S
C1797 C1816 1.368 . S
C1797 H1821 0.949 . S
H1798 C1802 0.949 . S
C1799 C1800 1.349 . S
C1799 C1801 1.327 . S
C1799 H1822 0.950 . S
C1800 C1799 1.349 . S
C1800 C1812 1.349 . S
C1801 C1799 1.327 . S
C1801 C1817 1.429 . S
C1801 H1823 0.950 . S
C1802 H1798 0.949 . S
C1802 C1810 1.574 . S
C1802 C1818 1.368 . S
H1803 C1811 0.950 . S
H1804 C1809 0.950 . S
H1805 C1810 0.949 . S
H1806 C1812 0.950 . S
H1807 C1813 0.950 . S
H1808 C1814 0.949 . S
C1809 H1804 0.950 . S
C1809 C1811 1.327 . S
C1809 C1815 1.429 . S
C1810 C1802 1.574 . S
C1810 H1805 0.949 . S
C1810 C1816 1.368 . S
C1811 C1795 1.349 . S
C1811 H1803 0.950 . S
C1811 C1809 1.327 . S
C1812 C1800 1.349 . S
C1812 H1806 0.950 . S
C1812 C1813 1.327 . S
C1813 H1807 0.950 . S
C1813 C1812 1.327 . S
C1813 C1817 1.429 . S
C1814 C1797 1.574 . S
C1814 H1808 0.949 . S
C1814 C1818 1.368 . S
C1815 C1796 1.429 . S
C1815 C1809 1.429 . S
C1815 C1816 1.523 . S
C1816 C1797 1.368 . S
C1816 C1810 1.368 . S
C1816 C1815 1.523 . S
C1817 C1801 1.429 . S
C1817 C1813 1.429 . S
C1817 C1818 1.523 . S
C1818 C1802 1.368 . S
C1818 C1814 1.368 . S
C1818 C1817 1.523 . S
H1819 C1794 0.950 . S
H1820 C1796 0.950 . S
H1821 C1797 0.949 . S
H1822 C1799 0.950 . S
H1823 C1801 0.950 . S
C1824 C1825 1.349 . S
C1824 C1826 1.327 . S
C1824 H1849 0.950 . S
C1825 C1824 1.349 . S
C1825 C1841 1.349 . S
C1826 C1824 1.327 . S
C1826 C1845 1.429 . S
C1826 H1850 0.950 . S
C1827 C1844 1.574 . S
C1827 C1846 1.368 . S
C1827 H1851 0.949 . S
H1828 C1832 0.949 . S
C1829 C1830 1.349 . S
C1829 C1831 1.327 . S
C1829 H1852 0.950 . S
C1830 C1829 1.349 . S
C1830 C1842 1.349 . S
C1831 C1829 1.327 . S
C1831 C1847 1.429 . S
C1831 H1853 0.950 . S
C1832 H1828 0.949 . S
C1832 C1840 1.574 . S
C1832 C1848 1.368 . S
H1833 C1841 0.950 . S
H1834 C1839 0.950 . S
H1835 C1840 0.949 . S
H1836 C1842 0.950 . S
H1837 C1843 0.950 . S
H1838 C1844 0.949 . S
C1839 H1834 0.950 . S
C1839 C1841 1.327 . S
C1839 C1845 1.429 . S
C1840 C1832 1.574 . S
C1840 H1835 0.949 . S
C1840 C1846 1.368 . S
C1841 C1825 1.349 . S
C1841 H1833 0.950 . S
C1841 C1839 1.327 . S
C1842 C1830 1.349 . S
C1842 H1836 0.950 . S
C1842 C1843 1.327 . S
C1843 H1837 0.950 . S
C1843 C1842 1.327 . S
C1843 C1847 1.429 . S
C1844 C1827 1.574 . S
C1844 H1838 0.949 . S
C1844 C1848 1.368 . S
C1845 C1826 1.429 . S
C1845 C1839 1.429 . S
C1845 C1846 1.523 . S
C1846 C1827 1.368 . S
C1846 C1840 1.368 . S
C1846 C1845 1.523 . S
C1847 C1831 1.429 . S
C1847 C1843 1.429 . S
C1847 C1848 1.523 . S
C1848 C1832 1.368 . S
C1848 C1844 1.368 . S
C1848 C1847 1.523 . S
H1849 C1824 0.950 . S
H1850 C1826 0.950 . S
H1851 C1827 0.949 . S
H1852 C1829 0.950 . S
H1853 C1831 0.950 . S
C1854 C1855 1.349 . S
C1854 C1856 1.327 . S
C1854 H1879 0.950 . S
C1855 C1854 1.349 . S
C1855 C1871 1.349 . S
C1856 C1854 1.327 . S
C1856 C1875 1.429 . S
C1856 H1880 0.950 . S
C1857 C1874 1.574 . S
C1857 C1876 1.368 . S
C1857 H1881 0.949 . S
H1858 C1862 0.949 . S
C1859 C1860 1.349 . S
C1859 C1861 1.327 . S
C1859 H1882 0.950 . S
C1860 C1859 1.349 . S
C1860 C1872 1.349 . S
C1861 C1859 1.327 . S
C1861 C1877 1.429 . S
C1861 H1883 0.950 . S
C1862 H1858 0.949 . S
C1862 C1870 1.574 . S
C1862 C1878 1.368 . S
H1863 C1871 0.950 . S
H1864 C1869 0.950 . S
H1865 C1870 0.949 . S
H1866 C1872 0.950 . S
H1867 C1873 0.950 . S
H1868 C1874 0.949 . S
C1869 H1864 0.950 . S
C1869 C1871 1.327 . S
C1869 C1875 1.429 . S
C1870 C1862 1.574 . S
C1870 H1865 0.949 . S
C1870 C1876 1.368 . S
C1871 C1855 1.349 . S
C1871 H1863 0.950 . S
C1871 C1869 1.327 . S
C1872 C1860 1.349 . S
C1872 H1866 0.950 . S
C1872 C1873 1.327 . S
C1873 H1867 0.950 . S
C1873 C1872 1.327 . S
C1873 C1877 1.429 . S
C1874 C1857 1.574 . S
C1874 H1868 0.949 . S
C1874 C1878 1.368 . S
C1875 C1856 1.429 . S
C1875 C1869 1.429 . S
C1875 C1876 1.523 . S
C1876 C1857 1.368 . S
C1876 C1870 1.368 . S
C1876 C1875 1.523 . S
C1877 C1861 1.429 . S
C1877 C1873 1.429 . S
C1877 C1878 1.523 . S
C1878 C1862 1.368 . S
C1878 C1874 1.368 . S
C1878 C1877 1.523 . S
H1879 C1854 0.950 . S
H1880 C1856 0.950 . S
H1881 C1857 0.949 . S
H1882 C1859 0.950 . S
H1883 C1861 0.950 . S
C1884 C1885 1.349 . S
C1884 C1886 1.327 . S
C1884 H1909 0.950 . S
C1885 C1884 1.349 . S
C1885 C1901 1.349 . S
C1886 C1884 1.327 . S
C1886 C1905 1.429 . S
C1886 H1910 0.950 . S
C1887 C1904 1.574 . S
C1887 C1906 1.368 . S
C1887 H1911 0.949 . S
H1888 C1892 0.949 . S
C1889 C1890 1.349 . S
C1889 C1891 1.327 . S
C1889 H1912 0.950 . S
C1890 C1889 1.349 . S
C1890 C1902 1.349 . S
C1891 C1889 1.327 . S
C1891 C1907 1.429 . S
C1891 H1913 0.950 . S
C1892 H1888 0.949 . S
C1892 C1900 1.574 . S
C1892 C1908 1.368 . S
H1893 C1901 0.950 . S
H1894 C1899 0.950 . S
H1895 C1900 0.949 . S
H1896 C1902 0.950 . S
H1897 C1903 0.950 . S
H1898 C1904 0.949 . S
C1899 H1894 0.950 . S
C1899 C1901 1.327 . S
C1899 C1905 1.429 . S
C1900 C1892 1.574 . S
C1900 H1895 0.949 . S
C1900 C1906 1.368 . S
C1901 C1885 1.349 . S
C1901 H1893 0.950 . S
C1901 C1899 1.327 . S
C1902 C1890 1.349 . S
C1902 H1896 0.950 . S
C1902 C1903 1.327 . S
C1903 H1897 0.950 . S
C1903 C1902 1.327 . S
C1903 C1907 1.429 . S
C1904 C1887 1.574 . S
C1904 H1898 0.949 . S
C1904 C1908 1.368 . S
C1905 C1886 1.429 . S
C1905 C1899 1.429 . S
C1905 C1906 1.523 . S
C1906 C1887 1.368 . S
C1906 C1900 1.368 . S
C1906 C1905 1.523 . S
C1907 C1891 1.429 . S
C1907 C1903 1.429 . S
C1907 C1908 1.523 . S
C1908 C1892 1.368 . S
C1908 C1904 1.368 . S
C1908 C1907 1.523 . S
H1909 C1884 0.950 . S
H1910 C1886 0.950 . S
H1911 C1887 0.949 . S
H1912 C1889 0.950 . S
H1913 C1891 0.950 . S
C1914 C1915 1.349 . S
C1914 C1916 1.327 . S
C1914 H1939 0.950 . S
C1915 C1914 1.349 . S
C1915 C1931 1.349 . S
C1916 C1914 1.327 . S
C1916 C1935 1.429 . S
C1916 H1940 0.950 . S
C1917 C1934 1.574 . S
C1917 C1936 1.368 . S
C1917 H1941 0.949 . S
H1918 C1922 0.949 . S
C1919 C1920 1.349 . S
C1919 C1921 1.327 . S
C1919 H1942 0.950 . S
C1920 C1919 1.349 . S
C1920 C1932 1.349 . S
C1921 C1919 1.327 . S
C1921 C1937 1.429 . S
C1921 H1943 0.950 . S
C1922 H1918 0.949 . S
C1922 C1930 1.574 . S
C1922 C1938 1.368 . S
H1923 C1931 0.950 . S
H1924 C1929 0.950 . S
H1925 C1930 0.949 . S
H1926 C1932 0.950 . S
H1927 C1933 0.950 . S
H1928 C1934 0.949 . S
C1929 H1924 0.950 . S
C1929 C1931 1.327 . S
C1929 C1935 1.429 . S
C1930 C1922 1.574 . S
C1930 H1925 0.949 . S
C1930 C1936 1.368 . S
C1931 C1915 1.349 . S
C1931 H1923 0.950 . S
C1931 C1929 1.327 . S
C1932 C1920 1.349 . S
C1932 H1926 0.950 . S
C1932 C1933 1.327 . S
C1933 H1927 0.950 . S
C1933 C1932 1.327 . S
C1933 C1937 1.429 . S
C1934 C1917 1.574 . S
C1934 H1928 0.949 . S
C1934 C1938 1.368 . S
C1935 C1916 1.429 . S
C1935 C1929 1.429 . S
C1935 C1936 1.523 . S
C1936 C1917 1.368 . S
C1936 C1930 1.368 . S
C1936 C1935 1.523 . S
C1937 C1921 1.429 . S
C1937 C1933 1.429 . S
C1937 C1938 1.523 . S
C1938 C1922 1.368 . S
C1938 C1934 1.368 . S
C1938 C1937 1.523 . S
H1939 C1914 0.950 . S
H1940 C1916 0.950 . S
H1941 C1917 0.949 . S
H1942 C1919 0.950 . S
H1943 C1921 0.950 . S
C1944 C1945 1.349 . S
C1944 C1946 1.327 . S
C1944 H1969 0.950 . S
C1945 C1944 1.349 . S
C1945 C1961 1.349 . S
C1946 C1944 1.327 . S
C1946 C1965 1.429 . S
C1946 H1970 0.950 . S
C1947 C1964 1.574 . S
C1947 C1966 1.368 . S
C1947 H1971 0.949 . S
H1948 C1952 0.949 . S
C1949 C1950 1.349 . S
C1949 C1951 1.327 . S
C1949 H1972 0.950 . S
C1950 C1949 1.349 . S
C1950 C1962 1.349 . S
C1951 C1949 1.327 . S
C1951 C1967 1.429 . S
C1951 H1973 0.950 . S
C1952 H1948 0.949 . S
C1952 C1960 1.574 . S
C1952 C1968 1.368 . S
H1953 C1961 0.950 . S
H1954 C1959 0.950 . S
H1955 C1960 0.949 . S
H1956 C1962 0.950 . S
H1957 C1963 0.950 . S
H1958 C1964 0.949 . S
C1959 H1954 0.950 . S
C1959 C1961 1.327 . S
C1959 C1965 1.429 . S
C1960 C1952 1.574 . S
C1960 H1955 0.949 . S
C1960 C1966 1.368 . S
C1961 C1945 1.349 . S
C1961 H1953 0.950 . S
C1961 C1959 1.327 . S
C1962 C1950 1.349 . S
C1962 H1956 0.950 . S
C1962 C1963 1.327 . S
C1963 H1957 0.950 . S
C1963 C1962 1.327 . S
C1963 C1967 1.429 . S
C1964 C1947 1.574 . S
C1964 H1958 0.949 . S
C1964 C1968 1.368 . S
C1965 C1946 1.429 . S
C1965 C1959 1.429 . S
C1965 C1966 1.523 . S
C1966 C1947 1.368 . S
C1966 C1960 1.368 . S
C1966 C1965 1.523 . S
C1967 C1951 1.429 . S
C1967 C1963 1.429 . S
C1967 C1968 1.523 . S
C1968 C1952 1.368 . S
C1968 C1964 1.368 . S
C1968 C1967 1.523 . S
H1969 C1944 0.950 . S
H1970 C1946 0.950 . S
H1971 C1947 0.949 . S
H1972 C1949 0.950 . S
H1973 C1951 0.950 . S
C1974 C1975 1.349 . S
C1974 C1976 1.327 . S
C1974 H1999 0.950 . S
C1975 C1974 1.349 . S
C1975 C1991 1.349 . S
C1976 C1974 1.327 . S
C1976 C1995 1.429 . S
C1976 H2000 0.950 . S
C1977 C1994 1.574 . S
C1977 C1996 1.368 . S
C1977 H2001 0.949 . S
H1978 C1982 0.949 . S
C1979 C1980 1.349 . S
C1979 C1981 1.327 . S
C1979 H2002 0.950 . S
C1980 C1979 1.349 . S
C1980 C1992 1.349 . S
C1981 C1979 1.327 . S
C1981 C1997 1.429 . S
C1981 H2003 0.950 . S
C1982 H1978 0.949 . S
C1982 C1990 1.574 . S
C1982 C1998 1.368 . S
H1983 C1991 0.950 . S
H1984 C1989 0.950 . S
H1985 C1990 0.949 . S
H1986 C1992 0.950 . S
H1987 C1993 0.950 . S
H1988 C1994 0.949 . S
C1989 H1984 0.950 . S
C1989 C1991 1.327 . S
C1989 C1995 1.429 . S
C1990 C1982 1.574 . S
C1990 H1985 0.949 . S
C1990 C1996 1.368 . S
C1991 C1975 1.349 . S
C1991 H1983 0.950 . S
C1991 C1989 1.327 . S
C1992 C1980 1.349 . S
C1992 H1986 0.950 . S
C1992 C1993 1.327 . S
C1993 H1987 0.950 . S
C1993 C1992 1.327 . S
C1993 C1997 1.429 . S
C1994 C1977 1.574 . S
C1994 H1988 0.949 . S
C1994 C1998 1.368 . S
C1995 C1976 1.429 . S
C1995 C1989 1.429 . S
C1995 C1996 1.523 . S
C1996 C1977 1.368 . S
C1996 C1990 1.368 . S
C1996 C1995 1.523 . S
C1997 C1981 1.429 . S
C1997 C1993 1.429 . S
C1997 C1998 1.523 . S
C1998 C1982 1.368 . S
C1998 C1994 1.368 . S
C1998 C1997 1.523 . S
H1999 C1974 0.950 . S
H2000 C1976 0.950 . S
H2001 C1977 0.949 . S
H2002 C1979 0.950 . S
H2003 C1981 0.950 . S
C2004 C2005 1.349 . S
C2004 C2006 1.327 . S
C2004 H2029 0.950 . S
C2005 C2004 1.349 . S
C2005 C2021 1.349 . S
C2006 C2004 1.327 . S
C2006 C2025 1.429 . S
C2006 H2030 0.950 . S
C2007 C2024 1.574 . S
C2007 C2026 1.368 . S
C2007 H2031 0.949 . S
H2008 C2012 0.949 . S
C2009 C2010 1.349 . S
C2009 C2011 1.327 . S
C2009 H2032 0.950 . S
C2010 C2009 1.349 . S
C2010 C2022 1.349 . S
C2011 C2009 1.327 . S
C2011 C2027 1.429 . S
C2011 H2033 0.950 . S
C2012 H2008 0.949 . S
C2012 C2020 1.574 . S
C2012 C2028 1.368 . S
H2013 C2021 0.950 . S
H2014 C2019 0.950 . S
H2015 C2020 0.949 . S
H2016 C2022 0.950 . S
H2017 C2023 0.950 . S
H2018 C2024 0.949 . S
C2019 H2014 0.950 . S
C2019 C2021 1.327 . S
C2019 C2025 1.429 . S
C2020 C2012 1.574 . S
C2020 H2015 0.949 . S
C2020 C2026 1.368 . S
C2021 C2005 1.349 . S
C2021 H2013 0.950 . S
C2021 C2019 1.327 . S
C2022 C2010 1.349 . S
C2022 H2016 0.950 . S
C2022 C2023 1.327 . S
C2023 H2017 0.950 . S
C2023 C2022 1.327 . S
C2023 C2027 1.429 . S
C2024 C2007 1.574 . S
C2024 H2018 0.949 . S
C2024 C2028 1.368 . S
C2025 C2006 1.429 . S
C2025 C2019 1.429 . S
C2025 C2026 1.523 . S
C2026 C2007 1.368 . S
C2026 C2020 1.368 . S
C2026 C2025 1.523 . S
C2027 C2011 1.429 . S
C2027 C2023 1.429 . S
C2027 C2028 1.523 . S
C2028 C2012 1.368 . S
C2028 C2024 1.368 . S
C2028 C2027 1.523 . S
H2029 C2004 0.950 . S
H2030 C2006 0.950 . S
H2031 C2007 0.949 . S
H2032 C2009 0.950 . S
H2033 C2011 0.950 . S
C415 C177 1.569 . S
C420 C240 1.550 . S
C445 C190 1.546 . S
C450 C260 1.520 . S
C475 C164 1.519 . S
C480 C283 1.524 . S
C505 C151 1.409 . S
C510 C263 1.411 1_556 S
C540 C280 1.416 . S
C535 C125 1.435 . S
C565 C138 1.437 . S
C570 C243 1.438 1_556 S
C600 C250 1.554 . S
C595 C147 1.536 . S
C630 C270 1.451 . S
C625 C121 1.424 . S
C655 C134 1.507 . S
C660 C275 1.575 . S
C685 C173 1.391 . S
C690 C255 1.449 . S
C715 C186 1.391 . S
C720 C290 1.408 . S
C750 C235 1.522 . S
C745 C160 1.472 . S
C780 C300 1.550 . S
C775 C21 1.569 . S
C805 C34 1.546 . S
C810 C320 1.520 . S
C835 C8 1.519 . S
C840 C343 1.524 . S
C865 C229 1.409 . S
C870 C323 1.411 . S
C895 C203 1.435 . S
C900 C340 1.417 . S
C925 C216 1.437 . S
C930 C303 1.440 . S
C955 C225 1.536 . S
C960 C310 1.554 . S
C985 C199 1.424 . S
C990 C330 1.451 . S
C1020 C335 1.575 . S
C1015 C212 1.507 . S
C1045 C17 1.391 . S
C1050 C315 1.449 . S
C1080 C350 1.407 . S
C1075 C30 1.391 . S
C1105 C4 1.472 . S
C1110 C295 1.522 . S
C1140 C360 1.550 . S
C1135 C99 1.569 . S
C1165 C112 1.546 . S
C1170 C380 1.520 . S
C1200 C403 1.524 . S
C1195 C86 1.519 . S
C1230 C383 1.411 . S
C1225 C73 1.409 . S
C1260 C400 1.416 . S
C1255 C47 1.435 . S
C1285 C60 1.437 . S
C1290 C363 1.440 . S
C1315 C69 1.536 . S
C1320 C370 1.554 . S
C1345 C43 1.424 . S
C1350 C390 1.452 . S
C1380 C395 1.575 . S
C1375 C56 1.507 . S
C1405 C95 1.391 . S
C1410 C375 1.449 . S
C1435 C108 1.391 . S
C1440 C410 1.408 . S
C1465 C82 1.472 . S
C1470 C355 1.522 . S
C1495 C204 1.317 . S
C1500 C253 1.267 . S
C1530 C273 1.685 . S
C1525 C217 1.768 . S
C1555 C230 1.524 . S
C1560 C282 1.491 . S
C1585 C87 1.726 . S
C1590 C262 1.677 . S
C1615 C100 1.597 . S
C1620 C293 1.531 . S
C1650 C242 1.268 . S
C1645 C113 1.290 . S
C1675 C48 1.317 . S
C1680 C313 1.267 . S
C1705 C61 1.768 . S
C1710 C333 1.685 . S
C1735 C74 1.524 . S
C1740 C342 1.491 . S
C1765 C165 1.726 . S
C1770 C322 1.677 . S
C1800 C353 1.531 . S
C1795 C178 1.598 . S
C1825 C191 1.290 . S
C1830 C302 1.268 . S
C1855 C126 1.317 . S
C1860 C373 1.267 . S
C1885 C139 1.768 . S
C1890 C393 1.685 . S
C1920 C402 1.491 . S
C1915 C152 1.523 . S
C1945 C9 1.726 . S
C1950 C382 1.678 . S
C1975 C22 1.598 . S
C1980 C413 1.531 . S
C2005 C35 1.290 . S
C2010 C362 1.268 . S
