# Generated by pormake.
# Topology dag, (6,3)-cn, num edge types: 1
# Building blocks:
#     Node 0, Type 0, BuildingBlock: IZENUY_clean_sbu_0, # of connection points: 6
#     Node 1, Type 0, BuildingBlock: IZENUY_clean_sbu_0, # of connection points: 6
#     Node 2, Type 0, BuildingBlock: IZENUY_clean_sbu_0, # of connection points: 6
#     Node 3, Type 0, BuildingBlock: IZENUY_clean_sbu_0, # of connection points: 6
#     Node 4, Type 1, BuildingBlock: QEWDON_clean_linker_0, # of connection points: 3
#     Node 5, Type 1, BuildingBlock: QEWDON_clean_linker_0, # of connection points: 3
#     Node 6, Type 1, BuildingBlock: QEWDON_clean_linker_0, # of connection points: 3
#     Node 7, Type 1, BuildingBlock: QEWDON_clean_linker_0, # of connection points: 3
#     Node 8, Type 1, BuildingBlock: QEWDON_clean_linker_0, # of connection points: 3
#     Node 9, Type 1, BuildingBlock: QEWDON_clean_linker_0, # of connection points: 3
#     Node 10, Type 1, BuildingBlock: QEWDON_clean_linker_0, # of connection points: 3
#     Node 11, Type 1, BuildingBlock: QEWDON_clean_linker_0, # of connection points: 3
#     Edge 12, Type (0, 1), BuildingBlock: MIFKUJ_clean_linker_0, # of connection points: 2
#     Edge 13, Type (0, 1), BuildingBlock: MIFKUJ_clean_linker_0, # of connection points: 2
#     Edge 14, Type (0, 1), BuildingBlock: MIFKUJ_clean_linker_0, # of connection points: 2
#     Edge 15, Type (0, 1), BuildingBlock: MIFKUJ_clean_linker_0, # of connection points: 2
#     Edge 16, Type (0, 1), BuildingBlock: MIFKUJ_clean_linker_0, # of connection points: 2
#     Edge 17, Type (0, 1), BuildingBlock: MIFKUJ_clean_linker_0, # of connection points: 2
#     Edge 18, Type (0, 1), BuildingBlock: MIFKUJ_clean_linker_0, # of connection points: 2
#     Edge 19, Type (0, 1), BuildingBlock: MIFKUJ_clean_linker_0, # of connection points: 2
#     Edge 20, Type (0, 1), BuildingBlock: MIFKUJ_clean_linker_0, # of connection points: 2
#     Edge 21, Type (0, 1), BuildingBlock: MIFKUJ_clean_linker_0, # of connection points: 2
#     Edge 22, Type (0, 1), BuildingBlock: MIFKUJ_clean_linker_0, # of connection points: 2
#     Edge 23, Type (0, 1), BuildingBlock: MIFKUJ_clean_linker_0, # of connection points: 2
#     Edge 24, Type (0, 1), BuildingBlock: MIFKUJ_clean_linker_0, # of connection points: 2
#     Edge 25, Type (0, 1), BuildingBlock: MIFKUJ_clean_linker_0, # of connection points: 2
#     Edge 26, Type (0, 1), BuildingBlock: MIFKUJ_clean_linker_0, # of connection points: 2
#     Edge 27, Type (0, 1), BuildingBlock: MIFKUJ_clean_linker_0, # of connection points: 2
#     Edge 28, Type (0, 1), BuildingBlock: MIFKUJ_clean_linker_0, # of connection points: 2
#     Edge 29, Type (0, 1), BuildingBlock: MIFKUJ_clean_linker_0, # of connection points: 2
#     Edge 30, Type (0, 1), BuildingBlock: MIFKUJ_clean_linker_0, # of connection points: 2
#     Edge 31, Type (0, 1), BuildingBlock: MIFKUJ_clean_linker_0, # of connection points: 2
#     Edge 32, Type (0, 1), BuildingBlock: MIFKUJ_clean_linker_0, # of connection points: 2
#     Edge 33, Type (0, 1), BuildingBlock: MIFKUJ_clean_linker_0, # of connection points: 2
#     Edge 34, Type (0, 1), BuildingBlock: MIFKUJ_clean_linker_0, # of connection points: 2
#     Edge 35, Type (0, 1), BuildingBlock: MIFKUJ_clean_linker_0, # of connection points: 2
# Relax obj value: 0.042
# Max RMSD: 0.063
# Mean RMSD: 0.056
data_MOF--net-dag--node1-IZENUY_clean_sbu_0--node2-QEWDON_clean_linker_0--edge1-MIFKUJ_clean_linker_0
_symmetry_space_group_name_H-M    P1
_symmetry_Int_Tables_number       1
_symmetry_cell_setting            triclinic
loop_
_symmetry_equiv_pos_as_xyz
'x, y, z'
_cell_length_a     53.45901
_cell_length_b     53.696592
_cell_length_c     48.685699
_cell_angle_alpha  91.239925
_cell_angle_beta   89.793509
_cell_angle_gamma 89.926518
loop_
_atom_site_label
_atom_site_type_symbol
_atom_site_fract_x
_atom_site_fract_y
_atom_site_fract_z
_atom_type_partial_charge
Fe0 Fe 0.17485 0.86569 0.03163 0.0
Fe1 Fe 0.11949 0.88078 0.02844 0.0
O2 O 0.1428 0.85723 0.02956 0.0
Fe3 Fe 0.13374 0.82543 0.02865 0.0
O4 O 0.14869 0.81961 0.06118 0.0
O5 O 0.18386 0.83958 0.05337 0.0
O6 O 0.16978 0.88375 0.06329 0.0
C7 C 0.15475 0.90179 0.06541 0.0
C8 C 0.17754 0.8258 0.99533 0.0
O9 O 0.13708 0.90403 0.0485 0.0
C10 C 0.1004 0.8438 0.99199 0.0
O11 O 0.17136 0.89326 0.00999 0.0
O12 O 0.13197 0.89243 0.99661 0.0
O13 O 0.16119 0.81446 0.00915 0.0
O14 O 0.18261 0.84835 1.00038 0.0
C15 C 0.09785 0.84871 0.06407 0.0
O16 O 0.09716 0.86231 0.00807 0.0
O17 O 0.11806 0.82874 0.9958 0.0
C18 C 0.15425 0.8997 0.99353 0.0
O19 O 0.10569 0.87055 0.06029 0.0
O20 O 0.10466 0.83075 0.04838 0.0
C21 C 0.17105 0.82453 0.06733 0.0
Fe22 Fe 0.67574 0.63036 0.50726 0.0
Fe23 Fe 0.63495 0.67094 0.51073 0.0
O24 O 0.64386 0.63914 0.50971 0.0
Fe25 Fe 0.62069 0.61583 0.51107 0.0
O26 O 0.64037 0.59304 0.52818 0.0
O27 O 0.67419 0.61376 0.53952 0.0
O28 O 0.68733 0.65741 0.52718 0.0
C29 C 0.67642 0.67242 0.54374 0.0
C30 C 0.65122 0.59605 0.47151 0.0
O31 O 0.65338 0.67702 0.54141 0.0
C32 C 0.59818 0.65169 0.47771 0.0
O33 O 0.67937 0.64634 0.47505 0.0
O34 O 0.66048 0.68112 0.48813 0.0
O35 O 0.62956 0.6039 0.47731 0.0
O36 O 0.66973 0.60171 0.48665 0.0
C37 C 0.60306 0.64857 0.54998 0.0
O38 O 0.61582 0.66719 0.47992 0.0
O39 O 0.59647 0.634 0.49428 0.0
C40 C 0.67435 0.669 0.47137 0.0
O41 O 0.60791 0.66616 0.53374 0.0
O42 O 0.61069 0.6267 0.54482 0.0
C43 C 0.6592 0.59607 0.5435 0.0
Fe44 Fe 0.86426 0.17139 1.00074 0.0
Fe45 Fe 0.87838 0.11631 0.0029 0.0
O46 O 0.8552 0.13973 1.00133 0.0
Fe47 Fe 0.82315 0.13136 1.00042 0.0
O48 O 0.81373 0.15732 0.97853 0.0
O49 O 0.8492 0.17555 0.96793 0.0
O50 O 0.89341 0.16541 0.98129 0.0
C51 C 0.89995 0.14709 0.96595 0.0
C52 C 0.82128 0.17211 0.03522 0.0
O53 O 0.89181 0.12549 0.97043 0.0
C54 C 0.84412 0.09845 0.03905 0.0
O55 O 0.88001 0.16925 0.03374 0.0
O56 O 0.90086 0.13534 0.02237 0.0
O57 O 0.81658 0.14924 0.0317 0.0
O58 O 0.83671 0.18301 0.01975 0.0
C59 C 0.84287 0.09511 0.96654 0.0
O60 O 0.86625 0.10588 0.03546 0.0
O61 O 0.82698 0.10393 0.02222 0.0
C62 C 0.89754 0.15412 0.03807 0.0
O63 O 0.86039 0.0928 0.98367 0.0
O64 O 0.8275 0.11289 0.96896 0.0
C65 C 0.82652 0.17099 0.96288 0.0
Fe66 Fe 0.37842 0.38247 0.51777 0.0
Fe67 Fe 0.32364 0.36692 0.52384 0.0
O68 O 0.35565 0.3588 0.5203 0.0
Fe69 Fe 0.36517 0.32716 0.5193 0.0
O70 O 0.38486 0.33155 0.54951 0.0
O71 O 0.40345 0.36483 0.53412 0.0
O72 O 0.37035 0.39481 0.5515 0.0
C73 C 0.34874 0.40212 0.55846 0.0
C74 C 0.39582 0.34961 0.47893 0.0
O75 O 0.32968 0.39547 0.54462 0.0
C76 C 0.32311 0.32481 0.48727 0.0
O77 O 0.35793 0.40481 0.50105 0.0
O78 O 0.32377 0.38385 0.49176 0.0
O79 O 0.39161 0.33221 0.49559 0.0
O80 O 0.3877 0.37134 0.48382 0.0
C81 C 0.32653 0.32819 0.5596 0.0
O82 O 0.31214 0.33972 0.50395 0.0
O83 O 0.34626 0.32063 0.48919 0.0
C84 C 0.33829 0.40176 0.48703 0.0
O85 O 0.32106 0.35074 0.55602 0.0
O86 O 0.34041 0.31641 0.54261 0.0
C87 C 0.40258 0.34704 0.55068 0.0
H88 H 0.15265 0.11966 0.26773 0.0
C89 C 0.13786 0.12816 0.25597 0.0
C90 C 0.13241 0.11911 0.2293 0.0
C91 C 0.12347 0.1475 0.26797 0.0
H92 H 0.10758 0.12238 0.19477 0.0
C93 C 0.11273 0.13005 0.21474 0.0
C94 C 0.09838 0.14952 0.22632 0.0
C95 C 0.1038 0.15806 0.25306 0.0
C96 C 0.12705 0.1551 0.29707 0.0
H97 H 0.09256 0.17278 0.26245 0.0
C98 C 0.1494 0.16635 0.3062 0.0
C99 C 0.15191 0.17437 0.33387 0.0
C100 C 0.10739 0.15161 0.31575 0.0
H101 H 0.09005 0.143 0.30909 0.0
C102 C 0.10988 0.15916 0.34315 0.0
H103 H 0.16457 0.16911 0.29175 0.0
C104 C 0.13188 0.17053 0.35217 0.0
H105 H 0.13296 0.17684 0.37341 0.0
H106 H 0.09459 0.15646 0.3574 0.0
H107 H 0.40216 0.67004 0.7734 0.0
C108 C 0.39286 0.65497 0.76234 0.0
C109 C 0.40105 0.64798 0.73593 0.0
C110 C 0.37351 0.64172 0.77505 0.0
H111 H 0.39707 0.6217 0.70232 0.0
C112 C 0.39002 0.62759 0.72237 0.0
C113 C 0.37145 0.6135 0.73521 0.0
C114 C 0.3628 0.62097 0.76143 0.0
C115 C 0.36768 0.64712 0.80419 0.0
H116 H 0.34899 0.60982 0.77191 0.0
C117 C 0.34886 0.66425 0.81197 0.0
C118 C 0.34524 0.67065 0.83991 0.0
C119 C 0.38237 0.63608 0.82441 0.0
H120 H 0.39699 0.62295 0.8187 0.0
C121 C 0.37859 0.6422 0.8521 0.0
H122 H 0.33761 0.673 0.7964 0.0
C123 C 0.36027 0.65952 0.85984 0.0
H124 H 0.35771 0.66415 0.88144 0.0
H125 H 0.39006 0.63368 0.86759 0.0
H126 H 0.85112 0.80982 0.20682 0.0
C127 C 0.84715 0.82953 0.20507 0.0
C128 C 0.86645 0.84599 0.1983 0.0
C129 C 0.8224 0.83823 0.20734 0.0
H130 H 0.87597 0.88351 0.18823 0.0
C131 C 0.86106 0.8712 0.19461 0.0
C132 C 0.83644 0.8802 0.19668 0.0
C133 C 0.81712 0.86351 0.203 0.0
C134 C 0.80167 0.82031 0.20996 0.0
H135 H 0.79791 0.86999 0.20384 0.0
C136 C 0.79652 0.80873 0.23501 0.0
C137 C 0.777 0.79119 0.23671 0.0
C138 C 0.78715 0.81445 0.18677 0.0
H139 H 0.79089 0.82322 0.16734 0.0
C140 C 0.76795 0.79699 0.18835 0.0
H141 H 0.80767 0.81328 0.25298 0.0
C142 C 0.76292 0.78535 0.21311 0.0
H143 H 0.74772 0.77206 0.21394 0.0
H144 H 0.75689 0.79249 0.17035 0.0
H145 H 0.70053 0.36715 0.69882 0.0
C146 C 0.6811 0.36136 0.6989 0.0
C147 C 0.66209 0.37914 0.69594 0.0
C148 C 0.67519 0.33602 0.70105 0.0
H149 H 0.62243 0.38486 0.69162 0.0
C150 C 0.63706 0.37132 0.6953 0.0
C151 C 0.63095 0.34592 0.69641 0.0
C152 C 0.65014 0.32831 0.69957 0.0
C153 C 0.69549 0.31745 0.70161 0.0
H154 H 0.6457 0.30862 0.69981 0.0
C155 C 0.70289 0.30675 0.7264 0.0
C156 C 0.72322 0.29002 0.72682 0.0
C157 C 0.70813 0.31109 0.67717 0.0
H158 H 0.70265 0.31926 0.65794 0.0
C159 C 0.72796 0.2942 0.67739 0.0
H160 H 0.69334 0.31204 0.74533 0.0
C161 C 0.73553 0.28377 0.70202 0.0
H162 H 0.75098 0.27068 0.70164 0.0
H163 H 0.73759 0.28929 0.65844 0.0
H164 H 0.65324 0.38794 0.25573 0.0
C165 C 0.63816 0.37803 0.26567 0.0
C166 C 0.63082 0.38495 0.2925 0.0
C167 C 0.62532 0.35911 0.25118 0.0
H168 H 0.60448 0.37833 0.32518 0.0
C169 C 0.61083 0.3725 0.30483 0.0
C170 C 0.59742 0.35418 0.29025 0.0
C171 C 0.60463 0.34751 0.26337 0.0
C172 C 0.63153 0.35384 0.2221 0.0
H173 H 0.59382 0.33388 0.25174 0.0
C174 C 0.65122 0.3376 0.21467 0.0
C175 C 0.65752 0.33366 0.18677 0.0
C176 C 0.61798 0.36584 0.20163 0.0
H177 H 0.60279 0.3784 0.20708 0.0
C178 C 0.62413 0.36194 0.17401 0.0
H179 H 0.66175 0.32837 0.2305 0.0
C180 C 0.6438 0.34604 0.16658 0.0
H181 H 0.64809 0.34314 0.14498 0.0
H182 H 0.61363 0.37129 0.15829 0.0
H183 H 0.20879 0.1351 0.83073 0.0
C184 C 0.18859 0.13694 0.83041 0.0
C185 C 0.17352 0.11658 0.83712 0.0
C186 C 0.17758 0.16014 0.82507 0.0
H187 H 0.13612 0.10382 0.84463 0.0
C188 C 0.14753 0.11948 0.83854 0.0
C189 C 0.13636 0.14282 0.83487 0.0
C190 C 0.15147 0.163 0.82739 0.0
C191 C 0.19348 0.18244 0.82267 0.0
H192 H 0.14324 0.18134 0.82542 0.0
C193 C 0.20192 0.19074 0.797 0.0
C194 C 0.2162 0.21277 0.79543 0.0
C195 C 0.19969 0.19592 0.84667 0.0
H196 H 0.19331 0.18975 0.86655 0.0
C197 C 0.21402 0.21751 0.84522 0.0
H198 H 0.19696 0.18045 0.77842 0.0
C199 C 0.22218 0.22594 0.81983 0.0
H200 H 0.23339 0.24272 0.81929 0.0
H201 H 0.21877 0.22779 0.86384 0.0
H202 H 0.35857 0.68543 0.33654 0.0
C203 C 0.351 0.66671 0.33593 0.0
C204 C 0.36674 0.64626 0.34061 0.0
C205 C 0.32516 0.66336 0.33206 0.0
H206 H 0.36806 0.60623 0.34416 0.0
C207 C 0.35625 0.62226 0.34054 0.0
C208 C 0.3304 0.61873 0.33773 0.0
C209 C 0.31483 0.63935 0.33336 0.0
C210 C 0.30886 0.68547 0.33009 0.0
H211 H 0.29475 0.63685 0.33199 0.0
C212 C 0.2977 0.69189 0.30506 0.0
C213 C 0.28433 0.71442 0.30307 0.0
C214 C 0.30587 0.70123 0.35324 0.0
H215 H 0.31441 0.69659 0.37263 0.0
C216 C 0.2921 0.7232 0.3515 0.0
H217 H 0.30033 0.67999 0.287 0.0
C218 C 0.28155 0.7299 0.32655 0.0
H219 H 0.27121 0.74722 0.32556 0.0
H220 H 0.28989 0.73527 0.36944 0.0
H221 H 0.90505 0.82597 0.77018 0.0
C222 C 0.89427 0.84162 0.77824 0.0
C223 C 0.89941 0.85154 0.80457 0.0
C224 C 0.87558 0.85211 0.76186 0.0
H225 H 0.88993 0.88069 0.83398 0.0
C226 C 0.88537 0.87207 0.8143 0.0
C227 C 0.86677 0.8829 0.7981 0.0
C228 C 0.8619 0.87277 0.77181 0.0
C229 C 0.8727 0.84334 0.73312 0.0
H230 H 0.84806 0.88137 0.75883 0.0
C231 C 0.85237 0.82831 0.72491 0.0
C232 C 0.85081 0.81912 0.69758 0.0
C233 C 0.89112 0.84956 0.71389 0.0
H234 H 0.90688 0.86108 0.71994 0.0
C235 C 0.88935 0.84102 0.68675 0.0
H236 H 0.83835 0.82319 0.73989 0.0
C237 C 0.86941 0.82589 0.67862 0.0
H238 H 0.86849 0.81955 0.65737 0.0
H239 H 0.90356 0.84603 0.67197 0.0
H240 H 0.14399 0.95066 0.05922 0.0
H241 H 0.14964 0.98489 0.09245 0.0
H242 H 0.18062 0.93393 0.15052 0.0
H243 H 0.17567 0.89936 0.11678 0.0
H244 H 0.13553 0.96995 0.16677 0.0
H245 H 0.22039 0.96714 0.13234 0.0
H246 H 0.25216 0.96501 0.09551 0.0
H247 H 0.22422 0.03316 0.06268 0.0
H248 H 0.19207 0.03555 0.09914 0.0
H249 H 0.14512 0.07559 0.25449 0.0
H250 H 0.15851 0.0365 0.23213 0.0
H251 H 0.16018 0.07268 0.15386 0.0
H252 H 0.14822 0.11194 0.17626 0.0
H253 H 0.195 0.03961 0.15364 0.0
H254 H 0.10778 0.04041 0.17766 0.0
H255 H 0.07123 0.04397 0.20855 0.0
H256 H 0.09755 0.98168 0.2542 0.0
H257 H 0.13448 0.97797 0.22379 0.0
C258 C 0.15214 0.9467 0.079 0.0
C259 C 0.15931 0.92233 0.08549 0.0
C260 C 0.15543 0.96629 0.09789 0.0
C261 C 0.16557 0.96189 0.12383 0.0
C262 C 0.17284 0.93762 0.1305 0.0
C263 C 0.17007 0.91798 0.11127 0.0
C264 C 0.16736 0.98283 0.14402 0.0
C265 C 0.14899 0.98489 0.16454 0.0
C266 C 0.18426 0.00267 0.14019 0.0
C267 C 0.20375 1.00145 0.11841 0.0
C268 C 0.22091 0.98158 0.11716 0.0
C269 C 0.23901 0.98035 0.09638 0.0
C270 C 0.24021 0.99895 0.07679 0.0
C271 C 0.2233 0.01881 0.07792 0.0
C272 C 0.20516 0.02013 0.09867 0.0
C273 C 0.14915 0.07541 0.23268 0.0
C274 C 0.14521 0.09681 0.21709 0.0
C275 C 0.15651 0.05295 0.21984 0.0
C276 C 0.15971 0.05142 0.19116 0.0
C277 C 0.15766 0.07324 0.17596 0.0
C278 C 0.1506 0.09568 0.18878 0.0
C279 C 0.16297 0.02697 0.17648 0.0
C280 C 0.18205 0.02437 0.15667 0.0
C281 C 0.14618 0.0069 0.18036 0.0
C282 C 0.12406 0.00914 0.19872 0.0
C283 C 0.10588 0.02761 0.19444 0.0
C284 C 0.08508 0.02964 0.21183 0.0
C285 C 0.08212 0.01312 0.23339 0.0
C286 C 0.09992 0.9945 0.23755 0.0
C287 C 0.12079 0.99244 0.22025 0.0
H288 H 0.06599 0.01471 0.24681 0.0
H289 H 0.25427 0.998 0.06076 0.0
H290 H 0.56836 0.68568 0.55595 0.0
H291 H 0.5369 0.69061 0.59207 0.0
H292 H 0.56673 0.62642 0.63276 0.0
H293 H 0.59749 0.62072 0.59587 0.0
H294 H 0.51978 0.62254 0.63273 0.0
H295 H 0.57409 0.68927 0.65768 0.0
H296 H 0.59972 0.72684 0.65121 0.0
H297 H 0.53417 0.76809 0.62928 0.0
H298 H 0.50817 0.73066 0.63524 0.0
H299 H 0.44857 0.64251 0.75341 0.0
H300 H 0.48656 0.64917 0.72614 0.0
H301 H 0.4425 0.68317 0.6631 0.0
H302 H 0.40433 0.67574 0.68996 0.0
H303 H 0.49822 0.70341 0.67827 0.0
H304 H 0.44618 0.63181 0.64859 0.0
H305 H 0.42201 0.59429 0.65999 0.0
H306 H 0.48732 0.562 0.69604 0.0
H307 H 0.51172 0.59964 0.68541 0.0
C308 C 0.56839 0.67278 0.57275 0.0
C309 C 0.58539 0.65281 0.57307 0.0
C310 C 0.55046 0.6757 0.59353 0.0
C311 C 0.54958 0.65913 0.61549 0.0
C312 C 0.56694 0.63947 0.61609 0.0
C313 C 0.58457 0.63625 0.59502 0.0
C314 C 0.52966 0.66144 0.63687 0.0
C315 C 0.51546 0.64021 0.64289 0.0
C316 C 0.52366 0.68448 0.65018 0.0
C317 C 0.5392 0.70708 0.64669 0.0
C318 C 0.56516 0.7063 0.65129 0.0
C319 C 0.57975 0.72758 0.64774 0.0
C320 C 0.56859 0.74982 0.63978 0.0
C321 C 0.54279 0.75084 0.63542 0.0
C322 C 0.52811 0.72961 0.63891 0.0
C323 C 0.44719 0.65233 0.73426 0.0
C324 C 0.42372 0.65882 0.72375 0.0
C325 C 0.46883 0.65606 0.71871 0.0
C326 C 0.46722 0.66664 0.69269 0.0
C327 C 0.44405 0.6752 0.68328 0.0
C328 C 0.42233 0.67098 0.69857 0.0
C329 C 0.48865 0.66471 0.67353 0.0
C330 C 0.50294 0.68587 0.66804 0.0
C331 C 0.49509 0.64159 0.66103 0.0
C332 C 0.48067 0.61864 0.66652 0.0
C333 C 0.45532 0.6168 0.65916 0.0
C334 C 0.44158 0.59551 0.66546 0.0
C335 C 0.4531 0.5758 0.6788 0.0
C336 C 0.47841 0.57731 0.68576 0.0
C337 C 0.49219 0.59861 0.67962 0.0
H338 H 0.44244 0.55935 0.68368 0.0
H339 H 0.57992 0.76628 0.63704 0.0
H340 H 0.87212 0.08962 0.08458 0.0
H341 H 0.86653 0.05644 0.11757 0.0
H342 H 0.80002 0.03201 0.07495 0.0
H343 H 0.80503 0.06573 0.04239 0.0
H344 H 0.79391 0.0266 0.1286 0.0
H345 H 0.85727 0.00429 0.06248 0.0
H346 H 0.89606 0.00983 0.03575 0.0
H347 H 0.93878 0.01253 0.11027 0.0
H348 H 0.90017 0.00734 0.13749 0.0
H349 H 0.79946 0.89692 0.16292 0.0
H350 H 0.79629 0.93818 0.14284 0.0
H351 H 0.85893 0.96334 0.1916 0.0
H352 H 0.86204 0.92223 0.21196 0.0
H353 H 0.86642 0.96956 0.13703 0.0
H354 H 0.80141 0.98773 0.20264 0.0
H355 H 0.76188 0.98039 0.2274 0.0
H356 H 0.72136 0.98288 0.15152 0.0
H357 H 0.76071 0.98988 0.12623 0.0
C358 C 0.85614 0.07736 0.08241 0.0
C359 C 0.83921 0.08008 0.06065 0.0
C360 C 0.85299 0.05836 0.10125 0.0
C361 C 0.83317 0.04136 0.09838 0.0
C362 C 0.8155 0.04483 0.07753 0.0
C363 C 0.81844 0.06408 0.05888 0.0
C364 C 0.83187 0.01905 0.11589 0.0
C365 C 0.80969 0.01401 0.13029 0.0
C366 C 0.85254 0.00272 0.11835 0.0
C367 C 0.8758 0.0057 0.10203 0.0
C368 C 0.87491 0.00624 0.07318 0.0
C369 C 0.89687 0.0093 0.05794 0.0
C370 C 0.91986 0.0116 0.07131 0.0
C371 C 0.92095 0.01079 0.09995 0.0
C372 C 0.89904 0.00778 0.11529 0.0
C373 C 0.81201 0.91148 0.17006 0.0
C374 C 0.83114 0.90627 0.18887 0.0
C375 C 0.81022 0.93505 0.1585 0.0
C376 C 0.82744 0.95381 0.16565 0.0
C377 C 0.84553 0.94909 0.1857 0.0
C378 C 0.8473 0.9256 0.19727 0.0
C379 C 0.82856 0.97718 0.14998 0.0
C380 C 0.85072 0.9823 0.13566 0.0
C381 C 0.80776 0.99327 0.14734 0.0
C382 C 0.78406 0.98912 0.16251 0.0
C383 C 0.78411 0.98651 0.1912 0.0
C384 C 0.76172 0.98245 0.20533 0.0
C385 C 0.73913 0.98111 0.19103 0.0
C386 C 0.73888 0.9839 0.16257 0.0
C387 C 0.76121 0.98794 0.14833 0.0
H388 H 0.72182 0.97797 0.20202 0.0
H389 H 0.93684 0.01397 0.05947 0.0
H390 H 0.44882 0.36749 0.54657 0.0
H391 H 0.48444 0.36234 0.57669 0.0
H392 H 0.44106 0.31359 0.62762 0.0
H393 H 0.40519 0.31807 0.59667 0.0
H394 H 0.49162 0.37528 0.62654 0.0
H395 H 0.48151 0.27308 0.65964 0.0
H396 H 0.46431 0.23325 0.64194 0.0
H397 H 0.47443 0.25739 0.55912 0.0
H398 H 0.49196 0.2972 0.57633 0.0
H399 H 0.58765 0.36204 0.72093 0.0
H400 H 0.5451 0.35622 0.7034 0.0
H401 H 0.57363 0.3079 0.63857 0.0
H402 H 0.61595 0.31292 0.6567 0.0
H403 H 0.52798 0.29373 0.65117 0.0
H404 H 0.56826 0.37106 0.63043 0.0
H405 H 0.58984 0.41056 0.64159 0.0
H406 H 0.52567 0.43618 0.68742 0.0
H407 H 0.50388 0.39661 0.67693 0.0
C408 C 0.44675 0.35559 0.56412 0.0
C409 C 0.42411 0.3432 0.56922 0.0
C410 C 0.4672 0.35272 0.58143 0.0
C411 C 0.46555 0.33759 0.60449 0.0
C412 C 0.44294 0.32513 0.60976 0.0
C413 C 0.42244 0.32775 0.59212 0.0
C414 C 0.48764 0.33539 0.62285 0.0
C415 C 0.49938 0.3574 0.63209 0.0
C416 C 0.49809 0.31213 0.62988 0.0
C417 C 0.48772 0.28822 0.61931 0.0
C418 C 0.48009 0.26985 0.63766 0.0
C419 C 0.47029 0.24729 0.62771 0.0
C420 C 0.46818 0.24283 0.59943 0.0
C421 C 0.47596 0.2609 0.58103 0.0
C422 C 0.4858 0.28348 0.59087 0.0
C423 C 0.58465 0.34957 0.70346 0.0
C424 C 0.60503 0.33805 0.69003 0.0
C425 C 0.56039 0.34632 0.69339 0.0
C426 C 0.55623 0.33212 0.66924 0.0
C427 C 0.57633 0.31898 0.65718 0.0
C428 C 0.60053 0.32186 0.66755 0.0
C429 C 0.53196 0.33359 0.65451 0.0
C430 C 0.51985 0.31155 0.64602 0.0
C431 C 0.52165 0.35683 0.64714 0.0
C432 C 0.53456 0.38078 0.65316 0.0
C433 C 0.55882 0.38506 0.64302 0.0
C434 C 0.57109 0.40745 0.64923 0.0
C435 C 0.55916 0.42584 0.66526 0.0
C436 C 0.53491 0.42189 0.67506 0.0
C437 C 0.52259 0.39949 0.669 0.0
H438 H 0.56868 0.44317 0.67003 0.0
H439 H 0.46058 0.22536 0.59177 0.0
H440 H 0.63052 0.59562 0.42063 0.0
H441 H 0.63277 0.56227 0.38562 0.0
H442 H 0.6786 0.51882 0.43967 0.0
H443 H 0.67797 0.55306 0.47365 0.0
H444 H 0.69399 0.50972 0.39209 0.0
H445 H 0.61111 0.51141 0.43061 0.0
H446 H 0.57051 0.53003 0.44387 0.0
H447 H 0.55525 0.54561 0.35943 0.0
H448 H 0.59593 0.52734 0.3457 0.0
H449 H 0.65037 0.38844 0.34412 0.0
H450 H 0.65991 0.42683 0.37032 0.0
H451 H 0.64224 0.47027 0.2995 0.0
H452 H 0.63327 0.43192 0.27304 0.0
H453 H 0.61384 0.4804 0.35192 0.0
H454 H 0.69744 0.47289 0.31511 0.0
H455 H 0.73702 0.45081 0.30519 0.0
H456 H 0.74908 0.44154 0.39152 0.0
H457 H 0.70936 0.46325 0.40194 0.0
C458 C 0.64132 0.57903 0.42476 0.0
C459 C 0.65399 0.57676 0.44976 0.0
C460 C 0.64243 0.55988 0.40489 0.0
C461 C 0.65523 0.53758 0.41021 0.0
C462 C 0.66853 0.53571 0.43497 0.0
C463 C 0.66814 0.55524 0.45443 0.0
C464 C 0.65412 0.51592 0.39055 0.0
C465 C 0.67638 0.50325 0.38356 0.0
C466 C 0.63124 0.50745 0.37899 0.0
C467 C 0.60668 0.51826 0.38717 0.0
C468 C 0.59916 0.51894 0.4149 0.0
C469 C 0.57613 0.52942 0.42249 0.0
C470 C 0.56035 0.53907 0.40252 0.0
C471 C 0.56752 0.53817 0.37489 0.0
C472 C 0.59055 0.52775 0.36718 0.0
C473 C 0.64926 0.40617 0.33398 0.0
C474 C 0.64128 0.40729 0.30656 0.0
C475 C 0.65466 0.42802 0.34891 0.0
C476 C 0.65175 0.4513 0.33678 0.0
C477 C 0.64469 0.45243 0.30911 0.0
C478 C 0.63976 0.43056 0.29401 0.0
C479 C 0.65357 0.47438 0.3538 0.0
C480 C 0.6314 0.48716 0.36035 0.0
C481 C 0.67635 0.48246 0.36552 0.0
C482 C 0.7003 0.4695 0.35929 0.0
C483 C 0.70841 0.46594 0.33197 0.0
C484 C 0.7309 0.45354 0.32626 0.0
C485 C 0.74553 0.44473 0.34771 0.0
C486 C 0.73772 0.44836 0.37492 0.0
C487 C 0.71523 0.46073 0.38074 0.0
H488 H 0.76294 0.43513 0.34324 0.0
H489 H 0.54253 0.5472 0.40844 0.0
H490 H 0.92269 0.19047 0.95128 0.0
H491 H 0.9588 0.19534 0.92104 0.0
H492 H 0.95957 0.11611 0.90429 0.0
H493 H 0.92313 0.11113 0.93399 0.0
H494 H 0.00318 0.17828 0.9292 0.0
H495 H 0.98797 0.10287 0.84239 0.0
H496 H 0.95334 0.08526 0.81493 0.0
H497 H 0.91002 0.15156 0.82994 0.0
H498 H 0.94458 0.16986 0.85694 0.0
H499 H 0.11361 0.12594 0.88078 0.0
H500 H 0.07056 0.13216 0.89571 0.0
H501 H 0.05576 0.17514 0.82374 0.0
H502 H 0.09929 0.16863 0.80824 0.0
H503 H 0.01721 0.13996 0.83676 0.0
H504 H 0.0621 0.20642 0.87983 0.0
H505 H 0.09675 0.2259 0.9057 0.0
H506 H 0.079 0.18182 0.97567 0.0
H507 H 0.04448 0.16178 0.95007 0.0
C508 C 0.93029 0.1741 0.94086 0.0
C509 C 0.92015 0.15037 0.94535 0.0
C510 C 0.95097 0.17693 0.92356 0.0
C511 C 0.96194 0.15613 0.9103 0.0
C512 C 0.95127 0.13252 0.91392 0.0
C513 C 0.9305 0.12968 0.93112 0.0
C514 C 0.98594 0.15874 0.89507 0.0
C515 C 0.00608 0.17011 0.90886 0.0
C516 C 0.98975 0.14848 0.8683 0.0
C517 C 0.96887 0.13768 0.8519 0.0
C518 C 0.97114 0.1138 0.83968 0.0
C519 C 0.95153 0.1037 0.82414 0.0
C520 C 0.9295 0.11728 0.8207 0.0
C521 C 0.92707 0.14103 0.83268 0.0
C522 C 0.94668 0.15128 0.84811 0.0
C523 C 0.10118 0.13642 0.86782 0.0
C524 C 0.1098 0.14659 0.84314 0.0
C525 C 0.07661 0.14013 0.87654 0.0
C526 C 0.06003 0.15422 0.86093 0.0
C527 C 0.06832 0.1642 0.83606 0.0
C528 C 0.09315 0.1606 0.82733 0.0
C529 C 0.03429 0.15865 0.8714 0.0
C530 C 0.01398 0.14851 0.85685 0.0
C531 C 0.03014 0.17034 0.89733 0.0
C532 C 0.05076 0.1825 0.91295 0.0
C533 C 0.06568 0.20076 0.90067 0.0
C534 C 0.08529 0.21192 0.9153 0.0
C535 C 0.09009 0.20508 0.9423 0.0
C536 C 0.07526 0.1871 0.95475 0.0
C537 C 0.05564 0.17586 0.9402 0.0
H538 H 0.10529 0.21374 0.95359 0.0
H539 H 0.91429 0.10937 0.80879 0.0
H540 H 0.29999 0.40129 0.44897 0.0
H541 H 0.29095 0.43321 0.41481 0.0
H542 H 0.35231 0.47747 0.44589 0.0
H543 H 0.36164 0.44599 0.4793 0.0
H544 H 0.27867 0.48276 0.41844 0.0
H545 H 0.38411 0.50266 0.39565 0.0
H546 H 0.42368 0.47906 0.39301 0.0
H547 H 0.38307 0.41159 0.3759 0.0
H548 H 0.34328 0.43484 0.37791 0.0
H549 H 0.30285 0.6061 0.38194 0.0
H550 H 0.29586 0.56415 0.39862 0.0
H551 H 0.32818 0.53324 0.32389 0.0
H552 H 0.33658 0.57548 0.30811 0.0
H553 H 0.34941 0.51286 0.36198 0.0
H554 H 0.26347 0.52384 0.34524 0.0
H555 H 0.22232 0.54459 0.34495 0.0
H556 H 0.22055 0.54542 0.43314 0.0
H557 H 0.26185 0.525 0.43401 0.0
C558 C 0.3115 0.41785 0.44847 0.0
C559 C 0.33169 0.42092 0.46673 0.0
C560 C 0.30629 0.43607 0.429 0.0
C561 C 0.32124 0.45752 0.42748 0.0
C562 C 0.34085 0.46085 0.44623 0.0
C563 C 0.34613 0.44276 0.46544 0.0
C564 C 0.31697 0.47668 0.4064 0.0
C565 C 0.29397 0.48926 0.40581 0.0
C566 C 0.33667 0.48451 0.38913 0.0
C567 C 0.36066 0.47052 0.38707 0.0
C568 C 0.38361 0.48283 0.39108 0.0
C569 C 0.40609 0.4695 0.38974 0.0
C570 C 0.40588 0.44383 0.38434 0.0
C571 C 0.3832 0.43146 0.38014 0.0
C572 C 0.36068 0.44471 0.38138 0.0
C573 C 0.30762 0.5903 0.36872 0.0
C574 C 0.32002 0.5939 0.34368 0.0
C575 C 0.30356 0.56623 0.3782 0.0
C576 C 0.31127 0.54526 0.3625 0.0
C577 C 0.32209 0.54899 0.3365 0.0
C578 C 0.32669 0.57309 0.32734 0.0
C579 C 0.31135 0.52002 0.37487 0.0
C580 C 0.33372 0.50621 0.37392 0.0
C581 C 0.29078 0.5107 0.39 0.0
C582 C 0.26586 0.52295 0.38967 0.0
C583 C 0.25439 0.52858 0.36459 0.0
C584 C 0.23102 0.54027 0.36432 0.0
C585 C 0.21884 0.54634 0.38901 0.0
C586 C 0.22999 0.54069 0.41402 0.0
C587 C 0.25337 0.52901 0.41441 0.0
H588 H 0.20075 0.5554 0.38876 0.0
H589 H 0.42329 0.43353 0.3834 0.0
H590 H 0.10642 0.81929 0.94232 0.0
H591 H 0.07444 0.81258 0.90661 0.0
H592 H 0.01946 0.84874 0.95882 0.0
H593 H 0.0512 0.85611 0.994 0.0
H594 H 0.00448 0.80072 0.93112 0.0
H595 H 0.04176 0.88244 0.91485 0.0
H596 H 0.07758 0.90988 0.90532 0.0
H597 H 0.09393 0.86753 0.83158 0.0
H598 H 0.05841 0.83959 0.84094 0.0
H599 H 0.90111 0.84587 0.86031 0.0
H600 H 0.93742 0.83658 0.88823 0.0
H601 H 0.98198 0.82531 0.81491 0.0
H602 H 0.94598 0.83627 0.78679 0.0
H603 H 0.00669 0.85294 0.84833 0.0
H604 H 0.96533 0.77598 0.85887 0.0
H605 H 0.93055 0.74706 0.86756 0.0
H606 H 0.9232 0.77652 0.94988 0.0
H607 H 0.95769 0.80588 0.94159 0.0
C608 C 0.08746 0.82565 0.94615 0.0
C609 C 0.08131 0.83836 0.97081 0.0
C610 C 0.06928 0.82181 0.92581 0.0
C611 C 0.04463 0.83014 0.9302 0.0
C612 C 0.03835 0.8421 0.95514 0.0
C613 C 0.05655 0.84644 0.97511 0.0
C614 C 0.0254 0.82768 0.90852 0.0
C615 C 0.00485 0.81206 0.91296 0.0
C616 C 0.02645 0.84186 0.88446 0.0
C617 C 0.04768 0.85873 0.87879 0.0
C618 C 0.05316 0.87883 0.89676 0.0
C619 C 0.07337 0.8945 0.89136 0.0
C620 C 0.08808 0.8904 0.86791 0.0
C621 C 0.08256 0.87065 0.84977 0.0
C622 C 0.0624 0.85489 0.85511 0.0
C623 C 0.91859 0.84135 0.85005 0.0
C624 C 0.92059 0.84205 0.82126 0.0
C625 C 0.93934 0.83565 0.86608 0.0
C626 C 0.9625 0.8299 0.85376 0.0
C627 C 0.96433 0.82961 0.82495 0.0
C628 C 0.94361 0.83563 0.80886 0.0
C629 C 0.98508 0.82638 0.87112 0.0
C630 C 0.00635 0.84098 0.866 0.0
C631 C 0.98482 0.81091 0.89436 0.0
C632 C 0.96405 0.79325 0.89953 0.0
C633 C 0.95619 0.77642 0.87877 0.0
C634 C 0.93654 0.75992 0.88364 0.0
C635 C 0.92465 0.75998 0.90924 0.0
C636 C 0.93243 0.7765 0.93006 0.0
C637 C 0.95207 0.79305 0.9253 0.0
H638 H 0.90944 0.74719 0.91296 0.0
H639 H 0.10371 0.90256 0.86376 0.0
H640 H 0.87106 0.05333 0.95866 0.0
H641 H 0.86746 0.02167 0.92253 0.0
H642 H 0.80452 0.06051 0.88847 0.0
H643 H 0.8078 0.09259 0.92511 0.0
H644 H 0.79769 0.00861 0.89015 0.0
H645 H 0.85836 0.06561 0.85725 0.0
H646 H 0.89525 0.09278 0.86253 0.0
H647 H 0.94155 0.02896 0.87654 0.0
H648 H 0.90485 1.00143 0.87204 0.0
H649 H 0.86233 0.92696 0.77146 0.0
H650 H 0.84961 0.96735 0.79159 0.0
H651 H 0.83221 0.93182 0.86795 0.0
H652 H 0.84469 0.89157 0.84789 0.0
H653 H 0.87333 0.98944 0.83412 0.0
H654 H 0.78794 0.96369 0.90286 0.0
H655 H 0.7505 0.93701 0.90004 0.0
H656 H 0.75246 0.93985 0.81199 0.0
H657 H 0.78969 0.96685 0.81427 0.0
C658 C 0.85635 0.05526 0.94361 0.0
C659 C 0.83978 0.07564 0.94476 0.0
C660 C 0.85438 0.03711 0.92288 0.0
C661 C 0.83597 0.03893 0.90259 0.0
C662 C 0.81893 0.05886 0.9039 0.0
C663 C 0.82088 0.07716 0.92479 0.0
C664 C 0.83514 0.01994 0.88004 0.0
C665 C 0.81407 0.00453 0.87761 0.0
C666 C 0.85634 0.01509 0.86324 0.0
C667 C 0.87877 0.03144 0.8644 0.0
C668 C 0.8764 0.05736 0.86149 0.0
C669 C 0.89728 0.07284 0.8644 0.0
C670 C 0.92072 0.06261 0.86992 0.0
C671 C 0.92337 0.03686 0.87228 0.0
C672 C 0.90253 0.0213 0.86953 0.0
C673 C 0.85503 0.92771 0.79224 0.0
C674 C 0.85451 0.90618 0.80816 0.0
C675 C 0.84794 0.95079 0.80377 0.0
C676 C 0.83988 0.95263 0.83124 0.0
C677 C 0.83803 0.93087 0.84661 0.0
C678 C 0.84528 0.90789 0.83519 0.0
C679 C 0.83626 0.97732 0.84507 0.0
C680 C 0.85662 0.99381 0.84599 0.0
C681 C 0.81433 0.98324 0.86028 0.0
C682 C 0.79172 0.96723 0.85875 0.0
C683 C 0.7803 0.95877 0.8829 0.0
C684 C 0.75913 0.94355 0.88139 0.0
C685 C 0.74914 0.9367 0.85585 0.0
C686 C 0.76027 0.9451 0.83176 0.0
C687 C 0.78143 0.96034 0.83315 0.0
H688 H 0.73276 0.92491 0.85473 0.0
H689 H 0.93682 0.07463 0.87243 0.0
H690 H 0.40186 0.37766 0.4331 0.0
H691 H 0.43368 0.37247 0.39703 0.0
H692 H 0.46246 0.30772 0.43725 0.0
H693 H 0.43048 0.31245 0.47309 0.0
H694 H 0.49868 0.34676 0.42438 0.0
H695 H 0.4335 0.29689 0.38207 0.0
H696 H 0.39061 0.28966 0.36525 0.0
H697 H 0.39852 0.34984 0.30923 0.0
H698 H 0.44135 0.35767 0.32601 0.0
H699 H 0.59246 0.31908 0.32927 0.0
H700 H 0.5551 0.31151 0.35728 0.0
H701 H 0.51337 0.36329 0.30856 0.0
H702 H 0.55045 0.36991 0.27989 0.0
H703 H 0.48281 0.32861 0.32557 0.0
H704 H 0.54371 0.38198 0.36728 0.0
H705 H 0.58562 0.3941 0.38372 0.0
H706 H 0.5846 0.33438 0.44097 0.0
H707 H 0.54284 0.3216 0.42447 0.0
C708 C 0.4148 0.36216 0.4341 0.0
C709 C 0.41369 0.34549 0.45597 0.0
C710 C 0.43289 0.35919 0.41346 0.0
C711 C 0.45035 0.3397 0.41453 0.0
C712 C 0.44909 0.32284 0.43609 0.0
C713 C 0.43076 0.32554 0.45647 0.0
C714 C 0.47081 0.33771 0.39401 0.0
C715 C 0.49532 0.34233 0.40286 0.0
C716 C 0.46617 0.33289 0.36583 0.0
C717 C 0.44056 0.32799 0.35546 0.0
C718 C 0.42603 0.3087 0.36631 0.0
C719 C 0.40174 0.30447 0.35676 0.0
C720 C 0.39183 0.31931 0.33623 0.0
C721 C 0.40621 0.33837 0.32515 0.0
C722 C 0.43051 0.34269 0.33465 0.0
C723 C 0.575 0.32804 0.32401 0.0
C724 C 0.57408 0.34489 0.30246 0.0
C725 C 0.55375 0.32394 0.34012 0.0
C726 C 0.53157 0.33731 0.33545 0.0
C727 C 0.53023 0.3528 0.31262 0.0
C728 C 0.55136 0.35655 0.29622 0.0
C729 C 0.51088 0.33736 0.35596 0.0
C730 C 0.48629 0.33267 0.34714 0.0
C731 C 0.51531 0.34282 0.38416 0.0
C732 C 0.54027 0.35066 0.39443 0.0
C733 C 0.55249 0.37133 0.38325 0.0
C734 C 0.57622 0.37832 0.39258 0.0
C735 C 0.58779 0.36498 0.41333 0.0
C736 C 0.57563 0.34466 0.42485 0.0
C737 C 0.55193 0.33753 0.41552 0.0
H738 H 0.60616 0.37042 0.42053 0.0
H739 H 0.37301 0.31601 0.32886 0.0
H740 H 0.19846 0.90881 0.96722 0.0
H741 H 0.20772 0.94264 0.93581 0.0
H742 H 0.13176 0.96924 0.94458 0.0
H743 H 0.12214 0.93462 0.97436 0.0
H744 H 0.14345 0.97579 0.89631 0.0
H745 H 0.18519 0.99536 0.9807 0.0
H746 H 0.21357 0.9884 0.01963 0.0
H747 H 0.27604 0.98285 0.96411 0.0
H748 H 0.24795 0.98948 0.9248 0.0
H749 H 0.19006 0.10976 0.88853 0.0
H750 H 0.19378 0.06984 0.91132 0.0
H751 H 0.18374 0.03129 0.83338 0.0
H752 H 0.17857 0.07145 0.81092 0.0
H753 H 0.21776 0.029 0.91366 0.0
H754 H 0.14495 0.98263 0.84064 0.0
H755 H 0.11131 0.99527 0.80923 0.0
H756 H 0.10193 0.06389 0.85509 0.0
H757 H 0.13518 0.05147 0.887 0.0
C758 C 0.18373 0.92178 0.96214 0.0
C759 C 0.15961 0.91913 0.97326 0.0
C760 C 0.18906 0.94124 0.94436 0.0
C761 C 0.17062 0.95895 0.93816 0.0
C762 C 0.14637 0.9559 0.94887 0.0
C763 C 0.14087 0.93609 0.96598 0.0
C764 C 0.17645 0.98098 0.9211 0.0
C765 C 0.15981 0.98727 0.90008 0.0
C766 C 0.19748 0.99647 0.92621 0.0
C767 C 0.21444 0.99261 0.9498 0.0
C768 C 0.20496 0.99249 0.97679 0.0
C769 C 0.22099 0.98864 0.99892 0.0
C770 C 0.24658 0.9851 0.99433 0.0
C771 C 0.2562 0.98553 0.96762 0.0
C772 C 0.24024 0.98935 0.94541 0.0
C773 C 0.1896 0.09273 0.87618 0.0
C774 C 0.18419 0.09351 0.84805 0.0
C775 C 0.19165 0.06989 0.8892 0.0
C776 C 0.18844 0.04747 0.87422 0.0
C777 C 0.18571 0.04832 0.8455 0.0
C778 C 0.18309 0.07121 0.83258 0.0
C779 C 0.18465 0.02382 0.88914 0.0
C780 C 0.20165 0.01723 0.90969 0.0
C781 C 0.16314 0.00885 0.88475 0.0
C782 C 0.14278 0.01624 0.86595 0.0
C783 C 0.13564 1.00036 0.84405 0.0
C784 C 0.11663 0.00749 0.82617 0.0
C785 C 0.10456 0.0304 0.8301 0.0
C786 C 0.11134 0.04618 0.85201 0.0
C787 C 0.13026 0.0391 0.87 0.0
H788 H 0.0899 0.0359 0.81619 0.0
H789 H 0.25897 0.98206 0.01146 0.0
H790 H 0.5922 0.68846 0.43918 0.0
H791 H 0.55759 0.69246 0.40633 0.0
H792 H 0.52387 0.62594 0.438 0.0
H793 H 0.55799 0.62161 0.47003 0.0
H794 H 0.52261 0.62478 0.38382 0.0
H795 H 0.50425 0.68578 0.45735 0.0
H796 H 0.51339 0.72339 0.48553 0.0
H797 H 0.51611 0.76722 0.41284 0.0
H798 H 0.50725 0.72977 0.38421 0.0
H799 H 0.3932 0.6217 0.37959 0.0
H800 H 0.4367 0.62725 0.39258 0.0
H801 H 0.44453 0.68581 0.334 0.0
H802 H 0.40079 0.67978 0.31993 0.0
H803 H 0.46452 0.69689 0.38851 0.0
H804 H 0.47152 0.63496 0.31734 0.0
H805 H 0.46037 0.59645 0.29179 0.0
H806 H 0.478 0.55312 0.36226 0.0
H807 H 0.48883 0.5914 0.38842 0.0
C808 C 0.5774 0.67471 0.43903 0.0
C809 C 0.57785 0.65481 0.45738 0.0
C810 C 0.55764 0.67703 0.42029 0.0
C811 C 0.53808 0.65951 0.41973 0.0
C812 C 0.53878 0.6396 0.43786 0.0
C813 C 0.55834 0.63726 0.45636 0.0
C814 C 0.5163 0.66155 0.40102 0.0
C815 C 0.50998 0.64061 0.38473 0.0
C816 C 0.50019 0.68251 0.40145 0.0
C817 C 0.50542 0.70496 0.41865 0.0
C818 C 0.50698 0.70341 0.44738 0.0
C819 C 0.51208 0.72469 0.46343 0.0
C820 C 0.51542 0.74766 0.45097 0.0
C821 C 0.51359 0.74941 0.42245 0.0
C822 C 0.50852 0.72817 0.40631 0.0
C823 C 0.40417 0.63542 0.36892 0.0
C824 C 0.39349 0.64996 0.34828 0.0
C825 C 0.42905 0.63871 0.37658 0.0
C826 C 0.4439 0.65672 0.36402 0.0
C827 C 0.43335 0.67173 0.34385 0.0
C828 C 0.40836 0.66829 0.33591 0.0
C829 C 0.47035 0.65958 0.3726 0.0
C830 C 0.47754 0.6814 0.38687 0.0
C831 C 0.48718 0.63928 0.37064 0.0
C832 C 0.4809 0.61612 0.35489 0.0
C833 C 0.47287 0.61725 0.32746 0.0
C834 C 0.46661 0.59544 0.31286 0.0
C835 C 0.46845 0.57236 0.3254 0.0
C836 C 0.47659 0.57102 0.35257 0.0
C837 C 0.48282 0.59277 0.36728 0.0
H838 H 0.46359 0.5555 0.31406 0.0
H839 H 0.51937 0.76412 0.46343 0.0
H840 H 0.30608 0.42588 0.57682 0.0
H841 H 0.30285 0.45898 0.61208 0.0
H842 H 0.38236 0.45442 0.62593 0.0
H843 H 0.38572 0.42121 0.59125 0.0
H844 H 0.35799 0.4599 0.67352 0.0
H845 H 0.35657 0.49885 0.58469 0.0
H846 H 0.33993 0.50611 0.53836 0.0
H847 H 0.26931 0.52842 0.57332 0.0
H848 H 0.28545 0.52094 0.61987 0.0
H849 H 0.40197 0.57666 0.7164 0.0
H850 H 0.39056 0.53827 0.69195 0.0
H851 H 0.31242 0.55732 0.70015 0.0
H852 H 0.32391 0.59624 0.72483 0.0
H853 H 0.32697 0.54287 0.64618 0.0
H854 H 0.33292 0.51089 0.73634 0.0
H855 H 0.35181 0.50479 0.78182 0.0
H856 H 0.41602 0.47033 0.74372 0.0
H857 H 0.3977 0.47655 0.69797 0.0
C858 C 0.32285 0.43179 0.58753 0.0
C859 C 0.34621 0.42103 0.58098 0.0
C860 C 0.32097 0.45076 0.60763 0.0
C861 C 0.34241 0.4594 0.62143 0.0
C862 C 0.36556 0.44809 0.61557 0.0
C863 C 0.36745 0.42914 0.59559 0.0
C864 C 0.34126 0.48088 0.64115 0.0
C865 C 0.35122 0.47804 0.66754 0.0
C866 C 0.33176 0.50442 0.63365 0.0
C867 C 0.3221 0.50903 0.60571 0.0
C868 C 0.33743 0.50511 0.58247 0.0
C869 C 0.32811 0.5093 0.55618 0.0
C870 C 0.30355 0.51764 0.55289 0.0
C871 C 0.2883 0.52189 0.5759 0.0
C872 C 0.29753 0.51769 0.60224 0.0
C873 C 0.38233 0.57263 0.71312 0.0
C874 C 0.36379 0.58946 0.72231 0.0
C875 C 0.37583 0.55061 0.69932 0.0
C876 C 0.35064 0.54485 0.69442 0.0
C877 C 0.33197 0.56143 0.70385 0.0
C878 C 0.3385 0.58351 0.718 0.0
C879 C 0.34439 0.52201 0.6782 0.0
C880 C 0.33312 0.52459 0.65244 0.0
C881 C 0.3529 0.49828 0.68617 0.0
C882 C 0.36395 0.49429 0.71369 0.0
C883 C 0.35114 0.50216 0.73763 0.0
C884 C 0.36174 0.49865 0.76348 0.0
C885 C 0.38511 0.4872 0.76566 0.0
C886 C 0.39791 0.47919 0.742 0.0
C887 C 0.3874 0.48266 0.71611 0.0
H888 H 0.39329 0.48452 0.78568 0.0
H889 H 0.29636 0.52088 0.53252 0.0
H890 H 0.06521 0.88301 0.08585 0.0
H891 H 0.02988 0.87554 0.1163 0.0
H892 H 0.05025 0.79785 0.11994 0.0
H893 H 0.08502 0.80507 0.08825 0.0
H894 H 0.00387 0.79977 0.11307 0.0
H895 H 0.05677 0.84031 0.17687 0.0
H896 H 0.08592 0.87216 0.19492 0.0
H897 H 0.02874 0.92802 0.18908 0.0
H898 H 0.99934 0.89659 0.1706 0.0
H899 H 0.9064 0.83672 0.23153 0.0
H900 H 0.9498 0.82865 0.21657 0.0
H901 H 0.92588 0.8292 0.13196 0.0
H902 H 0.88285 0.83652 0.14696 0.0
H903 H 0.97908 0.85737 0.18942 0.0
H904 H 0.96139 0.79602 0.09028 0.0
H905 H 0.93443 0.76093 0.07586 0.0
H906 H 0.92544 0.7401 0.15997 0.0
H907 H 0.95264 0.77483 0.17489 0.0
C908 C 0.06236 0.86439 0.09339 0.0
C909 C 0.07787 0.84461 0.08459 0.0
C910 C 0.04221 0.86015 0.11101 0.0
C911 C 0.03751 0.83618 0.12088 0.0
C912 C 0.05341 0.81651 0.11265 0.0
C913 C 0.0733 0.82065 0.09457 0.0
C914 C 0.01494 0.83147 0.13805 0.0
C915 C 0.99861 0.81222 0.12995 0.0
C916 C 0.00835 0.84707 0.16081 0.0
C917 C 0.02586 0.86607 0.17223 0.0
C918 C 0.05043 0.85941 0.1793 0.0
C919 C 0.06701 0.8774 0.18962 0.0
C920 C 0.05919 0.9021 0.19312 0.0
C921 C 0.03476 0.90886 0.18637 0.0
C922 C 0.01812 0.89096 0.17602 0.0
C923 C 0.9105 0.83428 0.20983 0.0
C924 C 0.89148 0.83679 0.19032 0.0
C925 C 0.93522 0.82989 0.20127 0.0
C926 C 0.94115 0.82801 0.17311 0.0
C927 C 0.92183 0.8299 0.15377 0.0
C928 C 0.89724 0.83414 0.16231 0.0
C929 C 0.96758 0.82648 0.16347 0.0
C930 C 0.98462 0.84457 0.17296 0.0
C931 C 0.97518 0.80928 0.14262 0.0
C932 C 0.95899 0.78815 0.13371 0.0
C933 C 0.95381 0.78387 0.1057 0.0
C934 C 0.93844 0.76405 0.09744 0.0
C935 C 0.92819 0.74832 0.11699 0.0
C936 C 0.93333 0.75234 0.14485 0.0
C937 C 0.9487 0.77211 0.15322 0.0
H938 H 0.91629 0.733 0.11055 0.0
H939 H 0.07206 0.91601 0.20109 0.0
H940 H 0.63954 0.54966 0.54568 0.0
H941 H 0.64505 0.51897 0.58098 0.0
H942 H 0.69545 0.56836 0.62457 0.0
H943 H 0.69036 0.59945 0.58852 0.0
H944 H 0.71183 0.52067 0.62572 0.0
H945 H 0.63707 0.56225 0.64816 0.0
H946 H 0.59604 0.58185 0.64046 0.0
H947 H 0.56534 0.51095 0.61606 0.0
H948 H 0.6063 0.49098 0.62303 0.0
H949 H 0.64362 0.42147 0.72081 0.0
H950 H 0.64934 0.46446 0.70606 0.0
H951 H 0.6981 0.43819 0.64066 0.0
H952 H 0.6934 0.39565 0.6563 0.0
H953 H 0.6344 0.4836 0.6636 0.0
H954 H 0.73537 0.48058 0.61555 0.0
H955 H 0.777 0.4642 0.62726 0.0
H956 H 0.75647 0.46375 0.71259 0.0
H957 H 0.71485 0.48048 0.70148 0.0
C958 C 0.65186 0.55413 0.5627 0.0
C959 C 0.66431 0.57715 0.56444 0.0
C960 C 0.65493 0.53653 0.58295 0.0
C961 C 0.67016 0.54159 0.60577 0.0
C962 C 0.68341 0.56418 0.60723 0.0
C963 C 0.68051 0.58188 0.58666 0.0
C964 C 0.67169 0.52299 0.62783 0.0
C965 C 0.69498 0.51266 0.63431 0.0
C966 C 0.64975 0.5133 0.63997 0.0
C967 C 0.62486 0.52511 0.63605 0.0
C968 C 0.62162 0.55084 0.641 0.0
C969 C 0.59836 0.56203 0.63676 0.0
C970 C 0.5781 0.54765 0.62777 0.0
C971 C 0.58105 0.52206 0.62304 0.0
C972 C 0.60429 0.51079 0.62716 0.0
C973 C 0.65609 0.4251 0.70377 0.0
C974 C 0.66821 0.40534 0.68979 0.0
C975 C 0.6593 0.44962 0.69527 0.0
C976 C 0.67437 0.4548 0.67234 0.0
C977 C 0.687 0.43501 0.65889 0.0
C978 C 0.6842 0.4106 0.66774 0.0
C979 C 0.67452 0.48012 0.66036 0.0
C980 C 0.65143 0.49181 0.65572 0.0
C981 C 0.69674 0.49151 0.65077 0.0
C982 C 0.7219 0.4817 0.65763 0.0
C983 C 0.73978 0.47717 0.63684 0.0
C984 C 0.76337 0.46777 0.64337 0.0
C985 C 0.76936 0.4629 0.67064 0.0
C986 C 0.75179 0.46746 0.69146 0.0
C987 C 0.72817 0.47687 0.68505 0.0
H988 H 0.78763 0.45561 0.67565 0.0
H989 H 0.5601 0.55635 0.6245 0.0
H990 H 0.8903 0.1747 0.08957 0.0
H991 H 0.92159 0.17896 0.12624 0.0
H992 H 0.97847 0.15067 0.07054 0.0
H993 H 0.94719 0.14518 0.03474 0.0
H994 H 0.98274 0.12811 0.1153 0.0
H995 H 0.97208 0.21535 0.09321 0.0
H996 H 0.94718 0.25357 0.08733 0.0
H997 H 0.92393 0.25159 0.17177 0.0
H998 H 0.94856 0.21323 0.17808 0.0
H999 H 0.09643 0.16098 0.17205 0.0
H1000 H 0.05903 0.16834 0.14473 0.0
H1001 H 0.01359 0.1675 0.218 0.0
H1002 H 0.05096 0.15948 0.24558 0.0
H1003 H 0.99986 0.20468 0.17099 0.0
H1004 H 0.01312 0.1177 0.1924 0.0
H1005 H 0.04027 0.08091 0.19723 0.0
H1006 H 0.05984 0.08361 0.11172 0.0
H1007 H 0.03313 0.12075 0.10653 0.0
C1008 C 0.90957 0.16967 0.08524 0.0
C1009 C 0.91636 0.15949 0.05945 0.0
C1010 C 0.92746 0.17217 0.10613 0.0
C1011 C 0.95252 0.16521 0.10121 0.0
C1012 C 0.95929 0.15594 0.07504 0.0
C1013 C 0.94141 0.15288 0.05452 0.0
C1014 C 0.97175 0.16631 0.12327 0.0
C1015 C 0.98645 0.14498 0.12727 0.0
C1016 C 0.97629 0.18799 0.13966 0.0
C1017 C 0.96196 0.21132 0.13604 0.0
C1018 C 0.96158 0.22303 0.11049 0.0
C1019 C 0.94753 0.24472 0.10708 0.0
C1020 C 0.93393 0.25497 0.12914 0.0
C1021 C 0.93446 0.24362 0.15469 0.0
C1022 C 0.94849 0.22193 0.15821 0.0
C1023 C 0.07855 0.16278 0.18246 0.0
C1024 C 0.0766 0.15921 0.21091 0.0
C1025 C 0.05725 0.16721 0.16685 0.0
C1026 C 0.03361 0.1683 0.17938 0.0
C1027 C 0.03174 0.16686 0.20804 0.0
C1028 C 0.05311 0.16227 0.22373 0.0
C1029 C 0.01102 0.16685 0.16197 0.0
C1030 C 0.99576 0.18789 0.15906 0.0
C1031 C 0.00597 0.14499 0.14633 0.0
C1032 C 0.02129 0.12211 0.14914 0.0
C1033 C 0.02333 0.11053 0.17467 0.0
C1034 C 0.03864 0.08962 0.17747 0.0
C1035 C 0.05183 0.07996 0.15481 0.0
C1036 C 0.04963 0.09113 0.12927 0.0
C1037 C 0.03439 0.1121 0.12638 0.0
H1038 H 0.06371 0.06379 0.15703 0.0
H1039 H 0.92301 0.27172 0.12645 0.0
H1040 H 0.15521 0.782 0.092 0.0
H1041 H 0.17482 0.76043 0.12997 0.0
H1042 H 0.23282 0.81623 0.1336 0.0
H1043 H 0.21382 0.83733 0.09486 0.0
H1044 H 0.25309 0.77319 0.13987 0.0
H1045 H 0.18218 0.81455 0.18045 0.0
H1046 H 0.13767 0.82603 0.18525 0.0
H1047 H 0.11857 0.74944 0.19771 0.0
H1048 H 0.16296 0.73745 0.1926 0.0
H1049 H 0.2928 0.75838 0.27818 0.0
H1050 H 0.2739 0.77359 0.23597 0.0
H1051 H 0.23311 0.70475 0.22628 0.0
H1052 H 0.25243 0.68921 0.26848 0.0
H1053 H 0.20371 0.75109 0.2223 0.0
H1054 H 0.27739 0.71162 0.18462 0.0
H1055 H 0.32261 0.70289 0.18152 0.0
H1056 H 0.3371 0.77998 0.16612 0.0
H1057 H 0.29197 0.78925 0.16954 0.0
C1058 C 0.17215 0.78969 0.10088 0.0
C1059 C 0.18291 0.81145 0.09044 0.0
C1060 C 0.1833 0.77738 0.1227 0.0
C1061 C 0.20512 0.78688 0.13505 0.0
C1062 C 0.21601 0.80849 0.12448 0.0
C1063 C 0.20509 0.82059 0.10235 0.0
C1064 C 0.21663 0.77435 0.15894 0.0
C1065 C 0.24228 0.76862 0.15797 0.0
C1066 C 0.20253 0.76788 0.18246 0.0
C1067 C 0.17586 0.77507 0.18585 0.0
C1068 C 0.16847 0.80013 0.18403 0.0
C1069 C 0.14326 0.80673 0.18683 0.0
C1070 C 0.12529 0.78847 0.1917 0.0
C1071 C 0.13251 0.76357 0.19389 0.0
C1072 C 0.15769 0.75685 0.19106 0.0
C1073 C 0.27995 0.74643 0.26692 0.0
C1074 C 0.27404 0.72264 0.27652 0.0
C1075 C 0.26921 0.7551 0.24282 0.0
C1076 C 0.25213 0.74028 0.22803 0.0
C1077 C 0.24627 0.71643 0.23745 0.0
C1078 C 0.25738 0.70754 0.26137 0.0
C1079 C 0.24004 0.75021 0.20315 0.0
C1080 C 0.21435 0.7555 0.20403 0.0
C1081 C 0.25416 0.75671 0.17978 0.0
C1082 C 0.28131 0.75116 0.17758 0.0
C1083 C 0.29023 0.72675 0.18081 0.0
C1084 C 0.31585 0.7217 0.17895 0.0
C1085 C 0.33272 0.74087 0.17369 0.0
C1086 C 0.32401 0.76514 0.17022 0.0
C1087 C 0.29841 0.77031 0.17209 0.0
H1088 H 0.35255 0.73692 0.17225 0.0
H1089 H 0.10579 0.79362 0.19383 0.0
H1090 H 0.72684 0.66945 0.55219 0.0
H1091 H 0.75203 0.69325 0.58499 0.0
H1092 H 0.68578 0.73063 0.61556 0.0
H1093 H 0.66031 0.7071 0.5823 0.0
H1094 H 0.72268 0.76323 0.6077 0.0
H1095 H 0.71497 0.6865 0.65372 0.0
H1096 H 0.71588 0.64089 0.65848 0.0
H1097 H 0.79449 0.63999 0.64013 0.0
H1098 H 0.794 0.68556 0.6348 0.0
H1099 H 0.80043 0.82316 0.70858 0.0
H1100 H 0.76666 0.79699 0.68979 0.0
H1101 H 0.82117 0.75116 0.64696 0.0
H1102 H 0.8548 0.77673 0.66609 0.0
H1103 H 0.78465 0.72296 0.66807 0.0
H1104 H 0.79006 0.79846 0.61499 0.0
H1105 H 0.78899 0.84395 0.60901 0.0
H1106 H 0.71402 0.84673 0.64091 0.0
H1107 H 0.71478 0.80127 0.6474 0.0
C1108 C 0.71751 0.68262 0.56594 0.0
C1109 C 0.69149 0.68634 0.56453 0.0
C1110 C 0.73197 0.69614 0.58484 0.0
C1111 C 0.72079 0.71351 0.60305 0.0
C1112 C 0.69482 0.71727 0.60179 0.0
C1113 C 0.68028 0.70376 0.58279 0.0
C1114 C 0.73654 0.72833 0.62251 0.0
C1115 C 0.73583 0.75442 0.62137 0.0
C1116 C 0.75392 0.71688 0.64016 0.0
C1117 C 0.75441 0.68947 0.64371 0.0
C1118 C 0.73243 0.67657 0.65054 0.0
C1119 C 0.73287 0.65072 0.65335 0.0
C1120 C 0.75522 0.63755 0.64957 0.0
C1121 C 0.77719 0.65022 0.64304 0.0
C1122 C 0.77685 0.67607 0.64016 0.0
C1123 C 0.80518 0.80726 0.69552 0.0
C1124 C 0.83026 0.80221 0.68852 0.0
C1125 C 0.78588 0.79242 0.68465 0.0
C1126 C 0.79136 0.7723 0.66664 0.0
C1127 C 0.81645 0.76661 0.66071 0.0
C1128 C 0.83565 0.78139 0.67147 0.0
C1129 C 0.77122 0.75778 0.65265 0.0
C1130 C 0.77113 0.73175 0.65482 0.0
C1131 C 0.75307 0.76927 0.63598 0.0
C1132 C 0.75259 0.79655 0.632 0.0
C1133 C 0.77343 0.80881 0.62093 0.0
C1134 C 0.77286 0.83458 0.61741 0.0
C1135 C 0.75148 0.84824 0.62467 0.0
C1136 C 0.73059 0.83614 0.63537 0.0
C1137 C 0.73107 0.81038 0.63896 0.0
H1138 H 0.75108 0.86818 0.62192 0.0
H1139 H 0.75552 0.61753 0.65174 0.0
H1140 H 0.82107 0.2227 0.04276 0.0
H1141 H 0.79603 0.24745 0.07512 0.0
H1142 H 0.76401 0.18034 0.10733 0.0
H1143 H 0.78864 0.15535 0.07438 0.0
H1144 H 0.72864 0.21286 0.09938 0.0
H1145 H 0.80708 0.21588 0.14443 0.0
H1146 H 0.85264 0.22164 0.14895 0.0
H1147 H 0.84507 0.2985 0.1279 0.0
H1148 H 0.79949 0.29313 0.12281 0.0
H1149 H 0.66507 0.2856 0.20243 0.0
H1150 H 0.69592 0.25579 0.18363 0.0
H1151 H 0.72674 0.31315 0.13296 0.0
H1152 H 0.69594 0.34287 0.15154 0.0
H1153 H 0.76362 0.28193 0.15663 0.0
H1154 H 0.68564 0.27571 0.10583 0.0
H1155 H 0.64015 0.26911 0.10168 0.0
H1156 H 0.64777 0.1964 0.13576 0.0
H1157 H 0.69329 0.20275 0.14049 0.0
C1158 C 0.80885 0.21312 0.05683 0.0
C1159 C 0.80686 0.18699 0.05589 0.0
C1160 C 0.79463 0.22734 0.0755 0.0
C1161 C 0.77836 0.2158 0.09402 0.0
C1162 C 0.77647 0.18969 0.09332 0.0
C1163 C 0.79059 0.17542 0.07448 0.0
C1164 C 0.76242 0.23116 0.11297 0.0
C1165 C 0.73641 0.22758 0.11236 0.0
C1166 C 0.77243 0.2506 0.12974 0.0
C1167 C 0.79984 0.25404 0.13306 0.0
C1168 C 0.81513 0.23398 0.14058 0.0
C1169 C 0.84097 0.23718 0.14327 0.0
C1170 C 0.85175 0.26041 0.13867 0.0
C1171 C 0.83669 0.28051 0.13145 0.0
C1172 C 0.81085 0.27741 0.1287 0.0
C1173 C 0.67875 0.29191 0.18768 0.0
C1174 C 0.67803 0.31647 0.17827 0.0
C1175 C 0.69628 0.27488 0.17689 0.0
C1176 C 0.7135 0.28224 0.15676 0.0
C1177 C 0.71364 0.3071 0.14848 0.0
C1178 C 0.69596 0.324 0.15897 0.0
C1179 C 0.73002 0.26377 0.14258 0.0
C1180 C 0.75605 0.26685 0.14403 0.0
C1181 C 0.72011 0.24369 0.1268 0.0
C1182 C 0.69279 0.23983 0.12383 0.0
C1183 C 0.67758 0.25841 0.11266 0.0
C1184 C 0.6518 0.2547 0.11016 0.0
C1185 C 0.64106 0.23238 0.11853 0.0
C1186 C 0.6561 0.2137 0.12935 0.0
C1187 C 0.68189 0.21734 0.13193 0.0
H1188 H 0.6211 0.22953 0.11657 0.0
H1189 H 0.87176 0.26284 0.14075 0.0
H1190 H 0.29604 0.34743 0.60013 0.0
H1191 H 0.27733 0.32566 0.63858 0.0
H1192 H 0.31248 0.2572 0.61102 0.0
H1193 H 0.33113 0.27879 0.5722 0.0
H1194 H 0.26388 0.2497 0.62636 0.0
H1195 H 0.33625 0.28937 0.66484 0.0
H1196 H 0.36473 0.32447 0.67482 0.0
H1197 H 0.30585 0.36329 0.71812 0.0
H1198 H 0.2769 0.32856 0.70804 0.0
H1199 H 0.23974 0.18725 0.75324 0.0
H1200 H 0.25825 0.20469 0.71165 0.0
H1201 H 0.23088 0.27758 0.73589 0.0
H1202 H 0.21286 0.26033 0.7775 0.0
H1203 H 0.27787 0.28072 0.72176 0.0
H1204 H 0.20498 0.24185 0.68178 0.0
H1205 H 0.17625 0.20709 0.67115 0.0
H1206 H 0.2358 0.16691 0.63061 0.0
H1207 H 0.26498 0.20131 0.64132 0.0
C1208 C 0.29982 0.32774 0.60216 0.0
C1209 C 0.31518 0.31491 0.58304 0.0
C1210 C 0.28915 0.31532 0.62425 0.0
C1211 C 0.29369 0.28983 0.62787 0.0
C1212 C 0.30872 0.27687 0.60866 0.0
C1213 C 0.31945 0.28929 0.58653 0.0
C1214 C 0.28287 0.27688 0.65187 0.0
C1215 C 0.26721 0.25624 0.64727 0.0
C1216 C 0.28689 0.28564 0.67912 0.0
C1217 C 0.30434 0.30644 0.68549 0.0
C1218 C 0.32932 0.30546 0.67633 0.0
C1219 C 0.34556 0.32528 0.68203 0.0
C1220 C 0.33709 0.34612 0.69705 0.0
C1221 C 0.31238 0.34714 0.70647 0.0
C1222 C 0.29605 0.32738 0.7008 0.0
C1223 C 0.23737 0.2069 0.74941 0.0
C1224 C 0.22498 0.22245 0.76868 0.0
C1225 C 0.24795 0.21688 0.72565 0.0
C1226 C 0.24597 0.2425 0.72054 0.0
C1227 C 0.23287 0.25782 0.73941 0.0
C1228 C 0.22254 0.24793 0.76318 0.0
C1229 C 0.25839 0.25377 0.69633 0.0
C1230 C 0.27452 0.27409 0.7009 0.0
C1231 C 0.25475 0.24471 0.66909 0.0
C1232 C 0.23722 0.22404 0.66261 0.0
C1233 C 0.21199 0.22551 0.67079 0.0
C1234 C 0.19562 0.20589 0.66472 0.0
C1235 C 0.20421 0.18478 0.65028 0.0
C1236 C 0.22918 0.18326 0.64183 0.0
C1237 C 0.24564 0.20282 0.64788 0.0
H1238 H 0.1915 0.16961 0.64559 0.0
H1239 H 0.34968 0.36145 0.70142 0.0
H1240 H 0.67729 0.71925 0.46365 0.0
H1241 H 0.69699 0.74074 0.42557 0.0
H1242 H 0.71747 0.66999 0.38817 0.0
H1243 H 0.69846 0.64837 0.42667 0.0
H1244 H 0.75485 0.70076 0.38377 0.0
H1245 H 0.6673 0.70533 0.36517 0.0
H1246 H 0.62293 0.71452 0.37509 0.0
H1247 H 0.64035 0.79208 0.38663 0.0
H1248 H 0.68491 0.78329 0.37719 0.0
H1249 H 0.77142 0.74165 0.24591 0.0
H1250 H 0.75668 0.72208 0.28799 0.0
H1251 H 0.75251 0.79418 0.32853 0.0
H1252 H 0.76758 0.81385 0.28646 0.0
H1253 H 0.7079 0.76424 0.33219 0.0
H1254 H 0.79644 0.75788 0.3477 0.0
H1255 H 0.83991 0.74674 0.33555 0.0
H1256 H 0.81896 0.66984 0.32652 0.0
H1257 H 0.77526 0.68057 0.33823 0.0
C1258 C 0.68596 0.70824 0.44732 0.0
C1259 C 0.68622 0.68207 0.44818 0.0
C1260 C 0.69716 0.72057 0.42548 0.0
C1261 C 0.70843 0.70701 0.40373 0.0
C1262 C 0.70891 0.68089 0.40468 0.0
C1263 C 0.69797 0.66854 0.42668 0.0
C1264 C 0.71968 0.72005 0.38 0.0
C1265 C 0.74445 0.71443 0.37234 0.0
C1266 C 0.70631 0.73822 0.36526 0.0
C1267 C 0.67949 0.74361 0.37076 0.0
C1268 C 0.6617 0.72432 0.37002 0.0
C1269 C 0.63651 0.72946 0.37554 0.0
C1270 C 0.62884 0.75386 0.38156 0.0
C1271 C 0.64633 0.77318 0.382 0.0
C1272 C 0.67156 0.76813 0.37656 0.0
C1273 C 0.76763 0.75327 0.26392 0.0
C1274 C 0.77065 0.77924 0.263 0.0
C1275 C 0.75928 0.74209 0.28792 0.0
C1276 C 0.75353 0.7567 0.31135 0.0
C1277 C 0.75688 0.78261 0.31065 0.0
C1278 C 0.76563 0.79378 0.28673 0.0
C1279 C 0.74295 0.74489 0.33608 0.0
C1280 C 0.71828 0.75069 0.34382 0.0
C1281 C 0.75624 0.72659 0.35056 0.0
C1282 C 0.78252 0.72007 0.3436 0.0
C1283 C 0.80105 0.73863 0.34289 0.0
C1284 C 0.82574 0.73238 0.33613 0.0
C1285 C 0.83218 0.70761 0.3302 0.0
C1286 C 0.81394 0.68902 0.33109 0.0
C1287 C 0.78921 0.69517 0.33782 0.0
H1288 H 0.85131 0.70281 0.32498 0.0
H1289 H 0.60933 0.7578 0.38582 0.0
H1290 H 0.84891 0.19739 0.92221 0.0
H1291 H 0.82894 0.21835 0.88413 0.0
H1292 H 0.75659 0.19414 0.91252 0.0
H1293 H 0.77652 0.17256 0.95044 0.0
H1294 H 0.75972 0.18875 0.85842 0.0
H1295 H 0.77656 0.25472 0.92303 0.0
H1296 H 0.80215 0.2802 0.9549 0.0
H1297 H 0.85044 0.30044 0.88837 0.0
H1298 H 0.82534 0.27478 0.85614 0.0
H1299 H 0.6951 0.27035 0.7683 0.0
H1300 H 0.71024 0.25124 0.81046 0.0
H1301 H 0.78633 0.26638 0.78631 0.0
H1302 H 0.77135 0.28574 0.74448 0.0
H1303 H 0.77802 0.27754 0.84066 0.0
H1304 H 0.76235 0.20913 0.777 0.0
H1305 H 0.7366 0.18353 0.7454 0.0
H1306 H 0.68534 0.16832 0.81103 0.0
H1307 H 0.71063 0.19414 0.84294 0.0
C1308 C 0.82874 0.19653 0.92044 0.0
C1309 C 0.81431 0.18344 0.93955 0.0
C1310 C 0.81733 0.20864 0.89869 0.0
C1311 C 0.79121 0.20824 0.89573 0.0
C1312 C 0.77676 0.19482 0.91446 0.0
C1313 C 0.78819 0.18253 0.93616 0.0
C1314 C 0.7791 0.22163 0.87289 0.0
C1315 C 0.76338 0.20828 0.85485 0.0
C1316 C 0.78412 0.24705 0.86793 0.0
C1317 C 0.79917 0.26266 0.88721 0.0
C1318 C 0.79273 0.26447 0.91523 0.0
C1319 C 0.80714 0.27896 0.93335 0.0
C1320 C 0.82793 0.29189 0.92368 0.0
C1321 C 0.83433 0.2904 0.89583 0.0
C1322 C 0.82 0.27591 0.87762 0.0
C1323 C 0.71503 0.2698 0.77215 0.0
C1324 C 0.73205 0.27937 0.75299 0.0
C1325 C 0.72366 0.25875 0.79613 0.0
C1326 C 0.74943 0.25717 0.80138 0.0
C1327 C 0.76638 0.26733 0.78264 0.0
C1328 C 0.7578 0.27821 0.75865 0.0
C1329 C 0.75896 0.24456 0.82609 0.0
C1330 C 0.77419 0.25808 0.84446 0.0
C1331 C 0.75339 0.21936 0.83142 0.0
C1332 C 0.73822 0.2038 0.81227 0.0
C1333 C 0.74547 0.2005 0.78463 0.0
C1334 C 0.73098 0.18592 0.76668 0.0
C1335 C 0.7093 0.17437 0.77618 0.0
C1336 C 0.70211 0.17732 0.80368 0.0
C1337 C 0.71652 0.19191 0.82171 0.0
H1338 H 0.69811 0.16307 0.76225 0.0
H1339 H 0.83907 0.3031 0.93774 0.0
H1340 H 0.34032 0.29483 0.44499 0.0
H1341 H 0.31567 0.27013 0.41215 0.0
H1342 H 0.24768 0.29673 0.45081 0.0
H1343 H 0.27212 0.32192 0.4832 0.0
H1344 H 0.28578 0.23284 0.41861 0.0
H1345 H 0.20066 0.29973 0.40597 0.0
H1346 H 0.19256 0.34493 0.40492 0.0
H1347 H 0.26852 0.3578 0.3801 0.0
H1348 H 0.27698 0.31267 0.38058 0.0
H1349 H 0.17632 0.16853 0.38258 0.0
H1350 H 0.20979 0.19411 0.40182 0.0
H1351 H 0.21324 0.23565 0.32702 0.0
H1352 H 0.17879 0.21069 0.30804 0.0
H1353 H 0.21294 0.26663 0.36866 0.0
H1354 H 0.26108 0.1953 0.34551 0.0
H1355 H 0.27227 0.15077 0.34242 0.0
H1356 H 0.27585 0.14799 0.43039 0.0
H1357 H 0.26434 0.19243 0.43405 0.0
C1358 C 0.32011 0.29556 0.4464 0.0
C1359 C 0.30821 0.31039 0.46677 0.0
C1360 C 0.30604 0.28138 0.42761 0.0
C1361 C 0.27979 0.28171 0.42876 0.0
C1362 C 0.26789 0.29652 0.44908 0.0
C1363 C 0.28192 0.31085 0.46772 0.0
C1364 C 0.26477 0.26589 0.4095 0.0
C1365 C 0.26994 0.24026 0.40757 0.0
C1366 C 0.24456 0.27562 0.39434 0.0
C1367 C 0.23949 0.30279 0.39352 0.0
C1368 C 0.21559 0.31218 0.40013 0.0
C1369 C 0.21095 0.3378 0.39966 0.0
C1370 C 0.23003 0.35423 0.39252 0.0
C1371 C 0.25378 0.34506 0.38572 0.0
C1372 C 0.25851 0.31946 0.38611 0.0
C1373 C 0.18423 0.18304 0.37013 0.0
C1374 C 0.1747 0.18767 0.34383 0.0
C1375 C 0.20362 0.19751 0.38106 0.0
C1376 C 0.21426 0.21675 0.36583 0.0
C1377 C 0.20537 0.22091 0.33918 0.0
C1378 C 0.18583 0.20646 0.32824 0.0
C1379 C 0.23338 0.23343 0.37864 0.0
C1380 C 0.22897 0.25924 0.3794 0.0
C1381 C 0.25473 0.22395 0.39208 0.0
C1382 C 0.26169 0.19719 0.39004 0.0
C1383 C 0.26408 0.18516 0.36421 0.0
C1384 C 0.27051 0.15993 0.36236 0.0
C1385 C 0.27473 0.14655 0.3862 0.0
C1386 C 0.27257 0.15838 0.41194 0.0
C1387 C 0.26613 0.1836 0.41391 0.0
H1388 H 0.27971 0.12702 0.38472 0.0
H1389 H 0.2264 0.37405 0.39221 0.0
H1390 H 0.16446 0.78299 0.96779 0.0
H1391 H 0.18989 0.75829 0.9355 0.0
H1392 H 0.25014 0.81125 0.94452 0.0
H1393 H 0.22429 0.83662 0.97582 0.0
H1394 H 0.24896 0.7963 0.89405 0.0
H1395 H 0.24774 0.75408 0.97982 0.0
H1396 H 0.22859 0.73432 0.02002 0.0
H1397 H 0.19283 0.68032 0.96705 0.0
H1398 H 0.21152 0.69998 0.92649 0.0
H1399 H 0.35285 0.71444 0.86744 0.0
H1400 H 0.32111 0.74256 0.88734 0.0
H1401 H 0.26282 0.69567 0.85378 0.0
H1402 H 0.29467 0.66776 0.83322 0.0
H1403 H 0.26052 0.7066 0.91293 0.0
H1404 H 0.2676 0.74837 0.82712 0.0
H1405 H 0.29008 0.76843 0.78925 0.0
H1406 H 0.31913 0.82364 0.84566 0.0
H1407 H 0.29712 0.80369 0.88397 0.0
C1408 C 0.18308 0.78944 0.96275 0.0
C1409 C 0.19246 0.81163 0.97458 0.0
C1410 C 0.19766 0.77524 0.94436 0.0
C1411 C 0.22222 0.78253 0.938 0.0
C1412 C 0.23131 0.80513 0.94911 0.0
C1413 C 0.21653 0.81961 0.96709 0.0
C1414 C 0.23872 0.76627 0.92053 0.0
C1415 C 0.2516 0.77674 0.89836 0.0
C1416 C 0.24199 0.74059 0.92576 0.0
C1417 C 0.2308 0.72867 0.95011 0.0
C1418 C 0.23565 0.7381 0.97674 0.0
C1419 C 0.2249 0.72691 0.99959 0.0
C1420 C 0.20944 0.70612 0.99608 0.0
C1421 C 0.20477 0.69645 0.96973 0.0
C1422 C 0.21544 0.7076 0.9468 0.0
C1423 C 0.33325 0.71046 0.86389 0.0
C1424 C 0.3261 0.68907 0.84879 0.0
C1425 C 0.31517 0.7265 0.8752 0.0
C1426 C 0.28965 0.7212 0.87197 0.0
C1427 C 0.28244 0.7001 0.85639 0.0
C1428 C 0.30057 0.68428 0.84459 0.0
C1429 C 0.27073 0.73671 0.88672 0.0
C1430 C 0.25754 0.7261 0.90847 0.0
C1431 C 0.26764 0.76232 0.88148 0.0
C1432 C 0.28087 0.77439 0.85847 0.0
C1433 C 0.27896 0.76465 0.8315 0.0
C1434 C 0.29159 0.77603 0.80994 0.0
C1435 C 0.30607 0.79726 0.81505 0.0
C1436 C 0.30792 0.80718 0.84174 0.0
C1437 C 0.29535 0.79586 0.86338 0.0
H1438 H 0.31583 0.80605 0.79833 0.0
H1439 H 0.20114 0.69748 0.0138 0.0
loop_
_geom_bond_atom_site_label_1
_geom_bond_atom_site_label_2
_geom_bond_distance
_geom_bond_site_symmetry_2
_ccdc_geom_bond_type
Fe0 O2 1.918 . S
Fe0 O5 1.997 . S
Fe0 O6 2.002 . S
Fe0 O11 1.976 1_554 S
Fe0 O14 1.996 1_554 S
Fe1 O2 1.918 . S
Fe1 O9 1.997 . S
Fe1 O12 1.996 1_554 S
Fe1 O16 1.976 1_554 S
Fe1 O19 2.002 . S
O2 Fe0 1.918 . S
O2 Fe1 1.918 . S
O2 Fe3 1.918 . S
Fe3 O2 1.918 . S
Fe3 O4 2.002 . S
Fe3 O13 1.976 1_554 S
Fe3 O17 1.996 1_554 S
Fe3 O20 1.997 . S
O4 Fe3 2.002 . S
O4 C21 1.295 . S
O5 Fe0 1.997 . S
O5 C21 1.235 . S
O6 Fe0 2.002 . S
O6 C7 1.295 . S
C7 O6 1.295 . S
C7 O9 1.235 . S
C8 O13 1.287 . S
C8 O14 1.255 . S
O9 Fe1 1.997 . S
O9 C7 1.235 . S
C10 O16 1.287 . S
C10 O17 1.255 . S
O11 Fe0 1.976 1_556 S
O11 C18 1.287 . S
O12 Fe1 1.996 1_556 S
O12 C18 1.255 . S
O13 Fe3 1.976 1_556 S
O13 C8 1.287 . S
O14 Fe0 1.996 1_556 S
O14 C8 1.255 . S
C15 O19 1.295 . S
C15 O20 1.235 . S
O16 Fe1 1.976 1_556 S
O16 C10 1.287 . S
O17 Fe3 1.996 1_556 S
O17 C10 1.255 . S
C18 O11 1.287 . S
C18 O12 1.255 . S
O19 Fe1 2.002 . S
O19 C15 1.295 . S
O20 Fe3 1.997 . S
O20 C15 1.235 . S
C21 O4 1.295 . S
C21 O5 1.235 . S
Fe22 O24 1.918 . S
Fe22 O27 1.997 . S
Fe22 O28 2.002 . S
Fe22 O33 1.976 . S
Fe22 O36 1.996 . S
Fe23 O24 1.918 . S
Fe23 O31 1.997 . S
Fe23 O34 1.996 . S
Fe23 O38 1.976 . S
Fe23 O41 2.002 . S
O24 Fe22 1.918 . S
O24 Fe23 1.918 . S
O24 Fe25 1.918 . S
Fe25 O24 1.918 . S
Fe25 O26 2.002 . S
Fe25 O35 1.976 . S
Fe25 O39 1.996 . S
Fe25 O42 1.997 . S
O26 Fe25 2.002 . S
O26 C43 1.295 . S
O27 Fe22 1.997 . S
O27 C43 1.235 . S
O28 Fe22 2.002 . S
O28 C29 1.295 . S
C29 O28 1.295 . S
C29 O31 1.235 . S
C30 O35 1.287 . S
C30 O36 1.255 . S
O31 Fe23 1.997 . S
O31 C29 1.235 . S
C32 O38 1.287 . S
C32 O39 1.255 . S
O33 Fe22 1.976 . S
O33 C40 1.287 . S
O34 Fe23 1.996 . S
O34 C40 1.255 . S
O35 Fe25 1.976 . S
O35 C30 1.287 . S
O36 Fe22 1.996 . S
O36 C30 1.255 . S
C37 O41 1.295 . S
C37 O42 1.235 . S
O38 Fe23 1.976 . S
O38 C32 1.287 . S
O39 Fe25 1.996 . S
O39 C32 1.255 . S
C40 O33 1.287 . S
C40 O34 1.255 . S
O41 Fe23 2.002 . S
O41 C37 1.295 . S
O42 Fe25 1.997 . S
O42 C37 1.235 . S
C43 O26 1.295 . S
C43 O27 1.235 . S
Fe44 O46 1.918 . S
Fe44 O49 1.997 1_554 S
Fe44 O50 2.002 1_554 S
Fe44 O55 1.976 . S
Fe44 O58 1.996 . S
Fe45 O46 1.918 . S
Fe45 O53 1.997 1_554 S
Fe45 O56 1.996 . S
Fe45 O60 1.976 . S
Fe45 O63 2.002 1_554 S
O46 Fe44 1.918 . S
O46 Fe45 1.918 . S
O46 Fe47 1.918 . S
Fe47 O46 1.918 . S
Fe47 O48 2.002 1_554 S
Fe47 O57 1.976 . S
Fe47 O61 1.996 . S
Fe47 O64 1.997 1_554 S
O48 Fe47 2.002 1_556 S
O48 C65 1.295 . S
O49 Fe44 1.997 1_556 S
O49 C65 1.235 . S
O50 Fe44 2.002 1_556 S
O50 C51 1.295 . S
C51 O50 1.295 . S
C51 O53 1.235 . S
C52 O57 1.287 . S
C52 O58 1.255 . S
O53 Fe45 1.997 1_556 S
O53 C51 1.235 . S
C54 O60 1.287 . S
C54 O61 1.255 . S
O55 Fe44 1.976 . S
O55 C62 1.287 . S
O56 Fe45 1.996 . S
O56 C62 1.255 . S
O57 Fe47 1.976 . S
O57 C52 1.287 . S
O58 Fe44 1.996 . S
O58 C52 1.255 . S
C59 O63 1.295 . S
C59 O64 1.235 . S
O60 Fe45 1.976 . S
O60 C54 1.287 . S
O61 Fe47 1.996 . S
O61 C54 1.255 . S
C62 O55 1.287 . S
C62 O56 1.255 . S
O63 Fe45 2.002 1_556 S
O63 C59 1.295 . S
O64 Fe47 1.997 1_556 S
O64 C59 1.235 . S
C65 O48 1.295 . S
C65 O49 1.235 . S
Fe66 O68 1.918 . S
Fe66 O71 1.997 . S
Fe66 O72 2.002 . S
Fe66 O77 1.976 . S
Fe66 O80 1.996 . S
Fe67 O68 1.918 . S
Fe67 O75 1.997 . S
Fe67 O78 1.996 . S
Fe67 O82 1.976 . S
Fe67 O85 2.002 . S
O68 Fe66 1.918 . S
O68 Fe67 1.918 . S
O68 Fe69 1.918 . S
Fe69 O68 1.918 . S
Fe69 O70 2.002 . S
Fe69 O79 1.976 . S
Fe69 O83 1.996 . S
Fe69 O86 1.997 . S
O70 Fe69 2.002 . S
O70 C87 1.295 . S
O71 Fe66 1.997 . S
O71 C87 1.235 . S
O72 Fe66 2.002 . S
O72 C73 1.295 . S
C73 O72 1.295 . S
C73 O75 1.235 . S
C74 O79 1.287 . S
C74 O80 1.255 . S
O75 Fe67 1.997 . S
O75 C73 1.235 . S
C76 O82 1.287 . S
C76 O83 1.255 . S
O77 Fe66 1.976 . S
O77 C84 1.287 . S
O78 Fe67 1.996 . S
O78 C84 1.255 . S
O79 Fe69 1.976 . S
O79 C74 1.287 . S
O80 Fe66 1.996 . S
O80 C74 1.255 . S
C81 O85 1.295 . S
C81 O86 1.235 . S
O82 Fe67 1.976 . S
O82 C76 1.287 . S
O83 Fe69 1.996 . S
O83 C76 1.255 . S
C84 O77 1.287 . S
C84 O78 1.255 . S
O85 Fe67 2.002 . S
O85 C81 1.295 . S
O86 Fe69 1.997 . S
O86 C81 1.235 . S
C87 O70 1.295 . S
C87 O71 1.235 . S
H88 C89 0.949 . S
C89 H88 0.949 . S
C89 C90 1.395 . S
C89 C91 1.391 . S
C90 C89 1.395 . S
C90 C93 1.390 . S
C91 C89 1.391 . S
C91 C95 1.387 . S
C91 C96 1.491 . S
H92 C93 0.950 . S
C93 C90 1.390 . S
C93 H92 0.950 . S
C93 C94 1.378 . S
C94 C93 1.378 . S
C94 C95 1.409 . S
C95 C91 1.387 . S
C95 C94 1.409 . S
C95 H97 0.951 . S
C96 C91 1.491 . S
C96 C98 1.382 . S
C96 C100 1.404 . S
H97 C95 0.951 . S
C98 C96 1.382 . S
C98 C99 1.390 . S
C98 H103 0.949 . S
C99 C98 1.390 . S
C99 C104 1.399 . S
C100 C96 1.404 . S
C100 H101 0.950 . S
C100 C102 1.375 . S
H101 C100 0.950 . S
C102 C100 1.375 . S
C102 C104 1.382 . S
C102 H106 0.950 . S
H103 C98 0.949 . S
C104 C99 1.399 . S
C104 C102 1.382 . S
C104 H105 0.952 . S
H105 C104 0.952 . S
H106 C102 0.950 . S
H107 C108 0.949 . S
C108 H107 0.949 . S
C108 C109 1.395 . S
C108 C110 1.391 . S
C109 C108 1.395 . S
C109 C112 1.390 . S
C110 C108 1.391 . S
C110 C114 1.387 . S
C110 C115 1.491 . S
H111 C112 0.950 . S
C112 C109 1.390 . S
C112 H111 0.950 . S
C112 C113 1.378 . S
C113 C112 1.378 . S
C113 C114 1.409 . S
C114 C110 1.387 . S
C114 C113 1.409 . S
C114 H116 0.951 . S
C115 C110 1.491 . S
C115 C117 1.382 . S
C115 C119 1.404 . S
H116 C114 0.951 . S
C117 C115 1.382 . S
C117 C118 1.390 . S
C117 H122 0.949 . S
C118 C117 1.390 . S
C118 C123 1.399 . S
C119 C115 1.404 . S
C119 H120 0.950 . S
C119 C121 1.375 . S
H120 C119 0.950 . S
C121 C119 1.375 . S
C121 C123 1.382 . S
C121 H125 0.950 . S
H122 C117 0.949 . S
C123 C118 1.399 . S
C123 C121 1.382 . S
C123 H124 0.952 . S
H124 C123 0.952 . S
H125 C121 0.950 . S
H126 C127 0.949 . S
C127 H126 0.949 . S
C127 C128 1.395 . S
C127 C129 1.391 . S
C128 C127 1.395 . S
C128 C131 1.390 . S
C129 C127 1.391 . S
C129 C133 1.387 . S
C129 C134 1.491 . S
H130 C131 0.950 . S
C131 C128 1.390 . S
C131 H130 0.950 . S
C131 C132 1.378 . S
C132 C131 1.378 . S
C132 C133 1.409 . S
C133 C129 1.387 . S
C133 C132 1.409 . S
C133 H135 0.951 . S
C134 C129 1.491 . S
C134 C136 1.382 . S
C134 C138 1.404 . S
H135 C133 0.951 . S
C136 C134 1.382 . S
C136 C137 1.390 . S
C136 H141 0.949 . S
C137 C136 1.390 . S
C137 C142 1.399 . S
C138 C134 1.404 . S
C138 H139 0.950 . S
C138 C140 1.375 . S
H139 C138 0.950 . S
C140 C138 1.375 . S
C140 C142 1.382 . S
C140 H144 0.950 . S
H141 C136 0.949 . S
C142 C137 1.399 . S
C142 C140 1.382 . S
C142 H143 0.952 . S
H143 C142 0.952 . S
H144 C140 0.950 . S
H145 C146 0.949 . S
C146 H145 0.949 . S
C146 C147 1.395 . S
C146 C148 1.391 . S
C147 C146 1.395 . S
C147 C150 1.390 . S
C148 C146 1.391 . S
C148 C152 1.387 . S
C148 C153 1.491 . S
H149 C150 0.950 . S
C150 C147 1.390 . S
C150 H149 0.950 . S
C150 C151 1.378 . S
C151 C150 1.378 . S
C151 C152 1.409 . S
C152 C148 1.387 . S
C152 C151 1.409 . S
C152 H154 0.951 . S
C153 C148 1.491 . S
C153 C155 1.382 . S
C153 C157 1.404 . S
H154 C152 0.951 . S
C155 C153 1.382 . S
C155 C156 1.390 . S
C155 H160 0.949 . S
C156 C155 1.390 . S
C156 C161 1.399 . S
C157 C153 1.404 . S
C157 H158 0.950 . S
C157 C159 1.375 . S
H158 C157 0.950 . S
C159 C157 1.375 . S
C159 C161 1.382 . S
C159 H163 0.950 . S
H160 C155 0.949 . S
C161 C156 1.399 . S
C161 C159 1.382 . S
C161 H162 0.952 . S
H162 C161 0.952 . S
H163 C159 0.950 . S
H164 C165 0.949 . S
C165 H164 0.949 . S
C165 C166 1.395 . S
C165 C167 1.391 . S
C166 C165 1.395 . S
C166 C169 1.390 . S
C167 C165 1.391 . S
C167 C171 1.387 . S
C167 C172 1.491 . S
H168 C169 0.950 . S
C169 C166 1.390 . S
C169 H168 0.950 . S
C169 C170 1.378 . S
C170 C169 1.378 . S
C170 C171 1.409 . S
C171 C167 1.387 . S
C171 C170 1.409 . S
C171 H173 0.951 . S
C172 C167 1.491 . S
C172 C174 1.382 . S
C172 C176 1.404 . S
H173 C171 0.951 . S
C174 C172 1.382 . S
C174 C175 1.390 . S
C174 H179 0.949 . S
C175 C174 1.390 . S
C175 C180 1.399 . S
C176 C172 1.404 . S
C176 H177 0.950 . S
C176 C178 1.375 . S
H177 C176 0.950 . S
C178 C176 1.375 . S
C178 C180 1.382 . S
C178 H182 0.950 . S
H179 C174 0.949 . S
C180 C175 1.399 . S
C180 C178 1.382 . S
C180 H181 0.952 . S
H181 C180 0.952 . S
H182 C178 0.950 . S
H183 C184 0.949 . S
C184 H183 0.949 . S
C184 C185 1.395 . S
C184 C186 1.391 . S
C185 C184 1.395 . S
C185 C188 1.390 . S
C186 C184 1.391 . S
C186 C190 1.387 . S
C186 C191 1.491 . S
H187 C188 0.950 . S
C188 C185 1.390 . S
C188 H187 0.950 . S
C188 C189 1.378 . S
C189 C188 1.378 . S
C189 C190 1.409 . S
C190 C186 1.387 . S
C190 C189 1.409 . S
C190 H192 0.951 . S
C191 C186 1.491 . S
C191 C193 1.382 . S
C191 C195 1.404 . S
H192 C190 0.951 . S
C193 C191 1.382 . S
C193 C194 1.390 . S
C193 H198 0.949 . S
C194 C193 1.390 . S
C194 C199 1.399 . S
C195 C191 1.404 . S
C195 H196 0.950 . S
C195 C197 1.375 . S
H196 C195 0.950 . S
C197 C195 1.375 . S
C197 C199 1.382 . S
C197 H201 0.950 . S
H198 C193 0.949 . S
C199 C194 1.399 . S
C199 C197 1.382 . S
C199 H200 0.952 . S
H200 C199 0.952 . S
H201 C197 0.950 . S
H202 C203 0.949 . S
C203 H202 0.949 . S
C203 C204 1.395 . S
C203 C205 1.391 . S
C204 C203 1.395 . S
C204 C207 1.390 . S
C205 C203 1.391 . S
C205 C209 1.387 . S
C205 C210 1.491 . S
H206 C207 0.950 . S
C207 C204 1.390 . S
C207 H206 0.950 . S
C207 C208 1.378 . S
C208 C207 1.378 . S
C208 C209 1.409 . S
C209 C205 1.387 . S
C209 C208 1.409 . S
C209 H211 0.951 . S
C210 C205 1.491 . S
C210 C212 1.382 . S
C210 C214 1.404 . S
H211 C209 0.951 . S
C212 C210 1.382 . S
C212 C213 1.390 . S
C212 H217 0.949 . S
C213 C212 1.390 . S
C213 C218 1.399 . S
C214 C210 1.404 . S
C214 H215 0.950 . S
C214 C216 1.375 . S
H215 C214 0.950 . S
C216 C214 1.375 . S
C216 C218 1.382 . S
C216 H220 0.950 . S
H217 C212 0.949 . S
C218 C213 1.399 . S
C218 C216 1.382 . S
C218 H219 0.952 . S
H219 C218 0.952 . S
H220 C216 0.950 . S
H221 C222 0.949 . S
C222 H221 0.949 . S
C222 C223 1.395 . S
C222 C224 1.391 . S
C223 C222 1.395 . S
C223 C226 1.390 . S
C224 C222 1.391 . S
C224 C228 1.387 . S
C224 C229 1.491 . S
H225 C226 0.950 . S
C226 C223 1.390 . S
C226 H225 0.950 . S
C226 C227 1.378 . S
C227 C226 1.378 . S
C227 C228 1.409 . S
C228 C224 1.387 . S
C228 C227 1.409 . S
C228 H230 0.951 . S
C229 C224 1.491 . S
C229 C231 1.382 . S
C229 C233 1.404 . S
H230 C228 0.951 . S
C231 C229 1.382 . S
C231 C232 1.390 . S
C231 H236 0.949 . S
C232 C231 1.390 . S
C232 C237 1.399 . S
C233 C229 1.404 . S
C233 H234 0.950 . S
C233 C235 1.375 . S
H234 C233 0.950 . S
C235 C233 1.375 . S
C235 C237 1.382 . S
C235 H239 0.950 . S
H236 C231 0.949 . S
C237 C232 1.399 . S
C237 C235 1.382 . S
C237 H238 0.952 . S
H238 C237 0.952 . S
H239 C235 0.950 . S
H240 C258 0.951 . S
H241 C260 0.951 1_545 S
H242 C262 0.950 . S
H243 C263 0.950 . S
H244 C265 0.950 1_565 S
H245 C268 0.950 1_565 S
H246 C269 0.950 1_565 S
H247 C271 0.950 . S
H248 C272 0.950 . S
H249 C273 0.951 . S
H250 C275 0.951 . S
H251 C277 0.950 . S
H252 C278 0.950 . S
H253 C280 0.950 . S
H254 C283 0.950 . S
H255 C284 0.950 . S
H256 C286 0.950 1_565 S
H257 C287 0.950 1_565 S
C258 H240 0.951 . S
C258 C259 1.366 . S
C258 C260 1.388 . S
C259 C258 1.366 . S
C259 C263 1.385 . S
C260 H241 0.951 1_565 S
C260 C258 1.388 . S
C260 C261 1.366 . S
C261 C260 1.366 . S
C261 C262 1.414 . S
C261 C264 1.499 1_565 S
C262 H242 0.950 . S
C262 C261 1.414 . S
C262 C263 1.374 . S
C263 H243 0.950 . S
C263 C259 1.385 . S
C263 C262 1.374 . S
C264 C261 1.499 1_545 S
C264 C265 1.373 . S
C264 C266 1.389 . S
C265 H244 0.950 1_545 S
C265 C264 1.373 . S
C265 C281 1.377 . S
C266 C264 1.389 . S
C266 C267 1.524 . S
C266 C280 1.377 . S
C267 C266 1.524 . S
C267 C268 1.397 . S
C267 C272 1.363 . S
C268 H245 0.950 1_545 S
C268 C267 1.397 . S
C268 C269 1.334 . S
C269 H246 0.950 1_545 S
C269 C268 1.334 . S
C269 C270 1.287 . S
C270 C269 1.287 . S
C270 C271 1.524 . S
C270 H289 0.913 . S
C271 H247 0.950 . S
C271 C270 1.524 . S
C271 C272 1.415 . S
C272 H248 0.950 . S
C272 C267 1.363 . S
C272 C271 1.415 . S
C273 H249 0.951 . S
C273 C274 1.366 . S
C273 C275 1.388 . S
C274 C273 1.366 . S
C274 C278 1.385 . S
C275 H250 0.951 . S
C275 C273 1.388 . S
C275 C276 1.366 . S
C276 C275 1.366 . S
C276 C277 1.414 . S
C276 C279 1.499 . S
C277 H251 0.950 . S
C277 C276 1.414 . S
C277 C278 1.374 . S
C278 H252 0.950 . S
C278 C274 1.385 . S
C278 C277 1.374 . S
C279 C276 1.499 . S
C279 C280 1.373 . S
C279 C281 1.389 . S
C280 H253 0.950 . S
C280 C266 1.377 . S
C280 C279 1.373 . S
C281 C265 1.377 . S
C281 C279 1.389 . S
C281 C282 1.524 . S
C282 C281 1.524 . S
C282 C283 1.397 . S
C282 C287 1.363 . S
C283 H254 0.950 . S
C283 C282 1.397 . S
C283 C284 1.334 . S
C284 H255 0.950 . S
C284 C283 1.334 . S
C284 C285 1.287 . S
C285 C284 1.287 . S
C285 C286 1.524 . S
C285 H288 0.999 . S
C286 H256 0.950 1_545 S
C286 C285 1.524 . S
C286 C287 1.415 . S
C287 H257 0.950 1_545 S
C287 C282 1.363 . S
C287 C286 1.415 . S
H288 C285 0.999 . S
H289 C270 0.913 . S
H290 C308 0.951 . S
H291 C310 0.951 . S
H292 C312 0.950 . S
H293 C313 0.950 . S
H294 C315 0.950 . S
H295 C318 0.950 . S
H296 C319 0.950 . S
H297 C321 0.950 . S
H298 C322 0.950 . S
H299 C323 0.951 . S
H300 C325 0.951 . S
H301 C327 0.950 . S
H302 C328 0.950 . S
H303 C330 0.950 . S
H304 C333 0.950 . S
H305 C334 0.950 . S
H306 C336 0.950 . S
H307 C337 0.950 . S
C308 H290 0.951 . S
C308 C309 1.366 . S
C308 C310 1.388 . S
C309 C308 1.366 . S
C309 C313 1.385 . S
C310 H291 0.951 . S
C310 C308 1.388 . S
C310 C311 1.366 . S
C311 C310 1.366 . S
C311 C312 1.414 . S
C311 C314 1.499 . S
C312 H292 0.950 . S
C312 C311 1.414 . S
C312 C313 1.374 . S
C313 H293 0.950 . S
C313 C309 1.385 . S
C313 C312 1.374 . S
C314 C311 1.499 . S
C314 C315 1.373 . S
C314 C316 1.389 . S
C315 H294 0.950 . S
C315 C314 1.373 . S
C315 C331 1.377 . S
C316 C314 1.389 . S
C316 C317 1.524 . S
C316 C330 1.377 . S
C317 C316 1.524 . S
C317 C318 1.397 . S
C317 C322 1.363 . S
C318 H295 0.950 . S
C318 C317 1.397 . S
C318 C319 1.334 . S
C319 H296 0.950 . S
C319 C318 1.334 . S
C319 C320 1.287 . S
C320 C319 1.287 . S
C320 C321 1.524 . S
C320 H339 0.913 . S
C321 H297 0.950 . S
C321 C320 1.524 . S
C321 C322 1.415 . S
C322 H298 0.950 . S
C322 C317 1.363 . S
C322 C321 1.415 . S
C323 H299 0.951 . S
C323 C324 1.366 . S
C323 C325 1.388 . S
C324 C323 1.366 . S
C324 C328 1.385 . S
C325 H300 0.951 . S
C325 C323 1.388 . S
C325 C326 1.366 . S
C326 C325 1.366 . S
C326 C327 1.414 . S
C326 C329 1.499 . S
C327 H301 0.950 . S
C327 C326 1.414 . S
C327 C328 1.374 . S
C328 H302 0.950 . S
C328 C324 1.385 . S
C328 C327 1.374 . S
C329 C326 1.499 . S
C329 C330 1.373 . S
C329 C331 1.389 . S
C330 H303 0.950 . S
C330 C316 1.377 . S
C330 C329 1.373 . S
C331 C315 1.377 . S
C331 C329 1.389 . S
C331 C332 1.524 . S
C332 C331 1.524 . S
C332 C333 1.397 . S
C332 C337 1.363 . S
C333 H304 0.950 . S
C333 C332 1.397 . S
C333 C334 1.334 . S
C334 H305 0.950 . S
C334 C333 1.334 . S
C334 C335 1.287 . S
C335 C334 1.287 . S
C335 C336 1.524 . S
C335 H338 0.999 . S
C336 H306 0.950 . S
C336 C335 1.524 . S
C336 C337 1.415 . S
C337 H307 0.950 . S
C337 C332 1.363 . S
C337 C336 1.415 . S
H338 C335 0.999 . S
H339 C320 0.913 . S
H340 C358 0.951 . S
H341 C360 0.951 . S
H342 C362 0.950 . S
H343 C363 0.950 . S
H344 C365 0.950 1_545 S
H345 C368 0.950 . S
H346 C369 0.950 . S
H347 C371 0.950 . S
H348 C372 0.950 . S
H349 C373 0.951 . S
H350 C375 0.951 . S
H351 C377 0.950 . S
H352 C378 0.950 . S
H353 C380 0.950 . S
H354 C383 0.950 . S
H355 C384 0.950 . S
H356 C386 0.950 . S
H357 C387 0.950 . S
C358 H340 0.951 . S
C358 C359 1.366 . S
C358 C360 1.388 . S
C359 C358 1.366 . S
C359 C363 1.385 . S
C360 H341 0.951 . S
C360 C358 1.388 . S
C360 C361 1.366 . S
C361 C360 1.366 . S
C361 C362 1.414 . S
C361 C364 1.499 1_545 S
C362 H342 0.950 . S
C362 C361 1.414 . S
C362 C363 1.374 . S
C363 H343 0.950 . S
C363 C359 1.385 . S
C363 C362 1.374 . S
C364 C361 1.499 1_565 S
C364 C365 1.373 . S
C364 C366 1.389 . S
C365 H344 0.950 1_565 S
C365 C364 1.373 . S
C365 C381 1.377 . S
C366 C364 1.389 . S
C366 C367 1.524 . S
C366 C380 1.377 . S
C367 C366 1.524 . S
C367 C368 1.397 . S
C367 C372 1.363 . S
C368 H345 0.950 . S
C368 C367 1.397 . S
C368 C369 1.334 . S
C369 H346 0.950 . S
C369 C368 1.334 . S
C369 C370 1.287 . S
C370 C369 1.287 . S
C370 C371 1.524 . S
C370 H389 0.913 . S
C371 H347 0.950 . S
C371 C370 1.524 . S
C371 C372 1.415 . S
C372 H348 0.950 . S
C372 C367 1.363 . S
C372 C371 1.415 . S
C373 H349 0.951 . S
C373 C374 1.366 . S
C373 C375 1.388 . S
C374 C373 1.366 . S
C374 C378 1.385 . S
C375 H350 0.951 . S
C375 C373 1.388 . S
C375 C376 1.366 . S
C376 C375 1.366 . S
C376 C377 1.414 . S
C376 C379 1.499 . S
C377 H351 0.950 . S
C377 C376 1.414 . S
C377 C378 1.374 . S
C378 H352 0.950 . S
C378 C374 1.385 . S
C378 C377 1.374 . S
C379 C376 1.499 . S
C379 C380 1.373 . S
C379 C381 1.389 . S
C380 H353 0.950 . S
C380 C366 1.377 . S
C380 C379 1.373 . S
C381 C365 1.377 . S
C381 C379 1.389 . S
C381 C382 1.524 . S
C382 C381 1.524 . S
C382 C383 1.397 . S
C382 C387 1.363 . S
C383 H354 0.950 . S
C383 C382 1.397 . S
C383 C384 1.334 . S
C384 H355 0.950 . S
C384 C383 1.334 . S
C384 C385 1.287 . S
C385 C384 1.287 . S
C385 C386 1.524 . S
C385 H388 0.999 . S
C386 H356 0.950 . S
C386 C385 1.524 . S
C386 C387 1.415 . S
C387 H357 0.950 . S
C387 C382 1.363 . S
C387 C386 1.415 . S
H388 C385 0.999 . S
H389 C370 0.913 . S
H390 C408 0.951 . S
H391 C410 0.951 . S
H392 C412 0.950 . S
H393 C413 0.950 . S
H394 C415 0.950 . S
H395 C418 0.950 . S
H396 C419 0.950 . S
H397 C421 0.950 . S
H398 C422 0.950 . S
H399 C423 0.951 . S
H400 C425 0.951 . S
H401 C427 0.950 . S
H402 C428 0.950 . S
H403 C430 0.950 . S
H404 C433 0.950 . S
H405 C434 0.950 . S
H406 C436 0.950 . S
H407 C437 0.950 . S
C408 H390 0.951 . S
C408 C409 1.366 . S
C408 C410 1.388 . S
C409 C408 1.366 . S
C409 C413 1.385 . S
C410 H391 0.951 . S
C410 C408 1.388 . S
C410 C411 1.366 . S
C411 C410 1.366 . S
C411 C412 1.414 . S
C411 C414 1.499 . S
C412 H392 0.950 . S
C412 C411 1.414 . S
C412 C413 1.374 . S
C413 H393 0.950 . S
C413 C409 1.385 . S
C413 C412 1.374 . S
C414 C411 1.499 . S
C414 C415 1.373 . S
C414 C416 1.389 . S
C415 H394 0.950 . S
C415 C414 1.373 . S
C415 C431 1.377 . S
C416 C414 1.389 . S
C416 C417 1.524 . S
C416 C430 1.377 . S
C417 C416 1.524 . S
C417 C418 1.397 . S
C417 C422 1.363 . S
C418 H395 0.950 . S
C418 C417 1.397 . S
C418 C419 1.334 . S
C419 H396 0.950 . S
C419 C418 1.334 . S
C419 C420 1.287 . S
C420 C419 1.287 . S
C420 C421 1.524 . S
C420 H439 0.913 . S
C421 H397 0.950 . S
C421 C420 1.524 . S
C421 C422 1.415 . S
C422 H398 0.950 . S
C422 C417 1.363 . S
C422 C421 1.415 . S
C423 H399 0.951 . S
C423 C424 1.366 . S
C423 C425 1.388 . S
C424 C423 1.366 . S
C424 C428 1.385 . S
C425 H400 0.951 . S
C425 C423 1.388 . S
C425 C426 1.366 . S
C426 C425 1.366 . S
C426 C427 1.414 . S
C426 C429 1.499 . S
C427 H401 0.950 . S
C427 C426 1.414 . S
C427 C428 1.374 . S
C428 H402 0.950 . S
C428 C424 1.385 . S
C428 C427 1.374 . S
C429 C426 1.499 . S
C429 C430 1.373 . S
C429 C431 1.389 . S
C430 H403 0.950 . S
C430 C416 1.377 . S
C430 C429 1.373 . S
C431 C415 1.377 . S
C431 C429 1.389 . S
C431 C432 1.524 . S
C432 C431 1.524 . S
C432 C433 1.397 . S
C432 C437 1.363 . S
C433 H404 0.950 . S
C433 C432 1.397 . S
C433 C434 1.334 . S
C434 H405 0.950 . S
C434 C433 1.334 . S
C434 C435 1.287 . S
C435 C434 1.287 . S
C435 C436 1.524 . S
C435 H438 0.999 . S
C436 H406 0.950 . S
C436 C435 1.524 . S
C436 C437 1.415 . S
C437 H407 0.950 . S
C437 C432 1.363 . S
C437 C436 1.415 . S
H438 C435 0.999 . S
H439 C420 0.913 . S
H440 C458 0.951 . S
H441 C460 0.951 . S
H442 C462 0.950 . S
H443 C463 0.950 . S
H444 C465 0.950 . S
H445 C468 0.950 . S
H446 C469 0.950 . S
H447 C471 0.950 . S
H448 C472 0.950 . S
H449 C473 0.951 . S
H450 C475 0.951 . S
H451 C477 0.950 . S
H452 C478 0.950 . S
H453 C480 0.950 . S
H454 C483 0.950 . S
H455 C484 0.950 . S
H456 C486 0.950 . S
H457 C487 0.950 . S
C458 H440 0.951 . S
C458 C459 1.366 . S
C458 C460 1.388 . S
C459 C458 1.366 . S
C459 C463 1.385 . S
C460 H441 0.951 . S
C460 C458 1.388 . S
C460 C461 1.366 . S
C461 C460 1.366 . S
C461 C462 1.414 . S
C461 C464 1.499 . S
C462 H442 0.950 . S
C462 C461 1.414 . S
C462 C463 1.374 . S
C463 H443 0.950 . S
C463 C459 1.385 . S
C463 C462 1.374 . S
C464 C461 1.499 . S
C464 C465 1.373 . S
C464 C466 1.389 . S
C465 H444 0.950 . S
C465 C464 1.373 . S
C465 C481 1.377 . S
C466 C464 1.389 . S
C466 C467 1.524 . S
C466 C480 1.377 . S
C467 C466 1.524 . S
C467 C468 1.397 . S
C467 C472 1.363 . S
C468 H445 0.950 . S
C468 C467 1.397 . S
C468 C469 1.334 . S
C469 H446 0.950 . S
C469 C468 1.334 . S
C469 C470 1.287 . S
C470 C469 1.287 . S
C470 C471 1.524 . S
C470 H489 0.913 . S
C471 H447 0.950 . S
C471 C470 1.524 . S
C471 C472 1.415 . S
C472 H448 0.950 . S
C472 C467 1.363 . S
C472 C471 1.415 . S
C473 H449 0.951 . S
C473 C474 1.366 . S
C473 C475 1.388 . S
C474 C473 1.366 . S
C474 C478 1.385 . S
C475 H450 0.951 . S
C475 C473 1.388 . S
C475 C476 1.366 . S
C476 C475 1.366 . S
C476 C477 1.414 . S
C476 C479 1.499 . S
C477 H451 0.950 . S
C477 C476 1.414 . S
C477 C478 1.374 . S
C478 H452 0.950 . S
C478 C474 1.385 . S
C478 C477 1.374 . S
C479 C476 1.499 . S
C479 C480 1.373 . S
C479 C481 1.389 . S
C480 H453 0.950 . S
C480 C466 1.377 . S
C480 C479 1.373 . S
C481 C465 1.377 . S
C481 C479 1.389 . S
C481 C482 1.524 . S
C482 C481 1.524 . S
C482 C483 1.397 . S
C482 C487 1.363 . S
C483 H454 0.950 . S
C483 C482 1.397 . S
C483 C484 1.334 . S
C484 H455 0.950 . S
C484 C483 1.334 . S
C484 C485 1.287 . S
C485 C484 1.287 . S
C485 C486 1.524 . S
C485 H488 0.999 . S
C486 H456 0.950 . S
C486 C485 1.524 . S
C486 C487 1.415 . S
C487 H457 0.950 . S
C487 C482 1.363 . S
C487 C486 1.415 . S
H488 C485 0.999 . S
H489 C470 0.913 . S
H490 C508 0.951 . S
H491 C510 0.951 . S
H492 C512 0.950 1_455 S
H493 C513 0.950 . S
H494 C515 0.950 . S
H495 C518 0.950 . S
H496 C519 0.950 . S
H497 C521 0.950 . S
H498 C522 0.950 . S
H499 C523 0.951 . S
H500 C525 0.951 . S
H501 C527 0.950 . S
H502 C528 0.950 . S
H503 C530 0.950 . S
H504 C533 0.950 . S
H505 C534 0.950 . S
H506 C536 0.950 . S
H507 C537 0.950 . S
C508 H490 0.951 . S
C508 C509 1.366 . S
C508 C510 1.388 . S
C509 C508 1.366 . S
C509 C513 1.385 . S
C510 H491 0.951 . S
C510 C508 1.388 . S
C510 C511 1.366 . S
C511 C510 1.366 . S
C511 C512 1.414 . S
C511 C514 1.499 1_655 S
C512 H492 0.950 1_655 S
C512 C511 1.414 . S
C512 C513 1.374 . S
C513 H493 0.950 . S
C513 C509 1.385 . S
C513 C512 1.374 . S
C514 C511 1.499 1_455 S
C514 C515 1.373 . S
C514 C516 1.389 . S
C515 H494 0.950 . S
C515 C514 1.373 . S
C515 C531 1.377 . S
C516 C514 1.389 . S
C516 C517 1.524 1_455 S
C516 C530 1.377 . S
C517 C516 1.524 1_655 S
C517 C518 1.397 . S
C517 C522 1.363 . S
C518 H495 0.950 . S
C518 C517 1.397 . S
C518 C519 1.334 . S
C519 H496 0.950 . S
C519 C518 1.334 . S
C519 C520 1.287 . S
C520 C519 1.287 . S
C520 C521 1.524 . S
C520 H539 0.913 . S
C521 H497 0.950 . S
C521 C520 1.524 . S
C521 C522 1.415 . S
C522 H498 0.950 . S
C522 C517 1.363 . S
C522 C521 1.415 . S
C523 H499 0.951 . S
C523 C524 1.366 . S
C523 C525 1.388 . S
C524 C523 1.366 . S
C524 C528 1.385 . S
C525 H500 0.951 . S
C525 C523 1.388 . S
C525 C526 1.366 . S
C526 C525 1.366 . S
C526 C527 1.414 . S
C526 C529 1.499 . S
C527 H501 0.950 . S
C527 C526 1.414 . S
C527 C528 1.374 . S
C528 H502 0.950 . S
C528 C524 1.385 . S
C528 C527 1.374 . S
C529 C526 1.499 . S
C529 C530 1.373 . S
C529 C531 1.389 . S
C530 H503 0.950 . S
C530 C516 1.377 . S
C530 C529 1.373 . S
C531 C515 1.377 . S
C531 C529 1.389 . S
C531 C532 1.524 . S
C532 C531 1.524 . S
C532 C533 1.397 . S
C532 C537 1.363 . S
C533 H504 0.950 . S
C533 C532 1.397 . S
C533 C534 1.334 . S
C534 H505 0.950 . S
C534 C533 1.334 . S
C534 C535 1.287 . S
C535 C534 1.287 . S
C535 C536 1.524 . S
C535 H538 0.999 . S
C536 H506 0.950 . S
C536 C535 1.524 . S
C536 C537 1.415 . S
C537 H507 0.950 . S
C537 C532 1.363 . S
C537 C536 1.415 . S
H538 C535 0.999 . S
H539 C520 0.913 . S
H540 C558 0.951 . S
H541 C560 0.951 . S
H542 C562 0.950 . S
H543 C563 0.950 . S
H544 C565 0.950 . S
H545 C568 0.950 . S
H546 C569 0.950 . S
H547 C571 0.950 . S
H548 C572 0.950 . S
H549 C573 0.951 . S
H550 C575 0.951 . S
H551 C577 0.950 . S
H552 C578 0.950 . S
H553 C580 0.950 . S
H554 C583 0.950 . S
H555 C584 0.950 . S
H556 C586 0.950 . S
H557 C587 0.950 . S
C558 H540 0.951 . S
C558 C559 1.366 . S
C558 C560 1.388 . S
C559 C558 1.366 . S
C559 C563 1.385 . S
C560 H541 0.951 . S
C560 C558 1.388 . S
C560 C561 1.366 . S
C561 C560 1.366 . S
C561 C562 1.414 . S
C561 C564 1.499 . S
C562 H542 0.950 . S
C562 C561 1.414 . S
C562 C563 1.374 . S
C563 H543 0.950 . S
C563 C559 1.385 . S
C563 C562 1.374 . S
C564 C561 1.499 . S
C564 C565 1.373 . S
C564 C566 1.389 . S
C565 H544 0.950 . S
C565 C564 1.373 . S
C565 C581 1.377 . S
C566 C564 1.389 . S
C566 C567 1.524 . S
C566 C580 1.377 . S
C567 C566 1.524 . S
C567 C568 1.397 . S
C567 C572 1.363 . S
C568 H545 0.950 . S
C568 C567 1.397 . S
C568 C569 1.334 . S
C569 H546 0.950 . S
C569 C568 1.334 . S
C569 C570 1.287 . S
C570 C569 1.287 . S
C570 C571 1.524 . S
C570 H589 0.913 . S
C571 H547 0.950 . S
C571 C570 1.524 . S
C571 C572 1.415 . S
C572 H548 0.950 . S
C572 C567 1.363 . S
C572 C571 1.415 . S
C573 H549 0.951 . S
C573 C574 1.366 . S
C573 C575 1.388 . S
C574 C573 1.366 . S
C574 C578 1.385 . S
C575 H550 0.951 . S
C575 C573 1.388 . S
C575 C576 1.366 . S
C576 C575 1.366 . S
C576 C577 1.414 . S
C576 C579 1.499 . S
C577 H551 0.950 . S
C577 C576 1.414 . S
C577 C578 1.374 . S
C578 H552 0.950 . S
C578 C574 1.385 . S
C578 C577 1.374 . S
C579 C576 1.499 . S
C579 C580 1.373 . S
C579 C581 1.389 . S
C580 H553 0.950 . S
C580 C566 1.377 . S
C580 C579 1.373 . S
C581 C565 1.377 . S
C581 C579 1.389 . S
C581 C582 1.524 . S
C582 C581 1.524 . S
C582 C583 1.397 . S
C582 C587 1.363 . S
C583 H554 0.950 . S
C583 C582 1.397 . S
C583 C584 1.334 . S
C584 H555 0.950 . S
C584 C583 1.334 . S
C584 C585 1.287 . S
C585 C584 1.287 . S
C585 C586 1.524 . S
C585 H588 0.999 . S
C586 H556 0.950 . S
C586 C585 1.524 . S
C586 C587 1.415 . S
C587 H557 0.950 . S
C587 C582 1.363 . S
C587 C586 1.415 . S
H588 C585 0.999 . S
H589 C570 0.913 . S
H590 C608 0.951 . S
H591 C610 0.951 . S
H592 C612 0.959 . S
H593 C613 0.950 . S
H594 C615 0.950 . S
H595 C618 0.950 . S
H596 C619 0.950 . S
H597 C621 0.950 . S
H598 C622 0.950 . S
H599 C623 0.951 . S
H600 C625 0.951 . S
H601 C627 0.950 . S
H602 C628 0.950 . S
H603 C630 0.950 . S
H604 C633 0.950 . S
H605 C634 0.950 . S
H606 C636 0.950 . S
H607 C637 0.950 . S
C608 H590 0.951 . S
C608 C609 1.366 . S
C608 C610 1.388 . S
C609 C608 1.366 . S
C609 C613 1.385 . S
C610 H591 0.951 . S
C610 C608 1.388 . S
C610 C611 1.366 . S
C611 C610 1.366 . S
C611 C612 1.414 . S
C611 C614 1.499 . S
C612 H592 0.959 . S
C612 C611 1.414 . S
C612 C613 1.374 . S
C613 H593 0.950 . S
C613 C609 1.385 . S
C613 C612 1.374 . S
C614 C611 1.499 . S
C614 C615 1.373 1_455 S
C614 C616 1.389 . S
C615 H594 0.950 . S
C615 C614 1.373 1_655 S
C615 C631 1.377 . S
C616 C614 1.389 . S
C616 C617 1.524 . S
C616 C630 1.377 1_455 S
C617 C616 1.524 . S
C617 C618 1.397 . S
C617 C622 1.363 . S
C618 H595 0.950 . S
C618 C617 1.397 . S
C618 C619 1.334 . S
C619 H596 0.950 . S
C619 C618 1.334 . S
C619 C620 1.287 . S
C620 C619 1.287 . S
C620 C621 1.524 . S
C620 H639 0.913 . S
C621 H597 0.950 . S
C621 C620 1.524 . S
C621 C622 1.415 . S
C622 H598 0.950 . S
C622 C617 1.363 . S
C622 C621 1.415 . S
C623 H599 0.951 . S
C623 C624 1.366 . S
C623 C625 1.388 . S
C624 C623 1.366 . S
C624 C628 1.385 . S
C625 H600 0.951 . S
C625 C623 1.388 . S
C625 C626 1.366 . S
C626 C625 1.366 . S
C626 C627 1.414 . S
C626 C629 1.499 . S
C627 H601 0.950 . S
C627 C626 1.414 . S
C627 C628 1.374 . S
C628 H602 0.950 . S
C628 C624 1.385 . S
C628 C627 1.374 . S
C629 C626 1.499 . S
C629 C630 1.373 . S
C629 C631 1.389 . S
C630 H603 0.950 . S
C630 C616 1.377 1_655 S
C630 C629 1.373 . S
C631 C615 1.377 . S
C631 C629 1.389 . S
C631 C632 1.524 . S
C632 C631 1.524 . S
C632 C633 1.397 . S
C632 C637 1.363 . S
C633 H604 0.950 . S
C633 C632 1.397 . S
C633 C634 1.334 . S
C634 H605 0.950 . S
C634 C633 1.334 . S
C634 C635 1.287 . S
C635 C634 1.287 . S
C635 C636 1.524 . S
C635 H638 0.999 . S
C636 H606 0.950 . S
C636 C635 1.524 . S
C636 C637 1.415 . S
C637 H607 0.950 . S
C637 C632 1.363 . S
C637 C636 1.415 . S
H638 C635 0.999 . S
H639 C620 0.913 . S
H640 C658 0.951 . S
H641 C660 0.951 . S
H642 C662 0.950 . S
H643 C663 0.950 . S
H644 C665 0.950 . S
H645 C668 0.950 . S
H646 C669 0.950 . S
H647 C671 0.950 . S
H648 C672 0.950 . S
H649 C673 0.951 . S
H650 C675 0.951 . S
H651 C677 0.950 . S
H652 C678 0.950 . S
H653 C680 0.950 . S
H654 C683 0.950 . S
H655 C684 0.950 . S
H656 C686 0.950 . S
H657 C687 0.950 . S
C658 H640 0.951 . S
C658 C659 1.366 . S
C658 C660 1.388 . S
C659 C658 1.366 . S
C659 C663 1.385 . S
C660 H641 0.951 . S
C660 C658 1.388 . S
C660 C661 1.366 . S
C661 C660 1.366 . S
C661 C662 1.414 . S
C661 C664 1.499 1_545 S
C662 H642 0.950 . S
C662 C661 1.414 . S
C662 C663 1.374 . S
C663 H643 0.950 . S
C663 C659 1.385 . S
C663 C662 1.374 . S
C664 C661 1.499 1_565 S
C664 C665 1.373 . S
C664 C666 1.389 . S
C665 H644 0.950 . S
C665 C664 1.373 . S
C665 C681 1.377 . S
C666 C664 1.389 . S
C666 C667 1.524 . S
C666 C680 1.377 . S
C667 C666 1.524 . S
C667 C668 1.397 1_565 S
C667 C672 1.363 . S
C668 H645 0.950 . S
C668 C667 1.397 1_545 S
C668 C669 1.334 . S
C669 H646 0.950 . S
C669 C668 1.334 . S
C669 C670 1.287 . S
C670 C669 1.287 . S
C670 C671 1.524 1_545 S
C670 H689 0.913 . S
C671 H647 0.950 . S
C671 C670 1.524 1_565 S
C671 C672 1.415 . S
C672 H648 0.950 . S
C672 C667 1.363 . S
C672 C671 1.415 . S
C673 H649 0.951 . S
C673 C674 1.366 . S
C673 C675 1.388 . S
C674 C673 1.366 . S
C674 C678 1.385 . S
C675 H650 0.951 . S
C675 C673 1.388 . S
C675 C676 1.366 . S
C676 C675 1.366 . S
C676 C677 1.414 . S
C676 C679 1.499 . S
C677 H651 0.950 . S
C677 C676 1.414 . S
C677 C678 1.374 . S
C678 H652 0.950 . S
C678 C674 1.385 . S
C678 C677 1.374 . S
C679 C676 1.499 . S
C679 C680 1.373 . S
C679 C681 1.389 . S
C680 H653 0.950 . S
C680 C666 1.377 . S
C680 C679 1.373 . S
C681 C665 1.377 . S
C681 C679 1.389 . S
C681 C682 1.524 . S
C682 C681 1.524 . S
C682 C683 1.397 . S
C682 C687 1.363 . S
C683 H654 0.950 . S
C683 C682 1.397 . S
C683 C684 1.334 . S
C684 H655 0.950 . S
C684 C683 1.334 . S
C684 C685 1.287 . S
C685 C684 1.287 . S
C685 C686 1.524 . S
C685 H688 0.999 . S
C686 H656 0.950 . S
C686 C685 1.524 . S
C686 C687 1.415 . S
C687 H657 0.950 . S
C687 C682 1.363 . S
C687 C686 1.415 . S
H688 C685 0.999 . S
H689 C670 0.913 . S
H690 C708 0.951 . S
H691 C710 0.951 . S
H692 C712 0.950 . S
H693 C713 0.950 . S
H694 C715 0.950 . S
H695 C718 0.950 . S
H696 C719 0.950 . S
H697 C721 0.950 . S
H698 C722 0.950 . S
H699 C723 0.951 . S
H700 C725 0.951 . S
H701 C727 0.950 . S
H702 C728 0.950 . S
H703 C730 0.950 . S
H704 C733 0.950 . S
H705 C734 0.950 . S
H706 C736 0.950 . S
H707 C737 0.950 . S
C708 H690 0.951 . S
C708 C709 1.366 . S
C708 C710 1.388 . S
C709 C708 1.366 . S
C709 C713 1.385 . S
C710 H691 0.951 . S
C710 C708 1.388 . S
C710 C711 1.366 . S
C711 C710 1.366 . S
C711 C712 1.414 . S
C711 C714 1.499 . S
C712 H692 0.950 . S
C712 C711 1.414 . S
C712 C713 1.374 . S
C713 H693 0.950 . S
C713 C709 1.385 . S
C713 C712 1.374 . S
C714 C711 1.499 . S
C714 C715 1.373 . S
C714 C716 1.389 . S
C715 H694 0.950 . S
C715 C714 1.373 . S
C715 C731 1.377 . S
C716 C714 1.389 . S
C716 C717 1.524 . S
C716 C730 1.377 . S
C717 C716 1.524 . S
C717 C718 1.397 . S
C717 C722 1.363 . S
C718 H695 0.950 . S
C718 C717 1.397 . S
C718 C719 1.334 . S
C719 H696 0.950 . S
C719 C718 1.334 . S
C719 C720 1.287 . S
C720 C719 1.287 . S
C720 C721 1.524 . S
C720 H739 0.913 . S
C721 H697 0.950 . S
C721 C720 1.524 . S
C721 C722 1.415 . S
C722 H698 0.950 . S
C722 C717 1.363 . S
C722 C721 1.415 . S
C723 H699 0.951 . S
C723 C724 1.366 . S
C723 C725 1.388 . S
C724 C723 1.366 . S
C724 C728 1.385 . S
C725 H700 0.951 . S
C725 C723 1.388 . S
C725 C726 1.366 . S
C726 C725 1.366 . S
C726 C727 1.414 . S
C726 C729 1.499 . S
C727 H701 0.950 . S
C727 C726 1.414 . S
C727 C728 1.374 . S
C728 H702 0.950 . S
C728 C724 1.385 . S
C728 C727 1.374 . S
C729 C726 1.499 . S
C729 C730 1.373 . S
C729 C731 1.389 . S
C730 H703 0.950 . S
C730 C716 1.377 . S
C730 C729 1.373 . S
C731 C715 1.377 . S
C731 C729 1.389 . S
C731 C732 1.524 . S
C732 C731 1.524 . S
C732 C733 1.397 . S
C732 C737 1.363 . S
C733 H704 0.950 . S
C733 C732 1.397 . S
C733 C734 1.334 . S
C734 H705 0.950 . S
C734 C733 1.334 . S
C734 C735 1.287 . S
C735 C734 1.287 . S
C735 C736 1.524 . S
C735 H738 0.999 . S
C736 H706 0.950 . S
C736 C735 1.524 . S
C736 C737 1.415 . S
C737 H707 0.950 . S
C737 C732 1.363 . S
C737 C736 1.415 . S
H738 C735 0.999 . S
H739 C720 0.913 . S
H740 C758 0.951 . S
H741 C760 0.951 . S
H742 C762 0.946 1_545 S
H743 C763 0.950 . S
H744 C765 0.950 . S
H745 C768 0.950 . S
H746 C769 0.926 1_554 S
H747 C771 0.950 . S
H748 C772 0.950 . S
H749 C773 0.951 . S
H750 C775 0.951 . S
H751 C777 0.950 . S
H752 C778 0.950 . S
H753 C780 0.950 . S
H754 C783 0.950 . S
H755 C784 0.950 . S
H756 C786 0.950 . S
H757 C787 0.950 . S
C758 H740 0.951 . S
C758 C759 1.366 . S
C758 C760 1.388 . S
C759 C758 1.366 . S
C759 C763 1.385 . S
C760 H741 0.951 . S
C760 C758 1.388 . S
C760 C761 1.366 . S
C761 C760 1.366 . S
C761 C762 1.414 . S
C761 C764 1.499 1_565 S
C762 H742 0.946 1_565 S
C762 C761 1.414 . S
C762 C763 1.374 . S
C763 H743 0.950 . S
C763 C759 1.385 . S
C763 C762 1.374 . S
C764 C761 1.499 1_545 S
C764 C765 1.373 . S
C764 C766 1.389 . S
C765 H744 0.950 . S
C765 C764 1.373 . S
C765 C781 1.377 . S
C766 C764 1.389 . S
C766 C767 1.524 . S
C766 C780 1.377 . S
C767 C766 1.524 . S
C767 C768 1.397 . S
C767 C772 1.363 . S
C768 H745 0.950 . S
C768 C767 1.397 . S
C768 C769 1.334 . S
C769 H746 0.926 1_556 S
C769 C768 1.334 . S
C769 C770 1.287 1_545 S
C770 C769 1.287 1_565 S
C770 C771 1.524 . S
C770 H789 0.913 . S
C771 H747 0.950 . S
C771 C770 1.524 . S
C771 C772 1.415 1_565 S
C772 H748 0.950 . S
C772 C767 1.363 . S
C772 C771 1.415 1_545 S
C773 H749 0.951 . S
C773 C774 1.366 . S
C773 C775 1.388 . S
C774 C773 1.366 . S
C774 C778 1.385 . S
C775 H750 0.951 . S
C775 C773 1.388 . S
C775 C776 1.366 . S
C776 C775 1.366 . S
C776 C777 1.414 . S
C776 C779 1.499 . S
C777 H751 0.950 . S
C777 C776 1.414 . S
C777 C778 1.374 . S
C778 H752 0.950 . S
C778 C774 1.385 . S
C778 C777 1.374 . S
C779 C776 1.499 . S
C779 C780 1.373 . S
C779 C781 1.389 . S
C780 H753 0.950 . S
C780 C766 1.377 . S
C780 C779 1.373 . S
C781 C765 1.377 . S
C781 C779 1.389 . S
C781 C782 1.524 . S
C782 C781 1.524 . S
C782 C783 1.397 . S
C782 C787 1.363 . S
C783 H754 0.950 . S
C783 C782 1.397 . S
C783 C784 1.334 . S
C784 H755 0.950 . S
C784 C783 1.334 . S
C784 C785 1.287 . S
C785 C784 1.287 . S
C785 C786 1.524 . S
C785 H788 0.999 . S
C786 H756 0.950 . S
C786 C785 1.524 . S
C786 C787 1.415 . S
C787 H757 0.950 . S
C787 C782 1.363 . S
C787 C786 1.415 . S
H788 C785 0.999 . S
H789 C770 0.913 . S
H790 C808 0.951 . S
H791 C810 0.951 . S
H792 C812 0.950 . S
H793 C813 0.950 . S
H794 C815 0.950 . S
H795 C818 0.950 . S
H796 C819 0.950 . S
H797 C821 0.950 . S
H798 C822 0.950 . S
H799 C823 0.951 . S
H800 C825 0.951 . S
H801 C827 0.950 . S
H802 C828 0.950 . S
H803 C830 0.950 . S
H804 C833 0.950 . S
H805 C834 0.950 . S
H806 C836 0.950 . S
H807 C837 0.950 . S
C808 H790 0.951 . S
C808 C809 1.366 . S
C808 C810 1.388 . S
C809 C808 1.366 . S
C809 C813 1.385 . S
C810 H791 0.951 . S
C810 C808 1.388 . S
C810 C811 1.366 . S
C811 C810 1.366 . S
C811 C812 1.414 . S
C811 C814 1.499 . S
C812 H792 0.950 . S
C812 C811 1.414 . S
C812 C813 1.374 . S
C813 H793 0.950 . S
C813 C809 1.385 . S
C813 C812 1.374 . S
C814 C811 1.499 . S
C814 C815 1.373 . S
C814 C816 1.389 . S
C815 H794 0.950 . S
C815 C814 1.373 . S
C815 C831 1.377 . S
C816 C814 1.389 . S
C816 C817 1.524 . S
C816 C830 1.377 . S
C817 C816 1.524 . S
C817 C818 1.397 . S
C817 C822 1.363 . S
C818 H795 0.950 . S
C818 C817 1.397 . S
C818 C819 1.334 . S
C819 H796 0.950 . S
C819 C818 1.334 . S
C819 C820 1.287 . S
C820 C819 1.287 . S
C820 C821 1.524 . S
C820 H839 0.913 . S
C821 H797 0.950 . S
C821 C820 1.524 . S
C821 C822 1.415 . S
C822 H798 0.950 . S
C822 C817 1.363 . S
C822 C821 1.415 . S
C823 H799 0.951 . S
C823 C824 1.366 . S
C823 C825 1.388 . S
C824 C823 1.366 . S
C824 C828 1.385 . S
C825 H800 0.951 . S
C825 C823 1.388 . S
C825 C826 1.366 . S
C826 C825 1.366 . S
C826 C827 1.414 . S
C826 C829 1.499 . S
C827 H801 0.950 . S
C827 C826 1.414 . S
C827 C828 1.374 . S
C828 H802 0.950 . S
C828 C824 1.385 . S
C828 C827 1.374 . S
C829 C826 1.499 . S
C829 C830 1.373 . S
C829 C831 1.389 . S
C830 H803 0.950 . S
C830 C816 1.377 . S
C830 C829 1.373 . S
C831 C815 1.377 . S
C831 C829 1.389 . S
C831 C832 1.524 . S
C832 C831 1.524 . S
C832 C833 1.397 . S
C832 C837 1.363 . S
C833 H804 0.950 . S
C833 C832 1.397 . S
C833 C834 1.334 . S
C834 H805 0.950 . S
C834 C833 1.334 . S
C834 C835 1.287 . S
C835 C834 1.287 . S
C835 C836 1.524 . S
C835 H838 0.999 . S
C836 H806 0.950 . S
C836 C835 1.524 . S
C836 C837 1.415 . S
C837 H807 0.950 . S
C837 C832 1.363 . S
C837 C836 1.415 . S
H838 C835 0.999 . S
H839 C820 0.913 . S
H840 C858 0.951 . S
H841 C860 0.951 . S
H842 C862 0.950 . S
H843 C863 0.950 . S
H844 C865 0.950 . S
H845 C868 0.950 . S
H846 C869 0.950 . S
H847 C871 0.950 . S
H848 C872 0.950 . S
H849 C873 0.951 . S
H850 C875 0.951 . S
H851 C877 0.950 . S
H852 C878 0.950 . S
H853 C880 0.950 . S
H854 C883 0.950 . S
H855 C884 0.950 . S
H856 C886 0.950 . S
H857 C887 0.950 . S
C858 H840 0.951 . S
C858 C859 1.366 . S
C858 C860 1.388 . S
C859 C858 1.366 . S
C859 C863 1.385 . S
C860 H841 0.951 . S
C860 C858 1.388 . S
C860 C861 1.366 . S
C861 C860 1.366 . S
C861 C862 1.414 . S
C861 C864 1.499 . S
C862 H842 0.950 . S
C862 C861 1.414 . S
C862 C863 1.374 . S
C863 H843 0.950 . S
C863 C859 1.385 . S
C863 C862 1.374 . S
C864 C861 1.499 . S
C864 C865 1.373 . S
C864 C866 1.389 . S
C865 H844 0.950 . S
C865 C864 1.373 . S
C865 C881 1.377 . S
C866 C864 1.389 . S
C866 C867 1.524 . S
C866 C880 1.377 . S
C867 C866 1.524 . S
C867 C868 1.397 . S
C867 C872 1.363 . S
C868 H845 0.950 . S
C868 C867 1.397 . S
C868 C869 1.334 . S
C869 H846 0.950 . S
C869 C868 1.334 . S
C869 C870 1.287 . S
C870 C869 1.287 . S
C870 C871 1.524 . S
C870 H889 0.913 . S
C871 H847 0.950 . S
C871 C870 1.524 . S
C871 C872 1.415 . S
C872 H848 0.950 . S
C872 C867 1.363 . S
C872 C871 1.415 . S
C873 H849 0.951 . S
C873 C874 1.366 . S
C873 C875 1.388 . S
C874 C873 1.366 . S
C874 C878 1.385 . S
C875 H850 0.951 . S
C875 C873 1.388 . S
C875 C876 1.366 . S
C876 C875 1.366 . S
C876 C877 1.414 . S
C876 C879 1.499 . S
C877 H851 0.950 . S
C877 C876 1.414 . S
C877 C878 1.374 . S
C878 H852 0.950 . S
C878 C874 1.385 . S
C878 C877 1.374 . S
C879 C876 1.499 . S
C879 C880 1.373 . S
C879 C881 1.389 . S
C880 H853 0.950 . S
C880 C866 1.377 . S
C880 C879 1.373 . S
C881 C865 1.377 . S
C881 C879 1.389 . S
C881 C882 1.524 . S
C882 C881 1.524 . S
C882 C883 1.397 . S
C882 C887 1.363 . S
C883 H854 0.950 . S
C883 C882 1.397 . S
C883 C884 1.334 . S
C884 H855 0.950 . S
C884 C883 1.334 . S
C884 C885 1.287 . S
C885 C884 1.287 . S
C885 C886 1.524 . S
C885 H888 0.999 . S
C886 H856 0.950 . S
C886 C885 1.524 . S
C886 C887 1.415 . S
C887 H857 0.950 . S
C887 C882 1.363 . S
C887 C886 1.415 . S
H888 C885 0.999 . S
H889 C870 0.913 . S
H890 C908 0.951 . S
H891 C910 0.951 1_655 S
H892 C912 0.950 . S
H893 C913 0.950 . S
H894 C915 0.950 . S
H895 C918 0.950 . S
H896 C919 0.950 . S
H897 C921 0.950 . S
H898 C922 0.950 . S
H899 C923 0.951 . S
H900 C925 0.951 . S
H901 C927 0.950 . S
H902 C928 0.950 . S
H903 C930 0.950 . S
H904 C933 0.950 . S
H905 C934 0.950 . S
H906 C936 0.950 . S
H907 C937 0.950 . S
C908 H890 0.951 . S
C908 C909 1.366 . S
C908 C910 1.388 . S
C909 C908 1.366 . S
C909 C913 1.385 . S
C910 H891 0.951 1_455 S
C910 C908 1.388 . S
C910 C911 1.366 . S
C911 C910 1.366 . S
C911 C912 1.414 . S
C911 C914 1.499 1_455 S
C912 H892 0.950 . S
C912 C911 1.414 . S
C912 C913 1.374 . S
C913 H893 0.950 . S
C913 C909 1.385 . S
C913 C912 1.374 . S
C914 C911 1.499 1_655 S
C914 C915 1.373 . S
C914 C916 1.389 . S
C915 H894 0.950 . S
C915 C914 1.373 . S
C915 C931 1.377 . S
C916 C914 1.389 . S
C916 C917 1.524 . S
C916 C930 1.377 . S
C917 C916 1.524 . S
C917 C918 1.397 1_655 S
C917 C922 1.363 . S
C918 H895 0.950 . S
C918 C917 1.397 1_455 S
C918 C919 1.334 . S
C919 H896 0.950 . S
C919 C918 1.334 . S
C919 C920 1.287 . S
C920 C919 1.287 . S
C920 C921 1.524 1_455 S
C920 H939 0.913 . S
C921 H897 0.950 . S
C921 C920 1.524 1_655 S
C921 C922 1.415 . S
C922 H898 0.950 . S
C922 C917 1.363 . S
C922 C921 1.415 . S
C923 H899 0.951 . S
C923 C924 1.366 . S
C923 C925 1.388 . S
C924 C923 1.366 . S
C924 C928 1.385 . S
C925 H900 0.951 . S
C925 C923 1.388 . S
C925 C926 1.366 . S
C926 C925 1.366 . S
C926 C927 1.414 . S
C926 C929 1.499 . S
C927 H901 0.950 . S
C927 C926 1.414 . S
C927 C928 1.374 . S
C928 H902 0.950 . S
C928 C924 1.385 . S
C928 C927 1.374 . S
C929 C926 1.499 . S
C929 C930 1.373 . S
C929 C931 1.389 . S
C930 H903 0.950 . S
C930 C916 1.377 . S
C930 C929 1.373 . S
C931 C915 1.377 . S
C931 C929 1.389 . S
C931 C932 1.524 . S
C932 C931 1.524 . S
C932 C933 1.397 . S
C932 C937 1.363 . S
C933 H904 0.950 . S
C933 C932 1.397 . S
C933 C934 1.334 . S
C934 H905 0.950 . S
C934 C933 1.334 . S
C934 C935 1.287 . S
C935 C934 1.287 . S
C935 C936 1.524 . S
C935 H938 0.999 . S
C936 H906 0.950 . S
C936 C935 1.524 . S
C936 C937 1.415 . S
C937 H907 0.950 . S
C937 C932 1.363 . S
C937 C936 1.415 . S
H938 C935 0.999 . S
H939 C920 0.913 . S
H940 C958 0.951 . S
H941 C960 0.951 . S
H942 C962 0.950 . S
H943 C963 0.950 . S
H944 C965 0.950 . S
H945 C968 0.950 . S
H946 C969 0.950 . S
H947 C971 0.950 . S
H948 C972 0.950 . S
H949 C973 0.951 . S
H950 C975 0.951 . S
H951 C977 0.950 . S
H952 C978 0.950 . S
H953 C980 0.950 . S
H954 C983 0.950 . S
H955 C984 0.950 . S
H956 C986 0.950 . S
H957 C987 0.950 . S
C958 H940 0.951 . S
C958 C959 1.366 . S
C958 C960 1.388 . S
C959 C958 1.366 . S
C959 C963 1.385 . S
C960 H941 0.951 . S
C960 C958 1.388 . S
C960 C961 1.366 . S
C961 C960 1.366 . S
C961 C962 1.414 . S
C961 C964 1.499 . S
C962 H942 0.950 . S
C962 C961 1.414 . S
C962 C963 1.374 . S
C963 H943 0.950 . S
C963 C959 1.385 . S
C963 C962 1.374 . S
C964 C961 1.499 . S
C964 C965 1.373 . S
C964 C966 1.389 . S
C965 H944 0.950 . S
C965 C964 1.373 . S
C965 C981 1.377 . S
C966 C964 1.389 . S
C966 C967 1.524 . S
C966 C980 1.377 . S
C967 C966 1.524 . S
C967 C968 1.397 . S
C967 C972 1.363 . S
C968 H945 0.950 . S
C968 C967 1.397 . S
C968 C969 1.334 . S
C969 H946 0.950 . S
C969 C968 1.334 . S
C969 C970 1.287 . S
C970 C969 1.287 . S
C970 C971 1.524 . S
C970 H989 0.913 . S
C971 H947 0.950 . S
C971 C970 1.524 . S
C971 C972 1.415 . S
C972 H948 0.950 . S
C972 C967 1.363 . S
C972 C971 1.415 . S
C973 H949 0.951 . S
C973 C974 1.366 . S
C973 C975 1.388 . S
C974 C973 1.366 . S
C974 C978 1.385 . S
C975 H950 0.951 . S
C975 C973 1.388 . S
C975 C976 1.366 . S
C976 C975 1.366 . S
C976 C977 1.414 . S
C976 C979 1.499 . S
C977 H951 0.950 . S
C977 C976 1.414 . S
C977 C978 1.374 . S
C978 H952 0.950 . S
C978 C974 1.385 . S
C978 C977 1.374 . S
C979 C976 1.499 . S
C979 C980 1.373 . S
C979 C981 1.389 . S
C980 H953 0.950 . S
C980 C966 1.377 . S
C980 C979 1.373 . S
C981 C965 1.377 . S
C981 C979 1.389 . S
C981 C982 1.524 . S
C982 C981 1.524 . S
C982 C983 1.397 . S
C982 C987 1.363 . S
C983 H954 0.950 . S
C983 C982 1.397 . S
C983 C984 1.334 . S
C984 H955 0.950 . S
C984 C983 1.334 . S
C984 C985 1.287 . S
C985 C984 1.287 . S
C985 C986 1.524 . S
C985 H988 0.999 . S
C986 H956 0.950 . S
C986 C985 1.524 . S
C986 C987 1.415 . S
C987 H957 0.950 . S
C987 C982 1.363 . S
C987 C986 1.415 . S
H988 C985 0.999 . S
H989 C970 0.913 . S
H990 C1008 0.951 . S
H991 C1010 0.951 . S
H992 C1012 0.950 . S
H993 C1013 0.950 . S
H994 C1015 0.950 . S
H995 C1018 0.950 . S
H996 C1019 0.950 . S
H997 C1021 0.950 . S
H998 C1022 0.950 . S
H999 C1023 0.951 . S
H1000 C1025 0.951 . S
H1001 C1027 0.950 . S
H1002 C1028 0.950 . S
H1003 C1030 0.950 . S
H1004 C1033 0.950 . S
H1005 C1034 0.950 . S
H1006 C1036 0.950 . S
H1007 C1037 0.950 . S
C1008 H990 0.951 . S
C1008 C1009 1.366 . S
C1008 C1010 1.388 . S
C1009 C1008 1.366 . S
C1009 C1013 1.385 . S
C1010 H991 0.951 . S
C1010 C1008 1.388 . S
C1010 C1011 1.366 . S
C1011 C1010 1.366 . S
C1011 C1012 1.414 . S
C1011 C1014 1.499 . S
C1012 H992 0.950 . S
C1012 C1011 1.414 . S
C1012 C1013 1.374 . S
C1013 H993 0.950 . S
C1013 C1009 1.385 . S
C1013 C1012 1.374 . S
C1014 C1011 1.499 . S
C1014 C1015 1.373 1_655 S
C1014 C1016 1.389 . S
C1015 H994 0.950 . S
C1015 C1014 1.373 1_455 S
C1015 C1031 1.377 . S
C1016 C1014 1.389 . S
C1016 C1017 1.524 . S
C1016 C1030 1.377 1_655 S
C1017 C1016 1.524 . S
C1017 C1018 1.397 . S
C1017 C1022 1.363 . S
C1018 H995 0.950 . S
C1018 C1017 1.397 . S
C1018 C1019 1.334 . S
C1019 H996 0.950 . S
C1019 C1018 1.334 . S
C1019 C1020 1.287 . S
C1020 C1019 1.287 . S
C1020 C1021 1.524 . S
C1020 H1039 0.913 . S
C1021 H997 0.950 . S
C1021 C1020 1.524 . S
C1021 C1022 1.415 . S
C1022 H998 0.950 . S
C1022 C1017 1.363 . S
C1022 C1021 1.415 . S
C1023 H999 0.951 . S
C1023 C1024 1.366 . S
C1023 C1025 1.388 . S
C1024 C1023 1.366 . S
C1024 C1028 1.385 . S
C1025 H1000 0.951 . S
C1025 C1023 1.388 . S
C1025 C1026 1.366 . S
C1026 C1025 1.366 . S
C1026 C1027 1.414 . S
C1026 C1029 1.499 . S
C1027 H1001 0.950 . S
C1027 C1026 1.414 . S
C1027 C1028 1.374 . S
C1028 H1002 0.950 . S
C1028 C1024 1.385 . S
C1028 C1027 1.374 . S
C1029 C1026 1.499 . S
C1029 C1030 1.373 . S
C1029 C1031 1.389 . S
C1030 H1003 0.950 . S
C1030 C1016 1.377 1_455 S
C1030 C1029 1.373 . S
C1031 C1015 1.377 . S
C1031 C1029 1.389 . S
C1031 C1032 1.524 . S
C1032 C1031 1.524 . S
C1032 C1033 1.397 . S
C1032 C1037 1.363 . S
C1033 H1004 0.950 . S
C1033 C1032 1.397 . S
C1033 C1034 1.334 . S
C1034 H1005 0.950 . S
C1034 C1033 1.334 . S
C1034 C1035 1.287 . S
C1035 C1034 1.287 . S
C1035 C1036 1.524 . S
C1035 H1038 0.999 . S
C1036 H1006 0.950 . S
C1036 C1035 1.524 . S
C1036 C1037 1.415 . S
C1037 H1007 0.950 . S
C1037 C1032 1.363 . S
C1037 C1036 1.415 . S
H1038 C1035 0.999 . S
H1039 C1020 0.913 . S
H1040 C1058 0.951 . S
H1041 C1060 0.951 . S
H1042 C1062 0.950 . S
H1043 C1063 0.950 . S
H1044 C1065 0.950 . S
H1045 C1068 0.950 . S
H1046 C1069 0.950 . S
H1047 C1071 0.950 . S
H1048 C1072 0.950 . S
H1049 C1073 0.951 . S
H1050 C1075 0.951 . S
H1051 C1077 0.950 . S
H1052 C1078 0.950 . S
H1053 C1080 0.950 . S
H1054 C1083 0.950 . S
H1055 C1084 0.950 . S
H1056 C1086 0.950 . S
H1057 C1087 0.950 . S
C1058 H1040 0.951 . S
C1058 C1059 1.366 . S
C1058 C1060 1.388 . S
C1059 C1058 1.366 . S
C1059 C1063 1.385 . S
C1060 H1041 0.951 . S
C1060 C1058 1.388 . S
C1060 C1061 1.366 . S
C1061 C1060 1.366 . S
C1061 C1062 1.414 . S
C1061 C1064 1.499 . S
C1062 H1042 0.950 . S
C1062 C1061 1.414 . S
C1062 C1063 1.374 . S
C1063 H1043 0.950 . S
C1063 C1059 1.385 . S
C1063 C1062 1.374 . S
C1064 C1061 1.499 . S
C1064 C1065 1.373 . S
C1064 C1066 1.389 . S
C1065 H1044 0.950 . S
C1065 C1064 1.373 . S
C1065 C1081 1.377 . S
C1066 C1064 1.389 . S
C1066 C1067 1.524 . S
C1066 C1080 1.377 . S
C1067 C1066 1.524 . S
C1067 C1068 1.397 . S
C1067 C1072 1.363 . S
C1068 H1045 0.950 . S
C1068 C1067 1.397 . S
C1068 C1069 1.334 . S
C1069 H1046 0.950 . S
C1069 C1068 1.334 . S
C1069 C1070 1.287 . S
C1070 C1069 1.287 . S
C1070 C1071 1.524 . S
C1070 H1089 0.913 . S
C1071 H1047 0.950 . S
C1071 C1070 1.524 . S
C1071 C1072 1.415 . S
C1072 H1048 0.950 . S
C1072 C1067 1.363 . S
C1072 C1071 1.415 . S
C1073 H1049 0.951 . S
C1073 C1074 1.366 . S
C1073 C1075 1.388 . S
C1074 C1073 1.366 . S
C1074 C1078 1.385 . S
C1075 H1050 0.951 . S
C1075 C1073 1.388 . S
C1075 C1076 1.366 . S
C1076 C1075 1.366 . S
C1076 C1077 1.414 . S
C1076 C1079 1.499 . S
C1077 H1051 0.950 . S
C1077 C1076 1.414 . S
C1077 C1078 1.374 . S
C1078 H1052 0.950 . S
C1078 C1074 1.385 . S
C1078 C1077 1.374 . S
C1079 C1076 1.499 . S
C1079 C1080 1.373 . S
C1079 C1081 1.389 . S
C1080 H1053 0.950 . S
C1080 C1066 1.377 . S
C1080 C1079 1.373 . S
C1081 C1065 1.377 . S
C1081 C1079 1.389 . S
C1081 C1082 1.524 . S
C1082 C1081 1.524 . S
C1082 C1083 1.397 . S
C1082 C1087 1.363 . S
C1083 H1054 0.950 . S
C1083 C1082 1.397 . S
C1083 C1084 1.334 . S
C1084 H1055 0.950 . S
C1084 C1083 1.334 . S
C1084 C1085 1.287 . S
C1085 C1084 1.287 . S
C1085 C1086 1.524 . S
C1085 H1088 0.999 . S
C1086 H1056 0.950 . S
C1086 C1085 1.524 . S
C1086 C1087 1.415 . S
C1087 H1057 0.950 . S
C1087 C1082 1.363 . S
C1087 C1086 1.415 . S
H1088 C1085 0.999 . S
H1089 C1070 0.913 . S
H1090 C1108 0.951 . S
H1091 C1110 0.951 . S
H1092 C1112 0.950 . S
H1093 C1113 0.950 . S
H1094 C1115 0.950 . S
H1095 C1118 0.950 . S
H1096 C1119 0.950 . S
H1097 C1121 0.950 . S
H1098 C1122 0.950 . S
H1099 C1123 0.951 . S
H1100 C1125 0.951 . S
H1101 C1127 0.950 . S
H1102 C1128 0.950 . S
H1103 C1130 0.950 . S
H1104 C1133 0.950 . S
H1105 C1134 0.950 . S
H1106 C1136 0.950 . S
H1107 C1137 0.950 . S
C1108 H1090 0.951 . S
C1108 C1109 1.366 . S
C1108 C1110 1.388 . S
C1109 C1108 1.366 . S
C1109 C1113 1.385 . S
C1110 H1091 0.951 . S
C1110 C1108 1.388 . S
C1110 C1111 1.366 . S
C1111 C1110 1.366 . S
C1111 C1112 1.414 . S
C1111 C1114 1.499 . S
C1112 H1092 0.950 . S
C1112 C1111 1.414 . S
C1112 C1113 1.374 . S
C1113 H1093 0.950 . S
C1113 C1109 1.385 . S
C1113 C1112 1.374 . S
C1114 C1111 1.499 . S
C1114 C1115 1.373 . S
C1114 C1116 1.389 . S
C1115 H1094 0.950 . S
C1115 C1114 1.373 . S
C1115 C1131 1.377 . S
C1116 C1114 1.389 . S
C1116 C1117 1.524 . S
C1116 C1130 1.377 . S
C1117 C1116 1.524 . S
C1117 C1118 1.397 . S
C1117 C1122 1.363 . S
C1118 H1095 0.950 . S
C1118 C1117 1.397 . S
C1118 C1119 1.334 . S
C1119 H1096 0.950 . S
C1119 C1118 1.334 . S
C1119 C1120 1.287 . S
C1120 C1119 1.287 . S
C1120 C1121 1.524 . S
C1120 H1139 0.913 . S
C1121 H1097 0.950 . S
C1121 C1120 1.524 . S
C1121 C1122 1.415 . S
C1122 H1098 0.950 . S
C1122 C1117 1.363 . S
C1122 C1121 1.415 . S
C1123 H1099 0.951 . S
C1123 C1124 1.366 . S
C1123 C1125 1.388 . S
C1124 C1123 1.366 . S
C1124 C1128 1.385 . S
C1125 H1100 0.951 . S
C1125 C1123 1.388 . S
C1125 C1126 1.366 . S
C1126 C1125 1.366 . S
C1126 C1127 1.414 . S
C1126 C1129 1.499 . S
C1127 H1101 0.950 . S
C1127 C1126 1.414 . S
C1127 C1128 1.374 . S
C1128 H1102 0.950 . S
C1128 C1124 1.385 . S
C1128 C1127 1.374 . S
C1129 C1126 1.499 . S
C1129 C1130 1.373 . S
C1129 C1131 1.389 . S
C1130 H1103 0.950 . S
C1130 C1116 1.377 . S
C1130 C1129 1.373 . S
C1131 C1115 1.377 . S
C1131 C1129 1.389 . S
C1131 C1132 1.524 . S
C1132 C1131 1.524 . S
C1132 C1133 1.397 . S
C1132 C1137 1.363 . S
C1133 H1104 0.950 . S
C1133 C1132 1.397 . S
C1133 C1134 1.334 . S
C1134 H1105 0.950 . S
C1134 C1133 1.334 . S
C1134 C1135 1.287 . S
C1135 C1134 1.287 . S
C1135 C1136 1.524 . S
C1135 H1138 0.999 . S
C1136 H1106 0.950 . S
C1136 C1135 1.524 . S
C1136 C1137 1.415 . S
C1137 H1107 0.950 . S
C1137 C1132 1.363 . S
C1137 C1136 1.415 . S
H1138 C1135 0.999 . S
H1139 C1120 0.913 . S
H1140 C1158 0.951 . S
H1141 C1160 0.951 . S
H1142 C1162 0.950 . S
H1143 C1163 0.950 . S
H1144 C1165 0.950 . S
H1145 C1168 0.950 . S
H1146 C1169 0.950 . S
H1147 C1171 0.950 . S
H1148 C1172 0.950 . S
H1149 C1173 0.951 . S
H1150 C1175 0.951 . S
H1151 C1177 0.950 . S
H1152 C1178 0.950 . S
H1153 C1180 0.950 . S
H1154 C1183 0.950 . S
H1155 C1184 0.950 . S
H1156 C1186 0.950 . S
H1157 C1187 0.950 . S
C1158 H1140 0.951 . S
C1158 C1159 1.366 . S
C1158 C1160 1.388 . S
C1159 C1158 1.366 . S
C1159 C1163 1.385 . S
C1160 H1141 0.951 . S
C1160 C1158 1.388 . S
C1160 C1161 1.366 . S
C1161 C1160 1.366 . S
C1161 C1162 1.414 . S
C1161 C1164 1.499 . S
C1162 H1142 0.950 . S
C1162 C1161 1.414 . S
C1162 C1163 1.374 . S
C1163 H1143 0.950 . S
C1163 C1159 1.385 . S
C1163 C1162 1.374 . S
C1164 C1161 1.499 . S
C1164 C1165 1.373 . S
C1164 C1166 1.389 . S
C1165 H1144 0.950 . S
C1165 C1164 1.373 . S
C1165 C1181 1.377 . S
C1166 C1164 1.389 . S
C1166 C1167 1.524 . S
C1166 C1180 1.377 . S
C1167 C1166 1.524 . S
C1167 C1168 1.397 . S
C1167 C1172 1.363 . S
C1168 H1145 0.950 . S
C1168 C1167 1.397 . S
C1168 C1169 1.334 . S
C1169 H1146 0.950 . S
C1169 C1168 1.334 . S
C1169 C1170 1.287 . S
C1170 C1169 1.287 . S
C1170 C1171 1.524 . S
C1170 H1189 0.913 . S
C1171 H1147 0.950 . S
C1171 C1170 1.524 . S
C1171 C1172 1.415 . S
C1172 H1148 0.950 . S
C1172 C1167 1.363 . S
C1172 C1171 1.415 . S
C1173 H1149 0.951 . S
C1173 C1174 1.366 . S
C1173 C1175 1.388 . S
C1174 C1173 1.366 . S
C1174 C1178 1.385 . S
C1175 H1150 0.951 . S
C1175 C1173 1.388 . S
C1175 C1176 1.366 . S
C1176 C1175 1.366 . S
C1176 C1177 1.414 . S
C1176 C1179 1.499 . S
C1177 H1151 0.950 . S
C1177 C1176 1.414 . S
C1177 C1178 1.374 . S
C1178 H1152 0.950 . S
C1178 C1174 1.385 . S
C1178 C1177 1.374 . S
C1179 C1176 1.499 . S
C1179 C1180 1.373 . S
C1179 C1181 1.389 . S
C1180 H1153 0.950 . S
C1180 C1166 1.377 . S
C1180 C1179 1.373 . S
C1181 C1165 1.377 . S
C1181 C1179 1.389 . S
C1181 C1182 1.524 . S
C1182 C1181 1.524 . S
C1182 C1183 1.397 . S
C1182 C1187 1.363 . S
C1183 H1154 0.950 . S
C1183 C1182 1.397 . S
C1183 C1184 1.334 . S
C1184 H1155 0.950 . S
C1184 C1183 1.334 . S
C1184 C1185 1.287 . S
C1185 C1184 1.287 . S
C1185 C1186 1.524 . S
C1185 H1188 0.999 . S
C1186 H1156 0.950 . S
C1186 C1185 1.524 . S
C1186 C1187 1.415 . S
C1187 H1157 0.950 . S
C1187 C1182 1.363 . S
C1187 C1186 1.415 . S
H1188 C1185 0.999 . S
H1189 C1170 0.913 . S
H1190 C1208 0.951 . S
H1191 C1210 0.951 . S
H1192 C1212 0.950 . S
H1193 C1213 0.950 . S
H1194 C1215 0.950 . S
H1195 C1218 0.950 . S
H1196 C1219 0.950 . S
H1197 C1221 0.950 . S
H1198 C1222 0.950 . S
H1199 C1223 0.951 . S
H1200 C1225 0.951 . S
H1201 C1227 0.950 . S
H1202 C1228 0.950 . S
H1203 C1230 0.950 . S
H1204 C1233 0.950 . S
H1205 C1234 0.950 . S
H1206 C1236 0.950 . S
H1207 C1237 0.950 . S
C1208 H1190 0.951 . S
C1208 C1209 1.366 . S
C1208 C1210 1.388 . S
C1209 C1208 1.366 . S
C1209 C1213 1.385 . S
C1210 H1191 0.951 . S
C1210 C1208 1.388 . S
C1210 C1211 1.366 . S
C1211 C1210 1.366 . S
C1211 C1212 1.414 . S
C1211 C1214 1.499 . S
C1212 H1192 0.950 . S
C1212 C1211 1.414 . S
C1212 C1213 1.374 . S
C1213 H1193 0.950 . S
C1213 C1209 1.385 . S
C1213 C1212 1.374 . S
C1214 C1211 1.499 . S
C1214 C1215 1.373 . S
C1214 C1216 1.389 . S
C1215 H1194 0.950 . S
C1215 C1214 1.373 . S
C1215 C1231 1.377 . S
C1216 C1214 1.389 . S
C1216 C1217 1.524 . S
C1216 C1230 1.377 . S
C1217 C1216 1.524 . S
C1217 C1218 1.397 . S
C1217 C1222 1.363 . S
C1218 H1195 0.950 . S
C1218 C1217 1.397 . S
C1218 C1219 1.334 . S
C1219 H1196 0.950 . S
C1219 C1218 1.334 . S
C1219 C1220 1.287 . S
C1220 C1219 1.287 . S
C1220 C1221 1.524 . S
C1220 H1239 0.913 . S
C1221 H1197 0.950 . S
C1221 C1220 1.524 . S
C1221 C1222 1.415 . S
C1222 H1198 0.950 . S
C1222 C1217 1.363 . S
C1222 C1221 1.415 . S
C1223 H1199 0.951 . S
C1223 C1224 1.366 . S
C1223 C1225 1.388 . S
C1224 C1223 1.366 . S
C1224 C1228 1.385 . S
C1225 H1200 0.951 . S
C1225 C1223 1.388 . S
C1225 C1226 1.366 . S
C1226 C1225 1.366 . S
C1226 C1227 1.414 . S
C1226 C1229 1.499 . S
C1227 H1201 0.950 . S
C1227 C1226 1.414 . S
C1227 C1228 1.374 . S
C1228 H1202 0.950 . S
C1228 C1224 1.385 . S
C1228 C1227 1.374 . S
C1229 C1226 1.499 . S
C1229 C1230 1.373 . S
C1229 C1231 1.389 . S
C1230 H1203 0.950 . S
C1230 C1216 1.377 . S
C1230 C1229 1.373 . S
C1231 C1215 1.377 . S
C1231 C1229 1.389 . S
C1231 C1232 1.524 . S
C1232 C1231 1.524 . S
C1232 C1233 1.397 . S
C1232 C1237 1.363 . S
C1233 H1204 0.950 . S
C1233 C1232 1.397 . S
C1233 C1234 1.334 . S
C1234 H1205 0.950 . S
C1234 C1233 1.334 . S
C1234 C1235 1.287 . S
C1235 C1234 1.287 . S
C1235 C1236 1.524 . S
C1235 H1238 0.999 . S
C1236 H1206 0.950 . S
C1236 C1235 1.524 . S
C1236 C1237 1.415 . S
C1237 H1207 0.950 . S
C1237 C1232 1.363 . S
C1237 C1236 1.415 . S
H1238 C1235 0.999 . S
H1239 C1220 0.913 . S
H1240 C1258 0.951 . S
H1241 C1260 0.951 . S
H1242 C1262 0.950 . S
H1243 C1263 0.950 . S
H1244 C1265 0.950 . S
H1245 C1268 0.950 . S
H1246 C1269 0.950 . S
H1247 C1271 0.950 . S
H1248 C1272 0.950 . S
H1249 C1273 0.951 . S
H1250 C1275 0.951 . S
H1251 C1277 0.950 . S
H1252 C1278 0.950 . S
H1253 C1280 0.950 . S
H1254 C1283 0.950 . S
H1255 C1284 0.950 . S
H1256 C1286 0.950 . S
H1257 C1287 0.950 . S
C1258 H1240 0.951 . S
C1258 C1259 1.366 . S
C1258 C1260 1.388 . S
C1259 C1258 1.366 . S
C1259 C1263 1.385 . S
C1260 H1241 0.951 . S
C1260 C1258 1.388 . S
C1260 C1261 1.366 . S
C1261 C1260 1.366 . S
C1261 C1262 1.414 . S
C1261 C1264 1.499 . S
C1262 H1242 0.950 . S
C1262 C1261 1.414 . S
C1262 C1263 1.374 . S
C1263 H1243 0.950 . S
C1263 C1259 1.385 . S
C1263 C1262 1.374 . S
C1264 C1261 1.499 . S
C1264 C1265 1.373 . S
C1264 C1266 1.389 . S
C1265 H1244 0.950 . S
C1265 C1264 1.373 . S
C1265 C1281 1.377 . S
C1266 C1264 1.389 . S
C1266 C1267 1.524 . S
C1266 C1280 1.377 . S
C1267 C1266 1.524 . S
C1267 C1268 1.397 . S
C1267 C1272 1.363 . S
C1268 H1245 0.950 . S
C1268 C1267 1.397 . S
C1268 C1269 1.334 . S
C1269 H1246 0.950 . S
C1269 C1268 1.334 . S
C1269 C1270 1.287 . S
C1270 C1269 1.287 . S
C1270 C1271 1.524 . S
C1270 H1289 0.913 . S
C1271 H1247 0.950 . S
C1271 C1270 1.524 . S
C1271 C1272 1.415 . S
C1272 H1248 0.950 . S
C1272 C1267 1.363 . S
C1272 C1271 1.415 . S
C1273 H1249 0.951 . S
C1273 C1274 1.366 . S
C1273 C1275 1.388 . S
C1274 C1273 1.366 . S
C1274 C1278 1.385 . S
C1275 H1250 0.951 . S
C1275 C1273 1.388 . S
C1275 C1276 1.366 . S
C1276 C1275 1.366 . S
C1276 C1277 1.414 . S
C1276 C1279 1.499 . S
C1277 H1251 0.950 . S
C1277 C1276 1.414 . S
C1277 C1278 1.374 . S
C1278 H1252 0.950 . S
C1278 C1274 1.385 . S
C1278 C1277 1.374 . S
C1279 C1276 1.499 . S
C1279 C1280 1.373 . S
C1279 C1281 1.389 . S
C1280 H1253 0.950 . S
C1280 C1266 1.377 . S
C1280 C1279 1.373 . S
C1281 C1265 1.377 . S
C1281 C1279 1.389 . S
C1281 C1282 1.524 . S
C1282 C1281 1.524 . S
C1282 C1283 1.397 . S
C1282 C1287 1.363 . S
C1283 H1254 0.950 . S
C1283 C1282 1.397 . S
C1283 C1284 1.334 . S
C1284 H1255 0.950 . S
C1284 C1283 1.334 . S
C1284 C1285 1.287 . S
C1285 C1284 1.287 . S
C1285 C1286 1.524 . S
C1285 H1288 0.999 . S
C1286 H1256 0.950 . S
C1286 C1285 1.524 . S
C1286 C1287 1.415 . S
C1287 H1257 0.950 . S
C1287 C1282 1.363 . S
C1287 C1286 1.415 . S
H1288 C1285 0.999 . S
H1289 C1270 0.913 . S
H1290 C1308 0.951 . S
H1291 C1310 0.951 . S
H1292 C1312 0.950 . S
H1293 C1313 0.950 . S
H1294 C1315 0.950 . S
H1295 C1318 0.950 . S
H1296 C1319 0.950 . S
H1297 C1321 0.950 . S
H1298 C1322 0.950 . S
H1299 C1323 0.951 . S
H1300 C1325 0.951 . S
H1301 C1327 0.950 . S
H1302 C1328 0.950 . S
H1303 C1330 0.950 . S
H1304 C1333 0.950 . S
H1305 C1334 0.950 . S
H1306 C1336 0.950 . S
H1307 C1337 0.950 . S
C1308 H1290 0.951 . S
C1308 C1309 1.366 . S
C1308 C1310 1.388 . S
C1309 C1308 1.366 . S
C1309 C1313 1.385 . S
C1310 H1291 0.951 . S
C1310 C1308 1.388 . S
C1310 C1311 1.366 . S
C1311 C1310 1.366 . S
C1311 C1312 1.414 . S
C1311 C1314 1.499 . S
C1312 H1292 0.950 . S
C1312 C1311 1.414 . S
C1312 C1313 1.374 . S
C1313 H1293 0.950 . S
C1313 C1309 1.385 . S
C1313 C1312 1.374 . S
C1314 C1311 1.499 . S
C1314 C1315 1.373 . S
C1314 C1316 1.389 . S
C1315 H1294 0.950 . S
C1315 C1314 1.373 . S
C1315 C1331 1.377 . S
C1316 C1314 1.389 . S
C1316 C1317 1.524 . S
C1316 C1330 1.377 . S
C1317 C1316 1.524 . S
C1317 C1318 1.397 . S
C1317 C1322 1.363 . S
C1318 H1295 0.950 . S
C1318 C1317 1.397 . S
C1318 C1319 1.334 . S
C1319 H1296 0.950 . S
C1319 C1318 1.334 . S
C1319 C1320 1.287 . S
C1320 C1319 1.287 . S
C1320 C1321 1.524 . S
C1320 H1339 0.913 . S
C1321 H1297 0.950 . S
C1321 C1320 1.524 . S
C1321 C1322 1.415 . S
C1322 H1298 0.950 . S
C1322 C1317 1.363 . S
C1322 C1321 1.415 . S
C1323 H1299 0.951 . S
C1323 C1324 1.366 . S
C1323 C1325 1.388 . S
C1324 C1323 1.366 . S
C1324 C1328 1.385 . S
C1325 H1300 0.951 . S
C1325 C1323 1.388 . S
C1325 C1326 1.366 . S
C1326 C1325 1.366 . S
C1326 C1327 1.414 . S
C1326 C1329 1.499 . S
C1327 H1301 0.950 . S
C1327 C1326 1.414 . S
C1327 C1328 1.374 . S
C1328 H1302 0.950 . S
C1328 C1324 1.385 . S
C1328 C1327 1.374 . S
C1329 C1326 1.499 . S
C1329 C1330 1.373 . S
C1329 C1331 1.389 . S
C1330 H1303 0.950 . S
C1330 C1316 1.377 . S
C1330 C1329 1.373 . S
C1331 C1315 1.377 . S
C1331 C1329 1.389 . S
C1331 C1332 1.524 . S
C1332 C1331 1.524 . S
C1332 C1333 1.397 . S
C1332 C1337 1.363 . S
C1333 H1304 0.950 . S
C1333 C1332 1.397 . S
C1333 C1334 1.334 . S
C1334 H1305 0.950 . S
C1334 C1333 1.334 . S
C1334 C1335 1.287 . S
C1335 C1334 1.287 . S
C1335 C1336 1.524 . S
C1335 H1338 0.999 . S
C1336 H1306 0.950 . S
C1336 C1335 1.524 . S
C1336 C1337 1.415 . S
C1337 H1307 0.950 . S
C1337 C1332 1.363 . S
C1337 C1336 1.415 . S
H1338 C1335 0.999 . S
H1339 C1320 0.913 . S
H1340 C1358 0.951 . S
H1341 C1360 0.951 . S
H1342 C1362 0.950 . S
H1343 C1363 0.950 . S
H1344 C1365 0.950 . S
H1345 C1368 0.950 . S
H1346 C1369 0.950 . S
H1347 C1371 0.950 . S
H1348 C1372 0.950 . S
H1349 C1373 0.951 . S
H1350 C1375 0.951 . S
H1351 C1377 0.950 . S
H1352 C1378 0.950 . S
H1353 C1380 0.950 . S
H1354 C1383 0.950 . S
H1355 C1384 0.950 . S
H1356 C1386 0.950 . S
H1357 C1387 0.950 . S
C1358 H1340 0.951 . S
C1358 C1359 1.366 . S
C1358 C1360 1.388 . S
C1359 C1358 1.366 . S
C1359 C1363 1.385 . S
C1360 H1341 0.951 . S
C1360 C1358 1.388 . S
C1360 C1361 1.366 . S
C1361 C1360 1.366 . S
C1361 C1362 1.414 . S
C1361 C1364 1.499 . S
C1362 H1342 0.950 . S
C1362 C1361 1.414 . S
C1362 C1363 1.374 . S
C1363 H1343 0.950 . S
C1363 C1359 1.385 . S
C1363 C1362 1.374 . S
C1364 C1361 1.499 . S
C1364 C1365 1.373 . S
C1364 C1366 1.389 . S
C1365 H1344 0.950 . S
C1365 C1364 1.373 . S
C1365 C1381 1.377 . S
C1366 C1364 1.389 . S
C1366 C1367 1.524 . S
C1366 C1380 1.377 . S
C1367 C1366 1.524 . S
C1367 C1368 1.397 . S
C1367 C1372 1.363 . S
C1368 H1345 0.950 . S
C1368 C1367 1.397 . S
C1368 C1369 1.334 . S
C1369 H1346 0.950 . S
C1369 C1368 1.334 . S
C1369 C1370 1.287 . S
C1370 C1369 1.287 . S
C1370 C1371 1.524 . S
C1370 H1389 0.913 . S
C1371 H1347 0.950 . S
C1371 C1370 1.524 . S
C1371 C1372 1.415 . S
C1372 H1348 0.950 . S
C1372 C1367 1.363 . S
C1372 C1371 1.415 . S
C1373 H1349 0.951 . S
C1373 C1374 1.366 . S
C1373 C1375 1.388 . S
C1374 C1373 1.366 . S
C1374 C1378 1.385 . S
C1375 H1350 0.951 . S
C1375 C1373 1.388 . S
C1375 C1376 1.366 . S
C1376 C1375 1.366 . S
C1376 C1377 1.414 . S
C1376 C1379 1.499 . S
C1377 H1351 0.950 . S
C1377 C1376 1.414 . S
C1377 C1378 1.374 . S
C1378 H1352 0.950 . S
C1378 C1374 1.385 . S
C1378 C1377 1.374 . S
C1379 C1376 1.499 . S
C1379 C1380 1.373 . S
C1379 C1381 1.389 . S
C1380 H1353 0.950 . S
C1380 C1366 1.377 . S
C1380 C1379 1.373 . S
C1381 C1365 1.377 . S
C1381 C1379 1.389 . S
C1381 C1382 1.524 . S
C1382 C1381 1.524 . S
C1382 C1383 1.397 . S
C1382 C1387 1.363 . S
C1383 H1354 0.950 . S
C1383 C1382 1.397 . S
C1383 C1384 1.334 . S
C1384 H1355 0.950 . S
C1384 C1383 1.334 . S
C1384 C1385 1.287 . S
C1385 C1384 1.287 . S
C1385 C1386 1.524 . S
C1385 H1388 0.999 . S
C1386 H1356 0.950 . S
C1386 C1385 1.524 . S
C1386 C1387 1.415 . S
C1387 H1357 0.950 . S
C1387 C1382 1.363 . S
C1387 C1386 1.415 . S
H1388 C1385 0.999 . S
H1389 C1370 0.913 . S
H1390 C1408 0.951 . S
H1391 C1410 0.951 . S
H1392 C1412 0.950 . S
H1393 C1413 0.950 . S
H1394 C1415 0.950 . S
H1395 C1418 0.950 . S
H1396 C1419 0.950 1_554 S
H1397 C1421 0.950 . S
H1398 C1422 0.950 . S
H1399 C1423 0.951 . S
H1400 C1425 0.951 . S
H1401 C1427 0.950 . S
H1402 C1428 0.950 . S
H1403 C1430 0.950 . S
H1404 C1433 0.950 . S
H1405 C1434 0.950 . S
H1406 C1436 0.950 . S
H1407 C1437 0.950 . S
C1408 H1390 0.951 . S
C1408 C1409 1.366 . S
C1408 C1410 1.388 . S
C1409 C1408 1.366 . S
C1409 C1413 1.385 . S
C1410 H1391 0.951 . S
C1410 C1408 1.388 . S
C1410 C1411 1.366 . S
C1411 C1410 1.366 . S
C1411 C1412 1.414 . S
C1411 C1414 1.499 . S
C1412 H1392 0.950 . S
C1412 C1411 1.414 . S
C1412 C1413 1.374 . S
C1413 H1393 0.950 . S
C1413 C1409 1.385 . S
C1413 C1412 1.374 . S
C1414 C1411 1.499 . S
C1414 C1415 1.373 . S
C1414 C1416 1.389 . S
C1415 H1394 0.950 . S
C1415 C1414 1.373 . S
C1415 C1431 1.377 . S
C1416 C1414 1.389 . S
C1416 C1417 1.524 . S
C1416 C1430 1.377 . S
C1417 C1416 1.524 . S
C1417 C1418 1.397 . S
C1417 C1422 1.363 . S
C1418 H1395 0.950 . S
C1418 C1417 1.397 . S
C1418 C1419 1.334 . S
C1419 H1396 0.950 1_556 S
C1419 C1418 1.334 . S
C1419 C1420 1.287 . S
C1420 C1419 1.287 . S
C1420 C1421 1.524 . S
C1420 H1439 0.913 1_556 S
C1421 H1397 0.950 . S
C1421 C1420 1.524 . S
C1421 C1422 1.415 . S
C1422 H1398 0.950 . S
C1422 C1417 1.363 . S
C1422 C1421 1.415 . S
C1423 H1399 0.951 . S
C1423 C1424 1.366 . S
C1423 C1425 1.388 . S
C1424 C1423 1.366 . S
C1424 C1428 1.385 . S
C1425 H1400 0.951 . S
C1425 C1423 1.388 . S
C1425 C1426 1.366 . S
C1426 C1425 1.366 . S
C1426 C1427 1.414 . S
C1426 C1429 1.499 . S
C1427 H1401 0.950 . S
C1427 C1426 1.414 . S
C1427 C1428 1.374 . S
C1428 H1402 0.950 . S
C1428 C1424 1.385 . S
C1428 C1427 1.374 . S
C1429 C1426 1.499 . S
C1429 C1430 1.373 . S
C1429 C1431 1.389 . S
C1430 H1403 0.950 . S
C1430 C1416 1.377 . S
C1430 C1429 1.373 . S
C1431 C1415 1.377 . S
C1431 C1429 1.389 . S
C1431 C1432 1.524 . S
C1432 C1431 1.524 . S
C1432 C1433 1.397 . S
C1432 C1437 1.363 . S
C1433 H1404 0.950 . S
C1433 C1432 1.397 . S
C1433 C1434 1.334 . S
C1434 H1405 0.950 . S
C1434 C1433 1.334 . S
C1434 C1435 1.287 . S
C1435 C1434 1.287 . S
C1435 C1436 1.524 . S
C1435 H1438 0.999 . S
C1436 H1406 0.950 . S
C1436 C1435 1.524 . S
C1436 C1437 1.415 . S
C1437 H1407 0.950 . S
C1437 C1432 1.363 . S
C1437 C1436 1.415 . S
H1438 C1435 0.999 . S
H1439 C1420 0.913 1_554 S
C259 C7 1.427 . S
C274 C90 1.357 . S
C309 C37 1.441 . S
C324 C109 1.353 . S
C359 C54 1.147 . S
C374 C132 1.124 . S
C424 C151 1.183 . S
C409 C87 1.187 . S
C474 C166 1.311 . S
C459 C30 1.391 . S
C509 C51 1.196 . S
C524 C189 1.194 . S
C559 C84 1.201 . S
C574 C208 1.177 . S
C609 C10 1.402 . S
C624 C223 1.305 . S
C659 C59 1.267 . S
C674 C227 1.261 . S
C724 C170 1.092 . S
C709 C74 1.110 . S
C774 C185 1.277 . S
C759 C18 1.367 . S
C809 C32 1.496 . S
C824 C204 1.415 . S
C874 C113 1.241 . S
C859 C73 1.250 . S
C909 C15 1.501 . S
C924 C128 1.434 . S
C974 C147 1.335 . S
C959 C43 1.417 . S
C1024 C94 1.070 . S
C1009 C62 1.087 . S
C1074 C213 1.340 . S
C1059 C21 1.425 . S
C1124 C232 1.322 . S
C1109 C29 1.427 . S
C1159 C52 1.289 . S
C1174 C175 1.211 . S
C1224 C194 1.218 . S
C1209 C81 1.325 . S
C1274 C137 1.296 . S
C1259 C40 1.389 . S
C1309 C65 1.346 . S
C1324 C156 1.245 . S
C1374 C99 1.205 . S
C1359 C76 1.285 . S
C1424 C118 1.343 . S
C1409 C8 1.449 . S
