# Generated by pormake.
# Topology zzz, (3,6)-cn, num edge types: 1
# Building blocks:
#     Node 0, Type 0, BuildingBlock: QEWDON_clean_linker_0, # of connection points: 3
#     Node 1, Type 0, BuildingBlock: QEWDON_clean_linker_0, # of connection points: 3
#     Node 2, Type 0, BuildingBlock: QEWDON_clean_linker_0, # of connection points: 3
#     Node 3, Type 0, BuildingBlock: QEWDON_clean_linker_0, # of connection points: 3
#     Node 4, Type 0, BuildingBlock: QEWDON_clean_linker_0, # of connection points: 3
#     Node 5, Type 0, BuildingBlock: QEWDON_clean_linker_0, # of connection points: 3
#     Node 6, Type 0, BuildingBlock: QEWDON_clean_linker_0, # of connection points: 3
#     Node 7, Type 0, BuildingBlock: QEWDON_clean_linker_0, # of connection points: 3
#     Node 8, Type 1, BuildingBlock: CUWYAW_clean_sbu_0, # of connection points: 6
#     Node 9, Type 1, BuildingBlock: CUWYAW_clean_sbu_0, # of connection points: 6
#     Node 10, Type 1, BuildingBlock: CUWYAW_clean_sbu_0, # of connection points: 6
#     Node 11, Type 1, BuildingBlock: CUWYAW_clean_sbu_0, # of connection points: 6
#     Edge 12, Type (0, 1), BuildingBlock: UVAHIK_clean_linker_0, # of connection points: 2
#     Edge 13, Type (0, 1), BuildingBlock: UVAHIK_clean_linker_0, # of connection points: 2
#     Edge 14, Type (0, 1), BuildingBlock: UVAHIK_clean_linker_0, # of connection points: 2
#     Edge 15, Type (0, 1), BuildingBlock: UVAHIK_clean_linker_0, # of connection points: 2
#     Edge 16, Type (0, 1), BuildingBlock: UVAHIK_clean_linker_0, # of connection points: 2
#     Edge 17, Type (0, 1), BuildingBlock: UVAHIK_clean_linker_0, # of connection points: 2
#     Edge 18, Type (0, 1), BuildingBlock: UVAHIK_clean_linker_0, # of connection points: 2
#     Edge 19, Type (0, 1), BuildingBlock: UVAHIK_clean_linker_0, # of connection points: 2
#     Edge 20, Type (0, 1), BuildingBlock: UVAHIK_clean_linker_0, # of connection points: 2
#     Edge 21, Type (0, 1), BuildingBlock: UVAHIK_clean_linker_0, # of connection points: 2
#     Edge 22, Type (0, 1), BuildingBlock: UVAHIK_clean_linker_0, # of connection points: 2
#     Edge 23, Type (0, 1), BuildingBlock: UVAHIK_clean_linker_0, # of connection points: 2
#     Edge 24, Type (0, 1), BuildingBlock: UVAHIK_clean_linker_0, # of connection points: 2
#     Edge 25, Type (0, 1), BuildingBlock: UVAHIK_clean_linker_0, # of connection points: 2
#     Edge 26, Type (0, 1), BuildingBlock: UVAHIK_clean_linker_0, # of connection points: 2
#     Edge 27, Type (0, 1), BuildingBlock: UVAHIK_clean_linker_0, # of connection points: 2
#     Edge 28, Type (0, 1), BuildingBlock: UVAHIK_clean_linker_0, # of connection points: 2
#     Edge 29, Type (0, 1), BuildingBlock: UVAHIK_clean_linker_0, # of connection points: 2
#     Edge 30, Type (0, 1), BuildingBlock: UVAHIK_clean_linker_0, # of connection points: 2
#     Edge 31, Type (0, 1), BuildingBlock: UVAHIK_clean_linker_0, # of connection points: 2
#     Edge 32, Type (0, 1), BuildingBlock: UVAHIK_clean_linker_0, # of connection points: 2
#     Edge 33, Type (0, 1), BuildingBlock: UVAHIK_clean_linker_0, # of connection points: 2
#     Edge 34, Type (0, 1), BuildingBlock: UVAHIK_clean_linker_0, # of connection points: 2
#     Edge 35, Type (0, 1), BuildingBlock: UVAHIK_clean_linker_0, # of connection points: 2
# Relax obj value: 0.130
# Max RMSD: 0.135
# Mean RMSD: 0.092
data_MOF--net-zzz--node1-CUWYAW_clean_sbu_0--node2-QEWDON_clean_linker_0--edge1-UVAHIK_clean_linker_0
_symmetry_space_group_name_H-M    P1
_symmetry_Int_Tables_number       1
_symmetry_cell_setting            triclinic
loop_
_symmetry_equiv_pos_as_xyz
'x, y, z'
_cell_length_a     70.507094
_cell_length_b     70.525006
_cell_length_c     17.445684
_cell_angle_alpha  90.092057
_cell_angle_beta   89.93147
_cell_angle_gamma 89.836766
loop_
_atom_site_label
_atom_site_type_symbol
_atom_site_fract_x
_atom_site_fract_y
_atom_site_fract_z
_atom_type_partial_charge
H0 H 0.75617 0.54313 0.21075 0.0
C1 C 0.76656 0.53936 0.25379 0.0
C2 C 0.78576 0.54157 0.23581 0.0
C3 C 0.76086 0.5329 0.32676 0.0
H4 H 0.81446 0.53901 0.27683 0.0
C5 C 0.79955 0.53757 0.29115 0.0
C6 C 0.79448 0.53116 0.36399 0.0
C7 C 0.77513 0.5287 0.38185 0.0
C8 C 0.74008 0.53127 0.34506 0.0
H9 H 0.77137 0.52333 0.43791 0.0
C10 C 0.72649 0.52755 0.28698 0.0
C11 C 0.70683 0.52779 0.30289 0.0
C12 C 0.73351 0.53453 0.42015 0.0
H13 H 0.74322 0.53789 0.46614 0.0
C14 C 0.71415 0.53421 0.43674 0.0
H15 H 0.7311 0.52436 0.2292 0.0
C16 C 0.70091 0.53103 0.3788 0.0
H17 H 0.68599 0.53162 0.39333 0.0
H18 H 0.70934 0.53691 0.49469 0.0
H19 H 0.0213 0.75433 0.18434 0.0
C20 C 0.02171 0.76373 0.2334 0.0
C21 C 0.03176 0.78067 0.22644 0.0
C22 C 1.01186 0.75934 0.30164 0.0
H23 H 0.03866 0.80736 0.27803 0.0
C24 C 0.03154 0.79388 0.28605 0.0
C25 C 0.02114 0.79061 0.35304 0.0
C26 C 1.01154 0.77318 0.36126 0.0
C27 C 1.00149 0.74075 0.30844 0.0
H28 H 1.00405 0.77056 0.4143 0.0
C29 C 1.00697 0.72465 0.26451 0.0
C30 C 0.99667 0.70755 0.26779 0.0
C31 C 0.9856 0.739 0.35702 0.0
H32 H 0.98034 0.75089 0.39 0.0
C33 C 0.97578 0.72189 0.3624 0.0
H34 H 0.01935 0.72516 0.22788 0.0
C35 C 0.9812 0.70629 0.31818 0.0
H36 H 0.97293 0.69341 0.32175 0.0
H37 H 0.9636 0.72083 0.39997 0.0
H38 H 0.78492 0.99333 0.20903 0.0
C39 C 0.7744 0.99724 0.25147 0.0
C40 C 0.75525 0.99584 0.23149 0.0
C41 C 0.77987 1.00317 0.32552 0.0
H42 H 0.72643 0.99942 0.27008 0.0
C43 C 0.7413 1.00016 0.28592 0.0
C44 C 0.74612 1.00592 0.35995 0.0
C45 C 0.76542 1.00747 0.37994 0.0
C46 C 0.80057 1.00438 0.34526 0.0
H47 H 0.76902 1.01239 0.43687 0.0
C48 C 0.81443 1.00824 0.28834 0.0
C49 C 0.83401 1.00778 0.30537 0.0
C50 C 0.80679 1.00074 0.42043 0.0
H51 H 0.79685 0.99728 0.46554 0.0
C52 C 0.82609 1.00085 0.43819 0.0
H53 H 0.81009 1.01174 0.23059 0.0
C54 C 0.83959 1.00419 0.38132 0.0
H55 H 0.85445 1.00346 0.39661 0.0
H56 H 0.83063 0.99787 0.4962 0.0
H57 H 0.51258 0.7814 0.17287 0.0
C58 C 0.51334 0.77227 0.22261 0.0
C59 C 0.50188 0.75612 0.22434 0.0
C60 C 0.52616 0.77612 0.28273 0.0
H61 H 0.49533 0.73028 0.28297 0.0
C62 C 0.50351 0.74328 0.28486 0.0
C63 C 0.51677 0.746 0.34341 0.0
C64 C 0.52786 0.76262 0.34294 0.0
C65 C 0.53836 0.79358 0.27968 0.0
H66 H 0.53771 0.76488 0.38954 0.0
C67 C 0.53229 0.8102 0.24086 0.0
C68 C 0.54418 0.82621 0.23455 0.0
C69 C 0.55654 0.79358 0.31313 0.0
H70 H 0.56216 0.78113 0.34124 0.0
C71 C 0.56812 0.80956 0.30888 0.0
H72 H 0.51826 0.81088 0.21589 0.0
C73 C 0.56206 0.82571 0.26987 0.0
H74 H 0.57164 0.83764 0.26553 0.0
H75 H 0.58207 0.80928 0.3347 0.0
H76 H 0.29195 0.51113 0.18244 0.0
C77 C 0.28197 0.50967 0.13582 0.0
C78 C 0.26378 0.50303 0.15303 0.0
C79 C 0.28702 0.51504 0.06063 0.0
H80 H 0.23581 0.49776 0.10851 0.0
C81 C 0.25018 0.50202 0.09472 0.0
C82 C 0.25432 0.50784 0.01997 0.0
C83 C 0.27281 0.51421 0.0027 0.0
C84 C 0.30672 0.52247 0.04545 0.0
H85 H 0.27594 0.51834 0.94438 0.0
C86 C 0.32224 0.51749 0.09341 0.0
C87 C 0.34019 0.52608 0.08516 0.0
C88 C 0.31003 0.53556 0.98607 0.0
H89 H 0.29871 0.54027 0.94888 0.0
C90 C 0.32799 0.54342 0.97528 0.0
H91 H 0.32053 0.50693 0.13772 0.0
C92 C 0.3429 0.5389 0.02461 0.0
H93 H 0.35639 0.54594 0.01669 0.0
H94 H 0.33023 0.55356 0.92965 0.0
H95 H 0.0221 0.28765 0.18936 0.0
C96 C 0.02433 0.27703 0.14536 0.0
C97 C 0.02673 0.25829 0.16837 0.0
C98 C 0.02413 0.28187 0.06697 0.0
H99 H 0.03031 0.22942 0.13307 0.0
C100 C 0.02871 0.24396 0.11376 0.0
C101 C 0.02858 0.24801 0.03517 0.0
C102 C 0.02616 0.26708 0.01171 0.0
C103 C 0.02092 0.30223 0.04498 0.0
H104 H 0.02626 0.27031 0.95109 0.0
C105 C 0.02648 0.31719 0.0945 0.0
C106 C 0.02088 0.33615 0.08103 0.0
C107 C 1.01088 0.30687 0.978 0.0
H108 H 1.00607 0.29597 0.93896 0.0
C109 C 1.00612 0.32569 0.96208 0.0
H110 H 0.03505 0.31411 0.14434 0.0
C111 C 1.01079 0.34016 0.01343 0.0
H112 H 1.00593 0.3544 0.00098 0.0
H113 H 0.99817 0.32901 0.91077 0.0
H114 H 0.24924 0.02328 0.18183 0.0
C115 C 0.25912 0.02536 0.13511 0.0
C116 C 0.27734 0.03177 0.15284 0.0
C117 C 0.25386 0.02112 0.05901 0.0
H118 H 0.30518 0.03772 0.1085 0.0
C119 C 0.2908 0.03357 0.09427 0.0
C120 C 0.28647 0.02878 0.01844 0.0
C121 C 0.26792 0.02268 0.00064 0.0
C122 C 0.23404 1.01422 0.04298 0.0
H123 H 0.26459 0.01938 0.94161 0.0
C124 C 0.21867 0.01908 0.09206 0.0
C125 C 0.20052 1.01098 0.08267 0.0
C126 C 0.23044 1.0018 0.98149 0.0
H127 H 0.24166 0.99725 0.94332 0.0
C128 C 0.21231 0.99442 0.96977 0.0
H129 H 0.22066 0.02917 0.13808 0.0
C130 C 0.19752 0.99879 0.02011 0.0
H131 H 0.18388 0.99213 0.01125 0.0
H132 H 0.20983 0.98477 0.92252 0.0
H133 H 0.50006 0.25358 0.17955 0.0
C134 C 0.50003 0.26268 0.12961 0.0
C135 C 0.48952 0.27951 0.13271 0.0
C136 C 0.5113 0.25824 0.06519 0.0
H137 H 0.48301 0.30577 0.07622 0.0
C138 C 0.49028 0.29224 0.07132 0.0
C139 C 0.50208 0.28886 0.00817 0.0
C140 C 0.51238 0.27168 0.00467 0.0
C141 C 0.52303 0.24041 0.06536 0.0
H142 H 0.52127 0.26904 0.95519 0.0
C143 C 0.51708 0.22405 0.10607 0.0
C144 C 0.5289 0.20792 0.11245 0.0
C145 C 0.54084 0.23996 0.02889 0.0
H146 H 0.5463 0.2522 -0.00108 0.0
C147 C 0.55233 0.22386 0.033 0.0
H148 H 0.50323 0.22378 0.13287 0.0
C149 C 0.54654 0.20806 0.07475 0.0
H150 H 0.55619 0.19614 0.07916 0.0
H151 H 0.56607 0.22382 0.00519 0.0
C152 C 1.00105 0.04254 0.49003 0.0
Eu153 Eu 1.00703 0.02502 0.61749 0.0
C154 C 1.00976 0.06065 0.46887 0.0
C155 C 0.99942 0.0743 0.42821 0.0
C156 C 1.00618 0.09289 0.42315 0.0
C157 C 0.02316 0.09801 0.45999 0.0
C158 C 0.03386 0.08413 0.49765 0.0
C159 C 0.0273 0.06557 0.50153 0.0
C160 C 0.98286 1.01586 0.73213 0.0
C161 C 0.02196 0.05808 0.73963 0.0
C162 C 0.0301 0.99837 0.90849 0.0
Eu163 Eu 0.02604 1.01374 0.77532 0.0
C164 C 0.03699 0.97907 0.92629 0.0
C165 C 0.05412 0.97642 0.966 0.0
C166 C 0.06217 0.9583 0.97192 0.0
C167 C 0.05329 0.94266 0.93728 0.0
C168 C 0.03583 0.94523 0.90036 0.0
C169 C 0.02771 0.96318 0.89529 0.0
C170 C 0.05302 1.01603 0.66229 0.0
C171 C 1.01481 0.98087 0.64723 0.0
O172 O 1.01277 0.02815 0.4955 0.0
O173 O 0.98933 0.04366 0.54816 0.0
O174 O 0.97966 1.01205 0.66023 0.0
O175 O 0.99808 0.02515 0.73916 0.0
O176 O 1.01668 0.05323 0.66925 0.0
O177 O 0.02518 0.04537 0.79391 0.0
O178 O 1.0137 0.99935 0.8732 0.0
O179 O 0.04275 1.00995 0.87948 0.0
O180 O 0.05685 1.01202 0.73319 0.0
O181 O 0.03544 1.01868 0.65753 0.0
O182 O 1.01873 0.98538 0.71944 0.0
O183 O 1.01136 0.99387 0.5943 0.0
H184 H 0.98574 0.07083 0.40373 0.0
H185 H 0.99768 0.10347 0.39404 0.0
H186 H 0.04704 0.08775 0.5259 0.0
H187 H 0.03547 0.0553 0.53382 0.0
H188 H 0.06157 0.98843 0.99019 0.0
H189 H 0.07557 0.95658 0.0014 0.0
H190 H 0.02848 0.93331 0.87488 0.0
H191 H 1.01443 0.96462 0.86469 0.0
C192 C 0.49445 1.00757 0.46826 0.0
Eu193 Eu 0.51029 1.00952 0.60128 0.0
C194 C 0.47457 1.01276 0.45203 0.0
C195 C 0.46144 0.99848 0.43466 0.0
C196 C 0.442 1.00205 0.4407 0.0
C197 C 0.43538 0.02001 0.46365 0.0
C198 C 0.44848 0.03467 0.47522 0.0
C199 C 0.46788 0.0311 0.46963 0.0
C200 C 0.51521 0.9821 0.71016 0.0
C201 C 0.47761 0.02061 0.73043 0.0
C202 C 0.53968 0.03672 0.88324 0.0
Eu203 Eu 0.52137 0.02839 0.75959 0.0
C204 C 0.55966 0.03236 0.90081 0.0
C205 C 0.57253 0.04726 0.91161 0.0
C206 C 0.59204 0.04375 0.91123 0.0
C207 C 0.59905 0.02523 0.90055 0.0
C208 C 0.5861 1.01021 0.89373 0.0
C209 C 0.56663 1.01374 0.89347 0.0
C210 C 0.51104 0.05243 0.64555 0.0
C211 C 0.55458 1.0135 0.63617 0.0
O212 O 0.50573 0.02147 0.48766 0.0
O213 O 0.49654 0.99272 0.51239 0.0
O214 O 0.51149 0.97847 0.63872 0.0
O215 O 0.51664 0.99979 0.71753 0.0
O216 O 0.4822 1.01838 0.65707 0.0
O217 O 0.49064 0.02248 0.7845 0.0
O218 O 0.52801 0.0223 0.87908 0.0
O219 O 0.53732 0.0488 0.82714 0.0
O220 O 0.50687 0.05527 0.71735 0.0
O221 O 0.52088 0.03754 0.63894 0.0
O222 O 0.54972 0.01962 0.70568 0.0
O223 O 0.54187 1.00919 0.58303 0.0
H224 H 0.46621 0.98424 0.42123 0.0
H225 H 0.43216 0.9906 0.42967 0.0
H226 H 0.44379 0.04865 0.49302 0.0
H227 H 0.47758 0.04244 0.484 0.0
H228 H 0.56751 0.06175 0.91629 0.0
H229 H 0.60161 0.05567 0.91614 0.0
H230 H 0.59101 0.99574 0.88713 0.0
H231 H 0.55712 1.00193 0.88422 0.0
C232 C 0.53931 0.49425 0.48687 0.0
Eu233 Eu 0.53382 0.51216 0.61421 0.0
C234 C 0.52894 0.47737 0.46157 0.0
C235 C 0.53792 0.46332 0.41771 0.0
C236 C 0.52882 0.44602 0.40441 0.0
C237 C 0.51074 0.44253 0.43568 0.0
C238 C 0.50162 0.45686 0.47771 0.0
C239 C 0.51063 0.4741 0.49051 0.0
C240 C 0.55859 0.52103 0.72761 0.0
C241 C 0.51838 0.48006 0.73684 0.0
C242 C 0.51104 0.53945 0.90672 0.0
Eu243 Eu 0.51557 0.52445 0.77273 0.0
C244 C 0.50256 0.55796 0.92689 0.0
C245 C 0.48672 0.55901 0.97566 0.0
C246 C 0.4772 0.57629 0.98638 0.0
C247 C 0.48323 0.59262 0.94732 0.0
C248 C 0.49934 0.59163 0.90029 0.0
C249 C 0.50898 0.57454 0.89073 0.0
C250 C 0.48824 0.52216 0.66087 0.0
C251 C 0.52694 0.55654 0.64254 0.0
O252 O 0.52922 0.50986 0.49119 0.0
O253 O 0.54997 0.49157 0.54734 0.0
O254 O 0.56174 0.52439 0.65537 0.0
O255 O 0.54314 0.51222 0.73562 0.0
O256 O 0.52179 0.48482 0.66459 0.0
O257 O 0.5174 0.49289 0.79221 0.0
O258 O 0.52718 0.54007 0.86912 0.0
O259 O 0.49923 0.52687 0.87864 0.0
O260 O 0.48462 0.52647 0.7317 0.0
O261 O 0.50575 0.51924 0.65583 0.0
O262 O 0.52363 0.55243 0.71566 0.0
O263 O 0.52953 0.54324 0.58986 0.0
H264 H 0.55216 0.46548 0.39606 0.0
H265 H 0.53618 0.43512 0.37209 0.0
H266 H 0.48762 0.45463 0.50167 0.0
H267 H 0.50353 0.48463 0.52557 0.0
H268 H 0.48146 0.54641 0.0039 0.0
H269 H 0.46489 0.5768 0.02352 0.0
H270 H 0.50454 0.60412 0.87104 0.0
H271 H 0.52127 0.57428 0.85365 0.0
C272 C 0.04539 0.53448 0.47687 0.0
Eu273 Eu 0.02963 0.52918 0.60865 0.0
C274 C 0.06425 0.52809 0.45224 0.0
C275 C 0.07688 0.54139 0.42185 0.0
C276 C 0.09627 0.53744 0.41926 0.0
C277 C 0.10333 0.52 0.44639 0.0
C278 C 0.09044 0.50617 0.47152 0.0
C279 C 0.07109 0.51023 0.475 0.0
C280 C 0.02032 0.55514 0.71986 0.0
C281 C 0.06238 0.51705 0.73853 0.0
C282 C 1.00131 0.50485 0.90327 0.0
Eu283 Eu 1.01821 0.50909 0.77345 0.0
C284 C 0.9823 0.51216 0.92243 0.0
C285 C 0.9681 0.49939 0.94454 0.0
C286 C 0.94902 0.50474 0.94126 0.0
C287 C 0.94388 0.52299 0.91645 0.0
C288 C 0.95815 0.53615 0.89928 0.0
C289 C 0.97717 0.53075 0.90173 0.0
C290 C 0.0268 0.48301 0.66169 0.0
C291 C 0.98556 0.52106 0.64355 0.0
O292 O 0.03256 0.52133 0.48823 0.0
O293 O 0.04588 0.54709 0.532 0.0
O294 O 0.02389 0.55966 0.64918 0.0
O295 O 0.02131 0.53737 0.7243 0.0
O296 O 0.05782 0.5214 0.66643 0.0
O297 O 0.04956 0.51327 0.79232 0.0
O298 O 1.01478 0.51744 0.89317 0.0
O299 O 1.00121 0.49176 0.84994 0.0
O300 O 0.02314 0.47851 0.7324 0.0
O301 O 0.02644 0.50082 0.65748 0.0
O302 O 0.99015 0.51698 0.71571 0.0
O303 O 0.99835 0.52465 0.58956 0.0
H304 H 0.07193 0.55537 0.40547 0.0
H305 H 0.10576 0.54852 0.40032 0.0
H306 H 0.09534 0.49246 0.49125 0.0
H307 H 0.06168 0.49981 0.49995 0.0
H308 H 0.97169 0.48491 0.95952 0.0
H309 H 0.93826 0.49443 0.95595 0.0
H310 H 0.95456 0.55028 0.87972 0.0
H311 H 0.98772 0.54079 0.88257 0.0
C312 C 0.18924 1.0143 0.21942 0.0
C313 C 0.18509 1.01419 0.14052 0.0
C314 C 0.1747 1.01563 0.27407 0.0
C315 C 0.12389 0.0288 0.30154 0.0
H316 H 0.12813 0.99633 0.47975 0.0
C317 C 0.0623 0.01897 0.52265 0.0
C318 C 0.0674 1.01724 0.60013 0.0
C319 C 0.07627 0.01932 0.46506 0.0
C320 C 0.12677 1.00571 0.43096 0.0
H321 H 0.16224 1.01613 0.05777 0.0
H322 H 0.13691 1.01825 0.15302 0.0
H323 H 0.15312 0.9961 0.38366 0.0
H324 H 0.09119 1.01487 0.67804 0.0
H325 H 0.11541 1.01576 0.57878 0.0
H326 H 0.09747 0.0384 0.34925 0.0
C327 C 0.15144 1.01737 0.17267 0.0
C328 C 0.14117 1.00557 0.37563 0.0
C329 C 0.16599 1.01598 0.11794 0.0
C330 C 0.08675 1.01612 0.61883 0.0
C331 C 0.10067 1.01649 0.56166 0.0
C332 C 0.10946 0.02898 0.35716 0.0
C333 C 0.15556 1.01692 0.25158 0.0
C334 C 0.14002 1.01717 0.31027 0.0
C335 C 0.09568 1.01789 0.48377 0.0
C336 C 0.11075 1.01751 0.42299 0.0
H337 H 0.20371 1.01276 0.23925 0.0
H338 H 0.17849 1.01552 0.33421 0.0
H339 H 0.12256 0.03805 0.25236 0.0
H340 H 0.04755 0.01965 0.50639 0.0
H341 H 0.07183 0.02023 0.4058 0.0
C342 C 0.52849 0.17273 0.13916 0.0
C343 C 0.52347 0.1913 0.16115 0.0
C344 C 0.52529 0.15735 0.18814 0.0
C345 C 0.49818 0.14128 0.3582 0.0
H346 H 0.5403 0.10641 0.38316 0.0
C347 C 0.50033 0.08453 0.60016 0.0
C348 C 0.50973 0.0673 0.58553 0.0
C349 C 0.50058 0.09921 0.54598 0.0
C350 C 0.52821 0.11574 0.37614 0.0
H351 H 0.5105 0.20797 0.25188 0.0
H352 H 0.50461 0.18108 0.33666 0.0
H353 H 0.54291 0.1325 0.29301 0.0
H354 H 0.52655 0.05192 0.50197 0.0
H355 H 0.52625 0.07699 0.4064 0.0
H356 H 0.48339 0.12442 0.44098 0.0
C357 C 0.51105 0.17846 0.28124 0.0
C358 C 0.52976 0.1308 0.32438 0.0
C359 C 0.51438 0.1939 0.23238 0.0
C360 C 0.51895 0.0649 0.51475 0.0
C361 C 0.51903 0.07947 0.4603 0.0
C362 C 0.49654 0.12607 0.40962 0.0
C363 C 0.51682 0.16004 0.26038 0.0
C364 C 0.5148 0.14381 0.31475 0.0
C365 C 0.51016 0.09701 0.47553 0.0
C366 C 0.51156 0.11307 0.41951 0.0
H367 H 0.53513 0.17004 0.08417 0.0
H368 H 0.52956 0.14332 0.16953 0.0
H369 H 0.48631 0.15093 0.35173 0.0
H370 H 0.49318 0.08685 0.65435 0.0
H371 H 0.49375 0.11251 0.56054 0.0
C372 C 0.35158 0.52204 0.22128 0.0
C373 C 0.3557 0.52277 0.14238 0.0
C374 C 0.36617 0.52075 0.27559 0.0
C375 C 0.41732 0.50883 0.30115 0.0
H376 H 0.41236 0.54043 0.48204 0.0
C377 C 0.47886 0.51942 0.52147 0.0
C378 C 0.4738 0.52078 0.59919 0.0
C379 C 0.46483 0.51889 0.46426 0.0
C380 C 0.41393 0.53129 0.4325 0.0
H381 H 0.37856 0.52193 0.05916 0.0
H382 H 0.40397 0.51985 0.15383 0.0
H383 H 0.38729 0.54037 0.38655 0.0
H384 H 0.45008 0.52238 0.67793 0.0
H385 H 0.42576 0.52116 0.5793 0.0
H386 H 0.44403 0.49974 0.34751 0.0
C387 C 0.38943 0.52023 0.17374 0.0
C388 C 0.39948 0.53126 0.37751 0.0
C389 C 0.37483 0.5216 0.11937 0.0
C390 C 0.45446 0.52141 0.61852 0.0
C391 C 0.44049 0.52084 0.56171 0.0
C392 C 0.4318 0.5088 0.35646 0.0
C393 C 0.38532 0.52011 0.25273 0.0
C394 C 0.40089 0.51998 0.31116 0.0
C395 C 0.44541 0.51977 0.48358 0.0
C396 C 0.43027 0.51996 0.42323 0.0
H397 H 0.33708 0.52309 0.24143 0.0
H398 H 0.36241 0.5204 0.33578 0.0
H399 H 0.41886 0.49983 0.25115 0.0
H400 H 0.49362 0.51919 0.50476 0.0
H401 H 0.46923 0.51826 0.40482 0.0
C402 C 0.02382 0.3473 0.21848 0.0
C403 C 0.02439 0.35142 0.13952 0.0
C404 C 0.02578 0.36168 0.27339 0.0
C405 C 0.04007 0.41264 0.29914 0.0
H406 H 1.01094 0.40763 0.48657 0.0
C407 C 0.02781 0.47383 0.52151 0.0
C408 C 0.02964 0.46894 0.59911 0.0
C409 C 0.02871 0.45988 0.46402 0.0
C410 C 0.0193 0.40919 0.43484 0.0
H411 H 0.02817 0.37424 0.05754 0.0
H412 H 0.03065 0.3993 0.15277 0.0
H413 H 1.00938 0.38285 0.38986 0.0
H414 H 0.03386 0.44545 0.67728 0.0
H415 H 0.03514 0.42115 0.57767 0.0
H416 H 0.04941 0.43942 0.34412 0.0
C417 C 0.02904 0.38485 0.17252 0.0
C418 C 1.0185 0.39488 0.37923 0.0
C419 C 0.02733 0.37041 0.11751 0.0
C420 C 0.0325 0.44977 0.61796 0.0
C421 C 0.03315 0.4358 0.56088 0.0
C422 C 0.04064 0.42711 0.35452 0.0
C423 C 0.02809 0.38076 0.25146 0.0
C424 C 0.02898 0.39626 0.3106 0.0
C425 C 0.03104 0.44063 0.4832 0.0
C426 C 0.03037 0.42548 0.42331 0.0
H427 H 0.02133 0.333 0.23839 0.0
H428 H 0.02537 0.35776 0.33332 0.0
H429 H 0.04856 0.41422 0.24785 0.0
H430 H 0.02484 0.48826 0.50537 0.0
H431 H 0.02677 0.46405 0.40482 0.0
C432 C 0.84626 1.00165 0.1714 0.0
C433 C 0.84867 1.01009 0.2439 0.0
C434 C 0.86063 1.00254 0.11587 0.0
C435 C 0.90494 0.02831 0.06324 0.0
H436 H 0.91497 0.98338 0.9413 0.0
C437 C 0.97103 0.02218 0.8659 0.0
C438 C 0.96832 1.01397 0.79328 0.0
C439 C 0.95668 0.02148 0.92157 0.0
C440 C 0.91226 0.99613 0.97426 0.0
H441 H 0.868 0.02673 0.31321 0.0
H442 H 0.8931 0.02798 0.2173 0.0
H443 H 0.88926 0.98319 0.03479 0.0
H444 H 0.94855 0.9983 0.72265 0.0
H445 H 0.92353 0.99712 0.81928 0.0
H446 H 0.928 0.04122 0.00279 0.0
C447 C 0.88005 0.02075 0.20299 0.0
C448 C 0.89745 0.99604 0.02792 0.0
C449 C 0.86569 0.01985 0.25848 0.0
C450 C 0.9511 1.00472 0.77812 0.0
C451 C 0.93677 1.00398 0.83376 0.0
C452 C 0.91978 0.02839 0.00965 0.0
C453 C 0.87784 1.01191 0.13115 0.0
C454 C 0.89354 1.01213 0.07319 0.0
C455 C 0.93926 1.01251 0.90606 0.0
C456 C 0.92365 1.01231 0.9643 0.0
H457 H 0.83346 0.99386 0.15813 0.0
H458 H 0.85825 0.99581 0.06091 0.0
H459 H 0.90223 0.04108 0.09609 0.0
H460 H 0.98415 0.02942 0.87934 0.0
H461 H 0.95924 0.02797 0.97688 0.0
C462 C 0.53027 0.8409 0.11547 0.0
C463 C 0.53852 0.84313 0.18827 0.0
C464 C 0.52665 0.85668 0.06888 0.0
C465 C 0.54103 0.90709 0.04155 0.0
H466 H 0.49803 0.90789 0.90347 0.0
C467 C 0.52277 0.97181 0.84563 0.0
C468 C 0.51769 0.96734 0.76993 0.0
C469 C 0.52478 0.95742 0.90079 0.0
C470 C 0.51019 0.90786 0.94137 0.0
H471 H 0.54861 0.86387 0.27034 0.0
H472 H 0.54198 0.89136 0.18998 0.0
H473 H 0.50192 0.88155 0.99226 0.0
H474 H 0.51073 0.94428 0.69271 0.0
H475 H 0.51414 0.91938 0.78808 0.0
H476 H 0.54922 0.93349 0.99033 0.0
C477 C 0.53876 0.87739 0.16781 0.0
C478 C 0.51246 0.89269 0.99229 0.0
C479 C 0.54249 0.8616 0.21416 0.0
C480 C 0.51464 0.94824 0.7506 0.0
C481 C 0.51647 0.93394 0.8055 0.0
C482 C 0.53869 0.92234 0.99085 0.0
C483 C 0.53103 0.87517 0.09396 0.0
C484 C 0.52805 0.89192 0.04252 0.0
C485 C 0.5215 0.93829 0.88143 0.0
C486 C 0.52338 0.92279 0.93931 0.0
H487 H 0.52728 0.82688 0.09321 0.0
H488 H 0.52096 0.85428 0.01209 0.0
H489 H 0.55337 0.90696 0.07843 0.0
H490 H 0.52513 0.98636 0.86226 0.0
H491 H 0.52858 0.9613 0.95884 0.0
C492 C 0.67532 0.51582 0.25385 0.0
C493 C 0.69239 0.52559 0.24049 0.0
C494 C 0.66111 0.5151 0.1978 0.0
C495 C 0.64439 0.54005 0.02225 0.0
H496 H 0.61313 0.49533 -0.00256 0.0
C497 C 0.59069 0.53156 0.77232 0.0
C498 C 0.57324 0.52283 0.78831 0.0
C499 C 0.60505 0.53221 0.82776 0.0
C500 C 0.62157 0.50803 0.00417 0.0
H501 H 0.70789 0.54197 0.15607 0.0
H502 H 0.68341 0.54023 0.05771 0.0
H503 H 0.63882 0.49518 0.09078 0.0
H504 H 0.55702 0.50826 0.87566 0.0
H505 H 0.58203 0.50945 0.97264 0.0
H506 H 0.62718 0.55282 0.93514 0.0
C507 C 0.68083 0.53341 0.11228 0.0
C508 C 0.63636 0.50795 0.05784 0.0
C509 C 0.69504 0.53417 0.16846 0.0
C510 C 0.57033 0.51506 0.86152 0.0
C511 C 0.58473 0.51562 0.9169 0.0
C512 C 0.62965 0.54009 0.96836 0.0
C513 C 0.66355 0.52406 0.12642 0.0
C514 C 0.64799 0.52397 0.06786 0.0
C515 C 0.60236 0.52407 0.90059 0.0
C516 C 0.61799 0.5241 0.95862 0.0
H517 H 0.67281 0.50882 0.30811 0.0
H518 H 0.648 0.50788 0.21139 0.0
H519 H 0.65275 0.55279 0.02907 0.0
H520 H 0.59338 0.53766 0.71641 0.0
H521 H 0.61846 0.53868 0.81276 0.0
C522 C 1.00401 0.69434 0.13706 0.0
C523 C 1.00127 0.69132 0.21587 0.0
C524 C 1.00664 0.67901 0.08689 0.0
C525 C 0.99989 0.62636 0.07327 0.0
H526 H 0.02991 0.63252 0.88879 0.0
C527 C 0.01934 0.56494 0.8593 0.0
C528 C 1.01648 0.56917 0.78153 0.0
C529 C 1.01731 0.5791 0.91558 0.0
C530 C 0.0214 0.6306 0.93994 0.0
H531 H 0.99984 0.66982 0.30415 0.0
H532 H 1.00516 0.64313 0.21749 0.0
H533 H 0.02786 0.65841 0.98082 0.0
H534 H 1.00946 0.59161 0.70166 0.0
H535 H 1.00628 0.61626 0.79909 0.0
H536 H 0.99391 0.59824 0.03227 0.0
C537 C 1.00466 0.65728 0.1936 0.0
C538 C 0.02012 0.64552 0.99275 0.0
C539 C 1.00175 0.67261 0.2436 0.0
C540 C 1.01161 0.58783 0.7612 0.0
C541 C 1.00988 0.602 0.81697 0.0
C542 C 1.00143 0.61131 0.02084 0.0
C543 C 1.00691 0.6602 0.11418 0.0
C544 C 1.00911 0.64378 0.05983 0.0
C545 C 1.01288 0.59787 0.89478 0.0
C546 C 1.01198 0.61337 0.95301 0.0
H547 H 1.00342 0.70855 0.11366 0.0
H548 H 1.00792 0.68198 0.02626 0.0
H549 H 0.99103 0.62444 0.12335 0.0
H550 H 0.02388 0.55096 0.87636 0.0
H551 H 0.01993 0.57553 0.975 0.0
C552 C 0.04469 0.25498 0.28973 0.0
C553 C 0.02755 0.25319 0.24983 0.0
C554 C 0.0477 0.24454 0.35663 0.0
C555 C 0.02573 0.20806 0.48417 0.0
H556 H 0.06646 0.17663 0.40437 0.0
C557 C 0.03282 0.12665 0.53451 0.0
C558 C 0.02908 0.11801 0.4634 0.0
C559 C 0.03707 0.14597 0.5385 0.0
C560 C 0.05541 0.18543 0.42913 0.0
H561 H 0.99938 0.24122 0.2514 0.0
H562 H 1.00447 0.223 0.3678 0.0
H563 H 0.06468 0.20979 0.36791 0.0
H564 H 0.02761 0.12232 0.34079 0.0
H565 H 0.03565 0.156 0.34729 0.0
H566 H 1.01559 0.18291 0.53952 0.0
C567 C 1.01561 0.23246 0.34891 0.0
C568 C 0.05442 0.2045 0.40882 0.0
C569 C 1.01267 0.24278 0.2819 0.0
C570 C 0.03037 0.12873 0.39613 0.0
C571 C 0.03509 0.14787 0.39991 0.0
C572 C 0.02685 0.18897 0.50517 0.0
C573 C 0.0336 0.23218 0.38378 0.0
C574 C 0.03877 0.2156 0.43142 0.0
C575 C 0.03822 0.15667 0.47109 0.0
C576 C 0.04098 0.17732 0.47332 0.0
H577 H 0.05633 0.26296 0.26532 0.0
H578 H 0.06164 0.24468 0.3827 0.0
H579 H 1.01363 0.21636 0.50297 0.0
H580 H 0.0319 0.11857 0.58703 0.0
H581 H 0.03928 0.15257 0.59389 0.0
C582 C 0.29477 0.0504 0.25191 0.0
C583 C 0.28321 0.03491 0.23333 0.0
C584 C 0.30445 0.05085 0.32144 0.0
C585 C 0.32655 1.01491 0.43701 0.0
H586 H 0.35207 0.05912 0.51882 0.0
C587 C 0.40419 1.00966 0.51806 0.0
C588 C 0.41494 0.02323 0.47835 0.0
C589 C 0.38471 1.01223 0.52839 0.0
C590 C 0.34495 0.04658 0.4975 0.0
H591 H 0.27069 1.009 0.27673 0.0
H592 H 0.28736 1.00996 0.39909 0.0
H593 H 0.32016 0.06233 0.46595 0.0
H594 H 0.41396 0.05053 0.42164 0.0
H595 H 0.37997 0.05477 0.43736 0.0
H596 H 0.35173 0.99944 0.46269 0.0
C597 C 0.28927 0.02156 0.35925 0.0
C598 C 0.32669 0.04841 0.46736 0.0
C599 C 0.27964 0.02106 0.28931 0.0
C600 C 0.40604 0.03985 0.45254 0.0
C601 C 0.38656 0.04236 0.46239 0.0
C602 C 0.34474 1.01309 0.46725 0.0
C603 C 0.30273 0.0358 0.37385 0.0
C604 C 0.3179 0.03286 0.43164 0.0
C605 C 0.37559 0.02834 0.49856 0.0
C606 C 0.35462 0.02916 0.49271 0.0
H607 H 0.29743 0.06146 0.21027 0.0
H608 H 0.31468 0.06206 0.33031 0.0
H609 H 0.32031 1.00258 0.41006 0.0
H610 H 0.41081 0.99696 0.54058 0.0
H611 H 0.37668 1.0013 0.55735 0.0
C612 C 0.49278 0.28953 0.26797 0.0
C613 C 0.4809 0.28612 0.2051 0.0
C614 C 0.48745 0.30268 0.32384 0.0
C615 C 0.46116 0.3467 0.31022 0.0
H616 H 0.48895 0.3569 0.49723 0.0
C617 C 0.50105 0.41517 0.3539 0.0
C618 C 0.5015 0.42389 0.42607 0.0
C619 C 0.49232 0.39762 0.34466 0.0
C620 C 0.48073 0.35427 0.4459 0.0
H621 H 0.45299 0.29096 0.15759 0.0
H622 H 0.44319 0.31324 0.25739 0.0
H623 H 0.48206 0.32418 0.46113 0.0
H624 H 0.4934 0.42111 0.54555 0.0
H625 H 0.4782 0.39017 0.52931 0.0
H626 H 0.46045 0.37669 0.29357 0.0
C627 C 0.45695 0.30649 0.26209 0.0
C628 C 0.47688 0.33552 0.42492 0.0
C629 C 0.46245 0.29361 0.2053 0.0
C630 C 0.49307 0.41472 0.48904 0.0
C631 C 0.48446 0.39703 0.47992 0.0
C632 C 0.46489 0.36535 0.33142 0.0
C633 C 0.47008 0.31248 0.3178 0.0
C634 C 0.46813 0.33148 0.35427 0.0
C635 C 0.48393 0.38836 0.40749 0.0
C636 C 0.47573 0.36925 0.39685 0.0
H637 H 0.50709 0.2839 0.26896 0.0
H638 H 0.49798 0.30675 0.36583 0.0
H639 H 0.45441 0.34435 0.25534 0.0
H640 H 0.50736 0.42197 0.30445 0.0
H641 H 0.49249 0.39109 0.2884 0.0
C642 C 0.24559 0.48417 0.24921 0.0
C643 C 0.25799 0.49918 0.23324 0.0
C644 C 0.23548 0.48382 0.31785 0.0
C645 C 0.21511 0.52131 0.43213 0.0
H646 H 0.18287 0.47947 0.49247 0.0
C647 C 0.13642 0.52417 0.39722 0.0
C648 C 0.12408 0.51681 0.45284 0.0
C649 C 0.15595 0.52217 0.40522 0.0
C650 C 0.19191 0.49134 0.47818 0.0
H651 H 0.27193 0.52384 0.28164 0.0
H652 H 0.2548 0.52283 0.4027 0.0
H653 H 0.21562 0.47326 0.45414 0.0
H654 H 0.12272 0.50139 0.5605 0.0
H655 H 0.15706 0.4974 0.57285 0.0
H656 H 0.19108 0.5392 0.45188 0.0
C657 C 0.25232 0.5117 0.36107 0.0
C658 C 0.21063 0.48779 0.45569 0.0
C659 C 0.26226 0.5122 0.29177 0.0
C660 C 0.1318 0.50709 0.51614 0.0
C661 C 0.15143 0.50492 0.52376 0.0
C662 C 0.19651 0.52483 0.45501 0.0
C663 C 0.23769 0.49845 0.37213 0.0
C664 C 0.22189 0.50256 0.42626 0.0
C665 C 0.16365 0.51263 0.46865 0.0
C666 C 0.18438 0.50972 0.47235 0.0
H667 H 0.24245 0.47361 0.20588 0.0
H668 H 0.22448 0.47326 0.32397 0.0
H669 H 0.22324 0.53315 0.41057 0.0
H670 H 0.131 0.53134 0.34692 0.0
H671 H 0.16505 0.52776 0.3606 0.0
C672 C 0.02982 0.795 0.09783 0.0
C673 C 0.04085 0.78617 0.15403 0.0
C674 C 0.03839 0.80643 0.04271 0.0
C675 C 0.08017 0.83702 0.04046 0.0
H676 H 0.05251 0.85769 0.86806 0.0
C677 C 0.06691 0.9156 0.01105 0.0
C678 C 0.06174 0.9235 0.94048 0.0
C679 C 0.07173 0.89644 0.01591 0.0
C680 C 0.06088 0.85205 0.9148 0.0
H681 H 0.06938 0.78029 0.19258 0.0
H682 H 0.08462 0.79942 0.09346 0.0
H683 H 0.04765 0.82495 0.90458 0.0
H684 H 0.05924 0.91823 0.81852 0.0
H685 H 0.06826 0.88485 0.82639 0.0
H686 H 0.0934 0.86411 0.05065 0.0
C687 C 0.06932 0.79817 0.09312 0.0
C688 C 0.05785 0.83325 0.93648 0.0
C689 C 0.06067 0.78702 0.14927 0.0
C690 C 0.06291 0.91232 0.87388 0.0
C691 C 0.06801 0.89321 0.87849 0.0
C692 C 0.08351 0.85567 0.0177 0.0
C693 C 0.0582 0.80912 0.0427 0.0
C694 C 0.06636 0.82596 0.00313 0.0
C695 C 0.07174 0.88482 0.95002 0.0
C696 C 0.07286 0.86384 0.95824 0.0
H697 H 1.01447 0.79465 0.10135 0.0
H698 H 0.02921 0.81462 0.00563 0.0
H699 H 0.0872 0.83204 0.09175 0.0
H700 H 0.06601 0.92392 0.0632 0.0
H701 H 0.07418 0.89054 0.07229 0.0
C702 C 0.75579 1.00243 0.09091 0.0
C703 C 0.74932 0.99135 0.15232 0.0
C704 C 0.74587 1.00251 0.02151 0.0
C705 C 0.70184 0.98312 0.92806 0.0
H706 H 0.68997 0.03657 0.90824 0.0
C707 C 0.62708 1.00814 0.84345 0.0
C708 C 0.61976 0.0216 0.89545 0.0
C709 C 0.64651 1.00423 0.84099 0.0
C710 C 0.69318 0.02158 0.91233 0.0
H711 H 0.72944 0.96962 0.18643 0.0
H712 H 0.71191 0.97 0.06732 0.0
H713 H 0.72022 0.02707 0.9614 0.0
H714 H 0.6272 0.0416 0.98495 0.0
H715 H 0.66088 0.03472 0.98125 0.0
H716 H 0.67384 0.97777 0.88675 0.0
C717 C 0.72454 0.97864 0.07118 0.0
C718 C 0.71072 1.01606 0.94178 0.0
C719 C 0.73447 0.97852 0.14012 0.0
C720 C 0.63236 0.03138 0.9434 0.0
C721 C 0.65173 0.0275 0.94088 0.0
C722 C 0.68418 0.98866 0.89943 0.0
C723 C 0.7293 0.99162 0.01304 0.0
C724 C 0.71469 0.99678 0.95523 0.0
C725 C 0.65903 1.01372 0.89033 0.0
C726 C 0.67923 1.00796 0.89641 0.0
H727 H 0.76734 1.01233 0.09882 0.0
H728 H 0.7502 1.01233 0.97716 0.0
H729 H 0.70469 0.96814 0.93554 0.0
H730 H 0.61778 1.00055 0.8048 0.0
H731 H 0.65171 0.99357 0.80136 0.0
C732 C 0.47077 0.74765 0.16707 0.0
C733 C 0.49032 0.75046 0.15801 0.0
C734 C 0.46099 0.73572 0.11684 0.0
C735 C 0.46921 0.70143 0.95335 0.0
H736 H 0.44197 0.66774 0.08956 0.0
C737 C 0.46863 0.62195 0.89248 0.0
C738 C 0.47337 0.61099 0.95689 0.0
C739 C 0.46227 0.6406 0.90126 0.0
C740 C 0.44954 0.67695 0.05052 0.0
H741 H 0.51465 0.7449 0.08601 0.0
H742 H 0.49809 0.72359 0.00053 0.0
H743 H 0.44672 0.70036 0.12652 0.0
H744 H 0.4742 0.6104 0.08076 0.0
H745 H 0.46385 0.64304 0.09663 0.0
H746 H 0.47395 0.67736 0.88173 0.0
C747 C 0.48988 0.73076 0.04431 0.0
C748 C 0.45198 0.69592 0.07104 0.0
C749 C 0.49951 0.74301 0.09347 0.0
C750 C 0.47052 0.61855 0.03029 0.0
C751 C 0.46445 0.63728 0.03914 0.0
C752 C 0.46715 0.68234 0.93368 0.0
C753 C 0.4708 0.72592 0.05854 0.0
C754 C 0.46289 0.70814 0.02496 0.0
C755 C 0.46083 0.64877 0.97465 0.0
C756 C 0.45827 0.66962 0.98437 0.0
H757 H 0.46345 0.75333 0.21672 0.0
H758 H 0.44615 0.73292 0.128 0.0
H759 H 0.47708 0.71055 0.91496 0.0
H760 H 0.4705 0.61628 0.83519 0.0
H761 H 0.45922 0.64884 0.85039 0.0
C762 C 0.80564 0.56085 0.14771 0.0
C763 C 0.79193 0.54671 0.15771 0.0
C764 C 0.81574 0.56204 0.07919 0.0
C765 C 0.83792 0.56085 0.93185 0.0
H766 H 0.85813 0.50975 0.92234 0.0
C767 C 0.91144 0.51568 0.86686 0.0
C768 C 0.92371 0.52807 0.90557 0.0
C769 C 0.89219 0.52003 0.85979 0.0
C770 C 0.85252 0.52405 0.92167 0.0
H771 H 0.77626 0.52428 0.10167 0.0
H772 H 0.79402 0.52627 0.98135 0.0
H773 H 0.82691 0.51502 0.97491 0.0
H774 H 0.92576 0.55506 0.96422 0.0
H775 H 0.89211 0.56232 0.95526 0.0
H776 H 0.86426 0.56993 0.8832 0.0
C777 C 0.79705 0.53636 0.02656 0.0
C778 C 0.83446 0.52709 0.95188 0.0
C779 C 0.78686 0.53526 0.09519 0.0
C780 C 0.91658 0.54526 0.93415 0.0
C781 C 0.89731 0.5495 0.92808 0.0
C782 C 0.856 0.55779 0.90116 0.0
C783 C 0.81239 0.54897 0.01976 0.0
C784 C 0.82752 0.54563 0.96215 0.0
C785 C 0.88477 0.53672 0.89251 0.0
C786 C 0.86397 0.53948 0.90067 0.0
H787 H 0.80963 0.56995 0.1951 0.0
H788 H 0.82748 0.57188 0.07625 0.0
H789 H 0.83276 0.57526 0.93767 0.0
H790 H 0.91671 0.50252 0.84266 0.0
H791 H 0.88301 0.51003 0.8309 0.0
C792 C 0.04482 0.21793 0.99494 0.0
C793 C 0.03086 0.23177 0.98053 0.0
C794 C 0.04481 0.20059 0.95599 0.0
C795 C 1.01225 0.16861 0.8477 0.0
H796 H 0.05817 0.13869 0.82583 0.0
C797 C 1.01414 0.09242 0.7145 0.0
C798 C 0.02374 0.07866 0.75835 0.0
C799 C 1.0152 0.11174 0.73368 0.0
C800 C 0.0452 0.14684 0.83176 0.0
H801 H 1.00665 0.23861 0.90963 0.0
H802 H 1.00703 0.20853 0.83873 0.0
H803 H 0.06026 0.1717 0.86609 0.0
H804 H 0.04232 0.07461 0.85583 0.0
H805 H 0.04474 0.10835 0.88738 0.0
H806 H 0.99732 0.14362 0.81169 0.0
C807 C 1.0177 0.21087 0.88223 0.0
C808 C 0.04636 0.16583 0.85525 0.0
C809 C 1.01764 0.2283 0.92194 0.0
C810 C 0.03472 0.08478 0.82089 0.0
C811 C 0.03617 0.10413 0.83878 0.0
C812 C 1.01114 0.14968 0.82289 0.0
C813 C 0.03098 0.1965 0.90025 0.0
C814 C 0.02987 0.17695 0.86558 0.0
C815 C 0.02634 0.11786 0.79572 0.0
C816 C 0.02757 0.13843 0.81629 0.0
H817 H 0.05529 0.22017 0.03943 0.0
H818 H 0.05517 0.19005 0.97286 0.0
H819 H 0.99916 0.17644 0.85563 0.0
H820 H 1.00552 0.08826 0.66597 0.0
H821 H 1.0075 0.12194 0.6992 0.0
C822 C 0.31296 0.0459 0.95294 0.0
C823 C 0.30224 0.02926 0.96135 0.0
C824 C 0.33067 0.04552 0.91651 0.0
C825 C 0.36412 1.01599 0.79896 0.0
H826 H 0.40204 0.04521 0.9078 0.0
C827 C 0.44279 0.02112 0.69565 0.0
C828 C 0.45708 0.02153 0.75204 0.0
C829 C 0.42353 0.02222 0.71597 0.0
C830 C 0.39173 0.03682 0.87686 0.0
H831 H 0.30131 0.99933 0.93471 0.0
H832 H 0.33232 0.99856 0.87089 0.0
H833 H 0.36913 0.04682 0.94806 0.0
H834 H 0.46202 0.02306 0.87454 0.0
H835 H 0.42864 0.02457 0.90989 0.0
H836 H 0.38698 1.00561 0.72899 0.0
C837 C 0.32695 1.01201 0.89174 0.0
C838 C 0.37268 0.03798 0.8993 0.0
C839 C 0.30911 1.01243 0.92797 0.0
C840 C 0.45151 0.02285 0.82933 0.0
C841 C 0.43227 0.02384 0.84964 0.0
C842 C 0.38325 1.01485 0.7763 0.0
C843 C 0.33832 0.02843 0.88811 0.0
C844 C 0.35854 0.02755 0.861 0.0
C845 C 0.41795 0.02365 0.79331 0.0
C846 C 0.39739 0.02514 0.81543 0.0
H847 H 0.30806 0.05907 0.97834 0.0
H848 H 0.33869 0.05857 0.91318 0.0
H849 H 0.35368 1.00783 0.76765 0.0
H850 H 0.44645 0.0201 0.63552 0.0
H851 H 0.41302 0.02231 0.67088 0.0
C852 C 0.48951 0.31469 0.92306 0.0
C853 C 0.50514 0.30473 0.95307 0.0
C854 C 0.49191 0.33233 0.88756 0.0
C855 C 0.52398 0.37332 0.8949 0.0
H856 H 0.49384 0.39185 0.72484 0.0
C857 C 0.5155 0.45354 0.833 0.0
C858 C 0.51638 0.45954 0.75619 0.0
C859 C 0.51464 0.4342 0.85125 0.0
C860 C 0.50247 0.3869 0.77211 0.0
H861 H 0.53567 0.3051 0.9658 0.0
H862 H 0.53993 0.33587 0.90315 0.0
H863 H 0.49224 0.35838 0.76084 0.0
H864 H 0.51675 0.44963 0.63832 0.0
H865 H 0.51512 0.416 0.67023 0.0
H866 H 0.53408 0.4018 0.90677 0.0
C867 C 0.52577 0.33007 0.90758 0.0
C868 C 0.50146 0.3677 0.79307 0.0
C869 C 0.52337 0.3123 0.94247 0.0
C870 C 0.51605 0.44563 0.69813 0.0
C871 C 0.51504 0.42628 0.7164 0.0
C872 C 0.52485 0.39251 0.87443 0.0
C873 C 0.51 0.3406 0.88179 0.0
C874 C 0.51211 0.36067 0.85512 0.0
C875 C 0.51451 0.42028 0.79328 0.0
C876 C 0.51399 0.39963 0.81321 0.0
H877 H 0.47528 0.30928 0.93082 0.0
H878 H 0.47942 0.34001 0.86886 0.0
H879 H 0.53221 0.36851 0.94353 0.0
H880 H 0.51572 0.46377 0.87934 0.0
H881 H 0.51397 0.43015 0.91105 0.0
C882 C 0.22812 0.49153 0.94929 0.0
C883 C 0.23838 0.50821 0.96381 0.0
C884 C 0.2103 0.49224 0.91384 0.0
C885 C 0.17569 0.5239 0.81115 0.0
H886 H 0.13902 0.48973 0.90163 0.0
C887 C 0.09725 0.51945 0.70454 0.0
C888 C 0.08297 0.51619 0.75956 0.0
C889 C 0.11654 0.51858 0.72457 0.0
C890 C 0.14895 0.49953 0.87598 0.0
H891 H 0.23827 0.53866 0.9499 0.0
H892 H 0.20708 0.54003 0.88835 0.0
H893 H 0.17191 0.48819 0.94148 0.0
H894 H 0.07812 0.50969 0.87948 0.0
H895 H 0.11147 0.50836 0.91424 0.0
H896 H 0.15244 0.53567 0.74758 0.0
C897 C 0.2129 0.52629 0.90311 0.0
C898 C 0.16803 0.49842 0.89802 0.0
C899 C 0.23087 0.52554 0.93809 0.0
C900 C 0.0886 0.51215 0.83519 0.0
C901 C 0.10785 0.51126 0.85512 0.0
C902 C 0.15653 0.52503 0.78913 0.0
C903 C 0.20204 0.50969 0.8929 0.0
C904 C 0.18176 0.5106 0.86622 0.0
C905 C 0.12218 0.51434 0.80012 0.0
C906 C 0.1428 0.51295 0.82167 0.0
H907 H 0.23349 0.47798 0.96902 0.0
H908 H 0.20273 0.47907 0.90528 0.0
H909 H 0.18576 0.53344 0.78476 0.0
H910 H 0.09358 0.5226 0.64564 0.0
H911 H 0.12706 0.52094 0.6804 0.0
C912 C 1.00158 0.8136 0.4308 0.0
C913 C 0.01946 0.80644 0.40959 0.0
C914 C 0.99998 0.83121 0.4682 0.0
C915 C 0.02797 0.86904 0.56852 0.0
H916 H 0.98903 0.90245 0.48838 0.0
C917 C 1.01879 0.94623 0.67932 0.0
C918 C 1.01429 0.96038 0.62543 0.0
C919 C 1.01846 0.92698 0.65922 0.0
C920 C 1.00008 0.89338 0.51116 0.0
H921 H 0.04969 0.81152 0.41569 0.0
H922 H 0.04699 0.84198 0.48055 0.0
H923 H 0.99019 0.86947 0.44692 0.0
H924 H 1.00598 0.9651 0.50733 0.0
H925 H 1.00567 0.93164 0.47192 0.0
H926 H 0.0383 0.89312 0.63049 0.0
C927 C 0.03413 0.83415 0.4688 0.0
C928 C 1.00057 0.87431 0.48821 0.0
C929 C 0.03571 0.81664 0.43134 0.0
C930 C 1.00945 0.95468 0.55064 0.0
C931 C 1.00914 0.9354 0.53043 0.0
C932 C 0.02749 0.88812 0.59142 0.0
C933 C 1.01623 0.84201 0.48562 0.0
C934 C 1.01466 0.86189 0.5158 0.0
C935 C 1.01366 0.92124 0.58439 0.0
C936 C 1.01367 0.90065 0.56241 0.0
H937 H 0.98879 0.80618 0.41424 0.0
H938 H 0.98596 0.83662 0.48139 0.0
H939 H 0.03892 0.85993 0.59175 0.0
H940 H 0.02266 0.94998 0.73729 0.0
H941 H 0.02182 0.91658 0.70279 0.0
C942 C 0.72434 0.9972 0.46799 0.0
C943 C 0.73031 1.01051 0.41332 0.0
C944 C 0.70635 0.9988 0.50231 0.0
C945 C 0.65912 1.01872 0.4565 0.0
H946 H 0.64587 1.00365 0.66315 0.0
C947 C 0.5812 1.00552 0.54471 0.0
C948 C 0.57519 1.0123 0.61666 0.0
C949 C 0.60048 1.00543 0.52483 0.0
C950 C 0.64933 1.00802 0.6054 0.0
H951 H 0.72267 0.03636 0.3544 0.0
H952 H 0.69166 0.03956 0.41567 0.0
H953 H 0.67925 1.00462 0.62449 0.0
H954 H 0.58506 0.02414 0.72442 0.0
H955 H 0.61854 0.02422 0.68913 0.0
H956 H 0.62935 0.02224 0.43722 0.0
C957 C 0.7006 0.02769 0.43143 0.0
C958 C 0.66849 1.00843 0.58302 0.0
C959 C 0.7185 0.02605 0.39718 0.0
C960 C 0.58907 1.0187 0.66863 0.0
C961 C 0.60836 1.01865 0.64859 0.0
C962 C 0.64004 1.01823 0.4787 0.0
C963 C 0.69394 1.01369 0.48217 0.0
C964 C 0.67366 1.0138 0.50814 0.0
C965 C 0.61434 1.01215 0.57617 0.0
C966 C 0.63482 1.01279 0.55333 0.0
H967 H 0.733 0.98485 0.48008 0.0
H968 H 0.70171 0.98769 0.54075 0.0
H969 H 0.66243 0.02264 0.39801 0.0
H970 H 0.571 1.00042 0.5032 0.0
H971 H 0.60453 1.00004 0.46897 0.0
C972 C 0.5043 0.7207 0.43101 0.0
C973 C 0.51992 0.73019 0.39883 0.0
C974 C 0.5066 0.70321 0.46773 0.0
C975 C 0.5391 0.66186 0.46853 0.0
H976 H 0.50627 0.64483 0.63276 0.0
C977 C 0.53009 0.58208 0.54186 0.0
C978 C 0.52763 0.5769 0.61913 0.0
C979 C 0.53034 0.60123 0.52003 0.0
C980 C 0.51574 0.64933 0.58743 0.0
H981 H 0.5504 0.72922 0.38433 0.0
H982 H 0.55456 0.69887 0.4504 0.0
H983 H 0.50535 0.67787 0.59287 0.0
H984 H 0.52374 0.58816 0.73378 0.0
H985 H 0.52447 0.62128 0.69633 0.0
H986 H 0.54964 0.63335 0.46373 0.0
C987 C 0.54042 0.70479 0.44578 0.0
C988 C 0.51505 0.66832 0.5639 0.0
C989 C 0.5381 0.72236 0.40899 0.0
C990 C 0.52559 0.59146 0.67384 0.0
C991 C 0.52589 0.61057 0.65213 0.0
C992 C 0.53981 0.64286 0.49218 0.0
C993 C 0.52461 0.69468 0.47356 0.0
C994 C 0.52656 0.67484 0.50346 0.0
C995 C 0.52818 0.61578 0.57483 0.0
C996 C 0.52799 0.63625 0.55145 0.0
H997 H 0.4901 0.72636 0.42421 0.0
H998 H 0.49404 0.69593 0.48771 0.0
H999 H 0.54803 0.6662 0.42122 0.0
H1000 H 0.53163 0.57133 0.49785 0.0
H1001 H 0.53186 0.60458 0.45981 0.0
C1002 C 0.82047 0.51001 0.41012 0.0
C1003 C 0.81006 0.52688 0.41851 0.0
C1004 C 0.83826 0.50792 0.445 0.0
C1005 C 0.87198 0.52929 0.58652 0.0
H1006 H 0.90992 0.50752 0.45122 0.0
C1007 C 0.95085 0.51823 0.67832 0.0
C1008 C 0.96499 0.52163 0.62282 0.0
C1009 C 0.93156 0.51837 0.65841 0.0
C1010 C 0.89958 0.51377 0.48972 0.0
H1011 H 0.80983 0.55463 0.47122 0.0
H1012 H 0.84082 0.55104 0.53293 0.0
H1013 H 0.87688 0.50815 0.41183 0.0
H1014 H 0.9696 0.52813 0.50276 0.0
H1015 H 0.93615 0.52855 0.46849 0.0
H1016 H 0.8949 0.53533 0.66363 0.0
C1017 C 0.83518 0.53923 0.50052 0.0
C1018 C 0.88049 0.51387 0.46755 0.0
C1019 C 0.81736 0.54129 0.46555 0.0
C1020 C 0.95923 0.52536 0.54712 0.0
C1021 C 0.93996 0.52547 0.52728 0.0
C1022 C 0.89113 0.52913 0.60891 0.0
C1023 C 0.84619 0.52277 0.48852 0.0
C1024 C 0.86639 0.52174 0.51527 0.0
C1025 C 0.92582 0.52186 0.58247 0.0
C1026 C 0.90525 0.52154 0.56039 0.0
H1027 H 0.81532 0.49885 0.37288 0.0
H1028 H 0.84611 0.49491 0.43544 0.0
H1029 H 0.86156 0.53536 0.6251 0.0
H1030 H 0.95464 0.51529 0.73726 0.0
H1031 H 0.92115 0.51535 0.70231 0.0
loop_
_geom_bond_atom_site_label_1
_geom_bond_atom_site_label_2
_geom_bond_distance
_geom_bond_site_symmetry_2
_ccdc_geom_bond_type
H0 C1 0.949 . S
C1 H0 0.949 . S
C1 C2 1.395 . S
C1 C3 1.391 . S
C2 C1 1.395 . S
C2 C5 1.390 . S
C3 C1 1.391 . S
C3 C7 1.387 . S
C3 C8 1.491 . S
H4 C5 0.950 . S
C5 C2 1.390 . S
C5 H4 0.950 . S
C5 C6 1.378 . S
C6 C5 1.378 . S
C6 C7 1.409 . S
C7 C3 1.387 . S
C7 C6 1.409 . S
C7 H9 0.951 . S
C8 C3 1.491 . S
C8 C10 1.382 . S
C8 C12 1.404 . S
H9 C7 0.951 . S
C10 C8 1.382 . S
C10 C11 1.390 . S
C10 H15 0.949 . S
C11 C10 1.390 . S
C11 C16 1.399 . S
C12 C8 1.404 . S
C12 H13 0.950 . S
C12 C14 1.375 . S
H13 C12 0.950 . S
C14 C12 1.375 . S
C14 C16 1.382 . S
C14 H18 0.950 . S
H15 C10 0.949 . S
C16 C11 1.399 . S
C16 C14 1.382 . S
C16 H17 0.952 . S
H17 C16 0.952 . S
H18 C14 0.950 . S
H19 C20 0.949 . S
C20 H19 0.949 . S
C20 C21 1.395 . S
C20 C22 1.391 . S
C21 C20 1.395 . S
C21 C24 1.390 1_655 S
C22 C20 1.391 . S
C22 C26 1.387 . S
C22 C27 1.491 . S
H23 C24 0.950 . S
C24 C21 1.390 1_455 S
C24 H23 0.950 . S
C24 C25 1.377 1_455 S
C25 C24 1.377 1_655 S
C25 C26 1.413 . S
C26 C22 1.387 . S
C26 C25 1.413 . S
C26 H28 0.951 . S
C27 C22 1.491 . S
C27 C29 1.407 . S
C27 C31 1.404 . S
H28 C26 0.951 . S
C29 C27 1.407 . S
C29 C30 1.403 . S
C29 H34 0.913 1_655 S
C30 C29 1.403 . S
C30 C35 1.399 . S
C31 C27 1.404 . S
C31 H32 0.950 . S
C31 C33 1.375 . S
H32 C31 0.950 . S
C33 C31 1.375 . S
C33 C35 1.382 . S
C33 H37 0.950 . S
H34 C29 0.913 1_455 S
C35 C30 1.399 . S
C35 C33 1.382 . S
C35 H36 0.952 . S
H36 C35 0.952 . S
H37 C33 0.950 . S
H38 C39 0.949 . S
C39 H38 0.949 . S
C39 C40 1.395 . S
C39 C41 1.391 . S
C40 C39 1.395 . S
C40 C43 1.390 1_565 S
C41 C39 1.391 . S
C41 C45 1.387 . S
C41 C46 1.491 . S
H42 C43 0.950 . S
C43 C40 1.390 1_545 S
C43 H42 0.950 . S
C43 C44 1.377 1_545 S
C44 C43 1.377 1_565 S
C44 C45 1.413 . S
C45 C41 1.387 . S
C45 C44 1.413 . S
C45 H47 0.951 . S
C46 C41 1.491 . S
C46 C48 1.407 . S
C46 C50 1.404 . S
H47 C45 0.951 . S
C48 C46 1.407 . S
C48 C49 1.403 . S
C48 H53 0.913 1_565 S
C49 C48 1.403 . S
C49 C54 1.399 . S
C50 C46 1.404 . S
C50 H51 0.950 . S
C50 C52 1.375 . S
H51 C50 0.950 . S
C52 C50 1.375 . S
C52 C54 1.382 . S
C52 H56 0.950 . S
H53 C48 0.913 1_545 S
C54 C49 1.399 . S
C54 C52 1.382 . S
C54 H55 0.952 . S
H55 C54 0.952 . S
H56 C52 0.950 . S
H57 C58 0.949 . S
C58 H57 0.949 . S
C58 C59 1.395 . S
C58 C60 1.391 . S
C59 C58 1.395 . S
C59 C62 1.390 . S
C60 C58 1.391 . S
C60 C64 1.387 . S
C60 C65 1.491 . S
H61 C62 0.950 . S
C62 C59 1.390 . S
C62 H61 0.950 . S
C62 C63 1.378 . S
C63 C62 1.378 . S
C63 C64 1.409 . S
C64 C60 1.387 . S
C64 C63 1.409 . S
C64 H66 0.951 . S
C65 C60 1.491 . S
C65 C67 1.382 . S
C65 C69 1.404 . S
H66 C64 0.951 . S
C67 C65 1.382 . S
C67 C68 1.390 . S
C67 H72 0.949 . S
C68 C67 1.390 . S
C68 C73 1.399 . S
C69 C65 1.404 . S
C69 H70 0.950 . S
C69 C71 1.375 . S
H70 C69 0.950 . S
C71 C69 1.375 . S
C71 C73 1.382 . S
C71 H75 0.950 . S
H72 C67 0.949 . S
C73 C68 1.399 . S
C73 C71 1.382 . S
C73 H74 0.952 . S
H74 C73 0.952 . S
H75 C71 0.950 . S
H76 C77 0.949 . S
C77 H76 0.949 . S
C77 C78 1.395 . S
C77 C79 1.391 . S
C78 C77 1.395 . S
C78 C81 1.390 . S
C79 C77 1.391 . S
C79 C83 1.387 1_554 S
C79 C84 1.491 . S
H80 C81 0.950 . S
C81 C78 1.390 . S
C81 H80 0.950 . S
C81 C82 1.378 1_554 S
C82 C81 1.378 1_556 S
C82 C83 1.409 . S
C83 C79 1.387 1_556 S
C83 C82 1.409 . S
C83 H85 0.951 . S
C84 C79 1.491 . S
C84 C86 1.382 . S
C84 C88 1.404 1_554 S
H85 C83 0.951 . S
C86 C84 1.382 . S
C86 C87 1.390 . S
C86 H91 0.949 . S
C87 C86 1.390 . S
C87 C92 1.399 . S
C88 C84 1.404 1_556 S
C88 H89 0.950 . S
C88 C90 1.375 . S
H89 C88 0.950 . S
C90 C88 1.375 . S
C90 C92 1.382 1_556 S
C90 H94 0.950 . S
H91 C86 0.949 . S
C92 C87 1.399 . S
C92 C90 1.382 1_554 S
C92 H93 0.952 . S
H93 C92 0.952 . S
H94 C90 0.950 . S
H95 C96 0.949 . S
C96 H95 0.949 . S
C96 C97 1.392 1_655 S
C96 C98 1.391 . S
C97 C96 1.392 1_455 S
C97 C100 1.391 . S
C98 C96 1.391 . S
C98 C102 1.387 1_554 S
C98 C103 1.491 . S
H99 C100 0.950 . S
C100 C97 1.391 . S
C100 H99 0.950 . S
C100 C101 1.378 1_554 S
C101 C100 1.378 1_556 S
C101 C102 1.409 1_455 S
C102 C98 1.387 1_556 S
C102 C101 1.409 1_655 S
C102 H104 0.951 . S
C103 C98 1.491 . S
C103 C105 1.390 . S
C103 C107 1.404 1_554 S
H104 C102 0.951 . S
C105 C103 1.390 . S
C105 C106 1.394 . S
C105 H110 0.936 1_655 S
C106 C105 1.394 . S
C106 C111 1.399 . S
C107 C103 1.404 1_556 S
C107 H108 0.950 . S
C107 C109 1.375 . S
H108 C107 0.950 . S
C109 C107 1.375 . S
C109 C111 1.382 1_556 S
C109 H113 0.950 . S
H110 C105 0.936 1_455 S
C111 C106 1.399 . S
C111 C109 1.382 1_554 S
C111 H112 0.952 . S
H112 C111 0.952 . S
H113 C109 0.950 . S
H114 C115 0.949 . S
C115 H114 0.949 . S
C115 C116 1.393 1_565 S
C115 C117 1.391 . S
C116 C115 1.393 1_545 S
C116 C119 1.391 . S
C117 C115 1.391 . S
C117 C121 1.387 1_554 S
C117 C122 1.491 . S
H118 C119 0.950 . S
C119 C116 1.391 . S
C119 H118 0.950 . S
C119 C120 1.378 1_554 S
C120 C119 1.378 1_556 S
C120 C121 1.409 1_545 S
C121 C117 1.387 1_556 S
C121 C120 1.409 1_565 S
C121 H123 0.951 . S
C122 C117 1.491 . S
C122 C124 1.392 . S
C122 C126 1.404 1_554 S
H123 C121 0.951 . S
C124 C122 1.392 . S
C124 C125 1.395 . S
C124 H129 0.934 1_565 S
C125 C124 1.395 . S
C125 C130 1.399 . S
C126 C122 1.404 1_556 S
C126 H127 0.950 . S
C126 C128 1.375 . S
H127 C126 0.950 . S
C128 C126 1.375 . S
C128 C130 1.382 1_556 S
C128 H132 0.950 . S
H129 C124 0.934 1_545 S
C130 C125 1.399 . S
C130 C128 1.382 1_554 S
C130 H131 0.952 . S
H131 C130 0.952 . S
H132 C128 0.950 . S
H133 C134 0.949 . S
C134 H133 0.949 . S
C134 C135 1.395 . S
C134 C136 1.391 . S
C135 C134 1.395 . S
C135 C138 1.390 . S
C136 C134 1.391 . S
C136 C140 1.387 1_554 S
C136 C141 1.491 . S
H137 C138 0.950 . S
C138 C135 1.390 . S
C138 H137 0.950 . S
C138 C139 1.378 1_554 S
C139 C138 1.378 1_556 S
C139 C140 1.409 . S
C140 C136 1.387 1_556 S
C140 C139 1.409 . S
C140 H142 0.951 . S
C141 C136 1.491 . S
C141 C143 1.382 . S
C141 C145 1.404 1_554 S
H142 C140 0.951 . S
C143 C141 1.382 . S
C143 C144 1.390 . S
C143 H148 0.949 . S
C144 C143 1.390 . S
C144 C149 1.399 . S
C145 C141 1.404 1_556 S
C145 H146 0.950 . S
C145 C147 1.375 . S
H146 C145 0.950 . S
C147 C145 1.375 . S
C147 C149 1.382 1_556 S
C147 H151 0.950 . S
H148 C143 0.949 . S
C149 C144 1.399 . S
C149 C147 1.382 1_554 S
C149 H150 0.952 . S
H150 C149 0.952 . S
H151 C147 0.950 . S
C152 Eu153 2.835 . S
C152 C154 1.500 . S
C152 O172 1.257 1_655 S
C152 O173 1.260 . S
Eu153 C152 2.835 . S
Eu153 O172 2.473 1_655 S
Eu153 O173 2.480 . S
Eu153 O174 2.430 . S
Eu153 O175 2.670 1_545 S
Eu153 O176 2.394 . S
Eu153 O181 2.355 1_655 S
Eu153 O183 2.374 1_545 S
C154 C152 1.500 . S
C154 C155 1.377 . S
C154 C159 1.377 1_655 S
C155 C154 1.377 . S
C155 C156 1.395 . S
C155 H184 0.931 . S
C156 C155 1.395 . S
C156 C157 1.383 . S
C156 H185 0.931 . S
C157 C156 1.383 . S
C157 C158 1.372 1_655 S
C158 C157 1.372 1_455 S
C158 C159 1.379 . S
C158 H186 0.952 . S
C159 C154 1.377 1_455 S
C159 C158 1.379 . S
C159 H187 0.931 . S
C160 O174 1.281 . S
C160 O175 1.254 1_545 S
C161 O176 1.251 1_455 S
C161 O177 1.251 . S
C162 Eu163 2.835 . S
C162 C164 1.500 . S
C162 O178 1.204 1_455 S
C162 O179 1.260 . S
Eu163 C162 2.835 . S
Eu163 O175 2.355 1_455 S
Eu163 O177 2.374 1_565 S
Eu163 O178 2.448 1_455 S
Eu163 O179 2.480 . S
Eu163 O180 2.430 . S
Eu163 O181 2.670 1_565 S
Eu163 O182 2.394 . S
C164 C162 1.500 . S
C164 C165 1.377 . S
C164 C169 1.332 1_455 S
C165 C164 1.377 . S
C165 C166 1.395 . S
C165 H188 0.931 . S
C166 C165 1.395 . S
C166 C167 1.383 . S
C166 H189 0.931 . S
C167 C166 1.383 . S
C167 C168 1.398 1_455 S
C168 C167 1.398 1_655 S
C168 C169 1.377 . S
C168 H190 0.928 . S
C169 C164 1.332 1_655 S
C169 C168 1.377 . S
C169 H191 0.980 . S
C170 O180 1.271 . S
C170 O181 1.261 1_565 S
C171 O182 1.251 1_655 S
C171 O183 1.251 . S
O172 C152 1.257 1_455 S
O172 Eu153 2.473 1_455 S
O173 C152 1.260 . S
O173 Eu153 2.480 . S
O174 Eu153 2.430 . S
O174 C160 1.281 . S
O175 Eu153 2.670 1_565 S
O175 C160 1.254 1_565 S
O175 Eu163 2.355 1_655 S
O176 Eu153 2.394 . S
O176 C161 1.251 1_655 S
O177 C161 1.251 . S
O177 Eu163 2.374 1_545 S
O178 C162 1.204 1_655 S
O178 Eu163 2.448 1_655 S
O179 C162 1.260 . S
O179 Eu163 2.480 . S
O180 Eu163 2.430 . S
O180 C170 1.271 . S
O181 Eu153 2.355 1_455 S
O181 Eu163 2.670 1_545 S
O181 C170 1.261 1_545 S
O182 Eu163 2.394 . S
O182 C171 1.251 1_455 S
O183 Eu153 2.374 1_565 S
O183 C171 1.251 . S
H184 C155 0.931 . S
H185 C156 0.931 . S
H186 C158 0.952 . S
H187 C159 0.931 . S
H188 C165 0.931 . S
H189 C166 0.931 . S
H190 C168 0.928 . S
H191 C169 0.980 . S
C192 Eu193 2.835 . S
C192 C194 1.500 . S
C192 O212 1.257 1_565 S
C192 O213 1.260 . S
Eu193 C192 2.835 . S
Eu193 O212 2.473 1_565 S
Eu193 O213 2.480 . S
Eu193 O214 2.430 . S
Eu193 O215 2.670 . S
Eu193 O216 2.394 . S
Eu193 O221 2.355 1_565 S
Eu193 O223 2.374 . S
C194 C192 1.500 . S
C194 C195 1.377 . S
C194 C199 1.377 1_565 S
C195 C194 1.377 . S
C195 C196 1.395 . S
C195 H224 0.931 . S
C196 C195 1.395 . S
C196 C197 1.383 . S
C196 H225 0.931 . S
C197 C196 1.383 . S
C197 C198 1.376 1_565 S
C198 C197 1.376 1_545 S
C198 C199 1.379 . S
C198 H226 0.948 . S
C199 C194 1.377 1_545 S
C199 C198 1.379 . S
C199 H227 0.931 . S
C200 O214 1.259 . S
C200 O215 1.270 . S
C201 O216 1.251 1_545 S
C201 O217 1.251 . S
C202 Eu203 2.835 . S
C202 C204 1.500 . S
C202 O218 1.201 1_545 S
C202 O219 1.260 . S
Eu203 C202 2.835 . S
Eu203 O215 2.355 1_545 S
Eu203 O217 2.374 . S
Eu203 O218 2.447 1_545 S
Eu203 O219 2.480 . S
Eu203 O220 2.430 . S
Eu203 O221 2.670 . S
Eu203 O222 2.394 . S
C204 C202 1.500 . S
C204 C205 1.377 . S
C204 C209 1.329 1_545 S
C205 C204 1.377 . S
C205 C206 1.395 . S
C205 H228 0.931 . S
C206 C205 1.395 . S
C206 C207 1.383 . S
C206 H229 0.931 . S
C207 C206 1.383 . S
C207 C208 1.395 1_545 S
C208 C207 1.395 1_565 S
C208 C209 1.377 . S
C208 H230 0.930 . S
C209 C204 1.329 1_565 S
C209 C208 1.377 . S
C209 H231 0.983 . S
C210 O220 1.259 . S
C210 O221 1.270 . S
C211 O222 1.251 1_565 S
C211 O223 1.251 . S
O212 C192 1.257 1_545 S
O212 Eu193 2.473 1_545 S
O213 C192 1.260 . S
O213 Eu193 2.480 . S
O214 Eu193 2.430 . S
O214 C200 1.259 . S
O215 Eu193 2.670 . S
O215 C200 1.270 . S
O215 Eu203 2.355 1_565 S
O216 Eu193 2.394 . S
O216 C201 1.251 1_565 S
O217 C201 1.251 . S
O217 Eu203 2.374 . S
O218 C202 1.201 1_565 S
O218 Eu203 2.447 1_565 S
O219 C202 1.260 . S
O219 Eu203 2.480 . S
O220 Eu203 2.430 . S
O220 C210 1.259 . S
O221 Eu193 2.355 1_545 S
O221 Eu203 2.670 . S
O221 C210 1.270 . S
O222 Eu203 2.394 . S
O222 C211 1.251 1_545 S
O223 Eu193 2.374 . S
O223 C211 1.251 . S
H224 C195 0.931 . S
H225 C196 0.931 . S
H226 C198 0.948 . S
H227 C199 0.931 . S
H228 C205 0.931 . S
H229 C206 0.931 . S
H230 C208 0.930 . S
H231 C209 0.983 . S
C232 Eu233 2.835 . S
C232 C234 1.500 . S
C232 O252 1.257 . S
C232 O253 1.260 . S
Eu233 C232 2.835 . S
Eu233 O252 2.473 . S
Eu233 O253 2.480 . S
Eu233 O254 2.430 . S
Eu233 O255 2.670 . S
Eu233 O256 2.394 . S
Eu233 O261 2.355 . S
Eu233 O263 2.374 . S
C234 C232 1.500 . S
C234 C235 1.377 . S
C234 C239 1.377 . S
C235 C234 1.377 . S
C235 C236 1.395 . S
C235 H264 0.931 . S
C236 C235 1.395 . S
C236 C237 1.383 . S
C236 H265 0.931 . S
C237 C236 1.383 . S
C237 C238 1.394 . S
C238 C237 1.394 . S
C238 C239 1.378 . S
C238 H266 0.931 . S
C239 C234 1.377 . S
C239 C238 1.378 . S
C239 H267 0.931 . S
C240 O254 1.259 . S
C240 O255 1.270 . S
C241 O256 1.251 . S
C241 O257 1.251 . S
C242 Eu243 2.835 . S
C242 C244 1.500 . S
C242 O258 1.257 . S
C242 O259 1.260 . S
Eu243 C242 2.835 . S
Eu243 O255 2.355 . S
Eu243 O257 2.374 . S
Eu243 O258 2.473 . S
Eu243 O259 2.480 . S
Eu243 O260 2.430 . S
Eu243 O261 2.670 . S
Eu243 O262 2.394 . S
C244 C242 1.500 . S
C244 C245 1.377 . S
C244 C249 1.377 . S
C245 C244 1.377 . S
C245 C246 1.395 . S
C245 H268 0.931 . S
C246 C245 1.395 . S
C246 C247 1.383 . S
C246 H269 0.931 . S
C247 C246 1.383 . S
C247 C248 1.394 . S
C248 C247 1.394 . S
C248 C249 1.378 . S
C248 H270 0.931 . S
C249 C244 1.377 . S
C249 C248 1.378 . S
C249 H271 0.931 . S
C250 O260 1.259 . S
C250 O261 1.270 . S
C251 O262 1.251 . S
C251 O263 1.251 . S
O252 C232 1.257 . S
O252 Eu233 2.473 . S
O253 C232 1.260 . S
O253 Eu233 2.480 . S
O254 Eu233 2.430 . S
O254 C240 1.259 . S
O255 Eu233 2.670 . S
O255 C240 1.270 . S
O255 Eu243 2.355 . S
O256 Eu233 2.394 . S
O256 C241 1.251 . S
O257 C241 1.251 . S
O257 Eu243 2.374 . S
O258 C242 1.257 . S
O258 Eu243 2.473 . S
O259 C242 1.260 . S
O259 Eu243 2.480 . S
O260 Eu243 2.430 . S
O260 C250 1.259 . S
O261 Eu233 2.355 . S
O261 Eu243 2.670 . S
O261 C250 1.270 . S
O262 Eu243 2.394 . S
O262 C251 1.251 . S
O263 Eu233 2.374 . S
O263 C251 1.251 . S
H264 C235 0.931 . S
H265 C236 0.931 . S
H266 C238 0.931 . S
H267 C239 0.931 . S
H268 C245 0.931 . S
H269 C246 0.931 . S
H270 C248 0.931 . S
H271 C249 0.931 . S
C272 Eu273 2.835 . S
C272 C274 1.500 . S
C272 O292 1.257 . S
C272 O293 1.260 . S
Eu273 C272 2.835 . S
Eu273 O292 2.473 . S
Eu273 O293 2.480 . S
Eu273 O294 2.430 . S
Eu273 O295 2.670 1_455 S
Eu273 O296 2.394 . S
Eu273 O301 2.355 . S
Eu273 O303 2.374 1_455 S
C274 C272 1.500 . S
C274 C275 1.377 . S
C274 C279 1.377 . S
C275 C274 1.377 . S
C275 C276 1.395 . S
C275 H304 0.931 . S
C276 C275 1.395 . S
C276 C277 1.383 . S
C276 H305 0.931 . S
C277 C276 1.383 . S
C277 C278 1.394 . S
C278 C277 1.394 . S
C278 C279 1.378 . S
C278 H306 0.931 . S
C279 C274 1.377 . S
C279 C278 1.378 . S
C279 H307 0.931 . S
C280 O294 1.283 . S
C280 O295 1.253 1_455 S
C281 O296 1.251 . S
C281 O297 1.251 . S
C282 Eu283 2.835 . S
C282 C284 1.500 . S
C282 O298 1.257 . S
C282 O299 1.260 . S
Eu283 C282 2.835 . S
Eu283 O295 2.355 . S
Eu283 O297 2.374 1_655 S
Eu283 O298 2.473 . S
Eu283 O299 2.480 . S
Eu283 O300 2.430 . S
Eu283 O301 2.670 1_655 S
Eu283 O302 2.394 . S
C284 C282 1.500 . S
C284 C285 1.377 . S
C284 C289 1.377 . S
C285 C284 1.377 . S
C285 C286 1.395 . S
C285 H308 0.931 . S
C286 C285 1.395 . S
C286 C287 1.383 . S
C286 H309 0.931 . S
C287 C286 1.383 . S
C287 C288 1.394 . S
C288 C287 1.394 . S
C288 C289 1.378 . S
C288 H310 0.931 . S
C289 C284 1.377 . S
C289 C288 1.378 . S
C289 H311 0.931 . S
C290 O300 1.269 . S
C290 O301 1.262 1_655 S
C291 O302 1.251 . S
C291 O303 1.251 . S
O292 C272 1.257 . S
O292 Eu273 2.473 . S
O293 C272 1.260 . S
O293 Eu273 2.480 . S
O294 Eu273 2.430 . S
O294 C280 1.283 . S
O295 Eu273 2.670 1_655 S
O295 C280 1.253 1_655 S
O295 Eu283 2.355 . S
O296 Eu273 2.394 . S
O296 C281 1.251 . S
O297 C281 1.251 . S
O297 Eu283 2.374 1_455 S
O298 C282 1.257 . S
O298 Eu283 2.473 . S
O299 C282 1.260 . S
O299 Eu283 2.480 . S
O300 Eu283 2.430 . S
O300 C290 1.269 . S
O301 Eu273 2.355 . S
O301 Eu283 2.670 1_455 S
O301 C290 1.262 1_455 S
O302 Eu283 2.394 . S
O302 C291 1.251 . S
O303 Eu273 2.374 1_655 S
O303 C291 1.251 . S
H304 C275 0.931 . S
H305 C276 0.931 . S
H306 C278 0.931 . S
H307 C279 0.931 . S
H308 C285 0.931 . S
H309 C286 0.931 . S
H310 C288 0.931 . S
H311 C289 0.931 . S
C312 C313 1.334 1_565 S
C312 C314 1.327 . S
C312 H337 0.950 . S
C313 C312 1.334 1_545 S
C313 C329 1.364 . S
C314 C312 1.327 . S
C314 C333 1.411 1_565 S
C314 H338 0.950 . S
C315 C332 1.574 . S
C315 C334 1.391 . S
C315 H339 0.949 . S
H316 C320 0.949 . S
C317 C318 1.380 . S
C317 C319 1.327 . S
C317 H340 0.950 . S
C318 C317 1.380 . S
C318 C330 1.319 1_545 S
C319 C317 1.327 . S
C319 C335 1.455 . S
C319 H341 0.950 . S
C320 H316 0.949 . S
C320 C328 1.574 . S
C320 C336 1.343 1_565 S
H321 C329 0.950 . S
H322 C327 0.950 . S
H323 C328 0.949 . S
H324 C330 0.950 . S
H325 C331 0.950 . S
H326 C332 0.949 . S
C327 H322 0.950 . S
C327 C329 1.327 . S
C327 C333 1.447 . S
C328 C320 1.574 . S
C328 H323 0.949 . S
C328 C334 1.346 1_565 S
C329 C313 1.364 . S
C329 H321 0.950 . S
C329 C327 1.327 . S
C330 C318 1.319 1_565 S
C330 H324 0.950 . S
C330 C331 1.327 . S
C331 H325 0.950 . S
C331 C330 1.327 . S
C331 C335 1.403 1_565 S
C332 C315 1.574 . S
C332 H326 0.949 . S
C332 C336 1.394 . S
C333 C314 1.411 1_545 S
C333 C327 1.447 . S
C333 C334 1.523 . S
C334 C315 1.391 . S
C334 C328 1.346 1_545 S
C334 C333 1.523 . S
C335 C319 1.455 . S
C335 C331 1.403 1_545 S
C335 C336 1.523 . S
C336 C320 1.343 1_545 S
C336 C332 1.394 . S
C336 C335 1.523 . S
H337 C312 0.950 . S
H338 C314 0.950 . S
H339 C315 0.949 . S
H340 C317 0.950 . S
H341 C319 0.950 . S
C342 C343 1.349 . S
C342 C344 1.327 . S
C342 H367 0.950 . S
C343 C342 1.349 . S
C343 C359 1.349 . S
C344 C342 1.327 . S
C344 C363 1.429 . S
C344 H368 0.950 . S
C345 C362 1.574 . S
C345 C364 1.368 . S
C345 H369 0.949 . S
H346 C350 0.949 . S
C347 C348 1.349 . S
C347 C349 1.327 . S
C347 H370 0.950 . S
C348 C347 1.349 . S
C348 C360 1.349 . S
C349 C347 1.327 . S
C349 C365 1.429 . S
C349 H371 0.950 . S
C350 H346 0.949 . S
C350 C358 1.574 . S
C350 C366 1.368 . S
H351 C359 0.950 . S
H352 C357 0.950 . S
H353 C358 0.949 . S
H354 C360 0.950 . S
H355 C361 0.950 . S
H356 C362 0.949 . S
C357 H352 0.950 . S
C357 C359 1.327 . S
C357 C363 1.429 . S
C358 C350 1.574 . S
C358 H353 0.949 . S
C358 C364 1.368 . S
C359 C343 1.349 . S
C359 H351 0.950 . S
C359 C357 1.327 . S
C360 C348 1.349 . S
C360 H354 0.950 . S
C360 C361 1.327 . S
C361 H355 0.950 . S
C361 C360 1.327 . S
C361 C365 1.429 . S
C362 C345 1.574 . S
C362 H356 0.949 . S
C362 C366 1.368 . S
C363 C344 1.429 . S
C363 C357 1.429 . S
C363 C364 1.523 . S
C364 C345 1.368 . S
C364 C358 1.368 . S
C364 C363 1.523 . S
C365 C349 1.429 . S
C365 C361 1.429 . S
C365 C366 1.523 . S
C366 C350 1.368 . S
C366 C362 1.368 . S
C366 C365 1.523 . S
H367 C342 0.950 . S
H368 C344 0.950 . S
H369 C345 0.949 . S
H370 C347 0.950 . S
H371 C349 0.950 . S
C372 C373 1.349 . S
C372 C374 1.327 . S
C372 H397 0.950 . S
C373 C372 1.349 . S
C373 C389 1.349 . S
C374 C372 1.327 . S
C374 C393 1.429 . S
C374 H398 0.950 . S
C375 C392 1.574 . S
C375 C394 1.368 . S
C375 H399 0.949 . S
H376 C380 0.949 . S
C377 C378 1.349 . S
C377 C379 1.327 . S
C377 H400 0.950 . S
C378 C377 1.349 . S
C378 C390 1.349 . S
C379 C377 1.327 . S
C379 C395 1.429 . S
C379 H401 0.950 . S
C380 H376 0.949 . S
C380 C388 1.574 . S
C380 C396 1.368 . S
H381 C389 0.950 . S
H382 C387 0.950 . S
H383 C388 0.949 . S
H384 C390 0.950 . S
H385 C391 0.950 . S
H386 C392 0.949 . S
C387 H382 0.950 . S
C387 C389 1.327 . S
C387 C393 1.429 . S
C388 C380 1.574 . S
C388 H383 0.949 . S
C388 C394 1.368 . S
C389 C373 1.349 . S
C389 H381 0.950 . S
C389 C387 1.327 . S
C390 C378 1.349 . S
C390 H384 0.950 . S
C390 C391 1.327 . S
C391 H385 0.950 . S
C391 C390 1.327 . S
C391 C395 1.429 . S
C392 C375 1.574 . S
C392 H386 0.949 . S
C392 C396 1.368 . S
C393 C374 1.429 . S
C393 C387 1.429 . S
C393 C394 1.523 . S
C394 C375 1.368 . S
C394 C388 1.368 . S
C394 C393 1.523 . S
C395 C379 1.429 . S
C395 C391 1.429 . S
C395 C396 1.523 . S
C396 C380 1.368 . S
C396 C392 1.368 . S
C396 C395 1.523 . S
H397 C372 0.950 . S
H398 C374 0.950 . S
H399 C375 0.949 . S
H400 C377 0.950 . S
H401 C379 0.950 . S
C402 C403 1.341 1_655 S
C402 C404 1.327 . S
C402 H427 0.950 . S
C403 C402 1.341 1_455 S
C403 C419 1.357 . S
C404 C402 1.327 . S
C404 C423 1.420 1_655 S
C404 H428 0.950 . S
C405 C422 1.574 . S
C405 C424 1.380 . S
C405 H429 0.949 . S
H406 C410 0.949 . S
C407 C408 1.364 . S
C407 C409 1.327 . S
C407 H430 0.950 . S
C408 C407 1.364 . S
C408 C420 1.335 1_455 S
C409 C407 1.327 . S
C409 C425 1.442 . S
C409 H431 0.950 . S
C410 H406 0.949 . S
C410 C418 1.574 . S
C410 C426 1.356 1_655 S
H411 C419 0.950 . S
H412 C417 0.950 . S
H413 C418 0.949 . S
H414 C420 0.950 . S
H415 C421 0.950 . S
H416 C422 0.949 . S
C417 H412 0.950 . S
C417 C419 1.327 . S
C417 C423 1.438 . S
C418 C410 1.574 . S
C418 H413 0.949 . S
C418 C424 1.358 1_655 S
C419 C403 1.357 . S
C419 H411 0.950 . S
C419 C417 1.327 . S
C420 C408 1.335 1_655 S
C420 H414 0.950 . S
C420 C421 1.327 . S
C421 H415 0.950 . S
C421 C420 1.327 . S
C421 C425 1.417 1_655 S
C422 C405 1.574 . S
C422 H416 0.949 . S
C422 C426 1.381 . S
C423 C404 1.420 1_455 S
C423 C417 1.438 . S
C423 C424 1.523 . S
C424 C405 1.380 . S
C424 C418 1.358 1_455 S
C424 C423 1.523 . S
C425 C409 1.442 . S
C425 C421 1.417 1_455 S
C425 C426 1.523 . S
C426 C410 1.356 1_455 S
C426 C422 1.381 . S
C426 C425 1.523 . S
H427 C402 0.950 . S
H428 C404 0.950 . S
H429 C405 0.949 . S
H430 C407 0.950 . S
H431 C409 0.950 . S
C432 C433 1.348 . S
C432 C434 1.327 . S
C432 H457 0.950 . S
C433 C432 1.348 . S
C433 C449 1.349 1_565 S
C434 C432 1.327 . S
C434 C453 1.432 . S
C434 H458 0.950 . S
C435 C452 1.574 . S
C435 C454 1.362 1_545 S
C435 H459 0.949 . S
H436 C440 0.949 . S
C437 C438 1.332 1_545 S
C437 C439 1.327 . S
C437 H460 0.950 . S
C438 C437 1.332 1_565 S
C438 C450 1.366 . S
C439 C437 1.327 . S
C439 C455 1.417 1_545 S
C439 H461 0.950 . S
C440 H436 0.949 . S
C440 C448 1.574 1_556 S
C440 C456 1.379 . S
H441 C449 0.950 . S
H442 C447 0.950 . S
H443 C448 0.949 . S
H444 C450 0.950 . S
H445 C451 0.950 . S
H446 C452 0.949 . S
C447 H442 0.950 . S
C447 C449 1.327 . S
C447 C453 1.425 1_545 S
C448 C440 1.574 1_554 S
C448 H443 0.949 . S
C448 C454 1.375 . S
C449 C433 1.349 1_545 S
C449 H441 0.950 . S
C449 C447 1.327 . S
C450 C438 1.366 . S
C450 H444 0.950 . S
C450 C451 1.327 . S
C451 H445 0.950 . S
C451 C450 1.327 . S
C451 C455 1.441 . S
C452 C435 1.574 . S
C452 H446 0.949 . S
C452 C456 1.358 1_544 S
C453 C434 1.432 . S
C453 C447 1.425 1_565 S
C453 C454 1.523 . S
C454 C435 1.362 1_565 S
C454 C448 1.375 . S
C454 C453 1.523 . S
C455 C439 1.417 1_565 S
C455 C451 1.441 . S
C455 C456 1.523 . S
C456 C440 1.379 . S
C456 C452 1.358 1_566 S
C456 C455 1.523 . S
H457 C432 0.950 . S
H458 C434 0.950 . S
H459 C435 0.949 . S
H460 C437 0.950 . S
H461 C439 0.950 . S
C462 C463 1.349 . S
C462 C464 1.327 . S
C462 H487 0.950 . S
C463 C462 1.349 . S
C463 C479 1.349 . S
C464 C462 1.327 . S
C464 C483 1.429 . S
C464 H488 0.950 . S
C465 C482 1.574 . S
C465 C484 1.368 . S
C465 H489 0.949 . S
H466 C470 0.949 . S
C467 C468 1.349 . S
C467 C469 1.327 . S
C467 H490 0.950 . S
C468 C467 1.349 . S
C468 C480 1.349 . S
C469 C467 1.327 . S
C469 C485 1.429 . S
C469 H491 0.950 . S
C470 H466 0.949 . S
C470 C478 1.574 1_556 S
C470 C486 1.368 . S
H471 C479 0.950 . S
H472 C477 0.950 . S
H473 C478 0.949 1_556 S
H474 C480 0.950 . S
H475 C481 0.950 . S
H476 C482 0.949 . S
C477 H472 0.950 . S
C477 C479 1.327 . S
C477 C483 1.429 . S
C478 C470 1.574 1_554 S
C478 H473 0.949 1_554 S
C478 C484 1.368 . S
C479 C463 1.349 . S
C479 H471 0.950 . S
C479 C477 1.327 . S
C480 C468 1.349 . S
C480 H474 0.950 . S
C480 C481 1.327 . S
C481 H475 0.950 . S
C481 C480 1.327 . S
C481 C485 1.429 . S
C482 C465 1.574 . S
C482 H476 0.949 . S
C482 C486 1.368 1_554 S
C483 C464 1.429 . S
C483 C477 1.429 . S
C483 C484 1.523 . S
C484 C465 1.368 . S
C484 C478 1.368 . S
C484 C483 1.523 . S
C485 C469 1.429 . S
C485 C481 1.429 . S
C485 C486 1.523 . S
C486 C470 1.368 . S
C486 C482 1.368 1_556 S
C486 C485 1.523 . S
H487 C462 0.950 . S
H488 C464 0.950 . S
H489 C465 0.949 . S
H490 C467 0.950 . S
H491 C469 0.950 . S
C492 C493 1.349 . S
C492 C494 1.327 . S
C492 H517 0.950 . S
C493 C492 1.349 . S
C493 C509 1.349 . S
C494 C492 1.327 . S
C494 C513 1.429 . S
C494 H518 0.950 . S
C495 C512 1.574 1_554 S
C495 C514 1.368 . S
C495 H519 0.949 . S
H496 C500 0.949 . S
C497 C498 1.349 . S
C497 C499 1.327 . S
C497 H520 0.950 . S
C498 C497 1.349 . S
C498 C510 1.349 . S
C499 C497 1.327 . S
C499 C515 1.429 . S
C499 H521 0.950 . S
C500 H496 0.949 . S
C500 C508 1.574 . S
C500 C516 1.368 1_554 S
H501 C509 0.950 . S
H502 C507 0.950 . S
H503 C508 0.949 . S
H504 C510 0.950 . S
H505 C511 0.950 . S
H506 C512 0.949 . S
C507 H502 0.950 . S
C507 C509 1.327 . S
C507 C513 1.429 . S
C508 C500 1.574 . S
C508 H503 0.949 . S
C508 C514 1.368 . S
C509 C493 1.349 . S
C509 H501 0.950 . S
C509 C507 1.327 . S
C510 C498 1.349 . S
C510 H504 0.950 . S
C510 C511 1.327 . S
C511 H505 0.950 . S
C511 C510 1.327 . S
C511 C515 1.429 . S
C512 C495 1.574 1_556 S
C512 H506 0.949 . S
C512 C516 1.368 . S
C513 C494 1.429 . S
C513 C507 1.429 . S
C513 C514 1.523 . S
C514 C495 1.368 . S
C514 C508 1.368 . S
C514 C513 1.523 . S
C515 C499 1.429 . S
C515 C511 1.429 . S
C515 C516 1.523 . S
C516 C500 1.368 1_556 S
C516 C512 1.368 . S
C516 C515 1.523 . S
H517 C492 0.950 . S
H518 C494 0.950 . S
H519 C495 0.949 . S
H520 C497 0.950 . S
H521 C499 0.950 . S
C522 C523 1.348 1_455 S
C522 C524 1.327 . S
C522 H547 0.950 . S
C523 C522 1.348 1_655 S
C523 C539 1.350 . S
C524 C522 1.327 . S
C524 C543 1.425 1_455 S
C524 H548 0.950 . S
C525 C542 1.574 . S
C525 C544 1.374 . S
C525 H549 0.949 . S
H526 C530 0.949 . S
C527 C528 1.361 . S
C527 C529 1.327 . S
C527 H550 0.950 . S
C528 C527 1.361 . S
C528 C540 1.337 1_655 S
C529 C527 1.327 . S
C529 C545 1.438 . S
C529 H551 0.950 . S
C530 H526 0.949 . S
C530 C538 1.574 1_556 S
C530 C546 1.360 1_455 S
H531 C539 0.950 . S
H532 C537 0.950 . S
H533 C538 0.949 . S
H534 C540 0.950 . S
H535 C541 0.950 . S
H536 C542 0.949 . S
C537 H532 0.950 . S
C537 C539 1.327 . S
C537 C543 1.432 . S
C538 C530 1.574 1_554 S
C538 H533 0.949 . S
C538 C544 1.363 1_455 S
C539 C523 1.350 . S
C539 H531 0.950 . S
C539 C537 1.327 . S
C540 C528 1.337 1_455 S
C540 H534 0.950 . S
C540 C541 1.327 . S
C541 H535 0.950 . S
C541 C540 1.327 . S
C541 C545 1.419 1_455 S
C542 C525 1.574 . S
C542 H536 0.949 . S
C542 C546 1.377 1_554 S
C543 C524 1.425 1_655 S
C543 C537 1.432 . S
C543 C544 1.523 . S
C544 C525 1.374 . S
C544 C538 1.363 1_655 S
C544 C543 1.523 . S
C545 C529 1.438 . S
C545 C541 1.419 1_655 S
C545 C546 1.523 . S
C546 C530 1.360 1_655 S
C546 C542 1.377 1_556 S
C546 C545 1.523 . S
H547 C522 0.950 . S
H548 C524 0.950 . S
H549 C525 0.949 . S
H550 C527 0.950 . S
H551 C529 0.950 . S
C552 C553 1.349 . S
C552 C554 1.327 . S
C552 H577 0.950 . S
C553 C552 1.349 . S
C553 C569 1.349 1_455 S
C554 C552 1.327 . S
C554 C573 1.429 1_455 S
C554 H578 0.950 . S
C555 C572 1.574 . S
C555 C574 1.368 . S
C555 H579 0.949 . S
H556 C560 0.949 . S
C557 C558 1.349 . S
C557 C559 1.327 . S
C557 H580 0.950 . S
C558 C557 1.349 . S
C558 C570 1.349 . S
C559 C557 1.327 . S
C559 C575 1.429 . S
C559 H581 0.950 . S
C560 H556 0.949 . S
C560 C568 1.574 . S
C560 C576 1.368 1_455 S
H561 C569 0.950 . S
H562 C567 0.950 . S
H563 C568 0.949 . S
H564 C570 0.950 1_455 S
H565 C571 0.950 1_455 S
H566 C572 0.949 . S
C567 H562 0.950 . S
C567 C569 1.327 . S
C567 C573 1.429 . S
C568 C560 1.574 . S
C568 H563 0.949 . S
C568 C574 1.368 1_455 S
C569 C553 1.349 1_655 S
C569 H561 0.950 . S
C569 C567 1.327 . S
C570 C558 1.349 . S
C570 H564 0.950 1_655 S
C570 C571 1.327 . S
C571 H565 0.950 1_655 S
C571 C570 1.327 . S
C571 C575 1.429 . S
C572 C555 1.574 . S
C572 H566 0.949 . S
C572 C576 1.368 . S
C573 C554 1.429 1_655 S
C573 C567 1.429 . S
C573 C574 1.523 . S
C574 C555 1.368 . S
C574 C568 1.368 1_655 S
C574 C573 1.523 . S
C575 C559 1.429 . S
C575 C571 1.429 . S
C575 C576 1.523 . S
C576 C560 1.368 1_655 S
C576 C572 1.368 . S
C576 C575 1.523 . S
H577 C552 0.950 . S
H578 C554 0.950 . S
H579 C555 0.949 . S
H580 C557 0.950 . S
H581 C559 0.950 . S
C582 C583 1.349 . S
C582 C584 1.327 . S
C582 H607 0.950 . S
C583 C582 1.349 . S
C583 C599 1.349 1_545 S
C584 C582 1.327 . S
C584 C603 1.429 1_545 S
C584 H608 0.950 . S
C585 C602 1.574 . S
C585 C604 1.368 . S
C585 H609 0.949 . S
H586 C590 0.949 . S
C587 C588 1.349 . S
C587 C589 1.327 . S
C587 H610 0.950 . S
C588 C587 1.349 . S
C588 C600 1.349 . S
C589 C587 1.327 . S
C589 C605 1.429 . S
C589 H611 0.950 . S
C590 H586 0.949 . S
C590 C598 1.574 . S
C590 C606 1.368 1_545 S
H591 C599 0.950 . S
H592 C597 0.950 . S
H593 C598 0.949 . S
H594 C600 0.950 1_545 S
H595 C601 0.950 . S
H596 C602 0.949 . S
C597 H592 0.950 . S
C597 C599 1.327 . S
C597 C603 1.429 . S
C598 C590 1.574 . S
C598 H593 0.949 . S
C598 C604 1.368 1_545 S
C599 C583 1.349 1_565 S
C599 H591 0.950 . S
C599 C597 1.327 . S
C600 C588 1.349 . S
C600 H594 0.950 1_565 S
C600 C601 1.327 1_565 S
C601 H595 0.950 . S
C601 C600 1.327 1_545 S
C601 C605 1.429 1_545 S
C602 C585 1.574 . S
C602 H596 0.949 . S
C602 C606 1.368 . S
C603 C584 1.429 1_565 S
C603 C597 1.429 . S
C603 C604 1.523 . S
C604 C585 1.368 . S
C604 C598 1.368 1_565 S
C604 C603 1.523 . S
C605 C589 1.429 . S
C605 C601 1.429 1_565 S
C605 C606 1.523 . S
C606 C590 1.368 1_565 S
C606 C602 1.368 . S
C606 C605 1.523 . S
H607 C582 0.950 . S
H608 C584 0.950 . S
H609 C585 0.949 . S
H610 C587 0.950 . S
H611 C589 0.950 . S
C612 C613 1.349 . S
C612 C614 1.327 . S
C612 H637 0.950 . S
C613 C612 1.349 . S
C613 C629 1.349 . S
C614 C612 1.327 . S
C614 C633 1.429 . S
C614 H638 0.950 . S
C615 C632 1.574 . S
C615 C634 1.368 . S
C615 H639 0.949 . S
H616 C620 0.949 . S
C617 C618 1.349 . S
C617 C619 1.327 . S
C617 H640 0.950 . S
C618 C617 1.349 . S
C618 C630 1.349 . S
C619 C617 1.327 . S
C619 C635 1.429 . S
C619 H641 0.950 . S
C620 H616 0.949 . S
C620 C628 1.574 . S
C620 C636 1.368 . S
H621 C629 0.950 . S
H622 C627 0.950 . S
H623 C628 0.949 . S
H624 C630 0.950 . S
H625 C631 0.950 . S
H626 C632 0.949 . S
C627 H622 0.950 . S
C627 C629 1.327 . S
C627 C633 1.429 . S
C628 C620 1.574 . S
C628 H623 0.949 . S
C628 C634 1.368 . S
C629 C613 1.349 . S
C629 H621 0.950 . S
C629 C627 1.327 . S
C630 C618 1.349 . S
C630 H624 0.950 . S
C630 C631 1.327 . S
C631 H625 0.950 . S
C631 C630 1.327 . S
C631 C635 1.429 . S
C632 C615 1.574 . S
C632 H626 0.949 . S
C632 C636 1.368 . S
C633 C614 1.429 . S
C633 C627 1.429 . S
C633 C634 1.523 . S
C634 C615 1.368 . S
C634 C628 1.368 . S
C634 C633 1.523 . S
C635 C619 1.429 . S
C635 C631 1.429 . S
C635 C636 1.523 . S
C636 C620 1.368 . S
C636 C632 1.368 . S
C636 C635 1.523 . S
H637 C612 0.950 . S
H638 C614 0.950 . S
H639 C615 0.949 . S
H640 C617 0.950 . S
H641 C619 0.950 . S
C642 C643 1.349 . S
C642 C644 1.327 . S
C642 H667 0.950 . S
C643 C642 1.349 . S
C643 C659 1.349 . S
C644 C642 1.327 . S
C644 C663 1.429 . S
C644 H668 0.950 . S
C645 C662 1.574 . S
C645 C664 1.368 . S
C645 H669 0.949 . S
H646 C650 0.949 . S
C647 C648 1.349 . S
C647 C649 1.327 . S
C647 H670 0.950 . S
C648 C647 1.349 . S
C648 C660 1.349 . S
C649 C647 1.327 . S
C649 C665 1.429 . S
C649 H671 0.950 . S
C650 H646 0.949 . S
C650 C658 1.574 . S
C650 C666 1.368 . S
H651 C659 0.950 . S
H652 C657 0.950 . S
H653 C658 0.949 . S
H654 C660 0.950 . S
H655 C661 0.950 . S
H656 C662 0.949 . S
C657 H652 0.950 . S
C657 C659 1.327 . S
C657 C663 1.429 . S
C658 C650 1.574 . S
C658 H653 0.949 . S
C658 C664 1.368 . S
C659 C643 1.349 . S
C659 H651 0.950 . S
C659 C657 1.327 . S
C660 C648 1.349 . S
C660 H654 0.950 . S
C660 C661 1.327 . S
C661 H655 0.950 . S
C661 C660 1.327 . S
C661 C665 1.429 . S
C662 C645 1.574 . S
C662 H656 0.949 . S
C662 C666 1.368 . S
C663 C644 1.429 . S
C663 C657 1.429 . S
C663 C664 1.523 . S
C664 C645 1.368 . S
C664 C658 1.368 . S
C664 C663 1.523 . S
C665 C649 1.429 . S
C665 C661 1.429 . S
C665 C666 1.523 . S
C666 C650 1.368 . S
C666 C662 1.368 . S
C666 C665 1.523 . S
H667 C642 0.950 . S
H668 C644 0.950 . S
H669 C645 0.949 . S
H670 C647 0.950 . S
H671 C649 0.950 . S
C672 C673 1.373 . S
C672 C674 1.327 . S
C672 H697 0.950 . S
C673 C672 1.373 . S
C673 C689 1.320 1_655 S
C674 C672 1.327 . S
C674 C693 1.429 1_655 S
C674 H698 0.950 . S
C675 C692 1.574 . S
C675 C694 1.368 . S
C675 H699 0.949 . S
H676 C680 0.957 . S
C677 C678 1.349 1_554 S
C677 C679 1.327 . S
C677 H700 0.950 . S
C678 C677 1.349 1_556 S
C678 C690 1.349 . S
C679 C677 1.327 . S
C679 C695 1.429 . S
C679 H701 0.950 . S
C680 H676 0.957 . S
C680 C688 1.576 . S
C680 C696 1.358 1_655 S
H681 C689 0.950 . S
H682 C687 0.950 . S
H683 C688 0.949 . S
H684 C690 0.950 . S
H685 C691 0.950 1_655 S
H686 C692 0.949 . S
C687 H682 0.950 . S
C687 C689 1.327 . S
C687 C693 1.429 . S
C688 C680 1.576 . S
C688 H683 0.949 . S
C688 C694 1.368 1_655 S
C689 C673 1.320 1_455 S
C689 H681 0.950 . S
C689 C687 1.327 . S
C690 C678 1.349 . S
C690 H684 0.950 . S
C690 C691 1.327 . S
C691 H685 0.950 1_455 S
C691 C690 1.327 . S
C691 C695 1.429 1_556 S
C692 C675 1.574 . S
C692 H686 0.949 . S
C692 C696 1.368 . S
C693 C674 1.429 1_455 S
C693 C687 1.429 . S
C693 C694 1.523 . S
C694 C675 1.368 . S
C694 C688 1.368 1_455 S
C694 C693 1.523 . S
C695 C679 1.429 . S
C695 C691 1.429 1_554 S
C695 C696 1.523 . S
C696 C680 1.358 1_455 S
C696 C692 1.368 . S
C696 C695 1.523 . S
H697 C672 0.950 . S
H698 C674 0.950 . S
H699 C675 0.949 . S
H700 C677 0.950 . S
H701 C679 0.950 . S
C702 C703 1.338 1_545 S
C702 C704 1.327 . S
C702 H727 0.950 . S
C703 C702 1.338 1_565 S
C703 C719 1.355 . S
C704 C702 1.327 . S
C704 C723 1.429 . S
C704 H728 0.950 . S
C705 C722 1.574 . S
C705 C724 1.368 . S
C705 H729 0.958 . S
H706 C710 0.949 . S
C707 C708 1.349 . S
C707 C709 1.327 . S
C707 H730 0.950 . S
C708 C707 1.349 . S
C708 C720 1.349 1_556 S
C709 C707 1.327 . S
C709 C725 1.429 1_556 S
C709 H731 0.950 . S
C710 H706 0.949 . S
C710 C718 1.574 . S
C710 C726 1.368 . S
H711 C719 0.950 . S
H712 C717 0.958 . S
H713 C718 0.949 . S
H714 C720 0.950 . S
H715 C721 0.950 . S
H716 C722 0.949 1_556 S
C717 H712 0.958 . S
C717 C719 1.335 . S
C717 C723 1.416 1_565 S
C718 C710 1.574 . S
C718 H713 0.949 . S
C718 C724 1.368 . S
C719 C703 1.355 . S
C719 H711 0.950 . S
C719 C717 1.335 . S
C720 C708 1.349 1_554 S
C720 H714 0.950 . S
C720 C721 1.327 . S
C721 H715 0.950 . S
C721 C720 1.327 . S
C721 C725 1.429 . S
C722 C705 1.574 . S
C722 H716 0.949 1_554 S
C722 C726 1.368 . S
C723 C704 1.429 . S
C723 C717 1.416 1_545 S
C723 C724 1.523 . S
C724 C705 1.368 . S
C724 C718 1.368 . S
C724 C723 1.523 . S
C725 C709 1.429 1_554 S
C725 C721 1.429 . S
C725 C726 1.523 . S
C726 C710 1.368 . S
C726 C722 1.368 . S
C726 C725 1.523 . S
H727 C702 0.950 . S
H728 C704 0.950 . S
H729 C705 0.958 . S
H730 C707 0.950 . S
H731 C709 0.950 . S
C732 C733 1.349 . S
C732 C734 1.327 . S
C732 H757 0.950 . S
C733 C732 1.349 . S
C733 C749 1.349 . S
C734 C732 1.327 . S
C734 C753 1.429 . S
C734 H758 0.950 . S
C735 C752 1.574 . S
C735 C754 1.368 . S
C735 H759 0.949 . S
H736 C740 0.949 . S
C737 C738 1.349 . S
C737 C739 1.327 . S
C737 H760 0.950 . S
C738 C737 1.349 . S
C738 C750 1.349 1_556 S
C739 C737 1.327 . S
C739 C755 1.429 1_556 S
C739 H761 0.950 . S
C740 H736 0.949 . S
C740 C748 1.574 . S
C740 C756 1.368 . S
H741 C749 0.950 . S
H742 C747 0.950 . S
H743 C748 0.949 . S
H744 C750 0.950 . S
H745 C751 0.950 . S
H746 C752 0.949 1_556 S
C747 H742 0.950 . S
C747 C749 1.327 . S
C747 C753 1.429 . S
C748 C740 1.574 . S
C748 H743 0.949 . S
C748 C754 1.368 . S
C749 C733 1.349 . S
C749 H741 0.950 . S
C749 C747 1.327 . S
C750 C738 1.349 1_554 S
C750 H744 0.950 . S
C750 C751 1.327 . S
C751 H745 0.950 . S
C751 C750 1.327 . S
C751 C755 1.429 . S
C752 C735 1.574 . S
C752 H746 0.949 1_554 S
C752 C756 1.368 . S
C753 C734 1.429 . S
C753 C747 1.429 . S
C753 C754 1.523 . S
C754 C735 1.368 . S
C754 C748 1.368 . S
C754 C753 1.523 . S
C755 C739 1.429 1_554 S
C755 C751 1.429 . S
C755 C756 1.523 . S
C756 C740 1.368 . S
C756 C752 1.368 . S
C756 C755 1.523 . S
H757 C732 0.950 . S
H758 C734 0.950 . S
H759 C735 0.949 . S
H760 C737 0.950 . S
H761 C739 0.950 . S
C762 C763 1.349 . S
C762 C764 1.327 . S
C762 H787 0.950 . S
C763 C762 1.349 . S
C763 C779 1.349 . S
C764 C762 1.327 . S
C764 C783 1.429 . S
C764 H788 0.950 . S
C765 C782 1.574 . S
C765 C784 1.368 . S
C765 H789 0.949 . S
H766 C770 0.949 . S
C767 C768 1.349 . S
C767 C769 1.327 . S
C767 H790 0.950 . S
C768 C767 1.349 . S
C768 C780 1.349 1_556 S
C769 C767 1.327 . S
C769 C785 1.429 1_556 S
C769 H791 0.950 . S
C770 H766 0.949 . S
C770 C778 1.574 . S
C770 C786 1.368 . S
H771 C779 0.950 . S
H772 C777 0.950 . S
H773 C778 0.949 . S
H774 C780 0.950 . S
H775 C781 0.950 . S
H776 C782 0.949 . S
C777 H772 0.950 . S
C777 C779 1.327 . S
C777 C783 1.429 . S
C778 C770 1.574 . S
C778 H773 0.949 . S
C778 C784 1.368 . S
C779 C763 1.349 . S
C779 H771 0.950 . S
C779 C777 1.327 . S
C780 C768 1.349 1_554 S
C780 H774 0.950 . S
C780 C781 1.327 . S
C781 H775 0.950 . S
C781 C780 1.327 . S
C781 C785 1.429 . S
C782 C765 1.574 . S
C782 H776 0.949 . S
C782 C786 1.368 . S
C783 C764 1.429 . S
C783 C777 1.429 . S
C783 C784 1.523 . S
C784 C765 1.368 . S
C784 C778 1.368 . S
C784 C783 1.523 . S
C785 C769 1.429 1_554 S
C785 C781 1.429 . S
C785 C786 1.523 . S
C786 C770 1.368 . S
C786 C782 1.368 . S
C786 C785 1.523 . S
H787 C762 0.950 . S
H788 C764 0.950 . S
H789 C765 0.949 . S
H790 C767 0.950 . S
H791 C769 0.950 . S
C792 C793 1.349 . S
C792 C794 1.327 . S
C792 H817 0.950 . S
C793 C792 1.349 . S
C793 C809 1.349 1_455 S
C794 C792 1.327 . S
C794 C813 1.429 . S
C794 H818 0.950 . S
C795 C812 1.574 . S
C795 C814 1.368 1_655 S
C795 H819 0.949 . S
H796 C800 0.949 . S
C797 C798 1.349 1_655 S
C797 C799 1.327 . S
C797 H820 0.950 . S
C798 C797 1.349 1_455 S
C798 C810 1.349 . S
C799 C797 1.327 . S
C799 C815 1.429 1_655 S
C799 H821 0.950 . S
C800 H796 0.949 . S
C800 C808 1.574 . S
C800 C816 1.368 . S
H801 C809 0.950 . S
H802 C807 0.950 . S
H803 C808 0.949 . S
H804 C810 0.950 . S
H805 C811 0.950 . S
H806 C812 0.949 . S
C807 H802 0.950 . S
C807 C809 1.327 . S
C807 C813 1.429 1_655 S
C808 C800 1.574 . S
C808 H803 0.949 . S
C808 C814 1.368 . S
C809 C793 1.349 1_655 S
C809 H801 0.950 . S
C809 C807 1.327 . S
C810 C798 1.349 . S
C810 H804 0.950 . S
C810 C811 1.327 . S
C811 H805 0.950 . S
C811 C810 1.327 . S
C811 C815 1.429 . S
C812 C795 1.574 . S
C812 H806 0.949 . S
C812 C816 1.368 1_655 S
C813 C794 1.429 . S
C813 C807 1.429 1_455 S
C813 C814 1.523 . S
C814 C795 1.368 1_455 S
C814 C808 1.368 . S
C814 C813 1.523 . S
C815 C799 1.429 1_455 S
C815 C811 1.429 . S
C815 C816 1.523 . S
C816 C800 1.368 . S
C816 C812 1.368 1_455 S
C816 C815 1.523 . S
H817 C792 0.950 . S
H818 C794 0.950 . S
H819 C795 0.949 . S
H820 C797 0.950 . S
H821 C799 0.950 . S
C822 C823 1.396 . S
C822 C824 1.327 . S
C822 H847 0.950 . S
C823 C822 1.396 . S
C823 C839 1.305 1_545 S
C824 C822 1.327 . S
C824 C843 1.429 . S
C824 H848 0.950 . S
C825 C842 1.574 . S
C825 C844 1.368 1_565 S
C825 H849 0.949 . S
H826 C830 0.949 . S
C827 C828 1.349 1_565 S
C827 C829 1.327 . S
C827 H850 0.950 . S
C828 C827 1.349 1_545 S
C828 C840 1.349 . S
C829 C827 1.327 . S
C829 C845 1.429 1_565 S
C829 H851 0.950 . S
C830 H826 0.949 . S
C830 C838 1.574 . S
C830 C846 1.368 . S
H831 C839 0.950 . S
H832 C837 0.950 . S
H833 C838 0.949 . S
H834 C840 0.950 . S
H835 C841 0.950 . S
H836 C842 0.949 . S
C837 H832 0.950 . S
C837 C839 1.327 . S
C837 C843 1.429 1_565 S
C838 C830 1.574 . S
C838 H833 0.949 . S
C838 C844 1.368 . S
C839 C823 1.305 1_565 S
C839 H831 0.950 . S
C839 C837 1.327 . S
C840 C828 1.349 . S
C840 H834 0.950 . S
C840 C841 1.327 . S
C841 H835 0.950 . S
C841 C840 1.327 . S
C841 C845 1.429 . S
C842 C825 1.574 . S
C842 H836 0.949 . S
C842 C846 1.368 1_565 S
C843 C824 1.429 . S
C843 C837 1.429 1_545 S
C843 C844 1.523 . S
C844 C825 1.368 1_545 S
C844 C838 1.368 . S
C844 C843 1.523 . S
C845 C829 1.429 1_545 S
C845 C841 1.429 . S
C845 C846 1.523 . S
C846 C830 1.368 . S
C846 C842 1.368 1_545 S
C846 C845 1.523 . S
H847 C822 0.950 . S
H848 C824 0.950 . S
H849 C825 0.949 . S
H850 C827 0.950 . S
H851 C829 0.950 . S
C852 C853 1.349 . S
C852 C854 1.327 . S
C852 H877 0.950 . S
C853 C852 1.349 . S
C853 C869 1.349 . S
C854 C852 1.327 . S
C854 C873 1.429 . S
C854 H878 0.950 . S
C855 C872 1.574 . S
C855 C874 1.368 . S
C855 H879 0.949 . S
H856 C860 0.949 . S
C857 C858 1.349 . S
C857 C859 1.327 . S
C857 H880 0.950 . S
C858 C857 1.349 . S
C858 C870 1.349 . S
C859 C857 1.327 . S
C859 C875 1.429 . S
C859 H881 0.950 . S
C860 H856 0.949 . S
C860 C868 1.574 . S
C860 C876 1.368 . S
H861 C869 0.950 . S
H862 C867 0.950 . S
H863 C868 0.949 . S
H864 C870 0.950 . S
H865 C871 0.950 . S
H866 C872 0.949 . S
C867 H862 0.950 . S
C867 C869 1.327 . S
C867 C873 1.429 . S
C868 C860 1.574 . S
C868 H863 0.949 . S
C868 C874 1.368 . S
C869 C853 1.349 . S
C869 H861 0.950 . S
C869 C867 1.327 . S
C870 C858 1.349 . S
C870 H864 0.950 . S
C870 C871 1.327 . S
C871 H865 0.950 . S
C871 C870 1.327 . S
C871 C875 1.429 . S
C872 C855 1.574 . S
C872 H866 0.949 . S
C872 C876 1.368 . S
C873 C854 1.429 . S
C873 C867 1.429 . S
C873 C874 1.523 . S
C874 C855 1.368 . S
C874 C868 1.368 . S
C874 C873 1.523 . S
C875 C859 1.429 . S
C875 C871 1.429 . S
C875 C876 1.523 . S
C876 C860 1.368 . S
C876 C872 1.368 . S
C876 C875 1.523 . S
H877 C852 0.950 . S
H878 C854 0.950 . S
H879 C855 0.949 . S
H880 C857 0.950 . S
H881 C859 0.950 . S
C882 C883 1.349 . S
C882 C884 1.327 . S
C882 H907 0.950 . S
C883 C882 1.349 . S
C883 C899 1.349 . S
C884 C882 1.327 . S
C884 C903 1.429 . S
C884 H908 0.950 . S
C885 C902 1.574 . S
C885 C904 1.368 . S
C885 H909 0.949 . S
H886 C890 0.949 . S
C887 C888 1.349 . S
C887 C889 1.327 . S
C887 H910 0.950 . S
C888 C887 1.349 . S
C888 C900 1.349 . S
C889 C887 1.327 . S
C889 C905 1.429 . S
C889 H911 0.950 . S
C890 H886 0.949 . S
C890 C898 1.574 . S
C890 C906 1.368 . S
H891 C899 0.950 . S
H892 C897 0.950 . S
H893 C898 0.949 . S
H894 C900 0.950 . S
H895 C901 0.950 . S
H896 C902 0.949 . S
C897 H892 0.950 . S
C897 C899 1.327 . S
C897 C903 1.429 . S
C898 C890 1.574 . S
C898 H893 0.949 . S
C898 C904 1.368 . S
C899 C883 1.349 . S
C899 H891 0.950 . S
C899 C897 1.327 . S
C900 C888 1.349 . S
C900 H894 0.950 . S
C900 C901 1.327 . S
C901 H895 0.950 . S
C901 C900 1.327 . S
C901 C905 1.429 . S
C902 C885 1.574 . S
C902 H896 0.949 . S
C902 C906 1.368 . S
C903 C884 1.429 . S
C903 C897 1.429 . S
C903 C904 1.523 . S
C904 C885 1.368 . S
C904 C898 1.368 . S
C904 C903 1.523 . S
C905 C889 1.429 . S
C905 C901 1.429 . S
C905 C906 1.523 . S
C906 C890 1.368 . S
C906 C902 1.368 . S
C906 C905 1.523 . S
H907 C882 0.950 . S
H908 C884 0.950 . S
H909 C885 0.949 . S
H910 C887 0.950 . S
H911 C889 0.950 . S
C912 C913 1.377 . S
C912 C914 1.327 . S
C912 H937 0.950 . S
C913 C912 1.377 . S
C913 C929 1.323 1_655 S
C914 C912 1.327 . S
C914 C933 1.429 . S
C914 H938 0.950 . S
C915 C932 1.574 . S
C915 C934 1.368 1_455 S
C915 H939 0.949 . S
H916 C920 0.949 . S
C917 C918 1.349 1_455 S
C917 C919 1.327 . S
C917 H940 0.950 . S
C918 C917 1.349 1_655 S
C918 C930 1.349 . S
C919 C917 1.327 . S
C919 C935 1.429 1_455 S
C919 H941 0.950 . S
C920 H916 0.949 . S
C920 C928 1.574 . S
C920 C936 1.368 . S
H921 C929 0.950 . S
H922 C927 0.950 . S
H923 C928 0.949 . S
H924 C930 0.950 . S
H925 C931 0.950 . S
H926 C932 0.949 . S
C927 H922 0.950 . S
C927 C929 1.327 . S
C927 C933 1.429 1_455 S
C928 C920 1.574 . S
C928 H923 0.949 . S
C928 C934 1.368 . S
C929 C913 1.323 1_455 S
C929 H921 0.950 . S
C929 C927 1.327 . S
C930 C918 1.349 . S
C930 H924 0.950 . S
C930 C931 1.327 . S
C931 H925 0.950 . S
C931 C930 1.327 . S
C931 C935 1.429 . S
C932 C915 1.574 . S
C932 H926 0.949 . S
C932 C936 1.368 1_455 S
C933 C914 1.429 . S
C933 C927 1.429 1_655 S
C933 C934 1.523 . S
C934 C915 1.368 1_655 S
C934 C928 1.368 . S
C934 C933 1.523 . S
C935 C919 1.429 1_655 S
C935 C931 1.429 . S
C935 C936 1.523 . S
C936 C920 1.368 . S
C936 C932 1.368 1_655 S
C936 C935 1.523 . S
H937 C912 0.950 . S
H938 C914 0.950 . S
H939 C915 0.949 . S
H940 C917 0.950 . S
H941 C919 0.950 . S
C942 C943 1.380 . S
C942 C944 1.327 . S
C942 H967 0.950 . S
C943 C942 1.380 . S
C943 C959 1.320 1_565 S
C944 C942 1.327 . S
C944 C963 1.429 . S
C944 H968 0.950 . S
C945 C962 1.574 . S
C945 C964 1.368 1_545 S
C945 H969 0.949 . S
H946 C950 0.949 . S
C947 C948 1.349 1_545 S
C947 C949 1.327 . S
C947 H970 0.950 . S
C948 C947 1.349 1_565 S
C948 C960 1.349 . S
C949 C947 1.327 . S
C949 C965 1.429 1_545 S
C949 H971 0.950 . S
C950 H946 0.949 . S
C950 C958 1.574 . S
C950 C966 1.368 . S
H951 C959 0.950 . S
H952 C957 0.950 . S
H953 C958 0.949 . S
H954 C960 0.950 . S
H955 C961 0.950 . S
H956 C962 0.949 . S
C957 H952 0.950 . S
C957 C959 1.327 . S
C957 C963 1.429 1_545 S
C958 C950 1.574 . S
C958 H953 0.949 . S
C958 C964 1.368 . S
C959 C943 1.320 1_545 S
C959 H951 0.950 . S
C959 C957 1.327 . S
C960 C948 1.349 . S
C960 H954 0.950 . S
C960 C961 1.327 . S
C961 H955 0.950 . S
C961 C960 1.327 . S
C961 C965 1.429 . S
C962 C945 1.574 . S
C962 H956 0.949 . S
C962 C966 1.368 1_545 S
C963 C944 1.429 . S
C963 C957 1.429 1_565 S
C963 C964 1.523 . S
C964 C945 1.368 1_565 S
C964 C958 1.368 . S
C964 C963 1.523 . S
C965 C949 1.429 1_565 S
C965 C961 1.429 . S
C965 C966 1.523 . S
C966 C950 1.368 . S
C966 C962 1.368 1_565 S
C966 C965 1.523 . S
H967 C942 0.950 . S
H968 C944 0.950 . S
H969 C945 0.949 . S
H970 C947 0.950 . S
H971 C949 0.950 . S
C972 C973 1.349 . S
C972 C974 1.327 . S
C972 H997 0.950 . S
C973 C972 1.349 . S
C973 C989 1.349 . S
C974 C972 1.327 . S
C974 C993 1.429 . S
C974 H998 0.950 . S
C975 C992 1.574 . S
C975 C994 1.368 . S
C975 H999 0.949 . S
H976 C980 0.949 . S
C977 C978 1.349 . S
C977 C979 1.327 . S
C977 H1000 0.950 . S
C978 C977 1.349 . S
C978 C990 1.349 . S
C979 C977 1.327 . S
C979 C995 1.429 . S
C979 H1001 0.950 . S
C980 H976 0.949 . S
C980 C988 1.574 . S
C980 C996 1.368 . S
H981 C989 0.950 . S
H982 C987 0.950 . S
H983 C988 0.949 . S
H984 C990 0.950 . S
H985 C991 0.950 . S
H986 C992 0.949 . S
C987 H982 0.950 . S
C987 C989 1.327 . S
C987 C993 1.429 . S
C988 C980 1.574 . S
C988 H983 0.949 . S
C988 C994 1.368 . S
C989 C973 1.349 . S
C989 H981 0.950 . S
C989 C987 1.327 . S
C990 C978 1.349 . S
C990 H984 0.950 . S
C990 C991 1.327 . S
C991 H985 0.950 . S
C991 C990 1.327 . S
C991 C995 1.429 . S
C992 C975 1.574 . S
C992 H986 0.949 . S
C992 C996 1.368 . S
C993 C974 1.429 . S
C993 C987 1.429 . S
C993 C994 1.523 . S
C994 C975 1.368 . S
C994 C988 1.368 . S
C994 C993 1.523 . S
C995 C979 1.429 . S
C995 C991 1.429 . S
C995 C996 1.523 . S
C996 C980 1.368 . S
C996 C992 1.368 . S
C996 C995 1.523 . S
H997 C972 0.950 . S
H998 C974 0.950 . S
H999 C975 0.949 . S
H1000 C977 0.950 . S
H1001 C979 0.950 . S
C1002 C1003 1.349 . S
C1002 C1004 1.327 . S
C1002 H1027 0.950 . S
C1003 C1002 1.349 . S
C1003 C1019 1.349 . S
C1004 C1002 1.327 . S
C1004 C1023 1.429 . S
C1004 H1028 0.950 . S
C1005 C1022 1.574 . S
C1005 C1024 1.368 . S
C1005 H1029 0.949 . S
H1006 C1010 0.949 . S
C1007 C1008 1.349 . S
C1007 C1009 1.327 . S
C1007 H1030 0.950 . S
C1008 C1007 1.349 . S
C1008 C1020 1.349 . S
C1009 C1007 1.327 . S
C1009 C1025 1.429 . S
C1009 H1031 0.950 . S
C1010 H1006 0.949 . S
C1010 C1018 1.574 . S
C1010 C1026 1.368 . S
H1011 C1019 0.950 . S
H1012 C1017 0.950 . S
H1013 C1018 0.949 . S
H1014 C1020 0.950 . S
H1015 C1021 0.950 . S
H1016 C1022 0.949 . S
C1017 H1012 0.950 . S
C1017 C1019 1.327 . S
C1017 C1023 1.429 . S
C1018 C1010 1.574 . S
C1018 H1013 0.949 . S
C1018 C1024 1.368 . S
C1019 C1003 1.349 . S
C1019 H1011 0.950 . S
C1019 C1017 1.327 . S
C1020 C1008 1.349 . S
C1020 H1014 0.950 . S
C1020 C1021 1.327 . S
C1021 H1015 0.950 . S
C1021 C1020 1.327 . S
C1021 C1025 1.429 . S
C1022 C1005 1.574 . S
C1022 H1016 0.949 . S
C1022 C1026 1.368 . S
C1023 C1004 1.429 . S
C1023 C1017 1.429 . S
C1023 C1024 1.523 . S
C1024 C1005 1.368 . S
C1024 C1018 1.368 . S
C1024 C1023 1.523 . S
C1025 C1009 1.429 . S
C1025 C1021 1.429 . S
C1025 C1026 1.523 . S
C1026 C1010 1.368 . S
C1026 C1022 1.368 . S
C1026 C1025 1.523 . S
H1027 C1002 0.950 . S
H1028 C1004 0.950 . S
H1029 C1005 0.949 . S
H1030 C1007 0.950 . S
H1031 C1009 0.950 . S
C313 C125 1.833 1_545 S
C318 C170 1.874 1_545 S
C348 C210 1.877 . S
C343 C144 1.837 . S
C378 C250 1.876 . S
C373 C87 1.837 . S
C408 C290 1.873 1_455 S
C403 C106 1.831 1_455 S
C438 C160 1.874 1_565 S
C433 C49 1.836 . S
C463 C68 1.836 . S
C468 C200 1.876 . S
C493 C11 1.836 . S
C498 C240 1.876 . S
C523 C30 1.836 . S
C528 C280 1.874 1_655 S
C558 C157 0.369 . S
C553 C97 0.460 . S
C588 C197 0.368 . S
C583 C116 0.459 . S
C618 C237 0.368 . S
C613 C135 0.457 . S
C643 C78 0.457 . S
C648 C277 0.369 . S
C673 C21 0.454 . S
C678 C167 0.367 . S
C708 C207 0.369 . S
C703 C40 0.454 . S
C738 C247 0.369 . S
C733 C59 0.456 . S
C763 C2 0.456 . S
C768 C287 0.368 . S
C793 C101 1.937 . S
C798 C161 2.099 . S
C823 C120 1.936 . S
C828 C201 2.099 . S
C858 C241 2.100 . S
C853 C139 1.938 . S
C888 C281 2.099 . S
C883 C82 1.937 . S
C913 C25 1.936 . S
C918 C171 2.100 . S
C948 C211 2.100 . S
C943 C44 1.937 . S
C978 C251 2.099 . S
C973 C63 1.936 . S
C1003 C6 1.937 . S
C1008 C291 2.099 . S
