# Generated by pormake.
# Topology ctn, (3,4)-cn, num edge types: 1
# Building blocks:
#     Node 0, Type 0, BuildingBlock: QEWDON_clean_linker_0, # of connection points: 3
#     Node 1, Type 0, BuildingBlock: QEWDON_clean_linker_0, # of connection points: 3
#     Node 2, Type 0, BuildingBlock: QEWDON_clean_linker_0, # of connection points: 3
#     Node 3, Type 0, BuildingBlock: QEWDON_clean_linker_0, # of connection points: 3
#     Node 4, Type 0, BuildingBlock: QEWDON_clean_linker_0, # of connection points: 3
#     Node 5, Type 0, BuildingBlock: QEWDON_clean_linker_0, # of connection points: 3
#     Node 6, Type 0, BuildingBlock: QEWDON_clean_linker_0, # of connection points: 3
#     Node 7, Type 0, BuildingBlock: QEWDON_clean_linker_0, # of connection points: 3
#     Node 8, Type 0, BuildingBlock: QEWDON_clean_linker_0, # of connection points: 3
#     Node 9, Type 0, BuildingBlock: QEWDON_clean_linker_0, # of connection points: 3
#     Node 10, Type 0, BuildingBlock: QEWDON_clean_linker_0, # of connection points: 3
#     Node 11, Type 0, BuildingBlock: QEWDON_clean_linker_0, # of connection points: 3
#     Node 12, Type 0, BuildingBlock: QEWDON_clean_linker_0, # of connection points: 3
#     Node 13, Type 0, BuildingBlock: QEWDON_clean_linker_0, # of connection points: 3
#     Node 14, Type 0, BuildingBlock: QEWDON_clean_linker_0, # of connection points: 3
#     Node 15, Type 0, BuildingBlock: QEWDON_clean_linker_0, # of connection points: 3
#     Node 16, Type 1, BuildingBlock: QUQFOY_clean_sbu_1, # of connection points: 4
#     Node 17, Type 1, BuildingBlock: QUQFOY_clean_sbu_1, # of connection points: 4
#     Node 18, Type 1, BuildingBlock: QUQFOY_clean_sbu_1, # of connection points: 4
#     Node 19, Type 1, BuildingBlock: QUQFOY_clean_sbu_1, # of connection points: 4
#     Node 20, Type 1, BuildingBlock: QUQFOY_clean_sbu_1, # of connection points: 4
#     Node 21, Type 1, BuildingBlock: QUQFOY_clean_sbu_1, # of connection points: 4
#     Node 22, Type 1, BuildingBlock: QUQFOY_clean_sbu_1, # of connection points: 4
#     Node 23, Type 1, BuildingBlock: QUQFOY_clean_sbu_1, # of connection points: 4
#     Node 24, Type 1, BuildingBlock: QUQFOY_clean_sbu_1, # of connection points: 4
#     Node 25, Type 1, BuildingBlock: QUQFOY_clean_sbu_1, # of connection points: 4
#     Node 26, Type 1, BuildingBlock: QUQFOY_clean_sbu_1, # of connection points: 4
#     Node 27, Type 1, BuildingBlock: QUQFOY_clean_sbu_1, # of connection points: 4
#     Edge 28, Type (0, 1), BuildingBlock: ZUJKAS_clean_linker_0, # of connection points: 2
#     Edge 29, Type (0, 1), BuildingBlock: ZUJKAS_clean_linker_0, # of connection points: 2
#     Edge 30, Type (0, 1), BuildingBlock: ZUJKAS_clean_linker_0, # of connection points: 2
#     Edge 31, Type (0, 1), BuildingBlock: ZUJKAS_clean_linker_0, # of connection points: 2
#     Edge 32, Type (0, 1), BuildingBlock: ZUJKAS_clean_linker_0, # of connection points: 2
#     Edge 33, Type (0, 1), BuildingBlock: ZUJKAS_clean_linker_0, # of connection points: 2
#     Edge 34, Type (0, 1), BuildingBlock: ZUJKAS_clean_linker_0, # of connection points: 2
#     Edge 35, Type (0, 1), BuildingBlock: ZUJKAS_clean_linker_0, # of connection points: 2
#     Edge 36, Type (0, 1), BuildingBlock: ZUJKAS_clean_linker_0, # of connection points: 2
#     Edge 37, Type (0, 1), BuildingBlock: ZUJKAS_clean_linker_0, # of connection points: 2
#     Edge 38, Type (0, 1), BuildingBlock: ZUJKAS_clean_linker_0, # of connection points: 2
#     Edge 39, Type (0, 1), BuildingBlock: ZUJKAS_clean_linker_0, # of connection points: 2
#     Edge 40, Type (0, 1), BuildingBlock: ZUJKAS_clean_linker_0, # of connection points: 2
#     Edge 41, Type (0, 1), BuildingBlock: ZUJKAS_clean_linker_0, # of connection points: 2
#     Edge 42, Type (0, 1), BuildingBlock: ZUJKAS_clean_linker_0, # of connection points: 2
#     Edge 43, Type (0, 1), BuildingBlock: ZUJKAS_clean_linker_0, # of connection points: 2
#     Edge 44, Type (0, 1), BuildingBlock: ZUJKAS_clean_linker_0, # of connection points: 2
#     Edge 45, Type (0, 1), BuildingBlock: ZUJKAS_clean_linker_0, # of connection points: 2
#     Edge 46, Type (0, 1), BuildingBlock: ZUJKAS_clean_linker_0, # of connection points: 2
#     Edge 47, Type (0, 1), BuildingBlock: ZUJKAS_clean_linker_0, # of connection points: 2
#     Edge 48, Type (0, 1), BuildingBlock: ZUJKAS_clean_linker_0, # of connection points: 2
#     Edge 49, Type (0, 1), BuildingBlock: ZUJKAS_clean_linker_0, # of connection points: 2
#     Edge 50, Type (0, 1), BuildingBlock: ZUJKAS_clean_linker_0, # of connection points: 2
#     Edge 51, Type (0, 1), BuildingBlock: ZUJKAS_clean_linker_0, # of connection points: 2
#     Edge 52, Type (0, 1), BuildingBlock: ZUJKAS_clean_linker_0, # of connection points: 2
#     Edge 53, Type (0, 1), BuildingBlock: ZUJKAS_clean_linker_0, # of connection points: 2
#     Edge 54, Type (0, 1), BuildingBlock: ZUJKAS_clean_linker_0, # of connection points: 2
#     Edge 55, Type (0, 1), BuildingBlock: ZUJKAS_clean_linker_0, # of connection points: 2
#     Edge 56, Type (0, 1), BuildingBlock: ZUJKAS_clean_linker_0, # of connection points: 2
#     Edge 57, Type (0, 1), BuildingBlock: ZUJKAS_clean_linker_0, # of connection points: 2
#     Edge 58, Type (0, 1), BuildingBlock: ZUJKAS_clean_linker_0, # of connection points: 2
#     Edge 59, Type (0, 1), BuildingBlock: ZUJKAS_clean_linker_0, # of connection points: 2
#     Edge 60, Type (0, 1), BuildingBlock: ZUJKAS_clean_linker_0, # of connection points: 2
#     Edge 61, Type (0, 1), BuildingBlock: ZUJKAS_clean_linker_0, # of connection points: 2
#     Edge 62, Type (0, 1), BuildingBlock: ZUJKAS_clean_linker_0, # of connection points: 2
#     Edge 63, Type (0, 1), BuildingBlock: ZUJKAS_clean_linker_0, # of connection points: 2
#     Edge 64, Type (0, 1), BuildingBlock: ZUJKAS_clean_linker_0, # of connection points: 2
#     Edge 65, Type (0, 1), BuildingBlock: ZUJKAS_clean_linker_0, # of connection points: 2
#     Edge 66, Type (0, 1), BuildingBlock: ZUJKAS_clean_linker_0, # of connection points: 2
#     Edge 67, Type (0, 1), BuildingBlock: ZUJKAS_clean_linker_0, # of connection points: 2
#     Edge 68, Type (0, 1), BuildingBlock: ZUJKAS_clean_linker_0, # of connection points: 2
#     Edge 69, Type (0, 1), BuildingBlock: ZUJKAS_clean_linker_0, # of connection points: 2
#     Edge 70, Type (0, 1), BuildingBlock: ZUJKAS_clean_linker_0, # of connection points: 2
#     Edge 71, Type (0, 1), BuildingBlock: ZUJKAS_clean_linker_0, # of connection points: 2
#     Edge 72, Type (0, 1), BuildingBlock: ZUJKAS_clean_linker_0, # of connection points: 2
#     Edge 73, Type (0, 1), BuildingBlock: ZUJKAS_clean_linker_0, # of connection points: 2
#     Edge 74, Type (0, 1), BuildingBlock: ZUJKAS_clean_linker_0, # of connection points: 2
#     Edge 75, Type (0, 1), BuildingBlock: ZUJKAS_clean_linker_0, # of connection points: 2
# Relax obj value: 0.128
# Max RMSD: 0.258
# Mean RMSD: 0.174
data_MOF--net-ctn--node1-QUQFOY_clean_sbu_1--node2-QEWDON_clean_linker_0--edge1-ZUJKAS_clean_linker_0
_symmetry_space_group_name_H-M    P1
_symmetry_Int_Tables_number       1
_symmetry_cell_setting            triclinic
loop_
_symmetry_equiv_pos_as_xyz
'x, y, z'
_cell_length_a     67.69152
_cell_length_b     69.990022
_cell_length_c     75.871163
_cell_angle_alpha  101.30234
_cell_angle_beta   92.051435
_cell_angle_gamma 101.02801
loop_
_atom_site_label
_atom_site_type_symbol
_atom_site_fract_x
_atom_site_fract_y
_atom_site_fract_z
_atom_type_partial_charge
H0 H 0.10846 0.07467 0.07594 0.0
C1 C 0.09781 0.07414 0.08626 0.0
C2 C 0.09253 0.05683 0.09328 0.0
C3 C 0.09036 0.09123 0.09324 0.0
H4 H 0.07494 0.04339 0.11246 0.0
C5 C 0.07911 0.05667 0.10701 0.0
C6 C 0.07132 0.07362 0.11399 0.0
C7 C 0.07719 0.0909 0.10709 0.0
C8 C 0.09711 0.10982 0.08674 0.0
H9 H 0.07132 0.10409 0.11233 0.0
C10 C 0.09388 0.11043 0.06845 0.0
C11 C 0.09994 0.12835 0.06245 0.0
C12 C 0.10667 0.12716 0.09898 0.0
H13 H 0.10932 0.12697 0.11311 0.0
C14 C 0.11306 0.14482 0.09307 0.0
H15 H 0.08641 0.09706 0.059 0.0
C16 C 0.10971 0.14547 0.07497 0.0
H17 H 0.1143 0.15954 0.07086 0.0
H18 H 0.12044 0.15813 0.1026 0.0
H19 H 0.35099 0.76521 0.24912 0.0
C20 C 0.33932 0.75183 0.24675 0.0
C21 C 0.34406 0.73384 0.24932 0.0
C22 C 0.31952 0.75274 0.24129 0.0
H23 H 0.33213 0.7029 0.24873 0.0
C24 C 0.32869 0.71673 0.24638 0.0
C25 C 0.3087 0.71744 0.24133 0.0
C26 C 0.30431 0.73546 0.2384 0.0
C27 C 0.31447 0.77215 0.2402 0.0
H28 H 0.28889 0.73636 0.23492 0.0
C29 C 0.30515 0.77503 0.22431 0.0
C30 C 0.30063 0.79367 0.2234 0.0
C31 C 0.31905 0.78796 0.25523 0.0
H32 H 0.32615 0.78603 0.26762 0.0
C33 C 0.31431 0.80633 0.2545 0.0
H34 H 0.30165 0.76286 0.21267 0.0
C35 C 0.30519 0.80922 0.23872 0.0
H36 H 0.30214 0.82378 0.23837 0.0
H37 H 0.31787 0.81843 0.26617 0.0
H38 H 0.94922 0.43495 0.06296 0.0
C39 C 0.94519 0.44869 0.06099 0.0
C40 C 0.95434 0.46675 0.07247 0.0
C41 C 0.93044 0.44815 0.04734 0.0
H42 H 0.95558 0.49838 0.07907 0.0
C43 C 0.94859 0.48443 0.07018 0.0
C44 C 0.934 0.48422 0.05641 0.0
C45 C 0.92504 0.46594 0.04507 0.0
C46 C 0.92076 0.42901 0.03533 0.0
H47 H 0.91422 0.46556 0.03407 0.0
C48 C 0.93252 0.41549 0.02763 0.0
C49 C 0.92346 0.39735 0.01613 0.0
C50 C 0.89972 0.4242 0.03145 0.0
H51 H 0.8903 0.4343 0.03731 0.0
C52 C 0.89063 0.40616 0.02017 0.0
H53 H 0.94875 0.41913 0.03054 0.0
C54 C 0.90237 0.39279 0.01253 0.0
H55 H 0.89499 0.37904 0.00358 0.0
H56 H 0.87441 0.40256 0.01727 0.0
H57 H 0.79367 0.78688 0.26924 0.0
C58 C 0.79689 0.78023 0.25579 0.0
C59 C 0.80447 0.7925 0.24392 0.0
C60 C 0.79371 0.7594 0.25046 0.0
H61 H 0.81487 0.79295 0.21741 0.0
C62 C 0.8088 0.78366 0.2266 0.0
C63 C 0.8055 0.76291 0.221 0.0
C64 C 0.79789 0.75088 0.23297 0.0
C65 C 0.78642 0.74647 0.26321 0.0
H66 H 0.79535 0.73483 0.2287 0.0
C67 C 0.7702 0.7499 0.27366 0.0
C68 C 0.76293 0.73723 0.28532 0.0
C69 C 0.79556 0.73039 0.2648 0.0
H70 H 0.80825 0.72755 0.2571 0.0
C71 C 0.78856 0.71794 0.27648 0.0
H72 H 0.76279 0.76201 0.27227 0.0
C73 C 0.77232 0.72125 0.28664 0.0
H74 H 0.76718 0.71139 0.29565 0.0
H75 H 0.79575 0.70565 0.27766 0.0
H76 H 0.11048 0.95493 0.4702 0.0
C77 C 0.0989 0.96042 0.4636 0.0
C78 C 0.10265 0.98015 0.46121 0.0
C79 C 0.08041 0.94757 0.45707 0.0
H80 H 0.09066 0.00203 0.45014 0.0
C81 C 0.08755 0.98702 0.45256 0.0
C82 C 0.06895 0.97439 0.44602 0.0
C83 C 0.06554 0.95459 0.44824 0.0
C84 C 0.07683 0.9266 0.45895 0.0
H85 H 0.05124 0.94467 0.44327 0.0
C86 C 0.07846 0.92185 0.47604 0.0
C87 C 0.07449 0.90187 0.47789 0.0
C88 C 0.0715 0.91125 0.44362 0.0
H89 H 0.07024 0.91462 0.43034 0.0
C90 C 0.06803 0.89142 0.44531 0.0
H91 H 0.08206 0.93375 0.4879 0.0
C92 C 0.06948 0.88671 0.46229 0.0
H93 H 0.06669 0.87119 0.46321 0.0
H94 H 0.06411 0.87964 0.43342 0.0
H95 H 0.29818 0.73654 0.78012 0.0
C96 C 0.29169 0.74177 0.79257 0.0
C97 C 0.29326 0.73248 0.80724 0.0
C98 C 0.28137 0.75751 0.79364 0.0
H99 H 0.28636 0.73283 0.83482 0.0
C100 C 0.28447 0.73931 0.82318 0.0
C101 C 0.27406 0.75505 0.8245 0.0
C102 C 0.2724 0.76391 0.80955 0.0
C103 C 0.28047 0.76761 0.77829 0.0
H104 H 0.26443 0.77605 0.81036 0.0
C105 C 0.26198 0.77079 0.77161 0.0
C106 C 0.2611 0.78027 0.75691 0.0
C107 C 0.29819 0.77413 0.77024 0.0
H108 H 0.31263 0.77197 0.77524 0.0
C109 C 0.29749 0.78378 0.75587 0.0
H110 H 0.24823 0.7653 0.77751 0.0
C111 C 0.27912 0.78686 0.74923 0.0
H112 H 0.27904 0.79451 0.73814 0.0
H113 H 0.31125 0.78891 0.74985 0.0
H114 H 0.96329 0.60606 0.46519 0.0
C115 C 0.95436 0.59283 0.46851 0.0
C116 C 0.95074 0.59229 0.48653 0.0
C117 C 0.94565 0.57666 0.45466 0.0
H118 H 0.93604 0.57471 0.50445 0.0
C119 C 0.93861 0.57528 0.49052 0.0
C120 C 0.92968 0.55906 0.47677 0.0
C121 C 0.93343 0.55979 0.45879 0.0
C122 C 0.94775 0.5782 0.43573 0.0
H123 H 0.92622 0.54764 0.44796 0.0
C124 C 0.96332 0.5713 0.42629 0.0
C125 C 0.96539 0.57312 0.40825 0.0
C126 C 0.93413 0.58681 0.42713 0.0
H127 H 0.92205 0.59219 0.43428 0.0
C128 C 0.93601 0.58854 0.40924 0.0
H129 H 0.97395 0.56486 0.43309 0.0
C130 C 0.95152 0.58177 0.39983 0.0
H131 H 0.95253 0.5831 0.38589 0.0
H132 H 0.92541 0.59514 0.40262 0.0
H133 H 0.84753 0.85543 0.81404 0.0
C134 C 0.84597 0.84426 0.82226 0.0
C135 C 0.85676 0.82882 0.81865 0.0
C136 C 0.83437 0.84618 0.83726 0.0
H137 H 0.86325 0.80274 0.82691 0.0
C138 C 0.85523 0.81487 0.82983 0.0
C139 C 0.84347 0.81642 0.84471 0.0
C140 C 0.83308 0.83212 0.84831 0.0
C141 C 0.82523 0.86388 0.84249 0.0
H142 H 0.82441 0.83379 0.86006 0.0
C143 C 0.81266 0.86958 0.83011 0.0
C144 C 0.80435 0.88663 0.83534 0.0
C145 C 0.82939 0.87537 0.86009 0.0
H146 H 0.83915 0.87137 0.8698 0.0
C147 C 0.82129 0.8923 0.86526 0.0
H148 H 0.80934 0.86076 0.81652 0.0
C149 C 0.80887 0.89793 0.85301 0.0
H150 H 0.80249 0.91097 0.85745 0.0
H151 H 0.82461 0.90107 0.87884 0.0
H152 H 0.35018 0.34956 0.31109 0.0
C153 C 0.34847 0.33835 0.31927 0.0
C154 C 0.35879 0.32256 0.31544 0.0
C155 C 0.33717 0.34054 0.33444 0.0
H156 H 0.36473 0.29618 0.32352 0.0
C157 C 0.35708 0.30856 0.32659 0.0
C158 C 0.34558 0.31039 0.34164 0.0
C159 C 0.33567 0.32644 0.34545 0.0
C160 C 0.32855 0.35854 0.33991 0.0
H161 H 0.32724 0.32834 0.35733 0.0
C162 C 0.31576 0.36443 0.32785 0.0
C163 C 0.30777 0.38164 0.33337 0.0
C164 C 0.33335 0.37004 0.35745 0.0
H165 H 0.34329 0.36588 0.36691 0.0
C166 C 0.3256 0.38714 0.36291 0.0
H167 H 0.31197 0.3556 0.31431 0.0
C168 C 0.31289 0.39292 0.351 0.0
H169 H 0.30676 0.40606 0.35571 0.0
H170 H 0.32939 0.3959 0.37645 0.0
H171 H 0.44914 0.93291 0.56826 0.0
C172 C 0.44516 0.94623 0.56516 0.0
C173 C 0.45512 0.96501 0.57488 0.0
C174 C 0.42972 0.94447 0.55176 0.0
H175 H 0.4576 0.99675 0.57802 0.0
C176 C 0.44959 0.98219 0.57093 0.0
C177 C 0.43439 0.98066 0.55732 0.0
C178 C 0.42436 0.96171 0.54797 0.0
C179 C 0.41956 0.92463 0.54134 0.0
H180 H 0.41251 0.96035 0.53753 0.0
C181 C 0.43106 0.91092 0.53355 0.0
C182 C 0.42165 0.89226 0.52313 0.0
C183 C 0.39841 0.91945 0.53882 0.0
H184 H 0.38922 0.92976 0.54475 0.0
C185 C 0.38894 0.90082 0.52875 0.0
H186 H 0.44739 0.91491 0.53544 0.0
C187 C 0.40044 0.88729 0.52092 0.0
H188 H 0.39275 0.87312 0.51282 0.0
H189 H 0.37264 0.89692 0.52688 0.0
H190 H 0.29248 0.28677 0.76682 0.0
C191 C 0.29432 0.27982 0.75306 0.0
C192 C 0.29954 0.29169 0.74031 0.0
C193 C 0.29185 0.25901 0.74823 0.0
H194 H 0.30657 0.29145 0.71276 0.0
C195 C 0.3019 0.28243 0.72255 0.0
C196 C 0.29927 0.26167 0.71745 0.0
C197 C 0.29439 0.25006 0.73041 0.0
C198 C 0.2869 0.24656 0.76182 0.0
H199 H 0.29216 0.234 0.72653 0.0
C200 C 0.27118 0.24928 0.7731 0.0
C201 C 0.26601 0.23698 0.78554 0.0
C202 C 0.29768 0.2316 0.76333 0.0
H203 H 0.30997 0.22932 0.75491 0.0
C204 C 0.29284 0.21958 0.77584 0.0
H205 H 0.2625 0.26048 0.7717 0.0
C206 C 0.27708 0.22217 0.78685 0.0
H207 H 0.2736 0.21264 0.79645 0.0
H208 H 0.30129 0.20816 0.77696 0.0
H209 H 0.85662 0.26682 0.75221 0.0
C210 C 0.84447 0.25399 0.74778 0.0
C211 C 0.84751 0.2349 0.74879 0.0
C212 C 0.82555 0.25673 0.74169 0.0
H213 H 0.83349 0.20379 0.7444 0.0
C214 C 0.83142 0.21855 0.74344 0.0
C215 C 0.81233 0.22113 0.73776 0.0
C216 C 0.80953 0.24025 0.73671 0.0
C217 C 0.82209 0.27699 0.74183 0.0
H218 H 0.79472 0.24238 0.73263 0.0
C219 C 0.81478 0.28192 0.72607 0.0
C220 C 0.81142 0.30124 0.72626 0.0
C221 C 0.82594 0.29144 0.75789 0.0
H222 H 0.83147 0.28791 0.77019 0.0
C223 C 0.82227 0.31045 0.75828 0.0
H224 H 0.81234 0.27084 0.71362 0.0
C225 C 0.81503 0.31534 0.74264 0.0
H226 H 0.81216 0.33017 0.74343 0.0
H227 H 0.82503 0.32145 0.77077 0.0
H228 H 0.61094 0.57903 0.57664 0.0
C229 C 0.6011 0.57843 0.58757 0.0
C230 C 0.59708 0.5613 0.59502 0.0
C231 C 0.59289 0.59508 0.59444 0.0
H232 H 0.58098 0.54785 0.61504 0.0
C233 C 0.58418 0.5609 0.60914 0.0
C234 C 0.57546 0.57731 0.61586 0.0
C235 C 0.58004 0.59439 0.60851 0.0
C236 C 0.59854 0.61363 0.5876 0.0
H237 H 0.57379 0.60731 0.61386 0.0
C238 C 0.59539 0.61368 0.56917 0.0
C239 C 0.60058 0.6315 0.56286 0.0
C240 C 0.60712 0.63147 0.59966 0.0
H241 H 0.60974 0.63172 0.61389 0.0
C242 C 0.6126 0.64907 0.59345 0.0
H243 H 0.58869 0.59993 0.55985 0.0
C244 C 0.60934 0.64915 0.57521 0.0
H245 H 0.61322 0.66314 0.57084 0.0
H246 H 0.61922 0.66276 0.60284 0.0
H247 H 0.61449 0.45923 0.96724 0.0
C248 C 0.60207 0.46343 0.96051 0.0
C249 C 0.60477 0.48216 0.95587 0.0
C250 C 0.58381 0.44963 0.95545 0.0
H251 H 0.5908 0.50179 0.94334 0.0
C252 C 0.58872 0.48731 0.9469 0.0
C253 C 0.57026 0.47384 0.94204 0.0
C254 C 0.568 0.45485 0.94613 0.0
C255 C 0.58169 0.42934 0.95899 0.0
H256 H 0.55389 0.4442 0.94224 0.0
C257 C 0.58465 0.42642 0.97662 0.0
C258 C 0.58294 0.40708 0.97988 0.0
C259 C 0.577 0.41281 0.94461 0.0
H260 H 0.57472 0.41478 0.93092 0.0
C261 C 0.57558 0.39363 0.94775 0.0
H262 H 0.58814 0.43915 0.98778 0.0
C263 C 0.57857 0.39074 0.96526 0.0
H264 H 0.57699 0.37569 0.96742 0.0
H265 H 0.57205 0.38095 0.93659 0.0
H266 H 0.79554 0.23642 0.28338 0.0
C267 C 0.78886 0.24127 0.29582 0.0
C268 C 0.79034 0.23154 0.3102 0.0
C269 C 0.77833 0.25688 0.29714 0.0
H270 H 0.78225 0.23031 0.33725 0.0
C271 C 0.78109 0.23766 0.32606 0.0
C272 C 0.77052 0.2533 0.32767 0.0
C273 C 0.76914 0.26275 0.31306 0.0
C274 C 0.77715 0.26717 0.28191 0.0
H275 H 0.76151 0.27517 0.31428 0.0
C276 C 0.75862 0.27087 0.27587 0.0
C277 C 0.75735 0.28019 0.26112 0.0
C278 C 0.79455 0.27313 0.2732 0.0
H279 H 0.80903 0.27061 0.27768 0.0
C280 C 0.79346 0.28259 0.25874 0.0
H281 H 0.74517 0.26631 0.28257 0.0
C282 C 0.77501 0.28607 0.25268 0.0
H283 H 0.77454 0.293 0.24114 0.0
H284 H 0.80694 0.28712 0.2521 0.0
H285 H 0.45816 0.10472 0.95916 0.0
C286 C 0.44885 0.09219 0.9633 0.0
C287 C 0.44607 0.09279 0.98165 0.0
C288 C 0.43858 0.07595 0.95018 0.0
H289 H 0.43175 0.07685 0.0009 0.0
C290 C 0.43355 0.07664 0.98672 0.0
C291 C 0.42329 0.06028 0.97374 0.0
C292 C 0.42586 0.06007 0.95543 0.0
C293 C 0.43972 0.07629 0.93089 0.0
H294 H 0.41758 0.04781 0.9452 0.0
C295 C 0.45718 0.07334 0.92219 0.0
C296 C 0.45794 0.07324 0.90364 0.0
C297 C 0.42303 0.07926 0.92107 0.0
H298 H 0.40944 0.0815 0.92761 0.0
C299 C 0.4238 0.07947 0.90276 0.0
H300 H 0.47004 0.071 0.92982 0.0
C301 C 0.44111 0.07647 0.89407 0.0
H302 H 0.44115 0.07624 0.87975 0.0
H303 H 0.41087 0.08179 0.89525 0.0
O304 O 0.24782 0.84989 0.01122 0.0
Cd305 Cd 0.25761 0.87072 0.03464 0.0
Cd306 Cd 0.2305 0.8898 0.02057 0.0
O307 O 0.22485 0.86417 0.00073 0.0
O308 O 0.27204 0.85665 0.04972 0.0
O309 O 0.24503 0.86848 0.05805 0.0
C310 C 0.259 0.85918 0.06148 0.0
C311 C 0.20399 0.9052 0.03066 0.0
C312 C 0.23434 0.84997 0.99915 0.0
C313 C 0.2748 0.90962 0.02506 0.0
O314 O 0.25688 0.9097 0.01957 0.0
O315 O 0.27852 0.89556 0.03216 0.0
O316 O 0.20969 0.90462 0.01459 0.0
O317 O 0.21282 0.89619 0.04095 0.0
O318 O 0.1667 0.5355 0.26653 0.0
Cd319 Cd 0.15007 0.51049 0.27351 0.0
Cd320 Cd 0.12076 0.51708 0.24743 0.0
O321 O 0.14501 0.53929 0.2457 0.0
O322 O 0.16986 0.50161 0.28848 0.0
O323 O 0.15542 0.48339 0.26245 0.0
C324 C 0.16783 0.48552 0.27636 0.0
C325 C 0.10055 0.50423 0.22042 0.0
C326 C 0.16206 0.54473 0.25465 0.0
C327 C 0.10969 0.51739 0.28609 0.0
O328 O 0.10498 0.51933 0.27026 0.0
O329 O 0.12676 0.51363 0.29 0.0
O330 O 0.10106 0.52186 0.22957 0.0
O331 O 0.11159 0.49354 0.22663 0.0
O332 O 0.81899 0.6904 0.9838 0.0
Cd333 Cd 0.81028 0.67351 0.00276 0.0
Cd334 Cd 0.8296 0.64812 0.98224 0.0
O335 O 0.83601 0.67022 0.96765 0.0
O336 O 0.80184 0.69177 0.02333 0.0
O337 O 0.82752 0.67684 0.02571 0.0
C338 C 0.81613 0.68842 0.03326 0.0
C339 C 0.85452 0.63492 0.99457 0.0
C340 C 0.82958 0.6864 0.97057 0.0
C341 C 0.78577 0.63321 0.98556 0.0
O342 O 0.80147 0.62978 0.97791 0.0
O343 O 0.78618 0.64974 0.99622 0.0
O344 O 0.84906 0.63007 0.97754 0.0
O345 O 0.84649 0.64816 0.00449 0.0
O346 O 0.94894 0.03072 0.30625 0.0
Cd347 Cd 0.9322 0.02789 0.28224 0.0
Cd348 Cd 0.90538 0.04013 0.30533 0.0
O349 O 0.92737 0.04113 0.32512 0.0
O350 O 0.95206 0.02297 0.26402 0.0
O351 O 0.93753 0.04898 0.26721 0.0
C352 C 0.94998 0.03907 0.25905 0.0
C353 C 0.89171 0.0681 0.3047 0.0
C354 C 0.94426 0.03616 0.32228 0.0
C355 C 0.89249 0.99958 0.28198 0.0
O356 O 0.88792 0.01252 0.29453 0.0
O357 O 0.90919 0.00312 0.27489 0.0
O358 O 0.88658 0.05695 0.31614 0.0
O359 O 0.9049 0.06342 0.2936 0.0
O360 O 0.31796 0.18504 0.48117 0.0
Cd361 Cd 0.30864 0.16829 0.50004 0.0
Cd362 Cd 0.32884 0.14291 0.48054 0.0
O363 O 0.33525 0.16474 0.4656 0.0
O364 O 0.29978 0.18677 0.52019 0.0
O365 O 0.32504 0.17151 0.52343 0.0
C366 C 0.31362 0.1833 0.53054 0.0
C367 C 0.35386 0.1302 0.49336 0.0
C368 C 0.3288 0.1809 0.46817 0.0
C369 C 0.28486 0.1276 0.48308 0.0
O370 O 0.30095 0.12407 0.47618 0.0
O371 O 0.28474 0.14441 0.49307 0.0
O372 O 0.34885 0.1254 0.47626 0.0
O373 O 0.34533 0.14316 0.5031 0.0
O374 O 0.44581 0.52572 0.80085 0.0
Cd375 Cd 0.42883 0.52511 0.77748 0.0
Cd376 Cd 0.40331 0.53771 0.80169 0.0
O377 O 0.42555 0.53703 0.82065 0.0
O378 O 0.44758 0.51983 0.7583 0.0
O379 O 0.43532 0.54729 0.76373 0.0
C380 C 0.44656 0.53675 0.75445 0.0
C381 C 0.39125 0.56674 0.80202 0.0
C382 C 0.4418 0.53101 0.81711 0.0
C383 C 0.38814 0.49831 0.77719 0.0
O384 O 0.38458 0.51088 0.79059 0.0
O385 O 0.40455 0.50165 0.76964 0.0
O386 O 0.38585 0.55555 0.81337 0.0
O387 O 0.40384 0.56151 0.79049 0.0
O388 O 0.74655 0.34969 0.51106 0.0
Cd389 Cd 0.75903 0.37031 0.53393 0.0
Cd390 Cd 0.73294 0.39155 0.52095 0.0
O391 O 0.72487 0.36586 0.50131 0.0
O392 O 0.7732 0.35492 0.54784 0.0
O393 O 0.74873 0.36968 0.55851 0.0
C394 C 0.76189 0.35904 0.56077 0.0
C395 C 0.70806 0.40894 0.53184 0.0
C396 C 0.73294 0.35068 0.49948 0.0
C397 C 0.77807 0.40819 0.52345 0.0
O398 O 0.76024 0.40974 0.51906 0.0
O399 O 0.78108 0.39362 0.53013 0.0
O400 O 0.7136 0.40823 0.51571 0.0
O401 O 0.71616 0.39905 0.54178 0.0
O402 O 0.66935 0.04286 0.76921 0.0
Cd403 Cd 0.65169 0.01831 0.77599 0.0
Cd404 Cd 0.62437 0.02352 0.74827 0.0
O405 O 0.64964 0.04438 0.74591 0.0
O406 O 0.67013 0.00799 0.79105 0.0
O407 O 0.65577 0.99091 0.76455 0.0
C408 C 0.66764 0.99209 0.77862 0.0
C409 C 0.60461 0.00963 0.72116 0.0
C410 C 0.66595 0.05067 0.75592 0.0
C411 C 0.61148 0.02677 0.78674 0.0
O412 O 0.6078 0.02809 0.77053 0.0
O413 O 0.62798 0.02252 0.79162 0.0
O414 O 0.60582 0.02782 0.7292 0.0
O415 O 0.61474 0.99899 0.72852 0.0
O416 O 0.02128 0.24146 0.91196 0.0
Cd417 Cd 0.02904 0.21828 0.89423 0.0
Cd418 Cd 0.05226 0.24805 0.88298 0.0
O419 O 0.04378 0.26575 0.90536 0.0
O420 O 0.02172 0.19464 0.90544 0.0
O421 O 0.05321 0.20811 0.90163 0.0
C422 C 0.04078 0.1951 0.9079 0.0
C423 C 0.08593 0.25032 0.87658 0.0
C424 C 0.02967 0.25976 0.91482 0.0
C425 C 0.01758 0.22309 0.85748 0.0
O426 O 0.03141 0.23868 0.86103 0.0
O427 O 0.01475 0.21156 0.86859 0.0
O428 O 0.07618 0.26388 0.87425 0.0
O429 O 0.0767 0.23575 0.88326 0.0
O430 O 0.5195 0.74015 0.41255 0.0
Cd431 Cd 0.52797 0.7179 0.39417 0.0
Cd432 Cd 0.55002 0.74888 0.38387 0.0
O433 O 0.54158 0.76537 0.40696 0.0
O434 O 0.52131 0.69366 0.40464 0.0
O435 O 0.55258 0.70823 0.40128 0.0
C436 C 0.54046 0.69465 0.40717 0.0
C437 C 0.58359 0.75198 0.37698 0.0
C438 C 0.52755 0.75857 0.41613 0.0
C439 C 0.5156 0.72397 0.35813 0.0
O440 O 0.52876 0.74005 0.36224 0.0
O441 O 0.51369 0.71163 0.36854 0.0
O442 O 0.57354 0.76554 0.37538 0.0
O443 O 0.57471 0.7369 0.38319 0.0
O444 O 0.00964 0.79004 0.68651 0.0
Cd445 Cd 0.03145 0.78146 0.67006 0.0
Cd446 Cd 0.01605 0.80342 0.64914 0.0
O447 O 0.99973 0.81056 0.67105 0.0
O448 O 0.04956 0.77115 0.68546 0.0
O449 O 0.05992 0.7974 0.67351 0.0
C450 C 0.06401 0.7852 0.68321 0.0
C451 C 0.03206 0.82805 0.63482 0.0
C452 C 0.99872 0.80254 0.68472 0.0
C453 C 0.01242 0.75989 0.63355 0.0
O454 O 0.0071 0.77599 0.6321 0.0
O455 O 0.02293 0.75906 0.64749 0.0
O456 O 0.01269 0.82246 0.63356 0.0
O457 O 0.04247 0.82022 0.64503 0.0
O458 O 0.51021 0.28706 0.18049 0.0
Cd459 Cd 0.53279 0.28028 0.16418 0.0
Cd460 Cd 0.51732 0.30299 0.14455 0.0
O461 O 0.50068 0.30895 0.16649 0.0
O462 O 0.55078 0.26926 0.17905 0.0
O463 O 0.56083 0.29711 0.16935 0.0
C464 C 0.56494 0.2842 0.17825 0.0
C465 C 0.53501 0.32845 0.13216 0.0
C466 C 0.49933 0.29978 0.17943 0.0
C467 C 0.51459 0.26031 0.12696 0.0
O468 O 0.50852 0.27628 0.12638 0.0
O469 O 0.52537 0.25912 0.14061 0.0
O470 O 0.51558 0.32364 0.13028 0.0
O471 O 0.54449 0.31935 0.14191 0.0
H472 H 0.25429 0.73384 0.84775 0.0
H473 H 0.24337 0.74695 0.87732 0.0
H474 H 0.26396 0.80683 0.86977 0.0
H475 H 0.27559 0.79391 0.84057 0.0
H476 H 0.2783 0.8008 0.90206 0.0
H477 H 0.19536 0.77294 0.89146 0.0
H478 H 0.21014 0.75418 0.8856 0.0
H479 H 0.21147 0.77358 0.87303 0.0
C480 C 0.25645 0.7498 0.85237 0.0
C481 C 0.26583 0.76283 0.84178 0.0
C482 C 0.24996 0.75726 0.86918 0.0
C483 C 0.25261 0.77785 0.87564 0.0
C484 C 0.26163 0.79087 0.86497 0.0
H485 H 0.21294 0.8497 0.96772 0.0
H486 H 0.21551 0.82967 0.93795 0.0
C487 C 0.26815 0.78345 0.84821 0.0
C488 C 0.24747 0.78598 0.89407 0.0
H489 H 0.2086 0.78807 0.92147 0.0
C490 C 0.26306 0.798 0.9063 0.0
C491 C 0.22755 0.7824 0.89951 0.0
C492 C 0.2101 0.77022 0.88669 0.0
C493 C 0.25931 0.8066 0.92382 0.0
C494 C 0.23948 0.80273 0.92942 0.0
C495 C 0.22382 0.79076 0.91719 0.0
C496 C 0.23477 0.81199 0.94765 0.0
C497 C 0.27656 0.8202 0.93605 0.0
C498 C 0.24389 0.80795 0.96303 0.0
C499 C 0.24255 0.81943 0.98006 0.0
C500 C 0.23193 0.83506 0.982 0.0
C501 C 0.22133 0.83787 0.96672 0.0
C502 C 0.22277 0.82643 0.94967 0.0
H503 H 0.28965 0.82511 0.92843 0.0
H504 H 0.27171 0.83359 0.94356 0.0
H505 H 0.28171 0.81217 0.94601 0.0
H506 H 0.25291 0.79659 0.96176 0.0
H507 H 0.25071 0.8167 0.99155 0.0
H508 H 0.97879 0.53843 0.4076 0.0
H509 H 0.00531 0.52652 0.38995 0.0
H510 H 0.01531 0.57971 0.36811 0.0
H511 H 0.98928 0.5919 0.38597 0.0
H512 H 0.00594 0.51909 0.35249 0.0
H513 H 0.07243 0.57609 0.38468 0.0
H514 H 0.04878 0.57219 0.39505 0.0
H515 H 0.05202 0.5867 0.37784 0.0
C516 C 0.98689 0.54772 0.39926 0.0
C517 C 0.98195 0.56611 0.39817 0.0
C518 C 0.00194 0.54086 0.38913 0.0
C519 C 0.01245 0.55236 0.37792 0.0
C520 C 0.00765 0.57076 0.37693 0.0
H521 H 0.07158 0.52435 0.28211 0.0
H522 H 0.0484 0.53051 0.30546 0.0
C523 C 0.9926 0.5776 0.38698 0.0
C524 C 0.02766 0.54476 0.36644 0.0
H525 H 0.07624 0.5571 0.35547 0.0
C526 C 0.0214 0.52724 0.35329 0.0
C527 C 0.04788 0.55523 0.36768 0.0
C528 C 0.05576 0.57349 0.3822 0.0
C529 C 0.03457 0.52047 0.34075 0.0
C530 C 0.0544 0.53169 0.34125 0.0
C531 C 0.06096 0.54864 0.35498 0.0
C532 C 0.06817 0.52682 0.32705 0.0
C533 C 0.02708 0.50149 0.32696 0.0
C534 C 0.08714 0.52302 0.33149 0.0
C535 C 0.10054 0.51958 0.31815 0.0
C536 C 0.09525 0.52008 0.30016 0.0
C537 C 0.07615 0.52378 0.29579 0.0
C538 C 0.06279 0.52717 0.30911 0.0
H539 H 0.0143 0.49173 0.33168 0.0
H540 H 0.02162 0.50519 0.31433 0.0
H541 H 0.03931 0.49309 0.32384 0.0
H542 H 0.09162 0.52284 0.3453 0.0
H543 H 0.11514 0.51682 0.322 0.0
H544 H 0.875 0.80265 0.85776 0.0
H545 H 0.8741 0.77971 0.87841 0.0
H546 H 0.80991 0.77573 0.88061 0.0
H547 H 0.8106 0.79833 0.85964 0.0
H548 H 0.86096 0.7851 0.9137 0.0
H549 H 0.81617 0.71708 0.86883 0.0
H550 H 0.82836 0.73846 0.86046 0.0
H551 H 0.80497 0.73863 0.87089 0.0
C552 C 0.86064 0.79665 0.86242 0.0
C553 C 0.84284 0.8022 0.85698 0.0
C554 C 0.86018 0.78367 0.87431 0.0
C555 C 0.84192 0.77586 0.88085 0.0
C556 C 0.82412 0.78136 0.87548 0.0
H557 H 0.81954 0.72289 0.97351 0.0
H558 H 0.82405 0.74469 0.95185 0.0
C559 C 0.82456 0.79441 0.86364 0.0
C560 C 0.8416 0.76248 0.89377 0.0
H561 H 0.82163 0.71574 0.89966 0.0
C562 C 0.85246 0.7699 0.91062 0.0
C563 C 0.83069 0.7426 0.8896 0.0
C564 C 0.81952 0.7336 0.87141 0.0
C565 C 0.85227 0.7581 0.92361 0.0
C566 C 0.84076 0.73846 0.91968 0.0
C567 C 0.83033 0.73087 0.90267 0.0
C568 C 0.83897 0.72566 0.93318 0.0
C569 C 0.86447 0.7667 0.94139 0.0
C570 C 0.84572 0.70763 0.92978 0.0
C571 C 0.84315 0.69508 0.94213 0.0
C572 C 0.83358 0.70026 0.95804 0.0
C573 C 0.82702 0.71845 0.96145 0.0
C574 C 0.82966 0.731 0.94912 0.0
H575 H 0.87637 0.77977 0.94055 0.0
H576 H 0.85432 0.77164 0.95174 0.0
H577 H 0.87172 0.75538 0.94596 0.0
H578 H 0.85286 0.70322 0.9175 0.0
H579 H 0.84832 0.68117 0.93904 0.0
H580 H 0.05754 0.01031 0.45474 0.0
H581 H 0.0347 0.02371 0.43696 0.0
H582 H 0.02322 0.96886 0.39719 0.0
H583 H 0.04613 0.95541 0.41479 0.0
H584 H 0.03951 0.02923 0.40199 0.0
H585 H 0.96644 0.97915 0.4059 0.0
H586 H 0.98829 0.9813 0.4211 0.0
H587 H 0.98611 0.96608 0.39879 0.0
C588 C 0.05005 0.00106 0.44225 0.0
C589 C 0.05365 0.9818 0.43615 0.0
C590 C 0.03697 0.00871 0.43217 0.0
C591 C 0.02712 0.99721 0.41588 0.0
C592 C 0.03034 0.97783 0.40992 0.0
H593 H 0.98186 0.02733 0.32109 0.0
H594 H 0.00214 0.02071 0.34557 0.0
C595 C 0.04343 0.97016 0.42 0.0
C596 C 0.01457 0.00589 0.40448 0.0
H597 H 0.96778 0.9983 0.3829 0.0
C598 C 0.02376 0.02263 0.39798 0.0
C599 C 0.99397 0.99743 0.39948 0.0
C600 C 0.98304 0.98011 0.40681 0.0
C601 C 0.0131 0.0306 0.38597 0.0
C602 C 0.99283 0.02142 0.38016 0.0
C603 C 0.98339 0.00523 0.38727 0.0
C604 C 0.98149 0.02754 0.3659 0.0
C605 C 0.02367 0.04867 0.37949 0.0
C606 C 0.96314 0.0336 0.36922 0.0
C607 C 0.95143 0.03735 0.35521 0.0
C608 C 0.95779 0.03488 0.33759 0.0
C609 C 0.97651 0.02941 0.33448 0.0
C610 C 0.9882 0.02572 0.34849 0.0
H611 H 0.03657 0.0573 0.38905 0.0
H612 H 0.02969 0.04382 0.36631 0.0
H613 H 0.01312 0.0586 0.37767 0.0
H614 H 0.95767 0.03499 0.38256 0.0
H615 H 0.93708 0.04148 0.35807 0.0
H616 H 0.28481 0.27031 0.68656 0.0
H617 H 0.29033 0.256 0.65551 0.0
H618 H 0.32552 0.21787 0.67465 0.0
H619 H 0.31995 0.23209 0.70582 0.0
H620 H 0.32678 0.25643 0.64004 0.0
H621 H 0.28557 0.17884 0.63653 0.0
H622 H 0.28289 0.19923 0.65434 0.0
H623 H 0.30484 0.18834 0.65471 0.0
C624 C 0.29371 0.25886 0.68415 0.0
C625 C 0.30193 0.2523 0.69861 0.0
C626 C 0.29682 0.25068 0.66642 0.0
C627 C 0.30816 0.23574 0.66277 0.0
C628 C 0.31637 0.2291 0.67715 0.0
H629 H 0.33633 0.17406 0.55711 0.0
H630 H 0.33755 0.18714 0.58971 0.0
C631 C 0.31319 0.23723 0.69493 0.0
C632 C 0.31178 0.22766 0.64387 0.0
H633 H 0.30224 0.18543 0.6109 0.0
C634 C 0.32149 0.24089 0.63369 0.0
C635 C 0.30496 0.20735 0.63566 0.0
C636 C 0.29383 0.1926 0.64579 0.0
C637 C 0.32428 0.23443 0.61542 0.0
C638 C 0.31699 0.21427 0.60711 0.0
C639 C 0.30785 0.20088 0.61739 0.0
C640 C 0.31728 0.20712 0.58746 0.0
C641 C 0.33485 0.24925 0.60509 0.0
C642 C 0.30547 0.21404 0.57551 0.0
C643 C 0.30465 0.20657 0.557 0.0
C644 C 0.31566 0.19203 0.55006 0.0
C645 C 0.32776 0.18533 0.56205 0.0
C646 C 0.32844 0.19273 0.58064 0.0
H647 H 0.34405 0.26259 0.61425 0.0
H648 H 0.34479 0.2424 0.5955 0.0
H649 H 0.32339 0.25423 0.59722 0.0
H650 H 0.29651 0.22493 0.58056 0.0
H651 H 0.29515 0.21202 0.54814 0.0
H652 H 0.53932 0.58929 0.61826 0.0
H653 H 0.51612 0.58713 0.64221 0.0
H654 H 0.55705 0.56122 0.6705 0.0
H655 H 0.58045 0.56365 0.64681 0.0
H656 H 0.4979 0.55183 0.65279 0.0
H657 H 0.54373 0.60563 0.70988 0.0
H658 H 0.549 0.60523 0.68664 0.0
H659 H 0.55699 0.58762 0.69825 0.0
C660 C 0.5435 0.58341 0.62973 0.0
C661 C 0.5617 0.57663 0.63065 0.0
C662 C 0.53021 0.58213 0.64335 0.0
C663 C 0.535 0.57427 0.65823 0.0
C664 C 0.55323 0.56766 0.65928 0.0
H665 H 0.46683 0.51532 0.73023 0.0
H666 H 0.48659 0.52639 0.70654 0.0
C667 C 0.56647 0.56884 0.64564 0.0
C668 C 0.52041 0.57173 0.67211 0.0
H669 H 0.51562 0.58295 0.71744 0.0
C670 C 0.50165 0.55885 0.66689 0.0
C671 C 0.52524 0.58109 0.69045 0.0
C672 C 0.54476 0.59583 0.69666 0.0
C673 C 0.488 0.55428 0.67968 0.0
C674 C 0.49334 0.56273 0.69813 0.0
C675 C 0.51165 0.5764 0.70327 0.0
C676 C 0.48087 0.55626 0.71234 0.0
C677 C 0.46813 0.54015 0.6734 0.0
C678 C 0.4713 0.56951 0.72362 0.0
C679 C 0.45985 0.56319 0.73722 0.0
C680 C 0.45809 0.54361 0.73987 0.0
C681 C 0.46783 0.53049 0.72856 0.0
C682 C 0.47908 0.53675 0.71494 0.0
H683 H 0.46408 0.53906 0.65887 0.0
H684 H 0.46928 0.52509 0.67539 0.0
H685 H 0.45579 0.54491 0.68132 0.0
H686 H 0.47264 0.58469 0.72186 0.0
H687 H 0.45259 0.57367 0.74576 0.0
H688 H 0.78463 0.27856 0.6984 0.0
H689 H 0.77499 0.28767 0.67025 0.0
H690 H 0.8123 0.34613 0.68823 0.0
H691 H 0.82297 0.33684 0.71581 0.0
H692 H 0.7559 0.31634 0.66323 0.0
H693 H 0.83303 0.32885 0.6399 0.0
H694 H 0.82689 0.31715 0.65872 0.0
H695 H 0.83155 0.34383 0.66169 0.0
C696 C 0.79103 0.29327 0.69627 0.0
C697 C 0.80473 0.30689 0.70939 0.0
C698 C 0.78533 0.29851 0.68024 0.0
C699 C 0.79319 0.31746 0.67698 0.0
C700 C 0.80638 0.33127 0.69025 0.0
H701 H 0.74801 0.37204 0.59363 0.0
H702 H 0.75448 0.36154 0.62192 0.0
C703 C 0.81224 0.32599 0.70617 0.0
C704 C 0.78774 0.3228 0.6597 0.0
H705 H 0.80812 0.33996 0.62388 0.0
C706 C 0.76729 0.32141 0.65455 0.0
C707 C 0.8026 0.32912 0.64825 0.0
C708 C 0.82472 0.32964 0.65231 0.0
C709 C 0.76131 0.32646 0.63841 0.0
C710 C 0.77624 0.33355 0.62734 0.0
C711 C 0.79666 0.33471 0.63242 0.0
C712 C 0.7712 0.33934 0.61015 0.0
C713 C 0.73907 0.32369 0.6332 0.0
C714 C 0.77872 0.33066 0.59418 0.0
C715 C 0.7754 0.33691 0.57815 0.0
C716 C 0.76435 0.3519 0.57768 0.0
C717 C 0.75644 0.36034 0.59356 0.0
C718 C 0.76001 0.35425 0.60971 0.0
H719 H 0.72987 0.31287 0.6401 0.0
H720 H 0.73431 0.33814 0.63725 0.0
H721 H 0.73572 0.31844 0.61842 0.0
H722 H 0.78739 0.31915 0.59416 0.0
H723 H 0.78163 0.33004 0.56613 0.0
H724 H 0.4862 0.94501 0.57302 0.0
H725 H 0.51289 0.94745 0.59654 0.0
H726 H 0.48773 0.99121 0.63194 0.0
H727 H 0.46086 0.98868 0.6086 0.0
H728 H 0.54128 0.98277 0.61367 0.0
H729 H 0.4942 0.94906 0.66239 0.0
H730 H 0.48587 0.94569 0.63889 0.0
H731 H 0.48466 0.96833 0.65441 0.0
C732 C 0.48625 0.95501 0.58589 0.0
C733 C 0.47141 0.96662 0.58902 0.0
C734 C 0.50153 0.95642 0.59926 0.0
C735 C 0.50207 0.96927 0.61603 0.0
C736 C 0.48735 0.98095 0.61917 0.0
H737 H 0.58887 0.03059 0.69967 0.0
H738 H 0.56576 0.01777 0.67278 0.0
C739 C 0.47216 0.97965 0.60578 0.0
C740 C 0.51848 0.97119 0.63005 0.0
H741 H 0.52726 0.96749 0.67371 0.0
C742 C 0.5383 0.97916 0.62671 0.0
C743 C 0.51456 0.96617 0.64693 0.0
C744 C 0.4937 0.95665 0.65087 0.0
C745 C 0.55413 0.98333 0.64021 0.0
C746 C 0.54995 0.97951 0.65746 0.0
C747 C 0.53037 0.97048 0.66048 0.0
C748 C 0.56512 0.98681 0.67301 0.0
C749 C 0.57511 0.99228 0.63611 0.0
C750 C 0.57233 0.97359 0.68212 0.0
C751 C 0.58572 0.9809 0.69755 0.0
C752 C 0.5917 0.00151 0.70421 0.0
C753 C 0.58453 0.01463 0.69491 0.0
C754 C 0.57141 0.00734 0.67947 0.0
H755 H 0.57694 0.98927 0.62139 0.0
H756 H 0.57797 0.00865 0.64103 0.0
H757 H 0.58665 0.9864 0.64303 0.0
H758 H 0.56747 0.95767 0.67737 0.0
H759 H 0.59094 0.97046 0.7045 0.0
H760 H 0.85288 0.21149 0.77272 0.0
H761 H 0.88457 0.20755 0.78651 0.0
H762 H 0.91782 0.2483 0.75707 0.0
H763 H 0.88604 0.2522 0.74297 0.0
H764 H 0.91892 0.19497 0.77045 0.0
H765 H 0.93688 0.2726 0.81057 0.0
H766 H 0.91209 0.26118 0.79981 0.0
H767 H 0.93212 0.26988 0.78666 0.0
C768 C 0.86692 0.2194 0.76893 0.0
C769 C 0.86693 0.23215 0.7567 0.0
C770 C 0.88501 0.21717 0.77689 0.0
C771 C 0.90349 0.22773 0.77291 0.0
C772 C 0.90366 0.24021 0.76049 0.0
H773 H 0.02135 0.24242 0.82941 0.0
H774 H 0.99528 0.24157 0.80602 0.0
C775 C 0.88552 0.24246 0.75249 0.0
C776 C 0.92243 0.22611 0.78236 0.0
H777 H 0.95989 0.2522 0.81409 0.0
C778 C 0.92801 0.2075 0.77989 0.0
C779 C 0.93421 0.24249 0.79465 0.0
C780 C 0.92853 0.26266 0.79825 0.0
C781 C 0.94501 0.20479 0.78955 0.0
C782 C 0.95645 0.22105 0.80222 0.0
C783 C 0.95114 0.23976 0.80432 0.0
C784 C 0.97327 0.21894 0.81431 0.0
C785 C 0.95054 0.18458 0.78607 0.0
C786 C 0.96975 0.2061 0.82646 0.0
C787 C 0.98468 0.20645 0.83981 0.0
C788 C 0.00331 0.21987 0.84141 0.0
C789 C 0.00714 0.23196 0.82863 0.0
C790 C 0.99225 0.23152 0.81524 0.0
H791 H 0.94465 0.17589 0.7724 0.0
H792 H 0.96716 0.18585 0.78742 0.0
H793 H 0.94375 0.17611 0.79604 0.0
H794 H 0.95508 0.19656 0.82626 0.0
H795 H 0.98119 0.19702 0.84949 0.0
H796 H 0.41531 0.85187 0.52023 0.0
H797 H 0.43514 0.82887 0.50453 0.0
H798 H 0.47543 0.87801 0.49 0.0
H799 H 0.45565 0.90104 0.50549 0.0
H800 H 0.44227 0.82303 0.468 0.0
H801 H 0.51427 0.84837 0.51093 0.0
H802 H 0.49084 0.8548 0.51822 0.0
H803 H 0.50507 0.86793 0.50315 0.0
C804 C 0.4284 0.85777 0.5137 0.0
C805 C 0.43396 0.87829 0.51417 0.0
C806 C 0.43976 0.84464 0.50484 0.0
C807 C 0.45693 0.8518 0.49639 0.0
C808 C 0.46253 0.87225 0.49684 0.0
H809 H 0.53722 0.79934 0.42453 0.0
H810 H 0.52058 0.82169 0.44511 0.0
C811 C 0.4512 0.88538 0.50568 0.0
C812 C 0.46827 0.83777 0.48614 0.0
H813 H 0.51498 0.82622 0.48287 0.0
C814 C 0.45811 0.82358 0.47134 0.0
C815 C 0.48897 0.83866 0.4905 0.0
C816 C 0.50042 0.85313 0.50666 0.0
C817 C 0.46821 0.81053 0.46048 0.0
C818 C 0.48893 0.81146 0.46478 0.0
C819 C 0.49909 0.82556 0.47965 0.0
C820 C 0.50029 0.79803 0.45376 0.0
C821 C 0.45675 0.79622 0.4442 0.0
C822 C 0.49481 0.77739 0.45231 0.0
C823 C 0.50422 0.7646 0.44056 0.0
C824 C 0.51939 0.77223 0.43012 0.0
C825 C 0.52556 0.79298 0.43232 0.0
C826 C 0.51607 0.80577 0.44406 0.0
H827 H 0.44253 0.80062 0.44037 0.0
H828 H 0.46611 0.79529 0.43246 0.0
H829 H 0.45277 0.78116 0.4473 0.0
H830 H 0.48293 0.77117 0.45997 0.0
H831 H 0.49923 0.74871 0.43934 0.0
H832 H 0.25635 0.27135 0.80393 0.0
H833 H 0.22716 0.27464 0.82172 0.0
H834 H 0.20753 0.21083 0.81022 0.0
H835 H 0.23643 0.20742 0.79225 0.0
H836 H 0.17731 0.23328 0.80354 0.0
H837 H 0.21705 0.25968 0.87199 0.0
H838 H 0.22684 0.2726 0.85487 0.0
H839 H 0.22836 0.24699 0.85312 0.0
C840 C 0.2458 0.25804 0.80521 0.0
C841 C 0.24871 0.23912 0.79675 0.0
C842 C 0.22927 0.25993 0.81549 0.0
C843 C 0.21537 0.24296 0.81744 0.0
C844 C 0.21821 0.22409 0.80899 0.0
H845 H 0.11062 0.22407 0.87935 0.0
H846 H 0.14302 0.22304 0.86608 0.0
C847 C 0.23477 0.22217 0.79881 0.0
C848 C 0.19731 0.24483 0.82755 0.0
H849 H 0.18188 0.25906 0.86966 0.0
C850 C 0.17829 0.23889 0.81799 0.0
C851 C 0.19871 0.25207 0.84641 0.0
C852 C 0.2188 0.25808 0.8573 0.0
C853 C 0.16059 0.24022 0.82678 0.0
C854 C 0.16199 0.24767 0.84558 0.0
C855 C 0.18096 0.25343 0.85521 0.0
C856 C 0.14371 0.24953 0.85529 0.0
C857 C 0.14043 0.2336 0.81599 0.0
C858 C 0.13374 0.26502 0.85391 0.0
C859 C 0.11533 0.26571 0.8615 0.0
C860 C 0.10653 0.25083 0.87052 0.0
C861 C 0.11698 0.23573 0.87247 0.0
C862 C 0.13548 0.23512 0.86492 0.0
H863 H 0.14178 0.22604 0.8019 0.0
H864 H 0.12995 0.22332 0.82249 0.0
H865 H 0.13362 0.24676 0.81563 0.0
H866 H 0.13994 0.27627 0.84652 0.0
H867 H 0.1077 0.27756 0.85977 0.0
H868 H 0.56603 0.61355 0.54148 0.0
H869 H 0.5568 0.61808 0.51129 0.0
H870 H 0.61493 0.65616 0.51112 0.0
H871 H 0.62445 0.65132 0.54108 0.0
H872 H 0.55481 0.65524 0.50459 0.0
H873 H 0.60768 0.62119 0.46037 0.0
H874 H 0.60296 0.6156 0.48228 0.0
H875 H 0.61981 0.63819 0.48038 0.0
C876 C 0.57706 0.62243 0.5348 0.0
C877 C 0.59595 0.63213 0.5437 0.0
C878 C 0.57173 0.62507 0.51759 0.0
C879 C 0.58525 0.63729 0.50888 0.0
C880 C 0.6044 0.64637 0.51743 0.0
H881 H 0.57893 0.69893 0.42197 0.0
H882 H 0.58968 0.68244 0.44521 0.0
C883 C 0.60973 0.64378 0.53465 0.0
C884 C 0.57852 0.64244 0.49189 0.0
H885 H 0.58996 0.64293 0.44845 0.0
C886 C 0.5623 0.6523 0.49223 0.0
C887 C 0.58848 0.63877 0.47587 0.0
C888 C 0.60559 0.6277 0.47459 0.0
C889 C 0.55614 0.65915 0.47718 0.0
C890 C 0.56617 0.65562 0.46115 0.0
C891 C 0.58225 0.64553 0.46071 0.0
C892 C 0.56058 0.66313 0.44507 0.0
C893 C 0.53947 0.67084 0.47884 0.0
C894 C 0.54094 0.65707 0.4367 0.0
C895 C 0.53471 0.66656 0.42355 0.0
C896 C 0.54811 0.68211 0.41835 0.0
C897 C 0.56824 0.68704 0.42571 0.0
C898 C 0.57441 0.67764 0.439 0.0
H899 H 0.53684 0.67637 0.49314 0.0
H900 H 0.54301 0.68377 0.47221 0.0
H901 H 0.52522 0.6611 0.47214 0.0
H902 H 0.53016 0.64558 0.4409 0.0
H903 H 0.51916 0.66226 0.41799 0.0
H904 H 0.84966 0.83254 0.78377 0.0
H905 H 0.87286 0.83017 0.75957 0.0
H906 H 0.91831 0.82073 0.79638 0.0
H907 H 0.8954 0.82319 0.82054 0.0
H908 H 0.93099 0.85083 0.77356 0.0
H909 H 0.8906 0.77605 0.73613 0.0
H910 H 0.87595 0.79486 0.74278 0.0
H911 H 0.8876 0.78506 0.75967 0.0
C912 C 0.86464 0.83006 0.78668 0.0
C913 C 0.87067 0.82785 0.80397 0.0
C914 C 0.8778 0.82863 0.77287 0.0
C915 C 0.89719 0.82514 0.77622 0.0
C916 C 0.90337 0.82335 0.79355 0.0
H917 H 0.9889 0.78456 0.71303 0.0
H918 H 0.96389 0.79126 0.73465 0.0
C919 C 0.89022 0.82462 0.80728 0.0
C920 C 0.91111 0.82301 0.76172 0.0
H921 H 0.92033 0.79055 0.72458 0.0
C922 C 0.9286 0.83778 0.76272 0.0
C923 C 0.90796 0.80585 0.74777 0.0
C924 C 0.88959 0.78943 0.74644 0.0
C925 C 0.94317 0.8357 0.75015 0.0
C926 C 0.94011 0.81844 0.73631 0.0
C927 C 0.92253 0.80379 0.7352 0.0
C928 C 0.95547 0.81488 0.72336 0.0
C929 C 0.96204 0.85164 0.75202 0.0
C930 C 0.95895 0.82599 0.70987 0.0
C931 C 0.97318 0.82216 0.69742 0.0
C932 C 0.98421 0.80719 0.69831 0.0
C933 C 0.98075 0.79624 0.71198 0.0
C934 C 0.96643 0.79999 0.72432 0.0
H935 H 0.96335 0.86279 0.76486 0.0
H936 H 0.97563 0.84487 0.75139 0.0
H937 H 0.96185 0.85947 0.74066 0.0
H938 H 0.95049 0.83745 0.70887 0.0
H939 H 0.97544 0.83085 0.68705 0.0
H940 H 0.04776 0.87346 0.48959 0.0
H941 H 0.04759 0.86518 0.51934 0.0
H942 H 0.101 0.91062 0.53727 0.0
H943 H 0.10147 0.9189 0.5073 0.0
H944 H 0.07877 0.85295 0.53818 0.0
H945 H 0.05964 0.92332 0.57499 0.0
H946 H 0.05617 0.91573 0.55074 0.0
H947 H 0.08106 0.92535 0.56159 0.0
C948 C 0.05964 0.88156 0.49975 0.0
C949 C 0.07468 0.89681 0.49603 0.0
C950 C 0.05945 0.87688 0.51679 0.0
C951 C 0.07419 0.88738 0.53052 0.0
C952 C 0.08933 0.90253 0.52691 0.0
H953 H 0.07219 0.83717 0.62872 0.0
H954 H 0.08678 0.8547 0.60572 0.0
C955 C 0.08955 0.90724 0.5098 0.0
C956 C 0.07338 0.88222 0.54854 0.0
H957 H 0.06083 0.89826 0.59133 0.0
C958 C 0.0752 0.86294 0.54992 0.0
C959 C 0.06865 0.89533 0.56374 0.0
C960 C 0.06612 0.91607 0.56281 0.0
C961 C 0.07149 0.85604 0.56589 0.0
C962 C 0.0661 0.86893 0.58095 0.0
C963 C 0.06515 0.88852 0.57981 0.0
C964 C 0.05858 0.8614 0.59691 0.0
C965 C 0.07212 0.83465 0.56614 0.0
C966 C 0.03818 0.86028 0.60017 0.0
C967 C 0.02986 0.85041 0.61328 0.0
C968 C 0.04181 0.84149 0.62345 0.0
C969 C 0.06258 0.84381 0.62105 0.0
C970 C 0.07092 0.85371 0.60785 0.0
H971 H 0.07348 0.82588 0.55251 0.0
H972 H 0.08532 0.83416 0.57502 0.0
H973 H 0.0583 0.82739 0.5716 0.0
H974 H 0.02842 0.86617 0.59191 0.0
H975 H 0.01385 0.84904 0.61488 0.0
H976 H 0.24847 0.77566 0.72138 0.0
H977 H 0.21608 0.7794 0.70879 0.0
H978 H 0.19631 0.79325 0.76237 0.0
H979 H 0.22904 0.7904 0.77516 0.0
H980 H 0.17919 0.75777 0.71164 0.0
H981 H 0.18144 0.83743 0.74026 0.0
H982 H 0.20354 0.82652 0.74039 0.0
H983 H 0.18554 0.8234 0.757 0.0
C984 C 0.23742 0.77991 0.73054 0.0
C985 C 0.24144 0.78284 0.74931 0.0
C986 C 0.21884 0.7819 0.72329 0.0
C987 C 0.20388 0.7869 0.73464 0.0
C988 C 0.20778 0.78981 0.75337 0.0
H989 H 0.07598 0.76307 0.70582 0.0
H990 H 0.11013 0.76436 0.71806 0.0
C991 C 0.22641 0.78789 0.76065 0.0
C992 C 0.18383 0.78792 0.72676 0.0
H993 H 0.14962 0.81804 0.72678 0.0
C994 C 0.17279 0.771 0.71487 0.0
C995 C 0.17561 0.80527 0.73079 0.0
C996 C 0.18721 0.82426 0.74266 0.0
C997 C 0.15356 0.77078 0.70722 0.0
C998 C 0.14496 0.78781 0.71188 0.0
C999 C 0.15618 0.80493 0.72339 0.0
C1000 C 0.12416 0.78792 0.70515 0.0
C1001 C 0.1427 0.75233 0.6941 0.0
C1002 C 0.12062 0.80126 0.69436 0.0
C1003 C 0.10102 0.80067 0.68741 0.0
C1004 C 0.08466 0.78677 0.69122 0.0
C1005 C 0.08825 0.77384 0.70247 0.0
C1006 C 0.10778 0.77448 0.70943 0.0
H1007 H 0.15335 0.74303 0.68816 0.0
H1008 H 0.13183 0.74323 0.7013 0.0
H1009 H 0.13416 0.75623 0.683 0.0
H1010 H 0.13308 0.81184 0.69101 0.0
H1011 H 0.09873 0.81087 0.67884 0.0
H1012 H 0.98907 0.61495 0.49263 0.0
H1013 H 0.00206 0.64309 0.51777 0.0
H1014 H 0.94299 0.63738 0.53815 0.0
H1015 H 0.93008 0.60924 0.51334 0.0
H1016 H 0.99122 0.67897 0.52796 0.0
H1017 H 0.97806 0.63637 0.58212 0.0
H1018 H 0.97683 0.62445 0.55865 0.0
H1019 H 0.95556 0.63376 0.5679 0.0
C1020 C 0.9789 0.61977 0.50249 0.0
C1021 C 0.95865 0.60976 0.50121 0.0
C1022 C 0.98633 0.63576 0.51684 0.0
C1023 C 0.9736 0.64199 0.53006 0.0
C1024 C 0.95323 0.63242 0.52843 0.0
H1025 H 0.98618 0.75468 0.60396 0.0
H1026 H 0.97812 0.72604 0.57882 0.0
C1027 C 0.94586 0.61639 0.51422 0.0
C1028 C 0.98136 0.65876 0.54542 0.0
H1029 H 0.98387 0.67186 0.59133 0.0
C1030 C 0.98981 0.6774 0.54183 0.0
C1031 C 0.97987 0.65659 0.56351 0.0
C1032 C 0.97229 0.63666 0.5683 0.0
C1033 C 0.9961 0.69411 0.55584 0.0
C1034 C 0.99339 0.6922 0.57388 0.0
C1035 C 0.98566 0.67339 0.57749 0.0
C1036 C 0.9982 0.70952 0.58921 0.0
C1037 C 0.00571 0.71361 0.55117 0.0
C1038 C 0.01155 0.70942 0.60376 0.0
C1039 C 0.01593 0.72564 0.61832 0.0
C1040 C 0.00704 0.74228 0.61858 0.0
C1041 C 0.99342 0.74218 0.60411 0.0
C1042 C 0.98893 0.72589 0.58964 0.0
H1043 H 0.01241 0.71125 0.53796 0.0
H1044 H 0.994 0.72257 0.5502 0.0
H1045 H 0.01769 0.72229 0.56164 0.0
H1046 H 0.01875 0.69686 0.60377 0.0
H1047 H 0.0265 0.72524 0.62924 0.0
H1048 H 0.82162 0.81524 0.27642 0.0
H1049 H 0.83188 0.85147 0.28453 0.0
H1050 H 0.80848 0.85576 0.23212 0.0
H1051 H 0.79729 0.81969 0.22425 0.0
H1052 H 0.85942 0.87294 0.26824 0.0
H1053 H 0.78808 0.89987 0.26383 0.0
H1054 H 0.78862 0.87433 0.26451 0.0
H1055 H 0.79127 0.88286 0.24365 0.0
C1056 C 0.81811 0.82392 0.26682 0.0
C1057 C 0.80872 0.81455 0.24965 0.0
C1058 C 0.8241 0.84463 0.27143 0.0
C1059 C 0.82078 0.85637 0.25901 0.0
C1060 C 0.81084 0.84709 0.24208 0.0
H1061 H 0.89581 0.96938 0.254 0.0
H1062 H 0.87702 0.93502 0.24816 0.0
C1063 C 0.80472 0.82642 0.2375 0.0
C1064 C 0.82956 0.878 0.26299 0.0
H1065 H 0.81863 0.92372 0.2632 0.0
C1066 C 0.85045 0.88404 0.26732 0.0
C1067 C 0.81784 0.89251 0.26194 0.0
C1068 C 0.79518 0.88709 0.25841 0.0
C1069 C 0.86002 0.90411 0.27017 0.0
C1070 C 0.84847 0.91851 0.26818 0.0
C1071 C 0.82749 0.91259 0.26439 0.0
C1072 C 0.85802 0.9398 0.27028 0.0
C1073 C 0.88241 0.90971 0.27547 0.0
C1074 C 0.85277 0.95409 0.28401 0.0
C1075 C 0.86332 0.97382 0.28727 0.0
C1076 C 0.87932 0.97957 0.27684 0.0
C1077 C 0.88374 0.96542 0.26242 0.0
C1078 C 0.87309 0.94574 0.25912 0.0
H1079 H 0.8878 0.89803 0.28122 0.0
H1080 H 0.89068 0.91153 0.26335 0.0
H1081 H 0.8863 0.92397 0.28552 0.0
H1082 H 0.84106 0.94982 0.29269 0.0
H1083 H 0.85948 0.98435 0.29844 0.0
H1084 H 0.78013 0.19664 0.32206 0.0
H1085 H 0.79905 0.16997 0.32013 0.0
H1086 H 0.84439 0.20185 0.29218 0.0
H1087 H 0.82609 0.22906 0.29483 0.0
H1088 H 0.80911 0.14612 0.29041 0.0
H1089 H 0.87852 0.1894 0.33171 0.0
H1090 H 0.85547 0.19871 0.33106 0.0
H1091 H 0.87187 0.19973 0.313 0.0
C1092 C 0.79429 0.19816 0.31576 0.0
C1093 C 0.80165 0.21509 0.30872 0.0
C1094 C 0.80501 0.18281 0.31454 0.0
C1095 C 0.82329 0.18405 0.30626 0.0
C1096 C 0.83054 0.20076 0.29896 0.0
H1097 H 0.90165 0.09698 0.28491 0.0
H1098 H 0.88552 0.12546 0.28424 0.0
C1099 C 0.8199 0.21618 0.30027 0.0
C1100 C 0.83444 0.16758 0.30494 0.0
H1101 H 0.87925 0.15633 0.31721 0.0
C1102 C 0.82445 0.14837 0.29627 0.0
C1103 C 0.85448 0.17055 0.31257 0.0
C1104 C 0.86568 0.19067 0.32275 0.0
C1105 C 0.83391 0.13205 0.29508 0.0
C1106 C 0.85382 0.135 0.30284 0.0
C1107 C 0.86399 0.15421 0.31121 0.0
C1108 C 0.86382 0.11808 0.30332 0.0
C1109 C 0.82256 0.1117 0.28561 0.0
C1110 C 0.85707 0.10477 0.31445 0.0
C1111 C 0.86627 0.08865 0.31496 0.0
C1112 C 0.88238 0.0855 0.30429 0.0
C1113 C 0.88924 0.09898 0.29324 0.0
C1114 C 0.88008 0.11523 0.29285 0.0
H1115 H 0.80903 0.11251 0.27727 0.0
H1116 H 0.83249 0.10375 0.27685 0.0
H1117 H 0.81751 0.10279 0.29582 0.0
H1118 H 0.84465 0.10687 0.32275 0.0
H1119 H 0.86063 0.07857 0.32363 0.0
H1120 H 0.41918 0.02012 0.96134 0.0
H1121 H 0.39579 0.99332 0.97081 0.0
H1122 H 0.37239 0.03678 0.00823 0.0
H1123 H 0.39563 0.06356 0.99887 0.0
H1124 H 0.38039 0.00526 0.02309 0.0
H1125 H 0.33479 0.9785 0.95737 0.0
H1126 H 0.36141 0.97934 0.95631 0.0
H1127 H 0.3524 0.00206 0.96276 0.0
C1128 C 0.40895 0.02393 0.9715 0.0
C1129 C 0.40923 0.04393 0.97936 0.0
C1130 C 0.39562 0.00863 0.97689 0.0
C1131 C 0.38226 0.0131 0.9901 0.0
C1132 C 0.38264 0.03302 0.99806 0.0
H1133 H 0.27167 0.94329 0.01309 0.0
H1134 H 0.29884 0.96807 0.00568 0.0
C1135 C 0.39596 0.04829 0.99272 0.0
C1136 C 0.36765 0.99713 0.99559 0.0
H1137 H 0.32623 0.96052 0.98019 0.0
C1138 C 0.36858 0.99539 0.01372 0.0
C1139 C 0.35218 0.98445 0.98334 0.0
C1140 C 0.34994 0.98621 0.96389 0.0
C1141 C 0.35431 0.9814 0.01998 0.0
C1142 C 0.33891 0.96866 0.0077 0.0
C1143 C 0.33813 0.97026 0.98954 0.0
C1144 C 0.3228 0.95421 0.01347 0.0
C1145 C 0.35542 0.98079 0.03975 0.0
C1146 C 0.3273 0.93829 0.02051 0.0
C1147 C 0.31175 0.92408 0.02488 0.0
C1148 C 0.29146 0.92549 0.0221 0.0
C1149 C 0.28711 0.9417 0.01537 0.0
C1150 C 0.30262 0.95588 0.01109 0.0
H1151 H 0.36529 0.99438 0.04797 0.0
H1152 H 0.34017 0.97919 0.04489 0.0
H1153 H 0.36172 0.96775 0.04165 0.0
H1154 H 0.34277 0.93656 0.02219 0.0
H1155 H 0.31561 0.91172 0.02993 0.0
H1156 H 0.30837 0.41887 0.32735 0.0
H1157 H 0.2822 0.43001 0.31133 0.0
H1158 H 0.24886 0.36953 0.2958 0.0
H1159 H 0.27492 0.35828 0.31218 0.0
H1160 H 0.26421 0.41945 0.27512 0.0
H1161 H 0.21019 0.39995 0.32565 0.0
H1162 H 0.23691 0.40103 0.32925 0.0
H1163 H 0.22151 0.38044 0.31374 0.0
C1164 C 0.29556 0.40791 0.32038 0.0
C1165 C 0.29354 0.38775 0.32123 0.0
C1166 C 0.28069 0.41427 0.31114 0.0
C1167 C 0.26347 0.40064 0.30261 0.0
C1168 C 0.26194 0.38032 0.3025 0.0
H1169 H 0.17137 0.45202 0.2517 0.0
H1170 H 0.19266 0.42803 0.25536 0.0
C1171 C 0.27689 0.3739 0.31173 0.0
C1172 C 0.24658 0.40823 0.2953 0.0
H1173 H 0.20017 0.41786 0.30511 0.0
C1174 C 0.25001 0.41877 0.28138 0.0
C1175 C 0.22816 0.40742 0.30364 0.0
C1176 C 0.22388 0.39673 0.31897 0.0
C1177 C 0.23585 0.42929 0.27613 0.0
C1178 C 0.21783 0.42914 0.285 0.0
C1179 C 0.21398 0.41782 0.2983 0.0
C1180 C 0.20423 0.44283 0.28256 0.0
C1181 C 0.24078 0.44149 0.26194 0.0
C1182 C 0.20346 0.4588 0.29673 0.0
C1183 C 0.19144 0.47244 0.29469 0.0
C1184 C 0.17978 0.47034 0.27846 0.0
C1185 C 0.1802 0.45405 0.26436 0.0
C1186 C 0.1924 0.4404 0.26639 0.0
H1187 H 0.25628 0.4415 0.25759 0.0
H1188 H 0.22989 0.43535 0.24997 0.0
H1189 H 0.23933 0.45709 0.26714 0.0
H1190 H 0.21247 0.46092 0.30932 0.0
H1191 H 0.19142 0.48475 0.30586 0.0
H1192 H 0.11081 0.019 0.47893 0.0
H1193 H 0.14354 0.04208 0.48371 0.0
H1194 H 0.17246 0.99437 0.46015 0.0
H1195 H 0.1397 0.97122 0.45505 0.0
H1196 H 0.18163 0.04066 0.50227 0.0
H1197 H 0.18557 0.0372 0.42855 0.0
H1198 H 0.16241 0.02863 0.43827 0.0
H1199 H 0.18146 0.01384 0.43574 0.0
C1200 C 0.12418 0.0134 0.47491 0.0
C1201 C 0.12271 0.99336 0.46648 0.0
C1202 C 0.14283 0.02657 0.4777 0.0
C1203 C 0.16029 0.01994 0.47202 0.0
C1204 C 0.15907 0.99976 0.46441 0.0
H1205 H 0.28068 0.08877 0.46552 0.0
H1206 H 0.25106 0.06195 0.46321 0.0
C1207 C 0.1404 0.98654 0.46167 0.0
C1208 C 0.17951 0.03446 0.47327 0.0
H1209 H 0.2126 0.05799 0.44769 0.0
C1210 C 0.18849 0.04441 0.49037 0.0
C1211 C 0.18836 0.03924 0.45767 0.0
C1212 C 0.17895 0.02932 0.43899 0.0
C1213 C 0.20615 0.05913 0.4923 0.0
C1214 C 0.21471 0.06429 0.47671 0.0
C1215 C 0.20594 0.05403 0.45961 0.0
C1216 C 0.23249 0.08063 0.47784 0.0
C1217 C 0.21556 0.06888 0.51102 0.0
C1218 C 0.23166 0.1001 0.48642 0.0
C1219 C 0.24854 0.11545 0.48778 0.0
C1220 C 0.26653 0.11165 0.48044 0.0
C1221 C 0.26709 0.09222 0.47134 0.0
C1222 C 0.2502 0.07686 0.47004 0.0
H1223 H 0.21078 0.05947 0.52093 0.0
H1224 H 0.2323 0.07197 0.51131 0.0
H1225 H 0.21068 0.08322 0.51538 0.0
H1226 H 0.21795 0.10341 0.49211 0.0
H1227 H 0.24753 0.13026 0.49476 0.0
H1228 H 0.77688 0.21956 0.75363 0.0
H1229 H 0.75105 0.18991 0.75377 0.0
H1230 H 0.78287 0.15469 0.71602 0.0
H1231 H 0.80916 0.18425 0.7164 0.0
H1232 H 0.72515 0.16309 0.72975 0.0
H1233 H 0.78137 0.12615 0.7571 0.0
H1234 H 0.78732 0.15182 0.75508 0.0
H1235 H 0.78707 0.13223 0.73571 0.0
C1236 C 0.77813 0.20555 0.7451 0.0
C1237 C 0.79503 0.2041 0.7351 0.0
C1238 C 0.76343 0.18861 0.74524 0.0
C1239 C 0.76531 0.16998 0.73528 0.0
C1240 C 0.78144 0.16879 0.72425 0.0
H1241 H 0.66875 0.06464 0.72474 0.0
H1242 H 0.69285 0.09303 0.71885 0.0
C1243 C 0.79633 0.18568 0.72434 0.0
C1244 C 0.75094 0.15177 0.73723 0.0
H1245 H 0.74827 0.10712 0.74975 0.0
C1246 C 0.73018 0.15082 0.7341 0.0
C1247 C 0.75753 0.13595 0.74326 0.0
C1248 C 0.77951 0.13662 0.74817 0.0
C1249 C 0.71582 0.13454 0.73685 0.0
C1250 C 0.72245 0.11844 0.74232 0.0
C1251 C 0.74321 0.11937 0.74539 0.0
C1252 C 0.70815 0.1008 0.7456 0.0
C1253 C 0.69372 0.13511 0.73446 0.0
C1254 C 0.70928 0.09516 0.76233 0.0
C1255 C 0.69582 0.07865 0.7656 0.0
C1256 C 0.68085 0.06757 0.75223 0.0
C1257 C 0.67995 0.07304 0.73539 0.0
C1258 C 0.69362 0.08936 0.73204 0.0
H1259 H 0.69138 0.15057 0.73554 0.0
H1260 H 0.68752 0.12654 0.72086 0.0
H1261 H 0.68502 0.12843 0.74465 0.0
H1262 H 0.72045 0.1037 0.77296 0.0
H1263 H 0.69689 0.07483 0.77871 0.0
H1264 H 0.42843 0.98753 0.52358 0.0
H1265 H 0.4181 0.01633 0.51525 0.0
H1266 H 0.41838 0.04352 0.57144 0.0
H1267 H 0.42875 0.01461 0.57993 0.0
H1268 H 0.38252 0.02888 0.5246 0.0
H1269 H 0.44971 0.08896 0.5499 0.0
H1270 H 0.45063 0.06288 0.54669 0.0
H1271 H 0.43949 0.07465 0.56593 0.0
C1272 C 0.42632 0.99964 0.53418 0.0
C1273 C 0.42925 0.99874 0.55242 0.0
C1274 C 0.42054 0.01614 0.5294 0.0
C1275 C 0.41765 0.03213 0.54272 0.0
C1276 C 0.42091 0.0315 0.56096 0.0
H1277 H 0.36297 0.13245 0.52932 0.0
H1278 H 0.38014 0.11017 0.54258 0.0
C1279 C 0.42677 0.01497 0.56578 0.0
C1280 C 0.40983 0.04867 0.53731 0.0
H1281 H 0.42136 0.09845 0.53748 0.0
C1282 C 0.39102 0.04408 0.52744 0.0
C1283 C 0.42089 0.06852 0.54117 0.0
C1284 C 0.44138 0.07413 0.55139 0.0
C1285 C 0.38304 0.05874 0.52111 0.0
C1286 C 0.39429 0.07847 0.52455 0.0
C1287 C 0.41287 0.08326 0.53482 0.0
C1288 C 0.387 0.094 0.51697 0.0
C1289 C 0.36261 0.05301 0.51073 0.0
C1290 C 0.38593 0.0927 0.49828 0.0
C1291 C 0.37616 0.10533 0.49068 0.0
C1292 C 0.36731 0.11951 0.50166 0.0
C1293 C 0.3696 0.12166 0.5205 0.0
C1294 C 0.37939 0.10896 0.5281 0.0
H1295 H 0.35408 0.03841 0.51259 0.0
H1296 H 0.35345 0.06447 0.51497 0.0
H1297 H 0.36465 0.05194 0.49615 0.0
H1298 H 0.39189 0.08133 0.48951 0.0
H1299 H 0.37479 0.10337 0.47614 0.0
H1300 H 0.63583 0.56225 0.58532 0.0
H1301 H 0.65203 0.53418 0.57506 0.0
H1302 H 0.59743 0.49342 0.58106 0.0
H1303 H 0.5807 0.52136 0.59032 0.0
H1304 H 0.65985 0.5062 0.59244 0.0
H1305 H 0.60962 0.47018 0.53073 0.0
H1306 H 0.60917 0.49488 0.54306 0.0
H1307 H 0.59654 0.47343 0.55092 0.0
C1308 C 0.62708 0.54732 0.5841 0.0
C1309 C 0.60687 0.54412 0.58852 0.0
C1310 C 0.63646 0.53127 0.57841 0.0
C1311 C 0.62588 0.51166 0.57706 0.0
C1312 C 0.60578 0.50838 0.58163 0.0
H1313 H 0.69219 0.41348 0.56493 0.0
H1314 H 0.67065 0.43677 0.57681 0.0
C1315 C 0.59632 0.52443 0.58717 0.0
C1316 C 0.63614 0.49477 0.57119 0.0
H1317 H 0.63401 0.45272 0.53892 0.0
C1318 C 0.65418 0.49447 0.58076 0.0
C1319 C 0.6288 0.47956 0.55586 0.0
C1320 C 0.61008 0.47956 0.54443 0.0
C1321 C 0.66527 0.47959 0.57529 0.0
C1322 C 0.65781 0.46424 0.56009 0.0
C1323 C 0.63959 0.46437 0.55068 0.0
C1324 C 0.66952 0.44894 0.55275 0.0
C1325 C 0.68527 0.48094 0.58541 0.0
C1326 C 0.6753 0.44742 0.53504 0.0
C1327 C 0.68727 0.43397 0.52815 0.0
C1328 C 0.69382 0.42175 0.53884 0.0
C1329 C 0.68751 0.42279 0.5564 0.0
C1330 C 0.67533 0.4362 0.56326 0.0
H1331 H 0.691 0.49601 0.59387 0.0
H1332 H 0.68339 0.47013 0.59444 0.0
H1333 H 0.69681 0.4773 0.57597 0.0
H1334 H 0.67096 0.45704 0.52665 0.0
H1335 H 0.69182 0.43356 0.51456 0.0
H1336 H 0.73412 0.26483 0.33205 0.0
H1337 H 0.72037 0.27777 0.36039 0.0
H1338 H 0.77255 0.27 0.3903 0.0
H1339 H 0.78668 0.25758 0.36217 0.0
H1340 H 0.73125 0.25584 0.40303 0.0
H1341 H 0.74725 0.33401 0.39304 0.0
H1342 H 0.73414 0.31477 0.37478 0.0
H1343 H 0.76002 0.31542 0.38132 0.0
C1344 C 0.74272 0.26596 0.34465 0.0
C1345 C 0.76155 0.26022 0.34481 0.0
C1346 C 0.73477 0.27323 0.36081 0.0
C1347 C 0.74549 0.27485 0.37737 0.0
C1348 C 0.76402 0.26873 0.37762 0.0
H1349 H 0.75072 0.31872 0.48942 0.0
H1350 H 0.74905 0.29801 0.45945 0.0
C1351 C 0.77202 0.26156 0.36152 0.0
C1352 C 0.73802 0.2838 0.3945 0.0
H1353 H 0.73475 0.32859 0.42038 0.0
C1354 C 0.73174 0.27171 0.40679 0.0
C1355 C 0.73855 0.30444 0.39923 0.0
C1356 C 0.74542 0.31805 0.38651 0.0
C1357 C 0.72646 0.27986 0.42398 0.0
C1358 C 0.72804 0.30069 0.42911 0.0
C1359 C 0.7335 0.31262 0.41647 0.0
C1360 C 0.72623 0.31079 0.44793 0.0
C1361 C 0.71938 0.26606 0.43648 0.0
C1362 C 0.71385 0.32486 0.45158 0.0
C1363 C 0.71498 0.33701 0.46874 0.0
C1364 C 0.72859 0.33535 0.48256 0.0
C1365 C 0.74003 0.3204 0.47914 0.0
C1366 C 0.73898 0.30838 0.46198 0.0
H1367 H 0.71183 0.25109 0.42877 0.0
H1368 H 0.73262 0.2642 0.44454 0.0
H1369 H 0.70874 0.27202 0.44585 0.0
H1370 H 0.70394 0.32703 0.44093 0.0
H1371 H 0.70593 0.34834 0.4709 0.0
H1372 H 0.47679 0.09247 0.8789 0.0
H1373 H 0.50447 0.08376 0.86114 0.0
H1374 H 0.50745 0.03614 0.88896 0.0
H1375 H 0.47951 0.04454 0.90659 0.0
H1376 H 0.54485 0.08045 0.87292 0.0
H1377 H 0.49818 0.0093 0.83419 0.0
H1378 H 0.4872 0.02875 0.84691 0.0
H1379 H 0.49869 0.01304 0.85836 0.0
C1380 C 0.48334 0.08015 0.88124 0.0
C1381 C 0.47588 0.06909 0.89404 0.0
C1382 C 0.49921 0.07528 0.87117 0.0
C1383 C 0.5078 0.05918 0.87362 0.0
C1384 C 0.50084 0.04848 0.88676 0.0
H1385 H 0.61538 0.02887 0.82324 0.0
H1386 H 0.59079 0.03619 0.8452 0.0
C1387 C 0.48502 0.05341 0.89691 0.0
C1388 C 0.52357 0.05328 0.86194 0.0
H1389 H 0.53218 0.01701 0.82758 0.0
C1390 C 0.54218 0.06653 0.86309 0.0
C1391 C 0.51988 0.03519 0.84903 0.0
C1392 C 0.49988 0.02075 0.84686 0.0
C1393 C 0.55723 0.0622 0.85156 0.0
C1394 C 0.55354 0.0441 0.83866 0.0
C1395 C 0.53497 0.0308 0.83759 0.0
C1396 C 0.56832 0.0392 0.82548 0.0
C1397 C 0.5767 0.07724 0.85286 0.0
C1398 C 0.56363 0.03808 0.80711 0.0
C1399 C 0.5776 0.03391 0.79454 0.0
C1400 C 0.5965 0.03061 0.80009 0.0
C1401 C 0.601 0.03138 0.8185 0.0
C1402 C 0.58702 0.03565 0.83109 0.0
H1403 H 0.57573 0.0919 0.86124 0.0
H1404 H 0.58901 0.07171 0.85905 0.0
H1405 H 0.58085 0.07936 0.83923 0.0
H1406 H 0.54923 0.04071 0.80252 0.0
H1407 H 0.57358 0.03336 0.78047 0.0
H1408 H 0.31255 0.29309 0.35684 0.0
H1409 H 0.31148 0.27081 0.37814 0.0
H1410 H 0.37533 0.27292 0.37519 0.0
H1411 H 0.37663 0.29553 0.3542 0.0
H1412 H 0.32312 0.23295 0.37362 0.0
H1413 H 0.36823 0.28927 0.42982 0.0
H1414 H 0.35681 0.29595 0.41063 0.0
H1415 H 0.37956 0.2863 0.40865 0.0
C1416 C 0.32638 0.28889 0.3608 0.0
C1417 C 0.34469 0.29613 0.35389 0.0
C1418 C 0.32572 0.27609 0.37288 0.0
C1419 C 0.34337 0.27044 0.37838 0.0
C1420 C 0.3616 0.27733 0.37128 0.0
H1421 H 0.34823 0.17541 0.43701 0.0
H1422 H 0.35284 0.19701 0.41507 0.0
C1423 C 0.36227 0.29008 0.35916 0.0
C1424 C 0.34267 0.25738 0.39162 0.0
H1425 H 0.3592 0.25636 0.43442 0.0
C1426 C 0.33104 0.23801 0.3869 0.0
C1427 C 0.35288 0.26416 0.40897 0.0
C1428 C 0.36496 0.2851 0.41496 0.0
C1429 C 0.3294 0.22516 0.39908 0.0
C1430 C 0.33982 0.23184 0.41635 0.0
C1431 C 0.3514 0.25124 0.42109 0.0
C1432 C 0.33809 0.21922 0.43 0.0
C1433 C 0.31611 0.20471 0.39356 0.0
C1434 C 0.32884 0.22488 0.44589 0.0
C1435 C 0.32623 0.21263 0.45847 0.0
C1436 C 0.33295 0.19452 0.45544 0.0
C1437 C 0.34281 0.18921 0.43974 0.0
C1438 C 0.34536 0.20146 0.42713 0.0
H1439 H 0.30594 0.20339 0.38137 0.0
H1440 H 0.32574 0.19349 0.39049 0.0
H1441 H 0.30678 0.20111 0.40467 0.0
H1442 H 0.32322 0.23858 0.44838 0.0
H1443 H 0.31865 0.21724 0.47043 0.0
H1444 H 0.55713 0.50888 0.94907 0.0
H1445 H 0.53326 0.52001 0.93038 0.0
H1446 H 0.52289 0.46317 0.89341 0.0
H1447 H 0.54683 0.45195 0.91204 0.0
H1448 H 0.53819 0.52304 0.89491 0.0
H1449 H 0.46562 0.47292 0.90058 0.0
H1450 H 0.48745 0.47635 0.91614 0.0
H1451 H 0.48574 0.46012 0.89437 0.0
C1452 C 0.5496 0.49869 0.93705 0.0
C1453 C 0.55391 0.47957 0.93196 0.0
C1454 C 0.53594 0.50505 0.92643 0.0
C1455 C 0.52621 0.49238 0.91059 0.0
C1456 C 0.52995 0.47305 0.90577 0.0
H1457 H 0.47825 0.51971 0.81451 0.0
H1458 H 0.49885 0.5122 0.83833 0.0
C1459 C 0.54362 0.46665 0.91642 0.0
C1460 C 0.51348 0.49996 0.8984 0.0
H1461 H 0.46639 0.49129 0.8771 0.0
C1462 C 0.52243 0.51622 0.89113 0.0
C1463 C 0.4929 0.49117 0.89366 0.0
C1464 C 0.48227 0.47429 0.90171 0.0
C1465 C 0.51151 0.52355 0.87881 0.0
C1466 C 0.49119 0.51419 0.87347 0.0
C1467 C 0.48203 0.49834 0.88115 0.0
C1468 C 0.47938 0.52011 0.8594 0.0
C1469 C 0.5218 0.54122 0.87162 0.0
C1470 C 0.46158 0.52701 0.86336 0.0
C1471 C 0.44973 0.53132 0.84975 0.0
C1472 C 0.45539 0.52859 0.8319 0.0
C1473 C 0.47347 0.52205 0.8281 0.0
C1474 C 0.48532 0.51782 0.84171 0.0
H1475 H 0.53519 0.54991 0.88057 0.0
H1476 H 0.52702 0.53592 0.85817 0.0
H1477 H 0.51125 0.55124 0.87007 0.0
H1478 H 0.45673 0.52881 0.87693 0.0
H1479 H 0.43586 0.53625 0.85314 0.0
H1480 H 0.78157 0.7326 0.19674 0.0
H1481 H 0.78788 0.71948 0.16557 0.0
H1482 H 0.84568 0.75987 0.17249 0.0
H1483 H 0.8393 0.77323 0.2036 0.0
H1484 H 0.82465 0.76124 0.14244 0.0
H1485 H 0.82403 0.68259 0.14462 0.0
H1486 H 0.80162 0.69023 0.15277 0.0
H1487 H 0.82575 0.70165 0.16477 0.0
C1488 C 0.79577 0.73842 0.19169 0.0
C1489 C 0.80994 0.75394 0.20256 0.0
C1490 C 0.7994 0.73087 0.17391 0.0
C1491 C 0.8174 0.73848 0.16678 0.0
C1492 C 0.83173 0.75374 0.17773 0.0
H1493 H 0.84451 0.6842 0.05817 0.0
H1494 H 0.84748 0.69742 0.09079 0.0
C1495 C 0.82804 0.76139 0.19546 0.0
C1496 C 0.8206 0.73155 0.14753 0.0
H1497 H 0.81965 0.68985 0.11519 0.0
C1498 C 0.82382 0.74565 0.13654 0.0
C1499 C 0.81986 0.71128 0.13987 0.0
C1500 C 0.81785 0.6956 0.15117 0.0
C1501 C 0.82544 0.73993 0.11796 0.0
C1502 C 0.82332 0.7195 0.1101 0.0
C1503 C 0.82102 0.70549 0.1212 0.0
C1504 C 0.82228 0.71229 0.09032 0.0
C1505 C 0.82932 0.75582 0.10692 0.0
C1506 C 0.80709 0.71618 0.07929 0.0
C1507 C 0.80541 0.70876 0.06073 0.0
C1508 C 0.81878 0.69709 0.05281 0.0
C1509 C 0.83404 0.69321 0.06386 0.0
C1510 C 0.83573 0.70071 0.08248 0.0
H1511 H 0.83699 0.77038 0.11534 0.0
H1512 H 0.83873 0.75173 0.09564 0.0
H1513 H 0.81469 0.75774 0.10117 0.0
H1514 H 0.79623 0.72466 0.0851 0.0
H1515 H 0.79339 0.71191 0.05264 0.0
H1516 H 0.03977 0.04394 0.11735 0.0
H1517 H 0.01813 0.0428 0.14238 0.0
H1518 H 0.04946 0.10162 0.16887 0.0
H1519 H 0.07163 0.10262 0.14413 0.0
H1520 H 0.04575 0.07527 0.19133 0.0
H1521 H 0.97161 0.07067 0.15581 0.0
H1522 H 0.98468 0.05213 0.14494 0.0
H1523 H 0.9952 0.07804 0.14622 0.0
C1524 C 0.04206 0.05664 0.1285 0.0
C1525 C 0.05744 0.07336 0.12874 0.0
C1526 C 0.02949 0.05608 0.14268 0.0
C1527 C 0.03193 0.07227 0.15734 0.0
C1528 C 0.04717 0.08905 0.15759 0.0
H1529 H 0.94855 0.07163 0.24414 0.0
H1530 H 0.96866 0.0824 0.22019 0.0
C1531 C 0.05976 0.08963 0.1434 0.0
C1532 C 0.01953 0.07103 0.17296 0.0
H1533 H 0.97088 0.06077 0.18447 0.0
C1534 C 0.02938 0.07238 0.18988 0.0
C1535 C 0.99819 0.06758 0.17114 0.0
C1536 C 0.98679 0.06723 0.15358 0.0
C1537 C 0.01846 0.06935 0.2048 0.0
C1538 C 0.99713 0.06454 0.20267 0.0
C1539 C 0.98724 0.06424 0.18601 0.0
C1540 C 0.98495 0.05834 0.21718 0.0
C1541 C 0.02986 0.07102 0.22268 0.0
C1542 C 0.98724 0.04112 0.22316 0.0
C1543 C 0.97583 0.03494 0.2367 0.0
C1544 C 0.96177 0.04581 0.24454 0.0
C1545 C 0.9593 0.06298 0.23841 0.0
C1546 C 0.97075 0.06914 0.22474 0.0
H1547 H 0.04522 0.08039 0.22348 0.0
H1548 H 0.02165 0.07743 0.23406 0.0
H1549 H 0.03153 0.05597 0.22428 0.0
H1550 H 0.99782 0.03235 0.21724 0.0
H1551 H 0.97806 0.02159 0.24103 0.0
H1552 H 0.27026 0.81356 0.21909 0.0
H1553 H 0.25867 0.82263 0.1915 0.0
H1554 H 0.30051 0.79189 0.16184 0.0
H1555 H 0.31205 0.78267 0.18931 0.0
H1556 H 0.28143 0.84558 0.17188 0.0
H1557 H 0.24962 0.77188 0.1286 0.0
H1558 H 0.25513 0.77525 0.1526 0.0
H1559 H 0.27496 0.77363 0.13751 0.0
C1560 C 0.27684 0.80856 0.20663 0.0
C1561 C 0.29207 0.79738 0.20637 0.0
C1562 C 0.27016 0.81371 0.19088 0.0
C1563 C 0.27853 0.80774 0.17455 0.0
C1564 C 0.29345 0.79624 0.17417 0.0
H1565 H 0.28519 0.83703 0.07068 0.0
H1566 H 0.28783 0.82468 0.09842 0.0
C1567 C 0.30007 0.791 0.1899 0.0
C1568 C 0.27285 0.81485 0.15824 0.0
H1569 H 0.257 0.7993 0.11358 0.0
C1570 C 0.2758 0.83546 0.15919 0.0
C1571 C 0.26548 0.80163 0.14171 0.0
C1572 C 0.26091 0.77937 0.14006 0.0
C1573 C 0.27239 0.84321 0.14388 0.0
C1574 C 0.26567 0.82999 0.12724 0.0
C1575 C 0.26221 0.80939 0.12637 0.0
C1576 C 0.26341 0.83724 0.11035 0.0
C1577 C 0.2768 0.86547 0.14544 0.0
C1578 C 0.24864 0.84827 0.10779 0.0
C1579 C 0.24705 0.85537 0.09187 0.0
C1580 C 0.26024 0.85155 0.07829 0.0
C1581 C 0.27484 0.84031 0.08088 0.0
C1582 C 0.27635 0.83318 0.09671 0.0
H1583 H 0.28517 0.87349 0.15847 0.0
H1584 H 0.28575 0.86956 0.13427 0.0
H1585 H 0.26236 0.87063 0.14445 0.0
H1586 H 0.23835 0.85135 0.11809 0.0
H1587 H 0.2356 0.86392 0.09026 0.0
H1588 H 0.98625 0.44788 0.0696 0.0
H1589 H 0.01222 0.44868 0.09324 0.0
H1590 H 0.98392 0.48737 0.13113 0.0
H1591 H 0.95777 0.48644 0.10766 0.0
H1592 H 0.03879 0.48347 0.11315 0.0
H1593 H 0.99189 0.44254 0.15764 0.0
H1594 H 0.984 0.4412 0.13435 0.0
H1595 H 0.98154 0.46227 0.15136 0.0
C1596 C 0.98544 0.45636 0.08303 0.0
C1597 C 0.96997 0.46708 0.08681 0.0
C1598 C 0.0003 0.45684 0.09648 0.0
C1599 C 0.99979 0.46783 0.11396 0.0
C1600 C 0.98436 0.47852 0.11778 0.0
H1601 H 0.08248 0.52606 0.20145 0.0
H1602 H 0.05978 0.51428 0.1742 0.0
C1603 C 0.96957 0.47815 0.10433 0.0
C1604 C 0.01598 0.46914 0.12802 0.0
H1605 H 0.02412 0.46185 0.17065 0.0
C1606 C 0.03568 0.47845 0.12561 0.0
C1607 C 0.01191 0.46233 0.14413 0.0
C1608 C 0.99123 0.45135 0.14702 0.0
C1609 C 0.05117 0.48222 0.13936 0.0
C1610 C 0.04678 0.47659 0.15592 0.0
C1611 C 0.02739 0.46622 0.15795 0.0
C1612 C 0.06141 0.48335 0.17188 0.0
C1613 C 0.072 0.49273 0.13633 0.0
C1614 C 0.06973 0.46976 0.17966 0.0
C1615 C 0.08289 0.47648 0.19528 0.0
C1616 C 0.08756 0.49682 0.20345 0.0
C1617 C 0.07918 0.5103 0.19552 0.0
C1618 C 0.06628 0.50362 0.17989 0.0
H1619 H 0.07426 0.4914 0.12174 0.0
H1620 H 0.07404 0.50877 0.14257 0.0
H1621 H 0.08379 0.48665 0.14269 0.0
H1622 H 0.06598 0.45401 0.17369 0.0
H1623 H 0.08907 0.46576 0.20115 0.0
H1624 H 0.36819 0.76087 0.27621 0.0
H1625 H 0.39978 0.75763 0.29079 0.0
H1626 H 0.39714 0.70126 0.25456 0.0
H1627 H 0.36593 0.70477 0.2394 0.0
H1628 H 0.40276 0.72765 0.30836 0.0
H1629 H 0.45609 0.72828 0.25448 0.0
H1630 H 0.43257 0.73665 0.25299 0.0
H1631 H 0.43277 0.71051 0.24827 0.0
C1632 C 0.37462 0.74807 0.27096 0.0
C1633 C 0.36451 0.73307 0.25664 0.0
C1634 C 0.39261 0.74616 0.27942 0.0
C1635 C 0.40088 0.72926 0.2737 0.0
C1636 C 0.39122 0.71457 0.25901 0.0
H1637 H 0.48288 0.69344 0.34683 0.0
H1638 H 0.45553 0.69218 0.32437 0.0
C1639 C 0.37326 0.7165 0.2505 0.0
C1640 C 0.41855 0.72627 0.28416 0.0
H1641 H 0.46715 0.71967 0.28144 0.0
C1642 C 0.41684 0.72591 0.30247 0.0
C1643 C 0.4369 0.72404 0.27644 0.0
C1644 C 0.43984 0.72505 0.25701 0.0
C1645 C 0.43301 0.72355 0.31335 0.0
C1646 C 0.45128 0.72101 0.3056 0.0
C1647 C 0.45302 0.72131 0.28726 0.0
C1648 C 0.46919 0.71968 0.31677 0.0
C1649 C 0.43057 0.72446 0.33319 0.0
C1650 C 0.48643 0.7349 0.31913 0.0
C1651 C 0.50215 0.73557 0.3318 0.0
C1652 C 0.5009 0.72102 0.34239 0.0
C1653 C 0.48425 0.70497 0.33904 0.0
C1654 C 0.46855 0.70429 0.32628 0.0
H1655 H 0.41733 0.73085 0.33768 0.0
H1656 H 0.42831 0.70919 0.33586 0.0
H1657 H 0.44427 0.73354 0.34145 0.0
H1658 H 0.48728 0.74685 0.31184 0.0
H1659 H 0.51481 0.74806 0.3339 0.0
H1660 H 0.91612 0.35686 0.01217 0.0
H1661 H 0.93634 0.33382 0.99728 0.0
H1662 H 0.97918 0.38316 0.98589 0.0
H1663 H 0.95905 0.40628 0.00071 0.0
H1664 H 0.94568 0.32867 0.96168 0.0
H1665 H 0.01558 0.35203 0.00758 0.0
H1666 H 0.99204 0.35901 0.01383 0.0
H1667 H 0.00762 0.37199 0.99946 0.0
C1668 C 0.92986 0.3628 0.00651 0.0
C1669 C 0.93602 0.38339 0.00765 0.0
C1670 C 0.94144 0.34964 0.9981 0.0
C1671 C 0.95941 0.35682 0.99075 0.0
C1672 C 0.96563 0.37736 0.99188 0.0
H1673 H 0.04065 0.3005 0.92208 0.0
H1674 H 0.02432 0.32417 0.94154 0.0
C1675 C 0.95409 0.39054 0.00033 0.0
C1676 C 0.97096 0.34272 0.9809 0.0
H1677 H 0.01713 0.32975 0.97981 0.0
C1678 C 0.96125 0.3288 0.96572 0.0
C1679 C 0.99131 0.34304 0.98615 0.0
C1680 C 0.00223 0.35719 0.00274 0.0
C1681 C 0.97144 0.31537 0.95547 0.0
C1682 C 0.99177 0.31566 0.96073 0.0
C1683 C 0.00153 0.32959 0.97587 0.0
C1684 C 0.00301 0.30153 0.95055 0.0
C1685 C 0.96048 0.30121 0.93888 0.0
C1686 C 0.99684 0.28107 0.9497 0.0
C1687 C 0.00608 0.26753 0.93862 0.0
C1688 C 0.02174 0.27424 0.92823 0.0
C1689 C 0.02859 0.29484 0.92985 0.0
C1690 C 0.01929 0.30838 0.94095 0.0
H1691 H 0.9467 0.30594 0.93441 0.0
H1692 H 0.97047 0.30001 0.92759 0.0
H1693 H 0.95581 0.2862 0.94195 0.0
H1694 H 0.98451 0.27554 0.95727 0.0
H1695 H 0.00054 0.25179 0.93784 0.0
H1696 H 0.73033 0.70922 0.28943 0.0
H1697 H 0.70121 0.71418 0.30671 0.0
H1698 H 0.72637 0.777 0.32206 0.0
H1699 H 0.7557 0.77218 0.30482 0.0
H1700 H 0.71045 0.75336 0.35139 0.0
H1701 H 0.65748 0.7468 0.29164 0.0
H1702 H 0.67326 0.72865 0.29042 0.0
H1703 H 0.68452 0.75421 0.29125 0.0
C1704 C 0.72974 0.72408 0.29658 0.0
C1705 C 0.7453 0.74032 0.29579 0.0
C1706 C 0.71308 0.72688 0.30636 0.0
C1707 C 0.7117 0.74594 0.31557 0.0
C1708 C 0.72723 0.76219 0.31499 0.0
H1709 H 0.60454 0.78022 0.36074 0.0
H1710 H 0.63684 0.78022 0.34736 0.0
C1711 C 0.74386 0.75943 0.30507 0.0
C1712 C 0.69387 0.7488 0.32567 0.0
H1713 H 0.6435 0.74802 0.31984 0.0
C1714 C 0.69581 0.75232 0.34456 0.0
C1715 C 0.67491 0.74753 0.31664 0.0
C1716 C 0.67228 0.74422 0.29637 0.0
C1717 C 0.67904 0.75415 0.35468 0.0
C1718 C 0.65995 0.75235 0.34562 0.0
C1719 C 0.65816 0.74931 0.32674 0.0
C1720 C 0.6415 0.75332 0.35536 0.0
C1721 C 0.68182 0.75808 0.37497 0.0
C1722 C 0.63354 0.73826 0.36444 0.0
C1723 C 0.61501 0.73816 0.37206 0.0
C1724 C 0.60415 0.75311 0.3707 0.0
C1725 C 0.61252 0.7685 0.36206 0.0
C1726 C 0.63096 0.76853 0.35438 0.0
H1727 H 0.69797 0.76336 0.37995 0.0
H1728 H 0.67315 0.76932 0.38111 0.0
H1729 H 0.67606 0.7441 0.3796 0.0
H1730 H 0.64132 0.72624 0.36511 0.0
H1731 H 0.60895 0.72607 0.37857 0.0
H1732 H 0.06464 0.11239 0.04156 0.0
H1733 H 0.05541 0.11797 0.01177 0.0
H1734 H 0.11474 0.15363 0.01107 0.0
H1735 H 0.12425 0.14771 0.04063 0.0
H1736 H 0.05525 0.15581 0.0057 0.0
H1737 H 0.10531 0.11913 0.96004 0.0
H1738 H 0.10055 0.11346 0.98192 0.0
H1739 H 0.11828 0.1355 0.98004 0.0
C1740 C 0.07591 0.12095 0.03485 0.0
C1741 C 0.09517 0.12965 0.04349 0.0
C1742 C 0.07058 0.12421 0.01787 0.0
C1743 C 0.08445 0.13605 0.00912 0.0
C1744 C 0.10392 0.14415 0.01741 0.0
H1745 H 0.07927 0.1982 0.92216 0.0
H1746 H 0.08972 0.18156 0.94541 0.0
C1747 C 0.10925 0.14094 0.03441 0.0
C1748 C 0.07787 0.14177 0.99237 0.0
H1749 H 0.08847 0.14179 0.94866 0.0
C1750 C 0.06233 0.15252 0.99315 0.0
C1751 C 0.0873 0.13765 0.9761 0.0
C1752 C 0.10368 0.12565 0.97436 0.0
C1753 C 0.05629 0.15974 0.97828 0.0
C1754 C 0.06574 0.1557 0.96199 0.0
C1755 C 0.08119 0.14478 0.96113 0.0
C1756 C 0.06015 0.16339 0.94603 0.0
C1757 C 0.04036 0.1723 0.98039 0.0
C1758 C 0.0403 0.15802 0.9381 0.0
C1759 C 0.03426 0.16759 0.92493 0.0
C1760 C 0.04803 0.18253 0.91927 0.0
C1761 C 0.06829 0.18679 0.92625 0.0
C1762 C 0.07428 0.17731 0.93955 0.0
H1763 H 0.03833 0.17808 0.99479 0.0
H1764 H 0.04427 0.18512 0.97367 0.0
H1765 H 0.0257 0.16311 0.97404 0.0
H1766 H 0.02927 0.14698 0.94261 0.0
H1767 H 0.0186 0.16381 0.91968 0.0
H1768 H 0.3515 0.3269 0.28078 0.0
H1769 H 0.37437 0.32458 0.25634 0.0
H1770 H 0.41962 0.31324 0.29219 0.0
H1771 H 0.39703 0.31568 0.31661 0.0
H1772 H 0.43271 0.34408 0.27044 0.0
H1773 H 0.39115 0.27077 0.23098 0.0
H1774 H 0.37682 0.28969 0.23833 0.0
H1775 H 0.38827 0.279 0.25467 0.0
C1776 C 0.36635 0.32398 0.28343 0.0
C1777 C 0.37242 0.32129 0.30054 0.0
C1778 C 0.37932 0.32257 0.26947 0.0
C1779 C 0.39857 0.31859 0.27249 0.0
C1780 C 0.40477 0.31623 0.28961 0.0
H1781 H 0.48898 0.27957 0.20623 0.0
H1782 H 0.46412 0.28517 0.22826 0.0
C1783 C 0.3918 0.31749 0.30349 0.0
C1784 C 0.4124 0.31681 0.25787 0.0
H1785 H 0.42075 0.28568 0.21947 0.0
C1786 C 0.43005 0.33143 0.25919 0.0
C1787 C 0.40888 0.30017 0.24337 0.0
C1788 C 0.39034 0.28388 0.24167 0.0
C1789 C 0.44442 0.32975 0.24638 0.0
C1790 C 0.44098 0.31304 0.23194 0.0
C1791 C 0.42325 0.2985 0.23055 0.0
C1792 C 0.45606 0.30995 0.2186 0.0
C1793 C 0.46347 0.34551 0.2486 0.0
C1794 C 0.45966 0.32203 0.20587 0.0
C1795 C 0.47382 0.31884 0.19319 0.0
C1796 C 0.48465 0.30353 0.19309 0.0
C1797 C 0.48099 0.29153 0.20596 0.0
C1798 C 0.46675 0.29465 0.21853 0.0
H1799 H 0.46517 0.35598 0.26188 0.0
H1800 H 0.4769 0.33852 0.2472 0.0
H1801 H 0.46317 0.35418 0.23785 0.0
H1802 H 0.45141 0.33381 0.20566 0.0
H1803 H 0.47623 0.32833 0.18346 0.0
H1804 H 0.56417 0.42276 0.00879 0.0
H1805 H 0.56347 0.41387 0.03837 0.0
H1806 H 0.605 0.37499 0.02263 0.0
H1807 H 0.60521 0.38342 0.99278 0.0
H1808 H 0.57367 0.35608 0.03538 0.0
H1809 H 0.60006 0.42764 0.08332 0.0
H1810 H 0.5796 0.42909 0.06833 0.0
H1811 H 0.60311 0.42489 0.05947 0.0
C1812 C 0.57351 0.41268 0.01181 0.0
C1813 C 0.58471 0.40374 0.99852 0.0
C1814 C 0.57322 0.4077 0.02878 0.0
C1815 C 0.58445 0.394 0.03289 0.0
C1816 C 0.59629 0.38567 0.01982 0.0
H1817 H 0.57472 0.33367 0.12462 0.0
H1818 H 0.59046 0.35177 0.10241 0.0
C1819 C 0.59636 0.39043 0.00277 0.0
C1820 C 0.58187 0.38654 0.04988 0.0
H1821 H 0.57991 0.40124 0.0954 0.0
C1822 C 0.57551 0.36595 0.04853 0.0
C1823 C 0.58423 0.39938 0.06709 0.0
C1824 C 0.59234 0.42145 0.06966 0.0
C1825 C 0.5705 0.35799 0.06372 0.0
C1826 C 0.57184 0.37092 0.08072 0.0
C1827 C 0.57887 0.39141 0.08228 0.0
C1828 C 0.5641 0.36333 0.09651 0.0
C1829 C 0.5629 0.33585 0.06146 0.0
C1830 C 0.54436 0.36443 0.10086 0.0
C1831 C 0.5353 0.35403 0.11336 0.0
C1832 C 0.5459 0.34244 0.12181 0.0
C1833 C 0.5662 0.34251 0.11837 0.0
C1834 C 0.5752 0.35281 0.1057 0.0
H1835 H 0.56194 0.32791 0.04716 0.0
H1836 H 0.57316 0.32963 0.06947 0.0
H1837 H 0.54771 0.33288 0.06664 0.0
H1838 H 0.53557 0.37244 0.09383 0.0
H1839 H 0.51968 0.35434 0.11579 0.0
H1840 H 0.74922 0.31255 0.249 0.0
H1841 H 0.71694 0.3166 0.23617 0.0
H1842 H 0.68856 0.25885 0.24467 0.0
H1843 H 0.72075 0.25447 0.25717 0.0
H1844 H 0.69326 0.29101 0.20564 0.0
H1845 H 0.65123 0.29579 0.26726 0.0
H1846 H 0.67843 0.29963 0.26802 0.0
H1847 H 0.66337 0.27484 0.26278 0.0
C1848 C 0.73612 0.30068 0.24811 0.0
C1849 C 0.73759 0.28319 0.25416 0.0
C1850 C 0.71768 0.30308 0.24087 0.0
C1851 C 0.70034 0.28814 0.23971 0.0
C1852 C 0.70169 0.27074 0.24581 0.0
H1853 H 0.57784 0.2583 0.19628 0.0
H1854 H 0.61118 0.26121 0.21107 0.0
C1855 C 0.72011 0.26829 0.25299 0.0
C1856 C 0.68099 0.29024 0.23132 0.0
H1857 H 0.63172 0.29034 0.23929 0.0
C1858 C 0.67983 0.29112 0.21301 0.0
C1859 C 0.66356 0.29038 0.24102 0.0
C1860 C 0.66417 0.2903 0.2609 0.0
C1861 C 0.66144 0.29125 0.2039 0.0
C1862 C 0.64387 0.29088 0.2135 0.0
C1863 C 0.64519 0.29058 0.23195 0.0
C1864 C 0.62373 0.28954 0.20446 0.0
C1865 C 0.66079 0.29089 0.18393 0.0
C1866 C 0.61965 0.3046 0.19592 0.0
C1867 C 0.60056 0.30293 0.18733 0.0
C1868 C 0.5852 0.28624 0.18728 0.0
C1869 C 0.58932 0.27134 0.19604 0.0
C1870 C 0.60836 0.27298 0.20454 0.0
H1871 H 0.67449 0.28678 0.17787 0.0
H1872 H 0.64729 0.2802 0.17677 0.0
H1873 H 0.65988 0.3059 0.18168 0.0
H1874 H 0.63119 0.31768 0.196 0.0
H1875 H 0.59781 0.31472 0.1808 0.0
H1876 H 0.48504 0.11416 0.98571 0.0
H1877 H 0.49999 0.14269 0.00994 0.0
H1878 H 0.44234 0.14027 0.03278 0.0
H1879 H 0.42745 0.11186 0.00885 0.0
H1880 H 0.49041 0.17991 0.02053 0.0
H1881 H 0.47956 0.13786 0.07527 0.0
H1882 H 0.47716 0.12577 0.05177 0.0
H1883 H 0.45654 0.13557 0.06185 0.0
C1884 C 0.4756 0.11981 0.99589 0.0
C1885 C 0.45518 0.11061 0.99559 0.0
C1886 C 0.48414 0.13603 0.00971 0.0
C1887 C 0.47237 0.14325 0.02338 0.0
C1888 C 0.45183 0.13455 0.02267 0.0
H1889 H 0.48828 0.25579 0.09751 0.0
H1890 H 0.48 0.22753 0.07203 0.0
C1891 C 0.44335 0.11834 0.00899 0.0
C1892 C 0.48132 0.15998 0.03841 0.0
H1893 H 0.48623 0.17338 0.08431 0.0
C1894 C 0.48973 0.17847 0.03448 0.0
C1895 C 0.48076 0.15796 0.05659 0.0
C1896 C 0.47321 0.13816 0.06164 0.0
C1897 C 0.4968 0.19523 0.04831 0.0
C1898 C 0.49497 0.19349 0.06649 0.0
C1899 C 0.48736 0.17479 0.07038 0.0
C1900 C 0.50042 0.21088 0.08172 0.0
C1901 C 0.50619 0.21459 0.04329 0.0
C1902 C 0.51415 0.21065 0.09594 0.0
C1903 C 0.51866 0.22664 0.11069 0.0
C1904 C 0.50952 0.2432 0.1115 0.0
C1905 C 0.4957 0.24334 0.09726 0.0
C1906 C 0.49108 0.22727 0.08259 0.0
H1907 H 0.51228 0.21204 0.02981 0.0
H1908 H 0.49449 0.22366 0.04272 0.0
H1909 H 0.51858 0.22326 0.05336 0.0
H1910 H 0.52141 0.19808 0.09561 0.0
H1911 H 0.52941 0.22606 0.1214 0.0
H1912 H 0.28886 0.3181 0.72128 0.0
H1913 H 0.30043 0.35424 0.72773 0.0
H1914 H 0.33075 0.35152 0.77787 0.0
H1915 H 0.32003 0.31531 0.77117 0.0
H1916 H 0.29677 0.38533 0.75569 0.0
H1917 H 0.37642 0.37688 0.75098 0.0
H1918 H 0.35541 0.35621 0.7441 0.0
H1919 H 0.36368 0.36511 0.76758 0.0
C1920 C 0.29797 0.32519 0.7337 0.0
C1921 C 0.30382 0.31377 0.74556 0.0
C1922 C 0.30443 0.34585 0.73743 0.0
C1923 C 0.3168 0.35548 0.75309 0.0
C1924 C 0.32155 0.34431 0.76553 0.0
H1925 H 0.35682 0.48218 0.79502 0.0
H1926 H 0.3376 0.44798 0.78808 0.0
C1927 C 0.31521 0.32362 0.76177 0.0
C1928 C 0.32578 0.37697 0.75577 0.0
H1929 H 0.37096 0.4096 0.76028 0.0
C1930 C 0.31299 0.39068 0.75668 0.0
C1931 C 0.34692 0.38384 0.75667 0.0
C1932 C 0.36143 0.36976 0.75461 0.0
C1933 C 0.32082 0.41117 0.75878 0.0
C1934 C 0.342 0.41807 0.76031 0.0
C1935 C 0.35473 0.4043 0.75917 0.0
C1936 C 0.35152 0.43948 0.76328 0.0
C1937 C 0.30637 0.42515 0.759 0.0
C1938 C 0.36571 0.44613 0.75162 0.0
C1939 C 0.37694 0.46558 0.75569 0.0
C1940 C 0.37417 0.4788 0.77149 0.0
C1941 C 0.35924 0.47241 0.78269 0.0
C1942 C 0.34814 0.45287 0.77869 0.0
H1943 H 0.29133 0.41725 0.75236 0.0
H1944 H 0.30426 0.4317 0.77318 0.0
H1945 H 0.31231 0.43747 0.75215 0.0
H1946 H 0.36857 0.43604 0.73966 0.0
H1947 H 0.38825 0.47004 0.74675 0.0
H1948 H 0.32846 0.72864 0.79129 0.0
H1949 H 0.34585 0.70074 0.78869 0.0
H1950 H 0.30094 0.67119 0.81859 0.0
H1951 H 0.28293 0.69851 0.82051 0.0
H1952 H 0.36277 0.68584 0.81477 0.0
H1953 H 0.30149 0.62795 0.77477 0.0
H1954 H 0.30129 0.65415 0.77803 0.0
H1955 H 0.29333 0.6406 0.79527 0.0
C1956 C 0.32208 0.71606 0.79706 0.0
C1957 C 0.30417 0.71576 0.80598 0.0
C1958 C 0.33215 0.7002 0.79569 0.0
C1959 C 0.3245 0.68372 0.80315 0.0
C1960 C 0.30687 0.68354 0.81236 0.0
H1961 H 0.36175 0.5789 0.82226 0.0
H1962 H 0.3468 0.60793 0.8218 0.0
C1963 C 0.29673 0.69932 0.81366 0.0
C1964 C 0.33516 0.66688 0.80168 0.0
H1965 H 0.32832 0.61641 0.78808 0.0
C1966 C 0.35532 0.67069 0.80876 0.0
C1967 C 0.32545 0.64713 0.79371 0.0
C1968 C 0.30427 0.64221 0.78485 0.0
C1969 C 0.36577 0.65516 0.80867 0.0
C1970 C 0.35581 0.6354 0.80125 0.0
C1971 C 0.33583 0.63162 0.79384 0.0
C1972 C 0.36555 0.6183 0.80174 0.0
C1973 C 0.38717 0.65982 0.81697 0.0
C1974 C 0.38103 0.61456 0.79055 0.0
C1975 C 0.38957 0.59787 0.79069 0.0
C1976 C 0.38278 0.58474 0.80207 0.0
C1977 C 0.36738 0.58872 0.81336 0.0
C1978 C 0.35879 0.60528 0.81312 0.0
H1979 H 0.39189 0.6756 0.82412 0.0
H1980 H 0.38881 0.65007 0.82662 0.0
H1981 H 0.39755 0.65683 0.80623 0.0
H1982 H 0.3863 0.62439 0.78156 0.0
H1983 H 0.40139 0.5952 0.78183 0.0
H1984 H 0.92717 0.5192 0.46338 0.0
H1985 H 0.90373 0.49126 0.47121 0.0
H1986 H 0.87705 0.53255 0.508 0.0
H1987 H 0.90022 0.56039 0.50025 0.0
H1988 H 0.88584 0.5009 0.52258 0.0
H1989 H 0.84298 0.47477 0.45544 0.0
H1990 H 0.86987 0.4768 0.45554 0.0
H1991 H 0.85966 0.49882 0.46182 0.0
C1992 C 0.9162 0.52228 0.47304 0.0
C1993 C 0.91558 0.54198 0.48125 0.0
C1994 C 0.90286 0.50633 0.4775 0.0
C1995 C 0.88861 0.50988 0.4901 0.0
C1996 C 0.88801 0.52951 0.49831 0.0
H1997 H 0.77674 0.44186 0.51079 0.0
H1998 H 0.80494 0.46543 0.50319 0.0
C1999 C 0.90131 0.54539 0.4939 0.0
C2000 C 0.8741 0.49331 0.49481 0.0
H2001 H 0.83296 0.45688 0.47795 0.0
C2002 C 0.87437 0.49114 0.51282 0.0
C2003 C 0.85908 0.48076 0.48203 0.0
C2004 C 0.85767 0.48291 0.46264 0.0
C2005 C 0.85974 0.47699 0.5185 0.0
C2006 C 0.84464 0.46454 0.50574 0.0
C2007 C 0.84463 0.46642 0.48766 0.0
C2008 C 0.82787 0.45039 0.51104 0.0
C2009 C 0.86006 0.476 0.53819 0.0
C2010 C 0.83146 0.43415 0.51808 0.0
C2011 C 0.81534 0.42063 0.52254 0.0
C2012 C 0.79536 0.42307 0.5199 0.0
C2013 C 0.79191 0.43949 0.513 0.0
C2014 C 0.808 0.45297 0.50859 0.0
H2015 H 0.87015 0.48921 0.54676 0.0
H2016 H 0.84464 0.47489 0.54296 0.0
H2017 H 0.8656 0.46255 0.54007 0.0
H2018 H 0.84669 0.43175 0.51983 0.0
H2019 H 0.8185 0.40808 0.52772 0.0
H2020 H 0.77153 0.86323 0.81429 0.0
H2021 H 0.74598 0.87433 0.79714 0.0
H2022 H 0.78007 0.9346 0.81166 0.0
H2023 H 0.80561 0.9236 0.82854 0.0
H2024 H 0.72359 0.90131 0.81308 0.0
H2025 H 0.76395 0.92934 0.75834 0.0
H2026 H 0.7731 0.9126 0.77051 0.0
H2027 H 0.77797 0.93893 0.77979 0.0
C2028 C 0.7738 0.87874 0.81338 0.0
C2029 C 0.79049 0.89258 0.82279 0.0
C2030 C 0.75918 0.88507 0.80365 0.0
C2031 C 0.76123 0.90525 0.80294 0.0
C2032 C 0.77836 0.9189 0.81169 0.0
H2033 H 0.68768 0.98793 0.80887 0.0
H2034 H 0.70753 0.96302 0.81198 0.0
C2035 C 0.79284 0.91263 0.82149 0.0
C2036 C 0.74455 0.91268 0.79508 0.0
H2037 H 0.73526 0.94394 0.76784 0.0
C2038 C 0.72596 0.91023 0.80286 0.0
C2039 C 0.74751 0.9241 0.78158 0.0
C2040 C 0.76666 0.92623 0.77194 0.0
C2041 C 0.71091 0.92019 0.79855 0.0
C2042 C 0.71463 0.93305 0.78628 0.0
C2043 C 0.73253 0.93425 0.77741 0.0
C2044 C 0.70137 0.94715 0.78424 0.0
C2045 C 0.69144 0.91749 0.80769 0.0
C2046 C 0.69144 0.94661 0.76753 0.0
C2047 C 0.67993 0.96088 0.7657 0.0
C2048 C 0.67853 0.97608 0.7805 0.0
C2049 C 0.68843 0.97644 0.7972 0.0
C2050 C 0.6997 0.96213 0.79904 0.0
H2051 H 0.68835 0.90308 0.81217 0.0
H2052 H 0.69261 0.9296 0.81979 0.0
H2053 H 0.6785 0.91816 0.79858 0.0
H2054 H 0.69271 0.93525 0.75591 0.0
H2055 H 0.67256 0.96029 0.75264 0.0
H2056 H 0.62511 0.50155 0.93224 0.0
H2057 H 0.65666 0.52621 0.93817 0.0
H2058 H 0.66058 0.51922 0.99336 0.0
H2059 H 0.62896 0.4942 0.98739 0.0
H2060 H 0.66328 0.56166 0.96212 0.0
H2061 H 0.71714 0.51563 0.97811 0.0
H2062 H 0.69211 0.50487 0.96754 0.0
H2063 H 0.69568 0.51477 0.99141 0.0
C2064 C 0.63274 0.50521 0.94563 0.0
C2065 C 0.62456 0.4961 0.95941 0.0
C2066 C 0.65077 0.51925 0.94898 0.0
C2067 C 0.66102 0.52445 0.96616 0.0
C2068 C 0.65309 0.51514 0.97991 0.0
H2069 H 0.75078 0.63384 0.00242 0.0
H2070 H 0.72052 0.60754 0.99824 0.0
C2071 C 0.63505 0.50093 0.97652 0.0
C2072 C 0.67937 0.54042 0.96972 0.0
H2073 H 0.72976 0.55039 0.98249 0.0
C2074 C 0.67783 0.5592 0.96658 0.0
C2075 C 0.69833 0.53709 0.97536 0.0
C2076 C 0.70105 0.51696 0.97816 0.0
C2077 C 0.69475 0.57478 0.96887 0.0
C2078 C 0.71364 0.57159 0.97487 0.0
C2079 C 0.71521 0.5528 0.97801 0.0
C2080 C 0.73203 0.58746 0.97757 0.0
C2081 C 0.69233 0.59433 0.96439 0.0
C2082 C 0.74869 0.58471 0.96761 0.0
C2083 C 0.76608 0.59965 0.97005 0.0
C2084 C 0.76713 0.61762 0.98254 0.0
C2085 C 0.75041 0.62028 0.99256 0.0
C2086 C 0.73307 0.60528 0.99016 0.0
H2087 H 0.67837 0.59266 0.95558 0.0
H2088 H 0.6913 0.60505 0.97704 0.0
H2089 H 0.70546 0.60074 0.95755 0.0
H2090 H 0.74819 0.57103 0.95785 0.0
H2091 H 0.7787 0.59709 0.96217 0.0
H2092 H 0.30411 0.69251 0.26501 0.0
H2093 H 0.27821 0.66275 0.26368 0.0
H2094 H 0.24973 0.67267 0.21547 0.0
H2095 H 0.27607 0.7025 0.21643 0.0
H2096 H 0.22333 0.66371 0.24459 0.0
H2097 H 0.27289 0.60952 0.22546 0.0
H2098 H 0.28312 0.62969 0.244 0.0
H2099 H 0.27893 0.63474 0.222 0.0
C2100 C 0.29256 0.68825 0.25392 0.0
C2101 C 0.29239 0.69969 0.24061 0.0
C2102 C 0.27772 0.67127 0.25325 0.0
C2103 C 0.26232 0.66536 0.23931 0.0
C2104 C 0.26165 0.67696 0.22625 0.0
H2105 H 0.15804 0.56662 0.229 0.0
H2106 H 0.18171 0.59564 0.22373 0.0
C2107 C 0.27663 0.694 0.22686 0.0
C2108 C 0.24686 0.64718 0.2388 0.0
H2109 H 0.24141 0.59724 0.23643 0.0
C2110 C 0.22712 0.6491 0.24254 0.0
C2111 C 0.25199 0.62823 0.23618 0.0
C2112 C 0.27284 0.6253 0.23153 0.0
C2113 C 0.21254 0.63262 0.24457 0.0
C2114 C 0.21784 0.61373 0.24245 0.0
C2115 C 0.23743 0.61175 0.23813 0.0
C2116 C 0.20355 0.59595 0.24536 0.0
C2117 C 0.1919 0.63573 0.24977 0.0
C2118 C 0.20826 0.58615 0.25894 0.0
C2119 C 0.19486 0.56945 0.2619 0.0
C2120 C 0.1765 0.56219 0.25129 0.0
C2121 C 0.17198 0.57189 0.23752 0.0
C2122 C 0.18542 0.58856 0.23453 0.0
H2123 H 0.19177 0.6517 0.25495 0.0
H2124 H 0.18099 0.63031 0.23774 0.0
H2125 H 0.1866 0.62726 0.26023 0.0
H2126 H 0.22224 0.59158 0.26738 0.0
H2127 H 0.19886 0.56233 0.27259 0.0
H2128 H 0.89654 0.49005 0.04687 0.0
H2129 H 0.88779 0.51984 0.03937 0.0
H2130 H 0.9494 0.55128 0.05315 0.0
H2131 H 0.95863 0.52108 0.05948 0.0
H2132 H 0.88901 0.55618 0.05826 0.0
H2133 H 0.94063 0.56053 0.00323 0.0
H2134 H 0.93575 0.53935 0.01381 0.0
H2135 H 0.953 0.56174 0.02485 0.0
C2136 C 0.90833 0.5032 0.04808 0.0
C2137 C 0.92838 0.50299 0.05349 0.0
C2138 C 0.90325 0.52031 0.04398 0.0
C2139 C 0.91801 0.5377 0.04534 0.0
C2140 C 0.93785 0.5379 0.05155 0.0
H2141 H 0.8717 0.64327 0.02924 0.0
H2142 H 0.89039 0.62265 0.0432 0.0
C2143 C 0.94303 0.52066 0.05543 0.0
C2144 C 0.91245 0.55534 0.03986 0.0
H2145 H 0.92145 0.58543 0.0094 0.0
C2146 C 0.89619 0.5627 0.04766 0.0
C2147 C 0.92177 0.56372 0.02594 0.0
C2148 C 0.93863 0.55585 0.01634 0.0
C2149 C 0.88845 0.57763 0.04149 0.0
C2150 C 0.89772 0.58597 0.02752 0.0
C2151 C 0.91448 0.57914 0.0202 0.0
C2152 C 0.88888 0.60005 0.01891 0.0
C2153 C 0.86974 0.58347 0.0493 0.0
C2154 C 0.88293 0.59486 0.00041 0.0
C2155 C 0.8727 0.6068 0.99233 0.0
C2156 C 0.86804 0.62413 0.00264 0.0
C2157 C 0.8749 0.62989 0.02099 0.0
C2158 C 0.88543 0.61804 0.02902 0.0
H2159 H 0.8619 0.57244 0.05677 0.0
H2160 H 0.87403 0.59801 0.05888 0.0
H2161 H 0.85893 0.58498 0.03854 0.0
H2162 H 0.8855 0.58111 0.9923 0.0
H2163 H 0.86766 0.60194 0.97817 0.0
H2164 H 0.09898 0.04051 0.05858 0.0
H2165 H 0.11553 0.01252 0.04839 0.0
H2166 H 0.12367 0.00567 0.10328 0.0
H2167 H 0.10731 0.03367 0.11358 0.0
H2168 H 0.1548 0.01022 0.05877 0.0
H2169 H 0.09939 0.94875 0.07649 0.0
H2170 H 0.09332 0.9725 0.07522 0.0
H2171 H 0.10771 0.96986 0.09465 0.0
C2172 C 0.10426 0.03302 0.06848 0.0
C2173 C 0.10173 0.03927 0.08689 0.0
C2174 C 0.11361 0.01697 0.06263 0.0
C2175 C 0.12053 0.00681 0.07505 0.0
C2176 C 0.11799 0.01296 0.09341 0.0
H2177 H 0.19339 0.91549 0.06534 0.0
H2178 H 0.1722 0.93945 0.07644 0.0
C2179 C 0.10863 0.02899 0.09927 0.0
C2180 C 0.13152 0.99059 0.06889 0.0
H2181 H 0.1307 0.94126 0.06718 0.0
C2182 C 0.14947 0.99513 0.06052 0.0
C2183 C 0.12463 0.97095 0.07135 0.0
C2184 C 0.10512 0.96511 0.07978 0.0
C2185 C 0.16082 0.9806 0.05465 0.0
C2186 C 0.15382 0.96091 0.05691 0.0
C2187 C 0.13598 0.95637 0.06544 0.0
C2188 C 0.16477 0.94485 0.05013 0.0
C2189 C 0.18039 0.98655 0.04633 0.0
C2190 C 0.16696 0.93945 0.03162 0.0
C2191 C 0.17901 0.92586 0.02526 0.0
C2192 C 0.18902 0.91728 0.03729 0.0
C2193 C 0.18589 0.92186 0.05574 0.0
C2194 C 0.17383 0.93555 0.06211 0.0
H2195 H 0.18613 0.00291 0.04976 0.0
H2196 H 0.19216 0.97911 0.05085 0.0
H2197 H 0.17788 0.98196 0.03144 0.0
H2198 H 0.15976 0.94617 0.02212 0.0
H2199 H 0.18093 0.92254 0.01095 0.0
loop_
_geom_bond_atom_site_label_1
_geom_bond_atom_site_label_2
_geom_bond_distance
_geom_bond_site_symmetry_2
_ccdc_geom_bond_type
H0 C1 0.949 . S
C1 H0 0.949 . S
C1 C2 1.395 . S
C1 C3 1.391 . S
C2 C1 1.395 . S
C2 C5 1.390 . S
C3 C1 1.391 . S
C3 C7 1.387 . S
C3 C8 1.491 . S
H4 C5 0.950 . S
C5 C2 1.390 . S
C5 H4 0.950 . S
C5 C6 1.378 . S
C6 C5 1.378 . S
C6 C7 1.409 . S
C7 C3 1.387 . S
C7 C6 1.409 . S
C7 H9 0.951 . S
C8 C3 1.491 . S
C8 C10 1.382 . S
C8 C12 1.404 . S
H9 C7 0.951 . S
C10 C8 1.382 . S
C10 C11 1.390 . S
C10 H15 0.949 . S
C11 C10 1.390 . S
C11 C16 1.399 . S
C12 C8 1.404 . S
C12 H13 0.950 . S
C12 C14 1.375 . S
H13 C12 0.950 . S
C14 C12 1.375 . S
C14 C16 1.382 . S
C14 H18 0.950 . S
H15 C10 0.949 . S
C16 C11 1.399 . S
C16 C14 1.382 . S
C16 H17 0.952 . S
H17 C16 0.952 . S
H18 C14 0.950 . S
H19 C20 0.949 . S
C20 H19 0.949 . S
C20 C21 1.395 . S
C20 C22 1.391 . S
C21 C20 1.395 . S
C21 C24 1.390 . S
C22 C20 1.391 . S
C22 C26 1.387 . S
C22 C27 1.491 . S
H23 C24 0.950 . S
C24 C21 1.390 . S
C24 H23 0.950 . S
C24 C25 1.378 . S
C25 C24 1.378 . S
C25 C26 1.409 . S
C26 C22 1.387 . S
C26 C25 1.409 . S
C26 H28 0.951 . S
C27 C22 1.491 . S
C27 C29 1.382 . S
C27 C31 1.404 . S
H28 C26 0.951 . S
C29 C27 1.382 . S
C29 C30 1.390 . S
C29 H34 0.949 . S
C30 C29 1.390 . S
C30 C35 1.399 . S
C31 C27 1.404 . S
C31 H32 0.950 . S
C31 C33 1.375 . S
H32 C31 0.950 . S
C33 C31 1.375 . S
C33 C35 1.382 . S
C33 H37 0.950 . S
H34 C29 0.949 . S
C35 C30 1.399 . S
C35 C33 1.382 . S
C35 H36 0.952 . S
H36 C35 0.952 . S
H37 C33 0.950 . S
H38 C39 0.949 . S
C39 H38 0.949 . S
C39 C40 1.395 . S
C39 C41 1.391 . S
C40 C39 1.395 . S
C40 C43 1.390 . S
C41 C39 1.391 . S
C41 C45 1.387 . S
C41 C46 1.491 . S
H42 C43 0.950 . S
C43 C40 1.390 . S
C43 H42 0.950 . S
C43 C44 1.378 . S
C44 C43 1.378 . S
C44 C45 1.409 . S
C45 C41 1.387 . S
C45 C44 1.409 . S
C45 H47 0.951 . S
C46 C41 1.491 . S
C46 C48 1.382 . S
C46 C50 1.404 . S
H47 C45 0.951 . S
C48 C46 1.382 . S
C48 C49 1.390 . S
C48 H53 0.949 . S
C49 C48 1.390 . S
C49 C54 1.399 1_554 S
C50 C46 1.404 . S
C50 H51 0.950 . S
C50 C52 1.375 1_554 S
H51 C50 0.950 . S
C52 C50 1.375 1_556 S
C52 C54 1.382 . S
C52 H56 0.950 . S
H53 C48 0.949 . S
C54 C49 1.399 1_556 S
C54 C52 1.382 . S
C54 H55 0.952 . S
H55 C54 0.952 . S
H56 C52 0.950 . S
H57 C58 0.949 . S
C58 H57 0.949 . S
C58 C59 1.395 . S
C58 C60 1.391 . S
C59 C58 1.395 . S
C59 C62 1.390 . S
C60 C58 1.391 . S
C60 C64 1.387 . S
C60 C65 1.491 . S
H61 C62 0.950 . S
C62 C59 1.390 . S
C62 H61 0.950 . S
C62 C63 1.378 . S
C63 C62 1.378 . S
C63 C64 1.409 . S
C64 C60 1.387 . S
C64 C63 1.409 . S
C64 H66 0.951 . S
C65 C60 1.491 . S
C65 C67 1.382 . S
C65 C69 1.404 . S
H66 C64 0.951 . S
C67 C65 1.382 . S
C67 C68 1.390 . S
C67 H72 0.949 . S
C68 C67 1.390 . S
C68 C73 1.399 . S
C69 C65 1.404 . S
C69 H70 0.950 . S
C69 C71 1.375 . S
H70 C69 0.950 . S
C71 C69 1.375 . S
C71 C73 1.382 . S
C71 H75 0.950 . S
H72 C67 0.949 . S
C73 C68 1.399 . S
C73 C71 1.382 . S
C73 H74 0.952 . S
H74 C73 0.952 . S
H75 C71 0.950 . S
H76 C77 0.949 . S
C77 H76 0.949 . S
C77 C78 1.395 . S
C77 C79 1.391 . S
C78 C77 1.395 . S
C78 C81 1.390 . S
C79 C77 1.391 . S
C79 C83 1.387 . S
C79 C84 1.491 . S
H80 C81 0.950 . S
C81 C78 1.390 . S
C81 H80 0.950 . S
C81 C82 1.378 . S
C82 C81 1.378 . S
C82 C83 1.409 . S
C83 C79 1.387 . S
C83 C82 1.409 . S
C83 H85 0.951 . S
C84 C79 1.491 . S
C84 C86 1.382 . S
C84 C88 1.404 . S
H85 C83 0.951 . S
C86 C84 1.382 . S
C86 C87 1.390 . S
C86 H91 0.949 . S
C87 C86 1.390 . S
C87 C92 1.399 . S
C88 C84 1.404 . S
C88 H89 0.950 . S
C88 C90 1.375 . S
H89 C88 0.950 . S
C90 C88 1.375 . S
C90 C92 1.382 . S
C90 H94 0.950 . S
H91 C86 0.949 . S
C92 C87 1.399 . S
C92 C90 1.382 . S
C92 H93 0.952 . S
H93 C92 0.952 . S
H94 C90 0.950 . S
H95 C96 0.949 . S
C96 H95 0.949 . S
C96 C97 1.395 . S
C96 C98 1.391 . S
C97 C96 1.395 . S
C97 C100 1.390 . S
C98 C96 1.391 . S
C98 C102 1.387 . S
C98 C103 1.491 . S
H99 C100 0.950 . S
C100 C97 1.390 . S
C100 H99 0.950 . S
C100 C101 1.378 . S
C101 C100 1.378 . S
C101 C102 1.409 . S
C102 C98 1.387 . S
C102 C101 1.409 . S
C102 H104 0.951 . S
C103 C98 1.491 . S
C103 C105 1.382 . S
C103 C107 1.404 . S
H104 C102 0.951 . S
C105 C103 1.382 . S
C105 C106 1.390 . S
C105 H110 0.949 . S
C106 C105 1.390 . S
C106 C111 1.399 . S
C107 C103 1.404 . S
C107 H108 0.950 . S
C107 C109 1.375 . S
H108 C107 0.950 . S
C109 C107 1.375 . S
C109 C111 1.382 . S
C109 H113 0.950 . S
H110 C105 0.949 . S
C111 C106 1.399 . S
C111 C109 1.382 . S
C111 H112 0.952 . S
H112 C111 0.952 . S
H113 C109 0.950 . S
H114 C115 0.949 . S
C115 H114 0.949 . S
C115 C116 1.395 . S
C115 C117 1.391 . S
C116 C115 1.395 . S
C116 C119 1.390 . S
C117 C115 1.391 . S
C117 C121 1.387 . S
C117 C122 1.491 . S
H118 C119 0.950 . S
C119 C116 1.390 . S
C119 H118 0.950 . S
C119 C120 1.378 . S
C120 C119 1.378 . S
C120 C121 1.409 . S
C121 C117 1.387 . S
C121 C120 1.409 . S
C121 H123 0.951 . S
C122 C117 1.491 . S
C122 C124 1.382 . S
C122 C126 1.404 . S
H123 C121 0.951 . S
C124 C122 1.382 . S
C124 C125 1.390 . S
C124 H129 0.949 . S
C125 C124 1.390 . S
C125 C130 1.399 . S
C126 C122 1.404 . S
C126 H127 0.950 . S
C126 C128 1.375 . S
H127 C126 0.950 . S
C128 C126 1.375 . S
C128 C130 1.382 . S
C128 H132 0.950 . S
H129 C124 0.949 . S
C130 C125 1.399 . S
C130 C128 1.382 . S
C130 H131 0.952 . S
H131 C130 0.952 . S
H132 C128 0.950 . S
H133 C134 0.949 . S
C134 H133 0.949 . S
C134 C135 1.395 . S
C134 C136 1.391 . S
C135 C134 1.395 . S
C135 C138 1.390 . S
C136 C134 1.391 . S
C136 C140 1.387 . S
C136 C141 1.491 . S
H137 C138 0.950 . S
C138 C135 1.390 . S
C138 H137 0.950 . S
C138 C139 1.378 . S
C139 C138 1.378 . S
C139 C140 1.409 . S
C140 C136 1.387 . S
C140 C139 1.409 . S
C140 H142 0.951 . S
C141 C136 1.491 . S
C141 C143 1.382 . S
C141 C145 1.404 . S
H142 C140 0.951 . S
C143 C141 1.382 . S
C143 C144 1.390 . S
C143 H148 0.949 . S
C144 C143 1.390 . S
C144 C149 1.399 . S
C145 C141 1.404 . S
C145 H146 0.950 . S
C145 C147 1.375 . S
H146 C145 0.950 . S
C147 C145 1.375 . S
C147 C149 1.382 . S
C147 H151 0.950 . S
H148 C143 0.949 . S
C149 C144 1.399 . S
C149 C147 1.382 . S
C149 H150 0.952 . S
H150 C149 0.952 . S
H151 C147 0.950 . S
H152 C153 0.949 . S
C153 H152 0.949 . S
C153 C154 1.395 . S
C153 C155 1.391 . S
C154 C153 1.395 . S
C154 C157 1.390 . S
C155 C153 1.391 . S
C155 C159 1.387 . S
C155 C160 1.491 . S
H156 C157 0.950 . S
C157 C154 1.390 . S
C157 H156 0.950 . S
C157 C158 1.378 . S
C158 C157 1.378 . S
C158 C159 1.409 . S
C159 C155 1.387 . S
C159 C158 1.409 . S
C159 H161 0.951 . S
C160 C155 1.491 . S
C160 C162 1.382 . S
C160 C164 1.404 . S
H161 C159 0.951 . S
C162 C160 1.382 . S
C162 C163 1.390 . S
C162 H167 0.949 . S
C163 C162 1.390 . S
C163 C168 1.399 . S
C164 C160 1.404 . S
C164 H165 0.950 . S
C164 C166 1.375 . S
H165 C164 0.950 . S
C166 C164 1.375 . S
C166 C168 1.382 . S
C166 H170 0.950 . S
H167 C162 0.949 . S
C168 C163 1.399 . S
C168 C166 1.382 . S
C168 H169 0.952 . S
H169 C168 0.952 . S
H170 C166 0.950 . S
H171 C172 0.949 . S
C172 H171 0.949 . S
C172 C173 1.395 . S
C172 C174 1.391 . S
C173 C172 1.395 . S
C173 C176 1.390 . S
C174 C172 1.391 . S
C174 C178 1.387 . S
C174 C179 1.491 . S
H175 C176 0.950 . S
C176 C173 1.390 . S
C176 H175 0.950 . S
C176 C177 1.378 . S
C177 C176 1.378 . S
C177 C178 1.409 . S
C178 C174 1.387 . S
C178 C177 1.409 . S
C178 H180 0.951 . S
C179 C174 1.491 . S
C179 C181 1.382 . S
C179 C183 1.404 . S
H180 C178 0.951 . S
C181 C179 1.382 . S
C181 C182 1.390 . S
C181 H186 0.949 . S
C182 C181 1.390 . S
C182 C187 1.399 . S
C183 C179 1.404 . S
C183 H184 0.950 . S
C183 C185 1.375 . S
H184 C183 0.950 . S
C185 C183 1.375 . S
C185 C187 1.382 . S
C185 H189 0.950 . S
H186 C181 0.949 . S
C187 C182 1.399 . S
C187 C185 1.382 . S
C187 H188 0.952 . S
H188 C187 0.952 . S
H189 C185 0.950 . S
H190 C191 0.949 . S
C191 H190 0.949 . S
C191 C192 1.395 . S
C191 C193 1.391 . S
C192 C191 1.395 . S
C192 C195 1.390 . S
C193 C191 1.391 . S
C193 C197 1.387 . S
C193 C198 1.491 . S
H194 C195 0.950 . S
C195 C192 1.390 . S
C195 H194 0.950 . S
C195 C196 1.378 . S
C196 C195 1.378 . S
C196 C197 1.409 . S
C197 C193 1.387 . S
C197 C196 1.409 . S
C197 H199 0.951 . S
C198 C193 1.491 . S
C198 C200 1.382 . S
C198 C202 1.404 . S
H199 C197 0.951 . S
C200 C198 1.382 . S
C200 C201 1.390 . S
C200 H205 0.949 . S
C201 C200 1.390 . S
C201 C206 1.399 . S
C202 C198 1.404 . S
C202 H203 0.950 . S
C202 C204 1.375 . S
H203 C202 0.950 . S
C204 C202 1.375 . S
C204 C206 1.382 . S
C204 H208 0.950 . S
H205 C200 0.949 . S
C206 C201 1.399 . S
C206 C204 1.382 . S
C206 H207 0.952 . S
H207 C206 0.952 . S
H208 C204 0.950 . S
H209 C210 0.949 . S
C210 H209 0.949 . S
C210 C211 1.395 . S
C210 C212 1.391 . S
C211 C210 1.395 . S
C211 C214 1.390 . S
C212 C210 1.391 . S
C212 C216 1.387 . S
C212 C217 1.491 . S
H213 C214 0.950 . S
C214 C211 1.390 . S
C214 H213 0.950 . S
C214 C215 1.378 . S
C215 C214 1.378 . S
C215 C216 1.409 . S
C216 C212 1.387 . S
C216 C215 1.409 . S
C216 H218 0.951 . S
C217 C212 1.491 . S
C217 C219 1.382 . S
C217 C221 1.404 . S
H218 C216 0.951 . S
C219 C217 1.382 . S
C219 C220 1.390 . S
C219 H224 0.949 . S
C220 C219 1.390 . S
C220 C225 1.399 . S
C221 C217 1.404 . S
C221 H222 0.950 . S
C221 C223 1.375 . S
H222 C221 0.950 . S
C223 C221 1.375 . S
C223 C225 1.382 . S
C223 H227 0.950 . S
H224 C219 0.949 . S
C225 C220 1.399 . S
C225 C223 1.382 . S
C225 H226 0.952 . S
H226 C225 0.952 . S
H227 C223 0.950 . S
H228 C229 0.949 . S
C229 H228 0.949 . S
C229 C230 1.395 . S
C229 C231 1.391 . S
C230 C229 1.395 . S
C230 C233 1.390 . S
C231 C229 1.391 . S
C231 C235 1.387 . S
C231 C236 1.491 . S
H232 C233 0.950 . S
C233 C230 1.390 . S
C233 H232 0.950 . S
C233 C234 1.378 . S
C234 C233 1.378 . S
C234 C235 1.409 . S
C235 C231 1.387 . S
C235 C234 1.409 . S
C235 H237 0.951 . S
C236 C231 1.491 . S
C236 C238 1.382 . S
C236 C240 1.404 . S
H237 C235 0.951 . S
C238 C236 1.382 . S
C238 C239 1.390 . S
C238 H243 0.949 . S
C239 C238 1.390 . S
C239 C244 1.399 . S
C240 C236 1.404 . S
C240 H241 0.950 . S
C240 C242 1.375 . S
H241 C240 0.950 . S
C242 C240 1.375 . S
C242 C244 1.382 . S
C242 H246 0.950 . S
H243 C238 0.949 . S
C244 C239 1.399 . S
C244 C242 1.382 . S
C244 H245 0.952 . S
H245 C244 0.952 . S
H246 C242 0.950 . S
H247 C248 0.949 . S
C248 H247 0.949 . S
C248 C249 1.395 . S
C248 C250 1.391 . S
C249 C248 1.395 . S
C249 C252 1.390 . S
C250 C248 1.391 . S
C250 C254 1.387 . S
C250 C255 1.491 . S
H251 C252 0.950 . S
C252 C249 1.390 . S
C252 H251 0.950 . S
C252 C253 1.378 . S
C253 C252 1.378 . S
C253 C254 1.409 . S
C254 C250 1.387 . S
C254 C253 1.409 . S
C254 H256 0.951 . S
C255 C250 1.491 . S
C255 C257 1.382 . S
C255 C259 1.404 . S
H256 C254 0.951 . S
C257 C255 1.382 . S
C257 C258 1.390 . S
C257 H262 0.949 . S
C258 C257 1.390 . S
C258 C263 1.399 . S
C259 C255 1.404 . S
C259 H260 0.950 . S
C259 C261 1.375 . S
H260 C259 0.950 . S
C261 C259 1.375 . S
C261 C263 1.382 . S
C261 H265 0.950 . S
H262 C257 0.949 . S
C263 C258 1.399 . S
C263 C261 1.382 . S
C263 H264 0.952 . S
H264 C263 0.952 . S
H265 C261 0.950 . S
H266 C267 0.949 . S
C267 H266 0.949 . S
C267 C268 1.395 . S
C267 C269 1.391 . S
C268 C267 1.395 . S
C268 C271 1.390 . S
C269 C267 1.391 . S
C269 C273 1.387 . S
C269 C274 1.491 . S
H270 C271 0.950 . S
C271 C268 1.390 . S
C271 H270 0.950 . S
C271 C272 1.378 . S
C272 C271 1.378 . S
C272 C273 1.409 . S
C273 C269 1.387 . S
C273 C272 1.409 . S
C273 H275 0.951 . S
C274 C269 1.491 . S
C274 C276 1.382 . S
C274 C278 1.404 . S
H275 C273 0.951 . S
C276 C274 1.382 . S
C276 C277 1.390 . S
C276 H281 0.949 . S
C277 C276 1.390 . S
C277 C282 1.399 . S
C278 C274 1.404 . S
C278 H279 0.950 . S
C278 C280 1.375 . S
H279 C278 0.950 . S
C280 C278 1.375 . S
C280 C282 1.382 . S
C280 H284 0.950 . S
H281 C276 0.949 . S
C282 C277 1.399 . S
C282 C280 1.382 . S
C282 H283 0.952 . S
H283 C282 0.952 . S
H284 C280 0.950 . S
H285 C286 0.949 . S
C286 H285 0.949 . S
C286 C287 1.395 . S
C286 C288 1.391 . S
C287 C286 1.395 . S
C287 C290 1.390 . S
C288 C286 1.391 . S
C288 C292 1.387 . S
C288 C293 1.491 . S
H289 C290 0.950 . S
C290 C287 1.390 . S
C290 H289 0.950 . S
C290 C291 1.378 . S
C291 C290 1.378 . S
C291 C292 1.409 . S
C292 C288 1.387 . S
C292 C291 1.409 . S
C292 H294 0.951 . S
C293 C288 1.491 . S
C293 C295 1.382 . S
C293 C297 1.404 . S
H294 C292 0.951 . S
C295 C293 1.382 . S
C295 C296 1.390 . S
C295 H300 0.949 . S
C296 C295 1.390 . S
C296 C301 1.399 . S
C297 C293 1.404 . S
C297 H298 0.950 . S
C297 C299 1.375 . S
H298 C297 0.950 . S
C299 C297 1.375 . S
C299 C301 1.382 . S
C299 H303 0.950 . S
H300 C295 0.949 . S
C301 C296 1.399 . S
C301 C299 1.382 . S
C301 H302 0.952 . S
H302 C301 0.952 . S
H303 C299 0.950 . S
O304 Cd305 2.223 . S
O304 C312 1.315 . S
Cd305 O304 2.223 . S
Cd305 O308 2.297 . S
Cd305 O309 2.439 . S
Cd305 O315 2.240 . S
Cd306 O307 2.240 . S
Cd306 O314 2.223 . S
Cd306 O316 2.297 . S
Cd306 O317 2.439 . S
O307 Cd306 2.240 . S
O307 C312 1.279 . S
O308 Cd305 2.297 . S
O308 C310 1.247 . S
O309 Cd305 2.439 . S
O309 C310 1.208 . S
C310 O308 1.247 . S
C310 O309 1.208 . S
C311 O316 1.247 . S
C311 O317 1.208 . S
C312 O304 1.315 . S
C312 O307 1.279 . S
C313 O314 1.315 . S
C313 O315 1.279 . S
O314 Cd306 2.223 . S
O314 C313 1.315 . S
O315 Cd305 2.240 . S
O315 C313 1.279 . S
O316 Cd306 2.297 . S
O316 C311 1.247 . S
O317 Cd306 2.439 . S
O317 C311 1.208 . S
O318 Cd319 2.223 . S
O318 C326 1.315 . S
Cd319 O318 2.223 . S
Cd319 O322 2.297 . S
Cd319 O323 2.439 . S
Cd319 O329 2.240 . S
Cd320 O321 2.240 . S
Cd320 O328 2.223 . S
Cd320 O330 2.297 . S
Cd320 O331 2.439 . S
O321 Cd320 2.240 . S
O321 C326 1.279 . S
O322 Cd319 2.297 . S
O322 C324 1.247 . S
O323 Cd319 2.439 . S
O323 C324 1.208 . S
C324 O322 1.247 . S
C324 O323 1.208 . S
C325 O330 1.247 . S
C325 O331 1.208 . S
C326 O318 1.315 . S
C326 O321 1.279 . S
C327 O328 1.315 . S
C327 O329 1.279 . S
O328 Cd320 2.223 . S
O328 C327 1.315 . S
O329 Cd319 2.240 . S
O329 C327 1.279 . S
O330 Cd320 2.297 . S
O330 C325 1.247 . S
O331 Cd320 2.439 . S
O331 C325 1.208 . S
O332 Cd333 2.223 1_556 S
O332 C340 1.315 . S
Cd333 O332 2.223 1_554 S
Cd333 O336 2.297 . S
Cd333 O337 2.439 . S
Cd333 O343 2.247 . S
Cd334 O335 2.240 . S
Cd334 O342 2.223 . S
Cd334 O344 2.297 . S
Cd334 O345 2.439 1_556 S
O335 Cd334 2.240 . S
O335 C340 1.279 . S
O336 Cd333 2.297 . S
O336 C338 1.247 . S
O337 Cd333 2.439 . S
O337 C338 1.208 . S
C338 O336 1.247 . S
C338 O337 1.208 . S
C339 O344 1.247 1_554 S
C339 O345 1.208 . S
C340 O332 1.315 . S
C340 O335 1.279 . S
C341 O342 1.315 . S
C341 O343 1.254 1_556 S
O342 Cd334 2.223 . S
O342 C341 1.315 . S
O343 Cd333 2.247 . S
O343 C341 1.254 1_554 S
O344 Cd334 2.297 . S
O344 C339 1.247 1_556 S
O345 Cd334 2.439 1_554 S
O345 C339 1.208 . S
O346 Cd347 2.223 . S
O346 C354 1.315 . S
Cd347 O346 2.223 . S
Cd347 O350 2.297 1_655 S
Cd347 O351 2.439 . S
Cd347 O357 2.240 . S
Cd348 O349 2.240 . S
Cd348 O356 2.223 . S
Cd348 O358 2.297 . S
Cd348 O359 2.439 . S
O349 Cd348 2.240 . S
O349 C354 1.279 . S
O350 Cd347 2.297 1_455 S
O350 C352 1.247 . S
O351 Cd347 2.439 . S
O351 C352 1.208 1_655 S
C352 O350 1.247 . S
C352 O351 1.208 1_455 S
C353 O358 1.247 . S
C353 O359 1.208 . S
C354 O346 1.315 . S
C354 O349 1.279 . S
C355 O356 1.315 . S
C355 O357 1.279 . S
O356 Cd348 2.223 . S
O356 C355 1.315 . S
O357 Cd347 2.240 . S
O357 C355 1.279 . S
O358 Cd348 2.297 . S
O358 C353 1.247 . S
O359 Cd348 2.439 . S
O359 C353 1.208 . S
O360 Cd361 2.223 . S
O360 C368 1.315 . S
Cd361 O360 2.223 . S
Cd361 O364 2.297 . S
Cd361 O365 2.439 . S
Cd361 O371 2.240 . S
Cd362 O363 2.240 . S
Cd362 O370 2.223 . S
Cd362 O372 2.297 . S
Cd362 O373 2.439 . S
O363 Cd362 2.240 . S
O363 C368 1.279 . S
O364 Cd361 2.297 . S
O364 C366 1.247 . S
O365 Cd361 2.439 . S
O365 C366 1.208 . S
C366 O364 1.247 . S
C366 O365 1.208 . S
C367 O372 1.247 . S
C367 O373 1.208 . S
C368 O360 1.315 . S
C368 O363 1.279 . S
C369 O370 1.315 . S
C369 O371 1.279 . S
O370 Cd362 2.223 . S
O370 C369 1.315 . S
O371 Cd361 2.240 . S
O371 C369 1.279 . S
O372 Cd362 2.297 . S
O372 C367 1.247 . S
O373 Cd362 2.439 . S
O373 C367 1.208 . S
O374 Cd375 2.223 . S
O374 C382 1.315 . S
Cd375 O374 2.223 . S
Cd375 O378 2.297 . S
Cd375 O379 2.439 . S
Cd375 O385 2.240 . S
Cd376 O377 2.240 . S
Cd376 O384 2.223 . S
Cd376 O386 2.297 . S
Cd376 O387 2.439 . S
O377 Cd376 2.240 . S
O377 C382 1.279 . S
O378 Cd375 2.297 . S
O378 C380 1.247 . S
O379 Cd375 2.439 . S
O379 C380 1.208 . S
C380 O378 1.247 . S
C380 O379 1.208 . S
C381 O386 1.247 . S
C381 O387 1.208 . S
C382 O374 1.315 . S
C382 O377 1.279 . S
C383 O384 1.315 . S
C383 O385 1.279 . S
O384 Cd376 2.223 . S
O384 C383 1.315 . S
O385 Cd375 2.240 . S
O385 C383 1.279 . S
O386 Cd376 2.297 . S
O386 C381 1.247 . S
O387 Cd376 2.439 . S
O387 C381 1.208 . S
O388 Cd389 2.223 . S
O388 C396 1.315 . S
Cd389 O388 2.223 . S
Cd389 O392 2.297 . S
Cd389 O393 2.439 . S
Cd389 O399 2.240 . S
Cd390 O391 2.240 . S
Cd390 O398 2.223 . S
Cd390 O400 2.297 . S
Cd390 O401 2.439 . S
O391 Cd390 2.240 . S
O391 C396 1.279 . S
O392 Cd389 2.297 . S
O392 C394 1.247 . S
O393 Cd389 2.439 . S
O393 C394 1.208 . S
C394 O392 1.247 . S
C394 O393 1.208 . S
C395 O400 1.247 . S
C395 O401 1.208 . S
C396 O388 1.315 . S
C396 O391 1.279 . S
C397 O398 1.315 . S
C397 O399 1.279 . S
O398 Cd390 2.223 . S
O398 C397 1.315 . S
O399 Cd389 2.240 . S
O399 C397 1.279 . S
O400 Cd390 2.297 . S
O400 C395 1.247 . S
O401 Cd390 2.439 . S
O401 C395 1.208 . S
O402 Cd403 2.223 1_545 S
O402 C410 1.315 . S
Cd403 O402 2.223 1_565 S
Cd403 O406 2.297 . S
Cd403 O407 2.439 . S
Cd403 O413 2.240 1_565 S
Cd404 O405 2.240 . S
Cd404 O412 2.223 . S
Cd404 O414 2.300 . S
Cd404 O415 2.439 1_545 S
O405 Cd404 2.240 . S
O405 C410 1.279 . S
O406 Cd403 2.297 . S
O406 C408 1.247 . S
O407 Cd403 2.439 . S
O407 C408 1.208 . S
C408 O406 1.247 . S
C408 O407 1.208 . S
C409 O414 1.236 1_565 S
C409 O415 1.208 . S
C410 O402 1.315 . S
C410 O405 1.279 . S
C411 O412 1.315 . S
C411 O413 1.279 . S
O412 Cd404 2.223 . S
O412 C411 1.315 . S
O413 Cd403 2.240 1_545 S
O413 C411 1.279 . S
O414 Cd404 2.300 . S
O414 C409 1.236 1_545 S
O415 Cd404 2.439 1_565 S
O415 C409 1.208 . S
O416 Cd417 2.223 . S
O416 C424 1.315 . S
Cd417 O416 2.223 . S
Cd417 O420 2.297 1_655 S
Cd417 O421 2.439 1_655 S
Cd417 O427 2.240 . S
Cd418 O419 2.240 . S
Cd418 O426 2.223 1_455 S
Cd418 O428 2.297 . S
Cd418 O429 2.439 . S
O419 Cd418 2.240 . S
O419 C424 1.279 1_455 S
O420 Cd417 2.297 1_455 S
O420 C422 1.247 . S
O421 Cd417 2.439 1_455 S
O421 C422 1.208 . S
C422 O420 1.247 . S
C422 O421 1.208 . S
C423 O428 1.247 . S
C423 O429 1.208 . S
C424 O416 1.315 . S
C424 O419 1.279 1_655 S
C425 O426 1.315 . S
C425 O427 1.279 . S
O426 Cd418 2.223 1_655 S
O426 C425 1.315 . S
O427 Cd417 2.240 . S
O427 C425 1.279 . S
O428 Cd418 2.297 . S
O428 C423 1.247 . S
O429 Cd418 2.439 . S
O429 C423 1.208 . S
O430 Cd431 2.223 . S
O430 C438 1.315 . S
Cd431 O430 2.223 . S
Cd431 O434 2.297 . S
Cd431 O435 2.439 . S
Cd431 O441 2.240 . S
Cd432 O433 2.240 . S
Cd432 O440 2.223 . S
Cd432 O442 2.297 . S
Cd432 O443 2.439 . S
O433 Cd432 2.240 . S
O433 C438 1.279 . S
O434 Cd431 2.297 . S
O434 C436 1.247 . S
O435 Cd431 2.439 . S
O435 C436 1.208 . S
C436 O434 1.247 . S
C436 O435 1.208 . S
C437 O442 1.247 . S
C437 O443 1.208 . S
C438 O430 1.315 . S
C438 O433 1.279 . S
C439 O440 1.315 . S
C439 O441 1.279 . S
O440 Cd432 2.223 . S
O440 C439 1.315 . S
O441 Cd431 2.240 . S
O441 C439 1.279 . S
O442 Cd432 2.297 . S
O442 C437 1.247 . S
O443 Cd432 2.439 . S
O443 C437 1.208 . S
O444 Cd445 2.223 1_655 S
O444 C452 1.315 . S
Cd445 O444 2.223 1_455 S
Cd445 O448 2.297 . S
Cd445 O449 2.439 . S
Cd445 O455 2.240 . S
Cd446 O447 2.240 . S
Cd446 O454 2.223 1_455 S
Cd446 O456 2.297 . S
Cd446 O457 2.439 . S
O447 Cd446 2.240 . S
O447 C452 1.279 1_455 S
O448 Cd445 2.297 . S
O448 C450 1.247 . S
O449 Cd445 2.439 . S
O449 C450 1.208 . S
C450 O448 1.247 . S
C450 O449 1.208 . S
C451 O456 1.247 . S
C451 O457 1.208 . S
C452 O444 1.315 . S
C452 O447 1.279 1_655 S
C453 O454 1.315 1_455 S
C453 O455 1.279 . S
O454 Cd446 2.223 1_655 S
O454 C453 1.315 1_655 S
O455 Cd445 2.240 . S
O455 C453 1.279 . S
O456 Cd446 2.297 . S
O456 C451 1.247 . S
O457 Cd446 2.439 . S
O457 C451 1.208 . S
O458 Cd459 2.223 . S
O458 C466 1.315 . S
Cd459 O458 2.223 . S
Cd459 O462 2.297 . S
Cd459 O463 2.439 . S
Cd459 O469 2.240 . S
Cd460 O461 2.240 . S
Cd460 O468 2.223 . S
Cd460 O470 2.297 . S
Cd460 O471 2.439 . S
O461 Cd460 2.240 . S
O461 C466 1.279 . S
O462 Cd459 2.297 . S
O462 C464 1.247 . S
O463 Cd459 2.439 . S
O463 C464 1.208 . S
C464 O462 1.247 . S
C464 O463 1.208 . S
C465 O470 1.247 . S
C465 O471 1.208 . S
C466 O458 1.315 . S
C466 O461 1.279 . S
C467 O468 1.315 . S
C467 O469 1.279 . S
O468 Cd460 2.223 . S
O468 C467 1.315 . S
O469 Cd459 2.240 . S
O469 C467 1.279 . S
O470 Cd460 2.297 . S
O470 C465 1.247 . S
O471 Cd460 2.439 . S
O471 C465 1.208 . S
H472 C480 0.929 . S
H473 C482 0.930 . S
H474 C484 0.930 . S
H475 C487 0.929 . S
H476 C490 0.930 . S
H477 C492 0.960 . S
H478 C492 0.960 . S
H479 C492 0.960 . S
C480 H472 0.929 . S
C480 C481 1.377 . S
C480 C482 1.384 . S
C481 C480 1.377 . S
C481 C487 1.390 . S
C482 H473 0.930 . S
C482 C480 1.384 . S
C482 C483 1.372 . S
C483 C482 1.372 . S
C483 C484 1.400 . S
C483 C488 1.490 . S
C484 H474 0.930 . S
C484 C483 1.400 . S
C484 C487 1.386 . S
H485 C501 0.930 . S
H486 C502 0.931 . S
C487 H475 0.929 . S
C487 C481 1.390 . S
C487 C484 1.386 . S
C488 C483 1.490 . S
C488 C490 1.395 . S
C488 C491 1.403 . S
H489 C495 0.930 . S
C490 H476 0.930 . S
C490 C488 1.395 . S
C490 C493 1.403 . S
C491 C488 1.403 . S
C491 C492 1.524 . S
C491 C495 1.400 . S
C492 H477 0.960 . S
C492 H478 0.960 . S
C492 H479 0.960 . S
C492 C491 1.524 . S
C493 C490 1.403 . S
C493 C494 1.392 . S
C493 C497 1.495 . S
C494 C493 1.392 . S
C494 C495 1.385 . S
C494 C496 1.478 . S
C495 H489 0.930 . S
C495 C491 1.400 . S
C495 C494 1.385 . S
C496 C494 1.478 . S
C496 C498 1.381 1_556 S
C496 C502 1.383 . S
C497 C493 1.495 . S
C497 H503 0.959 . S
C497 H504 0.961 . S
C497 H505 0.960 . S
C498 C496 1.381 1_554 S
C498 C499 1.394 . S
C498 H506 0.930 . S
C499 C498 1.394 . S
C499 C500 1.383 . S
C499 H507 0.929 . S
C500 C499 1.383 . S
C500 C501 1.377 . S
C501 H485 0.930 . S
C501 C500 1.377 . S
C501 C502 1.379 1_554 S
C502 H486 0.931 . S
C502 C496 1.383 . S
C502 C501 1.379 1_556 S
H503 C497 0.959 . S
H504 C497 0.961 . S
H505 C497 0.960 . S
H506 C498 0.930 . S
H507 C499 0.929 . S
H508 C516 0.929 . S
H509 C518 0.930 . S
H510 C520 0.930 . S
H511 C523 0.929 . S
H512 C526 0.930 1_655 S
H513 C528 0.960 . S
H514 C528 0.960 . S
H515 C528 0.960 . S
C516 H508 0.929 . S
C516 C517 1.377 . S
C516 C518 1.384 . S
C517 C516 1.377 . S
C517 C523 1.390 . S
C518 H509 0.930 . S
C518 C516 1.384 . S
C518 C519 1.372 . S
C519 C518 1.372 . S
C519 C520 1.400 . S
C519 C524 1.490 1_655 S
C520 H510 0.930 . S
C520 C519 1.400 . S
C520 C523 1.386 . S
H521 C537 0.930 . S
H522 C538 0.931 . S
C523 H511 0.929 . S
C523 C517 1.390 . S
C523 C520 1.386 . S
C524 C519 1.490 1_455 S
C524 C526 1.395 . S
C524 C527 1.403 . S
H525 C531 0.930 . S
C526 H512 0.930 1_455 S
C526 C524 1.395 . S
C526 C529 1.403 . S
C527 C524 1.403 . S
C527 C528 1.524 . S
C527 C531 1.400 . S
C528 H513 0.960 . S
C528 H514 0.960 . S
C528 H515 0.960 . S
C528 C527 1.524 . S
C529 C526 1.403 . S
C529 C530 1.392 . S
C529 C533 1.495 . S
C530 C529 1.392 . S
C530 C531 1.385 . S
C530 C532 1.478 . S
C531 H525 0.930 . S
C531 C527 1.400 . S
C531 C530 1.385 . S
C532 C530 1.478 . S
C532 C534 1.381 . S
C532 C538 1.383 . S
C533 C529 1.495 . S
C533 H539 0.959 . S
C533 H540 0.961 . S
C533 H541 0.960 . S
C534 C532 1.381 . S
C534 C535 1.394 . S
C534 H542 0.930 . S
C535 C534 1.394 . S
C535 C536 1.383 . S
C535 H543 0.929 . S
C536 C535 1.383 . S
C536 C537 1.377 . S
C537 H521 0.930 . S
C537 C536 1.377 . S
C537 C538 1.379 . S
C538 H522 0.931 . S
C538 C532 1.383 . S
C538 C537 1.379 . S
H539 C533 0.959 . S
H540 C533 0.961 . S
H541 C533 0.960 . S
H542 C534 0.930 . S
H543 C535 0.929 . S
H544 C552 0.929 . S
H545 C554 0.930 . S
H546 C556 0.930 . S
H547 C559 0.929 . S
H548 C562 0.930 . S
H549 C564 0.960 . S
H550 C564 0.960 . S
H551 C564 0.960 . S
C552 H544 0.929 . S
C552 C553 1.377 . S
C552 C554 1.384 . S
C553 C552 1.377 . S
C553 C559 1.390 . S
C554 H545 0.930 . S
C554 C552 1.384 . S
C554 C555 1.372 . S
C555 C554 1.372 . S
C555 C556 1.400 . S
C555 C560 1.490 . S
C556 H546 0.930 . S
C556 C555 1.400 . S
C556 C559 1.386 . S
H557 C573 0.930 . S
H558 C574 0.931 . S
C559 H547 0.929 . S
C559 C553 1.390 . S
C559 C556 1.386 . S
C560 C555 1.490 . S
C560 C562 1.395 . S
C560 C563 1.403 . S
H561 C567 0.930 . S
C562 H548 0.930 . S
C562 C560 1.395 . S
C562 C565 1.403 . S
C563 C560 1.403 . S
C563 C564 1.524 . S
C563 C567 1.400 . S
C564 H549 0.960 . S
C564 H550 0.960 . S
C564 H551 0.960 . S
C564 C563 1.524 . S
C565 C562 1.403 . S
C565 C566 1.392 . S
C565 C569 1.495 . S
C566 C565 1.392 . S
C566 C567 1.385 . S
C566 C568 1.478 . S
C567 H561 0.930 . S
C567 C563 1.400 . S
C567 C566 1.385 . S
C568 C566 1.478 . S
C568 C570 1.381 . S
C568 C574 1.383 . S
C569 C565 1.495 . S
C569 H575 0.959 . S
C569 H576 0.961 . S
C569 H577 0.960 . S
C570 C568 1.381 . S
C570 C571 1.394 . S
C570 H578 0.930 . S
C571 C570 1.394 . S
C571 C572 1.383 . S
C571 H579 0.929 . S
C572 C571 1.383 . S
C572 C573 1.377 . S
C573 H557 0.930 . S
C573 C572 1.377 . S
C573 C574 1.379 . S
C574 H558 0.931 . S
C574 C568 1.383 . S
C574 C573 1.379 . S
H575 C569 0.959 . S
H576 C569 0.961 . S
H577 C569 0.960 . S
H578 C570 0.930 . S
H579 C571 0.929 . S
H580 C588 0.929 . S
H581 C590 0.930 1_545 S
H582 C592 0.930 . S
H583 C595 0.929 . S
H584 C598 0.930 . S
H585 C600 0.960 . S
H586 C600 0.960 . S
H587 C600 0.960 . S
C588 H580 0.929 . S
C588 C589 1.377 . S
C588 C590 1.384 . S
C589 C588 1.377 . S
C589 C595 1.390 . S
C590 H581 0.930 1_565 S
C590 C588 1.384 . S
C590 C591 1.372 . S
C591 C590 1.372 . S
C591 C592 1.400 . S
C591 C596 1.490 . S
C592 H582 0.930 . S
C592 C591 1.400 . S
C592 C595 1.386 . S
H593 C609 0.931 . S
H594 C610 0.934 . S
C595 H583 0.929 . S
C595 C589 1.390 . S
C595 C592 1.386 . S
C596 C591 1.490 . S
C596 C598 1.395 1_565 S
C596 C599 1.403 . S
H597 C603 0.931 1_565 S
C598 H584 0.930 . S
C598 C596 1.395 1_545 S
C598 C601 1.403 . S
C599 C596 1.403 . S
C599 C600 1.524 . S
C599 C603 1.356 1_565 S
C600 H585 0.960 . S
C600 H586 0.960 . S
C600 H587 0.960 . S
C600 C599 1.524 . S
C601 C598 1.403 . S
C601 C602 1.392 . S
C601 C605 1.495 . S
C602 C601 1.392 . S
C602 C603 1.431 . S
C602 C604 1.478 . S
C603 H597 0.931 1_545 S
C603 C599 1.356 1_545 S
C603 C602 1.431 . S
C604 C602 1.478 . S
C604 C606 1.381 . S
C604 C610 1.383 . S
C605 C601 1.495 . S
C605 H611 0.959 . S
C605 H612 0.961 . S
C605 H613 0.960 . S
C606 C604 1.381 . S
C606 C607 1.394 . S
C606 H614 0.930 . S
C607 C606 1.394 . S
C607 C608 1.383 . S
C607 H615 0.929 . S
C608 C607 1.383 . S
C608 C609 1.377 . S
C609 H593 0.931 . S
C609 C608 1.377 . S
C609 C610 1.379 . S
C610 H594 0.934 . S
C610 C604 1.383 . S
C610 C609 1.379 . S
H611 C605 0.959 . S
H612 C605 0.961 . S
H613 C605 0.960 . S
H614 C606 0.930 . S
H615 C607 0.929 . S
H616 C624 0.929 . S
H617 C626 0.930 . S
H618 C628 0.930 . S
H619 C631 0.929 . S
H620 C634 0.930 . S
H621 C636 0.960 . S
H622 C636 0.960 . S
H623 C636 0.960 . S
C624 H616 0.929 . S
C624 C625 1.377 . S
C624 C626 1.384 . S
C625 C624 1.377 . S
C625 C631 1.390 . S
C626 H617 0.930 . S
C626 C624 1.384 . S
C626 C627 1.372 . S
C627 C626 1.372 . S
C627 C628 1.400 . S
C627 C632 1.490 . S
C628 H618 0.930 . S
C628 C627 1.400 . S
C628 C631 1.386 . S
H629 C645 0.930 . S
H630 C646 0.931 . S
C631 H619 0.929 . S
C631 C625 1.390 . S
C631 C628 1.386 . S
C632 C627 1.490 . S
C632 C634 1.395 . S
C632 C635 1.403 . S
H633 C639 0.930 . S
C634 H620 0.930 . S
C634 C632 1.395 . S
C634 C637 1.403 . S
C635 C632 1.403 . S
C635 C636 1.524 . S
C635 C639 1.400 . S
C636 H621 0.960 . S
C636 H622 0.960 . S
C636 H623 0.960 . S
C636 C635 1.524 . S
C637 C634 1.403 . S
C637 C638 1.392 . S
C637 C641 1.495 . S
C638 C637 1.392 . S
C638 C639 1.385 . S
C638 C640 1.478 . S
C639 H633 0.930 . S
C639 C635 1.400 . S
C639 C638 1.385 . S
C640 C638 1.478 . S
C640 C642 1.381 . S
C640 C646 1.383 . S
C641 C637 1.495 . S
C641 H647 0.959 . S
C641 H648 0.961 . S
C641 H649 0.960 . S
C642 C640 1.381 . S
C642 C643 1.394 . S
C642 H650 0.930 . S
C643 C642 1.394 . S
C643 C644 1.383 . S
C643 H651 0.929 . S
C644 C643 1.383 . S
C644 C645 1.377 . S
C645 H629 0.930 . S
C645 C644 1.377 . S
C645 C646 1.379 . S
C646 H630 0.931 . S
C646 C640 1.383 . S
C646 C645 1.379 . S
H647 C641 0.959 . S
H648 C641 0.961 . S
H649 C641 0.960 . S
H650 C642 0.930 . S
H651 C643 0.929 . S
H652 C660 0.929 . S
H653 C662 0.930 . S
H654 C664 0.930 . S
H655 C667 0.929 . S
H656 C670 0.930 . S
H657 C672 0.960 . S
H658 C672 0.960 . S
H659 C672 0.960 . S
C660 H652 0.929 . S
C660 C661 1.377 . S
C660 C662 1.384 . S
C661 C660 1.377 . S
C661 C667 1.390 . S
C662 H653 0.930 . S
C662 C660 1.384 . S
C662 C663 1.372 . S
C663 C662 1.372 . S
C663 C664 1.400 . S
C663 C668 1.490 . S
C664 H654 0.930 . S
C664 C663 1.400 . S
C664 C667 1.386 . S
H665 C681 0.930 . S
H666 C682 0.931 . S
C667 H655 0.929 . S
C667 C661 1.390 . S
C667 C664 1.386 . S
C668 C663 1.490 . S
C668 C670 1.395 . S
C668 C671 1.403 . S
H669 C675 0.930 . S
C670 H656 0.930 . S
C670 C668 1.395 . S
C670 C673 1.403 . S
C671 C668 1.403 . S
C671 C672 1.524 . S
C671 C675 1.400 . S
C672 H657 0.960 . S
C672 H658 0.960 . S
C672 H659 0.960 . S
C672 C671 1.524 . S
C673 C670 1.403 . S
C673 C674 1.392 . S
C673 C677 1.495 . S
C674 C673 1.392 . S
C674 C675 1.385 . S
C674 C676 1.478 . S
C675 H669 0.930 . S
C675 C671 1.400 . S
C675 C674 1.385 . S
C676 C674 1.478 . S
C676 C678 1.381 . S
C676 C682 1.383 . S
C677 C673 1.495 . S
C677 H683 0.959 . S
C677 H684 0.961 . S
C677 H685 0.960 . S
C678 C676 1.381 . S
C678 C679 1.394 . S
C678 H686 0.930 . S
C679 C678 1.394 . S
C679 C680 1.383 . S
C679 H687 0.929 . S
C680 C679 1.383 . S
C680 C681 1.377 . S
C681 H665 0.930 . S
C681 C680 1.377 . S
C681 C682 1.379 . S
C682 H666 0.931 . S
C682 C676 1.383 . S
C682 C681 1.379 . S
H683 C677 0.959 . S
H684 C677 0.961 . S
H685 C677 0.960 . S
H686 C678 0.930 . S
H687 C679 0.929 . S
H688 C696 0.929 . S
H689 C698 0.930 . S
H690 C700 0.930 . S
H691 C703 0.929 . S
H692 C706 0.930 . S
H693 C708 0.960 . S
H694 C708 0.960 . S
H695 C708 0.960 . S
C696 H688 0.929 . S
C696 C697 1.377 . S
C696 C698 1.384 . S
C697 C696 1.377 . S
C697 C703 1.390 . S
C698 H689 0.930 . S
C698 C696 1.384 . S
C698 C699 1.372 . S
C699 C698 1.372 . S
C699 C700 1.400 . S
C699 C704 1.490 . S
C700 H690 0.930 . S
C700 C699 1.400 . S
C700 C703 1.386 . S
H701 C717 0.930 . S
H702 C718 0.931 . S
C703 H691 0.929 . S
C703 C697 1.390 . S
C703 C700 1.386 . S
C704 C699 1.490 . S
C704 C706 1.395 . S
C704 C707 1.403 . S
H705 C711 0.930 . S
C706 H692 0.930 . S
C706 C704 1.395 . S
C706 C709 1.403 . S
C707 C704 1.403 . S
C707 C708 1.524 . S
C707 C711 1.400 . S
C708 H693 0.960 . S
C708 H694 0.960 . S
C708 H695 0.960 . S
C708 C707 1.524 . S
C709 C706 1.403 . S
C709 C710 1.392 . S
C709 C713 1.495 . S
C710 C709 1.392 . S
C710 C711 1.385 . S
C710 C712 1.478 . S
C711 H705 0.930 . S
C711 C707 1.400 . S
C711 C710 1.385 . S
C712 C710 1.478 . S
C712 C714 1.381 . S
C712 C718 1.383 . S
C713 C709 1.495 . S
C713 H719 0.959 . S
C713 H720 0.961 . S
C713 H721 0.960 . S
C714 C712 1.381 . S
C714 C715 1.394 . S
C714 H722 0.930 . S
C715 C714 1.394 . S
C715 C716 1.383 . S
C715 H723 0.929 . S
C716 C715 1.383 . S
C716 C717 1.377 . S
C717 H701 0.930 . S
C717 C716 1.377 . S
C717 C718 1.379 . S
C718 H702 0.931 . S
C718 C712 1.383 . S
C718 C717 1.379 . S
H719 C713 0.959 . S
H720 C713 0.961 . S
H721 C713 0.960 . S
H722 C714 0.930 . S
H723 C715 0.929 . S
H724 C732 0.929 . S
H725 C734 0.930 . S
H726 C736 0.930 . S
H727 C739 0.929 . S
H728 C742 0.930 . S
H729 C744 0.960 . S
H730 C744 0.960 . S
H731 C744 0.960 . S
C732 H724 0.929 . S
C732 C733 1.377 . S
C732 C734 1.384 . S
C733 C732 1.377 . S
C733 C739 1.390 . S
C734 H725 0.930 . S
C734 C732 1.384 . S
C734 C735 1.372 . S
C735 C734 1.372 . S
C735 C736 1.400 . S
C735 C740 1.490 . S
C736 H726 0.930 . S
C736 C735 1.400 . S
C736 C739 1.386 . S
H737 C753 0.930 . S
H738 C754 0.931 . S
C739 H727 0.929 . S
C739 C733 1.390 . S
C739 C736 1.386 . S
C740 C735 1.490 . S
C740 C742 1.395 . S
C740 C743 1.403 . S
H741 C747 0.930 . S
C742 H728 0.930 . S
C742 C740 1.395 . S
C742 C745 1.403 . S
C743 C740 1.403 . S
C743 C744 1.524 . S
C743 C747 1.400 . S
C744 H729 0.960 . S
C744 H730 0.960 . S
C744 H731 0.960 . S
C744 C743 1.524 . S
C745 C742 1.403 . S
C745 C746 1.392 . S
C745 C749 1.495 . S
C746 C745 1.392 . S
C746 C747 1.385 . S
C746 C748 1.478 . S
C747 H741 0.930 . S
C747 C743 1.400 . S
C747 C746 1.385 . S
C748 C746 1.478 . S
C748 C750 1.381 . S
C748 C754 1.383 . S
C749 C745 1.495 . S
C749 H755 0.959 . S
C749 H756 0.961 . S
C749 H757 0.960 . S
C750 C748 1.381 . S
C750 C751 1.394 . S
C750 H758 0.930 . S
C751 C750 1.394 . S
C751 C752 1.383 . S
C751 H759 0.929 . S
C752 C751 1.383 . S
C752 C753 1.377 . S
C753 H737 0.930 . S
C753 C752 1.377 . S
C753 C754 1.379 . S
C754 H738 0.931 . S
C754 C748 1.383 . S
C754 C753 1.379 . S
H755 C749 0.959 . S
H756 C749 0.961 . S
H757 C749 0.960 . S
H758 C750 0.930 . S
H759 C751 0.929 . S
H760 C768 0.929 . S
H761 C770 0.930 . S
H762 C772 0.930 . S
H763 C775 0.929 . S
H764 C778 0.930 . S
H765 C780 0.960 . S
H766 C780 0.960 . S
H767 C780 0.960 . S
C768 H760 0.929 . S
C768 C769 1.377 . S
C768 C770 1.384 . S
C769 C768 1.377 . S
C769 C775 1.390 . S
C770 H761 0.930 . S
C770 C768 1.384 . S
C770 C771 1.372 . S
C771 C770 1.372 . S
C771 C772 1.400 . S
C771 C776 1.490 . S
C772 H762 0.930 . S
C772 C771 1.400 . S
C772 C775 1.386 . S
H773 C789 0.930 . S
H774 C790 0.931 . S
C775 H763 0.929 . S
C775 C769 1.390 . S
C775 C772 1.386 . S
C776 C771 1.490 . S
C776 C778 1.395 . S
C776 C779 1.403 . S
H777 C783 0.930 . S
C778 H764 0.930 . S
C778 C776 1.395 . S
C778 C781 1.403 . S
C779 C776 1.403 . S
C779 C780 1.524 . S
C779 C783 1.400 . S
C780 H765 0.960 . S
C780 H766 0.960 . S
C780 H767 0.960 . S
C780 C779 1.524 . S
C781 C778 1.403 . S
C781 C782 1.392 . S
C781 C785 1.495 . S
C782 C781 1.392 . S
C782 C783 1.385 . S
C782 C784 1.478 . S
C783 H777 0.930 . S
C783 C779 1.400 . S
C783 C782 1.385 . S
C784 C782 1.478 . S
C784 C786 1.381 . S
C784 C790 1.383 . S
C785 C781 1.495 . S
C785 H791 0.959 . S
C785 H792 0.961 . S
C785 H793 0.960 . S
C786 C784 1.381 . S
C786 C787 1.394 . S
C786 H794 0.930 . S
C787 C786 1.394 . S
C787 C788 1.383 . S
C787 H795 0.929 . S
C788 C787 1.383 . S
C788 C789 1.377 . S
C789 H773 0.930 . S
C789 C788 1.377 . S
C789 C790 1.379 . S
C790 H774 0.931 . S
C790 C784 1.383 . S
C790 C789 1.379 . S
H791 C785 0.959 . S
H792 C785 0.961 . S
H793 C785 0.960 . S
H794 C786 0.930 . S
H795 C787 0.929 . S
H796 C804 0.929 . S
H797 C806 0.930 . S
H798 C808 0.930 . S
H799 C811 0.929 . S
H800 C814 0.930 . S
H801 C816 0.960 . S
H802 C816 0.960 . S
H803 C816 0.960 . S
C804 H796 0.929 . S
C804 C805 1.377 . S
C804 C806 1.384 . S
C805 C804 1.377 . S
C805 C811 1.390 . S
C806 H797 0.930 . S
C806 C804 1.384 . S
C806 C807 1.372 . S
C807 C806 1.372 . S
C807 C808 1.400 . S
C807 C812 1.490 . S
C808 H798 0.930 . S
C808 C807 1.400 . S
C808 C811 1.386 . S
H809 C825 0.930 . S
H810 C826 0.931 . S
C811 H799 0.929 . S
C811 C805 1.390 . S
C811 C808 1.386 . S
C812 C807 1.490 . S
C812 C814 1.395 . S
C812 C815 1.403 . S
H813 C819 0.930 . S
C814 H800 0.930 . S
C814 C812 1.395 . S
C814 C817 1.403 . S
C815 C812 1.403 . S
C815 C816 1.524 . S
C815 C819 1.400 . S
C816 H801 0.960 . S
C816 H802 0.960 . S
C816 H803 0.960 . S
C816 C815 1.524 . S
C817 C814 1.403 . S
C817 C818 1.392 . S
C817 C821 1.495 . S
C818 C817 1.392 . S
C818 C819 1.385 . S
C818 C820 1.478 . S
C819 H813 0.930 . S
C819 C815 1.400 . S
C819 C818 1.385 . S
C820 C818 1.478 . S
C820 C822 1.381 . S
C820 C826 1.383 . S
C821 C817 1.495 . S
C821 H827 0.959 . S
C821 H828 0.961 . S
C821 H829 0.960 . S
C822 C820 1.381 . S
C822 C823 1.394 . S
C822 H830 0.930 . S
C823 C822 1.394 . S
C823 C824 1.383 . S
C823 H831 0.929 . S
C824 C823 1.383 . S
C824 C825 1.377 . S
C825 H809 0.930 . S
C825 C824 1.377 . S
C825 C826 1.379 . S
C826 H810 0.931 . S
C826 C820 1.383 . S
C826 C825 1.379 . S
H827 C821 0.959 . S
H828 C821 0.961 . S
H829 C821 0.960 . S
H830 C822 0.930 . S
H831 C823 0.929 . S
H832 C840 0.929 . S
H833 C842 0.930 . S
H834 C844 0.930 . S
H835 C847 0.929 . S
H836 C850 0.930 . S
H837 C852 0.960 . S
H838 C852 0.960 . S
H839 C852 0.960 . S
C840 H832 0.929 . S
C840 C841 1.377 . S
C840 C842 1.384 . S
C841 C840 1.377 . S
C841 C847 1.390 . S
C842 H833 0.930 . S
C842 C840 1.384 . S
C842 C843 1.372 . S
C843 C842 1.372 . S
C843 C844 1.400 . S
C843 C848 1.490 . S
C844 H834 0.930 . S
C844 C843 1.400 . S
C844 C847 1.386 . S
H845 C861 0.930 . S
H846 C862 0.931 . S
C847 H835 0.929 . S
C847 C841 1.390 . S
C847 C844 1.386 . S
C848 C843 1.490 . S
C848 C850 1.395 . S
C848 C851 1.403 . S
H849 C855 0.930 . S
C850 H836 0.930 . S
C850 C848 1.395 . S
C850 C853 1.403 . S
C851 C848 1.403 . S
C851 C852 1.524 . S
C851 C855 1.400 . S
C852 H837 0.960 . S
C852 H838 0.960 . S
C852 H839 0.960 . S
C852 C851 1.524 . S
C853 C850 1.403 . S
C853 C854 1.392 . S
C853 C857 1.495 . S
C854 C853 1.392 . S
C854 C855 1.385 . S
C854 C856 1.478 . S
C855 H849 0.930 . S
C855 C851 1.400 . S
C855 C854 1.385 . S
C856 C854 1.478 . S
C856 C858 1.381 . S
C856 C862 1.383 . S
C857 C853 1.495 . S
C857 H863 0.959 . S
C857 H864 0.961 . S
C857 H865 0.960 . S
C858 C856 1.381 . S
C858 C859 1.394 . S
C858 H866 0.930 . S
C859 C858 1.394 . S
C859 C860 1.383 . S
C859 H867 0.929 . S
C860 C859 1.383 . S
C860 C861 1.377 . S
C861 H845 0.930 . S
C861 C860 1.377 . S
C861 C862 1.379 . S
C862 H846 0.931 . S
C862 C856 1.383 . S
C862 C861 1.379 . S
H863 C857 0.959 . S
H864 C857 0.961 . S
H865 C857 0.960 . S
H866 C858 0.930 . S
H867 C859 0.929 . S
H868 C876 0.929 . S
H869 C878 0.930 . S
H870 C880 0.930 . S
H871 C883 0.929 . S
H872 C886 0.930 . S
H873 C888 0.960 . S
H874 C888 0.960 . S
H875 C888 0.960 . S
C876 H868 0.929 . S
C876 C877 1.377 . S
C876 C878 1.384 . S
C877 C876 1.377 . S
C877 C883 1.390 . S
C878 H869 0.930 . S
C878 C876 1.384 . S
C878 C879 1.372 . S
C879 C878 1.372 . S
C879 C880 1.400 . S
C879 C884 1.490 . S
C880 H870 0.930 . S
C880 C879 1.400 . S
C880 C883 1.386 . S
H881 C897 0.930 . S
H882 C898 0.931 . S
C883 H871 0.929 . S
C883 C877 1.390 . S
C883 C880 1.386 . S
C884 C879 1.490 . S
C884 C886 1.395 . S
C884 C887 1.403 . S
H885 C891 0.930 . S
C886 H872 0.930 . S
C886 C884 1.395 . S
C886 C889 1.403 . S
C887 C884 1.403 . S
C887 C888 1.524 . S
C887 C891 1.400 . S
C888 H873 0.960 . S
C888 H874 0.960 . S
C888 H875 0.960 . S
C888 C887 1.524 . S
C889 C886 1.403 . S
C889 C890 1.392 . S
C889 C893 1.495 . S
C890 C889 1.392 . S
C890 C891 1.385 . S
C890 C892 1.478 . S
C891 H885 0.930 . S
C891 C887 1.400 . S
C891 C890 1.385 . S
C892 C890 1.478 . S
C892 C894 1.381 . S
C892 C898 1.383 . S
C893 C889 1.495 . S
C893 H899 0.959 . S
C893 H900 0.961 . S
C893 H901 0.960 . S
C894 C892 1.381 . S
C894 C895 1.394 . S
C894 H902 0.930 . S
C895 C894 1.394 . S
C895 C896 1.383 . S
C895 H903 0.929 . S
C896 C895 1.383 . S
C896 C897 1.377 . S
C897 H881 0.930 . S
C897 C896 1.377 . S
C897 C898 1.379 . S
C898 H882 0.931 . S
C898 C892 1.383 . S
C898 C897 1.379 . S
H899 C893 0.959 . S
H900 C893 0.961 . S
H901 C893 0.960 . S
H902 C894 0.930 . S
H903 C895 0.929 . S
H904 C912 0.929 . S
H905 C914 0.930 . S
H906 C916 0.930 . S
H907 C919 0.929 . S
H908 C922 0.930 . S
H909 C924 0.960 . S
H910 C924 0.960 . S
H911 C924 0.960 . S
C912 H904 0.929 . S
C912 C913 1.377 . S
C912 C914 1.384 . S
C913 C912 1.377 . S
C913 C919 1.390 . S
C914 H905 0.930 . S
C914 C912 1.384 . S
C914 C915 1.372 . S
C915 C914 1.372 . S
C915 C916 1.400 . S
C915 C920 1.490 . S
C916 H906 0.930 . S
C916 C915 1.400 . S
C916 C919 1.386 . S
H917 C933 0.930 . S
H918 C934 0.931 . S
C919 H907 0.929 . S
C919 C913 1.390 . S
C919 C916 1.386 . S
C920 C915 1.490 . S
C920 C922 1.395 . S
C920 C923 1.403 . S
H921 C927 0.930 . S
C922 H908 0.930 . S
C922 C920 1.395 . S
C922 C925 1.403 . S
C923 C920 1.403 . S
C923 C924 1.524 . S
C923 C927 1.400 . S
C924 H909 0.960 . S
C924 H910 0.960 . S
C924 H911 0.960 . S
C924 C923 1.524 . S
C925 C922 1.403 . S
C925 C926 1.392 . S
C925 C929 1.495 . S
C926 C925 1.392 . S
C926 C927 1.385 . S
C926 C928 1.478 . S
C927 H921 0.930 . S
C927 C923 1.400 . S
C927 C926 1.385 . S
C928 C926 1.478 . S
C928 C930 1.381 . S
C928 C934 1.383 . S
C929 C925 1.495 . S
C929 H935 0.959 . S
C929 H936 0.961 . S
C929 H937 0.960 . S
C930 C928 1.381 . S
C930 C931 1.394 . S
C930 H938 0.930 . S
C931 C930 1.394 . S
C931 C932 1.383 . S
C931 H939 0.929 . S
C932 C931 1.383 . S
C932 C933 1.377 . S
C933 H917 0.930 . S
C933 C932 1.377 . S
C933 C934 1.379 . S
C934 H918 0.931 . S
C934 C928 1.383 . S
C934 C933 1.379 . S
H935 C929 0.959 . S
H936 C929 0.961 . S
H937 C929 0.960 . S
H938 C930 0.930 . S
H939 C931 0.929 . S
H940 C948 0.929 . S
H941 C950 0.930 . S
H942 C952 0.930 . S
H943 C955 0.929 . S
H944 C958 0.930 . S
H945 C960 0.960 . S
H946 C960 0.960 . S
H947 C960 0.960 . S
C948 H940 0.929 . S
C948 C949 1.377 . S
C948 C950 1.384 . S
C949 C948 1.377 . S
C949 C955 1.390 . S
C950 H941 0.930 . S
C950 C948 1.384 . S
C950 C951 1.372 . S
C951 C950 1.372 . S
C951 C952 1.400 . S
C951 C956 1.490 . S
C952 H942 0.930 . S
C952 C951 1.400 . S
C952 C955 1.386 . S
H953 C969 0.930 . S
H954 C970 0.931 . S
C955 H943 0.929 . S
C955 C949 1.390 . S
C955 C952 1.386 . S
C956 C951 1.490 . S
C956 C958 1.395 . S
C956 C959 1.403 . S
H957 C963 0.930 . S
C958 H944 0.930 . S
C958 C956 1.395 . S
C958 C961 1.403 . S
C959 C956 1.403 . S
C959 C960 1.524 . S
C959 C963 1.400 . S
C960 H945 0.960 . S
C960 H946 0.960 . S
C960 H947 0.960 . S
C960 C959 1.524 . S
C961 C958 1.403 . S
C961 C962 1.392 . S
C961 C965 1.495 . S
C962 C961 1.392 . S
C962 C963 1.385 . S
C962 C964 1.478 . S
C963 H957 0.930 . S
C963 C959 1.400 . S
C963 C962 1.385 . S
C964 C962 1.478 . S
C964 C966 1.381 . S
C964 C970 1.383 . S
C965 C961 1.495 . S
C965 H971 0.959 . S
C965 H972 0.961 . S
C965 H973 0.960 . S
C966 C964 1.381 . S
C966 C967 1.394 . S
C966 H974 0.930 . S
C967 C966 1.394 . S
C967 C968 1.383 . S
C967 H975 0.929 . S
C968 C967 1.383 . S
C968 C969 1.377 . S
C969 H953 0.930 . S
C969 C968 1.377 . S
C969 C970 1.379 . S
C970 H954 0.931 . S
C970 C964 1.383 . S
C970 C969 1.379 . S
H971 C965 0.959 . S
H972 C965 0.961 . S
H973 C965 0.960 . S
H974 C966 0.930 . S
H975 C967 0.929 . S
H976 C984 0.929 . S
H977 C986 0.930 . S
H978 C988 0.930 . S
H979 C991 0.929 . S
H980 C994 0.930 . S
H981 C996 0.960 . S
H982 C996 0.960 . S
H983 C996 0.960 . S
C984 H976 0.929 . S
C984 C985 1.377 . S
C984 C986 1.384 . S
C985 C984 1.377 . S
C985 C991 1.390 . S
C986 H977 0.930 . S
C986 C984 1.384 . S
C986 C987 1.372 . S
C987 C986 1.372 . S
C987 C988 1.400 . S
C987 C992 1.490 . S
C988 H978 0.930 . S
C988 C987 1.400 . S
C988 C991 1.386 . S
H989 C1005 0.930 . S
H990 C1006 0.931 . S
C991 H979 0.929 . S
C991 C985 1.390 . S
C991 C988 1.386 . S
C992 C987 1.490 . S
C992 C994 1.395 . S
C992 C995 1.403 . S
H993 C999 0.930 . S
C994 H980 0.930 . S
C994 C992 1.395 . S
C994 C997 1.403 . S
C995 C992 1.403 . S
C995 C996 1.524 . S
C995 C999 1.400 . S
C996 H981 0.960 . S
C996 H982 0.960 . S
C996 H983 0.960 . S
C996 C995 1.524 . S
C997 C994 1.403 . S
C997 C998 1.392 . S
C997 C1001 1.495 . S
C998 C997 1.392 . S
C998 C999 1.385 . S
C998 C1000 1.478 . S
C999 H993 0.930 . S
C999 C995 1.400 . S
C999 C998 1.385 . S
C1000 C998 1.478 . S
C1000 C1002 1.381 . S
C1000 C1006 1.383 . S
C1001 C997 1.495 . S
C1001 H1007 0.959 . S
C1001 H1008 0.961 . S
C1001 H1009 0.960 . S
C1002 C1000 1.381 . S
C1002 C1003 1.394 . S
C1002 H1010 0.930 . S
C1003 C1002 1.394 . S
C1003 C1004 1.383 . S
C1003 H1011 0.929 . S
C1004 C1003 1.383 . S
C1004 C1005 1.377 . S
C1005 H989 0.930 . S
C1005 C1004 1.377 . S
C1005 C1006 1.379 . S
C1006 H990 0.931 . S
C1006 C1000 1.383 . S
C1006 C1005 1.379 . S
H1007 C1001 0.959 . S
H1008 C1001 0.961 . S
H1009 C1001 0.960 . S
H1010 C1002 0.930 . S
H1011 C1003 0.929 . S
H1012 C1020 0.929 . S
H1013 C1022 0.930 . S
H1014 C1024 0.930 . S
H1015 C1027 0.929 . S
H1016 C1030 0.930 . S
H1017 C1032 0.960 . S
H1018 C1032 0.960 . S
H1019 C1032 0.960 . S
C1020 H1012 0.929 . S
C1020 C1021 1.377 . S
C1020 C1022 1.384 . S
C1021 C1020 1.377 . S
C1021 C1027 1.390 . S
C1022 H1013 0.930 . S
C1022 C1020 1.384 . S
C1022 C1023 1.372 . S
C1023 C1022 1.372 . S
C1023 C1024 1.400 . S
C1023 C1028 1.490 . S
C1024 H1014 0.930 . S
C1024 C1023 1.400 . S
C1024 C1027 1.386 . S
H1025 C1041 0.930 . S
H1026 C1042 0.931 . S
C1027 H1015 0.929 . S
C1027 C1021 1.390 . S
C1027 C1024 1.386 . S
C1028 C1023 1.490 . S
C1028 C1030 1.395 . S
C1028 C1031 1.403 . S
H1029 C1035 0.930 . S
C1030 H1016 0.930 . S
C1030 C1028 1.395 . S
C1030 C1033 1.403 . S
C1031 C1028 1.403 . S
C1031 C1032 1.524 . S
C1031 C1035 1.400 . S
C1032 H1017 0.960 . S
C1032 H1018 0.960 . S
C1032 H1019 0.960 . S
C1032 C1031 1.524 . S
C1033 C1030 1.403 . S
C1033 C1034 1.392 . S
C1033 C1037 1.495 . S
C1034 C1033 1.392 . S
C1034 C1035 1.385 . S
C1034 C1036 1.478 . S
C1035 H1029 0.930 . S
C1035 C1031 1.400 . S
C1035 C1034 1.385 . S
C1036 C1034 1.478 . S
C1036 C1038 1.406 . S
C1036 C1042 1.383 . S
C1037 C1033 1.495 . S
C1037 H1043 0.959 . S
C1037 H1044 0.961 . S
C1037 H1045 0.960 . S
C1038 C1036 1.406 . S
C1038 C1039 1.388 1_655 S
C1038 H1046 0.912 1_655 S
C1039 C1038 1.388 1_455 S
C1039 C1040 1.383 1_455 S
C1039 H1047 0.929 . S
C1040 C1039 1.383 1_655 S
C1040 C1041 1.377 . S
C1041 H1025 0.930 . S
C1041 C1040 1.377 . S
C1041 C1042 1.379 . S
C1042 H1026 0.931 . S
C1042 C1036 1.383 . S
C1042 C1041 1.379 . S
H1043 C1037 0.959 . S
H1044 C1037 0.961 . S
H1045 C1037 0.960 . S
H1046 C1038 0.912 1_455 S
H1047 C1039 0.929 . S
H1048 C1056 0.929 . S
H1049 C1058 0.930 . S
H1050 C1060 0.930 . S
H1051 C1063 0.929 . S
H1052 C1066 0.930 . S
H1053 C1068 0.960 . S
H1054 C1068 0.960 . S
H1055 C1068 0.960 . S
C1056 H1048 0.929 . S
C1056 C1057 1.377 . S
C1056 C1058 1.384 . S
C1057 C1056 1.377 . S
C1057 C1063 1.390 . S
C1058 H1049 0.930 . S
C1058 C1056 1.384 . S
C1058 C1059 1.372 . S
C1059 C1058 1.372 . S
C1059 C1060 1.400 . S
C1059 C1064 1.490 . S
C1060 H1050 0.930 . S
C1060 C1059 1.400 . S
C1060 C1063 1.386 . S
H1061 C1077 0.929 1_545 S
H1062 C1078 0.931 . S
C1063 H1051 0.929 . S
C1063 C1057 1.390 . S
C1063 C1060 1.386 . S
C1064 C1059 1.490 . S
C1064 C1066 1.395 . S
C1064 C1067 1.403 . S
H1065 C1071 0.930 . S
C1066 H1052 0.930 . S
C1066 C1064 1.395 . S
C1066 C1069 1.403 . S
C1067 C1064 1.403 . S
C1067 C1068 1.524 . S
C1067 C1071 1.400 . S
C1068 H1053 0.960 . S
C1068 H1054 0.960 . S
C1068 H1055 0.960 . S
C1068 C1067 1.524 . S
C1069 C1066 1.403 . S
C1069 C1070 1.392 . S
C1069 C1073 1.495 . S
C1070 C1069 1.392 . S
C1070 C1071 1.385 . S
C1070 C1072 1.478 . S
C1071 H1065 0.930 . S
C1071 C1067 1.400 . S
C1071 C1070 1.385 . S
C1072 C1070 1.478 . S
C1072 C1074 1.381 . S
C1072 C1078 1.383 . S
C1073 C1069 1.495 . S
C1073 H1079 0.959 . S
C1073 H1080 0.961 . S
C1073 H1081 0.960 . S
C1074 C1072 1.381 . S
C1074 C1075 1.394 1_565 S
C1074 H1082 0.930 . S
C1075 C1074 1.394 1_545 S
C1075 C1076 1.383 . S
C1075 H1083 0.929 . S
C1076 C1075 1.383 . S
C1076 C1077 1.377 1_545 S
C1077 H1061 0.929 1_565 S
C1077 C1076 1.377 1_565 S
C1077 C1078 1.379 . S
C1078 H1062 0.931 . S
C1078 C1072 1.383 . S
C1078 C1077 1.379 . S
H1079 C1073 0.959 . S
H1080 C1073 0.961 . S
H1081 C1073 0.960 . S
H1082 C1074 0.930 . S
H1083 C1075 0.929 . S
H1084 C1092 0.929 . S
H1085 C1094 0.930 . S
H1086 C1096 0.930 . S
H1087 C1099 0.929 . S
H1088 C1102 0.930 . S
H1089 C1104 0.960 . S
H1090 C1104 0.960 . S
H1091 C1104 0.960 . S
C1092 H1084 0.929 . S
C1092 C1093 1.377 . S
C1092 C1094 1.384 . S
C1093 C1092 1.377 . S
C1093 C1099 1.390 . S
C1094 H1085 0.930 . S
C1094 C1092 1.384 . S
C1094 C1095 1.372 . S
C1095 C1094 1.372 . S
C1095 C1096 1.400 . S
C1095 C1100 1.490 . S
C1096 H1086 0.930 . S
C1096 C1095 1.400 . S
C1096 C1099 1.386 . S
H1097 C1113 0.930 . S
H1098 C1114 0.931 . S
C1099 H1087 0.929 . S
C1099 C1093 1.390 . S
C1099 C1096 1.386 . S
C1100 C1095 1.490 . S
C1100 C1102 1.395 . S
C1100 C1103 1.403 . S
H1101 C1107 0.930 . S
C1102 H1088 0.930 . S
C1102 C1100 1.395 . S
C1102 C1105 1.403 . S
C1103 C1100 1.403 . S
C1103 C1104 1.524 . S
C1103 C1107 1.400 . S
C1104 H1089 0.960 . S
C1104 H1090 0.960 . S
C1104 H1091 0.960 . S
C1104 C1103 1.524 . S
C1105 C1102 1.403 . S
C1105 C1106 1.392 . S
C1105 C1109 1.495 . S
C1106 C1105 1.392 . S
C1106 C1107 1.385 . S
C1106 C1108 1.478 . S
C1107 H1101 0.930 . S
C1107 C1103 1.400 . S
C1107 C1106 1.385 . S
C1108 C1106 1.478 . S
C1108 C1110 1.381 . S
C1108 C1114 1.383 . S
C1109 C1105 1.495 . S
C1109 H1115 0.959 . S
C1109 H1116 0.961 . S
C1109 H1117 0.960 . S
C1110 C1108 1.381 . S
C1110 C1111 1.394 . S
C1110 H1118 0.930 . S
C1111 C1110 1.394 . S
C1111 C1112 1.383 . S
C1111 H1119 0.929 . S
C1112 C1111 1.383 . S
C1112 C1113 1.377 . S
C1113 H1097 0.930 . S
C1113 C1112 1.377 . S
C1113 C1114 1.379 . S
C1114 H1098 0.931 . S
C1114 C1108 1.383 . S
C1114 C1113 1.379 . S
H1115 C1109 0.959 . S
H1116 C1109 0.961 . S
H1117 C1109 0.960 . S
H1118 C1110 0.930 . S
H1119 C1111 0.929 . S
H1120 C1128 0.929 . S
H1121 C1130 0.930 . S
H1122 C1132 0.930 . S
H1123 C1135 0.929 . S
H1124 C1138 0.930 . S
H1125 C1140 0.960 1_554 S
H1126 C1140 0.960 . S
H1127 C1140 0.960 . S
C1128 H1120 0.929 . S
C1128 C1129 1.377 . S
C1128 C1130 1.384 . S
C1129 C1128 1.377 . S
C1129 C1135 1.390 . S
C1130 H1121 0.930 . S
C1130 C1128 1.384 . S
C1130 C1131 1.372 . S
C1131 C1130 1.372 . S
C1131 C1132 1.400 . S
C1131 C1136 1.490 . S
C1132 H1122 0.930 . S
C1132 C1131 1.400 . S
C1132 C1135 1.386 . S
H1133 C1149 0.930 . S
H1134 C1150 0.931 . S
C1135 H1123 0.929 . S
C1135 C1129 1.390 . S
C1135 C1132 1.386 . S
C1136 C1131 1.490 . S
C1136 C1138 1.395 . S
C1136 C1139 1.432 . S
H1137 C1143 0.930 . S
C1138 H1124 0.930 . S
C1138 C1136 1.395 . S
C1138 C1141 1.403 1_556 S
C1139 C1136 1.432 . S
C1139 C1140 1.541 . S
C1139 C1143 1.354 1_556 S
C1140 H1125 0.960 1_556 S
C1140 H1126 0.960 . S
C1140 H1127 0.960 . S
C1140 C1139 1.541 . S
C1141 C1138 1.403 1_554 S
C1141 C1142 1.392 . S
C1141 C1145 1.495 1_545 S
C1142 C1141 1.392 . S
C1142 C1143 1.385 . S
C1142 C1144 1.478 1_545 S
C1143 H1137 0.930 . S
C1143 C1139 1.354 1_554 S
C1143 C1142 1.385 . S
C1144 C1142 1.478 1_565 S
C1144 C1146 1.381 . S
C1144 C1150 1.383 1_565 S
C1145 C1141 1.495 1_565 S
C1145 H1151 0.959 . S
C1145 H1152 0.961 . S
C1145 H1153 0.960 . S
C1146 C1144 1.381 . S
C1146 C1147 1.394 . S
C1146 H1154 0.930 . S
C1147 C1146 1.394 . S
C1147 C1148 1.383 . S
C1147 H1155 0.929 . S
C1148 C1147 1.383 . S
C1148 C1149 1.377 . S
C1149 H1133 0.930 . S
C1149 C1148 1.377 . S
C1149 C1150 1.379 1_565 S
C1150 H1134 0.931 . S
C1150 C1144 1.383 1_545 S
C1150 C1149 1.379 1_545 S
H1151 C1145 0.959 . S
H1152 C1145 0.961 . S
H1153 C1145 0.960 . S
H1154 C1146 0.930 . S
H1155 C1147 0.929 . S
H1156 C1164 0.929 . S
H1157 C1166 0.930 . S
H1158 C1168 0.930 . S
H1159 C1171 0.929 . S
H1160 C1174 0.930 . S
H1161 C1176 0.960 . S
H1162 C1176 0.960 . S
H1163 C1176 0.960 . S
C1164 H1156 0.929 . S
C1164 C1165 1.377 . S
C1164 C1166 1.384 . S
C1165 C1164 1.377 . S
C1165 C1171 1.390 . S
C1166 H1157 0.930 . S
C1166 C1164 1.384 . S
C1166 C1167 1.372 . S
C1167 C1166 1.372 . S
C1167 C1168 1.400 . S
C1167 C1172 1.490 . S
C1168 H1158 0.930 . S
C1168 C1167 1.400 . S
C1168 C1171 1.386 . S
H1169 C1185 0.930 . S
H1170 C1186 0.931 . S
C1171 H1159 0.929 . S
C1171 C1165 1.390 . S
C1171 C1168 1.386 . S
C1172 C1167 1.490 . S
C1172 C1174 1.395 . S
C1172 C1175 1.403 . S
H1173 C1179 0.930 . S
C1174 H1160 0.930 . S
C1174 C1172 1.395 . S
C1174 C1177 1.403 . S
C1175 C1172 1.403 . S
C1175 C1176 1.524 . S
C1175 C1179 1.400 . S
C1176 H1161 0.960 . S
C1176 H1162 0.960 . S
C1176 H1163 0.960 . S
C1176 C1175 1.524 . S
C1177 C1174 1.403 . S
C1177 C1178 1.392 . S
C1177 C1181 1.495 . S
C1178 C1177 1.392 . S
C1178 C1179 1.385 . S
C1178 C1180 1.478 . S
C1179 H1173 0.930 . S
C1179 C1175 1.400 . S
C1179 C1178 1.385 . S
C1180 C1178 1.478 . S
C1180 C1182 1.381 . S
C1180 C1186 1.383 . S
C1181 C1177 1.495 . S
C1181 H1187 0.959 . S
C1181 H1188 0.961 . S
C1181 H1189 0.960 . S
C1182 C1180 1.381 . S
C1182 C1183 1.394 . S
C1182 H1190 0.930 . S
C1183 C1182 1.394 . S
C1183 C1184 1.383 . S
C1183 H1191 0.929 . S
C1184 C1183 1.383 . S
C1184 C1185 1.377 . S
C1185 H1169 0.930 . S
C1185 C1184 1.377 . S
C1185 C1186 1.379 . S
C1186 H1170 0.931 . S
C1186 C1180 1.383 . S
C1186 C1185 1.379 . S
H1187 C1181 0.959 . S
H1188 C1181 0.961 . S
H1189 C1181 0.960 . S
H1190 C1182 0.930 . S
H1191 C1183 0.929 . S
H1192 C1200 0.929 . S
H1193 C1202 0.930 . S
H1194 C1204 0.930 . S
H1195 C1207 0.929 . S
H1196 C1210 0.930 . S
H1197 C1212 0.960 . S
H1198 C1212 0.960 . S
H1199 C1212 0.961 . S
C1200 H1192 0.929 . S
C1200 C1201 1.377 . S
C1200 C1202 1.384 1_565 S
C1201 C1200 1.377 . S
C1201 C1207 1.390 . S
C1202 H1193 0.930 . S
C1202 C1200 1.384 1_545 S
C1202 C1203 1.372 . S
C1203 C1202 1.372 . S
C1203 C1204 1.400 1_545 S
C1203 C1208 1.490 . S
C1204 H1194 0.930 . S
C1204 C1203 1.400 1_565 S
C1204 C1207 1.386 . S
H1205 C1221 0.930 . S
H1206 C1222 0.931 . S
C1207 H1195 0.929 . S
C1207 C1201 1.390 . S
C1207 C1204 1.386 . S
C1208 C1203 1.490 . S
C1208 C1210 1.395 . S
C1208 C1211 1.403 . S
H1209 C1215 0.930 . S
C1210 H1196 0.930 . S
C1210 C1208 1.395 . S
C1210 C1213 1.403 . S
C1211 C1208 1.403 . S
C1211 C1212 1.524 . S
C1211 C1215 1.400 . S
C1212 H1197 0.960 . S
C1212 H1198 0.960 . S
C1212 H1199 0.961 . S
C1212 C1211 1.524 . S
C1213 C1210 1.403 . S
C1213 C1214 1.392 . S
C1213 C1217 1.495 . S
C1214 C1213 1.392 . S
C1214 C1215 1.385 . S
C1214 C1216 1.478 . S
C1215 H1209 0.930 . S
C1215 C1211 1.400 . S
C1215 C1214 1.385 . S
C1216 C1214 1.478 . S
C1216 C1218 1.381 . S
C1216 C1222 1.383 . S
C1217 C1213 1.495 . S
C1217 H1223 0.959 . S
C1217 H1224 0.961 . S
C1217 H1225 0.960 . S
C1218 C1216 1.381 . S
C1218 C1219 1.394 . S
C1218 H1226 0.930 . S
C1219 C1218 1.394 . S
C1219 C1220 1.383 . S
C1219 H1227 0.929 . S
C1220 C1219 1.383 . S
C1220 C1221 1.377 . S
C1221 H1205 0.930 . S
C1221 C1220 1.377 . S
C1221 C1222 1.379 . S
C1222 H1206 0.931 . S
C1222 C1216 1.383 . S
C1222 C1221 1.379 . S
H1223 C1217 0.959 . S
H1224 C1217 0.961 . S
H1225 C1217 0.960 . S
H1226 C1218 0.930 . S
H1227 C1219 0.929 . S
H1228 C1236 0.929 . S
H1229 C1238 0.930 . S
H1230 C1240 0.930 . S
H1231 C1243 0.929 . S
H1232 C1246 0.930 . S
H1233 C1248 0.960 . S
H1234 C1248 0.960 . S
H1235 C1248 0.960 . S
C1236 H1228 0.929 . S
C1236 C1237 1.377 . S
C1236 C1238 1.384 . S
C1237 C1236 1.377 . S
C1237 C1243 1.390 . S
C1238 H1229 0.930 . S
C1238 C1236 1.384 . S
C1238 C1239 1.372 . S
C1239 C1238 1.372 . S
C1239 C1240 1.400 . S
C1239 C1244 1.490 . S
C1240 H1230 0.930 . S
C1240 C1239 1.400 . S
C1240 C1243 1.386 . S
H1241 C1257 0.930 . S
H1242 C1258 0.931 . S
C1243 H1231 0.929 . S
C1243 C1237 1.390 . S
C1243 C1240 1.386 . S
C1244 C1239 1.490 . S
C1244 C1246 1.395 . S
C1244 C1247 1.403 . S
H1245 C1251 0.930 . S
C1246 H1232 0.930 . S
C1246 C1244 1.395 . S
C1246 C1249 1.403 . S
C1247 C1244 1.403 . S
C1247 C1248 1.524 . S
C1247 C1251 1.400 . S
C1248 H1233 0.960 . S
C1248 H1234 0.960 . S
C1248 H1235 0.960 . S
C1248 C1247 1.524 . S
C1249 C1246 1.403 . S
C1249 C1250 1.392 . S
C1249 C1253 1.495 . S
C1250 C1249 1.392 . S
C1250 C1251 1.385 . S
C1250 C1252 1.478 . S
C1251 H1245 0.930 . S
C1251 C1247 1.400 . S
C1251 C1250 1.385 . S
C1252 C1250 1.478 . S
C1252 C1254 1.381 . S
C1252 C1258 1.383 . S
C1253 C1249 1.495 . S
C1253 H1259 0.959 . S
C1253 H1260 0.961 . S
C1253 H1261 0.960 . S
C1254 C1252 1.381 . S
C1254 C1255 1.394 . S
C1254 H1262 0.930 . S
C1255 C1254 1.394 . S
C1255 C1256 1.383 . S
C1255 H1263 0.929 . S
C1256 C1255 1.383 . S
C1256 C1257 1.377 . S
C1257 H1241 0.930 . S
C1257 C1256 1.377 . S
C1257 C1258 1.379 . S
C1258 H1242 0.931 . S
C1258 C1252 1.383 . S
C1258 C1257 1.379 . S
H1259 C1253 0.959 . S
H1260 C1253 0.961 . S
H1261 C1253 0.960 . S
H1262 C1254 0.930 . S
H1263 C1255 0.929 . S
H1264 C1272 0.929 . S
H1265 C1274 0.930 . S
H1266 C1276 0.930 . S
H1267 C1279 0.929 . S
H1268 C1282 0.930 1_565 S
H1269 C1284 0.960 . S
H1270 C1284 0.960 . S
H1271 C1284 0.960 . S
C1272 H1264 0.929 . S
C1272 C1273 1.377 . S
C1272 C1274 1.384 . S
C1273 C1272 1.377 . S
C1273 C1279 1.390 . S
C1274 H1265 0.930 . S
C1274 C1272 1.384 . S
C1274 C1275 1.372 . S
C1275 C1274 1.372 . S
C1275 C1276 1.400 . S
C1275 C1280 1.490 1_565 S
C1276 H1266 0.930 . S
C1276 C1275 1.400 . S
C1276 C1279 1.386 . S
H1277 C1293 0.930 . S
H1278 C1294 0.931 . S
C1279 H1267 0.929 . S
C1279 C1273 1.390 . S
C1279 C1276 1.386 . S
C1280 C1275 1.490 1_545 S
C1280 C1282 1.395 . S
C1280 C1283 1.403 . S
H1281 C1287 0.930 . S
C1282 H1268 0.930 1_545 S
C1282 C1280 1.395 . S
C1282 C1285 1.403 . S
C1283 C1280 1.403 . S
C1283 C1284 1.524 . S
C1283 C1287 1.400 . S
C1284 H1269 0.960 . S
C1284 H1270 0.960 . S
C1284 H1271 0.960 . S
C1284 C1283 1.524 . S
C1285 C1282 1.403 . S
C1285 C1286 1.392 . S
C1285 C1289 1.495 . S
C1286 C1285 1.392 . S
C1286 C1287 1.385 . S
C1286 C1288 1.478 . S
C1287 H1281 0.930 . S
C1287 C1283 1.400 . S
C1287 C1286 1.385 . S
C1288 C1286 1.478 . S
C1288 C1290 1.381 . S
C1288 C1294 1.383 . S
C1289 C1285 1.495 . S
C1289 H1295 0.959 . S
C1289 H1296 0.961 . S
C1289 H1297 0.960 . S
C1290 C1288 1.381 . S
C1290 C1291 1.394 . S
C1290 H1298 0.930 . S
C1291 C1290 1.394 . S
C1291 C1292 1.383 . S
C1291 H1299 0.929 . S
C1292 C1291 1.383 . S
C1292 C1293 1.377 . S
C1293 H1277 0.930 . S
C1293 C1292 1.377 . S
C1293 C1294 1.379 . S
C1294 H1278 0.931 . S
C1294 C1288 1.383 . S
C1294 C1293 1.379 . S
H1295 C1289 0.959 . S
H1296 C1289 0.961 . S
H1297 C1289 0.960 . S
H1298 C1290 0.930 . S
H1299 C1291 0.929 . S
H1300 C1308 0.929 . S
H1301 C1310 0.930 . S
H1302 C1312 0.930 . S
H1303 C1315 0.929 . S
H1304 C1318 0.930 . S
H1305 C1320 0.960 . S
H1306 C1320 0.960 . S
H1307 C1320 0.960 . S
C1308 H1300 0.929 . S
C1308 C1309 1.377 . S
C1308 C1310 1.384 . S
C1309 C1308 1.377 . S
C1309 C1315 1.390 . S
C1310 H1301 0.930 . S
C1310 C1308 1.384 . S
C1310 C1311 1.372 . S
C1311 C1310 1.372 . S
C1311 C1312 1.400 . S
C1311 C1316 1.490 . S
C1312 H1302 0.930 . S
C1312 C1311 1.400 . S
C1312 C1315 1.386 . S
H1313 C1329 0.930 . S
H1314 C1330 0.931 . S
C1315 H1303 0.929 . S
C1315 C1309 1.390 . S
C1315 C1312 1.386 . S
C1316 C1311 1.490 . S
C1316 C1318 1.395 . S
C1316 C1319 1.403 . S
H1317 C1323 0.930 . S
C1318 H1304 0.930 . S
C1318 C1316 1.395 . S
C1318 C1321 1.403 . S
C1319 C1316 1.403 . S
C1319 C1320 1.524 . S
C1319 C1323 1.400 . S
C1320 H1305 0.960 . S
C1320 H1306 0.960 . S
C1320 H1307 0.960 . S
C1320 C1319 1.524 . S
C1321 C1318 1.403 . S
C1321 C1322 1.392 . S
C1321 C1325 1.495 . S
C1322 C1321 1.392 . S
C1322 C1323 1.385 . S
C1322 C1324 1.478 . S
C1323 H1317 0.930 . S
C1323 C1319 1.400 . S
C1323 C1322 1.385 . S
C1324 C1322 1.478 . S
C1324 C1326 1.381 . S
C1324 C1330 1.383 . S
C1325 C1321 1.495 . S
C1325 H1331 0.959 . S
C1325 H1332 0.961 . S
C1325 H1333 0.960 . S
C1326 C1324 1.381 . S
C1326 C1327 1.394 . S
C1326 H1334 0.930 . S
C1327 C1326 1.394 . S
C1327 C1328 1.383 . S
C1327 H1335 0.929 . S
C1328 C1327 1.383 . S
C1328 C1329 1.377 . S
C1329 H1313 0.930 . S
C1329 C1328 1.377 . S
C1329 C1330 1.379 . S
C1330 H1314 0.931 . S
C1330 C1324 1.383 . S
C1330 C1329 1.379 . S
H1331 C1325 0.959 . S
H1332 C1325 0.961 . S
H1333 C1325 0.960 . S
H1334 C1326 0.930 . S
H1335 C1327 0.929 . S
H1336 C1344 0.929 . S
H1337 C1346 0.930 . S
H1338 C1348 0.930 . S
H1339 C1351 0.929 . S
H1340 C1354 0.930 . S
H1341 C1356 0.960 . S
H1342 C1356 0.960 . S
H1343 C1356 0.960 . S
C1344 H1336 0.929 . S
C1344 C1345 1.377 . S
C1344 C1346 1.384 . S
C1345 C1344 1.377 . S
C1345 C1351 1.390 . S
C1346 H1337 0.930 . S
C1346 C1344 1.384 . S
C1346 C1347 1.372 . S
C1347 C1346 1.372 . S
C1347 C1348 1.400 . S
C1347 C1352 1.490 . S
C1348 H1338 0.930 . S
C1348 C1347 1.400 . S
C1348 C1351 1.386 . S
H1349 C1365 0.930 . S
H1350 C1366 0.931 . S
C1351 H1339 0.929 . S
C1351 C1345 1.390 . S
C1351 C1348 1.386 . S
C1352 C1347 1.490 . S
C1352 C1354 1.395 . S
C1352 C1355 1.403 . S
H1353 C1359 0.930 . S
C1354 H1340 0.930 . S
C1354 C1352 1.395 . S
C1354 C1357 1.403 . S
C1355 C1352 1.403 . S
C1355 C1356 1.524 . S
C1355 C1359 1.400 . S
C1356 H1341 0.960 . S
C1356 H1342 0.960 . S
C1356 H1343 0.960 . S
C1356 C1355 1.524 . S
C1357 C1354 1.403 . S
C1357 C1358 1.392 . S
C1357 C1361 1.495 . S
C1358 C1357 1.392 . S
C1358 C1359 1.385 . S
C1358 C1360 1.478 . S
C1359 H1353 0.930 . S
C1359 C1355 1.400 . S
C1359 C1358 1.385 . S
C1360 C1358 1.478 . S
C1360 C1362 1.381 . S
C1360 C1366 1.383 . S
C1361 C1357 1.495 . S
C1361 H1367 0.959 . S
C1361 H1368 0.961 . S
C1361 H1369 0.960 . S
C1362 C1360 1.381 . S
C1362 C1363 1.394 . S
C1362 H1370 0.930 . S
C1363 C1362 1.394 . S
C1363 C1364 1.383 . S
C1363 H1371 0.929 . S
C1364 C1363 1.383 . S
C1364 C1365 1.377 . S
C1365 H1349 0.930 . S
C1365 C1364 1.377 . S
C1365 C1366 1.379 . S
C1366 H1350 0.931 . S
C1366 C1360 1.383 . S
C1366 C1365 1.379 . S
H1367 C1361 0.959 . S
H1368 C1361 0.961 . S
H1369 C1361 0.960 . S
H1370 C1362 0.930 . S
H1371 C1363 0.929 . S
H1372 C1380 0.929 . S
H1373 C1382 0.930 . S
H1374 C1384 0.930 . S
H1375 C1387 0.929 . S
H1376 C1390 0.930 . S
H1377 C1392 0.960 . S
H1378 C1392 0.960 . S
H1379 C1392 0.960 . S
C1380 H1372 0.929 . S
C1380 C1381 1.377 . S
C1380 C1382 1.384 . S
C1381 C1380 1.377 . S
C1381 C1387 1.390 . S
C1382 H1373 0.930 . S
C1382 C1380 1.384 . S
C1382 C1383 1.372 . S
C1383 C1382 1.372 . S
C1383 C1384 1.400 . S
C1383 C1388 1.490 . S
C1384 H1374 0.930 . S
C1384 C1383 1.400 . S
C1384 C1387 1.386 . S
H1385 C1401 0.930 . S
H1386 C1402 0.931 . S
C1387 H1375 0.929 . S
C1387 C1381 1.390 . S
C1387 C1384 1.386 . S
C1388 C1383 1.490 . S
C1388 C1390 1.395 . S
C1388 C1391 1.403 . S
H1389 C1395 0.930 . S
C1390 H1376 0.930 . S
C1390 C1388 1.395 . S
C1390 C1393 1.403 . S
C1391 C1388 1.403 . S
C1391 C1392 1.524 . S
C1391 C1395 1.400 . S
C1392 H1377 0.960 . S
C1392 H1378 0.960 . S
C1392 H1379 0.960 . S
C1392 C1391 1.524 . S
C1393 C1390 1.403 . S
C1393 C1394 1.392 . S
C1393 C1397 1.495 . S
C1394 C1393 1.392 . S
C1394 C1395 1.385 . S
C1394 C1396 1.478 . S
C1395 H1389 0.930 . S
C1395 C1391 1.400 . S
C1395 C1394 1.385 . S
C1396 C1394 1.478 . S
C1396 C1398 1.381 . S
C1396 C1402 1.383 . S
C1397 C1393 1.495 . S
C1397 H1403 0.959 . S
C1397 H1404 0.961 . S
C1397 H1405 0.960 . S
C1398 C1396 1.381 . S
C1398 C1399 1.394 . S
C1398 H1406 0.930 . S
C1399 C1398 1.394 . S
C1399 C1400 1.383 . S
C1399 H1407 0.929 . S
C1400 C1399 1.383 . S
C1400 C1401 1.377 . S
C1401 H1385 0.930 . S
C1401 C1400 1.377 . S
C1401 C1402 1.379 . S
C1402 H1386 0.931 . S
C1402 C1396 1.383 . S
C1402 C1401 1.379 . S
H1403 C1397 0.959 . S
H1404 C1397 0.961 . S
H1405 C1397 0.960 . S
H1406 C1398 0.930 . S
H1407 C1399 0.929 . S
H1408 C1416 0.929 . S
H1409 C1418 0.930 . S
H1410 C1420 0.930 . S
H1411 C1423 0.929 . S
H1412 C1426 0.930 . S
H1413 C1428 0.960 . S
H1414 C1428 0.960 . S
H1415 C1428 0.960 . S
C1416 H1408 0.929 . S
C1416 C1417 1.377 . S
C1416 C1418 1.384 . S
C1417 C1416 1.377 . S
C1417 C1423 1.390 . S
C1418 H1409 0.930 . S
C1418 C1416 1.384 . S
C1418 C1419 1.372 . S
C1419 C1418 1.372 . S
C1419 C1420 1.400 . S
C1419 C1424 1.490 . S
C1420 H1410 0.930 . S
C1420 C1419 1.400 . S
C1420 C1423 1.386 . S
H1421 C1437 0.930 . S
H1422 C1438 0.931 . S
C1423 H1411 0.929 . S
C1423 C1417 1.390 . S
C1423 C1420 1.386 . S
C1424 C1419 1.490 . S
C1424 C1426 1.395 . S
C1424 C1427 1.403 . S
H1425 C1431 0.930 . S
C1426 H1412 0.930 . S
C1426 C1424 1.395 . S
C1426 C1429 1.403 . S
C1427 C1424 1.403 . S
C1427 C1428 1.524 . S
C1427 C1431 1.400 . S
C1428 H1413 0.960 . S
C1428 H1414 0.960 . S
C1428 H1415 0.960 . S
C1428 C1427 1.524 . S
C1429 C1426 1.403 . S
C1429 C1430 1.392 . S
C1429 C1433 1.495 . S
C1430 C1429 1.392 . S
C1430 C1431 1.385 . S
C1430 C1432 1.478 . S
C1431 H1425 0.930 . S
C1431 C1427 1.400 . S
C1431 C1430 1.385 . S
C1432 C1430 1.478 . S
C1432 C1434 1.381 . S
C1432 C1438 1.383 . S
C1433 C1429 1.495 . S
C1433 H1439 0.959 . S
C1433 H1440 0.961 . S
C1433 H1441 0.960 . S
C1434 C1432 1.381 . S
C1434 C1435 1.394 . S
C1434 H1442 0.930 . S
C1435 C1434 1.394 . S
C1435 C1436 1.383 . S
C1435 H1443 0.929 . S
C1436 C1435 1.383 . S
C1436 C1437 1.377 . S
C1437 H1421 0.930 . S
C1437 C1436 1.377 . S
C1437 C1438 1.379 . S
C1438 H1422 0.931 . S
C1438 C1432 1.383 . S
C1438 C1437 1.379 . S
H1439 C1433 0.959 . S
H1440 C1433 0.961 . S
H1441 C1433 0.960 . S
H1442 C1434 0.930 . S
H1443 C1435 0.929 . S
H1444 C1452 0.929 . S
H1445 C1454 0.930 . S
H1446 C1456 0.930 . S
H1447 C1459 0.929 . S
H1448 C1462 0.930 . S
H1449 C1464 0.960 . S
H1450 C1464 0.960 . S
H1451 C1464 0.960 . S
C1452 H1444 0.929 . S
C1452 C1453 1.377 . S
C1452 C1454 1.384 . S
C1453 C1452 1.377 . S
C1453 C1459 1.390 . S
C1454 H1445 0.930 . S
C1454 C1452 1.384 . S
C1454 C1455 1.372 . S
C1455 C1454 1.372 . S
C1455 C1456 1.400 . S
C1455 C1460 1.490 . S
C1456 H1446 0.930 . S
C1456 C1455 1.400 . S
C1456 C1459 1.386 . S
H1457 C1473 0.930 . S
H1458 C1474 0.931 . S
C1459 H1447 0.929 . S
C1459 C1453 1.390 . S
C1459 C1456 1.386 . S
C1460 C1455 1.490 . S
C1460 C1462 1.395 . S
C1460 C1463 1.403 . S
H1461 C1467 0.930 . S
C1462 H1448 0.930 . S
C1462 C1460 1.395 . S
C1462 C1465 1.403 . S
C1463 C1460 1.403 . S
C1463 C1464 1.524 . S
C1463 C1467 1.400 . S
C1464 H1449 0.960 . S
C1464 H1450 0.960 . S
C1464 H1451 0.960 . S
C1464 C1463 1.524 . S
C1465 C1462 1.403 . S
C1465 C1466 1.392 . S
C1465 C1469 1.495 . S
C1466 C1465 1.392 . S
C1466 C1467 1.385 . S
C1466 C1468 1.478 . S
C1467 H1461 0.930 . S
C1467 C1463 1.400 . S
C1467 C1466 1.385 . S
C1468 C1466 1.478 . S
C1468 C1470 1.381 . S
C1468 C1474 1.383 . S
C1469 C1465 1.495 . S
C1469 H1475 0.959 . S
C1469 H1476 0.961 . S
C1469 H1477 0.960 . S
C1470 C1468 1.381 . S
C1470 C1471 1.394 . S
C1470 H1478 0.930 . S
C1471 C1470 1.394 . S
C1471 C1472 1.383 . S
C1471 H1479 0.929 . S
C1472 C1471 1.383 . S
C1472 C1473 1.377 . S
C1473 H1457 0.930 . S
C1473 C1472 1.377 . S
C1473 C1474 1.379 . S
C1474 H1458 0.931 . S
C1474 C1468 1.383 . S
C1474 C1473 1.379 . S
H1475 C1469 0.959 . S
H1476 C1469 0.961 . S
H1477 C1469 0.960 . S
H1478 C1470 0.930 . S
H1479 C1471 0.929 . S
H1480 C1488 0.929 . S
H1481 C1490 0.930 . S
H1482 C1492 0.930 . S
H1483 C1495 0.929 . S
H1484 C1498 0.930 . S
H1485 C1500 0.960 . S
H1486 C1500 0.960 . S
H1487 C1500 0.960 . S
C1488 H1480 0.929 . S
C1488 C1489 1.377 . S
C1488 C1490 1.384 . S
C1489 C1488 1.377 . S
C1489 C1495 1.390 . S
C1490 H1481 0.930 . S
C1490 C1488 1.384 . S
C1490 C1491 1.372 . S
C1491 C1490 1.372 . S
C1491 C1492 1.400 . S
C1491 C1496 1.490 . S
C1492 H1482 0.930 . S
C1492 C1491 1.400 . S
C1492 C1495 1.386 . S
H1493 C1509 0.930 . S
H1494 C1510 0.931 . S
C1495 H1483 0.929 . S
C1495 C1489 1.390 . S
C1495 C1492 1.386 . S
C1496 C1491 1.490 . S
C1496 C1498 1.395 . S
C1496 C1499 1.403 . S
H1497 C1503 0.930 . S
C1498 H1484 0.930 . S
C1498 C1496 1.395 . S
C1498 C1501 1.403 . S
C1499 C1496 1.403 . S
C1499 C1500 1.524 . S
C1499 C1503 1.400 . S
C1500 H1485 0.960 . S
C1500 H1486 0.960 . S
C1500 H1487 0.960 . S
C1500 C1499 1.524 . S
C1501 C1498 1.403 . S
C1501 C1502 1.392 . S
C1501 C1505 1.495 . S
C1502 C1501 1.392 . S
C1502 C1503 1.385 . S
C1502 C1504 1.478 . S
C1503 H1497 0.930 . S
C1503 C1499 1.400 . S
C1503 C1502 1.385 . S
C1504 C1502 1.478 . S
C1504 C1506 1.381 . S
C1504 C1510 1.383 . S
C1505 C1501 1.495 . S
C1505 H1511 0.959 . S
C1505 H1512 0.961 . S
C1505 H1513 0.960 . S
C1506 C1504 1.381 . S
C1506 C1507 1.394 . S
C1506 H1514 0.930 . S
C1507 C1506 1.394 . S
C1507 C1508 1.383 . S
C1507 H1515 0.929 . S
C1508 C1507 1.383 . S
C1508 C1509 1.377 . S
C1509 H1493 0.930 . S
C1509 C1508 1.377 . S
C1509 C1510 1.379 . S
C1510 H1494 0.931 . S
C1510 C1504 1.383 . S
C1510 C1509 1.379 . S
H1511 C1505 0.959 . S
H1512 C1505 0.961 . S
H1513 C1505 0.960 . S
H1514 C1506 0.930 . S
H1515 C1507 0.929 . S
H1516 C1524 0.929 . S
H1517 C1526 0.930 . S
H1518 C1528 0.930 . S
H1519 C1531 0.929 . S
H1520 C1534 0.930 . S
H1521 C1536 0.960 . S
H1522 C1536 0.960 . S
H1523 C1536 0.960 . S
C1524 H1516 0.929 . S
C1524 C1525 1.377 . S
C1524 C1526 1.384 . S
C1525 C1524 1.377 . S
C1525 C1531 1.390 . S
C1526 H1517 0.930 . S
C1526 C1524 1.384 . S
C1526 C1527 1.372 . S
C1527 C1526 1.372 . S
C1527 C1528 1.400 . S
C1527 C1532 1.490 . S
C1528 H1518 0.930 . S
C1528 C1527 1.400 . S
C1528 C1531 1.386 . S
H1529 C1545 0.930 . S
H1530 C1546 0.931 . S
C1531 H1519 0.929 . S
C1531 C1525 1.390 . S
C1531 C1528 1.386 . S
C1532 C1527 1.490 . S
C1532 C1534 1.395 . S
C1532 C1535 1.403 . S
H1533 C1539 0.930 . S
C1534 H1520 0.930 . S
C1534 C1532 1.395 . S
C1534 C1537 1.403 . S
C1535 C1532 1.403 . S
C1535 C1536 1.524 . S
C1535 C1539 1.400 . S
C1536 H1521 0.960 . S
C1536 H1522 0.960 . S
C1536 H1523 0.960 . S
C1536 C1535 1.524 . S
C1537 C1534 1.403 . S
C1537 C1538 1.392 . S
C1537 C1541 1.495 . S
C1538 C1537 1.392 . S
C1538 C1539 1.385 . S
C1538 C1540 1.478 . S
C1539 H1533 0.930 . S
C1539 C1535 1.400 . S
C1539 C1538 1.385 . S
C1540 C1538 1.478 . S
C1540 C1542 1.381 . S
C1540 C1546 1.383 . S
C1541 C1537 1.495 . S
C1541 H1547 0.959 . S
C1541 H1548 0.961 . S
C1541 H1549 0.960 . S
C1542 C1540 1.381 . S
C1542 C1543 1.394 . S
C1542 H1550 0.930 . S
C1543 C1542 1.394 . S
C1543 C1544 1.383 . S
C1543 H1551 0.929 . S
C1544 C1543 1.383 . S
C1544 C1545 1.377 . S
C1545 H1529 0.930 . S
C1545 C1544 1.377 . S
C1545 C1546 1.379 . S
C1546 H1530 0.931 . S
C1546 C1540 1.383 . S
C1546 C1545 1.379 . S
H1547 C1541 0.959 . S
H1548 C1541 0.961 . S
H1549 C1541 0.960 . S
H1550 C1542 0.930 . S
H1551 C1543 0.929 . S
H1552 C1560 0.929 . S
H1553 C1562 0.930 . S
H1554 C1564 0.930 . S
H1555 C1567 0.929 . S
H1556 C1570 0.930 . S
H1557 C1572 0.960 . S
H1558 C1572 0.960 . S
H1559 C1572 0.960 . S
C1560 H1552 0.929 . S
C1560 C1561 1.377 . S
C1560 C1562 1.384 . S
C1561 C1560 1.377 . S
C1561 C1567 1.390 . S
C1562 H1553 0.930 . S
C1562 C1560 1.384 . S
C1562 C1563 1.372 . S
C1563 C1562 1.372 . S
C1563 C1564 1.400 . S
C1563 C1568 1.490 . S
C1564 H1554 0.930 . S
C1564 C1563 1.400 . S
C1564 C1567 1.386 . S
H1565 C1581 0.930 . S
H1566 C1582 0.931 . S
C1567 H1555 0.929 . S
C1567 C1561 1.390 . S
C1567 C1564 1.386 . S
C1568 C1563 1.490 . S
C1568 C1570 1.395 . S
C1568 C1571 1.403 . S
H1569 C1575 0.930 . S
C1570 H1556 0.930 . S
C1570 C1568 1.395 . S
C1570 C1573 1.403 . S
C1571 C1568 1.403 . S
C1571 C1572 1.524 . S
C1571 C1575 1.400 . S
C1572 H1557 0.960 . S
C1572 H1558 0.960 . S
C1572 H1559 0.960 . S
C1572 C1571 1.524 . S
C1573 C1570 1.403 . S
C1573 C1574 1.392 . S
C1573 C1577 1.495 . S
C1574 C1573 1.392 . S
C1574 C1575 1.385 . S
C1574 C1576 1.478 . S
C1575 H1569 0.930 . S
C1575 C1571 1.400 . S
C1575 C1574 1.385 . S
C1576 C1574 1.478 . S
C1576 C1578 1.381 . S
C1576 C1582 1.383 . S
C1577 C1573 1.495 . S
C1577 H1583 0.959 . S
C1577 H1584 0.961 . S
C1577 H1585 0.960 . S
C1578 C1576 1.381 . S
C1578 C1579 1.394 . S
C1578 H1586 0.930 . S
C1579 C1578 1.394 . S
C1579 C1580 1.383 . S
C1579 H1587 0.929 . S
C1580 C1579 1.383 . S
C1580 C1581 1.377 . S
C1581 H1565 0.930 . S
C1581 C1580 1.377 . S
C1581 C1582 1.379 . S
C1582 H1566 0.931 . S
C1582 C1576 1.383 . S
C1582 C1581 1.379 . S
H1583 C1577 0.959 . S
H1584 C1577 0.961 . S
H1585 C1577 0.960 . S
H1586 C1578 0.930 . S
H1587 C1579 0.929 . S
H1588 C1596 0.929 . S
H1589 C1598 0.930 . S
H1590 C1600 0.930 . S
H1591 C1603 0.929 . S
H1592 C1606 0.925 1_455 S
H1593 C1608 0.960 . S
H1594 C1608 0.960 . S
H1595 C1608 0.960 . S
C1596 H1588 0.929 . S
C1596 C1597 1.377 . S
C1596 C1598 1.384 . S
C1597 C1596 1.377 . S
C1597 C1603 1.390 . S
C1598 H1589 0.930 . S
C1598 C1596 1.384 . S
C1598 C1599 1.372 . S
C1599 C1598 1.372 . S
C1599 C1600 1.400 . S
C1599 C1604 1.490 . S
C1600 H1590 0.930 . S
C1600 C1599 1.400 . S
C1600 C1603 1.386 . S
H1601 C1617 0.930 . S
H1602 C1618 0.931 . S
C1603 H1591 0.929 . S
C1603 C1597 1.390 . S
C1603 C1600 1.386 . S
C1604 C1599 1.490 . S
C1604 C1606 1.417 . S
C1604 C1607 1.403 . S
H1605 C1611 0.930 . S
C1606 H1592 0.925 1_655 S
C1606 C1604 1.417 . S
C1606 C1609 1.387 1_655 S
C1607 C1604 1.403 . S
C1607 C1608 1.524 . S
C1607 C1611 1.400 . S
C1608 H1593 0.960 . S
C1608 H1594 0.960 . S
C1608 H1595 0.960 . S
C1608 C1607 1.524 . S
C1609 C1606 1.387 1_455 S
C1609 C1610 1.392 . S
C1609 C1613 1.495 . S
C1610 C1609 1.392 . S
C1610 C1611 1.385 1_455 S
C1610 C1612 1.478 . S
C1611 H1605 0.930 . S
C1611 C1607 1.400 . S
C1611 C1610 1.385 1_655 S
C1612 C1610 1.478 . S
C1612 C1614 1.381 . S
C1612 C1618 1.383 . S
C1613 C1609 1.495 . S
C1613 H1619 0.959 . S
C1613 H1620 0.961 . S
C1613 H1621 0.960 . S
C1614 C1612 1.381 . S
C1614 C1615 1.394 . S
C1614 H1622 0.930 . S
C1615 C1614 1.394 . S
C1615 C1616 1.383 . S
C1615 H1623 0.929 . S
C1616 C1615 1.383 . S
C1616 C1617 1.377 . S
C1617 H1601 0.930 . S
C1617 C1616 1.377 . S
C1617 C1618 1.379 . S
C1618 H1602 0.931 . S
C1618 C1612 1.383 . S
C1618 C1617 1.379 . S
H1619 C1613 0.959 . S
H1620 C1613 0.961 . S
H1621 C1613 0.960 . S
H1622 C1614 0.930 . S
H1623 C1615 0.929 . S
H1624 C1632 0.929 . S
H1625 C1634 0.930 . S
H1626 C1636 0.930 . S
H1627 C1639 0.929 . S
H1628 C1642 0.930 . S
H1629 C1644 0.960 . S
H1630 C1644 0.960 . S
H1631 C1644 0.960 . S
C1632 H1624 0.929 . S
C1632 C1633 1.377 . S
C1632 C1634 1.384 . S
C1633 C1632 1.377 . S
C1633 C1639 1.390 . S
C1634 H1625 0.930 . S
C1634 C1632 1.384 . S
C1634 C1635 1.372 . S
C1635 C1634 1.372 . S
C1635 C1636 1.400 . S
C1635 C1640 1.490 . S
C1636 H1626 0.930 . S
C1636 C1635 1.400 . S
C1636 C1639 1.386 . S
H1637 C1653 0.930 . S
H1638 C1654 0.931 . S
C1639 H1627 0.929 . S
C1639 C1633 1.390 . S
C1639 C1636 1.386 . S
C1640 C1635 1.490 . S
C1640 C1642 1.395 . S
C1640 C1643 1.403 . S
H1641 C1647 0.930 . S
C1642 H1628 0.930 . S
C1642 C1640 1.395 . S
C1642 C1645 1.403 . S
C1643 C1640 1.403 . S
C1643 C1644 1.524 . S
C1643 C1647 1.400 . S
C1644 H1629 0.960 . S
C1644 H1630 0.960 . S
C1644 H1631 0.960 . S
C1644 C1643 1.524 . S
C1645 C1642 1.403 . S
C1645 C1646 1.392 . S
C1645 C1649 1.495 . S
C1646 C1645 1.392 . S
C1646 C1647 1.385 . S
C1646 C1648 1.478 . S
C1647 H1641 0.930 . S
C1647 C1643 1.400 . S
C1647 C1646 1.385 . S
C1648 C1646 1.478 . S
C1648 C1650 1.381 . S
C1648 C1654 1.383 . S
C1649 C1645 1.495 . S
C1649 H1655 0.959 . S
C1649 H1656 0.961 . S
C1649 H1657 0.960 . S
C1650 C1648 1.381 . S
C1650 C1651 1.394 . S
C1650 H1658 0.930 . S
C1651 C1650 1.394 . S
C1651 C1652 1.383 . S
C1651 H1659 0.929 . S
C1652 C1651 1.383 . S
C1652 C1653 1.377 . S
C1653 H1637 0.930 . S
C1653 C1652 1.377 . S
C1653 C1654 1.379 . S
C1654 H1638 0.931 . S
C1654 C1648 1.383 . S
C1654 C1653 1.379 . S
H1655 C1649 0.959 . S
H1656 C1649 0.961 . S
H1657 C1649 0.960 . S
H1658 C1650 0.930 . S
H1659 C1651 0.929 . S
H1660 C1668 0.929 . S
H1661 C1670 0.930 . S
H1662 C1672 0.930 . S
H1663 C1675 0.929 . S
H1664 C1678 0.930 . S
H1665 C1680 0.960 . S
H1666 C1680 0.960 . S
H1667 C1680 0.960 . S
C1668 H1660 0.929 . S
C1668 C1669 1.377 . S
C1668 C1670 1.384 1_554 S
C1669 C1668 1.377 . S
C1669 C1675 1.390 1_554 S
C1670 H1661 0.930 . S
C1670 C1668 1.384 1_556 S
C1670 C1671 1.372 . S
C1671 C1670 1.372 . S
C1671 C1672 1.400 . S
C1671 C1676 1.490 . S
C1672 H1662 0.930 . S
C1672 C1671 1.400 . S
C1672 C1675 1.386 . S
H1673 C1689 0.930 . S
H1674 C1690 0.931 . S
C1675 H1663 0.929 . S
C1675 C1669 1.390 1_556 S
C1675 C1672 1.386 . S
C1676 C1671 1.490 . S
C1676 C1678 1.395 . S
C1676 C1679 1.403 . S
H1677 C1683 0.930 . S
C1678 H1664 0.930 . S
C1678 C1676 1.395 . S
C1678 C1681 1.403 . S
C1679 C1676 1.403 . S
C1679 C1680 1.524 . S
C1679 C1683 1.400 . S
C1680 H1665 0.960 . S
C1680 H1666 0.960 . S
C1680 H1667 0.960 . S
C1680 C1679 1.524 . S
C1681 C1678 1.403 . S
C1681 C1682 1.392 . S
C1681 C1685 1.495 . S
C1682 C1681 1.392 . S
C1682 C1683 1.385 . S
C1682 C1684 1.478 . S
C1683 H1677 0.930 . S
C1683 C1679 1.400 . S
C1683 C1682 1.385 . S
C1684 C1682 1.478 . S
C1684 C1686 1.381 . S
C1684 C1690 1.383 . S
C1685 C1681 1.495 . S
C1685 H1691 0.959 . S
C1685 H1692 0.961 . S
C1685 H1693 0.960 . S
C1686 C1684 1.381 . S
C1686 C1687 1.394 . S
C1686 H1694 0.930 . S
C1687 C1686 1.394 . S
C1687 C1688 1.383 . S
C1687 H1695 0.929 . S
C1688 C1687 1.383 . S
C1688 C1689 1.377 . S
C1689 H1673 0.930 . S
C1689 C1688 1.377 . S
C1689 C1690 1.379 . S
C1690 H1674 0.931 . S
C1690 C1684 1.383 . S
C1690 C1689 1.379 . S
H1691 C1685 0.959 . S
H1692 C1685 0.961 . S
H1693 C1685 0.960 . S
H1694 C1686 0.930 . S
H1695 C1687 0.929 . S
H1696 C1704 0.929 . S
H1697 C1706 0.930 . S
H1698 C1708 0.930 . S
H1699 C1711 0.929 . S
H1700 C1714 0.930 . S
H1701 C1716 0.960 . S
H1702 C1716 0.960 . S
H1703 C1716 0.960 . S
C1704 H1696 0.929 . S
C1704 C1705 1.377 . S
C1704 C1706 1.384 . S
C1705 C1704 1.377 . S
C1705 C1711 1.390 . S
C1706 H1697 0.930 . S
C1706 C1704 1.384 . S
C1706 C1707 1.372 . S
C1707 C1706 1.372 . S
C1707 C1708 1.400 . S
C1707 C1712 1.490 . S
C1708 H1698 0.930 . S
C1708 C1707 1.400 . S
C1708 C1711 1.386 . S
H1709 C1725 0.930 . S
H1710 C1726 0.931 . S
C1711 H1699 0.929 . S
C1711 C1705 1.390 . S
C1711 C1708 1.386 . S
C1712 C1707 1.490 . S
C1712 C1714 1.395 . S
C1712 C1715 1.403 . S
H1713 C1719 0.930 . S
C1714 H1700 0.930 . S
C1714 C1712 1.395 . S
C1714 C1717 1.403 . S
C1715 C1712 1.403 . S
C1715 C1716 1.524 . S
C1715 C1719 1.400 . S
C1716 H1701 0.960 . S
C1716 H1702 0.960 . S
C1716 H1703 0.960 . S
C1716 C1715 1.524 . S
C1717 C1714 1.403 . S
C1717 C1718 1.392 . S
C1717 C1721 1.495 . S
C1718 C1717 1.392 . S
C1718 C1719 1.385 . S
C1718 C1720 1.478 . S
C1719 H1713 0.930 . S
C1719 C1715 1.400 . S
C1719 C1718 1.385 . S
C1720 C1718 1.478 . S
C1720 C1722 1.381 . S
C1720 C1726 1.383 . S
C1721 C1717 1.495 . S
C1721 H1727 0.959 . S
C1721 H1728 0.961 . S
C1721 H1729 0.960 . S
C1722 C1720 1.381 . S
C1722 C1723 1.394 . S
C1722 H1730 0.930 . S
C1723 C1722 1.394 . S
C1723 C1724 1.383 . S
C1723 H1731 0.929 . S
C1724 C1723 1.383 . S
C1724 C1725 1.377 . S
C1725 H1709 0.930 . S
C1725 C1724 1.377 . S
C1725 C1726 1.379 . S
C1726 H1710 0.931 . S
C1726 C1720 1.383 . S
C1726 C1725 1.379 . S
H1727 C1721 0.959 . S
H1728 C1721 0.961 . S
H1729 C1721 0.960 . S
H1730 C1722 0.930 . S
H1731 C1723 0.929 . S
H1732 C1740 0.929 . S
H1733 C1742 0.930 . S
H1734 C1744 0.930 . S
H1735 C1747 0.929 . S
H1736 C1750 0.930 . S
H1737 C1752 0.960 . S
H1738 C1752 0.960 . S
H1739 C1752 0.960 . S
C1740 H1732 0.929 . S
C1740 C1741 1.377 . S
C1740 C1742 1.384 . S
C1741 C1740 1.377 . S
C1741 C1747 1.390 . S
C1742 H1733 0.930 . S
C1742 C1740 1.384 . S
C1742 C1743 1.372 . S
C1743 C1742 1.372 . S
C1743 C1744 1.400 . S
C1743 C1748 1.490 . S
C1744 H1734 0.930 . S
C1744 C1743 1.400 . S
C1744 C1747 1.386 . S
H1745 C1761 0.930 . S
H1746 C1762 0.931 . S
C1747 H1735 0.929 . S
C1747 C1741 1.390 . S
C1747 C1744 1.386 . S
C1748 C1743 1.490 . S
C1748 C1750 1.395 . S
C1748 C1751 1.403 1_554 S
H1749 C1755 0.930 . S
C1750 H1736 0.930 . S
C1750 C1748 1.395 . S
C1750 C1753 1.403 1_554 S
C1751 C1748 1.403 1_556 S
C1751 C1752 1.524 . S
C1751 C1755 1.400 . S
C1752 H1737 0.960 . S
C1752 H1738 0.960 . S
C1752 H1739 0.960 . S
C1752 C1751 1.524 . S
C1753 C1750 1.403 1_556 S
C1753 C1754 1.392 . S
C1753 C1757 1.495 . S
C1754 C1753 1.392 . S
C1754 C1755 1.385 . S
C1754 C1756 1.478 . S
C1755 H1749 0.930 . S
C1755 C1751 1.400 . S
C1755 C1754 1.385 . S
C1756 C1754 1.478 . S
C1756 C1758 1.381 . S
C1756 C1762 1.383 . S
C1757 C1753 1.495 . S
C1757 H1763 0.959 1_556 S
C1757 H1764 0.961 . S
C1757 H1765 0.960 . S
C1758 C1756 1.381 . S
C1758 C1759 1.394 . S
C1758 H1766 0.930 . S
C1759 C1758 1.394 . S
C1759 C1760 1.383 . S
C1759 H1767 0.929 . S
C1760 C1759 1.383 . S
C1760 C1761 1.377 . S
C1761 H1745 0.930 . S
C1761 C1760 1.377 . S
C1761 C1762 1.379 . S
C1762 H1746 0.931 . S
C1762 C1756 1.383 . S
C1762 C1761 1.379 . S
H1763 C1757 0.959 1_554 S
H1764 C1757 0.961 . S
H1765 C1757 0.960 . S
H1766 C1758 0.930 . S
H1767 C1759 0.929 . S
H1768 C1776 0.929 . S
H1769 C1778 0.930 . S
H1770 C1780 0.930 . S
H1771 C1783 0.929 . S
H1772 C1786 0.930 . S
H1773 C1788 0.960 . S
H1774 C1788 0.960 . S
H1775 C1788 0.960 . S
C1776 H1768 0.929 . S
C1776 C1777 1.377 . S
C1776 C1778 1.384 . S
C1777 C1776 1.377 . S
C1777 C1783 1.390 . S
C1778 H1769 0.930 . S
C1778 C1776 1.384 . S
C1778 C1779 1.372 . S
C1779 C1778 1.372 . S
C1779 C1780 1.400 . S
C1779 C1784 1.490 . S
C1780 H1770 0.930 . S
C1780 C1779 1.400 . S
C1780 C1783 1.386 . S
H1781 C1797 0.930 . S
H1782 C1798 0.931 . S
C1783 H1771 0.929 . S
C1783 C1777 1.390 . S
C1783 C1780 1.386 . S
C1784 C1779 1.490 . S
C1784 C1786 1.395 . S
C1784 C1787 1.403 . S
H1785 C1791 0.930 . S
C1786 H1772 0.930 . S
C1786 C1784 1.395 . S
C1786 C1789 1.403 . S
C1787 C1784 1.403 . S
C1787 C1788 1.524 . S
C1787 C1791 1.400 . S
C1788 H1773 0.960 . S
C1788 H1774 0.960 . S
C1788 H1775 0.960 . S
C1788 C1787 1.524 . S
C1789 C1786 1.403 . S
C1789 C1790 1.392 . S
C1789 C1793 1.495 . S
C1790 C1789 1.392 . S
C1790 C1791 1.385 . S
C1790 C1792 1.478 . S
C1791 H1785 0.930 . S
C1791 C1787 1.400 . S
C1791 C1790 1.385 . S
C1792 C1790 1.478 . S
C1792 C1794 1.381 . S
C1792 C1798 1.383 . S
C1793 C1789 1.495 . S
C1793 H1799 0.959 . S
C1793 H1800 0.961 . S
C1793 H1801 0.960 . S
C1794 C1792 1.381 . S
C1794 C1795 1.394 . S
C1794 H1802 0.930 . S
C1795 C1794 1.394 . S
C1795 C1796 1.383 . S
C1795 H1803 0.929 . S
C1796 C1795 1.383 . S
C1796 C1797 1.377 . S
C1797 H1781 0.930 . S
C1797 C1796 1.377 . S
C1797 C1798 1.379 . S
C1798 H1782 0.931 . S
C1798 C1792 1.383 . S
C1798 C1797 1.379 . S
H1799 C1793 0.959 . S
H1800 C1793 0.961 . S
H1801 C1793 0.960 . S
H1802 C1794 0.930 . S
H1803 C1795 0.929 . S
H1804 C1812 0.929 . S
H1805 C1814 0.930 . S
H1806 C1816 0.930 . S
H1807 C1819 0.929 . S
H1808 C1822 0.930 . S
H1809 C1824 0.960 . S
H1810 C1824 0.960 . S
H1811 C1824 0.960 . S
C1812 H1804 0.929 . S
C1812 C1813 1.377 . S
C1812 C1814 1.384 1_556 S
C1813 C1812 1.377 . S
C1813 C1819 1.390 . S
C1814 H1805 0.930 . S
C1814 C1812 1.384 1_554 S
C1814 C1815 1.372 . S
C1815 C1814 1.372 . S
C1815 C1816 1.400 . S
C1815 C1820 1.490 . S
C1816 H1806 0.930 . S
C1816 C1815 1.400 . S
C1816 C1819 1.386 1_554 S
H1817 C1833 0.930 . S
H1818 C1834 0.931 . S
C1819 H1807 0.929 . S
C1819 C1813 1.390 . S
C1819 C1816 1.386 1_556 S
C1820 C1815 1.490 . S
C1820 C1822 1.395 . S
C1820 C1823 1.403 . S
H1821 C1827 0.930 . S
C1822 H1808 0.930 . S
C1822 C1820 1.395 . S
C1822 C1825 1.403 . S
C1823 C1820 1.403 . S
C1823 C1824 1.524 . S
C1823 C1827 1.400 . S
C1824 H1809 0.960 . S
C1824 H1810 0.960 . S
C1824 H1811 0.960 . S
C1824 C1823 1.524 . S
C1825 C1822 1.403 . S
C1825 C1826 1.392 . S
C1825 C1829 1.495 . S
C1826 C1825 1.392 . S
C1826 C1827 1.385 . S
C1826 C1828 1.478 . S
C1827 H1821 0.930 . S
C1827 C1823 1.400 . S
C1827 C1826 1.385 . S
C1828 C1826 1.478 . S
C1828 C1830 1.381 . S
C1828 C1834 1.383 . S
C1829 C1825 1.495 . S
C1829 H1835 0.959 . S
C1829 H1836 0.961 . S
C1829 H1837 0.960 . S
C1830 C1828 1.381 . S
C1830 C1831 1.394 . S
C1830 H1838 0.930 . S
C1831 C1830 1.394 . S
C1831 C1832 1.383 . S
C1831 H1839 0.929 . S
C1832 C1831 1.383 . S
C1832 C1833 1.377 . S
C1833 H1817 0.930 . S
C1833 C1832 1.377 . S
C1833 C1834 1.379 . S
C1834 H1818 0.931 . S
C1834 C1828 1.383 . S
C1834 C1833 1.379 . S
H1835 C1829 0.959 . S
H1836 C1829 0.961 . S
H1837 C1829 0.960 . S
H1838 C1830 0.930 . S
H1839 C1831 0.929 . S
H1840 C1848 0.929 . S
H1841 C1850 0.930 . S
H1842 C1852 0.930 . S
H1843 C1855 0.929 . S
H1844 C1858 0.930 . S
H1845 C1860 0.960 . S
H1846 C1860 0.960 . S
H1847 C1860 0.960 . S
C1848 H1840 0.929 . S
C1848 C1849 1.377 . S
C1848 C1850 1.384 . S
C1849 C1848 1.377 . S
C1849 C1855 1.390 . S
C1850 H1841 0.930 . S
C1850 C1848 1.384 . S
C1850 C1851 1.372 . S
C1851 C1850 1.372 . S
C1851 C1852 1.400 . S
C1851 C1856 1.490 . S
C1852 H1842 0.930 . S
C1852 C1851 1.400 . S
C1852 C1855 1.386 . S
H1853 C1869 0.930 . S
H1854 C1870 0.931 . S
C1855 H1843 0.929 . S
C1855 C1849 1.390 . S
C1855 C1852 1.386 . S
C1856 C1851 1.490 . S
C1856 C1858 1.395 . S
C1856 C1859 1.403 . S
H1857 C1863 0.930 . S
C1858 H1844 0.930 . S
C1858 C1856 1.395 . S
C1858 C1861 1.403 . S
C1859 C1856 1.403 . S
C1859 C1860 1.524 . S
C1859 C1863 1.400 . S
C1860 H1845 0.960 . S
C1860 H1846 0.960 . S
C1860 H1847 0.960 . S
C1860 C1859 1.524 . S
C1861 C1858 1.403 . S
C1861 C1862 1.392 . S
C1861 C1865 1.495 . S
C1862 C1861 1.392 . S
C1862 C1863 1.385 . S
C1862 C1864 1.478 . S
C1863 H1857 0.930 . S
C1863 C1859 1.400 . S
C1863 C1862 1.385 . S
C1864 C1862 1.478 . S
C1864 C1866 1.381 . S
C1864 C1870 1.383 . S
C1865 C1861 1.495 . S
C1865 H1871 0.959 . S
C1865 H1872 0.961 . S
C1865 H1873 0.960 . S
C1866 C1864 1.381 . S
C1866 C1867 1.394 . S
C1866 H1874 0.930 . S
C1867 C1866 1.394 . S
C1867 C1868 1.383 . S
C1867 H1875 0.929 . S
C1868 C1867 1.383 . S
C1868 C1869 1.377 . S
C1869 H1853 0.930 . S
C1869 C1868 1.377 . S
C1869 C1870 1.379 . S
C1870 H1854 0.931 . S
C1870 C1864 1.383 . S
C1870 C1869 1.379 . S
H1871 C1865 0.959 . S
H1872 C1865 0.961 . S
H1873 C1865 0.960 . S
H1874 C1866 0.930 . S
H1875 C1867 0.929 . S
H1876 C1884 0.929 . S
H1877 C1886 0.930 . S
H1878 C1888 0.930 1_554 S
H1879 C1891 0.929 . S
H1880 C1894 0.930 . S
H1881 C1896 0.960 . S
H1882 C1896 0.960 . S
H1883 C1896 0.960 . S
C1884 H1876 0.929 . S
C1884 C1885 1.377 . S
C1884 C1886 1.384 . S
C1885 C1884 1.377 . S
C1885 C1891 1.390 . S
C1886 H1877 0.930 . S
C1886 C1884 1.384 . S
C1886 C1887 1.372 . S
C1887 C1886 1.372 . S
C1887 C1888 1.400 . S
C1887 C1892 1.490 1_556 S
C1888 H1878 0.930 1_556 S
C1888 C1887 1.400 . S
C1888 C1891 1.386 . S
H1889 C1905 0.930 . S
H1890 C1906 0.931 . S
C1891 H1879 0.929 . S
C1891 C1885 1.390 . S
C1891 C1888 1.386 . S
C1892 C1887 1.490 1_554 S
C1892 C1894 1.395 . S
C1892 C1895 1.403 . S
H1893 C1899 0.930 . S
C1894 H1880 0.930 . S
C1894 C1892 1.395 . S
C1894 C1897 1.403 . S
C1895 C1892 1.403 . S
C1895 C1896 1.524 . S
C1895 C1899 1.400 . S
C1896 H1881 0.960 . S
C1896 H1882 0.960 . S
C1896 H1883 0.960 . S
C1896 C1895 1.524 . S
C1897 C1894 1.403 . S
C1897 C1898 1.392 . S
C1897 C1901 1.495 . S
C1898 C1897 1.392 . S
C1898 C1899 1.385 . S
C1898 C1900 1.478 . S
C1899 H1893 0.930 . S
C1899 C1895 1.400 . S
C1899 C1898 1.385 . S
C1900 C1898 1.478 . S
C1900 C1902 1.381 . S
C1900 C1906 1.383 . S
C1901 C1897 1.495 . S
C1901 H1907 0.959 . S
C1901 H1908 0.961 . S
C1901 H1909 0.960 . S
C1902 C1900 1.381 . S
C1902 C1903 1.394 . S
C1902 H1910 0.930 . S
C1903 C1902 1.394 . S
C1903 C1904 1.383 . S
C1903 H1911 0.929 . S
C1904 C1903 1.383 . S
C1904 C1905 1.377 . S
C1905 H1889 0.930 . S
C1905 C1904 1.377 . S
C1905 C1906 1.379 . S
C1906 H1890 0.931 . S
C1906 C1900 1.383 . S
C1906 C1905 1.379 . S
H1907 C1901 0.959 . S
H1908 C1901 0.961 . S
H1909 C1901 0.960 . S
H1910 C1902 0.930 . S
H1911 C1903 0.929 . S
H1912 C1920 0.929 . S
H1913 C1922 0.930 . S
H1914 C1924 0.930 . S
H1915 C1927 0.929 . S
H1916 C1930 0.930 . S
H1917 C1932 0.960 . S
H1918 C1932 0.960 . S
H1919 C1932 0.960 . S
C1920 H1912 0.929 . S
C1920 C1921 1.377 . S
C1920 C1922 1.384 . S
C1921 C1920 1.377 . S
C1921 C1927 1.390 . S
C1922 H1913 0.930 . S
C1922 C1920 1.384 . S
C1922 C1923 1.372 . S
C1923 C1922 1.372 . S
C1923 C1924 1.400 . S
C1923 C1928 1.490 . S
C1924 H1914 0.930 . S
C1924 C1923 1.400 . S
C1924 C1927 1.386 . S
H1925 C1941 0.930 . S
H1926 C1942 0.931 . S
C1927 H1915 0.929 . S
C1927 C1921 1.390 . S
C1927 C1924 1.386 . S
C1928 C1923 1.490 . S
C1928 C1930 1.395 . S
C1928 C1931 1.403 . S
H1929 C1935 0.930 . S
C1930 H1916 0.930 . S
C1930 C1928 1.395 . S
C1930 C1933 1.403 . S
C1931 C1928 1.403 . S
C1931 C1932 1.524 . S
C1931 C1935 1.400 . S
C1932 H1917 0.960 . S
C1932 H1918 0.960 . S
C1932 H1919 0.960 . S
C1932 C1931 1.524 . S
C1933 C1930 1.403 . S
C1933 C1934 1.392 . S
C1933 C1937 1.495 . S
C1934 C1933 1.392 . S
C1934 C1935 1.385 . S
C1934 C1936 1.478 . S
C1935 H1929 0.930 . S
C1935 C1931 1.400 . S
C1935 C1934 1.385 . S
C1936 C1934 1.478 . S
C1936 C1938 1.381 . S
C1936 C1942 1.383 . S
C1937 C1933 1.495 . S
C1937 H1943 0.959 . S
C1937 H1944 0.961 . S
C1937 H1945 0.960 . S
C1938 C1936 1.381 . S
C1938 C1939 1.394 . S
C1938 H1946 0.930 . S
C1939 C1938 1.394 . S
C1939 C1940 1.383 . S
C1939 H1947 0.929 . S
C1940 C1939 1.383 . S
C1940 C1941 1.377 . S
C1941 H1925 0.930 . S
C1941 C1940 1.377 . S
C1941 C1942 1.379 . S
C1942 H1926 0.931 . S
C1942 C1936 1.383 . S
C1942 C1941 1.379 . S
H1943 C1937 0.959 . S
H1944 C1937 0.961 . S
H1945 C1937 0.960 . S
H1946 C1938 0.930 . S
H1947 C1939 0.929 . S
H1948 C1956 0.929 . S
H1949 C1958 0.930 . S
H1950 C1960 0.930 . S
H1951 C1963 0.929 . S
H1952 C1966 0.930 . S
H1953 C1968 0.960 . S
H1954 C1968 0.960 . S
H1955 C1968 0.960 . S
C1956 H1948 0.929 . S
C1956 C1957 1.377 . S
C1956 C1958 1.384 . S
C1957 C1956 1.377 . S
C1957 C1963 1.390 . S
C1958 H1949 0.930 . S
C1958 C1956 1.384 . S
C1958 C1959 1.372 . S
C1959 C1958 1.372 . S
C1959 C1960 1.400 . S
C1959 C1964 1.490 . S
C1960 H1950 0.930 . S
C1960 C1959 1.400 . S
C1960 C1963 1.386 . S
H1961 C1977 0.930 . S
H1962 C1978 0.931 . S
C1963 H1951 0.929 . S
C1963 C1957 1.390 . S
C1963 C1960 1.386 . S
C1964 C1959 1.490 . S
C1964 C1966 1.395 . S
C1964 C1967 1.403 . S
H1965 C1971 0.930 . S
C1966 H1952 0.930 . S
C1966 C1964 1.395 . S
C1966 C1969 1.403 . S
C1967 C1964 1.403 . S
C1967 C1968 1.524 . S
C1967 C1971 1.400 . S
C1968 H1953 0.960 . S
C1968 H1954 0.960 . S
C1968 H1955 0.960 . S
C1968 C1967 1.524 . S
C1969 C1966 1.403 . S
C1969 C1970 1.392 . S
C1969 C1973 1.495 . S
C1970 C1969 1.392 . S
C1970 C1971 1.385 . S
C1970 C1972 1.478 . S
C1971 H1965 0.930 . S
C1971 C1967 1.400 . S
C1971 C1970 1.385 . S
C1972 C1970 1.478 . S
C1972 C1974 1.381 . S
C1972 C1978 1.383 . S
C1973 C1969 1.495 . S
C1973 H1979 0.959 . S
C1973 H1980 0.961 . S
C1973 H1981 0.960 . S
C1974 C1972 1.381 . S
C1974 C1975 1.394 . S
C1974 H1982 0.930 . S
C1975 C1974 1.394 . S
C1975 C1976 1.383 . S
C1975 H1983 0.929 . S
C1976 C1975 1.383 . S
C1976 C1977 1.377 . S
C1977 H1961 0.930 . S
C1977 C1976 1.377 . S
C1977 C1978 1.379 . S
C1978 H1962 0.931 . S
C1978 C1972 1.383 . S
C1978 C1977 1.379 . S
H1979 C1973 0.959 . S
H1980 C1973 0.961 . S
H1981 C1973 0.960 . S
H1982 C1974 0.930 . S
H1983 C1975 0.929 . S
H1984 C1992 0.929 . S
H1985 C1994 0.930 . S
H1986 C1996 0.930 . S
H1987 C1999 0.929 . S
H1988 C2002 0.930 . S
H1989 C2004 0.960 . S
H1990 C2004 0.960 . S
H1991 C2004 0.960 . S
C1992 H1984 0.929 . S
C1992 C1993 1.377 . S
C1992 C1994 1.384 . S
C1993 C1992 1.377 . S
C1993 C1999 1.390 . S
C1994 H1985 0.930 . S
C1994 C1992 1.384 . S
C1994 C1995 1.372 . S
C1995 C1994 1.372 . S
C1995 C1996 1.400 . S
C1995 C2000 1.490 . S
C1996 H1986 0.930 . S
C1996 C1995 1.400 . S
C1996 C1999 1.386 . S
H1997 C2013 0.930 . S
H1998 C2014 0.931 . S
C1999 H1987 0.929 . S
C1999 C1993 1.390 . S
C1999 C1996 1.386 . S
C2000 C1995 1.490 . S
C2000 C2002 1.395 . S
C2000 C2003 1.403 . S
H2001 C2007 0.930 . S
C2002 H1988 0.930 . S
C2002 C2000 1.395 . S
C2002 C2005 1.403 . S
C2003 C2000 1.403 . S
C2003 C2004 1.524 . S
C2003 C2007 1.400 . S
C2004 H1989 0.960 . S
C2004 H1990 0.960 . S
C2004 H1991 0.960 . S
C2004 C2003 1.524 . S
C2005 C2002 1.403 . S
C2005 C2006 1.392 . S
C2005 C2009 1.495 . S
C2006 C2005 1.392 . S
C2006 C2007 1.385 . S
C2006 C2008 1.478 . S
C2007 H2001 0.930 . S
C2007 C2003 1.400 . S
C2007 C2006 1.385 . S
C2008 C2006 1.478 . S
C2008 C2010 1.381 . S
C2008 C2014 1.383 . S
C2009 C2005 1.495 . S
C2009 H2015 0.959 . S
C2009 H2016 0.961 . S
C2009 H2017 0.960 . S
C2010 C2008 1.381 . S
C2010 C2011 1.394 . S
C2010 H2018 0.930 . S
C2011 C2010 1.394 . S
C2011 C2012 1.383 . S
C2011 H2019 0.929 . S
C2012 C2011 1.383 . S
C2012 C2013 1.377 . S
C2013 H1997 0.930 . S
C2013 C2012 1.377 . S
C2013 C2014 1.379 . S
C2014 H1998 0.931 . S
C2014 C2008 1.383 . S
C2014 C2013 1.379 . S
H2015 C2009 0.959 . S
H2016 C2009 0.961 . S
H2017 C2009 0.960 . S
H2018 C2010 0.930 . S
H2019 C2011 0.929 . S
H2020 C2028 0.929 . S
H2021 C2030 0.930 . S
H2022 C2032 0.930 . S
H2023 C2035 0.929 . S
H2024 C2038 0.930 . S
H2025 C2040 0.960 . S
H2026 C2040 0.960 . S
H2027 C2040 0.960 . S
C2028 H2020 0.929 . S
C2028 C2029 1.377 . S
C2028 C2030 1.384 . S
C2029 C2028 1.377 . S
C2029 C2035 1.390 . S
C2030 H2021 0.930 . S
C2030 C2028 1.384 . S
C2030 C2031 1.372 . S
C2031 C2030 1.372 . S
C2031 C2032 1.400 . S
C2031 C2036 1.490 . S
C2032 H2022 0.930 . S
C2032 C2031 1.400 . S
C2032 C2035 1.386 . S
H2033 C2049 0.930 . S
H2034 C2050 0.931 . S
C2035 H2023 0.929 . S
C2035 C2029 1.390 . S
C2035 C2032 1.386 . S
C2036 C2031 1.490 . S
C2036 C2038 1.395 . S
C2036 C2039 1.403 . S
H2037 C2043 0.930 . S
C2038 H2024 0.930 . S
C2038 C2036 1.395 . S
C2038 C2041 1.403 . S
C2039 C2036 1.403 . S
C2039 C2040 1.524 . S
C2039 C2043 1.400 . S
C2040 H2025 0.960 . S
C2040 H2026 0.960 . S
C2040 H2027 0.960 . S
C2040 C2039 1.524 . S
C2041 C2038 1.403 . S
C2041 C2042 1.392 . S
C2041 C2045 1.495 . S
C2042 C2041 1.392 . S
C2042 C2043 1.385 . S
C2042 C2044 1.478 . S
C2043 H2037 0.930 . S
C2043 C2039 1.400 . S
C2043 C2042 1.385 . S
C2044 C2042 1.478 . S
C2044 C2046 1.381 . S
C2044 C2050 1.383 . S
C2045 C2041 1.495 . S
C2045 H2051 0.959 . S
C2045 H2052 0.961 . S
C2045 H2053 0.960 . S
C2046 C2044 1.381 . S
C2046 C2047 1.394 . S
C2046 H2054 0.930 . S
C2047 C2046 1.394 . S
C2047 C2048 1.383 . S
C2047 H2055 0.929 . S
C2048 C2047 1.383 . S
C2048 C2049 1.377 . S
C2049 H2033 0.930 . S
C2049 C2048 1.377 . S
C2049 C2050 1.379 . S
C2050 H2034 0.931 . S
C2050 C2044 1.383 . S
C2050 C2049 1.379 . S
H2051 C2045 0.959 . S
H2052 C2045 0.961 . S
H2053 C2045 0.960 . S
H2054 C2046 0.930 . S
H2055 C2047 0.929 . S
H2056 C2064 0.929 . S
H2057 C2066 0.930 . S
H2058 C2068 0.930 . S
H2059 C2071 0.929 . S
H2060 C2074 0.930 . S
H2061 C2076 0.960 . S
H2062 C2076 0.960 . S
H2063 C2076 0.960 . S
C2064 H2056 0.929 . S
C2064 C2065 1.377 . S
C2064 C2066 1.384 . S
C2065 C2064 1.377 . S
C2065 C2071 1.390 . S
C2066 H2057 0.930 . S
C2066 C2064 1.384 . S
C2066 C2067 1.372 . S
C2067 C2066 1.372 . S
C2067 C2068 1.400 . S
C2067 C2072 1.490 . S
C2068 H2058 0.930 . S
C2068 C2067 1.400 . S
C2068 C2071 1.386 . S
H2069 C2085 0.925 . S
H2070 C2086 0.931 . S
C2071 H2059 0.929 . S
C2071 C2065 1.390 . S
C2071 C2068 1.386 . S
C2072 C2067 1.490 . S
C2072 C2074 1.395 . S
C2072 C2075 1.403 . S
H2073 C2079 0.930 . S
C2074 H2060 0.930 . S
C2074 C2072 1.395 . S
C2074 C2077 1.403 . S
C2075 C2072 1.403 . S
C2075 C2076 1.524 . S
C2075 C2079 1.400 . S
C2076 H2061 0.960 . S
C2076 H2062 0.960 . S
C2076 H2063 0.960 . S
C2076 C2075 1.524 . S
C2077 C2074 1.403 . S
C2077 C2078 1.392 . S
C2077 C2081 1.495 . S
C2078 C2077 1.392 . S
C2078 C2079 1.385 . S
C2078 C2080 1.478 . S
C2079 H2073 0.930 . S
C2079 C2075 1.400 . S
C2079 C2078 1.385 . S
C2080 C2078 1.478 . S
C2080 C2082 1.381 . S
C2080 C2086 1.383 . S
C2081 C2077 1.495 . S
C2081 H2087 0.959 . S
C2081 H2088 0.961 . S
C2081 H2089 0.960 . S
C2082 C2080 1.381 . S
C2082 C2083 1.394 . S
C2082 H2090 0.930 . S
C2083 C2082 1.394 . S
C2083 C2084 1.383 . S
C2083 H2091 0.929 . S
C2084 C2083 1.383 . S
C2084 C2085 1.377 . S
C2085 H2069 0.925 . S
C2085 C2084 1.377 . S
C2085 C2086 1.379 . S
C2086 H2070 0.931 . S
C2086 C2080 1.383 . S
C2086 C2085 1.379 . S
H2087 C2081 0.959 . S
H2088 C2081 0.961 . S
H2089 C2081 0.960 . S
H2090 C2082 0.930 . S
H2091 C2083 0.929 . S
H2092 C2100 0.929 . S
H2093 C2102 0.930 . S
H2094 C2104 0.930 . S
H2095 C2107 0.929 . S
H2096 C2110 0.930 . S
H2097 C2112 0.960 . S
H2098 C2112 0.960 . S
H2099 C2112 0.960 . S
C2100 H2092 0.929 . S
C2100 C2101 1.377 . S
C2100 C2102 1.384 . S
C2101 C2100 1.377 . S
C2101 C2107 1.390 . S
C2102 H2093 0.930 . S
C2102 C2100 1.384 . S
C2102 C2103 1.372 . S
C2103 C2102 1.372 . S
C2103 C2104 1.400 . S
C2103 C2108 1.490 . S
C2104 H2094 0.930 . S
C2104 C2103 1.400 . S
C2104 C2107 1.386 . S
H2105 C2121 0.930 . S
H2106 C2122 0.931 . S
C2107 H2095 0.929 . S
C2107 C2101 1.390 . S
C2107 C2104 1.386 . S
C2108 C2103 1.490 . S
C2108 C2110 1.395 . S
C2108 C2111 1.403 . S
H2109 C2115 0.930 . S
C2110 H2096 0.930 . S
C2110 C2108 1.395 . S
C2110 C2113 1.403 . S
C2111 C2108 1.403 . S
C2111 C2112 1.524 . S
C2111 C2115 1.400 . S
C2112 H2097 0.960 . S
C2112 H2098 0.960 . S
C2112 H2099 0.960 . S
C2112 C2111 1.524 . S
C2113 C2110 1.403 . S
C2113 C2114 1.392 . S
C2113 C2117 1.495 . S
C2114 C2113 1.392 . S
C2114 C2115 1.385 . S
C2114 C2116 1.478 . S
C2115 H2109 0.930 . S
C2115 C2111 1.400 . S
C2115 C2114 1.385 . S
C2116 C2114 1.478 . S
C2116 C2118 1.381 . S
C2116 C2122 1.383 . S
C2117 C2113 1.495 . S
C2117 H2123 0.959 . S
C2117 H2124 0.961 . S
C2117 H2125 0.960 . S
C2118 C2116 1.381 . S
C2118 C2119 1.394 . S
C2118 H2126 0.930 . S
C2119 C2118 1.394 . S
C2119 C2120 1.383 . S
C2119 H2127 0.929 . S
C2120 C2119 1.383 . S
C2120 C2121 1.377 . S
C2121 H2105 0.930 . S
C2121 C2120 1.377 . S
C2121 C2122 1.379 . S
C2122 H2106 0.931 . S
C2122 C2116 1.383 . S
C2122 C2121 1.379 . S
H2123 C2117 0.959 . S
H2124 C2117 0.961 . S
H2125 C2117 0.960 . S
H2126 C2118 0.930 . S
H2127 C2119 0.929 . S
H2128 C2136 0.929 . S
H2129 C2138 0.930 . S
H2130 C2140 0.930 . S
H2131 C2143 0.929 . S
H2132 C2146 0.930 . S
H2133 C2148 0.960 . S
H2134 C2148 0.960 . S
H2135 C2148 0.960 . S
C2136 H2128 0.929 . S
C2136 C2137 1.377 . S
C2136 C2138 1.384 . S
C2137 C2136 1.377 . S
C2137 C2143 1.390 . S
C2138 H2129 0.930 . S
C2138 C2136 1.384 . S
C2138 C2139 1.372 . S
C2139 C2138 1.372 . S
C2139 C2140 1.400 . S
C2139 C2144 1.490 . S
C2140 H2130 0.930 . S
C2140 C2139 1.400 . S
C2140 C2143 1.386 . S
H2141 C2157 0.930 . S
H2142 C2158 0.931 . S
C2143 H2131 0.929 . S
C2143 C2137 1.390 . S
C2143 C2140 1.386 . S
C2144 C2139 1.490 . S
C2144 C2146 1.395 . S
C2144 C2147 1.403 . S
H2145 C2151 0.930 . S
C2146 H2132 0.930 . S
C2146 C2144 1.395 . S
C2146 C2149 1.403 . S
C2147 C2144 1.403 . S
C2147 C2148 1.524 . S
C2147 C2151 1.400 . S
C2148 H2133 0.960 . S
C2148 H2134 0.960 . S
C2148 H2135 0.960 . S
C2148 C2147 1.524 . S
C2149 C2146 1.403 . S
C2149 C2150 1.392 . S
C2149 C2153 1.495 . S
C2150 C2149 1.392 . S
C2150 C2151 1.385 . S
C2150 C2152 1.478 . S
C2151 H2145 0.930 . S
C2151 C2147 1.400 . S
C2151 C2150 1.385 . S
C2152 C2150 1.478 . S
C2152 C2154 1.381 . S
C2152 C2158 1.383 . S
C2153 C2149 1.495 . S
C2153 H2159 0.959 . S
C2153 H2160 0.961 . S
C2153 H2161 0.960 . S
C2154 C2152 1.381 . S
C2154 C2155 1.394 . S
C2154 H2162 0.930 . S
C2155 C2154 1.394 . S
C2155 C2156 1.383 . S
C2155 H2163 0.930 1_554 S
C2156 C2155 1.383 . S
C2156 C2157 1.377 . S
C2157 H2141 0.930 . S
C2157 C2156 1.377 . S
C2157 C2158 1.379 . S
C2158 H2142 0.931 . S
C2158 C2152 1.383 . S
C2158 C2157 1.379 . S
H2159 C2153 0.959 . S
H2160 C2153 0.961 . S
H2161 C2153 0.960 . S
H2162 C2154 0.930 . S
H2163 C2155 0.930 1_556 S
H2164 C2172 0.929 . S
H2165 C2174 0.930 . S
H2166 C2176 0.930 . S
H2167 C2179 0.929 . S
H2168 C2182 0.930 . S
H2169 C2184 0.960 . S
H2170 C2184 0.960 . S
H2171 C2184 0.960 . S
C2172 H2164 0.929 . S
C2172 C2173 1.377 . S
C2172 C2174 1.384 . S
C2173 C2172 1.377 . S
C2173 C2179 1.390 . S
C2174 H2165 0.930 . S
C2174 C2172 1.384 . S
C2174 C2175 1.372 . S
C2175 C2174 1.372 . S
C2175 C2176 1.400 . S
C2175 C2180 1.490 . S
C2176 H2166 0.930 . S
C2176 C2175 1.400 . S
C2176 C2179 1.386 . S
H2177 C2193 0.930 . S
H2178 C2194 0.931 . S
C2179 H2167 0.929 . S
C2179 C2173 1.390 . S
C2179 C2176 1.386 . S
C2180 C2175 1.490 . S
C2180 C2182 1.395 . S
C2180 C2183 1.403 . S
H2181 C2187 0.930 . S
C2182 H2168 0.930 . S
C2182 C2180 1.395 . S
C2182 C2185 1.403 . S
C2183 C2180 1.403 . S
C2183 C2184 1.524 . S
C2183 C2187 1.400 . S
C2184 H2169 0.960 . S
C2184 H2170 0.960 . S
C2184 H2171 0.960 . S
C2184 C2183 1.524 . S
C2185 C2182 1.403 . S
C2185 C2186 1.392 . S
C2185 C2189 1.495 . S
C2186 C2185 1.392 . S
C2186 C2187 1.385 . S
C2186 C2188 1.478 . S
C2187 H2181 0.930 . S
C2187 C2183 1.400 . S
C2187 C2186 1.385 . S
C2188 C2186 1.478 . S
C2188 C2190 1.381 . S
C2188 C2194 1.383 . S
C2189 C2185 1.495 . S
C2189 H2195 0.959 . S
C2189 H2196 0.961 . S
C2189 H2197 0.960 . S
C2190 C2188 1.381 . S
C2190 C2191 1.394 . S
C2190 H2198 0.930 . S
C2191 C2190 1.394 . S
C2191 C2192 1.383 1_545 S
C2191 H2199 0.929 1_545 S
C2192 C2191 1.383 1_565 S
C2192 C2193 1.377 1_565 S
C2193 H2177 0.930 . S
C2193 C2192 1.377 1_545 S
C2193 C2194 1.379 . S
C2194 H2178 0.931 . S
C2194 C2188 1.383 . S
C2194 C2193 1.379 . S
H2195 C2189 0.959 . S
H2196 C2189 0.961 . S
H2197 C2189 0.960 . S
H2198 C2190 0.930 . S
H2199 C2191 0.929 1_565 S
C500 C312 2.147 . S
C481 C101 2.161 . S
C536 C327 1.423 . S
C517 C125 1.404 . S
C553 C139 2.361 . S
C572 C340 2.328 . S
C608 C354 1.725 1_455 S
C589 C82 1.757 . S
C644 C366 1.867 . S
C625 C196 1.990 . S
C680 C380 1.568 . S
C661 C234 1.646 . S
C697 C220 1.016 . S
C716 C394 1.066 . S
C752 C409 1.451 . S
C733 C173 1.490 . S
C769 C211 1.330 . S
C788 C425 1.305 . S
C824 C438 1.052 . S
C805 C182 0.958 . S
C841 C201 1.524 . S
C860 C423 1.604 . S
C896 C436 1.573 . S
C877 C239 1.564 . S
C913 C135 2.125 . S
C932 C452 2.130 . S
C949 C87 1.937 . S
C968 C451 1.973 . S
C985 C106 1.347 . S
C1004 C450 1.453 . S
C1021 C116 1.248 . S
C1040 C453 1.225 1_655 S
C1057 C59 2.196 . S
C1076 C355 2.196 . S
C1093 C268 2.178 . S
C1112 C353 2.145 . S
C1148 C313 1.118 . S
C1129 C291 1.115 . S
C1184 C324 1.764 . S
C1165 C163 1.647 . S
C1201 C78 1.881 . S
C1220 C369 1.890 . S
C1256 C410 1.680 . S
C1237 C215 1.681 . S
C1292 C367 1.842 . S
C1273 C177 1.890 . S
C1328 C395 1.658 . S
C1309 C230 1.687 . S
C1364 C396 2.149 . S
C1345 C272 2.158 . S
C1381 C296 1.393 . S
C1400 C411 1.428 . S
C1417 C158 2.360 . S
C1436 C368 2.322 . S
C1472 C382 1.733 . S
C1453 C253 1.757 . S
C1489 C63 1.989 . S
C1508 C338 1.827 . S
C1544 C352 1.606 . S
C1525 C6 1.644 . S
C1580 C310 1.067 . S
C1561 C30 1.006 . S
C1616 C325 1.457 . S
C1597 C40 1.491 . S
C1633 C21 1.328 . S
C1652 C439 1.256 . S
C1669 C49 0.955 . S
C1688 C424 1.039 . S
C1705 C68 1.518 . S
C1724 C437 1.632 . S
C1741 C11 1.560 . S
C1760 C422 1.561 . S
C1796 C466 2.130 . S
C1777 C154 2.125 . S
C1832 C465 1.955 . S
C1813 C258 1.943 . S
C1868 C464 1.496 . S
C1849 C277 1.352 . S
C1885 C287 1.249 . S
C1904 C467 1.227 . S
C1921 C192 2.193 . S
C1940 C383 2.186 . S
C1976 C381 2.162 . S
C1957 C97 2.181 . S
C2012 C397 1.116 . S
C1993 C120 1.112 . S
C2048 C408 1.736 . S
C2029 C144 1.659 . S
C2065 C249 1.885 . S
C2084 C341 1.898 . S
C2120 C326 1.678 . S
C2101 C25 1.680 . S
C2137 C44 1.892 . S
C2156 C339 1.855 . S
C2192 C311 1.641 . S
C2173 C2 1.684 . S
