# Generated by pormake.
# Topology csq, (4,8)-cn, num edge types: 1
# Building blocks:
#     Node 0, Type 0, BuildingBlock: NAWXER_clean_linker_0, # of connection points: 4
#     Node 1, Type 0, BuildingBlock: NAWXER_clean_linker_0, # of connection points: 4
#     Node 2, Type 0, BuildingBlock: NAWXER_clean_linker_0, # of connection points: 4
#     Node 3, Type 0, BuildingBlock: NAWXER_clean_linker_0, # of connection points: 4
#     Node 4, Type 0, BuildingBlock: NAWXER_clean_linker_0, # of connection points: 4
#     Node 5, Type 0, BuildingBlock: NAWXER_clean_linker_0, # of connection points: 4
#     Node 6, Type 1, BuildingBlock: TAGTUT_clean_sbu_3, # of connection points: 8
#     Node 7, Type 1, BuildingBlock: TAGTUT_clean_sbu_3, # of connection points: 8
#     Node 8, Type 1, BuildingBlock: TAGTUT_clean_sbu_3, # of connection points: 8
#     Edge 9, Type (0, 1), BuildingBlock: UVAHIK_clean_linker_0, # of connection points: 2
#     Edge 10, Type (0, 1), BuildingBlock: UVAHIK_clean_linker_0, # of connection points: 2
#     Edge 11, Type (0, 1), BuildingBlock: UVAHIK_clean_linker_0, # of connection points: 2
#     Edge 12, Type (0, 1), BuildingBlock: UVAHIK_clean_linker_0, # of connection points: 2
#     Edge 13, Type (0, 1), BuildingBlock: UVAHIK_clean_linker_0, # of connection points: 2
#     Edge 14, Type (0, 1), BuildingBlock: UVAHIK_clean_linker_0, # of connection points: 2
#     Edge 15, Type (0, 1), BuildingBlock: UVAHIK_clean_linker_0, # of connection points: 2
#     Edge 16, Type (0, 1), BuildingBlock: UVAHIK_clean_linker_0, # of connection points: 2
#     Edge 17, Type (0, 1), BuildingBlock: UVAHIK_clean_linker_0, # of connection points: 2
#     Edge 18, Type (0, 1), BuildingBlock: UVAHIK_clean_linker_0, # of connection points: 2
#     Edge 19, Type (0, 1), BuildingBlock: UVAHIK_clean_linker_0, # of connection points: 2
#     Edge 20, Type (0, 1), BuildingBlock: UVAHIK_clean_linker_0, # of connection points: 2
#     Edge 21, Type (0, 1), BuildingBlock: UVAHIK_clean_linker_0, # of connection points: 2
#     Edge 22, Type (0, 1), BuildingBlock: UVAHIK_clean_linker_0, # of connection points: 2
#     Edge 23, Type (0, 1), BuildingBlock: UVAHIK_clean_linker_0, # of connection points: 2
#     Edge 24, Type (0, 1), BuildingBlock: UVAHIK_clean_linker_0, # of connection points: 2
#     Edge 25, Type (0, 1), BuildingBlock: UVAHIK_clean_linker_0, # of connection points: 2
#     Edge 26, Type (0, 1), BuildingBlock: UVAHIK_clean_linker_0, # of connection points: 2
#     Edge 27, Type (0, 1), BuildingBlock: UVAHIK_clean_linker_0, # of connection points: 2
#     Edge 28, Type (0, 1), BuildingBlock: UVAHIK_clean_linker_0, # of connection points: 2
#     Edge 29, Type (0, 1), BuildingBlock: UVAHIK_clean_linker_0, # of connection points: 2
#     Edge 30, Type (0, 1), BuildingBlock: UVAHIK_clean_linker_0, # of connection points: 2
#     Edge 31, Type (0, 1), BuildingBlock: UVAHIK_clean_linker_0, # of connection points: 2
#     Edge 32, Type (0, 1), BuildingBlock: UVAHIK_clean_linker_0, # of connection points: 2
# Relax obj value: 0.028
# Max RMSD: 0.113
# Mean RMSD: 0.043
data_MOF--net-csq--node1-TAGTUT_clean_sbu_3--node2-NAWXER_clean_linker_0--edge1-UVAHIK_clean_linker_0
_symmetry_space_group_name_H-M    P1
_symmetry_Int_Tables_number       1
_symmetry_cell_setting            triclinic
loop_
_symmetry_equiv_pos_as_xyz
'x, y, z'
_cell_length_a     76.05686
_cell_length_b     75.127894
_cell_length_c     26.86388
_cell_angle_alpha  92.005324
_cell_angle_beta   92.178241
_cell_angle_gamma 119.94837
loop_
_atom_site_label
_atom_site_type_symbol
_atom_site_fract_x
_atom_site_fract_y
_atom_site_fract_z
_atom_type_partial_charge
C0 C 0.29615 0.47974 0.05233 0.0
C1 C 0.29244 0.46151 0.02632 0.0
C2 C 0.28087 0.48032 0.0781 0.0
C3 C 0.26163 0.46264 0.07886 0.0
C4 C 0.27299 0.44395 0.02611 0.0
C5 C 0.25767 0.44455 0.05199 0.0
C6 C 0.24565 0.4632 0.10729 0.0
C7 C 0.29261 0.46561 0.21119 0.0
C8 C 0.30535 0.4852 0.23471 0.0
C9 C 0.27388 0.46071 0.18832 0.0
C10 C 0.26767 0.47544 0.18758 0.0
C11 C 0.29863 0.49957 0.23664 0.0
C12 C 0.27987 0.49471 0.21315 0.0
C13 C 0.2491 0.47096 0.15745 0.0
C14 C 0.16709 0.45965 0.20523 0.0
C15 C 0.17346 0.47874 0.23101 0.0
C16 C 0.18098 0.45595 0.18098 0.0
C17 C 0.20147 0.47141 0.1809 0.0
C18 C 0.19412 0.49399 0.23199 0.0
C19 C 0.20796 0.49034 0.20728 0.0
C20 C 0.21637 0.46799 0.15438 0.0
C21 C 0.17053 0.4617 0.03177 0.0
C22 C 0.16017 0.44206 0.00673 0.0
C23 C 0.18727 0.46718 0.06495 0.0
C24 C 0.19381 0.45306 0.07385 0.0
C25 C 0.16656 0.42786 0.01639 0.0
C26 C 0.18336 0.43339 0.04937 0.0
C27 C 0.21259 0.4592 0.10489 0.0
H28 H 0.3108 0.49367 0.0522 0.0
H29 H 0.28408 0.49463 0.09739 0.0
H30 H 0.26969 0.42966 0.00657 0.0
H31 H 0.24286 0.4308 0.05184 0.0
H32 H 0.29716 0.45405 0.21038 0.0
H33 H 0.26443 0.44553 0.17001 0.0
H34 H 0.30814 0.51473 0.25493 0.0
H35 H 0.27526 0.50622 0.21329 0.0
H36 H 0.1513 0.44757 0.20334 0.0
H37 H 0.17565 0.44096 0.16232 0.0
H38 H 0.19969 0.5087 0.25233 0.0
H39 H 0.22376 0.50242 0.20835 0.0
H40 H 0.16582 0.4729 0.02528 0.0
H41 H 0.19538 0.48259 0.08267 0.0
H42 H 0.15899 0.41271 0.99723 0.0
H43 H 0.18836 0.42237 0.05536 0.0
N44 N 0.22742 0.45727 0.08319 0.0
N45 N 0.23451 0.47344 0.17898 0.0
C46 C 0.70202 0.18277 0.1609 0.0
C47 C 0.70613 0.17171 0.19619 0.0
C48 C 0.71785 0.19963 0.14006 0.0
C49 C 0.73819 0.20551 0.15282 0.0
C50 C 0.72657 0.17836 0.21096 0.0
C51 C 0.74244 0.19512 0.1895 0.0
C52 C 0.75489 0.22212 0.12695 0.0
C53 C 0.71775 0.16945 0.01868 0.0
C54 C 0.70747 0.17373 0.98082 0.0
C55 C 0.7337 0.1855 0.04783 0.0
C56 C 0.73903 0.206 0.04072 0.0
C57 C 0.7136 0.19422 0.97158 0.0
C58 C 0.72927 0.21028 0.00148 0.0
C59 C 0.75447 0.22299 0.07457 0.0
C60 C 0.83248 0.30027 0.03462 0.0
C61 C 0.82421 0.3069 0.99673 0.0
C62 C 0.81972 0.28392 0.06309 0.0
C63 C 0.79846 0.27433 0.055 0.0
C64 C 0.80301 0.29724 0.98865 0.0
C65 C 0.79031 0.28119 0.01746 0.0
C66 C 0.78429 0.2562 0.08202 0.0
C67 C 0.82055 0.30574 0.20479 0.0
C68 C 0.83047 0.29992 0.24045 0.0
C69 C 0.8061 0.29118 0.16953 0.0
C70 C 0.8016 0.27065 0.16883 0.0
C71 C 0.82577 0.2793 0.23978 0.0
C72 C 0.81143 0.26481 0.2044 0.0
C73 C 0.78551 0.25467 0.13431 0.0
H74 H 0.68656 0.17811 0.14821 0.0
H75 H 0.71416 0.20777 0.11287 0.0
H76 H 0.73035 0.17057 0.23893 0.0
H77 H 0.75803 0.1996 0.20055 0.0
H78 H 0.71345 0.15371 0.02561 0.0
H79 H 0.74157 0.18187 0.0766 0.0
H80 H 0.70586 0.19775 0.94223 0.0
H81 H 0.73333 0.22598 0.99494 0.0
H82 H 0.84881 0.30732 0.04117 0.0
H83 H 0.82648 0.27854 0.09051 0.0
H84 H 0.79622 0.30213 0.95999 0.0
H85 H 0.77399 0.27402 0.01016 0.0
H86 H 0.82397 0.32155 0.20407 0.0
H87 H 0.79826 0.29591 0.14333 0.0
H88 H 0.83287 0.27425 0.26722 0.0
H89 H 0.80791 0.24896 0.20499 0.0
N90 N 0.77067 0.23776 0.15471 0.0
N91 N 0.76887 0.24012 0.0543 0.0
C92 C 0.56924 0.72397 0.94974 0.0
C93 C 0.55765 0.71757 0.90387 0.0
C94 C 0.56489 0.73427 0.98734 0.0
C95 C 0.54883 0.73824 0.97968 0.0
C96 C 0.54146 0.7214 0.89676 0.0
C97 C 0.53721 0.73175 0.93411 0.0
C98 C 0.54525 0.75093 0.01641 0.0
C99 C 0.52605 0.69255 0.09514 0.0
C100 C 0.53667 0.69489 0.14117 0.0
C101 C 0.52918 0.70979 0.07003 0.0
C102 C 0.54309 0.72973 0.09023 0.0
C103 C 0.55104 0.71487 0.16048 0.0
C104 C 0.55409 0.73209 0.13546 0.0
C105 C 0.54427 0.74801 0.06799 0.0
C106 C 0.51744 0.80563 0.1478 0.0
C107 C 0.52832 0.81106 0.19463 0.0
C108 C 0.52166 0.79523 0.11019 0.0
C109 C 0.53718 0.79049 0.1182 0.0
C110 C 0.54385 0.80629 0.20242 0.0
C111 C 0.54822 0.79615 0.16464 0.0
C112 C 0.54056 0.77759 0.08125 0.0
C113 C 0.55138 0.83228 0.99047 0.0
C114 C 0.53766 0.82662 0.94829 0.0
C115 C 0.55198 0.81721 0.01856 0.0
C116 C 0.53886 0.79627 0.00493 0.0
C117 C 0.5242 0.80561 0.93583 0.0
C118 C 0.52492 0.79064 0.96358 0.0
C119 C 0.54086 0.78002 0.02932 0.0
H120 H 0.5819 0.72137 0.95621 0.0
H121 H 0.57442 0.73964 0.02175 0.0
H122 H 0.5319 0.71624 0.86241 0.0
H123 H 0.52481 0.73474 0.92735 0.0
H124 H 0.51464 0.67744 0.07956 0.0
H125 H 0.52 0.70751 0.03603 0.0
H126 H 0.55973 0.71723 0.19542 0.0
H127 H 0.56479 0.74731 0.15196 0.0
H128 H 0.5055 0.80922 0.14026 0.0
H129 H 0.51231 0.79037 0.07555 0.0
H130 H 0.5523 0.80985 0.23821 0.0
H131 H 0.56004 0.79236 0.1721 0.0
H132 H 0.56208 0.84832 0.00085 0.0
H133 H 0.56315 0.82189 0.04972 0.0
H134 H 0.51313 0.80068 0.90438 0.0
H135 H 0.51469 0.77456 0.95235 0.0
N136 N 0.5433 0.76665 0.99921 0.0
N137 N 0.54221 0.76162 0.09838 0.0
C138 C 0.83947 0.56811 0.94718 0.0
C139 C 0.83562 0.54797 0.93623 0.0
C140 C 0.82585 0.5715 0.97348 0.0
C141 C 0.80797 0.55483 0.98867 0.0
C142 C 0.81711 0.53127 0.94932 0.0
C143 C 0.80331 0.5347 0.97501 0.0
C144 C 0.79552 0.55848 0.02377 0.0
C145 C 0.84673 0.55999 0.11436 0.0
C146 C 0.86169 0.57993 0.1323 0.0
C147 C 0.82794 0.55624 0.09442 0.0
C148 C 0.82371 0.57234 0.0917 0.0
C149 C 0.85742 0.59609 0.12933 0.0
C150 C 0.83849 0.59227 0.10946 0.0
C151 C 0.80353 0.56799 0.07174 0.0
C152 C 0.72942 0.55199 0.17527 0.0
C153 C 0.73687 0.57051 0.20459 0.0
C154 C 0.74068 0.55031 0.13752 0.0
C155 C 0.75943 0.56725 0.12734 0.0
C156 C 0.75575 0.58742 0.19466 0.0
C157 C 0.76696 0.58576 0.15652 0.0
C158 C 0.77187 0.56526 0.08892 0.0
C159 C 0.71511 0.55623 0.00841 0.0
C160 C 0.7028 0.53646 0.98511 0.0
C161 C 0.735 0.56265 0.02619 0.0
C162 C 0.74286 0.54931 0.02162 0.0
C163 C 0.71081 0.52324 0.98006 0.0
C164 C 0.73068 0.52965 0.99797 0.0
C165 C 0.76385 0.55582 0.04054 0.0
H166 H 0.85325 0.58134 0.93641 0.0
H167 H 0.82959 0.58715 0.98346 0.0
H168 H 0.81367 0.51557 0.94181 0.0
H169 H 0.7896 0.52167 0.9868 0.0
H170 H 0.84923 0.54707 0.1173 0.0
H171 H 0.81652 0.54063 0.0821 0.0
H172 H 0.86864 0.61164 0.14261 0.0
H173 H 0.83541 0.60485 0.1078 0.0
H174 H 0.71485 0.53872 0.18146 0.0
H175 H 0.73483 0.53563 0.11675 0.0
H176 H 0.76205 0.60181 0.21698 0.0
H177 H 0.78156 0.59893 0.14987 0.0
H178 H 0.70953 0.56693 0.01186 0.0
H179 H 0.7443 0.57811 0.0431 0.0
H180 H 0.70167 0.50788 0.96252 0.0
H181 H 0.73647 0.51914 0.99389 0.0
N182 N 0.77596 0.55265 0.0098 0.0
N183 N 0.79148 0.57111 0.10257 0.0
C184 C 0.26612 0.8664 0.02348 0.0
C185 C 0.27055 0.86151 0.97636 0.0
C186 C 0.2519 0.85095 0.05142 0.0
C187 C 0.24216 0.83024 0.03332 0.0
C188 C 0.26004 0.84092 0.95717 0.0
C189 C 0.24596 0.82543 0.9854 0.0
C190 C 0.22815 0.81355 0.06418 0.0
C191 C 0.28938 0.83836 0.14358 0.0
C192 C 0.29214 0.85189 0.18424 0.0
C193 C 0.27 0.82565 0.12078 0.0
C194 C 0.25317 0.82615 0.13891 0.0
C195 C 0.2753 0.8524 0.20232 0.0
C196 C 0.25584 0.83936 0.18017 0.0
C197 C 0.23281 0.81258 0.11485 0.0
C198 C 0.17137 0.72865 0.16992 0.0
C199 C 0.16822 0.73366 0.21857 0.0
C200 C 0.18138 0.74405 0.13662 0.0
C201 C 0.18809 0.76474 0.1509 0.0
C202 C 0.17483 0.75438 0.23243 0.0
C203 C 0.18465 0.76969 0.19904 0.0
C204 C 0.20103 0.78165 0.11917 0.0
C205 C 0.1426 0.74189 0.02297 0.0
C206 C 0.14593 0.73535 0.97635 0.0
C207 C 0.159 0.75711 0.05341 0.0
C208 C 0.17891 0.76559 0.03794 0.0
C209 C 0.16584 0.74406 0.96102 0.0
C210 C 0.1821 0.759 0.9914 0.0
C211 C 0.19672 0.7821 0.06759 0.0
H212 H 0.27369 0.88219 0.03875 0.0
H213 H 0.24865 0.85521 0.08737 0.0
H214 H 0.2632 0.8367 0.92102 0.0
H215 H 0.2385 0.8096 0.97038 0.0
H216 H 0.30221 0.83774 0.12931 0.0
H217 H 0.2681 0.81534 0.0892 0.0
H218 H 0.27719 0.86264 0.23405 0.0
H219 H 0.24295 0.83979 0.19467 0.0
H220 H 0.16635 0.71286 0.1577 0.0
H221 H 0.18443 0.73981 0.10038 0.0
H222 H 0.17308 0.75895 0.26974 0.0
H223 H 0.19002 0.78557 0.21133 0.0
H224 H 0.12736 0.73541 0.03554 0.0
H225 H 0.1561 0.76233 0.0886 0.0
H226 H 0.16893 0.73902 0.92582 0.0
H227 H 0.1973 0.76531 0.97858 0.0
N228 N 0.21042 0.79812 0.0424 0.0
N229 N 0.21902 0.79695 0.14062 0.0
C230 C 0.50207 0.19982 0.05977 0.0
C231 C 0.49206 0.1884 0.01481 0.0
C232 C 0.49312 0.20839 0.08931 0.0
C233 C 0.47399 0.20569 0.07448 0.0
C234 C 0.47281 0.18562 0.00042 0.0
C235 C 0.46399 0.19437 0.02971 0.0
C236 C 0.46525 0.21616 0.10313 0.0
C237 C 0.46254 0.16736 0.20132 0.0
C238 C 0.47117 0.17418 0.25045 0.0
C239 C 0.46012 0.18052 0.16981 0.0
C240 C 0.46681 0.20101 0.18617 0.0
C241 C 0.47771 0.19466 0.2667 0.0
C242 C 0.47563 0.20788 0.23494 0.0
C243 C 0.46322 0.21501 0.15512 0.0
C244 C 0.42891 0.27029 0.20599 0.0
C245 C 0.43963 0.2778 0.25279 0.0
C246 C 0.43365 0.25864 0.173 0.0
C247 C 0.44946 0.25476 0.18611 0.0
C248 C 0.45549 0.27402 0.26538 0.0
C249 C 0.46033 0.26266 0.23249 0.0
C250 C 0.45401 0.24114 0.15478 0.0
C251 C 0.46821 0.29273 0.05102 0.0
C252 C 0.45523 0.28635 0.00725 0.0
C253 C 0.46753 0.27833 0.08365 0.0
C254 C 0.45397 0.25727 0.07306 0.0
C255 C 0.44114 0.26523 0.99793 0.0
C256 C 0.44072 0.25083 0.03016 0.0
C257 C 0.45551 0.24186 0.10263 0.0
H258 H 0.51703 0.20257 0.07161 0.0
H259 H 0.50135 0.21757 0.1231 0.0
H260 H 0.46448 0.1766 0.96656 0.0
H261 H 0.44929 0.19228 0.01747 0.0
H262 H 0.4575 0.15178 0.18715 0.0
H263 H 0.45256 0.17445 0.13317 0.0
H264 H 0.48399 0.20043 0.30448 0.0
H265 H 0.48071 0.22351 0.24891 0.0
H266 H 0.41661 0.27303 0.19547 0.0
H267 H 0.42463 0.25225 0.13808 0.0
H268 H 0.46434 0.28003 0.30069 0.0
H269 H 0.4726 0.25994 0.24356 0.0
H270 H 0.47954 0.30875 0.05919 0.0
H271 H 0.47824 0.28358 0.11595 0.0
H272 H 0.4306 0.25971 0.96532 0.0
H273 H 0.43026 0.2346 0.02117 0.0
N274 N 0.46107 0.22933 0.07889 0.0
N275 N 0.45777 0.22763 0.17861 0.0
C276 C 0.03291 0.4956 0.53892 0.0
C277 C 0.01901 0.46052 0.71297 0.0
C278 C 0.96514 0.46477 0.70331 0.0
Mg279 Mg 0.018 0.52612 0.49553 0.0
Mg280 Mg 0.0108 0.55672 0.57241 0.0
O281 O 0.00398 0.52966 0.55379 0.0
Mg282 Mg 0.00921 0.51339 0.60327 0.0
O283 O 0.01433 0.49559 0.64852 0.0
Mg284 Mg 0.99643 0.46792 0.61209 0.0
Mg285 Mg 0.00999 0.49663 0.71625 0.0
C286 C 0.98602 0.5332 0.66472 0.0
O287 O 0.03349 0.54187 0.65196 0.0
O288 O 0.00295 0.54153 0.44967 0.0
O289 O 0.02755 0.52974 0.729 0.0
O290 O 0.04662 0.55818 0.50952 0.0
O291 O 0.99734 0.56092 0.50571 0.0
O292 O 0.0429 0.57738 0.56848 0.0
O293 O 0.98465 0.48423 0.56109 0.0
O294 O 0.98988 0.49407 0.48304 0.0
C295 C 0.98033 0.48035 0.51404 0.0
C296 C 0.99631 0.55386 0.46087 0.0
O297 O 0.98715 0.51704 0.65325 0.0
O298 O 0.01101 0.45517 0.66801 0.0
O299 O 0.99539 0.54999 0.64208 0.0
O300 O 0.96963 0.4581 0.66411 0.0
O301 O 0.02045 0.47612 0.73792 0.0
O302 O 0.9782 0.48142 0.7273 0.0
O303 O 0.03088 0.51125 0.54971 0.0
O304 O 0.02258 0.47859 0.5599 0.0
C305 C 0.05365 0.5749 0.53667 0.0
C306 C 0.03601 0.54459 0.69994 0.0
C307 C 0.49377 0.02596 0.51546 0.0
C308 C 0.54601 0.00826 0.43667 0.0
C309 C 0.51267 0.95166 0.51339 0.0
Mg310 Mg 0.47109 0.01223 0.6174 0.0
Mg311 Mg 0.4903 0.00031 0.71262 0.0
O312 O 0.48175 0.99458 0.64499 0.0
Mg313 Mg 0.50182 0.99847 0.59422 0.0
O314 O 0.52026 0.00273 0.53913 0.0
Mg315 Mg 0.49944 0.98712 0.48237 0.0
Mg316 Mg 0.54101 0.99636 0.54717 0.0
C317 C 0.5091 0.9723 0.68045 0.0
O318 O 0.53018 0.0213 0.64385 0.0
O319 O 0.44694 0.99899 0.67711 0.0
O320 O 0.55432 0.01476 0.61646 0.0
O321 O 0.49192 0.04077 0.67073 0.0
O322 O 0.46085 0.99039 0.7406 0.0
O323 O 0.50866 0.03277 0.72695 0.0
O324 O 0.47527 0.97575 0.54134 0.0
O325 O 0.45217 0.98428 0.56297 0.0
C326 C 0.45735 0.9733 0.5365 0.0
C327 C 0.44597 0.9915 0.71993 0.0
O328 O 0.507 0.97402 0.63326 0.0
O329 O 0.52679 0.00159 0.43071 0.0
O330 O 0.50487 0.98194 0.71405 0.0
O331 O 0.5025 0.95818 0.48882 0.0
O332 O 0.55452 0.00756 0.47806 0.0
O333 O 0.52777 0.96363 0.54337 0.0
O334 O 0.49608 0.02287 0.56124 0.0
O335 O 0.49544 0.01525 0.47976 0.0
C336 C 0.50525 0.04596 0.70704 0.0
C337 C 0.54822 0.02382 0.64689 0.0
C338 C 0.51214 0.53958 0.65062 0.0
C339 C 0.44915 0.47471 0.72154 0.0
C340 C 0.48215 0.44443 0.68241 0.0
Mg341 Mg 0.54202 0.54059 0.56653 0.0
Mg342 Mg 0.52708 0.50371 0.47728 0.0
O343 O 0.52948 0.51049 0.54577 0.0
Mg344 Mg 0.50521 0.49909 0.58706 0.0
O345 O 0.48243 0.48928 0.63264 0.0
Mg346 Mg 0.49849 0.49552 0.69834 0.0
Mg347 Mg 0.46077 0.46218 0.62124 0.0
C348 C 0.49981 0.45925 0.51815 0.0
O349 O 0.48183 0.49448 0.5236 0.0
O350 O 0.56992 0.54604 0.52234 0.0
O351 O 0.45389 0.46542 0.54366 0.0
O352 O 0.52799 0.5471 0.49666 0.0
O353 O 0.55912 0.51883 0.46704 0.0
O354 O 0.51469 0.52042 0.44039 0.0
O355 O 0.52654 0.50309 0.65358 0.0
O356 O 0.55403 0.53261 0.63677 0.0
C357 C 0.54478 0.51763 0.66505 0.0
C358 C 0.57324 0.53586 0.48812 0.0
O359 O 0.49796 0.46653 0.56042 0.0
O360 O 0.46812 0.48648 0.73486 0.0
O361 O 0.50909 0.47056 0.48238 0.0
O362 O 0.49183 0.46232 0.70476 0.0
O363 O 0.44304 0.46428 0.67939 0.0
O364 O 0.4703 0.4408 0.64376 0.0
O365 O 0.51328 0.5317 0.60875 0.0
O366 O 0.50568 0.52874 0.68867 0.0
C367 C 0.51829 0.53835 0.4549 0.0
C368 C 0.46338 0.47984 0.51388 0.0
C369 C 0.14294 0.46681 0.28193 0.0
C370 C 0.15867 0.4826 0.25724 0.0
C371 C 0.12894 0.47028 0.30624 0.0
C372 C 0.12206 0.5104 0.367 0.0
H373 H 0.06498 0.46859 0.35205 0.0
C374 C 0.0467 0.47834 0.48514 0.0
C375 C 0.04668 0.49643 0.50034 0.0
C376 C 0.05976 0.47865 0.44987 0.0
C377 C 0.08087 0.48041 0.35672 0.0
H378 H 0.17185 0.51451 0.23877 0.0
H379 H 0.14759 0.52065 0.2825 0.0
H380 H 0.08922 0.46526 0.30146 0.0
H381 H 0.06038 0.52909 0.48983 0.0
H382 H 0.08341 0.52962 0.4276 0.0
H383 H 0.11375 0.52514 0.42373 0.0
C384 C 0.1462 0.50559 0.2828 0.0
C385 C 0.09473 0.47849 0.32774 0.0
C386 C 0.16012 0.50206 0.25797 0.0
C387 C 0.06001 0.51489 0.47891 0.0
C388 C 0.07324 0.51521 0.44347 0.0
C389 C 0.10816 0.51227 0.39633 0.0
C390 C 0.1304 0.48968 0.30692 0.0
C391 C 0.11553 0.49316 0.3335 0.0
C392 C 0.07321 0.49704 0.42859 0.0
C393 C 0.0875 0.49696 0.39249 0.0
H394 H 0.14158 0.45178 0.28319 0.0
H395 H 0.11714 0.45784 0.32535 0.0
H396 H 0.13803 0.52192 0.37226 0.0
H397 H 0.03669 0.46381 0.50074 0.0
H398 H 0.0596 0.46446 0.44009 0.0
C399 C 0.67055 0.15211 0.22505 0.0
C400 C 0.68916 0.15309 0.21648 0.0
C401 C 0.65438 0.13437 0.24229 0.0
C402 C 0.64309 0.09011 0.31388 0.0
H403 H 0.5885 0.06644 0.25222 0.0
C404 C 0.57778 0.01928 0.39269 0.0
C405 C 0.55948 0.01937 0.39691 0.0
C406 C 0.59264 0.03301 0.36283 0.0
C407 C 0.6036 0.07294 0.27021 0.0
H408 H 0.70511 0.13586 0.21918 0.0
H409 H 0.6771 0.10523 0.25107 0.0
H410 H 0.61659 0.0962 0.21733 0.0
H411 H 0.5419 0.03311 0.3713 0.0
H412 H 0.56808 0.05765 0.32056 0.0
H413 H 0.63028 0.06773 0.36813 0.0
C414 C 0.67511 0.11825 0.24412 0.0
C415 C 0.61968 0.08994 0.25008 0.0
C416 C 0.6912 0.13589 0.22621 0.0
C417 C 0.5558 0.03259 0.36833 0.0
C418 C 0.57087 0.04667 0.3392 0.0
C419 C 0.62702 0.07334 0.33444 0.0
C420 C 0.65651 0.11729 0.25209 0.0
C421 C 0.63956 0.09875 0.27192 0.0
C422 C 0.58978 0.04754 0.33744 0.0
C423 C 0.607 0.06454 0.31308 0.0
H424 H 0.66849 0.16514 0.21897 0.0
H425 H 0.64032 0.13415 0.2489 0.0
H426 H 0.65822 0.09676 0.33184 0.0
H427 H 0.58091 0.00909 0.41402 0.0
H428 H 0.60669 0.03271 0.36116 0.0
C429 C 0.52789 0.65794 0.14641 0.0
C430 C 0.53193 0.67668 0.17029 0.0
C431 C 0.52291 0.64075 0.17397 0.0
C432 C 0.50492 0.61977 0.29705 0.0
H433 H 0.52912 0.58616 0.26702 0.0
C434 C 0.51494 0.56912 0.43812 0.0
C435 C 0.51296 0.55028 0.42083 0.0
C436 C 0.51314 0.58206 0.4048 0.0
C437 C 0.52193 0.59515 0.27534 0.0
H438 H 0.53357 0.69187 0.24196 0.0
H439 H 0.52562 0.66226 0.28999 0.0
H440 H 0.53471 0.61391 0.21386 0.0
H441 H 0.5062 0.52967 0.35527 0.0
H442 H 0.50314 0.55239 0.29699 0.0
H443 H 0.49275 0.60141 0.35962 0.0
C444 C 0.52596 0.66068 0.24987 0.0
C445 C 0.52514 0.61109 0.24487 0.0
C446 C 0.53087 0.6778 0.22236 0.0
C447 C 0.50793 0.54413 0.3698 0.0
C448 C 0.5063 0.55718 0.33636 0.0
C449 C 0.5018 0.60391 0.32766 0.0
C450 C 0.52186 0.64191 0.22607 0.0
C451 C 0.517 0.62385 0.25589 0.0
C452 C 0.50942 0.57652 0.35337 0.0
C453 C 0.51056 0.59166 0.31765 0.0
H454 H 0.5287 0.65656 0.10641 0.0
H455 H 0.5197 0.6265 0.15437 0.0
H456 H 0.49803 0.629 0.306 0.0
H457 H 0.51867 0.57428 0.47723 0.0
H458 H 0.51573 0.59689 0.41908 0.0
C459 C 0.89028 0.57234 0.14029 0.0
C460 C 0.88091 0.58327 0.15752 0.0
C461 C 0.90625 0.57272 0.16868 0.0
C462 C 0.92451 0.58019 0.30013 0.0
H463 H 0.96892 0.57521 0.24857 0.0
C464 C 0.98262 0.57604 0.43211 0.0
C465 C 0.98685 0.56016 0.42127 0.0
C466 C 0.97241 0.58125 0.39667 0.0
C467 C 0.95652 0.5765 0.26334 0.0
H468 H 0.88206 0.60445 0.21634 0.0
H469 H 0.91039 0.60576 0.26475 0.0
H470 H 0.94687 0.5814 0.19163 0.0
H471 H 0.98446 0.53794 0.36371 0.0
H472 H 0.96626 0.54696 0.30161 0.0
H473 H 0.93387 0.57506 0.37149 0.0
C474 C 0.90499 0.59639 0.22998 0.0
C475 C 0.94393 0.58007 0.23084 0.0
C476 C 0.88891 0.59586 0.20184 0.0
C477 C 0.98136 0.55018 0.37328 0.0
C478 C 0.97104 0.55541 0.33766 0.0
C479 C 0.93709 0.57674 0.33245 0.0
C480 C 0.9133 0.5842 0.21472 0.0
C481 C 0.92773 0.58188 0.24893 0.0
C482 C 0.96609 0.5707 0.34951 0.0
C483 C 0.95319 0.57481 0.31447 0.0
H484 H 0.88476 0.56284 0.10571 0.0
H485 H 0.91228 0.56315 0.15579 0.0
H486 H 0.91186 0.58091 0.31519 0.0
H487 H 0.98692 0.58433 0.46837 0.0
H488 H 0.96916 0.59338 0.40651 0.0
C489 C 0.32084 0.88651 0.21283 0.0
C490 C 0.31248 0.86513 0.20886 0.0
C491 C 0.33931 0.89895 0.23999 0.0
C492 C 0.38317 0.89867 0.30736 0.0
H493 H 0.38261 0.94158 0.39049 0.0
C494 C 0.44864 0.95339 0.45354 0.0
C495 C 0.44247 0.95873 0.49753 0.0
C496 C 0.43429 0.94178 0.41431 0.0
C497 C 0.38296 0.92956 0.36783 0.0
H498 H 0.31684 0.83981 0.2281 0.0
H499 H 0.34867 0.86136 0.27783 0.0
H500 H 0.3554 0.9223 0.3273 0.0
H501 H 0.41647 0.95472 0.53684 0.0
H502 H 0.39153 0.93398 0.46966 0.0
H503 H 0.41029 0.90536 0.35058 0.0
C504 C 0.34143 0.86873 0.25885 0.0
C505 C 0.36751 0.91872 0.3308 0.0
C506 C 0.32314 0.85634 0.23077 0.0
C507 C 0.4217 0.9512 0.50292 0.0
C508 C 0.40743 0.93943 0.46427 0.0
C509 C 0.39859 0.90943 0.34502 0.0
C510 C 0.3495 0.89015 0.26478 0.0
C511 C 0.36722 0.90294 0.30051 0.0
C512 C 0.41359 0.93519 0.41889 0.0
C513 C 0.39836 0.92468 0.37632 0.0
H514 H 0.31291 0.89355 0.1955 0.0
H515 H 0.34533 0.91543 0.24264 0.0
H516 H 0.38357 0.88681 0.2842 0.0
H517 H 0.46456 0.95893 0.4485 0.0
H518 H 0.43949 0.9387 0.37982 0.0
C519 C 0.43414 0.30737 0.27322 0.0
C520 C 0.43512 0.2902 0.28855 0.0
C521 C 0.43452 0.32164 0.30873 0.0
C522 C 0.45804 0.3421 0.43201 0.0
H523 H 0.43412 0.37689 0.41859 0.0
C524 C 0.46998 0.42393 0.52208 0.0
C525 C 0.48994 0.43685 0.50862 0.0
C526 C 0.45958 0.40305 0.50614 0.0
C527 C 0.44062 0.36705 0.42342 0.0
H528 H 0.43486 0.27315 0.35225 0.0
H529 H 0.43557 0.29809 0.4142 0.0
H530 H 0.41979 0.34442 0.36755 0.0
H531 H 0.51509 0.4382 0.47038 0.0
H532 H 0.49721 0.40162 0.444 0.0
H533 H 0.47968 0.36534 0.48533 0.0
C534 C 0.43489 0.30074 0.37496 0.0
C535 C 0.43254 0.34861 0.39405 0.0
C536 C 0.43451 0.28651 0.33956 0.0
C537 C 0.49972 0.42848 0.48126 0.0
C538 C 0.48953 0.4076 0.4664 0.0
C539 C 0.46626 0.36061 0.46077 0.0
C540 C 0.43585 0.3189 0.36 0.0
C541 C 0.44156 0.33626 0.39707 0.0
C542 C 0.46924 0.39483 0.47767 0.0
C543 C 0.458 0.37351 0.45559 0.0
H544 H 0.43464 0.31057 0.23414 0.0
H545 H 0.43536 0.33557 0.29611 0.0
H546 H 0.46549 0.33305 0.4348 0.0
H547 H 0.46206 0.43018 0.54251 0.0
H548 H 0.44391 0.39344 0.51503 0.0
C549 C 0.53427 0.83893 0.86455 0.0
C550 C 0.5374 0.8424 0.91681 0.0
C551 C 0.53285 0.85316 0.83502 0.0
C552 C 0.52109 0.89518 0.84454 0.0
H553 H 0.54318 0.90798 0.71424 0.0
C554 C 0.52564 0.96272 0.74719 0.0
C555 C 0.51648 0.95869 0.69859 0.0
C556 C 0.52986 0.94864 0.76896 0.0
C557 C 0.5368 0.90436 0.75036 0.0
H558 H 0.54212 0.86395 0.97873 0.0
H559 H 0.5403 0.88907 0.92721 0.0
H560 H 0.54775 0.88346 0.76329 0.0
H561 H 0.50607 0.9375 0.63306 0.0
H562 H 0.51353 0.91253 0.67173 0.0
H563 H 0.51044 0.91622 0.83217 0.0
C564 C 0.53846 0.87508 0.9091 0.0
C565 C 0.53939 0.89036 0.77846 0.0
C566 C 0.53977 0.86079 0.93865 0.0
C567 C 0.51302 0.94091 0.6707 0.0
C568 C 0.51727 0.92668 0.69276 0.0
C569 C 0.51866 0.9092 0.81676 0.0
C570 C 0.53463 0.87128 0.857 0.0
C571 C 0.53175 0.88581 0.82619 0.0
C572 C 0.52503 0.93015 0.74277 0.0
C573 C 0.52671 0.91415 0.76975 0.0
H574 H 0.5328 0.82512 0.84634 0.0
H575 H 0.52981 0.84968 0.79511 0.0
H576 H 0.51448 0.89162 0.8804 0.0
H577 H 0.52898 0.97652 0.76927 0.0
H578 H 0.53631 0.95194 0.80709 0.0
C579 C 0.66912 0.53478 0.99065 0.0
C580 C 0.682 0.53 0.96428 0.0
C581 C 0.6501 0.52999 0.96926 0.0
C582 C 0.6123 0.49999 0.86345 0.0
H583 H 0.60131 0.54513 0.87044 0.0
C584 C 0.57388 0.53505 0.72882 0.0
C585 C 0.55567 0.51735 0.7115 0.0
C586 C 0.58536 0.53457 0.76984 0.0
C587 C 0.60408 0.53231 0.86842 0.0
H588 H 0.68486 0.51609 0.89524 0.0
H589 H 0.65189 0.50793 0.85779 0.0
H590 H 0.6291 0.54709 0.9229 0.0
H591 H 0.53475 0.48544 0.725 0.0
H592 H 0.55498 0.48458 0.79701 0.0
H593 H 0.58809 0.48584 0.80651 0.0
C594 C 0.65623 0.51499 0.89539 0.0
C595 C 0.61988 0.53333 0.89886 0.0
C596 C 0.6752 0.51974 0.91679 0.0
C597 C 0.54874 0.49932 0.73741 0.0
C598 C 0.56035 0.4988 0.77847 0.0
C599 C 0.59651 0.49899 0.8329 0.0
C600 C 0.6436 0.52035 0.92102 0.0
C601 C 0.62463 0.51751 0.89543 0.0
C602 C 0.57895 0.51636 0.79457 0.0
C603 C 0.59273 0.51549 0.83377 0.0
H604 H 0.67383 0.5424 0.02768 0.0
H605 H 0.64062 0.53409 0.99022 0.0
H606 H 0.61536 0.48738 0.8606 0.0
H607 H 0.5796 0.54924 0.70996 0.0
H608 H 0.59974 0.54828 0.78076 0.0
C609 C 0.12844 0.72034 0.89225 0.0
C610 C 0.12912 0.71872 0.94418 0.0
C611 C 0.11533 0.70325 0.86067 0.0
C612 C 0.07179 0.65005 0.85598 0.0
H613 H 0.10123 0.63978 0.75461 0.0
C614 C 0.04589 0.56897 0.77478 0.0
C615 C 0.04717 0.56576 0.72346 0.0
C616 C 0.0544 0.58879 0.79683 0.0
C617 C 0.09264 0.64256 0.782 0.0
H618 H 0.11557 0.69849 0.00406 0.0
H619 H 0.09255 0.66857 0.94886 0.0
H620 H 0.11724 0.67292 0.80192 0.0
H621 H 0.05933 0.58099 0.65575 0.0
H622 H 0.07401 0.61585 0.69424 0.0
H623 H 0.04736 0.61951 0.83683 0.0
C624 C 0.10212 0.68306 0.93256 0.0
C625 C 0.1018 0.66155 0.8091 0.0
C626 C 0.11528 0.70018 0.9642 0.0
C627 C 0.05778 0.58294 0.69507 0.0
C628 C 0.06629 0.60288 0.71722 0.0
C629 C 0.06259 0.6311 0.82872 0.0
C630 C 0.1026 0.68425 0.88044 0.0
C631 C 0.09165 0.66529 0.84719 0.0
C632 C 0.0644 0.60598 0.76823 0.0
C633 C 0.07315 0.62695 0.79244 0.0
H634 H 0.13871 0.7346 0.87593 0.0
H635 H 0.11573 0.70469 0.82068 0.0
H636 H 0.06354 0.65264 0.88466 0.0
H637 H 0.03792 0.55616 0.79804 0.0
H638 H 0.05316 0.59064 0.83649 0.0
C639 C 0.49918 0.17872 0.93063 0.0
C640 C 0.50157 0.17938 0.98294 0.0
C641 C 0.50678 0.16891 0.90061 0.0
C642 C 0.52018 0.12827 0.90663 0.0
H643 H 0.53562 0.14302 0.77172 0.0
C644 C 0.52806 0.0724 0.77405 0.0
C645 C 0.51501 0.06707 0.73078 0.0
C646 C 0.53359 0.09044 0.80296 0.0
C647 C 0.53151 0.13882 0.80947 0.0
H648 H 0.51471 0.171 0.04457 0.0
H649 H 0.52864 0.15459 0.99218 0.0
H650 H 0.5319 0.16694 0.8284 0.0
H651 H 0.49948 0.07766 0.68093 0.0
H652 H 0.50902 0.10901 0.73157 0.0
H653 H 0.51924 0.09998 0.88744 0.0
C654 C 0.52043 0.16123 0.97436 0.0
C655 C 0.52926 0.15244 0.84185 0.0
C656 C 0.51262 0.17085 0.00443 0.0
C657 C 0.50933 0.08116 0.71438 0.0
C658 C 0.51492 0.09923 0.74326 0.0
C659 C 0.52262 0.1148 0.87449 0.0
C660 C 0.51719 0.15971 0.92209 0.0
C661 C 0.52291 0.14701 0.89032 0.0
C662 C 0.52629 0.10354 0.78901 0.0
C663 C 0.52769 0.11964 0.82511 0.0
H664 H 0.49116 0.18553 0.91273 0.0
H665 H 0.50377 0.16788 0.86058 0.0
H666 H 0.51498 0.12337 0.94331 0.0
H667 H 0.53302 0.06207 0.78733 0.0
H668 H 0.54268 0.09359 0.83763 0.0
C669 C 0.30457 0.45111 0.95112 0.0
C670 C 0.3088 0.46107 0.99894 0.0
C671 C 0.32018 0.45161 0.92438 0.0
C672 C 0.37526 0.48242 0.91394 0.0
H673 H 0.36771 0.43437 0.83623 0.0
C674 C 0.43938 0.4828 0.80404 0.0
C675 C 0.43366 0.47291 0.75595 0.0
C676 C 0.42461 0.48081 0.83639 0.0
C677 C 0.36999 0.44797 0.85742 0.0
H678 H 0.3326 0.47867 0.05699 0.0
H679 H 0.35989 0.47966 0.01005 0.0
H680 H 0.34089 0.43153 0.88805 0.0
H681 H 0.40787 0.4533 0.70413 0.0
H682 H 0.38228 0.45015 0.76007 0.0
H683 H 0.4042 0.49897 0.88266 0.0
C684 C 0.34453 0.47173 0.99303 0.0
C685 C 0.35464 0.44632 0.88711 0.0
C686 C 0.32892 0.47117 0.01984 0.0
C687 C 0.41286 0.46106 0.74096 0.0
C688 C 0.39814 0.45912 0.77319 0.0
C689 C 0.3906 0.48409 0.88411 0.0
C690 C 0.34035 0.46212 0.94485 0.0
C691 C 0.35704 0.46357 0.91532 0.0
C692 C 0.40383 0.46892 0.8213 0.0
C693 C 0.38804 0.46693 0.85511 0.0
H694 H 0.28928 0.44342 0.93374 0.0
H695 H 0.31654 0.44428 0.88706 0.0
H696 H 0.37744 0.49605 0.9348 0.0
H697 H 0.45526 0.49199 0.81689 0.0
H698 H 0.42947 0.4884 0.87341 0.0
C699 C 0.83382 0.32066 0.91242 0.0
C700 C 0.83748 0.32347 0.96458 0.0
C701 C 0.84585 0.33637 0.88183 0.0
C702 C 0.87833 0.39221 0.88038 0.0
H703 H 0.90165 0.37982 0.76778 0.0
C704 C 0.94327 0.4553 0.77619 0.0
C705 C 0.94581 0.45113 0.72635 0.0
C706 C 0.92759 0.44035 0.80219 0.0
C707 C 0.89492 0.38356 0.79828 0.0
H708 H 0.85654 0.34491 0.02565 0.0
H709 H 0.87752 0.3726 0.97199 0.0
H710 H 0.87979 0.35241 0.8198 0.0
H711 H 0.93254 0.42869 0.66329 0.0
H712 H 0.90466 0.40294 0.70793 0.0
H713 H 0.89314 0.42328 0.8587 0.0
C714 C 0.86532 0.35818 0.95493 0.0
C715 C 0.8825 0.36781 0.82837 0.0
C716 C 0.85347 0.34232 0.98555 0.0
C717 C 0.9312 0.43233 0.70184 0.0
C718 C 0.91533 0.41745 0.72769 0.0
C719 C 0.89051 0.40794 0.84986 0.0
C720 C 0.86163 0.35534 0.90275 0.0
C721 C 0.87429 0.37202 0.87007 0.0
C722 C 0.91383 0.42092 0.77884 0.0
C723 C 0.89922 0.4039 0.80871 0.0
H724 H 0.82167 0.30624 0.89525 0.0
H725 H 0.84262 0.33378 0.84177 0.0
H726 H 0.87194 0.39582 0.91191 0.0
H727 H 0.95418 0.46963 0.79633 0.0
H728 H 0.9271 0.44367 0.84148 0.0
C729 C 0.84584 0.52789 0.87868 0.0
C730 C 0.85132 0.54457 0.91343 0.0
C731 C 0.8608 0.52507 0.85709 0.0
C732 C 0.9123 0.55413 0.82059 0.0
H733 H 0.91343 0.50307 0.81861 0.0
C734 C 0.97744 0.55022 0.73294 0.0
C735 C 0.97255 0.53236 0.70363 0.0
C736 C 0.96349 0.55044 0.76479 0.0
C737 C 0.91322 0.51737 0.8183 0.0
H738 H 0.87689 0.57071 0.95443 0.0
H739 H 0.90283 0.56623 0.91505 0.0
H740 H 0.88656 0.5055 0.86028 0.0
H741 H 0.94983 0.50036 0.68643 0.0
H742 H 0.92496 0.50094 0.74021 0.0
H743 H 0.93813 0.5659 0.77694 0.0
C744 C 0.88696 0.55543 0.90459 0.0
C745 C 0.89788 0.51873 0.8423 0.0
C746 C 0.87207 0.55807 0.92672 0.0
C747 C 0.95392 0.51435 0.70868 0.0
C748 C 0.93971 0.5147 0.73972 0.0
C749 C 0.92736 0.55268 0.79591 0.0
C750 C 0.88147 0.53901 0.86937 0.0
C751 C 0.8974 0.53718 0.84382 0.0
C752 C 0.9441 0.53296 0.76701 0.0
C753 C 0.92816 0.53434 0.79465 0.0
H754 H 0.83004 0.51728 0.86728 0.0
H755 H 0.85625 0.51238 0.82966 0.0
H756 H 0.91205 0.56843 0.82068 0.0
H757 H 0.99191 0.56419 0.73042 0.0
H758 H 0.96776 0.56455 0.78662 0.0
C759 C 0.28369 0.87889 0.89693 0.0
C760 C 0.2867 0.87771 0.94834 0.0
C761 C 0.29933 0.89369 0.87042 0.0
C762 C 0.34987 0.94192 0.88779 0.0
H763 H 0.35788 0.92464 0.757 0.0
C764 C 0.42659 0.97956 0.79655 0.0
C765 C 0.42668 0.98265 0.74524 0.0
C766 C 0.40829 0.96936 0.81975 0.0
C767 C 0.35565 0.92981 0.79313 0.0
H768 H 0.30843 0.89097 0.01228 0.0
H769 H 0.33582 0.91637 0.96612 0.0
H770 H 0.32806 0.90153 0.80046 0.0
H771 H 0.40763 0.97797 0.6783 0.0
H772 H 0.37553 0.95977 0.71891 0.0
H773 H 0.37808 0.96983 0.88115 0.0
C774 C 0.32126 0.90635 0.94628 0.0
C775 C 0.33853 0.91659 0.81808 0.0
C776 C 0.30557 0.89172 0.97281 0.0
C777 C 0.40807 0.97587 0.71792 0.0
C778 C 0.3897 0.96536 0.74104 0.0
C779 C 0.36711 0.95503 0.86306 0.0
C780 C 0.3184 0.90747 0.89466 0.0
C781 C 0.33559 0.92232 0.86614 0.0
C782 C 0.38965 0.96178 0.79204 0.0
C783 C 0.37033 0.94897 0.81584 0.0
H784 H 0.26921 0.86841 0.87725 0.0
H785 H 0.29646 0.89429 0.8309 0.0
H786 H 0.3479 0.94707 0.92422 0.0
H787 H 0.44068 0.98467 0.81868 0.0
H788 H 0.4087 0.96666 0.85902 0.0
C789 C 0.4624 0.32174 0.98646 0.0
C790 C 0.45705 0.30155 0.97047 0.0
C791 C 0.46514 0.33625 0.9519 0.0
C792 C 0.47352 0.34645 0.81723 0.0
H793 H 0.461 0.38924 0.85207 0.0
C794 C 0.47079 0.40675 0.68671 0.0
C795 C 0.48265 0.42722 0.70658 0.0
C796 C 0.46848 0.39039 0.71473 0.0
C797 C 0.46457 0.37735 0.84195 0.0
H798 H 0.45033 0.28092 0.90482 0.0
H799 H 0.45387 0.30577 0.84495 0.0
H800 H 0.45384 0.36238 0.90935 0.0
H801 H 0.50256 0.44648 0.76997 0.0
H802 H 0.49807 0.418 0.81866 0.0
H803 H 0.48363 0.36142 0.74877 0.0
C804 C 0.45654 0.31061 0.88426 0.0
C805 C 0.46063 0.36203 0.87491 0.0
C806 C 0.45413 0.29619 0.91883 0.0
C807 C 0.49314 0.43096 0.75354 0.0
C808 C 0.49057 0.41467 0.78163 0.0
C809 C 0.47709 0.36162 0.78376 0.0
C810 C 0.46224 0.33091 0.90026 0.0
C811 C 0.46538 0.34654 0.86351 0.0
C812 C 0.47778 0.39428 0.76312 0.0
C813 C 0.47294 0.37737 0.79633 0.0
H814 H 0.46453 0.32645 0.02581 0.0
H815 H 0.46987 0.35178 0.96591 0.0
H816 H 0.47765 0.33499 0.80726 0.0
H817 H 0.46259 0.40333 0.65059 0.0
H818 H 0.45857 0.37472 0.69976 0.0
C819 C 0.14522 0.45091 0.93395 0.0
C820 C 0.14328 0.43676 0.96914 0.0
C821 C 0.12926 0.44629 0.8991 0.0
C822 C 0.07419 0.41652 0.88374 0.0
H823 H 0.08425 0.4369 0.7511 0.0
C824 C 0.03373 0.43716 0.70842 0.0
C825 C 0.02753 0.44885 0.73696 0.0
C826 C 0.04419 0.42843 0.73156 0.0
C827 C 0.08099 0.43064 0.7875 0.0
H828 H 0.12329 0.40647 0.99485 0.0
H829 H 0.09518 0.3984 0.93374 0.0
H830 H 0.11098 0.43527 0.80007 0.0
H831 H 0.026 0.45924 0.81223 0.0
H832 H 0.04416 0.4442 0.85226 0.0
H833 H 0.04446 0.41267 0.8719 0.0
C834 C 0.10911 0.41306 0.93327 0.0
C835 C 0.09639 0.42994 0.81577 0.0
C836 C 0.12519 0.41765 0.96805 0.0
C837 C 0.03079 0.45052 0.78913 0.0
C838 C 0.041 0.44166 0.81218 0.0
C839 C 0.05879 0.41723 0.85547 0.0
C840 C 0.11095 0.42742 0.89869 0.0
C841 C 0.09344 0.42377 0.86499 0.0
C842 C 0.04832 0.43102 0.78361 0.0
C843 C 0.06236 0.42519 0.80799 0.0
H844 H 0.1591 0.46562 0.93346 0.0
H845 H 0.13105 0.45782 0.8735 0.0
H846 H 0.07144 0.41168 0.92154 0.0
H847 H 0.03136 0.43556 0.66812 0.0
H848 H 0.04959 0.42021 0.70868 0.0
C849 C 0.67334 0.14206 0.97522 0.0
C850 C 0.69017 0.15679 0.95135 0.0
C851 C 0.65675 0.12617 0.94712 0.0
C852 C 0.64329 0.09495 0.8328 0.0
H853 H 0.58999 0.08996 0.83268 0.0
C854 C 0.58353 0.04984 0.67522 0.0
C855 C 0.56306 0.0382 0.68586 0.0
C856 C 0.59803 0.06307 0.7119 0.0
C857 C 0.60466 0.09087 0.83303 0.0
H858 H 0.70324 0.16663 0.88031 0.0
H859 H 0.67439 0.13837 0.83104 0.0
H860 H 0.61755 0.11527 0.89062 0.0
H861 H 0.54158 0.03089 0.74302 0.0
H862 H 0.5671 0.05403 0.80802 0.0
H863 H 0.63068 0.07058 0.77594 0.0
C864 C 0.67397 0.13929 0.87129 0.0
C865 C 0.62038 0.10537 0.86598 0.0
C866 C 0.69035 0.15539 0.89925 0.0
C867 C 0.55724 0.04007 0.73381 0.0
C868 C 0.57185 0.05321 0.77092 0.0
C869 C 0.62757 0.08027 0.80055 0.0
C870 C 0.65708 0.12464 0.89505 0.0
C871 C 0.63989 0.10782 0.865 0.0
C872 C 0.59244 0.0647 0.76037 0.0
C873 C 0.60825 0.07851 0.79916 0.0
H874 H 0.67295 0.14303 0.01546 0.0
H875 H 0.64382 0.11496 0.96595 0.0
H876 H 0.65823 0.09648 0.83209 0.0
H877 H 0.58835 0.04882 0.63828 0.0
H878 H 0.61365 0.07212 0.70207 0.0
C879 C 0.55949 0.70956 0.81345 0.0
C880 C 0.56171 0.70621 0.86394 0.0
C881 C 0.55983 0.69652 0.77571 0.0
C882 C 0.57061 0.65446 0.74793 0.0
H883 H 0.51808 0.62822 0.67394 0.0
C884 C 0.50973 0.56867 0.68922 0.0
C885 C 0.51938 0.56173 0.65682 0.0
C886 C 0.51745 0.58966 0.69918 0.0
C887 C 0.533 0.6357 0.69337 0.0
H888 H 0.5677 0.6876 0.9142 0.0
H889 H 0.56854 0.66502 0.8483 0.0
H890 H 0.52997 0.66092 0.72137 0.0
H891 H 0.54437 0.57118 0.60858 0.0
H892 H 0.55843 0.60816 0.62785 0.0
H893 H 0.57296 0.62845 0.72209 0.0
C894 C 0.56656 0.67775 0.83795 0.0
C895 C 0.53987 0.65442 0.72032 0.0
C896 C 0.56603 0.69066 0.87574 0.0
C897 C 0.53659 0.57614 0.63344 0.0
C898 C 0.54465 0.59723 0.64446 0.0
C899 C 0.56386 0.63585 0.72029 0.0
C900 C 0.56267 0.68007 0.78774 0.0
C901 C 0.55829 0.66347 0.74968 0.0
C902 C 0.53519 0.60407 0.67775 0.0
C903 C 0.5446 0.62592 0.69476 0.0
H904 H 0.55668 0.72177 0.80314 0.0
H905 H 0.55699 0.69873 0.73723 0.0
H906 H 0.5849 0.66121 0.77014 0.0
H907 H 0.4964 0.55784 0.70752 0.0
H908 H 0.51006 0.59463 0.72546 0.0
C909 C 0.4578 0.13899 0.28325 0.0
C910 C 0.47281 0.15993 0.28516 0.0
C911 C 0.45919 0.1257 0.31619 0.0
C912 C 0.49621 0.12124 0.40209 0.0
H913 H 0.44719 0.07389 0.44209 0.0
C914 C 0.49723 0.06076 0.52885 0.0
C915 C 0.48823 0.04148 0.50243 0.0
C916 C 0.49414 0.07639 0.51119 0.0
C917 C 0.46098 0.08719 0.4316 0.0
H918 H 0.50122 0.18315 0.3236 0.0
H919 H 0.50302 0.16033 0.38262 0.0
H920 H 0.44456 0.09949 0.39387 0.0
H921 H 0.46792 0.02282 0.43934 0.0
H922 H 0.46197 0.04981 0.40968 0.0
H923 H 0.51252 0.1088 0.44036 0.0
C924 C 0.49038 0.154 0.35482 0.0
C925 C 0.45952 0.10174 0.40345 0.0
C926 C 0.48918 0.16722 0.32129 0.0
C927 C 0.47512 0.03762 0.46015 0.0
C928 C 0.47163 0.053 0.44335 0.0
C929 C 0.49766 0.10689 0.43108 0.0
C930 C 0.47546 0.13302 0.35263 0.0
C931 C 0.47709 0.11868 0.38706 0.0
C932 C 0.48153 0.07266 0.46787 0.0
C933 C 0.48004 0.08949 0.44498 0.0
H934 H 0.44477 0.1328 0.25664 0.0
H935 H 0.44758 0.1096 0.3125 0.0
H936 H 0.51009 0.13385 0.38975 0.0
H937 H 0.50744 0.06407 0.5615 0.0
H938 H 0.50192 0.09148 0.53062 0.0
C939 C 0.33164 0.49892 0.30634 0.0
C940 C 0.3255 0.49029 0.25724 0.0
C941 C 0.34944 0.50117 0.32957 0.0
C942 C 0.39712 0.50078 0.30911 0.0
H943 H 0.38757 0.47579 0.43647 0.0
C944 C 0.45794 0.49953 0.44726 0.0
C945 C 0.45146 0.48093 0.47047 0.0
C946 C 0.44454 0.50184 0.41455 0.0
C947 C 0.39045 0.48276 0.40086 0.0
H948 H 0.33383 0.47872 0.19259 0.0
H949 H 0.3649 0.48257 0.23326 0.0
H950 H 0.36108 0.47993 0.39434 0.0
H951 H 0.42664 0.44952 0.47334 0.0
H952 H 0.40341 0.45361 0.41656 0.0
H953 H 0.42657 0.50336 0.31592 0.0
C954 C 0.35598 0.48755 0.25383 0.0
C955 C 0.37539 0.48539 0.37708 0.0
C956 C 0.3381 0.48515 0.23077 0.0
C957 C 0.43201 0.46416 0.45684 0.0
C958 C 0.41867 0.4665 0.42444 0.0
C959 C 0.41236 0.49836 0.33334 0.0
C960 C 0.3615 0.495 0.30393 0.0
C961 C 0.37845 0.4942 0.33072 0.0
C962 C 0.42449 0.4856 0.40479 0.0
C963 C 0.40897 0.48898 0.37901 0.0
H964 H 0.32219 0.503 0.32753 0.0
H965 H 0.35348 0.50714 0.36812 0.0
H966 H 0.39986 0.50767 0.27341 0.0
H967 H 0.47282 0.51275 0.45695 0.0
H968 H 0.44941 0.51671 0.39968 0.0
C969 C 0.86353 0.31505 0.29172 0.0
C970 C 0.84558 0.31526 0.27843 0.0
C971 C 0.87805 0.3299 0.32629 0.0
C972 C 0.88666 0.37086 0.42204 0.0
H973 H 0.942 0.39662 0.38119 0.0
C974 C 0.95339 0.44389 0.5261 0.0
C975 C 0.96532 0.45931 0.49421 0.0
C976 C 0.93928 0.42403 0.50648 0.0
C977 C 0.92663 0.38951 0.39322 0.0
H978 H 0.82841 0.33066 0.29256 0.0
H979 H 0.85408 0.35703 0.35142 0.0
H980 H 0.91567 0.36569 0.33511 0.0
H981 H 0.97183 0.46593 0.4168 0.0
H982 H 0.94728 0.43162 0.38295 0.0
H983 H 0.89758 0.3955 0.47847 0.0
C984 C 0.8568 0.34521 0.33577 0.0
C985 C 0.91157 0.37166 0.36718 0.0
C986 C 0.84224 0.33031 0.30138 0.0
C987 C 0.96293 0.45446 0.44251 0.0
C988 C 0.94898 0.4347 0.42306 0.0
C989 C 0.90177 0.38879 0.44809 0.0
C990 C 0.87499 0.34533 0.34812 0.0
C991 C 0.89131 0.36246 0.3804 0.0
C992 C 0.93703 0.41928 0.45474 0.0
C993 C 0.92176 0.39862 0.43286 0.0
H994 H 0.86661 0.30373 0.27449 0.0
H995 H 0.89183 0.32947 0.33539 0.0
H996 H 0.87123 0.36392 0.43359 0.0
H997 H 0.95484 0.44716 0.56608 0.0
H998 H 0.93025 0.4124 0.53171 0.0
C999 C 0.50291 0.81581 0.24213 0.0
C1000 C 0.52322 0.82121 0.23564 0.0
C1001 C 0.49818 0.82547 0.28047 0.0
C1002 C 0.51738 0.85506 0.4012 0.0
H1003 H 0.48678 0.88124 0.36046 0.0
C1004 C 0.52419 0.92588 0.50742 0.0
C1005 C 0.50858 0.93058 0.50092 0.0
C1006 C 0.5222 0.90795 0.48447 0.0
C1007 C 0.49485 0.87361 0.37317 0.0
H1008 H 0.55446 0.84106 0.26471 0.0
H1009 H 0.54608 0.8575 0.33216 0.0
H1010 H 0.4906 0.85853 0.30102 0.0
H1011 H 0.47771 0.91906 0.4707 0.0
H1012 H 0.47384 0.8873 0.43258 0.0
H1013 H 0.52183 0.87027 0.47326 0.0
C1014 C 0.53386 0.84568 0.30769 0.0
C1015 C 0.49713 0.86066 0.33882 0.0
C1016 C 0.53862 0.83624 0.269 0.0
C1017 C 0.49014 0.916 0.47556 0.0
C1018 C 0.488 0.89788 0.45338 0.0
C1019 C 0.51485 0.86779 0.43589 0.0
C1020 C 0.51362 0.84049 0.31353 0.0
C1021 C 0.50891 0.85177 0.35207 0.0
C1022 C 0.5044 0.89417 0.45526 0.0
C1023 C 0.50408 0.87775 0.42186 0.0
H1024 H 0.4906 0.804 0.21787 0.0
H1025 H 0.48244 0.82115 0.28438 0.0
H1026 H 0.52632 0.84813 0.41245 0.0
H1027 H 0.53858 0.9368 0.52685 0.0
H1028 H 0.53522 0.90576 0.48671 0.0
C1029 C 0.72351 0.58968 0.25458 0.0
C1030 C 0.72498 0.57193 0.2456 0.0
C1031 C 0.71119 0.59032 0.29117 0.0
C1032 C 0.68168 0.56197 0.39826 0.0
H1033 H 0.64664 0.58347 0.35873 0.0
C1034 C 0.60017 0.53001 0.45504 0.0
C1035 C 0.59408 0.54384 0.47229 0.0
C1036 C 0.61943 0.53727 0.43744 0.0
C1037 C 0.65659 0.57778 0.37073 0.0
H1038 H 0.71553 0.54138 0.26998 0.0
H1039 H 0.69348 0.54209 0.33173 0.0
H1040 H 0.67487 0.58938 0.3084 0.0
H1041 H 0.60339 0.57607 0.48537 0.0
H1042 H 0.63708 0.58882 0.45249 0.0
H1043 H 0.66231 0.54907 0.4585 0.0
C1044 C 0.70204 0.55571 0.31135 0.0
C1045 C 0.67281 0.58119 0.34202 0.0
C1046 C 0.71443 0.55514 0.27518 0.0
C1047 C 0.60777 0.56511 0.47239 0.0
C1048 C 0.62695 0.57239 0.45359 0.0
C1049 C 0.66528 0.5583 0.42644 0.0
C1050 C 0.70002 0.57319 0.31943 0.0
C1051 C 0.68514 0.57272 0.3545 0.0
C1052 C 0.63286 0.55848 0.43582 0.0
C1053 C 0.65227 0.56567 0.41204 0.0
H1054 H 0.73138 0.60286 0.23234 0.0
H1055 H 0.71019 0.60412 0.29678 0.0
H1056 H 0.69118 0.5557 0.40976 0.0
H1057 H 0.58997 0.51354 0.45483 0.0
H1058 H 0.62358 0.52625 0.42341 0.0
C1059 C 0.14611 0.71861 0.29068 0.0
C1060 C 0.15889 0.71758 0.25552 0.0
C1061 C 0.13808 0.70406 0.32669 0.0
C1062 C 0.12446 0.65123 0.3512 0.0
H1063 H 0.12389 0.66814 0.48892 0.0
C1064 C 0.08585 0.5901 0.49216 0.0
C1065 C 0.07273 0.59294 0.52271 0.0
C1066 C 0.10041 0.60644 0.46682 0.0
C1067 C 0.1238 0.66311 0.4506 0.0
H1068 H 0.17327 0.7003 0.23131 0.0
H1069 H 0.15874 0.67461 0.29323 0.0
H1070 H 0.14031 0.69415 0.42835 0.0
H1071 H 0.06593 0.61563 0.55421 0.0
H1072 H 0.09086 0.64391 0.50932 0.0
H1073 H 0.10725 0.62029 0.37233 0.0
C1074 C 0.15499 0.68675 0.29278 0.0
C1075 C 0.13323 0.67804 0.41592 0.0
C1076 C 0.1632 0.70142 0.25706 0.0
C1077 C 0.0758 0.6129 0.53103 0.0
C1078 C 0.09017 0.62918 0.50512 0.0
C1079 C 0.11485 0.63632 0.38566 0.0
C1080 C 0.14243 0.68797 0.32816 0.0
C1081 C 0.13346 0.67224 0.36572 0.0
C1082 C 0.10201 0.62594 0.47087 0.0
C1083 C 0.11417 0.64201 0.43578 0.0
H1084 H 0.14214 0.73058 0.2902 0.0
H1085 H 0.12816 0.7052 0.35291 0.0
H1086 H 0.12418 0.64627 0.31268 0.0
H1087 H 0.08404 0.57496 0.48541 0.0
H1088 H 0.10972 0.6035 0.44212 0.0
loop_
_geom_bond_atom_site_label_1
_geom_bond_atom_site_label_2
_geom_bond_distance
_geom_bond_site_symmetry_2
_ccdc_geom_bond_type
C0 C1 1.384 . S
C0 C2 1.384 . S
C0 H28 0.931 . S
C1 C0 1.384 . S
C1 C4 1.382 . S
C2 C0 1.384 . S
C2 C3 1.381 . S
C2 H29 0.930 . S
C3 C2 1.381 . S
C3 C5 1.381 . S
C3 C6 1.487 . S
C4 C1 1.382 . S
C4 C5 1.387 . S
C4 H30 0.930 . S
C5 C3 1.381 . S
C5 C4 1.387 . S
C5 H31 0.931 . S
C6 C3 1.487 . S
C6 C13 1.399 . S
C6 N44 1.343 . S
C7 C8 1.384 . S
C7 C9 1.384 . S
C7 H32 0.931 . S
C8 C7 1.384 . S
C8 C11 1.382 . S
C9 C7 1.384 . S
C9 C10 1.381 . S
C9 H33 0.930 . S
C10 C9 1.381 . S
C10 C12 1.381 . S
C10 C13 1.487 . S
C11 C8 1.382 . S
C11 C12 1.387 . S
C11 H34 0.930 . S
C12 C10 1.381 . S
C12 C11 1.387 . S
C12 H35 0.931 . S
C13 C6 1.399 . S
C13 C10 1.487 . S
C13 N45 1.343 . S
C14 C15 1.384 . S
C14 C16 1.384 . S
C14 H36 0.931 . S
C15 C14 1.384 . S
C15 C18 1.382 . S
C16 C14 1.384 . S
C16 C17 1.381 . S
C16 H37 0.930 . S
C17 C16 1.381 . S
C17 C19 1.381 . S
C17 C20 1.487 . S
C18 C15 1.382 . S
C18 C19 1.387 . S
C18 H38 0.930 . S
C19 C17 1.381 . S
C19 C18 1.387 . S
C19 H39 0.931 . S
C20 C17 1.487 . S
C20 C27 1.399 . S
C20 N45 1.343 . S
C21 C22 1.384 . S
C21 C23 1.384 . S
C21 H40 0.931 . S
C22 C21 1.384 . S
C22 C25 1.382 . S
C23 C21 1.384 . S
C23 C24 1.381 . S
C23 H41 0.930 . S
C24 C23 1.381 . S
C24 C26 1.381 . S
C24 C27 1.487 . S
C25 C22 1.382 . S
C25 C26 1.387 . S
C25 H42 0.930 . S
C26 C24 1.381 . S
C26 C25 1.387 . S
C26 H43 0.931 . S
C27 C20 1.399 . S
C27 C24 1.487 . S
C27 N44 1.343 . S
H28 C0 0.931 . S
H29 C2 0.930 . S
H30 C4 0.930 . S
H31 C5 0.931 . S
H32 C7 0.931 . S
H33 C9 0.930 . S
H34 C11 0.930 . S
H35 C12 0.931 . S
H36 C14 0.931 . S
H37 C16 0.930 . S
H38 C18 0.930 . S
H39 C19 0.931 . S
H40 C21 0.931 . S
H41 C23 0.930 . S
H42 C25 0.930 . S
H43 C26 0.931 . S
N44 C6 1.343 . S
N44 C27 1.343 . S
N45 C13 1.343 . S
N45 C20 1.343 . S
C46 C47 1.384 . S
C46 C48 1.384 . S
C46 H74 0.931 . S
C47 C46 1.384 . S
C47 C50 1.382 . S
C48 C46 1.384 . S
C48 C49 1.381 . S
C48 H75 0.930 . S
C49 C48 1.381 . S
C49 C51 1.381 . S
C49 C52 1.487 . S
C50 C47 1.382 . S
C50 C51 1.387 . S
C50 H76 0.930 . S
C51 C49 1.381 . S
C51 C50 1.387 . S
C51 H77 0.931 . S
C52 C49 1.487 . S
C52 C59 1.399 . S
C52 N90 1.343 . S
C53 C54 1.381 1_554 S
C53 C55 1.387 . S
C53 H78 0.932 . S
C54 C53 1.381 1_556 S
C54 C57 1.382 . S
C55 C53 1.387 . S
C55 C56 1.381 . S
C55 H79 0.930 . S
C56 C55 1.381 . S
C56 C58 1.381 1_554 S
C56 C59 1.487 . S
C57 C54 1.382 . S
C57 C58 1.387 . S
C57 H80 0.930 . S
C58 C56 1.381 1_556 S
C58 C57 1.387 . S
C58 H81 0.931 . S
C59 C52 1.399 . S
C59 C56 1.487 . S
C59 N91 1.343 . S
C60 C61 1.384 1_554 S
C60 C62 1.384 . S
C60 H82 0.931 . S
C61 C60 1.384 1_556 S
C61 C64 1.382 . S
C62 C60 1.384 . S
C62 C63 1.381 . S
C62 H83 0.930 . S
C63 C62 1.381 . S
C63 C65 1.381 1_554 S
C63 C66 1.487 . S
C64 C61 1.382 . S
C64 C65 1.387 . S
C64 H84 0.930 . S
C65 C63 1.381 1_556 S
C65 C64 1.387 . S
C65 H85 0.931 . S
C66 C63 1.487 . S
C66 C73 1.399 . S
C66 N91 1.343 . S
C67 C68 1.384 . S
C67 C69 1.384 . S
C67 H86 0.931 . S
C68 C67 1.384 . S
C68 C71 1.382 . S
C69 C67 1.384 . S
C69 C70 1.381 . S
C69 H87 0.930 . S
C70 C69 1.381 . S
C70 C72 1.381 . S
C70 C73 1.487 . S
C71 C68 1.382 . S
C71 C72 1.387 . S
C71 H88 0.930 . S
C72 C70 1.381 . S
C72 C71 1.387 . S
C72 H89 0.931 . S
C73 C66 1.399 . S
C73 C70 1.487 . S
C73 N90 1.343 . S
H74 C46 0.931 . S
H75 C48 0.930 . S
H76 C50 0.930 . S
H77 C51 0.931 . S
H78 C53 0.932 . S
H79 C55 0.930 . S
H80 C57 0.930 . S
H81 C58 0.931 . S
H82 C60 0.931 . S
H83 C62 0.930 . S
H84 C64 0.930 . S
H85 C65 0.931 . S
H86 C67 0.931 . S
H87 C69 0.930 . S
H88 C71 0.930 . S
H89 C72 0.931 . S
N90 C52 1.343 . S
N90 C73 1.343 . S
N91 C59 1.343 . S
N91 C66 1.343 . S
C92 C93 1.384 . S
C92 C94 1.384 . S
C92 H120 0.931 . S
C93 C92 1.384 . S
C93 C96 1.382 . S
C94 C92 1.384 . S
C94 C95 1.381 . S
C94 H121 0.930 1_556 S
C95 C94 1.381 . S
C95 C97 1.381 . S
C95 C98 1.487 1_556 S
C96 C93 1.382 . S
C96 C97 1.387 . S
C96 H122 0.930 . S
C97 C95 1.381 . S
C97 C96 1.387 . S
C97 H123 0.931 . S
C98 C95 1.487 1_554 S
C98 C105 1.399 . S
C98 N136 1.343 1_554 S
C99 C100 1.384 . S
C99 C101 1.384 . S
C99 H124 0.931 . S
C100 C99 1.384 . S
C100 C103 1.382 . S
C101 C99 1.384 . S
C101 C102 1.381 . S
C101 H125 0.930 . S
C102 C101 1.381 . S
C102 C104 1.381 . S
C102 C105 1.487 . S
C103 C100 1.382 . S
C103 C104 1.387 . S
C103 H126 0.930 . S
C104 C102 1.381 . S
C104 C103 1.387 . S
C104 H127 0.931 . S
C105 C98 1.399 . S
C105 C102 1.487 . S
C105 N137 1.343 . S
C106 C107 1.384 . S
C106 C108 1.384 . S
C106 H128 0.931 . S
C107 C106 1.384 . S
C107 C110 1.382 . S
C108 C106 1.384 . S
C108 C109 1.381 . S
C108 H129 0.930 . S
C109 C108 1.381 . S
C109 C111 1.381 . S
C109 C112 1.487 . S
C110 C107 1.382 . S
C110 C111 1.387 . S
C110 H130 0.930 . S
C111 C109 1.381 . S
C111 C110 1.387 . S
C111 H131 0.931 . S
C112 C109 1.487 . S
C112 C119 1.399 . S
C112 N137 1.343 . S
C113 C114 1.384 . S
C113 C115 1.384 . S
C113 H132 0.931 . S
C114 C113 1.384 . S
C114 C117 1.382 . S
C115 C113 1.384 . S
C115 C116 1.381 . S
C115 H133 0.930 1_556 S
C116 C115 1.381 . S
C116 C118 1.381 . S
C116 C119 1.487 1_556 S
C117 C114 1.382 . S
C117 C118 1.387 . S
C117 H134 0.930 . S
C118 C116 1.381 . S
C118 C117 1.387 . S
C118 H135 0.931 . S
C119 C112 1.399 . S
C119 C116 1.487 1_554 S
C119 N136 1.343 1_554 S
H120 C92 0.931 . S
H121 C94 0.930 1_554 S
H122 C96 0.930 . S
H123 C97 0.931 . S
H124 C99 0.931 . S
H125 C101 0.930 . S
H126 C103 0.930 . S
H127 C104 0.931 . S
H128 C106 0.931 . S
H129 C108 0.930 . S
H130 C110 0.930 . S
H131 C111 0.931 . S
H132 C113 0.931 . S
H133 C115 0.930 1_554 S
H134 C117 0.930 . S
H135 C118 0.931 . S
N136 C98 1.343 1_556 S
N136 C119 1.343 1_556 S
N137 C105 1.343 . S
N137 C112 1.343 . S
C138 C139 1.384 . S
C138 C140 1.384 . S
C138 H166 0.931 . S
C139 C138 1.384 . S
C139 C142 1.382 . S
C140 C138 1.384 . S
C140 C141 1.381 . S
C140 H167 0.915 1_556 S
C141 C140 1.381 . S
C141 C143 1.381 . S
C141 C144 1.487 . S
C142 C139 1.382 . S
C142 C143 1.387 . S
C142 H168 0.930 . S
C143 C141 1.381 . S
C143 C142 1.387 . S
C143 H169 0.931 . S
C144 C141 1.487 . S
C144 C151 1.399 1_556 S
C144 N182 1.343 . S
C145 C146 1.384 . S
C145 C147 1.384 . S
C145 H170 0.931 . S
C146 C145 1.384 . S
C146 C149 1.382 . S
C147 C145 1.384 . S
C147 C148 1.381 . S
C147 H171 0.930 . S
C148 C147 1.381 . S
C148 C150 1.381 . S
C148 C151 1.487 . S
C149 C146 1.382 . S
C149 C150 1.387 . S
C149 H172 0.930 . S
C150 C148 1.381 . S
C150 C149 1.387 . S
C150 H173 0.931 . S
C151 C144 1.399 1_554 S
C151 C148 1.487 . S
C151 N183 1.343 . S
C152 C153 1.384 . S
C152 C154 1.384 . S
C152 H174 0.931 . S
C153 C152 1.384 . S
C153 C156 1.382 . S
C154 C152 1.384 . S
C154 C155 1.381 . S
C154 H175 0.930 . S
C155 C154 1.381 . S
C155 C157 1.381 . S
C155 C158 1.487 . S
C156 C153 1.382 . S
C156 C157 1.387 . S
C156 H176 0.930 . S
C157 C155 1.381 . S
C157 C156 1.387 . S
C157 H177 0.931 . S
C158 C155 1.487 . S
C158 C165 1.399 1_554 S
C158 N183 1.343 . S
C159 C160 1.384 . S
C159 C161 1.384 . S
C159 H178 0.931 . S
C160 C159 1.384 . S
C160 C163 1.382 . S
C161 C159 1.384 . S
C161 C162 1.381 . S
C161 H179 0.930 . S
C162 C161 1.381 . S
C162 C164 1.381 . S
C162 C165 1.487 . S
C163 C160 1.382 . S
C163 C164 1.387 . S
C163 H180 0.930 . S
C164 C162 1.381 . S
C164 C163 1.387 . S
C164 H181 0.931 . S
C165 C158 1.399 1_556 S
C165 C162 1.487 . S
C165 N182 1.343 . S
H166 C138 0.931 . S
H167 C140 0.915 1_554 S
H168 C142 0.930 . S
H169 C143 0.931 . S
H170 C145 0.931 . S
H171 C147 0.930 . S
H172 C149 0.930 . S
H173 C150 0.931 . S
H174 C152 0.931 . S
H175 C154 0.930 . S
H176 C156 0.930 . S
H177 C157 0.931 . S
H178 C159 0.931 . S
H179 C161 0.930 . S
H180 C163 0.930 . S
H181 C164 0.931 . S
N182 C144 1.343 . S
N182 C165 1.343 . S
N183 C151 1.343 . S
N183 C158 1.343 . S
C184 C185 1.384 1_554 S
C184 C186 1.384 . S
C184 H212 0.931 . S
C185 C184 1.384 1_556 S
C185 C188 1.382 . S
C186 C184 1.384 . S
C186 C187 1.381 . S
C186 H213 0.930 . S
C187 C186 1.381 . S
C187 C189 1.381 . S
C187 C190 1.487 . S
C188 C185 1.382 . S
C188 C189 1.387 1_556 S
C188 H214 0.930 . S
C189 C187 1.381 . S
C189 C188 1.387 1_554 S
C189 H215 0.933 . S
C190 C187 1.487 . S
C190 C197 1.399 . S
C190 N228 1.343 . S
C191 C192 1.384 . S
C191 C193 1.384 . S
C191 H216 0.931 . S
C192 C191 1.384 . S
C192 C195 1.382 . S
C193 C191 1.384 . S
C193 C194 1.381 . S
C193 H217 0.930 . S
C194 C193 1.381 . S
C194 C196 1.381 . S
C194 C197 1.487 . S
C195 C192 1.382 . S
C195 C196 1.387 . S
C195 H218 0.930 . S
C196 C194 1.381 . S
C196 C195 1.387 . S
C196 H219 0.931 . S
C197 C190 1.399 . S
C197 C194 1.487 . S
C197 N229 1.343 . S
C198 C199 1.384 . S
C198 C200 1.384 . S
C198 H220 0.931 . S
C199 C198 1.384 . S
C199 C202 1.382 . S
C200 C198 1.384 . S
C200 C201 1.381 . S
C200 H221 0.930 . S
C201 C200 1.381 . S
C201 C203 1.381 . S
C201 C204 1.487 . S
C202 C199 1.382 . S
C202 C203 1.387 . S
C202 H222 0.930 . S
C203 C201 1.381 . S
C203 C202 1.387 . S
C203 H223 0.931 . S
C204 C201 1.487 . S
C204 C211 1.399 . S
C204 N229 1.343 . S
C205 C206 1.384 1_554 S
C205 C207 1.384 . S
C205 H224 0.931 . S
C206 C205 1.384 1_556 S
C206 C209 1.382 . S
C207 C205 1.384 . S
C207 C208 1.381 . S
C207 H225 0.930 . S
C208 C207 1.381 . S
C208 C210 1.398 . S
C208 C211 1.487 . S
C209 C206 1.382 . S
C209 C210 1.375 1_556 S
C209 H226 0.930 . S
C210 C208 1.398 . S
C210 C209 1.375 1_554 S
C210 H227 0.927 1_554 S
C211 C204 1.399 . S
C211 C208 1.487 . S
C211 N228 1.343 . S
H212 C184 0.931 . S
H213 C186 0.930 . S
H214 C188 0.930 . S
H215 C189 0.933 . S
H216 C191 0.931 . S
H217 C193 0.930 . S
H218 C195 0.930 . S
H219 C196 0.931 . S
H220 C198 0.931 . S
H221 C200 0.930 . S
H222 C202 0.930 . S
H223 C203 0.931 . S
H224 C205 0.931 . S
H225 C207 0.930 . S
H226 C209 0.930 . S
H227 C210 0.927 1_556 S
N228 C190 1.343 . S
N228 C211 1.343 . S
N229 C197 1.343 . S
N229 C204 1.343 . S
C230 C231 1.384 . S
C230 C232 1.384 . S
C230 H258 0.931 . S
C231 C230 1.384 . S
C231 C234 1.382 . S
C232 C230 1.384 . S
C232 C233 1.381 . S
C232 H259 0.930 . S
C233 C232 1.381 . S
C233 C235 1.381 . S
C233 C236 1.487 . S
C234 C231 1.382 . S
C234 C235 1.387 . S
C234 H260 0.930 1_554 S
C235 C233 1.381 . S
C235 C234 1.387 . S
C235 H261 0.931 . S
C236 C233 1.487 . S
C236 C243 1.399 . S
C236 N274 1.343 . S
C237 C238 1.384 . S
C237 C239 1.384 . S
C237 H262 0.931 . S
C238 C237 1.384 . S
C238 C241 1.382 . S
C239 C237 1.384 . S
C239 C240 1.381 . S
C239 H263 0.930 . S
C240 C239 1.381 . S
C240 C242 1.381 . S
C240 C243 1.487 . S
C241 C238 1.382 . S
C241 C242 1.387 . S
C241 H264 0.930 . S
C242 C240 1.381 . S
C242 C241 1.387 . S
C242 H265 0.931 . S
C243 C236 1.399 . S
C243 C240 1.487 . S
C243 N275 1.343 . S
C244 C245 1.384 . S
C244 C246 1.384 . S
C244 H266 0.931 . S
C245 C244 1.384 . S
C245 C248 1.382 . S
C246 C244 1.384 . S
C246 C247 1.381 . S
C246 H267 0.930 . S
C247 C246 1.381 . S
C247 C249 1.381 . S
C247 C250 1.487 . S
C248 C245 1.382 . S
C248 C249 1.387 . S
C248 H268 0.930 . S
C249 C247 1.381 . S
C249 C248 1.387 . S
C249 H269 0.931 . S
C250 C247 1.487 . S
C250 C257 1.399 . S
C250 N275 1.343 . S
C251 C252 1.384 . S
C251 C253 1.384 . S
C251 H270 0.931 . S
C252 C251 1.384 . S
C252 C255 1.382 . S
C253 C251 1.384 . S
C253 C254 1.381 . S
C253 H271 0.930 . S
C254 C253 1.381 . S
C254 C256 1.381 . S
C254 C257 1.487 . S
C255 C252 1.382 . S
C255 C256 1.387 . S
C255 H272 0.930 . S
C256 C254 1.381 . S
C256 C255 1.387 . S
C256 H273 0.931 . S
C257 C250 1.399 . S
C257 C254 1.487 . S
C257 N274 1.343 . S
H258 C230 0.931 . S
H259 C232 0.930 . S
H260 C234 0.930 1_556 S
H261 C235 0.931 . S
H262 C237 0.931 . S
H263 C239 0.930 . S
H264 C241 0.930 . S
H265 C242 0.931 . S
H266 C244 0.931 . S
H267 C246 0.930 . S
H268 C248 0.930 . S
H269 C249 0.931 . S
H270 C251 0.931 . S
H271 C253 0.930 . S
H272 C255 0.930 . S
H273 C256 0.931 . S
N274 C236 1.343 . S
N274 C257 1.343 . S
N275 C243 1.343 . S
N275 C250 1.343 . S
C276 O303 1.312 . S
C276 O304 1.208 . S
C277 O298 1.331 . S
C277 O301 1.244 . S
C278 O300 1.264 . S
C278 O302 1.273 . S
Mg279 O281 1.936 1_455 S
Mg279 O288 2.081 1_455 S
Mg279 O290 2.023 . S
Mg279 O294 2.031 1_455 S
Mg279 O303 2.291 . S
Mg280 O281 1.963 . S
Mg280 O291 1.942 . S
Mg280 O292 1.955 1_655 S
Mg280 O299 1.986 . S
O281 Mg279 1.936 1_655 S
O281 Mg280 1.963 . S
O281 Mg282 1.915 1_655 S
Mg282 O281 1.915 1_455 S
Mg282 O283 1.915 . S
Mg282 O287 2.013 . S
Mg282 O293 2.114 1_455 S
Mg282 O297 2.013 1_455 S
Mg282 O303 2.114 . S
O283 Mg282 1.915 . S
O283 Mg284 1.936 . S
O283 Mg285 1.963 . S
Mg284 O283 1.936 . S
Mg284 O293 2.291 1_455 S
Mg284 O298 2.081 . S
Mg284 O300 2.023 1_455 S
Mg284 O304 2.031 . S
Mg285 O283 1.963 . S
Mg285 O289 1.986 . S
Mg285 O301 1.942 . S
Mg285 O302 1.955 1_455 S
C286 O297 1.191 . S
C286 O299 1.307 . S
O287 Mg282 2.013 . S
O287 C306 1.191 . S
O288 Mg279 2.081 1_655 S
O288 C296 1.331 . S
O289 Mg285 1.986 . S
O289 C306 1.307 . S
O290 Mg279 2.023 . S
O290 C305 1.264 . S
O291 Mg280 1.942 . S
O291 C296 1.244 . S
O292 Mg280 1.955 1_455 S
O292 C305 1.273 . S
O293 Mg282 2.114 1_655 S
O293 Mg284 2.291 1_655 S
O293 C295 1.312 . S
O294 Mg279 2.031 1_655 S
O294 C295 1.208 . S
C295 O293 1.312 . S
C295 O294 1.208 . S
C296 O288 1.331 . S
C296 O291 1.244 . S
O297 Mg282 2.013 1_655 S
O297 C286 1.191 . S
O298 C277 1.331 . S
O298 Mg284 2.081 . S
O299 Mg280 1.986 . S
O299 C286 1.307 . S
O300 C278 1.264 . S
O300 Mg284 2.023 1_655 S
O301 C277 1.244 . S
O301 Mg285 1.942 . S
O302 C278 1.273 . S
O302 Mg285 1.955 1_655 S
O303 C276 1.312 . S
O303 Mg279 2.291 . S
O303 Mg282 2.114 . S
O304 C276 1.208 . S
O304 Mg284 2.031 . S
C305 O290 1.264 . S
C305 O292 1.273 . S
C306 O287 1.191 . S
C306 O289 1.307 . S
C307 O334 1.312 . S
C307 O335 1.208 . S
C308 O329 1.331 . S
C308 O332 1.244 . S
C309 O331 1.264 . S
C309 O333 1.273 . S
Mg310 O312 1.904 1_545 S
Mg310 O319 2.081 1_545 S
Mg310 O321 2.023 . S
Mg310 O325 2.031 1_545 S
Mg310 O334 2.291 . S
Mg311 O312 1.971 1_545 S
Mg311 O322 1.942 1_545 S
Mg311 O323 1.954 . S
Mg311 O330 1.986 1_545 S
O312 Mg310 1.904 1_565 S
O312 Mg311 1.971 1_565 S
O312 Mg313 1.919 1_565 S
Mg313 O312 1.919 1_545 S
Mg313 O314 1.915 . S
Mg313 O318 2.013 . S
Mg313 O324 2.114 1_545 S
Mg313 O328 2.013 1_545 S
Mg313 O334 2.114 . S
O314 Mg313 1.915 . S
O314 Mg315 1.936 . S
O314 Mg316 1.963 . S
Mg315 O314 1.936 . S
Mg315 O324 2.291 1_545 S
Mg315 O329 2.081 . S
Mg315 O331 2.023 1_545 S
Mg315 O335 2.031 . S
Mg316 O314 1.963 . S
Mg316 O320 1.986 . S
Mg316 O332 1.942 . S
Mg316 O333 1.955 1_545 S
C317 O328 1.191 . S
C317 O330 1.307 . S
O318 Mg313 2.013 . S
O318 C337 1.191 . S
O319 Mg310 2.081 1_565 S
O319 C327 1.331 . S
O320 Mg316 1.986 . S
O320 C337 1.307 . S
O321 Mg310 2.023 . S
O321 C336 1.264 . S
O322 Mg311 1.942 1_565 S
O322 C327 1.244 . S
O323 Mg311 1.954 . S
O323 C336 1.273 . S
O324 Mg313 2.114 1_565 S
O324 Mg315 2.291 1_565 S
O324 C326 1.312 . S
O325 Mg310 2.031 1_565 S
O325 C326 1.208 . S
C326 O324 1.312 . S
C326 O325 1.208 . S
C327 O319 1.331 . S
C327 O322 1.244 . S
O328 Mg313 2.013 1_565 S
O328 C317 1.191 . S
O329 C308 1.331 . S
O329 Mg315 2.081 . S
O330 Mg311 1.986 1_565 S
O330 C317 1.307 . S
O331 C309 1.264 . S
O331 Mg315 2.023 1_565 S
O332 C308 1.244 . S
O332 Mg316 1.942 . S
O333 C309 1.273 . S
O333 Mg316 1.955 1_565 S
O334 C307 1.312 . S
O334 Mg310 2.291 . S
O334 Mg313 2.114 . S
O335 C307 1.208 . S
O335 Mg315 2.031 . S
C336 O321 1.264 . S
C336 O323 1.273 . S
C337 O318 1.191 . S
C337 O320 1.307 . S
C338 O365 1.312 . S
C338 O366 1.208 . S
C339 O360 1.331 . S
C339 O363 1.244 . S
C340 O362 1.264 . S
C340 O364 1.273 . S
Mg341 O343 1.936 . S
Mg341 O350 2.081 . S
Mg341 O352 2.023 . S
Mg341 O356 2.031 . S
Mg341 O365 2.291 . S
Mg342 O343 1.963 . S
Mg342 O353 1.942 . S
Mg342 O354 1.955 . S
Mg342 O361 1.986 . S
O343 Mg341 1.936 . S
O343 Mg342 1.963 . S
O343 Mg344 1.915 . S
Mg344 O343 1.915 . S
Mg344 O345 1.915 . S
Mg344 O349 2.013 . S
Mg344 O355 2.114 . S
Mg344 O359 2.013 . S
Mg344 O365 2.114 . S
O345 Mg344 1.915 . S
O345 Mg346 1.936 . S
O345 Mg347 1.963 . S
Mg346 O345 1.936 . S
Mg346 O355 2.291 . S
Mg346 O360 2.081 . S
Mg346 O362 2.023 . S
Mg346 O366 2.031 . S
Mg347 O345 1.963 . S
Mg347 O351 1.986 . S
Mg347 O363 1.942 . S
Mg347 O364 1.955 . S
C348 O359 1.191 . S
C348 O361 1.307 . S
O349 Mg344 2.013 . S
O349 C368 1.191 . S
O350 Mg341 2.081 . S
O350 C358 1.331 . S
O351 Mg347 1.986 . S
O351 C368 1.307 . S
O352 Mg341 2.023 . S
O352 C367 1.264 . S
O353 Mg342 1.942 . S
O353 C358 1.244 . S
O354 Mg342 1.955 . S
O354 C367 1.273 . S
O355 Mg344 2.114 . S
O355 Mg346 2.291 . S
O355 C357 1.312 . S
O356 Mg341 2.031 . S
O356 C357 1.208 . S
C357 O355 1.312 . S
C357 O356 1.208 . S
C358 O350 1.331 . S
C358 O353 1.244 . S
O359 Mg344 2.013 . S
O359 C348 1.191 . S
O360 C339 1.331 . S
O360 Mg346 2.081 . S
O361 Mg342 1.986 . S
O361 C348 1.307 . S
O362 C340 1.264 . S
O362 Mg346 2.023 . S
O363 C339 1.244 . S
O363 Mg347 1.942 . S
O364 C340 1.273 . S
O364 Mg347 1.955 . S
O365 C338 1.312 . S
O365 Mg341 2.291 . S
O365 Mg344 2.114 . S
O366 C338 1.208 . S
O366 Mg346 2.031 . S
C367 O352 1.264 . S
C367 O354 1.273 . S
C368 O349 1.191 . S
C368 O351 1.307 . S
C369 C370 1.349 . S
C369 C371 1.327 . S
C369 H394 0.950 . S
C370 C369 1.349 . S
C370 C386 1.349 . S
C371 C369 1.327 . S
C371 C390 1.429 . S
C371 H395 0.950 . S
C372 C389 1.574 . S
C372 C391 1.368 . S
C372 H396 0.949 . S
H373 C377 0.949 . S
C374 C375 1.349 . S
C374 C376 1.327 . S
C374 H397 0.950 . S
C375 C374 1.349 . S
C375 C387 1.349 . S
C376 C374 1.327 . S
C376 C392 1.429 . S
C376 H398 0.950 . S
C377 H373 0.949 . S
C377 C385 1.574 . S
C377 C393 1.368 . S
H378 C386 0.950 . S
H379 C384 0.950 . S
H380 C385 0.949 . S
H381 C387 0.950 . S
H382 C388 0.950 . S
H383 C389 0.949 . S
C384 H379 0.950 . S
C384 C386 1.327 . S
C384 C390 1.429 . S
C385 C377 1.574 . S
C385 H380 0.949 . S
C385 C391 1.368 . S
C386 C370 1.349 . S
C386 H378 0.950 . S
C386 C384 1.327 . S
C387 C375 1.349 . S
C387 H381 0.950 . S
C387 C388 1.327 . S
C388 H382 0.950 . S
C388 C387 1.327 . S
C388 C392 1.429 . S
C389 C372 1.574 . S
C389 H383 0.949 . S
C389 C393 1.368 . S
C390 C371 1.429 . S
C390 C384 1.429 . S
C390 C391 1.523 . S
C391 C372 1.368 . S
C391 C385 1.368 . S
C391 C390 1.523 . S
C392 C376 1.429 . S
C392 C388 1.429 . S
C392 C393 1.523 . S
C393 C377 1.368 . S
C393 C389 1.368 . S
C393 C392 1.523 . S
H394 C369 0.950 . S
H395 C371 0.950 . S
H396 C372 0.949 . S
H397 C374 0.950 . S
H398 C376 0.950 . S
C399 C400 1.349 . S
C399 C401 1.327 . S
C399 H424 0.950 . S
C400 C399 1.349 . S
C400 C416 1.349 . S
C401 C399 1.327 . S
C401 C420 1.429 . S
C401 H425 0.950 . S
C402 C419 1.574 . S
C402 C421 1.368 . S
C402 H426 0.949 . S
H403 C407 0.949 . S
C404 C405 1.349 . S
C404 C406 1.327 . S
C404 H427 0.950 . S
C405 C404 1.349 . S
C405 C417 1.349 . S
C406 C404 1.327 . S
C406 C422 1.429 . S
C406 H428 0.950 . S
C407 H403 0.949 . S
C407 C415 1.574 . S
C407 C423 1.368 . S
H408 C416 0.950 . S
H409 C414 0.950 . S
H410 C415 0.949 . S
H411 C417 0.950 . S
H412 C418 0.950 . S
H413 C419 0.949 . S
C414 H409 0.950 . S
C414 C416 1.327 . S
C414 C420 1.429 . S
C415 C407 1.574 . S
C415 H410 0.949 . S
C415 C421 1.368 . S
C416 C400 1.349 . S
C416 H408 0.950 . S
C416 C414 1.327 . S
C417 C405 1.349 . S
C417 H411 0.950 . S
C417 C418 1.327 . S
C418 H412 0.950 . S
C418 C417 1.327 . S
C418 C422 1.429 . S
C419 C402 1.574 . S
C419 H413 0.949 . S
C419 C423 1.368 . S
C420 C401 1.429 . S
C420 C414 1.429 . S
C420 C421 1.523 . S
C421 C402 1.368 . S
C421 C415 1.368 . S
C421 C420 1.523 . S
C422 C406 1.429 . S
C422 C418 1.429 . S
C422 C423 1.523 . S
C423 C407 1.368 . S
C423 C419 1.368 . S
C423 C422 1.523 . S
H424 C399 0.950 . S
H425 C401 0.950 . S
H426 C402 0.949 . S
H427 C404 0.950 . S
H428 C406 0.950 . S
C429 C430 1.349 . S
C429 C431 1.327 . S
C429 H454 0.950 . S
C430 C429 1.349 . S
C430 C446 1.349 . S
C431 C429 1.327 . S
C431 C450 1.429 . S
C431 H455 0.950 . S
C432 C449 1.574 . S
C432 C451 1.368 . S
C432 H456 0.949 . S
H433 C437 0.949 . S
C434 C435 1.349 . S
C434 C436 1.327 . S
C434 H457 0.950 . S
C435 C434 1.349 . S
C435 C447 1.349 . S
C436 C434 1.327 . S
C436 C452 1.429 . S
C436 H458 0.950 . S
C437 H433 0.949 . S
C437 C445 1.574 . S
C437 C453 1.368 . S
H438 C446 0.950 . S
H439 C444 0.950 . S
H440 C445 0.949 . S
H441 C447 0.950 . S
H442 C448 0.950 . S
H443 C449 0.949 . S
C444 H439 0.950 . S
C444 C446 1.327 . S
C444 C450 1.429 . S
C445 C437 1.574 . S
C445 H440 0.949 . S
C445 C451 1.368 . S
C446 C430 1.349 . S
C446 H438 0.950 . S
C446 C444 1.327 . S
C447 C435 1.349 . S
C447 H441 0.950 . S
C447 C448 1.327 . S
C448 H442 0.950 . S
C448 C447 1.327 . S
C448 C452 1.429 . S
C449 C432 1.574 . S
C449 H443 0.949 . S
C449 C453 1.368 . S
C450 C431 1.429 . S
C450 C444 1.429 . S
C450 C451 1.523 . S
C451 C432 1.368 . S
C451 C445 1.368 . S
C451 C450 1.523 . S
C452 C436 1.429 . S
C452 C448 1.429 . S
C452 C453 1.523 . S
C453 C437 1.368 . S
C453 C449 1.368 . S
C453 C452 1.523 . S
H454 C429 0.950 . S
H455 C431 0.950 . S
H456 C432 0.949 . S
H457 C434 0.950 . S
H458 C436 0.950 . S
C459 C460 1.349 . S
C459 C461 1.327 . S
C459 H484 0.950 . S
C460 C459 1.349 . S
C460 C476 1.349 . S
C461 C459 1.327 . S
C461 C480 1.429 . S
C461 H485 0.950 . S
C462 C479 1.574 . S
C462 C481 1.368 . S
C462 H486 0.949 . S
H463 C467 0.949 . S
C464 C465 1.349 . S
C464 C466 1.327 . S
C464 H487 0.950 . S
C465 C464 1.349 . S
C465 C477 1.349 . S
C466 C464 1.327 . S
C466 C482 1.429 . S
C466 H488 0.950 . S
C467 H463 0.949 . S
C467 C475 1.574 . S
C467 C483 1.368 . S
H468 C476 0.950 . S
H469 C474 0.950 . S
H470 C475 0.949 . S
H471 C477 0.950 . S
H472 C478 0.950 . S
H473 C479 0.949 . S
C474 H469 0.950 . S
C474 C476 1.327 . S
C474 C480 1.429 . S
C475 C467 1.574 . S
C475 H470 0.949 . S
C475 C481 1.368 . S
C476 C460 1.349 . S
C476 H468 0.950 . S
C476 C474 1.327 . S
C477 C465 1.349 . S
C477 H471 0.950 . S
C477 C478 1.327 . S
C478 H472 0.950 . S
C478 C477 1.327 . S
C478 C482 1.429 . S
C479 C462 1.574 . S
C479 H473 0.949 . S
C479 C483 1.368 . S
C480 C461 1.429 . S
C480 C474 1.429 . S
C480 C481 1.523 . S
C481 C462 1.368 . S
C481 C475 1.368 . S
C481 C480 1.523 . S
C482 C466 1.429 . S
C482 C478 1.429 . S
C482 C483 1.523 . S
C483 C467 1.368 . S
C483 C479 1.368 . S
C483 C482 1.523 . S
H484 C459 0.950 . S
H485 C461 0.950 . S
H486 C462 0.949 . S
H487 C464 0.950 . S
H488 C466 0.950 . S
C489 C490 1.349 . S
C489 C491 1.327 . S
C489 H514 0.950 . S
C490 C489 1.349 . S
C490 C506 1.349 . S
C491 C489 1.327 . S
C491 C510 1.429 . S
C491 H515 0.950 . S
C492 C509 1.574 . S
C492 C511 1.368 . S
C492 H516 0.949 . S
H493 C497 0.949 . S
C494 C495 1.349 . S
C494 C496 1.327 . S
C494 H517 0.950 . S
C495 C494 1.349 . S
C495 C507 1.349 . S
C496 C494 1.327 . S
C496 C512 1.429 . S
C496 H518 0.950 . S
C497 H493 0.949 . S
C497 C505 1.574 . S
C497 C513 1.368 . S
H498 C506 0.950 . S
H499 C504 0.950 . S
H500 C505 0.949 . S
H501 C507 0.950 . S
H502 C508 0.950 . S
H503 C509 0.949 . S
C504 H499 0.950 . S
C504 C506 1.327 . S
C504 C510 1.429 . S
C505 C497 1.574 . S
C505 H500 0.949 . S
C505 C511 1.368 . S
C506 C490 1.349 . S
C506 H498 0.950 . S
C506 C504 1.327 . S
C507 C495 1.349 . S
C507 H501 0.950 . S
C507 C508 1.327 . S
C508 H502 0.950 . S
C508 C507 1.327 . S
C508 C512 1.429 . S
C509 C492 1.574 . S
C509 H503 0.949 . S
C509 C513 1.368 . S
C510 C491 1.429 . S
C510 C504 1.429 . S
C510 C511 1.523 . S
C511 C492 1.368 . S
C511 C505 1.368 . S
C511 C510 1.523 . S
C512 C496 1.429 . S
C512 C508 1.429 . S
C512 C513 1.523 . S
C513 C497 1.368 . S
C513 C509 1.368 . S
C513 C512 1.523 . S
H514 C489 0.950 . S
H515 C491 0.950 . S
H516 C492 0.949 . S
H517 C494 0.950 . S
H518 C496 0.950 . S
C519 C520 1.349 . S
C519 C521 1.327 . S
C519 H544 0.950 . S
C520 C519 1.349 . S
C520 C536 1.349 . S
C521 C519 1.327 . S
C521 C540 1.429 . S
C521 H545 0.950 . S
C522 C539 1.574 . S
C522 C541 1.368 . S
C522 H546 0.949 . S
H523 C527 0.949 . S
C524 C525 1.349 . S
C524 C526 1.327 . S
C524 H547 0.950 . S
C525 C524 1.349 . S
C525 C537 1.349 . S
C526 C524 1.327 . S
C526 C542 1.429 . S
C526 H548 0.950 . S
C527 H523 0.949 . S
C527 C535 1.574 . S
C527 C543 1.368 . S
H528 C536 0.950 . S
H529 C534 0.950 . S
H530 C535 0.949 . S
H531 C537 0.950 . S
H532 C538 0.950 . S
H533 C539 0.949 . S
C534 H529 0.950 . S
C534 C536 1.327 . S
C534 C540 1.429 . S
C535 C527 1.574 . S
C535 H530 0.949 . S
C535 C541 1.368 . S
C536 C520 1.349 . S
C536 H528 0.950 . S
C536 C534 1.327 . S
C537 C525 1.349 . S
C537 H531 0.950 . S
C537 C538 1.327 . S
C538 H532 0.950 . S
C538 C537 1.327 . S
C538 C542 1.429 . S
C539 C522 1.574 . S
C539 H533 0.949 . S
C539 C543 1.368 . S
C540 C521 1.429 . S
C540 C534 1.429 . S
C540 C541 1.523 . S
C541 C522 1.368 . S
C541 C535 1.368 . S
C541 C540 1.523 . S
C542 C526 1.429 . S
C542 C538 1.429 . S
C542 C543 1.523 . S
C543 C527 1.368 . S
C543 C539 1.368 . S
C543 C542 1.523 . S
H544 C519 0.950 . S
H545 C521 0.950 . S
H546 C522 0.949 . S
H547 C524 0.950 . S
H548 C526 0.950 . S
C549 C550 1.349 . S
C549 C551 1.327 . S
C549 H574 0.950 . S
C550 C549 1.349 . S
C550 C566 1.349 . S
C551 C549 1.327 . S
C551 C570 1.429 . S
C551 H575 0.950 . S
C552 C569 1.574 . S
C552 C571 1.368 . S
C552 H576 0.949 . S
H553 C557 0.949 . S
C554 C555 1.349 . S
C554 C556 1.327 . S
C554 H577 0.950 . S
C555 C554 1.349 . S
C555 C567 1.349 . S
C556 C554 1.327 . S
C556 C572 1.429 . S
C556 H578 0.950 . S
C557 H553 0.949 . S
C557 C565 1.574 . S
C557 C573 1.368 . S
H558 C566 0.950 . S
H559 C564 0.950 . S
H560 C565 0.949 . S
H561 C567 0.950 . S
H562 C568 0.950 . S
H563 C569 0.949 . S
C564 H559 0.950 . S
C564 C566 1.327 . S
C564 C570 1.429 . S
C565 C557 1.574 . S
C565 H560 0.949 . S
C565 C571 1.368 . S
C566 C550 1.349 . S
C566 H558 0.950 . S
C566 C564 1.327 . S
C567 C555 1.349 . S
C567 H561 0.950 . S
C567 C568 1.327 . S
C568 H562 0.950 . S
C568 C567 1.327 . S
C568 C572 1.429 . S
C569 C552 1.574 . S
C569 H563 0.949 . S
C569 C573 1.368 . S
C570 C551 1.429 . S
C570 C564 1.429 . S
C570 C571 1.523 . S
C571 C552 1.368 . S
C571 C565 1.368 . S
C571 C570 1.523 . S
C572 C556 1.429 . S
C572 C568 1.429 . S
C572 C573 1.523 . S
C573 C557 1.368 . S
C573 C569 1.368 . S
C573 C572 1.523 . S
H574 C549 0.950 . S
H575 C551 0.950 . S
H576 C552 0.949 . S
H577 C554 0.950 . S
H578 C556 0.950 . S
C579 C580 1.349 . S
C579 C581 1.327 . S
C579 H604 0.950 . S
C580 C579 1.349 . S
C580 C596 1.349 . S
C581 C579 1.327 . S
C581 C600 1.429 . S
C581 H605 0.950 . S
C582 C599 1.574 . S
C582 C601 1.368 . S
C582 H606 0.949 . S
H583 C587 0.949 . S
C584 C585 1.349 . S
C584 C586 1.327 . S
C584 H607 0.950 . S
C585 C584 1.349 . S
C585 C597 1.349 . S
C586 C584 1.327 . S
C586 C602 1.429 . S
C586 H608 0.950 . S
C587 H583 0.949 . S
C587 C595 1.574 . S
C587 C603 1.368 . S
H588 C596 0.950 . S
H589 C594 0.950 . S
H590 C595 0.949 . S
H591 C597 0.950 . S
H592 C598 0.950 . S
H593 C599 0.949 . S
C594 H589 0.950 . S
C594 C596 1.327 . S
C594 C600 1.429 . S
C595 C587 1.574 . S
C595 H590 0.949 . S
C595 C601 1.368 . S
C596 C580 1.349 . S
C596 H588 0.950 . S
C596 C594 1.327 . S
C597 C585 1.349 . S
C597 H591 0.950 . S
C597 C598 1.327 . S
C598 H592 0.950 . S
C598 C597 1.327 . S
C598 C602 1.429 . S
C599 C582 1.574 . S
C599 H593 0.949 . S
C599 C603 1.368 . S
C600 C581 1.429 . S
C600 C594 1.429 . S
C600 C601 1.523 . S
C601 C582 1.368 . S
C601 C595 1.368 . S
C601 C600 1.523 . S
C602 C586 1.429 . S
C602 C598 1.429 . S
C602 C603 1.523 . S
C603 C587 1.368 . S
C603 C599 1.368 . S
C603 C602 1.523 . S
H604 C579 0.950 . S
H605 C581 0.950 . S
H606 C582 0.949 . S
H607 C584 0.950 . S
H608 C586 0.950 . S
C609 C610 1.349 . S
C609 C611 1.327 . S
C609 H634 0.950 . S
C610 C609 1.349 . S
C610 C626 1.349 . S
C611 C609 1.327 . S
C611 C630 1.429 . S
C611 H635 0.950 . S
C612 C629 1.574 . S
C612 C631 1.368 . S
C612 H636 0.949 . S
H613 C617 0.949 . S
C614 C615 1.349 . S
C614 C616 1.327 . S
C614 H637 0.950 . S
C615 C614 1.349 . S
C615 C627 1.349 . S
C616 C614 1.327 . S
C616 C632 1.429 . S
C616 H638 0.950 . S
C617 H613 0.949 . S
C617 C625 1.574 . S
C617 C633 1.368 . S
H618 C626 0.950 . S
H619 C624 0.950 . S
H620 C625 0.949 . S
H621 C627 0.950 . S
H622 C628 0.950 . S
H623 C629 0.949 . S
C624 H619 0.950 . S
C624 C626 1.327 . S
C624 C630 1.429 . S
C625 C617 1.574 . S
C625 H620 0.949 . S
C625 C631 1.368 . S
C626 C610 1.349 . S
C626 H618 0.950 . S
C626 C624 1.327 . S
C627 C615 1.349 . S
C627 H621 0.950 . S
C627 C628 1.327 . S
C628 H622 0.950 . S
C628 C627 1.327 . S
C628 C632 1.429 . S
C629 C612 1.574 . S
C629 H623 0.949 . S
C629 C633 1.368 . S
C630 C611 1.429 . S
C630 C624 1.429 . S
C630 C631 1.523 . S
C631 C612 1.368 . S
C631 C625 1.368 . S
C631 C630 1.523 . S
C632 C616 1.429 . S
C632 C628 1.429 . S
C632 C633 1.523 . S
C633 C617 1.368 . S
C633 C629 1.368 . S
C633 C632 1.523 . S
H634 C609 0.950 . S
H635 C611 0.950 . S
H636 C612 0.949 . S
H637 C614 0.950 . S
H638 C616 0.950 . S
C639 C640 1.349 . S
C639 C641 1.327 . S
C639 H664 0.950 . S
C640 C639 1.349 . S
C640 C656 1.349 1_556 S
C641 C639 1.327 . S
C641 C660 1.429 . S
C641 H665 0.950 . S
C642 C659 1.574 . S
C642 C661 1.368 . S
C642 H666 0.949 . S
H643 C647 0.949 . S
C644 C645 1.349 . S
C644 C646 1.327 . S
C644 H667 0.950 . S
C645 C644 1.349 . S
C645 C657 1.349 . S
C646 C644 1.327 . S
C646 C662 1.429 . S
C646 H668 0.950 . S
C647 H643 0.949 . S
C647 C655 1.574 . S
C647 C663 1.368 . S
H648 C656 0.950 . S
H649 C654 0.950 . S
H650 C655 0.949 . S
H651 C657 0.950 . S
H652 C658 0.950 . S
H653 C659 0.949 . S
C654 H649 0.950 . S
C654 C656 1.327 1_556 S
C654 C660 1.429 . S
C655 C647 1.574 . S
C655 H650 0.949 . S
C655 C661 1.368 . S
C656 C640 1.349 1_554 S
C656 H648 0.950 . S
C656 C654 1.327 1_554 S
C657 C645 1.349 . S
C657 H651 0.950 . S
C657 C658 1.327 . S
C658 H652 0.950 . S
C658 C657 1.327 . S
C658 C662 1.429 . S
C659 C642 1.574 . S
C659 H653 0.949 . S
C659 C663 1.368 . S
C660 C641 1.429 . S
C660 C654 1.429 . S
C660 C661 1.523 . S
C661 C642 1.368 . S
C661 C655 1.368 . S
C661 C660 1.523 . S
C662 C646 1.429 . S
C662 C658 1.429 . S
C662 C663 1.523 . S
C663 C647 1.368 . S
C663 C659 1.368 . S
C663 C662 1.523 . S
H664 C639 0.950 . S
H665 C641 0.950 . S
H666 C642 0.949 . S
H667 C644 0.950 . S
H668 C646 0.950 . S
C669 C670 1.349 1_556 S
C669 C671 1.327 . S
C669 H694 0.950 . S
C670 C669 1.349 1_554 S
C670 C686 1.349 . S
C671 C669 1.327 . S
C671 C690 1.429 . S
C671 H695 0.950 . S
C672 C689 1.574 . S
C672 C691 1.368 . S
C672 H696 0.949 . S
H673 C677 0.949 . S
C674 C675 1.349 . S
C674 C676 1.327 . S
C674 H697 0.950 . S
C675 C674 1.349 . S
C675 C687 1.349 . S
C676 C674 1.327 . S
C676 C692 1.429 . S
C676 H698 0.950 . S
C677 H673 0.949 . S
C677 C685 1.574 . S
C677 C693 1.368 . S
H678 C686 0.950 . S
H679 C684 0.950 1_554 S
H680 C685 0.949 . S
H681 C687 0.950 . S
H682 C688 0.950 . S
H683 C689 0.949 . S
C684 H679 0.950 1_556 S
C684 C686 1.327 1_556 S
C684 C690 1.429 . S
C685 C677 1.574 . S
C685 H680 0.949 . S
C685 C691 1.368 . S
C686 C670 1.349 . S
C686 H678 0.950 . S
C686 C684 1.327 1_554 S
C687 C675 1.349 . S
C687 H681 0.950 . S
C687 C688 1.327 . S
C688 H682 0.950 . S
C688 C687 1.327 . S
C688 C692 1.429 . S
C689 C672 1.574 . S
C689 H683 0.949 . S
C689 C693 1.368 . S
C690 C671 1.429 . S
C690 C684 1.429 . S
C690 C691 1.523 . S
C691 C672 1.368 . S
C691 C685 1.368 . S
C691 C690 1.523 . S
C692 C676 1.429 . S
C692 C688 1.429 . S
C692 C693 1.523 . S
C693 C677 1.368 . S
C693 C689 1.368 . S
C693 C692 1.523 . S
H694 C669 0.950 . S
H695 C671 0.950 . S
H696 C672 0.949 . S
H697 C674 0.950 . S
H698 C676 0.950 . S
C699 C700 1.349 . S
C699 C701 1.327 . S
C699 H724 0.950 . S
C700 C699 1.349 . S
C700 C716 1.349 . S
C701 C699 1.327 . S
C701 C720 1.429 . S
C701 H725 0.950 . S
C702 C719 1.574 . S
C702 C721 1.368 . S
C702 H726 0.949 . S
H703 C707 0.949 . S
C704 C705 1.349 . S
C704 C706 1.327 . S
C704 H727 0.950 . S
C705 C704 1.349 . S
C705 C717 1.349 . S
C706 C704 1.327 . S
C706 C722 1.429 . S
C706 H728 0.950 . S
C707 H703 0.949 . S
C707 C715 1.574 . S
C707 C723 1.368 . S
H708 C716 0.950 . S
H709 C714 0.950 . S
H710 C715 0.949 . S
H711 C717 0.950 . S
H712 C718 0.950 . S
H713 C719 0.949 . S
C714 H709 0.950 . S
C714 C716 1.327 . S
C714 C720 1.429 . S
C715 C707 1.574 . S
C715 H710 0.949 . S
C715 C721 1.368 . S
C716 C700 1.349 . S
C716 H708 0.950 . S
C716 C714 1.327 . S
C717 C705 1.349 . S
C717 H711 0.950 . S
C717 C718 1.327 . S
C718 H712 0.950 . S
C718 C717 1.327 . S
C718 C722 1.429 . S
C719 C702 1.574 . S
C719 H713 0.949 . S
C719 C723 1.368 . S
C720 C701 1.429 . S
C720 C714 1.429 . S
C720 C721 1.523 . S
C721 C702 1.368 . S
C721 C715 1.368 . S
C721 C720 1.523 . S
C722 C706 1.429 . S
C722 C718 1.429 . S
C722 C723 1.523 . S
C723 C707 1.368 . S
C723 C719 1.368 . S
C723 C722 1.523 . S
H724 C699 0.950 . S
H725 C701 0.950 . S
H726 C702 0.949 . S
H727 C704 0.950 . S
H728 C706 0.950 . S
C729 C730 1.349 . S
C729 C731 1.327 . S
C729 H754 0.950 . S
C730 C729 1.349 . S
C730 C746 1.349 . S
C731 C729 1.327 . S
C731 C750 1.429 . S
C731 H755 0.950 . S
C732 C749 1.574 . S
C732 C751 1.368 . S
C732 H756 0.949 . S
H733 C737 0.949 . S
C734 C735 1.349 . S
C734 C736 1.327 . S
C734 H757 0.950 . S
C735 C734 1.349 . S
C735 C747 1.349 . S
C736 C734 1.327 . S
C736 C752 1.429 . S
C736 H758 0.950 . S
C737 H733 0.949 . S
C737 C745 1.574 . S
C737 C753 1.368 . S
H738 C746 0.950 . S
H739 C744 0.950 . S
H740 C745 0.949 . S
H741 C747 0.950 . S
H742 C748 0.950 . S
H743 C749 0.949 . S
C744 H739 0.950 . S
C744 C746 1.327 . S
C744 C750 1.429 . S
C745 C737 1.574 . S
C745 H740 0.949 . S
C745 C751 1.368 . S
C746 C730 1.349 . S
C746 H738 0.950 . S
C746 C744 1.327 . S
C747 C735 1.349 . S
C747 H741 0.950 . S
C747 C748 1.327 . S
C748 H742 0.950 . S
C748 C747 1.327 . S
C748 C752 1.429 . S
C749 C732 1.574 . S
C749 H743 0.949 . S
C749 C753 1.368 . S
C750 C731 1.429 . S
C750 C744 1.429 . S
C750 C751 1.523 . S
C751 C732 1.368 . S
C751 C745 1.368 . S
C751 C750 1.523 . S
C752 C736 1.429 . S
C752 C748 1.429 . S
C752 C753 1.523 . S
C753 C737 1.368 . S
C753 C749 1.368 . S
C753 C752 1.523 . S
H754 C729 0.950 . S
H755 C731 0.950 . S
H756 C732 0.949 . S
H757 C734 0.950 . S
H758 C736 0.950 . S
C759 C760 1.349 . S
C759 C761 1.327 . S
C759 H784 0.950 . S
C760 C759 1.349 . S
C760 C776 1.349 . S
C761 C759 1.327 . S
C761 C780 1.429 . S
C761 H785 0.950 . S
C762 C779 1.574 . S
C762 C781 1.368 . S
C762 H786 0.949 . S
H763 C767 0.949 . S
C764 C765 1.349 . S
C764 C766 1.327 . S
C764 H787 0.950 . S
C765 C764 1.349 . S
C765 C777 1.349 . S
C766 C764 1.327 . S
C766 C782 1.429 . S
C766 H788 0.950 . S
C767 H763 0.949 . S
C767 C775 1.574 . S
C767 C783 1.368 . S
H768 C776 0.950 1_554 S
H769 C774 0.950 . S
H770 C775 0.949 . S
H771 C777 0.950 . S
H772 C778 0.950 . S
H773 C779 0.949 . S
C774 H769 0.950 . S
C774 C776 1.327 . S
C774 C780 1.429 . S
C775 C767 1.574 . S
C775 H770 0.949 . S
C775 C781 1.368 . S
C776 C760 1.349 . S
C776 H768 0.950 1_556 S
C776 C774 1.327 . S
C777 C765 1.349 . S
C777 H771 0.950 . S
C777 C778 1.327 . S
C778 H772 0.950 . S
C778 C777 1.327 . S
C778 C782 1.429 . S
C779 C762 1.574 . S
C779 H773 0.949 . S
C779 C783 1.368 . S
C780 C761 1.429 . S
C780 C774 1.429 . S
C780 C781 1.523 . S
C781 C762 1.368 . S
C781 C775 1.368 . S
C781 C780 1.523 . S
C782 C766 1.429 . S
C782 C778 1.429 . S
C782 C783 1.523 . S
C783 C767 1.368 . S
C783 C779 1.368 . S
C783 C782 1.523 . S
H784 C759 0.950 . S
H785 C761 0.950 . S
H786 C762 0.949 . S
H787 C764 0.950 . S
H788 C766 0.950 . S
C789 C790 1.349 1_554 S
C789 C791 1.327 1_554 S
C789 H814 0.950 . S
C790 C789 1.349 1_556 S
C790 C806 1.349 . S
C791 C789 1.327 1_556 S
C791 C810 1.429 . S
C791 H815 0.950 . S
C792 C809 1.574 . S
C792 C811 1.368 . S
C792 H816 0.949 . S
H793 C797 0.949 . S
C794 C795 1.349 . S
C794 C796 1.327 . S
C794 H817 0.950 . S
C795 C794 1.349 . S
C795 C807 1.349 . S
C796 C794 1.327 . S
C796 C812 1.429 . S
C796 H818 0.950 . S
C797 H793 0.949 . S
C797 C805 1.574 . S
C797 C813 1.368 . S
H798 C806 0.950 . S
H799 C804 0.950 . S
H800 C805 0.949 . S
H801 C807 0.950 . S
H802 C808 0.950 . S
H803 C809 0.949 . S
C804 H799 0.950 . S
C804 C806 1.327 . S
C804 C810 1.429 . S
C805 C797 1.574 . S
C805 H800 0.949 . S
C805 C811 1.368 . S
C806 C790 1.349 . S
C806 H798 0.950 . S
C806 C804 1.327 . S
C807 C795 1.349 . S
C807 H801 0.950 . S
C807 C808 1.327 . S
C808 H802 0.950 . S
C808 C807 1.327 . S
C808 C812 1.429 . S
C809 C792 1.574 . S
C809 H803 0.949 . S
C809 C813 1.368 . S
C810 C791 1.429 . S
C810 C804 1.429 . S
C810 C811 1.523 . S
C811 C792 1.368 . S
C811 C805 1.368 . S
C811 C810 1.523 . S
C812 C796 1.429 . S
C812 C808 1.429 . S
C812 C813 1.523 . S
C813 C797 1.368 . S
C813 C809 1.368 . S
C813 C812 1.523 . S
H814 C789 0.950 . S
H815 C791 0.950 . S
H816 C792 0.949 . S
H817 C794 0.950 . S
H818 C796 0.950 . S
C819 C820 1.349 1_556 S
C819 C821 1.327 . S
C819 H844 0.950 . S
C820 C819 1.349 1_554 S
C820 C836 1.349 1_554 S
C821 C819 1.327 . S
C821 C840 1.429 . S
C821 H845 0.950 . S
C822 C839 1.574 . S
C822 C841 1.368 . S
C822 H846 0.949 . S
H823 C827 0.949 . S
C824 C825 1.349 . S
C824 C826 1.327 . S
C824 H847 0.950 . S
C825 C824 1.349 . S
C825 C837 1.349 . S
C826 C824 1.327 . S
C826 C842 1.429 . S
C826 H848 0.950 . S
C827 H823 0.949 . S
C827 C835 1.574 . S
C827 C843 1.368 . S
H828 C836 0.950 1_554 S
H829 C834 0.950 . S
H830 C835 0.949 . S
H831 C837 0.950 . S
H832 C838 0.950 . S
H833 C839 0.949 . S
C834 H829 0.950 . S
C834 C836 1.327 . S
C834 C840 1.429 . S
C835 C827 1.574 . S
C835 H830 0.949 . S
C835 C841 1.368 . S
C836 C820 1.349 1_556 S
C836 H828 0.950 1_556 S
C836 C834 1.327 . S
C837 C825 1.349 . S
C837 H831 0.950 . S
C837 C838 1.327 . S
C838 H832 0.950 . S
C838 C837 1.327 . S
C838 C842 1.429 . S
C839 C822 1.574 . S
C839 H833 0.949 . S
C839 C843 1.368 . S
C840 C821 1.429 . S
C840 C834 1.429 . S
C840 C841 1.523 . S
C841 C822 1.368 . S
C841 C835 1.368 . S
C841 C840 1.523 . S
C842 C826 1.429 . S
C842 C838 1.429 . S
C842 C843 1.523 . S
C843 C827 1.368 . S
C843 C839 1.368 . S
C843 C842 1.523 . S
H844 C819 0.950 . S
H845 C821 0.950 . S
H846 C822 0.949 . S
H847 C824 0.950 . S
H848 C826 0.950 . S
C849 C850 1.349 . S
C849 C851 1.327 . S
C849 H874 0.950 . S
C850 C849 1.349 . S
C850 C866 1.349 . S
C851 C849 1.327 . S
C851 C870 1.429 . S
C851 H875 0.950 . S
C852 C869 1.574 . S
C852 C871 1.368 . S
C852 H876 0.949 . S
H853 C857 0.949 . S
C854 C855 1.349 . S
C854 C856 1.327 . S
C854 H877 0.950 . S
C855 C854 1.349 . S
C855 C867 1.349 . S
C856 C854 1.327 . S
C856 C872 1.429 . S
C856 H878 0.950 . S
C857 H853 0.949 . S
C857 C865 1.574 . S
C857 C873 1.368 . S
H858 C866 0.950 . S
H859 C864 0.950 . S
H860 C865 0.949 . S
H861 C867 0.950 . S
H862 C868 0.950 . S
H863 C869 0.949 . S
C864 H859 0.950 . S
C864 C866 1.327 . S
C864 C870 1.429 . S
C865 C857 1.574 . S
C865 H860 0.949 . S
C865 C871 1.368 . S
C866 C850 1.349 . S
C866 H858 0.950 . S
C866 C864 1.327 . S
C867 C855 1.349 . S
C867 H861 0.950 . S
C867 C868 1.327 . S
C868 H862 0.950 . S
C868 C867 1.327 . S
C868 C872 1.429 . S
C869 C852 1.574 . S
C869 H863 0.949 . S
C869 C873 1.368 . S
C870 C851 1.429 . S
C870 C864 1.429 . S
C870 C871 1.523 . S
C871 C852 1.368 . S
C871 C865 1.368 . S
C871 C870 1.523 . S
C872 C856 1.429 . S
C872 C868 1.429 . S
C872 C873 1.523 . S
C873 C857 1.368 . S
C873 C869 1.368 . S
C873 C872 1.523 . S
H874 C849 0.950 . S
H875 C851 0.950 . S
H876 C852 0.949 . S
H877 C854 0.950 . S
H878 C856 0.950 . S
C879 C880 1.349 . S
C879 C881 1.327 . S
C879 H904 0.950 . S
C880 C879 1.349 . S
C880 C896 1.349 . S
C881 C879 1.327 . S
C881 C900 1.429 . S
C881 H905 0.950 . S
C882 C899 1.574 . S
C882 C901 1.368 . S
C882 H906 0.949 . S
H883 C887 0.949 . S
C884 C885 1.349 . S
C884 C886 1.327 . S
C884 H907 0.950 . S
C885 C884 1.349 . S
C885 C897 1.349 . S
C886 C884 1.327 . S
C886 C902 1.429 . S
C886 H908 0.950 . S
C887 H883 0.949 . S
C887 C895 1.574 . S
C887 C903 1.368 . S
H888 C896 0.950 . S
H889 C894 0.950 . S
H890 C895 0.949 . S
H891 C897 0.950 . S
H892 C898 0.950 . S
H893 C899 0.949 . S
C894 H889 0.950 . S
C894 C896 1.327 . S
C894 C900 1.429 . S
C895 C887 1.574 . S
C895 H890 0.949 . S
C895 C901 1.368 . S
C896 C880 1.349 . S
C896 H888 0.950 . S
C896 C894 1.327 . S
C897 C885 1.349 . S
C897 H891 0.950 . S
C897 C898 1.327 . S
C898 H892 0.950 . S
C898 C897 1.327 . S
C898 C902 1.429 . S
C899 C882 1.574 . S
C899 H893 0.949 . S
C899 C903 1.368 . S
C900 C881 1.429 . S
C900 C894 1.429 . S
C900 C901 1.523 . S
C901 C882 1.368 . S
C901 C895 1.368 . S
C901 C900 1.523 . S
C902 C886 1.429 . S
C902 C898 1.429 . S
C902 C903 1.523 . S
C903 C887 1.368 . S
C903 C899 1.368 . S
C903 C902 1.523 . S
H904 C879 0.950 . S
H905 C881 0.950 . S
H906 C882 0.949 . S
H907 C884 0.950 . S
H908 C886 0.950 . S
C909 C910 1.349 . S
C909 C911 1.327 . S
C909 H934 0.950 . S
C910 C909 1.349 . S
C910 C926 1.349 . S
C911 C909 1.327 . S
C911 C930 1.429 . S
C911 H935 0.950 . S
C912 C929 1.574 . S
C912 C931 1.368 . S
C912 H936 0.949 . S
H913 C917 0.949 . S
C914 C915 1.349 . S
C914 C916 1.327 . S
C914 H937 0.950 . S
C915 C914 1.349 . S
C915 C927 1.349 . S
C916 C914 1.327 . S
C916 C932 1.429 . S
C916 H938 0.950 . S
C917 H913 0.949 . S
C917 C925 1.574 . S
C917 C933 1.368 . S
H918 C926 0.950 . S
H919 C924 0.950 . S
H920 C925 0.949 . S
H921 C927 0.950 . S
H922 C928 0.950 . S
H923 C929 0.949 . S
C924 H919 0.950 . S
C924 C926 1.327 . S
C924 C930 1.429 . S
C925 C917 1.574 . S
C925 H920 0.949 . S
C925 C931 1.368 . S
C926 C910 1.349 . S
C926 H918 0.950 . S
C926 C924 1.327 . S
C927 C915 1.349 . S
C927 H921 0.950 . S
C927 C928 1.327 . S
C928 H922 0.950 . S
C928 C927 1.327 . S
C928 C932 1.429 . S
C929 C912 1.574 . S
C929 H923 0.949 . S
C929 C933 1.368 . S
C930 C911 1.429 . S
C930 C924 1.429 . S
C930 C931 1.523 . S
C931 C912 1.368 . S
C931 C925 1.368 . S
C931 C930 1.523 . S
C932 C916 1.429 . S
C932 C928 1.429 . S
C932 C933 1.523 . S
C933 C917 1.368 . S
C933 C929 1.368 . S
C933 C932 1.523 . S
H934 C909 0.950 . S
H935 C911 0.950 . S
H936 C912 0.949 . S
H937 C914 0.950 . S
H938 C916 0.950 . S
C939 C940 1.349 . S
C939 C941 1.327 . S
C939 H964 0.950 . S
C940 C939 1.349 . S
C940 C956 1.349 . S
C941 C939 1.327 . S
C941 C960 1.429 . S
C941 H965 0.950 . S
C942 C959 1.574 . S
C942 C961 1.368 . S
C942 H966 0.949 . S
H943 C947 0.949 . S
C944 C945 1.349 . S
C944 C946 1.327 . S
C944 H967 0.950 . S
C945 C944 1.349 . S
C945 C957 1.349 . S
C946 C944 1.327 . S
C946 C962 1.429 . S
C946 H968 0.950 . S
C947 H943 0.949 . S
C947 C955 1.574 . S
C947 C963 1.368 . S
H948 C956 0.950 . S
H949 C954 0.950 . S
H950 C955 0.949 . S
H951 C957 0.950 . S
H952 C958 0.950 . S
H953 C959 0.949 . S
C954 H949 0.950 . S
C954 C956 1.327 . S
C954 C960 1.429 . S
C955 C947 1.574 . S
C955 H950 0.949 . S
C955 C961 1.368 . S
C956 C940 1.349 . S
C956 H948 0.950 . S
C956 C954 1.327 . S
C957 C945 1.349 . S
C957 H951 0.950 . S
C957 C958 1.327 . S
C958 H952 0.950 . S
C958 C957 1.327 . S
C958 C962 1.429 . S
C959 C942 1.574 . S
C959 H953 0.949 . S
C959 C963 1.368 . S
C960 C941 1.429 . S
C960 C954 1.429 . S
C960 C961 1.523 . S
C961 C942 1.368 . S
C961 C955 1.368 . S
C961 C960 1.523 . S
C962 C946 1.429 . S
C962 C958 1.429 . S
C962 C963 1.523 . S
C963 C947 1.368 . S
C963 C959 1.368 . S
C963 C962 1.523 . S
H964 C939 0.950 . S
H965 C941 0.950 . S
H966 C942 0.949 . S
H967 C944 0.950 . S
H968 C946 0.950 . S
C969 C970 1.349 . S
C969 C971 1.327 . S
C969 H994 0.950 . S
C970 C969 1.349 . S
C970 C986 1.349 . S
C971 C969 1.327 . S
C971 C990 1.429 . S
C971 H995 0.950 . S
C972 C989 1.574 . S
C972 C991 1.368 . S
C972 H996 0.949 . S
H973 C977 0.949 . S
C974 C975 1.349 . S
C974 C976 1.327 . S
C974 H997 0.950 . S
C975 C974 1.349 . S
C975 C987 1.349 . S
C976 C974 1.327 . S
C976 C992 1.429 . S
C976 H998 0.950 . S
C977 H973 0.949 . S
C977 C985 1.574 . S
C977 C993 1.368 . S
H978 C986 0.950 . S
H979 C984 0.950 . S
H980 C985 0.949 . S
H981 C987 0.950 . S
H982 C988 0.950 . S
H983 C989 0.949 . S
C984 H979 0.950 . S
C984 C986 1.327 . S
C984 C990 1.429 . S
C985 C977 1.574 . S
C985 H980 0.949 . S
C985 C991 1.368 . S
C986 C970 1.349 . S
C986 H978 0.950 . S
C986 C984 1.327 . S
C987 C975 1.349 . S
C987 H981 0.950 . S
C987 C988 1.327 . S
C988 H982 0.950 . S
C988 C987 1.327 . S
C988 C992 1.429 . S
C989 C972 1.574 . S
C989 H983 0.949 . S
C989 C993 1.368 . S
C990 C971 1.429 . S
C990 C984 1.429 . S
C990 C991 1.523 . S
C991 C972 1.368 . S
C991 C985 1.368 . S
C991 C990 1.523 . S
C992 C976 1.429 . S
C992 C988 1.429 . S
C992 C993 1.523 . S
C993 C977 1.368 . S
C993 C989 1.368 . S
C993 C992 1.523 . S
H994 C969 0.950 . S
H995 C971 0.950 . S
H996 C972 0.949 . S
H997 C974 0.950 . S
H998 C976 0.950 . S
C999 C1000 1.349 . S
C999 C1001 1.327 . S
C999 H1024 0.950 . S
C1000 C999 1.349 . S
C1000 C1016 1.349 . S
C1001 C999 1.327 . S
C1001 C1020 1.429 . S
C1001 H1025 0.950 . S
C1002 C1019 1.574 . S
C1002 C1021 1.368 . S
C1002 H1026 0.949 . S
H1003 C1007 0.949 . S
C1004 C1005 1.349 . S
C1004 C1006 1.327 . S
C1004 H1027 0.950 . S
C1005 C1004 1.349 . S
C1005 C1017 1.349 . S
C1006 C1004 1.327 . S
C1006 C1022 1.429 . S
C1006 H1028 0.950 . S
C1007 H1003 0.949 . S
C1007 C1015 1.574 . S
C1007 C1023 1.368 . S
H1008 C1016 0.950 . S
H1009 C1014 0.950 . S
H1010 C1015 0.949 . S
H1011 C1017 0.950 . S
H1012 C1018 0.950 . S
H1013 C1019 0.949 . S
C1014 H1009 0.950 . S
C1014 C1016 1.327 . S
C1014 C1020 1.429 . S
C1015 C1007 1.574 . S
C1015 H1010 0.949 . S
C1015 C1021 1.368 . S
C1016 C1000 1.349 . S
C1016 H1008 0.950 . S
C1016 C1014 1.327 . S
C1017 C1005 1.349 . S
C1017 H1011 0.950 . S
C1017 C1018 1.327 . S
C1018 H1012 0.950 . S
C1018 C1017 1.327 . S
C1018 C1022 1.429 . S
C1019 C1002 1.574 . S
C1019 H1013 0.949 . S
C1019 C1023 1.368 . S
C1020 C1001 1.429 . S
C1020 C1014 1.429 . S
C1020 C1021 1.523 . S
C1021 C1002 1.368 . S
C1021 C1015 1.368 . S
C1021 C1020 1.523 . S
C1022 C1006 1.429 . S
C1022 C1018 1.429 . S
C1022 C1023 1.523 . S
C1023 C1007 1.368 . S
C1023 C1019 1.368 . S
C1023 C1022 1.523 . S
H1024 C999 0.950 . S
H1025 C1001 0.950 . S
H1026 C1002 0.949 . S
H1027 C1004 0.950 . S
H1028 C1006 0.950 . S
C1029 C1030 1.349 . S
C1029 C1031 1.327 . S
C1029 H1054 0.950 . S
C1030 C1029 1.349 . S
C1030 C1046 1.349 . S
C1031 C1029 1.327 . S
C1031 C1050 1.429 . S
C1031 H1055 0.950 . S
C1032 C1049 1.574 . S
C1032 C1051 1.368 . S
C1032 H1056 0.949 . S
H1033 C1037 0.949 . S
C1034 C1035 1.349 . S
C1034 C1036 1.327 . S
C1034 H1057 0.950 . S
C1035 C1034 1.349 . S
C1035 C1047 1.349 . S
C1036 C1034 1.327 . S
C1036 C1052 1.429 . S
C1036 H1058 0.950 . S
C1037 H1033 0.949 . S
C1037 C1045 1.574 . S
C1037 C1053 1.368 . S
H1038 C1046 0.950 . S
H1039 C1044 0.950 . S
H1040 C1045 0.949 . S
H1041 C1047 0.950 . S
H1042 C1048 0.950 . S
H1043 C1049 0.949 . S
C1044 H1039 0.950 . S
C1044 C1046 1.327 . S
C1044 C1050 1.429 . S
C1045 C1037 1.574 . S
C1045 H1040 0.949 . S
C1045 C1051 1.368 . S
C1046 C1030 1.349 . S
C1046 H1038 0.950 . S
C1046 C1044 1.327 . S
C1047 C1035 1.349 . S
C1047 H1041 0.950 . S
C1047 C1048 1.327 . S
C1048 H1042 0.950 . S
C1048 C1047 1.327 . S
C1048 C1052 1.429 . S
C1049 C1032 1.574 . S
C1049 H1043 0.949 . S
C1049 C1053 1.368 . S
C1050 C1031 1.429 . S
C1050 C1044 1.429 . S
C1050 C1051 1.523 . S
C1051 C1032 1.368 . S
C1051 C1045 1.368 . S
C1051 C1050 1.523 . S
C1052 C1036 1.429 . S
C1052 C1048 1.429 . S
C1052 C1053 1.523 . S
C1053 C1037 1.368 . S
C1053 C1049 1.368 . S
C1053 C1052 1.523 . S
H1054 C1029 0.950 . S
H1055 C1031 0.950 . S
H1056 C1032 0.949 . S
H1057 C1034 0.950 . S
H1058 C1036 0.950 . S
C1059 C1060 1.349 . S
C1059 C1061 1.327 . S
C1059 H1084 0.950 . S
C1060 C1059 1.349 . S
C1060 C1076 1.349 . S
C1061 C1059 1.327 . S
C1061 C1080 1.429 . S
C1061 H1085 0.950 . S
C1062 C1079 1.574 . S
C1062 C1081 1.368 . S
C1062 H1086 0.949 . S
H1063 C1067 0.949 . S
C1064 C1065 1.349 . S
C1064 C1066 1.327 . S
C1064 H1087 0.950 . S
C1065 C1064 1.349 . S
C1065 C1077 1.349 . S
C1066 C1064 1.327 . S
C1066 C1082 1.429 . S
C1066 H1088 0.950 . S
C1067 H1063 0.949 . S
C1067 C1075 1.574 . S
C1067 C1083 1.368 . S
H1068 C1076 0.950 . S
H1069 C1074 0.950 . S
H1070 C1075 0.949 . S
H1071 C1077 0.950 . S
H1072 C1078 0.950 . S
H1073 C1079 0.949 . S
C1074 H1069 0.950 . S
C1074 C1076 1.327 . S
C1074 C1080 1.429 . S
C1075 C1067 1.574 . S
C1075 H1070 0.949 . S
C1075 C1081 1.368 . S
C1076 C1060 1.349 . S
C1076 H1068 0.950 . S
C1076 C1074 1.327 . S
C1077 C1065 1.349 . S
C1077 H1071 0.950 . S
C1077 C1078 1.327 . S
C1078 H1072 0.950 . S
C1078 C1077 1.327 . S
C1078 C1082 1.429 . S
C1079 C1062 1.574 . S
C1079 H1073 0.949 . S
C1079 C1083 1.368 . S
C1080 C1061 1.429 . S
C1080 C1074 1.429 . S
C1080 C1081 1.523 . S
C1081 C1062 1.368 . S
C1081 C1075 1.368 . S
C1081 C1080 1.523 . S
C1082 C1066 1.429 . S
C1082 C1078 1.429 . S
C1082 C1083 1.523 . S
C1083 C1067 1.368 . S
C1083 C1079 1.368 . S
C1083 C1082 1.523 . S
H1084 C1059 0.950 . S
H1085 C1061 0.950 . S
H1086 C1062 0.949 . S
H1087 C1064 0.950 . S
H1088 C1066 0.950 . S
C370 C15 1.714 . S
C375 C276 1.645 . S
C400 C47 1.616 . S
C405 C308 1.586 . S
C435 C367 1.989 . S
C430 C100 2.039 . S
C465 C296 1.477 . S
C460 C146 1.512 . S
C490 C192 1.623 . S
C495 C326 1.535 . S
C525 C348 1.130 . S
C520 C245 1.137 . S
C555 C317 1.627 . S
C550 C114 1.646 . S
C580 C160 1.210 . S
C585 C357 1.167 . S
C615 C306 1.522 . S
C610 C206 1.547 . S
C640 C231 1.581 1_556 S
C645 C336 1.543 . S
C670 C1 1.964 . S
C675 C339 1.917 . S
C705 C278 1.654 . S
C700 C61 1.674 . S
C735 C286 1.573 . S
C730 C139 1.608 . S
C765 C327 1.581 . S
C760 C185 1.602 . S
C795 C340 2.011 . S
C790 C252 2.061 1_556 S
C825 C277 1.517 . S
C820 C22 1.552 . S
C855 C337 1.487 . S
C850 C54 1.524 . S
C880 C93 1.160 . S
C885 C338 1.132 . S
C915 C307 1.571 . S
C910 C238 1.624 . S
C945 C368 1.133 . S
C940 C8 1.153 . S
C975 C295 1.495 . S
C970 C68 1.565 . S
C1005 C309 1.598 . S
C1000 C107 1.637 . S
C1030 C153 1.972 . S
C1035 C358 1.924 . S
C1060 C199 1.706 . S
C1065 C305 1.674 . S
