# Generated by pormake.
# Topology pyr, (3,6)-cn, num edge types: 1
# Building blocks:
#     Node 0, Type 0, BuildingBlock: MIDCAF_clean_linker_0, # of connection points: 3
#     Node 1, Type 0, BuildingBlock: MIDCAF_clean_linker_0, # of connection points: 3
#     Node 2, Type 0, BuildingBlock: MIDCAF_clean_linker_0, # of connection points: 3
#     Node 3, Type 0, BuildingBlock: MIDCAF_clean_linker_0, # of connection points: 3
#     Node 4, Type 0, BuildingBlock: MIDCAF_clean_linker_0, # of connection points: 3
#     Node 5, Type 0, BuildingBlock: MIDCAF_clean_linker_0, # of connection points: 3
#     Node 6, Type 0, BuildingBlock: MIDCAF_clean_linker_0, # of connection points: 3
#     Node 7, Type 0, BuildingBlock: MIDCAF_clean_linker_0, # of connection points: 3
#     Node 8, Type 1, BuildingBlock: PAMTOO_clean_sbu_0, # of connection points: 6
#     Node 9, Type 1, BuildingBlock: PAMTOO_clean_sbu_0, # of connection points: 6
#     Node 10, Type 1, BuildingBlock: PAMTOO_clean_sbu_0, # of connection points: 6
#     Node 11, Type 1, BuildingBlock: PAMTOO_clean_sbu_0, # of connection points: 6
#     Edge 12, Type (0, 1), BuildingBlock: EZIPEK_clean_linker_0, # of connection points: 2
#     Edge 13, Type (0, 1), BuildingBlock: EZIPEK_clean_linker_0, # of connection points: 2
#     Edge 14, Type (0, 1), BuildingBlock: EZIPEK_clean_linker_0, # of connection points: 2
#     Edge 15, Type (0, 1), BuildingBlock: EZIPEK_clean_linker_0, # of connection points: 2
#     Edge 16, Type (0, 1), BuildingBlock: EZIPEK_clean_linker_0, # of connection points: 2
#     Edge 17, Type (0, 1), BuildingBlock: EZIPEK_clean_linker_0, # of connection points: 2
#     Edge 18, Type (0, 1), BuildingBlock: EZIPEK_clean_linker_0, # of connection points: 2
#     Edge 19, Type (0, 1), BuildingBlock: EZIPEK_clean_linker_0, # of connection points: 2
#     Edge 20, Type (0, 1), BuildingBlock: EZIPEK_clean_linker_0, # of connection points: 2
#     Edge 21, Type (0, 1), BuildingBlock: EZIPEK_clean_linker_0, # of connection points: 2
#     Edge 22, Type (0, 1), BuildingBlock: EZIPEK_clean_linker_0, # of connection points: 2
#     Edge 23, Type (0, 1), BuildingBlock: EZIPEK_clean_linker_0, # of connection points: 2
#     Edge 24, Type (0, 1), BuildingBlock: EZIPEK_clean_linker_0, # of connection points: 2
#     Edge 25, Type (0, 1), BuildingBlock: EZIPEK_clean_linker_0, # of connection points: 2
#     Edge 26, Type (0, 1), BuildingBlock: EZIPEK_clean_linker_0, # of connection points: 2
#     Edge 27, Type (0, 1), BuildingBlock: EZIPEK_clean_linker_0, # of connection points: 2
#     Edge 28, Type (0, 1), BuildingBlock: EZIPEK_clean_linker_0, # of connection points: 2
#     Edge 29, Type (0, 1), BuildingBlock: EZIPEK_clean_linker_0, # of connection points: 2
#     Edge 30, Type (0, 1), BuildingBlock: EZIPEK_clean_linker_0, # of connection points: 2
#     Edge 31, Type (0, 1), BuildingBlock: EZIPEK_clean_linker_0, # of connection points: 2
#     Edge 32, Type (0, 1), BuildingBlock: EZIPEK_clean_linker_0, # of connection points: 2
#     Edge 33, Type (0, 1), BuildingBlock: EZIPEK_clean_linker_0, # of connection points: 2
#     Edge 34, Type (0, 1), BuildingBlock: EZIPEK_clean_linker_0, # of connection points: 2
#     Edge 35, Type (0, 1), BuildingBlock: EZIPEK_clean_linker_0, # of connection points: 2
# Relax obj value: 0.129
# Max RMSD: 0.174
# Mean RMSD: 0.073
data_MOF--net-pyr--node1-PAMTOO_clean_sbu_0--node2-MIDCAF_clean_linker_0--edge1-EZIPEK_clean_linker_0
_symmetry_space_group_name_H-M    P1
_symmetry_Int_Tables_number       1
_symmetry_cell_setting            triclinic
loop_
_symmetry_equiv_pos_as_xyz
'x, y, z'
_cell_length_a     35.093301
_cell_length_b     37.120931
_cell_length_c     36.718594
_cell_angle_alpha  89.98443
_cell_angle_beta   90.079066
_cell_angle_gamma 103.72331
loop_
_atom_site_label
_atom_site_type_symbol
_atom_site_fract_x
_atom_site_fract_y
_atom_site_fract_z
_atom_type_partial_charge
C0 C 0.31704 0.29227 0.36965 0.0
C1 C 0.32434 0.25931 0.38337 0.0
C2 C 0.35541 0.24595 0.36931 0.0
C3 C 0.37596 0.2628 0.33893 0.0
H4 H 0.40542 0.21585 0.25026 0.0
H5 H 0.43244 0.1706 0.21733 0.0
H6 H 0.47602 0.25178 0.13397 0.0
H7 H 0.44699 0.29698 0.16611 0.0
H8 H 0.34373 0.32035 0.15415 0.0
H9 H 0.28943 0.33973 0.124 0.0
H10 H 0.26499 0.39196 0.22321 0.0
H11 H 0.31911 0.37329 0.25348 0.0
H12 H 0.32879 0.33255 0.32698 0.0
H13 H 0.29311 0.30289 0.38036 0.0
H14 H 0.36142 0.22058 0.37981 0.0
H15 H 0.39767 0.24999 0.32697 0.0
N16 N 0.39942 0.28293 0.26592 0.0
N17 N 0.38494 0.30702 0.20985 0.0
N18 N 0.35809 0.32376 0.26397 0.0
C19 C 0.40408 0.28548 0.22927 0.0
C20 C 0.362 0.32653 0.2272 0.0
C21 C 0.37678 0.30221 0.28361 0.0
C22 C 0.42406 0.25991 0.21062 0.0
C23 C 0.42111 0.22428 0.2251 0.0
C24 C 0.43653 0.19835 0.20635 0.0
C25 C 0.45616 0.20778 0.17322 0.0
C26 C 0.46083 0.24396 0.15949 0.0
C27 C 0.44424 0.26966 0.17773 0.0
C28 C 0.33548 0.34478 0.20644 0.0
C29 C 0.32752 0.33681 0.16931 0.0
C30 C 0.29644 0.34771 0.15205 0.0
C31 C 0.27299 0.36672 0.17165 0.0
C32 C 0.28263 0.37703 0.2078 0.0
C33 C 0.3136 0.36627 0.22502 0.0
C34 C 0.36519 0.29289 0.32188 0.0
C35 C 0.33737 0.30901 0.33899 0.0
C36 C 0.10123 0.86524 0.70591 0.0
C37 C 0.08046 0.85487 0.67345 0.0
C38 C 0.07557 0.81838 0.66049 0.0
C39 C 0.09285 0.79323 0.6789 0.0
H40 H 0.19396 0.74105 0.65652 0.0
H41 H 0.24835 0.72092 0.62747 0.0
H42 H 0.27448 0.67377 0.72906 0.0
H43 H 0.22019 0.69291 0.75815 0.0
H44 H 0.20051 0.72662 0.83195 0.0
H45 H 0.23522 0.75359 0.88698 0.0
H46 H 0.17888 0.8447 0.88084 0.0
H47 H 0.14354 0.81793 0.82648 0.0
H48 H 0.13372 0.84892 0.74957 0.0
H49 H 0.10553 0.89325 0.71628 0.0
H50 H 0.05952 0.80984 0.6355 0.0
H51 H 0.08974 0.76558 0.66795 0.0
N52 N 0.15343 0.75699 0.71164 0.0
N53 N 0.17885 0.74023 0.76656 0.0
N54 N 0.13763 0.78119 0.7672 0.0
C55 C 0.17595 0.7375 0.72972 0.0
C56 C 0.15972 0.76182 0.78556 0.0
C57 C 0.13384 0.77857 0.73046 0.0
C58 C 0.20296 0.71911 0.70986 0.0
C59 C 0.21061 0.72559 0.67248 0.0
C60 C 0.24177 0.71428 0.65584 0.0
C61 C 0.26572 0.69648 0.67637 0.0
C62 C 0.25652 0.6878 0.71291 0.0
C63 C 0.2254 0.69883 0.72946 0.0
C64 C 0.17023 0.77076 0.82412 0.0
C65 C 0.19437 0.75168 0.84303 0.0
C66 C 0.2141 0.7669 0.87457 0.0
C67 C 0.21018 0.80148 0.88721 0.0
C68 C 0.18247 0.81814 0.87113 0.0
C69 C 0.16237 0.80276 0.83992 0.0
C70 C 0.11395 0.80385 0.71121 0.0
C71 C 0.11734 0.83986 0.72485 0.0
C72 C 0.631 0.24736 0.93109 0.0
C73 C 0.59197 0.22952 0.92347 0.0
C74 C 0.57076 0.24623 0.89864 0.0
C75 C 0.58827 0.28063 0.88235 0.0
H76 H 0.58425 0.36122 0.79449 0.0
H77 H 0.56143 0.39022 0.74118 0.0
H78 H 0.66403 0.48057 0.747 0.0
H79 H 0.68707 0.45215 0.80026 0.0
H80 H 0.71485 0.37933 0.95456 0.0
H81 H 0.7738 0.40787 0.98895 0.0
H82 H 0.81867 0.47652 0.89671 0.0
H83 H 0.759 0.44829 0.86181 0.0
H84 H 0.67838 0.29437 0.92237 0.0
H85 H 0.64797 0.23512 0.95007 0.0
H86 H 0.54049 0.23302 0.89244 0.0
H87 H 0.57106 0.29323 0.86395 0.0
N88 N 0.63272 0.35236 0.84711 0.0
N89 N 0.68421 0.40605 0.85372 0.0
N90 N 0.67797 0.35694 0.89495 0.0
C91 C 0.6518 0.38699 0.83513 0.0
C92 C 0.69722 0.39122 0.8839 0.0
C93 C 0.64606 0.33706 0.87702 0.0
C94 C 0.63764 0.40415 0.8021 0.0
C95 C 0.60212 0.38722 0.78452 0.0
C96 C 0.58894 0.4038 0.75394 0.0
C97 C 0.61098 0.43763 0.73994 0.0
C98 C 0.64648 0.4545 0.75718 0.0
C99 C 0.65957 0.43809 0.78782 0.0
C100 C 0.73214 0.41129 0.90517 0.0
C101 C 0.73701 0.40067 0.94145 0.0
C102 C 0.7707 0.41703 0.96132 0.0
C103 C 0.8007 0.44417 0.94541 0.0
C104 C 0.79582 0.45558 0.90949 0.0
C105 C 0.76168 0.43949 0.88962 0.0
C106 C 0.62716 0.29907 0.89095 0.0
C107 C 0.64829 0.28151 0.91517 0.0
C108 C 0.74488 0.6544 0.44258 0.0
C109 C 0.73061 0.61584 0.44031 0.0
C110 C 0.74991 0.59557 0.41728 0.0
C111 C 0.78288 0.61365 0.39693 0.0
H112 H 0.84023 0.62306 0.2871 0.0
H113 H 0.86371 0.59547 0.2336 0.0
H114 H 0.98083 0.66084 0.25324 0.0
H115 H 0.95719 0.6897 0.30617 0.0
H116 H 0.96205 0.76862 0.36447 0.0
H117 H 0.99264 0.82847 0.39361 0.0
H118 H 0.88427 0.82722 0.44903 0.0
H119 H 0.85379 0.76831 0.42065 0.0
H120 H 0.78809 0.70213 0.42551 0.0
H121 H 0.73046 0.67066 0.45996 0.0
H122 H 0.73939 0.56576 0.41506 0.0
H123 H 0.79727 0.59729 0.37964 0.0
N124 N 0.8484 0.65692 0.35099 0.0
N125 N 0.90104 0.70993 0.34662 0.0
N126 N 0.85298 0.70625 0.39172 0.0
C127 C 0.88193 0.67562 0.33392 0.0
C128 C 0.88637 0.72552 0.37556 0.0
C129 C 0.83384 0.6721 0.38008 0.0
C130 C 0.89674 0.65873 0.30123 0.0
C131 C 0.87102 0.6317 0.28013 0.0
C132 C 0.88443 0.61582 0.24937 0.0
C133 C 0.92418 0.62577 0.23914 0.0
C134 C 0.95003 0.65258 0.26032 0.0
C135 C 0.93644 0.66914 0.29065 0.0
C136 C 0.90544 0.7632 0.39026 0.0
C137 C 0.94465 0.7813 0.38254 0.0
C138 C 0.96219 0.81551 0.3992 0.0
C139 C 0.94072 0.8324 0.42356 0.0
C140 C 0.90144 0.81486 0.4304 0.0
C141 C 0.8841 0.78088 0.4141 0.0
C142 C 0.79757 0.65231 0.39965 0.0
C143 C 0.77795 0.67234 0.42273 0.0
C144 C 0.56951 0.84777 0.89649 0.0
C145 C 0.58129 0.86082 0.93153 0.0
C146 C 0.60925 0.8464 0.95025 0.0
C147 C 0.62631 0.82023 0.93366 0.0
H148 H 0.70178 0.75128 0.95189 0.0
H149 H 0.7558 0.73111 0.98174 0.0
H150 H 0.786 0.6878 0.8797 0.0
H151 H 0.73225 0.70719 0.8497 0.0
H152 H 0.70728 0.73681 0.77656 0.0
H153 H 0.74129 0.76596 0.72226 0.0
H154 H 0.6767 0.85111 0.72719 0.0
H155 H 0.64227 0.82228 0.78125 0.0
H156 H 0.57826 0.81328 0.85211 0.0
H157 H 0.54767 0.85836 0.88183 0.0
H158 H 0.61848 0.85606 0.97743 0.0
H159 H 0.64871 0.81051 0.94837 0.0
N160 N 0.66085 0.76617 0.89683 0.0
N161 N 0.68577 0.74988 0.84168 0.0
N162 N 0.64019 0.78666 0.84135 0.0
C163 C 0.68439 0.74803 0.87858 0.0
C164 C 0.66386 0.76906 0.8228 0.0
C165 C 0.63818 0.78508 0.87828 0.0
C166 C 0.71284 0.73124 0.89826 0.0
C167 C 0.71943 0.73687 0.9359 0.0
C168 C 0.75033 0.72553 0.95301 0.0
C169 C 0.77502 0.70849 0.9327 0.0
C170 C 0.76736 0.7012 0.89567 0.0
C171 C 0.73656 0.71235 0.87862 0.0
C172 C 0.67305 0.77796 0.78401 0.0
C173 C 0.69911 0.76091 0.76534 0.0
C174 C 0.71847 0.77736 0.73417 0.0
C175 C 0.71192 0.81096 0.7214 0.0
C176 C 0.68216 0.82524 0.73694 0.0
C177 C 0.6626 0.8087 0.76797 0.0
C178 C 0.61605 0.80842 0.89783 0.0
C179 C 0.58697 0.82199 0.87965 0.0
C180 C 0.84975 0.23601 0.23601 0.0
C181 C 0.82031 0.25059 0.22017 0.0
C182 C 0.81383 0.28419 0.23303 0.0
C183 C 0.83281 0.30026 0.26456 0.0
H184 H 0.79728 0.35154 0.34936 0.0
H185 H 0.74354 0.37053 0.37969 0.0
H186 H 0.77594 0.32876 0.48177 0.0
H187 H 0.82996 0.30905 0.45162 0.0
H188 H 0.88498 0.25203 0.44886 0.0
H189 H 0.91541 0.20669 0.47816 0.0
H190 H 0.98153 0.1998 0.38063 0.0
H191 H 0.95092 0.24478 0.35076 0.0
H192 H 0.88905 0.23839 0.28079 0.0
H193 H 0.85519 0.21017 0.22619 0.0
H194 H 0.79127 0.29584 0.22087 0.0
H195 H 0.82464 0.32433 0.27583 0.0
N196 N 0.84519 0.31031 0.34128 0.0
N197 N 0.87014 0.29382 0.39641 0.0
N198 N 0.8911 0.27386 0.34091 0.0
C199 C 0.84646 0.31189 0.3782 0.0
C200 C 0.893 0.27517 0.37784 0.0
C201 C 0.86736 0.29145 0.32236 0.0
C202 C 0.81782 0.32834 0.39794 0.0
C203 C 0.79346 0.34664 0.37835 0.0
C204 C 0.76265 0.35756 0.39559 0.0
C205 C 0.75563 0.35059 0.43275 0.0
C206 C 0.78091 0.33409 0.45295 0.0
C207 C 0.8118 0.32299 0.43567 0.0
C208 C 0.9153 0.25187 0.39736 0.0
C209 C 0.90639 0.24135 0.43374 0.0
C210 C 0.92358 0.21532 0.45049 0.0
C211 C 0.95025 0.19967 0.43132 0.0
C212 C 0.96069 0.21138 0.39565 0.0
C213 C 0.9432 0.23711 0.37872 0.0
C214 C 0.85851 0.2829 0.28344 0.0
C215 C 0.86898 0.25221 0.26735 0.0
C216 C 0.24388 0.60234 0.20173 0.0
C217 C 0.2344 0.61677 0.16841 0.0
C218 C 0.25927 0.6491 0.15465 0.0
C219 C 0.29258 0.66727 0.17413 0.0
H220 H 0.3471 0.77725 0.20568 0.0
H221 H 0.37437 0.83671 0.17637 0.0
H222 H 0.49081 0.82987 0.20767 0.0
H223 H 0.46336 0.76997 0.23802 0.0
H224 H 0.43939 0.71172 0.32757 0.0
H225 H 0.46234 0.68293 0.38093 0.0
H226 H 0.38398 0.5784 0.35379 0.0
H227 H 0.36054 0.60678 0.30082 0.0
H228 H 0.28381 0.60894 0.24705 0.0
H229 H 0.22493 0.57744 0.21287 0.0
H230 H 0.25244 0.66073 0.12907 0.0
H231 H 0.31073 0.69243 0.16269 0.0
N232 N 0.35416 0.70966 0.21898 0.0
N233 N 0.40036 0.71452 0.26615 0.0
N234 N 0.35119 0.65939 0.25821 0.0
C235 C 0.38575 0.73 0.23707 0.0
C236 C 0.38299 0.67908 0.27708 0.0
C237 C 0.33673 0.67447 0.22898 0.0
C238 C 0.40304 0.7686 0.22412 0.0
C239 C 0.37852 0.78852 0.20693 0.0
C240 C 0.39405 0.82268 0.19016 0.0
C241 C 0.43466 0.83786 0.18959 0.0
C242 C 0.45935 0.81883 0.20785 0.0
C243 C 0.44364 0.78464 0.22527 0.0
C244 C 0.39796 0.66178 0.30954 0.0
C245 C 0.42698 0.68259 0.33283 0.0
C246 C 0.44014 0.66616 0.3635 0.0
C247 C 0.4249 0.6284 0.37161 0.0
C248 C 0.39616 0.60754 0.34834 0.0
C249 C 0.38279 0.62396 0.3179 0.0
C250 C 0.30207 0.65346 0.20789 0.0
C251 C 0.27754 0.62041 0.22122 0.0
C252 C 0.13796 0.23924 0.6907 0.0
C253 C 0.09727 0.22496 0.68828 0.0
C254 C 0.07237 0.24509 0.70454 0.0
C255 C 0.08802 0.2794 0.7218 0.0
H256 H 0.08348 0.35853 0.81641 0.0
H257 H 0.06093 0.3882 0.86939 0.0
H258 H 0.16211 0.47974 0.861 0.0
H259 H 0.18483 0.45072 0.8081 0.0
H260 H 0.25423 0.44935 0.7472 0.0
H261 H 0.3135 0.47907 0.71271 0.0
H262 H 0.27657 0.40236 0.62436 0.0
H263 H 0.218 0.37233 0.65841 0.0
H264 H 0.18501 0.28412 0.70741 0.0
H265 H 0.15783 0.22438 0.67851 0.0
H266 H 0.04085 0.23475 0.70294 0.0
H267 H 0.06822 0.2949 0.73299 0.0
N268 N 0.13223 0.34908 0.76403 0.0
N269 N 0.18272 0.40329 0.75635 0.0
N270 N 0.17833 0.35287 0.71702 0.0
C271 C 0.1505 0.38428 0.77508 0.0
C272 C 0.19657 0.38785 0.72705 0.0
C273 C 0.14645 0.33315 0.73506 0.0
C274 C 0.13611 0.40202 0.80757 0.0
C275 C 0.10103 0.38498 0.82571 0.0
C276 C 0.08801 0.40195 0.85608 0.0
C277 C 0.10978 0.43628 0.86929 0.0
C278 C 0.14475 0.45331 0.8514 0.0
C279 C 0.15767 0.43654 0.82098 0.0
C280 C 0.23137 0.40817 0.70584 0.0
C281 C 0.25857 0.43899 0.72033 0.0
C282 C 0.29247 0.45599 0.70067 0.0
C283 C 0.29951 0.44281 0.66601 0.0
C284 C 0.2718 0.41292 0.65105 0.0
C285 C 0.23833 0.3957 0.67074 0.0
C286 C 0.1288 0.29449 0.72246 0.0
C287 C 0.15345 0.27355 0.70725 0.0
Dy288 Dy 0.06473 0.03964 0.53603 0.0
Dy289 Dy 0.97455 1.02342 0.56968 0.0
C290 C 0.04551 0.09001 0.60088 0.0
O291 O 0.06435 0.99378 0.57456 0.0
O292 O 1.00122 0.98139 0.59734 0.0
O293 O 0.12772 0.05012 0.54131 0.0
O294 O 0.10074 0.04784 0.48791 0.0
O295 O 0.96961 0.97529 0.53205 0.0
O296 O 0.03068 0.98979 0.50478 0.0
O297 O 0.97324 0.05635 0.51934 0.0
O298 O 0.0384 0.08555 0.51641 0.0
O299 O 0.91212 1.01571 0.56305 0.0
O300 O 0.93773 1.02017 0.61716 0.0
C301 C 0.03628 0.97454 0.59509 0.0
O302 O 0.07188 0.07464 0.5863 0.0
O303 O 1.00783 0.07771 0.59398 0.0
C304 C 0.16213 0.08916 0.49592 0.0
C305 C 0.21594 0.15151 0.46891 0.0
C306 C 0.22787 0.11872 0.47597 0.0
C307 C 0.20103 0.08764 0.48941 0.0
C308 C 0.15069 0.12256 0.49066 0.0
C309 C 0.17751 0.15363 0.4771 0.0
C310 C 0.13343 0.05534 0.50647 0.0
C311 C 0.9951 0.96826 0.50852 0.0
C312 C 1.00166 0.08343 0.50782 0.0
C313 C 0.87533 0.98072 0.60971 0.0
C314 C 0.82035 0.91936 0.63707 0.0
C315 C 0.85064 0.91402 0.61436 0.0
C316 C 0.87816 0.94464 0.60079 0.0
C317 C 0.84434 0.98596 0.6314 0.0
C318 C 0.81699 0.9554 0.64509 0.0
C319 C 0.90547 1.01297 0.59798 0.0
H320 H 0.25737 0.11667 0.46937 0.0
H321 H 0.21025 0.06206 0.49351 0.0
H322 H 0.12073 0.12417 0.49571 0.0
H323 H 0.16788 0.17871 0.47141 0.0
H324 H 0.85378 0.8863 0.60836 0.0
H325 H 0.90214 0.94024 0.58416 0.0
H326 H 0.8419 1.01365 0.63853 0.0
H327 H 0.79392 0.95982 0.6629 0.0
Dy328 Dy 0.46797 1.02217 1.03507 0.0
Dy329 Dy 0.55842 0.03794 0.06884 0.0
C330 C 0.48676 0.97114 0.10007 0.0
O331 O 0.46854 0.06659 0.07547 0.0
O332 O 0.53267 0.08067 0.09596 0.0
O333 O 0.40535 1.01485 1.03953 0.0
O334 O 0.43216 1.01306 0.98658 0.0
O335 O 0.5632 0.08655 1.03183 0.0
O336 O 0.50244 0.07177 1.00388 0.0
O337 O 0.55913 1.00496 1.01845 0.0
O338 O 0.49394 0.97584 1.01588 0.0
O339 O 0.6207 0.04493 0.06173 0.0
O340 O 0.59582 0.04139 0.11604 0.0
C341 C 0.49718 0.0866 0.09495 0.0
O342 O 0.46006 0.98476 0.08358 0.0
O343 O 0.52462 0.98481 0.09498 0.0
C344 C 0.36926 0.97506 0.9953 0.0
C345 C 0.31574 0.91096 0.97129 0.0
C346 C 0.34163 0.90872 0.99986 0.0
C347 C 0.36832 0.94073 1.01184 0.0
C348 C 0.34246 0.97737 0.96766 0.0
C349 C 0.31582 0.94548 0.9557 0.0
C350 C 0.39948 1.00819 1.00486 0.0
C351 C 0.53786 0.09348 1.00802 0.0
C352 C 0.53061 0.97783 1.00722 0.0
C353 C 0.65821 0.08046 0.10778 0.0
C354 C 0.71311 0.14216 0.13475 0.0
C355 C 0.68338 0.1472 0.11111 0.0
C356 C 0.65589 0.11641 0.09776 0.0
C357 C 0.68875 0.07549 0.13032 0.0
C358 C 0.71605 0.10622 0.14381 0.0
C359 C 0.62782 0.04814 0.09658 0.0
H360 H 0.3421 0.88217 1.01185 0.0
H361 H 0.38885 0.93861 1.03327 0.0
H362 H 0.34292 1.00366 0.95461 0.0
H363 H 0.29617 0.94746 0.9334 0.0
H364 H 0.68055 0.17484 0.10431 0.0
H365 H 0.63225 0.12062 0.0805 0.0
H366 H 0.69078 0.04791 0.13833 0.0
H367 H 0.73868 0.10204 0.16234 0.0
Dy368 Dy 0.51192 0.49041 0.53328 0.0
Dy369 Dy 0.52012 0.56964 0.57572 0.0
C370 C 0.55309 0.50487 0.6131 0.0
O371 O 0.45121 0.4877 0.5541 0.0
O372 O 0.46784 0.53066 0.59994 0.0
O373 O 0.49865 0.43046 0.53301 0.0
O374 O 0.51713 0.46104 0.48347 0.0
O375 O 0.47716 0.56935 0.53023 0.0
O376 O 0.49854 0.53024 0.49158 0.0
O377 O 0.57095 0.57902 0.53675 0.0
O378 O 0.57551 0.5188 0.52935 0.0
O379 O 0.52811 0.62915 0.5733 0.0
O380 O 0.51773 0.60082 0.62509 0.0
C381 C 0.44286 0.50301 0.58444 0.0
O382 O 0.53248 0.4811 0.58979 0.0
O383 O 0.5581 0.54098 0.60903 0.0
C384 C 0.54418 0.41064 0.49541 0.0
C385 C 0.61277 0.38647 0.48143 0.0
C386 C 0.60798 0.40288 0.51496 0.0
C387 C 0.57399 0.41509 0.52183 0.0
C388 C 0.54833 0.39285 0.46249 0.0
C389 C 0.58245 0.38078 0.45554 0.0
C390 C 0.51189 0.42921 0.49998 0.0
C391 C 0.48061 0.55704 0.49719 0.0
C392 C 0.58966 0.55453 0.52491 0.0
C393 C 0.48322 0.64643 0.61363 0.0
C394 C 0.41248 0.66598 0.63016 0.0
C395 C 0.41705 0.64958 0.59659 0.0
C396 C 0.45207 0.63973 0.58844 0.0
C397 C 0.47902 0.66381 0.64679 0.0
C398 C 0.44384 0.67358 0.65501 0.0
C399 C 0.51772 0.63113 0.60721 0.0
H400 H 0.63115 0.4075 0.53517 0.0
H401 H 0.57168 0.4293 0.5472 0.0
H402 H 0.52592 0.38967 0.44162 0.0
H403 H 0.58582 0.36817 0.4295 0.0
H404 H 0.39312 0.64348 0.57716 0.0
H405 H 0.45428 0.62587 0.56287 0.0
H406 H 0.50244 0.66873 0.66676 0.0
H407 H 0.44068 0.6862 0.68109 0.0
Dy408 Dy 0.0217 0.5698 1.03362 0.0
Dy409 Dy 0.01603 0.49161 0.0773 0.0
C410 C 0.98211 0.55741 0.11232 0.0
O411 O 0.07149 0.58119 0.07356 0.0
O412 O 0.07916 0.52203 0.0801 0.0
O413 O 0.0317 0.6295 1.03454 0.0
O414 O 0.01738 0.59978 0.98385 0.0
O415 O 0.03459 0.48112 1.02055 0.0
O416 O 0.05963 0.54074 1.00061 0.0
O417 O 0.95473 0.48632 0.05638 0.0
O418 O 0.96837 0.5307 1.01134 0.0
O419 O 1.00494 0.43177 0.07926 0.0
O420 O 0.02396 0.46417 0.12767 0.0
C421 C 0.09174 0.55788 0.08508 0.0
O422 O 0.97874 0.56956 0.07911 0.0
O423 O 1.00065 0.53107 0.11825 0.0
C424 C 0.98668 0.64809 0.99538 0.0
C425 C 0.91785 0.67163 0.98052 0.0
C426 C 0.92246 0.65529 1.01413 0.0
C427 C 0.95656 0.64342 1.02146 0.0
C428 C 0.98256 0.66556 0.96225 0.0
C429 C 0.94831 0.67731 0.95485 0.0
C430 C 0.01997 0.63098 1.001 0.0
C431 C 0.05456 0.50459 0.99674 0.0
C432 C 0.9449 0.50196 1.02672 0.0
C433 C 0.05329 0.41505 0.11619 0.0
C434 C 0.12476 0.39511 0.128 0.0
C435 C 0.11542 0.40612 0.09325 0.0
C436 C 0.07997 0.41615 0.08741 0.0
C437 C 0.06202 0.40258 0.15056 0.0
C438 C 0.09755 0.3926 0.15642 0.0
C439 C 0.01964 0.43203 0.11193 0.0
H440 H 0.89917 0.65069 1.03417 0.0
H441 H 0.95881 0.62959 1.04706 0.0
H442 H 1.00524 0.669 0.94167 0.0
H443 H 0.94506 0.68987 0.92875 0.0
H444 H 0.1361 0.40809 0.07103 0.0
H445 H 0.07408 0.42605 0.06076 0.0
H446 H 0.0421 0.40199 0.17318 0.0
H447 H 0.10437 0.38405 0.18338 0.0
C448 C 0.26353 0.20892 0.38855 0.0
C449 C 0.29463 0.23445 0.40621 0.0
C450 C 0.27047 0.20913 0.46574 0.0
C451 C 0.24187 0.18139 0.44775 0.0
N452 N 0.21311 0.15187 0.39235 0.0
N453 N 0.32996 0.25827 0.46067 0.0
C454 C 0.23873 0.18062 0.40924 0.0
C455 C 0.29865 0.23455 0.44463 0.0
N456 N 0.2575 0.21194 0.35194 0.0
N457 N 0.27018 0.21132 0.5029 0.0
H458 H 0.35024 0.278 0.44594 0.0
H459 H 0.33714 0.25723 0.48809 0.0
H460 H 0.25021 0.19269 0.51898 0.0
H461 H 0.28775 0.23288 0.51774 0.0
H462 H 0.23255 0.19728 0.33838 0.0
H463 H 0.27597 0.23111 0.3352 0.0
H464 H 0.21306 0.147 0.36443 0.0
H465 H 0.19345 0.13104 0.4064 0.0
C466 C 0.27765 0.84059 0.8986 0.0
C467 C 0.2397 0.82377 0.91222 0.0
C468 C 0.25356 0.86073 0.96803 0.0
C469 C 0.29147 0.87708 0.95436 0.0
N470 N 0.34359 0.87551 0.91221 0.0
N471 N 0.19428 0.81146 0.96228 0.0
C472 C 0.30485 0.86443 0.92154 0.0
C473 C 0.22859 0.83173 0.94787 0.0
N474 N 0.28688 0.83602 0.86296 0.0
N475 N 0.24098 0.87397 0.99939 0.0
H476 H 0.17559 0.7901 0.94792 0.0
H477 H 0.18596 0.81363 0.98924 0.0
H478 H 0.2591 0.89438 1.01527 0.0
H479 H 0.21219 0.86621 1.0087 0.0
H480 H 0.31231 0.85128 0.85059 0.0
H481 H 0.26782 0.81943 0.8446 0.0
H482 H 0.35584 0.86422 0.89045 0.0
H483 H 0.3643 0.89338 0.92832 0.0
C484 C 0.56919 0.47782 0.71215 0.0
C485 C 0.5968 0.45568 0.70745 0.0
C486 C 0.59977 0.47032 0.64169 0.0
C487 C 0.56969 0.48976 0.64593 0.0
N488 N 0.52159 0.50746 0.68441 0.0
N489 N 0.63507 0.42711 0.66716 0.0
C490 C 0.55341 0.49244 0.68102 0.0
C491 C 0.61121 0.45096 0.672 0.0
N492 N 0.55863 0.48557 0.74656 0.0
N493 N 0.61833 0.47139 0.60885 0.0
H494 H 0.64458 0.41307 0.68867 0.0
H495 H 0.64312 0.41906 0.64171 0.0
H496 H 0.61098 0.48553 0.58635 0.0
H497 H 0.64306 0.46106 0.60461 0.0
H498 H 0.54224 0.50489 0.75221 0.0
H499 H 0.56881 0.47478 0.76989 0.0
H500 H 0.50533 0.50624 0.70826 0.0
H501 H 0.50939 0.51871 0.66253 0.0
C502 C 0.95623 0.63034 0.17645 0.0
C503 C 0.93858 0.60816 0.20632 0.0
C504 C 0.94391 0.55243 0.17182 0.0
C505 C 0.96618 0.5749 0.14423 0.0
N506 N 1.00158 0.63632 0.12601 0.0
N507 N 0.92345 0.54792 0.23503 0.0
C508 C 0.97448 0.61419 0.14805 0.0
C509 C 0.9346 0.56911 0.20471 0.0
N510 N 0.95459 0.66668 0.17443 0.0
N511 N 0.93014 0.51523 0.16616 0.0
H512 H 0.91772 0.55904 0.25993 0.0
H513 H 0.9239 0.51998 0.23645 0.0
H514 H 0.93469 0.50218 0.14196 0.0
H515 H 0.91061 0.49816 0.18381 0.0
H516 H 0.96349 0.68304 0.15149 0.0
H517 H 0.94056 0.67934 0.19394 0.0
H518 H 0.01139 0.66482 0.12994 0.0
H519 H 0.01769 0.62585 0.1066 0.0
C520 C 0.4963 0.15999 0.16784 0.0
C521 C 0.46945 0.17877 0.15213 0.0
C522 C 0.46812 0.14227 0.0966 0.0
C523 C 0.48932 0.11916 0.11456 0.0
N524 N 0.51724 0.10252 0.1706 0.0
N525 N 0.4227 0.18124 0.10422 0.0
C526 C 0.50195 0.12712 0.15109 0.0
C527 C 0.45337 0.16816 0.11721 0.0
N528 N 0.51689 0.17384 0.19838 0.0
N529 N 0.46323 0.14072 0.05966 0.0
H530 H 0.40947 0.19893 0.11899 0.0
H531 H 0.40767 0.17125 0.0804 0.0
H532 H 0.47545 0.12383 1.0429 0.0
H533 H 0.45116 0.15956 1.04529 0.0
H534 H 0.53946 0.16308 0.20896 0.0
H535 H 0.51421 0.19837 0.21083 0.0
H536 H 0.5234 0.1056 0.19836 0.0
H537 H 0.51977 0.07705 0.16027 0.0
C538 C 0.08051 0.89309 0.61677 0.0
C539 C 0.06598 0.88319 0.65229 0.0
C540 C 0.03322 0.93469 0.65164 0.0
C541 C 0.04437 0.94199 0.61467 0.0
N542 N 0.06822 0.91936 0.55926 0.0
N543 N 0.02026 0.88882 0.69979 0.0
C544 C 0.06482 0.91852 0.59634 0.0
C545 C 0.03962 0.90215 0.66854 0.0
N546 N 0.11069 0.87984 0.60299 0.0
N547 N 0.01879 0.95966 0.67142 0.0
H548 H 0.02351 0.86453 0.71239 0.0
H549 H 0.99806 0.8997 0.71089 0.0
H550 H 0.0159 0.98498 0.66101 0.0
H551 H 0.01379 0.95703 0.69937 0.0
H552 H 0.12469 0.88938 0.5786 0.0
H553 H 0.12462 0.86251 0.61753 0.0
H554 H 0.07967 0.90022 0.54474 0.0
H555 H 0.05537 0.93596 0.5427 0.0
C556 C 0.84293 0.4932 0.9856 0.0
C557 C 0.83781 0.45923 0.96622 0.0
C558 C 0.90262 0.45292 0.98722 0.0
C559 C 0.90687 0.48581 1.00815 0.0
N560 N 0.88026 0.53562 1.03058 0.0
N561 N 0.86026 0.40441 0.95153 0.0
C562 C 0.87676 0.50555 1.00818 0.0
C563 C 0.86695 0.43841 0.96797 0.0
N564 N 0.81551 0.51373 0.98208 0.0
N565 N 0.93352 0.4365 0.98429 0.0
H566 H 0.83572 0.39375 0.93537 0.0
H567 H 0.87776 0.3857 0.95557 0.0
H568 H 0.95976 0.44571 0.9985 0.0
H569 H 0.93439 0.41536 0.96594 0.0
H570 H 0.81868 0.54025 0.99265 0.0
H571 H 0.78997 0.50498 0.96672 0.0
H572 H 0.85834 0.54977 1.03458 0.0
H573 H 0.90451 0.54516 1.04743 0.0
C574 C 0.6592 0.58148 0.44426 0.0
C575 C 0.69525 0.59719 0.46208 0.0
C576 C 0.66208 0.585 0.52156 0.0
C577 C 0.62665 0.56751 0.50368 0.0
N578 N 0.59378 0.54174 0.44842 0.0
N579 N 0.73292 0.60697 0.51766 0.0
C580 C 0.62602 0.5633 0.46517 0.0
C581 C 0.69722 0.59696 0.50079 0.0
N582 N 0.65591 0.58569 0.40748 0.0
N583 N 0.66212 0.59038 0.55838 0.0
H584 H 0.75921 0.61514 0.50333 0.0
H585 H 0.73692 0.60398 0.5455 0.0
H586 H 0.63754 0.58025 0.57463 0.0
H587 H 0.68571 0.60672 0.57253 0.0
H588 H 0.62925 0.57878 0.39362 0.0
H589 H 0.6792 0.59921 0.39113 0.0
H590 H 0.59333 0.53422 0.42106 0.0
H591 H 0.56841 0.52882 0.46239 0.0
C592 C 0.20234 0.34358 0.15355 0.0
C593 C 0.23628 0.37331 0.15581 0.0
C594 C 0.19727 0.4175 0.13898 0.0
C595 C 0.16375 0.38754 0.13521 0.0
N596 N 0.13587 0.32181 0.131 0.0
N597 N 0.26819 0.43709 0.1438 0.0
C598 C 0.1668 0.35045 0.13999 0.0
C599 C 0.23438 0.40986 0.14629 0.0
N600 N 0.2035 0.30915 0.16607 0.0
N601 N 0.19335 0.45325 0.13715 0.0
H602 H 0.29579 0.43228 0.14903 0.0
H603 H 0.26929 0.46346 0.13351 0.0
H604 H 0.16674 0.46005 0.13167 0.0
H605 H 0.21576 0.4762 0.14372 0.0
H606 H 0.17863 0.28758 0.16914 0.0
H607 H 0.2289 0.30276 0.17616 0.0
H608 H 0.13765 0.29421 0.1302 0.0
H609 H 0.10932 0.3259 0.12111 0.0
C610 C 0.56571 0.19656 0.98138 0.0
C611 C 0.57352 0.19451 0.94364 0.0
C612 C 0.55267 0.12625 0.94699 0.0
C613 C 0.54938 0.12827 0.98558 0.0
N614 N 0.55758 0.16606 1.04002 0.0
N615 N 0.57836 0.15751 0.89081 0.0
C616 C 0.55732 0.16364 1.00289 0.0
C617 C 0.56771 0.15935 0.92643 0.0
N618 N 0.56521 0.2301 0.99653 0.0
N619 N 0.54179 0.09267 0.92991 0.0
H620 H 0.5888 0.18102 0.87485 0.0
H621 H 0.57945 0.13292 0.8777 0.0
H622 H 0.533 0.06769 0.94393 0.0
H623 H 0.53906 0.08965 0.90178 0.0
H624 H 0.55545 0.23311 1.02287 0.0
H625 H 0.57087 0.2547 0.98159 0.0
H626 H 0.56799 0.19074 0.05419 0.0
H627 H 0.54994 0.1431 0.05702 0.0
C628 C 0.96569 0.90251 0.4267 0.0
C629 C 0.95912 0.86731 0.44396 0.0
C630 C 0.97478 0.89812 0.50335 0.0
C631 C 0.98353 0.9335 0.48602 0.0
N632 N 0.99232 0.9691 0.43034 0.0
N633 N 0.96599 0.83154 0.49717 0.0
C634 C 0.98083 0.93554 0.44737 0.0
C635 C 0.96625 0.86518 0.48185 0.0
N636 N 0.95567 0.90447 0.39089 0.0
N637 N 0.97391 0.89571 0.54049 0.0
H638 H 0.9602 0.80692 0.48226 0.0
H639 H 0.97527 0.82841 0.52369 0.0
H640 H 0.98174 0.91862 0.55754 0.0
H641 H 0.96286 0.87111 0.55457 0.0
H642 H 0.95514 0.92913 0.37764 0.0
H643 H 0.94516 0.88101 0.37487 0.0
H644 H 0.99551 0.97209 0.40224 0.0
H645 H 1.0011 0.99408 0.44438 0.0
C646 C 0.33542 0.71869 0.65487 0.0
C647 C 0.30214 0.68894 0.66082 0.0
C648 C 0.34175 0.64414 0.64838 0.0
C649 C 0.3742 0.67387 0.63986 0.0
N650 N 0.39989 0.73892 0.62772 0.0
N651 N 0.27131 0.6238 0.65615 0.0
C652 C 0.37039 0.71103 0.64085 0.0
C653 C 0.30461 0.65175 0.65533 0.0
N654 N 0.33434 0.75407 0.66427 0.0
N655 N 0.34679 0.60885 0.65144 0.0
H656 H 0.2436 0.62852 0.66095 0.0
H657 H 0.27064 0.59657 0.64875 0.0
H658 H 0.37369 0.6022 0.64715 0.0
H659 H 0.32527 0.58673 0.66138 0.0
H660 H 0.35905 0.77611 0.66445 0.0
H661 H 0.30949 0.76101 0.67489 0.0
H662 H 0.39709 0.76601 0.62412 0.0
H663 H 0.42599 0.73434 0.61733 0.0
C664 C 0.777 0.85541 0.71389 0.0
C665 C 0.74142 0.83524 0.69787 0.0
C666 C 0.7587 0.86851 0.64035 0.0
C667 C 0.79472 0.88766 0.65617 0.0
N668 N 0.84236 0.89373 0.70455 0.0
N669 N 0.70087 0.81746 0.64492 0.0
C670 C 0.80524 0.87916 0.69183 0.0
C671 C 0.73305 0.84016 0.66069 0.0
N672 N 0.78291 0.85353 0.75064 0.0
N673 N 0.74861 0.8783 0.60643 0.0
H674 H 0.68152 0.7967 0.65939 0.0
H675 H 0.69491 0.81721 0.61714 0.0
H676 H 0.76738 0.89809 0.59045 0.0
H677 H 0.72103 0.86839 0.59486 0.0
H678 H 0.80599 0.87108 0.7644 0.0
H679 H 0.76309 0.83664 0.76818 0.0
H680 H 0.85311 0.88526 0.72873 0.0
H681 H 0.86374 0.91194 0.68944 0.0
C682 C 0.80033 0.22113 0.15931 0.0
C683 C 0.79105 0.2266 0.19613 0.0
C684 C 0.72699 0.18331 0.18892 0.0
C685 C 0.73839 0.17412 0.15382 0.0
N686 N 0.78585 0.18232 0.10537 0.0
N687 N 0.74804 0.20918 0.24796 0.0
C688 C 0.77497 0.19271 0.13875 0.0
C689 C 0.75487 0.20699 0.21142 0.0
N690 N 0.8331 0.24336 0.14408 0.0
N691 N 0.68942 0.16938 0.20073 0.0
H692 H 0.76764 0.22586 0.26587 0.0
H693 H 0.72438 0.19201 0.26127 0.0
H694 H 0.66827 0.15122 0.1853 0.0
H695 H 0.67817 0.17839 0.22437 0.0
H696 H 0.8398 0.24318 0.11649 0.0
H697 H 0.8522 0.26419 0.15871 0.0
H698 H 0.81381 0.19179 0.09449 0.0
H699 H 0.76732 0.16249 0.08922 0.0
C700 C 0.41373 0.59774 0.43401 0.0
C701 C 0.43923 0.61049 0.40416 0.0
C702 C 0.49269 0.59206 0.43738 0.0
C703 C 0.46611 0.57543 0.46522 0.0
N704 N 0.39947 0.55726 0.48676 0.0
N705 N 0.50131 0.61326 0.3748 0.0
C706 C 0.42609 0.57695 0.46267 0.0
C707 C 0.47825 0.60578 0.40512 0.0
N708 N 0.37809 0.6065 0.43562 0.0
N709 N 0.53212 0.59657 0.44248 0.0
H710 H 0.49183 0.62294 0.35056 0.0
H711 H 0.5284 0.60655 0.37259 0.0
H712 H 0.544 0.58862 0.46633 0.0
H713 H 0.55316 0.61172 0.42483 0.0
H714 H 0.35995 0.60147 0.4584 0.0
H715 H 0.3682 0.62194 0.4155 0.0
H716 H 0.36931 0.55416 0.4842 0.0
H717 H 0.40721 0.54098 0.50734 0.0
C718 C 0.07038 0.47845 0.89731 0.0
C719 C 0.09617 0.45447 0.90192 0.0
C720 C 0.09882 0.46758 0.96796 0.0
C721 C 0.07049 0.48908 0.96377 0.0
N722 N 0.02459 0.51012 0.92507 0.0
N723 N 0.13157 0.42267 0.94205 0.0
C724 C 0.05518 0.49339 0.92854 0.0
C725 C 0.10945 0.44809 0.93741 0.0
N726 N 0.06086 0.48746 0.86294 0.0
N727 N 0.11659 0.46681 1.00101 0.0
H728 H 0.14075 0.40866 0.92036 0.0
H729 H 0.13849 0.4134 0.96741 0.0
H730 H 0.10955 0.4806 1.02383 0.0
H731 H 0.1404 0.4551 1.00526 0.0
H732 H 0.04603 0.50805 0.85745 0.0
H733 H 0.07037 0.47625 0.83955 0.0
H734 H 1.00897 0.51029 0.90097 0.0
H735 H 0.01255 0.52132 0.94704 0.0
C736 C 0.57541 0.92712 0.93503 0.0
C737 C 0.56514 0.89025 0.94867 0.0
C738 C 0.53398 0.91121 1.00142 0.0
C739 C 0.54084 0.94733 0.98622 0.0
N740 N 0.56178 0.98816 0.93529 0.0
N741 N 0.52675 0.84575 0.99018 0.0
C742 C 0.55961 0.95483 0.95195 0.0
C743 C 0.54178 0.88183 0.98035 0.0
N744 N 0.60171 0.93614 0.90714 0.0
N745 N 0.52279 0.90538 1.03692 0.0
H746 H 0.53159 0.82342 0.97511 0.0
H747 H 0.50641 0.83806 1.0111 0.0
H748 H 0.51958 0.92678 0.05398 0.0
H749 H 0.52106 0.88035 1.05042 0.0
H750 H 0.61349 0.96332 0.8988 0.0
H751 H 0.61449 0.91687 0.89433 0.0
H752 H 0.57154 0.99384 0.90865 0.0
H753 H 0.55044 1.009 0.94696 0.0
C754 C 0.95402 0.13295 0.43662 0.0
C755 C 0.96638 0.1703 0.44861 0.0
C756 C 1.00069 0.15055 0.50006 0.0
C757 C 0.99129 0.11367 0.48645 0.0
N758 N 0.96569 0.07118 0.43777 0.0
N759 N 1.00883 0.21574 0.48657 0.0
C760 C 0.96996 0.10529 0.45345 0.0
C761 C 0.99218 0.17944 0.47865 0.0
N762 N 0.92575 0.12356 0.41036 0.0
N763 N 0.0151 0.1577 0.53452 0.0
H764 H 1.00338 0.23769 0.47129 0.0
H765 H 0.03088 0.22385 0.50599 0.0
H766 H 0.01913 0.13689 0.55198 0.0
H767 H 0.01885 0.18345 0.54713 0.0
H768 H 0.91255 0.09623 0.40347 0.0
H769 H 0.91297 0.14287 0.39756 0.0
H770 H 0.9539 0.06472 0.41187 0.0
H771 H 0.97731 0.05039 0.44921 0.0
C772 C 0.16201 0.6096 0.15788 0.0
C773 C 0.19733 0.59955 0.14855 0.0
C774 C 0.16432 0.5643 0.096 0.0
C775 C 0.12827 0.57218 0.1068 0.0
N776 N 0.09122 0.59555 0.15285 0.0
N777 N 0.23073 0.56215 0.11285 0.0
C778 C 0.12668 0.59302 0.13907 0.0
C779 C 0.198 0.5752 0.11888 0.0
N780 N 0.16233 0.63571 0.18421 0.0
N781 N 0.16694 0.54817 0.06294 0.0
H782 H 0.256 0.57 0.12877 0.0
H783 H 0.23166 0.54122 0.09424 0.0
H784 H 0.1434 0.54132 1.04485 0.0
H785 H 0.19321 0.54487 0.05189 0.0
H786 H 0.13874 0.64758 0.18908 0.0
H787 H 0.18723 0.64766 0.19945 0.0
H788 H 0.08792 0.60687 0.17826 0.0
H789 H 0.06454 0.5831 0.14065 0.0
C790 C 0.34061 0.49251 0.62582 0.0
C791 C 0.33667 0.45897 0.64573 0.0
C792 C 0.4015 0.45347 0.62387 0.0
C793 C 0.40538 0.48696 0.60389 0.0
N794 N 0.38182 0.54108 0.58906 0.0
N795 N 0.36145 0.40602 0.6625 0.0
C796 C 0.37576 0.50724 0.60578 0.0
C797 C 0.36669 0.43909 0.64443 0.0
N798 N 0.30993 0.5094 0.62495 0.0
N799 N 0.4322 0.43659 0.6248 0.0
H800 H 0.33791 0.39595 0.67996 0.0
H801 H 0.37931 0.38754 0.65937 0.0
H802 H 0.45781 0.44585 0.60974 0.0
H803 H 0.43372 0.41462 0.64185 0.0
H804 H 0.3087 0.53169 0.60821 0.0
H805 H 0.28414 0.49974 0.63968 0.0
H806 H 0.3636 0.55926 0.59192 0.0
H807 H 0.40656 0.55216 0.57337 0.0
C808 C 0.81069 0.66181 0.95497 0.0
C809 C 0.81017 0.69945 0.94934 0.0
C810 C 0.87829 0.71886 0.97044 0.0
C811 C 0.88025 0.68117 0.9714 0.0
N812 N 0.85007 0.6166 0.9601 0.0
N813 N 0.84461 0.76401 0.94729 0.0
C814 C 0.84684 0.65251 0.96268 0.0
C815 C 0.8442 0.72813 0.95613 0.0
N816 N 0.77644 0.63502 0.95351 0.0
N817 N 0.90876 0.74569 0.9838 0.0
H818 H 0.82026 0.77207 0.93686 0.0
H819 H 0.86991 0.78539 0.94764 0.0
H820 H 0.93424 0.73984 0.99436 0.0
H821 H 0.9074 0.77319 0.98737 0.0
H822 H 0.77427 0.60755 0.96101 0.0
H823 H 0.74939 0.64099 0.94805 0.0
H824 H 0.82801 0.59531 0.94952 0.0
H825 H 0.87598 0.60849 0.96561 0.0
C826 C 0.46772 0.90664 0.18372 0.0
C827 C 0.45072 0.87196 0.16708 0.0
C828 C 0.45374 0.90296 0.1075 0.0
C829 C 0.47372 0.93722 0.12347 0.0
N830 N 0.50341 0.97094 0.17648 0.0
N831 N 0.43616 0.83594 0.11206 0.0
C832 C 0.48208 0.93872 0.16148 0.0
C833 C 0.44616 0.86987 0.12866 0.0
N834 N 0.46847 0.90931 0.22085 0.0
N835 N 0.44157 0.90178 0.07206 0.0
H836 H 0.43127 0.81102 0.12642 0.0
H837 H 0.43672 0.83241 0.08393 0.0
H838 H 0.44843 0.92445 0.05461 0.0
H839 H 0.42245 0.87878 0.06055 0.0
H840 H 0.47633 0.93437 0.23484 0.0
H841 H 0.45836 0.88656 0.23786 0.0
H842 H 0.51455 0.97277 0.20289 0.0
H843 H 0.51196 0.99561 0.16184 0.0
C844 C 0.08881 0.19124 0.62807 0.0
C845 C 0.08156 0.19047 0.66613 0.0
C846 C 0.04795 0.12418 0.66116 0.0
C847 C 0.05884 0.12425 0.6238 0.0
N848 N 0.09614 0.15713 0.57349 0.0
N849 N 0.05895 0.15493 0.72008 0.0
C850 C 0.08139 0.1575 0.60789 0.0
C851 C 0.06216 0.1566 0.683 0.0
N852 N 0.10121 0.22456 0.61071 0.0
N853 N 0.02434 0.09299 0.67596 0.0
H854 H 0.069 0.17791 0.73683 0.0
H855 H 0.04916 0.13033 0.7345 0.0
H856 H 0.01581 0.06798 0.66186 0.0
H857 H 0.01144 0.09241 0.70154 0.0
H858 H 0.10277 0.22724 0.58248 0.0
H859 H 0.10599 0.24995 0.62425 0.0
H860 H 0.11678 0.17932 0.56244 0.0
H861 H 0.08999 0.13392 0.55668 0.0
C862 C 0.68679 0.33058 0.45677 0.0
C863 C 0.72057 0.35943 0.44968 0.0
C864 C 0.68371 0.40608 0.46354 0.0
C865 C 0.65052 0.37724 0.4724 0.0
N866 N 0.62256 0.31266 0.48487 0.0
N867 N 0.75398 0.42396 0.45357 0.0
C868 C 0.65275 0.33963 0.47135 0.0
C869 C 0.71988 0.39702 0.45541 0.0
N870 N 0.68659 0.29474 0.44797 0.0
N871 N 0.68022 0.44194 0.46126 0.0
H872 H 0.781 0.41816 0.44774 0.0
H873 H 0.75613 0.45143 0.46107 0.0
H874 H 0.65422 0.44982 0.46687 0.0
H875 H 0.70212 0.46352 0.45095 0.0
H876 H 0.66142 0.27321 0.44851 0.0
H877 H 0.71094 0.28684 0.43739 0.0
H878 H 0.62412 0.28521 0.48838 0.0
H879 H 0.59711 0.31836 0.49563 0.0
loop_
_geom_bond_atom_site_label_1
_geom_bond_atom_site_label_2
_geom_bond_distance
_geom_bond_site_symmetry_2
_ccdc_geom_bond_type
C0 C1 1.384 . S
C0 H13 0.947 . S
C0 C35 1.382 . S
C1 C0 1.384 . S
C1 C2 1.378 . S
C2 C1 1.378 . S
C2 C3 1.378 . S
C2 H14 0.952 . S
C3 C2 1.378 . S
C3 H15 0.950 . S
C3 C34 1.383 . S
H4 C23 0.947 . S
H5 C24 0.946 . S
H6 C26 0.953 . S
H7 C27 0.945 . S
H8 C29 0.952 . S
H9 C30 0.949 . S
H10 C32 0.950 . S
H11 C33 0.948 . S
H12 C35 0.951 . S
H13 C0 0.947 . S
H14 C2 0.952 . S
H15 C3 0.950 . S
N16 C19 1.382 . S
N16 C21 1.363 . S
N17 C19 1.371 . S
N17 C20 1.372 . S
N18 C20 1.361 . S
N18 C21 1.377 . S
C19 N16 1.382 . S
C19 N17 1.371 . S
C19 C22 1.480 . S
C20 N17 1.372 . S
C20 N18 1.361 . S
C20 C28 1.457 . S
C21 N16 1.363 . S
C21 N18 1.377 . S
C21 C34 1.479 . S
C22 C19 1.480 . S
C22 C23 1.383 . S
C22 C27 1.385 . S
C23 H4 0.947 . S
C23 C22 1.383 . S
C23 C24 1.388 . S
C24 H5 0.946 . S
C24 C23 1.388 . S
C24 C25 1.384 . S
C25 C24 1.384 . S
C25 C26 1.377 . S
C26 H6 0.953 . S
C26 C25 1.377 . S
C26 C27 1.369 . S
C27 H7 0.945 . S
C27 C22 1.385 . S
C27 C26 1.369 . S
C28 C20 1.457 . S
C28 C29 1.372 . S
C28 C33 1.364 . S
C29 H8 0.952 . S
C29 C28 1.372 . S
C29 C30 1.389 . S
C30 H9 0.949 . S
C30 C29 1.389 . S
C30 C31 1.387 . S
C31 C30 1.387 . S
C31 C32 1.372 . S
C32 H10 0.950 . S
C32 C31 1.372 . S
C32 C33 1.379 . S
C33 H11 0.948 . S
C33 C28 1.364 . S
C33 C32 1.379 . S
C34 C3 1.383 . S
C34 C21 1.479 . S
C34 C35 1.398 . S
C35 C0 1.382 . S
C35 H12 0.951 . S
C35 C34 1.398 . S
C36 C37 1.384 . S
C36 H49 0.947 . S
C36 C71 1.382 . S
C37 C36 1.384 . S
C37 C38 1.378 . S
C38 C37 1.378 . S
C38 C39 1.378 . S
C38 H50 0.952 . S
C39 C38 1.378 . S
C39 H51 0.950 . S
C39 C70 1.383 . S
H40 C59 0.947 . S
H41 C60 0.946 . S
H42 C62 0.953 . S
H43 C63 0.945 . S
H44 C65 0.952 . S
H45 C66 0.949 . S
H46 C68 0.950 . S
H47 C69 0.948 . S
H48 C71 0.951 . S
H49 C36 0.947 . S
H50 C38 0.952 . S
H51 C39 0.950 . S
N52 C55 1.382 . S
N52 C57 1.363 . S
N53 C55 1.371 . S
N53 C56 1.372 . S
N54 C56 1.361 . S
N54 C57 1.377 . S
C55 N52 1.382 . S
C55 N53 1.371 . S
C55 C58 1.480 . S
C56 N53 1.372 . S
C56 N54 1.361 . S
C56 C64 1.457 . S
C57 N52 1.363 . S
C57 N54 1.377 . S
C57 C70 1.479 . S
C58 C55 1.480 . S
C58 C59 1.383 . S
C58 C63 1.385 . S
C59 H40 0.947 . S
C59 C58 1.383 . S
C59 C60 1.388 . S
C60 H41 0.946 . S
C60 C59 1.388 . S
C60 C61 1.384 . S
C61 C60 1.384 . S
C61 C62 1.377 . S
C62 H42 0.953 . S
C62 C61 1.377 . S
C62 C63 1.369 . S
C63 H43 0.945 . S
C63 C58 1.385 . S
C63 C62 1.369 . S
C64 C56 1.457 . S
C64 C65 1.372 . S
C64 C69 1.364 . S
C65 H44 0.952 . S
C65 C64 1.372 . S
C65 C66 1.389 . S
C66 H45 0.949 . S
C66 C65 1.389 . S
C66 C67 1.387 . S
C67 C66 1.387 . S
C67 C68 1.372 . S
C68 H46 0.950 . S
C68 C67 1.372 . S
C68 C69 1.379 . S
C69 H47 0.948 . S
C69 C64 1.364 . S
C69 C68 1.379 . S
C70 C39 1.383 . S
C70 C57 1.479 . S
C70 C71 1.398 . S
C71 C36 1.382 . S
C71 H48 0.951 . S
C71 C70 1.398 . S
C72 C73 1.384 . S
C72 H85 0.947 . S
C72 C107 1.382 . S
C73 C72 1.384 . S
C73 C74 1.378 . S
C74 C73 1.378 . S
C74 C75 1.378 . S
C74 H86 0.952 . S
C75 C74 1.378 . S
C75 H87 0.950 . S
C75 C106 1.383 . S
H76 C95 0.947 . S
H77 C96 0.946 . S
H78 C98 0.953 . S
H79 C99 0.945 . S
H80 C101 0.952 . S
H81 C102 0.949 . S
H82 C104 0.950 . S
H83 C105 0.948 . S
H84 C107 0.951 . S
H85 C72 0.947 . S
H86 C74 0.952 . S
H87 C75 0.950 . S
N88 C91 1.382 . S
N88 C93 1.363 . S
N89 C91 1.371 . S
N89 C92 1.372 . S
N90 C92 1.361 . S
N90 C93 1.377 . S
C91 N88 1.382 . S
C91 N89 1.371 . S
C91 C94 1.480 . S
C92 N89 1.372 . S
C92 N90 1.361 . S
C92 C100 1.457 . S
C93 N88 1.363 . S
C93 N90 1.377 . S
C93 C106 1.479 . S
C94 C91 1.480 . S
C94 C95 1.383 . S
C94 C99 1.385 . S
C95 H76 0.947 . S
C95 C94 1.383 . S
C95 C96 1.388 . S
C96 H77 0.946 . S
C96 C95 1.388 . S
C96 C97 1.384 . S
C97 C96 1.384 . S
C97 C98 1.377 . S
C98 H78 0.953 . S
C98 C97 1.377 . S
C98 C99 1.369 . S
C99 H79 0.945 . S
C99 C94 1.385 . S
C99 C98 1.369 . S
C100 C92 1.457 . S
C100 C101 1.372 . S
C100 C105 1.364 . S
C101 H80 0.952 . S
C101 C100 1.372 . S
C101 C102 1.389 . S
C102 H81 0.949 . S
C102 C101 1.389 . S
C102 C103 1.387 . S
C103 C102 1.387 . S
C103 C104 1.372 . S
C104 H82 0.950 . S
C104 C103 1.372 . S
C104 C105 1.379 . S
C105 H83 0.948 . S
C105 C100 1.364 . S
C105 C104 1.379 . S
C106 C75 1.383 . S
C106 C93 1.479 . S
C106 C107 1.398 . S
C107 C72 1.382 . S
C107 H84 0.951 . S
C107 C106 1.398 . S
C108 C109 1.384 . S
C108 H121 0.947 . S
C108 C143 1.382 . S
C109 C108 1.384 . S
C109 C110 1.378 . S
C110 C109 1.378 . S
C110 C111 1.378 . S
C110 H122 0.952 . S
C111 C110 1.378 . S
C111 H123 0.950 . S
C111 C142 1.383 . S
H112 C131 0.947 . S
H113 C132 0.946 . S
H114 C134 0.953 . S
H115 C135 0.945 . S
H116 C137 0.952 . S
H117 C138 0.949 . S
H118 C140 0.950 . S
H119 C141 0.948 . S
H120 C143 0.951 . S
H121 C108 0.947 . S
H122 C110 0.952 . S
H123 C111 0.950 . S
N124 C127 1.382 . S
N124 C129 1.363 . S
N125 C127 1.371 . S
N125 C128 1.372 . S
N126 C128 1.361 . S
N126 C129 1.377 . S
C127 N124 1.382 . S
C127 N125 1.371 . S
C127 C130 1.480 . S
C128 N125 1.372 . S
C128 N126 1.361 . S
C128 C136 1.457 . S
C129 N124 1.363 . S
C129 N126 1.377 . S
C129 C142 1.479 . S
C130 C127 1.480 . S
C130 C131 1.383 . S
C130 C135 1.385 . S
C131 H112 0.947 . S
C131 C130 1.383 . S
C131 C132 1.388 . S
C132 H113 0.946 . S
C132 C131 1.388 . S
C132 C133 1.384 . S
C133 C132 1.384 . S
C133 C134 1.377 . S
C134 H114 0.953 . S
C134 C133 1.377 . S
C134 C135 1.369 . S
C135 H115 0.945 . S
C135 C130 1.385 . S
C135 C134 1.369 . S
C136 C128 1.457 . S
C136 C137 1.372 . S
C136 C141 1.364 . S
C137 H116 0.952 . S
C137 C136 1.372 . S
C137 C138 1.389 . S
C138 H117 0.949 . S
C138 C137 1.389 . S
C138 C139 1.387 . S
C139 C138 1.387 . S
C139 C140 1.372 . S
C140 H118 0.950 . S
C140 C139 1.372 . S
C140 C141 1.379 . S
C141 H119 0.948 . S
C141 C136 1.364 . S
C141 C140 1.379 . S
C142 C111 1.383 . S
C142 C129 1.479 . S
C142 C143 1.398 . S
C143 C108 1.382 . S
C143 H120 0.951 . S
C143 C142 1.398 . S
C144 C145 1.384 . S
C144 H157 0.947 . S
C144 C179 1.382 . S
C145 C144 1.384 . S
C145 C146 1.378 . S
C146 C145 1.378 . S
C146 C147 1.378 . S
C146 H158 0.952 . S
C147 C146 1.378 . S
C147 H159 0.950 . S
C147 C178 1.383 . S
H148 C167 0.947 . S
H149 C168 0.946 . S
H150 C170 0.953 . S
H151 C171 0.945 . S
H152 C173 0.952 . S
H153 C174 0.949 . S
H154 C176 0.950 . S
H155 C177 0.948 . S
H156 C179 0.951 . S
H157 C144 0.947 . S
H158 C146 0.952 . S
H159 C147 0.950 . S
N160 C163 1.382 . S
N160 C165 1.363 . S
N161 C163 1.371 . S
N161 C164 1.372 . S
N162 C164 1.361 . S
N162 C165 1.377 . S
C163 N160 1.382 . S
C163 N161 1.371 . S
C163 C166 1.480 . S
C164 N161 1.372 . S
C164 N162 1.361 . S
C164 C172 1.457 . S
C165 N160 1.363 . S
C165 N162 1.377 . S
C165 C178 1.479 . S
C166 C163 1.480 . S
C166 C167 1.383 . S
C166 C171 1.385 . S
C167 H148 0.947 . S
C167 C166 1.383 . S
C167 C168 1.388 . S
C168 H149 0.946 . S
C168 C167 1.388 . S
C168 C169 1.384 . S
C169 C168 1.384 . S
C169 C170 1.377 . S
C170 H150 0.953 . S
C170 C169 1.377 . S
C170 C171 1.369 . S
C171 H151 0.945 . S
C171 C166 1.385 . S
C171 C170 1.369 . S
C172 C164 1.457 . S
C172 C173 1.372 . S
C172 C177 1.364 . S
C173 H152 0.952 . S
C173 C172 1.372 . S
C173 C174 1.389 . S
C174 H153 0.949 . S
C174 C173 1.389 . S
C174 C175 1.387 . S
C175 C174 1.387 . S
C175 C176 1.372 . S
C176 H154 0.950 . S
C176 C175 1.372 . S
C176 C177 1.379 . S
C177 H155 0.948 . S
C177 C172 1.364 . S
C177 C176 1.379 . S
C178 C147 1.383 . S
C178 C165 1.479 . S
C178 C179 1.398 . S
C179 C144 1.382 . S
C179 H156 0.951 . S
C179 C178 1.398 . S
C180 C181 1.384 . S
C180 H193 0.947 . S
C180 C215 1.382 . S
C181 C180 1.384 . S
C181 C182 1.378 . S
C182 C181 1.378 . S
C182 C183 1.378 . S
C182 H194 0.952 . S
C183 C182 1.378 . S
C183 H195 0.950 . S
C183 C214 1.383 . S
H184 C203 0.947 . S
H185 C204 0.946 . S
H186 C206 0.953 . S
H187 C207 0.945 . S
H188 C209 0.952 . S
H189 C210 0.949 . S
H190 C212 0.950 . S
H191 C213 0.948 . S
H192 C215 0.951 . S
H193 C180 0.947 . S
H194 C182 0.952 . S
H195 C183 0.950 . S
N196 C199 1.382 . S
N196 C201 1.363 . S
N197 C199 1.371 . S
N197 C200 1.372 . S
N198 C200 1.361 . S
N198 C201 1.377 . S
C199 N196 1.382 . S
C199 N197 1.371 . S
C199 C202 1.480 . S
C200 N197 1.372 . S
C200 N198 1.361 . S
C200 C208 1.457 . S
C201 N196 1.363 . S
C201 N198 1.377 . S
C201 C214 1.479 . S
C202 C199 1.480 . S
C202 C203 1.383 . S
C202 C207 1.385 . S
C203 H184 0.947 . S
C203 C202 1.383 . S
C203 C204 1.388 . S
C204 H185 0.946 . S
C204 C203 1.388 . S
C204 C205 1.384 . S
C205 C204 1.384 . S
C205 C206 1.377 . S
C206 H186 0.953 . S
C206 C205 1.377 . S
C206 C207 1.369 . S
C207 H187 0.945 . S
C207 C202 1.385 . S
C207 C206 1.369 . S
C208 C200 1.457 . S
C208 C209 1.372 . S
C208 C213 1.364 . S
C209 H188 0.952 . S
C209 C208 1.372 . S
C209 C210 1.389 . S
C210 H189 0.949 . S
C210 C209 1.389 . S
C210 C211 1.387 . S
C211 C210 1.387 . S
C211 C212 1.372 . S
C212 H190 0.950 . S
C212 C211 1.372 . S
C212 C213 1.379 . S
C213 H191 0.948 . S
C213 C208 1.364 . S
C213 C212 1.379 . S
C214 C183 1.383 . S
C214 C201 1.479 . S
C214 C215 1.398 . S
C215 C180 1.382 . S
C215 H192 0.951 . S
C215 C214 1.398 . S
C216 C217 1.384 . S
C216 H229 0.947 . S
C216 C251 1.382 . S
C217 C216 1.384 . S
C217 C218 1.378 . S
C218 C217 1.378 . S
C218 C219 1.378 . S
C218 H230 0.952 . S
C219 C218 1.378 . S
C219 H231 0.950 . S
C219 C250 1.383 . S
H220 C239 0.947 . S
H221 C240 0.946 . S
H222 C242 0.953 . S
H223 C243 0.945 . S
H224 C245 0.952 . S
H225 C246 0.949 . S
H226 C248 0.950 . S
H227 C249 0.948 . S
H228 C251 0.951 . S
H229 C216 0.947 . S
H230 C218 0.952 . S
H231 C219 0.950 . S
N232 C235 1.382 . S
N232 C237 1.363 . S
N233 C235 1.371 . S
N233 C236 1.372 . S
N234 C236 1.361 . S
N234 C237 1.377 . S
C235 N232 1.382 . S
C235 N233 1.371 . S
C235 C238 1.480 . S
C236 N233 1.372 . S
C236 N234 1.361 . S
C236 C244 1.457 . S
C237 N232 1.363 . S
C237 N234 1.377 . S
C237 C250 1.479 . S
C238 C235 1.480 . S
C238 C239 1.383 . S
C238 C243 1.385 . S
C239 H220 0.947 . S
C239 C238 1.383 . S
C239 C240 1.388 . S
C240 H221 0.946 . S
C240 C239 1.388 . S
C240 C241 1.384 . S
C241 C240 1.384 . S
C241 C242 1.377 . S
C242 H222 0.953 . S
C242 C241 1.377 . S
C242 C243 1.369 . S
C243 H223 0.945 . S
C243 C238 1.385 . S
C243 C242 1.369 . S
C244 C236 1.457 . S
C244 C245 1.372 . S
C244 C249 1.364 . S
C245 H224 0.952 . S
C245 C244 1.372 . S
C245 C246 1.389 . S
C246 H225 0.949 . S
C246 C245 1.389 . S
C246 C247 1.387 . S
C247 C246 1.387 . S
C247 C248 1.372 . S
C248 H226 0.950 . S
C248 C247 1.372 . S
C248 C249 1.379 . S
C249 H227 0.948 . S
C249 C244 1.364 . S
C249 C248 1.379 . S
C250 C219 1.383 . S
C250 C237 1.479 . S
C250 C251 1.398 . S
C251 C216 1.382 . S
C251 H228 0.951 . S
C251 C250 1.398 . S
C252 C253 1.384 . S
C252 H265 0.947 . S
C252 C287 1.382 . S
C253 C252 1.384 . S
C253 C254 1.378 . S
C254 C253 1.378 . S
C254 C255 1.378 . S
C254 H266 0.952 . S
C255 C254 1.378 . S
C255 H267 0.950 . S
C255 C286 1.383 . S
H256 C275 0.947 . S
H257 C276 0.946 . S
H258 C278 0.953 . S
H259 C279 0.945 . S
H260 C281 0.952 . S
H261 C282 0.949 . S
H262 C284 0.950 . S
H263 C285 0.948 . S
H264 C287 0.951 . S
H265 C252 0.947 . S
H266 C254 0.952 . S
H267 C255 0.950 . S
N268 C271 1.382 . S
N268 C273 1.363 . S
N269 C271 1.371 . S
N269 C272 1.372 . S
N270 C272 1.361 . S
N270 C273 1.377 . S
C271 N268 1.382 . S
C271 N269 1.371 . S
C271 C274 1.480 . S
C272 N269 1.372 . S
C272 N270 1.361 . S
C272 C280 1.457 . S
C273 N268 1.363 . S
C273 N270 1.377 . S
C273 C286 1.479 . S
C274 C271 1.480 . S
C274 C275 1.383 . S
C274 C279 1.385 . S
C275 H256 0.947 . S
C275 C274 1.383 . S
C275 C276 1.388 . S
C276 H257 0.946 . S
C276 C275 1.388 . S
C276 C277 1.384 . S
C277 C276 1.384 . S
C277 C278 1.377 . S
C278 H258 0.953 . S
C278 C277 1.377 . S
C278 C279 1.369 . S
C279 H259 0.945 . S
C279 C274 1.385 . S
C279 C278 1.369 . S
C280 C272 1.457 . S
C280 C281 1.372 . S
C280 C285 1.364 . S
C281 H260 0.952 . S
C281 C280 1.372 . S
C281 C282 1.389 . S
C282 H261 0.949 . S
C282 C281 1.389 . S
C282 C283 1.387 . S
C283 C282 1.387 . S
C283 C284 1.372 . S
C284 H262 0.950 . S
C284 C283 1.372 . S
C284 C285 1.379 . S
C285 H263 0.948 . S
C285 C280 1.364 . S
C285 C284 1.379 . S
C286 C255 1.383 . S
C286 C273 1.479 . S
C286 C287 1.398 . S
C287 C252 1.382 . S
C287 H264 0.951 . S
C287 C286 1.398 . S
Dy288 O291 2.307 1_545 S
Dy288 O293 2.395 . S
Dy288 O294 2.379 . S
Dy288 O296 2.339 1_545 S
Dy288 O298 2.298 . S
Dy288 O302 2.275 . S
Dy288 C310 2.738 . S
Dy289 O292 2.298 1_655 S
Dy289 O295 2.275 . S
Dy289 O297 2.307 1_565 S
Dy289 O299 2.395 . S
Dy289 O300 2.379 . S
Dy289 O303 2.339 1_565 S
Dy289 C319 2.738 . S
C290 O302 1.254 . S
C290 O303 1.257 1_455 S
O291 Dy288 2.307 1_565 S
O291 C301 1.266 . S
O292 Dy289 2.298 1_455 S
O292 C301 1.236 . S
O293 Dy288 2.395 . S
O293 C310 1.255 . S
O294 Dy288 2.379 . S
O294 C310 1.249 . S
O295 Dy289 2.275 . S
O295 C311 1.254 . S
O296 Dy288 2.339 1_565 S
O296 C311 1.257 1_455 S
O297 Dy289 2.307 1_545 S
O297 C312 1.266 . S
O298 Dy288 2.298 . S
O298 C312 1.236 1_455 S
O299 Dy289 2.395 . S
O299 C319 1.255 . S
O300 Dy289 2.379 . S
O300 C319 1.249 . S
C301 O291 1.266 . S
C301 O292 1.236 . S
O302 Dy288 2.275 . S
O302 C290 1.254 . S
O303 Dy289 2.339 1_545 S
O303 C290 1.257 1_655 S
C304 C307 1.344 . S
C304 C308 1.328 . S
C304 C310 1.516 . S
C305 C306 1.304 . S
C305 C309 1.323 . S
C306 C305 1.304 . S
C306 C307 1.371 . S
C306 H320 0.930 . S
C307 C304 1.344 . S
C307 C306 1.371 . S
C307 H321 0.931 . S
C308 C304 1.328 . S
C308 C309 1.433 . S
C308 H322 0.931 . S
C309 C305 1.323 . S
C309 C308 1.433 . S
C309 H323 0.933 . S
C310 Dy288 2.738 . S
C310 O293 1.255 . S
C310 O294 1.249 . S
C310 C304 1.516 . S
C311 O295 1.254 . S
C311 O296 1.257 1_655 S
C312 O297 1.266 . S
C312 O298 1.236 1_655 S
C313 C316 1.344 . S
C313 C317 1.328 . S
C313 C319 1.516 . S
C314 C315 1.304 . S
C314 C318 1.323 . S
C315 C314 1.304 . S
C315 C316 1.371 . S
C315 H324 0.930 . S
C316 C313 1.344 . S
C316 C315 1.371 . S
C316 H325 0.931 . S
C317 C313 1.328 . S
C317 C318 1.433 . S
C317 H326 0.931 . S
C318 C314 1.323 . S
C318 C317 1.433 . S
C318 H327 0.933 . S
C319 Dy289 2.738 . S
C319 O299 1.255 . S
C319 O300 1.249 . S
C319 C313 1.516 . S
H320 C306 0.930 . S
H321 C307 0.931 . S
H322 C308 0.931 . S
H323 C309 0.933 . S
H324 C315 0.930 . S
H325 C316 0.931 . S
H326 C317 0.931 . S
H327 C318 0.933 . S
Dy328 O331 2.307 1_566 S
Dy328 O333 2.395 . S
Dy328 O334 2.379 . S
Dy328 O336 2.339 1_565 S
Dy328 O338 2.298 . S
Dy328 O342 2.275 1_556 S
Dy328 C350 2.738 . S
Dy329 O332 2.298 . S
Dy329 O335 2.275 1_554 S
Dy329 O337 2.307 1_544 S
Dy329 O339 2.395 . S
Dy329 O340 2.379 . S
Dy329 O343 2.339 1_545 S
Dy329 C359 2.738 . S
C330 O342 1.254 . S
C330 O343 1.257 . S
O331 Dy328 2.307 1_544 S
O331 C341 1.266 . S
O332 Dy329 2.298 . S
O332 C341 1.236 . S
O333 Dy328 2.395 . S
O333 C350 1.255 . S
O334 Dy328 2.379 . S
O334 C350 1.249 . S
O335 Dy329 2.275 1_556 S
O335 C351 1.254 . S
O336 Dy328 2.339 1_545 S
O336 C351 1.257 . S
O337 Dy329 2.307 1_566 S
O337 C352 1.266 . S
O338 Dy328 2.298 . S
O338 C352 1.236 . S
O339 Dy329 2.395 . S
O339 C359 1.255 . S
O340 Dy329 2.379 . S
O340 C359 1.249 . S
C341 O331 1.266 . S
C341 O332 1.236 . S
O342 Dy328 2.275 1_554 S
O342 C330 1.254 . S
O343 Dy329 2.339 1_565 S
O343 C330 1.257 . S
C344 C347 1.344 . S
C344 C348 1.328 . S
C344 C350 1.516 . S
C345 C346 1.304 . S
C345 C349 1.323 . S
C346 C345 1.304 . S
C346 C347 1.371 . S
C346 H360 0.930 . S
C347 C344 1.344 . S
C347 C346 1.371 . S
C347 H361 0.931 . S
C348 C344 1.328 . S
C348 C349 1.433 . S
C348 H362 0.931 . S
C349 C345 1.323 . S
C349 C348 1.433 . S
C349 H363 0.933 . S
C350 Dy328 2.738 . S
C350 O333 1.255 . S
C350 O334 1.249 . S
C350 C344 1.516 . S
C351 O335 1.254 . S
C351 O336 1.257 . S
C352 O337 1.266 . S
C352 O338 1.236 . S
C353 C356 1.344 . S
C353 C357 1.328 . S
C353 C359 1.516 . S
C354 C355 1.304 . S
C354 C358 1.323 . S
C355 C354 1.304 . S
C355 C356 1.371 . S
C355 H364 0.930 . S
C356 C353 1.344 . S
C356 C355 1.371 . S
C356 H365 0.931 . S
C357 C353 1.328 . S
C357 C358 1.433 . S
C357 H366 0.931 . S
C358 C354 1.323 . S
C358 C357 1.433 . S
C358 H367 0.933 . S
C359 Dy329 2.738 . S
C359 O339 1.255 . S
C359 O340 1.249 . S
C359 C353 1.516 . S
H360 C346 0.930 . S
H361 C347 0.931 . S
H362 C348 0.931 . S
H363 C349 0.933 . S
H364 C355 0.930 . S
H365 C356 0.931 . S
H366 C357 0.931 . S
H367 C358 0.933 . S
Dy368 O371 2.307 . S
Dy368 O373 2.395 . S
Dy368 O374 2.379 . S
Dy368 O376 2.339 . S
Dy368 O378 2.298 . S
Dy368 O382 2.275 . S
Dy368 C390 2.738 . S
Dy369 O372 2.298 . S
Dy369 O375 2.275 . S
Dy369 O377 2.307 . S
Dy369 O379 2.395 . S
Dy369 O380 2.379 . S
Dy369 O383 2.339 . S
Dy369 C399 2.738 . S
C370 O382 1.254 . S
C370 O383 1.257 . S
O371 Dy368 2.307 . S
O371 C381 1.266 . S
O372 Dy369 2.298 . S
O372 C381 1.236 . S
O373 Dy368 2.395 . S
O373 C390 1.255 . S
O374 Dy368 2.379 . S
O374 C390 1.249 . S
O375 Dy369 2.275 . S
O375 C391 1.254 . S
O376 Dy368 2.339 . S
O376 C391 1.257 . S
O377 Dy369 2.307 . S
O377 C392 1.266 . S
O378 Dy368 2.298 . S
O378 C392 1.236 . S
O379 Dy369 2.395 . S
O379 C399 1.255 . S
O380 Dy369 2.379 . S
O380 C399 1.249 . S
C381 O371 1.266 . S
C381 O372 1.236 . S
O382 Dy368 2.275 . S
O382 C370 1.254 . S
O383 Dy369 2.339 . S
O383 C370 1.257 . S
C384 C387 1.344 . S
C384 C388 1.328 . S
C384 C390 1.516 . S
C385 C386 1.304 . S
C385 C389 1.323 . S
C386 C385 1.304 . S
C386 C387 1.371 . S
C386 H400 0.930 . S
C387 C384 1.344 . S
C387 C386 1.371 . S
C387 H401 0.931 . S
C388 C384 1.328 . S
C388 C389 1.433 . S
C388 H402 0.931 . S
C389 C385 1.323 . S
C389 C388 1.433 . S
C389 H403 0.933 . S
C390 Dy368 2.738 . S
C390 O373 1.255 . S
C390 O374 1.249 . S
C390 C384 1.516 . S
C391 O375 1.254 . S
C391 O376 1.257 . S
C392 O377 1.266 . S
C392 O378 1.236 . S
C393 C396 1.344 . S
C393 C397 1.328 . S
C393 C399 1.516 . S
C394 C395 1.304 . S
C394 C398 1.323 . S
C395 C394 1.304 . S
C395 C396 1.371 . S
C395 H404 0.930 . S
C396 C393 1.344 . S
C396 C395 1.371 . S
C396 H405 0.931 . S
C397 C393 1.328 . S
C397 C398 1.433 . S
C397 H406 0.931 . S
C398 C394 1.323 . S
C398 C397 1.433 . S
C398 H407 0.933 . S
C399 Dy369 2.738 . S
C399 O379 1.255 . S
C399 O380 1.249 . S
C399 C393 1.516 . S
H400 C386 0.930 . S
H401 C387 0.931 . S
H402 C388 0.931 . S
H403 C389 0.933 . S
H404 C395 0.930 . S
H405 C396 0.931 . S
H406 C397 0.931 . S
H407 C398 0.933 . S
Dy408 O411 2.307 1_556 S
Dy408 O413 2.395 1_455 S
Dy408 O414 2.379 1_455 S
Dy408 O416 2.339 . S
Dy408 O418 2.298 1_455 S
Dy408 O422 2.275 1_456 S
Dy408 C430 2.738 1_455 S
Dy409 O412 2.298 . S
Dy409 O415 2.275 1_554 S
Dy409 O417 2.307 1_455 S
Dy409 O419 2.395 . S
Dy409 O420 2.379 . S
Dy409 O423 2.339 1_455 S
Dy409 C439 2.738 . S
C410 O422 1.254 . S
C410 O423 1.257 . S
O411 Dy408 2.307 1_554 S
O411 C421 1.266 . S
O412 Dy409 2.298 . S
O412 C421 1.236 . S
O413 Dy408 2.395 1_655 S
O413 C430 1.255 . S
O414 Dy408 2.379 1_655 S
O414 C430 1.249 . S
O415 Dy409 2.275 1_556 S
O415 C431 1.254 . S
O416 Dy408 2.339 . S
O416 C431 1.257 . S
O417 Dy409 2.307 1_655 S
O417 C432 1.266 1_554 S
O418 Dy408 2.298 1_655 S
O418 C432 1.236 . S
O419 Dy409 2.395 . S
O419 C439 1.255 . S
O420 Dy409 2.379 . S
O420 C439 1.249 . S
C421 O411 1.266 . S
C421 O412 1.236 . S
O422 Dy408 2.275 1_654 S
O422 C410 1.254 . S
O423 Dy409 2.339 1_655 S
O423 C410 1.257 . S
C424 C427 1.344 . S
C424 C428 1.328 . S
C424 C430 1.516 . S
C425 C426 1.304 . S
C425 C429 1.323 . S
C426 C425 1.304 . S
C426 C427 1.371 . S
C426 H440 0.930 . S
C427 C424 1.344 . S
C427 C426 1.371 . S
C427 H441 0.931 . S
C428 C424 1.328 . S
C428 C429 1.433 . S
C428 H442 0.931 . S
C429 C425 1.323 . S
C429 C428 1.433 . S
C429 H443 0.933 . S
C430 Dy408 2.738 1_655 S
C430 O413 1.255 . S
C430 O414 1.249 . S
C430 C424 1.516 . S
C431 O415 1.254 . S
C431 O416 1.257 . S
C432 O417 1.266 1_556 S
C432 O418 1.236 . S
C433 C436 1.344 . S
C433 C437 1.328 . S
C433 C439 1.516 . S
C434 C435 1.304 . S
C434 C438 1.323 . S
C435 C434 1.304 . S
C435 C436 1.371 . S
C435 H444 0.930 . S
C436 C433 1.344 . S
C436 C435 1.371 . S
C436 H445 0.931 . S
C437 C433 1.328 . S
C437 C438 1.433 . S
C437 H446 0.931 . S
C438 C434 1.323 . S
C438 C437 1.433 . S
C438 H447 0.933 . S
C439 Dy409 2.738 . S
C439 O419 1.255 . S
C439 O420 1.249 . S
C439 C433 1.516 . S
H440 C426 0.930 . S
H441 C427 0.931 . S
H442 C428 0.931 . S
H443 C429 0.933 . S
H444 C435 0.930 . S
H445 C436 0.931 . S
H446 C437 0.931 . S
H447 C438 0.933 . S
C448 C449 1.363 . S
C448 C454 1.379 . S
C448 N456 1.356 . S
C449 C448 1.363 . S
C449 C455 1.363 . S
C450 C451 1.363 . S
C450 C455 1.379 . S
C450 N457 1.356 . S
C451 C450 1.363 . S
C451 C454 1.363 . S
N452 C454 1.356 . S
N452 H464 0.984 . S
N452 H465 0.985 . S
N453 C455 1.356 . S
N453 H458 0.984 . S
N453 H459 0.985 . S
C454 C448 1.379 . S
C454 C451 1.363 . S
C454 N452 1.356 . S
C455 C449 1.363 . S
C455 C450 1.379 . S
C455 N453 1.356 . S
N456 C448 1.356 . S
N456 H462 0.984 . S
N456 H463 0.984 . S
N457 C450 1.356 . S
N457 H460 0.984 . S
N457 H461 0.985 . S
H458 N453 0.984 . S
H459 N453 0.985 . S
H460 N457 0.984 . S
H461 N457 0.985 . S
H462 N456 0.984 . S
H463 N456 0.984 . S
H464 N452 0.984 . S
H465 N452 0.985 . S
C466 C467 1.363 . S
C466 C472 1.379 . S
C466 N474 1.356 . S
C467 C466 1.363 . S
C467 C473 1.363 . S
C468 C469 1.363 . S
C468 C473 1.379 . S
C468 N475 1.356 . S
C469 C468 1.363 . S
C469 C472 1.363 . S
N470 C472 1.356 . S
N470 H482 0.984 . S
N470 H483 0.985 . S
N471 C473 1.356 . S
N471 H476 0.984 . S
N471 H477 0.985 . S
C472 C466 1.379 . S
C472 C469 1.363 . S
C472 N470 1.356 . S
C473 C467 1.363 . S
C473 C468 1.379 . S
C473 N471 1.356 . S
N474 C466 1.356 . S
N474 H480 0.984 . S
N474 H481 0.984 . S
N475 C468 1.356 . S
N475 H478 0.984 . S
N475 H479 0.985 . S
H476 N471 0.984 . S
H477 N471 0.985 . S
H478 N475 0.984 . S
H479 N475 0.985 . S
H480 N474 0.984 . S
H481 N474 0.984 . S
H482 N470 0.984 . S
H483 N470 0.985 . S
C484 C485 1.363 . S
C484 C490 1.379 . S
C484 N492 1.356 . S
C485 C484 1.363 . S
C485 C491 1.363 . S
C486 C487 1.363 . S
C486 C491 1.379 . S
C486 N493 1.356 . S
C487 C486 1.363 . S
C487 C490 1.363 . S
N488 C490 1.356 . S
N488 H500 0.984 . S
N488 H501 0.985 . S
N489 C491 1.356 . S
N489 H494 0.984 . S
N489 H495 0.985 . S
C490 C484 1.379 . S
C490 C487 1.363 . S
C490 N488 1.356 . S
C491 C485 1.363 . S
C491 C486 1.379 . S
C491 N489 1.356 . S
N492 C484 1.356 . S
N492 H498 0.984 . S
N492 H499 0.984 . S
N493 C486 1.356 . S
N493 H496 0.984 . S
N493 H497 0.985 . S
H494 N489 0.984 . S
H495 N489 0.985 . S
H496 N493 0.984 . S
H497 N493 0.985 . S
H498 N492 0.984 . S
H499 N492 0.984 . S
H500 N488 0.984 . S
H501 N488 0.985 . S
C502 C503 1.363 . S
C502 C508 1.379 . S
C502 N510 1.356 . S
C503 C502 1.363 . S
C503 C509 1.363 . S
C504 C505 1.363 . S
C504 C509 1.379 . S
C504 N511 1.356 . S
C505 C504 1.363 . S
C505 C508 1.363 . S
N506 C508 1.356 . S
N506 H518 0.984 1_655 S
N506 H519 0.985 . S
N507 C509 1.356 . S
N507 H512 0.984 . S
N507 H513 0.985 . S
C508 C502 1.379 . S
C508 C505 1.363 . S
C508 N506 1.356 . S
C509 C503 1.363 . S
C509 C504 1.379 . S
C509 N507 1.356 . S
N510 C502 1.356 . S
N510 H516 0.984 . S
N510 H517 0.984 . S
N511 C504 1.356 . S
N511 H514 0.984 . S
N511 H515 0.985 . S
H512 N507 0.984 . S
H513 N507 0.985 . S
H514 N511 0.984 . S
H515 N511 0.985 . S
H516 N510 0.984 . S
H517 N510 0.984 . S
H518 N506 0.984 1_455 S
H519 N506 0.985 . S
C520 C521 1.363 . S
C520 C526 1.379 . S
C520 N528 1.356 . S
C521 C520 1.363 . S
C521 C527 1.363 . S
C522 C523 1.363 . S
C522 C527 1.379 . S
C522 N529 1.356 . S
C523 C522 1.363 . S
C523 C526 1.363 . S
N524 C526 1.356 . S
N524 H536 0.984 . S
N524 H537 0.985 . S
N525 C527 1.356 . S
N525 H530 0.984 . S
N525 H531 0.985 . S
C526 C520 1.379 . S
C526 C523 1.363 . S
C526 N524 1.356 . S
C527 C521 1.363 . S
C527 C522 1.379 . S
C527 N525 1.356 . S
N528 C520 1.356 . S
N528 H534 0.984 . S
N528 H535 0.984 . S
N529 C522 1.356 . S
N529 H532 0.984 . S
N529 H533 0.985 . S
H530 N525 0.984 . S
H531 N525 0.985 . S
H532 N529 0.984 . S
H533 N529 0.985 . S
H534 N528 0.984 . S
H535 N528 0.984 . S
H536 N524 0.984 . S
H537 N524 0.985 . S
C538 C539 1.363 . S
C538 C544 1.379 . S
C538 N546 1.356 . S
C539 C538 1.363 . S
C539 C545 1.363 . S
C540 C541 1.363 . S
C540 C545 1.379 . S
C540 N547 1.356 . S
C541 C540 1.363 . S
C541 C544 1.363 . S
N542 C544 1.356 . S
N542 H554 0.984 . S
N542 H555 0.985 . S
N543 C545 1.356 . S
N543 H548 0.984 . S
N543 H549 0.985 . S
C544 C538 1.379 . S
C544 C541 1.363 . S
C544 N542 1.356 . S
C545 C539 1.363 . S
C545 C540 1.379 . S
C545 N543 1.356 . S
N546 C538 1.356 . S
N546 H552 0.984 . S
N546 H553 0.984 . S
N547 C540 1.356 . S
N547 H550 0.984 . S
N547 H551 0.985 . S
H548 N543 0.984 . S
H549 N543 0.985 . S
H550 N547 0.984 . S
H551 N547 0.985 . S
H552 N546 0.984 . S
H553 N546 0.984 . S
H554 N542 0.984 . S
H555 N542 0.985 . S
C556 C557 1.363 . S
C556 C562 1.379 . S
C556 N564 1.356 . S
C557 C556 1.363 . S
C557 C563 1.363 . S
C558 C559 1.363 . S
C558 C563 1.379 . S
C558 N565 1.356 . S
C559 C558 1.363 . S
C559 C562 1.363 . S
N560 C562 1.356 . S
N560 H572 0.984 . S
N560 H573 0.985 . S
N561 C563 1.356 . S
N561 H566 0.984 . S
N561 H567 0.985 . S
C562 C556 1.379 . S
C562 C559 1.363 . S
C562 N560 1.356 . S
C563 C557 1.363 . S
C563 C558 1.379 . S
C563 N561 1.356 . S
N564 C556 1.356 . S
N564 H570 0.984 . S
N564 H571 0.984 . S
N565 C558 1.356 . S
N565 H568 0.984 1_556 S
N565 H569 0.985 . S
H566 N561 0.984 . S
H567 N561 0.985 . S
H568 N565 0.984 1_554 S
H569 N565 0.985 . S
H570 N564 0.984 . S
H571 N564 0.984 . S
H572 N560 0.984 . S
H573 N560 0.985 . S
C574 C575 1.363 . S
C574 C580 1.379 . S
C574 N582 1.356 . S
C575 C574 1.363 . S
C575 C581 1.363 . S
C576 C577 1.363 . S
C576 C581 1.379 . S
C576 N583 1.356 . S
C577 C576 1.363 . S
C577 C580 1.363 . S
N578 C580 1.356 . S
N578 H590 0.984 . S
N578 H591 0.985 . S
N579 C581 1.356 . S
N579 H584 0.984 . S
N579 H585 0.985 . S
C580 C574 1.379 . S
C580 C577 1.363 . S
C580 N578 1.356 . S
C581 C575 1.363 . S
C581 C576 1.379 . S
C581 N579 1.356 . S
N582 C574 1.356 . S
N582 H588 0.984 . S
N582 H589 0.984 . S
N583 C576 1.356 . S
N583 H586 0.984 . S
N583 H587 0.985 . S
H584 N579 0.984 . S
H585 N579 0.985 . S
H586 N583 0.984 . S
H587 N583 0.985 . S
H588 N582 0.984 . S
H589 N582 0.984 . S
H590 N578 0.984 . S
H591 N578 0.985 . S
C592 C593 1.363 . S
C592 C598 1.379 . S
C592 N600 1.356 . S
C593 C592 1.363 . S
C593 C599 1.363 . S
C594 C595 1.363 . S
C594 C599 1.379 . S
C594 N601 1.356 . S
C595 C594 1.363 . S
C595 C598 1.363 . S
N596 C598 1.356 . S
N596 H608 0.984 . S
N596 H609 0.985 . S
N597 C599 1.356 . S
N597 H602 0.984 . S
N597 H603 0.985 . S
C598 C592 1.379 . S
C598 C595 1.363 . S
C598 N596 1.356 . S
C599 C593 1.363 . S
C599 C594 1.379 . S
C599 N597 1.356 . S
N600 C592 1.356 . S
N600 H606 0.984 . S
N600 H607 0.984 . S
N601 C594 1.356 . S
N601 H604 0.984 . S
N601 H605 0.985 . S
H602 N597 0.984 . S
H603 N597 0.985 . S
H604 N601 0.984 . S
H605 N601 0.985 . S
H606 N600 0.984 . S
H607 N600 0.984 . S
H608 N596 0.984 . S
H609 N596 0.985 . S
C610 C611 1.363 . S
C610 C616 1.379 . S
C610 N618 1.356 . S
C611 C610 1.363 . S
C611 C617 1.363 . S
C612 C613 1.363 . S
C612 C617 1.379 . S
C612 N619 1.356 . S
C613 C612 1.363 . S
C613 C616 1.363 . S
N614 C616 1.356 . S
N614 H626 0.965 1_556 S
N614 H627 0.985 . S
N615 C617 1.356 . S
N615 H620 0.984 . S
N615 H621 0.985 . S
C616 C610 1.379 . S
C616 C613 1.363 . S
C616 N614 1.356 . S
C617 C611 1.363 . S
C617 C612 1.379 . S
C617 N615 1.356 . S
N618 C610 1.356 . S
N618 H624 0.984 . S
N618 H625 0.984 . S
N619 C612 1.356 . S
N619 H622 0.984 . S
N619 H623 0.985 . S
H620 N615 0.984 . S
H621 N615 0.985 . S
H622 N619 0.984 . S
H623 N619 0.985 . S
H624 N618 0.984 . S
H625 N618 0.984 . S
H626 N614 0.965 1_554 S
H627 N614 0.985 . S
C628 C629 1.363 . S
C628 C634 1.379 . S
C628 N636 1.356 . S
C629 C628 1.363 . S
C629 C635 1.363 . S
C630 C631 1.363 . S
C630 C635 1.379 . S
C630 N637 1.356 . S
C631 C630 1.363 . S
C631 C634 1.363 . S
N632 C634 1.356 . S
N632 H644 0.984 . S
N632 H645 0.985 . S
N633 C635 1.356 . S
N633 H638 0.984 . S
N633 H639 0.985 . S
C634 C628 1.379 . S
C634 C631 1.363 . S
C634 N632 1.356 . S
C635 C629 1.363 . S
C635 C630 1.379 . S
C635 N633 1.356 . S
N636 C628 1.356 . S
N636 H642 0.984 . S
N636 H643 0.984 . S
N637 C630 1.356 . S
N637 H640 0.984 . S
N637 H641 0.985 . S
H638 N633 0.984 . S
H639 N633 0.985 . S
H640 N637 0.984 . S
H641 N637 0.985 . S
H642 N636 0.984 . S
H643 N636 0.984 . S
H644 N632 0.984 . S
H645 N632 0.985 . S
C646 C647 1.363 . S
C646 C652 1.379 . S
C646 N654 1.356 . S
C647 C646 1.363 . S
C647 C653 1.363 . S
C648 C649 1.363 . S
C648 C653 1.379 . S
C648 N655 1.356 . S
C649 C648 1.363 . S
C649 C652 1.363 . S
N650 C652 1.356 . S
N650 H662 0.984 . S
N650 H663 0.985 . S
N651 C653 1.356 . S
N651 H656 0.984 . S
N651 H657 0.985 . S
C652 C646 1.379 . S
C652 C649 1.363 . S
C652 N650 1.356 . S
C653 C647 1.363 . S
C653 C648 1.379 . S
C653 N651 1.356 . S
N654 C646 1.356 . S
N654 H660 0.984 . S
N654 H661 0.984 . S
N655 C648 1.356 . S
N655 H658 0.984 . S
N655 H659 0.985 . S
H656 N651 0.984 . S
H657 N651 0.985 . S
H658 N655 0.984 . S
H659 N655 0.985 . S
H660 N654 0.984 . S
H661 N654 0.984 . S
H662 N650 0.984 . S
H663 N650 0.985 . S
C664 C665 1.363 . S
C664 C670 1.379 . S
C664 N672 1.356 . S
C665 C664 1.363 . S
C665 C671 1.363 . S
C666 C667 1.363 . S
C666 C671 1.379 . S
C666 N673 1.356 . S
C667 C666 1.363 . S
C667 C670 1.363 . S
N668 C670 1.356 . S
N668 H680 0.984 . S
N668 H681 0.985 . S
N669 C671 1.356 . S
N669 H674 0.984 . S
N669 H675 0.985 . S
C670 C664 1.379 . S
C670 C667 1.363 . S
C670 N668 1.356 . S
C671 C665 1.363 . S
C671 C666 1.379 . S
C671 N669 1.356 . S
N672 C664 1.356 . S
N672 H678 0.984 . S
N672 H679 0.984 . S
N673 C666 1.356 . S
N673 H676 0.984 . S
N673 H677 0.985 . S
H674 N669 0.984 . S
H675 N669 0.985 . S
H676 N673 0.984 . S
H677 N673 0.985 . S
H678 N672 0.984 . S
H679 N672 0.984 . S
H680 N668 0.984 . S
H681 N668 0.985 . S
C682 C683 1.363 . S
C682 C688 1.379 . S
C682 N690 1.356 . S
C683 C682 1.363 . S
C683 C689 1.363 . S
C684 C685 1.363 . S
C684 C689 1.379 . S
C684 N691 1.356 . S
C685 C684 1.363 . S
C685 C688 1.363 . S
N686 C688 1.356 . S
N686 H698 0.984 . S
N686 H699 0.985 . S
N687 C689 1.356 . S
N687 H692 0.984 . S
N687 H693 0.985 . S
C688 C682 1.379 . S
C688 C685 1.363 . S
C688 N686 1.356 . S
C689 C683 1.363 . S
C689 C684 1.379 . S
C689 N687 1.356 . S
N690 C682 1.356 . S
N690 H696 0.984 . S
N690 H697 0.984 . S
N691 C684 1.356 . S
N691 H694 0.984 . S
N691 H695 0.985 . S
H692 N687 0.984 . S
H693 N687 0.985 . S
H694 N691 0.984 . S
H695 N691 0.985 . S
H696 N690 0.984 . S
H697 N690 0.984 . S
H698 N686 0.984 . S
H699 N686 0.985 . S
C700 C701 1.363 . S
C700 C706 1.379 . S
C700 N708 1.356 . S
C701 C700 1.363 . S
C701 C707 1.363 . S
C702 C703 1.363 . S
C702 C707 1.379 . S
C702 N709 1.356 . S
C703 C702 1.363 . S
C703 C706 1.363 . S
N704 C706 1.356 . S
N704 H716 0.984 . S
N704 H717 0.985 . S
N705 C707 1.356 . S
N705 H710 0.984 . S
N705 H711 0.985 . S
C706 C700 1.379 . S
C706 C703 1.363 . S
C706 N704 1.356 . S
C707 C701 1.363 . S
C707 C702 1.379 . S
C707 N705 1.356 . S
N708 C700 1.356 . S
N708 H714 0.984 . S
N708 H715 0.984 . S
N709 C702 1.356 . S
N709 H712 0.984 . S
N709 H713 0.985 . S
H710 N705 0.984 . S
H711 N705 0.985 . S
H712 N709 0.984 . S
H713 N709 0.985 . S
H714 N708 0.984 . S
H715 N708 0.984 . S
H716 N704 0.984 . S
H717 N704 0.985 . S
C718 C719 1.363 . S
C718 C724 1.379 . S
C718 N726 1.356 . S
C719 C718 1.363 . S
C719 C725 1.363 . S
C720 C721 1.363 . S
C720 C725 1.379 . S
C720 N727 1.356 . S
C721 C720 1.363 . S
C721 C724 1.363 . S
N722 C724 1.356 . S
N722 H734 0.984 1_455 S
N722 H735 0.985 . S
N723 C725 1.356 . S
N723 H728 0.984 . S
N723 H729 0.985 . S
C724 C718 1.379 . S
C724 C721 1.363 . S
C724 N722 1.356 . S
C725 C719 1.363 . S
C725 C720 1.379 . S
C725 N723 1.356 . S
N726 C718 1.356 . S
N726 H732 0.984 . S
N726 H733 0.984 . S
N727 C720 1.356 . S
N727 H730 0.984 . S
N727 H731 0.985 . S
H728 N723 0.984 . S
H729 N723 0.985 . S
H730 N727 0.984 . S
H731 N727 0.985 . S
H732 N726 0.984 . S
H733 N726 0.984 . S
H734 N722 0.984 1_655 S
H735 N722 0.985 . S
C736 C737 1.363 . S
C736 C742 1.379 . S
C736 N744 1.356 . S
C737 C736 1.363 . S
C737 C743 1.363 . S
C738 C739 1.363 . S
C738 C743 1.379 . S
C738 N745 1.356 . S
C739 C738 1.363 . S
C739 C742 1.363 . S
N740 C742 1.356 . S
N740 H752 0.984 . S
N740 H753 0.985 . S
N741 C743 1.356 . S
N741 H746 0.984 . S
N741 H747 0.985 . S
C742 C736 1.379 . S
C742 C739 1.363 . S
C742 N740 1.356 . S
C743 C737 1.363 . S
C743 C738 1.379 . S
C743 N741 1.356 . S
N744 C736 1.356 . S
N744 H750 0.984 . S
N744 H751 0.984 . S
N745 C738 1.356 . S
N745 H748 0.984 . S
N745 H749 0.985 . S
H746 N741 0.984 . S
H747 N741 0.985 . S
H748 N745 0.984 . S
H749 N745 0.985 . S
H750 N744 0.984 . S
H751 N744 0.984 . S
H752 N740 0.984 . S
H753 N740 0.985 . S
C754 C755 1.363 . S
C754 C760 1.379 . S
C754 N762 1.356 . S
C755 C754 1.363 . S
C755 C761 1.363 . S
C756 C757 1.363 . S
C756 C761 1.379 . S
C756 N763 1.356 1_655 S
C757 C756 1.363 . S
C757 C760 1.363 . S
N758 C760 1.356 . S
N758 H770 0.984 . S
N758 H771 0.985 . S
N759 C761 1.356 1_455 S
N759 H764 0.984 . S
N759 H765 0.985 . S
C760 C754 1.379 . S
C760 C757 1.363 . S
C760 N758 1.356 . S
C761 C755 1.363 . S
C761 C756 1.379 . S
C761 N759 1.356 1_655 S
N762 C754 1.356 . S
N762 H768 0.984 . S
N762 H769 0.984 . S
N763 C756 1.356 1_455 S
N763 H766 0.984 1_455 S
N763 H767 0.985 . S
H764 N759 0.984 . S
H765 N759 0.985 . S
H766 N763 0.984 1_655 S
H767 N763 0.985 . S
H768 N762 0.984 . S
H769 N762 0.984 . S
H770 N758 0.984 . S
H771 N758 0.985 . S
C772 C773 1.363 . S
C772 C778 1.379 . S
C772 N780 1.356 . S
C773 C772 1.363 . S
C773 C779 1.363 . S
C774 C775 1.363 . S
C774 C779 1.379 . S
C774 N781 1.356 . S
C775 C774 1.363 . S
C775 C778 1.363 . S
N776 C778 1.356 . S
N776 H788 0.984 . S
N776 H789 0.985 . S
N777 C779 1.356 . S
N777 H782 0.984 . S
N777 H783 0.985 . S
C778 C772 1.379 . S
C778 C775 1.363 . S
C778 N776 1.356 . S
C779 C773 1.363 . S
C779 C774 1.379 . S
C779 N777 1.356 . S
N780 C772 1.356 . S
N780 H786 0.984 . S
N780 H787 0.984 . S
N781 C774 1.356 . S
N781 H784 0.984 . S
N781 H785 0.985 . S
H782 N777 0.984 . S
H783 N777 0.985 . S
H784 N781 0.984 . S
H785 N781 0.985 . S
H786 N780 0.984 . S
H787 N780 0.984 . S
H788 N776 0.984 . S
H789 N776 0.985 . S
C790 C791 1.363 . S
C790 C796 1.379 . S
C790 N798 1.356 . S
C791 C790 1.363 . S
C791 C797 1.363 . S
C792 C793 1.363 . S
C792 C797 1.379 . S
C792 N799 1.356 . S
C793 C792 1.363 . S
C793 C796 1.363 . S
N794 C796 1.356 . S
N794 H806 0.984 . S
N794 H807 0.985 . S
N795 C797 1.356 . S
N795 H800 0.984 . S
N795 H801 0.985 . S
C796 C790 1.379 . S
C796 C793 1.363 . S
C796 N794 1.356 . S
C797 C791 1.363 . S
C797 C792 1.379 . S
C797 N795 1.356 . S
N798 C790 1.356 . S
N798 H804 0.984 . S
N798 H805 0.984 . S
N799 C792 1.356 . S
N799 H802 0.984 . S
N799 H803 0.985 . S
H800 N795 0.984 . S
H801 N795 0.985 . S
H802 N799 0.984 . S
H803 N799 0.985 . S
H804 N798 0.984 . S
H805 N798 0.984 . S
H806 N794 0.984 . S
H807 N794 0.985 . S
C808 C809 1.363 . S
C808 C814 1.379 . S
C808 N816 1.356 . S
C809 C808 1.363 . S
C809 C815 1.363 . S
C810 C811 1.363 . S
C810 C815 1.379 . S
C810 N817 1.356 . S
C811 C810 1.363 . S
C811 C814 1.363 . S
N812 C814 1.356 . S
N812 H824 0.984 . S
N812 H825 0.985 . S
N813 C815 1.356 . S
N813 H818 0.984 . S
N813 H819 0.985 . S
C814 C808 1.379 . S
C814 C811 1.363 . S
C814 N812 1.356 . S
C815 C809 1.363 . S
C815 C810 1.379 . S
C815 N813 1.356 . S
N816 C808 1.356 . S
N816 H822 0.984 . S
N816 H823 0.984 . S
N817 C810 1.356 . S
N817 H820 0.984 . S
N817 H821 0.985 . S
H818 N813 0.984 . S
H819 N813 0.985 . S
H820 N817 0.984 . S
H821 N817 0.985 . S
H822 N816 0.984 . S
H823 N816 0.984 . S
H824 N812 0.984 . S
H825 N812 0.985 . S
C826 C827 1.363 . S
C826 C832 1.379 . S
C826 N834 1.356 . S
C827 C826 1.363 . S
C827 C833 1.363 . S
C828 C829 1.363 . S
C828 C833 1.379 . S
C828 N835 1.356 . S
C829 C828 1.363 . S
C829 C832 1.363 . S
N830 C832 1.356 . S
N830 H842 0.984 . S
N830 H843 0.985 . S
N831 C833 1.356 . S
N831 H836 0.984 . S
N831 H837 0.985 . S
C832 C826 1.379 . S
C832 C829 1.363 . S
C832 N830 1.356 . S
C833 C827 1.363 . S
C833 C828 1.379 . S
C833 N831 1.356 . S
N834 C826 1.356 . S
N834 H840 0.984 . S
N834 H841 0.984 . S
N835 C828 1.356 . S
N835 H838 0.984 . S
N835 H839 0.985 . S
H836 N831 0.984 . S
H837 N831 0.985 . S
H838 N835 0.984 . S
H839 N835 0.985 . S
H840 N834 0.984 . S
H841 N834 0.984 . S
H842 N830 0.984 . S
H843 N830 0.985 . S
C844 C845 1.363 . S
C844 C850 1.379 . S
C844 N852 1.356 . S
C845 C844 1.363 . S
C845 C851 1.363 . S
C846 C847 1.363 . S
C846 C851 1.379 . S
C846 N853 1.356 . S
C847 C846 1.363 . S
C847 C850 1.363 . S
N848 C850 1.356 . S
N848 H860 0.984 . S
N848 H861 0.985 . S
N849 C851 1.356 . S
N849 H854 0.984 . S
N849 H855 0.985 . S
C850 C844 1.379 . S
C850 C847 1.363 . S
C850 N848 1.356 . S
C851 C845 1.363 . S
C851 C846 1.379 . S
C851 N849 1.356 . S
N852 C844 1.356 . S
N852 H858 0.984 . S
N852 H859 0.984 . S
N853 C846 1.356 . S
N853 H856 0.984 . S
N853 H857 0.985 . S
H854 N849 0.984 . S
H855 N849 0.985 . S
H856 N853 0.984 . S
H857 N853 0.985 . S
H858 N852 0.984 . S
H859 N852 0.984 . S
H860 N848 0.984 . S
H861 N848 0.985 . S
C862 C863 1.363 . S
C862 C868 1.379 . S
C862 N870 1.356 . S
C863 C862 1.363 . S
C863 C869 1.363 . S
C864 C865 1.363 . S
C864 C869 1.379 . S
C864 N871 1.356 . S
C865 C864 1.363 . S
C865 C868 1.363 . S
N866 C868 1.356 . S
N866 H878 0.984 . S
N866 H879 0.985 . S
N867 C869 1.356 . S
N867 H872 0.984 . S
N867 H873 0.985 . S
C868 C862 1.379 . S
C868 C865 1.363 . S
C868 N866 1.356 . S
C869 C863 1.363 . S
C869 C864 1.379 . S
C869 N867 1.356 . S
N870 C862 1.356 . S
N870 H876 0.984 . S
N870 H877 0.984 . S
N871 C864 1.356 . S
N871 H874 0.984 . S
N871 H875 0.985 . S
H872 N867 0.984 . S
H873 N867 0.985 . S
H874 N871 0.984 . S
H875 N871 0.985 . S
H876 N870 0.984 . S
H877 N870 0.984 . S
H878 N866 0.984 . S
H879 N866 0.985 . S
C449 C1 1.340 . S
C451 C305 1.375 . S
C467 C67 1.350 . S
C469 C345 1.382 . S
C487 C370 2.422 . S
C485 C97 2.469 . S
C503 C133 2.515 . S
C505 C410 2.446 . S
C523 C341 1.983 . S
C521 C25 1.883 . S
C541 C301 1.971 . S
C539 C37 1.859 . S
C559 C432 1.782 . S
C557 C103 1.807 . S
C577 C392 1.773 . S
C575 C109 1.813 . S
C593 C31 1.604 . S
C595 C434 1.643 . S
C613 C351 2.186 . S
C611 C73 2.237 . S
C629 C139 2.260 . S
C631 C311 2.214 . S
C647 C61 1.595 . S
C649 C394 1.638 . S
C667 C314 1.373 . S
C665 C175 1.262 . S
C683 C181 1.307 . S
C685 C354 1.365 . S
C701 C247 2.507 . S
C703 C391 2.444 . S
C719 C277 2.494 . S
C721 C431 2.434 . S
C737 C145 1.773 . S
C739 C352 1.971 . S
C757 C312 1.974 . S
C755 C211 1.861 . S
C775 C421 1.775 . S
C773 C217 1.790 . S
C793 C381 1.792 . S
C791 C283 1.811 . S
C809 C169 1.496 . S
C811 C425 1.634 . S
C829 C330 2.199 . S
C827 C241 2.261 . S
C847 C290 2.197 . S
C845 C253 2.258 . S
C863 C205 1.635 . S
C865 C385 1.643 . S
