# Generated by pormake.
# Topology nom, (4,4)-cn, num edge types: 1
# Building blocks:
#     Node 0, Type 0, BuildingBlock: MUDLON_clean_linker_0, # of connection points: 4
#     Node 1, Type 0, BuildingBlock: MUDLON_clean_linker_0, # of connection points: 4
#     Node 2, Type 0, BuildingBlock: MUDLON_clean_linker_0, # of connection points: 4
#     Node 3, Type 0, BuildingBlock: MUDLON_clean_linker_0, # of connection points: 4
#     Node 4, Type 0, BuildingBlock: MUDLON_clean_linker_0, # of connection points: 4
#     Node 5, Type 0, BuildingBlock: MUDLON_clean_linker_0, # of connection points: 4
#     Node 6, Type 1, BuildingBlock: UXUYUI_clean_sbu_0, # of connection points: 4
#     Node 7, Type 1, BuildingBlock: UXUYUI_clean_sbu_0, # of connection points: 4
#     Node 8, Type 1, BuildingBlock: UXUYUI_clean_sbu_0, # of connection points: 4
#     Node 9, Type 1, BuildingBlock: UXUYUI_clean_sbu_0, # of connection points: 4
#     Node 10, Type 1, BuildingBlock: UXUYUI_clean_sbu_0, # of connection points: 4
#     Node 11, Type 1, BuildingBlock: UXUYUI_clean_sbu_0, # of connection points: 4
#     Edge 12, Type (0, 1), BuildingBlock: XIVTED_clean_linker_0, # of connection points: 2
#     Edge 13, Type (0, 1), BuildingBlock: XIVTED_clean_linker_0, # of connection points: 2
#     Edge 14, Type (0, 1), BuildingBlock: XIVTED_clean_linker_0, # of connection points: 2
#     Edge 15, Type (0, 1), BuildingBlock: XIVTED_clean_linker_0, # of connection points: 2
#     Edge 16, Type (0, 1), BuildingBlock: XIVTED_clean_linker_0, # of connection points: 2
#     Edge 17, Type (0, 1), BuildingBlock: XIVTED_clean_linker_0, # of connection points: 2
#     Edge 18, Type (0, 1), BuildingBlock: XIVTED_clean_linker_0, # of connection points: 2
#     Edge 19, Type (0, 1), BuildingBlock: XIVTED_clean_linker_0, # of connection points: 2
#     Edge 20, Type (0, 1), BuildingBlock: XIVTED_clean_linker_0, # of connection points: 2
#     Edge 21, Type (0, 1), BuildingBlock: XIVTED_clean_linker_0, # of connection points: 2
#     Edge 22, Type (0, 1), BuildingBlock: XIVTED_clean_linker_0, # of connection points: 2
#     Edge 23, Type (0, 1), BuildingBlock: XIVTED_clean_linker_0, # of connection points: 2
#     Edge 24, Type (0, 1), BuildingBlock: XIVTED_clean_linker_0, # of connection points: 2
#     Edge 25, Type (0, 1), BuildingBlock: XIVTED_clean_linker_0, # of connection points: 2
#     Edge 26, Type (0, 1), BuildingBlock: XIVTED_clean_linker_0, # of connection points: 2
#     Edge 27, Type (0, 1), BuildingBlock: XIVTED_clean_linker_0, # of connection points: 2
#     Edge 28, Type (0, 1), BuildingBlock: XIVTED_clean_linker_0, # of connection points: 2
#     Edge 29, Type (0, 1), BuildingBlock: XIVTED_clean_linker_0, # of connection points: 2
#     Edge 30, Type (0, 1), BuildingBlock: XIVTED_clean_linker_0, # of connection points: 2
#     Edge 31, Type (0, 1), BuildingBlock: XIVTED_clean_linker_0, # of connection points: 2
#     Edge 32, Type (0, 1), BuildingBlock: XIVTED_clean_linker_0, # of connection points: 2
#     Edge 33, Type (0, 1), BuildingBlock: XIVTED_clean_linker_0, # of connection points: 2
#     Edge 34, Type (0, 1), BuildingBlock: XIVTED_clean_linker_0, # of connection points: 2
#     Edge 35, Type (0, 1), BuildingBlock: XIVTED_clean_linker_0, # of connection points: 2
# Relax obj value: 0.038
# Max RMSD: 0.149
# Mean RMSD: 0.119
data_MOF--net-nom--node1-UXUYUI_clean_sbu_0--node2-MUDLON_clean_linker_0--edge1-XIVTED_clean_linker_0
_symmetry_space_group_name_H-M    P1
_symmetry_Int_Tables_number       1
_symmetry_cell_setting            triclinic
loop_
_symmetry_equiv_pos_as_xyz
'x, y, z'
_cell_length_a     70.823671
_cell_length_b     71.498911
_cell_length_c     71.48249
_cell_angle_alpha  90.328674
_cell_angle_beta   89.826143
_cell_angle_gamma 120.32407
loop_
_atom_site_label
_atom_site_type_symbol
_atom_site_fract_x
_atom_site_fract_y
_atom_site_fract_z
_atom_type_partial_charge
H0 H 0.1282 0.53188 0.31946 0.0
N1 N 0.09563 0.53356 0.33607 0.0
H2 H 0.15626 0.55897 0.299 0.0
H3 H 0.09579 0.56915 0.32168 0.0
H4 H 0.12355 0.5962 0.30098 0.0
H5 H 0.10581 0.57092 0.35499 0.0
H6 H 0.12342 0.58184 0.38547 0.0
H7 H 0.10216 0.50916 0.36001 0.0
H8 H 0.11886 0.51949 0.39106 0.0
H9 H 0.07154 0.4951 0.3203 0.0
H10 H 0.06757 0.5483 0.34453 0.0
H11 H 0.03214 0.47562 0.31466 0.0
H12 H 0.02819 0.52931 0.33839 0.0
H13 H 0.90789 0.4114 0.29733 0.0
H14 H 0.8909 0.40509 0.26641 0.0
H15 H 0.92453 0.47423 0.25712 0.0
H16 H 0.94108 0.48032 0.28813 0.0
H17 H 0.92852 0.48467 0.31775 0.0
H18 H 0.89896 0.48582 0.33455 0.0
H19 H 0.87562 0.42087 0.35461 0.0
H20 H 0.90516 0.41983 0.33764 0.0
H21 H 0.96601 0.454 0.29091 0.0
H22 H 0.00512 0.47612 0.2955 0.0
H23 H 0.99434 0.49801 0.34874 0.0
N24 N 0.93359 0.44925 0.3141 0.0
H25 H 0.95519 0.47656 0.34399 0.0
C26 C 0.10996 0.54843 0.3221 0.0
C27 C 0.12692 0.5457 0.31517 0.0
C28 C 0.14286 0.56117 0.30342 0.0
C29 C 0.14219 0.57981 0.29837 0.0
C30 C 0.12468 0.58215 0.30478 0.0
C31 C 0.10869 0.5666 0.31654 0.0
C32 C 0.10295 0.53926 0.35512 0.0
C33 C 0.1084 0.55952 0.36281 0.0
C34 C 0.11837 0.5657 0.38038 0.0
C35 C 0.12287 0.55167 0.39069 0.0
C36 C 0.11617 0.53093 0.38335 0.0
C37 C 0.10641 0.52488 0.36572 0.0
C38 C 0.07247 0.52308 0.33272 0.0
C39 C 0.06212 0.50263 0.32421 0.0
C40 C 0.03963 0.49163 0.3209 0.0
C41 C 0.02696 0.50096 0.32593 0.0
C42 C 0.03741 0.52157 0.33447 0.0
C43 C 0.05997 0.53254 0.33787 0.0
C44 C 0.92567 0.44622 0.29505 0.0
C45 C 0.91175 0.42513 0.28848 0.0
C46 C 0.90215 0.42159 0.2708 0.0
C47 C 0.90629 0.43917 0.25931 0.0
C48 C 0.92072 0.46034 0.26574 0.0
C49 C 0.93027 0.46386 0.28344 0.0
C50 C 0.9189 0.45201 0.32636 0.0
C51 C 0.9172 0.47079 0.32593 0.0
C52 C 0.90029 0.47142 0.33552 0.0
C53 C 0.88486 0.45337 0.34577 0.0
C54 C 0.88735 0.43511 0.34699 0.0
C55 C 0.90417 0.43445 0.3373 0.0
C56 C 0.95699 0.46421 0.31646 0.0
C57 C 0.97184 0.46406 0.30334 0.0
C58 C 0.99438 0.47651 0.30612 0.0
C59 C 0.00294 0.48898 0.32245 0.0
C60 C 0.98833 0.48903 0.33577 0.0
C61 C 0.96571 0.47666 0.33294 0.0
H62 H 0.51381 0.9094 0.48698 0.0
N63 N 0.50611 0.93881 0.47229 0.0
H64 H 0.48928 0.87861 0.50647 0.0
H65 H 0.46834 0.93262 0.48862 0.0
H66 H 0.44295 0.90117 0.50709 0.0
H67 H 0.46602 0.92434 0.45595 0.0
H68 H 0.45495 0.90854 0.42506 0.0
H69 H 0.53182 0.93835 0.44531 0.0
H70 H 0.52125 0.92382 0.41356 0.0
H71 H 0.5421 0.96429 0.49144 0.0
H72 H 0.48798 0.96377 0.46359 0.0
H73 H 0.55812 0.00288 0.4982 0.0
H74 H 0.50439 0.00261 0.46935 0.0
H75 H 0.61479 0.12626 0.51126 0.0
H76 H 0.6226 0.14251 0.54248 0.0
H77 H 0.55469 0.10103 0.55762 0.0
H78 H 0.54698 0.08559 0.52623 0.0
H79 H 0.5425 0.10642 0.49996 0.0
H80 H 0.54021 0.13526 0.48395 0.0
H81 H 0.59873 0.15084 0.45281 0.0
H82 H 0.6005 0.12154 0.46861 0.0
H83 H 0.59447 0.07494 0.48823 0.0
H84 H 0.57655 0.03603 0.48229 0.0
H85 H 0.51359 0.0305 0.49186 0.0
N86 N 0.57611 0.09807 0.49704 0.0
H87 H 0.5317 0.0696 0.49679 0.0
C88 C 0.49278 0.92304 0.48614 0.0
C89 C 0.49857 0.9079 0.49174 0.0
C90 C 0.48437 0.89018 0.50267 0.0
C91 C 0.46381 0.88702 0.50799 0.0
C92 C 0.45861 0.90302 0.50332 0.0
C93 C 0.47306 0.92097 0.49261 0.0
C94 C 0.49976 0.93217 0.45314 0.0
C95 C 0.47824 0.92434 0.44687 0.0
C96 C 0.47195 0.91549 0.42896 0.0
C97 C 0.48711 0.91463 0.41671 0.0
C98 C 0.50895 0.92365 0.4227 0.0
C99 C 0.51513 0.93219 0.44076 0.0
C100 C 0.5141 0.96123 0.47682 0.0
C101 C 0.53373 0.97259 0.48675 0.0
C102 C 0.54295 0.99469 0.49042 0.0
C103 C 0.5328 0.00605 0.48402 0.0
C104 C 0.51265 0.99444 0.47456 0.0
C105 C 0.5033 0.97219 0.47111 0.0
C106 C 0.58042 0.10469 0.51637 0.0
C107 C 0.60172 0.12045 0.52147 0.0
C108 C 0.60613 0.12965 0.53936 0.0
C109 C 0.58925 0.12317 0.5526 0.0
C110 C 0.56802 0.10668 0.54769 0.0
C111 C 0.56361 0.09761 0.52973 0.0
C112 C 0.57172 0.11181 0.4854 0.0
C113 C 0.55442 0.11555 0.48926 0.0
C114 C 0.55328 0.13225 0.48024 0.0
C115 C 0.56944 0.14557 0.46725 0.0
C116 C 0.58589 0.14082 0.46258 0.0
C117 C 0.58697 0.12411 0.47159 0.0
C118 C 0.56455 0.07517 0.49309 0.0
C119 C 0.5768 0.06528 0.48892 0.0
C120 C 0.56649 0.043 0.48573 0.0
C121 C 0.54357 0.02996 0.48685 0.0
C122 C 0.53124 0.03999 0.49075 0.0
C123 C 0.54161 0.06241 0.49374 0.0
H124 H 0.50238 0.61871 0.65768 0.0
N125 N 0.50056 0.58365 0.67174 0.0
H126 H 0.47594 0.62041 0.63697 0.0
H127 H 0.46674 0.54904 0.65362 0.0
H128 H 0.44038 0.55053 0.63259 0.0
H129 H 0.46038 0.5559 0.68701 0.0
H130 H 0.44696 0.56006 0.71732 0.0
H131 H 0.52361 0.61157 0.69879 0.0
H132 H 0.51031 0.61557 0.72947 0.0
H133 H 0.53809 0.59645 0.65424 0.0
H134 H 0.48504 0.54118 0.68145 0.0
H135 H 0.55657 0.57586 0.64873 0.0
H136 H 0.50374 0.52071 0.67672 0.0
H137 H 0.61939 0.51449 0.63956 0.0
H138 H 0.63013 0.50722 0.60899 0.0
H139 H 0.563 0.47719 0.59047 0.0
H140 H 0.5525 0.48468 0.6209 0.0
H141 H 0.54668 0.45944 0.64691 0.0
H142 H 0.5441 0.42818 0.6628 0.0
H143 H 0.59987 0.47096 0.69693 0.0
H144 H 0.6019 0.50223 0.68123 0.0
H145 H 0.59552 0.54285 0.66075 0.0
H146 H 0.5758 0.56231 0.66579 0.0
H147 H 0.51482 0.50356 0.65376 0.0
N148 N 0.57926 0.50168 0.65156 0.0
H149 H 0.53464 0.48415 0.64951 0.0
C150 C 0.4866 0.58386 0.6572 0.0
C151 C 0.48913 0.60382 0.6519 0.0
C152 C 0.47402 0.60473 0.64001 0.0
C153 C 0.45595 0.58558 0.63316 0.0
C154 C 0.45395 0.56555 0.63781 0.0
C155 C 0.46913 0.56468 0.64972 0.0
C156 C 0.49302 0.58369 0.69051 0.0
C157 C 0.4715 0.56886 0.69618 0.0
C158 C 0.4638 0.57126 0.71352 0.0
C159 C 0.47754 0.58826 0.72563 0.0
C160 C 0.4994 0.60228 0.72042 0.0
C161 C 0.507 0.60005 0.70295 0.0
C162 C 0.51039 0.57054 0.66839 0.0
C163 C 0.53051 0.57988 0.65908 0.0
C164 C 0.54109 0.56812 0.6561 0.0
C165 C 0.5318 0.54667 0.66249 0.0
C166 C 0.51133 0.53712 0.67149 0.0
C167 C 0.50066 0.5489 0.67436 0.0
C168 C 0.58525 0.50023 0.63255 0.0
C169 C 0.60713 0.50679 0.62873 0.0
C170 C 0.61317 0.50245 0.61135 0.0
C171 C 0.59736 0.49145 0.59739 0.0
C172 C 0.57558 0.48584 0.60089 0.0
C173 C 0.56954 0.4901 0.61835 0.0
C174 C 0.57451 0.48327 0.66297 0.0
C175 C 0.5579 0.46219 0.65821 0.0
C176 C 0.55661 0.44426 0.66718 0.0
C177 C 0.57195 0.44703 0.68098 0.0
C178 C 0.58766 0.46819 0.6865 0.0
C179 C 0.58888 0.4861 0.67755 0.0
C180 C 0.56669 0.51216 0.65469 0.0
C181 C 0.57789 0.53422 0.65929 0.0
C182 C 0.56657 0.54532 0.662 0.0
C183 C 0.54369 0.53457 0.66001 0.0
C184 C 0.53241 0.51232 0.65557 0.0
C185 C 0.54378 0.50119 0.65299 0.0
H186 H 0.12956 0.61697 0.82661 0.0
N187 N 0.09572 0.58163 0.81254 0.0
H188 H 0.1581 0.61914 0.84717 0.0
H189 H 0.09493 0.54732 0.83044 0.0
H190 H 0.12307 0.54929 0.85132 0.0
H191 H 0.10677 0.55343 0.79669 0.0
H192 H 0.12467 0.55783 0.76645 0.0
H193 H 0.10137 0.60983 0.78597 0.0
H194 H 0.11893 0.61406 0.7554 0.0
H195 H 0.07123 0.59638 0.8268 0.0
H196 H 0.06803 0.53826 0.80582 0.0
H197 H 0.03185 0.57636 0.83254 0.0
H198 H 0.02872 0.51779 0.81215 0.0
H199 H 0.90664 0.51422 0.85065 0.0
H200 H 0.8891 0.50334 0.8813 0.0
H201 H 0.92518 0.47063 0.89239 0.0
H202 H 0.94212 0.4811 0.86151 0.0
H203 H 0.9275 0.46222 0.83245 0.0
H204 H 0.89766 0.43142 0.81595 0.0
H205 H 0.87665 0.47383 0.79329 0.0
H206 H 0.90643 0.50449 0.81 0.0
H207 H 0.96578 0.53272 0.85692 0.0
H208 H 0.00497 0.55003 0.85243 0.0
H209 H 0.99462 0.51367 0.80129 0.0
N210 N 0.93364 0.50319 0.83475 0.0
H211 H 0.95548 0.49565 0.80605 0.0
C212 C 0.11013 0.5821 0.82698 0.0
C213 C 0.12786 0.60219 0.8323 0.0
C214 C 0.14411 0.60336 0.8441 0.0
C215 C 0.14295 0.58436 0.85084 0.0
C216 C 0.12462 0.56422 0.84617 0.0
C217 C 0.10837 0.56307 0.83433 0.0
C218 C 0.10298 0.58155 0.79369 0.0
C219 C 0.10907 0.56655 0.78773 0.0
C220 C 0.11936 0.56909 0.77045 0.0
C221 C 0.12335 0.5864 0.75869 0.0
C222 C 0.11597 0.60053 0.76416 0.0
C223 C 0.10598 0.59816 0.78157 0.0
C224 C 0.07256 0.56888 0.81599 0.0
C225 C 0.06199 0.57921 0.82363 0.0
C226 C 0.03951 0.56767 0.82702 0.0
C227 C 0.02706 0.54536 0.82296 0.0
C228 C 0.03774 0.53497 0.8153 0.0
C229 C 0.06028 0.54662 0.81179 0.0
C230 C 0.92566 0.49855 0.85379 0.0
C231 C 0.91093 0.50495 0.85984 0.0
C232 C 0.90101 0.49877 0.87739 0.0
C233 C 0.90567 0.48603 0.88933 0.0
C234 C 0.92094 0.48012 0.88344 0.0
C235 C 0.93076 0.48622 0.86583 0.0
C236 C 0.91902 0.48565 0.82255 0.0
C237 C 0.91666 0.46492 0.82373 0.0
C238 C 0.89959 0.44735 0.81432 0.0
C239 C 0.8847 0.45018 0.80346 0.0
C240 C 0.88795 0.47115 0.80141 0.0
C241 C 0.90491 0.48867 0.81094 0.0
C242 C 0.95708 0.51181 0.83249 0.0
C243 C 0.97178 0.52783 0.84501 0.0
C244 C 0.99434 0.53808 0.84226 0.0
C245 C 0.00304 0.53323 0.82651 0.0
C246 C 0.98854 0.51745 0.81381 0.0
C247 C 0.9659 0.50702 0.81664 0.0
H248 H 0.52583 0.13368 0.98639 0.0
N249 N 0.52436 0.09741 0.97596 0.0
H250 H 0.5558 0.16489 0.00246 0.0
H251 H 0.5601 0.09846 0.99224 0.0
H252 H 0.58978 0.12944 0.00883 0.0
H253 H 0.56147 0.10871 0.95579 0.0
H254 H 0.56885 0.12219 0.92383 0.0
H255 H 0.49623 0.09857 0.95212 0.0
H256 H 0.50325 0.11159 0.91978 0.0
H257 H 0.48999 0.07331 0.9974 0.0
H258 H 0.54032 0.071 0.9652 0.0
H259 H 0.4735 0.03473 0.00439 0.0
H260 H 0.52352 0.03235 0.9714 0.0
H261 H 0.41491 0.9141 0.01775 0.0
H262 H 0.40835 0.89771 0.04883 0.0
H263 H 0.47804 0.9312 0.05876 0.0
H264 H 0.4844 0.94741 0.02778 0.0
H265 H 0.48717 0.93042 -0.00013 0.0
H266 H 0.48781 0.90142 0.98245 0.0
H267 H 0.42562 0.88421 0.95739 0.0
H268 H 0.42542 0.91379 0.97461 0.0
H269 H 0.43489 0.96202 0.99417 0.0
H270 H 0.45304 0.00098 0.9885 0.0
H271 H 0.51593 0.00552 0.99469 0.0
N272 N 0.45315 0.93842 0.00108 0.0
H273 H 0.49763 0.96652 -0.00041 0.0
C274 C 0.54055 0.11369 0.9882 0.0
C275 C 0.53953 0.13249 0.99159 0.0
C276 C 0.55664 0.15028 0.00065 0.0
C277 C 0.57501 0.14947 0.00678 0.0
C278 C 0.57566 0.13031 0.0043 0.0
C279 C 0.55866 0.11259 0.99487 0.0
C280 C 0.52825 0.10273 0.95636 0.0
C281 C 0.54855 0.10896 0.94796 0.0
C282 C 0.55272 0.11659 0.9296 0.0
C283 C 0.53668 0.11811 0.91926 0.0
C284 C 0.51607 0.11095 0.92745 0.0
C285 C 0.51195 0.10335 0.94584 0.0
C286 C 0.51617 0.07502 0.98066 0.0
C287 C 0.49746 0.06445 0.99186 0.0
C288 C 0.48798 0.04237 0.99568 0.0
C289 C 0.49699 0.03031 0.98824 0.0
C290 C 0.5162 0.04111 0.97745 0.0
C291 C 0.52576 0.06327 0.97375 0.0
C292 C 0.45004 0.93187 0.02038 0.0
C293 C 0.4287 0.91822 0.02683 0.0
C294 C 0.42501 0.90893 0.04457 0.0
C295 C 0.4427 0.91305 0.05618 0.0
C296 C 0.4641 0.9275 0.05002 0.0
C297 C 0.46775 0.93688 0.0323 0.0
C298 C 0.45619 0.92435 0.9885 0.0
C299 C 0.474 0.92094 0.99022 0.0
C300 C 0.47422 0.90411 0.98038 0.0
C301 C 0.45663 0.89029 0.9687 0.0
C302 C 0.43953 0.89463 0.96612 0.0
C303 C 0.43935 0.91149 0.97596 0.0
C304 C 0.46477 0.96131 0.99734 0.0
C305 C 0.4526 0.97147 0.9942 0.0
C306 C 0.46302 0.99377 0.99115 0.0
C307 C 0.48599 0.00649 0.99131 0.0
C308 C 0.49824 0.99622 0.99432 0.0
C309 C 0.48774 0.97384 0.99726 0.0
H310 H 0.52659 0.41622 0.15347 0.0
N311 N 0.52669 0.44915 0.17066 0.0
H312 H 0.55595 0.41695 0.13485 0.0
H313 H 0.56383 0.48573 0.15899 0.0
H314 H 0.59335 0.4867 0.14028 0.0
H315 H 0.56295 0.47543 0.19176 0.0
H316 H 0.57062 0.46815 0.22314 0.0
H317 H 0.49982 0.41706 0.19304 0.0
H318 H 0.50703 0.40994 0.22495 0.0
H319 H 0.49237 0.43806 0.149 0.0
H320 H 0.53942 0.49005 0.18386 0.0
H321 H 0.47356 0.45825 0.14341 0.0
H322 H 0.52018 0.50992 0.17916 0.0
H323 H 0.40649 0.51725 0.13675 0.0
H324 H 0.39925 0.52688 0.1059 0.0
H325 H 0.46791 0.55627 0.09224 0.0
H326 H 0.47501 0.5472 0.1232 0.0
H327 H 0.47338 0.57164 0.14878 0.0
H328 H 0.47204 0.59952 0.16736 0.0
H329 H 0.42276 0.55001 0.20285 0.0
H330 H 0.42326 0.52215 0.18324 0.0
H331 H 0.42981 0.48596 0.15556 0.0
H332 H 0.45064 0.46761 0.15998 0.0
H333 H 0.51084 0.52942 0.15767 0.0
N334 N 0.44498 0.52789 0.15147 0.0
H335 H 0.48966 0.54762 0.1541 0.0
C336 C 0.54303 0.4508 0.15764 0.0
C337 C 0.54095 0.43167 0.15029 0.0
C338 C 0.55772 0.43216 0.13961 0.0
C339 C 0.57703 0.45189 0.13613 0.0
C340 C 0.57876 0.47123 0.1429 0.0
C341 C 0.56186 0.47071 0.15351 0.0
C342 C 0.5308 0.44661 0.18996 0.0
C343 C 0.55056 0.46119 0.19889 0.0
C344 C 0.55487 0.45706 0.21698 0.0
C345 C 0.5395 0.43837 0.22659 0.0
C346 C 0.5194 0.42428 0.21785 0.0
C347 C 0.51515 0.42839 0.19971 0.0
C348 C 0.51703 0.46231 0.16701 0.0
C349 C 0.49858 0.45384 0.15547 0.0
C350 C 0.48777 0.46534 0.15245 0.0
C351 C 0.4951 0.48559 0.1611 0.0
C352 C 0.5141 0.49443 0.17221 0.0
C353 C 0.52506 0.48296 0.17505 0.0
C354 C 0.44117 0.53136 0.13232 0.0
C355 C 0.41986 0.52545 0.12694 0.0
C356 C 0.41579 0.53092 0.10928 0.0
C357 C 0.43303 0.54246 0.0966 0.0
C358 C 0.4543 0.54768 0.10177 0.0
C359 C 0.45837 0.54227 0.11947 0.0
C360 C 0.44797 0.54472 0.16439 0.0
C361 C 0.46246 0.56677 0.16066 0.0
C362 C 0.46179 0.58278 0.17148 0.0
C363 C 0.44694 0.5771 0.18646 0.0
C364 C 0.43391 0.55504 0.19109 0.0
C365 C 0.43433 0.53906 0.18006 0.0
C366 C 0.45811 0.51802 0.15441 0.0
C367 C 0.4475 0.49549 0.15609 0.0
C368 C 0.45948 0.48506 0.15843 0.0
C369 C 0.48249 0.49698 0.15895 0.0
C370 C 0.49316 0.51971 0.15747 0.0
C371 C 0.48108 0.53016 0.15529 0.0
Li372 Li 0.63906 0.40138 0.42698 0.0
Li373 Li 0.63165 0.36679 0.4135 0.0
Li374 Li 0.66551 0.4013 0.40554 0.0
Li375 Li 0.63042 0.39396 0.39338 0.0
C376 C 0.66243 0.38785 0.44803 0.0
N377 N 0.67493 0.3906 0.48498 0.0
C378 C 0.64977 0.37097 0.46037 0.0
C379 C 0.68168 0.40591 0.45438 0.0
C380 C 0.6563 0.37273 0.47903 0.0
C381 C 0.68766 0.40706 0.47314 0.0
C382 C 0.5909 0.36361 0.4091 0.0
C383 C 0.56726 0.33459 0.38818 0.0
N384 N 0.54956 0.33399 0.39628 0.0
C385 C 0.5725 0.36273 0.41721 0.0
C386 C 0.5883 0.34944 0.39447 0.0
C387 C 0.55172 0.34763 0.41053 0.0
C388 C 0.63993 0.43543 0.44834 0.0
N389 N 0.63455 0.41429 0.44868 0.0
C390 C 0.62152 0.41072 0.48009 0.0
C391 C 0.6251 0.40179 0.46399 0.0
C392 C 0.62728 0.43261 0.48026 0.0
C393 C 0.63645 0.44498 0.46407 0.0
H394 H 0.64671 0.44487 0.43581 0.0
H395 H 0.62008 0.3848 0.46363 0.0
C396 C 0.63044 0.32691 0.41127 0.0
N397 N 0.61995 0.33684 0.41845 0.0
C398 C 0.62277 0.30508 0.41503 0.0
C399 C 0.5936 0.30412 0.43343 0.0
C400 C 0.60187 0.32597 0.42936 0.0
C401 C 0.60415 0.29338 0.42632 0.0
H402 H 0.64497 0.33607 0.40287 0.0
H403 H 0.59399 0.33435 0.43505 0.0
C404 C 0.66945 0.44186 0.40367 0.0
N405 N 0.70285 0.48429 0.39987 0.0
C406 C 0.67077 0.45355 0.38763 0.0
C407 C 0.68497 0.45182 0.41786 0.0
C408 C 0.68782 0.47497 0.38595 0.0
C409 C 0.70177 0.47326 0.41566 0.0
C410 C 0.65472 0.38028 0.37107 0.0
C411 C 0.66212 0.39992 0.36178 0.0
C412 C 0.65716 0.36394 0.36266 0.0
C413 C 0.67191 0.40291 0.34422 0.0
C414 C 0.66703 0.36754 0.34506 0.0
N415 N 0.67414 0.3868 0.33629 0.0
C416 C 0.70569 0.40283 0.4081 0.0
C417 C 0.70692 0.42956 0.38792 0.0
C418 C 0.72742 0.4093 0.40392 0.0
N419 N 0.69588 0.41292 0.40006 0.0
C420 C 0.72871 0.4367 0.38348 0.0
C421 C 0.73924 0.42638 0.39132 0.0
H422 H 0.69644 0.3894 0.41748 0.0
H423 H 0.69878 0.4371 0.38134 0.0
C424 C 0.61109 0.41445 0.37482 0.0
N425 N 0.61549 0.39808 0.37322 0.0
C426 C 0.60075 0.41873 0.36026 0.0
C427 C 0.59928 0.38895 0.34283 0.0
C428 C 0.60956 0.38519 0.35777 0.0
C429 C 0.59488 0.40603 0.34389 0.0
H430 H 0.6158 0.42427 0.38739 0.0
H431 H 0.61306 0.37213 0.35693 0.0
O432 O 0.65629 0.38641 0.42972 0.0
O433 O 0.61133 0.37841 0.41546 0.0
O434 O 0.65296 0.42081 0.40548 0.0
O435 O 0.64529 0.37706 0.38837 0.0
H436 H 0.63494 0.35677 0.45564 0.0
H437 H 0.692 0.41883 0.4449 0.0
H438 H 0.64654 0.35989 0.48878 0.0
H439 H 0.70247 0.421 0.47826 0.0
H440 H 0.565 0.32353 0.37687 0.0
H441 H 0.57426 0.37361 0.42854 0.0
H442 H 0.60234 0.34987 0.38803 0.0
H443 H 0.53732 0.34676 0.41667 0.0
H444 H 0.61395 0.40049 0.49214 0.0
H445 H 0.64108 0.46191 0.46361 0.0
H446 H 0.63168 0.29762 0.40952 0.0
H447 H 0.5791 0.29573 0.44204 0.0
H448 H 0.65885 0.44613 0.37653 0.0
H449 H 0.68399 0.4431 0.43046 0.0
H450 H 0.68912 0.48418 0.37357 0.0
H451 H 0.71393 0.48115 0.42651 0.0
H452 H 0.66036 0.41272 0.36808 0.0
H453 H 0.65149 0.34862 0.36964 0.0
H454 H 0.67773 0.41806 0.3369 0.0
H455 H 0.66904 0.35504 0.33839 0.0
H456 H 0.73461 0.40054 0.41006 0.0
H457 H 0.73715 0.45009 0.37388 0.0
H458 H 0.59735 0.43182 0.36185 0.0
H459 H 0.59531 0.37888 0.33044 0.0
Li460 Li 0.26449 0.64465 0.59186 0.0
Li461 Li 0.29071 0.63711 0.57614 0.0
Li462 Li 0.29255 0.67286 0.57126 0.0
Li463 Li 0.2636 0.6391 0.55727 0.0
C464 C 0.30447 0.66961 0.61174 0.0
N465 N 0.32056 0.68848 0.64631 0.0
C466 C 0.30904 0.65851 0.62536 0.0
C467 C 0.30859 0.69055 0.61559 0.0
C468 C 0.31701 0.66824 0.64278 0.0
C469 C 0.31659 0.69974 0.63317 0.0
C470 C 0.25591 0.59815 0.58035 0.0
C471 C 0.25993 0.5683 0.56959 0.0
N472 N 0.25189 0.55811 0.58619 0.0
C473 C 0.24749 0.58728 0.59723 0.0
C474 C 0.262 0.5885 0.56635 0.0
C475 C 0.24565 0.56709 0.59994 0.0
C476 C 0.22887 0.64095 0.6132 0.0
N477 N 0.24682 0.63871 0.61375 0.0
C478 C 0.2381 0.62502 0.64495 0.0
C479 C 0.25156 0.63085 0.62919 0.0
C480 C 0.21956 0.62741 0.64493 0.0
C481 C 0.21516 0.63569 0.62875 0.0
H482 H 0.22499 0.64657 0.60058 0.0
H483 H 0.26536 0.62834 0.62903 0.0
C484 C 0.32446 0.62885 0.56627 0.0
N485 N 0.30879 0.62464 0.57928 0.0
C486 C 0.33924 0.62158 0.56888 0.0
C487 C 0.32122 0.60545 0.59808 0.0
C488 C 0.30679 0.613 0.59488 0.0
C489 C 0.33797 0.60999 0.58513 0.0
H490 H 0.32582 0.63829 0.55405 0.0
H491 H 0.29427 0.60998 0.60507 0.0
C492 C 0.25559 0.67749 0.57481 0.0
N493 N 0.24616 0.71003 0.5815 0.0
C494 C 0.24536 0.6831 0.56105 0.0
C495 C 0.26075 0.68826 0.59204 0.0
C496 C 0.2408 0.69964 0.56468 0.0
C497 C 0.25592 0.7047 0.59515 0.0
C498 C 0.29665 0.65398 0.53361 0.0
C499 C 0.29974 0.67218 0.52382 0.0
C500 C 0.29428 0.63598 0.52374 0.0
C501 C 0.30014 0.67197 0.50428 0.0
C502 C 0.29473 0.63638 0.50421 0.0
N503 N 0.29761 0.65421 0.49496 0.0
C504 C 0.33415 0.70871 0.57102 0.0
C505 C 0.30773 0.71721 0.56034 0.0
C506 C 0.35103 0.72966 0.56711 0.0
N507 N 0.31303 0.70284 0.56743 0.0
C508 C 0.32412 0.73841 0.55629 0.0
C509 C 0.34615 0.74474 0.55937 0.0
H510 H 0.33789 0.69689 0.57653 0.0
H511 H 0.29092 0.71209 0.55715 0.0
C512 C 0.23246 0.60569 0.5338 0.0
N513 N 0.24486 0.62752 0.53603 0.0
C514 C 0.21862 0.59692 0.51837 0.0
C515 C 0.23022 0.63325 0.50797 0.0
C516 C 0.24396 0.64132 0.52354 0.0
C517 C 0.21735 0.61076 0.50523 0.0
H518 H 0.23316 0.59505 0.54406 0.0
H519 H 0.254 0.65861 0.52563 0.0
O520 O 0.29691 0.6604 0.59449 0.0
O521 O 0.25809 0.61807 0.57753 0.0
O522 O 0.26036 0.66146 0.57139 0.0
O523 O 0.29583 0.65374 0.55273 0.0
H524 H 0.30632 0.64247 0.62259 0.0
H525 H 0.30584 0.69973 0.6051 0.0
H526 H 0.3204 0.65971 0.65349 0.0
H527 H 0.31974 0.71588 0.63634 0.0
H528 H 0.26475 0.56074 0.55892 0.0
H529 H 0.24239 0.59431 0.60812 0.0
H530 H 0.26845 0.59662 0.55319 0.0
H531 H 0.23925 0.55855 0.61296 0.0
H532 H 0.24191 0.61816 0.65679 0.0
H533 H 0.20126 0.63807 0.62803 0.0
H534 H 0.35169 0.62524 0.55841 0.0
H535 H 0.31976 0.59688 0.61093 0.0
H536 H 0.24102 0.67482 0.54769 0.0
H537 H 0.26807 0.68372 0.60302 0.0
H538 H 0.23299 0.70421 0.55412 0.0
H539 H 0.25985 0.71315 0.60844 0.0
H540 H 0.30155 0.68623 0.5312 0.0
H541 H 0.29207 0.62183 0.53108 0.0
H542 H 0.30237 0.68589 0.49653 0.0
H543 H 0.2928 0.62252 0.49639 0.0
H544 H 0.36777 0.73392 0.56987 0.0
H545 H 0.31967 0.74943 0.55008 0.0
H546 H 0.20875 0.57948 0.51691 0.0
H547 H 0.22989 0.64449 0.49806 0.0
Li548 Li 0.66425 0.28444 0.74354 0.0
Li549 Li 0.62888 0.25672 0.75503 0.0
Li550 Li 0.63872 0.25848 0.72177 0.0
Li551 Li 0.63094 0.28548 0.73454 0.0
C552 C 0.66853 0.24878 0.74757 0.0
N553 N 0.70256 0.24179 0.7559 0.0
C554 C 0.66823 0.23835 0.76415 0.0
C555 C 0.68605 0.25548 0.73516 0.0
C556 C 0.68561 0.23501 0.76812 0.0
C557 C 0.70312 0.25185 0.73964 0.0
C558 C 0.65231 0.29515 0.77751 0.0
C559 C 0.66397 0.32115 0.80277 0.0
N560 N 0.67019 0.30899 0.8127 0.0
C561 C 0.65877 0.2829 0.78799 0.0
C562 C 0.65488 0.31442 0.78496 0.0
C563 C 0.6678 0.29017 0.80574 0.0
C564 C 0.70521 0.32228 0.74053 0.0
N565 N 0.69446 0.30316 0.74984 0.0
C566 C 0.72627 0.31277 0.76823 0.0
C567 C 0.70452 0.29826 0.76353 0.0
C568 C 0.73776 0.33282 0.75904 0.0
C569 C 0.72692 0.33741 0.74493 0.0
H570 H 0.69676 0.32597 0.7299 0.0
H571 H 0.69568 0.28319 0.77103 0.0
C572 C 0.60833 0.21651 0.77277 0.0
N573 N 0.61297 0.23732 0.77471 0.0
C574 C 0.59742 0.20153 0.78697 0.0
C575 C 0.59569 0.22954 0.80467 0.0
C576 C 0.6066 0.24397 0.79009 0.0
C577 C 0.59117 0.20804 0.80331 0.0
H578 H 0.61337 0.21165 0.76024 0.0
H579 H 0.61024 0.26056 0.79118 0.0
C580 C 0.66086 0.29272 0.70024 0.0
N581 N 0.66996 0.29618 0.6624 0.0
C582 C 0.64686 0.29445 0.68755 0.0
C583 C 0.67967 0.29308 0.69373 0.0
C584 C 0.6517 0.2961 0.66846 0.0
C585 C 0.68394 0.29475 0.67453 0.0
C586 C 0.59 0.24798 0.73818 0.0
C587 C 0.57191 0.23074 0.72946 0.0
C588 C 0.58684 0.25926 0.75275 0.0
C589 C 0.55089 0.22505 0.73545 0.0
C590 C 0.56557 0.25307 0.75834 0.0
N591 N 0.54818 0.23624 0.74964 0.0
C592 C 0.6441 0.22918 0.69815 0.0
C593 C 0.61975 0.24025 0.68714 0.0
C594 C 0.63975 0.21577 0.68254 0.0
N595 N 0.63418 0.24114 0.70009 0.0
C596 C 0.61503 0.22719 0.67126 0.0
C597 C 0.62498 0.21459 0.66884 0.0
H598 H 0.65502 0.22967 0.70886 0.0
H599 H 0.61177 0.24961 0.68924 0.0
C600 C 0.63026 0.32443 0.73593 0.0
N601 N 0.61948 0.30384 0.72913 0.0
C602 C 0.62286 0.33873 0.73186 0.0
C603 C 0.59339 0.31035 0.71383 0.0
C604 C 0.60139 0.29662 0.71823 0.0
C605 C 0.60422 0.33179 0.72059 0.0
H606 H 0.64485 0.32984 0.74425 0.0
H607 H 0.5933 0.28026 0.71276 0.0
O608 O 0.65169 0.25227 0.74349 0.0
O609 O 0.64346 0.28836 0.76008 0.0
O610 O 0.6562 0.29071 0.71894 0.0
O611 O 0.61066 0.25365 0.73246 0.0
H612 H 0.6548 0.23299 0.77391 0.0
H613 H 0.68651 0.2635 0.72227 0.0
H614 H 0.68563 0.22705 0.78094 0.0
H615 H 0.71682 0.25705 0.7302 0.0
H616 H 0.66605 0.33603 0.8087 0.0
H617 H 0.65684 0.26794 0.78248 0.0
H618 H 0.64987 0.32405 0.77709 0.0
H619 H 0.6729 0.28085 0.81398 0.0
H620 H 0.73392 0.30829 0.77902 0.0
H621 H 0.73487 0.35277 0.73768 0.0
H622 H 0.59395 0.18504 0.78517 0.0
H623 H 0.59136 0.23535 0.81705 0.0
H624 H 0.63228 0.29427 0.69237 0.0
H625 H 0.69088 0.29216 0.70339 0.0
H626 H 0.64091 0.29726 0.65846 0.0
H627 H 0.69838 0.29495 0.66928 0.0
H628 H 0.57411 0.22187 0.71816 0.0
H629 H 0.60063 0.27268 0.75964 0.0
H630 H 0.53673 0.21175 0.72881 0.0
H631 H 0.56288 0.26165 0.76958 0.0
H632 H 0.64749 0.20605 0.68148 0.0
H633 H 0.60373 0.22702 0.661 0.0
H634 H 0.63199 0.35521 0.73707 0.0
H635 H 0.57889 0.30423 0.70522 0.0
Li636 Li 0.3876 0.63377 0.93011 0.0
Li637 Li 0.39562 0.66846 0.91613 0.0
Li638 Li 0.35987 0.63385 0.91045 0.0
Li639 Li 0.39334 0.63954 0.89534 0.0
C640 C 0.36948 0.6505 0.95312 0.0
N641 N 0.36476 0.65107 0.99149 0.0
C642 C 0.38346 0.66903 0.96349 0.0
C643 C 0.35288 0.63237 0.96225 0.0
C644 C 0.38086 0.66898 0.98287 0.0
C645 C 0.35083 0.63294 0.98166 0.0
C646 C 0.43621 0.66964 0.91604 0.0
C647 C 0.46836 0.69733 0.90034 0.0
N648 N 0.4805 0.69958 0.9158 0.0
C649 C 0.44906 0.67207 0.9317 0.0
C650 C 0.44597 0.68224 0.90018 0.0
C651 C 0.4714 0.68735 0.93133 0.0
C652 C 0.38609 0.59969 0.95133 0.0
N653 N 0.39313 0.62125 0.95134 0.0
C654 C 0.40931 0.6255 0.9815 0.0
C655 C 0.40464 0.63419 0.96597 0.0
C656 C 0.40226 0.60327 0.98193 0.0
C657 C 0.39044 0.5903 0.96657 0.0
H658 H 0.37736 0.58981 0.93937 0.0
H659 H 0.41041 0.65134 0.9655 0.0
C660 C 0.39698 0.70822 0.91386 0.0
N661 N 0.40841 0.69893 0.92017 0.0
C662 C 0.40447 0.73011 0.91735 0.0
C663 C 0.43552 0.73258 0.93359 0.0
C664 C 0.42737 0.71063 0.92986 0.0
C665 C 0.4239 0.74258 0.92752 0.0
H666 H 0.38176 0.69846 0.90643 0.0
H667 H 0.43589 0.70286 0.93522 0.0
C668 C 0.35282 0.59372 0.90678 0.0
N669 N 0.31504 0.55418 0.90169 0.0
C670 C 0.34859 0.583 0.88955 0.0
C671 C 0.33801 0.58415 0.9215 0.0
C672 C 0.32935 0.56307 0.88723 0.0
C673 C 0.31896 0.56421 0.91863 0.0
C674 C 0.38251 0.66616 0.87511 0.0
C675 C 0.36679 0.65646 0.86102 0.0
C676 C 0.40181 0.68563 0.87148 0.0
C677 C 0.37092 0.66605 0.84338 0.0
C678 C 0.40533 0.69474 0.85367 0.0
N679 N 0.38996 0.68483 0.84009 0.0
C680 C 0.31779 0.6266 0.91963 0.0
C681 C 0.31983 0.61142 0.89068 0.0
C682 C 0.29575 0.61972 0.91656 0.0
N683 N 0.32934 0.62248 0.9067 0.0
C684 C 0.29786 0.60425 0.88703 0.0
C685 C 0.28555 0.6086 0.89996 0.0
H686 H 0.3258 0.63563 0.93217 0.0
H687 H 0.32944 0.60856 0.88053 0.0
C688 C 0.42516 0.63569 0.87405 0.0
N689 N 0.40488 0.63333 0.87353 0.0
C690 C 0.43371 0.63096 0.85828 0.0
C691 C 0.39995 0.62045 0.84198 0.0
C692 C 0.39221 0.62572 0.85797 0.0
C693 C 0.42106 0.62315 0.84191 0.0
H694 H 0.43469 0.64111 0.88675 0.0
H695 H 0.37586 0.62325 0.8581 0.0
O696 O 0.37188 0.6502 0.93413 0.0
O697 O 0.41425 0.65488 0.91626 0.0
O698 O 0.37142 0.61341 0.90925 0.0
O699 O 0.3787 0.65699 0.8925 0.0
H700 H 0.3963 0.68325 0.95669 0.0
H701 H 0.34166 0.61804 0.95446 0.0
H702 H 0.39167 0.68316 0.99107 0.0
H703 H 0.33812 0.61898 0.9889 0.0
H704 H 0.47609 0.70718 0.88816 0.0
H705 H 0.44188 0.66232 0.94402 0.0
H706 H 0.43644 0.68015 0.88777 0.0
H707 H 0.4815 0.68948 0.94338 0.0
H708 H 0.41827 0.63609 0.99308 0.0
H709 H 0.385 0.57317 0.96614 0.0
H710 H 0.39474 0.73697 0.91267 0.0
H711 H 0.45066 0.74153 0.94134 0.0
H712 H 0.35997 0.58999 0.87808 0.0
H713 H 0.34119 0.59205 0.93499 0.0
H714 H 0.32581 0.55466 0.87393 0.0
H715 H 0.3073 0.55671 0.92988 0.0
H716 H 0.35162 0.64159 0.86361 0.0
H717 H 0.41387 0.69377 0.88232 0.0
H718 H 0.35898 0.65859 0.83231 0.0
H719 H 0.42025 0.70976 0.85068 0.0
H720 H 0.28687 0.62326 0.92701 0.0
H721 H 0.29084 0.59608 0.87391 0.0
H722 H 0.45011 0.63352 0.85896 0.0
H723 H 0.38927 0.61393 0.82995 0.0
Li724 Li 0.74248 0.39873 0.07927 0.0
Li725 Li 0.76974 0.39224 0.09115 0.0
Li726 Li 0.76947 0.39961 0.05834 0.0
Li727 Li 0.74134 0.36352 0.07189 0.0
C728 C 0.77345 0.43737 0.084 0.0
N729 N 0.76941 0.47283 0.09308 0.0
C730 C 0.77336 0.44306 0.10274 0.0
C731 C 0.77158 0.44979 0.0699 0.0
C732 C 0.7713 0.46103 0.10704 0.0
C733 C 0.76952 0.46763 0.07477 0.0
C734 C 0.73715 0.3675 0.11424 0.0
C735 C 0.7302 0.33871 0.13563 0.0
N736 N 0.73606 0.35289 0.15019 0.0
C737 C 0.74309 0.38178 0.12945 0.0
C738 C 0.73066 0.34578 0.11737 0.0
C739 C 0.74246 0.37409 0.1475 0.0
C740 C 0.71409 0.41454 0.06948 0.0
N741 N 0.72349 0.4101 0.08405 0.0
C742 C 0.70505 0.42075 0.10596 0.0
C743 C 0.7192 0.413 0.10203 0.0
C744 C 0.69496 0.42533 0.09122 0.0
C745 C 0.69971 0.42221 0.07276 0.0
H746 H 0.71756 0.41193 0.05532 0.0
H747 H 0.72665 0.40919 0.11338 0.0
C748 C 0.8055 0.41812 0.11473 0.0
N749 N 0.78968 0.39727 0.11138 0.0
C750 C 0.81993 0.42317 0.12967 0.0
C751 C 0.80243 0.38504 0.13687 0.0
C752 C 0.78833 0.38074 0.12176 0.0
C753 C 0.81827 0.40655 0.14119 0.0
H754 H 0.80689 0.43092 0.10583 0.0
H755 H 0.77613 0.36421 0.11849 0.0
C756 C 0.73477 0.38379 0.0359 0.0
N757 N 0.73131 0.38489 0.99745 0.0
C758 C 0.72667 0.36475 0.02534 0.0
C759 C 0.74086 0.40335 0.02689 0.0
C760 C 0.72509 0.36565 0.00592 0.0
C761 C 0.73907 0.40359 0.00745 0.0
C762 C 0.7905 0.37438 0.07441 0.0
C763 C 0.81167 0.39213 0.07269 0.0
C764 C 0.78734 0.35489 0.08164 0.0
C765 C 0.8294 0.39013 0.07845 0.0
C766 C 0.80551 0.35355 0.08722 0.0
N767 N 0.82598 0.37105 0.08554 0.0
C768 C 0.80256 0.43347 0.03657 0.0
C769 C 0.78592 0.39858 0.02264 0.0
C770 C 0.81628 0.44248 0.0211 0.0
N771 N 0.7876 0.41194 0.03694 0.0
C772 C 0.7992 0.4069 0.00685 0.0
C773 C 0.81468 0.42915 0.00592 0.0
H774 H 0.80409 0.44362 0.0484 0.0
H775 H 0.77421 0.38143 0.0235 0.0
C776 C 0.70214 0.3233 0.07275 0.0
N777 N 0.72317 0.33357 0.06658 0.0
C778 C 0.68777 0.30176 0.06773 0.0
C779 C 0.71692 0.30188 0.04992 0.0
C780 C 0.73085 0.32331 0.05557 0.0
C781 C 0.69504 0.29094 0.0559 0.0
H782 H 0.69645 0.33201 0.08129 0.0
H783 H 0.74759 0.33202 0.05067 0.0
O784 O 0.77486 0.41946 0.07952 0.0
O785 O 0.73755 0.37467 0.09643 0.0
O786 O 0.73669 0.38327 0.05493 0.0
O787 O 0.77293 0.37618 0.06926 0.0
H788 H 0.77455 0.43355 0.11388 0.0
H789 H 0.77152 0.44564 0.05534 0.0
H790 H 0.77108 0.46553 0.12148 0.0
H791 H 0.76794 0.47731 0.06398 0.0
H792 H 0.72526 0.32196 0.13822 0.0
H793 H 0.74863 0.39871 0.12735 0.0
H794 H 0.72627 0.33451 0.10584 0.0
H795 H 0.74717 0.38501 0.15935 0.0
H796 H 0.70159 0.42256 0.12041 0.0
H797 H 0.69239 0.42565 0.06097 0.0
H798 H 0.83228 0.43993 0.13216 0.0
H799 H 0.80055 0.3717 0.14534 0.0
H800 H 0.72164 0.34943 0.03202 0.0
H801 H 0.74721 0.41825 0.03478 0.0
H802 H 0.71893 0.35104 0.99759 0.0
H803 H 0.74392 0.41865 0.00031 0.0
H804 H 0.81433 0.40735 0.06717 0.0
H805 H 0.77102 0.34105 0.08313 0.0
H806 H 0.84587 0.40377 0.07732 0.0
H807 H 0.80333 0.33861 0.09295 0.0
H808 H 0.82829 0.45962 0.02121 0.0
H809 H 0.79721 0.39601 0.99546 0.0
H810 H 0.67093 0.29395 0.07241 0.0
H811 H 0.72308 0.29404 0.04077 0.0
Li812 Li 0.39345 0.77194 0.25318 0.0
Li813 Li 0.35963 0.74452 0.23923 0.0
Li814 Li 0.39297 0.74375 0.23439 0.0
Li815 Li 0.38824 0.77139 0.21994 0.0
C816 C 0.38725 0.73546 0.27232 0.0
N817 N 0.40704 0.72532 0.30059 0.0
C818 C 0.37461 0.71842 0.28451 0.0
C819 C 0.40997 0.74737 0.27451 0.0
C820 C 0.38492 0.71354 0.29872 0.0
C821 C 0.41966 0.74198 0.28889 0.0
C822 C 0.36036 0.78182 0.2522 0.0
C823 C 0.34709 0.80545 0.26203 0.0
N824 N 0.338 0.79297 0.27744 0.0
C825 C 0.35086 0.76921 0.26811 0.0
C826 C 0.35845 0.80007 0.24911 0.0
C827 C 0.33963 0.77512 0.28071 0.0
C828 C 0.42521 0.8099 0.2709 0.0
N829 N 0.4065 0.79079 0.27404 0.0
C830 C 0.40671 0.79985 0.30629 0.0
C831 C 0.39728 0.78543 0.29133 0.0
C832 C 0.42603 0.81971 0.30344 0.0
C833 C 0.43544 0.82462 0.28554 0.0
H834 H 0.43209 0.81375 0.25698 0.0
H835 H 0.38257 0.76999 0.29353 0.0
C836 C 0.32323 0.70505 0.24737 0.0
N837 N 0.32903 0.72557 0.24242 0.0
C838 C 0.30134 0.68966 0.2505 0.0
C839 C 0.29168 0.71677 0.24322 0.0
C840 C 0.31382 0.73163 0.24008 0.0
C841 C 0.28523 0.69547 0.24856 0.0
H842 H 0.33572 0.70071 0.24904 0.0
H843 H 0.31886 0.74802 0.23592 0.0
C844 C 0.43062 0.77914 0.22055 0.0
N845 N 0.463 0.78708 0.1948 0.0
C846 C 0.42581 0.76594 0.20471 0.0
C847 C 0.45192 0.79634 0.22331 0.0
C848 C 0.44239 0.77022 0.19185 0.0
C849 C 0.46805 0.80011 0.21013 0.0
C850 C 0.35582 0.73509 0.20152 0.0
C851 C 0.35082 0.71824 0.18887 0.0
C852 C 0.34539 0.74719 0.1999 0.0
C853 C 0.33542 0.71375 0.17481 0.0
C854 C 0.33008 0.74219 0.18566 0.0
N855 N 0.32545 0.72571 0.17351 0.0
C856 C 0.38856 0.70409 0.22503 0.0
C857 C 0.42422 0.72926 0.23581 0.0
C858 C 0.3944 0.68834 0.22241 0.0
N859 N 0.40342 0.72406 0.23156 0.0
C860 C 0.43077 0.71392 0.23347 0.0
C861 C 0.41575 0.69309 0.2267 0.0
H862 H 0.37213 0.70045 0.2218 0.0
H863 H 0.43572 0.74528 0.24103 0.0
C864 C 0.39847 0.80999 0.20195 0.0
N865 N 0.39477 0.78965 0.1988 0.0
C866 C 0.40376 0.82444 0.18713 0.0
C867 C 0.40149 0.79674 0.16612 0.0
C868 C 0.39606 0.78278 0.18132 0.0
C869 C 0.40545 0.81789 0.16894 0.0
H870 H 0.3975 0.81503 0.21604 0.0
H871 H 0.39297 0.76649 0.17918 0.0
O872 O 0.37728 0.74033 0.25837 0.0
O873 O 0.37149 0.77646 0.23961 0.0
O874 O 0.41471 0.77537 0.2334 0.0
O875 O 0.37089 0.73958 0.21533 0.0
H876 H 0.357 0.70907 0.28301 0.0
H877 H 0.42005 0.76063 0.26525 0.0
H878 H 0.37533 0.70038 0.30825 0.0
H879 H 0.43722 0.75106 0.29073 0.0
H880 H 0.34549 0.81954 0.25982 0.0
H881 H 0.35208 0.75499 0.27075 0.0
H882 H 0.36565 0.80998 0.23683 0.0
H883 H 0.33222 0.7655 0.29308 0.0
H884 H 0.39915 0.79546 0.31997 0.0
H885 H 0.45029 0.83985 0.28284 0.0
H886 H 0.29714 0.67352 0.25484 0.0
H887 H 0.27974 0.72183 0.24141 0.0
H888 H 0.4095 0.75248 0.20232 0.0
H889 H 0.45596 0.80668 0.23552 0.0
H890 H 0.43888 0.76014 0.17954 0.0
H891 H 0.4846 0.81338 0.21209 0.0
H892 H 0.35879 0.70875 0.18991 0.0
H893 H 0.34906 0.76035 0.20948 0.0
H894 H 0.3314 0.70075 0.16493 0.0
H895 H 0.32189 0.75143 0.18426 0.0
H896 H 0.38236 0.67269 0.21682 0.0
H897 H 0.44732 0.71826 0.23712 0.0
H898 H 0.40692 0.84067 0.18992 0.0
H899 H 0.40238 0.79099 0.15228 0.0
H900 H 0.16457 0.57588 0.26859 0.0
H901 H 0.25569 0.70186 0.26833 0.0
H902 H 0.16195 0.62374 0.30384 0.0
H903 H 0.26194 0.6526 0.23852 0.0
H904 H 0.21866 0.67438 0.2777 0.0
H905 H 0.19762 0.60466 0.25386 0.0
C906 C 0.17086 0.59245 0.27316 0.0
C907 C 0.16057 0.59734 0.28763 0.0
C908 C 0.22807 0.66962 0.26898 0.0
C909 C 0.1984 0.63042 0.27075 0.0
C910 C 0.24916 0.68532 0.26353 0.0
C911 C 0.26201 0.67947 0.25278 0.0
C912 C 0.21974 0.64791 0.2636 0.0
C913 C 0.25275 0.65776 0.2471 0.0
C914 C 0.1897 0.60889 0.2647 0.0
C915 C 0.16923 0.61919 0.29269 0.0
N916 N 0.23226 0.64276 0.25267 0.0
N917 N 0.18774 0.63488 0.28438 0.0
H918 H 0.56168 0.17421 0.48652 0.0
H919 H 0.60234 0.26112 0.40387 0.0
H920 H 0.58033 0.16301 0.43188 0.0
H921 H 0.58811 0.27314 0.45996 0.0
H922 H 0.59121 0.22399 0.41284 0.0
H923 H 0.56736 0.20895 0.47577 0.0
C924 C 0.5666 0.17885 0.47214 0.0
C925 C 0.57056 0.16561 0.4601 0.0
C926 C 0.59041 0.23473 0.42314 0.0
C927 C 0.57761 0.20578 0.4478 0.0
C928 C 0.59689 0.25598 0.41807 0.0
C929 C 0.59629 0.27038 0.4312 0.0
C930 C 0.58328 0.22777 0.44149 0.0
C931 C 0.58865 0.26263 0.44929 0.0
C932 C 0.57006 0.19884 0.46606 0.0
C933 C 0.57735 0.1728 0.44173 0.0
N934 N 0.58256 0.24193 0.4539 0.0
N935 N 0.58078 0.19244 0.43617 0.0
H936 H 0.46047 0.61471 0.60607 0.0
H937 H 0.33219 0.57267 0.60141 0.0
H938 H 0.41151 0.55902 0.63622 0.0
H939 H 0.3821 0.63338 0.57819 0.0
H940 H 0.36057 0.56462 0.61051 0.0
H941 H 0.43146 0.61884 0.59185 0.0
C942 C 0.44362 0.60326 0.60962 0.0
C943 C 0.43848 0.58662 0.62252 0.0
C944 C 0.36528 0.57962 0.60329 0.0
C945 C 0.40513 0.59119 0.6062 0.0
C946 C 0.34909 0.58429 0.59816 0.0
C947 C 0.35472 0.60383 0.58914 0.0
C948 C 0.38731 0.5946 0.59939 0.0
C949 C 0.37689 0.61803 0.58496 0.0
C950 C 0.42705 0.60559 0.60145 0.0
C951 C 0.41629 0.572 0.62627 0.0
N952 N 0.39235 0.6132 0.59023 0.0
N953 N 0.40047 0.57475 0.61828 0.0
H954 H 0.85732 0.41208 0.82103 0.0
H955 H 0.77178 0.36175 0.7367 0.0
H956 H 0.86627 0.44526 0.76865 0.0
H957 H 0.75598 0.34126 0.79419 0.0
H958 H 0.80857 0.3893 0.74661 0.0
H959 H 0.82256 0.38235 0.80953 0.0
C960 C 0.85214 0.41295 0.80698 0.0
C961 C 0.86471 0.43119 0.79578 0.0
C962 C 0.79703 0.37867 0.757 0.0
C963 C 0.82476 0.39731 0.78262 0.0
C964 C 0.77595 0.363 0.75139 0.0
C965 C 0.76058 0.34908 0.76461 0.0
C966 C 0.80289 0.38035 0.77593 0.0
C967 C 0.76724 0.35128 0.7834 0.0
C968 C 0.83219 0.39606 0.80049 0.0
C969 C 0.85698 0.43158 0.7778 0.0
N970 N 0.78784 0.36659 0.78847 0.0
N971 N 0.83748 0.4149 0.77177 0.0
H972 H 0.44202 0.87191 0.93388 0.0
H973 H 0.44239 0.76364 0.96048 0.0
H974 H 0.46689 0.8625 0.98587 0.0
H975 H 0.4222 0.77382 0.90637 0.0
H976 H 0.45304 0.80061 0.96924 0.0
H977 H 0.436 0.83681 0.92283 0.0
C978 C 0.44635 0.86256 0.94292 0.0
C979 C 0.45497 0.8702 0.96085 0.0
C980 C 0.44641 0.79484 0.95539 0.0
C981 C 0.44809 0.83003 0.94831 0.0
C982 C 0.44044 0.77371 0.95031 0.0
C983 C 0.43136 0.7655 0.93262 0.0
C984 C 0.44319 0.80796 0.94278 0.0
C985 C 0.42883 0.7793 0.92025 0.0
C986 C 0.44298 0.84255 0.93658 0.0
C987 C 0.46049 0.85747 0.97187 0.0
N988 N 0.43462 0.79981 0.92559 0.0
N989 N 0.45682 0.83799 0.96548 0.0
H990 H 0.62037 0.47527 0.14573 0.0
H991 H 0.65565 0.4121 0.07394 0.0
H992 H 0.57648 0.42825 0.1055 0.0
H993 H 0.69753 0.45448 0.11768 0.0
H994 H 0.62811 0.42165 0.08243 0.0
H995 H 0.65036 0.47181 0.13264 0.0
C996 C 0.6171 0.46449 0.13393 0.0
C997 C 0.59582 0.45191 0.12679 0.0
C998 C 0.64339 0.42899 0.09009 0.0
C999 C 0.63006 0.44759 0.11193 0.0
C1000 C 0.65919 0.42365 0.08517 0.0
C1001 C 0.67888 0.43237 0.09521 0.0
C1002 C 0.64729 0.4432 0.10515 0.0
C1003 C 0.68244 0.44707 0.10977 0.0
C1004 C 0.63421 0.46238 0.12656 0.0
C1005 C 0.59254 0.438 0.11164 0.0
N1006 N 0.66676 0.45192 0.11436 0.0
N1007 N 0.60944 0.43611 0.1048 0.0
H1008 H 0.45662 0.84617 0.50123 0.0
H1009 H 0.34907 0.7844 0.56383 0.0
H1010 H 0.43284 0.88036 0.53489 0.0
H1011 H 0.38377 0.75429 0.54096 0.0
H1012 H 0.37831 0.81958 0.55245 0.0
H1013 H 0.42901 0.8123 0.51496 0.0
C1014 C 0.44584 0.84668 0.51173 0.0
C1015 C 0.44733 0.86635 0.51699 0.0
C1016 C 0.37955 0.80527 0.55006 0.0
C1017 C 0.41499 0.82716 0.53246 0.0
C1018 C 0.36284 0.7852 0.55646 0.0
C1019 C 0.36401 0.76639 0.55338 0.0
C1020 C 0.39738 0.80646 0.54033 0.0
C1021 C 0.3823 0.76838 0.54388 0.0
C1022 C 0.42989 0.82721 0.51947 0.0
C1023 C 0.43226 0.86565 0.53024 0.0
N1024 N 0.39816 0.78799 0.53761 0.0
N1025 N 0.41666 0.84637 0.53747 0.0
H1026 H 0.58059 0.43951 0.71685 0.0
H1027 H 0.58852 0.3357 0.6867 0.0
H1028 H 0.56645 0.41165 0.66134 0.0
H1029 H 0.60281 0.36283 0.74248 0.0
H1030 H 0.57766 0.36183 0.67795 0.0
H1031 H 0.58629 0.41016 0.72724 0.0
C1032 C 0.57854 0.42717 0.70687 0.0
C1033 C 0.57307 0.42812 0.68817 0.0
C1034 C 0.58306 0.36202 0.69214 0.0
C1035 C 0.57956 0.39447 0.69997 0.0
C1036 C 0.58915 0.34698 0.6972 0.0
C1037 C 0.59666 0.34705 0.71537 0.0
C1038 C 0.58453 0.37736 0.70531 0.0
C1039 C 0.59745 0.36237 0.72824 0.0
C1040 C 0.58174 0.41038 0.71283 0.0
C1041 C 0.57036 0.41149 0.67594 0.0
N1042 N 0.59155 0.37695 0.72294 0.0
N1043 N 0.57378 0.39548 0.68202 0.0
H1044 H 0.16827 0.61383 0.87794 0.0
H1045 H 0.25352 0.5716 0.88285 0.0
H1046 H 0.16052 0.55799 0.84761 0.0
H1047 H 0.26532 0.63208 0.90698 0.0
H1048 H 0.21712 0.56377 0.87333 0.0
H1049 H 0.2015 0.61806 0.89227 0.0
C1050 C 0.17347 0.60238 0.87436 0.0
C1051 C 0.16163 0.58563 0.86141 0.0
C1052 C 0.22762 0.57868 0.88083 0.0
C1053 C 0.19965 0.59032 0.87786 0.0
C1054 C 0.24846 0.58322 0.8862 0.0
C1055 C 0.26264 0.60263 0.8956 0.0
C1056 C 0.22085 0.59365 0.88486 0.0
C1057 C 0.25496 0.61684 0.8999 0.0
C1058 C 0.19242 0.60477 0.8826 0.0
C1059 C 0.16896 0.57104 0.85762 0.0
N1060 N 0.23467 0.61213 0.89438 0.0
N1061 N 0.18757 0.57383 0.86568 0.0
H1062 H 0.59497 0.15521 0.04086 0.0
H1063 H 0.68862 0.27684 0.01973 0.0
H1064 H 0.59823 0.18844 0.98977 0.0
H1065 H 0.66572 0.25525 0.07584 0.0
H1066 H 0.66066 0.24139 0.00776 0.0
H1067 H 0.62593 0.18909 0.05325 0.0
C1068 C 0.60233 0.16962 0.03226 0.0
C1069 C 0.59407 0.16923 0.01438 0.0
C1070 C 0.66187 0.24438 0.0227 0.0
C1071 C 0.62937 0.20756 0.02818 0.0
C1072 C 0.67789 0.26451 0.02954 0.0
C1073 C 0.6794 0.26894 0.04878 0.0
C1074 C 0.64746 0.22845 0.03521 0.0
C1075 C 0.66494 0.25248 0.06088 0.0
C1076 C 0.61985 0.18886 0.03931 0.0
C1077 C 0.60407 0.18822 0.0037 0.0
N1078 N 0.64955 0.23289 0.0539 0.0
N1079 N 0.62125 0.2066 0.01073 0.0
H1080 H 0.40845 0.57274 0.19952 0.0
H1081 H 0.45489 0.6987 0.2136 0.0
H1082 H 0.47731 0.61988 0.19459 0.0
H1083 H 0.39131 0.64938 0.23314 0.0
H1084 H 0.46386 0.67051 0.20675 0.0
H1085 H 0.40221 0.60074 0.21213 0.0
C1086 C 0.4224 0.58886 0.20139 0.0
C1087 C 0.4435 0.59381 0.19591 0.0
C1088 C 0.44802 0.66591 0.21269 0.0
C1089 C 0.4362 0.62634 0.2099 0.0
C1090 C 0.4429 0.68201 0.21668 0.0
C1091 C 0.42219 0.67643 0.22377 0.0
C1092 C 0.43227 0.64406 0.21567 0.0
C1093 C 0.40727 0.65445 0.22726 0.0
C1094 C 0.41874 0.60495 0.20848 0.0
C1095 C 0.4607 0.61529 0.19828 0.0
N1096 N 0.41254 0.63911 0.22303 0.0
N1097 N 0.45664 0.6308 0.20492 0.0
H1098 H 0.85887 0.46672 0.32943 0.0
H1099 H 0.77194 0.42755 0.41305 0.0
H1100 H 0.86573 0.43816 0.38011 0.0
H1101 H 0.75861 0.4396 0.35683 0.0
H1102 H 0.80852 0.43625 0.403 0.0
H1103 H 0.8246 0.46248 0.34139 0.0
C1104 C 0.85334 0.45986 0.34321 0.0
C1105 C 0.86517 0.45275 0.35378 0.0
C1106 C 0.79758 0.43707 0.39292 0.0
C1107 C 0.82575 0.44758 0.36745 0.0
C1108 C 0.77663 0.43199 0.39861 0.0
C1109 C 0.76201 0.43274 0.38578 0.0
C1110 C 0.80408 0.4431 0.37431 0.0
C1111 C 0.7693 0.43909 0.36734 0.0
C1112 C 0.83366 0.45727 0.34995 0.0
C1113 C 0.857 0.44366 0.37142 0.0
N1114 N 0.78976 0.44398 0.36218 0.0
N1115 N 0.83776 0.44129 0.3777 0.0
H1116 H 0.1541 0.54284 0.40327 0.0
H1117 H 0.18997 0.62364 0.49067 0.0
H1118 H 0.12132 0.57786 0.41843 0.0
H1119 H 0.21137 0.5774 0.48232 0.0
H1120 H 0.16609 0.60861 0.46332 0.0
H1121 H 0.17616 0.55639 0.43152 0.0
C1122 C 0.15128 0.55314 0.41263 0.0
C1123 C 0.13568 0.55911 0.4084 0.0
C1124 C 0.17596 0.60171 0.46752 0.0
C1125 C 0.16144 0.57519 0.44068 0.0
C1126 C 0.18969 0.61038 0.48304 0.0
C1127 C 0.20269 0.60176 0.48876 0.0
C1128 C 0.17538 0.58445 0.45753 0.0
C1129 C 0.20148 0.58439 0.4785 0.0
C1130 C 0.16405 0.56102 0.42873 0.0
C1131 C 0.1333 0.57302 0.42093 0.0
N1132 N 0.18815 0.57639 0.46334 0.0
N1133 N 0.1461 0.58065 0.43645 0.0
H1134 H 0.56275 0.13436 0.57177 0.0
H1135 H 0.65258 0.20574 0.64843 0.0
H1136 H 0.62563 0.1385 0.57514 0.0
H1137 H 0.58524 0.19006 0.65152 0.0
H1138 H 0.64342 0.18188 0.62122 0.0
H1139 H 0.57093 0.15518 0.60072 0.0
C1140 C 0.57816 0.13936 0.57871 0.0
C1141 C 0.59351 0.13461 0.57092 0.0
C1142 C 0.63064 0.18362 0.6279 0.0
C1143 C 0.6032 0.15901 0.60396 0.0
C1144 C 0.63584 0.19719 0.6435 0.0
C1145 C 0.61969 0.20004 0.6523 0.0
C1146 C 0.60917 0.17289 0.62094 0.0
C1147 C 0.59834 0.18875 0.64503 0.0
C1148 C 0.58289 0.15142 0.5952 0.0
C1149 C 0.61342 0.14202 0.58042 0.0
N1150 N 0.59374 0.17576 0.62976 0.0
N1151 N 0.61773 0.15395 0.59637 0.0
H1152 H 0.44023 0.59006 0.72957 0.0
H1153 H 0.44841 0.60616 0.84008 0.0
H1154 H 0.49483 0.5959 0.76105 0.0
H1155 H 0.41341 0.62744 0.80487 0.0
H1156 H 0.46233 0.59748 0.81204 0.0
H1157 H 0.42636 0.5982 0.758 0.0
C1158 C 0.44917 0.59286 0.74253 0.0
C1159 C 0.46866 0.59226 0.74301 0.0
C1160 C 0.45162 0.60408 0.81053 0.0
C1161 C 0.45293 0.60162 0.77553 0.0
C1162 C 0.44374 0.60919 0.82653 0.0
C1163 C 0.42966 0.61764 0.82497 0.0
C1164 C 0.44515 0.60708 0.79282 0.0
C1165 C 0.42384 0.62062 0.8069 0.0
C1166 C 0.44135 0.59767 0.75869 0.0
C1167 C 0.47979 0.59631 0.76011 0.0
N1168 N 0.43152 0.61526 0.79157 0.0
N1169 N 0.4717 0.60072 0.77575 0.0
H1170 H 0.89018 0.44617 0.9055 0.0
H1171 H 0.82842 0.46831 0.98884 0.0
H1172 H 0.89392 0.50774 0.91439 0.0
H1173 H 0.83404 0.41101 0.98504 0.0
H1174 H 0.85191 0.48286 0.96137 0.0
H1175 H 0.86931 0.43289 0.93441 0.0
C1176 C 0.88686 0.45702 0.91362 0.0
C1177 C 0.89387 0.47815 0.90743 0.0
C1178 C 0.84805 0.46713 0.96658 0.0
C1179 C 0.86949 0.46282 0.94046 0.0
C1180 C 0.83471 0.45884 0.98234 0.0
C1181 C 0.82915 0.43834 0.9893 0.0
C1182 C 0.85586 0.45484 0.95761 0.0
C1183 C 0.83753 0.4267 0.98003 0.0
C1184 C 0.87478 0.44935 0.93009 0.0
C1185 C 0.88861 0.49124 0.91843 0.0
N1186 N 0.85039 0.43508 0.96466 0.0
N1187 N 0.87668 0.48334 0.93435 0.0
H1188 H 0.46484 0.89384 0.06961 0.0
H1189 H 0.39025 0.84542 0.16093 0.0
H1190 H 0.41158 0.90455 0.08305 0.0
H1191 H 0.43458 0.82504 0.14081 0.0
H1192 H 0.40043 0.8702 0.13439 0.0
H1193 H 0.45676 0.87189 0.09775 0.0
C1194 C 0.45162 0.89181 0.07862 0.0
C1195 C 0.43886 0.90105 0.07397 0.0
C1196 C 0.40793 0.86031 0.1358 0.0
C1197 C 0.42932 0.87566 0.10611 0.0
C1198 C 0.40221 0.84625 0.15098 0.0
C1199 C 0.41153 0.8331 0.15303 0.0
C1200 C 0.42322 0.86136 0.12267 0.0
C1201 C 0.42678 0.83468 0.13963 0.0
C1202 C 0.44689 0.87911 0.0946 0.0
C1203 C 0.42169 0.89755 0.08602 0.0
N1204 N 0.43217 0.84856 0.12504 0.0
N1205 N 0.4174 0.88512 0.10153 0.0
H1206 H 0.52961 0.39848 0.23985 0.0
H1207 H 0.60428 0.44588 0.33082 0.0
H1208 H 0.56216 0.46608 0.25563 0.0
H1209 H 0.56258 0.37739 0.32012 0.0
H1210 H 0.5887 0.45358 0.30359 0.0
H1211 H 0.541 0.39037 0.2694 0.0
C1212 C 0.53889 0.41161 0.24962 0.0
C1213 C 0.54497 0.43304 0.24515 0.0
C1214 C 0.58286 0.43686 0.30726 0.0
C1215 C 0.5585 0.42387 0.27893 0.0
C1216 C 0.59167 0.43243 0.3229 0.0
C1217 C 0.58481 0.41092 0.3278 0.0
C1218 C 0.56716 0.4197 0.29631 0.0
C1219 C 0.56868 0.39422 0.31673 0.0
C1220 C 0.54552 0.40696 0.26646 0.0
C1221 C 0.55739 0.44938 0.25829 0.0
N1222 N 0.5605 0.39897 0.30147 0.0
N1223 N 0.56385 0.44447 0.27451 0.0
H1224 H 0.45532 0.91232 0.39298 0.0
H1225 H 0.46847 0.83937 0.31527 0.0
H1226 H 0.50199 0.89058 0.39832 0.0
H1227 H 0.40676 0.83534 0.32695 0.0
H1228 H 0.48482 0.86449 0.3418 0.0
H1229 H 0.44108 0.89029 0.36467 0.0
C1230 C 0.46263 0.90299 0.38828 0.0
C1231 C 0.47979 0.90321 0.39833 0.0
C1232 C 0.46772 0.85813 0.33848 0.0
C1233 C 0.46385 0.87843 0.36557 0.0
C1234 C 0.45845 0.84392 0.32337 0.0
C1235 C 0.43626 0.83525 0.31907 0.0
C1236 C 0.45479 0.86402 0.34908 0.0
C1237 C 0.42389 0.84154 0.32998 0.0
C1238 C 0.45452 0.89051 0.37205 0.0
C1239 C 0.48896 0.89122 0.39106 0.0
N1240 N 0.43335 0.85564 0.34446 0.0
N1241 N 0.48086 0.87932 0.37515 0.0
H1242 H 0.62311 0.47334 0.59357 0.0
H1243 H 0.61025 0.45953 0.48237 0.0
H1244 H 0.58476 0.4931 0.56137 0.0
H1245 H 0.63589 0.42801 0.51669 0.0
H1246 H 0.60398 0.47519 0.51063 0.0
H1247 H 0.63135 0.4601 0.56494 0.0
C1248 C 0.61662 0.47512 0.58043 0.0
C1249 C 0.60327 0.4844 0.57985 0.0
C1250 C 0.61098 0.46485 0.51196 0.0
C1251 C 0.61243 0.469 0.547 0.0
C1252 C 0.61467 0.45602 0.49585 0.0
C1253 C 0.62356 0.44241 0.4972 0.0
C1254 C 0.6164 0.46022 0.52953 0.0
C1255 C 0.62877 0.4382 0.51502 0.0
C1256 C 0.62118 0.46738 0.56411 0.0
C1257 C 0.59499 0.48591 0.56246 0.0
N1258 N 0.62516 0.44711 0.53047 0.0
N1259 N 0.59972 0.47831 0.54671 0.0
H1260 H 0.16244 0.58799 0.75519 0.0
H1261 H 0.17475 0.60973 0.64555 0.0
H1262 H 0.11486 0.59519 0.72339 0.0
H1263 H 0.23021 0.62996 0.68226 0.0
H1264 H 0.15088 0.59922 0.6729 0.0
H1265 H 0.18561 0.59746 0.72732 0.0
C1266 C 0.15677 0.59132 0.74226 0.0
C1267 C 0.13671 0.59077 0.74154 0.0
C1268 C 0.16829 0.60599 0.6749 0.0
C1269 C 0.16312 0.60168 0.70969 0.0
C1270 C 0.18202 0.61216 0.65929 0.0
C1271 C 0.20469 0.62088 0.66147 0.0
C1272 C 0.17717 0.60818 0.69282 0.0
C1273 C 0.21288 0.62301 0.67974 0.0
C1274 C 0.17007 0.5969 0.72644 0.0
C1275 C 0.13027 0.59553 0.72452 0.0
N1276 N 0.19913 0.61662 0.69467 0.0
N1277 N 0.14341 0.60071 0.70921 0.0
H1278 H 0.56092 0.11406 0.89108 0.0
H1279 H 0.5579 0.2035 0.82624 0.0
H1280 H 0.52491 0.14622 0.90486 0.0
H1281 H 0.60061 0.17771 0.81647 0.0
H1282 H 0.54253 0.17968 0.85326 0.0
H1283 H 0.57239 0.13419 0.86174 0.0
C1284 C 0.55535 0.12529 0.88792 0.0
C1285 C 0.54203 0.12853 0.90055 0.0
C1286 C 0.55519 0.17916 0.84514 0.0
C1287 C 0.555 0.15155 0.86691 0.0
C1288 C 0.56406 0.19284 0.82976 0.0
C1289 C 0.58069 0.19273 0.8191 0.0
C1290 C 0.56298 0.16523 0.84993 0.0
C1291 C 0.58768 0.17823 0.82413 0.0
C1292 C 0.56185 0.13673 0.87114 0.0
C1293 C 0.535 0.143 0.89551 0.0
N1294 N 0.57887 0.16516 0.83923 0.0
N1295 N 0.54168 0.15406 0.87916 0.0
H1296 H 0.39809 0.52103 0.07262 0.0
H1297 H 0.44037 0.62097 0.00211 0.0
H1298 H 0.45869 0.58161 0.07956 0.0
H1299 H 0.37618 0.56388 0.99874 0.0
H1300 H 0.44838 0.60558 0.02922 0.0
H1301 H 0.39086 0.53519 0.04415 0.0
C1302 C 0.40989 0.53729 0.06817 0.0
C1303 C 0.42902 0.55015 0.07857 0.0
C1304 C 0.43254 0.5964 0.02255 0.0
C1305 C 0.4209 0.56639 0.0459 0.0
C1306 C 0.42789 0.60524 0.00712 0.0
C1307 C 0.40749 0.59379 0.99817 0.0
C1308 C 0.41671 0.5759 0.02913 0.0
C1309 C 0.39219 0.57323 0.00507 0.0
C1310 C 0.40578 0.54534 0.05187 0.0
C1311 C 0.44388 0.57097 0.07191 0.0
N1312 N 0.39709 0.56498 0.02016 0.0
N1313 N 0.43946 0.57845 0.05607 0.0
H1314 H 0.88878 0.46217 0.24413 0.0
H1315 H 0.83822 0.38481 0.15456 0.0
H1316 H 0.89737 0.40751 0.23301 0.0
H1317 H 0.83073 0.44006 0.16601 0.0
H1318 H 0.86068 0.39322 0.18274 0.0
H1319 H 0.8687 0.45501 0.21484 0.0
C1320 C 0.88667 0.44879 0.23544 0.0
C1321 C 0.89483 0.43544 0.24108 0.0
C1322 C 0.85418 0.40354 0.17904 0.0
C1323 C 0.87143 0.42689 0.20756 0.0
C1324 C 0.84126 0.39868 0.163 0.0
C1325 C 0.83255 0.41174 0.15789 0.0
C1326 C 0.85837 0.42155 0.19009 0.0
C1327 C 0.83732 0.4297 0.16924 0.0
C1328 C 0.87503 0.44461 0.21875 0.0
C1329 C 0.89116 0.41807 0.22935 0.0
N1330 N 0.84982 0.43401 0.1848 0.0
N1331 N 0.87969 0.41427 0.21318 0.0
loop_
_geom_bond_atom_site_label_1
_geom_bond_atom_site_label_2
_geom_bond_distance
_geom_bond_site_symmetry_2
_ccdc_geom_bond_type
H0 C27 0.929 . S
N1 C26 1.433 . S
N1 C32 1.435 . S
N1 C38 1.423 . S
H2 C28 0.930 . S
H3 C31 0.931 . S
H4 C30 0.929 . S
H5 C33 0.930 . S
H6 C34 0.932 . S
H7 C37 0.929 . S
H8 C36 0.931 . S
H9 C39 0.929 . S
H10 C43 0.932 . S
H11 C40 0.931 . S
H12 C42 0.929 . S
H13 C45 0.929 . S
H14 C46 0.930 . S
H15 C48 0.929 . S
H16 C49 0.931 . S
H17 C51 0.930 . S
H18 C52 0.932 . S
H19 C54 0.931 . S
H20 C55 0.929 . S
H21 C57 0.929 . S
H22 C58 0.931 1_455 S
H23 C60 0.929 . S
N24 C44 1.433 . S
N24 C50 1.435 . S
N24 C56 1.423 . S
H25 C61 0.932 . S
C26 N1 1.433 . S
C26 C27 1.363 . S
C26 C31 1.370 . S
C27 H0 0.929 . S
C27 C26 1.363 . S
C27 C28 1.385 . S
C28 H2 0.930 . S
C28 C27 1.385 . S
C28 C29 1.357 . S
C29 C28 1.357 . S
C29 C30 1.406 . S
C30 H4 0.929 . S
C30 C29 1.406 . S
C30 C31 1.391 . S
C31 H3 0.931 . S
C31 C26 1.370 . S
C31 C30 1.391 . S
C32 N1 1.435 . S
C32 C33 1.358 . S
C32 C37 1.371 . S
C33 H5 0.930 . S
C33 C32 1.358 . S
C33 C34 1.405 . S
C34 H6 0.932 . S
C34 C33 1.405 . S
C34 C35 1.383 . S
C35 C34 1.383 . S
C35 C36 1.393 . S
C36 H8 0.931 . S
C36 C35 1.393 . S
C36 C37 1.382 . S
C37 H7 0.929 . S
C37 C32 1.371 . S
C37 C36 1.382 . S
C38 N1 1.423 . S
C38 C39 1.362 . S
C38 C43 1.388 . S
C39 H9 0.929 . S
C39 C38 1.362 . S
C39 C40 1.376 . S
C40 H11 0.931 . S
C40 C39 1.376 . S
C40 C41 1.396 . S
C41 C40 1.396 . S
C41 C42 1.348 . S
C41 C59 1.472 . S
C42 H12 0.929 . S
C42 C41 1.348 . S
C42 C43 1.443 . S
C43 H10 0.932 . S
C43 C38 1.388 . S
C43 C42 1.443 . S
C44 N24 1.433 . S
C44 C45 1.363 . S
C44 C49 1.370 . S
C45 H13 0.929 . S
C45 C44 1.363 . S
C45 C46 1.385 . S
C46 H14 0.930 . S
C46 C45 1.385 . S
C46 C47 1.357 . S
C47 C46 1.357 . S
C47 C48 1.406 . S
C48 H15 0.929 . S
C48 C47 1.406 . S
C48 C49 1.391 . S
C49 H16 0.931 . S
C49 C44 1.370 . S
C49 C48 1.391 . S
C50 N24 1.435 . S
C50 C51 1.358 . S
C50 C55 1.371 . S
C51 H17 0.930 . S
C51 C50 1.358 . S
C51 C52 1.405 . S
C52 H18 0.932 . S
C52 C51 1.405 . S
C52 C53 1.383 . S
C53 C52 1.383 . S
C53 C54 1.393 . S
C54 H19 0.931 . S
C54 C53 1.393 . S
C54 C55 1.382 . S
C55 H20 0.929 . S
C55 C50 1.371 . S
C55 C54 1.382 . S
C56 N24 1.423 . S
C56 C57 1.362 . S
C56 C61 1.388 . S
C57 H21 0.929 . S
C57 C56 1.362 . S
C57 C58 1.376 . S
C58 H22 0.931 1_655 S
C58 C57 1.376 . S
C58 C59 1.396 1_655 S
C59 C41 1.472 . S
C59 C58 1.396 1_455 S
C59 C60 1.348 1_455 S
C60 H23 0.929 . S
C60 C59 1.348 1_655 S
C60 C61 1.443 . S
C61 H25 0.932 . S
C61 C56 1.388 . S
C61 C60 1.443 . S
H62 C89 0.929 . S
N63 C88 1.433 . S
N63 C94 1.435 . S
N63 C100 1.423 . S
H64 C90 0.930 . S
H65 C93 0.931 . S
H66 C92 0.929 . S
H67 C95 0.930 . S
H68 C96 0.932 . S
H69 C99 0.929 . S
H70 C98 0.931 . S
H71 C101 0.929 . S
H72 C105 0.932 . S
H73 C102 0.931 . S
H74 C104 0.929 . S
H75 C107 0.929 . S
H76 C108 0.930 . S
H77 C110 0.929 . S
H78 C111 0.931 . S
H79 C113 0.930 . S
H80 C114 0.932 . S
H81 C116 0.931 . S
H82 C117 0.929 . S
H83 C119 0.929 . S
H84 C120 0.931 . S
H85 C122 0.929 . S
N86 C106 1.433 . S
N86 C112 1.435 . S
N86 C118 1.423 . S
H87 C123 0.932 . S
C88 N63 1.433 . S
C88 C89 1.363 . S
C88 C93 1.370 . S
C89 H62 0.929 . S
C89 C88 1.363 . S
C89 C90 1.385 . S
C90 H64 0.930 . S
C90 C89 1.385 . S
C90 C91 1.357 . S
C91 C90 1.357 . S
C91 C92 1.406 . S
C92 H66 0.929 . S
C92 C91 1.406 . S
C92 C93 1.391 . S
C93 H65 0.931 . S
C93 C88 1.370 . S
C93 C92 1.391 . S
C94 N63 1.435 . S
C94 C95 1.358 . S
C94 C99 1.371 . S
C95 H67 0.930 . S
C95 C94 1.358 . S
C95 C96 1.405 . S
C96 H68 0.932 . S
C96 C95 1.405 . S
C96 C97 1.383 . S
C97 C96 1.383 . S
C97 C98 1.393 . S
C98 H70 0.931 . S
C98 C97 1.393 . S
C98 C99 1.382 . S
C99 H69 0.929 . S
C99 C94 1.371 . S
C99 C98 1.382 . S
C100 N63 1.423 . S
C100 C101 1.362 . S
C100 C105 1.388 . S
C101 H71 0.929 . S
C101 C100 1.362 . S
C101 C102 1.376 . S
C102 H73 0.931 . S
C102 C101 1.376 . S
C102 C103 1.396 1_565 S
C103 C102 1.396 1_545 S
C103 C104 1.348 . S
C103 C121 1.472 . S
C104 H74 0.929 . S
C104 C103 1.348 . S
C104 C105 1.443 1_545 S
C105 H72 0.932 . S
C105 C100 1.388 . S
C105 C104 1.443 1_565 S
C106 N86 1.433 . S
C106 C107 1.363 . S
C106 C111 1.370 . S
C107 H75 0.929 . S
C107 C106 1.363 . S
C107 C108 1.385 . S
C108 H76 0.930 . S
C108 C107 1.385 . S
C108 C109 1.357 . S
C109 C108 1.357 . S
C109 C110 1.406 . S
C110 H77 0.929 . S
C110 C109 1.406 . S
C110 C111 1.391 . S
C111 H78 0.931 . S
C111 C106 1.370 . S
C111 C110 1.391 . S
C112 N86 1.435 . S
C112 C113 1.358 . S
C112 C117 1.371 . S
C113 H79 0.930 . S
C113 C112 1.358 . S
C113 C114 1.405 . S
C114 H80 0.932 . S
C114 C113 1.405 . S
C114 C115 1.383 . S
C115 C114 1.383 . S
C115 C116 1.393 . S
C116 H81 0.931 . S
C116 C115 1.393 . S
C116 C117 1.382 . S
C117 H82 0.929 . S
C117 C112 1.371 . S
C117 C116 1.382 . S
C118 N86 1.423 . S
C118 C119 1.362 . S
C118 C123 1.388 . S
C119 H83 0.929 . S
C119 C118 1.362 . S
C119 C120 1.376 . S
C120 H84 0.931 . S
C120 C119 1.376 . S
C120 C121 1.396 . S
C121 C103 1.472 . S
C121 C120 1.396 . S
C121 C122 1.348 . S
C122 H85 0.929 . S
C122 C121 1.348 . S
C122 C123 1.443 . S
C123 H87 0.932 . S
C123 C118 1.388 . S
C123 C122 1.443 . S
H124 C151 0.929 . S
N125 C150 1.433 . S
N125 C156 1.435 . S
N125 C162 1.423 . S
H126 C152 0.930 . S
H127 C155 0.931 . S
H128 C154 0.929 . S
H129 C157 0.930 . S
H130 C158 0.932 . S
H131 C161 0.929 . S
H132 C160 0.931 . S
H133 C163 0.929 . S
H134 C167 0.932 . S
H135 C164 0.931 . S
H136 C166 0.929 . S
H137 C169 0.929 . S
H138 C170 0.930 . S
H139 C172 0.929 . S
H140 C173 0.931 . S
H141 C175 0.930 . S
H142 C176 0.932 . S
H143 C178 0.931 . S
H144 C179 0.929 . S
H145 C181 0.929 . S
H146 C182 0.931 . S
H147 C184 0.929 . S
N148 C168 1.433 . S
N148 C174 1.435 . S
N148 C180 1.423 . S
H149 C185 0.932 . S
C150 N125 1.433 . S
C150 C151 1.363 . S
C150 C155 1.370 . S
C151 H124 0.929 . S
C151 C150 1.363 . S
C151 C152 1.385 . S
C152 H126 0.930 . S
C152 C151 1.385 . S
C152 C153 1.357 . S
C153 C152 1.357 . S
C153 C154 1.406 . S
C154 H128 0.929 . S
C154 C153 1.406 . S
C154 C155 1.391 . S
C155 H127 0.931 . S
C155 C150 1.370 . S
C155 C154 1.391 . S
C156 N125 1.435 . S
C156 C157 1.358 . S
C156 C161 1.371 . S
C157 H129 0.930 . S
C157 C156 1.358 . S
C157 C158 1.405 . S
C158 H130 0.932 . S
C158 C157 1.405 . S
C158 C159 1.383 . S
C159 C158 1.383 . S
C159 C160 1.393 . S
C160 H132 0.931 . S
C160 C159 1.393 . S
C160 C161 1.382 . S
C161 H131 0.929 . S
C161 C156 1.371 . S
C161 C160 1.382 . S
C162 N125 1.423 . S
C162 C163 1.362 . S
C162 C167 1.388 . S
C163 H133 0.929 . S
C163 C162 1.362 . S
C163 C164 1.376 . S
C164 H135 0.931 . S
C164 C163 1.376 . S
C164 C165 1.396 . S
C165 C164 1.396 . S
C165 C166 1.348 . S
C165 C183 1.472 . S
C166 H136 0.929 . S
C166 C165 1.348 . S
C166 C167 1.443 . S
C167 H134 0.932 . S
C167 C162 1.388 . S
C167 C166 1.443 . S
C168 N148 1.433 . S
C168 C169 1.363 . S
C168 C173 1.370 . S
C169 H137 0.929 . S
C169 C168 1.363 . S
C169 C170 1.385 . S
C170 H138 0.930 . S
C170 C169 1.385 . S
C170 C171 1.357 . S
C171 C170 1.357 . S
C171 C172 1.406 . S
C172 H139 0.929 . S
C172 C171 1.406 . S
C172 C173 1.391 . S
C173 H140 0.931 . S
C173 C168 1.370 . S
C173 C172 1.391 . S
C174 N148 1.435 . S
C174 C175 1.358 . S
C174 C179 1.371 . S
C175 H141 0.930 . S
C175 C174 1.358 . S
C175 C176 1.405 . S
C176 H142 0.932 . S
C176 C175 1.405 . S
C176 C177 1.383 . S
C177 C176 1.383 . S
C177 C178 1.393 . S
C178 H143 0.931 . S
C178 C177 1.393 . S
C178 C179 1.382 . S
C179 H144 0.929 . S
C179 C174 1.371 . S
C179 C178 1.382 . S
C180 N148 1.423 . S
C180 C181 1.362 . S
C180 C185 1.388 . S
C181 H145 0.929 . S
C181 C180 1.362 . S
C181 C182 1.376 . S
C182 H146 0.931 . S
C182 C181 1.376 . S
C182 C183 1.396 . S
C183 C165 1.472 . S
C183 C182 1.396 . S
C183 C184 1.348 . S
C184 H147 0.929 . S
C184 C183 1.348 . S
C184 C185 1.443 . S
C185 H149 0.932 . S
C185 C180 1.388 . S
C185 C184 1.443 . S
H186 C213 0.929 . S
N187 C212 1.433 . S
N187 C218 1.435 . S
N187 C224 1.423 . S
H188 C214 0.930 . S
H189 C217 0.931 . S
H190 C216 0.929 . S
H191 C219 0.930 . S
H192 C220 0.932 . S
H193 C223 0.929 . S
H194 C222 0.931 . S
H195 C225 0.929 . S
H196 C229 0.932 . S
H197 C226 0.931 . S
H198 C228 0.929 . S
H199 C231 0.929 . S
H200 C232 0.930 . S
H201 C234 0.929 . S
H202 C235 0.931 . S
H203 C237 0.930 . S
H204 C238 0.932 . S
H205 C240 0.931 . S
H206 C241 0.929 . S
H207 C243 0.929 . S
H208 C244 0.931 1_455 S
H209 C246 0.929 . S
N210 C230 1.433 . S
N210 C236 1.435 . S
N210 C242 1.423 . S
H211 C247 0.932 . S
C212 N187 1.433 . S
C212 C213 1.363 . S
C212 C217 1.370 . S
C213 H186 0.929 . S
C213 C212 1.363 . S
C213 C214 1.385 . S
C214 H188 0.930 . S
C214 C213 1.385 . S
C214 C215 1.357 . S
C215 C214 1.357 . S
C215 C216 1.406 . S
C216 H190 0.929 . S
C216 C215 1.406 . S
C216 C217 1.391 . S
C217 H189 0.931 . S
C217 C212 1.370 . S
C217 C216 1.391 . S
C218 N187 1.435 . S
C218 C219 1.358 . S
C218 C223 1.371 . S
C219 H191 0.930 . S
C219 C218 1.358 . S
C219 C220 1.405 . S
C220 H192 0.932 . S
C220 C219 1.405 . S
C220 C221 1.383 . S
C221 C220 1.383 . S
C221 C222 1.393 . S
C222 H194 0.931 . S
C222 C221 1.393 . S
C222 C223 1.382 . S
C223 H193 0.929 . S
C223 C218 1.371 . S
C223 C222 1.382 . S
C224 N187 1.423 . S
C224 C225 1.362 . S
C224 C229 1.388 . S
C225 H195 0.929 . S
C225 C224 1.362 . S
C225 C226 1.376 . S
C226 H197 0.931 . S
C226 C225 1.376 . S
C226 C227 1.396 . S
C227 C226 1.396 . S
C227 C228 1.348 . S
C227 C245 1.472 . S
C228 H198 0.929 . S
C228 C227 1.348 . S
C228 C229 1.443 . S
C229 H196 0.932 . S
C229 C224 1.388 . S
C229 C228 1.443 . S
C230 N210 1.433 . S
C230 C231 1.363 . S
C230 C235 1.370 . S
C231 H199 0.929 . S
C231 C230 1.363 . S
C231 C232 1.385 . S
C232 H200 0.930 . S
C232 C231 1.385 . S
C232 C233 1.357 . S
C233 C232 1.357 . S
C233 C234 1.406 . S
C234 H201 0.929 . S
C234 C233 1.406 . S
C234 C235 1.391 . S
C235 H202 0.931 . S
C235 C230 1.370 . S
C235 C234 1.391 . S
C236 N210 1.435 . S
C236 C237 1.358 . S
C236 C241 1.371 . S
C237 H203 0.930 . S
C237 C236 1.358 . S
C237 C238 1.405 . S
C238 H204 0.932 . S
C238 C237 1.405 . S
C238 C239 1.383 . S
C239 C238 1.383 . S
C239 C240 1.393 . S
C240 H205 0.931 . S
C240 C239 1.393 . S
C240 C241 1.382 . S
C241 H206 0.929 . S
C241 C236 1.371 . S
C241 C240 1.382 . S
C242 N210 1.423 . S
C242 C243 1.362 . S
C242 C247 1.388 . S
C243 H207 0.929 . S
C243 C242 1.362 . S
C243 C244 1.376 . S
C244 H208 0.931 1_655 S
C244 C243 1.376 . S
C244 C245 1.396 1_655 S
C245 C227 1.472 . S
C245 C244 1.396 1_455 S
C245 C246 1.348 1_455 S
C246 H209 0.929 . S
C246 C245 1.348 1_655 S
C246 C247 1.443 . S
C247 H211 0.932 . S
C247 C242 1.388 . S
C247 C246 1.443 . S
H248 C275 0.929 . S
N249 C274 1.433 . S
N249 C280 1.435 . S
N249 C286 1.423 . S
H250 C276 0.934 . S
H251 C279 0.931 . S
H252 C278 0.929 . S
H253 C281 0.930 . S
H254 C282 0.932 . S
H255 C285 0.929 . S
H256 C284 0.931 . S
H257 C287 0.929 . S
H258 C291 0.932 . S
H259 C288 0.965 . S
H260 C290 0.929 . S
H261 C293 0.929 . S
H262 C294 0.930 . S
H263 C296 0.929 . S
H264 C297 0.931 . S
H265 C299 0.930 . S
H266 C300 0.932 . S
H267 C302 0.931 . S
H268 C303 0.929 . S
H269 C305 0.929 . S
H270 C306 0.931 1_545 S
H271 C308 0.929 . S
N272 C292 1.433 . S
N272 C298 1.435 1_554 S
N272 C304 1.423 . S
H273 C309 0.932 . S
C274 N249 1.433 . S
C274 C275 1.363 . S
C274 C279 1.417 . S
C275 H248 0.929 . S
C275 C274 1.363 . S
C275 C276 1.430 . S
C276 H250 0.934 . S
C276 C275 1.430 . S
C276 C277 1.311 1_556 S
C277 C276 1.311 1_554 S
C277 C278 1.406 . S
C278 H252 0.929 . S
C278 C277 1.406 . S
C278 C279 1.346 1_554 S
C279 H251 0.931 . S
C279 C274 1.417 . S
C279 C278 1.346 1_556 S
C280 N249 1.435 . S
C280 C281 1.358 . S
C280 C285 1.371 . S
C281 H253 0.930 . S
C281 C280 1.358 . S
C281 C282 1.405 . S
C282 H254 0.932 . S
C282 C281 1.405 . S
C282 C283 1.383 . S
C283 C282 1.383 . S
C283 C284 1.393 . S
C284 H256 0.931 . S
C284 C283 1.393 . S
C284 C285 1.382 . S
C285 H255 0.929 . S
C285 C280 1.371 . S
C285 C284 1.382 . S
C286 N249 1.423 . S
C286 C287 1.362 . S
C286 C291 1.388 . S
C287 H257 0.929 . S
C287 C286 1.362 . S
C287 C288 1.376 . S
C288 H259 0.965 . S
C288 C287 1.376 . S
C288 C289 1.396 . S
C289 C288 1.396 . S
C289 C290 1.348 . S
C289 C307 1.514 . S
C290 H260 0.929 . S
C290 C289 1.348 . S
C290 C291 1.443 . S
C291 H258 0.932 . S
C291 C286 1.388 . S
C291 C290 1.443 . S
C292 N272 1.433 . S
C292 C293 1.363 . S
C292 C297 1.370 . S
C293 H261 0.929 . S
C293 C292 1.363 . S
C293 C294 1.385 . S
C294 H262 0.930 . S
C294 C293 1.385 . S
C294 C295 1.357 . S
C295 C294 1.357 . S
C295 C296 1.406 . S
C296 H263 0.929 . S
C296 C295 1.406 . S
C296 C297 1.391 . S
C297 H264 0.931 . S
C297 C292 1.370 . S
C297 C296 1.391 . S
C298 N272 1.435 1_556 S
C298 C299 1.358 1_556 S
C298 C303 1.371 . S
C299 H265 0.930 . S
C299 C298 1.358 1_554 S
C299 C300 1.405 1_554 S
C300 H266 0.932 . S
C300 C299 1.405 1_556 S
C300 C301 1.383 . S
C301 C300 1.383 . S
C301 C302 1.393 . S
C302 H267 0.931 . S
C302 C301 1.393 . S
C302 C303 1.382 . S
C303 H268 0.929 . S
C303 C298 1.371 . S
C303 C302 1.382 . S
C304 N272 1.423 . S
C304 C305 1.362 . S
C304 C309 1.388 1_554 S
C305 H269 0.929 . S
C305 C304 1.362 . S
C305 C306 1.376 . S
C306 H270 0.931 1_565 S
C306 C305 1.376 . S
C306 C307 1.397 1_564 S
C307 C289 1.514 . S
C307 C306 1.397 1_546 S
C307 C308 1.304 1_545 S
C308 H271 0.929 . S
C308 C307 1.304 1_565 S
C308 C309 1.443 . S
C309 H273 0.932 . S
C309 C304 1.388 1_556 S
C309 C308 1.443 . S
H310 C337 0.929 . S
N311 C336 1.433 . S
N311 C342 1.435 . S
N311 C348 1.423 . S
H312 C338 0.930 . S
H313 C341 0.931 . S
H314 C340 0.929 . S
H315 C343 0.930 . S
H316 C344 0.932 . S
H317 C347 0.929 . S
H318 C346 0.931 . S
H319 C349 0.929 . S
H320 C353 0.932 . S
H321 C350 0.931 . S
H322 C352 0.929 . S
H323 C355 0.929 . S
H324 C356 0.930 . S
H325 C358 0.929 . S
H326 C359 0.931 . S
H327 C361 0.930 . S
H328 C362 0.932 . S
H329 C364 0.931 . S
H330 C365 0.929 . S
H331 C367 0.929 . S
H332 C368 0.931 . S
H333 C370 0.929 . S
N334 C354 1.433 . S
N334 C360 1.435 . S
N334 C366 1.423 . S
H335 C371 0.932 . S
C336 N311 1.433 . S
C336 C337 1.363 . S
C336 C341 1.370 . S
C337 H310 0.929 . S
C337 C336 1.363 . S
C337 C338 1.385 . S
C338 H312 0.930 . S
C338 C337 1.385 . S
C338 C339 1.357 . S
C339 C338 1.357 . S
C339 C340 1.406 . S
C340 H314 0.929 . S
C340 C339 1.406 . S
C340 C341 1.391 . S
C341 H313 0.931 . S
C341 C336 1.370 . S
C341 C340 1.391 . S
C342 N311 1.435 . S
C342 C343 1.358 . S
C342 C347 1.371 . S
C343 H315 0.930 . S
C343 C342 1.358 . S
C343 C344 1.405 . S
C344 H316 0.932 . S
C344 C343 1.405 . S
C344 C345 1.383 . S
C345 C344 1.383 . S
C345 C346 1.393 . S
C346 H318 0.931 . S
C346 C345 1.393 . S
C346 C347 1.382 . S
C347 H317 0.929 . S
C347 C342 1.371 . S
C347 C346 1.382 . S
C348 N311 1.423 . S
C348 C349 1.362 . S
C348 C353 1.388 . S
C349 H319 0.929 . S
C349 C348 1.362 . S
C349 C350 1.376 . S
C350 H321 0.931 . S
C350 C349 1.376 . S
C350 C351 1.396 . S
C351 C350 1.396 . S
C351 C352 1.348 . S
C351 C369 1.472 . S
C352 H322 0.929 . S
C352 C351 1.348 . S
C352 C353 1.443 . S
C353 H320 0.932 . S
C353 C348 1.388 . S
C353 C352 1.443 . S
C354 N334 1.433 . S
C354 C355 1.363 . S
C354 C359 1.370 . S
C355 H323 0.929 . S
C355 C354 1.363 . S
C355 C356 1.385 . S
C356 H324 0.930 . S
C356 C355 1.385 . S
C356 C357 1.357 . S
C357 C356 1.357 . S
C357 C358 1.406 . S
C358 H325 0.929 . S
C358 C357 1.406 . S
C358 C359 1.391 . S
C359 H326 0.931 . S
C359 C354 1.370 . S
C359 C358 1.391 . S
C360 N334 1.435 . S
C360 C361 1.358 . S
C360 C365 1.371 . S
C361 H327 0.930 . S
C361 C360 1.358 . S
C361 C362 1.405 . S
C362 H328 0.932 . S
C362 C361 1.405 . S
C362 C363 1.383 . S
C363 C362 1.383 . S
C363 C364 1.393 . S
C364 H329 0.931 . S
C364 C363 1.393 . S
C364 C365 1.382 . S
C365 H330 0.929 . S
C365 C360 1.371 . S
C365 C364 1.382 . S
C366 N334 1.423 . S
C366 C367 1.362 . S
C366 C371 1.388 . S
C367 H331 0.929 . S
C367 C366 1.362 . S
C367 C368 1.376 . S
C368 H332 0.931 . S
C368 C367 1.376 . S
C368 C369 1.396 . S
C369 C351 1.472 . S
C369 C368 1.396 . S
C369 C370 1.348 . S
C370 H333 0.929 . S
C370 C369 1.348 . S
C370 C371 1.443 . S
C371 H335 0.932 . S
C371 C366 1.388 . S
C371 C370 1.443 . S
Li372 N389 1.990 . S
Li372 O432 1.956 . S
Li372 O433 1.970 . S
Li372 O434 1.961 . S
Li373 N397 1.990 . S
Li373 O432 1.970 . S
Li373 O433 1.956 . S
Li373 O435 1.961 . S
Li374 N419 1.990 . S
Li374 O432 1.961 . S
Li374 O434 1.956 . S
Li374 O435 1.970 . S
Li375 N425 1.990 . S
Li375 O433 1.961 . S
Li375 O434 1.970 . S
Li375 O435 1.956 . S
C376 C378 1.348 . S
C376 C379 1.356 . S
C376 O432 1.325 . S
N377 C380 1.314 . S
N377 C381 1.279 . S
C378 C376 1.348 . S
C378 C380 1.353 . S
C378 H436 0.929 . S
C379 C376 1.356 . S
C379 C381 1.358 . S
C379 H437 0.930 . S
C380 N377 1.314 . S
C380 C378 1.353 . S
C380 H438 0.930 . S
C381 N377 1.279 . S
C381 C379 1.358 . S
C381 H439 0.930 . S
C382 C385 1.348 . S
C382 C386 1.356 . S
C382 O433 1.325 . S
C383 N384 1.279 . S
C383 C386 1.358 . S
C383 H440 0.930 . S
N384 C383 1.279 . S
N384 C387 1.314 . S
C385 C382 1.348 . S
C385 C387 1.353 . S
C385 H441 0.929 . S
C386 C382 1.356 . S
C386 C383 1.358 . S
C386 H442 0.930 . S
C387 N384 1.314 . S
C387 C385 1.353 . S
C387 H443 0.930 . S
C388 N389 1.314 . S
C388 C393 1.353 . S
C388 H394 0.930 . S
N389 Li372 1.990 . S
N389 C388 1.314 . S
N389 C391 1.279 . S
C390 C391 1.358 . S
C390 C392 1.356 . S
C390 H444 0.930 . S
C391 N389 1.279 . S
C391 C390 1.358 . S
C391 H395 0.930 . S
C392 C390 1.356 . S
C392 C393 1.348 . S
C393 C388 1.353 . S
C393 C392 1.348 . S
C393 H445 0.929 . S
H394 C388 0.930 . S
H395 C391 0.930 . S
C396 N397 1.314 . S
C396 C398 1.353 . S
C396 H402 0.930 . S
N397 Li373 1.990 . S
N397 C396 1.314 . S
N397 C400 1.279 . S
C398 C396 1.353 . S
C398 C401 1.348 . S
C398 H446 0.929 . S
C399 C400 1.358 . S
C399 C401 1.356 . S
C399 H447 0.930 . S
C400 N397 1.279 . S
C400 C399 1.358 . S
C400 H403 0.930 . S
C401 C398 1.348 . S
C401 C399 1.356 . S
H402 C396 0.930 . S
H403 C400 0.930 . S
C404 C406 1.348 . S
C404 C407 1.356 . S
C404 O434 1.325 . S
N405 C408 1.314 . S
N405 C409 1.279 . S
C406 C404 1.348 . S
C406 C408 1.353 . S
C406 H448 0.929 . S
C407 C404 1.356 . S
C407 C409 1.358 . S
C407 H449 0.930 . S
C408 N405 1.314 . S
C408 C406 1.353 . S
C408 H450 0.930 . S
C409 N405 1.279 . S
C409 C407 1.358 . S
C409 H451 0.930 . S
C410 C411 1.348 . S
C410 C412 1.356 . S
C410 O435 1.325 . S
C411 C410 1.348 . S
C411 C413 1.353 . S
C411 H452 0.929 . S
C412 C410 1.356 . S
C412 C414 1.358 . S
C412 H453 0.930 . S
C413 C411 1.353 . S
C413 N415 1.314 . S
C413 H454 0.930 . S
C414 C412 1.358 . S
C414 N415 1.279 . S
C414 H455 0.930 . S
N415 C413 1.314 . S
N415 C414 1.279 . S
C416 C418 1.353 . S
C416 N419 1.314 . S
C416 H422 0.930 . S
C417 N419 1.279 . S
C417 C420 1.358 . S
C417 H423 0.930 . S
C418 C416 1.353 . S
C418 C421 1.348 . S
C418 H456 0.929 . S
N419 Li374 1.990 . S
N419 C416 1.314 . S
N419 C417 1.279 . S
C420 C417 1.358 . S
C420 C421 1.356 . S
C420 H457 0.930 . S
C421 C418 1.348 . S
C421 C420 1.356 . S
H422 C416 0.930 . S
H423 C417 0.930 . S
C424 N425 1.314 . S
C424 C426 1.353 . S
C424 H430 0.930 . S
N425 Li375 1.990 . S
N425 C424 1.314 . S
N425 C428 1.279 . S
C426 C424 1.353 . S
C426 C429 1.348 . S
C426 H458 0.929 . S
C427 C428 1.358 . S
C427 C429 1.356 . S
C427 H459 0.930 . S
C428 N425 1.279 . S
C428 C427 1.358 . S
C428 H431 0.930 . S
C429 C426 1.348 . S
C429 C427 1.356 . S
H430 C424 0.930 . S
H431 C428 0.930 . S
O432 Li372 1.956 . S
O432 Li373 1.970 . S
O432 Li374 1.961 . S
O432 C376 1.325 . S
O433 Li372 1.970 . S
O433 Li373 1.956 . S
O433 Li375 1.961 . S
O433 C382 1.325 . S
O434 Li372 1.961 . S
O434 Li374 1.956 . S
O434 Li375 1.970 . S
O434 C404 1.325 . S
O435 Li373 1.961 . S
O435 Li374 1.970 . S
O435 Li375 1.956 . S
O435 C410 1.325 . S
H436 C378 0.929 . S
H437 C379 0.930 . S
H438 C380 0.930 . S
H439 C381 0.930 . S
H440 C383 0.930 . S
H441 C385 0.929 . S
H442 C386 0.930 . S
H443 C387 0.930 . S
H444 C390 0.930 . S
H445 C393 0.929 . S
H446 C398 0.929 . S
H447 C399 0.930 . S
H448 C406 0.929 . S
H449 C407 0.930 . S
H450 C408 0.930 . S
H451 C409 0.930 . S
H452 C411 0.929 . S
H453 C412 0.930 . S
H454 C413 0.930 . S
H455 C414 0.930 . S
H456 C418 0.929 . S
H457 C420 0.930 . S
H458 C426 0.929 . S
H459 C427 0.930 . S
Li460 N477 1.990 . S
Li460 O520 1.956 . S
Li460 O521 1.970 . S
Li460 O522 1.961 . S
Li461 N485 1.990 . S
Li461 O520 1.970 . S
Li461 O521 1.956 . S
Li461 O523 1.961 . S
Li462 N507 1.990 . S
Li462 O520 1.961 . S
Li462 O522 1.956 . S
Li462 O523 1.970 . S
Li463 N513 1.990 . S
Li463 O521 1.961 . S
Li463 O522 1.970 . S
Li463 O523 1.956 . S
C464 C466 1.348 . S
C464 C467 1.356 . S
C464 O520 1.325 . S
N465 C468 1.314 . S
N465 C469 1.279 . S
C466 C464 1.348 . S
C466 C468 1.353 . S
C466 H524 0.929 . S
C467 C464 1.356 . S
C467 C469 1.358 . S
C467 H525 0.930 . S
C468 N465 1.314 . S
C468 C466 1.353 . S
C468 H526 0.930 . S
C469 N465 1.279 . S
C469 C467 1.358 . S
C469 H527 0.930 . S
C470 C473 1.348 . S
C470 C474 1.356 . S
C470 O521 1.325 . S
C471 N472 1.279 . S
C471 C474 1.358 . S
C471 H528 0.930 . S
N472 C471 1.279 . S
N472 C475 1.314 . S
C473 C470 1.348 . S
C473 C475 1.353 . S
C473 H529 0.929 . S
C474 C470 1.356 . S
C474 C471 1.358 . S
C474 H530 0.930 . S
C475 N472 1.314 . S
C475 C473 1.353 . S
C475 H531 0.930 . S
C476 N477 1.314 . S
C476 C481 1.353 . S
C476 H482 0.930 . S
N477 Li460 1.990 . S
N477 C476 1.314 . S
N477 C479 1.279 . S
C478 C479 1.358 . S
C478 C480 1.356 . S
C478 H532 0.930 . S
C479 N477 1.279 . S
C479 C478 1.358 . S
C479 H483 0.930 . S
C480 C478 1.356 . S
C480 C481 1.348 . S
C481 C476 1.353 . S
C481 C480 1.348 . S
C481 H533 0.929 . S
H482 C476 0.930 . S
H483 C479 0.930 . S
C484 N485 1.314 . S
C484 C486 1.353 . S
C484 H490 0.930 . S
N485 Li461 1.990 . S
N485 C484 1.314 . S
N485 C488 1.279 . S
C486 C484 1.353 . S
C486 C489 1.348 . S
C486 H534 0.929 . S
C487 C488 1.358 . S
C487 C489 1.356 . S
C487 H535 0.930 . S
C488 N485 1.279 . S
C488 C487 1.358 . S
C488 H491 0.930 . S
C489 C486 1.348 . S
C489 C487 1.356 . S
H490 C484 0.930 . S
H491 C488 0.930 . S
C492 C494 1.348 . S
C492 C495 1.356 . S
C492 O522 1.325 . S
N493 C496 1.314 . S
N493 C497 1.279 . S
C494 C492 1.348 . S
C494 C496 1.353 . S
C494 H536 0.929 . S
C495 C492 1.356 . S
C495 C497 1.358 . S
C495 H537 0.930 . S
C496 N493 1.314 . S
C496 C494 1.353 . S
C496 H538 0.930 . S
C497 N493 1.279 . S
C497 C495 1.358 . S
C497 H539 0.930 . S
C498 C499 1.348 . S
C498 C500 1.356 . S
C498 O523 1.325 . S
C499 C498 1.348 . S
C499 C501 1.353 . S
C499 H540 0.929 . S
C500 C498 1.356 . S
C500 C502 1.358 . S
C500 H541 0.930 . S
C501 C499 1.353 . S
C501 N503 1.314 . S
C501 H542 0.930 . S
C502 C500 1.358 . S
C502 N503 1.279 . S
C502 H543 0.930 . S
N503 C501 1.314 . S
N503 C502 1.279 . S
C504 C506 1.353 . S
C504 N507 1.314 . S
C504 H510 0.930 . S
C505 N507 1.279 . S
C505 C508 1.358 . S
C505 H511 0.930 . S
C506 C504 1.353 . S
C506 C509 1.348 . S
C506 H544 0.929 . S
N507 Li462 1.990 . S
N507 C504 1.314 . S
N507 C505 1.279 . S
C508 C505 1.358 . S
C508 C509 1.356 . S
C508 H545 0.930 . S
C509 C506 1.348 . S
C509 C508 1.356 . S
H510 C504 0.930 . S
H511 C505 0.930 . S
C512 N513 1.314 . S
C512 C514 1.353 . S
C512 H518 0.930 . S
N513 Li463 1.990 . S
N513 C512 1.314 . S
N513 C516 1.279 . S
C514 C512 1.353 . S
C514 C517 1.348 . S
C514 H546 0.929 . S
C515 C516 1.358 . S
C515 C517 1.356 . S
C515 H547 0.930 . S
C516 N513 1.279 . S
C516 C515 1.358 . S
C516 H519 0.930 . S
C517 C514 1.348 . S
C517 C515 1.356 . S
H518 C512 0.930 . S
H519 C516 0.930 . S
O520 Li460 1.956 . S
O520 Li461 1.970 . S
O520 Li462 1.961 . S
O520 C464 1.325 . S
O521 Li460 1.970 . S
O521 Li461 1.956 . S
O521 Li463 1.961 . S
O521 C470 1.325 . S
O522 Li460 1.961 . S
O522 Li462 1.956 . S
O522 Li463 1.970 . S
O522 C492 1.325 . S
O523 Li461 1.961 . S
O523 Li462 1.970 . S
O523 Li463 1.956 . S
O523 C498 1.325 . S
H524 C466 0.929 . S
H525 C467 0.930 . S
H526 C468 0.930 . S
H527 C469 0.930 . S
H528 C471 0.930 . S
H529 C473 0.929 . S
H530 C474 0.930 . S
H531 C475 0.930 . S
H532 C478 0.930 . S
H533 C481 0.929 . S
H534 C486 0.929 . S
H535 C487 0.930 . S
H536 C494 0.929 . S
H537 C495 0.930 . S
H538 C496 0.930 . S
H539 C497 0.930 . S
H540 C499 0.929 . S
H541 C500 0.930 . S
H542 C501 0.930 . S
H543 C502 0.930 . S
H544 C506 0.929 . S
H545 C508 0.930 . S
H546 C514 0.929 . S
H547 C515 0.930 . S
Li548 N565 1.990 . S
Li548 O608 1.956 . S
Li548 O609 1.970 . S
Li548 O610 1.961 . S
Li549 N573 1.990 . S
Li549 O608 1.970 . S
Li549 O609 1.956 . S
Li549 O611 1.961 . S
Li550 N595 1.990 . S
Li550 O608 1.961 . S
Li550 O610 1.956 . S
Li550 O611 1.970 . S
Li551 N601 1.990 . S
Li551 O609 1.961 . S
Li551 O610 1.970 . S
Li551 O611 1.956 . S
C552 C554 1.348 . S
C552 C555 1.356 . S
C552 O608 1.325 . S
N553 C556 1.314 . S
N553 C557 1.279 . S
C554 C552 1.348 . S
C554 C556 1.353 . S
C554 H612 0.929 . S
C555 C552 1.356 . S
C555 C557 1.358 . S
C555 H613 0.930 . S
C556 N553 1.314 . S
C556 C554 1.353 . S
C556 H614 0.930 . S
C557 N553 1.279 . S
C557 C555 1.358 . S
C557 H615 0.930 . S
C558 C561 1.348 . S
C558 C562 1.356 . S
C558 O609 1.325 . S
C559 N560 1.279 . S
C559 C562 1.358 . S
C559 H616 0.930 . S
N560 C559 1.279 . S
N560 C563 1.314 . S
C561 C558 1.348 . S
C561 C563 1.353 . S
C561 H617 0.929 . S
C562 C558 1.356 . S
C562 C559 1.358 . S
C562 H618 0.930 . S
C563 N560 1.314 . S
C563 C561 1.353 . S
C563 H619 0.930 . S
C564 N565 1.314 . S
C564 C569 1.353 . S
C564 H570 0.930 . S
N565 Li548 1.990 . S
N565 C564 1.314 . S
N565 C567 1.279 . S
C566 C567 1.358 . S
C566 C568 1.356 . S
C566 H620 0.930 . S
C567 N565 1.279 . S
C567 C566 1.358 . S
C567 H571 0.930 . S
C568 C566 1.356 . S
C568 C569 1.348 . S
C569 C564 1.353 . S
C569 C568 1.348 . S
C569 H621 0.929 . S
H570 C564 0.930 . S
H571 C567 0.930 . S
C572 N573 1.314 . S
C572 C574 1.353 . S
C572 H578 0.930 . S
N573 Li549 1.990 . S
N573 C572 1.314 . S
N573 C576 1.279 . S
C574 C572 1.353 . S
C574 C577 1.348 . S
C574 H622 0.929 . S
C575 C576 1.358 . S
C575 C577 1.356 . S
C575 H623 0.930 . S
C576 N573 1.279 . S
C576 C575 1.358 . S
C576 H579 0.930 . S
C577 C574 1.348 . S
C577 C575 1.356 . S
H578 C572 0.930 . S
H579 C576 0.930 . S
C580 C582 1.348 . S
C580 C583 1.356 . S
C580 O610 1.325 . S
N581 C584 1.314 . S
N581 C585 1.279 . S
C582 C580 1.348 . S
C582 C584 1.353 . S
C582 H624 0.929 . S
C583 C580 1.356 . S
C583 C585 1.358 . S
C583 H625 0.930 . S
C584 N581 1.314 . S
C584 C582 1.353 . S
C584 H626 0.930 . S
C585 N581 1.279 . S
C585 C583 1.358 . S
C585 H627 0.930 . S
C586 C587 1.348 . S
C586 C588 1.356 . S
C586 O611 1.325 . S
C587 C586 1.348 . S
C587 C589 1.353 . S
C587 H628 0.929 . S
C588 C586 1.356 . S
C588 C590 1.358 . S
C588 H629 0.930 . S
C589 C587 1.353 . S
C589 N591 1.314 . S
C589 H630 0.930 . S
C590 C588 1.358 . S
C590 N591 1.279 . S
C590 H631 0.930 . S
N591 C589 1.314 . S
N591 C590 1.279 . S
C592 C594 1.353 . S
C592 N595 1.314 . S
C592 H598 0.930 . S
C593 N595 1.279 . S
C593 C596 1.358 . S
C593 H599 0.930 . S
C594 C592 1.353 . S
C594 C597 1.348 . S
C594 H632 0.929 . S
N595 Li550 1.990 . S
N595 C592 1.314 . S
N595 C593 1.279 . S
C596 C593 1.358 . S
C596 C597 1.356 . S
C596 H633 0.930 . S
C597 C594 1.348 . S
C597 C596 1.356 . S
H598 C592 0.930 . S
H599 C593 0.930 . S
C600 N601 1.314 . S
C600 C602 1.353 . S
C600 H606 0.930 . S
N601 Li551 1.990 . S
N601 C600 1.314 . S
N601 C604 1.279 . S
C602 C600 1.353 . S
C602 C605 1.348 . S
C602 H634 0.929 . S
C603 C604 1.358 . S
C603 C605 1.356 . S
C603 H635 0.930 . S
C604 N601 1.279 . S
C604 C603 1.358 . S
C604 H607 0.930 . S
C605 C602 1.348 . S
C605 C603 1.356 . S
H606 C600 0.930 . S
H607 C604 0.930 . S
O608 Li548 1.956 . S
O608 Li549 1.970 . S
O608 Li550 1.961 . S
O608 C552 1.325 . S
O609 Li548 1.970 . S
O609 Li549 1.956 . S
O609 Li551 1.961 . S
O609 C558 1.325 . S
O610 Li548 1.961 . S
O610 Li550 1.956 . S
O610 Li551 1.970 . S
O610 C580 1.325 . S
O611 Li549 1.961 . S
O611 Li550 1.970 . S
O611 Li551 1.956 . S
O611 C586 1.325 . S
H612 C554 0.929 . S
H613 C555 0.930 . S
H614 C556 0.930 . S
H615 C557 0.930 . S
H616 C559 0.930 . S
H617 C561 0.929 . S
H618 C562 0.930 . S
H619 C563 0.930 . S
H620 C566 0.930 . S
H621 C569 0.929 . S
H622 C574 0.929 . S
H623 C575 0.930 . S
H624 C582 0.929 . S
H625 C583 0.930 . S
H626 C584 0.930 . S
H627 C585 0.930 . S
H628 C587 0.929 . S
H629 C588 0.930 . S
H630 C589 0.930 . S
H631 C590 0.930 . S
H632 C594 0.929 . S
H633 C596 0.930 . S
H634 C602 0.929 . S
H635 C603 0.930 . S
Li636 N653 1.990 . S
Li636 O696 1.956 . S
Li636 O697 1.970 . S
Li636 O698 1.961 . S
Li637 N661 1.990 . S
Li637 O696 1.970 . S
Li637 O697 1.956 . S
Li637 O699 1.961 . S
Li638 N683 1.990 . S
Li638 O696 1.961 . S
Li638 O698 1.956 . S
Li638 O699 1.970 . S
Li639 N689 1.990 . S
Li639 O697 1.961 . S
Li639 O698 1.970 . S
Li639 O699 1.956 . S
C640 C642 1.348 . S
C640 C643 1.356 . S
C640 O696 1.325 . S
N641 C644 1.314 . S
N641 C645 1.279 . S
C642 C640 1.348 . S
C642 C644 1.353 . S
C642 H700 0.929 . S
C643 C640 1.356 . S
C643 C645 1.358 . S
C643 H701 0.930 . S
C644 N641 1.314 . S
C644 C642 1.353 . S
C644 H702 0.930 . S
C645 N641 1.279 . S
C645 C643 1.358 . S
C645 H703 0.930 . S
C646 C649 1.348 . S
C646 C650 1.356 . S
C646 O697 1.325 . S
C647 N648 1.279 . S
C647 C650 1.358 . S
C647 H704 0.930 . S
N648 C647 1.279 . S
N648 C651 1.314 . S
C649 C646 1.348 . S
C649 C651 1.353 . S
C649 H705 0.929 . S
C650 C646 1.356 . S
C650 C647 1.358 . S
C650 H706 0.930 . S
C651 N648 1.314 . S
C651 C649 1.353 . S
C651 H707 0.930 . S
C652 N653 1.314 . S
C652 C657 1.353 . S
C652 H658 0.930 . S
N653 Li636 1.990 . S
N653 C652 1.314 . S
N653 C655 1.279 . S
C654 C655 1.358 . S
C654 C656 1.356 . S
C654 H708 0.930 1_556 S
C655 N653 1.279 . S
C655 C654 1.358 . S
C655 H659 0.930 . S
C656 C654 1.356 . S
C656 C657 1.348 . S
C657 C652 1.353 . S
C657 C656 1.348 . S
C657 H709 0.929 . S
H658 C652 0.930 . S
H659 C655 0.930 . S
C660 N661 1.314 . S
C660 C662 1.353 . S
C660 H666 0.930 . S
N661 Li637 1.990 . S
N661 C660 1.314 . S
N661 C664 1.279 . S
C662 C660 1.353 . S
C662 C665 1.348 . S
C662 H710 0.929 . S
C663 C664 1.358 . S
C663 C665 1.356 . S
C663 H711 0.930 . S
C664 N661 1.279 . S
C664 C663 1.358 . S
C664 H667 0.930 . S
C665 C662 1.348 . S
C665 C663 1.356 . S
H666 C660 0.930 . S
H667 C664 0.930 . S
C668 C670 1.348 . S
C668 C671 1.356 . S
C668 O698 1.325 . S
N669 C672 1.314 . S
N669 C673 1.279 . S
C670 C668 1.348 . S
C670 C672 1.353 . S
C670 H712 0.929 . S
C671 C668 1.356 . S
C671 C673 1.358 . S
C671 H713 0.930 . S
C672 N669 1.314 . S
C672 C670 1.353 . S
C672 H714 0.930 . S
C673 N669 1.279 . S
C673 C671 1.358 . S
C673 H715 0.930 . S
C674 C675 1.348 . S
C674 C676 1.356 . S
C674 O699 1.325 . S
C675 C674 1.348 . S
C675 C677 1.353 . S
C675 H716 0.929 . S
C676 C674 1.356 . S
C676 C678 1.358 . S
C676 H717 0.930 . S
C677 C675 1.353 . S
C677 N679 1.314 . S
C677 H718 0.930 . S
C678 C676 1.358 . S
C678 N679 1.279 . S
C678 H719 0.930 . S
N679 C677 1.314 . S
N679 C678 1.279 . S
C680 C682 1.353 . S
C680 N683 1.314 . S
C680 H686 0.930 . S
C681 N683 1.279 . S
C681 C684 1.358 . S
C681 H687 0.930 . S
C682 C680 1.353 . S
C682 C685 1.348 . S
C682 H720 0.929 . S
N683 Li638 1.990 . S
N683 C680 1.314 . S
N683 C681 1.279 . S
C684 C681 1.358 . S
C684 C685 1.356 . S
C684 H721 0.930 . S
C685 C682 1.348 . S
C685 C684 1.356 . S
H686 C680 0.930 . S
H687 C681 0.930 . S
C688 N689 1.314 . S
C688 C690 1.353 . S
C688 H694 0.930 . S
N689 Li639 1.990 . S
N689 C688 1.314 . S
N689 C692 1.279 . S
C690 C688 1.353 . S
C690 C693 1.348 . S
C690 H722 0.929 . S
C691 C692 1.358 . S
C691 C693 1.356 . S
C691 H723 0.930 . S
C692 N689 1.279 . S
C692 C691 1.358 . S
C692 H695 0.930 . S
C693 C690 1.348 . S
C693 C691 1.356 . S
H694 C688 0.930 . S
H695 C692 0.930 . S
O696 Li636 1.956 . S
O696 Li637 1.970 . S
O696 Li638 1.961 . S
O696 C640 1.325 . S
O697 Li636 1.970 . S
O697 Li637 1.956 . S
O697 Li639 1.961 . S
O697 C646 1.325 . S
O698 Li636 1.961 . S
O698 Li638 1.956 . S
O698 Li639 1.970 . S
O698 C668 1.325 . S
O699 Li637 1.961 . S
O699 Li638 1.970 . S
O699 Li639 1.956 . S
O699 C674 1.325 . S
H700 C642 0.929 . S
H701 C643 0.930 . S
H702 C644 0.930 . S
H703 C645 0.930 . S
H704 C647 0.930 . S
H705 C649 0.929 . S
H706 C650 0.930 . S
H707 C651 0.930 . S
H708 C654 0.930 1_554 S
H709 C657 0.929 . S
H710 C662 0.929 . S
H711 C663 0.930 . S
H712 C670 0.929 . S
H713 C671 0.930 . S
H714 C672 0.930 . S
H715 C673 0.930 . S
H716 C675 0.929 . S
H717 C676 0.930 . S
H718 C677 0.930 . S
H719 C678 0.930 . S
H720 C682 0.929 . S
H721 C684 0.930 . S
H722 C690 0.929 . S
H723 C691 0.930 . S
Li724 N741 1.990 . S
Li724 O784 1.956 . S
Li724 O785 1.970 . S
Li724 O786 1.961 . S
Li725 N749 1.990 . S
Li725 O784 1.970 . S
Li725 O785 1.956 . S
Li725 O787 1.961 . S
Li726 N771 1.990 . S
Li726 O784 1.961 . S
Li726 O786 1.956 . S
Li726 O787 1.970 . S
Li727 N777 1.990 . S
Li727 O785 1.961 . S
Li727 O786 1.970 . S
Li727 O787 1.956 . S
C728 C730 1.348 . S
C728 C731 1.356 . S
C728 O784 1.325 . S
N729 C732 1.314 . S
N729 C733 1.279 . S
C730 C728 1.348 . S
C730 C732 1.353 . S
C730 H788 0.929 . S
C731 C728 1.356 . S
C731 C733 1.358 . S
C731 H789 0.930 . S
C732 N729 1.314 . S
C732 C730 1.353 . S
C732 H790 0.930 . S
C733 N729 1.279 . S
C733 C731 1.358 . S
C733 H791 0.930 . S
C734 C737 1.348 . S
C734 C738 1.356 . S
C734 O785 1.325 . S
C735 N736 1.279 . S
C735 C738 1.358 . S
C735 H792 0.930 . S
N736 C735 1.279 . S
N736 C739 1.314 . S
C737 C734 1.348 . S
C737 C739 1.353 . S
C737 H793 0.929 . S
C738 C734 1.356 . S
C738 C735 1.358 . S
C738 H794 0.930 . S
C739 N736 1.314 . S
C739 C737 1.353 . S
C739 H795 0.930 . S
C740 N741 1.314 . S
C740 C745 1.353 . S
C740 H746 0.930 . S
N741 Li724 1.990 . S
N741 C740 1.314 . S
N741 C743 1.279 . S
C742 C743 1.358 . S
C742 C744 1.356 . S
C742 H796 0.930 . S
C743 N741 1.279 . S
C743 C742 1.358 . S
C743 H747 0.930 . S
C744 C742 1.356 . S
C744 C745 1.348 . S
C745 C740 1.353 . S
C745 C744 1.348 . S
C745 H797 0.929 . S
H746 C740 0.930 . S
H747 C743 0.930 . S
C748 N749 1.314 . S
C748 C750 1.353 . S
C748 H754 0.930 . S
N749 Li725 1.990 . S
N749 C748 1.314 . S
N749 C752 1.279 . S
C750 C748 1.353 . S
C750 C753 1.348 . S
C750 H798 0.929 . S
C751 C752 1.358 . S
C751 C753 1.356 . S
C751 H799 0.930 . S
C752 N749 1.279 . S
C752 C751 1.358 . S
C752 H755 0.930 . S
C753 C750 1.348 . S
C753 C751 1.356 . S
H754 C748 0.930 . S
H755 C752 0.930 . S
C756 C758 1.348 . S
C756 C759 1.356 . S
C756 O786 1.325 . S
N757 C760 1.314 . S
N757 C761 1.279 . S
C758 C756 1.348 . S
C758 C760 1.353 . S
C758 H800 0.929 . S
C759 C756 1.356 . S
C759 C761 1.358 . S
C759 H801 0.930 . S
C760 N757 1.314 . S
C760 C758 1.353 . S
C760 H802 0.930 . S
C761 N757 1.279 . S
C761 C759 1.358 . S
C761 H803 0.930 . S
C762 C763 1.348 . S
C762 C764 1.356 . S
C762 O787 1.325 . S
C763 C762 1.348 . S
C763 C765 1.353 . S
C763 H804 0.929 . S
C764 C762 1.356 . S
C764 C766 1.358 . S
C764 H805 0.930 . S
C765 C763 1.353 . S
C765 N767 1.314 . S
C765 H806 0.930 . S
C766 C764 1.358 . S
C766 N767 1.279 . S
C766 H807 0.930 . S
N767 C765 1.314 . S
N767 C766 1.279 . S
C768 C770 1.353 . S
C768 N771 1.314 . S
C768 H774 0.930 . S
C769 N771 1.279 . S
C769 C772 1.395 . S
C769 H775 0.930 . S
C770 C768 1.353 . S
C770 C773 1.348 . S
C770 H808 0.929 . S
N771 Li726 1.990 . S
N771 C768 1.314 . S
N771 C769 1.279 . S
C772 C769 1.395 . S
C772 C773 1.360 . S
C772 H809 0.890 1_554 S
C773 C770 1.348 . S
C773 C772 1.360 . S
H774 C768 0.930 . S
H775 C769 0.930 . S
C776 N777 1.314 . S
C776 C778 1.353 . S
C776 H782 0.930 . S
N777 Li727 1.990 . S
N777 C776 1.314 . S
N777 C780 1.279 . S
C778 C776 1.353 . S
C778 C781 1.348 . S
C778 H810 0.929 . S
C779 C780 1.358 . S
C779 C781 1.356 . S
C779 H811 0.930 . S
C780 N777 1.279 . S
C780 C779 1.358 . S
C780 H783 0.930 . S
C781 C778 1.348 . S
C781 C779 1.356 . S
H782 C776 0.930 . S
H783 C780 0.930 . S
O784 Li724 1.956 . S
O784 Li725 1.970 . S
O784 Li726 1.961 . S
O784 C728 1.325 . S
O785 Li724 1.970 . S
O785 Li725 1.956 . S
O785 Li727 1.961 . S
O785 C734 1.325 . S
O786 Li724 1.961 . S
O786 Li726 1.956 . S
O786 Li727 1.970 . S
O786 C756 1.325 . S
O787 Li725 1.961 . S
O787 Li726 1.970 . S
O787 Li727 1.956 . S
O787 C762 1.325 . S
H788 C730 0.929 . S
H789 C731 0.930 . S
H790 C732 0.930 . S
H791 C733 0.930 . S
H792 C735 0.930 . S
H793 C737 0.929 . S
H794 C738 0.930 . S
H795 C739 0.930 . S
H796 C742 0.930 . S
H797 C745 0.929 . S
H798 C750 0.929 . S
H799 C751 0.930 . S
H800 C758 0.929 . S
H801 C759 0.930 . S
H802 C760 0.930 . S
H803 C761 0.930 . S
H804 C763 0.929 . S
H805 C764 0.930 . S
H806 C765 0.930 . S
H807 C766 0.930 . S
H808 C770 0.929 . S
H809 C772 0.890 1_556 S
H810 C778 0.929 . S
H811 C779 0.930 . S
Li812 N829 1.990 . S
Li812 O872 1.956 . S
Li812 O873 1.970 . S
Li812 O874 1.961 . S
Li813 N837 1.990 . S
Li813 O872 1.970 . S
Li813 O873 1.956 . S
Li813 O875 1.961 . S
Li814 N859 1.990 . S
Li814 O872 1.961 . S
Li814 O874 1.956 . S
Li814 O875 1.970 . S
Li815 N865 1.990 . S
Li815 O873 1.961 . S
Li815 O874 1.970 . S
Li815 O875 1.956 . S
C816 C818 1.348 . S
C816 C819 1.356 . S
C816 O872 1.325 . S
N817 C820 1.314 . S
N817 C821 1.279 . S
C818 C816 1.348 . S
C818 C820 1.353 . S
C818 H876 0.929 . S
C819 C816 1.356 . S
C819 C821 1.358 . S
C819 H877 0.930 . S
C820 N817 1.314 . S
C820 C818 1.353 . S
C820 H878 0.930 . S
C821 N817 1.279 . S
C821 C819 1.358 . S
C821 H879 0.930 . S
C822 C825 1.348 . S
C822 C826 1.356 . S
C822 O873 1.325 . S
C823 N824 1.279 . S
C823 C826 1.358 . S
C823 H880 0.930 . S
N824 C823 1.279 . S
N824 C827 1.314 . S
C825 C822 1.348 . S
C825 C827 1.353 . S
C825 H881 0.929 . S
C826 C822 1.356 . S
C826 C823 1.358 . S
C826 H882 0.930 . S
C827 N824 1.314 . S
C827 C825 1.353 . S
C827 H883 0.930 . S
C828 N829 1.314 . S
C828 C833 1.353 . S
C828 H834 0.930 . S
N829 Li812 1.990 . S
N829 C828 1.314 . S
N829 C831 1.279 . S
C830 C831 1.358 . S
C830 C832 1.356 . S
C830 H884 0.930 . S
C831 N829 1.279 . S
C831 C830 1.358 . S
C831 H835 0.930 . S
C832 C830 1.356 . S
C832 C833 1.348 . S
C833 C828 1.353 . S
C833 C832 1.348 . S
C833 H885 0.929 . S
H834 C828 0.930 . S
H835 C831 0.930 . S
C836 N837 1.314 . S
C836 C838 1.353 . S
C836 H842 0.930 . S
N837 Li813 1.990 . S
N837 C836 1.314 . S
N837 C840 1.279 . S
C838 C836 1.353 . S
C838 C841 1.348 . S
C838 H886 0.929 . S
C839 C840 1.358 . S
C839 C841 1.356 . S
C839 H887 0.930 . S
C840 N837 1.279 . S
C840 C839 1.358 . S
C840 H843 0.930 . S
C841 C838 1.348 . S
C841 C839 1.356 . S
H842 C836 0.930 . S
H843 C840 0.930 . S
C844 C846 1.348 . S
C844 C847 1.356 . S
C844 O874 1.325 . S
N845 C848 1.314 . S
N845 C849 1.279 . S
C846 C844 1.348 . S
C846 C848 1.353 . S
C846 H888 0.929 . S
C847 C844 1.356 . S
C847 C849 1.358 . S
C847 H889 0.930 . S
C848 N845 1.314 . S
C848 C846 1.353 . S
C848 H890 0.930 . S
C849 N845 1.279 . S
C849 C847 1.358 . S
C849 H891 0.930 . S
C850 C851 1.348 . S
C850 C852 1.356 . S
C850 O875 1.325 . S
C851 C850 1.348 . S
C851 C853 1.353 . S
C851 H892 0.929 . S
C852 C850 1.356 . S
C852 C854 1.358 . S
C852 H893 0.930 . S
C853 C851 1.353 . S
C853 N855 1.314 . S
C853 H894 0.930 . S
C854 C852 1.358 . S
C854 N855 1.279 . S
C854 H895 0.930 . S
N855 C853 1.314 . S
N855 C854 1.279 . S
C856 C858 1.353 . S
C856 N859 1.314 . S
C856 H862 0.930 . S
C857 N859 1.279 . S
C857 C860 1.358 . S
C857 H863 0.930 . S
C858 C856 1.353 . S
C858 C861 1.348 . S
C858 H896 0.929 . S
N859 Li814 1.990 . S
N859 C856 1.314 . S
N859 C857 1.279 . S
C860 C857 1.358 . S
C860 C861 1.356 . S
C860 H897 0.930 . S
C861 C858 1.348 . S
C861 C860 1.356 . S
H862 C856 0.930 . S
H863 C857 0.930 . S
C864 N865 1.314 . S
C864 C866 1.353 . S
C864 H870 0.930 . S
N865 Li815 1.990 . S
N865 C864 1.314 . S
N865 C868 1.279 . S
C866 C864 1.353 . S
C866 C869 1.348 . S
C866 H898 0.929 . S
C867 C868 1.358 . S
C867 C869 1.356 . S
C867 H899 0.930 . S
C868 N865 1.279 . S
C868 C867 1.358 . S
C868 H871 0.930 . S
C869 C866 1.348 . S
C869 C867 1.356 . S
H870 C864 0.930 . S
H871 C868 0.930 . S
O872 Li812 1.956 . S
O872 Li813 1.970 . S
O872 Li814 1.961 . S
O872 C816 1.325 . S
O873 Li812 1.970 . S
O873 Li813 1.956 . S
O873 Li815 1.961 . S
O873 C822 1.325 . S
O874 Li812 1.961 . S
O874 Li814 1.956 . S
O874 Li815 1.970 . S
O874 C844 1.325 . S
O875 Li813 1.961 . S
O875 Li814 1.970 . S
O875 Li815 1.956 . S
O875 C850 1.325 . S
H876 C818 0.929 . S
H877 C819 0.930 . S
H878 C820 0.930 . S
H879 C821 0.930 . S
H880 C823 0.930 . S
H881 C825 0.929 . S
H882 C826 0.930 . S
H883 C827 0.930 . S
H884 C830 0.930 . S
H885 C833 0.929 . S
H886 C838 0.929 . S
H887 C839 0.930 . S
H888 C846 0.929 . S
H889 C847 0.930 . S
H890 C848 0.930 . S
H891 C849 0.930 . S
H892 C851 0.929 . S
H893 C852 0.930 . S
H894 C853 0.930 . S
H895 C854 0.930 . S
H896 C858 0.929 . S
H897 C860 0.930 . S
H898 C866 0.929 . S
H899 C867 0.930 . S
H900 C906 0.930 . S
H901 C910 0.930 . S
H902 C915 0.929 . S
H903 C913 0.929 . S
H904 C908 0.929 . S
H905 C914 0.929 . S
C906 H900 0.930 . S
C906 C907 1.367 . S
C906 C914 1.378 . S
C907 C906 1.367 . S
C907 C915 1.433 . S
C908 H904 0.929 . S
C908 C910 1.378 . S
C908 C912 1.350 . S
C909 C912 1.463 . S
C909 C914 1.350 . S
C909 N917 1.427 . S
C910 H901 0.930 . S
C910 C908 1.378 . S
C910 C911 1.367 . S
C911 C910 1.367 . S
C911 C913 1.433 . S
C912 C908 1.350 . S
C912 C909 1.463 . S
C912 N916 1.427 . S
C913 H903 0.929 . S
C913 C911 1.433 . S
C913 N916 1.384 . S
C914 H905 0.929 . S
C914 C906 1.378 . S
C914 C909 1.350 . S
C915 H902 0.929 . S
C915 C907 1.433 . S
C915 N917 1.384 . S
N916 C912 1.427 . S
N916 C913 1.384 . S
N917 C909 1.427 . S
N917 C915 1.384 . S
H918 C924 0.930 . S
H919 C928 0.930 . S
H920 C933 0.929 . S
H921 C931 0.929 . S
H922 C926 0.929 . S
H923 C932 0.929 . S
C924 H918 0.930 . S
C924 C925 1.367 . S
C924 C932 1.378 . S
C925 C924 1.367 . S
C925 C933 1.433 . S
C926 H922 0.929 . S
C926 C928 1.378 . S
C926 C930 1.350 . S
C927 C930 1.463 . S
C927 C932 1.350 . S
C927 N935 1.427 . S
C928 H919 0.930 . S
C928 C926 1.378 . S
C928 C929 1.367 . S
C929 C928 1.367 . S
C929 C931 1.433 . S
C930 C926 1.350 . S
C930 C927 1.463 . S
C930 N934 1.427 . S
C931 H921 0.929 . S
C931 C929 1.433 . S
C931 N934 1.384 . S
C932 H923 0.929 . S
C932 C924 1.378 . S
C932 C927 1.350 . S
C933 H920 0.929 . S
C933 C925 1.433 . S
C933 N935 1.384 . S
N934 C930 1.427 . S
N934 C931 1.384 . S
N935 C927 1.427 . S
N935 C933 1.384 . S
H936 C942 0.930 . S
H937 C946 0.930 . S
H938 C951 0.929 . S
H939 C949 0.929 . S
H940 C944 0.929 . S
H941 C950 0.929 . S
C942 H936 0.930 . S
C942 C943 1.367 . S
C942 C950 1.378 . S
C943 C942 1.367 . S
C943 C951 1.433 . S
C944 H940 0.929 . S
C944 C946 1.378 . S
C944 C948 1.350 . S
C945 C948 1.463 . S
C945 C950 1.350 . S
C945 N953 1.427 . S
C946 H937 0.930 . S
C946 C944 1.378 . S
C946 C947 1.367 . S
C947 C946 1.367 . S
C947 C949 1.433 . S
C948 C944 1.350 . S
C948 C945 1.463 . S
C948 N952 1.427 . S
C949 H939 0.929 . S
C949 C947 1.433 . S
C949 N952 1.384 . S
C950 H941 0.929 . S
C950 C942 1.378 . S
C950 C945 1.350 . S
C951 H938 0.929 . S
C951 C943 1.433 . S
C951 N953 1.384 . S
N952 C948 1.427 . S
N952 C949 1.384 . S
N953 C945 1.427 . S
N953 C951 1.384 . S
H954 C960 0.930 . S
H955 C964 0.930 . S
H956 C969 0.929 . S
H957 C967 0.929 . S
H958 C962 0.929 . S
H959 C968 0.929 . S
C960 H954 0.930 . S
C960 C961 1.367 . S
C960 C968 1.378 . S
C961 C960 1.367 . S
C961 C969 1.433 . S
C962 H958 0.929 . S
C962 C964 1.378 . S
C962 C966 1.350 . S
C963 C966 1.463 . S
C963 C968 1.350 . S
C963 N971 1.427 . S
C964 H955 0.930 . S
C964 C962 1.378 . S
C964 C965 1.367 . S
C965 C964 1.367 . S
C965 C967 1.433 . S
C966 C962 1.350 . S
C966 C963 1.463 . S
C966 N970 1.427 . S
C967 H957 0.929 . S
C967 C965 1.433 . S
C967 N970 1.384 . S
C968 H959 0.929 . S
C968 C960 1.378 . S
C968 C963 1.350 . S
C969 H956 0.929 . S
C969 C961 1.433 . S
C969 N971 1.384 . S
N970 C966 1.427 . S
N970 C967 1.384 . S
N971 C963 1.427 . S
N971 C969 1.384 . S
H972 C978 0.930 . S
H973 C982 0.930 . S
H974 C987 0.929 . S
H975 C985 0.929 . S
H976 C980 0.929 . S
H977 C986 0.929 . S
C978 H972 0.930 . S
C978 C979 1.367 . S
C978 C986 1.378 . S
C979 C978 1.367 . S
C979 C987 1.433 . S
C980 H976 0.929 . S
C980 C982 1.378 . S
C980 C984 1.350 . S
C981 C984 1.463 . S
C981 C986 1.350 . S
C981 N989 1.427 . S
C982 H973 0.930 . S
C982 C980 1.378 . S
C982 C983 1.367 . S
C983 C982 1.367 . S
C983 C985 1.433 . S
C984 C980 1.350 . S
C984 C981 1.463 . S
C984 N988 1.427 . S
C985 H975 0.929 . S
C985 C983 1.433 . S
C985 N988 1.384 . S
C986 H977 0.929 . S
C986 C978 1.378 . S
C986 C981 1.350 . S
C987 H974 0.929 . S
C987 C979 1.433 . S
C987 N989 1.384 . S
N988 C984 1.427 . S
N988 C985 1.384 . S
N989 C981 1.427 . S
N989 C987 1.384 . S
H990 C996 0.930 . S
H991 C1000 0.930 . S
H992 C1005 0.929 . S
H993 C1003 0.929 . S
H994 C998 0.929 . S
H995 C1004 0.929 . S
C996 H990 0.930 . S
C996 C997 1.367 . S
C996 C1004 1.378 . S
C997 C996 1.367 . S
C997 C1005 1.433 . S
C998 H994 0.929 . S
C998 C1000 1.378 . S
C998 C1002 1.350 . S
C999 C1002 1.463 . S
C999 C1004 1.350 . S
C999 N1007 1.427 . S
C1000 H991 0.930 . S
C1000 C998 1.378 . S
C1000 C1001 1.367 . S
C1001 C1000 1.367 . S
C1001 C1003 1.433 . S
C1002 C998 1.350 . S
C1002 C999 1.463 . S
C1002 N1006 1.427 . S
C1003 H993 0.929 . S
C1003 C1001 1.433 . S
C1003 N1006 1.384 . S
C1004 H995 0.929 . S
C1004 C996 1.378 . S
C1004 C999 1.350 . S
C1005 H992 0.929 . S
C1005 C997 1.433 . S
C1005 N1007 1.384 . S
N1006 C1002 1.427 . S
N1006 C1003 1.384 . S
N1007 C999 1.427 . S
N1007 C1005 1.384 . S
H1008 C1014 0.930 . S
H1009 C1018 0.930 . S
H1010 C1023 0.929 . S
H1011 C1021 0.929 . S
H1012 C1016 0.929 . S
H1013 C1022 0.929 . S
C1014 H1008 0.930 . S
C1014 C1015 1.367 . S
C1014 C1022 1.378 . S
C1015 C1014 1.367 . S
C1015 C1023 1.433 . S
C1016 H1012 0.929 . S
C1016 C1018 1.378 . S
C1016 C1020 1.350 . S
C1017 C1020 1.463 . S
C1017 C1022 1.350 . S
C1017 N1025 1.427 . S
C1018 H1009 0.930 . S
C1018 C1016 1.378 . S
C1018 C1019 1.367 . S
C1019 C1018 1.367 . S
C1019 C1021 1.433 . S
C1020 C1016 1.350 . S
C1020 C1017 1.463 . S
C1020 N1024 1.427 . S
C1021 H1011 0.929 . S
C1021 C1019 1.433 . S
C1021 N1024 1.384 . S
C1022 H1013 0.929 . S
C1022 C1014 1.378 . S
C1022 C1017 1.350 . S
C1023 H1010 0.929 . S
C1023 C1015 1.433 . S
C1023 N1025 1.384 . S
N1024 C1020 1.427 . S
N1024 C1021 1.384 . S
N1025 C1017 1.427 . S
N1025 C1023 1.384 . S
H1026 C1032 0.930 . S
H1027 C1036 0.930 . S
H1028 C1041 0.929 . S
H1029 C1039 0.929 . S
H1030 C1034 0.929 . S
H1031 C1040 0.929 . S
C1032 H1026 0.930 . S
C1032 C1033 1.367 . S
C1032 C1040 1.378 . S
C1033 C1032 1.367 . S
C1033 C1041 1.433 . S
C1034 H1030 0.929 . S
C1034 C1036 1.378 . S
C1034 C1038 1.350 . S
C1035 C1038 1.463 . S
C1035 C1040 1.350 . S
C1035 N1043 1.427 . S
C1036 H1027 0.930 . S
C1036 C1034 1.378 . S
C1036 C1037 1.367 . S
C1037 C1036 1.367 . S
C1037 C1039 1.433 . S
C1038 C1034 1.350 . S
C1038 C1035 1.463 . S
C1038 N1042 1.427 . S
C1039 H1029 0.929 . S
C1039 C1037 1.433 . S
C1039 N1042 1.384 . S
C1040 H1031 0.929 . S
C1040 C1032 1.378 . S
C1040 C1035 1.350 . S
C1041 H1028 0.929 . S
C1041 C1033 1.433 . S
C1041 N1043 1.384 . S
N1042 C1038 1.427 . S
N1042 C1039 1.384 . S
N1043 C1035 1.427 . S
N1043 C1041 1.384 . S
H1044 C1050 0.930 . S
H1045 C1054 0.930 . S
H1046 C1059 0.929 . S
H1047 C1057 0.929 . S
H1048 C1052 0.929 . S
H1049 C1058 0.929 . S
C1050 H1044 0.930 . S
C1050 C1051 1.367 . S
C1050 C1058 1.378 . S
C1051 C1050 1.367 . S
C1051 C1059 1.433 . S
C1052 H1048 0.929 . S
C1052 C1054 1.378 . S
C1052 C1056 1.350 . S
C1053 C1056 1.463 . S
C1053 C1058 1.350 . S
C1053 N1061 1.427 . S
C1054 H1045 0.930 . S
C1054 C1052 1.378 . S
C1054 C1055 1.367 . S
C1055 C1054 1.367 . S
C1055 C1057 1.433 . S
C1056 C1052 1.350 . S
C1056 C1053 1.463 . S
C1056 N1060 1.427 . S
C1057 H1047 0.929 . S
C1057 C1055 1.433 . S
C1057 N1060 1.384 . S
C1058 H1049 0.929 . S
C1058 C1050 1.378 . S
C1058 C1053 1.350 . S
C1059 H1046 0.929 . S
C1059 C1051 1.433 . S
C1059 N1061 1.384 . S
N1060 C1056 1.427 . S
N1060 C1057 1.384 . S
N1061 C1053 1.427 . S
N1061 C1059 1.384 . S
H1062 C1068 0.930 . S
H1063 C1072 0.930 . S
H1064 C1077 0.929 . S
H1065 C1075 0.929 . S
H1066 C1070 0.929 . S
H1067 C1076 0.929 . S
C1068 H1062 0.930 . S
C1068 C1069 1.367 . S
C1068 C1076 1.378 . S
C1069 C1068 1.367 . S
C1069 C1077 1.433 . S
C1070 H1066 0.929 . S
C1070 C1072 1.378 . S
C1070 C1074 1.350 . S
C1071 C1074 1.463 . S
C1071 C1076 1.350 . S
C1071 N1079 1.427 . S
C1072 H1063 0.930 . S
C1072 C1070 1.378 . S
C1072 C1073 1.367 . S
C1073 C1072 1.367 . S
C1073 C1075 1.433 . S
C1074 C1070 1.350 . S
C1074 C1071 1.463 . S
C1074 N1078 1.427 . S
C1075 H1065 0.929 . S
C1075 C1073 1.433 . S
C1075 N1078 1.384 . S
C1076 H1067 0.929 . S
C1076 C1068 1.378 . S
C1076 C1071 1.350 . S
C1077 H1064 0.929 . S
C1077 C1069 1.433 . S
C1077 N1079 1.384 . S
N1078 C1074 1.427 . S
N1078 C1075 1.384 . S
N1079 C1071 1.427 . S
N1079 C1077 1.384 . S
H1080 C1086 0.930 . S
H1081 C1090 0.930 . S
H1082 C1095 0.929 . S
H1083 C1093 0.929 . S
H1084 C1088 0.929 . S
H1085 C1094 0.929 . S
C1086 H1080 0.930 . S
C1086 C1087 1.367 . S
C1086 C1094 1.378 . S
C1087 C1086 1.367 . S
C1087 C1095 1.433 . S
C1088 H1084 0.929 . S
C1088 C1090 1.378 . S
C1088 C1092 1.350 . S
C1089 C1092 1.463 . S
C1089 C1094 1.350 . S
C1089 N1097 1.427 . S
C1090 H1081 0.930 . S
C1090 C1088 1.378 . S
C1090 C1091 1.367 . S
C1091 C1090 1.367 . S
C1091 C1093 1.433 . S
C1092 C1088 1.350 . S
C1092 C1089 1.463 . S
C1092 N1096 1.427 . S
C1093 H1083 0.929 . S
C1093 C1091 1.433 . S
C1093 N1096 1.384 . S
C1094 H1085 0.929 . S
C1094 C1086 1.378 . S
C1094 C1089 1.350 . S
C1095 H1082 0.929 . S
C1095 C1087 1.433 . S
C1095 N1097 1.384 . S
N1096 C1092 1.427 . S
N1096 C1093 1.384 . S
N1097 C1089 1.427 . S
N1097 C1095 1.384 . S
H1098 C1104 0.930 . S
H1099 C1108 0.930 . S
H1100 C1113 0.929 . S
H1101 C1111 0.929 . S
H1102 C1106 0.929 . S
H1103 C1112 0.929 . S
C1104 H1098 0.930 . S
C1104 C1105 1.367 . S
C1104 C1112 1.378 . S
C1105 C1104 1.367 . S
C1105 C1113 1.433 . S
C1106 H1102 0.929 . S
C1106 C1108 1.378 . S
C1106 C1110 1.350 . S
C1107 C1110 1.463 . S
C1107 C1112 1.350 . S
C1107 N1115 1.427 . S
C1108 H1099 0.930 . S
C1108 C1106 1.378 . S
C1108 C1109 1.367 . S
C1109 C1108 1.367 . S
C1109 C1111 1.433 . S
C1110 C1106 1.350 . S
C1110 C1107 1.463 . S
C1110 N1114 1.427 . S
C1111 H1101 0.929 . S
C1111 C1109 1.433 . S
C1111 N1114 1.384 . S
C1112 H1103 0.929 . S
C1112 C1104 1.378 . S
C1112 C1107 1.350 . S
C1113 H1100 0.929 . S
C1113 C1105 1.433 . S
C1113 N1115 1.384 . S
N1114 C1110 1.427 . S
N1114 C1111 1.384 . S
N1115 C1107 1.427 . S
N1115 C1113 1.384 . S
H1116 C1122 0.930 . S
H1117 C1126 0.930 . S
H1118 C1131 0.929 . S
H1119 C1129 0.929 . S
H1120 C1124 0.929 . S
H1121 C1130 0.929 . S
C1122 H1116 0.930 . S
C1122 C1123 1.367 . S
C1122 C1130 1.378 . S
C1123 C1122 1.367 . S
C1123 C1131 1.433 . S
C1124 H1120 0.929 . S
C1124 C1126 1.378 . S
C1124 C1128 1.350 . S
C1125 C1128 1.463 . S
C1125 C1130 1.350 . S
C1125 N1133 1.427 . S
C1126 H1117 0.930 . S
C1126 C1124 1.378 . S
C1126 C1127 1.367 . S
C1127 C1126 1.367 . S
C1127 C1129 1.433 . S
C1128 C1124 1.350 . S
C1128 C1125 1.463 . S
C1128 N1132 1.427 . S
C1129 H1119 0.929 . S
C1129 C1127 1.433 . S
C1129 N1132 1.384 . S
C1130 H1121 0.929 . S
C1130 C1122 1.378 . S
C1130 C1125 1.350 . S
C1131 H1118 0.929 . S
C1131 C1123 1.433 . S
C1131 N1133 1.384 . S
N1132 C1128 1.427 . S
N1132 C1129 1.384 . S
N1133 C1125 1.427 . S
N1133 C1131 1.384 . S
H1134 C1140 0.930 . S
H1135 C1144 0.930 . S
H1136 C1149 0.929 . S
H1137 C1147 0.929 . S
H1138 C1142 0.929 . S
H1139 C1148 0.929 . S
C1140 H1134 0.930 . S
C1140 C1141 1.367 . S
C1140 C1148 1.378 . S
C1141 C1140 1.367 . S
C1141 C1149 1.433 . S
C1142 H1138 0.929 . S
C1142 C1144 1.378 . S
C1142 C1146 1.350 . S
C1143 C1146 1.463 . S
C1143 C1148 1.350 . S
C1143 N1151 1.427 . S
C1144 H1135 0.930 . S
C1144 C1142 1.378 . S
C1144 C1145 1.367 . S
C1145 C1144 1.367 . S
C1145 C1147 1.433 . S
C1146 C1142 1.350 . S
C1146 C1143 1.463 . S
C1146 N1150 1.427 . S
C1147 H1137 0.929 . S
C1147 C1145 1.433 . S
C1147 N1150 1.384 . S
C1148 H1139 0.929 . S
C1148 C1140 1.378 . S
C1148 C1143 1.350 . S
C1149 H1136 0.929 . S
C1149 C1141 1.433 . S
C1149 N1151 1.384 . S
N1150 C1146 1.427 . S
N1150 C1147 1.384 . S
N1151 C1143 1.427 . S
N1151 C1149 1.384 . S
H1152 C1158 0.930 . S
H1153 C1162 0.930 . S
H1154 C1167 0.929 . S
H1155 C1165 0.929 . S
H1156 C1160 0.929 . S
H1157 C1166 0.929 . S
C1158 H1152 0.930 . S
C1158 C1159 1.367 . S
C1158 C1166 1.378 . S
C1159 C1158 1.367 . S
C1159 C1167 1.433 . S
C1160 H1156 0.929 . S
C1160 C1162 1.378 . S
C1160 C1164 1.350 . S
C1161 C1164 1.463 . S
C1161 C1166 1.350 . S
C1161 N1169 1.427 . S
C1162 H1153 0.930 . S
C1162 C1160 1.378 . S
C1162 C1163 1.367 . S
C1163 C1162 1.367 . S
C1163 C1165 1.433 . S
C1164 C1160 1.350 . S
C1164 C1161 1.463 . S
C1164 N1168 1.427 . S
C1165 H1155 0.929 . S
C1165 C1163 1.433 . S
C1165 N1168 1.384 . S
C1166 H1157 0.929 . S
C1166 C1158 1.378 . S
C1166 C1161 1.350 . S
C1167 H1154 0.929 . S
C1167 C1159 1.433 . S
C1167 N1169 1.384 . S
N1168 C1164 1.427 . S
N1168 C1165 1.384 . S
N1169 C1161 1.427 . S
N1169 C1167 1.384 . S
H1170 C1176 0.930 . S
H1171 C1180 0.930 . S
H1172 C1185 0.929 . S
H1173 C1183 0.929 . S
H1174 C1178 0.929 . S
H1175 C1184 0.929 . S
C1176 H1170 0.930 . S
C1176 C1177 1.367 . S
C1176 C1184 1.378 . S
C1177 C1176 1.367 . S
C1177 C1185 1.433 . S
C1178 H1174 0.929 . S
C1178 C1180 1.378 . S
C1178 C1182 1.350 . S
C1179 C1182 1.463 . S
C1179 C1184 1.350 . S
C1179 N1187 1.427 . S
C1180 H1171 0.930 . S
C1180 C1178 1.378 . S
C1180 C1181 1.367 . S
C1181 C1180 1.367 . S
C1181 C1183 1.433 . S
C1182 C1178 1.350 . S
C1182 C1179 1.463 . S
C1182 N1186 1.427 . S
C1183 H1173 0.929 . S
C1183 C1181 1.433 . S
C1183 N1186 1.384 . S
C1184 H1175 0.929 . S
C1184 C1176 1.378 . S
C1184 C1179 1.350 . S
C1185 H1172 0.929 . S
C1185 C1177 1.433 . S
C1185 N1187 1.384 . S
N1186 C1182 1.427 . S
N1186 C1183 1.384 . S
N1187 C1179 1.427 . S
N1187 C1185 1.384 . S
H1188 C1194 0.930 . S
H1189 C1198 0.930 . S
H1190 C1203 0.929 . S
H1191 C1201 0.929 . S
H1192 C1196 0.929 . S
H1193 C1202 0.929 . S
C1194 H1188 0.930 . S
C1194 C1195 1.367 . S
C1194 C1202 1.378 . S
C1195 C1194 1.367 . S
C1195 C1203 1.433 . S
C1196 H1192 0.929 . S
C1196 C1198 1.378 . S
C1196 C1200 1.350 . S
C1197 C1200 1.463 . S
C1197 C1202 1.350 . S
C1197 N1205 1.427 . S
C1198 H1189 0.930 . S
C1198 C1196 1.378 . S
C1198 C1199 1.367 . S
C1199 C1198 1.367 . S
C1199 C1201 1.433 . S
C1200 C1196 1.350 . S
C1200 C1197 1.463 . S
C1200 N1204 1.427 . S
C1201 H1191 0.929 . S
C1201 C1199 1.433 . S
C1201 N1204 1.384 . S
C1202 H1193 0.929 . S
C1202 C1194 1.378 . S
C1202 C1197 1.350 . S
C1203 H1190 0.929 . S
C1203 C1195 1.433 . S
C1203 N1205 1.384 . S
N1204 C1200 1.427 . S
N1204 C1201 1.384 . S
N1205 C1197 1.427 . S
N1205 C1203 1.384 . S
H1206 C1212 0.930 . S
H1207 C1216 0.930 . S
H1208 C1221 0.929 . S
H1209 C1219 0.929 . S
H1210 C1214 0.929 . S
H1211 C1220 0.929 . S
C1212 H1206 0.930 . S
C1212 C1213 1.367 . S
C1212 C1220 1.378 . S
C1213 C1212 1.367 . S
C1213 C1221 1.433 . S
C1214 H1210 0.929 . S
C1214 C1216 1.378 . S
C1214 C1218 1.350 . S
C1215 C1218 1.463 . S
C1215 C1220 1.350 . S
C1215 N1223 1.427 . S
C1216 H1207 0.930 . S
C1216 C1214 1.378 . S
C1216 C1217 1.367 . S
C1217 C1216 1.367 . S
C1217 C1219 1.433 . S
C1218 C1214 1.350 . S
C1218 C1215 1.463 . S
C1218 N1222 1.427 . S
C1219 H1209 0.929 . S
C1219 C1217 1.433 . S
C1219 N1222 1.384 . S
C1220 H1211 0.929 . S
C1220 C1212 1.378 . S
C1220 C1215 1.350 . S
C1221 H1208 0.929 . S
C1221 C1213 1.433 . S
C1221 N1223 1.384 . S
N1222 C1218 1.427 . S
N1222 C1219 1.384 . S
N1223 C1215 1.427 . S
N1223 C1221 1.384 . S
H1224 C1230 0.930 . S
H1225 C1234 0.930 . S
H1226 C1239 0.929 . S
H1227 C1237 0.929 . S
H1228 C1232 0.929 . S
H1229 C1238 0.929 . S
C1230 H1224 0.930 . S
C1230 C1231 1.367 . S
C1230 C1238 1.378 . S
C1231 C1230 1.367 . S
C1231 C1239 1.433 . S
C1232 H1228 0.929 . S
C1232 C1234 1.378 . S
C1232 C1236 1.350 . S
C1233 C1236 1.463 . S
C1233 C1238 1.350 . S
C1233 N1241 1.427 . S
C1234 H1225 0.930 . S
C1234 C1232 1.378 . S
C1234 C1235 1.367 . S
C1235 C1234 1.367 . S
C1235 C1237 1.433 . S
C1236 C1232 1.350 . S
C1236 C1233 1.463 . S
C1236 N1240 1.427 . S
C1237 H1227 0.929 . S
C1237 C1235 1.433 . S
C1237 N1240 1.384 . S
C1238 H1229 0.929 . S
C1238 C1230 1.378 . S
C1238 C1233 1.350 . S
C1239 H1226 0.929 . S
C1239 C1231 1.433 . S
C1239 N1241 1.384 . S
N1240 C1236 1.427 . S
N1240 C1237 1.384 . S
N1241 C1233 1.427 . S
N1241 C1239 1.384 . S
H1242 C1248 0.930 . S
H1243 C1252 0.930 . S
H1244 C1257 0.929 . S
H1245 C1255 0.929 . S
H1246 C1250 0.929 . S
H1247 C1256 0.929 . S
C1248 H1242 0.930 . S
C1248 C1249 1.367 . S
C1248 C1256 1.378 . S
C1249 C1248 1.367 . S
C1249 C1257 1.433 . S
C1250 H1246 0.929 . S
C1250 C1252 1.378 . S
C1250 C1254 1.350 . S
C1251 C1254 1.463 . S
C1251 C1256 1.350 . S
C1251 N1259 1.427 . S
C1252 H1243 0.930 . S
C1252 C1250 1.378 . S
C1252 C1253 1.367 . S
C1253 C1252 1.367 . S
C1253 C1255 1.433 . S
C1254 C1250 1.350 . S
C1254 C1251 1.463 . S
C1254 N1258 1.427 . S
C1255 H1245 0.929 . S
C1255 C1253 1.433 . S
C1255 N1258 1.384 . S
C1256 H1247 0.929 . S
C1256 C1248 1.378 . S
C1256 C1251 1.350 . S
C1257 H1244 0.929 . S
C1257 C1249 1.433 . S
C1257 N1259 1.384 . S
N1258 C1254 1.427 . S
N1258 C1255 1.384 . S
N1259 C1251 1.427 . S
N1259 C1257 1.384 . S
H1260 C1266 0.930 . S
H1261 C1270 0.930 . S
H1262 C1275 0.929 . S
H1263 C1273 0.929 . S
H1264 C1268 0.929 . S
H1265 C1274 0.929 . S
C1266 H1260 0.930 . S
C1266 C1267 1.367 . S
C1266 C1274 1.378 . S
C1267 C1266 1.367 . S
C1267 C1275 1.433 . S
C1268 H1264 0.929 . S
C1268 C1270 1.378 . S
C1268 C1272 1.350 . S
C1269 C1272 1.463 . S
C1269 C1274 1.350 . S
C1269 N1277 1.427 . S
C1270 H1261 0.930 . S
C1270 C1268 1.378 . S
C1270 C1271 1.367 . S
C1271 C1270 1.367 . S
C1271 C1273 1.433 . S
C1272 C1268 1.350 . S
C1272 C1269 1.463 . S
C1272 N1276 1.427 . S
C1273 H1263 0.929 . S
C1273 C1271 1.433 . S
C1273 N1276 1.384 . S
C1274 H1265 0.929 . S
C1274 C1266 1.378 . S
C1274 C1269 1.350 . S
C1275 H1262 0.929 . S
C1275 C1267 1.433 . S
C1275 N1277 1.384 . S
N1276 C1272 1.427 . S
N1276 C1273 1.384 . S
N1277 C1269 1.427 . S
N1277 C1275 1.384 . S
H1278 C1284 0.930 . S
H1279 C1288 0.930 . S
H1280 C1293 0.929 . S
H1281 C1291 0.929 . S
H1282 C1286 0.929 . S
H1283 C1292 0.929 . S
C1284 H1278 0.930 . S
C1284 C1285 1.367 . S
C1284 C1292 1.378 . S
C1285 C1284 1.367 . S
C1285 C1293 1.433 . S
C1286 H1282 0.929 . S
C1286 C1288 1.378 . S
C1286 C1290 1.350 . S
C1287 C1290 1.463 . S
C1287 C1292 1.350 . S
C1287 N1295 1.427 . S
C1288 H1279 0.930 . S
C1288 C1286 1.378 . S
C1288 C1289 1.367 . S
C1289 C1288 1.367 . S
C1289 C1291 1.433 . S
C1290 C1286 1.350 . S
C1290 C1287 1.463 . S
C1290 N1294 1.427 . S
C1291 H1281 0.929 . S
C1291 C1289 1.433 . S
C1291 N1294 1.384 . S
C1292 H1283 0.929 . S
C1292 C1284 1.378 . S
C1292 C1287 1.350 . S
C1293 H1280 0.929 . S
C1293 C1285 1.433 . S
C1293 N1295 1.384 . S
N1294 C1290 1.427 . S
N1294 C1291 1.384 . S
N1295 C1287 1.427 . S
N1295 C1293 1.384 . S
H1296 C1302 0.930 . S
H1297 C1306 0.907 1_556 S
H1298 C1311 0.929 . S
H1299 C1309 0.929 . S
H1300 C1304 0.929 . S
H1301 C1310 0.929 . S
C1302 H1296 0.930 . S
C1302 C1303 1.367 . S
C1302 C1310 1.378 . S
C1303 C1302 1.367 . S
C1303 C1311 1.433 . S
C1304 H1300 0.929 . S
C1304 C1306 1.378 . S
C1304 C1308 1.350 . S
C1305 C1308 1.463 . S
C1305 C1310 1.350 . S
C1305 N1313 1.427 . S
C1306 H1297 0.907 1_554 S
C1306 C1304 1.378 . S
C1306 C1307 1.367 . S
C1307 C1306 1.367 . S
C1307 C1309 1.433 . S
C1308 C1304 1.350 . S
C1308 C1305 1.463 . S
C1308 N1312 1.427 . S
C1309 H1299 0.929 . S
C1309 C1307 1.433 . S
C1309 N1312 1.384 . S
C1310 H1301 0.929 . S
C1310 C1302 1.378 . S
C1310 C1305 1.350 . S
C1311 H1298 0.929 . S
C1311 C1303 1.433 . S
C1311 N1313 1.384 . S
N1312 C1308 1.427 . S
N1312 C1309 1.384 . S
N1313 C1305 1.427 . S
N1313 C1311 1.384 . S
H1314 C1320 0.930 . S
H1315 C1324 0.930 . S
H1316 C1329 0.929 . S
H1317 C1327 0.929 . S
H1318 C1322 0.929 . S
H1319 C1328 0.929 . S
C1320 H1314 0.930 . S
C1320 C1321 1.367 . S
C1320 C1328 1.378 . S
C1321 C1320 1.367 . S
C1321 C1329 1.433 . S
C1322 H1318 0.929 . S
C1322 C1324 1.378 . S
C1322 C1326 1.350 . S
C1323 C1326 1.463 . S
C1323 C1328 1.350 . S
C1323 N1331 1.427 . S
C1324 H1315 0.930 . S
C1324 C1322 1.378 . S
C1324 C1325 1.367 . S
C1325 C1324 1.367 . S
C1325 C1327 1.433 . S
C1326 C1322 1.350 . S
C1326 C1323 1.463 . S
C1326 N1330 1.427 . S
C1327 H1317 0.929 . S
C1327 C1325 1.433 . S
C1327 N1330 1.384 . S
C1328 H1319 0.929 . S
C1328 C1320 1.378 . S
C1328 C1323 1.350 . S
C1329 H1316 0.929 . S
C1329 C1321 1.433 . S
C1329 N1331 1.384 . S
N1330 C1326 1.427 . S
N1330 C1327 1.384 . S
N1331 C1323 1.427 . S
N1331 C1329 1.384 . S
C911 C841 1.728 . S
C907 C29 1.679 . S
C925 C115 1.620 . S
C929 C401 1.631 . S
C943 C153 1.639 . S
C947 C489 1.705 . S
C961 C239 1.646 . S
C965 C568 1.651 . S
C983 C665 1.656 . S
C979 C301 1.646 . S
C997 C339 1.907 . S
C1001 C744 1.986 . S
C1015 C91 1.631 . S
C1019 C509 1.706 . S
C1033 C177 1.627 . S
C1037 C605 1.627 . S
C1051 C215 1.675 . S
C1055 C685 1.732 . S
C1073 C781 1.986 . S
C1069 C277 1.914 . S
C1091 C861 1.660 . S
C1087 C363 1.648 . S
C1109 C421 1.647 . S
C1105 C53 1.641 . S
C1123 C35 1.528 . S
C1127 C517 1.559 . S
C1141 C109 1.385 . S
C1145 C597 1.514 . S
C1163 C693 1.426 . S
C1159 C159 1.397 . S
C1177 C233 1.608 . S
C1181 C773 1.742 1_556 S
C1199 C869 1.566 . S
C1195 C295 1.419 . S
C1217 C429 1.348 . S
C1213 C345 1.324 . S
C1235 C832 1.429 . S
C1231 C97 1.402 . S
C1249 C171 1.376 . S
C1253 C392 1.510 . S
C1271 C480 1.559 . S
C1267 C221 1.524 . S
C1285 C283 1.335 . S
C1289 C577 1.353 . S
C1303 C357 1.413 . S
C1307 C656 1.561 1_554 S
C1321 C47 1.613 . S
C1325 C753 1.743 . S
