# Generated by pormake.
# Topology pth, (4,4)-cn, num edge types: 1
# Building blocks:
#     Node 0, Type 0, BuildingBlock: GALJAG_clean_sbu_0, # of connection points: 4
#     Node 1, Type 0, BuildingBlock: GALJAG_clean_sbu_0, # of connection points: 4
#     Node 2, Type 0, BuildingBlock: GALJAG_clean_sbu_0, # of connection points: 4
#     Node 3, Type 1, BuildingBlock: NAHDIM_clean_linker_0, # of connection points: 4
#     Node 4, Type 1, BuildingBlock: NAHDIM_clean_linker_0, # of connection points: 4
#     Node 5, Type 1, BuildingBlock: NAHDIM_clean_linker_0, # of connection points: 4
#     Edge 6, Type (0, 1), BuildingBlock: XUDNAN_clean_linker_2, # of connection points: 2
#     Edge 7, Type (0, 1), BuildingBlock: XUDNAN_clean_linker_2, # of connection points: 2
#     Edge 8, Type (0, 1), BuildingBlock: XUDNAN_clean_linker_2, # of connection points: 2
#     Edge 9, Type (0, 1), BuildingBlock: XUDNAN_clean_linker_2, # of connection points: 2
#     Edge 10, Type (0, 1), BuildingBlock: XUDNAN_clean_linker_2, # of connection points: 2
#     Edge 11, Type (0, 1), BuildingBlock: XUDNAN_clean_linker_2, # of connection points: 2
#     Edge 12, Type (0, 1), BuildingBlock: XUDNAN_clean_linker_2, # of connection points: 2
#     Edge 13, Type (0, 1), BuildingBlock: XUDNAN_clean_linker_2, # of connection points: 2
#     Edge 14, Type (0, 1), BuildingBlock: XUDNAN_clean_linker_2, # of connection points: 2
#     Edge 15, Type (0, 1), BuildingBlock: XUDNAN_clean_linker_2, # of connection points: 2
#     Edge 16, Type (0, 1), BuildingBlock: XUDNAN_clean_linker_2, # of connection points: 2
#     Edge 17, Type (0, 1), BuildingBlock: XUDNAN_clean_linker_2, # of connection points: 2
# Relax obj value: 0.024
# Max RMSD: 0.068
# Mean RMSD: 0.066
data_MOF--net-pth--node1-GALJAG_clean_sbu_0--node2-NAHDIM_clean_linker_0--edge1-XUDNAN_clean_linker_2
_symmetry_space_group_name_H-M    P1
_symmetry_Int_Tables_number       1
_symmetry_cell_setting            triclinic
loop_
_symmetry_equiv_pos_as_xyz
'x, y, z'
_cell_length_a     32.514931
_cell_length_b     32.445632
_cell_length_c     78.908986
_cell_angle_alpha  89.825069
_cell_angle_beta   90.814702
_cell_angle_gamma 120.01085
loop_
_atom_site_label
_atom_site_type_symbol
_atom_site_fract_x
_atom_site_fract_y
_atom_site_fract_z
_atom_type_partial_charge
In0 In 0.01269 0.03533 0.04808 0.0
O1 O 0.97589 0.04708 0.07054 0.0
O2 O 0.01391 0.10507 0.054 0.0
C3 C 0.93177 0.97648 0.03071 0.0
C4 C 0.08895 0.09798 0.0304 0.0
C5 C 0.03923 0.97686 0.06313 0.0
O6 O 0.9352 0.97597 0.04662 0.0
O7 O 0.96854 0.00812 0.02357 0.0
O8 O 0.02812 0.97384 0.04765 0.0
O9 O 0.03959 0.01103 0.07079 0.0
C10 C 0.98986 0.09004 0.06727 0.0
O11 O 0.09049 0.09367 0.04629 0.0
O12 O 0.04949 0.06966 0.02346 0.0
In13 In 0.01598 0.04507 0.37561 0.0
O14 O 0.01481 0.11268 0.36819 0.0
O15 O 0.04253 0.08471 0.35041 0.0
C16 C 0.09455 0.06322 0.39349 0.0
C17 C 0.95599 0.03817 0.4003 0.0
C18 C 0.98699 0.96297 0.35833 0.0
O19 O 0.09141 0.09536 0.38549 0.0
O20 O 0.05836 0.02227 0.39232 0.0
O21 O 0.95774 0.97366 0.36436 0.0
O22 O 0.02993 0.99367 0.36087 0.0
C23 C 0.03307 0.11687 0.35389 0.0
O24 O 0.94242 0.0282 0.38502 0.0
O25 O 0.99873 0.0499 0.403 0.0
In26 In 0.00627 0.03273 0.723 0.0
O27 O 0.9715 0.96228 0.73736 0.0
O28 O 0.93924 0.00515 0.73865 0.0
C29 C 0.06519 0.01917 0.70302 0.0
C30 C 0.9577 0.04792 0.69814 0.0
C31 C 0.06688 0.09835 0.74549 0.0
O32 O 0.03184 0.98544 0.71097 0.0
O33 O 0.06841 0.05919 0.70512 0.0
O34 O 0.03668 0.10381 0.73706 0.0
O35 O 0.06537 0.05928 0.74295 0.0
C36 C 0.93782 0.96695 0.74287 0.0
O37 O 0.98675 0.08082 0.70784 0.0
O38 O 0.95309 0.00758 0.70106 0.0
C39 C 0.94185 0.63409 0.32108 0.0
C40 C 0.96447 0.67506 0.30839 0.0
C41 C 0.96057 0.6399 0.2809 0.0
C42 C 0.00867 0.66245 0.27655 0.0
C43 C 0.02524 0.64071 0.26532 0.0
C44 C 0.99295 0.59555 0.25833 0.0
C45 C 0.94407 0.57372 0.26217 0.0
C46 C 0.92842 0.59661 0.27325 0.0
C47 C 0.07733 0.66557 0.26113 0.0
C48 C 0.90863 0.52557 0.25497 0.0
C49 C 0.16961 0.45864 0.31586 0.0
C50 C 0.12482 0.42862 0.30512 0.0
C51 C 0.11241 0.45793 0.2782 0.0
C52 C 0.06281 0.43688 0.27801 0.0
C53 C 0.04018 0.45521 0.2677 0.0
C54 C 0.06794 0.49589 0.25765 0.0
C55 C 0.11805 0.51675 0.25774 0.0
C56 C 0.13948 0.49668 0.26773 0.0
C57 C 0.9867 0.43131 0.26766 0.0
C58 C 0.1492 0.56089 0.24761 0.0
C59 C 0.05951 0.40893 0.15084 0.0
C60 C 0.01373 0.39374 0.15683 0.0
C61 C 0.00283 0.42607 0.16444 0.0
C62 C 0.03858 0.47444 0.16613 0.0
C63 C 0.08403 0.49025 0.15927 0.0
C64 C 0.09373 0.45721 0.15151 0.0
C65 C 0.9535 0.40833 0.17108 0.0
C66 C 0.12274 0.54163 0.16071 0.0
C67 C 0.9109 0.72658 0.14867 0.0
C68 C 0.95618 0.72576 0.14427 0.0
C69 C 0.95951 0.65279 0.14868 0.0
C70 C 0.92795 0.60422 0.15074 0.0
C71 C 0.94162 0.57535 0.1596 0.0
C72 C 0.98854 0.59556 0.16613 0.0
C73 C 0.02139 0.64434 0.16335 0.0
C74 C 0.00644 0.67256 0.15471 0.0
C75 C 0.90574 0.52347 0.16221 0.0
C76 C 0.07219 0.66665 0.16958 0.0
C77 C 0.01063 0.56974 0.24793 0.0
C78 C 0.02951 0.54503 0.25649 0.0
C79 C 0.04499 0.51808 0.24769 0.0
C80 C 0.04041 0.51457 0.22983 0.0
C81 C 0.05281 0.48546 0.22063 0.0
C82 C 0.04906 0.48299 0.20304 0.0
C83 C 0.033 0.50976 0.19395 0.0
C84 C 0.02919 0.50758 0.17605 0.0
C85 C 0.01497 0.53608 0.16737 0.0
C86 C 0.00298 0.56592 0.17613 0.0
C87 C 0.00446 0.56694 0.19407 0.0
C88 C 0.99043 0.59474 0.20333 0.0
C89 C 0.9922 0.5956 0.22097 0.0
C90 C 0.00844 0.569 0.23002 0.0
C91 C 0.02299 0.54092 0.22096 0.0
C92 C 0.02019 0.53925 0.20298 0.0
C93 C 0.10522 0.33554 0.15807 0.0
C94 C 0.05986 0.33423 0.15178 0.0
O95 O 0.9443 0.65903 0.29245 0.0
O96 O 0.94371 0.67917 0.14051 0.0
O97 O 0.07171 0.37773 0.14454 0.0
O98 O 0.13517 0.44156 0.28829 0.0
H99 H 0.00313 0.68735 0.30833 0.0
H100 H 0.94922 0.60545 0.31735 0.0
H101 H 0.90273 0.61885 0.3214 0.0
H102 H 0.95702 0.64675 0.33399 0.0
H103 H 0.03328 0.69702 0.2819 0.0
H104 H 0.89124 0.57993 0.27652 0.0
H105 H 0.09359 0.64553 0.26672 0.0
H106 H 0.09684 0.70264 0.26607 0.0
H107 H 0.08182 0.66625 0.24718 0.0
H108 H 0.87216 0.51269 0.25967 0.0
H109 H 0.91956 0.49915 0.25836 0.0
H110 H 0.90791 0.52749 0.24093 0.0
H111 H 0.09715 0.4365 0.30967 0.0
H112 H 0.16225 0.45007 0.32952 0.0
H113 H 0.18176 0.49703 0.31412 0.0
H114 H 0.1986 0.45207 0.31202 0.0
H115 H 0.04184 0.40597 0.28581 0.0
H116 H 0.17776 0.51228 0.26791 0.0
H117 H 0.97592 0.45427 0.27442 0.0
H118 H 0.97011 0.39609 0.274 0.0
H119 H 0.97265 0.42646 0.25446 0.0
H120 H 0.18735 0.57681 0.25117 0.0
H121 H 0.13842 0.58807 0.24946 0.0
H122 H 0.14513 0.55172 0.23392 0.0
H123 H 0.03738 0.32744 0.16314 0.0
H124 H 0.98667 0.35658 0.15567 0.0
H125 H 0.12873 0.4686 0.14657 0.0
H126 H 0.95495 0.41034 0.18513 0.0
H127 H 0.92847 0.37095 0.16721 0.0
H128 H 0.93942 0.4313 0.16644 0.0
H129 H 0.15614 0.5483 0.15465 0.0
H130 H 0.1303 0.55204 0.17429 0.0
H131 H 0.11068 0.56478 0.15467 0.0
H132 H 0.98013 0.73914 0.15561 0.0
H133 H 0.91932 0.76293 0.1525 0.0
H134 H 0.89303 0.7022 0.15943 0.0
H135 H 0.88593 0.71477 0.13763 0.0
H136 H 0.89204 0.58923 0.14575 0.0
H137 H 0.03151 0.70981 0.1525 0.0
H138 H 0.90351 0.51465 0.1759 0.0
H139 H 0.91736 0.5011 0.1555 0.0
H140 H 0.86978 0.51408 0.15742 0.0
H141 H 0.09454 0.70345 0.16479 0.0
H142 H 0.08787 0.64474 0.16557 0.0
H143 H 0.07313 0.66783 0.18364 0.0
H144 H 0.03244 0.54701 0.27021 0.0
H145 H 0.06544 0.46414 0.22695 0.0
H146 H 0.05928 0.46007 0.19665 0.0
H147 H 0.01278 0.5347 0.15363 0.0
H148 H 0.97771 0.61603 0.19704 0.0
H149 H 0.981 0.61764 0.22743 0.0
H150 H 0.09659 0.30094 0.16389 0.0
H151 H 0.12318 0.3639 0.16782 0.0
H152 H 0.13018 0.34315 0.14748 0.0
C153 C 0.37505 0.06378 0.6542 0.0
C154 C 0.33928 0.05555 0.63988 0.0
C155 C 0.37191 0.02907 0.61716 0.0
C156 C 0.41037 0.07424 0.61326 0.0
C157 C 0.44599 0.07901 0.60225 0.0
C158 C 0.4435 0.03787 0.59513 0.0
C159 C 0.40435 0.99247 0.5987 0.0
C160 C 0.36881 0.98877 0.60955 0.0
C161 C 0.48675 0.12807 0.59844 0.0
C162 C 0.40054 0.94783 0.59131 0.0
C163 C 0.77125 0.05056 0.63785 0.0
C164 C 0.72894 0.0339 0.62661 0.0
C165 C 0.67837 0.06225 0.61409 0.0
C166 C 0.64661 0.01912 0.60593 0.0
C167 C 0.60848 0.01503 0.59607 0.0
C168 C 0.60289 0.05526 0.59384 0.0
C169 C 0.63549 0.09901 0.60169 0.0
C170 C 0.67249 0.1017 0.61187 0.0
C171 C 0.57375 0.96748 0.58824 0.0
C172 C 0.63091 0.14278 0.59955 0.0
C173 C 0.66899 0.06719 0.48018 0.0
C174 C 0.6302 0.02231 0.48354 0.0
C175 C 0.5937 0.01692 0.49423 0.0
C176 C 0.59579 0.05768 0.50155 0.0
C177 C 0.63493 0.10329 0.49825 0.0
C178 C 0.6714 0.10757 0.48778 0.0
C179 C 0.55271 0.96769 0.4976 0.0
C180 C 0.63791 0.14762 0.50562 0.0
C181 C 0.25489 0.03347 0.49939 0.0
C182 C 0.29413 0.05886 0.48636 0.0
C183 C 0.35418 0.03478 0.48847 0.0
C184 C 0.35589 0.99353 0.49215 0.0
C185 C 0.39658 0.99612 0.49958 0.0
C186 C 0.43651 0.0412 0.50325 0.0
C187 C 0.43602 0.08308 0.4986 0.0
C188 C 0.39495 0.07944 0.49111 0.0
C189 C 0.39646 0.95078 0.50399 0.0
C190 C 0.47857 0.13167 0.5019 0.0
C191 C 0.48297 0.04231 0.58458 0.0
C192 C 0.52289 0.04613 0.59294 0.0
C193 C 0.56182 0.05111 0.58393 0.0
C194 C 0.56096 0.0519 0.56601 0.0
C195 C 0.59947 0.05686 0.55652 0.0
C196 C 0.59785 0.05671 0.53887 0.0
C197 C 0.55806 0.05255 0.53004 0.0
C198 C 0.55616 0.05276 0.51211 0.0
C199 C 0.51608 0.04872 0.50377 0.0
C200 C 0.47765 0.04463 0.51284 0.0
C201 C 0.47885 0.04439 0.53076 0.0
C202 C 0.44083 0.04066 0.54026 0.0
C203 C 0.44216 0.04014 0.55787 0.0
C204 C 0.4815 0.04327 0.56668 0.0
C205 C 0.52052 0.04773 0.55737 0.0
C206 C 0.51914 0.0482 0.53938 0.0
C207 C 0.73768 0.13905 0.45168 0.0
C208 C 0.74527 0.10964 0.46538 0.0
O209 O 0.3376 0.02262 0.62831 0.0
O210 O 0.31292 0.03014 0.48227 0.0
O211 O 0.70256 0.0697 0.46942 0.0
O212 O 0.71456 0.0672 0.62433 0.0
H213 H 0.34988 0.08979 0.63336 0.0
H214 H 0.41139 0.07874 0.64913 0.0
H215 H 0.36542 0.02974 0.66069 0.0
H216 H 0.37573 0.08949 0.66364 0.0
H217 H 0.41325 0.10601 0.6188 0.0
H218 H 0.33891 0.95413 0.6125 0.0
H219 H 0.51976 0.13233 0.60442 0.0
H220 H 0.48068 0.15667 0.60329 0.0
H221 H 0.49247 0.13261 0.58456 0.0
H222 H 0.36874 0.91509 0.59583 0.0
H223 H 0.43277 0.94586 0.59472 0.0
H224 H 0.3986 0.94889 0.57727 0.0
H225 H 0.69941 0.99738 0.62946 0.0
H226 H 0.75838 0.02594 0.64908 0.0
H227 H 0.77487 0.08209 0.64514 0.0
H228 H 0.82502 0.05533 0.6214 0.0
H229 H 0.6508 0.98827 0.60738 0.0
H230 H 0.69717 0.13483 0.61817 0.0
H231 H 0.57705 0.96975 0.57425 0.0
H232 H 0.53676 0.95789 0.59126 0.0
H233 H 0.57997 0.93853 0.59272 0.0
H234 H 0.66302 0.17547 0.60422 0.0
H235 H 0.59992 0.13821 0.6068 0.0
H236 H 0.62463 0.14768 0.58602 0.0
H237 H 0.76092 0.13256 0.47681 0.0
H238 H 0.62858 0.99133 0.4777 0.0
H239 H 0.70113 0.14267 0.48548 0.0
H240 H 0.54715 0.96204 0.51146 0.0
H241 H 0.55851 0.93938 0.49226 0.0
H242 H 0.5197 0.96416 0.49188 0.0
H243 H 0.66906 0.18069 0.50095 0.0
H244 H 0.64054 0.14694 0.51965 0.0
H245 H 0.60512 0.14872 0.50238 0.0
H246 H 0.32121 0.09269 0.49244 0.0
H247 H 0.23841 0.05538 0.50243 0.0
H248 H 0.27026 0.02796 0.51126 0.0
H249 H 0.22693 0.99814 0.4946 0.0
H250 H 0.32462 0.95922 0.48968 0.0
H251 H 0.39493 0.11152 0.48733 0.0
H252 H 0.39836 0.94795 0.51797 0.0
H253 H 0.42825 0.95151 0.49866 0.0
H254 H 0.3641 0.91864 0.49914 0.0
H255 H 0.47279 0.16083 0.49733 0.0
H256 H 0.51012 0.13456 0.49552 0.0
H257 H 0.48668 0.13655 0.51571 0.0
H258 H 0.52374 0.04536 0.60669 0.0
H259 H 0.63119 0.06061 0.56263 0.0
H260 H 0.6283 0.0601 0.53223 0.0
H261 H 0.51488 0.04906 0.49002 0.0
H262 H 0.40953 0.03802 0.53419 0.0
H263 H 0.41187 0.03715 0.56451 0.0
H264 H 0.71831 0.11672 0.44049 0.0
H265 H 0.77242 0.16895 0.44756 0.0
H266 H 0.7165 0.15442 0.45665 0.0
C267 C 0.69482 0.62868 0.77141 0.0
C268 C 0.68867 0.65996 0.78447 0.0
C269 C 0.66421 0.63289 0.81316 0.0
C270 C 0.63747 0.655 0.81637 0.0
C271 C 0.60075 0.63586 0.82819 0.0
C272 C 0.59037 0.59349 0.83681 0.0
C273 C 0.61898 0.57255 0.83421 0.0
C274 C 0.65621 0.59316 0.82259 0.0
C275 C 0.57188 0.65989 0.83097 0.0
C276 C 0.60878 0.52713 0.84303 0.0
C277 C 0.31933 0.4375 0.7675 0.0
C278 C 0.32156 0.40919 0.78272 0.0
C279 C 0.34559 0.44498 0.81071 0.0
C280 C 0.37089 0.42273 0.81623 0.0
C281 C 0.40672 0.44397 0.82868 0.0
C282 C 0.41738 0.48834 0.83572 0.0
C283 C 0.38986 0.50932 0.83094 0.0
C284 C 0.35376 0.48691 0.81861 0.0
C285 C 0.43448 0.41997 0.83383 0.0
C286 C 0.40018 0.55652 0.83824 0.0
C287 C 0.33167 0.42501 0.94516 0.0
C288 C 0.35825 0.40538 0.93882 0.0
C289 C 0.40088 0.43395 0.93027 0.0
C290 C 0.41686 0.48296 0.92794 0.0
C291 C 0.39069 0.50296 0.93473 0.0
C292 C 0.34868 0.47373 0.94347 0.0
C293 C 0.42878 0.41179 0.92369 0.0
C294 C 0.40673 0.55504 0.93253 0.0
C295 C 0.80035 0.71971 0.94495 0.0
C296 C 0.75608 0.72229 0.94953 0.0
C297 C 0.67749 0.6517 0.94592 0.0
C298 C 0.65807 0.60265 0.944 0.0
C299 C 0.61471 0.57506 0.93537 0.0
C300 C 0.58969 0.59714 0.92894 0.0
C301 C 0.60793 0.64643 0.9317 0.0
C302 C 0.6519 0.67333 0.94009 0.0
C303 C 0.59621 0.52257 0.93279 0.0
C304 C 0.58128 0.67074 0.92556 0.0
C305 C 0.54646 0.5682 0.84691 0.0
C306 C 0.5037 0.54164 0.83799 0.0
C307 C 0.46075 0.51534 0.84639 0.0
C308 C 0.46016 0.51488 0.86429 0.0
C309 C 0.41776 0.48783 0.87315 0.0
C310 C 0.41771 0.48736 0.89079 0.0
C311 C 0.46007 0.5139 0.90022 0.0
C312 C 0.46052 0.5131 0.91815 0.0
C313 C 0.50305 0.54086 0.92713 0.0
C314 C 0.54563 0.56908 0.91867 0.0
C315 C 0.54613 0.56946 0.90075 0.0
C316 C 0.58856 0.59647 0.89182 0.0
C317 C 0.58874 0.59647 0.8742 0.0
C318 C 0.54657 0.5692 0.86481 0.0
C319 C 0.50327 0.54208 0.87353 0.0
C320 C 0.50313 0.54191 0.89151 0.0
C321 C 0.21041 0.35417 0.94388 0.0
C322 C 0.25509 0.35249 0.9491 0.0
O323 O 0.69656 0.64807 0.8006 0.0
O324 O 0.72055 0.67679 0.95369 0.0
O325 O 0.29022 0.39836 0.95337 0.0
O326 O 0.31432 0.42763 0.79748 0.0
H327 H 0.65112 0.65162 0.7829 0.0
H328 H 0.66717 0.59088 0.77328 0.0
H329 H 0.73012 0.63138 0.77279 0.0
H330 H 0.69078 0.63919 0.75835 0.0
H331 H 0.64477 0.68673 0.80941 0.0
H332 H 0.67757 0.5768 0.82013 0.0
H333 H 0.53644 0.63852 0.82479 0.0
H334 H 0.5892 0.69635 0.82558 0.0
H335 H 0.56625 0.66199 0.84472 0.0
H336 H 0.6329 0.51415 0.83897 0.0
H337 H 0.57152 0.49891 0.8404 0.0
H338 H 0.61283 0.53307 0.85694 0.0
H339 H 0.3581 0.41426 0.78258 0.0
H340 H 0.32208 0.42139 0.75547 0.0
H341 H 0.3495 0.47464 0.76827 0.0
H342 H 0.2859 0.43889 0.76731 0.0
H343 H 0.36328 0.38924 0.81059 0.0
H344 H 0.33345 0.50335 0.81444 0.0
H345 H 0.43736 0.41934 0.84786 0.0
H346 H 0.47106 0.44057 0.82884 0.0
H347 H 0.41791 0.38294 0.8289 0.0
H348 H 0.37467 0.56744 0.83357 0.0
H349 H 0.43667 0.58445 0.83482 0.0
H350 H 0.39871 0.55448 0.85228 0.0
H351 H 0.2655 0.33877 0.93802 0.0
H352 H 0.34612 0.36798 0.94074 0.0
H353 H 0.3282 0.48858 0.94868 0.0
H354 H 0.42843 0.41232 0.90963 0.0
H355 H 0.41402 0.37439 0.92793 0.0
H356 H 0.46641 0.43282 0.92803 0.0
H357 H 0.38105 0.56456 0.9378 0.0
H358 H 0.41151 0.56432 0.91887 0.0
H359 H 0.44165 0.57695 0.93899 0.0
H360 H 0.74587 0.73574 0.93816 0.0
H361 H 0.82921 0.75486 0.94063 0.0
H362 H 0.79164 0.69372 0.93447 0.0
H363 H 0.81333 0.70807 0.95605 0.0
H364 H 0.67782 0.58626 0.94885 0.0
H365 H 0.66602 0.71105 0.9422 0.0
H366 H 0.59001 0.5137 0.91906 0.0
H367 H 0.56161 0.50175 0.9392 0.0
H368 H 0.6211 0.51132 0.93786 0.0
H369 H 0.59727 0.70775 0.93046 0.0
H370 H 0.54364 0.65028 0.92954 0.0
H371 H 0.58145 0.67184 0.9115 0.0
H372 H 0.50389 0.54118 0.82423 0.0
H373 H 0.38419 0.46661 0.86653 0.0
H374 H 0.38399 0.46585 0.89694 0.0
H375 H 0.50308 0.54024 0.94088 0.0
H376 H 0.62222 0.61786 0.89836 0.0
H377 H 0.62238 0.61798 0.868 0.0
H378 H 0.19716 0.36585 0.95471 0.0
H379 H 0.18187 0.31872 0.93942 0.0
H380 H 0.21875 0.37976 0.93332 0.0
H381 H 0.04139 0.18697 0.06882 0.0
H382 H 0.92665 0.06376 0.09308 0.0
H383 H 0.92478 0.11569 0.11555 0.0
H384 H 0.10319 0.23948 0.10548 0.0
H385 H 0.12403 0.30015 0.0992 0.0
H386 H 0.11042 0.25525 0.08336 0.0
H387 H 0.05151 0.27618 0.06862 0.0
H388 H 0.06519 0.3215 0.08439 0.0
H389 H 0.00449 0.27547 0.08069 0.0
H390 H 0.94266 0.17865 0.13723 0.0
H391 H 0.97942 0.24785 0.15667 0.0
H392 H 0.08374 0.32996 0.11867 0.0
C393 C 0.01478 0.1712 0.07855 0.0
C394 C 0.9837 0.12151 0.07914 0.0
C395 C 0.95044 0.10185 0.09235 0.0
C396 C 0.94906 0.13107 0.10513 0.0
C397 C 0.98122 0.17982 0.10449 0.0
C398 C 0.01337 0.1998 0.0915 0.0
C399 C 0.04777 0.25212 0.0948 0.0
C400 C 0.09938 0.26231 0.09577 0.0
C401 C 0.04186 0.28315 0.08132 0.0
C402 C 0.03094 0.25809 0.11192 0.0
C403 C 0.99204 0.21617 0.11716 0.0
C404 C 0.97248 0.21193 0.13312 0.0
C405 C 0.99358 0.25135 0.14407 0.0
C406 C 0.03387 0.29439 0.13904 0.0
C407 C 0.05229 0.29781 0.12267 0.0
H408 H 0.86298 0.01756 0.39803 0.0
H409 H 0.98314 0.06737 0.43287 0.0
H410 H 0.93897 0.08366 0.4544 0.0
H411 H 0.83243 0.10224 0.40746 0.0
H412 H 0.76893 0.06349 0.40636 0.0
H413 H 0.80702 0.04946 0.39438 0.0
H414 H 0.77011 0.96668 0.40862 0.0
H415 H 0.73147 0.98025 0.42056 0.0
H416 H 0.76942 0.96274 0.43142 0.0
H417 H 0.88709 0.10515 0.47052 0.0
H418 H 0.82836 0.12582 0.48088 0.0
H419 H 0.73942 0.05803 0.43654 0.0
C420 C 0.87945 0.03074 0.41034 0.0
C421 C 0.92646 0.04117 0.41378 0.0
C422 C 0.94709 0.05894 0.42997 0.0
C423 C 0.92228 0.06829 0.44231 0.0
C424 C 0.87655 0.05897 0.43838 0.0
C425 C 0.85492 0.03983 0.42291 0.0
C426 C 0.80642 0.03567 0.42163 0.0
C427 C 0.80358 0.06444 0.40657 0.0
C428 C 0.76702 0.98321 0.42049 0.0
C429 C 0.80529 0.05761 0.43842 0.0
C430 C 0.84593 0.07041 0.44794 0.0
C431 C 0.85471 0.09454 0.46333 0.0
C432 C 0.82126 0.10631 0.46907 0.0
C433 C 0.77958 0.09408 0.45944 0.0
C434 C 0.7711 0.06826 0.44413 0.0
H435 H 0.9318 0.88672 0.75679 0.0
H436 H 0.85301 0.96105 0.74967 0.0
H437 H 0.78245 0.89332 0.7623 0.0
H438 H 0.84162 0.7744 0.74581 0.0
H439 H 0.85557 0.74257 0.7615 0.0
H440 H 0.90158 0.79901 0.75386 0.0
H441 H 0.92148 0.83177 0.7846 0.0
H442 H 0.87566 0.77517 0.79238 0.0
H443 H 0.87508 0.82888 0.79767 0.0
H444 H 0.718 0.81381 0.772 0.0
H445 H 0.66521 0.72952 0.77951 0.0
H446 H 0.78683 0.70847 0.78209 0.0
C447 C 0.89999 0.88912 0.75823 0.0
C448 C 0.89778 0.92905 0.75228 0.0
C449 C 0.8555 0.93086 0.75425 0.0
C450 C 0.81526 0.89259 0.76141 0.0
C451 C 0.81822 0.85322 0.76681 0.0
C452 C 0.85971 0.8515 0.76557 0.0
C453 C 0.85277 0.80404 0.77153 0.0
C454 C 0.86351 0.77852 0.75732 0.0
C455 C 0.88305 0.81036 0.7875 0.0
C456 C 0.80037 0.77857 0.77556 0.0
C457 C 0.78119 0.80768 0.77287 0.0
C458 C 0.73275 0.79093 0.77444 0.0
C459 C 0.70304 0.74301 0.77865 0.0
C460 C 0.72184 0.71237 0.78123 0.0
C461 C 0.77138 0.73093 0.78011 0.0
H462 H 0.05425 0.97174 0.09704 0.0
H463 H 0.02914 0.89475 0.04967 0.0
H464 H 0.01697 0.82383 0.06545 0.0
H465 H 0.11218 0.91108 0.12063 0.0
H466 H 0.08378 0.91136 0.14004 0.0
H467 H 0.1004 0.95871 0.12493 0.0
H468 H 0.01368 0.94196 0.12416 0.0
H469 H 0.99663 0.89429 0.13902 0.0
H470 H 0.96616 0.88301 0.11884 0.0
H471 H 0.99087 0.75756 0.08624 0.0
H472 H 0.95934 0.70268 0.11039 0.0
H473 H 0.00484 0.82287 0.14451 0.0
C474 C 0.04809 0.94056 0.08996 0.0
C475 C 0.04287 0.93878 0.07214 0.0
C476 C 0.03369 0.89702 0.06332 0.0
C477 C 0.02671 0.85653 0.07219 0.0
C478 C 0.02979 0.85867 0.08983 0.0
C479 C 0.04121 0.89993 0.09863 0.0
C480 C 0.03742 0.89152 0.11758 0.0
C481 C 0.08637 0.91985 0.12631 0.0
C482 C 0.00132 0.90338 0.12534 0.0
C483 C 0.01962 0.83858 0.11802 0.0
C484 C 0.01594 0.82037 0.10191 0.0
C485 C 0.99505 0.77157 0.09897 0.0
C486 C 0.97711 0.7406 0.11281 0.0
C487 C 0.98054 0.75856 0.12945 0.0
C488 C 0.00289 0.80828 0.132 0.0
H489 H 0.11138 0.99829 0.4094 0.0
H490 H 0.16879 0.15013 0.40302 0.0
H491 H 0.23144 0.16597 0.42439 0.0
H492 H 0.12481 0.99919 0.45281 0.0
H493 H 0.14149 0.95393 0.45366 0.0
H494 H 0.10518 0.95455 0.43637 0.0
H495 H 0.16606 0.95765 0.41482 0.0
H496 H 0.20246 0.95658 0.43206 0.0
H497 H 0.22744 0.00379 0.4167 0.0
H498 H 0.28107 0.16478 0.44892 0.0
H499 H 0.31638 0.14676 0.47381 0.0
H500 H 0.22802 0.99576 0.46343 0.0
C501 C 0.13774 0.03489 0.41224 0.0
C502 C 0.13537 0.07303 0.40458 0.0
C503 C 0.17022 0.12042 0.40869 0.0
C504 C 0.20588 0.12973 0.4208 0.0
C505 C 0.20647 0.09124 0.42846 0.0
C506 C 0.17369 0.04475 0.42417 0.0
C507 C 0.18029 0.00972 0.43492 0.0
C508 C 0.13527 0.97748 0.44504 0.0
C509 C 0.19494 0.9802 0.42397 0.0
C510 C 0.22068 0.04372 0.4464 0.0
C511 C 0.2356 0.09059 0.44239 0.0
C512 C 0.27029 0.12825 0.45199 0.0
C513 C 0.29001 0.11771 0.46611 0.0
C514 C 0.27495 0.06991 0.47049 0.0
C515 C 0.24036 0.03261 0.4603 0.0
H516 H 0.0759 0.18444 0.75382 0.0
H517 H 0.14418 0.09953 0.7599 0.0
H518 H 0.21379 0.16806 0.77322 0.0
H519 H 0.17407 0.28783 0.74194 0.0
H520 H 0.16101 0.32803 0.75324 0.0
H521 H 0.11346 0.27066 0.74663 0.0
H522 H 0.08449 0.25078 0.77758 0.0
H523 H 0.1317 0.30849 0.78429 0.0
H524 H 0.12547 0.25546 0.79411 0.0
H525 H 0.28039 0.24843 0.78135 0.0
H526 H 0.33736 0.33393 0.78567 0.0
H527 H 0.22442 0.36588 0.7763 0.0
C528 C 0.10495 0.17992 0.7584 0.0
C529 C 0.10468 0.13673 0.75586 0.0
C530 C 0.14354 0.13225 0.76182 0.0
C531 C 0.18324 0.17097 0.76941 0.0
C532 C 0.18311 0.21359 0.77122 0.0
C533 C 0.14463 0.21808 0.76618 0.0
C534 C 0.15482 0.26868 0.76852 0.0
C535 C 0.1506 0.29003 0.75158 0.0
C536 C 0.12218 0.27097 0.78193 0.0
C537 C 0.2058 0.29237 0.77485 0.0
C538 C 0.22133 0.25991 0.77643 0.0
C539 C 0.26838 0.27404 0.78053 0.0
C540 C 0.30051 0.32268 0.7829 0.0
C541 C 0.2855 0.35665 0.78117 0.0
C542 C 0.23713 0.34091 0.77759 0.0
H543 H 0.88776 0.98071 0.67813 0.0
H544 H 0.96833 0.13277 0.68719 0.0
H545 H 0.92449 0.14556 0.66385 0.0
H546 H 0.8814 0.98109 0.63343 0.0
H547 H 0.82259 0.92964 0.6326 0.0
H548 H 0.86231 0.93719 0.64998 0.0
H549 H 0.79989 0.93047 0.67128 0.0
H550 H 0.75952 0.92308 0.65415 0.0
H551 H 0.77611 0.96996 0.66954 0.0
H552 H 0.87464 0.15396 0.63596 0.0
H553 H 0.80245 0.12969 0.60966 0.0
H554 H 0.7478 0.9527 0.62111 0.0
C555 C 0.89597 0.01659 0.67509 0.0
C556 C 0.93129 0.05578 0.68433 0.0
C557 C 0.9413 0.10229 0.68022 0.0
C558 C 0.91669 0.10988 0.66698 0.0
C559 C 0.882 0.07068 0.65802 0.0
C560 C 0.87101 0.02386 0.66193 0.0
C561 C 0.83139 0.98357 0.65116 0.0
C562 C 0.85057 0.95628 0.64121 0.0
C563 C 0.78925 0.94979 0.66219 0.0
C564 C 0.81724 0.01041 0.63934 0.0
C565 C 0.85252 0.07069 0.64425 0.0
C566 C 0.85033 0.11714 0.63272 0.0
C567 C 0.80738 0.10259 0.61582 0.0
C568 C 0.76169 0.03766 0.61455 0.0
C569 C 0.77284 0.99019 0.62294 0.0
H570 H 0.91749 0.96888 0.99632 0.0
H571 H 0.85525 0.8977 0.04357 0.0
H572 H 0.79538 0.82744 0.02759 0.0
H573 H 0.80221 0.91502 0.97102 0.0
H574 H 0.83108 0.91088 0.9523 0.0
H575 H 0.86352 0.95851 0.96732 0.0
H576 H 0.92784 0.93391 0.96999 0.0
H577 H 0.89548 0.88599 0.95518 0.0
H578 H 0.91061 0.87374 0.97593 0.0
H579 H 0.75299 0.76037 0.00702 0.0
H580 H 0.72677 0.7035 0.98323 0.0
H581 H 0.81274 0.81902 0.94897 0.0
C582 C 0.89025 0.93913 0.00327 0.0
C583 C 0.89089 0.93875 0.02117 0.0
C584 C 0.85521 0.89887 0.02985 0.0
C585 C 0.82103 0.85878 0.02088 0.0
C586 C 0.82251 0.85949 0.00324 0.0
C587 C 0.85562 0.89899 0.9945 0.0
C588 C 0.85211 0.88916 0.97562 0.0
C589 C 0.83627 0.92024 0.966 0.0
C590 C 0.8993 0.8961 0.96879 0.0
C591 C 0.81363 0.83728 0.97522 0.0
C592 C 0.79671 0.82093 0.99126 0.0
C593 C 0.76488 0.77301 0.99432 0.0
C594 C 0.75026 0.74089 0.98068 0.0
C595 C 0.76721 0.75689 0.96411 0.0
C596 C 0.79855 0.80593 0.96142 0.0
H597 H 0.04511 0.92959 0.34897 0.0
H598 H 0.89746 0.89384 0.34807 0.0
H599 H 0.87534 0.81728 0.33384 0.0
H600 H 0.04511 0.87762 0.30853 0.0
H601 H 0.08399 0.8566 0.31598 0.0
H602 H 0.08789 0.90915 0.32523 0.0
H603 H 0.07513 0.8713 0.35506 0.0
H604 H 0.07128 0.81871 0.34592 0.0
H605 H 0.02362 0.81386 0.35874 0.0
H606 H 0.86998 0.7437 0.32011 0.0
H607 H 0.88128 0.67848 0.30925 0.0
H608 H 0.03226 0.76305 0.32023 0.0
C609 C 0.00813 0.90591 0.34565 0.0
C610 C 0.97297 0.91768 0.3495 0.0
C611 C 0.92493 0.88547 0.34516 0.0
C612 C 0.91211 0.84204 0.33706 0.0
C613 C 0.94779 0.83149 0.3335 0.0
C614 C 0.99478 0.86253 0.33774 0.0
C615 C 0.02624 0.8423 0.33326 0.0
C616 C 0.06296 0.87326 0.31996 0.0
C617 C 0.05047 0.83617 0.3492 0.0
C618 C 0.98965 0.79477 0.32589 0.0
C619 C 0.94462 0.78921 0.32599 0.0
C620 C 0.9051 0.74778 0.31995 0.0
C621 C 0.91181 0.711 0.3138 0.0
C622 C 0.95763 0.71585 0.31387 0.0
C623 C 0.99689 0.75846 0.31993 0.0
H624 H 0.14223 0.08857 0.68677 0.0
H625 H 0.0648 0.93632 0.69569 0.0
H626 H 0.12386 0.92761 0.67891 0.0
H627 H 0.17817 0.08423 0.64373 0.0
H628 H 0.23571 0.13661 0.64661 0.0
H629 H 0.18581 0.13004 0.65844 0.0
H630 H 0.23268 0.14141 0.68655 0.0
H631 H 0.2827 0.14807 0.67482 0.0
H632 H 0.25707 0.10332 0.69103 0.0
H633 H 0.19472 0.9369 0.6626 0.0
H634 H 0.27079 0.96325 0.64802 0.0
H635 H 0.30034 0.10913 0.64981 0.0
C636 C 0.13734 0.05328 0.68506 0.0
C637 C 0.09891 0.01307 0.69247 0.0
C638 C 0.09401 0.96758 0.69007 0.0
C639 C 0.12731 0.96231 0.68055 0.0
C640 C 0.1651 0.00287 0.67353 0.0
C641 C 0.17015 0.04745 0.67566 0.0
C642 C 0.21482 0.0857 0.66747 0.0
C643 C 0.20289 0.11059 0.65321 0.0
C644 C 0.24881 0.12173 0.68076 0.0
C645 C 0.23445 0.05581 0.66048 0.0
C646 C 0.20529 0.0081 0.66404 0.0
C647 C 0.21741 0.97406 0.65951 0.0
C648 C 0.26053 0.98929 0.65119 0.0
C649 C 0.29073 0.03806 0.64735 0.0
C650 C 0.27731 0.07151 0.65214 0.0
H651 H 0.09902 0.1065 0.99606 0.0
H652 H 0.16522 0.17827 0.04338 0.0
H653 H 0.22216 0.24944 0.02747 0.0
H654 H 0.21147 0.16148 0.9708 0.0
H655 H 0.18075 0.16469 0.9521 0.0
H656 H 0.15005 0.11732 0.96711 0.0
H657 H 0.08512 0.14085 0.96984 0.0
H658 H 0.11575 0.1885 0.95503 0.0
H659 H 0.1021 0.20098 0.97579 0.0
H660 H 0.2619 0.31669 0.00681 0.0
H661 H 0.28628 0.37268 0.98293 0.0
H662 H 0.19828 0.25572 0.94874 0.0
C663 C 0.12639 0.13672 0.00303 0.0
C664 C 0.12787 0.13694 0.02092 0.0
C665 C 0.16379 0.17725 0.02965 0.0
C666 C 0.19622 0.21785 0.02073 0.0
C667 C 0.19281 0.2171 0.00308 0.0
C668 C 0.15942 0.1772 0.99431 0.0
C669 C 0.16121 0.18653 0.97544 0.0
C670 C 0.17681 0.15567 0.9658 0.0
C671 C 0.1132 0.17877 0.96864 0.0
C672 C 0.19915 0.23856 0.97506 0.0
C673 C 0.21716 0.25551 0.9911 0.0
C674 C 0.24905 0.30358 0.99412 0.0
C675 C 0.26262 0.3352 0.98042 0.0
C676 C 0.24457 0.31854 0.96383 0.0
C677 C 0.21316 0.26938 0.9612 0.0
H678 H 0.01777 0.1911 0.35959 0.0
H679 H 0.07489 0.1346 0.32281 0.0
H680 H 0.09888 0.20546 0.30485 0.0
H681 H 0.97353 0.2462 0.32912 0.0
H682 H 0.98989 0.29689 0.34266 0.0
H683 H 0.97372 0.23991 0.35182 0.0
H684 H 0.05394 0.27789 0.36834 0.0
H685 H 0.07036 0.33489 0.35924 0.0
H686 H 0.10864 0.31 0.3569 0.0
H687 H 0.12358 0.28611 0.29241 0.0
H688 H 0.14514 0.36911 0.28609 0.0
H689 H 0.06969 0.37155 0.33061 0.0
C690 C 0.03467 0.19327 0.34763 0.0
C691 C 0.04442 0.15738 0.34255 0.0
C692 C 0.067 0.1617 0.32691 0.0
C693 C 0.08067 0.20175 0.31662 0.0
C694 C 0.07117 0.23689 0.32213 0.0
C695 C 0.04841 0.23286 0.33723 0.0
C696 C 0.04456 0.27663 0.34073 0.0
C697 C 0.99231 0.26415 0.3411 0.0
C698 C 0.07096 0.3013 0.35728 0.0
C699 C 0.06946 0.30634 0.32539 0.0
C700 C 0.08443 0.28279 0.31478 0.0
C701 C 0.11114 0.30451 0.30043 0.0
C702 C 0.1231 0.35162 0.29691 0.0
C703 C 0.10783 0.37626 0.3076 0.0
C704 C 0.08055 0.35302 0.32196 0.0
loop_
_geom_bond_atom_site_label_1
_geom_bond_atom_site_label_2
_geom_bond_distance
_geom_bond_site_symmetry_2
_ccdc_geom_bond_type
In0 O1 2.294 1_455 S
In0 O2 2.326 . S
In0 O6 2.266 1_445 S
In0 O7 2.326 1_445 S
In0 O8 2.266 1_545 S
In0 O9 2.326 1_445 S
In0 O11 2.294 . S
In0 O12 2.326 . S
O1 In0 2.294 1_655 S
O1 C10 1.240 1_655 S
O2 In0 2.326 . S
O2 C10 1.252 . S
C3 O6 1.252 . S
C3 O7 1.260 . S
C4 O11 1.240 . S
C4 O12 1.252 . S
C5 O8 1.252 . S
C5 O9 1.260 1_455 S
O6 In0 2.266 1_665 S
O6 C3 1.252 . S
O7 In0 2.326 1_665 S
O7 C3 1.260 . S
O8 In0 2.266 1_565 S
O8 C5 1.252 . S
O9 In0 2.326 1_665 S
O9 C5 1.260 1_655 S
C10 O1 1.240 1_455 S
C10 O2 1.252 . S
O11 In0 2.294 . S
O11 C4 1.240 . S
O12 In0 2.326 . S
O12 C4 1.252 . S
In13 O14 2.294 . S
In13 O15 2.326 1_455 S
In13 O19 2.266 . S
In13 O20 2.326 . S
In13 O21 2.266 1_445 S
In13 O22 2.326 . S
In13 O24 2.294 1_455 S
In13 O25 2.326 1_455 S
O14 In13 2.294 . S
O14 C23 1.240 . S
O15 In13 2.326 1_655 S
O15 C23 1.252 1_655 S
C16 O19 1.252 . S
C16 O20 1.260 . S
C17 O24 1.240 . S
C17 O25 1.252 . S
C18 O21 1.252 1_455 S
C18 O22 1.260 1_565 S
O19 In13 2.266 . S
O19 C16 1.252 . S
O20 In13 2.326 . S
O20 C16 1.260 . S
O21 In13 2.266 1_665 S
O21 C18 1.252 1_655 S
O22 In13 2.326 . S
O22 C18 1.260 1_545 S
C23 O14 1.240 . S
C23 O15 1.252 1_455 S
O24 In13 2.294 1_655 S
O24 C17 1.240 . S
O25 In13 2.326 1_655 S
O25 C17 1.252 . S
In26 O27 2.294 1_445 S
In26 O28 2.326 1_455 S
In26 O32 2.266 . S
In26 O33 2.326 . S
In26 O34 2.266 . S
In26 O35 2.326 . S
In26 O37 2.294 1_455 S
In26 O38 2.326 1_445 S
O27 In26 2.294 1_665 S
O27 C36 1.240 . S
O28 In26 2.326 1_655 S
O28 C36 1.252 1_545 S
C29 O32 1.252 . S
C29 O33 1.260 . S
C30 O37 1.240 . S
C30 O38 1.252 1_545 S
C31 O34 1.252 . S
C31 O35 1.260 . S
O32 In26 2.266 . S
O32 C29 1.252 . S
O33 In26 2.326 . S
O33 C29 1.260 . S
O34 In26 2.266 . S
O34 C31 1.252 . S
O35 In26 2.326 . S
O35 C31 1.260 . S
C36 O27 1.240 . S
C36 O28 1.252 1_565 S
O37 In26 2.294 1_655 S
O37 C30 1.240 . S
O38 In26 2.326 1_665 S
O38 C30 1.252 1_565 S
C39 C40 1.560 . S
C39 H100 0.959 . S
C39 H101 0.959 . S
C39 H102 0.960 . S
C40 C39 1.560 . S
C40 O95 1.426 . S
C40 H99 0.980 1_655 S
C41 C42 1.407 1_655 S
C41 C46 1.418 . S
C41 O95 1.334 . S
C42 C41 1.407 1_455 S
C42 C43 1.360 . S
C42 H103 0.929 . S
C43 C42 1.360 . S
C43 C44 1.401 . S
C43 C47 1.527 . S
C44 C43 1.401 . S
C44 C45 1.405 1_455 S
C44 C77 1.587 . S
C45 C44 1.405 1_655 S
C45 C46 1.332 . S
C45 C48 1.496 . S
C46 C41 1.418 . S
C46 C45 1.332 . S
C46 H104 0.929 . S
C47 C43 1.527 . S
C47 H105 0.959 . S
C47 H106 0.961 . S
C47 H107 0.961 . S
C48 C45 1.496 . S
C48 H108 0.960 . S
C48 H109 0.960 . S
C48 H110 0.961 . S
C49 C50 1.517 . S
C49 H112 0.961 . S
C49 H113 0.960 . S
C49 H114 0.959 . S
C50 C49 1.517 . S
C50 O98 1.468 . S
C50 H111 0.980 . S
C51 C52 1.349 . S
C51 C56 1.367 . S
C51 O98 1.408 . S
C52 C51 1.349 . S
C52 C53 1.407 . S
C52 H115 0.930 . S
C53 C52 1.407 . S
C53 C54 1.449 . S
C53 C57 1.535 1_455 S
C54 C53 1.449 . S
C54 C55 1.384 . S
C54 C79 1.553 . S
C55 C54 1.384 . S
C55 C56 1.364 . S
C55 C58 1.450 . S
C56 C51 1.367 . S
C56 C55 1.364 . S
C56 H116 0.931 . S
C57 C53 1.535 1_655 S
C57 H117 0.959 . S
C57 H118 0.961 . S
C57 H119 0.959 . S
C58 C55 1.450 . S
C58 H120 0.960 . S
C58 H121 0.960 . S
C58 H122 0.960 . S
C59 C60 1.309 . S
C59 C64 1.304 . S
C59 O97 1.435 . S
C60 C59 1.309 . S
C60 C61 1.476 . S
C60 H124 0.930 1_455 S
C61 C60 1.476 . S
C61 C62 1.400 . S
C61 C65 1.567 1_455 S
C62 C61 1.400 . S
C62 C63 1.373 . S
C62 C84 1.432 . S
C63 C62 1.373 . S
C63 C64 1.339 . S
C63 C66 1.530 . S
C64 C59 1.304 . S
C64 C63 1.339 . S
C64 H125 0.930 . S
C65 C61 1.567 1_655 S
C65 H126 0.961 . S
C65 H127 0.960 . S
C65 H128 0.958 . S
C66 C63 1.530 . S
C66 H129 0.961 . S
C66 H130 0.960 . S
C66 H131 0.960 . S
C67 C68 1.530 1_655 S
C67 H133 0.961 . S
C67 H134 0.961 . S
C67 H135 0.959 . S
C68 C67 1.530 1_455 S
C68 O96 1.412 1_455 S
C68 H132 0.980 . S
C69 C70 1.288 . S
C69 C74 1.377 1_655 S
C69 O96 1.393 . S
C70 C69 1.288 . S
C70 C71 1.369 . S
C70 H136 0.932 . S
C71 C70 1.369 . S
C71 C72 1.398 1_655 S
C71 C75 1.527 . S
C72 C71 1.398 1_455 S
C72 C73 1.380 . S
C72 C86 1.497 . S
C73 C72 1.380 . S
C73 C74 1.383 . S
C73 C76 1.603 . S
C74 C69 1.377 1_455 S
C74 C73 1.383 . S
C74 H137 0.929 . S
C75 C71 1.527 . S
C75 H138 0.961 . S
C75 H139 0.959 . S
C75 H140 0.959 . S
C76 C73 1.603 . S
C76 H141 0.960 . S
C76 H142 0.962 . S
C76 H143 0.961 . S
C77 C44 1.587 . S
C77 C78 1.360 . S
C77 C90 1.412 . S
C78 C77 1.360 . S
C78 C79 1.365 . S
C78 H144 0.929 . S
C79 C54 1.553 . S
C79 C78 1.365 . S
C79 C80 1.404 . S
C80 C79 1.404 . S
C80 C81 1.395 . S
C80 C91 1.451 . S
C81 C80 1.395 . S
C81 C82 1.322 . S
C81 H145 0.930 . S
C82 C81 1.322 . S
C82 C83 1.459 . S
C82 H146 0.929 . S
C83 C82 1.459 . S
C83 C84 1.445 . S
C83 C92 1.395 . S
C84 C62 1.432 . S
C84 C83 1.445 . S
C84 C85 1.370 . S
C85 C84 1.370 . S
C85 C86 1.438 . S
C85 H147 0.930 . S
C86 C72 1.497 . S
C86 C85 1.438 . S
C86 C87 1.360 . S
C87 C86 1.360 . S
C87 C88 1.401 . S
C87 C92 1.446 . S
C88 C87 1.401 . S
C88 C89 1.347 . S
C88 H148 0.929 . S
C89 C88 1.347 . S
C89 C90 1.455 . S
C89 H149 0.930 . S
C90 C77 1.412 . S
C90 C89 1.455 . S
C90 C91 1.331 . S
C91 C80 1.451 . S
C91 C90 1.331 . S
C91 C92 1.497 . S
C92 C83 1.395 . S
C92 C87 1.446 . S
C92 C91 1.497 . S
C93 C94 1.582 . S
C93 H150 0.962 . S
C93 H151 0.959 . S
C93 H152 0.958 . S
C94 C93 1.582 . S
C94 O97 1.458 . S
C94 H123 0.980 . S
O95 C40 1.426 . S
O95 C41 1.334 . S
O96 C68 1.412 1_655 S
O96 C69 1.393 . S
O97 C59 1.435 . S
O97 C94 1.458 . S
O98 C50 1.468 . S
O98 C51 1.408 . S
H99 C40 0.980 1_455 S
H100 C39 0.959 . S
H101 C39 0.959 . S
H102 C39 0.960 . S
H103 C42 0.929 . S
H104 C46 0.929 . S
H105 C47 0.959 . S
H106 C47 0.961 . S
H107 C47 0.961 . S
H108 C48 0.960 . S
H109 C48 0.960 . S
H110 C48 0.961 . S
H111 C50 0.980 . S
H112 C49 0.961 . S
H113 C49 0.960 . S
H114 C49 0.959 . S
H115 C52 0.930 . S
H116 C56 0.931 . S
H117 C57 0.959 . S
H118 C57 0.961 . S
H119 C57 0.959 . S
H120 C58 0.960 . S
H121 C58 0.960 . S
H122 C58 0.960 . S
H123 C94 0.980 . S
H124 C60 0.930 1_655 S
H125 C64 0.930 . S
H126 C65 0.961 . S
H127 C65 0.960 . S
H128 C65 0.958 . S
H129 C66 0.961 . S
H130 C66 0.960 . S
H131 C66 0.960 . S
H132 C68 0.980 . S
H133 C67 0.961 . S
H134 C67 0.961 . S
H135 C67 0.959 . S
H136 C70 0.932 . S
H137 C74 0.929 . S
H138 C75 0.961 . S
H139 C75 0.959 . S
H140 C75 0.959 . S
H141 C76 0.960 . S
H142 C76 0.962 . S
H143 C76 0.961 . S
H144 C78 0.929 . S
H145 C81 0.930 . S
H146 C82 0.929 . S
H147 C85 0.930 . S
H148 C88 0.929 . S
H149 C89 0.930 . S
H150 C93 0.962 . S
H151 C93 0.959 . S
H152 C93 0.958 . S
C153 C154 1.560 1_565 S
C153 H214 0.959 . S
C153 H215 0.959 . S
C153 H216 0.960 . S
C154 C153 1.560 1_545 S
C154 O209 1.426 1_545 S
C154 H213 0.980 . S
C155 C156 1.407 . S
C155 C160 1.418 1_545 S
C155 O209 1.334 1_545 S
C156 C155 1.407 . S
C156 C157 1.360 . S
C156 H217 0.929 . S
C157 C156 1.360 . S
C157 C158 1.401 . S
C157 C161 1.527 . S
C158 C157 1.401 . S
C158 C159 1.405 1_545 S
C158 C191 1.587 . S
C159 C158 1.405 1_565 S
C159 C160 1.332 . S
C159 C162 1.496 . S
C160 C155 1.418 1_565 S
C160 C159 1.332 . S
C160 H218 0.929 . S
C161 C157 1.527 . S
C161 H219 0.959 . S
C161 H220 0.961 . S
C161 H221 0.961 . S
C162 C159 1.496 . S
C162 H222 0.960 . S
C162 H223 0.960 . S
C162 H224 0.961 . S
C163 C164 1.517 . S
C163 H226 0.961 . S
C163 H227 0.960 . S
C163 H228 0.959 . S
C164 C163 1.517 . S
C164 O212 1.468 . S
C164 H225 0.980 . S
C165 C166 1.349 . S
C165 C170 1.367 . S
C165 O212 1.408 . S
C166 C165 1.349 . S
C166 C167 1.407 . S
C166 H229 0.930 . S
C167 C166 1.407 . S
C167 C168 1.449 . S
C167 C171 1.535 1_545 S
C168 C167 1.449 . S
C168 C169 1.384 . S
C168 C193 1.553 . S
C169 C168 1.384 . S
C169 C170 1.364 . S
C169 C172 1.450 . S
C170 C165 1.367 . S
C170 C169 1.364 . S
C170 H230 0.931 . S
C171 C167 1.535 1_565 S
C171 H231 0.948 1_565 S
C171 H232 0.961 . S
C171 H233 0.959 . S
C172 C169 1.450 . S
C172 H234 0.960 . S
C172 H235 0.960 . S
C172 H236 0.960 . S
C173 C174 1.309 . S
C173 C178 1.304 . S
C173 O211 1.435 . S
C174 C173 1.309 . S
C174 C175 1.476 . S
C174 H238 0.930 . S
C175 C174 1.476 . S
C175 C176 1.400 . S
C175 C179 1.567 1_545 S
C176 C175 1.400 . S
C176 C177 1.373 . S
C176 C198 1.432 . S
C177 C176 1.373 . S
C177 C178 1.339 . S
C177 C180 1.530 . S
C178 C173 1.304 . S
C178 C177 1.339 . S
C178 H239 0.930 . S
C179 C175 1.567 1_565 S
C179 H240 0.961 . S
C179 H241 0.960 . S
C179 H242 0.958 . S
C180 C177 1.530 . S
C180 H243 0.961 . S
C180 H244 0.960 . S
C180 H245 0.960 . S
C181 C182 1.530 . S
C181 H247 0.961 . S
C181 H248 0.961 1_545 S
C181 H249 0.959 1_545 S
C182 C181 1.530 . S
C182 O210 1.412 . S
C182 H246 0.980 . S
C183 C184 1.288 1_545 S
C183 C188 1.377 . S
C183 O210 1.393 . S
C184 C183 1.288 1_565 S
C184 C185 1.369 . S
C184 H250 0.932 . S
C185 C184 1.369 . S
C185 C186 1.398 1_565 S
C185 C189 1.527 . S
C186 C185 1.398 1_545 S
C186 C187 1.380 . S
C186 C200 1.497 . S
C187 C186 1.380 . S
C187 C188 1.383 . S
C187 C190 1.603 . S
C188 C183 1.377 . S
C188 C187 1.383 . S
C188 H251 0.929 . S
C189 C185 1.527 . S
C189 H252 0.961 . S
C189 H253 0.959 . S
C189 H254 0.959 . S
C190 C187 1.603 . S
C190 H255 0.960 . S
C190 H256 0.962 . S
C190 H257 0.961 . S
C191 C158 1.587 . S
C191 C192 1.360 . S
C191 C204 1.412 . S
C192 C191 1.360 . S
C192 C193 1.365 . S
C192 H258 0.929 . S
C193 C168 1.553 . S
C193 C192 1.365 . S
C193 C194 1.404 . S
C194 C193 1.404 . S
C194 C195 1.395 . S
C194 C205 1.451 . S
C195 C194 1.395 . S
C195 C196 1.322 . S
C195 H259 0.930 . S
C196 C195 1.322 . S
C196 C197 1.459 . S
C196 H260 0.929 . S
C197 C196 1.459 . S
C197 C198 1.445 . S
C197 C206 1.395 . S
C198 C176 1.432 . S
C198 C197 1.445 . S
C198 C199 1.370 . S
C199 C198 1.370 . S
C199 C200 1.438 . S
C199 H261 0.930 . S
C200 C186 1.497 . S
C200 C199 1.438 . S
C200 C201 1.360 . S
C201 C200 1.360 . S
C201 C202 1.401 . S
C201 C206 1.446 . S
C202 C201 1.401 . S
C202 C203 1.347 . S
C202 H262 0.929 . S
C203 C202 1.347 . S
C203 C204 1.455 . S
C203 H263 0.930 . S
C204 C191 1.412 . S
C204 C203 1.455 . S
C204 C205 1.331 . S
C205 C194 1.451 . S
C205 C204 1.331 . S
C205 C206 1.497 . S
C206 C197 1.395 . S
C206 C201 1.446 . S
C206 C205 1.497 . S
C207 C208 1.582 . S
C207 H264 0.962 . S
C207 H265 0.959 . S
C207 H266 0.958 . S
C208 C207 1.582 . S
C208 O211 1.458 . S
C208 H237 0.980 . S
O209 C154 1.426 1_565 S
O209 C155 1.334 1_565 S
O210 C182 1.412 . S
O210 C183 1.393 . S
O211 C173 1.435 . S
O211 C208 1.458 . S
O212 C164 1.468 . S
O212 C165 1.408 . S
H213 C154 0.980 . S
H214 C153 0.959 . S
H215 C153 0.959 . S
H216 C153 0.960 . S
H217 C156 0.929 . S
H218 C160 0.929 . S
H219 C161 0.959 . S
H220 C161 0.961 . S
H221 C161 0.961 . S
H222 C162 0.960 . S
H223 C162 0.960 . S
H224 C162 0.961 . S
H225 C164 0.980 . S
H226 C163 0.961 . S
H227 C163 0.960 . S
H228 C163 0.959 . S
H229 C166 0.930 . S
H230 C170 0.931 . S
H231 C171 0.948 1_545 S
H232 C171 0.961 . S
H233 C171 0.959 . S
H234 C172 0.960 . S
H235 C172 0.960 . S
H236 C172 0.960 . S
H237 C208 0.980 . S
H238 C174 0.930 . S
H239 C178 0.930 . S
H240 C179 0.961 . S
H241 C179 0.960 . S
H242 C179 0.958 . S
H243 C180 0.961 . S
H244 C180 0.960 . S
H245 C180 0.960 . S
H246 C182 0.980 . S
H247 C181 0.961 . S
H248 C181 0.961 1_565 S
H249 C181 0.959 1_565 S
H250 C184 0.932 . S
H251 C188 0.929 . S
H252 C189 0.961 . S
H253 C189 0.959 . S
H254 C189 0.959 . S
H255 C190 0.960 . S
H256 C190 0.962 . S
H257 C190 0.961 . S
H258 C192 0.929 . S
H259 C195 0.930 . S
H260 C196 0.929 . S
H261 C199 0.930 . S
H262 C202 0.929 . S
H263 C203 0.930 . S
H264 C207 0.962 . S
H265 C207 0.959 . S
H266 C207 0.958 . S
C267 C268 1.560 . S
C267 H328 0.959 . S
C267 H329 0.959 . S
C267 H330 0.960 . S
C268 C267 1.560 . S
C268 O323 1.426 . S
C268 H327 0.980 . S
C269 C270 1.407 . S
C269 C274 1.418 . S
C269 O323 1.334 . S
C270 C269 1.407 . S
C270 C271 1.360 . S
C270 H331 0.929 . S
C271 C270 1.360 . S
C271 C272 1.401 . S
C271 C275 1.527 . S
C272 C271 1.401 . S
C272 C273 1.405 . S
C272 C305 1.587 . S
C273 C272 1.405 . S
C273 C274 1.332 . S
C273 C276 1.496 . S
C274 C269 1.418 . S
C274 C273 1.332 . S
C274 H332 0.929 . S
C275 C271 1.527 . S
C275 H333 0.959 . S
C275 H334 0.961 . S
C275 H335 0.961 . S
C276 C273 1.496 . S
C276 H336 0.960 . S
C276 H337 0.960 . S
C276 H338 0.961 . S
C277 C278 1.517 . S
C277 H340 0.961 . S
C277 H341 0.960 . S
C277 H342 0.959 . S
C278 C277 1.517 . S
C278 O326 1.468 . S
C278 H339 0.980 . S
C279 C280 1.349 . S
C279 C284 1.367 . S
C279 O326 1.408 . S
C280 C279 1.349 . S
C280 C281 1.407 . S
C280 H343 0.930 . S
C281 C280 1.407 . S
C281 C282 1.449 . S
C281 C285 1.535 . S
C282 C281 1.449 . S
C282 C283 1.384 . S
C282 C307 1.553 . S
C283 C282 1.384 . S
C283 C284 1.364 . S
C283 C286 1.450 . S
C284 C279 1.367 . S
C284 C283 1.364 . S
C284 H344 0.931 . S
C285 C281 1.535 . S
C285 H345 0.959 . S
C285 H346 0.961 . S
C285 H347 0.959 . S
C286 C283 1.450 . S
C286 H348 0.960 . S
C286 H349 0.960 . S
C286 H350 0.960 . S
C287 C288 1.309 . S
C287 C292 1.304 . S
C287 O325 1.435 . S
C288 C287 1.309 . S
C288 C289 1.476 . S
C288 H352 0.930 . S
C289 C288 1.476 . S
C289 C290 1.400 . S
C289 C293 1.567 . S
C290 C289 1.400 . S
C290 C291 1.373 . S
C290 C312 1.432 . S
C291 C290 1.373 . S
C291 C292 1.339 . S
C291 C294 1.530 . S
C292 C287 1.304 . S
C292 C291 1.339 . S
C292 H353 0.930 . S
C293 C289 1.567 . S
C293 H354 0.961 . S
C293 H355 0.960 . S
C293 H356 0.958 . S
C294 C291 1.530 . S
C294 H357 0.961 . S
C294 H358 0.960 . S
C294 H359 0.960 . S
C295 C296 1.530 . S
C295 H361 0.961 . S
C295 H362 0.961 . S
C295 H363 0.959 . S
C296 C295 1.530 . S
C296 O324 1.412 . S
C296 H360 0.980 . S
C297 C298 1.288 . S
C297 C302 1.377 . S
C297 O324 1.393 . S
C298 C297 1.288 . S
C298 C299 1.369 . S
C298 H364 0.932 . S
C299 C298 1.369 . S
C299 C300 1.398 . S
C299 C303 1.527 . S
C300 C299 1.398 . S
C300 C301 1.380 . S
C300 C314 1.497 . S
C301 C300 1.380 . S
C301 C302 1.383 . S
C301 C304 1.603 . S
C302 C297 1.377 . S
C302 C301 1.383 . S
C302 H365 0.929 . S
C303 C299 1.527 . S
C303 H366 0.961 . S
C303 H367 0.959 . S
C303 H368 0.959 . S
C304 C301 1.603 . S
C304 H369 0.960 . S
C304 H370 0.962 . S
C304 H371 0.961 . S
C305 C272 1.587 . S
C305 C306 1.360 . S
C305 C318 1.412 . S
C306 C305 1.360 . S
C306 C307 1.365 . S
C306 H372 0.929 . S
C307 C282 1.553 . S
C307 C306 1.365 . S
C307 C308 1.404 . S
C308 C307 1.404 . S
C308 C309 1.395 . S
C308 C319 1.451 . S
C309 C308 1.395 . S
C309 C310 1.322 . S
C309 H373 0.930 . S
C310 C309 1.322 . S
C310 C311 1.459 . S
C310 H374 0.929 . S
C311 C310 1.459 . S
C311 C312 1.445 . S
C311 C320 1.395 . S
C312 C290 1.432 . S
C312 C311 1.445 . S
C312 C313 1.370 . S
C313 C312 1.370 . S
C313 C314 1.438 . S
C313 H375 0.930 . S
C314 C300 1.497 . S
C314 C313 1.438 . S
C314 C315 1.360 . S
C315 C314 1.360 . S
C315 C316 1.401 . S
C315 C320 1.446 . S
C316 C315 1.401 . S
C316 C317 1.347 . S
C316 H376 0.929 . S
C317 C316 1.347 . S
C317 C318 1.455 . S
C317 H377 0.930 . S
C318 C305 1.412 . S
C318 C317 1.455 . S
C318 C319 1.331 . S
C319 C308 1.451 . S
C319 C318 1.331 . S
C319 C320 1.497 . S
C320 C311 1.395 . S
C320 C315 1.446 . S
C320 C319 1.497 . S
C321 C322 1.582 . S
C321 H378 0.962 . S
C321 H379 0.959 . S
C321 H380 0.958 . S
C322 C321 1.582 . S
C322 O325 1.458 . S
C322 H351 0.980 . S
O323 C268 1.426 . S
O323 C269 1.334 . S
O324 C296 1.412 . S
O324 C297 1.393 . S
O325 C287 1.435 . S
O325 C322 1.458 . S
O326 C278 1.468 . S
O326 C279 1.408 . S
H327 C268 0.980 . S
H328 C267 0.959 . S
H329 C267 0.959 . S
H330 C267 0.960 . S
H331 C270 0.929 . S
H332 C274 0.929 . S
H333 C275 0.959 . S
H334 C275 0.961 . S
H335 C275 0.961 . S
H336 C276 0.960 . S
H337 C276 0.960 . S
H338 C276 0.961 . S
H339 C278 0.980 . S
H340 C277 0.961 . S
H341 C277 0.960 . S
H342 C277 0.959 . S
H343 C280 0.930 . S
H344 C284 0.931 . S
H345 C285 0.959 . S
H346 C285 0.961 . S
H347 C285 0.959 . S
H348 C286 0.960 . S
H349 C286 0.960 . S
H350 C286 0.960 . S
H351 C322 0.980 . S
H352 C288 0.930 . S
H353 C292 0.930 . S
H354 C293 0.961 . S
H355 C293 0.960 . S
H356 C293 0.958 . S
H357 C294 0.961 . S
H358 C294 0.960 . S
H359 C294 0.960 . S
H360 C296 0.980 . S
H361 C295 0.961 . S
H362 C295 0.961 . S
H363 C295 0.959 . S
H364 C298 0.932 . S
H365 C302 0.929 . S
H366 C303 0.961 . S
H367 C303 0.959 . S
H368 C303 0.959 . S
H369 C304 0.960 . S
H370 C304 0.962 . S
H371 C304 0.961 . S
H372 C306 0.929 . S
H373 C309 0.930 . S
H374 C310 0.929 . S
H375 C313 0.930 . S
H376 C316 0.929 . S
H377 C317 0.930 . S
H378 C321 0.962 . S
H379 C321 0.959 . S
H380 C321 0.958 . S
H381 C393 0.930 . S
H382 C395 0.930 . S
H383 C396 0.930 . S
H384 C400 0.959 . S
H385 C400 0.959 . S
H386 C400 0.961 . S
H387 C401 0.960 . S
H388 C401 0.961 . S
H389 C401 0.959 . S
H390 C404 0.929 . S
H391 C405 0.931 . S
H392 C407 0.930 . S
C393 H381 0.930 . S
C393 C394 1.399 . S
C393 C398 1.399 . S
C394 C393 1.399 . S
C394 C395 1.376 1_455 S
C395 H382 0.930 . S
C395 C394 1.376 1_655 S
C395 C396 1.388 . S
C396 H383 0.930 . S
C396 C395 1.388 . S
C396 C397 1.390 . S
C397 C396 1.390 . S
C397 C398 1.394 1_655 S
C397 C403 1.465 . S
C398 C393 1.399 . S
C398 C397 1.394 1_455 S
C398 C399 1.516 . S
C399 C398 1.516 . S
C399 C400 1.502 . S
C399 C401 1.561 . S
C399 C402 1.526 . S
C400 H384 0.959 . S
C400 H385 0.959 . S
C400 H386 0.961 . S
C400 C399 1.502 . S
C401 H387 0.960 . S
C401 H388 0.961 . S
C401 H389 0.959 . S
C401 C399 1.561 . S
C402 C399 1.526 . S
C402 C403 1.396 1_455 S
C402 C407 1.390 . S
C403 C397 1.465 . S
C403 C402 1.396 1_655 S
C403 C404 1.399 . S
C404 H390 0.929 . S
C404 C403 1.399 . S
C404 C405 1.385 . S
C405 H391 0.931 . S
C405 C404 1.385 . S
C405 C406 1.395 . S
C406 C405 1.395 . S
C406 C407 1.379 1_655 S
C407 H392 0.930 . S
C407 C402 1.390 . S
C407 C406 1.379 1_455 S
H408 C420 0.930 1_565 S
H409 C422 0.930 . S
H410 C423 0.930 . S
H411 C427 0.959 1_545 S
H412 C427 0.959 . S
H413 C427 0.961 . S
H414 C428 0.960 . S
H415 C428 0.961 . S
H416 C428 0.959 . S
H417 C431 0.929 . S
H418 C432 0.931 . S
H419 C434 0.930 1_565 S
C420 H408 0.930 1_545 S
C420 C421 1.399 . S
C420 C425 1.399 . S
C421 C420 1.399 . S
C421 C422 1.376 . S
C422 H409 0.930 . S
C422 C421 1.376 . S
C422 C423 1.388 . S
C423 H410 0.930 . S
C423 C422 1.388 . S
C423 C424 1.390 . S
C424 C423 1.390 . S
C424 C425 1.394 . S
C424 C430 1.465 . S
C425 C420 1.399 . S
C425 C424 1.394 . S
C425 C426 1.516 1_545 S
C426 C425 1.516 1_565 S
C426 C427 1.502 . S
C426 C428 1.561 . S
C426 C429 1.526 1_565 S
C427 H411 0.959 1_565 S
C427 H412 0.959 . S
C427 H413 0.961 . S
C427 C426 1.502 . S
C428 H414 0.960 . S
C428 H415 0.961 . S
C428 H416 0.959 . S
C428 C426 1.561 . S
C429 C426 1.526 1_545 S
C429 C430 1.396 . S
C429 C434 1.390 . S
C430 C424 1.465 . S
C430 C429 1.396 . S
C430 C431 1.399 . S
C431 H417 0.929 . S
C431 C430 1.399 . S
C431 C432 1.385 . S
C432 H418 0.931 . S
C432 C431 1.385 . S
C432 C433 1.389 . S
C433 C432 1.389 . S
C433 C434 1.387 . S
C434 H419 0.930 1_545 S
C434 C429 1.390 . S
C434 C433 1.387 . S
H435 C447 0.930 . S
H436 C449 0.930 . S
H437 C450 0.930 . S
H438 C454 0.959 . S
H439 C454 0.959 . S
H440 C454 0.961 . S
H441 C455 0.960 . S
H442 C455 0.961 . S
H443 C455 0.959 . S
H444 C458 0.929 . S
H445 C459 0.931 . S
H446 C461 0.930 . S
C447 H435 0.930 . S
C447 C448 1.399 . S
C447 C452 1.399 . S
C448 C447 1.399 . S
C448 C449 1.376 . S
C449 H436 0.930 . S
C449 C448 1.376 . S
C449 C450 1.388 . S
C450 H437 0.930 . S
C450 C449 1.388 . S
C450 C451 1.390 . S
C451 C450 1.390 . S
C451 C452 1.394 . S
C451 C457 1.465 . S
C452 C447 1.399 . S
C452 C451 1.394 . S
C452 C453 1.516 . S
C453 C452 1.516 . S
C453 C454 1.502 . S
C453 C455 1.561 . S
C453 C456 1.526 . S
C454 H438 0.959 . S
C454 H439 0.959 . S
C454 H440 0.961 . S
C454 C453 1.502 . S
C455 H441 0.960 . S
C455 H442 0.961 . S
C455 H443 0.959 . S
C455 C453 1.561 . S
C456 C453 1.526 . S
C456 C457 1.396 . S
C456 C461 1.390 . S
C457 C451 1.465 . S
C457 C456 1.396 . S
C457 C458 1.399 . S
C458 H444 0.929 . S
C458 C457 1.399 . S
C458 C459 1.385 . S
C459 H445 0.931 . S
C459 C458 1.385 . S
C459 C460 1.389 . S
C460 C459 1.389 . S
C460 C461 1.387 . S
C461 H446 0.930 . S
C461 C456 1.390 . S
C461 C460 1.387 . S
H462 C474 0.930 . S
H463 C476 0.930 . S
H464 C477 0.930 . S
H465 C481 0.959 . S
H466 C481 0.959 . S
H467 C481 0.961 . S
H468 C482 0.960 . S
H469 C482 0.961 . S
H470 C482 0.959 . S
H471 C485 0.929 . S
H472 C486 0.935 1_655 S
H473 C488 0.930 . S
C474 H462 0.930 . S
C474 C475 1.399 . S
C474 C479 1.399 . S
C475 C474 1.399 . S
C475 C476 1.376 1_455 S
C476 H463 0.930 . S
C476 C475 1.376 1_655 S
C476 C477 1.388 . S
C477 H464 0.930 . S
C477 C476 1.388 . S
C477 C478 1.390 1_655 S
C478 C477 1.390 1_455 S
C478 C479 1.394 . S
C478 C484 1.465 . S
C479 C474 1.399 . S
C479 C478 1.394 . S
C479 C480 1.516 . S
C480 C479 1.516 . S
C480 C481 1.502 . S
C480 C482 1.561 1_455 S
C480 C483 1.526 . S
C481 H465 0.959 . S
C481 H466 0.959 . S
C481 H467 0.961 . S
C481 C480 1.502 . S
C482 H468 0.960 . S
C482 H469 0.961 . S
C482 H470 0.959 . S
C482 C480 1.561 1_655 S
C483 C480 1.526 . S
C483 C484 1.396 . S
C483 C488 1.390 . S
C484 C478 1.465 . S
C484 C483 1.396 . S
C484 C485 1.399 1_455 S
C485 H471 0.929 . S
C485 C484 1.399 1_655 S
C485 C486 1.385 1_655 S
C486 H472 0.935 1_455 S
C486 C485 1.385 1_455 S
C486 C487 1.389 . S
C487 C486 1.389 . S
C487 C488 1.387 . S
C488 H473 0.930 . S
C488 C483 1.390 . S
C488 C487 1.387 . S
H489 C501 0.930 1_565 S
H490 C503 0.930 . S
H491 C504 0.930 . S
H492 C508 0.959 . S
H493 C508 0.959 . S
H494 C508 0.961 . S
H495 C509 0.960 . S
H496 C509 0.961 . S
H497 C509 0.959 . S
H498 C512 0.929 . S
H499 C513 0.931 . S
H500 C515 0.930 1_565 S
C501 H489 0.930 1_545 S
C501 C502 1.399 . S
C501 C506 1.399 . S
C502 C501 1.399 . S
C502 C503 1.376 . S
C503 H490 0.930 . S
C503 C502 1.376 . S
C503 C504 1.388 . S
C504 H491 0.930 . S
C504 C503 1.388 . S
C504 C505 1.390 . S
C505 C504 1.390 . S
C505 C506 1.394 . S
C505 C511 1.465 . S
C506 C501 1.399 . S
C506 C505 1.394 . S
C506 C507 1.516 1_545 S
C507 C506 1.516 1_565 S
C507 C508 1.502 . S
C507 C509 1.561 . S
C507 C510 1.526 1_565 S
C508 H492 0.959 . S
C508 H493 0.959 . S
C508 H494 0.961 . S
C508 C507 1.502 . S
C509 H495 0.960 . S
C509 H496 0.961 . S
C509 H497 0.959 . S
C509 C507 1.561 . S
C510 C507 1.526 1_545 S
C510 C511 1.396 . S
C510 C515 1.390 . S
C511 C505 1.465 . S
C511 C510 1.396 . S
C511 C512 1.399 . S
C512 H498 0.929 . S
C512 C511 1.399 . S
C512 C513 1.385 . S
C513 H499 0.931 . S
C513 C512 1.385 . S
C513 C514 1.389 . S
C514 C513 1.389 . S
C514 C515 1.387 . S
C515 H500 0.930 1_545 S
C515 C510 1.390 . S
C515 C514 1.387 . S
H516 C528 0.930 . S
H517 C530 0.930 . S
H518 C531 0.930 . S
H519 C535 0.959 . S
H520 C535 0.959 . S
H521 C535 0.961 . S
H522 C536 0.960 . S
H523 C536 0.961 . S
H524 C536 0.959 . S
H525 C539 0.929 . S
H526 C540 0.931 . S
H527 C542 0.930 . S
C528 H516 0.930 . S
C528 C529 1.399 . S
C528 C533 1.399 . S
C529 C528 1.399 . S
C529 C530 1.376 . S
C530 H517 0.930 . S
C530 C529 1.376 . S
C530 C531 1.388 . S
C531 H518 0.930 . S
C531 C530 1.388 . S
C531 C532 1.390 . S
C532 C531 1.390 . S
C532 C533 1.394 . S
C532 C538 1.465 . S
C533 C528 1.399 . S
C533 C532 1.394 . S
C533 C534 1.516 . S
C534 C533 1.516 . S
C534 C535 1.502 . S
C534 C536 1.561 . S
C534 C537 1.526 . S
C535 H519 0.959 . S
C535 H520 0.959 . S
C535 H521 0.961 . S
C535 C534 1.502 . S
C536 H522 0.960 . S
C536 H523 0.961 . S
C536 H524 0.959 . S
C536 C534 1.561 . S
C537 C534 1.526 . S
C537 C538 1.396 . S
C537 C542 1.390 . S
C538 C532 1.465 . S
C538 C537 1.396 . S
C538 C539 1.399 . S
C539 H525 0.929 . S
C539 C538 1.399 . S
C539 C540 1.385 . S
C540 H526 0.931 . S
C540 C539 1.385 . S
C540 C541 1.389 . S
C541 C540 1.389 . S
C541 C542 1.387 . S
C542 H527 0.930 . S
C542 C537 1.390 . S
C542 C541 1.387 . S
H543 C555 0.930 1_565 S
H544 C557 0.930 . S
H545 C558 0.930 . S
H546 C562 0.959 . S
H547 C562 0.959 . S
H548 C562 0.961 . S
H549 C563 0.960 . S
H550 C563 0.961 . S
H551 C563 0.959 . S
H552 C566 0.929 . S
H553 C567 0.931 . S
H554 C569 0.930 1_565 S
C555 H543 0.930 1_545 S
C555 C556 1.399 . S
C555 C560 1.399 . S
C556 C555 1.399 . S
C556 C557 1.376 . S
C557 H544 0.930 . S
C557 C556 1.376 . S
C557 C558 1.388 . S
C558 H545 0.930 . S
C558 C557 1.388 . S
C558 C559 1.390 . S
C559 C558 1.390 . S
C559 C560 1.394 . S
C559 C565 1.465 . S
C560 C555 1.399 . S
C560 C559 1.394 . S
C560 C561 1.516 1_545 S
C561 C560 1.516 1_565 S
C561 C562 1.502 . S
C561 C563 1.561 . S
C561 C564 1.526 1_565 S
C562 H546 0.959 . S
C562 H547 0.959 . S
C562 H548 0.961 . S
C562 C561 1.502 . S
C563 H549 0.960 . S
C563 H550 0.961 . S
C563 H551 0.959 . S
C563 C561 1.561 . S
C564 C561 1.526 1_545 S
C564 C565 1.396 . S
C564 C569 1.390 . S
C565 C559 1.465 . S
C565 C564 1.396 . S
C565 C566 1.399 . S
C566 H552 0.929 . S
C566 C565 1.399 . S
C566 C567 1.385 . S
C567 H553 0.931 . S
C567 C566 1.385 . S
C567 C568 1.389 . S
C568 C567 1.389 . S
C568 C569 1.387 . S
C569 H554 0.930 1_545 S
C569 C564 1.390 . S
C569 C568 1.387 . S
H570 C582 0.911 1_556 S
H571 C584 0.930 . S
H572 C585 0.930 . S
H573 C589 0.959 . S
H574 C589 0.959 . S
H575 C589 0.961 . S
H576 C590 0.960 . S
H577 C590 0.961 . S
H578 C590 0.959 . S
H579 C593 0.929 1_554 S
H580 C594 0.931 . S
H581 C596 0.930 . S
C582 H570 0.911 1_554 S
C582 C583 1.431 . S
C582 C587 1.387 1_554 S
C583 C582 1.431 . S
C583 C584 1.376 . S
C584 H571 0.930 . S
C584 C583 1.376 . S
C584 C585 1.388 . S
C585 H572 0.930 . S
C585 C584 1.388 . S
C585 C586 1.390 . S
C586 C585 1.390 . S
C586 C587 1.394 1_554 S
C586 C592 1.465 1_554 S
C587 C582 1.387 1_556 S
C587 C586 1.394 1_556 S
C587 C588 1.516 . S
C588 C587 1.516 . S
C588 C589 1.502 . S
C588 C590 1.561 . S
C588 C591 1.526 . S
C589 H573 0.959 . S
C589 H574 0.959 . S
C589 H575 0.961 . S
C589 C588 1.502 . S
C590 H576 0.960 . S
C590 H577 0.961 . S
C590 H578 0.959 . S
C590 C588 1.561 . S
C591 C588 1.526 . S
C591 C592 1.396 . S
C591 C596 1.390 . S
C592 C586 1.465 1_556 S
C592 C591 1.396 . S
C592 C593 1.399 . S
C593 H579 0.929 1_556 S
C593 C592 1.399 . S
C593 C594 1.385 . S
C594 H580 0.931 . S
C594 C593 1.385 . S
C594 C595 1.389 . S
C595 C594 1.389 . S
C595 C596 1.387 . S
C596 H581 0.930 . S
C596 C591 1.390 . S
C596 C595 1.387 . S
H597 C609 0.930 . S
H598 C611 0.930 . S
H599 C612 0.930 . S
H600 C616 0.959 . S
H601 C616 0.959 . S
H602 C616 0.961 . S
H603 C617 0.960 . S
H604 C617 0.961 . S
H605 C617 0.959 . S
H606 C620 0.929 . S
H607 C621 0.931 . S
H608 C623 0.930 . S
C609 H597 0.930 . S
C609 C610 1.399 . S
C609 C614 1.399 . S
C610 C609 1.399 . S
C610 C611 1.376 1_455 S
C611 H598 0.930 . S
C611 C610 1.376 1_655 S
C611 C612 1.388 . S
C612 H599 0.930 . S
C612 C611 1.388 . S
C612 C613 1.390 . S
C613 C612 1.390 . S
C613 C614 1.394 1_655 S
C613 C619 1.465 . S
C614 C609 1.399 . S
C614 C613 1.394 1_455 S
C614 C615 1.516 . S
C615 C614 1.516 . S
C615 C616 1.502 . S
C615 C617 1.561 . S
C615 C618 1.526 . S
C616 H600 0.959 . S
C616 H601 0.959 . S
C616 H602 0.961 . S
C616 C615 1.502 . S
C617 H603 0.960 . S
C617 H604 0.961 . S
C617 H605 0.959 . S
C617 C615 1.561 . S
C618 C615 1.526 . S
C618 C619 1.396 1_455 S
C618 C623 1.390 . S
C619 C613 1.465 . S
C619 C618 1.396 1_655 S
C619 C620 1.399 . S
C620 H606 0.929 . S
C620 C619 1.399 . S
C620 C621 1.385 . S
C621 H607 0.931 . S
C621 C620 1.385 . S
C621 C622 1.389 1_655 S
C622 C621 1.389 1_455 S
C622 C623 1.387 . S
C623 H608 0.930 . S
C623 C618 1.390 . S
C623 C622 1.387 . S
H624 C636 0.930 . S
H625 C638 0.930 . S
H626 C639 0.930 . S
H627 C643 0.959 . S
H628 C643 0.959 . S
H629 C643 0.961 . S
H630 C644 0.960 . S
H631 C644 0.961 . S
H632 C644 0.959 . S
H633 C647 0.929 . S
H634 C648 0.931 . S
H635 C650 0.930 . S
C636 H624 0.930 . S
C636 C637 1.399 . S
C636 C641 1.399 . S
C637 C636 1.399 . S
C637 C638 1.376 1_545 S
C638 H625 0.930 . S
C638 C637 1.376 1_565 S
C638 C639 1.388 . S
C639 H626 0.930 . S
C639 C638 1.388 . S
C639 C640 1.390 1_565 S
C640 C639 1.390 1_545 S
C640 C641 1.394 . S
C640 C646 1.465 . S
C641 C636 1.399 . S
C641 C640 1.394 . S
C641 C642 1.516 . S
C642 C641 1.516 . S
C642 C643 1.502 . S
C642 C644 1.561 . S
C642 C645 1.526 . S
C643 H627 0.959 . S
C643 H628 0.959 . S
C643 H629 0.961 . S
C643 C642 1.502 . S
C644 H630 0.960 . S
C644 H631 0.961 . S
C644 H632 0.959 . S
C644 C642 1.561 . S
C645 C642 1.526 . S
C645 C646 1.396 . S
C645 C650 1.390 . S
C646 C640 1.465 . S
C646 C645 1.396 . S
C646 C647 1.399 1_545 S
C647 H633 0.929 . S
C647 C646 1.399 1_565 S
C647 C648 1.385 . S
C648 H634 0.931 . S
C648 C647 1.385 . S
C648 C649 1.389 1_565 S
C649 C648 1.389 1_545 S
C649 C650 1.387 . S
C650 H635 0.930 . S
C650 C645 1.390 . S
C650 C649 1.387 . S
H651 C663 0.936 . S
H652 C665 0.930 . S
H653 C666 0.930 . S
H654 C670 0.959 . S
H655 C670 0.959 . S
H656 C670 0.961 . S
H657 C671 0.960 . S
H658 C671 0.961 . S
H659 C671 0.959 . S
H660 C674 0.915 1_554 S
H661 C675 0.931 . S
H662 C677 0.930 . S
C663 H651 0.936 . S
C663 C664 1.386 1_556 S
C663 C668 1.406 . S
C664 C663 1.386 1_554 S
C664 C665 1.376 . S
C665 H652 0.930 . S
C665 C664 1.376 . S
C665 C666 1.388 . S
C666 H653 0.930 . S
C666 C665 1.388 . S
C666 C667 1.352 1_554 S
C667 C666 1.352 1_556 S
C667 C668 1.413 . S
C667 C673 1.490 . S
C668 C663 1.406 . S
C668 C667 1.413 . S
C668 C669 1.516 . S
C669 C668 1.516 . S
C669 C670 1.502 . S
C669 C671 1.561 . S
C669 C672 1.526 . S
C670 H654 0.959 . S
C670 H655 0.959 . S
C670 H656 0.961 . S
C670 C669 1.502 . S
C671 H657 0.960 . S
C671 H658 0.961 . S
C671 H659 0.959 . S
C671 C669 1.561 . S
C672 C669 1.526 . S
C672 C673 1.396 . S
C672 C677 1.390 . S
C673 C667 1.490 . S
C673 C672 1.396 . S
C673 C674 1.399 . S
C674 H660 0.915 1_556 S
C674 C673 1.399 . S
C674 C675 1.385 . S
C675 H661 0.931 . S
C675 C674 1.385 . S
C675 C676 1.389 . S
C676 C675 1.389 . S
C676 C677 1.387 . S
C677 H662 0.930 . S
C677 C672 1.390 . S
C677 C676 1.387 . S
H678 C690 0.930 . S
H679 C692 0.930 . S
H680 C693 0.930 . S
H681 C697 0.959 . S
H682 C697 0.959 . S
H683 C697 0.961 . S
H684 C698 0.960 . S
H685 C698 0.961 . S
H686 C698 0.959 . S
H687 C701 0.929 . S
H688 C702 0.931 . S
H689 C704 0.930 . S
C690 H678 0.930 . S
C690 C691 1.399 . S
C690 C695 1.399 . S
C691 C690 1.399 . S
C691 C692 1.376 . S
C692 H679 0.930 . S
C692 C691 1.376 . S
C692 C693 1.388 . S
C693 H680 0.930 . S
C693 C692 1.388 . S
C693 C694 1.390 . S
C694 C693 1.390 . S
C694 C695 1.394 . S
C694 C700 1.465 . S
C695 C690 1.399 . S
C695 C694 1.394 . S
C695 C696 1.516 . S
C696 C695 1.516 . S
C696 C697 1.502 1_455 S
C696 C698 1.561 . S
C696 C699 1.526 . S
C697 H681 0.959 . S
C697 H682 0.959 . S
C697 H683 0.961 . S
C697 C696 1.502 1_655 S
C698 H684 0.960 . S
C698 H685 0.961 . S
C698 H686 0.959 . S
C698 C696 1.561 . S
C699 C696 1.526 . S
C699 C700 1.396 . S
C699 C704 1.390 . S
C700 C694 1.465 . S
C700 C699 1.396 . S
C700 C701 1.399 . S
C701 H687 0.929 . S
C701 C700 1.399 . S
C701 C702 1.385 . S
C702 H688 0.931 . S
C702 C701 1.385 . S
C702 C703 1.389 . S
C703 C702 1.389 . S
C703 C704 1.387 . S
C704 H689 0.930 . S
C704 C699 1.390 . S
C704 C703 1.387 . S
C406 C94 1.203 1_655 S
C394 C10 1.601 . S
C421 C17 1.613 . S
C433 C208 1.067 . S
C448 C36 1.384 . S
C460 C268 1.112 . S
C475 C5 1.476 . S
C487 C68 1.192 . S
C514 C182 1.227 . S
C502 C16 1.480 . S
C529 C31 1.526 . S
C541 C278 1.032 . S
C568 C164 0.876 . S
C556 C30 1.525 . S
C583 C3 1.477 . S
C595 C296 1.200 . S
C622 C40 1.100 1_455 S
C610 C18 1.381 . S
C649 C154 1.046 . S
C637 C29 1.386 . S
C676 C322 1.166 . S
C664 C4 1.610 . S
C691 C23 1.512 . S
C703 C50 1.020 . S
