# Generated by pormake.
# Topology anh, (6,3)-cn, num edge types: 1
# Building blocks:
#     Node 0, Type 0, BuildingBlock: BETFEN_clean_sbu_0, # of connection points: 6
#     Node 1, Type 0, BuildingBlock: BETFEN_clean_sbu_0, # of connection points: 6
#     Node 2, Type 0, BuildingBlock: BETFEN_clean_sbu_0, # of connection points: 6
#     Node 3, Type 1, BuildingBlock: CUQRIR_clean_linker_1, # of connection points: 3
#     Node 4, Type 1, BuildingBlock: CUQRIR_clean_linker_1, # of connection points: 3
#     Node 5, Type 1, BuildingBlock: CUQRIR_clean_linker_1, # of connection points: 3
#     Node 6, Type 1, BuildingBlock: CUQRIR_clean_linker_1, # of connection points: 3
#     Node 7, Type 1, BuildingBlock: CUQRIR_clean_linker_1, # of connection points: 3
#     Node 8, Type 1, BuildingBlock: CUQRIR_clean_linker_1, # of connection points: 3
#     Edge 9, Type (0, 1), BuildingBlock: KIFKEQ_clean_linker_1, # of connection points: 2
#     Edge 10, Type (0, 1), BuildingBlock: KIFKEQ_clean_linker_1, # of connection points: 2
#     Edge 11, Type (0, 1), BuildingBlock: KIFKEQ_clean_linker_1, # of connection points: 2
#     Edge 12, Type (0, 1), BuildingBlock: KIFKEQ_clean_linker_1, # of connection points: 2
#     Edge 13, Type (0, 1), BuildingBlock: KIFKEQ_clean_linker_1, # of connection points: 2
#     Edge 14, Type (0, 1), BuildingBlock: KIFKEQ_clean_linker_1, # of connection points: 2
#     Edge 15, Type (0, 1), BuildingBlock: KIFKEQ_clean_linker_1, # of connection points: 2
#     Edge 16, Type (0, 1), BuildingBlock: KIFKEQ_clean_linker_1, # of connection points: 2
#     Edge 17, Type (0, 1), BuildingBlock: KIFKEQ_clean_linker_1, # of connection points: 2
#     Edge 18, Type (0, 1), BuildingBlock: KIFKEQ_clean_linker_1, # of connection points: 2
#     Edge 19, Type (0, 1), BuildingBlock: KIFKEQ_clean_linker_1, # of connection points: 2
#     Edge 20, Type (0, 1), BuildingBlock: KIFKEQ_clean_linker_1, # of connection points: 2
#     Edge 21, Type (0, 1), BuildingBlock: KIFKEQ_clean_linker_1, # of connection points: 2
#     Edge 22, Type (0, 1), BuildingBlock: KIFKEQ_clean_linker_1, # of connection points: 2
#     Edge 23, Type (0, 1), BuildingBlock: KIFKEQ_clean_linker_1, # of connection points: 2
#     Edge 24, Type (0, 1), BuildingBlock: KIFKEQ_clean_linker_1, # of connection points: 2
#     Edge 25, Type (0, 1), BuildingBlock: KIFKEQ_clean_linker_1, # of connection points: 2
#     Edge 26, Type (0, 1), BuildingBlock: KIFKEQ_clean_linker_1, # of connection points: 2
# Relax obj value: 0.194
# Max RMSD: 0.213
# Mean RMSD: 0.161
data_MOF--net-anh--node1-BETFEN_clean_sbu_0--node2-CUQRIR_clean_linker_1--edge1-KIFKEQ_clean_linker_1
_symmetry_space_group_name_H-M    P1
_symmetry_Int_Tables_number       1
_symmetry_cell_setting            triclinic
loop_
_symmetry_equiv_pos_as_xyz
'x, y, z'
_cell_length_a     27.91943
_cell_length_b     28.535389
_cell_length_c     47.701311
_cell_angle_alpha  86.088989
_cell_angle_beta   90.115832
_cell_angle_gamma 101.46474
loop_
_atom_site_label
_atom_site_type_symbol
_atom_site_fract_x
_atom_site_fract_y
_atom_site_fract_z
_atom_type_partial_charge
Pr0 Pr 0.08096 0.53451 0.15133 0.0
Pr1 Pr 0.10149 0.64148 0.14237 0.0
C2 C 0.04593 0.44192 0.16789 0.0
C3 C 0.99967 0.41131 0.17839 0.0
C4 C 0.97712 0.37314 0.16287 0.0
C5 C 0.93305 0.34394 0.17214 0.0
C6 C 0.91088 0.3521 0.19728 0.0
C7 C 0.93367 0.39003 0.21301 0.0
C8 C 0.97759 0.41955 0.20359 0.0
C9 C 0.11231 0.56696 0.09684 0.0
C10 C 0.98861 0.59039 0.13708 0.0
C11 C 0.13674 0.73507 0.12821 0.0
C12 C 0.17769 0.77068 0.13771 0.0
C13 C 0.203 0.76037 0.16202 0.0
C14 C 0.24305 0.79356 0.17063 0.0
C15 C 0.25872 0.83752 0.15493 0.0
C16 C 0.23307 0.84763 0.13055 0.0
C17 C 0.19284 0.81439 0.12201 0.0
C18 C 0.07565 0.6075 0.19783 0.0
C19 C 0.19573 0.58578 0.15522 0.0
O20 O 0.06922 0.47302 0.18461 0.0
O21 O 0.04682 0.45862 0.14164 0.0
O22 O 0.08196 0.58419 0.11064 0.0
O23 O 0.12496 0.53043 0.11042 0.0
O24 O 1.02141 0.62674 0.12617 0.0
O25 O 1.00254 0.55434 0.15159 0.0
O26 O 0.14894 0.7005 0.11503 0.0
O27 O 0.10114 0.71995 0.14638 0.0
O28 O 0.10473 0.59194 0.18245 0.0
O29 O 0.06036 0.64325 0.18508 0.0
O30 O 0.164 0.54568 0.16168 0.0
O31 O 0.18111 0.62528 0.14592 0.0
H32 H 0.99359 0.36593 0.14348 0.0
H33 H 0.91658 0.31459 0.15978 0.0
H34 H 0.91714 0.3973 0.23235 0.0
H35 H 0.99403 0.44884 0.216 0.0
H36 H 0.19183 0.72656 0.17429 0.0
H37 H 0.26147 0.78493 0.18973 0.0
H38 H 0.24456 0.88087 0.11781 0.0
H39 H 0.17385 0.82259 0.10302 0.0
Pr40 Pr 0.64126 0.12139 0.53104 0.0
Pr41 Pr 0.53201 0.09329 0.52421 0.0
C42 C 0.73918 0.14479 0.52469 0.0
C43 C 0.77303 0.18685 0.51145 0.0
C44 C 0.82025 0.20073 0.52198 0.0
C45 C 0.85172 0.24196 0.5104 0.0
C46 C 0.83661 0.2702 0.48798 0.0
C47 C 0.78924 0.25576 0.47735 0.0
C48 C 0.75775 0.2147 0.48904 0.0
C49 C 0.58766 0.10819 0.58138 0.0
C50 C 0.58242 0.21011 0.52654 0.0
C51 C 0.43358 1.07074 0.52447 0.0
C52 C 0.39663 1.02746 0.51872 0.0
C53 C 0.37057 1.02637 0.49347 0.0
C54 C 0.33867 0.98458 0.48655 0.0
C55 C 0.33165 0.943 0.50486 0.0
C56 C 0.35623 0.94458 0.53064 0.0
C57 C 0.38851 0.98631 0.53748 0.0
C58 C 0.58611 0.10139 0.47447 0.0
C59 C 0.58997 1.00273 0.53051 0.0
O60 O 0.71078 0.11781 0.50773 0.0
O61 O 0.71647 0.15217 0.54743 0.0
O62 O 0.58062 0.08167 0.56123 0.0
O63 O 0.62515 0.14291 0.5766 0.0
O64 O 0.54312 0.17649 0.53316 0.0
O65 O 0.6238 0.19759 0.51994 0.0
O66 O 0.45951 1.06886 0.54727 0.0
O67 O 0.45945 0.09271 0.50287 0.0
O68 O 0.59306 0.13132 0.49303 0.0
O69 O 0.54957 1.06656 0.48095 0.0
O70 O 0.63087 1.03606 0.52823 0.0
O71 O 0.54696 1.01527 0.53187 0.0
H72 H 0.83256 0.18003 0.53945 0.0
H73 H 0.88751 0.25226 0.5195 0.0
H74 H 0.77643 0.27608 0.4599 0.0
H75 H 0.72128 0.2049 0.48068 0.0
H76 H 0.37565 1.05762 0.47873 0.0
H77 H 0.31969 0.98472 0.46672 0.0
H78 H 0.35177 0.91304 0.54512 0.0
H79 H 0.40783 0.98588 0.55717 0.0
Pr80 Pr 0.62108 0.59105 0.82653 0.0
Pr81 Pr 0.64437 0.69252 0.83799 0.0
C82 C 0.59966 0.50301 0.80767 0.0
C83 C 0.55638 0.46459 0.8112 0.0
C84 C 0.5139 0.47294 0.82404 0.0
C85 C 0.47207 0.4367 0.82675 0.0
C86 C 0.47239 0.39155 0.81684 0.0
C87 C 0.51522 0.38349 0.80405 0.0
C88 C 0.55689 0.41976 0.80128 0.0
C89 C 0.61714 0.60428 0.88401 0.0
C90 C 0.73823 0.63918 0.83095 0.0
C91 C 0.6664 0.78502 0.84869 0.0
C92 C 0.64236 0.82303 0.83644 0.0
C93 C 0.63008 0.82372 0.80781 0.0
C94 C 0.59721 0.8512 0.7973 0.0
C95 C 0.57616 0.87876 0.81513 0.0
C96 C 0.59092 0.88075 0.84331 0.0
C97 C 0.62363 0.8528 0.85394 0.0
C98 C 0.61963 0.67639 0.78191 0.0
C99 C 0.52973 0.64169 0.83984 0.0
O100 O 0.62526 0.51251 0.83033 0.0
O101 O 0.5929 0.54139 0.79282 0.0
O102 O 0.65024 0.62662 0.86737 0.0
O103 O 0.58459 0.57471 0.87111 0.0
O104 O 0.72372 0.67671 0.84023 0.0
O105 O 0.70636 0.60236 0.82254 0.0
O106 O 0.6386 0.75278 0.86557 0.0
O107 O 0.69218 0.76631 0.83121 0.0
O108 O 0.64823 0.65638 0.79649 0.0
O109 O 0.60132 0.7054 0.79636 0.0
O110 O 0.54405 0.61269 0.82269 0.0
O111 O 0.56263 0.67123 0.85337 0.0
H112 H 0.51307 0.50758 0.83182 0.0
H113 H 0.43973 0.44381 0.83678 0.0
H114 H 0.51628 0.3493 0.79576 0.0
H115 H 0.58933 0.41295 0.79119 0.0
H116 H 0.64372 0.80102 0.79376 0.0
H117 H 0.58694 0.84962 0.77542 0.0
H118 H 0.57504 0.9017 0.85749 0.0
H119 H 0.63211 0.85236 0.87612 0.0
C120 C 0.57361 0.09774 0.22606 0.0
N121 N 0.60254 0.11657 0.24699 0.0
N122 N 0.5374 1.06221 0.23659 0.0
C123 C 0.5809 0.11356 0.19537 0.0
C124 C 0.54545 1.05965 0.26456 0.0
N125 N 0.58551 0.09234 0.27088 0.0
C126 C 0.51378 1.0257 0.28571 0.0
H127 H 0.56353 0.14492 0.1907 0.0
H128 H 0.56387 0.08483 0.18188 0.0
H129 H 0.62042 0.12447 0.19008 0.0
H130 H 0.47674 1.01246 0.27755 0.0
H131 H 0.51056 1.04337 0.30544 0.0
H132 H 0.53093 0.99429 0.29071 0.0
C133 C 0.58528 0.60671 0.53517 0.0
N134 N 0.59134 0.643 0.55306 0.0
N135 N 0.58882 0.56398 0.54911 0.0
C136 C 0.5787 0.61329 0.50406 0.0
C137 C 0.59692 0.57569 0.57594 0.0
N138 N 0.5987 0.62298 0.5783 0.0
C139 C 0.60184 0.54037 0.60021 0.0
H140 H 0.53941 0.61194 0.49974 0.0
H141 H 0.59057 0.58436 0.49312 0.0
H142 H 0.59955 0.64873 0.49573 0.0
H143 H 0.64115 0.53986 0.60327 0.0
H144 H 0.58245 0.50367 0.59607 0.0
H145 H 0.58715 0.55087 0.61992 0.0
C146 C 0.13484 0.62915 0.84814 0.0
N147 N 0.16824 0.63251 0.86911 0.0
N148 N 0.09009 0.63131 0.85833 0.0
C149 C 0.14597 0.62498 0.81775 0.0
C150 C 0.09727 0.63635 0.88603 0.0
N151 N 0.14477 0.63785 0.8926 0.0
C152 C 0.05704 0.63747 0.90691 0.0
H153 H 0.18284 0.64612 0.81195 0.0
H154 H 0.11819 0.6373 0.80399 0.0
H155 H 0.14559 0.58684 0.81432 0.0
H156 H 1.02047 0.62226 0.89875 0.0
H157 H 0.05753 0.67519 0.9114 0.0
H158 H 0.06261 0.61712 0.92691 0.0
C159 C 0.0898 0.60747 0.44823 0.0
N160 N 0.06917 0.57831 0.42826 0.0
N161 N 0.12376 0.64434 0.43661 0.0
C162 C 0.07983 0.59803 0.47929 0.0
C163 C 0.12311 0.6366 0.40893 0.0
N164 N 0.09054 0.59623 0.40389 0.0
C165 C 0.15129 0.67068 0.38646 0.0
H166 H 0.04861 0.61438 0.48497 0.0
H167 H 0.11204 0.61415 0.49152 0.0
H168 H 0.0702 0.55897 0.48512 0.0
H169 H 0.18628 0.65942 0.38229 0.0
H170 H 0.15956 0.70787 0.39316 0.0
H171 H 0.13053 0.67021 0.36659 0.0
C172 C 0.28204 1.06968 0.7659 0.0
N173 N 0.3139 1.05235 0.75008 0.0
N174 N 0.28184 0.11645 0.7583 0.0
C175 C 0.25016 1.04017 0.78872 0.0
C176 C 0.31216 0.12546 0.73538 0.0
N177 N 0.33096 0.0867 0.73042 0.0
C178 C 0.32985 0.17423 0.72049 0.0
H179 H 0.23462 1.00432 0.78131 0.0
H180 H 0.22011 1.05805 0.79456 0.0
H181 H 0.27184 1.03431 0.80765 0.0
H182 H 0.34895 0.1994 0.73552 0.0
H183 H 0.29825 0.18834 0.71183 0.0
H184 H 0.35526 0.17319 0.70282 0.0
C185 C 0.59383 0.58955 0.13554 0.0
N186 N 0.6276 0.58831 0.11519 0.0
N187 N 0.54815 0.58324 0.12463 0.0
C188 C 0.60494 0.59427 0.16613 0.0
C189 C 0.5554 0.57852 0.09705 0.0
N190 N 0.60326 0.58106 0.0914 0.0
C191 C 0.51585 0.57379 0.07527 0.0
H192 H 0.63495 0.57557 0.17241 0.0
H193 H 0.57207 0.57957 0.17938 0.0
H194 H 0.61706 0.6328 0.16975 0.0
H195 H 0.53029 0.59104 0.05463 0.0
H196 H 0.48509 0.5901 0.08178 0.0
H197 H 0.5017 0.53517 0.07266 0.0
H198 H 0.272 0.65965 0.13993 0.0
H199 H 0.24078 0.51292 0.17479 0.0
H200 H 0.35879 0.65811 0.13877 0.0
H201 H 0.32787 0.51181 0.1744 0.0
H202 H 0.47302 0.50825 0.12768 0.0
H203 H 0.3885 0.50911 0.14005 0.0
H204 H 0.43285 0.65488 0.16371 0.0
H205 H 0.51757 0.65368 0.15038 0.0
C206 C 0.28364 0.62722 0.14776 0.0
C207 C 0.24911 0.58621 0.15717 0.0
C208 C 0.33368 0.62647 0.14731 0.0
C209 C 0.35069 0.58474 0.15635 0.0
C210 C 0.31624 0.54436 0.16681 0.0
C211 C 0.26616 0.54505 0.16716 0.0
C212 C 0.46464 0.5399 0.13626 0.0
C213 C 0.50152 0.58081 0.13819 0.0
C214 C 0.41623 0.54053 0.14341 0.0
C215 C 0.40341 0.58224 0.1527 0.0
C216 C 0.44109 0.62236 0.15621 0.0
C217 C 0.48969 0.62161 0.14902 0.0
H218 H 0.81212 0.35572 0.46968 0.0
H219 H 0.93616 0.28671 0.47953 0.0
H220 H 0.8659 0.42916 0.45137 0.0
H221 H 0.99031 0.36105 0.46273 0.0
H222 H 0.0744 0.49083 0.41164 0.0
H223 H 1.01624 0.4155 0.42289 0.0
H224 H 0.92535 0.49242 0.46767 0.0
H225 H 0.98248 0.56744 0.45511 0.0
C226 C 0.85082 0.35601 0.46782 0.0
C227 C 0.86962 0.31503 0.47619 0.0
C228 C 0.88185 0.39849 0.45762 0.0
C229 C 0.93266 0.40138 0.45564 0.0
C230 C 0.95139 0.36019 0.46361 0.0
C231 C 0.92032 0.31763 0.47369 0.0
C232 C 1.0414 0.49144 0.42337 0.0
C233 C 1.0329 0.53469 0.43267 0.0
C234 C 1.00838 0.44832 0.43017 0.0
C235 C 0.96614 0.44758 0.44647 0.0
C236 C 0.95708 0.49139 0.4549 0.0
C237 C 0.98998 0.53438 0.44798 0.0
H238 H 0.49578 0.83953 0.78608 0.0
H239 H 0.56662 0.97082 0.82108 0.0
H240 H 0.42782 0.87686 0.77081 0.0
H241 H 0.4997 1.00886 0.80506 0.0
H242 H 0.35711 1.05261 0.8003 0.0
H243 H 0.41727 1.00672 0.81631 0.0
H244 H 0.40385 0.93623 0.73843 0.0
H245 H 0.33994 0.98016 0.72346 0.0
C246 C 0.49703 0.87665 0.79014 0.0
C247 C 0.5363 0.90239 0.8048 0.0
C248 C 0.45817 0.89803 0.78136 0.0
C249 C 0.45798 0.9457 0.78692 0.0
C250 C 0.49798 0.97167 0.80105 0.0
C251 C 0.5365 0.9501 0.81011 0.0
C252 C 0.36515 1.02557 0.78721 0.0
C253 C 0.34276 1.01878 0.76101 0.0
C254 C 0.40075 1.00021 0.79602 0.0
C255 C 0.41615 0.96839 0.77847 0.0
C256 C 0.39262 0.96024 0.75258 0.0
C257 C 0.3561 0.98522 0.74396 0.0
H258 H 0.94548 0.66456 0.11742 0.0
H259 H 0.91101 0.51621 0.1492 0.0
H260 H 0.85829 0.66456 0.11241 0.0
H261 H 0.82396 0.51629 0.14411 0.0
H262 H 0.67638 0.521 0.10082 0.0
H263 H 0.76389 0.52174 0.10592 0.0
H264 H 0.78307 0.65868 0.14228 0.0
H265 H 0.69526 0.65759 0.13689 0.0
C266 C 0.91939 0.6319 0.12329 0.0
C267 C 0.93546 0.59035 0.13367 0.0
C268 C 0.86933 0.63202 0.12059 0.0
C269 C 0.834 0.59043 0.12784 0.0
C270 C 0.85011 0.54883 0.13807 0.0
C271 C 0.90011 0.54886 0.1411 0.0
C272 C 0.6995 0.55123 0.1098 0.0
C273 C 0.67927 0.58919 0.11849 0.0
C274 C 0.74949 0.55156 0.11294 0.0
C275 C 0.78063 0.59023 0.12457 0.0
C276 C 0.76027 0.62849 0.13307 0.0
C277 C 0.71005 0.6278 0.13021 0.0
H278 H 0.26278 0.87928 0.53661 0.0
H279 H 0.33037 0.9041 0.45417 0.0
H280 H 0.21254 0.80418 0.52251 0.0
H281 H 0.27998 0.82976 0.44004 0.0
H282 H 0.2216 0.67105 0.43305 0.0
H283 H 0.27231 0.7423 0.4513 0.0
H284 H 0.14419 0.77688 0.48893 0.0
H285 H 0.0936 0.70552 0.47024 0.0
C286 C 0.26693 0.86866 0.51553 0.0
C287 C 0.30043 0.89767 0.49648 0.0
C288 C 0.23797 0.82587 0.50741 0.0
C289 C 0.24245 0.81093 0.48021 0.0
C290 C 0.27605 0.83996 0.46125 0.0
C291 C 0.30455 0.88283 0.46925 0.0
C292 C 0.20454 0.69388 0.44535 0.0
C293 C 0.15385 0.68325 0.45011 0.0
C294 C 0.23339 0.73464 0.45573 0.0
C295 C 0.21217 0.7655 0.47131 0.0
C296 C 0.16164 0.75366 0.47713 0.0
C297 C 0.13271 0.71293 0.46653 0.0
H298 H 0.46847 0.29802 0.83315 0.0
H299 H 0.37691 0.39752 0.80613 0.0
H300 H 0.40113 0.23195 0.82881 0.0
H301 H 0.30729 0.33081 0.80327 0.0
H302 H 0.24912 0.20006 0.74785 0.0
H303 H 0.28215 0.27187 0.77183 0.0
H304 H 0.3275 0.18397 0.84024 0.0
H305 H 0.30355 0.11458 0.814 0.0
C306 C 0.43337 0.30573 0.82685 0.0
C307 C 0.42833 0.35275 0.81926 0.0
C308 C 0.39406 0.26772 0.82485 0.0
C309 C 0.34816 0.2756 0.81552 0.0
C310 C 0.3421 0.32319 0.81011 0.0
C311 C 0.38189 0.36146 0.81194 0.0
C312 C 0.26603 0.19624 0.76807 0.0
C313 C 0.27691 0.152 0.7778 0.0
C314 C 0.28424 0.23742 0.78219 0.0
C315 C 0.31078 0.23404 0.80716 0.0
C316 C 0.31027 0.18826 0.82012 0.0
C317 C 0.29513 0.14781 0.80521 0.0
H318 H 0.5131 0.92546 0.53653 0.0
H319 H 0.67025 0.95896 0.52843 0.0
H320 H 0.51444 0.8403 0.54029 0.0
H321 H 0.67165 0.87329 0.53151 0.0
H322 H 0.66231 0.71702 0.56715 0.0
H323 H 0.66253 0.80271 0.56119 0.0
H324 H 0.52501 0.77203 0.51788 0.0
H325 H 0.52428 0.68594 0.52514 0.0
C326 C 0.54814 0.91482 0.53536 0.0
C327 C 0.59161 0.94988 0.53222 0.0
C328 C 0.54887 0.86544 0.53731 0.0
C329 C 0.59312 0.84879 0.53619 0.0
C330 C 0.63667 0.88394 0.53289 0.0
C331 C 0.63593 0.93349 0.53094 0.0
C332 C 0.63203 0.72858 0.55643 0.0
C333 C 0.59314 0.69427 0.5468 0.0
C334 C 0.63235 0.77808 0.55268 0.0
C335 C 0.59372 0.79539 0.53907 0.0
C336 C 0.55523 0.76083 0.52887 0.0
C337 C 0.55498 0.71119 0.53266 0.0
H338 H 0.78316 0.57115 0.8102 0.0
H339 H 0.81403 0.70501 0.85024 0.0
H340 H 0.87016 0.56921 0.80995 0.0
H341 H 0.9005 0.70242 0.85071 0.0
H342 H 0.05779 0.70712 0.83497 0.0
H343 H 0.9728 0.7096 0.82328 0.0
H344 H 0.93335 0.55625 0.84166 0.0
H345 H 1.01881 0.55448 0.85231 0.0
C346 C 0.80843 0.60018 0.81898 0.0
C347 C 0.79137 0.63819 0.83032 0.0
C348 C 0.85842 0.59898 0.8189 0.0
C349 C 0.89272 0.63571 0.83021 0.0
C350 C 0.87555 0.67393 0.84127 0.0
C351 C 0.82568 0.67521 0.84125 0.0
C352 C 1.03103 0.67391 0.83528 0.0
C353 C 0.04457 0.63055 0.84401 0.0
C354 C 0.98222 0.67526 0.82914 0.0
C355 C 0.94574 0.63323 0.832 0.0
C356 C 0.96021 0.58932 0.83895 0.0
C357 C 1.00915 0.58807 0.8449 0.0
H358 H 0.34453 0.81912 0.17637 0.0
H359 H 0.26997 0.9352 0.15422 0.0
H360 H 0.41273 0.87576 0.19412 0.0
H361 H 0.33945 0.99228 0.17063 0.0
H362 H 0.44283 1.06794 0.23678 0.0
H363 H 0.37578 1.01476 0.21468 0.0
H364 H 0.47987 0.93957 0.18027 0.0
H365 H 0.5462 0.99216 0.20345 0.0
C366 C 0.34278 0.85678 0.17518 0.0
C367 C 0.30158 0.87256 0.1641 0.0
C368 C 0.38223 0.88937 0.18498 0.0
C369 C 0.3816 0.9386 0.18381 0.0
C370 C 0.34087 0.95453 0.17215 0.0
C371 C 0.30127 0.92188 0.16244 0.0
C372 C 0.45089 1.04014 0.22426 0.0
C373 C 0.499 1.03358 0.22167 0.0
C374 C 0.41283 1.00993 0.21147 0.0
C375 C 0.42243 0.97278 0.19574 0.0
C376 C 0.47112 0.96733 0.19258 0.0
C377 C 0.50906 0.99744 0.20554 0.0
H378 H 0.6549 0.28718 0.51013 0.0
H379 H 0.50746 0.25378 0.54321 0.0
H380 H 0.65547 0.37226 0.51132 0.0
H381 H 0.50837 0.3396 0.54512 0.0
H382 H 0.51169 0.50155 0.52909 0.0
H383 H 0.5081 0.41645 0.52138 0.0
H384 H 0.6611 0.43356 0.54188 0.0
H385 H 0.6641 0.51802 0.54881 0.0
C386 C 0.62242 0.29783 0.51777 0.0
C387 C 0.58117 0.26286 0.52669 0.0
C388 C 0.62287 0.34714 0.51862 0.0
C389 C 0.58215 0.36384 0.52856 0.0
C390 C 0.54043 0.32884 0.53703 0.0
C391 C 0.53996 0.27926 0.5361 0.0
C392 C 0.54473 0.4872 0.53105 0.0
C393 C 0.58845 0.51685 0.53897 0.0
C394 C 0.54263 0.43809 0.52713 0.0
C395 C 0.58427 0.41712 0.53102 0.0
C396 C 0.62826 0.44766 0.53812 0.0
C397 C 0.6302 0.49643 0.54207 0.0
H398 H 0.48656 0.6812 0.8814 0.0
H399 H 0.45236 0.5986 0.80894 0.0
H400 H 0.39986 0.67733 0.88981 0.0
H401 H 0.36571 0.59665 0.81636 0.0
H402 H 0.20951 0.56327 0.8494 0.0
H403 H 0.29662 0.56435 0.84324 0.0
H404 H 0.33051 0.70498 0.87567 0.0
H405 H 0.24319 0.70207 0.88285 0.0
C406 C 0.46052 0.66262 0.86705 0.0
C407 C 0.47661 0.64024 0.84447 0.0
C408 C 0.41053 0.66062 0.87176 0.0
C409 C 0.37501 0.63671 0.85382 0.0
C410 C 0.39139 0.61463 0.83108 0.0
C411 C 0.44136 0.61607 0.82662 0.0
C412 C 0.23587 0.5942 0.85523 0.0
C413 C 0.21987 0.63263 0.8665 0.0
C414 C 0.2859 0.59515 0.85154 0.0
C415 C 0.32137 0.63497 0.85867 0.0
C416 C 0.30488 0.67326 0.87027 0.0
C417 C 0.25481 0.67188 0.87431 0.0
H418 H 0.82972 0.32354 0.1662 0.0
H419 H 0.88652 0.31053 0.25004 0.0
H420 H 0.75388 0.26927 0.18122 0.0
H421 H 0.81009 0.25655 0.26524 0.0
H422 H 0.69324 0.11209 0.26464 0.0
H423 H 0.76778 0.17305 0.25518 0.0
H424 H 0.68203 0.26617 0.2127 0.0
H425 H 0.60784 0.20523 0.22256 0.0
C426 C 0.82586 0.30914 0.18787 0.0
C427 C 0.86404 0.32102 0.20692 0.0
C428 C 0.78229 0.27849 0.19655 0.0
C429 C 0.77607 0.25878 0.22442 0.0
C430 C 0.81404 0.27105 0.2436 0.0
C431 C 0.85754 0.30214 0.23496 0.0
C432 C 0.69058 0.14602 0.25376 0.0
C433 C 0.64535 0.15408 0.24395 0.0
C434 C 0.73299 0.18084 0.24836 0.0
C435 C 0.73071 0.22414 0.23294 0.0
C436 C 0.68498 0.23281 0.2242 0.0
C437 C 0.64266 0.19813 0.22977 0.0
H438 H 0.1316 0.5106 0.05655 0.0
H439 H 0.12647 0.65681 0.07087 0.0
H440 H 0.15333 0.53344 0.00786 0.0
H441 H 0.15511 0.68193 0.02337 0.0
H442 H 0.14041 0.70452 0.9289 0.0
H443 H 0.14009 0.69108 0.97922 0.0
H444 H 0.19751 0.5621 0.97058 0.0
H445 H 0.19065 0.57339 0.91981 0.0
C446 C 0.1363 0.54806 0.04927 0.0
C447 C 0.12698 0.58192 0.06738 0.0
C448 C 0.14978 0.56165 0.02123 0.0
C449 C 0.15649 0.61006 0.01071 0.0
C450 C 0.14909 0.64411 0.02963 0.0
C451 C 0.13319 0.62997 0.05728 0.0
C452 C 0.15358 0.6737 0.938 0.0
C453 C 0.1638 0.63914 0.92068 0.0
C454 C 0.15376 0.66577 0.96717 0.0
C455 C 0.16656 0.6239 0.97989 0.0
C456 C 0.18431 0.59322 0.96213 0.0
C457 C 0.18197 0.60027 0.93283 0.0
H458 H 0.65233 1.06256 0.44751 0.0
H459 H 0.55674 0.16352 0.43628 0.0
H460 H 0.66944 1.06986 0.39696 0.0
H461 H 0.57078 0.16893 0.3857 0.0
H462 H 0.59972 0.17675 0.29493 0.0
H463 H 0.61695 0.18929 0.34449 0.0
H464 H 0.62553 1.03973 0.35879 0.0
H465 H 0.61204 1.02906 0.30909 0.0
C466 C 0.63573 0.08694 0.4341 0.0
C467 C 0.60343 0.11257 0.44541 0.0
C468 C 0.64501 0.09084 0.40516 0.0
C469 C 0.62087 0.11936 0.38698 0.0
C470 C 0.59066 0.14711 0.39883 0.0
C471 C 0.58227 0.1439 0.42782 0.0
C472 C 0.60695 0.14724 0.30869 0.0
C473 C 0.60374 0.10177 0.29858 0.0
C474 C 0.61619 0.1541 0.33712 0.0
C475 C 0.62167 0.11533 0.35597 0.0
C476 C 0.62192 1.07068 0.34514 0.0
C477 C 0.61349 1.06418 0.31671 0.0
H478 H 0.65762 0.61779 0.7498 0.0
H479 H 0.57225 0.72867 0.74478 0.0
H480 H 0.65415 0.61418 0.69909 0.0
H481 H 0.56945 0.72578 0.69348 0.0
H482 H 0.5297 0.65367 0.60723 0.0
H483 H 0.53466 0.67266 0.65676 0.0
H484 H 0.68682 0.66139 0.65713 0.0
H485 H 0.68064 0.64105 0.6081 0.0
C486 C 0.63823 0.64157 0.73778 0.0
C487 C 0.61536 0.67361 0.75119 0.0
C488 C 0.63662 0.63986 0.70865 0.0
C489 C 0.61224 0.6703 0.69212 0.0
C490 C 0.58854 0.70188 0.7056 0.0
C491 C 0.59014 0.70356 0.73491 0.0
C492 C 0.56436 0.65687 0.61789 0.0
C493 C 0.60485 0.64614 0.60423 0.0
C494 C 0.5673 0.66754 0.64616 0.0
C495 C 0.6109 0.66757 0.66107 0.0
C496 C 0.65238 0.66052 0.64649 0.0
C497 C 0.64922 0.64954 0.61841 0.0
H498 H 0.51304 1.03343 0.59456 0.0
H499 H 0.58668 0.16913 0.62326 0.0
H500 H 0.45321 1.02511 0.63252 0.0
H501 H 0.52602 0.16125 0.66123 0.0
H502 H 0.42761 0.11213 0.73942 0.0
H503 H 0.49377 0.1149 0.70496 0.0
H504 H 0.38616 1.0636 0.64302 0.0
H505 H 0.32098 1.06034 0.67781 0.0
C506 C 0.51651 1.06144 0.6091 0.0
C507 C 0.55427 0.10211 0.60588 0.0
C508 C 0.48208 1.05677 0.63078 0.0
C509 C 0.48451 0.09273 0.64974 0.0
C510 C 0.52334 0.13274 0.64709 0.0
C511 C 0.55794 0.13738 0.62532 0.0
C512 C 0.41875 0.10113 0.71843 0.0
C513 C 0.36986 0.08578 0.71094 0.0
C514 C 0.45625 0.10296 0.69871 0.0
C515 C 0.44525 0.08942 0.67124 0.0
C516 C 0.39601 1.07356 0.66408 0.0
C517 C 0.3587 1.07182 0.68379 0.0
H518 H 0.69178 0.65068 0.91546 0.0
H519 H 0.5525 0.55232 0.92217 0.0
H520 H 0.70025 0.64261 0.96663 0.0
H521 H 0.56036 0.54491 0.97295 0.0
H522 H 0.65273 0.65765 0.0608 0.0
H523 H 0.6632 0.66349 0.00956 0.0
H524 H 0.60745 0.511 0.00871 0.0
H525 H 0.59589 0.50627 0.05973 0.0
C526 C 0.66293 0.62755 0.92789 0.0
C527 C 0.62156 0.60195 0.91488 0.0
C528 C 0.66778 0.62292 0.95714 0.0
C529 C 0.63139 0.59251 0.97385 0.0
C530 C 0.58974 0.56761 0.9607 0.0
C531 C 0.58493 0.57225 0.93159 0.0
C532 C 0.64471 0.62535 0.04956 0.0
C533 C 0.62377 0.58154 0.06382 0.0
C534 C 0.65037 0.62857 0.02029 0.0
C535 C 0.63512 0.58786 0.00498 0.0
C536 C 0.61845 0.54322 0.01979 0.0
C537 C 0.61253 0.54021 0.04894 0.0
H538 H 1.02593 0.64781 0.23556 0.0
H539 H 0.10888 0.53651 0.22867 0.0
H540 H 1.02141 0.6317 0.28637 0.0
H541 H 0.10311 0.51912 0.27956 0.0
H542 H 0.15181 0.56743 0.36883 0.0
H543 H 0.14055 0.5595 0.31856 0.0
H544 H 0.99175 0.57928 0.32683 0.0
H545 H 1.00437 0.58856 0.37728 0.0
C546 C 0.04247 0.61929 0.24491 0.0
C547 C 0.06839 0.59392 0.22822 0.0
C548 C 1.03947 0.60966 0.27406 0.0
C549 C 0.06211 0.5742 0.2872 0.0
C550 C 0.0859 0.54717 0.27023 0.0
C551 C 0.08911 0.557 0.24106 0.0
C552 C 0.11635 0.56854 0.35988 0.0
C553 C 0.07901 0.57875 0.37661 0.0
C554 C 0.1097 0.56393 0.33112 0.0
C555 C 0.06538 0.56941 0.31846 0.0
C556 C 1.02663 0.57574 0.33578 0.0
C557 C 1.03345 0.58039 0.36466 0.0
loop_
_geom_bond_atom_site_label_1
_geom_bond_atom_site_label_2
_geom_bond_distance
_geom_bond_site_symmetry_2
_ccdc_geom_bond_type
Pr0 C2 2.880 . S
Pr0 O20 2.562 . S
Pr0 O21 2.490 . S
Pr0 O22 2.695 1_655 S
Pr0 O23 2.512 . S
Pr0 O25 2.437 . S
Pr0 O28 2.436 . S
Pr0 O30 2.438 1_655 S
Pr1 C11 2.880 . S
Pr1 O22 2.436 . S
Pr1 O24 2.438 1_455 S
Pr1 O26 2.562 . S
Pr1 O27 2.490 . S
Pr1 O28 2.695 1_455 S
Pr1 O29 2.512 . S
Pr1 O31 2.437 . S
C2 Pr0 2.880 . S
C2 C3 1.491 . S
C2 O20 1.254 . S
C2 O21 1.225 . S
C3 C2 1.491 . S
C3 C4 1.392 . S
C3 C8 1.356 . S
C4 C3 1.392 . S
C4 C5 1.368 . S
C4 H32 0.929 . S
C5 C4 1.368 . S
C5 C6 1.386 . S
C5 H33 0.929 . S
C6 C5 1.386 . S
C6 C7 1.373 . S
C7 C6 1.373 . S
C7 C8 1.409 . S
C7 H34 0.931 . S
C8 C3 1.356 . S
C8 C7 1.409 . S
C8 H35 0.930 . S
C9 O22 1.270 . S
C9 O23 1.248 1_455 S
C10 O24 1.267 . S
C10 O25 1.278 . S
C11 Pr1 2.880 . S
C11 C12 1.491 . S
C11 O26 1.254 . S
C11 O27 1.225 . S
C12 C11 1.491 . S
C12 C13 1.392 . S
C12 C17 1.356 . S
C13 C12 1.392 . S
C13 C14 1.368 . S
C13 H36 0.929 . S
C14 C13 1.368 . S
C14 C15 1.386 . S
C14 H37 0.929 . S
C15 C14 1.386 . S
C15 C16 1.373 . S
C16 C15 1.373 . S
C16 C17 1.409 . S
C16 H38 0.931 . S
C17 C12 1.356 . S
C17 C16 1.409 . S
C17 H39 0.930 . S
C18 O28 1.270 1_455 S
C18 O29 1.248 . S
C19 O30 1.267 . S
C19 O31 1.278 . S
O20 Pr0 2.562 . S
O20 C2 1.254 . S
O21 Pr0 2.490 . S
O21 C2 1.225 . S
O22 Pr0 2.695 1_455 S
O22 Pr1 2.436 . S
O22 C9 1.270 . S
O23 Pr0 2.512 . S
O23 C9 1.248 1_655 S
O24 Pr1 2.438 1_655 S
O24 C10 1.267 . S
O25 Pr0 2.437 . S
O25 C10 1.278 . S
O26 Pr1 2.562 . S
O26 C11 1.254 . S
O27 Pr1 2.490 . S
O27 C11 1.225 . S
O28 Pr0 2.436 . S
O28 Pr1 2.695 1_655 S
O28 C18 1.270 1_655 S
O29 Pr1 2.512 . S
O29 C18 1.248 . S
O30 Pr0 2.438 1_455 S
O30 C19 1.267 . S
O31 Pr1 2.437 . S
O31 C19 1.278 . S
H32 C4 0.929 . S
H33 C5 0.929 . S
H34 C7 0.931 . S
H35 C8 0.930 . S
H36 C13 0.929 . S
H37 C14 0.929 . S
H38 C16 0.931 . S
H39 C17 0.930 . S
Pr40 C42 2.880 . S
Pr40 O60 2.562 . S
Pr40 O61 2.490 . S
Pr40 O62 2.695 . S
Pr40 O63 2.512 . S
Pr40 O65 2.437 . S
Pr40 O68 2.436 . S
Pr40 O70 2.438 1_545 S
Pr41 C51 2.880 . S
Pr41 O62 2.436 1_565 S
Pr41 O64 2.438 1_565 S
Pr41 O66 2.562 . S
Pr41 O67 2.490 . S
Pr41 O68 2.695 1_565 S
Pr41 O69 2.512 1_565 S
Pr41 O71 2.437 . S
C42 Pr40 2.880 . S
C42 C43 1.491 . S
C42 O60 1.254 . S
C42 O61 1.225 . S
C43 C42 1.491 . S
C43 C44 1.392 . S
C43 C48 1.356 . S
C44 C43 1.392 . S
C44 C45 1.368 . S
C44 H72 0.929 . S
C45 C44 1.368 . S
C45 C46 1.386 . S
C45 H73 0.929 . S
C46 C45 1.386 . S
C46 C47 1.373 . S
C47 C46 1.373 . S
C47 C48 1.409 . S
C47 H74 0.931 . S
C48 C43 1.356 . S
C48 C47 1.409 . S
C48 H75 0.930 . S
C49 O62 1.270 . S
C49 O63 1.248 . S
C50 O64 1.267 . S
C50 O65 1.278 . S
C51 Pr41 2.880 . S
C51 C52 1.491 . S
C51 O66 1.254 . S
C51 O67 1.225 . S
C52 C51 1.491 . S
C52 C53 1.392 . S
C52 C57 1.356 . S
C53 C52 1.392 . S
C53 C54 1.368 . S
C53 H76 0.929 . S
C54 C53 1.368 . S
C54 C55 1.386 . S
C54 H77 0.929 . S
C55 C54 1.386 . S
C55 C56 1.373 . S
C56 C55 1.373 . S
C56 C57 1.409 . S
C56 H78 0.931 . S
C57 C52 1.356 . S
C57 C56 1.409 . S
C57 H79 0.930 . S
C58 O68 1.270 . S
C58 O69 1.249 . S
C59 O70 1.267 . S
C59 O71 1.278 . S
O60 Pr40 2.562 . S
O60 C42 1.254 . S
O61 Pr40 2.490 . S
O61 C42 1.225 . S
O62 Pr40 2.695 . S
O62 Pr41 2.436 1_545 S
O62 C49 1.270 . S
O63 Pr40 2.512 . S
O63 C49 1.248 . S
O64 Pr41 2.438 1_545 S
O64 C50 1.267 . S
O65 Pr40 2.437 . S
O65 C50 1.278 . S
O66 Pr41 2.562 . S
O66 C51 1.254 . S
O67 Pr41 2.490 . S
O67 C51 1.225 . S
O68 Pr40 2.436 . S
O68 Pr41 2.695 1_545 S
O68 C58 1.270 . S
O69 Pr41 2.512 1_545 S
O69 C58 1.249 . S
O70 Pr40 2.438 1_565 S
O70 C59 1.267 . S
O71 Pr41 2.437 . S
O71 C59 1.278 . S
H72 C44 0.929 . S
H73 C45 0.929 . S
H74 C47 0.931 . S
H75 C48 0.930 . S
H76 C53 0.929 . S
H77 C54 0.929 . S
H78 C56 0.931 . S
H79 C57 0.930 . S
Pr80 C82 2.880 . S
Pr80 O100 2.562 . S
Pr80 O101 2.490 . S
Pr80 O102 2.695 . S
Pr80 O103 2.512 . S
Pr80 O105 2.437 . S
Pr80 O108 2.436 . S
Pr80 O110 2.438 . S
Pr81 C91 2.880 . S
Pr81 O102 2.436 . S
Pr81 O104 2.438 . S
Pr81 O106 2.562 . S
Pr81 O107 2.490 . S
Pr81 O108 2.695 . S
Pr81 O109 2.512 . S
Pr81 O111 2.437 . S
C82 Pr80 2.880 . S
C82 C83 1.491 . S
C82 O100 1.254 . S
C82 O101 1.225 . S
C83 C82 1.491 . S
C83 C84 1.392 . S
C83 C88 1.356 . S
C84 C83 1.392 . S
C84 C85 1.368 . S
C84 H112 0.929 . S
C85 C84 1.368 . S
C85 C86 1.386 . S
C85 H113 0.929 . S
C86 C85 1.386 . S
C86 C87 1.373 . S
C87 C86 1.373 . S
C87 C88 1.409 . S
C87 H114 0.931 . S
C88 C83 1.356 . S
C88 C87 1.409 . S
C88 H115 0.930 . S
C89 O102 1.270 . S
C89 O103 1.248 . S
C90 O104 1.267 . S
C90 O105 1.278 . S
C91 Pr81 2.880 . S
C91 C92 1.491 . S
C91 O106 1.254 . S
C91 O107 1.225 . S
C92 C91 1.491 . S
C92 C93 1.392 . S
C92 C97 1.356 . S
C93 C92 1.392 . S
C93 C94 1.368 . S
C93 H116 0.929 . S
C94 C93 1.368 . S
C94 C95 1.386 . S
C94 H117 0.929 . S
C95 C94 1.386 . S
C95 C96 1.373 . S
C96 C95 1.373 . S
C96 C97 1.409 . S
C96 H118 0.931 . S
C97 C92 1.356 . S
C97 C96 1.409 . S
C97 H119 0.930 . S
C98 O108 1.270 . S
C98 O109 1.248 . S
C99 O110 1.267 . S
C99 O111 1.278 . S
O100 Pr80 2.562 . S
O100 C82 1.254 . S
O101 Pr80 2.490 . S
O101 C82 1.225 . S
O102 Pr80 2.695 . S
O102 Pr81 2.436 . S
O102 C89 1.270 . S
O103 Pr80 2.512 . S
O103 C89 1.248 . S
O104 Pr81 2.438 . S
O104 C90 1.267 . S
O105 Pr80 2.437 . S
O105 C90 1.278 . S
O106 Pr81 2.562 . S
O106 C91 1.254 . S
O107 Pr81 2.490 . S
O107 C91 1.225 . S
O108 Pr80 2.436 . S
O108 Pr81 2.695 . S
O108 C98 1.270 . S
O109 Pr81 2.512 . S
O109 C98 1.248 . S
O110 Pr80 2.438 . S
O110 C99 1.267 . S
O111 Pr81 2.437 . S
O111 C99 1.278 . S
H112 C84 0.929 . S
H113 C85 0.929 . S
H114 C87 0.931 . S
H115 C88 0.930 . S
H116 C93 0.929 . S
H117 C94 0.929 . S
H118 C96 0.931 . S
H119 C97 0.930 . S
C120 N121 1.317 . S
C120 N122 1.348 1_545 S
C120 C123 1.485 . S
N121 C120 1.317 . S
N121 N125 1.370 . S
N122 C120 1.348 1_565 S
N122 C124 1.346 . S
C123 C120 1.485 . S
C123 H127 0.960 . S
C123 H128 0.961 1_545 S
C123 H129 0.960 . S
C124 N122 1.346 . S
C124 N125 1.307 1_565 S
C124 C126 1.486 . S
N125 N121 1.370 . S
N125 C124 1.307 1_545 S
C126 C124 1.486 . S
C126 H130 0.960 . S
C126 H131 0.960 . S
C126 H132 0.959 . S
H127 C123 0.960 . S
H128 C123 0.961 1_565 S
H129 C123 0.960 . S
H130 C126 0.960 . S
H131 C126 0.960 . S
H132 C126 0.959 . S
C133 N134 1.317 . S
C133 N135 1.348 . S
C133 C136 1.485 . S
N134 C133 1.317 . S
N134 N138 1.370 . S
N135 C133 1.348 . S
N135 C137 1.346 . S
C136 C133 1.485 . S
C136 H140 0.960 . S
C136 H141 0.961 . S
C136 H142 0.960 . S
C137 N135 1.346 . S
C137 N138 1.307 . S
C137 C139 1.486 . S
N138 N134 1.370 . S
N138 C137 1.307 . S
C139 C137 1.486 . S
C139 H143 0.960 . S
C139 H144 0.960 . S
C139 H145 0.959 . S
H140 C136 0.960 . S
H141 C136 0.961 . S
H142 C136 0.960 . S
H143 C139 0.960 . S
H144 C139 0.960 . S
H145 C139 0.959 . S
C146 N147 1.317 . S
C146 N148 1.348 1_455 S
C146 C149 1.485 . S
N147 C146 1.317 . S
N147 N151 1.370 . S
N148 C146 1.348 1_655 S
N148 C150 1.346 . S
C149 C146 1.485 . S
C149 H153 0.960 . S
C149 H154 0.961 . S
C149 H155 0.960 . S
C150 N148 1.346 . S
C150 N151 1.307 1_655 S
C150 C152 1.486 . S
N151 N147 1.370 . S
N151 C150 1.307 1_455 S
C152 C150 1.486 . S
C152 H156 0.960 . S
C152 H157 0.960 . S
C152 H158 0.959 . S
H153 C149 0.960 . S
H154 C149 0.961 . S
H155 C149 0.960 . S
H156 C152 0.960 . S
H157 C152 0.960 . S
H158 C152 0.959 . S
C159 N160 1.317 . S
C159 N161 1.348 . S
C159 C162 1.485 . S
N160 C159 1.317 . S
N160 N164 1.370 . S
N161 C159 1.348 . S
N161 C163 1.346 . S
C162 C159 1.485 . S
C162 H166 0.960 . S
C162 H167 0.961 . S
C162 H168 0.960 . S
C163 N161 1.346 . S
C163 N164 1.307 . S
C163 C165 1.486 . S
N164 N160 1.370 . S
N164 C163 1.307 . S
C165 C163 1.486 . S
C165 H169 0.960 . S
C165 H170 0.960 . S
C165 H171 0.959 . S
H166 C162 0.960 . S
H167 C162 0.961 . S
H168 C162 0.960 . S
H169 C165 0.960 . S
H170 C165 0.960 . S
H171 C165 0.959 . S
C172 N173 1.317 . S
C172 N174 1.348 . S
C172 C175 1.485 . S
N173 C172 1.317 . S
N173 N177 1.370 . S
N174 C172 1.348 . S
N174 C176 1.346 . S
C175 C172 1.485 . S
C175 H179 0.960 . S
C175 H180 0.961 . S
C175 H181 0.960 . S
C176 N174 1.346 . S
C176 N177 1.307 . S
C176 C178 1.486 . S
N177 N173 1.370 . S
N177 C176 1.307 . S
C178 C176 1.486 . S
C178 H182 0.960 . S
C178 H183 0.960 . S
C178 H184 0.959 . S
H179 C175 0.960 . S
H180 C175 0.961 . S
H181 C175 0.960 . S
H182 C178 0.960 . S
H183 C178 0.960 . S
H184 C178 0.959 . S
C185 N186 1.317 . S
C185 N187 1.348 . S
C185 C188 1.485 . S
N186 C185 1.317 . S
N186 N190 1.370 . S
N187 C185 1.348 . S
N187 C189 1.346 . S
C188 C185 1.485 . S
C188 H192 0.960 . S
C188 H193 0.961 . S
C188 H194 0.960 . S
C189 N187 1.346 . S
C189 N190 1.307 . S
C189 C191 1.486 . S
N190 N186 1.370 . S
N190 C189 1.307 . S
C191 C189 1.486 . S
C191 H195 0.960 . S
C191 H196 0.960 . S
C191 H197 0.959 . S
H192 C188 0.960 . S
H193 C188 0.961 . S
H194 C188 0.960 . S
H195 C191 0.960 . S
H196 C191 0.960 . S
H197 C191 0.959 . S
H198 C206 0.950 . S
H199 C211 0.950 . S
H200 C208 0.950 . S
H201 C210 0.950 . S
H202 C212 0.950 . S
H203 C214 0.950 . S
H204 C216 0.950 . S
H205 C217 0.950 . S
C206 H198 0.950 . S
C206 C207 1.386 . S
C206 C208 1.391 . S
C207 C206 1.386 . S
C207 C211 1.393 . S
C208 H200 0.950 . S
C208 C206 1.391 . S
C208 C209 1.400 . S
C209 C208 1.400 . S
C209 C210 1.398 . S
C209 C215 1.491 . S
C210 H201 0.950 . S
C210 C209 1.398 . S
C210 C211 1.391 . S
C211 H199 0.950 . S
C211 C207 1.393 . S
C211 C210 1.391 . S
C212 H202 0.950 . S
C212 C213 1.386 . S
C212 C214 1.391 . S
C213 C212 1.386 . S
C213 C217 1.393 . S
C214 H203 0.950 . S
C214 C212 1.391 . S
C214 C215 1.400 . S
C215 C209 1.491 . S
C215 C214 1.400 . S
C215 C216 1.398 . S
C216 H204 0.950 . S
C216 C215 1.398 . S
C216 C217 1.391 . S
C217 H205 0.950 . S
C217 C213 1.393 . S
C217 C216 1.391 . S
H218 C226 0.950 . S
H219 C231 0.950 . S
H220 C228 0.950 . S
H221 C230 0.950 . S
H222 C232 0.950 . S
H223 C234 0.950 1_455 S
H224 C236 0.950 . S
H225 C237 0.950 . S
C226 H218 0.950 . S
C226 C227 1.386 . S
C226 C228 1.391 . S
C227 C226 1.386 . S
C227 C231 1.393 . S
C228 H220 0.950 . S
C228 C226 1.391 . S
C228 C229 1.400 . S
C229 C228 1.400 . S
C229 C230 1.398 . S
C229 C235 1.491 . S
C230 H221 0.950 . S
C230 C229 1.398 . S
C230 C231 1.391 . S
C231 H219 0.950 . S
C231 C227 1.393 . S
C231 C230 1.391 . S
C232 H222 0.950 . S
C232 C233 1.386 1_455 S
C232 C234 1.391 1_455 S
C233 C232 1.386 1_655 S
C233 C237 1.393 . S
C234 H223 0.950 1_655 S
C234 C232 1.391 1_655 S
C234 C235 1.400 . S
C235 C229 1.491 . S
C235 C234 1.400 . S
C235 C236 1.398 . S
C236 H224 0.950 . S
C236 C235 1.398 . S
C236 C237 1.391 . S
C237 H225 0.950 . S
C237 C233 1.393 . S
C237 C236 1.391 . S
H238 C246 0.950 . S
H239 C251 0.950 . S
H240 C248 0.950 . S
H241 C250 0.950 . S
H242 C252 0.950 . S
H243 C254 0.950 . S
H244 C256 0.950 . S
H245 C257 0.950 1_545 S
C246 H238 0.950 . S
C246 C247 1.386 . S
C246 C248 1.391 . S
C247 C246 1.386 . S
C247 C251 1.393 . S
C248 H240 0.950 . S
C248 C246 1.391 . S
C248 C249 1.400 . S
C249 C248 1.400 . S
C249 C250 1.398 . S
C249 C255 1.491 . S
C250 H241 0.950 . S
C250 C249 1.398 . S
C250 C251 1.391 . S
C251 H239 0.950 . S
C251 C247 1.393 . S
C251 C250 1.391 . S
C252 H242 0.950 . S
C252 C253 1.386 1_565 S
C252 C254 1.391 . S
C253 C252 1.386 1_545 S
C253 C257 1.393 1_545 S
C254 H243 0.950 . S
C254 C252 1.391 . S
C254 C255 1.400 . S
C255 C249 1.491 . S
C255 C254 1.400 . S
C255 C256 1.398 . S
C256 H244 0.950 . S
C256 C255 1.398 . S
C256 C257 1.391 . S
C257 H245 0.950 1_565 S
C257 C253 1.393 1_565 S
C257 C256 1.391 . S
H258 C266 0.950 . S
H259 C271 0.950 . S
H260 C268 0.950 . S
H261 C270 0.950 . S
H262 C272 0.950 . S
H263 C274 0.950 . S
H264 C276 0.950 . S
H265 C277 0.950 . S
C266 H258 0.950 . S
C266 C267 1.386 . S
C266 C268 1.391 . S
C267 C266 1.386 . S
C267 C271 1.393 . S
C268 H260 0.950 . S
C268 C266 1.391 . S
C268 C269 1.400 . S
C269 C268 1.400 . S
C269 C270 1.398 . S
C269 C275 1.491 . S
C270 H261 0.950 . S
C270 C269 1.398 . S
C270 C271 1.391 . S
C271 H259 0.950 . S
C271 C267 1.393 . S
C271 C270 1.391 . S
C272 H262 0.950 . S
C272 C273 1.386 . S
C272 C274 1.391 . S
C273 C272 1.386 . S
C273 C277 1.393 . S
C274 H263 0.950 . S
C274 C272 1.391 . S
C274 C275 1.400 . S
C275 C269 1.491 . S
C275 C274 1.400 . S
C275 C276 1.398 . S
C276 H264 0.950 . S
C276 C275 1.398 . S
C276 C277 1.391 . S
C277 H265 0.950 . S
C277 C273 1.393 . S
C277 C276 1.391 . S
H278 C286 0.950 . S
H279 C291 0.950 . S
H280 C288 0.950 . S
H281 C290 0.950 . S
H282 C292 0.950 . S
H283 C294 0.950 . S
H284 C296 0.950 . S
H285 C297 0.950 . S
C286 H278 0.950 . S
C286 C287 1.386 . S
C286 C288 1.391 . S
C287 C286 1.386 . S
C287 C291 1.393 . S
C288 H280 0.950 . S
C288 C286 1.391 . S
C288 C289 1.400 . S
C289 C288 1.400 . S
C289 C290 1.398 . S
C289 C295 1.491 . S
C290 H281 0.950 . S
C290 C289 1.398 . S
C290 C291 1.391 . S
C291 H279 0.950 . S
C291 C287 1.393 . S
C291 C290 1.391 . S
C292 H282 0.950 . S
C292 C293 1.386 . S
C292 C294 1.391 . S
C293 C292 1.386 . S
C293 C297 1.393 . S
C294 H283 0.950 . S
C294 C292 1.391 . S
C294 C295 1.400 . S
C295 C289 1.491 . S
C295 C294 1.400 . S
C295 C296 1.398 . S
C296 H284 0.950 . S
C296 C295 1.398 . S
C296 C297 1.391 . S
C297 H285 0.950 . S
C297 C293 1.393 . S
C297 C296 1.391 . S
H298 C306 0.950 . S
H299 C311 0.950 . S
H300 C308 0.950 . S
H301 C310 0.950 . S
H302 C312 0.950 . S
H303 C314 0.950 . S
H304 C316 0.950 . S
H305 C317 0.950 . S
C306 H298 0.950 . S
C306 C307 1.386 . S
C306 C308 1.391 . S
C307 C306 1.386 . S
C307 C311 1.393 . S
C308 H300 0.950 . S
C308 C306 1.391 . S
C308 C309 1.400 . S
C309 C308 1.400 . S
C309 C310 1.398 . S
C309 C315 1.491 . S
C310 H301 0.950 . S
C310 C309 1.398 . S
C310 C311 1.391 . S
C311 H299 0.950 . S
C311 C307 1.393 . S
C311 C310 1.391 . S
C312 H302 0.950 . S
C312 C313 1.386 . S
C312 C314 1.391 . S
C313 C312 1.386 . S
C313 C317 1.393 . S
C314 H303 0.950 . S
C314 C312 1.391 . S
C314 C315 1.400 . S
C315 C309 1.491 . S
C315 C314 1.400 . S
C315 C316 1.398 . S
C316 H304 0.950 . S
C316 C315 1.398 . S
C316 C317 1.391 . S
C317 H305 0.950 . S
C317 C313 1.393 . S
C317 C316 1.391 . S
H318 C326 0.950 . S
H319 C331 0.950 . S
H320 C328 0.950 . S
H321 C330 0.950 . S
H322 C332 0.950 . S
H323 C334 0.950 . S
H324 C336 0.950 . S
H325 C337 0.950 . S
C326 H318 0.950 . S
C326 C327 1.386 . S
C326 C328 1.391 . S
C327 C326 1.386 . S
C327 C331 1.393 . S
C328 H320 0.950 . S
C328 C326 1.391 . S
C328 C329 1.400 . S
C329 C328 1.400 . S
C329 C330 1.398 . S
C329 C335 1.491 . S
C330 H321 0.950 . S
C330 C329 1.398 . S
C330 C331 1.391 . S
C331 H319 0.950 . S
C331 C327 1.393 . S
C331 C330 1.391 . S
C332 H322 0.950 . S
C332 C333 1.386 . S
C332 C334 1.391 . S
C333 C332 1.386 . S
C333 C337 1.393 . S
C334 H323 0.950 . S
C334 C332 1.391 . S
C334 C335 1.400 . S
C335 C329 1.491 . S
C335 C334 1.400 . S
C335 C336 1.398 . S
C336 H324 0.950 . S
C336 C335 1.398 . S
C336 C337 1.391 . S
C337 H325 0.950 . S
C337 C333 1.393 . S
C337 C336 1.391 . S
H338 C346 0.950 . S
H339 C351 0.950 . S
H340 C348 0.950 . S
H341 C350 0.950 . S
H342 C352 0.950 . S
H343 C354 0.950 . S
H344 C356 0.950 . S
H345 C357 0.950 . S
C346 H338 0.950 . S
C346 C347 1.386 . S
C346 C348 1.391 . S
C347 C346 1.386 . S
C347 C351 1.393 . S
C348 H340 0.950 . S
C348 C346 1.391 . S
C348 C349 1.400 . S
C349 C348 1.400 . S
C349 C350 1.398 . S
C349 C355 1.491 . S
C350 H341 0.950 . S
C350 C349 1.398 . S
C350 C351 1.391 . S
C351 H339 0.950 . S
C351 C347 1.393 . S
C351 C350 1.391 . S
C352 H342 0.950 . S
C352 C353 1.386 . S
C352 C354 1.391 . S
C353 C352 1.386 . S
C353 C357 1.393 . S
C354 H343 0.950 . S
C354 C352 1.391 . S
C354 C355 1.400 . S
C355 C349 1.491 . S
C355 C354 1.400 . S
C355 C356 1.398 . S
C356 H344 0.950 . S
C356 C355 1.398 . S
C356 C357 1.391 . S
C357 H345 0.950 . S
C357 C353 1.393 . S
C357 C356 1.391 . S
H358 C366 0.950 . S
H359 C371 0.950 . S
H360 C368 0.950 . S
H361 C370 0.950 . S
H362 C372 0.950 . S
H363 C374 0.950 . S
H364 C376 0.950 . S
H365 C377 0.950 . S
C366 H358 0.950 . S
C366 C367 1.386 . S
C366 C368 1.391 . S
C367 C366 1.386 . S
C367 C371 1.393 . S
C368 H360 0.950 . S
C368 C366 1.391 . S
C368 C369 1.400 . S
C369 C368 1.400 . S
C369 C370 1.398 . S
C369 C375 1.491 . S
C370 H361 0.950 . S
C370 C369 1.398 . S
C370 C371 1.391 . S
C371 H359 0.950 . S
C371 C367 1.393 . S
C371 C370 1.391 . S
C372 H362 0.950 . S
C372 C373 1.386 . S
C372 C374 1.391 . S
C373 C372 1.386 . S
C373 C377 1.393 . S
C374 H363 0.950 . S
C374 C372 1.391 . S
C374 C375 1.400 . S
C375 C369 1.491 . S
C375 C374 1.400 . S
C375 C376 1.398 . S
C376 H364 0.950 . S
C376 C375 1.398 . S
C376 C377 1.391 . S
C377 H365 0.950 . S
C377 C373 1.393 . S
C377 C376 1.391 . S
H378 C386 0.950 . S
H379 C391 0.950 . S
H380 C388 0.950 . S
H381 C390 0.950 . S
H382 C392 0.950 . S
H383 C394 0.950 . S
H384 C396 0.950 . S
H385 C397 0.950 . S
C386 H378 0.950 . S
C386 C387 1.386 . S
C386 C388 1.391 . S
C387 C386 1.386 . S
C387 C391 1.393 . S
C388 H380 0.950 . S
C388 C386 1.391 . S
C388 C389 1.400 . S
C389 C388 1.400 . S
C389 C390 1.398 . S
C389 C395 1.491 . S
C390 H381 0.950 . S
C390 C389 1.398 . S
C390 C391 1.391 . S
C391 H379 0.950 . S
C391 C387 1.393 . S
C391 C390 1.391 . S
C392 H382 0.950 . S
C392 C393 1.386 . S
C392 C394 1.391 . S
C393 C392 1.386 . S
C393 C397 1.393 . S
C394 H383 0.950 . S
C394 C392 1.391 . S
C394 C395 1.400 . S
C395 C389 1.491 . S
C395 C394 1.400 . S
C395 C396 1.398 . S
C396 H384 0.950 . S
C396 C395 1.398 . S
C396 C397 1.391 . S
C397 H385 0.950 . S
C397 C393 1.393 . S
C397 C396 1.391 . S
H398 C406 0.950 . S
H399 C411 0.950 . S
H400 C408 0.950 . S
H401 C410 0.950 . S
H402 C412 0.950 . S
H403 C414 0.950 . S
H404 C416 0.950 . S
H405 C417 0.950 . S
C406 H398 0.950 . S
C406 C407 1.386 . S
C406 C408 1.391 . S
C407 C406 1.386 . S
C407 C411 1.393 . S
C408 H400 0.950 . S
C408 C406 1.391 . S
C408 C409 1.400 . S
C409 C408 1.400 . S
C409 C410 1.398 . S
C409 C415 1.491 . S
C410 H401 0.950 . S
C410 C409 1.398 . S
C410 C411 1.391 . S
C411 H399 0.950 . S
C411 C407 1.393 . S
C411 C410 1.391 . S
C412 H402 0.950 . S
C412 C413 1.386 . S
C412 C414 1.391 . S
C413 C412 1.386 . S
C413 C417 1.393 . S
C414 H403 0.950 . S
C414 C412 1.391 . S
C414 C415 1.400 . S
C415 C409 1.491 . S
C415 C414 1.400 . S
C415 C416 1.398 . S
C416 H404 0.950 . S
C416 C415 1.398 . S
C416 C417 1.391 . S
C417 H405 0.950 . S
C417 C413 1.393 . S
C417 C416 1.391 . S
H418 C426 0.950 . S
H419 C431 0.950 . S
H420 C428 0.950 . S
H421 C430 0.950 . S
H422 C432 0.950 . S
H423 C434 0.950 . S
H424 C436 0.950 . S
H425 C437 0.950 . S
C426 H418 0.950 . S
C426 C427 1.386 . S
C426 C428 1.391 . S
C427 C426 1.386 . S
C427 C431 1.393 . S
C428 H420 0.950 . S
C428 C426 1.391 . S
C428 C429 1.400 . S
C429 C428 1.400 . S
C429 C430 1.398 . S
C429 C435 1.491 . S
C430 H421 0.950 . S
C430 C429 1.398 . S
C430 C431 1.391 . S
C431 H419 0.950 . S
C431 C427 1.393 . S
C431 C430 1.391 . S
C432 H422 0.950 . S
C432 C433 1.386 . S
C432 C434 1.391 . S
C433 C432 1.386 . S
C433 C437 1.393 . S
C434 H423 0.950 . S
C434 C432 1.391 . S
C434 C435 1.400 . S
C435 C429 1.491 . S
C435 C434 1.400 . S
C435 C436 1.398 . S
C436 H424 0.950 . S
C436 C435 1.398 . S
C436 C437 1.391 . S
C437 H425 0.950 . S
C437 C433 1.393 . S
C437 C436 1.391 . S
H438 C446 0.950 . S
H439 C451 0.950 . S
H440 C448 0.950 . S
H441 C450 0.950 . S
H442 C452 0.950 . S
H443 C454 0.950 . S
H444 C456 0.950 . S
H445 C457 0.950 . S
C446 H438 0.950 . S
C446 C447 1.386 1_655 S
C446 C448 1.391 . S
C447 C446 1.386 1_455 S
C447 C451 1.393 . S
C448 H440 0.950 . S
C448 C446 1.391 . S
C448 C449 1.400 1_655 S
C449 C448 1.400 1_455 S
C449 C450 1.398 . S
C449 C455 1.491 1_554 S
C450 H441 0.950 . S
C450 C449 1.398 . S
C450 C451 1.391 . S
C451 H439 0.950 . S
C451 C447 1.393 . S
C451 C450 1.391 . S
C452 H442 0.950 . S
C452 C453 1.386 . S
C452 C454 1.391 . S
C453 C452 1.386 . S
C453 C457 1.393 1_455 S
C454 H443 0.950 . S
C454 C452 1.391 . S
C454 C455 1.400 . S
C455 C449 1.491 1_556 S
C455 C454 1.400 . S
C455 C456 1.398 1_455 S
C456 H444 0.950 . S
C456 C455 1.398 1_655 S
C456 C457 1.391 . S
C457 H445 0.950 . S
C457 C453 1.393 1_655 S
C457 C456 1.391 . S
H458 C466 0.950 . S
H459 C471 0.950 . S
H460 C468 0.950 . S
H461 C470 0.950 . S
H462 C472 0.950 . S
H463 C474 0.950 . S
H464 C476 0.950 . S
H465 C477 0.950 . S
C466 H458 0.950 . S
C466 C467 1.386 . S
C466 C468 1.391 . S
C467 C466 1.386 . S
C467 C471 1.393 . S
C468 H460 0.950 . S
C468 C466 1.391 . S
C468 C469 1.400 . S
C469 C468 1.400 . S
C469 C470 1.398 . S
C469 C475 1.491 . S
C470 H461 0.950 . S
C470 C469 1.398 . S
C470 C471 1.391 . S
C471 H459 0.950 . S
C471 C467 1.393 . S
C471 C470 1.391 . S
C472 H462 0.950 . S
C472 C473 1.386 . S
C472 C474 1.391 . S
C473 C472 1.386 . S
C473 C477 1.393 . S
C474 H463 0.950 . S
C474 C472 1.391 . S
C474 C475 1.400 . S
C475 C469 1.491 . S
C475 C474 1.400 . S
C475 C476 1.398 . S
C476 H464 0.950 . S
C476 C475 1.398 . S
C476 C477 1.391 . S
C477 H465 0.950 . S
C477 C473 1.393 . S
C477 C476 1.391 . S
H478 C486 0.950 . S
H479 C491 0.950 . S
H480 C488 0.950 . S
H481 C490 0.950 . S
H482 C492 0.950 . S
H483 C494 0.950 . S
H484 C496 0.950 . S
H485 C497 0.950 . S
C486 H478 0.950 . S
C486 C487 1.386 . S
C486 C488 1.391 . S
C487 C486 1.386 . S
C487 C491 1.393 . S
C488 H480 0.950 . S
C488 C486 1.391 . S
C488 C489 1.400 . S
C489 C488 1.400 . S
C489 C490 1.398 . S
C489 C495 1.491 . S
C490 H481 0.950 . S
C490 C489 1.398 . S
C490 C491 1.391 . S
C491 H479 0.950 . S
C491 C487 1.393 . S
C491 C490 1.391 . S
C492 H482 0.950 . S
C492 C493 1.386 . S
C492 C494 1.391 . S
C493 C492 1.386 . S
C493 C497 1.393 . S
C494 H483 0.950 . S
C494 C492 1.391 . S
C494 C495 1.400 . S
C495 C489 1.491 . S
C495 C494 1.400 . S
C495 C496 1.398 . S
C496 H484 0.950 . S
C496 C495 1.398 . S
C496 C497 1.391 . S
C497 H485 0.950 . S
C497 C493 1.393 . S
C497 C496 1.391 . S
H498 C506 0.950 . S
H499 C511 0.950 . S
H500 C508 0.950 . S
H501 C510 0.950 . S
H502 C512 0.950 . S
H503 C514 0.950 . S
H504 C516 0.950 . S
H505 C517 0.950 . S
C506 H498 0.950 . S
C506 C507 1.386 1_565 S
C506 C508 1.391 . S
C507 C506 1.386 1_545 S
C507 C511 1.393 . S
C508 H500 0.950 . S
C508 C506 1.391 . S
C508 C509 1.400 1_565 S
C509 C508 1.400 1_545 S
C509 C510 1.398 . S
C509 C515 1.491 . S
C510 H501 0.950 . S
C510 C509 1.398 . S
C510 C511 1.391 . S
C511 H499 0.950 . S
C511 C507 1.393 . S
C511 C510 1.391 . S
C512 H502 0.950 . S
C512 C513 1.386 . S
C512 C514 1.391 . S
C513 C512 1.386 . S
C513 C517 1.393 1_545 S
C514 H503 0.950 . S
C514 C512 1.391 . S
C514 C515 1.400 . S
C515 C509 1.491 . S
C515 C514 1.400 . S
C515 C516 1.398 1_545 S
C516 H504 0.950 . S
C516 C515 1.398 1_565 S
C516 C517 1.391 . S
C517 H505 0.950 . S
C517 C513 1.393 1_565 S
C517 C516 1.391 . S
H518 C526 0.950 . S
H519 C531 0.950 . S
H520 C528 0.950 . S
H521 C530 0.950 . S
H522 C532 0.950 . S
H523 C534 0.950 . S
H524 C536 0.950 . S
H525 C537 0.950 . S
C526 H518 0.950 . S
C526 C527 1.386 . S
C526 C528 1.391 . S
C527 C526 1.386 . S
C527 C531 1.393 . S
C528 H520 0.950 . S
C528 C526 1.391 . S
C528 C529 1.400 . S
C529 C528 1.400 . S
C529 C530 1.398 . S
C529 C535 1.491 1_556 S
C530 H521 0.950 . S
C530 C529 1.398 . S
C530 C531 1.391 . S
C531 H519 0.950 . S
C531 C527 1.393 . S
C531 C530 1.391 . S
C532 H522 0.950 . S
C532 C533 1.386 . S
C532 C534 1.391 . S
C533 C532 1.386 . S
C533 C537 1.393 . S
C534 H523 0.950 . S
C534 C532 1.391 . S
C534 C535 1.400 . S
C535 C529 1.491 1_554 S
C535 C534 1.400 . S
C535 C536 1.398 . S
C536 H524 0.950 . S
C536 C535 1.398 . S
C536 C537 1.391 . S
C537 H525 0.950 . S
C537 C533 1.393 . S
C537 C536 1.391 . S
H538 C546 0.950 . S
H539 C551 0.950 . S
H540 C548 0.950 . S
H541 C550 0.950 . S
H542 C552 0.950 1_655 S
H543 C554 0.950 . S
H544 C556 0.950 . S
H545 C557 0.950 . S
C546 H538 0.950 . S
C546 C547 1.386 . S
C546 C548 1.391 . S
C547 C546 1.386 . S
C547 C551 1.393 1_455 S
C548 H540 0.950 . S
C548 C546 1.391 . S
C548 C549 1.400 . S
C549 C548 1.400 . S
C549 C550 1.398 1_455 S
C549 C555 1.491 . S
C550 H541 0.950 . S
C550 C549 1.398 1_655 S
C550 C551 1.391 . S
C551 H539 0.950 . S
C551 C547 1.393 1_655 S
C551 C550 1.391 . S
C552 H542 0.950 1_455 S
C552 C553 1.386 . S
C552 C554 1.391 1_455 S
C553 C552 1.386 . S
C553 C557 1.393 . S
C554 H543 0.950 . S
C554 C552 1.391 1_655 S
C554 C555 1.400 1_655 S
C555 C549 1.491 . S
C555 C554 1.400 1_455 S
C555 C556 1.398 . S
C556 H544 0.950 . S
C556 C555 1.398 . S
C556 C557 1.391 . S
C557 H545 0.950 . S
C557 C553 1.393 . S
C557 C556 1.391 . S
C207 C19 1.641 . S
C213 N187 1.607 . S
C227 C46 1.209 . S
C233 N160 1.203 1_655 S
C247 C95 0.407 . S
C253 N173 0.321 . S
C267 C10 2.144 . S
C273 N186 2.193 . S
C293 N161 1.375 . S
C287 C55 1.344 . S
C313 N174 0.699 . S
C307 C86 0.720 . S
C327 C59 2.987 . S
C333 N134 2.989 . S
C347 C90 1.693 . S
C353 N148 1.675 . S
C367 C15 1.355 . S
C373 N122 1.370 . S
C393 N135 3.048 . S
C387 C50 3.045 . S
C413 N147 2.150 . S
C407 C99 2.128 . S
C427 C6 1.082 . S
C433 N121 1.089 . S
C453 N151 1.450 . S
C447 C9 1.463 . S
C467 C58 1.498 . S
C473 N125 1.614 . S
C487 C98 1.711 . S
C493 N138 1.731 . S
C513 N177 1.329 . S
C507 C49 1.315 . S
C533 N190 1.424 . S
C527 C89 1.409 . S
C547 C18 1.456 . S
C553 N164 1.518 . S
