# Generated by pormake.
# Topology pth, (4,4)-cn, num edge types: 1
# Building blocks:
#     Node 0, Type 0, BuildingBlock: TATPOV_clean_sbu_0, # of connection points: 4
#     Node 1, Type 0, BuildingBlock: TATPOV_clean_sbu_0, # of connection points: 4
#     Node 2, Type 0, BuildingBlock: TATPOV_clean_sbu_0, # of connection points: 4
#     Node 3, Type 1, BuildingBlock: NAHDIM_clean_linker_0, # of connection points: 4
#     Node 4, Type 1, BuildingBlock: NAHDIM_clean_linker_0, # of connection points: 4
#     Node 5, Type 1, BuildingBlock: NAHDIM_clean_linker_0, # of connection points: 4
#     Edge 6, Type (0, 1), BuildingBlock: OJICUG_clean_linker_0, # of connection points: 2
#     Edge 7, Type (0, 1), BuildingBlock: OJICUG_clean_linker_0, # of connection points: 2
#     Edge 8, Type (0, 1), BuildingBlock: OJICUG_clean_linker_0, # of connection points: 2
#     Edge 9, Type (0, 1), BuildingBlock: OJICUG_clean_linker_0, # of connection points: 2
#     Edge 10, Type (0, 1), BuildingBlock: OJICUG_clean_linker_0, # of connection points: 2
#     Edge 11, Type (0, 1), BuildingBlock: OJICUG_clean_linker_0, # of connection points: 2
#     Edge 12, Type (0, 1), BuildingBlock: OJICUG_clean_linker_0, # of connection points: 2
#     Edge 13, Type (0, 1), BuildingBlock: OJICUG_clean_linker_0, # of connection points: 2
#     Edge 14, Type (0, 1), BuildingBlock: OJICUG_clean_linker_0, # of connection points: 2
#     Edge 15, Type (0, 1), BuildingBlock: OJICUG_clean_linker_0, # of connection points: 2
#     Edge 16, Type (0, 1), BuildingBlock: OJICUG_clean_linker_0, # of connection points: 2
#     Edge 17, Type (0, 1), BuildingBlock: OJICUG_clean_linker_0, # of connection points: 2
# Relax obj value: 0.054
# Max RMSD: 0.174
# Mean RMSD: 0.111
data_MOF--net-pth--node1-TATPOV_clean_sbu_0--node2-NAHDIM_clean_linker_0--edge1-OJICUG_clean_linker_0
_symmetry_space_group_name_H-M    P1
_symmetry_Int_Tables_number       1
_symmetry_cell_setting            triclinic
loop_
_symmetry_equiv_pos_as_xyz
'x, y, z'
_cell_length_a     25.815666
_cell_length_b     25.45602
_cell_length_c     63.654075
_cell_angle_alpha  92.18393
_cell_angle_beta   92.812498
_cell_angle_gamma 121.25022
loop_
_atom_site_label
_atom_site_type_symbol
_atom_site_fract_x
_atom_site_fract_y
_atom_site_fract_z
_atom_type_partial_charge
Zn0 Zn 0.17935 0.05362 0.05086 0.0
Zn1 Zn 0.10743 0.09592 0.06367 0.0
O2 O 0.11755 0.052 0.08815 0.0
O3 O 0.18355 0.02592 0.08021 0.0
O4 O 0.06919 0.13883 0.07712 0.0
O5 O 0.24127 0.13868 0.04182 0.0
O6 O 0.18206 0.16962 0.05356 0.0
C7 C 0.14861 0.02794 0.09309 0.0
C8 C 0.05856 0.00019 0.02724 0.0
O9 O 0.05131 0.03745 0.03887 0.0
O10 O 0.10623 0.99759 0.03001 0.0
C11 C 0.02923 0.11526 0.09033 0.0
O12 O 0.00451 0.05659 0.09353 0.0
C13 C 0.22996 0.18103 0.04503 0.0
Zn14 Zn 0.12148 0.08663 0.36439 0.0
Zn15 Zn 0.03988 0.07332 0.39301 0.0
O16 O 0.11065 0.08402 0.41174 0.0
O17 O 0.17478 0.0868 0.38954 0.0
O18 O 0.98029 0.06366 0.41386 0.0
O19 O 0.12696 0.16712 0.35709 0.0
O20 O 0.057 0.1502 0.37881 0.0
C21 C 0.16011 0.08692 0.40828 0.0
C22 C 0.00702 0.97059 0.35859 0.0
O23 O 0.99638 0.99183 0.37517 0.0
O24 O 0.05585 0.00324 0.34983 0.0
C25 C 0.99297 0.10872 0.42682 0.0
O26 O 0.04447 0.16125 0.42595 0.0
C27 C 0.09319 0.18316 0.36547 0.0
Zn28 Zn 0.04943 0.89602 0.7642 0.0
Zn29 Zn 0.01338 0.9601 0.7411 0.0
O30 O 0.06418 0.9421 0.72174 0.0
O31 O 0.09369 0.88883 0.73975 0.0
O32 O 0.97688 0.99284 0.7207 0.0
O33 O 0.96296 0.8292 0.76759 0.0
O34 O 0.93536 0.88473 0.7501 0.0
C35 C 0.0931 0.91414 0.72306 0.0
C36 C 0.09471 0.02332 0.78086 0.0
O37 O 0.06739 0.0278 0.76443 0.0
O38 O 0.09159 0.97306 0.78423 0.0
C39 C 0.98215 0.04473 0.7186 0.0
O40 O 0.01833 0.09218 0.7319 0.0
C41 C 0.92147 0.83699 0.75993 0.0
C42 C 0.78098 0.69174 0.33192 0.0
C43 C 0.84769 0.71136 0.3308 0.0
C44 C 0.89018 0.67368 0.30516 0.0
C45 C 0.94986 0.69904 0.31411 0.0
C46 C 0.98679 0.67752 0.30697 0.0
C47 C 0.96246 0.62814 0.29116 0.0
C48 C 0.90101 0.60058 0.28301 0.0
C49 C 0.86649 0.62516 0.28965 0.0
C50 C 0.05207 0.70874 0.31587 0.0
C51 C 0.87144 0.5455 0.26706 0.0
C52 C 0.18325 0.46593 0.37725 0.0
C53 C 0.1344 0.42831 0.35928 0.0
C54 C 0.12719 0.47257 0.32671 0.0
C55 C 0.06367 0.43997 0.32276 0.0
C56 C 0.03562 0.46091 0.30876 0.0
C57 C 0.07194 0.51578 0.29874 0.0
C58 C 0.13611 0.54793 0.30247 0.0
C59 C 0.16281 0.52509 0.31611 0.0
C60 C 0.96735 0.42447 0.30468 0.0
C61 C 0.1767 0.60715 0.2924 0.0
C62 C 0.04315 0.38172 0.16105 0.0
C63 C 0.9926 0.3743 0.17099 0.0
C64 C 0.99492 0.4243 0.18203 0.0
C65 C 0.04959 0.48268 0.18379 0.0
C66 C 0.1005 0.49046 0.17369 0.0
C67 C 0.09618 0.43997 0.16215 0.0
C68 C 0.93853 0.41445 0.19172 0.0
C69 C 0.15959 0.55178 0.17526 0.0
C70 C 0.08283 0.91933 0.18749 0.0
C71 C 0.10532 0.89716 0.1693 0.0
C72 C 0.05948 0.78475 0.16885 0.0
C73 C 0.0025 0.73053 0.16837 0.0
C74 C 0.99626 0.6765 0.17584 0.0
C75 C 0.04851 0.67712 0.18401 0.0
C76 C 0.10668 0.73045 0.18313 0.0
C77 C 0.11166 0.78353 0.17535 0.0
C78 C 0.93376 0.61971 0.17593 0.0
C79 C 0.16358 0.73193 0.19104 0.0
C80 C 0.00099 0.60665 0.28213 0.0
C81 C 0.01783 0.57209 0.29411 0.0
C82 C 0.04371 0.54116 0.2848 0.0
C83 C 0.04695 0.53946 0.26269 0.0
C84 C 0.0625 0.50054 0.25218 0.0
C85 C 0.06386 0.49846 0.23029 0.0
C86 C 0.05268 0.53744 0.21832 0.0
C87 C 0.05249 0.5351 0.19607 0.0
C88 C 0.04932 0.58008 0.18505 0.0
C89 C 0.04267 0.62515 0.19563 0.0
C90 C 0.03437 0.62273 0.21743 0.0
C91 C 0.02026 0.6626 0.22813 0.0
C92 C 0.00902 0.65736 0.24932 0.0
C93 C 0.01498 0.61455 0.26086 0.0
C94 C 0.03441 0.57796 0.25083 0.0
C95 C 0.04067 0.57949 0.22885 0.0
C96 C 0.028 0.25891 0.17437 0.0
C97 C 0.00669 0.27197 0.15335 0.0
O98 O 0.85512 0.69661 0.31046 0.0
O99 O 0.06186 0.8365 0.16271 0.0
O100 O 0.04262 0.33426 0.15023 0.0
O101 O 0.15573 0.45469 0.34054 0.0
H102 H 0.85746 0.68454 0.34208 0.0
H103 H 0.75122 0.64194 0.32688 0.0
H104 H 0.76915 0.71836 0.32133 0.0
H105 H 0.77166 0.69902 0.34828 0.0
H106 H 0.96829 0.73704 0.32606 0.0
H107 H 0.82022 0.60586 0.28295 0.0
H108 H 0.05772 0.67719 0.32597 0.0
H109 H 0.06646 0.75205 0.32556 0.0
H110 H 0.08271 0.71948 0.30295 0.0
H111 H 0.82107 0.52 0.26692 0.0
H112 H 0.88708 0.51319 0.27037 0.0
H113 H 0.88375 0.56135 0.25106 0.0
H114 H 0.09369 0.43033 0.36298 0.0
H115 H 0.16715 0.44606 0.39254 0.0
H116 H 0.19348 0.5141 0.37828 0.0
H117 H 0.22584 0.4667 0.37452 0.0
H118 H 0.03606 0.39795 0.33042 0.0
H119 H 0.21181 0.54937 0.31913 0.0
H120 H 0.95427 0.41809 0.28747 0.0
H121 H 0.94837 0.45034 0.31212 0.0
H122 H 0.94648 0.37853 0.31118 0.0
H123 H 0.22448 0.63093 0.29933 0.0
H124 H 0.15971 0.63907 0.2942 0.0
H125 H 0.17633 0.59694 0.27527 0.0
H126 H 0.9583 0.25829 0.15357 0.0
H127 H 0.95075 0.33 0.16999 0.0
H128 H 0.13486 0.44543 0.15433 0.0
H129 H 0.94433 0.41354 0.20907 0.0
H130 H 0.89726 0.3703 0.18558 0.0
H131 H 0.93102 0.45273 0.1886 0.0
H132 H 0.19719 0.54808 0.1691 0.0
H133 H 0.17268 0.57116 0.19192 0.0
H134 H 0.15374 0.58472 0.16603 0.0
H135 H 0.14853 0.90232 0.17571 0.0
H136 H 0.11379 0.96964 0.19139 0.0
H137 H 0.08203 0.89504 0.20172 0.0
H138 H 0.03596 0.9091 0.18358 0.0
H139 H 0.96257 0.73127 0.16277 0.0
H140 H 0.15648 0.82345 0.17444 0.0
H141 H 0.92084 0.61187 0.19241 0.0
H142 H 0.93385 0.57861 0.16947 0.0
H143 H 0.89883 0.624 0.16657 0.0
H144 H 0.2056 0.77634 0.18867 0.0
H145 H 0.16568 0.694 0.18274 0.0
H146 H 0.16236 0.72448 0.20813 0.0
H147 H 0.01071 0.56912 0.31077 0.0
H148 H 0.07189 0.47 0.26071 0.0
H149 H 0.07465 0.46668 0.22287 0.0
H150 H 0.05177 0.5799 0.16809 0.0
H151 H 0.01569 0.69689 0.22012 0.0
H152 H 0.99644 0.6878 0.25668 0.0
H153 H 0.07628 0.2719 0.17433 0.0
H154 H -0.00036 0.20932 0.17722 0.0
H155 H 0.02396 0.28586 0.18763 0.0
C156 C 0.1964 0.88756 0.63414 0.0
C157 C 0.23645 0.91722 0.65482 0.0
C158 C 0.33599 0.99933 0.64465 0.0
C159 C 0.37616 0.0631 0.64551 0.0
C160 C 0.43362 0.08858 0.63764 0.0
C161 C 0.45103 0.0491 0.62854 0.0
C162 C 0.41072 0.98449 0.62761 0.0
C163 C 0.35367 0.96023 0.63567 0.0
C164 C 0.47558 0.15763 0.63887 0.0
C165 C 0.42784 0.94102 0.61794 0.0
C166 C 0.85026 0.03744 0.68899 0.0
C167 C 0.80474 0.03332 0.67271 0.0
C168 C 0.74647 0.08087 0.66305 0.0
C169 C 0.71122 0.03708 0.64619 0.0
C170 C 0.66753 0.04169 0.63383 0.0
C171 C 0.66067 0.09286 0.63765 0.0
C172 C 0.69673 0.1377 0.65432 0.0
C173 C 0.73867 0.13066 0.66697 0.0
C174 C 0.62868 0.99139 0.61671 0.0
C175 C 0.69112 0.19311 0.65873 0.0
C176 C 0.78155 0.12283 0.50699 0.0
C177 C 0.73548 0.07027 0.51567 0.0
C178 C 0.68856 0.07163 0.52534 0.0
C179 C 0.68832 0.12714 0.52691 0.0
C180 C 0.7347 0.18026 0.51836 0.0
C181 C 0.7806 0.17727 0.50842 0.0
C182 C 0.63913 0.01335 0.53384 0.0
C183 C 0.73578 0.2401 0.51977 0.0
C184 C 0.23949 0.00126 0.48986 0.0
C185 C 0.28758 0.06054 0.48078 0.0
C186 C 0.38419 0.06877 0.48931 0.0
C187 C 0.39974 0.02446 0.49216 0.0
C188 C 0.44858 0.03663 0.50636 0.0
C189 C 0.48377 0.09544 0.51741 0.0
C190 C 0.46943 0.14125 0.51397 0.0
C191 C 0.41937 0.12722 0.50002 0.0
C192 C 0.46234 0.98652 0.50961 0.0
C193 C 0.50709 0.20495 0.52496 0.0
C194 C 0.51083 0.07499 0.61956 0.0
C195 C 0.55941 0.08085 0.63236 0.0
C196 C 0.61511 0.09839 0.62427 0.0
C197 C 0.62328 0.11216 0.60292 0.0
C198 C 0.67888 0.13064 0.5943 0.0
C199 C 0.68451 0.13759 0.57281 0.0
C200 C 0.63502 0.12721 0.55921 0.0
C201 C 0.63846 0.12837 0.53713 0.0
C202 C 0.58955 0.12081 0.52411 0.0
C203 C 0.53567 0.10883 0.53244 0.0
C204 C 0.53011 0.10403 0.55439 0.0
C205 C 0.47533 0.08821 0.56317 0.0
C206 C 0.46929 0.08001 0.58459 0.0
C207 C 0.51779 0.0873 0.59807 0.0
C208 C 0.57404 0.10533 0.58969 0.0
C209 C 0.58008 0.11332 0.56781 0.0
C210 C 0.86822 0.06855 0.51426 0.0
C211 C 0.83684 0.07457 0.49422 0.0
O212 O 0.2809 0.97797 0.65248 0.0
O213 O 0.33591 0.05447 0.47573 0.0
O214 O 0.82746 0.12321 0.49719 0.0
O215 O 0.78771 0.07636 0.67585 0.0
H216 H 0.25796 0.89052 0.65917 0.0
H217 H 0.22384 0.88641 0.62145 0.0
H218 H 0.17537 0.91399 0.62896 0.0
H219 H 0.15985 0.83942 0.63622 0.0
H220 H 0.36223 0.09298 0.65241 0.0
H221 H 0.32325 0.9108 0.63467 0.0
H222 H 0.51959 0.17075 0.64747 0.0
H223 H 0.456 0.18208 0.64694 0.0
H224 H 0.48524 0.17331 0.62271 0.0
H225 H 0.39102 0.89194 0.61807 0.0
H226 H 0.46925 0.94766 0.62675 0.0
H227 H 0.43866 0.9515 0.60138 0.0
H228 H 0.76533 0.98539 0.66909 0.0
H229 H 0.82606 0.99305 0.69697 0.0
H230 H 0.8509 0.0667 0.70286 0.0
H231 H 0.92659 0.06221 0.67222 0.0
H232 H 0.7168 0.99856 0.64258 0.0
H233 H 0.76604 0.16442 0.6799 0.0
H234 H 0.64595 0.00762 0.60117 0.0
H235 H 0.58071 0.97947 0.6162 0.0
H236 H 0.6297 0.94886 0.61898 0.0
H237 H 0.72693 0.22715 0.67069 0.0
H238 H 0.64601 0.17798 0.66459 0.0
H239 H 0.69404 0.21607 0.64396 0.0
H240 H 0.79257 0.03088 0.49033 0.0
H241 H 0.73538 0.02775 0.51501 0.0
H242 H 0.81624 0.21766 0.50174 0.0
H243 H 0.64474 0.01803 0.55133 0.0
H244 H 0.64049 0.97215 0.52837 0.0
H245 H 0.59359 0.00543 0.52896 0.0
H246 H 0.77773 0.27861 0.51398 0.0
H247 H 0.73239 0.25244 0.53636 0.0
H248 H 0.69583 0.23448 0.51022 0.0
H249 H 0.30284 0.09941 0.49293 0.0
H250 H 0.20058 0.00528 0.49437 0.0
H251 H 0.25949 0.99267 0.5042 0.0
H252 H 0.22253 0.96123 0.47812 0.0
H253 H 0.37253 0.97974 0.48355 0.0
H254 H 0.4083 0.16211 0.49719 0.0
H255 H 0.46751 0.98146 0.52671 0.0
H256 H 0.50597 0.99932 0.50294 0.0
H257 H 0.42626 0.94132 0.50186 0.0
H258 H 0.49309 0.23681 0.51925 0.0
H259 H 0.55588 0.22451 0.52249 0.0
H260 H 0.50247 0.20219 0.54219 0.0
H261 H 0.55277 0.06857 0.64857 0.0
H262 H 0.71821 0.13843 0.60401 0.0
H263 H 0.72786 0.15032 0.56691 0.0
H264 H 0.59226 0.12102 0.50715 0.0
H265 H 0.43611 0.08088 0.55351 0.0
H266 H 0.42575 0.06692 0.59039 0.0
H267 H 0.87626 0.02997 0.51181 0.0
H268 H 0.83932 0.05885 0.52765 0.0
H269 H 0.91246 0.11185 0.51859 0.0
C270 C 0.65532 0.60359 0.7386 0.0
C271 C 0.66834 0.64097 0.75963 0.0
C272 C 0.62953 0.59877 0.79368 0.0
C273 C 0.61227 0.64073 0.80003 0.0
C274 C 0.57943 0.63174 0.81791 0.0
C275 C 0.5653 0.58102 0.82995 0.0
C276 C 0.58575 0.54091 0.82424 0.0
C277 C 0.61724 0.55021 0.80611 0.0
C278 C 0.55872 0.67559 0.82371 0.0
C279 C 0.57291 0.48709 0.83694 0.0
C280 C 0.16462 0.15823 0.82286 0.0
C281 C 0.20877 0.20985 0.83829 0.0
C282 C 0.26248 0.32167 0.84359 0.0
C283 C 0.31059 0.326 0.8565 0.0
C284 C 0.36386 0.38282 0.862 0.0
C285 C 0.36817 0.43752 0.85552 0.0
C286 C 0.31857 0.43386 0.84352 0.0
C287 C 0.26649 0.37581 0.83755 0.0
C288 C 0.41597 0.38341 0.87423 0.0
C289 C 0.3211 0.49108 0.83659 0.0
C290 C 0.40225 0.482 0.99097 0.0
C291 C 0.43295 0.45811 0.98052 0.0
C292 C 0.47509 0.49233 0.9661 0.0
C293 C 0.48632 0.55152 0.96203 0.0
C294 C 0.45851 0.57737 0.97366 0.0
C295 C 0.41698 0.54225 0.98821 0.0
C296 C 0.50547 0.46405 0.95452 0.0
C297 C 0.47031 0.64066 0.9699 0.0
C298 C 0.95674 0.8926 0.93273 0.0
C299 C 0.9109 0.87557 0.94942 0.0
C300 C 0.81487 0.7748 0.94651 0.0
C301 C 0.79105 0.71243 0.9409 0.0
C302 C 0.72832 0.67149 0.9367 0.0
C303 C 0.68853 0.69399 0.93788 0.0
C304 C 0.71199 0.75655 0.94442 0.0
C305 C 0.77489 0.79619 0.94899 0.0
C306 C 0.70474 0.60439 0.9308 0.0
C307 C 0.67059 0.78156 0.94644 0.0
C308 C 0.52586 0.56698 0.84769 0.0
C309 C 0.46477 0.52034 0.84374 0.0
C310 C 0.42643 0.49737 0.86009 0.0
C311 C 0.44866 0.52391 0.88091 0.0
C312 C 0.4108 0.50334 0.89762 0.0
C313 C 0.43455 0.52411 0.91837 0.0
C314 C 0.49705 0.56648 0.92317 0.0
C315 C 0.52262 0.58335 0.94428 0.0
C316 C 0.58465 0.6261 0.94855 0.0
C317 C 0.62246 0.65204 0.9322 0.0
C318 C 0.59798 0.63474 0.91095 0.0
C319 C 0.63495 0.65862 0.89409 0.0
C320 C 0.61129 0.63736 0.8733 0.0
C321 C 0.54955 0.59226 0.86857 0.0
C322 C 0.51084 0.57012 0.88526 0.0
C323 C 0.53513 0.59123 0.90646 0.0
C324 C 0.24976 0.39146 0.99235 0.0
C325 C 0.30748 0.38864 0.99547 0.0
O326 O 0.65757 0.60241 0.7758 0.0
O327 O 0.8763 0.81196 0.94958 0.0
O328 O 0.35589 0.4463 0.00279 0.0
O329 O 0.21335 0.26617 0.83603 0.0
H330 H 0.63677 0.65836 0.75928 0.0
H331 H 0.60716 0.56498 0.73691 0.0
H332 H 0.68504 0.58407 0.73774 0.0
H333 H 0.66304 0.63306 0.72524 0.0
H334 H 0.62363 0.6802 0.79117 0.0
H335 H 0.63161 0.51872 0.8013 0.0
H336 H 0.50843 0.64973 0.82382 0.0
H337 H 0.57264 0.71242 0.8126 0.0
H338 H 0.57799 0.69738 0.83986 0.0
H339 H 0.59936 0.46594 0.83225 0.0
H340 H 0.5238 0.45132 0.83453 0.0
H341 H 0.58379 0.5019 0.85403 0.0
H342 H 0.20637 0.19818 0.85508 0.0
H343 H 0.22042 0.13867 0.80528 0.0
H344 H 0.13414 0.1732 0.81552 0.0
H345 H 0.12904 0.12349 0.83262 0.0
H346 H 0.30783 0.28489 0.8619 0.0
H347 H 0.22917 0.37241 0.82776 0.0
H348 H 0.41713 0.39702 0.89109 0.0
H349 H 0.46029 0.41688 0.86832 0.0
H350 H 0.41098 0.33731 0.87333 0.0
H351 H 0.27572 0.48155 0.83051 0.0
H352 H 0.35242 0.50985 0.82385 0.0
H353 H 0.33913 0.52704 0.84991 0.0
H354 H 0.31456 0.3747 0.97954 0.0
H355 H 0.42253 0.41196 0.98324 0.0
H356 H 0.3934 0.56039 0.99661 0.0
H357 H 0.4866 0.45183 0.9378 0.0
H358 H 0.49835 0.4217 0.96153 0.0
H359 H 0.55505 0.49767 0.95465 0.0
H360 H 0.44649 0.65494 0.98067 0.0
H361 H 0.45492 0.64122 0.95335 0.0
H362 H 0.51987 0.67495 0.97212 0.0
H363 H 0.88284 0.89517 0.94462 0.0
H364 H 0.98608 0.9435 0.93263 0.0
H365 H 0.93215 0.87397 0.91688 0.0
H366 H 0.98591 0.87303 0.93575 0.0
H367 H 0.82206 0.69599 0.93954 0.0
H368 H 0.79202 0.84342 0.9546 0.0
H369 H 0.68791 0.59339 0.91389 0.0
H370 H 0.66599 0.57461 0.94013 0.0
H371 H 0.74044 0.59281 0.93343 0.0
H372 H 0.69622 0.83219 0.95029 0.0
H373 H 0.63981 0.7589 0.95907 0.0
H374 H 0.64176 0.77082 0.93149 0.0
H375 H 0.44804 0.49846 0.82789 0.0
H376 H 0.36262 0.46975 0.8948 0.0
H377 H 0.40348 0.50555 0.93063 0.0
H378 H 0.60409 0.63784 0.96478 0.0
H379 H 0.68292 0.69294 0.89679 0.0
H380 H 0.64218 0.65606 0.86099 0.0
H381 H 0.24081 0.4093 0.00705 0.0
H382 H 0.20993 0.34498 0.98735 0.0
H383 H 0.25517 0.42282 0.97984 0.0
C384 C 0.06201 0.21984 0.10671 0.0
C385 C 0.01953 0.15603 0.10464 0.0
H386 H 0.09271 0.30619 0.12375 0.0
C387 C 0.97132 0.13132 0.11775 0.0
H388 H 0.10011 0.2403 0.097 0.0
C389 C 0.96641 0.16945 0.13289 0.0
C390 C 0.01 0.23294 0.13546 0.0
H391 H 0.93805 0.08234 0.1166 0.0
H392 H 0.92936 0.14907 0.14305 0.0
C393 C 0.0578 0.25773 0.12211 0.0
C394 C 0.89879 0.04368 0.44515 0.0
C395 C 0.95169 0.10116 0.44331 0.0
H396 H 0.82149 0.99048 0.46262 0.0
C397 C 0.9657 0.15071 0.4578 0.0
H398 H 0.88677 0.00451 0.4343 0.0
C399 C 0.92805 0.14265 0.47397 0.0
C400 C 0.87547 0.08498 0.47591 0.0
H401 H 0.0062 0.19555 0.45684 0.0
H402 H 0.94045 0.18123 0.48518 0.0
C403 C 0.86129 0.03563 0.46133 0.0
C404 C 0.84137 0.73226 0.76935 0.0
C405 C 0.85685 0.78903 0.76145 0.0
H406 H 0.7703 0.64118 0.77482 0.0
C407 C 0.81001 0.79816 0.75411 0.0
H408 H 0.87625 0.72348 0.775 0.0
C409 C 0.7491 0.75105 0.75427 0.0
C410 C 0.73377 0.69396 0.7618 0.0
H411 H 0.82037 0.84129 0.74788 0.0
H412 H 0.7139 0.75866 0.74805 0.0
C413 C 0.7806 0.6851 0.76934 0.0
C414 C 0.09017 0.98598 0.12464 0.0
C415 C 0.14026 0.99864 0.11327 0.0
H416 H 0.03868 0.94309 0.15065 0.0
C417 C 0.17977 0.97987 0.12077 0.0
H418 H 0.05829 0.99899 0.11913 0.0
C419 C 0.16915 0.94878 0.1392 0.0
C420 C 0.11885 0.93578 0.15051 0.0
H421 H 0.21849 0.98853 0.11228 0.0
H422 H 0.19973 0.93386 0.14443 0.0
C423 C 0.07904 0.95409 0.14285 0.0
C424 C 0.19299 0.10502 0.44672 0.0
C425 C 0.198 0.08621 0.42627 0.0
H426 H 0.21835 0.11251 0.47974 0.0
C427 C 0.23558 0.06217 0.42349 0.0
H428 H 0.16426 0.12365 0.44934 0.0
C429 C 0.26568 0.05479 0.44094 0.0
C430 C 0.26012 0.073 0.46147 0.0
H431 H 0.23965 0.04659 0.40793 0.0
H432 H 0.29223 0.03368 0.43835 0.0
C433 C 0.22397 0.09878 0.4641 0.0
C434 C 0.17102 0.15326 0.78499 0.0
C435 C 0.13711 0.07767 0.79485 0.0
H436 H 0.25267 0.26524 0.79477 0.0
C437 C 0.16675 0.064 0.81891 0.0
H438 H 0.15482 0.15881 0.76974 0.0
C439 C 0.22942 0.12626 0.83479 0.0
C440 C 0.25105 0.20407 0.82699 0.0
H441 H 0.14781 0.01749 0.82357 0.0
H442 H 0.24428 0.11907 0.85002 0.0
C443 C 0.2343 0.21911 0.79975 0.0
C444 C 0.90259 0.98249 0.68273 0.0
C445 C 0.94774 0.05015 0.70068 0.0
H446 H 0.82739 0.9422 0.6506 0.0
C447 C 0.95421 0.12298 0.69615 0.0
H448 H 0.90165 0.94037 0.68551 0.0
C449 C 0.91162 0.12924 0.67402 0.0
C450 C 0.85336 0.05391 0.65987 0.0
H451 H 0.98367 0.16312 0.70676 0.0
H452 H 0.91133 0.17109 0.67201 0.0
C453 C 0.85854 0.98393 0.6603 0.0
C454 C 0.01487 0.91302 -0.00056 0.0
C455 C 0.01441 0.96331 0.00914 0.0
H456 H 0.98185 0.84544 0.97327 0.0
C457 C 0.97575 0.98135 0.00012 0.0
H458 H 0.04383 0.89771 0.00609 0.0
C459 C 0.94087 0.95184 0.98113 0.0
C460 C 0.94342 0.9033 0.971 0.0
H461 H 0.97457 0.02006 0.00719 0.0
H462 H 0.91321 0.9681 0.97406 0.0
C463 C 0.9795 0.88312 0.98065 0.0
C464 C 0.96071 0.88554 0.32965 0.0
C465 C 0.96483 0.90564 0.35086 0.0
H466 H 0.91963 0.80929 0.30634 0.0
C467 C 0.93031 0.86237 0.36514 0.0
H468 H 0.98687 0.91803 0.31832 0.0
C469 C 0.89346 0.80007 0.35849 0.0
C470 C 0.88894 0.77959 0.33731 0.0
H471 H 0.93306 0.87639 0.38164 0.0
H472 H 0.86841 0.7676 0.36998 0.0
C473 C 0.92235 0.8232 0.32284 0.0
C474 C 0.15435 0.87697 0.70547 0.0
C475 C 0.12788 0.91328 0.70536 0.0
H476 H 0.20875 0.84942 0.68962 0.0
C477 C 0.13644 0.95022 0.68844 0.0
H478 H 0.14852 0.84789 0.71824 0.0
C479 C 0.17144 0.95153 0.67218 0.0
C480 C 0.19828 0.91558 0.67238 0.0
H481 H 0.11685 0.9789 0.68788 0.0
H482 H 0.17788 0.98095 0.65946 0.0
C483 C 0.18892 0.87789 0.68911 0.0
C484 C 0.29009 0.24224 0.01613 0.0
C485 C 0.26481 0.24017 0.03534 0.0
H486 H 0.32271 0.29069 0.98838 0.0
C487 C 0.26281 0.29158 0.04297 0.0
H488 H 0.29211 0.20326 0.00984 0.0
C489 C 0.28099 0.34194 0.0308 0.0
C490 C 0.29977 0.3409 0.01051 0.0
H491 H 0.24402 0.29138 0.05784 0.0
H492 H 0.2768 0.37991 0.0367 0.0
C493 C 0.30706 0.29204 0.00376 0.0
C494 C 0.06002 0.25915 0.37007 0.0
C495 C 0.09926 0.24291 0.36133 0.0
H496 H 0.04033 0.3301 0.37609 0.0
C497 C 0.14721 0.28633 0.35025 0.0
H498 H 0.02263 0.22687 0.37872 0.0
C499 C 0.1573 0.34558 0.34879 0.0
C500 C 0.11914 0.36228 0.35815 0.0
H501 H 0.17846 0.27544 0.34342 0.0
H502 H 0.19611 0.379 0.34096 0.0
C503 C 0.06997 0.3182 0.36854 0.0
loop_
_geom_bond_atom_site_label_1
_geom_bond_atom_site_label_2
_geom_bond_distance
_geom_bond_site_symmetry_2
_ccdc_geom_bond_type
Zn0 O3 2.028 1_545 S
Zn0 O5 2.061 . S
Zn0 O10 2.074 1_545 S
Zn1 O2 1.962 . S
Zn1 O4 1.986 . S
Zn1 O6 1.996 . S
Zn1 O9 1.955 . S
O2 Zn1 1.962 . S
O2 C7 1.254 1_545 S
O3 Zn0 2.028 1_565 S
O3 C7 1.269 . S
O4 Zn1 1.986 . S
O4 C11 1.262 . S
O5 Zn0 2.061 . S
O5 C13 1.260 . S
O6 Zn1 1.996 . S
O6 C13 1.257 . S
C7 O2 1.254 1_565 S
C7 O3 1.269 . S
C8 O9 1.254 1_665 S
C8 O10 1.270 1_655 S
O9 Zn1 1.955 . S
O9 C8 1.254 1_445 S
O10 Zn0 2.074 1_565 S
O10 C8 1.270 1_455 S
C11 O4 1.262 . S
C11 O12 1.232 . S
O12 C11 1.232 . S
C13 O5 1.260 . S
C13 O6 1.257 . S
Zn14 O17 2.031 . S
Zn14 O19 2.049 . S
Zn14 O24 2.067 . S
Zn15 O16 1.962 . S
Zn15 O18 1.986 1_455 S
Zn15 O20 1.996 . S
Zn15 O23 1.943 1_455 S
O16 Zn15 1.962 . S
O16 C21 1.254 . S
O17 Zn14 2.031 . S
O17 C21 1.269 . S
O18 Zn15 1.986 1_655 S
O18 C25 1.262 . S
O19 Zn14 2.049 . S
O19 C27 1.260 . S
O20 Zn15 1.996 . S
O20 C27 1.257 . S
C21 O16 1.254 . S
C21 O17 1.269 . S
C22 O23 1.249 1_455 S
C22 O24 1.270 . S
O23 Zn15 1.943 1_655 S
O23 C22 1.249 1_655 S
O24 Zn14 2.067 . S
O24 C22 1.270 . S
C25 O18 1.262 . S
C25 O26 1.232 . S
O26 C25 1.232 . S
C27 O19 1.260 . S
C27 O20 1.257 . S
Zn28 O31 2.031 1_565 S
Zn28 O33 2.049 . S
Zn28 O38 2.067 1_565 S
Zn29 O30 1.962 1_545 S
Zn29 O32 1.986 1_455 S
Zn29 O34 1.996 1_445 S
Zn29 O37 1.943 . S
O30 Zn29 1.962 1_565 S
O30 C35 1.254 1_565 S
O31 Zn28 2.031 1_545 S
O31 C35 1.269 . S
O32 Zn29 1.986 1_655 S
O32 C39 1.262 . S
O33 Zn28 2.049 . S
O33 C41 1.260 1_455 S
O34 Zn29 1.996 1_665 S
O34 C41 1.257 . S
C35 O30 1.254 1_545 S
C35 O31 1.269 . S
C36 O37 1.249 . S
C36 O38 1.270 . S
O37 Zn29 1.943 . S
O37 C36 1.249 . S
O38 Zn28 2.067 1_545 S
O38 C36 1.270 . S
C39 O32 1.262 . S
C39 O40 1.232 . S
O40 C39 1.232 . S
C41 O33 1.260 1_655 S
C41 O34 1.257 . S
C42 C43 1.579 . S
C42 H103 0.959 . S
C42 H104 0.959 . S
C42 H105 0.960 . S
C43 C42 1.579 . S
C43 O98 1.428 . S
C43 H102 0.963 1_655 S
C44 C45 1.407 1_655 S
C44 C49 1.418 . S
C44 O98 1.334 . S
C45 C44 1.407 1_455 S
C45 C46 1.360 . S
C45 H106 0.929 . S
C46 C45 1.360 . S
C46 C47 1.401 . S
C46 C50 1.527 . S
C47 C46 1.401 . S
C47 C48 1.405 1_455 S
C47 C80 1.587 . S
C48 C47 1.405 1_655 S
C48 C49 1.332 . S
C48 C51 1.496 . S
C49 C44 1.418 . S
C49 C48 1.332 . S
C49 H107 0.929 . S
C50 C46 1.527 . S
C50 H108 0.959 . S
C50 H109 0.961 . S
C50 H110 0.961 . S
C51 C48 1.496 . S
C51 H111 0.960 . S
C51 H112 0.960 . S
C51 H113 0.961 . S
C52 C53 1.517 . S
C52 H115 0.961 . S
C52 H116 0.960 . S
C52 H117 0.959 . S
C53 C52 1.517 . S
C53 O101 1.468 . S
C53 H114 0.980 . S
C54 C55 1.349 . S
C54 C59 1.367 . S
C54 O101 1.408 . S
C55 C54 1.349 . S
C55 C56 1.407 . S
C55 H118 0.930 . S
C56 C55 1.407 . S
C56 C57 1.449 . S
C56 C60 1.535 1_455 S
C57 C56 1.449 . S
C57 C58 1.384 . S
C57 C82 1.553 . S
C58 C57 1.384 . S
C58 C59 1.364 . S
C58 C61 1.450 . S
C59 C54 1.367 . S
C59 C58 1.364 . S
C59 H119 0.931 . S
C60 C56 1.535 1_655 S
C60 H120 0.959 . S
C60 H121 0.961 . S
C60 H122 0.959 . S
C61 C58 1.450 . S
C61 H123 0.960 . S
C61 H124 0.960 . S
C61 H125 0.960 . S
C62 C63 1.309 . S
C62 C67 1.304 . S
C62 O100 1.435 . S
C63 C62 1.309 . S
C63 C64 1.476 . S
C63 H127 0.930 . S
C64 C63 1.476 . S
C64 C65 1.400 . S
C64 C68 1.567 1_455 S
C65 C64 1.400 . S
C65 C66 1.373 . S
C65 C87 1.432 . S
C66 C65 1.373 . S
C66 C67 1.339 . S
C66 C69 1.530 . S
C67 C62 1.304 . S
C67 C66 1.339 . S
C67 H128 0.930 . S
C68 C64 1.567 1_655 S
C68 H129 0.961 . S
C68 H130 0.960 . S
C68 H131 0.958 . S
C69 C66 1.530 . S
C69 H132 0.961 . S
C69 H133 0.960 . S
C69 H134 0.960 . S
C70 C71 1.530 1_655 S
C70 H136 0.961 1_655 S
C70 H137 0.961 . S
C70 H138 0.959 . S
C71 C70 1.530 1_455 S
C71 O99 1.412 1_455 S
C71 H135 0.980 . S
C72 C73 1.288 1_455 S
C72 C77 1.377 . S
C72 O99 1.393 1_455 S
C73 C72 1.288 1_655 S
C73 C74 1.369 . S
C73 H139 0.932 . S
C74 C73 1.369 . S
C74 C75 1.398 1_655 S
C74 C78 1.527 . S
C75 C74 1.398 1_455 S
C75 C76 1.380 . S
C75 C89 1.497 . S
C76 C75 1.380 . S
C76 C77 1.383 . S
C76 C79 1.603 . S
C77 C72 1.377 . S
C77 C76 1.383 . S
C77 H140 0.929 . S
C78 C74 1.527 . S
C78 H141 0.961 . S
C78 H142 0.959 . S
C78 H143 0.959 . S
C79 C76 1.603 . S
C79 H144 0.960 . S
C79 H145 0.962 . S
C79 H146 0.961 . S
C80 C47 1.587 . S
C80 C81 1.360 . S
C80 C93 1.412 . S
C81 C80 1.360 . S
C81 C82 1.365 . S
C81 H147 0.929 . S
C82 C57 1.553 . S
C82 C81 1.365 . S
C82 C83 1.404 . S
C83 C82 1.404 . S
C83 C84 1.395 . S
C83 C94 1.451 . S
C84 C83 1.395 . S
C84 C85 1.322 . S
C84 H148 0.930 . S
C85 C84 1.322 . S
C85 C86 1.459 . S
C85 H149 0.929 . S
C86 C85 1.459 . S
C86 C87 1.445 . S
C86 C95 1.395 . S
C87 C65 1.432 . S
C87 C86 1.445 . S
C87 C88 1.370 . S
C88 C87 1.370 . S
C88 C89 1.438 . S
C88 H150 0.930 . S
C89 C75 1.497 . S
C89 C88 1.438 . S
C89 C90 1.360 . S
C90 C89 1.360 . S
C90 C91 1.401 . S
C90 C95 1.446 . S
C91 C90 1.401 . S
C91 C92 1.347 . S
C91 H151 0.929 . S
C92 C91 1.347 . S
C92 C93 1.455 . S
C92 H152 0.930 . S
C93 C80 1.412 . S
C93 C92 1.455 . S
C93 C94 1.331 . S
C94 C83 1.451 . S
C94 C93 1.331 . S
C94 C95 1.497 . S
C95 C86 1.395 . S
C95 C90 1.446 . S
C95 C94 1.497 . S
C96 C97 1.582 . S
C96 H153 0.962 . S
C96 H154 0.959 . S
C96 H155 0.958 . S
C97 C96 1.582 . S
C97 O100 1.458 . S
C97 H126 0.980 . S
O98 C43 1.428 . S
O98 C44 1.334 . S
O99 C71 1.412 1_655 S
O99 C72 1.393 1_655 S
O100 C62 1.435 . S
O100 C97 1.458 . S
O101 C53 1.468 . S
O101 C54 1.408 . S
H102 C43 0.963 1_455 S
H103 C42 0.959 . S
H104 C42 0.959 . S
H105 C42 0.960 . S
H106 C45 0.929 . S
H107 C49 0.929 . S
H108 C50 0.959 . S
H109 C50 0.961 . S
H110 C50 0.961 . S
H111 C51 0.960 . S
H112 C51 0.960 . S
H113 C51 0.961 . S
H114 C53 0.980 . S
H115 C52 0.961 . S
H116 C52 0.960 . S
H117 C52 0.959 . S
H118 C55 0.930 . S
H119 C59 0.931 . S
H120 C60 0.959 . S
H121 C60 0.961 . S
H122 C60 0.959 . S
H123 C61 0.960 . S
H124 C61 0.960 . S
H125 C61 0.960 . S
H126 C97 0.980 . S
H127 C63 0.930 . S
H128 C67 0.930 . S
H129 C68 0.961 . S
H130 C68 0.960 . S
H131 C68 0.958 . S
H132 C69 0.961 . S
H133 C69 0.960 . S
H134 C69 0.960 . S
H135 C71 0.980 . S
H136 C70 0.961 1_455 S
H137 C70 0.961 . S
H138 C70 0.959 . S
H139 C73 0.932 . S
H140 C77 0.929 . S
H141 C78 0.961 . S
H142 C78 0.959 . S
H143 C78 0.959 . S
H144 C79 0.960 . S
H145 C79 0.962 . S
H146 C79 0.961 . S
H147 C81 0.929 . S
H148 C84 0.930 . S
H149 C85 0.929 . S
H150 C88 0.930 . S
H151 C91 0.929 . S
H152 C92 0.930 . S
H153 C96 0.962 . S
H154 C96 0.959 . S
H155 C96 0.958 . S
C156 C157 1.560 1_565 S
C156 H217 0.959 . S
C156 H218 0.959 . S
C156 H219 0.960 . S
C157 C156 1.560 1_545 S
C157 O212 1.426 1_545 S
C157 H216 0.980 . S
C158 C159 1.407 . S
C158 C163 1.418 1_545 S
C158 O212 1.334 1_545 S
C159 C158 1.407 . S
C159 C160 1.360 . S
C159 H220 0.929 . S
C160 C159 1.360 . S
C160 C161 1.401 . S
C160 C164 1.527 . S
C161 C160 1.401 . S
C161 C162 1.405 1_545 S
C161 C194 1.587 . S
C162 C161 1.405 1_565 S
C162 C163 1.332 . S
C162 C165 1.496 . S
C163 C158 1.418 1_565 S
C163 C162 1.332 . S
C163 H221 0.929 . S
C164 C160 1.527 . S
C164 H222 0.959 . S
C164 H223 0.961 . S
C164 H224 0.961 . S
C165 C162 1.496 . S
C165 H225 0.960 . S
C165 H226 0.960 . S
C165 H227 0.961 . S
C166 C167 1.517 . S
C166 H229 0.961 . S
C166 H230 0.960 . S
C166 H231 0.959 . S
C167 C166 1.517 . S
C167 O215 1.468 . S
C167 H228 0.980 . S
C168 C169 1.349 . S
C168 C173 1.367 . S
C168 O215 1.408 . S
C169 C168 1.349 . S
C169 C170 1.407 . S
C169 H232 0.930 . S
C170 C169 1.407 . S
C170 C171 1.449 . S
C170 C174 1.535 1_545 S
C171 C170 1.449 . S
C171 C172 1.384 . S
C171 C196 1.553 . S
C172 C171 1.384 . S
C172 C173 1.364 . S
C172 C175 1.450 . S
C173 C168 1.367 . S
C173 C172 1.364 . S
C173 H233 0.931 . S
C174 C170 1.535 1_565 S
C174 H234 0.959 . S
C174 H235 0.961 . S
C174 H236 0.959 . S
C175 C172 1.450 . S
C175 H237 0.960 . S
C175 H238 0.960 . S
C175 H239 0.960 . S
C176 C177 1.309 . S
C176 C181 1.304 . S
C176 O214 1.435 . S
C177 C176 1.309 . S
C177 C178 1.476 . S
C177 H241 0.930 . S
C178 C177 1.476 . S
C178 C179 1.400 . S
C178 C182 1.567 1_545 S
C179 C178 1.400 . S
C179 C180 1.373 . S
C179 C201 1.432 . S
C180 C179 1.373 . S
C180 C181 1.339 . S
C180 C183 1.530 . S
C181 C176 1.304 . S
C181 C180 1.339 . S
C181 H242 0.930 . S
C182 C178 1.567 1_565 S
C182 H243 0.961 . S
C182 H244 0.960 . S
C182 H245 0.958 . S
C183 C180 1.530 . S
C183 H246 0.961 . S
C183 H247 0.960 . S
C183 H248 0.960 . S
C184 C185 1.530 . S
C184 H250 0.961 . S
C184 H251 0.961 1_545 S
C184 H252 0.962 . S
C185 C184 1.530 . S
C185 O213 1.412 . S
C185 H249 0.980 . S
C186 C187 1.288 1_545 S
C186 C191 1.377 . S
C186 O213 1.393 . S
C187 C186 1.288 1_565 S
C187 C188 1.369 1_565 S
C187 H253 0.932 . S
C188 C187 1.369 1_545 S
C188 C189 1.398 . S
C188 C192 1.527 1_545 S
C189 C188 1.398 . S
C189 C190 1.380 . S
C189 C203 1.497 . S
C190 C189 1.380 . S
C190 C191 1.383 . S
C190 C193 1.603 . S
C191 C186 1.377 . S
C191 C190 1.383 . S
C191 H254 0.929 . S
C192 C188 1.527 1_565 S
C192 H255 0.961 . S
C192 H256 0.959 . S
C192 H257 0.959 . S
C193 C190 1.603 . S
C193 H258 0.960 . S
C193 H259 0.962 . S
C193 H260 0.961 . S
C194 C161 1.587 . S
C194 C195 1.360 . S
C194 C207 1.412 . S
C195 C194 1.360 . S
C195 C196 1.365 . S
C195 H261 0.929 . S
C196 C171 1.553 . S
C196 C195 1.365 . S
C196 C197 1.404 . S
C197 C196 1.404 . S
C197 C198 1.395 . S
C197 C208 1.451 . S
C198 C197 1.395 . S
C198 C199 1.322 . S
C198 H262 0.930 . S
C199 C198 1.322 . S
C199 C200 1.459 . S
C199 H263 0.929 . S
C200 C199 1.459 . S
C200 C201 1.445 . S
C200 C209 1.395 . S
C201 C179 1.432 . S
C201 C200 1.445 . S
C201 C202 1.370 . S
C202 C201 1.370 . S
C202 C203 1.438 . S
C202 H264 0.930 . S
C203 C189 1.497 . S
C203 C202 1.438 . S
C203 C204 1.360 . S
C204 C203 1.360 . S
C204 C205 1.401 . S
C204 C209 1.446 . S
C205 C204 1.401 . S
C205 C206 1.347 . S
C205 H265 0.929 . S
C206 C205 1.347 . S
C206 C207 1.455 . S
C206 H266 0.930 . S
C207 C194 1.412 . S
C207 C206 1.455 . S
C207 C208 1.331 . S
C208 C197 1.451 . S
C208 C207 1.331 . S
C208 C209 1.497 . S
C209 C200 1.395 . S
C209 C204 1.446 . S
C209 C208 1.497 . S
C210 C211 1.582 . S
C210 H267 0.962 . S
C210 H268 0.959 . S
C210 H269 0.958 . S
C211 C210 1.582 . S
C211 O214 1.458 . S
C211 H240 0.980 . S
O212 C157 1.426 1_565 S
O212 C158 1.334 1_565 S
O213 C185 1.412 . S
O213 C186 1.393 . S
O214 C176 1.435 . S
O214 C211 1.458 . S
O215 C167 1.468 . S
O215 C168 1.408 . S
H216 C157 0.980 . S
H217 C156 0.959 . S
H218 C156 0.959 . S
H219 C156 0.960 . S
H220 C159 0.929 . S
H221 C163 0.929 . S
H222 C164 0.959 . S
H223 C164 0.961 . S
H224 C164 0.961 . S
H225 C165 0.960 . S
H226 C165 0.960 . S
H227 C165 0.961 . S
H228 C167 0.980 . S
H229 C166 0.961 . S
H230 C166 0.960 . S
H231 C166 0.959 . S
H232 C169 0.930 . S
H233 C173 0.931 . S
H234 C174 0.959 . S
H235 C174 0.961 . S
H236 C174 0.959 . S
H237 C175 0.960 . S
H238 C175 0.960 . S
H239 C175 0.960 . S
H240 C211 0.980 . S
H241 C177 0.930 . S
H242 C181 0.930 . S
H243 C182 0.961 . S
H244 C182 0.960 . S
H245 C182 0.958 . S
H246 C183 0.961 . S
H247 C183 0.960 . S
H248 C183 0.960 . S
H249 C185 0.980 . S
H250 C184 0.961 . S
H251 C184 0.961 1_565 S
H252 C184 0.962 . S
H253 C187 0.932 . S
H254 C191 0.929 . S
H255 C192 0.961 . S
H256 C192 0.959 . S
H257 C192 0.959 . S
H258 C193 0.960 . S
H259 C193 0.962 . S
H260 C193 0.961 . S
H261 C195 0.929 . S
H262 C198 0.930 . S
H263 C199 0.929 . S
H264 C202 0.930 . S
H265 C205 0.929 . S
H266 C206 0.930 . S
H267 C210 0.962 . S
H268 C210 0.959 . S
H269 C210 0.958 . S
C270 C271 1.560 . S
C270 H331 0.959 . S
C270 H332 0.959 . S
C270 H333 0.960 . S
C271 C270 1.560 . S
C271 O326 1.426 . S
C271 H330 0.980 . S
C272 C273 1.407 . S
C272 C277 1.418 . S
C272 O326 1.334 . S
C273 C272 1.407 . S
C273 C274 1.360 . S
C273 H334 0.929 . S
C274 C273 1.360 . S
C274 C275 1.401 . S
C274 C278 1.527 . S
C275 C274 1.401 . S
C275 C276 1.405 . S
C275 C308 1.587 . S
C276 C275 1.405 . S
C276 C277 1.332 . S
C276 C279 1.496 . S
C277 C272 1.418 . S
C277 C276 1.332 . S
C277 H335 0.929 . S
C278 C274 1.527 . S
C278 H336 0.959 . S
C278 H337 0.961 . S
C278 H338 0.961 . S
C279 C276 1.496 . S
C279 H339 0.960 . S
C279 H340 0.960 . S
C279 H341 0.961 . S
C280 C281 1.517 . S
C280 H343 0.961 . S
C280 H344 0.960 . S
C280 H345 0.959 . S
C281 C280 1.517 . S
C281 O329 1.468 . S
C281 H342 0.980 . S
C282 C283 1.349 . S
C282 C287 1.367 . S
C282 O329 1.408 . S
C283 C282 1.349 . S
C283 C284 1.407 . S
C283 H346 0.930 . S
C284 C283 1.407 . S
C284 C285 1.449 . S
C284 C288 1.535 . S
C285 C284 1.449 . S
C285 C286 1.384 . S
C285 C310 1.553 . S
C286 C285 1.384 . S
C286 C287 1.364 . S
C286 C289 1.450 . S
C287 C282 1.367 . S
C287 C286 1.364 . S
C287 H347 0.931 . S
C288 C284 1.535 . S
C288 H348 0.959 . S
C288 H349 0.961 . S
C288 H350 0.959 . S
C289 C286 1.450 . S
C289 H351 0.960 . S
C289 H352 0.960 . S
C289 H353 0.960 . S
C290 C291 1.309 . S
C290 C295 1.304 . S
C290 O328 1.435 . S
C291 C290 1.309 . S
C291 C292 1.476 . S
C291 H355 0.930 . S
C292 C291 1.476 . S
C292 C293 1.400 . S
C292 C296 1.567 . S
C293 C292 1.400 . S
C293 C294 1.373 . S
C293 C315 1.432 . S
C294 C293 1.373 . S
C294 C295 1.339 . S
C294 C297 1.530 . S
C295 C290 1.304 . S
C295 C294 1.339 . S
C295 H356 0.930 . S
C296 C292 1.567 . S
C296 H357 0.961 . S
C296 H358 0.960 . S
C296 H359 0.958 . S
C297 C294 1.530 . S
C297 H360 0.961 . S
C297 H361 0.960 . S
C297 H362 0.960 . S
C298 C299 1.530 1_554 S
C298 H364 0.961 . S
C298 H365 0.961 1_554 S
C298 H366 0.959 . S
C299 C298 1.530 1_556 S
C299 O327 1.412 . S
C299 H363 0.980 . S
C300 C301 1.288 . S
C300 C305 1.377 . S
C300 O327 1.393 . S
C301 C300 1.288 . S
C301 C302 1.369 . S
C301 H367 0.932 . S
C302 C301 1.369 . S
C302 C303 1.398 . S
C302 C306 1.527 . S
C303 C302 1.398 . S
C303 C304 1.380 . S
C303 C317 1.497 . S
C304 C303 1.380 . S
C304 C305 1.383 . S
C304 C307 1.603 . S
C305 C300 1.377 . S
C305 C304 1.383 . S
C305 H368 0.929 . S
C306 C302 1.527 . S
C306 H369 0.961 . S
C306 H370 0.959 . S
C306 H371 0.959 . S
C307 C304 1.603 . S
C307 H372 0.960 . S
C307 H373 0.962 . S
C307 H374 0.961 . S
C308 C275 1.587 . S
C308 C309 1.360 . S
C308 C321 1.412 . S
C309 C308 1.360 . S
C309 C310 1.365 . S
C309 H375 0.929 . S
C310 C285 1.553 . S
C310 C309 1.365 . S
C310 C311 1.404 . S
C311 C310 1.404 . S
C311 C312 1.395 . S
C311 C322 1.451 . S
C312 C311 1.395 . S
C312 C313 1.322 . S
C312 H376 0.930 . S
C313 C312 1.322 . S
C313 C314 1.459 . S
C313 H377 0.929 . S
C314 C313 1.459 . S
C314 C315 1.445 . S
C314 C323 1.395 . S
C315 C293 1.432 . S
C315 C314 1.445 . S
C315 C316 1.370 . S
C316 C315 1.370 . S
C316 C317 1.438 . S
C316 H378 0.930 . S
C317 C303 1.497 . S
C317 C316 1.438 . S
C317 C318 1.360 . S
C318 C317 1.360 . S
C318 C319 1.401 . S
C318 C323 1.446 . S
C319 C318 1.401 . S
C319 C320 1.347 . S
C319 H379 0.929 . S
C320 C319 1.347 . S
C320 C321 1.455 . S
C320 H380 0.930 . S
C321 C308 1.412 . S
C321 C320 1.455 . S
C321 C322 1.331 . S
C322 C311 1.451 . S
C322 C321 1.331 . S
C322 C323 1.497 . S
C323 C314 1.395 . S
C323 C318 1.446 . S
C323 C322 1.497 . S
C324 C325 1.573 1_554 S
C324 H381 0.974 . S
C324 H382 0.950 1_554 S
C324 H383 0.965 . S
C325 C324 1.573 1_556 S
C325 O328 1.458 . S
C325 H354 0.980 . S
O326 C271 1.426 . S
O326 C272 1.334 . S
O327 C299 1.412 . S
O327 C300 1.393 . S
O328 C290 1.435 . S
O328 C325 1.458 . S
O329 C281 1.468 . S
O329 C282 1.408 . S
H330 C271 0.980 . S
H331 C270 0.959 . S
H332 C270 0.959 . S
H333 C270 0.960 . S
H334 C273 0.929 . S
H335 C277 0.929 . S
H336 C278 0.959 . S
H337 C278 0.961 . S
H338 C278 0.961 . S
H339 C279 0.960 . S
H340 C279 0.960 . S
H341 C279 0.961 . S
H342 C281 0.980 . S
H343 C280 0.961 . S
H344 C280 0.960 . S
H345 C280 0.959 . S
H346 C283 0.930 . S
H347 C287 0.931 . S
H348 C288 0.959 . S
H349 C288 0.961 . S
H350 C288 0.959 . S
H351 C289 0.960 . S
H352 C289 0.960 . S
H353 C289 0.960 . S
H354 C325 0.980 . S
H355 C291 0.930 . S
H356 C295 0.930 . S
H357 C296 0.961 . S
H358 C296 0.960 . S
H359 C296 0.958 . S
H360 C297 0.961 . S
H361 C297 0.960 . S
H362 C297 0.960 . S
H363 C299 0.980 . S
H364 C298 0.961 . S
H365 C298 0.961 1_556 S
H366 C298 0.959 . S
H367 C301 0.932 . S
H368 C305 0.929 . S
H369 C306 0.961 . S
H370 C306 0.959 . S
H371 C306 0.959 . S
H372 C307 0.960 . S
H373 C307 0.962 . S
H374 C307 0.961 . S
H375 C309 0.929 . S
H376 C312 0.930 . S
H377 C313 0.929 . S
H378 C316 0.930 . S
H379 C319 0.929 . S
H380 C320 0.930 . S
H381 C324 0.974 . S
H382 C324 0.950 1_556 S
H383 C324 0.965 . S
C384 C385 1.387 . S
C384 H388 0.950 1_455 S
C384 C393 1.390 . S
C385 C384 1.387 . S
C385 C387 1.387 . S
H386 C393 0.950 1_655 S
C387 C385 1.387 . S
C387 C389 1.390 . S
C387 H391 0.950 . S
H388 C384 0.950 1_655 S
C389 C387 1.390 . S
C389 C390 1.387 . S
C389 H392 0.950 . S
C390 C389 1.387 . S
C390 C393 1.387 . S
H391 C387 0.950 . S
H392 C389 0.950 . S
C393 C384 1.390 . S
C393 H386 0.950 1_455 S
C393 C390 1.387 . S
C394 C395 1.387 . S
C394 H398 0.950 1_545 S
C394 C403 1.390 . S
C395 C394 1.387 . S
C395 C397 1.387 . S
H396 C403 0.950 1_565 S
C397 C395 1.387 . S
C397 C399 1.390 . S
C397 H401 0.950 . S
H398 C394 0.950 1_565 S
C399 C397 1.390 . S
C399 C400 1.387 . S
C399 H402 0.950 . S
C400 C399 1.387 . S
C400 C403 1.387 . S
H401 C397 0.950 . S
H402 C399 0.950 . S
C403 C394 1.390 . S
C403 H396 0.950 1_545 S
C403 C400 1.387 . S
C404 C405 1.387 . S
C404 H408 0.950 . S
C404 C413 1.390 . S
C405 C404 1.387 . S
C405 C407 1.387 . S
H406 C413 0.950 . S
C407 C405 1.387 . S
C407 C409 1.390 . S
C407 H411 0.950 . S
H408 C404 0.950 . S
C409 C407 1.390 . S
C409 C410 1.387 . S
C409 H412 0.950 . S
C410 C409 1.387 . S
C410 C413 1.387 . S
H411 C407 0.950 . S
H412 C409 0.950 . S
C413 C404 1.390 . S
C413 H406 0.950 . S
C413 C410 1.387 . S
C414 C415 1.387 . S
C414 H418 0.950 1_565 S
C414 C423 1.390 . S
C415 C414 1.387 . S
C415 C417 1.387 . S
H416 C423 0.950 . S
C417 C415 1.387 . S
C417 C419 1.390 . S
C417 H421 0.959 . S
H418 C414 0.950 1_545 S
C419 C417 1.390 . S
C419 C420 1.387 . S
C419 H422 0.950 1_455 S
C420 C419 1.387 . S
C420 C423 1.387 . S
H421 C417 0.959 . S
H422 C419 0.950 1_655 S
C423 C414 1.390 . S
C423 H416 0.950 . S
C423 C420 1.387 . S
C424 C425 1.387 . S
C424 H428 0.950 . S
C424 C433 1.390 . S
C425 C424 1.387 . S
C425 C427 1.387 . S
H426 C433 0.950 . S
C427 C425 1.387 . S
C427 C429 1.390 . S
C427 H431 0.950 . S
H428 C424 0.950 . S
C429 C427 1.390 . S
C429 C430 1.387 . S
C429 H432 0.950 . S
C430 C429 1.387 . S
C430 C433 1.387 . S
H431 C427 0.950 . S
H432 C429 0.950 . S
C433 C424 1.390 . S
C433 H426 0.950 . S
C433 C430 1.387 . S
C434 C435 1.387 . S
C434 H438 0.950 . S
C434 C443 1.390 . S
C435 C434 1.387 . S
C435 C437 1.387 . S
H436 C443 0.950 . S
C437 C435 1.387 . S
C437 C439 1.390 . S
C437 H441 0.950 . S
H438 C434 0.950 . S
C439 C437 1.390 . S
C439 C440 1.387 . S
C439 H442 0.950 . S
C440 C439 1.387 . S
C440 C443 1.387 . S
H441 C437 0.950 . S
H442 C439 0.950 . S
C443 C434 1.390 . S
C443 H436 0.950 . S
C443 C440 1.387 . S
C444 C445 1.387 . S
C444 H448 0.950 1_545 S
C444 C453 1.390 . S
C445 C444 1.387 . S
C445 C447 1.387 . S
H446 C453 0.950 1_565 S
C447 C445 1.387 . S
C447 C449 1.390 . S
C447 H451 0.950 . S
H448 C444 0.950 1_565 S
C449 C447 1.390 . S
C449 C450 1.387 . S
C449 H452 0.950 . S
C450 C449 1.387 . S
C450 C453 1.387 . S
H451 C447 0.950 . S
H452 C449 0.950 . S
C453 C444 1.390 . S
C453 H446 0.950 1_545 S
C453 C450 1.387 . S
C454 C455 1.387 . S
C454 H458 0.950 . S
C454 C463 1.390 . S
C455 C454 1.387 . S
C455 C457 1.387 . S
H456 C463 0.950 . S
C457 C455 1.387 . S
C457 C459 1.390 . S
C457 H461 0.950 . S
H458 C454 0.950 . S
C459 C457 1.390 . S
C459 C460 1.387 . S
C459 H462 0.950 1_554 S
C460 C459 1.387 . S
C460 C463 1.387 . S
H461 C457 0.950 . S
H462 C459 0.950 1_556 S
C463 C454 1.390 . S
C463 H456 0.950 . S
C463 C460 1.387 . S
C464 C465 1.387 . S
C464 H468 0.950 1_565 S
C464 C473 1.390 . S
C465 C464 1.387 . S
C465 C467 1.387 1_455 S
H466 C473 0.950 . S
C467 C465 1.387 1_655 S
C467 C469 1.390 . S
C467 H471 0.950 . S
H468 C464 0.950 1_545 S
C469 C467 1.390 . S
C469 C470 1.387 1_655 S
C469 H472 0.950 . S
C470 C469 1.387 1_455 S
C470 C473 1.387 . S
H471 C467 0.950 . S
H472 C469 0.950 . S
C473 C464 1.390 . S
C473 H466 0.950 . S
C473 C470 1.387 . S
C474 C475 1.387 . S
C474 H478 0.950 . S
C474 C483 1.390 . S
C475 C474 1.387 . S
C475 C477 1.387 1_545 S
H476 C483 0.950 . S
C477 C475 1.387 1_565 S
C477 C479 1.390 . S
C477 H481 0.950 . S
H478 C474 0.950 . S
C479 C477 1.390 . S
C479 C480 1.387 1_565 S
C479 H482 0.950 . S
C480 C479 1.387 1_545 S
C480 C483 1.387 . S
H481 C477 0.950 . S
H482 C479 0.950 . S
C483 C474 1.390 . S
C483 H476 0.950 . S
C483 C480 1.387 . S
C484 C485 1.387 . S
C484 H488 0.950 . S
C484 C493 1.390 1_554 S
C485 C484 1.387 . S
C485 C487 1.387 . S
H486 C493 0.950 . S
C487 C485 1.387 . S
C487 C489 1.390 . S
C487 H491 0.950 . S
H488 C484 0.950 . S
C489 C487 1.390 . S
C489 C490 1.387 . S
C489 H492 0.950 . S
C490 C489 1.387 . S
C490 C493 1.387 1_554 S
H491 C487 0.950 . S
H492 C489 0.950 . S
C493 C484 1.390 1_556 S
C493 H486 0.950 . S
C493 C490 1.387 1_556 S
C494 C495 1.387 . S
C494 H498 0.950 . S
C494 C503 1.390 . S
C495 C494 1.387 . S
C495 C497 1.387 . S
H496 C503 0.950 . S
C497 C495 1.387 . S
C497 C499 1.390 . S
C497 H501 0.950 . S
H498 C494 0.950 . S
C499 C497 1.390 . S
C499 C500 1.387 . S
C499 H502 0.950 . S
C500 C499 1.387 . S
C500 C503 1.387 . S
H501 C497 0.950 . S
H502 C499 0.950 . S
C503 C494 1.390 . S
C503 H496 0.950 . S
C503 C500 1.387 . S
C390 C97 1.063 . S
C385 C11 1.397 . S
C395 C25 1.465 . S
C400 C211 1.118 . S
C405 C41 1.262 . S
C410 C271 1.101 . S
C415 C7 1.332 . S
C420 C71 1.083 . S
C430 C185 1.119 . S
C425 C21 1.396 . S
C435 C36 1.385 . S
C440 C281 0.791 . S
C450 C167 0.820 . S
C445 C39 1.372 . S
C455 C8 1.380 . S
C460 C299 1.200 1_554 S
C470 C43 1.114 1_455 S
C465 C22 1.341 1_565 S
C480 C157 1.033 . S
C475 C35 1.310 . S
C490 C325 1.064 1_554 S
C485 C13 1.429 . S
C495 C27 1.410 . S
C500 C53 0.859 . S
