# Generated by pormake.
# Topology apo, (3,6)-cn, num edge types: 1
# Building blocks:
#     Node 0, Type 0, BuildingBlock: BETDIP_clean_linker_0, # of connection points: 3
#     Node 1, Type 0, BuildingBlock: BETDIP_clean_linker_0, # of connection points: 3
#     Node 2, Type 0, BuildingBlock: BETDIP_clean_linker_0, # of connection points: 3
#     Node 3, Type 0, BuildingBlock: BETDIP_clean_linker_0, # of connection points: 3
#     Node 4, Type 0, BuildingBlock: BETDIP_clean_linker_0, # of connection points: 3
#     Node 5, Type 0, BuildingBlock: BETDIP_clean_linker_0, # of connection points: 3
#     Node 6, Type 0, BuildingBlock: BETDIP_clean_linker_0, # of connection points: 3
#     Node 7, Type 0, BuildingBlock: BETDIP_clean_linker_0, # of connection points: 3
#     Node 8, Type 1, BuildingBlock: KUMBUR_clean_sbu_1, # of connection points: 6
#     Node 9, Type 1, BuildingBlock: KUMBUR_clean_sbu_1, # of connection points: 6
#     Node 10, Type 1, BuildingBlock: KUMBUR_clean_sbu_1, # of connection points: 6
#     Node 11, Type 1, BuildingBlock: KUMBUR_clean_sbu_1, # of connection points: 6
#     Edge 12, Type (0, 1), BuildingBlock: EZIPEK_clean_linker_0, # of connection points: 2
#     Edge 13, Type (0, 1), BuildingBlock: EZIPEK_clean_linker_0, # of connection points: 2
#     Edge 14, Type (0, 1), BuildingBlock: EZIPEK_clean_linker_0, # of connection points: 2
#     Edge 15, Type (0, 1), BuildingBlock: EZIPEK_clean_linker_0, # of connection points: 2
#     Edge 16, Type (0, 1), BuildingBlock: EZIPEK_clean_linker_0, # of connection points: 2
#     Edge 17, Type (0, 1), BuildingBlock: EZIPEK_clean_linker_0, # of connection points: 2
#     Edge 18, Type (0, 1), BuildingBlock: EZIPEK_clean_linker_0, # of connection points: 2
#     Edge 19, Type (0, 1), BuildingBlock: EZIPEK_clean_linker_0, # of connection points: 2
#     Edge 20, Type (0, 1), BuildingBlock: EZIPEK_clean_linker_0, # of connection points: 2
#     Edge 21, Type (0, 1), BuildingBlock: EZIPEK_clean_linker_0, # of connection points: 2
#     Edge 22, Type (0, 1), BuildingBlock: EZIPEK_clean_linker_0, # of connection points: 2
#     Edge 23, Type (0, 1), BuildingBlock: EZIPEK_clean_linker_0, # of connection points: 2
#     Edge 24, Type (0, 1), BuildingBlock: EZIPEK_clean_linker_0, # of connection points: 2
#     Edge 25, Type (0, 1), BuildingBlock: EZIPEK_clean_linker_0, # of connection points: 2
#     Edge 26, Type (0, 1), BuildingBlock: EZIPEK_clean_linker_0, # of connection points: 2
#     Edge 27, Type (0, 1), BuildingBlock: EZIPEK_clean_linker_0, # of connection points: 2
#     Edge 28, Type (0, 1), BuildingBlock: EZIPEK_clean_linker_0, # of connection points: 2
#     Edge 29, Type (0, 1), BuildingBlock: EZIPEK_clean_linker_0, # of connection points: 2
#     Edge 30, Type (0, 1), BuildingBlock: EZIPEK_clean_linker_0, # of connection points: 2
#     Edge 31, Type (0, 1), BuildingBlock: EZIPEK_clean_linker_0, # of connection points: 2
#     Edge 32, Type (0, 1), BuildingBlock: EZIPEK_clean_linker_0, # of connection points: 2
#     Edge 33, Type (0, 1), BuildingBlock: EZIPEK_clean_linker_0, # of connection points: 2
#     Edge 34, Type (0, 1), BuildingBlock: EZIPEK_clean_linker_0, # of connection points: 2
#     Edge 35, Type (0, 1), BuildingBlock: EZIPEK_clean_linker_0, # of connection points: 2
# Relax obj value: 0.037
# Max RMSD: 0.218
# Mean RMSD: 0.168
data_MOF--net-apo--node1-KUMBUR_clean_sbu_1--node2-BETDIP_clean_linker_0--edge1-EZIPEK_clean_linker_0
_symmetry_space_group_name_H-M    P1
_symmetry_Int_Tables_number       1
_symmetry_cell_setting            triclinic
loop_
_symmetry_equiv_pos_as_xyz
'x, y, z'
_cell_length_a     20.56897
_cell_length_b     30.023168
_cell_length_c     39.262674
_cell_angle_alpha  89.95006
_cell_angle_beta   90.755963
_cell_angle_gamma 90.58122
loop_
_atom_site_label
_atom_site_type_symbol
_atom_site_fract_x
_atom_site_fract_y
_atom_site_fract_z
_atom_type_partial_charge
H0 H 0.26595 0.35523 0.46424 0.0
H1 H 0.29005 0.39391 0.3595 0.0
H2 H 0.37483 0.47394 0.43958 0.0
H3 H 0.18375 0.36044 0.35719 0.0
C4 C 0.19601 0.3301 0.37084 0.0
C5 C 0.28526 0.3781 0.44545 0.0
C6 C 0.3214 0.41568 0.45607 0.0
C7 C 0.27214 0.37056 0.41079 0.0
C8 C 0.29782 0.40006 0.38644 0.0
C9 C 0.33536 0.43709 0.39676 0.0
C10 C 0.34638 0.4451 0.43157 0.0
N11 N 0.23442 0.33255 0.40115 0.0
H12 H 0.24408 0.1785 0.95667 0.0
H13 H 0.22748 0.13151 0.8532 0.0
H14 H 0.12397 0.06441 0.93295 0.0
H15 H 0.30813 0.17828 0.84293 0.0
C16 C 0.31183 0.20328 0.8628 0.0
C17 C 0.22458 0.155 0.93813 0.0
C18 C 0.18223 0.12105 0.94868 0.0
C19 C 0.24219 0.15917 0.90401 0.0
C20 C 0.21607 0.12874 0.87991 0.0
C21 C 0.17347 0.09442 0.89032 0.0
C22 C 0.15692 0.09062 0.9248 0.0
N23 N 0.28493 0.19496 0.89535 0.0
H24 H 0.70321 0.16466 0.57358 0.0
H25 H 0.72426 0.12318 0.67776 0.0
H26 H 0.79666 0.04046 0.59745 0.0
H27 H 0.60935 0.15999 0.67205 0.0
C28 C 0.63322 0.19038 0.66355 0.0
C29 C 0.71938 0.14023 0.59211 0.0
C30 C 0.74893 0.10084 0.58115 0.0
C31 C 0.70812 0.14762 0.62665 0.0
C32 C 0.73015 0.11655 0.65085 0.0
C33 C 0.7645 0.07866 0.64058 0.0
C34 C 0.77178 0.07019 0.6056 0.0
N35 N 0.67866 0.18799 0.63673 0.0
H36 H 0.77503 0.33456 0.08846 0.0
H37 H 0.76517 0.40555 0.18337 0.0
H38 H 0.65377 0.45018 0.09723 0.0
H39 H 0.84023 0.36275 0.20158 0.0
C40 C 0.84247 0.3331 0.18598 0.0
C41 C 0.75687 0.36203 0.10337 0.0
C42 C 0.71289 0.39218 0.08847 0.0
C43 C 0.77697 0.36646 0.13743 0.0
C44 C 0.75221 0.40166 0.15681 0.0
C45 C 0.70748 0.43166 0.14264 0.0
C46 C 0.6885 0.42722 0.10826 0.0
N47 N 0.81892 0.33359 0.15169 0.0
H48 H 0.72493 0.67935 0.57699 0.0
H49 H 0.67548 0.64781 0.67997 0.0
H50 H 0.64632 0.5501 0.6004 0.0
H51 H 0.80348 0.66935 0.67756 0.0
C52 C 0.7909 0.70211 0.66783 0.0
C53 C 0.70635 0.65576 0.59546 0.0
C54 C 0.68156 0.6143 0.58464 0.0
C55 C 0.70849 0.66626 0.63023 0.0
C56 C 0.67926 0.63719 0.65372 0.0
C57 C 0.6568 0.59455 0.6437 0.0
C58 C 0.66172 0.58288 0.60899 0.0
N59 N 0.74247 0.70504 0.64166 0.0
H60 H 0.78717 0.82883 0.09465 0.0
H61 H 0.81485 0.87989 0.19629 0.0
H62 H 0.91483 0.94103 0.11235 0.0
H63 H 0.6973 0.85931 0.19253 0.0
C64 C 0.70357 0.82558 0.18326 0.0
C65 C 0.81071 0.85211 0.11207 0.0
C66 C 0.85253 0.88522 0.09939 0.0
C67 C 0.79609 0.85032 0.14679 0.0
C68 C 0.82561 0.88109 0.16936 0.0
C69 C 0.86955 0.91336 0.15713 0.0
C70 C 0.88268 0.91531 0.12208 0.0
N71 N 0.7514 0.81735 0.15828 0.0
H72 H 0.29556 0.83948 0.45435 0.0
H73 H 0.23609 0.88955 0.35622 0.0
H74 H 0.18506 0.96 0.4474 0.0
H75 H 0.23623 0.81011 0.34664 0.0
C76 C 0.28273 0.80213 0.35841 0.0
C77 C 0.2708 0.86438 0.4391 0.0
C78 C 0.23879 0.8995 0.45513 0.0
C79 C 0.26917 0.86017 0.40361 0.0
C80 C 0.23654 0.8921 0.38374 0.0
C81 C 0.20788 0.92904 0.39933 0.0
C82 C 0.20846 0.9322 0.43511 0.0
N83 N 0.30314 0.82449 0.38862 0.0
H84 H 0.26128 0.70185 0.94142 0.0
H85 H 0.29483 0.64242 0.84423 0.0
H86 H 0.34477 0.57182 0.93681 0.0
H87 H 0.1873 0.6705 0.83464 0.0
C88 C 0.1906 0.70291 0.84685 0.0
C89 C 0.27741 0.67372 0.92657 0.0
C90 C 0.30754 0.63771 0.94285 0.0
C91 C 0.26801 0.67367 0.89121 0.0
C92 C 0.29529 0.63939 0.87169 0.0
C93 C 0.32344 0.60174 0.8875 0.0
C94 C 0.32527 0.60048 0.92355 0.0
N95 N 0.23193 0.70881 0.87593 0.0
Tb96 Tb 0.09416 0.12045 0.24451 0.0
C97 C 0.81293 0.0687 0.26959 0.0
N98 N 0.83919 0.10937 0.27707 0.0
C99 C 0.74786 0.14505 0.25051 0.0
C100 C 0.75421 0.06468 0.25093 0.0
C101 C 0.80647 0.14736 0.26894 0.0
C102 C 0.7221 0.10358 0.24101 0.0
C103 C 0.81847 0.98819 0.27464 0.0
C104 C 0.84463 0.03087 0.28135 0.0
C105 C 0.76105 0.98398 0.25509 0.0
C106 C 0.729 0.02212 0.24328 0.0
Tb107 Tb 0.93547 0.10814 0.30653 0.0
N108 N 0.90104 0.03615 0.29951 0.0
C109 C 0.85044 0.9511 0.28815 0.0
C110 C 0.93118 1.00027 0.3137 0.0
C111 C 0.90642 0.95724 0.30821 0.0
H112 H 0.82537 0.17957 0.27658 0.0
H113 H 0.93096 0.9288 0.31917 0.0
H114 H 0.19163 0.03346 0.24292 0.0
H115 H 0.14848 0.29591 0.23497 0.0
H116 H 0.97441 1.00449 0.32908 0.0
H117 H 0.83186 0.91769 0.28363 0.0
H118 H 0.08136 0.22726 0.22785 0.0
H119 H 0.72263 0.17528 0.24362 0.0
H120 H 0.74056 0.95141 0.24934 0.0
H121 H 0.68423 0.01835 0.22867 0.0
H122 H 0.30935 0.01897 0.25032 0.0
H123 H 0.67677 0.10195 0.22668 0.0
H124 H 0.26341 0.28994 0.25408 0.0
N125 N 0.20198 0.10346 0.24988 0.0
C126 C 0.24339 0.13809 0.25564 0.0
C127 C 0.29142 0.05266 0.2519 0.0
C128 C 0.3106 0.13151 0.26038 0.0
C129 C 0.22493 0.06095 0.24768 0.0
C130 C 0.33438 0.08804 0.25868 0.0
N131 N 0.15429 0.18474 0.24735 0.0
C132 C 0.13013 0.22516 0.23795 0.0
C133 C 0.25983 0.21794 0.25755 0.0
C134 C 0.21851 0.18044 0.25454 0.0
C135 C 0.2334 0.26018 0.25198 0.0
C136 C 0.16853 0.26371 0.24126 0.0
H137 H 0.38577 0.08154 0.26205 0.0
H138 H 0.40359 0.16429 0.26963 0.0
H139 H 0.35904 0.24018 0.26701 0.0
O140 O 0.05667 0.13719 0.19585 0.0
O141 O 0.09615 0.16694 0.28763 0.0
O142 O 0.00886 0.15646 0.32502 0.0
O143 O 0.13883 0.09456 0.20106 0.0
O144 O 0.99916 0.15235 0.23472 0.0
O145 O 0.94451 0.17355 0.28263 0.0
O146 O 0.92201 0.08652 0.3566 0.0
O147 O 0.94415 0.08058 0.25451 0.0
O148 O 0.04743 0.05569 0.24907 0.0
O149 O 0.86153 0.13771 0.33581 0.0
O150 O 0.0256 0.07945 0.32588 0.0
O151 O 0.10491 0.06907 0.28486 0.0
C152 C 0.06388 0.17583 0.31571 0.0
C153 C 0.13498 0.13908 0.15208 0.0
C154 C 0.16036 0.14553 0.09181 0.0
C155 C 0.2049 0.17987 0.09945 0.0
C156 C 0.1805 0.17306 0.15923 0.0
C157 C 0.21475 0.1936 0.13303 0.0
C158 C 0.12477 0.12544 0.11816 0.0
C159 C 0.96763 0.18249 0.25227 0.0
C160 C 0.10149 0.11557 0.17984 0.0
C161 C 0.35183 0.1686 0.26557 0.0
C162 C 0.32646 0.21181 0.26417 0.0
C163 C 0.98505 0.05022 0.24409 0.0
C164 C 0.8188 0.09206 0.38022 0.0
C165 C 0.76874 0.07411 0.43471 0.0
C166 C 0.72835 0.04273 0.41805 0.0
C167 C 0.77674 0.06158 0.36395 0.0
C168 C 0.81358 0.09898 0.41547 0.0
C169 C 0.73169 0.03711 0.38281 0.0
C170 C 0.08304 0.06534 0.3165 0.0
C171 C 0.87362 0.11274 0.36217 0.0
H172 H 0.23256 0.19566 0.0794 0.0
H173 H 0.19072 0.18324 0.185 0.0
H174 H 0.24975 0.21976 0.13885 0.0
H175 H 0.09067 0.09866 0.11232 0.0
H176 H 0.69387 0.0229 0.43234 0.0
H177 H 0.77948 0.05596 0.33694 0.0
H178 H 0.84597 0.12256 0.42818 0.0
H179 H 0.69997 0.01319 0.37013 0.0
Tb180 Tb 0.43568 0.38973 0.74358 0.0
C181 C 0.71546 0.46773 0.78967 0.0
N182 N 0.68734 0.42825 0.78057 0.0
C183 C 0.7766 0.41377 0.74331 0.0
C184 C 0.77434 0.48235 0.77509 0.0
C185 C 0.71878 0.40044 0.7588 0.0
C186 C 0.80418 0.45513 0.75119 0.0
C187 C 0.71435 0.53383 0.82505 0.0
C188 C 0.6859 0.49308 0.81432 0.0
C189 C 0.77227 0.54887 0.81017 0.0
C190 C 0.80227 0.52314 0.7853 0.0
Tb191 Tb 0.59281 0.40983 0.80806 0.0
N192 N 0.62984 0.47754 0.82816 0.0
C193 C 0.68398 0.55814 0.85056 0.0
C194 C 0.60236 0.50014 0.85445 0.0
C195 C 0.62807 0.54096 0.86556 0.0
H196 H 0.70036 0.36778 0.75327 0.0
H197 H 0.60553 0.55867 0.88622 0.0
H198 H 0.31113 0.44692 0.77747 0.0
H199 H 0.45553 0.21558 0.71241 0.0
H200 H 0.56251 0.48583 0.86802 0.0
H201 H 0.70417 0.5896 0.85941 0.0
H202 H 0.4842 0.29538 0.70947 0.0
H203 H 0.80035 0.39178 0.72564 0.0
H204 H 0.79455 0.58017 0.81795 0.0
H205 H 0.8473 0.53493 0.77428 0.0
H206 H 0.21094 0.42976 0.80783 0.0
H207 H 0.84932 0.46519 0.73937 0.0
H208 H 0.35939 0.19115 0.7451 0.0
N209 N 0.33918 0.37901 0.7719 0.0
C210 C 0.31844 0.33592 0.77431 0.0
C211 C 0.24124 0.40296 0.79903 0.0
C212 C 0.25935 0.32463 0.7902 0.0
C213 C 0.29958 0.41254 0.78255 0.0
C214 C 0.22138 0.3588 0.80325 0.0
N215 N 0.41071 0.31537 0.74348 0.0
C216 C 0.44457 0.28488 0.72521 0.0
C217 C 0.33524 0.25802 0.76085 0.0
C218 C 0.35533 0.30303 0.75957 0.0
C219 C 0.373 0.2261 0.74458 0.0
C220 C 0.42742 0.23972 0.72624 0.0
H221 H 0.17584 0.35151 0.81576 0.0
H222 H 0.19468 0.27047 0.80452 0.0
H223 H 0.2615 0.21208 0.77904 0.0
O224 O 0.43638 0.38077 0.69018 0.0
O225 O 0.46987 0.34233 0.78124 0.0
O226 O 0.50199 0.38113 0.82841 0.0
O227 O 0.35326 0.40737 0.71463 0.0
O228 O 0.53306 0.37178 0.7256 0.0
O229 O 0.59031 0.35188 0.77412 0.0
O230 O 0.64422 0.41204 0.85496 0.0
O231 O 0.5947 0.44203 0.75737 0.0
O232 O 0.48715 0.4543 0.74034 0.0
O233 O 0.63385 0.35105 0.82735 0.0
O234 O 0.5066 0.44804 0.82135 0.0
O235 O 0.42479 0.44599 0.77916 0.0
C236 C 0.46738 0.34899 0.814 0.0
C237 C 0.37475 0.43378 0.6594 0.0
C238 C 0.36039 0.45493 0.59975 0.0
C239 C 0.35947 0.4999 0.60937 0.0
C240 C 0.37421 0.47904 0.66854 0.0
C241 C 0.36641 0.51182 0.64362 0.0
C242 C 0.36815 0.42188 0.62486 0.0
C243 C 0.57898 0.34847 0.74115 0.0
C244 C 0.37991 0.39882 0.68567 0.0
C245 C 0.23955 0.27976 0.79209 0.0
C246 C 0.27759 0.2465 0.7776 0.0
C247 C 0.55013 0.46339 0.73921 0.0
C248 C 0.63619 0.34618 0.88797 0.0
C249 C 0.63962 0.34273 0.95036 0.0
C250 C 0.61153 0.29994 0.94888 0.0
C251 C 0.60847 0.30317 0.88732 0.0
C252 C 0.65108 0.36601 0.91977 0.0
C253 C 0.59571 0.2805 0.91757 0.0
C254 C 0.45051 0.46124 0.80811 0.0
C255 C 0.65288 0.3694 0.85581 0.0
H256 H 0.35325 0.52572 0.59035 0.0
H257 H 0.37961 0.48903 0.69494 0.0
H258 H 0.36592 0.54659 0.65085 0.0
H259 H 0.36805 0.38706 0.61756 0.0
H260 H 0.60228 0.28144 0.97205 0.0
H261 H 0.5974 0.28666 0.86347 0.0
H262 H 0.67304 0.39897 0.9208 0.0
H263 H 0.57431 0.24742 0.9167 0.0
Tb264 Tb 0.05208 0.9218 0.72651 0.0
C265 C 0.76348 0.91093 0.77963 0.0
N266 N 0.81012 0.94221 0.78571 0.0
C267 C 0.73382 0.99981 0.77212 0.0
C268 C 0.70076 0.92256 0.76812 0.0
C269 C 0.79488 0.98639 0.78424 0.0
C270 C 0.68693 0.96769 0.7633 0.0
C271 C 0.72869 0.83429 0.78625 0.0
C272 C 0.77718 0.86763 0.78819 0.0
C273 C 0.66718 0.84486 0.77268 0.0
C274 C 0.65329 0.889 0.76348 0.0
Tb275 Tb 0.91078 0.91643 0.8017 0.0
N276 N 0.83695 0.85912 0.80136 0.0
C277 C 0.74261 0.79217 0.79967 0.0
C278 C 0.84919 0.81932 0.81695 0.0
C279 C 0.80254 0.78504 0.81591 0.0
H280 H 0.83016 0.01134 0.79204 0.0
H281 H 0.81296 0.75312 0.82748 0.0
H282 H 0.18847 0.88762 0.76299 0.0
H283 H 0.99681 0.07861 0.66423 0.0
H284 H 0.89551 0.81388 0.82953 0.0
H285 H 0.70662 0.76558 0.79886 0.0
H286 H 0.98336 0.99867 0.67544 0.0
H287 H 0.72283 0.03487 0.76987 0.0
H288 H 0.62937 0.81961 0.77045 0.0
H289 H 0.60497 0.89711 0.75425 0.0
H290 H 0.28925 0.92173 0.78677 0.0
H291 H 0.63942 0.97812 0.75433 0.0
H292 H 0.08499 0.12142 0.6929 0.0
N293 N 0.14888 0.94948 0.74687 0.0
C294 C 0.15882 0.99393 0.74329 0.0
C295 C 0.25283 0.94245 0.77473 0.0
C296 C 0.21541 0.01483 0.75643 0.0
C297 C 0.19591 0.92323 0.76118 0.0
C298 C 0.26225 0.98854 0.77276 0.0
N299 N 0.05921 0.99623 0.71304 0.0
C300 C 0.02014 0.017 0.68958 0.0
C301 C 0.12262 0.06396 0.7197 0.0
C302 C 0.1124 0.01812 0.72579 0.0
C303 C 0.07866 0.08631 0.69848 0.0
C304 C 0.02845 0.06236 0.68251 0.0
H305 H 0.30634 1.00335 0.78331 0.0
H306 H 0.26659 0.07784 0.76259 0.0
H307 H 0.18571 0.12085 0.72993 0.0
O308 O 0.07831 0.92939 0.67508 0.0
O309 O 0.07344 0.93996 0.77984 0.0
O310 O 0.97987 0.9721 0.79742 0.0
O311 O 0.10896 0.87244 0.70345 0.0
O312 O 0.95153 0.94212 0.71477 0.0
O313 O 0.92407 0.97136 0.76586 0.0
O314 O 0.94484 0.90573 0.85214 0.0
O315 O 0.90311 0.86373 0.76272 0.0
O316 O 0.97421 0.87308 0.71674 0.0
O317 O 0.86055 0.94479 0.84241 0.0
O318 O 0.98846 0.86633 0.80648 0.0
O319 O 0.06595 0.86735 0.76259 0.0
C320 C 0.04326 0.9681 0.79944 0.0
C321 C 0.17473 0.89535 0.6569 0.0
C322 C 0.23308 0.89858 0.60311 0.0
C323 C 0.29214 0.89452 0.62111 0.0
C324 C 0.23425 0.89104 0.67446 0.0
C325 C 0.2926 0.89104 0.65661 0.0
C326 C 0.17457 0.89956 0.62121 0.0
C327 C 0.91334 0.96717 0.73307 0.0
C328 C 0.11185 0.89319 0.67451 0.0
C329 C 0.22379 0.061 0.75236 0.0
C330 C 0.1776 0.08551 0.73388 0.0
C331 C 0.92557 0.85299 0.73239 0.0
C332 C 0.86037 0.90252 0.89289 0.0
C333 C 0.84398 0.88545 0.95309 0.0
C334 C 0.7875 0.86127 0.94437 0.0
C335 C 0.80237 0.87929 0.88505 0.0
C336 C 0.88116 0.90554 0.9272 0.0
C337 C 0.76696 0.85819 0.91052 0.0
C338 C 0.04078 0.85109 0.79091 0.0
C339 C 0.89624 0.92617 0.86573 0.0
H340 H 0.33771 0.89356 0.60763 0.0
H341 H 0.23581 0.88695 0.70177 0.0
H342 H 0.33829 0.88761 0.67031 0.0
H343 H 0.12881 0.90234 0.60737 0.0
H344 H 0.75842 0.84569 0.96397 0.0
H345 H 0.78325 0.87829 0.85937 0.0
H346 H 0.92455 0.92455 0.93387 0.0
H347 H 0.72253 0.84029 0.90407 0.0
Tb348 Tb 0.44965 0.60069 0.23188 0.0
C349 C 0.70697 0.68355 0.29763 0.0
N350 N 0.68803 0.64325 0.2851 0.0
C351 C 0.78546 0.63963 0.25228 0.0
C352 C 0.76492 0.70436 0.28687 0.0
C353 C 0.72814 0.62001 0.2642 0.0
C354 C 0.80343 0.68231 0.26323 0.0
C355 C 0.68987 0.74322 0.33797 0.0
C356 C 0.66984 0.70277 0.32271 0.0
C357 C 0.74644 0.76487 0.32658 0.0
C358 C 0.78367 0.74561 0.30094 0.0
Tb359 Tb 0.59188 0.6157 0.30519 0.0
N360 N 0.6159 0.6806 0.33337 0.0
C361 C 0.65324 0.76015 0.36471 0.0
C362 C 0.58251 0.69554 0.36094 0.0
C363 C 0.59981 0.73589 0.37653 0.0
H364 H 0.71574 0.58663 0.25626 0.0
H365 H 0.57247 0.74793 0.39795 0.0
H366 H 0.32268 0.66518 0.25242 0.0
H367 H 0.46193 0.42363 0.21048 0.0
H368 H 0.54294 0.67608 0.37123 0.0
H369 H 0.66689 0.7912 0.37704 0.0
H370 H 0.49762 0.5022 0.205 0.0
H371 H 0.81607 0.62163 0.23493 0.0
H372 H 0.76228 0.7962 0.33775 0.0
H373 H 0.82776 0.76232 0.2928 0.0
H374 H 0.21546 0.65426 0.27823 0.0
H375 H 0.84822 0.69723 0.25424 0.0
H376 H 0.35953 0.4054 0.2402 0.0
N377 N 0.34618 0.596 0.25303 0.0
C378 C 0.32271 0.55394 0.25764 0.0
C379 C 0.24551 0.62575 0.27299 0.0
C380 C 0.26089 0.54613 0.27169 0.0
C381 C 0.30707 0.63179 0.25887 0.0
C382 C 0.22274 0.58278 0.27997 0.0
N383 N 0.41887 0.52749 0.23331 0.0
C384 C 0.45373 0.49437 0.21854 0.0
C385 C 0.33721 0.47437 0.25063 0.0
C386 C 0.36 0.5185 0.24714 0.0
C387 C 0.37527 0.43982 0.23801 0.0
C388 C 0.43321 0.44995 0.22131 0.0
H389 H 0.17502 0.57822 0.29088 0.0
H390 H 0.19196 0.49547 0.28779 0.0
H391 H 0.25892 0.43258 0.2694 0.0
O392 O 0.46849 0.59402 0.17944 0.0
O393 O 0.47482 0.55272 0.27189 0.0
O394 O 0.49681 0.59053 0.32062 0.0
O395 O 0.37542 0.61497 0.19619 0.0
O396 O 0.54829 0.58151 0.21808 0.0
O397 O 0.60331 0.56151 0.26794 0.0
O398 O 0.64875 0.61185 0.35015 0.0
O399 O 0.60213 0.64653 0.25475 0.0
O400 O 0.50097 0.66522 0.23307 0.0
O401 O 0.61585 0.55253 0.32475 0.0
O402 O 0.50259 0.6537 0.31453 0.0
O403 O 0.43519 0.65815 0.26583 0.0
C404 C 0.46421 0.55933 0.30432 0.0
C405 C 0.40973 0.6422 0.14317 0.0
C406 C 0.38591 0.66365 0.08428 0.0
C407 C 0.40398 0.70771 0.09223 0.0
C408 C 0.42735 0.68644 0.15061 0.0
C409 C 0.42467 0.71894 0.12518 0.0
C410 C 0.38913 0.63085 0.10991 0.0
C411 C 0.59204 0.5579 0.23481 0.0
C412 C 0.41148 0.6079 0.16998 0.0
C413 C 0.23888 0.50213 0.27654 0.0
C414 C 0.27699 0.46631 0.26605 0.0
C415 C 0.56262 0.67482 0.23975 0.0
C416 C 0.62187 0.55072 0.38557 0.0
C417 C 0.62167 0.55408 0.44792 0.0
C418 C 0.58033 0.51665 0.44857 0.0
C419 C 0.58158 0.51264 0.38702 0.0
C420 C 0.64247 0.57105 0.41638 0.0
C421 C 0.56062 0.49602 0.41828 0.0
C422 C 0.45211 0.66989 0.29737 0.0
C423 C 0.64305 0.56891 0.35224 0.0
H424 H 0.40228 0.73335 0.07281 0.0
H425 H 0.44298 0.69585 0.17606 0.0
H426 H 0.43859 0.75297 0.13105 0.0
H427 H 0.37559 0.59672 0.10395 0.0
H428 H 0.56359 0.50332 0.4726 0.0
H429 H 0.56634 0.49557 0.36402 0.0
H430 H 0.67416 0.6001 0.41592 0.0
H431 H 0.52909 0.46695 0.41902 0.0
C432 C 0.21669 0.99247 0.35694 0.0
C433 C 0.17791 0.96524 0.37852 0.0
C434 C 0.08697 0.0155 0.36941 0.0
C435 C 0.11975 0.03655 0.34197 0.0
N436 N 0.22555 0.06042 0.32414 0.0
N437 N 0.07148 0.94695 0.40017 0.0
C438 C 0.18758 0.02893 0.33923 0.0
C439 C 0.11159 0.97546 0.38305 0.0
N440 N 0.28131 0.98364 0.35329 0.0
N441 N 0.0385 0.03667 0.38611 0.0
H442 H 0.08697 0.91641 0.40983 0.0
H443 H 0.02143 0.95189 0.40148 0.0
H444 H 0.03149 0.07082 0.38362 0.0
H445 H 0.01538 0.02297 0.40722 0.0
H446 H 0.30967 0.99734 0.3341 0.0
H447 H 0.30645 0.96115 0.36866 0.0
H448 H 0.2761 0.06092 0.32539 0.0
H449 H 0.20623 0.08938 0.314 0.0
C450 C 0.40939 0.54194 0.87903 0.0
C451 C 0.35374 0.56492 0.86673 0.0
C452 C 0.3673 0.52485 0.8128 0.0
C453 C 0.4138 0.49571 0.8281 0.0
N454 N 0.4504 0.46804 0.88356 0.0
N455 N 0.26646 0.56176 0.8244 0.0
C456 C 0.42604 0.50129 0.86364 0.0
C457 C 0.32827 0.55152 0.83431 0.0
N458 N 0.44943 0.5594 0.90363 0.0
N459 N 0.36183 0.52964 0.77835 0.0
H460 H 0.23337 0.57617 0.84088 0.0
H461 H 0.24621 0.5502 0.8015 0.0
H462 H 0.39449 0.51599 0.76136 0.0
H463 H 0.32991 0.55241 0.76726 0.0
H464 H 0.49132 0.543 0.91186 0.0
H465 H 0.44582 0.59221 0.91195 0.0
H466 H 0.45608 0.47184 0.90988 0.0
H467 H 0.45899 0.43606 0.87471 0.0
C468 C 0.6507 0.55874 0.70305 0.0
C469 C 0.62669 0.5626 0.66895 0.0
C470 C 0.55626 0.49806 0.68 0.0
C471 C 0.57303 0.49893 0.71514 0.0
N472 N 0.61549 0.54506 0.76042 0.0
N473 N 0.53539 0.54481 0.63133 0.0
C474 C 0.61411 0.53378 0.72691 0.0
C475 C 0.57279 0.53504 0.65924 0.0
N476 N 0.7097 0.57601 0.7126 0.0
N477 N 0.52807 0.46135 0.66575 0.0
H478 H 0.53978 0.57482 0.61812 0.0
H479 H 0.49507 0.52559 0.62415 0.0
H480 H 0.5218 0.43225 0.67956 0.0
H481 H 0.51948 0.45843 0.63961 0.0
H482 H 0.72834 0.57227 0.73724 0.0
H483 H 0.74295 0.58858 0.69516 0.0
H484 H 0.64135 0.57285 0.76936 0.0
H485 H 0.5841 0.53011 0.77779 0.0
C486 C 0.95012 0.93564 0.20359 0.0
C487 C 0.8992 0.94723 0.18051 0.0
C488 C 0.91752 0.02574 0.19369 0.0
C489 C 0.96101 0.01435 0.22052 0.0
N490 N 0.01654 0.95704 0.25257 0.0
N491 N 0.82513 1.00286 0.15929 0.0
C492 C 0.97713 0.96885 0.22585 0.0
C493 C 0.87989 0.99214 0.17744 0.0
N494 N 0.97392 0.89331 0.20354 0.0
N495 N 0.9162 0.06828 0.18164 0.0
H496 H 0.79536 0.97899 0.14748 0.0
H497 H 0.80596 0.03489 0.1591 0.0
H498 H 0.9499 0.09213 0.18987 0.0
H499 H 0.88885 0.07779 0.16036 0.0
H500 H 0.01558 0.88398 0.21698 0.0
H501 H 0.95492 0.86818 0.1879 0.0
H502 H 0.02386 0.92416 0.26001 0.0
H503 H 0.03796 0.98005 0.2692 0.0
C504 C 0.77874 1.00485 0.67117 0.0
C505 C 0.79765 0.05009 0.66659 0.0
C506 C 0.87331 0.04354 0.71495 0.0
C507 C 0.86542 0.9965 0.71468 0.0
N508 N 0.80368 0.93254 0.69566 0.0
N509 N 0.87128 0.11064 0.68108 0.0
C510 C 0.81604 0.97718 0.69355 0.0
C511 C 0.84717 0.06895 0.6877 0.0
N512 N 0.72394 0.98895 0.65508 0.0
N513 N 0.90327 0.06451 0.74169 0.0
H514 H 0.85606 0.1298 0.66036 0.0
H515 H 0.91134 0.12424 0.69401 0.0
H516 H 0.91514 0.04805 0.76408 0.0
H517 H 0.90636 0.09905 0.74393 0.0
H518 H 0.70372 0.95763 0.65962 0.0
H519 H 0.69528 1.0086 0.63906 0.0
H520 H 0.77359 0.91512 0.67871 0.0
H521 H 0.82533 0.91254 0.71421 0.0
C522 C 0.64292 0.45046 0.19413 0.0
C523 C 0.67784 0.46549 0.16537 0.0
C524 C 0.66406 0.54273 0.18447 0.0
C525 C 0.63244 0.52695 0.21424 0.0
N526 N 0.61966 0.46489 0.25291 0.0
N527 N 0.73302 0.52558 0.1365 0.0
C528 C 0.63033 0.48057 0.22087 0.0
C529 C 0.69152 0.51165 0.16133 0.0
N530 N 0.62062 0.40749 0.19574 0.0
N531 N 0.66939 0.58747 0.17886 0.0
H532 H 0.75438 0.50379 0.11938 0.0
H533 H 0.75026 0.55817 0.1344 0.0
H534 H 0.658 0.61084 0.19741 0.0
H535 H 0.6838 0.60131 0.1558 0.0
H536 H 0.58982 0.39622 0.21486 0.0
H537 H 0.62695 0.38465 0.17607 0.0
H538 H 0.62152 0.43116 0.25911 0.0
H539 H 0.61963 0.48559 0.27408 0.0
C540 C 0.42218 0.45385 0.3542 0.0
C541 C 0.36495 0.46701 0.37092 0.0
C542 C 0.36933 0.53937 0.34195 0.0
C543 C 0.4263 0.526 0.32467 0.0
N544 N 0.49485 0.46539 0.30729 0.0
N545 N 0.27573 0.51771 0.37557 0.0
C546 C 0.44871 0.48158 0.32844 0.0
C547 C 0.33598 0.50848 0.36324 0.0
N548 N 0.45297 0.41564 0.36394 0.0
N549 N 0.3467 0.58158 0.33778 0.0
H550 H 0.25044 0.49594 0.39148 0.0
H551 H 0.24835 0.54502 0.36797 0.0
H552 H 0.36655 0.60373 0.32031 0.0
H553 H 0.3102 0.59536 0.3524 0.0
H554 H 0.49925 0.40723 0.35578 0.0
H555 H 0.4349 0.3941 0.38249 0.0
H556 H 0.50752 0.43191 0.30632 0.0
H557 H 0.51595 0.48439 0.28834 0.0
C558 C 0.09327 0.0767 0.84325 0.0
C559 C 0.14457 0.06275 0.865 0.0
C560 C 0.13337 0.98651 0.84269 0.0
C561 C 0.08266 1.00082 0.82024 0.0
N562 N 0.034 0.06285 0.79094 0.0
N563 N 0.22385 1.00743 0.87999 0.0
C564 C 0.06812 0.04691 0.81823 0.0
C565 C 0.16783 0.01852 0.86303 0.0
N566 N 0.06729 0.11811 0.84692 0.0
N567 N 0.14745 0.94232 0.84563 0.0
H568 H 0.2499 0.02994 0.89526 0.0
H569 H 0.24763 0.97734 0.87656 0.0
H570 H 0.12665 0.91788 0.83017 0.0
H571 H 0.17737 0.9294 0.86473 0.0
H572 H 0.02508 0.12805 0.83419 0.0
H573 H 0.08461 0.14123 0.86475 0.0
H574 H 0.02716 0.09667 0.78631 0.0
H575 H 0.02058 0.04248 0.7706 0.0
C576 C 0.20432 0.09302 1.00787 0.0
C577 C 0.165 0.11827 0.98522 0.0
C578 C 0.11164 0.15406 0.0333 0.0
C579 C 0.15331 0.13055 0.05591 0.0
N580 N 0.22758 0.07042 0.06619 0.0
N581 N 0.07137 0.16411 0.97533 0.0
C582 C 0.19559 0.09739 0.04359 0.0
C583 C 0.1151 0.14583 0.99769 0.0
N584 N 0.25206 0.06664 0.99515 0.0
N585 N 0.07094 0.18559 0.0459 0.0
H586 H 0.07324 0.15877 0.9491 0.0
H587 H 0.03038 0.18148 0.98271 0.0
H588 H 0.06519 0.19084 0.07196 0.0
H589 H 0.04485 0.20778 0.03079 0.0
H590 H 0.28765 0.05148 1.01009 0.0
H591 H 0.25797 0.06139 0.96911 0.0
H592 H 0.25463 0.04294 0.05907 0.0
H593 H 0.22281 0.07339 0.0925 0.0
C594 C 0.27834 0.43813 0.51316 0.0
C595 C 0.33168 0.42484 0.49307 0.0
C596 C 0.40487 0.43314 0.54268 0.0
C597 C 0.35058 0.44275 0.56328 0.0
N598 N 0.23444 0.44708 0.56972 0.0
N599 N 0.44384 0.40283 0.48951 0.0
C600 C 0.28691 0.44302 0.54896 0.0
C601 C 0.39453 0.42043 0.50806 0.0
N602 N 0.22016 0.44799 0.49782 0.0
N603 N 0.4664 0.43746 0.55593 0.0
H604 H 0.43807 0.39304 0.46416 0.0
H605 H 0.48889 0.39447 0.49995 0.0
H606 H 0.47572 0.4459 0.5813 0.0
H607 H 0.50814 0.43602 0.54128 0.0
H608 H 0.1817 0.46252 0.51056 0.0
H609 H 0.21208 0.44546 0.47161 0.0
H610 H 0.18659 0.4426 0.56132 0.0
H611 H 0.2388 0.45113 0.59604 0.0
C612 C 0.62647 0.37515 0.04358 0.0
C613 C 0.69213 0.38588 0.05214 0.0
C614 C 0.72386 0.37009 0.99334 0.0
C615 C 0.65765 0.36212 0.9843 0.0
N616 N 0.54468 0.36926 0.99878 0.0
N617 N 0.79952 0.40551 0.03288 0.0
C618 C 0.60853 0.36868 1.00881 0.0
C619 C 0.7396 0.38724 0.02622 0.0
N620 N 0.58188 0.3685 0.06863 0.0
N621 N 0.77216 0.35892 0.97146 0.0
H622 H 0.8122 0.41929 0.05647 0.0
H623 H 0.83394 0.41117 1.01408 0.0
H624 H 0.76327 0.34501 0.94752 0.0
H625 H 0.82125 0.35957 0.97835 0.0
H626 H 0.5352 0.35602 0.06385 0.0
H627 H 0.59313 0.37133 0.0945 0.0
H628 H 0.50723 0.37802 1.01501 0.0
H629 H 0.52998 0.36556 0.97339 0.0
C630 C 0.69785 0.09158 0.52292 0.0
C631 C 0.75469 0.09199 0.54386 0.0
C632 C 0.81963 0.07403 0.49384 0.0
C633 C 0.76429 0.08046 0.47237 0.0
N634 N 0.65363 0.10614 0.46678 0.0
N635 N 0.87214 0.09299 0.54745 0.0
C636 C 0.70413 0.09233 0.48699 0.0
C637 C 0.81643 0.08581 0.52885 0.0
N638 N 0.63772 0.08899 0.53721 0.0
N639 N 0.87448 0.05515 0.48124 0.0
H640 H 0.87215 0.10345 0.57277 0.0
H641 H 0.91818 0.09304 0.53668 0.0
H642 H 0.87796 0.04422 0.45614 0.0
H643 H 0.91379 0.04603 0.49666 0.0
H644 H 0.59517 0.08456 0.52285 0.0
H645 H 0.63094 0.08621 0.56342 0.0
H646 H 0.61094 0.11908 0.4766 0.0
H647 H 0.65706 0.10934 0.44042 0.0
C648 C 0.89992 0.85998 0.04391 0.0
C649 C 0.86037 0.8902 0.06188 0.0
C650 C 0.82876 0.92592 1.00796 0.0
C651 C 0.85996 0.8915 0.9899 0.0
N652 N 0.925 0.82535 0.98975 0.0
N653 N 0.78328 0.9503 0.06134 0.0
C654 C 0.89624 0.85868 1.00763 0.0
C655 C 0.82446 0.92322 0.04403 0.0
N656 N 0.94133 0.83289 0.06164 0.0
N657 N 0.80289 0.96107 0.99046 0.0
H658 H 0.77867 0.94954 0.08774 0.0
H659 H 0.75003 0.97134 0.04947 0.0
H660 H 0.80451 0.96364 0.96398 0.0
H661 H 0.78521 0.9895 1.00217 0.0
H662 H 0.97584 0.81292 0.05019 0.0
H663 H 0.94479 0.83311 0.08818 0.0
H664 H 0.94557 0.79737 1.00104 0.0
H665 H 0.92564 0.82475 0.96318 0.0
C666 C 0.71654 0.57777 0.53015 0.0
C667 C 0.67123 0.60436 0.54774 0.0
C668 C 0.60061 0.6062 0.49667 0.0
C669 C 0.64194 0.57534 0.48074 0.0
N670 N 0.73508 0.52971 0.48085 0.0
N671 N 0.56781 0.64159 0.54917 0.0
C672 C 0.69947 0.56098 0.49716 0.0
C673 C 0.61288 0.61838 0.53125 0.0
N674 N 0.77557 0.56912 0.54499 0.0
N675 N 0.54999 0.62407 0.47856 0.0
H676 H 0.57542 0.65203 0.57424 0.0
H677 H 0.52113 0.64814 0.54006 0.0
H678 H 0.53952 0.61529 0.45335 0.0
H679 H 0.52172 0.6501 0.48736 0.0
H680 H 0.81358 0.55365 0.53261 0.0
H681 H 0.78854 0.58071 0.56922 0.0
H682 H 0.77594 0.51413 0.4911 0.0
H683 H 0.77594 0.51413 0.4911 0.0
C684 C 0.39309 0.65195 0.98798 0.0
C685 C 0.32741 0.64124 0.97948 0.0
C686 C 0.29925 0.64447 0.04009 0.0
C687 C 0.3658 0.65227 0.04861 0.0
N688 N 0.47784 0.65349 0.03145 0.0
N689 N 0.21994 0.62016 0.99736 0.0
C690 C 0.41326 0.65287 0.02274 0.0
C691 C 0.28104 0.63526 1.00557 0.0
N692 N 0.43566 0.66341 0.96291 0.0
N693 N 0.25319 0.6477 0.06471 0.0
H694 H 0.20504 0.61368 0.97233 0.0
H695 H 0.18581 0.6107 1.01541 0.0
H696 H 0.26467 0.654 0.09022 0.0
H697 H 0.20341 0.64735 0.05955 0.0
H698 H 0.48209 0.67619 0.96781 0.0
H699 H 0.42269 0.66418 0.93715 0.0
H700 H 0.51476 0.64925 1.01388 0.0
H701 H 0.49444 0.65391 0.05668 0.0
C702 C 0.2678 0.93485 0.5118 0.0
C703 C 0.23512 0.90079 0.49302 0.0
C704 C 0.20494 0.86383 0.54634 0.0
C705 C 0.23247 0.89992 0.56513 0.0
N706 N 0.27839 0.97417 0.56553 0.0
N707 N 0.15974 0.83863 0.49241 0.0
C708 C 0.2605 0.93678 0.54778 0.0
C709 C 0.19982 0.86697 0.51031 0.0
N710 N 0.3078 0.96433 0.49551 0.0
N711 N 0.18615 0.8257 0.56271 0.0
H712 H 0.15349 0.84042 0.46604 0.0
H713 H 0.12781 0.81635 0.50403 0.0
H714 H 0.19036 0.82151 0.58901 0.0
H715 H 0.17229 0.79668 0.5499 0.0
H716 H 0.33819 0.98685 0.50833 0.0
H717 H 0.31503 0.9637 0.46927 0.0
H718 H 0.29286 1.00374 0.55385 0.0
H719 H 0.27292 0.97704 0.59182 0.0
C720 C 0.09147 0.28742 0.36214 0.0
C721 C 0.16045 0.28837 0.36186 0.0
C722 C 0.16034 0.21015 0.34503 0.0
C723 C 0.09275 0.21178 0.33795 0.0
N724 N 0.99149 0.25201 0.34264 0.0
N725 N 0.26147 0.2513 0.35053 0.0
C726 C 0.05719 0.2501 0.34792 0.0
C727 C 0.19527 0.24981 0.35287 0.0
N728 N 0.05886 0.32177 0.37681 0.0
N729 N 0.19022 0.1699 0.34613 0.0
H730 H 0.28903 0.27985 0.35588 0.0
H731 H 0.28835 0.22524 0.34055 0.0
H732 H 0.16288 0.14054 0.34495 0.0
H733 H 0.2388 0.16574 0.35316 0.0
H734 H 0.00912 0.32111 0.38137 0.0
H735 H 0.0825 0.3495 0.38738 0.0
H736 H 0.96488 0.28115 0.34482 0.0
H737 H 0.96334 0.22537 0.33398 0.0
C738 C 0.33646 0.28623 0.86242 0.0
C739 C 0.35709 0.24166 0.85742 0.0
C740 C 0.45729 0.26865 0.831 0.0
C741 C 0.43608 0.31331 0.83477 0.0
N742 N 0.36083 0.36544 0.85837 0.0
N743 N 0.44399 0.19088 0.84626 0.0
C744 C 0.37806 0.32232 0.85263 0.0
C745 C 0.41965 0.23308 0.84452 0.0
N746 N 0.27492 0.29407 0.87364 0.0
N747 N 0.51257 0.26005 0.81335 0.0
H748 H 0.41825 0.16417 0.85672 0.0
H749 H 0.49183 0.18308 0.84056 0.0
H750 H 0.54507 0.28499 0.80617 0.0
H751 H 0.52513 0.2285 0.80482 0.0
H752 H 0.25411 0.32543 0.87479 0.0
H753 H 0.24197 0.26881 0.87963 0.0
H754 H 0.32369 0.37483 0.87451 0.0
H755 H 0.38573 0.39235 0.84791 0.0
C756 C 0.61322 0.27328 0.66618 0.0
C757 C 0.62569 0.23236 0.68321 0.0
C758 C 0.63234 0.27192 0.73779 0.0
C759 C 0.61069 0.31155 0.72144 0.0
N760 N 0.61307 0.35401 0.66963 0.0
N761 N 0.6419 0.19183 0.73586 0.0
C762 C 0.61084 0.31345 0.68537 0.0
C763 C 0.63334 0.23141 0.71918 0.0
N764 N 0.59864 0.27342 0.63212 0.0
N765 N 0.65956 0.27358 0.76967 0.0
H766 H 0.64929 0.1616 0.72359 0.0
H767 H 0.63737 0.18852 0.76215 0.0
H768 H 0.67366 0.30325 0.78119 0.0
H769 H 0.67962 0.24619 0.78205 0.0
H770 H 0.58224 0.30145 0.61909 0.0
H771 H 0.59643 0.24453 0.61743 0.0
H772 H 0.61866 0.35813 0.6435 0.0
H773 H 0.61818 0.38359 0.68341 0.0
C774 C 0.93325 0.30076 0.22088 0.0
C775 C 0.87652 0.29379 0.20061 0.0
C776 C 0.88555 0.21327 0.20994 0.0
C777 C 0.93746 0.22072 0.23362 0.0
N778 N 0.003 0.27326 0.26582 0.0
N779 N 0.7896 0.24383 0.18293 0.0
C780 C 0.95872 0.26501 0.24044 0.0
C781 C 0.85044 0.25013 0.19665 0.0
N782 N 0.96476 0.34109 0.22037 0.0
N783 N 0.86823 0.171 0.20071 0.0
H784 H 0.75969 0.26989 0.17534 0.0
H785 H 0.76563 0.21309 0.18275 0.0
H786 H 0.88666 0.14311 0.21295 0.0
H787 H 0.83709 0.16383 0.18024 0.0
H788 H 0.01007 0.34657 0.23189 0.0
H789 H 0.94929 0.36777 0.2054 0.0
H790 H 0.01411 0.30509 0.27487 0.0
H791 H 0.026 0.24782 0.27902 0.0
C792 C 0.84678 0.77801 0.66318 0.0
C793 C 0.82414 0.74188 0.68335 0.0
C794 C 0.88128 0.77415 0.73275 0.0
C795 C 0.89336 0.81421 0.71449 0.0
N796 N 0.88005 0.85532 0.66159 0.0
N797 N 0.8105 0.71027 0.73948 0.0
C798 C 0.87396 0.81652 0.67948 0.0
C799 C 0.83859 0.7414 0.71876 0.0
N800 N 0.84674 0.77466 0.62848 0.0
N801 N 0.91387 0.76569 0.76249 0.0
H802 H 0.77667 0.68666 0.73079 0.0
H803 H 0.8157 0.71097 0.76592 0.0
H804 H 0.94767 0.78778 0.7731 0.0
H805 H 0.91205 0.73487 0.77473 0.0
H806 H 0.86888 0.79821 0.6128 0.0
H807 H 0.83194 0.74603 0.61546 0.0
H808 H 0.85927 0.85983 0.63749 0.0
H809 H 0.90055 0.88432 0.67158 0.0
C810 C 0.64854 0.78713 0.23231 0.0
C811 C 0.66202 0.78876 0.19694 0.0
C812 C 0.60501 0.71712 0.18884 0.0
C813 C 0.59145 0.71564 0.22418 0.0
N814 N 0.58116 0.75615 0.27667 0.0
N815 N 0.63283 0.76324 0.14042 0.0
C816 C 0.60729 0.75283 0.24503 0.0
C817 C 0.63462 0.75596 0.17479 0.0
N818 N 0.67722 0.81714 0.25414 0.0
N819 N 0.59018 0.68136 0.16863 0.0
H820 H 0.64925 0.79277 0.12935 0.0
H821 H 0.60794 0.74255 0.1233 0.0
H822 H 0.56528 0.6534 0.17751 0.0
H823 H 0.60603 0.67829 0.14367 0.0
H824 H 0.67282 0.81547 0.28047 0.0
H825 H 0.70976 0.84185 0.2464 0.0
H826 H 0.58405 0.78493 0.29143 0.0
H827 H 0.55164 0.73138 0.28695 0.0
C828 C 0.3402 0.77004 0.30819 0.0
C829 C 0.32448 0.76735 0.34312 0.0
C830 C 0.39172 0.70032 0.3491 0.0
C831 C 0.4116 0.70485 0.31438 0.0
N832 N 0.41713 0.75257 0.26462 0.0
N833 N 0.33543 0.73076 0.39753 0.0
C834 C 0.3889 0.7419 0.29492 0.0
C835 C 0.3509 0.73304 0.36379 0.0
N836 N 0.30913 0.79986 0.28742 0.0
N837 N 0.40788 0.66354 0.36783 0.0
H838 H 0.29641 0.74762 0.40797 0.0
H839 H 0.36228 0.71296 0.41552 0.0
H840 H 0.43824 0.63856 0.35977 0.0
H841 H 0.38693 0.65529 0.391 0.0
H842 H 0.31197 0.79896 0.26095 0.0
H843 H 0.27645 0.82342 0.29613 0.0
H844 H 0.40785 0.78192 0.25135 0.0
H845 H 0.45582 0.7353 0.2546 0.0
C846 C 0.11547 0.76832 0.85515 0.0
C847 C 0.15009 0.74002 0.83305 0.0
C848 C 0.0999 0.77802 0.78415 0.0
C849 C 0.07516 0.81158 0.80606 0.0
N850 N 0.07256 0.84172 0.86345 0.0
N851 N 0.18303 0.72285 0.77578 0.0
C852 C 0.08632 0.80757 0.84188 0.0
C853 C 0.14444 0.74622 0.79733 0.0
N854 N 0.10738 0.7569 0.88853 0.0
N855 N 0.07886 0.77489 0.75105 0.0
H856 H 0.21717 0.69973 0.7842 0.0
H857 H 0.18567 0.72973 0.74981 0.0
H858 H 0.04341 0.79539 0.74048 0.0
H859 H 0.09076 0.7484 0.73525 0.0
H860 H 0.07725 0.77445 0.90479 0.0
H861 H 0.12382 0.72698 0.89881 0.0
H862 H 0.08622 0.84165 0.88911 0.0
H863 H 0.0546 0.87212 0.85532 0.0
loop_
_geom_bond_atom_site_label_1
_geom_bond_atom_site_label_2
_geom_bond_distance
_geom_bond_site_symmetry_2
_ccdc_geom_bond_type
H0 C5 0.930 . S
H1 C8 0.930 . S
H2 C10 0.930 . S
H3 C4 1.016 . S
C4 H3 1.016 . S
C4 N11 1.286 . S
C5 H0 0.930 . S
C5 C6 1.397 . S
C5 C7 1.361 . S
C6 C5 1.397 . S
C6 C10 1.390 . S
C7 C5 1.361 . S
C7 C8 1.393 . S
C7 N11 1.413 . S
C8 H1 0.930 . S
C8 C7 1.393 . S
C8 C9 1.399 . S
C9 C8 1.399 . S
C9 C10 1.381 . S
C10 H2 0.930 . S
C10 C6 1.390 . S
C10 C9 1.381 . S
N11 C4 1.286 . S
N11 C7 1.413 . S
H12 C17 0.930 . S
H13 C20 0.930 . S
H14 C22 0.930 . S
H15 C16 1.016 . S
C16 H15 1.016 . S
C16 N23 1.286 . S
C17 H12 0.930 . S
C17 C18 1.397 . S
C17 C19 1.361 . S
C18 C17 1.397 . S
C18 C22 1.390 . S
C19 C17 1.361 . S
C19 C20 1.393 . S
C19 N23 1.413 . S
C20 H13 0.930 . S
C20 C19 1.393 . S
C20 C21 1.399 . S
C21 C20 1.399 . S
C21 C22 1.381 . S
C22 H14 0.930 . S
C22 C18 1.390 . S
C22 C21 1.381 . S
N23 C16 1.286 . S
N23 C19 1.413 . S
H24 C29 0.930 . S
H25 C32 0.930 . S
H26 C34 0.930 . S
H27 C28 1.016 . S
C28 H27 1.016 . S
C28 N35 1.286 . S
C29 H24 0.930 . S
C29 C30 1.397 . S
C29 C31 1.361 . S
C30 C29 1.397 . S
C30 C34 1.390 . S
C31 C29 1.361 . S
C31 C32 1.393 . S
C31 N35 1.413 . S
C32 H25 0.930 . S
C32 C31 1.393 . S
C32 C33 1.399 . S
C33 C32 1.399 . S
C33 C34 1.381 . S
C34 H26 0.930 . S
C34 C30 1.390 . S
C34 C33 1.381 . S
N35 C28 1.286 . S
N35 C31 1.413 . S
H36 C41 0.930 . S
H37 C44 0.930 . S
H38 C46 0.930 . S
H39 C40 1.016 . S
C40 H39 1.016 . S
C40 N47 1.286 . S
C41 H36 0.930 . S
C41 C42 1.397 . S
C41 C43 1.361 . S
C42 C41 1.397 . S
C42 C46 1.390 . S
C43 C41 1.361 . S
C43 C44 1.393 . S
C43 N47 1.413 . S
C44 H37 0.930 . S
C44 C43 1.393 . S
C44 C45 1.399 . S
C45 C44 1.399 . S
C45 C46 1.381 . S
C46 H38 0.930 . S
C46 C42 1.390 . S
C46 C45 1.381 . S
N47 C40 1.286 . S
N47 C43 1.413 . S
H48 C53 0.930 . S
H49 C56 0.930 . S
H50 C58 0.930 . S
H51 C52 1.016 . S
C52 H51 1.016 . S
C52 N59 1.286 . S
C53 H48 0.930 . S
C53 C54 1.397 . S
C53 C55 1.361 . S
C54 C53 1.397 . S
C54 C58 1.390 . S
C55 C53 1.361 . S
C55 C56 1.393 . S
C55 N59 1.413 . S
C56 H49 0.930 . S
C56 C55 1.393 . S
C56 C57 1.399 . S
C57 C56 1.399 . S
C57 C58 1.381 . S
C58 H50 0.930 . S
C58 C54 1.390 . S
C58 C57 1.381 . S
N59 C52 1.286 . S
N59 C55 1.413 . S
H60 C65 0.930 . S
H61 C68 0.930 . S
H62 C70 0.930 . S
H63 C64 1.016 . S
C64 H63 1.016 . S
C64 N71 1.286 . S
C65 H60 0.930 . S
C65 C66 1.397 . S
C65 C67 1.361 . S
C66 C65 1.397 . S
C66 C70 1.390 . S
C67 C65 1.361 . S
C67 C68 1.393 . S
C67 N71 1.413 . S
C68 H61 0.930 . S
C68 C67 1.393 . S
C68 C69 1.399 . S
C69 C68 1.399 . S
C69 C70 1.381 . S
C70 H62 0.930 . S
C70 C66 1.390 . S
C70 C69 1.381 . S
N71 C64 1.286 . S
N71 C67 1.413 . S
H72 C77 0.930 . S
H73 C80 0.930 . S
H74 C82 0.930 . S
H75 C76 1.016 . S
C76 H75 1.016 . S
C76 N83 1.286 . S
C77 H72 0.930 . S
C77 C78 1.397 . S
C77 C79 1.361 . S
C78 C77 1.397 . S
C78 C82 1.390 . S
C79 C77 1.361 . S
C79 C80 1.393 . S
C79 N83 1.413 . S
C80 H73 0.930 . S
C80 C79 1.393 . S
C80 C81 1.399 . S
C81 C80 1.399 . S
C81 C82 1.381 . S
C82 H74 0.930 . S
C82 C78 1.390 . S
C82 C81 1.381 . S
N83 C76 1.286 . S
N83 C79 1.413 . S
H84 C89 0.930 . S
H85 C92 0.930 . S
H86 C94 0.930 . S
H87 C88 1.016 . S
C88 H87 1.016 . S
C88 N95 1.286 . S
C89 H84 0.930 . S
C89 C90 1.397 . S
C89 C91 1.361 . S
C90 C89 1.397 . S
C90 C94 1.390 . S
C91 C89 1.361 . S
C91 C92 1.393 . S
C91 N95 1.413 . S
C92 H85 0.930 . S
C92 C91 1.393 . S
C92 C93 1.399 . S
C93 C92 1.399 . S
C93 C94 1.381 . S
C94 H86 0.930 . S
C94 C90 1.390 . S
C94 C93 1.381 . S
N95 C88 1.286 . S
N95 C91 1.413 . S
Tb96 N125 2.617 . S
Tb96 N131 2.572 . S
Tb96 O140 2.465 . S
Tb96 O141 2.387 . S
Tb96 O143 2.428 . S
Tb96 O144 2.308 1_455 S
Tb96 O148 2.349 1_455 S
Tb96 O151 2.393 . S
Tb96 C160 2.802 . S
C97 N98 1.379 . S
C97 C100 1.416 . S
C97 C104 1.424 . S
N98 C97 1.379 . S
N98 C101 1.334 . S
N98 Tb107 2.617 . S
C99 C101 1.390 . S
C99 C102 1.339 . S
C99 H119 0.930 . S
C100 C97 1.416 . S
C100 C102 1.416 . S
C100 C106 1.448 . S
C101 N98 1.334 . S
C101 C99 1.390 . S
C101 H112 0.930 . S
C102 C99 1.339 . S
C102 C100 1.416 . S
C102 H123 0.930 . S
C103 C104 1.413 1_565 S
C103 C105 1.427 . S
C103 C109 1.416 . S
C104 C97 1.424 . S
C104 C103 1.413 1_545 S
C104 N108 1.361 . S
C105 C103 1.427 . S
C105 C106 1.328 1_565 S
C105 H120 0.929 . S
C106 C100 1.448 . S
C106 C105 1.328 1_545 S
C106 H121 0.930 . S
Tb107 N98 2.617 . S
Tb107 N108 2.572 . S
Tb107 O142 2.349 1_655 S
Tb107 O145 2.393 . S
Tb107 O146 2.465 . S
Tb107 O147 2.387 . S
Tb107 O149 2.428 . S
Tb107 O150 2.308 1_655 S
Tb107 C171 2.802 . S
N108 C104 1.361 . S
N108 Tb107 2.572 . S
N108 C110 1.340 1_545 S
C109 C103 1.416 . S
C109 C111 1.332 . S
C109 H117 0.931 . S
C110 N108 1.340 1_565 S
C110 C111 1.407 . S
C110 H116 0.930 . S
C111 C109 1.332 . S
C111 C110 1.407 . S
C111 H113 0.929 . S
H112 C101 0.930 . S
H113 C111 0.929 . S
H114 C129 0.930 . S
H115 C136 0.929 . S
H116 C110 0.930 . S
H117 C109 0.931 . S
H118 C132 0.930 . S
H119 C99 0.930 . S
H120 C105 0.929 . S
H121 C106 0.930 . S
H122 C127 0.930 . S
H123 C102 0.930 . S
H124 C135 0.931 . S
N125 Tb96 2.617 . S
N125 C126 1.379 . S
N125 C129 1.334 . S
C126 N125 1.379 . S
C126 C128 1.416 . S
C126 C134 1.424 . S
C127 H122 0.930 . S
C127 C129 1.390 . S
C127 C130 1.339 . S
C128 C126 1.416 . S
C128 C130 1.416 . S
C128 C161 1.448 . S
C129 H114 0.930 . S
C129 N125 1.334 . S
C129 C127 1.390 . S
C130 C127 1.339 . S
C130 C128 1.416 . S
C130 H137 0.930 . S
N131 Tb96 2.572 . S
N131 C132 1.340 . S
N131 C134 1.361 . S
C132 H118 0.930 . S
C132 N131 1.340 . S
C132 C136 1.407 . S
C133 C134 1.413 . S
C133 C135 1.416 . S
C133 C162 1.427 . S
C134 C126 1.424 . S
C134 N131 1.361 . S
C134 C133 1.413 . S
C135 H124 0.931 . S
C135 C133 1.416 . S
C135 C136 1.332 . S
C136 H115 0.929 . S
C136 C132 1.407 . S
C136 C135 1.332 . S
H137 C130 0.930 . S
H138 C161 0.930 . S
H139 C162 0.929 . S
O140 Tb96 2.465 . S
O140 C160 1.264 . S
O141 Tb96 2.387 . S
O141 C152 1.264 . S
O142 Tb107 2.349 1_455 S
O142 C152 1.243 . S
O143 Tb96 2.428 . S
O143 C160 1.256 . S
O144 Tb96 2.308 1_655 S
O144 C159 1.266 . S
O145 Tb107 2.393 . S
O145 C159 1.248 . S
O146 Tb107 2.465 . S
O146 C171 1.264 . S
O147 Tb107 2.387 . S
O147 C163 1.264 . S
O148 Tb96 2.349 1_655 S
O148 C163 1.243 . S
O149 Tb107 2.428 . S
O149 C171 1.256 . S
O150 Tb107 2.308 1_455 S
O150 C170 1.266 . S
O151 Tb96 2.393 . S
O151 C170 1.248 . S
C152 O141 1.264 . S
C152 O142 1.243 . S
C153 C156 1.399 . S
C153 C158 1.383 . S
C153 C160 1.496 . S
C154 C155 1.399 . S
C154 C158 1.389 . S
C155 C154 1.399 . S
C155 C157 1.380 . S
C155 H172 0.929 . S
C156 C153 1.399 . S
C156 C157 1.392 . S
C156 H173 0.929 . S
C157 C155 1.380 . S
C157 C156 1.392 . S
C157 H174 0.930 . S
C158 C153 1.383 . S
C158 C154 1.389 . S
C158 H175 0.931 . S
C159 O144 1.266 . S
C159 O145 1.248 . S
C160 Tb96 2.802 . S
C160 O140 1.264 . S
C160 O143 1.256 . S
C160 C153 1.496 . S
C161 C128 1.448 . S
C161 H138 0.930 . S
C161 C162 1.328 . S
C162 C133 1.427 . S
C162 H139 0.929 . S
C162 C161 1.328 . S
C163 O147 1.264 . S
C163 O148 1.243 . S
C164 C167 1.399 . S
C164 C168 1.383 . S
C164 C171 1.496 . S
C165 C166 1.399 . S
C165 C168 1.389 . S
C166 C165 1.399 . S
C166 C169 1.380 . S
C166 H176 0.929 . S
C167 C164 1.399 . S
C167 C169 1.392 . S
C167 H177 0.929 . S
C168 C164 1.383 . S
C168 C165 1.389 . S
C168 H178 0.931 . S
C169 C166 1.380 . S
C169 C167 1.392 . S
C169 H179 0.929 . S
C170 O150 1.266 . S
C170 O151 1.248 . S
C171 Tb107 2.802 . S
C171 O146 1.264 . S
C171 O149 1.256 . S
C171 C164 1.496 . S
H172 C155 0.929 . S
H173 C156 0.929 . S
H174 C157 0.930 . S
H175 C158 0.931 . S
H176 C166 0.929 . S
H177 C167 0.929 . S
H178 C168 0.931 . S
H179 C169 0.929 . S
Tb180 N209 2.617 . S
Tb180 N215 2.572 . S
Tb180 O224 2.465 . S
Tb180 O225 2.387 . S
Tb180 O227 2.428 . S
Tb180 O228 2.308 . S
Tb180 O232 2.349 . S
Tb180 O235 2.393 . S
Tb180 C244 2.802 . S
C181 N182 1.379 . S
C181 C184 1.416 . S
C181 C188 1.424 . S
N182 C181 1.379 . S
N182 C185 1.334 . S
N182 Tb191 2.617 . S
C183 C185 1.390 . S
C183 C186 1.339 . S
C183 H203 0.930 . S
C184 C181 1.416 . S
C184 C186 1.416 . S
C184 C190 1.448 . S
C185 N182 1.334 . S
C185 C183 1.390 . S
C185 H196 0.930 . S
C186 C183 1.339 . S
C186 C184 1.416 . S
C186 H207 0.930 . S
C187 C188 1.413 . S
C187 C189 1.427 . S
C187 C193 1.416 . S
C188 C181 1.424 . S
C188 C187 1.413 . S
C188 N192 1.361 . S
C189 C187 1.427 . S
C189 C190 1.328 . S
C189 H204 0.929 . S
C190 C184 1.448 . S
C190 C189 1.328 . S
C190 H205 0.930 . S
Tb191 N182 2.617 . S
Tb191 N192 2.572 . S
Tb191 O226 2.349 . S
Tb191 O229 2.393 . S
Tb191 O230 2.465 . S
Tb191 O231 2.387 . S
Tb191 O233 2.428 . S
Tb191 O234 2.308 . S
Tb191 C255 2.802 . S
N192 C188 1.361 . S
N192 Tb191 2.572 . S
N192 C194 1.340 . S
C193 C187 1.416 . S
C193 C195 1.332 . S
C193 H201 0.931 . S
C194 N192 1.340 . S
C194 C195 1.407 . S
C194 H200 0.930 . S
C195 C193 1.332 . S
C195 C194 1.407 . S
C195 H197 0.929 . S
H196 C185 0.930 . S
H197 C195 0.929 . S
H198 C213 0.930 . S
H199 C220 0.929 . S
H200 C194 0.930 . S
H201 C193 0.931 . S
H202 C216 0.930 . S
H203 C183 0.930 . S
H204 C189 0.929 . S
H205 C190 0.930 . S
H206 C211 0.930 . S
H207 C186 0.930 . S
H208 C219 0.931 . S
N209 Tb180 2.617 . S
N209 C210 1.379 . S
N209 C213 1.334 . S
C210 N209 1.379 . S
C210 C212 1.416 . S
C210 C218 1.424 . S
C211 H206 0.930 . S
C211 C213 1.390 . S
C211 C214 1.339 . S
C212 C210 1.416 . S
C212 C214 1.416 . S
C212 C245 1.448 . S
C213 H198 0.930 . S
C213 N209 1.334 . S
C213 C211 1.390 . S
C214 C211 1.339 . S
C214 C212 1.416 . S
C214 H221 0.930 . S
N215 Tb180 2.572 . S
N215 C216 1.340 . S
N215 C218 1.361 . S
C216 H202 0.930 . S
C216 N215 1.340 . S
C216 C220 1.407 . S
C217 C218 1.413 . S
C217 C219 1.416 . S
C217 C246 1.427 . S
C218 C210 1.424 . S
C218 N215 1.361 . S
C218 C217 1.413 . S
C219 H208 0.931 . S
C219 C217 1.416 . S
C219 C220 1.332 . S
C220 H199 0.929 . S
C220 C216 1.407 . S
C220 C219 1.332 . S
H221 C214 0.930 . S
H222 C245 0.930 . S
H223 C246 0.929 . S
O224 Tb180 2.465 . S
O224 C244 1.264 . S
O225 Tb180 2.387 . S
O225 C236 1.264 . S
O226 Tb191 2.349 . S
O226 C236 1.243 . S
O227 Tb180 2.428 . S
O227 C244 1.256 . S
O228 Tb180 2.308 . S
O228 C243 1.266 . S
O229 Tb191 2.393 . S
O229 C243 1.248 . S
O230 Tb191 2.465 . S
O230 C255 1.264 . S
O231 Tb191 2.387 . S
O231 C247 1.264 . S
O232 Tb180 2.349 . S
O232 C247 1.243 . S
O233 Tb191 2.428 . S
O233 C255 1.256 . S
O234 Tb191 2.308 . S
O234 C254 1.266 . S
O235 Tb180 2.393 . S
O235 C254 1.248 . S
C236 O225 1.264 . S
C236 O226 1.243 . S
C237 C240 1.399 . S
C237 C242 1.383 . S
C237 C244 1.496 . S
C238 C239 1.399 . S
C238 C242 1.389 . S
C239 C238 1.399 . S
C239 C241 1.380 . S
C239 H256 0.929 . S
C240 C237 1.399 . S
C240 C241 1.392 . S
C240 H257 0.929 . S
C241 C239 1.380 . S
C241 C240 1.392 . S
C241 H258 0.929 . S
C242 C237 1.383 . S
C242 C238 1.389 . S
C242 H259 0.931 . S
C243 O228 1.266 . S
C243 O229 1.248 . S
C244 Tb180 2.802 . S
C244 O224 1.264 . S
C244 O227 1.256 . S
C244 C237 1.496 . S
C245 C212 1.448 . S
C245 H222 0.930 . S
C245 C246 1.328 . S
C246 C217 1.427 . S
C246 H223 0.929 . S
C246 C245 1.328 . S
C247 O231 1.264 . S
C247 O232 1.243 . S
C248 C251 1.399 . S
C248 C252 1.383 . S
C248 C255 1.496 . S
C249 C250 1.399 . S
C249 C252 1.389 . S
C250 C249 1.399 . S
C250 C253 1.380 . S
C250 H260 0.929 . S
C251 C248 1.399 . S
C251 C253 1.392 . S
C251 H261 0.929 . S
C252 C248 1.383 . S
C252 C249 1.389 . S
C252 H262 0.931 . S
C253 C250 1.380 . S
C253 C251 1.392 . S
C253 H263 0.929 . S
C254 O234 1.266 . S
C254 O235 1.248 . S
C255 Tb191 2.802 . S
C255 O230 1.264 . S
C255 O233 1.256 . S
C255 C248 1.496 . S
H256 C239 0.929 . S
H257 C240 0.929 . S
H258 C241 0.929 . S
H259 C242 0.931 . S
H260 C250 0.929 . S
H261 C251 0.929 . S
H262 C252 0.931 . S
H263 C253 0.929 . S
Tb264 N293 2.617 . S
Tb264 N299 2.572 . S
Tb264 O308 2.465 . S
Tb264 O309 2.387 . S
Tb264 O311 2.428 . S
Tb264 O312 2.299 1_455 S
Tb264 O316 2.351 . S
Tb264 O319 2.393 . S
Tb264 C328 2.802 . S
C265 N266 1.379 . S
C265 C268 1.416 . S
C265 C272 1.424 . S
N266 C265 1.379 . S
N266 C269 1.334 . S
N266 Tb275 2.617 . S
C267 C269 1.390 . S
C267 C270 1.339 . S
C267 H287 0.930 . S
C268 C265 1.416 . S
C268 C270 1.416 . S
C268 C274 1.448 . S
C269 N266 1.334 . S
C269 C267 1.390 . S
C269 H280 0.930 . S
C270 C267 1.339 . S
C270 C268 1.416 . S
C270 H291 0.930 . S
C271 C272 1.413 . S
C271 C273 1.427 . S
C271 C277 1.416 . S
C272 C265 1.424 . S
C272 C271 1.413 . S
C272 N276 1.361 . S
C273 C271 1.427 . S
C273 C274 1.328 . S
C273 H288 0.929 . S
C274 C268 1.448 . S
C274 C273 1.328 . S
C274 H289 0.930 . S
Tb275 N266 2.617 . S
Tb275 N276 2.572 . S
Tb275 O310 2.349 1_655 S
Tb275 O313 2.393 . S
Tb275 O314 2.465 . S
Tb275 O315 2.387 . S
Tb275 O317 2.428 . S
Tb275 O318 2.308 1_655 S
Tb275 C339 2.802 . S
N276 C272 1.361 . S
N276 Tb275 2.572 . S
N276 C278 1.340 . S
C277 C271 1.416 . S
C277 C279 1.332 . S
C277 H285 0.931 . S
C278 N276 1.340 . S
C278 C279 1.407 . S
C278 H284 0.930 . S
C279 C277 1.332 . S
C279 C278 1.407 . S
C279 H281 0.929 . S
H280 C269 0.930 . S
H281 C279 0.929 . S
H282 C297 0.930 . S
H283 C304 0.929 . S
H284 C278 0.930 . S
H285 C277 0.931 . S
H286 C300 0.930 . S
H287 C267 0.930 . S
H288 C273 0.929 . S
H289 C274 0.930 . S
H290 C295 0.930 . S
H291 C270 0.930 . S
H292 C303 0.931 . S
N293 Tb264 2.617 . S
N293 C294 1.379 . S
N293 C297 1.334 . S
C294 N293 1.379 . S
C294 C296 1.416 . S
C294 C302 1.424 . S
C295 H290 0.930 . S
C295 C297 1.390 . S
C295 C298 1.339 . S
C296 C294 1.416 . S
C296 C298 1.416 . S
C296 C329 1.448 . S
C297 H282 0.930 . S
C297 N293 1.334 . S
C297 C295 1.390 . S
C298 C295 1.339 . S
C298 C296 1.416 . S
C298 H305 0.930 . S
N299 Tb264 2.572 . S
N299 C300 1.340 1_565 S
N299 C302 1.361 . S
C300 H286 0.930 . S
C300 N299 1.340 1_545 S
C300 C304 1.407 . S
C301 C302 1.413 1_545 S
C301 C303 1.416 . S
C301 C330 1.427 . S
C302 C294 1.424 . S
C302 N299 1.361 . S
C302 C301 1.413 1_565 S
C303 H292 0.931 . S
C303 C301 1.416 . S
C303 C304 1.332 . S
C304 H283 0.929 . S
C304 C300 1.407 . S
C304 C303 1.332 . S
H305 C298 0.930 . S
H306 C329 0.930 . S
H307 C330 0.929 . S
O308 Tb264 2.465 . S
O308 C328 1.264 . S
O309 Tb264 2.387 . S
O309 C320 1.264 . S
O310 Tb275 2.349 1_455 S
O310 C320 1.243 . S
O311 Tb264 2.428 . S
O311 C328 1.256 . S
O312 Tb264 2.299 1_655 S
O312 C327 1.277 . S
O313 Tb275 2.393 . S
O313 C327 1.248 . S
O314 Tb275 2.465 . S
O314 C339 1.264 . S
O315 Tb275 2.387 . S
O315 C331 1.264 . S
O316 Tb264 2.351 . S
O316 C331 1.241 1_455 S
O317 Tb275 2.428 . S
O317 C339 1.256 . S
O318 Tb275 2.308 1_455 S
O318 C338 1.266 . S
O319 Tb264 2.393 . S
O319 C338 1.248 . S
C320 O309 1.264 . S
C320 O310 1.243 . S
C321 C324 1.399 . S
C321 C326 1.383 . S
C321 C328 1.496 . S
C322 C323 1.399 . S
C322 C326 1.389 . S
C323 C322 1.399 . S
C323 C325 1.380 . S
C323 H340 0.929 . S
C324 C321 1.399 . S
C324 C325 1.392 . S
C324 H341 0.929 . S
C325 C323 1.380 . S
C325 C324 1.392 . S
C325 H342 0.929 . S
C326 C321 1.383 . S
C326 C322 1.389 . S
C326 H343 0.931 . S
C327 O312 1.277 . S
C327 O313 1.248 . S
C328 Tb264 2.802 . S
C328 O308 1.264 . S
C328 O311 1.256 . S
C328 C321 1.496 . S
C329 C296 1.448 . S
C329 H306 0.930 . S
C329 C330 1.328 1_565 S
C330 C301 1.427 . S
C330 H307 0.929 . S
C330 C329 1.328 1_545 S
C331 O315 1.264 . S
C331 O316 1.241 1_655 S
C332 C335 1.399 . S
C332 C336 1.383 . S
C332 C339 1.496 . S
C333 C334 1.399 . S
C333 C336 1.389 . S
C334 C333 1.399 . S
C334 C337 1.380 . S
C334 H344 0.929 . S
C335 C332 1.399 . S
C335 C337 1.392 . S
C335 H345 0.929 . S
C336 C332 1.383 . S
C336 C333 1.389 . S
C336 H346 0.931 . S
C337 C334 1.380 . S
C337 C335 1.392 . S
C337 H347 0.930 . S
C338 O318 1.266 . S
C338 O319 1.248 . S
C339 Tb275 2.802 . S
C339 O314 1.264 . S
C339 O317 1.256 . S
C339 C332 1.496 . S
H340 C323 0.929 . S
H341 C324 0.929 . S
H342 C325 0.929 . S
H343 C326 0.931 . S
H344 C334 0.929 . S
H345 C335 0.929 . S
H346 C336 0.931 . S
H347 C337 0.930 . S
Tb348 N377 2.617 . S
Tb348 N383 2.572 . S
Tb348 O392 2.465 . S
Tb348 O393 2.387 . S
Tb348 O395 2.428 . S
Tb348 O396 2.308 . S
Tb348 O400 2.349 . S
Tb348 O403 2.393 . S
Tb348 C412 2.802 . S
C349 N350 1.379 . S
C349 C352 1.416 . S
C349 C356 1.424 . S
N350 C349 1.379 . S
N350 C353 1.334 . S
N350 Tb359 2.617 . S
C351 C353 1.390 . S
C351 C354 1.339 . S
C351 H371 0.930 . S
C352 C349 1.416 . S
C352 C354 1.416 . S
C352 C358 1.448 . S
C353 N350 1.334 . S
C353 C351 1.390 . S
C353 H364 0.930 . S
C354 C351 1.339 . S
C354 C352 1.416 . S
C354 H375 0.930 . S
C355 C356 1.413 . S
C355 C357 1.427 . S
C355 C361 1.416 . S
C356 C349 1.424 . S
C356 C355 1.413 . S
C356 N360 1.361 . S
C357 C355 1.427 . S
C357 C358 1.328 . S
C357 H372 0.929 . S
C358 C352 1.448 . S
C358 C357 1.328 . S
C358 H373 0.930 . S
Tb359 N350 2.617 . S
Tb359 N360 2.572 . S
Tb359 O394 2.349 . S
Tb359 O397 2.393 . S
Tb359 O398 2.465 . S
Tb359 O399 2.387 . S
Tb359 O401 2.428 . S
Tb359 O402 2.308 . S
Tb359 C423 2.802 . S
N360 C356 1.361 . S
N360 Tb359 2.572 . S
N360 C362 1.340 . S
C361 C355 1.416 . S
C361 C363 1.332 . S
C361 H369 0.931 . S
C362 N360 1.340 . S
C362 C363 1.407 . S
C362 H368 0.930 . S
C363 C361 1.332 . S
C363 C362 1.407 . S
C363 H365 0.929 . S
H364 C353 0.930 . S
H365 C363 0.929 . S
H366 C381 0.930 . S
H367 C388 0.929 . S
H368 C362 0.930 . S
H369 C361 0.931 . S
H370 C384 0.930 . S
H371 C351 0.930 . S
H372 C357 0.929 . S
H373 C358 0.930 . S
H374 C379 0.930 . S
H375 C354 0.930 . S
H376 C387 0.931 . S
N377 Tb348 2.617 . S
N377 C378 1.379 . S
N377 C381 1.334 . S
C378 N377 1.379 . S
C378 C380 1.416 . S
C378 C386 1.424 . S
C379 H374 0.930 . S
C379 C381 1.390 . S
C379 C382 1.339 . S
C380 C378 1.416 . S
C380 C382 1.416 . S
C380 C413 1.448 . S
C381 H366 0.930 . S
C381 N377 1.334 . S
C381 C379 1.390 . S
C382 C379 1.339 . S
C382 C380 1.416 . S
C382 H389 0.930 . S
N383 Tb348 2.572 . S
N383 C384 1.340 . S
N383 C386 1.361 . S
C384 H370 0.930 . S
C384 N383 1.340 . S
C384 C388 1.407 . S
C385 C386 1.413 . S
C385 C387 1.416 . S
C385 C414 1.427 . S
C386 C378 1.424 . S
C386 N383 1.361 . S
C386 C385 1.413 . S
C387 H376 0.931 . S
C387 C385 1.416 . S
C387 C388 1.332 . S
C388 H367 0.929 . S
C388 C384 1.407 . S
C388 C387 1.332 . S
H389 C382 0.930 . S
H390 C413 0.930 . S
H391 C414 0.929 . S
O392 Tb348 2.465 . S
O392 C412 1.264 . S
O393 Tb348 2.387 . S
O393 C404 1.264 . S
O394 Tb359 2.349 . S
O394 C404 1.243 . S
O395 Tb348 2.428 . S
O395 C412 1.256 . S
O396 Tb348 2.308 . S
O396 C411 1.266 . S
O397 Tb359 2.393 . S
O397 C411 1.248 . S
O398 Tb359 2.465 . S
O398 C423 1.264 . S
O399 Tb359 2.387 . S
O399 C415 1.264 . S
O400 Tb348 2.349 . S
O400 C415 1.243 . S
O401 Tb359 2.428 . S
O401 C423 1.256 . S
O402 Tb359 2.308 . S
O402 C422 1.266 . S
O403 Tb348 2.393 . S
O403 C422 1.248 . S
C404 O393 1.264 . S
C404 O394 1.243 . S
C405 C408 1.399 . S
C405 C410 1.383 . S
C405 C412 1.496 . S
C406 C407 1.399 . S
C406 C410 1.389 . S
C407 C406 1.399 . S
C407 C409 1.380 . S
C407 H424 0.929 . S
C408 C405 1.399 . S
C408 C409 1.392 . S
C408 H425 0.929 . S
C409 C407 1.380 . S
C409 C408 1.392 . S
C409 H426 0.929 . S
C410 C405 1.383 . S
C410 C406 1.389 . S
C410 H427 0.931 . S
C411 O396 1.266 . S
C411 O397 1.248 . S
C412 Tb348 2.802 . S
C412 O392 1.264 . S
C412 O395 1.256 . S
C412 C405 1.496 . S
C413 C380 1.448 . S
C413 H390 0.930 . S
C413 C414 1.328 . S
C414 C385 1.427 . S
C414 H391 0.929 . S
C414 C413 1.328 . S
C415 O399 1.264 . S
C415 O400 1.243 . S
C416 C419 1.399 . S
C416 C420 1.383 . S
C416 C423 1.496 . S
C417 C418 1.399 . S
C417 C420 1.389 . S
C418 C417 1.399 . S
C418 C421 1.380 . S
C418 H428 0.929 . S
C419 C416 1.399 . S
C419 C421 1.392 . S
C419 H429 0.929 . S
C420 C416 1.383 . S
C420 C417 1.389 . S
C420 H430 0.931 . S
C421 C418 1.380 . S
C421 C419 1.392 . S
C421 H431 0.929 . S
C422 O402 1.266 . S
C422 O403 1.248 . S
C423 Tb359 2.802 . S
C423 O398 1.264 . S
C423 O401 1.256 . S
C423 C416 1.496 . S
H424 C407 0.929 . S
H425 C408 0.929 . S
H426 C409 0.929 . S
H427 C410 0.931 . S
H428 C418 0.929 . S
H429 C419 0.929 . S
H430 C420 0.931 . S
H431 C421 0.929 . S
C432 C433 1.363 . S
C432 C438 1.379 . S
C432 N440 1.356 . S
C433 C432 1.363 . S
C433 C439 1.363 . S
C434 C435 1.363 . S
C434 C439 1.379 . S
C434 N441 1.356 . S
C435 C434 1.363 . S
C435 C438 1.363 . S
N436 C438 1.356 1_545 S
N436 H448 0.984 . S
N436 H449 0.985 . S
N437 C439 1.356 . S
N437 H442 0.984 . S
N437 H443 0.985 . S
C438 C432 1.379 . S
C438 C435 1.363 . S
C438 N436 1.356 1_565 S
C439 C433 1.363 . S
C439 C434 1.379 . S
C439 N437 1.356 . S
N440 C432 1.356 . S
N440 H446 0.984 . S
N440 H447 0.984 . S
N441 C434 1.356 . S
N441 H444 0.984 1_465 S
N441 H445 0.985 1_455 S
H442 N437 0.984 . S
H443 N437 0.985 . S
H444 N441 0.984 1_645 S
H445 N441 0.985 1_655 S
H446 N440 0.984 . S
H447 N440 0.984 . S
H448 N436 0.984 . S
H449 N436 0.985 . S
C450 C451 1.363 . S
C450 C456 1.379 . S
C450 N458 1.356 . S
C451 C450 1.363 . S
C451 C457 1.363 . S
C452 C453 1.363 . S
C452 C457 1.379 . S
C452 N459 1.356 . S
C453 C452 1.363 . S
C453 C456 1.363 . S
N454 C456 1.356 . S
N454 H466 0.984 . S
N454 H467 0.985 . S
N455 C457 1.356 . S
N455 H460 0.984 . S
N455 H461 0.985 . S
C456 C450 1.379 . S
C456 C453 1.363 . S
C456 N454 1.356 . S
C457 C451 1.363 . S
C457 C452 1.379 . S
C457 N455 1.356 . S
N458 C450 1.356 . S
N458 H464 0.984 . S
N458 H465 0.984 . S
N459 C452 1.356 . S
N459 H462 0.984 . S
N459 H463 0.985 . S
H460 N455 0.984 . S
H461 N455 0.985 . S
H462 N459 0.984 . S
H463 N459 0.985 . S
H464 N458 0.984 . S
H465 N458 0.984 . S
H466 N454 0.984 . S
H467 N454 0.985 . S
C468 C469 1.363 . S
C468 C474 1.379 . S
C468 N476 1.356 . S
C469 C468 1.363 . S
C469 C475 1.363 . S
C470 C471 1.363 . S
C470 C475 1.379 . S
C470 N477 1.356 . S
C471 C470 1.363 . S
C471 C474 1.363 . S
N472 C474 1.356 . S
N472 H484 0.984 . S
N472 H485 0.985 . S
N473 C475 1.356 . S
N473 H478 0.984 . S
N473 H479 0.985 . S
C474 C468 1.379 . S
C474 C471 1.363 . S
C474 N472 1.356 . S
C475 C469 1.363 . S
C475 C470 1.379 . S
C475 N473 1.356 . S
N476 C468 1.356 . S
N476 H482 0.984 . S
N476 H483 0.984 . S
N477 C470 1.356 . S
N477 H480 0.984 . S
N477 H481 0.985 . S
H478 N473 0.984 . S
H479 N473 0.985 . S
H480 N477 0.984 . S
H481 N477 0.985 . S
H482 N476 0.984 . S
H483 N476 0.984 . S
H484 N472 0.984 . S
H485 N472 0.985 . S
C486 C487 1.363 . S
C486 C492 1.379 . S
C486 N494 1.356 . S
C487 C486 1.363 . S
C487 C493 1.363 . S
C488 C489 1.363 1_545 S
C488 C493 1.379 1_545 S
C488 N495 1.356 . S
C489 C488 1.363 1_565 S
C489 C492 1.363 . S
N490 C492 1.356 . S
N490 H502 0.984 . S
N490 H503 0.985 . S
N491 C493 1.356 . S
N491 H496 0.984 . S
N491 H497 0.989 . S
C492 C486 1.379 . S
C492 C489 1.363 . S
C492 N490 1.356 . S
C493 C487 1.363 . S
C493 C488 1.379 1_565 S
C493 N491 1.356 . S
N494 C486 1.356 . S
N494 H500 0.984 . S
N494 H501 0.984 . S
N495 C488 1.356 . S
N495 H498 0.984 . S
N495 H499 0.985 . S
H496 N491 0.984 . S
H497 N491 0.989 . S
H498 N495 0.984 . S
H499 N495 0.985 . S
H500 N494 0.984 . S
H501 N494 0.984 . S
H502 N490 0.984 . S
H503 N490 0.985 . S
C504 C505 1.363 . S
C504 C510 1.379 1_545 S
C504 N512 1.356 . S
C505 C504 1.363 . S
C505 C511 1.363 . S
C506 C507 1.363 . S
C506 C511 1.379 . S
C506 N513 1.356 . S
C507 C506 1.363 . S
C507 C510 1.363 1_545 S
N508 C510 1.356 . S
N508 H520 0.984 . S
N508 H521 0.985 . S
N509 C511 1.356 . S
N509 H514 0.984 . S
N509 H515 0.985 . S
C510 C504 1.379 1_565 S
C510 C507 1.363 1_565 S
C510 N508 1.356 . S
C511 C505 1.363 . S
C511 C506 1.379 . S
C511 N509 1.356 . S
N512 C504 1.356 . S
N512 H518 0.984 1_545 S
N512 H519 0.984 . S
N513 C506 1.356 . S
N513 H516 0.984 . S
N513 H517 0.984 1_655 S
H514 N509 0.984 . S
H515 N509 0.985 . S
H516 N513 0.984 . S
H517 N513 0.984 1_455 S
H518 N512 0.984 1_565 S
H519 N512 0.984 . S
H520 N508 0.984 . S
H521 N508 0.985 . S
C522 C523 1.363 . S
C522 C528 1.379 . S
C522 N530 1.356 . S
C523 C522 1.363 . S
C523 C529 1.363 . S
C524 C525 1.363 . S
C524 C529 1.379 . S
C524 N531 1.356 . S
C525 C524 1.363 . S
C525 C528 1.363 . S
N526 C528 1.356 . S
N526 H538 0.984 . S
N526 H539 0.985 . S
N527 C529 1.356 . S
N527 H532 0.984 . S
N527 H533 0.985 . S
C528 C522 1.379 . S
C528 C525 1.363 . S
C528 N526 1.356 . S
C529 C523 1.363 . S
C529 C524 1.379 . S
C529 N527 1.356 . S
N530 C522 1.356 . S
N530 H536 0.984 . S
N530 H537 0.984 . S
N531 C524 1.356 . S
N531 H534 0.984 . S
N531 H535 0.985 . S
H532 N527 0.984 . S
H533 N527 0.985 . S
H534 N531 0.984 . S
H535 N531 0.985 . S
H536 N530 0.984 . S
H537 N530 0.984 . S
H538 N526 0.984 . S
H539 N526 0.985 . S
C540 C541 1.363 . S
C540 C546 1.379 . S
C540 N548 1.356 . S
C541 C540 1.363 . S
C541 C547 1.363 . S
C542 C543 1.363 . S
C542 C547 1.379 . S
C542 N549 1.356 . S
C543 C542 1.363 . S
C543 C546 1.363 . S
N544 C546 1.356 . S
N544 H556 0.984 . S
N544 H557 0.985 . S
N545 C547 1.356 . S
N545 H550 0.984 . S
N545 H551 0.985 . S
C546 C540 1.379 . S
C546 C543 1.363 . S
C546 N544 1.356 . S
C547 C541 1.363 . S
C547 C542 1.379 . S
C547 N545 1.356 . S
N548 C540 1.356 . S
N548 H554 0.984 . S
N548 H555 0.984 . S
N549 C542 1.356 . S
N549 H552 0.984 . S
N549 H553 0.985 . S
H550 N545 0.984 . S
H551 N545 0.985 . S
H552 N549 0.984 . S
H553 N549 0.985 . S
H554 N548 0.984 . S
H555 N548 0.984 . S
H556 N544 0.984 . S
H557 N544 0.985 . S
C558 C559 1.363 . S
C558 C564 1.379 . S
C558 N566 1.356 . S
C559 C558 1.363 . S
C559 C565 1.363 . S
C560 C561 1.363 1_565 S
C560 C565 1.379 1_565 S
C560 N567 1.356 . S
C561 C560 1.363 1_545 S
C561 C564 1.363 . S
N562 C564 1.356 . S
N562 H574 0.984 . S
N562 H575 0.985 . S
N563 C565 1.356 . S
N563 H568 0.984 . S
N563 H569 0.985 . S
C564 C558 1.379 . S
C564 C561 1.363 . S
C564 N562 1.356 . S
C565 C559 1.363 . S
C565 C560 1.379 1_545 S
C565 N563 1.356 . S
N566 C558 1.356 . S
N566 H572 0.984 . S
N566 H573 0.984 . S
N567 C560 1.356 . S
N567 H570 0.984 . S
N567 H571 0.985 . S
H568 N563 0.984 . S
H569 N563 0.985 . S
H570 N567 0.984 . S
H571 N567 0.985 . S
H572 N566 0.984 . S
H573 N566 0.984 . S
H574 N562 0.984 . S
H575 N562 0.985 . S
C576 C577 1.363 . S
C576 C582 1.379 1_556 S
C576 N584 1.356 . S
C577 C576 1.363 . S
C577 C583 1.363 . S
C578 C579 1.363 . S
C578 C583 1.379 1_554 S
C578 N585 1.356 . S
C579 C578 1.363 . S
C579 C582 1.363 . S
N580 C582 1.356 . S
N580 H592 0.984 1_545 S
N580 H593 0.985 . S
N581 C583 1.356 . S
N581 H586 0.984 . S
N581 H587 0.985 . S
C582 C576 1.379 1_554 S
C582 C579 1.363 . S
C582 N580 1.356 . S
C583 C577 1.363 . S
C583 C578 1.379 1_556 S
C583 N581 1.356 . S
N584 C576 1.356 . S
N584 H590 0.984 . S
N584 H591 0.984 . S
N585 C578 1.356 . S
N585 H588 0.984 . S
N585 H589 0.985 . S
H586 N581 0.984 . S
H587 N581 0.985 . S
H588 N585 0.984 . S
H589 N585 0.985 . S
H590 N584 0.984 . S
H591 N584 0.984 . S
H592 N580 0.984 1_565 S
H593 N580 0.985 . S
C594 C595 1.363 . S
C594 C600 1.379 . S
C594 N602 1.356 . S
C595 C594 1.363 . S
C595 C601 1.363 . S
C596 C597 1.363 . S
C596 C601 1.379 . S
C596 N603 1.356 . S
C597 C596 1.363 . S
C597 C600 1.363 . S
N598 C600 1.356 . S
N598 H610 0.984 . S
N598 H611 0.985 . S
N599 C601 1.356 . S
N599 H604 0.984 . S
N599 H605 0.985 . S
C600 C594 1.379 . S
C600 C597 1.363 . S
C600 N598 1.356 . S
C601 C595 1.363 . S
C601 C596 1.379 . S
C601 N599 1.356 . S
N602 C594 1.356 . S
N602 H608 0.984 . S
N602 H609 0.984 . S
N603 C596 1.356 . S
N603 H606 0.984 . S
N603 H607 0.985 . S
H604 N599 0.984 . S
H605 N599 0.985 . S
H606 N603 0.984 . S
H607 N603 0.985 . S
H608 N602 0.984 . S
H609 N602 0.984 . S
H610 N598 0.984 . S
H611 N598 0.985 . S
C612 C613 1.363 . S
C612 C618 1.400 . S
C612 N620 1.356 . S
C613 C612 1.363 . S
C613 C619 1.363 . S
C614 C615 1.363 . S
C614 C619 1.379 1_556 S
C614 N621 1.356 . S
C615 C614 1.363 . S
C615 C618 1.343 1_556 S
N616 C618 1.348 1_556 S
N616 H628 0.984 1_556 S
N616 H629 0.985 . S
N617 C619 1.356 . S
N617 H622 0.984 . S
N617 H623 0.985 . S
C618 C612 1.400 . S
C618 C615 1.343 1_554 S
C618 N616 1.348 1_554 S
C619 C613 1.363 . S
C619 C614 1.379 1_554 S
C619 N617 1.356 . S
N620 C612 1.356 . S
N620 H626 0.984 . S
N620 H627 0.984 . S
N621 C614 1.356 . S
N621 H624 0.984 . S
N621 H625 0.985 . S
H622 N617 0.984 . S
H623 N617 0.985 . S
H624 N621 0.984 . S
H625 N621 0.985 . S
H626 N620 0.984 . S
H627 N620 0.984 . S
H628 N616 0.984 1_554 S
H629 N616 0.985 . S
C630 C631 1.363 . S
C630 C636 1.379 . S
C630 N638 1.356 . S
C631 C630 1.363 . S
C631 C637 1.363 . S
C632 C633 1.363 . S
C632 C637 1.379 . S
C632 N639 1.356 . S
C633 C632 1.363 . S
C633 C636 1.363 . S
N634 C636 1.356 . S
N634 H646 0.984 . S
N634 H647 0.985 . S
N635 C637 1.356 . S
N635 H640 0.984 . S
N635 H641 0.985 . S
C636 C630 1.379 . S
C636 C633 1.363 . S
C636 N634 1.356 . S
C637 C631 1.363 . S
C637 C632 1.379 . S
C637 N635 1.356 . S
N638 C630 1.356 . S
N638 H644 0.984 . S
N638 H645 0.984 . S
N639 C632 1.356 . S
N639 H642 0.984 . S
N639 H643 0.985 . S
H640 N635 0.984 . S
H641 N635 0.985 . S
H642 N639 0.984 . S
H643 N639 0.985 . S
H644 N638 0.984 . S
H645 N638 0.984 . S
H646 N634 0.984 . S
H647 N634 0.985 . S
C648 C649 1.363 . S
C648 C654 1.379 1_554 S
C648 N656 1.356 . S
C649 C648 1.363 . S
C649 C655 1.363 . S
C650 C651 1.363 . S
C650 C655 1.379 1_556 S
C650 N657 1.356 . S
C651 C650 1.363 . S
C651 C654 1.363 . S
N652 C654 1.356 . S
N652 H664 0.984 . S
N652 H665 0.985 . S
N653 C655 1.356 . S
N653 H658 0.984 . S
N653 H659 0.985 . S
C654 C648 1.379 1_556 S
C654 C651 1.363 . S
C654 N652 1.356 . S
C655 C649 1.363 . S
C655 C650 1.379 1_554 S
C655 N653 1.356 . S
N656 C648 1.356 . S
N656 H662 0.984 . S
N656 H663 0.984 . S
N657 C650 1.356 . S
N657 H660 0.984 . S
N657 H661 0.985 . S
H658 N653 0.984 . S
H659 N653 0.985 . S
H660 N657 0.984 . S
H661 N657 0.985 . S
H662 N656 0.984 . S
H663 N656 0.984 . S
H664 N652 0.984 . S
H665 N652 0.985 . S
C666 C667 1.363 . S
C666 C672 1.379 . S
C666 N674 1.356 . S
C667 C666 1.363 . S
C667 C673 1.363 . S
C668 C669 1.363 . S
C668 C673 1.379 . S
C668 N675 1.356 . S
C669 C668 1.363 . S
C669 C672 1.363 . S
N670 C672 1.356 . S
N670 H682 0.984 . S
N670 H683 0.985 . S
N671 C673 1.356 . S
N671 H676 0.984 . S
N671 H677 0.985 . S
C672 C666 1.379 . S
C672 C669 1.363 . S
C672 N670 1.356 . S
C673 C667 1.363 . S
C673 C668 1.379 . S
C673 N671 1.356 . S
N674 C666 1.356 . S
N674 H680 0.984 . S
N674 H681 0.984 . S
N675 C668 1.356 . S
N675 H678 0.984 . S
N675 H679 0.985 . S
H676 N671 0.984 . S
H677 N671 0.985 . S
H678 N675 0.984 . S
H679 N675 0.985 . S
H680 N674 0.984 . S
H681 N674 0.984 . S
H682 N670 0.984 . S
H683 N670 0.985 . S
C684 C685 1.363 . S
C684 C690 1.379 1_556 S
C684 N692 1.356 . S
C685 C684 1.363 . S
C685 C691 1.363 . S
C686 C687 1.363 . S
C686 C691 1.379 1_554 S
C686 N693 1.356 . S
C687 C686 1.363 . S
C687 C690 1.363 . S
N688 C690 1.356 . S
N688 H700 0.984 . S
N688 H701 0.985 . S
N689 C691 1.356 . S
N689 H694 0.984 . S
N689 H695 0.985 . S
C690 C684 1.379 1_554 S
C690 C687 1.363 . S
C690 N688 1.356 . S
C691 C685 1.363 . S
C691 C686 1.379 1_556 S
C691 N689 1.356 . S
N692 C684 1.356 . S
N692 H698 0.984 . S
N692 H699 0.984 . S
N693 C686 1.356 . S
N693 H696 0.984 . S
N693 H697 0.985 . S
H694 N689 0.984 . S
H695 N689 0.985 . S
H696 N693 0.984 . S
H697 N693 0.985 . S
H698 N692 0.984 . S
H699 N692 0.984 . S
H700 N688 0.984 . S
H701 N688 0.985 . S
C702 C703 1.363 . S
C702 C708 1.379 . S
C702 N710 1.356 . S
C703 C702 1.363 . S
C703 C709 1.363 . S
C704 C705 1.363 . S
C704 C709 1.379 . S
C704 N711 1.356 . S
C705 C704 1.363 . S
C705 C708 1.363 . S
N706 C708 1.356 . S
N706 H718 0.984 . S
N706 H719 0.985 . S
N707 C709 1.356 . S
N707 H712 0.984 . S
N707 H713 0.985 . S
C708 C702 1.379 . S
C708 C705 1.363 . S
C708 N706 1.356 . S
C709 C703 1.363 . S
C709 C704 1.379 . S
C709 N707 1.356 . S
N710 C702 1.356 . S
N710 H716 0.984 . S
N710 H717 0.984 . S
N711 C704 1.356 . S
N711 H714 0.984 . S
N711 H715 0.985 . S
H712 N707 0.984 . S
H713 N707 0.985 . S
H714 N711 0.984 . S
H715 N711 0.985 . S
H716 N710 0.984 . S
H717 N710 0.984 . S
H718 N706 0.984 . S
H719 N706 0.985 . S
C720 C721 1.363 . S
C720 C726 1.379 . S
C720 N728 1.356 . S
C721 C720 1.363 . S
C721 C727 1.363 . S
C722 C723 1.363 . S
C722 C727 1.379 . S
C722 N729 1.356 . S
C723 C722 1.363 . S
C723 C726 1.363 . S
N724 C726 1.356 . S
N724 H736 0.984 . S
N724 H737 0.985 . S
N725 C727 1.356 . S
N725 H730 0.984 . S
N725 H731 0.985 . S
C726 C720 1.379 . S
C726 C723 1.363 . S
C726 N724 1.356 . S
C727 C721 1.363 . S
C727 C722 1.379 . S
C727 N725 1.356 . S
N728 C720 1.356 . S
N728 H734 0.984 . S
N728 H735 0.984 . S
N729 C722 1.356 . S
N729 H732 0.984 . S
N729 H733 0.985 . S
H730 N725 0.984 . S
H731 N725 0.985 . S
H732 N729 0.984 . S
H733 N729 0.985 . S
H734 N728 0.984 . S
H735 N728 0.984 . S
H736 N724 0.984 . S
H737 N724 0.985 . S
C738 C739 1.363 . S
C738 C744 1.379 . S
C738 N746 1.356 . S
C739 C738 1.363 . S
C739 C745 1.363 . S
C740 C741 1.363 . S
C740 C745 1.379 . S
C740 N747 1.356 . S
C741 C740 1.363 . S
C741 C744 1.363 . S
N742 C744 1.356 . S
N742 H754 0.984 . S
N742 H755 0.985 . S
N743 C745 1.356 . S
N743 H748 0.984 . S
N743 H749 0.985 . S
C744 C738 1.379 . S
C744 C741 1.363 . S
C744 N742 1.356 . S
C745 C739 1.363 . S
C745 C740 1.379 . S
C745 N743 1.356 . S
N746 C738 1.356 . S
N746 H752 0.984 . S
N746 H753 0.984 . S
N747 C740 1.356 . S
N747 H750 0.984 . S
N747 H751 0.985 . S
H748 N743 0.984 . S
H749 N743 0.985 . S
H750 N747 0.984 . S
H751 N747 0.985 . S
H752 N746 0.984 . S
H753 N746 0.984 . S
H754 N742 0.984 . S
H755 N742 0.985 . S
C756 C757 1.363 . S
C756 C762 1.379 . S
C756 N764 1.356 . S
C757 C756 1.363 . S
C757 C763 1.363 . S
C758 C759 1.363 . S
C758 C763 1.379 . S
C758 N765 1.356 . S
C759 C758 1.363 . S
C759 C762 1.363 . S
N760 C762 1.356 . S
N760 H772 0.984 . S
N760 H773 0.985 . S
N761 C763 1.356 . S
N761 H766 0.984 . S
N761 H767 0.985 . S
C762 C756 1.379 . S
C762 C759 1.363 . S
C762 N760 1.356 . S
C763 C757 1.363 . S
C763 C758 1.379 . S
C763 N761 1.356 . S
N764 C756 1.356 . S
N764 H770 0.984 . S
N764 H771 0.984 . S
N765 C758 1.356 . S
N765 H768 0.984 . S
N765 H769 0.985 . S
H766 N761 0.984 . S
H767 N761 0.985 . S
H768 N765 0.984 . S
H769 N765 0.985 . S
H770 N764 0.984 . S
H771 N764 0.984 . S
H772 N760 0.984 . S
H773 N760 0.985 . S
C774 C775 1.363 . S
C774 C780 1.379 . S
C774 N782 1.356 . S
C775 C774 1.363 . S
C775 C781 1.363 . S
C776 C777 1.363 . S
C776 C781 1.379 . S
C776 N783 1.356 . S
C777 C776 1.363 . S
C777 C780 1.363 . S
N778 C780 1.356 1_455 S
N778 H790 0.984 . S
N778 H791 0.985 . S
N779 C781 1.356 . S
N779 H784 0.984 . S
N779 H785 0.985 . S
C780 C774 1.379 . S
C780 C777 1.363 . S
C780 N778 1.356 1_655 S
C781 C775 1.363 . S
C781 C776 1.379 . S
C781 N779 1.356 . S
N782 C774 1.356 . S
N782 H788 0.984 . S
N782 H789 0.984 . S
N783 C776 1.356 . S
N783 H786 0.984 . S
N783 H787 0.985 . S
H784 N779 0.984 . S
H785 N779 0.985 . S
H786 N783 0.984 . S
H787 N783 0.985 . S
H788 N782 0.984 . S
H789 N782 0.984 . S
H790 N778 0.984 . S
H791 N778 0.985 . S
C792 C793 1.363 . S
C792 C798 1.379 . S
C792 N800 1.356 . S
C793 C792 1.363 . S
C793 C799 1.363 . S
C794 C795 1.363 . S
C794 C799 1.379 . S
C794 N801 1.356 . S
C795 C794 1.363 . S
C795 C798 1.363 . S
N796 C798 1.356 . S
N796 H808 0.984 1_655 S
N796 H809 0.985 1_655 S
N797 C799 1.356 . S
N797 H802 0.984 . S
N797 H803 0.985 . S
C798 C792 1.379 . S
C798 C795 1.363 . S
C798 N796 1.356 . S
C799 C793 1.363 . S
C799 C794 1.379 . S
C799 N797 1.356 . S
N800 C792 1.356 . S
N800 H806 0.984 . S
N800 H807 0.984 . S
N801 C794 1.356 . S
N801 H804 0.984 . S
N801 H805 0.985 . S
H802 N797 0.984 . S
H803 N797 0.985 . S
H804 N801 0.984 . S
H805 N801 0.985 . S
H806 N800 0.984 . S
H807 N800 0.984 . S
H808 N796 0.984 1_455 S
H809 N796 0.985 1_455 S
C810 C811 1.363 . S
C810 C816 1.379 . S
C810 N818 1.356 . S
C811 C810 1.363 . S
C811 C817 1.363 . S
C812 C813 1.363 . S
C812 C817 1.379 . S
C812 N819 1.356 . S
C813 C812 1.363 . S
C813 C816 1.363 . S
N814 C816 1.356 . S
N814 H826 0.984 . S
N814 H827 0.985 . S
N815 C817 1.356 . S
N815 H820 0.984 . S
N815 H821 0.985 . S
C816 C810 1.379 . S
C816 C813 1.363 . S
C816 N814 1.356 . S
C817 C811 1.363 . S
C817 C812 1.379 . S
C817 N815 1.356 . S
N818 C810 1.356 . S
N818 H824 0.984 . S
N818 H825 0.984 . S
N819 C812 1.356 . S
N819 H822 0.984 . S
N819 H823 0.985 . S
H820 N815 0.984 . S
H821 N815 0.985 . S
H822 N819 0.984 . S
H823 N819 0.985 . S
H824 N818 0.984 . S
H825 N818 0.984 . S
H826 N814 0.984 . S
H827 N814 0.985 . S
C828 C829 1.363 . S
C828 C834 1.379 . S
C828 N836 1.356 . S
C829 C828 1.363 . S
C829 C835 1.363 . S
C830 C831 1.363 . S
C830 C835 1.379 . S
C830 N837 1.356 . S
C831 C830 1.363 . S
C831 C834 1.363 . S
N832 C834 1.356 . S
N832 H844 0.984 . S
N832 H845 0.985 . S
N833 C835 1.356 . S
N833 H838 0.984 . S
N833 H839 0.985 . S
C834 C828 1.379 . S
C834 C831 1.363 . S
C834 N832 1.356 . S
C835 C829 1.363 . S
C835 C830 1.379 . S
C835 N833 1.356 . S
N836 C828 1.356 . S
N836 H842 0.984 . S
N836 H843 0.984 . S
N837 C830 1.356 . S
N837 H840 0.984 . S
N837 H841 0.985 . S
H838 N833 0.984 . S
H839 N833 0.985 . S
H840 N837 0.984 . S
H841 N837 0.985 . S
H842 N836 0.984 . S
H843 N836 0.984 . S
H844 N832 0.984 . S
H845 N832 0.985 . S
C846 C847 1.363 . S
C846 C852 1.379 . S
C846 N854 1.356 . S
C847 C846 1.363 . S
C847 C853 1.363 . S
C848 C849 1.363 . S
C848 C853 1.379 . S
C848 N855 1.356 . S
C849 C848 1.363 . S
C849 C852 1.363 . S
N850 C852 1.356 . S
N850 H862 0.984 1_455 S
N850 H863 0.985 . S
N851 C853 1.356 . S
N851 H856 0.984 . S
N851 H857 0.985 . S
C852 C846 1.379 . S
C852 C849 1.363 . S
C852 N850 1.356 . S
C853 C847 1.363 . S
C853 C848 1.379 . S
C853 N851 1.356 . S
N854 C846 1.356 . S
N854 H860 0.984 . S
N854 H861 0.984 . S
N855 C848 1.356 . S
N855 H858 0.984 . S
N855 H859 0.985 . S
H856 N851 0.984 . S
H857 N851 0.985 . S
H858 N855 0.984 . S
H859 N855 0.985 . S
H860 N854 0.984 . S
H861 N854 0.984 . S
H862 N850 0.984 1_655 S
H863 N850 0.985 . S
C433 C81 1.676 . S
C435 C170 1.664 1_565 S
C453 C254 1.664 . S
C451 C93 1.676 . S
C471 C247 1.665 . S
C469 C57 1.675 . S
C487 C69 1.675 . S
C489 C163 1.665 1_565 S
C507 C327 1.664 1_545 S
C505 C33 1.671 . S
C525 C411 1.664 . S
C523 C45 1.671 . S
C541 C9 1.668 . S
C543 C404 1.665 . S
C559 C21 1.668 . S
C561 C320 1.665 1_545 S
C579 C154 1.446 . S
C577 C18 1.604 . S
C597 C238 1.446 . S
C595 C6 1.604 . S
C615 C249 1.366 . S
C613 C42 1.603 . S
C633 C165 1.366 . S
C631 C30 1.602 . S
C651 C333 1.446 . S
C649 C66 1.612 . S
C667 C54 1.612 . S
C669 C417 1.446 . S
C687 C406 1.366 . S
C685 C90 1.609 . S
C703 C78 1.609 . S
C705 C322 1.366 . S
C723 C152 1.522 . S
C721 C4 1.505 . S
C741 C236 1.522 . S
C739 C16 1.505 . S
C757 C28 1.500 . S
C759 C243 1.490 . S
C777 C159 1.490 . S
C775 C40 1.500 . S
C795 C331 1.522 . S
C793 C52 1.498 . S
C811 C64 1.498 . S
C813 C415 1.522 . S
C829 C76 1.494 . S
C831 C422 1.490 . S
C847 C88 1.495 . S
C849 C338 1.490 . S
