# Generated by pormake.
# Topology pto, (3,4)-cn, num edge types: 1
# Building blocks:
#     Node 0, Type 0, BuildingBlock: WUSLED_clean_sbu_0, # of connection points: 3
#     Node 1, Type 0, BuildingBlock: WUSLED_clean_sbu_0, # of connection points: 3
#     Node 2, Type 0, BuildingBlock: WUSLED_clean_sbu_0, # of connection points: 3
#     Node 3, Type 0, BuildingBlock: WUSLED_clean_sbu_0, # of connection points: 3
#     Node 4, Type 0, BuildingBlock: WUSLED_clean_sbu_0, # of connection points: 3
#     Node 5, Type 0, BuildingBlock: WUSLED_clean_sbu_0, # of connection points: 3
#     Node 6, Type 0, BuildingBlock: WUSLED_clean_sbu_0, # of connection points: 3
#     Node 7, Type 0, BuildingBlock: WUSLED_clean_sbu_0, # of connection points: 3
#     Node 8, Type 1, BuildingBlock: AZAVOO_clean_linker_0, # of connection points: 4
#     Node 9, Type 1, BuildingBlock: AZAVOO_clean_linker_0, # of connection points: 4
#     Node 10, Type 1, BuildingBlock: AZAVOO_clean_linker_0, # of connection points: 4
#     Node 11, Type 1, BuildingBlock: AZAVOO_clean_linker_0, # of connection points: 4
#     Node 12, Type 1, BuildingBlock: AZAVOO_clean_linker_0, # of connection points: 4
#     Node 13, Type 1, BuildingBlock: AZAVOO_clean_linker_0, # of connection points: 4
#     Edge 14, Type (0, 1), BuildingBlock: EZIPEK_clean_linker_0, # of connection points: 2
#     Edge 15, Type (0, 1), BuildingBlock: EZIPEK_clean_linker_0, # of connection points: 2
#     Edge 16, Type (0, 1), BuildingBlock: EZIPEK_clean_linker_0, # of connection points: 2
#     Edge 17, Type (0, 1), BuildingBlock: EZIPEK_clean_linker_0, # of connection points: 2
#     Edge 18, Type (0, 1), BuildingBlock: EZIPEK_clean_linker_0, # of connection points: 2
#     Edge 19, Type (0, 1), BuildingBlock: EZIPEK_clean_linker_0, # of connection points: 2
#     Edge 20, Type (0, 1), BuildingBlock: EZIPEK_clean_linker_0, # of connection points: 2
#     Edge 21, Type (0, 1), BuildingBlock: EZIPEK_clean_linker_0, # of connection points: 2
#     Edge 22, Type (0, 1), BuildingBlock: EZIPEK_clean_linker_0, # of connection points: 2
#     Edge 23, Type (0, 1), BuildingBlock: EZIPEK_clean_linker_0, # of connection points: 2
#     Edge 24, Type (0, 1), BuildingBlock: EZIPEK_clean_linker_0, # of connection points: 2
#     Edge 25, Type (0, 1), BuildingBlock: EZIPEK_clean_linker_0, # of connection points: 2
#     Edge 26, Type (0, 1), BuildingBlock: EZIPEK_clean_linker_0, # of connection points: 2
#     Edge 27, Type (0, 1), BuildingBlock: EZIPEK_clean_linker_0, # of connection points: 2
#     Edge 28, Type (0, 1), BuildingBlock: EZIPEK_clean_linker_0, # of connection points: 2
#     Edge 29, Type (0, 1), BuildingBlock: EZIPEK_clean_linker_0, # of connection points: 2
#     Edge 30, Type (0, 1), BuildingBlock: EZIPEK_clean_linker_0, # of connection points: 2
#     Edge 31, Type (0, 1), BuildingBlock: EZIPEK_clean_linker_0, # of connection points: 2
#     Edge 32, Type (0, 1), BuildingBlock: EZIPEK_clean_linker_0, # of connection points: 2
#     Edge 33, Type (0, 1), BuildingBlock: EZIPEK_clean_linker_0, # of connection points: 2
#     Edge 34, Type (0, 1), BuildingBlock: EZIPEK_clean_linker_0, # of connection points: 2
#     Edge 35, Type (0, 1), BuildingBlock: EZIPEK_clean_linker_0, # of connection points: 2
#     Edge 36, Type (0, 1), BuildingBlock: EZIPEK_clean_linker_0, # of connection points: 2
#     Edge 37, Type (0, 1), BuildingBlock: EZIPEK_clean_linker_0, # of connection points: 2
# Relax obj value: 0.059
# Max RMSD: 0.245
# Mean RMSD: 0.095
data_MOF--net-pto--node1-WUSLED_clean_sbu_0--node2-AZAVOO_clean_linker_0--edge1-EZIPEK_clean_linker_0
_symmetry_space_group_name_H-M    P1
_symmetry_Int_Tables_number       1
_symmetry_cell_setting            triclinic
loop_
_symmetry_equiv_pos_as_xyz
'x, y, z'
_cell_length_a     49.973924
_cell_length_b     49.926952
_cell_length_c     49.665227
_cell_angle_alpha  89.634758
_cell_angle_beta   90.883686
_cell_angle_gamma 91.144335
loop_
_atom_site_label
_atom_site_type_symbol
_atom_site_fract_x
_atom_site_fract_y
_atom_site_fract_z
_atom_type_partial_charge
C0 C 0.25034 0.25338 0.31194 0.0
C1 C 0.27201 0.23611 0.30942 0.0
C2 C 0.25528 0.20858 0.34639 0.0
C3 C 0.27448 0.21387 0.32657 0.0
C4 C 0.23355 0.22577 0.34874 0.0
C5 C 0.23112 0.24801 0.33164 0.0
U6 U 0.2728 0.29621 0.25209 0.0
O7 O 0.24953 0.31718 0.22087 0.0
O8 O 0.27633 0.3402 0.24793 0.0
C9 C 0.25794 0.34105 0.22874 0.0
C10 C 0.24761 0.27708 0.29435 0.0
C11 C 0.23744 0.36192 0.23096 0.0
C12 C 0.19105 0.37564 0.23109 0.0
C13 C 0.21012 0.35549 0.23278 0.0
C14 C 0.22618 0.40907 0.22843 0.0
C15 C 0.19847 0.40277 0.2259 0.0
C16 C 0.24529 0.38896 0.22996 0.0
C17 C 0.33206 0.27208 0.21058 0.0
C18 C 0.34549 0.29099 0.16745 0.0
C19 C 0.37222 0.25673 0.18898 0.0
C20 C 0.35448 0.25565 0.21047 0.0
C21 C 0.36776 0.27425 0.16726 0.0
C22 C 0.32772 0.28992 0.18902 0.0
C23 C 0.3132 0.26967 0.23299 0.0
O24 O 0.26732 0.29486 0.29595 0.0
O25 O 0.2398 0.2722 0.26945 0.0
O26 O 0.2881 0.26467 0.22613 0.0
O27 O 0.31592 0.28769 0.25206 0.0
H28 H 0.28702 0.23992 0.29429 0.0
H29 H 0.29138 0.20082 0.32448 0.0
H30 H 0.21856 0.222 0.36391 0.0
H31 H 0.21426 0.2611 0.33386 0.0
H32 H 0.17045 0.36949 0.23391 0.0
H33 H 0.2034 0.33487 0.23519 0.0
H34 H 0.23375 0.42938 0.22953 0.0
H35 H 0.26635 0.3946 0.23007 0.0
H36 H 0.34181 0.30466 0.15085 0.0
H37 H 0.38932 0.24372 0.18916 0.0
H38 H 0.35813 0.24177 0.22692 0.0
H39 H 0.3105 0.30277 0.18878 0.0
C40 C 0.25322 0.82604 0.69912 0.0
C41 C 0.2687 0.84873 0.70647 0.0
C42 C 0.26119 0.8685 0.66196 0.0
C43 C 0.27266 0.86983 0.68798 0.0
C44 C 0.24595 0.8457 0.65466 0.0
C45 C 0.24201 0.8247 0.67307 0.0
U46 U 0.26578 0.78395 0.76417 0.0
O47 O 0.23604 0.7644 0.79055 0.0
O48 O 0.26457 0.74007 0.76878 0.0
C49 C 0.2438 0.74016 0.78469 0.0
C50 C 0.24796 0.80365 0.71808 0.0
C51 C 0.22242 0.72001 0.77915 0.0
C52 C 0.19143 0.69638 0.74882 0.0
C53 C 0.21097 0.71655 0.75335 0.0
C54 C 0.19444 0.68326 0.7958 0.0
C55 C 0.18315 0.67952 0.77004 0.0
C56 C 0.21387 0.70333 0.8003 0.0
C57 C 0.32144 0.8025 0.81588 0.0
C58 C 0.34764 0.77368 0.84561 0.0
C59 C 0.34447 0.82094 0.85545 0.0
C60 C 0.32802 0.82431 0.83262 0.0
C61 C 0.35472 0.79569 0.86189 0.0
C62 C 0.33105 0.77701 0.82285 0.0
C63 C 0.30581 0.80714 0.79069 0.0
O64 O 0.26633 0.78523 0.71979 0.0
O65 O 0.23816 0.80993 0.74158 0.0
O66 O 0.28075 0.81396 0.79353 0.0
O67 O 0.30905 0.78996 0.7711 0.0
H68 H 0.27757 0.85016 0.72646 0.0
H69 H 0.28454 0.88723 0.69398 0.0
H70 H 0.23696 0.84424 0.63472 0.0
H71 H 0.23001 0.80739 0.66698 0.0
H72 H 0.18295 0.69375 0.72879 0.0
H73 H 0.21731 0.72922 0.73675 0.0
H74 H 0.18832 0.67047 0.8124 0.0
H75 H 0.22247 0.70566 0.82034 0.0
H76 H 0.35546 0.75407 0.8502 0.0
H77 H 0.34984 0.83818 0.86768 0.0
H78 H 0.32091 0.84413 0.82768 0.0
H79 H 0.32624 0.75979 0.8104 0.0
C80 C 0.70135 0.78167 0.22753 0.0
C81 C 0.7046 0.78494 0.19956 0.0
C82 C 0.65675 0.77729 0.19199 0.0
C83 C 0.68242 0.78275 0.18192 0.0
C84 C 0.65361 0.77363 0.21979 0.0
C85 C 0.67567 0.77583 0.23736 0.0
U86 U 0.77244 0.77023 0.25876 0.0
O87 O 0.80001 0.7995 0.27794 0.0
O88 O 0.7832 0.76624 0.30174 0.0
C89 C 0.7979 0.78835 0.30188 0.0
C90 C 0.72363 0.786 0.2472 0.0
C91 C 0.79365 0.80669 0.32441 0.0
C92 C 0.76893 0.84187 0.34599 0.0
C93 C 0.77175 0.82387 0.32472 0.0
C94 C 0.80954 0.82529 0.36697 0.0
C95 C 0.78797 0.84282 0.36712 0.0
C96 C 0.81234 0.80735 0.34576 0.0
C97 C 0.82317 0.72257 0.23065 0.0
C98 C 0.86692 0.71776 0.25226 0.0
C99 C 0.85274 0.68731 0.21676 0.0
C100 C 0.8285 0.70073 0.2141 0.0
C101 C 0.87202 0.69559 0.23599 0.0
C102 C 0.84262 0.73115 0.24963 0.0
C103 C 0.7969 0.73544 0.22878 0.0
O104 O 0.72881 0.76595 0.26362 0.0
O105 O 0.74532 0.79867 0.23878 0.0
O106 O 0.79748 0.76137 0.22394 0.0
O107 O 0.78001 0.72846 0.24771 0.0
H108 H 0.72412 0.78955 0.19137 0.0
H109 H 0.6852 0.78564 0.16051 0.0
H110 H 0.63397 0.76943 0.22792 0.0
H111 H 0.67256 0.77344 0.25879 0.0
H112 H 0.75222 0.85535 0.34578 0.0
H113 H 0.75711 0.82359 0.3084 0.0
H114 H 0.82444 0.82583 0.38304 0.0
H115 H 0.82934 0.79421 0.34583 0.0
H116 H 0.88147 0.72426 0.26736 0.0
H117 H 0.85626 0.67011 0.2042 0.0
H118 H 0.81372 0.69375 0.19944 0.0
H119 H 0.83879 0.74789 0.26272 0.0
C120 C 0.78697 0.16383 0.7481 0.0
C121 C 0.80861 0.16755 0.73068 0.0
C122 C 0.79426 0.12801 0.70549 0.0
C123 C 0.81226 0.14968 0.70947 0.0
C124 C 0.77297 0.12411 0.72324 0.0
C125 C 0.76937 0.1419 0.74441 0.0
U126 U 0.80188 0.22803 0.78896 0.0
O127 O 0.77341 0.25644 0.80538 0.0
O128 O 0.79922 0.23352 0.83281 0.0
C129 C 0.77869 0.24945 0.83044 0.0
C130 C 0.78187 0.18281 0.76983 0.0
C131 C 0.75536 0.24175 0.84671 0.0
C132 C 0.71238 0.21878 0.8515 0.0
C133 C 0.73412 0.22658 0.83567 0.0
C134 C 0.73254 0.24177 0.88944 0.0
C135 C 0.71188 0.22446 0.87943 0.0
C136 C 0.75415 0.24976 0.87353 0.0
C137 C 0.85989 0.27608 0.7741 0.0
C138 C 0.86384 0.3206 0.79344 0.0
C139 C 0.90244 0.30031 0.7743 0.0
C140 C 0.88688 0.27775 0.76733 0.0
C141 C 0.89191 0.32152 0.78952 0.0
C142 C 0.84831 0.29792 0.78666 0.0
C143 C 0.84415 0.25155 0.76791 0.0
O144 O 0.79992 0.18396 0.78934 0.0
O145 O 0.77355 0.2065 0.76211 0.0
O146 O 0.81963 0.25513 0.75874 0.0
O147 O 0.84568 0.23246 0.78617 0.0
H148 H 0.82237 0.18441 0.73327 0.0
H149 H 0.82873 0.15301 0.69585 0.0
H150 H 0.75886 0.10758 0.72037 0.0
H151 H 0.75258 0.13877 0.75769 0.0
H152 H 0.69603 0.20901 0.84095 0.0
H153 H 0.73413 0.22098 0.81462 0.0
H154 H 0.7321 0.2499 0.90952 0.0
H155 H 0.76989 0.2624 0.88218 0.0
H156 H 0.85306 0.33727 0.80108 0.0
H157 H 0.92273 0.30094 0.76714 0.0
H158 H 0.89598 0.26157 0.75653 0.0
H159 H 0.82713 0.29758 0.79104 0.0
C160 C 0.84908 0.71776 0.78949 0.0
C161 C 0.86654 0.72276 0.76804 0.0
C162 C 0.89368 0.68512 0.78216 0.0
C163 C 0.88873 0.70651 0.7644 0.0
C164 C 0.87637 0.68037 0.80375 0.0
C165 C 0.85423 0.6966 0.80739 0.0
U166 U 0.80297 0.77362 0.76642 0.0
O167 O 0.75904 0.77537 0.76528 0.0
O168 O 0.78234 0.80419 0.78977 0.0
C169 C 0.75842 0.79495 0.78281 0.0
C170 C 0.82514 0.73401 0.79306 0.0
C171 C 0.73913 0.7916 0.80477 0.0
C172 C 0.71793 0.76492 0.83997 0.0
C173 C 0.73721 0.76776 0.81987 0.0
C174 C 0.70265 0.8098 0.8303 0.0
C175 C 0.70047 0.78592 0.84522 0.0
C176 C 0.72182 0.81259 0.81022 0.0
C177 C 0.82017 0.81326 0.70255 0.0
C178 C 0.79086 0.84663 0.68283 0.0
C179 C 0.83484 0.84 0.66431 0.0
C180 C 0.83966 0.82004 0.68355 0.0
C181 C 0.81042 0.85341 0.66382 0.0
C182 C 0.79573 0.82668 0.70215 0.0
C183 C 0.82573 0.79222 0.7226 0.0
O184 O 0.82973 0.75936 0.79884 0.0
O185 O 0.80608 0.73047 0.77483 0.0
O186 O 0.80879 0.77174 0.72268 0.0
O187 O 0.83213 0.80072 0.74688 0.0
H188 H 0.86281 0.739 0.75398 0.0
H189 H 0.90178 0.71032 0.74753 0.0
H190 H 0.8798 0.66384 0.81753 0.0
H191 H 0.84095 0.69243 0.824 0.0
H192 H 0.7165 0.74635 0.8513 0.0
H193 H 0.75043 0.75134 0.81596 0.0
H194 H 0.68935 0.82618 0.83407 0.0
H195 H 0.72299 0.83111 0.79876 0.0
H196 H 0.77192 0.8568 0.68271 0.0
H197 H 0.85013 0.845 0.64979 0.0
H198 H 0.85863 0.80989 0.68361 0.0
H199 H 0.78048 0.82171 0.71674 0.0
C200 C 0.68076 0.26659 0.24288 0.0
C201 C 0.68145 0.28706 0.22338 0.0
C202 C 0.64101 0.26853 0.20231 0.0
C203 C 0.66165 0.28803 0.2032 0.0
C204 C 0.63996 0.24852 0.22224 0.0
C205 C 0.65974 0.24757 0.24242 0.0
U206 U 0.74797 0.28931 0.27345 0.0
O207 O 0.76152 0.29028 0.31581 0.0
O208 O 0.78205 0.26521 0.2868 0.0
C209 C 0.77943 0.27175 0.31219 0.0
C210 C 0.70252 0.26397 0.26285 0.0
C211 C 0.77833 0.24901 0.331 0.0
C212 C 0.75534 0.20963 0.34892 0.0
C213 C 0.75568 0.23194 0.33176 0.0
C214 C 0.80017 0.22138 0.3648 0.0
C215 C 0.77766 0.20415 0.36539 0.0
C216 C 0.8005 0.2437 0.34768 0.0
C217 C 0.78698 0.34879 0.2458 0.0
C218 C 0.82959 0.362 0.26644 0.0
C219 C 0.81364 0.38494 0.22627 0.0
C220 C 0.79061 0.36854 0.22593 0.0
C221 C 0.83326 0.38173 0.24651 0.0
C222 C 0.80659 0.34559 0.26606 0.0
C223 C 0.763 0.33131 0.24508 0.0
O224 O 0.72556 0.25684 0.25301 0.0
O225 O 0.70487 0.28334 0.28058 0.0
O226 O 0.74754 0.33281 0.26618 0.0
O227 O 0.76715 0.30656 0.23757 0.0
H228 H 0.69762 0.30185 0.22342 0.0
H229 H 0.66279 0.3035 0.18784 0.0
H230 H 0.62427 0.23324 0.22172 0.0
H231 H 0.659 0.23161 0.25729 0.0
H232 H 0.73784 0.19647 0.34917 0.0
H233 H 0.73845 0.23573 0.31888 0.0
H234 H 0.81755 0.21737 0.37739 0.0
H235 H 0.81815 0.25665 0.34722 0.0
H236 H 0.84456 0.3593 0.28218 0.0
H237 H 0.81622 0.40008 0.21076 0.0
H238 H 0.7757 0.3712 0.21013 0.0
H239 H 0.80411 0.33034 0.2815 0.0
C240 C 0.28256 0.19974 0.72547 0.0
C241 C 0.30352 0.18252 0.71961 0.0
C242 C 0.27608 0.16037 0.68523 0.0
C243 C 0.30034 0.16303 0.69965 0.0
C244 C 0.25508 0.17768 0.69093 0.0
C245 C 0.2583 0.19729 0.7109 0.0
U246 U 0.26978 0.26654 0.7623 0.0
O247 O 0.22842 0.27514 0.74987 0.0
O248 O 0.26187 0.29508 0.72915 0.0
C249 C 0.23589 0.29413 0.73293 0.0
C250 C 0.28633 0.21922 0.74753 0.0
C251 C 0.22292 0.32032 0.73595 0.0
C252 C 0.19875 0.35226 0.76281 0.0
C253 C 0.2123 0.32812 0.76072 0.0
C254 C 0.20732 0.36192 0.71583 0.0
C255 C 0.19588 0.36915 0.74031 0.0
C256 C 0.22067 0.33763 0.71366 0.0
C257 C 0.30612 0.28086 0.82971 0.0
C258 C 0.33235 0.29521 0.86877 0.0
C259 C 0.33555 0.24965 0.85267 0.0
C260 C 0.31698 0.25521 0.83206 0.0
C261 C 0.34352 0.26972 0.87098 0.0
C262 C 0.31376 0.30072 0.84828 0.0
C263 C 0.28749 0.2877 0.80766 0.0
O264 O 0.26575 0.22262 0.76324 0.0
O265 O 0.29902 0.24174 0.74151 0.0
O266 O 0.26545 0.27296 0.80581 0.0
O267 O 0.29857 0.2925 0.78426 0.0
H268 H 0.32236 0.18404 0.73066 0.0
H269 H 0.31679 0.14995 0.69546 0.0
H270 H 0.23625 0.17599 0.67992 0.0
H271 H 0.24185 0.21036 0.71507 0.0
H272 H 0.18994 0.3575 0.78182 0.0
H273 H 0.214 0.31534 0.77834 0.0
H274 H 0.20512 0.37465 0.69822 0.0
H275 H 0.2288 0.33211 0.69442 0.0
H276 H 0.33835 0.31093 0.88268 0.0
H277 H 0.34407 0.2299 0.85407 0.0
H278 H 0.31135 0.23968 0.8178 0.0
H279 H 0.30561 0.32063 0.8467 0.0
C280 C 0.21653 0.73193 0.27186 0.0
C281 C 0.21418 0.72153 0.24568 0.0
C282 C 0.17794 0.69157 0.25998 0.0
C283 C 0.19493 0.70149 0.23976 0.0
C284 C 0.18048 0.70191 0.28611 0.0
C285 C 0.19961 0.72191 0.29199 0.0
U286 U 0.28067 0.77486 0.26009 0.0
O287 O 0.28769 0.81784 0.26742 0.0
O288 O 0.31065 0.78828 0.29045 0.0
C289 C 0.30451 0.81361 0.28755 0.0
C290 C 0.23623 0.75323 0.27886 0.0
C291 C 0.29927 0.82826 0.31265 0.0
C292 C 0.26847 0.84594 0.34537 0.0
C293 C 0.27316 0.83061 0.32241 0.0
C294 C 0.31597 0.85598 0.34964 0.0
C295 C 0.28983 0.85894 0.35897 0.0
C296 C 0.32064 0.84077 0.32664 0.0
C297 C 0.32329 0.76124 0.19663 0.0
C298 C 0.37021 0.77184 0.18839 0.0
C299 C 0.34223 0.75454 0.1525 0.0
C300 C 0.32026 0.75404 0.16961 0.0
C301 C 0.36849 0.76064 0.16216 0.0
C302 C 0.34818 0.7713 0.20564 0.0
C303 C 0.30041 0.75718 0.21484 0.0
O304 O 0.26019 0.74518 0.28597 0.0
O305 O 0.23675 0.77443 0.26302 0.0
O306 O 0.28291 0.77645 0.21573 0.0
O307 O 0.30578 0.74663 0.23859 0.0
H308 H 0.22713 0.72896 0.22989 0.0
H309 H 0.19321 0.69376 0.21946 0.0
H310 H 0.16755 0.69453 0.30194 0.0
H311 H 0.20114 0.72966 0.3123 0.0
H312 H 0.24816 0.84811 0.35221 0.0
H313 H 0.25637 0.82101 0.31201 0.0
H314 H 0.33267 0.86599 0.35979 0.0
H315 H 0.34091 0.83917 0.31949 0.0
H316 H 0.38815 0.78151 0.19609 0.0
H317 H 0.33822 0.74989 0.1316 0.0
H318 H 0.30085 0.74761 0.16173 0.0
H319 H 0.35065 0.77859 0.22605 0.0
H320 H 0.04574 0.35216 0.26113 0.0
H321 H 0.83897 0.55391 0.22703 0.0
H322 H 0.07316 0.49909 0.28495 0.0
H323 H 0.11423 0.47365 0.27856 0.0
H324 H 0.11272 0.49437 0.19417 0.0
H325 H 0.07168 0.51971 0.20055 0.0
H326 H 0.02816 0.46453 0.28715 0.0
H327 H 0.03602 0.41636 0.28443 0.0
H328 H 0.03514 0.42214 0.19748 0.0
H329 H 0.02756 0.47034 0.20057 0.0
H330 H 0.97263 0.48082 0.28979 0.0
H331 H 0.93408 0.4493 0.2901 0.0
H332 H 0.92853 0.45424 0.20348 0.0
H333 H 0.96704 0.48576 0.2032 0.0
H334 H 0.95602 0.53632 0.29066 0.0
H335 H 0.90744 0.54136 0.29241 0.0
H336 H 0.90431 0.54952 0.20567 0.0
H337 H 0.95279 0.54378 0.20422 0.0
H338 H 1.00035 0.58803 0.28724 0.0
H339 H 0.97164 0.62751 0.28707 0.0
H340 H 0.96168 0.62113 0.20095 0.0
H341 H 0.99095 0.5823 0.20108 0.0
H342 H 0.0696 0.55841 0.28561 0.0
H343 H 0.10475 0.59355 0.28681 0.0
H344 H 0.08166 0.6188 0.20674 0.0
H345 H 0.04652 0.58351 0.20546 0.0
O346 O 0.04281 0.37125 0.26176 0.0
O347 O 0.04228 0.37532 0.21714 0.0
O348 O 0.86087 0.54739 0.27147 0.0
O349 O 0.85822 0.55212 0.22696 0.0
C350 C 0.04121 0.51976 0.2453 0.0
C351 C 0.02092 0.49957 0.2457 0.0
C352 C 0.99386 0.50654 0.24642 0.0
C353 C 0.98672 0.53364 0.24622 0.0
C354 C 1.0067 0.55409 0.24512 0.0
C355 C 0.03415 0.54721 0.24504 0.0
C356 C 0.0695 0.51137 0.24323 0.0
C357 C 0.08227 0.499 0.2653 0.0
C358 C 0.10559 0.48444 0.26166 0.0
C359 C 0.11641 0.48211 0.23589 0.0
C360 C 0.10473 0.49608 0.21422 0.0
C361 C 0.08144 0.51065 0.21788 0.0
C362 C 0.02764 0.47084 0.24407 0.0
C363 C 0.02998 0.45535 0.26757 0.0
C364 C 0.03431 0.42785 0.26593 0.0
C365 C 0.03613 0.41537 0.24073 0.0
C366 C 0.03379 0.43109 0.2172 0.0
C367 C 0.02964 0.45862 0.21889 0.0
C368 C 0.97256 0.48541 0.24647 0.0
C369 C 0.96332 0.47476 0.27089 0.0
C370 C 0.9414 0.45694 0.27107 0.0
C371 C 0.92858 0.44961 0.24681 0.0
C372 C 0.93828 0.45972 0.22234 0.0
C373 C 0.96017 0.47755 0.22217 0.0
C374 C 0.9579 0.54017 0.24737 0.0
C375 C 0.94481 0.53956 0.27212 0.0
C376 C 0.91706 0.54223 0.27303 0.0
C377 C 0.90198 0.54582 0.24915 0.0
C378 C 0.9153 0.54683 0.22442 0.0
C379 C 0.94301 0.54385 0.22354 0.0
C380 C 0.99786 0.58235 0.24416 0.0
C381 C 0.9931 0.59598 0.2682 0.0
C382 C 0.97657 0.61835 0.26811 0.0
C383 C 0.9642 0.62697 0.24403 0.0
C384 C 0.97094 0.61479 0.21973 0.0
C385 C 0.98778 0.59274 0.21978 0.0
C386 C 0.05539 0.56847 0.24551 0.0
C387 C 0.07214 0.57146 0.26829 0.0
C388 C 0.09213 0.59146 0.26899 0.0
C389 C 0.09572 0.60876 0.24689 0.0
C390 C 0.07912 0.60567 0.22399 0.0
C391 C 0.05907 0.58566 0.22332 0.0
C392 C 0.04057 0.38613 0.23905 0.0
C393 C 0.87247 0.54848 0.24998 0.0
H394 H 0.06179 0.33441 0.79359 0.0
H395 H 0.85169 0.53826 0.76683 0.0
H396 H 0.09212 0.48838 0.80284 0.0
H397 H 0.13075 0.45991 0.79512 0.0
H398 H 0.11589 0.46458 0.7095 0.0
H399 H 0.07669 0.49217 0.71733 0.0
H400 H 0.05455 0.44994 0.80983 0.0
H401 H 0.06106 0.40149 0.81058 0.0
H402 H 0.0333 0.39695 0.72779 0.0
H403 H 0.02758 0.44555 0.72715 0.0
H404 H 0.99612 0.46237 0.82108 0.0
H405 H 0.9673 0.42268 0.82893 0.0
H406 H 0.94528 0.42132 0.74466 0.0
H407 H 0.97414 0.46116 0.73682 0.0
H408 H 0.97353 0.5216 0.82067 0.0
H409 H 0.92584 0.53005 0.82642 0.0
H410 H 0.91369 0.52567 0.74012 0.0
H411 H 0.96152 0.51781 0.7347 0.0
H412 H 0.00798 0.56392 0.81487 0.0
H413 H 0.98063 0.60422 0.81548 0.0
H414 H 0.98077 0.60704 0.72871 0.0
H415 H 0.00782 0.56639 0.72812 0.0
H416 H 0.06325 0.56034 0.8077 0.0
H417 H 0.09635 0.59736 0.80584 0.0
H418 H 0.1087 0.58154 0.72176 0.0
H419 H 0.07524 0.54465 0.72351 0.0
O420 O 0.05962 0.35362 0.79269 0.0
O421 O 0.04539 0.35239 0.75005 0.0
O422 O 0.87785 0.53667 0.80941 0.0
O423 O 0.8706 0.53492 0.76516 0.0
C424 C 0.05366 0.50052 0.76561 0.0
C425 C 0.03399 0.47998 0.76897 0.0
C426 C 1.00712 0.48641 0.77335 0.0
C427 C 0.99955 0.51333 0.77389 0.0
C428 C 0.01901 0.53411 0.77097 0.0
C429 C 0.04627 0.5278 0.76705 0.0
C430 C 0.08163 0.49249 0.76065 0.0
C431 C 0.09789 0.48427 0.78236 0.0
C432 C 0.11985 0.46793 0.77796 0.0
C433 C 0.12604 0.45996 0.75175 0.0
C434 C 0.11149 0.47057 0.72986 0.0
C435 C 0.08924 0.48647 0.73431 0.0
C436 C 0.04114 0.45126 0.76827 0.0
C437 C 0.05052 0.43851 0.7917 0.0
C438 C 0.05391 0.4108 0.79215 0.0
C439 C 0.04763 0.39533 0.76927 0.0
C440 C 0.03832 0.40826 0.74576 0.0
C441 C 0.03526 0.43602 0.74525 0.0
C442 C 0.98711 0.46461 0.77842 0.0
C443 C 0.98469 0.45381 0.80442 0.0
C444 C 0.96836 0.43123 0.80886 0.0
C445 C 0.95424 0.4192 0.78735 0.0
C446 C 0.95597 0.43048 0.76147 0.0
C447 C 0.97231 0.45313 0.75703 0.0
C448 C 0.97091 0.51949 0.77727 0.0
C449 C 0.96054 0.52277 0.80305 0.0
C450 C 0.9333 0.52744 0.80626 0.0
C451 C 0.91595 0.52857 0.78371 0.0
C452 C 0.92648 0.52496 0.7579 0.0
C453 C 0.95378 0.52059 0.75472 0.0
C454 C 0.00993 0.56227 0.77145 0.0
C455 C 1.00297 0.57379 0.79602 0.0
C456 C 0.98731 0.59668 0.79637 0.0
C457 C 0.97854 0.60844 0.77214 0.0
C458 C 0.98741 0.59825 0.74759 0.0
C459 C 1.00293 0.5752 0.74726 0.0
C460 C 0.0669 0.54966 0.76578 0.0
C461 C 0.07307 0.56483 0.78886 0.0
C462 C 0.09191 0.5859 0.78781 0.0
C463 C 0.10495 0.59213 0.76368 0.0
C464 C 0.09886 0.57697 0.74057 0.0
C465 C 0.07993 0.5559 0.74161 0.0
C466 C 0.05078 0.36583 0.76998 0.0
C467 C 0.88702 0.53361 0.78698 0.0
H468 H 0.24189 1.00615 0.32227 0.0
H469 H 0.28729 0.20836 0.52896 0.0
H470 H 0.22861 0.97056 0.47789 0.0
H471 H 0.23223 0.93069 0.44943 0.0
H472 H 0.31803 0.94128 0.44932 0.0
H473 H 0.31446 0.98047 0.47858 0.0
H474 H 0.22402 0.02055 0.43738 0.0
H475 H 0.22332 0.01433 0.3885 0.0
H476 H 0.30987 0.01365 0.38923 0.0
H477 H 0.31021 0.02024 0.43806 0.0
H478 H 0.22213 0.07604 0.45579 0.0
H479 H 0.21993 0.1132 0.42302 0.0
H480 H 0.30615 0.11738 0.4213 0.0
H481 H 0.30832 0.08015 0.45401 0.0
H482 H 0.22367 0.09038 0.51408 0.0
H483 H 0.22203 0.13878 0.52147 0.0
H484 H 0.3085 0.1436 0.51956 0.0
H485 H 0.30976 0.09522 0.51201 0.0
H486 H 0.22712 0.04617 0.55931 0.0
H487 H 0.2275 0.07266 0.60098 0.0
H488 H 0.31315 0.08271 0.59602 0.0
H489 H 0.31277 0.05616 0.55456 0.0
H490 H 0.22917 0.97755 0.5301 0.0
H491 H 0.2288 0.94299 0.56561 0.0
H492 H 0.30932 0.96624 0.58905 0.0
H493 H 0.30984 1.00062 0.55325 0.0
O494 O 0.24261 0.00855 0.34159 0.0
O495 O 0.28711 0.00826 0.34307 0.0
O496 O 0.24292 0.18565 0.52698 0.0
O497 O 0.28734 0.18916 0.52636 0.0
C498 C 0.26891 1.00631 0.49008 0.0
C499 C 0.26751 0.02687 0.47031 0.0
C500 C 0.26671 0.0539 0.47799 0.0
C501 C 0.26757 0.06066 0.50542 0.0
C502 C 0.26897 0.04042 0.52546 0.0
C503 C 0.26934 0.013 0.51789 0.0
C504 C 0.2713 0.97823 0.48068 0.0
C505 C 0.24826 0.96347 0.47291 0.0
C506 C 0.25031 0.94088 0.4565 0.0
C507 C 0.27539 0.9332 0.44708 0.0
C508 C 0.29853 0.94685 0.4564 0.0
C509 C 0.2965 0.96907 0.47324 0.0
C510 C 0.26714 0.02048 0.44119 0.0
C511 C 0.24276 0.01877 0.42694 0.0
C512 C 0.24245 0.01541 0.39902 0.0
C513 C 0.26655 0.01359 0.38494 0.0
C514 C 0.29096 0.01501 0.39944 0.0
C515 C 0.29122 0.01855 0.42733 0.0
C516 C 0.26538 0.07543 0.45718 0.0
C517 C 0.24052 0.08485 0.44817 0.0
C518 C 0.23927 0.10597 0.42958 0.0
C519 C 0.26288 0.11796 0.41983 0.0
C520 C 0.28776 0.10833 0.42862 0.0
C521 C 0.28899 0.08716 0.44717 0.0
C522 C 0.26683 0.08937 0.51284 0.0
C523 C 0.24221 0.10192 0.51562 0.0
C524 C 0.24135 0.12956 0.51963 0.0
C525 C 0.26516 0.14509 0.52098 0.0
C526 C 0.28981 0.13227 0.51857 0.0
C527 C 0.29062 0.10464 0.51447 0.0
C528 C 0.26997 0.04889 0.5541 0.0
C529 C 0.24608 0.05307 0.56787 0.0
C530 C 0.24628 0.06832 0.59147 0.0
C531 C 0.27036 0.07964 0.60149 0.0
C532 C 0.29442 0.07399 0.58869 0.0
C533 C 0.29423 0.05869 0.56519 0.0
C534 C 0.26958 0.99158 0.53893 0.0
C535 C 0.24685 0.97504 0.54268 0.0
C536 C 0.24659 0.95544 0.56299 0.0
C537 C 0.26903 0.95205 0.57995 0.0
C538 C 0.29182 0.96852 0.57617 0.0
C539 C 0.29209 0.98811 0.55581 0.0
C540 C 0.26616 0.01 0.35529 0.0
C541 C 0.26436 0.1745 0.52494 0.0
H542 H 0.51618 0.80787 0.82614 0.0
H543 H 0.70442 0.75448 0.05032 0.0
H544 H 0.48148 0.82659 0.97855 0.0
H545 H 0.44157 0.82961 0.9493 0.0
H546 H 0.43065 0.74385 0.95356 0.0
H547 H 0.47063 0.74086 0.98298 0.0
H548 H 0.5312 0.82487 0.94188 0.0
H549 H 0.52608 0.82587 0.89277 0.0
H550 H 0.50775 0.74084 0.89335 0.0
H551 H 0.5128 0.74021 0.94247 0.0
H552 H 0.58805 0.82188 0.97033 0.0
H553 H 0.62386 0.82209 0.93681 0.0
H554 H 0.60622 0.739 0.91957 0.0
H555 H 0.57042 0.73882 0.95306 0.0
H556 H 0.58968 0.81953 0.03511 0.0
H557 H 0.63642 0.819 0.05058 0.0
H558 H 0.64214 0.73713 0.02364 0.0
H559 H 0.59529 0.73785 0.00859 0.0
H560 H 0.54136 0.81754 0.06791 0.0
H561 H 0.56372 0.81718 0.11087 0.0
H562 H 0.5816 0.73344 0.09985 0.0
H563 H 0.55913 0.73465 0.05693 0.0
H564 H 0.47569 0.81608 0.03618 0.0
H565 H 0.44086 0.81105 0.07066 0.0
H566 H 0.46646 0.73055 0.08701 0.0
H567 H 0.50074 0.73533 0.05242 0.0
O568 O 0.5178 0.80709 0.84558 0.0
O569 O 0.50844 0.76337 0.84697 0.0
O570 O 0.68184 0.79725 0.05816 0.0
O571 O 0.6859 0.75523 0.04443 0.0
C572 C 0.50674 0.7813 0.99381 0.0
C573 C 0.52783 0.78148 0.97503 0.0
C574 C 0.55469 0.78032 0.98393 0.0
C575 C 0.56072 0.77908 0.01167 0.0
C576 C 0.53987 0.778 0.03066 0.0
C577 C 0.51269 0.77899 0.02181 0.0
C578 C 0.47882 0.78354 0.98322 0.0
C579 C 0.46985 0.80856 0.97415 0.0
C580 C 0.4472 0.81027 0.95734 0.0
C581 C 0.43317 0.78696 0.94926 0.0
C582 C 0.44107 0.76208 0.95975 0.0
C583 C 0.46374 0.76038 0.97666 0.0
C584 C 0.52207 0.78254 0.94565 0.0
C585 C 0.52573 0.80658 0.93134 0.0
C586 C 0.52298 0.80704 0.9033 0.0
C587 C 0.51664 0.78341 0.88911 0.0
C588 C 0.51272 0.75938 0.90364 0.0
C589 C 0.51536 0.75899 0.93168 0.0
C590 C 0.57664 0.78036 0.96403 0.0
C591 C 0.59198 0.80373 0.95937 0.0
C592 C 0.61231 0.80384 0.94032 0.0
C593 C 0.61759 0.78056 0.92576 0.0
C594 C 0.60239 0.75713 0.93061 0.0
C595 C 0.58202 0.75704 0.9496 0.0
C596 C 0.58915 0.77872 0.02083 0.0
C597 C 0.60106 0.80149 0.03268 0.0
C598 C 0.62776 0.80114 0.04143 0.0
C599 C 0.64303 0.778 0.03835 0.0
C600 C 0.63098 0.75526 0.02633 0.0
C601 C 0.60426 0.75562 0.01766 0.0
C602 C 0.54729 0.77579 0.05975 0.0
C603 C 0.54852 0.79866 0.07581 0.0
C604 C 0.56118 0.79808 0.10118 0.0
C605 C 0.57192 0.77415 0.11215 0.0
C606 C 0.57115 0.75155 0.09494 0.0
C607 C 0.55856 0.75221 0.06962 0.0
C608 C 0.49083 0.77606 0.04174 0.0
C609 C 0.47361 0.79728 0.04702 0.0
C610 C 0.45388 0.79448 0.06673 0.0
C611 C 0.45122 0.77048 0.08145 0.0
C612 C 0.46827 0.74926 0.07595 0.0
C613 C 0.48781 0.75199 0.05625 0.0
C614 C 0.51404 0.7839 0.8593 0.0
C615 C 0.6714 0.77752 0.04761 0.0
H616 H 0.75169 0.9993 0.3311 0.0
H617 H 0.81225 0.19289 0.55074 0.0
H618 H 0.74355 0.96516 0.48157 0.0
H619 H 0.74271 0.92539 0.4526 0.0
H620 H 0.82892 0.9238 0.45611 0.0
H621 H 0.82973 0.9636 0.48507 0.0
H622 H 0.74041 0.01199 0.4474 0.0
H623 H 0.73693 1.00648 0.39849 0.0
H624 H 0.82331 1.00592 0.3942 0.0
H625 H 0.82641 0.0111 0.44317 0.0
H626 H 0.74165 0.06934 0.47244 0.0
H627 H 0.73865 0.10854 0.44226 0.0
H628 H 0.82385 0.10651 0.43007 0.0
H629 H 0.82683 0.06737 0.46029 0.0
H630 H 0.74687 0.07644 0.53171 0.0
H631 H 0.74637 0.12383 0.54415 0.0
H632 H 0.83177 0.12973 0.53177 0.0
H633 H 0.83188 0.08238 0.51921 0.0
H634 H 0.75205 0.0282 0.57048 0.0
H635 H 0.75473 0.04998 0.61474 0.0
H636 H 0.83975 0.06226 0.6056 0.0
H637 H 0.83702 0.04065 0.56125 0.0
H638 H 0.75138 0.96465 0.54011 0.0
H639 H 0.75492 0.92858 0.57397 0.0
H640 H 0.83855 0.94866 0.58616 0.0
H641 H 0.83501 0.98465 0.55234 0.0
O642 O 0.7535 1.00137 0.35041 0.0
O643 O 0.79797 1.00122 0.34931 0.0
O644 O 0.76802 0.16997 0.55229 0.0
O645 O 0.81188 0.1741 0.54605 0.0
C646 C 0.78745 0.99472 0.49644 0.0
C647 C 0.78571 0.01642 0.4781 0.0
C648 C 0.78646 0.04291 0.48756 0.0
C649 C 0.78925 0.04796 0.51528 0.0
C650 C 0.79159 0.02646 0.53374 0.0
C651 C 0.79059 0.99971 0.52437 0.0
C652 C 0.78669 0.96709 0.4856 0.0
C653 C 0.76219 0.95561 0.47695 0.0
C654 C 0.76172 0.93306 0.46037 0.0
C655 C 0.78575 0.92176 0.45225 0.0
C656 C 0.81019 0.93218 0.46235 0.0
C657 C 0.81065 0.95473 0.47895 0.0
C658 C 0.78363 0.01167 0.44871 0.0
C659 C 0.75851 0.01043 0.43583 0.0
C660 C 0.75661 0.00741 0.40791 0.0
C661 C 0.77985 1.00582 0.39242 0.0
C662 C 0.80502 0.00712 0.40551 0.0
C663 C 0.80686 0.00994 0.43345 0.0
C664 C 0.78444 0.06562 0.46837 0.0
C665 C 0.7596 0.07729 0.4631 0.0
C666 C 0.7579 0.09955 0.44602 0.0
C667 C 0.78105 0.11028 0.4341 0.0
C668 C 0.80584 0.0984 0.43915 0.0
C669 C 0.80753 0.07616 0.45624 0.0
C670 C 0.78943 0.07605 0.5248 0.0
C671 C 0.76545 0.088 0.53194 0.0
C672 C 0.76521 0.11507 0.53887 0.0
C673 C 0.78904 0.1306 0.53887 0.0
C674 C 0.81309 0.11838 0.53195 0.0
C675 C 0.81325 0.09133 0.52491 0.0
C676 C 0.79437 0.03268 0.56281 0.0
C677 C 0.7714 0.03464 0.57848 0.0
C678 C 0.77291 0.04713 0.6036 0.0
C679 C 0.79743 0.05765 0.61332 0.0
C680 C 0.82073 0.05403 0.59848 0.0
C681 C 0.81918 0.04166 0.5733 0.0
C682 C 0.79295 0.9772 0.54379 0.0
C683 C 0.77049 0.96111 0.54994 0.0
C684 C 0.77248 0.94067 0.56923 0.0
C685 C 0.79699 0.93607 0.5825 0.0
C686 C 0.8195 0.95197 0.57611 0.0
C687 C 0.81748 0.97242 0.55688 0.0
C688 C 0.77777 1.00268 0.36276 0.0
C689 C 0.7889 0.15938 0.54614 0.0
H690 H 0.50017 0.25422 0.82759 0.0
H691 H 0.6941 0.21435 0.05741 0.0
H692 H 0.47882 0.29821 0.97456 0.0
H693 H 0.43793 0.3006 0.94663 0.0
H694 H 0.42102 0.21702 0.96259 0.0
H695 H 0.46201 0.21467 0.99063 0.0
H696 H 0.5242 0.28651 0.93855 0.0
H697 H 0.5158 0.28083 0.89018 0.0
H698 H 0.49807 0.19668 0.90356 0.0
H699 H 0.50651 0.20272 0.95188 0.0
H700 H 0.57901 0.28135 0.95921 0.0
H701 H 0.6189 0.27133 0.9328 0.0
H702 H 0.60653 0.18702 0.9488 0.0
H703 H 0.56659 0.19704 0.97496 0.0
H704 H 0.59092 0.28912 0.01876 0.0
H705 H 0.63838 0.28565 0.0311 0.0
H706 H 0.62702 0.20052 0.0445 0.0
H707 H 0.57964 0.20433 0.03202 0.0
H708 H 0.54353 0.3003 0.05948 0.0
H709 H 0.56649 0.30526 0.1034 0.0
H710 H 0.56284 0.21958 0.11471 0.0
H711 H 0.53995 0.21464 0.07083 0.0
H712 H 0.47803 0.30113 0.03225 0.0
H713 H 0.44306 0.30772 0.06592 0.0
H714 H 0.451 0.22578 0.09232 0.0
H715 H 0.48576 0.21917 0.05864 0.0
O716 O 0.50346 0.25601 0.84675 0.0
O717 O 0.49487 0.21283 0.85467 0.0
O718 O 0.6802 0.26014 0.04529 0.0
O719 O 0.67537 0.21635 0.05273 0.0
C720 C 0.50069 0.25352 0.99578 0.0
C721 C 0.52159 0.24841 0.97772 0.0
C722 C 0.54802 0.24598 0.9874 0.0
C723 C 0.55378 0.24887 0.01506 0.0
C724 C 0.533 0.25368 0.03326 0.0
C725 C 0.5063 0.25581 0.0237 0.0
C726 C 0.47317 0.25635 0.98479 0.0
C727 C 0.4658 0.28067 0.97282 0.0
C728 C 0.44262 0.282 0.95684 0.0
C729 C 0.42657 0.25899 0.95262 0.0
C730 C 0.4331 0.235 0.96583 0.0
C731 C 0.45633 0.23369 0.98187 0.0
C732 C 0.51584 0.24504 0.94858 0.0
C733 C 0.51843 0.26691 0.93094 0.0
C734 C 0.51367 0.26358 0.90335 0.0
C735 C 0.50633 0.23828 0.89298 0.0
C736 C 0.50374 0.21642 0.91086 0.0
C737 C 0.50847 0.2198 0.93844 0.0
C738 C 0.56993 0.23987 0.96877 0.0
C739 C 0.58464 0.2607 0.95652 0.0
C740 C 0.60732 0.25503 0.94161 0.0
C741 C 0.6155 0.22847 0.93892 0.0
C742 C 0.60037 0.2076 0.95061 0.0
C743 C 0.57766 0.21327 0.9654 0.0
C744 C 0.58192 0.24702 0.02474 0.0
C745 C 0.59871 0.26982 0.02464 0.0
C746 C 0.62581 0.26774 0.03154 0.0
C747 C 0.63652 0.24277 0.03869 0.0
C748 C 0.61945 0.22003 0.03906 0.0
C749 C 0.59237 0.22215 0.0321 0.0
C750 C 0.53997 0.25713 0.06214 0.0
C751 C 0.54675 0.28272 0.07192 0.0
C752 C 0.55987 0.28554 0.09685 0.0
C753 C 0.56629 0.26277 0.11216 0.0
C754 C 0.55782 0.23734 0.1032 0.0
C755 C 0.54474 0.23454 0.0783 0.0
C756 C 0.48439 0.25967 0.04303 0.0
C757 C 0.47205 0.28457 0.04514 0.0
C758 C 0.45223 0.28833 0.06432 0.0
C759 C 0.44459 0.26723 0.08157 0.0
C760 C 0.45669 0.24226 0.07918 0.0
C761 C 0.47646 0.23852 0.06004 0.0
C762 C 0.50121 0.23482 0.86368 0.0
C763 C 0.66534 0.24039 0.04574 0.0
C764 C 0.18374 0.45199 0.21925 0.0
C765 C 0.17734 0.42412 0.22071 0.0
C766 C 0.13007 0.43524 0.22529 0.0
C767 C 0.13756 0.46229 0.23063 0.0
N768 N 0.17197 0.49685 0.2322 0.0
N769 N 0.14269 0.39514 0.20233 0.0
C770 C 0.16454 0.47084 0.22742 0.0
C771 C 0.14985 0.41705 0.21728 0.0
N772 N 0.20551 0.4606 0.20518 0.0
N773 N 0.10411 0.42675 0.22795 0.0
H774 H 0.15689 0.38418 0.19211 0.0
H775 H 0.12293 0.39034 0.19697 0.0
H776 H 0.08881 0.43956 0.23303 0.0
H777 H 0.09831 0.40659 0.227 0.0
H778 H 0.20992 0.48079 0.20152 0.0
H779 H 0.21632 0.44747 0.19345 0.0
H780 H 0.19194 0.50333 0.23254 0.0
H781 H 0.15837 0.51133 0.23778 0.0
C782 C 0.17188 0.63063 0.76368 0.0
C783 C 0.16307 0.65741 0.76553 0.0
C784 C 0.11631 0.64146 0.76157 0.0
C785 C 0.12507 0.61459 0.76285 0.0
N786 N 0.16088 0.58322 0.76786 0.0
N787 N 0.12705 0.68856 0.76876 0.0
C788 C 0.15281 0.60906 0.76448 0.0
C789 C 0.13529 0.66292 0.76498 0.0
N790 N 0.19852 0.62589 0.76065 0.0
N791 N 0.08987 0.64642 0.7566 0.0
H792 H 0.14033 0.70483 0.77076 0.0
H793 H 0.10719 0.69353 0.77173 0.0
H794 H 0.07543 0.6312 0.75424 0.0
H795 H 0.08254 0.66543 0.75262 0.0
H796 H 0.20603 0.60712 0.75637 0.0
H797 H 0.21303 0.6412 0.76012 0.0
H798 H 0.18054 0.57808 0.77236 0.0
H799 H 0.14757 0.56687 0.76813 0.0
C800 C 0.92118 0.6878 0.22856 0.0
C801 C 0.8966 0.67961 0.24033 0.0
C802 C 0.9165 0.63741 0.25512 0.0
C803 C 0.94151 0.646 0.24444 0.0
N804 N 0.96912 0.68118 0.22551 0.0
N805 N 0.8724 0.64965 0.26986 0.0
C806 C 0.94429 0.6718 0.23251 0.0
C807 C 0.8948 0.65536 0.25524 0.0
N808 N 0.9222 0.71039 0.2129 0.0
N809 N 0.91295 0.61158 0.26382 0.0
H810 H 0.85595 0.66218 0.27021 0.0
H811 H 0.87106 0.6338 0.28353 0.0
H812 H 0.92811 0.59759 0.26385 0.0
H813 H 0.8944 0.60331 0.26889 0.0
H814 H 0.9386 0.7159 0.20129 0.0
H815 H 0.90585 0.72284 0.2101 0.0
H816 H 0.97301 0.70075 0.21914 0.0
H817 H 0.98635 0.66996 0.22828 0.0
C818 C 0.89919 0.36962 0.80767 0.0
C819 C 0.90973 0.34532 0.79811 0.0
C820 C 0.95223 0.36895 0.78948 0.0
C821 C 0.93908 0.39375 0.79187 0.0
N822 N 0.89988 0.41795 0.80447 0.0
N823 N 0.95131 0.3221 0.80207 0.0
C824 C 0.91251 0.3942 0.80141 0.0
C825 C 0.93794 0.34479 0.79533 0.0
N826 N 0.88006 0.36894 0.82693 0.0
N827 N 0.97814 0.36836 0.78118 0.0
H828 H 0.94138 0.3054 0.81023 0.0
H829 H 0.97212 0.32113 0.80293 0.0
H830 H 0.98953 0.38566 0.77738 0.0
H831 H 0.98762 0.35064 0.77637 0.0
H832 H 0.87322 0.38609 0.83627 0.0
H833 H 0.8746 0.35103 0.83654 0.0
H834 H 0.87961 0.41891 0.80902 0.0
H835 H 0.90915 0.43647 0.80063 0.0
C836 C 0.26625 0.1894 0.39213 0.0
C837 C 0.25799 0.18519 0.36497 0.0
C838 C 0.25572 0.13661 0.37315 0.0
C839 C 0.26153 0.14109 0.40084 0.0
N840 N 0.26863 0.17172 0.43772 0.0
N841 N 0.24124 0.15541 0.3303 0.0
C842 C 0.26581 0.1675 0.41063 0.0
C843 C 0.25179 0.15893 0.35563 0.0
N844 N 0.27529 0.2142 0.40004 0.0
N845 N 0.25462 0.11101 0.3635 0.0
H846 H 0.23821 0.17122 0.31684 0.0
H847 H 0.23353 0.13717 0.32332 0.0
H848 H 0.2571 0.09419 0.3758 0.0
H849 H 0.25339 0.10645 0.34309 0.0
H850 H 0.2843 0.21794 0.41871 0.0
H851 H 0.2759 0.23072 0.38708 0.0
H852 H 0.26878 0.19065 0.4464 0.0
H853 H 0.2687 0.1562 0.45188 0.0
C854 C 0.40232 0.79525 0.87895 0.0
C855 C 0.37459 0.79277 0.88443 0.0
C856 C 0.38497 0.78748 0.93279 0.0
C857 C 0.41272 0.78838 0.92704 0.0
N858 N 0.44794 0.78865 0.89442 0.0
N859 N 0.33922 0.78319 0.91565 0.0
C860 C 0.4214 0.79102 0.90002 0.0
C861 C 0.36582 0.78791 0.91113 0.0
N862 N 0.41042 0.80241 0.85367 0.0
N863 N 0.377 0.78702 0.959 0.0
H864 H 0.3247 0.78394 0.90035 0.0
H865 H 0.33168 0.77675 0.93405 0.0
H866 H 0.3905 0.78623 0.97521 0.0
H867 H 0.35726 0.78921 0.96482 0.0
H868 H 0.43008 0.80777 0.84909 0.0
H869 H 0.39716 0.80494 0.83747 0.0
H870 H 0.45526 0.78715 0.87499 0.0
H871 H 0.46257 0.78596 0.90931 0.0
C872 C 0.77789 0.85527 0.41495 0.0
C873 C 0.78626 0.86313 0.38881 0.0
C874 C 0.79126 0.90968 0.40375 0.0
C875 C 0.7855 0.90141 0.43049 0.0
N876 N 0.77616 0.86617 0.46251 0.0
N877 N 0.80488 0.89686 0.35913 0.0
C878 C 0.77953 0.87412 0.43637 0.0
C879 C 0.79398 0.89011 0.38341 0.0
N880 N 0.76774 0.82997 0.41907 0.0
N881 N 0.79338 0.93637 0.39765 0.0
H882 H 0.80709 0.88318 0.34358 0.0
H883 H 0.81376 0.91548 0.35513 0.0
H884 H 0.79161 0.95132 0.41203 0.0
H885 H 0.79455 0.94379 0.37806 0.0
H886 H 0.75875 0.82376 0.43688 0.0
H887 H 0.76636 0.81567 0.40386 0.0
H888 H 0.77461 0.8462 0.46853 0.0
H889 H 0.77684 0.87955 0.47857 0.0
C890 C 0.68972 0.22008 0.92558 0.0
C891 C 0.6888 0.21556 0.8974 0.0
C892 C 0.6401 0.21131 0.899 0.0
C893 C 0.6408 0.22248 0.92518 0.0
N894 N 0.66638 0.23485 0.96506 0.0
N895 N 0.66498 0.18415 0.86884 0.0
C896 C 0.66566 0.22583 0.93914 0.0
C897 C 0.66449 0.20464 0.8868 0.0
N898 N 0.7128 0.21536 0.93968 0.0
N899 N 0.61634 0.20733 0.88555 0.0
H900 H 0.68286 0.17478 0.86434 0.0
H901 H 0.64775 0.17394 0.86215 0.0
H902 H 0.5979 0.21179 0.89383 0.0
H903 H 0.61537 0.20142 0.86544 0.0
H904 H 0.71426 0.21585 0.96061 0.0
H905 H 0.72953 0.20764 0.9303 0.0
H906 H 0.68407 0.2405 0.97505 0.0
H907 H 0.64916 0.23804 0.97611 0.0
C908 C 0.24987 0.91463 0.64447 0.0
C909 C 0.26485 0.89089 0.64211 0.0
C910 C 0.28222 0.90696 0.59869 0.0
C911 C 0.26846 0.93134 0.60182 0.0
N912 N 0.24336 0.9606 0.62992 0.0
N913 N 0.29911 0.86652 0.61976 0.0
C914 C 0.25352 0.93583 0.62542 0.0
C915 C 0.28219 0.8877 0.62002 0.0
N916 N 0.23135 0.91651 0.66431 0.0
N917 N 0.29446 0.90176 0.57491 0.0
H918 H 0.29962 0.85207 0.63501 0.0
H919 H 0.31422 0.86451 0.60575 0.0
H920 H 0.29507 0.91539 0.55892 0.0
H921 H 0.3022 0.88319 0.57018 0.0
H922 H 0.21762 0.93188 0.66525 0.0
H923 H 0.22825 0.90159 0.67879 0.0
H924 H 0.23478 0.96604 0.648 0.0
H925 H 0.24558 0.97655 0.6164 0.0
C926 C 0.61751 0.7992 0.16902 0.0
C927 C 0.63275 0.77591 0.17381 0.0
C928 C 0.59851 0.74949 0.14933 0.0
C929 C 0.58731 0.77349 0.1391 0.0
N930 N 0.57313 0.81466 0.1587 0.0
N931 N 0.63711 0.72809 0.16931 0.0
C932 C 0.59299 0.79699 0.15423 0.0
C933 C 0.62296 0.75075 0.16437 0.0
N934 N 0.62631 0.82348 0.17848 0.0
N935 N 0.58375 0.72624 0.14835 0.0
H936 H 0.65489 0.72811 0.18062 0.0
H937 H 0.63213 0.70973 0.16047 0.0
H938 H 0.56396 0.72592 0.14126 0.0
H939 H 0.5897 0.70855 0.15772 0.0
H940 H 0.61705 0.84134 0.17319 0.0
H941 H 0.64386 0.82592 0.18994 0.0
H942 H 0.5754 0.83099 0.17157 0.0
H943 H 0.55335 0.81034 0.15286 0.0
C944 C 0.80592 0.08373 0.68515 0.0
C945 C 0.79658 0.11024 0.68175 0.0
C946 C 0.79131 0.10302 0.63319 0.0
C947 C 0.79799 0.07574 0.63697 0.0
N948 N 0.80921 0.03905 0.66646 0.0
N949 N 0.77653 0.14405 0.65342 0.0
C950 C 0.80469 0.06577 0.66295 0.0
C951 C 0.78831 0.11965 0.65598 0.0
N952 N 0.81658 0.07601 0.70943 0.0
N953 N 0.7884 0.11319 0.60771 0.0
H954 H 0.77399 0.15694 0.66958 0.0
H955 H 0.76725 0.15064 0.63574 0.0
H956 H 0.79013 0.10156 0.5905 0.0
H957 H 0.78657 0.13354 0.60353 0.0
H958 H 0.8262 0.05793 0.71257 0.0
H959 H 0.81773 0.08866 0.72606 0.0
H960 H 0.81132 0.02992 0.68525 0.0
H961 H 0.80905 0.02554 0.65051 0.0
C962 C 0.41192 0.28758 0.14712 0.0
C963 C 0.38649 0.27466 0.14423 0.0
C964 C 0.39773 0.26101 0.09842 0.0
C965 C 0.42417 0.27119 0.10257 0.0
N966 N 0.45767 0.29162 0.13174 0.0
N967 N 0.35586 0.24659 0.11849 0.0
C968 C 0.43158 0.28394 0.12712 0.0
C969 C 0.37949 0.26082 0.12016 0.0
N970 N 0.41703 0.30376 0.16879 0.0
N971 N 0.38996 0.25197 0.07351 0.0
H972 H 0.34182 0.24625 0.13382 0.0
H973 H 0.35097 0.23356 0.10281 0.0
H974 H 0.40287 0.25165 0.05721 0.0
H975 H 0.37024 0.2469 0.06835 0.0
H976 H 0.43408 0.31596 0.1707 0.0
H977 H 0.4031 0.30677 0.18385 0.0
H978 H 0.46499 0.29815 0.15035 0.0
H979 H 0.47259 0.28962 0.11747 0.0
C980 C 0.94264 0.67376 0.78544 0.0
C981 C 0.91606 0.66656 0.77745 0.0
C982 C 0.93049 0.62148 0.76593 0.0
C983 C 0.95736 0.62902 0.77258 0.0
N984 N 0.98992 0.66337 0.78418 0.0
N985 N 0.88556 0.6358 0.75492 0.0
C986 C 0.96371 0.65553 0.78099 0.0
C987 C 0.91029 0.64108 0.76607 0.0
N988 N 0.94755 0.69761 0.79811 0.0
N989 N 0.92403 0.59527 0.7607 0.0
H990 H 0.87018 0.64962 0.75477 0.0
H991 H 0.88101 0.61871 0.7437 0.0
H992 H 0.93818 0.58025 0.76035 0.0
H993 H 0.90443 0.58798 0.75889 0.0
H994 H 0.96585 0.70281 0.80713 0.0
H995 H 0.9327 0.7116 0.80128 0.0
H996 H 0.99611 0.6831 0.78765 0.0
H997 H 1.00574 0.65044 0.78115 0.0
C998 C 0.88243 0.38855 0.23833 0.0
C999 C 0.85777 0.39907 0.24681 0.0
C1000 C 0.87921 0.44319 0.25342 0.0
C1001 C 0.90425 0.4321 0.24706 0.0
N1002 N 0.9308 0.39366 0.23737 0.0
N1003 N 0.83323 0.43493 0.26652 0.0
C1004 C 0.90619 0.40458 0.24062 0.0
C1005 C 0.8563 0.42601 0.2555 0.0
N1006 N 0.88296 0.36356 0.22727 0.0
N1007 N 0.87721 0.47026 0.25669 0.0
H1008 H 0.81599 0.42296 0.26829 0.0
H1009 H 0.83179 0.45342 0.27591 0.0
H1010 H 0.8936 0.48347 0.25562 0.0
H1011 H 0.85905 0.47993 0.25835 0.0
H1012 H 0.8997 0.35589 0.21802 0.0
H1013 H 0.86599 0.35118 0.22534 0.0
H1014 H 0.93378 0.37318 0.23559 0.0
H1015 H 0.94861 0.40489 0.2386 0.0
C1016 C 0.15101 0.39022 0.73531 0.0
C1017 C 0.17863 0.39306 0.74184 0.0
C1018 C 0.17255 0.44077 0.75175 0.0
C1019 C 0.14453 0.43724 0.74762 0.0
N1020 N 0.10651 0.40756 0.73981 0.0
N1021 N 0.21573 0.41994 0.75858 0.0
C1022 C 0.13363 0.4117 0.74041 0.0
C1023 C 0.18944 0.41807 0.7507 0.0
N1024 N 0.14137 0.36696 0.72401 0.0
N1025 N 0.18301 0.46593 0.75592 0.0
H1026 H 0.2288 0.40399 0.75715 0.0
H1027 H 0.22424 0.43666 0.76804 0.0
H1028 H 0.17115 0.48285 0.75682 0.0
H1029 H 0.20344 0.47041 0.75645 0.0
H1030 H 0.12221 0.36485 0.71566 0.0
H1031 H 0.15314 0.35026 0.72099 0.0
H1032 H 0.09737 0.38877 0.73768 0.0
H1033 H 0.09301 0.42257 0.74381 0.0
C1034 C 0.12973 0.67775 0.25273 0.0
C1035 C 0.15707 0.67058 0.25402 0.0
C1036 C 0.14414 0.62354 0.24601 0.0
C1037 C 0.11679 0.63029 0.24802 0.0
N1038 N 0.08335 0.66324 0.25659 0.0
N1039 N 0.19049 0.63639 0.25492 0.0
C1040 C 0.1095 0.65729 0.25213 0.0
C1041 C 0.16437 0.6434 0.25132 0.0
N1042 N 0.12316 0.70419 0.25152 0.0
N1043 N 0.15075 0.59826 0.23844 0.0
H1044 H 0.20591 0.65035 0.25858 0.0
H1045 H 0.19667 0.61663 0.25631 0.0
H1046 H 0.13646 0.58323 0.23443 0.0
H1047 H 0.17015 0.5928 0.23386 0.0
H1048 H 0.1038 0.71072 0.24773 0.0
H1049 H 0.13746 0.7197 0.25187 0.0
H1050 H 0.07718 0.68199 0.26277 0.0
H1051 H 0.06791 0.64887 0.25621 0.0
C1052 C 0.80683 0.902 0.65068 0.0
C1053 C 0.80549 0.87459 0.64323 0.0
C1054 C 0.79956 0.88747 0.59577 0.0
C1055 C 0.7991 0.91478 0.60345 0.0
N1056 N 0.79726 0.94797 0.63841 0.0
N1057 N 0.79568 0.84093 0.60972 0.0
C1058 C 0.80124 0.92203 0.63101 0.0
C1059 C 0.80039 0.86723 0.61604 0.0
N1060 N 0.81441 0.90892 0.67632 0.0
N1061 N 0.80021 0.88091 0.5691 0.0
H1062 H 0.79612 0.82556 0.62405 0.0
H1063 H 0.78905 0.83456 0.5908 0.0
H1064 H 0.79953 0.89515 0.55365 0.0
H1065 H 0.80358 0.86161 0.56228 0.0
H1066 H 0.8187 0.92855 0.68217 0.0
H1067 H 0.81853 0.89485 0.69135 0.0
H1068 H 0.79573 0.95399 0.65836 0.0
H1069 H 0.79314 0.9632 0.62457 0.0
C1070 C 0.5951 0.27637 0.18253 0.0
C1071 C 0.62174 0.26771 0.17926 0.0
C1072 C 0.61254 0.25891 0.13153 0.0
C1073 C 0.58527 0.2651 0.13535 0.0
N1074 N 0.54953 0.27693 0.16471 0.0
N1075 N 0.6548 0.24655 0.15206 0.0
C1076 C 0.57622 0.27312 0.16094 0.0
C1077 C 0.6302 0.25785 0.15412 0.0
N1078 N 0.5881 0.28832 0.20601 0.0
N1079 N 0.62175 0.25481 0.10613 0.0
H1080 H 0.66844 0.24541 0.16811 0.0
H1081 H 0.66083 0.23624 0.13511 0.0
H1082 H 0.60943 0.25532 0.08901 0.0
H1083 H 0.64197 0.25327 0.10172 0.0
H1084 H 0.56986 0.29756 0.20874 0.0
H1085 H 0.60139 0.2908 0.22226 0.0
H1086 H 0.54119 0.28 0.18349 0.0
H1087 H 0.53532 0.27515 0.14918 0.0
C1088 C 0.27007 0.11217 0.67106 0.0
C1089 C 0.27301 0.13966 0.66383 0.0
C1090 C 0.27023 0.1277 0.616 0.0
C1091 C 0.27015 0.10012 0.62319 0.0
N1092 N 0.27254 0.06568 0.65722 0.0
N1093 N 0.27962 0.17352 0.62959 0.0
C1094 C 0.2707 0.09221 0.65066 0.0
C1095 C 0.27398 0.14743 0.63632 0.0
N1096 N 0.26593 0.10524 0.69737 0.0
N1097 N 0.26615 0.13505 0.58973 0.0
H1098 H 0.2824 0.18862 0.64383 0.0
H1099 H 0.28369 0.17988 0.61004 0.0
H1100 H 0.2637 0.12117 0.57426 0.0
H1101 H 0.2629 0.1547 0.58357 0.0
H1102 H 0.26093 0.08588 0.70368 0.0
H1103 H 0.26533 0.11931 0.71277 0.0
H1104 H 0.27606 0.0587 0.67672 0.0
H1105 H 0.27236 0.05057 0.64279 0.0
C1106 C 0.41868 0.7679 0.15043 0.0
C1107 C 0.39272 0.75748 0.14385 0.0
C1108 C 0.40743 0.751 0.09736 0.0
C1109 C 0.43065 0.76697 0.10271 0.0
N1110 N 0.45872 0.79083 0.1349 0.0
N1111 N 0.37462 0.72113 0.1171 0.0
C1112 C 0.43631 0.77564 0.12939 0.0
C1113 C 0.39025 0.74379 0.11887 0.0
N1114 N 0.42864 0.765 0.17596 0.0
N1115 N 0.40144 0.74297 0.0717 0.0
H1116 H 0.36544 0.71272 0.134 0.0
H1117 H 0.37396 0.70885 0.1002 0.0
H1118 H 0.41354 0.74778 0.05535 0.0
H1119 H 0.38333 0.73351 0.06647 0.0
H1120 H 0.44823 0.7703 0.18151 0.0
H1121 H 0.41891 0.7528 0.19005 0.0
H1122 H 0.46222 0.79973 0.1536 0.0
H1123 H 0.47271 0.79609 0.12031 0.0
C1124 C 0.78172 0.15444 0.37146 0.0
C1125 C 0.77775 0.18 0.38295 0.0
C1126 C 0.77747 0.15999 0.42815 0.0
C1127 C 0.77943 0.13426 0.41647 0.0
N1128 N 0.77901 0.10618 0.37715 0.0
N1129 N 0.76747 0.20692 0.42143 0.0
C1130 C 0.78027 0.13124 0.38813 0.0
C1131 C 0.77437 0.18273 0.41111 0.0
N1132 N 0.78781 0.15246 0.3448 0.0
N1133 N 0.77944 0.16277 0.4555 0.0
H1134 H 0.76513 0.22404 0.40954 0.0
H1135 H 0.7619 0.20956 0.44133 0.0
H1136 H 0.78146 0.14655 0.46868 0.0
H1137 H 0.78116 0.18123 0.46508 0.0
H1138 H 0.79386 0.13479 0.33593 0.0
H1139 H 0.78893 0.16898 0.33189 0.0
H1140 H 0.77659 0.1027 0.35661 0.0
H1141 H 0.77818 0.0887 0.38877 0.0
C1142 C 0.3573 0.26218 0.91933 0.0
C1143 C 0.36449 0.26466 0.89186 0.0
C1144 C 0.41165 0.25866 0.90429 0.0
C1145 C 0.40482 0.25944 0.9319 0.0
N1146 N 0.37175 0.26427 0.96621 0.0
N1147 N 0.39872 0.26885 0.85823 0.0
C1148 C 0.37776 0.26171 0.9396 0.0
C1149 C 0.39173 0.26372 0.88431 0.0
N1150 N 0.3309 0.25969 0.92592 0.0
N1151 N 0.43713 0.25254 0.89718 0.0
H1152 H 0.38477 0.27261 0.84291 0.0
H1153 H 0.41844 0.27155 0.85215 0.0
H1154 H 0.45229 0.24882 0.91129 0.0
H1155 H 0.44265 0.24878 0.87746 0.0
H1156 H 0.32437 0.25514 0.94525 0.0
H1157 H 0.31545 0.25994 0.91155 0.0
H1158 H 0.35282 0.269 0.97298 0.0
H1159 H 0.3862 0.26347 0.98156 0.0
C1160 C 0.27815 0.90436 0.3762 0.0
C1161 C 0.28472 0.87736 0.38179 0.0
C1162 C 0.28506 0.88665 0.43042 0.0
C1163 C 0.27734 0.91336 0.42483 0.0
N1164 N 0.2625 0.94668 0.39281 0.0
N1165 N 0.29089 0.84145 0.41371 0.0
C1166 C 0.27261 0.92187 0.39782 0.0
C1167 C 0.28715 0.8681 0.4088 0.0
N1168 N 0.27824 0.91359 0.3502 0.0
N1169 N 0.29082 0.87922 0.45637 0.0
H1170 H 0.29291 0.82751 0.39835 0.0
H1171 H 0.29014 0.83274 0.43278 0.0
H1172 H 0.28829 0.8919 0.47271 0.0
H1173 H 0.29943 0.8611 0.4617 0.0
H1174 H 0.277 0.93376 0.34496 0.0
H1175 H 0.28151 0.90131 0.33371 0.0
H1176 H 0.25523 0.95274 0.37404 0.0
H1177 H 0.25945 0.96067 0.40785 0.0
C1178 C 0.68648 0.78463 0.89378 0.0
C1179 C 0.67943 0.78296 0.86602 0.0
C1180 C 0.63179 0.78104 0.87739 0.0
C1181 C 0.63891 0.78084 0.90517 0.0
N1182 N 0.67284 0.77753 0.94 0.0
N1183 N 0.64597 0.77448 0.83147 0.0
C1184 C 0.66624 0.7812 0.91343 0.0
C1185 C 0.65222 0.77965 0.85785 0.0
N1186 N 0.71235 0.79049 0.90133 0.0
N1187 N 0.60556 0.78355 0.86967 0.0
H1188 H 0.66041 0.77325 0.8166 0.0
H1189 H 0.6268 0.76907 0.82472 0.0
H1190 H 0.58999 0.78462 0.88336 0.0
H1191 H 0.5994 0.78681 0.84982 0.0
H1192 H 0.71819 0.79498 0.92103 0.0
H1193 H 0.72776 0.79296 0.88756 0.0
H1194 H 0.69236 0.77472 0.94695 0.0
H1195 H 0.65856 0.77501 0.95497 0.0
loop_
_geom_bond_atom_site_label_1
_geom_bond_atom_site_label_2
_geom_bond_distance
_geom_bond_site_symmetry_2
_ccdc_geom_bond_type
C0 C1 1.264 . S
C0 C5 1.479 . S
C0 C10 1.465 . S
C1 C0 1.264 . S
C1 C3 1.339 . S
C1 H28 0.931 . S
C2 C3 1.395 . S
C2 C4 1.320 . S
C3 C1 1.339 . S
C3 C2 1.395 . S
C3 H29 0.929 . S
C4 C2 1.320 . S
C4 C5 1.405 . S
C4 H30 0.930 . S
C5 C0 1.479 . S
C5 C4 1.405 . S
C5 H31 0.931 . S
U6 O7 2.454 . S
U6 O8 2.458 . S
U6 C9 2.984 . S
U6 C10 2.847 . S
U6 C23 2.882 . S
U6 O24 2.441 . S
U6 O25 2.420 . S
U6 O26 2.455 . S
U6 O27 2.449 . S
O7 U6 2.454 . S
O7 C9 1.353 . S
O8 U6 2.458 . S
O8 C9 1.286 . S
C9 U6 2.984 . S
C9 O7 1.353 . S
C9 O8 1.286 . S
C9 C11 1.363 . S
C10 C0 1.465 . S
C10 U6 2.847 . S
C10 O24 1.249 . S
C10 O25 1.202 . S
C11 C9 1.363 . S
C11 C13 1.408 . S
C11 C16 1.342 . S
C12 C13 1.310 . S
C12 C15 1.461 . S
C12 H32 0.932 . S
C13 C11 1.408 . S
C13 C12 1.310 . S
C13 H33 0.930 . S
C14 C15 1.474 . S
C14 C16 1.285 . S
C14 H34 0.929 . S
C15 C12 1.461 . S
C15 C14 1.474 . S
C16 C11 1.342 . S
C16 C14 1.285 . S
C16 H35 0.930 . S
C17 C20 1.424 . S
C17 C22 1.245 . S
C17 C23 1.428 . S
C18 C21 1.260 . S
C18 C22 1.477 . S
C18 H36 0.932 . S
C19 C20 1.384 . S
C19 C21 1.479 . S
C19 H37 0.929 . S
C20 C17 1.424 . S
C20 C19 1.384 . S
C20 H38 0.928 . S
C21 C18 1.260 . S
C21 C19 1.479 . S
C22 C17 1.245 . S
C22 C18 1.477 . S
C22 H39 0.932 . S
C23 U6 2.882 . S
C23 C17 1.428 . S
C23 O26 1.301 . S
C23 O27 1.282 . S
O24 U6 2.441 . S
O24 C10 1.249 . S
O25 U6 2.420 . S
O25 C10 1.202 . S
O26 U6 2.455 . S
O26 C23 1.301 . S
O27 U6 2.449 . S
O27 C23 1.282 . S
H28 C1 0.931 . S
H29 C3 0.929 . S
H30 C4 0.930 . S
H31 C5 0.931 . S
H32 C12 0.932 . S
H33 C13 0.930 . S
H34 C14 0.929 . S
H35 C16 0.930 . S
H36 C18 0.932 . S
H37 C19 0.929 . S
H38 C20 0.928 . S
H39 C22 0.932 . S
C40 C41 1.264 . S
C40 C45 1.479 . S
C40 C50 1.465 . S
C41 C40 1.264 . S
C41 C43 1.339 . S
C41 H68 0.931 . S
C42 C43 1.395 . S
C42 C44 1.320 . S
C43 C41 1.339 . S
C43 C42 1.395 . S
C43 H69 0.929 . S
C44 C42 1.320 . S
C44 C45 1.405 . S
C44 H70 0.930 . S
C45 C40 1.479 . S
C45 C44 1.405 . S
C45 H71 0.931 . S
U46 O47 2.454 . S
U46 O48 2.458 . S
U46 C49 2.984 . S
U46 C50 2.847 . S
U46 C63 2.882 . S
U46 O64 2.441 . S
U46 O65 2.420 . S
U46 O66 2.455 . S
U46 O67 2.449 . S
O47 U46 2.454 . S
O47 C49 1.353 . S
O48 U46 2.458 . S
O48 C49 1.286 . S
C49 U46 2.984 . S
C49 O47 1.353 . S
C49 O48 1.286 . S
C49 C51 1.363 . S
C50 C40 1.465 . S
C50 U46 2.847 . S
C50 O64 1.249 . S
C50 O65 1.202 . S
C51 C49 1.363 . S
C51 C53 1.408 . S
C51 C56 1.342 . S
C52 C53 1.310 . S
C52 C55 1.461 . S
C52 H72 0.932 . S
C53 C51 1.408 . S
C53 C52 1.310 . S
C53 H73 0.930 . S
C54 C55 1.474 . S
C54 C56 1.285 . S
C54 H74 0.929 . S
C55 C52 1.461 . S
C55 C54 1.474 . S
C56 C51 1.342 . S
C56 C54 1.285 . S
C56 H75 0.930 . S
C57 C60 1.424 . S
C57 C62 1.245 . S
C57 C63 1.428 . S
C58 C61 1.260 . S
C58 C62 1.477 . S
C58 H76 0.932 . S
C59 C60 1.384 . S
C59 C61 1.479 . S
C59 H77 0.929 . S
C60 C57 1.424 . S
C60 C59 1.384 . S
C60 H78 0.928 . S
C61 C58 1.260 . S
C61 C59 1.479 . S
C62 C57 1.245 . S
C62 C58 1.477 . S
C62 H79 0.932 . S
C63 U46 2.882 . S
C63 C57 1.428 . S
C63 O66 1.301 . S
C63 O67 1.282 . S
O64 U46 2.441 . S
O64 C50 1.249 . S
O65 U46 2.420 . S
O65 C50 1.202 . S
O66 U46 2.455 . S
O66 C63 1.301 . S
O67 U46 2.449 . S
O67 C63 1.282 . S
H68 C41 0.931 . S
H69 C43 0.929 . S
H70 C44 0.930 . S
H71 C45 0.931 . S
H72 C52 0.932 . S
H73 C53 0.930 . S
H74 C54 0.929 . S
H75 C56 0.930 . S
H76 C58 0.932 . S
H77 C59 0.929 . S
H78 C60 0.928 . S
H79 C62 0.932 . S
C80 C81 1.264 . S
C80 C85 1.479 . S
C80 C90 1.465 . S
C81 C80 1.264 . S
C81 C83 1.339 . S
C81 H108 0.931 . S
C82 C83 1.395 . S
C82 C84 1.320 . S
C83 C81 1.339 . S
C83 C82 1.395 . S
C83 H109 0.929 . S
C84 C82 1.320 . S
C84 C85 1.405 . S
C84 H110 0.930 . S
C85 C80 1.479 . S
C85 C84 1.405 . S
C85 H111 0.931 . S
U86 O87 2.454 . S
U86 O88 2.458 . S
U86 C89 2.984 . S
U86 C90 2.847 . S
U86 C103 2.882 . S
U86 O104 2.441 . S
U86 O105 2.420 . S
U86 O106 2.455 . S
U86 O107 2.449 . S
O87 U86 2.454 . S
O87 C89 1.353 . S
O88 U86 2.458 . S
O88 C89 1.286 . S
C89 U86 2.984 . S
C89 O87 1.353 . S
C89 O88 1.286 . S
C89 C91 1.363 . S
C90 C80 1.465 . S
C90 U86 2.847 . S
C90 O104 1.249 . S
C90 O105 1.202 . S
C91 C89 1.363 . S
C91 C93 1.408 . S
C91 C96 1.342 . S
C92 C93 1.310 . S
C92 C95 1.461 . S
C92 H112 0.932 . S
C93 C91 1.408 . S
C93 C92 1.310 . S
C93 H113 0.930 . S
C94 C95 1.474 . S
C94 C96 1.285 . S
C94 H114 0.929 . S
C95 C92 1.461 . S
C95 C94 1.474 . S
C96 C91 1.342 . S
C96 C94 1.285 . S
C96 H115 0.930 . S
C97 C100 1.424 . S
C97 C102 1.245 . S
C97 C103 1.428 . S
C98 C101 1.260 . S
C98 C102 1.477 . S
C98 H116 0.932 . S
C99 C100 1.384 . S
C99 C101 1.479 . S
C99 H117 0.929 . S
C100 C97 1.424 . S
C100 C99 1.384 . S
C100 H118 0.928 . S
C101 C98 1.260 . S
C101 C99 1.479 . S
C102 C97 1.245 . S
C102 C98 1.477 . S
C102 H119 0.932 . S
C103 U86 2.882 . S
C103 C97 1.428 . S
C103 O106 1.301 . S
C103 O107 1.282 . S
O104 U86 2.441 . S
O104 C90 1.249 . S
O105 U86 2.420 . S
O105 C90 1.202 . S
O106 U86 2.455 . S
O106 C103 1.301 . S
O107 U86 2.449 . S
O107 C103 1.282 . S
H108 C81 0.931 . S
H109 C83 0.929 . S
H110 C84 0.930 . S
H111 C85 0.931 . S
H112 C92 0.932 . S
H113 C93 0.930 . S
H114 C94 0.929 . S
H115 C96 0.930 . S
H116 C98 0.932 . S
H117 C99 0.929 . S
H118 C100 0.928 . S
H119 C102 0.932 . S
C120 C121 1.264 . S
C120 C125 1.479 . S
C120 C130 1.465 . S
C121 C120 1.264 . S
C121 C123 1.339 . S
C121 H148 0.931 . S
C122 C123 1.395 . S
C122 C124 1.320 . S
C123 C121 1.339 . S
C123 C122 1.395 . S
C123 H149 0.929 . S
C124 C122 1.320 . S
C124 C125 1.405 . S
C124 H150 0.930 . S
C125 C120 1.479 . S
C125 C124 1.405 . S
C125 H151 0.931 . S
U126 O127 2.454 . S
U126 O128 2.458 . S
U126 C129 2.984 . S
U126 C130 2.847 . S
U126 C143 2.882 . S
U126 O144 2.441 . S
U126 O145 2.420 . S
U126 O146 2.455 . S
U126 O147 2.449 . S
O127 U126 2.454 . S
O127 C129 1.353 . S
O128 U126 2.458 . S
O128 C129 1.286 . S
C129 U126 2.984 . S
C129 O127 1.353 . S
C129 O128 1.286 . S
C129 C131 1.363 . S
C130 C120 1.465 . S
C130 U126 2.847 . S
C130 O144 1.249 . S
C130 O145 1.202 . S
C131 C129 1.363 . S
C131 C133 1.408 . S
C131 C136 1.342 . S
C132 C133 1.310 . S
C132 C135 1.461 . S
C132 H152 0.932 . S
C133 C131 1.408 . S
C133 C132 1.310 . S
C133 H153 0.930 . S
C134 C135 1.474 . S
C134 C136 1.285 . S
C134 H154 0.929 . S
C135 C132 1.461 . S
C135 C134 1.474 . S
C136 C131 1.342 . S
C136 C134 1.285 . S
C136 H155 0.930 . S
C137 C140 1.424 . S
C137 C142 1.245 . S
C137 C143 1.428 . S
C138 C141 1.260 . S
C138 C142 1.477 . S
C138 H156 0.932 . S
C139 C140 1.384 . S
C139 C141 1.479 . S
C139 H157 0.929 . S
C140 C137 1.424 . S
C140 C139 1.384 . S
C140 H158 0.928 . S
C141 C138 1.260 . S
C141 C139 1.479 . S
C142 C137 1.245 . S
C142 C138 1.477 . S
C142 H159 0.932 . S
C143 U126 2.882 . S
C143 C137 1.428 . S
C143 O146 1.301 . S
C143 O147 1.282 . S
O144 U126 2.441 . S
O144 C130 1.249 . S
O145 U126 2.420 . S
O145 C130 1.202 . S
O146 U126 2.455 . S
O146 C143 1.301 . S
O147 U126 2.449 . S
O147 C143 1.282 . S
H148 C121 0.931 . S
H149 C123 0.929 . S
H150 C124 0.930 . S
H151 C125 0.931 . S
H152 C132 0.932 . S
H153 C133 0.930 . S
H154 C134 0.929 . S
H155 C136 0.930 . S
H156 C138 0.932 . S
H157 C139 0.929 . S
H158 C140 0.928 . S
H159 C142 0.932 . S
C160 C161 1.264 . S
C160 C165 1.479 . S
C160 C170 1.465 . S
C161 C160 1.264 . S
C161 C163 1.339 . S
C161 H188 0.931 . S
C162 C163 1.395 . S
C162 C164 1.320 . S
C163 C161 1.339 . S
C163 C162 1.395 . S
C163 H189 0.929 . S
C164 C162 1.320 . S
C164 C165 1.405 . S
C164 H190 0.930 . S
C165 C160 1.479 . S
C165 C164 1.405 . S
C165 H191 0.931 . S
U166 O167 2.454 . S
U166 O168 2.458 . S
U166 C169 2.984 . S
U166 C170 2.847 . S
U166 C183 2.882 . S
U166 O184 2.441 . S
U166 O185 2.420 . S
U166 O186 2.455 . S
U166 O187 2.449 . S
O167 U166 2.454 . S
O167 C169 1.353 . S
O168 U166 2.458 . S
O168 C169 1.286 . S
C169 U166 2.984 . S
C169 O167 1.353 . S
C169 O168 1.286 . S
C169 C171 1.363 . S
C170 C160 1.465 . S
C170 U166 2.847 . S
C170 O184 1.249 . S
C170 O185 1.202 . S
C171 C169 1.363 . S
C171 C173 1.408 . S
C171 C176 1.342 . S
C172 C173 1.310 . S
C172 C175 1.461 . S
C172 H192 0.932 . S
C173 C171 1.408 . S
C173 C172 1.310 . S
C173 H193 0.930 . S
C174 C175 1.474 . S
C174 C176 1.285 . S
C174 H194 0.929 . S
C175 C172 1.461 . S
C175 C174 1.474 . S
C176 C171 1.342 . S
C176 C174 1.285 . S
C176 H195 0.930 . S
C177 C180 1.424 . S
C177 C182 1.245 . S
C177 C183 1.428 . S
C178 C181 1.260 . S
C178 C182 1.477 . S
C178 H196 0.932 . S
C179 C180 1.384 . S
C179 C181 1.479 . S
C179 H197 0.929 . S
C180 C177 1.424 . S
C180 C179 1.384 . S
C180 H198 0.928 . S
C181 C178 1.260 . S
C181 C179 1.479 . S
C182 C177 1.245 . S
C182 C178 1.477 . S
C182 H199 0.932 . S
C183 U166 2.882 . S
C183 C177 1.428 . S
C183 O186 1.301 . S
C183 O187 1.282 . S
O184 U166 2.441 . S
O184 C170 1.249 . S
O185 U166 2.420 . S
O185 C170 1.202 . S
O186 U166 2.455 . S
O186 C183 1.301 . S
O187 U166 2.449 . S
O187 C183 1.282 . S
H188 C161 0.931 . S
H189 C163 0.929 . S
H190 C164 0.930 . S
H191 C165 0.931 . S
H192 C172 0.932 . S
H193 C173 0.930 . S
H194 C174 0.929 . S
H195 C176 0.930 . S
H196 C178 0.932 . S
H197 C179 0.929 . S
H198 C180 0.928 . S
H199 C182 0.932 . S
C200 C201 1.264 . S
C200 C205 1.479 . S
C200 C210 1.465 . S
C201 C200 1.264 . S
C201 C203 1.339 . S
C201 H228 0.931 . S
C202 C203 1.395 . S
C202 C204 1.320 . S
C203 C201 1.339 . S
C203 C202 1.395 . S
C203 H229 0.929 . S
C204 C202 1.320 . S
C204 C205 1.405 . S
C204 H230 0.930 . S
C205 C200 1.479 . S
C205 C204 1.405 . S
C205 H231 0.931 . S
U206 O207 2.454 . S
U206 O208 2.458 . S
U206 C209 2.984 . S
U206 C210 2.847 . S
U206 C223 2.882 . S
U206 O224 2.441 . S
U206 O225 2.420 . S
U206 O226 2.455 . S
U206 O227 2.449 . S
O207 U206 2.454 . S
O207 C209 1.353 . S
O208 U206 2.458 . S
O208 C209 1.286 . S
C209 U206 2.984 . S
C209 O207 1.353 . S
C209 O208 1.286 . S
C209 C211 1.363 . S
C210 C200 1.465 . S
C210 U206 2.847 . S
C210 O224 1.249 . S
C210 O225 1.202 . S
C211 C209 1.363 . S
C211 C213 1.408 . S
C211 C216 1.342 . S
C212 C213 1.310 . S
C212 C215 1.461 . S
C212 H232 0.932 . S
C213 C211 1.408 . S
C213 C212 1.310 . S
C213 H233 0.930 . S
C214 C215 1.474 . S
C214 C216 1.285 . S
C214 H234 0.929 . S
C215 C212 1.461 . S
C215 C214 1.474 . S
C216 C211 1.342 . S
C216 C214 1.285 . S
C216 H235 0.930 . S
C217 C220 1.424 . S
C217 C222 1.245 . S
C217 C223 1.428 . S
C218 C221 1.260 . S
C218 C222 1.477 . S
C218 H236 0.932 . S
C219 C220 1.384 . S
C219 C221 1.479 . S
C219 H237 0.929 . S
C220 C217 1.424 . S
C220 C219 1.384 . S
C220 H238 0.928 . S
C221 C218 1.260 . S
C221 C219 1.479 . S
C222 C217 1.245 . S
C222 C218 1.477 . S
C222 H239 0.932 . S
C223 U206 2.882 . S
C223 C217 1.428 . S
C223 O226 1.301 . S
C223 O227 1.282 . S
O224 U206 2.441 . S
O224 C210 1.249 . S
O225 U206 2.420 . S
O225 C210 1.202 . S
O226 U206 2.455 . S
O226 C223 1.301 . S
O227 U206 2.449 . S
O227 C223 1.282 . S
H228 C201 0.931 . S
H229 C203 0.929 . S
H230 C204 0.930 . S
H231 C205 0.931 . S
H232 C212 0.932 . S
H233 C213 0.930 . S
H234 C214 0.929 . S
H235 C216 0.930 . S
H236 C218 0.932 . S
H237 C219 0.929 . S
H238 C220 0.928 . S
H239 C222 0.932 . S
C240 C241 1.264 . S
C240 C245 1.479 . S
C240 C250 1.465 . S
C241 C240 1.264 . S
C241 C243 1.339 . S
C241 H268 0.931 . S
C242 C243 1.395 . S
C242 C244 1.320 . S
C243 C241 1.339 . S
C243 C242 1.395 . S
C243 H269 0.929 . S
C244 C242 1.320 . S
C244 C245 1.405 . S
C244 H270 0.930 . S
C245 C240 1.479 . S
C245 C244 1.405 . S
C245 H271 0.931 . S
U246 O247 2.454 . S
U246 O248 2.458 . S
U246 C249 2.984 . S
U246 C250 2.847 . S
U246 C263 2.882 . S
U246 O264 2.441 . S
U246 O265 2.420 . S
U246 O266 2.455 . S
U246 O267 2.449 . S
O247 U246 2.454 . S
O247 C249 1.353 . S
O248 U246 2.458 . S
O248 C249 1.286 . S
C249 U246 2.984 . S
C249 O247 1.353 . S
C249 O248 1.286 . S
C249 C251 1.363 . S
C250 C240 1.465 . S
C250 U246 2.847 . S
C250 O264 1.249 . S
C250 O265 1.202 . S
C251 C249 1.363 . S
C251 C253 1.408 . S
C251 C256 1.342 . S
C252 C253 1.310 . S
C252 C255 1.461 . S
C252 H272 0.932 . S
C253 C251 1.408 . S
C253 C252 1.310 . S
C253 H273 0.930 . S
C254 C255 1.474 . S
C254 C256 1.285 . S
C254 H274 0.929 . S
C255 C252 1.461 . S
C255 C254 1.474 . S
C256 C251 1.342 . S
C256 C254 1.285 . S
C256 H275 0.930 . S
C257 C260 1.424 . S
C257 C262 1.245 . S
C257 C263 1.428 . S
C258 C261 1.260 . S
C258 C262 1.477 . S
C258 H276 0.932 . S
C259 C260 1.384 . S
C259 C261 1.479 . S
C259 H277 0.929 . S
C260 C257 1.424 . S
C260 C259 1.384 . S
C260 H278 0.928 . S
C261 C258 1.260 . S
C261 C259 1.479 . S
C262 C257 1.245 . S
C262 C258 1.477 . S
C262 H279 0.932 . S
C263 U246 2.882 . S
C263 C257 1.428 . S
C263 O266 1.301 . S
C263 O267 1.282 . S
O264 U246 2.441 . S
O264 C250 1.249 . S
O265 U246 2.420 . S
O265 C250 1.202 . S
O266 U246 2.455 . S
O266 C263 1.301 . S
O267 U246 2.449 . S
O267 C263 1.282 . S
H268 C241 0.931 . S
H269 C243 0.929 . S
H270 C244 0.930 . S
H271 C245 0.931 . S
H272 C252 0.932 . S
H273 C253 0.930 . S
H274 C254 0.929 . S
H275 C256 0.930 . S
H276 C258 0.932 . S
H277 C259 0.929 . S
H278 C260 0.928 . S
H279 C262 0.932 . S
C280 C281 1.264 . S
C280 C285 1.479 . S
C280 C290 1.465 . S
C281 C280 1.264 . S
C281 C283 1.339 . S
C281 H308 0.931 . S
C282 C283 1.395 . S
C282 C284 1.320 . S
C283 C281 1.339 . S
C283 C282 1.395 . S
C283 H309 0.929 . S
C284 C282 1.320 . S
C284 C285 1.405 . S
C284 H310 0.930 . S
C285 C280 1.479 . S
C285 C284 1.405 . S
C285 H311 0.931 . S
U286 O287 2.454 . S
U286 O288 2.458 . S
U286 C289 2.984 . S
U286 C290 2.847 . S
U286 C303 2.882 . S
U286 O304 2.441 . S
U286 O305 2.420 . S
U286 O306 2.455 . S
U286 O307 2.449 . S
O287 U286 2.454 . S
O287 C289 1.353 . S
O288 U286 2.458 . S
O288 C289 1.286 . S
C289 U286 2.984 . S
C289 O287 1.353 . S
C289 O288 1.286 . S
C289 C291 1.363 . S
C290 C280 1.465 . S
C290 U286 2.847 . S
C290 O304 1.249 . S
C290 O305 1.202 . S
C291 C289 1.363 . S
C291 C293 1.408 . S
C291 C296 1.342 . S
C292 C293 1.310 . S
C292 C295 1.461 . S
C292 H312 0.932 . S
C293 C291 1.408 . S
C293 C292 1.310 . S
C293 H313 0.930 . S
C294 C295 1.474 . S
C294 C296 1.285 . S
C294 H314 0.929 . S
C295 C292 1.461 . S
C295 C294 1.474 . S
C296 C291 1.342 . S
C296 C294 1.285 . S
C296 H315 0.930 . S
C297 C300 1.424 . S
C297 C302 1.245 . S
C297 C303 1.428 . S
C298 C301 1.260 . S
C298 C302 1.477 . S
C298 H316 0.932 . S
C299 C300 1.384 . S
C299 C301 1.479 . S
C299 H317 0.929 . S
C300 C297 1.424 . S
C300 C299 1.384 . S
C300 H318 0.928 . S
C301 C298 1.260 . S
C301 C299 1.479 . S
C302 C297 1.245 . S
C302 C298 1.477 . S
C302 H319 0.932 . S
C303 U286 2.882 . S
C303 C297 1.428 . S
C303 O306 1.301 . S
C303 O307 1.282 . S
O304 U286 2.441 . S
O304 C290 1.249 . S
O305 U286 2.420 . S
O305 C290 1.202 . S
O306 U286 2.455 . S
O306 C303 1.301 . S
O307 U286 2.449 . S
O307 C303 1.282 . S
H308 C281 0.931 . S
H309 C283 0.929 . S
H310 C284 0.930 . S
H311 C285 0.931 . S
H312 C292 0.932 . S
H313 C293 0.930 . S
H314 C294 0.929 . S
H315 C296 0.930 . S
H316 C298 0.932 . S
H317 C299 0.929 . S
H318 C300 0.928 . S
H319 C302 0.932 . S
H320 O346 0.850 1_455 S
H321 O349 0.854 . S
H322 C357 0.930 . S
H323 C358 0.930 . S
H324 C360 0.930 . S
H325 C361 0.930 . S
H326 C363 0.931 . S
H327 C364 0.930 . S
H328 C366 0.930 . S
H329 C367 0.926 1_455 S
H330 C369 0.930 . S
H331 C370 0.931 . S
H332 C372 0.930 . S
H333 C373 0.929 . S
H334 C375 0.931 . S
H335 C376 0.930 . S
H336 C378 0.930 . S
H337 C379 0.932 . S
H338 C381 0.930 . S
H339 C382 0.929 . S
H340 C384 0.931 . S
H341 C385 0.930 . S
H342 C387 0.929 . S
H343 C388 0.931 . S
H344 C390 0.930 . S
H345 C391 0.929 . S
O346 H320 0.850 1_655 S
O346 C392 1.300 1_655 S
O347 C392 1.209 . S
O348 C393 1.199 . S
O349 H321 0.854 . S
O349 C393 1.297 . S
C350 C351 1.404 1_455 S
C350 C355 1.397 1_455 S
C350 C356 1.492 . S
C351 C350 1.404 1_655 S
C351 C352 1.396 . S
C351 C362 1.492 . S
C352 C351 1.396 . S
C352 C353 1.397 . S
C352 C368 1.509 . S
C353 C352 1.397 . S
C353 C354 1.412 . S
C353 C374 1.485 . S
C354 C353 1.412 . S
C354 C355 1.388 . S
C354 C380 1.490 . S
C355 C350 1.397 1_655 S
C355 C354 1.388 . S
C355 C386 1.519 1_655 S
C356 C350 1.492 . S
C356 C357 1.363 . S
C356 C361 1.390 . S
C357 H322 0.930 . S
C357 C356 1.363 . S
C357 C358 1.372 . S
C358 H323 0.930 . S
C358 C357 1.372 . S
C358 C359 1.383 . S
C359 C358 1.383 . S
C359 C360 1.395 . S
C360 H324 0.930 . S
C360 C359 1.395 . S
C360 C361 1.362 . S
C361 H325 0.930 . S
C361 C356 1.390 . S
C361 C360 1.362 . S
C362 C351 1.492 . S
C362 C363 1.377 . S
C362 C367 1.402 . S
C363 H326 0.931 . S
C363 C362 1.377 . S
C363 C364 1.376 . S
C364 H327 0.930 . S
C364 C363 1.376 . S
C364 C365 1.380 . S
C365 C364 1.380 . S
C365 C366 1.376 1_655 S
C365 C392 1.484 1_655 S
C366 H328 0.930 . S
C366 C365 1.376 1_455 S
C366 C367 1.374 1_455 S
C367 H329 0.926 1_655 S
C367 C362 1.402 . S
C367 C366 1.374 1_655 S
C368 C352 1.509 . S
C368 C369 1.391 . S
C368 C373 1.386 . S
C369 H330 0.930 . S
C369 C368 1.391 . S
C369 C370 1.375 . S
C370 H331 0.931 . S
C370 C369 1.375 . S
C370 C371 1.375 . S
C371 C370 1.375 . S
C371 C372 1.361 . S
C372 H332 0.930 . S
C372 C371 1.361 . S
C372 C373 1.399 . S
C373 H333 0.929 . S
C373 C368 1.386 . S
C373 C372 1.399 . S
C374 C353 1.485 . S
C374 C375 1.394 . S
C374 C379 1.360 . S
C375 H334 0.931 . S
C375 C374 1.394 . S
C375 C376 1.372 . S
C376 H335 0.930 . S
C376 C375 1.372 . S
C376 C377 1.397 . S
C377 C376 1.397 . S
C377 C378 1.390 . S
C377 C393 1.476 . S
C378 H336 0.930 . S
C378 C377 1.390 . S
C378 C379 1.366 . S
C379 H337 0.932 . S
C379 C374 1.360 . S
C379 C378 1.366 . S
C380 C354 1.490 . S
C380 C381 1.380 . S
C380 C385 1.386 . S
C381 H338 0.930 . S
C381 C380 1.380 . S
C381 C382 1.381 . S
C382 H339 0.929 . S
C382 C381 1.381 . S
C382 C383 1.371 . S
C383 C382 1.371 . S
C383 C384 1.380 . S
C384 H340 0.931 . S
C384 C383 1.380 . S
C384 C385 1.387 . S
C385 H341 0.930 . S
C385 C380 1.386 . S
C385 C384 1.387 . S
C386 C355 1.519 1_455 S
C386 C387 1.377 . S
C386 C391 1.361 . S
C387 H342 0.929 . S
C387 C386 1.377 . S
C387 C388 1.386 . S
C388 H343 0.931 . S
C388 C387 1.386 . S
C388 C389 1.363 . S
C389 C388 1.363 . S
C389 C390 1.385 . S
C390 H344 0.930 . S
C390 C389 1.385 . S
C390 C391 1.396 . S
C391 H345 0.929 . S
C391 C386 1.361 . S
C391 C390 1.396 . S
C392 O346 1.300 1_455 S
C392 O347 1.209 . S
C392 C365 1.484 1_455 S
C393 O348 1.199 . S
C393 O349 1.297 . S
C393 C377 1.476 . S
H394 O420 0.856 . S
H395 O423 0.854 . S
H396 C431 0.930 . S
H397 C432 0.930 . S
H398 C434 0.930 . S
H399 C435 0.930 . S
H400 C437 0.931 . S
H401 C438 0.930 . S
H402 C440 0.930 . S
H403 C441 0.929 . S
H404 C443 0.930 . S
H405 C444 0.931 . S
H406 C446 0.930 . S
H407 C447 0.929 . S
H408 C449 0.931 . S
H409 C450 0.930 . S
H410 C452 0.930 . S
H411 C453 0.932 . S
H412 C455 0.930 1_455 S
H413 C456 0.929 . S
H414 C458 0.931 . S
H415 C459 0.930 . S
H416 C461 0.929 . S
H417 C462 0.931 . S
H418 C464 0.930 . S
H419 C465 0.929 . S
O420 H394 0.856 . S
O420 C466 1.300 . S
O421 C466 1.209 . S
O422 C467 1.199 . S
O423 H395 0.854 . S
O423 C467 1.297 . S
C424 C425 1.404 . S
C424 C429 1.397 . S
C424 C430 1.492 . S
C425 C424 1.404 . S
C425 C426 1.396 1_455 S
C425 C436 1.492 . S
C426 C425 1.396 1_655 S
C426 C427 1.397 . S
C426 C442 1.509 . S
C427 C426 1.397 . S
C427 C428 1.431 . S
C427 C448 1.485 . S
C428 C427 1.431 . S
C428 C429 1.359 1_655 S
C428 C454 1.502 . S
C429 C424 1.397 . S
C429 C428 1.359 1_455 S
C429 C460 1.519 . S
C430 C424 1.492 . S
C430 C431 1.363 . S
C430 C435 1.390 . S
C431 H396 0.930 . S
C431 C430 1.363 . S
C431 C432 1.372 . S
C432 H397 0.930 . S
C432 C431 1.372 . S
C432 C433 1.383 . S
C433 C432 1.383 . S
C433 C434 1.395 . S
C434 H398 0.930 . S
C434 C433 1.395 . S
C434 C435 1.362 . S
C435 H399 0.930 . S
C435 C430 1.390 . S
C435 C434 1.362 . S
C436 C425 1.492 . S
C436 C437 1.377 . S
C436 C441 1.397 . S
C437 H400 0.931 . S
C437 C436 1.377 . S
C437 C438 1.376 . S
C438 H401 0.930 . S
C438 C437 1.376 . S
C438 C439 1.376 . S
C439 C438 1.376 . S
C439 C440 1.378 . S
C439 C466 1.486 . S
C440 H402 0.930 . S
C440 C439 1.378 . S
C440 C441 1.376 . S
C441 H403 0.929 . S
C441 C436 1.397 . S
C441 C440 1.376 . S
C442 C426 1.509 . S
C442 C443 1.391 . S
C442 C447 1.386 . S
C443 H404 0.930 . S
C443 C442 1.391 . S
C443 C444 1.375 . S
C444 H405 0.931 . S
C444 C443 1.375 . S
C444 C445 1.375 . S
C445 C444 1.375 . S
C445 C446 1.361 . S
C446 H406 0.930 . S
C446 C445 1.361 . S
C446 C447 1.399 . S
C447 H407 0.929 . S
C447 C442 1.386 . S
C447 C446 1.399 . S
C448 C427 1.485 . S
C448 C449 1.394 . S
C448 C453 1.360 . S
C449 H408 0.931 . S
C449 C448 1.394 . S
C449 C450 1.372 . S
C450 H409 0.930 . S
C450 C449 1.372 . S
C450 C451 1.397 . S
C451 C450 1.397 . S
C451 C452 1.390 . S
C451 C467 1.476 . S
C452 H410 0.930 . S
C452 C451 1.390 . S
C452 C453 1.366 . S
C453 H411 0.932 . S
C453 C448 1.360 . S
C453 C452 1.366 . S
C454 C428 1.502 . S
C454 C455 1.380 . S
C454 C459 1.386 . S
C455 H412 0.930 1_655 S
C455 C454 1.380 . S
C455 C456 1.381 . S
C456 H413 0.929 . S
C456 C455 1.381 . S
C456 C457 1.371 . S
C457 C456 1.371 . S
C457 C458 1.380 . S
C458 H414 0.931 . S
C458 C457 1.380 . S
C458 C459 1.387 . S
C459 H415 0.930 . S
C459 C454 1.386 . S
C459 C458 1.387 . S
C460 C429 1.519 . S
C460 C461 1.377 . S
C460 C465 1.361 . S
C461 H416 0.929 . S
C461 C460 1.377 . S
C461 C462 1.386 . S
C462 H417 0.931 . S
C462 C461 1.386 . S
C462 C463 1.363 . S
C463 C462 1.363 . S
C463 C464 1.385 . S
C464 H418 0.930 . S
C464 C463 1.385 . S
C464 C465 1.396 . S
C465 H419 0.929 . S
C465 C460 1.361 . S
C465 C464 1.396 . S
C466 O420 1.300 . S
C466 O421 1.209 . S
C466 C439 1.486 . S
C467 O422 1.199 . S
C467 O423 1.297 . S
C467 C451 1.476 . S
H468 O494 0.856 . S
H469 O497 0.854 . S
H470 C505 0.930 . S
H471 C506 0.930 . S
H472 C508 0.930 . S
H473 C509 0.930 . S
H474 C511 0.931 . S
H475 C512 0.930 . S
H476 C514 0.930 1_565 S
H477 C515 0.929 . S
H478 C517 0.930 . S
H479 C518 0.931 . S
H480 C520 0.930 . S
H481 C521 0.929 . S
H482 C523 0.931 . S
H483 C524 0.930 . S
H484 C526 0.930 . S
H485 C527 0.932 . S
H486 C529 0.930 . S
H487 C530 0.929 . S
H488 C532 0.931 . S
H489 C533 0.930 . S
H490 C535 0.929 . S
H491 C536 0.931 . S
H492 C538 0.930 . S
H493 C539 0.929 . S
O494 H468 0.856 . S
O494 C540 1.298 1_545 S
O495 C540 1.211 . S
O496 C541 1.199 . S
O497 H469 0.854 . S
O497 C541 1.297 . S
C498 C499 1.404 . S
C498 C503 1.397 . S
C498 C504 1.492 1_545 S
C499 C498 1.404 . S
C499 C500 1.396 . S
C499 C510 1.492 . S
C500 C499 1.396 . S
C500 C501 1.397 . S
C500 C516 1.509 . S
C501 C500 1.397 . S
C501 C502 1.412 . S
C501 C522 1.485 . S
C502 C501 1.412 . S
C502 C503 1.388 . S
C502 C528 1.490 . S
C503 C498 1.397 . S
C503 C502 1.388 . S
C503 C534 1.519 . S
C504 C498 1.492 1_565 S
C504 C505 1.363 . S
C504 C509 1.390 . S
C505 H470 0.930 . S
C505 C504 1.363 . S
C505 C506 1.372 . S
C506 H471 0.930 . S
C506 C505 1.372 . S
C506 C507 1.383 . S
C507 C506 1.383 . S
C507 C508 1.395 . S
C508 H472 0.930 . S
C508 C507 1.395 . S
C508 C509 1.362 . S
C509 H473 0.930 . S
C509 C504 1.390 . S
C509 C508 1.362 . S
C510 C499 1.492 . S
C510 C511 1.377 . S
C510 C515 1.397 . S
C511 H474 0.931 . S
C511 C510 1.377 . S
C511 C512 1.376 . S
C512 H475 0.930 . S
C512 C511 1.376 . S
C512 C513 1.376 . S
C513 C512 1.376 . S
C513 C514 1.378 . S
C513 C540 1.484 1_545 S
C514 H476 0.930 1_545 S
C514 C513 1.378 . S
C514 C515 1.376 . S
C515 H477 0.929 . S
C515 C510 1.397 . S
C515 C514 1.376 . S
C516 C500 1.509 . S
C516 C517 1.391 . S
C516 C521 1.386 . S
C517 H478 0.930 . S
C517 C516 1.391 . S
C517 C518 1.375 . S
C518 H479 0.931 . S
C518 C517 1.375 . S
C518 C519 1.375 . S
C519 C518 1.375 . S
C519 C520 1.361 . S
C520 H480 0.930 . S
C520 C519 1.361 . S
C520 C521 1.399 . S
C521 H481 0.929 . S
C521 C516 1.386 . S
C521 C520 1.399 . S
C522 C501 1.485 . S
C522 C523 1.394 . S
C522 C527 1.360 . S
C523 H482 0.931 . S
C523 C522 1.394 . S
C523 C524 1.372 . S
C524 H483 0.930 . S
C524 C523 1.372 . S
C524 C525 1.397 . S
C525 C524 1.397 . S
C525 C526 1.390 . S
C525 C541 1.476 . S
C526 H484 0.930 . S
C526 C525 1.390 . S
C526 C527 1.366 . S
C527 H485 0.932 . S
C527 C522 1.360 . S
C527 C526 1.366 . S
C528 C502 1.490 . S
C528 C529 1.380 . S
C528 C533 1.386 . S
C529 H486 0.930 . S
C529 C528 1.380 . S
C529 C530 1.381 . S
C530 H487 0.929 . S
C530 C529 1.381 . S
C530 C531 1.371 . S
C531 C530 1.371 . S
C531 C532 1.380 . S
C532 H488 0.931 . S
C532 C531 1.380 . S
C532 C533 1.387 . S
C533 H489 0.930 . S
C533 C528 1.386 . S
C533 C532 1.387 . S
C534 C503 1.519 . S
C534 C535 1.377 1_545 S
C534 C539 1.361 . S
C535 H490 0.929 . S
C535 C534 1.377 1_565 S
C535 C536 1.386 . S
C536 H491 0.931 . S
C536 C535 1.386 . S
C536 C537 1.363 . S
C537 C536 1.363 . S
C537 C538 1.385 . S
C538 H492 0.930 . S
C538 C537 1.385 . S
C538 C539 1.396 1_565 S
C539 H493 0.929 . S
C539 C534 1.361 . S
C539 C538 1.396 1_545 S
C540 O494 1.298 1_565 S
C540 O495 1.211 . S
C540 C513 1.484 1_565 S
C541 O496 1.199 . S
C541 O497 1.297 . S
C541 C525 1.476 . S
H542 O568 0.856 . S
H543 O571 0.854 . S
H544 C579 0.930 . S
H545 C580 0.930 . S
H546 C582 0.930 . S
H547 C583 0.930 . S
H548 C585 0.931 . S
H549 C586 0.930 . S
H550 C588 0.930 . S
H551 C589 0.929 . S
H552 C591 0.930 . S
H553 C592 0.931 . S
H554 C594 0.930 . S
H555 C595 0.929 . S
H556 C597 0.931 . S
H557 C598 0.930 . S
H558 C600 0.930 1_556 S
H559 C601 0.932 . S
H560 C603 0.930 . S
H561 C604 0.929 . S
H562 C606 0.931 . S
H563 C607 0.930 . S
H564 C609 0.929 . S
H565 C610 0.931 . S
H566 C612 0.930 . S
H567 C613 0.929 . S
O568 H542 0.856 . S
O568 C614 1.300 . S
O569 C614 1.209 . S
O570 C615 1.199 . S
O571 H543 0.854 . S
O571 C615 1.297 . S
C572 C573 1.404 . S
C572 C577 1.397 1_556 S
C572 C578 1.492 . S
C573 C572 1.404 . S
C573 C574 1.396 . S
C573 C584 1.492 . S
C574 C573 1.396 . S
C574 C575 1.397 . S
C574 C590 1.509 . S
C575 C574 1.397 . S
C575 C576 1.412 1_556 S
C575 C596 1.485 1_556 S
C576 C575 1.412 1_554 S
C576 C577 1.388 . S
C576 C602 1.490 . S
C577 C572 1.397 1_554 S
C577 C576 1.388 . S
C577 C608 1.519 . S
C578 C572 1.492 . S
C578 C579 1.363 . S
C578 C583 1.390 . S
C579 H544 0.930 . S
C579 C578 1.363 . S
C579 C580 1.372 . S
C580 H545 0.930 . S
C580 C579 1.372 . S
C580 C581 1.383 . S
C581 C580 1.383 . S
C581 C582 1.395 . S
C582 H546 0.930 . S
C582 C581 1.395 . S
C582 C583 1.362 . S
C583 H547 0.930 . S
C583 C578 1.390 . S
C583 C582 1.362 . S
C584 C573 1.492 . S
C584 C585 1.377 . S
C584 C589 1.397 . S
C585 H548 0.931 . S
C585 C584 1.377 . S
C585 C586 1.376 . S
C586 H549 0.930 . S
C586 C585 1.376 . S
C586 C587 1.376 . S
C587 C586 1.376 . S
C587 C588 1.378 . S
C587 C614 1.486 . S
C588 H550 0.930 . S
C588 C587 1.378 . S
C588 C589 1.376 . S
C589 H551 0.929 . S
C589 C584 1.397 . S
C589 C588 1.376 . S
C590 C574 1.509 . S
C590 C591 1.391 . S
C590 C595 1.386 . S
C591 H552 0.930 . S
C591 C590 1.391 . S
C591 C592 1.375 . S
C592 H553 0.931 . S
C592 C591 1.375 . S
C592 C593 1.375 . S
C593 C592 1.375 . S
C593 C594 1.361 . S
C594 H554 0.930 . S
C594 C593 1.361 . S
C594 C595 1.399 . S
C595 H555 0.929 . S
C595 C590 1.386 . S
C595 C594 1.399 . S
C596 C575 1.485 1_554 S
C596 C597 1.394 . S
C596 C601 1.360 1_554 S
C597 H556 0.931 . S
C597 C596 1.394 . S
C597 C598 1.372 . S
C598 H557 0.930 . S
C598 C597 1.372 . S
C598 C599 1.397 . S
C599 C598 1.397 . S
C599 C600 1.390 . S
C599 C615 1.476 . S
C600 H558 0.930 1_554 S
C600 C599 1.390 . S
C600 C601 1.366 1_554 S
C601 H559 0.932 . S
C601 C596 1.360 1_556 S
C601 C600 1.366 1_556 S
C602 C576 1.490 . S
C602 C603 1.380 . S
C602 C607 1.386 . S
C603 H560 0.930 . S
C603 C602 1.380 . S
C603 C604 1.381 . S
C604 H561 0.929 . S
C604 C603 1.381 . S
C604 C605 1.371 . S
C605 C604 1.371 . S
C605 C606 1.380 . S
C606 H562 0.931 . S
C606 C605 1.380 . S
C606 C607 1.387 . S
C607 H563 0.930 . S
C607 C602 1.386 . S
C607 C606 1.387 . S
C608 C577 1.519 . S
C608 C609 1.377 . S
C608 C613 1.361 . S
C609 H564 0.929 . S
C609 C608 1.377 . S
C609 C610 1.386 . S
C610 H565 0.931 . S
C610 C609 1.386 . S
C610 C611 1.363 . S
C611 C610 1.363 . S
C611 C612 1.385 . S
C612 H566 0.930 . S
C612 C611 1.385 . S
C612 C613 1.396 . S
C613 H567 0.929 . S
C613 C608 1.361 . S
C613 C612 1.396 . S
C614 O568 1.300 . S
C614 O569 1.209 . S
C614 C587 1.486 . S
C615 O570 1.199 . S
C615 O571 1.297 . S
C615 C599 1.476 . S
H616 O642 0.856 . S
H617 O645 0.854 . S
H618 C653 0.930 . S
H619 C654 0.930 . S
H620 C656 0.930 . S
H621 C657 0.930 . S
H622 C659 0.931 . S
H623 C660 0.930 . S
H624 C662 0.930 1_565 S
H625 C663 0.929 . S
H626 C665 0.930 . S
H627 C666 0.931 . S
H628 C668 0.930 . S
H629 C669 0.929 . S
H630 C671 0.931 . S
H631 C672 0.930 . S
H632 C674 0.930 . S
H633 C675 0.932 . S
H634 C677 0.930 . S
H635 C678 0.929 . S
H636 C680 0.931 . S
H637 C681 0.930 . S
H638 C683 0.929 . S
H639 C684 0.931 . S
H640 C686 0.930 . S
H641 C687 0.929 . S
O642 H616 0.856 . S
O642 C688 1.300 . S
O643 C688 1.209 1_565 S
O644 C689 1.199 . S
O645 H617 0.854 . S
O645 C689 1.297 . S
C646 C647 1.404 . S
C646 C651 1.397 . S
C646 C652 1.492 1_545 S
C647 C646 1.404 . S
C647 C648 1.396 . S
C647 C658 1.492 . S
C648 C647 1.396 . S
C648 C649 1.397 . S
C648 C664 1.509 . S
C649 C648 1.397 . S
C649 C650 1.412 . S
C649 C670 1.485 . S
C650 C649 1.412 . S
C650 C651 1.388 . S
C650 C676 1.490 . S
C651 C646 1.397 . S
C651 C650 1.388 . S
C651 C682 1.519 1_545 S
C652 C646 1.492 1_565 S
C652 C653 1.363 . S
C652 C657 1.390 . S
C653 H618 0.930 . S
C653 C652 1.363 . S
C653 C654 1.372 . S
C654 H619 0.930 . S
C654 C653 1.372 . S
C654 C655 1.383 . S
C655 C654 1.383 . S
C655 C656 1.395 . S
C656 H620 0.930 . S
C656 C655 1.395 . S
C656 C657 1.362 . S
C657 H621 0.930 . S
C657 C652 1.390 . S
C657 C656 1.362 . S
C658 C647 1.492 . S
C658 C659 1.377 . S
C658 C663 1.397 . S
C659 H622 0.931 . S
C659 C658 1.377 . S
C659 C660 1.376 . S
C660 H623 0.930 . S
C660 C659 1.376 . S
C660 C661 1.376 . S
C661 C660 1.376 . S
C661 C662 1.378 . S
C661 C688 1.486 . S
C662 H624 0.930 1_545 S
C662 C661 1.378 . S
C662 C663 1.376 . S
C663 H625 0.929 . S
C663 C658 1.397 . S
C663 C662 1.376 . S
C664 C648 1.509 . S
C664 C665 1.391 . S
C664 C669 1.386 . S
C665 H626 0.930 . S
C665 C664 1.391 . S
C665 C666 1.375 . S
C666 H627 0.931 . S
C666 C665 1.375 . S
C666 C667 1.375 . S
C667 C666 1.375 . S
C667 C668 1.361 . S
C668 H628 0.930 . S
C668 C667 1.361 . S
C668 C669 1.399 . S
C669 H629 0.929 . S
C669 C664 1.386 . S
C669 C668 1.399 . S
C670 C649 1.485 . S
C670 C671 1.394 . S
C670 C675 1.360 . S
C671 H630 0.931 . S
C671 C670 1.394 . S
C671 C672 1.372 . S
C672 H631 0.930 . S
C672 C671 1.372 . S
C672 C673 1.397 . S
C673 C672 1.397 . S
C673 C674 1.390 . S
C673 C689 1.476 . S
C674 H632 0.930 . S
C674 C673 1.390 . S
C674 C675 1.366 . S
C675 H633 0.932 . S
C675 C670 1.360 . S
C675 C674 1.366 . S
C676 C650 1.490 . S
C676 C677 1.380 . S
C676 C681 1.386 . S
C677 H634 0.930 . S
C677 C676 1.380 . S
C677 C678 1.381 . S
C678 H635 0.929 . S
C678 C677 1.381 . S
C678 C679 1.371 . S
C679 C678 1.371 . S
C679 C680 1.380 . S
C680 H636 0.931 . S
C680 C679 1.380 . S
C680 C681 1.387 . S
C681 H637 0.930 . S
C681 C676 1.386 . S
C681 C680 1.387 . S
C682 C651 1.519 1_565 S
C682 C683 1.377 . S
C682 C687 1.361 . S
C683 H638 0.929 . S
C683 C682 1.377 . S
C683 C684 1.386 . S
C684 H639 0.931 . S
C684 C683 1.386 . S
C684 C685 1.363 . S
C685 C684 1.363 . S
C685 C686 1.385 . S
C686 H640 0.930 . S
C686 C685 1.385 . S
C686 C687 1.396 . S
C687 H641 0.929 . S
C687 C682 1.361 . S
C687 C686 1.396 . S
C688 O642 1.300 . S
C688 O643 1.209 1_545 S
C688 C661 1.486 . S
C689 O644 1.199 . S
C689 O645 1.297 . S
C689 C673 1.476 . S
H690 O716 0.856 . S
H691 O719 0.854 . S
H692 C727 0.930 . S
H693 C728 0.930 . S
H694 C730 0.930 . S
H695 C731 0.930 . S
H696 C733 0.931 . S
H697 C734 0.930 . S
H698 C736 0.930 . S
H699 C737 0.929 . S
H700 C739 0.930 . S
H701 C740 0.931 . S
H702 C742 0.930 . S
H703 C743 0.929 . S
H704 C745 0.931 . S
H705 C746 0.930 . S
H706 C748 0.930 . S
H707 C749 0.932 . S
H708 C751 0.930 . S
H709 C752 0.929 . S
H710 C754 0.931 . S
H711 C755 0.930 . S
H712 C757 0.929 . S
H713 C758 0.931 . S
H714 C760 0.930 . S
H715 C761 0.929 . S
O716 H690 0.856 . S
O716 C762 1.300 . S
O717 C762 1.209 . S
O718 C763 1.199 . S
O719 H691 0.854 . S
O719 C763 1.297 . S
C720 C721 1.404 . S
C720 C725 1.397 1_556 S
C720 C726 1.492 . S
C721 C720 1.404 . S
C721 C722 1.396 . S
C721 C732 1.492 . S
C722 C721 1.396 . S
C722 C723 1.397 1_556 S
C722 C738 1.509 . S
C723 C722 1.397 1_554 S
C723 C724 1.412 . S
C723 C744 1.485 . S
C724 C723 1.412 . S
C724 C725 1.388 . S
C724 C750 1.490 . S
C725 C720 1.397 1_554 S
C725 C724 1.388 . S
C725 C756 1.519 . S
C726 C720 1.492 . S
C726 C727 1.363 . S
C726 C731 1.390 . S
C727 H692 0.930 . S
C727 C726 1.363 . S
C727 C728 1.372 . S
C728 H693 0.930 . S
C728 C727 1.372 . S
C728 C729 1.383 . S
C729 C728 1.383 . S
C729 C730 1.395 . S
C730 H694 0.930 . S
C730 C729 1.395 . S
C730 C731 1.362 . S
C731 H695 0.930 . S
C731 C726 1.390 . S
C731 C730 1.362 . S
C732 C721 1.492 . S
C732 C733 1.377 . S
C732 C737 1.397 . S
C733 H696 0.931 . S
C733 C732 1.377 . S
C733 C734 1.376 . S
C734 H697 0.930 . S
C734 C733 1.376 . S
C734 C735 1.376 . S
C735 C734 1.376 . S
C735 C736 1.378 . S
C735 C762 1.486 . S
C736 H698 0.930 . S
C736 C735 1.378 . S
C736 C737 1.376 . S
C737 H699 0.929 . S
C737 C732 1.397 . S
C737 C736 1.376 . S
C738 C722 1.509 . S
C738 C739 1.391 . S
C738 C743 1.386 . S
C739 H700 0.930 . S
C739 C738 1.391 . S
C739 C740 1.375 . S
C740 H701 0.931 . S
C740 C739 1.375 . S
C740 C741 1.375 . S
C741 C740 1.375 . S
C741 C742 1.361 . S
C742 H702 0.930 . S
C742 C741 1.361 . S
C742 C743 1.399 . S
C743 H703 0.929 . S
C743 C738 1.386 . S
C743 C742 1.399 . S
C744 C723 1.485 . S
C744 C745 1.394 . S
C744 C749 1.360 . S
C745 H704 0.931 . S
C745 C744 1.394 . S
C745 C746 1.372 . S
C746 H705 0.930 . S
C746 C745 1.372 . S
C746 C747 1.397 . S
C747 C746 1.397 . S
C747 C748 1.390 . S
C747 C763 1.476 . S
C748 H706 0.930 . S
C748 C747 1.390 . S
C748 C749 1.366 . S
C749 H707 0.932 . S
C749 C744 1.360 . S
C749 C748 1.366 . S
C750 C724 1.490 . S
C750 C751 1.380 . S
C750 C755 1.386 . S
C751 H708 0.930 . S
C751 C750 1.380 . S
C751 C752 1.381 . S
C752 H709 0.929 . S
C752 C751 1.381 . S
C752 C753 1.371 . S
C753 C752 1.371 . S
C753 C754 1.380 . S
C754 H710 0.931 . S
C754 C753 1.380 . S
C754 C755 1.387 . S
C755 H711 0.930 . S
C755 C750 1.386 . S
C755 C754 1.387 . S
C756 C725 1.519 . S
C756 C757 1.377 . S
C756 C761 1.361 . S
C757 H712 0.929 . S
C757 C756 1.377 . S
C757 C758 1.386 . S
C758 H713 0.931 . S
C758 C757 1.386 . S
C758 C759 1.363 . S
C759 C758 1.363 . S
C759 C760 1.385 . S
C760 H714 0.930 . S
C760 C759 1.385 . S
C760 C761 1.396 . S
C761 H715 0.929 . S
C761 C756 1.361 . S
C761 C760 1.396 . S
C762 O716 1.300 . S
C762 O717 1.209 . S
C762 C735 1.486 . S
C763 O718 1.199 . S
C763 O719 1.297 . S
C763 C747 1.476 . S
C764 C765 1.363 . S
C764 C770 1.379 . S
C764 N772 1.356 . S
C765 C764 1.363 . S
C765 C771 1.363 . S
C766 C767 1.363 . S
C766 C771 1.379 . S
C766 N773 1.356 . S
C767 C766 1.363 . S
C767 C770 1.363 . S
N768 C770 1.356 . S
N768 H780 0.984 . S
N768 H781 0.985 . S
N769 C771 1.356 . S
N769 H774 0.984 . S
N769 H775 0.985 . S
C770 C764 1.379 . S
C770 C767 1.363 . S
C770 N768 1.356 . S
C771 C765 1.363 . S
C771 C766 1.379 . S
C771 N769 1.356 . S
N772 C764 1.356 . S
N772 H778 0.984 . S
N772 H779 0.984 . S
N773 C766 1.356 . S
N773 H776 0.984 . S
N773 H777 0.985 . S
H774 N769 0.984 . S
H775 N769 0.985 . S
H776 N773 0.984 . S
H777 N773 0.985 . S
H778 N772 0.984 . S
H779 N772 0.984 . S
H780 N768 0.984 . S
H781 N768 0.985 . S
C782 C783 1.363 . S
C782 C788 1.379 . S
C782 N790 1.356 . S
C783 C782 1.363 . S
C783 C789 1.363 . S
C784 C785 1.363 . S
C784 C789 1.379 . S
C784 N791 1.356 . S
C785 C784 1.363 . S
C785 C788 1.363 . S
N786 C788 1.356 . S
N786 H798 0.984 . S
N786 H799 0.985 . S
N787 C789 1.356 . S
N787 H792 0.984 . S
N787 H793 0.985 . S
C788 C782 1.379 . S
C788 C785 1.363 . S
C788 N786 1.356 . S
C789 C783 1.363 . S
C789 C784 1.379 . S
C789 N787 1.356 . S
N790 C782 1.356 . S
N790 H796 0.984 . S
N790 H797 0.984 . S
N791 C784 1.356 . S
N791 H794 0.984 . S
N791 H795 0.985 . S
H792 N787 0.984 . S
H793 N787 0.985 . S
H794 N791 0.984 . S
H795 N791 0.985 . S
H796 N790 0.984 . S
H797 N790 0.984 . S
H798 N786 0.984 . S
H799 N786 0.985 . S
C800 C801 1.363 . S
C800 C806 1.379 . S
C800 N808 1.356 . S
C801 C800 1.363 . S
C801 C807 1.363 . S
C802 C803 1.363 . S
C802 C807 1.379 . S
C802 N809 1.356 . S
C803 C802 1.363 . S
C803 C806 1.363 . S
N804 C806 1.356 . S
N804 H816 0.984 . S
N804 H817 0.985 . S
N805 C807 1.356 . S
N805 H810 0.984 . S
N805 H811 0.985 . S
C806 C800 1.379 . S
C806 C803 1.363 . S
C806 N804 1.356 . S
C807 C801 1.363 . S
C807 C802 1.379 . S
C807 N805 1.356 . S
N808 C800 1.356 . S
N808 H814 0.984 . S
N808 H815 0.984 . S
N809 C802 1.356 . S
N809 H812 0.984 . S
N809 H813 0.985 . S
H810 N805 0.984 . S
H811 N805 0.985 . S
H812 N809 0.984 . S
H813 N809 0.985 . S
H814 N808 0.984 . S
H815 N808 0.984 . S
H816 N804 0.984 . S
H817 N804 0.985 . S
C818 C819 1.363 . S
C818 C824 1.379 . S
C818 N826 1.356 . S
C819 C818 1.363 . S
C819 C825 1.363 . S
C820 C821 1.363 . S
C820 C825 1.379 . S
C820 N827 1.356 . S
C821 C820 1.363 . S
C821 C824 1.363 . S
N822 C824 1.356 . S
N822 H834 0.984 . S
N822 H835 0.985 . S
N823 C825 1.356 . S
N823 H828 0.984 . S
N823 H829 0.985 . S
C824 C818 1.379 . S
C824 C821 1.363 . S
C824 N822 1.356 . S
C825 C819 1.363 . S
C825 C820 1.379 . S
C825 N823 1.356 . S
N826 C818 1.356 . S
N826 H832 0.984 . S
N826 H833 0.984 . S
N827 C820 1.356 . S
N827 H830 0.984 . S
N827 H831 0.985 . S
H828 N823 0.984 . S
H829 N823 0.985 . S
H830 N827 0.984 . S
H831 N827 0.985 . S
H832 N826 0.984 . S
H833 N826 0.984 . S
H834 N822 0.984 . S
H835 N822 0.985 . S
C836 C837 1.363 . S
C836 C842 1.379 . S
C836 N844 1.356 . S
C837 C836 1.363 . S
C837 C843 1.363 . S
C838 C839 1.363 . S
C838 C843 1.379 . S
C838 N845 1.356 . S
C839 C838 1.363 . S
C839 C842 1.363 . S
N840 C842 1.356 . S
N840 H852 0.984 . S
N840 H853 0.985 . S
N841 C843 1.356 . S
N841 H846 0.984 . S
N841 H847 0.985 . S
C842 C836 1.379 . S
C842 C839 1.363 . S
C842 N840 1.356 . S
C843 C837 1.363 . S
C843 C838 1.379 . S
C843 N841 1.356 . S
N844 C836 1.356 . S
N844 H850 0.984 . S
N844 H851 0.984 . S
N845 C838 1.356 . S
N845 H848 0.984 . S
N845 H849 0.985 . S
H846 N841 0.984 . S
H847 N841 0.985 . S
H848 N845 0.984 . S
H849 N845 0.985 . S
H850 N844 0.984 . S
H851 N844 0.984 . S
H852 N840 0.984 . S
H853 N840 0.985 . S
C854 C855 1.363 . S
C854 C860 1.379 . S
C854 N862 1.356 . S
C855 C854 1.363 . S
C855 C861 1.363 . S
C856 C857 1.363 . S
C856 C861 1.379 . S
C856 N863 1.356 . S
C857 C856 1.363 . S
C857 C860 1.363 . S
N858 C860 1.356 . S
N858 H870 0.984 . S
N858 H871 0.985 . S
N859 C861 1.356 . S
N859 H864 0.984 . S
N859 H865 0.985 . S
C860 C854 1.379 . S
C860 C857 1.363 . S
C860 N858 1.356 . S
C861 C855 1.363 . S
C861 C856 1.379 . S
C861 N859 1.356 . S
N862 C854 1.356 . S
N862 H868 0.984 . S
N862 H869 0.984 . S
N863 C856 1.356 . S
N863 H866 0.984 . S
N863 H867 0.985 . S
H864 N859 0.984 . S
H865 N859 0.985 . S
H866 N863 0.984 . S
H867 N863 0.985 . S
H868 N862 0.984 . S
H869 N862 0.984 . S
H870 N858 0.984 . S
H871 N858 0.985 . S
C872 C873 1.363 . S
C872 C878 1.379 . S
C872 N880 1.356 . S
C873 C872 1.363 . S
C873 C879 1.363 . S
C874 C875 1.363 . S
C874 C879 1.379 . S
C874 N881 1.356 . S
C875 C874 1.363 . S
C875 C878 1.363 . S
N876 C878 1.356 . S
N876 H888 0.984 . S
N876 H889 0.985 . S
N877 C879 1.356 . S
N877 H882 0.984 . S
N877 H883 0.985 . S
C878 C872 1.379 . S
C878 C875 1.363 . S
C878 N876 1.356 . S
C879 C873 1.363 . S
C879 C874 1.379 . S
C879 N877 1.356 . S
N880 C872 1.356 . S
N880 H886 0.984 . S
N880 H887 0.984 . S
N881 C874 1.356 . S
N881 H884 0.984 . S
N881 H885 0.985 . S
H882 N877 0.984 . S
H883 N877 0.985 . S
H884 N881 0.984 . S
H885 N881 0.985 . S
H886 N880 0.984 . S
H887 N880 0.984 . S
H888 N876 0.984 . S
H889 N876 0.985 . S
C890 C891 1.363 . S
C890 C896 1.379 . S
C890 N898 1.356 . S
C891 C890 1.363 . S
C891 C897 1.363 . S
C892 C893 1.363 . S
C892 C897 1.379 . S
C892 N899 1.356 . S
C893 C892 1.363 . S
C893 C896 1.363 . S
N894 C896 1.356 . S
N894 H906 0.984 . S
N894 H907 0.985 . S
N895 C897 1.356 . S
N895 H900 0.984 . S
N895 H901 0.985 . S
C896 C890 1.379 . S
C896 C893 1.363 . S
C896 N894 1.356 . S
C897 C891 1.363 . S
C897 C892 1.379 . S
C897 N895 1.356 . S
N898 C890 1.356 . S
N898 H904 0.984 . S
N898 H905 0.984 . S
N899 C892 1.356 . S
N899 H902 0.984 . S
N899 H903 0.985 . S
H900 N895 0.984 . S
H901 N895 0.985 . S
H902 N899 0.984 . S
H903 N899 0.985 . S
H904 N898 0.984 . S
H905 N898 0.984 . S
H906 N894 0.984 . S
H907 N894 0.985 . S
C908 C909 1.363 . S
C908 C914 1.379 . S
C908 N916 1.356 . S
C909 C908 1.363 . S
C909 C915 1.363 . S
C910 C911 1.363 . S
C910 C915 1.379 . S
C910 N917 1.356 . S
C911 C910 1.363 . S
C911 C914 1.363 . S
N912 C914 1.356 . S
N912 H924 0.984 . S
N912 H925 0.985 . S
N913 C915 1.356 . S
N913 H918 0.984 . S
N913 H919 0.985 . S
C914 C908 1.379 . S
C914 C911 1.363 . S
C914 N912 1.356 . S
C915 C909 1.363 . S
C915 C910 1.379 . S
C915 N913 1.356 . S
N916 C908 1.356 . S
N916 H922 0.984 . S
N916 H923 0.984 . S
N917 C910 1.356 . S
N917 H920 0.984 . S
N917 H921 0.985 . S
H918 N913 0.984 . S
H919 N913 0.985 . S
H920 N917 0.984 . S
H921 N917 0.985 . S
H922 N916 0.984 . S
H923 N916 0.984 . S
H924 N912 0.984 . S
H925 N912 0.985 . S
C926 C927 1.363 . S
C926 C932 1.379 . S
C926 N934 1.356 . S
C927 C926 1.363 . S
C927 C933 1.363 . S
C928 C929 1.363 . S
C928 C933 1.379 . S
C928 N935 1.356 . S
C929 C928 1.363 . S
C929 C932 1.363 . S
N930 C932 1.356 . S
N930 H942 0.984 . S
N930 H943 0.985 . S
N931 C933 1.356 . S
N931 H936 0.984 . S
N931 H937 0.985 . S
C932 C926 1.379 . S
C932 C929 1.363 . S
C932 N930 1.356 . S
C933 C927 1.363 . S
C933 C928 1.379 . S
C933 N931 1.356 . S
N934 C926 1.356 . S
N934 H940 0.984 . S
N934 H941 0.984 . S
N935 C928 1.356 . S
N935 H938 0.984 . S
N935 H939 0.985 . S
H936 N931 0.984 . S
H937 N931 0.985 . S
H938 N935 0.984 . S
H939 N935 0.985 . S
H940 N934 0.984 . S
H941 N934 0.984 . S
H942 N930 0.984 . S
H943 N930 0.985 . S
C944 C945 1.363 . S
C944 C950 1.379 . S
C944 N952 1.356 . S
C945 C944 1.363 . S
C945 C951 1.363 . S
C946 C947 1.363 . S
C946 C951 1.379 . S
C946 N953 1.356 . S
C947 C946 1.363 . S
C947 C950 1.363 . S
N948 C950 1.356 . S
N948 H960 0.984 1_545 S
N948 H961 0.985 . S
N949 C951 1.356 . S
N949 H954 0.984 . S
N949 H955 0.985 . S
C950 C944 1.379 . S
C950 C947 1.363 . S
C950 N948 1.356 . S
C951 C945 1.363 . S
C951 C946 1.379 . S
C951 N949 1.356 . S
N952 C944 1.356 . S
N952 H958 0.984 . S
N952 H959 0.984 . S
N953 C946 1.356 . S
N953 H956 0.984 . S
N953 H957 0.985 . S
H954 N949 0.984 . S
H955 N949 0.985 . S
H956 N953 0.984 . S
H957 N953 0.985 . S
H958 N952 0.984 . S
H959 N952 0.984 . S
H960 N948 0.984 1_565 S
H961 N948 0.985 . S
C962 C963 1.363 . S
C962 C968 1.379 . S
C962 N970 1.356 . S
C963 C962 1.363 . S
C963 C969 1.363 . S
C964 C965 1.363 . S
C964 C969 1.379 . S
C964 N971 1.356 . S
C965 C964 1.363 . S
C965 C968 1.363 . S
N966 C968 1.356 . S
N966 H978 0.984 . S
N966 H979 0.985 . S
N967 C969 1.356 . S
N967 H972 0.984 . S
N967 H973 0.985 . S
C968 C962 1.379 . S
C968 C965 1.363 . S
C968 N966 1.356 . S
C969 C963 1.363 . S
C969 C964 1.379 . S
C969 N967 1.356 . S
N970 C962 1.356 . S
N970 H976 0.984 . S
N970 H977 0.984 . S
N971 C964 1.356 . S
N971 H974 0.984 . S
N971 H975 0.985 . S
H972 N967 0.984 . S
H973 N967 0.985 . S
H974 N971 0.984 . S
H975 N971 0.985 . S
H976 N970 0.984 . S
H977 N970 0.984 . S
H978 N966 0.984 . S
H979 N966 0.985 . S
C980 C981 1.363 . S
C980 C986 1.379 . S
C980 N988 1.356 . S
C981 C980 1.363 . S
C981 C987 1.363 . S
C982 C983 1.363 . S
C982 C987 1.379 . S
C982 N989 1.356 . S
C983 C982 1.363 . S
C983 C986 1.363 . S
N984 C986 1.356 . S
N984 H996 0.984 . S
N984 H997 0.985 . S
N985 C987 1.356 . S
N985 H990 0.984 . S
N985 H991 0.985 . S
C986 C980 1.379 . S
C986 C983 1.363 . S
C986 N984 1.356 . S
C987 C981 1.363 . S
C987 C982 1.379 . S
C987 N985 1.356 . S
N988 C980 1.356 . S
N988 H994 0.984 . S
N988 H995 0.984 . S
N989 C982 1.356 . S
N989 H992 0.984 . S
N989 H993 0.985 . S
H990 N985 0.984 . S
H991 N985 0.985 . S
H992 N989 0.984 . S
H993 N989 0.985 . S
H994 N988 0.984 . S
H995 N988 0.984 . S
H996 N984 0.984 . S
H997 N984 0.985 . S
C998 C999 1.363 . S
C998 C1004 1.379 . S
C998 N1006 1.356 . S
C999 C998 1.363 . S
C999 C1005 1.363 . S
C1000 C1001 1.363 . S
C1000 C1005 1.379 . S
C1000 N1007 1.356 . S
C1001 C1000 1.363 . S
C1001 C1004 1.363 . S
N1002 C1004 1.356 . S
N1002 H1014 0.984 . S
N1002 H1015 0.985 . S
N1003 C1005 1.356 . S
N1003 H1008 0.984 . S
N1003 H1009 0.985 . S
C1004 C998 1.379 . S
C1004 C1001 1.363 . S
C1004 N1002 1.356 . S
C1005 C999 1.363 . S
C1005 C1000 1.379 . S
C1005 N1003 1.356 . S
N1006 C998 1.356 . S
N1006 H1012 0.984 . S
N1006 H1013 0.984 . S
N1007 C1000 1.356 . S
N1007 H1010 0.984 . S
N1007 H1011 0.985 . S
H1008 N1003 0.984 . S
H1009 N1003 0.985 . S
H1010 N1007 0.984 . S
H1011 N1007 0.985 . S
H1012 N1006 0.984 . S
H1013 N1006 0.984 . S
H1014 N1002 0.984 . S
H1015 N1002 0.985 . S
C1016 C1017 1.363 . S
C1016 C1022 1.379 . S
C1016 N1024 1.356 . S
C1017 C1016 1.363 . S
C1017 C1023 1.363 . S
C1018 C1019 1.363 . S
C1018 C1023 1.379 . S
C1018 N1025 1.356 . S
C1019 C1018 1.363 . S
C1019 C1022 1.363 . S
N1020 C1022 1.356 . S
N1020 H1032 0.984 . S
N1020 H1033 0.985 . S
N1021 C1023 1.356 . S
N1021 H1026 0.984 . S
N1021 H1027 0.985 . S
C1022 C1016 1.379 . S
C1022 C1019 1.363 . S
C1022 N1020 1.356 . S
C1023 C1017 1.363 . S
C1023 C1018 1.379 . S
C1023 N1021 1.356 . S
N1024 C1016 1.356 . S
N1024 H1030 0.984 . S
N1024 H1031 0.984 . S
N1025 C1018 1.356 . S
N1025 H1028 0.984 . S
N1025 H1029 0.985 . S
H1026 N1021 0.984 . S
H1027 N1021 0.985 . S
H1028 N1025 0.984 . S
H1029 N1025 0.985 . S
H1030 N1024 0.984 . S
H1031 N1024 0.984 . S
H1032 N1020 0.984 . S
H1033 N1020 0.985 . S
C1034 C1035 1.363 . S
C1034 C1040 1.379 . S
C1034 N1042 1.356 . S
C1035 C1034 1.363 . S
C1035 C1041 1.363 . S
C1036 C1037 1.363 . S
C1036 C1041 1.379 . S
C1036 N1043 1.356 . S
C1037 C1036 1.363 . S
C1037 C1040 1.363 . S
N1038 C1040 1.356 . S
N1038 H1050 0.984 . S
N1038 H1051 0.985 . S
N1039 C1041 1.356 . S
N1039 H1044 0.984 . S
N1039 H1045 0.985 . S
C1040 C1034 1.379 . S
C1040 C1037 1.363 . S
C1040 N1038 1.356 . S
C1041 C1035 1.363 . S
C1041 C1036 1.379 . S
C1041 N1039 1.356 . S
N1042 C1034 1.356 . S
N1042 H1048 0.984 . S
N1042 H1049 0.984 . S
N1043 C1036 1.356 . S
N1043 H1046 0.984 . S
N1043 H1047 0.985 . S
H1044 N1039 0.984 . S
H1045 N1039 0.985 . S
H1046 N1043 0.984 . S
H1047 N1043 0.985 . S
H1048 N1042 0.984 . S
H1049 N1042 0.984 . S
H1050 N1038 0.984 . S
H1051 N1038 0.985 . S
C1052 C1053 1.363 . S
C1052 C1058 1.379 . S
C1052 N1060 1.356 . S
C1053 C1052 1.363 . S
C1053 C1059 1.363 . S
C1054 C1055 1.363 . S
C1054 C1059 1.379 . S
C1054 N1061 1.356 . S
C1055 C1054 1.363 . S
C1055 C1058 1.363 . S
N1056 C1058 1.356 . S
N1056 H1068 0.984 . S
N1056 H1069 0.985 . S
N1057 C1059 1.356 . S
N1057 H1062 0.984 . S
N1057 H1063 0.985 . S
C1058 C1052 1.379 . S
C1058 C1055 1.363 . S
C1058 N1056 1.356 . S
C1059 C1053 1.363 . S
C1059 C1054 1.379 . S
C1059 N1057 1.356 . S
N1060 C1052 1.356 . S
N1060 H1066 0.984 . S
N1060 H1067 0.984 . S
N1061 C1054 1.356 . S
N1061 H1064 0.984 . S
N1061 H1065 0.985 . S
H1062 N1057 0.984 . S
H1063 N1057 0.985 . S
H1064 N1061 0.984 . S
H1065 N1061 0.985 . S
H1066 N1060 0.984 . S
H1067 N1060 0.984 . S
H1068 N1056 0.984 . S
H1069 N1056 0.985 . S
C1070 C1071 1.363 . S
C1070 C1076 1.379 . S
C1070 N1078 1.356 . S
C1071 C1070 1.363 . S
C1071 C1077 1.363 . S
C1072 C1073 1.363 . S
C1072 C1077 1.379 . S
C1072 N1079 1.356 . S
C1073 C1072 1.363 . S
C1073 C1076 1.363 . S
N1074 C1076 1.356 . S
N1074 H1086 0.984 . S
N1074 H1087 0.985 . S
N1075 C1077 1.356 . S
N1075 H1080 0.984 . S
N1075 H1081 0.985 . S
C1076 C1070 1.379 . S
C1076 C1073 1.363 . S
C1076 N1074 1.356 . S
C1077 C1071 1.363 . S
C1077 C1072 1.379 . S
C1077 N1075 1.356 . S
N1078 C1070 1.356 . S
N1078 H1084 0.984 . S
N1078 H1085 0.984 . S
N1079 C1072 1.356 . S
N1079 H1082 0.984 . S
N1079 H1083 0.985 . S
H1080 N1075 0.984 . S
H1081 N1075 0.985 . S
H1082 N1079 0.984 . S
H1083 N1079 0.985 . S
H1084 N1078 0.984 . S
H1085 N1078 0.984 . S
H1086 N1074 0.984 . S
H1087 N1074 0.985 . S
C1088 C1089 1.363 . S
C1088 C1094 1.379 . S
C1088 N1096 1.356 . S
C1089 C1088 1.363 . S
C1089 C1095 1.363 . S
C1090 C1091 1.363 . S
C1090 C1095 1.379 . S
C1090 N1097 1.356 . S
C1091 C1090 1.363 . S
C1091 C1094 1.363 . S
N1092 C1094 1.356 . S
N1092 H1104 0.984 . S
N1092 H1105 0.985 . S
N1093 C1095 1.356 . S
N1093 H1098 0.984 . S
N1093 H1099 0.985 . S
C1094 C1088 1.379 . S
C1094 C1091 1.363 . S
C1094 N1092 1.356 . S
C1095 C1089 1.363 . S
C1095 C1090 1.379 . S
C1095 N1093 1.356 . S
N1096 C1088 1.356 . S
N1096 H1102 0.984 . S
N1096 H1103 0.984 . S
N1097 C1090 1.356 . S
N1097 H1100 0.984 . S
N1097 H1101 0.985 . S
H1098 N1093 0.984 . S
H1099 N1093 0.985 . S
H1100 N1097 0.984 . S
H1101 N1097 0.985 . S
H1102 N1096 0.984 . S
H1103 N1096 0.984 . S
H1104 N1092 0.984 . S
H1105 N1092 0.985 . S
C1106 C1107 1.363 . S
C1106 C1112 1.379 . S
C1106 N1114 1.356 . S
C1107 C1106 1.363 . S
C1107 C1113 1.363 . S
C1108 C1109 1.363 . S
C1108 C1113 1.379 . S
C1108 N1115 1.356 . S
C1109 C1108 1.363 . S
C1109 C1112 1.363 . S
N1110 C1112 1.356 . S
N1110 H1122 0.984 . S
N1110 H1123 0.985 . S
N1111 C1113 1.356 . S
N1111 H1116 0.984 . S
N1111 H1117 0.985 . S
C1112 C1106 1.379 . S
C1112 C1109 1.363 . S
C1112 N1110 1.356 . S
C1113 C1107 1.363 . S
C1113 C1108 1.379 . S
C1113 N1111 1.356 . S
N1114 C1106 1.356 . S
N1114 H1120 0.984 . S
N1114 H1121 0.984 . S
N1115 C1108 1.356 . S
N1115 H1118 0.984 . S
N1115 H1119 0.985 . S
H1116 N1111 0.984 . S
H1117 N1111 0.985 . S
H1118 N1115 0.984 . S
H1119 N1115 0.985 . S
H1120 N1114 0.984 . S
H1121 N1114 0.984 . S
H1122 N1110 0.984 . S
H1123 N1110 0.985 . S
C1124 C1125 1.363 . S
C1124 C1130 1.379 . S
C1124 N1132 1.356 . S
C1125 C1124 1.363 . S
C1125 C1131 1.363 . S
C1126 C1127 1.363 . S
C1126 C1131 1.379 . S
C1126 N1133 1.356 . S
C1127 C1126 1.363 . S
C1127 C1130 1.363 . S
N1128 C1130 1.356 . S
N1128 H1140 0.984 . S
N1128 H1141 0.985 . S
N1129 C1131 1.356 . S
N1129 H1134 0.984 . S
N1129 H1135 0.985 . S
C1130 C1124 1.379 . S
C1130 C1127 1.363 . S
C1130 N1128 1.356 . S
C1131 C1125 1.363 . S
C1131 C1126 1.379 . S
C1131 N1129 1.356 . S
N1132 C1124 1.356 . S
N1132 H1138 0.984 . S
N1132 H1139 0.984 . S
N1133 C1126 1.356 . S
N1133 H1136 0.984 . S
N1133 H1137 0.985 . S
H1134 N1129 0.984 . S
H1135 N1129 0.985 . S
H1136 N1133 0.984 . S
H1137 N1133 0.985 . S
H1138 N1132 0.984 . S
H1139 N1132 0.984 . S
H1140 N1128 0.984 . S
H1141 N1128 0.985 . S
C1142 C1143 1.363 . S
C1142 C1148 1.379 . S
C1142 N1150 1.356 . S
C1143 C1142 1.363 . S
C1143 C1149 1.363 . S
C1144 C1145 1.363 . S
C1144 C1149 1.379 . S
C1144 N1151 1.356 . S
C1145 C1144 1.363 . S
C1145 C1148 1.363 . S
N1146 C1148 1.356 . S
N1146 H1158 0.984 . S
N1146 H1159 0.985 . S
N1147 C1149 1.356 . S
N1147 H1152 0.984 . S
N1147 H1153 0.985 . S
C1148 C1142 1.379 . S
C1148 C1145 1.363 . S
C1148 N1146 1.356 . S
C1149 C1143 1.363 . S
C1149 C1144 1.379 . S
C1149 N1147 1.356 . S
N1150 C1142 1.356 . S
N1150 H1156 0.984 . S
N1150 H1157 0.984 . S
N1151 C1144 1.356 . S
N1151 H1154 0.984 . S
N1151 H1155 0.985 . S
H1152 N1147 0.984 . S
H1153 N1147 0.985 . S
H1154 N1151 0.984 . S
H1155 N1151 0.985 . S
H1156 N1150 0.984 . S
H1157 N1150 0.984 . S
H1158 N1146 0.984 . S
H1159 N1146 0.985 . S
C1160 C1161 1.363 . S
C1160 C1166 1.379 . S
C1160 N1168 1.356 . S
C1161 C1160 1.363 . S
C1161 C1167 1.363 . S
C1162 C1163 1.363 . S
C1162 C1167 1.379 . S
C1162 N1169 1.356 . S
C1163 C1162 1.363 . S
C1163 C1166 1.363 . S
N1164 C1166 1.356 . S
N1164 H1176 0.984 . S
N1164 H1177 0.985 . S
N1165 C1167 1.356 . S
N1165 H1170 0.984 . S
N1165 H1171 0.985 . S
C1166 C1160 1.379 . S
C1166 C1163 1.363 . S
C1166 N1164 1.356 . S
C1167 C1161 1.363 . S
C1167 C1162 1.379 . S
C1167 N1165 1.356 . S
N1168 C1160 1.356 . S
N1168 H1174 0.984 . S
N1168 H1175 0.984 . S
N1169 C1162 1.356 . S
N1169 H1172 0.984 . S
N1169 H1173 0.985 . S
H1170 N1165 0.984 . S
H1171 N1165 0.985 . S
H1172 N1169 0.984 . S
H1173 N1169 0.985 . S
H1174 N1168 0.984 . S
H1175 N1168 0.984 . S
H1176 N1164 0.984 . S
H1177 N1164 0.985 . S
C1178 C1179 1.363 . S
C1178 C1184 1.379 . S
C1178 N1186 1.356 . S
C1179 C1178 1.363 . S
C1179 C1185 1.363 . S
C1180 C1181 1.363 . S
C1180 C1185 1.379 . S
C1180 N1187 1.356 . S
C1181 C1180 1.363 . S
C1181 C1184 1.363 . S
N1182 C1184 1.356 . S
N1182 H1194 0.984 . S
N1182 H1195 0.985 . S
N1183 C1185 1.356 . S
N1183 H1188 0.984 . S
N1183 H1189 0.985 . S
C1184 C1178 1.379 . S
C1184 C1181 1.363 . S
C1184 N1182 1.356 . S
C1185 C1179 1.363 . S
C1185 C1180 1.379 . S
C1185 N1183 1.356 . S
N1186 C1178 1.356 . S
N1186 H1192 0.984 . S
N1186 H1193 0.984 . S
N1187 C1180 1.356 . S
N1187 H1190 0.984 . S
N1187 H1191 0.985 . S
H1188 N1183 0.984 . S
H1189 N1183 0.985 . S
H1190 N1187 0.984 . S
H1191 N1187 0.985 . S
H1192 N1186 0.984 . S
H1193 N1186 0.984 . S
H1194 N1182 0.984 . S
H1195 N1182 0.985 . S
C767 C359 1.511 . S
C765 C15 1.552 . S
C785 C463 2.019 . S
C783 C55 2.049 . S
C803 C383 1.489 . S
C801 C101 1.553 . S
C821 C445 1.733 . S
C819 C141 1.606 . S
C839 C519 1.410 . S
C837 C2 1.410 . S
C857 C581 1.725 . S
C855 C61 1.794 . S
C873 C95 1.109 . S
C875 C655 1.075 . S
C893 C741 1.325 . S
C891 C135 1.299 . S
C911 C537 2.340 . S
C909 C42 2.374 . S
C927 C82 1.772 . S
C929 C605 1.717 . S
C947 C679 1.351 . S
C945 C122 1.257 . S
C965 C759 1.697 . S
C963 C21 1.662 . S
C981 C162 1.715 . S
C983 C457 1.604 . S
C1001 C371 2.088 . S
C999 C221 2.217 . S
C1017 C255 1.445 . S
C1019 C433 1.327 . S
C1035 C282 2.368 . S
C1037 C389 2.373 . S
C1055 C685 1.762 . S
C1053 C181 1.840 . S
C1073 C753 1.518 . S
C1071 C202 1.491 . S
C1091 C531 1.925 . S
C1089 C242 2.115 . S
C1107 C301 2.339 . S
C1109 C611 2.423 . S
C1127 C667 1.854 . S
C1125 C215 1.863 . S
C1145 C729 1.312 . S
C1143 C261 1.414 . S
C1163 C507 1.927 . S
C1161 C295 2.017 . S
C1179 C175 1.429 . S
C1181 C593 1.432 . S
