# Generated by pormake.
# Topology zzz, (3,6)-cn, num edge types: 1
# Building blocks:
#     Node 0, Type 0, BuildingBlock: CUQRIR_clean_linker_1, # of connection points: 3
#     Node 1, Type 0, BuildingBlock: CUQRIR_clean_linker_1, # of connection points: 3
#     Node 2, Type 0, BuildingBlock: CUQRIR_clean_linker_1, # of connection points: 3
#     Node 3, Type 0, BuildingBlock: CUQRIR_clean_linker_1, # of connection points: 3
#     Node 4, Type 0, BuildingBlock: CUQRIR_clean_linker_1, # of connection points: 3
#     Node 5, Type 0, BuildingBlock: CUQRIR_clean_linker_1, # of connection points: 3
#     Node 6, Type 0, BuildingBlock: CUQRIR_clean_linker_1, # of connection points: 3
#     Node 7, Type 0, BuildingBlock: CUQRIR_clean_linker_1, # of connection points: 3
#     Node 8, Type 1, BuildingBlock: CUKXOW_clean_sbu_0, # of connection points: 6
#     Node 9, Type 1, BuildingBlock: CUKXOW_clean_sbu_0, # of connection points: 6
#     Node 10, Type 1, BuildingBlock: CUKXOW_clean_sbu_0, # of connection points: 6
#     Node 11, Type 1, BuildingBlock: CUKXOW_clean_sbu_0, # of connection points: 6
#     Edge 12, Type (0, 1), BuildingBlock: XIVTED_clean_linker_0, # of connection points: 2
#     Edge 13, Type (0, 1), BuildingBlock: XIVTED_clean_linker_0, # of connection points: 2
#     Edge 14, Type (0, 1), BuildingBlock: XIVTED_clean_linker_0, # of connection points: 2
#     Edge 15, Type (0, 1), BuildingBlock: XIVTED_clean_linker_0, # of connection points: 2
#     Edge 16, Type (0, 1), BuildingBlock: XIVTED_clean_linker_0, # of connection points: 2
#     Edge 17, Type (0, 1), BuildingBlock: XIVTED_clean_linker_0, # of connection points: 2
#     Edge 18, Type (0, 1), BuildingBlock: XIVTED_clean_linker_0, # of connection points: 2
#     Edge 19, Type (0, 1), BuildingBlock: XIVTED_clean_linker_0, # of connection points: 2
#     Edge 20, Type (0, 1), BuildingBlock: XIVTED_clean_linker_0, # of connection points: 2
#     Edge 21, Type (0, 1), BuildingBlock: XIVTED_clean_linker_0, # of connection points: 2
#     Edge 22, Type (0, 1), BuildingBlock: XIVTED_clean_linker_0, # of connection points: 2
#     Edge 23, Type (0, 1), BuildingBlock: XIVTED_clean_linker_0, # of connection points: 2
#     Edge 24, Type (0, 1), BuildingBlock: XIVTED_clean_linker_0, # of connection points: 2
#     Edge 25, Type (0, 1), BuildingBlock: XIVTED_clean_linker_0, # of connection points: 2
#     Edge 26, Type (0, 1), BuildingBlock: XIVTED_clean_linker_0, # of connection points: 2
#     Edge 27, Type (0, 1), BuildingBlock: XIVTED_clean_linker_0, # of connection points: 2
#     Edge 28, Type (0, 1), BuildingBlock: XIVTED_clean_linker_0, # of connection points: 2
#     Edge 29, Type (0, 1), BuildingBlock: XIVTED_clean_linker_0, # of connection points: 2
#     Edge 30, Type (0, 1), BuildingBlock: XIVTED_clean_linker_0, # of connection points: 2
#     Edge 31, Type (0, 1), BuildingBlock: XIVTED_clean_linker_0, # of connection points: 2
#     Edge 32, Type (0, 1), BuildingBlock: XIVTED_clean_linker_0, # of connection points: 2
#     Edge 33, Type (0, 1), BuildingBlock: XIVTED_clean_linker_0, # of connection points: 2
#     Edge 34, Type (0, 1), BuildingBlock: XIVTED_clean_linker_0, # of connection points: 2
#     Edge 35, Type (0, 1), BuildingBlock: XIVTED_clean_linker_0, # of connection points: 2
# Relax obj value: 0.065
# Max RMSD: 0.109
# Mean RMSD: 0.083
data_MOF--net-zzz--node1-CUKXOW_clean_sbu_0--node2-CUQRIR_clean_linker_1--edge1-XIVTED_clean_linker_0
_symmetry_space_group_name_H-M    P1
_symmetry_Int_Tables_number       1
_symmetry_cell_setting            triclinic
loop_
_symmetry_equiv_pos_as_xyz
'x, y, z'
_cell_length_a     47.656946
_cell_length_b     49.693279
_cell_length_c     14.159711
_cell_angle_alpha  93.672433
_cell_angle_beta   86.340131
_cell_angle_gamma 93.618428
loop_
_atom_site_label
_atom_site_type_symbol
_atom_site_fract_x
_atom_site_fract_y
_atom_site_fract_z
_atom_type_partial_charge
C0 C 0.74683 0.52877 0.16791 0.0
N1 N 0.77494 0.52641 0.16628 0.0
N2 N 0.73909 0.53422 0.08106 0.0
C3 C 0.72671 0.52316 0.25129 0.0
C4 C 0.76347 0.53481 0.02651 0.0
N5 N 0.78524 0.52993 0.07824 0.0
C6 C 0.76556 0.53817 0.92135 0.0
H7 H 0.72392 0.50099 0.25758 0.0
H8 H 0.70589 0.5312 0.24261 0.0
H9 H 0.73537 0.53222 0.3177 0.0
H10 H 0.75139 0.55364 0.90305 0.0
H11 H 0.75884 0.51873 0.88407 0.0
H12 H 0.7874 0.54418 0.89581 0.0
C13 C 0.94888 0.75755 0.0345 0.0
N14 N 0.95001 0.78481 0.0367 0.0
N15 N 0.95172 0.74712 0.94404 0.0
C16 C 0.94881 0.74136 0.12047 0.0
C17 C 0.95503 0.76898 0.89151 0.0
N18 N 0.95404 0.79194 0.94779 0.0
C19 C 0.96043 0.7677 0.78561 0.0
H20 H 0.97091 0.73898 0.13727 0.0
H21 H 0.93849 0.72096 0.10684 0.0
H22 H 0.93789 0.75185 0.18252 0.0
H23 H 0.94944 0.74938 0.75311 0.0
H24 H 0.98335 0.76643 0.76812 0.0
H25 H 0.95333 0.78598 0.75521 0.0
C26 C 0.74292 0.96148 0.13086 0.0
N27 N 0.71571 0.96628 0.12081 0.0
N28 N 0.75714 0.95926 0.04508 0.0
C29 C 0.75629 0.9621 0.22427 0.0
C30 C 0.73759 0.96308 0.98277 0.0
N31 N 0.71243 0.96759 0.02878 0.0
C32 C 0.74379 0.96444 0.87754 0.0
H33 H 0.75843 0.98332 0.25371 0.0
H34 H 0.77742 0.95375 0.21599 0.0
H35 H 0.74269 0.95041 0.27548 0.0
H36 H 0.75801 0.94849 0.85065 0.0
H37 H 0.75469 0.98428 0.86307 0.0
H38 H 0.72423 0.96192 0.83865 0.0
C39 C 0.57358 0.75618 0.13492 0.0
N40 N 0.57224 0.72884 0.12889 0.0
N41 N 0.56838 0.7657 0.05064 0.0
C42 C 0.57742 0.77353 0.22454 0.0
C43 C 0.56383 0.74315 0.99335 0.0
N44 N 0.56612 0.72077 0.04091 0.0
C45 C 0.5541 0.74297 0.89423 0.0
H46 H 0.55643 0.77878 0.25623 0.0
H47 H 0.5897 0.79261 0.20906 0.0
H48 H 0.58829 0.76278 0.27658 0.0
H49 H 0.55813 0.76303 0.86422 0.0
H50 H 0.53118 0.73731 0.89556 0.0
H51 H 0.56504 0.72774 0.84723 0.0
C52 C 0.26507 0.48332 0.22012 0.0
N53 N 0.23689 0.48514 0.22152 0.0
N54 N 0.27305 0.47923 0.30794 0.0
C55 C 0.28498 0.48796 0.13534 0.0
C56 C 0.24872 0.47884 0.36282 0.0
N57 N 0.22674 0.48257 0.31027 0.0
C58 C 0.24679 0.47676 0.46863 0.0
H59 H 0.27609 0.47825 0.07021 0.0
H60 H 0.30579 0.47996 0.1445 0.0
H61 H 0.28788 0.50999 0.12614 0.0
H62 H 0.25298 0.49674 0.5031 0.0
H63 H 0.2614 0.46201 0.48945 0.0
H64 H 0.2251 0.47048 0.49502 0.0
C65 C 0.05514 0.25511 0.33183 0.0
N66 N 0.05336 0.22787 0.33051 0.0
N67 N 0.05747 0.26588 0.42149 0.0
C68 C 0.05106 0.27112 0.24774 0.0
C69 C 0.05686 0.24416 0.47468 0.0
N70 N 0.05417 0.22102 0.41948 0.0
C71 C 0.05659 0.24577 0.58115 0.0
H72 H 0.0627 0.26246 0.18374 0.0
H73 H 0.05832 0.29262 0.26075 0.0
H74 H 0.02835 0.26995 0.23382 0.0
H75 H 0.03503 0.24981 0.61068 0.0
H76 H 0.07106 0.26266 0.60653 0.0
H77 H 0.0629 0.22667 0.60784 0.0
C78 C 0.26546 0.05139 0.25046 0.0
N79 N 0.29345 0.04964 0.25655 0.0
N80 N 0.25195 0.04977 0.3371 0.0
C81 C 0.25138 0.05461 0.1603 0.0
C82 C 0.27268 0.04655 0.39582 0.0
N83 N 0.29799 0.0466 0.34681 0.0
C84 C 0.26773 0.04 0.49821 0.0
H85 H 0.23141 0.06487 0.17509 0.0
H86 H 0.24649 0.03432 0.12583 0.0
H87 H 0.26557 0.06627 0.11051 0.0
H88 H 0.28354 0.02633 0.51865 0.0
H89 H 0.2464 0.03027 0.51223 0.0
H90 H 0.26956 0.05901 0.54348 0.0
C91 C 0.43127 0.26042 0.24168 0.0
N92 N 0.43641 0.28744 0.25358 0.0
N93 N 0.42953 0.24898 0.32645 0.0
C94 C 0.43057 0.24503 0.14691 0.0
C95 C 0.43384 0.27015 0.39026 0.0
N96 N 0.43827 0.29348 0.34586 0.0
C97 C 0.4359 0.26763 0.49504 0.0
H98 H 0.41836 0.25567 0.09825 0.0
H99 H 0.42109 0.22422 0.15385 0.0
H100 H 0.4524 0.244 0.11511 0.0
H101 H 0.4552 0.25723 0.50681 0.0
H102 H 0.41757 0.25529 0.52398 0.0
H103 H 0.43639 0.28755 0.53503 0.0
Tb104 Tb 0.99771 0.98311 0.60678 0.0
C105 C 0.05614 0.01595 0.60317 0.0
Tb106 Tb 0.00694 0.02948 0.75982 0.0
O107 O -0.0009 0.01198 0.49647 0.0
O108 O 0.98511 0.02321 0.6346 0.0
O109 O 0.04221 0.99311 0.57486 0.0
C110 C 0.01365 0.07651 0.86039 0.0
O111 O 0.04585 0.03336 0.66995 0.0
C112 C 0.0156 0.98099 0.81211 0.0
C113 C 0.9499 0.99635 0.76261 0.0
O114 O 0.02445 0.07146 0.77514 0.0
O115 O -0.00067 0.05519 0.88847 0.0
O116 O 0.00976 0.00116 0.87109 0.0
O117 O 0.01989 0.98984 0.73122 0.0
O118 O 0.96153 0.02128 0.772 0.0
O119 O 0.96261 0.97695 0.71109 0.0
C120 C 0.98623 0.93667 0.50823 0.0
O121 O 0.97068 0.95729 0.51541 0.0
O122 O 0.00841 0.94219 0.55628 0.0
C123 C 0.99178 0.032 0.55433 0.0
Tb124 Tb 0.50457 0.03984 0.65335 0.0
C125 C 0.55094 0.00174 0.56957 0.0
Tb126 Tb 0.50785 0.98477 0.74142 0.0
O127 O 0.54523 0.05474 0.70507 0.0
O128 O 0.5199 0.0257 0.77638 0.0
O129 O 0.5361 0.02261 0.55412 0.0
C130 C 0.52164 0.94064 0.8208 0.0
O131 O 0.54471 0.9858 0.64091 0.0
C132 C 0.46809 0.98794 0.62388 0.0
C133 C 0.46258 0.02312 0.82748 0.0
O134 O 0.50659 0.94093 0.74783 0.0
O135 O 0.529 0.96522 0.84941 0.0
O136 O 0.46595 0.97227 0.69418 0.0
O137 O 0.49251 -0.00089 0.61865 0.0
O138 O 0.47831 0.00312 0.84554 0.0
O139 O 0.46739 0.03769 0.75204 0.0
C140 C 0.4862 0.08077 0.56713 0.0
O141 O 0.49213 0.08143 0.65545 0.0
O142 O 0.49108 0.05722 0.52665 0.0
C143 C 0.54384 0.03802 0.77253 0.0
Tb144 Tb 0.5193 0.52747 0.60592 0.0
C145 C 0.45696 0.50227 0.60793 0.0
Tb146 Tb 0.49988 0.4844 0.75156 0.0
O147 O 0.51596 0.49739 0.48725 0.0
O148 O 0.524 0.48583 0.62105 0.0
O149 O 0.47442 0.52302 0.58425 0.0
C150 C 0.48604 0.43915 0.84016 0.0
O151 O 0.46319 0.48406 0.66696 0.0
C152 C 0.49826 0.53499 0.81953 0.0
C153 C 0.56141 0.5085 0.74708 0.0
O154 O 0.50413 0.45819 0.867 0.0
O155 O 0.47538 0.44557 0.7631 0.0
O156 O 0.49729 0.51465 0.87279 0.0
O157 O 0.49547 0.52571 0.73595 0.0
O158 O 0.54547 0.48576 0.75388 0.0
O159 O 0.55356 0.52902 0.70164 0.0
C160 C 0.53578 0.57221 0.5185 0.0
O161 O 0.55046 0.55109 0.51986 0.0
O162 O 0.51178 0.56802 0.5654 0.0
C163 C 0.51786 0.47703 0.53912 0.0
Tb164 Tb 0.97987 0.50119 0.63539 0.0
C165 C 0.01447 0.45183 0.66678 0.0
Tb166 Tb 0.03177 0.51054 0.75406 0.0
O167 O 0.00653 0.49746 0.50349 0.0
O168 O 0.02071 0.52057 0.61955 0.0
O169 O 0.98873 0.45971 0.65695 0.0
C170 C 0.08344 0.51488 0.81812 0.0
O171 O 0.03514 0.46884 0.69665 0.0
C172 C 0.98374 0.50124 0.85136 0.0
C173 C 0.99661 0.55972 0.72403 0.0
O174 O 0.07605 0.5003 0.7436 0.0
O175 O 0.06183 0.52695 0.85617 0.0
O176 O 0.00552 0.51409 0.88664 0.0
O177 O 0.99093 0.49138 0.77033 0.0
O178 O 0.02248 0.55207 0.73341 0.0
O179 O 0.97612 0.54261 0.69387 0.0
C180 C 0.92828 0.49729 0.57033 0.0
O181 O 0.9355 0.51112 0.64659 0.0
O182 O 0.95004 0.48567 0.53107 0.0
C183 C 0.02809 0.51068 0.53883 0.0
H184 H 0.21375 0.01323 0.26435 0.0
H185 H 0.09136 0.06053 0.64019 0.0
H186 H 0.22329 0.08128 0.46573 0.0
H187 H 0.08502 0.98679 0.46178 0.0
H188 H 0.13776 0.07119 0.56481 0.0
H189 H 0.16424 0.00638 0.32144 0.0
C190 C 0.20508 0.02702 0.31933 0.0
C191 C 0.22222 0.04785 0.36065 0.0
C192 C 0.12621 0.05269 0.54208 0.0
C193 C 0.16624 0.04 0.42757 0.0
C194 C 0.0997 0.04652 0.5853 0.0
C195 C 0.08433 0.02255 0.55805 0.0
C196 C 0.13747 0.03482 0.47088 0.0
C197 C 0.09618 0.00538 0.48573 0.0
C198 C 0.17703 0.02301 0.35251 0.0
C199 C 0.21048 0.06501 0.43266 0.0
N200 N 0.12209 0.01181 0.44485 0.0
N201 N 0.1832 0.06063 0.46439 0.0
H202 H 0.39569 0.21813 0.44218 0.0
H203 H 0.48857 0.08981 0.37859 0.0
H204 H 0.46956 0.21669 0.25061 0.0
H205 H 0.45698 0.12161 0.65273 0.0
H206 H 0.47027 0.12838 0.30596 0.0
H207 H 0.40632 0.17381 0.49466 0.0
C208 C 0.41387 0.20822 0.41035 0.0
C209 C 0.43206 0.22105 0.34337 0.0
C210 C 0.46719 0.12664 0.38184 0.0
C211 C 0.44379 0.17055 0.40022 0.0
C212 C 0.47757 0.1048 0.42312 0.0
C213 C 0.47451 0.10292 0.52159 0.0
C214 C 0.453 0.14608 0.43949 0.0
C215 C 0.46004 0.12265 0.57658 0.0
C216 C 0.41985 0.18307 0.43988 0.0
C217 C 0.455 0.20728 0.3021 0.0
N218 N 0.44969 0.14343 0.53469 0.0
N219 N 0.46035 0.18273 0.33154 0.0
H220 H 0.30892 0.52307 0.3034 0.0
H221 H 0.41941 0.4583 0.61117 0.0
H222 H 0.29988 0.44123 0.38815 0.0
H223 H 0.43274 0.53747 0.50087 0.0
H224 H 0.37546 0.45177 0.53118 0.0
H225 H 0.35483 0.52867 0.37355 0.0
C226 C 0.31697 0.50623 0.33597 0.0
C227 C 0.30097 0.48172 0.3407 0.0
C228 C 0.38799 0.47058 0.52454 0.0
C229 C 0.35281 0.48788 0.4222 0.0
C230 C 0.41302 0.47442 0.57075 0.0
C231 C 0.42971 0.49858 0.56332 0.0
C232 C 0.37951 0.49107 0.47076 0.0
C233 C 0.42052 0.51856 0.50884 0.0
C234 C 0.34296 0.5094 0.37637 0.0
C235 C 0.31179 0.46044 0.38412 0.0
N236 N 0.39599 0.51438 0.46484 0.0
N237 N 0.33704 0.46404 0.42388 0.0
H238 H 0.00859 0.2892 0.41405 0.0
H239 H 0.06444 0.42795 0.67546 0.0
H240 H 0.09254 0.30274 0.50902 0.0
H241 H 0.97872 0.41127 0.59635 0.0
H242 H 0.07524 0.38223 0.61731 0.0
H243 H 0.99744 0.33433 0.4799 0.0
C244 C 0.02467 0.30199 0.44835 0.0
C245 C 0.05148 0.29274 0.45599 0.0
C246 C 0.05403 0.38854 0.61328 0.0
C247 C 0.03907 0.34393 0.53243 0.0
C248 C 0.0478 0.41462 0.64674 0.0
C249 C 0.02061 0.42349 0.64065 0.0
C250 C 0.03297 0.37126 0.57308 0.0
C251 C -4e-05 0.40534 0.60251 0.0
C252 C 0.01834 0.32756 0.4864 0.0
C253 C 0.07168 0.30952 0.50192 0.0
N254 N 0.00662 0.38014 0.56974 0.0
N255 N 0.06509 0.33444 0.53852 0.0
H256 H 0.79111 0.00253 0.09134 0.0
H257 H 0.92046 0.94731 0.76325 0.0
H258 H 0.79013 0.92326 0.95019 0.0
H259 H 0.91708 0.02983 0.87758 0.0
H260 H 0.87529 0.93639 0.84688 0.0
H261 H 0.84024 0.01083 0.03256 0.0
C262 C 0.80166 0.9867 0.04964 0.0
C263 C 0.787 0.96222 0.02532 0.0
C264 C 0.88444 0.95688 0.85376 0.0
C265 C 0.84253 0.97156 0.95602 0.0
C266 C 0.9102 0.96319 0.8057 0.0
C267 C 0.92244 0.98965 0.81242 0.0
C268 C 0.87078 0.97713 0.90918 0.0
C269 C 0.90831 0.00924 0.86956 0.0
C270 C 0.82948 0.99146 0.01537 0.0
C271 C 0.80105 0.94234 0.97006 0.0
N272 N 0.88317 0.0026 0.91548 0.0
N273 N 0.82806 0.94751 0.93645 0.0
H274 H 0.51703 0.7803 0.01633 0.0
H275 H 0.56267 0.93516 0.94397 0.0
H276 H 0.60259 0.81125 0.04619 0.0
H277 H 0.49639 0.89057 0.79661 0.0
H278 H 0.57405 0.89314 0.01274 0.0
H279 H 0.50497 0.82452 0.96917 0.0
C280 C 0.53314 0.79665 0.01362 0.0
C281 C 0.5608 0.79238 0.0338 0.0
C282 C 0.557 0.89271 0.96555 0.0
C283 C 0.54736 0.84276 0.98094 0.0
C284 C 0.55047 0.91656 0.92667 0.0
C285 C 0.52865 0.91612 0.86457 0.0
C286 C 0.54111 0.86862 0.94343 0.0
C287 C 0.51346 0.89165 0.84389 0.0
C288 C 0.52635 0.82174 0.98668 0.0
C289 C 0.58105 0.81403 0.03081 0.0
N290 N 0.51989 0.86889 0.88363 0.0
N291 N 0.57397 0.83845 0.00426 0.0
H292 H 0.71204 0.57351 0.0098 0.0
H293 H 0.5856 0.471 0.84442 0.0
H294 H 0.70419 0.48971 0.07213 0.0
H295 H 0.5969 0.5537 0.76535 0.0
H296 H 0.62751 0.478 0.93544 0.0
H297 H 0.66759 0.56763 0.93005 0.0
C298 C 0.70055 0.554 0.00752 0.0
C299 C 0.71136 0.53204 0.04692 0.0
C300 C 0.62085 0.49459 0.89796 0.0
C301 C 0.66117 0.52489 0.9557 0.0
C302 C 0.59699 0.49057 0.8456 0.0
C303 C 0.58781 0.51175 0.79669 0.0
C304 C 0.63559 0.51998 0.90169 0.0
C305 C 0.60331 0.53673 0.80134 0.0
C306 C 0.67539 0.55054 0.96188 0.0
C307 C 0.69612 0.50705 0.04276 0.0
N308 N 0.62642 0.54015 0.85304 0.0
N309 N 0.67181 0.50406 0.99726 0.0
H310 H 0.00302 0.73057 0.89043 0.0
H311 H 0.94479 0.58058 0.74202 0.0
H312 H 0.91578 0.70335 0.92728 0.0
H313 H 0.0332 0.60297 0.76698 0.0
H314 H 0.93371 0.6265 0.79537 0.0
H315 H 0.01458 0.68473 0.83228 0.0
C316 C 0.98642 0.71469 0.8862 0.0
C317 C 0.95855 0.72024 0.91323 0.0
C318 C 0.95553 0.62138 0.78894 0.0
C319 C 0.97123 0.66827 0.84688 0.0
C320 C 0.96193 0.59521 0.75787 0.0
C321 C 0.99001 0.58793 0.74986 0.0
C322 C 0.97736 0.64049 0.81164 0.0
C323 C 0.01127 0.6077 0.77218 0.0
C324 C 0.99291 0.68868 0.85329 0.0
C325 C 0.9375 0.69946 0.90701 0.0
N326 N 0.0045 0.63312 0.80205 0.0
N327 N 0.94425 0.67426 0.87404 0.0
H328 H 0.08064 0.17632 0.35859 0.0
H329 H 0.97649 0.0772 0.66055 0.0
H330 H 0.01257 0.2047 0.54565 0.0
H331 H 0.02678 0.05094 0.41152 0.0
H332 H 0.99363 0.12404 0.63585 0.0
H333 H 0.06584 0.12973 0.39496 0.0
C334 C 0.06288 0.17262 0.40861 0.0
C335 C 0.04798 0.19414 0.45021 0.0
C336 C 0.00077 0.108 0.58647 0.0
C337 C 0.03075 0.14132 0.49167 0.0
C338 C 0.99097 0.08137 0.60042 0.0
C339 C 0.00015 0.06035 0.53765 0.0
C340 C 0.02002 0.11343 0.50968 0.0
C341 C 0.01901 0.06665 0.46109 0.0
C342 C 0.05433 0.14617 0.42897 0.0
C343 C 0.02494 0.18857 0.51401 0.0
N344 N 0.02843 0.09263 0.44947 0.0
N345 N 0.01695 0.16264 0.53279 0.0
H346 H 0.33177 0.00724 0.2776 0.0
H347 H 0.41587 0.99394 0.70747 0.0
H348 H 0.32328 0.07042 0.4988 0.0
H349 H 0.46546 0.00489 0.44562 0.0
H350 H 0.3756 0.01188 0.63755 0.0
H351 H 0.37604 0.99602 0.34049 0.0
C352 C 0.33957 0.01913 0.33807 0.0
C353 C 0.32432 0.0402 0.38197 0.0
C354 C 0.39538 0.01038 0.59592 0.0
C355 C 0.37362 0.02639 0.45695 0.0
C356 C 0.41817 1e-05 0.63512 0.0
C357 C 0.4438 0.99797 0.58165 0.0
C358 C 0.3981 0.01774 0.50189 0.0
C359 C 0.44591 0.00622 0.48859 0.0
C360 C 0.36458 0.01255 0.37419 0.0
C361 C 0.33456 0.05407 0.46326 0.0
N362 N 0.42307 0.01537 0.45064 0.0
N363 N 0.35845 0.04661 0.49941 0.0
H364 H 0.48331 0.30486 0.45152 0.0
H365 H 0.4828 0.46228 0.39905 0.0
H366 H 0.4159 0.34117 0.32731 0.0
H367 H 0.52467 0.43019 0.62475 0.0
H368 H 0.46138 0.41731 0.36033 0.0
H369 H 0.50179 0.34992 0.50726 0.0
C370 C 0.47212 0.32237 0.43797 0.0
C371 C 0.44781 0.31949 0.38653 0.0
C372 C 0.47521 0.42009 0.41843 0.0
C373 C 0.46931 0.37084 0.44612 0.0
C374 C 0.48763 0.44566 0.44001 0.0
C375 C 0.50568 0.44976 0.5146 0.0
C376 C 0.48129 0.39836 0.47071 0.0
C377 C 0.51095 0.42769 0.56635 0.0
C378 C 0.48272 0.34799 0.46904 0.0
C379 C 0.43457 0.34273 0.36742 0.0
N380 N 0.49897 0.40277 0.54287 0.0
N381 N 0.44563 0.36751 0.3965 0.0
H382 H 0.18044 0.45475 0.24877 0.0
H383 H 0.07516 0.53821 0.60281 0.0
H384 H 0.20811 0.5193 0.44467 0.0
H385 H 0.0474 0.47811 0.39011 0.0
H386 H 0.12407 0.53154 0.54697 0.0
H387 H 0.13136 0.46264 0.30072 0.0
C388 C 0.17599 0.47046 0.30327 0.0
C389 C 0.19802 0.48616 0.34377 0.0
C390 C 0.1073 0.51991 0.51211 0.0
C391 C 0.14238 0.4955 0.40332 0.0
C392 C 0.07943 0.52373 0.54395 0.0
C393 C 0.05738 0.50857 0.50119 0.0
C394 C 0.11304 0.5008 0.43692 0.0
C395 C 0.06389 0.49019 0.42492 0.0
C396 C 0.14813 0.47503 0.3328 0.0
C397 C 0.19153 0.50646 0.41353 0.0
N398 N 0.09117 0.48671 0.39546 0.0
N399 N 0.16425 0.51054 0.44135 0.0
H400 H 0.92373 0.83578 0.98346 0.0
H401 H 0.03479 0.93576 0.71647 0.0
H402 H 0.00204 0.80919 0.85264 0.0
H403 H 0.97826 0.96238 0.94884 0.0
H404 H 0.01878 0.8887 0.74357 0.0
H405 H 0.93898 0.88245 0.94904 0.0
C406 C 0.94408 0.8399 0.94717 0.0
C407 C 0.96171 0.81891 0.92071 0.0
C408 C 0.01002 0.9049 0.7887 0.0
C409 C 0.9791 0.87165 0.87993 0.0
C410 C 0.01906 0.9316 0.77313 0.0
C411 C 0.00782 0.95272 0.83071 0.0
C412 C 0.98934 0.89955 0.86135 0.0
C413 C 0.98763 0.94654 0.90362 0.0
C414 C 0.95275 0.86636 0.92747 0.0
C415 C 0.98774 0.82492 0.8726 0.0
N416 N 0.97885 0.92046 0.9165 0.0
N417 N 0.9957 0.85082 0.85347 0.0
H418 H 0.71181 0.01099 0.92448 0.0
H419 H 0.54462 0.01045 0.93284 0.0
H420 H 0.65828 0.94804 0.04924 0.0
H421 H 0.599 0.04758 0.71689 0.0
H422 H 0.58595 0.99238 0.99613 0.0
H423 H 0.67041 0.02953 0.86512 0.0
C424 C 0.69129 0.00085 0.93774 0.0
C425 C 0.68832 0.97766 0.98954 0.0
C426 C 0.58876 0.00448 0.93489 0.0
C427 C 0.64091 -0.00075 0.9257 0.0
C428 C 0.56528 0.01464 0.89868 0.0
C429 C 0.56848 0.02981 0.81832 0.0
C430 C 0.61559 0.01021 0.89148 0.0
C431 C 0.59568 0.03577 0.77873 0.0
C432 C 0.66771 0.01154 0.90483 0.0
C433 C 0.66125 0.96582 0.00856 0.0
N434 N 0.61824 0.02589 0.81563 0.0
N435 N 0.63846 0.97681 0.97686 0.0
H436 H 0.52112 0.69226 0.11614 0.0
H437 H 0.52979 0.57239 0.71945 0.0
H438 H 0.58815 0.68855 0.89803 0.0
H439 H 0.48798 0.56072 0.9931 0.0
H440 H 0.54599 0.61775 0.77347 0.0
H441 H 0.50397 0.64634 0.06454 0.0
C442 C 0.53224 0.68157 0.05767 0.0
C443 C 0.55605 0.69387 0.01112 0.0
C444 C 0.5331 0.60538 0.82168 0.0
C445 C 0.53632 0.64206 0.95036 0.0
C446 C 0.5234 0.5796 0.79001 0.0
C447 C 0.50696 0.563 0.85064 0.0
C448 C 0.52606 0.6148 0.91499 0.0
C449 C 0.50048 0.57303 0.94377 0.0
C450 C 0.52247 0.65554 0.02819 0.0
C451 C 0.56958 0.67965 0.93479 0.0
N452 N 0.5099 0.59843 0.97315 0.0
N453 N 0.55942 0.65448 0.90622 0.0
H454 H 0.80228 0.4935 0.94067 0.0
H455 H 0.96573 0.53387 0.00117 0.0
H456 H 0.83251 0.55588 0.14039 0.0
H457 H 0.93582 0.47466 0.78899 0.0
H458 H 0.91709 0.54067 0.05803 0.0
H459 H 0.85105 0.48523 0.88651 0.0
C460 C 0.81935 0.50563 0.97206 0.0
C461 C 0.8137 0.52565 0.04365 0.0
C462 C 0.9211 0.52613 0.99918 0.0
C463 C 0.86926 0.51604 0.98443 0.0
C464 C 0.94885 0.52216 0.96702 0.0
C465 C 0.95463 0.50382 0.89001 0.0
C466 C 0.899 0.51157 0.95407 0.0
C467 C 0.93211 0.48917 0.84814 0.0
C468 C 0.84709 0.50082 0.94191 0.0
C469 C 0.83627 0.54041 0.08448 0.0
N470 N 0.9052 0.49344 0.88051 0.0
N471 N 0.86315 0.53534 0.05424 0.0
H472 H 0.00387 0.19945 0.31572 0.0
H473 H 0.05115 0.11957 0.82789 0.0
H474 H 0.08466 0.21518 0.1701 0.0
H475 H 0.9854 0.0906 0.02623 0.0
H476 H 0.05938 0.15987 0.93519 0.0
H477 H 0.99211 0.16463 0.19166 0.0
C478 C 0.01894 0.19561 0.25663 0.0
C479 C 0.04525 0.20975 0.25254 0.0
C480 C 0.04306 0.14473 0.95464 0.0
C481 C 0.03219 0.17032 0.1108 0.0
C482 C 0.03833 0.12186 0.89355 0.0
C483 C 0.01774 0.10178 0.91901 0.0
C484 C 0.02678 0.14751 0.04067 0.0
C485 C 0.00162 0.10558 0.00448 0.0
C486 C 0.01234 0.17582 0.18615 0.0
C487 C 0.06417 0.2045 0.17479 0.0
N488 N 0.0065 0.12797 0.0623 0.0
N489 N 0.05735 0.18501 0.1068 0.0
H490 H 0.29748 0.01197 0.11216 0.0
H491 H 0.44105 0.07188 0.87586 0.0
H492 H 0.33809 0.08489 0.23218 0.0
H493 H 0.42691 0.98676 0.91782 0.0
H494 H 0.39755 0.08037 0.97302 0.0
H495 H 0.33895 0.00607 0.00135 0.0
C496 C 0.31485 0.0271 0.11273 0.0
C497 C 0.31469 0.04896 0.18013 0.0
C498 C 0.4041 0.0599 0.96079 0.0
C499 C 0.36159 0.04247 0.05562 0.0
C500 C 0.4288 0.05504 0.90584 0.0
C501 C 0.43759 0.02863 0.89015 0.0
C502 C 0.38775 0.03808 0.9973 0.0
C503 C 0.42099 0.00744 0.92976 0.0
C504 C 0.33849 0.02358 0.05094 0.0
C505 C 0.33771 0.06789 0.18042 0.0
N506 N 0.39661 0.01259 0.98092 0.0
N507 N 0.36039 0.06425 0.11887 0.0
H508 H 0.48802 0.31095 0.22026 0.0
H509 H 0.4427 0.40094 0.8122 0.0
H510 H 0.40399 0.30525 0.12352 0.0
H511 H 0.51374 0.42123 0.98262 0.0
H512 H 0.43113 0.36081 0.90389 0.0
H513 H 0.50118 0.34623 0.10971 0.0
C514 C 0.47251 0.31705 0.17447 0.0
C515 C 0.44497 0.30555 0.18053 0.0
C516 C 0.44929 0.37404 0.92069 0.0
C517 C 0.45958 0.34565 0.05438 0.0
C518 C 0.4559 0.39683 0.86848 0.0
C519 C 0.47907 0.41438 0.89057 0.0
C520 C 0.46629 0.36875 0.99414 0.0
C521 C 0.49558 0.40826 0.96382 0.0
C522 C 0.4799 0.33715 0.11182 0.0
C523 C 0.42547 0.31377 0.11994 0.0
N524 N 0.48889 0.38596 0.01288 0.0
N525 N 0.4331 0.33351 0.05935 0.0
H526 H 0.22572 0.45577 0.06026 0.0
H527 H 0.10215 0.54816 0.96311 0.0
H528 H 0.21129 0.53151 0.21455 0.0
H529 H 0.12636 0.4816 0.77107 0.0
H530 H 0.14454 0.54436 0.04807 0.0
H531 H 0.19226 0.4664 0.94468 0.0
C532 C 0.21588 0.47491 0.06805 0.0
C533 C 0.22095 0.49286 0.14607 0.0
C534 C 0.14087 0.53078 0.98662 0.0
C535 C 0.18255 0.50497 0.01696 0.0
C536 C 0.11666 0.53296 0.93822 0.0
C537 C 0.11075 0.51499 0.86082 0.0
C538 C 0.15907 0.51021 0.95822 0.0
C539 C 0.1302 0.49574 0.83091 0.0
C540 C 0.19677 0.48095 0.00279 0.0
C541 C 0.20762 0.51724 0.15498 0.0
N542 N 0.15336 0.49356 0.88063 0.0
N543 N 0.18874 0.52248 0.09179 0.0
H544 H 0.90985 0.81074 0.14125 0.0
H545 H 0.02063 0.89516 0.46437 0.0
H546 H -0.00114 0.80006 0.11435 0.0
H547 H 0.93799 0.92119 0.42162 0.0
H548 H 0.01089 0.85487 0.35939 0.0
H549 H 0.9176 0.84603 0.2686 0.0
C550 C 0.93094 0.81568 0.16383 0.0
C551 C 0.95381 0.80287 0.11855 0.0
C552 C 0.99486 0.86935 0.37351 0.0
C553 C 0.96299 0.84276 0.26229 0.0
C554 C 0.00038 0.89225 0.4334 0.0
C555 C 0.98014 0.91152 0.45071 0.0
C556 C 0.96882 0.86566 0.33174 0.0
C557 C 0.9542 0.90685 0.40932 0.0
C558 C 0.93543 0.83578 0.23564 0.0
C559 C 0.98086 0.80971 0.14868 0.0
N560 N 0.94928 0.88439 0.35154 0.0
N561 N 0.98478 0.82933 0.21871 0.0
H562 H 0.69313 0.01434 0.15981 0.0
H563 H 0.58382 0.95827 0.56409 0.0
H564 H 0.69086 0.93292 0.24765 0.0
H565 H 0.57581 0.03314 0.4317 0.0
H566 H 0.626 0.9504 0.46138 0.0
H567 H 0.65338 0.02369 0.2735 0.0
C568 C 0.68432 -0.0014 0.20429 0.0
C569 C 0.69493 0.97289 0.19517 0.0
C570 C 0.61497 0.96852 0.45481 0.0
C571 C 0.64974 0.98315 0.32441 0.0
C572 C 0.59086 0.97305 0.51338 0.0
C573 C 0.5761 0.99635 0.50622 0.0
C574 C 0.62456 0.98752 0.38908 0.0
C575 C 0.58634 0.0148 0.43935 0.0
C576 C 0.66166 0.00382 0.26862 0.0
C577 C 0.68314 0.95302 0.25379 0.0
N578 N 0.60995 0.01 0.38349 0.0
N579 N 0.66102 0.95851 0.31593 0.0
H580 H 0.53899 0.72879 0.29047 0.0
H581 H 0.58349 0.58233 0.40591 0.0
H582 H 0.60551 0.68739 0.1345 0.0
H583 H 0.50886 0.61901 0.52826 0.0
H584 H 0.59701 0.62381 0.32519 0.0
H585 H 0.53343 0.6924 0.40029 0.0
C586 C 0.55302 0.7124 0.28158 0.0
C587 C 0.57288 0.71098 0.20449 0.0
C588 C 0.57777 0.62284 0.37019 0.0
C589 C 0.56616 0.66898 0.3269 0.0
C590 C 0.57006 0.59919 0.41603 0.0
C591 C 0.54491 0.59726 0.47265 0.0
C592 C 0.56021 0.64465 0.38165 0.0
C593 C 0.52829 0.61965 0.48424 0.0
C594 C 0.54964 0.69147 0.34318 0.0
C595 C 0.59008 0.68904 0.19377 0.0
N596 N 0.53617 0.6424 0.43873 0.0
N597 N 0.58617 0.6687 0.25377 0.0
H598 H 0.80018 0.47964 0.16783 0.0
H599 H 0.88449 0.5289 0.62495 0.0
H600 H 0.78618 0.55415 0.33069 0.0
H601 H 0.91025 0.46619 0.4188 0.0
H602 H 0.8418 0.53266 0.53951 0.0
H603 H 0.83384 0.46854 0.28134 0.0
C604 C 0.80394 0.49334 0.22892 0.0
C605 C 0.79074 0.51778 0.24066 0.0
C606 C 0.85665 0.51786 0.51375 0.0
C607 C 0.82908 0.5056 0.36981 0.0
C608 C 0.88091 0.51567 0.56252 0.0
C609 C 0.90093 0.49742 0.52795 0.0
C610 C 0.85244 0.50153 0.43052 0.0
C611 C 0.89539 0.48068 0.4471 0.0
C612 C 0.82312 0.48714 0.29331 0.0
C613 C 0.79601 0.53506 0.32031 0.0
N614 N 0.87174 0.48326 0.40073 0.0
N615 N 0.81506 0.52877 0.38172 0.0
loop_
_geom_bond_atom_site_label_1
_geom_bond_atom_site_label_2
_geom_bond_distance
_geom_bond_site_symmetry_2
_ccdc_geom_bond_type
C0 N1 1.317 . S
C0 N2 1.348 . S
C0 C3 1.485 . S
N1 C0 1.317 . S
N1 N5 1.370 . S
N2 C0 1.348 . S
N2 C4 1.346 1_554 S
C3 C0 1.485 . S
C3 H7 0.960 . S
C3 H8 0.961 . S
C3 H9 0.960 . S
C4 N2 1.346 1_556 S
C4 N5 1.307 1_556 S
C4 C6 1.486 . S
N5 N1 1.370 . S
N5 C4 1.307 1_554 S
C6 C4 1.486 . S
C6 H10 0.960 . S
C6 H11 0.960 . S
C6 H12 0.959 . S
H7 C3 0.960 . S
H8 C3 0.961 . S
H9 C3 0.960 . S
H10 C6 0.960 . S
H11 C6 0.960 . S
H12 C6 0.959 . S
C13 N14 1.317 . S
C13 N15 1.348 1_554 S
C13 C16 1.485 . S
N14 C13 1.317 . S
N14 N18 1.370 1_554 S
N15 C13 1.348 1_556 S
N15 C17 1.346 . S
C16 C13 1.485 . S
C16 H20 0.960 . S
C16 H21 0.961 . S
C16 H22 0.960 . S
C17 N15 1.346 . S
C17 N18 1.307 . S
C17 C19 1.486 . S
N18 N14 1.370 1_556 S
N18 C17 1.307 . S
C19 C17 1.486 . S
C19 H23 0.960 . S
C19 H24 0.960 . S
C19 H25 0.959 . S
H20 C16 0.960 . S
H21 C16 0.961 . S
H22 C16 0.960 . S
H23 C19 0.960 . S
H24 C19 0.960 . S
H25 C19 0.959 . S
C26 N27 1.317 . S
C26 N28 1.348 . S
C26 C29 1.485 . S
N27 C26 1.317 . S
N27 N31 1.370 . S
N28 C26 1.348 . S
N28 C30 1.346 1_554 S
C29 C26 1.485 . S
C29 H33 0.960 . S
C29 H34 0.961 . S
C29 H35 0.960 . S
C30 N28 1.346 1_556 S
C30 N31 1.307 1_556 S
C30 C32 1.486 . S
N31 N27 1.370 . S
N31 C30 1.307 1_554 S
C32 C30 1.486 . S
C32 H36 0.960 . S
C32 H37 0.960 . S
C32 H38 0.959 . S
H33 C29 0.960 . S
H34 C29 0.961 . S
H35 C29 0.960 . S
H36 C32 0.960 . S
H37 C32 0.960 . S
H38 C32 0.959 . S
C39 N40 1.317 . S
C39 N41 1.348 . S
C39 C42 1.485 . S
N40 C39 1.317 . S
N40 N44 1.370 . S
N41 C39 1.348 . S
N41 C43 1.346 1_554 S
C42 C39 1.485 . S
C42 H46 0.960 . S
C42 H47 0.961 . S
C42 H48 0.960 . S
C43 N41 1.346 1_556 S
C43 N44 1.307 1_556 S
C43 C45 1.486 . S
N44 N40 1.370 . S
N44 C43 1.307 1_554 S
C45 C43 1.486 . S
C45 H49 0.960 . S
C45 H50 0.960 . S
C45 H51 0.959 . S
H46 C42 0.960 . S
H47 C42 0.961 . S
H48 C42 0.960 . S
H49 C45 0.960 . S
H50 C45 0.960 . S
H51 C45 0.959 . S
C52 N53 1.317 . S
C52 N54 1.348 . S
C52 C55 1.485 . S
N53 C52 1.317 . S
N53 N57 1.370 . S
N54 C52 1.348 . S
N54 C56 1.346 . S
C55 C52 1.485 . S
C55 H59 0.960 . S
C55 H60 0.961 . S
C55 H61 0.960 . S
C56 N54 1.346 . S
C56 N57 1.307 . S
C56 C58 1.486 . S
N57 N53 1.370 . S
N57 C56 1.307 . S
C58 C56 1.486 . S
C58 H62 0.960 . S
C58 H63 0.960 . S
C58 H64 0.959 . S
H59 C55 0.960 . S
H60 C55 0.961 . S
H61 C55 0.960 . S
H62 C58 0.960 . S
H63 C58 0.960 . S
H64 C58 0.959 . S
C65 N66 1.317 . S
C65 N67 1.348 . S
C65 C68 1.485 . S
N66 C65 1.317 . S
N66 N70 1.370 . S
N67 C65 1.348 . S
N67 C69 1.346 . S
C68 C65 1.485 . S
C68 H72 0.960 . S
C68 H73 0.961 . S
C68 H74 0.960 . S
C69 N67 1.346 . S
C69 N70 1.307 . S
C69 C71 1.486 . S
N70 N66 1.370 . S
N70 C69 1.307 . S
C71 C69 1.486 . S
C71 H75 0.960 . S
C71 H76 0.960 . S
C71 H77 0.959 . S
H72 C68 0.960 . S
H73 C68 0.961 . S
H74 C68 0.960 . S
H75 C71 0.960 . S
H76 C71 0.960 . S
H77 C71 0.959 . S
C78 N79 1.317 . S
C78 N80 1.348 . S
C78 C81 1.485 . S
N79 C78 1.317 . S
N79 N83 1.370 . S
N80 C78 1.348 . S
N80 C82 1.346 . S
C81 C78 1.485 . S
C81 H85 0.960 . S
C81 H86 0.961 . S
C81 H87 0.960 . S
C82 N80 1.346 . S
C82 N83 1.307 . S
C82 C84 1.486 . S
N83 N79 1.370 . S
N83 C82 1.307 . S
C84 C82 1.486 . S
C84 H88 0.960 . S
C84 H89 0.960 . S
C84 H90 0.959 . S
H85 C81 0.960 . S
H86 C81 0.961 . S
H87 C81 0.960 . S
H88 C84 0.960 . S
H89 C84 0.960 . S
H90 C84 0.959 . S
C91 N92 1.317 . S
C91 N93 1.348 . S
C91 C94 1.485 . S
N92 C91 1.317 . S
N92 N96 1.370 . S
N93 C91 1.348 . S
N93 C95 1.346 . S
C94 C91 1.485 . S
C94 H98 0.960 . S
C94 H99 0.961 . S
C94 H100 0.960 . S
C95 N93 1.346 . S
C95 N96 1.307 . S
C95 C97 1.486 . S
N96 N92 1.370 . S
N96 C95 1.307 . S
C97 C95 1.486 . S
C97 H101 0.960 . S
C97 H102 0.960 . S
C97 H103 0.959 . S
H98 C94 0.960 . S
H99 C94 0.961 . S
H100 C94 0.960 . S
H101 C97 0.960 . S
H102 C97 0.960 . S
H103 C97 0.959 . S
Tb104 O107 2.422 1_565 S
Tb104 O108 2.574 1_665 S
Tb104 O109 2.374 1_665 S
Tb104 O117 2.358 1_655 S
Tb104 O119 2.349 1_565 S
Tb104 O121 2.452 . S
Tb104 O122 2.540 1_655 S
C105 O109 1.251 . S
C105 O111 1.263 . S
Tb106 O108 2.343 . S
Tb106 O111 2.353 . S
Tb106 O114 2.427 . S
Tb106 O115 2.512 . S
Tb106 O116 2.453 1_545 S
Tb106 O117 2.596 1_545 S
Tb106 O118 2.374 1_455 S
O107 Tb104 2.422 1_545 S
O107 C123 1.245 1_655 S
O108 Tb104 2.574 1_445 S
O108 Tb106 2.343 . S
O108 C123 1.259 . S
O109 Tb104 2.374 1_445 S
O109 C105 1.251 . S
C110 O114 1.275 . S
C110 O115 1.244 . S
O111 C105 1.263 . S
O111 Tb106 2.353 . S
C112 O116 1.245 . S
C112 O117 1.259 . S
C113 O118 1.250 . S
C113 O119 1.263 . S
O114 Tb106 2.427 . S
O114 C110 1.275 . S
O115 Tb106 2.512 . S
O115 C110 1.244 . S
O116 Tb106 2.453 1_565 S
O116 C112 1.245 . S
O117 Tb104 2.358 1_455 S
O117 Tb106 2.596 1_565 S
O117 C112 1.259 . S
O118 Tb106 2.374 1_655 S
O118 C113 1.250 . S
O119 Tb104 2.349 1_545 S
O119 C113 1.263 . S
C120 O121 1.275 . S
C120 O122 1.246 1_655 S
O121 Tb104 2.452 . S
O121 C120 1.275 . S
O122 Tb104 2.540 1_455 S
O122 C120 1.246 1_455 S
C123 O107 1.245 1_455 S
C123 O108 1.259 . S
Tb124 O127 2.453 . S
Tb124 O128 2.560 1_545 S
Tb124 O129 2.374 . S
Tb124 O137 2.343 . S
Tb124 O139 2.353 . S
Tb124 O141 2.427 . S
Tb124 O142 2.513 . S
C125 O129 1.265 . S
C125 O131 1.251 1_545 S
Tb126 O128 2.363 . S
Tb126 O131 2.353 . S
Tb126 O134 2.427 . S
Tb126 O135 2.513 . S
Tb126 O136 2.453 . S
Tb126 O137 2.596 1_565 S
Tb126 O138 2.374 . S
O127 Tb124 2.453 . S
O127 C143 1.245 . S
O128 Tb124 2.560 1_565 S
O128 Tb126 2.363 . S
O128 C143 1.249 1_565 S
O129 Tb124 2.374 . S
O129 C125 1.265 . S
C130 O134 1.275 . S
C130 O135 1.246 . S
O131 C125 1.251 1_565 S
O131 Tb126 2.353 . S
C132 O136 1.245 1_545 S
C132 O137 1.259 . S
C133 O138 1.250 1_545 S
C133 O139 1.263 . S
O134 Tb126 2.427 . S
O134 C130 1.275 . S
O135 Tb126 2.513 . S
O135 C130 1.246 . S
O136 Tb126 2.453 . S
O136 C132 1.245 1_565 S
O137 Tb124 2.343 . S
O137 Tb126 2.596 1_545 S
O137 C132 1.259 . S
O138 Tb126 2.374 . S
O138 C133 1.250 1_565 S
O139 Tb124 2.353 . S
O139 C133 1.263 . S
C140 O141 1.275 . S
C140 O142 1.246 . S
O141 Tb124 2.427 . S
O141 C140 1.275 . S
O142 Tb124 2.513 . S
O142 C140 1.246 . S
C143 O127 1.245 . S
C143 O128 1.249 1_545 S
Tb144 O147 2.453 . S
Tb144 O148 2.596 . S
Tb144 O149 2.374 . S
Tb144 O157 2.343 . S
Tb144 O159 2.353 . S
Tb144 O161 2.427 . S
Tb144 O162 2.513 . S
C145 O149 1.251 . S
C145 O151 1.263 . S
Tb146 O148 2.343 . S
Tb146 O151 2.353 . S
Tb146 O154 2.427 . S
Tb146 O155 2.513 . S
Tb146 O156 2.453 . S
Tb146 O157 2.596 . S
Tb146 O158 2.374 . S
O147 Tb144 2.453 . S
O147 C163 1.245 . S
O148 Tb144 2.596 . S
O148 Tb146 2.343 . S
O148 C163 1.259 . S
O149 Tb144 2.374 . S
O149 C145 1.251 . S
C150 O154 1.275 . S
C150 O155 1.246 . S
O151 C145 1.263 . S
O151 Tb146 2.353 . S
C152 O156 1.245 . S
C152 O157 1.259 . S
C153 O158 1.250 . S
C153 O159 1.263 . S
O154 Tb146 2.427 . S
O154 C150 1.275 . S
O155 Tb146 2.513 . S
O155 C150 1.246 . S
O156 Tb146 2.453 . S
O156 C152 1.245 . S
O157 Tb144 2.343 . S
O157 Tb146 2.596 . S
O157 C152 1.259 . S
O158 Tb146 2.374 . S
O158 C153 1.250 . S
O159 Tb144 2.353 . S
O159 C153 1.263 . S
C160 O161 1.275 . S
C160 O162 1.246 . S
O161 Tb144 2.427 . S
O161 C160 1.275 . S
O162 Tb144 2.513 . S
O162 C160 1.246 . S
C163 O147 1.245 . S
C163 O148 1.259 . S
Tb164 O167 2.453 1_655 S
Tb164 O168 2.596 1_655 S
Tb164 O169 2.374 1_655 S
Tb164 O177 2.343 . S
Tb164 O179 2.353 1_655 S
Tb164 O181 2.427 . S
Tb164 O182 2.513 . S
C165 O169 1.251 . S
C165 O171 1.263 . S
Tb166 O168 2.343 . S
Tb166 O171 2.353 . S
Tb166 O174 2.427 . S
Tb166 O175 2.513 . S
Tb166 O176 2.453 1_455 S
Tb166 O177 2.596 1_455 S
Tb166 O178 2.374 . S
O167 Tb164 2.453 1_455 S
O167 C183 1.245 . S
O168 Tb164 2.596 1_455 S
O168 Tb166 2.343 . S
O168 C183 1.259 . S
O169 Tb164 2.374 1_455 S
O169 C165 1.251 . S
C170 O174 1.275 . S
C170 O175 1.246 . S
O171 C165 1.263 . S
O171 Tb166 2.353 . S
C172 O176 1.245 . S
C172 O177 1.259 . S
C173 O178 1.250 . S
C173 O179 1.263 . S
O174 Tb166 2.427 . S
O174 C170 1.275 . S
O175 Tb166 2.513 . S
O175 C170 1.246 . S
O176 Tb166 2.453 1_655 S
O176 C172 1.245 . S
O177 Tb164 2.343 . S
O177 Tb166 2.596 1_655 S
O177 C172 1.259 . S
O178 Tb166 2.374 . S
O178 C173 1.250 . S
O179 Tb164 2.353 1_455 S
O179 C173 1.263 . S
C180 O181 1.275 . S
C180 O182 1.246 . S
O181 Tb164 2.427 . S
O181 C180 1.275 . S
O182 Tb164 2.513 . S
O182 C180 1.246 . S
C183 O167 1.245 . S
C183 O168 1.259 . S
H184 C190 0.930 . S
H185 C194 0.930 . S
H186 C199 0.929 . S
H187 C197 0.937 . S
H188 C192 0.929 . S
H189 C198 0.918 1_565 S
C190 H184 0.930 . S
C190 C191 1.367 . S
C190 C198 1.378 . S
C191 C190 1.367 . S
C191 C199 1.433 . S
C192 H188 0.929 . S
C192 C194 1.378 . S
C192 C196 1.350 . S
C193 C196 1.463 . S
C193 C198 1.350 . S
C193 N201 1.427 . S
C194 H185 0.930 . S
C194 C192 1.378 . S
C194 C195 1.367 . S
C195 C194 1.367 . S
C195 C197 1.427 1_545 S
C196 C192 1.350 . S
C196 C193 1.463 . S
C196 N200 1.427 . S
C197 H187 0.937 . S
C197 C195 1.427 1_565 S
C197 N200 1.382 1_565 S
C198 H189 0.918 1_545 S
C198 C190 1.378 . S
C198 C193 1.350 . S
C199 H186 0.929 . S
C199 C191 1.433 . S
C199 N201 1.384 . S
N200 C196 1.427 . S
N200 C197 1.382 1_545 S
N201 C193 1.427 . S
N201 C199 1.384 . S
H202 C208 0.930 . S
H203 C212 0.930 . S
H204 C217 0.929 . S
H205 C215 0.929 . S
H206 C210 0.929 . S
H207 C216 0.929 . S
C208 H202 0.930 . S
C208 C209 1.367 . S
C208 C216 1.378 . S
C209 C208 1.367 . S
C209 C217 1.433 . S
C210 H206 0.929 . S
C210 C212 1.378 . S
C210 C214 1.350 . S
C211 C214 1.463 . S
C211 C216 1.350 . S
C211 N219 1.427 . S
C212 H203 0.930 . S
C212 C210 1.378 . S
C212 C213 1.367 . S
C213 C212 1.367 . S
C213 C215 1.433 . S
C214 C210 1.350 . S
C214 C211 1.463 . S
C214 N218 1.427 . S
C215 H205 0.929 . S
C215 C213 1.433 . S
C215 N218 1.384 . S
C216 H207 0.929 . S
C216 C208 1.378 . S
C216 C211 1.350 . S
C217 H204 0.929 . S
C217 C209 1.433 . S
C217 N219 1.384 . S
N218 C214 1.427 . S
N218 C215 1.384 . S
N219 C211 1.427 . S
N219 C217 1.384 . S
H220 C226 0.930 . S
H221 C230 0.930 . S
H222 C235 0.929 . S
H223 C233 0.929 . S
H224 C228 0.929 . S
H225 C234 0.929 . S
C226 H220 0.930 . S
C226 C227 1.367 . S
C226 C234 1.378 . S
C227 C226 1.367 . S
C227 C235 1.433 . S
C228 H224 0.929 . S
C228 C230 1.378 . S
C228 C232 1.350 . S
C229 C232 1.463 . S
C229 C234 1.350 . S
C229 N237 1.427 . S
C230 H221 0.930 . S
C230 C228 1.378 . S
C230 C231 1.367 . S
C231 C230 1.367 . S
C231 C233 1.433 . S
C232 C228 1.350 . S
C232 C229 1.463 . S
C232 N236 1.427 . S
C233 H223 0.929 . S
C233 C231 1.433 . S
C233 N236 1.384 . S
C234 H225 0.929 . S
C234 C226 1.378 . S
C234 C229 1.350 . S
C235 H222 0.929 . S
C235 C227 1.433 . S
C235 N237 1.384 . S
N236 C232 1.427 . S
N236 C233 1.384 . S
N237 C229 1.427 . S
N237 C235 1.384 . S
H238 C244 0.930 . S
H239 C248 0.930 . S
H240 C253 0.929 . S
H241 C251 0.929 . S
H242 C246 0.929 . S
H243 C252 0.929 . S
C244 H238 0.930 . S
C244 C245 1.367 . S
C244 C252 1.378 . S
C245 C244 1.367 . S
C245 C253 1.433 . S
C246 H242 0.929 . S
C246 C248 1.378 . S
C246 C250 1.350 . S
C247 C250 1.463 . S
C247 C252 1.350 . S
C247 N255 1.427 . S
C248 H239 0.930 . S
C248 C246 1.378 . S
C248 C249 1.367 . S
C249 C248 1.367 . S
C249 C251 1.433 . S
C250 C246 1.350 . S
C250 C247 1.463 . S
C250 N254 1.427 . S
C251 H241 0.929 . S
C251 C249 1.433 . S
C251 N254 1.384 . S
C252 H243 0.929 . S
C252 C244 1.378 . S
C252 C247 1.350 . S
C253 H240 0.929 . S
C253 C245 1.433 . S
C253 N255 1.384 . S
N254 C250 1.427 . S
N254 C251 1.384 . S
N255 C247 1.427 . S
N255 C253 1.384 . S
H256 C262 0.930 1_545 S
H257 C266 0.930 . S
H258 C271 0.929 . S
H259 C269 0.929 . S
H260 C264 0.929 . S
H261 C270 0.901 1_545 S
C262 H256 0.930 1_565 S
C262 C263 1.367 1_554 S
C262 C270 1.384 1_554 S
C263 C262 1.367 1_556 S
C263 C271 1.433 . S
C264 H260 0.929 . S
C264 C266 1.378 . S
C264 C268 1.350 . S
C265 C268 1.463 . S
C265 C270 1.372 . S
C265 N273 1.427 . S
C266 H257 0.930 . S
C266 C264 1.378 . S
C266 C267 1.367 . S
C267 C266 1.367 . S
C267 C269 1.433 1_565 S
C268 C264 1.350 . S
C268 C265 1.463 . S
C268 N272 1.427 1_565 S
C269 H259 0.929 . S
C269 C267 1.433 1_545 S
C269 N272 1.384 . S
C270 H261 0.901 1_565 S
C270 C262 1.384 1_556 S
C270 C265 1.372 . S
C271 H258 0.929 . S
C271 C263 1.433 . S
C271 N273 1.384 . S
N272 C268 1.427 1_545 S
N272 C269 1.384 . S
N273 C265 1.427 . S
N273 C271 1.384 . S
H274 C280 0.930 . S
H275 C284 0.930 . S
H276 C289 0.929 . S
H277 C287 0.929 . S
H278 C282 0.929 . S
H279 C288 0.929 . S
C280 H274 0.930 . S
C280 C281 1.367 1_556 S
C280 C288 1.378 . S
C281 C280 1.367 1_554 S
C281 C289 1.433 . S
C282 H278 0.929 . S
C282 C284 1.378 . S
C282 C286 1.350 . S
C283 C286 1.463 . S
C283 C288 1.350 . S
C283 N291 1.427 1_556 S
C284 H275 0.930 . S
C284 C282 1.378 . S
C284 C285 1.367 . S
C285 C284 1.367 . S
C285 C287 1.433 . S
C286 C282 1.350 . S
C286 C283 1.463 . S
C286 N290 1.427 . S
C287 H277 0.929 . S
C287 C285 1.433 . S
C287 N290 1.384 . S
C288 H279 0.929 . S
C288 C280 1.378 . S
C288 C283 1.350 . S
C289 H276 0.929 . S
C289 C281 1.433 . S
C289 N291 1.384 . S
N290 C286 1.427 . S
N290 C287 1.384 . S
N291 C283 1.427 1_554 S
N291 C289 1.384 . S
H292 C298 0.930 . S
H293 C302 0.930 . S
H294 C307 0.929 1_554 S
H295 C305 0.929 . S
H296 C300 0.929 . S
H297 C306 0.929 . S
C298 H292 0.930 . S
C298 C299 1.367 1_556 S
C298 C306 1.378 . S
C299 C298 1.367 1_554 S
C299 C307 1.433 1_554 S
C300 H296 0.929 . S
C300 C302 1.378 . S
C300 C304 1.350 . S
C301 C304 1.463 . S
C301 C306 1.350 . S
C301 N309 1.427 . S
C302 H293 0.930 . S
C302 C300 1.378 . S
C302 C303 1.367 . S
C303 C302 1.367 . S
C303 C305 1.433 . S
C304 C300 1.350 . S
C304 C301 1.463 . S
C304 N308 1.427 . S
C305 H295 0.929 . S
C305 C303 1.433 . S
C305 N308 1.384 . S
C306 H297 0.929 . S
C306 C298 1.378 . S
C306 C301 1.350 . S
C307 H294 0.929 1_556 S
C307 C299 1.433 1_556 S
C307 N309 1.384 . S
N308 C304 1.427 . S
N308 C305 1.384 . S
N309 C301 1.427 . S
N309 C307 1.384 . S
H310 C316 0.930 . S
H311 C320 0.930 . S
H312 C325 0.929 1_554 S
H313 C323 0.929 . S
H314 C318 0.929 . S
H315 C324 0.929 . S
C316 H310 0.930 . S
C316 C317 1.367 . S
C316 C324 1.378 . S
C317 C316 1.367 . S
C317 C325 1.434 . S
C318 H314 0.929 . S
C318 C320 1.378 . S
C318 C322 1.350 . S
C319 C322 1.463 . S
C319 C324 1.350 . S
C319 N327 1.427 . S
C320 H311 0.930 . S
C320 C318 1.378 . S
C320 C321 1.367 . S
C321 C320 1.367 . S
C321 C323 1.433 1_655 S
C322 C318 1.350 . S
C322 C319 1.463 . S
C322 N326 1.427 . S
C323 H313 0.929 . S
C323 C321 1.433 1_455 S
C323 N326 1.384 1_455 S
C324 H315 0.929 . S
C324 C316 1.378 . S
C324 C319 1.350 . S
C325 H312 0.929 1_556 S
C325 C317 1.434 . S
C325 N327 1.384 . S
N326 C322 1.427 . S
N326 C323 1.384 1_655 S
N327 C319 1.427 . S
N327 C325 1.384 . S
H328 C334 0.930 . S
H329 C338 0.930 1_655 S
H330 C343 0.929 . S
H331 C341 0.929 . S
H332 C336 0.931 . S
H333 C342 0.929 . S
C334 H328 0.930 . S
C334 C335 1.367 . S
C334 C342 1.378 . S
C335 C334 1.367 . S
C335 C343 1.433 . S
C336 H332 0.931 . S
C336 C338 1.378 . S
C336 C340 1.350 . S
C337 C340 1.463 . S
C337 C342 1.350 . S
C337 N345 1.427 . S
C338 H329 0.930 1_455 S
C338 C336 1.378 . S
C338 C339 1.367 . S
C339 C338 1.367 . S
C339 C341 1.433 . S
C340 C336 1.350 . S
C340 C337 1.463 . S
C340 N344 1.427 . S
C341 H331 0.929 . S
C341 C339 1.433 . S
C341 N344 1.384 . S
C342 H333 0.929 . S
C342 C334 1.378 . S
C342 C337 1.350 . S
C343 H330 0.929 . S
C343 C335 1.433 . S
C343 N345 1.384 . S
N344 C340 1.427 . S
N344 C341 1.384 . S
N345 C337 1.427 . S
N345 C343 1.384 . S
H346 C352 0.930 . S
H347 C356 0.930 . S
H348 C361 0.929 . S
H349 C359 0.929 . S
H350 C354 0.929 . S
H351 C360 0.929 . S
C352 H346 0.930 . S
C352 C353 1.367 . S
C352 C360 1.378 . S
C353 C352 1.367 . S
C353 C361 1.433 . S
C354 H350 0.929 . S
C354 C356 1.378 . S
C354 C358 1.350 . S
C355 C358 1.463 . S
C355 C360 1.350 . S
C355 N363 1.427 . S
C356 H347 0.930 . S
C356 C354 1.378 . S
C356 C357 1.367 . S
C357 C356 1.367 . S
C357 C359 1.433 . S
C358 C354 1.350 . S
C358 C355 1.463 . S
C358 N362 1.427 . S
C359 H349 0.929 . S
C359 C357 1.433 . S
C359 N362 1.384 . S
C360 H351 0.929 . S
C360 C352 1.378 . S
C360 C355 1.350 . S
C361 H348 0.929 . S
C361 C353 1.433 . S
C361 N363 1.384 . S
N362 C358 1.427 . S
N362 C359 1.384 . S
N363 C355 1.427 . S
N363 C361 1.384 . S
H364 C370 0.930 . S
H365 C374 0.930 . S
H366 C379 0.929 . S
H367 C377 0.929 . S
H368 C372 0.929 . S
H369 C378 0.929 . S
C370 H364 0.930 . S
C370 C371 1.367 . S
C370 C378 1.378 . S
C371 C370 1.367 . S
C371 C379 1.433 . S
C372 H368 0.929 . S
C372 C374 1.378 . S
C372 C376 1.350 . S
C373 C376 1.463 . S
C373 C378 1.350 . S
C373 N381 1.427 . S
C374 H365 0.930 . S
C374 C372 1.378 . S
C374 C375 1.367 . S
C375 C374 1.367 . S
C375 C377 1.433 . S
C376 C372 1.350 . S
C376 C373 1.463 . S
C376 N380 1.427 . S
C377 H367 0.929 . S
C377 C375 1.433 . S
C377 N380 1.384 . S
C378 H369 0.929 . S
C378 C370 1.378 . S
C378 C373 1.350 . S
C379 H366 0.929 . S
C379 C371 1.433 . S
C379 N381 1.384 . S
N380 C376 1.427 . S
N380 C377 1.384 . S
N381 C373 1.427 . S
N381 C379 1.384 . S
H382 C388 0.930 . S
H383 C392 0.930 . S
H384 C397 0.929 . S
H385 C395 0.929 . S
H386 C390 0.929 . S
H387 C396 0.929 . S
C388 H382 0.930 . S
C388 C389 1.367 . S
C388 C396 1.378 . S
C389 C388 1.367 . S
C389 C397 1.433 . S
C390 H386 0.929 . S
C390 C392 1.378 . S
C390 C394 1.350 . S
C391 C394 1.463 . S
C391 C396 1.350 . S
C391 N399 1.427 . S
C392 H383 0.930 . S
C392 C390 1.378 . S
C392 C393 1.367 . S
C393 C392 1.367 . S
C393 C395 1.433 . S
C394 C390 1.350 . S
C394 C391 1.463 . S
C394 N398 1.427 . S
C395 H385 0.929 . S
C395 C393 1.433 . S
C395 N398 1.384 . S
C396 H387 0.929 . S
C396 C388 1.378 . S
C396 C391 1.350 . S
C397 H384 0.929 . S
C397 C389 1.433 . S
C397 N399 1.384 . S
N398 C394 1.427 . S
N398 C395 1.384 . S
N399 C391 1.427 . S
N399 C397 1.384 . S
H400 C406 0.930 . S
H401 C410 0.930 . S
H402 C415 0.925 1_455 S
H403 C413 0.929 . S
H404 C408 0.929 . S
H405 C414 0.929 . S
C406 H400 0.930 . S
C406 C407 1.367 . S
C406 C414 1.378 . S
C407 C406 1.367 . S
C407 C415 1.433 . S
C408 H404 0.929 . S
C408 C410 1.378 . S
C408 C412 1.350 1_455 S
C409 C412 1.463 . S
C409 C414 1.350 . S
C409 N417 1.427 . S
C410 H401 0.930 . S
C410 C408 1.378 . S
C410 C411 1.367 1_455 S
C411 C410 1.367 1_655 S
C411 C413 1.433 . S
C412 C408 1.350 1_655 S
C412 C409 1.463 . S
C412 N416 1.427 . S
C413 H403 0.929 . S
C413 C411 1.433 . S
C413 N416 1.384 . S
C414 H405 0.929 . S
C414 C406 1.378 . S
C414 C409 1.350 . S
C415 H402 0.925 1_655 S
C415 C407 1.433 . S
C415 N417 1.384 . S
N416 C412 1.427 . S
N416 C413 1.384 . S
N417 C409 1.427 . S
N417 C415 1.384 . S
H418 C424 0.930 . S
H419 C428 0.930 . S
H420 C433 0.929 . S
H421 C431 0.929 . S
H422 C426 0.929 . S
H423 C432 0.929 1_545 S
C424 H418 0.930 . S
C424 C425 1.367 . S
C424 C432 1.378 . S
C425 C424 1.367 . S
C425 C433 1.433 1_556 S
C426 H422 0.929 . S
C426 C428 1.378 . S
C426 C430 1.350 . S
C427 C430 1.463 . S
C427 C432 1.350 . S
C427 N435 1.427 . S
C428 H419 0.930 . S
C428 C426 1.378 . S
C428 C429 1.367 . S
C429 C428 1.367 . S
C429 C431 1.433 1_565 S
C430 C426 1.350 . S
C430 C427 1.463 . S
C430 N434 1.427 1_565 S
C431 H421 0.929 . S
C431 C429 1.433 1_545 S
C431 N434 1.384 . S
C432 H423 0.929 1_565 S
C432 C424 1.378 . S
C432 C427 1.350 . S
C433 H420 0.929 . S
C433 C425 1.433 1_554 S
C433 N435 1.384 1_554 S
N434 C430 1.427 1_545 S
N434 C431 1.384 . S
N435 C427 1.427 . S
N435 C433 1.384 1_556 S
H436 C442 0.930 . S
H437 C446 0.930 . S
H438 C451 0.929 . S
H439 C449 0.929 . S
H440 C444 0.929 . S
H441 C450 0.929 1_554 S
C442 H436 0.930 . S
C442 C443 1.367 1_554 S
C442 C450 1.378 1_554 S
C443 C442 1.367 1_556 S
C443 C451 1.433 . S
C444 H440 0.929 . S
C444 C446 1.378 . S
C444 C448 1.350 . S
C445 C448 1.463 . S
C445 C450 1.350 . S
C445 N453 1.427 . S
C446 H437 0.930 . S
C446 C444 1.378 . S
C446 C447 1.367 . S
C447 C446 1.367 . S
C447 C449 1.433 . S
C448 C444 1.350 . S
C448 C445 1.463 . S
C448 N452 1.427 . S
C449 H439 0.929 . S
C449 C447 1.433 . S
C449 N452 1.384 . S
C450 H441 0.929 1_556 S
C450 C442 1.378 1_556 S
C450 C445 1.350 . S
C451 H438 0.929 . S
C451 C443 1.433 . S
C451 N453 1.384 . S
N452 C448 1.427 . S
N452 C449 1.384 . S
N453 C445 1.427 . S
N453 C451 1.384 . S
H454 C460 0.930 . S
H455 C464 0.930 . S
H456 C469 0.929 . S
H457 C467 0.929 . S
H458 C462 0.929 . S
H459 C468 0.929 . S
C460 H454 0.930 . S
C460 C461 1.367 . S
C460 C468 1.378 . S
C461 C460 1.367 . S
C461 C469 1.433 . S
C462 H458 0.929 . S
C462 C464 1.378 . S
C462 C466 1.350 . S
C463 C466 1.463 . S
C463 C468 1.350 . S
C463 N471 1.427 . S
C464 H455 0.930 . S
C464 C462 1.378 . S
C464 C465 1.367 . S
C465 C464 1.367 . S
C465 C467 1.433 . S
C466 C462 1.350 . S
C466 C463 1.463 . S
C466 N470 1.427 . S
C467 H457 0.929 . S
C467 C465 1.433 . S
C467 N470 1.384 . S
C468 H459 0.929 . S
C468 C460 1.378 . S
C468 C463 1.350 . S
C469 H456 0.929 . S
C469 C461 1.433 . S
C469 N471 1.384 . S
N470 C466 1.427 . S
N470 C467 1.384 . S
N471 C463 1.427 . S
N471 C469 1.384 . S
H472 C478 0.930 . S
H473 C482 0.930 . S
H474 C487 0.929 . S
H475 C485 0.929 . S
H476 C480 0.929 . S
H477 C486 0.929 . S
C478 H472 0.930 . S
C478 C479 1.367 . S
C478 C486 1.378 . S
C479 C478 1.367 . S
C479 C487 1.433 . S
C480 H476 0.929 . S
C480 C482 1.378 . S
C480 C484 1.350 1_556 S
C481 C484 1.463 . S
C481 C486 1.350 . S
C481 N489 1.427 . S
C482 H473 0.930 . S
C482 C480 1.378 . S
C482 C483 1.367 . S
C483 C482 1.367 . S
C483 C485 1.433 1_556 S
C484 C480 1.350 1_554 S
C484 C481 1.463 . S
C484 N488 1.427 . S
C485 H475 0.929 . S
C485 C483 1.433 1_554 S
C485 N488 1.384 . S
C486 H477 0.929 . S
C486 C478 1.378 . S
C486 C481 1.350 . S
C487 H474 0.929 . S
C487 C479 1.433 . S
C487 N489 1.384 . S
N488 C484 1.427 . S
N488 C485 1.384 . S
N489 C481 1.427 . S
N489 C487 1.384 . S
H490 C496 0.930 . S
H491 C500 0.930 1_554 S
H492 C505 0.929 . S
H493 C503 0.929 . S
H494 C498 0.929 . S
H495 C504 0.929 1_556 S
C496 H490 0.930 . S
C496 C497 1.367 . S
C496 C504 1.378 . S
C497 C496 1.367 . S
C497 C505 1.433 . S
C498 H494 0.929 . S
C498 C500 1.378 1_554 S
C498 C502 1.350 . S
C499 C502 1.463 . S
C499 C504 1.350 . S
C499 N507 1.427 . S
C500 H491 0.930 1_556 S
C500 C498 1.378 1_556 S
C500 C501 1.367 . S
C501 C500 1.367 . S
C501 C503 1.433 . S
C502 C498 1.350 . S
C502 C499 1.463 . S
C502 N506 1.427 1_554 S
C503 H493 0.929 . S
C503 C501 1.433 . S
C503 N506 1.384 . S
C504 H495 0.929 1_554 S
C504 C496 1.378 . S
C504 C499 1.350 . S
C505 H492 0.929 . S
C505 C497 1.433 . S
C505 N507 1.384 . S
N506 C502 1.427 1_556 S
N506 C503 1.384 . S
N507 C499 1.427 . S
N507 C505 1.384 . S
H508 C514 0.930 . S
H509 C518 0.930 . S
H510 C523 0.929 . S
H511 C521 0.929 . S
H512 C516 0.929 . S
H513 C522 0.929 . S
C514 H508 0.930 . S
C514 C515 1.367 . S
C514 C522 1.378 . S
C515 C514 1.367 . S
C515 C523 1.433 . S
C516 H512 0.929 . S
C516 C518 1.378 . S
C516 C520 1.350 1_556 S
C517 C520 1.463 . S
C517 C522 1.350 . S
C517 N525 1.427 . S
C518 H509 0.930 . S
C518 C516 1.378 . S
C518 C519 1.367 . S
C519 C518 1.367 . S
C519 C521 1.433 1_556 S
C520 C516 1.350 1_554 S
C520 C517 1.463 . S
C520 N524 1.427 . S
C521 H511 0.929 . S
C521 C519 1.433 1_554 S
C521 N524 1.384 . S
C522 H513 0.929 . S
C522 C514 1.378 . S
C522 C517 1.350 . S
C523 H510 0.929 . S
C523 C515 1.433 . S
C523 N525 1.384 . S
N524 C520 1.427 . S
N524 C521 1.384 . S
N525 C517 1.427 . S
N525 C523 1.384 . S
H526 C532 0.930 . S
H527 C536 0.930 1_554 S
H528 C541 0.929 . S
H529 C539 0.929 . S
H530 C534 0.929 . S
H531 C540 0.929 . S
C532 H526 0.930 . S
C532 C533 1.367 . S
C532 C540 1.378 . S
C533 C532 1.367 . S
C533 C541 1.433 . S
C534 H530 0.929 . S
C534 C536 1.378 1_554 S
C534 C538 1.350 . S
C535 C538 1.463 . S
C535 C540 1.350 . S
C535 N543 1.427 . S
C536 H527 0.930 1_556 S
C536 C534 1.378 1_556 S
C536 C537 1.367 . S
C537 C536 1.367 . S
C537 C539 1.433 . S
C538 C534 1.350 . S
C538 C535 1.463 . S
C538 N542 1.427 1_554 S
C539 H529 0.929 . S
C539 C537 1.433 . S
C539 N542 1.384 . S
C540 H531 0.929 . S
C540 C532 1.378 . S
C540 C535 1.350 . S
C541 H528 0.929 . S
C541 C533 1.433 . S
C541 N543 1.384 . S
N542 C538 1.427 1_556 S
N542 C539 1.384 . S
N543 C535 1.427 . S
N543 C541 1.384 . S
H544 C550 0.930 . S
H545 C554 0.930 1_455 S
H546 C559 0.929 . S
H547 C557 0.929 . S
H548 C552 0.929 . S
H549 C558 0.929 . S
C550 H544 0.930 . S
C550 C551 1.367 . S
C550 C558 1.378 . S
C551 C550 1.367 . S
C551 C559 1.433 . S
C552 H548 0.929 . S
C552 C554 1.378 . S
C552 C556 1.350 . S
C553 C556 1.463 . S
C553 C558 1.350 . S
C553 N561 1.427 . S
C554 H545 0.930 1_655 S
C554 C552 1.378 . S
C554 C555 1.367 . S
C555 C554 1.367 . S
C555 C557 1.433 . S
C556 C552 1.350 . S
C556 C553 1.463 . S
C556 N560 1.427 . S
C557 H547 0.929 . S
C557 C555 1.433 . S
C557 N560 1.384 . S
C558 H549 0.929 . S
C558 C550 1.378 . S
C558 C553 1.350 . S
C559 H546 0.929 . S
C559 C551 1.433 . S
C559 N561 1.384 . S
N560 C556 1.427 . S
N560 C557 1.384 . S
N561 C553 1.427 . S
N561 C559 1.384 . S
H562 C568 0.930 . S
H563 C572 0.930 . S
H564 C577 0.929 . S
H565 C575 0.927 1_545 S
H566 C570 0.929 . S
H567 C576 0.929 . S
C568 H562 0.930 . S
C568 C569 1.367 . S
C568 C576 1.378 . S
C569 C568 1.367 . S
C569 C577 1.433 . S
C570 H566 0.929 . S
C570 C572 1.378 . S
C570 C574 1.350 . S
C571 C574 1.463 . S
C571 C576 1.350 . S
C571 N579 1.427 . S
C572 H563 0.930 . S
C572 C570 1.378 . S
C572 C573 1.367 . S
C573 C572 1.367 . S
C573 C575 1.434 . S
C574 C570 1.350 . S
C574 C571 1.463 . S
C574 N578 1.427 . S
C575 H565 0.927 1_565 S
C575 C573 1.434 . S
C575 N578 1.385 . S
C576 H567 0.929 . S
C576 C568 1.378 . S
C576 C571 1.350 . S
C577 H564 0.929 . S
C577 C569 1.433 . S
C577 N579 1.384 . S
N578 C574 1.427 . S
N578 C575 1.385 . S
N579 C571 1.427 . S
N579 C577 1.384 . S
H580 C586 0.930 . S
H581 C590 0.930 . S
H582 C595 0.929 . S
H583 C593 0.929 . S
H584 C588 0.929 . S
H585 C594 0.929 . S
C586 H580 0.930 . S
C586 C587 1.367 . S
C586 C594 1.378 . S
C587 C586 1.367 . S
C587 C595 1.433 . S
C588 H584 0.929 . S
C588 C590 1.378 . S
C588 C592 1.350 . S
C589 C592 1.463 . S
C589 C594 1.350 . S
C589 N597 1.427 . S
C590 H581 0.930 . S
C590 C588 1.378 . S
C590 C591 1.367 . S
C591 C590 1.367 . S
C591 C593 1.433 . S
C592 C588 1.350 . S
C592 C589 1.463 . S
C592 N596 1.427 . S
C593 H583 0.929 . S
C593 C591 1.433 . S
C593 N596 1.384 . S
C594 H585 0.929 . S
C594 C586 1.378 . S
C594 C589 1.350 . S
C595 H582 0.929 . S
C595 C587 1.433 . S
C595 N597 1.384 . S
N596 C592 1.427 . S
N596 C593 1.384 . S
N597 C589 1.427 . S
N597 C595 1.384 . S
H598 C604 0.930 . S
H599 C608 0.930 . S
H600 C613 0.929 . S
H601 C611 0.929 . S
H602 C606 0.929 . S
H603 C612 0.929 . S
C604 H598 0.930 . S
C604 C605 1.367 . S
C604 C612 1.378 . S
C605 C604 1.367 . S
C605 C613 1.433 . S
C606 H602 0.929 . S
C606 C608 1.378 . S
C606 C610 1.350 . S
C607 C610 1.463 . S
C607 C612 1.350 . S
C607 N615 1.427 . S
C608 H599 0.930 . S
C608 C606 1.378 . S
C608 C609 1.367 . S
C609 C608 1.367 . S
C609 C611 1.433 . S
C610 C606 1.350 . S
C610 C607 1.463 . S
C610 N614 1.427 . S
C611 H601 0.929 . S
C611 C609 1.433 . S
C611 N614 1.384 . S
C612 H603 0.929 . S
C612 C604 1.378 . S
C612 C607 1.350 . S
C613 H600 0.929 . S
C613 C605 1.433 . S
C613 N615 1.384 . S
N614 C610 1.427 . S
N614 C611 1.384 . S
N615 C607 1.427 . S
N615 C613 1.384 . S
C191 N80 1.582 . S
C195 C105 1.601 . S
C213 C140 1.567 . S
C209 N93 1.545 . S
C231 C145 1.358 . S
C227 N54 1.347 . S
C249 C165 1.469 . S
C245 N67 1.457 . S
C267 C113 1.602 1_565 S
C263 N28 1.594 1_556 S
C281 N41 1.553 . S
C285 C130 1.571 . S
C299 N2 1.353 . S
C303 C153 1.352 . S
C317 N15 1.463 . S
C321 C173 1.469 1_655 S
C339 C123 1.206 . S
C335 N70 1.235 . S
C357 C132 0.976 . S
C353 N83 0.983 . S
C375 C163 1.241 . S
C371 N96 1.257 . S
C389 N57 0.993 . S
C393 C183 0.977 . S
C407 N18 1.238 . S
C411 C112 1.203 1_655 S
C429 C143 0.976 1_565 S
C425 N31 0.983 1_556 S
C447 C152 1.254 . S
C443 N44 1.259 1_556 S
C461 N5 0.992 1_556 S
C465 C172 0.970 . S
C479 N66 1.468 . S
C483 C110 1.462 . S
C497 N79 1.479 . S
C501 C133 1.496 . S
C519 C150 1.542 . S
C515 N92 1.532 . S
C537 C170 1.559 . S
C533 N53 1.583 . S
C551 N14 1.481 . S
C555 C120 1.461 . S
C573 C125 1.493 1_565 S
C569 N27 1.494 . S
C591 C160 1.533 . S
C587 N40 1.555 . S
C605 N1 1.584 . S
C609 C180 1.564 . S
