# Generated by pormake.
# Topology pyr, (3,6)-cn, num edge types: 1
# Building blocks:
#     Node 0, Type 0, BuildingBlock: QEWDON_clean_linker_0, # of connection points: 3
#     Node 1, Type 0, BuildingBlock: QEWDON_clean_linker_0, # of connection points: 3
#     Node 2, Type 0, BuildingBlock: QEWDON_clean_linker_0, # of connection points: 3
#     Node 3, Type 0, BuildingBlock: QEWDON_clean_linker_0, # of connection points: 3
#     Node 4, Type 0, BuildingBlock: QEWDON_clean_linker_0, # of connection points: 3
#     Node 5, Type 0, BuildingBlock: QEWDON_clean_linker_0, # of connection points: 3
#     Node 6, Type 0, BuildingBlock: QEWDON_clean_linker_0, # of connection points: 3
#     Node 7, Type 0, BuildingBlock: QEWDON_clean_linker_0, # of connection points: 3
#     Node 8, Type 1, BuildingBlock: MIDCAF_clean_sbu_0, # of connection points: 6
#     Node 9, Type 1, BuildingBlock: MIDCAF_clean_sbu_0, # of connection points: 6
#     Node 10, Type 1, BuildingBlock: MIDCAF_clean_sbu_0, # of connection points: 6
#     Node 11, Type 1, BuildingBlock: MIDCAF_clean_sbu_0, # of connection points: 6
#     Edge 12, Type (0, 1), BuildingBlock: ZUJKAS_clean_linker_0, # of connection points: 2
#     Edge 13, Type (0, 1), BuildingBlock: ZUJKAS_clean_linker_0, # of connection points: 2
#     Edge 14, Type (0, 1), BuildingBlock: ZUJKAS_clean_linker_0, # of connection points: 2
#     Edge 15, Type (0, 1), BuildingBlock: ZUJKAS_clean_linker_0, # of connection points: 2
#     Edge 16, Type (0, 1), BuildingBlock: ZUJKAS_clean_linker_0, # of connection points: 2
#     Edge 17, Type (0, 1), BuildingBlock: ZUJKAS_clean_linker_0, # of connection points: 2
#     Edge 18, Type (0, 1), BuildingBlock: ZUJKAS_clean_linker_0, # of connection points: 2
#     Edge 19, Type (0, 1), BuildingBlock: ZUJKAS_clean_linker_0, # of connection points: 2
#     Edge 20, Type (0, 1), BuildingBlock: ZUJKAS_clean_linker_0, # of connection points: 2
#     Edge 21, Type (0, 1), BuildingBlock: ZUJKAS_clean_linker_0, # of connection points: 2
#     Edge 22, Type (0, 1), BuildingBlock: ZUJKAS_clean_linker_0, # of connection points: 2
#     Edge 23, Type (0, 1), BuildingBlock: ZUJKAS_clean_linker_0, # of connection points: 2
#     Edge 24, Type (0, 1), BuildingBlock: ZUJKAS_clean_linker_0, # of connection points: 2
#     Edge 25, Type (0, 1), BuildingBlock: ZUJKAS_clean_linker_0, # of connection points: 2
#     Edge 26, Type (0, 1), BuildingBlock: ZUJKAS_clean_linker_0, # of connection points: 2
#     Edge 27, Type (0, 1), BuildingBlock: ZUJKAS_clean_linker_0, # of connection points: 2
#     Edge 28, Type (0, 1), BuildingBlock: ZUJKAS_clean_linker_0, # of connection points: 2
#     Edge 29, Type (0, 1), BuildingBlock: ZUJKAS_clean_linker_0, # of connection points: 2
#     Edge 30, Type (0, 1), BuildingBlock: ZUJKAS_clean_linker_0, # of connection points: 2
#     Edge 31, Type (0, 1), BuildingBlock: ZUJKAS_clean_linker_0, # of connection points: 2
#     Edge 32, Type (0, 1), BuildingBlock: ZUJKAS_clean_linker_0, # of connection points: 2
#     Edge 33, Type (0, 1), BuildingBlock: ZUJKAS_clean_linker_0, # of connection points: 2
#     Edge 34, Type (0, 1), BuildingBlock: ZUJKAS_clean_linker_0, # of connection points: 2
#     Edge 35, Type (0, 1), BuildingBlock: ZUJKAS_clean_linker_0, # of connection points: 2
# Relax obj value: 0.142
# Max RMSD: 0.267
# Mean RMSD: 0.193
data_MOF--net-pry--node1-MIDCAF_clean_sbu_0--node2-QEWDON_clean_linker_0--edge1-ZUJKAS_clean_linker_0
_symmetry_space_group_name_H-M    P1
_symmetry_Int_Tables_number       1
_symmetry_cell_setting            triclinic
loop_
_symmetry_equiv_pos_as_xyz
'x, y, z'
_cell_length_a     45.446995
_cell_length_b     45.88712
_cell_length_c     48.828375
_cell_angle_alpha  90.122142
_cell_angle_beta   90.497059
_cell_angle_gamma 99.762812
loop_
_atom_site_label
_atom_site_type_symbol
_atom_site_fract_x
_atom_site_fract_y
_atom_site_fract_z
_atom_type_partial_charge
H0 H 0.28124 0.27315 0.23569 0.0
C1 C 0.26604 0.2628 0.2512 0.0
C2 C 0.26755 0.23386 0.25988 0.0
C3 C 0.24565 0.27902 0.26283 0.0
H4 H 0.24912 0.19902 0.28742 0.0
C5 C 0.24794 0.22118 0.28045 0.0
C6 C 0.22765 0.23722 0.29285 0.0
C7 C 0.22646 0.2661 0.28352 0.0
C8 C 0.24866 0.3111 0.25694 0.0
H9 H 0.21202 0.27931 0.29349 0.0
C10 C 0.22741 0.32321 0.24121 0.0
C11 C 0.2324 0.35378 0.23491 0.0
C12 C 0.27423 0.32976 0.26684 0.0
H13 H 0.29074 0.3209 0.27896 0.0
C14 C 0.27879 0.35992 0.2613 0.0
H15 H 0.2078 0.30886 0.23323 0.0
C16 C 0.25817 0.37184 0.24545 0.0
H17 H 0.26237 0.3954 0.24152 0.0
H18 H 0.29852 0.37412 0.26919 0.0
H19 H 0.29757 0.86889 0.81984 0.0
C20 C 0.31053 0.85585 0.80781 0.0
C21 C 0.34046 0.85472 0.81517 0.0
C22 C 0.29643 0.83836 0.78624 0.0
H23 H 0.37928 0.83528 0.8051 0.0
C24 C 0.35629 0.83638 0.79983 0.0
C25 C 0.34233 0.81859 0.7783 0.0
C26 C 0.31245 0.81985 0.77171 0.0
C27 C 0.26384 0.83569 0.78123 0.0
H28 H 0.30134 0.80599 0.75539 0.0
C29 C 0.25081 0.85926 0.77072 0.0
C30 C 0.21985 0.85505 0.76437 0.0
C31 C 0.24576 0.80825 0.78594 0.0
H32 H 0.25533 0.78991 0.79399 0.0
C33 C 0.21534 0.80404 0.78007 0.0
H34 H 0.2648 0.88045 0.76713 0.0
C35 C 0.20253 0.82702 0.76917 0.0
H36 H 0.17903 0.8224 0.76385 0.0
H37 H 0.20168 0.78267 0.78352 0.0
H38 H 0.72856 0.3852 0.86292 0.0
C39 C 0.72736 0.36472 0.87417 0.0
C40 C 0.75339 0.35711 0.88622 0.0
C41 C 0.69938 0.34689 0.87805 0.0
H42 H 0.77031 0.32471 0.91163 0.0
C43 C 0.75102 0.33049 0.90111 0.0
C44 C 0.72326 0.31239 0.90462 0.0
C45 C 0.69771 0.32058 0.89287 0.0
C46 C 0.67134 0.35676 0.86918 0.0
H47 H 0.67621 0.30663 0.8959 0.0
C48 C 0.66788 0.36754 0.84258 0.0
C49 C 0.64053 0.37548 0.83434 0.0
C50 C 0.64749 0.35491 0.88764 0.0
H51 H 0.64971 0.34724 0.90841 0.0
C52 C 0.62058 0.36311 0.87965 0.0
H53 H 0.68604 0.3689 0.82813 0.0
C54 C 0.61702 0.37321 0.85317 0.0
H55 H 0.59594 0.37969 0.84752 0.0
H56 H 0.60242 0.36166 0.89405 0.0
H57 H 0.80626 0.82074 0.30041 0.0
C58 C 0.78952 0.80649 0.31213 0.0
C59 C 0.78786 0.81049 0.3406 0.0
C60 C 0.76954 0.78408 0.29878 0.0
H61 H 0.76426 0.7955 0.37735 0.0
C62 C 0.76608 0.79185 0.35553 0.0
C63 C 0.74619 0.76912 0.34261 0.0
C64 C 0.74798 0.76553 0.31414 0.0
C65 C 0.77093 0.77962 0.26877 0.0
H66 H 0.73308 0.74779 0.30394 0.0
C67 C 0.79773 0.77562 0.25617 0.0
C68 C 0.79819 0.76816 0.22808 0.0
C69 C 0.74477 0.77752 0.2529 0.0
H70 H 0.72394 0.78068 0.26214 0.0
C71 C 0.74515 0.77102 0.22505 0.0
H72 H 0.81787 0.77748 0.26851 0.0
C73 C 0.77143 0.766 0.21278 0.0
H74 H 0.77034 0.7595 0.19144 0.0
H75 H 0.72478 0.76915 0.21304 0.0
H76 H 0.91146 0.91876 0.96481 0.0
C77 C 0.91688 0.92229 0.94337 0.0
C78 C 0.92963 0.90115 0.92862 0.0
C79 C 0.91324 0.94916 0.93128 0.0
H80 H 0.94859 0.89156 0.88981 0.0
C81 C 0.93838 0.9074 0.90122 0.0
C82 C 0.93494 0.93439 0.88877 0.0
C83 C 0.92187 0.95481 0.90405 0.0
C84 C 0.90541 0.97353 0.94819 0.0
H85 H 0.91891 0.97571 0.89506 0.0
C86 C 0.87646 0.97294 0.95865 0.0
C87 C 0.87001 0.99693 0.97444 0.0
C88 C 0.92769 0.99805 0.95359 0.0
H89 H 0.95004 0.9989 0.9457 0.0
C90 C 0.92147 0.02161 0.96926 0.0
H91 H 0.85916 0.95409 0.95446 0.0
C92 C 0.89292 0.02113 0.97958 0.0
H93 H 0.88861 0.04006 0.99123 0.0
H94 H 0.93882 0.04044 0.97327 0.0
H95 H 0.67998 0.17431 0.48731 0.0
C96 C 0.66995 0.17296 0.46703 0.0
C97 C 0.68289 0.15895 0.44571 0.0
C98 C 0.6437 0.18475 0.46277 0.0
H99 H 0.67836 0.14561 0.40329 0.0
C100 C 0.6693 0.15739 0.41958 0.0
C101 C 0.6429 0.16908 0.41483 0.0
C102 C 0.63047 0.18305 0.43659 0.0
C103 C 0.62806 0.19469 0.48674 0.0
H104 H 0.60986 0.19156 0.43348 0.0
C105 C 0.62114 0.2235 0.48872 0.0
C106 C 0.60621 0.23188 0.51201 0.0
C107 C 0.61996 0.17456 0.50811 0.0
H108 H 0.62494 0.15231 0.50699 0.0
C109 C 0.60513 0.18272 0.53097 0.0
H110 H 0.62739 0.23921 0.47238 0.0
C111 C 0.5983 0.2111 0.53296 0.0
H112 H 0.58717 0.21697 0.55119 0.0
H113 H 0.59899 0.16699 0.5473 0.0
H114 H 0.46119 0.69006 0.16509 0.0
C115 C 0.43985 0.67538 0.16391 0.0
C116 C 0.41485 0.68518 0.15227 0.0
C117 C 0.43728 0.64678 0.17473 0.0
H118 H 0.36807 0.67277 0.1422 0.0
C119 C 0.38735 0.66586 0.15176 0.0
C120 C 0.38444 0.63741 0.16302 0.0
C121 C 0.40962 0.62781 0.1742 0.0
C122 C 0.46322 0.63693 0.18768 0.0
H123 H 0.4076 0.6059 0.18304 0.0
C124 C 0.46847 0.64125 0.21585 0.0
C125 C 0.49156 0.62958 0.22913 0.0
C126 C 0.48172 0.62186 0.17227 0.0
H127 H 0.47781 0.61833 0.1505 0.0
C128 C 0.5051 0.61081 0.18502 0.0
H129 H 0.45419 0.65342 0.22729 0.0
C130 C 0.50986 0.61434 0.21323 0.0
H131 H 0.52738 0.60434 0.22258 0.0
H132 H 0.5192 0.5989 0.1731 0.0
H133 H 0.13869 0.45369 0.6966 0.0
C134 C 0.13576 0.44035 0.67815 0.0
C135 C 0.15718 0.44597 0.65733 0.0
C136 C 0.11122 0.41715 0.67551 0.0
H137 H 0.17147 0.43108 0.61843 0.0
C138 C 0.15438 0.42767 0.63399 0.0
C139 C 0.13044 0.40418 0.63113 0.0
C140 C 0.10854 0.39978 0.65151 0.0
C141 C 0.08926 0.40974 0.69817 0.0
H142 H 0.08988 0.38187 0.6491 0.0
C143 C 0.08182 0.43182 0.71573 0.0
C144 C 0.0613 0.42443 0.73711 0.0
C145 C 0.07583 0.38011 0.70272 0.0
H146 H 0.08172 0.36219 0.69065 0.0
C147 C 0.05494 0.37291 0.7234 0.0
H148 H 0.09168 0.45477 0.7128 0.0
C149 C 0.04762 0.39488 0.74047 0.0
H150 H 0.03204 0.38859 0.75695 0.0
H151 H 0.04481 0.35007 0.72655 0.0
Zn152 Zn 0.98483 0.09145 0.58612 0.0
Zn153 Zn 0.04284 0.0209 0.52866 0.0
Zn154 Zn 0.01314 0.05735 0.55568 0.0
C155 C 0.0666 0.07899 0.51239 0.0
C156 C 0.98217 0.0086 0.51248 0.0
O157 O 0.01427 0.04378 0.60005 0.0
O158 O 0.9914 0.07508 0.62277 0.0
C159 C 0.03066 0.12821 0.55792 0.0
O160 O 0.04781 0.085 0.53035 0.0
O161 O 0.06911 0.05243 0.50769 0.0
O162 O 0.00638 0.99872 0.51062 0.0
O163 O 0.98048 0.03134 0.52752 0.0
O164 O 0.00962 0.12927 0.57444 0.0
O165 O 0.03561 0.10316 0.54878 0.0
O166 O 0.96599 0.0529 0.54006 0.0
O167 O 0.94488 0.08056 0.5686 0.0
C168 C 0.94307 0.06392 0.54782 0.0
O169 O 0.03409 0.02925 0.58545 0.0
O170 O 0.05957 1.00215 0.56027 0.0
C171 C 1.00459 0.05298 0.62279 0.0
C172 C 0.05167 0.00996 0.5835 0.0
Zn173 Zn 0.49887 0.08713 0.06152 0.0
Zn174 Zn 0.54765 0.01622 0.12566 0.0
Zn175 Zn 0.52163 0.0499 0.09291 0.0
C176 C 0.59197 0.04026 0.09061 0.0
C177 C 0.5025 0.97967 0.09571 0.0
O178 O 0.49904 0.07942 0.11988 0.0
O179 O 0.47761 0.10561 0.09011 0.0
C180 C 0.56012 0.09793 0.05338 0.0
O181 O 0.5697 0.0516 0.08134 0.0
O182 O 0.58908 0.02445 0.11182 0.0
O183 O 0.52277 0.97884 0.11338 0.0
O184 O 0.49821 0.00446 0.08547 0.0
O185 O 0.53746 0.10968 0.04853 0.0
O186 O 0.55802 0.0745 0.06819 0.0
O187 O 0.48846 0.02249 0.06505 0.0
O188 O 0.47551 0.05626 0.0373 0.0
C189 C 0.47405 0.02939 0.04377 0.0
O190 O 0.51768 0.06506 0.13641 0.0
O191 O 0.53894 0.03372 0.16096 0.0
C192 C 0.48213 0.09876 0.11463 0.0
C193 C 0.52607 0.05599 0.15981 0.0
Zn194 Zn 0.55496 0.61152 0.6054 0.0
Zn195 Zn 0.46759 0.53704 0.55493 0.0
Zn196 Zn 0.51006 0.57433 0.58094 0.0
C197 C 0.50761 0.50269 0.57521 0.0
C198 C 0.49559 0.57535 0.51561 0.0
O199 O 0.48912 0.60186 0.61081 0.0
O200 O 0.52794 0.63472 0.62452 0.0
C201 C 0.5598 0.55305 0.6202 0.0
O202 O 0.52019 0.52837 0.58412 0.0
O203 O 0.48289 0.49988 0.56264 0.0
O204 O 0.47475 0.55355 0.51778 0.0
O205 O 0.51106 0.58578 0.53678 0.0
O206 O 0.57142 0.57957 0.62525 0.0
O207 O 0.53769 0.54723 0.60325 0.0
O208 O 0.53612 0.60247 0.54959 0.0
O209 O 0.57451 0.62884 0.5716 0.0
C210 C 0.56067 0.62132 0.54949 0.0
O211 O 0.46683 0.57905 0.59987 0.0
O212 O 0.43404 0.54716 0.5762 0.0
C213 C 0.50013 0.62539 0.62451 0.0
C214 C 0.43978 0.56619 0.59504 0.0
Zn215 Zn 0.08074 0.62277 0.02679 0.0
Zn216 Zn 0.99369 0.54432 0.07402 0.0
Zn217 Zn 0.03621 0.58317 0.04757 0.0
C218 C 0.04839 0.53356 0.09387 0.0
C219 C 0.98989 0.53323 0.01653 0.0
O220 O 0.02476 0.62858 0.05139 0.0
O221 O 0.06122 0.65816 0.03058 0.0
C222 C 0.10561 0.59292 0.06751 0.0
O223 O 0.05737 0.55442 0.07657 0.0
O224 O 0.02084 0.52517 0.09783 0.0
O225 O 0.97833 0.52425 0.03908 0.0
O226 O 0.01176 0.55504 0.01563 0.0
O227 O 0.11198 0.61624 0.0536 0.0
O228 O 0.0792 0.57737 0.06645 0.0
O229 O 0.03609 0.57411 1.00355 0.0
O230 O 0.07808 0.60214 0.99025 0.0
C231 C 0.0553 0.58298 0.98483 0.0
O232 O 0.0069 0.60915 0.06922 0.0
O233 O 0.97303 0.57579 0.08933 0.0
C234 C 0.03624 0.65442 0.04236 0.0
C235 C 0.98365 0.60252 0.08436 0.0
H236 H 0.2442 0.20353 0.33489 0.0
H237 H 0.21456 0.18242 0.37361 0.0
H238 H 0.14081 0.22282 0.34556 0.0
H239 H 0.16983 0.24281 0.30579 0.0
H240 H 0.19031 0.20823 0.41546 0.0
H241 H 0.09992 0.13865 0.35578 0.0
H242 H 0.13421 0.15628 0.34025 0.0
H243 H 0.10516 0.17727 0.34755 0.0
C244 C 0.22146 0.20749 0.33651 0.0
C245 C 0.20935 0.22456 0.31676 0.0
C246 C 0.20462 0.19565 0.35896 0.0
C247 C 0.17521 0.20057 0.36241 0.0
C248 C 0.16319 0.2181 0.34311 0.0
H249 H 0.04909 0.1293 0.49246 0.0
H250 H 0.07492 0.16333 0.45809 0.0
C251 C 0.17999 0.22983 0.32049 0.0
C252 C 0.15749 0.18731 0.3863 0.0
H253 H 0.09469 0.13886 0.4038 0.0
C254 C 0.16932 0.1932 0.41286 0.0
C255 C 0.13001 0.16769 0.38305 0.0
C256 C 0.11664 0.15933 0.35514 0.0
C257 C 0.15477 0.17965 0.43604 0.0
C258 C 0.12773 0.15962 0.43266 0.0
C259 C 0.11535 0.15442 0.40632 0.0
C260 C 0.11352 0.1416 0.45579 0.0
C261 C 0.16853 0.18647 0.46403 0.0
C262 C 0.12684 0.11844 0.46615 0.0
C263 C 0.11213 0.09899 0.48558 0.0
C264 C 0.0839 0.10247 0.49532 0.0
C265 C 0.07106 0.12639 0.48573 0.0
C266 C 0.08567 0.14569 0.46596 0.0
H267 H 0.18597 0.20662 0.46391 0.0
H268 H 0.15114 0.18956 0.4791 0.0
H269 H 0.179 0.16757 0.47097 0.0
H270 H 0.14816 0.1147 0.4584 0.0
H271 H 0.12248 0.08066 0.49243 0.0
H272 H 0.37793 0.83613 0.85351 0.0
H273 H 0.39952 0.86213 0.89463 0.0
H274 H 0.35581 0.93583 0.87493 0.0
H275 H 0.33456 0.91029 0.8334 0.0
H276 H 0.4369 0.91811 0.89983 0.0
H277 H 0.33 0.91562 0.95445 0.0
H278 H 0.33348 0.89237 0.92517 0.0
H279 H 0.33046 0.93059 0.92046 0.0
C280 C 0.37317 0.85804 0.85762 0.0
C281 C 0.35442 0.87104 0.83994 0.0
C282 C 0.38538 0.87279 0.88133 0.0
C283 C 0.37894 0.90074 0.88816 0.0
C284 C 0.3606 0.914 0.87044 0.0
H285 H 0.42765 0.03542 0.00997 0.0
H286 H 0.40471 1.00154 0.97428 0.0
C287 C 0.34846 0.89933 0.84665 0.0
C288 C 0.39177 0.91624 0.91354 0.0
H289 H 0.37276 0.94595 0.97381 0.0
C290 C 0.42292 0.92397 0.91614 0.0
C291 C 0.37353 0.92379 0.93487 0.0
C292 C 0.34002 0.91496 0.93383 0.0
C293 C 0.43625 0.94012 0.93891 0.0
C294 C 0.41797 0.94816 0.96007 0.0
C295 C 0.38683 0.93978 0.95771 0.0
C296 C 0.43049 0.96724 0.98365 0.0
C297 C 0.46973 0.94951 0.93947 0.0
C298 C 0.45208 0.95899 1.00156 0.0
C299 C 0.46547 0.97856 0.02202 0.0
C300 C 0.45721 0.00654 0.02523 0.0
C301 C 0.43459 0.01406 0.0081 0.0
C302 C 0.42138 0.99465 0.98766 0.0
H303 H 0.47966 0.94764 0.91896 0.0
H304 H 0.47596 0.9727 0.94674 0.0
H305 H 0.47971 0.93505 0.95375 0.0
H306 H 0.45913 0.93774 0.99929 0.0
H307 H 0.4833 0.97236 0.03431 0.0
H308 H 0.59307 0.35874 0.80005 0.0
H309 H 0.58208 0.38211 0.75708 0.0
H310 H 0.66657 0.44111 0.76281 0.0
H311 H 0.67777 0.41765 0.80585 0.0
H312 H 0.57698 0.44088 0.7557 0.0
H313 H 0.6621 0.41815 0.68151 0.0
H314 H 0.65384 0.39692 0.71247 0.0
H315 H 0.67726 0.43265 0.71382 0.0
C316 C 0.60951 0.37638 0.7919 0.0
C317 C 0.63615 0.38659 0.80638 0.0
C318 C 0.60327 0.3896 0.76731 0.0
C319 C 0.62358 0.41319 0.75666 0.0
C320 C 0.65086 0.42253 0.77037 0.0
H321 H 0.61451 0.55435 0.64399 0.0
H322 H 0.63001 0.51731 0.67439 0.0
C323 C 0.65719 0.40919 0.79499 0.0
C324 C 0.61447 0.43036 0.73335 0.0
H325 H 0.63409 0.45595 0.6693 0.0
C326 C 0.58924 0.44386 0.73666 0.0
C327 C 0.63066 0.43437 0.70867 0.0
C328 C 0.65733 0.41955 0.70371 0.0
C329 C 0.5802 0.46197 0.7163 0.0
C330 C 0.59651 0.46623 0.69167 0.0
C331 C 0.62157 0.45247 0.68816 0.0
C332 C 0.58867 0.48634 0.67017 0.0
C333 C 0.55392 0.4773 0.72179 0.0
C334 C 0.56064 0.48075 0.65712 0.0
C335 C 0.55156 0.50204 0.64008 0.0
C336 C 0.57062 0.52901 0.63534 0.0
C337 C 0.59931 0.53381 0.64729 0.0
C338 C 0.60827 0.51261 0.66451 0.0
H339 H 0.54815 0.47694 0.74386 0.0
H340 H 0.5586 0.50066 0.7149 0.0
H341 H 0.53413 0.46586 0.71026 0.0
H342 H 0.5453 0.46045 0.66104 0.0
H343 H 0.52911 0.49792 0.63175 0.0
H344 H 0.84251 0.74203 0.25184 0.0
H345 H 0.88336 0.72397 0.22935 0.0
H346 H 0.85501 0.75488 0.15167 0.0
H347 H 0.81637 0.77614 0.17441 0.0
H348 H 0.87803 0.68181 0.19731 0.0
H349 H 0.94073 0.77424 0.13919 0.0
H350 H 0.91388 0.78007 0.16475 0.0
H351 H 0.90208 0.77044 0.13 0.0
C352 C 0.8456 0.74624 0.23018 0.0
C353 C 0.82559 0.76039 0.21506 0.0
C354 C 0.86893 0.7355 0.2172 0.0
C355 C 0.87258 0.73803 0.18869 0.0
C356 C 0.85339 0.75314 0.17372 0.0
H357 H 0.92447 0.6004 0.09222 0.0
H358 H 0.90007 0.63595 0.11674 0.0
C359 C 0.83064 0.7647 0.18679 0.0
C360 C 0.8935 0.72149 0.17431 0.0
H361 H 0.94242 0.72491 0.12106 0.0
C362 C 0.89252 0.69158 0.18103 0.0
C363 C 0.91295 0.734 0.15326 0.0
C364 C 0.9177 0.76655 0.14666 0.0
C365 C 0.90921 0.67365 0.16669 0.0
C366 C 0.92631 0.68542 0.14394 0.0
C367 C 0.92865 0.71565 0.13801 0.0
C368 C 0.94098 0.66623 0.12581 0.0
C369 C 0.90828 0.64222 0.17623 0.0
C370 C 0.97184 0.67249 0.12091 0.0
C371 C 0.98577 0.65245 0.10618 0.0
C372 C 0.96902 0.62583 0.0964 0.0
C373 C 0.93797 0.6205 0.1 0.0
C374 C 0.92405 0.64072 0.11415 0.0
H375 H 0.90346 0.64007 0.19847 0.0
H376 H 0.89012 0.62749 0.16516 0.0
H377 H 0.9297 0.63444 0.17232 0.0
H378 H 0.98531 0.69225 0.12938 0.0
H379 H 0.00976 0.65708 0.1036 0.0
H380 H 0.32632 0.25559 0.24884 0.0
H381 H 0.36386 0.22937 0.22935 0.0
H382 H 0.29955 0.14872 0.22695 0.0
H383 H 0.26154 0.17499 0.24573 0.0
H384 H 0.38735 0.17882 0.24762 0.0
H385 H 0.3282 0.15897 0.1474 0.0
H386 H 0.3187 0.18491 0.17227 0.0
H387 H 0.30652 0.1459 0.17686 0.0
C388 C 0.31999 0.23234 0.24391 0.0
C389 C 0.29067 0.21756 0.24855 0.0
C390 C 0.34164 0.21728 0.23306 0.0
C391 C 0.33453 0.18711 0.22642 0.0
C392 C 0.30552 0.17208 0.23159 0.0
H393 H 0.46241 0.07631 0.16509 0.0
H394 H 0.42808 0.0965 0.19586 0.0
C395 C 0.28383 0.18712 0.2425 0.0
C396 C 0.35717 0.17185 0.21306 0.0
H397 H 0.37257 0.13961 0.15289 0.0
C398 C 0.38405 0.17002 0.22698 0.0
C399 C 0.35299 0.16056 0.18605 0.0
C400 C 0.32519 0.16282 0.1696 0.0
C401 C 0.40689 0.15749 0.21449 0.0
C402 C 0.40272 0.14648 0.18741 0.0
C403 C 0.37568 0.1479 0.17372 0.0
C404 C 0.42684 0.13582 0.17173 0.0
C405 C 0.43573 0.157 0.22986 0.0
C406 C 0.43813 0.15147 0.14841 0.0
C407 C 0.45763 0.1401 0.13102 0.0
C408 C 0.46638 0.11267 0.13639 0.0
C409 C 0.45644 0.09766 0.16058 0.0
C410 C 0.43671 0.10913 0.17811 0.0
H411 H 0.43698 0.16977 0.24931 0.0
H412 H 0.43768 0.13379 0.23475 0.0
H413 H 0.45509 0.1662 0.21696 0.0
H414 H 0.43098 0.17212 0.14311 0.0
H415 H 0.46497 0.15236 0.11268 0.0
H416 H 0.16307 0.86649 0.77234 0.0
H417 H 0.13611 0.89748 0.74485 0.0
H418 H 0.21687 0.93114 0.70134 0.0
H419 H 0.24345 0.89782 0.727 0.0
H420 H 0.13567 0.95169 0.7351 0.0
H421 H 0.16624 0.90245 0.63783 0.0
H422 H 0.1756 0.8887 0.67068 0.0
H423 H 0.19816 0.9211 0.65635 0.0
C424 C 0.17517 0.88013 0.75668 0.0
C425 C 0.20533 0.87865 0.75134 0.0
C426 C 0.15969 0.89826 0.74114 0.0
C427 C 0.17402 0.91601 0.72017 0.0
C428 C 0.20485 0.91678 0.71654 0.0
H429 H 0.07773 0.03847 0.62925 0.0
H430 H 0.10715 0.01761 0.66431 0.0
C431 C 0.22025 0.89803 0.73167 0.0
C432 C 0.15612 0.93228 0.70153 0.0
H433 H 0.1386 0.94122 0.63421 0.0
C434 C 0.13632 0.94935 0.71302 0.0
C435 C 0.15642 0.92897 0.67265 0.0
C436 C 0.17499 0.90909 0.65865 0.0
C437 C 0.11663 0.96264 0.69664 0.0
C438 C 0.11753 0.95994 0.66777 0.0
C439 C 0.1378 0.94345 0.6563 0.0
C440 C 0.09699 0.97266 0.64881 0.0
C441 C 0.09426 0.97832 0.71058 0.0
C442 C 0.08124 0.95459 0.6284 0.0
C443 C 0.06517 0.96664 0.60807 0.0
C444 C 0.06385 0.99697 0.60794 0.0
C445 C 0.07805 0.01492 0.62917 0.0
C446 C 0.0948 1.00294 0.64926 0.0
H447 H 0.09017 0.97061 0.73198 0.0
H448 H 0.10313 1.00238 0.71133 0.0
H449 H 0.07259 0.97491 0.69934 0.0
H450 H 0.08224 0.93118 0.62758 0.0
H451 H 0.05447 0.95234 0.59189 0.0
H452 H 0.81092 0.34536 0.88487 0.0
H453 H 0.85667 0.37952 0.89663 0.0
H454 H 0.80724 0.45175 0.89874 0.0
H455 H 0.76123 0.41777 0.88912 0.0
H456 H 0.89033 0.43343 0.87819 0.0
H457 H 0.83542 0.4462 0.97765 0.0
H458 H 0.82012 0.41857 0.95277 0.0
H459 H 0.81481 0.45631 0.94871 0.0
C460 C 0.80974 0.36854 0.88771 0.0
C461 C 0.78207 0.37852 0.88672 0.0
C462 C 0.83603 0.3881 0.89408 0.0
C463 C 0.83518 0.41801 0.89921 0.0
C464 C 0.80825 0.4286 0.89538 0.0
H465 H 0.95069 0.5565 0.98546 0.0
H466 H 0.91693 0.53064 0.9505 0.0
C467 C 0.78191 0.40905 0.88954 0.0
C468 C 0.86116 0.43719 0.91212 0.0
H469 H 0.88215 0.4761 0.9707 0.0
C470 C 0.88861 0.44285 0.89837 0.0
C471 C 0.85897 0.44901 0.93869 0.0
C472 C 0.83087 0.44201 0.95546 0.0
C473 C 0.91375 0.46062 0.9104 0.0
C474 C 0.91116 0.47283 0.93667 0.0
C475 C 0.88383 0.46702 0.95035 0.0
C476 C 0.93648 0.49082 0.9514 0.0
C477 C 0.94281 0.46648 0.89506 0.0
C478 C 0.95915 0.47724 0.96286 0.0
C479 C 0.97839 0.492 0.98287 0.0
C480 C 0.97526 0.52052 0.99135 0.0
C481 C 0.95375 0.53469 0.97875 0.0
C482 C 0.93458 0.51999 0.95881 0.0
H483 H 0.93991 0.45967 0.87322 0.0
H484 H 0.95267 0.49032 0.89614 0.0
H485 H 0.95895 0.45393 0.90476 0.0
H486 H 0.96051 0.45449 0.95788 0.0
H487 H 0.99448 0.48055 0.99284 0.0
H488 H 0.6876 0.74719 0.32938 0.0
H489 H 0.6505 0.71645 0.35781 0.0
H490 H 0.7166 0.71647 0.42173 0.0
H491 H 0.75404 0.74573 0.39304 0.0
H492 H 0.68276 0.66237 0.4149 0.0
H493 H 0.61019 0.74824 0.42229 0.0
H494 H 0.61658 0.73601 0.38823 0.0
H495 H 0.64713 0.75588 0.40797 0.0
C496 C 0.69434 0.74028 0.34933 0.0
C497 C 0.72374 0.74929 0.35906 0.0
C498 C 0.673 0.723 0.36568 0.0
C499 C 0.68061 0.71468 0.39212 0.0
C500 C 0.71014 0.72281 0.40147 0.0
H501 H 0.58862 0.67745 0.54076 0.0
H502 H 0.61429 0.69749 0.49937 0.0
C503 C 0.73147 0.73983 0.38513 0.0
C504 C 0.65801 0.69816 0.41065 0.0
H505 H 0.59567 0.70455 0.44719 0.0
C506 C 0.6635 0.67138 0.42176 0.0
C507 C 0.63299 0.71009 0.41964 0.0
C508 C 0.62637 0.73923 0.40913 0.0
C509 C 0.64545 0.65683 0.44245 0.0
C510 C 0.62077 0.66907 0.45182 0.0
C511 C 0.61457 0.69521 0.43991 0.0
C512 C 0.60313 0.65697 0.4759 0.0
C513 C 0.65403 0.62945 0.45513 0.0
C514 C 0.58794 0.62764 0.47636 0.0
C515 C 0.57362 0.61606 0.50019 0.0
C516 C 0.57359 0.63384 0.52362 0.0
C517 C 0.58813 0.66335 0.52287 0.0
C518 C 0.60266 0.67483 0.49921 0.0
H519 H 0.67714 0.62676 0.44976 0.0
H520 H 0.65235 0.63011 0.47779 0.0
H521 H 0.63861 0.60968 0.44752 0.0
H522 H 0.58767 0.61352 0.45853 0.0
H523 H 0.56355 0.59295 0.50063 0.0
H524 H 0.17103 0.34762 0.2375 0.0
H525 H 0.13866 0.37651 0.21245 0.0
H526 H 0.21479 0.42051 0.16775 0.0
H527 H 0.24698 0.39192 0.19256 0.0
H528 H 0.18279 0.45971 0.19124 0.0
H529 H 0.10726 0.37283 0.13326 0.0
H530 H 0.10944 0.36645 0.16946 0.0
H531 H 0.14184 0.36638 0.14867 0.0
C532 C 0.18068 0.36298 0.22189 0.0
C533 C 0.21162 0.36761 0.2172 0.0
C534 C 0.16218 0.37952 0.20758 0.0
C535 C 0.17425 0.40075 0.18813 0.0
C536 C 0.20492 0.40445 0.18271 0.0
H537 H 0.08263 0.49756 0.07043 0.0
H538 H 0.11389 0.46618 0.09356 0.0
C539 C 0.22332 0.38806 0.19696 0.0
C540 C 0.15566 0.42056 0.17456 0.0
H541 H 0.09591 0.42137 0.13161 0.0
C542 C 0.16377 0.45128 0.17823 0.0
C543 C 0.13102 0.40968 0.15732 0.0
C544 C 0.12193 0.37706 0.15167 0.0
C545 C 0.14794 0.47133 0.16532 0.0
C546 C 0.12297 0.46047 0.14848 0.0
C547 C 0.11494 0.42975 0.14464 0.0
C548 C 0.1051 0.48061 0.13446 0.0
C549 C 0.15854 0.50403 0.16934 0.0
C550 C 0.08976 0.49928 0.14965 0.0
C551 C 0.0721 0.51734 0.13641 0.0
C552 C 0.06971 0.51733 0.10772 0.0
C553 C 0.08489 0.49862 0.09253 0.0
C554 C 0.10249 0.48049 0.10575 0.0
H555 H 0.18206 0.5088 0.17674 0.0
H556 H 0.1567 0.51625 0.14999 0.0
H557 H 0.14441 0.51253 0.18486 0.0
H558 H 0.09085 0.49935 0.17182 0.0
H559 H 0.05992 0.531 0.14858 0.0
H560 H 0.74991 0.26328 0.9005 0.0
H561 H 0.73833 0.2176 0.92778 0.0
H562 H 0.67753 0.258 0.97666 0.0
H563 H 0.68871 0.30315 0.9495 0.0
H564 H 0.72031 0.22009 1.00534 0.0
H565 H 0.64839 0.1683 0.91909 0.0
H566 H 0.68597 0.18695 0.91295 0.0
H567 H 0.65768 0.20803 0.92196 0.0
C568 C 0.73454 0.26242 0.91743 0.0
C569 C 0.71991 0.28641 0.92284 0.0
C570 C 0.72797 0.23646 0.93291 0.0
C571 C 0.70707 0.23457 0.95412 0.0
C572 C 0.6938 0.25915 0.96042 0.0
H573 H 0.58804 0.1533 0.06425 0.0
H574 H 0.63192 0.18043 0.04156 0.0
C575 C 0.70005 0.28479 0.94485 0.0
C576 C 0.69608 0.2064 0.96813 0.0
H577 H 0.63958 0.14752 0.9626 0.0
C578 C 0.70327 0.20364 0.99588 0.0
C579 C 0.67415 0.18489 0.95561 0.0
C580 C 0.66591 0.18694 0.92575 0.0
C581 C 0.68743 0.18104 0.01196 0.0
C582 C 0.66324 0.16145 1.00011 0.0
C583 C 0.65798 0.16263 0.97178 0.0
C584 C 0.64015 0.14324 0.01703 0.0
C585 C 0.696 0.17916 0.04173 0.0
C586 C 0.62973 0.11337 0.01058 0.0
C587 C 0.60421 0.09805 0.02325 0.0
C588 C 0.58905 0.11227 0.0427 0.0
C589 C 0.59984 0.14179 0.04967 0.0
C590 C 0.62513 0.15716 0.03694 0.0
H591 H 0.72046 0.18606 0.04465 0.0
H592 H 0.68481 0.19452 0.05387 0.0
H593 H 0.68938 0.15643 0.04985 0.0
H594 H 0.64051 0.10236 0.99486 0.0
H595 H 0.59531 0.07578 0.01664 0.0
H596 H 0.81901 0.80505 0.38759 0.0
H597 H 0.85006 0.84419 0.41396 0.0
H598 H 0.83481 0.90821 0.35324 0.0
H599 H 0.80329 0.86897 0.32671 0.0
H600 H 0.90275 0.88451 0.39471 0.0
H601 H 0.81048 0.9416 0.42897 0.0
H602 H 0.80371 0.90381 0.41682 0.0
H603 H 0.81295 0.93358 0.39302 0.0
C604 C 0.82224 0.82747 0.37984 0.0
C605 C 0.80859 0.83402 0.35519 0.0
C606 C 0.84001 0.84976 0.39489 0.0
C607 C 0.84433 0.87909 0.38572 0.0
C608 C 0.83136 0.88572 0.3608 0.0
H609 H 0.9512 0.03046 0.4715 0.0
H610 H 0.91521 1.0015 0.43975 0.0
C611 C 0.81366 0.8633 0.34557 0.0
C612 C 0.86279 0.90238 0.40242 0.0
H613 H 0.85868 0.95964 0.44634 0.0
C614 C 0.8932 0.90113 0.40578 0.0
C615 C 0.85022 0.92409 0.4167 0.0
C616 C 0.81752 0.92597 0.41394 0.0
C617 C 0.9113 0.92057 0.42358 0.0
C618 C 0.89847 0.94138 0.43888 0.0
C619 C 0.86832 0.94349 0.43472 0.0
C620 C 0.91595 0.95986 0.46025 0.0
C621 C 0.944 0.91846 0.42608 0.0
C622 C 0.92708 0.94623 0.48287 0.0
C623 C 0.94727 0.96272 0.50099 0.0
C624 C 0.95621 0.99318 0.49708 0.0
C625 C 0.94375 0.0072 0.47542 0.0
C626 C 0.92355 0.99063 0.45714 0.0
H627 H 0.9519 0.90744 0.40793 0.0
H628 H 0.95787 0.9407 0.42851 0.0
H629 H 0.94751 0.90518 0.44442 0.0
H630 H 0.92117 0.92257 0.4858 0.0
H631 H 0.95689 0.95146 0.51742 0.0
H632 H 0.32204 0.76028 0.76678 0.0
H633 H 0.34758 0.72559 0.74203 0.0
H634 H 0.42362 0.79462 0.73068 0.0
H635 H 0.39843 0.82917 0.75618 0.0
H636 H 0.36595 0.72448 0.69126 0.0
H637 H 0.46492 0.73081 0.75911 0.0
H638 H 0.43275 0.74671 0.76849 0.0
H639 H 0.46077 0.7665 0.74638 0.0
C640 C 0.34426 0.76805 0.75906 0.0
C641 C 0.35826 0.79748 0.76352 0.0
C642 C 0.35887 0.74816 0.74493 0.0
C643 C 0.38782 0.75719 0.73481 0.0
C644 C 0.4017 0.78673 0.73895 0.0
H645 H 0.50871 0.68505 0.62977 0.0
H646 H 0.47977 0.71513 0.6565 0.0
C647 C 0.38723 0.80656 0.75342 0.0
C648 C 0.40302 0.73594 0.7193 0.0
H649 H 0.46806 0.70803 0.71537 0.0
C650 C 0.38815 0.72069 0.69674 0.0
C651 C 0.43193 0.73062 0.72649 0.0
C652 C 0.44838 0.74428 0.75161 0.0
C653 C 0.40175 0.70118 0.68076 0.0
C654 C 0.43101 0.69682 0.68741 0.0
C655 C 0.44568 0.71158 0.71018 0.0
C656 C 0.44743 0.67812 0.67031 0.0
C657 C 0.38511 0.68598 0.65639 0.0
C658 C 0.43897 0.6472 0.66923 0.0
C659 C 0.45574 0.6299 0.65405 0.0
C660 C 0.48095 0.64315 0.63948 0.0
C661 C 0.48924 0.67411 0.64061 0.0
C662 C 0.47271 0.69136 0.65586 0.0
H663 H 0.36442 0.69492 0.65164 0.0
H664 H 0.39959 0.68838 0.63805 0.0
H665 H 0.37885 0.662 0.6607 0.0
H666 H 0.41994 0.63641 0.68073 0.0
H667 H 0.44993 0.6062 0.65474 0.0
H668 H 0.9613 0.98879 0.86963 0.0
H669 H 0.97728 1.00252 0.82343 0.0
H670 H 0.95401 0.91152 0.79767 0.0
H671 H 0.93555 0.89785 0.84359 0.0
H672 H 0.01926 0.9896 0.79259 0.0
H673 H 0.91157 0.94873 0.73954 0.0
H674 H 0.91486 0.95036 0.77633 0.0
H675 H 0.9265 0.92048 0.75764 0.0
C676 C 0.95879 0.97165 0.85411 0.0
C677 C 0.94633 0.94222 0.86049 0.0
C678 C 0.96842 0.97955 0.82762 0.0
C679 C 0.96635 0.95826 0.80667 0.0
C680 C 0.95507 0.92862 0.81312 0.0
H681 H 1.00376 0.99355 0.63122 0.0
H682 H 0.99928 0.96746 0.67533 0.0
C683 C 0.94492 0.92072 0.83963 0.0
C684 C 0.97614 0.96756 0.77835 0.0
H685 H 0.95196 0.96913 0.71186 0.0
C686 C 1.00452 0.9849 0.77496 0.0
C687 C 0.95709 0.96154 0.75512 0.0
C688 C 0.92572 0.94451 0.75728 0.0
C689 C 0.01396 0.99703 0.74944 0.0
C690 C 0.99467 0.99152 0.72641 0.0
C691 C 0.96687 0.97314 0.72944 0.0
C692 C 1.00136 0.00713 0.69986 0.0
C693 C 0.04425 0.01633 0.74772 0.0
C694 C 1.00453 0.03806 0.69894 0.0
C695 C 0.00723 0.05291 0.6739 0.0
C696 C 0.00685 0.03723 0.64908 0.0
C697 C 1.00476 0.00631 0.64998 0.0
C698 C 1.0019 0.99137 0.67517 0.0
H699 H 0.0604 0.00844 0.76194 0.0
H700 H 0.05335 0.01711 0.72669 0.0
H701 H 0.04225 0.03917 0.75398 0.0
H702 H 1.0037 0.05071 0.71759 0.0
H703 H 0.00862 0.07672 0.67392 0.0
H704 H 0.58288 0.15195 0.40497 0.0
H705 H 0.55779 0.13902 0.36097 0.0
H706 H 0.64179 0.16211 0.31946 0.0
H707 H 0.6671 0.17502 0.36341 0.0
H708 H 0.55273 0.1687 0.31047 0.0
H709 H 0.61472 0.075 0.29936 0.0
H710 H 0.61425 0.09518 0.33104 0.0
H711 H 0.63818 0.11038 0.30362 0.0
C712 C 0.59597 0.15484 0.38645 0.0
C713 C 0.62711 0.1643 0.3878 0.0
C714 C 0.58156 0.14737 0.36128 0.0
C715 C 0.59793 0.14915 0.33692 0.0
C716 C 0.62875 0.16002 0.33803 0.0
H717 H 0.53624 0.11613 0.1675 0.0
H718 H 0.54952 0.1416 0.21135 0.0
C719 C 0.64321 0.16736 0.36318 0.0
C720 C 0.58325 0.13754 0.31076 0.0
H721 H 0.58437 0.08422 0.26209 0.0
C722 C 0.55961 0.15024 0.29984 0.0
C723 C 0.59192 0.11316 0.2971 0.0
C724 C 0.61595 0.09741 0.30844 0.0
C725 C 0.54469 0.13935 0.27548 0.0
C726 C 0.55382 0.11533 0.26162 0.0
C727 C 0.57738 0.10269 0.27265 0.0
C728 C 0.53921 0.10205 0.23599 0.0
C729 C 0.51891 0.15315 0.26507 0.0
C730 C 0.52787 0.07164 0.23527 0.0
C731 C 0.52062 0.05714 0.21034 0.0
C732 C 0.52432 0.07273 0.18553 0.0
C733 C 0.53287 0.10364 0.18634 0.0
C734 C 0.54051 0.1182 0.21142 0.0
H735 H 0.51019 0.16647 0.28116 0.0
H736 H 0.52653 0.16799 0.24769 0.0
H737 H 0.50043 0.13594 0.25753 0.0
H738 H 0.5265 0.05871 0.2539 0.0
H739 H 0.51406 0.0333 0.21034 0.0
H740 H 0.5435 0.63368 0.25979 0.0
H741 H 0.54815 0.62993 0.30943 0.0
H742 H 0.45371 0.62956 0.3175 0.0
H743 H 0.44817 0.63022 0.26809 0.0
H744 H 0.53775 0.66069 0.35377 0.0
H745 H 0.4609 0.55323 0.35329 0.0
H746 H 0.47459 0.57146 0.32217 0.0
H747 H 0.44339 0.5823 0.3397 0.0
C748 C 0.52357 0.63237 0.272 0.0
C749 C 0.49534 0.63158 0.25956 0.0
C750 C 0.52639 0.63069 0.30049 0.0
C751 C 0.50114 0.62864 0.31715 0.0
C752 C 0.47338 0.63022 0.30501 0.0
H753 H 0.49792 0.6318 0.49663 0.0
H754 H 0.50301 0.64764 0.44852 0.0
C755 C 0.47038 0.63112 0.27657 0.0
C756 C 0.50337 0.62279 0.34692 0.0
H757 H 0.47407 0.57477 0.39667 0.0
C758 C 0.52395 0.64183 0.3632 0.0
C759 C 0.48582 0.59782 0.35911 0.0
C760 C 0.4652 0.57488 0.34261 0.0
C761 C 0.52719 0.63672 0.39139 0.0
C762 C 0.50871 0.61242 0.40369 0.0
C763 C 0.48819 0.59349 0.38733 0.0
C764 C 0.51043 0.6051 0.43323 0.0
C765 C 0.55091 0.65679 0.40747 0.0
C766 C 0.51306 0.57611 0.4407 0.0
C767 C 0.50911 0.56693 0.46777 0.0
C768 C 0.50328 0.58674 0.48806 0.0
C769 C 0.50251 0.61627 0.48116 0.0
C770 C 0.50572 0.62534 0.45377 0.0
H771 H 0.56853 0.66855 0.39391 0.0
H772 H 0.54058 0.67369 0.41837 0.0
H773 H 0.56155 0.64414 0.4229 0.0
H774 H 0.51685 0.56013 0.42532 0.0
H775 H 0.50998 0.54409 0.47278 0.0
H776 H 0.10256 0.4642 0.76433 0.0
H777 H 0.09402 0.49567 0.80291 0.0
H778 H 0.99894 0.46704 0.79416 0.0
H779 H 0.00749 0.4348 0.75597 0.0
H780 H 0.06375 0.54094 0.81039 0.0
H781 H 0.01198 0.44417 0.87218 0.0
H782 H 0.0301 0.43997 0.84006 0.0
H783 H 0.99315 0.44913 0.84054 0.0
C784 C 0.07982 0.46501 0.77034 0.0
C785 C 0.0557 0.44688 0.75738 0.0
C786 C 0.07495 0.48291 0.79244 0.0
C787 C 0.04587 0.48314 0.80186 0.0
C788 C 0.0216 0.46653 0.78778 0.0
H789 H 1.00336 0.56559 0.95653 0.0
H790 H 0.99702 0.54264 0.91088 0.0
C791 C 0.02649 0.4483 0.76588 0.0
C792 C 0.04148 0.49975 0.82718 0.0
H793 H 0.01804 0.49072 0.89341 0.0
C794 C 0.05353 0.53 0.82846 0.0
C795 C 0.02789 0.48549 0.85073 0.0
C796 C 0.01524 0.45287 0.85101 0.0
C797 C 0.05334 0.54612 0.85288 0.0
C798 C 0.04106 0.53152 0.87667 0.0
C799 C 0.02756 0.50174 0.87509 0.0
C800 C 0.04443 0.54595 0.90389 0.0
C801 C 0.06671 0.57854 0.85313 0.0
C802 C 0.07305 0.55494 0.91515 0.0
C803 C 0.07653 0.56722 0.94139 0.0
C804 C 0.05142 0.57046 0.95693 0.0
C805 C 0.02284 0.56194 0.94545 0.0
C806 C 0.0193 0.54942 0.91924 0.0
H807 H 0.06677 0.58824 0.83229 0.0
H808 H 0.0543 0.59117 0.86707 0.0
H809 H 0.0902 0.58119 0.86046 0.0
H810 H 0.09272 0.55195 0.90382 0.0
H811 H 0.09886 0.57367 0.94974 0.0
H812 H 0.81607 0.98357 0.94736 0.0
H813 H 0.76716 0.99224 0.96352 0.0
H814 H 0.80654 0.02136 0.04163 0.0
H815 H 0.85517 0.0128 0.02571 0.0
H816 H 0.73172 0.97083 0.00891 0.0
H817 H 0.76884 0.092 0.01659 0.0
H818 H 0.78983 0.0681 0.99847 0.0
H819 H 0.79244 0.07118 0.03518 0.0
C820 C 0.81415 0.99136 0.96812 0.0
C821 C 0.83957 0.99786 0.98514 0.0
C822 C 0.78626 0.99649 0.97726 0.0
C823 C 0.78337 0.00824 1.00353 0.0
C824 C 0.80838 0.01313 0.02102 0.0
H825 H 0.64883 0.05278 0.11046 0.0
H826 H 0.69468 0.04664 0.08656 0.0
C827 C 0.83615 0.00809 0.01192 0.0
C828 C 0.75444 0.01576 0.0128 0.0
H829 H 0.72267 0.07261 0.03805 0.0
C830 C 0.72959 0.99313 0.01496 0.0
C831 C 0.75166 0.04493 0.0206 0.0
C832 C 0.77701 0.07052 0.01736 0.0
C833 C 0.70248 0.99861 0.02587 0.0
C834 C 0.70001 0.02762 0.03442 0.0
C835 C 0.72461 0.05039 0.03157 0.0
C836 C 0.67262 0.03438 0.04775 0.0
C837 C 0.67708 0.97308 0.02919 0.0
C838 C 0.64515 0.03048 0.03366 0.0
C839 C 0.619 0.03412 0.04729 0.0
C840 C 0.61997 0.04221 0.07507 0.0
C841 C 0.64761 0.0471 0.08888 0.0
C842 C 0.67374 0.0435 0.07528 0.0
H843 H 0.68454 0.95137 0.02693 0.0
H844 H 0.66655 0.97392 0.04955 0.0
H845 H 0.6598 0.97451 0.01328 0.0
H846 H 0.64377 0.02371 0.01236 0.0
H847 H 0.59781 0.02909 0.03651 0.0
H848 H 0.69417 0.12712 0.49097 0.0
H849 H 0.73843 0.10548 0.50132 0.0
H850 H 0.77563 0.13452 0.42312 0.0
H851 H 0.73181 0.15743 0.41303 0.0
H852 H 0.76318 0.06227 0.47559 0.0
H853 H 0.84263 0.1687 0.47534 0.0
H854 H 0.8027 0.16711 0.47528 0.0
H855 H 0.82149 0.16041 0.44423 0.0
C856 C 0.7119 0.12934 0.47606 0.0
C857 C 0.70953 0.14457 0.45133 0.0
C858 C 0.73712 0.11662 0.48192 0.0
C859 C 0.76068 0.11873 0.46324 0.0
C860 C 0.75807 0.1331 0.43814 0.0
H861 H 0.93825 0.07273 0.49298 0.0
H862 H 0.89329 0.08087 0.4679 0.0
C863 C 0.73282 0.14595 0.43227 0.0
C864 C 0.78798 0.10625 0.4705 0.0
H865 H 0.86273 0.12563 0.4839 0.0
C866 C 0.78498 0.0761 0.47721 0.0
C867 C 0.81653 0.12421 0.47256 0.0
C868 C 0.82115 0.15695 0.46672 0.0
C869 C 0.80955 0.06361 0.48634 0.0
C870 C 0.83785 0.08177 0.48919 0.0
C871 C 0.84107 0.11165 0.48159 0.0
C872 C 0.86375 0.07118 0.50244 0.0
C873 C 0.80495 0.03109 0.49302 0.0
C874 C 0.86204 0.06223 0.52996 0.0
C875 C 0.88762 0.05731 0.54415 0.0
C876 C 0.91543 0.06098 0.53108 0.0
C877 C 0.9169 0.06846 0.50319 0.0
C878 C 0.8913 0.07359 0.489 0.0
H879 H 0.78525 0.01871 0.48195 0.0
H880 H 0.82493 0.02132 0.48776 0.0
H881 H 0.80094 0.02816 0.51531 0.0
H882 H 0.84129 0.06087 0.54101 0.0
H883 H 0.886 0.05225 0.5658 0.0
H884 H 0.33226 0.65225 0.17979 0.0
H885 H 0.28219 0.62467 0.17246 0.0
H886 H 0.31913 0.5517 0.139 0.0
H887 H 0.36973 0.57983 0.14584 0.0
H888 H 0.28099 0.57026 0.10436 0.0
H889 H 0.22613 0.55674 0.20429 0.0
H890 H 0.24445 0.59432 0.2012 0.0
H891 H 0.26629 0.56492 0.20123 0.0
C892 C 0.32972 0.63007 0.17141 0.0
C893 C 0.35476 0.61827 0.16307 0.0
C894 C 0.30108 0.6141 0.1676 0.0
C895 C 0.29684 0.58587 0.15558 0.0
C896 C 0.32191 0.5733 0.14862 0.0
H897 H 0.12547 0.54036 0.06657 0.0
H898 H 0.16859 0.52749 0.09173 0.0
C899 C 0.35074 0.58933 0.15252 0.0
C900 C 0.26647 0.57252 0.14606 0.0
H901 H 0.19381 0.56677 0.16534 0.0
C902 C 0.26185 0.56826 0.11777 0.0
C903 C 0.24154 0.56969 0.16357 0.0
C904 C 0.24496 0.57135 0.19429 0.0
C905 C 0.23309 0.56475 0.10625 0.0
C906 C 0.2084 0.56523 0.12359 0.0
C907 C 0.2128 0.56659 0.15207 0.0
C908 C 0.17922 0.56982 0.11237 0.0
C909 C 0.22967 0.56345 0.07546 0.0
C910 C 0.17024 0.59726 0.11662 0.0
C911 C 0.14543 0.60426 0.10278 0.0
C912 C 0.12901 0.58379 0.08474 0.0
C913 C 0.13722 0.55592 0.08124 0.0
C914 C 0.16206 0.54881 0.0952 0.0
H915 H 0.25153 0.56663 0.0649 0.0
H916 H 0.21695 0.54158 0.06931 0.0
H917 H 0.217 0.58068 0.06822 0.0
H918 H 0.18332 0.61384 0.12964 0.0
H919 H 0.13957 0.626 0.10553 0.0
H920 H 0.18167 0.48618 0.61929 0.0
H921 H 0.23035 0.51844 0.62172 0.0
H922 H 0.24187 0.491 0.70495 0.0
H923 H 0.1934 0.45815 0.70251 0.0
H924 H 0.26004 0.56526 0.66009 0.0
H925 H 0.30854 0.46144 0.65925 0.0
H926 H 0.26993 0.46169 0.65055 0.0
H927 H 0.28214 0.46548 0.68562 0.0
C928 C 0.19439 0.48735 0.63825 0.0
C929 C 0.18393 0.46932 0.66056 0.0
C930 C 0.22204 0.50597 0.63968 0.0
C931 C 0.23976 0.50685 0.66342 0.0
C932 C 0.22853 0.49049 0.68642 0.0
H933 H 0.43219 0.55116 0.64834 0.0
H934 H 0.3849 0.5444 0.67315 0.0
C935 C 0.20079 0.47184 0.68501 0.0
C936 C 0.27133 0.5216 0.66247 0.0
H937 H 0.34132 0.50584 0.65425 0.0
C938 C 0.27798 0.55242 0.6593 0.0
C939 C 0.29463 0.50477 0.66157 0.0
C940 C 0.28865 0.4715 0.66426 0.0
C941 C 0.30732 0.56674 0.6543 0.0
C942 C 0.33032 0.54964 0.65171 0.0
C943 C 0.32379 0.51903 0.65635 0.0
C944 C 0.36023 0.5618 0.64065 0.0
C945 C 0.31326 0.59993 0.65144 0.0
C946 C 0.36248 0.57501 0.61464 0.0
C947 C 0.38962 0.5794 0.60077 0.0
C948 C 0.41492 0.57066 0.61265 0.0
C949 C 0.41316 0.55898 0.63921 0.0
C950 C 0.38612 0.55494 0.65326 0.0
H951 H 0.29774 0.61023 0.6643 0.0
H952 H 0.33657 0.60947 0.6573 0.0
H953 H 0.3094 0.60581 0.62982 0.0
H954 H 0.34277 0.57961 0.60402 0.0
H955 H 0.39029 0.58754 0.57993 0.0
H956 H 0.97831 0.87324 0.92285 0.0
H957 H 0.98894 0.82943 0.94667 0.0
H958 H 0.90663 0.82342 0.99103 0.0
H959 H 0.89515 0.86677 0.96662 0.0
H960 H 0.96055 0.81959 0.02421 0.0
H961 H 0.94504 0.74198 0.93584 0.0
H962 H 0.96836 0.77696 0.9293 0.0
H963 H 0.92948 0.7757 0.93652 0.0
C964 C 0.96205 0.86235 0.9372 0.0
C965 C 0.93569 0.87363 0.94254 0.0
C966 C 0.96831 0.83734 0.95097 0.0
C967 C 0.9485 0.82301 0.9705 0.0
C968 C 0.92224 0.83413 0.97604 0.0
H969 H 0.97571 0.65134 0.03703 0.0
H970 H 0.94959 0.69199 0.02401 0.0
C971 C 0.9158 0.85903 0.9621 0.0
C972 C 0.95566 0.79678 0.98542 0.0
H973 H 0.96931 0.72658 0.97535 0.0
C974 C 0.96213 0.79912 0.01362 0.0
C975 C 0.95733 0.76993 0.9717 0.0
C976 C 0.94945 0.76574 0.94172 0.0
C977 C 0.97164 0.77582 0.0281 0.0
C978 C 0.97479 0.74957 0.01403 0.0
C979 C 0.96694 0.74673 0.98615 0.0
C980 C 0.98885 0.72592 0.02697 0.0
C981 C 0.97868 0.77953 0.05827 0.0
C982 C 0.01935 0.73161 0.03374 0.0
C983 C 0.03429 0.70847 0.04099 0.0
C984 C 0.01901 0.67914 0.04185 0.0
C985 C 0.98801 0.67373 0.03695 0.0
C986 C 0.97311 0.69691 0.0293 0.0
H987 H 0.96813 0.79734 0.06747 0.0
H988 H 0.97102 0.75858 0.06943 0.0
H989 H 1.00321 0.78549 0.06117 0.0
H990 H 0.03205 0.75371 0.03177 0.0
H991 H 0.0582 0.71332 0.04449 0.0
H992 H 0.46086 0.717 0.12323 0.0
H993 H 0.46457 0.76737 0.10576 0.0
H994 H 0.37676 0.77174 0.13652 0.0
H995 H 0.3736 0.72228 0.15558 0.0
H996 H 0.43029 0.79229 0.06857 0.0
H997 H 0.42598 0.84367 0.17149 0.0
H998 H 0.43089 0.80579 0.16711 0.0
H999 H 0.39452 0.81578 0.16306 0.0
C1000 C 0.44251 0.72881 0.12665 0.0
C1001 C 0.41704 0.71558 0.14101 0.0
C1002 C 0.4445 0.75746 0.11634 0.0
C1003 C 0.42107 0.77341 0.12011 0.0
C1004 C 0.39531 0.76004 0.13377 0.0
H1005 H 0.44168 0.9649 0.09493 0.0
H1006 H 0.41338 0.91411 0.09365 0.0
C1007 C 0.39343 0.73156 0.14438 0.0
C1008 C 0.42425 0.80441 0.11057 0.0
H1009 H 0.43097 0.87544 0.13377 0.0
C1010 C 0.43007 0.81047 0.08276 0.0
C1011 C 0.42368 0.82811 0.12908 0.0
C1012 C 0.41868 0.82316 0.15938 0.0
C1013 C 0.43669 0.83967 0.07321 0.0
C1014 C 0.43759 0.86327 0.09197 0.0
C1015 C 0.42993 0.85722 0.11939 0.0
C1016 C 0.45198 0.89373 0.08526 0.0
C1017 C 0.44372 0.84507 0.04335 0.0
C1018 C 0.48272 0.89899 0.08014 0.0
C1019 C 0.49877 0.92763 0.08137 0.0
C1020 C 0.4843 0.9515 0.08738 0.0
C1021 C 0.45314 0.94671 0.09005 0.0
C1022 C 0.43705 0.91782 0.08934 0.0
H1023 H 0.43262 0.82638 0.03042 0.0
H1024 H 0.43669 0.86582 0.03618 0.0
H1025 H 0.46818 0.84714 0.04045 0.0
H1026 H 0.49478 0.88075 0.0775 0.0
H1027 H 0.52283 0.93093 0.07931 0.0
H1028 H 0.08221 0.37723 0.60093 0.0
H1029 H 0.07936 0.33267 0.57298 0.0
H1030 H 0.17448 0.33674 0.58168 0.0
H1031 H 0.1773 0.3804 0.61095 0.0
H1032 H 0.10538 0.31328 0.52595 0.0
H1033 H 0.14124 0.26016 0.62043 0.0
H1034 H 0.13169 0.29669 0.62102 0.0
H1035 H 0.16672 0.29093 0.60706 0.0
C1036 C 0.10259 0.36885 0.59668 0.0
C1037 C 0.12984 0.38196 0.60878 0.0
C1038 C 0.10099 0.34353 0.58045 0.0
C1039 C 0.1266 0.33098 0.57583 0.0
C1040 C 0.15434 0.34572 0.58549 0.0
H1041 H 0.09105 0.13942 0.54907 0.0
H1042 H 0.12223 0.18839 0.54367 0.0
C1043 C 0.15593 0.3709 0.602 0.0
C1044 C 0.12314 0.30062 0.56435 0.0
H1045 H 0.12162 0.22928 0.58467 0.0
C1046 C 0.10958 0.29492 0.5385 0.0
C1047 C 0.12888 0.27664 0.58064 0.0
C1048 C 0.14275 0.2812 0.60889 0.0
C1049 C 0.09965 0.26583 0.52939 0.0
C1050 C 0.10303 0.24198 0.54675 0.0
C1051 C 0.11907 0.24764 0.5714 0.0
C1052 C 0.08495 0.21217 0.54302 0.0
C1053 C 0.0843 0.26088 0.50188 0.0
C1054 C 0.05375 0.2093 0.54389 0.0
C1055 C 0.03613 0.18163 0.54723 0.0
C1056 C 0.0493 0.15622 0.54966 0.0
C1057 C 0.08039 0.15871 0.54705 0.0
C1058 C 0.09816 0.1866 0.54394 0.0
H1059 H 0.09338 0.27866 0.48731 0.0
H1060 H 0.08681 0.23915 0.49297 0.0
H1061 H 0.06015 0.26145 0.5043 0.0
H1062 H 0.04307 0.22868 0.54394 0.0
H1063 H 0.01219 0.18027 0.54913 0.0
H1064 H 0.55313 0.24689 0.52683 0.0
H1065 H 0.54299 0.29577 0.53938 0.0
H1066 H 0.63339 0.33429 0.51907 0.0
H1067 H 0.64354 0.28519 0.50609 0.0
H1068 H 0.57077 0.33091 0.58071 0.0
H1069 H 0.58575 0.39044 0.48139 0.0
H1070 H 0.58173 0.3507 0.48363 0.0
H1071 H 0.61669 0.37353 0.49241 0.0
C1072 C 0.57074 0.26585 0.52464 0.0
C1073 C 0.59915 0.26219 0.51547 0.0
C1074 C 0.56494 0.29377 0.5319 0.0
C1075 C 0.58737 0.31881 0.53017 0.0
C1076 C 0.61555 0.31544 0.52019 0.0
H1077 H 0.56777 0.50167 0.57372 0.0
H1078 H 0.59166 0.45806 0.56633 0.0
C1079 C 0.62134 0.28738 0.51272 0.0
C1080 C 0.58127 0.3479 0.5402 0.0
H1081 H 0.57476 0.41779 0.51979 0.0
C1082 C 0.57185 0.34995 0.5674 0.0
C1083 C 0.58292 0.37289 0.52297 0.0
C1084 C 0.59208 0.37188 0.49341 0.0
C1085 C 0.56327 0.37591 0.57755 0.0
C1086 C 0.56385 0.40047 0.56004 0.0
C1087 C 0.57444 0.39894 0.53322 0.0
C1088 C 0.55049 0.4266 0.56813 0.0
C1089 C 0.55322 0.37678 0.60686 0.0
C1090 C 0.51958 0.42331 0.57214 0.0
C1091 C 0.50595 0.44805 0.57621 0.0
C1092 C 0.52295 0.47666 0.57655 0.0
C1093 C 0.55414 0.47988 0.57392 0.0
C1094 C 0.56778 0.45503 0.5695 0.0
H1095 H 0.56166 0.35984 0.61954 0.0
H1096 H 0.56089 0.39892 0.61614 0.0
H1097 H 0.52846 0.37221 0.60739 0.0
H1098 H 0.50574 0.40166 0.57085 0.0
H1099 H 0.48188 0.44488 0.57803 0.0
loop_
_geom_bond_atom_site_label_1
_geom_bond_atom_site_label_2
_geom_bond_distance
_geom_bond_site_symmetry_2
_ccdc_geom_bond_type
H0 C1 0.949 . S
C1 H0 0.949 . S
C1 C2 1.395 . S
C1 C3 1.391 . S
C2 C1 1.395 . S
C2 C5 1.390 . S
C3 C1 1.391 . S
C3 C7 1.387 . S
C3 C8 1.491 . S
H4 C5 0.950 . S
C5 C2 1.390 . S
C5 H4 0.950 . S
C5 C6 1.378 . S
C6 C5 1.378 . S
C6 C7 1.409 . S
C7 C3 1.387 . S
C7 C6 1.409 . S
C7 H9 0.951 . S
C8 C3 1.491 . S
C8 C10 1.382 . S
C8 C12 1.404 . S
H9 C7 0.951 . S
C10 C8 1.382 . S
C10 C11 1.390 . S
C10 H15 0.949 . S
C11 C10 1.390 . S
C11 C16 1.399 . S
C12 C8 1.404 . S
C12 H13 0.950 . S
C12 C14 1.375 . S
H13 C12 0.950 . S
C14 C12 1.375 . S
C14 C16 1.382 . S
C14 H18 0.950 . S
H15 C10 0.949 . S
C16 C11 1.399 . S
C16 C14 1.382 . S
C16 H17 0.952 . S
H17 C16 0.952 . S
H18 C14 0.950 . S
H19 C20 0.949 . S
C20 H19 0.949 . S
C20 C21 1.395 . S
C20 C22 1.391 . S
C21 C20 1.395 . S
C21 C24 1.390 . S
C22 C20 1.391 . S
C22 C26 1.387 . S
C22 C27 1.491 . S
H23 C24 0.950 . S
C24 C21 1.390 . S
C24 H23 0.950 . S
C24 C25 1.378 . S
C25 C24 1.378 . S
C25 C26 1.409 . S
C26 C22 1.387 . S
C26 C25 1.409 . S
C26 H28 0.951 . S
C27 C22 1.491 . S
C27 C29 1.382 . S
C27 C31 1.404 . S
H28 C26 0.951 . S
C29 C27 1.382 . S
C29 C30 1.390 . S
C29 H34 0.949 . S
C30 C29 1.390 . S
C30 C35 1.399 . S
C31 C27 1.404 . S
C31 H32 0.950 . S
C31 C33 1.375 . S
H32 C31 0.950 . S
C33 C31 1.375 . S
C33 C35 1.382 . S
C33 H37 0.950 . S
H34 C29 0.949 . S
C35 C30 1.399 . S
C35 C33 1.382 . S
C35 H36 0.952 . S
H36 C35 0.952 . S
H37 C33 0.950 . S
H38 C39 0.949 . S
C39 H38 0.949 . S
C39 C40 1.395 . S
C39 C41 1.391 . S
C40 C39 1.395 . S
C40 C43 1.390 . S
C41 C39 1.391 . S
C41 C45 1.387 . S
C41 C46 1.491 . S
H42 C43 0.950 . S
C43 C40 1.390 . S
C43 H42 0.950 . S
C43 C44 1.378 . S
C44 C43 1.378 . S
C44 C45 1.409 . S
C45 C41 1.387 . S
C45 C44 1.409 . S
C45 H47 0.951 . S
C46 C41 1.491 . S
C46 C48 1.382 . S
C46 C50 1.404 . S
H47 C45 0.951 . S
C48 C46 1.382 . S
C48 C49 1.390 . S
C48 H53 0.949 . S
C49 C48 1.390 . S
C49 C54 1.399 . S
C50 C46 1.404 . S
C50 H51 0.950 . S
C50 C52 1.375 . S
H51 C50 0.950 . S
C52 C50 1.375 . S
C52 C54 1.382 . S
C52 H56 0.950 . S
H53 C48 0.949 . S
C54 C49 1.399 . S
C54 C52 1.382 . S
C54 H55 0.952 . S
H55 C54 0.952 . S
H56 C52 0.950 . S
H57 C58 0.949 . S
C58 H57 0.949 . S
C58 C59 1.395 . S
C58 C60 1.391 . S
C59 C58 1.395 . S
C59 C62 1.390 . S
C60 C58 1.391 . S
C60 C64 1.387 . S
C60 C65 1.491 . S
H61 C62 0.950 . S
C62 C59 1.390 . S
C62 H61 0.950 . S
C62 C63 1.378 . S
C63 C62 1.378 . S
C63 C64 1.409 . S
C64 C60 1.387 . S
C64 C63 1.409 . S
C64 H66 0.951 . S
C65 C60 1.491 . S
C65 C67 1.382 . S
C65 C69 1.404 . S
H66 C64 0.951 . S
C67 C65 1.382 . S
C67 C68 1.390 . S
C67 H72 0.949 . S
C68 C67 1.390 . S
C68 C73 1.399 . S
C69 C65 1.404 . S
C69 H70 0.950 . S
C69 C71 1.375 . S
H70 C69 0.950 . S
C71 C69 1.375 . S
C71 C73 1.382 . S
C71 H75 0.950 . S
H72 C67 0.949 . S
C73 C68 1.399 . S
C73 C71 1.382 . S
C73 H74 0.952 . S
H74 C73 0.952 . S
H75 C71 0.950 . S
H76 C77 0.949 . S
C77 H76 0.949 . S
C77 C78 1.395 . S
C77 C79 1.391 . S
C78 C77 1.395 . S
C78 C81 1.390 . S
C79 C77 1.391 . S
C79 C83 1.381 1_565 S
C79 C84 1.491 . S
H80 C81 0.950 . S
C81 C78 1.390 . S
C81 H80 0.950 . S
C81 C82 1.378 . S
C82 C81 1.378 . S
C82 C83 1.398 1_565 S
C83 C79 1.381 1_545 S
C83 C82 1.398 1_545 S
C83 H85 0.969 . S
C84 C79 1.491 . S
C84 C86 1.382 1_565 S
C84 C88 1.404 1_565 S
H85 C83 0.969 . S
C86 C84 1.382 1_545 S
C86 C87 1.390 . S
C86 H91 0.935 1_556 S
C87 C86 1.390 . S
C87 C92 1.399 . S
C88 C84 1.404 1_545 S
C88 H89 0.950 1_545 S
C88 C90 1.375 . S
H89 C88 0.950 1_565 S
C90 C88 1.375 . S
C90 C92 1.382 . S
C90 H94 0.950 . S
H91 C86 0.935 1_554 S
C92 C87 1.399 . S
C92 C90 1.382 . S
C92 H93 0.952 . S
H93 C92 0.952 . S
H94 C90 0.950 . S
H95 C96 0.949 . S
C96 H95 0.949 . S
C96 C97 1.395 . S
C96 C98 1.391 . S
C97 C96 1.395 . S
C97 C100 1.390 . S
C98 C96 1.391 . S
C98 C102 1.387 . S
C98 C103 1.491 . S
H99 C100 0.950 . S
C100 C97 1.390 . S
C100 H99 0.950 . S
C100 C101 1.378 . S
C101 C100 1.378 . S
C101 C102 1.409 . S
C102 C98 1.387 . S
C102 C101 1.409 . S
C102 H104 0.951 . S
C103 C98 1.491 . S
C103 C105 1.382 . S
C103 C107 1.404 . S
H104 C102 0.951 . S
C105 C103 1.382 . S
C105 C106 1.390 . S
C105 H110 0.949 . S
C106 C105 1.390 . S
C106 C111 1.399 . S
C107 C103 1.404 . S
C107 H108 0.950 . S
C107 C109 1.375 . S
H108 C107 0.950 . S
C109 C107 1.375 . S
C109 C111 1.382 . S
C109 H113 0.950 . S
H110 C105 0.949 . S
C111 C106 1.399 . S
C111 C109 1.382 . S
C111 H112 0.952 . S
H112 C111 0.952 . S
H113 C109 0.950 . S
H114 C115 0.949 . S
C115 H114 0.949 . S
C115 C116 1.395 . S
C115 C117 1.391 . S
C116 C115 1.395 . S
C116 C119 1.390 . S
C117 C115 1.391 . S
C117 C121 1.387 . S
C117 C122 1.491 . S
H118 C119 0.950 . S
C119 C116 1.390 . S
C119 H118 0.950 . S
C119 C120 1.378 . S
C120 C119 1.378 . S
C120 C121 1.409 . S
C121 C117 1.387 . S
C121 C120 1.409 . S
C121 H123 0.951 . S
C122 C117 1.491 . S
C122 C124 1.382 . S
C122 C126 1.404 . S
H123 C121 0.951 . S
C124 C122 1.382 . S
C124 C125 1.390 . S
C124 H129 0.949 . S
C125 C124 1.390 . S
C125 C130 1.399 . S
C126 C122 1.404 . S
C126 H127 0.950 . S
C126 C128 1.375 . S
H127 C126 0.950 . S
C128 C126 1.375 . S
C128 C130 1.382 . S
C128 H132 0.950 . S
H129 C124 0.949 . S
C130 C125 1.399 . S
C130 C128 1.382 . S
C130 H131 0.952 . S
H131 C130 0.952 . S
H132 C128 0.950 . S
H133 C134 0.949 . S
C134 H133 0.949 . S
C134 C135 1.395 . S
C134 C136 1.391 . S
C135 C134 1.395 . S
C135 C138 1.390 . S
C136 C134 1.391 . S
C136 C140 1.387 . S
C136 C141 1.491 . S
H137 C138 0.950 . S
C138 C135 1.390 . S
C138 H137 0.950 . S
C138 C139 1.378 . S
C139 C138 1.378 . S
C139 C140 1.409 . S
C140 C136 1.387 . S
C140 C139 1.409 . S
C140 H142 0.951 . S
C141 C136 1.491 . S
C141 C143 1.382 . S
C141 C145 1.404 . S
H142 C140 0.951 . S
C143 C141 1.382 . S
C143 C144 1.390 . S
C143 H148 0.949 . S
C144 C143 1.390 . S
C144 C149 1.399 . S
C145 C141 1.404 . S
C145 H146 0.950 . S
C145 C147 1.375 . S
H146 C145 0.950 . S
C147 C145 1.375 . S
C147 C149 1.382 . S
C147 H151 0.950 . S
H148 C143 0.949 . S
C149 C144 1.399 . S
C149 C147 1.382 . S
C149 H150 0.952 . S
H150 C149 0.952 . S
H151 C147 0.950 . S
Zn152 O158 1.920 . S
Zn152 O164 1.898 . S
Zn152 O167 1.905 . S
Zn153 O161 1.905 . S
Zn153 O162 1.898 1_545 S
Zn153 O170 1.920 . S
Zn154 O157 2.080 1_455 S
Zn154 O160 2.114 . S
Zn154 O163 2.120 1_455 S
Zn154 O165 2.120 . S
Zn154 O166 2.114 1_455 S
Zn154 O169 2.080 . S
C155 O160 1.166 . S
C155 O161 1.182 . S
C156 O162 1.167 1_655 S
C156 O163 1.299 1_565 S
O157 Zn154 2.080 1_655 S
O157 C171 1.305 . S
O158 Zn152 1.920 . S
O158 C171 1.234 . S
C159 O164 1.167 1_455 S
C159 O165 1.299 . S
O160 Zn154 2.114 . S
O160 C155 1.166 . S
O161 Zn153 1.905 . S
O161 C155 1.182 . S
O162 Zn153 1.898 1_565 S
O162 C156 1.167 1_455 S
O163 Zn154 2.120 1_655 S
O163 C156 1.299 1_545 S
O164 Zn152 1.898 . S
O164 C159 1.167 1_655 S
O165 Zn154 2.120 . S
O165 C159 1.299 . S
O166 Zn154 2.114 1_655 S
O166 C168 1.166 . S
O167 Zn152 1.905 . S
O167 C168 1.182 . S
C168 O166 1.166 . S
C168 O167 1.182 . S
O169 Zn154 2.080 . S
O169 C172 1.305 . S
O170 Zn153 1.920 . S
O170 C172 1.234 . S
C171 O157 1.305 . S
C171 O158 1.234 . S
C172 O169 1.305 . S
C172 O170 1.234 . S
Zn173 O179 1.920 . S
Zn173 O185 1.898 . S
Zn173 O188 1.905 . S
Zn174 O182 1.905 1_565 S
Zn174 O183 1.898 . S
Zn174 O191 1.920 1_565 S
Zn175 O178 2.080 . S
Zn175 O181 2.114 . S
Zn175 O184 2.120 1_545 S
Zn175 O186 2.120 . S
Zn175 O187 2.114 . S
Zn175 O190 2.080 . S
C176 O181 1.166 . S
C176 O182 1.182 . S
C177 O183 1.167 . S
C177 O184 1.299 . S
O178 Zn175 2.080 . S
O178 C192 1.305 . S
O179 Zn173 1.920 . S
O179 C192 1.234 . S
C180 O185 1.167 . S
C180 O186 1.299 . S
O181 Zn175 2.114 . S
O181 C176 1.166 . S
O182 Zn174 1.905 1_545 S
O182 C176 1.182 . S
O183 Zn174 1.898 . S
O183 C177 1.167 . S
O184 Zn175 2.120 1_565 S
O184 C177 1.299 . S
O185 Zn173 1.898 . S
O185 C180 1.167 . S
O186 Zn175 2.120 . S
O186 C180 1.299 . S
O187 Zn175 2.114 . S
O187 C189 1.166 . S
O188 Zn173 1.905 . S
O188 C189 1.182 . S
C189 O187 1.166 . S
C189 O188 1.182 . S
O190 Zn175 2.080 . S
O190 C193 1.305 . S
O191 Zn174 1.920 1_545 S
O191 C193 1.234 . S
C192 O178 1.305 . S
C192 O179 1.234 . S
C193 O190 1.305 . S
C193 O191 1.234 . S
Zn194 O200 1.920 . S
Zn194 O206 1.898 . S
Zn194 O209 1.905 . S
Zn195 O203 1.905 . S
Zn195 O204 1.898 . S
Zn195 O212 1.920 . S
Zn196 O199 2.080 . S
Zn196 O202 2.114 . S
Zn196 O205 2.120 . S
Zn196 O207 2.120 . S
Zn196 O208 2.114 . S
Zn196 O211 2.080 . S
C197 O202 1.166 . S
C197 O203 1.182 . S
C198 O204 1.167 . S
C198 O205 1.299 . S
O199 Zn196 2.080 . S
O199 C213 1.305 . S
O200 Zn194 1.920 . S
O200 C213 1.234 . S
C201 O206 1.167 . S
C201 O207 1.299 . S
O202 Zn196 2.114 . S
O202 C197 1.166 . S
O203 Zn195 1.905 . S
O203 C197 1.182 . S
O204 Zn195 1.898 . S
O204 C198 1.167 . S
O205 Zn196 2.120 . S
O205 C198 1.299 . S
O206 Zn194 1.898 . S
O206 C201 1.167 . S
O207 Zn196 2.120 . S
O207 C201 1.299 . S
O208 Zn196 2.114 . S
O208 C210 1.166 . S
O209 Zn194 1.905 . S
O209 C210 1.182 . S
C210 O208 1.166 . S
C210 O209 1.182 . S
O211 Zn196 2.080 . S
O211 C214 1.305 . S
O212 Zn195 1.920 . S
O212 C214 1.234 . S
C213 O199 1.305 . S
C213 O200 1.234 . S
C214 O211 1.305 . S
C214 O212 1.234 . S
Zn215 O221 1.920 . S
Zn215 O227 1.898 1_556 S
Zn215 O230 1.905 . S
Zn216 O224 1.905 1_655 S
Zn216 O225 1.898 . S
Zn216 O233 1.920 . S
Zn217 O220 2.080 . S
Zn217 O223 2.114 . S
Zn217 O226 2.120 1_455 S
Zn217 O228 2.120 . S
Zn217 O229 2.114 1_554 S
Zn217 O232 2.080 . S
C218 O223 1.166 . S
C218 O224 1.182 . S
C219 O225 1.167 . S
C219 O226 1.299 . S
O220 Zn217 2.080 . S
O220 C234 1.305 . S
O221 Zn215 1.920 . S
O221 C234 1.234 1_556 S
C222 O227 1.167 . S
C222 O228 1.299 . S
O223 Zn217 2.114 . S
O223 C218 1.166 . S
O224 Zn216 1.905 1_455 S
O224 C218 1.182 . S
O225 Zn216 1.898 . S
O225 C219 1.167 . S
O226 Zn217 2.120 1_655 S
O226 C219 1.299 . S
O227 Zn215 1.898 1_554 S
O227 C222 1.167 . S
O228 Zn217 2.120 . S
O228 C222 1.299 . S
O229 Zn217 2.114 1_556 S
O229 C231 1.166 . S
O230 Zn215 1.905 . S
O230 C231 1.182 . S
C231 O229 1.166 . S
C231 O230 1.182 . S
O232 Zn217 2.080 . S
O232 C235 1.305 1_455 S
O233 Zn216 1.920 . S
O233 C235 1.234 . S
C234 O220 1.305 . S
C234 O221 1.234 1_554 S
C235 O232 1.305 1_655 S
C235 O233 1.234 . S
H236 C244 0.929 . S
H237 C246 0.930 . S
H238 C248 0.930 . S
H239 C251 0.929 . S
H240 C254 0.930 . S
H241 C256 0.960 . S
H242 C256 0.960 . S
H243 C256 0.960 . S
C244 H236 0.929 . S
C244 C245 1.377 . S
C244 C246 1.384 . S
C245 C244 1.377 . S
C245 C251 1.390 . S
C246 H237 0.930 . S
C246 C244 1.384 . S
C246 C247 1.372 . S
C247 C246 1.372 . S
C247 C248 1.400 . S
C247 C252 1.490 . S
C248 H238 0.930 . S
C248 C247 1.400 . S
C248 C251 1.386 . S
H249 C265 0.930 . S
H250 C266 0.931 . S
C251 H239 0.929 . S
C251 C245 1.390 . S
C251 C248 1.386 . S
C252 C247 1.490 . S
C252 C254 1.395 . S
C252 C255 1.403 . S
H253 C259 0.930 . S
C254 H240 0.930 . S
C254 C252 1.395 . S
C254 C257 1.403 . S
C255 C252 1.403 . S
C255 C256 1.524 . S
C255 C259 1.400 . S
C256 H241 0.960 . S
C256 H242 0.960 . S
C256 H243 0.960 . S
C256 C255 1.524 . S
C257 C254 1.403 . S
C257 C258 1.392 . S
C257 C261 1.495 . S
C258 C257 1.392 . S
C258 C259 1.385 . S
C258 C260 1.478 . S
C259 H253 0.930 . S
C259 C255 1.400 . S
C259 C258 1.385 . S
C260 C258 1.478 . S
C260 C262 1.381 . S
C260 C266 1.383 . S
C261 C257 1.495 . S
C261 H267 0.959 . S
C261 H268 0.961 . S
C261 H269 0.960 . S
C262 C260 1.381 . S
C262 C263 1.394 . S
C262 H270 0.930 . S
C263 C262 1.394 . S
C263 C264 1.383 . S
C263 H271 0.929 . S
C264 C263 1.383 . S
C264 C265 1.377 . S
C265 H249 0.930 . S
C265 C264 1.377 . S
C265 C266 1.379 . S
C266 H250 0.931 . S
C266 C260 1.383 . S
C266 C265 1.379 . S
H267 C261 0.959 . S
H268 C261 0.961 . S
H269 C261 0.960 . S
H270 C262 0.930 . S
H271 C263 0.929 . S
H272 C280 0.929 . S
H273 C282 0.930 . S
H274 C284 0.930 . S
H275 C287 0.929 . S
H276 C290 0.930 . S
H277 C292 0.960 . S
H278 C292 0.960 . S
H279 C292 0.960 . S
C280 H272 0.929 . S
C280 C281 1.377 . S
C280 C282 1.384 . S
C281 C280 1.377 . S
C281 C287 1.390 . S
C282 H273 0.930 . S
C282 C280 1.384 . S
C282 C283 1.372 . S
C283 C282 1.372 . S
C283 C284 1.400 . S
C283 C288 1.490 . S
C284 H274 0.930 . S
C284 C283 1.400 . S
C284 C287 1.386 . S
H285 C301 0.930 . S
H286 C302 0.931 1_545 S
C287 H275 0.929 . S
C287 C281 1.390 . S
C287 C284 1.386 . S
C288 C283 1.490 . S
C288 C290 1.395 . S
C288 C291 1.403 . S
H289 C295 0.930 . S
C290 H276 0.930 . S
C290 C288 1.395 . S
C290 C293 1.403 . S
C291 C288 1.403 . S
C291 C292 1.524 . S
C291 C295 1.400 . S
C292 H277 0.960 . S
C292 H278 0.960 . S
C292 H279 0.960 . S
C292 C291 1.524 . S
C293 C290 1.403 . S
C293 C294 1.392 . S
C293 C297 1.495 . S
C294 C293 1.392 . S
C294 C295 1.385 . S
C294 C296 1.478 . S
C295 H289 0.930 . S
C295 C291 1.400 . S
C295 C294 1.385 . S
C296 C294 1.478 . S
C296 C298 1.381 . S
C296 C302 1.383 . S
C297 C293 1.495 . S
C297 H303 0.959 . S
C297 H304 0.961 . S
C297 H305 0.960 . S
C298 C296 1.381 . S
C298 C299 1.364 1_556 S
C298 H306 0.930 . S
C299 C298 1.364 1_554 S
C299 C300 1.393 . S
C299 H307 0.951 . S
C300 C299 1.393 . S
C300 C301 1.377 1_564 S
C301 H285 0.930 . S
C301 C300 1.377 1_546 S
C301 C302 1.379 1_545 S
C302 H286 0.931 1_565 S
C302 C296 1.383 . S
C302 C301 1.379 1_565 S
H303 C297 0.959 . S
H304 C297 0.961 . S
H305 C297 0.960 . S
H306 C298 0.930 . S
H307 C299 0.951 . S
H308 C316 0.929 . S
H309 C318 0.930 . S
H310 C320 0.930 . S
H311 C323 0.929 . S
H312 C326 0.930 . S
H313 C328 0.960 . S
H314 C328 0.960 . S
H315 C328 0.960 . S
C316 H308 0.929 . S
C316 C317 1.377 . S
C316 C318 1.384 . S
C317 C316 1.377 . S
C317 C323 1.390 . S
C318 H309 0.930 . S
C318 C316 1.384 . S
C318 C319 1.372 . S
C319 C318 1.372 . S
C319 C320 1.400 . S
C319 C324 1.490 . S
C320 H310 0.930 . S
C320 C319 1.400 . S
C320 C323 1.386 . S
H321 C337 0.930 . S
H322 C338 0.931 . S
C323 H311 0.929 . S
C323 C317 1.390 . S
C323 C320 1.386 . S
C324 C319 1.490 . S
C324 C326 1.395 . S
C324 C327 1.403 . S
H325 C331 0.930 . S
C326 H312 0.930 . S
C326 C324 1.395 . S
C326 C329 1.403 . S
C327 C324 1.403 . S
C327 C328 1.524 . S
C327 C331 1.400 . S
C328 H313 0.960 . S
C328 H314 0.960 . S
C328 H315 0.960 . S
C328 C327 1.524 . S
C329 C326 1.403 . S
C329 C330 1.392 . S
C329 C333 1.495 . S
C330 C329 1.392 . S
C330 C331 1.385 . S
C330 C332 1.478 . S
C331 H325 0.930 . S
C331 C327 1.400 . S
C331 C330 1.385 . S
C332 C330 1.478 . S
C332 C334 1.381 . S
C332 C338 1.383 . S
C333 C329 1.495 . S
C333 H339 0.959 . S
C333 H340 0.961 . S
C333 H341 0.960 . S
C334 C332 1.381 . S
C334 C335 1.394 . S
C334 H342 0.930 . S
C335 C334 1.394 . S
C335 C336 1.383 . S
C335 H343 0.929 . S
C336 C335 1.383 . S
C336 C337 1.377 . S
C337 H321 0.930 . S
C337 C336 1.377 . S
C337 C338 1.379 . S
C338 H322 0.931 . S
C338 C332 1.383 . S
C338 C337 1.379 . S
H339 C333 0.959 . S
H340 C333 0.961 . S
H341 C333 0.960 . S
H342 C334 0.930 . S
H343 C335 0.929 . S
H344 C352 0.929 . S
H345 C354 0.930 . S
H346 C356 0.930 . S
H347 C359 0.929 . S
H348 C362 0.930 . S
H349 C364 0.960 . S
H350 C364 0.960 . S
H351 C364 0.960 . S
C352 H344 0.929 . S
C352 C353 1.377 . S
C352 C354 1.384 . S
C353 C352 1.377 . S
C353 C359 1.390 . S
C354 H345 0.930 . S
C354 C352 1.384 . S
C354 C355 1.372 . S
C355 C354 1.372 . S
C355 C356 1.400 . S
C355 C360 1.490 . S
C356 H346 0.930 . S
C356 C355 1.400 . S
C356 C359 1.386 . S
H357 C373 0.930 . S
H358 C374 0.931 . S
C359 H347 0.929 . S
C359 C353 1.390 . S
C359 C356 1.386 . S
C360 C355 1.490 . S
C360 C362 1.395 . S
C360 C363 1.403 . S
H361 C367 0.930 . S
C362 H348 0.930 . S
C362 C360 1.395 . S
C362 C365 1.403 . S
C363 C360 1.403 . S
C363 C364 1.524 . S
C363 C367 1.400 . S
C364 H349 0.960 . S
C364 H350 0.960 . S
C364 H351 0.960 . S
C364 C363 1.524 . S
C365 C362 1.403 . S
C365 C366 1.392 . S
C365 C369 1.495 . S
C366 C365 1.392 . S
C366 C367 1.385 . S
C366 C368 1.478 . S
C367 H361 0.930 . S
C367 C363 1.400 . S
C367 C366 1.385 . S
C368 C366 1.478 . S
C368 C370 1.381 . S
C368 C374 1.383 . S
C369 C365 1.495 . S
C369 H375 0.959 . S
C369 H376 0.961 . S
C369 H377 0.960 . S
C370 C368 1.381 . S
C370 C371 1.394 1_655 S
C370 H378 0.930 1_655 S
C371 C370 1.394 1_455 S
C371 C372 1.383 1_455 S
C371 H379 0.929 . S
C372 C371 1.383 1_655 S
C372 C373 1.377 . S
C373 H357 0.930 . S
C373 C372 1.377 . S
C373 C374 1.379 . S
C374 H358 0.931 . S
C374 C368 1.383 . S
C374 C373 1.379 . S
H375 C369 0.959 . S
H376 C369 0.961 . S
H377 C369 0.960 . S
H378 C370 0.930 1_455 S
H379 C371 0.929 . S
H380 C388 0.929 . S
H381 C390 0.930 . S
H382 C392 0.930 . S
H383 C395 0.929 . S
H384 C398 0.930 . S
H385 C400 0.960 . S
H386 C400 0.960 . S
H387 C400 0.960 . S
C388 H380 0.929 . S
C388 C389 1.377 . S
C388 C390 1.384 . S
C389 C388 1.377 . S
C389 C395 1.390 . S
C390 H381 0.930 . S
C390 C388 1.384 . S
C390 C391 1.372 . S
C391 C390 1.372 . S
C391 C392 1.400 . S
C391 C396 1.490 . S
C392 H382 0.930 . S
C392 C391 1.400 . S
C392 C395 1.386 . S
H393 C409 0.930 . S
H394 C410 0.931 . S
C395 H383 0.929 . S
C395 C389 1.390 . S
C395 C392 1.386 . S
C396 C391 1.490 . S
C396 C398 1.395 . S
C396 C399 1.403 . S
H397 C403 0.930 . S
C398 H384 0.930 . S
C398 C396 1.395 . S
C398 C401 1.403 . S
C399 C396 1.403 . S
C399 C400 1.524 . S
C399 C403 1.400 . S
C400 H385 0.960 . S
C400 H386 0.960 . S
C400 H387 0.960 . S
C400 C399 1.524 . S
C401 C398 1.403 . S
C401 C402 1.392 . S
C401 C405 1.495 . S
C402 C401 1.392 . S
C402 C403 1.385 . S
C402 C404 1.478 . S
C403 H397 0.930 . S
C403 C399 1.400 . S
C403 C402 1.385 . S
C404 C402 1.478 . S
C404 C406 1.381 . S
C404 C410 1.383 . S
C405 C401 1.495 . S
C405 H411 0.959 . S
C405 H412 0.961 . S
C405 H413 0.960 . S
C406 C404 1.381 . S
C406 C407 1.394 . S
C406 H414 0.930 . S
C407 C406 1.394 . S
C407 C408 1.383 . S
C407 H415 0.929 . S
C408 C407 1.383 . S
C408 C409 1.377 . S
C409 H393 0.930 . S
C409 C408 1.377 . S
C409 C410 1.379 . S
C410 H394 0.931 . S
C410 C404 1.383 . S
C410 C409 1.379 . S
H411 C405 0.959 . S
H412 C405 0.961 . S
H413 C405 0.960 . S
H414 C406 0.930 . S
H415 C407 0.929 . S
H416 C424 0.929 . S
H417 C426 0.930 . S
H418 C428 0.930 . S
H419 C431 0.929 . S
H420 C434 0.930 . S
H421 C436 0.960 . S
H422 C436 0.960 . S
H423 C436 0.960 . S
C424 H416 0.929 . S
C424 C425 1.377 . S
C424 C426 1.384 . S
C425 C424 1.377 . S
C425 C431 1.390 . S
C426 H417 0.930 . S
C426 C424 1.384 . S
C426 C427 1.372 . S
C427 C426 1.372 . S
C427 C428 1.400 . S
C427 C432 1.490 . S
C428 H418 0.930 . S
C428 C427 1.400 . S
C428 C431 1.386 . S
H429 C445 0.930 . S
H430 C446 0.931 . S
C431 H419 0.929 . S
C431 C425 1.390 . S
C431 C428 1.386 . S
C432 C427 1.490 . S
C432 C434 1.395 . S
C432 C435 1.403 . S
H433 C439 0.930 . S
C434 H420 0.930 . S
C434 C432 1.395 . S
C434 C437 1.403 . S
C435 C432 1.403 . S
C435 C436 1.524 . S
C435 C439 1.400 . S
C436 H421 0.960 . S
C436 H422 0.960 . S
C436 H423 0.960 . S
C436 C435 1.524 . S
C437 C434 1.403 . S
C437 C438 1.392 . S
C437 C441 1.495 . S
C438 C437 1.392 . S
C438 C439 1.385 . S
C438 C440 1.478 . S
C439 H433 0.930 . S
C439 C435 1.400 . S
C439 C438 1.385 . S
C440 C438 1.478 . S
C440 C442 1.381 . S
C440 C446 1.383 1_565 S
C441 C437 1.495 . S
C441 H447 0.959 . S
C441 H448 0.961 1_565 S
C441 H449 0.960 . S
C442 C440 1.381 . S
C442 C443 1.394 . S
C442 H450 0.930 . S
C443 C442 1.394 . S
C443 C444 1.383 1_565 S
C443 H451 0.929 . S
C444 C443 1.383 1_545 S
C444 C445 1.377 . S
C445 H429 0.930 . S
C445 C444 1.377 . S
C445 C446 1.379 . S
C446 H430 0.931 . S
C446 C440 1.383 1_545 S
C446 C445 1.379 . S
H447 C441 0.959 . S
H448 C441 0.961 1_545 S
H449 C441 0.960 . S
H450 C442 0.930 . S
H451 C443 0.929 . S
H452 C460 0.929 . S
H453 C462 0.930 . S
H454 C464 0.930 . S
H455 C467 0.929 . S
H456 C470 0.930 . S
H457 C472 0.960 . S
H458 C472 0.960 . S
H459 C472 0.960 . S
C460 H452 0.929 . S
C460 C461 1.377 . S
C460 C462 1.384 . S
C461 C460 1.377 . S
C461 C467 1.390 . S
C462 H453 0.930 . S
C462 C460 1.384 . S
C462 C463 1.372 . S
C463 C462 1.372 . S
C463 C464 1.400 . S
C463 C468 1.490 . S
C464 H454 0.930 . S
C464 C463 1.400 . S
C464 C467 1.386 . S
H465 C481 0.930 . S
H466 C482 0.931 . S
C467 H455 0.929 . S
C467 C461 1.390 . S
C467 C464 1.386 . S
C468 C463 1.490 . S
C468 C470 1.395 . S
C468 C471 1.403 . S
H469 C475 0.930 . S
C470 H456 0.930 . S
C470 C468 1.395 . S
C470 C473 1.403 . S
C471 C468 1.403 . S
C471 C472 1.524 . S
C471 C475 1.400 . S
C472 H457 0.960 . S
C472 H458 0.960 . S
C472 H459 0.960 . S
C472 C471 1.524 . S
C473 C470 1.403 . S
C473 C474 1.392 . S
C473 C477 1.495 . S
C474 C473 1.392 . S
C474 C475 1.385 . S
C474 C476 1.478 . S
C475 H469 0.930 . S
C475 C471 1.400 . S
C475 C474 1.385 . S
C476 C474 1.478 . S
C476 C478 1.381 . S
C476 C482 1.383 . S
C477 C473 1.495 . S
C477 H483 0.959 . S
C477 H484 0.961 . S
C477 H485 0.960 . S
C478 C476 1.381 . S
C478 C479 1.394 . S
C478 H486 0.930 . S
C479 C478 1.394 . S
C479 C480 1.383 . S
C479 H487 0.929 1_556 S
C480 C479 1.383 . S
C480 C481 1.377 . S
C481 H465 0.930 . S
C481 C480 1.377 . S
C481 C482 1.379 . S
C482 H466 0.931 . S
C482 C476 1.383 . S
C482 C481 1.379 . S
H483 C477 0.959 . S
H484 C477 0.961 . S
H485 C477 0.960 . S
H486 C478 0.930 . S
H487 C479 0.929 1_554 S
H488 C496 0.929 . S
H489 C498 0.930 . S
H490 C500 0.930 . S
H491 C503 0.929 . S
H492 C506 0.930 . S
H493 C508 0.960 . S
H494 C508 0.960 . S
H495 C508 0.960 . S
C496 H488 0.929 . S
C496 C497 1.377 . S
C496 C498 1.384 . S
C497 C496 1.377 . S
C497 C503 1.390 . S
C498 H489 0.930 . S
C498 C496 1.384 . S
C498 C499 1.372 . S
C499 C498 1.372 . S
C499 C500 1.400 . S
C499 C504 1.490 . S
C500 H490 0.930 . S
C500 C499 1.400 . S
C500 C503 1.386 . S
H501 C517 0.930 . S
H502 C518 0.931 . S
C503 H491 0.929 . S
C503 C497 1.390 . S
C503 C500 1.386 . S
C504 C499 1.490 . S
C504 C506 1.395 . S
C504 C507 1.403 . S
H505 C511 0.930 . S
C506 H492 0.930 . S
C506 C504 1.395 . S
C506 C509 1.403 . S
C507 C504 1.403 . S
C507 C508 1.524 . S
C507 C511 1.400 . S
C508 H493 0.960 . S
C508 H494 0.960 . S
C508 H495 0.960 . S
C508 C507 1.524 . S
C509 C506 1.403 . S
C509 C510 1.392 . S
C509 C513 1.495 . S
C510 C509 1.392 . S
C510 C511 1.385 . S
C510 C512 1.478 . S
C511 H505 0.930 . S
C511 C507 1.400 . S
C511 C510 1.385 . S
C512 C510 1.478 . S
C512 C514 1.381 . S
C512 C518 1.383 . S
C513 C509 1.495 . S
C513 H519 0.959 . S
C513 H520 0.961 . S
C513 H521 0.960 . S
C514 C512 1.381 . S
C514 C515 1.394 . S
C514 H522 0.930 . S
C515 C514 1.394 . S
C515 C516 1.383 . S
C515 H523 0.929 . S
C516 C515 1.383 . S
C516 C517 1.377 . S
C517 H501 0.930 . S
C517 C516 1.377 . S
C517 C518 1.379 . S
C518 H502 0.931 . S
C518 C512 1.383 . S
C518 C517 1.379 . S
H519 C513 0.959 . S
H520 C513 0.961 . S
H521 C513 0.960 . S
H522 C514 0.930 . S
H523 C515 0.929 . S
H524 C532 0.929 . S
H525 C534 0.930 . S
H526 C536 0.930 . S
H527 C539 0.929 . S
H528 C542 0.930 . S
H529 C544 0.960 . S
H530 C544 0.960 . S
H531 C544 0.960 . S
C532 H524 0.929 . S
C532 C533 1.377 . S
C532 C534 1.384 . S
C533 C532 1.377 . S
C533 C539 1.390 . S
C534 H525 0.930 . S
C534 C532 1.384 . S
C534 C535 1.372 . S
C535 C534 1.372 . S
C535 C536 1.400 . S
C535 C540 1.490 . S
C536 H526 0.930 . S
C536 C535 1.400 . S
C536 C539 1.386 . S
H537 C553 0.930 . S
H538 C554 0.931 . S
C539 H527 0.929 . S
C539 C533 1.390 . S
C539 C536 1.386 . S
C540 C535 1.490 . S
C540 C542 1.395 . S
C540 C543 1.403 . S
H541 C547 0.930 . S
C542 H528 0.930 . S
C542 C540 1.395 . S
C542 C545 1.403 . S
C543 C540 1.403 . S
C543 C544 1.524 . S
C543 C547 1.400 . S
C544 H529 0.960 . S
C544 H530 0.960 . S
C544 H531 0.960 . S
C544 C543 1.524 . S
C545 C542 1.403 . S
C545 C546 1.392 . S
C545 C549 1.495 . S
C546 C545 1.392 . S
C546 C547 1.385 . S
C546 C548 1.478 . S
C547 H541 0.930 . S
C547 C543 1.400 . S
C547 C546 1.385 . S
C548 C546 1.478 . S
C548 C550 1.381 . S
C548 C554 1.383 . S
C549 C545 1.495 . S
C549 H555 0.959 . S
C549 H556 0.961 . S
C549 H557 0.960 . S
C550 C548 1.381 . S
C550 C551 1.394 . S
C550 H558 0.930 . S
C551 C550 1.394 . S
C551 C552 1.383 . S
C551 H559 0.929 . S
C552 C551 1.383 . S
C552 C553 1.377 . S
C553 H537 0.930 . S
C553 C552 1.377 . S
C553 C554 1.379 . S
C554 H538 0.931 . S
C554 C548 1.383 . S
C554 C553 1.379 . S
H555 C549 0.959 . S
H556 C549 0.961 . S
H557 C549 0.960 . S
H558 C550 0.930 . S
H559 C551 0.929 . S
H560 C568 0.929 . S
H561 C570 0.930 . S
H562 C572 0.930 . S
H563 C575 0.929 . S
H564 C578 0.930 . S
H565 C580 0.960 . S
H566 C580 0.960 . S
H567 C580 0.960 . S
C568 H560 0.929 . S
C568 C569 1.377 . S
C568 C570 1.384 . S
C569 C568 1.377 . S
C569 C575 1.390 . S
C570 H561 0.930 . S
C570 C568 1.384 . S
C570 C571 1.372 . S
C571 C570 1.372 . S
C571 C572 1.400 . S
C571 C576 1.490 . S
C572 H562 0.930 . S
C572 C571 1.400 . S
C572 C575 1.386 . S
H573 C589 0.930 . S
H574 C590 0.931 . S
C575 H563 0.929 . S
C575 C569 1.390 . S
C575 C572 1.386 . S
C576 C571 1.490 . S
C576 C578 1.395 1_556 S
C576 C579 1.403 . S
H577 C583 0.930 . S
C578 H564 0.930 . S
C578 C576 1.395 1_554 S
C578 C581 1.403 . S
C579 C576 1.403 . S
C579 C580 1.524 . S
C579 C583 1.400 . S
C580 H565 0.960 . S
C580 H566 0.960 . S
C580 H567 0.960 . S
C580 C579 1.524 . S
C581 C578 1.403 . S
C581 C582 1.392 . S
C581 C585 1.495 . S
C582 C581 1.392 . S
C582 C583 1.385 1_554 S
C582 C584 1.478 . S
C583 H577 0.930 . S
C583 C579 1.400 . S
C583 C582 1.385 1_556 S
C584 C582 1.478 . S
C584 C586 1.381 . S
C584 C590 1.383 . S
C585 C581 1.495 . S
C585 H591 0.959 . S
C585 H592 0.961 . S
C585 H593 0.960 . S
C586 C584 1.381 . S
C586 C587 1.394 . S
C586 H594 0.930 . S
C587 C586 1.394 . S
C587 C588 1.383 . S
C587 H595 0.929 . S
C588 C587 1.383 . S
C588 C589 1.377 . S
C589 H573 0.930 . S
C589 C588 1.377 . S
C589 C590 1.379 . S
C590 H574 0.931 . S
C590 C584 1.383 . S
C590 C589 1.379 . S
H591 C585 0.959 . S
H592 C585 0.961 . S
H593 C585 0.960 . S
H594 C586 0.930 . S
H595 C587 0.929 . S
H596 C604 0.929 . S
H597 C606 0.930 . S
H598 C608 0.930 . S
H599 C611 0.929 . S
H600 C614 0.930 . S
H601 C616 0.960 . S
H602 C616 0.960 . S
H603 C616 0.960 . S
C604 H596 0.929 . S
C604 C605 1.377 . S
C604 C606 1.384 . S
C605 C604 1.377 . S
C605 C611 1.390 . S
C606 H597 0.930 . S
C606 C604 1.384 . S
C606 C607 1.372 . S
C607 C606 1.372 . S
C607 C608 1.400 . S
C607 C612 1.490 . S
C608 H598 0.930 . S
C608 C607 1.400 . S
C608 C611 1.386 . S
H609 C625 0.930 . S
H610 C626 0.931 . S
C611 H599 0.929 . S
C611 C605 1.390 . S
C611 C608 1.386 . S
C612 C607 1.490 . S
C612 C614 1.395 . S
C612 C615 1.403 . S
H613 C619 0.930 . S
C614 H600 0.930 . S
C614 C612 1.395 . S
C614 C617 1.403 . S
C615 C612 1.403 . S
C615 C616 1.524 . S
C615 C619 1.400 . S
C616 H601 0.960 . S
C616 H602 0.960 . S
C616 H603 0.960 . S
C616 C615 1.524 . S
C617 C614 1.403 . S
C617 C618 1.392 . S
C617 C621 1.495 . S
C618 C617 1.392 . S
C618 C619 1.385 . S
C618 C620 1.478 . S
C619 H613 0.930 . S
C619 C615 1.400 . S
C619 C618 1.385 . S
C620 C618 1.478 . S
C620 C622 1.381 . S
C620 C626 1.383 . S
C621 C617 1.495 . S
C621 H627 0.959 . S
C621 H628 0.961 . S
C621 H629 0.960 . S
C622 C620 1.381 . S
C622 C623 1.394 . S
C622 H630 0.930 . S
C623 C622 1.394 . S
C623 C624 1.383 . S
C623 H631 0.929 . S
C624 C623 1.383 . S
C624 C625 1.377 . S
C625 H609 0.930 . S
C625 C624 1.377 . S
C625 C626 1.379 . S
C626 H610 0.931 . S
C626 C620 1.383 . S
C626 C625 1.379 . S
H627 C621 0.959 . S
H628 C621 0.961 . S
H629 C621 0.960 . S
H630 C622 0.930 . S
H631 C623 0.929 . S
H632 C640 0.929 . S
H633 C642 0.930 . S
H634 C644 0.930 . S
H635 C647 0.929 . S
H636 C650 0.930 . S
H637 C652 0.960 . S
H638 C652 0.960 . S
H639 C652 0.960 . S
C640 H632 0.929 . S
C640 C641 1.377 . S
C640 C642 1.384 . S
C641 C640 1.377 . S
C641 C647 1.390 . S
C642 H633 0.930 . S
C642 C640 1.384 . S
C642 C643 1.372 . S
C643 C642 1.372 . S
C643 C644 1.400 . S
C643 C648 1.490 . S
C644 H634 0.930 . S
C644 C643 1.400 . S
C644 C647 1.386 . S
H645 C661 0.930 . S
H646 C662 0.931 . S
C647 H635 0.929 . S
C647 C641 1.390 . S
C647 C644 1.386 . S
C648 C643 1.490 . S
C648 C650 1.395 . S
C648 C651 1.403 . S
H649 C655 0.930 . S
C650 H636 0.930 . S
C650 C648 1.395 . S
C650 C653 1.403 . S
C651 C648 1.403 . S
C651 C652 1.524 . S
C651 C655 1.400 . S
C652 H637 0.960 . S
C652 H638 0.960 . S
C652 H639 0.960 . S
C652 C651 1.524 . S
C653 C650 1.403 . S
C653 C654 1.392 . S
C653 C657 1.495 . S
C654 C653 1.392 . S
C654 C655 1.385 . S
C654 C656 1.478 . S
C655 H649 0.930 . S
C655 C651 1.400 . S
C655 C654 1.385 . S
C656 C654 1.478 . S
C656 C658 1.381 . S
C656 C662 1.383 . S
C657 C653 1.495 . S
C657 H663 0.959 . S
C657 H664 0.961 . S
C657 H665 0.960 . S
C658 C656 1.381 . S
C658 C659 1.394 . S
C658 H666 0.930 . S
C659 C658 1.394 . S
C659 C660 1.383 . S
C659 H667 0.929 . S
C660 C659 1.383 . S
C660 C661 1.377 . S
C661 H645 0.930 . S
C661 C660 1.377 . S
C661 C662 1.379 . S
C662 H646 0.931 . S
C662 C656 1.383 . S
C662 C661 1.379 . S
H663 C657 0.959 . S
H664 C657 0.961 . S
H665 C657 0.960 . S
H666 C658 0.930 . S
H667 C659 0.929 . S
H668 C676 0.929 . S
H669 C678 0.930 . S
H670 C680 0.930 . S
H671 C683 0.929 . S
H672 C686 0.929 1_455 S
H673 C688 0.960 . S
H674 C688 0.960 . S
H675 C688 0.960 . S
C676 H668 0.929 . S
C676 C677 1.404 . S
C676 C678 1.384 . S
C677 C676 1.404 . S
C677 C683 1.367 1_545 S
C678 H669 0.930 . S
C678 C676 1.384 . S
C678 C679 1.372 . S
C679 C678 1.372 . S
C679 C680 1.400 1_545 S
C679 C684 1.490 . S
C680 H670 0.930 . S
C680 C679 1.400 1_565 S
C680 C683 1.386 . S
H681 C697 0.925 1_465 S
H682 C698 0.923 1_465 S
C683 H671 0.929 . S
C683 C677 1.367 1_565 S
C683 C680 1.386 . S
C684 C679 1.490 . S
C684 C686 1.396 . S
C684 C687 1.403 1_545 S
H685 C691 0.926 1_565 S
C686 H672 0.929 1_655 S
C686 C684 1.396 . S
C686 C689 1.403 1_655 S
C687 C684 1.403 1_565 S
C687 C688 1.524 . S
C687 C691 1.398 1_565 S
C688 H673 0.960 . S
C688 H674 0.960 . S
C688 H675 0.960 . S
C688 C687 1.524 . S
C689 C686 1.403 1_455 S
C689 C690 1.392 1_455 S
C689 C693 1.495 . S
C690 C689 1.392 1_655 S
C690 C691 1.391 . S
C690 C692 1.478 . S
C691 H685 0.926 1_545 S
C691 C687 1.398 1_545 S
C691 C690 1.391 . S
C692 C690 1.478 . S
C692 C694 1.381 . S
C692 C698 1.391 . S
C693 C689 1.495 . S
C693 H699 0.959 . S
C693 H700 0.961 . S
C693 H701 0.960 . S
C694 C692 1.381 . S
C694 C695 1.394 . S
C694 H702 0.930 . S
C695 C694 1.394 . S
C695 C696 1.383 . S
C695 H703 0.929 . S
C696 C695 1.383 . S
C696 C697 1.381 . S
C697 H681 0.925 1_645 S
C697 C696 1.381 . S
C697 C698 1.379 . S
C698 H682 0.923 1_645 S
C698 C692 1.391 . S
C698 C697 1.379 . S
H699 C693 0.959 . S
H700 C693 0.961 . S
H701 C693 0.960 . S
H702 C694 0.930 . S
H703 C695 0.929 . S
H704 C712 0.929 . S
H705 C714 0.930 . S
H706 C716 0.930 . S
H707 C719 0.929 . S
H708 C722 0.930 . S
H709 C724 0.960 . S
H710 C724 0.960 . S
H711 C724 0.960 . S
C712 H704 0.929 . S
C712 C713 1.377 . S
C712 C714 1.384 . S
C713 C712 1.377 . S
C713 C719 1.390 . S
C714 H705 0.930 . S
C714 C712 1.384 . S
C714 C715 1.372 . S
C715 C714 1.372 . S
C715 C716 1.400 . S
C715 C720 1.490 . S
C716 H706 0.930 . S
C716 C715 1.400 . S
C716 C719 1.386 . S
H717 C733 0.930 . S
H718 C734 0.931 . S
C719 H707 0.929 . S
C719 C713 1.390 . S
C719 C716 1.386 . S
C720 C715 1.490 . S
C720 C722 1.395 . S
C720 C723 1.403 . S
H721 C727 0.930 . S
C722 H708 0.930 . S
C722 C720 1.395 . S
C722 C725 1.403 . S
C723 C720 1.403 . S
C723 C724 1.524 . S
C723 C727 1.400 . S
C724 H709 0.960 . S
C724 H710 0.960 . S
C724 H711 0.960 . S
C724 C723 1.524 . S
C725 C722 1.403 . S
C725 C726 1.392 . S
C725 C729 1.495 . S
C726 C725 1.392 . S
C726 C727 1.385 . S
C726 C728 1.478 . S
C727 H721 0.930 . S
C727 C723 1.400 . S
C727 C726 1.385 . S
C728 C726 1.478 . S
C728 C730 1.381 . S
C728 C734 1.383 . S
C729 C725 1.495 . S
C729 H735 0.959 . S
C729 H736 0.961 . S
C729 H737 0.960 . S
C730 C728 1.381 . S
C730 C731 1.394 . S
C730 H738 0.930 . S
C731 C730 1.394 . S
C731 C732 1.383 . S
C731 H739 0.929 . S
C732 C731 1.383 . S
C732 C733 1.377 . S
C733 H717 0.930 . S
C733 C732 1.377 . S
C733 C734 1.379 . S
C734 H718 0.931 . S
C734 C728 1.383 . S
C734 C733 1.379 . S
H735 C729 0.959 . S
H736 C729 0.961 . S
H737 C729 0.960 . S
H738 C730 0.930 . S
H739 C731 0.929 . S
H740 C748 0.929 . S
H741 C750 0.930 . S
H742 C752 0.930 . S
H743 C755 0.929 . S
H744 C758 0.930 . S
H745 C760 0.960 . S
H746 C760 0.960 . S
H747 C760 0.960 . S
C748 H740 0.929 . S
C748 C749 1.377 . S
C748 C750 1.384 . S
C749 C748 1.377 . S
C749 C755 1.390 . S
C750 H741 0.930 . S
C750 C748 1.384 . S
C750 C751 1.372 . S
C751 C750 1.372 . S
C751 C752 1.400 . S
C751 C756 1.490 . S
C752 H742 0.930 . S
C752 C751 1.400 . S
C752 C755 1.386 . S
H753 C769 0.930 . S
H754 C770 0.931 . S
C755 H743 0.929 . S
C755 C749 1.390 . S
C755 C752 1.386 . S
C756 C751 1.490 . S
C756 C758 1.395 . S
C756 C759 1.403 . S
H757 C763 0.930 . S
C758 H744 0.930 . S
C758 C756 1.395 . S
C758 C761 1.403 . S
C759 C756 1.403 . S
C759 C760 1.524 . S
C759 C763 1.400 . S
C760 H745 0.960 . S
C760 H746 0.960 . S
C760 H747 0.960 . S
C760 C759 1.524 . S
C761 C758 1.403 . S
C761 C762 1.392 . S
C761 C765 1.495 . S
C762 C761 1.392 . S
C762 C763 1.385 . S
C762 C764 1.478 . S
C763 H757 0.930 . S
C763 C759 1.400 . S
C763 C762 1.385 . S
C764 C762 1.478 . S
C764 C766 1.381 . S
C764 C770 1.383 . S
C765 C761 1.495 . S
C765 H771 0.959 . S
C765 H772 0.961 . S
C765 H773 0.960 . S
C766 C764 1.381 . S
C766 C767 1.394 . S
C766 H774 0.930 . S
C767 C766 1.394 . S
C767 C768 1.383 . S
C767 H775 0.929 . S
C768 C767 1.383 . S
C768 C769 1.377 . S
C769 H753 0.930 . S
C769 C768 1.377 . S
C769 C770 1.379 . S
C770 H754 0.931 . S
C770 C764 1.383 . S
C770 C769 1.379 . S
H771 C765 0.959 . S
H772 C765 0.961 . S
H773 C765 0.960 . S
H774 C766 0.930 . S
H775 C767 0.929 . S
H776 C784 0.929 . S
H777 C786 0.930 . S
H778 C788 0.930 . S
H779 C791 0.929 . S
H780 C794 0.930 . S
H781 C796 0.960 . S
H782 C796 0.960 . S
H783 C796 0.960 . S
C784 H776 0.929 . S
C784 C785 1.377 . S
C784 C786 1.384 . S
C785 C784 1.377 . S
C785 C791 1.390 . S
C786 H777 0.930 . S
C786 C784 1.384 . S
C786 C787 1.372 . S
C787 C786 1.372 . S
C787 C788 1.400 . S
C787 C792 1.490 . S
C788 H778 0.930 . S
C788 C787 1.400 . S
C788 C791 1.386 . S
H789 C805 0.930 . S
H790 C806 0.931 . S
C791 H779 0.929 . S
C791 C785 1.390 . S
C791 C788 1.386 . S
C792 C787 1.490 . S
C792 C794 1.395 . S
C792 C795 1.403 . S
H793 C799 0.930 . S
C794 H780 0.930 . S
C794 C792 1.395 . S
C794 C797 1.403 . S
C795 C792 1.403 . S
C795 C796 1.524 . S
C795 C799 1.400 . S
C796 H781 0.960 . S
C796 H782 0.960 . S
C796 H783 0.960 . S
C796 C795 1.524 . S
C797 C794 1.403 . S
C797 C798 1.392 . S
C797 C801 1.495 . S
C798 C797 1.392 . S
C798 C799 1.385 . S
C798 C800 1.478 . S
C799 H793 0.930 . S
C799 C795 1.400 . S
C799 C798 1.385 . S
C800 C798 1.478 . S
C800 C802 1.381 . S
C800 C806 1.383 . S
C801 C797 1.495 . S
C801 H807 0.959 . S
C801 H808 0.961 . S
C801 H809 0.960 . S
C802 C800 1.381 . S
C802 C803 1.394 . S
C802 H810 0.930 . S
C803 C802 1.394 . S
C803 C804 1.383 . S
C803 H811 0.929 . S
C804 C803 1.383 . S
C804 C805 1.377 . S
C805 H789 0.930 . S
C805 C804 1.377 . S
C805 C806 1.379 . S
C806 H790 0.931 . S
C806 C800 1.383 . S
C806 C805 1.379 . S
H807 C801 0.959 . S
H808 C801 0.961 . S
H809 C801 0.960 . S
H810 C802 0.930 . S
H811 C803 0.929 . S
H812 C820 0.929 . S
H813 C822 0.930 1_556 S
H814 C824 0.930 . S
H815 C827 0.929 . S
H816 C830 0.930 . S
H817 C832 0.960 . S
H818 C832 0.960 . S
H819 C832 0.960 . S
C820 H812 0.929 . S
C820 C821 1.377 1_556 S
C820 C822 1.384 1_556 S
C821 C820 1.377 1_554 S
C821 C827 1.390 . S
C822 H813 0.930 1_554 S
C822 C820 1.384 1_554 S
C822 C823 1.372 . S
C823 C822 1.372 . S
C823 C824 1.400 . S
C823 C828 1.490 . S
C824 H814 0.930 . S
C824 C823 1.400 . S
C824 C827 1.386 . S
H825 C841 0.930 . S
H826 C842 0.931 . S
C827 H815 0.929 . S
C827 C821 1.390 . S
C827 C824 1.386 . S
C828 C823 1.490 . S
C828 C830 1.395 1_545 S
C828 C831 1.403 . S
H829 C835 0.930 . S
C830 H816 0.930 . S
C830 C828 1.395 1_565 S
C830 C833 1.403 . S
C831 C828 1.403 . S
C831 C832 1.524 . S
C831 C835 1.400 . S
C832 H817 0.960 . S
C832 H818 0.960 . S
C832 H819 0.960 . S
C832 C831 1.524 . S
C833 C830 1.403 . S
C833 C834 1.392 1_565 S
C833 C837 1.495 . S
C834 C833 1.392 1_545 S
C834 C835 1.385 . S
C834 C836 1.478 . S
C835 H829 0.930 . S
C835 C831 1.400 . S
C835 C834 1.385 . S
C836 C834 1.478 . S
C836 C838 1.381 . S
C836 C842 1.383 . S
C837 C833 1.495 . S
C837 H843 0.959 . S
C837 H844 0.961 . S
C837 H845 0.960 . S
C838 C836 1.381 . S
C838 C839 1.394 . S
C838 H846 0.930 . S
C839 C838 1.394 . S
C839 C840 1.383 . S
C839 H847 0.929 . S
C840 C839 1.383 . S
C840 C841 1.377 . S
C841 H825 0.930 . S
C841 C840 1.377 . S
C841 C842 1.379 . S
C842 H826 0.931 . S
C842 C836 1.383 . S
C842 C841 1.379 . S
H843 C837 0.959 . S
H844 C837 0.961 . S
H845 C837 0.960 . S
H846 C838 0.930 . S
H847 C839 0.929 . S
H848 C856 0.929 . S
H849 C858 0.930 . S
H850 C860 0.930 . S
H851 C863 0.929 . S
H852 C866 0.930 . S
H853 C868 0.960 . S
H854 C868 0.960 . S
H855 C868 0.960 . S
C856 H848 0.929 . S
C856 C857 1.377 . S
C856 C858 1.384 . S
C857 C856 1.377 . S
C857 C863 1.390 . S
C858 H849 0.930 . S
C858 C856 1.384 . S
C858 C859 1.372 . S
C859 C858 1.372 . S
C859 C860 1.400 . S
C859 C864 1.490 . S
C860 H850 0.930 . S
C860 C859 1.400 . S
C860 C863 1.386 . S
H861 C877 0.930 . S
H862 C878 0.931 . S
C863 H851 0.929 . S
C863 C857 1.390 . S
C863 C860 1.386 . S
C864 C859 1.490 . S
C864 C866 1.395 . S
C864 C867 1.403 . S
H865 C871 0.930 . S
C866 H852 0.930 . S
C866 C864 1.395 . S
C866 C869 1.403 . S
C867 C864 1.403 . S
C867 C868 1.524 . S
C867 C871 1.400 . S
C868 H853 0.960 . S
C868 H854 0.960 . S
C868 H855 0.960 . S
C868 C867 1.524 . S
C869 C866 1.403 . S
C869 C870 1.392 . S
C869 C873 1.495 . S
C870 C869 1.392 . S
C870 C871 1.385 . S
C870 C872 1.478 . S
C871 H865 0.930 . S
C871 C867 1.400 . S
C871 C870 1.385 . S
C872 C870 1.478 . S
C872 C874 1.381 . S
C872 C878 1.383 . S
C873 C869 1.495 . S
C873 H879 0.959 . S
C873 H880 0.961 . S
C873 H881 0.960 . S
C874 C872 1.381 . S
C874 C875 1.394 . S
C874 H882 0.930 . S
C875 C874 1.394 . S
C875 C876 1.383 . S
C875 H883 0.929 . S
C876 C875 1.383 . S
C876 C877 1.377 . S
C877 H861 0.930 . S
C877 C876 1.377 . S
C877 C878 1.379 . S
C878 H862 0.931 . S
C878 C872 1.383 . S
C878 C877 1.379 . S
H879 C873 0.959 . S
H880 C873 0.961 . S
H881 C873 0.960 . S
H882 C874 0.930 . S
H883 C875 0.929 . S
H884 C892 0.929 . S
H885 C894 0.930 . S
H886 C896 0.930 . S
H887 C899 0.929 . S
H888 C902 0.930 . S
H889 C904 0.960 . S
H890 C904 0.960 . S
H891 C904 0.960 . S
C892 H884 0.929 . S
C892 C893 1.377 . S
C892 C894 1.384 . S
C893 C892 1.377 . S
C893 C899 1.390 . S
C894 H885 0.930 . S
C894 C892 1.384 . S
C894 C895 1.372 . S
C895 C894 1.372 . S
C895 C896 1.400 . S
C895 C900 1.490 . S
C896 H886 0.930 . S
C896 C895 1.400 . S
C896 C899 1.386 . S
H897 C913 0.930 . S
H898 C914 0.931 . S
C899 H887 0.929 . S
C899 C893 1.390 . S
C899 C896 1.386 . S
C900 C895 1.490 . S
C900 C902 1.395 . S
C900 C903 1.403 . S
H901 C907 0.930 . S
C902 H888 0.930 . S
C902 C900 1.395 . S
C902 C905 1.403 . S
C903 C900 1.403 . S
C903 C904 1.524 . S
C903 C907 1.400 . S
C904 H889 0.960 . S
C904 H890 0.960 . S
C904 H891 0.960 . S
C904 C903 1.524 . S
C905 C902 1.403 . S
C905 C906 1.392 . S
C905 C909 1.495 . S
C906 C905 1.392 . S
C906 C907 1.385 . S
C906 C908 1.478 . S
C907 H901 0.930 . S
C907 C903 1.400 . S
C907 C906 1.385 . S
C908 C906 1.478 . S
C908 C910 1.381 . S
C908 C914 1.383 . S
C909 C905 1.495 . S
C909 H915 0.959 . S
C909 H916 0.961 . S
C909 H917 0.960 . S
C910 C908 1.381 . S
C910 C911 1.394 . S
C910 H918 0.930 . S
C911 C910 1.394 . S
C911 C912 1.383 . S
C911 H919 0.929 . S
C912 C911 1.383 . S
C912 C913 1.377 . S
C913 H897 0.930 . S
C913 C912 1.377 . S
C913 C914 1.379 . S
C914 H898 0.931 . S
C914 C908 1.383 . S
C914 C913 1.379 . S
H915 C909 0.959 . S
H916 C909 0.961 . S
H917 C909 0.960 . S
H918 C910 0.930 . S
H919 C911 0.929 . S
H920 C928 0.929 . S
H921 C930 0.930 . S
H922 C932 0.930 . S
H923 C935 0.929 . S
H924 C938 0.930 . S
H925 C940 0.960 . S
H926 C940 0.960 . S
H927 C940 0.960 . S
C928 H920 0.929 . S
C928 C929 1.377 . S
C928 C930 1.384 . S
C929 C928 1.377 . S
C929 C935 1.390 . S
C930 H921 0.930 . S
C930 C928 1.384 . S
C930 C931 1.372 . S
C931 C930 1.372 . S
C931 C932 1.400 . S
C931 C936 1.490 . S
C932 H922 0.930 . S
C932 C931 1.400 . S
C932 C935 1.386 . S
H933 C949 0.930 . S
H934 C950 0.931 . S
C935 H923 0.929 . S
C935 C929 1.390 . S
C935 C932 1.386 . S
C936 C931 1.490 . S
C936 C938 1.395 . S
C936 C939 1.403 . S
H937 C943 0.930 . S
C938 H924 0.930 . S
C938 C936 1.395 . S
C938 C941 1.403 . S
C939 C936 1.403 . S
C939 C940 1.524 . S
C939 C943 1.400 . S
C940 H925 0.960 . S
C940 H926 0.960 . S
C940 H927 0.960 . S
C940 C939 1.524 . S
C941 C938 1.403 . S
C941 C942 1.392 . S
C941 C945 1.495 . S
C942 C941 1.392 . S
C942 C943 1.385 . S
C942 C944 1.478 . S
C943 H937 0.930 . S
C943 C939 1.400 . S
C943 C942 1.385 . S
C944 C942 1.478 . S
C944 C946 1.381 . S
C944 C950 1.383 . S
C945 C941 1.495 . S
C945 H951 0.959 . S
C945 H952 0.961 . S
C945 H953 0.960 . S
C946 C944 1.381 . S
C946 C947 1.394 . S
C946 H954 0.930 . S
C947 C946 1.394 . S
C947 C948 1.383 . S
C947 H955 0.929 . S
C948 C947 1.383 . S
C948 C949 1.377 . S
C949 H933 0.930 . S
C949 C948 1.377 . S
C949 C950 1.379 . S
C950 H934 0.931 . S
C950 C944 1.383 . S
C950 C949 1.379 . S
H951 C945 0.959 . S
H952 C945 0.961 . S
H953 C945 0.960 . S
H954 C946 0.930 . S
H955 C947 0.929 . S
H956 C964 0.929 . S
H957 C966 0.930 . S
H958 C968 0.930 . S
H959 C971 0.929 . S
H960 C974 0.930 . S
H961 C976 0.960 . S
H962 C976 0.960 . S
H963 C976 0.960 . S
C964 H956 0.929 . S
C964 C965 1.377 1_455 S
C964 C966 1.384 . S
C965 C964 1.377 1_655 S
C965 C971 1.390 . S
C966 H957 0.930 . S
C966 C964 1.384 . S
C966 C967 1.372 1_455 S
C967 C966 1.372 1_655 S
C967 C968 1.400 . S
C967 C972 1.490 . S
C968 H958 0.930 . S
C968 C967 1.400 . S
C968 C971 1.386 . S
H969 C985 0.930 . S
H970 C986 0.931 . S
C971 H959 0.929 . S
C971 C965 1.390 . S
C971 C968 1.386 . S
C972 C967 1.490 . S
C972 C974 1.395 1_656 S
C972 C975 1.403 . S
H973 C979 0.930 . S
C974 H960 0.930 . S
C974 C972 1.395 1_454 S
C974 C977 1.403 . S
C975 C972 1.403 . S
C975 C976 1.524 . S
C975 C979 1.400 . S
C976 H961 0.960 . S
C976 H962 0.960 . S
C976 H963 0.960 . S
C976 C975 1.524 . S
C977 C974 1.403 . S
C977 C978 1.392 1_554 S
C977 C981 1.495 . S
C978 C977 1.392 1_556 S
C978 C979 1.385 1_455 S
C978 C980 1.478 1_556 S
C979 H973 0.930 . S
C979 C975 1.400 . S
C979 C978 1.385 1_655 S
C980 C978 1.478 1_554 S
C980 C982 1.378 1_554 S
C980 C986 1.383 1_455 S
C981 C977 1.495 . S
C981 H987 0.959 . S
C981 H988 0.961 . S
C981 H989 0.960 . S
C982 C980 1.378 1_556 S
C982 C983 1.391 1_556 S
C982 H990 0.938 . S
C983 C982 1.391 1_554 S
C983 C984 1.383 . S
C983 H991 0.929 1_554 S
C984 C983 1.383 . S
C984 C985 1.377 1_455 S
C985 H969 0.930 . S
C985 C984 1.377 1_655 S
C985 C986 1.379 . S
C986 H970 0.931 . S
C986 C980 1.383 1_655 S
C986 C985 1.379 . S
H987 C981 0.959 . S
H988 C981 0.961 . S
H989 C981 0.960 . S
H990 C982 0.938 . S
H991 C983 0.929 1_556 S
H992 C1000 0.929 . S
H993 C1002 0.930 . S
H994 C1004 0.930 . S
H995 C1007 0.929 . S
H996 C1010 0.930 . S
H997 C1012 0.960 . S
H998 C1012 0.960 . S
H999 C1012 0.960 . S
C1000 H992 0.929 . S
C1000 C1001 1.377 . S
C1000 C1002 1.384 . S
C1001 C1000 1.377 . S
C1001 C1007 1.390 . S
C1002 H993 0.930 . S
C1002 C1000 1.384 . S
C1002 C1003 1.372 . S
C1003 C1002 1.372 . S
C1003 C1004 1.400 . S
C1003 C1008 1.490 . S
C1004 H994 0.930 . S
C1004 C1003 1.400 . S
C1004 C1007 1.386 . S
H1005 C1021 0.930 . S
H1006 C1022 0.931 . S
C1007 H995 0.929 . S
C1007 C1001 1.390 . S
C1007 C1004 1.386 . S
C1008 C1003 1.490 . S
C1008 C1010 1.395 . S
C1008 C1011 1.403 . S
H1009 C1015 0.930 . S
C1010 H996 0.930 . S
C1010 C1008 1.395 . S
C1010 C1013 1.403 . S
C1011 C1008 1.403 . S
C1011 C1012 1.524 . S
C1011 C1015 1.400 . S
C1012 H997 0.960 . S
C1012 H998 0.960 . S
C1012 H999 0.960 . S
C1012 C1011 1.524 . S
C1013 C1010 1.403 . S
C1013 C1014 1.392 . S
C1013 C1017 1.495 . S
C1014 C1013 1.392 . S
C1014 C1015 1.385 . S
C1014 C1016 1.478 . S
C1015 H1009 0.930 . S
C1015 C1011 1.400 . S
C1015 C1014 1.385 . S
C1016 C1014 1.478 . S
C1016 C1018 1.381 . S
C1016 C1022 1.383 . S
C1017 C1013 1.495 . S
C1017 H1023 0.959 . S
C1017 H1024 0.961 . S
C1017 H1025 0.960 . S
C1018 C1016 1.381 . S
C1018 C1019 1.394 . S
C1018 H1026 0.930 . S
C1019 C1018 1.394 . S
C1019 C1020 1.383 . S
C1019 H1027 0.929 . S
C1020 C1019 1.383 . S
C1020 C1021 1.377 . S
C1021 H1005 0.930 . S
C1021 C1020 1.377 . S
C1021 C1022 1.379 . S
C1022 H1006 0.931 . S
C1022 C1016 1.383 . S
C1022 C1021 1.379 . S
H1023 C1017 0.959 . S
H1024 C1017 0.961 . S
H1025 C1017 0.960 . S
H1026 C1018 0.930 . S
H1027 C1019 0.929 . S
H1028 C1036 0.929 . S
H1029 C1038 0.930 . S
H1030 C1040 0.930 . S
H1031 C1043 0.929 . S
H1032 C1046 0.930 . S
H1033 C1048 0.960 . S
H1034 C1048 0.960 . S
H1035 C1048 0.960 . S
C1036 H1028 0.929 . S
C1036 C1037 1.377 . S
C1036 C1038 1.384 . S
C1037 C1036 1.377 . S
C1037 C1043 1.390 . S
C1038 H1029 0.930 . S
C1038 C1036 1.384 . S
C1038 C1039 1.372 . S
C1039 C1038 1.372 . S
C1039 C1040 1.400 . S
C1039 C1044 1.490 . S
C1040 H1030 0.930 . S
C1040 C1039 1.400 . S
C1040 C1043 1.386 . S
H1041 C1057 0.930 . S
H1042 C1058 0.931 . S
C1043 H1031 0.929 . S
C1043 C1037 1.390 . S
C1043 C1040 1.386 . S
C1044 C1039 1.490 . S
C1044 C1046 1.395 . S
C1044 C1047 1.403 . S
H1045 C1051 0.930 . S
C1046 H1032 0.930 . S
C1046 C1044 1.395 . S
C1046 C1049 1.403 . S
C1047 C1044 1.403 . S
C1047 C1048 1.524 . S
C1047 C1051 1.400 . S
C1048 H1033 0.960 . S
C1048 H1034 0.960 . S
C1048 H1035 0.960 . S
C1048 C1047 1.524 . S
C1049 C1046 1.403 . S
C1049 C1050 1.392 . S
C1049 C1053 1.495 . S
C1050 C1049 1.392 . S
C1050 C1051 1.385 . S
C1050 C1052 1.478 . S
C1051 H1045 0.930 . S
C1051 C1047 1.400 . S
C1051 C1050 1.385 . S
C1052 C1050 1.478 . S
C1052 C1054 1.381 . S
C1052 C1058 1.383 . S
C1053 C1049 1.495 . S
C1053 H1059 0.959 . S
C1053 H1060 0.961 . S
C1053 H1061 0.960 1_455 S
C1054 C1052 1.381 . S
C1054 C1055 1.394 . S
C1054 H1062 0.930 1_455 S
C1055 C1054 1.394 . S
C1055 C1056 1.383 . S
C1055 H1063 0.929 1_455 S
C1056 C1055 1.383 . S
C1056 C1057 1.377 . S
C1057 H1041 0.930 . S
C1057 C1056 1.377 . S
C1057 C1058 1.379 . S
C1058 H1042 0.931 . S
C1058 C1052 1.383 . S
C1058 C1057 1.379 . S
H1059 C1053 0.959 . S
H1060 C1053 0.961 . S
H1061 C1053 0.960 1_655 S
H1062 C1054 0.930 1_655 S
H1063 C1055 0.929 1_655 S
H1064 C1072 0.929 . S
H1065 C1074 0.930 . S
H1066 C1076 0.930 . S
H1067 C1079 0.929 . S
H1068 C1082 0.930 . S
H1069 C1084 0.960 . S
H1070 C1084 0.960 . S
H1071 C1084 0.960 . S
C1072 H1064 0.929 . S
C1072 C1073 1.377 . S
C1072 C1074 1.384 . S
C1073 C1072 1.377 . S
C1073 C1079 1.390 . S
C1074 H1065 0.930 . S
C1074 C1072 1.384 . S
C1074 C1075 1.372 . S
C1075 C1074 1.372 . S
C1075 C1076 1.400 . S
C1075 C1080 1.490 . S
C1076 H1066 0.930 . S
C1076 C1075 1.400 . S
C1076 C1079 1.386 . S
H1077 C1093 0.930 . S
H1078 C1094 0.931 . S
C1079 H1067 0.929 . S
C1079 C1073 1.390 . S
C1079 C1076 1.386 . S
C1080 C1075 1.490 . S
C1080 C1082 1.395 . S
C1080 C1083 1.403 . S
H1081 C1087 0.930 . S
C1082 H1068 0.930 . S
C1082 C1080 1.395 . S
C1082 C1085 1.403 . S
C1083 C1080 1.403 . S
C1083 C1084 1.524 . S
C1083 C1087 1.400 . S
C1084 H1069 0.960 . S
C1084 H1070 0.960 . S
C1084 H1071 0.960 . S
C1084 C1083 1.524 . S
C1085 C1082 1.403 . S
C1085 C1086 1.392 . S
C1085 C1089 1.495 . S
C1086 C1085 1.392 . S
C1086 C1087 1.385 . S
C1086 C1088 1.478 . S
C1087 H1081 0.930 . S
C1087 C1083 1.400 . S
C1087 C1086 1.385 . S
C1088 C1086 1.478 . S
C1088 C1090 1.381 . S
C1088 C1094 1.383 . S
C1089 C1085 1.495 . S
C1089 H1095 0.959 . S
C1089 H1096 0.961 . S
C1089 H1097 0.960 . S
C1090 C1088 1.381 . S
C1090 C1091 1.394 . S
C1090 H1098 0.930 . S
C1091 C1090 1.394 . S
C1091 C1092 1.383 . S
C1091 H1099 0.929 . S
C1092 C1091 1.383 . S
C1092 C1093 1.377 . S
C1093 H1077 0.930 . S
C1093 C1092 1.377 . S
C1093 C1094 1.379 . S
C1094 H1078 0.931 . S
C1094 C1088 1.383 . S
C1094 C1093 1.379 . S
H1095 C1089 0.959 . S
H1096 C1089 0.961 . S
H1097 C1089 0.960 . S
H1098 C1090 0.930 . S
H1099 C1091 0.929 . S
C245 C6 1.866 . S
C264 C155 1.746 . S
C281 C21 2.137 . S
C300 C189 1.966 1_565 S
C336 C201 0.774 . S
C317 C49 0.775 . S
C353 C68 1.172 . S
C372 C235 1.098 . S
C408 C192 2.238 . S
C389 C2 2.400 . S
C444 C172 1.212 . S
C425 C30 1.123 . S
C480 C219 1.183 1_556 S
C461 C40 1.276 . S
C516 C210 1.289 . S
C497 C63 1.330 . S
C533 C11 1.464 . S
C552 C218 1.544 . S
C588 C180 1.567 . S
C569 C44 1.691 . S
C605 C59 1.087 . S
C624 C156 0.959 . S
C641 C25 1.841 . S
C660 C213 1.765 . S
C696 C171 2.033 . S
C677 C82 2.160 1_545 S
C713 C101 1.868 . S
C732 C193 1.759 . S
C749 C125 1.395 . S
C768 C198 1.367 . S
C785 C144 0.968 . S
C804 C231 1.013 . S
C821 C87 1.242 1_554 S
C840 C176 1.346 . S
C876 C168 2.195 . S
C857 C97 2.359 . S
C912 C222 1.320 . S
C893 C120 1.384 . S
C948 C214 1.290 . S
C929 C135 1.365 . S
C965 C78 1.947 . S
C984 C234 1.871 . S
C1020 C177 1.137 . S
C1001 C116 1.224 . S
C1056 C159 1.636 . S
C1037 C139 1.762 . S
C1073 C106 1.515 . S
C1092 C197 1.493 . S
