# Generated by pormake.
# Topology zzz, (3,6)-cn, num edge types: 1
# Building blocks:
#     Node 0, Type 0, BuildingBlock: BELTOD_clean_linker_0, # of connection points: 3
#     Node 1, Type 0, BuildingBlock: BELTOD_clean_linker_0, # of connection points: 3
#     Node 2, Type 0, BuildingBlock: BELTOD_clean_linker_0, # of connection points: 3
#     Node 3, Type 0, BuildingBlock: BELTOD_clean_linker_0, # of connection points: 3
#     Node 4, Type 0, BuildingBlock: BELTOD_clean_linker_0, # of connection points: 3
#     Node 5, Type 0, BuildingBlock: BELTOD_clean_linker_0, # of connection points: 3
#     Node 6, Type 0, BuildingBlock: BELTOD_clean_linker_0, # of connection points: 3
#     Node 7, Type 0, BuildingBlock: BELTOD_clean_linker_0, # of connection points: 3
#     Node 8, Type 1, BuildingBlock: CUKXOW_clean_sbu_0, # of connection points: 6
#     Node 9, Type 1, BuildingBlock: CUKXOW_clean_sbu_0, # of connection points: 6
#     Node 10, Type 1, BuildingBlock: CUKXOW_clean_sbu_0, # of connection points: 6
#     Node 11, Type 1, BuildingBlock: CUKXOW_clean_sbu_0, # of connection points: 6
#     Edge 12, Type (0, 1), BuildingBlock: EZIPEK_clean_linker_0, # of connection points: 2
#     Edge 13, Type (0, 1), BuildingBlock: EZIPEK_clean_linker_0, # of connection points: 2
#     Edge 14, Type (0, 1), BuildingBlock: EZIPEK_clean_linker_0, # of connection points: 2
#     Edge 15, Type (0, 1), BuildingBlock: EZIPEK_clean_linker_0, # of connection points: 2
#     Edge 16, Type (0, 1), BuildingBlock: EZIPEK_clean_linker_0, # of connection points: 2
#     Edge 17, Type (0, 1), BuildingBlock: EZIPEK_clean_linker_0, # of connection points: 2
#     Edge 18, Type (0, 1), BuildingBlock: EZIPEK_clean_linker_0, # of connection points: 2
#     Edge 19, Type (0, 1), BuildingBlock: EZIPEK_clean_linker_0, # of connection points: 2
#     Edge 20, Type (0, 1), BuildingBlock: EZIPEK_clean_linker_0, # of connection points: 2
#     Edge 21, Type (0, 1), BuildingBlock: EZIPEK_clean_linker_0, # of connection points: 2
#     Edge 22, Type (0, 1), BuildingBlock: EZIPEK_clean_linker_0, # of connection points: 2
#     Edge 23, Type (0, 1), BuildingBlock: EZIPEK_clean_linker_0, # of connection points: 2
#     Edge 24, Type (0, 1), BuildingBlock: EZIPEK_clean_linker_0, # of connection points: 2
#     Edge 25, Type (0, 1), BuildingBlock: EZIPEK_clean_linker_0, # of connection points: 2
#     Edge 26, Type (0, 1), BuildingBlock: EZIPEK_clean_linker_0, # of connection points: 2
#     Edge 27, Type (0, 1), BuildingBlock: EZIPEK_clean_linker_0, # of connection points: 2
#     Edge 28, Type (0, 1), BuildingBlock: EZIPEK_clean_linker_0, # of connection points: 2
#     Edge 29, Type (0, 1), BuildingBlock: EZIPEK_clean_linker_0, # of connection points: 2
#     Edge 30, Type (0, 1), BuildingBlock: EZIPEK_clean_linker_0, # of connection points: 2
#     Edge 31, Type (0, 1), BuildingBlock: EZIPEK_clean_linker_0, # of connection points: 2
#     Edge 32, Type (0, 1), BuildingBlock: EZIPEK_clean_linker_0, # of connection points: 2
#     Edge 33, Type (0, 1), BuildingBlock: EZIPEK_clean_linker_0, # of connection points: 2
#     Edge 34, Type (0, 1), BuildingBlock: EZIPEK_clean_linker_0, # of connection points: 2
#     Edge 35, Type (0, 1), BuildingBlock: EZIPEK_clean_linker_0, # of connection points: 2
# Relax obj value: 0.190
# Max RMSD: 0.214
# Mean RMSD: 0.175
data_MOF--net-zzz--node1-CUKXOW_clean_sbu_0--node2-BELTOD_clean_linker_0--edge1-EZIPEK_clean_linker_0
_symmetry_space_group_name_H-M    P1
_symmetry_Int_Tables_number       1
_symmetry_cell_setting            triclinic
loop_
_symmetry_equiv_pos_as_xyz
'x, y, z'
_cell_length_a     41.418067
_cell_length_b     41.264423
_cell_length_c     14.682315
_cell_angle_alpha  93.347272
_cell_angle_beta   87.465207
_cell_angle_gamma 95.785409
loop_
_atom_site_label
_atom_site_type_symbol
_atom_site_fract_x
_atom_site_fract_y
_atom_site_fract_z
_atom_type_partial_charge
P0 P 0.73913 0.38292 0.08946 0.0
H1 H 0.74896 0.35688 0.26681 0.0
H2 H 0.78771 0.37558 0.38489 0.0
H3 H 0.81087 0.46596 0.25249 0.0
H4 H 0.77261 0.44734 0.13407 0.0
H5 H 0.68887 0.35987 0.96392 0.0
H6 H 0.64566 0.38629 0.89759 0.0
H7 H 0.67334 0.4749 0.05764 0.0
H8 H 0.71572 0.44817 0.12663 0.0
H9 H 0.79516 0.34656 0.05422 0.0
H10 H 0.75743 0.43033 0.9503 0.0
O11 O 0.72773 0.3434 0.10165 0.0
H12 H 0.84829 0.36264 0.98127 0.0
H13 H 0.81052 0.44637 0.87832 0.0
C14 C 0.75736 0.40089 0.19216 0.0
C15 C 0.76133 0.38124 0.26494 0.0
C16 C 0.78355 0.39179 0.33209 0.0
C17 C 0.80205 0.42208 0.32698 0.0
C18 C 0.79654 0.44264 0.25783 0.0
C19 C 0.77442 0.43207 0.19073 0.0
C20 C 0.70525 0.40186 0.05112 0.0
C21 C 0.68528 0.38479 0.98612 0.0
C22 C 0.66085 0.39988 0.94772 0.0
C23 C 0.65646 0.43253 0.97256 0.0
C24 C 0.67643 0.44968 0.03767 0.0
C25 C 0.70058 0.43437 0.07712 0.0
C26 C 0.77222 0.38693 0.00661 0.0
C27 C 0.79782 0.36744 0.01215 0.0
C28 C 0.82813 0.37669 0.97118 0.0
C29 C 0.83308 0.40566 0.925 0.0
C30 C 0.80689 0.42382 0.91335 0.0
C31 C 0.77657 0.41449 0.95404 0.0
P32 P 0.97004 0.74861 0.12419 0.0
H33 H 0.00625 0.78144 0.27106 0.0
H34 H 0.99284 0.82522 0.37999 0.0
H35 H 0.89217 0.808 0.3115 0.0
H36 H 0.90582 0.76397 0.19978 0.0
H37 H 0.93472 0.73409 0.95406 0.0
H38 H 0.92348 0.68166 0.87231 0.0
H39 H 0.94032 0.63269 0.11458 0.0
H40 H 0.95127 0.68554 0.198 0.0
H41 H 0.02791 0.77883 0.02882 0.0
H42 H 0.92492 0.78836 0.04578 0.0
O43 O 0.00596 0.73525 0.14068 0.0
H44 H 0.03672 0.82765 0.94057 0.0
H45 H 0.93382 0.83698 0.95581 0.0
C46 C 0.95697 0.76923 0.22802 0.0
C47 C 0.98103 0.78596 0.28184 0.0
C48 C 0.97346 0.81119 0.34349 0.0
C49 C 0.9417 0.82012 0.35223 0.0
C50 C 0.91687 0.80144 0.30496 0.0
C51 C 0.92459 0.77623 0.24204 0.0
C52 C 0.94439 0.7138 0.08218 0.0
C53 C 0.9342 0.71238 0.99195 0.0
C54 C 0.92766 0.68231 0.94475 0.0
C55 C 0.93162 0.65353 0.98724 0.0
C56 C 0.9371 0.65478 0.08102 0.0
C57 C 0.94334 0.68494 0.12854 0.0
C58 C 0.97575 0.78 0.04371 0.0
C59 C 0.00712 0.79086 0.0117 0.0
C60 C 0.01217 0.81863 0.96119 0.0
C61 C 0.98591 0.83575 0.94221 0.0
C62 C 0.95429 0.82388 0.96976 0.0
C63 C 0.94929 0.7963 0.02117 0.0
P64 P 0.75199 0.0843 0.16383 0.0
H65 H 0.72154 0.10477 0.33693 0.0
H66 H 0.67895 0.07651 0.43216 0.0
H67 H 0.69227 0.98605 0.27987 0.0
H68 H 0.73525 0.01433 0.18442 0.0
H69 H 0.78037 0.09166 0.98149 0.0
H70 H 0.82992 0.0747 0.9046 0.0
H71 H 0.85254 0.02815 0.14613 0.0
H72 H 0.80213 0.04473 0.22335 0.0
H73 H 0.70377 0.12946 0.13371 0.0
H74 H 0.7294 0.0359 0.02282 0.0
O75 O 0.7626 0.12266 0.20157 0.0
H76 H 0.65673 0.12472 0.03553 0.0
H77 H 0.68245 0.03117 0.92539 0.0
C78 C 0.73207 0.06154 0.25463 0.0
C79 C 0.7165 0.07858 0.32655 0.0
C80 C 0.69196 0.06257 0.38041 0.0
C81 C 0.68248 0.02933 0.36253 0.0
C82 C 0.69948 0.01171 0.2948 0.0
C83 C 0.72416 0.02778 0.24099 0.0
C84 C 0.78713 0.06866 0.10727 0.0
C85 C 0.79553 0.0772 0.01759 0.0
C86 C 0.82387 0.06769 0.97374 0.0
C87 C 0.84471 0.05002 0.01945 0.0
C88 C 0.83652 0.04154 0.10957 0.0
C89 C 0.80784 0.0509 0.1534 0.0
C90 C 0.72053 0.08348 0.08332 0.0
C91 C 0.69968 0.10829 0.08701 0.0
C92 C 0.6728 0.1055 0.03181 0.0
C93 C 0.66638 0.07765 0.97347 0.0
C94 C 0.68726 0.05288 0.96978 0.0
C95 C 0.71408 0.05572 0.02476 0.0
P96 P 0.53188 0.76094 0.2503 0.0
H97 H 0.51982 0.73934 0.43447 0.0
H98 H 0.53997 0.69359 0.50368 0.0
H99 H 0.61792 0.69256 0.29942 0.0
H100 H 0.59669 0.73774 0.22656 0.0
H101 H 0.50212 0.80402 0.14175 0.0
H102 H 0.52203 0.85343 0.06489 0.0
H103 H 0.61748 0.84855 0.16621 0.0
H104 H 0.59726 0.79876 0.24515 0.0
H105 H 0.48702 0.70235 0.24939 0.0
H106 H 0.55846 0.74876 0.06358 0.0
O107 O 0.49731 0.76883 0.30615 0.0
H108 H 0.48085 0.65417 0.14353 0.0
H109 H 0.55181 0.70065 0.95685 0.0
C110 C 0.55667 0.74203 0.32509 0.0
C111 C 0.54208 0.73044 0.4064 0.0
C112 C 0.55347 0.70411 0.44581 0.0
C113 C 0.57983 0.6892 0.40503 0.0
C114 C 0.59731 0.70362 0.33118 0.0
C115 C 0.58541 0.72966 0.29032 0.0
C116 C 0.54817 0.79787 0.19916 0.0
C117 C 0.52728 0.81365 0.14832 0.0
C118 C 0.53859 0.84178 0.10452 0.0
C119 C 0.5711 0.85455 0.1103 0.0
C120 C 0.59226 0.83896 0.16152 0.0
C121 C 0.58076 0.81062 0.2061 0.0
C122 C 0.52253 0.72942 0.16324 0.0
C123 C 0.50059 0.70258 0.18461 0.0
C124 C 0.49721 0.67507 0.12465 0.0
C125 C 0.51586 0.674 0.04266 0.0
C126 C 0.53714 0.70122 0.01974 0.0
C127 C 0.54071 0.72869 0.08028 0.0
P128 P 0.23674 0.54932 0.32306 0.0
H129 H 0.25928 0.52048 0.14714 0.0
H130 H 0.22774 0.51294 0.00893 0.0
H131 H 0.17123 0.59076 0.10895 0.0
H132 H 0.20468 0.60033 0.24161 0.0
H133 H 0.2509 0.55121 0.51392 0.0
H134 H 0.30209 0.55198 0.59021 0.0
H135 H 0.3548 0.57362 0.33778 0.0
H136 H 0.30312 0.57273 0.26043 0.0
H137 H 0.17043 0.52303 0.30693 0.0
H138 H 0.2225 0.60115 0.46538 0.0
O139 O 0.23461 0.50867 0.32095 0.0
H140 H 0.11994 0.53449 0.38802 0.0
H141 H 0.1715 0.61184 0.55032 0.0
C142 C 0.23312 0.5598 0.20683 0.0
C143 C 0.24164 0.53742 0.13638 0.0
C144 C 0.2233 0.5328 0.05795 0.0
C145 C 0.19589 0.54996 0.05153 0.0
C146 C 0.19158 0.57646 0.1138 0.0
C147 C 0.21086 0.58198 0.18977 0.0
C148 C 0.27315 0.56282 0.38196 0.0
C149 C 0.27331 0.55783 0.47566 0.0
C150 C 0.30253 0.55798 0.51926 0.0
C151 C 0.33207 0.56287 0.4696 0.0
C152 C 0.33211 0.57017 0.37723 0.0
C153 C 0.30269 0.56981 0.3333 0.0
C154 C 0.20032 0.56016 0.38342 0.0
C155 C 0.17096 0.54266 0.35938 0.0
C156 C 0.14209 0.54962 0.40433 0.0
C157 C 0.14208 0.57397 0.47504 0.0
C158 C 0.17111 0.59311 0.49543 0.0
C159 C 0.20019 0.58649 0.4486 0.0
P160 P 0.1569 0.25281 0.34833 0.0
H161 H 0.19369 0.22662 0.18948 0.0
H162 H 0.1751 0.18457 0.07255 0.0
H163 H 0.0757 0.19552 0.15845 0.0
H164 H 0.09383 0.2378 0.27157 0.0
H165 H 0.164 0.29565 0.51135 0.0
H166 H 0.13157 0.33883 0.57486 0.0
H167 H 0.08037 0.3346 0.32421 0.0
H168 H 0.11431 0.29357 0.25844 0.0
H169 H 0.17065 0.18632 0.37294 0.0
H170 H 0.09731 0.24937 0.46568 0.0
O171 O 0.19708 0.25585 0.35822 0.0
H172 H 0.1358 0.13924 0.42831 0.0
H173 H 0.0631 0.20259 0.52174 0.0
C174 C 0.14517 0.23581 0.23824 0.0
C175 C 0.16791 0.22126 0.17969 0.0
C176 C 0.15738 0.197 0.1141 0.0
C177 C 0.12414 0.18664 0.10913 0.0
C178 C 0.10145 0.20311 0.1622 0.0
C179 C 0.11188 0.22772 0.22565 0.0
C180 C 0.14111 0.29093 0.38101 0.0
C181 C 0.14666 0.30492 0.4689 0.0
C182 C 0.12796 0.3292 0.50543 0.0
C183 C 0.1031 0.33919 0.45485 0.0
C184 C 0.09913 0.32678 0.36465 0.0
C185 C 0.11843 0.3032 0.3274 0.0
C186 C 0.13721 0.2216 0.41778 0.0
C187 C 0.14769 0.19025 0.40799 0.0
C188 C 0.12754 0.16336 0.43733 0.0
C189 C 0.0967 0.16758 0.47697 0.0
C190 C 0.08664 0.19896 0.48979 0.0
C191 C 0.10664 0.22576 0.45986 0.0
P192 P 0.30287 0.06372 0.36165 0.0
H193 H 0.30558 0.09163 0.18099 0.0
H194 H 0.34118 0.08327 0.04422 0.0
H195 H 0.38123 0.00553 0.17192 0.0
H196 H 0.34437 0.01171 0.30237 0.0
H197 H 0.25076 0.09161 0.46716 0.0
H198 H 0.1955 0.06983 0.51082 0.0
H199 H 0.20632 0.98352 0.33665 0.0
H200 H 0.26188 0.00575 0.29108 0.0
H201 H 0.36037 0.087 0.46297 0.0
H202 H 0.29279 0.00031 0.44547 0.0
O203 O 0.30806 0.10426 0.37776 0.0
H204 H 0.3983 0.05672 0.53942 0.0
H205 H 0.33124 0.97001 0.51836 0.0
C206 C 0.32259 0.05282 0.25331 0.0
C207 C 0.32137 0.07218 0.17824 0.0
C208 C 0.3419 0.06767 0.10075 0.0
C209 C 0.3646 0.04441 0.0989 0.0
C210 C 0.36436 0.02398 0.17206 0.0
C211 C 0.34317 0.02769 0.24735 0.0
C212 C 0.2602 0.05057 0.37457 0.0
C213 C 0.24102 0.06847 0.43594 0.0
C214 C 0.20959 0.05597 0.46147 0.0
C215 C 0.19699 0.02511 0.42711 0.0
C216 C 0.2157 0.00746 0.36348 0.0
C217 C 0.24719 0.02022 0.33708 0.0
C218 C 0.32374 0.046 0.44838 0.0
C219 C 0.35318 0.0619 0.47831 0.0
C220 C 0.37493 0.0446 0.52107 0.0
C221 C 0.36768 0.01113 0.53283 0.0
C222 C 0.33714 0.99587 0.50998 0.0
C223 C 0.31512 0.01333 0.46876 0.0
P224 P 0.36421 0.26249 0.29985 0.0
H225 H 0.3202 0.2847 0.1708 0.0
H226 H 0.33204 0.32635 0.05827 0.0
H227 H 0.43448 0.31821 0.07626 0.0
H228 H 0.42293 0.27705 0.18804 0.0
H229 H 0.34457 0.21625 0.4372 0.0
H230 H 0.3682 0.16808 0.48389 0.0
H231 H 0.4366 0.1745 0.25411 0.0
H232 H 0.41216 0.22193 0.20505 0.0
H233 H 0.35478 0.33004 0.34511 0.0
H234 H 0.42704 0.26486 0.38994 0.0
O235 O 0.32512 0.26282 0.33258 0.0
H236 H 0.39033 0.37592 0.40941 0.0
H237 H 0.46234 0.31085 0.45628 0.0
C238 C 0.37064 0.27731 0.18728 0.0
C239 C 0.34511 0.29057 0.14713 0.0
C240 C 0.35182 0.31464 0.08383 0.0
C241 C 0.38412 0.32576 0.06122 0.0
C242 C 0.4094 0.31002 0.0937 0.0
C243 C 0.40271 0.28592 0.15618 0.0
C244 C 0.37667 0.22286 0.31792 0.0
C245 C 0.36392 0.20672 0.39496 0.0
C246 C 0.37738 0.17928 0.42174 0.0
C247 C 0.40426 0.16802 0.3728 0.0
C248 C 0.41585 0.18292 0.29262 0.0
C249 C 0.40202 0.21016 0.26508 0.0
C250 C 0.38773 0.29386 0.36559 0.0
C251 C 0.37795 0.32547 0.37062 0.0
C252 C 0.39847 0.35172 0.40539 0.0
C253 C 0.42911 0.34676 0.436 0.0
C254 C 0.43896 0.31513 0.43157 0.0
C255 C 0.41851 0.28885 0.39559 0.0
Tb256 Tb 0.998 0.99058 0.6397 0.0
C257 C 0.07429 0.99841 0.61459 0.0
Tb258 Tb 0.04005 0.02473 0.79969 0.0
O259 O 0.00261 0.03289 0.55103 0.0
O260 O 0.02288 0.03561 0.6747 0.0
O261 O 0.04691 0.98122 0.58997 0.0
C262 C 0.06457 0.0721 0.91636 0.0
O263 O 0.07643 0.01855 0.68846 0.0
C264 C 0.0269 0.96151 0.80591 0.0
C265 C 0.96229 0.02148 0.81474 0.0
O266 O 0.08035 0.04869 0.87936 0.0
O267 O 0.03495 0.06809 0.89029 0.0
O268 O 0.0504 0.97818 0.8492 0.0
O269 O 0.0097 0.98148 0.77507 0.0
O270 O 0.99069 0.03226 0.85016 0.0
O271 O 0.95926 0.00394 0.73604 0.0
C272 C 0.96699 0.94052 0.54805 0.0
O273 O 0.95831 0.97008 0.55319 0.0
O274 O 0.99288 0.93941 0.59387 0.0
C275 C 0.02019 0.05235 0.60709 0.0
Tb276 Tb 0.50694 0.03756 0.64002 0.0
C277 C 0.56563 0.99867 0.57099 0.0
Tb278 Tb 0.5287 0.98611 0.76308 0.0
O279 O 0.54953 0.0714 0.67451 0.0
O280 O 0.53022 0.03707 0.76453 0.0
O281 O 0.54105 0.01425 0.54595 0.0
C282 C 0.56028 0.9532 0.87615 0.0
O283 O 0.56747 0.99013 0.65647 0.0
C284 C 0.48072 0.96587 0.65508 0.0
C285 C 0.46866 0.02327 0.83037 0.0
O286 O 0.54127 0.94035 0.81298 0.0
O287 O 0.56219 0.98473 0.87422 0.0
O288 O 0.48465 0.95404 0.73346 0.0
O289 O 0.50483 0.98618 0.63877 0.0
O290 O 0.49226 0.00646 0.85544 0.0
O291 O 0.46849 0.0356 0.74854 0.0
C292 C 0.47619 0.07493 0.53681 0.0
O293 O 0.50487 0.0822 0.56825 0.0
O294 O 0.46475 0.04638 0.56273 0.0
C295 C 0.55393 0.05774 0.74956 0.0
Tb296 Tb 0.51921 0.52453 0.65851 0.0
C297 C 0.44447 0.52802 0.64927 0.0
Tb298 Tb 0.47557 0.48887 0.80167 0.0
O299 O 0.50095 0.49037 0.54784 0.0
O300 O 0.50129 0.47493 0.67982 0.0
O301 O 0.47366 0.54102 0.62312 0.0
C302 C 0.44086 0.44133 0.89169 0.0
O303 O 0.43961 0.50589 0.71232 0.0
C304 C 0.50142 0.54662 0.85901 0.0
C305 C 0.55169 0.48679 0.80416 0.0
O306 O 0.42938 0.4673 0.86503 0.0
O307 O 0.47142 0.44298 0.86956 0.0
O308 O 0.49033 0.52388 0.91284 0.0
O309 O 0.49262 0.53776 0.77963 0.0
O310 O 0.52261 0.47284 0.82796 0.0
O311 O 0.55617 0.50983 0.74444 0.0
C312 C 0.55767 0.56982 0.57286 0.0
O313 O 0.55645 0.5386 0.55311 0.0
O314 O 0.53806 0.57521 0.64204 0.0
C315 C 0.49156 0.46668 0.60056 0.0
Tb316 Tb 0.96725 0.48069 0.63507 0.0
C317 C 0.01969 0.42889 0.63268 0.0
Tb318 Tb 0.0216 0.48712 0.7853 0.0
O319 O 0.99243 0.52248 0.56324 0.0
O320 O 0.01631 0.49626 0.64832 0.0
O321 O 0.99218 0.43702 0.60019 0.0
C322 C 0.07896 0.50562 0.8583 0.0
O323 O 0.03502 0.44444 0.70311 0.0
C324 C 0.96432 0.45977 0.83606 0.0
C325 C 0.96874 0.53806 0.78656 0.0
O326 O 0.05894 0.48083 0.88229 0.0
O327 O 0.06636 0.51951 0.79336 0.0
O328 O 0.98619 0.47135 0.89386 0.0
O329 O 0.97739 0.4603 0.75729 0.0
O330 O 0.99787 0.53161 0.81113 0.0
O331 O 0.95125 0.52002 0.72519 0.0
C332 C 0.91417 0.46078 0.54394 0.0
O333 O 0.91537 0.46447 0.63232 0.0
O334 O 0.94293 0.46808 0.50694 0.0
C335 C 0.01972 0.52135 0.60347 0.0
C336 C 0.13632 0.01768 0.42109 0.0
C337 C 0.16484 0.01104 0.46328 0.0
C338 C 0.13186 0.98605 0.58862 0.0
C339 C 0.10392 0.99743 0.5541 0.0
N340 N 0.07886 0.02413 0.43743 0.0
N341 N 0.19073 0.98865 0.58587 0.0
C342 C 0.10581 0.01268 0.4693 0.0
C343 C 0.16285 0.99468 0.54612 0.0
N344 N 0.13854 0.02884 0.33493 0.0
N345 N 0.12849 0.96669 0.66156 0.0
H346 H 0.21372 0.99332 0.55462 0.0
H347 H 0.19136 0.98046 0.65141 0.0
H348 H 0.10594 0.95981 0.69302 0.0
H349 H 0.14731 0.9551 0.68583 0.0
H350 H 0.11852 0.03119 0.29627 0.0
H351 H 0.16065 0.03326 0.29874 0.0
H352 H 0.07945 0.03967 0.38392 0.0
H353 H 0.05578 0.01919 0.46709 0.0
C354 C 0.4402 0.1531 0.49293 0.0
C355 C 0.42287 0.1438 0.41282 0.0
C356 C 0.4432 0.08995 0.4084 0.0
C357 C 0.45741 0.09819 0.49391 0.0
N358 N 0.46241 0.13489 0.62812 0.0
N359 N 0.4033 0.10181 0.30213 0.0
C360 C 0.45399 0.12902 0.53921 0.0
C361 C 0.42307 0.11174 0.37253 0.0
N362 N 0.44439 0.18514 0.52345 0.0
N363 N 0.44985 0.06195 0.36008 0.0
H364 H 0.38799 0.11706 0.27506 0.0
H365 H 0.40001 0.07774 0.27619 0.0
H366 H 0.465 0.04583 0.38376 0.0
H367 H 0.44267 0.05613 0.29353 0.0
H368 H 0.45969 0.19357 0.57603 0.0
H369 H 0.43529 0.20383 0.49055 0.0
H370 H 0.45723 0.15582 0.66693 0.0
H371 H 0.47126 0.11745 0.66644 0.0
C372 C 0.3718 0.52296 0.49634 0.0
C373 C 0.36216 0.55498 0.51115 0.0
C374 C 0.40793 0.57019 0.61088 0.0
C375 C 0.41621 0.53749 0.60154 0.0
N376 N 0.40705 0.48276 0.53467 0.0
N377 N 0.36855 0.60844 0.58658 0.0
C378 C 0.39836 0.51389 0.54405 0.0
C379 C 0.37963 0.57848 0.56934 0.0
N380 N 0.35582 0.50141 0.43514 0.0
N381 N 0.42742 0.59343 0.65828 0.0
H382 H 0.3488 0.61575 0.55408 0.0
H383 H 0.37759 0.62547 0.6365 0.0
H384 H 0.44767 0.58823 0.69223 0.0
H385 H 0.42494 0.61829 0.65949 0.0
H386 H 0.36357 0.47902 0.41269 0.0
H387 H 0.33525 0.50642 0.40216 0.0
H388 H 0.3929 0.46301 0.50507 0.0
H389 H 0.42857 0.47635 0.55883 0.0
C390 C 0.07774 0.39202 0.46167 0.0
C391 C 0.08 0.36127 0.49777 0.0
C392 C 0.04071 0.37393 0.62111 0.0
C393 C 0.03682 0.40363 0.58108 0.0
N394 N 0.04538 0.43698 0.45008 0.0
N395 N 0.05736 0.31942 0.59732 0.0
C396 C 0.05313 0.41129 0.49676 0.0
C397 C 0.05963 0.35112 0.57337 0.0
N398 N 0.10016 0.40367 0.39739 0.0
N399 N 0.02665 0.36763 0.70499 0.0
H400 H 0.06993 0.30163 0.56197 0.0
H401 H 0.04056 0.31002 0.64627 0.0
H402 H 0.01143 0.38314 0.74017 0.0
H403 H 0.03178 0.34811 0.74205 0.0
H404 H 0.10172 0.42745 0.37614 0.0
H405 H 0.11933 0.39078 0.37203 0.0
H406 H 0.05428 0.44135 0.38398 0.0
H407 H 0.02798 0.45232 0.47358 0.0
C408 C 0.9006 0.0674 0.95625 0.0
C409 C 0.87576 0.04192 0.97298 0.0
C410 C 0.90945 0.00235 0.89528 0.0
C411 C 0.93238 0.02841 0.86869 0.0
N412 N 0.947 0.08635 0.86071 0.0
N413 N 0.85428 0.98573 0.94776 0.0
C414 C 0.92728 0.06114 0.89591 0.0
C415 C 0.87957 0.0095 0.93974 0.0
N416 N 0.899 0.09746 -0.00037 0.0
N417 N 0.91671 0.97079 0.88154 0.0
H418 H 0.83211 0.98993 0.9805 0.0
H419 H 0.85437 0.96255 0.91564 0.0
H420 H 0.9385 0.96443 0.85066 0.0
H421 H 0.90248 0.95108 0.90845 0.0
H422 H 0.918 0.11601 0.99751 0.0
H423 H 0.87994 0.10287 0.04503 0.0
H424 H 0.94237 0.11068 0.87071 0.0
H425 H 0.96623 0.0829 0.81402 0.0
C426 C 0.57548 0.91469 0.09695 0.0
C427 C 0.58204 0.88369 0.05858 0.0
C428 C 0.58971 0.90584 0.90755 0.0
C429 C 0.57524 0.93393 0.94219 0.0
N430 N 0.55696 0.96718 0.072 0.0
N431 N 0.59859 0.84967 0.92982 0.0
C432 C 0.56981 0.93953 0.03796 0.0
C433 C 0.59093 0.87947 0.96477 0.0
N434 N 0.57398 0.91984 0.18972 0.0
N435 N 0.60218 0.90462 0.81984 0.0
H436 H 0.601 0.83038 0.97111 0.0
H437 H 0.60135 0.84369 0.86024 0.0
H438 H 0.60216 0.92418 0.77783 0.0
H439 H 0.61527 0.88593 0.79201 0.0
H440 H 0.57204 0.94258 0.22297 0.0
H441 H 0.57784 0.90164 0.23338 0.0
H442 H 0.54853 0.9706 0.13936 0.0
H443 H 0.55346 0.98654 0.03244 0.0
C444 C 0.60352 0.45766 0.98366 0.0
C445 C 0.63081 0.44862 0.93004 0.0
C446 C 0.60611 0.46401 0.79212 0.0
C447 C 0.58016 0.47566 0.84693 0.0
N448 N 0.55889 0.49124 0.99726 0.0
N449 N 0.66165 0.45015 0.78675 0.0
C450 C 0.58027 0.47477 0.94349 0.0
C451 C 0.63324 0.45399 0.83524 0.0
N452 N 0.59901 0.44876 0.07192 0.0
N453 N 0.60418 0.46071 0.69928 0.0
H454 H 0.68219 0.44326 0.81633 0.0
H455 H 0.66582 0.45687 0.71961 0.0
H456 H 0.58429 0.46661 0.66478 0.0
H457 H 0.62089 0.44911 0.65713 0.0
H458 H 0.5777 0.45166 0.11068 0.0
H459 H 0.61515 0.43567 0.10375 0.0
H460 H 0.56006 0.49405 0.06806 0.0
H461 H 0.54233 0.50517 0.97064 0.0
C462 C 0.97121 0.62374 0.89107 0.0
C463 C 0.93929 0.62446 0.92986 0.0
C464 C 0.92466 0.56873 0.86835 0.0
C465 C 0.95649 0.5685 0.82708 0.0
N466 N 0.00573 0.59959 0.77508 0.0
N467 N 0.88384 0.60104 0.9416 0.0
C468 C 0.97843 0.5972 0.83116 0.0
C469 C 0.91538 0.598 0.91389 0.0
N470 N 0.99506 0.64793 0.91367 0.0
N471 N 0.90383 0.54085 0.86824 0.0
H472 H 0.87661 0.62195 0.97693 0.0
H473 H 0.86453 0.58408 0.92345 0.0
H474 H 0.90904 0.51891 0.83525 0.0
H475 H 0.88207 0.53867 0.90671 0.0
H476 H 0.01953 0.64641 0.89608 0.0
H477 H 0.99107 0.6683 0.95652 0.0
H478 H 0.02078 0.6212 0.7683 0.0
H479 H 0.01143 0.58108 0.72764 0.0
C480 C 0.0474 0.12657 0.46977 0.0
C481 C 0.07611 0.13948 0.51329 0.0
C482 C 0.06681 0.09844 0.62666 0.0
C483 C 0.03743 0.08529 0.58492 0.0
N484 N 0.99473 0.09597 0.4872 0.0
N485 N 0.10894 0.14314 0.64538 0.0
C486 C 0.02625 0.10201 0.51217 0.0
C487 C 0.08465 0.12691 0.59502 0.0
N488 N 0.04065 0.13725 0.38701 0.0
N489 N 0.07798 0.08406 0.69762 0.0
H490 H 0.12254 0.16437 0.62533 0.0
H491 H 0.11391 0.13733 0.71106 0.0
H492 H 0.06206 0.07069 0.7395 0.0
H493 H 0.102 0.08727 0.71744 0.0
H494 H 0.02187 0.12624 0.34749 0.0
H495 H 0.05556 0.15531 0.35431 0.0
H496 H 0.98459 0.10927 0.43953 0.0
H497 H 0.97758 0.08085 0.52304 0.0
C498 C 0.39336 0.97709 0.64122 0.0
C499 C 0.39385 0.99141 0.55582 0.0
C500 C 0.44842 0.97522 0.51973 0.0
C501 C 0.44914 0.96486 0.60972 0.0
N502 N 0.41618 0.93693 0.72565 0.0
N503 N 0.41607 0.99283 0.4012 0.0
C504 C 0.41968 0.95971 0.66152 0.0
C505 C 0.41957 0.98675 0.49055 0.0
N506 N 0.36862 0.981 0.70419 0.0
N507 N 0.47541 0.97431 0.46326 0.0
H508 H 0.39504 0.00102 0.37802 0.0
H509 H 0.43276 0.98738 0.34889 0.0
H510 H 0.49519 0.96235 0.48009 0.0
H511 H 0.47825 0.98531 0.40101 0.0
H512 H 0.36909 0.97354 0.77069 0.0
H513 H 0.34888 0.99373 0.69193 0.0
H514 H 0.39413 0.93063 0.76032 0.0
H515 H 0.43404 0.92144 0.73468 0.0
C516 C 0.47658 0.39054 0.4406 0.0
C517 C 0.44863 0.37432 0.48339 0.0
C518 C 0.45016 0.41654 0.60661 0.0
C519 C 0.4788 0.43282 0.56644 0.0
N520 N 0.52398 0.42978 0.45788 0.0
N521 N 0.41359 0.36718 0.61729 0.0
C522 C 0.49345 0.41814 0.487 0.0
C523 C 0.43708 0.38583 0.5698 0.0
N524 N 0.48631 0.38036 0.35446 0.0
N525 N 0.43419 0.43122 0.67743 0.0
H526 H 0.40396 0.34406 0.59346 0.0
H527 H 0.40551 0.37321 0.68365 0.0
H528 H 0.4449 0.45159 0.71144 0.0
H529 H 0.41049 0.42386 0.69969 0.0
H530 H 0.50423 0.39339 0.3155 0.0
H531 H 0.47481 0.36 0.3194 0.0
H532 H 0.53707 0.4184 0.40519 0.0
H533 H 0.53766 0.44872 0.49303 0.0
C534 C 0.11036 0.54792 0.59791 0.0
C535 C 0.11303 0.57315 0.53736 0.0
C536 C 0.05366 0.57177 0.544 0.0
C537 C 0.05163 0.54054 0.5823 0.0
N538 N 0.08252 0.49505 0.60867 0.0
N539 N 0.08718 0.61031 0.45182 0.0
C540 C 0.08113 0.52759 0.60106 0.0
C541 C 0.08458 0.58584 0.51099 0.0
N542 N 0.13679 0.54067 0.64202 0.0
N543 N 0.02675 0.58807 0.53938 0.0
H544 H 0.10975 0.62156 0.43041 0.0
H545 H 0.06724 0.61818 0.42169 0.0
H546 H 0.00397 0.57946 0.56574 0.0
H547 H 0.02786 0.61181 0.51806 0.0
H548 H 0.13526 0.52263 0.68943 0.0
H549 H 0.15897 0.55504 0.63797 0.0
H550 H 0.10407 0.48489 0.61868 0.0
H551 H 0.06397 0.47812 0.58689 0.0
C552 C 0.98996 0.89664 0.96078 0.0
C553 C 0.99229 0.86808 0.90309 0.0
C554 C 0.01719 0.90088 0.78043 0.0
C555 C 0.01308 0.92948 0.83612 0.0
N556 N 0.98939 0.95526 0.97165 0.0
N557 N 0.00097 0.84317 0.75265 0.0
C558 C 0.99733 0.92756 0.92374 0.0
C559 C 0.0036 0.87027 0.81095 0.0
N560 N 0.9826 0.89431 0.05211 0.0
N561 N 0.03536 0.90277 0.70062 0.0
H562 H 0.99098 0.8204 0.77328 0.0
H563 H 0.00576 0.84395 0.68251 0.0
H564 H 0.04606 0.92482 0.67694 0.0
H565 H 0.04193 0.88237 0.66175 0.0
H566 H 0.98434 0.91428 0.09904 0.0
H567 H 0.97741 0.87217 0.08299 0.0
H568 H 0.97454 0.95493 0.03081 0.0
H569 H 0.99511 0.97858 0.94826 0.0
C570 C 0.60624 0.06641 0.95753 0.0
C571 C 0.63749 0.074 0.91665 0.0
C572 C 0.61456 0.06869 0.76529 0.0
C573 C 0.58277 0.06438 0.80672 0.0
N574 N 0.54846 0.0674 0.94418 0.0
N575 N 0.67094 0.08884 0.78414 0.0
C576 C 0.57859 0.0655 0.90346 0.0
C577 C 0.6415 0.07717 0.82126 0.0
N578 N 0.60295 0.05923 0.0474 0.0
N579 N 0.61952 0.06299 0.67332 0.0
H580 H 0.69133 0.09522 0.82302 0.0
H581 H 0.67435 0.09504 0.71636 0.0
H582 H 0.60098 0.0561 0.62872 0.0
H583 H 0.64251 0.06195 0.64208 0.0
H584 H 0.58102 0.04992 0.07783 0.0
H585 H 0.62265 0.05978 0.08951 0.0
H586 H 0.5446 0.07123 0.01441 0.0
H587 H 0.52776 0.06899 0.90763 0.0
C588 C 0.48556 0.63342 0.9363 0.0
C589 C 0.51416 0.64341 0.98406 0.0
C590 C 0.53697 0.59288 0.93022 0.0
C591 C 0.50667 0.58105 0.89355 0.0
N592 N 0.45007 0.58795 0.87553 0.0
N593 N 0.5657 0.63108 0.03713 0.0
C594 C 0.48042 0.60082 0.89952 0.0
C595 C 0.53969 0.62286 0.98331 0.0
N596 N 0.46343 0.65519 0.92562 0.0
N597 N 0.56322 0.57554 0.91392 0.0
H598 H 0.56868 0.65278 0.07728 0.0
H599 H 0.58304 0.61524 0.04783 0.0
H600 H 0.56194 0.55338 0.87598 0.0
H601 H 0.58675 0.58446 0.9308 0.0
H602 H 0.44371 0.65024 0.8836 0.0
H603 H 0.46655 0.67932 0.95178 0.0
H604 H 0.4294 0.60019 0.88826 0.0
H605 H 0.44494 0.56404 0.84944 0.0
C606 C 0.88251 0.40883 0.82017 0.0
C607 C 0.86648 0.41954 0.9016 0.0
C608 C 0.91324 0.45867 0.93674 0.0
C609 C 0.93076 0.44557 0.85984 0.0
N610 N 0.93431 0.40098 0.74569 0.0
N611 N 0.86861 0.44974 0.04748 0.0
C612 C 0.91603 0.41872 0.80585 0.0
C613 C 0.88251 0.4429 0.96316 0.0
N614 N 0.86577 0.38922 0.75643 0.0
N615 N 0.92485 0.48707 0.98203 0.0
H616 H 0.84579 0.43924 0.06901 0.0
H617 H 0.88094 0.46359 0.09905 0.0
H618 H 0.94594 0.50113 0.96191 0.0
H619 H 0.91141 0.49906 0.03274 0.0
H620 H 0.87549 0.38369 0.69134 0.0
H621 H 0.84127 0.38093 0.76579 0.0
H622 H 0.92499 0.37971 0.7103 0.0
H623 H 0.9595 0.4047 0.74023 0.0
C624 C 0.09438 0.1609 0.97579 0.0
C625 C 0.11229 0.15714 0.05375 0.0
C626 C 0.09694 0.09806 0.04529 0.0
C627 C 0.07958 0.10164 0.96594 0.0
N628 N 0.06192 0.13601 0.85295 0.0
N629 N 0.13296 0.123 0.16127 0.0
C630 C 0.07814 0.13295 0.9307 0.0
C631 C 0.11447 0.1259 0.08769 0.0
N632 N 0.09226 0.19155 0.94679 0.0
N633 N 0.09487 0.06833 0.08318 0.0
H634 H 0.14426 0.14291 0.1985 0.0
H635 H 0.13872 0.10088 0.18342 0.0
H636 H 0.08152 0.04761 0.05535 0.0
H637 H 0.10413 0.06432 0.14577 0.0
H638 H 0.07618 0.19711 0.89893 0.0
H639 H 0.1061 0.2122 0.97329 0.0
H640 H 0.06401 0.15688 0.81591 0.0
H641 H 0.04665 0.11745 0.82239 0.0
C642 C 0.39084 0.00982 0.97684 0.0
C643 C 0.38914 0.04091 0.02208 0.0
C644 C 0.43754 0.06174 0.9321 0.0
C645 C 0.44168 0.02946 0.8975 0.0
N646 N 0.42588 0.97166 0.90636 0.0
N647 N 0.41487 0.09541 0.05446 0.0
C648 C 0.41944 0.00315 0.92562 0.0
C649 C 0.41341 0.06677 0.00241 0.0
N650 N 0.36481 0.98674 0.98138 0.0
N651 N 0.45699 0.08759 0.89955 0.0
H652 H 0.39836 0.10002 0.10796 0.0
H653 H 0.43422 0.11351 0.04998 0.0
H654 H 0.47633 0.08499 0.8527 0.0
H655 H 0.45252 0.11176 0.91459 0.0
H656 H 0.36377 0.96458 0.94322 0.0
H657 H 0.34293 0.99125 0.01546 0.0
H658 H 0.41199 0.95183 0.93387 0.0
H659 H 0.44671 0.9654 0.87039 0.0
C660 C 0.40786 0.35283 0.92356 0.0
C661 C 0.39241 0.35571 0.01067 0.0
C662 C 0.40193 0.41539 0.00927 0.0
C663 C 0.42209 0.41213 0.92901 0.0
N664 N 0.448 0.37616 0.81697 0.0
N665 N 0.37793 0.3894 0.14334 0.0
C666 C 0.42608 0.38045 0.88793 0.0
C667 C 0.38982 0.38692 0.05505 0.0
N668 N 0.4049 0.32356 0.87446 0.0
N669 N 0.3952 0.44555 0.04382 0.0
H670 H 0.36902 0.36928 0.17989 0.0
H671 H 0.37925 0.41121 0.18306 0.0
H672 H 0.40542 0.46723 0.01711 0.0
H673 H 0.37766 0.44901 0.0956 0.0
H674 H 0.41276 0.32076 0.80629 0.0
H675 H 0.3915 0.30287 0.899 0.0
H676 H 0.45475 0.35332 0.79413 0.0
H677 H 0.46108 0.39499 0.78348 0.0
C678 C 0.15312 0.50526 0.00045 0.0
C679 C 0.16884 0.53725 0.99131 0.0
C680 C 0.12454 0.54972 0.89845 0.0
C681 C 0.11095 0.5165 0.89886 0.0
N682 N 0.12114 0.46091 0.92312 0.0
N683 N 0.17383 0.58648 0.90915 0.0
C684 C 0.12798 0.49366 0.94117 0.0
C685 C 0.15606 0.55828 0.93231 0.0
N686 N 0.1604 0.48649 0.06895 0.0
N687 N 0.10695 0.57373 0.87276 0.0
H688 H 0.19721 0.5931 0.93194 0.0
H689 H 0.16669 0.60124 0.8599 0.0
H690 H 0.08256 0.57 0.85737 0.0
H691 H 0.11542 0.59839 0.87873 0.0
H692 H 0.14727 0.46417 0.08155 0.0
H693 H 0.17654 0.49465 0.11966 0.0
H694 H 0.13477 0.44375 0.94852 0.0
H695 H 0.1052 0.45122 0.87333 0.0
C696 C 0.93668 0.85248 0.50056 0.0
C697 C 0.93635 0.85118 0.40399 0.0
C698 C 0.94782 0.91063 0.40341 0.0
C699 C 0.95029 0.91163 0.49962 0.0
N700 N 0.93851 0.88605 0.64216 0.0
N701 N 0.93299 0.87872 0.26475 0.0
C702 C 0.94177 0.88328 0.54899 0.0
C703 C 0.93864 0.88028 0.35604 0.0
N704 N 0.93362 0.8241 0.5451 0.0
N705 N 0.95681 0.93801 0.35662 0.0
H706 H 0.92743 0.85683 0.22713 0.0
H707 H 0.93109 0.89912 0.2276 0.0
H708 H 0.96321 0.9608 0.3886 0.0
H709 H 0.95977 0.93799 0.28586 0.0
H710 H 0.93771 0.82282 0.61417 0.0
H711 H 0.92804 0.80138 0.51138 0.0
H712 H 0.93016 0.86681 0.6825 0.0
H713 H 0.94153 0.9085 0.67896 0.0
C714 C 0.65351 0.99917 0.49107 0.0
C715 C 0.65225 0.01422 0.40718 0.0
C716 C 0.5928 0.0042 0.41367 0.0
C717 C 0.59403 0.99488 0.50479 0.0
N718 N 0.62436 0.96478 0.60157 0.0
N719 N 0.6211 0.03019 0.28498 0.0
C720 C 0.62407 0.98672 0.53562 0.0
C721 C 0.62199 0.01599 0.3666 0.0
N722 N 0.6827 0.99776 0.52974 0.0
N723 N 0.56413 0.9992 0.3701 0.0
H724 H 0.64196 0.03807 0.2468 0.0
H725 H 0.59977 0.03591 0.25746 0.0
H726 H 0.54359 0.98659 0.39959 0.0
H727 H 0.56178 0.00321 0.30149 0.0
H728 H 0.68479 0.99082 0.59614 0.0
H729 H 0.70483 0.0056 0.49745 0.0
H730 H 0.64548 0.95632 0.62295 0.0
H731 H 0.60327 0.95108 0.62397 0.0
C732 C 0.59793 0.65261 0.51915 0.0
C733 C 0.58506 0.65613 0.43285 0.0
C734 C 0.56219 0.59891 0.42666 0.0
C735 C 0.57303 0.59608 0.51607 0.0
N736 N 0.6081 0.61624 0.63707 0.0
N737 N 0.56311 0.63093 0.29319 0.0
C738 C 0.59337 0.6217 0.55866 0.0
C739 C 0.57032 0.62854 0.38244 0.0
N740 N 0.61321 0.67927 0.56455 0.0
N741 N 0.54166 0.57457 0.38713 0.0
H742 H 0.56695 0.65253 0.2594 0.0
H743 H 0.55588 0.61088 0.24986 0.0
H744 H 0.53542 0.55213 0.41525 0.0
H745 H 0.52909 0.57715 0.32856 0.0
H746 H 0.61994 0.67967 0.63208 0.0
H747 H 0.61832 0.70164 0.53459 0.0
H748 H 0.6251 0.63294 0.66889 0.0
H749 H 0.60525 0.5936 0.66624 0.0
C750 C 0.82725 0.453 0.46285 0.0
C751 C 0.82999 0.43066 0.38658 0.0
C752 C 0.88604 0.4243 0.42341 0.0
C753 C 0.88466 0.44963 0.49269 0.0
N754 N 0.85537 0.49183 0.56942 0.0
N755 N 0.86338 0.39882 0.28465 0.0
C756 C 0.85556 0.46486 0.51072 0.0
C757 C 0.85978 0.41734 0.36411 0.0
N758 N 0.79753 0.46263 0.48998 0.0
N759 N 0.91175 0.40583 0.41676 0.0
H760 H 0.84468 0.39279 0.23952 0.0
H761 H 0.88568 0.39173 0.25968 0.0
H762 H 0.93087 0.4092 0.4613 0.0
H763 H 0.91244 0.38497 0.37348 0.0
H764 H 0.79333 0.4761 0.55081 0.0
H765 H 0.77644 0.45478 0.45538 0.0
H766 H 0.83587 0.50594 0.57773 0.0
H767 H 0.87576 0.50208 0.60368 0.0
loop_
_geom_bond_atom_site_label_1
_geom_bond_atom_site_label_2
_geom_bond_distance
_geom_bond_site_symmetry_2
_ccdc_geom_bond_type
P0 O11 1.490 . S
P0 C14 1.812 . S
P0 C20 1.803 . S
P0 C26 1.819 1_554 S
H1 C15 0.941 . S
H2 C16 0.939 . S
H3 C18 0.940 . S
H4 C19 0.940 . S
H5 C21 0.939 . S
H6 C22 0.942 . S
H7 C24 0.940 . S
H8 C25 0.939 . S
H9 C27 0.941 1_554 S
H10 C31 0.939 . S
O11 P0 1.490 . S
H12 C28 0.939 . S
H13 C30 0.940 . S
C14 P0 1.812 . S
C14 C15 1.389 . S
C14 C19 1.391 . S
C15 H1 0.941 . S
C15 C14 1.389 . S
C15 C16 1.397 . S
C16 H2 0.939 . S
C16 C15 1.397 . S
C16 C17 1.378 . S
C17 C16 1.378 . S
C17 C18 1.378 . S
C18 H3 0.940 . S
C18 C17 1.378 . S
C18 C19 1.396 . S
C19 H4 0.940 . S
C19 C14 1.391 . S
C19 C18 1.396 . S
C20 P0 1.803 . S
C20 C21 1.378 1_554 S
C20 C25 1.400 . S
C21 H5 0.939 . S
C21 C20 1.378 1_556 S
C21 C22 1.361 . S
C22 H6 0.942 . S
C22 C21 1.361 . S
C22 C23 1.369 . S
C23 C22 1.369 . S
C23 C24 1.404 1_556 S
C24 H7 0.940 . S
C24 C23 1.404 1_554 S
C24 C25 1.389 . S
C25 H8 0.939 . S
C25 C20 1.400 . S
C25 C24 1.389 . S
C26 P0 1.819 1_556 S
C26 C27 1.391 . S
C26 C31 1.391 . S
C27 H9 0.941 1_556 S
C27 C26 1.391 . S
C27 C28 1.396 . S
C28 H12 0.939 . S
C28 C27 1.396 . S
C28 C29 1.397 . S
C29 C28 1.397 . S
C29 C30 1.385 . S
C30 H13 0.940 . S
C30 C29 1.385 . S
C30 C31 1.388 . S
C31 H10 0.939 . S
C31 C26 1.391 . S
C31 C30 1.388 . S
P32 O43 1.490 . S
P32 C46 1.812 . S
P32 C52 1.803 . S
P32 C58 1.819 1_554 S
H33 C47 0.941 . S
H34 C48 0.939 . S
H35 C50 0.940 . S
H36 C51 0.940 . S
H37 C53 0.939 . S
H38 C54 0.942 . S
H39 C56 0.940 . S
H40 C57 0.939 . S
H41 C59 0.941 . S
H42 C63 0.939 . S
O43 P32 1.490 . S
H44 C60 0.939 . S
H45 C62 0.940 . S
C46 P32 1.812 . S
C46 C47 1.389 . S
C46 C51 1.391 . S
C47 H33 0.941 . S
C47 C46 1.389 . S
C47 C48 1.397 . S
C48 H34 0.939 . S
C48 C47 1.397 . S
C48 C49 1.378 . S
C49 C48 1.378 . S
C49 C50 1.378 . S
C50 H35 0.940 . S
C50 C49 1.378 . S
C50 C51 1.396 . S
C51 H36 0.940 . S
C51 C46 1.391 . S
C51 C50 1.396 . S
C52 P32 1.803 . S
C52 C53 1.378 1_554 S
C52 C57 1.400 . S
C53 H37 0.939 . S
C53 C52 1.378 1_556 S
C53 C54 1.361 . S
C54 H38 0.942 . S
C54 C53 1.361 . S
C54 C55 1.369 . S
C55 C54 1.369 . S
C55 C56 1.404 1_556 S
C56 H39 0.940 . S
C56 C55 1.404 1_554 S
C56 C57 1.389 . S
C57 H40 0.939 . S
C57 C52 1.400 . S
C57 C56 1.389 . S
C58 P32 1.819 1_556 S
C58 C59 1.391 . S
C58 C63 1.391 . S
C59 H41 0.941 . S
C59 C58 1.391 . S
C59 C60 1.396 . S
C60 H44 0.939 . S
C60 C59 1.396 . S
C60 C61 1.397 . S
C61 C60 1.397 . S
C61 C62 1.385 . S
C62 H45 0.940 . S
C62 C61 1.385 . S
C62 C63 1.388 . S
C63 H42 0.939 . S
C63 C58 1.391 . S
C63 C62 1.388 . S
P64 O75 1.490 . S
P64 C78 1.812 . S
P64 C84 1.803 . S
P64 C90 1.819 . S
H65 C79 0.941 . S
H66 C80 0.939 . S
H67 C82 0.940 . S
H68 C83 0.949 . S
H69 C85 0.939 . S
H70 C86 0.942 1_556 S
H71 C88 0.940 . S
H72 C89 0.958 . S
H73 C91 0.941 . S
H74 C95 0.926 1_565 S
O75 P64 1.490 . S
H76 C92 0.939 . S
H77 C94 0.940 . S
C78 P64 1.812 . S
C78 C79 1.389 . S
C78 C83 1.376 1_545 S
C79 H65 0.941 . S
C79 C78 1.389 . S
C79 C80 1.397 . S
C80 H66 0.939 . S
C80 C79 1.397 . S
C80 C81 1.378 . S
C81 C80 1.378 . S
C81 C82 1.378 1_545 S
C82 H67 0.940 . S
C82 C81 1.378 1_565 S
C82 C83 1.403 . S
C83 H68 0.949 . S
C83 C78 1.376 1_565 S
C83 C82 1.403 . S
C84 P64 1.803 . S
C84 C85 1.378 . S
C84 C89 1.367 1_545 S
C85 H69 0.939 . S
C85 C84 1.378 . S
C85 C86 1.361 . S
C86 H70 0.942 1_554 S
C86 C85 1.361 . S
C86 C87 1.369 . S
C87 C86 1.369 . S
C87 C88 1.404 1_545 S
C88 H71 0.940 . S
C88 C87 1.404 1_565 S
C88 C89 1.404 . S
C89 H72 0.958 . S
C89 C84 1.367 1_565 S
C89 C88 1.404 . S
C90 P64 1.819 . S
C90 C91 1.391 . S
C90 C95 1.391 1_554 S
C91 H73 0.941 . S
C91 C90 1.391 . S
C91 C92 1.396 1_554 S
C92 H76 0.939 . S
C92 C91 1.396 1_556 S
C92 C93 1.397 . S
C93 C92 1.397 . S
C93 C94 1.385 1_545 S
C94 H77 0.940 . S
C94 C93 1.385 1_565 S
C94 C95 1.388 1_565 S
C95 H74 0.926 1_545 S
C95 C90 1.391 1_556 S
C95 C94 1.388 1_545 S
P96 O107 1.490 . S
P96 C110 1.812 . S
P96 C116 1.803 . S
P96 C122 1.819 . S
H97 C111 0.941 . S
H98 C112 0.939 . S
H99 C114 0.940 . S
H100 C115 0.940 . S
H101 C117 0.939 . S
H102 C118 0.942 1_556 S
H103 C120 0.940 . S
H104 C121 0.939 . S
H105 C123 0.941 . S
H106 C127 0.939 . S
O107 P96 1.490 . S
H108 C124 0.939 . S
H109 C126 0.940 . S
C110 P96 1.812 . S
C110 C111 1.389 . S
C110 C115 1.391 . S
C111 H97 0.941 . S
C111 C110 1.389 . S
C111 C112 1.397 . S
C112 H98 0.939 . S
C112 C111 1.397 . S
C112 C113 1.378 . S
C113 C112 1.378 . S
C113 C114 1.378 . S
C114 H99 0.940 . S
C114 C113 1.378 . S
C114 C115 1.396 . S
C115 H100 0.940 . S
C115 C110 1.391 . S
C115 C114 1.396 . S
C116 P96 1.803 . S
C116 C117 1.378 . S
C116 C121 1.400 . S
C117 H101 0.939 . S
C117 C116 1.378 . S
C117 C118 1.361 . S
C118 H102 0.942 1_554 S
C118 C117 1.361 . S
C118 C119 1.369 . S
C119 C118 1.369 . S
C119 C120 1.404 . S
C120 H103 0.940 . S
C120 C119 1.404 . S
C120 C121 1.389 . S
C121 H104 0.939 . S
C121 C116 1.400 . S
C121 C120 1.389 . S
C122 P96 1.819 . S
C122 C123 1.391 . S
C122 C127 1.391 1_554 S
C123 H105 0.941 . S
C123 C122 1.391 . S
C123 C124 1.396 1_554 S
C124 H108 0.939 . S
C124 C123 1.396 1_556 S
C124 C125 1.397 . S
C125 C124 1.397 . S
C125 C126 1.385 . S
C126 H109 0.940 . S
C126 C125 1.385 . S
C126 C127 1.388 . S
C127 H106 0.939 . S
C127 C122 1.391 1_556 S
C127 C126 1.388 . S
P128 O139 1.490 . S
P128 C142 1.812 . S
P128 C148 1.803 . S
P128 C154 1.819 . S
H129 C143 0.941 . S
H130 C144 0.939 . S
H131 C146 0.940 . S
H132 C147 0.940 . S
H133 C149 0.939 . S
H134 C150 0.942 . S
H135 C152 0.940 . S
H136 C153 0.939 . S
H137 C155 0.941 . S
H138 C159 0.939 . S
O139 P128 1.490 . S
H140 C156 0.939 . S
H141 C158 0.940 . S
C142 P128 1.812 . S
C142 C143 1.389 . S
C142 C147 1.391 . S
C143 H129 0.941 . S
C143 C142 1.389 . S
C143 C144 1.397 . S
C144 H130 0.939 . S
C144 C143 1.397 . S
C144 C145 1.378 . S
C145 C144 1.378 . S
C145 C146 1.378 . S
C146 H131 0.940 . S
C146 C145 1.378 . S
C146 C147 1.396 . S
C147 H132 0.940 . S
C147 C142 1.391 . S
C147 C146 1.396 . S
C148 P128 1.803 . S
C148 C149 1.378 . S
C148 C153 1.400 . S
C149 H133 0.939 . S
C149 C148 1.378 . S
C149 C150 1.361 . S
C150 H134 0.942 . S
C150 C149 1.361 . S
C150 C151 1.369 . S
C151 C150 1.369 . S
C151 C152 1.404 . S
C152 H135 0.940 . S
C152 C151 1.404 . S
C152 C153 1.389 . S
C153 H136 0.939 . S
C153 C148 1.400 . S
C153 C152 1.389 . S
C154 P128 1.819 . S
C154 C155 1.391 . S
C154 C159 1.391 . S
C155 H137 0.941 . S
C155 C154 1.391 . S
C155 C156 1.396 . S
C156 H140 0.939 . S
C156 C155 1.396 . S
C156 C157 1.397 . S
C157 C156 1.397 . S
C157 C158 1.385 . S
C158 H141 0.940 . S
C158 C157 1.385 . S
C158 C159 1.388 . S
C159 H138 0.939 . S
C159 C154 1.391 . S
C159 C158 1.388 . S
P160 O171 1.490 . S
P160 C174 1.812 . S
P160 C180 1.803 . S
P160 C186 1.819 . S
H161 C175 0.941 . S
H162 C176 0.939 . S
H163 C178 0.940 . S
H164 C179 0.940 . S
H165 C181 0.939 . S
H166 C182 0.942 . S
H167 C184 0.940 . S
H168 C185 0.939 . S
H169 C187 0.941 . S
H170 C191 0.939 . S
O171 P160 1.490 . S
H172 C188 0.939 . S
H173 C190 0.940 . S
C174 P160 1.812 . S
C174 C175 1.389 . S
C174 C179 1.391 . S
C175 H161 0.941 . S
C175 C174 1.389 . S
C175 C176 1.397 . S
C176 H162 0.939 . S
C176 C175 1.397 . S
C176 C177 1.378 . S
C177 C176 1.378 . S
C177 C178 1.378 . S
C178 H163 0.940 . S
C178 C177 1.378 . S
C178 C179 1.396 . S
C179 H164 0.940 . S
C179 C174 1.391 . S
C179 C178 1.396 . S
C180 P160 1.803 . S
C180 C181 1.378 . S
C180 C185 1.400 . S
C181 H165 0.939 . S
C181 C180 1.378 . S
C181 C182 1.361 . S
C182 H166 0.942 . S
C182 C181 1.361 . S
C182 C183 1.369 . S
C183 C182 1.369 . S
C183 C184 1.404 . S
C184 H167 0.940 . S
C184 C183 1.404 . S
C184 C185 1.389 . S
C185 H168 0.939 . S
C185 C180 1.400 . S
C185 C184 1.389 . S
C186 P160 1.819 . S
C186 C187 1.391 . S
C186 C191 1.391 . S
C187 H169 0.941 . S
C187 C186 1.391 . S
C187 C188 1.396 . S
C188 H172 0.939 . S
C188 C187 1.396 . S
C188 C189 1.397 . S
C189 C188 1.397 . S
C189 C190 1.385 . S
C190 H173 0.940 . S
C190 C189 1.385 . S
C190 C191 1.388 . S
C191 H170 0.939 . S
C191 C186 1.391 . S
C191 C190 1.388 . S
P192 O203 1.490 . S
P192 C206 1.812 . S
P192 C212 1.803 . S
P192 C218 1.819 . S
H193 C207 0.941 . S
H194 C208 0.939 . S
H195 C210 0.940 1_565 S
H196 C211 0.940 . S
H197 C213 0.939 . S
H198 C214 0.942 . S
H199 C216 0.940 1_565 S
H200 C217 0.939 . S
H201 C219 0.941 . S
H202 C223 0.939 . S
O203 P192 1.490 . S
H204 C220 0.939 . S
H205 C222 0.940 1_565 S
C206 P192 1.812 . S
C206 C207 1.389 . S
C206 C211 1.391 . S
C207 H193 0.941 . S
C207 C206 1.389 . S
C207 C208 1.397 . S
C208 H194 0.939 . S
C208 C207 1.397 . S
C208 C209 1.378 . S
C209 C208 1.378 . S
C209 C210 1.378 . S
C210 H195 0.940 1_545 S
C210 C209 1.378 . S
C210 C211 1.396 . S
C211 H196 0.940 . S
C211 C206 1.391 . S
C211 C210 1.396 . S
C212 P192 1.803 . S
C212 C213 1.378 . S
C212 C217 1.400 . S
C213 H197 0.939 . S
C213 C212 1.378 . S
C213 C214 1.361 . S
C214 H198 0.942 . S
C214 C213 1.361 . S
C214 C215 1.369 . S
C215 C214 1.369 . S
C215 C216 1.404 . S
C216 H199 0.940 1_545 S
C216 C215 1.404 . S
C216 C217 1.389 . S
C217 H200 0.939 . S
C217 C212 1.400 . S
C217 C216 1.389 . S
C218 P192 1.819 . S
C218 C219 1.391 . S
C218 C223 1.391 . S
C219 H201 0.941 . S
C219 C218 1.391 . S
C219 C220 1.396 . S
C220 H204 0.939 . S
C220 C219 1.396 . S
C220 C221 1.397 . S
C221 C220 1.397 . S
C221 C222 1.385 . S
C222 H205 0.940 1_545 S
C222 C221 1.385 . S
C222 C223 1.388 . S
C223 H202 0.939 . S
C223 C218 1.391 . S
C223 C222 1.388 . S
P224 O235 1.490 . S
P224 C238 1.812 . S
P224 C244 1.803 . S
P224 C250 1.819 . S
H225 C239 0.941 . S
H226 C240 0.939 . S
H227 C242 0.940 . S
H228 C243 0.940 . S
H229 C245 0.939 . S
H230 C246 0.942 . S
H231 C248 0.940 . S
H232 C249 0.939 . S
H233 C251 0.941 . S
H234 C255 0.939 . S
O235 P224 1.490 . S
H236 C252 0.939 . S
H237 C254 0.940 . S
C238 P224 1.812 . S
C238 C239 1.389 . S
C238 C243 1.391 . S
C239 H225 0.941 . S
C239 C238 1.389 . S
C239 C240 1.397 . S
C240 H226 0.939 . S
C240 C239 1.397 . S
C240 C241 1.378 . S
C241 C240 1.378 . S
C241 C242 1.378 . S
C242 H227 0.940 . S
C242 C241 1.378 . S
C242 C243 1.396 . S
C243 H228 0.940 . S
C243 C238 1.391 . S
C243 C242 1.396 . S
C244 P224 1.803 . S
C244 C245 1.378 . S
C244 C249 1.400 . S
C245 H229 0.939 . S
C245 C244 1.378 . S
C245 C246 1.361 . S
C246 H230 0.942 . S
C246 C245 1.361 . S
C246 C247 1.369 . S
C247 C246 1.369 . S
C247 C248 1.404 . S
C248 H231 0.940 . S
C248 C247 1.404 . S
C248 C249 1.389 . S
C249 H232 0.939 . S
C249 C244 1.400 . S
C249 C248 1.389 . S
C250 P224 1.819 . S
C250 C251 1.391 . S
C250 C255 1.391 . S
C251 H233 0.941 . S
C251 C250 1.391 . S
C251 C252 1.396 . S
C252 H236 0.939 . S
C252 C251 1.396 . S
C252 C253 1.397 . S
C253 C252 1.397 . S
C253 C254 1.385 . S
C254 H237 0.940 . S
C254 C253 1.385 . S
C254 C255 1.388 . S
C255 H234 0.939 . S
C255 C250 1.391 . S
C255 C254 1.388 . S
Tb256 O259 2.453 1_655 S
Tb256 O260 2.596 1_655 S
Tb256 O261 2.374 1_645 S
Tb256 O269 2.343 1_545 S
Tb256 O271 2.353 . S
Tb256 O273 2.427 1_545 S
Tb256 O274 2.513 1_545 S
C257 O261 1.251 1_545 S
C257 O263 1.262 1_545 S
Tb258 O260 2.343 . S
Tb258 O263 2.351 1_545 S
Tb258 O266 2.427 . S
Tb258 O267 2.513 . S
Tb258 O268 2.453 1_545 S
Tb258 O269 2.596 1_445 S
Tb258 O270 2.374 1_455 S
O259 Tb256 2.453 1_455 S
O259 C275 1.245 . S
O260 Tb256 2.596 1_455 S
O260 Tb258 2.343 . S
O260 C275 1.259 . S
O261 Tb256 2.374 1_465 S
O261 C257 1.251 1_565 S
C262 O266 1.275 . S
C262 O267 1.246 . S
O263 C257 1.262 1_565 S
O263 Tb258 2.351 1_565 S
C264 O268 1.245 1_655 S
C264 O269 1.259 . S
C265 O270 1.250 . S
C265 O271 1.263 . S
O266 Tb258 2.427 . S
O266 C262 1.275 . S
O267 Tb258 2.513 . S
O267 C262 1.246 . S
O268 Tb258 2.453 1_565 S
O268 C264 1.245 1_455 S
O269 Tb256 2.343 1_565 S
O269 Tb258 2.596 1_665 S
O269 C264 1.259 . S
O270 Tb258 2.374 1_655 S
O270 C265 1.250 . S
O271 Tb256 2.353 . S
O271 C265 1.263 . S
C272 O273 1.275 . S
C272 O274 1.246 . S
O273 Tb256 2.427 1_565 S
O273 C272 1.275 . S
O274 Tb256 2.513 1_565 S
O274 C272 1.246 . S
C275 O259 1.245 . S
C275 O260 1.259 . S
Tb276 O279 2.453 . S
Tb276 O280 2.596 . S
Tb276 O281 2.374 . S
Tb276 O289 2.343 . S
Tb276 O291 2.353 . S
Tb276 O293 2.427 . S
Tb276 O294 2.513 . S
C277 O281 1.251 . S
C277 O283 1.263 1_545 S
Tb278 O280 2.343 1_565 S
Tb278 O283 2.353 . S
Tb278 O286 2.427 . S
Tb278 O287 2.513 . S
Tb278 O288 2.453 . S
Tb278 O289 2.596 1_565 S
Tb278 O290 2.374 . S
O279 Tb276 2.453 . S
O279 C295 1.245 . S
O280 Tb276 2.596 . S
O280 Tb278 2.343 1_545 S
O280 C295 1.259 . S
O281 Tb276 2.374 . S
O281 C277 1.251 . S
C282 O286 1.275 . S
C282 O287 1.246 . S
O283 C277 1.263 1_565 S
O283 Tb278 2.353 . S
C284 O288 1.245 . S
C284 O289 1.259 1_565 S
C285 O290 1.250 1_545 S
C285 O291 1.263 . S
O286 Tb278 2.427 . S
O286 C282 1.275 . S
O287 Tb278 2.513 . S
O287 C282 1.246 . S
O288 Tb278 2.453 . S
O288 C284 1.245 . S
O289 Tb276 2.343 . S
O289 Tb278 2.596 1_545 S
O289 C284 1.259 1_545 S
O290 Tb278 2.374 . S
O290 C285 1.250 1_565 S
O291 Tb276 2.353 . S
O291 C285 1.263 . S
C292 O293 1.275 . S
C292 O294 1.246 . S
O293 Tb276 2.427 . S
O293 C292 1.275 . S
O294 Tb276 2.513 . S
O294 C292 1.246 . S
C295 O279 1.245 . S
C295 O280 1.259 . S
Tb296 O299 2.453 . S
Tb296 O300 2.596 . S
Tb296 O301 2.374 . S
Tb296 O309 2.343 . S
Tb296 O311 2.353 . S
Tb296 O313 2.427 . S
Tb296 O314 2.513 . S
C297 O301 1.251 . S
C297 O303 1.263 . S
Tb298 O300 2.343 . S
Tb298 O303 2.353 . S
Tb298 O306 2.427 . S
Tb298 O307 2.513 . S
Tb298 O308 2.453 . S
Tb298 O309 2.596 . S
Tb298 O310 2.374 . S
O299 Tb296 2.453 . S
O299 C315 1.245 . S
O300 Tb296 2.596 . S
O300 Tb298 2.343 . S
O300 C315 1.259 . S
O301 Tb296 2.374 . S
O301 C297 1.251 . S
C302 O306 1.275 . S
C302 O307 1.246 . S
O303 C297 1.263 . S
O303 Tb298 2.353 . S
C304 O308 1.245 . S
C304 O309 1.259 . S
C305 O310 1.250 . S
C305 O311 1.263 . S
O306 Tb298 2.427 . S
O306 C302 1.275 . S
O307 Tb298 2.513 . S
O307 C302 1.246 . S
O308 Tb298 2.453 . S
O308 C304 1.245 . S
O309 Tb296 2.343 . S
O309 Tb298 2.596 . S
O309 C304 1.259 . S
O310 Tb298 2.374 . S
O310 C305 1.250 . S
O311 Tb296 2.353 . S
O311 C305 1.263 . S
C312 O313 1.275 . S
C312 O314 1.246 . S
O313 Tb296 2.427 . S
O313 C312 1.275 . S
O314 Tb296 2.513 . S
O314 C312 1.246 . S
C315 O299 1.245 . S
C315 O300 1.259 . S
Tb316 O319 2.453 1_655 S
Tb316 O320 2.596 1_655 S
Tb316 O321 2.374 1_655 S
Tb316 O329 2.343 . S
Tb316 O331 2.353 . S
Tb316 O333 2.427 . S
Tb316 O334 2.513 . S
C317 O321 1.251 . S
C317 O323 1.263 . S
Tb318 O320 2.343 . S
Tb318 O323 2.353 . S
Tb318 O326 2.427 . S
Tb318 O327 2.513 . S
Tb318 O328 2.453 1_455 S
Tb318 O329 2.596 1_455 S
Tb318 O330 2.374 . S
O319 Tb316 2.453 1_455 S
O319 C335 1.245 . S
O320 Tb316 2.596 1_455 S
O320 Tb318 2.343 . S
O320 C335 1.259 . S
O321 Tb316 2.374 1_455 S
O321 C317 1.251 . S
C322 O326 1.275 . S
C322 O327 1.246 . S
O323 C317 1.263 . S
O323 Tb318 2.353 . S
C324 O328 1.245 . S
C324 O329 1.259 . S
C325 O330 1.250 1_655 S
C325 O331 1.263 . S
O326 Tb318 2.427 . S
O326 C322 1.275 . S
O327 Tb318 2.513 . S
O327 C322 1.246 . S
O328 Tb318 2.453 1_655 S
O328 C324 1.245 . S
O329 Tb316 2.343 . S
O329 Tb318 2.596 1_655 S
O329 C324 1.259 . S
O330 Tb318 2.374 . S
O330 C325 1.250 1_455 S
O331 Tb316 2.353 . S
O331 C325 1.263 . S
C332 O333 1.275 . S
C332 O334 1.246 . S
O333 Tb316 2.427 . S
O333 C332 1.275 . S
O334 Tb316 2.513 . S
O334 C332 1.246 . S
C335 O319 1.245 . S
C335 O320 1.259 . S
C336 C337 1.363 . S
C336 C342 1.379 . S
C336 N344 1.356 . S
C337 C336 1.363 . S
C337 C343 1.363 . S
C338 C339 1.363 . S
C338 C343 1.379 . S
C338 N345 1.356 . S
C339 C338 1.363 . S
C339 C342 1.363 . S
N340 C342 1.356 . S
N340 H352 0.984 . S
N340 H353 0.985 . S
N341 C343 1.356 . S
N341 H346 0.984 . S
N341 H347 0.985 . S
C342 C336 1.379 . S
C342 C339 1.363 . S
C342 N340 1.356 . S
C343 C337 1.363 . S
C343 C338 1.379 . S
C343 N341 1.356 . S
N344 C336 1.356 . S
N344 H350 0.984 . S
N344 H351 0.984 . S
N345 C338 1.356 . S
N345 H348 0.984 . S
N345 H349 0.985 . S
H346 N341 0.984 . S
H347 N341 0.985 . S
H348 N345 0.984 . S
H349 N345 0.985 . S
H350 N344 0.984 . S
H351 N344 0.984 . S
H352 N340 0.984 . S
H353 N340 0.985 . S
C354 C355 1.363 . S
C354 C360 1.379 . S
C354 N362 1.356 . S
C355 C354 1.363 . S
C355 C361 1.363 . S
C356 C357 1.363 . S
C356 C361 1.379 . S
C356 N363 1.356 . S
C357 C356 1.363 . S
C357 C360 1.363 . S
N358 C360 1.356 . S
N358 H370 0.984 . S
N358 H371 0.985 . S
N359 C361 1.356 . S
N359 H364 0.984 . S
N359 H365 0.985 . S
C360 C354 1.379 . S
C360 C357 1.363 . S
C360 N358 1.356 . S
C361 C355 1.363 . S
C361 C356 1.379 . S
C361 N359 1.356 . S
N362 C354 1.356 . S
N362 H368 0.984 . S
N362 H369 0.984 . S
N363 C356 1.356 . S
N363 H366 0.984 . S
N363 H367 0.985 . S
H364 N359 0.984 . S
H365 N359 0.985 . S
H366 N363 0.984 . S
H367 N363 0.985 . S
H368 N362 0.984 . S
H369 N362 0.984 . S
H370 N358 0.984 . S
H371 N358 0.985 . S
C372 C373 1.363 . S
C372 C378 1.379 . S
C372 N380 1.356 . S
C373 C372 1.363 . S
C373 C379 1.363 . S
C374 C375 1.363 . S
C374 C379 1.379 . S
C374 N381 1.356 . S
C375 C374 1.363 . S
C375 C378 1.363 . S
N376 C378 1.356 . S
N376 H388 0.984 . S
N376 H389 0.985 . S
N377 C379 1.356 . S
N377 H382 0.984 . S
N377 H383 0.985 . S
C378 C372 1.379 . S
C378 C375 1.363 . S
C378 N376 1.356 . S
C379 C373 1.363 . S
C379 C374 1.379 . S
C379 N377 1.356 . S
N380 C372 1.356 . S
N380 H386 0.984 . S
N380 H387 0.984 . S
N381 C374 1.356 . S
N381 H384 0.984 . S
N381 H385 0.985 . S
H382 N377 0.984 . S
H383 N377 0.985 . S
H384 N381 0.984 . S
H385 N381 0.985 . S
H386 N380 0.984 . S
H387 N380 0.984 . S
H388 N376 0.984 . S
H389 N376 0.985 . S
C390 C391 1.363 . S
C390 C396 1.379 . S
C390 N398 1.356 . S
C391 C390 1.363 . S
C391 C397 1.363 . S
C392 C393 1.363 . S
C392 C397 1.379 . S
C392 N399 1.356 . S
C393 C392 1.363 . S
C393 C396 1.363 . S
N394 C396 1.356 . S
N394 H406 0.984 . S
N394 H407 0.985 . S
N395 C397 1.356 . S
N395 H400 0.984 . S
N395 H401 0.985 . S
C396 C390 1.379 . S
C396 C393 1.363 . S
C396 N394 1.356 . S
C397 C391 1.363 . S
C397 C392 1.379 . S
C397 N395 1.356 . S
N398 C390 1.356 . S
N398 H404 0.984 . S
N398 H405 0.984 . S
N399 C392 1.356 . S
N399 H402 0.984 . S
N399 H403 0.985 . S
H400 N395 0.984 . S
H401 N395 0.985 . S
H402 N399 0.984 . S
H403 N399 0.985 . S
H404 N398 0.984 . S
H405 N398 0.984 . S
H406 N394 0.984 . S
H407 N394 0.985 . S
C408 C409 1.363 . S
C408 C414 1.379 . S
C408 N416 1.356 . S
C409 C408 1.363 . S
C409 C415 1.363 1_545 S
C410 C411 1.363 1_565 S
C410 C415 1.379 . S
C410 N417 1.356 . S
C411 C410 1.363 1_545 S
C411 C414 1.363 . S
N412 C414 1.356 . S
N412 H424 0.984 . S
N412 H425 0.985 . S
N413 C415 1.356 1_554 S
N413 H418 0.984 . S
N413 H419 0.985 . S
C414 C408 1.379 . S
C414 C411 1.363 . S
C414 N412 1.356 . S
C415 C409 1.363 1_565 S
C415 C410 1.379 . S
C415 N413 1.356 1_556 S
N416 C408 1.356 . S
N416 H422 0.984 . S
N416 H423 0.984 1_556 S
N417 C410 1.356 . S
N417 H420 0.984 . S
N417 H421 0.985 . S
H418 N413 0.984 . S
H419 N413 0.985 . S
H420 N417 0.984 . S
H421 N417 0.985 . S
H422 N416 0.984 . S
H423 N416 0.984 1_554 S
H424 N412 0.984 . S
H425 N412 0.985 . S
C426 C427 1.363 1_554 S
C426 C432 1.379 1_554 S
C426 N434 1.356 . S
C427 C426 1.363 1_556 S
C427 C433 1.363 . S
C428 C429 1.363 . S
C428 C433 1.379 . S
C428 N435 1.356 . S
C429 C428 1.363 . S
C429 C432 1.363 . S
N430 C432 1.356 . S
N430 H442 0.984 1_556 S
N430 H443 0.985 . S
N431 C433 1.356 . S
N431 H436 0.984 . S
N431 H437 0.985 . S
C432 C426 1.379 1_556 S
C432 C429 1.363 . S
C432 N430 1.356 . S
C433 C427 1.363 . S
C433 C428 1.379 . S
C433 N431 1.356 . S
N434 C426 1.356 . S
N434 H440 0.984 . S
N434 H441 0.984 . S
N435 C428 1.356 . S
N435 H438 0.984 . S
N435 H439 0.985 . S
H436 N431 0.984 . S
H437 N431 0.985 . S
H438 N435 0.984 . S
H439 N435 0.985 . S
H440 N434 0.984 . S
H441 N434 0.984 . S
H442 N430 0.984 1_554 S
H443 N430 0.985 . S
C444 C445 1.363 . S
C444 C450 1.379 . S
C444 N452 1.356 1_556 S
C445 C444 1.363 . S
C445 C451 1.363 . S
C446 C447 1.363 . S
C446 C451 1.379 . S
C446 N453 1.356 . S
C447 C446 1.363 . S
C447 C450 1.363 . S
N448 C450 1.356 . S
N448 H460 0.984 . S
N448 H461 0.985 . S
N449 C451 1.356 . S
N449 H454 0.984 . S
N449 H455 0.985 . S
C450 C444 1.379 . S
C450 C447 1.363 . S
C450 N448 1.356 . S
C451 C445 1.363 . S
C451 C446 1.379 . S
C451 N449 1.356 . S
N452 C444 1.356 1_554 S
N452 H458 0.984 . S
N452 H459 0.984 . S
N453 C446 1.356 . S
N453 H456 0.984 . S
N453 H457 0.985 . S
H454 N449 0.984 . S
H455 N449 0.985 . S
H456 N453 0.984 . S
H457 N453 0.985 . S
H458 N452 0.984 . S
H459 N452 0.984 . S
H460 N448 0.984 . S
H461 N448 0.985 . S
C462 C463 1.363 . S
C462 C468 1.379 . S
C462 N470 1.356 1_556 S
C463 C462 1.363 . S
C463 C469 1.363 . S
C464 C465 1.363 . S
C464 C469 1.379 . S
C464 N471 1.356 . S
C465 C464 1.363 . S
C465 C468 1.363 . S
N466 C468 1.356 . S
N466 H478 0.984 1_556 S
N466 H479 0.985 . S
N467 C469 1.356 . S
N467 H472 0.984 . S
N467 H473 0.985 . S
C468 C462 1.379 . S
C468 C465 1.363 . S
C468 N466 1.356 . S
C469 C463 1.363 . S
C469 C464 1.379 . S
C469 N467 1.356 . S
N470 C462 1.356 1_554 S
N470 H476 0.984 . S
N470 H477 0.984 . S
N471 C464 1.356 . S
N471 H474 0.984 . S
N471 H475 0.985 . S
H472 N467 0.984 . S
H473 N467 0.985 . S
H474 N471 0.984 . S
H475 N471 0.985 . S
H476 N470 0.984 . S
H477 N470 0.984 . S
H478 N466 0.984 1_554 S
H479 N466 0.985 . S
C480 C481 1.363 . S
C480 C486 1.379 . S
C480 N488 1.356 . S
C481 C480 1.363 . S
C481 C487 1.363 . S
C482 C483 1.363 . S
C482 C487 1.379 . S
C482 N489 1.356 . S
C483 C482 1.363 . S
C483 C486 1.363 . S
N484 C486 1.356 . S
N484 H496 0.984 . S
N484 H497 0.985 . S
N485 C487 1.356 . S
N485 H490 0.984 . S
N485 H491 0.985 . S
C486 C480 1.379 . S
C486 C483 1.363 . S
C486 N484 1.356 . S
C487 C481 1.363 . S
C487 C482 1.379 . S
C487 N485 1.356 . S
N488 C480 1.356 . S
N488 H494 0.984 . S
N488 H495 0.984 . S
N489 C482 1.356 . S
N489 H492 0.984 . S
N489 H493 0.985 . S
H490 N485 0.984 . S
H491 N485 0.985 . S
H492 N489 0.984 . S
H493 N489 0.985 . S
H494 N488 0.984 . S
H495 N488 0.984 . S
H496 N484 0.984 . S
H497 N484 0.985 . S
C498 C499 1.363 . S
C498 C504 1.379 . S
C498 N506 1.356 . S
C499 C498 1.363 . S
C499 C505 1.363 1_545 S
C500 C501 1.363 1_565 S
C500 C505 1.379 . S
C500 N507 1.356 . S
C501 C500 1.363 1_545 S
C501 C504 1.363 . S
N502 C504 1.356 . S
N502 H514 0.984 . S
N502 H515 0.985 . S
N503 C505 1.356 . S
N503 H508 0.984 . S
N503 H509 0.985 . S
C504 C498 1.379 . S
C504 C501 1.363 . S
C504 N502 1.356 . S
C505 C499 1.363 1_565 S
C505 C500 1.379 . S
C505 N503 1.356 . S
N506 C498 1.356 . S
N506 H512 0.984 . S
N506 H513 0.984 . S
N507 C500 1.356 . S
N507 H510 0.984 . S
N507 H511 0.985 . S
H508 N503 0.984 . S
H509 N503 0.985 . S
H510 N507 0.984 . S
H511 N507 0.985 . S
H512 N506 0.984 . S
H513 N506 0.984 . S
H514 N502 0.984 . S
H515 N502 0.985 . S
C516 C517 1.363 . S
C516 C522 1.379 . S
C516 N524 1.356 . S
C517 C516 1.363 . S
C517 C523 1.363 . S
C518 C519 1.363 . S
C518 C523 1.379 . S
C518 N525 1.356 . S
C519 C518 1.363 . S
C519 C522 1.363 . S
N520 C522 1.356 . S
N520 H532 0.984 . S
N520 H533 0.985 . S
N521 C523 1.356 . S
N521 H526 0.984 . S
N521 H527 0.985 . S
C522 C516 1.379 . S
C522 C519 1.363 . S
C522 N520 1.356 . S
C523 C517 1.363 . S
C523 C518 1.379 . S
C523 N521 1.356 . S
N524 C516 1.356 . S
N524 H530 0.984 . S
N524 H531 0.984 . S
N525 C518 1.356 . S
N525 H528 0.984 . S
N525 H529 0.985 . S
H526 N521 0.984 . S
H527 N521 0.985 . S
H528 N525 0.984 . S
H529 N525 0.985 . S
H530 N524 0.984 . S
H531 N524 0.984 . S
H532 N520 0.984 . S
H533 N520 0.985 . S
C534 C535 1.363 . S
C534 C540 1.379 . S
C534 N542 1.356 . S
C535 C534 1.363 . S
C535 C541 1.363 . S
C536 C537 1.363 . S
C536 C541 1.379 . S
C536 N543 1.356 . S
C537 C536 1.363 . S
C537 C540 1.363 . S
N538 C540 1.356 . S
N538 H550 0.984 . S
N538 H551 0.985 . S
N539 C541 1.356 . S
N539 H544 0.984 . S
N539 H545 0.985 . S
C540 C534 1.379 . S
C540 C537 1.363 . S
C540 N538 1.356 . S
C541 C535 1.363 . S
C541 C536 1.379 . S
C541 N539 1.356 . S
N542 C534 1.356 . S
N542 H548 0.984 . S
N542 H549 0.984 . S
N543 C536 1.356 . S
N543 H546 0.984 . S
N543 H547 0.985 . S
H544 N539 0.984 . S
H545 N539 0.985 . S
H546 N543 0.984 . S
H547 N543 0.985 . S
H548 N542 0.984 . S
H549 N542 0.984 . S
H550 N538 0.984 . S
H551 N538 0.985 . S
C552 C553 1.363 . S
C552 C558 1.379 . S
C552 N560 1.356 . S
C553 C552 1.363 . S
C553 C559 1.363 . S
C554 C555 1.363 . S
C554 C559 1.379 . S
C554 N561 1.356 . S
C555 C554 1.363 . S
C555 C558 1.363 . S
N556 C558 1.356 . S
N556 H568 0.984 . S
N556 H569 0.985 . S
N557 C559 1.356 . S
N557 H562 0.984 . S
N557 H563 0.985 . S
C558 C552 1.379 . S
C558 C555 1.363 . S
C558 N556 1.356 . S
C559 C553 1.363 . S
C559 C554 1.379 . S
C559 N557 1.356 . S
N560 C552 1.356 . S
N560 H566 0.984 . S
N560 H567 0.984 . S
N561 C554 1.356 . S
N561 H564 0.984 1_655 S
N561 H565 0.985 . S
H562 N557 0.984 . S
H563 N557 0.985 . S
H564 N561 0.984 1_455 S
H565 N561 0.985 . S
H566 N560 0.984 . S
H567 N560 0.984 . S
H568 N556 0.984 . S
H569 N556 0.985 . S
C570 C571 1.376 . S
C570 C576 1.379 . S
C570 N578 1.356 1_556 S
C571 C570 1.376 . S
C571 C577 1.357 1_545 S
C572 C573 1.363 1_565 S
C572 C577 1.379 . S
C572 N579 1.356 . S
C573 C572 1.363 1_545 S
C573 C576 1.363 . S
N574 C576 1.356 . S
N574 H586 0.984 1_556 S
N574 H587 0.985 . S
N575 C577 1.356 . S
N575 H580 0.984 . S
N575 H581 0.985 . S
C576 C570 1.379 . S
C576 C573 1.363 . S
C576 N574 1.356 . S
C577 C571 1.357 1_565 S
C577 C572 1.379 . S
C577 N575 1.356 . S
N578 C570 1.356 1_554 S
N578 H584 0.984 . S
N578 H585 0.984 . S
N579 C572 1.356 . S
N579 H582 0.984 . S
N579 H583 0.985 . S
H580 N575 0.984 . S
H581 N575 0.985 . S
H582 N579 0.984 . S
H583 N579 0.985 . S
H584 N578 0.984 . S
H585 N578 0.984 . S
H586 N574 0.984 1_554 S
H587 N574 0.985 . S
C588 C589 1.363 . S
C588 C594 1.379 . S
C588 N596 1.356 . S
C589 C588 1.363 . S
C589 C595 1.363 . S
C590 C591 1.363 . S
C590 C595 1.379 . S
C590 N597 1.356 . S
C591 C590 1.363 . S
C591 C594 1.363 . S
N592 C594 1.356 . S
N592 H604 0.984 . S
N592 H605 0.985 . S
N593 C595 1.356 . S
N593 H598 0.984 . S
N593 H599 0.985 1_556 S
C594 C588 1.379 . S
C594 C591 1.363 . S
C594 N592 1.356 . S
C595 C589 1.363 . S
C595 C590 1.379 . S
C595 N593 1.356 . S
N596 C588 1.356 . S
N596 H602 0.984 . S
N596 H603 0.984 . S
N597 C590 1.356 . S
N597 H600 0.984 . S
N597 H601 0.985 1_556 S
H598 N593 0.984 . S
H599 N593 0.985 1_554 S
H600 N597 0.984 . S
H601 N597 0.985 1_554 S
H602 N596 0.984 . S
H603 N596 0.984 . S
H604 N592 0.984 . S
H605 N592 0.985 . S
C606 C607 1.363 . S
C606 C612 1.379 . S
C606 N614 1.356 . S
C607 C606 1.363 . S
C607 C613 1.363 . S
C608 C609 1.363 . S
C608 C613 1.379 . S
C608 N615 1.356 . S
C609 C608 1.363 . S
C609 C612 1.363 . S
N610 C612 1.356 . S
N610 H622 0.984 . S
N610 H623 0.985 . S
N611 C613 1.356 . S
N611 H616 0.984 . S
N611 H617 0.985 . S
C612 C606 1.379 . S
C612 C609 1.363 . S
C612 N610 1.356 . S
C613 C607 1.363 . S
C613 C608 1.379 . S
C613 N611 1.356 . S
N614 C606 1.356 . S
N614 H620 0.984 . S
N614 H621 0.984 . S
N615 C608 1.356 . S
N615 H618 0.984 . S
N615 H619 0.985 . S
H616 N611 0.984 . S
H617 N611 0.985 . S
H618 N615 0.984 . S
H619 N615 0.985 . S
H620 N614 0.984 . S
H621 N614 0.984 . S
H622 N610 0.984 . S
H623 N610 0.985 . S
C624 C625 1.363 1_556 S
C624 C630 1.379 . S
C624 N632 1.356 . S
C625 C624 1.363 1_554 S
C625 C631 1.363 . S
C626 C627 1.363 1_554 S
C626 C631 1.379 . S
C626 N633 1.356 . S
C627 C626 1.363 1_556 S
C627 C630 1.363 . S
N628 C630 1.356 . S
N628 H640 0.984 . S
N628 H641 0.985 . S
N629 C631 1.356 . S
N629 H634 0.984 . S
N629 H635 0.985 . S
C630 C624 1.379 . S
C630 C627 1.363 . S
C630 N628 1.356 . S
C631 C625 1.363 . S
C631 C626 1.379 . S
C631 N629 1.356 . S
N632 C624 1.356 . S
N632 H638 0.984 . S
N632 H639 0.985 1_556 S
N633 C626 1.356 . S
N633 H636 0.984 . S
N633 H637 0.985 . S
H634 N629 0.984 . S
H635 N629 0.985 . S
H636 N633 0.984 . S
H637 N633 0.985 . S
H638 N632 0.984 . S
H639 N632 0.985 1_554 S
H640 N628 0.984 . S
H641 N628 0.985 . S
C642 C643 1.351 1_565 S
C642 C648 1.382 . S
C642 N650 1.363 . S
C643 C642 1.351 1_545 S
C643 C649 1.363 1_556 S
C644 C645 1.363 . S
C644 C649 1.379 1_556 S
C644 N651 1.356 1_556 S
C645 C644 1.363 . S
C645 C648 1.363 1_545 S
N646 C648 1.356 . S
N646 H658 0.984 . S
N646 H659 0.985 . S
N647 C649 1.356 . S
N647 H652 0.984 . S
N647 H653 0.985 . S
C648 C642 1.382 . S
C648 C645 1.363 1_565 S
C648 N646 1.356 . S
C649 C643 1.363 1_554 S
C649 C644 1.379 1_554 S
C649 N647 1.356 . S
N650 C642 1.363 . S
N650 H656 0.984 . S
N650 H657 0.984 . S
N651 C644 1.356 1_554 S
N651 H654 0.984 1_554 S
N651 H655 0.985 . S
H652 N647 0.984 . S
H653 N647 0.985 . S
H654 N651 0.984 1_556 S
H655 N651 0.985 . S
H656 N650 0.984 . S
H657 N650 0.984 . S
H658 N646 0.984 . S
H659 N646 0.985 . S
C660 C661 1.363 1_556 S
C660 C666 1.379 . S
C660 N668 1.356 . S
C661 C660 1.363 1_554 S
C661 C667 1.363 . S
C662 C663 1.363 . S
C662 C667 1.379 1_556 S
C662 N669 1.356 . S
C663 C662 1.363 . S
C663 C666 1.363 . S
N664 C666 1.356 . S
N664 H676 0.984 . S
N664 H677 0.985 . S
N665 C667 1.356 . S
N665 H670 0.984 . S
N665 H671 0.985 . S
C666 C660 1.379 . S
C666 C663 1.363 . S
C666 N664 1.356 . S
C667 C661 1.363 . S
C667 C662 1.379 1_554 S
C667 N665 1.356 . S
N668 C660 1.356 . S
N668 H674 0.984 . S
N668 H675 0.984 . S
N669 C662 1.356 . S
N669 H672 0.984 . S
N669 H673 0.985 . S
H670 N665 0.984 . S
H671 N665 0.985 . S
H672 N669 0.984 . S
H673 N669 0.985 . S
H674 N668 0.984 . S
H675 N668 0.984 . S
H676 N664 0.984 . S
H677 N664 0.985 . S
C678 C679 1.363 . S
C678 C684 1.379 1_554 S
C678 N686 1.356 . S
C679 C678 1.363 . S
C679 C685 1.363 1_554 S
C680 C681 1.363 . S
C680 C685 1.379 . S
C680 N687 1.356 . S
C681 C680 1.363 . S
C681 C684 1.363 . S
N682 C684 1.356 . S
N682 H694 0.984 . S
N682 H695 0.985 . S
N683 C685 1.356 1_554 S
N683 H688 0.984 . S
N683 H689 0.985 . S
C684 C678 1.379 1_556 S
C684 C681 1.363 . S
C684 N682 1.356 . S
C685 C679 1.363 1_556 S
C685 C680 1.379 . S
C685 N683 1.356 1_556 S
N686 C678 1.356 . S
N686 H692 0.984 . S
N686 H693 0.984 . S
N687 C680 1.356 . S
N687 H690 0.984 . S
N687 H691 0.985 . S
H688 N683 0.984 . S
H689 N683 0.985 . S
H690 N687 0.984 . S
H691 N687 0.985 . S
H692 N686 0.984 . S
H693 N686 0.984 . S
H694 N682 0.984 . S
H695 N682 0.985 . S
C696 C697 1.363 . S
C696 C702 1.379 . S
C696 N704 1.356 . S
C697 C696 1.363 . S
C697 C703 1.363 . S
C698 C699 1.363 . S
C698 C703 1.379 . S
C698 N705 1.356 . S
C699 C698 1.363 . S
C699 C702 1.363 . S
N700 C702 1.356 . S
N700 H712 0.984 . S
N700 H713 0.985 . S
N701 C703 1.356 . S
N701 H706 0.984 . S
N701 H707 0.985 . S
C702 C696 1.379 . S
C702 C699 1.363 . S
C702 N700 1.356 . S
C703 C697 1.363 . S
C703 C698 1.379 . S
C703 N701 1.356 . S
N704 C696 1.356 . S
N704 H710 0.984 . S
N704 H711 0.984 . S
N705 C698 1.356 . S
N705 H708 0.984 . S
N705 H709 0.985 . S
H706 N701 0.984 . S
H707 N701 0.985 . S
H708 N705 0.984 . S
H709 N705 0.985 . S
H710 N704 0.984 . S
H711 N704 0.984 . S
H712 N700 0.984 . S
H713 N700 0.985 . S
C714 C715 1.363 1_565 S
C714 C720 1.379 . S
C714 N722 1.356 . S
C715 C714 1.363 1_545 S
C715 C721 1.363 . S
C716 C717 1.363 . S
C716 C721 1.379 . S
C716 N723 1.356 . S
C717 C716 1.363 . S
C717 C720 1.363 1_545 S
N718 C720 1.356 . S
N718 H730 0.984 . S
N718 H731 0.985 . S
N719 C721 1.356 . S
N719 H724 0.984 . S
N719 H725 0.985 . S
C720 C714 1.379 . S
C720 C717 1.363 1_565 S
C720 N718 1.356 . S
C721 C715 1.363 . S
C721 C716 1.379 . S
C721 N719 1.356 . S
N722 C714 1.356 . S
N722 H728 0.984 . S
N722 H729 0.984 . S
N723 C716 1.356 . S
N723 H726 0.984 . S
N723 H727 0.985 . S
H724 N719 0.984 . S
H725 N719 0.985 . S
H726 N723 0.984 . S
H727 N723 0.985 . S
H728 N722 0.984 . S
H729 N722 0.984 . S
H730 N718 0.984 . S
H731 N718 0.985 . S
C732 C733 1.363 . S
C732 C738 1.379 . S
C732 N740 1.356 . S
C733 C732 1.363 . S
C733 C739 1.363 . S
C734 C735 1.363 . S
C734 C739 1.379 . S
C734 N741 1.356 . S
C735 C734 1.363 . S
C735 C738 1.363 . S
N736 C738 1.356 . S
N736 H748 0.984 . S
N736 H749 0.985 . S
N737 C739 1.356 . S
N737 H742 0.984 . S
N737 H743 0.985 . S
C738 C732 1.379 . S
C738 C735 1.363 . S
C738 N736 1.356 . S
C739 C733 1.363 . S
C739 C734 1.379 . S
C739 N737 1.356 . S
N740 C732 1.356 . S
N740 H746 0.984 . S
N740 H747 0.984 . S
N741 C734 1.356 . S
N741 H744 0.984 . S
N741 H745 0.985 . S
H742 N737 0.984 . S
H743 N737 0.985 . S
H744 N741 0.984 . S
H745 N741 0.985 . S
H746 N740 0.984 . S
H747 N740 0.984 . S
H748 N736 0.984 . S
H749 N736 0.985 . S
C750 C751 1.363 . S
C750 C756 1.379 . S
C750 N758 1.356 . S
C751 C750 1.363 . S
C751 C757 1.363 . S
C752 C753 1.363 . S
C752 C757 1.379 . S
C752 N759 1.356 . S
C753 C752 1.363 . S
C753 C756 1.363 . S
N754 C756 1.356 . S
N754 H766 0.984 . S
N754 H767 0.985 . S
N755 C757 1.356 . S
N755 H760 0.984 . S
N755 H761 0.985 . S
C756 C750 1.379 . S
C756 C753 1.363 . S
C756 N754 1.356 . S
C757 C751 1.363 . S
C757 C752 1.379 . S
C757 N755 1.356 . S
N758 C750 1.356 . S
N758 H764 0.984 . S
N758 H765 0.984 . S
N759 C752 1.356 . S
N759 H762 0.984 . S
N759 H763 0.985 . S
H760 N755 0.984 . S
H761 N755 0.985 . S
H762 N759 0.984 . S
H763 N759 0.985 . S
H764 N758 0.984 . S
H765 N758 0.984 . S
H766 N754 0.984 . S
H767 N754 0.985 . S
C337 C215 1.550 . S
C339 C257 1.571 . S
C357 C292 2.091 . S
C355 C247 2.023 . S
C375 C297 1.421 . S
C373 C151 1.360 . S
C393 C317 1.894 . S
C391 C183 1.862 . S
C411 C265 1.572 . S
C409 C87 1.514 1_556 S
C427 C119 1.756 1_556 S
C429 C282 2.091 . S
C445 C23 1.444 . S
C447 C305 1.421 . S
C463 C55 1.613 . S
C465 C325 1.895 . S
C483 C275 1.741 . S
C481 C189 1.657 . S
C501 C284 0.994 1_545 S
C499 C221 0.980 . S
C519 C315 1.825 . S
C517 C253 1.750 . S
C535 C157 1.039 . S
C537 C335 1.124 . S
C553 C61 1.352 . S
C555 C264 1.741 . S
C573 C295 0.994 . S
C571 C93 0.965 . S
C591 C304 1.825 . S
C589 C125 1.400 . S
C607 C29 1.107 . S
C609 C324 1.125 . S
C625 C177 1.913 . S
C627 C262 1.982 . S
C643 C209 1.704 1_556 S
C645 C285 1.860 . S
C663 C302 2.136 . S
C661 C241 2.022 . S
C681 C322 1.926 . S
C679 C145 1.740 . S
C697 C49 1.738 . S
C699 C272 1.982 . S
C717 C277 1.860 . S
C715 C81 1.691 . S
C735 C312 2.136 . S
C733 C113 1.822 . S
C751 C17 1.825 . S
C753 C332 1.926 . S
