# Generated by pormake.
# Topology anh, (6,3)-cn, num edge types: 1
# Building blocks:
#     Node 0, Type 0, BuildingBlock: PAMTUU_clean_sbu_0, # of connection points: 6
#     Node 1, Type 0, BuildingBlock: PAMTUU_clean_sbu_0, # of connection points: 6
#     Node 2, Type 0, BuildingBlock: PAMTUU_clean_sbu_0, # of connection points: 6
#     Node 3, Type 1, BuildingBlock: BETDAH_clean_linker_0, # of connection points: 3
#     Node 4, Type 1, BuildingBlock: BETDAH_clean_linker_0, # of connection points: 3
#     Node 5, Type 1, BuildingBlock: BETDAH_clean_linker_0, # of connection points: 3
#     Node 6, Type 1, BuildingBlock: BETDAH_clean_linker_0, # of connection points: 3
#     Node 7, Type 1, BuildingBlock: BETDAH_clean_linker_0, # of connection points: 3
#     Node 8, Type 1, BuildingBlock: BETDAH_clean_linker_0, # of connection points: 3
#     Edge 9, Type (0, 1), BuildingBlock: XUDNAN_clean_linker_2, # of connection points: 2
#     Edge 10, Type (0, 1), BuildingBlock: XUDNAN_clean_linker_2, # of connection points: 2
#     Edge 11, Type (0, 1), BuildingBlock: XUDNAN_clean_linker_2, # of connection points: 2
#     Edge 12, Type (0, 1), BuildingBlock: XUDNAN_clean_linker_2, # of connection points: 2
#     Edge 13, Type (0, 1), BuildingBlock: XUDNAN_clean_linker_2, # of connection points: 2
#     Edge 14, Type (0, 1), BuildingBlock: XUDNAN_clean_linker_2, # of connection points: 2
#     Edge 15, Type (0, 1), BuildingBlock: XUDNAN_clean_linker_2, # of connection points: 2
#     Edge 16, Type (0, 1), BuildingBlock: XUDNAN_clean_linker_2, # of connection points: 2
#     Edge 17, Type (0, 1), BuildingBlock: XUDNAN_clean_linker_2, # of connection points: 2
#     Edge 18, Type (0, 1), BuildingBlock: XUDNAN_clean_linker_2, # of connection points: 2
#     Edge 19, Type (0, 1), BuildingBlock: XUDNAN_clean_linker_2, # of connection points: 2
#     Edge 20, Type (0, 1), BuildingBlock: XUDNAN_clean_linker_2, # of connection points: 2
#     Edge 21, Type (0, 1), BuildingBlock: XUDNAN_clean_linker_2, # of connection points: 2
#     Edge 22, Type (0, 1), BuildingBlock: XUDNAN_clean_linker_2, # of connection points: 2
#     Edge 23, Type (0, 1), BuildingBlock: XUDNAN_clean_linker_2, # of connection points: 2
#     Edge 24, Type (0, 1), BuildingBlock: XUDNAN_clean_linker_2, # of connection points: 2
#     Edge 25, Type (0, 1), BuildingBlock: XUDNAN_clean_linker_2, # of connection points: 2
#     Edge 26, Type (0, 1), BuildingBlock: XUDNAN_clean_linker_2, # of connection points: 2
# Relax obj value: 0.240
# Max RMSD: 0.145
# Mean RMSD: 0.101
data_MOF--net-anh--node1-PAMTUU_clean_sbu_0--node2-BETDAH_clean_linker_0--edge1-XUDNAN_clean_linker_2
_symmetry_space_group_name_H-M    P1
_symmetry_Int_Tables_number       1
_symmetry_cell_setting            triclinic
loop_
_symmetry_equiv_pos_as_xyz
'x, y, z'
_cell_length_a     31.003616
_cell_length_b     31.335859
_cell_length_c     50.611045
_cell_angle_alpha  94.452274
_cell_angle_beta   93.59104
_cell_angle_gamma 119.16846
loop_
_atom_site_label
_atom_site_type_symbol
_atom_site_fract_x
_atom_site_fract_y
_atom_site_fract_z
_atom_type_partial_charge
Tb0 Tb 0.11744 0.66087 0.14253 0.0
Tb1 Tb 0.17602 0.60114 0.14422 0.0
C2 C 0.13644 0.61728 0.08938 0.0
C3 C 1.02233 0.69515 0.15291 0.0
C4 C 0.92284 0.64838 0.16385 0.0
C5 C 0.93705 0.67539 0.14191 0.0
C6 C 0.98642 0.69868 0.13658 0.0
C7 C 1.00938 0.67243 0.17626 0.0
C8 C 0.96006 0.64968 0.18183 0.0
C9 C 1.06965 0.70664 0.1428 0.0
O10 O 1.05345 0.58224 0.14281 0.0
O11 O 1.09861 0.54296 0.1486 0.0
O12 O 0.18407 0.63233 0.18522 0.0
O13 O 0.11297 0.637 0.18153 0.0
O14 O 0.22684 0.58286 0.12828 0.0
O15 O 0.18634 0.54709 0.16067 0.0
O16 O 0.23777 0.67845 0.14282 0.0
O17 O 0.19769 0.72201 0.15204 0.0
O18 O 0.13552 0.65523 0.10162 0.0
O19 O 0.14102 0.58586 0.1033 0.0
C20 C 1.05481 0.54117 0.14697 0.0
O21 O 0.10693 0.71727 0.16055 0.0
O22 O 1.06574 0.67574 0.12271 0.0
C23 C 0.14801 0.63486 0.19604 0.0
C24 C 0.26115 0.54535 0.15603 0.0
C25 C 0.3305 0.51343 0.16558 0.0
C26 C 0.28532 0.49152 0.1766 0.0
C27 C 0.25098 0.5074 0.1719 0.0
C28 C 0.30821 0.57027 0.14702 0.0
C29 C 0.34282 0.55455 0.15192 0.0
C30 C 0.2192 0.55066 0.14489 0.0
C31 C 0.23987 0.72165 0.14876 0.0
H32 H 0.90963 0.67488 0.12736 0.0
H33 H 0.99573 0.71586 0.11843 0.0
H34 H 1.03655 0.66921 0.18921 0.0
H35 H 0.95057 0.63007 0.19917 0.0
H36 H 0.27512 0.45978 0.1872 0.0
H37 H 0.21485 0.48731 0.17892 0.0
H38 H 0.31698 0.59945 0.1346 0.0
H39 H 0.37732 0.57172 0.14302 0.0
Tb40 Tb 0.58835 0.11335 0.47772 0.0
Tb41 Tb 0.70474 0.16296 0.47636 0.0
C42 C 0.63535 0.13401 0.42316 0.0
C43 C 0.46308 1.0258 0.49117 0.0
C44 C 0.39682 0.93339 0.5055 0.0
C45 C 0.38079 0.96741 0.50102 0.0
C46 C 0.41378 1.01338 0.49372 0.0
C47 C 0.48003 0.99335 0.49768 0.0
C48 C 0.44693 0.94709 0.50447 0.0
C49 C 0.49628 0.07132 0.48054 0.0
O50 O 0.6003 1.04793 0.47342 0.0
O51 O 0.68537 0.08434 0.47995 0.0
O52 O 0.6906 0.17515 0.51707 0.0
O53 O 0.61855 0.10389 0.51487 0.0
O54 O 0.76972 0.20971 0.45992 0.0
O55 O 0.7735 0.17704 0.49528 0.0
O56 O 0.6891 0.226 0.47448 0.0
O57 O 0.61256 0.19311 0.48928 0.0
O58 O 0.6026 0.13579 0.43785 0.0
O59 O 0.6743 0.13339 0.43455 0.0
C60 C 0.641 1.04377 0.47744 0.0
O61 O 0.52907 0.10679 0.49822 0.0
O62 O 0.51593 0.06561 0.45938 0.0
C63 C 0.65851 0.13914 0.52884 0.0
C64 C 0.82948 0.26112 0.49511 0.0
C65 C 0.87558 0.36183 0.51386 0.0
C66 C 0.8325 0.3283 0.52407 0.0
C67 C 0.80977 0.27831 0.51487 0.0
C68 C 0.87465 0.29409 0.48638 0.0
C69 C 0.89783 0.34432 0.49586 0.0
C70 C 0.79814 0.21157 0.48059 0.0
C71 C 0.6526 0.23218 0.48324 0.0
H72 H 0.34199 0.95706 0.50124 0.0
H73 H 0.40033 1.03828 0.48898 0.0
H74 H 0.51831 1.00293 0.49634 0.0
H75 H 0.45978 0.92111 0.50756 0.0
H76 H 0.81449 0.34122 0.53767 0.0
H77 H 0.7748 0.25372 0.5218 0.0
H78 H 0.89008 0.28162 0.47094 0.0
H79 H 0.93066 0.36989 0.4874 0.0
Tb80 Tb 0.59688 0.5377 0.79599 0.0
Tb81 Tb 0.65778 0.65334 0.81582 0.0
C82 C 0.63283 0.61118 0.75386 0.0
C83 C 0.55685 0.4062 0.79429 0.0
C84 C 0.57299 0.33223 0.81301 0.0
C85 C 0.61243 0.37481 0.80518 0.0
C86 C 0.60455 0.41155 0.79617 0.0
C87 C 0.51745 0.36433 0.80243 0.0
C88 C 0.52543 0.32759 0.81176 0.0
C89 C 0.54853 0.44537 0.78541 0.0
O90 O 0.67596 0.55484 0.7962 0.0
O91 O 0.71555 0.63037 0.8215 0.0
O92 O 0.6248 0.61825 0.8502 0.0
O93 O 0.62491 0.54723 0.83751 0.0
O94 O 0.6779 0.72563 0.8093 0.0
O95 O 0.71388 0.71102 0.84283 0.0
O96 O 0.57949 0.64033 0.81403 0.0
O97 O 0.53791 0.55603 0.80475 0.0
O98 O 0.59625 0.56971 0.75943 0.0
O99 O 0.66527 0.64412 0.7731 0.0
C100 C 0.71696 0.59167 0.80999 0.0
O101 O 0.53943 0.46983 0.8041 0.0
O102 O 0.57989 0.47443 0.77021 0.0
C103 C 0.62246 0.57725 0.85597 0.0
C104 C 0.71727 0.78853 0.84632 0.0
C105 C 0.73999 0.88461 0.8658 0.0
C106 C 0.77652 0.87036 0.86794 0.0
C107 C 0.76516 0.82277 0.85833 0.0
C108 C 0.6793 0.80065 0.84661 0.0
C109 C 0.69053 0.84833 0.85655 0.0
C110 C 0.71106 0.74446 0.83026 0.0
C111 C 0.53711 0.5976 0.81077 0.0
H112 H 0.64932 0.37927 0.8051 0.0
H113 H 0.63578 0.44392 0.79044 0.0
H114 H 0.48052 0.36007 0.80155 0.0
H115 H 0.49436 0.29544 0.81775 0.0
H116 H 0.81506 0.89694 0.87465 0.0
H117 H 0.79491 0.81395 0.85833 0.0
H118 H 0.64185 0.77444 0.8377 0.0
H119 H 0.66122 0.85771 0.85519 0.0
H120 H 0.54808 1.04871 0.22483 0.0
H121 H 0.68356 0.18377 0.21976 0.0
H122 H 0.59961 0.08455 0.14801 0.0
C123 C 0.57455 0.0729 0.21243 0.0
C124 C 0.56642 0.05888 0.18462 0.0
C125 C 0.61644 0.1168 0.22512 0.0
C126 C 0.65245 0.14977 0.2098 0.0
C127 C 0.64748 0.13983 0.18171 0.0
C128 C 0.60418 0.09337 0.16946 0.0
N129 N 0.68317 0.17504 0.16525 0.0
C130 C 0.73012 0.22137 0.17068 0.0
H131 H 0.64565 0.5428 0.55872 0.0
H132 H 0.64459 0.67814 0.54955 0.0
H133 H 0.65099 0.59166 0.48088 0.0
C134 C 0.64465 0.56812 0.54565 0.0
C135 C 0.64681 0.559 0.51804 0.0
C136 C 0.64459 0.61088 0.55728 0.0
C137 C 0.64525 0.64588 0.54076 0.0
C138 C 0.6475 0.64021 0.51311 0.0
C139 C 0.6488 0.59649 0.50206 0.0
N140 N 0.65 0.67752 0.49621 0.0
C141 C 0.64599 0.72169 0.50101 0.0
H142 H 1.03478 0.60427 0.89265 0.0
H143 H 0.17411 0.60815 0.88325 0.0
H144 H 1.08381 0.60638 0.81446 0.0
C145 C 1.06221 0.60641 0.87978 0.0
C146 C 1.0524 0.60574 0.85196 0.0
C147 C 0.10526 0.60634 0.89118 0.0
C148 C 0.14093 0.60744 0.87453 0.0
C149 C 0.1345 0.60794 0.84684 0.0
C150 C 1.08958 0.60656 0.83579 0.0
N151 N 0.17183 0.61026 0.82972 0.0
C152 C 0.21634 0.60706 0.83489 0.0
H153 H 0.13513 0.63764 0.39661 0.0
H154 H 0.99375 0.62229 0.36833 0.0
H155 H 1.06032 0.68896 0.44778 0.0
C156 C 0.10334 0.64189 0.40023 0.0
C157 C 0.10225 0.66389 0.42525 0.0
C158 C 1.06556 0.62854 0.3792 0.0
C159 C 1.02395 0.63363 0.38404 0.0
C160 C 1.02084 0.65268 0.40936 0.0
C161 C 1.06084 0.66947 0.42938 0.0
N162 N 0.9772 0.65421 0.41481 0.0
C163 C 0.95952 0.643 0.43935 0.0
H164 H 0.69326 0.16194 0.72885 0.0
H165 H 0.84003 0.18916 0.71643 0.0
H166 H 0.80376 0.20522 0.79599 0.0
C167 C 0.73056 0.17176 0.73698 0.0
C168 C 0.74428 0.18317 0.76461 0.0
C169 C 0.7647 0.1739 0.71948 0.0
C170 C 0.81377 0.18871 0.72972 0.0
C171 C 0.82769 0.19901 0.75739 0.0
C172 C 0.793 0.19701 0.77463 0.0
N173 N 0.87448 0.206 0.76797 0.0
C174 C 0.87636 0.18356 0.79027 0.0
H175 H 0.65235 0.48497 0.04331 0.0
H176 H 0.50534 0.37267 0.00982 0.0
H177 H 0.56478 0.36585 0.08738 0.0
C178 C 0.61865 0.45069 0.04466 0.0
C179 C 0.61344 0.42746 0.06778 0.0
C180 C 0.58027 0.43085 0.02349 0.0
C181 C 0.53634 0.38676 0.02536 0.0
C182 C 0.53044 0.36387 0.04865 0.0
C183 C 0.56983 0.3833 0.06928 0.0
N184 N 0.4825 0.32745 0.05341 0.0
C185 C 0.46403 0.33592 0.07635 0.0
H186 H 0.29518 0.41862 0.14571 0.0
H187 H 0.43098 0.55147 0.17823 0.0
H188 H 0.47967 0.51069 0.16648 0.0
H189 H 0.33617 0.32577 0.16077 0.0
H190 H 0.30454 0.28885 0.1293 0.0
H191 H 0.27996 0.32322 0.14671 0.0
H192 H 0.28107 0.36571 0.10463 0.0
H193 H 0.30588 0.33197 0.08722 0.0
H194 H 0.33852 0.39832 0.09022 0.0
H195 H 0.51363 0.46161 0.14455 0.0
H196 H 0.53109 0.41154 0.11166 0.0
H197 H 0.37323 0.31203 0.09099 0.0
C198 C 0.33497 0.43821 0.15151 0.0
C199 C 0.35945 0.4876 0.16348 0.0
C200 C 0.41172 0.51326 0.16951 0.0
C201 C 0.43947 0.49027 0.16302 0.0
C202 C 0.41426 0.44185 0.1504 0.0
C203 C 0.36307 0.41612 0.1447 0.0
C204 C 0.34547 0.36813 0.12697 0.0
C205 C 0.31472 0.32387 0.14183 0.0
C206 C 0.31605 0.36597 0.10072 0.0
C207 C 0.39488 0.37205 0.12228 0.0
C208 C 0.43401 0.41404 0.13671 0.0
C209 C 0.48334 0.42808 0.13371 0.0
C210 C 0.49289 0.39938 0.11497 0.0
C211 C 0.45334 0.35763 0.09933 0.0
C212 C 0.40388 0.34308 0.1034 0.0
H213 H 0.82076 0.39966 0.49506 0.0
H214 H 0.96414 0.44081 0.53673 0.0
H215 H 0.99195 0.52869 0.53311 0.0
H216 H 0.8647 0.46697 0.44678 0.0
H217 H 0.81694 0.48365 0.44188 0.0
H218 H 0.80368 0.42889 0.45641 0.0
H219 H 0.77615 0.46161 0.4971 0.0
H220 H 0.79207 0.51798 0.48296 0.0
H221 H 0.81902 0.52027 0.51595 0.0
H222 H 1.00947 0.60775 0.51731 0.0
H223 H 1.02121 0.66568 0.48465 0.0
H224 H 0.8702 0.57055 0.44805 0.0
C225 C 0.85711 0.42768 0.50457 0.0
C226 C 0.89004 0.41429 0.51681 0.0
C227 C 0.93825 0.45097 0.52786 0.0
C228 C 0.95403 0.50082 0.52604 0.0
C229 C 0.92125 0.51295 0.51282 0.0
C230 C 0.87376 0.47716 0.50208 0.0
C231 C 0.84996 0.49737 0.48352 0.0
C232 C 0.83291 0.46749 0.45552 0.0
C233 C 0.80669 0.49939 0.4956 0.0
C234 C 0.89314 0.54867 0.48327 0.0
C235 C 0.93274 0.55802 0.50163 0.0
C236 C 0.97849 0.60107 0.5032 0.0
C237 C 0.98496 0.63367 0.48443 0.0
C238 C 0.94658 0.62192 0.46388 0.0
C239 C 0.89949 0.58052 0.4641 0.0
H240 H 0.70336 0.92813 0.83369 0.0
H241 H 0.81482 0.96219 0.90026 0.0
H242 H 0.85795 1.04914 0.89193 0.0
H243 H 0.77711 0.98983 0.79173 0.0
H244 H 0.74051 1.01335 0.7761 0.0
H245 H 0.71042 0.95791 0.79144 0.0
H246 H 0.66993 0.99521 0.82184 0.0
H247 H 0.69864 1.05067 0.80599 0.0
H248 H 0.7083 1.054 0.84175 0.0
H249 H 0.89941 0.12642 0.86922 0.0
H250 H 0.92898 0.18877 0.83725 0.0
H251 H 0.78887 0.10299 0.78705 0.0
C252 C 0.73507 0.95412 0.84763 0.0
C253 C 0.75582 0.93798 0.86747 0.0
C254 C 0.79851 0.97343 0.88464 0.0
C255 C 0.82316 1.02304 0.88015 0.0
C256 C 0.80385 1.03685 0.85894 0.0
C257 C 0.75975 1.00359 0.84351 0.0
C258 C 0.74976 1.02551 0.8199 0.0
C259 C 0.74418 0.99483 0.79326 0.0
C260 C 0.70395 1.03173 0.82254 0.0
C261 C 0.79684 0.07478 0.82327 0.0
C262 C 0.82734 0.0814 0.84615 0.0
C263 C 0.87517 0.12226 0.8517 0.0
C264 C 0.89189 0.15715 0.83344 0.0
C265 C 0.86083 0.15014 0.81004 0.0
C266 C 0.81284 0.10905 0.80512 0.0
H267 H 0.84074 0.65724 0.14989 0.0
H268 H 0.88499 0.55495 0.17711 0.0
H269 H 0.80014 0.48664 0.16415 0.0
H270 H 0.70113 0.58207 0.16063 0.0
H271 H 0.68424 0.59913 0.13009 0.0
H272 H 0.74137 0.64167 0.1507 0.0
H273 H 0.78985 0.64814 0.10997 0.0
H274 H 0.73352 0.6049 0.08944 0.0
H275 H 0.78478 0.59297 0.0928 0.0
H276 H 0.72175 0.42816 0.13645 0.0
H277 H 0.65311 0.38551 0.09976 0.0
H278 H 0.65984 0.52424 0.08832 0.0
C279 C 0.83201 0.62072 0.15411 0.0
C280 C 0.86966 0.61159 0.16448 0.0
C281 C 0.8568 0.56326 0.16971 0.0
C282 C 0.80858 0.52397 0.16219 0.0
C283 C 0.77355 0.53354 0.1496 0.0
C284 C 0.7843 0.58099 0.14613 0.0
C285 C 0.74364 0.58076 0.12782 0.0
C286 C 0.71594 0.60216 0.14324 0.0
C287 C 0.76421 0.60828 0.10359 0.0
C288 C 0.71091 0.526 0.11966 0.0
C289 C 0.72782 0.49925 0.13306 0.0
C290 C 0.70712 0.44851 0.12646 0.0
C291 C 0.66841 0.42463 0.10551 0.0
C292 C 0.65155 0.45172 0.09119 0.0
C293 C 0.6723 0.50273 0.09888 0.0
H294 H 0.37819 0.86119 0.46729 0.0
H295 H 0.32883 0.89109 0.54091 0.0
H296 H 0.2538 0.80836 0.53275 0.0
H297 H 0.27226 0.82223 0.43187 0.0
H298 H 0.27342 0.77589 0.40894 0.0
H299 H 0.33054 0.82633 0.42517 0.0
H300 H 0.35488 0.76532 0.44394 0.0
H301 H 0.29736 0.71429 0.42755 0.0
H302 H 0.31312 0.719 0.46295 0.0
H303 H 0.17773 0.73134 0.51235 0.0
H304 H 0.10488 0.67532 0.48029 0.0
H305 H 0.20077 0.70519 0.41714 0.0
C306 C 0.35286 0.84887 0.48238 0.0
C307 C 0.35951 0.88124 0.50507 0.0
C308 C 0.32461 0.86583 0.52379 0.0
C309 C 0.28215 0.81891 0.51931 0.0
C310 C 0.2751 0.78853 0.49585 0.0
C311 C 0.30966 0.80314 0.47762 0.0
C312 C 0.28865 0.77049 0.45122 0.0
C313 C 0.29133 0.80053 0.42798 0.0
C314 C 0.31507 0.74048 0.44613 0.0
C315 C 0.23575 0.73771 0.45667 0.0
C316 C 0.22928 0.74676 0.48287 0.0
C317 C 0.18254 0.72376 0.49184 0.0
C318 C 0.14117 0.69257 0.47331 0.0
C319 C 0.14647 0.68643 0.44584 0.0
C320 C 0.19483 0.70783 0.43787 0.0
H321 H 0.6548 0.33876 0.84072 0.0
H322 H 0.51081 0.23321 0.79843 0.0
H323 H 0.53579 0.17004 0.79594 0.0
H324 H 0.71688 0.32093 0.79898 0.0
H325 H 0.76861 0.3271 0.82063 0.0
H326 H 0.73402 0.3555 0.83175 0.0
H327 H 0.71586 0.30884 0.87331 0.0
H328 H 0.75117 0.28033 0.86235 0.0
H329 H 0.68799 0.24272 0.86928 0.0
H330 H 0.58232 0.12912 0.78363 0.0
H331 H 0.64465 0.11633 0.76196 0.0
H332 H 0.76227 0.25102 0.80699 0.0
C333 C 0.62795 0.3017 0.83191 0.0
C334 C 0.58122 0.29115 0.81949 0.0
C335 C 0.5467 0.24226 0.80838 0.0
C336 C 0.56069 0.20595 0.80687 0.0
C337 C 0.60924 0.21904 0.81656 0.0
C338 C 0.64227 0.2658 0.82932 0.0
C339 C 0.69516 0.275 0.83173 0.0
C340 C 0.73064 0.32233 0.82003 0.0
C341 C 0.71362 0.2768 0.8609 0.0
C342 C 0.68756 0.22905 0.81518 0.0
C343 C 0.63752 0.19588 0.80806 0.0
C344 C 0.62149 0.15418 0.78963 0.0
C345 C 0.65717 0.14756 0.77713 0.0
C346 C 0.70825 0.18316 0.78257 0.0
C347 C 0.72357 0.22281 0.80285 0.0
H348 H 0.71338 1.01046 0.48573 0.0
H349 H 0.55423 0.9548 0.47606 0.0
H350 H 0.53981 0.87189 0.48209 0.0
H351 H 0.70725 0.89945 0.45004 0.0
H352 H 0.7569 0.90171 0.47173 0.0
H353 H 0.75581 0.95764 0.46704 0.0
H354 H 0.75978 0.97668 0.51792 0.0
H355 H 0.76069 0.92069 0.52275 0.0
H356 H 0.71379 0.93169 0.53589 0.0
H357 H 0.54098 0.79067 0.48997 0.0
H358 H 0.55803 0.72256 0.49647 0.0
H359 H 0.71596 0.82429 0.50004 0.0
C360 C 0.67534 0.98097 0.48476 0.0
C361 C 0.63503 0.99148 0.4803 0.0
C362 C 0.58635 0.95004 0.47938 0.0
C363 C 0.57759 0.90184 0.48285 0.0
C364 C 0.61755 0.893 0.48725 0.0
C365 C 0.66569 0.93149 0.48801 0.0
C366 C 0.70179 0.91107 0.49264 0.0
C367 C 0.73227 0.91789 0.46896 0.0
C368 C 0.73607 0.93657 0.51886 0.0
C369 C 0.66676 0.85559 0.49444 0.0
C370 C 0.61819 0.84628 0.49137 0.0
C371 C 0.57908 0.79822 0.49235 0.0
C372 C 0.58921 0.75916 0.49622 0.0
C373 C 0.63832 0.76638 0.49922 0.0
C374 C 0.67769 0.81624 0.49822 0.0
H375 H 0.80367 0.64102 0.8485 0.0
H376 H 0.74355 0.53608 0.77682 0.0
H377 H 0.82064 0.53076 0.77863 0.0
H378 H 0.93407 0.70394 0.83557 0.0
H379 H 0.95894 0.71005 0.86967 0.0
H380 H 0.89996 0.70743 0.86244 0.0
H381 H 0.85831 0.63388 0.88951 0.0
H382 H 0.9172 0.63638 0.89688 0.0
H383 H 0.86399 0.57994 0.88129 0.0
H384 H 0.90918 0.53878 0.78754 0.0
H385 H 0.99194 0.55236 0.80477 0.0
H386 H 0.99551 0.64748 0.87281 0.0
C387 C 0.80661 0.61701 0.83304 0.0
C388 C 0.76606 0.5893 0.81219 0.0
C389 C 0.77276 0.55801 0.79295 0.0
C390 C 0.81709 0.5548 0.7938 0.0
C391 C 0.85595 0.58241 0.81438 0.0
C392 C 0.85078 0.61247 0.83394 0.0
C393 C 0.89746 0.63648 0.85459 0.0
C394 C 0.92418 0.69283 0.85563 0.0
C395 C 0.8834 0.62075 0.88221 0.0
C396 C 0.92973 0.61574 0.8436 0.0
C397 C 0.90523 0.58504 0.82015 0.0
C398 C 0.92806 0.56263 0.806 0.0
C399 C 0.97594 0.57095 0.81596 0.0
C400 C 1.00212 0.6011 0.84041 0.0
C401 C 0.97765 0.62378 0.8542 0.0
H402 H 0.2794 0.81848 0.17943 0.0
H403 H 0.32134 0.73894 0.12237 0.0
H404 H 0.40345 0.81338 0.1232 0.0
H405 H 0.34691 0.94043 0.1561 0.0
H406 H 0.36733 0.97448 0.18902 0.0
H407 H 0.31064 0.9159 0.1832 0.0
H408 H 0.34384 0.8838 0.2203 0.0
H409 H 0.40052 0.94235 0.22627 0.0
H410 H 0.40304 0.88648 0.21876 0.0
H411 H 0.48568 0.90253 0.12938 0.0
H412 H 0.55594 0.98698 0.14378 0.0
H413 H 0.46703 1.01023 0.19974 0.0
C414 C 0.30555 0.81649 0.1669 0.0
C415 C 0.29147 0.77077 0.15043 0.0
C416 C 0.32904 0.77182 0.13511 0.0
C417 C 0.37664 0.81478 0.13542 0.0
C418 C 0.38912 0.85862 0.15166 0.0
C419 C 0.35461 0.85945 0.1675 0.0
C420 C 0.37867 0.91074 0.18428 0.0
C421 C 0.34911 0.93693 0.17777 0.0
C422 C 0.38168 0.90553 0.21418 0.0
C423 C 0.43146 0.93859 0.17538 0.0
C424 C 0.43648 0.90798 0.15619 0.0
C425 C 0.48143 0.92605 0.14457 0.0
C426 C 0.52179 0.97508 0.15282 0.0
C427 C 0.51931 1.00761 0.17319 0.0
C428 C 0.47217 0.98781 0.18429 0.0
H429 H 0.60804 0.27592 0.51627 0.0
H430 H 0.70593 0.30938 0.45427 0.0
H431 H 0.71165 0.39099 0.45452 0.0
H432 H 0.54345 0.34149 0.49526 0.0
H433 H 0.54191 0.36516 0.52859 0.0
H434 H 0.54322 0.30831 0.52286 0.0
H435 H 0.62148 0.34363 0.55703 0.0
H436 H 0.6203 0.4005 0.56291 0.0
H437 H 0.67541 0.40116 0.55296 0.0
H438 H 0.70431 0.47267 0.46056 0.0
H439 H 0.69428 0.54418 0.47547 0.0
H440 H 0.60599 0.4632 0.536 0.0
C441 C 0.63073 0.30021 0.50264 0.0
C442 C 0.65611 0.28406 0.48491 0.0
C443 C 0.68575 0.31898 0.46803 0.0
C444 C 0.68922 0.36616 0.46801 0.0
C445 C 0.66394 0.38067 0.48551 0.0
C446 C 0.63586 0.34876 0.50291 0.0
C447 C 0.61448 0.37457 0.52071 0.0
C448 C 0.55736 0.34565 0.51662 0.0
C449 C 0.63407 0.38029 0.55015 0.0
C450 C 0.63437 0.42548 0.51063 0.0
C451 C 0.66228 0.42796 0.48999 0.0
C452 C 0.68303 0.47068 0.47703 0.0
C453 C 0.67665 0.5117 0.48559 0.0
C454 C 0.64958 0.51177 0.50734 0.0
C455 C 0.62787 0.46665 0.51965 0.0
H456 H 0.50519 0.67098 0.81669 0.0
H457 H 0.44949 0.51391 0.81486 0.0
H458 H 0.36675 0.50133 0.8219 0.0
H459 H 0.42914 0.68074 0.86751 0.0
H460 H 0.41649 0.72396 0.85199 0.0
H461 H 0.47285 0.72233 0.84722 0.0
H462 H 0.45038 0.70915 0.79618 0.0
H463 H 0.39404 0.7109 0.80079 0.0
H464 H 0.39112 0.65863 0.78139 0.0
H465 H 0.28662 0.50359 0.82968 0.0
H466 H 0.21765 0.5209 0.8351 0.0
H467 H 0.31811 0.67559 0.83096 0.0
C468 C 0.47573 0.63387 0.81778 0.0
C469 C 0.48586 0.5935 0.81505 0.0
C470 C 0.44467 0.54594 0.81664 0.0
C471 C 0.39669 0.5382 0.82077 0.0
C472 C 0.38806 0.5781 0.82331 0.0
C473 C 0.42635 0.62516 0.8217 0.0
C474 C 0.40569 0.66114 0.82454 0.0
C475 C 0.43267 0.69933 0.84929 0.0
C476 C 0.41062 0.68648 0.79922 0.0
C477 C 0.35035 0.62711 0.82801 0.0
C478 C 0.34141 0.5793 0.82738 0.0
C479 C 0.29365 0.54105 0.83018 0.0
C480 C 0.25424 0.5513 0.83341 0.0
C481 C 0.26118 0.5996 0.83388 0.0
C482 C 0.31068 0.6381 0.83109 0.0
H483 H 0.94895 0.5101 0.15286 0.0
H484 H 1.05019 0.45176 0.14927 0.0
H485 H 0.98264 0.37027 0.15546 0.0
H486 H 0.87658 0.43139 0.20412 0.0
H487 H 0.81799 0.4232 0.1897 0.0
H488 H 0.87532 0.47769 0.18576 0.0
H489 H 0.85057 0.45779 0.13432 0.0
H490 H 0.79442 0.40263 0.13893 0.0
H491 H 0.83774 0.39891 0.11802 0.0
H492 H 0.90217 0.29032 0.16279 0.0
H493 H 0.81874 0.22295 0.16877 0.0
H494 H 0.76193 0.32471 0.16754 0.0
C495 C 0.9572 0.48032 0.1532 0.0
C496 C 1.00747 0.49003 0.15025 0.0
C497 C 1.01399 0.44803 0.15128 0.0
C498 C 0.97501 0.40042 0.15488 0.0
C499 C 0.927 0.39232 0.15774 0.0
C500 C 0.91767 0.43117 0.15694 0.0
C501 C 0.86192 0.41124 0.16082 0.0
C502 C 0.85764 0.43745 0.18661 0.0
C503 C 0.83452 0.41807 0.13658 0.0
C504 C 0.84149 0.35557 0.16329 0.0
C505 C 0.88038 0.34601 0.16176 0.0
C506 C 0.87189 0.29808 0.16397 0.0
C507 C 0.82361 0.25937 0.16755 0.0
C508 C 0.78185 0.26652 0.16907 0.0
C509 C 0.79191 0.31643 0.16681 0.0
H510 H 0.11179 0.66429 0.05109 0.0
H511 H 0.15423 0.5524 0.05945 0.0
H512 H 0.1508 0.53839 0.01069 0.0
H513 H 1.02482 0.60076 -0.00897 0.0
H514 H 1.04072 0.65612 0.976 0.0
H515 H 1.0469 0.65844 0.01181 0.0
H516 H 0.13932 0.72571 0.01432 0.0
H517 H 0.13342 0.72359 0.97852 0.0
H518 H 0.18055 0.71409 -0.00474 0.0
H519 H 0.14464 0.53673 0.96102 0.0
H520 H 0.13301 0.54549 0.91353 0.0
H521 H 1.09206 0.65657 0.93535 0.0
C522 C 0.12037 0.63685 0.04266 0.0
C523 C 0.13336 0.60951 0.05947 0.0
C524 C 0.14404 0.57384 0.04735 0.0
C525 C 0.1423 0.5656 0.01952 0.0
C526 C 0.12944 0.59296 0.00362 0.0
C527 C 0.11834 0.6277 0.01464 0.0
C528 C 0.10493 0.65138 -0.00734 0.0
C529 C 1.05114 0.64105 -0.0071 0.0
C530 C 0.14176 0.707 -0.00464 0.0
C531 C 0.11046 0.62464 0.9677 0.0
C532 C 0.12492 0.59131 0.97464 0.0
C533 C 0.1333 0.56272 0.95538 0.0
C534 C 0.12685 0.56819 0.92835 0.0
C535 C 0.11184 0.60187 0.92042 0.0
C536 C 0.10327 0.63027 0.94058 0.0
H537 H 0.68762 0.12093 0.38265 0.0
H538 H 0.56718 0.1506 0.39603 0.0
H539 H 0.55388 0.15418 0.34811 0.0
H540 H 0.73532 0.19962 0.32976 0.0
H541 H 0.74872 0.15776 0.31026 0.0
H542 H 0.75073 0.15879 0.34599 0.0
H543 H 0.68742 0.06544 0.34032 0.0
H544 H 0.68548 0.0641 0.3046 0.0
H545 H 0.62879 1.0423 0.32002 0.0
H546 H 0.55112 0.15297 0.29863 0.0
H547 H 0.55724 0.14339 0.25031 0.0
H548 H 0.67862 0.11415 0.26664 0.0
C549 C 0.65858 0.12836 0.37551 0.0
C550 C 0.62854 0.13553 0.39355 0.0
C551 C 0.59079 0.14483 0.38303 0.0
C552 C 0.58295 0.14714 0.35567 0.0
C553 C 0.61295 0.13998 0.33854 0.0
C554 C 0.6499 0.13051 0.34791 0.0
C555 C 0.67557 0.12266 0.32471 0.0
C556 C 0.73088 0.16206 0.32787 0.0
C557 C 0.66891 0.07052 0.32227 0.0
C558 C 0.6471 0.129 0.30098 0.0
C559 C 0.61133 0.13925 0.30962 0.0
C560 C 0.57925 0.14533 0.29169 0.0
C561 C 0.58311 0.14004 0.26424 0.0
C562 C 0.61889 0.12896 0.25464 0.0
C563 C 0.65165 0.12377 0.27338 0.0
H564 H 0.58751 0.54515 0.70745 0.0
H565 H 0.69307 0.69859 0.73516 0.0
H566 H 0.70563 0.71505 0.68856 0.0
H567 H 0.65419 0.53321 0.65402 0.0
H568 H 0.5991 0.49322 0.63136 0.0
H569 H 0.59678 0.49345 0.66685 0.0
H570 H 0.52454 0.5127 0.663 0.0
H571 H 0.52662 0.51249 0.62749 0.0
H572 H 0.53245 0.56558 0.64751 0.0
H573 H 0.70744 0.71526 0.6386 0.0
H574 H 0.70061 0.6987 0.58965 0.0
H575 H 0.59481 0.54482 0.59333 0.0
C576 C 0.61302 0.58232 0.70374 0.0
C577 C 0.6391 0.62063 0.72528 0.0
C578 C 0.67255 0.66852 0.71928 0.0
C579 C 0.67991 0.6783 0.69275 0.0
C580 C 0.65388 0.63983 0.67209 0.0
C581 C 0.62123 0.59269 0.67724 0.0
C582 C 0.59901 0.55776 0.6513 0.0
C583 C 0.61312 0.517 0.65086 0.0
C584 C 0.54228 0.53584 0.64708 0.0
C585 C 0.62422 0.59258 0.6308 0.0
C586 C 0.6555 0.6398 0.64328 0.0
C587 C 0.68287 0.67841 0.62867 0.0
C588 C 0.67842 0.66864 0.60071 0.0
C589 C 0.64692 0.62049 0.58722 0.0
C590 C 0.61948 0.58204 0.60277 0.0
H591 H 0.73745 0.20627 0.56528 0.0
H592 H 0.60184 0.06433 0.55683 0.0
H593 H 0.61852 1.05597 0.60368 0.0
H594 H 0.81135 0.17456 0.60965 0.0
H595 H 0.8425 0.23392 0.62963 0.0
H596 H 0.82131 0.22877 0.59493 0.0
H597 H 0.77047 0.27119 0.60775 0.0
H598 H 0.79181 0.27687 0.64244 0.0
H599 H 0.7261 0.24629 0.63149 0.0
H600 H 0.64771 0.06271 0.65099 0.0
H601 H 0.68567 0.08706 0.69782 0.0
H602 H 0.80257 0.22472 0.67689 0.0
C603 C 0.71133 0.17346 0.57331 0.0
C604 C 0.66836 0.13594 0.55734 0.0
C605 C 0.63498 0.09363 0.56861 0.0
C606 C 0.64422 0.08835 0.5952 0.0
C607 C 0.68697 0.12569 0.61032 0.0
C608 C 0.71988 0.1676 0.59996 0.0
C609 C 0.76205 0.20287 0.62104 0.0
C610 C 0.81228 0.21046 0.61335 0.0
C611 C 0.76261 0.25222 0.62597 0.0
C612 C 0.74721 0.17437 0.64489 0.0
C613 C 0.70398 0.12974 0.63805 0.0
C614 C 0.68168 0.09742 0.65662 0.0
C615 C 0.70345 0.11153 0.68311 0.0
C616 C 0.74696 0.1576 0.6908 0.0
C617 C 0.76971 0.18901 0.67136 0.0
H618 H 0.59846 0.48802 0.87249 0.0
H619 H 0.63313 0.63667 0.90145 0.0
H620 H 0.62346 0.61423 0.94732 0.0
H621 H 0.50479 0.42626 0.91606 0.0
H622 H 0.52226 0.38003 0.92073 0.0
H623 H 0.53177 0.40768 0.89016 0.0
H624 H 0.62512 0.43349 0.89711 0.0
H625 H 0.61603 0.40586 0.92764 0.0
H626 H 0.66211 0.46965 0.92781 0.0
H627 H 0.61313 0.57669 -0.01004 0.0
H628 H 0.60102 0.52594 0.02676 0.0
H629 H 0.57012 0.40083 0.96992 0.0
C630 C 0.60412 0.51595 0.88847 0.0
C631 C 0.61678 0.56421 0.88345 0.0
C632 C 0.62341 0.5995 0.90486 0.0
C633 C 0.61799 0.58709 0.93095 0.0
C634 C 0.60549 0.53918 0.93518 0.0
C635 C 0.5984 0.50408 0.91453 0.0
C636 C 0.58513 0.45522 0.92444 0.0
C637 C 0.53287 0.41493 0.91211 0.0
C638 C 0.62445 0.4402 0.91893 0.0
C639 C 0.58638 0.46844 0.954 0.0
C640 C 0.5983 0.51711 0.95973 0.0
C641 C 0.60346 0.53849 -0.01429 0.0
C642 C 0.59665 0.50948 0.00643 0.0
C643 C 0.58456 0.45963 0.00103 0.0
C644 C 0.57879 0.43871 0.97446 0.0
H645 H 0.09923 0.66719 0.22731 0.0
H646 H 0.18376 0.59034 0.22862 0.0
H647 H 0.16503 0.57342 0.27481 0.0
H648 H 0.13901 0.72504 0.29506 0.0
H649 H 1.07966 0.71991 0.29999 0.0
H650 H 0.09959 0.72466 0.26719 0.0
H651 H 1.01829 0.64383 0.24929 0.0
H652 H 0.9986 0.63822 0.28221 0.0
H653 H 1.00294 0.58862 0.26438 0.0
H654 H 0.13396 0.56251 0.32017 0.0
H655 H 0.10502 0.56979 0.36375 0.0
H656 H 1.0448 0.65772 0.33275 0.0
C657 C 0.11405 0.64701 0.23736 0.0
C658 C 0.14282 0.62993 0.2245 0.0
C659 C 0.16195 0.60405 0.2383 0.0
C660 C 0.15104 0.59383 0.26436 0.0
C661 C 0.12137 0.61015 0.27621 0.0
C662 C 0.10399 0.63701 0.26332 0.0
C663 C 1.07484 0.65235 0.28075 0.0
C664 C 0.09978 0.70883 0.28607 0.0
C665 C 1.02044 0.62937 0.26842 0.0
C666 C 1.07876 0.63024 0.30567 0.0
C667 C 0.10496 0.6053 0.3025 0.0
C668 C 0.11379 0.58231 0.32295 0.0
C669 C 1.09729 0.58676 0.34763 0.0
C670 C 1.07308 0.61481 0.35181 0.0
C671 C 1.06251 0.63547 0.3302 0.0
loop_
_geom_bond_atom_site_label_1
_geom_bond_atom_site_label_2
_geom_bond_distance
_geom_bond_site_symmetry_2
_ccdc_geom_bond_type
Tb0 C9 2.764 1_455 S
Tb0 O10 2.325 1_455 S
Tb0 O13 2.303 . S
Tb0 O17 2.322 . S
Tb0 O18 2.349 . S
Tb0 O21 2.415 1_455 S
Tb0 O22 2.399 1_455 S
Tb1 O11 2.322 . S
Tb1 O12 2.349 . S
Tb1 O14 2.415 . S
Tb1 O15 2.399 . S
Tb1 O16 2.325 . S
Tb1 O19 2.303 . S
Tb1 C30 2.764 . S
C2 O18 1.261 . S
C2 O19 1.257 . S
C3 C6 1.358 . S
C3 C7 1.332 . S
C3 C9 1.504 . S
C4 C5 1.373 . S
C4 C8 1.308 . S
C5 C4 1.373 . S
C5 C6 1.429 . S
C5 H32 0.932 . S
C6 C3 1.358 . S
C6 C5 1.429 . S
C6 H33 0.930 . S
C7 C3 1.332 . S
C7 C8 1.394 . S
C7 H34 0.932 . S
C8 C4 1.308 . S
C8 C7 1.394 . S
C8 H35 0.929 . S
C9 Tb0 2.764 1_655 S
C9 C3 1.504 . S
C9 O21 1.239 . S
C9 O22 1.263 . S
O10 Tb0 2.325 1_655 S
O10 C20 1.236 . S
O11 Tb1 2.322 . S
O11 C20 1.257 1_455 S
O12 Tb1 2.349 . S
O12 C23 1.261 . S
O13 Tb0 2.303 . S
O13 C23 1.257 . S
O14 Tb1 2.415 . S
O14 C30 1.239 . S
O15 Tb1 2.399 . S
O15 C30 1.263 . S
O16 Tb1 2.325 . S
O16 C31 1.236 . S
O17 Tb0 2.322 . S
O17 C31 1.257 . S
O18 Tb0 2.349 . S
O18 C2 1.261 . S
O19 Tb1 2.303 . S
O19 C2 1.257 . S
C20 O10 1.236 . S
C20 O11 1.257 1_655 S
O21 Tb0 2.415 1_655 S
O21 C9 1.239 . S
O22 Tb0 2.399 1_655 S
O22 C9 1.263 . S
C23 O12 1.261 . S
C23 O13 1.257 . S
C24 C27 1.358 . S
C24 C28 1.332 . S
C24 C30 1.504 . S
C25 C26 1.373 . S
C25 C29 1.308 . S
C26 C25 1.373 . S
C26 C27 1.429 . S
C26 H36 0.932 . S
C27 C24 1.358 . S
C27 C26 1.429 . S
C27 H37 0.930 . S
C28 C24 1.332 . S
C28 C29 1.394 . S
C28 H38 0.932 . S
C29 C25 1.308 . S
C29 C28 1.394 . S
C29 H39 0.929 . S
C30 Tb1 2.764 . S
C30 O14 1.239 . S
C30 O15 1.263 . S
C30 C24 1.504 . S
C31 O16 1.236 . S
C31 O17 1.257 . S
H32 C5 0.932 . S
H33 C6 0.930 . S
H34 C7 0.932 . S
H35 C8 0.929 . S
H36 C26 0.932 . S
H37 C27 0.930 . S
H38 C28 0.932 . S
H39 C29 0.929 . S
Tb40 C49 2.764 1_545 S
Tb40 O50 2.325 1_545 S
Tb40 O53 2.303 . S
Tb40 O57 2.322 . S
Tb40 O58 2.349 . S
Tb40 O61 2.415 1_545 S
Tb40 O62 2.399 1_545 S
Tb41 O51 2.322 . S
Tb41 O52 2.349 . S
Tb41 O54 2.415 . S
Tb41 O55 2.399 . S
Tb41 O56 2.325 . S
Tb41 O59 2.303 . S
Tb41 C70 2.764 . S
C42 O58 1.261 . S
C42 O59 1.257 . S
C43 C46 1.358 . S
C43 C47 1.332 . S
C43 C49 1.504 . S
C44 C45 1.373 . S
C44 C48 1.308 . S
C45 C44 1.373 . S
C45 C46 1.429 . S
C45 H72 0.932 . S
C46 C43 1.358 . S
C46 C45 1.429 . S
C46 H73 0.930 . S
C47 C43 1.332 . S
C47 C48 1.394 . S
C47 H74 0.932 . S
C48 C44 1.308 . S
C48 C47 1.394 . S
C48 H75 0.929 . S
C49 Tb40 2.764 1_565 S
C49 C43 1.504 . S
C49 O61 1.239 . S
C49 O62 1.263 . S
O50 Tb40 2.325 1_565 S
O50 C60 1.236 . S
O51 Tb41 2.322 . S
O51 C60 1.257 1_545 S
O52 Tb41 2.349 . S
O52 C63 1.261 . S
O53 Tb40 2.303 . S
O53 C63 1.257 . S
O54 Tb41 2.415 . S
O54 C70 1.239 . S
O55 Tb41 2.399 . S
O55 C70 1.263 . S
O56 Tb41 2.325 . S
O56 C71 1.236 . S
O57 Tb40 2.322 . S
O57 C71 1.257 . S
O58 Tb40 2.349 . S
O58 C42 1.261 . S
O59 Tb41 2.303 . S
O59 C42 1.257 . S
C60 O50 1.236 . S
C60 O51 1.257 1_565 S
O61 Tb40 2.415 1_565 S
O61 C49 1.239 . S
O62 Tb40 2.399 1_565 S
O62 C49 1.263 . S
C63 O52 1.261 . S
C63 O53 1.257 . S
C64 C67 1.358 . S
C64 C68 1.332 . S
C64 C70 1.504 . S
C65 C66 1.373 . S
C65 C69 1.308 . S
C66 C65 1.373 . S
C66 C67 1.429 . S
C66 H76 0.932 . S
C67 C64 1.358 . S
C67 C66 1.429 . S
C67 H77 0.930 . S
C68 C64 1.332 . S
C68 C69 1.394 . S
C68 H78 0.932 . S
C69 C65 1.308 . S
C69 C68 1.394 . S
C69 H79 0.929 . S
C70 Tb41 2.764 . S
C70 O54 1.239 . S
C70 O55 1.263 . S
C70 C64 1.504 . S
C71 O56 1.236 . S
C71 O57 1.257 . S
H72 C45 0.932 . S
H73 C46 0.930 . S
H74 C47 0.932 . S
H75 C48 0.929 . S
H76 C66 0.932 . S
H77 C67 0.930 . S
H78 C68 0.932 . S
H79 C69 0.929 . S
Tb80 C89 2.764 . S
Tb80 O90 2.325 . S
Tb80 O93 2.303 . S
Tb80 O97 2.322 . S
Tb80 O98 2.349 . S
Tb80 O101 2.415 . S
Tb80 O102 2.399 . S
Tb81 O91 2.322 . S
Tb81 O92 2.349 . S
Tb81 O94 2.415 . S
Tb81 O95 2.399 . S
Tb81 O96 2.325 . S
Tb81 O99 2.303 . S
Tb81 C110 2.764 . S
C82 O98 1.261 . S
C82 O99 1.257 . S
C83 C86 1.358 . S
C83 C87 1.332 . S
C83 C89 1.504 . S
C84 C85 1.373 . S
C84 C88 1.308 . S
C85 C84 1.373 . S
C85 C86 1.429 . S
C85 H112 0.932 . S
C86 C83 1.358 . S
C86 C85 1.429 . S
C86 H113 0.930 . S
C87 C83 1.332 . S
C87 C88 1.394 . S
C87 H114 0.932 . S
C88 C84 1.308 . S
C88 C87 1.394 . S
C88 H115 0.929 . S
C89 Tb80 2.764 . S
C89 C83 1.504 . S
C89 O101 1.239 . S
C89 O102 1.263 . S
O90 Tb80 2.325 . S
O90 C100 1.236 . S
O91 Tb81 2.322 . S
O91 C100 1.257 . S
O92 Tb81 2.349 . S
O92 C103 1.261 . S
O93 Tb80 2.303 . S
O93 C103 1.257 . S
O94 Tb81 2.415 . S
O94 C110 1.239 . S
O95 Tb81 2.399 . S
O95 C110 1.263 . S
O96 Tb81 2.325 . S
O96 C111 1.236 . S
O97 Tb80 2.322 . S
O97 C111 1.257 . S
O98 Tb80 2.349 . S
O98 C82 1.261 . S
O99 Tb81 2.303 . S
O99 C82 1.257 . S
C100 O90 1.236 . S
C100 O91 1.257 . S
O101 Tb80 2.415 . S
O101 C89 1.239 . S
O102 Tb80 2.399 . S
O102 C89 1.263 . S
C103 O92 1.261 . S
C103 O93 1.257 . S
C104 C107 1.358 . S
C104 C108 1.332 . S
C104 C110 1.504 . S
C105 C106 1.373 . S
C105 C109 1.308 . S
C106 C105 1.373 . S
C106 C107 1.429 . S
C106 H116 0.932 . S
C107 C104 1.358 . S
C107 C106 1.429 . S
C107 H117 0.930 . S
C108 C104 1.332 . S
C108 C109 1.394 . S
C108 H118 0.932 . S
C109 C105 1.308 . S
C109 C108 1.394 . S
C109 H119 0.929 . S
C110 Tb81 2.764 . S
C110 O94 1.239 . S
C110 O95 1.263 . S
C110 C104 1.504 . S
C111 O96 1.236 . S
C111 O97 1.257 . S
H112 C85 0.932 . S
H113 C86 0.930 . S
H114 C87 0.932 . S
H115 C88 0.929 . S
H116 C106 0.932 . S
H117 C107 0.930 . S
H118 C108 0.932 . S
H119 C109 0.929 . S
H120 C123 0.929 . S
H121 C126 0.929 . S
H122 C128 0.930 . S
C123 H120 0.929 . S
C123 C124 1.398 . S
C123 C125 1.396 . S
C124 C123 1.398 . S
C124 C128 1.407 . S
C125 C123 1.396 . S
C125 C126 1.394 . S
C126 H121 0.929 . S
C126 C125 1.394 . S
C126 C127 1.382 . S
C127 C126 1.382 . S
C127 C128 1.392 . S
C127 N129 1.420 . S
C128 H122 0.930 . S
C128 C124 1.407 . S
C128 C127 1.392 . S
N129 C127 1.420 . S
N129 C130 1.244 . S
C130 N129 1.244 . S
H131 C134 0.929 . S
H132 C137 0.929 . S
H133 C139 0.930 . S
C134 H131 0.929 . S
C134 C135 1.398 . S
C134 C136 1.396 . S
C135 C134 1.398 . S
C135 C139 1.407 . S
C136 C134 1.396 . S
C136 C137 1.394 . S
C137 H132 0.929 . S
C137 C136 1.394 . S
C137 C138 1.382 . S
C138 C137 1.382 . S
C138 C139 1.392 . S
C138 N140 1.420 . S
C139 H133 0.930 . S
C139 C135 1.407 . S
C139 C138 1.392 . S
N140 C138 1.420 . S
N140 C141 1.244 . S
C141 N140 1.244 . S
H142 C145 0.929 . S
H143 C148 0.929 . S
H144 C150 0.930 . S
C145 H142 0.929 . S
C145 C146 1.398 . S
C145 C147 1.396 . S
C146 C145 1.398 . S
C146 C150 1.407 . S
C147 C145 1.396 . S
C147 C148 1.394 . S
C148 H143 0.929 . S
C148 C147 1.394 . S
C148 C149 1.382 . S
C149 C148 1.382 . S
C149 C150 1.392 . S
C149 N151 1.420 . S
C150 H144 0.930 . S
C150 C146 1.407 . S
C150 C149 1.392 . S
N151 C149 1.420 . S
N151 C152 1.244 . S
C152 N151 1.244 . S
H153 C156 0.929 . S
H154 C159 0.929 . S
H155 C161 0.930 . S
C156 H153 0.929 . S
C156 C157 1.398 . S
C156 C158 1.396 . S
C157 C156 1.398 . S
C157 C161 1.407 . S
C158 C156 1.396 . S
C158 C159 1.394 1_455 S
C159 H154 0.929 . S
C159 C158 1.394 1_655 S
C159 C160 1.382 . S
C160 C159 1.382 . S
C160 C161 1.392 1_655 S
C160 N162 1.420 . S
C161 H155 0.930 . S
C161 C157 1.407 . S
C161 C160 1.392 1_455 S
N162 C160 1.420 . S
N162 C163 1.244 . S
C163 N162 1.244 . S
H164 C167 0.929 . S
H165 C170 0.929 1_565 S
H166 C172 0.930 . S
C167 H164 0.929 . S
C167 C168 1.398 . S
C167 C169 1.396 . S
C168 C167 1.398 . S
C168 C172 1.407 . S
C169 C167 1.396 . S
C169 C170 1.394 . S
C170 H165 0.929 1_545 S
C170 C169 1.394 . S
C170 C171 1.382 . S
C171 C170 1.382 . S
C171 C172 1.392 . S
C171 N173 1.420 1_545 S
C172 H166 0.930 . S
C172 C168 1.407 . S
C172 C171 1.392 . S
N173 C171 1.420 1_565 S
N173 C174 1.244 . S
C174 N173 1.244 . S
H175 C178 0.929 . S
H176 C181 0.929 . S
H177 C183 0.930 . S
C178 H175 0.929 . S
C178 C179 1.398 . S
C178 C180 1.396 . S
C179 C178 1.398 . S
C179 C183 1.407 . S
C180 C178 1.396 . S
C180 C181 1.394 . S
C181 H176 0.929 . S
C181 C180 1.394 . S
C181 C182 1.382 . S
C182 C181 1.382 . S
C182 C183 1.392 . S
C182 N184 1.420 . S
C183 H177 0.930 . S
C183 C179 1.407 . S
C183 C182 1.392 . S
N184 C182 1.420 . S
N184 C185 1.244 . S
C185 N184 1.244 . S
H186 C198 0.930 . S
H187 C200 0.930 . S
H188 C201 0.930 . S
H189 C205 0.959 . S
H190 C205 0.959 . S
H191 C205 0.961 . S
H192 C206 0.960 . S
H193 C206 0.961 . S
H194 C206 0.959 . S
H195 C209 0.929 . S
H196 C210 0.931 . S
H197 C212 0.930 . S
C198 H186 0.930 . S
C198 C199 1.399 . S
C198 C203 1.399 . S
C199 C198 1.399 . S
C199 C200 1.376 . S
C200 H187 0.930 . S
C200 C199 1.376 . S
C200 C201 1.388 . S
C201 H188 0.930 . S
C201 C200 1.388 . S
C201 C202 1.390 . S
C202 C201 1.390 . S
C202 C203 1.394 . S
C202 C208 1.465 . S
C203 C198 1.399 . S
C203 C202 1.394 . S
C203 C204 1.516 . S
C204 C203 1.516 . S
C204 C205 1.502 . S
C204 C206 1.561 . S
C204 C207 1.526 . S
C205 H189 0.959 . S
C205 H190 0.959 . S
C205 H191 0.961 . S
C205 C204 1.502 . S
C206 H192 0.960 . S
C206 H193 0.961 . S
C206 H194 0.959 . S
C206 C204 1.561 . S
C207 C204 1.526 . S
C207 C208 1.396 . S
C207 C212 1.390 . S
C208 C202 1.465 . S
C208 C207 1.396 . S
C208 C209 1.399 . S
C209 H195 0.929 . S
C209 C208 1.399 . S
C209 C210 1.385 . S
C210 H196 0.931 . S
C210 C209 1.385 . S
C210 C211 1.389 . S
C211 C210 1.389 . S
C211 C212 1.387 . S
C212 H197 0.930 . S
C212 C207 1.390 . S
C212 C211 1.387 . S
H213 C225 0.930 . S
H214 C227 0.930 . S
H215 C228 0.930 . S
H216 C232 0.959 . S
H217 C232 0.959 . S
H218 C232 0.961 . S
H219 C233 0.960 . S
H220 C233 0.961 . S
H221 C233 0.959 . S
H222 C236 0.929 . S
H223 C237 0.931 . S
H224 C239 0.930 . S
C225 H213 0.930 . S
C225 C226 1.399 . S
C225 C230 1.399 . S
C226 C225 1.399 . S
C226 C227 1.376 . S
C227 H214 0.930 . S
C227 C226 1.376 . S
C227 C228 1.388 . S
C228 H215 0.930 . S
C228 C227 1.388 . S
C228 C229 1.390 . S
C229 C228 1.390 . S
C229 C230 1.394 . S
C229 C235 1.465 . S
C230 C225 1.399 . S
C230 C229 1.394 . S
C230 C231 1.516 . S
C231 C230 1.516 . S
C231 C232 1.502 . S
C231 C233 1.561 . S
C231 C234 1.526 . S
C232 H216 0.959 . S
C232 H217 0.959 . S
C232 H218 0.961 . S
C232 C231 1.502 . S
C233 H219 0.960 . S
C233 H220 0.961 . S
C233 H221 0.959 . S
C233 C231 1.561 . S
C234 C231 1.526 . S
C234 C235 1.396 . S
C234 C239 1.390 . S
C235 C229 1.465 . S
C235 C234 1.396 . S
C235 C236 1.399 . S
C236 H222 0.929 . S
C236 C235 1.399 . S
C236 C237 1.385 . S
C237 H223 0.931 . S
C237 C236 1.385 . S
C237 C238 1.389 . S
C238 C237 1.389 . S
C238 C239 1.387 . S
C239 H224 0.930 . S
C239 C234 1.390 . S
C239 C238 1.387 . S
H240 C252 0.930 . S
H241 C254 0.930 . S
H242 C255 0.930 . S
H243 C259 0.959 . S
H244 C259 0.959 . S
H245 C259 0.961 . S
H246 C260 0.960 . S
H247 C260 0.961 . S
H248 C260 0.959 . S
H249 C263 0.929 . S
H250 C264 0.931 . S
H251 C266 0.930 . S
C252 H240 0.930 . S
C252 C253 1.399 . S
C252 C257 1.399 . S
C253 C252 1.399 . S
C253 C254 1.376 . S
C254 H241 0.930 . S
C254 C253 1.376 . S
C254 C255 1.388 . S
C255 H242 0.930 . S
C255 C254 1.388 . S
C255 C256 1.390 . S
C256 C255 1.390 . S
C256 C257 1.394 . S
C256 C262 1.465 . S
C257 C252 1.399 . S
C257 C256 1.394 . S
C257 C258 1.516 . S
C258 C257 1.516 . S
C258 C259 1.502 . S
C258 C260 1.561 . S
C258 C261 1.526 . S
C259 H243 0.959 . S
C259 H244 0.959 . S
C259 H245 0.961 . S
C259 C258 1.502 . S
C260 H246 0.960 . S
C260 H247 0.961 . S
C260 H248 0.959 . S
C260 C258 1.561 . S
C261 C258 1.526 . S
C261 C262 1.396 . S
C261 C266 1.390 . S
C262 C256 1.465 . S
C262 C261 1.396 . S
C262 C263 1.399 . S
C263 H249 0.929 . S
C263 C262 1.399 . S
C263 C264 1.385 . S
C264 H250 0.931 . S
C264 C263 1.385 . S
C264 C265 1.389 . S
C265 C264 1.389 . S
C265 C266 1.387 . S
C266 H251 0.930 . S
C266 C261 1.390 . S
C266 C265 1.387 . S
H267 C279 0.930 . S
H268 C281 0.930 . S
H269 C282 0.930 . S
H270 C286 0.959 . S
H271 C286 0.959 . S
H272 C286 0.961 . S
H273 C287 0.960 . S
H274 C287 0.961 . S
H275 C287 0.959 . S
H276 C290 0.929 . S
H277 C291 0.931 . S
H278 C293 0.930 . S
C279 H267 0.930 . S
C279 C280 1.399 . S
C279 C284 1.399 . S
C280 C279 1.399 . S
C280 C281 1.376 . S
C281 H268 0.930 . S
C281 C280 1.376 . S
C281 C282 1.388 . S
C282 H269 0.930 . S
C282 C281 1.388 . S
C282 C283 1.390 . S
C283 C282 1.390 . S
C283 C284 1.394 . S
C283 C289 1.465 . S
C284 C279 1.399 . S
C284 C283 1.394 . S
C284 C285 1.516 . S
C285 C284 1.516 . S
C285 C286 1.502 . S
C285 C287 1.561 . S
C285 C288 1.526 . S
C286 H270 0.959 . S
C286 H271 0.959 . S
C286 H272 0.961 . S
C286 C285 1.502 . S
C287 H273 0.960 . S
C287 H274 0.961 . S
C287 H275 0.959 . S
C287 C285 1.561 . S
C288 C285 1.526 . S
C288 C289 1.396 . S
C288 C293 1.390 . S
C289 C283 1.465 . S
C289 C288 1.396 . S
C289 C290 1.399 . S
C290 H276 0.929 . S
C290 C289 1.399 . S
C290 C291 1.385 . S
C291 H277 0.931 . S
C291 C290 1.385 . S
C291 C292 1.389 . S
C292 C291 1.389 . S
C292 C293 1.387 . S
C293 H278 0.930 . S
C293 C288 1.390 . S
C293 C292 1.387 . S
H294 C306 0.930 . S
H295 C308 0.930 . S
H296 C309 0.930 . S
H297 C313 0.959 . S
H298 C313 0.959 . S
H299 C313 0.961 . S
H300 C314 0.960 . S
H301 C314 0.961 . S
H302 C314 0.959 . S
H303 C317 0.929 . S
H304 C318 0.931 . S
H305 C320 0.930 . S
C306 H294 0.930 . S
C306 C307 1.399 . S
C306 C311 1.399 . S
C307 C306 1.399 . S
C307 C308 1.376 . S
C308 H295 0.930 . S
C308 C307 1.376 . S
C308 C309 1.388 . S
C309 H296 0.930 . S
C309 C308 1.388 . S
C309 C310 1.390 . S
C310 C309 1.390 . S
C310 C311 1.394 . S
C310 C316 1.465 . S
C311 C306 1.399 . S
C311 C310 1.394 . S
C311 C312 1.516 . S
C312 C311 1.516 . S
C312 C313 1.502 . S
C312 C314 1.561 . S
C312 C315 1.526 . S
C313 H297 0.959 . S
C313 H298 0.959 . S
C313 H299 0.961 . S
C313 C312 1.502 . S
C314 H300 0.960 . S
C314 H301 0.961 . S
C314 H302 0.959 . S
C314 C312 1.561 . S
C315 C312 1.526 . S
C315 C316 1.396 . S
C315 C320 1.390 . S
C316 C310 1.465 . S
C316 C315 1.396 . S
C316 C317 1.399 . S
C317 H303 0.929 . S
C317 C316 1.399 . S
C317 C318 1.385 . S
C318 H304 0.931 . S
C318 C317 1.385 . S
C318 C319 1.389 . S
C319 C318 1.389 . S
C319 C320 1.387 . S
C320 H305 0.930 . S
C320 C315 1.390 . S
C320 C319 1.387 . S
H321 C333 0.930 . S
H322 C335 0.930 . S
H323 C336 0.930 . S
H324 C340 0.959 . S
H325 C340 0.959 . S
H326 C340 0.961 . S
H327 C341 0.960 . S
H328 C341 0.961 . S
H329 C341 0.959 . S
H330 C344 0.929 . S
H331 C345 0.931 . S
H332 C347 0.930 . S
C333 H321 0.930 . S
C333 C334 1.399 . S
C333 C338 1.399 . S
C334 C333 1.399 . S
C334 C335 1.376 . S
C335 H322 0.930 . S
C335 C334 1.376 . S
C335 C336 1.388 . S
C336 H323 0.930 . S
C336 C335 1.388 . S
C336 C337 1.390 . S
C337 C336 1.390 . S
C337 C338 1.394 . S
C337 C343 1.465 . S
C338 C333 1.399 . S
C338 C337 1.394 . S
C338 C339 1.516 . S
C339 C338 1.516 . S
C339 C340 1.502 . S
C339 C341 1.561 . S
C339 C342 1.526 . S
C340 H324 0.959 . S
C340 H325 0.959 . S
C340 H326 0.961 . S
C340 C339 1.502 . S
C341 H327 0.960 . S
C341 H328 0.961 . S
C341 H329 0.959 . S
C341 C339 1.561 . S
C342 C339 1.526 . S
C342 C343 1.396 . S
C342 C347 1.390 . S
C343 C337 1.465 . S
C343 C342 1.396 . S
C343 C344 1.399 . S
C344 H330 0.929 . S
C344 C343 1.399 . S
C344 C345 1.385 . S
C345 H331 0.931 . S
C345 C344 1.385 . S
C345 C346 1.389 . S
C346 C345 1.389 . S
C346 C347 1.387 . S
C347 H332 0.930 . S
C347 C342 1.390 . S
C347 C346 1.387 . S
H348 C360 0.930 . S
H349 C362 0.930 . S
H350 C363 0.930 . S
H351 C367 0.959 . S
H352 C367 0.959 . S
H353 C367 0.961 . S
H354 C368 0.960 . S
H355 C368 0.961 . S
H356 C368 0.959 . S
H357 C371 0.929 . S
H358 C372 0.931 . S
H359 C374 0.930 . S
C360 H348 0.930 . S
C360 C361 1.399 . S
C360 C365 1.399 . S
C361 C360 1.399 . S
C361 C362 1.376 . S
C362 H349 0.930 . S
C362 C361 1.376 . S
C362 C363 1.388 . S
C363 H350 0.930 . S
C363 C362 1.388 . S
C363 C364 1.390 . S
C364 C363 1.390 . S
C364 C365 1.394 . S
C364 C370 1.465 . S
C365 C360 1.399 . S
C365 C364 1.394 . S
C365 C366 1.516 . S
C366 C365 1.516 . S
C366 C367 1.502 . S
C366 C368 1.561 . S
C366 C369 1.526 . S
C367 H351 0.959 . S
C367 H352 0.959 . S
C367 H353 0.961 . S
C367 C366 1.502 . S
C368 H354 0.960 . S
C368 H355 0.961 . S
C368 H356 0.959 . S
C368 C366 1.561 . S
C369 C366 1.526 . S
C369 C370 1.396 . S
C369 C374 1.390 . S
C370 C364 1.465 . S
C370 C369 1.396 . S
C370 C371 1.399 . S
C371 H357 0.929 . S
C371 C370 1.399 . S
C371 C372 1.385 . S
C372 H358 0.931 . S
C372 C371 1.385 . S
C372 C373 1.389 . S
C373 C372 1.389 . S
C373 C374 1.387 . S
C374 H359 0.930 . S
C374 C369 1.390 . S
C374 C373 1.387 . S
H375 C387 0.930 . S
H376 C389 0.930 . S
H377 C390 0.930 . S
H378 C394 0.959 . S
H379 C394 0.959 . S
H380 C394 0.961 . S
H381 C395 0.960 . S
H382 C395 0.961 . S
H383 C395 0.959 . S
H384 C398 0.929 . S
H385 C399 0.931 . S
H386 C401 0.930 . S
C387 H375 0.930 . S
C387 C388 1.399 . S
C387 C392 1.399 . S
C388 C387 1.399 . S
C388 C389 1.376 . S
C389 H376 0.930 . S
C389 C388 1.376 . S
C389 C390 1.388 . S
C390 H377 0.930 . S
C390 C389 1.388 . S
C390 C391 1.390 . S
C391 C390 1.390 . S
C391 C392 1.394 . S
C391 C397 1.465 . S
C392 C387 1.399 . S
C392 C391 1.394 . S
C392 C393 1.516 . S
C393 C392 1.516 . S
C393 C394 1.502 . S
C393 C395 1.561 . S
C393 C396 1.526 . S
C394 H378 0.959 . S
C394 H379 0.959 . S
C394 H380 0.961 . S
C394 C393 1.502 . S
C395 H381 0.960 . S
C395 H382 0.961 . S
C395 H383 0.959 . S
C395 C393 1.561 . S
C396 C393 1.526 . S
C396 C397 1.396 . S
C396 C401 1.390 . S
C397 C391 1.465 . S
C397 C396 1.396 . S
C397 C398 1.399 . S
C398 H384 0.929 . S
C398 C397 1.399 . S
C398 C399 1.385 . S
C399 H385 0.931 . S
C399 C398 1.385 . S
C399 C400 1.389 . S
C400 C399 1.389 . S
C400 C401 1.387 . S
C401 H386 0.930 . S
C401 C396 1.390 . S
C401 C400 1.387 . S
H402 C414 0.930 . S
H403 C416 0.930 . S
H404 C417 0.930 . S
H405 C421 0.959 . S
H406 C421 0.959 . S
H407 C421 0.961 . S
H408 C422 0.960 . S
H409 C422 0.961 . S
H410 C422 0.959 . S
H411 C425 0.929 . S
H412 C426 0.931 . S
H413 C428 0.930 . S
C414 H402 0.930 . S
C414 C415 1.399 . S
C414 C419 1.399 . S
C415 C414 1.399 . S
C415 C416 1.376 . S
C416 H403 0.930 . S
C416 C415 1.376 . S
C416 C417 1.388 . S
C417 H404 0.930 . S
C417 C416 1.388 . S
C417 C418 1.390 . S
C418 C417 1.390 . S
C418 C419 1.394 . S
C418 C424 1.465 . S
C419 C414 1.399 . S
C419 C418 1.394 . S
C419 C420 1.516 . S
C420 C419 1.516 . S
C420 C421 1.502 . S
C420 C422 1.561 . S
C420 C423 1.526 . S
C421 H405 0.959 . S
C421 H406 0.959 . S
C421 H407 0.961 . S
C421 C420 1.502 . S
C422 H408 0.960 . S
C422 H409 0.961 . S
C422 H410 0.959 . S
C422 C420 1.561 . S
C423 C420 1.526 . S
C423 C424 1.396 . S
C423 C428 1.390 . S
C424 C418 1.465 . S
C424 C423 1.396 . S
C424 C425 1.399 . S
C425 H411 0.929 . S
C425 C424 1.399 . S
C425 C426 1.385 . S
C426 H412 0.931 . S
C426 C425 1.385 . S
C426 C427 1.389 . S
C427 C426 1.389 . S
C427 C428 1.387 . S
C428 H413 0.930 . S
C428 C423 1.390 . S
C428 C427 1.387 . S
H429 C441 0.930 . S
H430 C443 0.930 . S
H431 C444 0.930 . S
H432 C448 0.959 . S
H433 C448 0.959 . S
H434 C448 0.961 . S
H435 C449 0.960 . S
H436 C449 0.961 . S
H437 C449 0.959 . S
H438 C452 0.929 . S
H439 C453 0.931 . S
H440 C455 0.930 . S
C441 H429 0.930 . S
C441 C442 1.399 . S
C441 C446 1.399 . S
C442 C441 1.399 . S
C442 C443 1.376 . S
C443 H430 0.930 . S
C443 C442 1.376 . S
C443 C444 1.388 . S
C444 H431 0.930 . S
C444 C443 1.388 . S
C444 C445 1.390 . S
C445 C444 1.390 . S
C445 C446 1.394 . S
C445 C451 1.465 . S
C446 C441 1.399 . S
C446 C445 1.394 . S
C446 C447 1.516 . S
C447 C446 1.516 . S
C447 C448 1.502 . S
C447 C449 1.561 . S
C447 C450 1.526 . S
C448 H432 0.959 . S
C448 H433 0.959 . S
C448 H434 0.961 . S
C448 C447 1.502 . S
C449 H435 0.960 . S
C449 H436 0.961 . S
C449 H437 0.959 . S
C449 C447 1.561 . S
C450 C447 1.526 . S
C450 C451 1.396 . S
C450 C455 1.390 . S
C451 C445 1.465 . S
C451 C450 1.396 . S
C451 C452 1.399 . S
C452 H438 0.929 . S
C452 C451 1.399 . S
C452 C453 1.385 . S
C453 H439 0.931 . S
C453 C452 1.385 . S
C453 C454 1.389 . S
C454 C453 1.389 . S
C454 C455 1.387 . S
C455 H440 0.930 . S
C455 C450 1.390 . S
C455 C454 1.387 . S
H456 C468 0.930 . S
H457 C470 0.930 . S
H458 C471 0.930 . S
H459 C475 0.959 . S
H460 C475 0.959 . S
H461 C475 0.961 . S
H462 C476 0.960 . S
H463 C476 0.961 . S
H464 C476 0.959 . S
H465 C479 0.929 . S
H466 C480 0.931 . S
H467 C482 0.930 . S
C468 H456 0.930 . S
C468 C469 1.399 . S
C468 C473 1.399 . S
C469 C468 1.399 . S
C469 C470 1.376 . S
C470 H457 0.930 . S
C470 C469 1.376 . S
C470 C471 1.388 . S
C471 H458 0.930 . S
C471 C470 1.388 . S
C471 C472 1.390 . S
C472 C471 1.390 . S
C472 C473 1.394 . S
C472 C478 1.465 . S
C473 C468 1.399 . S
C473 C472 1.394 . S
C473 C474 1.516 . S
C474 C473 1.516 . S
C474 C475 1.502 . S
C474 C476 1.561 . S
C474 C477 1.526 . S
C475 H459 0.959 . S
C475 H460 0.959 . S
C475 H461 0.961 . S
C475 C474 1.502 . S
C476 H462 0.960 . S
C476 H463 0.961 . S
C476 H464 0.959 . S
C476 C474 1.561 . S
C477 C474 1.526 . S
C477 C478 1.396 . S
C477 C482 1.390 . S
C478 C472 1.465 . S
C478 C477 1.396 . S
C478 C479 1.399 . S
C479 H465 0.929 . S
C479 C478 1.399 . S
C479 C480 1.385 . S
C480 H466 0.931 . S
C480 C479 1.385 . S
C480 C481 1.389 . S
C481 C480 1.389 . S
C481 C482 1.387 . S
C482 H467 0.930 . S
C482 C477 1.390 . S
C482 C481 1.387 . S
H483 C495 0.930 . S
H484 C497 0.930 . S
H485 C498 0.930 . S
H486 C502 0.959 . S
H487 C502 0.959 . S
H488 C502 0.961 . S
H489 C503 0.960 . S
H490 C503 0.961 . S
H491 C503 0.959 . S
H492 C506 0.929 . S
H493 C507 0.931 . S
H494 C509 0.930 . S
C495 H483 0.930 . S
C495 C496 1.399 . S
C495 C500 1.399 . S
C496 C495 1.399 . S
C496 C497 1.376 . S
C497 H484 0.930 . S
C497 C496 1.376 . S
C497 C498 1.388 . S
C498 H485 0.930 . S
C498 C497 1.388 . S
C498 C499 1.390 . S
C499 C498 1.390 . S
C499 C500 1.394 . S
C499 C505 1.465 . S
C500 C495 1.399 . S
C500 C499 1.394 . S
C500 C501 1.516 . S
C501 C500 1.516 . S
C501 C502 1.502 . S
C501 C503 1.561 . S
C501 C504 1.526 . S
C502 H486 0.959 . S
C502 H487 0.959 . S
C502 H488 0.961 . S
C502 C501 1.502 . S
C503 H489 0.960 . S
C503 H490 0.961 . S
C503 H491 0.959 . S
C503 C501 1.561 . S
C504 C501 1.526 . S
C504 C505 1.396 . S
C504 C509 1.390 . S
C505 C499 1.465 . S
C505 C504 1.396 . S
C505 C506 1.399 . S
C506 H492 0.929 . S
C506 C505 1.399 . S
C506 C507 1.385 . S
C507 H493 0.931 . S
C507 C506 1.385 . S
C507 C508 1.389 . S
C508 C507 1.389 . S
C508 C509 1.387 . S
C509 H494 0.930 . S
C509 C504 1.390 . S
C509 C508 1.387 . S
H510 C522 0.930 . S
H511 C524 0.930 . S
H512 C525 0.930 . S
H513 C529 0.959 . S
H514 C529 0.957 . S
H515 C529 0.961 . S
H516 C530 0.960 . S
H517 C530 0.961 . S
H518 C530 0.959 . S
H519 C533 0.929 . S
H520 C534 0.931 . S
H521 C536 0.930 . S
C522 H510 0.930 . S
C522 C523 1.399 . S
C522 C527 1.399 . S
C523 C522 1.399 . S
C523 C524 1.376 . S
C524 H511 0.930 . S
C524 C523 1.376 . S
C524 C525 1.388 . S
C525 H512 0.930 . S
C525 C524 1.388 . S
C525 C526 1.390 . S
C526 C525 1.390 . S
C526 C527 1.394 . S
C526 C532 1.465 1_554 S
C527 C522 1.399 . S
C527 C526 1.394 . S
C527 C528 1.516 . S
C528 C527 1.516 . S
C528 C529 1.502 . S
C528 C530 1.561 . S
C528 C531 1.526 1_554 S
C529 H513 0.959 . S
C529 H514 0.957 . S
C529 H515 0.961 . S
C529 C528 1.502 . S
C530 H516 0.960 . S
C530 H517 0.961 . S
C530 H518 0.959 . S
C530 C528 1.561 . S
C531 C528 1.526 1_556 S
C531 C532 1.396 . S
C531 C536 1.390 . S
C532 C526 1.465 1_556 S
C532 C531 1.396 . S
C532 C533 1.399 . S
C533 H519 0.929 . S
C533 C532 1.399 . S
C533 C534 1.385 . S
C534 H520 0.931 . S
C534 C533 1.385 . S
C534 C535 1.389 . S
C535 C534 1.389 . S
C535 C536 1.387 . S
C536 H521 0.930 . S
C536 C531 1.390 . S
C536 C535 1.387 . S
H537 C549 0.930 . S
H538 C551 0.930 . S
H539 C552 0.930 1_565 S
H540 C556 0.959 . S
H541 C556 0.959 . S
H542 C556 0.961 . S
H543 C557 0.960 . S
H544 C557 0.961 . S
H545 C557 0.959 . S
H546 C560 0.929 1_565 S
H547 C561 0.931 . S
H548 C563 0.930 . S
C549 H537 0.930 . S
C549 C550 1.399 . S
C549 C554 1.399 . S
C550 C549 1.399 . S
C550 C551 1.376 . S
C551 H538 0.930 . S
C551 C550 1.376 . S
C551 C552 1.388 . S
C552 H539 0.930 1_545 S
C552 C551 1.388 . S
C552 C553 1.390 . S
C553 C552 1.390 . S
C553 C554 1.394 . S
C553 C559 1.465 . S
C554 C549 1.399 . S
C554 C553 1.394 . S
C554 C555 1.516 . S
C555 C554 1.516 . S
C555 C556 1.502 . S
C555 C557 1.561 . S
C555 C558 1.526 . S
C556 H540 0.959 . S
C556 H541 0.959 . S
C556 H542 0.961 . S
C556 C555 1.502 . S
C557 H543 0.960 . S
C557 H544 0.961 . S
C557 H545 0.959 . S
C557 C555 1.561 . S
C558 C555 1.526 . S
C558 C559 1.396 . S
C558 C563 1.390 . S
C559 C553 1.465 . S
C559 C558 1.396 . S
C559 C560 1.399 . S
C560 H546 0.929 1_545 S
C560 C559 1.399 . S
C560 C561 1.385 . S
C561 H547 0.931 . S
C561 C560 1.385 . S
C561 C562 1.389 . S
C562 C561 1.389 . S
C562 C563 1.387 . S
C563 H548 0.930 . S
C563 C558 1.390 . S
C563 C562 1.387 . S
H564 C576 0.930 . S
H565 C578 0.930 . S
H566 C579 0.930 . S
H567 C583 0.959 . S
H568 C583 0.959 . S
H569 C583 0.961 . S
H570 C584 0.960 . S
H571 C584 0.961 . S
H572 C584 0.959 . S
H573 C587 0.929 . S
H574 C588 0.931 . S
H575 C590 0.930 . S
C576 H564 0.930 . S
C576 C577 1.399 . S
C576 C581 1.399 . S
C577 C576 1.399 . S
C577 C578 1.376 . S
C578 H565 0.930 . S
C578 C577 1.376 . S
C578 C579 1.388 . S
C579 H566 0.930 . S
C579 C578 1.388 . S
C579 C580 1.390 . S
C580 C579 1.390 . S
C580 C581 1.394 . S
C580 C586 1.465 . S
C581 C576 1.399 . S
C581 C580 1.394 . S
C581 C582 1.516 . S
C582 C581 1.516 . S
C582 C583 1.502 . S
C582 C584 1.561 . S
C582 C585 1.526 . S
C583 H567 0.959 . S
C583 H568 0.959 . S
C583 H569 0.961 . S
C583 C582 1.502 . S
C584 H570 0.960 . S
C584 H571 0.961 . S
C584 H572 0.959 . S
C584 C582 1.561 . S
C585 C582 1.526 . S
C585 C586 1.396 . S
C585 C590 1.390 . S
C586 C580 1.465 . S
C586 C585 1.396 . S
C586 C587 1.399 . S
C587 H573 0.929 . S
C587 C586 1.399 . S
C587 C588 1.385 . S
C588 H574 0.931 . S
C588 C587 1.385 . S
C588 C589 1.389 . S
C589 C588 1.389 . S
C589 C590 1.387 . S
C590 H575 0.930 . S
C590 C585 1.390 . S
C590 C589 1.387 . S
H591 C603 0.930 . S
H592 C605 0.930 1_565 S
H593 C606 0.934 . S
H594 C610 0.959 . S
H595 C610 0.959 . S
H596 C610 0.961 . S
H597 C611 0.960 . S
H598 C611 0.961 . S
H599 C611 0.959 . S
H600 C614 0.929 . S
H601 C615 0.931 . S
H602 C617 0.930 . S
C603 H591 0.930 . S
C603 C604 1.399 . S
C603 C608 1.399 . S
C604 C603 1.399 . S
C604 C605 1.376 . S
C605 H592 0.930 1_545 S
C605 C604 1.376 . S
C605 C606 1.386 1_545 S
C606 H593 0.934 . S
C606 C605 1.386 1_565 S
C606 C607 1.388 1_565 S
C607 C606 1.388 1_545 S
C607 C608 1.394 . S
C607 C613 1.465 . S
C608 C603 1.399 . S
C608 C607 1.394 . S
C608 C609 1.516 . S
C609 C608 1.516 . S
C609 C610 1.502 . S
C609 C611 1.561 . S
C609 C612 1.526 . S
C610 H594 0.959 . S
C610 H595 0.959 . S
C610 H596 0.961 . S
C610 C609 1.502 . S
C611 H597 0.960 . S
C611 H598 0.961 . S
C611 H599 0.959 . S
C611 C609 1.561 . S
C612 C609 1.526 . S
C612 C613 1.396 . S
C612 C617 1.390 . S
C613 C607 1.465 . S
C613 C612 1.396 . S
C613 C614 1.399 1_545 S
C614 H600 0.929 . S
C614 C613 1.399 1_565 S
C614 C615 1.385 . S
C615 H601 0.931 . S
C615 C614 1.385 . S
C615 C616 1.389 1_565 S
C616 C615 1.389 1_545 S
C616 C617 1.387 . S
C617 H602 0.930 . S
C617 C612 1.390 . S
C617 C616 1.387 . S
H618 C630 0.930 . S
H619 C632 0.930 . S
H620 C633 0.930 . S
H621 C637 0.959 . S
H622 C637 0.959 . S
H623 C637 0.961 . S
H624 C638 0.960 . S
H625 C638 0.961 . S
H626 C638 0.959 . S
H627 C641 0.929 . S
H628 C642 0.931 . S
H629 C644 0.930 . S
C630 H618 0.930 . S
C630 C631 1.399 . S
C630 C635 1.399 . S
C631 C630 1.399 . S
C631 C632 1.376 . S
C632 H619 0.930 . S
C632 C631 1.376 . S
C632 C633 1.388 . S
C633 H620 0.930 . S
C633 C632 1.388 . S
C633 C634 1.390 . S
C634 C633 1.390 . S
C634 C635 1.394 . S
C634 C640 1.465 . S
C635 C630 1.399 . S
C635 C634 1.394 . S
C635 C636 1.516 . S
C636 C635 1.516 . S
C636 C637 1.502 . S
C636 C638 1.561 . S
C636 C639 1.526 . S
C637 H621 0.959 . S
C637 H622 0.959 . S
C637 H623 0.961 . S
C637 C636 1.502 . S
C638 H624 0.960 . S
C638 H625 0.961 . S
C638 H626 0.959 . S
C638 C636 1.561 . S
C639 C636 1.526 . S
C639 C640 1.396 . S
C639 C644 1.390 1_556 S
C640 C634 1.465 . S
C640 C639 1.396 . S
C640 C641 1.399 1_556 S
C641 H627 0.929 . S
C641 C640 1.399 1_554 S
C641 C642 1.385 . S
C642 H628 0.931 . S
C642 C641 1.385 . S
C642 C643 1.389 . S
C643 C642 1.389 . S
C643 C644 1.387 . S
C644 H629 0.930 . S
C644 C639 1.390 1_554 S
C644 C643 1.387 . S
H645 C657 0.930 . S
H646 C659 0.930 . S
H647 C660 0.930 1_655 S
H648 C664 0.959 . S
H649 C664 0.959 . S
H650 C664 0.961 . S
H651 C665 0.960 . S
H652 C665 0.961 . S
H653 C665 0.959 1_655 S
H654 C668 0.929 . S
H655 C669 0.931 . S
H656 C671 0.930 . S
C657 H645 0.930 . S
C657 C658 1.399 . S
C657 C662 1.399 . S
C658 C657 1.399 . S
C658 C659 1.376 . S
C659 H646 0.930 . S
C659 C658 1.376 . S
C659 C660 1.388 . S
C660 H647 0.930 1_455 S
C660 C659 1.388 . S
C660 C661 1.390 . S
C661 C660 1.390 . S
C661 C662 1.394 . S
C661 C667 1.465 . S
C662 C657 1.399 . S
C662 C661 1.394 . S
C662 C663 1.516 . S
C663 C662 1.516 . S
C663 C664 1.502 . S
C663 C665 1.561 . S
C663 C666 1.526 . S
C664 H648 0.959 . S
C664 H649 0.959 . S
C664 H650 0.961 . S
C664 C663 1.502 . S
C665 H651 0.960 . S
C665 H652 0.961 . S
C665 H653 0.959 1_455 S
C665 C663 1.561 . S
C666 C663 1.526 . S
C666 C667 1.396 . S
C666 C671 1.390 . S
C667 C661 1.465 . S
C667 C666 1.396 . S
C667 C668 1.399 1_455 S
C668 H654 0.929 . S
C668 C667 1.399 1_655 S
C668 C669 1.385 . S
C669 H655 0.931 . S
C669 C668 1.385 . S
C669 C670 1.389 1_655 S
C670 C669 1.389 1_455 S
C670 C671 1.387 . S
C671 H656 0.930 . S
C671 C666 1.390 . S
C671 C670 1.387 . S
C199 C25 0.491 . S
C211 C185 0.433 . S
C226 C65 0.403 . S
C238 C163 0.274 . S
C253 C105 0.496 . S
C265 C174 0.359 . S
C280 C4 0.351 . S
C292 C179 0.408 . S
C319 C157 0.279 . S
C307 C44 0.357 . S
C346 C168 0.264 . S
C334 C84 0.207 . S
C361 C60 3.019 . S
C373 C141 2.969 . S
C388 C100 3.013 . S
C400 C146 2.946 1_655 S
C415 C31 2.991 . S
C427 C124 2.949 1_565 S
C454 C135 2.955 . S
C442 C71 2.989 . S
C481 C152 2.952 . S
C469 C111 2.991 . S
C496 C20 3.021 . S
C508 C130 2.947 . S
C535 C147 1.741 . S
C523 C2 1.728 . S
C550 C42 1.718 . S
C562 C125 1.739 . S
C577 C82 1.745 . S
C589 C136 1.767 . S
C616 C169 1.190 . S
C604 C63 1.195 . S
C643 C180 1.215 . S
C631 C103 1.225 . S
C658 C23 1.130 . S
C670 C158 1.177 . S
