# Generated by pormake.
# Topology zzz, (3,6)-cn, num edge types: 1
# Building blocks:
#     Node 0, Type 0, BuildingBlock: INOVEN_clean_linker_0, # of connection points: 3
#     Node 1, Type 0, BuildingBlock: INOVEN_clean_linker_0, # of connection points: 3
#     Node 2, Type 0, BuildingBlock: INOVEN_clean_linker_0, # of connection points: 3
#     Node 3, Type 0, BuildingBlock: INOVEN_clean_linker_0, # of connection points: 3
#     Node 4, Type 0, BuildingBlock: INOVEN_clean_linker_0, # of connection points: 3
#     Node 5, Type 0, BuildingBlock: INOVEN_clean_linker_0, # of connection points: 3
#     Node 6, Type 0, BuildingBlock: INOVEN_clean_linker_0, # of connection points: 3
#     Node 7, Type 0, BuildingBlock: INOVEN_clean_linker_0, # of connection points: 3
#     Node 8, Type 1, BuildingBlock: VOLQOD_clean_sbu_1, # of connection points: 6
#     Node 9, Type 1, BuildingBlock: VOLQOD_clean_sbu_1, # of connection points: 6
#     Node 10, Type 1, BuildingBlock: VOLQOD_clean_sbu_1, # of connection points: 6
#     Node 11, Type 1, BuildingBlock: VOLQOD_clean_sbu_1, # of connection points: 6
#     Edge 12, Type (0, 1), BuildingBlock: XIVTED_clean_linker_0, # of connection points: 2
#     Edge 13, Type (0, 1), BuildingBlock: XIVTED_clean_linker_0, # of connection points: 2
#     Edge 14, Type (0, 1), BuildingBlock: XIVTED_clean_linker_0, # of connection points: 2
#     Edge 15, Type (0, 1), BuildingBlock: XIVTED_clean_linker_0, # of connection points: 2
#     Edge 16, Type (0, 1), BuildingBlock: XIVTED_clean_linker_0, # of connection points: 2
#     Edge 17, Type (0, 1), BuildingBlock: XIVTED_clean_linker_0, # of connection points: 2
#     Edge 18, Type (0, 1), BuildingBlock: XIVTED_clean_linker_0, # of connection points: 2
#     Edge 19, Type (0, 1), BuildingBlock: XIVTED_clean_linker_0, # of connection points: 2
#     Edge 20, Type (0, 1), BuildingBlock: XIVTED_clean_linker_0, # of connection points: 2
#     Edge 21, Type (0, 1), BuildingBlock: XIVTED_clean_linker_0, # of connection points: 2
#     Edge 22, Type (0, 1), BuildingBlock: XIVTED_clean_linker_0, # of connection points: 2
#     Edge 23, Type (0, 1), BuildingBlock: XIVTED_clean_linker_0, # of connection points: 2
#     Edge 24, Type (0, 1), BuildingBlock: XIVTED_clean_linker_0, # of connection points: 2
#     Edge 25, Type (0, 1), BuildingBlock: XIVTED_clean_linker_0, # of connection points: 2
#     Edge 26, Type (0, 1), BuildingBlock: XIVTED_clean_linker_0, # of connection points: 2
#     Edge 27, Type (0, 1), BuildingBlock: XIVTED_clean_linker_0, # of connection points: 2
#     Edge 28, Type (0, 1), BuildingBlock: XIVTED_clean_linker_0, # of connection points: 2
#     Edge 29, Type (0, 1), BuildingBlock: XIVTED_clean_linker_0, # of connection points: 2
#     Edge 30, Type (0, 1), BuildingBlock: XIVTED_clean_linker_0, # of connection points: 2
#     Edge 31, Type (0, 1), BuildingBlock: XIVTED_clean_linker_0, # of connection points: 2
#     Edge 32, Type (0, 1), BuildingBlock: XIVTED_clean_linker_0, # of connection points: 2
#     Edge 33, Type (0, 1), BuildingBlock: XIVTED_clean_linker_0, # of connection points: 2
#     Edge 34, Type (0, 1), BuildingBlock: XIVTED_clean_linker_0, # of connection points: 2
#     Edge 35, Type (0, 1), BuildingBlock: XIVTED_clean_linker_0, # of connection points: 2
# Relax obj value: 0.197
# Max RMSD: 0.236
# Mean RMSD: 0.110
data_MOF--net-zzz--node1-VOLQOD_clean_sbu_1--node2-INOVEN_clean_linker_0--edge1-XIVTED_clean_linker_0
_symmetry_space_group_name_H-M    P1
_symmetry_Int_Tables_number       1
_symmetry_cell_setting            triclinic
loop_
_symmetry_equiv_pos_as_xyz
'x, y, z'
_cell_length_a     51.027102
_cell_length_b     50.711443
_cell_length_c     17.620372
_cell_angle_alpha  90.165111
_cell_angle_beta   89.568465
_cell_angle_gamma 90.925253
loop_
_atom_site_label
_atom_site_type_symbol
_atom_site_fract_x
_atom_site_fract_y
_atom_site_fract_z
_atom_type_partial_charge
H0 H 0.76682 0.52625 0.23399 0.0
H1 H 0.84474 0.50048 0.18303 0.0
H2 H 0.78183 0.48155 0.0303 0.0
N3 N 0.74487 0.50743 0.10709 0.0
N4 N 0.73942 0.51074 0.0389 0.0
C5 C 0.78028 0.51578 0.19733 0.0
C6 C 0.80692 0.51453 0.2159 0.0
C7 C 0.77135 0.5045 0.12906 0.0
C8 C 0.78894 0.49077 0.08189 0.0
C9 C 0.8154 0.48856 0.10181 0.0
C10 C 0.82415 0.50097 0.16826 0.0
H11 H 0.00683 0.74158 0.30828 0.0
H12 H 0.02696 0.82408 0.29704 0.0
H13 H 0.02867 0.77742 0.09415 0.0
N14 N 0.0147 0.73125 0.16107 0.0
N15 N 0.01553 0.72937 0.09045 0.0
C16 C 0.0134 0.75858 0.27578 0.0
C17 C 0.01666 0.78317 0.31153 0.0
C18 C 0.01825 0.75617 0.19725 0.0
C19 C 0.0258 0.77877 0.155 0.0
C20 C 0.02855 0.8034 0.19061 0.0
C21 C 0.02469 0.80511 0.26893 0.0
H22 H 0.74671 0.00682 0.24721 0.0
H23 H 0.66863 0.0332 0.20672 0.0
H24 H 0.7309 0.05439 0.05149 0.0
N25 N 0.76777 0.02649 0.11996 0.0
N26 N 0.77191 0.02384 0.05047 0.0
C27 C 0.73327 0.0185 0.21447 0.0
C28 C 0.70678 0.01967 0.23585 0.0
C29 C 0.74189 0.03069 0.14708 0.0
C30 C 0.72406 0.04496 0.1032 0.0
C31 C 0.69748 0.0463 0.12427 0.0
C32 C 0.68923 0.03372 0.19125 0.0
H33 H 0.52295 0.74464 0.24412 0.0
H34 H 0.49336 0.66564 0.21423 0.0
H35 H 0.46468 0.7278 0.07388 0.0
N36 N 0.49616 0.76602 0.13143 0.0
N37 N 0.48016 0.77516 0.08565 0.0
C38 C 0.50976 0.73085 0.21603 0.0
C39 C 0.50925 0.70421 0.23702 0.0
C40 C 0.49372 0.73952 0.15698 0.0
C41 C 0.47688 0.7213 0.12 0.0
C42 C 0.47653 0.69451 0.14014 0.0
C43 C 0.49272 0.68634 0.19914 0.0
H44 H 0.24899 0.49375 0.12005 0.0
H45 H 0.18036 0.54019 0.09518 0.0
H46 H 0.22861 0.54917 0.29399 0.0
N47 N 0.26645 0.51731 0.24503 0.0
N48 N 0.27748 0.53415 0.28606 0.0
C49 C 0.23633 0.50918 0.14083 0.0
C50 C 0.21369 0.51551 0.10106 0.0
C51 C 0.24266 0.5229 0.20755 0.0
C52 C 0.22468 0.54094 0.2385 0.0
C53 C 0.20111 0.54649 0.20067 0.0
C54 C 0.19733 0.5353 0.12846 0.0
H55 H 0.0597 0.24842 0.09099 0.0
H56 H 0.0446 0.16644 0.13518 0.0
H57 H 0.029 0.22376 0.30893 0.0
N58 N 0.04445 0.26599 0.22673 0.0
N59 N 0.04736 0.27199 0.29488 0.0
C60 C 0.0533 0.23292 0.1294 0.0
C61 C 0.0542 0.20647 0.10639 0.0
C62 C 0.04469 0.23922 0.20314 0.0
C63 C 0.03598 0.21893 0.25244 0.0
C64 C 0.03597 0.19252 0.22839 0.0
C65 C 0.0452 0.18666 0.15547 0.0
H66 H 0.25723 0.02261 0.10141 0.0
H67 H 0.33436 0.9905 0.08692 0.0
H68 H 0.28831 0.97914 0.28956 0.0
N69 N 0.24506 0.00292 0.23767 0.0
N70 N 0.24236 0.99581 0.30509 0.0
C71 C 0.27275 0.0112 0.12621 0.0
C72 C 0.29645 0.00797 0.08681 0.0
C73 C 0.26936 1.00002 0.19867 0.0
C74 C 0.29031 0.9865 0.23217 0.0
C75 C 0.31413 0.98339 0.19293 0.0
C76 C 0.31638 0.9932 0.11902 0.0
H77 H 0.47228 0.2517 0.07845 0.0
H78 H 0.49599 0.33311 0.09317 0.0
H79 H 0.50753 0.28217 0.2835 0.0
N80 N 0.48867 0.23795 0.21642 0.0
N81 N 0.49363 0.23454 0.28491 0.0
C82 C 0.48103 0.26785 0.11027 0.0
C83 C 0.48261 0.29318 0.07861 0.0
C84 C 0.49039 0.26362 0.18413 0.0
C85 C 0.50107 0.28505 0.22578 0.0
C86 C 0.50282 0.31034 0.1939 0.0
C87 C 0.49417 0.31387 0.11962 0.0
O88 O 0.07453 0.99771 0.67213 0.0
Zn89 Zn 0.04472 0.00254 0.74744 0.0
O90 O 0.0102 0.99857 0.69796 0.0
Zn91 Zn 0.99014 0.03052 0.70982 0.0
Zn92 Zn 0.01544 0.99083 0.59088 0.0
Zn93 Zn 0.98932 0.97017 0.74286 0.0
O94 O 0.95682 0.02513 0.77084 0.0
O95 O 0.95346 0.98151 0.77784 0.0
O96 O 0.04966 0.0399 0.7885 0.0
O97 O 0.01193 0.05842 0.75923 0.0
O98 O 0.98166 0.04567 0.60862 0.0
O99 O 0.99764 0.01737 0.52457 0.0
O100 O 0.00543 0.95309 0.56773 0.0
O101 O 0.04809 0.97572 0.83239 0.0
O102 O 0.98649 0.93844 0.67379 0.0
O103 O 0.00798 0.95756 0.83406 0.0
C104 C 0.07473 0.99569 0.60003 0.0
C105 C 0.94423 0.00431 0.79023 0.0
C106 C 0.98597 0.03878 0.54025 0.0
C107 C 0.03488 0.05995 0.78659 0.0
C108 C 0.99454 0.93463 0.60618 0.0
C109 C 0.03089 0.96014 0.8613 0.0
O110 O 0.05349 0.99388 0.56293 0.0
O111 O 0.49591 0.06385 0.63456 0.0
Zn112 Zn 0.49522 0.03614 0.71643 0.0
O113 O 0.50236 1.0014 0.66972 0.0
Zn114 Zn 0.47228 0.97828 0.68499 0.0
Zn115 Zn 0.50889 0.00479 0.56071 0.0
Zn116 Zn 0.53257 0.98526 0.71692 0.0
O117 O 0.48016 0.94899 0.75647 0.0
O118 O 0.52268 0.953 0.7802 0.0
O119 O 0.45851 0.03746 0.76391 0.0
O120 O 0.44253 0.99842 0.72818 0.0
O121 O 0.45876 0.96292 0.58813 0.0
O122 O 0.48284 0.98337 0.50054 0.0
O123 O 0.54507 0.99255 0.53304 0.0
O124 O 0.52391 0.04693 0.79126 0.0
O125 O 0.56084 0.97663 0.64053 0.0
O126 O 0.54972 0.01205 0.78269 0.0
C127 C 0.5001 0.06385 0.56315 0.0
C128 C 0.50065 0.94119 0.78984 0.0
C129 C 0.46436 0.96743 0.51894 0.0
C130 C 0.43946 0.02096 0.75839 0.0
C131 C 0.56324 0.98156 0.57 0.0
C132 C 0.54489 0.03498 0.8079 0.0
O133 O 0.50543 0.04268 0.52751 0.0
O134 O 0.44209 0.49894 0.63485 0.0
Zn135 Zn 0.46896 0.496 0.71844 0.0
O136 O 0.50447 0.50431 0.67813 0.0
Zn137 Zn 0.52755 0.47473 0.69572 0.0
Zn138 Zn 0.50281 0.51124 0.56977 0.0
Zn139 Zn 0.51938 0.53553 0.72654 0.0
O140 O 0.55793 0.48451 0.76399 0.0
O141 O 0.55178 0.52715 0.78591 0.0
O142 O 0.46643 0.45845 0.75992 0.0
O143 O 0.50729 0.44504 0.74288 0.0
O144 O 0.54048 0.45894 0.59774 0.0
O145 O 0.51896 0.48169 0.51148 0.0
O146 O 0.52118 0.54515 0.5407 0.0
O147 O 0.45832 0.52317 0.79824 0.0
O148 O 0.52954 0.56393 0.65183 0.0
O149 O 0.49252 0.5511 0.79465 0.0
C150 C 0.44345 0.50741 0.56688 0.0
C151 C 0.56481 0.50621 0.79521 0.0
C152 C 0.53392 0.46287 0.52918 0.0
C153 C 0.48373 0.4406 0.76385 0.0
C154 C 0.52988 0.5645 0.57971 0.0
C155 C 0.46984 0.54448 0.81897 0.0
O156 O 0.4653 0.51391 0.53626 0.0
O157 O 0.96847 0.54215 0.56821 0.0
Zn158 Zn 0.00432 0.54167 0.61899 0.0
O159 O 0.01295 0.50618 0.65655 0.0
Zn160 Zn 0.01568 0.50583 0.76777 0.0
Zn161 Zn 0.98595 0.48112 0.62437 0.0
Zn162 Zn 0.04614 0.49511 0.61381 0.0
O163 O 0.05083 0.49212 0.80279 0.0
O164 O 0.0722 0.4873 0.69374 0.0
O165 O 0.00357 0.56707 0.7074 0.0
O166 O 0.01227 0.54293 0.80902 0.0
O167 O 0.98622 0.48395 0.8138 0.0
O168 O 0.96754 0.46503 0.71367 0.0
O169 O 0.9999 0.45241 0.55628 0.0
O170 O 0.03238 0.55572 0.54612 0.0
O171 O 0.04241 0.46228 0.54995 0.0
O172 O 0.0621 0.52416 0.55264 0.0
C173 C 0.95221 0.52339 0.55462 0.0
C174 C 0.07154 0.48638 0.76572 0.0
C175 C 0.96887 0.46867 0.78498 0.0
C176 C 0.00727 0.56506 0.77864 0.0
C177 C 0.02294 0.44754 0.53236 0.0
C178 C 0.05483 0.54658 0.52953 0.0
O179 O 0.95727 0.49967 0.57154 0.0
H180 H 0.19446 0.00928 0.25005 0.0
H181 H 0.12469 0.99312 0.65675 0.0
H182 H 0.23543 0.98589 0.45124 0.0
H183 H 0.0823 0.99936 0.44651 0.0
H184 H 0.16588 0.99427 0.5846 0.0
H185 H 0.15345 0.00986 0.32338 0.0
C186 C 0.1948 0.00443 0.30983 0.0
C187 C 0.21825 0.99754 0.34528 0.0
C188 C 0.14754 0.99535 0.55435 0.0
C189 C 0.17157 0.99812 0.42915 0.0
C190 C 0.12402 0.99473 0.59552 0.0
C191 C 0.09995 0.99606 0.55773 0.0
C192 C 0.14703 0.99757 0.47488 0.0
C193 C 0.10034 0.99814 0.47818 0.0
C194 C 0.17141 0.00466 0.35161 0.0
C195 C 0.21763 0.99131 0.42252 0.0
N196 N 0.12346 0.9989 0.43952 0.0
N197 N 0.19468 0.99176 0.46208 0.0
H198 H 0.48757 0.18584 0.21875 0.0
H199 H 0.49519 0.11358 0.62152 0.0
H200 H 0.49869 0.22637 0.43152 0.0
H201 H 0.50119 0.07161 0.40863 0.0
H202 H 0.49243 0.15485 0.55193 0.0
H203 H 0.48851 0.14346 0.28625 0.0
C204 C 0.49004 0.18576 0.27972 0.0
C205 C 0.493 0.20948 0.32035 0.0
C206 C 0.49438 0.13663 0.52032 0.0
C207 C 0.4941 0.16142 0.3973 0.0
C208 C 0.49592 0.113 0.56009 0.0
C209 C 0.49851 0.08902 0.52098 0.0
C210 C 0.49526 0.13642 0.44064 0.0
C211 C 0.49933 0.08962 0.44121 0.0
C212 C 0.49068 0.16164 0.31813 0.0
C213 C 0.4963 0.20838 0.39886 0.0
N214 N 0.49767 0.11294 0.40363 0.0
N215 N 0.49672 0.1848 0.4349 0.0
H216 H 0.29597 0.48637 0.32914 0.0
H217 H 0.43405 0.54334 0.45594 0.0
H218 H 0.31223 0.56998 0.33262 0.0
H219 H 0.39753 0.47884 0.57851 0.0
H220 H 0.39315 0.54936 0.38641 0.0
H221 H 0.33696 0.47913 0.39848 0.0
C222 C 0.30831 0.50313 0.34408 0.0
C223 C 0.30103 0.52887 0.32508 0.0
C224 C 0.39419 0.53387 0.42845 0.0
C225 C 0.34767 0.52069 0.40266 0.0
C226 C 0.41748 0.53033 0.46779 0.0
C227 C 0.41911 0.51061 0.52317 0.0
C228 C 0.3726 0.51715 0.44316 0.0
C229 C 0.397 0.49438 0.53659 0.0
C230 C 0.3315 0.49902 0.38381 0.0
C231 C 0.3174 0.54994 0.34638 0.0
N232 N 0.37466 0.49785 0.49632 0.0
N233 N 0.34017 0.54542 0.38333 0.0
H234 H 0.06952 0.29101 0.41938 0.0
H235 H 0.98845 0.42088 0.44013 0.0
H236 H 0.02082 0.31247 0.23156 0.0
H237 H 0.06767 0.41896 0.52374 0.0
H238 H 0.99587 0.37892 0.37382 0.0
H239 H 0.0652 0.3358 0.47127 0.0
C240 C 0.05811 0.30533 0.38903 0.0
C241 C 0.04581 0.29836 0.32117 0.0
C242 C 0.01164 0.38791 0.40615 0.0
C243 C 0.0401 0.349 0.38046 0.0
C244 C 0.00741 0.41171 0.44416 0.0
C245 C 0.02748 0.42335 0.4875 0.0
C246 C 0.03581 0.37539 0.41347 0.0
C247 C 0.05171 0.41071 0.49069 0.0
C248 C 0.05569 0.33075 0.4183 0.0
C249 C 0.0309 0.31732 0.2837 0.0
N250 N 0.05508 0.38718 0.45515 0.0
N251 N 0.02816 0.34178 0.31446 0.0
H252 H 0.81906 0.03868 0.11063 0.0
H253 H 0.90263 0.96973 0.7873 0.0
H254 H 0.78218 1.00147 0.91815 0.0
H255 H 0.92812 0.04395 0.8843 0.0
H256 H 0.86059 0.97389 0.85457 0.0
H257 H 0.86204 0.03365 0.04774 0.0
C258 C 0.82011 0.02918 0.05561 0.0
C259 C 0.79727 0.02024 0.01912 0.0
C260 C 0.87546 0.98921 0.86102 0.0
C261 C 0.84588 0.01425 0.94817 0.0
C262 C 0.89939 0.98684 0.82291 0.0
C263 C 0.91875 0.00663 0.82988 0.0
C264 C 0.87117 0.01113 0.90801 0.0
C265 C 0.91357 0.02841 0.87681 0.0
C266 C 0.84449 0.02648 0.01971 0.0
C267 C 0.79951 0.00844 0.94762 0.0
N268 N 0.89032 0.02999 0.91472 0.0
N269 N 0.82342 0.00552 0.91458 0.0
H270 H 0.44422 0.79888 0.00526 0.0
H271 H 0.53903 0.91787 0.87535 0.0
H272 H 0.52251 0.80897 0.09134 0.0
H273 H 0.45687 0.91132 0.8198 0.0
H274 H 0.53408 0.8786 0.95568 0.0
H275 H 0.44888 0.84087 0.93829 0.0
C276 C 0.46228 0.81025 0.01052 0.0
C277 C 0.48283 0.80071 0.05377 0.0
C278 C 0.51716 0.8859 0.92608 0.0
C279 C 0.48878 0.84847 0.97655 0.0
C280 C 0.51998 0.90827 0.88007 0.0
C281 C 0.49839 0.91788 0.84025 0.0
C282 C 0.49262 0.87305 0.93194 0.0
C283 C 0.47415 0.90466 0.8489 0.0
C284 C 0.46503 0.83413 0.9723 0.0
C285 C 0.50608 0.81584 0.05878 0.0
N286 N 0.47199 0.88296 0.89337 0.0
N287 N 0.50851 0.83897 0.02001 0.0
H288 H 0.72422 0.5367 0.91735 0.0
H289 H 0.58733 0.46687 0.87754 0.0
H290 H 0.6957 0.48711 0.09891 0.0
H291 H 0.59774 0.54852 0.81417 0.0
H292 H 0.6291 0.46937 0.94623 0.0
H293 H 0.67986 0.53712 0.86394 0.0
C294 C 0.70844 0.52615 0.94612 0.0
C295 C 0.7133 0.51224 0.01271 0.0
C296 C 0.62202 0.48673 0.91776 0.0
C297 C 0.6631 0.51178 0.95133 0.0
C298 C 0.59835 0.4853 0.87832 0.0
C299 C 0.58914 0.50752 0.84011 0.0
C300 C 0.63682 0.51028 0.91685 0.0
C301 C 0.6041 0.53097 0.84312 0.0
C302 C 0.68328 0.5264 0.91592 0.0
C303 C 0.69249 0.49844 0.04796 0.0
N304 N 0.62743 0.53163 0.8798 0.0
N305 N 0.66824 0.49823 0.01613 0.0
H306 H 0.01193 0.67937 0.14901 0.0
H307 H 1.00031 0.61599 0.7329 0.0
H308 H 0.01274 0.72429 0.9419 0.0
H309 H 0.01241 0.56923 0.93372 0.0
H310 H 1.00072 0.65563 0.81119 0.0
H311 H 0.00829 0.63853 0.07383 0.0
C312 C 0.0112 0.68059 0.08773 0.0
C313 C 0.01259 0.70511 0.05091 0.0
C314 C 0.00325 0.63671 0.83829 0.0
C315 C 0.00844 0.65877 0.96517 0.0
C316 C 0.00297 0.614 0.79353 0.0
C317 C 0.00646 0.58916 0.82656 0.0
C318 C 0.00698 0.63472 0.91695 0.0
C319 C 0.00975 0.58794 0.90565 0.0
C320 C 0.00918 0.65734 0.04488 0.0
C321 C 0.01168 0.70567 0.97175 0.0
N322 N 0.00998 0.61041 0.94815 0.0
N323 N 0.00965 0.6829 0.93144 0.0
H324 H 0.99209 0.19146 0.32091 0.0
H325 H 0.00432 0.03691 0.39398 0.0
H326 H 0.05641 0.14348 0.24497 0.0
H327 H 0.96289 0.08723 0.55086 0.0
H328 H 0.01306 0.07501 0.31321 0.0
H329 H 0.9734 0.15286 0.38759 0.0
C330 C 0.00239 0.17296 0.31877 0.0
C331 C 0.02573 0.17065 0.27666 0.0
C332 C 1.00166 0.07759 0.36475 0.0
C333 C 0.004 0.12652 0.34983 0.0
C334 C 0.99637 0.05577 0.41052 0.0
C335 C 0.98343 0.05896 0.4804 0.0
C336 C 0.99379 0.10269 0.38868 0.0
C337 C 0.97341 0.08395 0.49818 0.0
C338 C 0.99154 0.15094 0.35593 0.0
C339 C 0.03808 0.1461 0.27519 0.0
N340 N 0.9792 0.10503 0.45322 0.0
N341 N 0.02697 0.12501 0.31061 0.0
H342 H 0.31699 0.94339 0.29947 0.0
H343 H 0.46898 0.97336 0.36506 0.0
H344 H 0.36528 0.99931 0.17432 0.0
H345 H 0.4181 0.93975 0.53767 0.0
H346 H 0.43364 0.96849 0.27361 0.0
H347 H 0.35611 0.92989 0.36876 0.0
C348 C 0.3357 0.95262 0.2858 0.0
C349 C 0.33764 0.97261 0.23078 0.0
C350 C 0.43039 0.96172 0.33122 0.0
C351 C 0.38237 0.95668 0.30809 0.0
C352 C 0.45059 0.9644 0.38344 0.0
C353 C 0.44622 0.95775 0.45973 0.0
C354 C 0.40563 0.95251 0.35559 0.0
C355 C 0.42214 0.94572 0.47977 0.0
C356 C 0.35801 0.94471 0.32484 0.0
C357 C 0.3626 0.98347 0.21473 0.0
N358 N 0.40248 0.94402 0.42833 0.0
N359 N 0.38383 0.97545 0.25335 0.0
H360 H 0.48394 0.36044 0.19053 0.0
H361 H 0.55614 0.41434 0.54927 0.0
H362 H 0.54255 0.31346 0.30003 0.0
H363 H 0.52403 0.46473 0.37721 0.0
H364 H 0.55386 0.3773 0.46007 0.0
H365 H 0.49922 0.39865 0.26064 0.0
C366 C 0.50036 0.35815 0.22841 0.0
C367 C 0.51219 0.33359 0.23832 0.0
C368 C 0.54791 0.39663 0.44149 0.0
C369 C 0.5293 0.37757 0.32134 0.0
C370 C 0.54927 0.41782 0.49221 0.0
C371 C 0.53964 0.44257 0.47129 0.0
C372 C 0.53663 0.40026 0.37 0.0
C373 C 0.53114 0.44592 0.39647 0.0
C374 C 0.50904 0.3801 0.26876 0.0
C375 C 0.53269 0.3319 0.2909 0.0
N376 N 0.52934 0.42488 0.34909 0.0
N377 N 0.54047 0.3536 0.3311 0.0
H378 H 0.20207 0.58209 0.32238 0.0
H379 H 0.04788 0.56533 0.38617 0.0
H380 H 0.14783 0.54162 0.17181 0.0
H381 H 0.10434 0.56093 0.56608 0.0
H382 H 0.08339 0.57839 0.29817 0.0
H383 H 0.16471 0.59444 0.40187 0.0
C384 C 0.18263 0.57607 0.30467 0.0
C385 C 0.17878 0.55997 0.24022 0.0
C386 C 0.08778 0.5755 0.35759 0.0
C387 C 0.13587 0.57555 0.32933 0.0
C388 C 0.06757 0.56817 0.4076 0.0
C389 C 0.07347 0.56179 0.48266 0.0
C390 C 0.11377 0.57659 0.38357 0.0
C391 C 0.09925 0.56546 0.50805 0.0
C392 C 0.16129 0.58354 0.34982 0.0
C393 C 0.15261 0.55408 0.2196 0.0
N394 N 0.1186 0.57228 0.45829 0.0
N395 N 0.13237 0.56163 0.26427 0.0
H396 H 0.06348 0.81306 0.07292 0.0
H397 H 0.00423 0.95444 -0.00718 0.0
H398 H 0.00327 0.84976 0.20822 0.0
H399 H 0.071 0.92528 0.86937 0.0
H400 H 0.00752 0.91789 0.08134 0.0
H401 H 0.06936 0.85461 0.00247 0.0
C402 C 0.05159 0.82983 0.08786 0.0
C403 C 0.03295 0.828 0.14668 0.0
C404 C 0.02184 0.9196 0.03589 0.0
C405 C 0.0397 0.87537 0.06742 0.0
C406 C 0.02006 0.94061 0.98585 0.0
C407 C 0.03744 0.94277 0.92443 0.0
C408 C 0.0407 0.90015 0.02308 0.0
C409 C 0.05743 0.92429 0.91686 0.0
C410 C 0.05512 0.85355 0.04825 0.0
C411 C 0.01818 0.85034 0.16417 0.0
N412 N 0.05825 0.90334 0.96493 0.0
N413 N 0.02181 0.87296 0.12465 0.0
H414 H 0.69746 0.0447 0.96843 0.0
H415 H 0.54402 0.05903 0.94863 0.0
H416 H 0.65146 0.07195 0.15921 0.0
H417 H 0.59432 0.04107 0.75851 0.0
H418 H 0.58302 0.07242 0.022 0.0
H419 H 0.66088 0.05289 0.88585 0.0
C420 C 0.67995 0.05304 -0.00691 0.0
C421 C 0.67752 0.05698 0.07169 0.0
C422 C 0.58542 0.06616 0.96359 0.0
C423 C 0.63472 0.06534 0.97683 0.0
C424 C 0.5632 0.05864 0.9219 0.0
C425 C 0.56623 0.04863 0.84827 0.0
C426 C 0.61053 0.06355 0.93079 0.0
C427 C 0.59134 0.04833 0.81577 0.0
C428 C 0.6588 0.05747 0.94563 0.0
C429 C 0.65398 0.06765 0.09943 0.0
N430 N 0.61251 0.05534 0.85746 0.0
N431 N 0.63326 0.07085 0.05239 0.0
H432 H 0.45097 0.64931 0.18958 0.0
H433 H 0.45158 0.59075 0.77072 0.0
H434 H 0.46951 0.69318 0.98585 0.0
H435 H 0.45886 0.54319 0.97129 0.0
H436 H 0.44119 0.62879 0.85033 0.0
H437 H 0.43793 0.61152 0.11101 0.0
C438 C 0.45188 0.65122 0.12841 0.0
C439 C 0.46213 0.6743 0.09445 0.0
C440 C 0.44433 0.6099 0.87702 0.0
C441 C 0.44666 0.63132 0.0046 0.0
C442 C 0.45006 0.5882 0.83167 0.0
C443 C 0.45603 0.56402 0.86496 0.0
C444 C 0.44509 0.60744 0.95626 0.0
C445 C 0.45419 0.56159 0.94391 0.0
C446 C 0.4443 0.62966 0.08375 0.0
C447 C 0.46192 0.67589 0.01493 0.0
N448 N 0.44933 0.58326 0.98728 0.0
N449 N 0.45474 0.65455 0.97282 0.0
H450 H 0.81818 0.48799 0.94581 0.0
H451 H 0.96667 0.46501 0.94026 0.0
H452 H 0.8566 0.45791 0.14452 0.0
H453 H 0.92051 0.45158 0.73899 0.0
H454 H 0.92683 0.46009 0.01734 0.0
H455 H 0.85461 0.47251 0.86792 0.0
C456 C 0.83392 0.47762 0.97299 0.0
C457 C 0.83459 0.47488 0.05219 0.0
C458 C 0.92557 0.45756 0.95641 0.0
C459 C 0.87662 0.45775 0.96351 0.0
C460 C 0.94829 0.46039 0.91244 0.0
C461 C 0.94686 0.45913 0.83306 0.0
C462 C 0.90126 0.45413 0.9205 0.0
C463 C 0.92253 0.45294 0.79999 0.0
C464 C 0.85478 0.46884 0.92844 0.0
C465 C 0.85569 0.46134 0.084 0.0
N466 N 0.90055 0.45136 0.84373 0.0
N467 N 0.87617 0.45385 0.03982 0.0
H468 H 0.02833 0.21268 0.97379 0.0
H469 H 0.08038 0.07199 0.86377 0.0
H470 H 0.09747 0.1788 0.06919 0.0
H471 H 0.01141 0.10752 0.77036 0.0
H472 H 0.09353 0.11507 0.9155 0.0
H473 H 0.02987 0.18034 0.87085 0.0
C474 C 0.04465 0.1993 0.97067 0.0
C475 C 0.06262 0.19808 0.03009 0.0
C476 C 0.0757 0.11346 0.88276 0.0
C477 C 0.06375 0.16017 0.91562 0.0
C478 C 0.06811 0.08883 0.85367 0.0
C479 C 0.04441 0.08595 0.8144 0.0
C480 C 0.05945 0.13531 0.87253 0.0
C481 C 0.02952 0.10859 0.80189 0.0
C482 C 0.04529 0.18047 0.91275 0.0
C483 C 0.0832 0.18016 0.02424 0.0
N484 N 0.03712 0.13216 0.83159 0.0
N485 N 0.08277 0.16132 0.96935 0.0
H486 H 0.31823 0.05657 0.0717 0.0
H487 H 0.39311 0.99835 0.71647 0.0
H488 H 0.29283 0.98867 0.94325 0.0
H489 H 0.42523 0.0584 0.86456 0.0
H490 H 0.35021 0.00439 0.77435 0.0
H491 H 0.34961 0.0678 0.97071 0.0
C492 C 0.3182 0.04492 0.02003 0.0
C493 C 0.30303 0.02166 0.01548 0.0
C494 C 0.3665 0.01652 0.79368 0.0
C495 C 0.33952 0.03363 0.90165 0.0
C496 C 0.39111 0.01299 0.76096 0.0
C497 C 0.41298 0.02741 0.78718 0.0
C498 C 0.36365 0.03437 0.85401 0.0
C499 C 0.40899 0.04658 0.84347 0.0
C500 C 0.33647 0.05104 0.96308 0.0
C501 C 0.30412 0.00684 0.94847 0.0
N502 N 0.38486 0.04915 0.87612 0.0
N503 N 0.32256 0.01271 0.89487 0.0
H504 H 0.50663 0.28889 0.94137 0.0
H505 H 0.43956 0.42376 0.84271 0.0
H506 H 0.43616 0.31595 0.0499 0.0
H507 H 0.5117 0.39583 0.74404 0.0
H508 H 0.43115 0.37951 0.89458 0.0
H509 H 0.50054 0.32101 0.84024 0.0
C510 C 0.48906 0.30061 0.9415 0.0
C511 C 0.47194 0.29996 0.0039 0.0
C512 C 0.44862 0.38303 0.86059 0.0
C513 C 0.46565 0.33787 0.89156 0.0
C514 C 0.45348 0.40831 0.83134 0.0
C515 C 0.47671 0.41372 0.79075 0.0
C516 C 0.46709 0.36307 0.84883 0.0
C517 C 0.49386 0.39282 0.77674 0.0
C518 C 0.48583 0.31938 0.88465 0.0
C519 C 0.44974 0.31593 0.00238 0.0
N520 N 0.48885 0.3686 0.80636 0.0
N521 N 0.44764 0.33486 0.94843 0.0
H522 H 0.18625 0.47001 0.11472 0.0
H523 H 0.12149 0.48907 0.70933 0.0
H524 H 0.21538 0.52569 0.94918 0.0
H525 H 0.07779 0.47177 0.91453 0.0
H526 H 0.16223 0.4866 0.78093 0.0
H527 H 0.15378 0.45399 0.02289 0.0
C528 C 0.18669 0.47783 0.05754 0.0
C529 C 0.20349 0.49901 0.03885 0.0
C530 C 0.14372 0.48283 0.80971 0.0
C531 C 0.16629 0.48135 0.93495 0.0
C532 C 0.12044 0.48422 0.76912 0.0
C533 C 0.09613 0.48104 0.80639 0.0
C534 C 0.14272 0.47777 0.88776 0.0
C535 C 0.09605 0.47474 0.88384 0.0
C536 C 0.16796 0.46899 0.00576 0.0
C537 C 0.20289 0.50912 0.96504 0.0
N538 N 0.11902 0.47349 0.92217 0.0
N539 N 0.18425 0.50043 0.91583 0.0
H540 H 0.96811 0.79077 0.37066 0.0
H541 H 0.03213 0.91394 0.51623 0.0
H542 H 0.04983 0.79087 0.42906 0.0
H543 H 0.95973 0.89322 0.63109 0.0
H544 H 0.03613 0.86834 0.47446 0.0
H545 H 0.96068 0.82508 0.46645 0.0
C546 C 0.98414 0.79673 0.40721 0.0
C547 C 0.0097 0.78832 0.39146 0.0
C548 C 0.01944 0.87371 0.50925 0.0
C549 C 1.00162 0.82814 0.49756 0.0
C550 C 0.01689 0.89982 0.53196 0.0
C551 C 0.9954 0.9074 0.57638 0.0
C552 C 1.00003 0.85506 0.52922 0.0
C553 C 0.9765 0.8881 0.59638 0.0
C554 C 0.97996 0.81662 0.46098 0.0
C555 C 0.02989 0.797 0.43937 0.0
N556 N 0.97896 0.86276 0.57134 0.0
N557 N 0.02567 0.81729 0.48815 0.0
H558 H 0.68046 0.97342 0.22295 0.0
H559 H 0.61226 0.9876 0.62951 0.0
H560 H 0.70573 0.03119 0.38754 0.0
H561 H 0.57184 0.967 0.42305 0.0
H562 H 0.65387 0.98897 0.55817 0.0
H563 H 0.64888 0.95558 0.31558 0.0
C564 C 0.6801 0.98155 0.2799 0.0
C565 C 0.69563 0.00367 0.29818 0.0
C566 C 0.63593 0.98354 0.52917 0.0
C567 C 0.65935 0.98389 0.40324 0.0
C568 C 0.61226 0.98262 0.56968 0.0
C569 C 0.58864 0.97737 0.53172 0.0
C570 C 0.6359 0.97856 0.45083 0.0
C571 C 0.58963 0.97134 0.45414 0.0
C572 C 0.66194 0.97158 0.33227 0.0
C573 C 0.69417 0.01395 0.37193 0.0
N574 N 0.61287 0.9722 0.41614 0.0
N575 N 0.67596 0.0042 0.42175 0.0
H576 H 0.55086 0.67242 0.21833 0.0
H577 H 0.52955 0.61513 0.63425 0.0
H578 H 0.50409 0.71026 0.39006 0.0
H579 H 0.54866 0.56946 0.43495 0.0
H580 H 0.53556 0.65564 0.55986 0.0
H581 H 0.56658 0.64157 0.31361 0.0
C582 C 0.54487 0.67492 0.27701 0.0
C583 C 0.52614 0.69369 0.29678 0.0
C584 C 0.539 0.63674 0.53309 0.0
C585 C 0.54321 0.6581 0.40504 0.0
C586 C 0.53563 0.61364 0.57538 0.0
C587 C 0.53814 0.58892 0.54018 0.0
C588 C 0.54529 0.63501 0.45558 0.0
C589 C 0.54607 0.58811 0.46388 0.0
C590 C 0.55357 0.65717 0.3311 0.0
C591 C 0.5186 0.69602 0.37305 0.0
N592 N 0.54912 0.61082 0.42395 0.0
N593 N 0.52674 0.67798 0.42442 0.0
H594 H 0.8378 0.55844 0.2244 0.0
H595 H 0.90726 0.49489 0.57421 0.0
H596 H 0.80345 0.49638 0.36045 0.0
H597 H 0.93802 0.5641 0.46051 0.0
H598 H 0.86562 0.50052 0.51067 0.0
H599 H 0.86984 0.56727 0.32435 0.0
C600 C 0.83631 0.54752 0.27708 0.0
C601 C 0.81802 0.52673 0.28473 0.0
C602 C 0.88128 0.51472 0.50001 0.0
C603 C 0.85521 0.5358 0.39752 0.0
C604 C 0.90519 0.5114 0.53592 0.0
C605 C 0.92633 0.52874 0.52129 0.0
C606 C 0.87849 0.53526 0.44763 0.0
C607 C 0.9223 0.55012 0.47264 0.0
C608 C 0.85479 0.55231 0.33371 0.0
C609 C 0.81715 0.51271 0.35295 0.0
N610 N 0.89898 0.55249 0.43632 0.0
N611 N 0.83588 0.51712 0.40613 0.0
loop_
_geom_bond_atom_site_label_1
_geom_bond_atom_site_label_2
_geom_bond_distance
_geom_bond_site_symmetry_2
_ccdc_geom_bond_type
H0 C5 0.929 . S
H1 C10 0.931 . S
H2 C8 0.930 . S
N3 N4 1.234 1_554 S
N3 C7 1.453 . S
N4 N3 1.234 1_556 S
C5 H0 0.929 . S
C5 C6 1.373 . S
C5 C7 1.368 . S
C6 C5 1.373 . S
C6 C10 1.397 . S
C7 N3 1.453 . S
C7 C5 1.368 . S
C7 C8 1.373 1_554 S
C8 H2 0.930 . S
C8 C7 1.373 1_556 S
C8 C9 1.371 . S
C9 C8 1.371 . S
C9 C10 1.383 1_556 S
C10 H1 0.931 . S
C10 C6 1.397 . S
C10 C9 1.383 1_554 S
H11 C16 0.929 . S
H12 C21 0.932 . S
H13 C19 0.930 . S
N14 N15 1.234 1_455 S
N14 C18 1.453 . S
N15 N14 1.234 1_655 S
C16 H11 0.929 . S
C16 C17 1.373 . S
C16 C18 1.368 . S
C17 C16 1.373 . S
C17 C21 1.397 1_455 S
C18 N14 1.453 . S
C18 C16 1.368 . S
C18 C19 1.373 . S
C19 H13 0.930 . S
C19 C18 1.373 . S
C19 C20 1.371 . S
C20 C19 1.371 . S
C20 C21 1.383 1_455 S
C21 H12 0.932 . S
C21 C17 1.397 1_655 S
C21 C20 1.383 1_655 S
H22 C27 0.929 . S
H23 C32 0.938 . S
H24 C30 0.930 1_556 S
N25 N26 1.234 1_545 S
N25 C29 1.453 . S
N26 N25 1.234 1_565 S
C27 H22 0.929 . S
C27 C28 1.373 . S
C27 C29 1.368 . S
C28 C27 1.373 . S
C28 C32 1.395 1_545 S
C29 N25 1.453 . S
C29 C27 1.368 . S
C29 C30 1.373 . S
C30 H24 0.930 1_554 S
C30 C29 1.373 . S
C30 C31 1.375 . S
C31 C30 1.375 . S
C31 C32 1.380 1_545 S
C32 H23 0.938 . S
C32 C28 1.395 1_565 S
C32 C31 1.380 1_565 S
H33 C38 0.929 . S
H34 C43 0.931 . S
H35 C41 0.930 . S
N36 N37 1.234 1_554 S
N36 C40 1.453 . S
N37 N36 1.234 1_556 S
C38 H33 0.929 . S
C38 C39 1.373 . S
C38 C40 1.368 . S
C39 C38 1.373 . S
C39 C43 1.397 . S
C40 N36 1.453 . S
C40 C38 1.368 . S
C40 C41 1.373 1_554 S
C41 H35 0.930 . S
C41 C40 1.373 1_556 S
C41 C42 1.371 . S
C42 C41 1.371 . S
C42 C43 1.383 1_556 S
C43 H34 0.931 . S
C43 C39 1.397 . S
C43 C42 1.383 1_554 S
H44 C49 0.929 . S
H45 C54 0.931 . S
H46 C52 0.930 . S
N47 N48 1.234 . S
N47 C51 1.453 . S
N48 N47 1.234 . S
C49 H44 0.929 . S
C49 C50 1.373 . S
C49 C51 1.368 . S
C50 C49 1.373 . S
C50 C54 1.397 . S
C51 N47 1.453 . S
C51 C49 1.368 . S
C51 C52 1.373 . S
C52 H46 0.930 . S
C52 C51 1.373 . S
C52 C53 1.371 . S
C53 C52 1.371 . S
C53 C54 1.383 . S
C54 H45 0.931 . S
C54 C50 1.397 . S
C54 C53 1.383 . S
H55 C60 0.929 . S
H56 C65 0.931 . S
H57 C63 0.930 . S
N58 N59 1.234 . S
N58 C62 1.453 . S
N59 N58 1.234 . S
C60 H55 0.929 . S
C60 C61 1.373 . S
C60 C62 1.368 . S
C61 C60 1.373 . S
C61 C65 1.397 . S
C62 N58 1.453 . S
C62 C60 1.368 . S
C62 C63 1.373 . S
C63 H57 0.930 . S
C63 C62 1.373 . S
C63 C64 1.371 . S
C64 C63 1.371 . S
C64 C65 1.383 . S
C65 H56 0.931 . S
C65 C61 1.397 . S
C65 C64 1.383 . S
H66 C71 0.929 . S
H67 C76 0.931 . S
H68 C74 0.930 . S
N69 N70 1.234 . S
N69 C73 1.453 . S
N70 N69 1.234 . S
C71 H66 0.929 . S
C71 C72 1.373 . S
C71 C73 1.368 . S
C72 C71 1.373 . S
C72 C76 1.397 . S
C73 N69 1.453 . S
C73 C71 1.368 . S
C73 C74 1.373 . S
C74 H68 0.930 . S
C74 C73 1.373 . S
C74 C75 1.371 . S
C75 C74 1.371 . S
C75 C76 1.383 . S
C76 H67 0.931 . S
C76 C72 1.397 . S
C76 C75 1.383 . S
H77 C82 0.929 . S
H78 C87 0.931 . S
H79 C85 0.930 . S
N80 N81 1.234 . S
N80 C84 1.453 . S
N81 N80 1.234 . S
C82 H77 0.929 . S
C82 C83 1.373 . S
C82 C84 1.368 . S
C83 C82 1.373 . S
C83 C87 1.397 . S
C84 N80 1.453 . S
C84 C82 1.368 . S
C84 C85 1.373 . S
C85 H79 0.930 . S
C85 C84 1.373 . S
C85 C86 1.371 . S
C86 C85 1.371 . S
C86 C87 1.383 . S
C87 H78 0.931 . S
C87 C83 1.397 . S
C87 C86 1.383 . S
O88 Zn89 1.955 . S
O88 C104 1.225 1_545 S
Zn89 O88 1.955 . S
Zn89 O90 1.948 1_545 S
Zn89 O96 1.945 . S
Zn89 O101 1.893 1_545 S
O90 Zn89 1.948 1_565 S
O90 Zn91 1.901 1_465 S
O90 Zn92 1.952 . S
O90 Zn93 1.965 1_455 S
Zn91 O90 1.901 1_645 S
Zn91 O94 1.933 . S
Zn91 O97 1.941 1_655 S
Zn91 O98 1.965 . S
Zn92 O90 1.952 . S
Zn92 O99 1.938 1_565 S
Zn92 O100 1.906 . S
Zn92 O110 1.953 . S
Zn93 O90 1.965 1_655 S
Zn93 O95 1.932 . S
Zn93 O102 1.977 . S
Zn93 O103 1.910 1_655 S
O94 Zn91 1.933 . S
O94 C105 1.226 . S
O95 Zn93 1.932 . S
O95 C105 1.307 1_565 S
O96 Zn89 1.945 . S
O96 C107 1.253 . S
O97 Zn91 1.941 1_455 S
O97 C107 1.283 . S
O98 Zn91 1.965 . S
O98 C106 1.303 1_655 S
O99 Zn92 1.938 1_545 S
O99 C106 1.247 . S
O100 Zn92 1.906 . S
O100 C108 1.304 1_455 S
O101 Zn89 1.893 1_565 S
O101 C109 1.311 . S
O102 Zn93 1.977 . S
O102 C108 1.272 . S
O103 Zn93 1.910 1_455 S
O103 C109 1.231 . S
C104 O88 1.225 1_565 S
C104 O110 1.298 . S
C105 O94 1.226 . S
C105 O95 1.307 1_545 S
C106 O98 1.303 1_455 S
C106 O99 1.247 . S
C107 O96 1.253 . S
C107 O97 1.283 . S
C108 O100 1.304 1_655 S
C108 O102 1.272 . S
C109 O101 1.311 . S
C109 O103 1.231 . S
O110 Zn92 1.953 . S
O110 C104 1.298 . S
O111 Zn112 1.953 . S
O111 C127 1.225 . S
Zn112 O111 1.953 . S
Zn112 O113 1.949 . S
Zn112 O119 1.919 . S
Zn112 O124 1.924 . S
O113 Zn112 1.949 . S
O113 Zn114 1.923 1_545 S
O113 Zn115 1.950 . S
O113 Zn116 1.945 1_545 S
Zn114 O113 1.923 1_565 S
Zn114 O117 1.933 . S
Zn114 O120 1.941 . S
Zn114 O121 1.965 . S
Zn115 O113 1.950 . S
Zn115 O122 1.938 . S
Zn115 O123 1.906 . S
Zn115 O133 1.953 . S
Zn116 O113 1.945 1_565 S
Zn116 O118 1.932 . S
Zn116 O125 1.977 . S
Zn116 O126 1.910 1_565 S
O117 Zn114 1.933 . S
O117 C128 1.226 . S
O118 Zn116 1.932 . S
O118 C128 1.307 . S
O119 Zn112 1.919 . S
O119 C130 1.253 . S
O120 Zn114 1.941 . S
O120 C130 1.283 1_565 S
O121 Zn114 1.965 . S
O121 C129 1.303 1_565 S
O122 Zn115 1.938 . S
O122 C129 1.247 . S
O123 Zn115 1.906 . S
O123 C131 1.304 1_545 S
O124 Zn112 1.924 . S
O124 C132 1.311 . S
O125 Zn116 1.977 . S
O125 C131 1.272 . S
O126 Zn116 1.910 1_545 S
O126 C132 1.231 . S
C127 O111 1.225 . S
C127 O133 1.298 . S
C128 O117 1.226 . S
C128 O118 1.307 . S
C129 O121 1.303 1_545 S
C129 O122 1.247 . S
C130 O119 1.253 . S
C130 O120 1.283 1_545 S
C131 O123 1.304 1_565 S
C131 O125 1.272 . S
C132 O124 1.311 . S
C132 O126 1.231 . S
O133 Zn115 1.953 . S
O133 C127 1.298 . S
O134 Zn135 1.953 . S
O134 C150 1.225 . S
Zn135 O134 1.953 . S
Zn135 O136 1.949 . S
Zn135 O142 1.919 . S
Zn135 O147 1.924 . S
O136 Zn135 1.949 . S
O136 Zn137 1.923 . S
O136 Zn138 1.950 . S
O136 Zn139 1.945 . S
Zn137 O136 1.923 . S
Zn137 O140 1.933 . S
Zn137 O143 1.941 . S
Zn137 O144 1.965 . S
Zn138 O136 1.950 . S
Zn138 O145 1.938 . S
Zn138 O146 1.906 . S
Zn138 O156 1.953 . S
Zn139 O136 1.945 . S
Zn139 O141 1.932 . S
Zn139 O148 1.977 . S
Zn139 O149 1.910 . S
O140 Zn137 1.933 . S
O140 C151 1.226 . S
O141 Zn139 1.932 . S
O141 C151 1.307 . S
O142 Zn135 1.919 . S
O142 C153 1.253 . S
O143 Zn137 1.941 . S
O143 C153 1.283 . S
O144 Zn137 1.965 . S
O144 C152 1.303 . S
O145 Zn138 1.938 . S
O145 C152 1.247 . S
O146 Zn138 1.906 . S
O146 C154 1.304 . S
O147 Zn135 1.924 . S
O147 C155 1.311 . S
O148 Zn139 1.977 . S
O148 C154 1.272 . S
O149 Zn139 1.910 . S
O149 C155 1.231 . S
C150 O134 1.225 . S
C150 O156 1.298 . S
C151 O140 1.226 . S
C151 O141 1.307 . S
C152 O144 1.303 . S
C152 O145 1.247 . S
C153 O142 1.253 . S
C153 O143 1.283 . S
C154 O146 1.304 . S
C154 O148 1.272 . S
C155 O147 1.311 . S
C155 O149 1.231 . S
O156 Zn138 1.953 . S
O156 C150 1.298 . S
O157 Zn158 1.922 1_655 S
O157 C173 1.225 . S
Zn158 O157 1.922 1_455 S
Zn158 O159 1.949 . S
Zn158 O165 1.919 . S
Zn158 O170 1.958 . S
O159 Zn158 1.949 . S
O159 Zn160 1.918 1_455 S
O159 Zn161 1.929 1_455 S
O159 Zn162 1.973 . S
Zn160 O159 1.918 1_655 S
Zn160 O163 1.933 1_655 S
Zn160 O166 1.941 . S
Zn160 O167 1.965 . S
Zn161 O159 1.929 1_655 S
Zn161 O168 1.938 . S
Zn161 O169 1.906 . S
Zn161 O179 1.953 . S
Zn162 O159 1.973 . S
Zn162 O164 1.932 . S
Zn162 O171 1.977 . S
Zn162 O172 1.910 . S
O163 Zn160 1.933 1_455 S
O163 C174 1.226 . S
O164 Zn162 1.932 . S
O164 C174 1.307 . S
O165 Zn158 1.919 . S
O165 C176 1.253 1_455 S
O166 Zn160 1.941 . S
O166 C176 1.281 . S
O167 Zn160 1.965 . S
O167 C175 1.303 . S
O168 Zn161 1.938 . S
O168 C175 1.247 . S
O169 Zn161 1.906 . S
O169 C177 1.304 1_655 S
O170 Zn158 1.958 . S
O170 C178 1.311 . S
O171 Zn162 1.977 . S
O171 C177 1.272 . S
O172 Zn162 1.910 . S
O172 C178 1.231 . S
C173 O157 1.225 . S
C173 O179 1.298 . S
C174 O163 1.226 . S
C174 O164 1.307 . S
C175 O167 1.303 . S
C175 O168 1.247 . S
C176 O165 1.253 1_655 S
C176 O166 1.281 . S
C177 O169 1.304 1_455 S
C177 O171 1.272 . S
C178 O170 1.311 . S
C178 O172 1.231 . S
O179 Zn161 1.953 . S
O179 C173 1.298 . S
H180 C186 0.930 . S
H181 C190 0.930 . S
H182 C195 0.929 . S
H183 C193 0.929 . S
H184 C188 0.929 . S
H185 C194 0.929 . S
C186 H180 0.930 . S
C186 C187 1.367 . S
C186 C194 1.378 . S
C187 C186 1.367 . S
C187 C195 1.433 1_545 S
C188 H184 0.929 . S
C188 C190 1.378 . S
C188 C192 1.350 1_565 S
C189 C192 1.463 . S
C189 C194 1.350 . S
C189 N197 1.427 1_545 S
C190 H181 0.930 . S
C190 C188 1.378 . S
C190 C191 1.367 . S
C191 C190 1.367 . S
C191 C193 1.433 1_565 S
C192 C188 1.350 1_545 S
C192 C189 1.463 . S
C192 N196 1.427 . S
C193 H183 0.929 . S
C193 C191 1.433 1_545 S
C193 N196 1.384 . S
C194 H185 0.929 . S
C194 C186 1.378 . S
C194 C189 1.350 . S
C195 H182 0.929 . S
C195 C187 1.433 1_565 S
C195 N197 1.384 . S
N196 C192 1.427 . S
N196 C193 1.384 . S
N197 C189 1.427 1_565 S
N197 C195 1.384 . S
H198 C204 0.930 . S
H199 C208 0.930 . S
H200 C213 0.929 . S
H201 C211 0.929 . S
H202 C206 0.929 . S
H203 C212 0.929 . S
C204 H198 0.930 . S
C204 C205 1.367 . S
C204 C212 1.378 . S
C205 C204 1.367 . S
C205 C213 1.433 . S
C206 H202 0.929 . S
C206 C208 1.378 . S
C206 C210 1.350 . S
C207 C210 1.463 . S
C207 C212 1.350 . S
C207 N215 1.427 . S
C208 H199 0.930 . S
C208 C206 1.378 . S
C208 C209 1.367 . S
C209 C208 1.367 . S
C209 C211 1.433 . S
C210 C206 1.350 . S
C210 C207 1.463 . S
C210 N214 1.427 . S
C211 H201 0.929 . S
C211 C209 1.433 . S
C211 N214 1.384 . S
C212 H203 0.929 . S
C212 C204 1.378 . S
C212 C207 1.350 . S
C213 H200 0.929 . S
C213 C205 1.433 . S
C213 N215 1.384 . S
N214 C210 1.427 . S
N214 C211 1.384 . S
N215 C207 1.427 . S
N215 C213 1.384 . S
H216 C222 0.930 . S
H217 C226 0.930 . S
H218 C231 0.929 . S
H219 C229 0.929 . S
H220 C224 0.929 . S
H221 C230 0.929 . S
C222 H216 0.930 . S
C222 C223 1.367 . S
C222 C230 1.378 . S
C223 C222 1.367 . S
C223 C231 1.433 . S
C224 H220 0.929 . S
C224 C226 1.378 . S
C224 C228 1.350 . S
C225 C228 1.463 . S
C225 C230 1.350 . S
C225 N233 1.427 . S
C226 H217 0.930 . S
C226 C224 1.378 . S
C226 C227 1.367 . S
C227 C226 1.367 . S
C227 C229 1.433 . S
C228 C224 1.350 . S
C228 C225 1.463 . S
C228 N232 1.427 . S
C229 H219 0.929 . S
C229 C227 1.433 . S
C229 N232 1.384 . S
C230 H221 0.929 . S
C230 C222 1.378 . S
C230 C225 1.350 . S
C231 H218 0.929 . S
C231 C223 1.433 . S
C231 N233 1.384 . S
N232 C228 1.427 . S
N232 C229 1.384 . S
N233 C225 1.427 . S
N233 C231 1.384 . S
H234 C240 0.930 . S
H235 C244 0.930 . S
H236 C249 0.929 . S
H237 C247 0.929 . S
H238 C242 0.929 . S
H239 C248 0.929 . S
C240 H234 0.930 . S
C240 C241 1.367 . S
C240 C248 1.378 . S
C241 C240 1.367 . S
C241 C249 1.433 . S
C242 H238 0.929 . S
C242 C244 1.378 . S
C242 C246 1.350 . S
C243 C246 1.463 . S
C243 C248 1.350 . S
C243 N251 1.427 . S
C244 H235 0.930 . S
C244 C242 1.378 . S
C244 C245 1.367 . S
C245 C244 1.367 . S
C245 C247 1.433 . S
C246 C242 1.350 . S
C246 C243 1.463 . S
C246 N250 1.427 . S
C247 H237 0.929 . S
C247 C245 1.433 . S
C247 N250 1.384 . S
C248 H239 0.929 . S
C248 C240 1.378 . S
C248 C243 1.350 . S
C249 H236 0.929 . S
C249 C241 1.433 . S
C249 N251 1.384 . S
N250 C246 1.427 . S
N250 C247 1.384 . S
N251 C243 1.427 . S
N251 C249 1.384 . S
H252 C258 0.930 1_554 S
H253 C262 0.930 . S
H254 C267 0.929 . S
H255 C265 0.929 . S
H256 C260 0.929 . S
H257 C266 0.929 . S
C258 H252 0.930 1_556 S
C258 C259 1.369 . S
C258 C266 1.378 . S
C259 C258 1.369 . S
C259 C267 1.431 1_545 S
C260 H256 0.929 . S
C260 C262 1.378 . S
C260 C264 1.337 1_565 S
C261 C264 1.463 . S
C261 C266 1.350 . S
C261 N269 1.427 1_545 S
C262 H253 0.930 . S
C262 C260 1.378 . S
C262 C263 1.367 1_565 S
C263 C262 1.367 1_545 S
C263 C265 1.433 . S
C264 C260 1.337 1_545 S
C264 C261 1.463 . S
C264 N268 1.440 . S
C265 H255 0.929 . S
C265 C263 1.433 . S
C265 N268 1.384 . S
C266 H257 0.929 . S
C266 C258 1.378 . S
C266 C261 1.350 . S
C267 H254 0.929 . S
C267 C259 1.431 1_565 S
C267 N269 1.384 . S
N268 C264 1.440 . S
N268 C265 1.384 . S
N269 C261 1.427 1_565 S
N269 C267 1.384 . S
H270 C276 0.930 . S
H271 C280 0.930 . S
H272 C285 0.929 1_554 S
H273 C283 0.929 . S
H274 C278 0.929 . S
H275 C284 0.929 . S
C276 H270 0.930 . S
C276 C277 1.367 . S
C276 C284 1.378 . S
C277 C276 1.367 . S
C277 C285 1.433 . S
C278 H274 0.929 . S
C278 C280 1.378 . S
C278 C282 1.350 . S
C279 C282 1.463 . S
C279 C284 1.350 . S
C279 N287 1.427 . S
C280 H271 0.930 . S
C280 C278 1.378 . S
C280 C281 1.367 . S
C281 C280 1.367 . S
C281 C283 1.433 . S
C282 C278 1.350 . S
C282 C279 1.463 . S
C282 N286 1.427 . S
C283 H273 0.929 . S
C283 C281 1.433 . S
C283 N286 1.384 . S
C284 H275 0.929 . S
C284 C276 1.378 . S
C284 C279 1.350 . S
C285 H272 0.929 1_556 S
C285 C277 1.433 . S
C285 N287 1.384 . S
N286 C282 1.427 . S
N286 C283 1.384 . S
N287 C279 1.427 . S
N287 C285 1.384 . S
H288 C294 0.930 . S
H289 C298 0.930 . S
H290 C303 0.929 . S
H291 C301 0.929 . S
H292 C296 0.929 . S
H293 C302 0.929 . S
C294 H288 0.930 . S
C294 C295 1.367 . S
C294 C302 1.378 . S
C295 C294 1.367 . S
C295 C303 1.433 . S
C296 H292 0.929 . S
C296 C298 1.378 . S
C296 C300 1.350 . S
C297 C300 1.463 . S
C297 C302 1.350 . S
C297 N305 1.427 . S
C298 H289 0.930 . S
C298 C296 1.378 . S
C298 C299 1.367 . S
C299 C298 1.367 . S
C299 C301 1.433 . S
C300 C296 1.350 . S
C300 C297 1.463 . S
C300 N304 1.427 . S
C301 H291 0.929 . S
C301 C299 1.433 . S
C301 N304 1.384 . S
C302 H293 0.929 . S
C302 C294 1.378 . S
C302 C297 1.350 . S
C303 H290 0.929 . S
C303 C295 1.433 . S
C303 N305 1.384 . S
N304 C300 1.427 . S
N304 C301 1.384 . S
N305 C297 1.427 . S
N305 C303 1.384 . S
H306 C312 0.930 . S
H307 C316 0.930 . S
H308 C321 0.929 . S
H309 C319 0.929 . S
H310 C314 0.929 . S
H311 C320 0.929 . S
C312 H306 0.930 . S
C312 C313 1.367 . S
C312 C320 1.378 1_554 S
C313 C312 1.367 . S
C313 C321 1.433 1_654 S
C314 H310 0.929 . S
C314 C316 1.378 . S
C314 C318 1.350 . S
C315 C318 1.463 . S
C315 C320 1.344 1_455 S
C315 N323 1.433 . S
C316 H307 0.930 . S
C316 C314 1.378 . S
C316 C317 1.367 . S
C317 C316 1.367 . S
C317 C319 1.433 1_455 S
C318 C314 1.350 . S
C318 C315 1.463 . S
C318 N322 1.427 1_455 S
C319 H309 0.929 . S
C319 C317 1.433 1_655 S
C319 N322 1.384 . S
C320 H311 0.929 . S
C320 C312 1.378 1_556 S
C320 C315 1.344 1_655 S
C321 H308 0.929 . S
C321 C313 1.433 1_456 S
C321 N323 1.384 . S
N322 C318 1.427 1_655 S
N322 C319 1.384 . S
N323 C315 1.433 . S
N323 C321 1.384 . S
H324 C330 0.930 . S
H325 C334 0.930 . S
H326 C339 0.929 . S
H327 C337 0.929 . S
H328 C332 0.929 . S
H329 C338 0.929 . S
C330 H324 0.930 . S
C330 C331 1.367 . S
C330 C338 1.378 . S
C331 C330 1.367 . S
C331 C339 1.433 . S
C332 H328 0.929 . S
C332 C334 1.378 . S
C332 C336 1.350 . S
C333 C336 1.463 . S
C333 C338 1.350 . S
C333 N341 1.427 . S
C334 H325 0.930 . S
C334 C332 1.378 . S
C334 C335 1.367 . S
C335 C334 1.367 . S
C335 C337 1.433 . S
C336 C332 1.350 . S
C336 C333 1.463 . S
C336 N340 1.427 . S
C337 H327 0.929 . S
C337 C335 1.433 . S
C337 N340 1.384 . S
C338 H329 0.929 . S
C338 C330 1.378 . S
C338 C333 1.350 . S
C339 H326 0.929 . S
C339 C331 1.433 . S
C339 N341 1.384 . S
N340 C336 1.427 . S
N340 C337 1.384 . S
N341 C333 1.427 . S
N341 C339 1.384 . S
H342 C348 0.930 . S
H343 C352 0.930 . S
H344 C357 0.929 . S
H345 C355 0.929 . S
H346 C350 0.929 . S
H347 C356 0.929 . S
C348 H342 0.930 . S
C348 C349 1.367 1_565 S
C348 C356 1.378 . S
C349 C348 1.367 1_545 S
C349 C357 1.433 . S
C350 H346 0.929 . S
C350 C352 1.378 . S
C350 C354 1.350 . S
C351 C354 1.463 . S
C351 C356 1.350 1_545 S
C351 N359 1.427 . S
C352 H343 0.930 . S
C352 C350 1.378 . S
C352 C353 1.367 . S
C353 C352 1.367 . S
C353 C355 1.433 1_545 S
C354 C350 1.350 . S
C354 C351 1.463 . S
C354 N358 1.427 1_545 S
C355 H345 0.929 . S
C355 C353 1.433 1_565 S
C355 N358 1.384 . S
C356 H347 0.929 . S
C356 C348 1.378 . S
C356 C351 1.350 1_565 S
C357 H344 0.929 . S
C357 C349 1.433 . S
C357 N359 1.384 . S
N358 C354 1.427 1_565 S
N358 C355 1.384 . S
N359 C351 1.427 . S
N359 C357 1.384 . S
H360 C366 0.930 . S
H361 C370 0.930 . S
H362 C375 0.929 . S
H363 C373 0.929 . S
H364 C368 0.929 . S
H365 C374 0.929 . S
C366 H360 0.930 . S
C366 C367 1.367 . S
C366 C374 1.378 . S
C367 C366 1.367 . S
C367 C375 1.433 . S
C368 H364 0.929 . S
C368 C370 1.378 . S
C368 C372 1.350 . S
C369 C372 1.463 . S
C369 C374 1.350 . S
C369 N377 1.427 . S
C370 H361 0.930 . S
C370 C368 1.378 . S
C370 C371 1.367 . S
C371 C370 1.367 . S
C371 C373 1.433 . S
C372 C368 1.350 . S
C372 C369 1.463 . S
C372 N376 1.427 . S
C373 H363 0.929 . S
C373 C371 1.433 . S
C373 N376 1.384 . S
C374 H365 0.929 . S
C374 C366 1.378 . S
C374 C369 1.350 . S
C375 H362 0.929 . S
C375 C367 1.433 . S
C375 N377 1.384 . S
N376 C372 1.427 . S
N376 C373 1.384 . S
N377 C369 1.427 . S
N377 C375 1.384 . S
H378 C384 0.930 . S
H379 C388 0.930 . S
H380 C393 0.929 . S
H381 C391 0.929 . S
H382 C386 0.929 . S
H383 C392 0.929 . S
C384 H378 0.930 . S
C384 C385 1.367 . S
C384 C392 1.378 . S
C385 C384 1.367 . S
C385 C393 1.433 . S
C386 H382 0.929 . S
C386 C388 1.378 . S
C386 C390 1.350 . S
C387 C390 1.463 . S
C387 C392 1.350 . S
C387 N395 1.427 . S
C388 H379 0.930 . S
C388 C386 1.378 . S
C388 C389 1.367 . S
C389 C388 1.367 . S
C389 C391 1.433 . S
C390 C386 1.350 . S
C390 C387 1.463 . S
C390 N394 1.427 . S
C391 H381 0.929 . S
C391 C389 1.433 . S
C391 N394 1.384 . S
C392 H383 0.929 . S
C392 C384 1.378 . S
C392 C387 1.350 . S
C393 H380 0.929 . S
C393 C385 1.433 . S
C393 N395 1.384 . S
N394 C390 1.427 . S
N394 C391 1.384 . S
N395 C387 1.427 . S
N395 C393 1.384 . S
H396 C402 0.930 . S
H397 C406 0.930 . S
H398 C411 0.929 . S
H399 C409 0.929 . S
H400 C404 0.929 1_554 S
H401 C410 0.929 . S
C402 H396 0.930 . S
C402 C403 1.384 1_556 S
C402 C410 1.378 . S
C403 C402 1.384 1_554 S
C403 C411 1.427 1_455 S
C404 H400 0.929 1_556 S
C404 C406 1.378 . S
C404 C408 1.350 . S
C405 C408 1.463 . S
C405 C410 1.350 . S
C405 N413 1.427 1_556 S
C406 H397 0.930 . S
C406 C404 1.378 . S
C406 C407 1.367 . S
C407 C406 1.367 . S
C407 C409 1.433 . S
C408 C404 1.350 . S
C408 C405 1.463 . S
C408 N412 1.427 . S
C409 H399 0.929 . S
C409 C407 1.433 . S
C409 N412 1.384 . S
C410 H401 0.929 . S
C410 C402 1.378 . S
C410 C405 1.350 . S
C411 H398 0.929 . S
C411 C403 1.427 1_655 S
C411 N413 1.384 1_655 S
N412 C408 1.427 . S
N412 C409 1.384 . S
N413 C405 1.427 1_554 S
N413 C411 1.384 1_455 S
H414 C420 0.930 . S
H415 C424 0.930 . S
H416 C429 0.924 1_565 S
H417 C427 0.929 . S
H418 C422 0.929 . S
H419 C428 0.929 . S
C420 H414 0.930 . S
C420 C421 1.366 . S
C420 C428 1.378 . S
C421 C420 1.366 . S
C421 C429 1.433 1_556 S
C422 H418 0.929 . S
C422 C424 1.378 . S
C422 C426 1.350 . S
C423 C426 1.463 . S
C423 C428 1.350 . S
C423 N431 1.427 . S
C424 H415 0.930 . S
C424 C422 1.378 . S
C424 C425 1.367 . S
C425 C424 1.367 . S
C425 C427 1.433 . S
C426 C422 1.350 . S
C426 C423 1.463 . S
C426 N430 1.427 . S
C427 H417 0.929 . S
C427 C425 1.433 . S
C427 N430 1.384 . S
C428 H419 0.929 . S
C428 C420 1.378 . S
C428 C423 1.350 . S
C429 H416 0.924 1_545 S
C429 C421 1.433 1_554 S
C429 N431 1.384 1_554 S
N430 C426 1.427 . S
N430 C427 1.384 . S
N431 C423 1.427 . S
N431 C429 1.384 1_556 S
H432 C438 0.930 . S
H433 C442 0.930 . S
H434 C447 0.929 . S
H435 C445 0.929 . S
H436 C440 0.929 . S
H437 C446 0.929 . S
C438 H432 0.930 . S
C438 C439 1.367 1_554 S
C438 C446 1.378 1_554 S
C439 C438 1.367 1_556 S
C439 C447 1.433 . S
C440 H436 0.929 . S
C440 C442 1.378 . S
C440 C444 1.350 . S
C441 C444 1.463 . S
C441 C446 1.350 . S
C441 N449 1.427 . S
C442 H433 0.930 . S
C442 C440 1.378 . S
C442 C443 1.367 . S
C443 C442 1.367 . S
C443 C445 1.433 . S
C444 C440 1.350 . S
C444 C441 1.463 . S
C444 N448 1.427 . S
C445 H435 0.929 . S
C445 C443 1.433 . S
C445 N448 1.384 . S
C446 H437 0.929 . S
C446 C438 1.378 1_556 S
C446 C441 1.350 . S
C447 H434 0.929 . S
C447 C439 1.433 . S
C447 N449 1.384 . S
N448 C444 1.427 . S
N448 C445 1.384 . S
N449 C441 1.427 . S
N449 C447 1.384 . S
H450 C456 0.930 . S
H451 C460 0.930 . S
H452 C465 0.929 . S
H453 C463 0.929 . S
H454 C458 0.929 . S
H455 C464 0.929 . S
C456 H450 0.930 . S
C456 C457 1.367 . S
C456 C464 1.378 . S
C457 C456 1.367 . S
C457 C465 1.433 . S
C458 H454 0.929 . S
C458 C460 1.378 . S
C458 C462 1.350 . S
C459 C462 1.463 . S
C459 C464 1.350 . S
C459 N467 1.427 . S
C460 H451 0.930 . S
C460 C458 1.378 . S
C460 C461 1.367 . S
C461 C460 1.367 . S
C461 C463 1.433 . S
C462 C458 1.350 . S
C462 C459 1.463 . S
C462 N466 1.427 . S
C463 H453 0.929 . S
C463 C461 1.433 . S
C463 N466 1.384 . S
C464 H455 0.929 . S
C464 C456 1.378 . S
C464 C459 1.350 . S
C465 H452 0.929 . S
C465 C457 1.433 . S
C465 N467 1.384 . S
N466 C462 1.427 . S
N466 C463 1.384 . S
N467 C459 1.427 . S
N467 C465 1.384 . S
H468 C474 0.930 . S
H469 C478 0.930 . S
H470 C483 0.929 . S
H471 C481 0.929 . S
H472 C476 0.929 . S
H473 C482 0.929 . S
C474 H468 0.930 . S
C474 C475 1.367 . S
C474 C482 1.378 . S
C475 C474 1.367 . S
C475 C483 1.433 . S
C476 H472 0.929 . S
C476 C478 1.378 . S
C476 C480 1.350 1_556 S
C477 C480 1.463 . S
C477 C482 1.350 . S
C477 N485 1.427 . S
C478 H469 0.930 . S
C478 C476 1.378 . S
C478 C479 1.367 . S
C479 C478 1.367 . S
C479 C481 1.433 1_556 S
C480 C476 1.350 1_554 S
C480 C477 1.463 . S
C480 N484 1.427 . S
C481 H471 0.929 . S
C481 C479 1.433 1_554 S
C481 N484 1.384 . S
C482 H473 0.929 . S
C482 C474 1.378 . S
C482 C477 1.350 . S
C483 H470 0.929 . S
C483 C475 1.433 . S
C483 N485 1.384 . S
N484 C480 1.427 . S
N484 C481 1.384 . S
N485 C477 1.427 . S
N485 C483 1.384 . S
H486 C492 0.930 . S
H487 C496 0.930 . S
H488 C501 0.929 . S
H489 C499 0.929 . S
H490 C494 0.929 . S
H491 C500 0.929 . S
C492 H486 0.930 . S
C492 C493 1.367 . S
C492 C500 1.378 . S
C493 C492 1.367 . S
C493 C501 1.433 1_545 S
C494 H490 0.929 . S
C494 C496 1.378 . S
C494 C498 1.350 1_565 S
C495 C498 1.463 1_554 S
C495 C500 1.350 . S
C495 N503 1.427 1_545 S
C496 H487 0.930 . S
C496 C494 1.378 . S
C496 C497 1.367 1_565 S
C497 C496 1.367 1_545 S
C497 C499 1.433 . S
C498 C494 1.350 1_545 S
C498 C495 1.463 1_556 S
C498 N502 1.427 1_556 S
C499 H489 0.929 . S
C499 C497 1.433 . S
C499 N502 1.384 1_556 S
C500 H491 0.929 . S
C500 C492 1.378 . S
C500 C495 1.350 . S
C501 H488 0.929 . S
C501 C493 1.433 1_565 S
C501 N503 1.384 . S
N502 C498 1.427 1_554 S
N502 C499 1.384 1_554 S
N503 C495 1.427 1_565 S
N503 C501 1.384 . S
H504 C510 0.930 . S
H505 C514 0.930 . S
H506 C519 0.929 . S
H507 C517 0.929 . S
H508 C512 0.935 . S
H509 C518 0.929 . S
C510 H504 0.930 . S
C510 C511 1.367 . S
C510 C518 1.378 1_554 S
C511 C510 1.367 . S
C511 C519 1.433 . S
C512 H508 0.935 . S
C512 C514 1.374 1_554 S
C512 C516 1.347 1_554 S
C513 C516 1.463 1_554 S
C513 C518 1.350 1_554 S
C513 N521 1.427 . S
C514 H505 0.930 . S
C514 C512 1.374 1_556 S
C514 C515 1.367 . S
C515 C514 1.367 . S
C515 C517 1.433 . S
C516 C512 1.347 1_556 S
C516 C513 1.463 1_556 S
C516 N520 1.427 . S
C517 H507 0.929 . S
C517 C515 1.433 . S
C517 N520 1.384 . S
C518 H509 0.929 . S
C518 C510 1.378 1_556 S
C518 C513 1.350 1_556 S
C519 H506 0.929 . S
C519 C511 1.433 . S
C519 N521 1.384 . S
N520 C516 1.427 . S
N520 C517 1.384 . S
N521 C513 1.427 . S
N521 C519 1.384 . S
H522 C528 0.930 . S
H523 C532 0.930 . S
H524 C537 0.929 . S
H525 C535 0.929 . S
H526 C530 0.929 . S
H527 C536 0.929 . S
C528 H522 0.930 . S
C528 C529 1.367 . S
C528 C536 1.378 . S
C529 C528 1.367 . S
C529 C537 1.433 . S
C530 H526 0.929 . S
C530 C532 1.378 . S
C530 C534 1.350 . S
C531 C534 1.463 1_554 S
C531 C536 1.350 . S
C531 N539 1.427 . S
C532 H523 0.930 . S
C532 C530 1.378 . S
C532 C533 1.367 . S
C533 C532 1.367 . S
C533 C535 1.433 . S
C534 C530 1.350 . S
C534 C531 1.463 1_556 S
C534 N538 1.427 . S
C535 H525 0.929 . S
C535 C533 1.433 . S
C535 N538 1.384 . S
C536 H527 0.929 . S
C536 C528 1.378 . S
C536 C531 1.350 . S
C537 H524 0.929 . S
C537 C529 1.433 . S
C537 N539 1.384 . S
N538 C534 1.427 . S
N538 C535 1.384 . S
N539 C531 1.427 . S
N539 C537 1.384 . S
H540 C546 0.930 . S
H541 C550 0.930 . S
H542 C555 0.929 . S
H543 C553 0.929 . S
H544 C548 0.929 . S
H545 C554 0.929 . S
C546 H540 0.930 . S
C546 C547 1.367 . S
C546 C554 1.378 . S
C547 C546 1.367 . S
C547 C555 1.433 1_655 S
C548 H544 0.929 . S
C548 C550 1.378 . S
C548 C552 1.350 1_455 S
C549 C552 1.463 . S
C549 C554 1.350 . S
C549 N557 1.427 1_655 S
C550 H541 0.930 . S
C550 C548 1.378 . S
C550 C551 1.367 1_455 S
C551 C550 1.367 1_655 S
C551 C553 1.433 . S
C552 C548 1.350 1_655 S
C552 C549 1.463 . S
C552 N556 1.427 . S
C553 H543 0.929 . S
C553 C551 1.433 . S
C553 N556 1.384 . S
C554 H545 0.929 . S
C554 C546 1.378 . S
C554 C549 1.350 . S
C555 H542 0.929 . S
C555 C547 1.433 1_455 S
C555 N557 1.384 . S
N556 C552 1.427 . S
N556 C553 1.384 . S
N557 C549 1.427 1_455 S
N557 C555 1.384 . S
H558 C564 0.930 . S
H559 C568 0.930 1_545 S
H560 C573 0.929 . S
H561 C571 0.929 . S
H562 C566 0.923 1_545 S
H563 C572 0.929 . S
C564 H558 0.930 . S
C564 C565 1.367 . S
C564 C572 1.378 . S
C565 C564 1.367 . S
C565 C573 1.433 1_565 S
C566 H562 0.923 1_565 S
C566 C568 1.379 . S
C566 C570 1.354 . S
C567 C570 1.463 . S
C567 C572 1.350 . S
C567 N575 1.427 1_565 S
C568 H559 0.930 1_565 S
C568 C566 1.379 . S
C568 C569 1.367 . S
C569 C568 1.367 . S
C569 C571 1.433 . S
C570 C566 1.354 . S
C570 C567 1.463 . S
C570 N574 1.427 . S
C571 H561 0.929 . S
C571 C569 1.433 . S
C571 N574 1.384 . S
C572 H563 0.929 . S
C572 C564 1.378 . S
C572 C567 1.350 . S
C573 H560 0.929 . S
C573 C565 1.433 1_545 S
C573 N575 1.384 . S
N574 C570 1.427 . S
N574 C571 1.384 . S
N575 C567 1.427 1_545 S
N575 C573 1.384 . S
H576 C582 0.930 . S
H577 C586 0.930 . S
H578 C591 0.929 . S
H579 C589 0.929 . S
H580 C584 0.929 . S
H581 C590 0.929 . S
C582 H576 0.930 . S
C582 C583 1.367 . S
C582 C590 1.378 . S
C583 C582 1.367 . S
C583 C591 1.433 . S
C584 H580 0.929 . S
C584 C586 1.378 . S
C584 C588 1.350 . S
C585 C588 1.463 . S
C585 C590 1.350 . S
C585 N593 1.427 . S
C586 H577 0.930 . S
C586 C584 1.378 . S
C586 C587 1.367 . S
C587 C586 1.367 . S
C587 C589 1.433 . S
C588 C584 1.350 . S
C588 C585 1.463 . S
C588 N592 1.427 . S
C589 H579 0.929 . S
C589 C587 1.433 . S
C589 N592 1.384 . S
C590 H581 0.929 . S
C590 C582 1.378 . S
C590 C585 1.350 . S
C591 H578 0.929 . S
C591 C583 1.433 . S
C591 N593 1.384 . S
N592 C588 1.427 . S
N592 C589 1.384 . S
N593 C585 1.427 . S
N593 C591 1.384 . S
H594 C600 0.930 . S
H595 C604 0.930 . S
H596 C609 0.929 . S
H597 C607 0.929 . S
H598 C602 0.929 . S
H599 C608 0.929 . S
C600 H594 0.930 . S
C600 C601 1.367 . S
C600 C608 1.378 . S
C601 C600 1.367 . S
C601 C609 1.433 . S
C602 H598 0.929 . S
C602 C604 1.378 . S
C602 C606 1.350 . S
C603 C606 1.463 . S
C603 C608 1.350 . S
C603 N611 1.427 . S
C604 H595 0.930 . S
C604 C602 1.378 . S
C604 C605 1.367 . S
C605 C604 1.367 . S
C605 C607 1.433 . S
C606 C602 1.350 . S
C606 C603 1.463 . S
C606 N610 1.427 . S
C607 H597 0.929 . S
C607 C605 1.433 . S
C607 N610 1.384 . S
C608 H599 0.929 . S
C608 C600 1.378 . S
C608 C603 1.350 . S
C609 H596 0.929 . S
C609 C601 1.433 . S
C609 N611 1.384 . S
N610 C606 1.427 . S
N610 C607 1.384 . S
N611 C603 1.427 . S
N611 C609 1.384 . S
C187 N70 1.550 . S
C191 C104 1.583 . S
C209 C127 1.619 . S
C205 N81 1.585 . S
C227 C150 1.631 . S
C223 N48 1.597 . S
C245 C177 1.499 . S
C241 N59 1.544 . S
C263 C105 1.558 . S
C259 N26 1.529 1_546 S
C277 N37 1.462 . S
C281 C128 1.497 . S
C295 N4 1.457 . S
C299 C151 1.486 . S
C313 N15 1.562 . S
C317 C176 1.582 1_455 S
C335 C106 0.407 . S
C331 C64 0.517 . S
C353 C129 0.420 . S
C349 C75 0.448 . S
C371 C152 0.441 . S
C367 C86 0.470 . S
C385 C53 0.606 . S
C389 C178 0.632 . S
C403 C20 0.708 . S
C407 C109 0.698 . S
C425 C132 0.691 . S
C421 C31 0.693 1_556 S
C443 C155 0.656 . S
C439 C42 0.624 . S
C457 C9 0.476 . S
C461 C175 0.402 . S
C475 C61 1.571 . S
C479 C107 1.545 . S
C493 C72 1.520 . S
C497 C130 1.521 . S
C515 C153 1.545 . S
C511 C83 1.551 . S
C533 C174 1.380 . S
C529 C50 1.338 . S
C547 C17 1.609 1_655 S
C551 C108 1.538 . S
C569 C131 1.484 . S
C565 C28 1.557 1_565 S
C587 C154 1.470 . S
C583 C39 1.537 . S
C601 C6 1.687 . S
C605 C173 1.724 . S
