# Generated by pormake.
# Topology anh, (6,3)-cn, num edge types: 1
# Building blocks:
#     Node 0, Type 0, BuildingBlock: VOLQOD_clean_sbu_1, # of connection points: 6
#     Node 1, Type 0, BuildingBlock: VOLQOD_clean_sbu_1, # of connection points: 6
#     Node 2, Type 0, BuildingBlock: VOLQOD_clean_sbu_1, # of connection points: 6
#     Node 3, Type 1, BuildingBlock: PAMTOO_clean_linker_0, # of connection points: 3
#     Node 4, Type 1, BuildingBlock: PAMTOO_clean_linker_0, # of connection points: 3
#     Node 5, Type 1, BuildingBlock: PAMTOO_clean_linker_0, # of connection points: 3
#     Node 6, Type 1, BuildingBlock: PAMTOO_clean_linker_0, # of connection points: 3
#     Node 7, Type 1, BuildingBlock: PAMTOO_clean_linker_0, # of connection points: 3
#     Node 8, Type 1, BuildingBlock: PAMTOO_clean_linker_0, # of connection points: 3
#     Edge 9, Type (0, 1), BuildingBlock: XIVTED_clean_linker_0, # of connection points: 2
#     Edge 10, Type (0, 1), BuildingBlock: XIVTED_clean_linker_0, # of connection points: 2
#     Edge 11, Type (0, 1), BuildingBlock: XIVTED_clean_linker_0, # of connection points: 2
#     Edge 12, Type (0, 1), BuildingBlock: XIVTED_clean_linker_0, # of connection points: 2
#     Edge 13, Type (0, 1), BuildingBlock: XIVTED_clean_linker_0, # of connection points: 2
#     Edge 14, Type (0, 1), BuildingBlock: XIVTED_clean_linker_0, # of connection points: 2
#     Edge 15, Type (0, 1), BuildingBlock: XIVTED_clean_linker_0, # of connection points: 2
#     Edge 16, Type (0, 1), BuildingBlock: XIVTED_clean_linker_0, # of connection points: 2
#     Edge 17, Type (0, 1), BuildingBlock: XIVTED_clean_linker_0, # of connection points: 2
#     Edge 18, Type (0, 1), BuildingBlock: XIVTED_clean_linker_0, # of connection points: 2
#     Edge 19, Type (0, 1), BuildingBlock: XIVTED_clean_linker_0, # of connection points: 2
#     Edge 20, Type (0, 1), BuildingBlock: XIVTED_clean_linker_0, # of connection points: 2
#     Edge 21, Type (0, 1), BuildingBlock: XIVTED_clean_linker_0, # of connection points: 2
#     Edge 22, Type (0, 1), BuildingBlock: XIVTED_clean_linker_0, # of connection points: 2
#     Edge 23, Type (0, 1), BuildingBlock: XIVTED_clean_linker_0, # of connection points: 2
#     Edge 24, Type (0, 1), BuildingBlock: XIVTED_clean_linker_0, # of connection points: 2
#     Edge 25, Type (0, 1), BuildingBlock: XIVTED_clean_linker_0, # of connection points: 2
#     Edge 26, Type (0, 1), BuildingBlock: XIVTED_clean_linker_0, # of connection points: 2
# Relax obj value: 0.159
# Max RMSD: 0.218
# Mean RMSD: 0.138
data_MOF--net-anh--node1-VOLQOD_clean_sbu_1--node2-PAMTOO_clean_linker_0--edge1-XIVTED_clean_linker_0
_symmetry_space_group_name_H-M    P1
_symmetry_Int_Tables_number       1
_symmetry_cell_setting            triclinic
loop_
_symmetry_equiv_pos_as_xyz
'x, y, z'
_cell_length_a     29.630664
_cell_length_b     29.68693
_cell_length_c     56.503448
_cell_angle_alpha  84.675232
_cell_angle_beta   92.883514
_cell_angle_gamma 120.2658
loop_
_atom_site_label
_atom_site_type_symbol
_atom_site_fract_x
_atom_site_fract_y
_atom_site_fract_z
_atom_type_partial_charge
O0 O 0.09817 0.60631 0.21924 0.0
Zn1 Zn 0.0987 0.62352 0.18363 0.0
O2 O 0.11094 0.57663 0.16627 0.0
Zn3 Zn 0.05387 0.5397 0.14467 0.0
Zn4 Zn 0.11508 0.52517 0.18863 0.0
Zn5 Zn 0.17442 0.61569 0.14752 0.0
O6 O 0.07857 0.54006 0.11231 0.0
O7 O 0.16028 0.60634 0.11227 0.0
O8 O 0.03147 0.62163 0.17251 0.0
O9 O 0.01117 0.5745 0.14114 0.0
O10 O 0.00556 0.46557 0.15727 0.0
O11 O 0.04838 0.45562 0.18878 0.0
O12 O 0.17657 0.51751 0.18146 0.0
O13 O 0.15822 0.69769 0.17774 0.0
O14 O 0.22301 0.58824 0.15697 0.0
O15 O 0.21069 0.69225 0.15282 0.0
C16 C 0.11196 0.577 0.23158 0.0
C17 C 0.12106 0.57154 0.10149 0.0
C18 C 0.00843 0.43788 0.17522 0.0
C19 C 0.00389 0.60321 0.15402 0.0
C20 C 0.21775 0.54784 0.16944 0.0
C21 C 0.19971 0.71902 0.16531 0.0
O22 O 0.12279 0.54664 0.22182 0.0
O23 O 0.5401 0.04961 0.4472 0.0
Zn24 Zn 0.52617 0.04729 0.48211 0.0
O25 O 0.57902 0.0422 0.50257 0.0
Zn26 Zn 0.61584 0.10354 0.52074 0.0
Zn27 Zn 0.6279 0.03757 0.48243 0.0
Zn28 Zn 0.54657 0.98073 0.52507 0.0
O29 O 0.61442 0.08518 0.55591 0.0
O30 O 0.55973 -0.00064 0.55902 0.0
O31 O 0.52053 0.11015 0.48819 0.0
O32 O 0.58075 0.14595 0.51623 0.0
O33 O 0.69054 0.14854 0.51011 0.0
O34 O 0.69821 0.10243 0.48336 0.0
O35 O 0.6356 0.97496 0.4925 0.0
O36 O 0.45621 0.98377 0.48891 0.0
O37 O 0.57915 0.93676 0.52237 0.0
O38 O 0.46903 0.93722 0.51881 0.0
C39 C 0.57181 0.04115 0.43665 0.0
C40 C 0.58894 0.04218 0.56845 0.0
C41 C 0.71747 0.14291 0.495 0.0
C42 C 0.54435 0.14486 0.50293 0.0
C43 C 0.61356 0.93884 0.50903 0.0
C44 C 0.43895 0.94366 0.50369 0.0
O45 O 0.60565 0.03357 0.44824 0.0
O46 O 0.55103 0.4471 0.77372 0.0
Zn47 Zn 0.53103 0.42463 0.80829 0.0
O48 O 0.58614 0.47341 0.8289 0.0
Zn49 Zn 0.56028 0.50944 0.84615 0.0
Zn50 Zn 0.64617 0.52566 0.80975 0.0
Zn51 Zn 0.60699 0.4342 0.85193 0.0
O52 O 0.56335 0.49587 0.88149 0.0
O53 O 0.59357 0.44078 0.88578 0.0
O54 O 0.46201 0.42085 0.8136 0.0
O55 O 0.4859 0.48484 0.83748 0.0
O56 O 0.5994 0.58682 0.83813 0.0
O57 O 0.65662 0.59789 0.8111 0.0
O58 O 0.71274 0.52694 0.8209 0.0
O59 O 0.52071 0.35203 0.81433 0.0
O60 O 0.68345 0.46104 0.849 0.0
O61 O 0.57073 0.35825 0.84587 0.0
C62 C 0.59359 0.48073 0.76337 0.0
C63 C 0.57672 0.46738 0.89468 0.0
C64 C 0.63574 0.61621 0.82346 0.0
C65 C 0.45156 0.44931 0.82515 0.0
C66 C 0.72051 0.49769 0.8365 0.0
C67 C 0.53856 0.33145 0.83008 0.0
O68 O 0.63364 0.51134 0.77517 0.0
H69 H 0.68276 0.13835 0.26372 0.0
H70 H 0.52033 0.03483 0.24886 0.0
H71 H 0.62397 0.12902 0.1918 0.0
H72 H 0.51152 0.10264 0.18047 0.0
C73 C 0.49493 0.07301 0.19585 0.0
O74 O 0.52934 0.05586 0.20287 0.0
H75 H 0.48819 0.09167 0.21047 0.0
C76 C 0.65093 0.12249 0.25104 0.0
C77 C 0.66039 0.13913 0.22672 0.0
C78 C 0.60049 0.0857 0.25931 0.0
C79 C 0.55929 0.06414 0.24292 0.0
C80 C 0.56833 0.07946 0.21866 0.0
C81 C 0.61837 0.11711 0.21062 0.0
H82 H 0.62773 0.62811 0.58956 0.0
H83 H 0.5733 0.46837 0.57617 0.0
H84 H 0.60138 0.58134 0.51775 0.0
H85 H 0.50873 0.47469 0.50674 0.0
C86 C 0.51509 0.45563 0.52343 0.0
O87 O 0.56695 0.48362 0.53007 0.0
H88 H 0.48896 0.45444 0.5373 0.0
C89 C 0.61761 0.59886 0.57707 0.0
C90 C 0.61709 0.61205 0.55248 0.0
C91 C 0.6026 0.54736 0.58588 0.0
C92 C 0.58557 0.50845 0.56983 0.0
C93 C 0.58452 0.52115 0.54542 0.0
C94 C 0.60137 0.57266 0.53679 0.0
H95 H 0.04599 0.55122 0.92384 0.0
H96 H 0.16286 0.50534 0.92522 0.0
H97 H 0.08037 0.50374 0.86053 0.0
H98 H 0.09666 0.42098 0.86514 0.0
C99 C 0.13269 0.43511 0.87621 0.0
O100 O 0.15229 0.48688 0.88027 0.0
H101 H 0.12301 0.411 0.89349 0.0
C102 C 0.06902 0.53927 0.91463 0.0
C103 C 0.05837 0.52835 0.89066 0.0
C104 C 0.10653 0.53088 0.92729 0.0
C105 C 0.13405 0.51234 0.91567 0.0
C106 C 0.12488 0.50329 0.89159 0.0
C107 C 0.08757 0.51171 0.8791 0.0
H108 H 0.03567 0.45629 0.40495 0.0
H109 H 0.13848 0.61724 0.41867 0.0
H110 H 0.0465 0.50698 0.47522 0.0
H111 H 0.06825 0.61041 0.48474 0.0
C112 C 0.09711 0.63218 0.47023 0.0
O113 O 0.11824 0.60275 0.46419 0.0
H114 H 0.07649 0.63996 0.45476 0.0
C115 C 0.05197 0.48664 0.41725 0.0
C116 C 0.03562 0.47454 0.44111 0.0
C117 C 0.0883 0.53804 0.40885 0.0
C118 C 0.10991 0.57747 0.42474 0.0
C119 C 0.09539 0.56548 0.44868 0.0
C120 C 0.05827 0.51454 0.45678 0.0
H121 H 0.64597 0.94637 0.73917 0.0
H122 H 0.59465 0.052 0.75603 0.0
H123 H 0.6011 0.94554 0.81056 0.0
H124 H 0.51583 0.96891 0.82133 0.0
C125 C 0.52646 -0.00225 0.80561 0.0
O126 O 0.57892 0.01941 0.80085 0.0
H127 H 0.50175 0.97657 0.7904 0.0
C128 C 0.63264 0.96197 0.75196 0.0
C129 C 0.62602 0.94131 0.77579 0.0
C130 C 0.62083 0.0014 0.74431 0.0
C131 C 0.60343 0.02117 0.76118 0.0
C132 C 0.5967 0.00093 0.78492 0.0
C133 C 0.60795 0.96135 0.7922 0.0
H134 H 0.67726 0.53063 0.06793 0.0
H135 H 0.51627 0.48645 0.07686 0.0
H136 H 0.62548 0.55286 0.13355 0.0
H137 H 0.52651 0.47437 0.15132 0.0
C138 C 0.50046 0.4749 0.13656 0.0
O139 O 0.52888 0.51577 0.11995 0.0
H140 H 0.48263 0.43713 0.12813 0.0
C141 C 0.64644 0.52719 0.07882 0.0
C142 C 0.65791 0.54383 0.102 0.0
C143 C 0.59565 0.5069 0.06939 0.0
C144 C 0.55578 0.50211 0.08367 0.0
C145 C 0.56677 0.51815 0.10678 0.0
C146 C 0.6176 0.53936 0.11583 0.0
H147 H 0.2101 0.45188 0.17779 0.0
H148 H 0.51326 0.5618 0.15557 0.0
H149 H 0.32103 0.61507 0.16032 0.0
H150 H 0.39441 0.40592 0.14013 0.0
H151 H 0.44501 0.57842 0.16769 0.0
H152 H 0.27989 0.43146 0.17389 0.0
C153 C 0.24923 0.48343 0.17343 0.0
C154 C 0.25984 0.53519 0.16916 0.0
C155 C 0.43397 0.54048 0.16181 0.0
C156 C 0.33937 0.5122 0.16498 0.0
C157 C 0.47273 0.53101 0.15495 0.0
C158 C 0.45911 0.4829 0.14639 0.0
C159 C 0.38135 0.50121 0.16047 0.0
C160 C 0.40627 0.44381 0.14629 0.0
C161 C 0.28883 0.47172 0.17113 0.0
C162 C 0.31111 0.57459 0.1635 0.0
N163 N 0.3691 0.45391 0.1531 0.0
N164 N 0.34902 0.56227 0.16158 0.0
H165 H 0.78396 0.22208 0.52249 0.0
H166 H 0.95078 0.40569 0.41567 0.0
H167 H 0.771 0.16321 0.45391 0.0
H168 H 0.02227 0.42107 0.48536 0.0
H169 H 0.87973 0.32035 0.42965 0.0
H170 H 0.86728 0.29953 0.51001 0.0
C171 C 0.79893 0.22518 0.50495 0.0
C172 C 0.77048 0.18641 0.48914 0.0
C173 C 0.91135 0.34232 0.44176 0.0
C174 C 0.86455 0.27474 0.47477 0.0
C175 C 0.95232 0.39106 0.43378 0.0
C176 C -0.00681 0.42111 0.44927 0.0
C177 C 0.9102 0.32383 0.46556 0.0
C178 C -0.00866 0.40011 0.47283 0.0
C179 C 0.84641 0.26913 0.49792 0.0
C180 C 0.79167 0.19216 0.46666 0.0
N181 N 0.95011 0.35302 0.48037 0.0
N182 N 0.83701 0.23602 0.45997 0.0
H183 H 0.62557 0.67821 0.85321 0.0
H184 H 0.60973 0.86029 0.74984 0.0
H185 H 0.67399 0.67834 0.7824 0.0
H186 H 0.66362 0.92075 0.81875 0.0
H187 H 0.62524 0.78868 0.76212 0.0
H188 H 0.63272 0.76347 0.84218 0.0
C189 C 0.63856 0.6966 0.83549 0.0
C190 C 0.64888 0.67113 0.81862 0.0
C191 C 0.6342 0.81804 0.77442 0.0
C192 C 0.65582 0.7674 0.80588 0.0
C193 C 0.62565 0.85931 0.76741 0.0
C194 C 0.6358 0.89741 0.78315 0.0
C195 C 0.65156 0.81366 0.79756 0.0
C196 C 0.65441 0.89212 0.80607 0.0
C197 C 0.64271 0.74515 0.82927 0.0
C198 C 0.66569 0.69665 0.79594 0.0
N199 N 0.66108 0.85061 0.8127 0.0
N200 N 0.66757 0.74295 0.79006 0.0
H201 H 0.97494 0.62224 0.1098 0.0
H202 H 0.68834 0.52802 0.14729 0.0
H203 H 0.93304 0.60257 0.18355 0.0
H204 H 0.75056 0.60928 0.0789 0.0
H205 H 0.77734 0.55732 0.16163 0.0
H206 H 0.8937 0.62064 0.09837 0.0
C207 C 0.94887 0.61852 0.12358 0.0
C208 C 0.96028 0.61224 0.1476 0.0
C209 C 0.77146 0.56932 0.1436 0.0
C210 C 0.86674 0.60898 0.13472 0.0
C211 C 0.72066 0.55267 0.13538 0.0
C212 C 0.7118 0.5654 0.11169 0.0
C213 C 0.81359 0.59831 0.12794 0.0
C214 C 0.75532 0.59713 0.09707 0.0
C215 C 0.90257 0.61767 0.11708 0.0
C216 C 0.92548 0.60765 0.16483 0.0
N217 N 0.80423 0.61185 0.10532 0.0
N218 N 0.87953 0.60499 0.15804 0.0
H219 H 0.36484 0.94233 0.47241 0.0
H220 H 0.14908 0.64785 0.51268 0.0
H221 H 0.38644 0.85057 0.53102 0.0
H222 H 0.1453 0.72924 0.44604 0.0
H223 H 0.22827 0.72735 0.5239 0.0
H224 H 0.27642 0.87017 0.46698 0.0
C225 C 0.35091 0.90721 0.48431 0.0
C226 C 0.38349 0.9023 0.50202 0.0
C227 C 0.20967 0.72805 0.50698 0.0
C228 C 0.28208 0.8194 0.49579 0.0
C229 C 0.16449 0.68293 0.50068 0.0
C230 C 0.14065 0.68251 0.47857 0.0
C231 C 0.23111 0.77284 0.49098 0.0
C232 C 0.16235 0.72836 0.46336 0.0
C233 C 0.30037 0.86597 0.48114 0.0
C234 C 0.36294 0.85593 0.51699 0.0
N235 N 0.20651 0.7717 0.46982 0.0
N236 N 0.31363 0.81607 0.51341 0.0
H237 H 0.55913 0.27069 0.86318 0.0
H238 H 0.49257 0.05134 0.77467 0.0
H239 H 0.48876 0.26735 0.79407 0.0
H240 H 0.54103 0.04319 0.84736 0.0
H241 H 0.48585 0.12778 0.78209 0.0
H242 H 0.54724 0.18446 0.8587 0.0
C243 C 0.54068 0.25162 0.84715 0.0
C244 C 0.52542 0.27659 0.82886 0.0
C245 C 0.49716 0.10884 0.79655 0.0
C246 C 0.51216 0.17793 0.82352 0.0
C247 C 0.50085 0.06525 0.79231 0.0
C248 C 0.51653 0.04075 0.81057 0.0
C249 C 0.51025 0.12856 0.81909 0.0
C250 C 0.52809 0.06076 0.83296 0.0
C251 C 0.53387 0.20231 0.84461 0.0
C252 C 0.50134 0.24972 0.80858 0.0
N253 N 0.525 0.10372 0.83658 0.0
N254 N 0.49603 0.2021 0.80633 0.0
H255 H 0.62677 0.88481 0.4761 0.0
H256 H 0.68716 0.70618 0.57059 0.0
H257 H 0.63223 0.90078 0.55144 0.0
H258 H 0.57541 0.64138 0.51349 0.0
H259 H 0.69773 0.7921 0.55816 0.0
H260 H 0.63954 0.80899 0.48443 0.0
C261 C 0.63177 0.87294 0.4943 0.0
C262 C 0.62793 0.89822 0.51318 0.0
C263 C 0.6717 0.75891 0.54823 0.0
C264 C 0.64366 0.81358 0.52264 0.0
C265 C 0.66509 0.70974 0.55541 0.0
C266 C 0.62955 0.66579 0.5434 0.0
C267 C 0.64373 0.76444 0.52856 0.0
C268 C 0.60366 0.67371 0.52326 0.0
C269 C 0.63889 0.82993 0.49901 0.0
C270 C 0.6344 0.88162 0.53649 0.0
N271 N 0.61114 0.72205 0.51654 0.0
N272 N 0.64198 0.84018 0.5406 0.0
H273 H 0.81411 0.59004 0.83342 0.0
H274 H 0.98223 0.45141 0.86579 0.0
H275 H 0.7468 0.42351 0.84889 0.0
H276 H 0.0308 0.60435 0.88839 0.0
H277 H 0.90279 0.44707 0.84888 0.0
H278 H 0.90101 0.60159 0.84363 0.0
C279 C 0.81779 0.55599 0.83865 0.0
C280 C 0.77347 0.50579 0.84049 0.0
C281 C 0.93112 0.4818 0.85732 0.0
C282 C 0.87176 0.51859 0.8517 0.0
C283 C 0.97655 0.48448 0.86682 0.0
C284 C 0.01297 0.5283 0.87852 0.0
C285 C 0.92222 0.5234 0.85931 0.0
C286 C 0.00335 0.56976 0.87964 0.0
C287 C 0.86708 0.56263 0.84456 0.0
C288 C 0.78002 0.46289 0.84746 0.0
N289 N 0.95869 0.56633 0.87015 0.0
N290 N 0.82829 0.47025 0.85274 0.0
H291 H 0.28509 0.78151 0.13713 0.0
H292 H 0.40485 0.01502 0.22187 0.0
H293 H 0.20131 0.78504 0.19665 0.0
H294 H 0.4726 0.02452 0.15458 0.0
H295 H 0.32782 0.93246 0.21214 0.0
H296 H 0.35214 0.87203 0.1422 0.0
C297 C 0.28054 0.80143 0.15115 0.0
C298 C 0.2377 0.77541 0.16663 0.0
C299 C 0.35908 0.95299 0.1993 0.0
C300 C 0.31465 0.87905 0.17264 0.0
C301 C 0.40286 0.00011 0.20483 0.0
C302 C 0.44451 0.02669 0.1888 0.0
C303 C 0.35756 0.93187 0.17782 0.0
C304 C 0.44081 0.00533 0.16721 0.0
C305 C 0.31882 0.8532 0.154 0.0
C306 C 0.23373 0.80342 0.18435 0.0
N307 N 0.39825 0.95892 0.16241 0.0
N308 N 0.27204 0.85352 0.18705 0.0
H309 H 0.49906 0.18338 0.46961 0.0
H310 H 0.49756 0.37825 0.55775 0.0
H311 H 0.55382 0.19481 0.54226 0.0
H312 H 0.50709 0.41126 0.48168 0.0
H313 H 0.49313 0.29502 0.5528 0.0
H314 H 0.47873 0.25281 0.4744 0.0
C315 C 0.5063 0.20014 0.48658 0.0
C316 C 0.5288 0.18405 0.50547 0.0
C317 C 0.49524 0.32005 0.53717 0.0
C318 C 0.50492 0.26199 0.51114 0.0
C319 C 0.4974 0.36716 0.53999 0.0
C320 C 0.50236 0.40108 0.52008 0.0
C321 C 0.49829 0.30704 0.51427 0.0
C322 C 0.50289 0.38572 0.49741 0.0
C323 C 0.49479 0.23961 0.48927 0.0
C324 C 0.53731 0.20675 0.52713 0.0
N325 N 0.50122 0.33976 0.49509 0.0
N326 N 0.52539 0.24459 0.52936 0.0
H327 H 0.35979 0.35655 0.83162 0.0
H328 H 0.19202 0.49756 0.83817 0.0
H329 H 0.42332 0.52316 0.81964 0.0
H330 H 0.16222 0.36055 0.88366 0.0
H331 H 0.2636 0.49505 0.81958 0.0
H332 H 0.27374 0.34625 0.83918 0.0
C333 C 0.35516 0.39065 0.82997 0.0
C334 C 0.3983 0.44077 0.8252 0.0
C335 C 0.24099 0.46528 0.83347 0.0
C336 C 0.30111 0.42937 0.83349 0.0
C337 C 0.20045 0.46679 0.84411 0.0
C338 C 0.17275 0.43038 0.86305 0.0
C339 C 0.25302 0.42638 0.84147 0.0
C340 C 0.18381 0.39018 0.86956 0.0
C341 C 0.30642 0.38482 0.83441 0.0
C342 C 0.39084 0.48394 0.82346 0.0
N343 N 0.22362 0.38952 0.85894 0.0
N344 N 0.34314 0.47728 0.82767 0.0
H345 H 0.98354 0.38587 0.21927 0.0
H346 H 0.70817 0.14874 0.18424 0.0
H347 H 0.92679 0.37462 0.14693 0.0
H348 H 0.73536 0.22285 0.24996 0.0
H349 H 0.79548 0.21709 0.17097 0.0
H350 H 0.90028 0.30894 0.23156 0.0
C351 C 0.95401 0.36663 0.20589 0.0
C352 C 0.96192 0.38688 0.18205 0.0
C353 C 0.78208 0.21783 0.18834 0.0
C354 C 0.86694 0.29901 0.19604 0.0
C355 C 0.73211 0.17917 0.19591 0.0
C356 C 0.71385 0.17963 0.21836 0.0
C357 C 0.81447 0.25653 0.2035 0.0
C358 C 0.74765 0.2197 0.23279 0.0
C359 C 0.90645 0.32305 0.21296 0.0
C360 C 0.92208 0.36048 0.16551 0.0
N361 N 0.7963 0.25627 0.22516 0.0
N362 N 0.87612 0.31783 0.17282 0.0
H363 H 0.18064 0.64916 0.06756 0.0
H364 H 0.09942 0.45977 0.96314 0.0
H365 H 0.06877 0.48404 0.07728 0.0
H366 H 0.13074 0.61827 0.9496 0.0
H367 H 0.10731 0.4706 0.00595 0.0
H368 H 0.18144 0.64078 0.02469 0.0
C369 C 0.15667 0.61116 0.0607 0.0
C370 C 0.12437 0.56726 0.0759 0.0
C371 C 0.11276 0.50305 0.99357 0.0
C372 C 0.1258 0.55741 0.02731 0.0
C373 C 0.10855 0.49701 0.96924 0.0
C374 C 0.11436 0.5382 0.95298 0.0
C375 C 0.12385 0.55093 0.00161 0.0
C376 C 0.12574 0.58558 0.96169 0.0
C377 C 0.15697 0.60651 0.03632 0.0
C378 C 0.09388 0.51893 0.06613 0.0
N379 N 0.13038 0.59082 0.98549 0.0
N380 N 0.09556 0.51522 0.04246 0.0
H381 H 0.50599 0.05611 0.40499 0.0
H382 H 0.65819 0.06019 0.29113 0.0
H383 H 0.63512 0.02696 0.40834 0.0
H384 H 0.52209 0.07787 0.28623 0.0
H385 H 0.64734 0.0439 0.33417 0.0
H386 H 0.50828 0.06048 0.36156 0.0
C387 C 0.53465 0.05039 0.39664 0.0
C388 C 0.57065 0.0415 0.41039 0.0
C389 C 0.61957 0.05099 0.32372 0.0
C390 C 0.57347 0.04652 0.36071 0.0
C391 C 0.62589 0.06046 0.29915 0.0
C392 C 0.59126 0.07085 0.28514 0.0
C393 C 0.57853 0.05227 0.33445 0.0
C394 C 0.54956 0.06985 0.2964 0.0
C395 C 0.53588 0.05283 0.37184 0.0
C396 C 0.60674 0.03418 0.39854 0.0
N397 N 0.54461 0.06123 0.32044 0.0
N398 N 0.60739 0.03713 0.37444 0.0
H399 H 0.51784 0.42123 0.73166 0.0
H400 H 0.67922 0.60259 0.61775 0.0
H401 H 0.67489 0.55263 0.73495 0.0
H402 H 0.52848 0.46299 0.61313 0.0
H403 H 0.67866 0.58364 0.66075 0.0
H404 H 0.5214 0.43429 0.68828 0.0
C405 C 0.55317 0.45266 0.7233 0.0
C406 C 0.59604 0.48603 0.73705 0.0
C407 C 0.64577 0.55696 0.65036 0.0
C408 C 0.60023 0.50129 0.68735 0.0
C409 C 0.64597 0.56792 0.62581 0.0
C410 C 0.60369 0.5345 0.61185 0.0
C411 C 0.60281 0.51237 0.66113 0.0
C412 C 0.56203 0.48965 0.6232 0.0
C413 C 0.55516 0.46006 0.69851 0.0
C414 C 0.64081 0.52597 0.72515 0.0
N415 N 0.56246 0.48008 0.6472 0.0
N416 N 0.64159 0.53263 0.70104 0.0
H417 H 0.59257 0.11201 0.59788 0.0
H418 H 0.69053 0.01153 0.71076 0.0
H419 H 0.60088 0.97111 0.5977 0.0
H420 H 0.55712 0.03118 0.71859 0.0
H421 H 0.68421 0.02492 0.66771 0.0
H422 H 0.60432 0.10947 0.64146 0.0
C423 C 0.59707 0.08078 0.60704 0.0
C424 C 0.59543 0.04146 0.59441 0.0
C425 C 0.65689 0.02686 0.67903 0.0
C426 C 0.61056 0.03956 0.64345 0.0
C427 C 0.66004 0.01882 0.70359 0.0
C428 C 0.62338 0.01871 0.71852 0.0
C429 C 0.61803 0.03664 0.66932 0.0
C430 C 0.58635 0.03091 0.70798 0.0
C431 C 0.60365 0.07938 0.63171 0.0
C432 C 0.60143 0.00178 0.60693 0.0
N433 N 0.5845 0.03925 0.68396 0.0
N434 N 0.60937 0.00215 0.63079 0.0
H435 H 0.61149 0.42033 0.92913 0.0
H436 H 0.53804 0.5299 0.03634 0.0
H437 H 0.53548 0.51247 0.91992 0.0
H438 H 0.63016 0.45402 0.04518 0.0
H439 H 0.5276 0.51432 0.99421 0.0
H440 H 0.61031 0.42361 0.97217 0.0
C441 C 0.59428 0.44099 0.93613 0.0
C442 C 0.5739 0.46649 0.92083 0.0
C443 C 0.54985 0.50078 0.00538 0.0
C444 C 0.57241 0.47034 0.97009 0.0
C445 C 0.55548 0.50931 0.02948 0.0
C446 C 0.58527 0.4935 0.04428 0.0
C447 C 0.57412 0.47619 0.99595 0.0
C448 C 0.60754 0.46758 0.03433 0.0
C449 C 0.59369 0.4429 0.96071 0.0
C450 C 0.552 0.49255 0.93097 0.0
N451 N 0.60171 0.45994 0.01077 0.0
N452 N 0.55201 0.49393 0.95492 0.0
H453 H 0.09402 0.63712 0.25983 0.0
H454 H 0.1151 0.48559 0.38053 0.0
H455 H 0.13612 0.51693 0.26331 0.0
H456 H 0.09074 0.61733 0.37897 0.0
H457 H 0.12664 0.49951 0.33749 0.0
H458 H 0.09558 0.63323 0.30332 0.0
C459 C 0.10377 0.61008 0.26969 0.0
C460 C 0.11459 0.57705 0.25784 0.0
C461 C 0.11923 0.52574 0.34652 0.0
C462 C 0.11644 0.57244 0.30759 0.0
C463 C 0.11256 0.51771 0.37108 0.0
C464 C 0.1016 0.55013 0.38325 0.0
C465 C 0.11437 0.5662 0.33393 0.0
C466 C 0.09935 0.59159 0.37023 0.0
C467 C 0.10478 0.60798 0.29452 0.0
C468 C 0.12723 0.54298 0.27159 0.0
N469 N 0.1051 0.59812 0.34621 0.0
N470 N 0.1275 0.54139 0.29567 0.0
loop_
_geom_bond_atom_site_label_1
_geom_bond_atom_site_label_2
_geom_bond_distance
_geom_bond_site_symmetry_2
_ccdc_geom_bond_type
O0 Zn1 1.953 . S
O0 C16 1.225 . S
Zn1 O0 1.953 . S
Zn1 O2 1.949 . S
Zn1 O8 1.919 1_455 S
Zn1 O13 1.924 . S
O2 Zn1 1.949 . S
O2 Zn3 1.923 1_455 S
O2 Zn4 1.950 . S
O2 Zn5 1.945 . S
Zn3 O2 1.923 1_655 S
Zn3 O6 1.931 1_655 S
Zn3 O9 1.941 . S
Zn3 O10 1.965 . S
Zn4 O2 1.950 . S
Zn4 O11 1.938 1_455 S
Zn4 O12 1.906 . S
Zn4 O22 1.953 . S
Zn5 O2 1.945 . S
Zn5 O7 1.932 . S
Zn5 O14 1.977 . S
Zn5 O15 1.910 . S
O6 Zn3 1.931 1_455 S
O6 C17 1.233 . S
O7 Zn5 1.932 . S
O7 C17 1.307 . S
O8 Zn1 1.919 1_655 S
O8 C19 1.253 . S
O9 Zn3 1.941 . S
O9 C19 1.283 . S
O10 Zn3 1.965 . S
O10 C18 1.303 . S
O11 Zn4 1.938 1_655 S
O11 C18 1.247 . S
O12 Zn4 1.906 . S
O12 C20 1.304 . S
O13 Zn1 1.924 . S
O13 C21 1.311 . S
O14 Zn5 1.977 . S
O14 C20 1.272 . S
O15 Zn5 1.910 . S
O15 C21 1.231 . S
C16 O0 1.225 . S
C16 O22 1.298 . S
C17 O6 1.233 . S
C17 O7 1.307 . S
C18 O10 1.303 . S
C18 O11 1.247 . S
C19 O8 1.253 . S
C19 O9 1.283 . S
C20 O12 1.304 . S
C20 O14 1.272 . S
C21 O13 1.311 . S
C21 O15 1.231 . S
O22 Zn4 1.953 . S
O22 C16 1.298 . S
O23 Zn24 1.953 . S
O23 C39 1.225 . S
Zn24 O23 1.953 . S
Zn24 O25 1.949 . S
Zn24 O31 1.919 . S
Zn24 O36 1.924 1_545 S
O25 Zn24 1.949 . S
O25 Zn26 1.923 . S
O25 Zn27 1.950 . S
O25 Zn28 1.945 1_545 S
Zn26 O25 1.923 . S
Zn26 O29 1.933 . S
Zn26 O32 1.941 . S
Zn26 O33 1.965 . S
Zn27 O25 1.950 . S
Zn27 O34 1.938 . S
Zn27 O35 1.906 1_545 S
Zn27 O45 1.953 . S
Zn28 O25 1.945 1_565 S
Zn28 O30 1.932 . S
Zn28 O37 1.977 . S
Zn28 O38 1.910 . S
O29 Zn26 1.933 . S
O29 C40 1.226 . S
O30 Zn28 1.932 . S
O30 C40 1.307 1_565 S
O31 Zn24 1.919 . S
O31 C42 1.253 . S
O32 Zn26 1.941 . S
O32 C42 1.283 . S
O33 Zn26 1.965 . S
O33 C41 1.303 . S
O34 Zn27 1.938 . S
O34 C41 1.247 . S
O35 Zn27 1.906 1_565 S
O35 C43 1.304 . S
O36 Zn24 1.924 1_565 S
O36 C44 1.311 . S
O37 Zn28 1.977 . S
O37 C43 1.272 . S
O38 Zn28 1.910 . S
O38 C44 1.231 . S
C39 O23 1.225 . S
C39 O45 1.298 . S
C40 O29 1.226 . S
C40 O30 1.307 1_545 S
C41 O33 1.303 . S
C41 O34 1.247 . S
C42 O31 1.253 . S
C42 O32 1.283 . S
C43 O35 1.304 . S
C43 O37 1.272 . S
C44 O36 1.311 . S
C44 O38 1.231 . S
O45 Zn27 1.953 . S
O45 C39 1.298 . S
O46 Zn47 1.953 . S
O46 C62 1.225 . S
Zn47 O46 1.953 . S
Zn47 O48 1.949 . S
Zn47 O54 1.919 . S
Zn47 O59 1.924 . S
O48 Zn47 1.949 . S
O48 Zn49 1.923 . S
O48 Zn50 1.950 . S
O48 Zn51 1.945 . S
Zn49 O48 1.923 . S
Zn49 O52 1.933 . S
Zn49 O55 1.941 . S
Zn49 O56 1.965 . S
Zn50 O48 1.950 . S
Zn50 O57 1.938 . S
Zn50 O58 1.906 . S
Zn50 O68 1.953 . S
Zn51 O48 1.945 . S
Zn51 O53 1.932 . S
Zn51 O60 1.977 . S
Zn51 O61 1.910 . S
O52 Zn49 1.933 . S
O52 C63 1.226 . S
O53 Zn51 1.932 . S
O53 C63 1.307 . S
O54 Zn47 1.919 . S
O54 C65 1.253 . S
O55 Zn49 1.941 . S
O55 C65 1.283 . S
O56 Zn49 1.965 . S
O56 C64 1.303 . S
O57 Zn50 1.938 . S
O57 C64 1.247 . S
O58 Zn50 1.906 . S
O58 C66 1.304 . S
O59 Zn47 1.924 . S
O59 C67 1.311 . S
O60 Zn51 1.977 . S
O60 C66 1.272 . S
O61 Zn51 1.910 . S
O61 C67 1.231 . S
C62 O46 1.225 . S
C62 O68 1.298 . S
C63 O52 1.226 . S
C63 O53 1.307 . S
C64 O56 1.303 . S
C64 O57 1.247 . S
C65 O54 1.253 . S
C65 O55 1.283 . S
C66 O58 1.304 . S
C66 O60 1.272 . S
C67 O59 1.311 . S
C67 O61 1.231 . S
O68 Zn50 1.953 . S
O68 C62 1.298 . S
H69 C76 0.929 . S
H70 C79 0.930 1_565 S
H71 C81 0.929 . S
H72 C73 0.969 . S
C73 H72 0.969 . S
C73 O74 1.550 . S
C73 H75 0.973 . S
O74 C73 1.550 . S
O74 C80 1.412 1_565 S
H75 C73 0.973 . S
C76 H69 0.929 . S
C76 C77 1.400 . S
C76 C78 1.364 . S
C77 C76 1.400 . S
C77 C81 1.377 . S
C78 C76 1.364 . S
C78 C79 1.374 . S
C79 H70 0.930 1_545 S
C79 C78 1.374 . S
C79 C80 1.383 . S
C80 O74 1.412 1_545 S
C80 C79 1.383 . S
C80 C81 1.394 . S
C81 H71 0.929 . S
C81 C77 1.377 . S
C81 C80 1.394 . S
H82 C89 0.929 . S
H83 C92 0.930 . S
H84 C94 0.929 . S
H85 C86 0.969 . S
C86 H85 0.969 . S
C86 O87 1.550 . S
C86 H88 0.973 . S
O87 C86 1.550 . S
O87 C93 1.412 . S
H88 C86 0.973 . S
C89 H82 0.929 . S
C89 C90 1.400 . S
C89 C91 1.364 . S
C90 C89 1.400 . S
C90 C94 1.377 . S
C91 C89 1.364 . S
C91 C92 1.374 . S
C92 H83 0.930 . S
C92 C91 1.374 . S
C92 C93 1.383 . S
C93 O87 1.412 . S
C93 C92 1.383 . S
C93 C94 1.394 . S
C94 H84 0.929 . S
C94 C90 1.377 . S
C94 C93 1.394 . S
H95 C102 0.929 . S
H96 C105 0.930 . S
H97 C107 0.929 . S
H98 C99 0.969 . S
C99 H98 0.969 . S
C99 O100 1.550 . S
C99 H101 0.973 . S
O100 C99 1.550 . S
O100 C106 1.412 . S
H101 C99 0.973 . S
C102 H95 0.929 . S
C102 C103 1.400 . S
C102 C104 1.364 . S
C103 C102 1.400 . S
C103 C107 1.377 . S
C104 C102 1.364 . S
C104 C105 1.374 . S
C105 H96 0.930 . S
C105 C104 1.374 . S
C105 C106 1.383 . S
C106 O100 1.412 . S
C106 C105 1.383 . S
C106 C107 1.394 . S
C107 H97 0.929 . S
C107 C103 1.377 . S
C107 C106 1.394 . S
H108 C115 0.929 . S
H109 C118 0.930 . S
H110 C120 0.929 . S
H111 C112 0.969 . S
C112 H111 0.969 . S
C112 O113 1.550 . S
C112 H114 0.973 . S
O113 C112 1.550 . S
O113 C119 1.412 . S
H114 C112 0.973 . S
C115 H108 0.929 . S
C115 C116 1.400 . S
C115 C117 1.364 . S
C116 C115 1.400 . S
C116 C120 1.377 . S
C117 C115 1.364 . S
C117 C118 1.374 . S
C118 H109 0.930 . S
C118 C117 1.374 . S
C118 C119 1.383 . S
C119 O113 1.412 . S
C119 C118 1.383 . S
C119 C120 1.394 . S
C120 H110 0.929 . S
C120 C116 1.377 . S
C120 C119 1.394 . S
H121 C128 0.929 . S
H122 C131 0.930 . S
H123 C133 0.929 . S
H124 C125 0.969 . S
C125 H124 0.969 . S
C125 O126 1.550 . S
C125 H127 0.973 . S
O126 C125 1.550 . S
O126 C132 1.412 . S
H127 C125 0.973 . S
C128 H121 0.929 . S
C128 C129 1.400 . S
C128 C130 1.364 1_565 S
C129 C128 1.400 . S
C129 C133 1.377 1_565 S
C130 C128 1.364 1_545 S
C130 C131 1.374 . S
C131 H122 0.930 . S
C131 C130 1.374 . S
C131 C132 1.383 . S
C132 O126 1.412 . S
C132 C131 1.383 . S
C132 C133 1.394 . S
C133 H123 0.929 . S
C133 C129 1.377 1_545 S
C133 C132 1.394 . S
H134 C141 0.929 . S
H135 C144 0.930 . S
H136 C146 0.929 . S
H137 C138 0.969 . S
C138 H137 0.969 . S
C138 O139 1.550 . S
C138 H140 0.973 . S
O139 C138 1.550 . S
O139 C145 1.412 . S
H140 C138 0.973 . S
C141 H134 0.929 . S
C141 C142 1.400 . S
C141 C143 1.364 . S
C142 C141 1.400 . S
C142 C146 1.377 . S
C143 C141 1.364 . S
C143 C144 1.374 . S
C144 H135 0.930 . S
C144 C143 1.374 . S
C144 C145 1.383 . S
C145 O139 1.412 . S
C145 C144 1.383 . S
C145 C146 1.394 . S
C146 H136 0.929 . S
C146 C142 1.377 . S
C146 C145 1.394 . S
H147 C153 0.930 . S
H148 C157 0.930 . S
H149 C162 0.929 . S
H150 C160 0.929 . S
H151 C155 0.929 . S
H152 C161 0.929 . S
C153 H147 0.930 . S
C153 C154 1.367 . S
C153 C161 1.378 . S
C154 C153 1.367 . S
C154 C162 1.433 . S
C155 H151 0.929 . S
C155 C157 1.378 . S
C155 C159 1.350 . S
C156 C159 1.463 . S
C156 C161 1.350 . S
C156 N164 1.427 . S
C157 H148 0.930 . S
C157 C155 1.378 . S
C157 C158 1.367 . S
C158 C157 1.367 . S
C158 C160 1.433 . S
C159 C155 1.350 . S
C159 C156 1.463 . S
C159 N163 1.427 . S
C160 H150 0.929 . S
C160 C158 1.433 . S
C160 N163 1.384 . S
C161 H152 0.929 . S
C161 C153 1.378 . S
C161 C156 1.350 . S
C162 H149 0.929 . S
C162 C154 1.433 . S
C162 N164 1.384 . S
N163 C159 1.427 . S
N163 C160 1.384 . S
N164 C156 1.427 . S
N164 C162 1.384 . S
H165 C171 0.930 . S
H166 C175 0.930 . S
H167 C180 0.929 . S
H168 C178 0.929 . S
H169 C173 0.929 . S
H170 C179 0.929 . S
C171 H165 0.930 . S
C171 C172 1.367 . S
C171 C179 1.378 . S
C172 C171 1.367 . S
C172 C180 1.433 . S
C173 H169 0.929 . S
C173 C175 1.378 . S
C173 C177 1.350 . S
C174 C177 1.463 . S
C174 C179 1.350 . S
C174 N182 1.427 . S
C175 H166 0.930 . S
C175 C173 1.378 . S
C175 C176 1.367 . S
C176 C175 1.367 . S
C176 C178 1.433 1_655 S
C177 C173 1.350 . S
C177 C174 1.463 . S
C177 N181 1.427 . S
C178 H168 0.929 . S
C178 C176 1.433 1_455 S
C178 N181 1.384 1_455 S
C179 H170 0.929 . S
C179 C171 1.378 . S
C179 C174 1.350 . S
C180 H167 0.929 . S
C180 C172 1.433 . S
C180 N182 1.384 . S
N181 C177 1.427 . S
N181 C178 1.384 1_655 S
N182 C174 1.427 . S
N182 C180 1.384 . S
H183 C189 0.930 . S
H184 C193 0.930 . S
H185 C198 0.929 . S
H186 C196 0.929 . S
H187 C191 0.929 . S
H188 C197 0.929 . S
C189 H183 0.930 . S
C189 C190 1.367 . S
C189 C197 1.378 . S
C190 C189 1.367 . S
C190 C198 1.433 . S
C191 H187 0.929 . S
C191 C193 1.378 . S
C191 C195 1.350 . S
C192 C195 1.463 . S
C192 C197 1.350 . S
C192 N200 1.427 . S
C193 H184 0.930 . S
C193 C191 1.378 . S
C193 C194 1.367 . S
C194 C193 1.367 . S
C194 C196 1.433 . S
C195 C191 1.350 . S
C195 C192 1.463 . S
C195 N199 1.427 . S
C196 H186 0.929 . S
C196 C194 1.433 . S
C196 N199 1.384 . S
C197 H188 0.929 . S
C197 C189 1.378 . S
C197 C192 1.350 . S
C198 H185 0.929 . S
C198 C190 1.433 . S
C198 N200 1.384 . S
N199 C195 1.427 . S
N199 C196 1.384 . S
N200 C192 1.427 . S
N200 C198 1.384 . S
H201 C207 0.930 . S
H202 C211 0.930 . S
H203 C216 0.929 . S
H204 C214 0.929 . S
H205 C209 0.929 . S
H206 C215 0.929 . S
C207 H201 0.930 . S
C207 C208 1.367 . S
C207 C215 1.378 . S
C208 C207 1.367 . S
C208 C216 1.433 . S
C209 H205 0.929 . S
C209 C211 1.378 . S
C209 C213 1.350 . S
C210 C213 1.463 . S
C210 C215 1.350 . S
C210 N218 1.427 . S
C211 H202 0.930 . S
C211 C209 1.378 . S
C211 C212 1.367 . S
C212 C211 1.367 . S
C212 C214 1.433 . S
C213 C209 1.350 . S
C213 C210 1.463 . S
C213 N217 1.427 . S
C214 H204 0.929 . S
C214 C212 1.433 . S
C214 N217 1.384 . S
C215 H206 0.929 . S
C215 C207 1.378 . S
C215 C210 1.350 . S
C216 H203 0.929 . S
C216 C208 1.433 . S
C216 N218 1.384 . S
N217 C213 1.427 . S
N217 C214 1.384 . S
N218 C210 1.427 . S
N218 C216 1.384 . S
H219 C225 0.930 . S
H220 C229 0.930 . S
H221 C234 0.929 . S
H222 C232 0.929 . S
H223 C227 0.929 . S
H224 C233 0.929 . S
C225 H219 0.930 . S
C225 C226 1.367 . S
C225 C233 1.378 . S
C226 C225 1.367 . S
C226 C234 1.433 . S
C227 H223 0.929 . S
C227 C229 1.378 . S
C227 C231 1.350 . S
C228 C231 1.463 . S
C228 C233 1.350 . S
C228 N236 1.427 . S
C229 H220 0.930 . S
C229 C227 1.378 . S
C229 C230 1.367 . S
C230 C229 1.367 . S
C230 C232 1.433 . S
C231 C227 1.350 . S
C231 C228 1.463 . S
C231 N235 1.427 . S
C232 H222 0.929 . S
C232 C230 1.433 . S
C232 N235 1.384 . S
C233 H224 0.929 . S
C233 C225 1.378 . S
C233 C228 1.350 . S
C234 H221 0.929 . S
C234 C226 1.433 . S
C234 N236 1.384 . S
N235 C231 1.427 . S
N235 C232 1.384 . S
N236 C228 1.427 . S
N236 C234 1.384 . S
H237 C243 0.930 . S
H238 C247 0.930 . S
H239 C252 0.929 . S
H240 C250 0.929 . S
H241 C245 0.929 . S
H242 C251 0.929 . S
C243 H237 0.930 . S
C243 C244 1.367 . S
C243 C251 1.378 . S
C244 C243 1.367 . S
C244 C252 1.433 . S
C245 H241 0.929 . S
C245 C247 1.378 . S
C245 C249 1.350 . S
C246 C249 1.463 . S
C246 C251 1.350 . S
C246 N254 1.427 . S
C247 H238 0.930 . S
C247 C245 1.378 . S
C247 C248 1.367 . S
C248 C247 1.367 . S
C248 C250 1.433 . S
C249 C245 1.350 . S
C249 C246 1.463 . S
C249 N253 1.427 . S
C250 H240 0.929 . S
C250 C248 1.433 . S
C250 N253 1.384 . S
C251 H242 0.929 . S
C251 C243 1.378 . S
C251 C246 1.350 . S
C252 H239 0.929 . S
C252 C244 1.433 . S
C252 N254 1.384 . S
N253 C249 1.427 . S
N253 C250 1.384 . S
N254 C246 1.427 . S
N254 C252 1.384 . S
H255 C261 0.930 . S
H256 C265 0.930 . S
H257 C270 0.929 . S
H258 C268 0.929 . S
H259 C263 0.929 . S
H260 C269 0.929 . S
C261 H255 0.930 . S
C261 C262 1.367 . S
C261 C269 1.378 . S
C262 C261 1.367 . S
C262 C270 1.433 . S
C263 H259 0.929 . S
C263 C265 1.378 . S
C263 C267 1.350 . S
C264 C267 1.463 . S
C264 C269 1.350 . S
C264 N272 1.427 . S
C265 H256 0.930 . S
C265 C263 1.378 . S
C265 C266 1.367 . S
C266 C265 1.367 . S
C266 C268 1.433 . S
C267 C263 1.350 . S
C267 C264 1.463 . S
C267 N271 1.427 . S
C268 H258 0.929 . S
C268 C266 1.433 . S
C268 N271 1.384 . S
C269 H260 0.929 . S
C269 C261 1.378 . S
C269 C264 1.350 . S
C270 H257 0.929 . S
C270 C262 1.433 . S
C270 N272 1.384 . S
N271 C267 1.427 . S
N271 C268 1.384 . S
N272 C264 1.427 . S
N272 C270 1.384 . S
H273 C279 0.930 . S
H274 C283 0.930 . S
H275 C288 0.929 . S
H276 C286 0.929 . S
H277 C281 0.929 . S
H278 C287 0.929 . S
C279 H273 0.930 . S
C279 C280 1.367 . S
C279 C287 1.378 . S
C280 C279 1.367 . S
C280 C288 1.433 . S
C281 H277 0.929 . S
C281 C283 1.378 . S
C281 C285 1.350 . S
C282 C285 1.463 . S
C282 C287 1.350 . S
C282 N290 1.427 . S
C283 H274 0.930 . S
C283 C281 1.378 . S
C283 C284 1.367 1_655 S
C284 C283 1.367 1_455 S
C284 C286 1.433 . S
C285 C281 1.350 . S
C285 C282 1.463 . S
C285 N289 1.427 . S
C286 H276 0.929 . S
C286 C284 1.433 . S
C286 N289 1.384 1_455 S
C287 H278 0.929 . S
C287 C279 1.378 . S
C287 C282 1.350 . S
C288 H275 0.929 . S
C288 C280 1.433 . S
C288 N290 1.384 . S
N289 C285 1.427 . S
N289 C286 1.384 1_655 S
N290 C282 1.427 . S
N290 C288 1.384 . S
H291 C297 0.930 . S
H292 C301 0.930 . S
H293 C306 0.929 . S
H294 C304 0.929 . S
H295 C299 0.929 . S
H296 C305 0.929 . S
C297 H291 0.930 . S
C297 C298 1.367 . S
C297 C305 1.378 . S
C298 C297 1.367 . S
C298 C306 1.433 . S
C299 H295 0.929 . S
C299 C301 1.378 . S
C299 C303 1.350 . S
C300 C303 1.463 . S
C300 C305 1.350 . S
C300 N308 1.427 . S
C301 H292 0.930 . S
C301 C299 1.378 . S
C301 C302 1.367 . S
C302 C301 1.367 . S
C302 C304 1.433 . S
C303 C299 1.350 . S
C303 C300 1.463 . S
C303 N307 1.427 . S
C304 H294 0.929 . S
C304 C302 1.433 . S
C304 N307 1.384 . S
C305 H296 0.929 . S
C305 C297 1.378 . S
C305 C300 1.350 . S
C306 H293 0.929 . S
C306 C298 1.433 . S
C306 N308 1.384 . S
N307 C303 1.427 . S
N307 C304 1.384 . S
N308 C300 1.427 . S
N308 C306 1.384 . S
H309 C315 0.930 . S
H310 C319 0.930 . S
H311 C324 0.929 . S
H312 C322 0.929 . S
H313 C317 0.929 . S
H314 C323 0.929 . S
C315 H309 0.930 . S
C315 C316 1.367 . S
C315 C323 1.378 . S
C316 C315 1.367 . S
C316 C324 1.433 . S
C317 H313 0.929 . S
C317 C319 1.378 . S
C317 C321 1.350 . S
C318 C321 1.463 . S
C318 C323 1.350 . S
C318 N326 1.427 . S
C319 H310 0.930 . S
C319 C317 1.378 . S
C319 C320 1.367 . S
C320 C319 1.367 . S
C320 C322 1.433 . S
C321 C317 1.350 . S
C321 C318 1.463 . S
C321 N325 1.427 . S
C322 H312 0.929 . S
C322 C320 1.433 . S
C322 N325 1.384 . S
C323 H314 0.929 . S
C323 C315 1.378 . S
C323 C318 1.350 . S
C324 H311 0.929 . S
C324 C316 1.433 . S
C324 N326 1.384 . S
N325 C321 1.427 . S
N325 C322 1.384 . S
N326 C318 1.427 . S
N326 C324 1.384 . S
H327 C333 0.930 . S
H328 C337 0.930 . S
H329 C342 0.929 . S
H330 C340 0.929 . S
H331 C335 0.929 . S
H332 C341 0.929 . S
C333 H327 0.930 . S
C333 C334 1.367 . S
C333 C341 1.378 . S
C334 C333 1.367 . S
C334 C342 1.433 . S
C335 H331 0.929 . S
C335 C337 1.378 . S
C335 C339 1.350 . S
C336 C339 1.463 . S
C336 C341 1.350 . S
C336 N344 1.427 . S
C337 H328 0.930 . S
C337 C335 1.378 . S
C337 C338 1.367 . S
C338 C337 1.367 . S
C338 C340 1.433 . S
C339 C335 1.350 . S
C339 C336 1.463 . S
C339 N343 1.427 . S
C340 H330 0.929 . S
C340 C338 1.433 . S
C340 N343 1.384 . S
C341 H332 0.929 . S
C341 C333 1.378 . S
C341 C336 1.350 . S
C342 H329 0.929 . S
C342 C334 1.433 . S
C342 N344 1.384 . S
N343 C339 1.427 . S
N343 C340 1.384 . S
N344 C336 1.427 . S
N344 C342 1.384 . S
H345 C351 0.930 . S
H346 C355 0.930 . S
H347 C360 0.929 . S
H348 C358 0.929 . S
H349 C353 0.929 . S
H350 C359 0.929 . S
C351 H345 0.930 . S
C351 C352 1.367 . S
C351 C359 1.378 . S
C352 C351 1.367 . S
C352 C360 1.433 . S
C353 H349 0.929 . S
C353 C355 1.378 . S
C353 C357 1.350 . S
C354 C357 1.463 . S
C354 C359 1.350 . S
C354 N362 1.427 . S
C355 H346 0.930 . S
C355 C353 1.378 . S
C355 C356 1.367 . S
C356 C355 1.367 . S
C356 C358 1.433 . S
C357 C353 1.350 . S
C357 C354 1.463 . S
C357 N361 1.427 . S
C358 H348 0.929 . S
C358 C356 1.433 . S
C358 N361 1.384 . S
C359 H350 0.929 . S
C359 C351 1.378 . S
C359 C354 1.350 . S
C360 H347 0.929 . S
C360 C352 1.433 . S
C360 N362 1.384 . S
N361 C357 1.427 . S
N361 C358 1.384 . S
N362 C354 1.427 . S
N362 C360 1.384 . S
H363 C369 0.930 . S
H364 C373 0.930 . S
H365 C378 0.929 . S
H366 C376 0.929 . S
H367 C371 0.928 1_554 S
H368 C377 0.929 . S
C369 H363 0.930 . S
C369 C370 1.367 . S
C369 C377 1.378 . S
C370 C369 1.367 . S
C370 C378 1.433 . S
C371 H367 0.928 1_556 S
C371 C373 1.378 . S
C371 C375 1.350 1_556 S
C372 C375 1.463 . S
C372 C377 1.350 . S
C372 N380 1.427 . S
C373 H364 0.930 . S
C373 C371 1.378 . S
C373 C374 1.367 . S
C374 C373 1.367 . S
C374 C376 1.433 . S
C375 C371 1.350 1_554 S
C375 C372 1.463 . S
C375 N379 1.427 1_554 S
C376 H366 0.929 . S
C376 C374 1.433 . S
C376 N379 1.384 . S
C377 H368 0.929 . S
C377 C369 1.378 . S
C377 C372 1.350 . S
C378 H365 0.929 . S
C378 C370 1.433 . S
C378 N380 1.384 . S
N379 C375 1.427 1_556 S
N379 C376 1.384 . S
N380 C372 1.427 . S
N380 C378 1.384 . S
H381 C387 0.930 . S
H382 C391 0.930 1_565 S
H383 C396 0.929 1_565 S
H384 C394 0.929 . S
H385 C389 0.929 1_565 S
H386 C395 0.929 . S
C387 H381 0.930 . S
C387 C388 1.367 . S
C387 C395 1.378 . S
C388 C387 1.367 . S
C388 C396 1.433 . S
C389 H385 0.929 1_545 S
C389 C391 1.378 . S
C389 C393 1.350 . S
C390 C393 1.463 . S
C390 C395 1.350 . S
C390 N398 1.427 . S
C391 H382 0.930 1_545 S
C391 C389 1.378 . S
C391 C392 1.367 . S
C392 C391 1.367 . S
C392 C394 1.433 . S
C393 C389 1.350 . S
C393 C390 1.463 . S
C393 N397 1.427 . S
C394 H384 0.929 . S
C394 C392 1.433 . S
C394 N397 1.384 . S
C395 H386 0.929 . S
C395 C387 1.378 . S
C395 C390 1.350 . S
C396 H383 0.929 1_545 S
C396 C388 1.433 . S
C396 N398 1.384 . S
N397 C393 1.427 . S
N397 C394 1.384 . S
N398 C390 1.427 . S
N398 C396 1.384 . S
H399 C405 0.930 . S
H400 C409 0.930 . S
H401 C414 0.929 . S
H402 C412 0.929 . S
H403 C407 0.929 . S
H404 C413 0.929 . S
C405 H399 0.930 . S
C405 C406 1.367 . S
C405 C413 1.378 . S
C406 C405 1.367 . S
C406 C414 1.433 . S
C407 H403 0.929 . S
C407 C409 1.378 . S
C407 C411 1.350 . S
C408 C411 1.463 . S
C408 C413 1.350 . S
C408 N416 1.427 . S
C409 H400 0.930 . S
C409 C407 1.378 . S
C409 C410 1.367 . S
C410 C409 1.367 . S
C410 C412 1.433 . S
C411 C407 1.350 . S
C411 C408 1.463 . S
C411 N415 1.427 . S
C412 H402 0.929 . S
C412 C410 1.433 . S
C412 N415 1.384 . S
C413 H404 0.929 . S
C413 C405 1.378 . S
C413 C408 1.350 . S
C414 H401 0.929 . S
C414 C406 1.433 . S
C414 N416 1.384 . S
N415 C411 1.427 . S
N415 C412 1.384 . S
N416 C408 1.427 . S
N416 C414 1.384 . S
H417 C423 0.930 . S
H418 C427 0.930 . S
H419 C432 0.929 . S
H420 C430 0.929 . S
H421 C425 0.929 . S
H422 C431 0.929 . S
C423 H417 0.930 . S
C423 C424 1.367 . S
C423 C431 1.378 . S
C424 C423 1.367 . S
C424 C432 1.433 1_545 S
C425 H421 0.929 . S
C425 C427 1.378 . S
C425 C429 1.350 1_565 S
C426 C429 1.463 . S
C426 C431 1.350 . S
C426 N434 1.427 1_545 S
C427 H418 0.930 . S
C427 C425 1.378 . S
C427 C428 1.367 1_565 S
C428 C427 1.367 1_545 S
C428 C430 1.433 . S
C429 C425 1.350 1_545 S
C429 C426 1.463 . S
C429 N433 1.427 . S
C430 H420 0.929 . S
C430 C428 1.433 . S
C430 N433 1.384 . S
C431 H422 0.929 . S
C431 C423 1.378 . S
C431 C426 1.350 . S
C432 H419 0.929 . S
C432 C424 1.433 1_565 S
C432 N434 1.384 . S
N433 C429 1.427 . S
N433 C430 1.384 . S
N434 C426 1.427 1_565 S
N434 C432 1.384 . S
H435 C441 0.930 . S
H436 C445 0.930 . S
H437 C450 0.929 . S
H438 C448 0.929 . S
H439 C443 0.929 . S
H440 C449 0.929 . S
C441 H435 0.930 . S
C441 C442 1.367 . S
C441 C449 1.378 . S
C442 C441 1.367 . S
C442 C450 1.433 . S
C443 H439 0.929 . S
C443 C445 1.378 . S
C443 C447 1.350 1_554 S
C444 C447 1.463 . S
C444 C449 1.350 . S
C444 N452 1.427 . S
C445 H436 0.930 . S
C445 C443 1.378 . S
C445 C446 1.367 . S
C446 C445 1.367 . S
C446 C448 1.433 . S
C447 C443 1.350 1_556 S
C447 C444 1.463 . S
C447 N451 1.427 1_556 S
C448 H438 0.929 . S
C448 C446 1.433 . S
C448 N451 1.384 . S
C449 H440 0.929 . S
C449 C441 1.378 . S
C449 C444 1.350 . S
C450 H437 0.929 . S
C450 C442 1.433 . S
C450 N452 1.384 . S
N451 C447 1.427 1_554 S
N451 C448 1.384 . S
N452 C444 1.427 . S
N452 C450 1.384 . S
H453 C459 0.930 . S
H454 C463 0.930 . S
H455 C468 0.929 . S
H456 C466 0.929 . S
H457 C461 0.929 . S
H458 C467 0.929 . S
C459 H453 0.930 . S
C459 C460 1.367 . S
C459 C467 1.378 . S
C460 C459 1.367 . S
C460 C468 1.433 . S
C461 H457 0.929 . S
C461 C463 1.378 . S
C461 C465 1.350 . S
C462 C465 1.463 . S
C462 C467 1.350 . S
C462 N470 1.427 . S
C463 H454 0.930 . S
C463 C461 1.378 . S
C463 C464 1.367 . S
C464 C463 1.367 . S
C464 C466 1.433 . S
C465 C461 1.350 . S
C465 C462 1.463 . S
C465 N469 1.427 . S
C466 H456 0.929 . S
C466 C464 1.433 . S
C466 N469 1.384 . S
C467 H458 0.929 . S
C467 C459 1.378 . S
C467 C462 1.350 . S
C468 H455 0.929 . S
C468 C460 1.433 . S
C468 N470 1.384 . S
N469 C465 1.427 . S
N469 C466 1.384 . S
N470 C462 1.427 . S
N470 C468 1.384 . S
C154 C20 1.280 . S
C158 C138 1.239 . S
C172 C41 1.305 . S
C176 C116 1.298 1_655 S
C190 C64 1.332 . S
C194 C129 1.326 . S
C208 C19 1.247 . S
C212 C142 1.289 . S
C230 C112 1.255 . S
C226 C44 1.323 . S
C248 C125 1.230 . S
C244 C67 1.313 . S
C262 C43 1.209 . S
C266 C90 1.263 . S
C280 C66 1.218 . S
C284 C103 1.263 . S
C298 C21 1.315 . S
C302 C73 1.232 . S
C320 C86 1.232 . S
C316 C42 1.288 . S
C338 C99 1.252 . S
C334 C65 1.299 . S
C352 C18 1.273 . S
C356 C77 1.266 . S
C374 C104 1.517 . S
C370 C17 1.520 . S
C388 C39 1.529 . S
C392 C78 1.530 . S
C406 C62 1.538 . S
C410 C91 1.538 . S
C428 C130 1.510 . S
C424 C40 1.518 . S
C446 C143 1.538 . S
C442 C63 1.544 . S
C460 C16 1.520 . S
C464 C117 1.517 . S
