# Generated by pormake.
# Topology ptr, (4,4)-cn, num edge types: 1
# Building blocks:
#     Node 0, Type 0, BuildingBlock: TATPOV_clean_sbu_0, # of connection points: 4
#     Node 1, Type 0, BuildingBlock: TATPOV_clean_sbu_0, # of connection points: 4
#     Node 2, Type 0, BuildingBlock: TATPOV_clean_sbu_0, # of connection points: 4
#     Node 3, Type 0, BuildingBlock: TATPOV_clean_sbu_0, # of connection points: 4
#     Node 4, Type 0, BuildingBlock: TATPOV_clean_sbu_0, # of connection points: 4
#     Node 5, Type 0, BuildingBlock: TATPOV_clean_sbu_0, # of connection points: 4
#     Node 6, Type 0, BuildingBlock: TATPOV_clean_sbu_0, # of connection points: 4
#     Node 7, Type 0, BuildingBlock: TATPOV_clean_sbu_0, # of connection points: 4
#     Node 8, Type 0, BuildingBlock: TATPOV_clean_sbu_0, # of connection points: 4
#     Node 9, Type 0, BuildingBlock: TATPOV_clean_sbu_0, # of connection points: 4
#     Node 10, Type 0, BuildingBlock: TATPOV_clean_sbu_0, # of connection points: 4
#     Node 11, Type 0, BuildingBlock: TATPOV_clean_sbu_0, # of connection points: 4
#     Node 12, Type 0, BuildingBlock: TATPOV_clean_sbu_0, # of connection points: 4
#     Node 13, Type 0, BuildingBlock: TATPOV_clean_sbu_0, # of connection points: 4
#     Node 14, Type 0, BuildingBlock: TATPOV_clean_sbu_0, # of connection points: 4
#     Node 15, Type 0, BuildingBlock: TATPOV_clean_sbu_0, # of connection points: 4
#     Node 16, Type 0, BuildingBlock: TATPOV_clean_sbu_0, # of connection points: 4
#     Node 17, Type 0, BuildingBlock: TATPOV_clean_sbu_0, # of connection points: 4
#     Node 18, Type 1, BuildingBlock: MIFKUJ_clean_linker_1, # of connection points: 4
#     Node 19, Type 1, BuildingBlock: MIFKUJ_clean_linker_1, # of connection points: 4
#     Node 20, Type 1, BuildingBlock: MIFKUJ_clean_linker_1, # of connection points: 4
#     Node 21, Type 1, BuildingBlock: MIFKUJ_clean_linker_1, # of connection points: 4
#     Node 22, Type 1, BuildingBlock: MIFKUJ_clean_linker_1, # of connection points: 4
#     Node 23, Type 1, BuildingBlock: MIFKUJ_clean_linker_1, # of connection points: 4
#     Node 24, Type 1, BuildingBlock: MIFKUJ_clean_linker_1, # of connection points: 4
#     Node 25, Type 1, BuildingBlock: MIFKUJ_clean_linker_1, # of connection points: 4
#     Node 26, Type 1, BuildingBlock: MIFKUJ_clean_linker_1, # of connection points: 4
#     Node 27, Type 1, BuildingBlock: MIFKUJ_clean_linker_1, # of connection points: 4
#     Node 28, Type 1, BuildingBlock: MIFKUJ_clean_linker_1, # of connection points: 4
#     Node 29, Type 1, BuildingBlock: MIFKUJ_clean_linker_1, # of connection points: 4
#     Node 30, Type 1, BuildingBlock: MIFKUJ_clean_linker_1, # of connection points: 4
#     Node 31, Type 1, BuildingBlock: MIFKUJ_clean_linker_1, # of connection points: 4
#     Node 32, Type 1, BuildingBlock: MIFKUJ_clean_linker_1, # of connection points: 4
#     Node 33, Type 1, BuildingBlock: MIFKUJ_clean_linker_1, # of connection points: 4
#     Node 34, Type 1, BuildingBlock: MIFKUJ_clean_linker_1, # of connection points: 4
#     Node 35, Type 1, BuildingBlock: MIFKUJ_clean_linker_1, # of connection points: 4
#     Edge 36, Type (0, 1), BuildingBlock: EZIPEK_clean_linker_0, # of connection points: 2
#     Edge 37, Type (0, 1), BuildingBlock: EZIPEK_clean_linker_0, # of connection points: 2
#     Edge 38, Type (0, 1), BuildingBlock: EZIPEK_clean_linker_0, # of connection points: 2
#     Edge 39, Type (0, 1), BuildingBlock: EZIPEK_clean_linker_0, # of connection points: 2
#     Edge 40, Type (0, 1), BuildingBlock: EZIPEK_clean_linker_0, # of connection points: 2
#     Edge 41, Type (0, 1), BuildingBlock: EZIPEK_clean_linker_0, # of connection points: 2
#     Edge 42, Type (0, 1), BuildingBlock: EZIPEK_clean_linker_0, # of connection points: 2
#     Edge 43, Type (0, 1), BuildingBlock: EZIPEK_clean_linker_0, # of connection points: 2
#     Edge 44, Type (0, 1), BuildingBlock: EZIPEK_clean_linker_0, # of connection points: 2
#     Edge 45, Type (0, 1), BuildingBlock: EZIPEK_clean_linker_0, # of connection points: 2
#     Edge 46, Type (0, 1), BuildingBlock: EZIPEK_clean_linker_0, # of connection points: 2
#     Edge 47, Type (0, 1), BuildingBlock: EZIPEK_clean_linker_0, # of connection points: 2
#     Edge 48, Type (0, 1), BuildingBlock: EZIPEK_clean_linker_0, # of connection points: 2
#     Edge 49, Type (0, 1), BuildingBlock: EZIPEK_clean_linker_0, # of connection points: 2
#     Edge 50, Type (0, 1), BuildingBlock: EZIPEK_clean_linker_0, # of connection points: 2
#     Edge 51, Type (0, 1), BuildingBlock: EZIPEK_clean_linker_0, # of connection points: 2
#     Edge 52, Type (0, 1), BuildingBlock: EZIPEK_clean_linker_0, # of connection points: 2
#     Edge 53, Type (0, 1), BuildingBlock: EZIPEK_clean_linker_0, # of connection points: 2
#     Edge 54, Type (0, 1), BuildingBlock: EZIPEK_clean_linker_0, # of connection points: 2
#     Edge 55, Type (0, 1), BuildingBlock: EZIPEK_clean_linker_0, # of connection points: 2
#     Edge 56, Type (0, 1), BuildingBlock: EZIPEK_clean_linker_0, # of connection points: 2
#     Edge 57, Type (0, 1), BuildingBlock: EZIPEK_clean_linker_0, # of connection points: 2
#     Edge 58, Type (0, 1), BuildingBlock: EZIPEK_clean_linker_0, # of connection points: 2
#     Edge 59, Type (0, 1), BuildingBlock: EZIPEK_clean_linker_0, # of connection points: 2
#     Edge 60, Type (0, 1), BuildingBlock: EZIPEK_clean_linker_0, # of connection points: 2
#     Edge 61, Type (0, 1), BuildingBlock: EZIPEK_clean_linker_0, # of connection points: 2
#     Edge 62, Type (0, 1), BuildingBlock: EZIPEK_clean_linker_0, # of connection points: 2
#     Edge 63, Type (0, 1), BuildingBlock: EZIPEK_clean_linker_0, # of connection points: 2
#     Edge 64, Type (0, 1), BuildingBlock: EZIPEK_clean_linker_0, # of connection points: 2
#     Edge 65, Type (0, 1), BuildingBlock: EZIPEK_clean_linker_0, # of connection points: 2
#     Edge 66, Type (0, 1), BuildingBlock: EZIPEK_clean_linker_0, # of connection points: 2
#     Edge 67, Type (0, 1), BuildingBlock: EZIPEK_clean_linker_0, # of connection points: 2
#     Edge 68, Type (0, 1), BuildingBlock: EZIPEK_clean_linker_0, # of connection points: 2
#     Edge 69, Type (0, 1), BuildingBlock: EZIPEK_clean_linker_0, # of connection points: 2
#     Edge 70, Type (0, 1), BuildingBlock: EZIPEK_clean_linker_0, # of connection points: 2
#     Edge 71, Type (0, 1), BuildingBlock: EZIPEK_clean_linker_0, # of connection points: 2
#     Edge 72, Type (0, 1), BuildingBlock: EZIPEK_clean_linker_0, # of connection points: 2
#     Edge 73, Type (0, 1), BuildingBlock: EZIPEK_clean_linker_0, # of connection points: 2
#     Edge 74, Type (0, 1), BuildingBlock: EZIPEK_clean_linker_0, # of connection points: 2
#     Edge 75, Type (0, 1), BuildingBlock: EZIPEK_clean_linker_0, # of connection points: 2
#     Edge 76, Type (0, 1), BuildingBlock: EZIPEK_clean_linker_0, # of connection points: 2
#     Edge 77, Type (0, 1), BuildingBlock: EZIPEK_clean_linker_0, # of connection points: 2
#     Edge 78, Type (0, 1), BuildingBlock: EZIPEK_clean_linker_0, # of connection points: 2
#     Edge 79, Type (0, 1), BuildingBlock: EZIPEK_clean_linker_0, # of connection points: 2
#     Edge 80, Type (0, 1), BuildingBlock: EZIPEK_clean_linker_0, # of connection points: 2
#     Edge 81, Type (0, 1), BuildingBlock: EZIPEK_clean_linker_0, # of connection points: 2
#     Edge 82, Type (0, 1), BuildingBlock: EZIPEK_clean_linker_0, # of connection points: 2
#     Edge 83, Type (0, 1), BuildingBlock: EZIPEK_clean_linker_0, # of connection points: 2
#     Edge 84, Type (0, 1), BuildingBlock: EZIPEK_clean_linker_0, # of connection points: 2
#     Edge 85, Type (0, 1), BuildingBlock: EZIPEK_clean_linker_0, # of connection points: 2
#     Edge 86, Type (0, 1), BuildingBlock: EZIPEK_clean_linker_0, # of connection points: 2
#     Edge 87, Type (0, 1), BuildingBlock: EZIPEK_clean_linker_0, # of connection points: 2
#     Edge 88, Type (0, 1), BuildingBlock: EZIPEK_clean_linker_0, # of connection points: 2
#     Edge 89, Type (0, 1), BuildingBlock: EZIPEK_clean_linker_0, # of connection points: 2
#     Edge 90, Type (0, 1), BuildingBlock: EZIPEK_clean_linker_0, # of connection points: 2
#     Edge 91, Type (0, 1), BuildingBlock: EZIPEK_clean_linker_0, # of connection points: 2
#     Edge 92, Type (0, 1), BuildingBlock: EZIPEK_clean_linker_0, # of connection points: 2
#     Edge 93, Type (0, 1), BuildingBlock: EZIPEK_clean_linker_0, # of connection points: 2
#     Edge 94, Type (0, 1), BuildingBlock: EZIPEK_clean_linker_0, # of connection points: 2
#     Edge 95, Type (0, 1), BuildingBlock: EZIPEK_clean_linker_0, # of connection points: 2
#     Edge 96, Type (0, 1), BuildingBlock: EZIPEK_clean_linker_0, # of connection points: 2
#     Edge 97, Type (0, 1), BuildingBlock: EZIPEK_clean_linker_0, # of connection points: 2
#     Edge 98, Type (0, 1), BuildingBlock: EZIPEK_clean_linker_0, # of connection points: 2
#     Edge 99, Type (0, 1), BuildingBlock: EZIPEK_clean_linker_0, # of connection points: 2
#     Edge 100, Type (0, 1), BuildingBlock: EZIPEK_clean_linker_0, # of connection points: 2
#     Edge 101, Type (0, 1), BuildingBlock: EZIPEK_clean_linker_0, # of connection points: 2
#     Edge 102, Type (0, 1), BuildingBlock: EZIPEK_clean_linker_0, # of connection points: 2
#     Edge 103, Type (0, 1), BuildingBlock: EZIPEK_clean_linker_0, # of connection points: 2
#     Edge 104, Type (0, 1), BuildingBlock: EZIPEK_clean_linker_0, # of connection points: 2
#     Edge 105, Type (0, 1), BuildingBlock: EZIPEK_clean_linker_0, # of connection points: 2
#     Edge 106, Type (0, 1), BuildingBlock: EZIPEK_clean_linker_0, # of connection points: 2
#     Edge 107, Type (0, 1), BuildingBlock: EZIPEK_clean_linker_0, # of connection points: 2
# Relax obj value: 0.067
# Max RMSD: 0.225
# Mean RMSD: 0.108
data_MOF--net-ptr--node1-TATPOV_clean_sbu_0--node2-MIFKUJ_clean_linker_1--edge1-EZIPEK_clean_linker_0
_symmetry_space_group_name_H-M    P1
_symmetry_Int_Tables_number       1
_symmetry_cell_setting            triclinic
loop_
_symmetry_equiv_pos_as_xyz
'x, y, z'
_cell_length_a     69.729395
_cell_length_b     70.811567
_cell_length_c     47.063123
_cell_angle_alpha  89.685916
_cell_angle_beta   90.81532
_cell_angle_gamma 121.57092
loop_
_atom_site_label
_atom_site_type_symbol
_atom_site_fract_x
_atom_site_fract_y
_atom_site_fract_z
_atom_type_partial_charge
Zn0 Zn 0.9596 0.3589 0.00659 0.0
Zn1 Zn 0.99775 0.35965 0.02097 0.0
O2 O 0.97571 0.32783 0.00741 0.0
O3 O 0.94415 0.32636 0.99622 0.0
O4 O 0.02342 0.35721 0.03608 0.0
O5 O 0.95821 0.3698 0.04583 0.0
O6 O 0.99014 0.37169 0.05591 0.0
C7 C 0.95548 0.31711 0.99826 0.0
C8 C -0.00063 0.38854 0.97266 0.0
O9 O 0.0098 0.38176 0.98795 0.0
O10 O 0.97881 0.38166 0.97682 0.0
C11 C 0.03184 0.34803 0.02217 0.0
O12 O 0.02485 0.34113 0.99608 0.0
C13 C 0.97441 0.37479 0.06285 0.0
Zn14 Zn 0.65057 0.60496 0.00911 0.0
Zn15 Zn 0.65203 0.6428 0.01736 0.0
O16 O 0.68433 0.65327 0.00643 0.0
O17 O 0.68303 0.62224 0.99642 0.0
O18 O 0.65452 0.67127 0.02867 0.0
O19 O 0.64244 0.5952 0.04946 0.0
O20 O 0.63949 0.62453 0.05411 0.0
C21 C 0.6938 0.6432 0.99772 0.0
C22 C 0.62054 0.61133 0.97198 0.0
O23 O 0.6305 0.63071 0.98279 0.0
O24 O 0.62512 0.59725 0.98115 0.0
C25 C 0.65558 0.6858 0.01176 0.0
O26 O 0.65408 0.68235 0.9842 0.0
C27 C 0.63719 0.60671 0.06408 0.0
Zn28 Zn 0.35647 0.9664 0.03917 0.0
Zn29 Zn 0.35294 0.00199 0.02519 0.0
O30 O 0.32246 0.97915 0.04181 0.0
O31 O 0.32357 0.94904 0.05003 0.0
O32 O 0.34908 0.02709 0.01207 0.0
O33 O 0.36656 0.96621 0.99909 0.0
O34 O 0.36094 0.99313 0.98771 0.0
C35 C 0.31308 0.95919 0.05021 0.0
C36 C 0.38672 0.0067 0.07079 0.0
O37 O 0.37852 0.01564 0.05521 0.0
O38 O 0.37971 0.98627 0.06852 0.0
C39 C 0.33125 0.0275 0.01567 0.0
O40 O 0.31459 0.01179 0.03031 0.0
C41 C 0.36669 0.97945 0.98077 0.0
Zn42 Zn 0.04643 0.64959 0.01752 0.0
Zn43 Zn 0.00722 0.6462 0.01048 0.0
O44 O 0.0288 0.67903 0.01919 0.0
O45 O 0.06103 0.6817 0.02944 0.0
O46 O 0.97949 0.64617 0.99823 0.0
O47 O 0.0475 0.64039 0.97753 0.0
O48 O 0.01226 0.63185 0.97551 0.0
C49 C 0.0492 0.69042 0.02748 0.0
C50 C 0.01188 0.62057 0.05814 0.0
O51 O 0.00043 0.62815 0.04721 0.0
O52 O 0.03057 0.62564 0.04736 0.0
C53 C 0.97296 0.65754 0.01095 0.0
O54 O 0.98306 0.66797 0.03461 0.0
C55 C 0.02873 0.63156 0.96463 0.0
Zn56 Zn 0.36029 0.39659 0.0368 0.0
Zn57 Zn 0.35453 0.35677 0.02131 0.0
O58 O 0.32339 0.34982 0.03394 0.0
O59 O 0.32727 0.38168 0.04616 0.0
O60 O 0.34863 0.32726 0.00711 0.0
O61 O 0.37162 0.40843 0.99746 0.0
O62 O 0.36808 0.37657 0.98602 0.0
C63 C 0.31512 0.36086 0.04328 0.0
C64 C 0.38672 0.38285 0.06996 0.0
O65 O 0.37719 0.36552 0.05441 0.0
O66 O 0.38229 0.39795 0.06666 0.0
C67 C 0.33118 0.30877 0.01336 0.0
O68 O 0.31651 0.30812 0.03114 0.0
C69 C 0.37367 0.39629 0.97965 0.0
Zn70 Zn 0.6458 0.03878 0.99284 0.0
Zn71 Zn 0.64639 0.00196 0.00778 0.0
O72 O 0.67818 0.02382 0.99368 0.0
O73 O 0.67876 0.05452 0.98318 0.0
O74 O 0.64951 0.97695 0.02186 0.0
O75 O 0.6354 0.0402 0.03228 0.0
O76 O 0.63567 0.01005 0.04348 0.0
C77 C 0.68854 0.0437 0.98473 0.0
C78 C 0.61532 0.99876 0.96005 0.0
O79 O 0.62267 0.98917 0.97581 0.0
O80 O 0.62264 0.01923 0.96297 0.0
C81 C 0.65123 0.96365 0.00565 0.0
O82 O 0.64983 0.96523 0.97796 0.0
C83 C 0.63215 0.02537 0.05007 0.0
Zn84 Zn 0.62639 0.69562 0.32932 0.0
Zn85 Zn 0.66506 0.69746 0.34518 0.0
O86 O 0.64325 0.66519 0.33365 0.0
O87 O 0.61155 0.66285 0.32081 0.0
O88 O 0.69087 0.6956 0.36104 0.0
O89 O 0.6248 0.70698 0.36813 0.0
O90 O 0.65699 0.70971 0.37933 0.0
C91 C 0.62306 0.65391 0.32449 0.0
C92 C 0.66613 0.72491 0.29518 0.0
O93 O 0.67671 0.71872 0.31121 0.0
O94 O 0.64548 0.71783 0.29898 0.0
C95 C 0.69826 0.68487 0.34853 0.0
O96 O 0.69032 0.6763 0.32328 0.0
C97 C 0.64084 0.71235 0.38558 0.0
Zn98 Zn 0.31101 0.94167 0.31816 0.0
Zn99 Zn 0.31403 0.97794 0.3418 0.0
O100 O 0.34605 0.98884 0.32784 0.0
O101 O 0.34385 0.95937 0.30868 0.0
O102 O 0.31806 0.00491 0.36164 0.0
O103 O 0.30094 0.92557 0.35557 0.0
O104 O 0.30143 0.95452 0.3735 0.0
C105 C 0.35516 0.97971 0.31517 0.0
C106 C 0.28197 0.95524 0.29187 0.0
O107 O 0.29082 0.97098 0.30995 0.0
O108 O 0.28782 0.94105 0.29103 0.0
C109 C 0.31986 0.02133 0.34814 0.0
O110 O 0.31863 0.02078 0.32025 0.0
C111 C 0.29734 0.93482 0.376 0.0
Zn112 Zn 0.02402 0.29965 0.37058 0.0
Zn113 Zn 0.02188 0.33545 0.35362 0.0
O114 O 0.99038 0.31338 0.3684 0.0
O115 O 0.99109 0.28368 0.38094 0.0
O116 O 0.01932 0.36093 0.33904 0.0
O117 O 0.03433 0.29799 0.33114 0.0
O118 O 0.03064 0.32572 0.31751 0.0
C119 C 0.98065 0.2938 0.37827 0.0
C120 C 0.05428 0.34007 0.40145 0.0
O121 O 0.0465 0.34892 0.38499 0.0
O122 O 0.04715 0.31958 0.39979 0.0
C123 C 0.00393 0.3643 0.34669 0.0
O124 O 0.98961 0.35169 0.36623 0.0
C125 C 0.03564 0.31123 0.31197 0.0
Zn126 Zn 0.71088 0.97604 0.34659 0.0
Zn127 Zn 0.67404 0.97672 0.33654 0.0
O128 O 0.69702 0.00882 0.34678 0.0
O129 O 0.72678 0.00785 0.3607 0.0
O130 O 0.64794 0.97941 0.32403 0.0
O131 O 0.71271 0.96748 0.30647 0.0
O132 O 0.67903 0.96276 0.30108 0.0
C133 C 0.71665 0.01827 0.35782 0.0
C134 C 0.67415 0.9482 0.38439 0.0
O135 O 0.66467 0.95757 0.37271 0.0
O136 O 0.69261 0.95162 0.3748 0.0
C137 C 0.63607 0.98306 0.3407 0.0
O138 O 0.6393 0.98329 0.3683 0.0
C139 C 0.69503 0.96091 0.2917 0.0
Zn140 Zn 0.01605 0.72896 0.36741 0.0
Zn141 Zn 0.0133 0.69145 0.34855 0.0
O142 O 0.98153 0.68082 0.36312 0.0
O143 O 0.98309 0.71129 0.37712 0.0
O144 O 0.00948 0.6635 0.33194 0.0
O145 O 0.02648 0.74301 0.32882 0.0
O146 O 0.02438 0.71246 0.31403 0.0
C147 C 0.97218 0.69049 0.37371 0.0
C148 C 0.04559 0.71769 0.39723 0.0
O149 O 0.03734 0.70117 0.38031 0.0
O150 O 0.03926 0.7315 0.396 0.0
C151 C 0.00657 0.64725 0.34692 0.0
O152 O 0.00669 0.64855 0.37476 0.0
C153 C 0.02877 0.73207 0.30942 0.0
Zn154 Zn 0.3101 0.3649 0.32432 0.0
Zn155 Zn 0.3108 0.32875 0.34231 0.0
O156 O 0.34303 0.35132 0.33021 0.0
O157 O 0.34313 0.38098 0.31546 0.0
O158 O 0.31471 0.30405 0.35596 0.0
O159 O 0.29913 0.3667 0.36317 0.0
O160 O 0.29869 0.33663 0.37695 0.0
C161 C 0.3533 0.37077 0.31984 0.0
C162 C 0.2808 0.32456 0.29217 0.0
O163 O 0.28811 0.31555 0.30907 0.0
O164 O 0.28764 0.34497 0.29428 0.0
C165 C 0.32116 0.29529 0.33799 0.0
O166 O 0.32379 0.30171 0.31136 0.0
C167 C 0.29516 0.35222 0.38189 0.0
Zn168 Zn 0.28749 0.02419 0.67272 0.0
Zn169 Zn 0.32701 0.02715 0.6861 0.0
O170 O 0.30605 0.99512 0.67276 0.0
O171 O 0.27338 0.9917 0.66283 0.0
O172 O 0.35372 0.02628 0.70064 0.0
O173 O 0.286 0.03469 0.71212 0.0
O174 O 0.31877 0.03815 0.72143 0.0
C175 C 0.28573 0.98351 0.66405 0.0
C176 C 0.32633 0.05519 0.63816 0.0
O177 O 0.33765 0.04928 0.65317 0.0
O178 O 0.3056 0.04727 0.64265 0.0
C179 C 0.36258 0.01746 0.68686 0.0
O180 O 0.35537 0.00991 0.66103 0.0
C181 C 0.3025 0.04025 0.72884 0.0
Zn182 Zn 0.9793 0.27302 0.65638 0.0
Zn183 Zn 0.98133 0.31011 0.67672 0.0
O184 O 0.01343 0.32118 0.66318 0.0
O185 O 0.01241 0.29128 0.64776 0.0
O186 O 0.98357 0.33725 0.69375 0.0
O187 O 0.96853 0.25849 0.6947 0.0
O188 O 0.97032 0.28866 0.71055 0.0
C189 C 0.02311 0.31195 0.65233 0.0
C190 C 0.9499 0.28458 0.62701 0.0
O191 O 0.9577 0.30056 0.6447 0.0
O192 O 0.95643 0.27092 0.62753 0.0
C193 C 0.99815 0.35684 0.68612 0.0
O194 O 0.01196 0.35998 0.66542 0.0
C195 C 0.96604 0.26902 0.7145 0.0
Zn196 Zn 0.68804 0.6397 0.71233 0.0
Zn197 Zn 0.69057 0.6772 0.69433 0.0
O198 O 0.65797 0.657 0.70766 0.0
O199 O 0.65549 0.62621 0.72242 0.0
O200 O 0.68935 0.70299 0.67864 0.0
O201 O 0.69711 0.63542 0.67339 0.0
O202 O 0.70127 0.66725 0.66014 0.0
C203 C 0.64659 0.63762 0.71813 0.0
C204 C 0.72044 0.67977 0.74345 0.0
O205 O 0.71379 0.68965 0.72702 0.0
O206 O 0.71215 0.65907 0.74135 0.0
C207 C 0.67394 0.6982 0.66023 0.0
O208 O 0.6607 0.67752 0.65206 0.0
C209 C 0.70274 0.65043 0.6549 0.0
Zn210 Zn 0.37516 0.30967 0.68679 0.0
Zn211 Zn 0.33723 0.30935 0.67942 0.0
O212 O 0.36014 0.34158 0.68952 0.0
O213 O 0.3914 0.34197 0.69881 0.0
O214 O 0.31049 0.31128 0.66784 0.0
O215 O 0.37535 0.30011 0.64673 0.0
O216 O 0.34174 0.29579 0.64311 0.0
C217 C 0.3806 0.35182 0.69769 0.0
C218 C 0.33952 0.28156 0.72654 0.0
O219 O 0.32901 0.29005 0.71531 0.0
O220 O 0.35817 0.28594 0.71641 0.0
C221 C 0.3046 0.32293 0.6812 0.0
O222 O 0.31486 0.33269 0.70511 0.0
C223 C 0.35733 0.29369 0.63279 0.0
Zn224 Zn 0.69227 0.06216 0.70566 0.0
Zn225 Zn 0.68443 0.02223 0.68741 0.0
O226 O 0.65411 0.01544 0.70318 0.0
O227 O 0.65949 0.04786 0.71577 0.0
O228 O 0.67807 0.99283 0.67182 0.0
O229 O 0.70313 0.07476 0.66654 0.0
O230 O 0.6949 0.04188 0.65158 0.0
C231 C 0.64674 0.02707 0.71326 0.0
C232 C 0.71893 0.04751 0.73511 0.0
O233 O 0.70914 0.03094 0.71825 0.0
O234 O 0.71423 0.06252 0.73436 0.0
C235 C 0.65993 0.97435 0.67588 0.0
O236 O 0.64427 0.97338 0.69207 0.0
C237 C 0.70225 0.06227 0.64675 0.0
Zn238 Zn 0.97581 0.70091 0.65897 0.0
Zn239 Zn 0.97723 0.66478 0.67578 0.0
O240 O 0.00871 0.68601 0.66037 0.0
O241 O 0.00855 0.71606 0.64812 0.0
O242 O 0.979 0.63897 0.69056 0.0
O243 O 0.96618 0.70322 0.69853 0.0
O244 O 0.96955 0.67529 0.71205 0.0
C245 C 0.01865 0.70559 0.65046 0.0
C246 C 0.94464 0.66063 0.62859 0.0
O247 O 0.95226 0.65155 0.64489 0.0
O248 O 0.95219 0.68121 0.63015 0.0
C249 C 0.99337 0.63445 0.68201 0.0
O250 O 0.00698 0.64598 0.66129 0.0
C251 C 0.96502 0.69007 0.71774 0.0
H252 H 0.13619 0.32464 0.20924 0.0
H253 H 0.10953 0.32549 0.24112 0.0
H254 H 0.05541 0.28633 0.1816 0.0
H255 H 0.08199 0.28382 0.15031 0.0
H256 H 0.14054 0.29341 0.19598 0.0
H257 H 0.12608 0.3427 0.13925 0.0
H258 H 0.10248 0.35298 0.11211 0.0
H259 H 0.07973 0.29608 0.05778 0.0
H260 H 0.10334 0.28578 0.08483 0.0
H261 H 0.16993 0.28693 0.08281 0.0
H262 H 0.2055 0.29801 0.05873 0.0
H263 H 0.24214 0.34884 0.12189 0.0
H264 H 0.20684 0.33815 0.1456 0.0
H265 H 0.15104 0.31255 0.09366 0.0
H266 H 0.17955 0.27375 0.1511 0.0
H267 H 0.20897 0.27309 0.18012 0.0
H268 H 0.21096 0.32193 0.23645 0.0
H269 H 0.182 0.32279 0.20772 0.0
C270 C 0.1112 0.304 0.17735 0.0
C271 C 0.11858 0.31595 0.203 0.0
C272 C 0.10338 0.3166 0.22116 0.0
C273 C 0.08046 0.30578 0.2139 0.0
C274 C 0.07302 0.2946 0.1877 0.0
C275 C 0.08824 0.29336 0.16976 0.0
C276 C 0.12785 0.30239 0.15967 0.0
C277 C 0.1428 0.29767 0.17359 0.0
C278 C 0.13051 0.30717 0.13022 0.0
C279 C 0.11618 0.31333 0.11422 0.0
C280 C 0.11594 0.3324 0.12158 0.0
C281 C 0.10264 0.33832 0.10608 0.0
C282 C 0.0895 0.32526 0.08304 0.0
C283 C 0.08985 0.30632 0.07551 0.0
C284 C 0.10323 0.30046 0.09091 0.0
C285 C 0.18581 0.31148 0.11624 0.0
C286 C 0.18564 0.30043 0.09144 0.0
C287 C 0.20582 0.3067 0.07777 0.0
C288 C 0.2263 0.32417 0.08868 0.0
C289 C 0.22645 0.33528 0.1133 0.0
C290 C 0.20636 0.32908 0.12687 0.0
C291 C 0.16458 0.30532 0.13068 0.0
C292 C 0.14849 0.30796 0.11594 0.0
C293 C 0.16149 0.29975 0.15983 0.0
C294 C 0.17857 0.29832 0.17727 0.0
C295 C 0.18633 0.28427 0.16972 0.0
C296 C 0.20299 0.28384 0.18621 0.0
C297 C 0.21204 0.29751 0.21029 0.0
C298 C 0.20411 0.31128 0.21793 0.0
C299 C 0.18754 0.31168 0.20161 0.0
H300 H 0.72751 0.89483 0.17013 0.0
H301 H 0.72668 0.92049 0.20418 0.0
H302 H 0.65847 0.89819 0.17839 0.0
H303 H 0.65905 0.87216 0.14465 0.0
H304 H 0.70072 0.85096 0.17486 0.0
H305 H 0.71254 0.90509 0.10386 0.0
H306 H 0.7035 0.92966 0.07786 0.0
H307 H 0.64066 0.87299 0.04927 0.0
H308 H 0.64912 0.84843 0.07617 0.0
H309 H 0.64961 0.79759 0.07772 0.0
H310 H 0.64198 0.76427 0.05211 0.0
H311 H 0.70486 0.77358 0.08309 0.0
H312 H 0.71306 0.80749 0.10787 0.0
H313 H 0.67888 0.83828 0.07295 0.0
H314 H 0.65871 0.78689 0.14892 0.0
H315 H 0.65728 0.76168 0.1859 0.0
H316 H 0.72646 0.80874 0.20871 0.0
H317 H 0.72797 0.83409 0.17166 0.0
C318 C 0.69339 0.88162 0.15475 0.0
C319 C 0.71252 0.89575 0.17137 0.0
C320 C 0.71209 0.91042 0.19069 0.0
C321 C 0.69252 0.91115 0.19371 0.0
C322 C 0.67375 0.89789 0.17614 0.0
C323 C 0.67414 0.88313 0.15687 0.0
C324 C 0.69268 0.86361 0.13787 0.0
C325 C 0.69651 0.84849 0.15235 0.0
C326 C 0.68615 0.85985 0.10885 0.0
C327 C 0.68139 0.8749 0.0923 0.0
C328 C 0.69671 0.89793 0.09226 0.0
C329 C 0.69166 0.91193 0.0773 0.0
C330 C 0.67141 0.90307 0.06177 0.0
C331 C 0.65635 0.88007 0.06119 0.0
C332 C 0.66125 0.86611 0.07643 0.0
C333 C 0.68185 0.80502 0.09496 0.0
C334 C 0.6619 0.79264 0.07885 0.0
C335 C 0.65747 0.77361 0.06433 0.0
C336 C 0.67282 0.7665 0.06585 0.0
C337 C 0.69281 0.77883 0.08179 0.0
C338 C 0.69737 0.79804 0.09607 0.0
C339 C 0.68638 0.82533 0.11016 0.0
C340 C 0.68349 0.84097 0.09532 0.0
C341 C 0.69296 0.82918 0.13915 0.0
C342 C 0.69347 0.81234 0.15748 0.0
C343 C 0.6738 0.79153 0.16123 0.0
C344 C 0.67295 0.77719 0.18236 0.0
C345 C 0.69173 0.78347 0.20003 0.0
C346 C 0.71184 0.80366 0.1952 0.0
C347 C 0.71266 0.81807 0.17415 0.0
H348 H 0.08405 0.83487 0.18613 0.0
H349 H 0.05945 0.80575 0.21969 0.0
H350 H 0.08812 0.76719 0.19534 0.0
H351 H 0.113 0.79638 0.16213 0.0
H352 H 0.12933 0.85631 0.19528 0.0
H353 H 0.07807 0.81166 0.11709 0.0
H354 H 0.05742 0.77642 0.09065 0.0
H355 H 0.12012 0.78124 0.07159 0.0
H356 H 0.14069 0.81584 0.09846 0.0
H357 H 0.19813 0.87755 0.15257 0.0
H358 H 0.23549 0.90038 0.13178 0.0
H359 H 0.2077 0.92304 0.06723 0.0
H360 H 0.17016 0.90037 0.08831 0.0
H361 H 0.14766 0.85413 0.09446 0.0
H362 H 0.16871 0.86513 0.21126 0.0
H363 H 0.20017 0.89163 0.2413 0.0
H364 H 0.20862 0.94541 0.18857 0.0
H365 H 0.17678 0.91874 0.15825 0.0
C366 C 0.10026 0.81776 0.17146 0.0
C367 C 0.08457 0.81986 0.18736 0.0
C368 C 0.07053 0.80327 0.20642 0.0
C369 C 0.07204 0.78441 0.20988 0.0
C370 C 0.08663 0.78158 0.1927 0.0
C371 C 0.10074 0.7982 0.1737 0.0
C372 C 0.11849 0.8373 0.15645 0.0
C373 C 0.13302 0.85602 0.17302 0.0
C374 C 0.12376 0.83662 0.12766 0.0
C375 C 0.11093 0.81638 0.10991 0.0
C376 C 0.08737 0.8052 0.10711 0.0
C377 C 0.07563 0.78526 0.0919 0.0
C378 C 0.08738 0.77648 0.07914 0.0
C379 C 0.11088 0.78797 0.08111 0.0
C380 C 0.12256 0.80771 0.09641 0.0
C381 C 0.18148 0.88762 0.12225 0.0
C382 C 0.20011 0.88778 0.13432 0.0
C383 C 0.22135 0.90064 0.1224 0.0
C384 C 0.22419 0.91328 0.09806 0.0
C385 C 0.20569 0.91336 0.08608 0.0
C386 C 0.1844 0.9005 0.09807 0.0
C387 C 0.15873 0.87246 0.13361 0.0
C388 C 0.14334 0.85475 0.11636 0.0
C389 C 0.1535 0.87322 0.16233 0.0
C390 C 0.17041 0.88992 0.18242 0.0
C391 C 0.17691 0.88264 0.20643 0.0
C392 C 0.19493 0.89772 0.22347 0.0
C393 C 0.20677 0.92035 0.2169 0.0
C394 C 0.19968 0.92793 0.19379 0.0
C395 C 0.18159 0.91276 0.17658 0.0
H396 H 0.278 0.16615 0.83433 0.0
H397 H 0.28557 0.19397 0.79837 0.0
H398 H 0.33578 0.24485 0.8535 0.0
H399 H 0.33174 0.21673 0.88668 0.0
H400 H 0.30026 0.15143 0.84515 0.0
H401 H 0.27673 0.18724 0.91321 0.0
H402 H 0.28178 0.21985 0.9387 0.0
H403 H 0.34505 0.23244 0.97325 0.0
H404 H 0.34012 0.20001 0.9479 0.0
H405 H 0.34171 0.14697 0.94715 0.0
H406 H 0.34788 0.12042 0.97317 0.0
H407 H 0.28419 0.06657 0.94176 0.0
H408 H 0.27778 0.09311 0.91595 0.0
H409 H 0.31 0.15745 0.94974 0.0
H410 H 0.335 0.12506 0.87936 0.0
H411 H 0.3355 0.09893 0.84562 0.0
H412 H 0.26975 0.08127 0.81422 0.0
H413 H 0.26904 0.10707 0.84811 0.0
C414 C 0.30427 0.18893 0.86365 0.0
C415 C 0.29085 0.18323 0.83877 0.0
C416 C 0.2949 0.19921 0.81829 0.0
C417 C 0.31145 0.22157 0.82297 0.0
C418 C 0.32308 0.22768 0.84918 0.0
C419 C 0.32033 0.21149 0.86864 0.0
C420 C 0.30337 0.17106 0.8819 0.0
C421 C 0.30154 0.15257 0.86814 0.0
C422 C 0.30612 0.17259 0.91196 0.0
C423 C 0.30812 0.19129 0.92853 0.0
C424 C 0.29161 0.19695 0.9264 0.0
C425 C 0.29446 0.21546 0.9409 0.0
C426 C 0.31382 0.22849 0.9577 0.0
C427 C 0.33002 0.22254 0.96038 0.0
C428 C 0.32715 0.20403 0.94603 0.0
C429 C 0.30937 0.12199 0.92945 0.0
C430 C 0.32895 0.12948 0.94608 0.0
C431 C 0.33251 0.1144 0.96083 0.0
C432 C 0.3165 0.09165 0.95923 0.0
C433 C 0.29671 0.08412 0.94311 0.0
C434 C 0.29312 0.09921 0.92837 0.0
C435 C 0.30637 0.13809 0.91275 0.0
C436 C 0.30771 0.15617 0.92683 0.0
C437 C 0.30288 0.13611 0.88304 0.0
C438 C 0.30195 0.11797 0.86626 0.0
C439 C 0.32041 0.11508 0.86584 0.0
C440 C 0.32073 0.10024 0.84662 0.0
C441 C 0.30267 0.08829 0.82751 0.0
C442 C 0.28377 0.09032 0.82892 0.0
C443 C 0.28342 0.10507 0.84814 0.0
H444 H 0.82205 0.08614 0.87237 0.0
H445 H 0.79083 0.05887 0.84171 0.0
H446 H 0.79772 0.11195 0.78886 0.0
H447 H 0.8285 0.13904 0.81924 0.0
H448 H 0.86828 0.14814 0.83396 0.0
H449 H 0.83202 0.10623 0.94261 0.0
H450 H 0.79561 0.08232 0.96586 0.0
H451 H 0.76302 0.10099 0.90292 0.0
H452 H 0.79926 0.12505 0.87997 0.0
H453 H 0.8594 0.19137 0.9294 0.0
H454 H 0.88106 0.22658 0.95499 0.0
H455 H 0.94261 0.22899 0.93602 0.0
H456 H 0.9209 0.19335 0.91066 0.0
H457 H 0.85199 0.1522 0.93514 0.0
H458 H 0.88418 0.20782 0.86351 0.0
H459 H 0.9083 0.23581 0.82853 0.0
H460 H 0.93894 0.19809 0.80925 0.0
H461 H 0.91483 0.17002 0.84424 0.0
C462 C 0.82759 0.11466 0.84817 0.0
C463 C 0.81696 0.09186 0.85403 0.0
C464 C 0.79924 0.07633 0.8366 0.0
C465 C 0.79198 0.0835 0.8132 0.0
C466 C 0.80311 0.10615 0.80684 0.0
C467 C 0.82074 0.12157 0.82411 0.0
C468 C 0.8448 0.13171 0.86776 0.0
C469 C 0.865 0.14879 0.85629 0.0
C470 C 0.84027 0.13288 0.89668 0.0
C471 C 0.81823 0.11711 0.90936 0.0
C472 C 0.81698 0.10498 0.93369 0.0
C473 C 0.79633 0.0914 0.9469 0.0
C474 C 0.7768 0.09001 0.936 0.0
C475 C 0.77798 0.10188 0.91149 0.0
C476 C 0.79858 0.11546 0.89835 0.0
C477 C 0.88851 0.18971 0.91799 0.0
C478 C 0.87752 0.19919 0.93111 0.0
C479 C 0.88983 0.21928 0.94565 0.0
C480 C 0.91333 0.23025 0.94733 0.0
C481 C 0.92442 0.22064 0.93492 0.0
C482 C 0.91207 0.20044 0.92036 0.0
C483 C 0.87512 0.16908 0.90103 0.0
C484 C 0.85583 0.15115 0.91315 0.0
C485 C 0.87984 0.16776 0.87223 0.0
C486 C 0.89783 0.18691 0.85656 0.0
C487 C 0.89669 0.20598 0.8526 0.0
C488 C 0.91038 0.22191 0.83264 0.0
C489 C 0.92533 0.21892 0.81647 0.0
C490 C 0.92761 0.20068 0.82179 0.0
C491 C 0.91386 0.18471 0.84165 0.0
H492 H 0.82191 0.68121 0.82572 0.0
H493 H 0.79229 0.68122 0.79743 0.0
H494 H 0.79524 0.73138 0.85208 0.0
H495 H 0.82536 0.73162 0.8806 0.0
H496 H 0.86347 0.71069 0.83569 0.0
H497 H 0.79856 0.66786 0.88926 0.0
H498 H 0.76416 0.65728 0.91515 0.0
H499 H 0.80267 0.70986 0.9756 0.0
H500 H 0.83732 0.7208 0.94933 0.0
H501 H 0.90322 0.72068 0.9461 0.0
H502 H 0.92648 0.71004 0.97332 0.0
H503 H 0.90148 0.65177 0.92098 0.0
H504 H 0.87825 0.66239 0.89364 0.0
H505 H 0.8555 0.6947 0.9389 0.0
H506 H 0.92284 0.72094 0.8802 0.0
H507 H 0.94863 0.7175 0.84848 0.0
H508 H 0.89325 0.67746 0.79094 0.0
H509 H 0.86738 0.67919 0.82332 0.0
C510 C 0.82591 0.70644 0.85527 0.0
C511 C 0.81645 0.69243 0.83155 0.0
C512 C 0.79949 0.69234 0.81548 0.0
C513 C 0.79164 0.70625 0.82278 0.0
C514 C 0.80115 0.72052 0.84626 0.0
C515 C 0.81821 0.7206 0.86247 0.0
C516 C 0.84346 0.70556 0.87247 0.0
C517 C 0.86174 0.7071 0.85827 0.0
C518 C 0.84118 0.701 0.90191 0.0
C519 C 0.82042 0.69538 0.91711 0.0
C520 C 0.79962 0.67739 0.90779 0.0
C521 C 0.78005 0.67125 0.92261 0.0
C522 C 0.78102 0.68281 0.94717 0.0
C523 C 0.80173 0.70082 0.95662 0.0
C524 C 0.82139 0.70701 0.9417 0.0
C525 C 0.8893 0.69248 0.91765 0.0
C526 C 0.90278 0.70564 0.94047 0.0
C527 C 0.91595 0.69959 0.95598 0.0
C528 C 0.91555 0.68014 0.94909 0.0
C529 C 0.90189 0.66681 0.92653 0.0
C530 C 0.88882 0.67294 0.91089 0.0
C531 C 0.87497 0.6987 0.90174 0.0
C532 C 0.85753 0.69863 0.91641 0.0
C533 C 0.87692 0.70263 0.87209 0.0
C534 C 0.89307 0.7004 0.8542 0.0
C535 C 0.91615 0.711 0.86111 0.0
C536 C 0.93091 0.70923 0.84292 0.0
C537 C 0.92289 0.69756 0.81713 0.0
C538 C 0.89985 0.68673 0.81057 0.0
C539 C 0.8851 0.6879 0.82901 0.0
H540 H 0.80165 0.67853 0.53044 0.0
H541 H 0.77683 0.68017 0.56536 0.0
H542 H 0.7222 0.61649 0.53672 0.0
H543 H 0.74708 0.61503 0.50122 0.0
H544 H 0.80658 0.63908 0.53502 0.0
H545 H 0.79007 0.68195 0.47078 0.0
H546 H 0.76675 0.69104 0.44111 0.0
H547 H 0.74145 0.63008 0.39446 0.0
H548 H 0.76473 0.62085 0.42422 0.0
H549 H 0.82852 0.61921 0.42304 0.0
H550 H 0.86222 0.62674 0.3969 0.0
H551 H 0.90391 0.6812 0.45357 0.0
H552 H 0.8705 0.67405 0.47928 0.0
H553 H 0.81215 0.6465 0.43018 0.0
H554 H 0.83908 0.6103 0.49307 0.0
H555 H 0.86768 0.60847 0.52233 0.0
H556 H 0.87709 0.6635 0.57259 0.0
H557 H 0.84894 0.66557 0.54346 0.0
C558 C 0.77614 0.64666 0.51335 0.0
C559 C 0.78415 0.66524 0.53106 0.0
C560 C 0.77002 0.6662 0.55089 0.0
C561 C 0.74775 0.64845 0.55356 0.0
C562 C 0.7393 0.6304 0.53474 0.0
C563 C 0.75344 0.62956 0.51459 0.0
C564 C 0.79244 0.64398 0.49685 0.0
C565 C 0.80782 0.64063 0.51206 0.0
C566 C 0.79363 0.64555 0.46696 0.0
C567 C 0.7788 0.65054 0.44998 0.0
C568 C 0.77927 0.67037 0.45446 0.0
C569 C 0.76618 0.67566 0.43743 0.0
C570 C 0.75251 0.66121 0.4157 0.0
C571 C 0.75197 0.64138 0.41117 0.0
C572 C 0.76515 0.63613 0.42813 0.0
C573 C 0.84704 0.64585 0.45336 0.0
C574 C 0.84493 0.63268 0.4299 0.0
C575 C 0.86406 0.63691 0.41507 0.0
C576 C 0.88542 0.65447 0.42346 0.0
C577 C 0.88753 0.66752 0.44696 0.0
C578 C 0.86849 0.66335 0.46167 0.0
C579 C 0.82688 0.6423 0.46845 0.0
C580 C 0.8106 0.64426 0.45303 0.0
C581 C 0.82516 0.63995 0.49835 0.0
C582 C 0.84191 0.63812 0.51604 0.0
C583 C 0.84734 0.62198 0.51036 0.0
C584 C 0.86352 0.62086 0.52703 0.0
C585 C 0.87439 0.63588 0.5495 0.0
C586 C 0.86879 0.65177 0.55533 0.0
C587 C 0.8527 0.65289 0.53878 0.0
H588 H 0.38829 0.22658 0.51317 0.0
H589 H 0.38748 0.25265 0.54648 0.0
H590 H 0.32105 0.23342 0.51611 0.0
H591 H 0.32164 0.20704 0.48297 0.0
H592 H 0.36 0.1833 0.51814 0.0
H593 H 0.37756 0.23691 0.44511 0.0
H594 H 0.3743 0.26208 0.41412 0.0
H595 H 0.3095 0.20839 0.3844 0.0
H596 H 0.31277 0.1836 0.41639 0.0
H597 H 0.31118 0.12884 0.42061 0.0
H598 H 0.30494 0.09594 0.39512 0.0
H599 H 0.36757 0.10639 0.42895 0.0
H600 H 0.37431 0.13979 0.45378 0.0
H601 H 0.34118 0.17002 0.41547 0.0
H602 H 0.31883 0.11847 0.4919 0.0
H603 H 0.31709 0.09305 0.52881 0.0
H604 H 0.38509 0.14119 0.55509 0.0
H605 H 0.38699 0.16668 0.51799 0.0
C606 C 0.35504 0.21485 0.49556 0.0
C607 C 0.37375 0.22832 0.51317 0.0
C608 C 0.37334 0.24321 0.53209 0.0
C609 C 0.35419 0.24483 0.53372 0.0
C610 C 0.336 0.23242 0.51496 0.0
C611 C 0.33639 0.21746 0.49603 0.0
C612 C 0.35382 0.19613 0.47982 0.0
C613 C 0.35643 0.18068 0.4955 0.0
C614 C 0.34816 0.19221 0.45059 0.0
C615 C 0.34586 0.20807 0.43229 0.0
C616 C 0.36288 0.23048 0.43131 0.0
C617 C 0.36134 0.24485 0.41223 0.0
C618 C 0.3434 0.237 0.39215 0.0
C619 C 0.32525 0.21493 0.39586 0.0
C620 C 0.32672 0.20061 0.41501 0.0
C621 C 0.34316 0.13676 0.43929 0.0
C622 C 0.32365 0.12416 0.4225 0.0
C623 C 0.32002 0.10537 0.40805 0.0
C624 C 0.33578 0.0988 0.41024 0.0
C625 C 0.35522 0.11123 0.42711 0.0
C626 C 0.35896 0.13017 0.44139 0.0
C627 C 0.34711 0.15708 0.4539 0.0
C628 C 0.34505 0.17281 0.43803 0.0
C629 C 0.35288 0.16111 0.4831 0.0
C630 C 0.35308 0.14444 0.50212 0.0
C631 C 0.33362 0.12334 0.505 0.0
C632 C 0.33258 0.10887 0.52607 0.0
C633 C 0.35095 0.11535 0.54459 0.0
C634 C 0.37081 0.13596 0.54087 0.0
C635 C 0.37184 0.15045 0.51982 0.0
H636 H 0.74605 0.13738 0.4844 0.0
H637 H 0.72039 0.10772 0.51688 0.0
H638 H 0.77603 0.12492 0.57417 0.0
H639 H 0.80178 0.15326 0.54122 0.0
H640 H 0.80705 0.18884 0.52702 0.0
H641 H 0.76381 0.15335 0.41802 0.0
H642 H 0.74389 0.11841 0.39091 0.0
H643 H 0.77341 0.09096 0.44549 0.0
H644 H 0.79307 0.12569 0.47278 0.0
H645 H 0.85345 0.18976 0.42936 0.0
H646 H 0.88982 0.2152 0.40768 0.0
H647 H 0.88494 0.27088 0.43337 0.0
H648 H 0.84811 0.24537 0.45464 0.0
H649 H 0.812 0.17844 0.42391 0.0
H650 H 0.86486 0.20483 0.50104 0.0
H651 H 0.89485 0.23001 0.53409 0.0
H652 H 0.86079 0.26538 0.54759 0.0
H653 H 0.83019 0.23955 0.51506 0.0
C654 C 0.77593 0.14777 0.51033 0.0
C655 C 0.75282 0.13451 0.50366 0.0
C656 C 0.73814 0.1177 0.52224 0.0
C657 C 0.74629 0.11438 0.5481 0.0
C658 C 0.76936 0.12735 0.55447 0.0
C659 C 0.78402 0.14368 0.53572 0.0
C660 C 0.79195 0.16624 0.4916 0.0
C661 C 0.80778 0.18658 0.50435 0.0
C662 C 0.79336 0.1635 0.46207 0.0
C663 C 0.77958 0.1419 0.44761 0.0
C664 C 0.76572 0.13969 0.42434 0.0
C665 C 0.75451 0.11991 0.40885 0.0
C666 C 0.75743 0.10234 0.41617 0.0
C667 C 0.77112 0.10446 0.43956 0.0
C668 C 0.78212 0.12412 0.45521 0.0
C669 C 0.84809 0.21567 0.44375 0.0
C670 C 0.85986 0.20739 0.42976 0.0
C671 C 0.88062 0.22185 0.41752 0.0
C672 C 0.88993 0.24478 0.41911 0.0
C673 C 0.87788 0.25316 0.43202 0.0
C674 C 0.857 0.23865 0.4442 0.0
C675 C 0.82755 0.20022 0.45978 0.0
C676 C 0.81061 0.18085 0.44638 0.0
C677 C 0.82606 0.20307 0.48915 0.0
C678 C 0.84539 0.2204 0.50573 0.0
C679 C 0.864 0.2182 0.51078 0.0
C680 C 0.88105 0.2325 0.52959 0.0
C681 C 0.87982 0.24931 0.54343 0.0
C682 C 0.86188 0.25238 0.53714 0.0
C683 C 0.84451 0.23772 0.5187 0.0
H684 H 0.95442 0.50557 0.16597 0.0
H685 H 0.96136 0.53338 0.13032 0.0
H686 H 0.01226 0.58433 0.18476 0.0
H687 H 0.00875 0.55617 0.21763 0.0
H688 H 0.97671 0.49079 0.17635 0.0
H689 H 0.9546 0.52818 0.24277 0.0
H690 H 0.95986 0.56079 0.26838 0.0
H691 H 0.02059 0.57022 0.30745 0.0
H692 H 0.01582 0.53816 0.28135 0.0
H693 H 0.01837 0.48489 0.27622 0.0
H694 H 0.02364 0.4576 0.30187 0.0
H695 H 0.95746 0.4055 0.27469 0.0
H696 H 0.95217 0.43277 0.24888 0.0
H697 H 0.98644 0.49662 0.28095 0.0
H698 H 0.00996 0.46261 0.21094 0.0
H699 H 0.00923 0.43544 0.17795 0.0
H700 H 0.94439 0.42008 0.14584 0.0
H701 H 0.94484 0.44688 0.17906 0.0
C702 C 0.98104 0.52839 0.19489 0.0
C703 C 0.96733 0.52266 0.17029 0.0
C704 C 0.97102 0.53863 0.15 0.0
C705 C 0.98749 0.56102 0.15461 0.0
C706 C -0.0004 0.56714 0.18049 0.0
C707 C 0.99719 0.55095 0.19974 0.0
C708 C 0.98013 0.51054 0.21314 0.0
C709 C 0.97803 0.49193 0.19934 0.0
C710 C 0.98288 0.51207 0.24322 0.0
C711 C 0.98493 0.53083 0.25989 0.0
C712 C 0.96905 0.53726 0.25682 0.0
C713 C 0.97199 0.55577 0.27146 0.0
C714 C 0.99065 0.56787 0.28969 0.0
C715 C 0.00612 0.56107 0.29345 0.0
C716 C 0.00331 0.54273 0.27866 0.0
C717 C 0.98493 0.4608 0.26057 0.0
C718 C 0.00492 0.46763 0.27599 0.0
C719 C 0.00796 0.45212 0.29051 0.0
C720 C 0.99095 0.42962 0.29006 0.0
C721 C 0.97075 0.42282 0.27519 0.0
C722 C 0.96777 0.43832 0.26049 0.0
C723 C 0.98247 0.47722 0.24391 0.0
C724 C 0.98419 0.49545 0.25803 0.0
C725 C 0.97897 0.47525 0.21422 0.0
C726 C 0.9774 0.45673 0.19753 0.0
C727 C 0.99528 0.45294 0.19744 0.0
C728 C 0.99491 0.43751 0.17862 0.0
C729 C 0.97676 0.42585 0.15953 0.0
C730 C 0.95846 0.42888 0.16052 0.0
C731 C 0.95879 0.44421 0.17936 0.0
H732 H 0.48895 0.42018 0.20869 0.0
H733 H 0.45818 0.39379 0.17675 0.0
H734 H 0.45866 0.44831 0.13476 0.0
H735 H 0.48928 0.47454 0.16621 0.0
H736 H 0.53131 0.48349 0.17449 0.0
H737 H 0.4974 0.43287 0.27693 0.0
H738 H 0.46097 0.40706 0.29927 0.0
H739 H 0.43025 0.43703 0.25206 0.0
H740 H 0.46638 0.46253 0.22962 0.0
H741 H 0.52632 0.52228 0.27631 0.0
H742 H 0.54877 0.55855 0.29918 0.0
H743 H 0.60969 0.56261 0.27243 0.0
H744 H 0.58724 0.52584 0.25003 0.0
H745 H 0.51931 0.48299 0.27816 0.0
H746 H 0.5508 0.54276 0.21167 0.0
H747 H 0.57606 0.57325 0.18012 0.0
H748 H 0.602 0.53401 0.14846 0.0
H749 H 0.57724 0.50374 0.18055 0.0
C750 C 0.49144 0.44931 0.18972 0.0
C751 C 0.48245 0.4264 0.19254 0.0
C752 C 0.46497 0.4114 0.17443 0.0
C753 C 0.45617 0.41921 0.15361 0.0
C754 C 0.46523 0.44205 0.15078 0.0
C755 C 0.48275 0.45697 0.1686 0.0
C756 C 0.50943 0.46558 0.20913 0.0
C757 C 0.52904 0.48316 0.1973 0.0
C758 C 0.50614 0.46542 0.23867 0.0
C759 C 0.48439 0.44937 0.25153 0.0
C760 C 0.48276 0.43374 0.27135 0.0
C761 C 0.46212 0.41912 0.28403 0.0
C762 C 0.44314 0.42036 0.2773 0.0
C763 C 0.44481 0.43597 0.25748 0.0
C764 C 0.46531 0.45039 0.24466 0.0
C765 C 0.55508 0.5214 0.2612 0.0
C766 C 0.54451 0.53056 0.27608 0.0
C767 C 0.55726 0.55127 0.28904 0.0
C768 C 0.58077 0.56314 0.28731 0.0
C769 C 0.59151 0.55355 0.27395 0.0
C770 C 0.57873 0.53269 0.26111 0.0
C771 C 0.54116 0.50134 0.24346 0.0
C772 C 0.52233 0.48291 0.25562 0.0
C773 C 0.5446 0.50136 0.21387 0.0
C774 C 0.5623 0.52104 0.19862 0.0
C775 C 0.56248 0.541 0.19871 0.0
C776 C 0.5768 0.55834 0.1807 0.0
C777 C 0.59073 0.55573 0.16199 0.0
C778 C 0.59137 0.53627 0.16287 0.0
C779 C 0.57723 0.51903 0.18105 0.0
H780 H 0.57608 0.06619 0.17555 0.0
H781 H 0.60025 0.06294 0.14109 0.0
H782 H 0.57346 0.99509 0.16631 0.0
H783 H 0.54891 0.99814 0.20052 0.0
H784 H 0.53095 0.04069 0.1683 0.0
H785 H 0.58489 0.05031 0.24168 0.0
H786 H 0.60744 0.03868 0.26843 0.0
H787 H 0.5467 0.98039 0.2971 0.0
H788 H 0.5241 0.99133 0.26935 0.0
H789 H 0.46216 0.99771 0.21796 0.0
H790 H 0.42723 0.98962 0.24065 0.0
H791 H 0.46544 0.04297 0.30022 0.0
H792 H 0.50058 0.05135 0.27724 0.0
H793 H 0.51686 0.02256 0.27066 0.0
H794 H 0.48908 0.01063 0.15574 0.0
H795 H 0.45992 0.01012 0.1257 0.0
H796 H 0.46163 0.06092 0.17773 0.0
H797 H 0.49119 0.06164 0.20799 0.0
C798 C 0.56072 0.03243 0.19062 0.0
C799 C 0.57581 0.05078 0.17422 0.0
C800 C 0.58961 0.04897 0.15465 0.0
C801 C 0.5885 0.02877 0.15119 0.0
C802 C 0.57456 0.01082 0.16887 0.0
C803 C 0.56065 0.0126 0.1884 0.0
C804 C 0.54288 0.03306 0.20655 0.0
C805 C 0.52813 0.0371 0.19083 0.0
C806 C 0.53881 0.02765 0.23574 0.0
C807 C 0.55276 0.02158 0.25314 0.0
C808 C 0.57638 0.03492 0.25346 0.0
C809 C 0.58925 0.02839 0.26885 0.0
C810 C 0.57869 0.00864 0.28458 0.0
C811 C 0.55512 0.99565 0.28501 0.0
C812 C 0.54227 0.00199 0.26929 0.0
C813 C 0.48391 0.02531 0.24574 0.0
C814 C 0.46305 0.00786 0.23567 0.0
C815 C 0.44317 0.0032 0.24861 0.0
C816 C 0.44389 0.01574 0.27198 0.0
C817 C 0.46468 0.0332 0.28213 0.0
C818 C 0.48462 0.0379 0.26912 0.0
C819 C 0.50495 0.02988 0.23223 0.0
C820 C 0.52018 0.02678 0.24835 0.0
C821 C 0.50892 0.03502 0.20304 0.0
C822 C 0.49229 0.03613 0.18417 0.0
C823 C 0.48347 0.02191 0.16055 0.0
C824 C 0.4668 0.02154 0.14348 0.0
C825 C 0.45863 0.0354 0.14965 0.0
C826 C 0.46775 0.05009 0.17278 0.0
C827 C 0.4845 0.05043 0.18999 0.0
H828 H 0.46811 -0.00028 0.87643 0.0
H829 H 0.44052 0.99913 0.90804 0.0
H830 H 0.3873 0.95803 0.84839 0.0
H831 H 0.41491 0.95702 0.8174 0.0
H832 H 0.47357 0.96886 0.86467 0.0
H833 H 0.45807 0.0162 0.80573 0.0
H834 H 0.43414 0.02551 0.77762 0.0
H835 H 0.41319 0.96848 0.72422 0.0
H836 H 0.43712 0.95913 0.75225 0.0
H837 H 0.50204 0.95872 0.7532 0.0
H838 H 0.5373 0.96781 0.72983 0.0
H839 H 0.57515 0.02065 0.79018 0.0
H840 H 0.54013 0.01191 0.81317 0.0
H841 H 0.48408 0.98569 0.76171 0.0
H842 H 0.51185 0.94761 0.82153 0.0
H843 H 0.54138 0.94734 0.85072 0.0
H844 H 0.5444 0.99769 0.90504 0.0
H845 H 0.51534 0.99822 0.87604 0.0
C846 C 0.44368 0.97822 0.84456 0.0
C847 C 0.45051 0.99038 0.87007 0.0
C848 C 0.43478 0.99018 0.88808 0.0
C849 C 0.41183 0.97827 0.88079 0.0
C850 C 0.40494 0.9671 0.85455 0.0
C851 C 0.42072 0.96672 0.83677 0.0
C852 C 0.46081 0.97692 0.82754 0.0
C853 C 0.47585 0.97267 0.84215 0.0
C854 C 0.46351 0.98114 0.79796 0.0
C855 C 0.44909 0.9868 0.78126 0.0
C856 C 0.44827 0.00566 0.78805 0.0
C857 C 0.43479 0.01105 0.77198 0.0
C858 C 0.42204 0.99767 0.74893 0.0
C859 C 0.42302 0.97898 0.74193 0.0
C860 C 0.43658 0.97365 0.75789 0.0
C861 C 0.51854 0.98444 0.78513 0.0
C862 C 0.51794 0.97226 0.76133 0.0
C863 C 0.53794 0.97737 0.7481 0.0
C864 C 0.55868 0.99481 0.75846 0.0
C865 C 0.55926 0.00708 0.78206 0.0
C866 C 0.53933 0.00203 0.79518 0.0
C867 C 0.49752 0.97918 0.79942 0.0
C868 C 0.48152 0.98163 0.78415 0.0
C869 C 0.49446 0.97432 0.82876 0.0
C870 C 0.51142 0.97297 0.8466 0.0
C871 C 0.51887 0.95855 0.83974 0.0
C872 C 0.5356 0.95833 0.85634 0.0
C873 C 0.54499 0.97255 0.87988 0.0
C874 C 0.53729 0.98663 0.88693 0.0
C875 C 0.52067 0.98684 0.87046 0.0
H876 H 0.05707 0.55768 0.85168 0.0
H877 H 0.05681 0.58446 0.88422 0.0
H878 H 0.99116 0.56678 0.8525 0.0
H879 H 0.99085 0.53925 0.82078 0.0
H880 H 0.03043 0.51526 0.85487 0.0
H881 H 0.04665 0.56786 0.7795 0.0
H882 H 0.04051 0.59415 0.75269 0.0
H883 H 0.97275 0.54161 0.73217 0.0
H884 H 0.97889 0.51523 0.75882 0.0
H885 H 0.97955 0.45827 0.76145 0.0
H886 H 0.97455 0.42567 0.73617 0.0
H887 H 0.0423 0.44435 0.75949 0.0
H888 H 0.04733 0.47689 0.78491 0.0
H889 H 0.0089 0.502 0.75279 0.0
H890 H 0.98996 0.45083 0.82869 0.0
H891 H 0.98961 0.42569 0.86498 0.0
H892 H 0.05836 0.47418 0.88785 0.0
H893 H 0.05877 0.49949 0.85153 0.0
C894 C 0.02403 0.54646 0.83365 0.0
C895 C 0.04273 0.55973 0.85139 0.0
C896 C 0.04265 0.57506 0.86984 0.0
C897 C 0.02397 0.57749 0.87067 0.0
C898 C 0.00577 0.56517 0.85193 0.0
C899 C 0.00569 0.54957 0.83375 0.0
C900 C 0.02279 0.52787 0.81744 0.0
C901 C 0.02636 0.51273 0.83233 0.0
C902 C 0.01647 0.52396 0.78837 0.0
C903 C 0.01317 0.53966 0.77126 0.0
C904 C 0.0305 0.56199 0.76916 0.0
C905 C 0.02704 0.57693 0.75387 0.0
C906 C 0.00619 0.56974 0.74056 0.0
C907 C 0.98895 0.54737 0.74228 0.0
C908 C 0.99247 0.53239 0.75739 0.0
C909 C 0.01377 0.46991 0.77515 0.0
C910 C 0.99334 0.45536 0.76109 0.0
C911 C 0.99046 0.43681 0.74676 0.0
C912 C 0.00807 0.43271 0.74602 0.0
C913 C 0.02854 0.44729 0.75992 0.0
C914 C 0.03136 0.46575 0.77444 0.0
C915 C 0.0168 0.4896 0.79025 0.0
C916 C 0.01351 0.50486 0.77516 0.0
C917 C 0.02323 0.49356 0.81924 0.0
C918 C 0.02441 0.47701 0.83739 0.0
C919 C 0.00519 0.45583 0.84089 0.0
C920 C 0.00495 0.44153 0.86161 0.0
C921 C 0.02391 0.44821 0.87911 0.0
C922 C 0.04361 0.46881 0.87449 0.0
C923 C 0.0438 0.4832 0.85388 0.0
H924 H 0.43192 0.49891 0.86177 0.0
H925 H 0.40903 0.46964 0.89594 0.0
H926 H 0.42998 0.42787 0.85882 0.0
H927 H 0.45353 0.45747 0.82503 0.0
H928 H 0.47771 0.51718 0.86246 0.0
H929 H 0.41606 0.47279 0.79215 0.0
H930 H 0.39393 0.43709 0.76699 0.0
H931 H 0.45482 0.44596 0.73166 0.0
H932 H 0.47696 0.48109 0.75717 0.0
H933 H 0.52128 0.53253 0.75599 0.0
H934 H 0.55634 0.56168 0.73523 0.0
H935 H 0.54954 0.61131 0.77859 0.0
H936 H 0.51404 0.58197 0.79951 0.0
H937 H 0.47978 0.51899 0.75736 0.0
H938 H 0.54139 0.55311 0.81847 0.0
H939 H 0.57232 0.57643 0.85058 0.0
H940 H 0.52547 0.57486 0.9108 0.0
H941 H 0.4948 0.555 0.8763 0.0
C942 C 0.44434 0.48037 0.84073 0.0
C943 C 0.43125 0.4833 0.86055 0.0
C944 C 0.41819 0.46664 0.87999 0.0
C945 C 0.41793 0.44672 0.87987 0.0
C946 C 0.42994 0.44315 0.85906 0.0
C947 C 0.44327 0.45998 0.83976 0.0
C948 C 0.46125 0.49972 0.82409 0.0
C949 C 0.47792 0.51809 0.83944 0.0
C950 C 0.46237 0.49975 0.79412 0.0
C951 C 0.4482 0.47952 0.7768 0.0
C952 C 0.42462 0.46713 0.77885 0.0
C953 C 0.41201 0.44691 0.7644 0.0
C954 C 0.42286 0.43909 0.74753 0.0
C955 C 0.44623 0.4519 0.74446 0.0
C956 C 0.4588 0.47192 0.759 0.0
C957 C 0.51514 0.55504 0.77959 0.0
C958 C 0.52686 0.54967 0.76045 0.0
C959 C 0.54691 0.56627 0.74865 0.0
C960 C 0.55552 0.58852 0.75565 0.0
C961 C 0.54307 0.59415 0.77307 0.0
C962 C 0.52294 0.57746 0.78502 0.0
C963 C 0.49624 0.53699 0.79574 0.0
C964 C 0.47923 0.51879 0.7804 0.0
C965 C 0.49605 0.53636 0.82593 0.0
C966 C 0.51547 0.55261 0.84419 0.0
C967 C 0.53768 0.55897 0.83754 0.0
C968 C 0.55546 0.57195 0.85631 0.0
C969 C 0.5513 0.5772 0.88337 0.0
C970 C 0.52922 0.57112 0.89006 0.0
C971 C 0.51164 0.55952 0.8704 0.0
H972 H 0.60934 0.8344 0.49416 0.0
H973 H 0.61712 0.86207 0.45788 0.0
H974 H 0.66739 0.91311 0.51278 0.0
H975 H 0.66303 0.88511 0.54643 0.0
H976 H 0.63293 0.82075 0.50359 0.0
H977 H 0.60831 0.85461 0.57269 0.0
H978 H 0.61259 0.88663 0.59887 0.0
H979 H 0.67577 0.89958 0.63417 0.0
H980 H 0.67171 0.86784 0.60797 0.0
H981 H 0.67607 0.8169 0.60443 0.0
H982 H 0.68463 0.79094 0.62757 0.0
H983 H 0.62246 0.73585 0.59461 0.0
H984 H 0.61356 0.76174 0.5719 0.0
H985 H 0.64315 0.82546 0.60814 0.0
H986 H 0.67037 0.79674 0.53582 0.0
H987 H 0.67218 0.77168 0.50151 0.0
H988 H 0.60551 0.75129 0.47082 0.0
H989 H 0.60347 0.77598 0.50534 0.0
C990 C 0.63569 0.85727 0.52333 0.0
C991 C 0.62217 0.85151 0.49854 0.0
C992 C 0.62634 0.86739 0.47787 0.0
C993 C 0.64312 0.8897 0.48231 0.0
C994 C 0.65455 0.89595 0.50866 0.0
C995 C 0.65166 0.87984 0.52833 0.0
C996 C 0.63537 0.83945 0.54103 0.0
C997 C 0.63428 0.82156 0.52659 0.0
C998 C 0.63831 0.84067 0.57106 0.0
C999 C 0.63975 0.85891 0.58823 0.0
C1000 C 0.62302 0.86427 0.58616 0.0
C1001 C 0.62542 0.88245 0.60107 0.0
C1002 C 0.64453 0.89541 0.61829 0.0
C1003 C 0.66093 0.88973 0.62097 0.0
C1004 C 0.65854 0.87159 0.60613 0.0
C1005 C 0.64427 0.79125 0.58624 0.0
C1006 C 0.6641 0.79925 0.60252 0.0
C1007 C 0.66905 0.78451 0.61557 0.0
C1008 C 0.65421 0.7616 0.61254 0.0
C1009 C 0.6341 0.75353 0.59699 0.0
C1010 C 0.62908 0.76826 0.58404 0.0
C1011 C 0.64018 0.80702 0.57045 0.0
C1012 C 0.64073 0.82446 0.58524 0.0
C1013 C 0.63661 0.80542 0.54075 0.0
C1014 C 0.63673 0.78815 0.52319 0.0
C1015 C 0.6559 0.78642 0.52229 0.0
C1016 C 0.65697 0.7722 0.50273 0.0
C1017 C 0.63898 0.75975 0.48371 0.0
C1018 C 0.61948 0.76074 0.48544 0.0
C1019 C 0.61837 0.77486 0.50501 0.0
H1020 H 0.16845 0.76688 0.50218 0.0
H1021 H 0.13771 0.74181 0.46949 0.0
H1022 H 0.09785 0.76797 0.49889 0.0
H1023 H 0.1283 0.79269 0.53175 0.0
H1024 H 0.18829 0.81424 0.49767 0.0
H1025 H 0.14964 0.7559 0.56848 0.0
H1026 H 0.11351 0.72951 0.5907 0.0
H1027 H 0.10891 0.78399 0.62244 0.0
H1028 H 0.14461 0.81033 0.59994 0.0
H1029 H 0.2089 0.87726 0.553 0.0
H1030 H 0.23132 0.91182 0.57972 0.0
H1031 H 0.25477 0.87973 0.63612 0.0
H1032 H 0.23263 0.84501 0.60886 0.0
H1033 H 0.18635 0.82196 0.60209 0.0
H1034 H 0.19662 0.85976 0.49808 0.0
H1035 H 0.22199 0.88631 0.46274 0.0
H1036 H 0.27513 0.87674 0.49238 0.0
H1037 H 0.24977 0.85052 0.52857 0.0
C1038 C 0.15058 0.78154 0.51944 0.0
C1039 C 0.15289 0.76683 0.50201 0.0
C1040 C 0.13541 0.75256 0.48345 0.0
C1041 C 0.11566 0.75325 0.48166 0.0
C1042 C 0.11299 0.76726 0.49997 0.0
C1043 C 0.13031 0.78129 0.51873 0.0
C1044 C 0.17009 0.79894 0.53591 0.0
C1045 C 0.18816 0.81563 0.52062 0.0
C1046 C 0.16957 0.80107 0.56571 0.0
C1047 C 0.14971 0.78507 0.58236 0.0
C1048 C 0.14099 0.76216 0.58051 0.0
C1049 C 0.12051 0.74715 0.59322 0.0
C1050 C 0.1087 0.75495 0.60802 0.0
C1051 C 0.11793 0.77779 0.61112 0.0
C1052 C 0.1383 0.79276 0.59839 0.0
C1053 C 0.21956 0.8587 0.57847 0.0
C1054 C 0.21936 0.87775 0.57055 0.0
C1055 C 0.23191 0.89738 0.58596 0.0
C1056 C 0.24461 0.8982 0.60978 0.0
C1057 C 0.24504 0.8793 0.61772 0.0
C1058 C 0.23251 0.85961 0.60218 0.0
C1059 C 0.20438 0.83741 0.56373 0.0
C1060 C 0.18708 0.82003 0.57934 0.0
C1061 C 0.20493 0.83507 0.53403 0.0
C1062 C 0.22139 0.85325 0.5158 0.0
C1063 C 0.21389 0.86378 0.49742 0.0
C1064 C 0.22833 0.87892 0.47738 0.0
C1065 C 0.25036 0.88341 0.47499 0.0
C1066 C 0.25822 0.87355 0.4941 0.0
C1067 C 0.2438 0.85863 0.51461 0.0
H1068 H 0.15166 0.33905 0.48964 0.0
H1069 H 0.12333 0.33985 0.45934 0.0
H1070 H 0.12958 0.39401 0.50859 0.0
H1071 H 0.15838 0.39349 0.53903 0.0
H1072 H 0.19364 0.36642 0.4997 0.0
H1073 H 0.12809 0.32999 0.55297 0.0
H1074 H 0.09388 0.32244 0.57698 0.0
H1075 H 0.13362 0.37728 0.63399 0.0
H1076 H 0.16812 0.38521 0.60954 0.0
H1077 H 0.23648 0.38626 0.60718 0.0
H1078 H 0.26069 0.3779 0.63646 0.0
H1079 H 0.22895 0.31277 0.59882 0.0
H1080 H 0.20474 0.32106 0.56968 0.0
H1081 H 0.18497 0.35781 0.60423 0.0
H1082 H 0.24982 0.39337 0.52622 0.0
H1083 H 0.274 0.3905 0.49102 0.0
H1084 H 0.22459 0.32094 0.48022 0.0
H1085 H 0.20036 0.3239 0.51492 0.0
C1086 C 0.15714 0.36618 0.51667 0.0
C1087 C 0.1472 0.3513 0.49383 0.0
C1088 C 0.131 0.35169 0.47661 0.0
C1089 C 0.12442 0.36694 0.48185 0.0
C1090 C 0.1345 0.38211 0.50434 0.0
C1091 C 0.1508 0.38174 0.52168 0.0
C1092 C 0.17378 0.36488 0.53532 0.0
C1093 C 0.19175 0.36472 0.52258 0.0
C1094 C 0.17122 0.36224 0.56514 0.0
C1095 C 0.15061 0.3584 0.57919 0.0
C1096 C 0.12949 0.34068 0.57029 0.0
C1097 C 0.11001 0.33629 0.58402 0.0
C1098 C 0.11136 0.34934 0.60711 0.0
C1099 C 0.13239 0.36712 0.6161 0.0
C1100 C 0.15196 0.37157 0.60225 0.0
C1101 C 0.21915 0.35439 0.58601 0.0
C1102 C 0.23476 0.37021 0.60528 0.0
C1103 C 0.24846 0.36544 0.62196 0.0
C1104 C 0.24648 0.34474 0.6197 0.0
C1105 C 0.23063 0.32881 0.60077 0.0
C1106 C 0.21701 0.3336 0.58405 0.0
C1107 C 0.20458 0.3593 0.56843 0.0
C1108 C 0.18713 0.36026 0.58145 0.0
C1109 C 0.20675 0.36138 0.53868 0.0
C1110 C 0.22348 0.35879 0.52321 0.0
C1111 C 0.2446 0.37738 0.51696 0.0
C1112 C 0.25834 0.37574 0.49698 0.0
C1113 C 0.25101 0.3555 0.48317 0.0
C1114 C 0.23055 0.33662 0.49088 0.0
C1115 C 0.21679 0.3383 0.51063 0.0
C1116 C 0.96289 0.37638 0.11278 0.0
C1117 C 0.97669 0.38733 0.08906 0.0
C1118 C 0.99102 0.4234 0.11197 0.0
C1119 C 0.97791 0.41244 0.13619 0.0
N1120 N 0.95438 0.37877 0.16209 0.0
N1121 N 0.00682 0.42071 0.06779 0.0
C1122 C 0.96473 0.38896 0.13733 0.0
C1123 C 0.99178 0.41066 0.08931 0.0
N1124 N 0.9478 0.35404 0.11159 0.0
N1125 N 0.00177 0.44598 0.1099 0.0
H1126 H 0.00729 0.41223 0.05005 0.0
H1127 H 0.02001 0.43718 0.06848 0.0
H1128 H 0.00179 0.45605 0.12601 0.0
H1129 H 0.00921 0.45472 0.09137 0.0
H1130 H 0.93547 0.34538 0.12672 0.0
H1131 H 0.94681 0.34425 0.09448 0.0
H1132 H 0.94626 0.36174 0.16534 0.0
H1133 H 0.95542 0.38758 0.18034 0.0
C1134 C 0.60185 0.58617 0.09166 0.0
C1135 C 0.62569 0.59765 0.0913 0.0
C1136 C 0.62637 0.58609 0.14031 0.0
C1137 C 0.60261 0.57199 0.13899 0.0
N1138 N 0.56759 0.55675 0.11261 0.0
N1139 N 0.66106 0.60872 0.11447 0.0
C1140 C 0.59024 0.57176 0.11463 0.0
C1141 C 0.63811 0.59782 0.11552 0.0
N1142 N 0.59028 0.58879 0.06983 0.0
N1143 N 0.63754 0.58837 0.16537 0.0
H1144 H 0.67014 0.61838 0.09713 0.0
H1145 H 0.67104 0.60743 0.13006 0.0
H1146 H 0.62928 0.57996 0.18381 0.0
H1147 H 0.65461 0.59984 0.16859 0.0
H1148 H 0.57311 0.58284 0.07041 0.0
H1149 H 0.59808 0.59852 0.05203 0.0
H1150 H 0.55818 0.55386 0.09401 0.0
H1151 H 0.5583 0.5458 0.12885 0.0
C1152 C 0.4271 0.03425 0.08333 0.0
C1153 C 0.40461 0.01981 0.09211 0.0
C1154 C 0.41746 0.02015 0.14092 0.0
C1155 C 0.44004 0.03363 0.13183 0.0
N1156 N 0.46634 0.05852 0.09729 0.0
N1157 N 0.37777 0.00428 0.12981 0.0
C1158 C 0.44481 0.04245 0.10394 0.0
C1159 C 0.39963 0.0146 0.12122 0.0
N1160 N 0.43162 0.03896 0.05513 0.0
N1161 N 0.41313 0.01161 0.16781 0.0
H1162 H 0.36448 0.00021 0.11566 0.0
H1163 H 0.37302 0.00165 0.15102 0.0
H1164 H 0.42574 0.01572 0.18304 0.0
H1165 H 0.39717 -0.00044 0.17468 0.0
H1166 H 0.44779 0.04712 0.04689 0.0
H1167 H 0.41902 0.03369 0.03959 0.0
H1168 H 0.47076 0.06706 0.07809 0.0
H1169 H 0.47954 0.06472 0.11212 0.0
C1170 C 0.3674 0.95857 0.93838 0.0
C1171 C 0.37441 0.97925 0.95149 0.0
C1172 C 0.39838 0.99801 0.91059 0.0
C1173 C 0.39558 0.97766 0.90152 0.0
N1174 N 0.37859 0.93823 0.90897 0.0
N1175 N 0.39955 0.01929 0.95106 0.0
C1176 C 0.38014 0.95773 0.9157 0.0
C1177 C 0.3904 0.99924 0.93767 0.0
N1178 N 0.34846 0.93976 0.94739 0.0
N1179 N 0.4091 0.01623 0.89352 0.0
H1180 H 0.3957 0.02125 0.97169 0.0
H1181 H 0.4129 0.03387 0.94273 0.0
H1182 H 0.41493 0.01564 0.87343 0.0
H1183 H 0.40995 0.03105 0.89802 0.0
H1184 H 0.34161 0.92458 0.93697 0.0
H1185 H 0.3382 0.93997 0.96317 0.0
H1186 H 0.36939 0.92384 0.92094 0.0
H1187 H 0.38794 0.93677 0.89301 0.0
C1188 C 0.01559 0.42699 0.9551 0.0
C1189 C 0.01112 0.40534 0.95033 0.0
C1190 C 0.02126 0.4143 0.90029 0.0
C1191 C 0.02204 0.43455 0.90416 0.0
N1192 N 0.01816 0.45966 0.93474 0.0
N1193 N 0.0093 0.37772 0.91889 0.0
C1194 C 0.01907 0.44096 0.93153 0.0
C1195 C 0.01419 0.39889 0.92313 0.0
N1196 N 0.01651 0.43414 0.98229 0.0
N1197 N 0.02739 0.40997 0.87484 0.0
H1198 H 0.00489 0.36635 0.93541 0.0
H1199 H 0.00855 0.37108 0.89894 0.0
H1200 H 0.03257 0.42098 0.85779 0.0
H1201 H 0.02913 0.39644 0.87132 0.0
H1202 H 0.02183 0.45046 0.98748 0.0
H1203 H 0.01408 0.42418 0.99994 0.0
H1204 H 0.01336 0.46371 0.95348 0.0
H1205 H 0.02049 0.47039 0.91808 0.0
C1206 C 0.6026 0.58937 0.92757 0.0
C1207 C 0.6041 0.60488 0.94785 0.0
C1208 C 0.57412 0.60602 0.92144 0.0
C1209 C 0.56968 0.58716 0.90538 0.0
N1210 N 0.57645 0.55703 0.90068 0.0
N1211 N 0.58704 0.62448 0.96682 0.0
C1212 C 0.58297 0.57767 0.91058 0.0
C1213 C 0.58877 0.61241 0.94558 0.0
N1214 N 0.62012 0.58624 0.92364 0.0
N1215 N 0.56492 0.61817 0.91339 0.0
H1216 H 0.59598 0.62818 0.98594 0.0
H1217 H 0.57468 0.62856 0.96673 0.0
H1218 H 0.55506 0.61469 0.89503 0.0
H1219 H 0.56923 0.63308 0.9232 0.0
H1220 H 0.61992 0.57598 0.90767 0.0
H1221 H 0.6358 0.59609 0.93351 0.0
H1222 H 0.58515 0.54916 0.90594 0.0
H1223 H 0.56104 0.54677 0.89044 0.0
C1224 C 0.03352 0.6277 0.91269 0.0
C1225 C 0.025 0.61765 0.93941 0.0
C1226 C 0.01199 0.58097 0.9192 0.0
C1227 C 0.02269 0.59125 0.89334 0.0
N1228 N 0.04416 0.62405 0.86498 0.0
N1229 N 0.0078 0.58524 0.96938 0.0
C1230 C 0.03349 0.61454 0.88987 0.0
C1231 C 0.01443 0.59438 0.94294 0.0
N1232 N 0.04123 0.64971 0.90916 0.0
N1233 N -0.00052 0.55834 0.92104 0.0
H1234 H 0.00883 0.59435 0.98729 0.0
H1235 H 0.00266 0.5689 0.97416 0.0
H1236 H 0.99815 0.54786 0.90464 0.0
H1237 H 0.98906 0.54981 0.93802 0.0
H1238 H 0.0458 0.65779 0.88966 0.0
H1239 H 0.04149 0.65968 0.9256 0.0
H1240 H 0.05448 0.64106 0.862 0.0
H1241 H 0.04354 0.61477 0.84746 0.0
C1242 C 0.40895 0.42134 0.95332 0.0
C1243 C 0.3853 0.40628 0.95267 0.0
C1244 C 0.38341 0.41539 0.90273 0.0
C1245 C 0.40697 0.43086 0.90361 0.0
N1246 N 0.44298 0.44596 0.92734 0.0
N1247 N 0.35049 0.38559 0.92628 0.0
C1248 C 0.42001 0.43292 0.92817 0.0
C1249 C 0.37268 0.40215 0.92711 0.0
N1250 N 0.42068 0.42499 0.97832 0.0
N1251 N 0.37129 0.41397 0.87888 0.0
H1252 H 0.34214 0.37599 0.94398 0.0
H1253 H 0.34069 0.38026 0.9078 0.0
H1254 H 0.37883 0.42272 0.86032 0.0
H1255 H 0.3538 0.40495 0.87767 0.0
H1256 H 0.43733 0.43771 0.98144 0.0
H1257 H 0.41346 0.41577 0.99668 0.0
H1258 H 0.45369 0.44643 0.94332 0.0
H1259 H 0.45167 0.45535 0.90968 0.0
C1260 C 0.60343 0.99237 0.9092 0.0
C1261 C 0.59788 0.98631 0.93801 0.0
C1262 C 0.55797 0.96371 0.92484 0.0
C1263 C 0.56323 0.97343 0.89747 0.0
N1264 N 0.5907 0.99645 0.86259 0.0
N1265 N 0.57014 0.96593 0.97389 0.0
C1266 C 0.58594 0.98724 0.88912 0.0
C1267 C 0.57525 0.97144 0.94596 0.0
N1268 N 0.62546 0.00307 0.90125 0.0
N1269 N 0.53636 0.9473 0.93054 0.0
H1270 H 0.58238 0.9709 0.98985 0.0
H1271 H 0.55379 0.95741 0.98155 0.0
H1272 H 0.52347 0.94147 0.91529 0.0
H1273 H 0.53163 0.93814 0.94926 0.0
H1274 H 0.63063 0.00638 0.88022 0.0
H1275 H 0.6385 0.00681 0.91569 0.0
H1276 H 0.60674 0.00874 0.85631 0.0
H1277 H 0.57832 0.99253 0.84709 0.0
C1278 C 0.63437 0.03591 0.1014 0.0
C1279 C 0.62123 0.02421 0.0772 0.0
C1280 C 0.58666 0.01473 0.10189 0.0
C1281 C 0.59968 0.02578 0.12654 0.0
N1282 N 0.63515 0.0435 0.15186 0.0
N1283 N 0.58501 0.99868 0.05591 0.0
C1284 C 0.62336 0.03534 0.12694 0.0
C1285 C 0.5974 0.01234 0.07799 0.0
N1286 N 0.65732 0.04799 0.09968 0.0
N1287 N 0.56424 0.00758 0.10072 0.0
H1288 H 0.59226 0.99689 0.03767 0.0
H1289 H 0.56767 0.98768 0.05663 0.0
H1290 H 0.55559 0.00896 0.11769 0.0
H1291 H 0.5545 0.00187 0.0822 0.0
H1292 H 0.66788 0.05887 0.11545 0.0
H1293 H 0.66584 0.04807 0.08158 0.0
H1294 H 0.65211 0.04883 0.15435 0.0
H1295 H 0.62749 0.04331 0.17084 0.0
C1296 C 0.9817 0.59098 0.09036 0.0
C1297 C 0.00466 0.60691 0.08457 0.0
C1298 C 0.01611 0.5916 0.12314 0.0
C1299 C 0.99336 0.5776 0.13135 0.0
N1300 N 0.95518 0.56955 0.12722 0.0
N1301 N 0.04254 0.62757 0.10438 0.0
C1302 C 0.97631 0.57905 0.11641 0.0
C1303 C 0.02153 0.60892 0.1038 0.0
N1304 N 0.96512 0.5861 0.07074 0.0
N1305 N 0.03248 0.58779 0.13221 0.0
H1306 H 0.04666 0.64171 0.09262 0.0
H1307 H 0.05474 0.62994 0.11945 0.0
H1308 H 0.02911 0.5739 0.14397 0.0
H1309 H 0.04894 0.59698 0.1248 0.0
H1310 H 0.94851 0.5732 0.07351 0.0
H1311 H 0.96818 0.59299 0.05051 0.0
H1312 H 0.94276 0.57173 0.11808 0.0
H1313 H 0.95096 0.56173 0.14697 0.0
C1314 C 0.42512 0.39149 0.085 0.0
C1315 C 0.4031 0.38582 0.09254 0.0
C1316 C 0.41499 0.39493 0.14249 0.0
C1317 C 0.43759 0.40389 0.13408 0.0
N1318 N 0.46465 0.4094 0.09878 0.0
N1319 N 0.37589 0.3795 0.12806 0.0
C1320 C 0.44272 0.40136 0.10581 0.0
C1321 C 0.39763 0.38643 0.12134 0.0
N1322 N 0.42919 0.38784 0.05785 0.0
N1323 N 0.41034 0.39489 0.17065 0.0
H1324 H 0.36267 0.3719 0.11328 0.0
H1325 H 0.37079 0.38148 0.1479 0.0
H1326 H 0.42281 0.40138 0.18645 0.0
H1327 H 0.3942 0.38733 0.17883 0.0
H1328 H 0.44434 0.38991 0.05126 0.0
H1329 H 0.41681 0.38128 0.04195 0.0
H1330 H 0.47025 0.41054 0.07813 0.0
H1331 H 0.47765 0.41562 0.1139 0.0
C1332 C 0.62894 0.71223 0.43572 0.0
C1333 C 0.64207 0.72418 0.41196 0.0
C1334 C 0.65373 0.75939 0.43562 0.0
C1335 C 0.64131 0.74749 0.45987 0.0
N1336 N 0.62028 0.71312 0.48536 0.0
N1337 N 0.67016 0.75877 0.39089 0.0
C1338 C 0.62985 0.72402 0.46063 0.0
C1339 C 0.65557 0.74766 0.41251 0.0
N1340 N 0.61531 0.68967 0.43419 0.0
N1341 N 0.66279 0.7818 0.43405 0.0
H1342 H 0.67141 0.75087 0.373 0.0
H1343 H 0.68231 0.77562 0.39163 0.0
H1344 H 0.66198 0.79113 0.45053 0.0
H1345 H 0.66961 0.79099 0.41562 0.0
H1346 H 0.60341 0.68013 0.44942 0.0
H1347 H 0.615 0.6805 0.41672 0.0
H1348 H 0.61352 0.69622 0.48828 0.0
H1349 H 0.62067 0.72135 0.5039 0.0
C1350 C 0.26579 0.90084 0.39863 0.0
C1351 C 0.2861 0.92171 0.40175 0.0
C1352 C 0.28299 0.91797 0.45364 0.0
C1353 C 0.26393 0.89626 0.4502 0.0
N1354 N 0.2408 0.86499 0.41946 0.0
N1355 N 0.3164 0.94836 0.43206 0.0
C1356 C 0.2565 0.88705 0.42268 0.0
C1357 C 0.29542 0.92982 0.42925 0.0
N1358 N 0.25454 0.89467 0.37309 0.0
N1359 N 0.28878 0.92751 0.47999 0.0
H1360 H 0.32618 0.95719 0.4147 0.0
H1361 H 0.32494 0.95378 0.45147 0.0
H1362 H 0.28015 0.91925 0.4983 0.0
H1363 H 0.301 0.94414 0.48337 0.0
H1364 H 0.23852 0.88061 0.37058 0.0
H1365 H 0.25991 0.90477 0.35514 0.0
H1366 H 0.23647 0.85703 0.39978 0.0
H1367 H 0.23386 0.85416 0.43661 0.0
C1368 C 0.06634 0.34833 0.45208 0.0
C1369 C 0.07186 0.35329 0.42305 0.0
C1370 C 0.11193 0.37498 0.43579 0.0
C1371 C 0.10649 0.3662 0.46365 0.0
N1372 N 0.07883 0.34526 0.49934 0.0
N1373 N 0.09955 0.37192 0.38665 0.0
C1374 C 0.08375 0.35347 0.47231 0.0
C1375 C 0.09456 0.36727 0.41476 0.0
N1376 N 0.04439 0.33858 0.46006 0.0
N1377 N 0.13376 0.39047 0.42956 0.0
H1378 H 0.08721 0.36703 0.37083 0.0
H1379 H 0.11582 0.37971 0.37877 0.0
H1380 H 0.14671 0.39627 0.44472 0.0
H1381 H 0.13874 0.39897 0.41036 0.0
H1382 H 0.03925 0.33607 0.48111 0.0
H1383 H 0.03144 0.33485 0.44547 0.0
H1384 H 0.06265 0.33371 0.50606 0.0
H1385 H 0.09118 0.34926 0.51492 0.0
C1386 C 0.06086 0.32953 0.26961 0.0
C1387 C 0.04381 0.31008 0.28336 0.0
C1388 C 0.04844 0.28708 0.24871 0.0
C1389 C 0.0648 0.30651 0.23442 0.0
N1390 N 0.08072 0.34545 0.22577 0.0
N1391 N 0.01631 0.27089 0.27977 0.0
C1392 C 0.06887 0.32747 0.24296 0.0
C1393 C 0.03592 0.28901 0.27083 0.0
N1394 N 0.07086 0.34974 0.28273 0.0
N1395 N 0.04572 0.26698 0.24257 0.0
H1396 H 0.0062 0.2719 0.29508 0.0
H1397 H 0.00887 0.25552 0.26969 0.0
H1398 H 0.05483 0.26474 0.22702 0.0
H1399 H 0.03576 0.25284 0.25467 0.0
H1400 H 0.08489 0.36384 0.27455 0.0
H1401 H 0.06696 0.35217 0.30312 0.0
H1402 H 0.08254 0.36077 0.22984 0.0
H1403 H 0.08657 0.3443 0.20594 0.0
C1404 C 0.68093 0.73442 0.24556 0.0
C1405 C 0.67783 0.74133 0.27243 0.0
C1406 C 0.68623 0.7768 0.2525 0.0
C1407 C 0.68932 0.76997 0.2255 0.0
N1408 N 0.6945 0.74476 0.19729 0.0
N1409 N 0.68314 0.77063 0.30342 0.0
C1410 C 0.68829 0.74954 0.22237 0.0
C1411 C 0.68241 0.7631 0.2765 0.0
N1412 N 0.67582 0.71312 0.24197 0.0
N1413 N 0.68561 0.79572 0.25495 0.0
H1414 H 0.68045 0.76088 0.32138 0.0
H1415 H 0.68853 0.78704 0.30815 0.0
H1416 H 0.68829 0.8063 0.23796 0.0
H1417 H 0.68075 0.80013 0.27334 0.0
H1418 H 0.67512 0.70618 0.22225 0.0
H1419 H 0.67113 0.70193 0.25876 0.0
H1420 H 0.69611 0.73109 0.19435 0.0
H1421 H 0.69986 0.75553 0.17997 0.0
C1422 C 0.24277 0.94706 0.28202 0.0
C1423 C 0.26419 0.95265 0.27182 0.0
C1424 C 0.24879 0.94185 0.2235 0.0
C1425 C 0.22722 0.93552 0.2339 0.0
N1426 N 0.20481 0.93796 0.27033 0.0
N1427 N 0.28913 0.96189 0.23236 0.0
C1428 C 0.22467 0.94025 0.2623 0.0
C1429 C 0.26768 0.95226 0.24229 0.0
N1430 N 0.23925 0.94667 0.31058 0.0
N1431 N 0.25101 0.93673 0.19625 0.0
H1432 H 0.30324 0.96984 0.24578 0.0
H1433 H 0.293 0.96393 0.21085 0.0
H1434 H 0.23766 0.92943 0.18167 0.0
H1435 H 0.26578 0.93851 0.18851 0.0
H1436 H 0.22339 0.94011 0.31937 0.0
H1437 H 0.25201 0.9516 0.3258 0.0
H1438 H 0.20245 0.94301 0.29004 0.0
H1439 H 0.19133 0.93295 0.25615 0.0
C1440 C 0.70377 0.95979 0.24036 0.0
C1441 C 0.69196 0.94844 0.26519 0.0
C1442 C 0.67978 0.91268 0.24271 0.0
C1443 C 0.691 0.92396 0.21752 0.0
N1444 N 0.71024 0.95758 0.19019 0.0
N1445 N 0.66544 0.91429 0.28863 0.0
C1446 C 0.70196 0.94736 0.21568 0.0
C1447 C 0.67879 0.92494 0.26582 0.0
N1448 N 0.71704 0.9824 0.24064 0.0
N1449 N 0.67118 0.89038 0.24515 0.0
H1450 H 0.66502 0.92254 0.30668 0.0
H1451 H 0.65344 0.89739 0.28887 0.0
H1452 H 0.67144 0.88068 0.22876 0.0
H1453 H 0.66533 0.88169 0.26412 0.0
H1454 H 0.72812 0.99162 0.2245 0.0
H1455 H 0.71782 0.992 0.25787 0.0
H1456 H 0.71653 0.97433 0.18659 0.0
H1457 H 0.70919 0.94887 0.17182 0.0
C1458 C 0.02672 0.74085 0.25801 0.0
C1459 C 0.03975 0.7435 0.28276 0.0
C1460 C 0.07376 0.77265 0.25961 0.0
C1461 C 0.06096 0.76947 0.2344 0.0
N1462 N 0.02635 0.74857 0.20764 0.0
N1463 N 0.07605 0.75826 0.30553 0.0
C1464 C 0.03772 0.75292 0.233 0.0
C1465 C 0.06341 0.75827 0.28302 0.0
N1466 N 0.00382 0.72734 0.25877 0.0
N1467 N 0.09556 0.79003 0.26164 0.0
H1468 H 0.06901 0.74811 0.32324 0.0
H1469 H 0.09356 0.76681 0.30563 0.0
H1470 H 0.10395 0.80092 0.24495 0.0
H1471 H 0.10486 0.7948 0.28055 0.0
H1472 H 0.99306 0.72647 0.24258 0.0
H1473 H 0.99539 0.71785 0.27652 0.0
H1474 H 0.00996 0.73533 0.20439 0.0
H1475 H 0.03395 0.75731 0.1891 0.0
C1476 C 0.2701 0.3178 0.24099 0.0
C1477 C 0.26406 0.31155 0.26965 0.0
C1478 C 0.22454 0.28806 0.25511 0.0
C1479 C 0.23012 0.29813 0.22798 0.0
N1480 N 0.25802 0.32181 0.19392 0.0
N1481 N 0.23575 0.29022 0.30457 0.0
C1482 C 0.25293 0.3124 0.22032 0.0
C1483 C 0.24138 0.29605 0.27683 0.0
N1484 N 0.29231 0.329 0.23379 0.0
N1485 N 0.20301 0.27115 0.26004 0.0
H1486 H 0.24767 0.29543 0.32098 0.0
H1487 H 0.21923 0.28117 0.31162 0.0
H1488 H 0.19046 0.26516 0.24431 0.0
H1489 H 0.19811 0.26178 0.27859 0.0
H1490 H 0.2979 0.33254 0.21294 0.0
H1491 H 0.30511 0.33292 0.2487 0.0
H1492 H 0.27408 0.33441 0.18812 0.0
H1493 H 0.24588 0.31768 0.17802 0.0
C1494 C 0.29442 0.35486 0.43525 0.0
C1495 C 0.28385 0.35216 0.4083 0.0
C1496 C 0.25329 0.35392 0.43043 0.0
C1497 C 0.26278 0.35474 0.4576 0.0
N1498 N 0.29053 0.35295 0.48659 0.0
N1499 N 0.25075 0.34383 0.38094 0.0
C1500 C 0.28284 0.35433 0.46025 0.0
C1501 C 0.26257 0.3502 0.40608 0.0
N1502 N 0.31579 0.35878 0.43686 0.0
N1503 N 0.2358 0.35738 0.42775 0.0
H1504 H 0.25662 0.34027 0.36271 0.0
H1505 H 0.23413 0.33984 0.37894 0.0
H1506 H 0.22849 0.36031 0.44503 0.0
H1507 H 0.2299 0.35942 0.40822 0.0
H1508 H 0.32532 0.36321 0.45558 0.0
H1509 H 0.32472 0.35925 0.419 0.0
H1510 H 0.3037 0.35025 0.48989 0.0
H1511 H 0.28261 0.35289 0.50527 0.0
C1512 C 0.64181 0.92011 0.41554 0.0
C1513 C 0.66523 0.9348 0.41084 0.0
C1514 C 0.6737 0.91849 0.45117 0.0
C1515 C 0.65058 0.90585 0.4583 0.0
N1516 N 0.61338 0.89983 0.45103 0.0
N1517 N 0.70249 0.95353 0.43257 0.0
C1518 C 0.6348 0.90829 0.44169 0.0
C1519 C 0.68089 0.9358 0.43131 0.0
N1520 N 0.62626 0.91637 0.39487 0.0
N1521 N 0.68874 0.91337 0.46185 0.0
H1522 H 0.70797 0.96774 0.42032 0.0
H1523 H 0.71384 0.95522 0.44851 0.0
H1524 H 0.68401 0.89934 0.47414 0.0
H1525 H 0.70544 0.92151 0.4553 0.0
H1526 H 0.60925 0.90429 0.39677 0.0
H1527 H 0.63051 0.92343 0.37474 0.0
H1528 H 0.60188 0.9028 0.44071 0.0
H1529 H 0.608 0.89201 0.47067 0.0
C1530 C 0.0589 0.71495 0.44598 0.0
C1531 C 0.06392 0.72216 0.41743 0.0
C1532 C 0.10336 0.74807 0.43034 0.0
C1533 C 0.09848 0.74089 0.45903 0.0
N1534 N 0.07317 0.71437 0.4932 0.0
N1535 N 0.09138 0.74072 0.38091 0.0
C1536 C 0.07669 0.72324 0.46653 0.0
C1537 C 0.08638 0.73704 0.40913 0.0
N1538 N 0.03702 0.70083 0.45355 0.0
N1539 N 0.12365 0.76639 0.4236 0.0
H1540 H 0.0792 0.7328 0.36494 0.0
H1541 H 0.10776 0.74978 0.37334 0.0
H1542 H 0.1365 0.77535 0.43845 0.0
H1543 H 0.12713 0.77388 0.4037 0.0
H1544 H 0.0318 0.69693 0.47451 0.0
H1545 H 0.02382 0.69373 0.43869 0.0
H1546 H 0.05823 0.70027 0.49938 0.0
H1547 H 0.08594 0.72009 0.5086 0.0
C1548 C 0.29102 0.04036 0.77919 0.0
C1549 C 0.30429 0.05213 0.75544 0.0
C1550 C 0.31711 0.08751 0.7794 0.0
C1551 C 0.30451 0.07576 0.80362 0.0
N1552 N 0.28258 0.04143 0.82891 0.0
N1553 N 0.33299 0.0865 0.73443 0.0
C1554 C 0.29239 0.05226 0.80422 0.0
C1555 C 0.31839 0.07558 0.75612 0.0
N1556 N 0.27686 0.01787 0.77758 0.0
N1557 N 0.32683 0.11002 0.77799 0.0
H1558 H 0.33375 0.07858 0.71625 0.0
H1559 H 0.34558 0.1032 0.73531 0.0
H1560 H 0.32648 0.11952 0.7946 0.0
H1561 H 0.33377 0.11921 0.75959 0.0
H1562 H 0.26487 0.00852 0.7928 0.0
H1563 H 0.27625 0.00859 0.76006 0.0
H1564 H 0.27528 0.02444 0.83172 0.0
H1565 H 0.28329 0.04976 0.8475 0.0
C1566 C 0.96822 0.2634 0.767 0.0
C1567 C 0.95554 0.25733 0.74123 0.0
C1568 C 0.92343 0.2261 0.7648 0.0
C1569 C 0.9357 0.23268 0.79089 0.0
N1570 N 0.96815 0.25908 0.81831 0.0
N1571 N 0.91982 0.23613 0.71663 0.0
C1572 C 0.95764 0.25184 0.79245 0.0
C1573 C 0.93277 0.23958 0.74042 0.0
N1574 N 0.99054 0.27959 0.76687 0.0
N1575 N 0.90305 0.20663 0.76315 0.0
H1576 H 0.92601 0.24573 0.69832 0.0
H1577 H 0.90248 0.22511 0.7158 0.0
H1578 H 0.89513 0.19657 0.78068 0.0
H1579 H 0.89466 0.19956 0.74405 0.0
H1580 H 0.00137 0.28323 0.7842 0.0
H1581 H 0.99871 0.28851 0.74866 0.0
H1582 H 0.98316 0.27415 0.8214 0.0
H1583 H 0.96099 0.25067 0.83719 0.0
C1584 C 0.76078 0.70691 0.75703 0.0
C1585 C 0.73817 0.69213 0.76526 0.0
C1586 C 0.75056 0.69131 0.81399 0.0
C1587 C 0.77319 0.70519 0.8054 0.0
N1588 N 0.79972 0.73131 0.77204 0.0
N1589 N 0.71097 0.67559 0.80248 0.0
C1590 C 0.7782 0.71482 0.77798 0.0
C1591 C 0.7329 0.68617 0.79416 0.0
N1592 N 0.76576 0.71213 0.72902 0.0
N1593 N 0.74601 0.68207 0.84049 0.0
H1594 H 0.6978 0.67187 0.78829 0.0
H1595 H 0.70603 0.6724 0.8236 0.0
H1596 H 0.75851 0.686 0.85582 0.0
H1597 H 0.73003 0.66971 0.84687 0.0
H1598 H 0.78209 0.72056 0.72127 0.0
H1599 H 0.75348 0.70689 0.71306 0.0
H1600 H 0.80422 0.74044 0.75329 0.0
H1601 H 0.81273 0.73727 0.78713 0.0
C1602 C 0.7327 0.64739 0.63068 0.0
C1603 C 0.71362 0.64956 0.62848 0.0
C1604 C 0.71707 0.65174 0.57651 0.0
C1605 C 0.73478 0.64748 0.57886 0.0
N1606 N 0.75589 0.6361 0.60766 0.0
N1607 N 0.68535 0.65041 0.59927 0.0
C1608 C 0.74144 0.64367 0.60581 0.0
C1609 C 0.70514 0.65083 0.60135 0.0
N1610 N 0.74338 0.65019 0.65632 0.0
N1611 N 0.7121 0.65723 0.55073 0.0
H1612 H 0.67605 0.64949 0.61696 0.0
H1613 H 0.67718 0.6491 0.58003 0.0
H1614 H 0.72025 0.65763 0.53211 0.0
H1615 H 0.70109 0.6629 0.54813 0.0
H1616 H 0.75872 0.65107 0.65849 0.0
H1617 H 0.73836 0.65412 0.675 0.0
H1618 H 0.75943 0.63084 0.62666 0.0
H1619 H 0.76258 0.63296 0.58989 0.0
C1620 C 0.33961 0.09308 0.62013 0.0
C1621 C 0.33725 0.07219 0.61583 0.0
C1622 C 0.34931 0.08212 0.56648 0.0
C1623 C 0.34831 0.10149 0.56971 0.0
N1624 N 0.34086 0.12488 0.59881 0.0
N1625 N 0.33902 0.04601 0.58519 0.0
C1626 C 0.34328 0.10699 0.59642 0.0
C1627 C 0.34219 0.06657 0.58917 0.0
N1628 N 0.33856 0.09965 0.64703 0.0
N1629 N 0.35722 0.07875 0.5418 0.0
H1630 H 0.33443 0.03449 0.60157 0.0
H1631 H 0.33973 0.03986 0.56545 0.0
H1632 H 0.36236 0.0898 0.52479 0.0
H1633 H 0.36039 0.06607 0.53897 0.0
H1634 H 0.34236 0.11556 0.65206 0.0
H1635 H 0.33598 0.08979 0.66483 0.0
H1636 H 0.33456 0.12817 0.6168 0.0
H1637 H 0.34356 0.13567 0.58206 0.0
C1638 C 0.9089 0.26494 0.61559 0.0
C1639 C 0.93133 0.2802 0.60732 0.0
C1640 C 0.91905 0.27886 0.55796 0.0
C1641 C 0.89679 0.2625 0.56586 0.0
N1642 N 0.86934 0.24267 0.60231 0.0
N1643 N 0.95756 0.30549 0.57311 0.0
C1644 C 0.89131 0.25659 0.59482 0.0
C1645 C 0.93631 0.28847 0.57923 0.0
N1646 N 0.90471 0.25766 0.64311 0.0
N1647 N 0.9237 0.28451 0.52997 0.0
H1648 H 0.97038 0.31271 0.58845 0.0
H1649 H 0.96219 0.31358 0.55363 0.0
H1650 H 0.91118 0.27864 0.51421 0.0
H1651 H 0.93985 0.29437 0.52203 0.0
H1652 H 0.88941 0.24453 0.65016 0.0
H1653 H 0.91702 0.26444 0.65911 0.0
H1654 H 0.86382 0.23943 0.62318 0.0
H1655 H 0.85611 0.23515 0.58762 0.0
C1656 C 0.36583 0.29311 0.58124 0.0
C1657 C 0.35365 0.28156 0.60578 0.0
C1658 C 0.34041 0.24595 0.5822 0.0
C1659 C 0.35232 0.25747 0.55747 0.0
N1660 N 0.37281 0.29144 0.5311 0.0
N1661 N 0.32597 0.24738 0.62815 0.0
C1662 C 0.36393 0.28093 0.55627 0.0
C1663 C 0.33971 0.2581 0.60567 0.0
N1664 N 0.37956 0.31568 0.5821 0.0
N1665 N 0.33089 0.22348 0.58391 0.0
H1666 H 0.32575 0.25547 0.64646 0.0
H1667 H 0.31349 0.23062 0.62786 0.0
H1668 H 0.3308 0.21383 0.56719 0.0
H1669 H 0.32451 0.21447 0.60256 0.0
H1670 H 0.39092 0.32497 0.56624 0.0
H1671 H 0.38034 0.32515 0.59949 0.0
H1672 H 0.37971 0.30833 0.52791 0.0
H1673 H 0.3717 0.28289 0.51255 0.0
C1674 C 0.72636 0.06941 0.60349 0.0
C1675 C 0.71009 0.07192 0.61804 0.0
C1676 C 0.71537 0.10071 0.58429 0.0
C1677 C 0.73109 0.0977 0.56927 0.0
N1678 N 0.74606 0.07457 0.55939 0.0
N1679 N 0.68392 0.08448 0.61644 0.0
C1680 C 0.73464 0.08039 0.57712 0.0
C1681 C 0.70288 0.08579 0.60647 0.0
N1682 N 0.73524 0.05802 0.61562 0.0
N1683 N 0.71329 0.11852 0.57873 0.0
H1684 H 0.67391 0.07314 0.632 0.0
H1685 H 0.67681 0.09282 0.60706 0.0
H1686 H 0.72241 0.13021 0.56312 0.0
H1687 H 0.70391 0.12274 0.59133 0.0
H1688 H 0.74889 0.05786 0.60716 0.0
H1689 H 0.73059 0.05047 0.63545 0.0
H1690 H 0.74742 0.06076 0.5628 0.0
H1691 H 0.75209 0.08221 0.53976 0.0
C1692 C 0.93218 0.65248 0.57812 0.0
C1693 C 0.92682 0.64759 0.60719 0.0
C1694 C 0.88665 0.62685 0.59496 0.0
C1695 C 0.89208 0.63571 0.56714 0.0
N1696 N 0.91964 0.65605 0.53113 0.0
N1697 N 0.89931 0.62937 0.64388 0.0
C1698 C 0.91476 0.64786 0.55817 0.0
C1699 C 0.90413 0.63405 0.61574 0.0
N1700 N 0.95401 0.66169 0.56986 0.0
N1701 N 0.86474 0.6118 0.60139 0.0
H1702 H 0.91174 0.63389 0.6595 0.0
H1703 H 0.88313 0.62191 0.65199 0.0
H1704 H 0.85172 0.6064 0.58639 0.0
H1705 H 0.8597 0.60327 0.62056 0.0
H1706 H 0.95898 0.66413 0.54874 0.0
H1707 H 0.96695 0.66503 0.58427 0.0
H1708 H 0.93587 0.66724 0.5242 0.0
H1709 H 0.90724 0.6524 0.51575 0.0
C1710 C 0.94083 0.6726 0.76113 0.0
C1711 C 0.95764 0.69175 0.74664 0.0
C1712 C 0.95418 0.71549 0.78126 0.0
C1713 C 0.93804 0.69635 0.79625 0.0
N1714 N 0.92207 0.65753 0.80582 0.0
N1715 N 0.98557 0.73089 0.74907 0.0
C1716 C 0.93359 0.6752 0.78805 0.0
C1717 C 0.96606 0.71305 0.75876 0.0
N1718 N 0.93032 0.65218 0.74851 0.0
N1719 N 0.95723 0.73577 0.78709 0.0
H1720 H 0.99525 0.7295 0.73347 0.0
H1721 H 0.99338 0.74641 0.75881 0.0
H1722 H 0.94856 0.73839 0.80288 0.0
H1723 H 0.96701 0.74968 0.77453 0.0
H1724 H 0.91644 0.63829 0.75733 0.0
H1725 H 0.93361 0.64936 0.72798 0.0
H1726 H 0.92 0.64208 0.80193 0.0
H1727 H 0.91678 0.65908 0.82585 0.0
C1728 C 0.3081 0.25223 0.75772 0.0
C1729 C 0.33133 0.26773 0.75278 0.0
C1730 C 0.34116 0.25159 0.79202 0.0
C1731 C 0.31816 0.23808 0.79945 0.0
N1732 N 0.28039 0.23087 0.79351 0.0
N1733 N 0.36879 0.28735 0.7739 0.0
C1734 C 0.30178 0.24007 0.78363 0.0
C1735 C 0.34751 0.2691 0.77268 0.0
N1736 N 0.29214 0.24803 0.73746 0.0
N1737 N 0.35689 0.24713 0.80189 0.0
H1738 H 0.37362 0.30164 0.76208 0.0
H1739 H 0.3805 0.28929 0.78946 0.0
H1740 H 0.35283 0.23306 0.81373 0.0
H1741 H 0.37353 0.25594 0.79508 0.0
H1742 H 0.27533 0.23542 0.73954 0.0
H1743 H 0.2959 0.25522 0.71738 0.0
H1744 H 0.26844 0.23346 0.78377 0.0
H1745 H 0.27548 0.22284 0.81308 0.0
C1746 C 0.73176 0.05029 0.78534 0.0
C1747 C 0.73607 0.04983 0.7561 0.0
C1748 C 0.77556 0.06315 0.76752 0.0
C1749 C 0.77211 0.06785 0.79556 0.0
N1750 N 0.74704 0.06585 0.83189 0.0
N1751 N 0.76183 0.05537 0.71875 0.0
C1752 C 0.75013 0.06097 0.8049 0.0
C1753 C 0.75782 0.05563 0.74704 0.0
N1754 N 0.71002 0.04051 0.79421 0.0
N1755 N 0.79593 0.06613 0.76058 0.0
H1756 H 0.74917 0.04954 0.70323 0.0
H1757 H 0.77786 0.06198 0.71043 0.0
H1758 H 0.80913 0.07164 0.77533 0.0
H1759 H 0.79908 0.06127 0.74124 0.0
H1760 H 0.70549 0.03851 0.8155 0.0
H1761 H 0.69631 0.03244 0.78017 0.0
H1762 H 0.73194 0.06371 0.8389 0.0
H1763 H 0.75999 0.07323 0.84703 0.0
C1764 C 0.03762 0.32603 0.05925 0.0
C1765 C 0.04662 0.3419 0.03704 0.0
C1766 C 0.08332 0.3454 0.04333 0.0
C1767 C 0.07481 0.33108 0.06717 0.0
N1768 N 0.04499 0.3099 0.10036 0.0
N1769 N 0.0783 0.36861 0.00961 0.0
C1770 C 0.05227 0.32202 0.07588 0.0
C1771 C 0.06954 0.35205 0.02941 0.0
N1772 N 0.01489 0.31409 0.06362 0.0
N1773 N 0.10442 0.3523 0.03377 0.0
H1774 H 0.06862 0.37371 0.9988 0.0
H1775 H 0.0954 0.37839 0.00529 0.0
H1776 H 0.1152 0.34828 0.04396 0.0
H1777 H 0.11073 0.36072 0.01472 0.0
H1778 H 0.00703 0.30063 0.07737 0.0
H1779 H 0.00351 0.31628 0.05161 0.0
H1780 H 0.02962 0.30506 0.10964 0.0
H1781 H 0.05502 0.30603 0.11271 0.0
C1782 C 0.67784 0.72745 0.01548 0.0
C1783 C 0.65899 0.70671 0.02359 0.0
C1784 C 0.65014 0.72506 0.06063 0.0
C1785 C 0.6678 0.74594 0.05094 0.0
N1786 N 0.69539 0.76738 0.01533 0.0
N1787 N 0.6242 0.68639 0.04928 0.0
C1788 C 0.68072 0.74726 0.02716 0.0
C1789 C 0.64423 0.7057 0.04482 0.0
N1790 N 0.69371 0.72828 0.9979 0.0
N1791 N 0.63957 0.72359 0.08553 0.0
H1792 H 0.61896 0.67201 0.0375 0.0
H1793 H 0.61181 0.68528 0.06252 0.0
H1794 H 0.64362 0.73735 0.09802 0.0
H1795 H 0.62826 0.70856 0.09513 0.0
H1796 H 0.70899 0.7428 0.99387 0.0
H1797 H 0.69267 0.7142 0.98942 0.0
H1798 H 0.70349 0.76913 0.9962 0.0
H1799 H 0.69786 0.78226 0.0232 0.0
C1800 C 0.27235 0.92932 0.04732 0.0
C1801 C 0.29006 0.94808 0.0616 0.0
C1802 C 0.2637 0.94587 0.09728 0.0
C1803 C 0.24656 0.92582 0.08466 0.0
N1804 N 0.23492 0.89661 0.05009 0.0
N1805 N 0.30368 0.97256 0.10228 0.0
C1806 C 0.25094 0.91705 0.06026 0.0
C1807 C 0.28603 0.95602 0.08709 0.0
N1808 N 0.27583 0.92367 0.02099 0.0
N1809 N 0.2585 0.95535 0.1187 0.0
H1810 H 0.32034 0.98035 0.09569 0.0
H1811 H 0.30212 0.97734 0.12258 0.0
H1812 H 0.24232 0.94823 0.12687 0.0
H1813 H 0.2697 0.97111 0.1268 0.0
H1814 H 0.26297 0.91163 0.00818 0.0
H1815 H 0.29131 0.93234 0.01081 0.0
H1816 H 0.23801 0.88823 0.03445 0.0
H1817 H 0.21892 0.88718 0.05879 0.0
C1818 C 0.32926 0.04618 0.97124 0.0
C1819 C 0.32837 0.04453 0.00135 0.0
C1820 C 0.318 0.07265 0.00366 0.0
C1821 C 0.32078 0.07559 0.97385 0.0
N1822 N 0.33297 0.06824 0.92979 0.0
N1823 N 0.32581 0.05873 0.04669 0.0
C1824 C 0.32761 0.06328 0.95778 0.0
C1825 C 0.3238 0.05847 0.01773 0.0
N1826 N 0.33049 0.03073 0.95536 0.0
N1827 N 0.30921 0.08292 0.01839 0.0
H1828 H 0.33034 0.04879 0.05771 0.0
H1829 H 0.325 0.07017 0.05962 0.0
H1830 H 0.30495 0.09358 0.00883 0.0
H1831 H 0.30445 0.07952 0.03956 0.0
H1832 H 0.32868 0.0297 0.93332 0.0
H1833 H 0.33117 0.01757 0.96423 0.0
H1834 H 0.34045 0.06153 0.91784 0.0
H1835 H 0.33177 0.08053 0.91907 0.0
C1836 C 0.93654 0.27583 0.00332 0.0
C1837 C 0.94633 0.29487 0.98575 0.0
C1838 C 0.93547 0.27162 0.94308 0.0
C1839 C 0.92621 0.25254 0.96062 0.0
N1840 N 0.92109 0.23617 0.00701 0.0
N1841 N 0.95946 0.31158 0.93975 0.0
C1842 C 0.92773 0.25457 0.99068 0.0
C1843 C 0.94713 0.29296 0.95586 0.0
N1844 N 0.9351 0.27807 0.03191 0.0
N1845 N 0.93228 0.26933 0.91425 0.0
H1846 H 0.96801 0.32756 0.94829 0.0
H1847 H 0.96281 0.31119 0.91835 0.0
H1848 H 0.92419 0.25401 0.90394 0.0
H1849 H 0.9362 0.28247 0.90062 0.0
H1850 H 0.92602 0.26478 0.0456 0.0
H1851 H 0.94194 0.29347 0.04183 0.0
H1852 H 0.92368 0.23668 0.02889 0.0
H1853 H 0.91447 0.22039 0.99833 0.0
C1854 C 0.73394 0.6534 0.00068 0.0
C1855 C 0.71712 0.65597 0.98725 0.0
C1856 C 0.74435 0.68074 0.95198 0.0
C1857 C 0.76007 0.67556 0.96297 0.0
N1858 N 0.76972 0.65575 0.99633 0.0
N1859 N 0.7053 0.67015 0.94833 0.0
C1860 C 0.75494 0.66172 0.98712 0.0
C1861 C 0.72209 0.66937 0.96261 0.0
N1862 N 0.72995 0.64341 0.02668 0.0
N1863 N 0.75079 0.69661 0.93145 0.0
H1864 H 0.68867 0.6619 0.9551 0.0
H1865 H 0.70738 0.67751 0.92849 0.0
H1866 H 0.76696 0.7051 0.92304 0.0
H1867 H 0.74085 0.70277 0.92457 0.0
H1868 H 0.74227 0.64297 0.0389 0.0
H1869 H 0.71477 0.63732 0.03728 0.0
H1870 H 0.76581 0.64362 0.01163 0.0
H1871 H 0.78548 0.66185 0.98732 0.0
C1872 C 0.96686 0.67808 0.97213 0.0
C1873 C 0.95813 0.66336 0.99558 0.0
C1874 C 0.92187 0.66086 0.98984 0.0
C1875 C 0.93007 0.67413 0.96504 0.0
N1876 N 0.95908 0.6931 0.93017 0.0
N1877 N 0.92708 0.63883 0.02538 0.0
C1878 C 0.95221 0.68207 0.95547 0.0
C1879 C 0.93556 0.65426 0.00415 0.0
N1880 N 0.98939 0.68896 0.96651 0.0
N1881 N 0.90115 0.65493 0.99993 0.0
H1882 H 0.93682 0.63398 0.03657 0.0
H1883 H 0.91014 0.62974 0.0307 0.0
H1884 H 0.89042 0.65889 0.98948 0.0
H1885 H 0.89513 0.64736 0.01951 0.0
H1886 H 0.99723 0.70174 0.95179 0.0
H1887 H 0.00076 0.6866 0.97826 0.0
H1888 H 0.974 0.69699 0.92035 0.0
H1889 H 0.9491 0.697 0.91777 0.0
C1890 C 0.3228 0.26971 0.01566 0.0
C1891 C 0.32659 0.28816 0.99913 0.0
C1892 C 0.32349 0.26795 0.95549 0.0
C1893 C 0.31761 0.24885 0.97191 0.0
N1894 N 0.30768 0.23013 0.01712 0.0
N1895 N 0.32561 0.30313 0.95322 0.0
C1896 C 0.31608 0.24931 0.00189 0.0
C1897 C 0.32561 0.28684 0.96899 0.0
N1898 N 0.32656 0.27192 0.04438 0.0
N1899 N 0.32773 0.26831 0.92714 0.0
H1900 H 0.32639 0.31694 0.96221 0.0
H1901 H 0.32255 0.30185 0.93137 0.0
H1902 H 0.32639 0.25481 0.9164 0.0
H1903 H 0.33451 0.28262 0.91484 0.0
H1904 H 0.32637 0.25974 0.05709 0.0
H1905 H 0.33199 0.28673 0.05521 0.0
H1906 H 0.30393 0.229 0.03864 0.0
H1907 H 0.30254 0.21486 0.00773 0.0
C1908 C 0.71603 0.04554 0.94943 0.0
C1909 C 0.71178 0.05395 0.97433 0.0
C1910 C 0.75057 0.08559 0.97491 0.0
C1911 C 0.75505 0.07675 0.95066 0.0
N1912 N 0.74387 0.04645 0.91815 0.0
N1913 N 0.72575 0.07899 0.01427 0.0
C1914 C 0.73833 0.05607 0.93901 0.0
C1915 C 0.72932 0.07309 0.98816 0.0
N1916 N 0.6986 0.0283 0.93482 0.0
N1917 N 0.76628 0.10633 0.98454 0.0
H1918 H 0.71037 0.07006 0.02464 0.0
H1919 H 0.73849 0.09145 0.02678 0.0
H1920 H 0.78219 0.11592 0.97566 0.0
H1921 H 0.76303 0.11473 0.99998 0.0
H1922 H 0.70027 0.02316 0.91481 0.0
H1923 H 0.68196 0.02014 0.94157 0.0
H1924 H 0.73306 0.03036 0.91079 0.0
H1925 H 0.76003 0.05388 0.90984 0.0
C1926 C 0.64122 0.93282 0.04 0.0
C1927 C 0.65553 0.947 0.01832 0.0
C1928 C 0.67825 0.92991 0.02238 0.0
C1929 C 0.66572 0.91794 0.0465 0.0
N1930 N 0.63773 0.91094 0.08145 0.0
N1931 N 0.69027 0.96198 0.99247 0.0
C1932 C 0.64784 0.92017 0.0562 0.0
C1933 C 0.67472 0.94629 0.01031 0.0
N1934 N 0.62093 0.93088 0.0445 0.0
N1935 N 0.69317 0.92531 0.01062 0.0
H1936 H 0.68883 0.97477 0.98382 0.0
H1937 H 0.70572 0.9636 0.98844 0.0
H1938 H 0.69611 0.9133 0.01877 0.0
H1939 H 0.70102 0.9319 0.99131 0.0
H1940 H 0.60887 0.91915 0.05812 0.0
H1941 H 0.61515 0.93936 0.03245 0.0
H1942 H 0.62626 0.91405 0.09098 0.0
H1943 H 0.64234 0.90185 0.09427 0.0
C1944 C 0.0584 0.71414 0.0704 0.0
C1945 C 0.05758 0.71238 0.04032 0.0
C1946 C 0.07201 0.75211 0.03598 0.0
C1947 C 0.07526 0.75421 0.0659 0.0
N1948 N 0.07352 0.73799 0.11175 0.0
N1949 N 0.06411 0.72912 0.99404 0.0
C1950 C 0.06887 0.73541 0.08319 0.0
C1951 C 0.06435 0.73119 0.02293 0.0
N1952 N 0.04852 0.69538 0.08672 0.0
N1953 N 0.07603 0.77009 0.02025 0.0
H1954 H 0.05817 0.71392 0.98393 0.0
H1955 H 0.07096 0.74247 0.98009 0.0
H1956 H 0.08186 0.78563 0.02928 0.0
H1957 H 0.07209 0.76936 0.99873 0.0
H1958 H 0.0463 0.69544 0.10854 0.0
H1959 H 0.04073 0.67942 0.0782 0.0
H1960 H 0.07194 0.72539 0.12488 0.0
H1961 H 0.08042 0.75319 0.12221 0.0
C1962 C 0.285 0.33532 0.077 0.0
C1963 C 0.29148 0.34921 0.05269 0.0
C1964 C 0.25457 0.3456 0.05079 0.0
C1965 C 0.24787 0.33115 0.07452 0.0
N1966 N 0.25458 0.3086 0.10672 0.0
N1967 N 0.28137 0.36392 0.01288 0.0
C1968 C 0.26243 0.3248 0.08646 0.0
C1969 C 0.2759 0.35323 0.03848 0.0
N1970 N 0.3007 0.33316 0.092 0.0
N1971 N 0.24092 0.35273 0.04078 0.0
H1972 H 0.29684 0.36961 0.00324 0.0
H1973 H 0.26996 0.36541 1.00002 0.0
H1974 H 0.22497 0.34716 0.04886 0.0
H1975 H 0.24595 0.36527 0.02578 0.0
H1976 H 0.29763 0.32542 0.11171 0.0
H1977 H 0.31746 0.34061 0.08593 0.0
H1978 H 0.26359 0.30159 0.11421 0.0
H1979 H 0.23817 0.30073 0.11433 0.0
C1980 C 0.735 0.68732 0.35794 0.0
C1981 C 0.71208 0.67826 0.36479 0.0
C1982 C 0.71591 0.65871 0.40553 0.0
C1983 C 0.7385 0.6668 0.39783 0.0
N1984 N 0.7689 0.68605 0.36482 0.0
N1985 N 0.67934 0.65199 0.39121 0.0
C1986 C 0.74787 0.6803 0.37342 0.0
C1987 C 0.70213 0.66301 0.38752 0.0
N1988 N 0.74462 0.70316 0.33731 0.0
N1989 N 0.70781 0.64737 0.43044 0.0
H1990 H 0.66859 0.6545 0.37829 0.0
H1991 H 0.67076 0.63893 0.40539 0.0
H1992 H 0.71721 0.64337 0.44385 0.0
H1993 H 0.69241 0.64333 0.43891 0.0
H1994 H 0.76181 0.71223 0.33335 0.0
H1995 H 0.73555 0.70838 0.32528 0.0
H1996 H 0.7758 0.69384 0.34559 0.0
H1997 H 0.77897 0.68161 0.37602 0.0
C1998 C 0.34288 0.06234 0.35749 0.0
C1999 C 0.32389 0.0412 0.36389 0.0
C2000 C 0.31447 0.05755 0.403 0.0
C2001 C 0.33193 0.07894 0.39454 0.0
N2002 N 0.36018 0.10216 0.36046 0.0
N2003 N 0.28906 0.01931 0.38916 0.0
C2004 C 0.34542 0.08149 0.37082 0.0
C2005 C 0.30897 0.03894 0.38572 0.0
N2006 N 0.3591 0.0641 0.33975 0.0
N2007 N 0.30356 0.05491 0.42798 0.0
H2008 H 0.28404 0.00546 0.37638 0.0
H2009 H 0.27652 0.01743 0.40277 0.0
H2010 H 0.30725 0.06813 0.44135 0.0
H2011 H 0.29236 0.03946 0.4367 0.0
H2012 H 0.37441 0.07884 0.33673 0.0
H2013 H 0.35832 0.05045 0.33023 0.0
H2014 H 0.36864 0.10484 0.34139 0.0
H2015 H 0.36246 0.11662 0.36952 0.0
C2016 C 0.93912 0.27503 0.36907 0.0
C2017 C 0.95741 0.2833 0.38867 0.0
C2018 C 0.93141 0.26787 0.4285 0.0
C2019 C 0.9131 0.25985 0.40895 0.0
N2020 N 0.89897 0.25912 0.36173 0.0
N2021 N 0.97155 0.29215 0.43686 0.0
C2022 C 0.91681 0.26453 0.37952 0.0
C2023 C 0.95372 0.2811 0.41838 0.0
N2024 N 0.94307 0.27642 0.34053 0.0
N2025 N 0.92749 0.26213 0.45657 0.0
H2026 H 0.98815 0.30199 0.43016 0.0
H2027 H 0.96981 0.29316 0.45864 0.0
H2028 H 0.91137 0.25297 0.46502 0.0
H2029 H 0.94011 0.2652 0.47126 0.0
H2030 H 0.93043 0.26856 0.32515 0.0
H2031 H 0.95923 0.28433 0.33215 0.0
H2032 H 0.90063 0.26395 0.34055 0.0
H2033 H 0.88241 0.25125 0.36881 0.0
C2034 C 0.99836 0.38067 0.30216 0.0
C2035 C 0.00112 0.38134 0.33218 0.0
C2036 C 0.99498 0.41234 0.33475 0.0
C2037 C 0.99454 0.41307 0.30463 0.0
N2038 N 0.00024 0.40081 0.25951 0.0
N2039 N 0.00633 0.4004 0.37663 0.0
C2040 C 0.99755 0.39808 0.28827 0.0
C2041 C 0.00059 0.39789 0.34841 0.0
N2042 N 0.99532 0.36285 0.28701 0.0
N2043 N 0.98936 0.42496 0.35031 0.0
H2044 H 0.01106 0.39047 0.38728 0.0
H2045 H 0.00851 0.41363 0.38883 0.0
H2046 H 0.98505 0.43568 0.34106 0.0
H2047 H 0.98704 0.42334 0.3722 0.0
H2048 H 0.99087 0.36046 0.26552 0.0
H2049 H 0.99496 0.34929 0.29636 0.0
H2050 H 0.00491 0.39183 0.24697 0.0
H2051 H -0.00013 0.41345 0.2485 0.0
C2052 C 0.61018 0.62591 0.28563 0.0
C2053 C 0.61381 0.63082 0.3151 0.0
C2054 C 0.59986 0.5918 0.32569 0.0
C2055 C 0.59371 0.58659 0.29666 0.0
N2056 N 0.59093 0.59797 0.24909 0.0
N2057 N 0.61121 0.61886 0.36368 0.0
C2058 C 0.5984 0.60347 0.2766 0.0
C2059 C 0.6086 0.61391 0.33531 0.0
N2060 N 0.6187 0.64277 0.26622 0.0
N2061 N 0.59755 0.57564 0.34388 0.0
H2062 H 0.6178 0.63492 0.3714 0.0
H2063 H 0.60553 0.60698 0.37966 0.0
H2064 H 0.59093 0.55926 0.33745 0.0
H2065 H 0.60371 0.57868 0.36468 0.0
H2066 H 0.61879 0.64033 0.24444 0.0
H2067 H 0.62761 0.65948 0.27199 0.0
H2068 H 0.59136 0.60922 0.23437 0.0
H2069 H 0.58282 0.58179 0.24132 0.0
C2070 C 0.38577 0.00629 0.28287 0.0
C2071 C 0.37912 0.99274 0.30746 0.0
C2072 C 0.41601 0.99648 0.31085 0.0
C2073 C 0.42265 0.00991 0.28613 0.0
N2074 N 0.41624 0.03157 0.25201 0.0
N2075 N 0.38892 0.97919 0.34872 0.0
C2076 C 0.40827 0.01615 0.27328 0.0
C2077 C 0.39464 0.98925 0.32273 0.0
N2078 N 0.37027 0.00881 0.26797 0.0
N2079 N 0.42964 0.98974 0.3221 0.0
H2080 H 0.37334 0.97376 0.35791 0.0
H2081 H 0.40018 0.97801 0.36226 0.0
H2082 H 0.44561 0.995 0.31432 0.0
H2083 H 0.42465 0.97783 0.33797 0.0
H2084 H 0.37323 0.01622 0.24805 0.0
H2085 H 0.35383 0.00236 0.27485 0.0
H2086 H 0.40738 0.03841 0.24345 0.0
H2087 H 0.4326 0.03891 0.2444 0.0
C2088 C 0.62155 0.0089 0.33581 0.0
C2089 C 0.61992 0.98864 0.3285 0.0
C2090 C 0.59219 0.98217 0.29125 0.0
C2091 C 0.59237 0.00136 0.30026 0.0
N2092 N 0.60334 0.0301 0.3353 0.0
N2093 N 0.59985 0.95354 0.30389 0.0
C2094 C 0.60584 0.01382 0.32389 0.0
C2095 C 0.60406 0.97452 0.3076 0.0
N2096 N 0.63888 0.02411 0.35267 0.0
N2097 N 0.58153 0.97177 0.26645 0.0
H2098 H 0.60775 0.94712 0.31607 0.0
H2099 H 0.5869 0.9418 0.29088 0.0
H2100 H 0.57303 0.9771 0.25348 0.0
H2101 H 0.58291 0.95915 0.25739 0.0
H2102 H 0.64214 0.04007 0.35607 0.0
H2103 H 0.6514 0.02175 0.361 0.0
H2104 H 0.61107 0.03816 0.3543 0.0
H2105 H 0.59183 0.03405 0.3273 0.0
C2106 C 0.01809 0.62822 0.31232 0.0
C2107 C 0.00263 0.62679 0.3328 0.0
C2108 C 0.98037 0.58637 0.32689 0.0
C2109 C 0.99448 0.58815 0.30431 0.0
N2110 N 0.02418 0.61119 0.27174 0.0
N2111 N 0.96651 0.60498 0.35537 0.0
C2112 C 0.01261 0.60922 0.2959 0.0
C2113 C 0.98307 0.60598 0.33903 0.0
N2114 N 0.03847 0.64744 0.30936 0.0
N2115 N 0.96479 0.56599 0.33728 0.0
H2116 H 0.9674 0.61897 0.36394 0.0
H2117 H 0.95089 0.59053 0.35809 0.0
H2118 H 0.96232 0.55124 0.32896 0.0
H2119 H 0.95575 0.56381 0.3557 0.0
H2120 H 0.05128 0.6487 0.29684 0.0
H2121 H 0.04349 0.66154 0.32164 0.0
H2122 H 0.03596 0.62642 0.26298 0.0
H2123 H 0.0205 0.5977 0.25892 0.0
C2124 C 0.39385 0.40003 0.32693 0.0
C2125 C 0.37708 0.3813 0.31157 0.0
C2126 C 0.40457 0.38638 0.27575 0.0
C2127 C 0.42121 0.40539 0.2908 0.0
N2128 N 0.43342 0.42844 0.33267 0.0
N2129 N 0.36661 0.35417 0.27429 0.0
C2130 C 0.41638 0.41156 0.31713 0.0
C2131 C 0.38255 0.37359 0.28699 0.0
N2132 N 0.388 0.40703 0.3505 0.0
N2133 N 0.40969 0.38117 0.25011 0.0
H2134 H 0.34993 0.34497 0.28083 0.0
H2135 H 0.37006 0.34634 0.2583 0.0
H2136 H 0.42594 0.3895 0.24197 0.0
H2137 H 0.39782 0.36935 0.23617 0.0
H2138 H 0.39861 0.42198 0.36088 0.0
H2139 H 0.37198 0.39816 0.35927 0.0
H2140 H 0.43164 0.43252 0.35325 0.0
H2141 H 0.44999 0.43762 0.3257 0.0
C2142 C 0.3502 0.28951 0.36116 0.0
C2143 C 0.32885 0.28044 0.34757 0.0
C2144 C 0.32409 0.24373 0.34975 0.0
C2145 C 0.34208 0.25201 0.36985 0.0
N2146 N 0.38025 0.28297 0.37086 0.0
N2147 N 0.29592 0.24884 0.32662 0.0
C2148 C 0.35778 0.27515 0.3692 0.0
C2149 C 0.31604 0.25755 0.34078 0.0
N2150 N 0.36337 0.31175 0.36626 0.0
N2151 N 0.31701 0.22406 0.3364 0.0
H2152 H 0.2896 0.25852 0.31938 0.0
H2153 H 0.2849 0.23184 0.32387 0.0
H2154 H 0.32514 0.21534 0.33979 0.0
H2155 H 0.30536 0.21807 0.31964 0.0
H2156 H 0.37803 0.31863 0.37867 0.0
H2157 H 0.35899 0.32308 0.35951 0.0
H2158 H 0.3926 0.2996 0.36797 0.0
H2159 H 0.38626 0.2722 0.37069 0.0
C2160 C 0.71539 0.04256 0.39522 0.0
C2161 C 0.72626 0.04033 0.3712 0.0
C2162 C 0.75602 0.07963 0.37457 0.0
C2163 C 0.74596 0.08141 0.39962 0.0
N2164 N 0.71697 0.06521 0.43486 0.0
N2165 N 0.7569 0.05582 0.33821 0.0
C2166 C 0.72575 0.06309 0.41007 0.0
C2167 C 0.74656 0.05865 0.36087 0.0
N2168 N 0.69526 0.02494 0.40403 0.0
N2169 N 0.77449 0.0981 0.36382 0.0
H2170 H 0.74971 0.04109 0.32661 0.0
H2171 H 0.77294 0.06761 0.33138 0.0
H2172 H 0.7823 0.11352 0.37385 0.0
H2173 H 0.78148 0.09868 0.34423 0.0
H2174 H 0.68493 0.02614 0.4187 0.0
H2175 H 0.68814 0.00894 0.39596 0.0
H2176 H 0.70396 0.05204 0.44581 0.0
H2177 H 0.7234 0.08028 0.4455 0.0
C2178 C 0.93232 0.68068 0.36929 0.0
C2179 C 0.94857 0.6775 0.38316 0.0
C2180 C 0.9208 0.65391 0.41869 0.0
C2181 C 0.90583 0.65999 0.40737 0.0
N2182 N 0.89727 0.67991 0.37283 0.0
N2183 N 0.95916 0.66209 0.42182 0.0
C2184 C 0.91143 0.67335 0.38267 0.0
C2185 C 0.94297 0.66407 0.40783 0.0
N2186 N 0.93683 0.69048 0.34312 0.0
N2187 N 0.91372 0.63842 0.43981 0.0
H2188 H 0.97552 0.66905 0.4144 0.0
H2189 H 0.95689 0.6548 0.44173 0.0
H2190 H 0.89761 0.63087 0.44832 0.0
H2191 H 0.92298 0.63165 0.44718 0.0
H2192 H 0.92493 0.69141 0.33058 0.0
H2193 H 0.95197 0.69588 0.33275 0.0
H2194 H 0.90159 0.6918 0.35707 0.0
H2195 H 0.88158 0.67448 0.38165 0.0
C2196 C 0.36921 0.9963 0.7243 0.0
C2197 C 0.37785 0.01205 0.70193 0.0
C2198 C 0.41511 0.01693 0.70871 0.0
C2199 C 0.40691 0.00274 0.7327 0.0
N2200 N 0.37721 0.98107 0.76585 0.0
N2201 N 0.40916 0.03916 0.67436 0.0
C2202 C 0.38425 0.99305 0.74124 0.0
C2203 C 0.40084 0.0228 0.69442 0.0
N2204 N 0.34649 0.98377 0.72856 0.0
N2205 N 0.43641 0.02444 0.69937 0.0
H2206 H 0.39909 0.04364 0.66325 0.0
H2207 H 0.42622 0.04935 0.67006 0.0
H2208 H 0.44751 0.02098 0.70983 0.0
H2209 H 0.4426 0.03283 0.68028 0.0
H2210 H 0.33895 0.97037 0.74244 0.0
H2211 H 0.33484 0.98539 0.71633 0.0
H2212 H 0.36169 0.97582 0.77499 0.0
H2213 H 0.38754 0.97775 0.77844 0.0
C2214 C 0.00378 0.37785 0.73139 0.0
C2215 C 0.00031 0.37609 0.70146 0.0
C2216 C 0.00395 0.41244 0.70052 0.0
C2217 C 0.00511 0.4131 0.73065 0.0
N2218 N 0.00176 0.39456 0.77513 0.0
N2219 N 0.99266 0.3896 0.65819 0.0
C2220 C 0.00371 0.39523 0.74622 0.0
C2221 C -0.00082 0.39282 0.68616 0.0
N2222 N 0.00827 0.36364 0.74553 0.0
N2223 N 0.00813 0.4308 0.68556 0.0
H2224 H 0.98848 0.37521 0.64706 0.0
H2225 H 0.98927 0.4002 0.6468 0.0
H2226 H 0.01182 0.44555 0.69529 0.0
H2227 H 0.00992 0.43205 0.66358 0.0
H2228 H 0.01325 0.36566 0.76683 0.0
H2229 H 0.00928 0.35113 0.73542 0.0
H2230 H 0.99828 0.38079 0.78726 0.0
H2231 H 0.00153 0.40694 0.78678 0.0
C2232 C 0.60551 0.62233 0.70808 0.0
C2233 C 0.62343 0.62898 0.72793 0.0
C2234 C 0.59678 0.61213 0.76681 0.0
C2235 C 0.57875 0.60527 0.74701 0.0
N2236 N 0.56563 0.60797 0.70051 0.0
N2237 N 0.63674 0.63599 0.77651 0.0
C2238 C 0.58306 0.61182 0.71814 0.0
C2239 C 0.61922 0.62575 0.75745 0.0
N2240 N 0.60985 0.62502 0.67964 0.0
N2241 N 0.59253 0.6046 0.79419 0.0
H2242 H 0.65342 0.64626 0.77029 0.0
H2243 H 0.63458 0.6361 0.79835 0.0
H2244 H 0.57634 0.59486 0.80214 0.0
H2245 H 0.60501 0.60672 0.80855 0.0
H2246 H 0.59736 0.6183 0.66392 0.0
H2247 H 0.62611 0.6329 0.6716 0.0
H2248 H 0.56775 0.61402 0.67986 0.0
H2249 H 0.54905 0.6003 0.70748 0.0
C2250 C 0.66104 0.72496 0.66612 0.0
C2251 C 0.67026 0.7155 0.64856 0.0
C2252 C 0.67079 0.7378 0.60814 0.0
C2253 C 0.66005 0.74599 0.62512 0.0
N2254 N 0.6428 0.74618 0.669 0.0
N2255 N 0.68256 0.71127 0.60267 0.0
C2256 C 0.6547 0.73935 0.65384 0.0
C2257 C 0.67475 0.72145 0.61948 0.0
N2258 N 0.6583 0.72014 0.69451 0.0
N2259 N 0.6777 0.74612 0.58141 0.0
H2260 H 0.68708 0.70032 0.61057 0.0
H2261 H 0.68355 0.71272 0.58065 0.0
H2262 H 0.67465 0.75774 0.57218 0.0
H2263 H 0.68777 0.74273 0.56897 0.0
H2264 H 0.6542 0.7284 0.70912 0.0
H2265 H 0.66141 0.70865 0.70401 0.0
H2266 H 0.63606 0.74005 0.68892 0.0
H2267 H 0.63828 0.75708 0.66087 0.0
C2268 C 0.25802 0.9426 0.6652 0.0
C2269 C 0.27703 0.96098 0.65263 0.0
C2270 C 0.27776 0.93659 0.61643 0.0
C2271 C 0.25697 0.91898 0.62656 0.0
N2272 N 0.22618 0.90506 0.65931 0.0
N2273 N 0.30369 0.97626 0.61428 0.0
C2274 C 0.24685 0.92186 0.65078 0.0
C2275 C 0.28678 0.95818 0.6279 0.0
N2276 N 0.25097 0.9449 0.69121 0.0
N2277 N 0.28887 0.93261 0.59586 0.0
H2278 H 0.31063 0.99247 0.62153 0.0
H2279 H 0.30962 0.97544 0.59442 0.0
H2280 H 0.28253 0.91698 0.58681 0.0
H2281 H 0.30519 0.94421 0.58964 0.0
H2282 H 0.2386 0.93165 0.70283 0.0
H2283 H 0.25895 0.95986 0.70238 0.0
H2284 H 0.21671 0.90698 0.67464 0.0
H2285 H 0.21777 0.88944 0.64976 0.0
C2286 C 0.0532 0.33907 0.61974 0.0
C2287 C 0.04698 0.32533 0.64416 0.0
C2288 C 0.08432 0.33003 0.64678 0.0
C2289 C 0.09049 0.34358 0.6222 0.0
N2290 N 0.08326 0.36518 0.589 0.0
N2291 N 0.05769 0.31213 0.68497 0.0
C2292 C 0.0757 0.34953 0.60996 0.0
C2293 C 0.06295 0.32226 0.65901 0.0
N2294 N 0.03731 0.34109 0.60502 0.0
N2295 N 0.09844 0.32372 0.65757 0.0
H2296 H 0.04215 0.30638 0.69448 0.0
H2297 H 0.06927 0.31123 0.69821 0.0
H2298 H 0.11447 0.32951 0.64964 0.0
H2299 H 0.09381 0.31172 0.67326 0.0
H2300 H 0.04008 0.34865 0.58522 0.0
H2301 H 0.02075 0.33399 0.61176 0.0
H2302 H 0.07407 0.37183 0.58095 0.0
H2303 H 0.09962 0.37295 0.58128 0.0
C2304 C 0.2982 0.34322 0.64234 0.0
C2305 C 0.28995 0.32937 0.66663 0.0
C2306 C 0.2542 0.32807 0.66229 0.0
C2307 C 0.26164 0.33994 0.63636 0.0
N2308 N 0.28941 0.35656 0.59957 0.0
N2309 N 0.25979 0.30691 0.69874 0.0
C2310 C 0.28331 0.34694 0.6258 0.0
C2311 C 0.26789 0.32141 0.67647 0.0
N2312 N 0.32051 0.35351 0.6357 0.0
N2313 N 0.23426 0.32354 0.67353 0.0
H2314 H 0.26953 0.30202 0.70985 0.0
H2315 H 0.24307 0.29855 0.70503 0.0
H2316 H 0.22367 0.32786 0.66342 0.0
H2317 H 0.22892 0.317 0.69375 0.0
H2318 H 0.32804 0.36567 0.62014 0.0
H2319 H 0.33207 0.35144 0.64748 0.0
H2320 H 0.30387 0.35959 0.58925 0.0
H2321 H 0.27917 0.36004 0.58703 0.0
C2322 C 0.65116 0.93513 0.67718 0.0
C2323 C 0.6559 0.95411 0.66113 0.0
C2324 C 0.65456 0.93501 0.61714 0.0
C2325 C 0.64785 0.91544 0.63295 0.0
N2326 N 0.63601 0.89552 0.67722 0.0
N2327 N 0.65756 0.97063 0.61547 0.0
C2328 C 0.64504 0.9151 0.66277 0.0
C2329 C 0.65639 0.95368 0.63099 0.0
N2330 N 0.65347 0.9365 0.70612 0.0
N2331 N 0.65983 0.936 0.58908 0.0
H2332 H 0.65835 0.98438 0.6247 0.0
H2333 H 0.65554 0.97008 0.59347 0.0
H2334 H 0.65858 0.92264 0.57807 0.0
H2335 H 0.66726 0.9506 0.57732 0.0
H2336 H 0.65258 0.92394 0.71871 0.0
H2337 H 0.65835 0.95099 0.71744 0.0
H2338 H 0.6313 0.89376 0.69842 0.0
H2339 H 0.6314 0.88053 0.66736 0.0
C2340 C 0.06022 0.72346 0.65866 0.0
C2341 C 0.04169 0.71571 0.63952 0.0
C2342 C 0.06715 0.73184 0.5993 0.0
C2343 C 0.08571 0.73946 0.61838 0.0
N2344 N 0.10042 0.73903 0.6648 0.0
N2345 N 0.02693 0.70765 0.59157 0.0
C2346 C 0.08237 0.7341 0.64767 0.0
C2347 C 0.04499 0.7184 0.60977 0.0
N2348 N 0.05665 0.72151 0.68731 0.0
N2349 N 0.07068 0.73822 0.57141 0.0
H2350 H 0.01043 0.6976 0.59855 0.0
H2351 H 0.0284 0.70704 0.56965 0.0
H2352 H 0.08667 0.74762 0.56268 0.0
H2353 H 0.05785 0.73544 0.55725 0.0
H2354 H 0.06951 0.729 0.70248 0.0
H2355 H 0.04062 0.71348 0.69606 0.0
H2356 H 0.09901 0.73372 0.68575 0.0
H2357 H 0.11686 0.74695 0.65729 0.0
C2358 C 0.99491 0.59981 0.68146 0.0
C2359 C 0.99605 0.61751 0.69698 0.0
C2360 C 0.00077 0.60202 0.74134 0.0
C2361 C 0.00223 0.58586 0.72548 0.0
N2362 N 0.00435 0.57142 0.68009 0.0
N2363 N 0.00484 0.63808 0.741 0.0
C2364 C 0.0003 0.5853 0.6954 0.0
C2365 C 0.00021 0.61932 0.72678 0.0
N2366 N 0.98785 0.59636 0.65369 0.0
N2367 N -0.00062 0.60055 0.77031 0.0
H2368 H 0.00551 0.6516 0.73106 0.0
H2369 H 0.01031 0.64119 0.76212 0.0
H2370 H -0.00043 0.58801 0.7818 0.0
H2371 H 0.99589 0.61052 0.7827 0.0
H2372 H 0.98445 0.58238 0.64219 0.0
H2373 H 0.9833 0.60636 0.64289 0.0
H2374 H 0.00559 0.572 0.65804 0.0
H2375 H 0.00843 0.56058 0.68954 0.0
C2376 C 0.39485 0.3767 0.74005 0.0
C2377 C 0.39059 0.37414 0.7103 0.0
C2378 C 0.40365 0.4136 0.70603 0.0
C2379 C 0.41028 0.41653 0.7351 0.0
N2380 N 0.41468 0.40169 0.77933 0.0
N2381 N 0.39208 0.38987 0.66428 0.0
C2382 C 0.40651 0.39829 0.75203 0.0
C2383 C 0.39514 0.3925 0.69308 0.0
N2384 N 0.3869 0.35842 0.75706 0.0
N2385 N 0.40522 0.43094 0.69105 0.0
H2386 H 0.38573 0.3746 0.6542 0.0
H2387 H 0.39724 0.40297 0.65014 0.0
H2388 H 0.41161 0.44662 0.69994 0.0
H2389 H 0.39867 0.42945 0.67062 0.0
H2390 H 0.38727 0.35914 0.77916 0.0
H2391 H 0.37799 0.34223 0.74924 0.0
H2392 H 0.41495 0.3895 0.7915 0.0
H2393 H 0.42273 0.41715 0.78929 0.0
C2394 C 0.61644 0.00318 0.74773 0.0
C2395 C 0.6232 0.01631 0.72273 0.0
C2396 C 0.58702 0.0142 0.72007 0.0
C2397 C 0.58003 0.00061 0.74463 0.0
N2398 N 0.58585 0.97856 0.7788 0.0
N2399 N 0.61375 0.03044 0.68169 0.0
C2400 C 0.59406 0.99392 0.75747 0.0
C2401 C 0.60809 0.02062 0.70783 0.0
N2402 N 0.63174 0.00053 0.76295 0.0
N2403 N 0.57395 0.02172 0.70916 0.0
H2404 H 0.62905 0.03527 0.67209 0.0
H2405 H 0.6026 0.03203 0.66841 0.0
H2406 H 0.55819 0.01703 0.71718 0.0
H2407 H 0.5793 0.03377 0.69342 0.0
H2408 H 0.62864 0.99341 0.78305 0.0
H2409 H 0.64824 0.00689 0.75641 0.0
H2410 H 0.59437 0.9713 0.78717 0.0
H2411 H 0.56959 0.97165 0.78664 0.0
loop_
_geom_bond_atom_site_label_1
_geom_bond_atom_site_label_2
_geom_bond_distance
_geom_bond_site_symmetry_2
_ccdc_geom_bond_type
Zn0 O3 2.031 1_554 S
Zn0 O5 2.049 . S
Zn0 O10 2.067 1_554 S
Zn1 O2 1.962 1_455 S
Zn1 O4 1.986 . S
Zn1 O6 1.996 1_455 S
Zn1 O9 1.943 1_554 S
O2 Zn1 1.962 1_655 S
O2 C7 1.254 1_554 S
O3 Zn0 2.031 1_556 S
O3 C7 1.269 . S
O4 Zn1 1.986 . S
O4 C11 1.262 . S
O5 Zn0 2.049 . S
O5 C13 1.260 . S
O6 Zn1 1.996 1_655 S
O6 C13 1.257 . S
C7 O2 1.254 1_556 S
C7 O3 1.269 . S
C8 O9 1.249 . S
C8 O10 1.270 1_455 S
O9 Zn1 1.943 1_556 S
O9 C8 1.249 . S
O10 Zn0 2.067 1_556 S
O10 C8 1.270 1_655 S
C11 O4 1.262 . S
C11 O12 1.232 . S
O12 C11 1.232 . S
C13 O5 1.260 . S
C13 O6 1.257 . S
Zn14 O17 2.031 1_554 S
Zn14 O19 2.049 . S
Zn14 O24 2.067 1_554 S
Zn15 O16 1.962 . S
Zn15 O18 1.986 . S
Zn15 O20 1.996 . S
Zn15 O23 1.943 1_554 S
O16 Zn15 1.962 . S
O16 C21 1.254 1_554 S
O17 Zn14 2.031 1_556 S
O17 C21 1.269 . S
O18 Zn15 1.986 . S
O18 C25 1.262 . S
O19 Zn14 2.049 . S
O19 C27 1.260 . S
O20 Zn15 1.996 . S
O20 C27 1.257 . S
C21 O16 1.254 1_556 S
C21 O17 1.269 . S
C22 O23 1.249 . S
C22 O24 1.270 . S
O23 Zn15 1.943 1_556 S
O23 C22 1.249 . S
O24 Zn14 2.067 1_556 S
O24 C22 1.270 . S
C25 O18 1.262 . S
C25 O26 1.232 . S
O26 C25 1.232 . S
C27 O19 1.260 . S
C27 O20 1.257 . S
Zn28 O31 2.031 . S
Zn28 O33 2.049 1_554 S
Zn28 O38 2.067 . S
Zn29 O30 1.962 1_545 S
Zn29 O32 1.986 1_554 S
Zn29 O34 1.996 1_544 S
Zn29 O37 1.943 . S
O30 Zn29 1.962 1_565 S
O30 C35 1.254 . S
O31 Zn28 2.031 . S
O31 C35 1.269 . S
O32 Zn29 1.986 1_556 S
O32 C39 1.262 . S
O33 Zn28 2.049 1_556 S
O33 C41 1.260 . S
O34 Zn29 1.996 1_566 S
O34 C41 1.257 . S
C35 O30 1.254 . S
C35 O31 1.269 . S
C36 O37 1.249 . S
C36 O38 1.270 1_545 S
O37 Zn29 1.943 . S
O37 C36 1.249 . S
O38 Zn28 2.067 . S
O38 C36 1.270 1_565 S
C39 O32 1.262 . S
C39 O40 1.232 1_556 S
O40 C39 1.232 1_554 S
C41 O33 1.260 . S
C41 O34 1.257 . S
Zn42 O45 2.031 . S
Zn42 O47 2.049 1_554 S
Zn42 O52 2.067 . S
Zn43 O44 1.962 1_655 S
Zn43 O46 1.986 1_554 S
Zn43 O48 1.996 1_654 S
Zn43 O51 1.943 . S
O44 Zn43 1.962 1_455 S
O44 C49 1.254 . S
O45 Zn42 2.031 . S
O45 C49 1.269 . S
O46 Zn43 1.986 1_556 S
O46 C53 1.262 . S
O47 Zn42 2.049 1_556 S
O47 C55 1.260 . S
O48 Zn43 1.996 1_456 S
O48 C55 1.257 . S
C49 O44 1.254 . S
C49 O45 1.269 . S
C50 O51 1.249 . S
C50 O52 1.270 1_655 S
O51 Zn43 1.943 . S
O51 C50 1.249 . S
O52 Zn42 2.067 . S
O52 C50 1.270 1_455 S
C53 O46 1.262 . S
C53 O54 1.232 1_556 S
O54 C53 1.232 1_554 S
C55 O47 1.260 . S
C55 O48 1.257 . S
Zn56 O59 2.031 . S
Zn56 O61 2.049 1_554 S
Zn56 O66 2.067 . S
Zn57 O58 1.962 . S
Zn57 O60 1.986 1_554 S
Zn57 O62 1.996 1_554 S
Zn57 O65 1.943 . S
O58 Zn57 1.962 . S
O58 C63 1.254 . S
O59 Zn56 2.031 . S
O59 C63 1.269 . S
O60 Zn57 1.986 1_556 S
O60 C67 1.262 . S
O61 Zn56 2.049 1_556 S
O61 C69 1.260 . S
O62 Zn57 1.996 1_556 S
O62 C69 1.257 . S
C63 O58 1.254 . S
C63 O59 1.269 . S
C64 O65 1.249 . S
C64 O66 1.270 . S
O65 Zn57 1.943 . S
O65 C64 1.249 . S
O66 Zn56 2.067 . S
O66 C64 1.270 . S
C67 O60 1.262 . S
C67 O68 1.232 1_556 S
O68 C67 1.232 1_554 S
C69 O61 1.260 . S
C69 O62 1.257 . S
Zn70 O73 2.031 1_554 S
Zn70 O75 2.049 . S
Zn70 O80 2.067 1_554 S
Zn71 O72 1.962 1_565 S
Zn71 O74 1.986 . S
Zn71 O76 1.996 1_565 S
Zn71 O79 1.943 1_554 S
O72 Zn71 1.962 1_545 S
O72 C77 1.254 1_554 S
O73 Zn70 2.031 1_556 S
O73 C77 1.269 . S
O74 Zn71 1.986 . S
O74 C81 1.262 . S
O75 Zn70 2.049 . S
O75 C83 1.260 . S
O76 Zn71 1.996 1_545 S
O76 C83 1.257 . S
C77 O72 1.254 1_556 S
C77 O73 1.269 . S
C78 O79 1.249 . S
C78 O80 1.270 1_565 S
O79 Zn71 1.943 1_556 S
O79 C78 1.249 . S
O80 Zn70 2.067 1_556 S
O80 C78 1.270 1_545 S
C81 O74 1.262 . S
C81 O82 1.232 . S
O82 C81 1.232 . S
C83 O75 1.260 . S
C83 O76 1.257 . S
Zn84 O87 2.031 . S
Zn84 O89 2.049 . S
Zn84 O94 2.067 . S
Zn85 O86 1.962 . S
Zn85 O88 1.986 . S
Zn85 O90 1.996 . S
Zn85 O93 1.943 . S
O86 Zn85 1.962 . S
O86 C91 1.254 . S
O87 Zn84 2.031 . S
O87 C91 1.269 . S
O88 Zn85 1.986 . S
O88 C95 1.262 . S
O89 Zn84 2.049 . S
O89 C97 1.260 . S
O90 Zn85 1.996 . S
O90 C97 1.257 . S
C91 O86 1.254 . S
C91 O87 1.269 . S
C92 O93 1.249 . S
C92 O94 1.270 . S
O93 Zn85 1.943 . S
O93 C92 1.249 . S
O94 Zn84 2.067 . S
O94 C92 1.270 . S
C95 O88 1.262 . S
C95 O96 1.232 . S
O96 C95 1.232 . S
C97 O89 1.260 . S
C97 O90 1.257 . S
Zn98 O101 2.031 . S
Zn98 O103 2.049 . S
Zn98 O108 2.067 . S
Zn99 O100 1.962 . S
Zn99 O102 1.986 1_565 S
Zn99 O104 1.996 . S
Zn99 O107 1.943 . S
O100 Zn99 1.962 . S
O100 C105 1.254 . S
O101 Zn98 2.031 . S
O101 C105 1.269 . S
O102 Zn99 1.986 1_545 S
O102 C109 1.262 . S
O103 Zn98 2.049 . S
O103 C111 1.260 . S
O104 Zn99 1.996 . S
O104 C111 1.257 . S
C105 O100 1.254 . S
C105 O101 1.269 . S
C106 O107 1.249 . S
C106 O108 1.270 . S
O107 Zn99 1.943 . S
O107 C106 1.249 . S
O108 Zn98 2.067 . S
O108 C106 1.270 . S
C109 O102 1.262 . S
C109 O110 1.232 . S
O110 C109 1.232 . S
C111 O103 1.260 . S
C111 O104 1.257 . S
Zn112 O115 2.049 . S
Zn112 O117 2.049 . S
Zn112 O122 2.067 . S
Zn113 O114 1.962 1_455 S
Zn113 O116 1.986 . S
Zn113 O118 1.996 . S
Zn113 O121 1.943 . S
O114 Zn113 1.962 1_655 S
O114 C119 1.254 . S
O115 Zn112 2.049 . S
O115 C119 1.250 1_455 S
O116 Zn113 1.986 . S
O116 C123 1.262 . S
O117 Zn112 2.049 . S
O117 C125 1.260 . S
O118 Zn113 1.996 . S
O118 C125 1.257 . S
C119 O114 1.254 . S
C119 O115 1.250 1_655 S
C120 O121 1.249 . S
C120 O122 1.270 . S
O121 Zn113 1.943 . S
O121 C120 1.249 . S
O122 Zn112 2.067 . S
O122 C120 1.270 . S
C123 O116 1.262 . S
C123 O124 1.232 . S
O124 C123 1.232 . S
C125 O117 1.260 . S
C125 O118 1.257 . S
Zn126 O129 2.031 1_565 S
Zn126 O131 2.049 . S
Zn126 O136 2.067 . S
Zn127 O128 1.962 1_565 S
Zn127 O130 1.986 . S
Zn127 O132 1.996 . S
Zn127 O135 1.943 . S
O128 Zn127 1.962 1_545 S
O128 C133 1.254 . S
O129 Zn126 2.031 1_545 S
O129 C133 1.269 . S
O130 Zn127 1.986 . S
O130 C137 1.262 . S
O131 Zn126 2.049 . S
O131 C139 1.260 . S
O132 Zn127 1.996 . S
O132 C139 1.257 . S
C133 O128 1.254 . S
C133 O129 1.269 . S
C134 O135 1.249 . S
C134 O136 1.270 . S
O135 Zn127 1.943 . S
O135 C134 1.249 . S
O136 Zn126 2.067 . S
O136 C134 1.270 . S
C137 O130 1.262 . S
C137 O138 1.232 . S
O138 C137 1.232 . S
C139 O131 1.260 . S
C139 O132 1.257 . S
Zn140 O143 2.031 1_455 S
Zn140 O145 2.049 . S
Zn140 O150 2.067 . S
Zn141 O142 1.962 1_455 S
Zn141 O144 1.986 . S
Zn141 O146 1.996 . S
Zn141 O149 1.943 . S
O142 Zn141 1.962 1_655 S
O142 C147 1.254 . S
O143 Zn140 2.031 1_655 S
O143 C147 1.269 . S
O144 Zn141 1.986 . S
O144 C151 1.262 . S
O145 Zn140 2.049 . S
O145 C153 1.260 . S
O146 Zn141 1.996 . S
O146 C153 1.257 . S
C147 O142 1.254 . S
C147 O143 1.269 . S
C148 O149 1.249 . S
C148 O150 1.270 . S
O149 Zn141 1.943 . S
O149 C148 1.249 . S
O150 Zn140 2.067 . S
O150 C148 1.270 . S
C151 O144 1.262 . S
C151 O152 1.232 . S
O152 C151 1.232 . S
C153 O145 1.260 . S
C153 O146 1.257 . S
Zn154 O157 2.031 . S
Zn154 O159 2.049 . S
Zn154 O164 2.067 . S
Zn155 O156 1.962 . S
Zn155 O158 1.986 . S
Zn155 O160 1.996 . S
Zn155 O163 1.943 . S
O156 Zn155 1.962 . S
O156 C161 1.254 . S
O157 Zn154 2.031 . S
O157 C161 1.269 . S
O158 Zn155 1.986 . S
O158 C165 1.262 . S
O159 Zn154 2.049 . S
O159 C167 1.260 . S
O160 Zn155 1.996 . S
O160 C167 1.257 . S
C161 O156 1.254 . S
C161 O157 1.269 . S
C162 O163 1.249 . S
C162 O164 1.270 . S
O163 Zn155 1.943 . S
O163 C162 1.249 . S
O164 Zn154 2.067 . S
O164 C162 1.270 . S
C165 O158 1.262 . S
C165 O166 1.232 . S
O166 C165 1.232 . S
C167 O159 1.260 . S
C167 O160 1.257 . S
Zn168 O171 2.031 . S
Zn168 O173 2.049 . S
Zn168 O178 2.067 . S
Zn169 O170 1.962 1_545 S
Zn169 O172 1.986 . S
Zn169 O174 1.996 . S
Zn169 O177 1.943 . S
O170 Zn169 1.962 1_565 S
O170 C175 1.254 . S
O171 Zn168 2.031 . S
O171 C175 1.269 1_545 S
O172 Zn169 1.986 . S
O172 C179 1.262 . S
O173 Zn168 2.049 . S
O173 C181 1.260 . S
O174 Zn169 1.996 . S
O174 C181 1.257 . S
C175 O170 1.254 . S
C175 O171 1.269 1_565 S
C176 O177 1.249 . S
C176 O178 1.270 . S
O177 Zn169 1.943 . S
O177 C176 1.249 . S
O178 Zn168 2.067 . S
O178 C176 1.270 . S
C179 O172 1.262 . S
C179 O180 1.232 . S
O180 C179 1.232 . S
C181 O173 1.260 . S
C181 O174 1.257 . S
Zn182 O185 2.031 1_655 S
Zn182 O187 2.049 . S
Zn182 O192 2.067 . S
Zn183 O184 1.962 1_655 S
Zn183 O186 1.986 . S
Zn183 O188 1.996 . S
Zn183 O191 1.943 . S
O184 Zn183 1.962 1_455 S
O184 C189 1.254 . S
O185 Zn182 2.031 1_455 S
O185 C189 1.269 . S
O186 Zn183 1.986 . S
O186 C193 1.262 . S
O187 Zn182 2.049 . S
O187 C195 1.260 . S
O188 Zn183 1.996 . S
O188 C195 1.257 . S
C189 O184 1.254 . S
C189 O185 1.269 . S
C190 O191 1.249 . S
C190 O192 1.270 . S
O191 Zn183 1.943 . S
O191 C190 1.249 . S
O192 Zn182 2.067 . S
O192 C190 1.270 . S
C193 O186 1.262 . S
C193 O194 1.232 . S
O194 C193 1.232 . S
C195 O187 1.260 . S
C195 O188 1.257 . S
Zn196 O199 2.031 . S
Zn196 O201 2.049 . S
Zn196 O206 2.067 . S
Zn197 O198 1.962 . S
Zn197 O200 1.986 . S
Zn197 O202 1.996 . S
Zn197 O205 1.943 . S
O198 Zn197 1.962 . S
O198 C203 1.254 . S
O199 Zn196 2.031 . S
O199 C203 1.269 . S
O200 Zn197 1.986 . S
O200 C207 1.262 . S
O201 Zn196 2.049 . S
O201 C209 1.260 . S
O202 Zn197 1.996 . S
O202 C209 1.257 . S
C203 O198 1.254 . S
C203 O199 1.269 . S
C204 O205 1.249 . S
C204 O206 1.270 . S
O205 Zn197 1.943 . S
O205 C204 1.249 . S
O206 Zn196 2.067 . S
O206 C204 1.270 . S
C207 O200 1.262 . S
C207 O208 1.232 . S
O208 C207 1.232 . S
C209 O201 1.260 . S
C209 O202 1.257 . S
Zn210 O213 2.031 . S
Zn210 O215 2.049 . S
Zn210 O220 2.067 . S
Zn211 O212 1.962 . S
Zn211 O214 1.986 . S
Zn211 O216 1.996 . S
Zn211 O219 1.943 . S
O212 Zn211 1.962 . S
O212 C217 1.254 . S
O213 Zn210 2.031 . S
O213 C217 1.269 . S
O214 Zn211 1.986 . S
O214 C221 1.262 . S
O215 Zn210 2.049 . S
O215 C223 1.260 . S
O216 Zn211 1.996 . S
O216 C223 1.257 . S
C217 O212 1.254 . S
C217 O213 1.269 . S
C218 O219 1.249 . S
C218 O220 1.270 . S
O219 Zn211 1.943 . S
O219 C218 1.249 . S
O220 Zn210 2.067 . S
O220 C218 1.270 . S
C221 O214 1.262 . S
C221 O222 1.232 . S
O222 C221 1.232 . S
C223 O215 1.260 . S
C223 O216 1.257 . S
Zn224 O227 2.031 . S
Zn224 O229 2.049 . S
Zn224 O234 2.067 . S
Zn225 O226 1.962 . S
Zn225 O228 1.986 1_545 S
Zn225 O230 1.996 . S
Zn225 O233 1.943 . S
O226 Zn225 1.962 . S
O226 C231 1.254 . S
O227 Zn224 2.031 . S
O227 C231 1.269 . S
O228 Zn225 1.986 1_565 S
O228 C235 1.262 . S
O229 Zn224 2.049 . S
O229 C237 1.260 . S
O230 Zn225 1.996 . S
O230 C237 1.257 . S
C231 O226 1.254 . S
C231 O227 1.269 . S
C232 O233 1.249 . S
C232 O234 1.270 . S
O233 Zn225 1.943 . S
O233 C232 1.249 . S
O234 Zn224 2.067 . S
O234 C232 1.270 . S
C235 O228 1.262 . S
C235 O236 1.232 . S
O236 C235 1.232 . S
C237 O229 1.260 . S
C237 O230 1.257 . S
Zn238 O241 2.031 1_655 S
Zn238 O243 2.049 . S
Zn238 O248 2.067 . S
Zn239 O240 1.962 1_655 S
Zn239 O242 1.986 . S
Zn239 O244 1.996 . S
Zn239 O247 1.943 . S
O240 Zn239 1.962 1_455 S
O240 C245 1.254 . S
O241 Zn238 2.031 1_455 S
O241 C245 1.269 . S
O242 Zn239 1.986 . S
O242 C249 1.262 . S
O243 Zn238 2.049 . S
O243 C251 1.260 . S
O244 Zn239 1.996 . S
O244 C251 1.257 . S
C245 O240 1.254 . S
C245 O241 1.269 . S
C246 O247 1.249 . S
C246 O248 1.270 . S
O247 Zn239 1.943 . S
O247 C246 1.249 . S
O248 Zn238 2.067 . S
O248 C246 1.270 . S
C249 O242 1.262 . S
C249 O250 1.232 . S
O250 C249 1.232 . S
C251 O243 1.260 . S
C251 O244 1.257 . S
H252 C271 0.949 . S
H253 C272 0.950 . S
H254 C274 0.950 . S
H255 C275 0.950 . S
H256 C277 0.950 . S
H257 C280 0.950 . S
H258 C281 0.950 . S
H259 C283 0.951 . S
H260 C284 0.949 . S
H261 C286 0.949 . S
H262 C287 0.950 . S
H263 C289 0.950 . S
H264 C290 0.950 . S
H265 C292 0.950 . S
H266 C295 0.950 . S
H267 C296 0.950 . S
H268 C298 0.951 . S
H269 C299 0.949 . S
C270 C271 1.376 . S
C270 C275 1.386 . S
C270 C276 1.483 . S
C271 H252 0.949 . S
C271 C270 1.376 . S
C271 C272 1.397 . S
C272 H253 0.950 . S
C272 C271 1.397 . S
C272 C273 1.391 . S
C273 C272 1.391 . S
C273 C274 1.405 . S
C274 H254 0.950 . S
C274 C273 1.405 . S
C274 C275 1.367 . S
C275 H255 0.950 . S
C275 C270 1.386 . S
C275 C274 1.367 . S
C276 C270 1.483 . S
C276 C277 1.382 . S
C276 C278 1.403 . S
C277 H256 0.950 . S
C277 C276 1.382 . S
C277 C293 1.411 . S
C278 C276 1.403 . S
C278 C279 1.489 . S
C278 C292 1.411 . S
C279 C278 1.489 . S
C279 C280 1.383 . S
C279 C284 1.382 . S
C280 H257 0.950 . S
C280 C279 1.383 . S
C280 C281 1.395 . S
C281 H258 0.950 . S
C281 C280 1.395 . S
C281 C282 1.288 . S
C282 C281 1.288 . S
C282 C283 1.392 . S
C283 H259 0.951 . S
C283 C282 1.392 . S
C283 C284 1.392 . S
C284 H260 0.949 . S
C284 C279 1.382 . S
C284 C283 1.392 . S
C285 C286 1.376 . S
C285 C290 1.386 . S
C285 C291 1.483 . S
C286 H261 0.949 . S
C286 C285 1.376 . S
C286 C287 1.397 . S
C287 H262 0.950 . S
C287 C286 1.397 . S
C287 C288 1.391 . S
C288 C287 1.391 . S
C288 C289 1.405 . S
C289 H263 0.950 . S
C289 C288 1.405 . S
C289 C290 1.367 . S
C290 H264 0.950 . S
C290 C285 1.386 . S
C290 C289 1.367 . S
C291 C285 1.483 . S
C291 C292 1.382 . S
C291 C293 1.403 . S
C292 H265 0.950 . S
C292 C278 1.411 . S
C292 C291 1.382 . S
C293 C277 1.411 . S
C293 C291 1.403 . S
C293 C294 1.489 . S
C294 C293 1.489 . S
C294 C295 1.383 . S
C294 C299 1.382 . S
C295 H266 0.950 . S
C295 C294 1.383 . S
C295 C296 1.395 . S
C296 H267 0.950 . S
C296 C295 1.395 . S
C296 C297 1.288 . S
C297 C296 1.288 . S
C297 C298 1.392 . S
C298 H268 0.951 . S
C298 C297 1.392 . S
C298 C299 1.392 . S
C299 H269 0.949 . S
C299 C294 1.382 . S
C299 C298 1.392 . S
H300 C319 0.949 . S
H301 C320 0.950 . S
H302 C322 0.950 . S
H303 C323 0.950 . S
H304 C325 0.950 . S
H305 C328 0.950 . S
H306 C329 0.950 . S
H307 C331 0.951 . S
H308 C332 0.949 . S
H309 C334 0.949 . S
H310 C335 0.950 . S
H311 C337 0.950 . S
H312 C338 0.950 . S
H313 C340 0.950 . S
H314 C343 0.950 . S
H315 C344 0.950 . S
H316 C346 0.951 . S
H317 C347 0.949 . S
C318 C319 1.376 . S
C318 C323 1.386 . S
C318 C324 1.483 . S
C319 H300 0.949 . S
C319 C318 1.376 . S
C319 C320 1.397 . S
C320 H301 0.950 . S
C320 C319 1.397 . S
C320 C321 1.391 . S
C321 C320 1.391 . S
C321 C322 1.405 . S
C322 H302 0.950 . S
C322 C321 1.405 . S
C322 C323 1.367 . S
C323 H303 0.950 . S
C323 C318 1.386 . S
C323 C322 1.367 . S
C324 C318 1.483 . S
C324 C325 1.382 . S
C324 C326 1.403 . S
C325 H304 0.950 . S
C325 C324 1.382 . S
C325 C341 1.411 . S
C326 C324 1.403 . S
C326 C327 1.489 . S
C326 C340 1.411 . S
C327 C326 1.489 . S
C327 C328 1.383 . S
C327 C332 1.382 . S
C328 H305 0.950 . S
C328 C327 1.383 . S
C328 C329 1.395 . S
C329 H306 0.950 . S
C329 C328 1.395 . S
C329 C330 1.288 . S
C330 C329 1.288 . S
C330 C331 1.392 . S
C331 H307 0.951 . S
C331 C330 1.392 . S
C331 C332 1.392 . S
C332 H308 0.949 . S
C332 C327 1.382 . S
C332 C331 1.392 . S
C333 C334 1.376 . S
C333 C338 1.386 . S
C333 C339 1.483 . S
C334 H309 0.949 . S
C334 C333 1.376 . S
C334 C335 1.397 . S
C335 H310 0.950 . S
C335 C334 1.397 . S
C335 C336 1.391 . S
C336 C335 1.391 . S
C336 C337 1.405 . S
C337 H311 0.950 . S
C337 C336 1.405 . S
C337 C338 1.367 . S
C338 H312 0.950 . S
C338 C333 1.386 . S
C338 C337 1.367 . S
C339 C333 1.483 . S
C339 C340 1.382 . S
C339 C341 1.403 . S
C340 H313 0.950 . S
C340 C326 1.411 . S
C340 C339 1.382 . S
C341 C325 1.411 . S
C341 C339 1.403 . S
C341 C342 1.489 . S
C342 C341 1.489 . S
C342 C343 1.383 . S
C342 C347 1.382 . S
C343 H314 0.950 . S
C343 C342 1.383 . S
C343 C344 1.395 . S
C344 H315 0.950 . S
C344 C343 1.395 . S
C344 C345 1.288 . S
C345 C344 1.288 . S
C345 C346 1.392 . S
C346 H316 0.951 . S
C346 C345 1.392 . S
C346 C347 1.392 . S
C347 H317 0.949 . S
C347 C342 1.382 . S
C347 C346 1.392 . S
H348 C367 0.949 . S
H349 C368 0.950 . S
H350 C370 0.950 . S
H351 C371 0.950 . S
H352 C373 0.950 . S
H353 C376 0.950 . S
H354 C377 0.950 . S
H355 C379 0.951 . S
H356 C380 0.949 . S
H357 C382 0.949 . S
H358 C383 0.950 . S
H359 C385 0.950 . S
H360 C386 0.950 . S
H361 C388 0.950 . S
H362 C391 0.950 . S
H363 C392 0.950 . S
H364 C394 0.951 . S
H365 C395 0.949 . S
C366 C367 1.376 . S
C366 C371 1.386 . S
C366 C372 1.483 . S
C367 H348 0.949 . S
C367 C366 1.376 . S
C367 C368 1.397 . S
C368 H349 0.950 . S
C368 C367 1.397 . S
C368 C369 1.391 . S
C369 C368 1.391 . S
C369 C370 1.405 . S
C370 H350 0.950 . S
C370 C369 1.405 . S
C370 C371 1.367 . S
C371 H351 0.950 . S
C371 C366 1.386 . S
C371 C370 1.367 . S
C372 C366 1.483 . S
C372 C373 1.382 . S
C372 C374 1.403 . S
C373 H352 0.950 . S
C373 C372 1.382 . S
C373 C389 1.411 . S
C374 C372 1.403 . S
C374 C375 1.489 . S
C374 C388 1.411 . S
C375 C374 1.489 . S
C375 C376 1.383 . S
C375 C380 1.382 . S
C376 H353 0.950 . S
C376 C375 1.383 . S
C376 C377 1.395 . S
C377 H354 0.950 . S
C377 C376 1.395 . S
C377 C378 1.288 . S
C378 C377 1.288 . S
C378 C379 1.392 . S
C379 H355 0.951 . S
C379 C378 1.392 . S
C379 C380 1.392 . S
C380 H356 0.949 . S
C380 C375 1.382 . S
C380 C379 1.392 . S
C381 C382 1.376 . S
C381 C386 1.386 . S
C381 C387 1.483 . S
C382 H357 0.949 . S
C382 C381 1.376 . S
C382 C383 1.397 . S
C383 H358 0.950 . S
C383 C382 1.397 . S
C383 C384 1.391 . S
C384 C383 1.391 . S
C384 C385 1.405 . S
C385 H359 0.950 . S
C385 C384 1.405 . S
C385 C386 1.367 . S
C386 H360 0.950 . S
C386 C381 1.386 . S
C386 C385 1.367 . S
C387 C381 1.483 . S
C387 C388 1.382 . S
C387 C389 1.403 . S
C388 H361 0.950 . S
C388 C374 1.411 . S
C388 C387 1.382 . S
C389 C373 1.411 . S
C389 C387 1.403 . S
C389 C390 1.489 . S
C390 C389 1.489 . S
C390 C391 1.383 . S
C390 C395 1.382 . S
C391 H362 0.950 . S
C391 C390 1.383 . S
C391 C392 1.395 . S
C392 H363 0.950 . S
C392 C391 1.395 . S
C392 C393 1.288 . S
C393 C392 1.288 . S
C393 C394 1.392 . S
C394 H364 0.951 . S
C394 C393 1.392 . S
C394 C395 1.392 . S
C395 H365 0.949 . S
C395 C390 1.382 . S
C395 C394 1.392 . S
H396 C415 0.949 . S
H397 C416 0.950 . S
H398 C418 0.950 . S
H399 C419 0.950 . S
H400 C421 0.950 . S
H401 C424 0.950 . S
H402 C425 0.950 . S
H403 C427 0.951 . S
H404 C428 0.949 . S
H405 C430 0.949 . S
H406 C431 0.950 . S
H407 C433 0.950 . S
H408 C434 0.950 . S
H409 C436 0.950 . S
H410 C439 0.950 . S
H411 C440 0.950 . S
H412 C442 0.951 . S
H413 C443 0.949 . S
C414 C415 1.376 . S
C414 C419 1.386 . S
C414 C420 1.483 . S
C415 H396 0.949 . S
C415 C414 1.376 . S
C415 C416 1.397 . S
C416 H397 0.950 . S
C416 C415 1.397 . S
C416 C417 1.391 . S
C417 C416 1.391 . S
C417 C418 1.405 . S
C418 H398 0.950 . S
C418 C417 1.405 . S
C418 C419 1.367 . S
C419 H399 0.950 . S
C419 C414 1.386 . S
C419 C418 1.367 . S
C420 C414 1.483 . S
C420 C421 1.382 . S
C420 C422 1.403 . S
C421 H400 0.950 . S
C421 C420 1.382 . S
C421 C437 1.411 . S
C422 C420 1.403 . S
C422 C423 1.489 . S
C422 C436 1.411 . S
C423 C422 1.489 . S
C423 C424 1.383 . S
C423 C428 1.382 . S
C424 H401 0.950 . S
C424 C423 1.383 . S
C424 C425 1.395 . S
C425 H402 0.950 . S
C425 C424 1.395 . S
C425 C426 1.288 . S
C426 C425 1.288 . S
C426 C427 1.392 . S
C427 H403 0.951 . S
C427 C426 1.392 . S
C427 C428 1.392 . S
C428 H404 0.949 . S
C428 C423 1.382 . S
C428 C427 1.392 . S
C429 C430 1.376 . S
C429 C434 1.386 . S
C429 C435 1.483 . S
C430 H405 0.949 . S
C430 C429 1.376 . S
C430 C431 1.397 . S
C431 H406 0.950 . S
C431 C430 1.397 . S
C431 C432 1.391 . S
C432 C431 1.391 . S
C432 C433 1.405 . S
C433 H407 0.950 . S
C433 C432 1.405 . S
C433 C434 1.367 . S
C434 H408 0.950 . S
C434 C429 1.386 . S
C434 C433 1.367 . S
C435 C429 1.483 . S
C435 C436 1.382 . S
C435 C437 1.403 . S
C436 H409 0.950 . S
C436 C422 1.411 . S
C436 C435 1.382 . S
C437 C421 1.411 . S
C437 C435 1.403 . S
C437 C438 1.489 . S
C438 C437 1.489 . S
C438 C439 1.383 . S
C438 C443 1.382 . S
C439 H410 0.950 . S
C439 C438 1.383 . S
C439 C440 1.395 . S
C440 H411 0.950 . S
C440 C439 1.395 . S
C440 C441 1.288 . S
C441 C440 1.288 . S
C441 C442 1.392 . S
C442 H412 0.951 . S
C442 C441 1.392 . S
C442 C443 1.392 . S
C443 H413 0.949 . S
C443 C438 1.382 . S
C443 C442 1.392 . S
H444 C463 0.949 . S
H445 C464 0.950 . S
H446 C466 0.950 . S
H447 C467 0.950 . S
H448 C469 0.950 . S
H449 C472 0.950 . S
H450 C473 0.950 . S
H451 C475 0.951 . S
H452 C476 0.949 . S
H453 C478 0.949 . S
H454 C479 0.950 . S
H455 C481 0.950 . S
H456 C482 0.950 . S
H457 C484 0.950 . S
H458 C487 0.950 . S
H459 C488 0.950 . S
H460 C490 0.951 . S
H461 C491 0.949 . S
C462 C463 1.376 . S
C462 C467 1.386 . S
C462 C468 1.483 . S
C463 H444 0.949 . S
C463 C462 1.376 . S
C463 C464 1.397 . S
C464 H445 0.950 . S
C464 C463 1.397 . S
C464 C465 1.391 . S
C465 C464 1.391 . S
C465 C466 1.405 . S
C466 H446 0.950 . S
C466 C465 1.405 . S
C466 C467 1.367 . S
C467 H447 0.950 . S
C467 C462 1.386 . S
C467 C466 1.367 . S
C468 C462 1.483 . S
C468 C469 1.382 . S
C468 C470 1.403 . S
C469 H448 0.950 . S
C469 C468 1.382 . S
C469 C485 1.411 . S
C470 C468 1.403 . S
C470 C471 1.489 . S
C470 C484 1.411 . S
C471 C470 1.489 . S
C471 C472 1.383 . S
C471 C476 1.382 . S
C472 H449 0.950 . S
C472 C471 1.383 . S
C472 C473 1.395 . S
C473 H450 0.950 . S
C473 C472 1.395 . S
C473 C474 1.288 . S
C474 C473 1.288 . S
C474 C475 1.392 . S
C475 H451 0.951 . S
C475 C474 1.392 . S
C475 C476 1.392 . S
C476 H452 0.949 . S
C476 C471 1.382 . S
C476 C475 1.392 . S
C477 C478 1.376 . S
C477 C482 1.386 . S
C477 C483 1.483 . S
C478 H453 0.949 . S
C478 C477 1.376 . S
C478 C479 1.397 . S
C479 H454 0.950 . S
C479 C478 1.397 . S
C479 C480 1.391 . S
C480 C479 1.391 . S
C480 C481 1.405 . S
C481 H455 0.950 . S
C481 C480 1.405 . S
C481 C482 1.367 . S
C482 H456 0.950 . S
C482 C477 1.386 . S
C482 C481 1.367 . S
C483 C477 1.483 . S
C483 C484 1.382 . S
C483 C485 1.403 . S
C484 H457 0.950 . S
C484 C470 1.411 . S
C484 C483 1.382 . S
C485 C469 1.411 . S
C485 C483 1.403 . S
C485 C486 1.489 . S
C486 C485 1.489 . S
C486 C487 1.383 . S
C486 C491 1.382 . S
C487 H458 0.950 . S
C487 C486 1.383 . S
C487 C488 1.395 . S
C488 H459 0.950 . S
C488 C487 1.395 . S
C488 C489 1.288 . S
C489 C488 1.288 . S
C489 C490 1.392 . S
C490 H460 0.951 . S
C490 C489 1.392 . S
C490 C491 1.392 . S
C491 H461 0.949 . S
C491 C486 1.382 . S
C491 C490 1.392 . S
H492 C511 0.949 . S
H493 C512 0.950 . S
H494 C514 0.950 . S
H495 C515 0.950 . S
H496 C517 0.950 . S
H497 C520 0.950 . S
H498 C521 0.950 . S
H499 C523 0.951 . S
H500 C524 0.949 . S
H501 C526 0.949 . S
H502 C527 0.950 . S
H503 C529 0.950 . S
H504 C530 0.950 . S
H505 C532 0.950 . S
H506 C535 0.950 . S
H507 C536 0.950 . S
H508 C538 0.951 . S
H509 C539 0.949 . S
C510 C511 1.376 . S
C510 C515 1.386 . S
C510 C516 1.483 . S
C511 H492 0.949 . S
C511 C510 1.376 . S
C511 C512 1.397 . S
C512 H493 0.950 . S
C512 C511 1.397 . S
C512 C513 1.391 . S
C513 C512 1.391 . S
C513 C514 1.405 . S
C514 H494 0.950 . S
C514 C513 1.405 . S
C514 C515 1.367 . S
C515 H495 0.950 . S
C515 C510 1.386 . S
C515 C514 1.367 . S
C516 C510 1.483 . S
C516 C517 1.382 . S
C516 C518 1.403 . S
C517 H496 0.950 . S
C517 C516 1.382 . S
C517 C533 1.411 . S
C518 C516 1.403 . S
C518 C519 1.489 . S
C518 C532 1.411 . S
C519 C518 1.489 . S
C519 C520 1.383 . S
C519 C524 1.382 . S
C520 H497 0.950 . S
C520 C519 1.383 . S
C520 C521 1.395 . S
C521 H498 0.950 . S
C521 C520 1.395 . S
C521 C522 1.288 . S
C522 C521 1.288 . S
C522 C523 1.392 . S
C523 H499 0.951 . S
C523 C522 1.392 . S
C523 C524 1.392 . S
C524 H500 0.949 . S
C524 C519 1.382 . S
C524 C523 1.392 . S
C525 C526 1.376 . S
C525 C530 1.386 . S
C525 C531 1.483 . S
C526 H501 0.949 . S
C526 C525 1.376 . S
C526 C527 1.397 . S
C527 H502 0.950 . S
C527 C526 1.397 . S
C527 C528 1.391 . S
C528 C527 1.391 . S
C528 C529 1.405 . S
C529 H503 0.950 . S
C529 C528 1.405 . S
C529 C530 1.367 . S
C530 H504 0.950 . S
C530 C525 1.386 . S
C530 C529 1.367 . S
C531 C525 1.483 . S
C531 C532 1.382 . S
C531 C533 1.403 . S
C532 H505 0.950 . S
C532 C518 1.411 . S
C532 C531 1.382 . S
C533 C517 1.411 . S
C533 C531 1.403 . S
C533 C534 1.489 . S
C534 C533 1.489 . S
C534 C535 1.383 . S
C534 C539 1.382 . S
C535 H506 0.950 . S
C535 C534 1.383 . S
C535 C536 1.395 . S
C536 H507 0.950 . S
C536 C535 1.395 . S
C536 C537 1.288 . S
C537 C536 1.288 . S
C537 C538 1.392 . S
C538 H508 0.951 . S
C538 C537 1.392 . S
C538 C539 1.392 . S
C539 H509 0.949 . S
C539 C534 1.382 . S
C539 C538 1.392 . S
H540 C559 0.949 . S
H541 C560 0.950 . S
H542 C562 0.950 . S
H543 C563 0.950 . S
H544 C565 0.950 . S
H545 C568 0.950 . S
H546 C569 0.950 . S
H547 C571 0.951 . S
H548 C572 0.949 . S
H549 C574 0.949 . S
H550 C575 0.950 . S
H551 C577 0.950 . S
H552 C578 0.950 . S
H553 C580 0.950 . S
H554 C583 0.950 . S
H555 C584 0.950 . S
H556 C586 0.951 . S
H557 C587 0.949 . S
C558 C559 1.376 . S
C558 C563 1.386 . S
C558 C564 1.483 . S
C559 H540 0.949 . S
C559 C558 1.376 . S
C559 C560 1.397 . S
C560 H541 0.950 . S
C560 C559 1.397 . S
C560 C561 1.391 . S
C561 C560 1.391 . S
C561 C562 1.405 . S
C562 H542 0.950 . S
C562 C561 1.405 . S
C562 C563 1.367 . S
C563 H543 0.950 . S
C563 C558 1.386 . S
C563 C562 1.367 . S
C564 C558 1.483 . S
C564 C565 1.382 . S
C564 C566 1.403 . S
C565 H544 0.950 . S
C565 C564 1.382 . S
C565 C581 1.411 . S
C566 C564 1.403 . S
C566 C567 1.489 . S
C566 C580 1.411 . S
C567 C566 1.489 . S
C567 C568 1.383 . S
C567 C572 1.382 . S
C568 H545 0.950 . S
C568 C567 1.383 . S
C568 C569 1.395 . S
C569 H546 0.950 . S
C569 C568 1.395 . S
C569 C570 1.288 . S
C570 C569 1.288 . S
C570 C571 1.392 . S
C571 H547 0.951 . S
C571 C570 1.392 . S
C571 C572 1.392 . S
C572 H548 0.949 . S
C572 C567 1.382 . S
C572 C571 1.392 . S
C573 C574 1.376 . S
C573 C578 1.386 . S
C573 C579 1.483 . S
C574 H549 0.949 . S
C574 C573 1.376 . S
C574 C575 1.397 . S
C575 H550 0.950 . S
C575 C574 1.397 . S
C575 C576 1.391 . S
C576 C575 1.391 . S
C576 C577 1.405 . S
C577 H551 0.950 . S
C577 C576 1.405 . S
C577 C578 1.367 . S
C578 H552 0.950 . S
C578 C573 1.386 . S
C578 C577 1.367 . S
C579 C573 1.483 . S
C579 C580 1.382 . S
C579 C581 1.403 . S
C580 H553 0.950 . S
C580 C566 1.411 . S
C580 C579 1.382 . S
C581 C565 1.411 . S
C581 C579 1.403 . S
C581 C582 1.489 . S
C582 C581 1.489 . S
C582 C583 1.383 . S
C582 C587 1.382 . S
C583 H554 0.950 . S
C583 C582 1.383 . S
C583 C584 1.395 . S
C584 H555 0.950 . S
C584 C583 1.395 . S
C584 C585 1.288 . S
C585 C584 1.288 . S
C585 C586 1.392 . S
C586 H556 0.951 . S
C586 C585 1.392 . S
C586 C587 1.392 . S
C587 H557 0.949 . S
C587 C582 1.382 . S
C587 C586 1.392 . S
H588 C607 0.949 . S
H589 C608 0.950 . S
H590 C610 0.950 . S
H591 C611 0.950 . S
H592 C613 0.950 . S
H593 C616 0.950 . S
H594 C617 0.950 . S
H595 C619 0.951 . S
H596 C620 0.949 . S
H597 C622 0.949 . S
H598 C623 0.950 . S
H599 C625 0.950 . S
H600 C626 0.950 . S
H601 C628 0.950 . S
H602 C631 0.950 . S
H603 C632 0.950 . S
H604 C634 0.951 . S
H605 C635 0.949 . S
C606 C607 1.376 . S
C606 C611 1.386 . S
C606 C612 1.483 . S
C607 H588 0.949 . S
C607 C606 1.376 . S
C607 C608 1.397 . S
C608 H589 0.950 . S
C608 C607 1.397 . S
C608 C609 1.391 . S
C609 C608 1.391 . S
C609 C610 1.405 . S
C610 H590 0.950 . S
C610 C609 1.405 . S
C610 C611 1.367 . S
C611 H591 0.950 . S
C611 C606 1.386 . S
C611 C610 1.367 . S
C612 C606 1.483 . S
C612 C613 1.382 . S
C612 C614 1.403 . S
C613 H592 0.950 . S
C613 C612 1.382 . S
C613 C629 1.411 . S
C614 C612 1.403 . S
C614 C615 1.489 . S
C614 C628 1.411 . S
C615 C614 1.489 . S
C615 C616 1.383 . S
C615 C620 1.382 . S
C616 H593 0.950 . S
C616 C615 1.383 . S
C616 C617 1.395 . S
C617 H594 0.950 . S
C617 C616 1.395 . S
C617 C618 1.288 . S
C618 C617 1.288 . S
C618 C619 1.392 . S
C619 H595 0.951 . S
C619 C618 1.392 . S
C619 C620 1.392 . S
C620 H596 0.949 . S
C620 C615 1.382 . S
C620 C619 1.392 . S
C621 C622 1.376 . S
C621 C626 1.386 . S
C621 C627 1.483 . S
C622 H597 0.949 . S
C622 C621 1.376 . S
C622 C623 1.397 . S
C623 H598 0.950 . S
C623 C622 1.397 . S
C623 C624 1.391 . S
C624 C623 1.391 . S
C624 C625 1.405 . S
C625 H599 0.950 . S
C625 C624 1.405 . S
C625 C626 1.367 . S
C626 H600 0.950 . S
C626 C621 1.386 . S
C626 C625 1.367 . S
C627 C621 1.483 . S
C627 C628 1.382 . S
C627 C629 1.403 . S
C628 H601 0.950 . S
C628 C614 1.411 . S
C628 C627 1.382 . S
C629 C613 1.411 . S
C629 C627 1.403 . S
C629 C630 1.489 . S
C630 C629 1.489 . S
C630 C631 1.383 . S
C630 C635 1.382 . S
C631 H602 0.950 . S
C631 C630 1.383 . S
C631 C632 1.395 . S
C632 H603 0.950 . S
C632 C631 1.395 . S
C632 C633 1.288 . S
C633 C632 1.288 . S
C633 C634 1.392 . S
C634 H604 0.951 . S
C634 C633 1.392 . S
C634 C635 1.392 . S
C635 H605 0.949 . S
C635 C630 1.382 . S
C635 C634 1.392 . S
H636 C655 0.949 . S
H637 C656 0.950 . S
H638 C658 0.950 . S
H639 C659 0.950 . S
H640 C661 0.950 . S
H641 C664 0.950 . S
H642 C665 0.950 . S
H643 C667 0.951 . S
H644 C668 0.949 . S
H645 C670 0.949 . S
H646 C671 0.950 . S
H647 C673 0.950 . S
H648 C674 0.950 . S
H649 C676 0.950 . S
H650 C679 0.950 . S
H651 C680 0.950 . S
H652 C682 0.951 . S
H653 C683 0.949 . S
C654 C655 1.376 . S
C654 C659 1.386 . S
C654 C660 1.483 . S
C655 H636 0.949 . S
C655 C654 1.376 . S
C655 C656 1.397 . S
C656 H637 0.950 . S
C656 C655 1.397 . S
C656 C657 1.391 . S
C657 C656 1.391 . S
C657 C658 1.405 . S
C658 H638 0.950 . S
C658 C657 1.405 . S
C658 C659 1.367 . S
C659 H639 0.950 . S
C659 C654 1.386 . S
C659 C658 1.367 . S
C660 C654 1.483 . S
C660 C661 1.382 . S
C660 C662 1.403 . S
C661 H640 0.950 . S
C661 C660 1.382 . S
C661 C677 1.411 . S
C662 C660 1.403 . S
C662 C663 1.489 . S
C662 C676 1.411 . S
C663 C662 1.489 . S
C663 C664 1.383 . S
C663 C668 1.382 . S
C664 H641 0.950 . S
C664 C663 1.383 . S
C664 C665 1.395 . S
C665 H642 0.950 . S
C665 C664 1.395 . S
C665 C666 1.288 . S
C666 C665 1.288 . S
C666 C667 1.392 . S
C667 H643 0.951 . S
C667 C666 1.392 . S
C667 C668 1.392 . S
C668 H644 0.949 . S
C668 C663 1.382 . S
C668 C667 1.392 . S
C669 C670 1.376 . S
C669 C674 1.386 . S
C669 C675 1.483 . S
C670 H645 0.949 . S
C670 C669 1.376 . S
C670 C671 1.397 . S
C671 H646 0.950 . S
C671 C670 1.397 . S
C671 C672 1.391 . S
C672 C671 1.391 . S
C672 C673 1.405 . S
C673 H647 0.950 . S
C673 C672 1.405 . S
C673 C674 1.367 . S
C674 H648 0.950 . S
C674 C669 1.386 . S
C674 C673 1.367 . S
C675 C669 1.483 . S
C675 C676 1.382 . S
C675 C677 1.403 . S
C676 H649 0.950 . S
C676 C662 1.411 . S
C676 C675 1.382 . S
C677 C661 1.411 . S
C677 C675 1.403 . S
C677 C678 1.489 . S
C678 C677 1.489 . S
C678 C679 1.383 . S
C678 C683 1.382 . S
C679 H650 0.950 . S
C679 C678 1.383 . S
C679 C680 1.395 . S
C680 H651 0.950 . S
C680 C679 1.395 . S
C680 C681 1.288 . S
C681 C680 1.288 . S
C681 C682 1.392 . S
C682 H652 0.951 . S
C682 C681 1.392 . S
C682 C683 1.392 . S
C683 H653 0.949 . S
C683 C678 1.382 . S
C683 C682 1.392 . S
H684 C703 0.949 . S
H685 C704 0.950 . S
H686 C706 0.950 . S
H687 C707 0.950 . S
H688 C709 0.950 . S
H689 C712 0.950 . S
H690 C713 0.950 . S
H691 C715 0.951 . S
H692 C716 0.949 . S
H693 C718 0.949 . S
H694 C719 0.950 . S
H695 C721 0.950 . S
H696 C722 0.950 . S
H697 C724 0.950 . S
H698 C727 0.950 . S
H699 C728 0.950 . S
H700 C730 0.951 . S
H701 C731 0.949 . S
C702 C703 1.376 . S
C702 C707 1.386 1_655 S
C702 C708 1.483 . S
C703 H684 0.949 . S
C703 C702 1.376 . S
C703 C704 1.397 . S
C704 H685 0.950 . S
C704 C703 1.397 . S
C704 C705 1.391 . S
C705 C704 1.391 . S
C705 C706 1.405 1_655 S
C706 H686 0.950 . S
C706 C705 1.405 1_455 S
C706 C707 1.367 . S
C707 H687 0.950 . S
C707 C702 1.386 1_455 S
C707 C706 1.367 . S
C708 C702 1.483 . S
C708 C709 1.382 . S
C708 C710 1.403 1_655 S
C709 H688 0.950 . S
C709 C708 1.382 . S
C709 C725 1.411 . S
C710 C708 1.403 1_455 S
C710 C711 1.489 . S
C710 C724 1.411 . S
C711 C710 1.489 . S
C711 C712 1.383 1_455 S
C711 C716 1.382 . S
C712 H689 0.950 . S
C712 C711 1.383 1_655 S
C712 C713 1.395 . S
C713 H690 0.950 . S
C713 C712 1.395 . S
C713 C714 1.288 1_655 S
C714 C713 1.288 1_455 S
C714 C715 1.392 . S
C715 H691 0.951 . S
C715 C714 1.392 . S
C715 C716 1.392 . S
C716 H692 0.949 . S
C716 C711 1.382 . S
C716 C715 1.392 . S
C717 C718 1.376 . S
C717 C722 1.386 1_455 S
C717 C723 1.483 . S
C718 H693 0.949 . S
C718 C717 1.376 . S
C718 C719 1.397 . S
C719 H694 0.950 . S
C719 C718 1.397 . S
C719 C720 1.391 . S
C720 C719 1.391 . S
C720 C721 1.405 1_455 S
C721 H695 0.950 . S
C721 C720 1.405 1_655 S
C721 C722 1.367 . S
C722 H696 0.950 . S
C722 C717 1.386 1_655 S
C722 C721 1.367 . S
C723 C717 1.483 . S
C723 C724 1.382 . S
C723 C725 1.403 1_455 S
C724 H697 0.950 . S
C724 C710 1.411 . S
C724 C723 1.382 . S
C725 C709 1.411 . S
C725 C723 1.403 1_655 S
C725 C726 1.489 . S
C726 C725 1.489 . S
C726 C727 1.383 1_655 S
C726 C731 1.382 . S
C727 H698 0.950 . S
C727 C726 1.383 1_455 S
C727 C728 1.395 . S
C728 H699 0.950 . S
C728 C727 1.395 . S
C728 C729 1.288 1_455 S
C729 C728 1.288 1_655 S
C729 C730 1.392 . S
C730 H700 0.951 . S
C730 C729 1.392 . S
C730 C731 1.392 . S
C731 H701 0.949 . S
C731 C726 1.382 . S
C731 C730 1.392 . S
H732 C751 0.949 . S
H733 C752 0.950 . S
H734 C754 0.950 . S
H735 C755 0.950 . S
H736 C757 0.950 . S
H737 C760 0.950 . S
H738 C761 0.950 . S
H739 C763 0.951 . S
H740 C764 0.949 . S
H741 C766 0.949 . S
H742 C767 0.950 . S
H743 C769 0.950 . S
H744 C770 0.950 . S
H745 C772 0.950 . S
H746 C775 0.950 . S
H747 C776 0.950 . S
H748 C778 0.951 . S
H749 C779 0.949 . S
C750 C751 1.376 . S
C750 C755 1.386 . S
C750 C756 1.483 . S
C751 H732 0.949 . S
C751 C750 1.376 . S
C751 C752 1.397 . S
C752 H733 0.950 . S
C752 C751 1.397 . S
C752 C753 1.391 . S
C753 C752 1.391 . S
C753 C754 1.405 . S
C754 H734 0.950 . S
C754 C753 1.405 . S
C754 C755 1.367 . S
C755 H735 0.950 . S
C755 C750 1.386 . S
C755 C754 1.367 . S
C756 C750 1.483 . S
C756 C757 1.382 . S
C756 C758 1.403 . S
C757 H736 0.950 . S
C757 C756 1.382 . S
C757 C773 1.411 . S
C758 C756 1.403 . S
C758 C759 1.489 . S
C758 C772 1.411 . S
C759 C758 1.489 . S
C759 C760 1.383 . S
C759 C764 1.382 . S
C760 H737 0.950 . S
C760 C759 1.383 . S
C760 C761 1.395 . S
C761 H738 0.950 . S
C761 C760 1.395 . S
C761 C762 1.288 . S
C762 C761 1.288 . S
C762 C763 1.392 . S
C763 H739 0.951 . S
C763 C762 1.392 . S
C763 C764 1.392 . S
C764 H740 0.949 . S
C764 C759 1.382 . S
C764 C763 1.392 . S
C765 C766 1.376 . S
C765 C770 1.386 . S
C765 C771 1.483 . S
C766 H741 0.949 . S
C766 C765 1.376 . S
C766 C767 1.397 . S
C767 H742 0.950 . S
C767 C766 1.397 . S
C767 C768 1.391 . S
C768 C767 1.391 . S
C768 C769 1.405 . S
C769 H743 0.950 . S
C769 C768 1.405 . S
C769 C770 1.367 . S
C770 H744 0.950 . S
C770 C765 1.386 . S
C770 C769 1.367 . S
C771 C765 1.483 . S
C771 C772 1.382 . S
C771 C773 1.403 . S
C772 H745 0.950 . S
C772 C758 1.411 . S
C772 C771 1.382 . S
C773 C757 1.411 . S
C773 C771 1.403 . S
C773 C774 1.489 . S
C774 C773 1.489 . S
C774 C775 1.383 . S
C774 C779 1.382 . S
C775 H746 0.950 . S
C775 C774 1.383 . S
C775 C776 1.395 . S
C776 H747 0.950 . S
C776 C775 1.395 . S
C776 C777 1.288 . S
C777 C776 1.288 . S
C777 C778 1.392 . S
C778 H748 0.951 . S
C778 C777 1.392 . S
C778 C779 1.392 . S
C779 H749 0.949 . S
C779 C774 1.382 . S
C779 C778 1.392 . S
H780 C799 0.949 . S
H781 C800 0.950 . S
H782 C802 0.950 . S
H783 C803 0.950 . S
H784 C805 0.950 . S
H785 C808 0.950 . S
H786 C809 0.950 . S
H787 C811 0.951 . S
H788 C812 0.949 . S
H789 C814 0.949 . S
H790 C815 0.950 . S
H791 C817 0.950 . S
H792 C818 0.950 . S
H793 C820 0.950 . S
H794 C823 0.950 . S
H795 C824 0.950 . S
H796 C826 0.951 . S
H797 C827 0.949 . S
C798 C799 1.376 . S
C798 C803 1.386 1_545 S
C798 C804 1.483 . S
C799 H780 0.949 . S
C799 C798 1.376 . S
C799 C800 1.397 . S
C800 H781 0.950 . S
C800 C799 1.397 . S
C800 C801 1.391 . S
C801 C800 1.391 . S
C801 C802 1.405 1_545 S
C802 H782 0.950 . S
C802 C801 1.405 1_565 S
C802 C803 1.367 . S
C803 H783 0.950 . S
C803 C798 1.386 1_565 S
C803 C802 1.367 . S
C804 C798 1.483 . S
C804 C805 1.382 . S
C804 C806 1.403 1_545 S
C805 H784 0.950 . S
C805 C804 1.382 . S
C805 C821 1.411 . S
C806 C804 1.403 1_565 S
C806 C807 1.489 . S
C806 C820 1.411 . S
C807 C806 1.489 . S
C807 C808 1.383 1_565 S
C807 C812 1.382 . S
C808 H785 0.950 . S
C808 C807 1.383 1_545 S
C808 C809 1.395 . S
C809 H786 0.950 . S
C809 C808 1.395 . S
C809 C810 1.288 1_545 S
C810 C809 1.288 1_565 S
C810 C811 1.392 . S
C811 H787 0.951 . S
C811 C810 1.392 . S
C811 C812 1.392 . S
C812 H788 0.949 . S
C812 C807 1.382 . S
C812 C811 1.392 . S
C813 C814 1.376 . S
C813 C818 1.386 1_565 S
C813 C819 1.483 . S
C814 H789 0.949 . S
C814 C813 1.376 . S
C814 C815 1.397 . S
C815 H790 0.950 . S
C815 C814 1.397 . S
C815 C816 1.391 . S
C816 C815 1.391 . S
C816 C817 1.405 1_565 S
C817 H791 0.950 . S
C817 C816 1.405 1_545 S
C817 C818 1.367 . S
C818 H792 0.950 . S
C818 C813 1.386 1_545 S
C818 C817 1.367 . S
C819 C813 1.483 . S
C819 C820 1.382 . S
C819 C821 1.403 1_565 S
C820 H793 0.950 . S
C820 C806 1.411 . S
C820 C819 1.382 . S
C821 C805 1.411 . S
C821 C819 1.403 1_545 S
C821 C822 1.489 . S
C822 C821 1.489 . S
C822 C823 1.383 1_545 S
C822 C827 1.382 . S
C823 H794 0.950 . S
C823 C822 1.383 1_565 S
C823 C824 1.395 . S
C824 H795 0.950 . S
C824 C823 1.395 . S
C824 C825 1.288 1_565 S
C825 C824 1.288 1_545 S
C825 C826 1.392 . S
C826 H796 0.951 . S
C826 C825 1.392 . S
C826 C827 1.392 . S
C827 H797 0.949 . S
C827 C822 1.382 . S
C827 C826 1.392 . S
H828 C847 0.949 . S
H829 C848 0.950 . S
H830 C850 0.950 . S
H831 C851 0.950 . S
H832 C853 0.950 . S
H833 C856 0.950 . S
H834 C857 0.950 . S
H835 C859 0.951 . S
H836 C860 0.949 . S
H837 C862 0.949 . S
H838 C863 0.950 . S
H839 C865 0.950 . S
H840 C866 0.950 . S
H841 C868 0.950 . S
H842 C871 0.950 . S
H843 C872 0.950 . S
H844 C874 0.951 . S
H845 C875 0.949 . S
C846 C847 1.407 . S
C846 C851 1.373 1_545 S
C846 C852 1.465 . S
C847 H828 0.949 . S
C847 C846 1.407 . S
C847 C848 1.397 . S
C848 H829 0.950 . S
C848 C847 1.397 . S
C848 C849 1.391 1_545 S
C849 C848 1.391 1_565 S
C849 C850 1.405 . S
C850 H830 0.950 . S
C850 C849 1.405 . S
C850 C851 1.367 . S
C851 H831 0.950 . S
C851 C846 1.373 1_565 S
C851 C850 1.367 . S
C852 C846 1.465 . S
C852 C853 1.382 . S
C852 C854 1.400 1_545 S
C853 H832 0.950 . S
C853 C852 1.382 . S
C853 C869 1.437 . S
C854 C852 1.400 1_565 S
C854 C855 1.476 . S
C854 C868 1.430 . S
C855 C854 1.476 . S
C855 C856 1.377 1_565 S
C855 C860 1.384 . S
C856 H833 0.950 . S
C856 C855 1.377 1_545 S
C856 C857 1.395 . S
C857 H834 0.950 . S
C857 C856 1.395 . S
C857 C858 1.288 . S
C858 C857 1.288 . S
C858 C859 1.392 1_545 S
C859 H835 0.951 . S
C859 C858 1.392 1_565 S
C859 C860 1.392 . S
C860 H836 0.949 . S
C860 C855 1.384 . S
C860 C859 1.392 . S
C861 C862 1.397 . S
C861 C866 1.377 1_565 S
C861 C867 1.471 . S
C862 H837 0.949 . S
C862 C861 1.397 . S
C862 C863 1.397 . S
C863 H838 0.950 . S
C863 C862 1.397 . S
C863 C864 1.391 1_565 S
C864 C863 1.391 1_545 S
C864 C865 1.405 . S
C865 H839 0.950 . S
C865 C864 1.405 . S
C865 C866 1.367 . S
C866 H840 0.950 . S
C866 C861 1.377 1_545 S
C866 C865 1.367 . S
C867 C861 1.471 . S
C867 C868 1.382 . S
C867 C869 1.400 1_565 S
C868 H841 0.950 . S
C868 C854 1.430 . S
C868 C867 1.382 . S
C869 C853 1.437 . S
C869 C867 1.400 1_545 S
C869 C870 1.476 . S
C870 C869 1.476 . S
C870 C871 1.364 1_545 S
C870 C875 1.392 . S
C871 H842 0.950 . S
C871 C870 1.364 1_565 S
C871 C872 1.395 . S
C872 H843 0.950 . S
C872 C871 1.395 . S
C872 C873 1.288 . S
C873 C872 1.288 . S
C873 C874 1.392 1_565 S
C874 H844 0.951 . S
C874 C873 1.392 1_545 S
C874 C875 1.392 . S
C875 H845 0.949 . S
C875 C870 1.392 . S
C875 C874 1.392 . S
H876 C895 0.949 . S
H877 C896 0.950 . S
H878 C898 0.950 . S
H879 C899 0.950 . S
H880 C901 0.950 . S
H881 C904 0.950 . S
H882 C905 0.950 . S
H883 C907 0.951 . S
H884 C908 0.949 . S
H885 C910 0.949 . S
H886 C911 0.950 . S
H887 C913 0.950 . S
H888 C914 0.950 . S
H889 C916 0.950 . S
H890 C919 0.950 . S
H891 C920 0.950 . S
H892 C922 0.951 . S
H893 C923 0.949 . S
C894 C895 1.376 . S
C894 C899 1.386 1_455 S
C894 C900 1.483 . S
C895 H876 0.949 . S
C895 C894 1.376 . S
C895 C896 1.397 . S
C896 H877 0.950 . S
C896 C895 1.397 . S
C896 C897 1.391 . S
C897 C896 1.391 . S
C897 C898 1.405 1_455 S
C898 H878 0.950 . S
C898 C897 1.405 1_655 S
C898 C899 1.367 . S
C899 H879 0.950 . S
C899 C894 1.386 1_655 S
C899 C898 1.367 . S
C900 C894 1.483 . S
C900 C901 1.382 . S
C900 C902 1.403 1_455 S
C901 H880 0.950 . S
C901 C900 1.382 . S
C901 C917 1.411 . S
C902 C900 1.403 1_655 S
C902 C903 1.489 . S
C902 C916 1.411 . S
C903 C902 1.489 . S
C903 C904 1.383 1_655 S
C903 C908 1.382 . S
C904 H881 0.950 . S
C904 C903 1.383 1_455 S
C904 C905 1.395 . S
C905 H882 0.950 . S
C905 C904 1.395 . S
C905 C906 1.288 1_455 S
C906 C905 1.288 1_655 S
C906 C907 1.392 . S
C907 H883 0.951 . S
C907 C906 1.392 . S
C907 C908 1.392 . S
C908 H884 0.949 . S
C908 C903 1.382 . S
C908 C907 1.392 . S
C909 C910 1.376 . S
C909 C914 1.386 1_655 S
C909 C915 1.483 . S
C910 H885 0.949 . S
C910 C909 1.376 . S
C910 C911 1.397 . S
C911 H886 0.950 . S
C911 C910 1.397 . S
C911 C912 1.391 . S
C912 C911 1.391 . S
C912 C913 1.405 1_655 S
C913 H887 0.950 . S
C913 C912 1.405 1_455 S
C913 C914 1.367 . S
C914 H888 0.950 . S
C914 C909 1.386 1_455 S
C914 C913 1.367 . S
C915 C909 1.483 . S
C915 C916 1.382 . S
C915 C917 1.403 1_655 S
C916 H889 0.950 . S
C916 C902 1.411 . S
C916 C915 1.382 . S
C917 C901 1.411 . S
C917 C915 1.403 1_455 S
C917 C918 1.489 . S
C918 C917 1.489 . S
C918 C919 1.383 1_455 S
C918 C923 1.382 . S
C919 H890 0.950 . S
C919 C918 1.383 1_655 S
C919 C920 1.395 . S
C920 H891 0.950 . S
C920 C919 1.395 . S
C920 C921 1.288 1_655 S
C921 C920 1.288 1_455 S
C921 C922 1.392 . S
C922 H892 0.951 . S
C922 C921 1.392 . S
C922 C923 1.392 . S
C923 H893 0.949 . S
C923 C918 1.382 . S
C923 C922 1.392 . S
H924 C943 0.949 . S
H925 C944 0.950 . S
H926 C946 0.950 . S
H927 C947 0.950 . S
H928 C949 0.950 . S
H929 C952 0.950 . S
H930 C953 0.950 . S
H931 C955 0.951 . S
H932 C956 0.949 . S
H933 C958 0.949 . S
H934 C959 0.950 . S
H935 C961 0.950 . S
H936 C962 0.950 . S
H937 C964 0.950 . S
H938 C967 0.950 . S
H939 C968 0.950 . S
H940 C970 0.951 . S
H941 C971 0.949 . S
C942 C943 1.376 . S
C942 C947 1.386 . S
C942 C948 1.483 . S
C943 H924 0.949 . S
C943 C942 1.376 . S
C943 C944 1.397 . S
C944 H925 0.950 . S
C944 C943 1.397 . S
C944 C945 1.391 . S
C945 C944 1.391 . S
C945 C946 1.405 . S
C946 H926 0.950 . S
C946 C945 1.405 . S
C946 C947 1.367 . S
C947 H927 0.950 . S
C947 C942 1.386 . S
C947 C946 1.367 . S
C948 C942 1.483 . S
C948 C949 1.382 . S
C948 C950 1.403 . S
C949 H928 0.950 . S
C949 C948 1.382 . S
C949 C965 1.411 . S
C950 C948 1.403 . S
C950 C951 1.489 . S
C950 C964 1.411 . S
C951 C950 1.489 . S
C951 C952 1.383 . S
C951 C956 1.382 . S
C952 H929 0.950 . S
C952 C951 1.383 . S
C952 C953 1.395 . S
C953 H930 0.950 . S
C953 C952 1.395 . S
C953 C954 1.288 . S
C954 C953 1.288 . S
C954 C955 1.392 . S
C955 H931 0.951 . S
C955 C954 1.392 . S
C955 C956 1.392 . S
C956 H932 0.949 . S
C956 C951 1.382 . S
C956 C955 1.392 . S
C957 C958 1.376 . S
C957 C962 1.386 . S
C957 C963 1.483 . S
C958 H933 0.949 . S
C958 C957 1.376 . S
C958 C959 1.397 . S
C959 H934 0.950 . S
C959 C958 1.397 . S
C959 C960 1.391 . S
C960 C959 1.391 . S
C960 C961 1.405 . S
C961 H935 0.950 . S
C961 C960 1.405 . S
C961 C962 1.367 . S
C962 H936 0.950 . S
C962 C957 1.386 . S
C962 C961 1.367 . S
C963 C957 1.483 . S
C963 C964 1.382 . S
C963 C965 1.403 . S
C964 H937 0.950 . S
C964 C950 1.411 . S
C964 C963 1.382 . S
C965 C949 1.411 . S
C965 C963 1.403 . S
C965 C966 1.489 . S
C966 C965 1.489 . S
C966 C967 1.383 . S
C966 C971 1.382 . S
C967 H938 0.950 . S
C967 C966 1.383 . S
C967 C968 1.395 . S
C968 H939 0.950 . S
C968 C967 1.395 . S
C968 C969 1.288 . S
C969 C968 1.288 . S
C969 C970 1.392 . S
C970 H940 0.951 . S
C970 C969 1.392 . S
C970 C971 1.392 . S
C971 H941 0.949 . S
C971 C966 1.382 . S
C971 C970 1.392 . S
H972 C991 0.949 . S
H973 C992 0.950 . S
H974 C994 0.950 . S
H975 C995 0.950 . S
H976 C997 0.950 . S
H977 C1000 0.950 . S
H978 C1001 0.950 . S
H979 C1003 0.951 . S
H980 C1004 0.949 . S
H981 C1006 0.949 . S
H982 C1007 0.950 . S
H983 C1009 0.950 . S
H984 C1010 0.950 . S
H985 C1012 0.950 . S
H986 C1015 0.950 . S
H987 C1016 0.950 . S
H988 C1018 0.951 . S
H989 C1019 0.949 . S
C990 C991 1.376 . S
C990 C995 1.386 . S
C990 C996 1.483 . S
C991 H972 0.949 . S
C991 C990 1.376 . S
C991 C992 1.397 . S
C992 H973 0.950 . S
C992 C991 1.397 . S
C992 C993 1.391 . S
C993 C992 1.391 . S
C993 C994 1.405 . S
C994 H974 0.950 . S
C994 C993 1.405 . S
C994 C995 1.367 . S
C995 H975 0.950 . S
C995 C990 1.386 . S
C995 C994 1.367 . S
C996 C990 1.483 . S
C996 C997 1.382 . S
C996 C998 1.403 . S
C997 H976 0.950 . S
C997 C996 1.382 . S
C997 C1013 1.411 . S
C998 C996 1.403 . S
C998 C999 1.489 . S
C998 C1012 1.411 . S
C999 C998 1.489 . S
C999 C1000 1.383 . S
C999 C1004 1.382 . S
C1000 H977 0.950 . S
C1000 C999 1.383 . S
C1000 C1001 1.395 . S
C1001 H978 0.950 . S
C1001 C1000 1.395 . S
C1001 C1002 1.288 . S
C1002 C1001 1.288 . S
C1002 C1003 1.392 . S
C1003 H979 0.951 . S
C1003 C1002 1.392 . S
C1003 C1004 1.392 . S
C1004 H980 0.949 . S
C1004 C999 1.382 . S
C1004 C1003 1.392 . S
C1005 C1006 1.376 . S
C1005 C1010 1.386 . S
C1005 C1011 1.483 . S
C1006 H981 0.949 . S
C1006 C1005 1.376 . S
C1006 C1007 1.397 . S
C1007 H982 0.950 . S
C1007 C1006 1.397 . S
C1007 C1008 1.391 . S
C1008 C1007 1.391 . S
C1008 C1009 1.405 . S
C1009 H983 0.950 . S
C1009 C1008 1.405 . S
C1009 C1010 1.367 . S
C1010 H984 0.950 . S
C1010 C1005 1.386 . S
C1010 C1009 1.367 . S
C1011 C1005 1.483 . S
C1011 C1012 1.382 . S
C1011 C1013 1.403 . S
C1012 H985 0.950 . S
C1012 C998 1.411 . S
C1012 C1011 1.382 . S
C1013 C997 1.411 . S
C1013 C1011 1.403 . S
C1013 C1014 1.489 . S
C1014 C1013 1.489 . S
C1014 C1015 1.383 . S
C1014 C1019 1.382 . S
C1015 H986 0.950 . S
C1015 C1014 1.383 . S
C1015 C1016 1.395 . S
C1016 H987 0.950 . S
C1016 C1015 1.395 . S
C1016 C1017 1.288 . S
C1017 C1016 1.288 . S
C1017 C1018 1.392 . S
C1018 H988 0.951 . S
C1018 C1017 1.392 . S
C1018 C1019 1.392 . S
C1019 H989 0.949 . S
C1019 C1014 1.382 . S
C1019 C1018 1.392 . S
H1020 C1039 0.949 . S
H1021 C1040 0.950 . S
H1022 C1042 0.950 . S
H1023 C1043 0.950 . S
H1024 C1045 0.950 . S
H1025 C1048 0.950 . S
H1026 C1049 0.950 . S
H1027 C1051 0.951 . S
H1028 C1052 0.949 . S
H1029 C1054 0.949 . S
H1030 C1055 0.950 . S
H1031 C1057 0.950 . S
H1032 C1058 0.950 . S
H1033 C1060 0.950 . S
H1034 C1063 0.950 . S
H1035 C1064 0.950 . S
H1036 C1066 0.951 . S
H1037 C1067 0.949 . S
C1038 C1039 1.376 . S
C1038 C1043 1.386 . S
C1038 C1044 1.483 . S
C1039 H1020 0.949 . S
C1039 C1038 1.376 . S
C1039 C1040 1.397 . S
C1040 H1021 0.950 . S
C1040 C1039 1.397 . S
C1040 C1041 1.391 . S
C1041 C1040 1.391 . S
C1041 C1042 1.405 . S
C1042 H1022 0.950 . S
C1042 C1041 1.405 . S
C1042 C1043 1.367 . S
C1043 H1023 0.950 . S
C1043 C1038 1.386 . S
C1043 C1042 1.367 . S
C1044 C1038 1.483 . S
C1044 C1045 1.382 . S
C1044 C1046 1.403 . S
C1045 H1024 0.950 . S
C1045 C1044 1.382 . S
C1045 C1061 1.411 . S
C1046 C1044 1.403 . S
C1046 C1047 1.489 . S
C1046 C1060 1.411 . S
C1047 C1046 1.489 . S
C1047 C1048 1.383 . S
C1047 C1052 1.382 . S
C1048 H1025 0.950 . S
C1048 C1047 1.383 . S
C1048 C1049 1.395 . S
C1049 H1026 0.950 . S
C1049 C1048 1.395 . S
C1049 C1050 1.288 . S
C1050 C1049 1.288 . S
C1050 C1051 1.392 . S
C1051 H1027 0.951 . S
C1051 C1050 1.392 . S
C1051 C1052 1.392 . S
C1052 H1028 0.949 . S
C1052 C1047 1.382 . S
C1052 C1051 1.392 . S
C1053 C1054 1.376 . S
C1053 C1058 1.386 . S
C1053 C1059 1.483 . S
C1054 H1029 0.949 . S
C1054 C1053 1.376 . S
C1054 C1055 1.397 . S
C1055 H1030 0.950 . S
C1055 C1054 1.397 . S
C1055 C1056 1.391 . S
C1056 C1055 1.391 . S
C1056 C1057 1.405 . S
C1057 H1031 0.950 . S
C1057 C1056 1.405 . S
C1057 C1058 1.367 . S
C1058 H1032 0.950 . S
C1058 C1053 1.386 . S
C1058 C1057 1.367 . S
C1059 C1053 1.483 . S
C1059 C1060 1.382 . S
C1059 C1061 1.403 . S
C1060 H1033 0.950 . S
C1060 C1046 1.411 . S
C1060 C1059 1.382 . S
C1061 C1045 1.411 . S
C1061 C1059 1.403 . S
C1061 C1062 1.489 . S
C1062 C1061 1.489 . S
C1062 C1063 1.383 . S
C1062 C1067 1.382 . S
C1063 H1034 0.950 . S
C1063 C1062 1.383 . S
C1063 C1064 1.395 . S
C1064 H1035 0.950 . S
C1064 C1063 1.395 . S
C1064 C1065 1.288 . S
C1065 C1064 1.288 . S
C1065 C1066 1.392 . S
C1066 H1036 0.951 . S
C1066 C1065 1.392 . S
C1066 C1067 1.392 . S
C1067 H1037 0.949 . S
C1067 C1062 1.382 . S
C1067 C1066 1.392 . S
H1068 C1087 0.949 . S
H1069 C1088 0.950 . S
H1070 C1090 0.950 . S
H1071 C1091 0.950 . S
H1072 C1093 0.950 . S
H1073 C1096 0.950 . S
H1074 C1097 0.950 . S
H1075 C1099 0.951 . S
H1076 C1100 0.949 . S
H1077 C1102 0.949 . S
H1078 C1103 0.950 . S
H1079 C1105 0.950 . S
H1080 C1106 0.950 . S
H1081 C1108 0.950 . S
H1082 C1111 0.950 . S
H1083 C1112 0.950 . S
H1084 C1114 0.951 . S
H1085 C1115 0.949 . S
C1086 C1087 1.376 . S
C1086 C1091 1.386 . S
C1086 C1092 1.483 . S
C1087 H1068 0.949 . S
C1087 C1086 1.376 . S
C1087 C1088 1.397 . S
C1088 H1069 0.950 . S
C1088 C1087 1.397 . S
C1088 C1089 1.391 . S
C1089 C1088 1.391 . S
C1089 C1090 1.405 . S
C1090 H1070 0.950 . S
C1090 C1089 1.405 . S
C1090 C1091 1.367 . S
C1091 H1071 0.950 . S
C1091 C1086 1.386 . S
C1091 C1090 1.367 . S
C1092 C1086 1.483 . S
C1092 C1093 1.382 . S
C1092 C1094 1.403 . S
C1093 H1072 0.950 . S
C1093 C1092 1.382 . S
C1093 C1109 1.411 . S
C1094 C1092 1.403 . S
C1094 C1095 1.489 . S
C1094 C1108 1.411 . S
C1095 C1094 1.489 . S
C1095 C1096 1.383 . S
C1095 C1100 1.382 . S
C1096 H1073 0.950 . S
C1096 C1095 1.383 . S
C1096 C1097 1.395 . S
C1097 H1074 0.950 . S
C1097 C1096 1.395 . S
C1097 C1098 1.288 . S
C1098 C1097 1.288 . S
C1098 C1099 1.392 . S
C1099 H1075 0.951 . S
C1099 C1098 1.392 . S
C1099 C1100 1.392 . S
C1100 H1076 0.949 . S
C1100 C1095 1.382 . S
C1100 C1099 1.392 . S
C1101 C1102 1.376 . S
C1101 C1106 1.386 . S
C1101 C1107 1.483 . S
C1102 H1077 0.949 . S
C1102 C1101 1.376 . S
C1102 C1103 1.397 . S
C1103 H1078 0.950 . S
C1103 C1102 1.397 . S
C1103 C1104 1.391 . S
C1104 C1103 1.391 . S
C1104 C1105 1.405 . S
C1105 H1079 0.950 . S
C1105 C1104 1.405 . S
C1105 C1106 1.367 . S
C1106 H1080 0.950 . S
C1106 C1101 1.386 . S
C1106 C1105 1.367 . S
C1107 C1101 1.483 . S
C1107 C1108 1.382 . S
C1107 C1109 1.403 . S
C1108 H1081 0.950 . S
C1108 C1094 1.411 . S
C1108 C1107 1.382 . S
C1109 C1093 1.411 . S
C1109 C1107 1.403 . S
C1109 C1110 1.489 . S
C1110 C1109 1.489 . S
C1110 C1111 1.383 . S
C1110 C1115 1.382 . S
C1111 H1082 0.950 . S
C1111 C1110 1.383 . S
C1111 C1112 1.395 . S
C1112 H1083 0.950 . S
C1112 C1111 1.395 . S
C1112 C1113 1.288 . S
C1113 C1112 1.288 . S
C1113 C1114 1.392 . S
C1114 H1084 0.951 . S
C1114 C1113 1.392 . S
C1114 C1115 1.392 . S
C1115 H1085 0.949 . S
C1115 C1110 1.382 . S
C1115 C1114 1.392 . S
C1116 C1117 1.363 . S
C1116 C1122 1.379 . S
C1116 N1124 1.356 . S
C1117 C1116 1.363 . S
C1117 C1123 1.363 1_655 S
C1118 C1119 1.363 1_455 S
C1118 C1123 1.379 . S
C1118 N1125 1.356 . S
C1119 C1118 1.363 1_655 S
C1119 C1122 1.363 . S
N1120 C1122 1.356 . S
N1120 H1132 0.984 . S
N1120 H1133 0.985 . S
N1121 C1123 1.356 . S
N1121 H1126 0.984 . S
N1121 H1127 0.985 . S
C1122 C1116 1.379 . S
C1122 C1119 1.363 . S
C1122 N1120 1.356 . S
C1123 C1117 1.363 1_455 S
C1123 C1118 1.379 . S
C1123 N1121 1.356 . S
N1124 C1116 1.356 . S
N1124 H1130 0.984 . S
N1124 H1131 0.984 . S
N1125 C1118 1.356 . S
N1125 H1128 0.984 . S
N1125 H1129 0.985 . S
H1126 N1121 0.984 . S
H1127 N1121 0.985 . S
H1128 N1125 0.984 . S
H1129 N1125 0.985 . S
H1130 N1124 0.984 . S
H1131 N1124 0.984 . S
H1132 N1120 0.984 . S
H1133 N1120 0.985 . S
C1134 C1135 1.363 . S
C1134 C1140 1.379 . S
C1134 N1142 1.356 . S
C1135 C1134 1.363 . S
C1135 C1141 1.363 . S
C1136 C1137 1.363 . S
C1136 C1141 1.379 . S
C1136 N1143 1.356 . S
C1137 C1136 1.363 . S
C1137 C1140 1.363 . S
N1138 C1140 1.356 . S
N1138 H1150 0.984 . S
N1138 H1151 0.985 . S
N1139 C1141 1.356 . S
N1139 H1144 0.984 . S
N1139 H1145 0.985 . S
C1140 C1134 1.379 . S
C1140 C1137 1.363 . S
C1140 N1138 1.356 . S
C1141 C1135 1.363 . S
C1141 C1136 1.379 . S
C1141 N1139 1.356 . S
N1142 C1134 1.356 . S
N1142 H1148 0.984 . S
N1142 H1149 0.984 . S
N1143 C1136 1.356 . S
N1143 H1146 0.984 . S
N1143 H1147 0.985 . S
H1144 N1139 0.984 . S
H1145 N1139 0.985 . S
H1146 N1143 0.984 . S
H1147 N1143 0.985 . S
H1148 N1142 0.984 . S
H1149 N1142 0.984 . S
H1150 N1138 0.984 . S
H1151 N1138 0.985 . S
C1152 C1153 1.363 . S
C1152 C1158 1.379 . S
C1152 N1160 1.356 . S
C1153 C1152 1.363 . S
C1153 C1159 1.363 1_545 S
C1154 C1155 1.363 1_565 S
C1154 C1159 1.379 . S
C1154 N1161 1.356 . S
C1155 C1154 1.363 1_545 S
C1155 C1158 1.363 . S
N1156 C1158 1.356 . S
N1156 H1168 0.984 . S
N1156 H1169 0.985 . S
N1157 C1159 1.356 . S
N1157 H1162 0.984 . S
N1157 H1163 0.985 . S
C1158 C1152 1.379 . S
C1158 C1155 1.363 . S
C1158 N1156 1.356 . S
C1159 C1153 1.363 1_565 S
C1159 C1154 1.379 . S
C1159 N1157 1.356 . S
N1160 C1152 1.356 . S
N1160 H1166 0.984 . S
N1160 H1167 0.984 . S
N1161 C1154 1.356 . S
N1161 H1164 0.984 . S
N1161 H1165 0.985 . S
H1162 N1157 0.984 . S
H1163 N1157 0.985 . S
H1164 N1161 0.984 . S
H1165 N1161 0.985 . S
H1166 N1160 0.984 . S
H1167 N1160 0.984 . S
H1168 N1156 0.984 . S
H1169 N1156 0.985 . S
C1170 C1171 1.363 . S
C1170 C1176 1.379 . S
C1170 N1178 1.356 . S
C1171 C1170 1.363 . S
C1171 C1177 1.363 1_565 S
C1172 C1173 1.363 1_545 S
C1172 C1177 1.379 . S
C1172 N1179 1.356 . S
C1173 C1172 1.363 1_565 S
C1173 C1176 1.363 . S
N1174 C1176 1.356 . S
N1174 H1186 0.984 . S
N1174 H1187 0.985 . S
N1175 C1177 1.356 . S
N1175 H1180 0.984 . S
N1175 H1181 0.985 . S
C1176 C1170 1.379 . S
C1176 C1173 1.363 . S
C1176 N1174 1.356 . S
C1177 C1171 1.363 1_545 S
C1177 C1172 1.379 . S
C1177 N1175 1.356 . S
N1178 C1170 1.356 . S
N1178 H1184 0.984 . S
N1178 H1185 0.984 . S
N1179 C1172 1.356 . S
N1179 H1182 0.984 . S
N1179 H1183 0.985 . S
H1180 N1175 0.984 . S
H1181 N1175 0.985 . S
H1182 N1179 0.984 . S
H1183 N1179 0.985 . S
H1184 N1178 0.984 . S
H1185 N1178 0.984 . S
H1186 N1174 0.984 . S
H1187 N1174 0.985 . S
C1188 C1189 1.363 . S
C1188 C1194 1.379 . S
C1188 N1196 1.356 . S
C1189 C1188 1.363 . S
C1189 C1195 1.363 . S
C1190 C1191 1.363 . S
C1190 C1195 1.379 . S
C1190 N1197 1.346 1_455 S
C1191 C1190 1.363 . S
C1191 C1194 1.363 . S
N1192 C1194 1.356 . S
N1192 H1204 0.984 . S
N1192 H1205 0.985 . S
N1193 C1195 1.356 . S
N1193 H1198 0.984 . S
N1193 H1199 0.984 . S
C1194 C1188 1.379 . S
C1194 C1191 1.363 . S
C1194 N1192 1.356 . S
C1195 C1189 1.363 . S
C1195 C1190 1.379 . S
C1195 N1193 1.356 . S
N1196 C1188 1.356 . S
N1196 H1202 0.984 . S
N1196 H1203 0.984 . S
N1197 C1190 1.346 1_655 S
N1197 H1200 1.013 . S
N1197 H1201 0.970 . S
H1198 N1193 0.984 . S
H1199 N1193 0.984 . S
H1200 N1197 1.013 . S
H1201 N1197 0.970 . S
H1202 N1196 0.984 . S
H1203 N1196 0.984 . S
H1204 N1192 0.984 . S
H1205 N1192 0.985 . S
C1206 C1207 1.363 . S
C1206 C1212 1.379 . S
C1206 N1214 1.356 . S
C1207 C1206 1.363 . S
C1207 C1213 1.363 . S
C1208 C1209 1.363 . S
C1208 C1213 1.379 . S
C1208 N1215 1.356 . S
C1209 C1208 1.363 . S
C1209 C1212 1.363 . S
N1210 C1212 1.356 . S
N1210 H1222 0.984 . S
N1210 H1223 0.985 . S
N1211 C1213 1.356 . S
N1211 H1216 0.984 . S
N1211 H1217 0.985 . S
C1212 C1206 1.379 . S
C1212 C1209 1.363 . S
C1212 N1210 1.356 . S
C1213 C1207 1.363 . S
C1213 C1208 1.379 . S
C1213 N1211 1.356 . S
N1214 C1206 1.356 . S
N1214 H1220 0.984 . S
N1214 H1221 0.984 . S
N1215 C1208 1.356 . S
N1215 H1218 0.984 . S
N1215 H1219 0.985 . S
H1216 N1211 0.984 . S
H1217 N1211 0.985 . S
H1218 N1215 0.984 . S
H1219 N1215 0.985 . S
H1220 N1214 0.984 . S
H1221 N1214 0.984 . S
H1222 N1210 0.984 . S
H1223 N1210 0.985 . S
C1224 C1225 1.363 . S
C1224 C1230 1.379 . S
C1224 N1232 1.356 . S
C1225 C1224 1.363 . S
C1225 C1231 1.363 . S
C1226 C1227 1.363 . S
C1226 C1231 1.379 . S
C1226 N1233 1.356 . S
C1227 C1226 1.363 . S
C1227 C1230 1.363 . S
N1228 C1230 1.356 1_655 S
N1228 H1240 0.984 . S
N1228 H1241 0.985 . S
N1229 C1231 1.356 . S
N1229 H1234 0.984 . S
N1229 H1235 0.985 . S
C1230 C1224 1.379 . S
C1230 C1227 1.363 . S
C1230 N1228 1.356 1_455 S
C1231 C1225 1.363 . S
C1231 C1226 1.379 . S
C1231 N1229 1.356 . S
N1232 C1224 1.356 . S
N1232 H1238 0.984 1_455 S
N1232 H1239 0.984 . S
N1233 C1226 1.356 . S
N1233 H1236 0.984 . S
N1233 H1237 0.985 . S
H1234 N1229 0.984 . S
H1235 N1229 0.985 . S
H1236 N1233 0.984 . S
H1237 N1233 0.985 . S
H1238 N1232 0.984 1_655 S
H1239 N1232 0.984 . S
H1240 N1228 0.984 . S
H1241 N1228 0.985 . S
C1242 C1243 1.363 . S
C1242 C1248 1.379 . S
C1242 N1250 1.356 . S
C1243 C1242 1.363 . S
C1243 C1249 1.363 . S
C1244 C1245 1.363 . S
C1244 C1249 1.379 . S
C1244 N1251 1.356 . S
C1245 C1244 1.363 . S
C1245 C1248 1.363 . S
N1246 C1248 1.356 . S
N1246 H1258 0.984 . S
N1246 H1259 0.985 . S
N1247 C1249 1.356 . S
N1247 H1252 0.984 . S
N1247 H1253 0.985 . S
C1248 C1242 1.379 . S
C1248 C1245 1.363 . S
C1248 N1246 1.356 . S
C1249 C1243 1.363 . S
C1249 C1244 1.379 . S
C1249 N1247 1.356 . S
N1250 C1242 1.356 . S
N1250 H1256 0.984 . S
N1250 H1257 0.984 . S
N1251 C1244 1.356 . S
N1251 H1254 0.984 . S
N1251 H1255 0.985 . S
H1252 N1247 0.984 . S
H1253 N1247 0.985 . S
H1254 N1251 0.984 . S
H1255 N1251 0.985 . S
H1256 N1250 0.984 . S
H1257 N1250 0.984 . S
H1258 N1246 0.984 . S
H1259 N1246 0.985 . S
C1260 C1261 1.363 1_545 S
C1260 C1266 1.379 . S
C1260 N1268 1.356 . S
C1261 C1260 1.363 1_565 S
C1261 C1267 1.363 . S
C1262 C1263 1.363 . S
C1262 C1267 1.379 . S
C1262 N1269 1.356 . S
C1263 C1262 1.363 . S
C1263 C1266 1.363 1_565 S
N1264 C1266 1.356 . S
N1264 H1276 0.984 . S
N1264 H1277 0.985 . S
N1265 C1267 1.356 . S
N1265 H1270 0.984 . S
N1265 H1271 0.985 . S
C1266 C1260 1.379 . S
C1266 C1263 1.363 1_545 S
C1266 N1264 1.356 . S
C1267 C1261 1.363 . S
C1267 C1262 1.379 . S
C1267 N1265 1.356 . S
N1268 C1260 1.356 . S
N1268 H1274 0.984 . S
N1268 H1275 0.984 . S
N1269 C1262 1.356 . S
N1269 H1272 0.984 . S
N1269 H1273 0.985 . S
H1270 N1265 0.984 . S
H1271 N1265 0.985 . S
H1272 N1269 0.984 . S
H1273 N1269 0.985 . S
H1274 N1268 0.984 . S
H1275 N1268 0.984 . S
H1276 N1264 0.984 . S
H1277 N1264 0.985 . S
C1278 C1279 1.363 . S
C1278 C1284 1.379 . S
C1278 N1286 1.356 . S
C1279 C1278 1.363 . S
C1279 C1285 1.363 1_545 S
C1280 C1281 1.363 1_565 S
C1280 C1285 1.379 . S
C1280 N1287 1.356 . S
C1281 C1280 1.363 1_545 S
C1281 C1284 1.363 . S
N1282 C1284 1.356 . S
N1282 H1294 0.984 . S
N1282 H1295 0.985 . S
N1283 C1285 1.356 . S
N1283 H1288 0.984 . S
N1283 H1289 0.985 . S
C1284 C1278 1.379 . S
C1284 C1281 1.363 . S
C1284 N1282 1.356 . S
C1285 C1279 1.363 1_565 S
C1285 C1280 1.379 . S
C1285 N1283 1.356 . S
N1286 C1278 1.356 . S
N1286 H1292 0.984 . S
N1286 H1293 0.984 . S
N1287 C1280 1.356 . S
N1287 H1290 0.984 . S
N1287 H1291 0.985 . S
H1288 N1283 0.984 . S
H1289 N1283 0.985 . S
H1290 N1287 0.984 . S
H1291 N1287 0.985 . S
H1292 N1286 0.984 . S
H1293 N1286 0.984 . S
H1294 N1282 0.984 . S
H1295 N1282 0.985 . S
C1296 C1297 1.363 . S
C1296 C1302 1.379 . S
C1296 N1304 1.356 . S
C1297 C1296 1.363 . S
C1297 C1303 1.363 1_655 S
C1298 C1299 1.363 1_455 S
C1298 C1303 1.379 . S
C1298 N1305 1.356 . S
C1299 C1298 1.363 1_655 S
C1299 C1302 1.363 . S
N1300 C1302 1.356 . S
N1300 H1312 0.984 . S
N1300 H1313 0.985 . S
N1301 C1303 1.356 . S
N1301 H1306 0.984 . S
N1301 H1307 0.985 . S
C1302 C1296 1.379 . S
C1302 C1299 1.363 . S
C1302 N1300 1.356 . S
C1303 C1297 1.363 1_455 S
C1303 C1298 1.379 . S
C1303 N1301 1.356 . S
N1304 C1296 1.356 . S
N1304 H1310 0.984 . S
N1304 H1311 0.984 . S
N1305 C1298 1.356 . S
N1305 H1308 0.984 . S
N1305 H1309 0.985 . S
H1306 N1301 0.984 . S
H1307 N1301 0.985 . S
H1308 N1305 0.984 . S
H1309 N1305 0.985 . S
H1310 N1304 0.984 . S
H1311 N1304 0.984 . S
H1312 N1300 0.984 . S
H1313 N1300 0.985 . S
C1314 C1315 1.363 . S
C1314 C1320 1.379 . S
C1314 N1322 1.356 . S
C1315 C1314 1.363 . S
C1315 C1321 1.363 . S
C1316 C1317 1.363 . S
C1316 C1321 1.379 . S
C1316 N1323 1.356 . S
C1317 C1316 1.363 . S
C1317 C1320 1.363 . S
N1318 C1320 1.356 . S
N1318 H1330 0.984 . S
N1318 H1331 0.985 . S
N1319 C1321 1.356 . S
N1319 H1324 0.984 . S
N1319 H1325 0.985 . S
C1320 C1314 1.379 . S
C1320 C1317 1.363 . S
C1320 N1318 1.356 . S
C1321 C1315 1.363 . S
C1321 C1316 1.379 . S
C1321 N1319 1.356 . S
N1322 C1314 1.356 . S
N1322 H1328 0.984 . S
N1322 H1329 0.984 . S
N1323 C1316 1.356 . S
N1323 H1326 0.984 . S
N1323 H1327 0.985 . S
H1324 N1319 0.984 . S
H1325 N1319 0.985 . S
H1326 N1323 0.984 . S
H1327 N1323 0.985 . S
H1328 N1322 0.984 . S
H1329 N1322 0.984 . S
H1330 N1318 0.984 . S
H1331 N1318 0.985 . S
C1332 C1333 1.363 . S
C1332 C1338 1.379 . S
C1332 N1340 1.356 . S
C1333 C1332 1.363 . S
C1333 C1339 1.363 . S
C1334 C1335 1.363 . S
C1334 C1339 1.379 . S
C1334 N1341 1.356 . S
C1335 C1334 1.363 . S
C1335 C1338 1.363 . S
N1336 C1338 1.356 . S
N1336 H1348 0.984 . S
N1336 H1349 0.985 . S
N1337 C1339 1.356 . S
N1337 H1342 0.984 . S
N1337 H1343 0.985 . S
C1338 C1332 1.379 . S
C1338 C1335 1.363 . S
C1338 N1336 1.356 . S
C1339 C1333 1.363 . S
C1339 C1334 1.379 . S
C1339 N1337 1.356 . S
N1340 C1332 1.356 . S
N1340 H1346 0.984 . S
N1340 H1347 0.984 . S
N1341 C1334 1.356 . S
N1341 H1344 0.984 . S
N1341 H1345 0.985 . S
H1342 N1337 0.984 . S
H1343 N1337 0.985 . S
H1344 N1341 0.984 . S
H1345 N1341 0.985 . S
H1346 N1340 0.984 . S
H1347 N1340 0.984 . S
H1348 N1336 0.984 . S
H1349 N1336 0.985 . S
C1350 C1351 1.363 . S
C1350 C1356 1.379 . S
C1350 N1358 1.356 . S
C1351 C1350 1.363 . S
C1351 C1357 1.363 . S
C1352 C1353 1.363 . S
C1352 C1357 1.379 . S
C1352 N1359 1.356 . S
C1353 C1352 1.363 . S
C1353 C1356 1.363 . S
N1354 C1356 1.356 . S
N1354 H1366 0.984 . S
N1354 H1367 0.985 . S
N1355 C1357 1.356 . S
N1355 H1360 0.984 . S
N1355 H1361 0.985 . S
C1356 C1350 1.379 . S
C1356 C1353 1.363 . S
C1356 N1354 1.356 . S
C1357 C1351 1.363 . S
C1357 C1352 1.379 . S
C1357 N1355 1.356 . S
N1358 C1350 1.356 . S
N1358 H1364 0.984 . S
N1358 H1365 0.984 . S
N1359 C1352 1.356 . S
N1359 H1362 0.984 . S
N1359 H1363 0.985 . S
H1360 N1355 0.984 . S
H1361 N1355 0.985 . S
H1362 N1359 0.984 . S
H1363 N1359 0.985 . S
H1364 N1358 0.984 . S
H1365 N1358 0.984 . S
H1366 N1354 0.984 . S
H1367 N1354 0.985 . S
C1368 C1369 1.363 . S
C1368 C1374 1.379 . S
C1368 N1376 1.356 . S
C1369 C1368 1.363 . S
C1369 C1375 1.363 . S
C1370 C1371 1.363 . S
C1370 C1375 1.379 . S
C1370 N1377 1.356 . S
C1371 C1370 1.363 . S
C1371 C1374 1.363 . S
N1372 C1374 1.356 . S
N1372 H1384 0.984 . S
N1372 H1385 0.985 . S
N1373 C1375 1.356 . S
N1373 H1378 0.984 . S
N1373 H1379 0.985 . S
C1374 C1368 1.379 . S
C1374 C1371 1.363 . S
C1374 N1372 1.356 . S
C1375 C1369 1.363 . S
C1375 C1370 1.379 . S
C1375 N1373 1.356 . S
N1376 C1368 1.356 . S
N1376 H1382 0.984 . S
N1376 H1383 0.984 . S
N1377 C1370 1.356 . S
N1377 H1380 0.984 . S
N1377 H1381 0.985 . S
H1378 N1373 0.984 . S
H1379 N1373 0.985 . S
H1380 N1377 0.984 . S
H1381 N1377 0.985 . S
H1382 N1376 0.984 . S
H1383 N1376 0.984 . S
H1384 N1372 0.984 . S
H1385 N1372 0.985 . S
C1386 C1387 1.363 . S
C1386 C1392 1.379 . S
C1386 N1394 1.356 . S
C1387 C1386 1.363 . S
C1387 C1393 1.363 . S
C1388 C1389 1.363 . S
C1388 C1393 1.379 . S
C1388 N1395 1.356 . S
C1389 C1388 1.363 . S
C1389 C1392 1.363 . S
N1390 C1392 1.356 . S
N1390 H1402 0.984 . S
N1390 H1403 0.985 . S
N1391 C1393 1.356 . S
N1391 H1396 0.984 . S
N1391 H1397 0.985 . S
C1392 C1386 1.379 . S
C1392 C1389 1.363 . S
C1392 N1390 1.356 . S
C1393 C1387 1.363 . S
C1393 C1388 1.379 . S
C1393 N1391 1.356 . S
N1394 C1386 1.356 . S
N1394 H1400 0.984 . S
N1394 H1401 0.984 . S
N1395 C1388 1.356 . S
N1395 H1398 0.984 . S
N1395 H1399 0.985 . S
H1396 N1391 0.984 . S
H1397 N1391 0.985 . S
H1398 N1395 0.984 . S
H1399 N1395 0.985 . S
H1400 N1394 0.984 . S
H1401 N1394 0.984 . S
H1402 N1390 0.984 . S
H1403 N1390 0.985 . S
C1404 C1405 1.363 . S
C1404 C1410 1.379 . S
C1404 N1412 1.356 . S
C1405 C1404 1.363 . S
C1405 C1411 1.363 . S
C1406 C1407 1.363 . S
C1406 C1411 1.379 . S
C1406 N1413 1.356 . S
C1407 C1406 1.363 . S
C1407 C1410 1.363 . S
N1408 C1410 1.356 . S
N1408 H1420 0.984 . S
N1408 H1421 0.985 . S
N1409 C1411 1.356 . S
N1409 H1414 0.984 . S
N1409 H1415 0.985 . S
C1410 C1404 1.379 . S
C1410 C1407 1.363 . S
C1410 N1408 1.356 . S
C1411 C1405 1.363 . S
C1411 C1406 1.379 . S
C1411 N1409 1.356 . S
N1412 C1404 1.356 . S
N1412 H1418 0.984 . S
N1412 H1419 0.984 . S
N1413 C1406 1.356 . S
N1413 H1416 0.984 . S
N1413 H1417 0.985 . S
H1414 N1409 0.984 . S
H1415 N1409 0.985 . S
H1416 N1413 0.984 . S
H1417 N1413 0.985 . S
H1418 N1412 0.984 . S
H1419 N1412 0.984 . S
H1420 N1408 0.984 . S
H1421 N1408 0.985 . S
C1422 C1423 1.363 . S
C1422 C1428 1.379 . S
C1422 N1430 1.356 . S
C1423 C1422 1.363 . S
C1423 C1429 1.363 . S
C1424 C1425 1.363 . S
C1424 C1429 1.379 . S
C1424 N1431 1.356 . S
C1425 C1424 1.363 . S
C1425 C1428 1.363 . S
N1426 C1428 1.356 . S
N1426 H1438 0.984 . S
N1426 H1439 0.985 . S
N1427 C1429 1.356 . S
N1427 H1432 0.984 . S
N1427 H1433 0.985 . S
C1428 C1422 1.379 . S
C1428 C1425 1.363 . S
C1428 N1426 1.356 . S
C1429 C1423 1.363 . S
C1429 C1424 1.379 . S
C1429 N1427 1.356 . S
N1430 C1422 1.356 . S
N1430 H1436 0.984 . S
N1430 H1437 0.984 . S
N1431 C1424 1.356 . S
N1431 H1434 0.984 . S
N1431 H1435 0.985 . S
H1432 N1427 0.984 . S
H1433 N1427 0.985 . S
H1434 N1431 0.984 . S
H1435 N1431 0.985 . S
H1436 N1430 0.984 . S
H1437 N1430 0.984 . S
H1438 N1426 0.984 . S
H1439 N1426 0.985 . S
C1440 C1441 1.363 . S
C1440 C1446 1.379 . S
C1440 N1448 1.356 . S
C1441 C1440 1.363 . S
C1441 C1447 1.363 . S
C1442 C1443 1.363 . S
C1442 C1447 1.379 . S
C1442 N1449 1.356 . S
C1443 C1442 1.363 . S
C1443 C1446 1.363 . S
N1444 C1446 1.356 . S
N1444 H1456 0.984 . S
N1444 H1457 0.985 . S
N1445 C1447 1.356 . S
N1445 H1450 0.984 . S
N1445 H1451 0.985 . S
C1446 C1440 1.379 . S
C1446 C1443 1.363 . S
C1446 N1444 1.356 . S
C1447 C1441 1.363 . S
C1447 C1442 1.379 . S
C1447 N1445 1.356 . S
N1448 C1440 1.356 . S
N1448 H1454 0.984 . S
N1448 H1455 0.984 . S
N1449 C1442 1.356 . S
N1449 H1452 0.984 . S
N1449 H1453 0.985 . S
H1450 N1445 0.984 . S
H1451 N1445 0.985 . S
H1452 N1449 0.984 . S
H1453 N1449 0.985 . S
H1454 N1448 0.984 . S
H1455 N1448 0.984 . S
H1456 N1444 0.984 . S
H1457 N1444 0.985 . S
C1458 C1459 1.363 . S
C1458 C1464 1.379 . S
C1458 N1466 1.356 . S
C1459 C1458 1.363 . S
C1459 C1465 1.363 . S
C1460 C1461 1.363 . S
C1460 C1465 1.379 . S
C1460 N1467 1.356 . S
C1461 C1460 1.363 . S
C1461 C1464 1.363 . S
N1462 C1464 1.356 . S
N1462 H1474 0.984 . S
N1462 H1475 0.985 . S
N1463 C1465 1.356 . S
N1463 H1468 0.984 . S
N1463 H1469 0.985 . S
C1464 C1458 1.379 . S
C1464 C1461 1.363 . S
C1464 N1462 1.356 . S
C1465 C1459 1.363 . S
C1465 C1460 1.379 . S
C1465 N1463 1.356 . S
N1466 C1458 1.356 . S
N1466 H1472 0.984 . S
N1466 H1473 0.984 . S
N1467 C1460 1.356 . S
N1467 H1470 0.984 . S
N1467 H1471 0.985 . S
H1468 N1463 0.984 . S
H1469 N1463 0.985 . S
H1470 N1467 0.984 . S
H1471 N1467 0.985 . S
H1472 N1466 0.984 . S
H1473 N1466 0.984 . S
H1474 N1462 0.984 . S
H1475 N1462 0.985 . S
C1476 C1477 1.363 . S
C1476 C1482 1.379 . S
C1476 N1484 1.356 . S
C1477 C1476 1.363 . S
C1477 C1483 1.363 . S
C1478 C1479 1.363 . S
C1478 C1483 1.379 . S
C1478 N1485 1.356 . S
C1479 C1478 1.363 . S
C1479 C1482 1.363 . S
N1480 C1482 1.356 . S
N1480 H1492 0.984 . S
N1480 H1493 0.985 . S
N1481 C1483 1.356 . S
N1481 H1486 0.984 . S
N1481 H1487 0.985 . S
C1482 C1476 1.379 . S
C1482 C1479 1.363 . S
C1482 N1480 1.356 . S
C1483 C1477 1.363 . S
C1483 C1478 1.379 . S
C1483 N1481 1.356 . S
N1484 C1476 1.356 . S
N1484 H1490 0.984 . S
N1484 H1491 0.984 . S
N1485 C1478 1.356 . S
N1485 H1488 0.984 . S
N1485 H1489 0.985 . S
H1486 N1481 0.984 . S
H1487 N1481 0.985 . S
H1488 N1485 0.984 . S
H1489 N1485 0.985 . S
H1490 N1484 0.984 . S
H1491 N1484 0.984 . S
H1492 N1480 0.984 . S
H1493 N1480 0.985 . S
C1494 C1495 1.363 . S
C1494 C1500 1.379 . S
C1494 N1502 1.356 . S
C1495 C1494 1.363 . S
C1495 C1501 1.363 . S
C1496 C1497 1.363 . S
C1496 C1501 1.379 . S
C1496 N1503 1.356 . S
C1497 C1496 1.363 . S
C1497 C1500 1.363 . S
N1498 C1500 1.356 . S
N1498 H1510 0.984 . S
N1498 H1511 0.985 . S
N1499 C1501 1.356 . S
N1499 H1504 0.984 . S
N1499 H1505 0.985 . S
C1500 C1494 1.379 . S
C1500 C1497 1.363 . S
C1500 N1498 1.356 . S
C1501 C1495 1.363 . S
C1501 C1496 1.379 . S
C1501 N1499 1.356 . S
N1502 C1494 1.356 . S
N1502 H1508 0.984 . S
N1502 H1509 0.984 . S
N1503 C1496 1.356 . S
N1503 H1506 0.984 . S
N1503 H1507 0.985 . S
H1504 N1499 0.984 . S
H1505 N1499 0.985 . S
H1506 N1503 0.984 . S
H1507 N1503 0.985 . S
H1508 N1502 0.984 . S
H1509 N1502 0.984 . S
H1510 N1498 0.984 . S
H1511 N1498 0.985 . S
C1512 C1513 1.363 . S
C1512 C1518 1.379 . S
C1512 N1520 1.356 . S
C1513 C1512 1.363 . S
C1513 C1519 1.363 . S
C1514 C1515 1.363 . S
C1514 C1519 1.379 . S
C1514 N1521 1.356 . S
C1515 C1514 1.363 . S
C1515 C1518 1.363 . S
N1516 C1518 1.356 . S
N1516 H1528 0.984 . S
N1516 H1529 0.985 . S
N1517 C1519 1.356 . S
N1517 H1522 0.984 . S
N1517 H1523 0.985 . S
C1518 C1512 1.379 . S
C1518 C1515 1.363 . S
C1518 N1516 1.356 . S
C1519 C1513 1.363 . S
C1519 C1514 1.379 . S
C1519 N1517 1.356 . S
N1520 C1512 1.356 . S
N1520 H1526 0.984 . S
N1520 H1527 0.984 . S
N1521 C1514 1.356 . S
N1521 H1524 0.984 . S
N1521 H1525 0.985 . S
H1522 N1517 0.984 . S
H1523 N1517 0.985 . S
H1524 N1521 0.984 . S
H1525 N1521 0.985 . S
H1526 N1520 0.984 . S
H1527 N1520 0.984 . S
H1528 N1516 0.984 . S
H1529 N1516 0.985 . S
C1530 C1531 1.363 . S
C1530 C1536 1.379 . S
C1530 N1538 1.356 . S
C1531 C1530 1.363 . S
C1531 C1537 1.363 . S
C1532 C1533 1.363 . S
C1532 C1537 1.379 . S
C1532 N1539 1.356 . S
C1533 C1532 1.363 . S
C1533 C1536 1.363 . S
N1534 C1536 1.356 . S
N1534 H1546 0.984 . S
N1534 H1547 0.985 . S
N1535 C1537 1.356 . S
N1535 H1540 0.984 . S
N1535 H1541 0.985 . S
C1536 C1530 1.379 . S
C1536 C1533 1.363 . S
C1536 N1534 1.356 . S
C1537 C1531 1.363 . S
C1537 C1532 1.379 . S
C1537 N1535 1.356 . S
N1538 C1530 1.356 . S
N1538 H1544 0.984 . S
N1538 H1545 0.984 . S
N1539 C1532 1.356 . S
N1539 H1542 0.984 . S
N1539 H1543 0.985 . S
H1540 N1535 0.984 . S
H1541 N1535 0.985 . S
H1542 N1539 0.984 . S
H1543 N1539 0.985 . S
H1544 N1538 0.984 . S
H1545 N1538 0.984 . S
H1546 N1534 0.984 . S
H1547 N1534 0.985 . S
C1548 C1549 1.363 . S
C1548 C1554 1.379 . S
C1548 N1556 1.356 . S
C1549 C1548 1.363 . S
C1549 C1555 1.363 . S
C1550 C1551 1.363 . S
C1550 C1555 1.379 . S
C1550 N1557 1.356 . S
C1551 C1550 1.363 . S
C1551 C1554 1.363 . S
N1552 C1554 1.356 . S
N1552 H1564 0.984 . S
N1552 H1565 0.985 . S
N1553 C1555 1.356 . S
N1553 H1558 0.984 . S
N1553 H1559 0.985 . S
C1554 C1548 1.379 . S
C1554 C1551 1.363 . S
C1554 N1552 1.356 . S
C1555 C1549 1.363 . S
C1555 C1550 1.379 . S
C1555 N1553 1.356 . S
N1556 C1548 1.356 . S
N1556 H1562 0.984 . S
N1556 H1563 0.984 . S
N1557 C1550 1.356 . S
N1557 H1560 0.984 . S
N1557 H1561 0.985 . S
H1558 N1553 0.984 . S
H1559 N1553 0.985 . S
H1560 N1557 0.984 . S
H1561 N1557 0.985 . S
H1562 N1556 0.984 . S
H1563 N1556 0.984 . S
H1564 N1552 0.984 . S
H1565 N1552 0.985 . S
C1566 C1567 1.363 . S
C1566 C1572 1.379 . S
C1566 N1574 1.356 . S
C1567 C1566 1.363 . S
C1567 C1573 1.363 . S
C1568 C1569 1.363 . S
C1568 C1573 1.379 . S
C1568 N1575 1.356 . S
C1569 C1568 1.363 . S
C1569 C1572 1.363 . S
N1570 C1572 1.356 . S
N1570 H1582 0.984 . S
N1570 H1583 0.985 . S
N1571 C1573 1.356 . S
N1571 H1576 0.984 . S
N1571 H1577 0.985 . S
C1572 C1566 1.379 . S
C1572 C1569 1.363 . S
C1572 N1570 1.356 . S
C1573 C1567 1.363 . S
C1573 C1568 1.379 . S
C1573 N1571 1.356 . S
N1574 C1566 1.356 . S
N1574 H1580 0.984 . S
N1574 H1581 0.984 . S
N1575 C1568 1.356 . S
N1575 H1578 0.984 . S
N1575 H1579 0.985 . S
H1576 N1571 0.984 . S
H1577 N1571 0.985 . S
H1578 N1575 0.984 . S
H1579 N1575 0.985 . S
H1580 N1574 0.984 . S
H1581 N1574 0.984 . S
H1582 N1570 0.984 . S
H1583 N1570 0.985 . S
C1584 C1585 1.363 . S
C1584 C1590 1.379 . S
C1584 N1592 1.356 . S
C1585 C1584 1.363 . S
C1585 C1591 1.363 . S
C1586 C1587 1.363 . S
C1586 C1591 1.379 . S
C1586 N1593 1.356 . S
C1587 C1586 1.363 . S
C1587 C1590 1.363 . S
N1588 C1590 1.356 . S
N1588 H1600 0.984 . S
N1588 H1601 0.985 . S
N1589 C1591 1.356 . S
N1589 H1594 0.984 . S
N1589 H1595 0.985 . S
C1590 C1584 1.379 . S
C1590 C1587 1.363 . S
C1590 N1588 1.356 . S
C1591 C1585 1.363 . S
C1591 C1586 1.379 . S
C1591 N1589 1.356 . S
N1592 C1584 1.356 . S
N1592 H1598 0.984 . S
N1592 H1599 0.984 . S
N1593 C1586 1.356 . S
N1593 H1596 0.984 . S
N1593 H1597 0.985 . S
H1594 N1589 0.984 . S
H1595 N1589 0.985 . S
H1596 N1593 0.984 . S
H1597 N1593 0.985 . S
H1598 N1592 0.984 . S
H1599 N1592 0.984 . S
H1600 N1588 0.984 . S
H1601 N1588 0.985 . S
C1602 C1603 1.363 . S
C1602 C1608 1.379 . S
C1602 N1610 1.356 . S
C1603 C1602 1.363 . S
C1603 C1609 1.363 . S
C1604 C1605 1.363 . S
C1604 C1609 1.379 . S
C1604 N1611 1.356 . S
C1605 C1604 1.363 . S
C1605 C1608 1.363 . S
N1606 C1608 1.356 . S
N1606 H1618 0.984 . S
N1606 H1619 0.985 . S
N1607 C1609 1.356 . S
N1607 H1612 0.984 . S
N1607 H1613 0.985 . S
C1608 C1602 1.379 . S
C1608 C1605 1.363 . S
C1608 N1606 1.356 . S
C1609 C1603 1.363 . S
C1609 C1604 1.379 . S
C1609 N1607 1.356 . S
N1610 C1602 1.356 . S
N1610 H1616 0.984 . S
N1610 H1617 0.984 . S
N1611 C1604 1.356 . S
N1611 H1614 0.984 . S
N1611 H1615 0.985 . S
H1612 N1607 0.984 . S
H1613 N1607 0.985 . S
H1614 N1611 0.984 . S
H1615 N1611 0.985 . S
H1616 N1610 0.984 . S
H1617 N1610 0.984 . S
H1618 N1606 0.984 . S
H1619 N1606 0.985 . S
C1620 C1621 1.363 . S
C1620 C1626 1.379 . S
C1620 N1628 1.356 . S
C1621 C1620 1.363 . S
C1621 C1627 1.363 . S
C1622 C1623 1.363 . S
C1622 C1627 1.379 . S
C1622 N1629 1.356 . S
C1623 C1622 1.363 . S
C1623 C1626 1.363 . S
N1624 C1626 1.356 . S
N1624 H1636 0.984 . S
N1624 H1637 0.985 . S
N1625 C1627 1.356 . S
N1625 H1630 0.984 . S
N1625 H1631 0.985 . S
C1626 C1620 1.379 . S
C1626 C1623 1.363 . S
C1626 N1624 1.356 . S
C1627 C1621 1.363 . S
C1627 C1622 1.379 . S
C1627 N1625 1.356 . S
N1628 C1620 1.356 . S
N1628 H1634 0.984 . S
N1628 H1635 0.984 . S
N1629 C1622 1.356 . S
N1629 H1632 0.984 . S
N1629 H1633 0.985 . S
H1630 N1625 0.984 . S
H1631 N1625 0.985 . S
H1632 N1629 0.984 . S
H1633 N1629 0.985 . S
H1634 N1628 0.984 . S
H1635 N1628 0.984 . S
H1636 N1624 0.984 . S
H1637 N1624 0.985 . S
C1638 C1639 1.363 . S
C1638 C1644 1.379 . S
C1638 N1646 1.356 . S
C1639 C1638 1.363 . S
C1639 C1645 1.363 . S
C1640 C1641 1.363 . S
C1640 C1645 1.379 . S
C1640 N1647 1.356 . S
C1641 C1640 1.363 . S
C1641 C1644 1.363 . S
N1642 C1644 1.356 . S
N1642 H1654 0.984 . S
N1642 H1655 0.985 . S
N1643 C1645 1.356 . S
N1643 H1648 0.984 . S
N1643 H1649 0.985 . S
C1644 C1638 1.379 . S
C1644 C1641 1.363 . S
C1644 N1642 1.356 . S
C1645 C1639 1.363 . S
C1645 C1640 1.379 . S
C1645 N1643 1.356 . S
N1646 C1638 1.356 . S
N1646 H1652 0.984 . S
N1646 H1653 0.984 . S
N1647 C1640 1.356 . S
N1647 H1650 0.984 . S
N1647 H1651 0.985 . S
H1648 N1643 0.984 . S
H1649 N1643 0.985 . S
H1650 N1647 0.984 . S
H1651 N1647 0.985 . S
H1652 N1646 0.984 . S
H1653 N1646 0.984 . S
H1654 N1642 0.984 . S
H1655 N1642 0.985 . S
C1656 C1657 1.363 . S
C1656 C1662 1.379 . S
C1656 N1664 1.356 . S
C1657 C1656 1.363 . S
C1657 C1663 1.363 . S
C1658 C1659 1.363 . S
C1658 C1663 1.379 . S
C1658 N1665 1.356 . S
C1659 C1658 1.363 . S
C1659 C1662 1.363 . S
N1660 C1662 1.356 . S
N1660 H1672 0.984 . S
N1660 H1673 0.985 . S
N1661 C1663 1.356 . S
N1661 H1666 0.984 . S
N1661 H1667 0.985 . S
C1662 C1656 1.379 . S
C1662 C1659 1.363 . S
C1662 N1660 1.356 . S
C1663 C1657 1.363 . S
C1663 C1658 1.379 . S
C1663 N1661 1.356 . S
N1664 C1656 1.356 . S
N1664 H1670 0.984 . S
N1664 H1671 0.984 . S
N1665 C1658 1.356 . S
N1665 H1668 0.984 . S
N1665 H1669 0.985 . S
H1666 N1661 0.984 . S
H1667 N1661 0.985 . S
H1668 N1665 0.984 . S
H1669 N1665 0.985 . S
H1670 N1664 0.984 . S
H1671 N1664 0.984 . S
H1672 N1660 0.984 . S
H1673 N1660 0.985 . S
C1674 C1675 1.363 . S
C1674 C1680 1.379 . S
C1674 N1682 1.356 . S
C1675 C1674 1.363 . S
C1675 C1681 1.363 . S
C1676 C1677 1.363 . S
C1676 C1681 1.379 . S
C1676 N1683 1.356 . S
C1677 C1676 1.363 . S
C1677 C1680 1.363 . S
N1678 C1680 1.356 . S
N1678 H1690 0.984 . S
N1678 H1691 0.985 . S
N1679 C1681 1.356 . S
N1679 H1684 0.984 . S
N1679 H1685 0.985 . S
C1680 C1674 1.379 . S
C1680 C1677 1.363 . S
C1680 N1678 1.356 . S
C1681 C1675 1.363 . S
C1681 C1676 1.379 . S
C1681 N1679 1.356 . S
N1682 C1674 1.356 . S
N1682 H1688 0.984 . S
N1682 H1689 0.984 . S
N1683 C1676 1.356 . S
N1683 H1686 0.984 . S
N1683 H1687 0.985 . S
H1684 N1679 0.984 . S
H1685 N1679 0.985 . S
H1686 N1683 0.984 . S
H1687 N1683 0.985 . S
H1688 N1682 0.984 . S
H1689 N1682 0.984 . S
H1690 N1678 0.984 . S
H1691 N1678 0.985 . S
C1692 C1693 1.363 . S
C1692 C1698 1.379 . S
C1692 N1700 1.356 . S
C1693 C1692 1.363 . S
C1693 C1699 1.363 . S
C1694 C1695 1.363 . S
C1694 C1699 1.379 . S
C1694 N1701 1.356 . S
C1695 C1694 1.363 . S
C1695 C1698 1.363 . S
N1696 C1698 1.356 . S
N1696 H1708 0.984 . S
N1696 H1709 0.985 . S
N1697 C1699 1.356 . S
N1697 H1702 0.984 . S
N1697 H1703 0.985 . S
C1698 C1692 1.379 . S
C1698 C1695 1.363 . S
C1698 N1696 1.356 . S
C1699 C1693 1.363 . S
C1699 C1694 1.379 . S
C1699 N1697 1.356 . S
N1700 C1692 1.356 . S
N1700 H1706 0.984 . S
N1700 H1707 0.984 . S
N1701 C1694 1.356 . S
N1701 H1704 0.984 . S
N1701 H1705 0.985 . S
H1702 N1697 0.984 . S
H1703 N1697 0.985 . S
H1704 N1701 0.984 . S
H1705 N1701 0.985 . S
H1706 N1700 0.984 . S
H1707 N1700 0.984 . S
H1708 N1696 0.984 . S
H1709 N1696 0.985 . S
C1710 C1711 1.363 . S
C1710 C1716 1.379 . S
C1710 N1718 1.356 . S
C1711 C1710 1.363 . S
C1711 C1717 1.363 . S
C1712 C1713 1.363 . S
C1712 C1717 1.379 . S
C1712 N1719 1.356 . S
C1713 C1712 1.363 . S
C1713 C1716 1.363 . S
N1714 C1716 1.356 . S
N1714 H1726 0.984 . S
N1714 H1727 0.985 . S
N1715 C1717 1.356 . S
N1715 H1720 0.984 . S
N1715 H1721 0.985 . S
C1716 C1710 1.379 . S
C1716 C1713 1.363 . S
C1716 N1714 1.356 . S
C1717 C1711 1.363 . S
C1717 C1712 1.379 . S
C1717 N1715 1.356 . S
N1718 C1710 1.356 . S
N1718 H1724 0.984 . S
N1718 H1725 0.984 . S
N1719 C1712 1.356 . S
N1719 H1722 0.984 . S
N1719 H1723 0.985 . S
H1720 N1715 0.984 . S
H1721 N1715 0.985 . S
H1722 N1719 0.984 . S
H1723 N1719 0.985 . S
H1724 N1718 0.984 . S
H1725 N1718 0.984 . S
H1726 N1714 0.984 . S
H1727 N1714 0.985 . S
C1728 C1729 1.363 . S
C1728 C1734 1.379 . S
C1728 N1736 1.356 . S
C1729 C1728 1.363 . S
C1729 C1735 1.363 . S
C1730 C1731 1.363 . S
C1730 C1735 1.379 . S
C1730 N1737 1.356 . S
C1731 C1730 1.363 . S
C1731 C1734 1.363 . S
N1732 C1734 1.356 . S
N1732 H1744 0.984 . S
N1732 H1745 0.985 . S
N1733 C1735 1.356 . S
N1733 H1738 0.984 . S
N1733 H1739 0.985 . S
C1734 C1728 1.379 . S
C1734 C1731 1.363 . S
C1734 N1732 1.356 . S
C1735 C1729 1.363 . S
C1735 C1730 1.379 . S
C1735 N1733 1.356 . S
N1736 C1728 1.356 . S
N1736 H1742 0.984 . S
N1736 H1743 0.984 . S
N1737 C1730 1.356 . S
N1737 H1740 0.984 . S
N1737 H1741 0.985 . S
H1738 N1733 0.984 . S
H1739 N1733 0.985 . S
H1740 N1737 0.984 . S
H1741 N1737 0.985 . S
H1742 N1736 0.984 . S
H1743 N1736 0.984 . S
H1744 N1732 0.984 . S
H1745 N1732 0.985 . S
C1746 C1747 1.363 . S
C1746 C1752 1.379 . S
C1746 N1754 1.356 . S
C1747 C1746 1.363 . S
C1747 C1753 1.363 . S
C1748 C1749 1.363 . S
C1748 C1753 1.379 . S
C1748 N1755 1.356 . S
C1749 C1748 1.363 . S
C1749 C1752 1.363 . S
N1750 C1752 1.356 . S
N1750 H1762 0.984 . S
N1750 H1763 0.985 . S
N1751 C1753 1.356 . S
N1751 H1756 0.984 . S
N1751 H1757 0.985 . S
C1752 C1746 1.379 . S
C1752 C1749 1.363 . S
C1752 N1750 1.356 . S
C1753 C1747 1.363 . S
C1753 C1748 1.379 . S
C1753 N1751 1.356 . S
N1754 C1746 1.356 . S
N1754 H1760 0.984 . S
N1754 H1761 0.984 . S
N1755 C1748 1.356 . S
N1755 H1758 0.984 . S
N1755 H1759 0.985 . S
H1756 N1751 0.984 . S
H1757 N1751 0.985 . S
H1758 N1755 0.984 . S
H1759 N1755 0.985 . S
H1760 N1754 0.984 . S
H1761 N1754 0.984 . S
H1762 N1750 0.984 . S
H1763 N1750 0.985 . S
C1764 C1765 1.363 . S
C1764 C1770 1.379 . S
C1764 N1772 1.356 . S
C1765 C1764 1.363 . S
C1765 C1771 1.363 . S
C1766 C1767 1.363 . S
C1766 C1771 1.379 . S
C1766 N1773 1.356 . S
C1767 C1766 1.363 . S
C1767 C1770 1.363 . S
N1768 C1770 1.356 . S
N1768 H1780 0.984 . S
N1768 H1781 0.985 . S
N1769 C1771 1.356 . S
N1769 H1774 0.984 . S
N1769 H1775 0.985 . S
C1770 C1764 1.379 . S
C1770 C1767 1.363 . S
C1770 N1768 1.356 . S
C1771 C1765 1.363 . S
C1771 C1766 1.379 . S
C1771 N1769 1.356 . S
N1772 C1764 1.356 . S
N1772 H1778 0.984 . S
N1772 H1779 0.984 . S
N1773 C1766 1.356 . S
N1773 H1776 0.984 . S
N1773 H1777 0.985 . S
H1774 N1769 0.984 . S
H1775 N1769 0.985 . S
H1776 N1773 0.984 . S
H1777 N1773 0.985 . S
H1778 N1772 0.984 . S
H1779 N1772 0.984 . S
H1780 N1768 0.984 . S
H1781 N1768 0.985 . S
C1782 C1783 1.363 . S
C1782 C1788 1.379 . S
C1782 N1790 1.356 . S
C1783 C1782 1.363 . S
C1783 C1789 1.363 . S
C1784 C1785 1.363 . S
C1784 C1789 1.379 . S
C1784 N1791 1.356 . S
C1785 C1784 1.363 . S
C1785 C1788 1.363 . S
N1786 C1788 1.356 . S
N1786 H1798 0.984 . S
N1786 H1799 0.985 . S
N1787 C1789 1.356 . S
N1787 H1792 0.984 . S
N1787 H1793 0.985 . S
C1788 C1782 1.379 . S
C1788 C1785 1.363 . S
C1788 N1786 1.356 . S
C1789 C1783 1.363 . S
C1789 C1784 1.379 . S
C1789 N1787 1.356 . S
N1790 C1782 1.356 . S
N1790 H1796 0.984 1_554 S
N1790 H1797 0.984 . S
N1791 C1784 1.356 . S
N1791 H1794 0.984 . S
N1791 H1795 0.985 . S
H1792 N1787 0.984 . S
H1793 N1787 0.985 . S
H1794 N1791 0.984 . S
H1795 N1791 0.985 . S
H1796 N1790 0.984 1_556 S
H1797 N1790 0.984 . S
H1798 N1786 0.984 . S
H1799 N1786 0.985 . S
C1800 C1801 1.363 . S
C1800 C1806 1.379 . S
C1800 N1808 1.356 . S
C1801 C1800 1.363 . S
C1801 C1807 1.363 . S
C1802 C1803 1.363 . S
C1802 C1807 1.379 . S
C1802 N1809 1.356 . S
C1803 C1802 1.363 . S
C1803 C1806 1.363 . S
N1804 C1806 1.356 . S
N1804 H1816 0.984 . S
N1804 H1817 0.985 . S
N1805 C1807 1.356 . S
N1805 H1810 0.984 . S
N1805 H1811 0.993 . S
C1806 C1800 1.379 . S
C1806 C1803 1.363 . S
C1806 N1804 1.356 . S
C1807 C1801 1.363 . S
C1807 C1802 1.379 . S
C1807 N1805 1.356 . S
N1808 C1800 1.356 . S
N1808 H1814 0.984 . S
N1808 H1815 0.984 . S
N1809 C1802 1.356 . S
N1809 H1812 0.984 . S
N1809 H1813 0.985 . S
H1810 N1805 0.984 . S
H1811 N1805 0.993 . S
H1812 N1809 0.984 . S
H1813 N1809 0.985 . S
H1814 N1808 0.984 . S
H1815 N1808 0.984 . S
H1816 N1804 0.984 . S
H1817 N1804 0.985 . S
C1818 C1819 1.363 . S
C1818 C1824 1.379 . S
C1818 N1826 1.356 . S
C1819 C1818 1.363 . S
C1819 C1825 1.363 . S
C1820 C1821 1.363 . S
C1820 C1825 1.379 . S
C1820 N1827 1.356 . S
C1821 C1820 1.363 . S
C1821 C1824 1.363 . S
N1822 C1824 1.356 . S
N1822 H1834 0.984 . S
N1822 H1835 0.985 . S
N1823 C1825 1.356 1_554 S
N1823 H1828 0.984 . S
N1823 H1829 0.985 . S
C1824 C1818 1.379 . S
C1824 C1821 1.363 . S
C1824 N1822 1.356 . S
C1825 C1819 1.363 . S
C1825 C1820 1.379 . S
C1825 N1823 1.356 1_556 S
N1826 C1818 1.356 . S
N1826 H1832 0.984 . S
N1826 H1833 0.984 . S
N1827 C1820 1.356 . S
N1827 H1830 0.984 . S
N1827 H1831 0.985 1_556 S
H1828 N1823 0.984 . S
H1829 N1823 0.985 . S
H1830 N1827 0.984 . S
H1831 N1827 0.985 1_554 S
H1832 N1826 0.984 . S
H1833 N1826 0.984 . S
H1834 N1822 0.984 . S
H1835 N1822 0.985 . S
C1836 C1837 1.363 . S
C1836 C1842 1.379 . S
C1836 N1844 1.356 . S
C1837 C1836 1.363 . S
C1837 C1843 1.363 . S
C1838 C1839 1.363 . S
C1838 C1843 1.379 . S
C1838 N1845 1.356 . S
C1839 C1838 1.363 . S
C1839 C1842 1.363 . S
N1840 C1842 1.356 . S
N1840 H1852 0.984 . S
N1840 H1853 0.985 . S
N1841 C1843 1.356 . S
N1841 H1846 0.984 . S
N1841 H1847 0.985 . S
C1842 C1836 1.379 . S
C1842 C1839 1.363 . S
C1842 N1840 1.356 . S
C1843 C1837 1.363 . S
C1843 C1838 1.379 . S
C1843 N1841 1.356 . S
N1844 C1836 1.356 . S
N1844 H1850 0.984 1_556 S
N1844 H1851 0.984 1_556 S
N1845 C1838 1.356 . S
N1845 H1848 0.984 . S
N1845 H1849 0.985 . S
H1846 N1841 0.984 . S
H1847 N1841 0.985 . S
H1848 N1845 0.984 . S
H1849 N1845 0.985 . S
H1850 N1844 0.984 1_554 S
H1851 N1844 0.984 1_554 S
H1852 N1840 0.984 . S
H1853 N1840 0.985 . S
C1854 C1855 1.363 . S
C1854 C1860 1.379 . S
C1854 N1862 1.356 . S
C1855 C1854 1.363 . S
C1855 C1861 1.363 . S
C1856 C1857 1.363 . S
C1856 C1861 1.379 . S
C1856 N1863 1.356 . S
C1857 C1856 1.363 . S
C1857 C1860 1.363 . S
N1858 C1860 1.356 . S
N1858 H1870 0.984 . S
N1858 H1871 0.985 . S
N1859 C1861 1.356 . S
N1859 H1864 0.984 . S
N1859 H1865 0.985 . S
C1860 C1854 1.379 . S
C1860 C1857 1.363 . S
C1860 N1858 1.356 . S
C1861 C1855 1.363 . S
C1861 C1856 1.379 . S
C1861 N1859 1.356 . S
N1862 C1854 1.356 . S
N1862 H1868 0.984 . S
N1862 H1869 0.984 . S
N1863 C1856 1.356 . S
N1863 H1866 0.984 . S
N1863 H1867 0.985 . S
H1864 N1859 0.984 . S
H1865 N1859 0.985 . S
H1866 N1863 0.984 . S
H1867 N1863 0.985 . S
H1868 N1862 0.984 . S
H1869 N1862 0.984 . S
H1870 N1858 0.984 . S
H1871 N1858 0.985 . S
C1872 C1873 1.363 . S
C1872 C1878 1.379 . S
C1872 N1880 1.356 . S
C1873 C1872 1.363 . S
C1873 C1879 1.363 . S
C1874 C1875 1.363 . S
C1874 C1879 1.379 . S
C1874 N1881 1.356 . S
C1875 C1874 1.363 . S
C1875 C1878 1.363 . S
N1876 C1878 1.356 . S
N1876 H1888 0.984 . S
N1876 H1889 0.985 . S
N1877 C1879 1.356 1_554 S
N1877 H1882 0.984 . S
N1877 H1883 0.985 . S
C1878 C1872 1.379 . S
C1878 C1875 1.363 . S
C1878 N1876 1.356 . S
C1879 C1873 1.363 . S
C1879 C1874 1.379 . S
C1879 N1877 1.356 1_556 S
N1880 C1872 1.356 . S
N1880 H1886 0.984 . S
N1880 H1887 0.984 . S
N1881 C1874 1.356 . S
N1881 H1884 0.984 . S
N1881 H1885 0.985 1_556 S
H1882 N1877 0.984 . S
H1883 N1877 0.985 . S
H1884 N1881 0.984 . S
H1885 N1881 0.985 1_554 S
H1886 N1880 0.984 . S
H1887 N1880 0.984 . S
H1888 N1876 0.984 . S
H1889 N1876 0.985 . S
C1890 C1891 1.363 . S
C1890 C1896 1.379 . S
C1890 N1898 1.356 1_556 S
C1891 C1890 1.363 . S
C1891 C1897 1.363 . S
C1892 C1893 1.363 . S
C1892 C1897 1.379 . S
C1892 N1899 1.356 . S
C1893 C1892 1.363 . S
C1893 C1896 1.363 . S
N1894 C1896 1.356 . S
N1894 H1906 0.984 1_556 S
N1894 H1907 0.985 . S
N1895 C1897 1.356 . S
N1895 H1900 0.984 . S
N1895 H1901 0.985 . S
C1896 C1890 1.379 . S
C1896 C1893 1.363 . S
C1896 N1894 1.356 . S
C1897 C1891 1.363 . S
C1897 C1892 1.379 . S
C1897 N1895 1.356 . S
N1898 C1890 1.356 1_554 S
N1898 H1904 0.984 . S
N1898 H1905 0.984 . S
N1899 C1892 1.356 . S
N1899 H1902 0.984 . S
N1899 H1903 0.985 . S
H1900 N1895 0.984 . S
H1901 N1895 0.985 . S
H1902 N1899 0.984 . S
H1903 N1899 0.985 . S
H1904 N1898 0.984 . S
H1905 N1898 0.984 . S
H1906 N1894 0.984 1_554 S
H1907 N1894 0.985 . S
C1908 C1909 1.363 . S
C1908 C1914 1.379 . S
C1908 N1916 1.356 . S
C1909 C1908 1.363 . S
C1909 C1915 1.363 . S
C1910 C1911 1.363 . S
C1910 C1915 1.379 . S
C1910 N1917 1.356 . S
C1911 C1910 1.363 . S
C1911 C1914 1.363 . S
N1912 C1914 1.356 . S
N1912 H1924 0.984 . S
N1912 H1925 0.985 . S
N1913 C1915 1.356 1_554 S
N1913 H1918 0.984 . S
N1913 H1919 0.985 . S
C1914 C1908 1.379 . S
C1914 C1911 1.363 . S
C1914 N1912 1.356 . S
C1915 C1909 1.363 . S
C1915 C1910 1.379 . S
C1915 N1913 1.356 1_556 S
N1916 C1908 1.356 . S
N1916 H1922 0.984 . S
N1916 H1923 0.984 . S
N1917 C1910 1.356 . S
N1917 H1920 0.984 . S
N1917 H1921 0.985 . S
H1918 N1913 0.984 . S
H1919 N1913 0.985 . S
H1920 N1917 0.984 . S
H1921 N1917 0.985 . S
H1922 N1916 0.984 . S
H1923 N1916 0.984 . S
H1924 N1912 0.984 . S
H1925 N1912 0.985 . S
C1926 C1927 1.363 . S
C1926 C1932 1.379 . S
C1926 N1934 1.356 . S
C1927 C1926 1.363 . S
C1927 C1933 1.363 . S
C1928 C1929 1.363 . S
C1928 C1933 1.379 . S
C1928 N1935 1.356 . S
C1929 C1928 1.363 . S
C1929 C1932 1.363 . S
N1930 C1932 1.356 . S
N1930 H1942 0.984 . S
N1930 H1943 0.985 . S
N1931 C1933 1.356 . S
N1931 H1936 0.984 . S
N1931 H1937 0.985 . S
C1932 C1926 1.379 . S
C1932 C1929 1.363 . S
C1932 N1930 1.356 . S
C1933 C1927 1.363 . S
C1933 C1928 1.379 . S
C1933 N1931 1.356 . S
N1934 C1926 1.356 . S
N1934 H1940 0.984 . S
N1934 H1941 0.984 . S
N1935 C1928 1.356 . S
N1935 H1938 0.984 . S
N1935 H1939 0.985 . S
H1936 N1931 0.984 . S
H1937 N1931 0.985 . S
H1938 N1935 0.984 . S
H1939 N1935 0.985 . S
H1940 N1934 0.984 . S
H1941 N1934 0.984 . S
H1942 N1930 0.984 . S
H1943 N1930 0.985 . S
C1944 C1945 1.363 . S
C1944 C1950 1.379 . S
C1944 N1952 1.356 . S
C1945 C1944 1.363 . S
C1945 C1951 1.363 . S
C1946 C1947 1.363 . S
C1946 C1951 1.379 . S
C1946 N1953 1.356 . S
C1947 C1946 1.363 . S
C1947 C1950 1.363 . S
N1948 C1950 1.356 . S
N1948 H1960 0.984 . S
N1948 H1961 0.985 . S
N1949 C1951 1.356 . S
N1949 H1954 0.984 . S
N1949 H1955 0.985 1_554 S
C1950 C1944 1.379 . S
C1950 C1947 1.363 . S
C1950 N1948 1.356 . S
C1951 C1945 1.363 . S
C1951 C1946 1.379 . S
C1951 N1949 1.356 . S
N1952 C1944 1.356 . S
N1952 H1958 0.984 . S
N1952 H1959 0.984 . S
N1953 C1946 1.356 . S
N1953 H1956 0.984 . S
N1953 H1957 0.985 . S
H1954 N1949 0.984 . S
H1955 N1949 0.985 1_556 S
H1956 N1953 0.984 . S
H1957 N1953 0.985 . S
H1958 N1952 0.984 . S
H1959 N1952 0.984 . S
H1960 N1948 0.984 . S
H1961 N1948 0.985 . S
C1962 C1963 1.363 . S
C1962 C1968 1.379 . S
C1962 N1970 1.356 . S
C1963 C1962 1.363 . S
C1963 C1969 1.363 . S
C1964 C1965 1.363 . S
C1964 C1969 1.379 . S
C1964 N1971 1.356 . S
C1965 C1964 1.363 . S
C1965 C1968 1.363 . S
N1966 C1968 1.356 . S
N1966 H1978 0.984 . S
N1966 H1979 0.985 . S
N1967 C1969 1.356 . S
N1967 H1972 0.984 . S
N1967 H1973 0.985 1_554 S
C1968 C1962 1.379 . S
C1968 C1965 1.363 . S
C1968 N1966 1.356 . S
C1969 C1963 1.363 . S
C1969 C1964 1.379 . S
C1969 N1967 1.356 . S
N1970 C1962 1.356 . S
N1970 H1976 0.984 . S
N1970 H1977 0.984 . S
N1971 C1964 1.356 . S
N1971 H1974 0.984 . S
N1971 H1975 0.985 . S
H1972 N1967 0.984 . S
H1973 N1967 0.985 1_556 S
H1974 N1971 0.984 . S
H1975 N1971 0.985 . S
H1976 N1970 0.984 . S
H1977 N1970 0.984 . S
H1978 N1966 0.984 . S
H1979 N1966 0.985 . S
C1980 C1981 1.363 . S
C1980 C1986 1.379 . S
C1980 N1988 1.356 . S
C1981 C1980 1.363 . S
C1981 C1987 1.363 . S
C1982 C1983 1.363 . S
C1982 C1987 1.379 . S
C1982 N1989 1.356 . S
C1983 C1982 1.363 . S
C1983 C1986 1.363 . S
N1984 C1986 1.356 . S
N1984 H1996 0.984 . S
N1984 H1997 0.985 . S
N1985 C1987 1.356 . S
N1985 H1990 0.984 . S
N1985 H1991 0.985 . S
C1986 C1980 1.379 . S
C1986 C1983 1.363 . S
C1986 N1984 1.356 . S
C1987 C1981 1.363 . S
C1987 C1982 1.379 . S
C1987 N1985 1.356 . S
N1988 C1980 1.356 . S
N1988 H1994 0.984 . S
N1988 H1995 0.984 . S
N1989 C1982 1.356 . S
N1989 H1992 0.984 . S
N1989 H1993 0.985 . S
H1990 N1985 0.984 . S
H1991 N1985 0.985 . S
H1992 N1989 0.984 . S
H1993 N1989 0.985 . S
H1994 N1988 0.984 . S
H1995 N1988 0.984 . S
H1996 N1984 0.984 . S
H1997 N1984 0.985 . S
C1998 C1999 1.363 . S
C1998 C2004 1.379 . S
C1998 N2006 1.356 . S
C1999 C1998 1.363 . S
C1999 C2005 1.363 . S
C2000 C2001 1.363 . S
C2000 C2005 1.379 . S
C2000 N2007 1.356 . S
C2001 C2000 1.363 . S
C2001 C2004 1.363 . S
N2002 C2004 1.356 . S
N2002 H2014 0.984 . S
N2002 H2015 0.985 . S
N2003 C2005 1.356 . S
N2003 H2008 0.984 . S
N2003 H2009 0.985 . S
C2004 C1998 1.379 . S
C2004 C2001 1.363 . S
C2004 N2002 1.356 . S
C2005 C1999 1.363 . S
C2005 C2000 1.379 . S
C2005 N2003 1.356 . S
N2006 C1998 1.356 . S
N2006 H2012 0.984 . S
N2006 H2013 0.984 . S
N2007 C2000 1.356 . S
N2007 H2010 0.984 . S
N2007 H2011 0.985 . S
H2008 N2003 0.984 . S
H2009 N2003 0.985 . S
H2010 N2007 0.984 . S
H2011 N2007 0.985 . S
H2012 N2006 0.984 . S
H2013 N2006 0.984 . S
H2014 N2002 0.984 . S
H2015 N2002 0.985 . S
C2016 C2017 1.363 . S
C2016 C2022 1.379 . S
C2016 N2024 1.356 . S
C2017 C2016 1.363 . S
C2017 C2023 1.363 . S
C2018 C2019 1.363 . S
C2018 C2023 1.379 . S
C2018 N2025 1.356 . S
C2019 C2018 1.363 . S
C2019 C2022 1.363 . S
N2020 C2022 1.356 . S
N2020 H2032 0.984 . S
N2020 H2033 0.985 . S
N2021 C2023 1.356 . S
N2021 H2026 0.984 . S
N2021 H2027 0.985 . S
C2022 C2016 1.379 . S
C2022 C2019 1.363 . S
C2022 N2020 1.356 . S
C2023 C2017 1.363 . S
C2023 C2018 1.379 . S
C2023 N2021 1.356 . S
N2024 C2016 1.356 . S
N2024 H2030 0.984 . S
N2024 H2031 0.984 . S
N2025 C2018 1.356 . S
N2025 H2028 0.984 . S
N2025 H2029 0.985 . S
H2026 N2021 0.984 . S
H2027 N2021 0.985 . S
H2028 N2025 0.984 . S
H2029 N2025 0.985 . S
H2030 N2024 0.984 . S
H2031 N2024 0.984 . S
H2032 N2020 0.984 . S
H2033 N2020 0.985 . S
C2034 C2035 1.363 . S
C2034 C2040 1.379 . S
C2034 N2042 1.356 . S
C2035 C2034 1.363 . S
C2035 C2041 1.363 . S
C2036 C2037 1.363 . S
C2036 C2041 1.379 . S
C2036 N2043 1.356 1_455 S
C2037 C2036 1.363 . S
C2037 C2040 1.363 . S
N2038 C2040 1.356 . S
N2038 H2050 0.984 . S
N2038 H2051 0.985 . S
N2039 C2041 1.356 . S
N2039 H2044 0.984 . S
N2039 H2045 1.017 . S
C2040 C2034 1.379 . S
C2040 C2037 1.363 . S
C2040 N2038 1.356 . S
C2041 C2035 1.363 . S
C2041 C2036 1.379 . S
C2041 N2039 1.356 . S
N2042 C2034 1.356 . S
N2042 H2048 0.984 . S
N2042 H2049 0.984 . S
N2043 C2036 1.356 1_655 S
N2043 H2046 0.984 . S
N2043 H2047 0.985 . S
H2044 N2039 0.984 . S
H2045 N2039 1.017 . S
H2046 N2043 0.984 . S
H2047 N2043 0.985 . S
H2048 N2042 0.984 . S
H2049 N2042 0.984 . S
H2050 N2038 0.984 . S
H2051 N2038 0.985 . S
C2052 C2053 1.363 . S
C2052 C2058 1.379 . S
C2052 N2060 1.356 . S
C2053 C2052 1.363 . S
C2053 C2059 1.363 . S
C2054 C2055 1.363 . S
C2054 C2059 1.379 . S
C2054 N2061 1.356 . S
C2055 C2054 1.363 . S
C2055 C2058 1.363 . S
N2056 C2058 1.356 . S
N2056 H2068 0.984 . S
N2056 H2069 0.985 . S
N2057 C2059 1.356 . S
N2057 H2062 0.984 . S
N2057 H2063 0.985 . S
C2058 C2052 1.379 . S
C2058 C2055 1.363 . S
C2058 N2056 1.356 . S
C2059 C2053 1.363 . S
C2059 C2054 1.379 . S
C2059 N2057 1.356 . S
N2060 C2052 1.356 . S
N2060 H2066 0.984 . S
N2060 H2067 0.984 . S
N2061 C2054 1.356 . S
N2061 H2064 0.984 . S
N2061 H2065 0.985 . S
H2062 N2057 0.984 . S
H2063 N2057 0.985 . S
H2064 N2061 0.984 . S
H2065 N2061 0.985 . S
H2066 N2060 0.984 . S
H2067 N2060 0.984 . S
H2068 N2056 0.984 . S
H2069 N2056 0.985 . S
C2070 C2071 1.363 1_545 S
C2070 C2076 1.379 . S
C2070 N2078 1.356 . S
C2071 C2070 1.363 1_565 S
C2071 C2077 1.363 . S
C2072 C2073 1.363 . S
C2072 C2077 1.379 . S
C2072 N2079 1.356 . S
C2073 C2072 1.363 . S
C2073 C2076 1.363 1_565 S
N2074 C2076 1.356 . S
N2074 H2086 0.984 . S
N2074 H2087 0.985 . S
N2075 C2077 1.356 . S
N2075 H2080 0.984 . S
N2075 H2081 0.985 . S
C2076 C2070 1.379 . S
C2076 C2073 1.363 1_545 S
C2076 N2074 1.356 . S
C2077 C2071 1.363 . S
C2077 C2072 1.379 . S
C2077 N2075 1.356 . S
N2078 C2070 1.356 . S
N2078 H2084 0.984 . S
N2078 H2085 0.984 . S
N2079 C2072 1.356 . S
N2079 H2082 0.984 . S
N2079 H2083 0.985 . S
H2080 N2075 0.984 . S
H2081 N2075 0.985 . S
H2082 N2079 0.984 . S
H2083 N2079 0.985 . S
H2084 N2078 0.984 . S
H2085 N2078 0.984 . S
H2086 N2074 0.984 . S
H2087 N2074 0.985 . S
C2088 C2089 1.363 1_545 S
C2088 C2094 1.379 . S
C2088 N2096 1.356 . S
C2089 C2088 1.363 1_565 S
C2089 C2095 1.363 . S
C2090 C2091 1.363 . S
C2090 C2095 1.379 . S
C2090 N2097 1.356 . S
C2091 C2090 1.363 . S
C2091 C2094 1.363 1_565 S
N2092 C2094 1.356 . S
N2092 H2104 0.984 . S
N2092 H2105 0.985 . S
N2093 C2095 1.356 . S
N2093 H2098 0.984 . S
N2093 H2099 0.985 . S
C2094 C2088 1.379 . S
C2094 C2091 1.363 1_545 S
C2094 N2092 1.356 . S
C2095 C2089 1.363 . S
C2095 C2090 1.379 . S
C2095 N2093 1.356 . S
N2096 C2088 1.356 . S
N2096 H2102 0.984 . S
N2096 H2103 0.984 . S
N2097 C2090 1.356 . S
N2097 H2100 0.984 . S
N2097 H2101 0.985 . S
H2098 N2093 0.984 . S
H2099 N2093 0.985 . S
H2100 N2097 0.984 . S
H2101 N2097 0.985 . S
H2102 N2096 0.984 . S
H2103 N2096 0.984 . S
H2104 N2092 0.984 . S
H2105 N2092 0.985 . S
C2106 C2107 1.363 . S
C2106 C2112 1.379 . S
C2106 N2114 1.356 . S
C2107 C2106 1.363 . S
C2107 C2113 1.363 1_455 S
C2108 C2109 1.363 1_655 S
C2108 C2113 1.379 . S
C2108 N2115 1.356 . S
C2109 C2108 1.363 1_455 S
C2109 C2112 1.363 . S
N2110 C2112 1.356 . S
N2110 H2122 0.984 . S
N2110 H2123 0.985 . S
N2111 C2113 1.356 . S
N2111 H2116 0.984 . S
N2111 H2117 0.985 . S
C2112 C2106 1.379 . S
C2112 C2109 1.363 . S
C2112 N2110 1.356 . S
C2113 C2107 1.363 1_655 S
C2113 C2108 1.379 . S
C2113 N2111 1.356 . S
N2114 C2106 1.356 . S
N2114 H2120 0.984 . S
N2114 H2121 0.984 . S
N2115 C2108 1.356 . S
N2115 H2118 0.984 . S
N2115 H2119 0.985 . S
H2116 N2111 0.984 . S
H2117 N2111 0.985 . S
H2118 N2115 0.984 . S
H2119 N2115 0.985 . S
H2120 N2114 0.984 . S
H2121 N2114 0.984 . S
H2122 N2110 0.984 . S
H2123 N2110 0.985 . S
C2124 C2125 1.363 . S
C2124 C2130 1.379 . S
C2124 N2132 1.356 . S
C2125 C2124 1.363 . S
C2125 C2131 1.363 . S
C2126 C2127 1.363 . S
C2126 C2131 1.379 . S
C2126 N2133 1.356 . S
C2127 C2126 1.363 . S
C2127 C2130 1.363 . S
N2128 C2130 1.356 . S
N2128 H2140 0.984 . S
N2128 H2141 0.985 . S
N2129 C2131 1.356 . S
N2129 H2134 0.984 . S
N2129 H2135 0.985 . S
C2130 C2124 1.379 . S
C2130 C2127 1.363 . S
C2130 N2128 1.356 . S
C2131 C2125 1.363 . S
C2131 C2126 1.379 . S
C2131 N2129 1.356 . S
N2132 C2124 1.356 . S
N2132 H2138 0.984 . S
N2132 H2139 0.984 . S
N2133 C2126 1.356 . S
N2133 H2136 0.984 . S
N2133 H2137 0.985 . S
H2134 N2129 0.984 . S
H2135 N2129 0.985 . S
H2136 N2133 0.984 . S
H2137 N2133 0.985 . S
H2138 N2132 0.984 . S
H2139 N2132 0.984 . S
H2140 N2128 0.984 . S
H2141 N2128 0.985 . S
C2142 C2143 1.363 . S
C2142 C2148 1.379 . S
C2142 N2150 1.356 . S
C2143 C2142 1.363 . S
C2143 C2149 1.363 . S
C2144 C2145 1.363 . S
C2144 C2149 1.379 . S
C2144 N2151 1.356 . S
C2145 C2144 1.363 . S
C2145 C2148 1.363 . S
N2146 C2148 1.356 . S
N2146 H2158 0.984 . S
N2146 H2159 0.985 . S
N2147 C2149 1.356 . S
N2147 H2152 0.984 . S
N2147 H2153 0.985 . S
C2148 C2142 1.379 . S
C2148 C2145 1.363 . S
C2148 N2146 1.356 . S
C2149 C2143 1.363 . S
C2149 C2144 1.379 . S
C2149 N2147 1.356 . S
N2150 C2142 1.356 . S
N2150 H2156 0.984 . S
N2150 H2157 0.984 . S
N2151 C2144 1.356 . S
N2151 H2154 0.984 . S
N2151 H2155 0.985 . S
H2152 N2147 0.984 . S
H2153 N2147 0.985 . S
H2154 N2151 0.984 . S
H2155 N2151 0.985 . S
H2156 N2150 0.984 . S
H2157 N2150 0.984 . S
H2158 N2146 0.984 . S
H2159 N2146 0.985 . S
C2160 C2161 1.363 . S
C2160 C2166 1.379 . S
C2160 N2168 1.356 . S
C2161 C2160 1.363 . S
C2161 C2167 1.363 . S
C2162 C2163 1.363 . S
C2162 C2167 1.379 . S
C2162 N2169 1.356 . S
C2163 C2162 1.363 . S
C2163 C2166 1.363 . S
N2164 C2166 1.356 . S
N2164 H2176 0.984 . S
N2164 H2177 0.985 . S
N2165 C2167 1.356 . S
N2165 H2170 0.984 . S
N2165 H2171 0.985 . S
C2166 C2160 1.379 . S
C2166 C2163 1.363 . S
C2166 N2164 1.356 . S
C2167 C2161 1.363 . S
C2167 C2162 1.379 . S
C2167 N2165 1.356 . S
N2168 C2160 1.356 . S
N2168 H2174 0.984 . S
N2168 H2175 0.984 . S
N2169 C2162 1.356 . S
N2169 H2172 0.984 . S
N2169 H2173 0.985 . S
H2170 N2165 0.984 . S
H2171 N2165 0.985 . S
H2172 N2169 0.984 . S
H2173 N2169 0.985 . S
H2174 N2168 0.984 . S
H2175 N2168 0.984 . S
H2176 N2164 0.984 . S
H2177 N2164 0.985 . S
C2178 C2179 1.363 . S
C2178 C2184 1.379 . S
C2178 N2186 1.356 . S
C2179 C2178 1.363 . S
C2179 C2185 1.363 . S
C2180 C2181 1.363 . S
C2180 C2185 1.379 . S
C2180 N2187 1.356 . S
C2181 C2180 1.363 . S
C2181 C2184 1.363 . S
N2182 C2184 1.356 . S
N2182 H2194 0.984 . S
N2182 H2195 0.985 . S
N2183 C2185 1.356 . S
N2183 H2188 0.984 . S
N2183 H2189 0.985 . S
C2184 C2178 1.379 . S
C2184 C2181 1.363 . S
C2184 N2182 1.356 . S
C2185 C2179 1.363 . S
C2185 C2180 1.379 . S
C2185 N2183 1.356 . S
N2186 C2178 1.356 . S
N2186 H2192 0.984 . S
N2186 H2193 0.984 . S
N2187 C2180 1.356 . S
N2187 H2190 0.984 . S
N2187 H2191 0.985 . S
H2188 N2183 0.984 . S
H2189 N2183 0.985 . S
H2190 N2187 0.984 . S
H2191 N2187 0.985 . S
H2192 N2186 0.984 . S
H2193 N2186 0.984 . S
H2194 N2182 0.984 . S
H2195 N2182 0.985 . S
C2196 C2197 1.363 . S
C2196 C2202 1.388 . S
C2196 N2204 1.353 . S
C2197 C2196 1.363 . S
C2197 C2203 1.363 . S
C2198 C2199 1.363 . S
C2198 C2203 1.379 . S
C2198 N2205 1.356 . S
C2199 C2198 1.363 . S
C2199 C2202 1.360 . S
N2200 C2202 1.348 1_565 S
N2200 H2212 0.984 . S
N2200 H2213 0.985 . S
N2201 C2203 1.356 . S
N2201 H2206 0.984 . S
N2201 H2207 0.985 . S
C2202 C2196 1.388 . S
C2202 C2199 1.360 . S
C2202 N2200 1.348 1_545 S
C2203 C2197 1.363 . S
C2203 C2198 1.379 . S
C2203 N2201 1.356 . S
N2204 C2196 1.353 . S
N2204 H2210 0.981 1_545 S
N2204 H2211 0.991 . S
N2205 C2198 1.356 . S
N2205 H2208 0.984 . S
N2205 H2209 0.985 . S
H2206 N2201 0.984 . S
H2207 N2201 0.985 . S
H2208 N2205 0.984 . S
H2209 N2205 0.985 . S
H2210 N2204 0.981 1_565 S
H2211 N2204 0.991 . S
H2212 N2200 0.984 . S
H2213 N2200 0.985 . S
C2214 C2215 1.363 . S
C2214 C2220 1.379 . S
C2214 N2222 1.356 . S
C2215 C2214 1.363 . S
C2215 C2221 1.363 . S
C2216 C2217 1.363 . S
C2216 C2221 1.379 . S
C2216 N2223 1.356 . S
C2217 C2216 1.363 . S
C2217 C2220 1.363 . S
N2218 C2220 1.356 . S
N2218 H2230 0.984 . S
N2218 H2231 0.985 . S
N2219 C2221 1.356 . S
N2219 H2224 0.984 . S
N2219 H2225 0.985 . S
C2220 C2214 1.379 . S
C2220 C2217 1.363 . S
C2220 N2218 1.356 . S
C2221 C2215 1.363 . S
C2221 C2216 1.379 . S
C2221 N2219 1.356 . S
N2222 C2214 1.356 . S
N2222 H2228 0.984 . S
N2222 H2229 0.984 . S
N2223 C2216 1.356 . S
N2223 H2226 0.984 . S
N2223 H2227 0.985 . S
H2224 N2219 0.984 . S
H2225 N2219 0.985 . S
H2226 N2223 0.984 . S
H2227 N2223 0.985 . S
H2228 N2222 0.984 . S
H2229 N2222 0.984 . S
H2230 N2218 0.984 . S
H2231 N2218 0.985 . S
C2232 C2233 1.363 . S
C2232 C2238 1.379 . S
C2232 N2240 1.356 . S
C2233 C2232 1.363 . S
C2233 C2239 1.363 . S
C2234 C2235 1.363 . S
C2234 C2239 1.379 . S
C2234 N2241 1.356 . S
C2235 C2234 1.363 . S
C2235 C2238 1.363 . S
N2236 C2238 1.356 . S
N2236 H2248 0.984 . S
N2236 H2249 0.985 . S
N2237 C2239 1.356 . S
N2237 H2242 0.984 . S
N2237 H2243 0.985 . S
C2238 C2232 1.379 . S
C2238 C2235 1.363 . S
C2238 N2236 1.356 . S
C2239 C2233 1.363 . S
C2239 C2234 1.379 . S
C2239 N2237 1.356 . S
N2240 C2232 1.356 . S
N2240 H2246 0.984 . S
N2240 H2247 0.984 . S
N2241 C2234 1.356 . S
N2241 H2244 0.984 . S
N2241 H2245 0.985 . S
H2242 N2237 0.984 . S
H2243 N2237 0.985 . S
H2244 N2241 0.984 . S
H2245 N2241 0.985 . S
H2246 N2240 0.984 . S
H2247 N2240 0.984 . S
H2248 N2236 0.984 . S
H2249 N2236 0.985 . S
C2250 C2251 1.363 . S
C2250 C2256 1.379 . S
C2250 N2258 1.356 . S
C2251 C2250 1.363 . S
C2251 C2257 1.363 . S
C2252 C2253 1.363 . S
C2252 C2257 1.379 . S
C2252 N2259 1.356 . S
C2253 C2252 1.363 . S
C2253 C2256 1.363 . S
N2254 C2256 1.356 . S
N2254 H2266 0.984 . S
N2254 H2267 0.985 . S
N2255 C2257 1.356 . S
N2255 H2260 0.984 . S
N2255 H2261 0.985 . S
C2256 C2250 1.379 . S
C2256 C2253 1.363 . S
C2256 N2254 1.356 . S
C2257 C2251 1.363 . S
C2257 C2252 1.379 . S
C2257 N2255 1.356 . S
N2258 C2250 1.356 . S
N2258 H2264 0.984 . S
N2258 H2265 0.984 . S
N2259 C2252 1.356 . S
N2259 H2262 0.984 . S
N2259 H2263 0.985 . S
H2260 N2255 0.984 . S
H2261 N2255 0.985 . S
H2262 N2259 0.984 . S
H2263 N2259 0.985 . S
H2264 N2258 0.984 . S
H2265 N2258 0.984 . S
H2266 N2254 0.984 . S
H2267 N2254 0.985 . S
C2268 C2269 1.363 . S
C2268 C2274 1.379 . S
C2268 N2276 1.356 . S
C2269 C2268 1.363 . S
C2269 C2275 1.363 . S
C2270 C2271 1.363 . S
C2270 C2275 1.379 . S
C2270 N2277 1.356 . S
C2271 C2270 1.363 . S
C2271 C2274 1.363 . S
N2272 C2274 1.356 . S
N2272 H2284 0.984 . S
N2272 H2285 0.985 . S
N2273 C2275 1.356 . S
N2273 H2278 0.984 . S
N2273 H2279 0.985 . S
C2274 C2268 1.379 . S
C2274 C2271 1.363 . S
C2274 N2272 1.356 . S
C2275 C2269 1.363 . S
C2275 C2270 1.379 . S
C2275 N2273 1.356 . S
N2276 C2268 1.356 . S
N2276 H2282 0.984 . S
N2276 H2283 0.984 . S
N2277 C2270 1.356 . S
N2277 H2280 0.984 . S
N2277 H2281 0.985 . S
H2278 N2273 0.984 . S
H2279 N2273 0.985 . S
H2280 N2277 0.984 . S
H2281 N2277 0.985 . S
H2282 N2276 0.984 . S
H2283 N2276 0.984 . S
H2284 N2272 0.984 . S
H2285 N2272 0.985 . S
C2286 C2287 1.363 . S
C2286 C2292 1.379 . S
C2286 N2294 1.356 . S
C2287 C2286 1.363 . S
C2287 C2293 1.363 . S
C2288 C2289 1.363 . S
C2288 C2293 1.379 . S
C2288 N2295 1.356 . S
C2289 C2288 1.363 . S
C2289 C2292 1.363 . S
N2290 C2292 1.356 . S
N2290 H2302 0.984 . S
N2290 H2303 0.985 . S
N2291 C2293 1.356 . S
N2291 H2296 0.984 . S
N2291 H2297 0.985 . S
C2292 C2286 1.379 . S
C2292 C2289 1.363 . S
C2292 N2290 1.356 . S
C2293 C2287 1.363 . S
C2293 C2288 1.379 . S
C2293 N2291 1.356 . S
N2294 C2286 1.356 . S
N2294 H2300 0.984 . S
N2294 H2301 0.984 . S
N2295 C2288 1.356 . S
N2295 H2298 0.984 . S
N2295 H2299 0.985 . S
H2296 N2291 0.984 . S
H2297 N2291 0.985 . S
H2298 N2295 0.984 . S
H2299 N2295 0.985 . S
H2300 N2294 0.984 . S
H2301 N2294 0.984 . S
H2302 N2290 0.984 . S
H2303 N2290 0.985 . S
C2304 C2305 1.363 . S
C2304 C2310 1.379 . S
C2304 N2312 1.356 . S
C2305 C2304 1.363 . S
C2305 C2311 1.363 . S
C2306 C2307 1.363 . S
C2306 C2311 1.379 . S
C2306 N2313 1.356 . S
C2307 C2306 1.363 . S
C2307 C2310 1.363 . S
N2308 C2310 1.356 . S
N2308 H2320 0.984 . S
N2308 H2321 0.985 . S
N2309 C2311 1.356 . S
N2309 H2314 0.984 . S
N2309 H2315 0.985 . S
C2310 C2304 1.379 . S
C2310 C2307 1.363 . S
C2310 N2308 1.356 . S
C2311 C2305 1.363 . S
C2311 C2306 1.379 . S
C2311 N2309 1.356 . S
N2312 C2304 1.356 . S
N2312 H2318 0.984 . S
N2312 H2319 0.984 . S
N2313 C2306 1.356 . S
N2313 H2316 0.984 . S
N2313 H2317 0.985 . S
H2314 N2309 0.984 . S
H2315 N2309 0.985 . S
H2316 N2313 0.984 . S
H2317 N2313 0.985 . S
H2318 N2312 0.984 . S
H2319 N2312 0.984 . S
H2320 N2308 0.984 . S
H2321 N2308 0.985 . S
C2322 C2323 1.363 . S
C2322 C2328 1.379 . S
C2322 N2330 1.356 . S
C2323 C2322 1.363 . S
C2323 C2329 1.363 . S
C2324 C2325 1.363 . S
C2324 C2329 1.379 . S
C2324 N2331 1.356 . S
C2325 C2324 1.363 . S
C2325 C2328 1.363 . S
N2326 C2328 1.356 . S
N2326 H2338 0.984 . S
N2326 H2339 0.985 . S
N2327 C2329 1.356 . S
N2327 H2332 0.984 . S
N2327 H2333 0.985 . S
C2328 C2322 1.379 . S
C2328 C2325 1.363 . S
C2328 N2326 1.356 . S
C2329 C2323 1.363 . S
C2329 C2324 1.379 . S
C2329 N2327 1.356 . S
N2330 C2322 1.356 . S
N2330 H2336 0.984 . S
N2330 H2337 0.984 . S
N2331 C2324 1.356 . S
N2331 H2334 0.984 . S
N2331 H2335 0.985 . S
H2332 N2327 0.984 . S
H2333 N2327 0.985 . S
H2334 N2331 0.984 . S
H2335 N2331 0.985 . S
H2336 N2330 0.984 . S
H2337 N2330 0.984 . S
H2338 N2326 0.984 . S
H2339 N2326 0.985 . S
C2340 C2341 1.363 . S
C2340 C2346 1.379 . S
C2340 N2348 1.356 . S
C2341 C2340 1.363 . S
C2341 C2347 1.363 . S
C2342 C2343 1.363 . S
C2342 C2347 1.379 . S
C2342 N2349 1.356 . S
C2343 C2342 1.363 . S
C2343 C2346 1.363 . S
N2344 C2346 1.356 . S
N2344 H2356 0.984 . S
N2344 H2357 0.985 . S
N2345 C2347 1.356 . S
N2345 H2350 0.984 . S
N2345 H2351 0.985 . S
C2346 C2340 1.379 . S
C2346 C2343 1.363 . S
C2346 N2344 1.356 . S
C2347 C2341 1.363 . S
C2347 C2342 1.379 . S
C2347 N2345 1.356 . S
N2348 C2340 1.356 . S
N2348 H2354 0.984 . S
N2348 H2355 0.984 . S
N2349 C2342 1.356 . S
N2349 H2352 0.984 . S
N2349 H2353 0.985 . S
H2350 N2345 0.984 . S
H2351 N2345 0.985 . S
H2352 N2349 0.984 . S
H2353 N2349 0.985 . S
H2354 N2348 0.984 . S
H2355 N2348 0.984 . S
H2356 N2344 0.984 . S
H2357 N2344 0.985 . S
C2358 C2359 1.363 . S
C2358 C2364 1.379 . S
C2358 N2366 1.356 . S
C2359 C2358 1.363 . S
C2359 C2365 1.363 1_655 S
C2360 C2361 1.363 1_455 S
C2360 C2365 1.379 . S
C2360 N2367 1.356 . S
C2361 C2360 1.363 1_655 S
C2361 C2364 1.363 . S
N2362 C2364 1.356 . S
N2362 H2374 0.984 . S
N2362 H2375 0.985 . S
N2363 C2365 1.356 . S
N2363 H2368 0.984 . S
N2363 H2369 0.985 . S
C2364 C2358 1.379 . S
C2364 C2361 1.363 . S
C2364 N2362 1.356 . S
C2365 C2359 1.363 1_455 S
C2365 C2360 1.379 . S
C2365 N2363 1.356 . S
N2366 C2358 1.356 . S
N2366 H2372 0.984 . S
N2366 H2373 0.984 . S
N2367 C2360 1.356 . S
N2367 H2370 0.984 . S
N2367 H2371 0.985 . S
H2368 N2363 0.984 . S
H2369 N2363 0.985 . S
H2370 N2367 0.984 . S
H2371 N2367 0.985 . S
H2372 N2366 0.984 . S
H2373 N2366 0.984 . S
H2374 N2362 0.984 . S
H2375 N2362 0.985 . S
C2376 C2377 1.363 . S
C2376 C2382 1.379 . S
C2376 N2384 1.356 . S
C2377 C2376 1.363 . S
C2377 C2383 1.363 . S
C2378 C2379 1.363 . S
C2378 C2383 1.379 . S
C2378 N2385 1.356 . S
C2379 C2378 1.363 . S
C2379 C2382 1.363 . S
N2380 C2382 1.356 . S
N2380 H2392 0.984 . S
N2380 H2393 0.985 . S
N2381 C2383 1.356 . S
N2381 H2386 0.984 . S
N2381 H2387 0.985 . S
C2382 C2376 1.379 . S
C2382 C2379 1.363 . S
C2382 N2380 1.356 . S
C2383 C2377 1.363 . S
C2383 C2378 1.379 . S
C2383 N2381 1.356 . S
N2384 C2376 1.356 . S
N2384 H2390 0.984 . S
N2384 H2391 0.984 . S
N2385 C2378 1.356 . S
N2385 H2388 0.984 . S
N2385 H2389 0.985 . S
H2386 N2381 0.984 . S
H2387 N2381 0.985 . S
H2388 N2385 0.984 . S
H2389 N2385 0.985 . S
H2390 N2384 0.984 . S
H2391 N2384 0.984 . S
H2392 N2380 0.984 . S
H2393 N2380 0.985 . S
C2394 C2395 1.363 1_565 S
C2394 C2400 1.379 . S
C2394 N2402 1.356 . S
C2395 C2394 1.363 1_545 S
C2395 C2401 1.363 . S
C2396 C2397 1.363 . S
C2396 C2401 1.379 . S
C2396 N2403 1.356 . S
C2397 C2396 1.363 . S
C2397 C2400 1.363 1_545 S
N2398 C2400 1.356 . S
N2398 H2410 0.984 . S
N2398 H2411 0.985 . S
N2399 C2401 1.356 . S
N2399 H2404 0.984 . S
N2399 H2405 0.985 . S
C2400 C2394 1.379 . S
C2400 C2397 1.363 1_565 S
C2400 N2398 1.356 . S
C2401 C2395 1.363 . S
C2401 C2396 1.379 . S
C2401 N2399 1.356 . S
N2402 C2394 1.356 . S
N2402 H2408 0.984 . S
N2402 H2409 0.984 . S
N2403 C2396 1.356 . S
N2403 H2406 0.984 . S
N2403 H2407 0.985 . S
H2404 N2399 0.984 . S
H2405 N2399 0.985 . S
H2406 N2403 0.984 . S
H2407 N2403 0.985 . S
H2408 N2402 0.984 . S
H2409 N2402 0.984 . S
H2410 N2398 0.984 . S
H2411 N2398 0.985 . S
C1117 C13 1.468 . S
C1119 C729 1.523 . S
C1135 C27 1.386 . S
C1137 C777 1.460 . S
C1155 C825 1.510 . S
C1153 C36 1.419 . S
C1171 C41 1.445 . S
C1173 C849 1.524 . S
C1189 C8 1.491 . S
C1191 C921 1.593 . S
C1207 C22 1.468 . S
C1209 C969 1.536 . S
C1225 C55 1.473 . S
C1227 C897 1.533 . S
C1245 C945 1.466 . S
C1243 C69 1.388 . S
C1263 C873 1.521 . S
C1261 C78 1.435 . S
C1279 C83 1.449 . S
C1281 C801 1.514 . S
C1299 C705 1.613 . S
C1297 C50 1.507 . S
C1315 C64 1.468 . S
C1317 C753 1.540 . S
C1333 C97 1.542 . S
C1335 C1017 1.649 . S
C1351 C111 1.426 . S
C1353 C1065 1.509 . S
C1371 C1089 1.594 . S
C1369 C120 1.567 . S
C1387 C125 1.477 . S
C1389 C273 1.564 . S
C1405 C92 1.679 . S
C1407 C345 1.724 . S
C1423 C106 1.530 . S
C1425 C393 1.578 . S
C1441 C139 1.504 . S
C1443 C321 1.603 . S
C1459 C153 1.430 . S
C1461 C369 1.501 . S
C1479 C297 1.573 . S
C1477 C162 1.561 . S
C1497 C1113 1.583 . S
C1495 C167 1.509 . S
C1515 C993 1.718 . S
C1513 C134 1.682 . S
C1533 C1041 1.594 . S
C1531 C148 1.550 . S
C1549 C181 1.506 . S
C1551 C441 1.607 . S
C1567 C195 1.421 . S
C1569 C489 1.489 . S
C1585 C204 1.565 . S
C1587 C513 1.600 . S
C1603 C209 1.511 . S
C1605 C561 1.605 . S
C1623 C633 1.729 . S
C1621 C176 1.689 . S
C1641 C681 1.592 . S
C1639 C190 1.550 . S
C1659 C609 1.656 . S
C1657 C223 1.549 . S
C1677 C657 1.522 . S
C1675 C237 1.436 . S
C1693 C246 1.559 . S
C1695 C585 1.559 . S
C1713 C537 1.533 . S
C1711 C251 1.468 . S
C1729 C218 1.678 . S
C1731 C417 1.721 . S
C1749 C465 1.586 . S
C1747 C232 1.534 . S
C1767 C282 1.550 . S
C1765 C11 1.508 . S
C1783 C25 1.425 . S
C1785 C336 1.418 . S
C1803 C384 1.484 . S
C1801 C35 1.526 . S
C1821 C432 1.528 . S
C1819 C39 1.527 . S
C1839 C480 1.564 . S
C1837 C7 1.612 . S
C1857 C522 1.493 . S
C1855 C21 1.507 . S
C1873 C53 1.518 . S
C1875 C528 1.545 . S
C1891 C67 1.420 . S
C1893 C426 1.393 . S
C1909 C77 1.510 . S
C1911 C474 1.449 . S
C1927 C81 1.538 . S
C1929 C330 1.521 . S
C1947 C378 1.548 . S
C1945 C49 1.613 . S
C1963 C63 1.510 . S
C1965 C288 1.477 . S
C1983 C570 1.511 . S
C1981 C95 1.483 . S
C1999 C109 1.477 . S
C2001 C624 1.461 . S
C2017 C119 1.556 . S
C2019 C672 1.513 . S
C2037 C720 1.337 . S
C2035 C123 1.339 . S
C2053 C91 1.555 . S
C2055 C768 1.516 . S
C2071 C105 1.324 . S
C2073 C816 1.322 . S
C2089 C137 1.366 . S
C2091 C810 1.357 . S
C2107 C151 1.254 . S
C2109 C714 1.253 . S
C2127 C762 1.425 . S
C2125 C161 1.470 . S
C2143 C165 1.517 . S
C2145 C618 1.487 . S
C2161 C133 1.623 . S
C2163 C666 1.563 . S
C2181 C576 1.532 . S
C2179 C147 1.563 . S
C2199 C858 1.384 . S
C2197 C179 1.372 . S
C2215 C193 1.249 . S
C2217 C912 1.251 . S
C2233 C203 1.471 . S
C2235 C960 1.438 . S
C2253 C1008 1.496 . S
C2251 C207 1.508 . S
C2271 C1056 1.576 . S
C2269 C175 1.624 . S
C2287 C189 1.561 . S
C2289 C1098 1.548 . S
C2305 C221 1.494 . S
C2307 C1104 1.502 . S
C2323 C235 1.474 . S
C2325 C1002 1.441 . S
C2343 C1050 1.485 . S
C2341 C245 1.539 . S
C2361 C906 1.320 . S
C2359 C249 1.323 . S
C2379 C954 1.511 . S
C2377 C217 1.561 . S
C2395 C231 1.344 . S
C2397 C864 1.342 . S
