# Generated by pormake.
# Topology tsx, (6,3)-cn, num edge types: 1
# Building blocks:
#     Node 0, Type 0, BuildingBlock: CIFDUS_clean_sbu_1, # of connection points: 6
#     Node 1, Type 0, BuildingBlock: CIFDUS_clean_sbu_1, # of connection points: 6
#     Node 2, Type 1, BuildingBlock: BETDAH_clean_linker_0, # of connection points: 3
#     Node 3, Type 1, BuildingBlock: BETDAH_clean_linker_0, # of connection points: 3
#     Node 4, Type 1, BuildingBlock: BETDAH_clean_linker_0, # of connection points: 3
#     Node 5, Type 1, BuildingBlock: BETDAH_clean_linker_0, # of connection points: 3
#     Edge 6, Type (0, 1), BuildingBlock: XIVTED_clean_linker_0, # of connection points: 2
#     Edge 7, Type (0, 1), BuildingBlock: XIVTED_clean_linker_0, # of connection points: 2
#     Edge 8, Type (0, 1), BuildingBlock: XIVTED_clean_linker_0, # of connection points: 2
#     Edge 9, Type (0, 1), BuildingBlock: XIVTED_clean_linker_0, # of connection points: 2
#     Edge 10, Type (0, 1), BuildingBlock: XIVTED_clean_linker_0, # of connection points: 2
#     Edge 11, Type (0, 1), BuildingBlock: XIVTED_clean_linker_0, # of connection points: 2
#     Edge 12, Type (0, 1), BuildingBlock: XIVTED_clean_linker_0, # of connection points: 2
#     Edge 13, Type (0, 1), BuildingBlock: XIVTED_clean_linker_0, # of connection points: 2
#     Edge 14, Type (0, 1), BuildingBlock: XIVTED_clean_linker_0, # of connection points: 2
#     Edge 15, Type (0, 1), BuildingBlock: XIVTED_clean_linker_0, # of connection points: 2
#     Edge 16, Type (0, 1), BuildingBlock: XIVTED_clean_linker_0, # of connection points: 2
#     Edge 17, Type (0, 1), BuildingBlock: XIVTED_clean_linker_0, # of connection points: 2
# Relax obj value: 0.092
# Max RMSD: 0.142
# Mean RMSD: 0.106
data_MOF--net-tsx--node1-CIFDUS_clean_sbu_1--node2-BETDAH_clean_linker_0--edge1-XIVTED_clean_linker_0
_symmetry_space_group_name_H-M    P1
_symmetry_Int_Tables_number       1
_symmetry_cell_setting            triclinic
loop_
_symmetry_equiv_pos_as_xyz
'x, y, z'
_cell_length_a     18.174371
_cell_length_b     22.836603
_cell_length_c     34.488833
_cell_angle_alpha  98.165149
_cell_angle_beta   101.6168
_cell_angle_gamma 90.788615
loop_
_atom_site_label
_atom_site_type_symbol
_atom_site_fract_x
_atom_site_fract_y
_atom_site_fract_z
_atom_type_partial_charge
O0 O 1.01696 0.11086 0.00532 0.0
Mn1 Mn 0.07609 0.03228 0.00206 0.0
O2 O 0.89782 0.08726 0.97209 0.0
Mn3 Mn 0.91936 0.01645 0.94407 0.0
O4 O 0.13558 0.95401 -0.00171 0.0
O5 O 0.17181 0.08057 0.02372 0.0
Mn6 Mn 0.22981 0.04917 0.06195 0.0
O7 O 0.06289 0.0236 0.0599 0.0
O8 O 0.24985 0.97477 0.0382 0.0
O9 O 0.08838 0.04097 0.94419 0.0
O10 O 0.97284 0.02439 0.90433 0.0
O11 O 0.28129 0.11667 0.0559 0.0
O12 O 0.17412 0.0513 0.10152 0.0
C13 C 0.93193 0.94104 0.97571 0.0
C14 C 0.94765 0.12356 -0.00534 0.0
C15 C 0.2027 0.93949 0.01275 0.0
C16 C 0.22229 0.12253 0.0289 0.0
C17 C 0.1044 0.03629 0.09512 0.0
C18 C 0.04341 0.0363 0.90985 0.0
O19 O 0.98095 0.98377 0.98015 0.0
O20 O 0.87244 0.94564 0.94876 0.0
O21 O 0.52424 0.6076 0.49915 0.0
Mn22 Mn 0.57963 0.52782 0.49523 0.0
O23 O 0.40663 0.58634 0.46215 0.0
Mn24 Mn 0.41981 0.50896 0.44059 0.0
O25 O 0.6323 0.4465 0.48903 0.0
O26 O 0.67815 0.57402 0.51202 0.0
Mn27 Mn 0.74382 0.53475 0.54209 0.0
O28 O 0.57877 0.52275 0.55504 0.0
O29 O 0.75636 0.46574 0.50973 0.0
O30 O 0.58323 0.53295 0.43553 0.0
O31 O 0.46987 0.50005 0.39838 0.0
O32 O 0.79279 0.60483 0.53923 0.0
O33 O 0.70129 0.52576 0.5857 0.0
C34 C 0.43023 0.44255 0.47963 0.0
C35 C 0.4568 0.62199 0.48527 0.0
C36 C 0.70073 0.43105 0.49194 0.0
C37 C 0.72911 0.61584 0.5176 0.0
C38 C 0.63121 0.5217 0.58613 0.0
C39 C 0.53849 0.51653 0.40167 0.0
O40 O 0.48131 0.48188 0.4794 0.0
O41 O 0.36919 0.44547 0.45338 0.0
H42 H 0.14684 0.93601 0.36248 0.0
H43 H 0.93302 0.00762 0.37053 0.0
H44 H 0.05096 0.92058 0.46535 0.0
C45 C 0.10231 0.94335 0.37903 0.0
C46 C 0.10851 0.92466 0.4167 0.0
C47 C 0.03867 0.97209 0.36211 0.0
C48 C 0.98207 0.98535 0.38369 0.0
C49 C 0.98694 0.96696 0.42123 0.0
C50 C 0.04916 0.93587 0.43705 0.0
N51 N 0.92926 0.97812 0.44324 0.0
C52 C 0.88706 0.02822 0.44122 0.0
H53 H 0.98831 0.96906 0.6324 0.0
H54 H 0.16308 0.09084 0.62144 0.0
H55 H 1.01485 0.00091 0.51603 0.0
C56 C 1.01694 0.99164 0.61367 0.0
C57 C 0.99302 0.98055 0.57195 0.0
C58 C 0.07824 0.03112 0.63159 0.0
C59 C 0.11593 0.06031 0.60754 0.0
C60 C 0.09326 0.0487 0.56557 0.0
C61 C 0.03207 0.00911 0.54824 0.0
N62 N 0.13054 0.07501 0.53951 0.0
C63 C 0.19067 0.11632 0.55126 0.0
H64 H 0.68954 0.46506 0.87704 0.0
H65 H 0.46081 0.51661 0.86249 0.0
H66 H 0.55982 0.4383 0.9652 0.0
C67 C 0.63787 0.46788 0.88807 0.0
C68 C 0.63337 0.44661 0.92391 0.0
C69 C 0.57491 0.48969 0.86449 0.0
C70 C 0.5099 0.49961 0.88009 0.0
C71 C 0.50581 0.48282 0.91719 0.0
C72 C 0.5662 0.45459 0.93815 0.0
N73 N 0.43892 0.48961 0.93222 0.0
C74 C 0.40456 0.54357 0.93572 0.0
H75 H 0.47686 0.45992 0.12019 0.0
H76 H 0.65478 0.58366 0.11576 0.0
H77 H 0.49469 0.51499 0.00859 0.0
C78 C 0.50473 0.48644 0.10325 0.0
C79 C 0.47732 0.48336 0.06202 0.0
C80 C 0.56884 0.52207 0.12285 0.0
C81 C 0.60531 0.55621 0.10082 0.0
C82 C 0.57842 0.55314 0.05925 0.0
C83 C 0.51478 0.51695 0.04039 0.0
N84 N 0.61388 0.5845 0.03483 0.0
C85 C 0.67789 0.62175 0.04761 0.0
H86 H 0.14154 0.21797 0.04619 0.0
H87 H 0.46565 0.40561 0.99275 0.0
H88 H 0.29435 0.1496 0.97215 0.0
H89 H 0.34405 0.46426 0.08527 0.0
H90 H 0.37214 0.32475 0.96651 0.0
H91 H 0.18119 0.31897 0.04062 0.0
C92 C 0.18038 0.22433 0.02692 0.0
C93 C 0.21505 0.17585 0.00964 0.0
C94 C 0.36488 0.35604 0.99203 0.0
C95 C 0.26281 0.29046 0.00442 0.0
C96 C 0.41815 0.40258 0.00687 0.0
C97 C 0.41345 0.44133 0.04159 0.0
C98 C 0.3067 0.34773 0.0123 0.0
C99 C 0.35083 0.43454 0.05895 0.0
C100 C 0.20392 0.28192 0.02426 0.0
C101 C 0.26631 0.18613 0.98578 0.0
N102 N 0.30061 0.38802 0.04455 0.0
N103 N 0.28993 0.24237 0.98454 0.0
H104 H 0.12456 0.84664 0.95896 0.0
H105 H 0.47688 0.63656 0.98539 0.0
H106 H 0.34072 0.89568 0.03677 0.0
H107 H 0.26473 0.57989 0.90681 0.0
H108 H 0.42615 0.73294 0.00332 0.0
H109 H 0.17235 0.74934 0.93834 0.0
C110 C 0.18181 0.83712 0.97172 0.0
C111 C 0.22851 0.87973 -0.00033 0.0
C112 C 0.39042 0.69974 0.98202 0.0
C113 C 0.28344 0.76872 0.97618 0.0
C114 C 0.41957 0.64488 0.97177 0.0
C115 C 0.3748 0.60101 0.94456 0.0
C116 C 0.3157 0.7107 0.96497 0.0
C117 C 0.3008 0.61321 0.92783 0.0
C118 C 0.20907 0.7816 0.95992 0.0
C119 C 0.30227 0.86467 0.01516 0.0
N120 N 0.27331 0.66711 0.93833 0.0
N121 N 0.32718 0.81075 0.00323 0.0
H122 H 0.96876 0.82735 0.9571 0.0
H123 H 0.70252 0.72962 0.09333 0.0
H124 H 0.89564 0.9474 0.04832 0.0
H125 H 0.79304 0.60795 0.00954 0.0
H126 H 0.794 0.8066 0.08789 0.0
H127 H 0.92945 0.74367 0.98652 0.0
C128 C 0.9473 0.8359 0.9844 0.0
C129 C 0.93607 0.89394 0.00073 0.0
C130 C 0.79524 0.76271 0.0714 0.0
C131 C 0.88722 0.79895 0.03335 0.0
C132 C 0.74325 0.71886 0.07467 0.0
C133 C 0.74089 0.66287 0.05185 0.0
C134 C 0.84394 0.75043 0.04453 0.0
C135 C 0.79369 0.65086 0.02767 0.0
C136 C 0.92403 0.78823 0.00098 0.0
C137 C 0.90607 0.90304 0.03534 0.0
N138 N 0.84241 0.69456 0.02415 0.0
N139 N 0.88131 0.85602 0.05011 0.0
H140 H 0.83126 0.16061 0.02923 0.0
H141 H 0.73666 0.38115 0.88915 0.0
H142 H 1.00707 0.22333 0.97632 0.0
H143 H 0.67257 0.42746 0.00368 0.0
H144 H 0.83137 0.31958 0.91952 0.0
H145 H 0.76811 0.25408 0.02231 0.0
C146 C 0.85797 0.19513 0.01764 0.0
C147 C 0.92444 0.18467 0.00345 0.0
C148 C 0.79742 0.34418 0.93812 0.0
C149 C 0.85116 0.28977 0.99382 0.0
C150 C 0.74302 0.38024 0.92089 0.0
C151 C 0.69555 0.41119 0.94361 0.0
C152 C 0.80323 0.33636 0.97806 0.0
C153 C 0.70602 0.40412 0.98435 0.0
C154 C 0.8219 0.24823 0.01362 0.0
C155 C 0.95624 0.2301 0.98794 0.0
N156 N 0.75754 0.3664 4e-05 0.0
N157 N 0.91803 0.28006 0.98233 0.0
H158 H 0.77401 0.65559 0.45573 0.0
H159 H 0.85639 0.96781 0.59342 0.0
H160 H 0.6688 0.70945 0.55545 0.0
H161 H 0.98691 0.89256 0.50892 0.0
H162 H 0.76009 0.88793 0.56659 0.0
H163 H 0.81772 0.75807 0.45858 0.0
C164 C 0.75671 0.68972 0.47686 0.0
C165 C 0.71804 0.67444 0.50543 0.0
C166 C 0.80903 0.88983 0.55328 0.0
C167 C 0.7715 0.79082 0.5106 0.0
C168 C 0.86424 0.93507 0.56877 0.0
C169 C 0.92992 0.93689 0.55327 0.0
C170 C 0.81971 0.84606 0.52214 0.0
C171 C 0.93668 0.8938 0.52107 0.0
C172 C 0.78282 0.74806 0.47901 0.0
C173 C 0.6983 0.71986 0.53278 0.0
N174 N 0.88281 0.84995 0.50687 0.0
N175 N 0.72709 0.77594 0.5355 0.0
H176 H 0.61459 0.32839 0.48399 0.0
H177 H 0.9371 0.12518 0.41734 0.0
H178 H 0.82526 0.39542 0.46465 0.0
H179 H 0.75709 0.05725 0.46493 0.0
H180 H 0.88302 0.22296 0.42244 0.0
H181 H 0.65225 0.22699 0.46508 0.0
C182 C 0.66806 0.32177 0.47511 0.0
C183 C 0.71716 0.37018 0.47616 0.0
C184 C 0.85482 0.18666 0.43147 0.0
C185 C 0.76048 0.25505 0.45467 0.0
C186 C 0.88556 0.13103 0.42844 0.0
C187 C 0.85115 0.08391 0.44081 0.0
C188 C 0.78932 0.19498 0.44708 0.0
C189 C 0.78481 0.09305 0.45511 0.0
C190 C 0.68973 0.26404 0.46461 0.0
C191 C 0.7861 0.35928 0.46471 0.0
N192 N 0.756 0.14784 0.45809 0.0
N193 N 0.80576 0.30298 0.45459 0.0
H194 H 0.39355 0.45276 0.55255 0.0
H195 H 0.31473 0.10354 0.52019 0.0
H196 H 0.47166 0.32978 0.46466 0.0
H197 H 0.20037 0.2288 0.5901 0.0
H198 H 0.40278 0.1833 0.51545 0.0
H199 H 0.35545 0.36932 0.58284 0.0
C200 C 0.40588 0.40819 0.54086 0.0
C201 C 0.43651 0.39777 0.5065 0.0
C202 C 0.35954 0.19324 0.5326 0.0
C203 C 0.39058 0.30235 0.53969 0.0
C204 C 0.3096 0.14774 0.53541 0.0
C205 C 0.25075 0.16014 0.5555 0.0
C206 C 0.34978 0.25153 0.54972 0.0
C207 C 0.24546 0.21787 0.5744 0.0
C208 C 0.38325 0.36058 0.55776 0.0
C209 C 0.44936 0.33939 0.49161 0.0
N210 N 0.29387 0.26175 0.57065 0.0
N211 N 0.42532 0.29374 0.50792 0.0
H212 H 0.49704 0.71013 0.44847 0.0
H213 H 0.17265 0.92117 0.49659 0.0
H214 H 0.36327 0.6708 0.53214 0.0
H215 H 0.19816 0.85201 0.37668 0.0
H216 H 0.2751 0.86009 0.52307 0.0
H217 H 0.4239 0.7981 0.43755 0.0
C218 C 0.45486 0.72186 0.46607 0.0
C219 C 0.43623 0.6839 0.49146 0.0
C220 C 0.25855 0.85955 0.49104 0.0
C221 C 0.35242 0.78312 0.47882 0.0
C222 C 0.19935 0.89369 0.47567 0.0
C223 C 0.17514 0.89181 0.43398 0.0
C224 C 0.29556 0.82491 0.46472 0.0
C225 C 0.21469 0.8565 0.4089 0.0
C226 C 0.4127 0.77142 0.45947 0.0
C227 C 0.37958 0.69969 0.5127 0.0
N228 N 0.27277 0.82466 0.42466 0.0
N229 N 0.33887 0.74799 0.50561 0.0
H230 H 1.0163 0.94601 0.10775 0.0
H231 H 0.02659 0.08 0.33628 0.0
H232 H 0.12205 0.11583 0.16283 0.0
H233 H 0.03136 0.89323 0.29477 0.0
H234 H 1.02371 0.09991 0.26764 0.0
H235 H 0.98206 0.93292 0.17154 0.0
C236 C 0.03028 0.98114 0.13296 0.0
C237 C 0.072 0.03191 0.13037 0.0
C238 C 1.02441 0.05459 0.2736 0.0
C239 C 0.03369 0.01744 0.20279 0.0
C240 C 0.02599 0.04333 0.31252 0.0
C241 C 0.03015 0.98508 0.32084 0.0
C242 C 0.02549 0.00708 0.243 0.0
C243 C 0.02908 0.93879 0.28933 0.0
C244 C 1.01146 0.9735 0.16931 0.0
C245 C 0.09025 0.07586 0.16396 0.0
N246 N 0.027 0.95076 0.2517 0.0
N247 N 0.07121 0.06756 0.19892 0.0
H248 H 0.15529 0.97892 0.87954 0.0
H249 H 0.07467 0.13399 0.68186 0.0
H250 H 0.99639 0.11536 0.85989 0.0
H251 H 0.13017 0.95103 0.6808 0.0
H252 H 0.08735 0.14466 0.75492 0.0
H253 H 0.18643 0.98557 0.81387 0.0
C254 C 0.12856 0.01124 0.86179 0.0
C255 C 0.07296 0.04638 0.87461 0.0
C256 C 0.09839 0.10259 0.73872 0.0
C257 C 0.10852 0.05472 0.80055 0.0
C258 C 0.09159 0.09664 0.69725 0.0
C259 C 0.10097 0.04152 0.67564 0.0
C260 C 0.11555 0.05321 0.75846 0.0
C261 C 0.12217 0.99414 0.69666 0.0
C262 C 0.14598 0.01485 0.82445 0.0
C263 C 0.03919 0.08728 0.85066 0.0
N264 N 0.12826 0.0009 0.73698 0.0
N265 N 0.05732 0.09025 0.81467 0.0
H266 H 0.5101 0.56357 0.61722 0.0
H267 H 0.63312 0.41175 0.8129 0.0
H268 H 0.7085 0.46251 0.64245 0.0
H269 H 0.51343 0.57385 0.818 0.0
H270 H 0.63743 0.4171 0.74375 0.0
H271 H 0.48792 0.55547 0.68471 0.0
C272 C 0.54832 0.53925 0.63675 0.0
C273 C 0.61151 0.51401 0.62455 0.0
C274 C 0.61039 0.45169 0.75996 0.0
C275 C 0.58624 0.50418 0.70062 0.0
C276 C 0.60847 0.44904 0.79965 0.0
C277 C 0.57495 0.4935 0.82182 0.0
C278 C 0.57787 0.49875 0.7417 0.0
C279 C 0.54066 0.53906 0.80216 0.0
C280 C 0.53598 0.53505 0.67514 0.0
C281 C 0.65958 0.48316 0.65084 0.0
N282 N 0.54337 0.5408 0.76309 0.0
N283 N 0.64582 0.47901 0.68749 0.0
H284 H 0.62608 0.6018 0.3816 0.0
H285 H 0.5973 0.42628 0.16111 0.0
H286 H 0.51319 0.43099 0.33722 0.0
H287 H 0.60053 0.61702 0.18328 0.0
H288 H 0.6116 0.42409 0.23282 0.0
H289 H 0.65732 0.60409 0.31533 0.0
C290 C 0.60925 0.56443 0.35814 0.0
C291 C 0.56649 0.51634 0.36447 0.0
C292 C 0.61054 0.46648 0.2221 0.0
C293 C 0.603 0.51814 0.28976 0.0
C294 C 0.60255 0.46778 0.18128 0.0
C295 C 0.59608 0.52188 0.16632 0.0
C296 C 0.6122 0.51964 0.24827 0.0
C297 C 0.60469 0.57442 0.19372 0.0
C298 C 0.62676 0.56587 0.32051 0.0
C299 C 0.54556 0.46909 0.33329 0.0
N300 N 0.61106 0.57206 0.23353 0.0
N301 N 0.56403 0.47116 0.29733 0.0
loop_
_geom_bond_atom_site_label_1
_geom_bond_atom_site_label_2
_geom_bond_distance
_geom_bond_site_symmetry_2
_ccdc_geom_bond_type
O0 Mn1 2.163 1_554 S
O0 C14 1.244 1_454 S
Mn1 O0 2.163 1_556 S
Mn1 O4 2.160 1_545 S
Mn1 O5 2.221 1_556 S
Mn1 O7 2.163 1_556 S
Mn1 O9 2.160 . S
Mn1 O19 2.221 1_445 S
O2 Mn3 2.087 1_545 S
O2 C14 1.256 . S
Mn3 O2 2.087 1_565 S
Mn3 O10 2.089 1_565 S
Mn3 O19 2.290 . S
Mn3 O20 2.251 . S
O4 Mn1 2.160 1_565 S
O4 C15 1.239 1_556 S
O5 Mn1 2.221 1_554 S
O5 Mn6 2.290 . S
O5 C16 1.278 . S
Mn6 O5 2.290 . S
Mn6 O8 2.089 1_545 S
Mn6 O11 2.251 . S
Mn6 O12 2.087 . S
O7 Mn1 2.163 1_554 S
O7 C17 1.244 . S
O8 Mn6 2.089 1_565 S
O8 C15 1.256 . S
O9 Mn1 2.160 . S
O9 C18 1.239 . S
O10 Mn3 2.089 1_545 S
O10 C18 1.256 1_655 S
O11 Mn6 2.251 . S
O11 C16 1.241 . S
O12 Mn6 2.087 . S
O12 C17 1.256 . S
C13 O19 1.278 . S
C13 O20 1.241 . S
C14 O0 1.244 1_656 S
C14 O2 1.256 . S
C15 O4 1.239 1_554 S
C15 O8 1.256 . S
C16 O5 1.278 . S
C16 O11 1.241 . S
C17 O7 1.244 . S
C17 O12 1.256 . S
C18 O9 1.239 . S
C18 O10 1.256 1_455 S
O19 Mn1 2.221 1_665 S
O19 Mn3 2.290 . S
O19 C13 1.278 . S
O20 Mn3 2.251 . S
O20 C13 1.241 . S
O21 Mn22 2.163 . S
O21 C35 1.244 . S
Mn22 O21 2.163 . S
Mn22 O25 2.160 . S
Mn22 O26 2.221 . S
Mn22 O28 2.163 . S
Mn22 O30 2.160 . S
Mn22 O40 2.221 . S
O23 Mn24 2.087 . S
O23 C35 1.256 . S
Mn24 O23 2.087 . S
Mn24 O31 2.089 . S
Mn24 O40 2.290 . S
Mn24 O41 2.251 . S
O25 Mn22 2.160 . S
O25 C36 1.239 . S
O26 Mn22 2.221 . S
O26 Mn27 2.290 . S
O26 C37 1.278 . S
Mn27 O26 2.290 . S
Mn27 O29 2.089 . S
Mn27 O32 2.251 . S
Mn27 O33 2.087 . S
O28 Mn22 2.163 . S
O28 C38 1.244 . S
O29 Mn27 2.089 . S
O29 C36 1.256 . S
O30 Mn22 2.160 . S
O30 C39 1.239 . S
O31 Mn24 2.089 . S
O31 C39 1.256 . S
O32 Mn27 2.251 . S
O32 C37 1.241 . S
O33 Mn27 2.087 . S
O33 C38 1.256 . S
C34 O40 1.278 . S
C34 O41 1.241 . S
C35 O21 1.244 . S
C35 O23 1.256 . S
C36 O25 1.239 . S
C36 O29 1.256 . S
C37 O26 1.278 . S
C37 O32 1.241 . S
C38 O28 1.244 . S
C38 O33 1.256 . S
C39 O30 1.239 . S
C39 O31 1.256 . S
O40 Mn22 2.221 . S
O40 Mn24 2.290 . S
O40 C34 1.278 . S
O41 Mn24 2.251 . S
O41 C34 1.241 . S
H42 C45 0.929 . S
H43 C48 0.929 . S
H44 C50 0.930 . S
C45 H42 0.929 . S
C45 C46 1.398 . S
C45 C47 1.396 . S
C46 C45 1.398 . S
C46 C50 1.407 . S
C47 C45 1.396 . S
C47 C48 1.394 1_565 S
C48 H43 0.929 . S
C48 C47 1.394 1_545 S
C48 C49 1.382 . S
C49 C48 1.382 . S
C49 C50 1.392 1_545 S
C49 N51 1.420 1_455 S
C50 H44 0.930 . S
C50 C46 1.407 . S
C50 C49 1.392 1_565 S
N51 C49 1.420 1_655 S
N51 C52 1.244 . S
C52 N51 1.244 . S
H53 C56 0.929 1_565 S
H54 C59 0.929 . S
H55 C61 0.930 . S
C56 H53 0.929 1_545 S
C56 C57 1.398 1_545 S
C56 C58 1.396 . S
C57 C56 1.398 1_565 S
C57 C61 1.407 1_565 S
C58 C56 1.396 . S
C58 C59 1.394 1_655 S
C59 H54 0.929 . S
C59 C58 1.394 1_455 S
C59 C60 1.382 . S
C60 C59 1.382 . S
C60 C61 1.392 1_455 S
C60 N62 1.420 . S
C61 H55 0.930 . S
C61 C57 1.407 1_545 S
C61 C60 1.392 1_655 S
N62 C60 1.420 . S
N62 C63 1.244 . S
C63 N62 1.244 . S
H64 C67 0.929 . S
H65 C70 0.929 . S
H66 C72 0.930 . S
C67 H64 0.929 . S
C67 C68 1.398 . S
C67 C69 1.396 . S
C68 C67 1.398 . S
C68 C72 1.407 . S
C69 C67 1.396 . S
C69 C70 1.394 . S
C70 H65 0.929 . S
C70 C69 1.394 . S
C70 C71 1.382 . S
C71 C70 1.382 . S
C71 C72 1.392 . S
C71 N73 1.420 . S
C72 H66 0.930 . S
C72 C68 1.407 . S
C72 C71 1.392 . S
N73 C71 1.420 . S
N73 C74 1.244 . S
C74 N73 1.244 . S
H75 C78 0.929 . S
H76 C81 0.929 . S
H77 C83 0.930 . S
C78 H75 0.929 . S
C78 C79 1.398 . S
C78 C80 1.396 . S
C79 C78 1.398 . S
C79 C83 1.407 . S
C80 C78 1.396 . S
C80 C81 1.394 . S
C81 H76 0.929 . S
C81 C80 1.394 . S
C81 C82 1.382 . S
C82 C81 1.382 . S
C82 C83 1.392 . S
C82 N84 1.420 . S
C83 H77 0.930 . S
C83 C79 1.407 . S
C83 C82 1.392 . S
N84 C82 1.420 . S
N84 C85 1.244 . S
C85 N84 1.244 . S
H86 C92 0.930 . S
H87 C96 0.930 . S
H88 C101 0.929 . S
H89 C99 0.929 1_556 S
H90 C94 0.929 . S
H91 C100 0.929 . S
C92 H86 0.930 . S
C92 C93 1.367 1_556 S
C92 C100 1.378 . S
C93 C92 1.367 1_554 S
C93 C101 1.433 . S
C94 H90 0.929 . S
C94 C96 1.378 . S
C94 C98 1.350 . S
C95 C98 1.463 . S
C95 C100 1.350 1_554 S
C95 N103 1.427 . S
C96 H87 0.930 . S
C96 C94 1.378 . S
C96 C97 1.367 . S
C97 C96 1.367 . S
C97 C99 1.433 . S
C98 C94 1.350 . S
C98 C95 1.463 . S
C98 N102 1.427 . S
C99 H89 0.929 1_554 S
C99 C97 1.433 . S
C99 N102 1.384 . S
C100 H91 0.929 . S
C100 C92 1.378 . S
C100 C95 1.350 1_556 S
C101 H88 0.929 . S
C101 C93 1.433 . S
C101 N103 1.384 . S
N102 C98 1.427 . S
N102 C99 1.384 . S
N103 C95 1.427 . S
N103 C101 1.384 . S
H104 C110 0.930 . S
H105 C114 0.930 . S
H106 C119 0.929 . S
H107 C117 0.929 . S
H108 C112 0.929 . S
H109 C118 0.929 . S
C110 H104 0.930 . S
C110 C111 1.367 1_556 S
C110 C118 1.378 . S
C111 C110 1.367 1_554 S
C111 C119 1.433 . S
C112 H108 0.929 . S
C112 C114 1.378 . S
C112 C116 1.350 1_554 S
C113 C116 1.463 . S
C113 C118 1.350 . S
C113 N121 1.427 1_556 S
C114 H105 0.930 . S
C114 C112 1.378 . S
C114 C115 1.367 1_554 S
C115 C114 1.367 1_556 S
C115 C117 1.433 . S
C116 C112 1.350 1_556 S
C116 C113 1.463 . S
C116 N120 1.427 . S
C117 H107 0.929 . S
C117 C115 1.433 . S
C117 N120 1.384 . S
C118 H109 0.929 . S
C118 C110 1.378 . S
C118 C113 1.350 . S
C119 H106 0.929 . S
C119 C111 1.433 . S
C119 N121 1.384 . S
N120 C116 1.427 . S
N120 C117 1.384 . S
N121 C113 1.427 1_554 S
N121 C119 1.384 . S
H122 C128 0.930 . S
H123 C132 0.930 . S
H124 C137 0.929 . S
H125 C135 0.929 . S
H126 C130 0.929 . S
H127 C136 0.925 1_556 S
C128 H122 0.930 . S
C128 C129 1.367 1_556 S
C128 C136 1.371 1_556 S
C129 C128 1.367 1_554 S
C129 C137 1.433 . S
C130 H126 0.929 . S
C130 C132 1.378 . S
C130 C134 1.350 . S
C131 C134 1.463 . S
C131 C136 1.361 . S
C131 N139 1.427 . S
C132 H123 0.930 . S
C132 C130 1.378 . S
C132 C133 1.367 . S
C133 C132 1.367 . S
C133 C135 1.433 . S
C134 C130 1.350 . S
C134 C131 1.463 . S
C134 N138 1.427 . S
C135 H125 0.929 . S
C135 C133 1.433 . S
C135 N138 1.384 . S
C136 H127 0.925 1_554 S
C136 C128 1.371 1_554 S
C136 C131 1.361 . S
C137 H124 0.929 . S
C137 C129 1.433 . S
C137 N139 1.384 . S
N138 C134 1.427 . S
N138 C135 1.384 . S
N139 C131 1.427 . S
N139 C137 1.384 . S
H140 C146 0.930 . S
H141 C150 0.930 . S
H142 C155 0.929 . S
H143 C153 0.929 1_554 S
H144 C148 0.929 . S
H145 C154 0.929 . S
C146 H140 0.930 . S
C146 C147 1.367 1_554 S
C146 C154 1.378 . S
C147 C146 1.367 1_556 S
C147 C155 1.433 . S
C148 H144 0.929 . S
C148 C150 1.378 . S
C148 C152 1.350 . S
C149 C152 1.463 . S
C149 C154 1.350 1_556 S
C149 N157 1.427 . S
C150 H141 0.930 . S
C150 C148 1.378 . S
C150 C151 1.367 . S
C151 C150 1.367 . S
C151 C153 1.433 . S
C152 C148 1.350 . S
C152 C149 1.463 . S
C152 N156 1.427 1_556 S
C153 H143 0.929 1_556 S
C153 C151 1.433 . S
C153 N156 1.384 1_556 S
C154 H145 0.929 . S
C154 C146 1.378 . S
C154 C149 1.350 1_554 S
C155 H142 0.929 . S
C155 C147 1.433 . S
C155 N157 1.384 . S
N156 C152 1.427 1_554 S
N156 C153 1.384 1_554 S
N157 C149 1.427 . S
N157 C155 1.384 . S
H158 C164 0.930 . S
H159 C168 0.930 . S
H160 C173 0.929 . S
H161 C171 0.929 . S
H162 C166 0.929 . S
H163 C172 0.929 . S
C164 H158 0.930 . S
C164 C165 1.367 . S
C164 C172 1.378 . S
C165 C164 1.367 . S
C165 C173 1.433 . S
C166 H162 0.929 . S
C166 C168 1.378 . S
C166 C170 1.350 . S
C167 C170 1.463 . S
C167 C172 1.350 . S
C167 N175 1.427 . S
C168 H159 0.930 . S
C168 C166 1.378 . S
C168 C169 1.367 . S
C169 C168 1.367 . S
C169 C171 1.433 . S
C170 C166 1.350 . S
C170 C167 1.463 . S
C170 N174 1.427 . S
C171 H161 0.929 . S
C171 C169 1.433 . S
C171 N174 1.384 . S
C172 H163 0.929 . S
C172 C164 1.378 . S
C172 C167 1.350 . S
C173 H160 0.929 . S
C173 C165 1.433 . S
C173 N175 1.384 . S
N174 C170 1.427 . S
N174 C171 1.384 . S
N175 C167 1.427 . S
N175 C173 1.384 . S
H176 C182 0.930 . S
H177 C186 0.930 . S
H178 C191 0.929 . S
H179 C189 0.929 . S
H180 C184 0.929 . S
H181 C190 0.929 . S
C182 H176 0.930 . S
C182 C183 1.367 . S
C182 C190 1.378 . S
C183 C182 1.367 . S
C183 C191 1.433 . S
C184 H180 0.929 . S
C184 C186 1.378 . S
C184 C188 1.350 . S
C185 C188 1.463 . S
C185 C190 1.350 . S
C185 N193 1.427 . S
C186 H177 0.930 . S
C186 C184 1.378 . S
C186 C187 1.367 . S
C187 C186 1.367 . S
C187 C189 1.433 . S
C188 C184 1.350 . S
C188 C185 1.463 . S
C188 N192 1.427 . S
C189 H179 0.929 . S
C189 C187 1.433 . S
C189 N192 1.384 . S
C190 H181 0.929 . S
C190 C182 1.378 . S
C190 C185 1.350 . S
C191 H178 0.929 . S
C191 C183 1.433 . S
C191 N193 1.384 . S
N192 C188 1.427 . S
N192 C189 1.384 . S
N193 C185 1.427 . S
N193 C191 1.384 . S
H194 C200 0.930 . S
H195 C204 0.930 . S
H196 C209 0.929 . S
H197 C207 0.929 . S
H198 C202 0.929 . S
H199 C208 0.929 . S
C200 H194 0.930 . S
C200 C201 1.367 . S
C200 C208 1.378 . S
C201 C200 1.367 . S
C201 C209 1.433 . S
C202 H198 0.929 . S
C202 C204 1.378 . S
C202 C206 1.350 . S
C203 C206 1.463 . S
C203 C208 1.350 . S
C203 N211 1.427 . S
C204 H195 0.930 . S
C204 C202 1.378 . S
C204 C205 1.367 . S
C205 C204 1.367 . S
C205 C207 1.433 . S
C206 C202 1.350 . S
C206 C203 1.463 . S
C206 N210 1.427 . S
C207 H197 0.929 . S
C207 C205 1.433 . S
C207 N210 1.384 . S
C208 H199 0.929 . S
C208 C200 1.378 . S
C208 C203 1.350 . S
C209 H196 0.929 . S
C209 C201 1.433 . S
C209 N211 1.384 . S
N210 C206 1.427 . S
N210 C207 1.384 . S
N211 C203 1.427 . S
N211 C209 1.384 . S
H212 C218 0.930 . S
H213 C222 0.930 . S
H214 C227 0.929 . S
H215 C225 0.929 . S
H216 C220 0.929 . S
H217 C226 0.929 . S
C218 H212 0.930 . S
C218 C219 1.367 . S
C218 C226 1.378 . S
C219 C218 1.367 . S
C219 C227 1.433 . S
C220 H216 0.929 . S
C220 C222 1.378 . S
C220 C224 1.350 . S
C221 C224 1.463 . S
C221 C226 1.350 . S
C221 N229 1.427 . S
C222 H213 0.930 . S
C222 C220 1.378 . S
C222 C223 1.367 . S
C223 C222 1.367 . S
C223 C225 1.433 . S
C224 C220 1.350 . S
C224 C221 1.463 . S
C224 N228 1.427 . S
C225 H215 0.929 . S
C225 C223 1.433 . S
C225 N228 1.384 . S
C226 H217 0.929 . S
C226 C218 1.378 . S
C226 C221 1.350 . S
C227 H214 0.929 . S
C227 C219 1.433 . S
C227 N229 1.384 . S
N228 C224 1.427 . S
N228 C225 1.384 . S
N229 C221 1.427 . S
N229 C227 1.384 . S
H230 C236 0.930 . S
H231 C240 0.930 . S
H232 C245 0.929 . S
H233 C243 0.929 . S
H234 C238 0.929 . S
H235 C244 0.929 . S
C236 H230 0.930 . S
C236 C237 1.367 1_565 S
C236 C244 1.378 . S
C237 C236 1.367 1_545 S
C237 C245 1.433 . S
C238 H234 0.929 . S
C238 C240 1.378 . S
C238 C242 1.350 1_545 S
C239 C242 1.463 . S
C239 C244 1.350 . S
C239 N247 1.427 1_565 S
C240 H231 0.930 . S
C240 C238 1.378 . S
C240 C241 1.367 1_545 S
C241 C240 1.367 1_565 S
C241 C243 1.433 . S
C242 C238 1.350 1_565 S
C242 C239 1.463 . S
C242 N246 1.427 . S
C243 H233 0.929 . S
C243 C241 1.433 . S
C243 N246 1.384 . S
C244 H235 0.929 . S
C244 C236 1.378 . S
C244 C239 1.350 . S
C245 H232 0.929 . S
C245 C237 1.433 . S
C245 N247 1.384 . S
N246 C242 1.427 . S
N246 C243 1.384 . S
N247 C239 1.427 1_545 S
N247 C245 1.384 . S
H248 C254 0.930 . S
H249 C258 0.930 . S
H250 C263 0.929 . S
H251 C261 0.929 1_565 S
H252 C256 0.929 . S
H253 C262 0.929 . S
C254 H248 0.930 . S
C254 C255 1.367 1_665 S
C254 C262 1.378 . S
C255 C254 1.367 1_445 S
C255 C263 1.433 . S
C256 H252 0.929 . S
C256 C258 1.378 . S
C256 C260 1.350 . S
C257 C260 1.463 . S
C257 C262 1.350 1_445 S
C257 N265 1.427 . S
C258 H249 0.930 . S
C258 C256 1.378 . S
C258 C259 1.367 1_455 S
C259 C258 1.367 1_655 S
C259 C261 1.433 . S
C260 C256 1.350 . S
C260 C257 1.463 . S
C260 N264 1.427 1_455 S
C261 H251 0.929 1_545 S
C261 C259 1.433 . S
C261 N264 1.384 . S
C262 H253 0.929 . S
C262 C254 1.378 . S
C262 C257 1.350 1_665 S
C263 H250 0.929 . S
C263 C255 1.433 . S
C263 N265 1.384 . S
N264 C260 1.427 1_655 S
N264 C261 1.384 . S
N265 C257 1.427 . S
N265 C263 1.384 . S
H266 C272 0.930 . S
H267 C276 0.930 . S
H268 C281 0.929 . S
H269 C279 0.929 . S
H270 C274 0.929 . S
H271 C280 0.929 . S
C272 H266 0.930 . S
C272 C273 1.367 . S
C272 C280 1.378 . S
C273 C272 1.367 . S
C273 C281 1.433 . S
C274 H270 0.929 . S
C274 C276 1.378 . S
C274 C278 1.350 . S
C275 C278 1.463 . S
C275 C280 1.350 . S
C275 N283 1.427 . S
C276 H267 0.930 . S
C276 C274 1.378 . S
C276 C277 1.367 . S
C277 C276 1.367 . S
C277 C279 1.433 . S
C278 C274 1.350 . S
C278 C275 1.463 . S
C278 N282 1.427 . S
C279 H269 0.929 . S
C279 C277 1.433 . S
C279 N282 1.384 . S
C280 H271 0.929 . S
C280 C272 1.378 . S
C280 C275 1.350 . S
C281 H268 0.929 . S
C281 C273 1.433 . S
C281 N283 1.384 . S
N282 C278 1.427 . S
N282 C279 1.384 . S
N283 C275 1.427 . S
N283 C281 1.384 . S
H284 C290 0.930 . S
H285 C294 0.930 . S
H286 C299 0.929 . S
H287 C297 0.929 . S
H288 C292 0.929 . S
H289 C298 0.929 . S
C290 H284 0.930 . S
C290 C291 1.367 . S
C290 C298 1.378 . S
C291 C290 1.367 . S
C291 C299 1.433 . S
C292 H288 0.929 . S
C292 C294 1.378 . S
C292 C296 1.350 . S
C293 C296 1.463 . S
C293 C298 1.350 . S
C293 N301 1.427 . S
C294 H285 0.930 . S
C294 C292 1.378 . S
C294 C295 1.367 . S
C295 C294 1.367 . S
C295 C297 1.433 . S
C296 C292 1.350 . S
C296 C293 1.463 . S
C296 N300 1.427 . S
C297 H287 0.929 . S
C297 C295 1.433 . S
C297 N300 1.384 . S
C298 H289 0.929 . S
C298 C290 1.378 . S
C298 C293 1.350 . S
C299 H286 0.929 . S
C299 C291 1.433 . S
C299 N301 1.384 . S
N300 C296 1.427 . S
N300 C297 1.384 . S
N301 C293 1.427 . S
N301 C299 1.384 . S
C97 C79 1.446 . S
C93 C16 1.330 . S
C111 C15 1.434 . S
C115 C74 1.418 . S
C129 C13 1.278 1_554 S
C133 C85 1.426 . S
C147 C14 1.423 . S
C151 C68 1.448 . S
C165 C37 1.307 . S
C169 C57 1.455 . S
C183 C36 1.433 . S
C187 C52 1.407 . S
C205 C63 1.432 . S
C201 C34 1.271 . S
C223 C46 1.456 . S
C219 C35 1.416 . S
C237 C17 1.576 . S
C241 C47 1.616 . S
C255 C18 1.388 . S
C259 C58 1.423 . S
C277 C69 1.614 . S
C273 C38 1.578 . S
C291 C39 1.396 . S
C295 C80 1.415 . S
