# Generated by pormake.
# Topology dag, (6,3)-cn, num edge types: 1
# Building blocks:
#     Node 0, Type 0, BuildingBlock: MIDCAF_clean_sbu_0, # of connection points: 6
#     Node 1, Type 0, BuildingBlock: MIDCAF_clean_sbu_0, # of connection points: 6
#     Node 2, Type 0, BuildingBlock: MIDCAF_clean_sbu_0, # of connection points: 6
#     Node 3, Type 0, BuildingBlock: MIDCAF_clean_sbu_0, # of connection points: 6
#     Node 4, Type 1, BuildingBlock: INOVEN_clean_linker_0, # of connection points: 3
#     Node 5, Type 1, BuildingBlock: INOVEN_clean_linker_0, # of connection points: 3
#     Node 6, Type 1, BuildingBlock: INOVEN_clean_linker_0, # of connection points: 3
#     Node 7, Type 1, BuildingBlock: INOVEN_clean_linker_0, # of connection points: 3
#     Node 8, Type 1, BuildingBlock: INOVEN_clean_linker_0, # of connection points: 3
#     Node 9, Type 1, BuildingBlock: INOVEN_clean_linker_0, # of connection points: 3
#     Node 10, Type 1, BuildingBlock: INOVEN_clean_linker_0, # of connection points: 3
#     Node 11, Type 1, BuildingBlock: INOVEN_clean_linker_0, # of connection points: 3
#     Edge 12, Type (0, 1), BuildingBlock: OJICUG_clean_linker_0, # of connection points: 2
#     Edge 13, Type (0, 1), BuildingBlock: OJICUG_clean_linker_0, # of connection points: 2
#     Edge 14, Type (0, 1), BuildingBlock: OJICUG_clean_linker_0, # of connection points: 2
#     Edge 15, Type (0, 1), BuildingBlock: OJICUG_clean_linker_0, # of connection points: 2
#     Edge 16, Type (0, 1), BuildingBlock: OJICUG_clean_linker_0, # of connection points: 2
#     Edge 17, Type (0, 1), BuildingBlock: OJICUG_clean_linker_0, # of connection points: 2
#     Edge 18, Type (0, 1), BuildingBlock: OJICUG_clean_linker_0, # of connection points: 2
#     Edge 19, Type (0, 1), BuildingBlock: OJICUG_clean_linker_0, # of connection points: 2
#     Edge 20, Type (0, 1), BuildingBlock: OJICUG_clean_linker_0, # of connection points: 2
#     Edge 21, Type (0, 1), BuildingBlock: OJICUG_clean_linker_0, # of connection points: 2
#     Edge 22, Type (0, 1), BuildingBlock: OJICUG_clean_linker_0, # of connection points: 2
#     Edge 23, Type (0, 1), BuildingBlock: OJICUG_clean_linker_0, # of connection points: 2
#     Edge 24, Type (0, 1), BuildingBlock: OJICUG_clean_linker_0, # of connection points: 2
#     Edge 25, Type (0, 1), BuildingBlock: OJICUG_clean_linker_0, # of connection points: 2
#     Edge 26, Type (0, 1), BuildingBlock: OJICUG_clean_linker_0, # of connection points: 2
#     Edge 27, Type (0, 1), BuildingBlock: OJICUG_clean_linker_0, # of connection points: 2
#     Edge 28, Type (0, 1), BuildingBlock: OJICUG_clean_linker_0, # of connection points: 2
#     Edge 29, Type (0, 1), BuildingBlock: OJICUG_clean_linker_0, # of connection points: 2
#     Edge 30, Type (0, 1), BuildingBlock: OJICUG_clean_linker_0, # of connection points: 2
#     Edge 31, Type (0, 1), BuildingBlock: OJICUG_clean_linker_0, # of connection points: 2
#     Edge 32, Type (0, 1), BuildingBlock: OJICUG_clean_linker_0, # of connection points: 2
#     Edge 33, Type (0, 1), BuildingBlock: OJICUG_clean_linker_0, # of connection points: 2
#     Edge 34, Type (0, 1), BuildingBlock: OJICUG_clean_linker_0, # of connection points: 2
#     Edge 35, Type (0, 1), BuildingBlock: OJICUG_clean_linker_0, # of connection points: 2
# Relax obj value: 0.134
# Max RMSD: 0.145
# Mean RMSD: 0.118
data_MOF--net-dag--node1-MIDCAF_clean_sbu_0--node2-INOVEN_clean_linker_0--edge1-OJICUG_clean_linker_0
_symmetry_space_group_name_H-M    P1
_symmetry_Int_Tables_number       1
_symmetry_cell_setting            triclinic
loop_
_symmetry_equiv_pos_as_xyz
'x, y, z'
_cell_length_a     28.677677
_cell_length_b     30.282047
_cell_length_c     22.873139
_cell_angle_alpha  92.760668
_cell_angle_beta   90.217891
_cell_angle_gamma 91.42013
loop_
_atom_site_label
_atom_site_type_symbol
_atom_site_fract_x
_atom_site_fract_y
_atom_site_fract_z
_atom_type_partial_charge
Zn0 Zn 0.12328 0.84611 0.1841 0.0
Zn1 Zn 0.16218 0.80016 0.91133 0.0
Zn2 Zn 0.13618 0.82686 0.08771 0.0
C3 C 0.17057 0.89254 0.97326 0.0
C4 C 0.07416 0.79415 0.99591 0.0
O5 O 0.17809 0.78199 0.14109 0.0
O6 O 0.13449 0.78958 0.21984 0.0
C7 C 0.17864 0.9128 0.14316 0.0
O8 O 0.15852 0.88 0.02506 0.0
O9 O 0.17433 0.86607 0.928 0.0
O10 O 0.11606 0.79537 0.97856 0.0
O11 O 0.06911 0.80296 0.05053 0.0
O12 O 0.17348 0.8921 0.18938 0.0
O13 O 0.1619 0.89557 0.09477 0.0
O14 O 0.0604 0.81964 0.1067 0.0
O15 O 0.0581 0.86558 0.18437 0.0
C16 C 0.03696 0.84175 0.14558 0.0
O17 O 0.18957 0.77716 0.0828 0.0
O18 O 0.16366 0.78405 0.99566 0.0
C19 C 0.16628 0.76971 0.19225 0.0
C20 C 0.19483 0.76956 0.02818 0.0
Zn21 Zn 0.58941 0.61947 0.43215 0.0
Zn22 Zn 0.65545 0.64767 0.68352 0.0
Zn23 Zn 0.62197 0.64857 0.51696 0.0
C24 C 0.62718 0.56457 0.61159 0.0
C25 C 0.58701 0.70235 0.60749 0.0
O26 O 0.66632 0.67862 0.451 0.0
O27 O 0.6061 0.67725 0.391 0.0
C28 C 0.67844 0.5909 0.44289 0.0
O29 O 0.62244 0.58678 0.56518 0.0
O30 O 0.63867 0.58286 0.66159 0.0
O31 O 0.62204 0.68053 0.62152 0.0
O32 O 0.57778 0.70011 0.55291 0.0
O33 O 0.63797 0.57379 0.43655 0.0
O34 O 0.68273 0.63142 0.46189 0.0
O35 O 0.55003 0.67255 0.50769 0.0
O36 O 0.52739 0.60874 0.46652 0.0
C37 C 0.51738 0.64406 0.49453 0.0
O38 O 0.69077 0.68063 0.51201 0.0
O39 O 0.67259 0.66523 0.60031 0.0
C40 C 0.64597 0.69336 0.40559 0.0
C41 C 0.70266 0.6808 0.56587 0.0
Zn42 Zn 0.86264 0.15431 0.80313 0.0
Zn43 Zn 0.83377 0.15522 0.09439 0.0
Zn44 Zn 0.84517 0.15694 0.9862 0.0
C45 C 0.92879 0.16414 0.08357 0.0
C46 C 0.79688 0.07466 0.0399 0.0
O47 O 0.79886 0.20571 0.95072 0.0
O48 O 0.84106 0.18156 0.87954 0.0
C49 C 0.92597 0.17499 0.91746 0.0
O50 O 0.91456 0.16712 0.03038 0.0
O51 O 0.89962 0.15722 0.12352 0.0
O52 O 0.7984 0.09804 0.08719 0.0
O53 O 0.81631 0.08925 0.99369 0.0
O54 O 0.89048 0.16985 0.88444 0.0
O55 O 0.91776 0.17482 0.97214 0.0
O56 O 0.83771 0.09585 0.92418 0.0
O57 O 0.84374 0.09219 0.8242 0.0
C58 C 0.83662 0.07441 0.87328 0.0
O59 O 0.79556 0.21086 0.01003 0.0
O60 O 0.797 0.20879 0.10664 0.0
C61 C 0.80547 0.20236 0.89574 0.0
C62 C 0.78331 0.22638 0.061 0.0
Zn63 Zn 0.42549 0.34575 0.62981 0.0
Zn64 Zn 0.30889 0.38658 0.40863 0.0
Zn65 Zn 0.36907 0.35319 0.55577 0.0
C66 C 0.41292 0.38958 0.42613 0.0
C67 C 0.29549 0.40955 0.54475 0.0
O68 O 0.34985 0.28795 0.58944 0.0
O69 O 0.38097 0.30572 0.67582 0.0
C70 C 0.43781 0.28944 0.53656 0.0
O71 O 0.40692 0.37582 0.47819 0.0
O72 O 0.37859 0.3962 0.39162 0.0
O73 O 0.30741 0.38852 0.49818 0.0
O74 O 0.31738 0.39916 0.59051 0.0
O75 O 0.45882 0.32353 0.55831 0.0
O76 O 0.39399 0.28505 0.54614 0.0
O77 O 0.36167 0.4059 0.62646 0.0
O78 O 0.43497 0.40765 0.6552 0.0
C79 C 0.39601 0.4259 0.65368 0.0
O80 O 0.3326 0.29061 0.52954 0.0
O81 O 0.31629 0.34273 0.47294 0.0
C82 C 0.35244 0.28188 0.64494 0.0
C83 C 0.31217 0.30208 0.48308 0.0
H84 H 0.13 0.21406 0.20446 0.0
H85 H 0.12437 0.08834 0.10763 0.0
H86 H 0.23444 0.1178 0.23171 0.0
N87 N 0.20389 0.19838 0.2676 0.0
N88 N 0.23207 0.18536 0.3044 0.0
C89 C 0.14498 0.18241 0.19251 0.0
C90 C 0.12224 0.15315 0.15134 0.0
C91 C 0.18531 0.16996 0.22167 0.0
C92 C 0.20432 0.12848 0.20789 0.0
C93 C 0.18307 0.0996 0.16551 0.0
C94 C 0.14255 0.11229 0.13685 0.0
H95 H 0.34298 0.59873 0.81052 0.0
H96 H 0.4411 0.62965 0.67551 0.0
H97 H 0.41219 0.72658 0.81229 0.0
N98 N 0.34367 0.67714 0.86293 0.0
N99 N 0.344 0.71548 0.88529 0.0
C100 C 0.36662 0.62168 0.79001 0.0
C101 C 0.39199 0.60814 0.74025 0.0
C102 C 0.3724 0.66464 0.81502 0.0
C103 C 0.40555 0.69407 0.79166 0.0
C104 C 0.43041 0.68091 0.7415 0.0
C105 C 0.42191 0.63898 0.71477 0.0
H106 H 0.70738 0.88409 0.13647 0.0
H107 H 0.845 0.90392 0.06579 0.0
H108 H 0.82152 0.80479 0.1896 0.0
N109 N 0.73032 0.81942 0.20607 0.0
N110 N 0.74732 0.79936 0.24725 0.0
C111 C 0.74333 0.87434 0.1319 0.0
C112 C 0.77377 0.89739 0.09504 0.0
C113 C 0.76018 0.84039 0.16569 0.0
C114 C 0.80762 0.82959 0.16218 0.0
C115 C 0.83801 0.85278 0.12653 0.0
C116 C 0.82062 0.88529 0.09178 0.0
H117 H 0.67331 0.37843 0.68054 0.0
H118 H 0.57358 0.35785 0.54097 0.0
H119 H 0.62612 0.24657 0.62947 0.0
N120 N 0.6804 0.29628 0.70651 0.0
N121 N 0.68633 0.25638 0.71434 0.0
C122 C 0.65262 0.35628 0.65154 0.0
C123 C 0.62435 0.37351 0.60847 0.0
C124 C 0.65368 0.31091 0.65917 0.0
C125 C 0.6264 0.28172 0.62259 0.0
C126 C 0.59752 0.29815 0.57911 0.0
C127 C 0.59744 0.34429 0.57181 0.0
H128 H 0.58798 0.36001 0.26241 0.0
H129 H 0.62289 0.45747 0.39928 0.0
H130 H 0.72152 0.42818 0.26224 0.0
N131 N 0.66765 0.36284 0.20767 0.0
N132 N 0.70339 0.36881 0.1779 0.0
C133 C 0.61235 0.3842 0.28248 0.0
C134 C 0.60005 0.4081 0.33389 0.0
C135 C 0.656 0.39077 0.2567 0.0
C136 C 0.68789 0.4223 0.28222 0.0
C137 C 0.67646 0.44573 0.33448 0.0
C138 C 0.63265 0.43812 0.36028 0.0
H139 H 0.23701 0.08092 0.86968 0.0
H140 H 0.0911 0.07274 0.91579 0.0
H141 H 0.14263 0.17993 0.81728 0.0
N142 N 0.23079 0.15195 0.80753 0.0
N143 N 0.22256 0.17223 0.76253 0.0
C144 C 0.20206 0.09364 0.86927 0.0
C145 C 0.16515 0.07128 0.89717 0.0
C146 C 0.19388 0.13189 0.83879 0.0
C147 C 0.14909 0.14973 0.83923 0.0
C148 C 0.11263 0.1287 0.86819 0.0
C149 C 0.12048 0.08938 0.89596 0.0
H150 H 0.20075 0.59307 0.46034 0.0
H151 H 0.31248 0.5912 0.5853 0.0
H152 H 0.31758 0.68233 0.44651 0.0
N153 N 0.23451 0.65718 0.39984 0.0
N154 N 0.25767 0.67645 0.36221 0.0
C155 C 0.23271 0.60753 0.47916 0.0
C156 C 0.25473 0.58719 0.52517 0.0
C157 C 0.255 0.64224 0.45147 0.0
C158 C 0.29907 0.65797 0.47129 0.0
C159 C 0.32064 0.63951 0.51952 0.0
C160 C 0.2961 0.60642 0.54888 0.0
H161 H 0.83039 0.88431 0.75145 0.0
H162 H 0.91808 0.88274 0.90495 0.0
H163 H 0.91255 0.77097 0.78254 0.0
N164 N 0.84374 0.803 0.71448 0.0
N165 N 0.84554 0.76225 0.70432 0.0
C166 C 0.85478 0.86807 0.77901 0.0
C167 C 0.87276 0.88981 0.83033 0.0
C168 C 0.86761 0.82491 0.7625 0.0
C169 C 0.90128 0.80385 0.79569 0.0
C170 C 0.91988 0.8253 0.84662 0.0
C171 C 0.90436 0.86731 0.86454 0.0
C172 C 0.20668 0.98478 0.10261 0.0
C173 C 0.19349 0.95992 0.15019 0.0
H174 H 0.21242 0.04992 0.0691 0.0
C175 C 0.18809 0.98191 0.20534 0.0
H176 H 0.21548 0.9684 0.06144 0.0
C177 C 0.18939 0.02781 0.21088 0.0
C178 C 0.19568 0.0527 0.16141 0.0
H179 H 0.17911 0.96393 0.24369 0.0
H180 H 0.18132 0.04377 0.25294 0.0
C181 C 0.20633 0.03111 0.10755 0.0
C182 C 0.50715 0.72892 0.63032 0.0
C183 C 0.55025 0.71415 0.65021 0.0
H184 H 0.43345 0.73017 0.64536 0.0
C185 C 0.55432 0.70238 0.70863 0.0
H186 H 0.50334 0.73954 0.58609 0.0
C187 C 0.51453 0.69874 0.74331 0.0
C188 C 0.4704 0.70656 0.71979 0.0
H189 H 0.58722 0.69159 0.72561 0.0
H190 H 0.51759 0.6844 0.78562 0.0
C191 C 0.46724 0.72442 0.66455 0.0
C192 C 0.7891 -0.00487 1.00307 0.0
C193 C 0.77656 0.02913 0.04294 0.0
H194 H 0.795 0.92547 0.98598 0.0
C195 C 0.75031 0.0179 0.09239 0.0
H196 H 0.80942 0.00234 0.96566 0.0
C197 C 0.74307 0.97364 0.10566 0.0
C198 C 0.76152 0.93979 0.06936 0.0
H199 H 0.73899 0.04329 0.12379 0.0
H200 H 0.72782 0.96641 0.14749 0.0
C201 C 0.78092 0.95088 0.01538 0.0
C202 C 0.48639 0.23154 0.56448 0.0
C203 C 0.46825 0.25348 0.51705 0.0
H204 H 0.54271 0.23306 0.62619 0.0
C205 C 0.50036 0.26678 0.4746 0.0
H206 H 0.46276 0.2172 0.59564 0.0
C207 C 0.5464 0.27727 0.492 0.0
C208 C 0.5609 0.26928 0.54932 0.0
H209 H 0.48775 0.28029 0.43463 0.0
H210 H 0.56832 0.29653 0.46375 0.0
C211 C 0.53236 0.24155 0.58266 0.0
C212 C 0.71922 0.56166 0.3583 0.0
C213 C 0.71662 0.56424 0.41969 0.0
H214 H 0.70633 0.51975 0.28141 0.0
C215 C 0.72335 0.52545 0.44958 0.0
H216 H 0.71544 0.59127 0.33408 0.0
C217 C 0.71663 0.48434 0.41984 0.0
C218 C 0.70668 0.48223 0.35958 0.0
H219 H 0.72292 0.52662 0.49702 0.0
H220 H 0.71276 0.45506 0.445 0.0
C221 C 0.71311 0.52057 0.32809 0.0
C222 C 0.01087 0.19295 0.92518 0.0
C223 C 0.97373 0.17059 0.89547 0.0
H224 H 0.08495 0.19713 0.93885 0.0
C225 C 0.98312 0.1391 0.85029 0.0
H226 H 0.00422 0.21731 0.96022 0.0
C227 C 0.02906 0.1273 0.83861 0.0
C228 C 0.06596 0.1476 0.87108 0.0
H229 H 0.95491 0.12126 0.82714 0.0
H230 H 0.03565 0.10074 0.80649 0.0
C231 C 0.05682 0.18155 0.91296 0.0
C232 C 0.25632 0.46632 0.48828 0.0
C233 C 0.26875 0.45051 0.54267 0.0
H234 H 0.24049 0.52252 0.44039 0.0
C235 C 0.26168 0.47738 0.59338 0.0
H236 H 0.25971 0.44595 0.44839 0.0
C237 C 0.25092 0.52193 0.58902 0.0
C238 C 0.24559 0.5395 0.53368 0.0
H239 H 0.26764 0.46481 0.63596 0.0
H240 H 0.25083 0.54336 0.62834 0.0
C241 C 0.24463 0.51037 0.48383 0.0
C242 C 0.04059 0.79622 0.89442 0.0
C243 C 0.03398 0.79258 0.95493 0.0
H244 H 0.00863 0.80865 0.81187 0.0
C245 C 0.98835 0.79192 0.97683 0.0
H246 H 0.07534 0.79657 0.87606 0.0
C247 C 0.95043 0.79903 0.94038 0.0
C248 C 0.95738 0.80601 0.88087 0.0
H249 H 0.98215 0.78799 0.02269 0.0
H250 H 0.91593 0.80148 0.95928 0.0
C251 C 0.00247 0.80282 0.8576 0.0
C252 C 0.8838 0.0094 0.88816 0.0
C253 C 0.84134 0.02646 0.87064 0.0
H254 H 0.92793 0.95413 0.88698 0.0
C255 C 0.80796 -0.00157 0.8422 0.0
H256 H 0.91053 0.03096 0.9086 0.0
C257 C 0.81705 0.95355 0.83158 0.0
C258 C 0.86054 0.93645 0.84688 0.0
H259 H 0.77526 0.01138 0.82758 0.0
H260 H 0.79026 0.93261 0.81039 0.0
C261 C 0.89353 0.9651 0.87589 0.0
C262 C 0.50018 0.39291 0.44045 0.0
C263 C 0.46105 0.39538 0.40351 0.0
H264 H 0.57489 0.39468 0.44704 0.0
C265 C 0.4683 0.4021 0.34373 0.0
H266 H 0.49599 0.3877 0.48665 0.0
C267 C 0.51337 0.40584 0.32134 0.0
C268 C 0.55236 0.40337 0.35816 0.0
H269 H 0.43913 0.40405 0.31383 0.0
H270 H 0.51773 0.41115 0.27515 0.0
C271 C 0.54537 0.39708 0.41797 0.0
C272 C 0.14416 0.97054 0.98809 0.0
C273 C 0.17462 0.94008 0.96171 0.0
H274 H 0.11986 0.03668 0.99201 0.0
C275 C 0.20471 0.95415 0.9176 0.0
H276 H 0.12021 0.9605 0.02176 0.0
C277 C 0.20315 -0.0028 0.89851 0.0
C278 C 0.17174 0.02758 0.92352 0.0
H279 H 0.22821 0.9312 0.89598 0.0
H280 H 0.22494 0.00568 0.862 0.0
C281 C 0.14352 0.01406 0.97019 0.0
C282 C 0.44398 0.68683 0.50719 0.0
C283 C 0.4695 0.6488 0.51572 0.0
H284 H 0.37612 0.71477 0.50478 0.0
C285 C 0.44695 0.61137 0.53687 0.0
H286 H 0.46095 0.71615 0.49104 0.0
C287 C 0.39889 0.60992 0.54327 0.0
C288 C 0.37194 0.64626 0.52919 0.0
H289 H 0.46621 0.58179 0.54449 0.0
H290 H 0.38319 0.57855 0.5541 0.0
C291 C 0.39542 0.68571 0.51444 0.0
C292 C 0.43357 0.499 0.67557 0.0
C293 C 0.39325 0.47193 0.6768 0.0
H294 H 0.46526 0.56177 0.69628 0.0
C295 C 0.35214 0.48935 0.70016 0.0
H296 H 0.46607 0.48639 0.65837 0.0
C297 C 0.35092 0.53389 0.71983 0.0
C298 C 0.39136 0.56117 0.71792 0.0
H299 H 0.32156 0.46831 0.7047 0.0
H300 H 0.31846 0.54676 0.73658 0.0
C301 C 0.43281 0.54274 0.69639 0.0
C302 C 0.96483 0.8843 0.14798 0.0
C303 C 0.9861 0.84326 0.14184 0.0
H304 H 0.90117 0.91918 0.1479 0.0
C305 C 0.95854 0.80459 0.13267 0.0
H306 H 0.98553 0.91447 0.15568 0.0
C307 C 0.91003 0.80721 0.1279 0.0
C308 C 0.88894 0.84858 0.1322 0.0
H309 H 0.97455 0.77255 0.1289 0.0
H310 H 0.88915 0.7772 0.12005 0.0
C311 C 0.91673 0.88697 0.14302 0.0
C312 C 0.62578 0.49075 0.55493 0.0
C313 C 0.62082 0.5157 0.60801 0.0
H314 H 0.63203 0.42587 0.51355 0.0
C315 C 0.61302 0.49326 0.65959 0.0
H316 H 0.63177 0.507 0.51443 0.0
C317 C 0.61248 0.44722 0.65884 0.0
C318 C 0.62002 0.42223 0.60659 0.0
H319 H 0.60824 0.51131 0.7011 0.0
H320 H 0.6071 0.43108 0.69962 0.0
C321 C 0.62565 0.44433 0.5543 0.0
C322 C 0.01207 0.14966 0.05795 0.0
C323 C 0.97912 0.1663 0.09798 0.0
H324 H 0.08349 0.13376 0.04241 0.0
C325 C 0.99418 0.18167 0.15391 0.0
H326 H 0.00112 0.13609 0.01534 0.0
C327 C 0.04108 0.17951 0.17004 0.0
C328 C 0.07408 0.16175 0.13063 0.0
H329 H 0.96945 0.19434 0.18583 0.0
H330 H 0.05091 0.18977 0.21448 0.0
C331 C 0.05912 0.14766 0.0739 0.0
C332 C 0.16561 0.70799 0.25838 0.0
C333 C 0.19132 0.73604 0.22282 0.0
H334 H 0.1665 0.66637 0.3309 0.0
C335 C 0.24007 0.73866 0.22816 0.0
H336 H 0.12791 0.70558 0.2549 0.0
C337 C 0.26225 0.71675 0.27268 0.0
C338 C 0.23593 0.69196 0.3116 0.0
H339 H 0.26042 0.76057 0.20155 0.0
H340 H 0.29953 0.72132 0.27908 0.0
C341 C 0.18768 0.68593 0.30223 0.0
C342 C 0.76099 0.74277 0.58031 0.0
C343 C 0.74734 0.69882 0.58921 0.0
H344 H 0.80348 0.79849 0.61119 0.0
C345 C 0.77152 0.67492 0.63021 0.0
H346 H 0.74233 0.76188 0.54937 0.0
C347 C 0.80699 0.69539 0.66447 0.0
C348 C 0.81765 0.7404 0.6598 0.0
H349 H 0.76121 0.64103 0.63798 0.0
H350 H 0.82354 0.67705 0.69799 0.0
C351 C 0.79563 0.76369 0.61593 0.0
C352 C 0.77892 0.30751 0.07311 0.0
C353 C 0.75566 0.26616 0.06898 0.0
H354 H 0.77944 0.37345 0.11232 0.0
C355 C 0.71064 0.26184 0.09188 0.0
H356 H 0.8142 0.31114 0.0569 0.0
C357 C 0.69092 0.2972 0.12349 0.0
C358 C 0.71646 0.33723 0.13337 0.0
H359 H 0.69259 0.22992 0.09014 0.0
H360 H 0.65753 0.29186 0.14428 0.0
C361 C 0.75934 0.3429 0.1052 0.0
C362 C 0.28008 0.23414 0.64539 0.0
C363 C 0.32215 0.24862 0.67247 0.0
H364 H 0.21497 0.19864 0.65451 0.0
C365 C 0.33263 0.23441 0.7286 0.0
H366 H 0.27082 0.24475 0.60239 0.0
C367 C 0.30095 0.20745 0.75782 0.0
C368 C 0.2579 0.19491 0.73166 0.0
H369 H 0.36481 0.24503 0.75055 0.0
H370 H 0.30927 0.19802 0.80164 0.0
C371 C 0.24807 0.20795 0.67511 0.0
C372 C 0.71858 0.7335 0.37532 0.0
C373 C 0.67086 0.72365 0.36675 0.0
H374 H 0.77999 0.76557 0.34254 0.0
C375 C 0.64773 0.7414 0.3191 0.0
H376 H 0.73746 0.72039 0.41147 0.0
C377 C 0.67214 0.76759 0.28007 0.0
C378 C 0.72016 0.77614 0.288 0.0
H379 H 0.61092 0.73451 0.31143 0.0
H380 H 0.65379 0.78012 0.24313 0.0
C381 C 0.74293 0.75928 0.33604 0.0
C382 C 0.76081 0.18729 0.80365 0.0
C383 C 0.77116 0.21577 0.85254 0.0
H384 H 0.72436 0.17832 0.72168 0.0
C385 C 0.75068 0.25732 0.85737 0.0
H386 H 0.77562 0.15475 0.79951 0.0
C387 C 0.72215 0.27106 0.81215 0.0
C388 C 0.71296 0.2428 0.76238 0.0
H389 H 0.75816 0.27968 0.89483 0.0
H390 H 0.70768 0.30375 0.81582 0.0
C391 C 0.73147 0.20053 0.75937 0.0
C392 C 0.29814 0.22536 0.43824 0.0
C393 C 0.28929 0.2708 0.43994 0.0
H394 H 0.28663 0.16244 0.39189 0.0
C395 C 0.25983 0.28736 0.39736 0.0
H396 H 0.3208 0.2118 0.47048 0.0
C397 C 0.24043 0.25943 0.35311 0.0
C398 C 0.25026 0.21417 0.35026 0.0
H399 H 0.25195 0.32217 0.39789 0.0
H400 H 0.21828 0.27344 0.32072 0.0
C401 C 0.27889 0.1973 0.39337 0.0
C402 C 0.26952 0.78639 0.97992 0.0
C403 C 0.23888 0.755 1.00304 0.0
H404 H 0.32839 0.79738 0.92432 0.0
C405 C 0.24653 0.70988 0.99254 0.0
H406 H 0.2635 0.82143 0.98704 0.0
C407 C 0.28305 0.69623 0.95625 0.0
C408 C 0.31225 0.72778 0.9302 0.0
H409 H 0.22269 0.68534 0.00949 0.0
H410 H 0.28701 0.66119 0.9464 0.0
C411 C 0.30633 0.77277 0.94416 0.0
loop_
_geom_bond_atom_site_label_1
_geom_bond_atom_site_label_2
_geom_bond_distance
_geom_bond_site_symmetry_2
_ccdc_geom_bond_type
Zn0 O6 1.920 . S
Zn0 O12 1.898 . S
Zn0 O15 1.905 . S
Zn1 O9 1.905 . S
Zn1 O10 1.898 . S
Zn1 O18 1.920 . S
Zn2 O5 2.080 . S
Zn2 O8 2.114 1_554 S
Zn2 O11 2.120 1_554 S
Zn2 O13 2.120 . S
Zn2 O14 2.114 . S
Zn2 O17 2.080 . S
C3 O8 1.166 . S
C3 O9 1.182 . S
C4 O10 1.167 . S
C4 O11 1.299 . S
O5 Zn2 2.080 . S
O5 C19 1.305 . S
O6 Zn0 1.920 . S
O6 C19 1.234 . S
C7 O12 1.167 . S
C7 O13 1.299 . S
O8 Zn2 2.114 1_556 S
O8 C3 1.166 . S
O9 Zn1 1.905 . S
O9 C3 1.182 . S
O10 Zn1 1.898 . S
O10 C4 1.167 . S
O11 Zn2 2.120 1_556 S
O11 C4 1.299 . S
O12 Zn0 1.898 . S
O12 C7 1.167 . S
O13 Zn2 2.120 . S
O13 C7 1.299 . S
O14 Zn2 2.114 . S
O14 C16 1.166 . S
O15 Zn0 1.905 . S
O15 C16 1.182 . S
C16 O14 1.166 . S
C16 O15 1.182 . S
O17 Zn2 2.080 . S
O17 C20 1.305 1_554 S
O18 Zn1 1.920 . S
O18 C20 1.234 . S
C19 O5 1.305 . S
C19 O6 1.234 . S
C20 O17 1.305 1_556 S
C20 O18 1.234 . S
Zn21 O27 1.920 . S
Zn21 O33 1.898 . S
Zn21 O36 1.905 . S
Zn22 O30 1.905 . S
Zn22 O31 1.898 . S
Zn22 O39 1.920 . S
Zn23 O26 2.080 . S
Zn23 O29 2.114 . S
Zn23 O32 2.120 . S
Zn23 O34 2.120 . S
Zn23 O35 2.114 . S
Zn23 O38 2.080 . S
C24 O29 1.166 . S
C24 O30 1.182 . S
C25 O31 1.167 . S
C25 O32 1.299 . S
O26 Zn23 2.080 . S
O26 C40 1.305 . S
O27 Zn21 1.920 . S
O27 C40 1.234 . S
C28 O33 1.167 . S
C28 O34 1.299 . S
O29 Zn23 2.114 . S
O29 C24 1.166 . S
O30 Zn22 1.905 . S
O30 C24 1.182 . S
O31 Zn22 1.898 . S
O31 C25 1.167 . S
O32 Zn23 2.120 . S
O32 C25 1.299 . S
O33 Zn21 1.898 . S
O33 C28 1.167 . S
O34 Zn23 2.120 . S
O34 C28 1.299 . S
O35 Zn23 2.114 . S
O35 C37 1.166 . S
O36 Zn21 1.905 . S
O36 C37 1.182 . S
C37 O35 1.166 . S
C37 O36 1.182 . S
O38 Zn23 2.080 . S
O38 C41 1.305 . S
O39 Zn22 1.920 . S
O39 C41 1.234 . S
C40 O26 1.305 . S
C40 O27 1.234 . S
C41 O38 1.305 . S
C41 O39 1.234 . S
Zn42 O48 1.920 . S
Zn42 O54 1.898 . S
Zn42 O57 1.905 . S
Zn43 O51 1.905 . S
Zn43 O52 1.898 . S
Zn43 O60 1.920 . S
Zn44 O47 2.080 1_554 S
Zn44 O50 2.114 . S
Zn44 O53 2.120 . S
Zn44 O55 2.120 1_554 S
Zn44 O56 2.113 1_554 S
Zn44 O59 2.081 . S
C45 O50 1.166 . S
C45 O51 1.182 . S
C46 O52 1.167 . S
C46 O53 1.299 . S
O47 Zn44 2.080 1_556 S
O47 C61 1.305 . S
O48 Zn42 1.920 . S
O48 C61 1.234 . S
C49 O54 1.167 . S
C49 O55 1.299 . S
O50 Zn44 2.114 . S
O50 C45 1.166 . S
O51 Zn43 1.905 . S
O51 C45 1.182 . S
O52 Zn43 1.898 . S
O52 C46 1.167 . S
O53 Zn44 2.120 . S
O53 C46 1.299 . S
O54 Zn42 1.898 . S
O54 C49 1.167 . S
O55 Zn44 2.120 1_556 S
O55 C49 1.299 . S
O56 Zn44 2.113 1_556 S
O56 C58 1.166 . S
O57 Zn42 1.905 . S
O57 C58 1.182 . S
C58 O56 1.166 . S
C58 O57 1.182 . S
O59 Zn44 2.081 . S
O59 C62 1.305 . S
O60 Zn43 1.920 . S
O60 C62 1.234 . S
C61 O47 1.305 . S
C61 O48 1.234 . S
C62 O59 1.305 . S
C62 O60 1.234 . S
Zn63 O69 1.920 . S
Zn63 O75 1.898 . S
Zn63 O78 1.905 . S
Zn64 O72 1.905 . S
Zn64 O73 1.898 . S
Zn64 O81 1.920 . S
Zn65 O68 2.080 . S
Zn65 O71 2.114 . S
Zn65 O74 2.120 . S
Zn65 O76 2.120 . S
Zn65 O77 2.114 . S
Zn65 O80 2.080 . S
C66 O71 1.166 . S
C66 O72 1.182 . S
C67 O73 1.167 . S
C67 O74 1.299 . S
O68 Zn65 2.080 . S
O68 C82 1.305 . S
O69 Zn63 1.920 . S
O69 C82 1.234 . S
C70 O75 1.167 . S
C70 O76 1.299 . S
O71 Zn65 2.114 . S
O71 C66 1.166 . S
O72 Zn64 1.905 . S
O72 C66 1.182 . S
O73 Zn64 1.898 . S
O73 C67 1.167 . S
O74 Zn65 2.120 . S
O74 C67 1.299 . S
O75 Zn63 1.898 . S
O75 C70 1.167 . S
O76 Zn65 2.120 . S
O76 C70 1.299 . S
O77 Zn65 2.114 . S
O77 C79 1.166 . S
O78 Zn63 1.905 . S
O78 C79 1.182 . S
C79 O77 1.166 . S
C79 O78 1.182 . S
O80 Zn65 2.080 . S
O80 C83 1.305 . S
O81 Zn64 1.920 . S
O81 C83 1.234 . S
C82 O68 1.305 . S
C82 O69 1.234 . S
C83 O80 1.305 . S
C83 O81 1.234 . S
H84 C89 0.929 . S
H85 C94 0.931 . S
H86 C92 0.930 . S
N87 N88 1.234 . S
N87 C91 1.453 . S
N88 N87 1.234 . S
C89 H84 0.929 . S
C89 C90 1.373 . S
C89 C91 1.368 . S
C90 C89 1.373 . S
C90 C94 1.397 . S
C91 N87 1.453 . S
C91 C89 1.368 . S
C91 C92 1.373 . S
C92 H86 0.930 . S
C92 C91 1.373 . S
C92 C93 1.371 . S
C93 C92 1.371 . S
C93 C94 1.383 . S
C94 H85 0.931 . S
C94 C90 1.397 . S
C94 C93 1.383 . S
H95 C100 0.929 . S
H96 C105 0.931 . S
H97 C103 0.930 . S
N98 N99 1.234 . S
N98 C102 1.453 . S
N99 N98 1.234 . S
C100 H95 0.929 . S
C100 C101 1.373 . S
C100 C102 1.368 . S
C101 C100 1.373 . S
C101 C105 1.397 . S
C102 N98 1.453 . S
C102 C100 1.368 . S
C102 C103 1.373 . S
C103 H97 0.930 . S
C103 C102 1.373 . S
C103 C104 1.371 . S
C104 C103 1.371 . S
C104 C105 1.383 . S
C105 H96 0.931 . S
C105 C101 1.397 . S
C105 C104 1.383 . S
H106 C111 0.929 . S
H107 C116 0.931 . S
H108 C114 0.930 . S
N109 N110 1.234 . S
N109 C113 1.453 . S
N110 N109 1.234 . S
C111 H106 0.929 . S
C111 C112 1.373 . S
C111 C113 1.368 . S
C112 C111 1.373 . S
C112 C116 1.397 . S
C113 N109 1.453 . S
C113 C111 1.368 . S
C113 C114 1.373 . S
C114 H108 0.930 . S
C114 C113 1.373 . S
C114 C115 1.371 . S
C115 C114 1.371 . S
C115 C116 1.383 . S
C116 H107 0.931 . S
C116 C112 1.397 . S
C116 C115 1.383 . S
H117 C122 0.929 . S
H118 C127 0.931 . S
H119 C125 0.930 . S
N120 N121 1.234 . S
N120 C124 1.453 . S
N121 N120 1.234 . S
C122 H117 0.929 . S
C122 C123 1.373 . S
C122 C124 1.368 . S
C123 C122 1.373 . S
C123 C127 1.397 . S
C124 N120 1.453 . S
C124 C122 1.368 . S
C124 C125 1.373 . S
C125 H119 0.930 . S
C125 C124 1.373 . S
C125 C126 1.371 . S
C126 C125 1.371 . S
C126 C127 1.383 . S
C127 H118 0.931 . S
C127 C123 1.397 . S
C127 C126 1.383 . S
H128 C133 0.929 . S
H129 C138 0.931 . S
H130 C136 0.930 . S
N131 N132 1.234 . S
N131 C135 1.453 . S
N132 N131 1.234 . S
C133 H128 0.929 . S
C133 C134 1.373 . S
C133 C135 1.368 . S
C134 C133 1.373 . S
C134 C138 1.397 . S
C135 N131 1.453 . S
C135 C133 1.368 . S
C135 C136 1.373 . S
C136 H130 0.930 . S
C136 C135 1.373 . S
C136 C137 1.371 . S
C137 C136 1.371 . S
C137 C138 1.383 . S
C138 H129 0.931 . S
C138 C134 1.397 . S
C138 C137 1.383 . S
H139 C144 0.929 . S
H140 C149 0.931 . S
H141 C147 0.930 . S
N142 N143 1.234 . S
N142 C146 1.453 . S
N143 N142 1.234 . S
C144 H139 0.929 . S
C144 C145 1.373 . S
C144 C146 1.368 . S
C145 C144 1.373 . S
C145 C149 1.397 . S
C146 N142 1.453 . S
C146 C144 1.368 . S
C146 C147 1.373 . S
C147 H141 0.930 . S
C147 C146 1.373 . S
C147 C148 1.371 . S
C148 C147 1.371 . S
C148 C149 1.383 . S
C149 H140 0.931 . S
C149 C145 1.397 . S
C149 C148 1.383 . S
H150 C155 0.929 . S
H151 C160 0.931 . S
H152 C158 0.930 . S
N153 N154 1.234 . S
N153 C157 1.453 . S
N154 N153 1.234 . S
C155 H150 0.929 . S
C155 C156 1.373 . S
C155 C157 1.368 . S
C156 C155 1.373 . S
C156 C160 1.397 . S
C157 N153 1.453 . S
C157 C155 1.368 . S
C157 C158 1.373 . S
C158 H152 0.930 . S
C158 C157 1.373 . S
C158 C159 1.371 . S
C159 C158 1.371 . S
C159 C160 1.383 . S
C160 H151 0.931 . S
C160 C156 1.397 . S
C160 C159 1.383 . S
H161 C166 0.929 . S
H162 C171 0.931 . S
H163 C169 0.930 . S
N164 N165 1.234 . S
N164 C168 1.453 . S
N165 N164 1.234 . S
C166 H161 0.929 . S
C166 C167 1.373 . S
C166 C168 1.368 . S
C167 C166 1.373 . S
C167 C171 1.397 . S
C168 N164 1.453 . S
C168 C166 1.368 . S
C168 C169 1.373 . S
C169 H163 0.930 . S
C169 C168 1.373 . S
C169 C170 1.371 . S
C170 C169 1.371 . S
C170 C171 1.383 . S
C171 H162 0.931 . S
C171 C167 1.397 . S
C171 C170 1.383 . S
C172 C173 1.387 . S
C172 H176 0.950 . S
C172 C181 1.390 1_565 S
C173 C172 1.387 . S
C173 C175 1.387 . S
H174 C181 0.950 . S
C175 C173 1.387 . S
C175 C177 1.390 . S
C175 H179 0.950 . S
H176 C172 0.950 . S
C177 C175 1.390 . S
C177 C178 1.387 1_565 S
C177 H180 0.950 . S
C178 C177 1.387 1_545 S
C178 C181 1.387 . S
H179 C175 0.950 . S
H180 C177 0.950 . S
C181 C172 1.390 1_545 S
C181 H174 0.950 . S
C181 C178 1.387 . S
C182 C183 1.387 . S
C182 H186 0.950 . S
C182 C191 1.390 . S
C183 C182 1.387 . S
C183 C185 1.387 . S
H184 C191 0.950 . S
C185 C183 1.387 . S
C185 C187 1.390 . S
C185 H189 0.950 . S
H186 C182 0.950 . S
C187 C185 1.390 . S
C187 C188 1.387 . S
C187 H190 0.950 . S
C188 C187 1.387 . S
C188 C191 1.387 . S
H189 C185 0.950 . S
H190 C187 0.950 . S
C191 C182 1.390 . S
C191 H184 0.950 . S
C191 C188 1.387 . S
C192 C193 1.387 1_565 S
C192 H196 0.950 . S
C192 C201 1.390 . S
C193 C192 1.387 1_545 S
C193 C195 1.387 . S
H194 C201 0.950 . S
C195 C193 1.387 . S
C195 C197 1.390 . S
C195 H199 0.950 . S
H196 C192 0.950 . S
C197 C195 1.390 . S
C197 C198 1.387 1_545 S
C197 H200 0.950 . S
C198 C197 1.387 1_565 S
C198 C201 1.387 . S
H199 C195 0.950 . S
H200 C197 0.950 . S
C201 C192 1.390 . S
C201 H194 0.950 . S
C201 C198 1.387 . S
C202 C203 1.387 . S
C202 H206 0.950 . S
C202 C211 1.390 . S
C203 C202 1.387 . S
C203 C205 1.387 . S
H204 C211 0.950 . S
C205 C203 1.387 . S
C205 C207 1.390 . S
C205 H209 0.950 . S
H206 C202 0.950 . S
C207 C205 1.390 . S
C207 C208 1.387 . S
C207 H210 0.950 . S
C208 C207 1.387 . S
C208 C211 1.387 . S
H209 C205 0.950 . S
H210 C207 0.950 . S
C211 C202 1.390 . S
C211 H204 0.950 . S
C211 C208 1.387 . S
C212 C213 1.387 . S
C212 H216 0.950 . S
C212 C221 1.390 . S
C213 C212 1.387 . S
C213 C215 1.387 . S
H214 C221 0.950 . S
C215 C213 1.387 . S
C215 C217 1.390 . S
C215 H219 0.950 . S
H216 C212 0.950 . S
C217 C215 1.390 . S
C217 C218 1.387 . S
C217 H220 0.950 . S
C218 C217 1.387 . S
C218 C221 1.387 . S
H219 C215 0.950 . S
H220 C217 0.950 . S
C221 C212 1.390 . S
C221 H214 0.950 . S
C221 C218 1.387 . S
C222 C223 1.387 1_455 S
C222 H226 0.950 1_455 S
C222 C231 1.390 . S
C223 C222 1.387 1_655 S
C223 C225 1.387 1_655 S
H224 C231 0.950 . S
C225 C223 1.387 1_455 S
C225 C227 1.390 . S
C225 H229 0.950 . S
H226 C222 0.950 1_655 S
C227 C225 1.390 . S
C227 C228 1.387 . S
C227 H230 0.950 . S
C228 C227 1.387 . S
C228 C231 1.387 . S
H229 C225 0.950 . S
H230 C227 0.950 . S
C231 C222 1.390 . S
C231 H224 0.950 . S
C231 C228 1.387 . S
C232 C233 1.387 . S
C232 H236 0.950 . S
C232 C241 1.390 . S
C233 C232 1.387 . S
C233 C235 1.387 . S
H234 C241 0.950 . S
C235 C233 1.387 . S
C235 C237 1.390 . S
C235 H239 0.950 . S
H236 C232 0.950 . S
C237 C235 1.390 . S
C237 C238 1.387 . S
C237 H240 0.950 . S
C238 C237 1.387 . S
C238 C241 1.387 . S
H239 C235 0.950 . S
H240 C237 0.950 . S
C241 C232 1.390 . S
C241 H234 0.950 . S
C241 C238 1.387 . S
C242 C243 1.387 . S
C242 H246 0.950 . S
C242 C251 1.390 1_455 S
C243 C242 1.387 . S
C243 C245 1.387 . S
H244 C251 0.950 . S
C245 C243 1.387 . S
C245 C247 1.390 1_455 S
C245 H249 0.950 . S
H246 C242 0.950 . S
C247 C245 1.390 1_655 S
C247 C248 1.387 . S
C247 H250 0.950 . S
C248 C247 1.387 . S
C248 C251 1.387 . S
H249 C245 0.950 . S
H250 C247 0.950 . S
C251 C242 1.390 1_655 S
C251 H244 0.950 . S
C251 C248 1.387 . S
C252 C253 1.387 1_565 S
C252 H256 0.950 1_565 S
C252 C261 1.390 . S
C253 C252 1.387 1_545 S
C253 C255 1.387 1_545 S
H254 C261 0.950 . S
C255 C253 1.387 1_565 S
C255 C257 1.390 . S
C255 H259 0.950 . S
H256 C252 0.950 1_545 S
C257 C255 1.390 . S
C257 C258 1.387 . S
C257 H260 0.950 . S
C258 C257 1.387 . S
C258 C261 1.387 . S
H259 C255 0.950 . S
H260 C257 0.950 . S
C261 C252 1.390 . S
C261 H254 0.950 . S
C261 C258 1.387 . S
C262 C263 1.387 . S
C262 H266 0.950 . S
C262 C271 1.390 . S
C263 C262 1.387 . S
C263 C265 1.387 . S
H264 C271 0.950 . S
C265 C263 1.387 . S
C265 C267 1.390 . S
C265 H269 0.950 . S
H266 C262 0.950 . S
C267 C265 1.390 . S
C267 C268 1.387 . S
C267 H270 0.950 . S
C268 C267 1.387 . S
C268 C271 1.387 . S
H269 C265 0.950 . S
H270 C267 0.950 . S
C271 C262 1.390 . S
C271 H264 0.950 . S
C271 C268 1.387 . S
C272 C273 1.372 1_545 S
C272 H276 0.950 1_556 S
C272 C281 1.390 . S
C273 C272 1.372 1_565 S
C273 C275 1.384 1_565 S
H274 C281 0.950 1_554 S
C275 C273 1.384 1_545 S
C275 C277 1.390 . S
C275 H279 0.950 1_545 S
H276 C272 0.950 1_554 S
C277 C275 1.390 . S
C277 C278 1.387 . S
C277 H280 0.950 . S
C278 C277 1.387 . S
C278 C281 1.387 . S
H279 C275 0.950 1_565 S
H280 C277 0.950 . S
C281 C272 1.390 . S
C281 H274 0.950 1_556 S
C281 C278 1.387 . S
C282 C283 1.387 . S
C282 H286 0.950 . S
C282 C291 1.390 . S
C283 C282 1.387 . S
C283 C285 1.387 . S
H284 C291 0.950 . S
C285 C283 1.387 . S
C285 C287 1.390 . S
C285 H289 0.950 . S
H286 C282 0.950 . S
C287 C285 1.390 . S
C287 C288 1.387 . S
C287 H290 0.950 . S
C288 C287 1.387 . S
C288 C291 1.387 . S
H289 C285 0.950 . S
H290 C287 0.950 . S
C291 C282 1.390 . S
C291 H284 0.950 . S
C291 C288 1.387 . S
C292 C293 1.387 . S
C292 H296 0.950 . S
C292 C301 1.390 . S
C293 C292 1.387 . S
C293 C295 1.387 . S
H294 C301 0.950 . S
C295 C293 1.387 . S
C295 C297 1.390 . S
C295 H299 0.950 . S
H296 C292 0.950 . S
C297 C295 1.390 . S
C297 C298 1.387 . S
C297 H300 0.950 . S
C298 C297 1.387 . S
C298 C301 1.387 . S
H299 C295 0.950 . S
H300 C297 0.950 . S
C301 C292 1.390 . S
C301 H294 0.950 . S
C301 C298 1.387 . S
C302 C303 1.387 . S
C302 H306 0.950 . S
C302 C311 1.390 . S
C303 C302 1.387 . S
C303 C305 1.387 . S
H304 C311 0.950 . S
C305 C303 1.387 . S
C305 C307 1.390 . S
C305 H309 0.950 . S
H306 C302 0.950 . S
C307 C305 1.390 . S
C307 C308 1.387 . S
C307 H310 0.950 . S
C308 C307 1.387 . S
C308 C311 1.387 . S
H309 C305 0.950 . S
H310 C307 0.950 . S
C311 C302 1.390 . S
C311 H304 0.950 . S
C311 C308 1.387 . S
C312 C313 1.387 . S
C312 H316 0.950 . S
C312 C321 1.390 . S
C313 C312 1.387 . S
C313 C315 1.387 . S
H314 C321 0.950 . S
C315 C313 1.387 . S
C315 C317 1.390 . S
C315 H319 0.950 . S
H316 C312 0.950 . S
C317 C315 1.390 . S
C317 C318 1.387 . S
C317 H320 0.950 . S
C318 C317 1.387 . S
C318 C321 1.387 . S
H319 C315 0.950 . S
H320 C317 0.950 . S
C321 C312 1.390 . S
C321 H314 0.950 . S
C321 C318 1.387 . S
C322 C323 1.387 1_455 S
C322 H326 0.950 1_455 S
C322 C331 1.390 . S
C323 C322 1.387 1_655 S
C323 C325 1.387 1_655 S
H324 C331 0.950 . S
C325 C323 1.387 1_455 S
C325 C327 1.390 . S
C325 H329 0.950 1_455 S
H326 C322 0.950 1_655 S
C327 C325 1.390 . S
C327 C328 1.387 . S
C327 H330 0.950 . S
C328 C327 1.387 . S
C328 C331 1.387 . S
H329 C325 0.950 1_655 S
H330 C327 0.950 . S
C331 C322 1.390 . S
C331 H324 0.950 . S
C331 C328 1.387 . S
C332 C333 1.387 . S
C332 H336 0.950 . S
C332 C341 1.390 . S
C333 C332 1.387 . S
C333 C335 1.387 . S
H334 C341 0.950 . S
C335 C333 1.387 . S
C335 C337 1.390 . S
C335 H339 0.950 . S
H336 C332 0.950 . S
C337 C335 1.390 . S
C337 C338 1.387 . S
C337 H340 0.950 . S
C338 C337 1.387 . S
C338 C341 1.387 . S
H339 C335 0.950 . S
H340 C337 0.950 . S
C341 C332 1.390 . S
C341 H334 0.950 . S
C341 C338 1.387 . S
C342 C343 1.387 . S
C342 H346 0.950 . S
C342 C351 1.390 . S
C343 C342 1.387 . S
C343 C345 1.387 . S
H344 C351 0.950 . S
C345 C343 1.387 . S
C345 C347 1.390 . S
C345 H349 0.950 . S
H346 C342 0.950 . S
C347 C345 1.390 . S
C347 C348 1.387 . S
C347 H350 0.950 . S
C348 C347 1.387 . S
C348 C351 1.387 . S
H349 C345 0.950 . S
H350 C347 0.950 . S
C351 C342 1.390 . S
C351 H344 0.950 . S
C351 C348 1.387 . S
C352 C353 1.387 . S
C352 H356 0.950 . S
C352 C361 1.390 . S
C353 C352 1.387 . S
C353 C355 1.387 . S
H354 C361 0.950 . S
C355 C353 1.387 . S
C355 C357 1.390 . S
C355 H359 0.950 . S
H356 C352 0.950 . S
C357 C355 1.390 . S
C357 C358 1.387 . S
C357 H360 0.950 . S
C358 C357 1.387 . S
C358 C361 1.387 . S
H359 C355 0.950 . S
H360 C357 0.950 . S
C361 C352 1.390 . S
C361 H354 0.950 . S
C361 C358 1.387 . S
C362 C363 1.387 . S
C362 H366 0.950 . S
C362 C371 1.390 . S
C363 C362 1.387 . S
C363 C365 1.387 . S
H364 C371 0.950 . S
C365 C363 1.387 . S
C365 C367 1.390 . S
C365 H369 0.950 . S
H366 C362 0.950 . S
C367 C365 1.390 . S
C367 C368 1.387 . S
C367 H370 0.950 . S
C368 C367 1.387 . S
C368 C371 1.387 . S
H369 C365 0.950 . S
H370 C367 0.950 . S
C371 C362 1.390 . S
C371 H364 0.950 . S
C371 C368 1.387 . S
C372 C373 1.387 . S
C372 H376 0.950 . S
C372 C381 1.390 . S
C373 C372 1.387 . S
C373 C375 1.387 . S
H374 C381 0.950 . S
C375 C373 1.387 . S
C375 C377 1.390 . S
C375 H379 0.950 . S
H376 C372 0.950 . S
C377 C375 1.390 . S
C377 C378 1.387 . S
C377 H380 0.950 . S
C378 C377 1.387 . S
C378 C381 1.387 . S
H379 C375 0.950 . S
H380 C377 0.950 . S
C381 C372 1.390 . S
C381 H374 0.950 . S
C381 C378 1.387 . S
C382 C383 1.387 . S
C382 H386 0.950 . S
C382 C391 1.390 . S
C383 C382 1.387 . S
C383 C385 1.387 . S
H384 C391 0.950 . S
C385 C383 1.387 . S
C385 C387 1.390 . S
C385 H389 0.950 . S
H386 C382 0.950 . S
C387 C385 1.390 . S
C387 C388 1.387 . S
C387 H390 0.950 . S
C388 C387 1.387 . S
C388 C391 1.387 . S
H389 C385 0.950 . S
H390 C387 0.950 . S
C391 C382 1.390 . S
C391 H384 0.950 . S
C391 C388 1.387 . S
C392 C393 1.387 . S
C392 H396 0.950 . S
C392 C401 1.390 . S
C393 C392 1.387 . S
C393 C395 1.387 . S
H394 C401 0.950 . S
C395 C393 1.387 . S
C395 C397 1.390 . S
C395 H399 0.950 . S
H396 C392 0.950 . S
C397 C395 1.390 . S
C397 C398 1.387 . S
C397 H400 0.950 . S
C398 C397 1.387 . S
C398 C401 1.387 . S
H399 C395 0.950 . S
H400 C397 0.950 . S
C401 C392 1.390 . S
C401 H394 0.950 . S
C401 C398 1.387 . S
C402 C403 1.387 . S
C402 H406 0.950 . S
C402 C411 1.390 . S
C403 C402 1.387 . S
C403 C405 1.387 . S
H404 C411 0.950 . S
C405 C403 1.387 . S
C405 C407 1.390 . S
C405 H409 0.950 1_556 S
H406 C402 0.950 . S
C407 C405 1.390 . S
C407 C408 1.387 . S
C407 H410 0.950 . S
C408 C407 1.387 . S
C408 C411 1.387 . S
H409 C405 0.950 1_554 S
H410 C407 0.950 . S
C411 C402 1.390 . S
C411 H404 0.950 . S
C411 C408 1.387 . S
C173 C7 0.993 . S
C178 C93 1.011 . S
C183 C25 1.020 . S
C188 C104 1.061 . S
C193 C46 1.047 . S
C198 C112 1.070 . S
C208 C126 0.963 . S
C203 C70 0.953 . S
C218 C137 1.009 . S
C213 C28 0.986 . S
C223 C49 0.952 . S
C228 C148 0.959 . S
C233 C67 1.046 . S
C238 C156 1.075 . S
C243 C4 1.026 . S
C248 C170 1.066 . S
C253 C58 1.499 . S
C258 C167 1.603 . S
C268 C134 1.513 . S
C263 C66 1.424 . S
C278 C145 1.630 . S
C273 C3 1.605 . S
C283 C37 1.656 . S
C288 C159 1.704 . S
C298 C101 1.602 . S
C293 C79 1.499 . S
C303 C16 1.652 1_655 S
C308 C115 1.703 . S
C318 C123 1.630 . S
C313 C24 1.585 . S
C328 C90 1.513 . S
C323 C45 1.423 . S
C338 N154 1.492 . S
C333 C19 1.325 . S
C348 N165 1.504 . S
C343 C41 1.366 . S
C353 C62 1.302 . S
C358 N132 1.408 . S
C368 N143 1.381 . S
C363 C82 1.220 . S
C378 N110 1.493 . S
C373 C40 1.330 . S
C383 C61 1.221 . S
C388 N121 1.382 . S
C398 N88 1.409 . S
C393 C83 1.304 . S
C408 N99 1.505 . S
C403 C20 1.365 . S
