# Generated by pormake.
# Topology zzz, (3,6)-cn, num edge types: 1
# Building blocks:
#     Node 0, Type 0, BuildingBlock: QEWDON_clean_linker_0, # of connection points: 3
#     Node 1, Type 0, BuildingBlock: QEWDON_clean_linker_0, # of connection points: 3
#     Node 2, Type 0, BuildingBlock: QEWDON_clean_linker_0, # of connection points: 3
#     Node 3, Type 0, BuildingBlock: QEWDON_clean_linker_0, # of connection points: 3
#     Node 4, Type 0, BuildingBlock: QEWDON_clean_linker_0, # of connection points: 3
#     Node 5, Type 0, BuildingBlock: QEWDON_clean_linker_0, # of connection points: 3
#     Node 6, Type 0, BuildingBlock: QEWDON_clean_linker_0, # of connection points: 3
#     Node 7, Type 0, BuildingBlock: QEWDON_clean_linker_0, # of connection points: 3
#     Node 8, Type 1, BuildingBlock: BETDAH_clean_sbu_0, # of connection points: 6
#     Node 9, Type 1, BuildingBlock: BETDAH_clean_sbu_0, # of connection points: 6
#     Node 10, Type 1, BuildingBlock: BETDAH_clean_sbu_0, # of connection points: 6
#     Node 11, Type 1, BuildingBlock: BETDAH_clean_sbu_0, # of connection points: 6
#     Edge 12, Type (0, 1), BuildingBlock: MIFKUJ_clean_linker_0, # of connection points: 2
#     Edge 13, Type (0, 1), BuildingBlock: MIFKUJ_clean_linker_0, # of connection points: 2
#     Edge 14, Type (0, 1), BuildingBlock: MIFKUJ_clean_linker_0, # of connection points: 2
#     Edge 15, Type (0, 1), BuildingBlock: MIFKUJ_clean_linker_0, # of connection points: 2
#     Edge 16, Type (0, 1), BuildingBlock: MIFKUJ_clean_linker_0, # of connection points: 2
#     Edge 17, Type (0, 1), BuildingBlock: MIFKUJ_clean_linker_0, # of connection points: 2
#     Edge 18, Type (0, 1), BuildingBlock: MIFKUJ_clean_linker_0, # of connection points: 2
#     Edge 19, Type (0, 1), BuildingBlock: MIFKUJ_clean_linker_0, # of connection points: 2
#     Edge 20, Type (0, 1), BuildingBlock: MIFKUJ_clean_linker_0, # of connection points: 2
#     Edge 21, Type (0, 1), BuildingBlock: MIFKUJ_clean_linker_0, # of connection points: 2
#     Edge 22, Type (0, 1), BuildingBlock: MIFKUJ_clean_linker_0, # of connection points: 2
#     Edge 23, Type (0, 1), BuildingBlock: MIFKUJ_clean_linker_0, # of connection points: 2
#     Edge 24, Type (0, 1), BuildingBlock: MIFKUJ_clean_linker_0, # of connection points: 2
#     Edge 25, Type (0, 1), BuildingBlock: MIFKUJ_clean_linker_0, # of connection points: 2
#     Edge 26, Type (0, 1), BuildingBlock: MIFKUJ_clean_linker_0, # of connection points: 2
#     Edge 27, Type (0, 1), BuildingBlock: MIFKUJ_clean_linker_0, # of connection points: 2
#     Edge 28, Type (0, 1), BuildingBlock: MIFKUJ_clean_linker_0, # of connection points: 2
#     Edge 29, Type (0, 1), BuildingBlock: MIFKUJ_clean_linker_0, # of connection points: 2
#     Edge 30, Type (0, 1), BuildingBlock: MIFKUJ_clean_linker_0, # of connection points: 2
#     Edge 31, Type (0, 1), BuildingBlock: MIFKUJ_clean_linker_0, # of connection points: 2
#     Edge 32, Type (0, 1), BuildingBlock: MIFKUJ_clean_linker_0, # of connection points: 2
#     Edge 33, Type (0, 1), BuildingBlock: MIFKUJ_clean_linker_0, # of connection points: 2
#     Edge 34, Type (0, 1), BuildingBlock: MIFKUJ_clean_linker_0, # of connection points: 2
#     Edge 35, Type (0, 1), BuildingBlock: MIFKUJ_clean_linker_0, # of connection points: 2
# Relax obj value: 0.139
# Max RMSD: 0.161
# Mean RMSD: 0.122
data_MOF--net-zzz--node1-BETDAH_clean_sbu_0--node2-QEWDON_clean_linker_0--edge1-MIFKUJ_clean_linker_0
_symmetry_space_group_name_H-M    P1
_symmetry_Int_Tables_number       1
_symmetry_cell_setting            triclinic
loop_
_symmetry_equiv_pos_as_xyz
'x, y, z'
_cell_length_a     72.821318
_cell_length_b     72.907541
_cell_length_c     16.117914
_cell_angle_alpha  89.988626
_cell_angle_beta   90.029308
_cell_angle_gamma 90.266734
loop_
_atom_site_label
_atom_site_type_symbol
_atom_site_fract_x
_atom_site_fract_y
_atom_site_fract_z
_atom_type_partial_charge
H0 H 0.74853 0.51061 0.17514 0.0
C1 C 0.75811 0.51131 0.22635 0.0
C2 C 0.77408 0.50076 0.22138 0.0
C3 C 0.75514 0.52345 0.29306 0.0
H4 H 0.8003 0.49498 0.27634 0.0
C5 C 0.78746 0.50232 0.2834 0.0
C6 C 0.78554 0.51457 0.34957 0.0
C7 C 0.76922 0.52503 0.35475 0.0
C8 C 0.73822 0.53548 0.29261 0.0
H9 H 0.76769 0.53429 0.40664 0.0
C10 C 0.72189 0.53054 0.24848 0.0
C11 C 0.70708 0.54296 0.23998 0.0
C12 C 0.73874 0.55281 0.33123 0.0
H13 H 0.75084 0.55762 0.36355 0.0
C14 C 0.72385 0.56471 0.32624 0.0
H15 H 0.72072 0.51729 0.21876 0.0
C16 C 0.70827 0.55995 0.28072 0.0
H17 H 0.6971 0.56968 0.27717 0.0
H18 H 0.72456 0.57796 0.3564 0.0
H19 H 0.98721 0.75374 0.1515 0.0
C20 C 0.99018 0.76473 0.1946 0.0
C21 C 0.98576 0.78259 0.17074 0.0
C22 C 0.99795 0.76112 0.27315 0.0
H23 H 0.98571 0.81097 0.20595 0.0
C24 C 0.98863 0.79709 0.2261 0.0
C25 C 0.99623 0.79433 0.30477 0.0
C26 C 1.00128 0.77628 0.32762 0.0
C27 C 1.00155 0.7415 0.29833 0.0
H28 H 1.00757 0.77415 0.38765 0.0
C29 C 1.00476 0.72743 0.23867 0.0
C30 C 1.00619 0.70877 0.26231 0.0
C31 C 1.00048 0.7364 0.3824 0.0
H32 H 0.99756 0.74637 0.4302 0.0
C33 C 1.0024 0.71813 0.40632 0.0
H34 H 1.00628 0.73086 0.17376 0.0
C35 C 1.00506 0.70444 0.34719 0.0
H36 H 1.00575 0.69035 0.36817 0.0
H37 H 1.00135 0.71447 0.47125 0.0
H38 H 0.78251 0.02401 0.15592 0.0
C39 C 0.77209 0.02461 0.20359 0.0
C40 C 0.75538 0.0327 0.18313 0.0
C41 C 0.77501 0.01666 0.2822 0.0
H42 H 0.72773 0.03772 0.22125 0.0
C43 C 0.74097 0.03248 0.24041 0.0
C44 C 0.7427 0.02417 0.31836 0.0
C45 C 0.75993 0.01636 0.33949 0.0
C46 C 0.79339 1.00781 0.2999 0.0
H47 H 0.76147 0.01026 0.40022 0.0
C48 C 0.80963 0.01287 0.25551 0.0
C49 C 0.82633 1.00323 0.2654 0.0
C50 C 0.79471 0.99333 0.35731 0.0
H51 H 0.78285 0.98852 0.39138 0.0
C52 C 0.81131 0.98422 0.36972 0.0
H53 H 0.8095 0.02437 0.21318 0.0
C54 C 0.8269 0.98897 0.32398 0.0
H55 H 0.83929 0.98106 0.33303 0.0
H56 H 0.81198 0.97302 0.41371 0.0
H57 H 0.54431 0.77891 0.15882 0.0
C58 C 0.54136 0.76792 0.2019 0.0
C59 C 0.54675 0.75022 0.17991 0.0
C60 C 0.53263 0.77137 0.27842 0.0
H61 H 0.54758 0.72195 0.21657 0.0
C62 C 0.54395 0.73573 0.23548 0.0
C63 C 0.53542 0.73829 0.3123 0.0
C64 C 0.52937 0.75617 0.33301 0.0
C65 C 0.52793 0.7909 0.3014 0.0
H66 H 0.52235 0.75815 0.39142 0.0
C67 C 0.52492 0.80474 0.24019 0.0
C68 C 0.5225 0.8234 0.26234 0.0
C69 C 0.52776 0.79623 0.38529 0.0
H70 H 0.53046 0.78649 0.43434 0.0
C71 C 0.52488 0.81447 0.40762 0.0
H72 H 0.52431 0.80113 0.17519 0.0
C73 C 0.52245 0.82793 0.34716 0.0
H74 H 0.521 0.84201 0.36725 0.0
H75 H 0.525 0.81831 0.47251 0.0
H76 H 0.27564 0.50659 0.21004 0.0
C77 C 0.26521 0.5051 0.1626 0.0
C78 C 0.24808 0.49847 0.18644 0.0
C79 C 0.26862 0.51037 0.07994 0.0
H80 H 0.22027 0.49319 0.15078 0.0
C81 C 0.2337 0.49756 0.1291 0.0
C82 C 0.23604 0.50314 0.04647 0.0
C83 C 0.25372 0.50949 0.0219 0.0
C84 C 0.28742 0.51778 0.05797 0.0
H85 H 0.25578 0.5135 0.95795 0.0
C86 C 0.3034 0.51269 0.10365 0.0
C87 C 0.32063 0.52129 0.08993 0.0
C88 C 0.28939 0.53106 0.99533 0.0
H89 H 0.27769 0.53575 0.95994 0.0
C90 C 0.30643 0.53917 0.97951 0.0
H91 H 0.30256 0.50199 0.15 0.0
C92 C 0.32181 0.53453 0.02663 0.0
H93 H 0.33455 0.54177 0.01459 0.0
H94 H 0.30762 0.54953 0.93169 0.0
H95 H 0.99263 0.27823 0.19742 0.0
C96 C 0.99693 0.26737 0.15623 0.0
C97 C 0.98995 0.24972 0.17037 0.0
C98 C 1.00875 0.27097 0.08853 0.0
H99 H 0.98931 0.22174 0.12817 0.0
C100 C 0.99447 0.23546 0.11604 0.0
C101 C 1.00617 0.23826 0.0486 0.0
C102 C 0.01372 0.25594 0.0362 0.0
C103 C 0.01479 0.29045 0.07004 0.0
H104 H 0.02315 0.25787 0.98509 0.0
C105 C 0.01523 0.30444 0.13205 0.0
C106 C 0.01897 0.32298 0.11114 0.0
C107 C 0.01894 0.29556 0.98777 0.0
H108 H 0.01823 0.2858 0.93739 0.0
C109 C 0.02345 0.31362 0.96779 0.0
H110 H 0.0123 0.30119 0.19613 0.0
C111 C 0.02339 0.3272 0.02846 0.0
H112 H 0.02674 0.34112 0.01038 0.0
H113 H 0.02663 0.3172 0.9042 0.0
H114 H 0.25609 0.01056 0.21401 0.0
C115 C 0.26673 0.0145 0.17057 0.0
C116 C 0.28478 0.01543 0.19949 0.0
C117 C 0.26249 0.01824 0.08699 0.0
H118 H 0.31311 0.01942 0.16733 0.0
C119 C 0.2991 0.01944 0.14442 0.0
C120 C 0.29578 0.02235 0.05976 0.0
C121 C 0.27735 0.0219 0.03125 0.0
C122 C 0.24266 0.01749 0.05928 0.0
H123 H 0.27474 0.02466 0.96637 0.0
C124 C 0.22789 0.0208 0.11544 0.0
C125 C 0.20932 0.01881 0.09064 0.0
C126 C 0.23823 0.01257 0.97723 0.0
H127 H 0.24882 1.00941 0.93249 0.0
C128 C 0.21996 0.01102 0.9519 0.0
H129 H 0.23067 0.02514 0.17838 0.0
C130 C 0.20566 0.01401 0.00781 0.0
H131 H 0.19168 0.01211 0.98642 0.0
H132 H 0.21685 1.0071 0.88864 0.0
H133 H 0.52777 0.25319 0.20173 0.0
C134 C 0.52364 0.26366 0.15798 0.0
C135 C 0.5262 0.28205 0.18003 0.0
C136 C 0.51682 0.25883 0.07903 0.0
H137 H 0.52358 0.31019 0.14146 0.0
C138 C 0.52168 0.29595 0.1237 0.0
C139 C 0.51489 0.29185 0.04473 0.0
C140 C 0.5125 0.27323 0.02219 0.0
C141 C 0.51555 0.23884 0.05543 0.0
H142 H 0.5071 0.27011 0.96122 0.0
C143 C 0.51248 0.22479 0.11554 0.0
C144 C 0.51314 0.20593 0.0938 0.0
C145 C 0.51874 0.23353 0.97285 0.0
H146 H 0.52163 0.24359 0.92518 0.0
C147 C 0.51907 0.21506 0.9507 0.0
H148 H 0.50948 0.22846 0.17911 0.0
C149 C 0.51649 0.20143 0.01025 0.0
H150 H 0.51763 0.18728 0.99064 0.0
H151 H 0.52181 0.21126 0.88698 0.0
Ho152 Ho 0.02645 0.01143 0.7575 0.0
Ho153 Ho 1.00922 0.02235 0.58733 0.0
C154 C 0.01368 0.97946 0.62308 0.0
C155 C 0.03251 0.99417 0.89295 0.0
C156 C 0.02569 0.97556 0.91092 0.0
C157 C 1.00733 0.97098 0.89277 0.0
C158 C 1.00191 0.95271 0.8862 0.0
C159 C 0.01473 0.93864 0.8974 0.0
C160 C 0.0328 0.94316 0.92098 0.0
C161 C 0.03823 0.9615 0.92774 0.0
C162 C 0.05063 0.0214 0.63785 0.0
C163 C 0.01842 0.05391 0.72787 0.0
C164 C 1.00567 0.03754 0.44508 0.0
C165 C 0.99766 0.05577 0.42829 0.0
C166 C 1.00949 0.0708 0.41605 0.0
C167 C 1.003 0.08865 0.42458 0.0
C168 C 0.98449 0.09181 0.44361 0.0
C169 C 0.97224 0.07695 0.44785 0.0
C170 C 0.97879 0.05902 0.44074 0.0
C171 C 0.98209 0.01948 0.7047 0.0
O172 O 0.01827 0.98394 0.70033 0.0
O173 O 0.0107 0.99199 0.56515 0.0
O174 O 0.04457 0.99494 0.83287 0.0
O175 O 0.02002 1.00699 0.88699 0.0
O176 O 0.05253 0.02535 0.7161 0.0
O177 O 0.03621 0.01186 0.62767 0.0
O178 O 0.01575 0.04974 0.64853 0.0
O179 O 0.02107 0.04113 0.78505 0.0
O180 O 0.99437 0.02471 0.47138 0.0
O181 O 0.02107 0.03801 0.48729 0.0
O182 O 0.97923 0.02361 0.62757 0.0
O183 O 0.99912 0.01711 0.71262 0.0
H184 H 0.99737 0.98146 0.87792 0.0
H185 H 0.98793 0.94965 0.86757 0.0
H186 H 0.04287 0.93253 0.93153 0.0
H187 H 0.05249 0.9647 0.94085 0.0
H188 H 0.02404 0.06875 0.40581 0.0
H189 H 0.0126 0.09999 0.41928 0.0
H190 H 0.95786 0.07915 0.46157 0.0
H191 H 0.96926 0.04776 0.45014 0.0
Ho192 Ho 0.52376 0.02132 0.76599 0.0
Ho193 Ho 0.51174 1.00655 0.59233 0.0
C194 C 0.55442 0.01384 0.61839 0.0
C195 C 0.54035 0.02159 0.90586 0.0
C196 C 0.55933 0.02774 0.92071 0.0
C197 C 0.57187 0.01538 0.95544 0.0
C198 C 0.59071 0.01835 0.94674 0.0
C199 C 0.59728 0.03384 0.90393 0.0
C200 C 0.58479 0.04693 0.87489 0.0
C201 C 0.56594 0.04385 0.88268 0.0
C202 C 0.52141 0.04994 0.65619 0.0
C203 C 0.48054 0.01751 0.73413 0.0
C204 C 0.49335 0.99999 0.45948 0.0
C205 C 0.47315 0.99979 0.45092 0.0
C206 C 0.46303 0.01608 0.45923 0.0
C207 C 0.44414 0.01539 0.47336 0.0
C208 C 0.43503 0.99843 0.48008 0.0
C209 C 0.44488 0.98225 0.46492 0.0
C210 C 0.46375 0.98293 0.45007 0.0
C211 C 0.52077 0.98103 0.70798 0.0
O212 O 0.5506 0.01503 0.69891 0.0
O213 O 0.54127 0.01258 0.5617 0.0
O214 O 0.52836 0.03422 0.88529 0.0
O215 O 0.53931 1.00694 0.85896 0.0
O216 O 0.5256 0.05174 0.734 0.0
O217 O 0.51859 0.0331 0.64379 0.0
O218 O 0.48463 0.01408 0.65511 0.0
O219 O 0.49344 0.01944 0.79165 0.0
O220 O 0.49999 0.987 0.50653 0.0
O221 O 0.50105 0.01592 0.47444 0.0
O222 O 0.52506 0.97987 0.62994 0.0
O223 O 0.51172 0.99554 0.71983 0.0
H224 H 0.56709 1.00276 0.98384 0.0
H225 H 0.60016 1.00819 0.97056 0.0
H226 H 0.58956 0.05894 0.84152 0.0
H227 H 0.55661 0.05348 0.85388 0.0
H228 H 0.46981 0.02933 0.46002 0.0
H229 H 0.43692 0.02812 0.48415 0.0
H230 H 0.4381 0.969 0.46672 0.0
H231 H 0.47116 0.97017 0.443 0.0
Ho232 Ho 0.50501 0.51934 0.74726 0.0
Ho233 Ho 0.52317 0.50909 0.59223 0.0
C234 C 0.51733 0.55145 0.61341 0.0
C235 C 0.49937 0.53618 0.88466 0.0
C236 C 0.50704 0.5542 0.90603 0.0
C237 C 0.52409 0.55946 0.87233 0.0
C238 C 0.52979 0.57768 0.87524 0.0
C239 C 0.51867 0.5909 0.9128 0.0
C240 C 0.50219 0.58547 0.95135 0.0
C241 C 0.49632 0.56721 0.94733 0.0
C242 C 0.48066 0.50968 0.62771 0.0
C243 C 0.51135 0.47678 0.72671 0.0
C244 C 0.53149 0.4912 0.46023 0.0
C245 C 0.53328 0.47108 0.45203 0.0
C246 C 0.51785 0.4596 0.46207 0.0
C247 C 0.51999 0.44078 0.47325 0.0
C248 C 0.53758 0.43297 0.47455 0.0
C249 C 0.55292 0.44423 0.45902 0.0
C250 C 0.55078 0.46311 0.44773 0.0
C251 C 0.54686 0.51954 0.71305 0.0
O252 O 0.51337 0.547 0.6912 0.0
O253 O 0.52015 0.53862 0.5572 0.0
O254 O 0.48756 0.5364 0.82356 0.0
O255 O 0.51141 0.52303 0.87715 0.0
O256 O 0.47873 0.50595 0.70609 0.0
O257 O 0.49515 0.51911 0.61711 0.0
O258 O 0.51789 0.48123 0.65264 0.0
O259 O 0.50556 0.48944 0.77869 0.0
O260 O 0.54385 0.49914 0.50711 0.0
O261 O 0.51494 0.49734 0.47474 0.0
O262 O 0.54867 0.52395 0.63542 0.0
O263 O 0.53288 0.50937 0.72189 0.0
H264 H 0.5326 0.54969 0.83973 0.0
H265 H 0.54268 0.58151 0.84629 0.0
H266 H 0.4934 0.59552 0.98069 0.0
H267 H 0.48306 0.56344 0.97275 0.0
H268 H 0.50412 0.46521 0.4654 0.0
H269 H 0.50786 0.43238 0.48297 0.0
H270 H 0.56666 0.4386 0.45963 0.0
H271 H 0.56291 0.47161 0.44021 0.0
Ho272 Ho 1.0074 0.50863 0.76603 0.0
Ho273 Ho 0.01661 0.52361 0.60416 0.0
C274 C 0.97397 0.51811 0.63402 0.0
C275 C 0.99182 0.50177 0.9058 0.0
C276 C 0.97297 0.4951 0.92105 0.0
C277 C 0.95993 0.50722 0.95375 0.0
C278 C 0.9413 0.50277 0.95127 0.0
C279 C 0.93543 0.48603 0.91708 0.0
C280 C 0.94849 0.47333 0.88985 0.0
C281 C 0.96714 0.47786 0.89136 0.0
C282 C 0.01564 0.48232 0.65302 0.0
C283 C 0.04947 0.51374 0.73433 0.0
C284 C 0.03226 0.52836 0.463 0.0
C285 C 0.04989 0.52044 0.43788 0.0
C286 C 0.05437 0.50258 0.46362 0.0
C287 C 0.07242 0.4965 0.45978 0.0
C288 C 0.08633 0.50811 0.42994 0.0
C289 C 0.08163 0.52553 0.39901 0.0
C290 C 0.06352 0.53167 0.40323 0.0
C291 C 1.00856 0.54984 0.71787 0.0
O292 O 0.97889 0.51358 0.71061 0.0
O293 O 0.98648 0.52186 0.5773 0.0
O294 O 1.00306 0.49031 0.86985 0.0
O295 O 0.99287 0.51827 0.87422 0.0
O296 O 0.02047 0.48182 0.73034 0.0
O297 O 1.00607 0.49645 0.64008 0.0
O298 O 0.04418 0.5137 0.65559 0.0
O299 O 0.037 0.51473 0.79347 0.0
O300 O 0.03348 0.54032 0.52315 0.0
O301 O 0.01887 0.51663 0.47421 0.0
O302 O 1.00356 0.55041 0.64062 0.0
O303 O 0.01815 0.5357 0.73019 0.0
H304 H 0.96405 0.52055 0.97708 0.0
H305 H 0.93142 0.51262 0.97414 0.0
H306 H 0.94422 0.4603 0.86366 0.0
H307 H 0.97683 0.4682 0.8655 0.0
H308 H 0.04419 0.4937 0.49195 0.0
H309 H 0.07562 0.48311 0.48491 0.0
H310 H 0.09207 0.53464 0.37427 0.0
H311 H 0.06036 0.54554 0.38386 0.0
H312 H 0.17617 0.03585 0.06478 0.0
H313 H 0.14959 0.03707 0.15708 0.0
H314 H 0.17994 1.00803 0.34499 0.0
H315 H 0.20658 1.00647 0.252 0.0
H316 H 0.14559 0.99389 0.33007 0.0
H317 H 0.17155 0.05411 0.36243 0.0
H318 H 0.18352 0.08402 0.31494 0.0
H319 H 0.13145 0.09628 0.20329 0.0
H320 H 0.11924 0.06633 0.24919 0.0
H321 H 0.0823 0.04121 0.65343 0.0
H322 H 0.10892 0.04173 0.5607 0.0
H323 H 0.08077 1.00528 0.39222 0.0
H324 H 0.05401 1.00475 0.48513 0.0
H325 H 0.11468 0.05227 0.40182 0.0
H326 H 0.11299 0.9761 0.30733 0.0
H327 H 0.10182 0.94644 0.36189 0.0
H328 H 0.1073 0.96653 0.61116 0.0
H329 H 0.11871 0.99619 0.55812 0.0
C330 C 0.17727 0.02973 0.12578 0.0
C331 C 0.19364 0.02104 0.15057 0.0
C332 C 0.16201 0.03053 0.17889 0.0
C333 C 0.16264 0.02271 0.2586 0.0
C334 C 0.17901 0.01417 0.28395 0.0
C335 C 0.19435 0.01346 0.23092 0.0
C336 C 0.14615 0.02323 0.31465 0.0
C337 C 0.13885 1.00668 0.3455 0.0
C338 C 0.13726 0.03986 0.33591 0.0
C339 C 0.14454 0.05791 0.30862 0.0
C340 C 0.1627 0.06313 0.32724 0.0
C341 C 0.16952 0.0801 0.3007 0.0
C342 C 0.15827 0.09203 0.25596 0.0
C343 C 0.14016 0.08702 0.23787 0.0
C344 C 0.13327 0.07006 0.26421 0.0
C345 C 0.08169 0.03342 0.59627 0.0
C346 C 0.06602 0.02287 0.57698 0.0
C347 C 0.09695 0.03376 0.54309 0.0
C348 C 0.09707 0.02339 0.46954 0.0
C349 C 0.0812 0.01323 0.44894 0.0
C350 C 0.06584 0.013 0.50193 0.0
C351 C 0.11397 0.02292 0.41611 0.0
C352 C 0.12135 0.03948 0.38587 0.0
C353 C 0.12301 1.00631 0.396 0.0
C354 C 0.11652 0.98841 0.42865 0.0
C355 C 0.11188 0.97415 0.37378 0.0
C356 C 0.10549 0.95735 0.40444 0.0
C357 C 0.10379 0.95462 0.48992 0.0
C358 C 0.10855 0.96867 0.54495 0.0
C359 C 0.11496 0.98549 0.51462 0.0
H360 H 0.09882 0.94162 0.51352 0.0
H361 H 0.16357 0.10516 0.23546 0.0
H362 H 0.49721 0.17174 0.07443 0.0
H363 H 0.49774 0.14586 0.16922 0.0
H364 H 0.52397 0.17956 0.35492 0.0
H365 H 0.52479 0.20528 0.2575 0.0
H366 H 0.54016 0.14915 0.35629 0.0
H367 H 0.47647 0.16338 0.3628 0.0
H368 H 0.44562 0.16989 0.30729 0.0
H369 H 0.44371 0.1166 0.19416 0.0
H370 H 0.47467 0.10985 0.24809 0.0
H371 H 0.52799 0.0859 0.68755 0.0
H372 H 0.52538 0.11211 0.59412 0.0
H373 H 0.50834 0.07604 0.39637 0.0
H374 H 0.5109 0.0496 0.49069 0.0
H375 H 0.48722 0.10735 0.40196 0.0
H376 H 0.5522 0.09412 0.40537 0.0
H377 H 0.58264 0.08932 0.46869 0.0
H378 H 0.58082 0.14316 0.57627 0.0
H379 H 0.55024 0.14816 0.51486 0.0
C380 C 0.50324 0.17375 0.13516 0.0
C381 C 0.51118 0.19078 0.15713 0.0
C382 C 0.50324 0.15887 0.19031 0.0
C383 C 0.5107 0.16056 0.27046 0.0
C384 C 0.51811 0.1777 0.29371 0.0
C385 C 0.51837 0.19257 0.23796 0.0
C386 C 0.51165 0.14426 0.32795 0.0
C387 C 0.52842 0.14025 0.36712 0.0
C388 C 0.49657 0.13218 0.34155 0.0
C389 C 0.47797 0.13619 0.30882 0.0
C390 C 0.46953 0.1531 0.32553 0.0
C391 C 0.45202 0.15683 0.29445 0.0
C392 C 0.44273 0.14369 0.24704 0.0
C393 C 0.45093 0.12678 0.23079 0.0
C394 C 0.46846 0.12299 0.26167 0.0
C395 C 0.5237 0.08347 0.62412 0.0
C396 C 0.51967 0.06556 0.5967 0.0
C397 C 0.52228 0.09854 0.57047 0.0
C398 C 0.51688 0.09618 0.48744 0.0
C399 C 0.5126 0.0783 0.45995 0.0
C400 C 0.51409 0.06315 0.51387 0.0
C401 C 0.51567 0.1124 0.43013 0.0
C402 C 0.49888 0.11633 0.39097 0.0
C403 C 0.53061 0.12466 0.41792 0.0
C404 C 0.54886 0.12146 0.45599 0.0
C405 C 0.55821 0.10486 0.4432 0.0
C406 C 0.57551 0.10212 0.47866 0.0
C407 C 0.58365 0.11594 0.52643 0.0
C408 C 0.57449 0.13248 0.53924 0.0
C409 C 0.55718 0.13527 0.50414 0.0
H410 H 0.59708 0.11393 0.55327 0.0
H411 H 0.42917 0.1466 0.22306 0.0
H412 H 0.35716 0.52019 0.044 0.0
H413 H 0.3841 0.5171 0.13234 0.0
H414 H 0.34914 0.50945 0.34551 0.0
H415 H 0.32203 0.51364 0.25797 0.0
H416 H 0.37531 0.53118 0.38827 0.0
H417 H 0.37506 0.47343 0.24933 0.0
H418 H 0.37425 0.45209 0.13072 0.0
H419 H 0.42445 0.47531 0.0374 0.0
H420 H 0.42543 0.49697 0.15492 0.0
H421 H 0.4454 0.49879 0.65875 0.0
H422 H 0.41892 0.49952 0.5654 0.0
H423 H 0.45349 0.51951 0.36785 0.0
H424 H 0.48014 0.51911 0.46197 0.0
H425 H 0.42798 0.49121 0.31758 0.0
H426 H 0.42745 0.549 0.46134 0.0
H427 H 0.42802 0.56897 0.58472 0.0
H428 H 0.37849 0.54363 0.67413 0.0
H429 H 0.37779 0.52329 0.55179 0.0
C430 C 0.35509 0.51793 0.10972 0.0
C431 C 0.33719 0.51729 0.14324 0.0
C432 C 0.37064 0.5159 0.16037 0.0
C433 C 0.36888 0.5128 0.24618 0.0
C434 C 0.35104 0.5118 0.27972 0.0
C435 C 0.33545 0.51399 0.22911 0.0
C436 C 0.38559 0.51132 0.30105 0.0
C437 C 0.38665 0.52218 0.37309 0.0
C438 C 0.40077 0.49993 0.28138 0.0
C439 C 0.40021 0.48695 0.21052 0.0
C440 C 0.38585 0.47409 0.20316 0.0
C441 C 0.38537 0.46192 0.13619 0.0
C442 C 0.39926 0.46238 0.07644 0.0
C443 C 0.41368 0.47498 0.08366 0.0
C444 C 0.41422 0.4872 0.15049 0.0
C445 C 0.44745 0.50328 0.59535 0.0
C446 C 0.46494 0.50898 0.5681 0.0
C447 C 0.43223 0.50372 0.54197 0.0
C448 C 0.43408 0.50971 0.45949 0.0
C449 C 0.45165 0.51485 0.43114 0.0
C450 C 0.46689 0.51465 0.48503 0.0
C451 C 0.41755 0.51101 0.40417 0.0
C452 C 0.41657 0.50014 0.33232 0.0
C453 C 0.40234 0.52221 0.42446 0.0
C454 C 0.40267 0.5345 0.4978 0.0
C455 C 0.41677 0.54757 0.50765 0.0
C456 C 0.4171 0.55898 0.57733 0.0
C457 C 0.40333 0.55754 0.63734 0.0
C458 C 0.38917 0.54472 0.62765 0.0
C459 C 0.38879 0.53325 0.55812 0.0
H460 H 0.4036 0.56639 0.69125 0.0
H461 H 0.39887 0.45294 0.02465 0.0
H462 H 0.03254 0.32463 0.27158 0.0
H463 H 0.03245 0.35109 0.36608 0.0
H464 H 1.00238 0.38248 0.18482 0.0
H465 H 1.00259 0.35631 0.09071 0.0
H466 H 0.02893 0.40286 0.24258 0.0
H467 H 0.98252 0.36469 0.36807 0.0
H468 H 0.96999 0.33644 0.43085 0.0
H469 H 1.01042 0.3394 0.62448 0.0
H470 H 0.02335 0.36755 0.56219 0.0
H471 H 1.00166 0.47853 0.49531 0.0
H472 H 1.00267 0.4513 0.40591 0.0
H473 H 0.03365 0.42254 0.59286 0.0
H474 H 0.03246 0.4496 0.68251 0.0
H475 H 1.00768 0.40062 0.53459 0.0
H476 H 0.05448 0.4381 0.40908 0.0
H477 H 0.06759 0.46607 0.34622 0.0
H478 H 0.02655 0.46452 0.15509 0.0
H479 H 0.01327 0.4364 0.2164 0.0
C480 C 0.02571 0.3371 0.25241 0.0
C481 C 0.01771 0.33832 0.17308 0.0
C482 C 0.02567 0.35228 0.30652 0.0
C483 C 0.01738 0.36895 0.28306 0.0
C484 C 1.00904 0.36996 0.20461 0.0
C485 C 1.00917 0.35491 0.15065 0.0
C486 C 0.01767 0.38554 0.33849 0.0
C487 C 0.02405 0.40235 0.30612 0.0
C488 C 0.0118 0.38501 0.42235 0.0
C489 C 1.00402 0.36812 0.45995 0.0
C490 C 0.98883 0.35924 0.42367 0.0
C491 C 0.98164 0.34326 0.45923 0.0
C492 C 0.98944 0.3361 0.53147 0.0
C493 C 1.00441 0.34494 0.56844 0.0
C494 C 0.01167 0.36092 0.53307 0.0
C495 C 1.00877 0.46643 0.51708 0.0
C496 C 0.01695 0.46625 0.59615 0.0
C497 C 1.00941 0.45085 0.46575 0.0
C498 C 0.01835 0.43475 0.49202 0.0
C499 C 0.02662 0.43466 0.57086 0.0
C500 C 0.02598 0.45021 0.62206 0.0
C501 C 0.01879 0.4179 0.43837 0.0
C502 C 0.01258 0.40109 0.47107 0.0
C503 C 0.02484 0.41839 0.35485 0.0
C504 C 0.03278 0.43526 0.31775 0.0
C505 C 0.04818 0.44379 0.35393 0.0
C506 C 0.05566 0.45966 0.31856 0.0
C507 C 0.04782 0.46717 0.24717 0.0
C508 C 0.03258 0.45872 0.21054 0.0
C509 C 0.02512 0.44277 0.24534 0.0
H510 H 0.05361 0.47948 0.22006 0.0
H511 H 0.98385 0.32372 0.55891 0.0
H512 H 0.86287 1.00364 0.31101 0.0
H513 H 0.88987 1.00672 0.222 0.0
H514 H 0.85478 0.01489 0.00986 0.0
H515 H 0.82766 0.01131 0.09835 0.0
H516 H 0.88101 0.99084 0.97315 0.0
H517 H 0.88034 0.05039 0.10191 0.0
H518 H 0.8802 0.07234 0.21826 0.0
H519 H 0.9314 0.0507 0.30604 0.0
H520 H 0.9317 0.02842 0.19085 0.0
H521 H 0.94544 0.02164 0.6788 0.0
H522 H 0.92047 0.01918 0.77885 0.0
H523 H 0.95971 0.01099 0.97567 0.0
H524 H 0.98497 0.01386 0.87471 0.0
H525 H 0.93267 0.03386 0.02596 0.0
H526 H 0.9342 0.97496 0.89976 0.0
H527 H 0.93509 0.95259 0.78516 0.0
H528 H 0.88307 0.97201 0.69646 0.0
H529 H 0.88198 0.99468 0.80993 0.0
C530 C 0.86083 1.00614 0.24544 0.0
C531 C 0.84292 1.00718 0.21229 0.0
C532 C 0.87638 1.00806 0.19447 0.0
C533 C 0.87455 0.01117 0.10872 0.0
C534 C 0.8567 0.01252 0.07564 0.0
C535 C 0.84113 0.01065 0.12666 0.0
C536 C 0.89113 0.01226 0.05309 0.0
C537 C 0.89215 1.00045 0.98427 0.0
C538 C 0.90616 0.02427 0.06868 0.0
C539 C 0.90594 0.03759 0.13823 0.0
C540 C 0.89148 0.05019 0.14645 0.0
C541 C 0.89139 0.06271 0.21212 0.0
C542 C 0.90575 0.06288 0.26965 0.0
C543 C 0.92026 0.05053 0.26153 0.0
C544 C 0.9204 0.03796 0.19604 0.0
C545 C 0.94884 0.01926 0.74334 0.0
C546 C 0.96728 0.01771 0.76842 0.0
C547 C 0.93446 0.01777 0.80071 0.0
C548 C 0.93802 0.01457 0.88518 0.0
C549 C 0.95649 0.01333 0.91094 0.0
C550 C 0.97097 0.01484 0.85311 0.0
C551 C 0.92236 0.01264 0.94545 0.0
C552 C 0.92153 0.02422 0.0151 0.0
C553 C 0.90755 1.00031 0.9312 0.0
C554 C 0.90809 0.98663 0.86301 0.0
C555 C 0.92301 0.97456 0.85548 0.0
C556 C 0.92354 0.96181 0.79077 0.0
C557 C 0.90916 0.96091 0.73346 0.0
C558 C 0.8942 0.97273 0.74087 0.0
C559 C 0.89361 0.98552 0.80544 0.0
H560 H 0.9096 0.95102 0.6834 0.0
H561 H 0.90566 0.0726 0.32039 0.0
H562 H 0.50092 0.85435 0.26791 0.0
H563 H 0.50083 0.88043 0.17358 0.0
H564 H 0.53962 0.85292 0.01509 0.0
H565 H 0.54049 0.82701 0.112 0.0
H566 H 0.54981 0.8871 0.03013 0.0
H567 H 0.49231 0.85867 0.96467 0.0
H568 H 0.46175 0.84527 0.99186 0.0
H569 H 0.44355 0.89646 0.09378 0.0
H570 H 0.47409 0.91011 0.06828 0.0
H571 H 0.53899 0.94867 0.68768 0.0
H572 H 0.53919 0.92194 0.7798 0.0
H573 H 0.50487 0.95078 0.95381 0.0
H574 H 0.50465 0.97761 0.86151 0.0
H575 H 0.49243 0.91581 0.92846 0.0
H576 H 0.5502 0.94404 0.99355 0.0
H577 H 0.58056 0.95747 0.96243 0.0
H578 H 0.59805 0.90635 0.85717 0.0
H579 H 0.56767 0.89269 0.88647 0.0
C580 C 0.50951 0.85376 0.21318 0.0
C581 C 0.52081 0.83843 0.19847 0.0
C582 C 0.50927 0.86871 0.15837 0.0
C583 C 0.52007 0.86878 0.08604 0.0
C584 C 0.53111 0.85335 0.07015 0.0
C585 C 0.53144 0.83837 0.12537 0.0
C586 C 0.52028 0.88515 0.02897 0.0
C587 C 0.53723 0.89314 0.00693 0.0
C588 C 0.50393 0.89353 0.99971 0.0
C589 C 0.48556 0.88535 0.01529 0.0
C590 C 0.48184 0.86703 0.9935 0.0
C591 C 0.46451 0.85939 0.00851 0.0
C592 C 0.45073 0.86999 0.04473 0.0
C593 C 0.45424 0.88826 0.06584 0.0
C594 C 0.47156 0.89596 0.05107 0.0
C595 C 0.53161 0.94939 0.7459 0.0
C596 C 0.52184 0.96532 0.76721 0.0
C597 C 0.53175 0.93407 0.79874 0.0
C598 C 0.52212 0.93424 0.8744 0.0
C599 C 0.51241 0.95021 0.89597 0.0
C600 C 0.51238 0.9656 0.84331 0.0
C601 C 0.52192 0.91768 0.92995 0.0
C602 C 0.50498 0.9097 0.95164 0.0
C603 C 0.53826 0.90927 0.95855 0.0
C604 C 0.55659 0.91739 0.9415 0.0
C605 C 0.56047 0.9357 0.96319 0.0
C606 C 0.57769 0.94335 0.94596 0.0
C607 C 0.59121 0.93278 0.90767 0.0
C608 C 0.58755 0.91452 0.88673 0.0
C609 C 0.57034 0.90682 0.90369 0.0
H610 H 0.60454 0.93872 0.89438 0.0
H611 H 0.43732 0.86406 0.05627 0.0
H612 H 0.68597 0.5113 0.23092 0.0
H613 H 0.65785 0.50621 0.14963 0.0
H614 H 0.66298 0.56051 0.04564 0.0
H615 H 0.69068 0.56572 0.12759 0.0
H616 H 0.62903 0.55566 0.08193 0.0
H617 H 0.67321 0.51906 0.93587 0.0
H618 H 0.69676 0.49512 0.9195 0.0
H619 H 0.65813 0.45411 0.99939 0.0
H620 H 0.63441 0.47785 0.01728 0.0
H621 H 0.57401 0.54537 0.71447 0.0
H622 H 0.59978 0.54832 0.81189 0.0
H623 H 0.57989 0.50136 0.94778 0.0
H624 H 0.55371 0.4987 0.85176 0.0
H625 H 0.61949 0.50106 0.90337 0.0
H626 H 0.57432 0.53851 0.03444 0.0
H627 H 0.55108 0.56293 0.04117 0.0
H628 H 0.59221 0.60321 0.98227 0.0
H629 H 0.61563 0.57897 0.97258 0.0
C630 C 0.68119 0.52207 0.1901 0.0
C631 C 0.69062 0.53896 0.18638 0.0
C632 C 0.66505 0.51917 0.14342 0.0
C633 C 0.65812 0.53294 0.09055 0.0
C634 C 0.66775 0.54966 0.08608 0.0
C635 C 0.6837 0.55262 0.13312 0.0
C636 C 0.64085 0.5302 0.04021 0.0
C637 C 0.62711 0.54377 0.04239 0.0
C638 C 0.63788 0.51454 0.98946 0.0
C639 C 0.65211 0.50026 0.97886 0.0
C640 C 0.66979 0.50495 0.95059 0.0
C641 C 0.68315 0.49142 0.94092 0.0
C642 C 0.67896 0.47311 0.95865 0.0
C643 C 0.66137 0.4683 0.98586 0.0
C644 C 0.64796 0.48178 0.99573 0.0
C645 C 0.57505 0.53576 0.76551 0.0
C646 C 0.56183 0.5218 0.77534 0.0
C647 C 0.58979 0.53745 0.82117 0.0
C648 C 0.59187 0.52503 0.88718 0.0
C649 C 0.57864 0.51108 0.89728 0.0
C650 C 0.56363 0.50963 0.84263 0.0
C651 C 0.60798 0.52658 0.94463 0.0
C652 C 0.62144 0.51284 0.94355 0.0
C653 C 0.61078 0.54217 0.99562 0.0
C654 C 0.59673 0.55684 0.00181 0.0
C655 C 0.57839 0.55253 0.02182 0.0
C656 C 0.56517 0.56636 0.02622 0.0
C657 C 0.57014 0.5846 0.01167 0.0
C658 C 0.58836 0.58906 0.99294 0.0
C659 C 0.60162 0.57528 0.98799 0.0
H660 H 0.5599 0.59529 0.01519 0.0
H661 H 0.68932 0.46266 0.9511 0.0
H662 H 0.02665 0.67718 0.27392 0.0
H663 H 0.02695 0.65097 0.18025 0.0
H664 H 0.99073 0.67943 0.01276 0.0
H665 H 0.98965 0.70549 0.10864 0.0
H666 H 0.97937 0.6455 0.02723 0.0
H667 H 0.03797 0.67249 0.97197 0.0
H668 H 0.06854 0.6853 0.00426 0.0
H669 H 0.08477 0.6339 0.11098 0.0
H670 H 0.05419 0.62085 0.08041 0.0
H671 H 0.99118 0.58248 0.69211 0.0
H672 H 0.99101 0.6096 0.78161 0.0
H673 H 0.024 0.58097 0.96181 0.0
H674 H 0.02433 0.5538 0.87174 0.0
H675 H 0.03693 0.61529 0.93778 0.0
H676 H 0.97766 0.58859 0.99194 0.0
H677 H 0.94732 0.576 0.95374 0.0
H678 H 0.9326 0.62744 0.84299 0.0
H679 H 0.96297 0.64027 0.87941 0.0
C680 C 0.01868 0.67794 0.2173 0.0
C681 C 1.00804 0.69358 0.19958 0.0
C682 C 0.01904 0.66292 0.163 0.0
C683 C 1.00901 0.66311 0.08841 0.0
C684 C 0.99863 0.67883 0.06964 0.0
C685 C 0.99819 0.69387 0.12428 0.0
C686 C 1.00892 0.6467 0.03181 0.0
C687 C 0.992 0.63911 0.00674 0.0
C688 C 0.02532 0.63793 0.00594 0.0
C689 C 0.04372 0.64575 0.02462 0.0
C690 C 0.048 0.66396 0.00295 0.0
C691 C 0.06534 0.67126 0.02084 0.0
C692 C 0.07857 0.66044 0.05985 0.0
C693 C 0.0745 0.64228 0.08088 0.0
C694 C 0.05717 0.63492 0.06323 0.0
C695 C 0.99832 0.58191 0.75102 0.0
C696 C 1.00776 0.56595 0.77474 0.0
C697 C 0.99816 0.59744 0.80242 0.0
C698 C 1.00736 0.59741 0.8792 0.0
C699 C 0.01678 0.58143 0.90306 0.0
C700 C 0.0169 0.56585 0.85165 0.0
C701 C 1.00742 0.6141 0.9337 0.0
C702 C 0.02433 0.62172 0.95832 0.0
C703 C 0.99102 0.62296 0.95866 0.0
C704 C 0.97266 0.61534 0.93776 0.0
C705 C 0.968 0.59718 0.95896 0.0
C706 C 0.95079 0.59001 0.93767 0.0
C707 C 0.93806 0.6009 0.89578 0.0
C708 C 0.94249 0.61901 0.87534 0.0
C709 C 0.95969 0.62625 0.89636 0.0
H710 H 0.92475 0.59533 0.87931 0.0
H711 H 0.09199 0.66611 0.07361 0.0
H712 H 0.99899 0.25662 0.33166 0.0
H713 H 0.98964 0.23705 0.44756 0.0
H714 H 0.94846 0.21168 0.29238 0.0
H715 H 0.9572 0.23171 0.17829 0.0
H716 H 0.94106 0.20446 0.4522 0.0
H717 H 0.9939 0.19976 0.26436 0.0
H718 H 0.02266 0.21121 0.20142 0.0
H719 H 0.04686 0.21646 0.44336 0.0
H720 H 0.01822 0.20502 0.50746 0.0
H721 H 0.95656 0.11096 0.37206 0.0
H722 H 0.95019 0.1437 0.38881 0.0
H723 H 0.99214 0.14736 0.57758 0.0
H724 H 0.99884 0.11476 0.55893 0.0
H725 H 0.99922 0.16937 0.45627 0.0
H726 H 0.94652 0.15632 0.61545 0.0
H727 H 0.91716 0.14201 0.6546 0.0
H728 H 0.89107 0.16616 0.44245 0.0
H729 H 0.92033 0.18049 0.40103 0.0
C730 C 0.98715 0.24772 0.3241 0.0
C731 C 0.97922 0.24512 0.24551 0.0
C732 C 0.98186 0.23646 0.39032 0.0
C733 C 0.96895 0.22234 0.37726 0.0
C734 C 0.95868 0.22224 0.30359 0.0
C735 C 0.96377 0.23364 0.23802 0.0
C736 C 0.96998 0.20504 0.42542 0.0
C737 C 0.95374 0.19674 0.45421 0.0
C738 C 0.98663 0.19509 0.42887 0.0
C739 C 1.00386 0.20191 0.39072 0.0
C740 C 1.00534 0.20347 0.30403 0.0
C741 C 0.02161 0.20993 0.26816 0.0
C742 C 0.03653 0.21469 0.31841 0.0
C743 C 0.03525 0.21287 0.40457 0.0
C744 C 0.01901 0.20641 0.44071 0.0
C745 C 0.96405 0.11871 0.41847 0.0
C746 C 0.9784 0.11058 0.46307 0.0
C747 C 0.9603 0.13735 0.42875 0.0
C748 C 0.97063 0.14798 0.48487 0.0
C749 C 0.98399 0.13943 0.53414 0.0
C750 C 0.9879 0.1209 0.523 0.0
C751 C 0.97009 0.16825 0.47975 0.0
C752 C 0.98655 0.17713 0.45854 0.0
C753 C 0.95349 0.17829 0.48046 0.0
C754 C 0.93574 0.16966 0.5053 0.0
C755 C 0.93458 0.15863 0.57688 0.0
C756 C 0.91792 0.15047 0.5995 0.0
C757 C 0.90225 0.1532 0.55117 0.0
C758 C 0.90321 0.1641 0.48004 0.0
C759 C 0.91984 0.1723 0.45708 0.0
H760 H 0.88936 0.14686 0.56878 0.0
H761 H 0.04911 0.2197 0.29056 0.0
H762 H 0.27795 0.98345 0.28129 0.0
H763 H 0.29325 0.97318 0.40856 0.0
H764 H 0.31713 0.02709 0.43831 0.0
H765 H 0.30205 0.03718 0.31147 0.0
H766 H 0.32896 0.97252 0.38956 0.0
H767 H 0.33201 0.03528 0.62388 0.0
H768 H 0.31011 0.05268 0.7094 0.0
H769 H 0.27098 1.00871 0.69198 0.0
H770 H 0.29257 0.99095 0.60653 0.0
H771 H 0.40725 0.02078 0.42891 0.0
H772 H 0.37457 0.01743 0.45811 0.0
H773 H 0.3856 0.97089 0.61498 0.0
H774 H 0.41854 0.97427 0.58714 0.0
H775 H 0.3507 1.00768 0.6344 0.0
H776 H 0.37066 0.94763 0.51302 0.0
H777 H 0.39302 0.93074 0.4272 0.0
H778 H 0.38366 0.96788 0.22483 0.0
H779 H 0.36142 0.98508 0.30998 0.0
C780 C 0.28582 0.99326 0.31736 0.0
C781 C 0.28919 0.01097 0.28648 0.0
C782 C 0.29444 0.98743 0.39023 0.0
C783 C 0.30638 0.99932 0.43305 0.0
C784 C 0.30781 0.01769 0.40733 0.0
C785 C 0.29941 0.02343 0.33417 0.0
C786 C 0.32137 0.99184 0.48497 0.0
C787 C 0.33329 0.97951 0.44573 0.0
C788 C 0.3271 1.00077 0.5586 0.0
C789 C 0.31399 0.01172 0.6087 0.0
C790 C 0.3188 0.02923 0.63863 0.0
C791 C 0.30642 0.03919 0.68702 0.0
C792 C 0.28923 0.03178 0.70642 0.0
C793 C 0.2843 0.01444 0.6769 0.0
C794 C 0.29658 1.00446 0.62814 0.0
C795 C 0.40284 0.01014 0.47148 0.0
C796 C 0.41543 0.99757 0.5044 0.0
C797 C 0.38418 1.00834 0.48862 0.0
C798 C 0.37779 0.99396 0.53883 0.0
C799 C 0.39035 0.9821 0.57635 0.0
C800 C 0.40908 0.98388 0.55916 0.0
C801 C 0.35811 0.9894 0.53532 0.0
C802 C 0.34566 0.99967 0.58241 0.0
C803 C 0.35164 0.97827 0.46993 0.0
C804 C 0.36444 0.96758 0.41771 0.0
C805 C 0.3734 0.95215 0.4502 0.0
C806 C 0.38606 0.94256 0.40177 0.0
C807 C 0.38976 0.94824 0.32061 0.0
C808 C 0.38077 0.96349 0.28765 0.0
C809 C 0.36813 0.97314 0.3359 0.0
H810 H 0.39959 0.94081 0.28327 0.0
H811 H 0.27971 0.0395 0.74418 0.0
H812 H 0.55551 0.30387 0.21107 0.0
H813 H 0.56238 0.31944 0.34025 0.0
H814 H 0.52035 0.28769 0.46446 0.0
H815 H 0.51316 0.27228 0.33287 0.0
H816 H 0.51235 0.3212 0.47657 0.0
H817 H 0.56525 0.2916 0.55416 0.0
H818 H 0.59452 0.27493 0.54491 0.0
H819 H 0.62074 0.32268 0.44257 0.0
H820 H 0.59162 0.33959 0.44974 0.0
H821 H 0.51968 0.41342 0.59371 0.0
H822 H 0.52285 0.38096 0.62767 0.0
H823 H 0.5625 0.37535 0.43008 0.0
H824 H 0.5605 0.40811 0.40164 0.0
H825 H 0.57083 0.3522 0.55007 0.0
H826 H 0.51018 0.36844 0.40558 0.0
H827 H 0.48002 0.3838 0.41069 0.0
H828 H 0.46918 0.35938 0.64832 0.0
H829 H 0.49931 0.34396 0.64453 0.0
C830 C 0.54819 0.29976 0.26664 0.0
C831 C 0.53359 0.28722 0.2621 0.0
C832 C 0.5523 0.30847 0.34117 0.0
C833 C 0.54191 0.30478 0.41283 0.0
C834 C 0.52858 0.29076 0.41021 0.0
C835 C 0.52447 0.28198 0.33514 0.0
C836 C 0.54187 0.3187 0.48006 0.0
C837 C 0.52516 0.32756 0.49581 0.0
C838 C 0.55841 0.32691 0.50782 0.0
C839 C 0.57616 0.31693 0.50311 0.0
C840 C 0.57723 0.29856 0.52939 0.0
C841 C 0.59382 0.28905 0.52448 0.0
C842 C 0.60949 0.29776 0.49336 0.0
C843 C 0.60861 0.31598 0.46702 0.0
C844 C 0.59205 0.32556 0.47179 0.0
C845 C 0.5294 0.40531 0.55922 0.0
C846 C 0.53986 0.41331 0.49538 0.0
C847 C 0.53114 0.38673 0.57828 0.0
C848 C 0.54267 0.37555 0.53054 0.0
C849 C 0.5536 0.38366 0.46848 0.0
C850 C 0.55234 0.40238 0.45156 0.0
C851 C 0.54165 0.35524 0.5351 0.0
C852 C 0.55808 0.34523 0.53485 0.0
C853 C 0.52486 0.34581 0.52238 0.0
C854 C 0.5069 0.35513 0.52481 0.0
C855 C 0.50132 0.36638 0.45877 0.0
C856 C 0.48426 0.37508 0.46147 0.0
C857 C 0.47266 0.37249 0.52958 0.0
C858 C 0.47813 0.36128 0.5954 0.0
C859 C 0.49519 0.35257 0.59306 0.0
H860 H 0.45944 0.37919 0.53142 0.0
H861 H 0.62232 0.29037 0.48955 0.0
H862 H 0.24074 0.52205 0.31098 0.0
H863 H 0.21967 0.51484 0.42375 0.0
H864 H 0.22449 0.45721 0.36789 0.0
H865 H 0.24524 0.46453 0.25355 0.0
H866 H 0.19446 0.47399 0.30162 0.0
H867 H 0.22231 0.47054 0.56796 0.0
H868 H 0.24175 0.47968 0.68621 0.0
H869 H 0.21089 0.52932 0.71391 0.0
H870 H 0.19139 0.52065 0.59525 0.0
H871 H 0.10101 0.4744 0.39726 0.0
H872 H 0.13316 0.46534 0.40829 0.0
H873 H 0.14764 0.52008 0.48756 0.0
H874 H 0.1154 0.52898 0.48053 0.0
H875 H 0.16833 0.49605 0.56699 0.0
H876 H 0.15122 0.50824 0.28675 0.0
H877 H 0.1346 0.50605 0.15374 0.0
H878 H 0.14855 0.44905 0.13529 0.0
H879 H 0.16509 0.45086 0.26886 0.0
C880 C 0.23824 0.50779 0.32652 0.0
C881 C 0.24412 0.49382 0.27324 0.0
C882 C 0.22631 0.50363 0.39161 0.0
C883 C 0.22013 0.48551 0.40263 0.0
C884 C 0.22901 0.47128 0.35995 0.0
C885 C 0.24076 0.47546 0.29421 0.0
C886 C 0.20069 0.4829 0.42623 0.0
C887 C 0.18879 0.47808 0.36109 0.0
C888 C 0.19334 0.48938 0.50185 0.0
C889 C 0.20535 0.4949 0.57229 0.0
C890 C 0.21978 0.48352 0.59852 0.0
C891 C 0.23078 0.48859 0.66592 0.0
C892 C 0.22755 0.50506 0.70763 0.0
C893 C 0.21336 0.51654 0.68172 0.0
C894 C 0.20229 0.51152 0.61448 0.0
C895 C 0.111 0.48442 0.41821 0.0
C896 C 0.10576 0.5025 0.43648 0.0
C897 C 0.12935 0.47923 0.42446 0.0
C898 C 0.14278 0.49209 0.44797 0.0
C899 C 0.13748 0.50993 0.4694 0.0
C900 C 0.11912 0.5151 0.46377 0.0
C901 C 0.16248 0.48761 0.44157 0.0
C902 C 0.17418 0.49121 0.50917 0.0
C903 C 0.16995 0.48105 0.3664 0.0
C904 C 0.15906 0.47959 0.28867 0.0
C905 C 0.15047 0.49516 0.25508 0.0
C906 C 0.14114 0.49401 0.17938 0.0
C907 C 0.14044 0.4774 0.1363 0.0
C908 C 0.14903 0.46188 0.16894 0.0
C909 C 0.15836 0.46295 0.24468 0.0
H910 H 0.13332 0.47656 0.07744 0.0
H911 H 0.23602 0.50891 0.76006 0.0
H912 H 1.00288 0.77255 0.02764 0.0
H913 H 1.00359 0.79187 0.9039 0.0
H914 H 0.95813 0.82314 0.99946 0.0
H915 H 0.95681 0.80334 0.12063 0.0
H916 H 0.96267 0.83023 0.83647 0.0
H917 H 1.00179 0.83125 0.0903 0.0
H918 H 0.02344 0.81679 0.18839 0.0
H919 H 0.05921 0.80297 0.98636 0.0
H920 H 0.03787 0.81756 0.88749 0.0
H921 H 0.98322 0.92101 0.94378 0.0
H922 H 0.97522 0.88885 0.92162 0.0
H923 H 0.02621 0.88068 0.79078 0.0
H924 H 0.03419 0.91296 0.81171 0.0
H925 H 0.02237 0.85798 0.91759 0.0
H926 H 0.98549 0.87646 0.6943 0.0
H927 H 0.96265 0.89408 0.61574 0.0
H928 H 0.92001 0.87439 0.77718 0.0
H929 H 0.94269 0.85677 0.85726 0.0
C930 C 0.99223 0.78272 0.01943 0.0
C931 C 0.98026 0.78703 0.08482 0.0
C932 C 0.99271 0.79384 0.94879 0.0
C933 C 0.98155 0.80949 0.94488 0.0
C934 C 0.96715 0.81137 0.00198 0.0
C935 C 0.96645 0.80009 0.07167 0.0
C936 C 0.98808 0.82623 0.9019 0.0
C937 C 0.97578 0.83633 0.85299 0.0
C938 C 1.00533 0.83404 0.92284 0.0
C939 C 0.01816 0.82522 0.98164 0.0
C940 C 0.01425 0.82505 0.067 0.0
C941 C 0.02646 0.81687 0.12266 0.0
C942 C 0.0426 0.80883 0.09353 0.0
C943 C 0.04665 0.80912 0.00877 0.0
C944 C 0.03454 0.81739 0.95291 0.0
C945 C 0.99254 0.91245 0.90874 0.0
C946 C 1.00945 0.91939 0.88059 0.0
C947 C 0.98788 0.89412 0.89542 0.0
C948 C 1.0 0.88245 0.85337 0.0
C949 C 0.0166 0.88951 0.82264 0.0
C950 C 0.02126 0.90786 0.83577 0.0
C951 C 0.99667 0.86245 0.85465 0.0
C952 C 1.00958 0.85179 0.89696 0.0
C953 C 0.97976 0.85452 0.82956 0.0
C954 C 0.96592 0.86513 0.78161 0.0
C955 C 0.97129 0.87585 0.71314 0.0
C956 C 0.95834 0.88588 0.66832 0.0
C957 C 0.93986 0.88534 0.69134 0.0
C958 C 0.93433 0.87475 0.75922 0.0
C959 C 0.94725 0.86469 0.8042 0.0
H960 H 0.92983 0.89313 0.65667 0.0
H961 H 0.052 0.80245 0.13668 0.0
H962 H 0.73952 0.06476 0.13534 0.0
H963 H 0.72024 0.06759 0.01277 0.0
H964 H 0.74318 0.01771 0.91421 0.0
H965 H 0.76188 0.01435 0.03874 0.0
H966 H 0.71366 0.06451 0.84418 0.0
H967 H 0.71251 0.98904 0.90409 0.0
H968 H 0.72229 0.96601 0.0075 0.0
H969 H 0.71218 1.00436 0.2042 0.0
H970 H 0.70262 0.02767 0.10174 0.0
H971 H 0.61924 1.0082 0.83397 0.0
H972 H 0.6523 0.01019 0.8093 0.0
H973 H 0.65272 0.06526 0.90808 0.0
H974 H 0.61956 0.06347 0.92966 0.0
H975 H 0.67439 0.01194 0.92851 0.0
H976 H 0.6849 0.08849 0.87339 0.0
H977 H 0.67421 0.11369 0.78342 0.0
H978 H 0.66352 0.07535 0.58729 0.0
H979 H 0.67339 0.04976 0.67752 0.0
C980 C 0.74111 0.05489 0.08561 0.0
C981 C 0.75151 0.03894 0.09772 0.0
C982 C 0.7302 0.0566 0.01509 0.0
C983 C 0.72977 0.04242 0.95637 0.0
C984 C 0.74307 0.02857 0.96008 0.0
C985 C 0.7538 0.02668 0.03135 0.0
C986 C 0.71231 0.03912 0.91212 0.0
C987 C 0.70512 0.05284 0.86075 0.0
C988 C 0.70118 0.02391 0.93397 0.0
C989 C 0.70706 1.01006 0.99548 0.0
C990 C 0.71246 0.99253 0.96942 0.0
C991 C 0.71801 0.97948 0.02778 0.0
C992 C 0.71802 0.98379 0.1123 0.0
C993 C 0.7124 1.00114 0.13867 0.0
C994 C 0.70693 0.01426 0.08055 0.0
C995 C 0.62642 0.02081 0.84917 0.0
C996 C 0.61701 0.03561 0.88463 0.0
C997 C 0.64524 0.02201 0.83425 0.0
C998 C 0.65505 0.03798 0.85542 0.0
C999 C 0.64547 0.05303 0.88822 0.0
C1000 C 0.62657 0.0519 0.9021 0.0
C1001 C 0.67536 0.03746 0.86057 0.0
C1002 C 0.68306 0.02308 0.90651 0.0
C1003 C 0.68672 0.0522 0.83471 0.0
C1004 C 0.67973 0.06726 0.78218 0.0
C1005 C 0.68008 0.08543 0.8113 0.0
C1006 C 0.67405 0.09974 0.76052 0.0
C1007 C 0.66799 0.09606 0.67994 0.0
C1008 C 0.6679 0.07807 0.65017 0.0
C1009 C 0.67353 0.06365 0.70134 0.0
H1010 H 0.66348 0.10716 0.64039 0.0
H1011 H 0.72224 0.97366 0.15742 0.0
H1012 H 0.53067 0.75991 0.03349 0.0
H1013 H 0.53045 0.73973 0.91276 0.0
H1014 H 0.57539 0.7091 0.01736 0.0
H1015 H 0.57645 0.72992 0.13469 0.0
H1016 H 0.57075 0.69901 0.86045 0.0
H1017 H 0.52922 0.70235 0.11297 0.0
H1018 H 0.50719 0.7192 0.20092 0.0
H1019 H 0.47535 0.73288 0.98552 0.0
H1020 H 0.49703 0.71585 0.8968 0.0
H1021 H 0.52002 0.61549 0.03894 0.0
H1022 H 0.52776 0.64806 0.0303 0.0
H1023 H 0.53616 0.64298 0.76621 0.0
H1024 H 0.52875 0.61014 0.77501 0.0
H1025 H 0.51049 0.67406 0.95095 0.0
H1026 H 0.56902 0.67884 0.71301 0.0
H1027 H 0.59229 0.65901 0.64832 0.0
H1028 H 0.59373 0.6255 0.86716 0.0
H1029 H 0.57049 0.64517 0.93331 0.0
C1030 C 0.54137 0.74972 0.02773 0.0
C1031 C 0.553 0.7458 0.09498 0.0
C1032 C 0.54116 0.73807 0.95882 0.0
C1033 C 0.5521 0.72225 0.95904 0.0
C1034 C 0.56643 0.72092 0.01693 0.0
C1035 C 0.56697 0.7328 0.08453 0.0
C1036 C 0.54519 0.70497 0.92182 0.0
C1037 C 0.55739 0.69365 0.87814 0.0
C1038 C 0.52784 0.69784 0.94589 0.0
C1039 C 0.51484 0.70815 0.99842 0.0
C1040 C 0.51754 0.70904 0.08461 0.0
C1041 C 0.50513 0.71858 0.13451 0.0
C1042 C 0.49 0.72726 0.09873 0.0
C1043 C 0.48714 0.72624 0.01308 0.0
C1044 C 0.49944 0.7166 0.96298 0.0
C1045 C 0.52353 0.62134 0.97919 0.0
C1046 C 0.5238 0.61043 0.90778 0.0
C1047 C 0.52791 0.6399 0.9741 0.0
C1048 C 0.53244 0.64792 0.89738 0.0
C1049 C 0.53279 0.63701 0.82583 0.0
C1050 C 0.52861 0.61833 0.83108 0.0
C1051 C 0.53645 0.66779 0.89406 0.0
C1052 C 0.52355 0.67956 0.92966 0.0
C1053 C 0.55337 0.675 0.86509 0.0
C1054 C 0.56765 0.66324 0.82715 0.0
C1055 C 0.5742 0.66718 0.74711 0.0
C1056 C 0.58742 0.65599 0.71029 0.0
C1057 C 0.59437 0.64091 0.7534 0.0
C1058 C 0.58821 0.63709 0.83366 0.0
C1059 C 0.57498 0.64824 0.87075 0.0
H1060 H 0.60461 0.63225 0.72481 0.0
H1061 H 0.48043 0.73468 0.13744 0.0
H1062 H 0.77239 0.51356 0.06324 0.0
H1063 H 0.79279 0.50376 0.95237 0.0
H1064 H 0.80822 0.45639 0.0959 0.0
H1065 H 0.78762 0.466 0.20688 0.0
H1066 H 0.82724 0.5048 0.03973 0.0
H1067 H 0.83348 0.42807 0.95163 0.0
H1068 H 0.81339 0.40238 0.90973 0.0
H1069 H 0.77401 0.44038 0.81221 0.0
H1070 H 0.79397 0.46629 0.85232 0.0
H1071 H 0.91622 0.4557 0.96674 0.0
H1072 H 0.88267 0.45229 0.97067 0.0
H1073 H 0.87692 0.50433 0.84642 0.0
H1074 H 0.91028 0.50806 0.84456 0.0
H1075 H 0.85128 0.45331 0.87133 0.0
H1076 H 0.84732 0.5306 0.96997 0.0
H1077 H 0.86692 0.5543 0.03458 0.0
H1078 H 0.9011 0.51254 0.14019 0.0
H1079 H 0.88146 0.48862 0.0784 0.0
C1080 C 0.77917 0.50043 0.06903 0.0
C1081 C 0.7789 0.49079 0.14449 0.0
C1082 C 0.79082 0.49482 0.00535 0.0
C1083 C 0.80223 0.47957 0.0168 0.0
C1084 C 0.7995 0.46819 0.08586 0.0
C1085 C 0.78784 0.47378 0.1496 0.0
C1086 C 0.82046 0.47957 0.9771 0.0
C1087 C 0.83233 0.49385 1.00042 0.0
C1088 C 0.82725 0.46466 0.93061 0.0
C1089 C 0.81519 0.44915 0.90565 0.0
C1090 C 0.82058 0.43096 0.9209 0.0
C1091 C 0.8092 0.41635 0.89751 0.0
C1092 C 0.79241 0.41975 0.85854 0.0
C1093 C 0.78699 0.43777 0.84271 0.0
C1094 C 0.79831 0.45243 0.86596 0.0
C1095 C 0.90774 0.46616 0.93857 0.0
C1096 C 0.91566 0.48232 0.90713 0.0
C1097 C 0.88864 0.46413 0.94009 0.0
C1098 C 0.8774 0.47821 0.90974 0.0
C1099 C 0.88543 0.49344 0.87066 0.0
C1100 C 0.90441 0.49562 0.87034 0.0
C1101 C 0.8578 0.47878 0.93268 0.0
C1102 C 0.84593 0.46453 0.9081 0.0
C1103 C 0.85097 0.49344 0.98097 0.0
C1104 C 0.8631 0.50779 0.01777 0.0
C1105 C 0.85901 0.52646 0.007 0.0
C1106 C 0.87009 0.53995 0.04347 0.0
C1107 C 0.88532 0.53494 0.09095 0.0
C1108 C 0.88941 0.51642 0.10269 0.0
C1109 C 0.87832 0.50289 0.06678 0.0
H1110 H 0.8939 0.5454 0.11897 0.0
H1111 H 0.78363 0.40842 0.84048 0.0
H1112 H 0.03948 0.22342 0.00138 0.0
H1113 H 0.04448 0.19382 0.93115 0.0
H1114 H 0.9859 0.18663 0.90698 0.0
H1115 H 0.981 0.21611 0.97423 0.0
H1116 H 0.03608 0.16056 0.97666 0.0
H1117 H 0.97335 0.16208 0.75373 0.0
H1118 H 0.95715 0.18534 0.66992 0.0
H1119 H 1.00689 0.21663 0.64718 0.0
H1120 H 0.02334 0.19384 0.73209 0.0
H1121 H 0.01379 0.06857 0.88354 0.0
H1122 H 0.01366 0.10085 0.92401 0.0
H1123 H 0.02404 0.1166 0.67026 0.0
H1124 H 0.02309 0.08433 0.62878 0.0
H1125 H 1.00236 0.14 0.72561 0.0
H1126 H 0.05836 0.11725 0.83526 0.0
H1127 H 0.07878 0.09662 0.91347 0.0
H1128 H 0.05066 0.10999 0.13945 0.0
H1129 H 0.02991 0.13053 0.06242 0.0
C1130 C 0.02775 0.21575 0.97863 0.0
C1131 C 1.00985 0.22222 0.9929 0.0
C1132 C 0.03058 0.1987 0.93933 0.0
C1133 C 0.01559 0.18785 0.91277 0.0
C1134 C 0.99778 0.1947 0.92485 0.0
C1135 C 0.99497 0.21161 0.9638 0.0
C1136 C 0.01821 0.16892 0.8774 0.0
C1137 C 0.02879 0.15612 0.92147 0.0
C1138 C 1.0092 0.16303 0.80393 0.0
C1139 C 0.99954 0.17628 0.74953 0.0
C1140 C 0.98087 0.17384 0.73027 0.0
C1141 C 0.97164 0.18695 0.68277 0.0
C1142 C 0.98102 0.20232 0.65264 0.0
C1143 C 0.99965 0.20469 0.67035 0.0
C1144 C 1.00891 0.19175 0.71854 0.0
C1145 C 0.01608 0.07888 0.83625 0.0
C1146 C 0.0186 0.07371 0.75291 0.0
C1147 C 0.01613 0.09745 0.85961 0.0
C1148 C 0.01925 0.11145 0.80083 0.0
C1149 C 0.0216 0.10627 0.71733 0.0
C1150 C 0.02115 0.08771 0.69362 0.0
C1151 C 0.01986 0.13138 0.82625 0.0
C1152 C 1.00983 0.14439 0.78034 0.0
C1153 C 0.03002 0.13762 0.89622 0.0
C1154 C 0.04248 0.12532 0.94291 0.0
C1155 C 0.05646 0.1157 0.90155 0.0
C1156 C 0.0681 0.10403 0.94569 0.0
C1157 C 0.066 0.10196 0.03135 0.0
C1158 C 0.05227 0.11159 0.07309 0.0
C1159 C 0.04057 0.12327 0.02923 0.0
H1160 H 0.07503 0.09292 0.0654 0.0
H1161 H 0.97384 0.21242 0.61581 0.0
H1162 H 0.32456 0.04617 0.07956 0.0
H1163 H 0.35412 0.0461 0.00785 0.0
H1164 H 0.33433 1.00383 0.84318 0.0
H1165 H 0.30456 1.00378 0.91581 0.0
H1166 H 0.36785 0.99484 0.91146 0.0
H1167 H 0.34293 0.04752 0.77179 0.0
H1168 H 0.32838 0.078 0.76182 0.0
H1169 H 0.37274 0.10183 0.90071 0.0
H1170 H 0.38746 0.07153 0.91216 0.0
H1171 H 0.45078 0.02571 0.63668 0.0
H1172 H 0.41824 0.02678 0.67596 0.0
H1173 H 0.43268 0.01295 0.92753 0.0
H1174 H 0.46524 0.0119 0.88835 0.0
H1175 H 0.4006 0.04914 0.7983 0.0
H1176 H 0.3965 0.98358 0.99847 0.0
H1177 H 0.41162 0.95347 0.00955 0.0
H1178 H 0.42557 0.95556 0.75085 0.0
H1179 H 0.41038 0.98557 0.73828 0.0
C1180 C 0.32632 0.03712 0.02689 0.0
C1181 C 0.31209 0.02498 0.00364 0.0
C1182 C 0.34331 0.03709 0.98573 0.0
C1183 C 0.34667 0.02493 0.91987 0.0
C1184 C 0.33221 0.01332 0.89394 0.0
C1185 C 0.31509 0.01344 0.93491 0.0
C1186 C 0.36559 0.02358 0.88263 0.0
C1187 C 0.37493 1.00673 0.88641 0.0
C1188 C 0.37508 0.03902 0.84989 0.0
C1189 C 0.36621 0.05723 0.84322 0.0
C1190 C 0.34949 0.05925 0.80063 0.0
C1191 C 0.34124 0.07648 0.79463 0.0
C1192 C 0.3496 0.0918 0.83076 0.0
C1193 C 0.36627 0.08994 0.87279 0.0
C1194 C 0.37459 0.07275 0.87891 0.0
C1195 C 0.44703 0.02278 0.70017 0.0
C1196 C 0.46071 0.01862 0.75896 0.0
C1197 C 0.42839 0.02354 0.72283 0.0
C1198 C 0.42286 0.01988 0.80483 0.0
C1199 C 0.43649 0.01573 0.86378 0.0
C1200 C 0.45516 0.01522 0.84132 0.0
C1201 C 0.40292 0.02054 0.82892 0.0
C1202 C 0.39346 0.03725 0.82296 0.0
C1203 C 0.3934 1.00504 0.86064 0.0
C1204 C 0.40241 0.98689 0.8675 0.0
C1205 C 0.40273 0.97757 0.94388 0.0
C1206 C 0.41133 0.96053 0.95049 0.0
C1207 C 0.4196 0.95262 0.88102 0.0
C1208 C 0.41923 0.96171 0.80472 0.0
C1209 C 0.41064 0.97875 0.79784 0.0
H1210 H 0.42627 0.93943 0.88629 0.0
H1211 H 0.34318 0.10512 0.82603 0.0
H1212 H 0.53335 0.30219 0.90369 0.0
H1213 H 0.53189 0.33221 0.83407 0.0
H1214 H 0.48716 0.34789 0.99375 0.0
H1215 H 0.48868 0.31801 0.06314 0.0
H1216 H 0.48248 0.36155 0.83435 0.0
H1217 H 0.53042 0.35971 0.04246 0.0
H1218 H 0.55846 0.34722 0.10662 0.0
H1219 H 0.58861 0.35781 0.88259 0.0
H1220 H 0.56064 0.3701 0.81663 0.0
H1221 H 0.48728 0.45916 0.8315 0.0
H1222 H 0.48705 0.42673 0.87231 0.0
H1223 H 0.53584 0.41767 0.72704 0.0
H1224 H 0.53551 0.44981 0.68244 0.0
H1225 H 0.53883 0.39947 0.86492 0.0
H1226 H 0.49189 0.40407 0.66065 0.0
H1227 H 0.46405 0.41632 0.59428 0.0
H1228 H 0.4319 0.39992 0.80508 0.0
H1229 H 0.45968 0.38799 0.87365 0.0
C1230 C 0.5228 0.31181 0.92178 0.0
C1231 C 0.51096 0.30762 0.98813 0.0
C1232 C 0.52209 0.32908 0.88266 0.0
C1233 C 0.50954 0.34254 0.90912 0.0
C1234 C 0.49695 0.33786 0.9718 0.0
C1235 C 0.49776 0.32071 0.01128 0.0
C1236 C 0.51045 0.36192 0.87725 0.0
C1237 C 0.49476 0.36988 0.84168 0.0
C1238 C 0.52657 0.37281 0.88453 0.0
C1239 C 0.54342 0.36564 0.92438 0.0
C1240 C 0.54301 0.35926 0.00672 0.0
C1241 C 0.55888 0.35223 0.04342 0.0
C1242 C 0.5753 0.35168 0.99865 0.0
C1243 C 0.57588 0.35821 0.91714 0.0
C1244 C 0.56002 0.36521 0.88007 0.0
C1245 C 0.49785 0.45021 0.80755 0.0
C1246 C 0.51125 0.45708 0.75267 0.0
C1247 C 0.49768 0.43159 0.83071 0.0
C1248 C 0.51112 0.4194 0.80087 0.0
C1249 C 0.52502 0.42652 0.74936 0.0
C1250 C 0.52482 0.44496 0.72384 0.0
C1251 C 0.51071 0.39932 0.82326 0.0
C1252 C 0.52654 0.39119 0.85694 0.0
C1253 C 0.49472 0.38827 0.81381 0.0
C1254 C 0.47795 0.39536 0.77275 0.0
C1255 C 0.47895 0.40332 0.69337 0.0
C1256 C 0.46316 0.41018 0.65531 0.0
C1257 C 0.44622 0.40896 0.69555 0.0
C1258 C 0.44504 0.40087 0.774 0.0
C1259 C 0.46081 0.39407 0.81252 0.0
H1260 H 0.434 0.41422 0.66587 0.0
H1261 H 0.58758 0.34624 0.02716 0.0
H1262 H 0.20918 0.47668 0.03495 0.0
H1263 H 0.17919 0.47886 0.96961 0.0
H1264 H 0.19451 0.53093 0.86265 0.0
H1265 H 0.22445 0.52929 0.93283 0.0
H1266 H 0.16178 0.53407 0.923 0.0
H1267 H 0.18873 0.48777 0.74844 0.0
H1268 H 0.20435 0.45855 0.71758 0.0
H1269 H 0.1605 0.42867 0.83396 0.0
H1270 H 0.1448 0.45766 0.86678 0.0
H1271 H 0.07914 0.50784 0.63114 0.0
H1272 H 0.11179 0.50628 0.6682 0.0
H1273 H 0.09806 0.51586 0.9246 0.0
H1274 H 0.06549 0.51733 0.8881 0.0
H1275 H 0.131 0.48327 0.77193 0.0
H1276 H 0.13225 0.5413 0.01491 0.0
H1277 H 0.11615 0.57027 0.0447 0.0
H1278 H 0.10369 0.57668 0.78591 0.0
H1279 H 0.11993 0.5479 0.75444 0.0
C1280 C 0.20633 0.48859 0.99702 0.0
C1281 C 0.21938 0.50291 0.99037 0.0
C1282 C 0.18908 0.48973 0.95858 0.0
C1283 C 0.18432 0.50498 0.90983 0.0
C1284 C 0.19764 0.51896 0.89973 0.0
C1285 C 0.21494 0.51792 0.93917 0.0
C1286 C 0.16518 0.50678 0.87428 0.0
C1287 C 0.15519 0.52293 0.88963 0.0
C1288 C 0.15621 0.49236 0.83034 0.0
C1289 C 0.16564 0.47493 0.8102 0.0
C1290 C 0.18248 0.47498 0.76761 0.0
C1291 C 0.19133 0.45847 0.74977 0.0
C1292 C 0.18341 0.4418 0.77363 0.0
C1293 C 0.16661 0.4416 0.81541 0.0
C1294 C 0.15773 0.45806 0.83359 0.0
C1295 C 0.08303 0.5096 0.69545 0.0
C1296 C 0.06951 0.51271 0.75643 0.0
C1297 C 0.10178 0.50866 0.71669 0.0
C1298 C 0.1076 0.5111 0.79934 0.0
C1299 C 0.09411 0.51415 0.86026 0.0
C1300 C 0.07538 0.51491 0.83921 0.0
C1301 C 0.12766 0.51034 0.82228 0.0
C1302 C 0.13774 0.4944 0.80479 0.0
C1303 C 0.1367 0.52488 0.86447 0.0
C1304 C 0.12719 0.54237 0.88248 0.0
C1305 C 0.12616 0.54895 0.96433 0.0
C1306 C 0.11699 0.56532 0.98151 0.0
C1307 C 0.10886 0.57528 0.91727 0.0
C1308 C 0.10994 0.56892 0.83565 0.0
C1309 C 0.11911 0.55257 0.81812 0.0
H1310 H 0.10175 0.58794 0.93072 0.0
H1311 H 0.1903 0.42904 0.75976 0.0
H1312 H 0.027 0.80553 0.39379 0.0
H1313 H 0.03216 0.83583 0.45855 0.0
H1314 H 0.9768 0.85139 0.39721 0.0
H1315 H 0.97139 0.82127 0.3359 0.0
H1316 H 1.00657 0.87654 0.3402 0.0
H1317 H 0.98513 0.8431 0.58498 0.0
H1318 H 0.98848 0.81714 0.6817 0.0
H1319 H 0.04226 0.83629 0.74968 0.0
H1320 H 0.03938 0.86217 0.6519 0.0
H1321 H 0.99128 0.96347 0.50709 0.0
H1322 H 0.98958 0.93129 0.46623 0.0
H1323 H 0.03239 0.91828 0.64175 0.0
H1324 H 0.03283 0.9503 0.68792 0.0
H1325 H 0.01385 0.89069 0.63922 0.0
H1326 H 0.03793 0.92304 0.41124 0.0
H1327 H 0.04106 0.94638 0.30139 0.0
H1328 H 0.99049 0.92808 0.19132 0.0
H1329 H 0.98689 0.90481 0.3013 0.0
C1330 C 0.01579 0.81522 0.39636 0.0
C1331 C 0.99881 0.81092 0.35905 0.0
C1332 C 0.01881 0.83262 0.43257 0.0
C1333 C 1.00494 0.84606 0.43164 0.0
C1334 C 0.9878 0.84143 0.39785 0.0
C1335 C 0.98472 0.82411 0.36303 0.0
C1336 C 1.00812 0.86519 0.46288 0.0
C1337 C 1.00794 0.8797 0.40569 0.0
C1338 C 0.01091 0.86928 0.54775 0.0
C1339 C 0.01215 0.85441 0.61019 0.0
C1340 C 0.99774 0.84168 0.61998 0.0
C1341 C 0.99957 0.82696 0.67483 0.0
C1342 C 0.01567 0.82493 0.72095 0.0
C1343 C 0.02986 0.83778 0.7133 0.0
C1344 C 0.02813 0.85249 0.65823 0.0
C1345 C 1.00029 0.95374 0.53721 0.0
C1346 C 0.01236 0.95959 0.60002 0.0
C1347 C 0.9995 0.93524 0.51305 0.0
C1348 C 0.01139 0.92208 0.54791 0.0
C1349 C 0.02312 0.92789 0.61258 0.0
C1350 C 0.02344 0.94633 0.6389 0.0
C1351 C 0.01149 0.90247 0.51672 0.0
C1352 C 0.01245 0.88777 0.57364 0.0
C1353 C 1.01013 0.89811 0.43081 0.0
C1354 C 0.01206 0.91228 0.36508 0.0
C1355 C 0.02739 0.92409 0.36405 0.0
C1356 C 0.02926 0.9373 0.30168 0.0
C1357 C 0.01596 0.93874 0.23953 0.0
C1358 C 1.00076 0.92697 0.23959 0.0
C1359 C 0.99881 0.91376 0.30192 0.0
H1360 H 0.01745 0.94895 0.1912 0.0
H1361 H 0.01706 0.81348 0.76316 0.0
H1362 H 0.72906 0.99492 0.41119 0.0
H1363 H 0.69841 0.99208 0.47358 0.0
H1364 H 0.68626 0.04759 0.39914 0.0
H1365 H 0.71712 0.05097 0.34537 0.0
H1366 H 0.66875 0.04442 0.52117 0.0
H1367 H 0.67084 1.00369 0.2895 0.0
H1368 H 0.68174 0.97827 0.20163 0.0
H1369 H 0.67238 0.94022 0.40062 0.0
H1370 H 0.66126 0.96541 0.48954 0.0
H1371 H 0.5688 0.01661 0.46015 0.0
H1372 H 0.60126 0.01715 0.41853 0.0
H1373 H 0.61749 0.01063 0.67355 0.0
H1374 H 0.58525 0.01072 0.71634 0.0
H1375 H 0.63193 0.98856 0.46265 0.0
H1376 H 0.63352 0.03929 0.69225 0.0
H1377 H 0.61905 0.06757 0.74502 0.0
H1378 H 0.61843 0.08979 0.49845 0.0
H1379 H 0.63233 0.06139 0.44452 0.0
C1380 C 0.72004 1.00669 0.4106 0.0
C1381 C 0.72567 0.02309 0.3718 0.0
C1382 C 0.70223 1.00494 0.44468 0.0
C1383 C 0.68935 0.01937 0.43903 0.0
C1384 C 0.69548 0.03605 0.40465 0.0
C1385 C 0.71331 0.03794 0.37293 0.0
C1386 C 0.66952 0.01733 0.46694 0.0
C1387 C 0.66096 0.03205 0.50833 0.0
C1388 C 0.65859 1.00157 0.44916 0.0
C1389 C 0.66544 0.98644 0.39643 0.0
C1390 C 0.67122 0.98992 0.31466 0.0
C1391 C 0.67742 0.97556 0.26465 0.0
C1392 C 0.6779 0.95768 0.29574 0.0
C1393 C 0.67206 0.95409 0.37673 0.0
C1394 C 0.66575 0.96839 0.42687 0.0
C1395 C 0.57925 0.01532 0.50762 0.0
C1396 C 0.57422 0.01373 0.59186 0.0
C1397 C 0.59785 0.01559 0.48356 0.0
C1398 C 0.61194 0.01418 0.54293 0.0
C1399 C 0.60697 0.01213 0.62668 0.0
C1400 C 0.58842 0.0121 0.65097 0.0
C1401 C 0.6318 0.01536 0.51807 0.0
C1402 C 0.64012 1.00064 0.47652 0.0
C1403 C 0.64233 0.03137 0.53216 0.0
C1404 C 0.63373 0.0482 0.56466 0.0
C1405 C 0.62999 0.0501 0.64953 0.0
C1406 C 0.62192 0.06613 0.67958 0.0
C1407 C 0.61774 0.08043 0.62522 0.0
C1408 C 0.62154 0.07868 0.54058 0.0
C1409 C 0.62945 0.06259 0.51023 0.0
H1410 H 0.61166 0.09288 0.64892 0.0
H1411 H 0.68273 0.94659 0.25693 0.0
H1412 H 0.50423 0.72596 0.39565 0.0
H1413 H 0.49945 0.69536 0.45827 0.0
H1414 H 0.55577 0.68167 0.40692 0.0
H1415 H 0.56084 0.71214 0.34856 0.0
H1416 H 0.52463 0.65652 0.33948 0.0
H1417 H 0.54856 0.68766 0.58381 0.0
H1418 H 0.54685 0.71217 0.68865 0.0
H1419 H 0.49471 0.69146 0.77122 0.0
H1420 H 0.49589 0.66704 0.66541 0.0
H1421 H 0.53867 0.56707 0.49208 0.0
H1422 H 0.54089 0.59932 0.45252 0.0
H1423 H 0.50012 0.61296 0.63664 0.0
H1424 H 0.49922 0.58086 0.68109 0.0
H1425 H 0.51993 0.63936 0.63619 0.0
H1426 H 0.49353 0.60954 0.40219 0.0
H1427 H 0.48983 0.58765 0.28666 0.0
H1428 H 0.54027 0.60677 0.1785 0.0
H1429 H 0.54443 0.6286 0.29399 0.0
C1430 C 0.51573 0.71665 0.40024 0.0
C1431 C 0.5329 0.72159 0.36638 0.0
C1432 C 0.51293 0.69906 0.43522 0.0
C1433 C 0.5272 0.68605 0.43638 0.0
C1434 C 0.54449 0.69131 0.40616 0.0
C1435 C 0.54736 0.70883 0.37291 0.0
C1436 C 0.52423 0.66662 0.46451 0.0
C1437 C 0.52375 0.65269 0.40442 0.0
C1438 C 0.52238 0.66166 0.54901 0.0
C1439 C 0.52213 0.67576 0.61531 0.0
C1440 C 0.53659 0.68847 0.62345 0.0
C1441 C 0.53573 0.70234 0.6831 0.0
C1442 C 0.52055 0.70354 0.73558 0.0
C1443 C 0.50637 0.69063 0.7298 0.0
C1444 C 0.50714 0.67676 0.67005 0.0
C1445 C 0.53018 0.57695 0.52415 0.0
C1446 C 0.51861 0.57126 0.58919 0.0
C1447 C 0.53127 0.59551 0.50074 0.0
C1448 C 0.52018 0.60892 0.5389 0.0
C1449 C 0.50881 0.60319 0.60499 0.0
C1450 C 0.50821 0.5847 0.63039 0.0
C1451 C 0.5207 0.6288 0.51107 0.0
C1452 C 0.52073 0.64293 0.57109 0.0
C1453 C 0.5216 0.63403 0.42596 0.0
C1454 C 0.51938 0.62059 0.35734 0.0
C1455 C 0.50393 0.60896 0.35422 0.0
C1456 C 0.50173 0.59658 0.28863 0.0
C1457 C 0.51483 0.5958 0.22537 0.0
C1458 C 0.53016 0.60737 0.22761 0.0
C1459 C 0.53243 0.61976 0.29312 0.0
H1460 H 0.51307 0.58625 0.1745 0.0
H1461 H 0.51984 0.71443 0.78101 0.0
H1462 H 0.80347 0.54659 0.39386 0.0
H1463 H 0.83453 0.54924 0.45347 0.0
H1464 H 0.83611 0.49064 0.48702 0.0
H1465 H 0.80521 0.48798 0.42887 0.0
H1466 H 0.85404 0.53763 0.6028 0.0
H1467 H 0.87726 0.4763 0.40207 0.0
H1468 H 0.86666 0.46028 0.27579 0.0
H1469 H 0.84234 0.51006 0.18654 0.0
H1470 H 0.85335 0.52651 0.31053 0.0
H1471 H 0.94369 0.50919 0.72973 0.0
H1472 H 0.9112 0.50999 0.69006 0.0
H1473 H 0.92615 0.52929 0.44651 0.0
H1474 H 0.95861 0.52817 0.48488 0.0
H1475 H 0.89986 0.50478 0.43084 0.0
H1476 H 0.90883 0.55772 0.60212 0.0
H1477 H 0.91833 0.57419 0.72883 0.0
H1478 H 0.8781 0.54446 0.87012 0.0
H1479 H 0.86849 0.52767 0.74467 0.0
C1480 C 0.81016 0.53437 0.41693 0.0
C1481 C 0.80179 0.51706 0.40621 0.0
C1482 C 0.82801 0.53587 0.45057 0.0
C1483 C 0.8379 0.5201 0.47365 0.0
C1484 C 0.82896 0.50302 0.46896 0.0
C1485 C 0.8112 0.50152 0.4359 0.0
C1486 C 0.85804 0.52104 0.49414 0.0
C1487 C 0.86405 0.53044 0.56532 0.0
C1488 C 0.8713 0.51201 0.44441 0.0
C1489 C 0.86592 0.50257 0.36632 0.0
C1490 C 0.86984 0.48388 0.35504 0.0
C1491 C 0.86375 0.47472 0.28382 0.0
C1492 C 0.8537 0.4841 0.22349 0.0
C1493 C 0.85001 0.50276 0.2335 0.0
C1494 C 0.85625 0.51202 0.30406 0.0
C1495 C 0.94012 0.51364 0.66769 0.0
C1496 C 0.95397 0.5187 0.6108 0.0
C1497 C 0.92143 0.51417 0.64512 0.0
C1498 C 0.91597 0.51995 0.5654 0.0
C1499 C 0.9298 0.52479 0.50838 0.0
C1500 C 0.94847 0.5242 0.53069 0.0
C1501 C 0.89596 0.52098 0.54127 0.0
C1502 C 0.88993 0.51198 0.46878 0.0
C1503 C 0.88276 0.53063 0.58924 0.0
C1504 C 0.88814 0.5412 0.66419 0.0
C1505 C 0.90209 0.5546 0.66036 0.0
C1506 C 0.90748 0.56402 0.73199 0.0
C1507 C 0.89889 0.56029 0.80767 0.0
C1508 C 0.8848 0.54727 0.81168 0.0
C1509 C 0.87936 0.53781 0.74032 0.0
H1510 H 0.9031 0.56754 0.86315 0.0
H1511 H 0.84887 0.47696 0.16874 0.0
loop_
_geom_bond_atom_site_label_1
_geom_bond_atom_site_label_2
_geom_bond_distance
_geom_bond_site_symmetry_2
_ccdc_geom_bond_type
H0 C1 0.949 . S
C1 H0 0.949 . S
C1 C2 1.395 . S
C1 C3 1.391 . S
C2 C1 1.395 . S
C2 C5 1.390 . S
C3 C1 1.391 . S
C3 C7 1.387 . S
C3 C8 1.491 . S
H4 C5 0.950 . S
C5 C2 1.390 . S
C5 H4 0.950 . S
C5 C6 1.378 . S
C6 C5 1.378 . S
C6 C7 1.409 . S
C7 C3 1.387 . S
C7 C6 1.409 . S
C7 H9 0.951 . S
C8 C3 1.491 . S
C8 C10 1.382 . S
C8 C12 1.404 . S
H9 C7 0.951 . S
C10 C8 1.382 . S
C10 C11 1.390 . S
C10 H15 0.949 . S
C11 C10 1.390 . S
C11 C16 1.399 . S
C12 C8 1.404 . S
C12 H13 0.950 . S
C12 C14 1.375 . S
H13 C12 0.950 . S
C14 C12 1.375 . S
C14 C16 1.382 . S
C14 H18 0.950 . S
H15 C10 0.949 . S
C16 C11 1.399 . S
C16 C14 1.382 . S
C16 H17 0.952 . S
H17 C16 0.952 . S
H18 C14 0.950 . S
H19 C20 0.949 . S
C20 H19 0.949 . S
C20 C21 1.396 . S
C20 C22 1.391 . S
C21 C20 1.396 . S
C21 C24 1.387 1_655 S
C22 C20 1.391 . S
C22 C26 1.387 . S
C22 C27 1.491 . S
H23 C24 0.961 . S
C24 C21 1.387 1_455 S
C24 H23 0.961 . S
C24 C25 1.374 1_455 S
C25 C24 1.374 1_655 S
C25 C26 1.414 . S
C26 C22 1.387 . S
C26 C25 1.414 . S
C26 H28 0.951 . S
C27 C22 1.491 . S
C27 C29 1.410 . S
C27 C31 1.404 . S
H28 C26 0.951 . S
C29 C27 1.410 . S
C29 C30 1.404 . S
C29 H34 0.909 1_655 S
C30 C29 1.404 . S
C30 C35 1.399 . S
C31 C27 1.404 . S
C31 H32 0.950 . S
C31 C33 1.375 . S
H32 C31 0.950 . S
C33 C31 1.375 . S
C33 C35 1.382 . S
C33 H37 0.950 . S
H34 C29 0.909 1_455 S
C35 C30 1.399 . S
C35 C33 1.382 . S
C35 H36 0.952 . S
H36 C35 0.952 . S
H37 C33 0.950 . S
H38 C39 0.949 . S
C39 H38 0.949 . S
C39 C40 1.395 . S
C39 C41 1.391 . S
C40 C39 1.395 . S
C40 C43 1.390 1_565 S
C41 C39 1.391 . S
C41 C45 1.387 . S
C41 C46 1.491 . S
H42 C43 0.950 . S
C43 C40 1.390 1_545 S
C43 H42 0.950 . S
C43 C44 1.377 1_545 S
C44 C43 1.377 1_565 S
C44 C45 1.413 . S
C45 C41 1.387 . S
C45 C44 1.413 . S
C45 H47 0.951 . S
C46 C41 1.491 . S
C46 C48 1.407 . S
C46 C50 1.404 . S
H47 C45 0.951 . S
C48 C46 1.407 . S
C48 C49 1.403 . S
C48 H53 0.913 1_565 S
C49 C48 1.403 . S
C49 C54 1.399 . S
C50 C46 1.404 . S
C50 H51 0.950 . S
C50 C52 1.375 . S
H51 C50 0.950 . S
C52 C50 1.375 . S
C52 C54 1.382 . S
C52 H56 0.950 . S
H53 C48 0.913 1_545 S
C54 C49 1.399 . S
C54 C52 1.382 . S
C54 H55 0.952 . S
H55 C54 0.952 . S
H56 C52 0.950 . S
H57 C58 0.949 . S
C58 H57 0.949 . S
C58 C59 1.395 . S
C58 C60 1.391 . S
C59 C58 1.395 . S
C59 C62 1.390 . S
C60 C58 1.391 . S
C60 C64 1.387 . S
C60 C65 1.491 . S
H61 C62 0.950 . S
C62 C59 1.390 . S
C62 H61 0.950 . S
C62 C63 1.378 . S
C63 C62 1.378 . S
C63 C64 1.409 . S
C64 C60 1.387 . S
C64 C63 1.409 . S
C64 H66 0.951 . S
C65 C60 1.491 . S
C65 C67 1.382 . S
C65 C69 1.404 . S
H66 C64 0.951 . S
C67 C65 1.382 . S
C67 C68 1.390 . S
C67 H72 0.949 . S
C68 C67 1.390 . S
C68 C73 1.399 . S
C69 C65 1.404 . S
C69 H70 0.950 . S
C69 C71 1.375 . S
H70 C69 0.950 . S
C71 C69 1.375 . S
C71 C73 1.382 . S
C71 H75 0.950 . S
H72 C67 0.949 . S
C73 C68 1.399 . S
C73 C71 1.382 . S
C73 H74 0.952 . S
H74 C73 0.952 . S
H75 C71 0.950 . S
H76 C77 0.949 . S
C77 H76 0.949 . S
C77 C78 1.395 . S
C77 C79 1.391 1_554 S
C78 C77 1.395 . S
C78 C81 1.390 1_554 S
C79 C77 1.391 1_556 S
C79 C83 1.387 . S
C79 C84 1.491 . S
H80 C81 0.950 . S
C81 C78 1.390 1_556 S
C81 H80 0.950 . S
C81 C82 1.378 . S
C82 C81 1.378 . S
C82 C83 1.409 . S
C83 C79 1.387 . S
C83 C82 1.409 . S
C83 H85 0.951 . S
C84 C79 1.491 . S
C84 C86 1.382 1_556 S
C84 C88 1.404 . S
H85 C83 0.951 . S
C86 C84 1.382 1_554 S
C86 C87 1.390 . S
C86 H91 0.949 . S
C87 C86 1.390 . S
C87 C92 1.399 1_554 S
C88 C84 1.404 . S
C88 H89 0.950 . S
C88 C90 1.375 . S
H89 C88 0.950 . S
C90 C88 1.375 . S
C90 C92 1.382 . S
C90 H94 0.950 . S
H91 C86 0.949 . S
C92 C87 1.399 1_556 S
C92 C90 1.382 . S
C92 H93 0.952 . S
H93 C92 0.952 . S
H94 C90 0.950 . S
H95 C96 0.949 . S
C96 H95 0.949 . S
C96 C97 1.395 . S
C96 C98 1.391 1_554 S
C97 C96 1.395 . S
C97 C100 1.390 1_554 S
C98 C96 1.391 1_556 S
C98 C102 1.387 . S
C98 C103 1.480 1_455 S
H99 C100 0.950 . S
C100 C97 1.390 1_556 S
C100 H99 0.950 . S
C100 C101 1.378 . S
C101 C100 1.378 . S
C101 C102 1.409 . S
C102 C98 1.387 . S
C102 C101 1.409 . S
C102 H104 0.951 . S
C103 C98 1.480 1_655 S
C103 C105 1.358 1_656 S
C103 C107 1.443 . S
H104 C102 0.951 . S
C105 C103 1.358 1_454 S
C105 C106 1.390 . S
C105 H110 0.949 . S
C106 C105 1.390 . S
C106 C111 1.399 1_454 S
C107 C103 1.443 . S
C107 H108 0.950 . S
C107 C109 1.375 . S
H108 C107 0.950 . S
C109 C107 1.375 . S
C109 C111 1.382 . S
C109 H113 0.950 . S
H110 C105 0.949 . S
C111 C106 1.399 1_656 S
C111 C109 1.382 . S
C111 H112 0.952 . S
H112 C111 0.952 . S
H113 C109 0.950 . S
H114 C115 0.949 . S
C115 H114 0.949 . S
C115 C116 1.395 . S
C115 C117 1.391 1_554 S
C116 C115 1.395 . S
C116 C119 1.390 1_554 S
C117 C115 1.391 1_556 S
C117 C121 1.387 . S
C117 C122 1.482 1_545 S
H118 C119 0.950 . S
C119 C116 1.390 1_556 S
C119 H118 0.950 . S
C119 C120 1.378 . S
C120 C119 1.378 . S
C120 C121 1.409 . S
C121 C117 1.387 . S
C121 C120 1.409 . S
C121 H123 0.951 . S
C122 C117 1.482 1_565 S
C122 C124 1.361 1_566 S
C122 C126 1.437 . S
H123 C121 0.951 . S
C124 C122 1.361 1_544 S
C124 C125 1.390 . S
C124 H129 0.949 . S
C125 C124 1.390 . S
C125 C130 1.399 1_544 S
C126 C122 1.437 . S
C126 H127 0.950 . S
C126 C128 1.375 . S
H127 C126 0.950 . S
C128 C126 1.375 . S
C128 C130 1.382 . S
C128 H132 0.950 . S
H129 C124 0.949 . S
C130 C125 1.399 1_566 S
C130 C128 1.382 . S
C130 H131 0.952 . S
H131 C130 0.952 . S
H132 C128 0.950 . S
H133 C134 0.949 . S
C134 H133 0.949 . S
C134 C135 1.395 . S
C134 C136 1.391 1_554 S
C135 C134 1.395 . S
C135 C138 1.390 1_554 S
C136 C134 1.391 1_556 S
C136 C140 1.387 . S
C136 C141 1.491 . S
H137 C138 0.950 . S
C138 C135 1.390 1_556 S
C138 H137 0.950 . S
C138 C139 1.378 . S
C139 C138 1.378 . S
C139 C140 1.409 . S
C140 C136 1.387 . S
C140 C139 1.409 . S
C140 H142 0.951 . S
C141 C136 1.491 . S
C141 C143 1.382 1_556 S
C141 C145 1.404 . S
H142 C140 0.951 . S
C143 C141 1.382 1_554 S
C143 C144 1.390 . S
C143 H148 0.949 . S
C144 C143 1.390 . S
C144 C149 1.399 1_554 S
C145 C141 1.404 . S
C145 H146 0.950 . S
C145 C147 1.375 . S
H146 C145 0.950 . S
C147 C145 1.375 . S
C147 C149 1.382 . S
C147 H151 0.950 . S
H148 C143 0.949 . S
C149 C144 1.399 1_556 S
C149 C147 1.382 . S
C149 H150 0.952 . S
H150 C149 0.952 . S
H151 C147 0.950 . S
Ho152 C155 2.811 . S
Ho152 O172 2.322 . S
Ho152 O174 2.378 . S
Ho152 O175 2.524 . S
Ho152 O176 2.381 . S
Ho152 O177 2.669 1_565 S
Ho152 O179 2.346 1_565 S
Ho152 O183 2.309 1_455 S
Ho153 C164 2.811 . S
Ho153 O173 2.346 1_545 S
Ho153 O177 2.305 1_655 S
Ho153 O178 2.322 . S
Ho153 O180 2.378 . S
Ho153 O181 2.524 1_655 S
Ho153 O182 2.381 . S
Ho153 O183 2.660 1_545 S
C154 O172 1.259 1_655 S
C154 O173 1.268 . S
C155 Ho152 2.811 . S
C155 C156 1.488 . S
C155 O174 1.215 . S
C155 O175 1.289 . S
C156 C155 1.488 . S
C156 C157 1.348 . S
C156 C161 1.413 . S
C157 C156 1.348 . S
C157 C158 1.442 . S
C157 H184 0.930 1_455 S
C158 C157 1.442 . S
C158 C159 1.381 . S
C158 H185 0.931 1_455 S
C159 C158 1.381 . S
C159 C160 1.321 . S
C160 C159 1.321 . S
C160 C161 1.403 . S
C160 H186 0.934 . S
C161 C156 1.413 . S
C161 C160 1.403 . S
C161 H187 0.930 . S
C162 O176 1.275 1_545 S
C162 O177 1.256 . S
C163 O178 1.259 1_455 S
C163 O179 1.268 . S
C164 Ho153 2.811 . S
C164 C165 1.488 . S
C164 O180 1.215 . S
C164 O181 1.289 1_655 S
C165 C164 1.488 . S
C165 C166 1.348 1_655 S
C165 C170 1.413 . S
C166 C165 1.348 1_455 S
C166 C167 1.442 . S
C166 H188 0.930 . S
C167 C166 1.442 . S
C167 C168 1.381 1_455 S
C167 H189 0.931 . S
C168 C167 1.381 1_655 S
C168 C169 1.321 . S
C169 C168 1.321 . S
C169 C170 1.403 . S
C169 H190 0.934 . S
C170 C165 1.413 . S
C170 C169 1.403 . S
C170 H191 0.930 . S
C171 O182 1.275 . S
C171 O183 1.249 1_545 S
O172 Ho152 2.322 . S
O172 C154 1.259 1_455 S
O173 Ho153 2.346 1_565 S
O173 C154 1.268 . S
O174 Ho152 2.378 . S
O174 C155 1.215 . S
O175 Ho152 2.524 . S
O175 C155 1.289 . S
O176 Ho152 2.381 . S
O176 C162 1.275 1_565 S
O177 Ho152 2.669 1_545 S
O177 Ho153 2.305 1_455 S
O177 C162 1.256 . S
O178 Ho153 2.322 . S
O178 C163 1.259 1_655 S
O179 Ho152 2.346 1_545 S
O179 C163 1.268 . S
O180 Ho153 2.378 . S
O180 C164 1.215 . S
O181 Ho153 2.524 1_455 S
O181 C164 1.289 1_455 S
O182 Ho153 2.381 . S
O182 C171 1.275 . S
O183 Ho152 2.309 1_655 S
O183 Ho153 2.660 1_565 S
O183 C171 1.249 1_565 S
H184 C157 0.930 1_655 S
H185 C158 0.931 1_655 S
H186 C160 0.934 . S
H187 C161 0.930 . S
H188 C166 0.930 . S
H189 C167 0.931 . S
H190 C169 0.934 . S
H191 C170 0.930 . S
Ho192 C195 2.811 . S
Ho192 O212 2.322 . S
Ho192 O214 2.378 . S
Ho192 O215 2.524 . S
Ho192 O216 2.381 . S
Ho192 O217 2.669 . S
Ho192 O219 2.346 . S
Ho192 O223 2.305 1_545 S
Ho193 C204 2.811 . S
Ho193 O213 2.346 . S
Ho193 O217 2.305 1_565 S
Ho193 O218 2.322 . S
Ho193 O220 2.378 . S
Ho193 O221 2.524 1_565 S
Ho193 O222 2.381 . S
Ho193 O223 2.669 . S
C194 O212 1.259 1_565 S
C194 O213 1.268 . S
C195 Ho192 2.811 . S
C195 C196 1.488 . S
C195 O214 1.215 . S
C195 O215 1.289 . S
C196 C195 1.488 . S
C196 C197 1.348 . S
C196 C201 1.413 . S
C197 C196 1.348 . S
C197 C198 1.442 . S
C197 H224 0.930 1_545 S
C198 C197 1.442 . S
C198 C199 1.381 . S
C198 H225 0.931 1_545 S
C199 C198 1.381 . S
C199 C200 1.321 . S
C200 C199 1.321 . S
C200 C201 1.403 . S
C200 H226 0.934 . S
C201 C196 1.413 . S
C201 C200 1.403 . S
C201 H227 0.930 . S
C202 O216 1.275 . S
C202 O217 1.256 . S
C203 O218 1.259 1_545 S
C203 O219 1.268 . S
C204 Ho193 2.811 . S
C204 C205 1.488 . S
C204 O220 1.215 . S
C204 O221 1.289 1_565 S
C205 C204 1.488 . S
C205 C206 1.348 1_565 S
C205 C210 1.413 . S
C206 C205 1.348 1_545 S
C206 C207 1.442 . S
C206 H228 0.930 . S
C207 C206 1.442 . S
C207 C208 1.381 1_545 S
C207 H229 0.931 . S
C208 C207 1.381 1_565 S
C208 C209 1.321 . S
C209 C208 1.321 . S
C209 C210 1.403 . S
C209 H230 0.934 . S
C210 C205 1.413 . S
C210 C209 1.403 . S
C210 H231 0.930 . S
C211 O222 1.275 . S
C211 O223 1.256 . S
O212 Ho192 2.322 . S
O212 C194 1.259 1_545 S
O213 Ho193 2.346 . S
O213 C194 1.268 . S
O214 Ho192 2.378 . S
O214 C195 1.215 . S
O215 Ho192 2.524 . S
O215 C195 1.289 . S
O216 Ho192 2.381 . S
O216 C202 1.275 . S
O217 Ho192 2.669 . S
O217 Ho193 2.305 1_545 S
O217 C202 1.256 . S
O218 Ho193 2.322 . S
O218 C203 1.259 1_565 S
O219 Ho192 2.346 . S
O219 C203 1.268 . S
O220 Ho193 2.378 . S
O220 C204 1.215 . S
O221 Ho193 2.524 1_545 S
O221 C204 1.289 1_545 S
O222 Ho193 2.381 . S
O222 C211 1.275 . S
O223 Ho192 2.305 1_565 S
O223 Ho193 2.669 . S
O223 C211 1.256 . S
H224 C197 0.930 1_565 S
H225 C198 0.931 1_565 S
H226 C200 0.934 . S
H227 C201 0.930 . S
H228 C206 0.930 . S
H229 C207 0.931 . S
H230 C209 0.934 . S
H231 C210 0.930 . S
Ho232 C235 2.811 . S
Ho232 O252 2.322 . S
Ho232 O254 2.378 . S
Ho232 O255 2.524 . S
Ho232 O256 2.381 . S
Ho232 O257 2.669 . S
Ho232 O259 2.346 . S
Ho232 O263 2.305 . S
Ho233 C244 2.811 . S
Ho233 O253 2.346 . S
Ho233 O257 2.305 . S
Ho233 O258 2.322 . S
Ho233 O260 2.378 . S
Ho233 O261 2.524 . S
Ho233 O262 2.381 . S
Ho233 O263 2.669 . S
C234 O252 1.259 . S
C234 O253 1.268 . S
C235 Ho232 2.811 . S
C235 C236 1.488 . S
C235 O254 1.215 . S
C235 O255 1.289 . S
C236 C235 1.488 . S
C236 C237 1.348 . S
C236 C241 1.413 . S
C237 C236 1.348 . S
C237 C238 1.442 . S
C237 H264 0.930 . S
C238 C237 1.442 . S
C238 C239 1.381 . S
C238 H265 0.931 . S
C239 C238 1.381 . S
C239 C240 1.321 . S
C240 C239 1.321 . S
C240 C241 1.403 . S
C240 H266 0.934 . S
C241 C236 1.413 . S
C241 C240 1.403 . S
C241 H267 0.930 . S
C242 O256 1.275 . S
C242 O257 1.256 . S
C243 O258 1.259 . S
C243 O259 1.268 . S
C244 Ho233 2.811 . S
C244 C245 1.488 . S
C244 O260 1.215 . S
C244 O261 1.289 . S
C245 C244 1.488 . S
C245 C246 1.348 . S
C245 C250 1.413 . S
C246 C245 1.348 . S
C246 C247 1.442 . S
C246 H268 0.930 . S
C247 C246 1.442 . S
C247 C248 1.381 . S
C247 H269 0.931 . S
C248 C247 1.381 . S
C248 C249 1.321 . S
C249 C248 1.321 . S
C249 C250 1.403 . S
C249 H270 0.934 . S
C250 C245 1.413 . S
C250 C249 1.403 . S
C250 H271 0.930 . S
C251 O262 1.275 . S
C251 O263 1.256 . S
O252 Ho232 2.322 . S
O252 C234 1.259 . S
O253 Ho233 2.346 . S
O253 C234 1.268 . S
O254 Ho232 2.378 . S
O254 C235 1.215 . S
O255 Ho232 2.524 . S
O255 C235 1.289 . S
O256 Ho232 2.381 . S
O256 C242 1.275 . S
O257 Ho232 2.669 . S
O257 Ho233 2.305 . S
O257 C242 1.256 . S
O258 Ho233 2.322 . S
O258 C243 1.259 . S
O259 Ho232 2.346 . S
O259 C243 1.268 . S
O260 Ho233 2.378 . S
O260 C244 1.215 . S
O261 Ho233 2.524 . S
O261 C244 1.289 . S
O262 Ho233 2.381 . S
O262 C251 1.275 . S
O263 Ho232 2.305 . S
O263 Ho233 2.669 . S
O263 C251 1.256 . S
H264 C237 0.930 . S
H265 C238 0.931 . S
H266 C240 0.934 . S
H267 C241 0.930 . S
H268 C246 0.930 . S
H269 C247 0.931 . S
H270 C249 0.934 . S
H271 C250 0.930 . S
Ho272 C275 2.811 . S
Ho272 O292 2.322 . S
Ho272 O294 2.378 . S
Ho272 O295 2.524 . S
Ho272 O296 2.381 . S
Ho272 O297 2.669 1_655 S
Ho272 O299 2.346 1_655 S
Ho272 O303 2.311 . S
Ho273 C284 2.811 . S
Ho273 O293 2.346 1_455 S
Ho273 O297 2.305 . S
Ho273 O298 2.322 . S
Ho273 O300 2.378 . S
Ho273 O301 2.524 . S
Ho273 O302 2.381 . S
Ho273 O303 2.657 1_455 S
C274 O292 1.259 . S
C274 O293 1.268 . S
C275 Ho272 2.811 . S
C275 C276 1.488 . S
C275 O294 1.215 . S
C275 O295 1.289 . S
C276 C275 1.488 . S
C276 C277 1.348 . S
C276 C281 1.413 . S
C277 C276 1.348 . S
C277 C278 1.442 . S
C277 H304 0.930 . S
C278 C277 1.442 . S
C278 C279 1.381 . S
C278 H305 0.931 . S
C279 C278 1.381 . S
C279 C280 1.321 . S
C280 C279 1.321 . S
C280 C281 1.403 . S
C280 H306 0.934 . S
C281 C276 1.413 . S
C281 C280 1.403 . S
C281 H307 0.930 . S
C282 O296 1.275 1_455 S
C282 O297 1.256 . S
C283 O298 1.259 . S
C283 O299 1.268 . S
C284 Ho273 2.811 . S
C284 C285 1.488 . S
C284 O300 1.215 . S
C284 O301 1.289 . S
C285 C284 1.488 . S
C285 C286 1.348 . S
C285 C290 1.413 . S
C286 C285 1.348 . S
C286 C287 1.442 . S
C286 H308 0.930 . S
C287 C286 1.442 . S
C287 C288 1.381 . S
C287 H309 0.931 . S
C288 C287 1.381 . S
C288 C289 1.321 . S
C289 C288 1.321 . S
C289 C290 1.403 . S
C289 H310 0.934 . S
C290 C285 1.413 . S
C290 C289 1.403 . S
C290 H311 0.930 . S
C291 O302 1.275 . S
C291 O303 1.247 1_455 S
O292 Ho272 2.322 . S
O292 C274 1.259 . S
O293 Ho273 2.346 1_655 S
O293 C274 1.268 . S
O294 Ho272 2.378 . S
O294 C275 1.215 . S
O295 Ho272 2.524 . S
O295 C275 1.289 . S
O296 Ho272 2.381 . S
O296 C282 1.275 1_655 S
O297 Ho272 2.669 1_455 S
O297 Ho273 2.305 . S
O297 C282 1.256 . S
O298 Ho273 2.322 . S
O298 C283 1.259 . S
O299 Ho272 2.346 1_455 S
O299 C283 1.268 . S
O300 Ho273 2.378 . S
O300 C284 1.215 . S
O301 Ho273 2.524 . S
O301 C284 1.289 . S
O302 Ho273 2.381 . S
O302 C291 1.275 . S
O303 Ho272 2.311 . S
O303 Ho273 2.657 1_655 S
O303 C291 1.247 1_655 S
H304 C277 0.930 . S
H305 C278 0.931 . S
H306 C280 0.934 . S
H307 C281 0.930 . S
H308 C286 0.930 . S
H309 C287 0.931 . S
H310 C289 0.934 . S
H311 C290 0.930 . S
H312 C330 0.951 . S
H313 C332 0.951 . S
H314 C334 0.950 . S
H315 C335 0.950 . S
H316 C337 0.950 . S
H317 C340 0.950 . S
H318 C341 0.950 . S
H319 C343 0.950 . S
H320 C344 0.950 . S
H321 C345 0.951 . S
H322 C347 0.951 . S
H323 C349 0.950 . S
H324 C350 0.950 . S
H325 C352 0.950 . S
H326 C355 0.950 . S
H327 C356 0.950 . S
H328 C358 0.950 . S
H329 C359 0.950 . S
C330 H312 0.951 . S
C330 C331 1.366 . S
C330 C332 1.388 . S
C331 C330 1.366 . S
C331 C335 1.385 1_545 S
C332 H313 0.951 . S
C332 C330 1.388 . S
C332 C333 1.366 . S
C333 C332 1.366 . S
C333 C334 1.414 1_545 S
C333 C336 1.499 . S
C334 H314 0.950 . S
C334 C333 1.414 1_565 S
C334 C335 1.374 . S
C335 H315 0.950 . S
C335 C331 1.385 1_565 S
C335 C334 1.374 . S
C336 C333 1.499 . S
C336 C337 1.373 1_545 S
C336 C338 1.389 . S
C337 H316 0.950 . S
C337 C336 1.373 1_565 S
C337 C353 1.377 . S
C338 C336 1.389 . S
C338 C339 1.524 . S
C338 C352 1.377 . S
C339 C338 1.524 . S
C339 C340 1.397 . S
C339 C344 1.363 . S
C340 H317 0.950 . S
C340 C339 1.397 . S
C340 C341 1.334 . S
C341 H318 0.950 . S
C341 C340 1.334 . S
C341 C342 1.287 . S
C342 C341 1.287 . S
C342 C343 1.524 . S
C342 H361 0.913 . S
C343 H319 0.950 . S
C343 C342 1.524 . S
C343 C344 1.415 . S
C344 H320 0.950 . S
C344 C339 1.363 . S
C344 C343 1.415 . S
C345 H321 0.951 . S
C345 C346 1.366 1_565 S
C345 C347 1.388 . S
C346 C345 1.366 1_545 S
C346 C350 1.385 . S
C347 H322 0.951 . S
C347 C345 1.388 . S
C347 C348 1.366 1_565 S
C348 C347 1.366 1_545 S
C348 C349 1.414 . S
C348 C351 1.499 . S
C349 H323 0.950 . S
C349 C348 1.414 . S
C349 C350 1.374 . S
C350 H324 0.950 . S
C350 C346 1.385 . S
C350 C349 1.374 . S
C351 C348 1.499 . S
C351 C352 1.373 . S
C351 C353 1.389 1_545 S
C352 H325 0.950 . S
C352 C338 1.377 . S
C352 C351 1.373 . S
C353 C337 1.377 . S
C353 C351 1.389 1_565 S
C353 C354 1.524 . S
C354 C353 1.524 . S
C354 C355 1.397 . S
C354 C359 1.363 . S
C355 H326 0.950 . S
C355 C354 1.397 . S
C355 C356 1.334 . S
C356 H327 0.950 . S
C356 C355 1.334 . S
C356 C357 1.287 . S
C357 C356 1.287 . S
C357 C358 1.524 . S
C357 H360 0.999 . S
C358 H328 0.950 . S
C358 C357 1.524 . S
C358 C359 1.415 . S
C359 H329 0.950 . S
C359 C354 1.363 . S
C359 C358 1.415 . S
H360 C357 0.999 . S
H361 C342 0.913 . S
H362 C380 0.951 . S
H363 C382 0.951 . S
H364 C384 0.950 . S
H365 C385 0.950 . S
H366 C387 0.950 . S
H367 C390 0.950 . S
H368 C391 0.950 . S
H369 C393 0.950 . S
H370 C394 0.950 . S
H371 C395 0.951 . S
H372 C397 0.951 . S
H373 C399 0.950 . S
H374 C400 0.950 . S
H375 C402 0.950 . S
H376 C405 0.950 . S
H377 C406 0.950 . S
H378 C408 0.950 . S
H379 C409 0.950 . S
C380 H362 0.951 . S
C380 C381 1.366 . S
C380 C382 1.388 . S
C381 C380 1.366 . S
C381 C385 1.385 . S
C382 H363 0.951 . S
C382 C380 1.388 . S
C382 C383 1.366 . S
C383 C382 1.366 . S
C383 C384 1.414 . S
C383 C386 1.499 . S
C384 H364 0.950 . S
C384 C383 1.414 . S
C384 C385 1.374 . S
C385 H365 0.950 . S
C385 C381 1.385 . S
C385 C384 1.374 . S
C386 C383 1.499 . S
C386 C387 1.373 . S
C386 C388 1.389 . S
C387 H366 0.950 . S
C387 C386 1.373 . S
C387 C403 1.377 . S
C388 C386 1.389 . S
C388 C389 1.524 . S
C388 C402 1.377 . S
C389 C388 1.524 . S
C389 C390 1.397 . S
C389 C394 1.363 . S
C390 H367 0.950 . S
C390 C389 1.397 . S
C390 C391 1.334 . S
C391 H368 0.950 . S
C391 C390 1.334 . S
C391 C392 1.287 . S
C392 C391 1.287 . S
C392 C393 1.524 . S
C392 H411 0.913 . S
C393 H369 0.950 . S
C393 C392 1.524 . S
C393 C394 1.415 . S
C394 H370 0.950 . S
C394 C389 1.363 . S
C394 C393 1.415 . S
C395 H371 0.951 . S
C395 C396 1.366 . S
C395 C397 1.388 . S
C396 C395 1.366 . S
C396 C400 1.385 . S
C397 H372 0.951 . S
C397 C395 1.388 . S
C397 C398 1.366 . S
C398 C397 1.366 . S
C398 C399 1.414 . S
C398 C401 1.499 . S
C399 H373 0.950 . S
C399 C398 1.414 . S
C399 C400 1.374 . S
C400 H374 0.950 . S
C400 C396 1.385 . S
C400 C399 1.374 . S
C401 C398 1.499 . S
C401 C402 1.373 . S
C401 C403 1.389 . S
C402 H375 0.950 . S
C402 C388 1.377 . S
C402 C401 1.373 . S
C403 C387 1.377 . S
C403 C401 1.389 . S
C403 C404 1.524 . S
C404 C403 1.524 . S
C404 C405 1.397 . S
C404 C409 1.363 . S
C405 H376 0.950 . S
C405 C404 1.397 . S
C405 C406 1.334 . S
C406 H377 0.950 . S
C406 C405 1.334 . S
C406 C407 1.287 . S
C407 C406 1.287 . S
C407 C408 1.524 . S
C407 H410 0.999 . S
C408 H378 0.950 . S
C408 C407 1.524 . S
C408 C409 1.415 . S
C409 H379 0.950 . S
C409 C404 1.363 . S
C409 C408 1.415 . S
H410 C407 0.999 . S
H411 C392 0.913 . S
H412 C430 0.951 . S
H413 C432 0.951 . S
H414 C434 0.950 . S
H415 C435 0.950 . S
H416 C437 0.950 . S
H417 C440 0.950 . S
H418 C441 0.950 . S
H419 C443 0.950 . S
H420 C444 0.950 . S
H421 C445 0.951 . S
H422 C447 0.951 . S
H423 C449 0.950 . S
H424 C450 0.950 . S
H425 C452 0.950 . S
H426 C455 0.950 . S
H427 C456 0.950 . S
H428 C458 0.950 . S
H429 C459 0.950 . S
C430 H412 0.951 . S
C430 C431 1.366 . S
C430 C432 1.388 . S
C431 C430 1.366 . S
C431 C435 1.385 . S
C432 H413 0.951 . S
C432 C430 1.388 . S
C432 C433 1.366 . S
C433 C432 1.366 . S
C433 C434 1.414 . S
C433 C436 1.499 . S
C434 H414 0.950 . S
C434 C433 1.414 . S
C434 C435 1.374 . S
C435 H415 0.950 . S
C435 C431 1.385 . S
C435 C434 1.374 . S
C436 C433 1.499 . S
C436 C437 1.373 . S
C436 C438 1.389 . S
C437 H416 0.950 . S
C437 C436 1.373 . S
C437 C453 1.377 . S
C438 C436 1.389 . S
C438 C439 1.524 . S
C438 C452 1.377 . S
C439 C438 1.524 . S
C439 C440 1.397 . S
C439 C444 1.363 . S
C440 H417 0.950 . S
C440 C439 1.397 . S
C440 C441 1.334 . S
C441 H418 0.950 . S
C441 C440 1.334 . S
C441 C442 1.287 . S
C442 C441 1.287 . S
C442 C443 1.524 . S
C442 H461 0.913 . S
C443 H419 0.950 . S
C443 C442 1.524 . S
C443 C444 1.415 . S
C444 H420 0.950 . S
C444 C439 1.363 . S
C444 C443 1.415 . S
C445 H421 0.951 . S
C445 C446 1.366 . S
C445 C447 1.388 . S
C446 C445 1.366 . S
C446 C450 1.385 . S
C447 H422 0.951 . S
C447 C445 1.388 . S
C447 C448 1.366 . S
C448 C447 1.366 . S
C448 C449 1.414 . S
C448 C451 1.499 . S
C449 H423 0.950 . S
C449 C448 1.414 . S
C449 C450 1.374 . S
C450 H424 0.950 . S
C450 C446 1.385 . S
C450 C449 1.374 . S
C451 C448 1.499 . S
C451 C452 1.373 . S
C451 C453 1.389 . S
C452 H425 0.950 . S
C452 C438 1.377 . S
C452 C451 1.373 . S
C453 C437 1.377 . S
C453 C451 1.389 . S
C453 C454 1.524 . S
C454 C453 1.524 . S
C454 C455 1.397 . S
C454 C459 1.363 . S
C455 H426 0.950 . S
C455 C454 1.397 . S
C455 C456 1.334 . S
C456 H427 0.950 . S
C456 C455 1.334 . S
C456 C457 1.287 . S
C457 C456 1.287 . S
C457 C458 1.524 . S
C457 H460 0.999 . S
C458 H428 0.950 . S
C458 C457 1.524 . S
C458 C459 1.415 . S
C459 H429 0.950 . S
C459 C454 1.363 . S
C459 C458 1.415 . S
H460 C457 0.999 . S
H461 C442 0.913 . S
H462 C480 0.951 . S
H463 C482 0.951 . S
H464 C484 0.950 . S
H465 C485 0.950 . S
H466 C487 0.950 . S
H467 C490 0.950 . S
H468 C491 0.950 . S
H469 C493 0.950 . S
H470 C494 0.950 . S
H471 C495 0.951 . S
H472 C497 0.951 . S
H473 C499 0.950 . S
H474 C500 0.950 . S
H475 C502 0.950 . S
H476 C505 0.950 1_455 S
H477 C506 0.950 . S
H478 C508 0.950 . S
H479 C509 0.950 . S
C480 H462 0.951 . S
C480 C481 1.366 . S
C480 C482 1.388 . S
C481 C480 1.366 . S
C481 C485 1.385 1_455 S
C482 H463 0.951 . S
C482 C480 1.388 . S
C482 C483 1.366 . S
C483 C482 1.366 . S
C483 C484 1.414 1_455 S
C483 C486 1.499 . S
C484 H464 0.950 . S
C484 C483 1.414 1_655 S
C484 C485 1.374 . S
C485 H465 0.950 . S
C485 C481 1.385 1_655 S
C485 C484 1.374 . S
C486 C483 1.499 . S
C486 C487 1.373 1_455 S
C486 C488 1.389 . S
C487 H466 0.950 . S
C487 C486 1.373 1_655 S
C487 C503 1.377 . S
C488 C486 1.389 . S
C488 C489 1.524 . S
C488 C502 1.377 . S
C489 C488 1.524 . S
C489 C490 1.397 . S
C489 C494 1.363 . S
C490 H467 0.950 . S
C490 C489 1.397 . S
C490 C491 1.334 . S
C491 H468 0.950 . S
C491 C490 1.334 . S
C491 C492 1.287 . S
C492 C491 1.287 . S
C492 C493 1.524 . S
C492 H511 0.913 . S
C493 H469 0.950 . S
C493 C492 1.524 . S
C493 C494 1.415 . S
C494 H470 0.950 . S
C494 C489 1.363 . S
C494 C493 1.415 . S
C495 H471 0.951 . S
C495 C496 1.366 1_655 S
C495 C497 1.388 . S
C496 C495 1.366 1_455 S
C496 C500 1.385 . S
C497 H472 0.951 . S
C497 C495 1.388 . S
C497 C498 1.366 1_655 S
C498 C497 1.366 1_455 S
C498 C499 1.414 . S
C498 C501 1.499 . S
C499 H473 0.950 . S
C499 C498 1.414 . S
C499 C500 1.374 . S
C500 H474 0.950 . S
C500 C496 1.385 . S
C500 C499 1.374 . S
C501 C498 1.499 . S
C501 C502 1.373 . S
C501 C503 1.389 1_455 S
C502 H475 0.950 . S
C502 C488 1.377 . S
C502 C501 1.373 . S
C503 C487 1.377 . S
C503 C501 1.389 1_655 S
C503 C504 1.524 . S
C504 C503 1.524 . S
C504 C505 1.397 . S
C504 C509 1.363 . S
C505 H476 0.950 1_655 S
C505 C504 1.397 . S
C505 C506 1.334 . S
C506 H477 0.950 . S
C506 C505 1.334 . S
C506 C507 1.287 . S
C507 C506 1.287 . S
C507 C508 1.524 . S
C507 H510 0.999 . S
C508 H478 0.950 . S
C508 C507 1.524 . S
C508 C509 1.415 . S
C509 H479 0.950 . S
C509 C504 1.363 . S
C509 C508 1.415 . S
H510 C507 0.999 . S
H511 C492 0.913 . S
H512 C530 0.951 . S
H513 C532 0.960 . S
H514 C534 0.950 . S
H515 C535 0.950 . S
H516 C537 0.950 1_556 S
H517 C540 0.950 . S
H518 C541 0.950 . S
H519 C543 0.950 . S
H520 C544 0.950 . S
H521 C545 0.951 . S
H522 C547 0.951 . S
H523 C549 0.970 . S
H524 C550 0.951 . S
H525 C552 0.950 . S
H526 C555 0.950 . S
H527 C556 0.950 . S
H528 C558 0.950 . S
H529 C559 0.950 . S
C530 H512 0.951 . S
C530 C531 1.366 1_565 S
C530 C532 1.392 . S
C531 C530 1.366 1_545 S
C531 C535 1.385 . S
C532 H513 0.960 . S
C532 C530 1.392 . S
C532 C533 1.358 1_565 S
C533 C532 1.358 1_545 S
C533 C534 1.414 . S
C533 C536 1.499 . S
C534 H514 0.950 . S
C534 C533 1.414 . S
C534 C535 1.374 . S
C535 H515 0.950 . S
C535 C531 1.385 . S
C535 C534 1.374 . S
C536 C533 1.499 . S
C536 C537 1.373 1_545 S
C536 C538 1.389 . S
C537 H516 0.950 1_554 S
C537 C536 1.373 1_565 S
C537 C553 1.377 1_554 S
C538 C536 1.389 . S
C538 C539 1.524 . S
C538 C552 1.377 . S
C539 C538 1.524 . S
C539 C540 1.397 . S
C539 C544 1.363 . S
C540 H517 0.950 . S
C540 C539 1.397 . S
C540 C541 1.334 . S
C541 H518 0.950 . S
C541 C540 1.334 . S
C541 C542 1.287 . S
C542 C541 1.287 . S
C542 C543 1.524 . S
C542 H561 0.913 . S
C543 H519 0.950 . S
C543 C542 1.524 . S
C543 C544 1.415 . S
C544 H520 0.950 . S
C544 C539 1.363 . S
C544 C543 1.415 . S
C545 H521 0.951 . S
C545 C546 1.366 . S
C545 C547 1.388 . S
C546 C545 1.366 . S
C546 C550 1.383 1_545 S
C547 H522 0.951 . S
C547 C545 1.388 . S
C547 C548 1.374 . S
C548 C547 1.374 . S
C548 C549 1.409 1_545 S
C548 C551 1.498 . S
C549 H523 0.970 . S
C549 C548 1.409 1_565 S
C549 C550 1.373 . S
C550 H524 0.951 . S
C550 C546 1.383 1_565 S
C550 C549 1.373 . S
C551 C548 1.498 . S
C551 C552 1.384 1_556 S
C551 C553 1.379 1_545 S
C552 H525 0.950 . S
C552 C538 1.377 . S
C552 C551 1.384 1_554 S
C553 C537 1.377 1_556 S
C553 C551 1.379 1_565 S
C553 C554 1.524 . S
C554 C553 1.524 . S
C554 C555 1.397 . S
C554 C559 1.363 . S
C555 H526 0.950 . S
C555 C554 1.397 . S
C555 C556 1.334 . S
C556 H527 0.950 . S
C556 C555 1.334 . S
C556 C557 1.287 . S
C557 C556 1.287 . S
C557 C558 1.524 . S
C557 H560 0.999 . S
C558 H528 0.950 . S
C558 C557 1.524 . S
C558 C559 1.415 . S
C559 H529 0.950 . S
C559 C554 1.363 . S
C559 C558 1.415 . S
H560 C557 0.999 . S
H561 C542 0.913 . S
H562 C580 0.951 . S
H563 C582 0.951 . S
H564 C584 0.950 . S
H565 C585 0.950 . S
H566 C587 0.950 . S
H567 C590 0.950 . S
H568 C591 0.950 . S
H569 C593 0.950 . S
H570 C594 0.950 . S
H571 C595 0.951 . S
H572 C597 0.951 . S
H573 C599 0.950 . S
H574 C600 0.950 . S
H575 C602 0.950 . S
H576 C605 0.950 . S
H577 C606 0.950 . S
H578 C608 0.950 . S
H579 C609 0.950 . S
C580 H562 0.951 . S
C580 C581 1.366 . S
C580 C582 1.388 . S
C581 C580 1.366 . S
C581 C585 1.385 . S
C582 H563 0.951 . S
C582 C580 1.388 . S
C582 C583 1.366 . S
C583 C582 1.366 . S
C583 C584 1.414 . S
C583 C586 1.499 . S
C584 H564 0.950 . S
C584 C583 1.414 . S
C584 C585 1.374 . S
C585 H565 0.950 . S
C585 C581 1.385 . S
C585 C584 1.374 . S
C586 C583 1.499 . S
C586 C587 1.373 1_554 S
C586 C588 1.389 . S
C587 H566 0.950 . S
C587 C586 1.373 1_556 S
C587 C603 1.377 . S
C588 C586 1.389 . S
C588 C589 1.524 . S
C588 C602 1.377 . S
C589 C588 1.524 . S
C589 C590 1.397 . S
C589 C594 1.363 . S
C590 H567 0.950 . S
C590 C589 1.397 . S
C590 C591 1.334 . S
C591 H568 0.950 . S
C591 C590 1.334 . S
C591 C592 1.287 . S
C592 C591 1.287 . S
C592 C593 1.524 . S
C592 H611 0.913 . S
C593 H569 0.950 . S
C593 C592 1.524 . S
C593 C594 1.415 . S
C594 H570 0.950 . S
C594 C589 1.363 . S
C594 C593 1.415 . S
C595 H571 0.951 . S
C595 C596 1.366 . S
C595 C597 1.388 . S
C596 C595 1.366 . S
C596 C600 1.385 . S
C597 H572 0.951 . S
C597 C595 1.388 . S
C597 C598 1.366 . S
C598 C597 1.366 . S
C598 C599 1.414 . S
C598 C601 1.499 . S
C599 H573 0.950 . S
C599 C598 1.414 . S
C599 C600 1.374 . S
C600 H574 0.950 . S
C600 C596 1.385 . S
C600 C599 1.374 . S
C601 C598 1.499 . S
C601 C602 1.373 1_556 S
C601 C603 1.389 . S
C602 H575 0.950 . S
C602 C588 1.377 . S
C602 C601 1.373 1_554 S
C603 C587 1.377 . S
C603 C601 1.389 . S
C603 C604 1.524 . S
C604 C603 1.524 . S
C604 C605 1.397 . S
C604 C609 1.363 . S
C605 H576 0.950 . S
C605 C604 1.397 . S
C605 C606 1.334 . S
C606 H577 0.950 . S
C606 C605 1.334 . S
C606 C607 1.287 . S
C607 C606 1.287 . S
C607 C608 1.524 . S
C607 H610 0.999 . S
C608 H578 0.950 . S
C608 C607 1.524 . S
C608 C609 1.415 . S
C609 H579 0.950 . S
C609 C604 1.363 . S
C609 C608 1.415 . S
H610 C607 0.999 . S
H611 C592 0.913 . S
H612 C630 0.951 . S
H613 C632 0.951 . S
H614 C634 0.950 . S
H615 C635 0.950 . S
H616 C637 0.950 . S
H617 C640 0.950 . S
H618 C641 0.950 . S
H619 C643 0.950 . S
H620 C644 0.950 . S
H621 C645 0.951 . S
H622 C647 0.951 . S
H623 C649 0.950 . S
H624 C650 0.950 . S
H625 C652 0.950 . S
H626 C655 0.950 . S
H627 C656 0.950 . S
H628 C658 0.950 . S
H629 C659 0.950 . S
C630 H612 0.951 . S
C630 C631 1.366 . S
C630 C632 1.388 . S
C631 C630 1.366 . S
C631 C635 1.385 . S
C632 H613 0.951 . S
C632 C630 1.388 . S
C632 C633 1.366 . S
C633 C632 1.366 . S
C633 C634 1.414 . S
C633 C636 1.499 . S
C634 H614 0.950 . S
C634 C633 1.414 . S
C634 C635 1.374 . S
C635 H615 0.950 . S
C635 C631 1.385 . S
C635 C634 1.374 . S
C636 C633 1.499 . S
C636 C637 1.373 . S
C636 C638 1.389 . S
C637 H616 0.950 . S
C637 C636 1.373 . S
C637 C653 1.377 . S
C638 C636 1.389 . S
C638 C639 1.524 1_554 S
C638 C652 1.377 1_554 S
C639 C638 1.524 1_556 S
C639 C640 1.397 . S
C639 C644 1.363 . S
C640 H617 0.950 . S
C640 C639 1.397 . S
C640 C641 1.334 . S
C641 H618 0.950 . S
C641 C640 1.334 . S
C641 C642 1.287 . S
C642 C641 1.287 . S
C642 C643 1.524 . S
C642 H661 0.913 . S
C643 H619 0.950 . S
C643 C642 1.524 . S
C643 C644 1.415 . S
C644 H620 0.950 . S
C644 C639 1.363 . S
C644 C643 1.415 . S
C645 H621 0.951 . S
C645 C646 1.366 . S
C645 C647 1.388 . S
C646 C645 1.366 . S
C646 C650 1.385 . S
C647 H622 0.951 . S
C647 C645 1.388 . S
C647 C648 1.366 . S
C648 C647 1.366 . S
C648 C649 1.414 . S
C648 C651 1.499 . S
C649 H623 0.950 . S
C649 C648 1.414 . S
C649 C650 1.374 . S
C650 H624 0.950 . S
C650 C646 1.385 . S
C650 C649 1.374 . S
C651 C648 1.499 . S
C651 C652 1.373 . S
C651 C653 1.389 1_556 S
C652 H625 0.950 . S
C652 C638 1.377 1_556 S
C652 C651 1.373 . S
C653 C637 1.377 . S
C653 C651 1.389 1_554 S
C653 C654 1.524 . S
C654 C653 1.524 . S
C654 C655 1.397 . S
C654 C659 1.363 . S
C655 H626 0.950 . S
C655 C654 1.397 . S
C655 C656 1.334 . S
C656 H627 0.950 . S
C656 C655 1.334 . S
C656 C657 1.287 . S
C657 C656 1.287 . S
C657 C658 1.524 . S
C657 H660 0.999 . S
C658 H628 0.950 . S
C658 C657 1.524 . S
C658 C659 1.415 . S
C659 H629 0.950 . S
C659 C654 1.363 . S
C659 C658 1.415 . S
H660 C657 0.999 . S
H661 C642 0.913 . S
H662 C680 0.951 . S
H663 C682 0.958 . S
H664 C684 0.950 . S
H665 C685 0.950 . S
H666 C687 0.950 1_556 S
H667 C690 0.950 . S
H668 C691 0.950 . S
H669 C693 0.950 . S
H670 C694 0.950 . S
H671 C695 0.951 . S
H672 C697 0.951 . S
H673 C699 0.955 . S
H674 C700 0.950 . S
H675 C702 0.950 . S
H676 C705 0.950 . S
H677 C706 0.950 . S
H678 C708 0.950 . S
H679 C709 0.950 . S
C680 H662 0.951 . S
C680 C681 1.366 1_655 S
C680 C682 1.391 . S
C681 C680 1.366 1_455 S
C681 C685 1.384 . S
C682 H663 0.958 . S
C682 C680 1.391 . S
C682 C683 1.359 1_655 S
C683 C682 1.359 1_455 S
C683 C684 1.414 . S
C683 C686 1.499 . S
C684 H664 0.950 . S
C684 C683 1.414 . S
C684 C685 1.374 . S
C685 H665 0.950 . S
C685 C681 1.384 . S
C685 C684 1.374 . S
C686 C683 1.499 . S
C686 C687 1.373 1_455 S
C686 C688 1.389 . S
C687 H666 0.950 1_554 S
C687 C686 1.373 1_655 S
C687 C703 1.377 1_554 S
C688 C686 1.389 . S
C688 C689 1.524 . S
C688 C702 1.377 . S
C689 C688 1.524 . S
C689 C690 1.397 . S
C689 C694 1.363 . S
C690 H667 0.950 . S
C690 C689 1.397 . S
C690 C691 1.334 . S
C691 H668 0.950 . S
C691 C690 1.334 . S
C691 C692 1.287 . S
C692 C691 1.287 . S
C692 C693 1.524 . S
C692 H711 0.913 . S
C693 H669 0.950 . S
C693 C692 1.524 . S
C693 C694 1.415 . S
C694 H670 0.950 . S
C694 C689 1.363 . S
C694 C693 1.415 . S
C695 H671 0.951 . S
C695 C696 1.366 . S
C695 C697 1.388 . S
C696 C695 1.366 . S
C696 C700 1.385 1_455 S
C697 H672 0.951 . S
C697 C695 1.388 . S
C697 C698 1.372 . S
C698 C697 1.372 . S
C698 C699 1.411 1_455 S
C698 C701 1.498 . S
C699 H673 0.955 . S
C699 C698 1.411 1_655 S
C699 C700 1.373 . S
C700 H674 0.950 . S
C700 C696 1.385 1_655 S
C700 C699 1.373 . S
C701 C698 1.498 . S
C701 C702 1.380 1_556 S
C701 C703 1.383 1_455 S
C702 H675 0.950 . S
C702 C688 1.377 . S
C702 C701 1.380 1_554 S
C703 C687 1.377 1_556 S
C703 C701 1.383 1_655 S
C703 C704 1.524 . S
C704 C703 1.524 . S
C704 C705 1.397 . S
C704 C709 1.363 . S
C705 H676 0.950 . S
C705 C704 1.397 . S
C705 C706 1.334 . S
C706 H677 0.950 . S
C706 C705 1.334 . S
C706 C707 1.287 . S
C707 C706 1.287 . S
C707 C708 1.524 . S
C707 H710 0.999 . S
C708 H678 0.950 . S
C708 C707 1.524 . S
C708 C709 1.415 . S
C709 H679 0.950 . S
C709 C704 1.363 . S
C709 C708 1.415 . S
H710 C707 0.999 . S
H711 C692 0.913 . S
H712 C730 0.951 . S
H713 C732 0.951 . S
H714 C734 0.960 . S
H715 C735 0.950 1_556 S
H716 C737 0.950 . S
H717 C740 0.950 . S
H718 C741 0.950 . S
H719 C743 0.950 . S
H720 C744 0.950 . S
H721 C745 0.951 . S
H722 C747 0.951 . S
H723 C749 0.950 . S
H724 C750 0.950 . S
H725 C752 0.950 . S
H726 C755 0.950 . S
H727 C756 0.950 . S
H728 C758 0.950 . S
H729 C759 0.950 . S
C730 H712 0.951 . S
C730 C731 1.366 . S
C730 C732 1.388 . S
C731 C730 1.366 . S
C731 C735 1.385 . S
C732 H713 0.951 . S
C732 C730 1.388 . S
C732 C733 1.366 . S
C733 C732 1.366 . S
C733 C734 1.414 . S
C733 C736 1.500 . S
C734 H714 0.960 . S
C734 C733 1.414 . S
C734 C735 1.374 . S
C735 H715 0.950 1_554 S
C735 C731 1.385 . S
C735 C734 1.374 . S
C736 C733 1.500 . S
C736 C737 1.367 1_455 S
C736 C738 1.394 . S
C737 H716 0.950 . S
C737 C736 1.367 1_655 S
C737 C753 1.377 . S
C738 C736 1.394 . S
C738 C739 1.524 . S
C738 C752 1.377 . S
C739 C738 1.524 . S
C739 C740 1.397 . S
C739 C744 1.363 . S
C740 H717 0.950 . S
C740 C739 1.397 . S
C740 C741 1.334 . S
C741 H718 0.950 . S
C741 C740 1.334 . S
C741 C742 1.287 . S
C742 C741 1.287 . S
C742 C743 1.524 . S
C742 H761 0.913 . S
C743 H719 0.950 . S
C743 C742 1.524 . S
C743 C744 1.415 . S
C744 H720 0.950 . S
C744 C739 1.363 . S
C744 C743 1.415 . S
C745 H721 0.951 . S
C745 C746 1.366 . S
C745 C747 1.388 . S
C746 C745 1.366 . S
C746 C750 1.385 . S
C747 H722 0.951 . S
C747 C745 1.388 . S
C747 C748 1.366 . S
C748 C747 1.366 . S
C748 C749 1.414 . S
C748 C751 1.499 . S
C749 H723 0.950 . S
C749 C748 1.414 . S
C749 C750 1.374 . S
C750 H724 0.950 . S
C750 C746 1.385 . S
C750 C749 1.374 . S
C751 C748 1.499 . S
C751 C752 1.373 1_655 S
C751 C753 1.389 . S
C752 H725 0.950 . S
C752 C738 1.377 . S
C752 C751 1.373 1_455 S
C753 C737 1.377 . S
C753 C751 1.389 . S
C753 C754 1.524 . S
C754 C753 1.524 . S
C754 C755 1.397 . S
C754 C759 1.363 . S
C755 H726 0.950 . S
C755 C754 1.397 . S
C755 C756 1.334 . S
C756 H727 0.950 . S
C756 C755 1.334 . S
C756 C757 1.287 . S
C757 C756 1.287 . S
C757 C758 1.524 . S
C757 H760 0.999 . S
C758 H728 0.950 . S
C758 C757 1.524 . S
C758 C759 1.415 . S
C759 H729 0.950 . S
C759 C754 1.363 . S
C759 C758 1.415 . S
H760 C757 0.999 . S
H761 C742 0.913 . S
H762 C780 0.951 . S
H763 C782 0.951 . S
H764 C784 0.950 . S
H765 C785 0.950 . S
H766 C787 0.950 . S
H767 C790 0.950 . S
H768 C791 0.950 . S
H769 C793 0.950 1_565 S
H770 C794 0.950 . S
H771 C795 0.951 1_545 S
H772 C797 0.951 1_545 S
H773 C799 0.950 . S
H774 C800 0.950 . S
H775 C802 0.950 . S
H776 C805 0.950 . S
H777 C806 0.950 . S
H778 C808 0.950 . S
H779 C809 0.950 1_545 S
C780 H762 0.951 . S
C780 C781 1.366 1_565 S
C780 C782 1.388 . S
C781 C780 1.366 1_545 S
C781 C785 1.385 . S
C782 H763 0.951 . S
C782 C780 1.388 . S
C782 C783 1.366 1_565 S
C783 C782 1.366 1_545 S
C783 C784 1.414 . S
C783 C786 1.504 . S
C784 H764 0.950 . S
C784 C783 1.414 . S
C784 C785 1.374 . S
C785 H765 0.950 . S
C785 C781 1.385 . S
C785 C784 1.374 . S
C786 C783 1.504 . S
C786 C787 1.366 1_545 S
C786 C788 1.389 . S
C787 H766 0.950 . S
C787 C786 1.366 1_565 S
C787 C803 1.377 . S
C788 C786 1.389 . S
C788 C789 1.541 . S
C788 C802 1.366 1_545 S
C789 C788 1.541 . S
C789 C790 1.397 . S
C789 C794 1.363 1_545 S
C790 H767 0.950 . S
C790 C789 1.397 . S
C790 C791 1.334 . S
C791 H768 0.950 . S
C791 C790 1.334 . S
C791 C792 1.287 . S
C792 C791 1.287 . S
C792 C793 1.524 . S
C792 H811 0.913 . S
C793 H769 0.950 1_545 S
C793 C792 1.524 . S
C793 C794 1.415 1_545 S
C794 H770 0.950 . S
C794 C789 1.363 1_565 S
C794 C793 1.415 1_565 S
C795 H771 0.951 1_565 S
C795 C796 1.366 . S
C795 C797 1.388 . S
C796 C795 1.366 . S
C796 C800 1.385 . S
C797 H772 0.951 1_565 S
C797 C795 1.388 . S
C797 C798 1.366 . S
C798 C797 1.366 . S
C798 C799 1.414 . S
C798 C801 1.499 . S
C799 H773 0.950 . S
C799 C798 1.414 . S
C799 C800 1.374 . S
C800 H774 0.950 . S
C800 C796 1.385 . S
C800 C799 1.374 . S
C801 C798 1.499 . S
C801 C802 1.373 . S
C801 C803 1.389 . S
C802 H775 0.950 . S
C802 C788 1.366 1_565 S
C802 C801 1.373 . S
C803 C787 1.377 . S
C803 C801 1.389 . S
C803 C804 1.524 . S
C804 C803 1.524 . S
C804 C805 1.397 . S
C804 C809 1.363 . S
C805 H776 0.950 . S
C805 C804 1.397 . S
C805 C806 1.334 . S
C806 H777 0.950 . S
C806 C805 1.334 . S
C806 C807 1.287 . S
C807 C806 1.287 . S
C807 C808 1.524 1_554 S
C807 H810 0.999 1_554 S
C808 H778 0.950 . S
C808 C807 1.524 1_556 S
C808 C809 1.415 1_556 S
C809 H779 0.950 1_565 S
C809 C804 1.363 . S
C809 C808 1.415 1_554 S
H810 C807 0.999 1_556 S
H811 C792 0.913 . S
H812 C830 0.951 1_556 S
H813 C832 0.951 . S
H814 C834 0.950 . S
H815 C835 0.950 . S
H816 C837 0.950 . S
H817 C840 0.950 . S
H818 C841 0.950 . S
H819 C843 0.950 . S
H820 C844 0.950 . S
H821 C845 0.951 . S
H822 C847 0.951 . S
H823 C849 0.950 . S
H824 C850 0.950 . S
H825 C852 0.950 . S
H826 C855 0.950 . S
H827 C856 0.950 . S
H828 C858 0.950 . S
H829 C859 0.950 . S
C830 H812 0.951 1_554 S
C830 C831 1.366 . S
C830 C832 1.388 . S
C831 C830 1.366 . S
C831 C835 1.385 . S
C832 H813 0.951 . S
C832 C830 1.388 . S
C832 C833 1.366 . S
C833 C832 1.366 . S
C833 C834 1.414 . S
C833 C836 1.499 . S
C834 H814 0.950 . S
C834 C833 1.414 . S
C834 C835 1.374 . S
C835 H815 0.950 . S
C835 C831 1.385 . S
C835 C834 1.374 . S
C836 C833 1.499 . S
C836 C837 1.373 . S
C836 C838 1.389 . S
C837 H816 0.950 . S
C837 C836 1.373 . S
C837 C853 1.377 . S
C838 C836 1.389 . S
C838 C839 1.524 . S
C838 C852 1.377 . S
C839 C838 1.524 . S
C839 C840 1.397 . S
C839 C844 1.363 . S
C840 H817 0.950 . S
C840 C839 1.397 . S
C840 C841 1.334 . S
C841 H818 0.950 . S
C841 C840 1.334 . S
C841 C842 1.287 . S
C842 C841 1.287 . S
C842 C843 1.524 . S
C842 H861 0.913 . S
C843 H819 0.950 . S
C843 C842 1.524 . S
C843 C844 1.415 . S
C844 H820 0.950 . S
C844 C839 1.363 . S
C844 C843 1.415 . S
C845 H821 0.951 . S
C845 C846 1.366 . S
C845 C847 1.388 . S
C846 C845 1.366 . S
C846 C850 1.385 . S
C847 H822 0.951 . S
C847 C845 1.388 . S
C847 C848 1.366 . S
C848 C847 1.366 . S
C848 C849 1.414 . S
C848 C851 1.499 . S
C849 H823 0.950 . S
C849 C848 1.414 . S
C849 C850 1.374 . S
C850 H824 0.950 . S
C850 C846 1.385 . S
C850 C849 1.374 . S
C851 C848 1.499 . S
C851 C852 1.373 . S
C851 C853 1.389 . S
C852 H825 0.950 . S
C852 C838 1.377 . S
C852 C851 1.373 . S
C853 C837 1.377 . S
C853 C851 1.389 . S
C853 C854 1.524 . S
C854 C853 1.524 . S
C854 C855 1.397 . S
C854 C859 1.363 . S
C855 H826 0.950 . S
C855 C854 1.397 . S
C855 C856 1.334 . S
C856 H827 0.950 . S
C856 C855 1.334 . S
C856 C857 1.287 . S
C857 C856 1.287 . S
C857 C858 1.524 . S
C857 H860 0.999 . S
C858 H828 0.950 . S
C858 C857 1.524 . S
C858 C859 1.415 . S
C859 H829 0.950 . S
C859 C854 1.363 . S
C859 C858 1.415 . S
H860 C857 0.999 . S
H861 C842 0.913 . S
H862 C880 0.951 . S
H863 C882 0.951 . S
H864 C884 0.950 . S
H865 C885 0.950 . S
H866 C887 0.950 . S
H867 C890 0.950 . S
H868 C891 0.950 . S
H869 C893 0.950 . S
H870 C894 0.950 . S
H871 C895 0.951 . S
H872 C897 0.951 . S
H873 C899 0.950 . S
H874 C900 0.950 . S
H875 C902 0.950 . S
H876 C905 0.950 . S
H877 C906 0.950 . S
H878 C908 0.950 1_556 S
H879 C909 0.950 . S
C880 H862 0.951 . S
C880 C881 1.366 . S
C880 C882 1.388 . S
C881 C880 1.366 . S
C881 C885 1.385 . S
C882 H863 0.951 . S
C882 C880 1.388 . S
C882 C883 1.366 . S
C883 C882 1.366 . S
C883 C884 1.414 . S
C883 C886 1.499 . S
C884 H864 0.950 . S
C884 C883 1.414 . S
C884 C885 1.374 . S
C885 H865 0.950 . S
C885 C881 1.385 . S
C885 C884 1.374 . S
C886 C883 1.499 . S
C886 C887 1.373 . S
C886 C888 1.389 . S
C887 H866 0.950 . S
C887 C886 1.373 . S
C887 C903 1.377 . S
C888 C886 1.389 . S
C888 C889 1.524 . S
C888 C902 1.377 . S
C889 C888 1.524 . S
C889 C890 1.397 . S
C889 C894 1.363 . S
C890 H867 0.950 . S
C890 C889 1.397 . S
C890 C891 1.334 . S
C891 H868 0.950 . S
C891 C890 1.334 . S
C891 C892 1.287 . S
C892 C891 1.287 . S
C892 C893 1.524 . S
C892 H911 0.913 . S
C893 H869 0.950 . S
C893 C892 1.524 . S
C893 C894 1.415 . S
C894 H870 0.950 . S
C894 C889 1.363 . S
C894 C893 1.415 . S
C895 H871 0.951 . S
C895 C896 1.366 . S
C895 C897 1.388 . S
C896 C895 1.366 . S
C896 C900 1.385 . S
C897 H872 0.951 . S
C897 C895 1.388 . S
C897 C898 1.366 . S
C898 C897 1.366 . S
C898 C899 1.414 . S
C898 C901 1.499 . S
C899 H873 0.950 . S
C899 C898 1.414 . S
C899 C900 1.374 . S
C900 H874 0.950 . S
C900 C896 1.385 . S
C900 C899 1.374 . S
C901 C898 1.499 . S
C901 C902 1.373 . S
C901 C903 1.389 . S
C902 H875 0.950 . S
C902 C888 1.377 . S
C902 C901 1.373 . S
C903 C887 1.377 . S
C903 C901 1.389 . S
C903 C904 1.524 . S
C904 C903 1.524 . S
C904 C905 1.397 . S
C904 C909 1.363 . S
C905 H876 0.950 . S
C905 C904 1.397 . S
C905 C906 1.334 . S
C906 H877 0.950 . S
C906 C905 1.334 . S
C906 C907 1.287 . S
C907 C906 1.287 . S
C907 C908 1.524 . S
C907 H910 0.999 1_554 S
C908 H878 0.950 1_554 S
C908 C907 1.524 . S
C908 C909 1.415 . S
C909 H879 0.950 . S
C909 C904 1.363 . S
C909 C908 1.415 . S
H910 C907 0.999 1_556 S
H911 C892 0.913 . S
H912 C930 0.951 . S
H913 C932 0.951 . S
H914 C934 0.950 . S
H915 C935 0.950 . S
H916 C937 0.950 . S
H917 C940 0.950 . S
H918 C941 0.950 . S
H919 C943 0.950 . S
H920 C944 0.950 . S
H921 C945 0.951 . S
H922 C947 0.951 . S
H923 C949 0.950 . S
H924 C950 0.950 . S
H925 C952 0.950 . S
H926 C955 0.950 . S
H927 C956 0.950 . S
H928 C958 0.950 . S
H929 C959 0.950 . S
C930 H912 0.951 . S
C930 C931 1.366 1_455 S
C930 C932 1.388 . S
C931 C930 1.366 1_655 S
C931 C935 1.385 . S
C932 H913 0.951 . S
C932 C930 1.388 . S
C932 C933 1.366 . S
C933 C932 1.366 . S
C933 C934 1.414 1_455 S
C933 C936 1.499 . S
C934 H914 0.950 . S
C934 C933 1.414 1_655 S
C934 C935 1.374 . S
C935 H915 0.950 . S
C935 C931 1.385 . S
C935 C934 1.374 . S
C936 C933 1.499 . S
C936 C937 1.373 1_455 S
C936 C938 1.389 . S
C937 H916 0.950 . S
C937 C936 1.373 1_655 S
C937 C953 1.377 . S
C938 C936 1.389 . S
C938 C939 1.524 . S
C938 C952 1.377 . S
C939 C938 1.524 . S
C939 C940 1.397 . S
C939 C944 1.363 . S
C940 H917 0.950 . S
C940 C939 1.397 . S
C940 C941 1.334 . S
C941 H918 0.950 . S
C941 C940 1.334 . S
C941 C942 1.287 . S
C942 C941 1.287 . S
C942 C943 1.524 . S
C942 H961 0.913 . S
C943 H919 0.950 . S
C943 C942 1.524 . S
C943 C944 1.415 . S
C944 H920 0.950 . S
C944 C939 1.363 . S
C944 C943 1.415 . S
C945 H921 0.951 . S
C945 C946 1.366 1_554 S
C945 C947 1.388 . S
C946 C945 1.366 1_556 S
C946 C950 1.385 . S
C947 H922 0.951 . S
C947 C945 1.388 . S
C947 C948 1.366 . S
C948 C947 1.366 . S
C948 C949 1.414 1_554 S
C948 C951 1.499 . S
C949 H923 0.950 . S
C949 C948 1.414 1_556 S
C949 C950 1.374 . S
C950 H924 0.950 . S
C950 C946 1.385 . S
C950 C949 1.374 . S
C951 C948 1.499 . S
C951 C952 1.373 . S
C951 C953 1.389 1_455 S
C952 H925 0.950 . S
C952 C938 1.377 . S
C952 C951 1.373 . S
C953 C937 1.377 . S
C953 C951 1.389 1_655 S
C953 C954 1.524 . S
C954 C953 1.524 . S
C954 C955 1.397 1_554 S
C954 C959 1.363 . S
C955 H926 0.950 . S
C955 C954 1.397 1_556 S
C955 C956 1.334 . S
C956 H927 0.950 . S
C956 C955 1.334 . S
C956 C957 1.287 1_556 S
C957 C956 1.287 1_554 S
C957 C958 1.524 . S
C957 H960 0.999 1_554 S
C958 H928 0.950 . S
C958 C957 1.524 . S
C958 C959 1.415 . S
C959 H929 0.950 . S
C959 C954 1.363 . S
C959 C958 1.415 . S
H960 C957 0.999 1_556 S
H961 C942 0.913 . S
H962 C980 0.951 . S
H963 C982 0.951 . S
H964 C984 0.950 . S
H965 C985 0.950 . S
H966 C987 0.950 . S
H967 C990 0.950 . S
H968 C991 0.950 . S
H969 C993 0.950 1_545 S
H970 C994 0.950 . S
H971 C995 0.951 . S
H972 C997 0.951 . S
H973 C999 0.950 . S
H974 C1000 0.950 . S
H975 C1002 0.950 . S
H976 C1005 0.950 . S
H977 C1006 0.950 . S
H978 C1008 0.950 . S
H979 C1009 0.950 . S
C980 H962 0.951 . S
C980 C981 1.332 1_545 S
C980 C982 1.388 . S
C981 C980 1.332 1_565 S
C981 C985 1.411 . S
C982 H963 0.951 . S
C982 C980 1.388 . S
C982 C983 1.366 . S
C983 C982 1.366 . S
C983 C984 1.414 1_545 S
C983 C986 1.499 . S
C984 H964 0.950 . S
C984 C983 1.414 1_565 S
C984 C985 1.374 . S
C985 H965 0.950 . S
C985 C981 1.411 . S
C985 C984 1.374 . S
C986 C983 1.499 . S
C986 C987 1.373 . S
C986 C988 1.389 . S
C987 H966 0.950 . S
C987 C986 1.373 . S
C987 C1003 1.377 . S
C988 C986 1.389 . S
C988 C989 1.524 1_545 S
C988 C1002 1.377 . S
C989 C988 1.524 1_565 S
C989 C990 1.397 . S
C989 C994 1.363 1_565 S
C990 H967 0.950 . S
C990 C989 1.397 . S
C990 C991 1.334 . S
C991 H968 0.950 . S
C991 C990 1.334 . S
C991 C992 1.287 . S
C992 C991 1.287 . S
C992 C993 1.524 . S
C992 H1011 0.913 . S
C993 H969 0.950 1_565 S
C993 C992 1.524 . S
C993 C994 1.415 1_565 S
C994 H970 0.950 . S
C994 C989 1.363 1_545 S
C994 C993 1.415 1_545 S
C995 H971 0.951 . S
C995 C996 1.366 . S
C995 C997 1.388 . S
C996 C995 1.366 . S
C996 C1000 1.385 1_556 S
C997 H972 0.951 . S
C997 C995 1.388 . S
C997 C998 1.366 1_556 S
C998 C997 1.366 1_554 S
C998 C999 1.414 . S
C998 C1001 1.499 . S
C999 H973 0.950 . S
C999 C998 1.414 . S
C999 C1000 1.374 . S
C1000 H974 0.950 . S
C1000 C996 1.385 1_554 S
C1000 C999 1.374 . S
C1001 C998 1.499 . S
C1001 C1002 1.373 . S
C1001 C1003 1.389 . S
C1002 H975 0.950 . S
C1002 C988 1.377 . S
C1002 C1001 1.373 . S
C1003 C987 1.377 . S
C1003 C1001 1.389 . S
C1003 C1004 1.524 1_554 S
C1004 C1003 1.524 1_556 S
C1004 C1005 1.397 . S
C1004 C1009 1.363 . S
C1005 H976 0.950 . S
C1005 C1004 1.397 . S
C1005 C1006 1.334 . S
C1006 H977 0.950 . S
C1006 C1005 1.334 . S
C1006 C1007 1.287 . S
C1007 C1006 1.287 . S
C1007 C1008 1.524 . S
C1007 H1010 0.999 . S
C1008 H978 0.950 . S
C1008 C1007 1.524 . S
C1008 C1009 1.415 . S
C1009 H979 0.950 . S
C1009 C1004 1.363 . S
C1009 C1008 1.415 . S
H1010 C1007 0.999 . S
H1011 C992 0.913 . S
H1012 C1030 0.951 . S
H1013 C1032 0.951 . S
H1014 C1034 0.950 . S
H1015 C1035 0.950 . S
H1016 C1037 0.950 . S
H1017 C1040 0.950 . S
H1018 C1041 0.950 . S
H1019 C1043 0.950 . S
H1020 C1044 0.950 1_556 S
H1021 C1045 0.951 . S
H1022 C1047 0.951 . S
H1023 C1049 0.950 . S
H1024 C1050 0.950 . S
H1025 C1052 0.950 . S
H1026 C1055 0.950 . S
H1027 C1056 0.950 . S
H1028 C1058 0.950 . S
H1029 C1059 0.950 . S
C1030 H1012 0.951 . S
C1030 C1031 1.366 . S
C1030 C1032 1.388 . S
C1031 C1030 1.366 . S
C1031 C1035 1.385 . S
C1032 H1013 0.951 . S
C1032 C1030 1.388 . S
C1032 C1033 1.366 . S
C1033 C1032 1.366 . S
C1033 C1034 1.414 . S
C1033 C1036 1.499 . S
C1034 H1014 0.950 . S
C1034 C1033 1.414 . S
C1034 C1035 1.374 . S
C1035 H1015 0.950 . S
C1035 C1031 1.385 . S
C1035 C1034 1.374 . S
C1036 C1033 1.499 . S
C1036 C1037 1.373 . S
C1036 C1038 1.389 . S
C1037 H1016 0.950 . S
C1037 C1036 1.373 . S
C1037 C1053 1.377 . S
C1038 C1036 1.389 . S
C1038 C1039 1.524 . S
C1038 C1052 1.377 . S
C1039 C1038 1.524 . S
C1039 C1040 1.397 . S
C1039 C1044 1.363 . S
C1040 H1017 0.950 . S
C1040 C1039 1.397 . S
C1040 C1041 1.334 . S
C1041 H1018 0.950 . S
C1041 C1040 1.334 . S
C1041 C1042 1.287 . S
C1042 C1041 1.287 . S
C1042 C1043 1.524 1_554 S
C1042 H1061 0.913 . S
C1043 H1019 0.950 . S
C1043 C1042 1.524 1_556 S
C1043 C1044 1.415 1_556 S
C1044 H1020 0.950 1_554 S
C1044 C1039 1.363 . S
C1044 C1043 1.415 1_554 S
C1045 H1021 0.951 . S
C1045 C1046 1.366 1_554 S
C1045 C1047 1.388 . S
C1046 C1045 1.366 1_556 S
C1046 C1050 1.385 . S
C1047 H1022 0.951 . S
C1047 C1045 1.388 . S
C1047 C1048 1.366 . S
C1048 C1047 1.366 . S
C1048 C1049 1.414 1_554 S
C1048 C1051 1.499 . S
C1049 H1023 0.950 . S
C1049 C1048 1.414 1_556 S
C1049 C1050 1.374 . S
C1050 H1024 0.950 . S
C1050 C1046 1.385 . S
C1050 C1049 1.374 . S
C1051 C1048 1.499 . S
C1051 C1052 1.373 . S
C1051 C1053 1.389 . S
C1052 H1025 0.950 . S
C1052 C1038 1.377 . S
C1052 C1051 1.373 . S
C1053 C1037 1.377 . S
C1053 C1051 1.389 . S
C1053 C1054 1.524 . S
C1054 C1053 1.524 . S
C1054 C1055 1.397 . S
C1054 C1059 1.363 . S
C1055 H1026 0.950 . S
C1055 C1054 1.397 . S
C1055 C1056 1.334 . S
C1056 H1027 0.950 . S
C1056 C1055 1.334 . S
C1056 C1057 1.287 . S
C1057 C1056 1.287 . S
C1057 C1058 1.524 . S
C1057 H1060 0.999 . S
C1058 H1028 0.950 . S
C1058 C1057 1.524 . S
C1058 C1059 1.415 . S
C1059 H1029 0.950 . S
C1059 C1054 1.363 . S
C1059 C1058 1.415 . S
H1060 C1057 0.999 . S
H1061 C1042 0.913 . S
H1062 C1080 0.951 . S
H1063 C1082 0.951 . S
H1064 C1084 0.950 . S
H1065 C1085 0.950 . S
H1066 C1087 0.950 . S
H1067 C1090 0.950 . S
H1068 C1091 0.950 . S
H1069 C1093 0.950 . S
H1070 C1094 0.950 . S
H1071 C1095 0.951 . S
H1072 C1097 0.951 . S
H1073 C1099 0.950 . S
H1074 C1100 0.950 . S
H1075 C1102 0.950 1_556 S
H1076 C1105 0.950 . S
H1077 C1106 0.950 . S
H1078 C1108 0.950 . S
H1079 C1109 0.950 . S
C1080 H1062 0.951 . S
C1080 C1081 1.366 . S
C1080 C1082 1.388 . S
C1081 C1080 1.366 . S
C1081 C1085 1.385 . S
C1082 H1063 0.951 . S
C1082 C1080 1.388 . S
C1082 C1083 1.366 . S
C1083 C1082 1.366 . S
C1083 C1084 1.414 . S
C1083 C1086 1.499 . S
C1084 H1064 0.950 . S
C1084 C1083 1.414 . S
C1084 C1085 1.374 . S
C1085 H1065 0.950 . S
C1085 C1081 1.385 . S
C1085 C1084 1.374 . S
C1086 C1083 1.499 . S
C1086 C1087 1.373 . S
C1086 C1088 1.389 . S
C1087 H1066 0.950 . S
C1087 C1086 1.373 . S
C1087 C1103 1.377 . S
C1088 C1086 1.389 . S
C1088 C1089 1.524 . S
C1088 C1102 1.377 . S
C1089 C1088 1.524 . S
C1089 C1090 1.397 . S
C1089 C1094 1.363 1_554 S
C1090 H1067 0.950 . S
C1090 C1089 1.397 . S
C1090 C1091 1.334 . S
C1091 H1068 0.950 . S
C1091 C1090 1.334 . S
C1091 C1092 1.287 1_554 S
C1092 C1091 1.287 1_556 S
C1092 C1093 1.524 . S
C1092 H1111 0.913 . S
C1093 H1069 0.950 . S
C1093 C1092 1.524 . S
C1093 C1094 1.415 . S
C1094 H1070 0.950 . S
C1094 C1089 1.363 1_556 S
C1094 C1093 1.415 . S
C1095 H1071 0.951 . S
C1095 C1096 1.366 1_554 S
C1095 C1097 1.388 . S
C1096 C1095 1.366 1_556 S
C1096 C1100 1.385 . S
C1097 H1072 0.951 . S
C1097 C1095 1.388 . S
C1097 C1098 1.366 . S
C1098 C1097 1.366 . S
C1098 C1099 1.414 1_554 S
C1098 C1101 1.499 . S
C1099 H1073 0.950 . S
C1099 C1098 1.414 1_556 S
C1099 C1100 1.374 . S
C1100 H1074 0.950 . S
C1100 C1096 1.385 . S
C1100 C1099 1.374 . S
C1101 C1098 1.499 . S
C1101 C1102 1.373 . S
C1101 C1103 1.389 . S
C1102 H1075 0.950 1_554 S
C1102 C1088 1.377 . S
C1102 C1101 1.373 . S
C1103 C1087 1.377 . S
C1103 C1101 1.389 . S
C1103 C1104 1.524 . S
C1104 C1103 1.524 . S
C1104 C1105 1.397 . S
C1104 C1109 1.363 . S
C1105 H1076 0.950 . S
C1105 C1104 1.397 . S
C1105 C1106 1.334 . S
C1106 H1077 0.950 . S
C1106 C1105 1.334 . S
C1106 C1107 1.287 . S
C1107 C1106 1.287 . S
C1107 C1108 1.524 . S
C1107 H1110 0.999 . S
C1108 H1078 0.950 . S
C1108 C1107 1.524 . S
C1108 C1109 1.415 . S
C1109 H1079 0.950 . S
C1109 C1104 1.363 . S
C1109 C1108 1.415 . S
H1110 C1107 0.999 . S
H1111 C1092 0.913 . S
H1112 C1130 0.951 . S
H1113 C1132 0.951 . S
H1114 C1134 0.950 . S
H1115 C1135 0.950 . S
H1116 C1137 0.950 . S
H1117 C1140 0.950 . S
H1118 C1141 0.950 . S
H1119 C1143 0.950 . S
H1120 C1144 0.950 . S
H1121 C1145 0.951 . S
H1122 C1147 0.951 . S
H1123 C1149 0.950 . S
H1124 C1150 0.950 . S
H1125 C1152 0.950 . S
H1126 C1155 0.950 . S
H1127 C1156 0.950 . S
H1128 C1158 0.950 . S
H1129 C1159 0.950 . S
C1130 H1112 0.951 . S
C1130 C1131 1.366 . S
C1130 C1132 1.388 . S
C1131 C1130 1.366 . S
C1131 C1135 1.385 . S
C1132 H1113 0.951 . S
C1132 C1130 1.388 . S
C1132 C1133 1.366 . S
C1133 C1132 1.366 . S
C1133 C1134 1.414 . S
C1133 C1136 1.499 . S
C1134 H1114 0.950 . S
C1134 C1133 1.414 . S
C1134 C1135 1.374 . S
C1135 H1115 0.950 . S
C1135 C1131 1.385 . S
C1135 C1134 1.374 . S
C1136 C1133 1.499 . S
C1136 C1137 1.373 . S
C1136 C1138 1.389 1_455 S
C1137 H1116 0.950 . S
C1137 C1136 1.373 . S
C1137 C1153 1.377 . S
C1138 C1136 1.389 1_655 S
C1138 C1139 1.524 . S
C1138 C1152 1.377 . S
C1139 C1138 1.524 . S
C1139 C1140 1.397 . S
C1139 C1144 1.363 . S
C1140 H1117 0.950 . S
C1140 C1139 1.397 . S
C1140 C1141 1.334 . S
C1141 H1118 0.950 . S
C1141 C1140 1.334 . S
C1141 C1142 1.287 . S
C1142 C1141 1.287 . S
C1142 C1143 1.524 . S
C1142 H1161 0.913 . S
C1143 H1119 0.950 . S
C1143 C1142 1.524 . S
C1143 C1144 1.415 . S
C1144 H1120 0.950 . S
C1144 C1139 1.363 . S
C1144 C1143 1.415 . S
C1145 H1121 0.951 . S
C1145 C1146 1.366 . S
C1145 C1147 1.388 . S
C1146 C1145 1.366 . S
C1146 C1150 1.385 . S
C1147 H1122 0.951 . S
C1147 C1145 1.388 . S
C1147 C1148 1.366 . S
C1148 C1147 1.366 . S
C1148 C1149 1.414 . S
C1148 C1151 1.499 . S
C1149 H1123 0.950 . S
C1149 C1148 1.414 . S
C1149 C1150 1.374 . S
C1150 H1124 0.950 . S
C1150 C1146 1.385 . S
C1150 C1149 1.374 . S
C1151 C1148 1.499 . S
C1151 C1152 1.373 1_455 S
C1151 C1153 1.389 . S
C1152 H1125 0.950 . S
C1152 C1138 1.377 . S
C1152 C1151 1.373 1_655 S
C1153 C1137 1.377 . S
C1153 C1151 1.389 . S
C1153 C1154 1.524 . S
C1154 C1153 1.524 . S
C1154 C1155 1.397 . S
C1154 C1159 1.363 . S
C1155 H1126 0.950 . S
C1155 C1154 1.397 . S
C1155 C1156 1.334 . S
C1156 H1127 0.950 . S
C1156 C1155 1.334 . S
C1156 C1157 1.287 . S
C1157 C1156 1.287 . S
C1157 C1158 1.524 1_556 S
C1157 H1160 0.999 . S
C1158 H1128 0.950 . S
C1158 C1157 1.524 1_554 S
C1158 C1159 1.415 1_554 S
C1159 H1129 0.950 . S
C1159 C1154 1.363 . S
C1159 C1158 1.415 1_556 S
H1160 C1157 0.999 . S
H1161 C1142 0.913 . S
H1162 C1180 0.951 . S
H1163 C1182 0.951 . S
H1164 C1184 0.950 . S
H1165 C1185 0.950 . S
H1166 C1187 0.947 . S
H1167 C1190 0.950 . S
H1168 C1191 0.950 . S
H1169 C1193 0.950 . S
H1170 C1194 0.950 . S
H1171 C1195 0.951 . S
H1172 C1197 0.951 . S
H1173 C1199 0.950 . S
H1174 C1200 0.950 . S
H1175 C1202 0.950 . S
H1176 C1205 0.950 . S
H1177 C1206 0.950 1_545 S
H1178 C1208 0.950 . S
H1179 C1209 0.950 . S
C1180 H1162 0.951 . S
C1180 C1181 1.366 . S
C1180 C1182 1.388 . S
C1181 C1180 1.366 . S
C1181 C1185 1.385 1_545 S
C1182 H1163 0.951 . S
C1182 C1180 1.388 . S
C1182 C1183 1.366 . S
C1183 C1182 1.366 . S
C1183 C1184 1.414 1_545 S
C1183 C1186 1.499 . S
C1184 H1164 0.950 . S
C1184 C1183 1.414 1_565 S
C1184 C1185 1.374 . S
C1185 H1165 0.950 . S
C1185 C1181 1.385 1_565 S
C1185 C1184 1.374 . S
C1186 C1183 1.499 . S
C1186 C1187 1.376 1_545 S
C1186 C1188 1.389 . S
C1187 H1166 0.947 . S
C1187 C1186 1.376 1_565 S
C1187 C1203 1.377 1_565 S
C1188 C1186 1.389 . S
C1188 C1189 1.524 . S
C1188 C1202 1.377 . S
C1189 C1188 1.524 . S
C1189 C1190 1.397 . S
C1189 C1194 1.363 . S
C1190 H1167 0.950 . S
C1190 C1189 1.397 . S
C1190 C1191 1.334 . S
C1191 H1168 0.950 . S
C1191 C1190 1.334 . S
C1191 C1192 1.287 . S
C1192 C1191 1.287 . S
C1192 C1193 1.524 . S
C1192 H1211 0.913 . S
C1193 H1169 0.950 . S
C1193 C1192 1.524 . S
C1193 C1194 1.415 . S
C1194 H1170 0.950 . S
C1194 C1189 1.363 . S
C1194 C1193 1.415 . S
C1195 H1171 0.951 . S
C1195 C1196 1.366 1_565 S
C1195 C1197 1.388 . S
C1196 C1195 1.366 1_545 S
C1196 C1200 1.385 . S
C1197 H1172 0.951 . S
C1197 C1195 1.388 . S
C1197 C1198 1.366 1_565 S
C1198 C1197 1.366 1_545 S
C1198 C1199 1.414 . S
C1198 C1201 1.499 . S
C1199 H1173 0.950 . S
C1199 C1198 1.414 . S
C1199 C1200 1.374 . S
C1200 H1174 0.950 . S
C1200 C1196 1.385 . S
C1200 C1199 1.374 . S
C1201 C1198 1.499 . S
C1201 C1202 1.373 . S
C1201 C1203 1.389 . S
C1202 H1175 0.950 . S
C1202 C1188 1.377 . S
C1202 C1201 1.373 . S
C1203 C1187 1.377 1_545 S
C1203 C1201 1.389 . S
C1203 C1204 1.524 1_545 S
C1204 C1203 1.524 1_565 S
C1204 C1205 1.397 1_565 S
C1204 C1209 1.363 . S
C1205 H1176 0.950 . S
C1205 C1204 1.397 1_545 S
C1205 C1206 1.334 1_546 S
C1206 H1177 0.950 1_565 S
C1206 C1205 1.334 1_564 S
C1206 C1207 1.287 . S
C1207 C1206 1.287 . S
C1207 C1208 1.524 . S
C1207 H1210 0.999 . S
C1208 H1178 0.950 . S
C1208 C1207 1.524 . S
C1208 C1209 1.415 1_554 S
C1209 H1179 0.950 . S
C1209 C1204 1.363 . S
C1209 C1208 1.415 1_556 S
H1210 C1207 0.999 . S
H1211 C1192 0.913 . S
H1212 C1230 0.951 . S
H1213 C1232 0.951 . S
H1214 C1234 0.950 . S
H1215 C1235 0.950 . S
H1216 C1237 0.950 . S
H1217 C1240 0.950 . S
H1218 C1241 0.950 . S
H1219 C1243 0.950 . S
H1220 C1244 0.950 . S
H1221 C1245 0.951 . S
H1222 C1247 0.951 . S
H1223 C1249 0.950 . S
H1224 C1250 0.950 . S
H1225 C1252 0.950 . S
H1226 C1255 0.950 . S
H1227 C1256 0.950 . S
H1228 C1258 0.950 . S
H1229 C1259 0.950 . S
C1230 H1212 0.951 . S
C1230 C1231 1.366 . S
C1230 C1232 1.388 . S
C1231 C1230 1.366 . S
C1231 C1235 1.385 . S
C1232 H1213 0.951 . S
C1232 C1230 1.388 . S
C1232 C1233 1.366 . S
C1233 C1232 1.366 . S
C1233 C1234 1.414 . S
C1233 C1236 1.499 . S
C1234 H1214 0.950 . S
C1234 C1233 1.414 . S
C1234 C1235 1.374 . S
C1235 H1215 0.950 . S
C1235 C1231 1.385 . S
C1235 C1234 1.374 . S
C1236 C1233 1.499 . S
C1236 C1237 1.373 . S
C1236 C1238 1.389 . S
C1237 H1216 0.950 . S
C1237 C1236 1.373 . S
C1237 C1253 1.377 . S
C1238 C1236 1.389 . S
C1238 C1239 1.524 . S
C1238 C1252 1.377 . S
C1239 C1238 1.524 . S
C1239 C1240 1.397 . S
C1239 C1244 1.363 . S
C1240 H1217 0.950 . S
C1240 C1239 1.397 . S
C1240 C1241 1.334 . S
C1241 H1218 0.950 . S
C1241 C1240 1.334 . S
C1241 C1242 1.287 . S
C1242 C1241 1.287 . S
C1242 C1243 1.524 . S
C1242 H1261 0.913 . S
C1243 H1219 0.950 . S
C1243 C1242 1.524 . S
C1243 C1244 1.415 . S
C1244 H1220 0.950 . S
C1244 C1239 1.363 . S
C1244 C1243 1.415 . S
C1245 H1221 0.951 . S
C1245 C1246 1.366 . S
C1245 C1247 1.388 . S
C1246 C1245 1.366 . S
C1246 C1250 1.385 . S
C1247 H1222 0.951 . S
C1247 C1245 1.388 . S
C1247 C1248 1.366 . S
C1248 C1247 1.366 . S
C1248 C1249 1.414 . S
C1248 C1251 1.499 . S
C1249 H1223 0.950 . S
C1249 C1248 1.414 . S
C1249 C1250 1.374 . S
C1250 H1224 0.950 . S
C1250 C1246 1.385 . S
C1250 C1249 1.374 . S
C1251 C1248 1.499 . S
C1251 C1252 1.373 . S
C1251 C1253 1.389 . S
C1252 H1225 0.950 . S
C1252 C1238 1.377 . S
C1252 C1251 1.373 . S
C1253 C1237 1.377 . S
C1253 C1251 1.389 . S
C1253 C1254 1.524 . S
C1254 C1253 1.524 . S
C1254 C1255 1.397 . S
C1254 C1259 1.363 . S
C1255 H1226 0.950 . S
C1255 C1254 1.397 . S
C1255 C1256 1.334 . S
C1256 H1227 0.950 . S
C1256 C1255 1.334 . S
C1256 C1257 1.287 . S
C1257 C1256 1.287 . S
C1257 C1258 1.524 . S
C1257 H1260 0.999 . S
C1258 H1228 0.950 . S
C1258 C1257 1.524 . S
C1258 C1259 1.415 . S
C1259 H1229 0.950 . S
C1259 C1254 1.363 . S
C1259 C1258 1.415 . S
H1260 C1257 0.999 . S
H1261 C1242 0.913 . S
H1262 C1280 0.951 . S
H1263 C1282 0.951 . S
H1264 C1284 0.950 . S
H1265 C1285 0.950 . S
H1266 C1287 0.950 . S
H1267 C1290 0.950 . S
H1268 C1291 0.950 . S
H1269 C1293 0.950 . S
H1270 C1294 0.950 . S
H1271 C1295 0.951 . S
H1272 C1297 0.951 . S
H1273 C1299 0.950 . S
H1274 C1300 0.950 . S
H1275 C1302 0.950 . S
H1276 C1305 0.950 . S
H1277 C1306 0.950 . S
H1278 C1308 0.950 . S
H1279 C1309 0.950 . S
C1280 H1262 0.951 . S
C1280 C1281 1.366 . S
C1280 C1282 1.388 . S
C1281 C1280 1.366 . S
C1281 C1285 1.385 . S
C1282 H1263 0.951 . S
C1282 C1280 1.388 . S
C1282 C1283 1.366 . S
C1283 C1282 1.366 . S
C1283 C1284 1.414 . S
C1283 C1286 1.499 . S
C1284 H1264 0.950 . S
C1284 C1283 1.414 . S
C1284 C1285 1.374 . S
C1285 H1265 0.950 . S
C1285 C1281 1.385 . S
C1285 C1284 1.374 . S
C1286 C1283 1.499 . S
C1286 C1287 1.373 . S
C1286 C1288 1.389 . S
C1287 H1266 0.950 . S
C1287 C1286 1.373 . S
C1287 C1303 1.377 . S
C1288 C1286 1.389 . S
C1288 C1289 1.524 . S
C1288 C1302 1.377 . S
C1289 C1288 1.524 . S
C1289 C1290 1.397 . S
C1289 C1294 1.363 . S
C1290 H1267 0.950 . S
C1290 C1289 1.397 . S
C1290 C1291 1.334 . S
C1291 H1268 0.950 . S
C1291 C1290 1.334 . S
C1291 C1292 1.287 . S
C1292 C1291 1.287 . S
C1292 C1293 1.524 . S
C1292 H1311 0.913 . S
C1293 H1269 0.950 . S
C1293 C1292 1.524 . S
C1293 C1294 1.415 . S
C1294 H1270 0.950 . S
C1294 C1289 1.363 . S
C1294 C1293 1.415 . S
C1295 H1271 0.951 . S
C1295 C1296 1.366 . S
C1295 C1297 1.388 . S
C1296 C1295 1.366 . S
C1296 C1300 1.385 . S
C1297 H1272 0.951 . S
C1297 C1295 1.388 . S
C1297 C1298 1.366 . S
C1298 C1297 1.366 . S
C1298 C1299 1.414 . S
C1298 C1301 1.499 . S
C1299 H1273 0.950 . S
C1299 C1298 1.414 . S
C1299 C1300 1.374 . S
C1300 H1274 0.950 . S
C1300 C1296 1.385 . S
C1300 C1299 1.374 . S
C1301 C1298 1.499 . S
C1301 C1302 1.373 . S
C1301 C1303 1.389 . S
C1302 H1275 0.950 . S
C1302 C1288 1.377 . S
C1302 C1301 1.373 . S
C1303 C1287 1.377 . S
C1303 C1301 1.389 . S
C1303 C1304 1.524 . S
C1304 C1303 1.524 . S
C1304 C1305 1.397 . S
C1304 C1309 1.363 . S
C1305 H1276 0.950 . S
C1305 C1304 1.397 . S
C1305 C1306 1.334 . S
C1306 H1277 0.950 . S
C1306 C1305 1.334 . S
C1306 C1307 1.287 . S
C1307 C1306 1.287 . S
C1307 C1308 1.524 . S
C1307 H1310 0.999 . S
C1308 H1278 0.950 . S
C1308 C1307 1.524 . S
C1308 C1309 1.415 . S
C1309 H1279 0.950 . S
C1309 C1304 1.363 . S
C1309 C1308 1.415 . S
H1310 C1307 0.999 . S
H1311 C1292 0.913 . S
H1312 C1330 0.951 . S
H1313 C1332 0.951 . S
H1314 C1334 0.950 . S
H1315 C1335 0.950 . S
H1316 C1337 0.950 . S
H1317 C1340 0.950 . S
H1318 C1341 0.950 . S
H1319 C1343 0.950 . S
H1320 C1344 0.950 . S
H1321 C1345 0.951 . S
H1322 C1347 0.951 . S
H1323 C1349 0.950 . S
H1324 C1350 0.950 . S
H1325 C1352 0.950 . S
H1326 C1355 0.950 . S
H1327 C1356 0.950 . S
H1328 C1358 0.950 . S
H1329 C1359 0.950 . S
C1330 H1312 0.951 . S
C1330 C1331 1.336 1_455 S
C1330 C1332 1.388 . S
C1331 C1330 1.336 1_655 S
C1331 C1335 1.416 . S
C1332 H1313 0.951 . S
C1332 C1330 1.388 . S
C1332 C1333 1.366 1_455 S
C1333 C1332 1.366 1_655 S
C1333 C1334 1.414 . S
C1333 C1336 1.499 . S
C1334 H1314 0.950 . S
C1334 C1333 1.414 . S
C1334 C1335 1.374 . S
C1335 H1315 0.950 . S
C1335 C1331 1.416 . S
C1335 C1334 1.374 . S
C1336 C1333 1.499 . S
C1336 C1337 1.373 . S
C1336 C1338 1.389 1_655 S
C1337 H1316 0.950 . S
C1337 C1336 1.373 . S
C1337 C1353 1.377 . S
C1338 C1336 1.389 1_455 S
C1338 C1339 1.524 . S
C1338 C1352 1.377 . S
C1339 C1338 1.524 . S
C1339 C1340 1.397 . S
C1339 C1344 1.363 . S
C1340 H1317 0.950 . S
C1340 C1339 1.397 . S
C1340 C1341 1.334 . S
C1341 H1318 0.950 . S
C1341 C1340 1.334 . S
C1341 C1342 1.287 . S
C1342 C1341 1.287 . S
C1342 C1343 1.524 . S
C1342 H1361 0.913 . S
C1343 H1319 0.950 . S
C1343 C1342 1.524 . S
C1343 C1344 1.415 . S
C1344 H1320 0.950 . S
C1344 C1339 1.363 . S
C1344 C1343 1.415 . S
C1345 H1321 0.951 . S
C1345 C1346 1.366 . S
C1345 C1347 1.388 . S
C1346 C1345 1.366 . S
C1346 C1350 1.385 1_655 S
C1347 H1322 0.951 . S
C1347 C1345 1.388 . S
C1347 C1348 1.366 . S
C1348 C1347 1.366 . S
C1348 C1349 1.414 1_655 S
C1348 C1351 1.499 . S
C1349 H1323 0.950 . S
C1349 C1348 1.414 1_455 S
C1349 C1350 1.374 . S
C1350 H1324 0.950 . S
C1350 C1346 1.385 1_455 S
C1350 C1349 1.374 . S
C1351 C1348 1.499 . S
C1351 C1352 1.373 1_655 S
C1351 C1353 1.389 . S
C1352 H1325 0.950 . S
C1352 C1338 1.377 . S
C1352 C1351 1.373 1_455 S
C1353 C1337 1.377 . S
C1353 C1351 1.389 . S
C1353 C1354 1.524 . S
C1354 C1353 1.524 . S
C1354 C1355 1.397 . S
C1354 C1359 1.363 . S
C1355 H1326 0.950 . S
C1355 C1354 1.397 . S
C1355 C1356 1.334 . S
C1356 H1327 0.950 . S
C1356 C1355 1.334 . S
C1356 C1357 1.287 . S
C1357 C1356 1.287 . S
C1357 C1358 1.524 . S
C1357 H1360 0.999 . S
C1358 H1328 0.950 . S
C1358 C1357 1.524 . S
C1358 C1359 1.415 . S
C1359 H1329 0.950 . S
C1359 C1354 1.363 . S
C1359 C1358 1.415 . S
H1360 C1357 0.999 . S
H1361 C1342 0.913 . S
H1362 C1380 0.951 . S
H1363 C1382 0.951 . S
H1364 C1384 0.950 . S
H1365 C1385 0.950 . S
H1366 C1387 0.950 . S
H1367 C1390 0.950 1_545 S
H1368 C1391 0.950 . S
H1369 C1393 0.950 . S
H1370 C1394 0.950 . S
H1371 C1395 0.951 . S
H1372 C1397 0.951 . S
H1373 C1399 0.950 . S
H1374 C1400 0.950 . S
H1375 C1402 0.950 . S
H1376 C1405 0.950 1_565 S
H1377 C1406 0.950 . S
H1378 C1408 0.950 . S
H1379 C1409 0.950 . S
C1380 H1362 0.951 . S
C1380 C1381 1.390 . S
C1380 C1382 1.388 . S
C1381 C1380 1.390 . S
C1381 C1385 1.361 1_565 S
C1382 H1363 0.951 . S
C1382 C1380 1.388 . S
C1382 C1383 1.366 . S
C1383 C1382 1.366 . S
C1383 C1384 1.414 1_565 S
C1383 C1386 1.499 . S
C1384 H1364 0.950 . S
C1384 C1383 1.414 1_545 S
C1384 C1385 1.374 . S
C1385 H1365 0.950 . S
C1385 C1381 1.361 1_545 S
C1385 C1384 1.374 . S
C1386 C1383 1.499 . S
C1386 C1387 1.373 1_565 S
C1386 C1388 1.389 . S
C1387 H1366 0.950 . S
C1387 C1386 1.373 1_545 S
C1387 C1403 1.377 . S
C1388 C1386 1.389 . S
C1388 C1389 1.524 . S
C1388 C1402 1.377 . S
C1389 C1388 1.524 . S
C1389 C1390 1.397 . S
C1389 C1394 1.363 . S
C1390 H1367 0.950 1_565 S
C1390 C1389 1.397 . S
C1390 C1391 1.334 . S
C1391 H1368 0.950 . S
C1391 C1390 1.334 . S
C1391 C1392 1.287 . S
C1392 C1391 1.287 . S
C1392 C1393 1.524 . S
C1392 H1411 0.913 . S
C1393 H1369 0.950 . S
C1393 C1392 1.524 . S
C1393 C1394 1.415 . S
C1394 H1370 0.950 . S
C1394 C1389 1.363 . S
C1394 C1393 1.415 . S
C1395 H1371 0.951 . S
C1395 C1396 1.366 1_545 S
C1395 C1397 1.388 . S
C1396 C1395 1.366 1_565 S
C1396 C1400 1.385 . S
C1397 H1372 0.951 . S
C1397 C1395 1.388 . S
C1397 C1398 1.366 1_545 S
C1398 C1397 1.366 1_565 S
C1398 C1399 1.414 . S
C1398 C1401 1.499 . S
C1399 H1373 0.950 . S
C1399 C1398 1.414 . S
C1399 C1400 1.374 . S
C1400 H1374 0.950 . S
C1400 C1396 1.385 . S
C1400 C1399 1.374 . S
C1401 C1398 1.499 . S
C1401 C1402 1.373 . S
C1401 C1403 1.389 1_565 S
C1402 H1375 0.950 . S
C1402 C1388 1.377 . S
C1402 C1401 1.373 . S
C1403 C1387 1.377 . S
C1403 C1401 1.389 1_545 S
C1403 C1404 1.524 . S
C1404 C1403 1.524 . S
C1404 C1405 1.397 . S
C1404 C1409 1.363 . S
C1405 H1376 0.950 1_545 S
C1405 C1404 1.397 . S
C1405 C1406 1.334 . S
C1406 H1377 0.950 . S
C1406 C1405 1.334 . S
C1406 C1407 1.287 . S
C1407 C1406 1.287 . S
C1407 C1408 1.524 . S
C1407 H1410 0.999 . S
C1408 H1378 0.950 . S
C1408 C1407 1.524 . S
C1408 C1409 1.415 . S
C1409 H1379 0.950 . S
C1409 C1404 1.363 . S
C1409 C1408 1.415 . S
H1410 C1407 0.999 . S
H1411 C1392 0.913 . S
H1412 C1430 0.951 . S
H1413 C1432 0.951 . S
H1414 C1434 0.950 . S
H1415 C1435 0.950 . S
H1416 C1437 0.950 . S
H1417 C1440 0.950 . S
H1418 C1441 0.950 . S
H1419 C1443 0.950 . S
H1420 C1444 0.950 . S
H1421 C1445 0.951 . S
H1422 C1447 0.951 . S
H1423 C1449 0.950 . S
H1424 C1450 0.950 . S
H1425 C1452 0.950 . S
H1426 C1455 0.950 . S
H1427 C1456 0.950 . S
H1428 C1458 0.950 . S
H1429 C1459 0.950 . S
C1430 H1412 0.951 . S
C1430 C1431 1.366 . S
C1430 C1432 1.388 . S
C1431 C1430 1.366 . S
C1431 C1435 1.385 . S
C1432 H1413 0.951 . S
C1432 C1430 1.388 . S
C1432 C1433 1.366 . S
C1433 C1432 1.366 . S
C1433 C1434 1.414 . S
C1433 C1436 1.499 . S
C1434 H1414 0.950 . S
C1434 C1433 1.414 . S
C1434 C1435 1.374 . S
C1435 H1415 0.950 . S
C1435 C1431 1.385 . S
C1435 C1434 1.374 . S
C1436 C1433 1.499 . S
C1436 C1437 1.373 . S
C1436 C1438 1.389 . S
C1437 H1416 0.950 . S
C1437 C1436 1.373 . S
C1437 C1453 1.377 . S
C1438 C1436 1.389 . S
C1438 C1439 1.524 . S
C1438 C1452 1.377 . S
C1439 C1438 1.524 . S
C1439 C1440 1.397 . S
C1439 C1444 1.363 . S
C1440 H1417 0.950 . S
C1440 C1439 1.397 . S
C1440 C1441 1.334 . S
C1441 H1418 0.950 . S
C1441 C1440 1.334 . S
C1441 C1442 1.287 . S
C1442 C1441 1.287 . S
C1442 C1443 1.524 . S
C1442 H1461 0.913 . S
C1443 H1419 0.950 . S
C1443 C1442 1.524 . S
C1443 C1444 1.415 . S
C1444 H1420 0.950 . S
C1444 C1439 1.363 . S
C1444 C1443 1.415 . S
C1445 H1421 0.951 . S
C1445 C1446 1.366 . S
C1445 C1447 1.388 . S
C1446 C1445 1.366 . S
C1446 C1450 1.385 . S
C1447 H1422 0.951 . S
C1447 C1445 1.388 . S
C1447 C1448 1.366 . S
C1448 C1447 1.366 . S
C1448 C1449 1.414 . S
C1448 C1451 1.499 . S
C1449 H1423 0.950 . S
C1449 C1448 1.414 . S
C1449 C1450 1.374 . S
C1450 H1424 0.950 . S
C1450 C1446 1.385 . S
C1450 C1449 1.374 . S
C1451 C1448 1.499 . S
C1451 C1452 1.373 . S
C1451 C1453 1.389 . S
C1452 H1425 0.950 . S
C1452 C1438 1.377 . S
C1452 C1451 1.373 . S
C1453 C1437 1.377 . S
C1453 C1451 1.389 . S
C1453 C1454 1.524 . S
C1454 C1453 1.524 . S
C1454 C1455 1.397 . S
C1454 C1459 1.363 . S
C1455 H1426 0.950 . S
C1455 C1454 1.397 . S
C1455 C1456 1.334 . S
C1456 H1427 0.950 . S
C1456 C1455 1.334 . S
C1456 C1457 1.287 . S
C1457 C1456 1.287 . S
C1457 C1458 1.524 . S
C1457 H1460 0.999 . S
C1458 H1428 0.950 . S
C1458 C1457 1.524 . S
C1458 C1459 1.415 . S
C1459 H1429 0.950 . S
C1459 C1454 1.363 . S
C1459 C1458 1.415 . S
H1460 C1457 0.999 . S
H1461 C1442 0.913 . S
H1462 C1480 0.951 . S
H1463 C1482 0.951 . S
H1464 C1484 0.950 . S
H1465 C1485 0.950 . S
H1466 C1487 0.950 . S
H1467 C1490 0.950 . S
H1468 C1491 0.950 . S
H1469 C1493 0.950 . S
H1470 C1494 0.950 . S
H1471 C1495 0.951 . S
H1472 C1497 0.951 . S
H1473 C1499 0.950 . S
H1474 C1500 0.950 . S
H1475 C1502 0.950 . S
H1476 C1505 0.950 . S
H1477 C1506 0.950 . S
H1478 C1508 0.950 . S
H1479 C1509 0.950 . S
C1480 H1462 0.951 . S
C1480 C1481 1.366 . S
C1480 C1482 1.388 . S
C1481 C1480 1.366 . S
C1481 C1485 1.385 . S
C1482 H1463 0.951 . S
C1482 C1480 1.388 . S
C1482 C1483 1.366 . S
C1483 C1482 1.366 . S
C1483 C1484 1.414 . S
C1483 C1486 1.499 . S
C1484 H1464 0.950 . S
C1484 C1483 1.414 . S
C1484 C1485 1.374 . S
C1485 H1465 0.950 . S
C1485 C1481 1.385 . S
C1485 C1484 1.374 . S
C1486 C1483 1.499 . S
C1486 C1487 1.373 . S
C1486 C1488 1.389 . S
C1487 H1466 0.950 . S
C1487 C1486 1.373 . S
C1487 C1503 1.377 . S
C1488 C1486 1.389 . S
C1488 C1489 1.524 . S
C1488 C1502 1.377 . S
C1489 C1488 1.524 . S
C1489 C1490 1.397 . S
C1489 C1494 1.363 . S
C1490 H1467 0.950 . S
C1490 C1489 1.397 . S
C1490 C1491 1.334 . S
C1491 H1468 0.950 . S
C1491 C1490 1.334 . S
C1491 C1492 1.287 . S
C1492 C1491 1.287 . S
C1492 C1493 1.524 . S
C1492 H1511 0.913 . S
C1493 H1469 0.950 . S
C1493 C1492 1.524 . S
C1493 C1494 1.415 . S
C1494 H1470 0.950 . S
C1494 C1489 1.363 . S
C1494 C1493 1.415 . S
C1495 H1471 0.951 . S
C1495 C1496 1.366 . S
C1495 C1497 1.388 . S
C1496 C1495 1.366 . S
C1496 C1500 1.385 . S
C1497 H1472 0.951 . S
C1497 C1495 1.388 . S
C1497 C1498 1.366 . S
C1498 C1497 1.366 . S
C1498 C1499 1.414 . S
C1498 C1501 1.499 . S
C1499 H1473 0.950 . S
C1499 C1498 1.414 . S
C1499 C1500 1.374 . S
C1500 H1474 0.950 . S
C1500 C1496 1.385 . S
C1500 C1499 1.374 . S
C1501 C1498 1.499 . S
C1501 C1502 1.373 . S
C1501 C1503 1.389 . S
C1502 H1475 0.950 . S
C1502 C1488 1.377 . S
C1502 C1501 1.373 . S
C1503 C1487 1.377 . S
C1503 C1501 1.389 . S
C1503 C1504 1.524 . S
C1504 C1503 1.524 . S
C1504 C1505 1.397 . S
C1504 C1509 1.363 . S
C1505 H1476 0.950 . S
C1505 C1504 1.397 . S
C1505 C1506 1.334 . S
C1506 H1477 0.950 . S
C1506 C1505 1.334 . S
C1506 C1507 1.287 . S
C1507 C1506 1.287 . S
C1507 C1508 1.524 . S
C1507 H1510 0.999 . S
C1508 H1478 0.950 . S
C1508 C1507 1.524 . S
C1508 C1509 1.415 . S
C1509 H1479 0.950 . S
C1509 C1504 1.363 . S
C1509 C1508 1.415 . S
H1510 C1507 0.999 . S
H1511 C1492 0.913 . S
C331 C125 1.784 . S
C346 C162 1.830 . S
C396 C202 1.831 . S
C381 C144 1.785 . S
C446 C242 1.830 . S
C431 C87 1.784 . S
C496 C282 1.829 . S
C481 C106 1.784 . S
C546 C171 1.830 . S
C531 C49 1.790 1_545 S
C581 C68 1.790 . S
C596 C211 1.829 . S
C631 C11 1.790 . S
C646 C251 1.830 . S
C681 C30 1.792 1_455 S
C696 C291 1.831 . S
C746 C168 0.367 . S
C731 C97 0.468 . S
C796 C208 0.368 . S
C781 C116 0.467 . S
C846 C248 0.369 . S
C831 C135 0.469 . S
C881 C78 0.467 . S
C896 C288 0.368 . S
C931 C21 0.470 . S
C946 C159 0.370 . S
C996 C199 0.368 . S
C981 C40 0.464 . S
C1046 C239 0.370 . S
C1031 C59 0.467 . S
C1081 C2 0.466 . S
C1096 C279 0.369 . S
C1131 C101 1.916 . S
C1146 C163 2.090 . S
C1181 C120 1.916 . S
C1196 C203 2.091 . S
C1246 C243 2.090 . S
C1231 C139 1.917 . S
C1296 C283 2.091 . S
C1281 C82 1.916 . S
C1331 C25 1.916 . S
C1346 C154 2.091 . S
C1396 C194 2.090 . S
C1381 C44 1.916 . S
C1446 C234 2.090 . S
C1431 C63 1.915 . S
C1481 C6 1.917 . S
C1496 C274 2.091 . S
