# Generated by pormake.
# Topology pyr, (3,6)-cn, num edge types: 1
# Building blocks:
#     Node 0, Type 0, BuildingBlock: PAMTOO_clean_linker_0, # of connection points: 3
#     Node 1, Type 0, BuildingBlock: PAMTOO_clean_linker_0, # of connection points: 3
#     Node 2, Type 0, BuildingBlock: PAMTOO_clean_linker_0, # of connection points: 3
#     Node 3, Type 0, BuildingBlock: PAMTOO_clean_linker_0, # of connection points: 3
#     Node 4, Type 0, BuildingBlock: PAMTOO_clean_linker_0, # of connection points: 3
#     Node 5, Type 0, BuildingBlock: PAMTOO_clean_linker_0, # of connection points: 3
#     Node 6, Type 0, BuildingBlock: PAMTOO_clean_linker_0, # of connection points: 3
#     Node 7, Type 0, BuildingBlock: PAMTOO_clean_linker_0, # of connection points: 3
#     Node 8, Type 1, BuildingBlock: VOLQOD_clean_sbu_1, # of connection points: 6
#     Node 9, Type 1, BuildingBlock: VOLQOD_clean_sbu_1, # of connection points: 6
#     Node 10, Type 1, BuildingBlock: VOLQOD_clean_sbu_1, # of connection points: 6
#     Node 11, Type 1, BuildingBlock: VOLQOD_clean_sbu_1, # of connection points: 6
#     Edge 12, Type (0, 1), BuildingBlock: UVAHIK_clean_linker_0, # of connection points: 2
#     Edge 13, Type (0, 1), BuildingBlock: UVAHIK_clean_linker_0, # of connection points: 2
#     Edge 14, Type (0, 1), BuildingBlock: UVAHIK_clean_linker_0, # of connection points: 2
#     Edge 15, Type (0, 1), BuildingBlock: UVAHIK_clean_linker_0, # of connection points: 2
#     Edge 16, Type (0, 1), BuildingBlock: UVAHIK_clean_linker_0, # of connection points: 2
#     Edge 17, Type (0, 1), BuildingBlock: UVAHIK_clean_linker_0, # of connection points: 2
#     Edge 18, Type (0, 1), BuildingBlock: UVAHIK_clean_linker_0, # of connection points: 2
#     Edge 19, Type (0, 1), BuildingBlock: UVAHIK_clean_linker_0, # of connection points: 2
#     Edge 20, Type (0, 1), BuildingBlock: UVAHIK_clean_linker_0, # of connection points: 2
#     Edge 21, Type (0, 1), BuildingBlock: UVAHIK_clean_linker_0, # of connection points: 2
#     Edge 22, Type (0, 1), BuildingBlock: UVAHIK_clean_linker_0, # of connection points: 2
#     Edge 23, Type (0, 1), BuildingBlock: UVAHIK_clean_linker_0, # of connection points: 2
#     Edge 24, Type (0, 1), BuildingBlock: UVAHIK_clean_linker_0, # of connection points: 2
#     Edge 25, Type (0, 1), BuildingBlock: UVAHIK_clean_linker_0, # of connection points: 2
#     Edge 26, Type (0, 1), BuildingBlock: UVAHIK_clean_linker_0, # of connection points: 2
#     Edge 27, Type (0, 1), BuildingBlock: UVAHIK_clean_linker_0, # of connection points: 2
#     Edge 28, Type (0, 1), BuildingBlock: UVAHIK_clean_linker_0, # of connection points: 2
#     Edge 29, Type (0, 1), BuildingBlock: UVAHIK_clean_linker_0, # of connection points: 2
#     Edge 30, Type (0, 1), BuildingBlock: UVAHIK_clean_linker_0, # of connection points: 2
#     Edge 31, Type (0, 1), BuildingBlock: UVAHIK_clean_linker_0, # of connection points: 2
#     Edge 32, Type (0, 1), BuildingBlock: UVAHIK_clean_linker_0, # of connection points: 2
#     Edge 33, Type (0, 1), BuildingBlock: UVAHIK_clean_linker_0, # of connection points: 2
#     Edge 34, Type (0, 1), BuildingBlock: UVAHIK_clean_linker_0, # of connection points: 2
#     Edge 35, Type (0, 1), BuildingBlock: UVAHIK_clean_linker_0, # of connection points: 2
# Relax obj value: 0.117
# Max RMSD: 0.196
# Mean RMSD: 0.161
data_MOF--net-pry--node1-VOLQOD_clean_sbu_1--node2-PAMTOO_clean_linker_0--edge1-UVAHIK_clean_linker_0
_symmetry_space_group_name_H-M    P1
_symmetry_Int_Tables_number       1
_symmetry_cell_setting            triclinic
loop_
_symmetry_equiv_pos_as_xyz
'x, y, z'
_cell_length_a     46.618242
_cell_length_b     47.989881
_cell_length_c     47.743978
_cell_angle_alpha  89.952453
_cell_angle_beta   91.197342
_cell_angle_gamma 95.196789
loop_
_atom_site_label
_atom_site_type_symbol
_atom_site_fract_x
_atom_site_fract_y
_atom_site_fract_z
_atom_type_partial_charge
H0 H 0.11766 0.17029 0.1834 0.0
H1 H 0.17487 0.10504 0.17948 0.0
H2 H 0.17757 0.1678 0.11575 0.0
H3 H 0.18143 0.11022 0.09502 0.0
C4 C 0.19331 0.10191 0.11321 0.0
O5 O 0.19904 0.12258 0.1331 0.0
H6 H 0.1795 0.0841 0.12218 0.0
C7 C 0.13478 0.16084 0.17298 0.0
C8 C 0.14596 0.17236 0.14785 0.0
C9 C 0.1451 0.13664 0.18459 0.0
C10 C 0.16651 0.12359 0.17072 0.0
C11 C 0.17784 0.1348 0.14585 0.0
C12 C 0.16783 0.15914 0.13462 0.0
H13 H 0.38495 0.9242 0.66746 0.0
H14 H 0.38434 0.86712 0.59794 0.0
H15 H 0.45019 0.86626 0.66165 0.0
H16 H 0.46934 0.85986 0.60371 0.0
C17 C 0.44991 0.84737 0.59496 0.0
O18 O 0.42945 0.84306 0.61532 0.0
H19 H 0.44123 0.85933 0.57721 0.0
C20 C 0.3948 0.90798 0.65634 0.0
C21 C 0.41934 0.89682 0.66787 0.0
C22 C 0.382 0.89752 0.63111 0.0
C23 C 0.39389 0.87553 0.61739 0.0
C24 C 0.41842 0.86445 0.62847 0.0
C25 C 0.4311 0.87505 0.65354 0.0
H26 H 0.67317 0.36535 0.94259 0.0
H27 H 0.5982 0.37155 0.88939 0.0
H28 H 0.66537 0.43843 0.89158 0.0
H29 H 0.60594 0.45576 0.88446 0.0
C30 C 0.59649 0.43759 0.87182 0.0
O31 O 0.61699 0.41921 0.86747 0.0
H32 H 0.57814 0.42703 0.88347 0.0
C33 C 0.66068 0.37722 0.92829 0.0
C34 C 0.67231 0.40367 0.91919 0.0
C35 C 0.63387 0.3653 0.91792 0.0
C36 C 0.6188 0.3802 0.89793 0.0
C37 C 0.63036 0.40634 0.88846 0.0
C38 C 0.65683 0.41814 0.89919 0.0
H39 H 0.90558 0.64727 0.46259 0.0
H40 H 0.89865 0.57669 0.40644 0.0
H41 H 0.96443 0.64361 0.39456 0.0
H42 H 0.92667 0.62564 0.34667 0.0
C43 C 0.92648 0.60256 0.34947 0.0
O44 O 0.94017 0.5966 0.37436 0.0
H45 H 0.90355 0.59381 0.34989 0.0
C46 C 0.91372 0.6361 0.44515 0.0
C47 C 0.9372 0.64836 0.43012 0.0
C48 C 0.89966 0.61018 0.43687 0.0
C49 C 0.90981 0.5962 0.41378 0.0
C50 C 0.93292 0.60845 0.39851 0.0
C51 C 0.94679 0.63424 0.40684 0.0
H52 H 0.89897 0.94539 0.88104 0.0
H53 H 0.89919 0.89184 0.95324 0.0
H54 H 0.95533 0.87891 0.88553 0.0
H55 H 0.91308 0.83208 0.9115 0.0
C56 C 0.92303 0.83532 0.93282 0.0
O57 O 0.93835 0.86129 0.93463 0.0
H58 H 0.90527 0.83425 0.94808 0.0
C59 C 0.90737 0.92802 0.89203 0.0
C60 C 0.92879 0.91343 0.87978 0.0
C61 C 0.89623 0.92022 0.9183 0.0
C62 C 0.90782 0.89849 0.93317 0.0
C63 C 0.92913 0.88377 0.92126 0.0
C64 C 0.93955 0.89118 0.89472 0.0
H65 H 0.67784 0.06206 0.3776 0.0
H66 H 0.61354 0.12079 0.38341 0.0
H67 H 0.67703 0.11718 0.4488 0.0
H68 H 0.61593 0.12934 0.46788 0.0
C69 C 0.60965 0.13936 0.44792 0.0
O70 O 0.63314 0.14232 0.43073 0.0
H71 H 0.59173 0.12592 0.43769 0.0
C72 C 0.66814 0.07819 0.38897 0.0
C73 C 0.68035 0.08768 0.41487 0.0
C74 C 0.64413 0.09003 0.37715 0.0
C75 C 0.632 0.11123 0.39194 0.0
C76 C 0.64368 0.12053 0.41783 0.0
C77 C 0.66766 0.10881 0.42927 0.0
H78 H 0.4193 0.63201 0.05525 0.0
H79 H 0.43031 0.56629 0.11482 0.0
H80 H 0.496 0.63418 0.10749 0.0
H81 H 0.51802 0.57395 0.12448 0.0
C82 C 0.49669 0.5664 0.13299 0.0
O83 O 0.47982 0.58847 0.13456 0.0
H84 H 0.48639 0.54972 0.11894 0.0
C85 C 0.43252 0.62231 0.07076 0.0
C86 C 0.45905 0.63611 0.07956 0.0
C87 C 0.42207 0.597 0.08319 0.0
C88 C 0.43852 0.58532 0.10433 0.0
C89 C 0.46546 0.59837 0.11243 0.0
C90 C 0.47586 0.62352 0.09987 0.0
H91 H 0.05789 0.37427 0.64782 0.0
H92 H 0.11534 0.44938 0.64473 0.0
H93 H 0.12425 0.3839 0.58589 0.0
H94 H 0.17309 0.40991 0.62532 0.0
C95 C 0.17123 0.43142 0.61706 0.0
O96 O 0.14506 0.43302 0.60335 0.0
H97 H 0.17266 0.44594 0.63528 0.0
C98 C 0.07541 0.38661 0.63783 0.0
C99 C 0.08926 0.37564 0.61491 0.0
C100 C 0.08495 0.41293 0.64909 0.0
C101 C 0.10704 0.42941 0.63585 0.0
C102 C 0.12095 0.41885 0.61304 0.0
C103 C 0.11211 0.39216 0.60258 0.0
O104 O 0.02607 0.06828 0.55565 0.0
Zn105 Zn 0.01038 0.0281 0.5498 0.0
O106 O 0.03644 0.00845 0.52675 0.0
Zn107 Zn 0.01691 0.996 0.4916 0.0
Zn108 Zn 0.07103 0.03315 0.5183 0.0
Zn109 Zn 0.04754 0.97605 0.54755 0.0
O110 O 0.01407 0.95399 0.48814 0.0
O111 O 0.03264 0.94023 0.52849 0.0
O112 O 0.9712 0.02814 0.53108 0.0
O113 O 0.97637 0.00755 0.49008 0.0
O114 O 0.03755 0.0126 0.45788 0.0
O115 O 0.07454 0.03905 0.47666 0.0
O116 O 0.10754 0.01723 0.53267 0.0
O117 O 0.00501 0.01027 0.58788 0.0
O118 O 0.09039 0.97634 0.55019 0.0
O119 O 0.03275 0.97508 0.58688 0.0
C120 C 0.04919 0.08239 0.5484 0.0
C121 C 0.02054 0.93464 0.50476 0.0
C122 C 0.05994 0.02962 0.45533 0.0
C123 C 0.96105 0.01965 0.5073 0.0
C124 C 0.11149 0.99385 0.54416 0.0
C125 C 0.0157 0.98967 0.59973 0.0
O126 O 0.06831 0.0714 0.53452 0.0
O127 O 0.53756 0.06533 0.98745 0.0
Zn128 Zn 0.51973 0.02603 0.99243 0.0
O129 O 0.54446 0.00469 0.0163 0.0
Zn130 Zn 0.55811 0.97459 0.99422 0.0
Zn131 Zn 0.57776 0.02898 0.03023 0.0
Zn132 Zn 0.52237 0.98888 0.04795 0.0
O133 O 0.54771 0.93733 0.01206 0.0
O134 O 0.51926 0.94659 0.04699 0.0
O135 O 0.51318 0.00865 0.95402 0.0
O136 O 0.53996 0.97273 0.95565 0.0
O137 O 0.60104 0.97938 0.99012 0.0
O138 O 0.6153 0.01569 0.01737 0.0
O139 O 0.57921 0.02985 0.07234 0.0
O140 O 0.48093 0.02847 0.00983 0.0
O141 O 0.54127 0.0016 0.08482 0.0
O142 O 0.48236 0.00171 0.04768 0.0
C143 C 0.55926 0.07947 0.99862 0.0
C144 C 0.53141 0.92922 0.03209 0.0
C145 C 0.62096 0.9961 0.00096 0.0
C146 C 0.52269 0.98746 0.94256 0.0
C147 C 0.56353 0.01794 0.09118 0.0
C148 C 0.46909 0.01762 0.03156 0.0
O149 O 0.57596 0.06846 0.01605 0.0
O150 O 0.55153 0.51011 0.56836 0.0
Zn151 Zn 0.55305 0.52309 0.52834 0.0
O152 O 0.52986 0.49702 0.50362 0.0
Zn153 Zn 0.5545 0.48255 0.47543 0.0
Zn154 Zn 0.51236 0.46592 0.52588 0.0
Zn155 Zn 0.49969 0.51651 0.48481 0.0
O156 O 0.54226 0.49307 0.43653 0.0
O157 O 0.50342 0.51572 0.44279 0.0
O158 O 0.59477 0.52665 0.51757 0.0
O159 O 0.5957 0.49819 0.48102 0.0
O160 O 0.55318 0.44049 0.47714 0.0
O161 O 0.52499 0.42901 0.51304 0.0
O162 O 0.4691 0.46378 0.52263 0.0
O163 O 0.53848 0.56135 0.5273 0.0
O164 O 0.46033 0.49857 0.49394 0.0
O165 O 0.50131 0.55685 0.49733 0.0
C166 C 0.53888 0.48899 0.58057 0.0
C167 C 0.52154 0.5059 0.42674 0.0
C168 C 0.5409 0.42215 0.49329 0.0
C169 C 0.60848 0.51541 0.49844 0.0
C170 C 0.45149 0.47796 0.50926 0.0
C171 C 0.51778 0.57164 0.51428 0.0
O172 O 0.52319 0.47042 0.56684 0.0
O173 O 0.01747 0.49484 0.07433 0.0
Zn174 Zn 0.01959 0.47806 0.03605 0.0
O175 O 0.0451 0.502 0.01227 0.0
Zn176 Zn 0.02303 0.51609 0.98112 0.0
Zn177 Zn 0.06278 0.53383 0.03422 0.0
Zn178 Zn 0.07468 0.47997 0.99727 0.0
O179 O 0.0373 0.50421 0.94414 0.0
O180 O 0.07109 0.47613 0.95522 0.0
O181 O 0.97905 0.47304 0.01978 0.0
O182 O 0.98157 0.50105 0.9827 0.0
O183 O 0.02484 0.55796 0.98117 0.0
O184 O 0.05265 0.5709 0.01802 0.0
O185 O 0.10597 0.53353 0.03517 0.0
O186 O 0.03461 0.44034 0.04185 0.0
O187 O 0.11422 0.49841 0.00691 0.0
O188 O 0.07239 0.44123 0.01418 0.0
C189 C 0.03056 0.51596 0.08664 0.0
C190 C 0.05577 0.48775 0.93701 0.0
C191 C 0.03729 0.57698 0.99688 0.0
C192 C 0.96722 0.48402 0.99869 0.0
C193 C 0.12328 0.5188 0.02278 0.0
C194 C 0.05562 0.42867 0.0318 0.0
O195 O 0.04892 0.53242 0.07394 0.0
C196 C 0.1246 0.09694 0.21432 0.0
C197 C 0.13415 0.12538 0.21161 0.0
C198 C 0.11515 0.08619 0.2401 0.0
C199 C 0.09292 0.10829 0.31102 0.0
H200 H 0.10874 0.03283 0.33131 0.0
C201 C 0.08565 0.06497 0.42393 0.0
C202 C 0.06857 0.03952 0.4271 0.0
C203 C 0.09281 0.07505 0.39727 0.0
C204 C 0.10405 0.05387 0.32579 0.0
H205 H 0.14168 0.16485 0.23361 0.0
H206 H 0.12639 0.14607 0.27886 0.0
H207 H 0.12292 0.05141 0.28559 0.0
H208 H 0.04612 0.0044 0.40482 0.0
H209 H 0.05942 0.02174 0.35815 0.0
H210 H 0.07514 0.11091 0.35189 0.0
C211 C 0.12514 0.13209 0.26101 0.0
C212 C 0.11198 0.06453 0.29952 0.0
C213 C 0.13407 0.1429 0.23511 0.0
C214 C 0.05925 0.02411 0.40304 0.0
C215 C 0.06691 0.03394 0.37638 0.0
C216 C 0.08549 0.09779 0.33746 0.0
C217 C 0.11557 0.10355 0.26392 0.0
C218 C 0.10657 0.09193 0.29174 0.0
C219 C 0.08351 0.05963 0.37327 0.0
C220 C 0.09101 0.07051 0.34508 0.0
H221 H 0.12424 0.08306 0.19641 0.0
H222 H 0.10739 0.06428 0.24125 0.0
H223 H 0.08775 0.12921 0.30569 0.0
H224 H 0.09306 0.07741 0.44203 0.0
H225 H 0.1058 0.09483 0.3954 0.0
C226 C 0.43279 0.93594 0.70216 0.0
C227 C 0.43206 0.90739 0.69516 0.0
C228 C 0.44359 0.94562 0.72825 0.0
C229 C 0.49127 0.92912 0.78674 0.0
H230 H 0.44546 0.9758 0.83065 0.0
C231 C 0.51802 0.95297 0.90304 0.0
C232 C 0.51326 0.97945 0.91362 0.0
C233 C 0.50881 0.9451 0.87594 0.0
C234 C 0.4588 0.96319 0.81853 0.0
H235 H 0.44225 0.8667 0.71038 0.0
H236 H 0.46182 0.88382 0.75553 0.0
H237 H 0.42869 0.96074 0.78389 0.0
H238 H 0.49545 0.0186 0.90382 0.0
H239 H 0.48012 0.0052 0.85622 0.0
H240 H 0.52164 0.93182 0.82099 0.0
C241 C 0.45404 0.89865 0.74071 0.0
C242 C 0.4491 0.95449 0.79177 0.0
C243 C 0.44292 0.88889 0.71476 0.0
C244 C 0.49928 0.99798 0.89637 0.0
C245 C 0.49035 0.99021 0.8691 0.0
C246 C 0.50115 0.93808 0.81335 0.0
C247 C 0.45426 0.92706 0.7478 0.0
C248 C 0.46511 0.93717 0.77572 0.0
C249 C 0.4949 0.96362 0.85856 0.0
C250 C 0.48492 0.95501 0.82973 0.0
H251 H 0.42514 0.9509 0.68743 0.0
H252 H 0.44384 0.9677 0.73306 0.0
H253 H 0.50421 0.91606 0.77465 0.0
H254 H 0.52851 0.93809 0.91584 0.0
H255 H 0.5122 0.92426 0.86881 0.0
C256 C 0.56538 0.43017 0.82833 0.0
C257 C 0.58613 0.44714 0.84373 0.0
C258 C 0.55829 0.43706 0.80076 0.0
C259 C 0.58905 0.47596 0.74032 0.0
H260 H 0.51126 0.46388 0.7096 0.0
C261 C 0.56081 0.50564 0.62667 0.0
C262 C 0.54268 0.48593 0.61128 0.0
C263 C 0.56488 0.50252 0.65553 0.0
C264 C 0.53312 0.46716 0.71785 0.0
H265 H 0.61595 0.48438 0.84262 0.0
H266 H 0.60318 0.4969 0.79457 0.0
H267 H 0.52011 0.45622 0.75948 0.0
H268 H 0.51434 0.44763 0.61435 0.0
H269 H 0.52164 0.44213 0.66469 0.0
H270 H 0.60212 0.48666 0.69871 0.0
C271 C 0.59241 0.47821 0.8037 0.0
C272 C 0.5382 0.4628 0.74641 0.0
C273 C 0.59952 0.47126 0.83125 0.0
C274 C 0.52846 0.46321 0.62552 0.0
C275 C 0.53248 0.46014 0.65442 0.0
C276 C 0.58397 0.48038 0.71181 0.0
C277 C 0.57203 0.46095 0.78798 0.0
C278 C 0.56626 0.46697 0.75795 0.0
C279 C 0.55087 0.47967 0.66971 0.0
C280 C 0.55599 0.47586 0.70021 0.0
H281 H 0.55529 0.41112 0.83738 0.0
H282 H 0.54287 0.42307 0.78912 0.0
H283 H 0.61101 0.47887 0.74839 0.0
H284 H 0.57203 0.52346 0.61643 0.0
H285 H 0.57891 0.5181 0.66678 0.0
C286 C 0.96367 0.60605 0.31184 0.0
C287 C 0.94126 0.59029 0.32542 0.0
C288 C 0.97617 0.5953 0.2883 0.0
C289 C 0.95863 0.54489 0.23153 0.0
H290 H 0.03984 0.55836 0.21513 0.0
C291 C 0.00468 0.50302 0.13086 0.0
C292 C 0.02368 0.52181 0.11606 0.0
C293 C 0.99693 0.50912 0.1581 0.0
C294 C 0.01708 0.55459 0.21937 0.0
H295 H 0.91573 0.55037 0.3267 0.0
H296 H 0.93765 0.53136 0.28556 0.0
H297 H 0.0224 0.57279 0.26033 0.0
H298 H 0.05003 0.56143 0.11864 0.0
H299 H 0.03612 0.57226 0.16605 0.0
H300 H 0.95309 0.52725 0.19051 0.0
C301 C 0.94508 0.55228 0.2926 0.0
C302 C 0.00711 0.56282 0.24523 0.0
C303 C 0.93261 0.56305 0.31613 0.0
C304 C 0.03533 0.5465 0.12942 0.0
C305 C 0.0275 0.55264 0.15668 0.0
C306 C 0.96857 0.5367 0.20572 0.0
C307 C 0.96659 0.56851 0.27809 0.0
C308 C 0.97773 0.55825 0.25149 0.0
C309 C 0.00791 0.53418 0.17117 0.0
C310 C 0.99785 0.54165 0.19924 0.0
H311 H 0.97093 0.62698 0.31899 0.0
H312 H 0.99258 0.60838 0.27753 0.0
H313 H 0.93578 0.54153 0.23548 0.0
H314 H 0.9955 0.48367 0.12133 0.0
H315 H 0.98216 0.49425 0.16888 0.0
C316 C 0.23454 0.07185 0.11976 0.0
C317 C 0.22122 0.09188 0.10391 0.0
C318 C 0.2609 0.06304 0.11164 0.0
C319 C 0.30807 0.06017 0.05064 0.0
H320 H 0.36736 0.05036 0.10703 0.0
C321 C 0.4253 0.04342 0.02248 0.0
C322 C 0.43972 0.02442 0.0388 0.0
C323 C 0.39818 0.05078 0.03004 0.0
C324 C 0.35091 0.05263 0.09105 0.0
H325 H 0.22529 0.11926 0.06791 0.0
H326 H 0.27146 0.10394 0.05361 0.0
H327 H 0.32108 0.06502 0.1211 0.0
H328 H 0.43651 0.99783 0.07563 0.0
H329 H 0.38911 0.01042 0.08856 0.0
H330 H 0.33792 0.04781 0.02058 0.0
C331 C 0.26127 0.09453 0.07194 0.0
C332 C 0.32438 0.06106 0.09912 0.0
C333 C 0.23493 0.10338 0.08012 0.0
C334 C 0.42613 0.01263 0.06262 0.0
C335 C 0.399 0.01998 0.07016 0.0
C336 C 0.33459 0.05169 0.04256 0.0
C337 C 0.27455 0.07424 0.08759 0.0
C338 C 0.30267 0.06499 0.07901 0.0
C339 C 0.38479 0.03931 0.05409 0.0
C340 C 0.35636 0.04787 0.06267 0.0
H341 H 0.22448 0.06301 0.13842 0.0
H342 H 0.27046 0.04725 0.12404 0.0
H343 H 0.29164 0.06261 0.03467 0.0
H344 H 0.43513 0.05298 0.00405 0.0
H345 H 0.38799 0.06598 0.01738 0.0
C346 C 0.35438 0.93829 0.61808 0.0
C347 C 0.35589 0.90921 0.61948 0.0
C348 C 0.32958 0.94928 0.60752 0.0
C349 C 0.26242 0.92974 0.56579 0.0
H350 H 0.23513 0.99419 0.60236 0.0
C351 C 0.14574 0.95815 0.5554 0.0
C352 C 0.14105 0.98627 0.55035 0.0
C353 C 0.17334 0.95056 0.56149 0.0
C354 C 0.24272 0.97642 0.59172 0.0
H355 H 0.33256 0.86884 0.61129 0.0
H356 H 0.28907 0.88787 0.59348 0.0
H357 H 0.28068 0.97721 0.61777 0.0
H358 H 0.16174 0.0285 0.54779 0.0
H359 H 0.21024 0.01514 0.55906 0.0
H360 H 0.22383 0.9284 0.5405 0.0
C361 C 0.30726 0.9023 0.59978 0.0
C362 C 0.26884 0.96668 0.60048 0.0
C363 C 0.33214 0.89134 0.61008 0.0
C364 C 0.16469 0.00667 0.55153 0.0
C365 C 0.19237 0.99907 0.55807 0.0
C366 C 0.23621 0.9393 0.55726 0.0
C367 C 0.30564 0.93142 0.59835 0.0
C368 C 0.27882 0.94296 0.58788 0.0
C369 C 0.19691 0.97091 0.56302 0.0
C370 C 0.22592 0.96248 0.57039 0.0
H371 H 0.37252 0.95255 0.6249 0.0
H372 H 0.3293 0.97179 0.60634 0.0
H373 H 0.26972 0.91185 0.55514 0.0
H374 H 0.12805 0.94188 0.55456 0.0
H375 H 0.17617 0.92874 0.56552 0.0
C376 C 0.72103 0.42902 0.91118 0.0
C377 C 0.70125 0.41528 0.92956 0.0
C378 C 0.74883 0.43833 0.92054 0.0
C379 C 0.80316 0.42354 0.97332 0.0
H380 H 0.83975 0.49617 0.95253 0.0
C381 C 0.91833 0.4622 0.01182 0.0
C382 C 0.93618 0.47694 0.99242 0.0
C383 C 0.88899 0.45584 0.00576 0.0
C384 C 0.82997 0.47569 0.95827 0.0
H385 H 0.69493 0.40157 0.97251 0.0
H386 H 0.7437 0.41738 0.98865 0.0
H387 H 0.78959 0.48336 0.93887 0.0
H388 H 0.93722 0.49624 0.95126 0.0
H389 H 0.88645 0.48454 0.94045 0.0
H390 H 0.84365 0.41544 0.99202 0.0
C391 C 0.73767 0.4207 0.96695 0.0
C392 C 0.80121 0.46843 0.95052 0.0
C393 C 0.70978 0.41161 0.95766 0.0
C394 C 0.92407 0.48504 0.9668 0.0
C395 C 0.89485 0.4785 0.96066 0.0
C396 C 0.832 0.43069 0.98087 0.0
C397 C 0.75754 0.43393 0.94841 0.0
C398 C 0.78759 0.44221 0.9578 0.0
C399 C 0.8769 0.46389 0.98007 0.0
C400 C 0.84584 0.45677 0.97323 0.0
H401 H 0.71538 0.43181 0.8893 0.0
H402 H 0.76383 0.44818 0.90571 0.0
H403 H 0.79329 0.40304 0.97891 0.0
H404 H 0.92695 0.4558 0.03182 0.0
H405 H 0.87573 0.44486 0.02134 0.0
C406 C 0.86728 0.57093 0.45706 0.0
C407 C 0.87242 0.59934 0.45005 0.0
C408 C 0.84044 0.56038 0.46697 0.0
C409 C 0.77123 0.58231 0.49384 0.0
H410 H 0.74019 0.51042 0.46415 0.0
C411 C 0.65582 0.53628 0.51829 0.0
C412 C 0.63985 0.52275 0.49614 0.0
C413 C 0.68536 0.54361 0.51584 0.0
C414 C 0.74843 0.53062 0.47249 0.0
H415 H 0.85367 0.63901 0.448 0.0
H416 H 0.80682 0.62066 0.4646 0.0
H417 H 0.7896 0.52761 0.45449 0.0
H418 H 0.64238 0.50631 0.45404 0.0
H419 H 0.69352 0.51991 0.44938 0.0
H420 H 0.72954 0.58611 0.51035 0.0
C421 C 0.8236 0.60655 0.46332 0.0
C422 C 0.77699 0.54029 0.46733 0.0
C423 C 0.85048 0.61711 0.45372 0.0
C424 C 0.65408 0.51655 0.47157 0.0
C425 C 0.68352 0.52418 0.46899 0.0
C426 C 0.74257 0.57278 0.49872 0.0
C427 C 0.81809 0.57798 0.46973 0.0
C428 C 0.78863 0.56648 0.47756 0.0
C429 C 0.69955 0.53788 0.49106 0.0
C430 C 0.73066 0.547 0.48773 0.0
H431 H 0.88394 0.55683 0.45457 0.0
H432 H 0.83713 0.53837 0.47215 0.0
H433 H 0.77958 0.60235 0.50247 0.0
H434 H 0.64552 0.54112 0.5376 0.0
H435 H 0.69707 0.55371 0.53344 0.0
C436 C 0.12614 0.2193 0.15285 0.0
C437 C 0.13502 0.19811 0.13554 0.0
C438 C 0.11597 0.24341 0.14129 0.0
C439 C 0.09005 0.27305 0.07368 0.0
H440 H 0.10526 0.34328 0.11373 0.0
C441 C 0.0785 0.38365 0.02655 0.0
C442 C 0.06179 0.40072 0.0422 0.0
C443 C 0.08576 0.35801 0.03729 0.0
C444 C 0.10075 0.32375 0.10243 0.0
H445 H 0.13963 0.18589 0.09218 0.0
H446 H 0.12389 0.22849 0.07222 0.0
H447 H 0.12205 0.30078 0.13362 0.0
H448 H 0.03946 0.40421 0.08129 0.0
H449 H 0.05289 0.35977 0.1003 0.0
H450 H 0.06988 0.29673 0.04189 0.0
C451 C 0.12389 0.2262 0.09477 0.0
C452 C 0.11017 0.29928 0.11388 0.0
C453 C 0.13351 0.20185 0.10631 0.0
C454 C 0.05223 0.39147 0.06866 0.0
C455 C 0.06001 0.36615 0.07962 0.0
C456 C 0.08117 0.29767 0.06198 0.0
C457 C 0.11493 0.24736 0.11208 0.0
C458 C 0.10486 0.2735 0.09976 0.0
C459 C 0.07697 0.3493 0.0641 0.0
C460 C 0.08632 0.32318 0.07633 0.0
H461 H 0.12732 0.21754 0.17544 0.0
H462 H 0.10881 0.25887 0.15541 0.0
H463 H 0.08497 0.25364 0.06236 0.0
H464 H 0.08613 0.39019 0.00608 0.0
H465 H 0.09895 0.34537 0.025 0.0
C466 C 0.60831 0.31782 0.90778 0.0
C467 C 0.62254 0.33679 0.92699 0.0
C468 C 0.59924 0.29053 0.91593 0.0
C469 C 0.58705 0.24502 0.97876 0.0
H470 H 0.595 0.18566 0.92516 0.0
C471 C 0.58344 0.12749 0.00783 0.0
C472 C 0.56523 0.10925 0.99092 0.0
C473 C 0.58899 0.15562 0.00044 0.0
C474 C 0.59248 0.20206 0.94025 0.0
H475 H 0.63736 0.34207 0.97023 0.0
H476 H 0.62294 0.29423 0.98402 0.0
H477 H 0.60709 0.23415 0.91156 0.0
H478 H 0.53872 0.10616 0.95294 0.0
H479 H 0.54896 0.15517 0.93981 0.0
H480 H 0.57342 0.21252 0.0077 0.0
C481 C 0.61822 0.30052 0.96276 0.0
C482 C 0.59923 0.22989 0.93245 0.0
C483 C 0.62692 0.32791 0.95471 0.0
C484 C 0.55279 0.11969 0.96645 0.0
C485 C 0.55872 0.14768 0.95884 0.0
C486 C 0.58073 0.21713 0.98667 0.0
C487 C 0.60451 0.28137 0.9434 0.0
C488 C 0.5966 0.25176 0.95159 0.0
C489 C 0.57683 0.16589 0.97578 0.0
C490 C 0.58337 0.19544 0.96747 0.0
H491 H 0.6048 0.32374 0.88618 0.0
H492 H 0.58826 0.27657 0.90056 0.0
H493 H 0.58426 0.26126 0.99392 0.0
H494 H 0.59327 0.12009 0.02687 0.0
H495 H 0.60319 0.16925 0.01374 0.0
C496 C 0.95396 0.69723 0.41603 0.0
C497 C 0.94979 0.67699 0.43718 0.0
C498 C 0.9636 0.72483 0.42277 0.0
C499 C 0.00089 0.76945 0.47701 0.0
H500 H 0.95757 0.82737 0.44481 0.0
C501 C 0.01549 0.88355 0.51624 0.0
C502 C 0.01383 0.90505 0.49644 0.0
C503 C 0.00885 0.85562 0.50852 0.0
C504 C 0.97022 0.81154 0.45365 0.0
H505 H 0.95325 0.66947 0.48183 0.0
H506 H 0.9703 0.71785 0.49366 0.0
H507 H 0.94479 0.77866 0.43198 0.0
H508 H 0.00437 0.91405 0.45285 0.0
H509 H 0.99348 0.86531 0.43921 0.0
H510 H 0.02654 0.80228 0.49847 0.0
C511 C 0.9661 0.7123 0.47188 0.0
C512 C 0.96283 0.78363 0.44634 0.0
C513 C 0.95618 0.68471 0.46515 0.0
C514 C 0.00564 0.898 0.46867 0.0
C515 C -0.00074 0.87004 0.46089 0.0
C516 C 0.00848 0.79742 0.48414 0.0
C517 C 0.96947 0.73269 0.45078 0.0
C518 C 0.97799 0.76231 0.45804 0.0
C519 C 0.00065 0.84851 0.48075 0.0
C520 C 0.99313 0.8188 0.47266 0.0
H521 H 0.9489 0.69194 0.39432 0.0
H522 H 0.96625 0.74011 0.40609 0.0
H523 H 0.01311 0.75342 0.4861 0.0
H524 H 0.02156 0.88827 0.53786 0.0
H525 H 0.00968 0.83964 0.52448 0.0
C526 C 0.48129 0.80721 0.59673 0.0
C527 C 0.45782 0.81953 0.58467 0.0
C528 C 0.48813 0.78096 0.58768 0.0
C529 C 0.45667 0.71666 0.55229 0.0
H530 H 0.53653 0.70302 0.5422 0.0
C531 C 0.48883 0.61277 0.50655 0.0
C532 C 0.51208 0.60103 0.51986 0.0
C533 C 0.48262 0.63999 0.51297 0.0
C534 C 0.51414 0.70641 0.54515 0.0
H535 H 0.42242 0.8139 0.55458 0.0
H536 H 0.43446 0.76805 0.53845 0.0
H537 H 0.52471 0.7493 0.55656 0.0
H538 H 0.54733 0.60899 0.55008 0.0
H539 H 0.53633 0.65623 0.5614 0.0
H540 H 0.4461 0.67372 0.54115 0.0
C541 C 0.44767 0.77864 0.55483 0.0
C542 C 0.50737 0.73294 0.55339 0.0
C543 C 0.44089 0.80493 0.56386 0.0
C544 C 0.52928 0.61734 0.53936 0.0
C545 C 0.52307 0.64453 0.54576 0.0
C546 C 0.46345 0.69012 0.54408 0.0
C547 C 0.47142 0.76638 0.5666 0.0
C548 C 0.47856 0.73834 0.5572 0.0
C549 C 0.49953 0.65611 0.53282 0.0
C550 C 0.49228 0.68463 0.54056 0.0
H551 H 0.49428 0.81788 0.61322 0.0
H552 H 0.50622 0.77188 0.59755 0.0
H553 H 0.4343 0.72002 0.55541 0.0
H554 H 0.47518 0.60087 0.49136 0.0
H555 H 0.46457 0.64842 0.50233 0.0
C556 C 0.91922 0.92934 0.83053 0.0
C557 C 0.9387 0.92064 0.85094 0.0
C558 C 0.92833 0.93655 0.80362 0.0
C559 C 0.99432 0.95547 0.76248 0.0
H560 H 0.94103 0.94075 0.69964 0.0
C561 C 0.02549 0.96618 0.6454 0.0
C562 C 0.00789 0.98226 0.62886 0.0
C563 C 0.0179 0.95883 0.67278 0.0
C564 C 0.95606 0.94509 0.71705 0.0
H565 H 0.98321 0.91248 0.85863 0.0
H566 H 0.99878 0.92359 0.81125 0.0
H567 H 0.92645 0.92628 0.74652 0.0
H568 H 0.96853 0.00315 0.62804 0.0
H569 H 0.95493 0.98963 0.67569 0.0
H570 H 0.02421 0.97345 0.73244 0.0
C571 C 0.97655 0.92567 0.81633 0.0
C572 C 0.9477 0.93696 0.74398 0.0
C573 C 0.96751 0.91887 0.84347 0.0
C574 C 0.98256 0.99082 0.64027 0.0
C575 C 0.97471 0.983 0.66746 0.0
C576 C 0.00284 0.96314 0.73541 0.0
C577 C 0.95709 0.93471 0.79605 0.0
C578 C 0.96658 0.94233 0.76716 0.0
C579 C 0.9923 0.96693 0.68393 0.0
C580 C 0.98366 0.95827 0.71253 0.0
H581 H 0.89671 0.93043 0.83518 0.0
H582 H 0.91274 0.94384 0.78886 0.0
H583 H 0.00933 0.96039 0.77976 0.0
H584 H 0.04521 0.95937 0.63723 0.0
H585 H 0.03174 0.94633 0.68507 0.0
C586 C 0.62414 0.10158 0.32969 0.0
C587 C 0.63291 0.08147 0.34871 0.0
C588 C 0.61507 0.09394 0.30249 0.0
C589 C 0.59096 0.03278 0.25736 0.0
H590 H 0.61502 0.08414 0.19784 0.0
C591 C 0.55154 0.01588 0.14223 0.0
C592 C 0.5712 0.02359 0.12104 0.0
C593 C 0.55852 0.0222 0.17028 0.0
C594 C 0.60835 0.06938 0.21413 0.0
H595 H 0.6381 0.03729 0.35412 0.0
H596 H 0.62336 0.02416 0.30634 0.0
H597 H 0.62813 0.09618 0.24605 0.0
H598 H 0.61396 0.04325 0.11285 0.0
H599 H 0.62639 0.05357 0.16166 0.0
H600 H 0.57211 0.0055 0.2252 0.0
C601 C 0.62305 0.04581 0.31261 0.0
C602 C 0.61549 0.07651 0.2419 0.0
C603 C 0.63189 0.05341 0.33993 0.0
C604 C 0.59818 0.03726 0.12859 0.0
C605 C 0.60525 0.04334 0.15662 0.0
C606 C 0.58399 0.02554 0.2295 0.0
C607 C 0.61482 0.06604 0.29344 0.0
C608 C 0.60687 0.05835 0.2639 0.0
C609 C 0.58541 0.03618 0.17781 0.0
C610 C 0.59264 0.04375 0.20753 0.0
H611 H 0.62494 0.12343 0.33553 0.0
H612 H 0.60841 0.11003 0.2885 0.0
H613 H 0.5837 0.01839 0.27377 0.0
H614 H 0.53051 0.00543 0.13711 0.0
H615 H 0.54257 0.01667 0.18598 0.0
C616 C 0.47477 0.54588 0.17686 0.0
C617 C 0.49965 0.55447 0.16192 0.0
C618 C 0.4769 0.53782 0.20485 0.0
C619 C 0.52426 0.51229 0.25894 0.0
H620 H 0.48034 0.55357 0.31012 0.0
C621 C 0.54231 0.50753 0.37879 0.0
C622 C 0.51858 0.50954 0.3961 0.0
C623 C 0.5397 0.51146 0.34989 0.0
C624 C 0.49234 0.5414 0.29619 0.0
H625 H 0.54628 0.55984 0.1638 0.0
H626 H 0.55008 0.54502 0.21283 0.0
H627 H 0.47606 0.56159 0.25995 0.0
H628 H 0.47329 0.51647 0.39663 0.0
H629 H 0.46836 0.5222 0.34616 0.0
H630 H 0.54009 0.49155 0.29497 0.0
C631 C 0.52896 0.54488 0.20289 0.0
C632 C 0.48997 0.54614 0.26743 0.0
C633 C 0.5268 0.55339 0.17495 0.0
C634 C 0.49205 0.5151 0.38386 0.0
C635 C 0.4893 0.51855 0.3549 0.0
C636 C 0.52629 0.50716 0.28772 0.0
C637 C 0.50398 0.5377 0.21824 0.0
C638 C 0.50601 0.53175 0.24858 0.0
C639 C 0.51315 0.51703 0.33753 0.0
C640 C 0.51048 0.52179 0.30677 0.0
H641 H 0.45362 0.54639 0.16711 0.0
H642 H 0.45735 0.53208 0.2162 0.0
H643 H 0.5367 0.50081 0.24474 0.0
H644 H 0.5631 0.50345 0.38764 0.0
H645 H 0.55869 0.51064 0.33736 0.0
C646 C 0.06982 0.44845 0.68322 0.0
C647 C 0.07578 0.4209 0.67726 0.0
C648 C 0.06542 0.45657 0.71085 0.0
C649 C 0.08865 0.44075 0.78117 0.0
H650 H 0.02335 0.47732 0.80719 0.0
C651 C 0.07122 0.45742 0.89855 0.0
C652 C 0.05883 0.48157 0.90697 0.0
C653 C 0.07286 0.45096 0.87015 0.0
C654 C 0.042 0.46757 0.80021 0.0
H655 H 0.08129 0.38019 0.69536 0.0
H656 H 0.0738 0.39444 0.74341 0.0
H657 H 0.0258 0.46464 0.75777 0.0
H658 H 0.03914 0.5183 0.89227 0.0
H659 H 0.04303 0.50763 0.84275 0.0
H660 H 0.10546 0.44421 0.82305 0.0
C661 C 0.07234 0.40964 0.72676 0.0
C662 C 0.04325 0.46021 0.77195 0.0
C663 C 0.07632 0.40145 0.69924 0.0
C664 C 0.04861 0.49939 0.88642 0.0
C665 C 0.05065 0.49316 0.85801 0.0
C666 C 0.08766 0.44848 0.80924 0.0
C667 C 0.06746 0.43737 0.73286 0.0
C668 C 0.0664 0.44639 0.76234 0.0
C669 C 0.06259 0.46874 0.84949 0.0
C670 C 0.06415 0.46166 0.81926 0.0
H671 H 0.06934 0.46383 0.66664 0.0
H672 H 0.06172 0.4781 0.71515 0.0
H673 H 0.10696 0.43049 0.77408 0.0
H674 H 0.07903 0.44314 0.91391 0.0
H675 H 0.08169 0.43169 0.86447 0.0
C676 C 0.84696 0.93546 0.91043 0.0
C677 C 0.8706 0.93291 0.92865 0.0
C678 C 0.82212 0.94617 0.91994 0.0
C679 C 0.78273 0.95844 0.98468 0.0
H680 H 0.73671 0.99943 0.9332 0.0
C681 C 0.67398 0.00248 0.01237 0.0
C682 C 0.65122 0.99263 0.99413 0.0
C683 C 0.70248 0.99833 0.00603 0.0
C684 C 0.74943 0.9881 0.9478 0.0
H685 H 0.88693 0.93985 0.9711 0.0
H686 H 0.8436 0.95937 0.98774 0.0
H687 H 0.78415 0.98756 0.91942 0.0
H688 H 0.64048 0.9713 0.95474 0.0
H689 H 0.69023 0.9648 0.94338 0.0
H690 H 0.74773 0.95937 0.0131 0.0
C691 C 0.84411 0.95259 0.96615 0.0
C692 C 0.77652 0.98111 0.9399 0.0
C693 C 0.86896 0.94152 0.95664 0.0
C694 C 0.65753 0.97902 0.96926 0.0
C695 C 0.68598 0.97543 0.96267 0.0
C696 C 0.75575 0.96587 0.99276 0.0
C697 C 0.82031 0.95494 0.9479 0.0
C698 C 0.79318 0.96544 0.95788 0.0
C699 C 0.70868 0.98489 0.98104 0.0
C700 C 0.7386 0.98011 0.97408 0.0
H701 H 0.84735 0.92842 0.88889 0.0
H702 H 0.80404 0.94686 0.90543 0.0
H703 H 0.79477 0.94618 0.99901 0.0
H704 H 0.66973 0.01293 0.03174 0.0
H705 H 0.71969 0.00581 0.02048 0.0
C706 C 0.71194 0.07337 0.45492 0.0
C707 C 0.70735 0.0769 0.42594 0.0
C708 C 0.73803 0.06482 0.46527 0.0
C709 C 0.80108 0.02918 0.44554 0.0
H710 H 0.84146 0.07381 0.5042 0.0
C711 C 0.92113 0.02073 0.47146 0.0
C712 C 0.93091 0.02409 0.49939 0.0
C713 C 0.89288 0.02542 0.46385 0.0
C714 C 0.83031 0.06077 0.48818 0.0
H715 H 0.72691 0.07415 0.38523 0.0
H716 H 0.77186 0.05845 0.4033 0.0
H717 H 0.79339 0.08429 0.48889 0.0
H718 H 0.91843 0.03446 0.54138 0.0
H719 H 0.86893 0.04189 0.52826 0.0
H720 H 0.83772 0.00546 0.44487 0.0
C721 C 0.75517 0.06219 0.41793 0.0
C722 C 0.80278 0.06685 0.47938 0.0
C723 C 0.7293 0.07108 0.4076 0.0
C724 C 0.91166 0.03191 0.51962 0.0
C725 C 0.88328 0.03631 0.51205 0.0
C726 C 0.82846 0.02287 0.45455 0.0
C727 C 0.75992 0.05925 0.44687 0.0
C728 C 0.78809 0.05138 0.45769 0.0
C729 C 0.87356 0.03328 0.48403 0.0
C730 C 0.84364 0.03886 0.47569 0.0
H731 H 0.6954 0.07725 0.46964 0.0
H732 H 0.74106 0.06246 0.48768 0.0
H733 H 0.79006 0.0167 0.42902 0.0
H734 H 0.93545 0.01491 0.45531 0.0
H735 H 0.8864 0.0234 0.44198 0.0
C736 C 0.38445 0.57901 0.04792 0.0
C737 C 0.39277 0.5844 0.07594 0.0
C738 C 0.35615 0.56879 0.04104 0.0
C739 C 0.28763 0.53827 0.07299 0.0
H740 H 0.25319 0.56589 0.00495 0.0
C741 C 0.16516 0.53846 0.0523 0.0
C742 C 0.15459 0.52505 0.02753 0.0
C743 C 0.19478 0.54357 0.05731 0.0
C744 C 0.26268 0.55788 0.02388 0.0
H745 H 0.37833 0.58359 0.11874 0.0
H746 H 0.32876 0.56693 0.10686 0.0
H747 H 0.30412 0.57851 0.01552 0.0
H748 H 0.16667 0.50697 0.98834 0.0
H749 H 0.21865 0.51687 0.99679 0.0
H750 H 0.24552 0.51894 0.08187 0.0
C751 C 0.34408 0.56949 0.09013 0.0
C752 C 0.2919 0.5649 0.02991 0.0
C753 C 0.37248 0.57918 0.097 0.0
C754 C 0.17423 0.51725 0.00766 0.0
C755 C 0.20387 0.52295 0.0124 0.0
C756 C 0.25831 0.53176 0.06721 0.0
C757 C 0.33544 0.56431 0.06202 0.0
C758 C 0.30474 0.55539 0.05469 0.0
C759 C 0.21433 0.53592 0.03738 0.0
C760 C 0.2456 0.54167 0.04272 0.0
H761 H 0.39986 0.58278 0.03135 0.0
H762 H 0.35054 0.56453 0.01925 0.0
H763 H 0.29679 0.52995 0.0919 0.0
H764 H 0.15054 0.54457 0.06805 0.0
H765 H 0.20244 0.55376 0.07664 0.0
C766 C 0.21519 0.46188 0.60235 0.0
C767 C 0.19557 0.43839 0.59745 0.0
C768 C 0.23972 0.4665 0.58614 0.0
C769 C 0.28595 0.47741 0.54303 0.0
H770 H 0.32731 0.41185 0.53204 0.0
C771 C 0.40014 0.48623 0.49792 0.0
C772 C 0.42013 0.47112 0.51259 0.0
C773 C 0.37065 0.48111 0.50266 0.0
C774 C 0.31602 0.43036 0.53493 0.0
H775 H 0.18514 0.40208 0.57112 0.0
H776 H 0.22798 0.41029 0.54232 0.0
H777 H 0.27886 0.40643 0.55051 0.0
H778 H 0.42465 0.43813 0.54307 0.0
H779 H 0.37343 0.42958 0.55165 0.0
H780 H 0.32375 0.50147 0.52897 0.0
C781 C 0.22467 0.4249 0.55896 0.0
C782 C 0.28808 0.42723 0.54517 0.0
C783 C 0.20013 0.42028 0.57525 0.0
C784 C 0.40989 0.45017 0.53141 0.0
C785 C 0.38044 0.44511 0.53618 0.0
C786 C 0.31393 0.48054 0.53287 0.0
C787 C 0.24508 0.44773 0.56465 0.0
C788 C 0.27299 0.45079 0.55001 0.0
C789 C 0.36051 0.46079 0.52217 0.0
C790 C 0.32956 0.45711 0.52939 0.0
H791 H 0.2121 0.47613 0.61939 0.0
H792 H 0.25514 0.48407 0.59135 0.0
H793 H 0.27475 0.49594 0.54615 0.0
H794 H 0.40727 0.50237 0.48311 0.0
H795 H 0.35581 0.49328 0.49126 0.0
C796 C 0.94656 0.792 0.91958 0.0
C797 C 0.94232 0.81261 0.93952 0.0
C798 C 0.96242 0.76957 0.92655 0.0
C799 C 0.98478 0.72939 0.98788 0.0
H800 H 0.02994 0.69435 0.93287 0.0
C801 C 0.039 0.62758 0.01104 0.0
C802 C 0.03291 0.60657 0.99069 0.0
C803 C 0.03272 0.65509 0.00563 0.0
C804 C 0.01742 0.70394 0.94846 0.0
H805 H 0.95194 0.82657 0.98202 0.0
H806 H 0.98028 0.78756 0.99423 0.0
H807 H 0.01075 0.73882 0.92195 0.0
H808 H 0.01649 0.59825 0.94836 0.0
H809 H 0.0058 0.64609 0.93895 0.0
H810 H 0.9912 0.69423 0.01421 0.0
C811 C 0.97096 0.78845 0.97332 0.0
C812 C 0.00634 0.72936 0.94219 0.0
C813 C 0.95495 0.81086 0.96634 0.0
C814 C 0.02134 0.61387 0.96455 0.0
C815 C 0.01541 0.64135 0.95906 0.0
C816 C 0.99606 0.70405 0.99422 0.0
C817 C 0.97452 0.76728 0.95362 0.0
C818 C 0.98926 0.74207 0.96155 0.0
C819 C 0.02064 0.66218 0.97964 0.0
C820 C 0.01191 0.69073 0.97432 0.0
H821 H 0.93695 0.79283 0.89877 0.0
H822 H 0.96429 0.75349 0.91096 0.0
H823 H 0.97146 0.73836 0.00318 0.0
H824 H 0.0479 0.62264 0.03139 0.0
H825 H 0.03713 0.67078 0.02182 0.0
C826 C 0.49536 0.6738 0.06232 0.0
C827 C 0.4672 0.66522 0.07053 0.0
C828 C 0.5032 0.70188 0.05591 0.0
C829 C 0.47185 0.7694 0.0408 0.0
H830 H 0.54737 0.80206 0.0652 0.0
C831 C 0.50087 0.88833 0.05132 0.0
C832 C 0.52575 0.8989 0.03733 0.0
C833 C 0.49458 0.8595 0.05451 0.0
C834 C 0.52629 0.79311 0.05815 0.0
H835 H 0.42529 0.6792 0.07888 0.0
H836 H 0.43898 0.72801 0.06853 0.0
H837 H 0.53467 0.75197 0.07123 0.0
H838 H 0.56403 0.88764 0.01655 0.0
H839 H 0.5533 0.83723 0.02281 0.0
H840 H 0.46323 0.81089 0.02876 0.0
C841 C 0.45488 0.71315 0.066 0.0
C842 C 0.51904 0.7644 0.06139 0.0
C843 C 0.447 0.68512 0.07202 0.0
C844 C 0.54463 0.8801 0.02732 0.0
C845 C 0.53859 0.8513 0.03098 0.0
C846 C 0.47895 0.79813 0.03801 0.0
C847 C 0.48312 0.72199 0.058 0.0
C848 C 0.49161 0.7522 0.05296 0.0
C849 C 0.51332 0.84076 0.04424 0.0
C850 C 0.50614 0.81025 0.04682 0.0
H851 H 0.5113 0.6588 0.06097 0.0
H852 H 0.52502 0.70782 0.04941 0.0
H853 H 0.45079 0.76071 0.03344 0.0
H854 H 0.48588 0.90228 0.05917 0.0
H855 H 0.47506 0.85181 0.06501 0.0
C856 C 0.08449 0.33802 0.57773 0.0
C857 C 0.08195 0.34606 0.60588 0.0
C858 C 0.07967 0.30989 0.56986 0.0
C859 C 0.04191 0.24343 0.58772 0.0
H860 H 0.10622 0.2085 0.55713 0.0
C861 C 0.03914 0.12367 0.57742 0.0
C862 C 0.05325 0.11258 0.55487 0.0
C863 C 0.04228 0.15241 0.58284 0.0
C864 C 0.08779 0.21791 0.56511 0.0
H865 H 0.07232 0.33028 0.64773 0.0
H866 H 0.06242 0.28173 0.63353 0.0
H867 H 0.11082 0.25867 0.5663 0.0
H868 H 0.08134 0.12284 0.52001 0.0
H869 H 0.08578 0.17295 0.52857 0.0
H870 H 0.01843 0.20315 0.58589 0.0
C871 C 0.06827 0.29732 0.61772 0.0
C872 C 0.09055 0.24665 0.57044 0.0
C873 C 0.07372 0.32526 0.62574 0.0
C874 C 0.07049 0.13076 0.53779 0.0
C875 C 0.07313 0.15954 0.54281 0.0
C876 C 0.03889 0.2148 0.58184 0.0
C877 C 0.07158 0.28938 0.58984 0.0
C878 C 0.06776 0.25952 0.58209 0.0
C879 C 0.05908 0.1708 0.56543 0.0
C880 C 0.06193 0.20154 0.57079 0.0
H881 H 0.09036 0.3534 0.56176 0.0
H882 H 0.08221 0.30413 0.54818 0.0
H883 H 0.02403 0.25306 0.59662 0.0
H884 H 0.02585 0.11009 0.59104 0.0
H885 H 0.03165 0.1601 0.60084 0.0
C886 C 0.59159 0.17535 0.48027 0.0
C887 C 0.59939 0.1677 0.4533 0.0
C888 C 0.58249 0.20187 0.48517 0.0
C889 C 0.55675 0.26392 0.44839 0.0
H890 H 0.58305 0.30256 0.5168 0.0
C891 C 0.55635 0.38324 0.4638 0.0
C892 C 0.54534 0.39229 0.48908 0.0
C893 C 0.56069 0.3551 0.45985 0.0
C894 C 0.57532 0.2919 0.49774 0.0
H895 H 0.6023 0.18101 0.41003 0.0
H896 H 0.58761 0.22761 0.41861 0.0
H897 H 0.59461 0.25465 0.50912 0.0
H898 H 0.53036 0.37888 0.5301 0.0
H899 H 0.53849 0.32975 0.5233 0.0
H900 H 0.5384 0.30172 0.43668 0.0
C901 C 0.58815 0.21321 0.43604 0.0
C902 C 0.58182 0.26439 0.49334 0.0
C903 C 0.59691 0.18662 0.43113 0.0
C904 C 0.53881 0.37257 0.51035 0.0
C905 C 0.54357 0.34449 0.50654 0.0
C906 C 0.55061 0.29155 0.45264 0.0
C907 C 0.58101 0.2213 0.46317 0.0
C908 C 0.57281 0.25009 0.4685 0.0
C909 C 0.55451 0.3355 0.48124 0.0
C910 C 0.55999 0.30584 0.47726 0.0
H911 H 0.59272 0.16088 0.4976 0.0
H912 H 0.57654 0.20709 0.5062 0.0
H913 H 0.54889 0.25344 0.42929 0.0
H914 H 0.56151 0.39788 0.44697 0.0
H915 H 0.56938 0.34874 0.44023 0.0
loop_
_geom_bond_atom_site_label_1
_geom_bond_atom_site_label_2
_geom_bond_distance
_geom_bond_site_symmetry_2
_ccdc_geom_bond_type
H0 C7 0.929 . S
H1 C10 0.930 . S
H2 C12 0.929 . S
H3 C4 0.969 . S
C4 H3 0.969 . S
C4 O5 1.550 . S
C4 H6 0.973 . S
O5 C4 1.550 . S
O5 C11 1.412 . S
H6 C4 0.973 . S
C7 H0 0.929 . S
C7 C8 1.400 . S
C7 C9 1.364 . S
C8 C7 1.400 . S
C8 C12 1.377 . S
C9 C7 1.364 . S
C9 C10 1.374 . S
C10 H1 0.930 . S
C10 C9 1.374 . S
C10 C11 1.383 . S
C11 O5 1.412 . S
C11 C10 1.383 . S
C11 C12 1.394 . S
C12 H2 0.929 . S
C12 C8 1.377 . S
C12 C11 1.394 . S
H13 C20 0.929 . S
H14 C23 0.930 . S
H15 C25 0.929 . S
H16 C17 0.969 . S
C17 H16 0.969 . S
C17 O18 1.550 . S
C17 H19 0.973 . S
O18 C17 1.550 . S
O18 C24 1.412 . S
H19 C17 0.973 . S
C20 H13 0.929 . S
C20 C21 1.400 . S
C20 C22 1.364 . S
C21 C20 1.400 . S
C21 C25 1.377 . S
C22 C20 1.364 . S
C22 C23 1.374 . S
C23 H14 0.930 . S
C23 C22 1.374 . S
C23 C24 1.383 . S
C24 O18 1.412 . S
C24 C23 1.383 . S
C24 C25 1.394 . S
C25 H15 0.929 . S
C25 C21 1.377 . S
C25 C24 1.394 . S
H26 C33 0.929 . S
H27 C36 0.930 . S
H28 C38 0.929 . S
H29 C30 0.969 . S
C30 H29 0.969 . S
C30 O31 1.550 . S
C30 H32 0.973 . S
O31 C30 1.550 . S
O31 C37 1.412 . S
H32 C30 0.973 . S
C33 H26 0.929 . S
C33 C34 1.400 . S
C33 C35 1.364 . S
C34 C33 1.400 . S
C34 C38 1.377 . S
C35 C33 1.364 . S
C35 C36 1.374 . S
C36 H27 0.930 . S
C36 C35 1.374 . S
C36 C37 1.383 . S
C37 O31 1.412 . S
C37 C36 1.383 . S
C37 C38 1.394 . S
C38 H28 0.929 . S
C38 C34 1.377 . S
C38 C37 1.394 . S
H39 C46 0.929 . S
H40 C49 0.930 . S
H41 C51 0.929 . S
H42 C43 0.969 . S
C43 H42 0.969 . S
C43 O44 1.550 . S
C43 H45 0.973 . S
O44 C43 1.550 . S
O44 C50 1.412 . S
H45 C43 0.973 . S
C46 H39 0.929 . S
C46 C47 1.400 . S
C46 C48 1.364 . S
C47 C46 1.400 . S
C47 C51 1.377 . S
C48 C46 1.364 . S
C48 C49 1.374 . S
C49 H40 0.930 . S
C49 C48 1.374 . S
C49 C50 1.383 . S
C50 O44 1.412 . S
C50 C49 1.383 . S
C50 C51 1.394 . S
C51 H41 0.929 . S
C51 C47 1.377 . S
C51 C50 1.394 . S
H52 C59 0.929 . S
H53 C62 0.930 . S
H54 C64 0.929 . S
H55 C56 0.969 . S
C56 H55 0.969 . S
C56 O57 1.550 . S
C56 H58 0.973 . S
O57 C56 1.550 . S
O57 C63 1.412 . S
H58 C56 0.973 . S
C59 H52 0.929 . S
C59 C60 1.400 . S
C59 C61 1.364 . S
C60 C59 1.400 . S
C60 C64 1.377 . S
C61 C59 1.364 . S
C61 C62 1.374 . S
C62 H53 0.930 . S
C62 C61 1.374 . S
C62 C63 1.383 . S
C63 O57 1.412 . S
C63 C62 1.383 . S
C63 C64 1.394 . S
C64 H54 0.929 . S
C64 C60 1.377 . S
C64 C63 1.394 . S
H65 C72 0.929 . S
H66 C75 0.930 . S
H67 C77 0.929 . S
H68 C69 0.969 . S
C69 H68 0.969 . S
C69 O70 1.550 . S
C69 H71 0.973 . S
O70 C69 1.550 . S
O70 C76 1.412 . S
H71 C69 0.973 . S
C72 H65 0.929 . S
C72 C73 1.400 . S
C72 C74 1.364 . S
C73 C72 1.400 . S
C73 C77 1.377 . S
C74 C72 1.364 . S
C74 C75 1.374 . S
C75 H66 0.930 . S
C75 C74 1.374 . S
C75 C76 1.383 . S
C76 O70 1.412 . S
C76 C75 1.383 . S
C76 C77 1.394 . S
C77 H67 0.929 . S
C77 C73 1.377 . S
C77 C76 1.394 . S
H78 C85 0.929 . S
H79 C88 0.930 . S
H80 C90 0.929 . S
H81 C82 0.969 . S
C82 H81 0.969 . S
C82 O83 1.550 . S
C82 H84 0.973 . S
O83 C82 1.550 . S
O83 C89 1.412 . S
H84 C82 0.973 . S
C85 H78 0.929 . S
C85 C86 1.400 . S
C85 C87 1.364 . S
C86 C85 1.400 . S
C86 C90 1.377 . S
C87 C85 1.364 . S
C87 C88 1.374 . S
C88 H79 0.930 . S
C88 C87 1.374 . S
C88 C89 1.383 . S
C89 O83 1.412 . S
C89 C88 1.383 . S
C89 C90 1.394 . S
C90 H80 0.929 . S
C90 C86 1.377 . S
C90 C89 1.394 . S
H91 C98 0.929 . S
H92 C101 0.930 . S
H93 C103 0.929 . S
H94 C95 0.969 . S
C95 H94 0.969 . S
C95 O96 1.550 . S
C95 H97 0.973 . S
O96 C95 1.550 . S
O96 C102 1.412 . S
H97 C95 0.973 . S
C98 H91 0.929 . S
C98 C99 1.400 . S
C98 C100 1.364 . S
C99 C98 1.400 . S
C99 C103 1.377 . S
C100 C98 1.364 . S
C100 C101 1.374 . S
C101 H92 0.930 . S
C101 C100 1.374 . S
C101 C102 1.383 . S
C102 O96 1.412 . S
C102 C101 1.383 . S
C102 C103 1.394 . S
C103 H93 0.929 . S
C103 C99 1.377 . S
C103 C102 1.394 . S
O104 Zn105 1.953 1_455 S
O104 C120 1.225 . S
Zn105 O104 1.953 1_655 S
Zn105 O106 1.949 1_655 S
Zn105 O112 1.919 . S
Zn105 O117 1.924 . S
O106 Zn105 1.949 1_455 S
O106 Zn107 1.928 . S
O106 Zn108 1.950 . S
O106 Zn109 1.945 1_545 S
Zn107 O106 1.928 . S
Zn107 O110 1.932 1_445 S
Zn107 O113 1.928 1_455 S
Zn107 O114 1.974 . S
Zn108 O106 1.950 . S
Zn108 O115 1.938 . S
Zn108 O116 1.906 . S
Zn108 O126 1.953 . S
Zn109 O106 1.945 1_565 S
Zn109 O111 1.932 . S
Zn109 O118 1.977 . S
Zn109 O119 1.910 . S
O110 Zn107 1.932 1_665 S
O110 C121 1.226 . S
O111 Zn109 1.932 . S
O111 C121 1.307 1_455 S
O112 Zn105 1.919 . S
O112 C123 1.253 . S
O113 Zn107 1.928 1_655 S
O113 C123 1.283 . S
O114 Zn107 1.974 . S
O114 C122 1.303 . S
O115 Zn108 1.938 . S
O115 C122 1.247 . S
O116 Zn108 1.906 . S
O116 C124 1.304 1_545 S
O117 Zn105 1.924 . S
O117 C125 1.311 . S
O118 Zn109 1.977 . S
O118 C124 1.272 . S
O119 Zn109 1.910 . S
O119 C125 1.231 1_465 S
C120 O104 1.225 . S
C120 O126 1.298 . S
C121 O110 1.226 . S
C121 O111 1.307 1_655 S
C122 O114 1.303 . S
C122 O115 1.247 . S
C123 O112 1.253 . S
C123 O113 1.283 . S
C124 O116 1.304 1_565 S
C124 O118 1.272 . S
C125 O117 1.311 . S
C125 O119 1.231 1_645 S
O126 Zn108 1.953 . S
O126 C120 1.298 . S
O127 Zn128 1.953 . S
O127 C143 1.225 . S
Zn128 O127 1.953 . S
Zn128 O129 1.949 1_556 S
Zn128 O135 1.919 . S
Zn128 O140 1.940 . S
O129 Zn128 1.949 1_554 S
O129 Zn130 1.923 1_544 S
O129 Zn131 1.950 . S
O129 Zn132 1.945 1_545 S
Zn130 O129 1.923 1_566 S
Zn130 O133 1.933 1_556 S
Zn130 O136 1.941 . S
Zn130 O137 1.965 . S
Zn131 O129 1.950 . S
Zn131 O138 1.938 . S
Zn131 O139 1.906 . S
Zn131 O149 1.953 . S
Zn132 O129 1.945 1_565 S
Zn132 O134 1.932 . S
Zn132 O141 1.977 1_565 S
Zn132 O142 1.910 1_565 S
O133 Zn130 1.933 1_554 S
O133 C144 1.226 . S
O134 Zn132 1.932 . S
O134 C144 1.307 . S
O135 Zn128 1.919 . S
O135 C146 1.253 1_545 S
O136 Zn130 1.941 . S
O136 C146 1.283 . S
O137 Zn130 1.965 . S
O137 C145 1.303 . S
O138 Zn131 1.938 . S
O138 C145 1.247 1_544 S
O139 Zn131 1.906 . S
O139 C147 1.304 . S
O140 Zn128 1.940 . S
O140 C148 1.275 1_556 S
O141 Zn132 1.977 1_545 S
O141 C147 1.272 . S
O142 Zn132 1.910 1_545 S
O142 C148 1.231 . S
C143 O127 1.225 . S
C143 O149 1.298 1_556 S
C144 O133 1.226 . S
C144 O134 1.307 . S
C145 O137 1.303 . S
C145 O138 1.247 1_566 S
C146 O135 1.253 1_565 S
C146 O136 1.283 . S
C147 O139 1.304 . S
C147 O141 1.272 . S
C148 O140 1.275 1_554 S
C148 O142 1.231 . S
O149 Zn131 1.953 . S
O149 C143 1.298 1_554 S
O150 Zn151 1.953 . S
O150 C166 1.225 . S
Zn151 O150 1.953 . S
Zn151 O152 1.949 . S
Zn151 O158 1.919 . S
Zn151 O163 1.924 . S
O152 Zn151 1.949 . S
O152 Zn153 1.923 . S
O152 Zn154 1.950 . S
O152 Zn155 1.945 . S
Zn153 O152 1.923 . S
Zn153 O156 1.933 . S
Zn153 O159 1.941 . S
Zn153 O160 1.965 . S
Zn154 O152 1.950 . S
Zn154 O161 1.938 . S
Zn154 O162 1.906 . S
Zn154 O172 1.953 . S
Zn155 O152 1.945 . S
Zn155 O157 1.932 . S
Zn155 O164 1.977 . S
Zn155 O165 1.910 . S
O156 Zn153 1.933 . S
O156 C167 1.226 . S
O157 Zn155 1.932 . S
O157 C167 1.307 . S
O158 Zn151 1.919 . S
O158 C169 1.253 . S
O159 Zn153 1.941 . S
O159 C169 1.283 . S
O160 Zn153 1.965 . S
O160 C168 1.303 . S
O161 Zn154 1.938 . S
O161 C168 1.247 . S
O162 Zn154 1.906 . S
O162 C170 1.304 . S
O163 Zn151 1.924 . S
O163 C171 1.311 . S
O164 Zn155 1.977 . S
O164 C170 1.272 . S
O165 Zn155 1.910 . S
O165 C171 1.231 . S
C166 O150 1.225 . S
C166 O172 1.298 . S
C167 O156 1.226 . S
C167 O157 1.307 . S
C168 O160 1.303 . S
C168 O161 1.247 . S
C169 O158 1.253 . S
C169 O159 1.283 . S
C170 O162 1.304 . S
C170 O164 1.272 . S
C171 O163 1.311 . S
C171 O165 1.231 . S
O172 Zn154 1.953 . S
O172 C166 1.298 . S
O173 Zn174 1.953 . S
O173 C189 1.225 . S
Zn174 O173 1.953 . S
Zn174 O175 1.949 . S
Zn174 O181 1.919 1_455 S
Zn174 O186 1.924 . S
O175 Zn174 1.949 . S
O175 Zn176 1.923 1_554 S
O175 Zn177 1.950 . S
O175 Zn178 1.945 . S
Zn176 O175 1.923 1_556 S
Zn176 O179 1.933 . S
Zn176 O182 1.941 1_455 S
Zn176 O183 1.965 . S
Zn177 O175 1.950 . S
Zn177 O184 1.938 . S
Zn177 O185 1.906 . S
Zn177 O195 1.953 . S
Zn178 O175 1.945 . S
Zn178 O180 1.932 1_554 S
Zn178 O187 1.977 . S
Zn178 O188 1.910 . S
O179 Zn176 1.933 . S
O179 C190 1.226 . S
O180 Zn178 1.932 1_556 S
O180 C190 1.307 . S
O181 Zn174 1.919 1_655 S
O181 C192 1.253 1_554 S
O182 Zn176 1.941 1_655 S
O182 C192 1.283 . S
O183 Zn176 1.965 . S
O183 C191 1.303 1_556 S
O184 Zn177 1.938 . S
O184 C191 1.247 . S
O185 Zn177 1.906 . S
O185 C193 1.304 . S
O186 Zn174 1.924 . S
O186 C194 1.311 . S
O187 Zn178 1.977 . S
O187 C193 1.272 . S
O188 Zn178 1.910 . S
O188 C194 1.231 . S
C189 O173 1.225 . S
C189 O195 1.298 . S
C190 O179 1.226 . S
C190 O180 1.307 . S
C191 O183 1.303 1_554 S
C191 O184 1.247 . S
C192 O181 1.253 1_556 S
C192 O182 1.283 . S
C193 O185 1.304 . S
C193 O187 1.272 . S
C194 O186 1.311 . S
C194 O188 1.231 . S
O195 Zn177 1.953 . S
O195 C189 1.298 . S
C196 C197 1.349 . S
C196 C198 1.327 . S
C196 H221 0.950 . S
C197 C196 1.349 . S
C197 C213 1.349 . S
C198 C196 1.327 . S
C198 C217 1.429 . S
C198 H222 0.950 . S
C199 C216 1.574 . S
C199 C218 1.368 . S
C199 H223 0.949 . S
H200 C204 0.949 . S
C201 C202 1.349 . S
C201 C203 1.327 . S
C201 H224 0.950 . S
C202 C201 1.349 . S
C202 C214 1.349 . S
C203 C201 1.327 . S
C203 C219 1.429 . S
C203 H225 0.950 . S
C204 H200 0.949 . S
C204 C212 1.574 . S
C204 C220 1.368 . S
H205 C213 0.950 . S
H206 C211 0.950 . S
H207 C212 0.949 . S
H208 C214 0.950 . S
H209 C215 0.950 . S
H210 C216 0.949 . S
C211 H206 0.950 . S
C211 C213 1.327 . S
C211 C217 1.429 . S
C212 C204 1.574 . S
C212 H207 0.949 . S
C212 C218 1.368 . S
C213 C197 1.349 . S
C213 H205 0.950 . S
C213 C211 1.327 . S
C214 C202 1.349 . S
C214 H208 0.950 . S
C214 C215 1.327 . S
C215 H209 0.950 . S
C215 C214 1.327 . S
C215 C219 1.429 . S
C216 C199 1.574 . S
C216 H210 0.949 . S
C216 C220 1.368 . S
C217 C198 1.429 . S
C217 C211 1.429 . S
C217 C218 1.523 . S
C218 C199 1.368 . S
C218 C212 1.368 . S
C218 C217 1.523 . S
C219 C203 1.429 . S
C219 C215 1.429 . S
C219 C220 1.523 . S
C220 C204 1.368 . S
C220 C216 1.368 . S
C220 C219 1.523 . S
H221 C196 0.950 . S
H222 C198 0.950 . S
H223 C199 0.949 . S
H224 C201 0.950 . S
H225 C203 0.950 . S
C226 C227 1.349 . S
C226 C228 1.327 . S
C226 H251 0.950 . S
C227 C226 1.349 . S
C227 C243 1.349 . S
C228 C226 1.327 . S
C228 C247 1.429 . S
C228 H252 0.950 . S
C229 C246 1.574 . S
C229 C248 1.368 . S
C229 H253 0.949 . S
H230 C234 0.949 . S
C231 C232 1.349 . S
C231 C233 1.327 . S
C231 H254 0.950 . S
C232 C231 1.349 . S
C232 C244 1.349 . S
C233 C231 1.327 . S
C233 C249 1.429 . S
C233 H255 0.950 . S
C234 H230 0.949 . S
C234 C242 1.574 . S
C234 C250 1.368 . S
H235 C243 0.950 . S
H236 C241 0.950 . S
H237 C242 0.949 . S
H238 C244 0.950 . S
H239 C245 0.950 . S
H240 C246 0.949 . S
C241 H236 0.950 . S
C241 C243 1.327 . S
C241 C247 1.429 . S
C242 C234 1.574 . S
C242 H237 0.949 . S
C242 C248 1.368 . S
C243 C227 1.349 . S
C243 H235 0.950 . S
C243 C241 1.327 . S
C244 C232 1.349 . S
C244 H238 0.950 . S
C244 C245 1.327 . S
C245 H239 0.950 . S
C245 C244 1.327 . S
C245 C249 1.429 . S
C246 C229 1.574 . S
C246 H240 0.949 . S
C246 C250 1.368 . S
C247 C228 1.429 . S
C247 C241 1.429 . S
C247 C248 1.523 . S
C248 C229 1.368 . S
C248 C242 1.368 . S
C248 C247 1.523 . S
C249 C233 1.429 . S
C249 C245 1.429 . S
C249 C250 1.523 . S
C250 C234 1.368 . S
C250 C246 1.368 . S
C250 C249 1.523 . S
H251 C226 0.950 . S
H252 C228 0.950 . S
H253 C229 0.949 . S
H254 C231 0.950 . S
H255 C233 0.950 . S
C256 C257 1.349 . S
C256 C258 1.327 . S
C256 H281 0.950 . S
C257 C256 1.349 . S
C257 C273 1.349 . S
C258 C256 1.327 . S
C258 C277 1.429 . S
C258 H282 0.950 . S
C259 C276 1.574 . S
C259 C278 1.368 . S
C259 H283 0.949 . S
H260 C264 0.949 . S
C261 C262 1.349 . S
C261 C263 1.327 . S
C261 H284 0.950 . S
C262 C261 1.349 . S
C262 C274 1.349 . S
C263 C261 1.327 . S
C263 C279 1.429 . S
C263 H285 0.950 . S
C264 H260 0.949 . S
C264 C272 1.574 . S
C264 C280 1.368 . S
H265 C273 0.950 . S
H266 C271 0.950 . S
H267 C272 0.949 . S
H268 C274 0.950 . S
H269 C275 0.950 . S
H270 C276 0.949 . S
C271 H266 0.950 . S
C271 C273 1.327 . S
C271 C277 1.429 . S
C272 C264 1.574 . S
C272 H267 0.949 . S
C272 C278 1.368 . S
C273 C257 1.349 . S
C273 H265 0.950 . S
C273 C271 1.327 . S
C274 C262 1.349 . S
C274 H268 0.950 . S
C274 C275 1.327 . S
C275 H269 0.950 . S
C275 C274 1.327 . S
C275 C279 1.429 . S
C276 C259 1.574 . S
C276 H270 0.949 . S
C276 C280 1.368 . S
C277 C258 1.429 . S
C277 C271 1.429 . S
C277 C278 1.523 . S
C278 C259 1.368 . S
C278 C272 1.368 . S
C278 C277 1.523 . S
C279 C263 1.429 . S
C279 C275 1.429 . S
C279 C280 1.523 . S
C280 C264 1.368 . S
C280 C276 1.368 . S
C280 C279 1.523 . S
H281 C256 0.950 . S
H282 C258 0.950 . S
H283 C259 0.949 . S
H284 C261 0.950 . S
H285 C263 0.950 . S
C286 C287 1.349 . S
C286 C288 1.327 . S
C286 H311 0.950 . S
C287 C286 1.349 . S
C287 C303 1.349 . S
C288 C286 1.327 . S
C288 C307 1.429 . S
C288 H312 0.950 . S
C289 C306 1.574 . S
C289 C308 1.368 . S
C289 H313 0.949 . S
H290 C294 0.949 . S
C291 C292 1.349 1_655 S
C291 C293 1.327 . S
C291 H314 0.950 . S
C292 C291 1.349 1_455 S
C292 C304 1.349 . S
C293 C291 1.327 . S
C293 C309 1.429 . S
C293 H315 0.950 . S
C294 H290 0.949 . S
C294 C302 1.574 1_455 S
C294 C310 1.368 1_455 S
H295 C303 0.950 . S
H296 C301 0.950 . S
H297 C302 0.949 1_455 S
H298 C304 0.950 . S
H299 C305 0.950 . S
H300 C306 0.949 . S
C301 H296 0.950 . S
C301 C303 1.327 . S
C301 C307 1.429 . S
C302 C294 1.574 1_655 S
C302 H297 0.949 1_655 S
C302 C308 1.368 . S
C303 C287 1.349 . S
C303 H295 0.950 . S
C303 C301 1.327 . S
C304 C292 1.349 . S
C304 H298 0.950 . S
C304 C305 1.327 . S
C305 H299 0.950 . S
C305 C304 1.327 . S
C305 C309 1.429 1_455 S
C306 C289 1.574 . S
C306 H300 0.949 . S
C306 C310 1.368 . S
C307 C288 1.429 . S
C307 C301 1.429 . S
C307 C308 1.523 . S
C308 C289 1.368 . S
C308 C302 1.368 . S
C308 C307 1.523 . S
C309 C293 1.429 . S
C309 C305 1.429 1_655 S
C309 C310 1.523 . S
C310 C294 1.368 1_655 S
C310 C306 1.368 . S
C310 C309 1.523 . S
H311 C286 0.950 . S
H312 C288 0.950 . S
H313 C289 0.949 . S
H314 C291 0.950 . S
H315 C293 0.950 . S
C316 C317 1.349 . S
C316 C318 1.327 . S
C316 H341 0.950 . S
C317 C316 1.349 . S
C317 C333 1.349 . S
C318 C316 1.327 . S
C318 C337 1.429 . S
C318 H342 0.950 . S
C319 C336 1.574 . S
C319 C338 1.368 . S
C319 H343 0.949 . S
H320 C324 0.949 . S
C321 C322 1.349 . S
C321 C323 1.327 . S
C321 H344 0.950 . S
C322 C321 1.349 . S
C322 C334 1.349 . S
C323 C321 1.327 . S
C323 C339 1.429 . S
C323 H345 0.950 . S
C324 H320 0.949 . S
C324 C332 1.574 . S
C324 C340 1.368 . S
H325 C333 0.950 . S
H326 C331 0.950 . S
H327 C332 0.949 . S
H328 C334 0.950 . S
H329 C335 0.950 . S
H330 C336 0.949 . S
C331 H326 0.950 . S
C331 C333 1.327 . S
C331 C337 1.429 . S
C332 C324 1.574 . S
C332 H327 0.949 . S
C332 C338 1.368 . S
C333 C317 1.349 . S
C333 H325 0.950 . S
C333 C331 1.327 . S
C334 C322 1.349 . S
C334 H328 0.950 . S
C334 C335 1.327 . S
C335 H329 0.950 . S
C335 C334 1.327 . S
C335 C339 1.429 . S
C336 C319 1.574 . S
C336 H330 0.949 . S
C336 C340 1.368 . S
C337 C318 1.429 . S
C337 C331 1.429 . S
C337 C338 1.523 . S
C338 C319 1.368 . S
C338 C332 1.368 . S
C338 C337 1.523 . S
C339 C323 1.429 . S
C339 C335 1.429 . S
C339 C340 1.523 . S
C340 C324 1.368 . S
C340 C336 1.368 . S
C340 C339 1.523 . S
H341 C316 0.950 . S
H342 C318 0.950 . S
H343 C319 0.949 . S
H344 C321 0.950 . S
H345 C323 0.950 . S
C346 C347 1.349 . S
C346 C348 1.327 . S
C346 H371 0.950 . S
C347 C346 1.349 . S
C347 C363 1.349 . S
C348 C346 1.327 . S
C348 C367 1.429 . S
C348 H372 0.950 . S
C349 C366 1.574 . S
C349 C368 1.368 . S
C349 H373 0.949 . S
H350 C354 0.949 . S
C351 C352 1.349 . S
C351 C353 1.327 . S
C351 H374 0.950 . S
C352 C351 1.349 . S
C352 C364 1.349 . S
C353 C351 1.327 . S
C353 C369 1.429 . S
C353 H375 0.950 . S
C354 H350 0.949 . S
C354 C362 1.574 . S
C354 C370 1.368 . S
H355 C363 0.950 . S
H356 C361 0.950 . S
H357 C362 0.949 . S
H358 C364 0.920 1_545 S
H359 C365 0.950 . S
H360 C366 0.949 . S
C361 H356 0.950 . S
C361 C363 1.327 . S
C361 C367 1.429 . S
C362 C354 1.574 . S
C362 H357 0.949 . S
C362 C368 1.368 . S
C363 C347 1.349 . S
C363 H355 0.950 . S
C363 C361 1.327 . S
C364 C352 1.349 . S
C364 H358 0.920 1_565 S
C364 C365 1.327 . S
C365 H359 0.950 . S
C365 C364 1.327 . S
C365 C369 1.429 . S
C366 C349 1.574 . S
C366 H360 0.949 . S
C366 C370 1.368 . S
C367 C348 1.429 . S
C367 C361 1.429 . S
C367 C368 1.523 . S
C368 C349 1.368 . S
C368 C362 1.368 . S
C368 C367 1.523 . S
C369 C353 1.429 . S
C369 C365 1.429 . S
C369 C370 1.523 . S
C370 C354 1.368 . S
C370 C366 1.368 . S
C370 C369 1.523 . S
H371 C346 0.950 . S
H372 C348 0.950 . S
H373 C349 0.949 . S
H374 C351 0.950 . S
H375 C353 0.950 . S
C376 C377 1.349 . S
C376 C378 1.327 . S
C376 H401 0.950 . S
C377 C376 1.349 . S
C377 C393 1.349 . S
C378 C376 1.327 . S
C378 C397 1.429 . S
C378 H402 0.950 . S
C379 C396 1.574 . S
C379 C398 1.368 . S
C379 H403 0.949 . S
H380 C384 0.949 . S
C381 C382 1.349 . S
C381 C383 1.327 . S
C381 H404 0.950 1_556 S
C382 C381 1.349 . S
C382 C394 1.349 . S
C383 C381 1.327 . S
C383 C399 1.429 . S
C383 H405 0.950 1_556 S
C384 H380 0.949 . S
C384 C392 1.574 . S
C384 C400 1.368 . S
H385 C393 0.950 . S
H386 C391 0.950 . S
H387 C392 0.949 . S
H388 C394 0.950 . S
H389 C395 0.950 . S
H390 C396 0.949 . S
C391 H386 0.950 . S
C391 C393 1.327 . S
C391 C397 1.429 . S
C392 C384 1.574 . S
C392 H387 0.949 . S
C392 C398 1.368 . S
C393 C377 1.349 . S
C393 H385 0.950 . S
C393 C391 1.327 . S
C394 C382 1.349 . S
C394 H388 0.950 . S
C394 C395 1.327 . S
C395 H389 0.950 . S
C395 C394 1.327 . S
C395 C399 1.429 . S
C396 C379 1.574 . S
C396 H390 0.949 . S
C396 C400 1.368 . S
C397 C378 1.429 . S
C397 C391 1.429 . S
C397 C398 1.523 . S
C398 C379 1.368 . S
C398 C392 1.368 . S
C398 C397 1.523 . S
C399 C383 1.429 . S
C399 C395 1.429 . S
C399 C400 1.523 . S
C400 C384 1.368 . S
C400 C396 1.368 . S
C400 C399 1.523 . S
H401 C376 0.950 . S
H402 C378 0.950 . S
H403 C379 0.949 . S
H404 C381 0.950 1_554 S
H405 C383 0.950 1_554 S
C406 C407 1.349 . S
C406 C408 1.327 . S
C406 H431 0.950 . S
C407 C406 1.349 . S
C407 C423 1.349 . S
C408 C406 1.327 . S
C408 C427 1.429 . S
C408 H432 0.950 . S
C409 C426 1.574 . S
C409 C428 1.368 . S
C409 H433 0.949 . S
H410 C414 0.949 . S
C411 C412 1.349 . S
C411 C413 1.327 . S
C411 H434 0.950 . S
C412 C411 1.349 . S
C412 C424 1.349 . S
C413 C411 1.327 . S
C413 C429 1.429 . S
C413 H435 0.950 . S
C414 H410 0.949 . S
C414 C422 1.574 . S
C414 C430 1.368 . S
H415 C423 0.950 . S
H416 C421 0.950 . S
H417 C422 0.949 . S
H418 C424 0.950 . S
H419 C425 0.950 . S
H420 C426 0.949 . S
C421 H416 0.950 . S
C421 C423 1.327 . S
C421 C427 1.429 . S
C422 C414 1.574 . S
C422 H417 0.949 . S
C422 C428 1.368 . S
C423 C407 1.349 . S
C423 H415 0.950 . S
C423 C421 1.327 . S
C424 C412 1.349 . S
C424 H418 0.950 . S
C424 C425 1.327 . S
C425 H419 0.950 . S
C425 C424 1.327 . S
C425 C429 1.429 . S
C426 C409 1.574 . S
C426 H420 0.949 . S
C426 C430 1.368 . S
C427 C408 1.429 . S
C427 C421 1.429 . S
C427 C428 1.523 . S
C428 C409 1.368 . S
C428 C422 1.368 . S
C428 C427 1.523 . S
C429 C413 1.429 . S
C429 C425 1.429 . S
C429 C430 1.523 . S
C430 C414 1.368 . S
C430 C426 1.368 . S
C430 C429 1.523 . S
H431 C406 0.950 . S
H432 C408 0.950 . S
H433 C409 0.949 . S
H434 C411 0.950 . S
H435 C413 0.950 . S
C436 C437 1.349 . S
C436 C438 1.327 . S
C436 H461 0.950 . S
C437 C436 1.349 . S
C437 C453 1.349 . S
C438 C436 1.327 . S
C438 C457 1.429 . S
C438 H462 0.950 . S
C439 C456 1.574 . S
C439 C458 1.368 . S
C439 H463 0.949 . S
H440 C444 0.949 . S
C441 C442 1.349 . S
C441 C443 1.327 . S
C441 H464 0.950 . S
C442 C441 1.349 . S
C442 C454 1.349 . S
C443 C441 1.327 . S
C443 C459 1.429 . S
C443 H465 0.950 . S
C444 H440 0.949 . S
C444 C452 1.574 . S
C444 C460 1.368 . S
H445 C453 0.950 . S
H446 C451 0.950 . S
H447 C452 0.949 . S
H448 C454 0.950 . S
H449 C455 0.950 . S
H450 C456 0.949 . S
C451 H446 0.950 . S
C451 C453 1.327 . S
C451 C457 1.429 . S
C452 C444 1.574 . S
C452 H447 0.949 . S
C452 C458 1.368 . S
C453 C437 1.349 . S
C453 H445 0.950 . S
C453 C451 1.327 . S
C454 C442 1.349 . S
C454 H448 0.950 . S
C454 C455 1.327 . S
C455 H449 0.950 . S
C455 C454 1.327 . S
C455 C459 1.429 . S
C456 C439 1.574 . S
C456 H450 0.949 . S
C456 C460 1.368 . S
C457 C438 1.429 . S
C457 C451 1.429 . S
C457 C458 1.523 . S
C458 C439 1.368 . S
C458 C452 1.368 . S
C458 C457 1.523 . S
C459 C443 1.429 . S
C459 C455 1.429 . S
C459 C460 1.523 . S
C460 C444 1.368 . S
C460 C456 1.368 . S
C460 C459 1.523 . S
H461 C436 0.950 . S
H462 C438 0.950 . S
H463 C439 0.949 . S
H464 C441 0.950 . S
H465 C443 0.950 . S
C466 C467 1.349 . S
C466 C468 1.327 . S
C466 H491 0.950 . S
C467 C466 1.349 . S
C467 C483 1.349 . S
C468 C466 1.327 . S
C468 C487 1.429 . S
C468 H492 0.950 . S
C469 C486 1.574 . S
C469 C488 1.368 . S
C469 H493 0.949 . S
H470 C474 0.949 . S
C471 C472 1.349 . S
C471 C473 1.327 . S
C471 H494 0.950 1_556 S
C472 C471 1.349 . S
C472 C484 1.349 . S
C473 C471 1.327 . S
C473 C489 1.429 . S
C473 H495 0.958 . S
C474 H470 0.949 . S
C474 C482 1.574 . S
C474 C490 1.368 . S
H475 C483 0.950 . S
H476 C481 0.950 . S
H477 C482 0.949 . S
H478 C484 0.950 . S
H479 C485 0.950 . S
H480 C486 0.949 . S
C481 H476 0.950 . S
C481 C483 1.327 . S
C481 C487 1.429 . S
C482 C474 1.574 . S
C482 H477 0.949 . S
C482 C488 1.368 . S
C483 C467 1.349 . S
C483 H475 0.950 . S
C483 C481 1.327 . S
C484 C472 1.349 . S
C484 H478 0.950 . S
C484 C485 1.327 . S
C485 H479 0.950 . S
C485 C484 1.327 . S
C485 C489 1.429 . S
C486 C469 1.574 . S
C486 H480 0.949 . S
C486 C490 1.368 . S
C487 C468 1.429 . S
C487 C481 1.429 . S
C487 C488 1.523 . S
C488 C469 1.368 . S
C488 C482 1.368 . S
C488 C487 1.523 . S
C489 C473 1.429 . S
C489 C485 1.429 . S
C489 C490 1.523 . S
C490 C474 1.368 . S
C490 C486 1.368 . S
C490 C489 1.523 . S
H491 C466 0.950 . S
H492 C468 0.950 . S
H493 C469 0.949 . S
H494 C471 0.950 1_554 S
H495 C473 0.958 . S
C496 C497 1.349 . S
C496 C498 1.327 . S
C496 H521 0.950 . S
C497 C496 1.349 . S
C497 C513 1.349 . S
C498 C496 1.327 . S
C498 C517 1.429 . S
C498 H522 0.950 . S
C499 C516 1.574 . S
C499 C518 1.368 . S
C499 H523 0.949 . S
H500 C504 0.949 . S
C501 C502 1.349 . S
C501 C503 1.327 . S
C501 H524 0.950 1_655 S
C502 C501 1.349 . S
C502 C514 1.349 . S
C503 C501 1.327 . S
C503 C519 1.429 . S
C503 H525 0.950 . S
C504 H500 0.949 . S
C504 C512 1.574 . S
C504 C520 1.368 . S
H505 C513 0.950 . S
H506 C511 0.950 . S
H507 C512 0.949 . S
H508 C514 0.950 . S
H509 C515 0.950 . S
H510 C516 0.949 . S
C511 H506 0.950 . S
C511 C513 1.327 . S
C511 C517 1.429 . S
C512 C504 1.574 . S
C512 H507 0.949 . S
C512 C518 1.368 . S
C513 C497 1.349 . S
C513 H505 0.950 . S
C513 C511 1.327 . S
C514 C502 1.349 . S
C514 H508 0.950 . S
C514 C515 1.327 . S
C515 H509 0.950 . S
C515 C514 1.327 . S
C515 C519 1.429 . S
C516 C499 1.574 . S
C516 H510 0.949 . S
C516 C520 1.368 . S
C517 C498 1.429 . S
C517 C511 1.429 . S
C517 C518 1.523 . S
C518 C499 1.368 . S
C518 C512 1.368 . S
C518 C517 1.523 . S
C519 C503 1.429 . S
C519 C515 1.429 . S
C519 C520 1.523 . S
C520 C504 1.368 . S
C520 C516 1.368 . S
C520 C519 1.523 . S
H521 C496 0.950 . S
H522 C498 0.950 . S
H523 C499 0.949 . S
H524 C501 0.950 1_455 S
H525 C503 0.950 . S
C526 C527 1.349 . S
C526 C528 1.327 . S
C526 H551 0.950 . S
C527 C526 1.349 . S
C527 C543 1.349 . S
C528 C526 1.327 . S
C528 C547 1.429 . S
C528 H552 0.950 . S
C529 C546 1.574 . S
C529 C548 1.368 . S
C529 H553 0.949 . S
H530 C534 0.949 . S
C531 C532 1.349 . S
C531 C533 1.327 . S
C531 H554 0.950 . S
C532 C531 1.349 . S
C532 C544 1.349 . S
C533 C531 1.327 . S
C533 C549 1.429 . S
C533 H555 0.950 . S
C534 H530 0.949 . S
C534 C542 1.574 . S
C534 C550 1.368 . S
H535 C543 0.950 . S
H536 C541 0.950 . S
H537 C542 0.949 . S
H538 C544 0.950 . S
H539 C545 0.950 . S
H540 C546 0.949 . S
C541 H536 0.950 . S
C541 C543 1.327 . S
C541 C547 1.429 . S
C542 C534 1.574 . S
C542 H537 0.949 . S
C542 C548 1.368 . S
C543 C527 1.349 . S
C543 H535 0.950 . S
C543 C541 1.327 . S
C544 C532 1.349 . S
C544 H538 0.950 . S
C544 C545 1.327 . S
C545 H539 0.950 . S
C545 C544 1.327 . S
C545 C549 1.429 . S
C546 C529 1.574 . S
C546 H540 0.949 . S
C546 C550 1.368 . S
C547 C528 1.429 . S
C547 C541 1.429 . S
C547 C548 1.523 . S
C548 C529 1.368 . S
C548 C542 1.368 . S
C548 C547 1.523 . S
C549 C533 1.429 . S
C549 C545 1.429 . S
C549 C550 1.523 . S
C550 C534 1.368 . S
C550 C546 1.368 . S
C550 C549 1.523 . S
H551 C526 0.950 . S
H552 C528 0.950 . S
H553 C529 0.949 . S
H554 C531 0.950 . S
H555 C533 0.950 . S
C556 C557 1.349 . S
C556 C558 1.327 . S
C556 H581 0.950 . S
C557 C556 1.349 . S
C557 C573 1.349 . S
C558 C556 1.327 . S
C558 C577 1.429 . S
C558 H582 0.950 . S
C559 C576 1.576 . S
C559 C578 1.368 . S
C559 H583 0.949 1_655 S
H560 C564 0.949 . S
C561 C562 1.349 1_455 S
C561 C563 1.327 . S
C561 H584 0.950 . S
C562 C561 1.349 1_655 S
C562 C574 1.349 1_545 S
C563 C561 1.327 . S
C563 C579 1.429 1_445 S
C563 H585 0.950 . S
C564 H560 0.949 . S
C564 C572 1.574 . S
C564 C580 1.368 . S
H565 C573 0.950 . S
H566 C571 0.950 1_455 S
H567 C572 0.949 . S
H568 C574 0.950 . S
H569 C575 0.950 . S
H570 C576 0.935 1_445 S
C571 H566 0.950 1_655 S
C571 C573 1.327 . S
C571 C577 1.429 . S
C572 C564 1.574 . S
C572 H567 0.949 . S
C572 C578 1.368 . S
C573 C557 1.349 . S
C573 H565 0.950 . S
C573 C571 1.327 . S
C574 C562 1.349 1_565 S
C574 H568 0.950 . S
C574 C575 1.327 . S
C575 H569 0.950 . S
C575 C574 1.327 . S
C575 C579 1.429 . S
C576 C559 1.576 . S
C576 H570 0.935 1_665 S
C576 C580 1.381 . S
C577 C558 1.429 . S
C577 C571 1.429 . S
C577 C578 1.523 . S
C578 C559 1.368 . S
C578 C572 1.368 . S
C578 C577 1.523 . S
C579 C563 1.429 1_665 S
C579 C575 1.429 . S
C579 C580 1.523 . S
C580 C564 1.368 . S
C580 C576 1.381 . S
C580 C579 1.523 . S
H581 C556 0.950 . S
H582 C558 0.950 . S
H583 C559 0.949 1_455 S
H584 C561 0.950 . S
H585 C563 0.950 . S
C586 C587 1.349 . S
C586 C588 1.327 . S
C586 H611 0.950 . S
C587 C586 1.349 . S
C587 C603 1.349 . S
C588 C586 1.327 . S
C588 C607 1.429 . S
C588 H612 0.950 . S
C589 C606 1.574 . S
C589 C608 1.368 . S
C589 H613 0.949 . S
H590 C594 0.949 . S
C591 C592 1.349 . S
C591 C593 1.327 . S
C591 H614 0.950 1_545 S
C592 C591 1.349 . S
C592 C604 1.349 . S
C593 C591 1.327 . S
C593 C609 1.429 . S
C593 H615 0.950 1_545 S
C594 H590 0.949 . S
C594 C602 1.574 . S
C594 C610 1.368 . S
H595 C603 0.950 . S
H596 C601 0.950 . S
H597 C602 0.949 . S
H598 C604 0.950 . S
H599 C605 0.950 . S
H600 C606 0.949 . S
C601 H596 0.950 . S
C601 C603 1.327 . S
C601 C607 1.429 . S
C602 C594 1.574 . S
C602 H597 0.949 . S
C602 C608 1.368 . S
C603 C587 1.349 . S
C603 H595 0.950 . S
C603 C601 1.327 . S
C604 C592 1.349 . S
C604 H598 0.950 . S
C604 C605 1.327 . S
C605 H599 0.950 . S
C605 C604 1.327 . S
C605 C609 1.429 . S
C606 C589 1.574 . S
C606 H600 0.949 . S
C606 C610 1.368 . S
C607 C588 1.429 . S
C607 C601 1.429 . S
C607 C608 1.523 . S
C608 C589 1.368 . S
C608 C602 1.368 . S
C608 C607 1.523 . S
C609 C593 1.429 . S
C609 C605 1.429 . S
C609 C610 1.523 . S
C610 C594 1.368 . S
C610 C606 1.368 . S
C610 C609 1.523 . S
H611 C586 0.950 . S
H612 C588 0.950 . S
H613 C589 0.949 . S
H614 C591 0.950 1_565 S
H615 C593 0.950 1_565 S
C616 C617 1.349 . S
C616 C618 1.327 . S
C616 H641 0.950 . S
C617 C616 1.349 . S
C617 C633 1.349 . S
C618 C616 1.327 . S
C618 C637 1.429 . S
C618 H642 0.950 . S
C619 C636 1.574 . S
C619 C638 1.368 . S
C619 H643 0.949 . S
H620 C624 0.949 . S
C621 C622 1.349 . S
C621 C623 1.327 . S
C621 H644 0.950 . S
C622 C621 1.349 . S
C622 C634 1.349 . S
C623 C621 1.327 . S
C623 C639 1.429 . S
C623 H645 0.950 . S
C624 H620 0.949 . S
C624 C632 1.574 . S
C624 C640 1.368 . S
H625 C633 0.950 . S
H626 C631 0.950 . S
H627 C632 0.949 . S
H628 C634 0.950 . S
H629 C635 0.950 . S
H630 C636 0.949 . S
C631 H626 0.950 . S
C631 C633 1.327 . S
C631 C637 1.429 . S
C632 C624 1.574 . S
C632 H627 0.949 . S
C632 C638 1.368 . S
C633 C617 1.349 . S
C633 H625 0.950 . S
C633 C631 1.327 . S
C634 C622 1.349 . S
C634 H628 0.950 . S
C634 C635 1.327 . S
C635 H629 0.950 . S
C635 C634 1.327 . S
C635 C639 1.429 . S
C636 C619 1.574 . S
C636 H630 0.949 . S
C636 C640 1.368 . S
C637 C618 1.429 . S
C637 C631 1.429 . S
C637 C638 1.523 . S
C638 C619 1.368 . S
C638 C632 1.368 . S
C638 C637 1.523 . S
C639 C623 1.429 . S
C639 C635 1.429 . S
C639 C640 1.523 . S
C640 C624 1.368 . S
C640 C636 1.368 . S
C640 C639 1.523 . S
H641 C616 0.950 . S
H642 C618 0.950 . S
H643 C619 0.949 . S
H644 C621 0.950 . S
H645 C623 0.950 . S
C646 C647 1.349 . S
C646 C648 1.327 . S
C646 H671 0.950 . S
C647 C646 1.349 . S
C647 C663 1.349 . S
C648 C646 1.327 . S
C648 C667 1.429 . S
C648 H672 0.950 . S
C649 C666 1.574 . S
C649 C668 1.368 . S
C649 H673 0.949 . S
H650 C654 0.949 . S
C651 C652 1.349 . S
C651 C653 1.327 . S
C651 H674 0.950 . S
C652 C651 1.349 . S
C652 C664 1.349 . S
C653 C651 1.327 . S
C653 C669 1.429 . S
C653 H675 0.950 . S
C654 H650 0.949 . S
C654 C662 1.574 . S
C654 C670 1.368 . S
H655 C663 0.950 . S
H656 C661 0.950 . S
H657 C662 0.949 . S
H658 C664 0.950 . S
H659 C665 0.950 . S
H660 C666 0.949 . S
C661 H656 0.950 . S
C661 C663 1.327 . S
C661 C667 1.429 . S
C662 C654 1.574 . S
C662 H657 0.949 . S
C662 C668 1.368 . S
C663 C647 1.349 . S
C663 H655 0.950 . S
C663 C661 1.327 . S
C664 C652 1.349 . S
C664 H658 0.950 . S
C664 C665 1.327 . S
C665 H659 0.950 . S
C665 C664 1.327 . S
C665 C669 1.429 . S
C666 C649 1.574 . S
C666 H660 0.949 . S
C666 C670 1.368 . S
C667 C648 1.429 . S
C667 C661 1.429 . S
C667 C668 1.523 . S
C668 C649 1.368 . S
C668 C662 1.368 . S
C668 C667 1.523 . S
C669 C653 1.429 . S
C669 C665 1.429 . S
C669 C670 1.523 . S
C670 C654 1.368 . S
C670 C666 1.368 . S
C670 C669 1.523 . S
H671 C646 0.950 . S
H672 C648 0.950 . S
H673 C649 0.949 . S
H674 C651 0.950 . S
H675 C653 0.950 . S
C676 C677 1.349 . S
C676 C678 1.327 . S
C676 H701 0.950 . S
C677 C676 1.349 . S
C677 C693 1.349 . S
C678 C676 1.327 . S
C678 C697 1.429 . S
C678 H702 0.950 . S
C679 C696 1.574 . S
C679 C698 1.368 . S
C679 H703 0.949 1_556 S
H680 C684 0.949 . S
C681 C682 1.349 1_554 S
C681 C683 1.327 . S
C681 H704 0.950 1_565 S
C682 C681 1.349 1_556 S
C682 C694 1.349 . S
C683 C681 1.327 . S
C683 C699 1.429 1_554 S
C683 H705 0.950 . S
C684 H680 0.949 . S
C684 C692 1.574 . S
C684 C700 1.368 . S
H685 C693 0.950 . S
H686 C691 0.950 . S
H687 C692 0.949 . S
H688 C694 0.950 . S
H689 C695 0.950 . S
H690 C696 0.949 1_554 S
C691 H686 0.950 . S
C691 C693 1.327 . S
C691 C697 1.429 . S
C692 C684 1.574 . S
C692 H687 0.949 . S
C692 C698 1.368 . S
C693 C677 1.349 . S
C693 H685 0.950 . S
C693 C691 1.327 . S
C694 C682 1.349 . S
C694 H688 0.950 . S
C694 C695 1.327 . S
C695 H689 0.950 . S
C695 C694 1.327 . S
C695 C699 1.429 . S
C696 C679 1.574 . S
C696 H690 0.949 1_556 S
C696 C700 1.368 . S
C697 C678 1.429 . S
C697 C691 1.429 . S
C697 C698 1.523 . S
C698 C679 1.368 . S
C698 C692 1.368 . S
C698 C697 1.523 . S
C699 C683 1.429 1_556 S
C699 C695 1.429 . S
C699 C700 1.523 . S
C700 C684 1.368 . S
C700 C696 1.368 . S
C700 C699 1.523 . S
H701 C676 0.950 . S
H702 C678 0.950 . S
H703 C679 0.949 1_554 S
H704 C681 0.950 1_545 S
H705 C683 0.950 . S
C706 C707 1.349 . S
C706 C708 1.327 . S
C706 H731 0.950 . S
C707 C706 1.349 . S
C707 C723 1.349 . S
C708 C706 1.327 . S
C708 C727 1.429 . S
C708 H732 0.950 . S
C709 C726 1.574 . S
C709 C728 1.368 . S
C709 H733 0.949 . S
H710 C714 0.949 . S
C711 C712 1.349 . S
C711 C713 1.327 . S
C711 H734 0.950 . S
C712 C711 1.349 . S
C712 C724 1.349 . S
C713 C711 1.327 . S
C713 C729 1.429 . S
C713 H735 0.950 . S
C714 H710 0.949 . S
C714 C722 1.574 . S
C714 C730 1.368 . S
H715 C723 0.950 . S
H716 C721 0.950 . S
H717 C722 0.949 . S
H718 C724 0.950 . S
H719 C725 0.950 . S
H720 C726 0.949 . S
C721 H716 0.950 . S
C721 C723 1.327 . S
C721 C727 1.429 . S
C722 C714 1.574 . S
C722 H717 0.949 . S
C722 C728 1.368 . S
C723 C707 1.349 . S
C723 H715 0.950 . S
C723 C721 1.327 . S
C724 C712 1.349 . S
C724 H718 0.950 . S
C724 C725 1.327 . S
C725 H719 0.950 . S
C725 C724 1.327 . S
C725 C729 1.429 . S
C726 C709 1.574 . S
C726 H720 0.949 . S
C726 C730 1.368 . S
C727 C708 1.429 . S
C727 C721 1.429 . S
C727 C728 1.523 . S
C728 C709 1.368 . S
C728 C722 1.368 . S
C728 C727 1.523 . S
C729 C713 1.429 . S
C729 C725 1.429 . S
C729 C730 1.523 . S
C730 C714 1.368 . S
C730 C726 1.368 . S
C730 C729 1.523 . S
H731 C706 0.950 . S
H732 C708 0.950 . S
H733 C709 0.949 . S
H734 C711 0.950 . S
H735 C713 0.950 . S
C736 C737 1.349 . S
C736 C738 1.327 . S
C736 H761 0.950 . S
C737 C736 1.349 . S
C737 C753 1.349 . S
C738 C736 1.327 . S
C738 C757 1.429 . S
C738 H762 0.950 . S
C739 C756 1.574 . S
C739 C758 1.368 . S
C739 H763 0.949 . S
H740 C744 0.949 . S
C741 C742 1.349 . S
C741 C743 1.327 . S
C741 H764 0.950 . S
C742 C741 1.349 . S
C742 C754 1.349 . S
C743 C741 1.327 . S
C743 C759 1.429 . S
C743 H765 0.950 . S
C744 H740 0.949 . S
C744 C752 1.574 . S
C744 C760 1.368 . S
H745 C753 0.950 . S
H746 C751 0.950 . S
H747 C752 0.949 . S
H748 C754 0.950 1_556 S
H749 C755 0.950 . S
H750 C756 0.949 . S
C751 H746 0.950 . S
C751 C753 1.327 . S
C751 C757 1.429 . S
C752 C744 1.574 . S
C752 H747 0.949 . S
C752 C758 1.368 . S
C753 C737 1.349 . S
C753 H745 0.950 . S
C753 C751 1.327 . S
C754 C742 1.349 . S
C754 H748 0.950 1_554 S
C754 C755 1.327 . S
C755 H749 0.950 . S
C755 C754 1.327 . S
C755 C759 1.429 . S
C756 C739 1.574 . S
C756 H750 0.949 . S
C756 C760 1.368 . S
C757 C738 1.429 . S
C757 C751 1.429 . S
C757 C758 1.523 . S
C758 C739 1.368 . S
C758 C752 1.368 . S
C758 C757 1.523 . S
C759 C743 1.429 . S
C759 C755 1.429 . S
C759 C760 1.523 . S
C760 C744 1.368 . S
C760 C756 1.368 . S
C760 C759 1.523 . S
H761 C736 0.950 . S
H762 C738 0.950 . S
H763 C739 0.949 . S
H764 C741 0.950 . S
H765 C743 0.950 . S
C766 C767 1.349 . S
C766 C768 1.327 . S
C766 H791 0.950 . S
C767 C766 1.349 . S
C767 C783 1.349 . S
C768 C766 1.327 . S
C768 C787 1.429 . S
C768 H792 0.950 . S
C769 C786 1.574 . S
C769 C788 1.368 . S
C769 H793 0.949 . S
H770 C774 0.949 . S
C771 C772 1.349 . S
C771 C773 1.327 . S
C771 H794 0.950 . S
C772 C771 1.349 . S
C772 C784 1.349 . S
C773 C771 1.327 . S
C773 C789 1.429 . S
C773 H795 0.950 . S
C774 H770 0.949 . S
C774 C782 1.574 . S
C774 C790 1.368 . S
H775 C783 0.950 . S
H776 C781 0.950 . S
H777 C782 0.949 . S
H778 C784 0.950 . S
H779 C785 0.950 . S
H780 C786 0.949 . S
C781 H776 0.950 . S
C781 C783 1.327 . S
C781 C787 1.429 . S
C782 C774 1.574 . S
C782 H777 0.949 . S
C782 C788 1.368 . S
C783 C767 1.349 . S
C783 H775 0.950 . S
C783 C781 1.327 . S
C784 C772 1.349 . S
C784 H778 0.950 . S
C784 C785 1.327 . S
C785 H779 0.950 . S
C785 C784 1.327 . S
C785 C789 1.429 . S
C786 C769 1.574 . S
C786 H780 0.949 . S
C786 C790 1.368 . S
C787 C768 1.429 . S
C787 C781 1.429 . S
C787 C788 1.523 . S
C788 C769 1.368 . S
C788 C782 1.368 . S
C788 C787 1.523 . S
C789 C773 1.429 . S
C789 C785 1.429 . S
C789 C790 1.523 . S
C790 C774 1.368 . S
C790 C786 1.368 . S
C790 C789 1.523 . S
H791 C766 0.950 . S
H792 C768 0.950 . S
H793 C769 0.949 . S
H794 C771 0.950 . S
H795 C773 0.950 . S
C796 C797 1.349 . S
C796 C798 1.327 . S
C796 H821 0.950 . S
C797 C796 1.349 . S
C797 C813 1.349 . S
C798 C796 1.327 . S
C798 C817 1.429 . S
C798 H822 0.950 . S
C799 C816 1.574 . S
C799 C818 1.368 1_554 S
C799 H823 0.949 . S
H800 C804 0.949 . S
C801 C802 1.327 1_554 S
C801 C803 1.327 1_455 S
C801 H824 0.950 1_455 S
C802 C801 1.327 1_556 S
C802 C814 1.375 . S
C803 C801 1.327 1_655 S
C803 C819 1.429 1_654 S
C803 H825 0.950 . S
C804 H800 0.949 . S
C804 C812 1.573 . S
C804 C820 1.368 1_455 S
H805 C813 0.950 1_554 S
H806 C811 0.950 1_554 S
H807 C812 0.948 . S
H808 C814 0.950 . S
H809 C815 0.950 . S
H810 C816 0.949 . S
C811 H806 0.950 1_556 S
C811 C813 1.327 . S
C811 C817 1.429 . S
C812 C804 1.573 . S
C812 H807 0.948 . S
C812 C818 1.370 1_455 S
C813 C797 1.349 . S
C813 H805 0.950 1_556 S
C813 C811 1.327 . S
C814 C802 1.375 . S
C814 H808 0.950 . S
C814 C815 1.327 . S
C815 H809 0.950 . S
C815 C814 1.327 . S
C815 C819 1.429 . S
C816 C799 1.574 . S
C816 H810 0.949 . S
C816 C820 1.368 1_554 S
C817 C798 1.429 . S
C817 C811 1.429 . S
C817 C818 1.523 . S
C818 C799 1.368 1_556 S
C818 C812 1.370 1_655 S
C818 C817 1.523 . S
C819 C803 1.429 1_456 S
C819 C815 1.429 . S
C819 C820 1.523 1_455 S
C820 C804 1.368 1_655 S
C820 C816 1.368 1_556 S
C820 C819 1.523 1_655 S
H821 C796 0.950 . S
H822 C798 0.950 . S
H823 C799 0.949 . S
H824 C801 0.950 1_655 S
H825 C803 0.950 . S
C826 C827 1.349 . S
C826 C828 1.327 . S
C826 H851 0.950 . S
C827 C826 1.349 . S
C827 C843 1.349 . S
C828 C826 1.327 . S
C828 C847 1.429 . S
C828 H852 0.950 . S
C829 C846 1.574 . S
C829 C848 1.368 . S
C829 H853 0.949 . S
H830 C834 0.949 . S
C831 C832 1.349 . S
C831 C833 1.327 . S
C831 H854 0.950 . S
C832 C831 1.349 . S
C832 C844 1.349 . S
C833 C831 1.327 . S
C833 C849 1.429 . S
C833 H855 0.950 . S
C834 H830 0.949 . S
C834 C842 1.574 . S
C834 C850 1.368 . S
H835 C843 0.950 . S
H836 C841 0.950 . S
H837 C842 0.949 . S
H838 C844 0.950 . S
H839 C845 0.950 . S
H840 C846 0.949 . S
C841 H836 0.950 . S
C841 C843 1.327 . S
C841 C847 1.429 . S
C842 C834 1.574 . S
C842 H837 0.949 . S
C842 C848 1.368 . S
C843 C827 1.349 . S
C843 H835 0.950 . S
C843 C841 1.327 . S
C844 C832 1.349 . S
C844 H838 0.950 . S
C844 C845 1.327 . S
C845 H839 0.950 . S
C845 C844 1.327 . S
C845 C849 1.429 . S
C846 C829 1.574 . S
C846 H840 0.949 . S
C846 C850 1.368 . S
C847 C828 1.429 . S
C847 C841 1.429 . S
C847 C848 1.523 . S
C848 C829 1.368 . S
C848 C842 1.368 . S
C848 C847 1.523 . S
C849 C833 1.429 . S
C849 C845 1.429 . S
C849 C850 1.523 . S
C850 C834 1.368 . S
C850 C846 1.368 . S
C850 C849 1.523 . S
H851 C826 0.950 . S
H852 C828 0.950 . S
H853 C829 0.949 . S
H854 C831 0.950 . S
H855 C833 0.950 . S
C856 C857 1.349 . S
C856 C858 1.327 . S
C856 H881 0.950 . S
C857 C856 1.349 . S
C857 C873 1.349 . S
C858 C856 1.327 . S
C858 C877 1.429 . S
C858 H882 0.950 . S
C859 C876 1.574 . S
C859 C878 1.368 . S
C859 H883 0.949 . S
H860 C864 0.949 . S
C861 C862 1.349 . S
C861 C863 1.327 . S
C861 H884 0.950 . S
C862 C861 1.349 . S
C862 C874 1.349 . S
C863 C861 1.327 . S
C863 C879 1.429 . S
C863 H885 0.950 . S
C864 H860 0.949 . S
C864 C872 1.574 . S
C864 C880 1.368 . S
H865 C873 0.950 . S
H866 C871 0.950 . S
H867 C872 0.949 . S
H868 C874 0.950 . S
H869 C875 0.950 . S
H870 C876 0.949 . S
C871 H866 0.950 . S
C871 C873 1.327 . S
C871 C877 1.429 . S
C872 C864 1.574 . S
C872 H867 0.949 . S
C872 C878 1.368 . S
C873 C857 1.349 . S
C873 H865 0.950 . S
C873 C871 1.327 . S
C874 C862 1.349 . S
C874 H868 0.950 . S
C874 C875 1.327 . S
C875 H869 0.950 . S
C875 C874 1.327 . S
C875 C879 1.429 . S
C876 C859 1.574 . S
C876 H870 0.949 . S
C876 C880 1.368 . S
C877 C858 1.429 . S
C877 C871 1.429 . S
C877 C878 1.523 . S
C878 C859 1.368 . S
C878 C872 1.368 . S
C878 C877 1.523 . S
C879 C863 1.429 . S
C879 C875 1.429 . S
C879 C880 1.523 . S
C880 C864 1.368 . S
C880 C876 1.368 . S
C880 C879 1.523 . S
H881 C856 0.950 . S
H882 C858 0.950 . S
H883 C859 0.949 . S
H884 C861 0.950 . S
H885 C863 0.950 . S
C886 C887 1.349 . S
C886 C888 1.327 . S
C886 H911 0.950 . S
C887 C886 1.349 . S
C887 C903 1.349 . S
C888 C886 1.327 . S
C888 C907 1.429 . S
C888 H912 0.950 . S
C889 C906 1.574 . S
C889 C908 1.368 . S
C889 H913 0.949 . S
H890 C894 0.949 . S
C891 C892 1.349 . S
C891 C893 1.327 . S
C891 H914 0.950 . S
C892 C891 1.349 . S
C892 C904 1.349 . S
C893 C891 1.327 . S
C893 C909 1.429 . S
C893 H915 0.950 . S
C894 H890 0.949 . S
C894 C902 1.574 . S
C894 C910 1.368 . S
H895 C903 0.950 . S
H896 C901 0.950 . S
H897 C902 0.949 . S
H898 C904 0.950 . S
H899 C905 0.950 . S
H900 C906 0.949 . S
C901 H896 0.950 . S
C901 C903 1.327 . S
C901 C907 1.429 . S
C902 C894 1.574 . S
C902 H897 0.949 . S
C902 C908 1.368 . S
C903 C887 1.349 . S
C903 H895 0.950 . S
C903 C901 1.327 . S
C904 C892 1.349 . S
C904 H898 0.950 . S
C904 C905 1.327 . S
C905 H899 0.950 . S
C905 C904 1.327 . S
C905 C909 1.429 . S
C906 C889 1.574 . S
C906 H900 0.949 . S
C906 C910 1.368 . S
C907 C888 1.429 . S
C907 C901 1.429 . S
C907 C908 1.523 . S
C908 C889 1.368 . S
C908 C902 1.368 . S
C908 C907 1.523 . S
C909 C893 1.429 . S
C909 C905 1.429 . S
C909 C910 1.523 . S
C910 C894 1.368 . S
C910 C906 1.368 . S
C910 C909 1.523 . S
H911 C886 0.950 . S
H912 C888 0.950 . S
H913 C889 0.949 . S
H914 C891 0.950 . S
H915 C893 0.950 . S
C197 C9 2.092 . S
C202 C122 2.046 . S
C227 C21 1.582 . S
C232 C146 1.553 . S
C262 C166 1.055 . S
C257 C30 1.041 . S
C287 C43 1.079 . S
C292 C189 1.137 . S
C322 C148 1.588 . S
C317 C4 1.606 . S
C352 C124 2.254 . S
C347 C22 2.292 . S
C382 C192 1.205 . S
C377 C34 1.234 . S
C412 C169 1.338 . S
C407 C48 1.365 . S
C437 C8 1.504 . S
C442 C194 1.473 . S
C472 C143 1.654 . S
C467 C35 1.641 . S
C497 C47 1.706 . S
C502 C121 1.714 . S
C527 C17 1.204 . S
C532 C171 1.181 . S
C562 C125 1.654 . S
C557 C60 1.654 . S
C587 C74 1.882 . S
C592 C147 1.864 . S
C617 C82 1.167 . S
C622 C167 1.191 . S
C647 C100 2.033 . S
C652 C190 2.058 . S
C677 C61 1.875 . S
C682 C145 1.848 . S
C712 C123 1.536 . S
C707 C73 1.545 . S
C742 C193 1.478 . S
C737 C87 1.496 . S
C772 C170 0.982 . S
C767 C95 0.971 . S
C797 C56 1.835 . S
C802 C191 1.908 1_556 S
C832 C144 1.603 . S
C827 C86 1.586 . S
C862 C120 1.445 . S
C857 C99 1.424 . S
C887 C69 1.692 . S
C892 C168 1.679 . S
