# Generated by pormake.
# Topology zzz, (3,6)-cn, num edge types: 1
# Building blocks:
#     Node 0, Type 0, BuildingBlock: PAMTOO_clean_linker_0, # of connection points: 3
#     Node 1, Type 0, BuildingBlock: PAMTOO_clean_linker_0, # of connection points: 3
#     Node 2, Type 0, BuildingBlock: PAMTOO_clean_linker_0, # of connection points: 3
#     Node 3, Type 0, BuildingBlock: PAMTOO_clean_linker_0, # of connection points: 3
#     Node 4, Type 0, BuildingBlock: PAMTOO_clean_linker_0, # of connection points: 3
#     Node 5, Type 0, BuildingBlock: PAMTOO_clean_linker_0, # of connection points: 3
#     Node 6, Type 0, BuildingBlock: PAMTOO_clean_linker_0, # of connection points: 3
#     Node 7, Type 0, BuildingBlock: PAMTOO_clean_linker_0, # of connection points: 3
#     Node 8, Type 1, BuildingBlock: JUFBIX_clean_sbu_0, # of connection points: 6
#     Node 9, Type 1, BuildingBlock: JUFBIX_clean_sbu_0, # of connection points: 6
#     Node 10, Type 1, BuildingBlock: JUFBIX_clean_sbu_0, # of connection points: 6
#     Node 11, Type 1, BuildingBlock: JUFBIX_clean_sbu_0, # of connection points: 6
#     Edge 12, Type (0, 1), BuildingBlock: AJUNOK_clean_linker_0, # of connection points: 2
#     Edge 13, Type (0, 1), BuildingBlock: AJUNOK_clean_linker_0, # of connection points: 2
#     Edge 14, Type (0, 1), BuildingBlock: AJUNOK_clean_linker_0, # of connection points: 2
#     Edge 15, Type (0, 1), BuildingBlock: AJUNOK_clean_linker_0, # of connection points: 2
#     Edge 16, Type (0, 1), BuildingBlock: AJUNOK_clean_linker_0, # of connection points: 2
#     Edge 17, Type (0, 1), BuildingBlock: AJUNOK_clean_linker_0, # of connection points: 2
#     Edge 18, Type (0, 1), BuildingBlock: AJUNOK_clean_linker_0, # of connection points: 2
#     Edge 19, Type (0, 1), BuildingBlock: AJUNOK_clean_linker_0, # of connection points: 2
#     Edge 20, Type (0, 1), BuildingBlock: AJUNOK_clean_linker_0, # of connection points: 2
#     Edge 21, Type (0, 1), BuildingBlock: AJUNOK_clean_linker_0, # of connection points: 2
#     Edge 22, Type (0, 1), BuildingBlock: AJUNOK_clean_linker_0, # of connection points: 2
#     Edge 23, Type (0, 1), BuildingBlock: AJUNOK_clean_linker_0, # of connection points: 2
#     Edge 24, Type (0, 1), BuildingBlock: AJUNOK_clean_linker_0, # of connection points: 2
#     Edge 25, Type (0, 1), BuildingBlock: AJUNOK_clean_linker_0, # of connection points: 2
#     Edge 26, Type (0, 1), BuildingBlock: AJUNOK_clean_linker_0, # of connection points: 2
#     Edge 27, Type (0, 1), BuildingBlock: AJUNOK_clean_linker_0, # of connection points: 2
#     Edge 28, Type (0, 1), BuildingBlock: AJUNOK_clean_linker_0, # of connection points: 2
#     Edge 29, Type (0, 1), BuildingBlock: AJUNOK_clean_linker_0, # of connection points: 2
#     Edge 30, Type (0, 1), BuildingBlock: AJUNOK_clean_linker_0, # of connection points: 2
#     Edge 31, Type (0, 1), BuildingBlock: AJUNOK_clean_linker_0, # of connection points: 2
#     Edge 32, Type (0, 1), BuildingBlock: AJUNOK_clean_linker_0, # of connection points: 2
#     Edge 33, Type (0, 1), BuildingBlock: AJUNOK_clean_linker_0, # of connection points: 2
#     Edge 34, Type (0, 1), BuildingBlock: AJUNOK_clean_linker_0, # of connection points: 2
#     Edge 35, Type (0, 1), BuildingBlock: AJUNOK_clean_linker_0, # of connection points: 2
# Relax obj value: 0.111
# Max RMSD: 0.173
# Mean RMSD: 0.081
data_MOF--net-zzz--node1-JUFBIX_clean_sbu_0--node2-PAMTOO_clean_linker_0--edge1-AJUNOK_clean_linker_0
_symmetry_space_group_name_H-M    P1
_symmetry_Int_Tables_number       1
_symmetry_cell_setting            triclinic
loop_
_symmetry_equiv_pos_as_xyz
'x, y, z'
_cell_length_a     37.299508
_cell_length_b     37.292369
_cell_length_c     13.546154
_cell_angle_alpha  78.382852
_cell_angle_beta   90.234259
_cell_angle_gamma 91.065592
loop_
_atom_site_label
_atom_site_type_symbol
_atom_site_fract_x
_atom_site_fract_y
_atom_site_fract_z
_atom_type_partial_charge
H0 H 0.94075 0.51536 0.36534 0.0
H1 H 0.85684 0.51823 0.14574 0.0
H2 H 0.83404 0.54387 0.43516 0.0
H3 H 0.76659 0.5056 0.34014 0.0
C4 C 0.78095 0.50765 0.26745 0.0
O5 O 0.80636 0.53562 0.25962 0.0
H6 H 0.79393 0.48095 0.26801 0.0
C7 C 0.91275 0.5191 0.34412 0.0
C8 C 0.88906 0.53029 0.41076 0.0
C9 C 0.90178 0.51524 0.24817 0.0
C10 C 0.86563 0.52025 0.2208 0.0
C11 C 0.84091 0.52972 0.28883 0.0
C12 C 0.85272 0.53522 0.38399 0.0
H13 H 0.06935 0.87768 0.31924 0.0
H14 H 0.0635 0.79452 0.14176 0.0
H15 H 1.02266 0.77254 0.44533 0.0
H16 H 0.04287 0.69362 0.34273 0.0
C17 C 0.05255 0.71605 0.28128 0.0
O18 O 1.03103 0.74604 0.27907 0.0
H19 H 0.08083 0.72251 0.29938 0.0
C20 C 0.06394 0.84947 0.31356 0.0
C21 C 0.04719 0.82613 0.39445 0.0
C22 C 0.07025 0.83855 0.22256 0.0
C23 C 0.05994 0.80307 0.21289 0.0
C24 C 0.0434 0.77898 0.29343 0.0
C25 C 0.03676 0.79055 0.38459 0.0
H26 H 0.70324 0.03958 0.22065 0.0
H27 H 0.78797 0.04406 0.00425 0.0
H28 H 0.8103 1.01257 0.32252 0.0
H29 H 0.87002 0.05939 0.19547 0.0
C30 C 0.86317 0.05212 0.12186 0.0
O31 O 0.83829 1.02357 0.13835 0.0
H32 H 0.85152 0.0767 0.07267 0.0
C33 C 0.73147 0.03759 0.20347 0.0
C34 C 0.75528 1.02643 0.28269 0.0
C35 C 0.74259 0.04411 0.10322 0.0
C36 C 0.77884 0.03946 0.08167 0.0
C37 C 0.80351 1.02854 0.16054 0.0
C38 C 0.79161 1.0217 0.26166 0.0
H39 H 0.54805 0.64984 0.23946 0.0
H40 H 0.55078 0.74938 0.01538 0.0
H41 H 0.5639 0.75311 0.32995 0.0
H42 H 0.51858 0.81357 0.21184 0.0
C43 C 0.52992 0.81488 0.13545 0.0
O44 O 0.55981 0.79301 0.14414 0.0
H45 H 0.50896 0.80411 0.0898 0.0
C46 C 0.55037 0.67951 0.22015 0.0
C47 C 0.55636 0.69912 0.29621 0.0
C48 C 0.54821 0.69724 0.11949 0.0
C49 C 0.55204 0.73549 0.09364 0.0
C50 C 0.5571 0.75592 0.16954 0.0
C51 C 0.55958 0.73758 0.27132 0.0
H52 H 0.1658 0.53955 0.28053 0.0
H53 H 0.26007 0.55529 0.45201 0.0
H54 H 0.27026 0.52541 0.16255 0.0
H55 H 0.34108 0.50172 0.30016 0.0
C56 C 0.32434 0.50904 0.3606 0.0
O57 O 0.3055 0.54019 0.32025 0.0
H58 H 0.30597 0.4851 0.38643 0.0
C59 C 0.19478 0.54015 0.28811 0.0
C60 C 0.216 0.5313 0.21206 0.0
C61 C 0.21024 0.54905 0.3744 0.0
C62 C 0.2477 0.54886 0.38501 0.0
C63 C 0.2694 0.5402 0.30904 0.0
C64 C 0.25354 0.53183 0.22161 0.0
H65 H 0.04089 0.18254 0.31064 0.0
H66 H 0.04099 0.26881 0.47837 0.0
H67 H 0.0777 0.29044 0.1707 0.0
H68 H 1.01623 0.33605 0.32081 0.0
C69 C 0.04411 0.3461 0.33039 0.0
O70 O 0.0685 0.31836 0.33388 0.0
H71 H 0.05046 0.36799 0.2638 0.0
C72 C 0.04449 0.21126 0.31367 0.0
C73 C 0.05832 0.23522 0.22924 0.0
C74 C 0.03832 0.22266 0.40401 0.0
C75 C 0.0453 0.25938 0.40885 0.0
C76 C 0.05916 0.28394 0.32474 0.0
C77 C 0.0659 0.27184 0.23456 0.0
H78 H 0.40123 1.02115 0.39583 0.0
H79 H 0.31456 1.00687 0.60909 0.0
H80 H 0.29283 0.03423 0.28954 0.0
H81 H 0.23731 0.06551 0.40009 0.0
C82 C 0.24574 0.05207 0.47733 0.0
O83 O 0.26378 1.02046 0.47208 0.0
H84 H 0.26377 0.07195 0.50551 0.0
C85 C 0.37267 1.02012 0.41189 0.0
C86 C 0.34869 1.02794 0.3318 0.0
C87 C 0.361 1.01206 0.51162 0.0
C88 C 0.32411 1.01261 0.53199 0.0
C89 C 0.29937 1.02051 0.45194 0.0
C90 C 0.31173 1.02811 0.35128 0.0
H91 H 0.55218 0.41138 0.36597 0.0
H92 H 0.5657 0.31064 0.58044 0.0
H93 H 0.55292 0.30937 0.26434 0.0
H94 H 0.52369 0.24134 0.38154 0.0
C95 C 0.53285 0.24475 0.45738 0.0
O96 O 0.5623 0.26835 0.44619 0.0
H97 H 0.51011 0.25662 0.49231 0.0
C98 C 0.55397 0.38173 0.38242 0.0
C99 C 0.55102 0.36268 0.3041 0.0
C100 C 0.55975 0.36344 0.48132 0.0
C101 C 0.5617 0.32506 0.50351 0.0
C102 C 0.55916 0.30534 0.42524 0.0
C103 C 0.55435 0.32435 0.32499 0.0
Co104 Co 0.06892 0.04423 0.87012 0.0
C105 C 0.9953 0.03 0.90875 0.0
Co106 Co 0.04123 1.01654 0.76085 0.0
C107 C 0.0737 0.1061 0.96181 0.0
C108 C 0.11784 0.07116 0.01004 0.0
N109 N 0.08814 0.07406 0.95231 0.0
N110 N 0.09276 0.12357 0.0232 0.0
C111 C 0.12072 0.10154 0.05383 0.0
H112 H 0.04989 0.11671 0.92171 0.0
H113 H 0.13617 0.04858 0.01946 0.0
C114 C 0.11494 0.03148 0.72276 0.0
N115 N 1.02174 0.98675 0.67817 0.0
C116 C 0.03457 0.95377 0.67037 0.0
C117 C 0.99312 0.9915 0.6163 0.0
N118 N 1.01556 0.93763 0.6057 0.0
C119 C 0.98929 0.96145 0.57159 0.0
C120 C 0.03812 0.08918 0.69777 0.0
O121 O 0.11329 0.04507 0.80151 0.0
O122 O 0.08656 1.0176 0.69194 0.0
O123 O 1.0278 0.06009 0.66977 0.0
O124 O 0.05552 0.08657 0.77901 0.0
O125 O 0.9963 1.01611 0.83023 0.0
H126 H 0.97626 1.01528 0.60411 0.0
H127 H 0.05727 0.94165 0.71327 0.0
O128 O 1.02411 0.04325 0.93854 0.0
O129 O 0.08261 1.00122 0.9604 0.0
O130 O 0.05471 0.97394 0.8527 0.0
C131 C 0.07274 0.97193 0.933 0.0
H132 H 0.1415 0.1066 0.10559 0.0
H133 H 0.96918 0.95791 0.51638 0.0
Co134 Co 0.53861 0.04179 0.86768 0.0
C135 C 0.55043 0.9662 0.9111 0.0
Co136 Co 0.56457 1.02159 0.74367 0.0
C137 C 0.47902 0.04159 -0.00197 0.0
C138 C 0.51513 0.08577 0.00971 0.0
N139 N 0.51117 0.05662 0.96564 0.0
N140 N 0.46243 0.06012 0.05995 0.0
C141 C 0.48521 0.08797 0.06781 0.0
H142 H 0.46732 1.01837 0.9724 0.0
H143 H 0.53772 0.10476 -0.00206 0.0
C144 C 0.55225 0.09742 0.70198 0.0
N145 N 0.59204 1.00641 0.64559 0.0
C146 C 0.62517 1.01941 0.61561 0.0
C147 C 0.58639 0.97806 0.59926 0.0
N148 N 0.64072 1.0003 0.55314 0.0
C149 C 0.61618 0.97428 0.54234 0.0
C150 C 0.49261 1.0186 0.72516 0.0
O151 O 0.53938 0.09022 0.79065 0.0
O152 O 0.56471 0.07127 0.66515 0.0
O153 O 0.52084 1.01122 0.68133 0.0
O154 O 0.49556 0.03208 0.80338 0.0
O155 O 0.56391 0.97251 0.82289 0.0
H156 H 0.56264 0.96061 0.60864 0.0
H157 H 0.63825 0.04154 0.64322 0.0
O158 O 0.53795 0.99289 0.94481 0.0
O159 O 0.58242 0.05174 0.93094 0.0
O160 O 0.60741 0.03159 0.80724 0.0
C161 C 0.61054 0.04443 0.88641 0.0
H162 H 0.48059 0.10856 0.11214 0.0
H163 H 0.61947 0.95386 0.49669 0.0
Co164 Co 0.58238 0.53139 0.80682 0.0
C165 C 0.54637 0.47874 0.95321 0.0
Co166 Co 0.52317 0.52961 0.79277 0.0
C167 C 0.64595 0.52967 0.92656 0.0
C168 C 0.65964 0.53131 0.77255 0.0
N169 N 0.6314 0.53171 0.83404 0.0
N170 N 0.68204 0.52732 0.9262 0.0
C171 C 0.69081 0.52875 0.82893 0.0
H172 H 0.6301 0.52981 -0.00683 0.0
H173 H 0.65764 0.53194 0.69253 0.0
C174 C 0.55944 0.58215 0.64562 0.0
N175 N 0.47395 0.52899 0.76782 0.0
C176 C 0.45764 0.52504 0.68117 0.0
C177 C 0.44692 0.53375 0.82938 0.0
N178 N 0.42152 0.52694 0.68597 0.0
C179 C 0.41477 0.5327 0.7793 0.0
C180 C 0.54596 0.58052 0.9001 0.0
O181 O 0.58795 0.56936 0.69038 0.0
O182 O 0.52933 0.56744 0.67604 0.0
O183 O 0.51778 0.56641 0.86974 0.0
O184 O 0.57633 0.56802 0.88373 0.0
O185 O 0.51762 0.49166 0.9103 0.0
H186 H 0.45039 0.53828 0.90526 0.0
H187 H 0.47212 0.52076 0.61555 0.0
O188 O 0.5762 0.49357 0.92199 0.0
O189 O 0.58791 0.49453 0.72909 0.0
O190 O 0.52925 0.49285 0.71693 0.0
C191 C 0.5595 0.48006 0.70076 0.0
H192 H 0.71772 0.52693 0.80097 0.0
H193 H 0.38865 0.53697 0.80884 0.0
Co194 Co 0.05346 0.5618 0.80358 0.0
C195 C 0.10879 0.52151 0.91756 0.0
Co196 Co 0.0544 0.50233 0.80429 0.0
C197 C 0.05513 0.61752 0.92094 0.0
C198 C 0.04806 0.64157 0.7651 0.0
N199 N 0.05253 0.60915 0.82854 0.0
N200 N 0.05204 0.65369 0.91852 0.0
C201 C 0.04778 0.66903 0.82018 0.0
H202 H 0.05843 0.59719 -0.01049 0.0
H203 H 0.04495 0.64499 0.68433 0.0
C204 C 0.99825 0.54194 0.69306 0.0
N205 N 0.05515 0.45518 0.77888 0.0
C206 C 0.05111 0.44761 0.68602 0.0
C207 C 0.05877 0.42226 0.84069 0.0
N208 N 0.05158 0.41144 0.68673 0.0
C209 C 0.05681 0.39527 0.784 0.0
C210 C 1.01191 0.51421 0.95133 0.0
O211 O 1.01165 0.57031 0.71904 0.0
O212 O 1.01427 0.51174 0.71785 0.0
O213 O 1.02228 0.48769 0.91339 0.0
O214 O 1.02326 0.54644 0.91517 0.0
O215 O 0.09448 0.4933 0.89301 0.0
H216 H 0.06246 0.41817 0.92141 0.0
H217 H 0.04845 0.46855 0.61848 0.0
O218 O 0.09476 0.55262 0.88721 0.0
O219 O 0.0843 0.57662 0.69163 0.0
O220 O 0.08683 0.51744 0.69639 0.0
C221 C 0.09754 0.54991 0.65989 0.0
H222 H 0.04503 0.69799 0.78982 0.0
H223 H 0.05864 0.36607 0.81222 0.0
C224 C 0.18005 0.03425 0.50475 0.0
C225 C 0.21305 0.0435 0.54466 0.0
C226 C 0.14869 1.0293 0.56364 0.0
C227 C 0.14909 0.03349 0.6648 0.0
H228 H 0.1783 0.03178 0.42655 0.0
H229 H 0.12377 1.02322 0.52854 0.0
S230 S 0.22982 0.05303 0.8082 0.0
N231 N 0.24502 0.05317 0.69379 0.0
N232 N 0.18632 0.04431 0.80437 0.0
C233 C 0.18237 0.04105 0.70676 0.0
C234 C 0.21427 0.0458 0.64689 0.0
C235 C 0.54987 0.17789 0.47716 0.0
C236 C 0.54182 0.20778 0.52189 0.0
C237 C 0.55445 0.14253 0.53585 0.0
C238 C 0.55107 0.13564 0.64164 0.0
H239 H 0.55157 0.18165 0.39591 0.0
H240 H 0.5595 0.12025 0.49765 0.0
S241 S 0.53457 0.20574 0.79568 0.0
N242 N 0.53395 0.22891 0.6782 0.0
N243 N 0.5423 0.16286 0.7887 0.0
C244 C 0.54478 0.16581 0.68729 0.0
C245 C 0.54035 0.20173 0.62748 0.0
C246 C 0.38241 0.53156 0.4262 0.0
C247 C 0.34812 0.51555 0.4464 0.0
C248 C 0.40594 0.5356 0.50465 0.0
C249 C 0.39607 0.52401 0.60664 0.0
H250 H 0.39135 0.54045 0.34901 0.0
H251 H 0.43211 0.54794 0.48509 0.0
S252 S 0.30826 0.48175 0.69895 0.0
N253 N 0.30463 0.48961 0.57499 0.0
N254 N 0.34888 0.49628 0.72257 0.0
C255 C 0.36133 0.50883 0.62759 0.0
C256 C 0.33736 0.50491 0.5475 0.0
C257 C 0.06805 0.34819 0.50734 0.0
C258 C 0.04561 0.36222 0.4249 0.0
C259 C 0.06928 0.36388 0.59341 0.0
C260 C 0.04831 0.39423 0.60047 0.0
H261 H 0.08508 0.32514 0.50564 0.0
H262 H 0.08743 0.35272 0.65393 0.0
S263 S 0.98288 0.43914 0.40969 0.0
N264 N 1.00061 0.40691 0.35867 0.0
N265 N 1.00251 0.43598 0.52054 0.0
C266 C 1.02509 0.40785 0.51993 0.0
C267 C 1.02386 0.39192 0.43243 0.0
C268 C 0.93067 0.04837 0.10942 0.0
C269 C 0.89661 0.04216 0.07044 0.0
C270 C 0.96217 0.04346 0.05772 0.0
C271 C 0.96113 0.03218 0.96437 0.0
H272 H 0.93303 0.05794 0.17958 0.0
H273 H 0.98759 0.04922 0.0908 0.0
S274 S 0.87845 1.01236 0.82959 0.0
N275 N 0.86356 1.02424 0.9329 0.0
N276 N 0.92265 1.01455 0.83586 0.0
C277 C 0.92717 1.02525 0.9253 0.0
C278 C 0.89501 0.03045 0.97804 0.0
C279 C 0.55237 0.86163 0.98445 0.0
C280 C 0.5389 0.85409 0.08356 0.0
C281 C 0.55694 0.89784 0.93025 0.0
C282 C 0.54793 0.92809 0.97261 0.0
H283 H 0.55855 0.83926 0.94762 0.0
H284 H 0.56676 0.90205 0.85357 0.0
S285 S 0.51281 0.9231 0.23172 0.0
N286 N 0.51763 0.87993 0.22308 0.0
N287 N 0.52602 0.94763 0.1222 0.0
C288 C 0.53519 0.92083 0.07278 0.0
C289 C 0.53069 0.884 0.12786 0.0
C290 C 0.76467 0.53427 0.08415 0.0
C291 C 0.75454 0.51442 0.18016 0.0
C292 C 0.74083 0.53855 0.00198 0.0
C293 C 0.70607 0.52279 0.01196 0.0
H294 H 0.79125 0.54649 0.07204 0.0
H295 H 0.74964 0.55446 0.93006 0.0
S296 S 0.66819 0.46423 0.24406 0.0
N297 N 0.7084 0.47652 0.27818 0.0
N298 N 0.66402 0.48388 0.12409 0.0
C299 C 0.69605 0.50197 0.10684 0.0
C300 C 0.72022 0.4978 0.19045 0.0
C301 C 0.0743 0.67298 0.17473 0.0
C302 C 0.05199 0.70231 0.18251 0.0
C303 C 0.07454 0.65774 0.08807 0.0
C304 C 0.05255 0.67123 0.00469 0.0
H305 H 0.09162 0.66144 0.23705 0.0
H306 H 0.0922 0.63516 0.08632 0.0
S307 S 0.9882 0.74704 0.98563 0.0
N308 N 1.00657 0.74397 0.09798 0.0
N309 N 1.00722 0.71524 0.93577 0.0
C310 C 1.03016 0.70068 0.01068 0.0
C311 C 1.02972 0.71617 0.09937 0.0
C312 C 1.00681 0.16478 0.48678 0.0
C313 C 1.03066 0.19391 0.49451 0.0
C314 C 1.00823 0.13121 0.55507 0.0
C315 C 0.0329 0.12598 0.6349 0.0
H316 H 0.98885 0.16702 0.42284 0.0
H317 H 0.99097 0.10884 0.54276 0.0
S318 S 0.09681 0.19579 0.69861 0.0
N319 N 0.07674 0.21664 0.5947 0.0
N320 N 0.07842 0.15444 0.72573 0.0
C321 C 0.05423 0.15619 0.64953 0.0
C322 C 0.0532 0.19007 0.57899 0.0
C323 C 0.4178 0.98303 0.57962 0.0
C324 C 0.38916 1.00614 0.59028 0.0
C325 C 0.45101 0.98655 0.62541 0.0
C326 C 0.45645 1.01258 0.6859 0.0
H327 H 0.41538 0.96413 0.52862 0.0
H328 H 0.47286 0.96962 0.61062 0.0
S329 S 0.38822 0.07532 0.75159 0.0
N330 N 0.36717 0.05305 0.67414 0.0
N331 N 0.42906 0.05865 0.76471 0.0
C332 C 0.42694 0.03327 0.70547 0.0
C333 C 0.39331 0.03013 0.65706 0.0
C334 C 0.59285 0.40933 0.55818 0.0
C335 C 0.56267 0.38611 0.55843 0.0
C336 C 0.59218 0.43906 0.60725 0.0
C337 C 0.56096 0.44702 0.65593 0.0
H338 H 0.61641 0.40565 0.51496 0.0
H339 H 0.61564 0.45689 0.60281 0.0
S340 S 0.47589 0.39235 0.68444 0.0
N341 N 0.50184 0.37131 0.61646 0.0
N342 N 0.5001 0.4271 0.70858 0.0
C343 C 0.53121 0.42278 0.66071 0.0
C344 C 0.53219 0.39232 0.61195 0.0
C345 C 0.15748 0.57966 0.43278 0.0
C346 C 0.18616 0.55518 0.45551 0.0
C347 C 0.12946 0.57968 0.50163 0.0
C348 C 0.12916 0.55476 0.59409 0.0
H349 H 0.15588 0.59762 0.35936 0.0
H350 H 0.10703 0.59765 0.48009 0.0
S351 S 0.19977 0.48837 0.69434 0.0
N352 N 0.21395 0.50797 0.58063 0.0
N353 N 0.16141 0.50791 0.70982 0.0
C354 C 0.15876 0.53194 0.62024 0.0
C355 C 0.18733 0.53221 0.55097 0.0
C356 C 0.05776 0.87222 0.04921 0.0
C357 C 0.08015 0.86728 0.13421 0.0
C358 C 0.05734 0.90567 0.98098 0.0
C359 C 0.07898 0.93549 -0.00402 0.0
H360 H 0.03807 0.85141 0.04001 0.0
H361 H 0.03798 0.90882 0.92014 0.0
S362 S 0.14873 0.93335 0.1925 0.0
N363 N 0.12972 0.89217 0.21835 0.0
N364 N 0.12798 0.95581 0.09142 0.0
C365 C 0.10422 0.92967 0.07434 0.0
C366 C 0.10516 0.89527 0.14284 0.0
C367 C 0.68661 0.07573 0.03627 0.0
C368 C 0.71422 0.05145 0.02515 0.0
C369 C 0.6533 0.07403 -0.0107 0.0
C370 C 0.64681 0.0488 0.92704 0.0
H371 H 0.68989 0.09425 0.08802 0.0
H372 H 0.6322 0.09178 0.00435 0.0
S373 S 0.71205 0.98338 0.86007 0.0
N374 N 0.73401 1.00412 0.93929 0.0
N375 N 0.6721 1.00205 0.84669 0.0
C376 C 0.67534 1.02691 0.90728 0.0
C377 C 0.709 1.02814 0.95686 0.0
C378 C 0.57502 0.66551 -0.00512 0.0
C379 C 0.5443 0.67401 0.0441 0.0
C380 C 0.57502 0.63547 0.94734 0.0
C381 C 0.54421 0.61298 0.94711 0.0
H382 H 0.59984 0.68077 -0.0014 0.0
H383 H 0.59966 0.62938 0.91251 0.0
S384 S 0.45622 0.62563 0.06088 0.0
N385 N 0.48195 0.65907 0.08679 0.0
N386 N 0.48149 0.60292 -0.00452 0.0
C387 C 0.51273 0.62247 -0.00825 0.0
C388 C 0.51291 0.65291 0.04085 0.0
C389 C 0.95924 0.53654 0.16476 0.0
C390 C 0.9298 0.51204 0.17392 0.0
C391 C 0.98661 0.53523 0.09646 0.0
C392 C 0.98563 0.5096 0.03351 0.0
H393 H 0.96086 0.55755 0.20955 0.0
H394 H 1.0083 0.55527 0.09113 0.0
S395 S 0.91505 0.43863 0.02932 0.0
N396 N 0.90164 0.46047 0.11699 0.0
N397 N 0.95335 0.45847 0.98543 0.0
C398 C 0.95686 0.48425 0.04292 0.0
C399 C 0.92871 0.48556 0.11336 0.0
C400 C 0.10331 0.2088 0.1314 0.0
C401 C 0.06759 0.21858 0.14265 0.0
C402 C 0.11148 0.17899 0.08686 0.0
C403 C 0.08419 0.15761 0.05324 0.0
H404 H 0.12478 0.22199 0.16571 0.0
H405 H 0.13927 0.17149 0.08374 0.0
S406 S 0.98627 0.1752 0.05752 0.0
N407 N 1.00515 0.20786 0.10693 0.0
N408 N 1.01969 0.15089 0.02847 0.0
C409 C 0.04846 0.16924 0.05704 0.0
C410 C 0.04043 0.20009 0.09995 0.0
C411 C 0.37633 0.07257 0.19237 0.0
C412 C 0.36507 0.03627 0.23056 0.0
C413 C 0.40705 0.0803 0.13157 0.0
C414 C 0.42772 0.05199 0.10744 0.0
H415 H 0.3636 0.09487 0.21827 0.0
H416 H 0.41579 0.10856 0.10814 0.0
S417 S 0.4067 0.95235 0.18089 0.0
N418 N 0.37421 0.97212 0.23138 0.0
N419 N 0.4324 0.98611 0.12028 0.0
C420 C 0.41471 1.0157 0.13792 0.0
C421 C 0.38312 1.00803 0.19817 0.0
C422 C 0.5159 0.40568 0.17683 0.0
C423 C 0.54698 0.38484 0.20135 0.0
C424 C 0.51527 0.43523 0.09408 0.0
C425 C 0.54602 0.44546 0.03461 0.0
H426 H 0.4926 0.40035 0.22546 0.0
H427 H 0.49117 0.45123 0.07982 0.0
S428 S 0.63312 0.39745 0.0632 0.0
N429 N 0.6082 0.37471 0.15638 0.0
N430 N 0.60749 0.43008 0.00118 0.0
C431 C 0.57666 0.42352 0.05561 0.0
C432 C 0.57702 0.39323 0.13888 0.0
C433 C 0.19237 0.55181 0.03937 0.0
C434 C 0.1973 0.52319 0.12262 0.0
C435 C 0.16483 0.54994 0.96981 0.0
C436 C 0.14142 0.51929 0.98084 0.0
H437 H 0.20796 0.577 0.03255 0.0
H438 H 0.16073 0.57351 0.90971 0.0
S439 S 0.1457 0.4356 0.18103 0.0
N440 N 0.17854 0.46226 0.20873 0.0
N441 N 0.12718 0.45832 0.07649 0.0
C442 C 0.14796 0.48925 0.05924 0.0
C443 C 0.17579 0.49136 0.13072 0.0
C444 C 1.0024 0.85453 0.48885 0.0
C445 C 0.03768 0.84283 0.48106 0.0
C446 C 0.99511 0.88414 0.53522 0.0
C447 C 1.02287 0.90345 0.57442 0.0
H448 H 0.98079 0.84303 0.45072 0.0
H449 H 0.96772 0.89317 0.53546 0.0
S450 S 0.11965 0.88023 0.58105 0.0
N451 N 0.09997 0.84954 0.52574 0.0
N452 N 0.08711 0.90597 0.60834 0.0
C453 C 0.05796 0.88983 0.57403 0.0
C454 C 0.06508 0.85923 0.52889 0.0
C455 C 0.72507 0.98271 0.4195 0.0
C456 C 0.73901 1.01823 0.38429 0.0
C457 C 0.69419 0.97677 0.48014 0.0
C458 C 0.67596 1.00616 0.50725 0.0
H459 H 0.73575 0.95991 0.39117 0.0
H460 H 0.68335 0.94917 0.5009 0.0
S461 S 0.70505 0.104 0.44416 0.0
N462 N 0.73534 0.08246 0.39063 0.0
N463 N 0.67694 0.07191 0.50172 0.0
C464 C 0.69185 0.0414 0.48041 0.0
C465 C 0.72359 0.04721 0.42015 0.0
C466 C 0.52724 0.66272 0.4486 0.0
C467 C 0.55894 0.67737 0.39989 0.0
C468 C 0.52791 0.63243 0.52887 0.0
C469 C 0.56034 0.61535 0.56334 0.0
H470 H 0.50152 0.67332 0.42021 0.0
H471 H 0.50255 0.62171 0.56201 0.0
S472 S 0.65103 0.64482 0.46317 0.0
N473 N 0.62368 0.6738 0.3931 0.0
N474 N 0.62532 0.61713 0.54517 0.0
C475 C 0.59246 0.63095 0.5181 0.0
C476 C 0.59165 0.66185 0.43609 0.0
C477 C 0.92491 0.57082 0.49924 0.0
C478 C 0.90508 0.53792 0.50448 0.0
C479 C 0.95366 0.57317 0.56546 0.0
C480 C 0.96378 0.54243 0.63769 0.0
H481 H 0.92039 0.59372 0.43748 0.0
H482 H 0.96974 0.59815 0.5546 0.0
S483 S 0.91671 0.4519 0.69182 0.0
N484 N 0.89478 0.47571 0.595 0.0
N485 N 0.94831 0.47979 0.7199 0.0
C486 C 0.94194 0.51055 0.64951 0.0
C487 C 0.91265 0.50839 0.58287 0.0
loop_
_geom_bond_atom_site_label_1
_geom_bond_atom_site_label_2
_geom_bond_distance
_geom_bond_site_symmetry_2
_ccdc_geom_bond_type
H0 C7 0.929 . S
H1 C10 0.930 . S
H2 C12 0.929 . S
H3 C4 0.969 . S
C4 H3 0.969 . S
C4 O5 1.550 . S
C4 H6 0.973 . S
O5 C4 1.550 . S
O5 C11 1.412 . S
H6 C4 0.973 . S
C7 H0 0.929 . S
C7 C8 1.400 . S
C7 C9 1.364 . S
C8 C7 1.400 . S
C8 C12 1.377 . S
C9 C7 1.364 . S
C9 C10 1.374 . S
C10 H1 0.930 . S
C10 C9 1.374 . S
C10 C11 1.383 . S
C11 O5 1.412 . S
C11 C10 1.383 . S
C11 C12 1.394 . S
C12 H2 0.929 . S
C12 C8 1.377 . S
C12 C11 1.394 . S
H13 C20 0.929 . S
H14 C23 0.930 1_556 S
H15 C25 0.929 . S
H16 C17 0.969 . S
C17 H16 0.969 . S
C17 O18 1.550 . S
C17 H19 0.973 1_554 S
O18 C17 1.550 . S
O18 C24 1.412 . S
H19 C17 0.973 1_556 S
C20 H13 0.929 . S
C20 C21 1.400 . S
C20 C22 1.364 . S
C21 C20 1.400 . S
C21 C25 1.377 . S
C22 C20 1.364 . S
C22 C23 1.374 . S
C23 H14 0.930 1_554 S
C23 C22 1.374 . S
C23 C24 1.383 . S
C24 O18 1.412 . S
C24 C23 1.383 . S
C24 C25 1.394 . S
C25 H15 0.929 . S
C25 C21 1.377 . S
C25 C24 1.394 . S
H26 C33 0.929 1_565 S
H27 C36 0.932 . S
H28 C38 0.931 1_565 S
H29 C30 0.969 . S
C30 H29 0.969 . S
C30 O31 1.550 1_546 S
C30 H32 0.973 1_545 S
O31 C30 1.550 1_564 S
O31 C37 1.403 1_565 S
H32 C30 0.973 1_565 S
C33 H26 0.929 1_545 S
C33 C34 1.397 . S
C33 C35 1.359 1_554 S
C34 C33 1.397 . S
C34 C38 1.376 . S
C35 C33 1.359 1_556 S
C35 C36 1.375 1_545 S
C36 H27 0.932 . S
C36 C35 1.375 1_565 S
C36 C37 1.377 1_566 S
C37 O31 1.403 1_545 S
C37 C36 1.377 1_544 S
C37 C38 1.400 . S
C38 H28 0.931 1_545 S
C38 C34 1.376 . S
C38 C37 1.400 . S
H39 C46 0.929 . S
H40 C49 0.930 . S
H41 C51 0.929 . S
H42 C43 0.969 . S
C43 H42 0.969 . S
C43 O44 1.550 . S
C43 H45 0.973 1_554 S
O44 C43 1.550 . S
O44 C50 1.412 . S
H45 C43 0.973 1_556 S
C46 H39 0.929 . S
C46 C47 1.400 . S
C46 C48 1.364 . S
C47 C46 1.400 . S
C47 C51 1.377 . S
C48 C46 1.364 . S
C48 C49 1.374 . S
C49 H40 0.930 . S
C49 C48 1.374 . S
C49 C50 1.383 . S
C50 O44 1.412 . S
C50 C49 1.383 . S
C50 C51 1.394 . S
C51 H41 0.929 . S
C51 C47 1.377 . S
C51 C50 1.394 . S
H52 C59 0.929 . S
H53 C62 0.930 . S
H54 C64 0.929 . S
H55 C56 0.969 . S
C56 H55 0.969 . S
C56 O57 1.550 . S
C56 H58 0.973 . S
O57 C56 1.550 . S
O57 C63 1.412 . S
H58 C56 0.973 . S
C59 H52 0.929 . S
C59 C60 1.400 . S
C59 C61 1.364 . S
C60 C59 1.400 . S
C60 C64 1.377 . S
C61 C59 1.364 . S
C61 C62 1.374 . S
C62 H53 0.930 . S
C62 C61 1.374 . S
C62 C63 1.383 . S
C63 O57 1.412 . S
C63 C62 1.383 . S
C63 C64 1.394 . S
C64 H54 0.929 . S
C64 C60 1.377 . S
C64 C63 1.394 . S
H65 C72 0.929 . S
H66 C75 0.930 . S
H67 C77 0.929 . S
H68 C69 0.969 . S
C69 H68 0.969 . S
C69 O70 1.550 . S
C69 H71 0.973 . S
O70 C69 1.550 . S
O70 C76 1.412 . S
H71 C69 0.973 . S
C72 H65 0.929 . S
C72 C73 1.400 . S
C72 C74 1.364 . S
C73 C72 1.400 . S
C73 C77 1.377 . S
C74 C72 1.364 . S
C74 C75 1.374 . S
C75 H66 0.930 . S
C75 C74 1.374 . S
C75 C76 1.383 . S
C76 O70 1.412 . S
C76 C75 1.383 . S
C76 C77 1.394 . S
C77 H67 0.929 . S
C77 C73 1.377 . S
C77 C76 1.394 . S
H78 C85 0.928 1_565 S
H79 C88 0.930 . S
H80 C90 0.925 1_565 S
H81 C82 0.969 . S
C82 H81 0.969 . S
C82 O83 1.550 1_545 S
C82 H84 0.973 1_545 S
O83 C82 1.550 1_565 S
O83 C89 1.412 1_565 S
H84 C82 0.973 1_565 S
C85 H78 0.928 1_545 S
C85 C86 1.402 . S
C85 C87 1.363 . S
C86 C85 1.402 . S
C86 C90 1.378 . S
C87 C85 1.363 . S
C87 C88 1.375 1_545 S
C88 H79 0.930 . S
C88 C87 1.375 1_565 S
C88 C89 1.383 1_565 S
C89 O83 1.412 1_545 S
C89 C88 1.383 1_545 S
C89 C90 1.396 . S
C90 H80 0.925 1_545 S
C90 C86 1.378 . S
C90 C89 1.396 . S
H91 C98 0.929 . S
H92 C101 0.930 . S
H93 C103 0.929 . S
H94 C95 0.969 . S
C95 H94 0.969 . S
C95 O96 1.550 . S
C95 H97 0.973 . S
O96 C95 1.550 . S
O96 C102 1.412 . S
H97 C95 0.973 . S
C98 H91 0.929 . S
C98 C99 1.400 . S
C98 C100 1.364 . S
C99 C98 1.400 . S
C99 C103 1.377 . S
C100 C98 1.364 . S
C100 C101 1.374 . S
C101 H92 0.930 . S
C101 C100 1.374 . S
C101 C102 1.383 . S
C102 O96 1.412 . S
C102 C101 1.383 . S
C102 C103 1.394 . S
C103 H93 0.929 . S
C103 C99 1.377 . S
C103 C102 1.394 . S
Co104 N109 2.057 1_556 S
Co104 O121 2.021 . S
Co104 O124 2.062 . S
Co104 O128 2.117 1_455 S
Co104 O129 2.020 1_545 S
C105 O125 1.259 1_545 S
C105 O128 1.258 . S
Co106 N115 2.057 . S
Co106 O122 2.117 . S
Co106 O123 2.020 1_565 S
Co106 O125 2.021 1_455 S
Co106 O130 2.062 . S
C107 N109 1.316 . S
C107 N110 1.347 . S
C107 H112 0.931 . S
C108 N109 1.375 . S
C108 C111 1.350 . S
C108 H113 0.930 1_455 S
N109 Co104 2.057 1_554 S
N109 C107 1.316 . S
N109 C108 1.375 . S
N110 C107 1.347 . S
N110 C111 1.373 . S
C111 C108 1.350 . S
C111 N110 1.373 . S
C111 H132 0.931 . S
H112 C107 0.931 . S
H113 C108 0.930 1_655 S
C114 O121 1.259 1_565 S
C114 O122 1.258 . S
N115 Co106 2.057 . S
N115 C116 1.316 1_455 S
N115 C117 1.375 . S
C116 N115 1.316 1_655 S
C116 N118 1.347 . S
C116 H127 0.931 . S
C117 N115 1.375 . S
C117 C119 1.350 . S
C117 H126 0.930 . S
N118 C116 1.347 . S
N118 C119 1.373 1_655 S
C119 C117 1.350 . S
C119 N118 1.373 1_455 S
C119 H133 0.931 . S
C120 O123 1.256 . S
C120 O124 1.255 . S
O121 Co104 2.021 . S
O121 C114 1.259 1_545 S
O122 Co106 2.117 . S
O122 C114 1.258 . S
O123 Co106 2.020 1_545 S
O123 C120 1.256 . S
O124 Co104 2.062 . S
O124 C120 1.255 . S
O125 C105 1.259 1_565 S
O125 Co106 2.021 1_655 S
H126 C117 0.930 . S
H127 C116 0.931 . S
O128 Co104 2.117 1_655 S
O128 C105 1.258 . S
O129 Co104 2.020 1_565 S
O129 C131 1.256 . S
O130 Co106 2.062 . S
O130 C131 1.255 . S
C131 O129 1.256 . S
C131 O130 1.255 . S
H132 C111 0.931 . S
H133 C119 0.931 . S
Co134 N139 2.057 1_546 S
Co134 O151 2.021 . S
Co134 O154 2.062 . S
Co134 O158 2.117 1_545 S
Co134 O159 2.020 . S
C135 O155 1.259 . S
C135 O158 1.258 . S
Co136 N145 2.057 1_565 S
Co136 O152 2.117 1_565 S
Co136 O153 2.020 . S
Co136 O155 2.021 . S
Co136 O160 2.062 . S
C137 N139 1.316 1_545 S
C137 N140 1.347 . S
C137 H142 0.931 . S
C138 N139 1.375 . S
C138 C141 1.350 . S
C138 H143 0.930 . S
N139 Co134 2.057 1_564 S
N139 C137 1.316 1_565 S
N139 C138 1.375 . S
N140 C137 1.347 . S
N140 C141 1.373 1_545 S
C141 C138 1.350 . S
C141 N140 1.373 1_565 S
C141 H162 0.931 . S
H142 C137 0.931 . S
H143 C138 0.930 . S
C144 O151 1.259 . S
C144 O152 1.258 . S
N145 Co136 2.057 1_545 S
N145 C146 1.316 1_545 S
N145 C147 1.375 . S
C146 N145 1.316 1_565 S
C146 N148 1.347 . S
C146 H157 0.931 . S
C147 N145 1.375 . S
C147 C149 1.350 . S
C147 H156 0.930 . S
N148 C146 1.347 . S
N148 C149 1.373 1_565 S
C149 C147 1.350 . S
C149 N148 1.373 1_545 S
C149 H163 0.931 . S
C150 O153 1.256 . S
C150 O154 1.255 1_565 S
O151 Co134 2.021 . S
O151 C144 1.259 . S
O152 Co136 2.117 1_545 S
O152 C144 1.258 . S
O153 Co136 2.020 . S
O153 C150 1.256 . S
O154 Co134 2.062 . S
O154 C150 1.255 1_545 S
O155 C135 1.259 . S
O155 Co136 2.021 . S
H156 C147 0.930 . S
H157 C146 0.931 . S
O158 Co134 2.117 1_565 S
O158 C135 1.258 . S
O159 Co134 2.020 . S
O159 C161 1.256 . S
O160 Co136 2.062 . S
O160 C161 1.255 1_565 S
C161 O159 1.256 . S
C161 O160 1.255 1_545 S
H162 C141 0.931 . S
H163 C149 0.931 . S
Co164 N169 2.057 . S
Co164 O181 2.021 . S
Co164 O184 2.062 . S
Co164 O188 2.117 . S
Co164 O189 2.020 . S
C165 O185 1.259 . S
C165 O188 1.258 . S
Co166 N175 2.057 . S
Co166 O182 2.117 . S
Co166 O183 2.020 . S
Co166 O185 2.021 . S
Co166 O190 2.062 . S
C167 N169 1.316 . S
C167 N170 1.347 . S
C167 H172 0.931 . S
C168 N169 1.375 . S
C168 C171 1.350 1_556 S
C168 H173 0.930 1_556 S
N169 Co164 2.057 . S
N169 C167 1.316 . S
N169 C168 1.375 . S
N170 C167 1.347 . S
N170 C171 1.373 1_556 S
C171 C168 1.350 1_554 S
C171 N170 1.373 1_554 S
C171 H192 0.931 . S
H172 C167 0.931 . S
H173 C168 0.930 1_554 S
C174 O181 1.259 . S
C174 O182 1.258 . S
N175 Co166 2.057 . S
N175 C176 1.316 . S
N175 C177 1.375 . S
C176 N175 1.316 . S
C176 N178 1.347 . S
C176 H187 0.931 . S
C177 N175 1.375 . S
C177 C179 1.350 . S
C177 H186 0.930 . S
N178 C176 1.347 . S
N178 C179 1.373 . S
C179 C177 1.350 . S
C179 N178 1.373 . S
C179 H193 0.931 . S
C180 O183 1.256 . S
C180 O184 1.255 . S
O181 Co164 2.021 . S
O181 C174 1.259 . S
O182 Co166 2.117 . S
O182 C174 1.258 . S
O183 Co166 2.020 . S
O183 C180 1.256 . S
O184 Co164 2.062 . S
O184 C180 1.255 . S
O185 C165 1.259 . S
O185 Co166 2.021 . S
H186 C177 0.930 . S
H187 C176 0.931 . S
O188 Co164 2.117 . S
O188 C165 1.258 . S
O189 Co164 2.020 . S
O189 C191 1.256 . S
O190 Co166 2.062 . S
O190 C191 1.255 . S
C191 O189 1.256 . S
C191 O190 1.255 . S
H192 C171 0.931 . S
H193 C179 0.931 . S
Co194 N199 2.057 . S
Co194 O211 2.021 1_455 S
Co194 O214 2.062 1_455 S
Co194 O218 2.117 . S
Co194 O219 2.020 . S
C195 O215 1.259 . S
C195 O218 1.258 . S
Co196 N205 2.057 . S
Co196 O212 2.117 1_455 S
Co196 O213 2.020 1_455 S
Co196 O215 2.021 . S
Co196 O220 2.062 . S
C197 N199 1.316 . S
C197 N200 1.347 . S
C197 H202 0.931 1_455 S
C198 N199 1.375 . S
C198 C201 1.350 . S
C198 H203 0.930 . S
N199 Co194 2.057 . S
N199 C197 1.316 . S
N199 C198 1.375 . S
N200 C197 1.347 . S
N200 C201 1.373 . S
C201 C198 1.350 . S
C201 N200 1.373 . S
C201 H222 0.931 . S
H202 C197 0.931 1_655 S
H203 C198 0.930 . S
C204 O211 1.259 . S
C204 O212 1.258 . S
N205 Co196 2.057 . S
N205 C206 1.316 . S
N205 C207 1.375 1_455 S
C206 N205 1.316 . S
C206 N208 1.347 . S
C206 H217 0.931 . S
C207 N205 1.375 1_655 S
C207 C209 1.350 1_655 S
C207 H216 0.930 . S
N208 C206 1.347 . S
N208 C209 1.373 . S
C209 C207 1.350 1_455 S
C209 N208 1.373 . S
C209 H223 0.931 1_455 S
C210 O213 1.256 . S
C210 O214 1.255 . S
O211 Co194 2.021 1_655 S
O211 C204 1.259 . S
O212 Co196 2.117 1_655 S
O212 C204 1.258 . S
O213 Co196 2.020 1_655 S
O213 C210 1.256 . S
O214 Co194 2.062 1_655 S
O214 C210 1.255 . S
O215 C195 1.259 . S
O215 Co196 2.021 . S
H216 C207 0.930 . S
H217 C206 0.931 . S
O218 Co194 2.117 . S
O218 C195 1.258 . S
O219 Co194 2.020 . S
O219 C221 1.256 . S
O220 Co196 2.062 . S
O220 C221 1.255 . S
C221 O219 1.256 . S
C221 O220 1.255 . S
H222 C201 0.931 . S
H223 C209 0.931 1_655 S
C224 C225 1.369 . S
C224 C226 1.419 . S
C224 H228 0.930 . S
C225 C224 1.369 . S
C225 C234 1.429 1_565 S
C226 C224 1.419 . S
C226 C227 1.363 . S
C226 H229 0.929 . S
C227 C226 1.363 . S
C227 C233 1.428 1_565 S
H228 C224 0.930 . S
H229 C226 0.929 . S
S230 N231 1.613 . S
S230 N232 1.610 . S
N231 S230 1.613 . S
N231 C234 1.350 . S
N232 S230 1.610 . S
N232 C233 1.351 . S
C233 C227 1.428 1_545 S
C233 N232 1.351 . S
C233 C234 1.434 . S
C234 C225 1.429 1_545 S
C234 N231 1.350 . S
C234 C233 1.434 . S
C235 C236 1.369 . S
C235 C237 1.419 . S
C235 H239 0.930 . S
C236 C235 1.369 . S
C236 C245 1.429 . S
C237 C235 1.419 . S
C237 C238 1.363 . S
C237 H240 0.929 . S
C238 C237 1.363 . S
C238 C244 1.428 . S
H239 C235 0.930 . S
H240 C237 0.929 . S
S241 N242 1.613 . S
S241 N243 1.610 . S
N242 S241 1.613 . S
N242 C245 1.350 . S
N243 S241 1.610 . S
N243 C244 1.351 . S
C244 C238 1.428 . S
C244 N243 1.351 . S
C244 C245 1.434 . S
C245 C236 1.429 . S
C245 N242 1.350 . S
C245 C244 1.434 . S
C246 C247 1.369 . S
C246 C248 1.419 . S
C246 H250 0.930 . S
C247 C246 1.369 . S
C247 C256 1.429 . S
C248 C246 1.419 . S
C248 C249 1.363 . S
C248 H251 0.929 . S
C249 C248 1.363 . S
C249 C255 1.428 . S
H250 C246 0.930 . S
H251 C248 0.929 . S
S252 N253 1.613 . S
S252 N254 1.610 . S
N253 S252 1.613 . S
N253 C256 1.350 . S
N254 S252 1.610 . S
N254 C255 1.351 . S
C255 C249 1.428 . S
C255 N254 1.351 . S
C255 C256 1.434 . S
C256 C247 1.429 . S
C256 N253 1.350 . S
C256 C255 1.434 . S
C257 C258 1.369 . S
C257 C259 1.419 . S
C257 H261 0.930 . S
C258 C257 1.369 . S
C258 C267 1.429 . S
C259 C257 1.419 . S
C259 C260 1.363 . S
C259 H262 0.929 . S
C260 C259 1.363 . S
C260 C266 1.428 . S
H261 C257 0.930 . S
H262 C259 0.929 . S
S263 N264 1.613 . S
S263 N265 1.610 . S
N264 S263 1.613 . S
N264 C267 1.350 . S
N265 S263 1.610 . S
N265 C266 1.351 . S
C266 C260 1.428 . S
C266 N265 1.351 . S
C266 C267 1.434 . S
C267 C258 1.429 . S
C267 N264 1.350 . S
C267 C266 1.434 . S
C268 C269 1.369 1_564 S
C268 C270 1.419 1_554 S
C268 H272 0.930 . S
C269 C268 1.369 1_546 S
C269 C278 1.429 . S
C270 C268 1.419 1_556 S
C270 C271 1.363 1_565 S
C270 H273 0.929 1_556 S
C271 C270 1.363 1_545 S
C271 C277 1.428 . S
H272 C268 0.930 . S
H273 C270 0.929 1_554 S
S274 N275 1.613 . S
S274 N276 1.610 . S
N275 S274 1.613 . S
N275 C278 1.350 . S
N276 S274 1.610 . S
N276 C277 1.351 . S
C277 C271 1.428 . S
C277 N276 1.351 . S
C277 C278 1.434 . S
C278 C269 1.429 . S
C278 N275 1.350 . S
C278 C277 1.434 . S
C279 C280 1.369 1_556 S
C279 C281 1.419 . S
C279 H283 0.930 1_556 S
C280 C279 1.369 1_554 S
C280 C289 1.429 1_554 S
C281 C279 1.419 . S
C281 C282 1.363 . S
C281 H284 0.929 . S
C282 C281 1.363 . S
C282 C288 1.428 . S
H283 C279 0.930 1_554 S
H284 C281 0.929 . S
S285 N286 1.613 . S
S285 N287 1.610 . S
N286 S285 1.613 . S
N286 C289 1.350 . S
N287 S285 1.610 . S
N287 C288 1.351 . S
C288 C282 1.428 . S
C288 N287 1.351 . S
C288 C289 1.434 . S
C289 C280 1.429 1_556 S
C289 N286 1.350 . S
C289 C288 1.434 . S
C290 C291 1.369 1_556 S
C290 C292 1.419 . S
C290 H294 0.930 . S
C291 C290 1.369 1_554 S
C291 C300 1.429 . S
C292 C290 1.419 . S
C292 C293 1.363 . S
C292 H295 0.929 . S
C293 C292 1.363 . S
C293 C299 1.428 1_556 S
H294 C290 0.930 . S
H295 C292 0.929 . S
S296 N297 1.613 . S
S296 N298 1.610 . S
N297 S296 1.613 . S
N297 C300 1.350 . S
N298 S296 1.610 . S
N298 C299 1.351 . S
C299 C293 1.428 1_554 S
C299 N298 1.351 . S
C299 C300 1.434 . S
C300 C291 1.429 . S
C300 N297 1.350 . S
C300 C299 1.434 . S
C301 C302 1.362 1_455 S
C301 C303 1.422 1_554 S
C301 H305 0.935 . S
C302 C301 1.362 1_655 S
C302 C311 1.429 1_554 S
C303 C301 1.422 1_556 S
C303 C304 1.363 1_455 S
C303 H306 0.929 . S
C304 C303 1.363 1_655 S
C304 C310 1.428 . S
H305 C301 0.935 . S
H306 C303 0.929 . S
S307 N308 1.613 . S
S307 N309 1.610 . S
N308 S307 1.613 . S
N308 C311 1.350 . S
N309 S307 1.610 . S
N309 C310 1.351 . S
C310 C304 1.428 . S
C310 N309 1.351 . S
C310 C311 1.434 . S
C311 C302 1.429 1_556 S
C311 N308 1.350 . S
C311 C310 1.434 . S
C312 C313 1.369 . S
C312 C314 1.419 . S
C312 H316 0.930 . S
C313 C312 1.369 . S
C313 C322 1.429 . S
C314 C312 1.419 . S
C314 C315 1.363 . S
C314 H317 0.929 . S
C315 C314 1.363 . S
C315 C321 1.428 . S
H316 C312 0.930 . S
H317 C314 0.929 . S
S318 N319 1.613 . S
S318 N320 1.610 . S
N319 S318 1.613 . S
N319 C322 1.350 . S
N320 S318 1.610 . S
N320 C321 1.351 . S
C321 C315 1.428 . S
C321 N320 1.351 . S
C321 C322 1.434 . S
C322 C313 1.429 . S
C322 N319 1.350 . S
C322 C321 1.434 . S
C323 C324 1.375 . S
C323 C325 1.419 . S
C323 H327 0.930 . S
C324 C323 1.375 . S
C324 C333 1.423 1_565 S
C325 C323 1.419 . S
C325 C326 1.363 . S
C325 H328 0.929 . S
C326 C325 1.363 . S
C326 C332 1.428 1_565 S
H327 C323 0.930 . S
H328 C325 0.929 . S
S329 N330 1.613 . S
S329 N331 1.610 . S
N330 S329 1.613 . S
N330 C333 1.350 . S
N331 S329 1.610 . S
N331 C332 1.351 . S
C332 C326 1.428 1_545 S
C332 N331 1.351 . S
C332 C333 1.434 . S
C333 C324 1.423 1_545 S
C333 N330 1.350 . S
C333 C332 1.434 . S
C334 C335 1.369 . S
C334 C336 1.419 . S
C334 H338 0.930 . S
C335 C334 1.369 . S
C335 C344 1.429 . S
C336 C334 1.419 . S
C336 C337 1.363 . S
C336 H339 0.929 . S
C337 C336 1.363 . S
C337 C343 1.428 . S
H338 C334 0.930 . S
H339 C336 0.929 . S
S340 N341 1.613 . S
S340 N342 1.610 . S
N341 S340 1.613 . S
N341 C344 1.350 . S
N342 S340 1.610 . S
N342 C343 1.351 . S
C343 C337 1.428 . S
C343 N342 1.351 . S
C343 C344 1.434 . S
C344 C335 1.429 . S
C344 N341 1.350 . S
C344 C343 1.434 . S
C345 C346 1.369 . S
C345 C347 1.419 . S
C345 H349 0.930 . S
C346 C345 1.369 . S
C346 C355 1.429 . S
C347 C345 1.419 . S
C347 C348 1.363 . S
C347 H350 0.929 . S
C348 C347 1.363 . S
C348 C354 1.428 . S
H349 C345 0.930 . S
H350 C347 0.929 . S
S351 N352 1.613 . S
S351 N353 1.610 . S
N352 S351 1.613 . S
N352 C355 1.350 . S
N353 S351 1.610 . S
N353 C354 1.351 . S
C354 C348 1.428 . S
C354 N353 1.351 . S
C354 C355 1.434 . S
C355 C346 1.429 . S
C355 N352 1.350 . S
C355 C354 1.434 . S
C356 C357 1.369 . S
C356 C358 1.401 1_655 S
C356 H360 0.930 . S
C357 C356 1.369 . S
C357 C366 1.429 1_556 S
C358 C356 1.401 1_455 S
C358 C359 1.371 . S
C358 H361 0.940 . S
C359 C358 1.371 . S
C359 C365 1.428 1_456 S
H360 C356 0.930 . S
H361 C358 0.940 . S
S362 N363 1.613 . S
S362 N364 1.609 . S
N363 S362 1.613 . S
N363 C366 1.350 . S
N364 S362 1.609 . S
N364 C365 1.351 . S
C365 C359 1.428 1_654 S
C365 N364 1.351 . S
C365 C366 1.434 . S
C366 C357 1.429 1_554 S
C366 N363 1.350 . S
C366 C365 1.434 . S
C367 C368 1.375 . S
C367 C369 1.419 . S
C367 H371 0.930 . S
C368 C367 1.375 . S
C368 C377 1.424 1_546 S
C369 C367 1.419 . S
C369 C370 1.363 . S
C369 H372 0.929 . S
C370 C369 1.363 . S
C370 C376 1.428 1_545 S
H371 C367 0.930 . S
H372 C369 0.929 . S
S373 N374 1.613 . S
S373 N375 1.610 . S
N374 S373 1.613 . S
N374 C377 1.350 . S
N375 S373 1.610 . S
N375 C376 1.351 1_554 S
C376 C370 1.428 1_565 S
C376 N375 1.351 1_556 S
C376 C377 1.434 1_556 S
C377 C368 1.424 1_564 S
C377 N374 1.350 . S
C377 C376 1.434 1_554 S
C378 C379 1.369 . S
C378 C380 1.419 . S
C378 H382 0.930 . S
C379 C378 1.369 . S
C379 C388 1.429 1_554 S
C380 C378 1.419 . S
C380 C381 1.363 1_554 S
C380 H383 0.929 . S
C381 C380 1.363 1_556 S
C381 C387 1.428 . S
H382 C378 0.930 . S
H383 C380 0.929 . S
S384 N385 1.613 . S
S384 N386 1.610 . S
N385 S384 1.613 . S
N385 C388 1.350 . S
N386 S384 1.610 . S
N386 C387 1.351 . S
C387 C381 1.428 . S
C387 N386 1.351 . S
C387 C388 1.434 . S
C388 C379 1.429 1_556 S
C388 N385 1.350 . S
C388 C387 1.434 . S
C389 C390 1.369 . S
C389 C391 1.419 . S
C389 H393 0.930 . S
C390 C389 1.369 . S
C390 C399 1.429 . S
C391 C389 1.419 . S
C391 C392 1.363 1_554 S
C391 H394 0.929 1_554 S
C392 C391 1.363 1_556 S
C392 C398 1.428 1_556 S
H393 C389 0.930 . S
H394 C391 0.929 1_556 S
S395 N396 1.613 . S
S395 N397 1.610 . S
N396 S395 1.613 . S
N396 C399 1.350 . S
N397 S395 1.610 . S
N397 C398 1.351 . S
C398 C392 1.428 1_554 S
C398 N397 1.351 . S
C398 C399 1.434 . S
C399 C390 1.429 . S
C399 N396 1.350 . S
C399 C398 1.434 . S
C400 C401 1.369 . S
C400 C402 1.419 . S
C400 H404 0.930 . S
C401 C400 1.369 . S
C401 C410 1.429 . S
C402 C400 1.419 . S
C402 C403 1.363 . S
C402 H405 0.929 . S
C403 C402 1.363 . S
C403 C409 1.428 . S
H404 C400 0.930 . S
H405 C402 0.929 . S
S406 N407 1.613 . S
S406 N408 1.610 . S
N407 S406 1.613 . S
N407 C410 1.350 . S
N408 S406 1.610 . S
N408 C409 1.351 . S
C409 C403 1.428 . S
C409 N408 1.351 . S
C409 C410 1.434 . S
C410 C401 1.429 . S
C410 N407 1.350 . S
C410 C409 1.434 . S
C411 C412 1.369 . S
C411 C413 1.419 . S
C411 H415 0.930 . S
C412 C411 1.369 . S
C412 C421 1.429 . S
C413 C411 1.419 . S
C413 C414 1.363 . S
C413 H416 0.929 . S
C414 C413 1.363 . S
C414 C420 1.428 . S
H415 C411 0.930 . S
H416 C413 0.929 . S
S417 N418 1.614 1_545 S
S417 N419 1.611 . S
N418 S417 1.614 1_565 S
N418 C421 1.350 1_565 S
N419 S417 1.611 . S
N419 C420 1.351 . S
C420 C414 1.428 . S
C420 N419 1.351 . S
C420 C421 1.434 . S
C421 C412 1.429 . S
C421 N418 1.350 1_545 S
C421 C420 1.434 . S
C422 C423 1.369 . S
C422 C424 1.419 . S
C422 H426 0.930 . S
C423 C422 1.369 . S
C423 C432 1.429 . S
C424 C422 1.419 . S
C424 C425 1.363 . S
C424 H427 0.929 . S
C425 C424 1.363 . S
C425 C431 1.428 . S
H426 C422 0.930 . S
H427 C424 0.929 . S
S428 N429 1.613 . S
S428 N430 1.610 . S
N429 S428 1.613 . S
N429 C432 1.350 . S
N430 S428 1.610 . S
N430 C431 1.351 . S
C431 C425 1.428 . S
C431 N430 1.351 . S
C431 C432 1.434 . S
C432 C423 1.429 . S
C432 N429 1.350 . S
C432 C431 1.434 . S
C433 C434 1.369 . S
C433 C435 1.419 . S
C433 H437 0.930 . S
C434 C433 1.369 . S
C434 C443 1.429 . S
C435 C433 1.419 . S
C435 C436 1.363 . S
C435 H438 0.929 1_554 S
C436 C435 1.363 . S
C436 C442 1.428 . S
H437 C433 0.930 . S
H438 C435 0.929 1_556 S
S439 N440 1.613 . S
S439 N441 1.610 . S
N440 S439 1.613 . S
N440 C443 1.350 . S
N441 S439 1.610 . S
N441 C442 1.351 . S
C442 C436 1.428 . S
C442 N441 1.351 . S
C442 C443 1.434 . S
C443 C434 1.429 . S
C443 N440 1.350 . S
C443 C442 1.434 . S
C444 C445 1.369 . S
C444 C446 1.419 . S
C444 H448 0.930 . S
C445 C444 1.369 . S
C445 C454 1.429 . S
C446 C444 1.419 . S
C446 C447 1.363 . S
C446 H449 0.929 . S
C447 C446 1.363 . S
C447 C453 1.428 1_655 S
H448 C444 0.930 . S
H449 C446 0.929 . S
S450 N451 1.613 . S
S450 N452 1.610 . S
N451 S450 1.613 . S
N451 C454 1.350 1_455 S
N452 S450 1.610 . S
N452 C453 1.351 . S
C453 C447 1.428 1_455 S
C453 N452 1.351 . S
C453 C454 1.434 1_455 S
C454 C445 1.429 . S
C454 N451 1.350 1_655 S
C454 C453 1.434 1_655 S
C455 C456 1.369 . S
C455 C457 1.419 . S
C455 H459 0.930 . S
C456 C455 1.369 . S
C456 C465 1.429 1_565 S
C457 C455 1.419 . S
C457 C458 1.363 . S
C457 H460 0.929 . S
C458 C457 1.363 . S
C458 C464 1.428 1_565 S
H459 C455 0.930 . S
H460 C457 0.929 . S
S461 N462 1.613 . S
S461 N463 1.610 . S
N462 S461 1.613 . S
N462 C465 1.350 . S
N463 S461 1.610 . S
N463 C464 1.351 . S
C464 C458 1.428 1_545 S
C464 N463 1.351 . S
C464 C465 1.434 . S
C465 C456 1.429 1_545 S
C465 N462 1.350 . S
C465 C464 1.434 . S
C466 C467 1.369 . S
C466 C468 1.419 . S
C466 H470 0.930 . S
C467 C466 1.369 . S
C467 C476 1.429 . S
C468 C466 1.419 . S
C468 C469 1.363 . S
C468 H471 0.929 . S
C469 C468 1.363 . S
C469 C475 1.428 . S
H470 C466 0.930 . S
H471 C468 0.929 . S
S472 N473 1.613 . S
S472 N474 1.610 . S
N473 S472 1.613 . S
N473 C476 1.350 . S
N474 S472 1.610 . S
N474 C475 1.351 . S
C475 C469 1.428 . S
C475 N474 1.351 . S
C475 C476 1.434 . S
C476 C467 1.429 . S
C476 N473 1.350 . S
C476 C475 1.434 . S
C477 C478 1.369 . S
C477 C479 1.419 . S
C477 H481 0.930 . S
C478 C477 1.369 . S
C478 C487 1.429 . S
C479 C477 1.419 . S
C479 C480 1.363 . S
C479 H482 0.929 . S
C480 C479 1.363 . S
C480 C486 1.428 . S
H481 C477 0.930 . S
H482 C479 0.929 . S
S483 N484 1.613 . S
S483 N485 1.610 . S
N484 S483 1.613 . S
N484 C487 1.350 . S
N485 S483 1.610 . S
N485 C486 1.351 . S
C486 C480 1.428 . S
C486 N485 1.351 . S
C486 C487 1.434 . S
C487 C478 1.429 . S
C487 N484 1.350 . S
C487 C486 1.434 . S
C225 C82 1.649 1_565 S
C227 C114 1.717 . S
C238 C144 1.799 . S
C236 C95 1.728 . S
C249 N178 1.378 . S
C247 C56 1.306 . S
C260 N208 1.471 . S
C258 C69 1.424 . S
C271 C105 1.717 . S
C269 C30 1.629 . S
C280 C43 1.683 . S
C282 C135 1.803 . S
C291 C4 1.300 . S
C293 N170 1.371 . S
C302 C17 1.329 . S
C304 N200 1.477 1_655 S
C315 C120 0.725 . S
C313 C74 0.721 . S
C326 C150 1.104 . S
C324 C87 1.029 1_565 S
C337 C191 1.360 . S
C335 C100 1.323 . S
C346 C61 0.855 . S
C348 C221 0.845 . S
C357 C22 0.727 1_556 S
C359 C131 0.728 . S
C370 C161 1.101 . S
C368 C35 1.038 . S
C381 C180 1.361 . S
C379 C48 1.324 . S
C390 C9 0.843 . S
C392 C210 0.853 . S
C401 C73 1.462 . S
C403 N110 1.482 . S
C412 C86 1.432 . S
C414 N140 1.437 . S
C425 C165 1.666 1_554 S
C423 C99 1.634 . S
C436 C195 1.595 1_554 S
C434 C60 1.563 . S
C445 C21 1.464 . S
C447 N118 1.487 . S
C458 N148 1.435 . S
C456 C34 1.435 1_565 S
C469 C174 1.666 . S
C467 C47 1.633 . S
C478 C8 1.568 . S
C480 C204 1.595 . S
