# Generated by pormake.
# Topology ptr, (4,4)-cn, num edge types: 1
# Building blocks:
#     Node 0, Type 0, BuildingBlock: UXUYUI_clean_sbu_0, # of connection points: 4
#     Node 1, Type 0, BuildingBlock: UXUYUI_clean_sbu_0, # of connection points: 4
#     Node 2, Type 0, BuildingBlock: UXUYUI_clean_sbu_0, # of connection points: 4
#     Node 3, Type 0, BuildingBlock: UXUYUI_clean_sbu_0, # of connection points: 4
#     Node 4, Type 0, BuildingBlock: UXUYUI_clean_sbu_0, # of connection points: 4
#     Node 5, Type 0, BuildingBlock: UXUYUI_clean_sbu_0, # of connection points: 4
#     Node 6, Type 0, BuildingBlock: UXUYUI_clean_sbu_0, # of connection points: 4
#     Node 7, Type 0, BuildingBlock: UXUYUI_clean_sbu_0, # of connection points: 4
#     Node 8, Type 0, BuildingBlock: UXUYUI_clean_sbu_0, # of connection points: 4
#     Node 9, Type 0, BuildingBlock: UXUYUI_clean_sbu_0, # of connection points: 4
#     Node 10, Type 0, BuildingBlock: UXUYUI_clean_sbu_0, # of connection points: 4
#     Node 11, Type 0, BuildingBlock: UXUYUI_clean_sbu_0, # of connection points: 4
#     Node 12, Type 0, BuildingBlock: UXUYUI_clean_sbu_0, # of connection points: 4
#     Node 13, Type 0, BuildingBlock: UXUYUI_clean_sbu_0, # of connection points: 4
#     Node 14, Type 0, BuildingBlock: UXUYUI_clean_sbu_0, # of connection points: 4
#     Node 15, Type 0, BuildingBlock: UXUYUI_clean_sbu_0, # of connection points: 4
#     Node 16, Type 0, BuildingBlock: UXUYUI_clean_sbu_0, # of connection points: 4
#     Node 17, Type 0, BuildingBlock: UXUYUI_clean_sbu_0, # of connection points: 4
#     Node 18, Type 1, BuildingBlock: NAWXER_clean_linker_0, # of connection points: 4
#     Node 19, Type 1, BuildingBlock: NAWXER_clean_linker_0, # of connection points: 4
#     Node 20, Type 1, BuildingBlock: NAWXER_clean_linker_0, # of connection points: 4
#     Node 21, Type 1, BuildingBlock: NAWXER_clean_linker_0, # of connection points: 4
#     Node 22, Type 1, BuildingBlock: NAWXER_clean_linker_0, # of connection points: 4
#     Node 23, Type 1, BuildingBlock: NAWXER_clean_linker_0, # of connection points: 4
#     Node 24, Type 1, BuildingBlock: NAWXER_clean_linker_0, # of connection points: 4
#     Node 25, Type 1, BuildingBlock: NAWXER_clean_linker_0, # of connection points: 4
#     Node 26, Type 1, BuildingBlock: NAWXER_clean_linker_0, # of connection points: 4
#     Node 27, Type 1, BuildingBlock: NAWXER_clean_linker_0, # of connection points: 4
#     Node 28, Type 1, BuildingBlock: NAWXER_clean_linker_0, # of connection points: 4
#     Node 29, Type 1, BuildingBlock: NAWXER_clean_linker_0, # of connection points: 4
#     Node 30, Type 1, BuildingBlock: NAWXER_clean_linker_0, # of connection points: 4
#     Node 31, Type 1, BuildingBlock: NAWXER_clean_linker_0, # of connection points: 4
#     Node 32, Type 1, BuildingBlock: NAWXER_clean_linker_0, # of connection points: 4
#     Node 33, Type 1, BuildingBlock: NAWXER_clean_linker_0, # of connection points: 4
#     Node 34, Type 1, BuildingBlock: NAWXER_clean_linker_0, # of connection points: 4
#     Node 35, Type 1, BuildingBlock: NAWXER_clean_linker_0, # of connection points: 4
#     Edge 36, Type (0, 1), BuildingBlock: KIFKEQ_clean_linker_1, # of connection points: 2
#     Edge 37, Type (0, 1), BuildingBlock: KIFKEQ_clean_linker_1, # of connection points: 2
#     Edge 38, Type (0, 1), BuildingBlock: KIFKEQ_clean_linker_1, # of connection points: 2
#     Edge 39, Type (0, 1), BuildingBlock: KIFKEQ_clean_linker_1, # of connection points: 2
#     Edge 40, Type (0, 1), BuildingBlock: KIFKEQ_clean_linker_1, # of connection points: 2
#     Edge 41, Type (0, 1), BuildingBlock: KIFKEQ_clean_linker_1, # of connection points: 2
#     Edge 42, Type (0, 1), BuildingBlock: KIFKEQ_clean_linker_1, # of connection points: 2
#     Edge 43, Type (0, 1), BuildingBlock: KIFKEQ_clean_linker_1, # of connection points: 2
#     Edge 44, Type (0, 1), BuildingBlock: KIFKEQ_clean_linker_1, # of connection points: 2
#     Edge 45, Type (0, 1), BuildingBlock: KIFKEQ_clean_linker_1, # of connection points: 2
#     Edge 46, Type (0, 1), BuildingBlock: KIFKEQ_clean_linker_1, # of connection points: 2
#     Edge 47, Type (0, 1), BuildingBlock: KIFKEQ_clean_linker_1, # of connection points: 2
#     Edge 48, Type (0, 1), BuildingBlock: KIFKEQ_clean_linker_1, # of connection points: 2
#     Edge 49, Type (0, 1), BuildingBlock: KIFKEQ_clean_linker_1, # of connection points: 2
#     Edge 50, Type (0, 1), BuildingBlock: KIFKEQ_clean_linker_1, # of connection points: 2
#     Edge 51, Type (0, 1), BuildingBlock: KIFKEQ_clean_linker_1, # of connection points: 2
#     Edge 52, Type (0, 1), BuildingBlock: KIFKEQ_clean_linker_1, # of connection points: 2
#     Edge 53, Type (0, 1), BuildingBlock: KIFKEQ_clean_linker_1, # of connection points: 2
#     Edge 54, Type (0, 1), BuildingBlock: KIFKEQ_clean_linker_1, # of connection points: 2
#     Edge 55, Type (0, 1), BuildingBlock: KIFKEQ_clean_linker_1, # of connection points: 2
#     Edge 56, Type (0, 1), BuildingBlock: KIFKEQ_clean_linker_1, # of connection points: 2
#     Edge 57, Type (0, 1), BuildingBlock: KIFKEQ_clean_linker_1, # of connection points: 2
#     Edge 58, Type (0, 1), BuildingBlock: KIFKEQ_clean_linker_1, # of connection points: 2
#     Edge 59, Type (0, 1), BuildingBlock: KIFKEQ_clean_linker_1, # of connection points: 2
#     Edge 60, Type (0, 1), BuildingBlock: KIFKEQ_clean_linker_1, # of connection points: 2
#     Edge 61, Type (0, 1), BuildingBlock: KIFKEQ_clean_linker_1, # of connection points: 2
#     Edge 62, Type (0, 1), BuildingBlock: KIFKEQ_clean_linker_1, # of connection points: 2
#     Edge 63, Type (0, 1), BuildingBlock: KIFKEQ_clean_linker_1, # of connection points: 2
#     Edge 64, Type (0, 1), BuildingBlock: KIFKEQ_clean_linker_1, # of connection points: 2
#     Edge 65, Type (0, 1), BuildingBlock: KIFKEQ_clean_linker_1, # of connection points: 2
#     Edge 66, Type (0, 1), BuildingBlock: KIFKEQ_clean_linker_1, # of connection points: 2
#     Edge 67, Type (0, 1), BuildingBlock: KIFKEQ_clean_linker_1, # of connection points: 2
#     Edge 68, Type (0, 1), BuildingBlock: KIFKEQ_clean_linker_1, # of connection points: 2
#     Edge 69, Type (0, 1), BuildingBlock: KIFKEQ_clean_linker_1, # of connection points: 2
#     Edge 70, Type (0, 1), BuildingBlock: KIFKEQ_clean_linker_1, # of connection points: 2
#     Edge 71, Type (0, 1), BuildingBlock: KIFKEQ_clean_linker_1, # of connection points: 2
#     Edge 72, Type (0, 1), BuildingBlock: KIFKEQ_clean_linker_1, # of connection points: 2
#     Edge 73, Type (0, 1), BuildingBlock: KIFKEQ_clean_linker_1, # of connection points: 2
#     Edge 74, Type (0, 1), BuildingBlock: KIFKEQ_clean_linker_1, # of connection points: 2
#     Edge 75, Type (0, 1), BuildingBlock: KIFKEQ_clean_linker_1, # of connection points: 2
#     Edge 76, Type (0, 1), BuildingBlock: KIFKEQ_clean_linker_1, # of connection points: 2
#     Edge 77, Type (0, 1), BuildingBlock: KIFKEQ_clean_linker_1, # of connection points: 2
#     Edge 78, Type (0, 1), BuildingBlock: KIFKEQ_clean_linker_1, # of connection points: 2
#     Edge 79, Type (0, 1), BuildingBlock: KIFKEQ_clean_linker_1, # of connection points: 2
#     Edge 80, Type (0, 1), BuildingBlock: KIFKEQ_clean_linker_1, # of connection points: 2
#     Edge 81, Type (0, 1), BuildingBlock: KIFKEQ_clean_linker_1, # of connection points: 2
#     Edge 82, Type (0, 1), BuildingBlock: KIFKEQ_clean_linker_1, # of connection points: 2
#     Edge 83, Type (0, 1), BuildingBlock: KIFKEQ_clean_linker_1, # of connection points: 2
#     Edge 84, Type (0, 1), BuildingBlock: KIFKEQ_clean_linker_1, # of connection points: 2
#     Edge 85, Type (0, 1), BuildingBlock: KIFKEQ_clean_linker_1, # of connection points: 2
#     Edge 86, Type (0, 1), BuildingBlock: KIFKEQ_clean_linker_1, # of connection points: 2
#     Edge 87, Type (0, 1), BuildingBlock: KIFKEQ_clean_linker_1, # of connection points: 2
#     Edge 88, Type (0, 1), BuildingBlock: KIFKEQ_clean_linker_1, # of connection points: 2
#     Edge 89, Type (0, 1), BuildingBlock: KIFKEQ_clean_linker_1, # of connection points: 2
#     Edge 90, Type (0, 1), BuildingBlock: KIFKEQ_clean_linker_1, # of connection points: 2
#     Edge 91, Type (0, 1), BuildingBlock: KIFKEQ_clean_linker_1, # of connection points: 2
#     Edge 92, Type (0, 1), BuildingBlock: KIFKEQ_clean_linker_1, # of connection points: 2
#     Edge 93, Type (0, 1), BuildingBlock: KIFKEQ_clean_linker_1, # of connection points: 2
#     Edge 94, Type (0, 1), BuildingBlock: KIFKEQ_clean_linker_1, # of connection points: 2
#     Edge 95, Type (0, 1), BuildingBlock: KIFKEQ_clean_linker_1, # of connection points: 2
#     Edge 96, Type (0, 1), BuildingBlock: KIFKEQ_clean_linker_1, # of connection points: 2
#     Edge 97, Type (0, 1), BuildingBlock: KIFKEQ_clean_linker_1, # of connection points: 2
#     Edge 98, Type (0, 1), BuildingBlock: KIFKEQ_clean_linker_1, # of connection points: 2
#     Edge 99, Type (0, 1), BuildingBlock: KIFKEQ_clean_linker_1, # of connection points: 2
#     Edge 100, Type (0, 1), BuildingBlock: KIFKEQ_clean_linker_1, # of connection points: 2
#     Edge 101, Type (0, 1), BuildingBlock: KIFKEQ_clean_linker_1, # of connection points: 2
#     Edge 102, Type (0, 1), BuildingBlock: KIFKEQ_clean_linker_1, # of connection points: 2
#     Edge 103, Type (0, 1), BuildingBlock: KIFKEQ_clean_linker_1, # of connection points: 2
#     Edge 104, Type (0, 1), BuildingBlock: KIFKEQ_clean_linker_1, # of connection points: 2
#     Edge 105, Type (0, 1), BuildingBlock: KIFKEQ_clean_linker_1, # of connection points: 2
#     Edge 106, Type (0, 1), BuildingBlock: KIFKEQ_clean_linker_1, # of connection points: 2
#     Edge 107, Type (0, 1), BuildingBlock: KIFKEQ_clean_linker_1, # of connection points: 2
# Relax obj value: 0.097
# Max RMSD: 0.293
# Mean RMSD: 0.120
data_MOF--net-ptr--node1-UXUYUI_clean_sbu_0--node2-NAWXER_clean_linker_0--edge1-KIFKEQ_clean_linker_1
_symmetry_space_group_name_H-M    P1
_symmetry_Int_Tables_number       1
_symmetry_cell_setting            triclinic
loop_
_symmetry_equiv_pos_as_xyz
'x, y, z'
_cell_length_a     106.24914
_cell_length_b     106.25602
_cell_length_c     74.92557
_cell_angle_alpha  90.132706
_cell_angle_beta   89.851683
_cell_angle_gamma 120.19396
loop_
_atom_site_label
_atom_site_type_symbol
_atom_site_fract_x
_atom_site_fract_y
_atom_site_fract_z
_atom_type_partial_charge
Li0 Li 0.9948 0.33533 0.99871 0.0
Li1 Li 0.01908 0.34747 0.01153 0.0
Li2 Li 0.00146 0.35583 0.01947 0.0
Li3 Li 0.0133 0.36116 0.99005 0.0
C4 C 0.98934 0.32545 0.03388 0.0
N5 N 0.96754 0.3026 0.05294 0.0
C6 C 0.99133 0.31417 0.04003 0.0
C7 C 0.97635 0.32523 0.03771 0.0
C8 C 0.98015 0.30267 0.04955 0.0
C9 C 0.96544 0.31356 0.04729 0.0
C10 C 0.02291 0.33877 0.97873 0.0
C11 C 0.04561 0.34475 0.96444 0.0
N12 N 0.04158 0.33041 0.96438 0.0
C13 C 0.01889 0.32407 0.97827 0.0
C14 C 0.03629 0.34918 0.97155 0.0
C15 C 0.02851 0.32006 0.97107 0.0
C16 C 0.97112 0.31738 0.97647 0.0
N17 N 0.9799 0.31727 0.98954 0.0
C18 C 0.96912 0.29146 0.98702 0.0
C19 C 0.97908 0.30468 0.99492 0.0
C20 C 0.95997 0.29122 0.97335 0.0
C21 C 0.96095 0.30441 0.96825 0.0
H22 H 0.97224 0.3276 0.97213 0.0
H23 H 0.98655 0.30494 0.00486 0.0
C24 C 0.04548 0.35449 0.02922 0.0
N25 N 0.03343 0.34371 0.02111 0.0
C26 C 0.05518 0.35133 0.03792 0.0
C27 C 0.03992 0.32606 0.02963 0.0
C28 C 0.03055 0.32972 0.0211 0.0
C29 C 0.05234 0.3369 0.03843 0.0
H30 H 0.04736 0.36546 0.02946 0.0
H31 H 0.02067 0.32128 0.01501 0.0
C32 C 0.98033 0.3542 0.99509 0.0
N33 N 0.95622 0.35764 0.99385 0.0
C34 C 0.98155 0.36702 0.98833 0.0
C35 C 0.96676 0.34301 0.00085 0.0
C36 C 0.96927 0.3686 0.98793 0.0
C37 C 0.95473 0.34498 0.00021 0.0
C38 C 0.03433 0.38133 0.01249 0.0
C39 C 0.03416 0.39306 0.02073 0.0
C40 C 0.04659 0.38373 0.00279 0.0
C41 C 0.04618 0.40705 0.01884 0.0
C42 C 0.05839 0.39788 0.0012 0.0
N43 N 0.05794 0.40916 0.00917 0.0
C44 C 0.99441 0.36017 0.05487 0.0
C45 C 0.99445 0.37615 0.03283 0.0
C46 C 0.99191 0.36784 0.06828 0.0
N47 N 0.99566 0.36448 0.03756 0.0
C48 C 0.992 0.38413 0.04575 0.0
C49 C 0.99097 0.38017 0.06379 0.0
H50 H 0.99587 0.35112 0.05836 0.0
H51 H 0.99608 0.37971 0.01911 0.0
C52 C 0.02017 0.3708 0.95422 0.0
N53 N 0.01953 0.37498 0.9712 0.0
C54 C 0.02286 0.38032 0.93999 0.0
C55 C 0.02449 0.39834 0.96107 0.0
C56 C 0.02168 0.38846 0.97483 0.0
C57 C 0.02486 0.39423 0.94333 0.0
H58 H 0.0181 0.3599 0.95167 0.0
H59 H 0.0205 0.3913 0.98832 0.0
O60 O 0.00016 0.33677 0.02447 0.0
O61 O 0.01363 0.34289 0.98578 0.0
O62 O 0.99226 0.35246 0.99548 0.0
O63 O 0.02258 0.36757 0.01402 0.0
H64 H 0.00137 0.31423 0.0374 0.0
H65 H 0.97479 0.33407 0.03356 0.0
H66 H 0.98152 0.29382 0.05427 0.0
H67 H 0.95533 0.31326 0.05031 0.0
H68 H 0.05603 0.35271 0.95891 0.0
H69 H 0.0085 0.31584 0.98356 0.0
H70 H 0.0394 0.36055 0.9713 0.0
H71 H 0.02559 0.30873 0.97079 0.0
H72 H 0.96898 0.28163 0.99112 0.0
H73 H 0.95404 0.30474 0.95788 0.0
H74 H 0.06466 0.36004 0.04442 0.0
H75 H 0.03714 0.31476 0.02997 0.0
H76 H 0.9919 0.37573 0.98357 0.0
H77 H 0.96546 0.33281 0.00553 0.0
H78 H 0.97011 0.37852 0.98288 0.0
H79 H 0.94418 0.33641 0.00468 0.0
H80 H 0.02485 0.3914 0.02846 0.0
H81 H 0.04703 0.37475 0.99666 0.0
H82 H 0.04616 0.41624 0.02506 0.0
H83 H 0.06793 0.39989 0.99368 0.0
H84 H 0.99141 0.36457 0.08207 0.0
H85 H 0.99129 0.39353 0.0417 0.0
H86 H 0.02306 0.37674 0.9265 0.0
H87 H 0.02562 0.40881 0.96422 0.0
Li88 Li 0.66357 0.65675 0.99759 0.0
Li89 Li 0.65205 0.66843 0.01304 0.0
Li90 Li 0.64479 0.64231 0.01899 0.0
Li91 Li 0.63748 0.64895 0.99119 0.0
C92 C 0.67777 0.66585 0.02845 0.0
N93 N 0.70674 0.67726 0.03727 0.0
C94 C 0.68696 0.68092 0.0298 0.0
C95 C 0.68325 0.65658 0.03183 0.0
C96 C 0.70159 0.68648 0.03421 0.0
C97 C 0.69795 0.66257 0.03619 0.0
C98 C 0.65488 0.67859 0.97663 0.0
C99 C 0.64152 0.68916 0.96376 0.0
N100 N 0.65394 0.69953 0.95578 0.0
C101 C 0.66748 0.68926 0.96813 0.0
C102 C 0.64177 0.67845 0.97429 0.0
C103 C 0.66679 0.69979 0.95772 0.0
C104 C 0.68338 0.65016 0.9801 0.0
N105 N 0.68155 0.66091 0.98722 0.0
C106 C 0.70568 0.67893 0.97875 0.0
C107 C 0.69233 0.67507 0.98666 0.0
C108 C 0.7079 0.66811 0.97115 0.0
C109 C 0.69655 0.65353 0.97198 0.0
H110 H 0.67454 0.63901 0.98047 0.0
H111 H 0.69051 0.6834 0.99229 0.0
C112 C 0.65227 0.68473 0.0421 0.0
N113 N 0.65553 0.68586 0.02442 0.0
C114 C 0.65563 0.69713 0.05208 0.0
C115 C 0.66538 0.71161 0.02538 0.0
C116 C 0.66192 0.69894 0.01595 0.0
C117 C 0.66242 0.71084 0.04377 0.0
H118 H 0.64738 0.67419 0.04851 0.0
H119 H 0.66465 0.69965 0.00199 0.0
C120 C 0.64303 0.62258 0.99491 0.0
N121 N 0.63505 0.59355 0.99718 0.0
C122 C 0.63024 0.61195 0.98676 0.0
C123 C 0.65186 0.61847 0.00402 0.0
C124 C 0.62637 0.59732 0.9881 0.0
C125 C 0.64761 0.60373 0.00508 0.0
C126 C 0.62002 0.65168 0.01965 0.0
C127 C 0.60812 0.63987 0.02786 0.0
C128 C 0.61938 0.66422 0.0158 0.0
C129 C 0.59565 0.64066 0.03165 0.0
C130 C 0.60673 0.66459 0.01982 0.0
N131 N 0.59522 0.6529 0.02757 0.0
C132 C 0.64407 0.62866 0.05227 0.0
C133 C 0.62433 0.61539 0.03248 0.0
C134 C 0.63743 0.61774 0.0652 0.0
N135 N 0.63735 0.62731 0.03637 0.0
C136 C 0.61743 0.60419 0.04485 0.0
C137 C 0.6238 0.60539 0.06164 0.0
H138 H 0.65436 0.63837 0.05508 0.0
H139 H 0.61911 0.61473 0.01988 0.0
C140 C 0.62579 0.64411 0.95623 0.0
N141 N 0.62245 0.64129 0.97384 0.0
C142 C 0.61504 0.63693 0.94329 0.0
C143 C 0.59762 0.62435 0.96689 0.0
C144 C 0.60868 0.63174 0.97933 0.0
C145 C 0.60079 0.62666 0.94857 0.0
H146 H 0.63692 0.65152 0.95224 0.0
H147 H 0.60641 0.62936 0.99335 0.0
O148 O 0.66347 0.66022 0.02392 0.0
O149 O 0.65539 0.66819 0.98683 0.0
O150 O 0.64689 0.63694 0.99394 0.0
O151 O 0.63238 0.65113 0.01604 0.0
H152 H 0.6829 0.68825 0.02726 0.0
H153 H 0.67625 0.6449 0.03108 0.0
H154 H 0.70886 0.69812 0.03517 0.0
H155 H 0.70236 0.65552 0.03875 0.0
H156 H 0.63144 0.68918 0.96187 0.0
H157 H 0.67769 0.68944 0.96959 0.0
H158 H 0.63183 0.67007 0.98031 0.0
H159 H 0.67648 0.70816 0.95115 0.0
H160 H 0.71416 0.69028 0.97862 0.0
H161 H 0.69771 0.64486 0.96605 0.0
H162 H 0.65335 0.69601 0.06627 0.0
H163 H 0.67043 0.72191 0.01836 0.0
H164 H 0.62333 0.61494 0.97953 0.0
H165 H 0.66183 0.62656 0.01029 0.0
H166 H 0.61646 0.58897 0.98194 0.0
H167 H 0.65429 0.60039 0.01218 0.0
H168 H 0.60846 0.63015 0.03118 0.0
H169 H 0.62859 0.67364 0.00997 0.0
H170 H 0.58634 0.63155 0.03787 0.0
H171 H 0.6061 0.67422 0.01686 0.0
H172 H 0.64268 0.61919 0.07802 0.0
H173 H 0.60709 0.59478 0.04132 0.0
H174 H 0.61801 0.63889 0.92931 0.0
H175 H 0.58677 0.61662 0.97156 0.0
Li176 Li 0.34909 0.99111 0.99586 0.0
Li177 Li 0.35437 0.00208 0.02492 0.0
Li178 Li 0.32972 0.98442 0.01704 0.0
Li179 Li 0.34129 0.00817 0.00377 0.0
C180 C 0.34169 0.96673 0.01643 0.0
N181 N 0.33217 0.93755 0.01099 0.0
C182 C 0.34651 0.95946 0.02754 0.0
C183 C 0.33206 0.95915 0.00251 0.0
C184 C 0.34157 0.94471 0.02458 0.0
C185 C 0.32737 0.94441 -0.0 0.0
C186 C 0.37588 0.01636 0.99901 0.0
C187 C 0.39943 0.03301 0.98645 0.0
N188 N 0.40482 0.0249 0.99348 0.0
C189 C 0.38167 0.00821 0.00614 0.0
C190 C 0.38483 0.02888 0.98911 0.0
C191 C 0.39632 0.0127 0.00319 0.0
C192 C 0.35487 0.98805 0.95989 0.0
N193 N 0.35678 0.98504 0.97695 0.0
C194 C 0.37211 0.97594 0.96713 0.0
C195 C 0.36502 0.97891 0.98075 0.0
C196 C 0.37069 0.97928 0.94937 0.0
C197 C 0.36172 0.98519 0.94579 0.0
H198 H 0.34834 0.99303 0.9573 0.0
H199 H 0.36654 0.97679 0.99444 0.0
C200 C 0.36624 0.99799 0.05571 0.0
N201 N 0.36793 0.00848 0.04403 0.0
C202 C 0.37649 0.00111 0.06908 0.0
C203 C 0.38973 0.02601 0.05872 0.0
C204 C 0.37928 0.02235 0.04537 0.0
C205 C 0.38857 0.01525 0.07063 0.0
H206 H 0.3571 0.98706 0.05428 0.0
H207 H 0.38044 0.03047 0.03581 0.0
C208 C 0.31676 0.98744 0.98596 0.0
N209 N 0.29049 0.98421 0.97494 0.0
C210 C 0.30792 0.98954 0.99804 0.0
C211 C 0.31223 0.9837 0.96829 0.0
C212 C 0.29468 0.98785 0.99221 0.0
C213 C 0.29892 0.98212 0.96297 0.0
C214 C 0.34017 0.01548 0.03924 0.0
C215 C 0.33206 0.01449 0.05442 0.0
C216 C 0.35188 0.02899 0.03419 0.0
C217 C 0.33582 0.02704 0.06435 0.0
C218 C 0.3553 0.04128 0.04447 0.0
N219 N 0.34727 0.04006 0.05921 0.0
C220 C 0.31147 0.96986 0.04515 0.0
C221 C 0.30102 0.95891 0.01736 0.0
C222 C 0.29888 0.9599 0.05416 0.0
N223 N 0.31224 0.9693 0.02711 0.0
C224 C 0.28814 0.94875 0.02583 0.0
C225 C 0.28694 0.94926 0.04448 0.0
H226 H 0.3206 0.97824 0.05251 0.0
H227 H 0.30198 0.95864 0.00301 0.0
C228 C 0.34597 0.03036 0.97986 0.0
N229 N 0.33808 0.0229 0.99438 0.0
C230 C 0.34329 0.04054 0.97159 0.0
C231 C 0.32442 0.03514 0.9934 0.0
C232 C 0.32761 0.02523 0.00141 0.0
C233 C 0.33224 0.04284 0.97822 0.0
H234 H 0.35413 0.02816 0.9745 0.0
H235 H 0.32152 0.01919 0.01301 0.0
O236 O 0.34651 0.98119 0.01923 0.0
O237 O 0.36156 0.01222 0.00165 0.0
O238 O 0.32984 0.98912 0.99124 0.0
O239 O 0.33654 0.00324 0.02944 0.0
H240 H 0.35403 0.96516 0.03831 0.0
H241 H 0.32827 0.96454 0.99367 0.0
H242 H 0.34521 0.93896 0.03308 0.0
H243 H 0.31991 0.93842 0.98929 0.0
H244 H 0.40647 0.04268 0.9788 0.0
H245 H 0.37496 0.99851 0.01387 0.0
H246 H 0.38052 0.03534 0.98353 0.0
H247 H 0.40093 0.00647 0.00862 0.0
H248 H 0.37911 0.97165 0.9706 0.0
H249 H 0.36019 0.9878 0.9323 0.0
H250 H 0.3752 0.99235 0.07765 0.0
H251 H 0.39871 0.0371 0.05952 0.0
H252 H 0.31123 0.99243 0.01177 0.0
H253 H 0.31896 0.98206 0.95877 0.0
H254 H 0.28775 0.98945 0.00142 0.0
H255 H 0.29528 0.97924 0.94932 0.0
H256 H 0.32294 0.00412 0.05848 0.0
H257 H 0.35826 0.03002 0.02246 0.0
H258 H 0.32964 0.02642 0.07614 0.0
H259 H 0.36433 0.0518 0.04072 0.0
H260 H 0.29835 0.96079 0.06851 0.0
H261 H 0.27923 0.94062 0.01792 0.0
H262 H 0.34945 0.04619 0.95981 0.0
H263 H 0.3159 0.03674 0.99897 0.0
Li264 Li 0.01562 0.67188 0.0113 0.0
Li265 Li -0.00028 0.64728 0.02168 0.0
Li266 Li 0.00815 0.6509 0.99081 0.0
Li267 Li 0.99139 0.65811 0.00079 0.0
C268 C 0.03402 0.6597 0.0091 0.0
N269 N 0.06246 0.66772 0.00095 0.0
C270 C 0.04147 0.65464 0.01947 0.0
C271 C 0.04101 0.66879 0.99453 0.0
C272 C 0.05585 0.65883 0.01515 0.0
C273 C 0.05539 0.67273 0.99064 0.0
C274 C 0.00111 0.66925 0.04278 0.0
C275 C 0.99745 0.67975 0.06947 0.0
N276 N 0.00872 0.67929 0.07737 0.0
C277 C 0.01267 0.66889 0.05117 0.0
C278 C 0.99345 0.67474 0.05199 0.0
C279 C 0.01634 0.67401 0.06865 0.0
C280 C 0.02522 0.70055 0.01987 0.0
N281 N 0.02992 0.6908 0.01914 0.0
C282 C 0.05183 0.70734 0.03444 0.0
C283 C 0.04299 0.69394 0.02612 0.0
C284 C 0.04703 0.71744 0.03585 0.0
C285 C 0.03365 0.71401 0.02816 0.0
H286 H 0.01456 0.69756 0.01477 0.0
H287 H 0.04629 0.68586 0.02611 0.0
C288 C 0.00055 0.62466 0.03758 0.0
N289 N 0.99542 0.63387 0.04056 0.0
C290 C 0.99864 0.61434 0.05031 0.0
C291 C 0.98605 0.62305 0.06904 0.0
C292 C 0.98808 0.63316 0.05577 0.0
C293 C 0.99151 0.61355 0.06645 0.0
H294 H 0.00619 0.6254 0.02525 0.0
H295 H 0.98394 0.64051 0.05771 0.0
C296 C 0.00408 0.67427 0.9725 0.0
N297 N 0.99226 0.68295 0.94574 0.0
C298 C 0.99573 0.66451 0.95904 0.0
C299 C 0.00656 0.68848 0.97224 0.0
C300 C 0.98982 0.6691 0.94565 0.0
C301 C 0.00045 0.69265 0.95863 0.0
C302 C 0.97434 0.62794 0.00464 0.0
C303 C 0.96757 0.61425 0.9965 0.0
C304 C 0.96693 0.63104 0.01779 0.0
C305 C 0.95344 0.60386 0.00163 0.0
C306 C 0.95281 0.62036 0.02254 0.0
N307 N 0.94641 0.60711 0.01443 0.0
C308 C 0.01209 0.62902 0.97816 0.0
C309 C 0.01748 0.64694 0.95601 0.0
C310 C 0.01432 0.6204 0.96602 0.0
N311 N 0.01345 0.64186 0.97292 0.0
C312 C 0.01968 0.63855 0.9433 0.0
C313 C 0.01778 0.62492 0.94818 0.0
H314 H 0.00896 0.62536 0.99176 0.0
H315 H 0.01862 0.65728 0.95226 0.0
C316 C 0.97572 0.67271 0.99776 0.0
N317 N 0.97558 0.66029 0.99304 0.0
C318 C 0.96583 0.67611 0.99011 0.0
C319 C 0.95543 0.65351 0.97355 0.0
C320 C 0.96555 0.65058 0.98146 0.0
C321 C 0.95572 0.66659 0.97752 0.0
H322 H 0.98399 0.68031 0.0068 0.0
H323 H 0.96585 0.64091 0.9777 0.0
O324 O 0.01989 0.65551 0.0131 0.0
O325 O 0.9974 0.66458 0.02554 0.0
O326 O 0.00961 0.66984 0.98599 0.0
O327 O 0.98822 0.63813 -0.00022 0.0
H328 H 0.03617 0.64754 0.03074 0.0
H329 H 0.03542 0.67279 0.98631 0.0
H330 H 0.06176 0.65502 0.02308 0.0
H331 H 0.06094 0.67977 0.97943 0.0
H332 H 0.99161 0.68404 0.07675 0.0
H333 H 0.01878 0.66473 0.04431 0.0
H334 H 0.98452 0.67516 0.04565 0.0
H335 H 0.02526 0.6738 0.07529 0.0
H336 H 0.06196 0.70945 0.04051 0.0
H337 H 0.02957 0.72151 0.02893 0.0
H338 H 0.00269 0.60701 0.04746 0.0
H339 H 0.98052 0.62287 0.08127 0.0
H340 H 0.99354 0.6534 0.95917 0.0
H341 H 0.01306 0.6962 0.98249 0.0
H342 H 0.9832 0.66161 0.93526 0.0
H343 H 0.0022 0.7036 0.95833 0.0
H344 H 0.97319 0.61168 0.98634 0.0
H345 H 0.97197 0.64155 0.02427 0.0
H346 H 0.94806 0.59321 0.99544 0.0
H347 H 0.94695 0.62261 0.03269 0.0
H348 H 0.01311 0.61018 0.97054 0.0
H349 H 0.0223 0.64245 0.9297 0.0
H350 H 0.96657 0.68638 0.9934 0.0
H351 H 0.94771 0.64578 0.96409 0.0
Li352 Li 0.33481 0.34888 0.01519 0.0
Li353 Li 0.35955 0.35554 0.02117 0.0
Li354 Li 0.35334 0.36291 0.99364 0.0
Li355 Li 0.34607 0.33784 0.99853 0.0
C356 C 0.35137 0.37463 0.03436 0.0
N357 N 0.35104 0.38645 0.06713 0.0
C358 C 0.34567 0.36566 0.04934 0.0
C359 C 0.35691 0.3896 0.03606 0.0
C360 C 0.3456 0.37184 0.06578 0.0
C361 C 0.35664 0.39537 0.05273 0.0
C362 C 0.34563 0.32665 0.03183 0.0
C363 C 0.36245 0.31784 0.03516 0.0
N364 N 0.35295 0.30735 0.04649 0.0
C365 C 0.33604 0.31579 0.04351 0.0
C366 C 0.35896 0.3277 0.02762 0.0
C367 C 0.33994 0.30613 0.05078 0.0
C368 C 0.30737 0.331 0.02986 0.0
N369 N 0.31696 0.34508 0.02562 0.0
C370 C 0.30119 0.35279 0.03798 0.0
C371 C 0.31407 0.35592 0.02926 0.0
C372 C 0.29119 0.33836 0.04285 0.0
C373 C 0.29433 0.32736 0.0385 0.0
H374 H 0.30999 0.32263 0.02676 0.0
H375 H 0.32186 0.36703 0.02564 0.0
C376 C 0.38734 0.37375 0.03409 0.0
N377 N 0.37425 0.3623 0.0389 0.0
C378 C 0.39829 0.3808 0.04677 0.0
C379 C 0.38222 0.36383 0.06902 0.0
C380 C 0.37156 0.35709 0.05588 0.0
C381 C 0.39568 0.37606 0.06459 0.0
H382 H 0.38908 0.37771 0.0205 0.0
H383 H 0.36095 0.3481 0.05941 0.0
C384 C 0.3248 0.3497 0.98152 0.0
N385 N 0.30628 0.35787 0.96645 0.0
C386 C 0.31406 0.34044 0.96951 0.0
C387 C 0.32614 0.36313 0.98585 0.0
C388 C 0.30479 0.34477 0.96203 0.0
C389 C 0.31666 0.36705 0.97809 0.0
C390 C 0.37266 0.35489 0.98086 0.0
C391 C 0.36425 0.34954 0.96541 0.0
C392 C 0.38772 0.36074 0.9799 0.0
C393 C 0.37106 0.35012 0.94922 0.0
C394 C 0.39413 0.36112 0.96345 0.0
N395 N 0.38574 0.35585 0.94858 0.0
C396 C 0.37169 0.39139 0.98258 0.0
C397 C 0.35673 0.37603 0.95931 0.0
C398 C 0.37913 0.40285 0.97062 0.0
N399 N 0.36089 0.37827 0.97672 0.0
C400 C 0.36394 0.38719 0.94685 0.0
C401 C 0.37552 0.40074 0.9524 0.0
H402 H 0.37481 0.39279 0.9965 0.0
H403 H 0.34819 0.36543 0.95498 0.0
C404 C 0.32797 0.31029 0.98438 0.0
N405 N 0.34218 0.32006 0.98776 0.0
C406 C 0.32409 0.29702 0.97622 0.0
C407 C 0.34956 0.30408 0.97524 0.0
C408 C 0.35293 0.31717 0.98359 0.0
C409 C 0.33496 0.2938 0.97137 0.0
H410 H 0.31966 0.31286 0.98804 0.0
H411 H 0.36414 0.32506 0.98658 0.0
O412 O 0.35171 0.36891 0.0181 0.0
O413 O 0.34185 0.3361 0.0246 0.0
O414 O 0.33388 0.34552 0.98893 0.0
O415 O 0.36632 0.35463 0.99688 0.0
H416 H 0.34133 0.35405 0.04833 0.0
H417 H 0.36137 0.39669 0.02459 0.0
H418 H 0.34122 0.36503 0.07748 0.0
H419 H 0.36089 0.40695 0.05424 0.0
H420 H 0.37272 0.31853 0.03201 0.0
H421 H 0.32569 0.31484 0.04691 0.0
H422 H 0.36656 0.33604 0.01867 0.0
H423 H 0.33262 0.29767 0.05983 0.0
H424 H 0.2991 0.36156 0.04091 0.0
H425 H 0.28698 0.31613 0.04217 0.0
H426 H 0.40857 0.39009 0.04275 0.0
H427 H 0.37971 0.35994 0.08264 0.0
H428 H 0.31289 0.33001 0.96602 0.0
H429 H 0.33439 0.37048 0.99507 0.0
H430 H 0.29642 0.3377 0.95272 0.0
H431 H 0.31757 0.37741 0.98133 0.0
H432 H 0.35258 0.34499 0.96587 0.0
H433 H 0.39439 0.36496 0.99174 0.0
H434 H 0.36468 0.34602 0.93716 0.0
H435 H 0.40578 0.36562 0.96251 0.0
H436 H 0.38783 0.41317 0.97555 0.0
H437 H 0.3609 0.385 0.93292 0.0
H438 H 0.31268 0.28934 0.97385 0.0
H439 H 0.35833 0.30218 0.97159 0.0
Li440 Li 0.65485 0.98408 0.01591 0.0
Li441 Li 0.64744 0.00147 0.02302 0.0
Li442 Li 0.64181 0.98969 0.99416 0.0
Li443 Li 0.6665 0.00748 0.00156 0.0
C444 C 0.62791 0.97318 0.03307 0.0
N445 N 0.61425 0.95873 0.06412 0.0
C446 C 0.63602 0.9753 0.04859 0.0
C447 C 0.61286 0.96372 0.03334 0.0
C448 C 0.62891 0.96789 0.06415 0.0
C449 C 0.60615 0.95651 0.04917 0.0
C450 C 0.67564 0.01614 0.03617 0.0
C451 C 0.684 0.0415 0.04182 0.0
N452 N 0.69363 0.04182 0.05399 0.0
C453 C 0.68561 0.01672 0.04873 0.0
C454 C 0.6748 0.02862 0.03268 0.0
C455 C 0.69462 0.02981 0.05761 0.0
C456 C 0.67275 0.97448 0.02974 0.0
N457 N 0.65868 0.96974 0.02525 0.0
C458 C 0.65134 0.94587 0.03598 0.0
C459 C 0.64804 0.9557 0.02791 0.0
C460 C 0.66574 0.95054 0.04115 0.0
C461 C 0.67655 0.96501 0.03771 0.0
H462 H 0.68096 0.98572 0.02742 0.0
H463 H 0.63695 0.95219 0.02408 0.0
C464 C 0.62897 0.0109 0.03604 0.0
N465 N 0.63961 0.00813 0.0411 0.0
C466 C 0.62144 0.01417 0.0488 0.0
C467 C 0.63614 0.01191 0.07175 0.0
C468 C 0.64347 0.0088 0.05852 0.0
C469 C 0.62482 0.01442 0.06696 0.0
H470 H 0.62601 0.01008 0.0221 0.0
H471 H 0.65191 0.00645 0.06221 0.0
C472 C 0.65605 0.97557 0.98145 0.0
N473 N 0.64921 0.95004 0.96384 0.0
C474 C 0.66599 0.97518 0.96954 0.0
C475 C 0.64262 0.96297 0.9844 0.0
C476 C 0.66233 0.96217 0.96076 0.0
C477 C 0.63937 0.95018 0.97537 0.0
C478 C 0.65026 0.01783 0.98401 0.0
C479 C 0.65636 0.01572 0.96854 0.0
C480 C 0.64456 0.02715 0.98361 0.0
C481 C 0.65667 0.02301 0.9529 0.0
C482 C 0.64508 0.03424 0.96771 0.0
N483 N 0.65106 0.03204 0.95282 0.0
C484 C 0.6142 0.98061 0.98058 0.0
C485 C 0.63091 0.98201 0.95854 0.0
C486 C 0.60368 0.97765 0.96758 0.0
N487 N 0.62754 0.98293 0.97584 0.0
C488 C 0.62074 0.97915 0.94508 0.0
C489 C 0.60701 0.9772 0.94951 0.0
H490 H 0.61195 0.98166 0.99443 0.0
H491 H 0.64167 0.98407 0.9551 0.0
C492 C 0.6945 0.01761 0.98893 0.0
N493 N 0.68476 0.02202 0.99237 0.0
C494 C 0.70786 0.02711 0.98101 0.0
C495 C 0.70105 0.04566 0.98062 0.0
C496 C 0.68785 0.03582 0.98874 0.0
C497 C 0.7112 0.04129 0.97641 0.0
H498 H 0.69176 0.0066 0.99213 0.0
H499 H 0.67996 0.0391 0.99175 0.0
O500 O 0.63454 0.98038 0.01766 0.0
O501 O 0.66679 0.00336 0.02742 0.0
O502 O 0.65958 0.98827 0.99013 0.0
O503 O 0.64964 0.0107 0.99947 0.0
H504 H 0.64767 0.98257 0.04866 0.0
H505 H 0.60642 0.96198 0.02144 0.0
H506 H 0.63506 0.96943 0.07625 0.0
H507 H 0.5945 0.94915 0.04958 0.0
H508 H 0.68347 0.05123 0.03925 0.0
H509 H 0.68638 0.00714 0.0516 0.0
H510 H 0.66714 0.02841 0.02307 0.0
H511 H 0.70239 0.03041 0.06736 0.0
H512 H 0.64272 0.93476 0.03823 0.0
H513 H 0.68775 0.9691 0.04165 0.0
H514 H 0.61266 0.01584 0.04456 0.0
H515 H 0.63913 0.0121 0.0856 0.0
H516 H 0.67643 0.98485 0.96711 0.0
H517 H 0.63476 0.96304 0.99352 0.0
H518 H 0.66992 0.96171 0.95151 0.0
H519 H 0.62902 0.94035 0.97753 0.0
H520 H 0.66083 0.00856 0.96856 0.0
H521 H 0.63978 0.02887 0.99547 0.0
H522 H 0.66135 0.02147 0.94084 0.0
H523 H 0.6407 0.04149 0.96721 0.0
H524 H 0.59332 0.97643 0.97157 0.0
H525 H 0.6237 0.9788 0.93132 0.0
H526 H 0.71545 0.02334 0.97844 0.0
H527 H 0.70304 0.05641 0.97721 0.0
Li528 Li 0.65067 0.66566 0.33876 0.0
Li529 Li 0.67435 0.6776 0.35352 0.0
Li530 Li 0.65576 0.68484 0.36118 0.0
Li531 Li 0.66921 0.69186 0.33294 0.0
C532 C 0.64497 0.65458 0.37507 0.0
N533 N 0.62512 0.63194 0.39623 0.0
C534 C 0.64778 0.64366 0.38054 0.0
C535 C 0.63212 0.65406 0.38056 0.0
C536 C 0.6376 0.63228 0.39117 0.0
C537 C 0.62221 0.6425 0.3912 0.0
C538 C 0.67907 0.66914 0.32165 0.0
C539 C 0.70275 0.67334 0.31302 0.0
N540 N 0.69697 0.65879 0.31038 0.0
C541 C 0.67332 0.65424 0.31871 0.0
C542 C 0.69387 0.67879 0.31865 0.0
C543 C 0.68257 0.64922 0.31306 0.0
C544 C 0.63625 0.64915 0.30919 0.0
N545 N 0.63663 0.64824 0.32724 0.0
C546 C 0.61911 0.62282 0.32631 0.0
C547 C 0.62819 0.63545 0.33592 0.0
C548 C 0.61878 0.62334 0.30759 0.0
C549 C 0.62738 0.63678 0.29904 0.0
H550 H 0.64319 0.65945 0.30265 0.0
H551 H 0.6286 0.63491 0.35024 0.0
C552 C 0.70037 0.68464 0.37199 0.0
N553 N 0.68872 0.67395 0.36316 0.0
C554 C 0.71053 0.68172 0.37988 0.0
C555 C 0.69657 0.65691 0.36926 0.0
C556 C 0.68665 0.66029 0.3617 0.0
C557 C 0.70864 0.66767 0.37863 0.0
H558 H 0.70166 0.69537 0.37314 0.0
H559 H 0.67715 0.65191 0.35492 0.0
C560 C 0.63446 0.68128 0.33463 0.0
N561 N 0.60723 0.67821 0.33031 0.0
C562 C 0.633 0.69219 0.32617 0.0
C563 C 0.62205 0.66872 0.34064 0.0
C564 C 0.61914 0.69046 0.3242 0.0
C565 C 0.60839 0.66739 0.3384 0.0
C566 C 0.68719 0.71175 0.35648 0.0
C567 C 0.68421 0.72207 0.36385 0.0
C568 C 0.70046 0.71633 0.34782 0.0
C569 C 0.69449 0.73685 0.36216 0.0
C570 C 0.71045 0.73122 0.3464 0.0
N571 N 0.70728 0.74109 0.35352 0.0
C572 C 0.65047 0.6893 0.39681 0.0
C573 C 0.64238 0.69998 0.37532 0.0
C574 C 0.64655 0.69545 0.41069 0.0
N575 N 0.64839 0.69172 0.37955 0.0
C576 C 0.63824 0.70629 0.38875 0.0
C577 C 0.6405 0.70422 0.40672 0.0
H578 H 0.6555 0.68286 0.39977 0.0
H579 H 0.64131 0.70216 0.36152 0.0
C580 C 0.68244 0.70595 0.29998 0.0
N581 N 0.67639 0.70687 0.31558 0.0
C582 C 0.68669 0.71685 0.28706 0.0
C583 C 0.6787 0.7295 0.30679 0.0
C584 C 0.67445 0.71831 0.31914 0.0
C585 C 0.68469 0.72878 0.29032 0.0
H586 H 0.68364 0.69659 0.29739 0.0
H587 H 0.66935 0.71862 0.33151 0.0
O588 O 0.65488 0.66583 0.36472 0.0
O589 O 0.67022 0.67425 0.32733 0.0
O590 O 0.64796 0.68281 0.33661 0.0
O591 O 0.67718 0.69723 0.35779 0.0
H592 H 0.6577 0.64392 0.37658 0.0
H593 H 0.62983 0.66249 0.37675 0.0
H594 H 0.63961 0.62373 0.39542 0.0
H595 H 0.61222 0.64196 0.39549 0.0
H596 H 0.71425 0.68068 0.31073 0.0
H597 H 0.6619 0.64661 0.32098 0.0
H598 H 0.69845 0.69036 0.32067 0.0
H599 H 0.6783 0.63771 0.31085 0.0
H600 H 0.6125 0.61274 0.33347 0.0
H601 H 0.62762 0.63767 0.28464 0.0
H602 H 0.71974 0.69034 0.38692 0.0
H603 H 0.69457 0.64589 0.36823 0.0
H604 H 0.64247 0.70192 0.32127 0.0
H605 H 0.62292 0.66001 0.34681 0.0
H606 H 0.61786 0.69886 0.31778 0.0
H607 H 0.5987 0.65773 0.34303 0.0
H608 H 0.67403 0.71871 0.37069 0.0
H609 H 0.70299 0.70848 0.3422 0.0
H610 H 0.6923 0.74497 0.36771 0.0
H611 H 0.72073 0.73493 0.33963 0.0
H612 H 0.64841 0.69353 0.42436 0.0
H613 H 0.63391 0.71322 0.38508 0.0
H614 H 0.69107 0.71571 0.2745 0.0
H615 H 0.67719 0.73858 0.31011 0.0
Li616 Li 0.30349 0.9789 0.33019 0.0
Li617 Li 0.31113 0.97258 0.35809 0.0
Li618 Li 0.3196 0.9988 0.35075 0.0
Li619 Li 0.32929 0.98526 0.33541 0.0
C620 C 0.28751 0.98325 0.35914 0.0
N621 N 0.2632 0.98513 0.36788 0.0
C622 C 0.27574 0.97174 0.36794 0.0
C623 C 0.287 0.99582 0.35508 0.0
C624 C 0.26352 0.97286 0.37215 0.0
C625 C 0.2746 0.99654 0.35954 0.0
C626 C 0.30661 0.95125 0.33505 0.0
C627 C 0.3095 0.93147 0.34578 0.0
N628 N 0.29622 0.92179 0.33899 0.0
C629 C 0.29304 0.9411 0.32804 0.0
C630 C 0.31497 0.94641 0.34386 0.0
C631 C 0.28796 0.92625 0.33022 0.0
C632 C 0.29138 0.9745 0.29563 0.0
N633 N 0.28813 0.972 0.3133 0.0
C634 C 0.26278 0.95739 0.30679 0.0
C635 C 0.27417 0.9637 0.31904 0.0
C636 C 0.2658 0.95949 0.28842 0.0
C637 C 0.28031 0.96838 0.28288 0.0
H638 H 0.30262 0.98093 0.29144 0.0
H639 H 0.27191 0.96154 0.33309 0.0
C640 C 0.31194 0.9613 0.39216 0.0
N641 N 0.30419 0.95861 0.37681 0.0
C642 C 0.30636 0.95144 0.40635 0.0
C643 C 0.28512 0.93614 0.38846 0.0
C644 C 0.291 0.94636 0.37478 0.0
C645 C 0.29276 0.93869 0.40456 0.0
H646 H 0.32233 0.97123 0.39349 0.0
H647 H 0.28487 0.94469 0.36265 0.0
C648 C 0.32193 0.00795 0.31421 0.0
N649 N 0.32208 0.02935 0.29315 0.0
C650 C 0.33451 0.0177 0.30487 0.0
C651 C 0.30937 0.00897 0.31261 0.0
C652 C 0.33439 0.02848 0.29436 0.0
C653 C 0.30967 0.01988 0.30196 0.0
C654 C 0.34494 0.99506 0.36499 0.0
C655 C 0.35481 0.01003 0.36559 0.0
C656 C 0.34983 0.98526 0.36797 0.0
C657 C 0.3695 0.01494 0.3689 0.0
C658 C 0.36461 0.9906 0.37122 0.0
N659 N 0.37406 0.00521 0.37159 0.0
C660 C 0.31969 0.01633 0.37829 0.0
C661 C 0.33154 0.02973 0.35225 0.0
C662 C 0.3228 0.02908 0.38727 0.0
N663 N 0.32403 0.01687 0.36111 0.0
C664 C 0.3348 0.04275 0.36068 0.0
C665 C 0.33045 0.04255 0.37846 0.0
H666 H 0.3139 0.00595 0.38505 0.0
H667 H 0.33516 0.02995 0.33874 0.0
C668 C 0.34651 0.97586 0.31711 0.0
N669 N 0.34632 0.98758 0.32405 0.0
C670 C 0.35881 0.97767 0.30805 0.0
C671 C 0.37049 0.00357 0.31357 0.0
C672 C 0.35794 0.00126 0.32243 0.0
C673 C 0.37099 0.99169 0.30612 0.0
H674 H 0.33705 0.96513 0.31839 0.0
H675 H 0.35738 0.01041 0.32782 0.0
O676 O 0.29961 0.98235 0.35509 0.0
O677 O 0.31168 0.96583 0.33321 0.0
O678 O 0.32191 0.99734 0.32454 0.0
O679 O 0.33056 0.99005 0.36151 0.0
H680 H 0.27598 0.962 0.37139 0.0
H681 H 0.29612 0.00503 0.34877 0.0
H682 H 0.2543 0.96399 0.37884 0.0
H683 H 0.27406 0.0062 0.35643 0.0
H684 H 0.31581 0.92758 0.35268 0.0
H685 H 0.28647 0.94465 0.32107 0.0
H686 H 0.32552 0.95412 0.34927 0.0
H687 H 0.27745 0.91828 0.32495 0.0
H688 H 0.25175 0.95072 0.31166 0.0
H689 H 0.28314 0.97011 0.26885 0.0
H690 H 0.31254 0.95378 0.41859 0.0
H691 H 0.27448 0.92657 0.3867 0.0
H692 H 0.34429 0.01699 0.30577 0.0
H693 H 0.29944 0.0013 0.31932 0.0
H694 H 0.34407 0.03614 0.28714 0.0
H695 H 0.30002 0.02079 0.30063 0.0
H696 H 0.35119 0.01777 0.36335 0.0
H697 H 0.3423 0.97365 0.36773 0.0
H698 H 0.37728 0.0265 0.36928 0.0
H699 H 0.36857 0.98314 0.37344 0.0
H700 H 0.31946 0.02839 0.40107 0.0
H701 H 0.34061 0.05284 0.35329 0.0
H702 H 0.3588 0.96821 0.3026 0.0
H703 H 0.37954 0.01457 0.31216 0.0
Li704 Li 0.02051 0.32512 0.32533 0.0
Li705 Li 0.02799 0.33885 0.35347 0.0
Li706 Li 0.00136 0.32169 0.34696 0.0
Li707 Li 0.0152 0.34499 0.33195 0.0
C708 C 0.01683 0.30458 0.35381 0.0
N709 N 0.01558 0.27861 0.36207 0.0
C710 C 0.02908 0.30458 0.36061 0.0
C711 C 0.00386 0.29134 0.35156 0.0
C712 C 0.02826 0.29135 0.36459 0.0
C713 C 0.00347 0.27834 0.35572 0.0
C714 C 0.04893 0.3556 0.32961 0.0
C715 C 0.06952 0.37781 0.34042 0.0
N716 N 0.07865 0.37424 0.33199 0.0
C717 C 0.05851 0.3522 0.32095 0.0
C718 C 0.05446 0.36856 0.33932 0.0
C719 C 0.0735 0.36175 0.32234 0.0
C720 C 0.02277 0.31657 0.29022 0.0
N721 N 0.02647 0.3164 0.30754 0.0
C722 C 0.04065 0.30559 0.29932 0.0
C723 C 0.03522 0.31106 0.31227 0.0
C724 C 0.03714 0.30572 0.28128 0.0
C725 C 0.02794 0.31118 0.27681 0.0
H726 H 0.01602 0.32114 0.28679 0.0
H727 H 0.03845 0.31155 0.326 0.0
C728 C 0.04045 0.35067 0.3873 0.0
N729 N 0.04253 0.34563 0.37152 0.0
C730 C 0.05103 0.35535 0.40068 0.0
C731 C 0.0657 0.34973 0.38114 0.0
C732 C 0.05477 0.34496 0.36832 0.0
C733 C 0.06387 0.35496 0.39759 0.0
H734 H 0.03053 0.35095 0.38955 0.0
H735 H 0.05601 0.3406 0.35582 0.0
C736 C 0.99155 0.31476 0.31082 0.0
N737 N 0.97 0.29278 0.29049 0.0
C738 C 0.98207 0.31742 0.30074 0.0
C739 C 0.99017 0.30098 0.31037 0.0
C740 C 0.97122 0.30615 0.29061 0.0
C741 C 0.97919 0.29 0.30006 0.0
C742 C 0.00658 0.35114 0.36191 0.0
C743 C 0.99175 0.34663 0.36205 0.0
C744 C 0.01684 0.36568 0.36547 0.0
C745 C 0.98743 0.35683 0.36553 0.0
C746 C 0.01208 0.37555 0.36886 0.0
N747 N 0.9976 0.37096 0.36881 0.0
C748 C 0.98382 0.30444 0.37478 0.0
C749 C 0.97041 0.30336 0.34903 0.0
C750 C 0.97101 0.29499 0.38387 0.0
N751 N 0.98329 0.30836 0.35768 0.0
C752 C 0.95734 0.29378 0.35754 0.0
C753 C 0.95751 0.28949 0.37524 0.0
H754 H 0.99423 0.30877 0.38139 0.0
H755 H 0.9702 0.30688 0.33561 0.0
C756 C 0.02506 0.37287 0.31661 0.0
N757 N 0.01316 0.36017 0.32166 0.0
C758 C 0.0234 0.38378 0.30854 0.0
C759 C 0.99729 0.36833 0.31109 0.0
C760 C -0.00054 0.35774 0.31912 0.0
C761 C 0.00936 0.38153 0.30556 0.0
H762 H 0.03582 0.37448 0.31865 0.0
H763 H 0.99021 0.34749 0.32319 0.0
O764 O 0.01741 0.31748 0.35009 0.0
O765 O 0.03422 0.34629 0.32855 0.0
O766 O 0.0022 0.32569 0.32086 0.0
O767 O 0.01103 0.34138 0.35815 0.0
H768 H 0.03916 0.31468 0.36267 0.0
H769 H 0.99412 0.29106 0.34684 0.0
H770 H 0.0377 0.29122 0.36972 0.0
H771 H 0.99351 0.26804 0.35399 0.0
H772 H 0.07395 0.38782 0.34801 0.0
H773 H 0.05443 0.34228 0.31326 0.0
H774 H 0.04721 0.37135 0.34612 0.0
H775 H 0.08104 0.35922 0.31577 0.0
H776 H 0.048 0.30184 0.30334 0.0
H777 H 0.02492 0.31145 0.26308 0.0
H778 H 0.04924 0.35928 0.41324 0.0
H779 H 0.07533 0.34901 0.37839 0.0
H780 H 0.98306 0.32805 0.30078 0.0
H781 H 0.99764 0.29884 0.31765 0.0
H782 H 0.96376 0.30803 0.28282 0.0
H783 H 0.97802 0.27928 0.2996 0.0
H784 H 0.98367 0.33541 0.35931 0.0
H785 H 0.02835 0.36932 0.36553 0.0
H786 H 0.97599 0.35352 0.36557 0.0
H787 H 0.0199 0.38686 0.37154 0.0
H788 H 0.9717 0.29225 0.3976 0.0
H789 H 0.94724 0.28973 0.35026 0.0
H790 H 0.03301 0.39384 0.30465 0.0
H791 H 0.98627 0.36603 0.30882 0.0
Li792 Li 0.67714 0.99654 0.3523 0.0
Li793 Li 0.65997 0.97123 0.35899 0.0
Li794 Li 0.67295 0.97896 0.3292 0.0
Li795 Li 0.65322 0.9839 0.33651 0.0
C796 C 0.69409 0.98627 0.3621 0.0
N797 N 0.72039 0.99945 0.37994 0.0
C798 C 0.69447 0.98465 0.38056 0.0
C799 C 0.7071 0.9944 0.35267 0.0
C800 C 0.70787 0.99145 0.38935 0.0
C801 C 0.72028 0.00103 0.36194 0.0
C802 C 0.64613 0.98549 0.37415 0.0
C803 C 0.62053 0.97325 0.38133 0.0
N804 N 0.62376 0.97989 0.39756 0.0
C805 C 0.64918 0.99234 0.39081 0.0
C806 C 0.63168 0.97599 0.3693 0.0
C807 C 0.63773 0.98931 0.4025 0.0
C808 C 0.69943 0.0263 0.35299 0.0
N809 N 0.69102 0.01435 0.36311 0.0
C810 C 0.70164 0.02775 0.38987 0.0
C811 C 0.69192 0.01483 0.38121 0.0
C812 C 0.71047 0.04032 0.3798 0.0
C813 C 0.70931 0.03946 0.3611 0.0
H814 H 0.69838 0.02568 0.33865 0.0
H815 H 0.685 0.00518 0.38892 0.0
C816 C 0.649 0.94273 0.37205 0.0
N817 N 0.65319 0.95662 0.37693 0.0
C818 C 0.64471 0.93186 0.38495 0.0
C819 C 0.64941 0.94985 0.40772 0.0
C820 C 0.65349 0.96034 0.39436 0.0
C821 C 0.64501 0.9354 0.40308 0.0
H822 H 0.64925 0.94014 0.35813 0.0
H823 H 0.65729 0.97154 0.39794 0.0
C824 C 0.67896 0.00359 0.31076 0.0
N825 N 0.69116 0.0154 0.27801 0.0
C826 C 0.67042 0.00461 0.2973 0.0
C827 C 0.69373 0.00871 0.30762 0.0
C828 C 0.67679 0.01058 0.28082 0.0
C829 C 0.69968 0.0146 0.29096 0.0
C830 C 0.63989 0.9527 0.32868 0.0
C831 C 0.63933 0.94738 0.31143 0.0
C832 C 0.62788 0.94534 0.34001 0.0
C833 C 0.62665 0.93497 0.30569 0.0
C834 C 0.61541 0.93295 0.33378 0.0
N835 N 0.61505 0.92807 0.31689 0.0
C836 C 0.68905 0.96708 0.31387 0.0
C837 C 0.67676 0.97388 0.29311 0.0
C838 C 0.69352 0.96126 0.30017 0.0
N839 N 0.68068 0.97307 0.31013 0.0
C840 C 0.68119 0.96845 0.279 0.0
C841 C 0.68939 0.96168 0.28244 0.0
H842 H 0.6918 0.96636 0.32757 0.0
H843 H 0.66973 0.97828 0.29051 0.0
C844 C 0.63664 0.99752 0.33154 0.0
N845 N 0.6383 0.98625 0.32601 0.0
C846 C 0.62677 0.00049 0.32293 0.0
C847 C 0.62034 0.98001 0.30337 0.0
C848 C 0.63039 0.97752 0.31225 0.0
C849 C 0.61858 0.99177 0.30847 0.0
H850 H 0.64327 0.00443 0.34233 0.0
H851 H 0.63217 0.9689 0.30776 0.0
O852 O 0.68106 0.97993 0.35331 0.0
O853 O 0.65725 0.98836 0.36257 0.0
O854 O 0.67287 0.99768 0.32694 0.0
O855 O 0.65228 0.96482 0.33451 0.0
H856 H 0.6845 0.97834 0.38805 0.0
H857 H 0.70701 0.99557 0.33835 0.0
H858 H 0.70832 0.99038 0.40366 0.0
H859 H 0.73043 0.00743 0.35483 0.0
H860 H 0.60929 0.96588 0.37774 0.0
H861 H 0.66029 -0.00013 0.39474 0.0
H862 H 0.62906 0.97089 0.35632 0.0
H863 H 0.63996 0.99446 0.41548 0.0
H864 H 0.702 0.02795 0.40432 0.0
H865 H 0.716 0.04884 0.3528 0.0
H866 H 0.64166 0.92091 0.38083 0.0
H867 H 0.64979 0.95304 0.42154 0.0
H868 H 0.65901 0.0008 0.29951 0.0
H869 H 0.7005 0.00807 0.31789 0.0
H870 H 0.6703 0.01138 0.27027 0.0
H871 H 0.71108 0.01853 0.28832 0.0
H872 H 0.64853 0.95282 0.30252 0.0
H873 H 0.62821 0.94897 0.35356 0.0
H874 H 0.62605 0.93081 0.29234 0.0
H875 H 0.60604 0.92716 0.34242 0.0
H876 H 0.69961 0.95594 0.30357 0.0
H877 H 0.67789 0.96924 0.26559 0.0
H878 H 0.62594 0.00979 0.32717 0.0
H879 H 0.61415 0.97288 0.29247 0.0
Li880 Li 0.02856 0.68837 0.35719 0.0
Li881 Li 0.00266 0.68022 0.35206 0.0
Li882 Li 0.01473 0.67084 0.33461 0.0
Li883 Li 0.02071 0.6953 0.33027 0.0
C884 C 0.01232 0.65658 0.36399 0.0
N885 N 0.0141 0.63175 0.36888 0.0
C886 C -0.00035 0.64307 0.36609 0.0
C887 C 0.02589 0.65746 0.36441 0.0
C888 C 0.00078 0.63065 0.36853 0.0
C889 C 0.02656 0.64479 0.3669 0.0
C890 C 0.0194 0.70641 0.37155 0.0
C891 C 0.02488 0.72711 0.39013 0.0
N892 N 0.02013 0.71825 0.40467 0.0
C893 C 0.01457 0.69751 0.38668 0.0
C894 C 0.02461 0.72133 0.37328 0.0
C895 C 0.01503 0.70371 0.4033 0.0
C896 C 0.05655 0.70719 0.36986 0.0
N897 N 0.0436 0.69542 0.37444 0.0
C898 C 0.05193 0.696 0.40418 0.0
C899 C 0.04115 0.68963 0.39111 0.0
C900 C 0.06534 0.70839 0.39996 0.0
C901 C 0.06766 0.71385 0.38246 0.0
H902 H 0.05808 0.71164 0.35654 0.0
H903 H 0.03069 0.68029 0.39439 0.0
C904 C 0.974 0.66105 0.36207 0.0
N905 N 0.98445 0.67534 0.36259 0.0
C906 C 0.96043 0.65635 0.36993 0.0
C907 C 0.96848 0.68128 0.37817 0.0
C908 C 0.98184 0.68551 0.37001 0.0
C909 C 0.95763 0.66651 0.37835 0.0
H910 H 0.97623 0.6533 0.35555 0.0
H911 H 0.99009 0.69689 0.36963 0.0
C912 C 0.0407 0.68867 0.31604 0.0
N913 N 0.05319 0.69041 0.28307 0.0
C914 C 0.03194 0.68307 0.30089 0.0
C915 C 0.0558 0.69515 0.31443 0.0
C916 C 0.03846 0.68406 0.28434 0.0
C917 C 0.06191 0.69593 0.29764 0.0
C918 C 0.9921 0.68149 0.31914 0.0
C919 C 0.98197 0.67285 0.30617 0.0
C920 C 0.99243 0.69412 0.32518 0.0
C921 C 0.97233 0.67698 0.29945 0.0
C922 C 0.9826 0.69787 0.31814 0.0
N923 N 0.97284 0.6893 0.30553 0.0
C924 C 0.99767 0.64408 0.31781 0.0
C925 C 0.02254 0.65079 0.32016 0.0
C926 C 0.99447 0.63127 0.30892 0.0
N927 N 0.01152 0.65355 0.32308 0.0
C928 C 0.01982 0.63808 0.31133 0.0
C929 C 0.00564 0.62818 0.30547 0.0
H930 H 0.98913 0.64654 0.3205 0.0
H931 H 0.03344 0.65851 0.32457 0.0
C932 C 0.03688 0.72424 0.31955 0.0
N933 N 0.0269 0.71077 0.31365 0.0
C934 C 0.04301 0.73599 0.30778 0.0
C935 C 0.02828 0.71981 0.28411 0.0
C936 C 0.02234 0.70838 0.29639 0.0
C937 C 0.03896 0.73381 0.28969 0.0
H938 H 0.04035 0.72577 0.33334 0.0
H939 H 0.01444 0.69752 0.29202 0.0
O940 O 0.01146 0.66884 0.36106 0.0
O941 O 0.01932 0.70068 0.35514 0.0
O942 O 0.03464 0.68796 0.33241 0.0
O943 O 0.00155 0.67747 0.32578 0.0
H944 H 0.98906 0.64216 0.36578 0.0
H945 H 0.0358 0.66778 0.36249 0.0
H946 H 0.99106 0.62012 0.37012 0.0
H947 H 0.03699 0.64531 0.36715 0.0
H948 H 0.02888 0.73864 0.39166 0.0
H949 H 0.01047 0.68594 0.38562 0.0
H950 H 0.0284 0.72837 0.36171 0.0
H951 H 0.01132 0.69695 0.4151 0.0
H952 H 0.04975 0.6914 0.41748 0.0
H953 H 0.07774 0.7235 0.37871 0.0
H954 H 0.95234 0.64487 0.36973 0.0
H955 H 0.96661 0.68948 0.38418 0.0
H956 H 0.02024 0.67803 0.30184 0.0
H957 H 0.06273 0.69955 0.32604 0.0
H958 H 0.03182 0.67978 0.27251 0.0
H959 H 0.07359 0.70092 0.2962 0.0
H960 H 0.98159 0.66305 0.30133 0.0
H961 H 0.00018 0.70099 0.33516 0.0
H962 H 0.96444 0.67039 0.28941 0.0
H963 H 0.98274 0.70761 0.3227 0.0
H964 H 0.98336 0.62383 0.30488 0.0
H965 H 0.02877 0.63618 0.3088 0.0
H966 H 0.05102 0.74662 0.31277 0.0
H967 H 0.02494 0.71757 0.27027 0.0
Li968 Li 0.31675 0.34192 0.35753 0.0
Li969 Li 0.32365 0.32371 0.35129 0.0
Li970 Li 0.33619 0.34697 0.33494 0.0
Li971 Li 0.31122 0.32878 0.32909 0.0
C972 C 0.34562 0.35607 0.36978 0.0
N973 N 0.3652 0.3816 0.38678 0.0
C974 C 0.35585 0.35623 0.38159 0.0
C975 C 0.34532 0.36888 0.36662 0.0
C976 C 0.36567 0.36925 0.39006 0.0
C977 C 0.35532 0.38168 0.37534 0.0
C978 C 0.2968 0.3079 0.36155 0.0
C979 C 0.28528 0.28172 0.36099 0.0
N980 N 0.28362 0.28143 0.37902 0.0
C981 C 0.29486 0.30734 0.38005 0.0
C982 C 0.29187 0.295 0.35191 0.0
C983 C 0.28821 0.29385 0.38864 0.0
C984 C 0.30273 0.35643 0.37209 0.0
N985 N 0.31051 0.34984 0.37603 0.0
C986 C 0.30762 0.35219 0.40729 0.0
C987 C 0.31331 0.34796 0.3932 0.0
C988 C 0.29888 0.35835 0.40365 0.0
C989 C 0.29674 0.36074 0.38574 0.0
H990 H 0.30083 0.35798 0.35836 0.0
H991 H 0.31965 0.34278 0.39594 0.0
C992 C 0.32856 0.29978 0.35323 0.0
N993 N 0.32687 0.3097 0.36283 0.0
C994 C 0.33138 0.28984 0.36189 0.0
C995 C 0.33066 0.30053 0.39012 0.0
C996 C 0.32793 0.3103 0.38091 0.0
C997 C 0.33249 0.29016 0.38059 0.0
H998 H 0.32786 0.29967 0.33885 0.0
H999 H 0.32674 0.31846 0.38816 0.0
C1000 C 0.31372 0.35356 0.31867 0.0
N1001 N 0.30147 0.35909 0.28938 0.0
C1002 C 0.32171 0.35888 0.30288 0.0
C1003 C 0.29946 0.35097 0.3195 0.0
C1004 C 0.31535 0.36166 0.28825 0.0
C1005 C 0.29346 0.35383 0.30455 0.0
C1006 C 0.32764 0.32143 0.30902 0.0
C1007 C 0.33606 0.33045 0.29501 0.0
C1008 C 0.31806 0.30665 0.30578 0.0
C1009 C 0.33467 0.32452 0.27798 0.0
C1010 C 0.31695 0.30115 0.28854 0.0
N1011 N 0.32521 0.31012 0.27512 0.0
C1012 C 0.36468 0.35734 0.32307 0.0
C1013 C 0.35744 0.37512 0.32267 0.0
C1014 C 0.37807 0.36713 0.31541 0.0
N1015 N 0.35459 0.36138 0.32611 0.0
C1016 C 0.3707 0.38526 0.31498 0.0
C1017 C 0.38112 0.38122 0.31096 0.0
H1018 H 0.36211 0.34635 0.3261 0.0
H1019 H 0.34929 0.3781 0.32554 0.0
C1020 C 0.28227 0.31358 0.31701 0.0
N1021 N 0.29627 0.32069 0.31107 0.0
C1022 C 0.27075 0.30929 0.30506 0.0
C1023 C 0.28819 0.31916 0.28094 0.0
C1024 C 0.29937 0.32341 0.29337 0.0
C1025 C 0.27368 0.31229 0.2868 0.0
H1026 H 0.28005 0.31182 0.33115 0.0
H1027 H 0.31051 0.32959 0.28893 0.0
O1028 O 0.33598 0.34339 0.36139 0.0
O1029 O 0.30362 0.32102 0.35294 0.0
O1030 O 0.3197 0.35055 0.33306 0.0
O1031 O 0.32898 0.32701 0.32585 0.0
H1032 H 0.3562 0.34639 0.38417 0.0
H1033 H 0.33747 0.36897 0.35755 0.0
H1034 H 0.37366 0.36955 0.39923 0.0
H1035 H 0.35522 0.39167 0.37302 0.0
H1036 H 0.28149 0.27165 0.3537 0.0
H1037 H 0.29856 0.31721 0.38771 0.0
H1038 H 0.29316 0.29524 0.33758 0.0
H1039 H 0.28673 0.29326 0.40297 0.0
H1040 H 0.3098 0.35038 0.42087 0.0
H1041 H 0.29 0.36532 0.38223 0.0
H1042 H 0.33262 0.28195 0.35404 0.0
H1043 H 0.33164 0.30129 0.40452 0.0
H1044 H 0.33259 0.36058 0.30176 0.0
H1045 H 0.29292 0.34641 0.33137 0.0
H1046 H 0.3214 0.36573 0.27594 0.0
H1047 H 0.2824 0.35175 0.30497 0.0
H1048 H 0.34344 0.34193 0.29717 0.0
H1049 H 0.31147 0.2995 0.31642 0.0
H1050 H 0.34106 0.33138 0.26701 0.0
H1051 H 0.30953 0.28974 0.28584 0.0
H1052 H 0.38573 0.36351 0.31241 0.0
H1053 H 0.37271 0.3961 0.31204 0.0
H1054 H 0.25969 0.304 0.31009 0.0
H1055 H 0.29091 0.32193 0.26702 0.0
Li1056 Li 0.32127 0.00279 0.67321 0.0
Li1057 Li 0.34337 0.01607 0.68927 0.0
Li1058 Li 0.32479 0.02217 0.69479 0.0
Li1059 Li 0.33818 0.0279 0.66631 0.0
C1060 C 0.3112 0.99433 0.70843 0.0
N1061 N 0.28542 0.97607 0.72595 0.0
C1062 C 0.31102 0.98574 0.72262 0.0
C1063 C 0.29825 0.99367 0.70317 0.0
C1064 C 0.29788 0.97656 0.7313 0.0
C1065 C 0.28533 0.98436 0.71219 0.0
C1066 C 0.34397 0.00016 0.66024 0.0
C1067 C 0.35368 0.98862 0.6414 0.0
N1068 N 0.34932 0.97768 0.65351 0.0
C1069 C 0.33957 0.98879 0.6725 0.0
C1070 C 0.35107 7e-05 0.64456 0.0
C1071 C 0.34238 0.97753 0.66885 0.0
C1072 C 0.30676 0.98466 0.64445 0.0
N1073 N 0.30806 0.98449 0.66247 0.0
C1074 C 0.29164 0.95877 0.66314 0.0
C1075 C 0.30096 0.97184 0.67184 0.0
C1076 C 0.28978 0.95868 0.64457 0.0
C1077 C 0.2976 0.97185 0.6352 0.0
H1078 H 0.31304 0.99475 0.63723 0.0
H1079 H 0.30259 0.97176 0.68603 0.0
C1080 C 0.3565 0.0112 0.71873 0.0
N1081 N 0.35835 0.01454 0.70108 0.0
C1082 C 0.36698 0.00967 0.7281 0.0
C1083 C 0.38119 0.01527 0.70098 0.0
C1084 C 0.37041 0.01667 0.69213 0.0
C1085 C 0.37949 0.01162 0.71919 0.0
H1086 H 0.34685 0.00973 0.72551 0.0
H1087 H 0.37163 0.0194 0.67809 0.0
C1088 C 0.31325 0.02659 0.65911 0.0
N1089 N 0.30768 0.04353 0.63614 0.0
C1090 C 0.31758 0.04099 0.66358 0.0
C1091 C 0.30595 0.02077 0.64304 0.0
C1092 C 0.3147 0.04939 0.65177 0.0
C1093 C 0.30327 0.02951 0.63159 0.0
C1094 C 0.35964 0.0437 0.696 0.0
C1095 C 0.36257 0.04699 0.71412 0.0
C1096 C 0.37117 0.04804 0.68396 0.0
C1097 C 0.37702 0.05451 0.71992 0.0
C1098 C 0.38546 0.05556 0.69028 0.0
N1099 N 0.38807 0.0586 0.70798 0.0
C1100 C 0.32093 0.02976 0.72935 0.0
C1101 C 0.30527 0.0311 0.70792 0.0
C1102 C 0.31566 0.03518 0.74259 0.0
N1103 N 0.31595 0.02819 0.71233 0.0
C1104 C 0.29978 0.03667 0.7207 0.0
C1105 C 0.30517 0.03902 0.73822 0.0
H1106 H 0.32918 0.02702 0.73254 0.0
H1107 H 0.30113 0.02928 0.69445 0.0
C1108 C 0.34325 0.03709 0.63024 0.0
N1109 N 0.34538 0.04172 0.64748 0.0
C1110 C 0.34651 0.04703 0.61635 0.0
C1111 C 0.35449 0.06629 0.63826 0.0
C1112 C 0.3512 0.05603 0.65168 0.0
C1113 C 0.35184 0.06177 0.62037 0.0
H1114 H 0.33843 0.02559 0.62736 0.0
H1115 H 0.35263 0.05937 0.66553 0.0
O1116 O 0.32407 0.00344 0.69999 0.0
O1117 O 0.34133 0.01132 0.66337 0.0
O1118 O 0.3164 0.01835 0.67026 0.0
O1119 O 0.34557 0.036 0.6901 0.0
H1120 H 0.32095 0.98615 0.72687 0.0
H1121 H 0.2981 0.00019 0.69223 0.0
H1122 H 0.29759 0.96984 0.74229 0.0
H1123 H 0.27524 0.98372 0.70825 0.0
H1124 H 0.35917 0.98843 0.62931 0.0
H1125 H 0.33406 0.98861 0.68471 0.0
H1126 H 0.35452 0.00878 0.63492 0.0
H1127 H 0.33903 0.96868 0.67822 0.0
H1128 H 0.28586 0.94889 0.67092 0.0
H1129 H 0.29681 0.97224 0.62082 0.0
H1130 H 0.36534 0.00708 0.74219 0.0
H1131 H 0.3906 0.01675 0.69356 0.0
H1132 H 0.32339 0.04573 0.67587 0.0
H1133 H 0.30237 0.00962 0.63942 0.0
H1134 H 0.31814 0.06059 0.65497 0.0
H1135 H 0.29768 0.02516 0.61907 0.0
H1136 H 0.3538 0.04371 0.72362 0.0
H1137 H 0.36909 0.04542 0.66992 0.0
H1138 H 0.37945 0.05707 0.73391 0.0
H1139 H 0.39448 0.0589 0.68113 0.0
H1140 H 0.32012 0.03685 0.75593 0.0
H1141 H 0.2915 0.03924 0.71689 0.0
H1142 H 0.34421 0.04313 0.60271 0.0
H1143 H 0.35868 0.07759 0.64186 0.0
Li1144 Li 0.99931 0.31722 0.66766 0.0
Li1145 Li 0.98642 0.32692 0.68223 0.0
Li1146 Li 0.97973 0.30183 0.68746 0.0
Li1147 Li 0.97353 0.30946 0.65845 0.0
C1148 C 0.0121 0.32358 0.69802 0.0
N1149 N 0.04071 0.33175 0.70521 0.0
C1150 C 0.02286 0.3383 0.69802 0.0
C1151 C 0.01588 0.31303 0.70183 0.0
C1152 C 0.03727 0.34221 0.70166 0.0
C1153 C 0.03041 0.31738 0.70538 0.0
C1154 C 0.99337 0.34214 0.65167 0.0
C1155 C 0.98547 0.35669 0.63581 0.0
N1156 N 0.9972 0.36898 0.64217 0.0
C1157 C 0.00537 0.35494 0.65801 0.0
C1158 C 0.98334 0.34302 0.64046 0.0
C1159 C 0.0071 0.36839 0.65308 0.0
C1160 C 0.01959 0.31003 0.65282 0.0
N1161 N 0.01759 0.32121 0.65787 0.0
C1162 C 0.04126 0.33862 0.6471 0.0
C1163 C 0.02811 0.33529 0.6552 0.0
C1164 C 0.04356 0.32732 0.64148 0.0
C1165 C 0.03257 0.31286 0.64457 0.0
H1166 H 0.01103 0.29893 0.65488 0.0
H1167 H 0.02625 0.34397 0.65915 0.0
C1168 C 0.99472 0.34746 0.70998 0.0
N1169 N 0.98757 0.34347 0.69412 0.0
C1170 C 0.9962 0.35955 0.71919 0.0
C1171 C 0.98253 0.36298 0.69589 0.0
C1172 C 0.98117 0.35071 0.68725 0.0
C1173 C 0.99027 0.36766 0.71203 0.0
H1174 H 0.99923 0.3412 0.71553 0.0
H1175 H 0.9751 0.34706 0.67494 0.0
C1176 C 0.97781 0.2827 0.66245 0.0
N1177 N 0.96722 0.25303 0.66307 0.0
C1178 C 0.9652 0.27325 0.653 0.0
C1179 C 0.98512 0.27706 0.67207 0.0
C1180 C 0.96 0.25829 0.65351 0.0
C1181 C 0.97956 0.26202 0.67227 0.0
C1182 C 0.95907 0.31371 0.69358 0.0
C1183 C 0.96057 0.31348 0.71208 0.0
C1184 C 0.95029 0.31875 0.68638 0.0
C1185 C 0.95331 0.31839 0.72311 0.0
C1186 C 0.9432 0.32356 0.69787 0.0
N1187 N 0.94485 0.32329 0.71584 0.0
C1188 C 0.9777 0.28792 0.72071 0.0
C1189 C 0.95867 0.27437 0.70017 0.0
C1190 C 0.97079 0.27705 0.73362 0.0
N1191 N 0.97154 0.28638 0.70439 0.0
C1192 C 0.95156 0.26313 0.71248 0.0
C1193 C 0.95745 0.26445 0.72965 0.0
H1194 H 0.98772 0.2978 0.72392 0.0
H1195 H 0.95377 0.27362 0.6873 0.0
C1196 C 0.96347 0.30442 0.62259 0.0
N1197 N 0.95949 0.30286 0.64007 0.0
C1198 C 0.95284 0.29833 0.60929 0.0
C1199 C 0.93434 0.28931 0.63232 0.0
C1200 C 0.94529 0.29558 0.64511 0.0
C1201 C 0.93806 0.29046 0.61415 0.0
H1202 H 0.97489 0.31012 0.61904 0.0
H1203 H 0.94248 0.29431 0.65913 0.0
O1204 O 0.99799 0.31951 0.6941 0.0
O1205 O 0.9915 0.32883 0.65621 0.0
O1206 O 0.98299 0.29739 0.66224 0.0
O1207 O 0.96639 0.30929 0.68257 0.0
H1208 H 0.02016 0.34661 0.69501 0.0
H1209 H 0.00769 0.30161 0.70198 0.0
H1210 H 0.04572 0.35355 0.70158 0.0
H1211 H 0.03349 0.30932 0.70826 0.0
H1212 H 0.97777 0.35752 0.62718 0.0
H1213 H 0.01306 0.35452 0.66703 0.0
H1214 H 0.97396 0.33328 0.63547 0.0
H1215 H 0.01626 0.37836 0.65803 0.0
H1216 H 0.04934 0.34992 0.64475 0.0
H1217 H 0.03394 0.30382 0.64055 0.0
H1218 H 0.00186 0.36244 0.73185 0.0
H1219 H 0.9778 0.36886 0.68979 0.0
H1220 H 0.95944 0.2774 0.64538 0.0
H1221 H 0.99489 0.28418 0.67944 0.0
H1222 H 0.95021 0.25085 0.64632 0.0
H1223 H 0.98505 0.25751 0.67976 0.0
H1224 H 0.96743 0.30973 0.71784 0.0
H1225 H 0.94915 0.31915 0.67208 0.0
H1226 H 0.95443 0.31835 0.73745 0.0
H1227 H 0.93644 0.32757 0.69249 0.0
H1228 H 0.97564 0.27878 0.74674 0.0
H1229 H 0.94146 0.25358 0.70859 0.0
H1230 H 0.95615 0.29932 0.59545 0.0
H1231 H 0.92308 0.28344 0.63662 0.0
Li1232 Li 0.68358 0.67894 0.66848 0.0
Li1233 Li 0.67185 0.65577 0.68403 0.0
Li1234 Li 0.69826 0.67456 0.68974 0.0
Li1235 Li 0.69093 0.66034 0.66184 0.0
C1236 C 0.67742 0.686 0.70045 0.0
N1237 N 0.6714 0.70722 0.71163 0.0
C1238 C 0.66302 0.68257 0.70317 0.0
C1239 C 0.68877 0.70016 0.70372 0.0
C1240 C 0.66019 0.69346 0.70873 0.0
C1241 C 0.6855 0.71075 0.70929 0.0
C1242 C 0.66005 0.64783 0.64985 0.0
C1243 C 0.64746 0.62309 0.63902 0.0
N1244 N 0.63627 0.62487 0.6335 0.0
C1245 C 0.64851 0.64948 0.64386 0.0
C1246 C 0.65959 0.63458 0.64724 0.0
C1247 C 0.63655 0.63772 0.63571 0.0
C1248 C 0.69016 0.70462 0.64937 0.0
N1249 N 0.67961 0.69285 0.65818 0.0
C1250 C 0.66199 0.69974 0.65114 0.0
C1251 C 0.66573 0.69025 0.65917 0.0
C1252 C 0.67262 0.71197 0.64184 0.0
C1253 C 0.6869 0.71441 0.64111 0.0
H1254 H 0.70103 0.70626 0.64843 0.0
H1255 H 0.65751 0.68069 0.66604 0.0
C1256 C 0.65394 0.63272 0.70757 0.0
N1257 N 0.65405 0.64178 0.69472 0.0
C1258 C 0.6409 0.62287 0.71597 0.0
C1259 C 0.62844 0.63206 0.69798 0.0
C1260 C 0.64169 0.64168 0.68989 0.0
C1261 C 0.62792 0.62249 0.71125 0.0
H1262 H 0.66399 0.63327 0.71147 0.0
H1263 H 0.64218 0.64934 0.68008 0.0
C1264 C 0.71769 0.69221 0.66373 0.0
N1265 N 0.74685 0.71323 0.66202 0.0
C1266 C 0.72762 0.68917 0.6553 0.0
C1267 C 0.72257 0.70601 0.67107 0.0
C1268 C 0.74232 0.69992 0.65462 0.0
C1269 C 0.73736 0.71646 0.67014 0.0
C1270 C 0.69096 0.64149 0.68929 0.0
C1271 C 0.70394 0.64357 0.69667 0.0
C1272 C 0.67993 0.62743 0.68486 0.0
C1273 C 0.7058 0.63158 0.69914 0.0
C1274 C 0.6822 0.61571 0.68754 0.0
N1275 N 0.69499 0.61801 0.69454 0.0
C1276 C 0.70955 0.6849 0.72415 0.0
C1277 C 0.72658 0.68485 0.70368 0.0
C1278 C 0.71988 0.68975 0.73782 0.0
N1279 N 0.71306 0.68253 0.70749 0.0
C1280 C 0.73728 0.68991 0.71684 0.0
C1281 C 0.73394 0.69227 0.73421 0.0
H1282 H 0.69864 0.68271 0.72691 0.0
H1283 H 0.72894 0.68232 0.69058 0.0
C1284 C 0.6934 0.65296 0.62646 0.0
N1285 N 0.6974 0.65244 0.64355 0.0
C1286 C 0.69882 0.64841 0.61239 0.0
C1287 C 0.7122 0.6427 0.63378 0.0
C1288 C 0.70661 0.64745 0.6474 0.0
C1289 C 0.70844 0.6433 0.61598 0.0
H1290 H 0.68623 0.65719 0.62375 0.0
H1291 H 0.71009 0.64766 0.66095 0.0
O1292 O 0.6804 0.67552 0.69478 0.0
O1293 O 0.67183 0.65923 0.65792 0.0
O1294 O 0.70327 0.68178 0.66459 0.0
O1295 O 0.68897 0.65314 0.68682 0.0
H1296 H 0.65411 0.67164 0.70086 0.0
H1297 H 0.69997 0.70292 0.70207 0.0
H1298 H 0.64909 0.69099 0.71074 0.0
H1299 H 0.69418 0.72177 0.71179 0.0
H1300 H 0.64696 0.61276 0.63696 0.0
H1301 H 0.64875 0.6597 0.64556 0.0
H1302 H 0.66857 0.63322 0.65135 0.0
H1303 H 0.6275 0.63881 0.63113 0.0
H1304 H 0.65088 0.69751 0.65219 0.0
H1305 H 0.69538 0.72356 0.63383 0.0
H1306 H 0.64101 0.61564 0.72605 0.0
H1307 H 0.61878 0.6324 0.69419 0.0
H1308 H 0.72404 0.67861 0.64941 0.0
H1309 H 0.71503 0.70863 0.67739 0.0
H1310 H 0.75013 0.69769 0.64822 0.0
H1311 H 0.74128 0.72716 0.67584 0.0
H1312 H 0.71253 0.65433 0.70035 0.0
H1313 H 0.66965 0.62553 0.67964 0.0
H1314 H 0.71583 0.63305 0.70472 0.0
H1315 H 0.67376 0.60478 0.68413 0.0
H1316 H 0.7169 0.69142 0.75108 0.0
H1317 H 0.7479 0.6914 0.71364 0.0
H1318 H 0.69564 0.64903 0.59884 0.0
H1319 H 0.71984 0.63915 0.63709 0.0
Li1320 Li 0.34033 0.32813 0.68639 0.0
Li1321 Li 0.3228 0.30236 0.69113 0.0
Li1322 Li 0.3366 0.31058 0.66238 0.0
Li1323 Li 0.31661 0.31543 0.66918 0.0
C1324 C 0.35843 0.31603 0.69 0.0
N1325 N 0.3874 0.32507 0.696 0.0
C1326 C 0.36257 0.31173 0.70547 0.0
C1327 C 0.369 0.32481 0.67751 0.0
C1328 C 0.37728 0.31645 0.70829 0.0
C1329 C 0.38359 0.3293 0.6808 0.0
C1330 C 0.31189 0.3165 0.71034 0.0
C1331 C 0.28865 0.30512 0.72532 0.0
N1332 N 0.29555 0.3105 0.74115 0.0
C1333 C 0.31875 0.32208 0.7267 0.0
C1334 C 0.29672 0.30809 0.70958 0.0
C1335 C 0.3103 0.31886 0.74215 0.0
C1336 C 0.3544 0.35829 0.69128 0.0
N1337 N 0.35363 0.34593 0.69752 0.0
C1338 C 0.3711 0.3593 0.72018 0.0
C1339 C 0.36161 0.34615 0.71177 0.0
C1340 C 0.3722 0.37231 0.71402 0.0
C1341 C 0.36367 0.37167 0.69936 0.0
H1342 H 0.34767 0.35772 0.68015 0.0
H1343 H 0.3605 0.33612 0.71676 0.0
C1344 C 0.30668 0.27335 0.70409 0.0
N1345 N 0.31582 0.28746 0.70874 0.0
C1346 C 0.30239 0.26229 0.71673 0.0
C1347 C 0.31704 0.28048 0.7387 0.0
C1348 C 0.32111 0.29117 0.72561 0.0
C1349 C 0.30766 0.2658 0.73427 0.0
H1350 H 0.30301 0.2706 0.69048 0.0
H1351 H 0.32882 0.3024 0.72878 0.0
C1352 C 0.34337 0.33827 0.64664 0.0
N1353 N 0.35693 0.35687 0.61827 0.0
C1354 C 0.33528 0.3379 0.63176 0.0
C1355 C 0.35832 0.34825 0.64721 0.0
C1356 C 0.34235 0.34735 0.61752 0.0
C1357 C 0.36498 0.35752 0.6327 0.0
C1358 C 0.30334 0.28599 0.65825 0.0
C1359 C 0.3041 0.28095 0.64125 0.0
C1360 C 0.28986 0.28041 0.66677 0.0
C1361 C 0.29129 0.27045 0.633 0.0
C1362 C 0.27731 0.26992 0.65806 0.0
N1363 N 0.27828 0.26521 0.6415 0.0
C1364 C 0.35038 0.29621 0.64803 0.0
C1365 C 0.34464 0.30892 0.62661 0.0
C1366 C 0.35524 0.29052 0.63464 0.0
N1367 N 0.34511 0.30512 0.6438 0.0
C1368 C 0.34944 0.30353 0.6128 0.0
C1369 C 0.35457 0.29397 0.61669 0.0
H1370 H 0.35032 0.29311 0.66179 0.0
H1371 H 0.34003 0.31566 0.6235 0.0
C1372 C 0.30137 0.33025 0.66512 0.0
N1373 N 0.30228 0.31877 0.65868 0.0
C1374 C 0.29239 0.33456 0.6568 0.0
C1375 C 0.28504 0.31478 0.63582 0.0
C1376 C 0.29436 0.31105 0.64432 0.0
C1377 C 0.28418 0.32689 0.64176 0.0
H1378 H 0.30803 0.33638 0.67635 0.0
H1379 H 0.29559 0.3023 0.63898 0.0
O1380 O 0.34409 0.31157 0.68712 0.0
O1381 O 0.31999 0.31947 0.6951 0.0
O1382 O 0.33659 0.32921 0.66078 0.0
O1383 O 0.31576 0.29633 0.66645 0.0
H1384 H 0.3545 0.30489 0.71524 0.0
H1385 H 0.36594 0.32803 0.66535 0.0
H1386 H 0.38065 0.31327 0.72024 0.0
H1387 H 0.39189 0.33611 0.67125 0.0
H1388 H 0.2769 0.29857 0.72495 0.0
H1389 H 0.33049 0.32872 0.72746 0.0
H1390 H 0.29125 0.30397 0.69695 0.0
H1391 H 0.31546 0.323 0.75494 0.0
H1392 H 0.37754 0.35925 0.73133 0.0
H1393 H 0.36392 0.38135 0.69437 0.0
H1394 H 0.29514 0.25111 0.71276 0.0
H1395 H 0.32161 0.28362 0.75197 0.0
H1396 H 0.3237 0.33032 0.63113 0.0
H1397 H 0.3647 0.34895 0.65878 0.0
H1398 H 0.33624 0.3471 0.60587 0.0
H1399 H 0.37654 0.36527 0.63295 0.0
H1400 H 0.31445 0.28513 0.63449 0.0
H1401 H 0.2891 0.28412 0.67996 0.0
H1402 H 0.2917 0.26648 0.61983 0.0
H1403 H 0.2668 0.26553 0.66448 0.0
H1404 H 0.35884 0.28298 0.63825 0.0
H1405 H 0.34881 0.30656 0.59918 0.0
H1406 H 0.29233 0.34411 0.66172 0.0
H1407 H 0.27879 0.30836 0.62449 0.0
Li1408 Li 0.6726 0.01723 0.68644 0.0
Li1409 Li 0.69761 0.02242 0.69127 0.0
Li1410 Li 0.691 0.03001 0.66277 0.0
Li1411 Li 0.68327 0.00451 0.6688 0.0
C1412 C 0.6893 0.04826 0.69142 0.0
N1413 N 0.68643 0.07217 0.69896 0.0
C1414 C 0.69575 0.0566 0.7067 0.0
C1415 C 0.68152 0.05217 0.67989 0.0
C1416 C 0.69413 0.06862 0.71031 0.0
C1417 C 0.68016 0.06427 0.68395 0.0
C1418 C 0.68087 0.99872 0.71087 0.0
C1419 C 0.69091 0.98704 0.72871 0.0
N1420 N 0.68486 0.98925 0.74354 0.0
C1421 C 0.67462 0.00074 0.72624 0.0
C1422 C 0.68897 0.99169 0.71206 0.0
C1423 C 0.67681 0.99592 0.74265 0.0
C1424 C 0.6426 0.00303 0.69348 0.0
N1425 N 0.65558 0.01482 0.69791 0.0
C1426 C 0.64412 0.02212 0.71975 0.0
C1427 C 0.65657 0.02425 0.71084 0.0
C1428 C 0.63051 0.00994 0.71566 0.0
C1429 C 0.62986 0.00034 0.70224 0.0
H1430 H 0.64219 0.99558 0.68332 0.0
H1431 H 0.66703 0.03331 0.71451 0.0
C1432 C 0.72586 0.03136 0.70461 0.0
N1433 N 0.71227 0.02853 0.70905 0.0
C1434 C 0.73701 0.03719 0.71726 0.0
C1435 C 0.71987 0.03674 0.7389 0.0
C1436 C 0.70911 0.03108 0.72579 0.0
C1437 C 0.73409 0.04007 0.73462 0.0
H1438 H 0.72816 0.02952 0.69111 0.0
H1439 H 0.69833 0.02916 0.7288 0.0
C1440 C 0.66246 0.01306 0.64736 0.0
N1441 N 0.64453 0.01332 0.62089 0.0
C1442 C 0.66124 0.00611 0.63107 0.0
C1443 C 0.65431 0.01987 0.65033 0.0
C1444 C 0.6522 0.00645 0.61781 0.0
C1445 C 0.64537 0.01996 0.63675 0.0
C1446 C 0.7113 0.01658 0.65702 0.0
C1447 C 0.7159 0.02162 0.63966 0.0
C1448 C 0.71472 0.00666 0.66458 0.0
C1449 C 0.72366 0.01646 0.63004 0.0
C1450 C 0.72248 0.00174 0.65451 0.0
N1451 N 0.72675 0.00669 0.63759 0.0
C1452 C 0.70784 0.05853 0.65029 0.0
C1453 C 0.69447 0.04153 0.6275 0.0
C1454 C 0.71428 0.06975 0.63783 0.0
N1455 N 0.6981 0.04476 0.64498 0.0
C1456 C 0.70073 0.05242 0.61454 0.0
C1457 C 0.71091 0.06673 0.61964 0.0
H1458 H 0.71083 0.06076 0.6642 0.0
H1459 H 0.68715 0.03043 0.62351 0.0
C1460 C 0.67081 0.97399 0.66687 0.0
N1461 N 0.67876 0.98663 0.6577 0.0
C1462 C 0.667 0.96066 0.65881 0.0
C1463 C 0.67981 0.97368 0.63218 0.0
C1464 C 0.6831 0.98669 0.6406 0.0
C1465 C 0.67162 0.96048 0.6413 0.0
H1466 H 0.66734 0.97425 0.68037 0.0
H1467 H 0.68898 0.99683 0.63341 0.0
O1468 O 0.69075 0.03644 0.68775 0.0
O1469 O 0.67897 0.00349 0.69472 0.0
O1470 O 0.67114 0.01267 0.66056 0.0
O1471 O 0.70358 0.02142 0.66658 0.0
H1472 H 0.7019 0.05379 0.71571 0.0
H1473 H 0.67677 0.04606 0.66782 0.0
H1474 H 0.69901 0.07514 0.72212 0.0
H1475 H 0.67418 0.06742 0.67513 0.0
H1476 H 0.69722 0.98165 0.72985 0.0
H1477 H 0.66826 0.0061 0.72554 0.0
H1478 H 0.69369 0.98984 0.70025 0.0
H1479 H 0.67212 0.99751 0.75468 0.0
H1480 H 0.64519 0.02994 0.72979 0.0
H1481 H 0.6197 0.99067 0.69881 0.0
H1482 H 0.74784 0.03962 0.71345 0.0
H1483 H 0.71724 0.03907 0.75203 0.0
H1484 H 0.66732 0.00061 0.62862 0.0
H1485 H 0.65473 0.02491 0.66303 0.0
H1486 H 0.65126 0.00122 0.60508 0.0
H1487 H 0.63904 0.02525 0.63884 0.0
H1488 H 0.71344 0.02938 0.63365 0.0
H1489 H 0.71136 0.00276 0.67804 0.0
H1490 H 0.72722 0.0202 0.61655 0.0
H1491 H 0.72512 0.99399 0.66016 0.0
H1492 H 0.72198 0.08064 0.6424 0.0
H1493 H 0.69803 0.04954 0.60064 0.0
H1494 H 0.66063 0.95064 0.66619 0.0
H1495 H 0.68335 0.97389 0.61856 0.0
Li1496 Li 0.97768 0.67434 0.68842 0.0
Li1497 Li 0.98343 0.65556 0.68239 0.0
Li1498 Li 0.99617 0.67845 0.66691 0.0
Li1499 Li 0.97106 0.66159 0.66018 0.0
C1500 C 0.00607 0.68786 0.70111 0.0
N1501 N 0.02557 0.71371 0.7176 0.0
C1502 C 0.01628 0.68827 0.71316 0.0
C1503 C 0.00576 0.7006 0.69747 0.0
C1504 C 0.02605 0.70144 0.72136 0.0
C1505 C 0.01571 0.71355 0.70593 0.0
C1506 C 0.95706 0.64692 0.69986 0.0
C1507 C 0.93521 0.63154 0.71664 0.0
N1508 N 0.94337 0.63401 0.73159 0.0
C1509 C 0.96523 0.64929 0.7154 0.0
C1510 C 0.94193 0.63797 0.70047 0.0
C1511 C 0.95811 0.64267 0.7313 0.0
C1512 C 0.96032 0.68532 0.70026 0.0
N1513 N 0.9707 0.68236 0.70585 0.0
C1514 C 0.96789 0.68791 0.73601 0.0
C1515 C 0.97476 0.68379 0.72327 0.0
C1516 C 0.95673 0.69055 0.73072 0.0
C1517 C 0.95321 0.68953 0.7125 0.0
H1518 H 0.95726 0.68397 0.68633 0.0
H1519 H 0.98294 0.68119 0.7274 0.0
C1520 C -0.00062 0.64393 0.69755 0.0
N1521 N 0.98571 0.64046 0.69261 0.0
C1522 C 0.00178 0.63362 0.70596 0.0
C1523 C 0.976 0.61629 0.70385 0.0
C1524 C 0.97411 0.62691 0.69535 0.0
C1525 C 0.98997 0.61964 0.70939 0.0
H1526 H 0.00839 0.65481 0.69517 0.0
H1527 H 0.96336 0.62438 0.69117 0.0
C1528 C 0.98109 0.68968 0.64851 0.0
N1529 N 0.98279 0.70341 0.61657 0.0
C1530 C 0.98677 0.68663 0.63333 0.0
C1531 C 0.97628 0.69971 0.64745 0.0
C1532 C 0.98754 0.69369 0.61731 0.0
C1533 C 0.97722 0.70653 0.63118 0.0
C1534 C 0.98352 0.64553 0.64838 0.0
C1535 C 0.99289 0.64393 0.63669 0.0
C1536 C 0.96966 0.63366 0.65176 0.0
C1537 C 0.98824 0.63045 0.62857 0.0
C1538 C 0.96542 0.62036 0.64338 0.0
N1539 N 0.97472 0.61904 0.63206 0.0
C1540 C 0.02373 0.68724 0.65272 0.0
C1541 C 0.01828 0.70628 0.65429 0.0
C1542 C 0.03711 0.69651 0.64462 0.0
N1543 N 0.01459 0.6922 0.65718 0.0
C1544 C 0.03149 0.71589 0.64609 0.0
C1545 C 0.04104 0.711 0.641 0.0
H1546 H 0.0205 0.67598 0.65522 0.0
H1547 H 0.01086 0.70999 0.65809 0.0
C1548 C 0.94302 0.65182 0.64781 0.0
N1549 N 0.95637 0.6546 0.64236 0.0
C1550 C 0.93179 0.64767 0.63549 0.0
C1551 C 0.94825 0.64921 0.61212 0.0
C1552 C 0.95914 0.6532 0.62496 0.0
C1553 C 0.93438 0.64655 0.61729 0.0
H1554 H 0.94119 0.6531 0.66173 0.0
H1555 H 0.96988 0.65553 0.62097 0.0
O1556 O 0.99648 0.675 0.69301 0.0
O1557 O 0.96373 0.65334 0.68411 0.0
O1558 O 0.98015 0.6829 0.66438 0.0
O1559 O 0.98801 0.6587 0.65639 0.0
H1560 H 0.01665 0.67849 0.71614 0.0
H1561 H 0.99792 0.70052 0.68825 0.0
H1562 H 0.03402 0.70191 0.73071 0.0
H1563 H 0.01559 0.72349 0.70322 0.0
H1564 H 0.92351 0.62459 0.7173 0.0
H1565 H 0.97695 0.65616 0.71522 0.0
H1566 H 0.93545 0.636 0.68857 0.0
H1567 H 0.9643 0.64443 0.74341 0.0
H1568 H 0.97083 0.68839 0.74992 0.0
H1569 H 0.94484 0.69166 0.70779 0.0
H1570 H 0.0127 0.63666 0.71015 0.0
H1571 H 0.96663 0.60559 0.70606 0.0
H1572 H 0.99057 0.67893 0.63387 0.0
H1573 H 0.97185 0.70218 0.65909 0.0
H1574 H 0.99191 0.69143 0.60546 0.0
H1575 H 0.97353 0.71432 0.63016 0.0
H1576 H 0.00365 0.65303 0.63392 0.0
H1577 H 0.96222 0.63466 0.6607 0.0
H1578 H 0.99539 0.62906 0.6195 0.0
H1579 H 0.95473 0.61108 0.64588 0.0
H1580 H 0.04411 0.69227 0.64076 0.0
H1581 H 0.0342 0.72703 0.64373 0.0
H1582 H 0.92123 0.64546 0.64019 0.0
H1583 H 0.95082 0.64866 0.59825 0.0
C1584 C 0.20258 0.32007 0.13179 0.0
C1585 C 0.20153 0.31181 0.11659 0.0
C1586 C 0.19027 0.31647 0.14212 0.0
C1587 C 0.17671 0.3045 0.1375 0.0
C1588 C 0.18792 0.29985 0.11198 0.0
C1589 C 0.1756 0.29631 0.12228 0.0
C1590 C 0.16349 0.3011 0.14776 0.0
C1591 C 0.19258 0.29336 0.18433 0.0
C1592 C 0.19628 0.30153 0.20024 0.0
C1593 C 0.18151 0.29243 0.17332 0.0
C1594 C 0.1741 0.29985 0.17785 0.0
C1595 C 0.18851 0.30854 0.20495 0.0
C1596 C 0.17759 0.30771 0.19389 0.0
C1597 C 0.16241 0.29926 0.16648 0.0
C1598 C 0.10048 0.28525 0.18135 0.0
C1599 C 0.10317 0.29271 0.19768 0.0
C1600 C 0.11207 0.28661 0.17095 0.0
C1601 C 0.12653 0.29573 0.17653 0.0
C1602 C 0.11762 0.30157 0.20336 0.0
C1603 C 0.12916 0.30304 0.19292 0.0
C1604 C 0.13908 0.29748 0.16586 0.0
C1605 C 0.11732 0.31534 0.13113 0.0
C1606 C 0.11212 0.30814 0.11472 0.0
C1607 C 0.12628 0.31241 0.14182 0.0
C1608 C 0.13004 0.30205 0.13648 0.0
C1609 C 0.11599 0.29785 0.10932 0.0
C1610 C 0.12493 0.29488 0.12008 0.0
C1611 C 0.14032 0.29962 0.14718 0.0
H1612 H 0.21294 0.32929 0.13571 0.0
H1613 H 0.19131 0.32317 0.15357 0.0
H1614 H 0.18674 0.29342 0.1002 0.0
H1615 H 0.16518 0.28717 0.11835 0.0
H1616 H 0.19833 0.28783 0.18027 0.0
H1617 H 0.17873 0.28587 0.16132 0.0
H1618 H 0.19076 0.31459 0.21731 0.0
H1619 H 0.17192 0.31337 0.19785 0.0
H1620 H 0.08943 0.27821 0.17677 0.0
H1621 H 0.1097 0.28047 0.15865 0.0
H1622 H 0.12003 0.30759 0.21578 0.0
H1623 H 0.14019 0.31009 0.19757 0.0
H1624 H 0.11481 0.32356 0.13549 0.0
H1625 H 0.13054 0.31851 0.15409 0.0
H1626 H 0.11209 0.29207 0.0968 0.0
H1627 H 0.12787 0.287 0.11557 0.0
N1628 N 0.15239 0.30116 0.13885 0.0
N1629 N 0.15023 0.2975 0.17472 0.0
C1630 C 0.6851 0.88167 0.12985 0.0
C1631 C 0.69366 0.8889 0.11483 0.0
C1632 C 0.68847 0.87302 0.1405 0.0
C1633 C 0.70053 0.87147 0.13646 0.0
C1634 C 0.70563 0.88715 0.11068 0.0
C1635 C 0.70896 0.87842 0.12134 0.0
C1636 C 0.70371 0.86186 0.1474 0.0
C1637 C 0.71192 0.9001 0.18171 0.0
C1638 C 0.70304 0.89621 0.19701 0.0
C1639 C 0.71281 0.88944 0.17166 0.0
C1640 C 0.70469 0.87471 0.17664 0.0
C1641 C 0.69535 0.88152 0.20224 0.0
C1642 C 0.69617 0.87092 0.19218 0.0
C1643 C 0.70504 0.86304 0.16618 0.0
C1644 C 0.71315 0.81259 0.1874 0.0
C1645 C 0.70389 0.80804 0.20239 0.0
C1646 C 0.71356 0.82311 0.17578 0.0
C1647 C 0.70467 0.82918 0.17894 0.0
C1648 C 0.69495 0.8141 0.20534 0.0
C1649 C 0.69543 0.8246 0.19384 0.0
C1650 C 0.70507 0.84061 0.16732 0.0
C1651 C 0.68497 0.80028 0.13335 0.0
C1652 C 0.69325 0.80111 0.11829 0.0
C1653 C 0.68866 0.81269 0.14348 0.0
C1654 C 0.70076 0.82615 0.1388 0.0
C1655 C 0.70546 0.81456 0.11373 0.0
C1656 C 0.70909 0.82702 0.12381 0.0
C1657 C 0.70383 0.83947 0.14856 0.0
H1658 H 0.6756 0.88245 0.1332 0.0
H1659 H 0.68152 0.86736 0.15178 0.0
H1660 H 0.71251 0.89264 0.09929 0.0
H1661 H 0.7182 0.8772 0.11788 0.0
H1662 H 0.718 0.91132 0.17735 0.0
H1663 H 0.71981 0.89272 0.16002 0.0
H1664 H 0.68869 0.87818 0.21418 0.0
H1665 H 0.68994 0.85967 0.19645 0.0
H1666 H 0.72026 0.80823 0.18483 0.0
H1667 H 0.72098 0.82666 0.16452 0.0
H1668 H 0.68744 0.81062 0.21649 0.0
H1669 H 0.68842 0.82907 0.19652 0.0
H1670 H 0.67555 0.79005 0.13722 0.0
H1671 H 0.68183 0.81184 0.15471 0.0
H1672 H 0.71193 0.81552 0.10207 0.0
H1673 H 0.71832 0.83736 0.11984 0.0
N1674 N 0.70328 0.85018 0.1393 0.0
N1675 N 0.70562 0.85234 0.17534 0.0
C1676 C 0.11007 0.80294 0.13079 0.0
C1677 C 0.10504 0.80516 0.11443 0.0
C1678 C 0.11909 0.81474 0.1417 0.0
C1679 C 0.12299 0.82897 0.13665 0.0
C1680 C 0.10899 0.81941 0.10938 0.0
C1681 C 0.11791 0.8312 0.12037 0.0
C1682 C 0.13351 0.84166 0.14728 0.0
C1683 C 0.0951 0.81554 0.18443 0.0
C1684 C 0.09897 0.81166 0.20057 0.0
C1685 C 0.10591 0.82559 0.17292 0.0
C1686 C 0.12072 0.83162 0.17726 0.0
C1687 C 0.11376 0.81771 0.2048 0.0
C1688 C 0.12449 0.82757 0.19331 0.0
C1689 C 0.13257 0.84271 0.16599 0.0
C1690 C 0.18455 0.90195 0.18329 0.0
C1691 C 0.18775 0.89812 0.19991 0.0
C1692 C 0.17412 0.89122 0.17207 0.0
C1693 C 0.16703 0.87647 0.17715 0.0
C1694 C 0.18058 0.88341 0.20496 0.0
C1695 C 0.17035 0.87273 0.19372 0.0
C1696 C 0.1556 0.86479 0.16599 0.0
C1697 C 0.19602 0.88356 0.13235 0.0
C1698 C 0.19513 0.88956 0.11603 0.0
C1699 C 0.18357 0.87529 0.14265 0.0
C1700 C 0.17 0.87306 0.137 0.0
C1701 C 0.1815 0.88715 0.11027 0.0
C1702 C 0.16904 0.87892 0.12064 0.0
C1703 C 0.15666 0.8636 0.14734 0.0
H1704 H 0.10744 0.79211 0.13486 0.0
H1705 H 0.12333 0.81275 0.15384 0.0
H1706 H 0.1052 0.82145 0.09689 0.0
H1707 H 0.12096 0.84211 0.11608 0.0
H1708 H 0.08376 0.81107 0.18092 0.0
H1709 H 0.1027 0.8288 0.16085 0.0
H1710 H 0.11708 0.81474 0.217 0.0
H1711 H 0.1358 0.83203 0.19699 0.0
H1712 H 0.18987 0.91324 0.17917 0.0
H1713 H 0.17148 0.89447 0.15961 0.0
H1714 H 0.18297 0.88013 0.21759 0.0
H1715 H 0.16504 0.86147 0.198 0.0
H1716 H 0.2063 0.88495 0.13696 0.0
H1717 H 0.18452 0.87041 0.15488 0.0
H1718 H 0.18049 0.89169 0.0978 0.0
H1719 H 0.15864 0.87713 0.1159 0.0
N1720 N 0.14549 0.8522 0.13871 0.0
N1721 N 0.14363 0.85426 0.17448 0.0
C1722 C 0.30387 0.10956 0.83885 0.0
C1723 C 0.29109 0.10064 0.82912 0.0
C1724 C 0.3049 0.12076 0.84965 0.0
C1725 C 0.29317 0.12327 0.85103 0.0
C1726 C 0.27929 0.10309 0.83071 0.0
C1727 C 0.28038 0.11439 0.84144 0.0
C1728 C 0.29472 0.13588 0.86125 0.0
C1729 C 0.29453 0.10462 0.90177 0.0
C1730 C 0.30814 0.10979 0.91006 0.0
C1731 C 0.29172 0.11397 0.89164 0.0
C1732 C 0.30245 0.12866 0.88966 0.0
C1733 C 0.31881 0.12456 0.90806 0.0
C1734 C 0.31593 0.13391 0.89812 0.0
C1735 C 0.29969 0.13872 0.87906 0.0
C1736 C 0.29729 0.19327 0.8961 0.0
C1737 C 0.30986 0.20044 0.90677 0.0
C1738 C 0.29403 0.18053 0.88691 0.0
C1739 C 0.30345 0.17486 0.88785 0.0
C1740 C 0.319 0.19447 0.9081 0.0
C1741 C 0.31583 0.18183 0.89876 0.0
C1742 C 0.30033 0.16147 0.87805 0.0
C1743 C 0.3071 0.1939 0.83544 0.0
C1744 C 0.29466 0.1903 0.82518 0.0
C1745 C 0.30733 0.18372 0.84696 0.0
C1746 C 0.29508 0.16974 0.84859 0.0
C1747 C 0.28241 0.17625 0.82682 0.0
C1748 C 0.28267 0.16604 0.83833 0.0
C1749 C 0.29557 0.15872 0.86011 0.0
H1750 H 0.31332 0.10827 0.83764 0.0
H1751 H 0.31506 0.12776 0.85648 0.0
H1752 H 0.26924 0.09635 0.82356 0.0
H1753 H 0.27125 0.11623 0.84221 0.0
H1754 H 0.28595 0.09341 0.90329 0.0
H1755 H 0.28113 0.10976 0.8855 0.0
H1756 H 0.3295 0.12889 0.91395 0.0
H1757 H 0.32435 0.14523 0.89675 0.0
H1758 H 0.29002 0.19757 0.89467 0.0
H1759 H 0.28414 0.17512 0.8791 0.0
H1760 H 0.32859 0.19948 0.9165 0.0
H1761 H 0.32315 0.17757 0.89993 0.0
H1762 H 0.31684 0.20448 0.83421 0.0
H1763 H 0.31719 0.18668 0.85434 0.0
H1764 H 0.27262 0.17315 0.81923 0.0
H1765 H 0.27317 0.15526 0.83927 0.0
N1766 N 0.29282 0.14597 0.85246 0.0
N1767 N 0.30231 0.15139 0.88676 0.0
C1768 C 0.89798 0.19048 0.89709 0.0
C1769 C 0.89285 0.19821 0.9071 0.0
C1770 C 0.88833 0.17822 0.88716 0.0
C1771 C 0.8734 0.17356 0.88696 0.0
C1772 C 0.87785 0.19333 0.90708 0.0
C1773 C 0.86823 0.18109 0.89721 0.0
C1774 C 0.86297 0.16072 0.87648 0.0
C1775 C 0.89148 0.19432 0.83585 0.0
C1776 C 0.89808 0.18971 0.82318 0.0
C1777 C 0.88094 0.18432 0.84754 0.0
C1778 C 0.87712 0.16958 0.84717 0.0
C1779 C 0.89426 0.175 0.82276 0.0
C1780 C 0.8839 0.16504 0.83466 0.0
C1781 C 0.86503 0.15858 0.8583 0.0
C1782 C 0.80679 0.11135 0.83506 0.0
C1783 C 0.81033 0.10236 0.82497 0.0
C1784 C 0.8171 0.12213 0.84622 0.0
C1785 C 0.83117 0.12415 0.84755 0.0
C1786 C 0.82444 0.10438 0.82647 0.0
C1787 C 0.83479 0.11526 0.83753 0.0
C1788 C 0.84237 0.13614 0.85844 0.0
C1789 C 0.80934 0.10345 0.89619 0.0
C1790 C 0.80261 0.10893 0.90743 0.0
C1791 C 0.82168 0.11291 0.88628 0.0
C1792 C 0.82729 0.12804 0.88707 0.0
C1793 C 0.80848 0.12406 0.90861 0.0
C1794 C 0.82069 0.13351 0.89853 0.0
C1795 C 0.84029 0.13832 0.87657 0.0
H1796 H 0.90943 0.1938 0.89706 0.0
H1797 H 0.89252 0.17236 0.87971 0.0
H1798 H 0.87355 0.19912 0.91444 0.0
H1799 H 0.85675 0.17765 0.89731 0.0
H1800 H 0.89401 0.20555 0.83619 0.0
H1801 H 0.87545 0.18807 0.8564 0.0
H1802 H 0.89918 0.17118 0.81308 0.0
H1803 H 0.88101 0.15371 0.83391 0.0
H1804 H 0.79618 0.11038 0.83396 0.0
H1805 H 0.81419 0.12912 0.8535 0.0
H1806 H 0.82751 0.09757 0.81908 0.0
H1807 H 0.84563 0.11673 0.83829 0.0
H1808 H 0.80519 0.09184 0.89528 0.0
H1809 H 0.82687 0.10839 0.87812 0.0
H1810 H 0.80346 0.12858 0.9171 0.0
H1811 H 0.82488 0.14513 0.89952 0.0
N1812 N 0.85066 0.15055 0.88482 0.0
N1813 N 0.85467 0.1463 0.85007 0.0
C1814 C 0.80882 0.70601 0.89636 0.0
C1815 C 0.80137 0.69335 0.90682 0.0
C1816 C 0.82137 0.7089 0.88691 0.0
C1817 C 0.82655 0.69908 0.88756 0.0
C1818 C 0.80693 0.68385 0.90794 0.0
C1819 C 0.8194 0.68671 0.89846 0.0
C1820 C 0.83942 0.70148 0.87714 0.0
C1821 C 0.80538 0.69527 0.837 0.0
C1822 C 0.80968 0.70677 0.82484 0.0
C1823 C 0.81561 0.69471 0.84812 0.0
C1824 C 0.83027 0.70586 0.84767 0.0
C1825 C 0.82438 0.7178 0.82418 0.0
C1826 C 0.83458 0.71734 0.83551 0.0
C1827 C 0.84135 0.70504 0.85878 0.0
C1828 C 0.88747 0.69195 0.83694 0.0
C1829 C 0.89512 0.703 0.82431 0.0
C1830 C 0.8775 0.69261 0.8485 0.0
C1831 C 0.87515 0.70449 0.84793 0.0
C1832 C 0.89287 0.71496 0.82387 0.0
C1833 C 0.88291 0.71564 0.83551 0.0
C1834 C 0.86359 0.70457 0.85893 0.0
C1835 C 0.8965 0.7059 0.89768 0.0
C1836 C 0.89104 0.69355 0.90873 0.0
C1837 C 0.88703 0.70848 0.88745 0.0
C1838 C 0.87196 0.69868 0.88797 0.0
C1839 C 0.87593 0.6839 0.90939 0.0
C1840 C 0.8665 0.68649 0.8992 0.0
C1841 C 0.8617 0.70112 0.8773 0.0
H1842 H 0.80481 0.71353 0.89518 0.0
H1843 H 0.82692 0.71872 0.87896 0.0
H1844 H 0.80165 0.67419 0.91619 0.0
H1845 H 0.82331 0.67908 0.89937 0.0
H1846 H 0.79418 0.68645 0.83749 0.0
H1847 H 0.81207 0.68539 0.8568 0.0
H1848 H 0.82798 0.72677 0.8149 0.0
H1849 H 0.84587 0.72594 0.83472 0.0
H1850 H 0.88902 0.68264 0.83773 0.0
H1851 H 0.87132 0.68361 0.85753 0.0
H1852 H 0.89842 0.72355 0.81413 0.0
H1853 H 0.8811 0.72479 0.83462 0.0
H1854 H 0.90806 0.71367 0.8971 0.0
H1855 H 0.89147 0.71816 0.87924 0.0
H1856 H 0.87138 0.67419 0.91755 0.0
H1857 H 0.8549 0.67881 0.89986 0.0
N1858 N 0.84965 0.69963 0.88561 0.0
N1859 N 0.85341 0.70652 0.85045 0.0
C1860 C 0.76948 0.62802 0.45358 0.0
C1861 C 0.77497 0.64031 0.44245 0.0
C1862 C 0.77896 0.6251 0.46325 0.0
C1863 C 0.79408 0.63459 0.46222 0.0
C1864 C 0.79011 0.64949 0.44098 0.0
C1865 C 0.79956 0.64663 0.45074 0.0
C1866 C 0.80437 0.63214 0.47287 0.0
C1867 C 0.77732 0.64004 0.51278 0.0
C1868 C 0.76953 0.62854 0.52482 0.0
C1869 C 0.78798 0.64016 0.50173 0.0
C1870 C 0.79086 0.62863 0.50225 0.0
C1871 C 0.7725 0.61706 0.5254 0.0
C1872 C 0.78309 0.61713 0.51425 0.0
C1873 C 0.80266 0.62899 0.49133 0.0
C1874 C 0.86143 0.64027 0.5133 0.0
C1875 C 0.85748 0.62938 0.52626 0.0
C1876 C 0.85098 0.64001 0.50179 0.0
C1877 C 0.83642 0.62865 0.50274 0.0
C1878 C 0.84291 0.61805 0.52724 0.0
C1879 C 0.83248 0.61771 0.51561 0.0
C1880 C 0.82505 0.62882 0.49153 0.0
C1881 C 0.85661 0.62597 0.45431 0.0
C1882 C 0.86351 0.63772 0.44238 0.0
C1883 C 0.84444 0.62378 0.46408 0.0
C1884 C 0.83919 0.6335 0.46238 0.0
C1885 C 0.85791 0.6471 0.44022 0.0
C1886 C 0.84586 0.64499 0.45011 0.0
C1887 C 0.82665 0.63177 0.47301 0.0
H1888 H 0.75785 0.62062 0.45472 0.0
H1889 H 0.77446 0.61548 0.47157 0.0
H1890 H 0.79466 0.6591 0.43262 0.0
H1891 H 0.81119 0.65405 0.44963 0.0
H1892 H 0.77549 0.64919 0.5123 0.0
H1893 H 0.79419 0.64942 0.49307 0.0
H1894 H 0.76663 0.60803 0.5345 0.0
H1895 H 0.78526 0.60822 0.51502 0.0
H1896 H 0.8725 0.64931 0.51248 0.0
H1897 H 0.85422 0.6489 0.49248 0.0
H1898 H 0.83956 0.60949 0.53707 0.0
H1899 H 0.82129 0.60895 0.51675 0.0
H1900 H 0.86058 0.61845 0.45601 0.0
H1901 H 0.83919 0.61452 0.47298 0.0
H1902 H 0.86308 0.6563 0.43122 0.0
H1903 H 0.84195 0.65257 0.44844 0.0
N1904 N 0.81631 0.63343 0.46448 0.0
N1905 N 0.81303 0.62739 0.49989 0.0
C1906 C 0.34818 0.2162 0.46455 0.0
C1907 C 0.35615 0.22281 0.44895 0.0
C1908 C 0.35114 0.20696 0.47458 0.0
C1909 C 0.36234 0.20433 0.46945 0.0
C1910 C 0.36727 0.22005 0.44373 0.0
C1911 C 0.37026 0.21081 0.45384 0.0
C1912 C 0.36499 0.19397 0.47964 0.0
C1913 C 0.3758 0.23181 0.51584 0.0
C1914 C 0.36643 0.22802 0.53065 0.0
C1915 C 0.37602 0.22098 0.5054 0.0
C1916 C 0.36682 0.2062 0.50957 0.0
C1917 C 0.3576 0.21324 0.53508 0.0
C1918 C 0.35784 0.20247 0.5247 0.0
C1919 C 0.36634 0.19446 0.49842 0.0
C1920 C 0.37098 0.14093 0.51485 0.0
C1921 C 0.36181 0.1362 0.52992 0.0
C1922 C 0.37231 0.15248 0.50444 0.0
C1923 C 0.36436 0.15937 0.50881 0.0
C1924 C 0.35419 0.1434 0.53445 0.0
C1925 C 0.35546 0.15484 0.52404 0.0
C1926 C 0.36532 0.17151 0.49803 0.0
C1927 C 0.34565 0.13269 0.46147 0.0
C1928 C 0.35499 0.13387 0.44746 0.0
C1929 C 0.34876 0.1448 0.47192 0.0
C1930 C 0.36127 0.15829 0.46855 0.0
C1931 C 0.3675 0.14741 0.44407 0.0
C1932 C 0.37053 0.15957 0.45443 0.0
C1933 C 0.36427 0.17117 0.47922 0.0
H1934 H 0.33962 0.21818 0.46904 0.0
H1935 H 0.34453 0.20172 0.48624 0.0
H1936 H 0.37346 0.22479 0.43164 0.0
H1937 H 0.37876 0.2087 0.44946 0.0
H1938 H 0.38274 0.24311 0.51213 0.0
H1939 H 0.38329 0.22415 0.49402 0.0
H1940 H 0.35049 0.20999 0.54661 0.0
H1941 H 0.35076 0.19115 0.52829 0.0
H1942 H 0.37702 0.13564 0.511 0.0
H1943 H 0.37959 0.15603 0.49306 0.0
H1944 H 0.34733 0.14032 0.54621 0.0
H1945 H 0.34934 0.16007 0.52783 0.0
H1946 H 0.33598 0.12237 0.46444 0.0
H1947 H 0.34132 0.14366 0.48255 0.0
H1948 H 0.3748 0.14863 0.43323 0.0
H1949 H 0.38013 0.16995 0.45152 0.0
N1950 N 0.36418 0.18243 0.47074 0.0
N1951 N 0.36633 0.18316 0.50685 0.0
C1952 C 0.78337 0.13321 0.46104 0.0
C1953 C 0.77647 0.13392 0.4454 0.0
C1954 C 0.79237 0.14581 0.47073 0.0
C1955 C 0.79453 0.15935 0.46511 0.0
C1956 C 0.77871 0.14751 0.43973 0.0
C1957 C 0.78777 0.16014 0.44944 0.0
C1958 C 0.80465 0.17277 0.47487 0.0
C1959 C 0.7669 0.14639 0.5124 0.0
C1960 C 0.77102 0.14312 0.52878 0.0
C1961 C 0.77749 0.15648 0.50073 0.0
C1962 C 0.79235 0.16317 0.50514 0.0
C1963 C 0.78586 0.14986 0.53312 0.0
C1964 C 0.79638 0.15977 0.52146 0.0
C1965 C 0.80392 0.17423 0.49353 0.0
C1966 C 0.8563 0.23383 0.50902 0.0
C1967 C 0.85976 0.23008 0.52551 0.0
C1968 C 0.84552 0.22307 0.49816 0.0
C1969 C 0.83837 0.20837 0.50345 0.0
C1970 C 0.85254 0.21544 0.53079 0.0
C1971 C 0.842 0.20472 0.51988 0.0
C1972 C 0.82661 0.19661 0.49269 0.0
C1973 C 0.86603 0.215 0.45725 0.0
C1974 C 0.86509 0.2229 0.44282 0.0
C1975 C 0.85373 0.20607 0.46747 0.0
C1976 C 0.84028 0.20488 0.46341 0.0
C1977 C 0.8516 0.22164 0.43872 0.0
C1978 C 0.83924 0.21255 0.44884 0.0
C1979 C 0.82726 0.19521 0.47402 0.0
H1980 H 0.78178 0.12289 0.46581 0.0
H1981 H 0.7978 0.14498 0.48252 0.0
H1982 H 0.77369 0.14841 0.42761 0.0
H1983 H 0.78951 0.17052 0.44472 0.0
H1984 H 0.75552 0.1414 0.50881 0.0
H1985 H 0.77404 0.15919 0.48846 0.0
H1986 H 0.78937 0.14738 0.54552 0.0
H1987 H 0.80774 0.16475 0.5252 0.0
H1988 H 0.86166 0.24509 0.50476 0.0
H1989 H 0.84263 0.2263 0.48586 0.0
H1990 H 0.85513 0.21225 0.54336 0.0
H1991 H 0.83668 0.1935 0.52433 0.0
H1992 H 0.87631 0.21584 0.46073 0.0
H1993 H 0.85468 0.20004 0.47851 0.0
H1994 H 0.85059 0.22753 0.42755 0.0
H1995 H 0.8289 0.21161 0.44542 0.0
N1996 N 0.81623 0.18339 0.4658 0.0
N1997 N 0.81494 0.18608 0.50161 0.0
C1998 C 0.97289 0.5296 0.16491 0.0
C1999 C 0.98315 0.53611 0.15107 0.0
C2000 C 0.97313 0.51911 0.17594 0.0
C2001 C 0.98365 0.51497 0.1733 0.0
C2002 C 0.99369 0.53195 0.14862 0.0
C2003 C 0.99383 0.5214 0.15949 0.0
C2004 C 0.98399 0.5037 0.18445 0.0
C2005 C 0.99789 0.54265 0.21947 0.0
C2006 C 0.9887 0.54029 0.23415 0.0
C2007 C 0.99647 0.53094 0.20942 0.0
C2008 C 0.98567 0.51664 0.21364 0.0
C2009 C 0.97808 0.52593 0.23859 0.0
C2010 C 0.97663 0.51421 0.22845 0.0
C2011 C 0.98438 0.50418 0.20329 0.0
C2012 C 0.0014 0.4599 0.221 0.0
C2013 C 0.99228 0.45269 0.23561 0.0
C2014 C 0.99918 0.46954 0.21073 0.0
C2015 C 0.98766 0.47199 0.21468 0.0
C2016 C 0.98101 0.45547 0.23986 0.0
C2017 C 0.97876 0.4651 0.22951 0.0
C2018 C 0.98529 0.48221 0.20381 0.0
C2019 C 0.97637 0.44457 0.16788 0.0
C2020 C 0.98607 0.44848 0.15339 0.0
C2021 C 0.97587 0.45529 0.17822 0.0
C2022 C 0.98513 0.47011 0.17432 0.0
C2023 C 0.99514 0.46332 0.14939 0.0
C2024 C 0.99462 0.474 0.15969 0.0
C2025 C 0.9848 0.4817 0.18496 0.0
H2026 H 0.9645 0.5324 0.16704 0.0
H2027 H 0.96501 0.51409 0.18635 0.0
H2028 H 0.00196 0.53694 0.13838 0.0
H2029 H 0.00206 0.51839 0.15727 0.0
H2030 H 0.00639 0.55354 0.21598 0.0
H2031 H 0.00397 0.53307 0.19849 0.0
H2032 H 0.97081 0.52378 0.24979 0.0
H2033 H 0.96837 0.50324 0.23209 0.0
H2034 H 0.01038 0.45825 0.21765 0.0
H2035 H 0.00653 0.47516 0.19975 0.0
H2036 H 0.97379 0.45004 0.25101 0.0
H2037 H 0.96994 0.467 0.23292 0.0
H2038 H 0.96925 0.43323 0.17129 0.0
H2039 H 0.9682 0.452 0.18919 0.0
H2040 H 0.00252 0.4667 0.1381 0.0
H2041 H 0.00175 0.48535 0.15631 0.0
N2042 N 0.98427 0.49252 0.17604 0.0
N2043 N 0.98493 0.49336 0.21226 0.0
C2044 C 0.47708 0.43516 0.16894 0.0
C2045 C 0.47135 0.43942 0.15482 0.0
C2046 C 0.48876 0.44564 0.17903 0.0
C2047 C 0.49486 0.46052 0.17511 0.0
C2048 C 0.47765 0.45431 0.15083 0.0
C2049 C 0.48931 0.46471 0.16081 0.0
C2050 C 0.50719 0.47192 0.18545 0.0
C2051 C 0.46901 0.4521 0.22257 0.0
C2052 C 0.47065 0.4448 0.23722 0.0
C2053 C 0.48091 0.46113 0.21185 0.0
C2054 C 0.49469 0.46293 0.21539 0.0
C2055 C 0.48453 0.44686 0.24097 0.0
C2056 C 0.49647 0.45592 0.23019 0.0
C2057 C 0.50735 0.47279 0.20427 0.0
C2058 C 0.55235 0.53417 0.21819 0.0
C2059 C 0.55947 0.53293 0.2333 0.0
C2060 C 0.54304 0.5219 0.20817 0.0
C2061 C 0.54078 0.50813 0.2129 0.0
C2062 C 0.55715 0.51912 0.23806 0.0
C2063 C 0.54781 0.50682 0.228 0.0
C2064 C 0.53013 0.49502 0.20303 0.0
C2065 C 0.56664 0.52145 0.16415 0.0
C2066 C 0.56222 0.52627 0.14923 0.0
C2067 C 0.55627 0.51101 0.1757 0.0
C2068 C 0.54133 0.50535 0.17258 0.0
C2069 C 0.54725 0.52057 0.14626 0.0
C2070 C 0.53695 0.51018 0.15772 0.0
C2071 C 0.53002 0.49407 0.18422 0.0
H2072 H 0.47244 0.42376 0.17228 0.0
H2073 H 0.49305 0.44212 0.1898 0.0
H2074 H 0.47367 0.45792 0.13982 0.0
H2075 H 0.49391 0.47611 0.15745 0.0
H2076 H 0.45856 0.45105 0.21957 0.0
H2077 H 0.47938 0.46685 0.20089 0.0
H2078 H 0.48614 0.44134 0.25211 0.0
H2079 H 0.50707 0.45734 0.23329 0.0
H2080 H 0.5536 0.54458 0.21441 0.0
H2081 H 0.53732 0.52312 0.19698 0.0
H2082 H 0.56254 0.51781 0.24955 0.0
H2083 H 0.54605 0.49626 0.23201 0.0
H2084 H 0.57808 0.52554 0.1667 0.0
H2085 H 0.55991 0.50723 0.18688 0.0
H2086 H 0.54346 0.52425 0.13512 0.0
H2087 H 0.5255 0.50601 0.15506 0.0
N2088 N 0.51852 0.4826 0.17621 0.0
N2089 N 0.51885 0.48427 0.21235 0.0
C2090 C 0.46678 0.02135 0.22403 0.0
C2091 C 0.45924 0.00899 0.23496 0.0
C2092 C 0.47885 0.0235 0.21406 0.0
C2093 C 0.48346 0.01322 0.21464 0.0
C2094 C 0.46417 0.99896 0.23588 0.0
C2095 C 0.47617 0.00108 0.22586 0.0
C2096 C 0.49606 0.01509 0.20404 0.0
C2097 C 0.46182 0.0101 0.16517 0.0
C2098 C 0.46634 0.02161 0.15301 0.0
C2099 C 0.47201 0.00888 0.17565 0.0
C2100 C 0.48687 0.01945 0.17458 0.0
C2101 C 0.48123 0.03191 0.1515 0.0
C2102 C 0.49141 0.03085 0.16223 0.0
C2103 C 0.49785 0.01835 0.18559 0.0
C2104 C 0.54683 0.00804 0.16599 0.0
C2105 C 0.55413 0.01907 0.1532 0.0
C2106 C 0.53591 0.00778 0.17666 0.0
C2107 C 0.53226 0.01874 0.17514 0.0
C2108 C 0.55035 0.02996 0.15157 0.0
C2109 C 0.5395 0.02976 0.16239 0.0
C2110 C 0.52027 0.01822 0.18588 0.0
C2111 C 0.55402 0.02311 0.22583 0.0
C2112 C 0.54942 0.01082 0.2368 0.0
C2113 C 0.54403 0.02455 0.21518 0.0
C2114 C 0.52927 0.0137 0.21529 0.0
C2115 C 0.53458 7e-05 0.23696 0.0
C2116 C 0.5246 0.00157 0.22642 0.0
C2117 C 0.51851 0.01512 0.20434 0.0
H2118 H 0.46325 0.02926 0.22297 0.0
H2119 H 0.48454 0.03315 0.20585 0.0
H2120 H 0.45881 0.98949 0.24444 0.0
H2121 H 0.47967 0.99312 0.22672 0.0
H2122 H 0.45042 0.00184 0.16628 0.0
H2123 H 0.46826 -0.00039 0.18445 0.0
H2124 H 0.48498 0.04086 0.14215 0.0
H2125 H 0.50282 0.039 0.16096 0.0
H2126 H 0.54951 -0.00045 0.16774 0.0
H2127 H 0.53016 0.99884 0.1859 0.0
H2128 H 0.55553 0.03846 0.14165 0.0
H2129 H 0.53671 0.03819 0.16075 0.0
H2130 H 0.56531 0.03173 0.22562 0.0
H2131 H 0.54781 0.03419 0.20701 0.0
H2132 H 0.53067 0.99035 0.24501 0.0
H2133 H 0.51324 0.99311 0.22674 0.0
N2134 N 0.50644 0.01355 0.21263 0.0
N2135 N 0.50993 0.01985 0.17728 0.0
C2136 C 0.54381 0.00014 0.80167 0.0
C2137 C 0.54167 0.99316 0.78509 0.0
C2138 C 0.53192 0.99843 0.81161 0.0
C2139 C 0.51765 0.98932 0.80543 0.0
C2140 C 0.52745 0.9845 0.77859 0.0
C2141 C 0.51554 0.98258 0.78869 0.0
C2142 C 0.5049 0.98731 0.81585 0.0
C2143 C 0.52825 0.97097 0.8505 0.0
C2144 C 0.53437 0.9796 0.8658 0.0
C2145 C 0.51804 0.97242 0.84028 0.0
C2146 C 0.51383 0.98254 0.84519 0.0
C2147 C 0.52986 0.98947 0.87087 0.0
C2148 C 0.51962 0.99084 0.86073 0.0
C2149 C 0.50332 0.98452 0.8344 0.0
C2150 C 0.44246 0.97304 0.84888 0.0
C2151 C 0.44487 0.97977 0.86567 0.0
C2152 C 0.45419 0.97464 0.83862 0.0
C2153 C 0.46855 0.98333 0.84477 0.0
C2154 C 0.4592 0.98818 0.87197 0.0
C2155 C 0.47092 0.98993 0.86162 0.0
C2156 C 0.48117 0.9851 0.83423 0.0
C2157 C 0.45964 0.00402 0.80122 0.0
C2158 C 0.45359 0.99643 0.78523 0.0
C2159 C 0.46924 0.00142 0.81108 0.0
C2160 C 0.47284 0.99106 0.80526 0.0
C2161 C 0.45756 0.98635 0.77919 0.0
C2162 C 0.46716 0.98376 0.78907 0.0
C2163 C 0.48282 0.98805 0.81572 0.0
H2164 H 0.5547 0.00713 0.80678 0.0
H2165 H 0.53392 0.00431 0.82407 0.0
H2166 H 0.52554 0.97903 0.76582 0.0
H2167 H 0.50465 0.9757 0.78351 0.0
H2168 H 0.53153 0.96328 0.84627 0.0
H2169 H 0.5135 0.96569 0.82851 0.0
H2170 H 0.5342 0.99609 0.88275 0.0
H2171 H 0.5164 0.9986 0.86486 0.0
H2172 H 0.4315 0.96631 0.84385 0.0
H2173 H 0.452 0.96897 0.82598 0.0
H2174 H 0.46137 0.99356 0.88482 0.0
H2175 H 0.48187 0.99656 0.86674 0.0
H2176 H 0.45676 0.0118 0.80628 0.0
H2177 H 0.47379 0.00748 0.82331 0.0
H2178 H 0.45329 0.98051 0.76676 0.0
H2179 H 0.46998 0.97588 0.78419 0.0
N2180 N 0.49454 0.98889 0.80723 0.0
N2181 N 0.49156 0.98359 0.84285 0.0
C2182 C 0.99806 0.54122 0.79448 0.0
C2183 C 0.00655 0.54804 0.77926 0.0
C2184 C 0.00029 0.53136 0.80432 0.0
C2185 C 0.01109 0.52816 0.79919 0.0
C2186 C 0.01728 0.54469 0.77409 0.0
C2187 C 0.01944 0.53475 0.78389 0.0
C2188 C 0.01329 0.51749 0.80928 0.0
C2189 C 0.0276 0.55614 0.84596 0.0
C2190 C 0.01932 0.55283 0.86173 0.0
C2191 C 0.0263 0.54498 0.83477 0.0
C2192 C 0.0166 0.53034 0.83909 0.0
C2193 C 0.00959 0.53815 0.86591 0.0
C2194 C 0.00833 0.52704 0.85477 0.0
C2195 C 0.01543 0.51831 0.82793 0.0
C2196 C 0.02882 0.47046 0.84203 0.0
C2197 C 0.02044 0.46433 0.8575 0.0
C2198 C 0.02731 0.48076 0.83213 0.0
C2199 C 0.01737 0.48509 0.83753 0.0
C2200 C 0.01067 0.46885 0.863 0.0
C2201 C 0.00924 0.47921 0.85318 0.0
C2202 C 0.01558 0.49595 0.82723 0.0
C2203 C 0.99812 0.45585 0.79379 0.0
C2204 C 0.00516 0.45765 0.77729 0.0
C2205 C 0.00055 0.46793 0.80386 0.0
C2206 C 0.0104 0.48209 0.79793 0.0
C2207 C 0.01464 0.47186 0.77108 0.0
C2208 C 0.0172 0.48395 0.78129 0.0
C2209 C 0.01313 0.49495 0.80861 0.0
H2210 H 0.98949 0.54328 0.79863 0.0
H2211 H 0.99343 0.52608 0.8158 0.0
H2212 H 0.02413 0.54985 0.76258 0.0
H2213 H 0.02775 0.53234 0.77964 0.0
H2214 H 0.03533 0.56732 0.84248 0.0
H2215 H 0.03307 0.54779 0.82294 0.0
H2216 H 0.00285 0.53521 0.87777 0.0
H2217 H 0.00079 0.51583 0.85838 0.0
H2218 H 0.03643 0.46717 0.83748 0.0
H2219 H 0.03391 0.48538 0.82028 0.0
H2220 H 0.00425 0.4645 0.87503 0.0
H2221 H 0.00162 0.48251 0.85768 0.0
H2222 H 0.99083 0.44511 0.7991 0.0
H2223 H 0.99469 0.46616 0.81631 0.0
H2224 H 0.02 0.47367 0.75826 0.0
H2225 H 0.02461 0.49477 0.77627 0.0
N2226 N 0.01226 0.50586 0.80032 0.0
N2227 N 0.01647 0.50749 0.83617 0.0
C2228 C 0.52608 0.56129 0.78535 0.0
C2229 C 0.53343 0.55584 0.77514 0.0
C2230 C 0.51356 0.55184 0.79499 0.0
C2231 C 0.50824 0.53677 0.7947 0.0
C2232 C 0.52783 0.54071 0.77456 0.0
C2233 C 0.51532 0.53128 0.78416 0.0
C2234 C 0.49533 0.5266 0.8053 0.0
C2235 C 0.53027 0.55297 0.84537 0.0
C2236 C 0.52696 0.56123 0.85715 0.0
C2237 C 0.51956 0.54258 0.83423 0.0
C2238 C 0.50538 0.54038 0.83441 0.0
C2239 C 0.51278 0.55908 0.85723 0.0
C2240 C 0.50206 0.54868 0.84604 0.0
C2241 C 0.49374 0.52864 0.82363 0.0
C2242 C 0.44624 0.47028 0.84661 0.0
C2243 C 0.43901 0.4742 0.85925 0.0
C2244 C 0.45637 0.48062 0.8349 0.0
C2245 C 0.4593 0.49507 0.8353 0.0
C2246 C 0.44185 0.48864 0.85954 0.0
C2247 C 0.45197 0.49899 0.84774 0.0
C2248 C 0.47099 0.50635 0.82404 0.0
C2249 C 0.43682 0.47484 0.78644 0.0
C2250 C 0.44145 0.46677 0.77623 0.0
C2251 C 0.44688 0.48716 0.79592 0.0
C2252 C 0.46176 0.49161 0.79541 0.0
C2253 C 0.45641 0.47146 0.77553 0.0
C2254 C 0.46645 0.48382 0.78491 0.0
C2255 C 0.47255 0.50439 0.80568 0.0
H2256 H 0.52994 0.57286 0.7858 0.0
H2257 H 0.50806 0.55629 0.80267 0.0
H2258 H 0.53331 0.53616 0.76701 0.0
H2259 H 0.51137 0.51969 0.7837 0.0
H2260 H 0.54111 0.55442 0.84491 0.0
H2261 H 0.52231 0.53602 0.82577 0.0
H2262 H 0.50983 0.56511 0.86634 0.0
H2263 H 0.49113 0.547 0.84659 0.0
H2264 H 0.44422 0.45923 0.84593 0.0
H2265 H 0.46222 0.47739 0.82589 0.0
H2266 H 0.43664 0.49207 0.86929 0.0
H2267 H 0.45423 0.51012 0.84849 0.0
H2268 H 0.42542 0.47171 0.787 0.0
H2269 H 0.44306 0.49322 0.80363 0.0
H2270 H 0.46035 0.46541 0.76804 0.0
H2271 H 0.47789 0.48708 0.78431 0.0
N2272 N 0.48471 0.51453 0.79706 0.0
N2273 N 0.48159 0.51847 0.83226 0.0
C2274 C 0.64335 0.77911 0.50528 0.0
C2275 C 0.63102 0.77072 0.49463 0.0
C2276 C 0.64428 0.79037 0.51588 0.0
C2277 C 0.63277 0.79328 0.51634 0.0
C2278 C 0.6196 0.77379 0.49489 0.0
C2279 C 0.62049 0.78501 0.50561 0.0
C2280 C 0.6339 0.80551 0.52709 0.0
C2281 C 0.63444 0.77347 0.56561 0.0
C2282 C 0.64753 0.779 0.57521 0.0
C2283 C 0.63134 0.78282 0.55593 0.0
C2284 C 0.64135 0.79785 0.55553 0.0
C2285 C 0.65733 0.7941 0.57515 0.0
C2286 C 0.65424 0.80342 0.56547 0.0
C2287 C 0.63848 0.80795 0.5451 0.0
C2288 C 0.63279 0.85934 0.56672 0.0
C2289 C 0.64656 0.86833 0.57431 0.0
C2290 C 0.63004 0.84694 0.55705 0.0
C2291 C 0.64096 0.84328 0.55511 0.0
C2292 C 0.65742 0.86459 0.57244 0.0
C2293 C 0.65458 0.85205 0.56311 0.0
C2294 C 0.63831 0.83029 0.54491 0.0
C2295 C 0.64309 0.86361 0.50476 0.0
C2296 C 0.63122 0.85928 0.4932 0.0
C2297 C 0.64385 0.85349 0.51586 0.0
C2298 C 0.63257 0.83888 0.51599 0.0
C2299 C 0.62001 0.84464 0.49315 0.0
C2300 C 0.62069 0.83453 0.50444 0.0
C2301 C 0.63375 0.82791 0.52692 0.0
H2302 H 0.65247 0.77724 0.50505 0.0
H2303 H 0.65412 0.79695 0.52348 0.0
H2304 H 0.60995 0.7675 0.48684 0.0
H2305 H 0.61157 0.78719 0.50558 0.0
H2306 H 0.62669 0.7619 0.56534 0.0
H2307 H 0.62115 0.77831 0.54873 0.0
H2308 H 0.66737 0.79873 0.58268 0.0
H2309 H 0.66204 0.81499 0.56553 0.0
H2310 H 0.62428 0.86206 0.56802 0.0
H2311 H 0.6194 0.84019 0.55114 0.0
H2312 H 0.66808 0.87133 0.57831 0.0
H2313 H 0.66311 0.84935 0.56182 0.0
H2314 H 0.65206 0.87474 0.50477 0.0
H2315 H 0.65349 0.85705 0.52394 0.0
H2316 H 0.61074 0.841 0.48435 0.0
H2317 H 0.61198 0.82327 0.50408 0.0
N2318 N 0.63161 0.81554 0.51875 0.0
N2319 N 0.64059 0.82028 0.55325 0.0
C2320 C 0.14541 0.77098 0.50394 0.0
C2321 C 0.14058 0.77494 0.48864 0.0
C2322 C 0.15545 0.78166 0.51551 0.0
C2323 C 0.16069 0.79648 0.51208 0.0
C2324 C 0.14588 0.78979 0.48527 0.0
C2325 C 0.15588 0.80042 0.49681 0.0
C2326 C 0.17167 0.80805 0.52374 0.0
C2327 C 0.13137 0.78458 0.55718 0.0
C2328 C 0.13266 0.77707 0.57185 0.0
C2329 C 0.14366 0.79447 0.54757 0.0
C2330 C 0.15752 0.79701 0.55232 0.0
C2331 C 0.14659 0.77975 0.57669 0.0
C2332 C 0.15892 0.78972 0.56708 0.0
C2333 C 0.17058 0.80791 0.54255 0.0
C2334 C 0.21409 0.86898 0.56198 0.0
C2335 C 0.22135 0.86727 0.57661 0.0
C2336 C 0.20491 0.85708 0.55136 0.0
C2337 C 0.20286 0.84322 0.55504 0.0
C2338 C 0.2192 0.85336 0.58038 0.0
C2339 C 0.20991 0.8414 0.56977 0.0
C2340 C 0.19286 0.83061 0.54395 0.0
C2341 C 0.2317 0.85859 0.50899 0.0
C2342 C 0.22839 0.86541 0.49521 0.0
C2343 C 0.22053 0.84739 0.51893 0.0
C2344 C 0.2059 0.84276 0.51511 0.0
C2345 C 0.21373 0.86075 0.49146 0.0
C2346 C 0.2026 0.84943 0.50121 0.0
C2347 C 0.19391 0.83075 0.52517 0.0
H2348 H 0.14168 0.75965 0.50677 0.0
H2349 H 0.15929 0.77834 0.52694 0.0
H2350 H 0.14222 0.79322 0.47377 0.0
H2351 H 0.15978 0.81178 0.49386 0.0
H2352 H 0.12088 0.78308 0.55334 0.0
H2353 H 0.14236 0.80032 0.53658 0.0
H2354 H 0.14798 0.77408 0.58783 0.0
H2355 H 0.16954 0.79165 0.57108 0.0
H2356 H 0.21561 0.87957 0.55865 0.0
H2357 H 0.19929 0.85868 0.54033 0.0
H2358 H 0.22453 0.85169 0.59169 0.0
H2359 H 0.20832 0.83075 0.57296 0.0
H2360 H 0.24292 0.86199 0.51211 0.0
H2361 H 0.22331 0.84224 0.52945 0.0
H2362 H 0.21088 0.86568 0.48076 0.0
H2363 H 0.19138 0.84597 0.49799 0.0
N2364 N 0.18326 0.81951 0.5158 0.0
N2365 N 0.18128 0.81916 0.55197 0.0
C2366 C 0.23336 0.37648 0.50311 0.0
C2367 C 0.23004 0.36737 0.4881 0.0
C2368 C 0.22221 0.37644 0.51317 0.0
C2369 C 0.20756 0.36719 0.50845 0.0
C2370 C 0.21539 0.35855 0.4831 0.0
C2371 C 0.2043 0.3585 0.49312 0.0
C2372 C 0.19545 0.36637 0.5192 0.0
C2373 C 0.21834 0.34994 0.55399 0.0
C2374 C 0.22318 0.35706 0.57046 0.0
C2375 C 0.20893 0.35231 0.54343 0.0
C2376 C 0.20463 0.36227 0.54883 0.0
C2377 C 0.21852 0.36663 0.57621 0.0
C2378 C 0.20935 0.36926 0.56543 0.0
C2379 C 0.19435 0.36459 0.53796 0.0
C2380 C 0.13239 0.34651 0.55278 0.0
C2381 C 0.1337 0.35436 0.56848 0.0
C2382 C 0.14465 0.34979 0.54253 0.0
C2383 C 0.15847 0.36109 0.54764 0.0
C2384 C 0.14758 0.36562 0.57362 0.0
C2385 C 0.15985 0.36889 0.56335 0.0
C2386 C 0.17159 0.36403 0.53743 0.0
C2387 C 0.14542 0.37554 0.50039 0.0
C2388 C 0.14053 0.36678 0.48498 0.0
C2389 C 0.15579 0.37519 0.51154 0.0
C2390 C 0.16135 0.36599 0.50753 0.0
C2391 C 0.1461 0.35755 0.48113 0.0
C2392 C 0.15647 0.35725 0.4922 0.0
C2393 C 0.17266 0.36571 0.5187 0.0
H2394 H 0.24454 0.38341 0.5073 0.0
H2395 H 0.22502 0.3835 0.5247 0.0
H2396 H 0.21248 0.35166 0.47138 0.0
H2397 H 0.1931 0.35141 0.48908 0.0
H2398 H 0.22156 0.34227 0.5495 0.0
H2399 H 0.20488 0.34616 0.53117 0.0
H2400 H 0.22207 0.37217 0.58894 0.0
H2401 H 0.20594 0.37675 0.57006 0.0
H2402 H 0.12193 0.33756 0.54865 0.0
H2403 H 0.14337 0.34326 0.53082 0.0
H2404 H 0.14895 0.37196 0.58556 0.0
H2405 H 0.17044 0.37754 0.56764 0.0
H2406 H 0.14149 0.38291 0.50362 0.0
H2407 H 0.15963 0.38226 0.52311 0.0
H2408 H 0.14239 0.35045 0.46958 0.0
H2409 H 0.1606 0.35006 0.48886 0.0
N2410 N 0.18451 0.36676 0.51036 0.0
N2411 N 0.18252 0.36363 0.54633 0.0
H2412 H 0.00616 0.40976 0.06568 0.0
H2413 H 0.97369 0.37167 0.09375 0.0
H2414 H 0.00471 0.42532 0.08846 0.0
H2415 H 0.9725 0.38735 0.11695 0.0
H2416 H 0.96326 0.42287 0.14093 0.0
H2417 H 0.96431 0.40554 0.12034 0.0
H2418 H 0.01127 0.43146 0.11994 0.0
H2419 H 0.01023 0.4487 0.14052 0.0
C2420 C 0.99865 0.40471 0.0767 0.0
C2421 C 0.98995 0.38949 0.07785 0.0
C2422 C 0.99796 0.41363 0.08988 0.0
C2423 C 0.98856 0.40756 0.10455 0.0
C2424 C 0.9798 0.39233 0.10574 0.0
C2425 C 0.98056 0.38337 0.09255 0.0
C2426 C 0.9738 0.42472 0.13667 0.0
C2427 C 0.98665 0.43724 0.14218 0.0
C2428 C 0.97441 0.4148 0.12488 0.0
C2429 C 0.98787 0.41724 0.11836 0.0
C2430 C 0.00072 0.42945 0.12444 0.0
C2431 C 0.00012 0.43933 0.13621 0.0
H2432 H 0.63489 0.59428 0.08629 0.0
H2433 H 0.59463 0.59097 0.06856 0.0
H2434 H 0.62123 0.5749 0.10812 0.0
H2435 H 0.58115 0.57147 0.08978 0.0
H2436 H 0.56068 0.5262 0.11291 0.0
H2437 H 0.57661 0.54542 0.09239 0.0
H2438 H 0.60434 0.57019 0.13626 0.0
H2439 H 0.58815 0.55102 0.15706 0.0
C2440 C 0.62318 0.58951 0.08708 0.0
C2441 C 0.61584 0.59403 0.07544 0.0
C2442 C 0.61539 0.57841 0.09953 0.0
C2443 C 0.60014 0.57157 0.1004 0.0
C2444 C 0.59288 0.57634 0.0891 0.0
C2445 C 0.60062 0.58748 0.07687 0.0
C2446 C 0.57015 0.53574 0.11824 0.0
C2447 C 0.57299 0.53721 0.13667 0.0
C2448 C 0.57929 0.54671 0.10647 0.0
C2449 C 0.59157 0.55935 0.1128 0.0
C2450 C 0.59494 0.56052 0.13106 0.0
C2451 C 0.58569 0.54955 0.14293 0.0
H2452 H 0.41808 0.03344 0.06696 0.0
H2453 H 0.38555 0.00415 0.10445 0.0
H2454 H 0.43716 0.03707 0.08768 0.0
H2455 H 0.40462 0.00679 0.12445 0.0
H2456 H 0.44133 0.02075 0.16338 0.0
H2457 H 0.42303 0.02141 0.14441 0.0
H2458 H 0.44854 0.02451 0.09776 0.0
H2459 H 0.46706 0.02458 0.11691 0.0
C2460 C 0.41495 0.02785 0.07967 0.0
C2461 C 0.40021 0.0184 0.08391 0.0
C2462 C 0.42594 0.02974 0.09146 0.0
C2463 C 0.42251 0.02208 0.1077 0.0
C2464 C 0.40775 0.013 0.11218 0.0
C2465 C 0.39676 0.01129 0.10053 0.0
C2466 C 0.443 0.02167 0.14906 0.0
C2467 C 0.45555 0.02259 0.14156 0.0
C2468 C 0.4325 0.02198 0.13816 0.0
C2469 C 0.43421 0.02294 0.11947 0.0
C2470 C 0.44693 0.02405 0.11207 0.0
C2471 C 0.45753 0.024 0.12301 0.0
H2472 H 0.38448 0.99746 0.92114 0.0
H2473 H 0.37669 0.95718 0.94508 0.0
H2474 H 0.40086 0.99598 0.89953 0.0
H2475 H 0.39338 0.95593 0.92368 0.0
H2476 H 0.4401 0.97292 0.90098 0.0
H2477 H 0.42051 0.97131 0.9197 0.0
H2478 H 0.40209 0.98096 0.87404 0.0
H2479 H 0.42182 0.98268 0.85528 0.0
C2480 C 0.386 0.98813 0.92159 0.0
C2481 C 0.37933 0.9775 0.93496 0.0
C2482 C 0.39543 0.98732 0.90922 0.0
C2483 C 0.39848 0.97591 0.91003 0.0
C2484 C 0.39139 0.96497 0.92293 0.0
C2485 C 0.38187 0.96571 0.9352 0.0
C2486 C 0.43184 0.97466 0.89495 0.0
C2487 C 0.4325 0.978 0.87672 0.0
C2488 C 0.42056 0.9736 0.90561 0.0
C2489 C 0.40977 0.97599 0.8983 0.0
C2490 C 0.41031 0.97913 0.88001 0.0
C2491 C 0.42152 0.98003 0.86928 0.0
H2492 H 0.04328 0.42365 0.9407 0.0
H2493 H 0.00895 0.38693 0.91258 0.0
H2494 H 0.04297 0.44009 0.91822 0.0
H2495 H 0.00888 0.40333 0.88989 0.0
H2496 H 0.99866 0.43891 0.87133 0.0
H2497 H 0.00094 0.42157 0.89033 0.0
H2498 H 0.0478 0.44739 0.88632 0.0
H2499 H 0.0455 0.46494 0.86754 0.0
C2500 C 0.03581 0.41909 0.92959 0.0
C2501 C 0.02608 0.40401 0.92847 0.0
C2502 C 0.03572 0.42848 0.91663 0.0
C2503 C 0.02583 0.42301 0.90235 0.0
C2504 C 0.01651 0.40788 0.90085 0.0
C2505 C 0.01666 0.39848 0.91375 0.0
C2506 C 0.00944 0.44087 0.8745 0.0
C2507 C 0.0219 0.45333 0.86806 0.0
C2508 C 0.01075 0.43086 0.88521 0.0
C2509 C 0.02455 0.43311 0.88981 0.0
C2510 C 0.03702 0.44542 0.88309 0.0
C2511 C 0.0357 0.4554 0.87224 0.0
H2512 H 0.595 0.63521 0.91652 0.0
H2513 H 0.58138 0.59754 0.95016 0.0
H2514 H 0.5773 0.61978 0.89393 0.0
H2515 H 0.56346 0.58232 0.92798 0.0
H2516 H 0.54602 0.55682 0.87669 0.0
H2517 H 0.5639 0.57316 0.89824 0.0
H2518 H 0.55058 0.60487 0.88884 0.0
H2519 H 0.53292 0.58863 0.86673 0.0
C2520 C 0.58819 0.62367 0.91912 0.0
C2521 C 0.58958 0.61761 0.93514 0.0
C2522 C 0.57798 0.61487 0.90627 0.0
C2523 C 0.56904 0.59983 0.90915 0.0
C2524 C 0.57032 0.59383 0.92526 0.0
C2525 C 0.58046 0.6026 0.93808 0.0
C2526 C 0.54703 0.56736 0.87901 0.0
C2527 C 0.53807 0.57144 0.86996 0.0
C2528 C 0.55716 0.57665 0.89153 0.0
C2529 C 0.55858 0.59026 0.89534 0.0
C2530 C 0.54979 0.59448 0.88611 0.0
C2531 C 0.53959 0.58513 0.87359 0.0
H2532 H 0.0369 0.63207 0.91999 0.0
H2533 H 0.00049 0.59542 0.94574 0.0
H2534 H 0.03835 0.61543 0.89847 0.0
H2535 H 0.00222 0.57898 0.92466 0.0
H2536 H 0.02006 0.55292 0.89814 0.0
H2537 H 0.02048 0.57103 0.91844 0.0
H2538 H 0.02282 0.59758 0.87361 0.0
H2539 H 0.02212 0.57925 0.85311 0.0
C2540 C 0.02919 0.62052 0.92103 0.0
C2541 C 0.01871 0.61508 0.93476 0.0
C2542 C 0.03005 0.61102 0.90874 0.0
C2543 C 0.02052 0.59592 0.91006 0.0
C2544 C 0.00992 0.59054 0.92357 0.0
C2545 C 0.00897 0.59999 0.93569 0.0
C2546 C 0.02058 0.56257 0.89256 0.0
C2547 C 0.02082 0.56452 0.87399 0.0
C2548 C 0.02088 0.57296 0.9042 0.0
C2549 C 0.02152 0.58562 0.89758 0.0
C2550 C 0.02239 0.58793 0.87905 0.0
C2551 C 0.022 0.57745 0.86735 0.0
H2552 H 0.40505 0.41857 0.95203 0.0
H2553 H 0.36623 0.40881 0.92262 0.0
H2554 H 0.41989 0.43671 0.9299 0.0
H2555 H 0.38123 0.42659 0.89993 0.0
H2556 H 0.41283 0.46994 0.87182 0.0
H2557 H 0.39726 0.45275 0.89473 0.0
H2558 H 0.42726 0.43671 0.89946 0.0
H2559 H 0.44304 0.45421 0.87726 0.0
C2560 C 0.39965 0.42038 0.94092 0.0
C2561 C 0.38442 0.41224 0.93915 0.0
C2562 C 0.4082 0.43065 0.92808 0.0
C2563 C 0.40177 0.433 0.91305 0.0
C2564 C 0.38652 0.42509 0.9114 0.0
C2565 C 0.37794 0.4148 0.92431 0.0
C2566 C 0.41613 0.46281 0.87786 0.0
C2567 C 0.42917 0.46345 0.87269 0.0
C2568 C 0.40714 0.45286 0.89085 0.0
C2569 C 0.41105 0.4434 0.89898 0.0
C2570 C 0.42402 0.44398 0.89366 0.0
C2571 C 0.43298 0.45389 0.88073 0.0
H2572 H 0.57745 0.95887 0.94868 0.0
H2573 H 0.61309 0.99276 0.91861 0.0
H2574 H 0.5602 0.95873 0.92706 0.0
H2575 H 0.59589 0.99235 0.8968 0.0
H2576 H 0.55981 0.00178 0.87895 0.0
H2577 H 0.57754 9e-05 0.89783 0.0
H2578 H 0.55198 0.95314 0.89543 0.0
H2579 H 0.53403 0.95486 0.87675 0.0
C2580 C 0.5816 0.96617 0.93735 0.0
C2581 C 0.59662 0.97587 0.93539 0.0
C2582 C 0.57173 0.96599 0.92489 0.0
C2583 C 0.57669 0.97559 0.91029 0.0
C2584 C 0.59174 0.98494 0.90802 0.0
C2585 C 0.6016 0.98506 0.92041 0.0
C2586 C 0.55797 0.9911 0.88247 0.0
C2587 C 0.54549 0.97845 0.87647 0.0
C2588 C 0.5682 0.99012 0.89312 0.0
C2589 C 0.56617 0.97648 0.8981 0.0
C2590 C 0.55379 0.96381 0.8919 0.0
C2591 C 0.54358 0.96479 0.88111 0.0
H2592 H 0.61546 0.03419 0.06749 0.0
H2593 H 0.61381 0.99876 0.09756 0.0
H2594 H 0.59903 0.03582 0.08907 0.0
H2595 H 0.59761 0.00055 0.11925 0.0
H2596 H 0.55377 0.99547 0.13786 0.0
H2597 H 0.57187 0.99516 0.11821 0.0
H2598 H 0.59774 0.04203 0.12123 0.0
H2599 H 0.57977 0.04238 0.14133 0.0
C2600 C 0.61167 0.02684 0.07878 0.0
C2601 C 0.6159 0.01633 0.08082 0.0
C2602 C 0.60237 0.02785 0.0912 0.0
C2603 C 0.59699 0.01827 0.1058 0.0
C2604 C 0.60147 0.00798 0.10804 0.0
C2605 C 0.61087 0.00706 0.09572 0.0
C2606 C 0.56341 0.00571 0.13463 0.0
C2607 C 0.56531 0.01895 0.14128 0.0
C2608 C 0.57378 0.00553 0.12331 0.0
C2609 C 0.58624 0.01857 0.11823 0.0
C2610 C 0.58817 0.03182 0.1248 0.0
C2611 C 0.57784 0.03201 0.13627 0.0
H2612 H 0.01138 0.60561 0.07579 0.0
H2613 H 0.96823 0.59743 0.08884 0.0
H2614 H 0.00825 0.58668 0.09654 0.0
H2615 H 0.96541 0.57878 0.11025 0.0
H2616 H 0.97721 0.55782 0.15967 0.0
H2617 H 0.9784 0.57675 0.13996 0.0
H2618 H 0.99018 0.55853 0.09587 0.0
H2619 H 0.98846 0.53935 0.11517 0.0
C2620 C 0.00121 0.59977 0.08304 0.0
C2621 C 0.98995 0.60289 0.08036 0.0
C2622 C -0.00053 0.58899 0.09499 0.0
C2623 C 0.98654 0.5812 0.1048 0.0
C2624 C 0.9755 0.58468 0.10283 0.0
C2625 C 0.97715 0.59538 0.09063 0.0
C2626 C 0.97979 0.55768 0.1457 0.0
C2627 C 0.98294 0.54715 0.13908 0.0
C2628 C 0.98051 0.56855 0.13447 0.0
C2629 C 0.98456 0.56915 0.11651 0.0
C2630 C 0.98728 0.55843 0.10977 0.0
C2631 C 0.98638 0.5475 0.12087 0.0
H2632 H 0.41135 0.40552 0.06829 0.0
H2633 H 0.40436 0.36572 0.09276 0.0
H2634 H 0.4289 0.41964 0.09134 0.0
H2635 H 0.42176 0.37997 0.1163 0.0
H2636 H 0.46737 0.41378 0.14093 0.0
H2637 H 0.44843 0.39748 0.12006 0.0
H2638 H 0.42861 0.42431 0.12333 0.0
H2639 H 0.44747 0.44054 0.14407 0.0
C2640 C 0.41364 0.39978 0.07855 0.0
C2641 C 0.40654 0.3845 0.07863 0.0
C2642 C 0.42355 0.40788 0.09191 0.0
C2643 C 0.42662 0.40091 0.10573 0.0
C2644 C 0.41964 0.38563 0.10578 0.0
C2645 C 0.40962 0.37749 0.0924 0.0
C2646 C 0.45881 0.41602 0.13741 0.0
C2647 C 0.45901 0.42854 0.14391 0.0
C2648 C 0.44798 0.4067 0.12547 0.0
C2649 C 0.43717 0.40975 0.11985 0.0
C2650 C 0.43699 0.42187 0.12709 0.0
C2651 C 0.44778 0.43115 0.13897 0.0
H2652 H 0.65749 0.71845 0.43547 0.0
H2653 H 0.61682 0.70781 0.41021 0.0
H2654 H 0.65373 0.73306 0.45755 0.0
H2655 H 0.61293 0.72233 0.43247 0.0
H2656 H 0.62229 0.7653 0.45982 0.0
H2657 H 0.6232 0.74776 0.43965 0.0
H2658 H 0.63925 0.73254 0.48255 0.0
H2659 H 0.63852 0.75026 0.50265 0.0
C2660 C 0.64759 0.71898 0.43486 0.0
C2661 C 0.63747 0.712 0.42107 0.0
C2662 C 0.64541 0.72737 0.44753 0.0
C2663 C 0.63304 0.72892 0.44677 0.0
C2664 C 0.6227 0.72157 0.43327 0.0
C2665 C 0.6249 0.71322 0.42054 0.0
C2666 C 0.6258 0.75805 0.465 0.0
C2667 C 0.63042 0.75922 0.48279 0.0
C2668 C 0.6263 0.74797 0.45345 0.0
C2669 C 0.63137 0.73878 0.45945 0.0
C2670 C 0.63554 0.73964 0.47741 0.0
C2671 C 0.63511 0.74977 0.48893 0.0
H2672 H 0.29017 0.9451 0.43917 0.0
H2673 H 0.28001 0.9091 0.40379 0.0
H2674 H 0.27654 0.92796 0.46316 0.0
H2675 H 0.26637 0.89198 0.42772 0.0
H2676 H 0.2513 0.86522 0.47891 0.0
H2677 H 0.26916 0.88358 0.45856 0.0
H2678 H 0.24941 0.91011 0.46658 0.0
H2679 H 0.23162 0.89181 0.48687 0.0
C2680 C 0.28526 0.93353 0.43665 0.0
C2681 C 0.28607 0.92841 0.41963 0.0
C2682 C 0.27739 0.92374 0.45031 0.0
C2683 C 0.27037 0.90865 0.44727 0.0
C2684 C 0.27177 0.90355 0.43049 0.0
C2685 C 0.27947 0.91333 0.41677 0.0
C2686 C 0.25096 0.8751 0.47652 0.0
C2687 C 0.24006 0.87709 0.48436 0.0
C2688 C 0.2611 0.88554 0.46482 0.0
C2689 C 0.26065 0.89824 0.46098 0.0
C2690 C 0.2501 0.90049 0.46941 0.0
C2691 C 0.23986 0.88998 0.4809 0.0
H2692 H 0.0601 0.34658 0.43251 0.0
H2693 H 0.09307 0.37321 0.39399 0.0
H2694 H 0.07901 0.35129 0.45433 0.0
H2695 H 0.112 0.37839 0.41591 0.0
H2696 H 0.14048 0.36623 0.44856 0.0
H2697 H 0.12208 0.36505 0.42847 0.0
H2698 H 0.09818 0.36819 0.47339 0.0
H2699 H 0.1163 0.36852 0.49369 0.0
C2700 C 0.0714 0.35373 0.42888 0.0
C2701 C 0.07516 0.35941 0.41154 0.0
C2702 C 0.08224 0.35648 0.44139 0.0
C2703 C 0.09706 0.36508 0.43683 0.0
C2704 C 0.10073 0.37142 0.41975 0.0
C2705 C 0.0899 0.36852 0.40721 0.0
C2706 C 0.13126 0.36657 0.4542 0.0
C2707 C 0.12979 0.36728 0.47276 0.0
C2708 C 0.1208 0.36613 0.44263 0.0
C2709 C 0.10862 0.36655 0.44927 0.0
C2710 C 0.10733 0.36768 0.46783 0.0
C2711 C 0.1178 0.36804 0.47945 0.0
H2712 H 0.04816 0.31872 0.24906 0.0
H2713 H 0.04159 0.28246 0.28177 0.0
H2714 H 0.06182 0.313 0.22763 0.0
H2715 H 0.05538 0.2768 0.26034 0.0
H2716 H 0.09956 0.28838 0.23358 0.0
H2717 H 0.08135 0.28932 0.25245 0.0
H2718 H 0.06107 0.29518 0.20576 0.0
H2719 H 0.07958 0.29455 0.18686 0.0
C2720 C 0.04933 0.30932 0.25148 0.0
C2721 C 0.04389 0.30113 0.26722 0.0
C2722 C 0.05717 0.30604 0.23918 0.0
C2723 C 0.05977 0.29451 0.24236 0.0
C2724 C 0.05375 0.2859 0.25767 0.0
C2725 C 0.04588 0.28916 0.26995 0.0
C2726 C 0.09115 0.28977 0.22735 0.0
C2727 C 0.09107 0.29154 0.20878 0.0
C2728 C 0.08063 0.29015 0.23813 0.0
C2729 C 0.06979 0.29236 0.23059 0.0
C2730 C 0.06937 0.29358 0.21195 0.0
C2731 C 0.07987 0.29311 0.20113 0.0
H2732 H 0.66973 0.7428 0.28259 0.0
H2733 H 0.70766 0.7405 0.26654 0.0
H2734 H 0.67611 0.76234 0.26135 0.0
H2735 H 0.71365 0.75981 0.24462 0.0
H2736 H 0.70476 0.78313 0.19482 0.0
H2737 H 0.70137 0.76396 0.21575 0.0
H2738 H 0.69811 0.78879 0.25933 0.0
H2739 H 0.70195 0.80808 0.23872 0.0
C2740 C 0.67949 0.7465 0.27465 0.0
C2741 C 0.68831 0.7402 0.27656 0.0
C2742 C 0.68308 0.75765 0.2624 0.0
C2743 C 0.69544 0.76265 0.25152 0.0
C2744 C 0.70404 0.7561 0.25288 0.0
C2745 C 0.70056 0.74502 0.26537 0.0
C2746 C 0.70364 0.78463 0.20891 0.0
C2747 C 0.70337 0.79703 0.21505 0.0
C2748 C 0.70166 0.77365 0.22085 0.0
C2749 C 0.69928 0.77485 0.23906 0.0
C2750 C 0.69967 0.7875 0.24529 0.0
C2751 C 0.70179 0.7985 0.23345 0.0
H2752 H 0.2436 0.93138 0.28994 0.0
H2753 H 0.26142 0.96981 0.2568 0.0
H2754 H 0.22444 0.91817 0.26827 0.0
H2755 H 0.24207 0.95647 0.23493 0.0
H2756 H 0.21532 0.92013 0.19218 0.0
H2757 H 0.23401 0.93627 0.21343 0.0
H2758 H 0.20287 0.91733 0.25648 0.0
H2759 H 0.1844 0.90113 0.23534 0.0
C2760 C 0.24329 0.93709 0.27815 0.0
C2761 C 0.25397 0.95169 0.27519 0.0
C2762 C 0.23228 0.9295 0.2657 0.0
C2763 C 0.23163 0.93631 0.24994 0.0
C2764 C 0.24233 0.95091 0.24689 0.0
C2765 C 0.25339 0.95853 0.2594 0.0
C2766 C 0.21247 0.91964 0.20615 0.0
C2767 C 0.19851 0.90926 0.21218 0.0
C2768 C 0.22314 0.92887 0.21831 0.0
C2769 C 0.21998 0.92791 0.23668 0.0
C2770 C 0.20576 0.91809 0.24249 0.0
C2771 C 0.19516 0.90884 0.23039 0.0
H2772 H 0.67202 0.94663 0.25414 0.0
H2773 H 0.71385 0.95933 0.27777 0.0
H2774 H 0.67627 0.93289 0.2315 0.0
H2775 H 0.71761 0.94461 0.25575 0.0
H2776 H 0.72443 0.92386 0.20624 0.0
H2777 H 0.72192 0.94137 0.22494 0.0
H2778 H 0.67596 0.91054 0.231 0.0
H2779 H 0.67832 0.89354 0.21165 0.0
C2780 C 0.68223 0.94666 0.25443 0.0
C2781 C 0.69258 0.95411 0.26789 0.0
C2782 C 0.68456 0.93855 0.24156 0.0
C2783 C 0.69718 0.93745 0.24193 0.0
C2784 C 0.70779 0.94528 0.25499 0.0
C2785 C 0.70553 0.95356 0.26779 0.0
C2786 C 0.71376 0.92097 0.21132 0.0
C2787 C 0.70159 0.90726 0.20757 0.0
C2788 C 0.71235 0.93092 0.2222 0.0
C2789 C 0.69875 0.92737 0.22952 0.0
C2790 C 0.68657 0.91377 0.22542 0.0
C2791 C 0.68796 0.9039 0.21452 0.0
H2792 H 0.02729 0.74041 0.26086 0.0
H2793 H 0.06782 0.75431 0.28862 0.0
H2794 H 0.04019 0.75988 0.23898 0.0
H2795 H 0.08052 0.77372 0.26709 0.0
H2796 H 0.09788 0.81489 0.23643 0.0
H2797 H 0.08196 0.79661 0.25796 0.0
H2798 H 0.05907 0.76665 0.21491 0.0
H2799 H 0.07504 0.78509 0.19326 0.0
C2800 C 0.03892 0.74759 0.26232 0.0
C2801 C 0.04649 0.74586 0.27661 0.0
C2802 C 0.04628 0.75874 0.24981 0.0
C2803 C 0.06133 0.76841 0.25143 0.0
C2804 C 0.06886 0.76666 0.26571 0.0
C2805 C 0.06156 0.75552 0.27809 0.0
C2806 C 0.08935 0.80444 0.23156 0.0
C2807 C 0.08783 0.80131 0.2132 0.0
C2808 C 0.08026 0.79398 0.24388 0.0
C2809 C 0.06944 0.78011 0.23814 0.0
C2810 C 0.06729 0.77726 0.21972 0.0
C2811 C 0.07642 0.78779 0.20733 0.0
H2812 H 0.26864 0.29961 0.25373 0.0
H2813 H 0.25222 0.31885 0.29122 0.0
H2814 H 0.24995 0.29653 0.23218 0.0
H2815 H 0.2336 0.31573 0.2698 0.0
H2816 H 0.21634 0.32547 0.21875 0.0
H2817 H 0.23464 0.32719 0.23965 0.0
H2818 H 0.22188 0.2824 0.22901 0.0
H2819 H 0.20315 0.28044 0.20842 0.0
C2820 C 0.26098 0.30309 0.25738 0.0
C2821 C 0.26183 0.30943 0.27415 0.0
C2822 C 0.25027 0.30126 0.24511 0.0
C2823 C 0.2404 0.30597 0.24931 0.0
C2824 C 0.24115 0.31213 0.26617 0.0
C2825 C 0.25171 0.31378 0.27848 0.0
C2826 C 0.21728 0.31591 0.22096 0.0
C2827 C 0.20811 0.30275 0.21204 0.0
C2828 C 0.22781 0.31693 0.2329 0.0
C2829 C 0.22957 0.30489 0.23606 0.0
C2830 C 0.22078 0.29187 0.22675 0.0
C2831 C 0.2101 0.29078 0.21491 0.0
H2832 H 0.29359 0.38108 0.40677 0.0
H2833 H 0.28642 0.34204 0.43362 0.0
H2834 H 0.27818 0.38388 0.42868 0.0
H2835 H 0.27173 0.34531 0.45601 0.0
H2836 H 0.22976 0.3433 0.47489 0.0
H2837 H 0.24782 0.34223 0.45607 0.0
H2838 H 0.27514 0.389 0.4595 0.0
H2839 H 0.25665 0.39012 0.47784 0.0
C2840 C 0.28889 0.37319 0.41745 0.0
C2841 C 0.29115 0.36125 0.41827 0.0
C2842 C 0.28019 0.37491 0.43016 0.0
C2843 C 0.2736 0.36474 0.44402 0.0
C2844 C 0.27644 0.3532 0.44533 0.0
C2845 C 0.28506 0.35145 0.4326 0.0
C2846 C 0.23958 0.35338 0.47158 0.0
C2847 C 0.24168 0.36681 0.47771 0.0
C2848 C 0.25006 0.35275 0.46098 0.0
C2849 C 0.26297 0.36553 0.45628 0.0
C2850 C 0.26526 0.37896 0.46274 0.0
C2851 C 0.25473 0.37959 0.47338 0.0
H2852 H 0.65983 0.9383 0.43389 0.0
H2853 H 0.62234 0.90727 0.40374 0.0
H2854 H 0.65501 0.91972 0.45608 0.0
H2855 H 0.61728 0.88866 0.42616 0.0
H2856 H 0.62499 0.85574 0.45759 0.0
H2857 H 0.62708 0.87404 0.43636 0.0
H2858 H 0.63896 0.90521 0.47932 0.0
H2859 H 0.6372 0.88695 0.50044 0.0
C2860 C 0.65039 0.92756 0.43218 0.0
C2861 C 0.64147 0.92424 0.41707 0.0
C2862 C 0.64759 0.91689 0.44493 0.0
C2863 C 0.63573 0.90266 0.44295 0.0
C2864 C 0.62663 0.89943 0.42798 0.0
C2865 C 0.6295 0.91009 0.41515 0.0
C2866 C 0.62783 0.86644 0.46251 0.0
C2867 C 0.63102 0.86995 0.48064 0.0
C2868 C 0.629 0.87694 0.45035 0.0
C2869 C 0.6333 0.89116 0.45609 0.0
C2870 C 0.63594 0.89447 0.47437 0.0
C2871 C 0.63488 0.88401 0.48649 0.0
H2872 H 0.06126 0.7147 0.4341 0.0
H2873 H 0.09477 0.71969 0.39722 0.0
H2874 H 0.07982 0.72944 0.45603 0.0
H2875 H 0.11336 0.73431 0.41923 0.0
H2876 H 0.1412 0.77576 0.45221 0.0
H2877 H 0.12322 0.75838 0.43156 0.0
H2878 H 0.09855 0.73102 0.47586 0.0
H2879 H 0.1163 0.74879 0.49664 0.0
C2880 C 0.07259 0.7187 0.43082 0.0
C2881 C 0.07656 0.71611 0.41389 0.0
C2882 C 0.08323 0.72714 0.4434 0.0
C2883 C 0.09809 0.73314 0.43935 0.0
C2884 C 0.10203 0.73008 0.42265 0.0
C2885 C 0.09139 0.72169 0.41005 0.0
C2886 C 0.13191 0.76607 0.45757 0.0
C2887 C 0.13011 0.76374 0.47609 0.0
C2888 C 0.12169 0.75599 0.4457 0.0
C2889 C 0.10943 0.74329 0.45204 0.0
C2890 C 0.1078 0.74077 0.47055 0.0
C2891 C 0.11804 0.75087 0.48245 0.0
H2892 H 0.29769 0.0315 0.77321 0.0
H2893 H 0.30253 0.06297 0.73343 0.0
H2894 H 0.2919 0.04457 0.79562 0.0
H2895 H 0.29716 0.07623 0.75577 0.0
H2896 H 0.27849 0.09323 0.796 0.0
H2897 H 0.27933 0.07644 0.77458 0.0
H2898 H 0.30413 0.06668 0.812 0.0
H2899 H 0.30245 0.08271 0.83384 0.0
C2900 C 0.29749 0.04121 0.76928 0.0
C2901 C 0.30057 0.04622 0.75159 0.0
C2902 C 0.29422 0.04872 0.7821 0.0
C2903 C 0.2941 0.06151 0.77756 0.0
C2904 C 0.29687 0.0663 0.75973 0.0
C2905 C 0.3 0.05871 0.7469 0.0
C2906 C 0.2838 0.08723 0.79985 0.0
C2907 C 0.2905 0.08944 0.81664 0.0
C2908 C 0.28447 0.07774 0.78744 0.0
C2909 C 0.29196 0.07032 0.79143 0.0
C2910 C 0.29818 0.0721 0.80847 0.0
C2911 C 0.2974 0.08149 0.82093 0.0
H2912 H 0.92786 0.24784 0.73435 0.0
H2913 H 0.9686 0.25525 0.75659 0.0
H2914 H 0.91459 0.22916 0.75662 0.0
H2915 H 0.9551 0.23698 0.77953 0.0
H2916 H 0.92168 0.2168 0.82863 0.0
H2917 H 0.93695 0.23456 0.80587 0.0
H2918 H 0.91192 0.20377 0.7645 0.0
H2919 H 0.8968 0.186 0.78718 0.0
C2920 C 0.93404 0.24543 0.7438 0.0
C2921 C 0.94938 0.25305 0.74345 0.0
C2922 C 0.92639 0.23476 0.75665 0.0
C2923 C 0.93384 0.23162 0.7697 0.0
C2924 C 0.94912 0.23928 0.76962 0.0
C2925 C 0.95682 0.2498 0.75653 0.0
C2926 C 0.91958 0.21381 0.81467 0.0
C2927 C 0.90809 0.20005 0.80963 0.0
C2928 C 0.92833 0.22392 0.80169 0.0
C2929 C 0.92555 0.22051 0.78348 0.0
C2930 C 0.91423 0.20666 0.77846 0.0
C2931 C 0.90566 0.19648 0.79142 0.0
H2932 H 0.73005 0.67987 0.76702 0.0
H2933 H 0.76243 0.71388 0.7337 0.0
H2934 H 0.74851 0.68486 0.78948 0.0
H2935 H 0.7809 0.71935 0.75643 0.0
H2936 H 0.81254 0.711 0.78889 0.0
H2937 H 0.79425 0.70897 0.76777 0.0
H2938 H 0.76438 0.70085 0.81141 0.0
H2939 H 0.78261 0.70237 0.83243 0.0
C2940 C 0.74108 0.68865 0.76471 0.0
C2941 C 0.74484 0.69645 0.74862 0.0
C2942 C 0.75168 0.69157 0.77761 0.0
C2943 C 0.76627 0.70247 0.77478 0.0
C2944 C 0.76986 0.71066 0.75893 0.0
C2945 C 0.75929 0.7076 0.74594 0.0
C2946 C 0.80212 0.70896 0.79395 0.0
C2947 C 0.79896 0.70678 0.81226 0.0
C2948 C 0.79163 0.70785 0.78187 0.0
C2949 C 0.77777 0.70471 0.78783 0.0
C2950 C 0.77481 0.703 0.80627 0.0
C2951 C 0.78526 0.70393 0.81834 0.0
H2952 H 0.71235 0.6198 0.61382 0.0
H2953 H 0.72016 0.65826 0.5851 0.0
H2954 H 0.7255 0.61468 0.59086 0.0
H2955 H 0.73352 0.65335 0.56233 0.0
H2956 H 0.74862 0.6356 0.51746 0.0
H2957 H 0.73211 0.63761 0.53848 0.0
H2958 H 0.75028 0.62474 0.58148 0.0
H2959 H 0.76654 0.62251 0.56045 0.0
C2960 C 0.71686 0.62714 0.60256 0.0
C2961 C 0.71527 0.63945 0.60128 0.0
C2962 C 0.72442 0.62424 0.58944 0.0
C2963 C 0.73067 0.63366 0.57479 0.0
C2964 C 0.72869 0.64574 0.57327 0.0
C2965 C 0.72104 0.64858 0.58634 0.0
C2966 C 0.74902 0.63316 0.53141 0.0
C2967 C 0.75888 0.62892 0.53732 0.0
C2968 C 0.73959 0.63433 0.54345 0.0
C2969 C 0.73988 0.63137 0.56169 0.0
C2970 C 0.74956 0.62685 0.5675 0.0
C2971 C 0.75892 0.62561 0.55545 0.0
H2972 H 0.3419 0.08082 0.62075 0.0
H2973 H 0.36551 0.06613 0.58798 0.0
H2974 H 0.34435 0.09795 0.59754 0.0
H2975 H 0.36793 0.08335 0.56456 0.0
H2976 H 0.38307 0.13017 0.54008 0.0
H2977 H 0.38065 0.11131 0.5608 0.0
H2978 H 0.33473 0.09599 0.56618 0.0
H2979 H 0.33699 0.11451 0.54523 0.0
C2980 C 0.3477 0.08134 0.6086 0.0
C2981 C 0.3536 0.07223 0.60619 0.0
C2982 C 0.34898 0.09103 0.59526 0.0
C2983 C 0.35627 0.09192 0.57924 0.0
C2984 C 0.3623 0.08291 0.57683 0.0
C2985 C 0.36086 0.07303 0.59014 0.0
C2986 C 0.37241 0.1226 0.5454 0.0
C2987 C 0.36026 0.12399 0.54118 0.0
C2988 C 0.37104 0.11183 0.55728 0.0
C2989 C 0.35754 0.10233 0.56524 0.0
C2990 C 0.34532 0.10335 0.56049 0.0
C2991 C 0.34664 0.114 0.54853 0.0
H2992 H 0.93532 0.30045 0.58142 0.0
H2993 H 0.91497 0.2629 0.61602 0.0
H2994 H 0.91608 0.28745 0.55929 0.0
H2995 H 0.89597 0.24996 0.59406 0.0
H2996 H 0.85656 0.23416 0.56057 0.0
H2997 H 0.87535 0.25019 0.58151 0.0
H2998 H 0.9068 0.26684 0.53853 0.0
H2999 H 0.88773 0.25096 0.51746 0.0
C3000 C 0.92678 0.28942 0.58425 0.0
C3001 C 0.92655 0.28275 0.60053 0.0
C3002 C 0.91577 0.28198 0.5716 0.0
C3003 C 0.90439 0.26773 0.575 0.0
C3004 C 0.90434 0.26106 0.5912 0.0
C3005 C 0.91526 0.26847 0.6038 0.0
C3006 C 0.86746 0.24138 0.5556 0.0
C3007 C 0.87078 0.24124 0.53749 0.0
C3008 C 0.87824 0.2505 0.56757 0.0
C3009 C 0.89264 0.25958 0.56175 0.0
C3010 C 0.8958 0.26001 0.54343 0.0
C3011 C 0.88492 0.25093 0.53138 0.0
H3012 H 0.34004 0.28337 0.58523 0.0
H3013 H 0.37675 0.28781 0.61524 0.0
H3014 H 0.34413 0.26939 0.5626 0.0
H3015 H 0.38043 0.27321 0.5929 0.0
H3016 H 0.3889 0.25404 0.54275 0.0
H3017 H 0.38724 0.27192 0.5618 0.0
H3018 H 0.34035 0.24495 0.56218 0.0
H3019 H 0.342 0.22745 0.54281 0.0
C3020 C 0.34913 0.28157 0.58689 0.0
C3021 C 0.35803 0.28667 0.60212 0.0
C3022 C 0.35136 0.27338 0.574 0.0
C3023 C 0.3625 0.27004 0.57606 0.0
C3024 C 0.3718 0.27565 0.59088 0.0
C3025 C 0.36958 0.28388 0.60378 0.0
C3026 C 0.37825 0.25208 0.54672 0.0
C3027 C 0.36558 0.2393 0.54141 0.0
C3028 C 0.37731 0.26224 0.55773 0.0
C3029 C 0.36367 0.25984 0.56351 0.0
C3030 C 0.35102 0.24722 0.55781 0.0
C3031 C 0.35197 0.23709 0.54689 0.0
H3032 H 0.73966 0.08753 0.61901 0.0
H3033 H 0.69969 0.07193 0.58932 0.0
H3034 H 0.75257 0.10638 0.59686 0.0
H3035 H 0.71277 0.09089 0.56691 0.0
H3036 H 0.74784 0.11598 0.52185 0.0
H3037 H 0.73202 0.0977 0.54372 0.0
H3038 H 0.75378 0.12869 0.58624 0.0
H3039 H 0.76959 0.1468 0.56447 0.0
C3040 C 0.73357 0.08825 0.60789 0.0
C3041 C 0.71861 0.0783 0.60605 0.0
C3042 C 0.74098 0.09907 0.59516 0.0
C3043 C 0.73365 0.10022 0.58023 0.0
C3044 C 0.71871 0.09022 0.57824 0.0
C3045 C 0.71125 0.07937 0.59106 0.0
C3046 C 0.74902 0.11892 0.53585 0.0
C3047 C 0.76007 0.1327 0.54152 0.0
C3048 C 0.73998 0.10848 0.54836 0.0
C3049 C 0.74183 0.1117 0.56672 0.0
C3050 C 0.75232 0.12578 0.57222 0.0
C3051 C 0.76135 0.13615 0.55977 0.0
H3052 H 0.91453 0.65578 0.61689 0.0
H3053 H 0.92812 0.6298 0.58695 0.0
H3054 H 0.89564 0.65036 0.59497 0.0
H3055 H 0.90936 0.62473 0.5647 0.0
H3056 H 0.8854 0.63558 0.51986 0.0
H3057 H 0.90383 0.63891 0.54185 0.0
H3058 H 0.87251 0.62869 0.5842 0.0
H3059 H 0.85418 0.62556 0.5623 0.0
C3060 C 0.9134 0.64877 0.60576 0.0
C3061 C 0.92282 0.64314 0.60381 0.0
C3062 C 0.90258 0.64571 0.59316 0.0
C3063 C 0.90099 0.63707 0.57818 0.0
C3064 C 0.91043 0.63152 0.57607 0.0
C3065 C 0.92119 0.63446 0.58879 0.0
C3066 C 0.88247 0.634 0.53387 0.0
C3067 C 0.86837 0.63034 0.53937 0.0
C3068 C 0.89297 0.63579 0.54642 0.0
C3069 C 0.88961 0.63412 0.56473 0.0
C3070 C 0.87543 0.63018 0.57018 0.0
C3071 C 0.86491 0.62825 0.55764 0.0
H3072 H 0.96661 0.70755 0.76088 0.0
H3073 H 0.92737 0.67977 0.7312 0.0
H3074 H 0.9521 0.71085 0.78381 0.0
H3075 H 0.91303 0.68355 0.75362 0.0
H3076 H 0.89014 0.67856 0.80632 0.0
H3077 H 0.9055 0.67614 0.78411 0.0
H3078 H 0.93696 0.72199 0.78912 0.0
H3079 H 0.92179 0.7243 0.81199 0.0
C3080 C 0.95492 0.70222 0.7592 0.0
C3081 C 0.94816 0.6934 0.7442 0.0
C3082 C 0.94662 0.70422 0.77224 0.0
C3083 C 0.9314 0.69739 0.77059 0.0
C3084 C 0.92471 0.68879 0.75544 0.0
C3085 C 0.93297 0.6868 0.74244 0.0
C3086 C 0.90043 0.6881 0.80291 0.0
C3087 C 0.90475 0.70162 0.81099 0.0
C3088 C 0.90915 0.68675 0.78998 0.0
C3089 C 0.92241 0.6989 0.78473 0.0
C3090 C 0.92685 0.71241 0.79294 0.0
C3091 C 0.91809 0.71376 0.80591 0.0
H3092 H 0.30724 0.24014 0.7294 0.0
H3093 H 0.30011 0.26528 0.76934 0.0
H3094 H 0.30273 0.22164 0.75158 0.0
H3095 H 0.29534 0.24662 0.79158 0.0
H3096 H 0.30643 0.21969 0.82981 0.0
H3097 H 0.30846 0.2375 0.8079 0.0
H3098 H 0.28447 0.2029 0.76991 0.0
H3099 H 0.28314 0.18518 0.79149 0.0
C3100 C 0.30445 0.24158 0.74287 0.0
C3101 C 0.30404 0.25417 0.74763 0.0
C3102 C 0.30183 0.23096 0.7556 0.0
C3103 C 0.29866 0.23262 0.77339 0.0
C3104 C 0.29797 0.24509 0.77807 0.0
C3105 C 0.30067 0.25577 0.76534 0.0
C3106 C 0.30164 0.21589 0.81675 0.0
C3107 C 0.29473 0.20101 0.81237 0.0
C3108 C 0.30264 0.22609 0.80425 0.0
C3109 C 0.29668 0.22165 0.78709 0.0
C3110 C 0.28937 0.20672 0.78291 0.0
C3111 C 0.28843 0.19653 0.79538 0.0
H3112 H 0.73394 0.03328 0.76984 0.0
H3113 H 0.76093 0.06379 0.72926 0.0
H3114 H 0.75285 0.04672 0.79204 0.0
H3115 H 0.77962 0.07749 0.75139 0.0
H3116 H 0.81534 0.09487 0.79173 0.0
H3117 H 0.79757 0.07808 0.77046 0.0
H3118 H 0.76296 0.06904 0.80781 0.0
H3119 H 0.78082 0.08505 0.82955 0.0
C3120 C 0.74394 0.04285 0.76569 0.0
C3121 C 0.74597 0.04749 0.74784 0.0
C3122 C 0.75475 0.0506 0.7784 0.0
C3123 C 0.76777 0.06326 0.77357 0.0
C3124 C 0.76989 0.06767 0.75559 0.0
C3125 C 0.75915 0.05984 0.74287 0.0
C3126 C 0.80398 0.08905 0.7956 0.0
C3127 C 0.79954 0.09141 0.81237 0.0
C3128 C 0.79374 0.07956 0.78326 0.0
C3129 C 0.77878 0.07229 0.78729 0.0
C3130 C 0.77438 0.07433 0.80426 0.0
C3131 C 0.78463 0.08371 0.81666 0.0
H3132 H 0.06444 0.34728 0.07118 0.0
H3133 H 0.06131 0.31757 0.02964 0.0
H3134 H 0.07899 0.34026 0.08907 0.0
H3135 H 0.07542 0.3101 0.0479 0.0
H3136 H 0.11406 0.31214 0.07852 0.0
H3137 H 0.09989 0.31915 0.05969 0.0
H3138 H 0.07552 0.31925 0.10589 0.0
H3139 H 0.08971 0.3123 0.12469 0.0
C3140 C 0.06695 0.33933 0.06579 0.0
C3141 C 0.06173 0.33301 0.04895 0.0
C3142 C 0.07512 0.33515 0.07617 0.0
C3143 C 0.07827 0.32454 0.06998 0.0
C3144 C 0.07326 0.31837 0.05302 0.0
C3145 C 0.06506 0.32255 0.04262 0.0
C3146 C 0.10556 0.31349 0.08461 0.0
C3147 C 0.10304 0.31172 0.10311 0.0
C3148 C 0.09745 0.31752 0.07382 0.0
C3149 C 0.08664 0.31985 0.0813 0.0
C3150 C 0.08396 0.31782 0.09976 0.0
C3151 C 0.09207 0.31382 0.11053 0.0
H3152 H 0.68727 0.7374 0.04036 0.0
H3153 H 0.64758 0.71473 0.0712 0.0
H3154 H 0.69456 0.75936 0.05775 0.0
H3155 H 0.65528 0.73643 0.08929 0.0
H3156 H 0.66603 0.78183 0.10628 0.0
H3157 H 0.65857 0.76029 0.08789 0.0
H3158 H 0.70301 0.76923 0.08684 0.0
H3159 H 0.71049 0.79101 0.10492 0.0
C3160 C 0.68006 0.7371 0.05081 0.0
C3161 C 0.6668 0.72429 0.05432 0.0
C3162 C 0.68436 0.74965 0.06097 0.0
C3163 C 0.67554 0.74967 0.07498 0.0
C3164 C 0.66227 0.73687 0.07847 0.0
C3165 C 0.65793 0.72435 0.06824 0.0
C3166 C 0.67418 0.77913 0.10218 0.0
C3167 C 0.68883 0.78804 0.10708 0.0
C3168 C 0.6699 0.76677 0.09168 0.0
C3169 C 0.68017 0.76297 0.08593 0.0
C3170 C 0.69485 0.77195 0.0908 0.0
C3171 C 0.69914 0.78439 0.1012 0.0
H3172 H 0.25913 0.94113 0.03453 0.0
H3173 H 0.28373 0.93472 0.0757 0.0
H3174 H 0.23673 0.9263 0.05136 0.0
H3175 H 0.26137 0.91982 0.09246 0.0
H3176 H 0.22221 0.91019 0.12723 0.0
H3177 H 0.24415 0.92378 0.10929 0.0
H3178 H 0.21997 0.90171 0.06187 0.0
H3179 H 0.19797 0.88815 0.07986 0.0
C3180 C 0.25971 0.93634 0.04703 0.0
C3181 C 0.27319 0.93917 0.05386 0.0
C3182 C 0.24689 0.92786 0.05668 0.0
C3183 C 0.24728 0.922 0.07334 0.0
C3184 C 0.26073 0.92444 0.07985 0.0
C3185 C 0.27353 0.93294 0.07024 0.0
C3186 C 0.2216 0.90818 0.11299 0.0
C3187 C 0.20837 0.89808 0.10497 0.0
C3188 C 0.23418 0.91593 0.10271 0.0
C3189 C 0.23383 0.91375 0.08416 0.0
C3190 C 0.22056 0.90374 0.0761 0.0
C3191 C 0.20796 0.89599 0.0864 0.0
H3192 H 0.30534 0.03746 0.96827 0.0
H3193 H 0.35081 0.07064 0.96715 0.0
H3194 H 0.29922 0.05367 0.95214 0.0
H3195 H 0.34467 0.08688 0.95106 0.0
H3196 H 0.32418 0.11589 0.94083 0.0
H3197 H 0.33004 0.09983 0.95751 0.0
H3198 H 0.30469 0.06494 0.92055 0.0
H3199 H 0.29925 0.08109 0.90335 0.0
C3200 C 0.31399 0.04827 0.96469 0.0
C3201 C 0.32854 0.05284 0.96895 0.0
C3202 C 0.3105 0.05747 0.95536 0.0
C3203 C 0.32148 0.07149 0.95037 0.0
C3204 C 0.33601 0.07615 0.95486 0.0
C3205 C 0.33952 0.06685 0.96395 0.0
C3206 C 0.31999 0.10486 0.93607 0.0
C3207 C 0.31128 0.09984 0.92065 0.0
C3208 C 0.32331 0.09567 0.9457 0.0
C3209 C 0.31782 0.08118 0.94029 0.0
C3210 C 0.30893 0.07604 0.92509 0.0
C3211 C 0.30577 0.08529 0.91531 0.0
H3212 H 0.94348 0.26395 0.98769 0.0
H3213 H 0.95395 0.28722 0.93762 0.0
H3214 H 0.92785 0.24121 0.97198 0.0
H3215 H 0.9378 0.26464 0.92207 0.0
H3216 H 0.91988 0.22002 0.89698 0.0
H3217 H 0.93628 0.2421 0.91338 0.0
H3218 H 0.90497 0.22881 0.95637 0.0
H3219 H 0.8889 0.2064 0.94037 0.0
C3220 C 0.94243 0.26422 0.97334 0.0
C3221 C 0.94997 0.27742 0.96393 0.0
C3222 C 0.93335 0.25121 0.96436 0.0
C3223 C 0.93158 0.25109 0.94575 0.0
C3224 C 0.93906 0.2643 0.93637 0.0
C3225 C 0.94816 0.27729 0.94534 0.0
C3226 C 0.9166 0.2217 0.91006 0.0
C3227 C 0.90306 0.21145 0.91734 0.0
C3228 C 0.92591 0.23445 0.91936 0.0
C3229 C 0.9219 0.23728 0.93614 0.0
C3230 C 0.90846 0.22693 0.94354 0.0
C3231 C 0.89916 0.21416 0.93427 0.0
H3232 H 0.7242 0.69148 0.94943 0.0
H3233 H 0.72317 0.65365 0.97228 0.0
H3234 H 0.74694 0.69782 0.93425 0.0
H3235 H 0.74585 0.65994 0.95691 0.0
H3236 H 0.77662 0.66682 0.91004 0.0
H3237 H 0.75432 0.66092 0.92598 0.0
H3238 H 0.77276 0.70609 0.9409 0.0
H3239 H 0.7952 0.71201 0.92508 0.0
C3240 C 0.7289 0.6846 0.95137 0.0
C3241 C 0.72186 0.67205 0.96208 0.0
C3242 C 0.74192 0.68823 0.94265 0.0
C3243 C 0.74817 0.67937 0.94437 0.0
C3244 C 0.74118 0.66687 0.95513 0.0
C3245 C 0.72818 0.66326 0.96391 0.0
C3246 C 0.776 0.67548 0.91688 0.0
C3247 C 0.78773 0.68988 0.91636 0.0
C3248 C 0.76321 0.67209 0.926 0.0
C3249 C 0.76181 0.68303 0.93475 0.0
C3250 C 0.77347 0.69746 0.93412 0.0
C3251 C 0.7863 0.70085 0.92504 0.0
H3252 H 0.94117 0.67977 0.99089 0.0
H3253 H 0.9488 0.66286 0.9421 0.0
H3254 H 0.92622 0.68729 0.97453 0.0
H3255 H 0.93334 0.66973 0.92595 0.0
H3256 H 0.91731 0.69692 0.8985 0.0
H3257 H 0.93325 0.69113 0.91554 0.0
H3258 H 0.90292 0.67691 0.95969 0.0
H3259 H 0.88734 0.68335 0.94298 0.0
C3260 C 0.93962 0.67762 0.9767 0.0
C3261 C 0.94612 0.67066 0.96782 0.0
C3262 C 0.93094 0.6818 0.96735 0.0
C3263 C 0.92859 0.67912 0.94892 0.0
C3264 C 0.93507 0.67213 0.94008 0.0
C3265 C 0.94375 0.66798 0.94941 0.0
C3266 C 0.91416 0.69278 0.91195 0.0
C3267 C 0.90103 0.69055 0.91935 0.0
C3268 C 0.9232 0.68929 0.92164 0.0
C3269 C 0.91931 0.68345 0.93894 0.0
C3270 C 0.90631 0.68148 0.94646 0.0
C3271 C 0.89729 0.68501 0.93679 0.0
H3272 H 0.31383 0.27933 0.94611 0.0
H3273 H 0.34735 0.27672 0.97568 0.0
H3274 H 0.30755 0.25658 0.93099 0.0
H3275 H 0.3413 0.2542 0.96008 0.0
H3276 H 0.33677 0.22449 0.91206 0.0
H3277 H 0.34268 0.24674 0.92816 0.0
H3278 H 0.29705 0.22988 0.93903 0.0
H3279 H 0.29108 0.20738 0.92342 0.0
C3280 C 0.31979 0.27387 0.94952 0.0
C3281 C 0.3311 0.27989 0.96216 0.0
C3282 C 0.3162 0.26086 0.9408 0.0
C3283 C 0.32395 0.25366 0.94436 0.0
C3284 C 0.33527 0.25964 0.95693 0.0
C3285 C 0.33876 0.27257 0.96581 0.0
C3286 C 0.32799 0.2254 0.91809 0.0
C3287 C 0.31344 0.21409 0.91645 0.0
C3288 C 0.33139 0.23818 0.92726 0.0
C3289 C 0.32032 0.24002 0.93483 0.0
C3290 C 0.30578 0.2288 0.93314 0.0
C3291 C 0.30238 0.21594 0.92413 0.0
H3292 H 0.72495 0.03425 0.95061 0.0
H3293 H 0.72864 0.07093 0.98021 0.0
H3294 H 0.74733 0.05035 0.9348 0.0
H3295 H 0.75052 0.0872 0.96346 0.0
H3296 H 0.79716 0.11081 0.94268 0.0
H3297 H 0.77542 0.09442 0.95974 0.0
H3298 H 0.75643 0.06836 0.91237 0.0
H3299 H 0.77837 0.08454 0.89556 0.0
C3300 C 0.73054 0.04575 0.95382 0.0
C3301 C 0.72496 0.05124 0.96679 0.0
C3302 C 0.74329 0.05504 0.94451 0.0
C3303 C 0.75073 0.07012 0.94774 0.0
C3304 C 0.74519 0.07563 0.96074 0.0
C3305 C 0.7325 0.06631 0.97019 0.0
C3306 C 0.7883 0.10158 0.93596 0.0
C3307 C 0.78945 0.09892 0.91782 0.0
C3308 C 0.77582 0.09221 0.94569 0.0
C3309 C 0.76412 0.08004 0.93746 0.0
C3310 C 0.7653 0.07744 0.91927 0.0
C3311 C 0.77785 0.08673 0.90959 0.0
H3312 H 0.6507 0.93208 0.06848 0.0
H3313 H 0.68918 0.94682 0.03587 0.0
H3314 H 0.65744 0.9169 0.08568 0.0
H3315 H 0.69607 0.93183 0.05334 0.0
H3316 H 0.69467 0.89118 0.07829 0.0
H3317 H 0.6878 0.90567 0.05982 0.0
H3318 H 0.67711 0.92156 0.10724 0.0
H3319 H 0.6842 0.90734 0.12572 0.0
C3320 C 0.66052 0.93196 0.06487 0.0
C3321 C 0.66942 0.94065 0.05084 0.0
C3322 C 0.66446 0.92339 0.07485 0.0
C3323 C 0.67734 0.92326 0.07093 0.0
C3324 C 0.68605 0.93166 0.05661 0.0
C3325 C 0.68217 0.94032 0.04671 0.0
C3326 C 0.69104 0.89791 0.0848 0.0
C3327 C 0.68993 0.89803 0.10351 0.0
C3328 C 0.68706 0.90617 0.0742 0.0
C3329 C 0.68181 0.91465 0.08208 0.0
C3330 C 0.68086 0.91491 0.10077 0.0
C3331 C 0.68491 0.90674 0.11135 0.0
H3332 H 0.07646 0.73636 0.03548 0.0
H3333 H 0.03654 0.72892 0.06029 0.0
H3334 H 0.09029 0.75791 0.05421 0.0
H3335 H 0.05031 0.75058 0.0787 0.0
H3336 H 0.08195 0.77862 0.12336 0.0
H3337 H 0.06788 0.75777 0.10376 0.0
H3338 H 0.09386 0.78277 0.05877 0.0
H3339 H 0.10812 0.80354 0.07844 0.0
C3340 C 0.07065 0.73938 0.04486 0.0
C3341 C 0.05542 0.73098 0.0464 0.0
C3342 C 0.07854 0.75176 0.05547 0.0
C3343 C 0.07137 0.7559 0.06793 0.0
C3344 C 0.05614 0.74758 0.06932 0.0
C3345 C 0.04825 0.73527 0.05865 0.0
C3346 C 0.08466 0.77964 0.10929 0.0
C3347 C 0.09612 0.7927 0.10243 0.0
C3348 C 0.07653 0.76776 0.09805 0.0
C3349 C 0.07977 0.76866 0.07974 0.0
C3350 C 0.09119 0.78174 0.07286 0.0
C3351 C 0.09925 0.79366 0.08408 0.0
H3352 H 0.26362 0.31551 0.03756 0.0
H3353 H 0.28854 0.35318 0.07105 0.0
H3354 H 0.24179 0.30924 0.05492 0.0
H3355 H 0.26679 0.34683 0.08856 0.0
H3356 H 0.22218 0.33895 0.10549 0.0
H3357 H 0.24355 0.34556 0.08706 0.0
H3358 H 0.2317 0.30028 0.08413 0.0
H3359 H 0.21022 0.29369 0.10238 0.0
C3360 C 0.26443 0.32241 0.04868 0.0
C3361 C 0.27779 0.33484 0.05294 0.0
C3362 C 0.25194 0.3188 0.05866 0.0
C3363 C 0.25254 0.32751 0.07317 0.0
C3364 C 0.26588 0.34001 0.0773 0.0
C3365 C 0.27835 0.34365 0.06728 0.0
C3366 C 0.2242 0.33043 0.10099 0.0
C3367 C 0.21455 0.3158 0.1054 0.0
C3368 C 0.23645 0.33421 0.09044 0.0
C3369 C 0.23936 0.32346 0.08412 0.0
C3370 C 0.22967 0.30882 0.08853 0.0
C3371 C 0.21738 0.30503 0.09901 0.0
H3372 H 0.72015 0.65165 0.36533 0.0
H3373 H 0.72004 0.67539 0.41215 0.0
H3374 H 0.73597 0.64463 0.38063 0.0
H3375 H 0.73612 0.66865 0.4273 0.0
H3376 H 0.7505 0.63958 0.45514 0.0
H3377 H 0.73455 0.64618 0.4394 0.0
H3378 H 0.76123 0.65596 0.39214 0.0
H3379 H 0.77699 0.64904 0.40775 0.0
C3380 C 0.72354 0.65539 0.37887 0.0
C3381 C 0.71885 0.66405 0.38755 0.0
C3382 C 0.73268 0.65147 0.38757 0.0
C3383 C 0.73723 0.65605 0.40518 0.0
C3384 C 0.73265 0.66482 0.4138 0.0
C3385 C 0.72359 0.66882 0.40506 0.0
C3386 C 0.75284 0.64297 0.44133 0.0
C3387 C 0.76498 0.64379 0.43267 0.0
C3388 C 0.74382 0.64691 0.43239 0.0
C3389 C 0.74669 0.65166 0.41457 0.0
C3390 C 0.75869 0.65226 0.40583 0.0
C3391 C 0.76777 0.64841 0.41481 0.0
H3392 H 0.31352 0.04715 0.4022 0.0
H3393 H 0.35552 0.06911 0.37608 0.0
H3394 H 0.31973 0.06931 0.41851 0.0
H3395 H 0.36135 0.09155 0.39157 0.0
H3396 H 0.37336 0.1241 0.43765 0.0
H3397 H 0.36746 0.10224 0.42054 0.0
H3398 H 0.32311 0.093 0.41483 0.0
H3399 H 0.32898 0.11461 0.43237 0.0
C3400 C 0.32407 0.05671 0.39989 0.0
C3401 C 0.33403 0.05629 0.38786 0.0
C3402 C 0.32755 0.06951 0.40907 0.0
C3403 C 0.34104 0.08226 0.40634 0.0
C3404 C 0.35094 0.08189 0.39417 0.0
C3405 C 0.3475 0.06906 0.38508 0.0
C3406 C 0.36239 0.11742 0.43261 0.0
C3407 C 0.3516 0.12098 0.4364 0.0
C3408 C 0.359 0.10493 0.42276 0.0
C3409 C 0.34479 0.09581 0.41635 0.0
C3410 C 0.33409 0.09959 0.41987 0.0
C3411 C 0.33745 0.11199 0.42985 0.0
H3412 H 0.95245 0.26786 0.39901 0.0
H3413 H 0.93123 0.28845 0.37295 0.0
H3414 H 0.93013 0.25206 0.41518 0.0
H3415 H 0.90861 0.27193 0.38816 0.0
H3416 H 0.87519 0.2511 0.43307 0.0
H3417 H 0.89741 0.26713 0.41659 0.0
H3418 H 0.90648 0.2319 0.41149 0.0
H3419 H 0.88453 0.21612 0.42852 0.0
C3420 C 0.94303 0.26902 0.39669 0.0
C3421 C 0.9437 0.27949 0.38469 0.0
C3422 C 0.93013 0.25978 0.40577 0.0
C3423 C 0.91751 0.26065 0.40295 0.0
C3424 C 0.91814 0.27105 0.39084 0.0
C3425 C 0.93109 0.2804 0.3819 0.0
C3426 C 0.88192 0.24681 0.42831 0.0
C3427 C 0.87821 0.23242 0.43211 0.0
C3428 C 0.89463 0.25596 0.41881 0.0
C3429 C 0.9038 0.25084 0.41272 0.0
C3430 C 0.89987 0.23632 0.41627 0.0
C3431 C 0.88727 0.22724 0.42595 0.0
H3432 H 0.98954 0.39015 0.31295 0.0
H3433 H 0.0244 0.3979 0.27667 0.0
H3434 H 0.98524 0.4073 0.29624 0.0
H3435 H 0.02052 0.41548 0.26047 0.0
H3436 H 0.99804 0.43192 0.22333 0.0
H3437 H 0.00234 0.41511 0.24071 0.0
H3438 H 0.9961 0.43314 0.28944 0.0
H3439 H 0.99169 0.44993 0.27198 0.0
C3440 C 0.99632 0.39555 0.30146 0.0
C3441 C 0.00728 0.39261 0.2961 0.0
C3442 C 0.99396 0.4055 0.292 0.0
C3443 C 0.00249 0.41271 0.27698 0.0
C3444 C 0.01361 0.40995 0.27183 0.0
C3445 C 0.01597 0.40001 0.28127 0.0
C3446 C 0.99768 0.43236 0.23776 0.0
C3447 C 0.99459 0.44228 0.24629 0.0
C3448 C 0.00017 0.42275 0.24772 0.0
C3449 C -0.00034 0.42285 0.26647 0.0
C3450 C 0.99642 0.43268 0.27502 0.0
C3451 C 0.99389 0.44229 0.26503 0.0
H3452 H 0.61498 0.59623 0.31347 0.0
H3453 H 0.60262 0.61999 0.27767 0.0
H3454 H 0.60097 0.57427 0.29567 0.0
H3455 H 0.58872 0.59804 0.25979 0.0
H3456 H 0.57898 0.56044 0.22184 0.0
H3457 H 0.59328 0.58216 0.23995 0.0
H3458 H 0.57544 0.55666 0.28785 0.0
H3459 H 0.56103 0.53495 0.26975 0.0
C3460 C 0.60915 0.59673 0.30192 0.0
C3461 C 0.60992 0.60987 0.297 0.0
C3462 C 0.60115 0.58415 0.2917 0.0
C3463 C 0.59379 0.58444 0.2763 0.0
C3464 C 0.59448 0.59754 0.27143 0.0
C3465 C 0.60244 0.61011 0.28167 0.0
C3466 C 0.57806 0.55948 0.23623 0.0
C3467 C 0.56883 0.54597 0.24435 0.0
C3468 C 0.58624 0.57192 0.2466 0.0
C3469 C 0.58541 0.57113 0.26532 0.0
C3470 C 0.57642 0.55758 0.27345 0.0
C3471 C 0.5682 0.54514 0.26308 0.0
H3472 H 0.39967 0.00936 0.31475 0.0
H3473 H 0.37161 0.97931 0.27439 0.0
H3474 H 0.421 0.01354 0.29762 0.0
H3475 H 0.39288 0.98359 0.25717 0.0
H3476 H 0.43388 0.98325 0.24016 0.0
H3477 H 0.41283 0.97894 0.25782 0.0
H3478 H 0.43382 0.02484 0.27027 0.0
H3479 H 0.45519 0.02904 0.25329 0.0
C3480 C 0.39807 0.00372 0.30216 0.0
C3481 C 0.38397 0.99399 0.29593 0.0
C3482 C 0.41028 0.00613 0.29233 0.0
C3483 C 0.40865 0.99891 0.27601 0.0
C3484 C 0.39453 0.98915 0.26982 0.0
C3485 C 0.38234 0.9867 0.27969 0.0
C3486 C 0.43408 0.9924 0.24683 0.0
C3487 C 0.44626 0.00648 0.24536 0.0
C3488 C 0.42193 0.98996 0.25678 0.0
C3489 C 0.42162 0.00154 0.26545 0.0
C3490 C 0.43376 0.01564 0.26393 0.0
C3491 C 0.44595 0.01808 0.254 0.0
H3492 H 0.61419 0.99007 0.2724 0.0
H3493 H 0.60069 0.0014 0.32142 0.0
H3494 H 0.59764 0.99503 0.25567 0.0
H3495 H 0.58474 0.00725 0.30449 0.0
H3496 H 0.54565 -0.00014 0.27072 0.0
H3497 H 0.56246 0.9956 0.28809 0.0
H3498 H 0.59438 0.01443 0.24581 0.0
H3499 H 0.57723 0.01784 0.22799 0.0
C3500 C 0.60768 0.99361 0.27963 0.0
C3501 C 0.60869 0.9952 0.2983 0.0
C3502 C 0.59835 0.99669 0.26998 0.0
C3503 C 0.58988 0.0016 0.2787 0.0
C3504 C 0.59098 0.00334 0.29736 0.0
C3505 C 0.60026 0.00015 0.30705 0.0
C3506 C 0.5562 0.00296 0.26505 0.0
C3507 C 0.56003 0.00908 0.24788 0.0
C3508 C 0.56593 0.00071 0.27513 0.0
C3509 C 0.57978 0.00462 0.26834 0.0
C3510 C 0.58373 0.01107 0.25135 0.0
C3511 C 0.57396 0.01322 0.24121 0.0
H3512 H 0.01586 0.6096 0.31227 0.0
H3513 H 0.98849 0.61669 0.276 0.0
H3514 H 0.01132 0.58813 0.29518 0.0
H3515 H 0.98357 0.59498 0.25929 0.0
H3516 H 0.99303 0.56639 0.22202 0.0
H3517 H 0.99688 0.58736 0.23959 0.0
H3518 H 0.99164 0.56332 0.28813 0.0
H3519 H 0.98825 0.54246 0.27053 0.0
C3520 C 0.00886 0.60656 0.30067 0.0
C3521 C 0.00256 0.61486 0.29546 0.0
C3522 C 0.00614 0.59418 0.291 0.0
C3523 C 0.99709 0.58986 0.27588 0.0
C3524 C 0.9907 0.5981 0.27077 0.0
C3525 C 0.99339 0.61045 0.28046 0.0
C3526 C 0.99278 0.56561 0.23644 0.0
C3527 C 0.99039 0.55279 0.24489 0.0
C3528 C 0.99483 0.57757 0.24651 0.0
C3529 C 0.99456 0.577 0.26525 0.0
C3530 C 0.99205 0.56414 0.27371 0.0
C3531 C 0.98994 0.55214 0.26364 0.0
H3532 H 0.40874 0.3863 0.31697 0.0
H3533 H 0.38416 0.39882 0.28285 0.0
H3534 H 0.43066 0.40158 0.29945 0.0
H3535 H 0.40611 0.41438 0.26574 0.0
H3536 H 0.44298 0.42546 0.22634 0.0
H3537 H 0.42171 0.41057 0.24483 0.0
H3538 H 0.44809 0.42742 0.29224 0.0
H3539 H 0.46943 0.44245 0.27371 0.0
C3540 C 0.40804 0.39237 0.3058 0.0
C3541 C 0.39471 0.39132 0.30127 0.0
C3542 C 0.42061 0.40121 0.29587 0.0
C3543 C 0.42008 0.4091 0.28115 0.0
C3544 C 0.40682 0.40827 0.27686 0.0
C3545 C 0.39428 0.3995 0.28681 0.0
C3546 C 0.44424 0.42608 0.24071 0.0
C3547 C 0.45788 0.43522 0.24855 0.0
C3548 C 0.43205 0.41755 0.2513 0.0
C3549 C 0.4332 0.41792 0.27 0.0
C3550 C 0.44689 0.42683 0.27787 0.0
C3551 C 0.45911 0.43541 0.26725 0.0
H3552 H 0.35238 0.28209 0.3714 0.0
H3553 H 0.32009 0.27513 0.41131 0.0
H3554 H 0.35797 0.26544 0.38726 0.0
H3555 H 0.32596 0.25882 0.42741 0.0
H3556 H 0.32925 0.21865 0.44071 0.0
H3557 H 0.32349 0.23467 0.42384 0.0
H3558 H 0.36937 0.26457 0.41557 0.0
H3559 H 0.37517 0.24858 0.43261 0.0
C3560 C 0.34643 0.27695 0.38351 0.0
C3561 C 0.33578 0.27991 0.3901 0.0
C3562 C 0.34974 0.26754 0.39269 0.0
C3563 C 0.34242 0.26083 0.40859 0.0
C3564 C 0.3317 0.26372 0.4151 0.0
C3565 C 0.32844 0.27317 0.40598 0.0
C3566 C 0.33813 0.2287 0.43543 0.0
C3567 C 0.35268 0.23238 0.43812 0.0
C3568 C 0.33482 0.23787 0.42574 0.0
C3569 C 0.34597 0.25091 0.41845 0.0
C3570 C 0.36053 0.2545 0.42087 0.0
C3571 C 0.36385 0.24534 0.43061 0.0
H3572 H 0.71612 0.06771 0.37117 0.0
H3573 H 0.72774 0.0445 0.40881 0.0
H3574 H 0.73254 0.09056 0.38619 0.0
H3575 H 0.74365 0.06724 0.42428 0.0
H3576 H 0.78195 0.11214 0.43683 0.0
H3577 H 0.76639 0.08979 0.42039 0.0
H3578 H 0.73427 0.10301 0.41406 0.0
H3579 H 0.74993 0.12544 0.4304 0.0
C3580 C 0.72222 0.06749 0.3826 0.0
C3581 C 0.72063 0.05427 0.38878 0.0
C3582 C 0.7315 0.08056 0.39134 0.0
C3583 C 0.73938 0.08073 0.40646 0.0
C3584 C 0.73786 0.06753 0.41256 0.0
C3585 C 0.7286 0.05446 0.40382 0.0
C3586 C 0.77153 0.11023 0.432 0.0
C3587 C 0.76712 0.12051 0.43498 0.0
C3588 C 0.76261 0.09742 0.42259 0.0
C3589 C 0.74906 0.09458 0.41597 0.0
C3590 C 0.74473 0.10495 0.41877 0.0
C3591 C 0.75368 0.11779 0.42815 0.0
H3592 H 0.93026 0.64742 0.36618 0.0
H3593 H 0.95333 0.6747 0.41123 0.0
H3594 H 0.90711 0.63934 0.38158 0.0
H3595 H 0.9302 0.66679 0.4265 0.0
H3596 H 0.88737 0.63767 0.45565 0.0
H3597 H 0.90994 0.64386 0.43993 0.0
H3598 H 0.89229 0.65061 0.3914 0.0
H3599 H 0.86965 0.64423 0.40705 0.0
C3600 C 0.93037 0.65164 0.37939 0.0
C3601 C 0.94357 0.6617 0.38751 0.0
C3602 C 0.91713 0.6471 0.38813 0.0
C3603 C 0.91688 0.65241 0.40524 0.0
C3604 C 0.93009 0.6624 0.41339 0.0
C3605 C 0.9433 0.66705 0.40459 0.0
C3606 C 0.88825 0.64028 0.44157 0.0
C3607 C 0.87679 0.64051 0.43257 0.0
C3608 C 0.9012 0.64395 0.43263 0.0
C3609 C 0.90288 0.64778 0.41448 0.0
C3610 C 0.89126 0.64762 0.40536 0.0
C3611 C 0.87836 0.64408 0.41434 0.0
H3612 H 0.37479 0.99041 0.74323 0.0
H3613 H 0.4092 0.02824 0.71678 0.0
H3614 H 0.39287 0.98704 0.75909 0.0
H3615 H 0.42732 0.02456 0.73221 0.0
H3616 H 0.45483 0.02231 0.77821 0.0
H3617 H 0.43698 0.02611 0.76231 0.0
H3618 H 0.41087 0.97981 0.75285 0.0
H3619 H 0.42842 0.97597 0.76927 0.0
C3620 C 0.38622 0.99803 0.74084 0.0
C3621 C 0.39056 0.00961 0.72878 0.0
C3622 C 0.39658 0.996 0.74977 0.0
C3623 C 0.41153 0.0055 0.74686 0.0
C3624 C 0.41588 0.01712 0.73485 0.0
C3625 C 0.40551 0.01914 0.72588 0.0
C3626 C 0.44522 0.01294 0.77283 0.0
C3627 C 0.44302 0.99884 0.77504 0.0
C3628 C 0.43508 0.01513 0.76356 0.0
C3629 C 0.4225 0.00326 0.75634 0.0
C3630 C 0.42037 0.98917 0.75843 0.0
C3631 C 0.43051 0.98699 0.76766 0.0
H3632 H 0.01431 0.38808 0.73013 0.0
H3633 H 0.97087 0.37751 0.71476 0.0
H3634 H 0.01755 0.40959 0.74563 0.0
H3635 H 0.97453 0.39963 0.72917 0.0
H3636 H 0.97976 0.43157 0.77319 0.0
H3637 H 0.97621 0.40996 0.7576 0.0
H3638 H 0.02127 0.43312 0.7408 0.0
H3639 H 0.02508 0.45438 0.7575 0.0
C3640 C 0.00543 0.39033 0.73004 0.0
C3641 C 0.99229 0.38097 0.72124 0.0
C3642 C 0.00739 0.40283 0.7387 0.0
C3643 C 0.99634 0.40643 0.73861 0.0
C3644 C 0.98323 0.39713 0.72971 0.0
C3645 C 0.9812 0.38453 0.72121 0.0
C3646 C 0.98897 0.43201 0.76637 0.0
C3647 C 0.00275 0.44472 0.76676 0.0
C3648 C 0.98687 0.41966 0.75717 0.0
C3649 C 0.99846 0.41974 0.74795 0.0
C3650 C 0.01215 0.43256 0.748 0.0
C3651 C 0.01429 0.44486 0.75736 0.0
H3652 H 0.60069 0.607 0.69658 0.0
H3653 H 0.62358 0.61543 0.74673 0.0
H3654 H 0.57774 0.59139 0.71185 0.0
H3655 H 0.60074 0.59926 0.76184 0.0
H3656 H 0.55591 0.58205 0.78647 0.0
H3657 H 0.57846 0.59825 0.77077 0.0
H3658 H 0.56465 0.56812 0.72645 0.0
H3659 H 0.5418 0.55229 0.74178 0.0
C3660 C 0.60083 0.60551 0.71086 0.0
C3661 C 0.61399 0.6125 0.72043 0.0
C3662 C 0.58769 0.59642 0.71958 0.0
C3663 C 0.58739 0.59407 0.73808 0.0
C3664 C 0.60055 0.60097 0.74762 0.0
C3665 C 0.61369 0.61009 0.73891 0.0
C3666 C 0.55759 0.57899 0.77327 0.0
C3667 C 0.54704 0.56587 0.76539 0.0
C3668 C 0.5706 0.58818 0.76436 0.0
C3669 C 0.5734 0.58445 0.74739 0.0
C3670 C 0.56279 0.5714 0.73944 0.0
C3671 C 0.54976 0.56223 0.74832 0.0
H3672 H 0.64811 0.7046 0.6224 0.0
H3673 H 0.68838 0.74174 0.64016 0.0
H3674 H 0.64192 0.72079 0.60664 0.0
H3675 H 0.68219 0.75793 0.62433 0.0
H3676 H 0.67374 0.78008 0.57705 0.0
H3677 H 0.67966 0.764 0.59354 0.0
H3678 H 0.63524 0.73941 0.61233 0.0
H3679 H 0.62931 0.75554 0.59586 0.0
C3680 C 0.65557 0.71623 0.62312 0.0
C3681 C 0.66874 0.72188 0.63255 0.0
C3682 C 0.65201 0.7255 0.61407 0.0
C3683 C 0.66157 0.74064 0.61422 0.0
C3684 C 0.6747 0.7463 0.62374 0.0
C3685 C 0.67825 0.73703 0.6328 0.0
C3686 C 0.66527 0.77133 0.58484 0.0
C3687 C 0.65106 0.76911 0.58518 0.0
C3688 C 0.66866 0.76212 0.59429 0.0
C3689 C 0.65793 0.75046 0.60428 0.0
C3690 C 0.64371 0.7482 0.60458 0.0
C3691 C 0.64031 0.75742 0.59513 0.0
H3692 H 0.27117 0.95499 0.61733 0.0
H3693 H 0.28559 0.93132 0.65024 0.0
H3694 H 0.25479 0.93265 0.60149 0.0
H3695 H 0.26867 0.90879 0.63489 0.0
H3696 H 0.24847 0.87504 0.5892 0.0
H3697 H 0.26498 0.89688 0.60609 0.0
H3698 H 0.23251 0.90999 0.60635 0.0
H3699 H 0.21614 0.88829 0.58933 0.0
C3700 C 0.27086 0.94502 0.62117 0.0
C3701 C 0.27972 0.94496 0.63504 0.0
C3702 C 0.26132 0.93216 0.61224 0.0
C3703 C 0.26035 0.9189 0.61699 0.0
C3704 C 0.26923 0.91883 0.63082 0.0
C3705 C 0.2788 0.93172 0.63975 0.0
C3706 C 0.24483 0.88253 0.59305 0.0
C3707 C 0.23107 0.88002 0.58782 0.0
C3708 C 0.25428 0.89503 0.60274 0.0
C3709 C 0.25012 0.90525 0.60744 0.0
C3710 C 0.23618 0.90251 0.60261 0.0
C3711 C 0.22679 0.89007 0.59289 0.0
H3712 H 0.07154 0.34858 0.64888 0.0
H3713 H 0.04604 0.31375 0.61179 0.0
H3714 H 0.09344 0.3552 0.63143 0.0
H3715 H 0.06798 0.32009 0.59466 0.0
H3716 H 0.10643 0.3472 0.55716 0.0
H3717 H 0.08485 0.34025 0.5753 0.0
H3718 H 0.10985 0.34603 0.6231 0.0
H3719 H 0.13145 0.35288 0.60495 0.0
C3720 C 0.07063 0.3423 0.63705 0.0
C3721 C 0.05705 0.33067 0.63168 0.0
C3722 C 0.08319 0.346 0.62715 0.0
C3723 C 0.08242 0.33821 0.61162 0.0
C3724 C 0.06889 0.32642 0.60644 0.0
C3725 C 0.05635 0.32268 0.61638 0.0
C3726 C 0.10731 0.34688 0.57153 0.0
C3727 C 0.12066 0.35056 0.57959 0.0
C3728 C 0.09493 0.34289 0.58192 0.0
C3729 C 0.09563 0.34252 0.60063 0.0
C3730 C 0.10901 0.34636 0.60873 0.0
C3731 C 0.12138 0.35031 0.59832 0.0
H3732 H 0.27971 0.32596 0.60566 0.0
H3733 H 0.26877 0.33934 0.6551 0.0
H3734 H 0.26508 0.33354 0.58932 0.0
H3735 H 0.25514 0.34818 0.63847 0.0
H3736 H 0.21872 0.34759 0.60488 0.0
H3737 H 0.23357 0.34068 0.62253 0.0
H3738 H 0.26455 0.35383 0.57906 0.0
H3739 H 0.24919 0.35989 0.56123 0.0
C3740 C 0.27418 0.3305 0.61311 0.0
C3741 C 0.27536 0.33187 0.63179 0.0
C3742 C 0.26599 0.33516 0.60364 0.0
C3743 C 0.25897 0.34162 0.61249 0.0
C3744 C 0.26024 0.34312 0.63117 0.0
C3745 C 0.26825 0.33822 0.64071 0.0
C3746 C 0.22877 0.34906 0.59924 0.0
C3747 C 0.23281 0.35416 0.58172 0.0
C3748 C 0.23734 0.34518 0.60935 0.0
C3749 C 0.25025 0.34655 0.60221 0.0
C3750 C 0.25451 0.35222 0.58487 0.0
C3751 C 0.2458 0.35582 0.57467 0.0
H3752 H 0.64458 0.93691 0.63664 0.0
H3753 H 0.69004 0.95298 0.62581 0.0
H3754 H 0.63812 0.91462 0.62017 0.0
H3755 H 0.68383 0.93043 0.61025 0.0
H3756 H 0.66829 0.89588 0.56765 0.0
H3757 H 0.67397 0.918 0.58388 0.0
H3758 H 0.63807 0.89269 0.61993 0.0
H3759 H 0.63199 0.87074 0.60287 0.0
C3760 C 0.65319 0.93551 0.63095 0.0
C3761 C 0.66778 0.9466 0.63237 0.0
C3762 C 0.64953 0.92272 0.62158 0.0
C3763 C 0.66043 0.92067 0.61373 0.0
C3764 C 0.67508 0.93171 0.61566 0.0
C3765 C 0.67869 0.94459 0.62471 0.0
C3766 C 0.66162 0.89514 0.57902 0.0
C3767 C 0.64973 0.88169 0.58407 0.0
C3768 C 0.66492 0.90777 0.58845 0.0
C3769 C 0.65659 0.9072 0.6034 0.0
C3770 C 0.64462 0.89365 0.60836 0.0
C3771 C 0.64115 0.88105 0.59868 0.0
H3772 H 0.0449 0.72934 0.61346 0.0
H3773 H 0.06813 0.71463 0.64667 0.0
H3774 H 0.06728 0.74504 0.59705 0.0
H3775 H 0.09052 0.73021 0.63002 0.0
H3776 H 0.12994 0.77306 0.60815 0.0
H3777 H 0.10803 0.75687 0.62511 0.0
H3778 H 0.08366 0.74174 0.57604 0.0
H3779 H 0.10556 0.75765 0.55904 0.0
C3780 C 0.05481 0.72954 0.61732 0.0
C3781 C 0.05477 0.72078 0.63137 0.0
C3782 C 0.06759 0.73841 0.60781 0.0
C3783 C 0.08063 0.73879 0.6122 0.0
C3784 C 0.08064 0.73018 0.6264 0.0
C3785 C 0.06782 0.7212 0.63583 0.0
C3786 C 0.11997 0.76612 0.60094 0.0
C3787 C 0.11951 0.76673 0.58221 0.0
C3788 C 0.10742 0.75688 0.61068 0.0
C3789 C 0.09412 0.74813 0.6019 0.0
C3790 C 0.0937 0.74855 0.58319 0.0
C3791 C 0.10625 0.75769 0.57346 0.0
H3792 H 0.9736 0.60199 0.73669 0.0
H3793 H 0.01133 0.61282 0.70418 0.0
H3794 H 0.9775 0.58449 0.7533 0.0
H3795 H 0.01536 0.59546 0.72099 0.0
H3796 H 0.00727 0.55128 0.74289 0.0
H3797 H 0.00328 0.56846 0.72577 0.0
H3798 H 0.99606 0.5855 0.77467 0.0
H3799 H 0.00037 0.56858 0.79186 0.0
C3800 C 0.98266 0.60055 0.73303 0.0
C3801 C 0.99215 0.60875 0.71913 0.0
C3802 C 0.98498 0.59065 0.74265 0.0
C3803 C 0.99676 0.58865 0.73847 0.0
C3804 C 0.00614 0.5967 0.72442 0.0
C3805 C 0.0039 0.60671 0.71491 0.0
C3806 C 0.00502 0.55881 0.75002 0.0
C3807 C 0.00414 0.55853 0.76878 0.0
C3808 C 0.00269 0.56862 0.7402 0.0
C3809 C 0.99932 0.57829 0.74888 0.0
C3810 C 0.99843 0.57802 0.7676 0.0
C3811 C 0.00087 0.5683 0.77744 0.0
H3812 H 0.38892 0.39911 0.69857 0.0
H3813 H 0.37773 0.37751 0.7498 0.0
H3814 H 0.40477 0.42221 0.71329 0.0
H3815 H 0.39427 0.40043 0.76439 0.0
H3816 H 0.41437 0.44575 0.78749 0.0
H3817 H 0.39717 0.42348 0.77209 0.0
H3818 H 0.42753 0.43468 0.72831 0.0
H3819 H 0.44432 0.45737 0.74319 0.0
C3820 C 0.38982 0.39927 0.71297 0.0
C3821 C 0.38203 0.38641 0.72298 0.0
C3822 C 0.39907 0.41251 0.7214 0.0
C3823 C 0.40085 0.4132 0.74004 0.0
C3824 C 0.39304 0.40035 0.75004 0.0
C3825 C 0.38371 0.38714 0.74163 0.0
C3826 C 0.41727 0.4436 0.77443 0.0
C3827 C 0.43076 0.45336 0.76661 0.0
C3828 C 0.40748 0.43071 0.76571 0.0
C3829 C 0.41098 0.42721 0.749 0.0
C3830 C 0.42439 0.43707 0.74108 0.0
C3831 C 0.43413 0.45001 0.74974 0.0
H3832 H 0.62823 0.01502 0.75107 0.0
H3833 H 0.60257 0.99836 0.70302 0.0
H3834 H 0.60682 0.01113 0.76727 0.0
H3835 H 0.58084 0.99335 0.71964 0.0
H3836 H 0.54777 0.00079 0.75007 0.0
H3837 H 0.5691 0.00473 0.73314 0.0
H3838 H 0.58498 0.99292 0.7796 0.0
H3839 H 0.56396 0.98965 0.7966 0.0
C3840 C 0.61803 0.01053 0.74392 0.0
C3841 C 0.61721 0.00712 0.72565 0.0
C3842 C 0.60564 0.00804 0.75333 0.0
C3843 C 0.59202 0.00185 0.74484 0.0
C3844 C 0.59116 0.99831 0.7266 0.0
C3845 C 0.60361 0.00098 0.71711 0.0
C3846 C 0.55583 0.99901 0.75657 0.0
C3847 C 0.5543 0.995 0.77462 0.0
C3848 C 0.56803 0.00119 0.74688 0.0
C3849 C 0.57884 0.9992 0.75498 0.0
C3850 C 0.57708 0.99488 0.773 0.0
C3851 C 0.56501 0.99293 0.78274 0.0
loop_
_geom_bond_atom_site_label_1
_geom_bond_atom_site_label_2
_geom_bond_distance
_geom_bond_site_symmetry_2
_ccdc_geom_bond_type
Li0 N17 1.990 1_554 S
Li0 O60 1.956 . S
Li0 O61 1.970 1_654 S
Li0 O62 1.961 . S
Li1 N25 1.990 . S
Li1 O60 1.970 1_455 S
Li1 O61 1.956 1_554 S
Li1 O63 1.961 . S
Li2 N47 1.990 . S
Li2 O60 1.961 . S
Li2 O62 1.956 . S
Li2 O63 1.970 1_655 S
Li3 N53 1.990 . S
Li3 O61 1.961 . S
Li3 O62 1.970 1_456 S
Li3 O63 1.956 1_556 S
C4 C6 1.355 . S
C4 C7 1.356 . S
C4 O60 1.325 . S
N5 C8 1.314 . S
N5 C9 1.279 . S
C6 C4 1.355 . S
C6 C8 1.353 . S
C6 H64 0.922 1_655 S
C7 C4 1.356 . S
C7 C9 1.358 . S
C7 H65 0.930 . S
C8 N5 1.314 . S
C8 C6 1.353 . S
C8 H66 0.913 1_655 S
C9 N5 1.279 . S
C9 C7 1.358 . S
C9 H67 0.930 . S
C10 C13 1.348 . S
C10 C14 1.356 . S
C10 O61 1.325 . S
C11 N12 1.279 . S
C11 C14 1.358 . S
C11 H68 0.930 . S
N12 C11 1.279 . S
N12 C15 1.314 . S
C13 C10 1.348 . S
C13 C15 1.353 . S
C13 H69 0.929 1_455 S
C14 C10 1.356 . S
C14 C11 1.358 . S
C14 H70 0.930 . S
C15 N12 1.314 . S
C15 C13 1.353 . S
C15 H71 0.930 . S
C16 N17 1.314 . S
C16 C21 1.353 . S
C16 H22 0.930 . S
N17 Li0 1.990 1_556 S
N17 C16 1.314 . S
N17 C19 1.279 1_556 S
C18 C19 1.358 . S
C18 C20 1.356 1_554 S
C18 H72 0.930 . S
C19 N17 1.279 1_554 S
C19 C18 1.358 . S
C19 H23 0.930 . S
C20 C18 1.356 1_556 S
C20 C21 1.348 . S
C21 C16 1.353 . S
C21 C20 1.348 . S
C21 H73 0.929 . S
H22 C16 0.930 . S
H23 C19 0.930 . S
C24 N25 1.314 . S
C24 C26 1.353 . S
C24 H30 0.930 . S
N25 Li1 1.990 . S
N25 C24 1.314 . S
N25 C28 1.279 . S
C26 C24 1.353 . S
C26 C29 1.348 . S
C26 H74 0.929 . S
C27 C28 1.358 . S
C27 C29 1.356 . S
C27 H75 0.930 . S
C28 N25 1.279 . S
C28 C27 1.358 . S
C28 H31 0.930 . S
C29 C26 1.348 . S
C29 C27 1.356 . S
H30 C24 0.930 . S
H31 C28 0.930 . S
C32 C34 1.348 . S
C32 C35 1.356 1_556 S
C32 O62 1.325 1_556 S
N33 C36 1.314 . S
N33 C37 1.289 . S
C34 C32 1.348 . S
C34 C36 1.353 . S
C34 H76 0.929 . S
C35 C32 1.356 1_554 S
C35 C37 1.354 1_554 S
C35 H77 0.930 . S
C36 N33 1.314 . S
C36 C34 1.353 . S
C36 H78 0.930 . S
C37 N33 1.289 . S
C37 C35 1.354 1_556 S
C37 H79 0.925 1_556 S
C38 C39 1.348 . S
C38 C40 1.356 . S
C38 O63 1.325 . S
C39 C38 1.348 . S
C39 C41 1.353 . S
C39 H80 0.929 . S
C40 C38 1.356 . S
C40 C42 1.358 . S
C40 H81 0.930 . S
C41 C39 1.353 . S
C41 N43 1.314 . S
C41 H82 0.930 . S
C42 C40 1.358 . S
C42 N43 1.279 . S
C42 H83 0.930 . S
N43 C41 1.314 . S
N43 C42 1.279 . S
C44 C46 1.353 . S
C44 N47 1.314 . S
C44 H50 0.982 . S
C45 N47 1.279 . S
C45 C48 1.358 . S
C45 H51 0.930 . S
C46 C44 1.353 . S
C46 C49 1.348 . S
C46 H84 0.929 . S
N47 Li2 1.990 . S
N47 C44 1.314 . S
N47 C45 1.279 . S
C48 C45 1.358 . S
C48 C49 1.356 . S
C48 H85 0.930 . S
C49 C46 1.348 . S
C49 C48 1.356 . S
H50 C44 0.982 . S
H51 C45 0.930 . S
C52 N53 1.314 . S
C52 C54 1.353 . S
C52 H58 0.930 . S
N53 Li3 1.990 . S
N53 C52 1.314 . S
N53 C56 1.279 . S
C54 C52 1.353 . S
C54 C57 1.348 . S
C54 H86 0.929 . S
C55 C56 1.358 . S
C55 C57 1.356 . S
C55 H87 0.930 . S
C56 N53 1.279 . S
C56 C55 1.358 . S
C56 H59 0.930 . S
C57 C54 1.348 . S
C57 C55 1.356 . S
H58 C52 0.930 . S
H59 C56 0.930 . S
O60 Li0 1.956 . S
O60 Li1 1.970 1_655 S
O60 Li2 1.961 . S
O60 C4 1.325 . S
O61 Li0 1.970 1_456 S
O61 Li1 1.956 1_556 S
O61 Li3 1.961 . S
O61 C10 1.325 . S
O62 Li0 1.961 . S
O62 Li2 1.956 . S
O62 Li3 1.970 1_654 S
O62 C32 1.325 1_554 S
O63 Li1 1.961 . S
O63 Li2 1.970 1_455 S
O63 Li3 1.956 1_554 S
O63 C38 1.325 . S
H64 C6 0.922 1_455 S
H65 C7 0.930 . S
H66 C8 0.913 1_455 S
H67 C9 0.930 . S
H68 C11 0.930 . S
H69 C13 0.929 1_655 S
H70 C14 0.930 . S
H71 C15 0.930 . S
H72 C18 0.930 . S
H73 C21 0.929 . S
H74 C26 0.929 . S
H75 C27 0.930 . S
H76 C34 0.929 . S
H77 C35 0.930 . S
H78 C36 0.930 . S
H79 C37 0.925 1_554 S
H80 C39 0.929 . S
H81 C40 0.930 . S
H82 C41 0.930 . S
H83 C42 0.930 . S
H84 C46 0.929 . S
H85 C48 0.930 . S
H86 C54 0.929 . S
H87 C55 0.930 . S
Li88 N105 1.990 1_554 S
Li88 O148 1.956 . S
Li88 O149 1.970 1_554 S
Li88 O150 1.962 . S
Li89 N113 1.990 . S
Li89 O148 1.970 . S
Li89 O149 1.956 1_554 S
Li89 O151 1.961 . S
Li90 N135 1.990 . S
Li90 O148 1.961 . S
Li90 O150 1.966 . S
Li90 O151 1.970 . S
Li91 N141 1.990 . S
Li91 O149 1.961 . S
Li91 O150 1.968 1_556 S
Li91 O151 1.956 1_556 S
C92 C94 1.348 . S
C92 C95 1.356 . S
C92 O148 1.325 . S
N93 C96 1.314 . S
N93 C97 1.279 . S
C94 C92 1.348 . S
C94 C96 1.353 . S
C94 H152 0.929 . S
C95 C92 1.356 . S
C95 C97 1.358 . S
C95 H153 0.930 . S
C96 N93 1.314 . S
C96 C94 1.353 . S
C96 H154 0.930 . S
C97 N93 1.279 . S
C97 C95 1.358 . S
C97 H155 0.930 . S
C98 C101 1.348 . S
C98 C102 1.356 . S
C98 O149 1.325 . S
C99 N100 1.279 . S
C99 C102 1.358 . S
C99 H156 0.930 . S
N100 C99 1.279 . S
N100 C103 1.314 . S
C101 C98 1.348 . S
C101 C103 1.353 . S
C101 H157 0.929 . S
C102 C98 1.356 . S
C102 C99 1.358 . S
C102 H158 0.930 . S
C103 N100 1.314 . S
C103 C101 1.353 . S
C103 H159 0.930 . S
C104 N105 1.314 . S
C104 C109 1.353 . S
C104 H110 0.930 . S
N105 Li88 1.990 1_556 S
N105 C104 1.314 . S
N105 C107 1.279 1_556 S
C106 C107 1.358 1_556 S
C106 C108 1.356 . S
C106 H160 0.930 1_556 S
C107 N105 1.279 1_554 S
C107 C106 1.358 1_554 S
C107 H111 0.930 . S
C108 C106 1.356 . S
C108 C109 1.348 . S
C109 C104 1.353 . S
C109 C108 1.348 . S
C109 H161 0.929 . S
H110 C104 0.930 . S
H111 C107 0.930 . S
C112 N113 1.314 . S
C112 C114 1.353 . S
C112 H118 0.930 . S
N113 Li89 1.990 . S
N113 C112 1.314 . S
N113 C116 1.279 . S
C114 C112 1.353 . S
C114 C117 1.348 . S
C114 H162 0.929 . S
C115 C116 1.358 . S
C115 C117 1.356 . S
C115 H163 0.930 . S
C116 N113 1.279 . S
C116 C115 1.358 . S
C116 H119 0.930 . S
C117 C114 1.348 . S
C117 C115 1.356 . S
H118 C112 0.930 . S
H119 C116 0.930 . S
C120 C122 1.348 . S
C120 C123 1.356 . S
C120 O150 1.322 1_556 S
N121 C124 1.314 . S
N121 C125 1.279 . S
C122 C120 1.348 . S
C122 C124 1.353 . S
C122 H164 0.929 . S
C123 C120 1.356 . S
C123 C125 1.358 . S
C123 H165 0.930 1_556 S
C124 N121 1.314 . S
C124 C122 1.353 . S
C124 H166 0.930 . S
C125 N121 1.279 . S
C125 C123 1.358 . S
C125 H167 0.930 . S
C126 C127 1.348 . S
C126 C128 1.356 . S
C126 O151 1.325 . S
C127 C126 1.348 . S
C127 C129 1.353 . S
C127 H168 0.929 . S
C128 C126 1.356 . S
C128 C130 1.358 . S
C128 H169 0.930 . S
C129 C127 1.353 . S
C129 N131 1.314 . S
C129 H170 0.930 . S
C130 C128 1.358 . S
C130 N131 1.279 . S
C130 H171 0.930 . S
N131 C129 1.314 . S
N131 C130 1.279 . S
C132 C134 1.353 . S
C132 N135 1.314 . S
C132 H138 0.930 . S
C133 N135 1.279 . S
C133 C136 1.358 . S
C133 H139 0.930 . S
C134 C132 1.353 . S
C134 C137 1.348 . S
C134 H172 0.929 . S
N135 Li90 1.990 . S
N135 C132 1.314 . S
N135 C133 1.279 . S
C136 C133 1.358 . S
C136 C137 1.356 . S
C136 H173 0.930 . S
C137 C134 1.348 . S
C137 C136 1.356 . S
H138 C132 0.930 . S
H139 C133 0.930 . S
C140 N141 1.314 . S
C140 C142 1.353 . S
C140 H146 0.930 . S
N141 Li91 1.990 . S
N141 C140 1.314 . S
N141 C144 1.279 . S
C142 C140 1.353 . S
C142 C145 1.348 . S
C142 H174 0.929 . S
C143 C144 1.358 . S
C143 C145 1.356 . S
C143 H175 0.930 . S
C144 N141 1.279 . S
C144 C143 1.358 . S
C144 H147 0.930 . S
C145 C142 1.348 . S
C145 C143 1.356 . S
H146 C140 0.930 . S
H147 C144 0.930 . S
O148 Li88 1.956 . S
O148 Li89 1.970 . S
O148 Li90 1.961 . S
O148 C92 1.325 . S
O149 Li88 1.970 1_556 S
O149 Li89 1.956 1_556 S
O149 Li91 1.961 . S
O149 C98 1.325 . S
O150 Li88 1.962 . S
O150 Li90 1.966 . S
O150 Li91 1.968 1_554 S
O150 C120 1.322 1_554 S
O151 Li89 1.961 . S
O151 Li90 1.970 . S
O151 Li91 1.956 1_554 S
O151 C126 1.325 . S
H152 C94 0.929 . S
H153 C95 0.930 . S
H154 C96 0.930 . S
H155 C97 0.930 . S
H156 C99 0.930 . S
H157 C101 0.929 . S
H158 C102 0.930 . S
H159 C103 0.930 . S
H160 C106 0.930 1_554 S
H161 C109 0.929 . S
H162 C114 0.929 . S
H163 C115 0.930 . S
H164 C122 0.929 . S
H165 C123 0.930 1_554 S
H166 C124 0.930 . S
H167 C125 0.930 . S
H168 C127 0.929 . S
H169 C128 0.930 . S
H170 C129 0.930 . S
H171 C130 0.930 . S
H172 C134 0.929 . S
H173 C136 0.930 . S
H174 C142 0.929 . S
H175 C143 0.930 . S
Li176 N193 1.990 . S
Li176 O236 1.956 1_556 S
Li176 O237 1.970 1_566 S
Li176 O238 1.961 . S
Li177 N201 1.990 . S
Li177 O236 1.970 1_545 S
Li177 O237 1.956 . S
Li177 O239 1.961 . S
Li178 N223 1.990 . S
Li178 O236 1.961 . S
Li178 O238 1.956 1_554 S
Li178 O239 1.970 1_565 S
Li179 N229 1.990 1_554 S
Li179 O237 1.961 . S
Li179 O238 1.970 1_544 S
Li179 O239 1.956 . S
C180 C182 1.348 . S
C180 C183 1.356 . S
C180 O236 1.325 . S
N181 C184 1.314 . S
N181 C185 1.279 . S
C182 C180 1.348 . S
C182 C184 1.353 . S
C182 H240 0.929 . S
C183 C180 1.356 . S
C183 C185 1.358 . S
C183 H241 0.930 . S
C184 N181 1.314 . S
C184 C182 1.353 . S
C184 H242 0.930 . S
C185 N181 1.279 . S
C185 C183 1.358 . S
C185 H243 0.930 . S
C186 C189 1.348 . S
C186 C190 1.356 1_556 S
C186 O237 1.325 1_556 S
C187 N188 1.284 . S
C187 C190 1.356 1_556 S
C187 H244 0.927 1_556 S
N188 C187 1.284 . S
N188 C191 1.314 . S
C189 C186 1.348 . S
C189 C191 1.353 . S
C189 H245 0.929 . S
C190 C186 1.356 1_554 S
C190 C187 1.356 1_554 S
C190 H246 0.930 . S
C191 N188 1.314 . S
C191 C189 1.353 . S
C191 H247 0.930 . S
C192 N193 1.314 . S
C192 C197 1.353 . S
C192 H198 0.983 . S
N193 Li176 1.990 . S
N193 C192 1.314 . S
N193 C195 1.279 . S
C194 C195 1.358 . S
C194 C196 1.356 . S
C194 H248 0.930 . S
C195 N193 1.279 . S
C195 C194 1.358 . S
C195 H199 0.930 . S
C196 C194 1.356 . S
C196 C197 1.348 . S
C197 C192 1.353 . S
C197 C196 1.348 . S
C197 H249 0.929 . S
H198 C192 0.983 . S
H199 C195 0.930 . S
C200 N201 1.314 . S
C200 C202 1.353 . S
C200 H206 0.930 . S
N201 Li177 1.990 . S
N201 C200 1.314 . S
N201 C204 1.279 . S
C202 C200 1.353 . S
C202 C205 1.348 . S
C202 H250 0.929 . S
C203 C204 1.358 . S
C203 C205 1.356 . S
C203 H251 0.930 . S
C204 N201 1.279 . S
C204 C203 1.358 . S
C204 H207 0.930 . S
C205 C202 1.348 . S
C205 C203 1.356 . S
H206 C200 0.930 . S
H207 C204 0.930 . S
C208 C210 1.356 . S
C208 C211 1.356 . S
C208 O238 1.325 . S
N209 C212 1.314 . S
N209 C213 1.279 . S
C210 C208 1.356 . S
C210 C212 1.353 . S
C210 H252 0.921 1_565 S
C211 C208 1.356 . S
C211 C213 1.358 . S
C211 H253 0.930 . S
C212 N209 1.314 . S
C212 C210 1.353 . S
C212 H254 0.914 1_565 S
C213 N209 1.279 . S
C213 C211 1.358 . S
C213 H255 0.930 . S
C214 C215 1.348 . S
C214 C216 1.356 . S
C214 O239 1.325 . S
C215 C214 1.348 . S
C215 C217 1.353 . S
C215 H256 0.929 1_545 S
C216 C214 1.356 . S
C216 C218 1.358 . S
C216 H257 0.930 . S
C217 C215 1.353 . S
C217 N219 1.314 . S
C217 H258 0.930 . S
C218 C216 1.358 . S
C218 N219 1.279 . S
C218 H259 0.930 . S
N219 C217 1.314 . S
N219 C218 1.279 . S
C220 C222 1.353 . S
C220 N223 1.314 . S
C220 H226 0.930 . S
C221 N223 1.279 . S
C221 C224 1.358 . S
C221 H227 0.930 . S
C222 C220 1.353 . S
C222 C225 1.348 . S
C222 H260 0.929 . S
N223 Li178 1.990 . S
N223 C220 1.314 . S
N223 C221 1.279 . S
C224 C221 1.358 . S
C224 C225 1.356 . S
C224 H261 0.930 . S
C225 C222 1.348 . S
C225 C224 1.356 . S
H226 C220 0.930 . S
H227 C221 0.930 . S
C228 N229 1.314 . S
C228 C230 1.353 . S
C228 H234 0.930 . S
N229 Li179 1.990 1_556 S
N229 C228 1.314 . S
N229 C232 1.279 1_556 S
C230 C228 1.353 . S
C230 C233 1.348 . S
C230 H262 0.929 . S
C231 C232 1.358 . S
C231 C233 1.356 1_554 S
C231 H263 0.930 . S
C232 N229 1.279 1_554 S
C232 C231 1.358 . S
C232 H235 0.930 . S
C233 C230 1.348 . S
C233 C231 1.356 1_556 S
H234 C228 0.930 . S
H235 C232 0.930 . S
O236 Li176 1.956 1_554 S
O236 Li177 1.970 1_565 S
O236 Li178 1.961 . S
O236 C180 1.325 . S
O237 Li176 1.970 1_544 S
O237 Li177 1.956 . S
O237 Li179 1.961 . S
O237 C186 1.325 1_554 S
O238 Li176 1.961 . S
O238 Li178 1.956 1_556 S
O238 Li179 1.970 1_566 S
O238 C208 1.325 . S
O239 Li177 1.961 . S
O239 Li178 1.970 1_545 S
O239 Li179 1.956 . S
O239 C214 1.325 . S
H240 C182 0.929 . S
H241 C183 0.930 . S
H242 C184 0.930 . S
H243 C185 0.930 . S
H244 C187 0.927 1_554 S
H245 C189 0.929 . S
H246 C190 0.930 . S
H247 C191 0.930 . S
H248 C194 0.930 . S
H249 C197 0.929 . S
H250 C202 0.929 . S
H251 C203 0.930 . S
H252 C210 0.921 1_545 S
H253 C211 0.930 . S
H254 C212 0.914 1_545 S
H255 C213 0.930 . S
H256 C215 0.929 1_565 S
H257 C216 0.930 . S
H258 C217 0.930 . S
H259 C218 0.930 . S
H260 C222 0.929 . S
H261 C224 0.930 . S
H262 C230 0.929 . S
H263 C231 0.930 . S
Li264 N281 1.990 . S
Li264 O324 1.956 . S
Li264 O325 1.970 1_455 S
Li264 O326 1.961 1_554 S
Li265 N289 1.990 . S
Li265 O324 1.970 1_655 S
Li265 O325 1.956 . S
Li265 O327 1.961 . S
Li266 N311 1.990 . S
Li266 O324 1.961 1_556 S
Li266 O326 1.956 . S
Li266 O327 1.970 1_456 S
Li267 N317 1.990 1_554 S
Li267 O325 1.961 . S
Li267 O326 1.970 1_654 S
Li267 O327 1.956 . S
C268 C270 1.348 . S
C268 C271 1.356 . S
C268 O324 1.325 . S
N269 C272 1.314 . S
N269 C273 1.279 . S
C270 C268 1.348 . S
C270 C272 1.353 . S
C270 H328 0.929 . S
C271 C268 1.356 . S
C271 C273 1.358 . S
C271 H329 0.930 1_554 S
C272 N269 1.314 . S
C272 C270 1.353 . S
C272 H330 0.930 . S
C273 N269 1.279 . S
C273 C271 1.358 . S
C273 H331 0.930 . S
C274 C277 1.341 1_655 S
C274 C278 1.356 . S
C274 O325 1.325 . S
C275 N276 1.279 . S
C275 C278 1.358 . S
C275 H332 0.930 . S
N276 C275 1.279 . S
N276 C279 1.314 . S
C277 C274 1.341 1_455 S
C277 C279 1.342 1_455 S
C277 H333 0.947 . S
C278 C274 1.356 . S
C278 C275 1.358 . S
C278 H334 0.930 . S
C279 N276 1.314 . S
C279 C277 1.342 1_655 S
C279 H335 0.930 1_655 S
C280 N281 1.314 . S
C280 C285 1.353 . S
C280 H286 0.930 . S
N281 Li264 1.990 . S
N281 C280 1.314 . S
N281 C283 1.279 . S
C282 C283 1.358 . S
C282 C284 1.356 . S
C282 H336 0.930 . S
C283 N281 1.279 . S
C283 C282 1.358 . S
C283 H287 0.930 . S
C284 C282 1.356 . S
C284 C285 1.348 . S
C285 C280 1.353 . S
C285 C284 1.348 . S
C285 H337 0.929 . S
H286 C280 0.930 . S
H287 C283 0.930 . S
C288 N289 1.314 . S
C288 C290 1.353 . S
C288 H294 0.930 . S
N289 Li265 1.990 . S
N289 C288 1.314 . S
N289 C292 1.279 . S
C290 C288 1.353 . S
C290 C293 1.348 . S
C290 H338 0.929 . S
C291 C292 1.358 . S
C291 C293 1.356 . S
C291 H339 0.930 . S
C292 N289 1.279 . S
C292 C291 1.358 . S
C292 H295 0.930 . S
C293 C290 1.348 . S
C293 C291 1.356 . S
H294 C288 0.930 . S
H295 C292 0.930 . S
C296 C298 1.331 1_455 S
C296 C299 1.356 . S
C296 O326 1.325 . S
N297 C300 1.314 . S
N297 C301 1.279 . S
C298 C296 1.331 1_655 S
C298 C300 1.353 1_655 S
C298 H340 0.947 . S
C299 C296 1.356 . S
C299 C301 1.358 . S
C299 H341 0.930 . S
C300 N297 1.314 . S
C300 C298 1.353 1_455 S
C300 H342 0.930 1_455 S
C301 N297 1.279 . S
C301 C299 1.358 . S
C301 H343 0.930 . S
C302 C303 1.348 . S
C302 C304 1.356 1_556 S
C302 O327 1.325 1_556 S
C303 C302 1.348 . S
C303 C305 1.353 . S
C303 H344 0.929 . S
C304 C302 1.356 1_554 S
C304 C306 1.358 . S
C304 H345 0.930 . S
C305 C303 1.353 . S
C305 N307 1.314 . S
C305 H346 0.930 . S
C306 C304 1.358 . S
C306 N307 1.279 1_554 S
C306 H347 0.930 . S
N307 C305 1.314 . S
N307 C306 1.279 1_556 S
C308 C310 1.353 . S
C308 N311 1.314 . S
C308 H314 0.930 . S
C309 N311 1.279 . S
C309 C312 1.358 . S
C309 H315 0.930 . S
C310 C308 1.353 . S
C310 C313 1.348 . S
C310 H348 0.929 . S
N311 Li266 1.990 . S
N311 C308 1.314 . S
N311 C309 1.279 . S
C312 C309 1.358 . S
C312 C313 1.356 . S
C312 H349 0.930 . S
C313 C310 1.348 . S
C313 C312 1.356 . S
H314 C308 0.930 . S
H315 C309 0.930 . S
C316 N317 1.309 1_554 S
C316 C318 1.347 1_554 S
C316 H322 0.943 . S
N317 Li267 1.990 1_556 S
N317 C316 1.309 1_556 S
N317 C320 1.279 . S
C318 C316 1.347 1_556 S
C318 C321 1.348 . S
C318 H350 0.934 . S
C319 C320 1.358 . S
C319 C321 1.356 . S
C319 H351 0.930 . S
C320 N317 1.279 . S
C320 C319 1.358 . S
C320 H323 0.930 . S
C321 C318 1.348 . S
C321 C319 1.356 . S
H322 C316 0.943 . S
H323 C320 0.930 . S
O324 Li264 1.956 . S
O324 Li265 1.970 1_455 S
O324 Li266 1.961 1_554 S
O324 C268 1.325 . S
O325 Li264 1.970 1_655 S
O325 Li265 1.956 . S
O325 Li267 1.961 . S
O325 C274 1.325 . S
O326 Li264 1.961 1_556 S
O326 Li266 1.956 . S
O326 Li267 1.970 1_456 S
O326 C296 1.325 . S
O327 Li265 1.961 . S
O327 Li266 1.970 1_654 S
O327 Li267 1.956 . S
O327 C302 1.325 1_554 S
H328 C270 0.929 . S
H329 C271 0.930 1_556 S
H330 C272 0.930 . S
H331 C273 0.930 . S
H332 C275 0.930 . S
H333 C277 0.947 . S
H334 C278 0.930 . S
H335 C279 0.930 1_455 S
H336 C282 0.930 . S
H337 C285 0.929 . S
H338 C290 0.929 . S
H339 C291 0.930 . S
H340 C298 0.947 . S
H341 C299 0.930 . S
H342 C300 0.930 1_655 S
H343 C301 0.930 . S
H344 C303 0.929 . S
H345 C304 0.930 . S
H346 C305 0.930 . S
H347 C306 0.930 . S
H348 C310 0.929 . S
H349 C312 0.930 . S
H350 C318 0.934 . S
H351 C319 0.930 . S
Li352 N369 1.990 . S
Li352 O412 1.956 . S
Li352 O413 1.970 . S
Li352 O414 1.961 1_554 S
Li353 N377 1.990 . S
Li353 O412 1.970 . S
Li353 O413 1.956 . S
Li353 O415 2.019 . S
Li354 N399 1.990 . S
Li354 O412 1.961 1_556 S
Li354 O414 1.956 . S
Li354 O415 1.953 1_556 S
Li355 N405 1.990 1_554 S
Li355 O413 1.961 . S
Li355 O414 1.970 1_554 S
Li355 O415 1.959 . S
C356 C358 1.348 . S
C356 C359 1.356 . S
C356 O412 1.325 . S
N357 C360 1.314 . S
N357 C361 1.279 . S
C358 C356 1.348 . S
C358 C360 1.353 . S
C358 H416 0.929 . S
C359 C356 1.356 . S
C359 C361 1.358 . S
C359 H417 0.930 . S
C360 N357 1.314 . S
C360 C358 1.353 . S
C360 H418 0.930 . S
C361 N357 1.279 . S
C361 C359 1.358 . S
C361 H419 0.930 . S
C362 C365 1.348 . S
C362 C366 1.356 . S
C362 O413 1.325 . S
C363 N364 1.279 . S
C363 C366 1.358 . S
C363 H420 0.930 . S
N364 C363 1.279 . S
N364 C367 1.314 . S
C365 C362 1.348 . S
C365 C367 1.353 . S
C365 H421 0.929 . S
C366 C362 1.356 . S
C366 C363 1.358 . S
C366 H422 0.930 . S
C367 N364 1.314 . S
C367 C365 1.353 . S
C367 H423 0.930 . S
C368 N369 1.314 . S
C368 C373 1.353 . S
C368 H374 0.930 . S
N369 Li352 1.990 . S
N369 C368 1.314 . S
N369 C371 1.279 . S
C370 C371 1.358 . S
C370 C372 1.356 . S
C370 H424 0.930 . S
C371 N369 1.279 . S
C371 C370 1.358 . S
C371 H375 0.930 . S
C372 C370 1.356 . S
C372 C373 1.348 . S
C373 C368 1.353 . S
C373 C372 1.348 . S
C373 H425 0.929 . S
H374 C368 0.930 . S
H375 C371 0.930 . S
C376 N377 1.314 . S
C376 C378 1.353 . S
C376 H382 0.930 . S
N377 Li353 1.990 . S
N377 C376 1.314 . S
N377 C380 1.279 . S
C378 C376 1.353 . S
C378 C381 1.348 . S
C378 H426 0.929 . S
C379 C380 1.358 . S
C379 C381 1.356 . S
C379 H427 0.930 . S
C380 N377 1.279 . S
C380 C379 1.358 . S
C380 H383 0.930 . S
C381 C378 1.348 . S
C381 C379 1.356 . S
H382 C376 0.930 . S
H383 C380 0.930 . S
C384 C386 1.348 . S
C384 C387 1.356 . S
C384 O414 1.325 . S
N385 C388 1.314 . S
N385 C389 1.279 . S
C386 C384 1.348 . S
C386 C388 1.353 . S
C386 H428 0.929 . S
C387 C384 1.356 . S
C387 C389 1.358 . S
C387 H429 0.930 . S
C388 N385 1.314 . S
C388 C386 1.353 . S
C388 H430 0.930 . S
C389 N385 1.279 . S
C389 C387 1.358 . S
C389 H431 0.930 . S
C390 C391 1.348 . S
C390 C392 1.356 1_556 S
C390 O415 1.304 1_556 S
C391 C390 1.348 . S
C391 C393 1.353 . S
C391 H432 0.929 . S
C392 C390 1.356 1_554 S
C392 C394 1.358 1_554 S
C392 H433 0.930 . S
C393 C391 1.353 . S
C393 N395 1.314 . S
C393 H434 0.930 . S
C394 C392 1.358 1_556 S
C394 N395 1.279 . S
C394 H435 0.930 1_556 S
N395 C393 1.314 . S
N395 C394 1.279 . S
C396 C398 1.353 . S
C396 N399 1.314 . S
C396 H402 0.930 . S
C397 N399 1.279 . S
C397 C400 1.358 . S
C397 H403 0.930 . S
C398 C396 1.353 . S
C398 C401 1.348 . S
C398 H436 0.929 . S
N399 Li354 1.990 . S
N399 C396 1.314 . S
N399 C397 1.279 . S
C400 C397 1.358 . S
C400 C401 1.356 . S
C400 H437 0.930 . S
C401 C398 1.348 . S
C401 C400 1.356 . S
H402 C396 0.930 . S
H403 C397 0.930 . S
C404 N405 1.314 . S
C404 C406 1.353 . S
C404 H410 0.930 1_556 S
N405 Li355 1.990 1_556 S
N405 C404 1.314 . S
N405 C408 1.279 . S
C406 C404 1.353 . S
C406 C409 1.348 . S
C406 H438 0.929 . S
C407 C408 1.358 . S
C407 C409 1.356 . S
C407 H439 0.930 . S
C408 N405 1.279 . S
C408 C407 1.358 . S
C408 H411 0.930 . S
C409 C406 1.348 . S
C409 C407 1.356 . S
H410 C404 0.930 1_554 S
H411 C408 0.930 . S
O412 Li352 1.956 . S
O412 Li353 1.970 . S
O412 Li354 1.961 1_554 S
O412 C356 1.325 . S
O413 Li352 1.970 . S
O413 Li353 1.956 . S
O413 Li355 1.961 . S
O413 C362 1.325 . S
O414 Li352 1.961 1_556 S
O414 Li354 1.956 . S
O414 Li355 1.970 1_556 S
O414 C384 1.325 . S
O415 Li353 2.019 . S
O415 Li354 1.953 1_554 S
O415 Li355 1.959 . S
O415 C390 1.304 1_554 S
H416 C358 0.929 . S
H417 C359 0.930 . S
H418 C360 0.930 . S
H419 C361 0.930 . S
H420 C363 0.930 . S
H421 C365 0.929 . S
H422 C366 0.930 . S
H423 C367 0.930 . S
H424 C370 0.930 . S
H425 C373 0.929 . S
H426 C378 0.929 . S
H427 C379 0.930 . S
H428 C386 0.929 . S
H429 C387 0.930 . S
H430 C388 0.930 . S
H431 C389 0.930 . S
H432 C391 0.929 . S
H433 C392 0.930 . S
H434 C393 0.930 . S
H435 C394 0.930 1_554 S
H436 C398 0.929 . S
H437 C400 0.930 . S
H438 C406 0.929 . S
H439 C407 0.930 . S
Li440 N457 1.990 . S
Li440 O500 1.956 . S
Li440 O501 1.970 1_565 S
Li440 O502 1.961 1_554 S
Li441 N465 1.990 . S
Li441 O500 1.970 1_545 S
Li441 O501 1.956 . S
Li441 O503 1.961 . S
Li442 N487 1.990 . S
Li442 O500 1.961 1_556 S
Li442 O502 1.956 . S
Li442 O503 1.970 1_566 S
Li443 N493 1.990 1_554 S
Li443 O501 1.961 . S
Li443 O502 1.970 1_544 S
Li443 O503 1.956 . S
C444 C446 1.348 . S
C444 C447 1.356 . S
C444 O500 1.325 . S
N445 C448 1.314 . S
N445 C449 1.279 . S
C446 C444 1.348 . S
C446 C448 1.353 . S
C446 H504 0.929 . S
C447 C444 1.356 . S
C447 C449 1.358 . S
C447 H505 0.926 1_554 S
C448 N445 1.314 . S
C448 C446 1.353 . S
C448 H506 0.930 . S
C449 N445 1.279 . S
C449 C447 1.358 . S
C449 H507 0.930 . S
C450 C453 1.331 1_545 S
C450 C454 1.356 . S
C450 O501 1.325 . S
C451 N452 1.279 . S
C451 C454 1.358 . S
C451 H508 0.930 . S
N452 C451 1.279 . S
N452 C455 1.314 . S
C453 C450 1.331 1_565 S
C453 C455 1.353 1_565 S
C453 H509 0.947 . S
C454 C450 1.356 . S
C454 C451 1.358 . S
C454 H510 0.930 . S
C455 N452 1.314 . S
C455 C453 1.353 1_545 S
C455 H511 0.930 1_545 S
C456 N457 1.314 . S
C456 C461 1.353 . S
C456 H462 0.930 . S
N457 Li440 1.990 . S
N457 C456 1.314 . S
N457 C459 1.279 . S
C458 C459 1.358 . S
C458 C460 1.356 . S
C458 H512 0.930 . S
C459 N457 1.279 . S
C459 C458 1.358 . S
C459 H463 0.930 . S
C460 C458 1.356 . S
C460 C461 1.348 . S
C461 C456 1.353 . S
C461 C460 1.348 . S
C461 H513 0.929 . S
H462 C456 0.930 . S
H463 C459 0.930 . S
C464 N465 1.314 . S
C464 C466 1.353 . S
C464 H470 0.930 . S
N465 Li441 1.990 . S
N465 C464 1.314 . S
N465 C468 1.279 . S
C466 C464 1.353 . S
C466 C469 1.348 . S
C466 H514 0.929 . S
C467 C468 1.358 . S
C467 C469 1.356 . S
C467 H515 0.930 . S
C468 N465 1.279 . S
C468 C467 1.358 . S
C468 H471 0.930 . S
C469 C466 1.348 . S
C469 C467 1.356 . S
H470 C464 0.930 . S
H471 C468 0.930 . S
C472 C474 1.341 1_565 S
C472 C475 1.356 . S
C472 O502 1.325 . S
N473 C476 1.314 . S
N473 C477 1.279 . S
C474 C472 1.341 1_545 S
C474 C476 1.342 1_545 S
C474 H516 0.947 . S
C475 C472 1.356 . S
C475 C477 1.358 . S
C475 H517 0.930 . S
C476 N473 1.314 . S
C476 C474 1.342 1_565 S
C476 H518 0.930 1_565 S
C477 N473 1.279 . S
C477 C475 1.358 . S
C477 H519 0.930 . S
C478 C479 1.348 . S
C478 C480 1.356 1_556 S
C478 O503 1.325 1_556 S
C479 C478 1.348 . S
C479 C481 1.353 . S
C479 H520 0.929 . S
C480 C478 1.356 1_554 S
C480 C482 1.358 . S
C480 H521 0.930 . S
C481 C479 1.353 . S
C481 N483 1.314 . S
C481 H522 0.930 . S
C482 C480 1.358 . S
C482 N483 1.279 1_554 S
C482 H523 0.930 . S
N483 C481 1.314 . S
N483 C482 1.279 1_556 S
C484 C486 1.353 . S
C484 N487 1.314 . S
C484 H490 0.930 . S
C485 N487 1.279 . S
C485 C488 1.358 . S
C485 H491 0.930 . S
C486 C484 1.353 . S
C486 C489 1.348 . S
C486 H524 0.929 . S
N487 Li442 1.990 . S
N487 C484 1.314 . S
N487 C485 1.279 . S
C488 C485 1.358 . S
C488 C489 1.356 . S
C488 H525 0.930 . S
C489 C486 1.348 . S
C489 C488 1.356 . S
H490 C484 0.930 . S
H491 C485 0.930 . S
C492 N493 1.314 1_554 S
C492 C494 1.353 1_554 S
C492 H498 0.930 . S
N493 Li443 1.990 1_556 S
N493 C492 1.314 1_556 S
N493 C496 1.279 . S
C494 C492 1.353 1_556 S
C494 C497 1.348 . S
C494 H526 0.916 1_556 S
C495 C496 1.358 . S
C495 C497 1.356 . S
C495 H527 0.930 . S
C496 N493 1.279 . S
C496 C495 1.358 . S
C496 H499 0.930 . S
C497 C494 1.348 . S
C497 C495 1.356 . S
H498 C492 0.930 . S
H499 C496 0.930 . S
O500 Li440 1.956 . S
O500 Li441 1.970 1_565 S
O500 Li442 1.961 1_554 S
O500 C444 1.325 . S
O501 Li440 1.970 1_545 S
O501 Li441 1.956 . S
O501 Li443 1.961 . S
O501 C450 1.325 . S
O502 Li440 1.961 1_556 S
O502 Li442 1.956 . S
O502 Li443 1.970 1_566 S
O502 C472 1.325 . S
O503 Li441 1.961 . S
O503 Li442 1.970 1_544 S
O503 Li443 1.956 . S
O503 C478 1.325 1_554 S
H504 C446 0.929 . S
H505 C447 0.926 1_556 S
H506 C448 0.930 . S
H507 C449 0.930 . S
H508 C451 0.930 . S
H509 C453 0.947 . S
H510 C454 0.930 . S
H511 C455 0.930 1_565 S
H512 C458 0.930 . S
H513 C461 0.929 . S
H514 C466 0.929 . S
H515 C467 0.930 . S
H516 C474 0.947 . S
H517 C475 0.930 . S
H518 C476 0.930 1_545 S
H519 C477 0.930 . S
H520 C479 0.929 . S
H521 C480 0.930 . S
H522 C481 0.930 . S
H523 C482 0.930 . S
H524 C486 0.929 . S
H525 C488 0.930 . S
H526 C494 0.916 1_554 S
H527 C495 0.930 . S
Li528 N545 1.990 . S
Li528 O588 1.956 . S
Li528 O589 1.970 . S
Li528 O590 1.961 . S
Li529 N553 1.990 . S
Li529 O588 1.970 . S
Li529 O589 1.956 . S
Li529 O591 1.961 . S
Li530 N575 1.990 . S
Li530 O588 1.961 . S
Li530 O590 1.956 . S
Li530 O591 1.970 . S
Li531 N581 1.990 . S
Li531 O589 1.961 . S
Li531 O590 1.970 . S
Li531 O591 1.956 . S
C532 C534 1.348 . S
C532 C535 1.356 . S
C532 O588 1.325 . S
N533 C536 1.314 . S
N533 C537 1.279 . S
C534 C532 1.348 . S
C534 C536 1.353 . S
C534 H592 0.929 . S
C535 C532 1.356 . S
C535 C537 1.358 . S
C535 H593 0.930 . S
C536 N533 1.314 . S
C536 C534 1.353 . S
C536 H594 0.930 . S
C537 N533 1.279 . S
C537 C535 1.358 . S
C537 H595 0.930 . S
C538 C541 1.348 . S
C538 C542 1.356 . S
C538 O589 1.325 . S
C539 N540 1.279 . S
C539 C542 1.358 . S
C539 H596 0.930 . S
N540 C539 1.279 . S
N540 C543 1.314 . S
C541 C538 1.348 . S
C541 C543 1.353 . S
C541 H597 0.929 . S
C542 C538 1.356 . S
C542 C539 1.358 . S
C542 H598 0.930 . S
C543 N540 1.314 . S
C543 C541 1.353 . S
C543 H599 0.930 . S
C544 N545 1.314 . S
C544 C549 1.353 . S
C544 H550 0.930 . S
N545 Li528 1.990 . S
N545 C544 1.314 . S
N545 C547 1.279 . S
C546 C547 1.358 . S
C546 C548 1.356 . S
C546 H600 0.930 . S
C547 N545 1.279 . S
C547 C546 1.358 . S
C547 H551 0.930 . S
C548 C546 1.356 . S
C548 C549 1.348 . S
C549 C544 1.353 . S
C549 C548 1.348 . S
C549 H601 0.929 . S
H550 C544 0.930 . S
H551 C547 0.930 . S
C552 N553 1.314 . S
C552 C554 1.353 . S
C552 H558 0.930 . S
N553 Li529 1.990 . S
N553 C552 1.314 . S
N553 C556 1.279 . S
C554 C552 1.353 . S
C554 C557 1.348 . S
C554 H602 0.929 . S
C555 C556 1.358 . S
C555 C557 1.356 . S
C555 H603 0.930 . S
C556 N553 1.279 . S
C556 C555 1.358 . S
C556 H559 0.930 . S
C557 C554 1.348 . S
C557 C555 1.356 . S
H558 C552 0.930 . S
H559 C556 0.930 . S
C560 C562 1.348 . S
C560 C563 1.356 . S
C560 O590 1.325 . S
N561 C564 1.314 . S
N561 C565 1.279 . S
C562 C560 1.348 . S
C562 C564 1.353 . S
C562 H604 0.929 . S
C563 C560 1.356 . S
C563 C565 1.358 . S
C563 H605 0.930 . S
C564 N561 1.314 . S
C564 C562 1.353 . S
C564 H606 0.930 . S
C565 N561 1.279 . S
C565 C563 1.358 . S
C565 H607 0.930 . S
C566 C567 1.348 . S
C566 C568 1.356 . S
C566 O591 1.325 . S
C567 C566 1.348 . S
C567 C569 1.353 . S
C567 H608 0.929 . S
C568 C566 1.356 . S
C568 C570 1.358 . S
C568 H609 0.930 . S
C569 C567 1.353 . S
C569 N571 1.314 . S
C569 H610 0.930 . S
C570 C568 1.358 . S
C570 N571 1.279 . S
C570 H611 0.930 . S
N571 C569 1.314 . S
N571 C570 1.279 . S
C572 C574 1.353 . S
C572 N575 1.314 . S
C572 H578 0.930 . S
C573 N575 1.279 . S
C573 C576 1.358 . S
C573 H579 0.930 . S
C574 C572 1.353 . S
C574 C577 1.348 . S
C574 H612 0.929 . S
N575 Li530 1.990 . S
N575 C572 1.314 . S
N575 C573 1.279 . S
C576 C573 1.358 . S
C576 C577 1.356 . S
C576 H613 0.930 . S
C577 C574 1.348 . S
C577 C576 1.356 . S
H578 C572 0.930 . S
H579 C573 0.930 . S
C580 N581 1.314 . S
C580 C582 1.353 . S
C580 H586 0.930 . S
N581 Li531 1.990 . S
N581 C580 1.314 . S
N581 C584 1.279 . S
C582 C580 1.353 . S
C582 C585 1.348 . S
C582 H614 0.929 . S
C583 C584 1.358 . S
C583 C585 1.356 . S
C583 H615 0.930 . S
C584 N581 1.279 . S
C584 C583 1.358 . S
C584 H587 0.930 . S
C585 C582 1.348 . S
C585 C583 1.356 . S
H586 C580 0.930 . S
H587 C584 0.930 . S
O588 Li528 1.956 . S
O588 Li529 1.970 . S
O588 Li530 1.961 . S
O588 C532 1.325 . S
O589 Li528 1.970 . S
O589 Li529 1.956 . S
O589 Li531 1.961 . S
O589 C538 1.325 . S
O590 Li528 1.961 . S
O590 Li530 1.956 . S
O590 Li531 1.970 . S
O590 C560 1.325 . S
O591 Li529 1.961 . S
O591 Li530 1.970 . S
O591 Li531 1.956 . S
O591 C566 1.325 . S
H592 C534 0.929 . S
H593 C535 0.930 . S
H594 C536 0.930 . S
H595 C537 0.930 . S
H596 C539 0.930 . S
H597 C541 0.929 . S
H598 C542 0.930 . S
H599 C543 0.930 . S
H600 C546 0.930 . S
H601 C549 0.929 . S
H602 C554 0.929 . S
H603 C555 0.930 . S
H604 C562 0.929 . S
H605 C563 0.930 . S
H606 C564 0.930 . S
H607 C565 0.930 . S
H608 C567 0.929 . S
H609 C568 0.930 . S
H610 C569 0.930 . S
H611 C570 0.930 . S
H612 C574 0.929 . S
H613 C576 0.930 . S
H614 C582 0.929 . S
H615 C583 0.930 . S
Li616 N633 1.990 . S
Li616 O676 1.956 . S
Li616 O677 1.970 . S
Li616 O678 1.961 . S
Li617 N641 1.990 . S
Li617 O676 1.970 . S
Li617 O677 1.956 . S
Li617 O679 1.961 . S
Li618 N663 1.912 1_565 S
Li618 O676 1.997 . S
Li618 O678 1.982 . S
Li618 O679 2.038 . S
Li619 N669 1.990 . S
Li619 O677 1.961 . S
Li619 O678 1.970 . S
Li619 O679 1.956 . S
C620 C622 1.348 . S
C620 C623 1.356 . S
C620 O676 1.325 . S
N621 C624 1.314 . S
N621 C625 1.279 . S
C622 C620 1.348 . S
C622 C624 1.353 . S
C622 H680 0.929 . S
C623 C620 1.356 . S
C623 C625 1.358 . S
C623 H681 0.930 . S
C624 N621 1.314 . S
C624 C622 1.353 . S
C624 H682 0.930 . S
C625 N621 1.279 . S
C625 C623 1.358 . S
C625 H683 0.930 . S
C626 C629 1.348 . S
C626 C630 1.356 . S
C626 O677 1.325 . S
C627 N628 1.279 . S
C627 C630 1.358 . S
C627 H684 0.930 . S
N628 C627 1.279 . S
N628 C631 1.314 . S
C629 C626 1.348 . S
C629 C631 1.353 . S
C629 H685 0.929 . S
C630 C626 1.356 . S
C630 C627 1.358 . S
C630 H686 0.930 . S
C631 N628 1.314 . S
C631 C629 1.353 . S
C631 H687 0.930 . S
C632 N633 1.314 . S
C632 C637 1.353 . S
C632 H638 0.930 . S
N633 Li616 1.990 . S
N633 C632 1.314 . S
N633 C635 1.279 . S
C634 C635 1.358 . S
C634 C636 1.356 . S
C634 H688 0.930 . S
C635 N633 1.279 . S
C635 C634 1.358 . S
C635 H639 0.930 . S
C636 C634 1.356 . S
C636 C637 1.348 . S
C637 C632 1.353 . S
C637 C636 1.348 . S
C637 H689 0.929 . S
H638 C632 0.930 . S
H639 C635 0.930 . S
C640 N641 1.314 . S
C640 C642 1.353 . S
C640 H646 0.930 . S
N641 Li617 1.990 . S
N641 C640 1.314 . S
N641 C644 1.279 . S
C642 C640 1.353 . S
C642 C645 1.348 . S
C642 H690 0.929 . S
C643 C644 1.358 . S
C643 C645 1.356 . S
C643 H691 0.930 . S
C644 N641 1.279 . S
C644 C643 1.358 . S
C644 H647 0.930 . S
C645 C642 1.348 . S
C645 C643 1.356 . S
H646 C640 0.930 . S
H647 C644 0.930 . S
C648 C650 1.348 . S
C648 C651 1.356 . S
C648 O678 1.325 1_545 S
N649 C652 1.314 . S
N649 C653 1.279 . S
C650 C648 1.348 . S
C650 C652 1.353 . S
C650 H692 0.929 . S
C651 C648 1.356 . S
C651 C653 1.358 . S
C651 H693 0.930 . S
C652 N649 1.314 . S
C652 C650 1.353 . S
C652 H694 0.930 . S
C653 N649 1.279 . S
C653 C651 1.358 . S
C653 H695 0.930 . S
C654 C655 1.348 1_565 S
C654 C656 1.356 . S
C654 O679 1.325 . S
C655 C654 1.348 1_545 S
C655 C657 1.353 . S
C655 H696 0.929 . S
C656 C654 1.356 . S
C656 C658 1.358 . S
C656 H697 0.930 . S
C657 C655 1.353 . S
C657 N659 1.314 . S
C657 H698 0.930 . S
C658 C656 1.358 . S
C658 N659 1.279 1_565 S
C658 H699 0.930 . S
N659 C657 1.314 . S
N659 C658 1.279 1_545 S
C660 C662 1.353 . S
C660 N663 1.314 . S
C660 H666 0.930 . S
C661 N663 1.279 . S
C661 C664 1.358 . S
C661 H667 0.930 . S
C662 C660 1.353 . S
C662 C665 1.348 . S
C662 H700 0.929 . S
N663 Li618 1.912 1_545 S
N663 C660 1.314 . S
N663 C661 1.279 . S
C664 C661 1.358 . S
C664 C665 1.356 . S
C664 H701 0.930 . S
C665 C662 1.348 . S
C665 C664 1.356 . S
H666 C660 0.930 . S
H667 C661 0.930 . S
C668 N669 1.314 . S
C668 C670 1.353 . S
C668 H674 0.930 . S
N669 Li619 1.990 . S
N669 C668 1.314 . S
N669 C672 1.279 . S
C670 C668 1.353 . S
C670 C673 1.348 . S
C670 H702 0.929 . S
C671 C672 1.358 . S
C671 C673 1.356 . S
C671 H703 0.930 . S
C672 N669 1.279 . S
C672 C671 1.358 . S
C672 H675 0.930 . S
C673 C670 1.348 . S
C673 C671 1.356 . S
H674 C668 0.930 . S
H675 C672 0.930 . S
O676 Li616 1.956 . S
O676 Li617 1.970 . S
O676 Li618 1.997 . S
O676 C620 1.325 . S
O677 Li616 1.970 . S
O677 Li617 1.956 . S
O677 Li619 1.961 . S
O677 C626 1.325 . S
O678 Li616 1.961 . S
O678 Li618 1.982 . S
O678 Li619 1.970 . S
O678 C648 1.325 1_565 S
O679 Li617 1.961 . S
O679 Li618 2.038 . S
O679 Li619 1.956 . S
O679 C654 1.325 . S
H680 C622 0.929 . S
H681 C623 0.930 . S
H682 C624 0.930 . S
H683 C625 0.930 . S
H684 C627 0.930 . S
H685 C629 0.929 . S
H686 C630 0.930 . S
H687 C631 0.930 . S
H688 C634 0.930 . S
H689 C637 0.929 . S
H690 C642 0.929 . S
H691 C643 0.930 . S
H692 C650 0.929 . S
H693 C651 0.930 . S
H694 C652 0.930 . S
H695 C653 0.930 . S
H696 C655 0.929 . S
H697 C656 0.930 . S
H698 C657 0.930 . S
H699 C658 0.930 . S
H700 C662 0.929 . S
H701 C664 0.930 . S
H702 C670 0.929 . S
H703 C671 0.930 . S
Li704 N721 1.990 . S
Li704 O764 1.956 . S
Li704 O765 1.970 . S
Li704 O766 1.961 . S
Li705 N729 1.990 . S
Li705 O764 1.970 . S
Li705 O765 1.956 . S
Li705 O767 1.961 . S
Li706 N751 1.990 1_455 S
Li706 O764 1.961 . S
Li706 O766 1.956 . S
Li706 O767 1.970 . S
Li707 N757 1.990 . S
Li707 O765 1.961 . S
Li707 O766 1.970 . S
Li707 O767 1.956 . S
C708 C710 1.348 . S
C708 C711 1.356 . S
C708 O764 1.325 . S
N709 C712 1.314 . S
N709 C713 1.279 . S
C710 C708 1.348 . S
C710 C712 1.353 . S
C710 H768 0.929 . S
C711 C708 1.356 . S
C711 C713 1.358 . S
C711 H769 0.930 . S
C712 N709 1.314 . S
C712 C710 1.353 . S
C712 H770 0.930 . S
C713 N709 1.279 . S
C713 C711 1.358 . S
C713 H771 0.930 . S
C714 C717 1.348 . S
C714 C718 1.356 . S
C714 O765 1.325 . S
C715 N716 1.279 . S
C715 C718 1.358 . S
C715 H772 0.930 . S
N716 C715 1.279 . S
N716 C719 1.314 . S
C717 C714 1.348 . S
C717 C719 1.353 . S
C717 H773 0.929 . S
C718 C714 1.356 . S
C718 C715 1.358 . S
C718 H774 0.930 . S
C719 N716 1.314 . S
C719 C717 1.353 . S
C719 H775 0.930 . S
C720 N721 1.314 . S
C720 C725 1.353 . S
C720 H726 0.930 . S
N721 Li704 1.990 . S
N721 C720 1.314 . S
N721 C723 1.279 . S
C722 C723 1.358 . S
C722 C724 1.356 . S
C722 H776 0.930 . S
C723 N721 1.279 . S
C723 C722 1.358 . S
C723 H727 0.930 . S
C724 C722 1.356 . S
C724 C725 1.348 . S
C725 C720 1.353 . S
C725 C724 1.348 . S
C725 H777 0.929 . S
H726 C720 0.930 . S
H727 C723 0.930 . S
C728 N729 1.314 . S
C728 C730 1.353 . S
C728 H734 0.930 . S
N729 Li705 1.990 . S
N729 C728 1.314 . S
N729 C732 1.279 . S
C730 C728 1.353 . S
C730 C733 1.348 . S
C730 H778 0.929 . S
C731 C732 1.358 . S
C731 C733 1.356 . S
C731 H779 0.930 . S
C732 N729 1.279 . S
C732 C731 1.358 . S
C732 H735 0.930 . S
C733 C730 1.348 . S
C733 C731 1.356 . S
H734 C728 0.930 . S
H735 C732 0.930 . S
C736 C738 1.348 . S
C736 C739 1.356 . S
C736 O766 1.325 1_655 S
N737 C740 1.314 . S
N737 C741 1.279 . S
C738 C736 1.348 . S
C738 C740 1.353 . S
C738 H780 0.929 . S
C739 C736 1.356 . S
C739 C741 1.358 . S
C739 H781 0.930 . S
C740 N737 1.314 . S
C740 C738 1.353 . S
C740 H782 0.930 . S
C741 N737 1.279 . S
C741 C739 1.358 . S
C741 H783 0.930 . S
C742 C743 1.348 1_455 S
C742 C744 1.356 . S
C742 O767 1.325 . S
C743 C742 1.348 1_655 S
C743 C745 1.353 . S
C743 H784 0.929 . S
C744 C742 1.356 . S
C744 C746 1.358 . S
C744 H785 0.930 . S
C745 C743 1.353 . S
C745 N747 1.302 1_655 S
C745 H786 0.930 . S
C746 C744 1.358 . S
C746 N747 1.335 . S
C746 H787 0.930 . S
N747 C745 1.302 1_455 S
N747 C746 1.335 . S
C748 C750 1.353 . S
C748 N751 1.314 . S
C748 H754 0.930 . S
C749 N751 1.279 . S
C749 C752 1.358 . S
C749 H755 0.930 . S
C750 C748 1.353 . S
C750 C753 1.348 . S
C750 H788 0.929 . S
N751 Li706 1.990 1_655 S
N751 C748 1.314 . S
N751 C749 1.279 . S
C752 C749 1.358 . S
C752 C753 1.356 . S
C752 H789 0.930 . S
C753 C750 1.348 . S
C753 C752 1.356 . S
H754 C748 0.930 . S
H755 C749 0.930 . S
C756 N757 1.314 . S
C756 C758 1.353 . S
C756 H762 0.930 . S
N757 Li707 1.990 . S
N757 C756 1.314 . S
N757 C760 1.279 . S
C758 C756 1.353 . S
C758 C761 1.348 . S
C758 H790 0.929 . S
C759 C760 1.358 . S
C759 C761 1.356 . S
C759 H791 0.930 . S
C760 N757 1.279 . S
C760 C759 1.358 . S
C760 H763 0.930 . S
C761 C758 1.348 . S
C761 C759 1.356 . S
H762 C756 0.930 . S
H763 C760 0.930 . S
O764 Li704 1.956 . S
O764 Li705 1.970 . S
O764 Li706 1.961 . S
O764 C708 1.325 . S
O765 Li704 1.970 . S
O765 Li705 1.956 . S
O765 Li707 1.961 . S
O765 C714 1.325 . S
O766 Li704 1.961 . S
O766 Li706 1.956 . S
O766 Li707 1.970 . S
O766 C736 1.325 1_455 S
O767 Li705 1.961 . S
O767 Li706 1.970 . S
O767 Li707 1.956 . S
O767 C742 1.325 . S
H768 C710 0.929 . S
H769 C711 0.930 . S
H770 C712 0.930 . S
H771 C713 0.930 . S
H772 C715 0.930 . S
H773 C717 0.929 . S
H774 C718 0.930 . S
H775 C719 0.930 . S
H776 C722 0.930 . S
H777 C725 0.929 . S
H778 C730 0.929 . S
H779 C731 0.930 . S
H780 C738 0.929 . S
H781 C739 0.930 . S
H782 C740 0.930 . S
H783 C741 0.930 . S
H784 C743 0.929 . S
H785 C744 0.930 . S
H786 C745 0.930 . S
H787 C746 0.930 . S
H788 C750 0.929 . S
H789 C752 0.930 . S
H790 C758 0.929 . S
H791 C759 0.930 . S
Li792 N809 1.990 1_565 S
Li792 O852 1.956 . S
Li792 O853 1.970 . S
Li792 O854 1.961 . S
Li793 N817 1.990 . S
Li793 O852 1.970 . S
Li793 O853 1.956 . S
Li793 O855 1.961 . S
Li794 N839 1.990 . S
Li794 O852 1.961 . S
Li794 O854 1.956 . S
Li794 O855 1.970 . S
Li795 N845 1.990 . S
Li795 O853 1.961 . S
Li795 O854 1.970 . S
Li795 O855 1.956 . S
C796 C798 1.348 . S
C796 C799 1.356 . S
C796 O852 1.325 . S
N797 C800 1.314 . S
N797 C801 1.279 . S
C798 C796 1.348 . S
C798 C800 1.353 . S
C798 H856 0.929 . S
C799 C796 1.356 . S
C799 C801 1.358 . S
C799 H857 0.930 . S
C800 N797 1.314 . S
C800 C798 1.353 . S
C800 H858 0.930 . S
C801 N797 1.279 . S
C801 C799 1.358 . S
C801 H859 0.930 . S
C802 C805 1.348 1_565 S
C802 C806 1.356 . S
C802 O853 1.325 . S
C803 N804 1.319 . S
C803 C806 1.358 . S
C803 H860 0.930 . S
N804 C803 1.319 . S
N804 C807 1.322 1_565 S
C805 C802 1.348 1_545 S
C805 C807 1.353 . S
C805 H861 0.929 . S
C806 C802 1.356 . S
C806 C803 1.358 . S
C806 H862 0.930 . S
C807 N804 1.322 1_545 S
C807 C805 1.353 . S
C807 H863 0.930 . S
C808 N809 1.314 . S
C808 C813 1.353 . S
C808 H814 0.930 . S
N809 Li792 1.990 1_545 S
N809 C808 1.314 . S
N809 C811 1.279 . S
C810 C811 1.358 . S
C810 C812 1.356 . S
C810 H864 0.930 . S
C811 N809 1.279 . S
C811 C810 1.358 . S
C811 H815 0.930 . S
C812 C810 1.356 . S
C812 C813 1.348 . S
C813 C808 1.353 . S
C813 C812 1.348 . S
C813 H865 0.929 . S
H814 C808 0.930 . S
H815 C811 0.930 . S
C816 N817 1.314 . S
C816 C818 1.353 . S
C816 H822 0.930 . S
N817 Li793 1.990 . S
N817 C816 1.314 . S
N817 C820 1.279 . S
C818 C816 1.353 . S
C818 C821 1.348 . S
C818 H866 0.929 . S
C819 C820 1.358 . S
C819 C821 1.356 . S
C819 H867 0.930 . S
C820 N817 1.279 . S
C820 C819 1.358 . S
C820 H823 0.930 . S
C821 C818 1.348 . S
C821 C819 1.356 . S
H822 C816 0.930 . S
H823 C820 0.930 . S
C824 C826 1.348 . S
C824 C827 1.356 . S
C824 O854 1.325 1_545 S
N825 C828 1.314 . S
N825 C829 1.279 . S
C826 C824 1.348 . S
C826 C828 1.353 . S
C826 H868 0.929 1_545 S
C827 C824 1.356 . S
C827 C829 1.358 . S
C827 H869 0.930 . S
C828 N825 1.314 . S
C828 C826 1.353 . S
C828 H870 0.930 . S
C829 N825 1.279 . S
C829 C827 1.358 . S
C829 H871 0.930 . S
C830 C831 1.348 . S
C830 C832 1.356 . S
C830 O855 1.325 . S
C831 C830 1.348 . S
C831 C833 1.353 . S
C831 H872 0.929 . S
C832 C830 1.356 . S
C832 C834 1.358 . S
C832 H873 0.930 . S
C833 C831 1.353 . S
C833 N835 1.314 . S
C833 H874 0.930 . S
C834 C832 1.358 . S
C834 N835 1.279 . S
C834 H875 0.930 . S
N835 C833 1.314 . S
N835 C834 1.279 . S
C836 C838 1.353 . S
C836 N839 1.314 . S
C836 H842 0.930 . S
C837 N839 1.279 . S
C837 C840 1.358 . S
C837 H843 0.930 . S
C838 C836 1.353 . S
C838 C841 1.348 . S
C838 H876 0.929 . S
N839 Li794 1.990 . S
N839 C836 1.314 . S
N839 C837 1.279 . S
C840 C837 1.358 . S
C840 C841 1.356 . S
C840 H877 0.930 . S
C841 C838 1.348 . S
C841 C840 1.356 . S
H842 C836 0.930 . S
H843 C837 0.930 . S
C844 N845 1.314 . S
C844 C846 1.353 . S
C844 H850 0.896 1_565 S
N845 Li795 1.990 . S
N845 C844 1.314 . S
N845 C848 1.279 . S
C846 C844 1.353 . S
C846 C849 1.348 . S
C846 H878 0.929 1_565 S
C847 C848 1.358 . S
C847 C849 1.356 . S
C847 H879 0.930 . S
C848 N845 1.279 . S
C848 C847 1.358 . S
C848 H851 0.930 . S
C849 C846 1.348 . S
C849 C847 1.356 . S
H850 C844 0.896 1_545 S
H851 C848 0.930 . S
O852 Li792 1.956 . S
O852 Li793 1.970 . S
O852 Li794 1.961 . S
O852 C796 1.325 . S
O853 Li792 1.970 . S
O853 Li793 1.956 . S
O853 Li795 1.961 . S
O853 C802 1.325 . S
O854 Li792 1.961 . S
O854 Li794 1.956 . S
O854 Li795 1.970 . S
O854 C824 1.325 1_565 S
O855 Li793 1.961 . S
O855 Li794 1.970 . S
O855 Li795 1.956 . S
O855 C830 1.325 . S
H856 C798 0.929 . S
H857 C799 0.930 . S
H858 C800 0.930 . S
H859 C801 0.930 . S
H860 C803 0.930 . S
H861 C805 0.929 . S
H862 C806 0.930 . S
H863 C807 0.930 . S
H864 C810 0.930 . S
H865 C813 0.929 . S
H866 C818 0.929 . S
H867 C819 0.930 . S
H868 C826 0.929 1_565 S
H869 C827 0.930 . S
H870 C828 0.930 . S
H871 C829 0.930 . S
H872 C831 0.929 . S
H873 C832 0.930 . S
H874 C833 0.930 . S
H875 C834 0.930 . S
H876 C838 0.929 . S
H877 C840 0.930 . S
H878 C846 0.929 1_545 S
H879 C847 0.930 . S
Li880 N897 1.990 . S
Li880 O940 1.956 . S
Li880 O941 1.970 . S
Li880 O942 1.961 . S
Li881 N905 1.990 1_455 S
Li881 O940 1.970 . S
Li881 O941 1.956 . S
Li881 O943 1.961 . S
Li882 N927 1.990 . S
Li882 O940 1.961 . S
Li882 O942 1.956 . S
Li882 O943 1.970 . S
Li883 N933 1.990 . S
Li883 O941 1.961 . S
Li883 O942 1.970 . S
Li883 O943 1.956 . S
C884 C886 1.348 1_455 S
C884 C887 1.356 . S
C884 O940 1.325 . S
N885 C888 1.283 1_455 S
N885 C889 1.307 . S
C886 C884 1.348 1_655 S
C886 C888 1.353 . S
C886 H944 0.929 . S
C887 C884 1.356 . S
C887 C889 1.358 . S
C887 H945 0.930 . S
C888 N885 1.283 1_655 S
C888 C886 1.353 . S
C888 H946 0.930 . S
C889 N885 1.307 . S
C889 C887 1.358 . S
C889 H947 0.930 . S
C890 C893 1.348 . S
C890 C894 1.356 . S
C890 O941 1.325 . S
C891 N892 1.279 . S
C891 C894 1.358 . S
C891 H948 0.930 . S
N892 C891 1.279 . S
N892 C895 1.314 . S
C893 C890 1.348 . S
C893 C895 1.353 . S
C893 H949 0.929 . S
C894 C890 1.356 . S
C894 C891 1.358 . S
C894 H950 0.930 . S
C895 N892 1.314 . S
C895 C893 1.353 . S
C895 H951 0.930 . S
C896 N897 1.314 . S
C896 C901 1.353 . S
C896 H902 0.930 . S
N897 Li880 1.990 . S
N897 C896 1.314 . S
N897 C899 1.279 . S
C898 C899 1.358 . S
C898 C900 1.356 . S
C898 H952 0.930 . S
C899 N897 1.279 . S
C899 C898 1.358 . S
C899 H903 0.930 . S
C900 C898 1.356 . S
C900 C901 1.348 . S
C901 C896 1.353 . S
C901 C900 1.348 . S
C901 H953 0.929 . S
H902 C896 0.930 . S
H903 C899 0.930 . S
C904 N905 1.314 . S
C904 C906 1.353 . S
C904 H910 0.930 . S
N905 Li881 1.990 1_655 S
N905 C904 1.314 . S
N905 C908 1.279 . S
C906 C904 1.353 . S
C906 C909 1.348 . S
C906 H954 0.929 . S
C907 C908 1.358 . S
C907 C909 1.356 . S
C907 H955 0.930 . S
C908 N905 1.279 . S
C908 C907 1.358 . S
C908 H911 0.930 . S
C909 C906 1.348 . S
C909 C907 1.356 . S
H910 C904 0.930 . S
H911 C908 0.930 . S
C912 C914 1.348 . S
C912 C915 1.356 . S
C912 O942 1.325 . S
N913 C916 1.314 . S
N913 C917 1.279 . S
C914 C912 1.348 . S
C914 C916 1.353 . S
C914 H956 0.929 . S
C915 C912 1.356 . S
C915 C917 1.358 . S
C915 H957 0.930 . S
C916 N913 1.314 . S
C916 C914 1.353 . S
C916 H958 0.930 . S
C917 N913 1.279 . S
C917 C915 1.358 . S
C917 H959 0.930 . S
C918 C919 1.348 . S
C918 C920 1.356 . S
C918 O943 1.325 1_655 S
C919 C918 1.348 . S
C919 C921 1.353 . S
C919 H960 0.929 1_655 S
C920 C918 1.356 . S
C920 C922 1.358 . S
C920 H961 0.930 . S
C921 C919 1.353 . S
C921 N923 1.314 . S
C921 H962 0.930 . S
C922 C920 1.358 . S
C922 N923 1.279 . S
C922 H963 0.930 . S
N923 C921 1.314 . S
N923 C922 1.279 . S
C924 C926 1.353 . S
C924 N927 1.314 . S
C924 H930 0.930 1_455 S
C925 N927 1.279 . S
C925 C928 1.358 . S
C925 H931 0.930 . S
C926 C924 1.353 . S
C926 C929 1.348 . S
C926 H964 0.929 1_455 S
N927 Li882 1.990 . S
N927 C924 1.314 . S
N927 C925 1.279 . S
C928 C925 1.358 . S
C928 C929 1.356 . S
C928 H965 0.930 . S
C929 C926 1.348 . S
C929 C928 1.356 . S
H930 C924 0.930 1_655 S
H931 C925 0.930 . S
C932 N933 1.314 . S
C932 C934 1.353 . S
C932 H938 0.930 . S
N933 Li883 1.990 . S
N933 C932 1.314 . S
N933 C936 1.279 . S
C934 C932 1.353 . S
C934 C937 1.348 . S
C934 H966 0.929 . S
C935 C936 1.358 . S
C935 C937 1.356 . S
C935 H967 0.930 . S
C936 N933 1.279 . S
C936 C935 1.358 . S
C936 H939 0.930 . S
C937 C934 1.348 . S
C937 C935 1.356 . S
H938 C932 0.930 . S
H939 C936 0.930 . S
O940 Li880 1.956 . S
O940 Li881 1.970 . S
O940 Li882 1.961 . S
O940 C884 1.325 . S
O941 Li880 1.970 . S
O941 Li881 1.956 . S
O941 Li883 1.961 . S
O941 C890 1.325 . S
O942 Li880 1.961 . S
O942 Li882 1.956 . S
O942 Li883 1.970 . S
O942 C912 1.325 . S
O943 Li881 1.961 . S
O943 Li882 1.970 . S
O943 Li883 1.956 . S
O943 C918 1.325 1_455 S
H944 C886 0.929 . S
H945 C887 0.930 . S
H946 C888 0.930 . S
H947 C889 0.930 . S
H948 C891 0.930 . S
H949 C893 0.929 . S
H950 C894 0.930 . S
H951 C895 0.930 . S
H952 C898 0.930 . S
H953 C901 0.929 . S
H954 C906 0.929 . S
H955 C907 0.930 . S
H956 C914 0.929 . S
H957 C915 0.930 . S
H958 C916 0.930 . S
H959 C917 0.930 . S
H960 C919 0.929 1_455 S
H961 C920 0.930 . S
H962 C921 0.930 . S
H963 C922 0.930 . S
H964 C926 0.929 1_655 S
H965 C928 0.930 . S
H966 C934 0.929 . S
H967 C935 0.930 . S
Li968 N985 1.990 . S
Li968 O1028 1.956 . S
Li968 O1029 1.970 . S
Li968 O1030 1.961 . S
Li969 N993 1.990 . S
Li969 O1028 1.970 . S
Li969 O1029 1.956 . S
Li969 O1031 1.961 . S
Li970 N1015 1.990 . S
Li970 O1028 1.961 . S
Li970 O1030 1.956 . S
Li970 O1031 1.970 . S
Li971 N1021 1.990 . S
Li971 O1029 1.961 . S
Li971 O1030 1.970 . S
Li971 O1031 1.956 . S
C972 C974 1.348 . S
C972 C975 1.356 . S
C972 O1028 1.325 . S
N973 C976 1.314 . S
N973 C977 1.279 . S
C974 C972 1.348 . S
C974 C976 1.353 . S
C974 H1032 0.929 . S
C975 C972 1.356 . S
C975 C977 1.358 . S
C975 H1033 0.930 . S
C976 N973 1.314 . S
C976 C974 1.353 . S
C976 H1034 0.930 . S
C977 N973 1.279 . S
C977 C975 1.358 . S
C977 H1035 0.930 . S
C978 C981 1.348 . S
C978 C982 1.356 . S
C978 O1029 1.325 . S
C979 N980 1.279 . S
C979 C982 1.358 . S
C979 H1036 0.930 . S
N980 C979 1.279 . S
N980 C983 1.314 . S
C981 C978 1.348 . S
C981 C983 1.353 . S
C981 H1037 0.929 . S
C982 C978 1.356 . S
C982 C979 1.358 . S
C982 H1038 0.930 . S
C983 N980 1.314 . S
C983 C981 1.353 . S
C983 H1039 0.930 . S
C984 N985 1.314 . S
C984 C989 1.353 . S
C984 H990 0.930 . S
N985 Li968 1.990 . S
N985 C984 1.314 . S
N985 C987 1.279 . S
C986 C987 1.358 . S
C986 C988 1.356 . S
C986 H1040 0.930 . S
C987 N985 1.279 . S
C987 C986 1.358 . S
C987 H991 0.930 . S
C988 C986 1.356 . S
C988 C989 1.348 . S
C989 C984 1.353 . S
C989 C988 1.348 . S
C989 H1041 0.929 . S
H990 C984 0.930 . S
H991 C987 0.930 . S
C992 N993 1.314 . S
C992 C994 1.353 . S
C992 H998 0.930 . S
N993 Li969 1.990 . S
N993 C992 1.314 . S
N993 C996 1.279 . S
C994 C992 1.353 . S
C994 C997 1.348 . S
C994 H1042 0.929 . S
C995 C996 1.358 . S
C995 C997 1.356 . S
C995 H1043 0.930 . S
C996 N993 1.279 . S
C996 C995 1.358 . S
C996 H999 0.930 . S
C997 C994 1.348 . S
C997 C995 1.356 . S
H998 C992 0.930 . S
H999 C996 0.930 . S
C1000 C1002 1.348 . S
C1000 C1003 1.356 . S
C1000 O1030 1.325 . S
N1001 C1004 1.314 . S
N1001 C1005 1.279 . S
C1002 C1000 1.348 . S
C1002 C1004 1.353 . S
C1002 H1044 0.929 . S
C1003 C1000 1.356 . S
C1003 C1005 1.358 . S
C1003 H1045 0.930 . S
C1004 N1001 1.314 . S
C1004 C1002 1.353 . S
C1004 H1046 0.930 . S
C1005 N1001 1.279 . S
C1005 C1003 1.358 . S
C1005 H1047 0.930 . S
C1006 C1007 1.348 . S
C1006 C1008 1.356 . S
C1006 O1031 1.325 . S
C1007 C1006 1.348 . S
C1007 C1009 1.353 . S
C1007 H1048 0.929 . S
C1008 C1006 1.356 . S
C1008 C1010 1.358 . S
C1008 H1049 0.930 . S
C1009 C1007 1.353 . S
C1009 N1011 1.314 . S
C1009 H1050 0.930 . S
C1010 C1008 1.358 . S
C1010 N1011 1.279 . S
C1010 H1051 0.930 . S
N1011 C1009 1.314 . S
N1011 C1010 1.279 . S
C1012 C1014 1.353 . S
C1012 N1015 1.314 . S
C1012 H1018 0.930 . S
C1013 N1015 1.279 . S
C1013 C1016 1.358 . S
C1013 H1019 0.930 . S
C1014 C1012 1.353 . S
C1014 C1017 1.348 . S
C1014 H1052 0.929 . S
N1015 Li970 1.990 . S
N1015 C1012 1.314 . S
N1015 C1013 1.279 . S
C1016 C1013 1.358 . S
C1016 C1017 1.356 . S
C1016 H1053 0.930 . S
C1017 C1014 1.348 . S
C1017 C1016 1.356 . S
H1018 C1012 0.930 . S
H1019 C1013 0.930 . S
C1020 N1021 1.314 . S
C1020 C1022 1.353 . S
C1020 H1026 0.930 . S
N1021 Li971 1.990 . S
N1021 C1020 1.314 . S
N1021 C1024 1.279 . S
C1022 C1020 1.353 . S
C1022 C1025 1.348 . S
C1022 H1054 0.929 . S
C1023 C1024 1.358 . S
C1023 C1025 1.356 . S
C1023 H1055 0.930 . S
C1024 N1021 1.279 . S
C1024 C1023 1.358 . S
C1024 H1027 0.930 . S
C1025 C1022 1.348 . S
C1025 C1023 1.356 . S
H1026 C1020 0.930 . S
H1027 C1024 0.930 . S
O1028 Li968 1.956 . S
O1028 Li969 1.970 . S
O1028 Li970 1.961 . S
O1028 C972 1.325 . S
O1029 Li968 1.970 . S
O1029 Li969 1.956 . S
O1029 Li971 1.961 . S
O1029 C978 1.325 . S
O1030 Li968 1.961 . S
O1030 Li970 1.956 . S
O1030 Li971 1.970 . S
O1030 C1000 1.325 . S
O1031 Li969 1.961 . S
O1031 Li970 1.970 . S
O1031 Li971 1.956 . S
O1031 C1006 1.325 . S
H1032 C974 0.929 . S
H1033 C975 0.930 . S
H1034 C976 0.930 . S
H1035 C977 0.930 . S
H1036 C979 0.930 . S
H1037 C981 0.929 . S
H1038 C982 0.930 . S
H1039 C983 0.930 . S
H1040 C986 0.930 . S
H1041 C989 0.929 . S
H1042 C994 0.929 . S
H1043 C995 0.930 . S
H1044 C1002 0.929 . S
H1045 C1003 0.930 . S
H1046 C1004 0.930 . S
H1047 C1005 0.930 . S
H1048 C1007 0.929 . S
H1049 C1008 0.930 . S
H1050 C1009 0.930 . S
H1051 C1010 0.930 . S
H1052 C1014 0.929 . S
H1053 C1016 0.930 . S
H1054 C1022 0.929 . S
H1055 C1023 0.930 . S
Li1056 N1073 1.990 1_545 S
Li1056 O1116 1.956 . S
Li1056 O1117 1.970 . S
Li1056 O1118 1.961 . S
Li1057 N1081 1.990 . S
Li1057 O1116 1.970 . S
Li1057 O1117 1.956 . S
Li1057 O1119 1.961 . S
Li1058 N1103 1.990 . S
Li1058 O1116 1.961 . S
Li1058 O1118 1.956 . S
Li1058 O1119 1.970 . S
Li1059 N1109 1.990 . S
Li1059 O1117 1.961 . S
Li1059 O1118 1.970 . S
Li1059 O1119 1.956 . S
C1060 C1062 1.348 . S
C1060 C1063 1.356 . S
C1060 O1116 1.325 1_565 S
N1061 C1064 1.314 . S
N1061 C1065 1.279 . S
C1062 C1060 1.348 . S
C1062 C1064 1.353 . S
C1062 H1120 0.929 . S
C1063 C1060 1.356 . S
C1063 C1065 1.358 . S
C1063 H1121 0.930 . S
C1064 N1061 1.314 . S
C1064 C1062 1.353 . S
C1064 H1122 0.930 . S
C1065 N1061 1.279 . S
C1065 C1063 1.358 . S
C1065 H1123 0.930 . S
C1066 C1069 1.348 1_545 S
C1066 C1070 1.356 . S
C1066 O1117 1.325 . S
C1067 N1068 1.335 . S
C1067 C1070 1.358 . S
C1067 H1124 0.930 . S
N1068 C1067 1.335 . S
N1068 C1071 1.302 1_545 S
C1069 C1066 1.348 1_565 S
C1069 C1071 1.353 . S
C1069 H1125 0.929 . S
C1070 C1066 1.356 . S
C1070 C1067 1.358 . S
C1070 H1126 0.930 . S
C1071 N1068 1.302 1_565 S
C1071 C1069 1.353 . S
C1071 H1127 0.930 . S
C1072 N1073 1.314 . S
C1072 C1077 1.353 . S
C1072 H1078 0.930 . S
N1073 Li1056 1.990 1_565 S
N1073 C1072 1.314 . S
N1073 C1075 1.279 . S
C1074 C1075 1.358 . S
C1074 C1076 1.356 . S
C1074 H1128 0.930 . S
C1075 N1073 1.279 . S
C1075 C1074 1.358 . S
C1075 H1079 0.930 . S
C1076 C1074 1.356 . S
C1076 C1077 1.348 . S
C1077 C1072 1.353 . S
C1077 C1076 1.348 . S
C1077 H1129 0.929 . S
H1078 C1072 0.930 . S
H1079 C1075 0.930 . S
C1080 N1081 1.314 . S
C1080 C1082 1.353 . S
C1080 H1086 0.930 . S
N1081 Li1057 1.990 . S
N1081 C1080 1.314 . S
N1081 C1084 1.279 . S
C1082 C1080 1.353 . S
C1082 C1085 1.348 . S
C1082 H1130 0.929 . S
C1083 C1084 1.358 . S
C1083 C1085 1.356 . S
C1083 H1131 0.930 . S
C1084 N1081 1.279 . S
C1084 C1083 1.358 . S
C1084 H1087 0.930 . S
C1085 C1082 1.348 . S
C1085 C1083 1.356 . S
H1086 C1080 0.930 . S
H1087 C1084 0.930 . S
C1088 C1090 1.348 . S
C1088 C1091 1.356 . S
C1088 O1118 1.325 . S
N1089 C1092 1.314 . S
N1089 C1093 1.279 . S
C1090 C1088 1.348 . S
C1090 C1092 1.353 . S
C1090 H1132 0.929 . S
C1091 C1088 1.356 . S
C1091 C1093 1.358 . S
C1091 H1133 0.930 . S
C1092 N1089 1.314 . S
C1092 C1090 1.353 . S
C1092 H1134 0.930 . S
C1093 N1089 1.279 . S
C1093 C1091 1.358 . S
C1093 H1135 0.930 . S
C1094 C1095 1.348 . S
C1094 C1096 1.356 . S
C1094 O1119 1.325 . S
C1095 C1094 1.348 . S
C1095 C1097 1.353 . S
C1095 H1136 0.929 . S
C1096 C1094 1.356 . S
C1096 C1098 1.358 . S
C1096 H1137 0.930 . S
C1097 C1095 1.353 . S
C1097 N1099 1.314 . S
C1097 H1138 0.930 . S
C1098 C1096 1.358 . S
C1098 N1099 1.279 . S
C1098 H1139 0.930 . S
N1099 C1097 1.314 . S
N1099 C1098 1.279 . S
C1100 C1102 1.353 . S
C1100 N1103 1.314 . S
C1100 H1106 0.930 . S
C1101 N1103 1.279 . S
C1101 C1104 1.358 . S
C1101 H1107 0.930 . S
C1102 C1100 1.353 . S
C1102 C1105 1.348 . S
C1102 H1140 0.929 . S
N1103 Li1058 1.990 . S
N1103 C1100 1.314 . S
N1103 C1101 1.279 . S
C1104 C1101 1.358 . S
C1104 C1105 1.356 . S
C1104 H1141 0.930 . S
C1105 C1102 1.348 . S
C1105 C1104 1.356 . S
H1106 C1100 0.930 . S
H1107 C1101 0.930 . S
C1108 N1109 1.314 . S
C1108 C1110 1.353 . S
C1108 H1114 0.930 . S
N1109 Li1059 1.990 . S
N1109 C1108 1.314 . S
N1109 C1112 1.279 . S
C1110 C1108 1.353 . S
C1110 C1113 1.348 . S
C1110 H1142 0.929 . S
C1111 C1112 1.358 . S
C1111 C1113 1.356 . S
C1111 H1143 0.930 . S
C1112 N1109 1.279 . S
C1112 C1111 1.358 . S
C1112 H1115 0.930 . S
C1113 C1110 1.348 . S
C1113 C1111 1.356 . S
H1114 C1108 0.930 . S
H1115 C1112 0.930 . S
O1116 Li1056 1.956 . S
O1116 Li1057 1.970 . S
O1116 Li1058 1.961 . S
O1116 C1060 1.325 1_545 S
O1117 Li1056 1.970 . S
O1117 Li1057 1.956 . S
O1117 Li1059 1.961 . S
O1117 C1066 1.325 . S
O1118 Li1056 1.961 . S
O1118 Li1058 1.956 . S
O1118 Li1059 1.970 . S
O1118 C1088 1.325 . S
O1119 Li1057 1.961 . S
O1119 Li1058 1.970 . S
O1119 Li1059 1.956 . S
O1119 C1094 1.325 . S
H1120 C1062 0.929 . S
H1121 C1063 0.930 . S
H1122 C1064 0.930 . S
H1123 C1065 0.930 . S
H1124 C1067 0.930 . S
H1125 C1069 0.929 . S
H1126 C1070 0.930 . S
H1127 C1071 0.930 . S
H1128 C1074 0.930 . S
H1129 C1077 0.929 . S
H1130 C1082 0.929 . S
H1131 C1083 0.930 . S
H1132 C1090 0.929 . S
H1133 C1091 0.930 . S
H1134 C1092 0.930 . S
H1135 C1093 0.930 . S
H1136 C1095 0.929 . S
H1137 C1096 0.930 . S
H1138 C1097 0.930 . S
H1139 C1098 0.930 . S
H1140 C1102 0.929 . S
H1141 C1104 0.930 . S
H1142 C1110 0.929 . S
H1143 C1111 0.930 . S
Li1144 N1161 1.912 1_655 S
Li1144 O1204 1.982 . S
Li1144 O1205 2.038 . S
Li1144 O1206 1.997 . S
Li1145 N1169 1.990 . S
Li1145 O1204 1.970 . S
Li1145 O1205 1.956 . S
Li1145 O1207 1.961 . S
Li1146 N1191 1.990 . S
Li1146 O1204 1.961 . S
Li1146 O1206 1.956 . S
Li1146 O1207 1.970 . S
Li1147 N1197 1.990 . S
Li1147 O1205 1.961 . S
Li1147 O1206 1.970 . S
Li1147 O1207 1.956 . S
C1148 C1150 1.348 . S
C1148 C1151 1.356 . S
C1148 O1204 1.325 1_455 S
N1149 C1152 1.314 . S
N1149 C1153 1.279 . S
C1150 C1148 1.348 . S
C1150 C1152 1.353 . S
C1150 H1208 0.929 . S
C1151 C1148 1.356 . S
C1151 C1153 1.358 . S
C1151 H1209 0.930 . S
C1152 N1149 1.314 . S
C1152 C1150 1.353 . S
C1152 H1210 0.930 . S
C1153 N1149 1.279 . S
C1153 C1151 1.358 . S
C1153 H1211 0.930 . S
C1154 C1157 1.348 1_655 S
C1154 C1158 1.356 . S
C1154 O1205 1.325 . S
C1155 N1156 1.279 1_655 S
C1155 C1158 1.358 . S
C1155 H1212 0.930 . S
N1156 C1155 1.279 1_455 S
N1156 C1159 1.314 . S
C1157 C1154 1.348 1_455 S
C1157 C1159 1.353 . S
C1157 H1213 0.929 . S
C1158 C1154 1.356 . S
C1158 C1155 1.358 . S
C1158 H1214 0.930 . S
C1159 N1156 1.314 . S
C1159 C1157 1.353 . S
C1159 H1215 0.930 . S
C1160 N1161 1.314 . S
C1160 C1165 1.353 . S
C1160 H1166 0.930 . S
N1161 Li1144 1.912 1_455 S
N1161 C1160 1.314 . S
N1161 C1163 1.279 . S
C1162 C1163 1.358 . S
C1162 C1164 1.356 . S
C1162 H1216 0.930 . S
C1163 N1161 1.279 . S
C1163 C1162 1.358 . S
C1163 H1167 0.930 . S
C1164 C1162 1.356 . S
C1164 C1165 1.348 . S
C1165 C1160 1.353 . S
C1165 C1164 1.348 . S
C1165 H1217 0.929 . S
H1166 C1160 0.930 . S
H1167 C1163 0.930 . S
C1168 N1169 1.314 . S
C1168 C1170 1.353 . S
C1168 H1174 0.930 . S
N1169 Li1145 1.990 . S
N1169 C1168 1.314 . S
N1169 C1172 1.279 . S
C1170 C1168 1.353 . S
C1170 C1173 1.348 . S
C1170 H1218 0.929 . S
C1171 C1172 1.358 . S
C1171 C1173 1.356 . S
C1171 H1219 0.930 . S
C1172 N1169 1.279 . S
C1172 C1171 1.358 . S
C1172 H1175 0.930 . S
C1173 C1170 1.348 . S
C1173 C1171 1.356 . S
H1174 C1168 0.930 . S
H1175 C1172 0.930 . S
C1176 C1178 1.348 . S
C1176 C1179 1.356 . S
C1176 O1206 1.325 . S
N1177 C1180 1.314 . S
N1177 C1181 1.279 . S
C1178 C1176 1.348 . S
C1178 C1180 1.353 . S
C1178 H1220 0.929 . S
C1179 C1176 1.356 . S
C1179 C1181 1.358 . S
C1179 H1221 0.930 . S
C1180 N1177 1.314 . S
C1180 C1178 1.353 . S
C1180 H1222 0.930 . S
C1181 N1177 1.279 . S
C1181 C1179 1.358 . S
C1181 H1223 0.930 . S
C1182 C1183 1.348 . S
C1182 C1184 1.356 . S
C1182 O1207 1.325 . S
C1183 C1182 1.348 . S
C1183 C1185 1.353 . S
C1183 H1224 0.929 . S
C1184 C1182 1.356 . S
C1184 C1186 1.358 . S
C1184 H1225 0.930 . S
C1185 C1183 1.353 . S
C1185 N1187 1.314 . S
C1185 H1226 0.930 . S
C1186 C1184 1.358 . S
C1186 N1187 1.279 . S
C1186 H1227 0.930 . S
N1187 C1185 1.314 . S
N1187 C1186 1.279 . S
C1188 C1190 1.353 . S
C1188 N1191 1.314 . S
C1188 H1194 0.930 . S
C1189 N1191 1.279 . S
C1189 C1192 1.358 . S
C1189 H1195 0.930 . S
C1190 C1188 1.353 . S
C1190 C1193 1.348 . S
C1190 H1228 0.929 . S
N1191 Li1146 1.990 . S
N1191 C1188 1.314 . S
N1191 C1189 1.279 . S
C1192 C1189 1.358 . S
C1192 C1193 1.356 . S
C1192 H1229 0.930 . S
C1193 C1190 1.348 . S
C1193 C1192 1.356 . S
H1194 C1188 0.930 . S
H1195 C1189 0.930 . S
C1196 N1197 1.314 . S
C1196 C1198 1.353 . S
C1196 H1202 0.930 . S
N1197 Li1147 1.990 . S
N1197 C1196 1.314 . S
N1197 C1200 1.279 . S
C1198 C1196 1.353 . S
C1198 C1201 1.348 . S
C1198 H1230 0.929 . S
C1199 C1200 1.358 . S
C1199 C1201 1.356 . S
C1199 H1231 0.930 . S
C1200 N1197 1.279 . S
C1200 C1199 1.358 . S
C1200 H1203 0.930 . S
C1201 C1198 1.348 . S
C1201 C1199 1.356 . S
H1202 C1196 0.930 . S
H1203 C1200 0.930 . S
O1204 Li1144 1.982 . S
O1204 Li1145 1.970 . S
O1204 Li1146 1.961 . S
O1204 C1148 1.325 1_655 S
O1205 Li1144 2.038 . S
O1205 Li1145 1.956 . S
O1205 Li1147 1.961 . S
O1205 C1154 1.325 . S
O1206 Li1144 1.997 . S
O1206 Li1146 1.956 . S
O1206 Li1147 1.970 . S
O1206 C1176 1.325 . S
O1207 Li1145 1.961 . S
O1207 Li1146 1.970 . S
O1207 Li1147 1.956 . S
O1207 C1182 1.325 . S
H1208 C1150 0.929 . S
H1209 C1151 0.930 . S
H1210 C1152 0.930 . S
H1211 C1153 0.930 . S
H1212 C1155 0.930 . S
H1213 C1157 0.929 . S
H1214 C1158 0.930 . S
H1215 C1159 0.930 . S
H1216 C1162 0.930 . S
H1217 C1165 0.929 . S
H1218 C1170 0.929 . S
H1219 C1171 0.930 . S
H1220 C1178 0.929 . S
H1221 C1179 0.930 . S
H1222 C1180 0.930 . S
H1223 C1181 0.930 . S
H1224 C1183 0.929 . S
H1225 C1184 0.930 . S
H1226 C1185 0.930 . S
H1227 C1186 0.930 . S
H1228 C1190 0.929 . S
H1229 C1192 0.930 . S
H1230 C1198 0.929 . S
H1231 C1199 0.930 . S
Li1232 N1249 1.990 . S
Li1232 O1292 1.956 . S
Li1232 O1293 1.970 . S
Li1232 O1294 1.961 . S
Li1233 N1257 1.990 . S
Li1233 O1292 1.970 . S
Li1233 O1293 1.956 . S
Li1233 O1295 1.961 . S
Li1234 N1279 1.990 . S
Li1234 O1292 1.961 . S
Li1234 O1294 1.956 . S
Li1234 O1295 1.970 . S
Li1235 N1285 1.990 . S
Li1235 O1293 1.961 . S
Li1235 O1294 1.970 . S
Li1235 O1295 1.956 . S
C1236 C1238 1.348 . S
C1236 C1239 1.356 . S
C1236 O1292 1.325 . S
N1237 C1240 1.314 . S
N1237 C1241 1.279 . S
C1238 C1236 1.348 . S
C1238 C1240 1.353 . S
C1238 H1296 0.929 . S
C1239 C1236 1.356 . S
C1239 C1241 1.358 . S
C1239 H1297 0.930 . S
C1240 N1237 1.314 . S
C1240 C1238 1.353 . S
C1240 H1298 0.930 . S
C1241 N1237 1.279 . S
C1241 C1239 1.358 . S
C1241 H1299 0.930 . S
C1242 C1245 1.348 . S
C1242 C1246 1.356 . S
C1242 O1293 1.325 . S
C1243 N1244 1.279 . S
C1243 C1246 1.358 . S
C1243 H1300 0.930 . S
N1244 C1243 1.279 . S
N1244 C1247 1.314 . S
C1245 C1242 1.348 . S
C1245 C1247 1.353 . S
C1245 H1301 0.929 . S
C1246 C1242 1.356 . S
C1246 C1243 1.358 . S
C1246 H1302 0.930 . S
C1247 N1244 1.314 . S
C1247 C1245 1.353 . S
C1247 H1303 0.930 . S
C1248 N1249 1.314 . S
C1248 C1253 1.353 . S
C1248 H1254 0.930 . S
N1249 Li1232 1.990 . S
N1249 C1248 1.314 . S
N1249 C1251 1.279 . S
C1250 C1251 1.358 . S
C1250 C1252 1.356 . S
C1250 H1304 0.930 . S
C1251 N1249 1.279 . S
C1251 C1250 1.358 . S
C1251 H1255 0.930 . S
C1252 C1250 1.356 . S
C1252 C1253 1.348 . S
C1253 C1248 1.353 . S
C1253 C1252 1.348 . S
C1253 H1305 0.929 . S
H1254 C1248 0.930 . S
H1255 C1251 0.930 . S
C1256 N1257 1.314 . S
C1256 C1258 1.353 . S
C1256 H1262 0.930 . S
N1257 Li1233 1.990 . S
N1257 C1256 1.314 . S
N1257 C1260 1.279 . S
C1258 C1256 1.353 . S
C1258 C1261 1.348 . S
C1258 H1306 0.929 . S
C1259 C1260 1.358 . S
C1259 C1261 1.356 . S
C1259 H1307 0.930 . S
C1260 N1257 1.279 . S
C1260 C1259 1.358 . S
C1260 H1263 0.930 . S
C1261 C1258 1.348 . S
C1261 C1259 1.356 . S
H1262 C1256 0.930 . S
H1263 C1260 0.930 . S
C1264 C1266 1.348 . S
C1264 C1267 1.356 . S
C1264 O1294 1.325 . S
N1265 C1268 1.314 . S
N1265 C1269 1.279 . S
C1266 C1264 1.348 . S
C1266 C1268 1.353 . S
C1266 H1308 0.929 . S
C1267 C1264 1.356 . S
C1267 C1269 1.358 . S
C1267 H1309 0.930 . S
C1268 N1265 1.314 . S
C1268 C1266 1.353 . S
C1268 H1310 0.930 . S
C1269 N1265 1.279 . S
C1269 C1267 1.358 . S
C1269 H1311 0.930 . S
C1270 C1271 1.348 . S
C1270 C1272 1.356 . S
C1270 O1295 1.325 . S
C1271 C1270 1.348 . S
C1271 C1273 1.353 . S
C1271 H1312 0.929 . S
C1272 C1270 1.356 . S
C1272 C1274 1.358 . S
C1272 H1313 0.930 . S
C1273 C1271 1.353 . S
C1273 N1275 1.314 . S
C1273 H1314 0.930 . S
C1274 C1272 1.358 . S
C1274 N1275 1.279 . S
C1274 H1315 0.930 . S
N1275 C1273 1.314 . S
N1275 C1274 1.279 . S
C1276 C1278 1.353 . S
C1276 N1279 1.314 . S
C1276 H1282 0.930 . S
C1277 N1279 1.279 . S
C1277 C1280 1.358 . S
C1277 H1283 0.930 . S
C1278 C1276 1.353 . S
C1278 C1281 1.348 . S
C1278 H1316 0.929 . S
N1279 Li1234 1.990 . S
N1279 C1276 1.314 . S
N1279 C1277 1.279 . S
C1280 C1277 1.358 . S
C1280 C1281 1.356 . S
C1280 H1317 0.930 . S
C1281 C1278 1.348 . S
C1281 C1280 1.356 . S
H1282 C1276 0.930 . S
H1283 C1277 0.930 . S
C1284 N1285 1.314 . S
C1284 C1286 1.353 . S
C1284 H1290 0.930 . S
N1285 Li1235 1.990 . S
N1285 C1284 1.314 . S
N1285 C1288 1.279 . S
C1286 C1284 1.353 . S
C1286 C1289 1.348 . S
C1286 H1318 0.929 . S
C1287 C1288 1.358 . S
C1287 C1289 1.356 . S
C1287 H1319 0.930 . S
C1288 N1285 1.279 . S
C1288 C1287 1.358 . S
C1288 H1291 0.930 . S
C1289 C1286 1.348 . S
C1289 C1287 1.356 . S
H1290 C1284 0.930 . S
H1291 C1288 0.930 . S
O1292 Li1232 1.956 . S
O1292 Li1233 1.970 . S
O1292 Li1234 1.961 . S
O1292 C1236 1.325 . S
O1293 Li1232 1.970 . S
O1293 Li1233 1.956 . S
O1293 Li1235 1.961 . S
O1293 C1242 1.325 . S
O1294 Li1232 1.961 . S
O1294 Li1234 1.956 . S
O1294 Li1235 1.970 . S
O1294 C1264 1.325 . S
O1295 Li1233 1.961 . S
O1295 Li1234 1.970 . S
O1295 Li1235 1.956 . S
O1295 C1270 1.325 . S
H1296 C1238 0.929 . S
H1297 C1239 0.930 . S
H1298 C1240 0.930 . S
H1299 C1241 0.930 . S
H1300 C1243 0.930 . S
H1301 C1245 0.929 . S
H1302 C1246 0.930 . S
H1303 C1247 0.930 . S
H1304 C1250 0.930 . S
H1305 C1253 0.929 . S
H1306 C1258 0.929 . S
H1307 C1259 0.930 . S
H1308 C1266 0.929 . S
H1309 C1267 0.930 . S
H1310 C1268 0.930 . S
H1311 C1269 0.930 . S
H1312 C1271 0.929 . S
H1313 C1272 0.930 . S
H1314 C1273 0.930 . S
H1315 C1274 0.930 . S
H1316 C1278 0.929 . S
H1317 C1280 0.930 . S
H1318 C1286 0.929 . S
H1319 C1287 0.930 . S
Li1320 N1337 1.990 . S
Li1320 O1380 1.956 . S
Li1320 O1381 1.970 . S
Li1320 O1382 1.961 . S
Li1321 N1345 1.990 . S
Li1321 O1380 1.970 . S
Li1321 O1381 1.956 . S
Li1321 O1383 1.961 . S
Li1322 N1367 1.990 . S
Li1322 O1380 1.961 . S
Li1322 O1382 1.956 . S
Li1322 O1383 1.970 . S
Li1323 N1373 1.990 . S
Li1323 O1381 1.961 . S
Li1323 O1382 1.970 . S
Li1323 O1383 1.956 . S
C1324 C1326 1.348 . S
C1324 C1327 1.356 . S
C1324 O1380 1.325 . S
N1325 C1328 1.314 . S
N1325 C1329 1.279 . S
C1326 C1324 1.348 . S
C1326 C1328 1.353 . S
C1326 H1384 0.929 . S
C1327 C1324 1.356 . S
C1327 C1329 1.358 . S
C1327 H1385 0.930 . S
C1328 N1325 1.314 . S
C1328 C1326 1.353 . S
C1328 H1386 0.930 . S
C1329 N1325 1.279 . S
C1329 C1327 1.358 . S
C1329 H1387 0.930 . S
C1330 C1333 1.348 . S
C1330 C1334 1.356 . S
C1330 O1381 1.325 . S
C1331 N1332 1.279 . S
C1331 C1334 1.358 . S
C1331 H1388 0.930 . S
N1332 C1331 1.279 . S
N1332 C1335 1.314 . S
C1333 C1330 1.348 . S
C1333 C1335 1.353 . S
C1333 H1389 0.929 . S
C1334 C1330 1.356 . S
C1334 C1331 1.358 . S
C1334 H1390 0.930 . S
C1335 N1332 1.314 . S
C1335 C1333 1.353 . S
C1335 H1391 0.930 . S
C1336 N1337 1.314 . S
C1336 C1341 1.353 . S
C1336 H1342 0.930 . S
N1337 Li1320 1.990 . S
N1337 C1336 1.314 . S
N1337 C1339 1.279 . S
C1338 C1339 1.358 . S
C1338 C1340 1.356 . S
C1338 H1392 0.930 . S
C1339 N1337 1.279 . S
C1339 C1338 1.358 . S
C1339 H1343 0.930 . S
C1340 C1338 1.356 . S
C1340 C1341 1.348 . S
C1341 C1336 1.353 . S
C1341 C1340 1.348 . S
C1341 H1393 0.929 . S
H1342 C1336 0.930 . S
H1343 C1339 0.930 . S
C1344 N1345 1.314 . S
C1344 C1346 1.353 . S
C1344 H1350 0.930 . S
N1345 Li1321 1.990 . S
N1345 C1344 1.314 . S
N1345 C1348 1.279 . S
C1346 C1344 1.353 . S
C1346 C1349 1.348 . S
C1346 H1394 0.929 . S
C1347 C1348 1.358 . S
C1347 C1349 1.356 . S
C1347 H1395 0.930 . S
C1348 N1345 1.279 . S
C1348 C1347 1.358 . S
C1348 H1351 0.930 . S
C1349 C1346 1.348 . S
C1349 C1347 1.356 . S
H1350 C1344 0.930 . S
H1351 C1348 0.930 . S
C1352 C1354 1.348 . S
C1352 C1355 1.356 . S
C1352 O1382 1.325 . S
N1353 C1356 1.314 . S
N1353 C1357 1.279 . S
C1354 C1352 1.348 . S
C1354 C1356 1.353 . S
C1354 H1396 0.929 . S
C1355 C1352 1.356 . S
C1355 C1357 1.358 . S
C1355 H1397 0.930 . S
C1356 N1353 1.314 . S
C1356 C1354 1.353 . S
C1356 H1398 0.930 . S
C1357 N1353 1.279 . S
C1357 C1355 1.358 . S
C1357 H1399 0.930 . S
C1358 C1359 1.348 . S
C1358 C1360 1.356 . S
C1358 O1383 1.325 . S
C1359 C1358 1.348 . S
C1359 C1361 1.353 . S
C1359 H1400 0.929 . S
C1360 C1358 1.356 . S
C1360 C1362 1.358 . S
C1360 H1401 0.930 . S
C1361 C1359 1.353 . S
C1361 N1363 1.314 . S
C1361 H1402 0.930 . S
C1362 C1360 1.358 . S
C1362 N1363 1.279 . S
C1362 H1403 0.930 . S
N1363 C1361 1.314 . S
N1363 C1362 1.279 . S
C1364 C1366 1.353 . S
C1364 N1367 1.314 . S
C1364 H1370 0.930 . S
C1365 N1367 1.279 . S
C1365 C1368 1.358 . S
C1365 H1371 0.930 . S
C1366 C1364 1.353 . S
C1366 C1369 1.348 . S
C1366 H1404 0.929 . S
N1367 Li1322 1.990 . S
N1367 C1364 1.314 . S
N1367 C1365 1.279 . S
C1368 C1365 1.358 . S
C1368 C1369 1.356 . S
C1368 H1405 0.930 . S
C1369 C1366 1.348 . S
C1369 C1368 1.356 . S
H1370 C1364 0.930 . S
H1371 C1365 0.930 . S
C1372 N1373 1.314 . S
C1372 C1374 1.353 . S
C1372 H1378 0.930 . S
N1373 Li1323 1.990 . S
N1373 C1372 1.314 . S
N1373 C1376 1.279 . S
C1374 C1372 1.353 . S
C1374 C1377 1.348 . S
C1374 H1406 0.929 . S
C1375 C1376 1.358 . S
C1375 C1377 1.356 . S
C1375 H1407 0.930 . S
C1376 N1373 1.279 . S
C1376 C1375 1.358 . S
C1376 H1379 0.930 . S
C1377 C1374 1.348 . S
C1377 C1375 1.356 . S
H1378 C1372 0.930 . S
H1379 C1376 0.930 . S
O1380 Li1320 1.956 . S
O1380 Li1321 1.970 . S
O1380 Li1322 1.961 . S
O1380 C1324 1.325 . S
O1381 Li1320 1.970 . S
O1381 Li1321 1.956 . S
O1381 Li1323 1.961 . S
O1381 C1330 1.325 . S
O1382 Li1320 1.961 . S
O1382 Li1322 1.956 . S
O1382 Li1323 1.970 . S
O1382 C1352 1.325 . S
O1383 Li1321 1.961 . S
O1383 Li1322 1.970 . S
O1383 Li1323 1.956 . S
O1383 C1358 1.325 . S
H1384 C1326 0.929 . S
H1385 C1327 0.930 . S
H1386 C1328 0.930 . S
H1387 C1329 0.930 . S
H1388 C1331 0.930 . S
H1389 C1333 0.929 . S
H1390 C1334 0.930 . S
H1391 C1335 0.930 . S
H1392 C1338 0.930 . S
H1393 C1341 0.929 . S
H1394 C1346 0.929 . S
H1395 C1347 0.930 . S
H1396 C1354 0.929 . S
H1397 C1355 0.930 . S
H1398 C1356 0.930 . S
H1399 C1357 0.930 . S
H1400 C1359 0.929 . S
H1401 C1360 0.930 . S
H1402 C1361 0.930 . S
H1403 C1362 0.930 . S
H1404 C1366 0.929 . S
H1405 C1368 0.930 . S
H1406 C1374 0.929 . S
H1407 C1375 0.930 . S
Li1408 N1425 1.990 . S
Li1408 O1468 1.956 . S
Li1408 O1469 1.970 . S
Li1408 O1470 1.961 . S
Li1409 N1433 1.990 . S
Li1409 O1468 1.970 . S
Li1409 O1469 1.956 . S
Li1409 O1471 1.961 . S
Li1410 N1455 1.990 . S
Li1410 O1468 1.961 . S
Li1410 O1470 1.956 . S
Li1410 O1471 1.970 . S
Li1411 N1461 1.990 1_545 S
Li1411 O1469 1.961 . S
Li1411 O1470 1.970 . S
Li1411 O1471 1.956 . S
C1412 C1414 1.348 . S
C1412 C1415 1.356 . S
C1412 O1468 1.325 . S
N1413 C1416 1.314 . S
N1413 C1417 1.279 . S
C1414 C1412 1.348 . S
C1414 C1416 1.353 . S
C1414 H1472 0.929 . S
C1415 C1412 1.356 . S
C1415 C1417 1.358 . S
C1415 H1473 0.930 . S
C1416 N1413 1.314 . S
C1416 C1414 1.353 . S
C1416 H1474 0.930 . S
C1417 N1413 1.279 . S
C1417 C1415 1.358 . S
C1417 H1475 0.930 . S
C1418 C1421 1.348 . S
C1418 C1422 1.356 . S
C1418 O1469 1.325 1_565 S
C1419 N1420 1.279 . S
C1419 C1422 1.358 . S
C1419 H1476 0.930 . S
N1420 C1419 1.279 . S
N1420 C1423 1.314 . S
C1421 C1418 1.348 . S
C1421 C1423 1.353 . S
C1421 H1477 0.929 1_565 S
C1422 C1418 1.356 . S
C1422 C1419 1.358 . S
C1422 H1478 0.930 . S
C1423 N1420 1.314 . S
C1423 C1421 1.353 . S
C1423 H1479 0.930 . S
C1424 N1425 1.314 . S
C1424 C1429 1.353 . S
C1424 H1430 0.930 1_545 S
N1425 Li1408 1.990 . S
N1425 C1424 1.314 . S
N1425 C1427 1.279 . S
C1426 C1427 1.358 . S
C1426 C1428 1.356 . S
C1426 H1480 0.930 . S
C1427 N1425 1.279 . S
C1427 C1426 1.358 . S
C1427 H1431 0.930 . S
C1428 C1426 1.356 . S
C1428 C1429 1.348 . S
C1429 C1424 1.353 . S
C1429 C1428 1.348 . S
C1429 H1481 0.929 1_545 S
H1430 C1424 0.930 1_565 S
H1431 C1427 0.930 . S
C1432 N1433 1.314 . S
C1432 C1434 1.353 . S
C1432 H1438 0.930 . S
N1433 Li1409 1.990 . S
N1433 C1432 1.314 . S
N1433 C1436 1.279 . S
C1434 C1432 1.353 . S
C1434 C1437 1.348 . S
C1434 H1482 0.929 . S
C1435 C1436 1.358 . S
C1435 C1437 1.356 . S
C1435 H1483 0.930 . S
C1436 N1433 1.279 . S
C1436 C1435 1.358 . S
C1436 H1439 0.930 . S
C1437 C1434 1.348 . S
C1437 C1435 1.356 . S
H1438 C1432 0.930 . S
H1439 C1436 0.930 . S
C1440 C1442 1.348 1_545 S
C1440 C1443 1.356 . S
C1440 O1470 1.325 . S
N1441 C1444 1.283 1_545 S
N1441 C1445 1.307 . S
C1442 C1440 1.348 1_565 S
C1442 C1444 1.353 . S
C1442 H1484 0.929 . S
C1443 C1440 1.356 . S
C1443 C1445 1.358 . S
C1443 H1485 0.930 . S
C1444 N1441 1.283 1_565 S
C1444 C1442 1.353 . S
C1444 H1486 0.930 . S
C1445 N1441 1.307 . S
C1445 C1443 1.358 . S
C1445 H1487 0.930 . S
C1446 C1447 1.348 . S
C1446 C1448 1.356 . S
C1446 O1471 1.325 . S
C1447 C1446 1.348 . S
C1447 C1449 1.353 . S
C1447 H1488 0.929 . S
C1448 C1446 1.356 . S
C1448 C1450 1.358 . S
C1448 H1489 0.930 . S
C1449 C1447 1.353 . S
C1449 N1451 1.314 . S
C1449 H1490 0.930 . S
C1450 C1448 1.358 . S
C1450 N1451 1.279 . S
C1450 H1491 0.930 . S
N1451 C1449 1.314 . S
N1451 C1450 1.279 . S
C1452 C1454 1.353 . S
C1452 N1455 1.314 . S
C1452 H1458 0.930 . S
C1453 N1455 1.279 . S
C1453 C1456 1.358 . S
C1453 H1459 0.930 . S
C1454 C1452 1.353 . S
C1454 C1457 1.348 . S
C1454 H1492 0.929 . S
N1455 Li1410 1.990 . S
N1455 C1452 1.314 . S
N1455 C1453 1.279 . S
C1456 C1453 1.358 . S
C1456 C1457 1.356 . S
C1456 H1493 0.930 . S
C1457 C1454 1.348 . S
C1457 C1456 1.356 . S
H1458 C1452 0.930 . S
H1459 C1453 0.930 . S
C1460 N1461 1.314 . S
C1460 C1462 1.353 . S
C1460 H1466 0.930 . S
N1461 Li1411 1.990 1_565 S
N1461 C1460 1.314 . S
N1461 C1464 1.279 . S
C1462 C1460 1.353 . S
C1462 C1465 1.348 . S
C1462 H1494 0.929 . S
C1463 C1464 1.358 . S
C1463 C1465 1.356 . S
C1463 H1495 0.930 . S
C1464 N1461 1.279 . S
C1464 C1463 1.358 . S
C1464 H1467 0.930 . S
C1465 C1462 1.348 . S
C1465 C1463 1.356 . S
H1466 C1460 0.930 . S
H1467 C1464 0.930 . S
O1468 Li1408 1.956 . S
O1468 Li1409 1.970 . S
O1468 Li1410 1.961 . S
O1468 C1412 1.325 . S
O1469 Li1408 1.970 . S
O1469 Li1409 1.956 . S
O1469 Li1411 1.961 . S
O1469 C1418 1.325 1_545 S
O1470 Li1408 1.961 . S
O1470 Li1410 1.956 . S
O1470 Li1411 1.970 . S
O1470 C1440 1.325 . S
O1471 Li1409 1.961 . S
O1471 Li1410 1.970 . S
O1471 Li1411 1.956 . S
O1471 C1446 1.325 . S
H1472 C1414 0.929 . S
H1473 C1415 0.930 . S
H1474 C1416 0.930 . S
H1475 C1417 0.930 . S
H1476 C1419 0.930 . S
H1477 C1421 0.929 1_545 S
H1478 C1422 0.930 . S
H1479 C1423 0.930 . S
H1480 C1426 0.930 . S
H1481 C1429 0.929 1_565 S
H1482 C1434 0.929 . S
H1483 C1435 0.930 . S
H1484 C1442 0.929 . S
H1485 C1443 0.930 . S
H1486 C1444 0.930 . S
H1487 C1445 0.930 . S
H1488 C1447 0.929 . S
H1489 C1448 0.930 . S
H1490 C1449 0.930 . S
H1491 C1450 0.930 . S
H1492 C1454 0.929 . S
H1493 C1456 0.930 . S
H1494 C1462 0.929 . S
H1495 C1463 0.930 . S
Li1496 N1513 1.990 . S
Li1496 O1556 1.956 . S
Li1496 O1557 1.970 . S
Li1496 O1558 1.961 . S
Li1497 N1521 1.990 . S
Li1497 O1556 1.970 . S
Li1497 O1557 1.956 . S
Li1497 O1559 1.961 . S
Li1498 N1543 1.990 1_655 S
Li1498 O1556 1.961 . S
Li1498 O1558 1.956 . S
Li1498 O1559 1.970 . S
Li1499 N1549 1.990 . S
Li1499 O1557 1.961 . S
Li1499 O1558 1.970 . S
Li1499 O1559 1.956 . S
C1500 C1502 1.348 . S
C1500 C1503 1.356 . S
C1500 O1556 1.325 1_455 S
N1501 C1504 1.314 . S
N1501 C1505 1.279 . S
C1502 C1500 1.348 . S
C1502 C1504 1.353 . S
C1502 H1560 0.929 1_455 S
C1503 C1500 1.356 . S
C1503 C1505 1.358 . S
C1503 H1561 0.930 . S
C1504 N1501 1.314 . S
C1504 C1502 1.353 . S
C1504 H1562 0.930 . S
C1505 N1501 1.279 . S
C1505 C1503 1.358 . S
C1505 H1563 0.930 . S
C1506 C1509 1.348 . S
C1506 C1510 1.356 . S
C1506 O1557 1.325 . S
C1507 N1508 1.279 . S
C1507 C1510 1.358 . S
C1507 H1564 0.930 . S
N1508 C1507 1.279 . S
N1508 C1511 1.314 . S
C1509 C1506 1.348 . S
C1509 C1511 1.353 . S
C1509 H1565 0.929 . S
C1510 C1506 1.356 . S
C1510 C1507 1.358 . S
C1510 H1566 0.930 . S
C1511 N1508 1.314 . S
C1511 C1509 1.353 . S
C1511 H1567 0.930 . S
C1512 N1513 1.314 . S
C1512 C1517 1.353 . S
C1512 H1518 0.930 . S
N1513 Li1496 1.990 . S
N1513 C1512 1.314 . S
N1513 C1515 1.279 . S
C1514 C1515 1.358 . S
C1514 C1516 1.356 . S
C1514 H1568 0.930 . S
C1515 N1513 1.279 . S
C1515 C1514 1.358 . S
C1515 H1519 0.930 . S
C1516 C1514 1.356 . S
C1516 C1517 1.348 . S
C1517 C1512 1.353 . S
C1517 C1516 1.348 . S
C1517 H1569 0.929 . S
H1518 C1512 0.930 . S
H1519 C1515 0.930 . S
C1520 N1521 1.314 . S
C1520 C1522 1.353 . S
C1520 H1526 0.896 1_655 S
N1521 Li1497 1.990 . S
N1521 C1520 1.314 . S
N1521 C1524 1.279 . S
C1522 C1520 1.353 . S
C1522 C1525 1.348 . S
C1522 H1570 0.929 1_655 S
C1523 C1524 1.358 . S
C1523 C1525 1.356 . S
C1523 H1571 0.930 . S
C1524 N1521 1.279 . S
C1524 C1523 1.358 . S
C1524 H1527 0.930 . S
C1525 C1522 1.348 . S
C1525 C1523 1.356 . S
H1526 C1520 0.896 1_455 S
H1527 C1524 0.930 . S
C1528 C1530 1.348 . S
C1528 C1531 1.356 . S
C1528 O1558 1.325 . S
N1529 C1532 1.314 . S
N1529 C1533 1.279 . S
C1530 C1528 1.348 . S
C1530 C1532 1.353 . S
C1530 H1572 0.929 . S
C1531 C1528 1.356 . S
C1531 C1533 1.358 . S
C1531 H1573 0.930 . S
C1532 N1529 1.314 . S
C1532 C1530 1.353 . S
C1532 H1574 0.930 . S
C1533 N1529 1.279 . S
C1533 C1531 1.358 . S
C1533 H1575 0.930 . S
C1534 C1535 1.348 1_655 S
C1534 C1536 1.356 . S
C1534 O1559 1.325 . S
C1535 C1534 1.348 1_455 S
C1535 C1537 1.353 . S
C1535 H1576 0.929 . S
C1536 C1534 1.356 . S
C1536 C1538 1.358 . S
C1536 H1577 0.930 . S
C1537 C1535 1.353 . S
C1537 N1539 1.322 1_455 S
C1537 H1578 0.930 . S
C1538 C1536 1.358 . S
C1538 N1539 1.319 . S
C1538 H1579 0.930 . S
N1539 C1537 1.322 1_655 S
N1539 C1538 1.319 . S
C1540 C1542 1.353 . S
C1540 N1543 1.314 . S
C1540 H1546 0.930 . S
C1541 N1543 1.279 . S
C1541 C1544 1.358 . S
C1541 H1547 0.930 . S
C1542 C1540 1.353 . S
C1542 C1545 1.348 . S
C1542 H1580 0.929 . S
N1543 Li1498 1.990 1_455 S
N1543 C1540 1.314 . S
N1543 C1541 1.279 . S
C1544 C1541 1.358 . S
C1544 C1545 1.356 . S
C1544 H1581 0.930 . S
C1545 C1542 1.348 . S
C1545 C1544 1.356 . S
H1546 C1540 0.930 . S
H1547 C1541 0.930 . S
C1548 N1549 1.314 . S
C1548 C1550 1.353 . S
C1548 H1554 0.930 . S
N1549 Li1499 1.990 . S
N1549 C1548 1.314 . S
N1549 C1552 1.279 . S
C1550 C1548 1.353 . S
C1550 C1553 1.348 . S
C1550 H1582 0.929 . S
C1551 C1552 1.358 . S
C1551 C1553 1.356 . S
C1551 H1583 0.930 . S
C1552 N1549 1.279 . S
C1552 C1551 1.358 . S
C1552 H1555 0.930 . S
C1553 C1550 1.348 . S
C1553 C1551 1.356 . S
H1554 C1548 0.930 . S
H1555 C1552 0.930 . S
O1556 Li1496 1.956 . S
O1556 Li1497 1.970 . S
O1556 Li1498 1.961 . S
O1556 C1500 1.325 1_655 S
O1557 Li1496 1.970 . S
O1557 Li1497 1.956 . S
O1557 Li1499 1.961 . S
O1557 C1506 1.325 . S
O1558 Li1496 1.961 . S
O1558 Li1498 1.956 . S
O1558 Li1499 1.970 . S
O1558 C1528 1.325 . S
O1559 Li1497 1.961 . S
O1559 Li1498 1.970 . S
O1559 Li1499 1.956 . S
O1559 C1534 1.325 . S
H1560 C1502 0.929 1_655 S
H1561 C1503 0.930 . S
H1562 C1504 0.930 . S
H1563 C1505 0.930 . S
H1564 C1507 0.930 . S
H1565 C1509 0.929 . S
H1566 C1510 0.930 . S
H1567 C1511 0.930 . S
H1568 C1514 0.930 . S
H1569 C1517 0.929 . S
H1570 C1522 0.929 1_455 S
H1571 C1523 0.930 . S
H1572 C1530 0.929 . S
H1573 C1531 0.930 . S
H1574 C1532 0.930 . S
H1575 C1533 0.930 . S
H1576 C1535 0.929 . S
H1577 C1536 0.930 . S
H1578 C1537 0.930 . S
H1579 C1538 0.930 . S
H1580 C1542 0.929 . S
H1581 C1544 0.930 . S
H1582 C1550 0.929 . S
H1583 C1551 0.930 . S
C1584 C1585 1.384 . S
C1584 C1586 1.384 . S
C1584 H1612 0.931 . S
C1585 C1584 1.384 . S
C1585 C1588 1.382 . S
C1586 C1584 1.384 . S
C1586 C1587 1.381 . S
C1586 H1613 0.930 . S
C1587 C1586 1.381 . S
C1587 C1589 1.381 . S
C1587 C1590 1.487 . S
C1588 C1585 1.382 . S
C1588 C1589 1.387 . S
C1588 H1614 0.930 . S
C1589 C1587 1.381 . S
C1589 C1588 1.387 . S
C1589 H1615 0.931 . S
C1590 C1587 1.487 . S
C1590 C1597 1.399 . S
C1590 N1628 1.343 . S
C1591 C1592 1.384 . S
C1591 C1593 1.384 . S
C1591 H1616 0.931 . S
C1592 C1591 1.384 . S
C1592 C1595 1.382 . S
C1593 C1591 1.384 . S
C1593 C1594 1.381 . S
C1593 H1617 0.930 . S
C1594 C1593 1.381 . S
C1594 C1596 1.381 . S
C1594 C1597 1.487 . S
C1595 C1592 1.382 . S
C1595 C1596 1.387 . S
C1595 H1618 0.930 . S
C1596 C1594 1.381 . S
C1596 C1595 1.387 . S
C1596 H1619 0.931 . S
C1597 C1590 1.399 . S
C1597 C1594 1.487 . S
C1597 N1629 1.343 . S
C1598 C1599 1.384 . S
C1598 C1600 1.384 . S
C1598 H1620 0.931 . S
C1599 C1598 1.384 . S
C1599 C1602 1.382 . S
C1600 C1598 1.384 . S
C1600 C1601 1.381 . S
C1600 H1621 0.930 . S
C1601 C1600 1.381 . S
C1601 C1603 1.381 . S
C1601 C1604 1.487 . S
C1602 C1599 1.382 . S
C1602 C1603 1.387 . S
C1602 H1622 0.930 . S
C1603 C1601 1.381 . S
C1603 C1602 1.387 . S
C1603 H1623 0.931 . S
C1604 C1601 1.487 . S
C1604 C1611 1.399 . S
C1604 N1629 1.343 . S
C1605 C1606 1.384 . S
C1605 C1607 1.384 . S
C1605 H1624 0.931 . S
C1606 C1605 1.384 . S
C1606 C1609 1.382 . S
C1607 C1605 1.384 . S
C1607 C1608 1.381 . S
C1607 H1625 0.930 . S
C1608 C1607 1.381 . S
C1608 C1610 1.381 . S
C1608 C1611 1.487 . S
C1609 C1606 1.382 . S
C1609 C1610 1.387 . S
C1609 H1626 0.930 . S
C1610 C1608 1.381 . S
C1610 C1609 1.387 . S
C1610 H1627 0.931 . S
C1611 C1604 1.399 . S
C1611 C1608 1.487 . S
C1611 N1628 1.343 . S
H1612 C1584 0.931 . S
H1613 C1586 0.930 . S
H1614 C1588 0.930 . S
H1615 C1589 0.931 . S
H1616 C1591 0.931 . S
H1617 C1593 0.930 . S
H1618 C1595 0.930 . S
H1619 C1596 0.931 . S
H1620 C1598 0.931 . S
H1621 C1600 0.930 . S
H1622 C1602 0.930 . S
H1623 C1603 0.931 . S
H1624 C1605 0.931 . S
H1625 C1607 0.930 . S
H1626 C1609 0.930 . S
H1627 C1610 0.931 . S
N1628 C1590 1.343 . S
N1628 C1611 1.343 . S
N1629 C1597 1.343 . S
N1629 C1604 1.343 . S
C1630 C1631 1.384 . S
C1630 C1632 1.384 . S
C1630 H1658 0.931 . S
C1631 C1630 1.384 . S
C1631 C1634 1.382 . S
C1632 C1630 1.384 . S
C1632 C1633 1.381 . S
C1632 H1659 0.930 . S
C1633 C1632 1.381 . S
C1633 C1635 1.381 . S
C1633 C1636 1.487 . S
C1634 C1631 1.382 . S
C1634 C1635 1.387 . S
C1634 H1660 0.930 . S
C1635 C1633 1.381 . S
C1635 C1634 1.387 . S
C1635 H1661 0.931 . S
C1636 C1633 1.487 . S
C1636 C1643 1.399 . S
C1636 N1674 1.343 . S
C1637 C1638 1.384 . S
C1637 C1639 1.384 . S
C1637 H1662 0.931 . S
C1638 C1637 1.384 . S
C1638 C1641 1.382 . S
C1639 C1637 1.384 . S
C1639 C1640 1.381 . S
C1639 H1663 0.930 . S
C1640 C1639 1.381 . S
C1640 C1642 1.381 . S
C1640 C1643 1.487 . S
C1641 C1638 1.382 . S
C1641 C1642 1.387 . S
C1641 H1664 0.930 . S
C1642 C1640 1.381 . S
C1642 C1641 1.387 . S
C1642 H1665 0.931 . S
C1643 C1636 1.399 . S
C1643 C1640 1.487 . S
C1643 N1675 1.343 . S
C1644 C1645 1.384 . S
C1644 C1646 1.384 . S
C1644 H1666 0.931 . S
C1645 C1644 1.384 . S
C1645 C1648 1.382 . S
C1646 C1644 1.384 . S
C1646 C1647 1.381 . S
C1646 H1667 0.930 . S
C1647 C1646 1.381 . S
C1647 C1649 1.381 . S
C1647 C1650 1.487 . S
C1648 C1645 1.382 . S
C1648 C1649 1.387 . S
C1648 H1668 0.930 . S
C1649 C1647 1.381 . S
C1649 C1648 1.387 . S
C1649 H1669 0.931 . S
C1650 C1647 1.487 . S
C1650 C1657 1.399 . S
C1650 N1675 1.343 . S
C1651 C1652 1.384 . S
C1651 C1653 1.384 . S
C1651 H1670 0.931 . S
C1652 C1651 1.384 . S
C1652 C1655 1.382 . S
C1653 C1651 1.384 . S
C1653 C1654 1.381 . S
C1653 H1671 0.930 . S
C1654 C1653 1.381 . S
C1654 C1656 1.381 . S
C1654 C1657 1.487 . S
C1655 C1652 1.382 . S
C1655 C1656 1.387 . S
C1655 H1672 0.930 . S
C1656 C1654 1.381 . S
C1656 C1655 1.387 . S
C1656 H1673 0.931 . S
C1657 C1650 1.399 . S
C1657 C1654 1.487 . S
C1657 N1674 1.343 . S
H1658 C1630 0.931 . S
H1659 C1632 0.930 . S
H1660 C1634 0.930 . S
H1661 C1635 0.931 . S
H1662 C1637 0.931 . S
H1663 C1639 0.930 . S
H1664 C1641 0.930 . S
H1665 C1642 0.931 . S
H1666 C1644 0.931 . S
H1667 C1646 0.930 . S
H1668 C1648 0.930 . S
H1669 C1649 0.931 . S
H1670 C1651 0.931 . S
H1671 C1653 0.930 . S
H1672 C1655 0.930 . S
H1673 C1656 0.931 . S
N1674 C1636 1.343 . S
N1674 C1657 1.343 . S
N1675 C1643 1.343 . S
N1675 C1650 1.343 . S
C1676 C1677 1.384 . S
C1676 C1678 1.384 . S
C1676 H1704 0.931 . S
C1677 C1676 1.384 . S
C1677 C1680 1.382 . S
C1678 C1676 1.384 . S
C1678 C1679 1.381 . S
C1678 H1705 0.930 . S
C1679 C1678 1.381 . S
C1679 C1681 1.381 . S
C1679 C1682 1.487 . S
C1680 C1677 1.382 . S
C1680 C1681 1.387 . S
C1680 H1706 0.930 . S
C1681 C1679 1.381 . S
C1681 C1680 1.387 . S
C1681 H1707 0.931 . S
C1682 C1679 1.487 . S
C1682 C1689 1.399 . S
C1682 N1720 1.343 . S
C1683 C1684 1.384 . S
C1683 C1685 1.384 . S
C1683 H1708 0.931 . S
C1684 C1683 1.384 . S
C1684 C1687 1.382 . S
C1685 C1683 1.384 . S
C1685 C1686 1.381 . S
C1685 H1709 0.930 . S
C1686 C1685 1.381 . S
C1686 C1688 1.381 . S
C1686 C1689 1.487 . S
C1687 C1684 1.382 . S
C1687 C1688 1.387 . S
C1687 H1710 0.930 . S
C1688 C1686 1.381 . S
C1688 C1687 1.387 . S
C1688 H1711 0.931 . S
C1689 C1682 1.399 . S
C1689 C1686 1.487 . S
C1689 N1721 1.343 . S
C1690 C1691 1.384 . S
C1690 C1692 1.384 . S
C1690 H1712 0.931 . S
C1691 C1690 1.384 . S
C1691 C1694 1.382 . S
C1692 C1690 1.384 . S
C1692 C1693 1.381 . S
C1692 H1713 0.930 . S
C1693 C1692 1.381 . S
C1693 C1695 1.381 . S
C1693 C1696 1.487 . S
C1694 C1691 1.382 . S
C1694 C1695 1.387 . S
C1694 H1714 0.930 . S
C1695 C1693 1.381 . S
C1695 C1694 1.387 . S
C1695 H1715 0.931 . S
C1696 C1693 1.487 . S
C1696 C1703 1.399 . S
C1696 N1721 1.343 . S
C1697 C1698 1.384 . S
C1697 C1699 1.384 . S
C1697 H1716 0.931 . S
C1698 C1697 1.384 . S
C1698 C1701 1.382 . S
C1699 C1697 1.384 . S
C1699 C1700 1.381 . S
C1699 H1717 0.930 . S
C1700 C1699 1.381 . S
C1700 C1702 1.381 . S
C1700 C1703 1.487 . S
C1701 C1698 1.382 . S
C1701 C1702 1.387 . S
C1701 H1718 0.930 . S
C1702 C1700 1.381 . S
C1702 C1701 1.387 . S
C1702 H1719 0.931 . S
C1703 C1696 1.399 . S
C1703 C1700 1.487 . S
C1703 N1720 1.343 . S
H1704 C1676 0.931 . S
H1705 C1678 0.930 . S
H1706 C1680 0.930 . S
H1707 C1681 0.931 . S
H1708 C1683 0.931 . S
H1709 C1685 0.930 . S
H1710 C1687 0.930 . S
H1711 C1688 0.931 . S
H1712 C1690 0.931 . S
H1713 C1692 0.930 . S
H1714 C1694 0.930 . S
H1715 C1695 0.931 . S
H1716 C1697 0.931 . S
H1717 C1699 0.930 . S
H1718 C1701 0.930 . S
H1719 C1702 0.931 . S
N1720 C1682 1.343 . S
N1720 C1703 1.343 . S
N1721 C1689 1.343 . S
N1721 C1696 1.343 . S
C1722 C1723 1.384 . S
C1722 C1724 1.384 . S
C1722 H1750 0.931 . S
C1723 C1722 1.384 . S
C1723 C1726 1.382 . S
C1724 C1722 1.384 . S
C1724 C1725 1.381 . S
C1724 H1751 0.930 . S
C1725 C1724 1.381 . S
C1725 C1727 1.381 . S
C1725 C1728 1.487 . S
C1726 C1723 1.382 . S
C1726 C1727 1.387 . S
C1726 H1752 0.930 . S
C1727 C1725 1.381 . S
C1727 C1726 1.387 . S
C1727 H1753 0.931 . S
C1728 C1725 1.487 . S
C1728 C1735 1.399 . S
C1728 N1766 1.343 . S
C1729 C1730 1.384 . S
C1729 C1731 1.384 . S
C1729 H1754 0.931 . S
C1730 C1729 1.384 . S
C1730 C1733 1.382 . S
C1731 C1729 1.384 . S
C1731 C1732 1.381 . S
C1731 H1755 0.930 . S
C1732 C1731 1.381 . S
C1732 C1734 1.381 . S
C1732 C1735 1.487 . S
C1733 C1730 1.382 . S
C1733 C1734 1.387 . S
C1733 H1756 0.930 . S
C1734 C1732 1.381 . S
C1734 C1733 1.387 . S
C1734 H1757 0.931 . S
C1735 C1728 1.399 . S
C1735 C1732 1.487 . S
C1735 N1767 1.343 . S
C1736 C1737 1.384 . S
C1736 C1738 1.384 . S
C1736 H1758 0.931 . S
C1737 C1736 1.384 . S
C1737 C1740 1.382 . S
C1738 C1736 1.384 . S
C1738 C1739 1.381 . S
C1738 H1759 0.930 . S
C1739 C1738 1.381 . S
C1739 C1741 1.381 . S
C1739 C1742 1.487 . S
C1740 C1737 1.382 . S
C1740 C1741 1.387 . S
C1740 H1760 0.930 . S
C1741 C1739 1.381 . S
C1741 C1740 1.387 . S
C1741 H1761 0.931 . S
C1742 C1739 1.487 . S
C1742 C1749 1.399 . S
C1742 N1767 1.343 . S
C1743 C1744 1.384 . S
C1743 C1745 1.384 . S
C1743 H1762 0.931 . S
C1744 C1743 1.384 . S
C1744 C1747 1.382 . S
C1745 C1743 1.384 . S
C1745 C1746 1.381 . S
C1745 H1763 0.930 . S
C1746 C1745 1.381 . S
C1746 C1748 1.381 . S
C1746 C1749 1.487 . S
C1747 C1744 1.382 . S
C1747 C1748 1.387 . S
C1747 H1764 0.930 . S
C1748 C1746 1.381 . S
C1748 C1747 1.387 . S
C1748 H1765 0.931 . S
C1749 C1742 1.399 . S
C1749 C1746 1.487 . S
C1749 N1766 1.343 . S
H1750 C1722 0.931 . S
H1751 C1724 0.930 . S
H1752 C1726 0.930 . S
H1753 C1727 0.931 . S
H1754 C1729 0.931 . S
H1755 C1731 0.930 . S
H1756 C1733 0.930 . S
H1757 C1734 0.931 . S
H1758 C1736 0.931 . S
H1759 C1738 0.930 . S
H1760 C1740 0.930 . S
H1761 C1741 0.931 . S
H1762 C1743 0.931 . S
H1763 C1745 0.930 . S
H1764 C1747 0.930 . S
H1765 C1748 0.931 . S
N1766 C1728 1.343 . S
N1766 C1749 1.343 . S
N1767 C1735 1.343 . S
N1767 C1742 1.343 . S
C1768 C1769 1.384 . S
C1768 C1770 1.384 . S
C1768 H1796 0.931 . S
C1769 C1768 1.384 . S
C1769 C1772 1.382 . S
C1770 C1768 1.384 . S
C1770 C1771 1.381 . S
C1770 H1797 0.930 . S
C1771 C1770 1.381 . S
C1771 C1773 1.381 . S
C1771 C1774 1.487 . S
C1772 C1769 1.382 . S
C1772 C1773 1.387 . S
C1772 H1798 0.930 . S
C1773 C1771 1.381 . S
C1773 C1772 1.387 . S
C1773 H1799 0.931 . S
C1774 C1771 1.487 . S
C1774 C1781 1.399 . S
C1774 N1812 1.343 . S
C1775 C1776 1.384 . S
C1775 C1777 1.384 . S
C1775 H1800 0.931 . S
C1776 C1775 1.384 . S
C1776 C1779 1.382 . S
C1777 C1775 1.384 . S
C1777 C1778 1.381 . S
C1777 H1801 0.930 . S
C1778 C1777 1.381 . S
C1778 C1780 1.381 . S
C1778 C1781 1.487 . S
C1779 C1776 1.382 . S
C1779 C1780 1.387 . S
C1779 H1802 0.930 . S
C1780 C1778 1.381 . S
C1780 C1779 1.387 . S
C1780 H1803 0.931 . S
C1781 C1774 1.399 . S
C1781 C1778 1.487 . S
C1781 N1813 1.343 . S
C1782 C1783 1.384 . S
C1782 C1784 1.384 . S
C1782 H1804 0.931 . S
C1783 C1782 1.384 . S
C1783 C1786 1.382 . S
C1784 C1782 1.384 . S
C1784 C1785 1.381 . S
C1784 H1805 0.930 . S
C1785 C1784 1.381 . S
C1785 C1787 1.381 . S
C1785 C1788 1.487 . S
C1786 C1783 1.382 . S
C1786 C1787 1.387 . S
C1786 H1806 0.930 . S
C1787 C1785 1.381 . S
C1787 C1786 1.387 . S
C1787 H1807 0.931 . S
C1788 C1785 1.487 . S
C1788 C1795 1.399 . S
C1788 N1813 1.343 . S
C1789 C1790 1.384 . S
C1789 C1791 1.384 . S
C1789 H1808 0.931 . S
C1790 C1789 1.384 . S
C1790 C1793 1.382 . S
C1791 C1789 1.384 . S
C1791 C1792 1.381 . S
C1791 H1809 0.930 . S
C1792 C1791 1.381 . S
C1792 C1794 1.381 . S
C1792 C1795 1.487 . S
C1793 C1790 1.382 . S
C1793 C1794 1.387 . S
C1793 H1810 0.930 . S
C1794 C1792 1.381 . S
C1794 C1793 1.387 . S
C1794 H1811 0.931 . S
C1795 C1788 1.399 . S
C1795 C1792 1.487 . S
C1795 N1812 1.343 . S
H1796 C1768 0.931 . S
H1797 C1770 0.930 . S
H1798 C1772 0.930 . S
H1799 C1773 0.931 . S
H1800 C1775 0.931 . S
H1801 C1777 0.930 . S
H1802 C1779 0.930 . S
H1803 C1780 0.931 . S
H1804 C1782 0.931 . S
H1805 C1784 0.930 . S
H1806 C1786 0.930 . S
H1807 C1787 0.931 . S
H1808 C1789 0.931 . S
H1809 C1791 0.930 . S
H1810 C1793 0.930 . S
H1811 C1794 0.931 . S
N1812 C1774 1.343 . S
N1812 C1795 1.343 . S
N1813 C1781 1.343 . S
N1813 C1788 1.343 . S
C1814 C1815 1.384 . S
C1814 C1816 1.384 . S
C1814 H1842 0.931 . S
C1815 C1814 1.384 . S
C1815 C1818 1.382 . S
C1816 C1814 1.384 . S
C1816 C1817 1.381 . S
C1816 H1843 0.930 . S
C1817 C1816 1.381 . S
C1817 C1819 1.381 . S
C1817 C1820 1.487 . S
C1818 C1815 1.382 . S
C1818 C1819 1.387 . S
C1818 H1844 0.930 . S
C1819 C1817 1.381 . S
C1819 C1818 1.387 . S
C1819 H1845 0.931 . S
C1820 C1817 1.487 . S
C1820 C1827 1.399 . S
C1820 N1858 1.343 . S
C1821 C1822 1.384 . S
C1821 C1823 1.384 . S
C1821 H1846 0.931 . S
C1822 C1821 1.384 . S
C1822 C1825 1.382 . S
C1823 C1821 1.384 . S
C1823 C1824 1.381 . S
C1823 H1847 0.930 . S
C1824 C1823 1.381 . S
C1824 C1826 1.381 . S
C1824 C1827 1.487 . S
C1825 C1822 1.382 . S
C1825 C1826 1.387 . S
C1825 H1848 0.930 . S
C1826 C1824 1.381 . S
C1826 C1825 1.387 . S
C1826 H1849 0.931 . S
C1827 C1820 1.399 . S
C1827 C1824 1.487 . S
C1827 N1859 1.343 . S
C1828 C1829 1.384 . S
C1828 C1830 1.384 . S
C1828 H1850 0.931 . S
C1829 C1828 1.384 . S
C1829 C1832 1.382 . S
C1830 C1828 1.384 . S
C1830 C1831 1.381 . S
C1830 H1851 0.930 . S
C1831 C1830 1.381 . S
C1831 C1833 1.381 . S
C1831 C1834 1.487 . S
C1832 C1829 1.382 . S
C1832 C1833 1.387 . S
C1832 H1852 0.930 . S
C1833 C1831 1.381 . S
C1833 C1832 1.387 . S
C1833 H1853 0.931 . S
C1834 C1831 1.487 . S
C1834 C1841 1.399 . S
C1834 N1859 1.343 . S
C1835 C1836 1.384 . S
C1835 C1837 1.384 . S
C1835 H1854 0.931 . S
C1836 C1835 1.384 . S
C1836 C1839 1.382 . S
C1837 C1835 1.384 . S
C1837 C1838 1.381 . S
C1837 H1855 0.930 . S
C1838 C1837 1.381 . S
C1838 C1840 1.381 . S
C1838 C1841 1.487 . S
C1839 C1836 1.382 . S
C1839 C1840 1.387 . S
C1839 H1856 0.930 . S
C1840 C1838 1.381 . S
C1840 C1839 1.387 . S
C1840 H1857 0.931 . S
C1841 C1834 1.399 . S
C1841 C1838 1.487 . S
C1841 N1858 1.343 . S
H1842 C1814 0.931 . S
H1843 C1816 0.930 . S
H1844 C1818 0.930 . S
H1845 C1819 0.931 . S
H1846 C1821 0.931 . S
H1847 C1823 0.930 . S
H1848 C1825 0.930 . S
H1849 C1826 0.931 . S
H1850 C1828 0.931 . S
H1851 C1830 0.930 . S
H1852 C1832 0.930 . S
H1853 C1833 0.931 . S
H1854 C1835 0.931 . S
H1855 C1837 0.930 . S
H1856 C1839 0.930 . S
H1857 C1840 0.931 . S
N1858 C1820 1.343 . S
N1858 C1841 1.343 . S
N1859 C1827 1.343 . S
N1859 C1834 1.343 . S
C1860 C1861 1.384 . S
C1860 C1862 1.384 . S
C1860 H1888 0.931 . S
C1861 C1860 1.384 . S
C1861 C1864 1.382 . S
C1862 C1860 1.384 . S
C1862 C1863 1.381 . S
C1862 H1889 0.930 . S
C1863 C1862 1.381 . S
C1863 C1865 1.381 . S
C1863 C1866 1.487 . S
C1864 C1861 1.382 . S
C1864 C1865 1.387 . S
C1864 H1890 0.930 . S
C1865 C1863 1.381 . S
C1865 C1864 1.387 . S
C1865 H1891 0.931 . S
C1866 C1863 1.487 . S
C1866 C1873 1.399 . S
C1866 N1904 1.343 . S
C1867 C1868 1.384 . S
C1867 C1869 1.384 . S
C1867 H1892 0.931 . S
C1868 C1867 1.384 . S
C1868 C1871 1.382 . S
C1869 C1867 1.384 . S
C1869 C1870 1.381 . S
C1869 H1893 0.930 . S
C1870 C1869 1.381 . S
C1870 C1872 1.381 . S
C1870 C1873 1.487 . S
C1871 C1868 1.382 . S
C1871 C1872 1.387 . S
C1871 H1894 0.930 . S
C1872 C1870 1.381 . S
C1872 C1871 1.387 . S
C1872 H1895 0.931 . S
C1873 C1866 1.399 . S
C1873 C1870 1.487 . S
C1873 N1905 1.343 . S
C1874 C1875 1.384 . S
C1874 C1876 1.384 . S
C1874 H1896 0.931 . S
C1875 C1874 1.384 . S
C1875 C1878 1.382 . S
C1876 C1874 1.384 . S
C1876 C1877 1.381 . S
C1876 H1897 0.930 . S
C1877 C1876 1.381 . S
C1877 C1879 1.381 . S
C1877 C1880 1.487 . S
C1878 C1875 1.382 . S
C1878 C1879 1.387 . S
C1878 H1898 0.930 . S
C1879 C1877 1.381 . S
C1879 C1878 1.387 . S
C1879 H1899 0.931 . S
C1880 C1877 1.487 . S
C1880 C1887 1.399 . S
C1880 N1905 1.343 . S
C1881 C1882 1.384 . S
C1881 C1883 1.384 . S
C1881 H1900 0.931 . S
C1882 C1881 1.384 . S
C1882 C1885 1.382 . S
C1883 C1881 1.384 . S
C1883 C1884 1.381 . S
C1883 H1901 0.930 . S
C1884 C1883 1.381 . S
C1884 C1886 1.381 . S
C1884 C1887 1.487 . S
C1885 C1882 1.382 . S
C1885 C1886 1.387 . S
C1885 H1902 0.930 . S
C1886 C1884 1.381 . S
C1886 C1885 1.387 . S
C1886 H1903 0.931 . S
C1887 C1880 1.399 . S
C1887 C1884 1.487 . S
C1887 N1904 1.343 . S
H1888 C1860 0.931 . S
H1889 C1862 0.930 . S
H1890 C1864 0.930 . S
H1891 C1865 0.931 . S
H1892 C1867 0.931 . S
H1893 C1869 0.930 . S
H1894 C1871 0.930 . S
H1895 C1872 0.931 . S
H1896 C1874 0.931 . S
H1897 C1876 0.930 . S
H1898 C1878 0.930 . S
H1899 C1879 0.931 . S
H1900 C1881 0.931 . S
H1901 C1883 0.930 . S
H1902 C1885 0.930 . S
H1903 C1886 0.931 . S
N1904 C1866 1.343 . S
N1904 C1887 1.343 . S
N1905 C1873 1.343 . S
N1905 C1880 1.343 . S
C1906 C1907 1.384 . S
C1906 C1908 1.384 . S
C1906 H1934 0.931 . S
C1907 C1906 1.384 . S
C1907 C1910 1.382 . S
C1908 C1906 1.384 . S
C1908 C1909 1.381 . S
C1908 H1935 0.930 . S
C1909 C1908 1.381 . S
C1909 C1911 1.381 . S
C1909 C1912 1.487 . S
C1910 C1907 1.382 . S
C1910 C1911 1.387 . S
C1910 H1936 0.930 . S
C1911 C1909 1.381 . S
C1911 C1910 1.387 . S
C1911 H1937 0.931 . S
C1912 C1909 1.487 . S
C1912 C1919 1.399 . S
C1912 N1950 1.343 . S
C1913 C1914 1.384 . S
C1913 C1915 1.384 . S
C1913 H1938 0.931 . S
C1914 C1913 1.384 . S
C1914 C1917 1.382 . S
C1915 C1913 1.384 . S
C1915 C1916 1.381 . S
C1915 H1939 0.930 . S
C1916 C1915 1.381 . S
C1916 C1918 1.381 . S
C1916 C1919 1.487 . S
C1917 C1914 1.382 . S
C1917 C1918 1.387 . S
C1917 H1940 0.930 . S
C1918 C1916 1.381 . S
C1918 C1917 1.387 . S
C1918 H1941 0.931 . S
C1919 C1912 1.399 . S
C1919 C1916 1.487 . S
C1919 N1951 1.343 . S
C1920 C1921 1.384 . S
C1920 C1922 1.384 . S
C1920 H1942 0.931 . S
C1921 C1920 1.384 . S
C1921 C1924 1.382 . S
C1922 C1920 1.384 . S
C1922 C1923 1.381 . S
C1922 H1943 0.930 . S
C1923 C1922 1.381 . S
C1923 C1925 1.381 . S
C1923 C1926 1.487 . S
C1924 C1921 1.382 . S
C1924 C1925 1.387 . S
C1924 H1944 0.930 . S
C1925 C1923 1.381 . S
C1925 C1924 1.387 . S
C1925 H1945 0.931 . S
C1926 C1923 1.487 . S
C1926 C1933 1.399 . S
C1926 N1951 1.343 . S
C1927 C1928 1.384 . S
C1927 C1929 1.384 . S
C1927 H1946 0.931 . S
C1928 C1927 1.384 . S
C1928 C1931 1.382 . S
C1929 C1927 1.384 . S
C1929 C1930 1.381 . S
C1929 H1947 0.930 . S
C1930 C1929 1.381 . S
C1930 C1932 1.381 . S
C1930 C1933 1.487 . S
C1931 C1928 1.382 . S
C1931 C1932 1.387 . S
C1931 H1948 0.930 . S
C1932 C1930 1.381 . S
C1932 C1931 1.387 . S
C1932 H1949 0.931 . S
C1933 C1926 1.399 . S
C1933 C1930 1.487 . S
C1933 N1950 1.343 . S
H1934 C1906 0.931 . S
H1935 C1908 0.930 . S
H1936 C1910 0.930 . S
H1937 C1911 0.931 . S
H1938 C1913 0.931 . S
H1939 C1915 0.930 . S
H1940 C1917 0.930 . S
H1941 C1918 0.931 . S
H1942 C1920 0.931 . S
H1943 C1922 0.930 . S
H1944 C1924 0.930 . S
H1945 C1925 0.931 . S
H1946 C1927 0.931 . S
H1947 C1929 0.930 . S
H1948 C1931 0.930 . S
H1949 C1932 0.931 . S
N1950 C1912 1.343 . S
N1950 C1933 1.343 . S
N1951 C1919 1.343 . S
N1951 C1926 1.343 . S
C1952 C1953 1.384 . S
C1952 C1954 1.384 . S
C1952 H1980 0.931 . S
C1953 C1952 1.384 . S
C1953 C1956 1.382 . S
C1954 C1952 1.384 . S
C1954 C1955 1.381 . S
C1954 H1981 0.930 . S
C1955 C1954 1.381 . S
C1955 C1957 1.381 . S
C1955 C1958 1.487 . S
C1956 C1953 1.382 . S
C1956 C1957 1.387 . S
C1956 H1982 0.930 . S
C1957 C1955 1.381 . S
C1957 C1956 1.387 . S
C1957 H1983 0.931 . S
C1958 C1955 1.487 . S
C1958 C1965 1.399 . S
C1958 N1996 1.343 . S
C1959 C1960 1.384 . S
C1959 C1961 1.384 . S
C1959 H1984 0.931 . S
C1960 C1959 1.384 . S
C1960 C1963 1.382 . S
C1961 C1959 1.384 . S
C1961 C1962 1.381 . S
C1961 H1985 0.930 . S
C1962 C1961 1.381 . S
C1962 C1964 1.381 . S
C1962 C1965 1.487 . S
C1963 C1960 1.382 . S
C1963 C1964 1.387 . S
C1963 H1986 0.930 . S
C1964 C1962 1.381 . S
C1964 C1963 1.387 . S
C1964 H1987 0.931 . S
C1965 C1958 1.399 . S
C1965 C1962 1.487 . S
C1965 N1997 1.343 . S
C1966 C1967 1.384 . S
C1966 C1968 1.384 . S
C1966 H1988 0.931 . S
C1967 C1966 1.384 . S
C1967 C1970 1.382 . S
C1968 C1966 1.384 . S
C1968 C1969 1.381 . S
C1968 H1989 0.930 . S
C1969 C1968 1.381 . S
C1969 C1971 1.381 . S
C1969 C1972 1.487 . S
C1970 C1967 1.382 . S
C1970 C1971 1.387 . S
C1970 H1990 0.930 . S
C1971 C1969 1.381 . S
C1971 C1970 1.387 . S
C1971 H1991 0.931 . S
C1972 C1969 1.487 . S
C1972 C1979 1.399 . S
C1972 N1997 1.343 . S
C1973 C1974 1.384 . S
C1973 C1975 1.384 . S
C1973 H1992 0.931 . S
C1974 C1973 1.384 . S
C1974 C1977 1.382 . S
C1975 C1973 1.384 . S
C1975 C1976 1.381 . S
C1975 H1993 0.930 . S
C1976 C1975 1.381 . S
C1976 C1978 1.381 . S
C1976 C1979 1.487 . S
C1977 C1974 1.382 . S
C1977 C1978 1.387 . S
C1977 H1994 0.930 . S
C1978 C1976 1.381 . S
C1978 C1977 1.387 . S
C1978 H1995 0.931 . S
C1979 C1972 1.399 . S
C1979 C1976 1.487 . S
C1979 N1996 1.343 . S
H1980 C1952 0.931 . S
H1981 C1954 0.930 . S
H1982 C1956 0.930 . S
H1983 C1957 0.931 . S
H1984 C1959 0.931 . S
H1985 C1961 0.930 . S
H1986 C1963 0.930 . S
H1987 C1964 0.931 . S
H1988 C1966 0.931 . S
H1989 C1968 0.930 . S
H1990 C1970 0.930 . S
H1991 C1971 0.931 . S
H1992 C1973 0.931 . S
H1993 C1975 0.930 . S
H1994 C1977 0.930 . S
H1995 C1978 0.931 . S
N1996 C1958 1.343 . S
N1996 C1979 1.343 . S
N1997 C1965 1.343 . S
N1997 C1972 1.343 . S
C1998 C1999 1.384 . S
C1998 C2000 1.384 . S
C1998 H2026 0.931 . S
C1999 C1998 1.384 . S
C1999 C2002 1.382 1_655 S
C2000 C1998 1.384 . S
C2000 C2001 1.399 . S
C2000 H2027 0.930 . S
C2001 C2000 1.399 . S
C2001 C2003 1.372 1_655 S
C2001 C2004 1.475 1_655 S
C2002 C1999 1.382 1_455 S
C2002 C2003 1.387 . S
C2002 H2028 0.930 . S
C2003 C2001 1.372 1_455 S
C2003 C2002 1.387 . S
C2003 H2029 0.931 . S
C2004 C2001 1.475 1_455 S
C2004 C2011 1.399 1_455 S
C2004 N2042 1.318 . S
C2005 C2006 1.384 . S
C2005 C2007 1.384 . S
C2005 H2030 0.931 . S
C2006 C2005 1.384 . S
C2006 C2009 1.382 1_455 S
C2007 C2005 1.384 . S
C2007 C2008 1.384 . S
C2007 H2031 0.930 . S
C2008 C2007 1.384 . S
C2008 C2010 1.372 1_455 S
C2008 C2011 1.493 1_455 S
C2009 C2006 1.382 1_655 S
C2009 C2010 1.387 . S
C2009 H2032 0.930 . S
C2010 C2008 1.372 1_655 S
C2010 C2009 1.387 . S
C2010 H2033 0.931 . S
C2011 C2004 1.399 1_655 S
C2011 C2008 1.493 1_655 S
C2011 N2043 1.362 . S
C2012 C2013 1.384 . S
C2012 C2014 1.384 . S
C2012 H2034 0.931 . S
C2013 C2012 1.384 . S
C2013 C2016 1.382 1_455 S
C2014 C2012 1.384 . S
C2014 C2015 1.419 . S
C2014 H2035 0.930 . S
C2015 C2014 1.419 . S
C2015 C2017 1.362 1_455 S
C2015 C2018 1.466 . S
C2016 C2013 1.382 1_655 S
C2016 C2017 1.387 . S
C2016 H2036 0.930 . S
C2017 C2015 1.362 1_655 S
C2017 C2016 1.387 . S
C2017 H2037 0.931 . S
C2018 C2015 1.466 . S
C2018 C2025 1.399 . S
C2018 N2043 1.328 1_455 S
C2019 C2020 1.384 . S
C2019 C2021 1.384 . S
C2019 H2038 0.931 . S
C2020 C2019 1.384 . S
C2020 C2023 1.382 1_655 S
C2021 C2019 1.384 . S
C2021 C2022 1.380 . S
C2021 H2039 0.930 . S
C2022 C2021 1.380 . S
C2022 C2024 1.384 1_655 S
C2022 C2025 1.493 1_655 S
C2023 C2020 1.382 1_455 S
C2023 C2024 1.387 . S
C2023 H2040 0.930 . S
C2024 C2022 1.384 1_455 S
C2024 C2023 1.387 . S
C2024 H2041 0.931 . S
C2025 C2018 1.399 . S
C2025 C2022 1.493 1_455 S
C2025 N2042 1.362 . S
H2026 C1998 0.931 . S
H2027 C2000 0.930 . S
H2028 C2002 0.930 . S
H2029 C2003 0.931 . S
H2030 C2005 0.931 . S
H2031 C2007 0.930 . S
H2032 C2009 0.930 . S
H2033 C2010 0.931 . S
H2034 C2012 0.931 . S
H2035 C2014 0.930 . S
H2036 C2016 0.930 . S
H2037 C2017 0.931 . S
H2038 C2019 0.931 . S
H2039 C2021 0.930 . S
H2040 C2023 0.930 . S
H2041 C2024 0.931 . S
N2042 C2004 1.318 . S
N2042 C2025 1.362 . S
N2043 C2011 1.362 . S
N2043 C2018 1.328 1_655 S
C2044 C2045 1.384 . S
C2044 C2046 1.384 . S
C2044 H2072 0.931 . S
C2045 C2044 1.384 . S
C2045 C2048 1.382 . S
C2046 C2044 1.384 . S
C2046 C2047 1.381 . S
C2046 H2073 0.930 . S
C2047 C2046 1.381 . S
C2047 C2049 1.381 . S
C2047 C2050 1.487 . S
C2048 C2045 1.382 . S
C2048 C2049 1.387 . S
C2048 H2074 0.930 . S
C2049 C2047 1.381 . S
C2049 C2048 1.387 . S
C2049 H2075 0.931 . S
C2050 C2047 1.487 . S
C2050 C2057 1.399 . S
C2050 N2088 1.343 . S
C2051 C2052 1.384 . S
C2051 C2053 1.384 . S
C2051 H2076 0.931 . S
C2052 C2051 1.384 . S
C2052 C2055 1.382 . S
C2053 C2051 1.384 . S
C2053 C2054 1.381 . S
C2053 H2077 0.930 . S
C2054 C2053 1.381 . S
C2054 C2056 1.381 . S
C2054 C2057 1.487 . S
C2055 C2052 1.382 . S
C2055 C2056 1.387 . S
C2055 H2078 0.930 . S
C2056 C2054 1.381 . S
C2056 C2055 1.387 . S
C2056 H2079 0.931 . S
C2057 C2050 1.399 . S
C2057 C2054 1.487 . S
C2057 N2089 1.343 . S
C2058 C2059 1.384 . S
C2058 C2060 1.384 . S
C2058 H2080 0.931 . S
C2059 C2058 1.384 . S
C2059 C2062 1.382 . S
C2060 C2058 1.384 . S
C2060 C2061 1.381 . S
C2060 H2081 0.930 . S
C2061 C2060 1.381 . S
C2061 C2063 1.381 . S
C2061 C2064 1.487 . S
C2062 C2059 1.382 . S
C2062 C2063 1.387 . S
C2062 H2082 0.930 . S
C2063 C2061 1.381 . S
C2063 C2062 1.387 . S
C2063 H2083 0.931 . S
C2064 C2061 1.487 . S
C2064 C2071 1.399 . S
C2064 N2089 1.343 . S
C2065 C2066 1.384 . S
C2065 C2067 1.384 . S
C2065 H2084 0.931 . S
C2066 C2065 1.384 . S
C2066 C2069 1.382 . S
C2067 C2065 1.384 . S
C2067 C2068 1.381 . S
C2067 H2085 0.930 . S
C2068 C2067 1.381 . S
C2068 C2070 1.381 . S
C2068 C2071 1.487 . S
C2069 C2066 1.382 . S
C2069 C2070 1.387 . S
C2069 H2086 0.930 . S
C2070 C2068 1.381 . S
C2070 C2069 1.387 . S
C2070 H2087 0.931 . S
C2071 C2064 1.399 . S
C2071 C2068 1.487 . S
C2071 N2088 1.343 . S
H2072 C2044 0.931 . S
H2073 C2046 0.930 . S
H2074 C2048 0.930 . S
H2075 C2049 0.931 . S
H2076 C2051 0.931 . S
H2077 C2053 0.930 . S
H2078 C2055 0.930 . S
H2079 C2056 0.931 . S
H2080 C2058 0.931 . S
H2081 C2060 0.930 . S
H2082 C2062 0.930 . S
H2083 C2063 0.931 . S
H2084 C2065 0.931 . S
H2085 C2067 0.930 . S
H2086 C2069 0.930 . S
H2087 C2070 0.931 . S
N2088 C2050 1.343 . S
N2088 C2071 1.343 . S
N2089 C2057 1.343 . S
N2089 C2064 1.343 . S
C2090 C2091 1.384 1_545 S
C2090 C2092 1.384 . S
C2090 H2118 0.931 . S
C2091 C2090 1.384 1_565 S
C2091 C2094 1.382 . S
C2092 C2090 1.384 . S
C2092 C2093 1.381 1_545 S
C2092 H2119 0.930 . S
C2093 C2092 1.381 1_565 S
C2093 C2095 1.381 . S
C2093 C2096 1.487 . S
C2094 C2091 1.382 . S
C2094 C2095 1.387 . S
C2094 H2120 0.930 . S
C2095 C2093 1.381 . S
C2095 C2094 1.387 . S
C2095 H2121 0.931 . S
C2096 C2093 1.487 . S
C2096 C2103 1.399 1_565 S
C2096 N2134 1.343 . S
C2097 C2098 1.384 1_565 S
C2097 C2099 1.384 . S
C2097 H2122 0.931 . S
C2098 C2097 1.384 1_545 S
C2098 C2101 1.382 . S
C2099 C2097 1.384 . S
C2099 C2100 1.381 1_565 S
C2099 H2123 0.930 . S
C2100 C2099 1.381 1_545 S
C2100 C2102 1.381 . S
C2100 C2103 1.487 . S
C2101 C2098 1.382 . S
C2101 C2102 1.387 . S
C2101 H2124 0.930 . S
C2102 C2100 1.381 . S
C2102 C2101 1.387 . S
C2102 H2125 0.931 . S
C2103 C2096 1.399 1_545 S
C2103 C2100 1.487 . S
C2103 N2135 1.343 . S
C2104 C2105 1.384 1_565 S
C2104 C2106 1.384 . S
C2104 H2126 0.931 . S
C2105 C2104 1.384 1_545 S
C2105 C2108 1.382 . S
C2106 C2104 1.384 . S
C2106 C2107 1.381 1_565 S
C2106 H2127 0.930 . S
C2107 C2106 1.381 1_545 S
C2107 C2109 1.381 . S
C2107 C2110 1.454 . S
C2108 C2105 1.382 . S
C2108 C2109 1.387 . S
C2108 H2128 0.930 . S
C2109 C2107 1.381 . S
C2109 C2108 1.387 . S
C2109 H2129 0.931 . S
C2110 C2107 1.454 . S
C2110 C2117 1.390 1_545 S
C2110 N2135 1.395 . S
C2111 C2112 1.384 1_545 S
C2111 C2113 1.384 . S
C2111 H2130 0.931 . S
C2112 C2111 1.384 1_565 S
C2112 C2115 1.382 . S
C2113 C2111 1.384 . S
C2113 C2114 1.381 1_545 S
C2113 H2131 0.930 . S
C2114 C2113 1.381 1_565 S
C2114 C2116 1.381 . S
C2114 C2117 1.487 . S
C2115 C2112 1.382 . S
C2115 C2116 1.387 . S
C2115 H2132 0.930 . S
C2116 C2114 1.381 . S
C2116 C2115 1.387 . S
C2116 H2133 0.931 . S
C2117 C2110 1.390 1_565 S
C2117 C2114 1.487 . S
C2117 N2134 1.343 . S
H2118 C2090 0.931 . S
H2119 C2092 0.930 . S
H2120 C2094 0.930 . S
H2121 C2095 0.931 . S
H2122 C2097 0.931 . S
H2123 C2099 0.930 . S
H2124 C2101 0.930 . S
H2125 C2102 0.931 . S
H2126 C2104 0.931 . S
H2127 C2106 0.930 . S
H2128 C2108 0.930 . S
H2129 C2109 0.931 . S
H2130 C2111 0.931 . S
H2131 C2113 0.930 . S
H2132 C2115 0.930 . S
H2133 C2116 0.931 . S
N2134 C2096 1.343 . S
N2134 C2117 1.343 . S
N2135 C2103 1.343 . S
N2135 C2110 1.395 . S
C2136 C2137 1.384 . S
C2136 C2138 1.384 . S
C2136 H2164 0.931 . S
C2137 C2136 1.384 . S
C2137 C2140 1.382 1_545 S
C2138 C2136 1.384 . S
C2138 C2139 1.385 . S
C2138 H2165 0.930 . S
C2139 C2138 1.385 . S
C2139 C2141 1.372 1_545 S
C2139 C2142 1.493 1_545 S
C2140 C2137 1.382 1_565 S
C2140 C2141 1.387 . S
C2140 H2166 0.930 . S
C2141 C2139 1.372 1_565 S
C2141 C2140 1.387 . S
C2141 H2167 0.931 . S
C2142 C2139 1.493 1_565 S
C2142 C2149 1.399 1_565 S
C2142 N2180 1.362 . S
C2143 C2144 1.384 . S
C2143 C2145 1.384 . S
C2143 H2168 0.931 . S
C2144 C2143 1.384 . S
C2144 C2147 1.382 1_565 S
C2145 C2143 1.384 . S
C2145 C2146 1.399 . S
C2145 H2169 0.930 . S
C2146 C2145 1.399 . S
C2146 C2148 1.372 1_565 S
C2146 C2149 1.475 1_565 S
C2147 C2144 1.382 1_545 S
C2147 C2148 1.387 . S
C2147 H2170 0.930 . S
C2148 C2146 1.372 1_545 S
C2148 C2147 1.387 . S
C2148 H2171 0.931 . S
C2149 C2142 1.399 1_545 S
C2149 C2146 1.475 1_545 S
C2149 N2181 1.318 . S
C2150 C2151 1.384 . S
C2150 C2152 1.384 . S
C2150 H2172 0.931 . S
C2151 C2150 1.384 . S
C2151 C2154 1.382 1_565 S
C2152 C2150 1.384 . S
C2152 C2153 1.380 . S
C2152 H2173 0.930 . S
C2153 C2152 1.380 . S
C2153 C2155 1.384 1_565 S
C2153 C2156 1.493 1_565 S
C2154 C2151 1.382 1_545 S
C2154 C2155 1.387 . S
C2154 H2174 0.930 . S
C2155 C2153 1.384 1_545 S
C2155 C2154 1.387 . S
C2155 H2175 0.931 . S
C2156 C2153 1.493 1_545 S
C2156 C2163 1.399 . S
C2156 N2181 1.362 . S
C2157 C2158 1.384 . S
C2157 C2159 1.384 . S
C2157 H2176 0.931 . S
C2158 C2157 1.384 . S
C2158 C2161 1.382 1_545 S
C2159 C2157 1.384 . S
C2159 C2160 1.419 . S
C2159 H2177 0.930 . S
C2160 C2159 1.419 . S
C2160 C2162 1.362 1_545 S
C2160 C2163 1.466 . S
C2161 C2158 1.382 1_565 S
C2161 C2162 1.387 . S
C2161 H2178 0.930 . S
C2162 C2160 1.362 1_565 S
C2162 C2161 1.387 . S
C2162 H2179 0.931 . S
C2163 C2156 1.399 . S
C2163 C2160 1.466 . S
C2163 N2180 1.328 1_545 S
H2164 C2136 0.931 . S
H2165 C2138 0.930 . S
H2166 C2140 0.930 . S
H2167 C2141 0.931 . S
H2168 C2143 0.931 . S
H2169 C2145 0.930 . S
H2170 C2147 0.930 . S
H2171 C2148 0.931 . S
H2172 C2150 0.931 . S
H2173 C2152 0.930 . S
H2174 C2154 0.930 . S
H2175 C2155 0.931 . S
H2176 C2157 0.931 . S
H2177 C2159 0.930 . S
H2178 C2161 0.930 . S
H2179 C2162 0.931 . S
N2180 C2142 1.362 . S
N2180 C2163 1.328 1_565 S
N2181 C2149 1.318 . S
N2181 C2156 1.362 . S
C2182 C2183 1.384 . S
C2182 C2184 1.384 . S
C2182 H2210 0.931 . S
C2183 C2182 1.384 . S
C2183 C2186 1.382 1_655 S
C2184 C2182 1.384 . S
C2184 C2185 1.424 . S
C2184 H2211 0.930 . S
C2185 C2184 1.424 . S
C2185 C2187 1.360 1_655 S
C2185 C2188 1.465 . S
C2186 C2183 1.382 1_455 S
C2186 C2187 1.387 . S
C2186 H2212 0.930 . S
C2187 C2185 1.360 1_455 S
C2187 C2186 1.387 . S
C2187 H2213 0.931 . S
C2188 C2185 1.465 . S
C2188 C2195 1.399 . S
C2188 N2226 1.329 1_655 S
C2189 C2190 1.384 . S
C2189 C2191 1.384 . S
C2189 H2214 0.931 . S
C2190 C2189 1.384 . S
C2190 C2193 1.382 1_455 S
C2191 C2189 1.384 . S
C2191 C2192 1.381 . S
C2191 H2215 0.930 . S
C2192 C2191 1.381 . S
C2192 C2194 1.381 1_455 S
C2192 C2195 1.494 1_455 S
C2193 C2190 1.382 1_655 S
C2193 C2194 1.387 . S
C2193 H2216 0.930 . S
C2194 C2192 1.381 1_655 S
C2194 C2193 1.387 . S
C2194 H2217 0.931 . S
C2195 C2188 1.399 . S
C2195 C2192 1.494 1_655 S
C2195 N2227 1.360 . S
C2196 C2197 1.384 . S
C2196 C2198 1.384 . S
C2196 H2218 0.931 . S
C2197 C2196 1.384 . S
C2197 C2200 1.382 1_455 S
C2198 C2196 1.384 . S
C2198 C2199 1.404 . S
C2198 H2219 0.930 . S
C2199 C2198 1.404 . S
C2199 C2201 1.370 1_455 S
C2199 C2202 1.474 1_455 S
C2200 C2197 1.382 1_655 S
C2200 C2201 1.387 . S
C2200 H2220 0.930 . S
C2201 C2199 1.370 1_655 S
C2201 C2200 1.387 . S
C2201 H2221 0.931 . S
C2202 C2199 1.474 1_655 S
C2202 C2209 1.399 1_655 S
C2202 N2227 1.319 . S
C2203 C2204 1.384 . S
C2203 C2205 1.384 . S
C2203 H2222 0.931 . S
C2204 C2203 1.384 . S
C2204 C2207 1.382 1_655 S
C2205 C2203 1.384 . S
C2205 C2206 1.386 . S
C2205 H2223 0.930 . S
C2206 C2205 1.386 . S
C2206 C2208 1.370 1_655 S
C2206 C2209 1.494 1_655 S
C2207 C2204 1.382 1_455 S
C2207 C2208 1.387 . S
C2207 H2224 0.930 . S
C2208 C2206 1.370 1_455 S
C2208 C2207 1.387 . S
C2208 H2225 0.931 . S
C2209 C2202 1.399 1_455 S
C2209 C2206 1.494 1_455 S
C2209 N2226 1.360 . S
H2210 C2182 0.931 . S
H2211 C2184 0.930 . S
H2212 C2186 0.930 . S
H2213 C2187 0.931 . S
H2214 C2189 0.931 . S
H2215 C2191 0.930 . S
H2216 C2193 0.930 . S
H2217 C2194 0.931 . S
H2218 C2196 0.931 . S
H2219 C2198 0.930 . S
H2220 C2200 0.930 . S
H2221 C2201 0.931 . S
H2222 C2203 0.931 . S
H2223 C2205 0.930 . S
H2224 C2207 0.930 . S
H2225 C2208 0.931 . S
N2226 C2188 1.329 1_455 S
N2226 C2209 1.360 . S
N2227 C2195 1.360 . S
N2227 C2202 1.319 . S
C2228 C2229 1.384 . S
C2228 C2230 1.384 . S
C2228 H2256 0.931 . S
C2229 C2228 1.384 . S
C2229 C2232 1.382 . S
C2230 C2228 1.384 . S
C2230 C2231 1.381 . S
C2230 H2257 0.930 . S
C2231 C2230 1.381 . S
C2231 C2233 1.381 . S
C2231 C2234 1.487 . S
C2232 C2229 1.382 . S
C2232 C2233 1.387 . S
C2232 H2258 0.930 . S
C2233 C2231 1.381 . S
C2233 C2232 1.387 . S
C2233 H2259 0.931 . S
C2234 C2231 1.487 . S
C2234 C2241 1.399 . S
C2234 N2272 1.343 . S
C2235 C2236 1.384 . S
C2235 C2237 1.384 . S
C2235 H2260 0.931 . S
C2236 C2235 1.384 . S
C2236 C2239 1.382 . S
C2237 C2235 1.384 . S
C2237 C2238 1.381 . S
C2237 H2261 0.930 . S
C2238 C2237 1.381 . S
C2238 C2240 1.381 . S
C2238 C2241 1.487 . S
C2239 C2236 1.382 . S
C2239 C2240 1.387 . S
C2239 H2262 0.930 . S
C2240 C2238 1.381 . S
C2240 C2239 1.387 . S
C2240 H2263 0.931 . S
C2241 C2234 1.399 . S
C2241 C2238 1.487 . S
C2241 N2273 1.343 . S
C2242 C2243 1.384 . S
C2242 C2244 1.384 . S
C2242 H2264 0.931 . S
C2243 C2242 1.384 . S
C2243 C2246 1.382 . S
C2244 C2242 1.384 . S
C2244 C2245 1.381 . S
C2244 H2265 0.930 . S
C2245 C2244 1.381 . S
C2245 C2247 1.381 . S
C2245 C2248 1.487 . S
C2246 C2243 1.382 . S
C2246 C2247 1.387 . S
C2246 H2266 0.930 . S
C2247 C2245 1.381 . S
C2247 C2246 1.387 . S
C2247 H2267 0.931 . S
C2248 C2245 1.487 . S
C2248 C2255 1.399 . S
C2248 N2273 1.343 . S
C2249 C2250 1.384 . S
C2249 C2251 1.384 . S
C2249 H2268 0.931 . S
C2250 C2249 1.384 . S
C2250 C2253 1.382 . S
C2251 C2249 1.384 . S
C2251 C2252 1.381 . S
C2251 H2269 0.930 . S
C2252 C2251 1.381 . S
C2252 C2254 1.381 . S
C2252 C2255 1.487 . S
C2253 C2250 1.382 . S
C2253 C2254 1.387 . S
C2253 H2270 0.930 . S
C2254 C2252 1.381 . S
C2254 C2253 1.387 . S
C2254 H2271 0.931 . S
C2255 C2248 1.399 . S
C2255 C2252 1.487 . S
C2255 N2272 1.343 . S
H2256 C2228 0.931 . S
H2257 C2230 0.930 . S
H2258 C2232 0.930 . S
H2259 C2233 0.931 . S
H2260 C2235 0.931 . S
H2261 C2237 0.930 . S
H2262 C2239 0.930 . S
H2263 C2240 0.931 . S
H2264 C2242 0.931 . S
H2265 C2244 0.930 . S
H2266 C2246 0.930 . S
H2267 C2247 0.931 . S
H2268 C2249 0.931 . S
H2269 C2251 0.930 . S
H2270 C2253 0.930 . S
H2271 C2254 0.931 . S
N2272 C2234 1.343 . S
N2272 C2255 1.343 . S
N2273 C2241 1.343 . S
N2273 C2248 1.343 . S
C2274 C2275 1.384 . S
C2274 C2276 1.384 . S
C2274 H2302 0.931 . S
C2275 C2274 1.384 . S
C2275 C2278 1.382 . S
C2276 C2274 1.384 . S
C2276 C2277 1.381 . S
C2276 H2303 0.930 . S
C2277 C2276 1.381 . S
C2277 C2279 1.381 . S
C2277 C2280 1.487 . S
C2278 C2275 1.382 . S
C2278 C2279 1.387 . S
C2278 H2304 0.930 . S
C2279 C2277 1.381 . S
C2279 C2278 1.387 . S
C2279 H2305 0.931 . S
C2280 C2277 1.487 . S
C2280 C2287 1.399 . S
C2280 N2318 1.343 . S
C2281 C2282 1.384 . S
C2281 C2283 1.384 . S
C2281 H2306 0.931 . S
C2282 C2281 1.384 . S
C2282 C2285 1.382 . S
C2283 C2281 1.384 . S
C2283 C2284 1.381 . S
C2283 H2307 0.930 . S
C2284 C2283 1.381 . S
C2284 C2286 1.381 . S
C2284 C2287 1.487 . S
C2285 C2282 1.382 . S
C2285 C2286 1.387 . S
C2285 H2308 0.930 . S
C2286 C2284 1.381 . S
C2286 C2285 1.387 . S
C2286 H2309 0.931 . S
C2287 C2280 1.399 . S
C2287 C2284 1.487 . S
C2287 N2319 1.343 . S
C2288 C2289 1.384 . S
C2288 C2290 1.384 . S
C2288 H2310 0.931 . S
C2289 C2288 1.384 . S
C2289 C2292 1.382 . S
C2290 C2288 1.384 . S
C2290 C2291 1.381 . S
C2290 H2311 0.930 . S
C2291 C2290 1.381 . S
C2291 C2293 1.381 . S
C2291 C2294 1.487 . S
C2292 C2289 1.382 . S
C2292 C2293 1.387 . S
C2292 H2312 0.930 . S
C2293 C2291 1.381 . S
C2293 C2292 1.387 . S
C2293 H2313 0.931 . S
C2294 C2291 1.487 . S
C2294 C2301 1.399 . S
C2294 N2319 1.343 . S
C2295 C2296 1.384 . S
C2295 C2297 1.384 . S
C2295 H2314 0.931 . S
C2296 C2295 1.384 . S
C2296 C2299 1.382 . S
C2297 C2295 1.384 . S
C2297 C2298 1.381 . S
C2297 H2315 0.930 . S
C2298 C2297 1.381 . S
C2298 C2300 1.381 . S
C2298 C2301 1.487 . S
C2299 C2296 1.382 . S
C2299 C2300 1.387 . S
C2299 H2316 0.930 . S
C2300 C2298 1.381 . S
C2300 C2299 1.387 . S
C2300 H2317 0.931 . S
C2301 C2294 1.399 . S
C2301 C2298 1.487 . S
C2301 N2318 1.343 . S
H2302 C2274 0.931 . S
H2303 C2276 0.930 . S
H2304 C2278 0.930 . S
H2305 C2279 0.931 . S
H2306 C2281 0.931 . S
H2307 C2283 0.930 . S
H2308 C2285 0.930 . S
H2309 C2286 0.931 . S
H2310 C2288 0.931 . S
H2311 C2290 0.930 . S
H2312 C2292 0.930 . S
H2313 C2293 0.931 . S
H2314 C2295 0.931 . S
H2315 C2297 0.930 . S
H2316 C2299 0.930 . S
H2317 C2300 0.931 . S
N2318 C2280 1.343 . S
N2318 C2301 1.343 . S
N2319 C2287 1.343 . S
N2319 C2294 1.343 . S
C2320 C2321 1.384 . S
C2320 C2322 1.384 . S
C2320 H2348 0.931 . S
C2321 C2320 1.384 . S
C2321 C2324 1.382 . S
C2322 C2320 1.384 . S
C2322 C2323 1.381 . S
C2322 H2349 0.930 . S
C2323 C2322 1.381 . S
C2323 C2325 1.381 . S
C2323 C2326 1.487 . S
C2324 C2321 1.382 . S
C2324 C2325 1.387 . S
C2324 H2350 0.930 . S
C2325 C2323 1.381 . S
C2325 C2324 1.387 . S
C2325 H2351 0.931 . S
C2326 C2323 1.487 . S
C2326 C2333 1.399 . S
C2326 N2364 1.343 . S
C2327 C2328 1.384 . S
C2327 C2329 1.384 . S
C2327 H2352 0.931 . S
C2328 C2327 1.384 . S
C2328 C2331 1.382 . S
C2329 C2327 1.384 . S
C2329 C2330 1.381 . S
C2329 H2353 0.930 . S
C2330 C2329 1.381 . S
C2330 C2332 1.381 . S
C2330 C2333 1.487 . S
C2331 C2328 1.382 . S
C2331 C2332 1.387 . S
C2331 H2354 0.930 . S
C2332 C2330 1.381 . S
C2332 C2331 1.387 . S
C2332 H2355 0.931 . S
C2333 C2326 1.399 . S
C2333 C2330 1.487 . S
C2333 N2365 1.343 . S
C2334 C2335 1.384 . S
C2334 C2336 1.384 . S
C2334 H2356 0.931 . S
C2335 C2334 1.384 . S
C2335 C2338 1.382 . S
C2336 C2334 1.384 . S
C2336 C2337 1.381 . S
C2336 H2357 0.930 . S
C2337 C2336 1.381 . S
C2337 C2339 1.381 . S
C2337 C2340 1.487 . S
C2338 C2335 1.382 . S
C2338 C2339 1.387 . S
C2338 H2358 0.930 . S
C2339 C2337 1.381 . S
C2339 C2338 1.387 . S
C2339 H2359 0.931 . S
C2340 C2337 1.487 . S
C2340 C2347 1.399 . S
C2340 N2365 1.343 . S
C2341 C2342 1.384 . S
C2341 C2343 1.384 . S
C2341 H2360 0.931 . S
C2342 C2341 1.384 . S
C2342 C2345 1.382 . S
C2343 C2341 1.384 . S
C2343 C2344 1.381 . S
C2343 H2361 0.930 . S
C2344 C2343 1.381 . S
C2344 C2346 1.381 . S
C2344 C2347 1.487 . S
C2345 C2342 1.382 . S
C2345 C2346 1.387 . S
C2345 H2362 0.930 . S
C2346 C2344 1.381 . S
C2346 C2345 1.387 . S
C2346 H2363 0.931 . S
C2347 C2340 1.399 . S
C2347 C2344 1.487 . S
C2347 N2364 1.343 . S
H2348 C2320 0.931 . S
H2349 C2322 0.930 . S
H2350 C2324 0.930 . S
H2351 C2325 0.931 . S
H2352 C2327 0.931 . S
H2353 C2329 0.930 . S
H2354 C2331 0.930 . S
H2355 C2332 0.931 . S
H2356 C2334 0.931 . S
H2357 C2336 0.930 . S
H2358 C2338 0.930 . S
H2359 C2339 0.931 . S
H2360 C2341 0.931 . S
H2361 C2343 0.930 . S
H2362 C2345 0.930 . S
H2363 C2346 0.931 . S
N2364 C2326 1.343 . S
N2364 C2347 1.343 . S
N2365 C2333 1.343 . S
N2365 C2340 1.343 . S
C2366 C2367 1.384 . S
C2366 C2368 1.384 . S
C2366 H2394 0.931 . S
C2367 C2366 1.384 . S
C2367 C2370 1.382 . S
C2368 C2366 1.384 . S
C2368 C2369 1.381 . S
C2368 H2395 0.930 . S
C2369 C2368 1.381 . S
C2369 C2371 1.381 . S
C2369 C2372 1.487 . S
C2370 C2367 1.382 . S
C2370 C2371 1.387 . S
C2370 H2396 0.930 . S
C2371 C2369 1.381 . S
C2371 C2370 1.387 . S
C2371 H2397 0.931 . S
C2372 C2369 1.487 . S
C2372 C2379 1.399 . S
C2372 N2410 1.343 . S
C2373 C2374 1.384 . S
C2373 C2375 1.384 . S
C2373 H2398 0.931 . S
C2374 C2373 1.384 . S
C2374 C2377 1.382 . S
C2375 C2373 1.384 . S
C2375 C2376 1.381 . S
C2375 H2399 0.930 . S
C2376 C2375 1.381 . S
C2376 C2378 1.381 . S
C2376 C2379 1.487 . S
C2377 C2374 1.382 . S
C2377 C2378 1.387 . S
C2377 H2400 0.930 . S
C2378 C2376 1.381 . S
C2378 C2377 1.387 . S
C2378 H2401 0.931 . S
C2379 C2372 1.399 . S
C2379 C2376 1.487 . S
C2379 N2411 1.343 . S
C2380 C2381 1.384 . S
C2380 C2382 1.384 . S
C2380 H2402 0.931 . S
C2381 C2380 1.384 . S
C2381 C2384 1.382 . S
C2382 C2380 1.384 . S
C2382 C2383 1.381 . S
C2382 H2403 0.930 . S
C2383 C2382 1.381 . S
C2383 C2385 1.381 . S
C2383 C2386 1.487 . S
C2384 C2381 1.382 . S
C2384 C2385 1.387 . S
C2384 H2404 0.930 . S
C2385 C2383 1.381 . S
C2385 C2384 1.387 . S
C2385 H2405 0.931 . S
C2386 C2383 1.487 . S
C2386 C2393 1.399 . S
C2386 N2411 1.343 . S
C2387 C2388 1.384 . S
C2387 C2389 1.384 . S
C2387 H2406 0.931 . S
C2388 C2387 1.384 . S
C2388 C2391 1.382 . S
C2389 C2387 1.384 . S
C2389 C2390 1.381 . S
C2389 H2407 0.930 . S
C2390 C2389 1.381 . S
C2390 C2392 1.381 . S
C2390 C2393 1.487 . S
C2391 C2388 1.382 . S
C2391 C2392 1.387 . S
C2391 H2408 0.930 . S
C2392 C2390 1.381 . S
C2392 C2391 1.387 . S
C2392 H2409 0.931 . S
C2393 C2386 1.399 . S
C2393 C2390 1.487 . S
C2393 N2410 1.343 . S
H2394 C2366 0.931 . S
H2395 C2368 0.930 . S
H2396 C2370 0.930 . S
H2397 C2371 0.931 . S
H2398 C2373 0.931 . S
H2399 C2375 0.930 . S
H2400 C2377 0.930 . S
H2401 C2378 0.931 . S
H2402 C2380 0.931 . S
H2403 C2382 0.930 . S
H2404 C2384 0.930 . S
H2405 C2385 0.931 . S
H2406 C2387 0.931 . S
H2407 C2389 0.930 . S
H2408 C2391 0.930 . S
H2409 C2392 0.931 . S
N2410 C2372 1.343 . S
N2410 C2393 1.343 . S
N2411 C2379 1.343 . S
N2411 C2386 1.343 . S
H2412 C2420 0.950 . S
H2413 C2425 0.950 . S
H2414 C2422 0.950 1_455 S
H2415 C2424 0.950 . S
H2416 C2426 0.950 . S
H2417 C2428 0.950 . S
H2418 C2430 0.950 . S
H2419 C2431 0.950 . S
C2420 H2412 0.950 . S
C2420 C2421 1.386 . S
C2420 C2422 1.391 . S
C2421 C2420 1.386 . S
C2421 C2425 1.393 . S
C2422 H2414 0.950 1_655 S
C2422 C2420 1.391 . S
C2422 C2423 1.400 . S
C2423 C2422 1.400 . S
C2423 C2424 1.398 . S
C2423 C2429 1.491 . S
C2424 H2415 0.950 . S
C2424 C2423 1.398 . S
C2424 C2425 1.391 . S
C2425 H2413 0.950 . S
C2425 C2421 1.393 . S
C2425 C2424 1.391 . S
C2426 H2416 0.950 . S
C2426 C2427 1.386 . S
C2426 C2428 1.391 . S
C2427 C2426 1.386 . S
C2427 C2431 1.393 1_655 S
C2428 H2417 0.950 . S
C2428 C2426 1.391 . S
C2428 C2429 1.400 . S
C2429 C2423 1.491 . S
C2429 C2428 1.400 . S
C2429 C2430 1.398 1_655 S
C2430 H2418 0.950 . S
C2430 C2429 1.398 1_455 S
C2430 C2431 1.391 . S
C2431 H2419 0.950 . S
C2431 C2427 1.393 1_455 S
C2431 C2430 1.391 . S
H2432 C2440 0.950 . S
H2433 C2445 0.950 . S
H2434 C2442 0.950 . S
H2435 C2444 0.950 . S
H2436 C2446 0.950 . S
H2437 C2448 0.950 . S
H2438 C2450 0.950 . S
H2439 C2451 0.950 . S
C2440 H2432 0.950 . S
C2440 C2441 1.386 . S
C2440 C2442 1.391 . S
C2441 C2440 1.386 . S
C2441 C2445 1.393 . S
C2442 H2434 0.950 . S
C2442 C2440 1.391 . S
C2442 C2443 1.400 . S
C2443 C2442 1.400 . S
C2443 C2444 1.398 . S
C2443 C2449 1.491 . S
C2444 H2435 0.950 . S
C2444 C2443 1.398 . S
C2444 C2445 1.391 . S
C2445 H2433 0.950 . S
C2445 C2441 1.393 . S
C2445 C2444 1.391 . S
C2446 H2436 0.950 . S
C2446 C2447 1.386 . S
C2446 C2448 1.391 . S
C2447 C2446 1.386 . S
C2447 C2451 1.393 . S
C2448 H2437 0.950 . S
C2448 C2446 1.391 . S
C2448 C2449 1.400 . S
C2449 C2443 1.491 . S
C2449 C2448 1.400 . S
C2449 C2450 1.398 . S
C2450 H2438 0.950 . S
C2450 C2449 1.398 . S
C2450 C2451 1.391 . S
C2451 H2439 0.950 . S
C2451 C2447 1.393 . S
C2451 C2450 1.391 . S
H2452 C2460 0.950 . S
H2453 C2465 0.950 . S
H2454 C2462 0.950 . S
H2455 C2464 0.950 . S
H2456 C2466 0.950 1_565 S
H2457 C2468 0.950 . S
H2458 C2470 0.950 . S
H2459 C2471 0.950 . S
C2460 H2452 0.950 . S
C2460 C2461 1.386 . S
C2460 C2462 1.391 . S
C2461 C2460 1.386 . S
C2461 C2465 1.393 . S
C2462 H2454 0.950 . S
C2462 C2460 1.391 . S
C2462 C2463 1.400 . S
C2463 C2462 1.400 . S
C2463 C2464 1.398 . S
C2463 C2469 1.491 . S
C2464 H2455 0.950 . S
C2464 C2463 1.398 . S
C2464 C2465 1.391 . S
C2465 H2453 0.950 . S
C2465 C2461 1.393 . S
C2465 C2464 1.391 . S
C2466 H2456 0.950 1_545 S
C2466 C2467 1.386 . S
C2466 C2468 1.391 . S
C2467 C2466 1.386 . S
C2467 C2471 1.393 . S
C2468 H2457 0.950 . S
C2468 C2466 1.391 . S
C2468 C2469 1.400 . S
C2469 C2463 1.491 . S
C2469 C2468 1.400 . S
C2469 C2470 1.398 . S
C2470 H2458 0.950 . S
C2470 C2469 1.398 . S
C2470 C2471 1.391 . S
C2471 H2459 0.950 . S
C2471 C2467 1.393 . S
C2471 C2470 1.391 . S
H2472 C2480 0.950 . S
H2473 C2485 0.950 . S
H2474 C2482 0.898 1_545 S
H2475 C2484 0.950 . S
H2476 C2486 0.950 . S
H2477 C2488 0.950 . S
H2478 C2490 0.902 1_545 S
H2479 C2491 0.950 . S
C2480 H2472 0.950 . S
C2480 C2481 1.386 . S
C2480 C2482 1.391 . S
C2481 C2480 1.386 . S
C2481 C2485 1.393 . S
C2482 H2474 0.898 1_565 S
C2482 C2480 1.391 . S
C2482 C2483 1.400 . S
C2483 C2482 1.400 . S
C2483 C2484 1.398 . S
C2483 C2489 1.491 . S
C2484 H2475 0.950 . S
C2484 C2483 1.398 . S
C2484 C2485 1.391 . S
C2485 H2473 0.950 . S
C2485 C2481 1.393 . S
C2485 C2484 1.391 . S
C2486 H2476 0.950 . S
C2486 C2487 1.386 . S
C2486 C2488 1.391 . S
C2487 C2486 1.386 . S
C2487 C2491 1.393 1_565 S
C2488 H2477 0.950 . S
C2488 C2486 1.391 . S
C2488 C2489 1.400 . S
C2489 C2483 1.491 . S
C2489 C2488 1.400 . S
C2489 C2490 1.433 . S
C2490 H2478 0.902 1_565 S
C2490 C2489 1.433 . S
C2490 C2491 1.406 1_565 S
C2491 H2479 0.950 . S
C2491 C2487 1.393 1_545 S
C2491 C2490 1.406 1_545 S
H2492 C2500 0.950 . S
H2493 C2505 0.950 1_655 S
H2494 C2502 0.950 . S
H2495 C2504 0.950 1_655 S
H2496 C2506 0.950 . S
H2497 C2508 0.950 . S
H2498 C2510 0.950 . S
H2499 C2511 0.950 . S
C2500 H2492 0.950 . S
C2500 C2501 1.386 . S
C2500 C2502 1.391 . S
C2501 C2500 1.386 . S
C2501 C2505 1.393 . S
C2502 H2494 0.950 . S
C2502 C2500 1.391 . S
C2502 C2503 1.400 . S
C2503 C2502 1.400 . S
C2503 C2504 1.398 . S
C2503 C2509 1.491 . S
C2504 H2495 0.950 1_455 S
C2504 C2503 1.398 . S
C2504 C2505 1.391 . S
C2505 H2493 0.950 1_455 S
C2505 C2501 1.393 . S
C2505 C2504 1.391 . S
C2506 H2496 0.950 . S
C2506 C2507 1.386 1_655 S
C2506 C2508 1.391 . S
C2507 C2506 1.386 1_455 S
C2507 C2511 1.393 . S
C2508 H2497 0.950 . S
C2508 C2506 1.391 . S
C2508 C2509 1.400 1_655 S
C2509 C2503 1.491 . S
C2509 C2508 1.400 1_455 S
C2509 C2510 1.398 . S
C2510 H2498 0.950 . S
C2510 C2509 1.398 . S
C2510 C2511 1.391 . S
C2511 H2499 0.950 . S
C2511 C2507 1.393 . S
C2511 C2510 1.391 . S
H2512 C2520 0.950 . S
H2513 C2525 0.950 . S
H2514 C2522 0.950 . S
H2515 C2524 0.950 . S
H2516 C2526 0.950 . S
H2517 C2528 0.950 . S
H2518 C2530 0.950 . S
H2519 C2531 0.950 . S
C2520 H2512 0.950 . S
C2520 C2521 1.386 . S
C2520 C2522 1.391 . S
C2521 C2520 1.386 . S
C2521 C2525 1.393 . S
C2522 H2514 0.950 . S
C2522 C2520 1.391 . S
C2522 C2523 1.400 . S
C2523 C2522 1.400 . S
C2523 C2524 1.398 . S
C2523 C2529 1.491 . S
C2524 H2515 0.950 . S
C2524 C2523 1.398 . S
C2524 C2525 1.391 . S
C2525 H2513 0.950 . S
C2525 C2521 1.393 . S
C2525 C2524 1.391 . S
C2526 H2516 0.950 . S
C2526 C2527 1.386 . S
C2526 C2528 1.391 . S
C2527 C2526 1.386 . S
C2527 C2531 1.393 . S
C2528 H2517 0.950 . S
C2528 C2526 1.391 . S
C2528 C2529 1.400 . S
C2529 C2523 1.491 . S
C2529 C2528 1.400 . S
C2529 C2530 1.398 . S
C2530 H2518 0.950 . S
C2530 C2529 1.398 . S
C2530 C2531 1.391 . S
C2531 H2519 0.950 . S
C2531 C2527 1.393 . S
C2531 C2530 1.391 . S
H2532 C2540 0.950 . S
H2533 C2545 0.950 . S
H2534 C2542 0.950 . S
H2535 C2544 0.953 . S
H2536 C2546 0.950 . S
H2537 C2548 0.950 . S
H2538 C2550 0.950 . S
H2539 C2551 0.950 . S
C2540 H2532 0.950 . S
C2540 C2541 1.386 . S
C2540 C2542 1.391 . S
C2541 C2540 1.386 . S
C2541 C2545 1.393 . S
C2542 H2534 0.950 . S
C2542 C2540 1.391 . S
C2542 C2543 1.400 . S
C2543 C2542 1.400 . S
C2543 C2544 1.398 . S
C2543 C2549 1.491 . S
C2544 H2535 0.953 . S
C2544 C2543 1.398 . S
C2544 C2545 1.391 . S
C2545 H2533 0.950 . S
C2545 C2541 1.393 . S
C2545 C2544 1.391 . S
C2546 H2536 0.950 . S
C2546 C2547 1.386 1_655 S
C2546 C2548 1.391 . S
C2547 C2546 1.386 1_455 S
C2547 C2551 1.393 . S
C2548 H2537 0.950 . S
C2548 C2546 1.391 . S
C2548 C2549 1.400 1_655 S
C2549 C2543 1.491 . S
C2549 C2548 1.400 1_455 S
C2549 C2550 1.398 . S
C2550 H2538 0.950 . S
C2550 C2549 1.398 . S
C2550 C2551 1.391 . S
C2551 H2539 0.950 . S
C2551 C2547 1.393 . S
C2551 C2550 1.391 . S
H2552 C2560 0.950 . S
H2553 C2565 0.950 . S
H2554 C2562 0.950 . S
H2555 C2564 0.950 . S
H2556 C2566 0.950 . S
H2557 C2568 0.950 . S
H2558 C2570 0.950 . S
H2559 C2571 0.950 . S
C2560 H2552 0.950 . S
C2560 C2561 1.386 . S
C2560 C2562 1.391 . S
C2561 C2560 1.386 . S
C2561 C2565 1.393 . S
C2562 H2554 0.950 . S
C2562 C2560 1.391 . S
C2562 C2563 1.400 . S
C2563 C2562 1.400 . S
C2563 C2564 1.398 . S
C2563 C2569 1.491 . S
C2564 H2555 0.950 . S
C2564 C2563 1.398 . S
C2564 C2565 1.391 . S
C2565 H2553 0.950 . S
C2565 C2561 1.393 . S
C2565 C2564 1.391 . S
C2566 H2556 0.950 . S
C2566 C2567 1.386 . S
C2566 C2568 1.391 . S
C2567 C2566 1.386 . S
C2567 C2571 1.393 . S
C2568 H2557 0.950 . S
C2568 C2566 1.391 . S
C2568 C2569 1.400 . S
C2569 C2563 1.491 . S
C2569 C2568 1.400 . S
C2569 C2570 1.398 . S
C2570 H2558 0.950 . S
C2570 C2569 1.398 . S
C2570 C2571 1.391 . S
C2571 H2559 0.950 . S
C2571 C2567 1.393 . S
C2571 C2570 1.391 . S
H2572 C2580 0.950 . S
H2573 C2585 0.950 1_545 S
H2574 C2582 0.950 . S
H2575 C2584 0.950 1_545 S
H2576 C2586 0.950 . S
H2577 C2588 0.950 . S
H2578 C2590 0.950 . S
H2579 C2591 0.950 . S
C2580 H2572 0.950 . S
C2580 C2581 1.386 . S
C2580 C2582 1.391 . S
C2581 C2580 1.386 . S
C2581 C2585 1.393 . S
C2582 H2574 0.950 . S
C2582 C2580 1.391 . S
C2582 C2583 1.400 . S
C2583 C2582 1.400 . S
C2583 C2584 1.398 . S
C2583 C2589 1.491 . S
C2584 H2575 0.950 1_565 S
C2584 C2583 1.398 . S
C2584 C2585 1.391 . S
C2585 H2573 0.950 1_565 S
C2585 C2581 1.393 . S
C2585 C2584 1.391 . S
C2586 H2576 0.950 . S
C2586 C2587 1.386 1_545 S
C2586 C2588 1.391 . S
C2587 C2586 1.386 1_565 S
C2587 C2591 1.393 . S
C2588 H2577 0.950 . S
C2588 C2586 1.391 . S
C2588 C2589 1.400 1_545 S
C2589 C2583 1.491 . S
C2589 C2588 1.400 1_565 S
C2589 C2590 1.398 . S
C2590 H2578 0.950 . S
C2590 C2589 1.398 . S
C2590 C2591 1.391 . S
C2591 H2579 0.950 . S
C2591 C2587 1.393 . S
C2591 C2590 1.391 . S
H2592 C2600 0.950 . S
H2593 C2605 0.950 1_565 S
H2594 C2602 0.950 . S
H2595 C2604 0.950 1_565 S
H2596 C2606 0.950 . S
H2597 C2608 0.950 . S
H2598 C2610 0.950 . S
H2599 C2611 0.950 . S
C2600 H2592 0.950 . S
C2600 C2601 1.386 . S
C2600 C2602 1.391 . S
C2601 C2600 1.386 . S
C2601 C2605 1.393 . S
C2602 H2594 0.950 . S
C2602 C2600 1.391 . S
C2602 C2603 1.400 . S
C2603 C2602 1.400 . S
C2603 C2604 1.398 . S
C2603 C2609 1.491 . S
C2604 H2595 0.950 1_545 S
C2604 C2603 1.398 . S
C2604 C2605 1.391 . S
C2605 H2593 0.950 1_545 S
C2605 C2601 1.393 . S
C2605 C2604 1.391 . S
C2606 H2596 0.950 . S
C2606 C2607 1.386 1_565 S
C2606 C2608 1.391 . S
C2607 C2606 1.386 1_545 S
C2607 C2611 1.393 . S
C2608 H2597 0.950 . S
C2608 C2606 1.391 . S
C2608 C2609 1.400 1_565 S
C2609 C2603 1.491 . S
C2609 C2608 1.400 1_545 S
C2609 C2610 1.398 . S
C2610 H2598 0.950 . S
C2610 C2609 1.398 . S
C2610 C2611 1.391 . S
C2611 H2599 0.950 . S
C2611 C2607 1.393 . S
C2611 C2610 1.391 . S
H2612 C2620 0.950 . S
H2613 C2625 0.950 . S
H2614 C2622 0.950 . S
H2615 C2624 0.950 . S
H2616 C2626 0.950 . S
H2617 C2628 0.950 . S
H2618 C2630 0.950 . S
H2619 C2631 0.950 1_455 S
C2620 H2612 0.950 . S
C2620 C2621 1.386 . S
C2620 C2622 1.391 . S
C2621 C2620 1.386 . S
C2621 C2625 1.393 . S
C2622 H2614 0.950 . S
C2622 C2620 1.391 . S
C2622 C2623 1.400 . S
C2623 C2622 1.400 . S
C2623 C2624 1.398 . S
C2623 C2629 1.491 . S
C2624 H2615 0.950 . S
C2624 C2623 1.398 . S
C2624 C2625 1.391 . S
C2625 H2613 0.950 . S
C2625 C2621 1.393 . S
C2625 C2624 1.391 . S
C2626 H2616 0.950 . S
C2626 C2627 1.386 . S
C2626 C2628 1.391 . S
C2627 C2626 1.386 . S
C2627 C2631 1.393 . S
C2628 H2617 0.950 . S
C2628 C2626 1.391 . S
C2628 C2629 1.400 . S
C2629 C2623 1.491 . S
C2629 C2628 1.400 . S
C2629 C2630 1.398 . S
C2630 H2618 0.950 . S
C2630 C2629 1.398 . S
C2630 C2631 1.391 . S
C2631 H2619 0.950 1_655 S
C2631 C2627 1.393 . S
C2631 C2630 1.391 . S
H2632 C2640 0.950 . S
H2633 C2645 0.950 . S
H2634 C2642 0.950 . S
H2635 C2644 0.950 . S
H2636 C2646 0.950 . S
H2637 C2648 0.950 . S
H2638 C2650 0.950 . S
H2639 C2651 0.950 . S
C2640 H2632 0.950 . S
C2640 C2641 1.386 . S
C2640 C2642 1.391 . S
C2641 C2640 1.386 . S
C2641 C2645 1.393 . S
C2642 H2634 0.950 . S
C2642 C2640 1.391 . S
C2642 C2643 1.400 . S
C2643 C2642 1.400 . S
C2643 C2644 1.398 . S
C2643 C2649 1.491 . S
C2644 H2635 0.950 . S
C2644 C2643 1.398 . S
C2644 C2645 1.391 . S
C2645 H2633 0.950 . S
C2645 C2641 1.393 . S
C2645 C2644 1.391 . S
C2646 H2636 0.950 . S
C2646 C2647 1.386 . S
C2646 C2648 1.391 . S
C2647 C2646 1.386 . S
C2647 C2651 1.393 . S
C2648 H2637 0.950 . S
C2648 C2646 1.391 . S
C2648 C2649 1.400 . S
C2649 C2643 1.491 . S
C2649 C2648 1.400 . S
C2649 C2650 1.398 . S
C2650 H2638 0.950 . S
C2650 C2649 1.398 . S
C2650 C2651 1.391 . S
C2651 H2639 0.950 . S
C2651 C2647 1.393 . S
C2651 C2650 1.391 . S
H2652 C2660 0.950 . S
H2653 C2665 0.950 . S
H2654 C2662 0.950 . S
H2655 C2664 0.950 . S
H2656 C2666 0.950 . S
H2657 C2668 0.950 . S
H2658 C2670 0.950 . S
H2659 C2671 0.950 . S
C2660 H2652 0.950 . S
C2660 C2661 1.386 . S
C2660 C2662 1.391 . S
C2661 C2660 1.386 . S
C2661 C2665 1.393 . S
C2662 H2654 0.950 . S
C2662 C2660 1.391 . S
C2662 C2663 1.400 . S
C2663 C2662 1.400 . S
C2663 C2664 1.398 . S
C2663 C2669 1.491 . S
C2664 H2655 0.950 . S
C2664 C2663 1.398 . S
C2664 C2665 1.391 . S
C2665 H2653 0.950 . S
C2665 C2661 1.393 . S
C2665 C2664 1.391 . S
C2666 H2656 0.950 . S
C2666 C2667 1.386 . S
C2666 C2668 1.391 . S
C2667 C2666 1.386 . S
C2667 C2671 1.393 . S
C2668 H2657 0.950 . S
C2668 C2666 1.391 . S
C2668 C2669 1.400 . S
C2669 C2663 1.491 . S
C2669 C2668 1.400 . S
C2669 C2670 1.398 . S
C2670 H2658 0.950 . S
C2670 C2669 1.398 . S
C2670 C2671 1.391 . S
C2671 H2659 0.950 . S
C2671 C2667 1.393 . S
C2671 C2670 1.391 . S
H2672 C2680 0.950 . S
H2673 C2685 0.950 . S
H2674 C2682 0.950 . S
H2675 C2684 0.950 . S
H2676 C2686 0.950 . S
H2677 C2688 0.950 . S
H2678 C2690 0.950 . S
H2679 C2691 0.950 . S
C2680 H2672 0.950 . S
C2680 C2681 1.386 . S
C2680 C2682 1.391 . S
C2681 C2680 1.386 . S
C2681 C2685 1.393 . S
C2682 H2674 0.950 . S
C2682 C2680 1.391 . S
C2682 C2683 1.400 . S
C2683 C2682 1.400 . S
C2683 C2684 1.398 . S
C2683 C2689 1.491 . S
C2684 H2675 0.950 . S
C2684 C2683 1.398 . S
C2684 C2685 1.391 . S
C2685 H2673 0.950 . S
C2685 C2681 1.393 . S
C2685 C2684 1.391 . S
C2686 H2676 0.950 . S
C2686 C2687 1.386 . S
C2686 C2688 1.391 . S
C2687 C2686 1.386 . S
C2687 C2691 1.393 . S
C2688 H2677 0.950 . S
C2688 C2686 1.391 . S
C2688 C2689 1.400 . S
C2689 C2683 1.491 . S
C2689 C2688 1.400 . S
C2689 C2690 1.398 . S
C2690 H2678 0.950 . S
C2690 C2689 1.398 . S
C2690 C2691 1.391 . S
C2691 H2679 0.950 . S
C2691 C2687 1.393 . S
C2691 C2690 1.391 . S
H2692 C2700 0.950 . S
H2693 C2705 0.950 . S
H2694 C2702 0.950 . S
H2695 C2704 0.950 . S
H2696 C2706 0.950 . S
H2697 C2708 0.950 . S
H2698 C2710 0.950 . S
H2699 C2711 0.950 . S
C2700 H2692 0.950 . S
C2700 C2701 1.386 . S
C2700 C2702 1.391 . S
C2701 C2700 1.386 . S
C2701 C2705 1.393 . S
C2702 H2694 0.950 . S
C2702 C2700 1.391 . S
C2702 C2703 1.400 . S
C2703 C2702 1.400 . S
C2703 C2704 1.398 . S
C2703 C2709 1.491 . S
C2704 H2695 0.950 . S
C2704 C2703 1.398 . S
C2704 C2705 1.391 . S
C2705 H2693 0.950 . S
C2705 C2701 1.393 . S
C2705 C2704 1.391 . S
C2706 H2696 0.950 . S
C2706 C2707 1.386 . S
C2706 C2708 1.391 . S
C2707 C2706 1.386 . S
C2707 C2711 1.393 . S
C2708 H2697 0.950 . S
C2708 C2706 1.391 . S
C2708 C2709 1.400 . S
C2709 C2703 1.491 . S
C2709 C2708 1.400 . S
C2709 C2710 1.398 . S
C2710 H2698 0.950 . S
C2710 C2709 1.398 . S
C2710 C2711 1.391 . S
C2711 H2699 0.950 . S
C2711 C2707 1.393 . S
C2711 C2710 1.391 . S
H2712 C2720 0.950 . S
H2713 C2725 0.950 . S
H2714 C2722 0.950 . S
H2715 C2724 0.950 . S
H2716 C2726 0.950 . S
H2717 C2728 0.950 . S
H2718 C2730 0.950 . S
H2719 C2731 0.950 . S
C2720 H2712 0.950 . S
C2720 C2721 1.386 . S
C2720 C2722 1.391 . S
C2721 C2720 1.386 . S
C2721 C2725 1.393 . S
C2722 H2714 0.950 . S
C2722 C2720 1.391 . S
C2722 C2723 1.400 . S
C2723 C2722 1.400 . S
C2723 C2724 1.398 . S
C2723 C2729 1.491 . S
C2724 H2715 0.950 . S
C2724 C2723 1.398 . S
C2724 C2725 1.391 . S
C2725 H2713 0.950 . S
C2725 C2721 1.393 . S
C2725 C2724 1.391 . S
C2726 H2716 0.950 . S
C2726 C2727 1.386 . S
C2726 C2728 1.391 . S
C2727 C2726 1.386 . S
C2727 C2731 1.393 . S
C2728 H2717 0.950 . S
C2728 C2726 1.391 . S
C2728 C2729 1.400 . S
C2729 C2723 1.491 . S
C2729 C2728 1.400 . S
C2729 C2730 1.398 . S
C2730 H2718 0.950 . S
C2730 C2729 1.398 . S
C2730 C2731 1.391 . S
C2731 H2719 0.950 . S
C2731 C2727 1.393 . S
C2731 C2730 1.391 . S
H2732 C2740 0.950 . S
H2733 C2745 0.950 . S
H2734 C2742 0.950 . S
H2735 C2744 0.950 . S
H2736 C2746 0.950 . S
H2737 C2748 0.950 . S
H2738 C2750 0.950 . S
H2739 C2751 0.950 . S
C2740 H2732 0.950 . S
C2740 C2741 1.386 . S
C2740 C2742 1.391 . S
C2741 C2740 1.386 . S
C2741 C2745 1.393 . S
C2742 H2734 0.950 . S
C2742 C2740 1.391 . S
C2742 C2743 1.400 . S
C2743 C2742 1.400 . S
C2743 C2744 1.398 . S
C2743 C2749 1.491 . S
C2744 H2735 0.950 . S
C2744 C2743 1.398 . S
C2744 C2745 1.391 . S
C2745 H2733 0.950 . S
C2745 C2741 1.393 . S
C2745 C2744 1.391 . S
C2746 H2736 0.950 . S
C2746 C2747 1.386 . S
C2746 C2748 1.391 . S
C2747 C2746 1.386 . S
C2747 C2751 1.393 . S
C2748 H2737 0.950 . S
C2748 C2746 1.391 . S
C2748 C2749 1.400 . S
C2749 C2743 1.491 . S
C2749 C2748 1.400 . S
C2749 C2750 1.398 . S
C2750 H2738 0.950 . S
C2750 C2749 1.398 . S
C2750 C2751 1.391 . S
C2751 H2739 0.950 . S
C2751 C2747 1.393 . S
C2751 C2750 1.391 . S
H2752 C2760 0.950 . S
H2753 C2765 0.950 . S
H2754 C2762 0.950 . S
H2755 C2764 0.950 . S
H2756 C2766 0.950 . S
H2757 C2768 0.950 . S
H2758 C2770 0.950 . S
H2759 C2771 0.950 . S
C2760 H2752 0.950 . S
C2760 C2761 1.386 . S
C2760 C2762 1.391 . S
C2761 C2760 1.386 . S
C2761 C2765 1.393 . S
C2762 H2754 0.950 . S
C2762 C2760 1.391 . S
C2762 C2763 1.400 . S
C2763 C2762 1.400 . S
C2763 C2764 1.398 . S
C2763 C2769 1.491 . S
C2764 H2755 0.950 . S
C2764 C2763 1.398 . S
C2764 C2765 1.391 . S
C2765 H2753 0.950 . S
C2765 C2761 1.393 . S
C2765 C2764 1.391 . S
C2766 H2756 0.950 . S
C2766 C2767 1.386 . S
C2766 C2768 1.391 . S
C2767 C2766 1.386 . S
C2767 C2771 1.393 . S
C2768 H2757 0.950 . S
C2768 C2766 1.391 . S
C2768 C2769 1.400 . S
C2769 C2763 1.491 . S
C2769 C2768 1.400 . S
C2769 C2770 1.398 . S
C2770 H2758 0.950 . S
C2770 C2769 1.398 . S
C2770 C2771 1.391 . S
C2771 H2759 0.950 . S
C2771 C2767 1.393 . S
C2771 C2770 1.391 . S
H2772 C2780 0.950 . S
H2773 C2785 0.950 . S
H2774 C2782 0.950 . S
H2775 C2784 0.950 . S
H2776 C2786 0.950 . S
H2777 C2788 0.950 . S
H2778 C2790 0.950 . S
H2779 C2791 0.950 . S
C2780 H2772 0.950 . S
C2780 C2781 1.386 . S
C2780 C2782 1.391 . S
C2781 C2780 1.386 . S
C2781 C2785 1.393 . S
C2782 H2774 0.950 . S
C2782 C2780 1.391 . S
C2782 C2783 1.400 . S
C2783 C2782 1.400 . S
C2783 C2784 1.398 . S
C2783 C2789 1.491 . S
C2784 H2775 0.950 . S
C2784 C2783 1.398 . S
C2784 C2785 1.391 . S
C2785 H2773 0.950 . S
C2785 C2781 1.393 . S
C2785 C2784 1.391 . S
C2786 H2776 0.950 . S
C2786 C2787 1.386 . S
C2786 C2788 1.391 . S
C2787 C2786 1.386 . S
C2787 C2791 1.393 . S
C2788 H2777 0.950 . S
C2788 C2786 1.391 . S
C2788 C2789 1.400 . S
C2789 C2783 1.491 . S
C2789 C2788 1.400 . S
C2789 C2790 1.398 . S
C2790 H2778 0.950 . S
C2790 C2789 1.398 . S
C2790 C2791 1.391 . S
C2791 H2779 0.950 . S
C2791 C2787 1.393 . S
C2791 C2790 1.391 . S
H2792 C2800 0.950 . S
H2793 C2805 0.950 . S
H2794 C2802 0.950 . S
H2795 C2804 0.950 . S
H2796 C2806 0.950 . S
H2797 C2808 0.950 . S
H2798 C2810 0.950 . S
H2799 C2811 0.950 . S
C2800 H2792 0.950 . S
C2800 C2801 1.386 . S
C2800 C2802 1.391 . S
C2801 C2800 1.386 . S
C2801 C2805 1.393 . S
C2802 H2794 0.950 . S
C2802 C2800 1.391 . S
C2802 C2803 1.400 . S
C2803 C2802 1.400 . S
C2803 C2804 1.398 . S
C2803 C2809 1.491 . S
C2804 H2795 0.950 . S
C2804 C2803 1.398 . S
C2804 C2805 1.391 . S
C2805 H2793 0.950 . S
C2805 C2801 1.393 . S
C2805 C2804 1.391 . S
C2806 H2796 0.950 . S
C2806 C2807 1.386 . S
C2806 C2808 1.391 . S
C2807 C2806 1.386 . S
C2807 C2811 1.393 . S
C2808 H2797 0.950 . S
C2808 C2806 1.391 . S
C2808 C2809 1.400 . S
C2809 C2803 1.491 . S
C2809 C2808 1.400 . S
C2809 C2810 1.398 . S
C2810 H2798 0.950 . S
C2810 C2809 1.398 . S
C2810 C2811 1.391 . S
C2811 H2799 0.950 . S
C2811 C2807 1.393 . S
C2811 C2810 1.391 . S
H2812 C2820 0.950 . S
H2813 C2825 0.950 . S
H2814 C2822 0.950 . S
H2815 C2824 0.950 . S
H2816 C2826 0.950 . S
H2817 C2828 0.950 . S
H2818 C2830 0.950 . S
H2819 C2831 0.950 . S
C2820 H2812 0.950 . S
C2820 C2821 1.386 . S
C2820 C2822 1.391 . S
C2821 C2820 1.386 . S
C2821 C2825 1.393 . S
C2822 H2814 0.950 . S
C2822 C2820 1.391 . S
C2822 C2823 1.400 . S
C2823 C2822 1.400 . S
C2823 C2824 1.398 . S
C2823 C2829 1.491 . S
C2824 H2815 0.950 . S
C2824 C2823 1.398 . S
C2824 C2825 1.391 . S
C2825 H2813 0.950 . S
C2825 C2821 1.393 . S
C2825 C2824 1.391 . S
C2826 H2816 0.950 . S
C2826 C2827 1.386 . S
C2826 C2828 1.391 . S
C2827 C2826 1.386 . S
C2827 C2831 1.393 . S
C2828 H2817 0.950 . S
C2828 C2826 1.391 . S
C2828 C2829 1.400 . S
C2829 C2823 1.491 . S
C2829 C2828 1.400 . S
C2829 C2830 1.398 . S
C2830 H2818 0.950 . S
C2830 C2829 1.398 . S
C2830 C2831 1.391 . S
C2831 H2819 0.950 . S
C2831 C2827 1.393 . S
C2831 C2830 1.391 . S
H2832 C2840 0.950 . S
H2833 C2845 0.950 . S
H2834 C2842 0.950 . S
H2835 C2844 0.950 . S
H2836 C2846 0.950 . S
H2837 C2848 0.950 . S
H2838 C2850 0.950 . S
H2839 C2851 0.950 . S
C2840 H2832 0.950 . S
C2840 C2841 1.386 . S
C2840 C2842 1.391 . S
C2841 C2840 1.386 . S
C2841 C2845 1.393 . S
C2842 H2834 0.950 . S
C2842 C2840 1.391 . S
C2842 C2843 1.400 . S
C2843 C2842 1.400 . S
C2843 C2844 1.398 . S
C2843 C2849 1.491 . S
C2844 H2835 0.950 . S
C2844 C2843 1.398 . S
C2844 C2845 1.391 . S
C2845 H2833 0.950 . S
C2845 C2841 1.393 . S
C2845 C2844 1.391 . S
C2846 H2836 0.950 . S
C2846 C2847 1.386 . S
C2846 C2848 1.391 . S
C2847 C2846 1.386 . S
C2847 C2851 1.393 . S
C2848 H2837 0.950 . S
C2848 C2846 1.391 . S
C2848 C2849 1.400 . S
C2849 C2843 1.491 . S
C2849 C2848 1.400 . S
C2849 C2850 1.398 . S
C2850 H2838 0.950 . S
C2850 C2849 1.398 . S
C2850 C2851 1.391 . S
C2851 H2839 0.950 . S
C2851 C2847 1.393 . S
C2851 C2850 1.391 . S
H2852 C2860 0.950 . S
H2853 C2865 0.950 . S
H2854 C2862 0.950 . S
H2855 C2864 0.950 . S
H2856 C2866 0.950 . S
H2857 C2868 0.950 . S
H2858 C2870 0.950 . S
H2859 C2871 0.950 . S
C2860 H2852 0.950 . S
C2860 C2861 1.386 . S
C2860 C2862 1.391 . S
C2861 C2860 1.386 . S
C2861 C2865 1.393 . S
C2862 H2854 0.950 . S
C2862 C2860 1.391 . S
C2862 C2863 1.400 . S
C2863 C2862 1.400 . S
C2863 C2864 1.398 . S
C2863 C2869 1.491 . S
C2864 H2855 0.950 . S
C2864 C2863 1.398 . S
C2864 C2865 1.391 . S
C2865 H2853 0.950 . S
C2865 C2861 1.393 . S
C2865 C2864 1.391 . S
C2866 H2856 0.950 . S
C2866 C2867 1.386 . S
C2866 C2868 1.391 . S
C2867 C2866 1.386 . S
C2867 C2871 1.393 . S
C2868 H2857 0.950 . S
C2868 C2866 1.391 . S
C2868 C2869 1.400 . S
C2869 C2863 1.491 . S
C2869 C2868 1.400 . S
C2869 C2870 1.398 . S
C2870 H2858 0.950 . S
C2870 C2869 1.398 . S
C2870 C2871 1.391 . S
C2871 H2859 0.950 . S
C2871 C2867 1.393 . S
C2871 C2870 1.391 . S
H2872 C2880 0.950 . S
H2873 C2885 0.950 . S
H2874 C2882 0.950 . S
H2875 C2884 0.950 . S
H2876 C2886 0.950 . S
H2877 C2888 0.950 . S
H2878 C2890 0.950 . S
H2879 C2891 0.950 . S
C2880 H2872 0.950 . S
C2880 C2881 1.386 . S
C2880 C2882 1.391 . S
C2881 C2880 1.386 . S
C2881 C2885 1.393 . S
C2882 H2874 0.950 . S
C2882 C2880 1.391 . S
C2882 C2883 1.400 . S
C2883 C2882 1.400 . S
C2883 C2884 1.398 . S
C2883 C2889 1.491 . S
C2884 H2875 0.950 . S
C2884 C2883 1.398 . S
C2884 C2885 1.391 . S
C2885 H2873 0.950 . S
C2885 C2881 1.393 . S
C2885 C2884 1.391 . S
C2886 H2876 0.950 . S
C2886 C2887 1.386 . S
C2886 C2888 1.391 . S
C2887 C2886 1.386 . S
C2887 C2891 1.393 . S
C2888 H2877 0.950 . S
C2888 C2886 1.391 . S
C2888 C2889 1.400 . S
C2889 C2883 1.491 . S
C2889 C2888 1.400 . S
C2889 C2890 1.398 . S
C2890 H2878 0.950 . S
C2890 C2889 1.398 . S
C2890 C2891 1.391 . S
C2891 H2879 0.950 . S
C2891 C2887 1.393 . S
C2891 C2890 1.391 . S
H2892 C2900 0.950 . S
H2893 C2905 0.950 . S
H2894 C2902 0.950 . S
H2895 C2904 0.950 . S
H2896 C2906 0.950 . S
H2897 C2908 0.950 . S
H2898 C2910 0.950 . S
H2899 C2911 0.950 . S
C2900 H2892 0.950 . S
C2900 C2901 1.386 . S
C2900 C2902 1.391 . S
C2901 C2900 1.386 . S
C2901 C2905 1.393 . S
C2902 H2894 0.950 . S
C2902 C2900 1.391 . S
C2902 C2903 1.400 . S
C2903 C2902 1.400 . S
C2903 C2904 1.398 . S
C2903 C2909 1.491 . S
C2904 H2895 0.950 . S
C2904 C2903 1.398 . S
C2904 C2905 1.391 . S
C2905 H2893 0.950 . S
C2905 C2901 1.393 . S
C2905 C2904 1.391 . S
C2906 H2896 0.950 . S
C2906 C2907 1.386 . S
C2906 C2908 1.391 . S
C2907 C2906 1.386 . S
C2907 C2911 1.393 . S
C2908 H2897 0.950 . S
C2908 C2906 1.391 . S
C2908 C2909 1.400 . S
C2909 C2903 1.491 . S
C2909 C2908 1.400 . S
C2909 C2910 1.398 . S
C2910 H2898 0.950 . S
C2910 C2909 1.398 . S
C2910 C2911 1.391 . S
C2911 H2899 0.950 . S
C2911 C2907 1.393 . S
C2911 C2910 1.391 . S
H2912 C2920 0.950 . S
H2913 C2925 0.950 . S
H2914 C2922 0.950 . S
H2915 C2924 0.950 . S
H2916 C2926 0.950 . S
H2917 C2928 0.950 . S
H2918 C2930 0.950 . S
H2919 C2931 0.950 . S
C2920 H2912 0.950 . S
C2920 C2921 1.386 . S
C2920 C2922 1.391 . S
C2921 C2920 1.386 . S
C2921 C2925 1.393 . S
C2922 H2914 0.950 . S
C2922 C2920 1.391 . S
C2922 C2923 1.400 . S
C2923 C2922 1.400 . S
C2923 C2924 1.398 . S
C2923 C2929 1.491 . S
C2924 H2915 0.950 . S
C2924 C2923 1.398 . S
C2924 C2925 1.391 . S
C2925 H2913 0.950 . S
C2925 C2921 1.393 . S
C2925 C2924 1.391 . S
C2926 H2916 0.950 . S
C2926 C2927 1.386 . S
C2926 C2928 1.391 . S
C2927 C2926 1.386 . S
C2927 C2931 1.393 . S
C2928 H2917 0.950 . S
C2928 C2926 1.391 . S
C2928 C2929 1.400 . S
C2929 C2923 1.491 . S
C2929 C2928 1.400 . S
C2929 C2930 1.398 . S
C2930 H2918 0.950 . S
C2930 C2929 1.398 . S
C2930 C2931 1.391 . S
C2931 H2919 0.950 . S
C2931 C2927 1.393 . S
C2931 C2930 1.391 . S
H2932 C2940 0.950 . S
H2933 C2945 0.950 . S
H2934 C2942 0.950 . S
H2935 C2944 0.950 . S
H2936 C2946 0.950 . S
H2937 C2948 0.950 . S
H2938 C2950 0.950 . S
H2939 C2951 0.950 . S
C2940 H2932 0.950 . S
C2940 C2941 1.386 . S
C2940 C2942 1.391 . S
C2941 C2940 1.386 . S
C2941 C2945 1.393 . S
C2942 H2934 0.950 . S
C2942 C2940 1.391 . S
C2942 C2943 1.400 . S
C2943 C2942 1.400 . S
C2943 C2944 1.398 . S
C2943 C2949 1.491 . S
C2944 H2935 0.950 . S
C2944 C2943 1.398 . S
C2944 C2945 1.391 . S
C2945 H2933 0.950 . S
C2945 C2941 1.393 . S
C2945 C2944 1.391 . S
C2946 H2936 0.950 . S
C2946 C2947 1.386 . S
C2946 C2948 1.391 . S
C2947 C2946 1.386 . S
C2947 C2951 1.393 . S
C2948 H2937 0.950 . S
C2948 C2946 1.391 . S
C2948 C2949 1.400 . S
C2949 C2943 1.491 . S
C2949 C2948 1.400 . S
C2949 C2950 1.398 . S
C2950 H2938 0.950 . S
C2950 C2949 1.398 . S
C2950 C2951 1.391 . S
C2951 H2939 0.950 . S
C2951 C2947 1.393 . S
C2951 C2950 1.391 . S
H2952 C2960 0.950 . S
H2953 C2965 0.950 . S
H2954 C2962 0.950 . S
H2955 C2964 0.950 . S
H2956 C2966 0.950 . S
H2957 C2968 0.950 . S
H2958 C2970 0.950 . S
H2959 C2971 0.950 . S
C2960 H2952 0.950 . S
C2960 C2961 1.386 . S
C2960 C2962 1.391 . S
C2961 C2960 1.386 . S
C2961 C2965 1.393 . S
C2962 H2954 0.950 . S
C2962 C2960 1.391 . S
C2962 C2963 1.400 . S
C2963 C2962 1.400 . S
C2963 C2964 1.398 . S
C2963 C2969 1.491 . S
C2964 H2955 0.950 . S
C2964 C2963 1.398 . S
C2964 C2965 1.391 . S
C2965 H2953 0.950 . S
C2965 C2961 1.393 . S
C2965 C2964 1.391 . S
C2966 H2956 0.950 . S
C2966 C2967 1.386 . S
C2966 C2968 1.391 . S
C2967 C2966 1.386 . S
C2967 C2971 1.393 . S
C2968 H2957 0.950 . S
C2968 C2966 1.391 . S
C2968 C2969 1.400 . S
C2969 C2963 1.491 . S
C2969 C2968 1.400 . S
C2969 C2970 1.398 . S
C2970 H2958 0.950 . S
C2970 C2969 1.398 . S
C2970 C2971 1.391 . S
C2971 H2959 0.950 . S
C2971 C2967 1.393 . S
C2971 C2970 1.391 . S
H2972 C2980 0.950 . S
H2973 C2985 0.950 . S
H2974 C2982 0.950 . S
H2975 C2984 0.950 . S
H2976 C2986 0.950 . S
H2977 C2988 0.950 . S
H2978 C2990 0.950 . S
H2979 C2991 0.950 . S
C2980 H2972 0.950 . S
C2980 C2981 1.386 . S
C2980 C2982 1.391 . S
C2981 C2980 1.386 . S
C2981 C2985 1.393 . S
C2982 H2974 0.950 . S
C2982 C2980 1.391 . S
C2982 C2983 1.400 . S
C2983 C2982 1.400 . S
C2983 C2984 1.398 . S
C2983 C2989 1.491 . S
C2984 H2975 0.950 . S
C2984 C2983 1.398 . S
C2984 C2985 1.391 . S
C2985 H2973 0.950 . S
C2985 C2981 1.393 . S
C2985 C2984 1.391 . S
C2986 H2976 0.950 . S
C2986 C2987 1.386 . S
C2986 C2988 1.391 . S
C2987 C2986 1.386 . S
C2987 C2991 1.393 . S
C2988 H2977 0.950 . S
C2988 C2986 1.391 . S
C2988 C2989 1.400 . S
C2989 C2983 1.491 . S
C2989 C2988 1.400 . S
C2989 C2990 1.398 . S
C2990 H2978 0.950 . S
C2990 C2989 1.398 . S
C2990 C2991 1.391 . S
C2991 H2979 0.950 . S
C2991 C2987 1.393 . S
C2991 C2990 1.391 . S
H2992 C3000 0.950 . S
H2993 C3005 0.950 . S
H2994 C3002 0.950 . S
H2995 C3004 0.950 . S
H2996 C3006 0.950 . S
H2997 C3008 0.950 . S
H2998 C3010 0.950 . S
H2999 C3011 0.950 . S
C3000 H2992 0.950 . S
C3000 C3001 1.386 . S
C3000 C3002 1.391 . S
C3001 C3000 1.386 . S
C3001 C3005 1.393 . S
C3002 H2994 0.950 . S
C3002 C3000 1.391 . S
C3002 C3003 1.400 . S
C3003 C3002 1.400 . S
C3003 C3004 1.398 . S
C3003 C3009 1.491 . S
C3004 H2995 0.950 . S
C3004 C3003 1.398 . S
C3004 C3005 1.391 . S
C3005 H2993 0.950 . S
C3005 C3001 1.393 . S
C3005 C3004 1.391 . S
C3006 H2996 0.950 . S
C3006 C3007 1.386 . S
C3006 C3008 1.391 . S
C3007 C3006 1.386 . S
C3007 C3011 1.393 . S
C3008 H2997 0.950 . S
C3008 C3006 1.391 . S
C3008 C3009 1.400 . S
C3009 C3003 1.491 . S
C3009 C3008 1.400 . S
C3009 C3010 1.398 . S
C3010 H2998 0.950 . S
C3010 C3009 1.398 . S
C3010 C3011 1.391 . S
C3011 H2999 0.950 . S
C3011 C3007 1.393 . S
C3011 C3010 1.391 . S
H3012 C3020 0.950 . S
H3013 C3025 0.950 . S
H3014 C3022 0.950 . S
H3015 C3024 0.950 . S
H3016 C3026 0.950 . S
H3017 C3028 0.950 . S
H3018 C3030 0.950 . S
H3019 C3031 0.950 . S
C3020 H3012 0.950 . S
C3020 C3021 1.386 . S
C3020 C3022 1.391 . S
C3021 C3020 1.386 . S
C3021 C3025 1.393 . S
C3022 H3014 0.950 . S
C3022 C3020 1.391 . S
C3022 C3023 1.400 . S
C3023 C3022 1.400 . S
C3023 C3024 1.398 . S
C3023 C3029 1.491 . S
C3024 H3015 0.950 . S
C3024 C3023 1.398 . S
C3024 C3025 1.391 . S
C3025 H3013 0.950 . S
C3025 C3021 1.393 . S
C3025 C3024 1.391 . S
C3026 H3016 0.950 . S
C3026 C3027 1.386 . S
C3026 C3028 1.391 . S
C3027 C3026 1.386 . S
C3027 C3031 1.393 . S
C3028 H3017 0.950 . S
C3028 C3026 1.391 . S
C3028 C3029 1.400 . S
C3029 C3023 1.491 . S
C3029 C3028 1.400 . S
C3029 C3030 1.398 . S
C3030 H3018 0.950 . S
C3030 C3029 1.398 . S
C3030 C3031 1.391 . S
C3031 H3019 0.950 . S
C3031 C3027 1.393 . S
C3031 C3030 1.391 . S
H3032 C3040 0.950 . S
H3033 C3045 0.950 . S
H3034 C3042 0.950 . S
H3035 C3044 0.950 . S
H3036 C3046 0.950 . S
H3037 C3048 0.950 . S
H3038 C3050 0.950 . S
H3039 C3051 0.950 . S
C3040 H3032 0.950 . S
C3040 C3041 1.386 . S
C3040 C3042 1.391 . S
C3041 C3040 1.386 . S
C3041 C3045 1.393 . S
C3042 H3034 0.950 . S
C3042 C3040 1.391 . S
C3042 C3043 1.400 . S
C3043 C3042 1.400 . S
C3043 C3044 1.398 . S
C3043 C3049 1.491 . S
C3044 H3035 0.950 . S
C3044 C3043 1.398 . S
C3044 C3045 1.391 . S
C3045 H3033 0.950 . S
C3045 C3041 1.393 . S
C3045 C3044 1.391 . S
C3046 H3036 0.950 . S
C3046 C3047 1.386 . S
C3046 C3048 1.391 . S
C3047 C3046 1.386 . S
C3047 C3051 1.393 . S
C3048 H3037 0.950 . S
C3048 C3046 1.391 . S
C3048 C3049 1.400 . S
C3049 C3043 1.491 . S
C3049 C3048 1.400 . S
C3049 C3050 1.398 . S
C3050 H3038 0.950 . S
C3050 C3049 1.398 . S
C3050 C3051 1.391 . S
C3051 H3039 0.950 . S
C3051 C3047 1.393 . S
C3051 C3050 1.391 . S
H3052 C3060 0.950 . S
H3053 C3065 0.950 . S
H3054 C3062 0.950 . S
H3055 C3064 0.950 . S
H3056 C3066 0.950 . S
H3057 C3068 0.950 . S
H3058 C3070 0.950 . S
H3059 C3071 0.950 . S
C3060 H3052 0.950 . S
C3060 C3061 1.386 . S
C3060 C3062 1.391 . S
C3061 C3060 1.386 . S
C3061 C3065 1.393 . S
C3062 H3054 0.950 . S
C3062 C3060 1.391 . S
C3062 C3063 1.400 . S
C3063 C3062 1.400 . S
C3063 C3064 1.398 . S
C3063 C3069 1.491 . S
C3064 H3055 0.950 . S
C3064 C3063 1.398 . S
C3064 C3065 1.391 . S
C3065 H3053 0.950 . S
C3065 C3061 1.393 . S
C3065 C3064 1.391 . S
C3066 H3056 0.950 . S
C3066 C3067 1.386 . S
C3066 C3068 1.391 . S
C3067 C3066 1.386 . S
C3067 C3071 1.393 . S
C3068 H3057 0.950 . S
C3068 C3066 1.391 . S
C3068 C3069 1.400 . S
C3069 C3063 1.491 . S
C3069 C3068 1.400 . S
C3069 C3070 1.398 . S
C3070 H3058 0.950 . S
C3070 C3069 1.398 . S
C3070 C3071 1.391 . S
C3071 H3059 0.950 . S
C3071 C3067 1.393 . S
C3071 C3070 1.391 . S
H3072 C3080 0.950 . S
H3073 C3085 0.950 . S
H3074 C3082 0.950 . S
H3075 C3084 0.950 . S
H3076 C3086 0.950 . S
H3077 C3088 0.950 . S
H3078 C3090 0.950 . S
H3079 C3091 0.950 . S
C3080 H3072 0.950 . S
C3080 C3081 1.386 . S
C3080 C3082 1.391 . S
C3081 C3080 1.386 . S
C3081 C3085 1.393 . S
C3082 H3074 0.950 . S
C3082 C3080 1.391 . S
C3082 C3083 1.400 . S
C3083 C3082 1.400 . S
C3083 C3084 1.398 . S
C3083 C3089 1.491 . S
C3084 H3075 0.950 . S
C3084 C3083 1.398 . S
C3084 C3085 1.391 . S
C3085 H3073 0.950 . S
C3085 C3081 1.393 . S
C3085 C3084 1.391 . S
C3086 H3076 0.950 . S
C3086 C3087 1.386 . S
C3086 C3088 1.391 . S
C3087 C3086 1.386 . S
C3087 C3091 1.393 . S
C3088 H3077 0.950 . S
C3088 C3086 1.391 . S
C3088 C3089 1.400 . S
C3089 C3083 1.491 . S
C3089 C3088 1.400 . S
C3089 C3090 1.398 . S
C3090 H3078 0.950 . S
C3090 C3089 1.398 . S
C3090 C3091 1.391 . S
C3091 H3079 0.950 . S
C3091 C3087 1.393 . S
C3091 C3090 1.391 . S
H3092 C3100 0.950 . S
H3093 C3105 0.950 . S
H3094 C3102 0.950 . S
H3095 C3104 0.950 . S
H3096 C3106 0.950 . S
H3097 C3108 0.950 . S
H3098 C3110 0.950 . S
H3099 C3111 0.950 . S
C3100 H3092 0.950 . S
C3100 C3101 1.386 . S
C3100 C3102 1.391 . S
C3101 C3100 1.386 . S
C3101 C3105 1.393 . S
C3102 H3094 0.950 . S
C3102 C3100 1.391 . S
C3102 C3103 1.400 . S
C3103 C3102 1.400 . S
C3103 C3104 1.398 . S
C3103 C3109 1.491 . S
C3104 H3095 0.950 . S
C3104 C3103 1.398 . S
C3104 C3105 1.391 . S
C3105 H3093 0.950 . S
C3105 C3101 1.393 . S
C3105 C3104 1.391 . S
C3106 H3096 0.950 . S
C3106 C3107 1.386 . S
C3106 C3108 1.391 . S
C3107 C3106 1.386 . S
C3107 C3111 1.393 . S
C3108 H3097 0.950 . S
C3108 C3106 1.391 . S
C3108 C3109 1.400 . S
C3109 C3103 1.491 . S
C3109 C3108 1.400 . S
C3109 C3110 1.398 . S
C3110 H3098 0.950 . S
C3110 C3109 1.398 . S
C3110 C3111 1.391 . S
C3111 H3099 0.950 . S
C3111 C3107 1.393 . S
C3111 C3110 1.391 . S
H3112 C3120 0.950 . S
H3113 C3125 0.950 . S
H3114 C3122 0.950 . S
H3115 C3124 0.950 . S
H3116 C3126 0.950 . S
H3117 C3128 0.950 . S
H3118 C3130 0.950 . S
H3119 C3131 0.950 . S
C3120 H3112 0.950 . S
C3120 C3121 1.386 . S
C3120 C3122 1.391 . S
C3121 C3120 1.386 . S
C3121 C3125 1.393 . S
C3122 H3114 0.950 . S
C3122 C3120 1.391 . S
C3122 C3123 1.400 . S
C3123 C3122 1.400 . S
C3123 C3124 1.398 . S
C3123 C3129 1.491 . S
C3124 H3115 0.950 . S
C3124 C3123 1.398 . S
C3124 C3125 1.391 . S
C3125 H3113 0.950 . S
C3125 C3121 1.393 . S
C3125 C3124 1.391 . S
C3126 H3116 0.950 . S
C3126 C3127 1.386 . S
C3126 C3128 1.391 . S
C3127 C3126 1.386 . S
C3127 C3131 1.393 . S
C3128 H3117 0.950 . S
C3128 C3126 1.391 . S
C3128 C3129 1.400 . S
C3129 C3123 1.491 . S
C3129 C3128 1.400 . S
C3129 C3130 1.398 . S
C3130 H3118 0.950 . S
C3130 C3129 1.398 . S
C3130 C3131 1.391 . S
C3131 H3119 0.950 . S
C3131 C3127 1.393 . S
C3131 C3130 1.391 . S
H3132 C3140 0.950 . S
H3133 C3145 0.950 . S
H3134 C3142 0.950 . S
H3135 C3144 0.950 . S
H3136 C3146 0.950 . S
H3137 C3148 0.950 . S
H3138 C3150 0.950 . S
H3139 C3151 0.950 . S
C3140 H3132 0.950 . S
C3140 C3141 1.386 . S
C3140 C3142 1.391 . S
C3141 C3140 1.386 . S
C3141 C3145 1.393 . S
C3142 H3134 0.950 . S
C3142 C3140 1.391 . S
C3142 C3143 1.400 . S
C3143 C3142 1.400 . S
C3143 C3144 1.398 . S
C3143 C3149 1.491 . S
C3144 H3135 0.950 . S
C3144 C3143 1.398 . S
C3144 C3145 1.391 . S
C3145 H3133 0.950 . S
C3145 C3141 1.393 . S
C3145 C3144 1.391 . S
C3146 H3136 0.950 . S
C3146 C3147 1.386 . S
C3146 C3148 1.391 . S
C3147 C3146 1.386 . S
C3147 C3151 1.393 . S
C3148 H3137 0.950 . S
C3148 C3146 1.391 . S
C3148 C3149 1.400 . S
C3149 C3143 1.491 . S
C3149 C3148 1.400 . S
C3149 C3150 1.398 . S
C3150 H3138 0.950 . S
C3150 C3149 1.398 . S
C3150 C3151 1.391 . S
C3151 H3139 0.950 . S
C3151 C3147 1.393 . S
C3151 C3150 1.391 . S
H3152 C3160 0.950 . S
H3153 C3165 0.950 . S
H3154 C3162 0.950 . S
H3155 C3164 0.950 . S
H3156 C3166 0.950 . S
H3157 C3168 0.950 . S
H3158 C3170 0.950 . S
H3159 C3171 0.950 . S
C3160 H3152 0.950 . S
C3160 C3161 1.386 . S
C3160 C3162 1.391 . S
C3161 C3160 1.386 . S
C3161 C3165 1.393 . S
C3162 H3154 0.950 . S
C3162 C3160 1.391 . S
C3162 C3163 1.400 . S
C3163 C3162 1.400 . S
C3163 C3164 1.398 . S
C3163 C3169 1.491 . S
C3164 H3155 0.950 . S
C3164 C3163 1.398 . S
C3164 C3165 1.391 . S
C3165 H3153 0.950 . S
C3165 C3161 1.393 . S
C3165 C3164 1.391 . S
C3166 H3156 0.950 . S
C3166 C3167 1.386 . S
C3166 C3168 1.391 . S
C3167 C3166 1.386 . S
C3167 C3171 1.393 . S
C3168 H3157 0.950 . S
C3168 C3166 1.391 . S
C3168 C3169 1.400 . S
C3169 C3163 1.491 . S
C3169 C3168 1.400 . S
C3169 C3170 1.398 . S
C3170 H3158 0.950 . S
C3170 C3169 1.398 . S
C3170 C3171 1.391 . S
C3171 H3159 0.950 . S
C3171 C3167 1.393 . S
C3171 C3170 1.391 . S
H3172 C3180 0.950 . S
H3173 C3185 0.950 . S
H3174 C3182 0.950 . S
H3175 C3184 0.950 . S
H3176 C3186 0.950 . S
H3177 C3188 0.950 . S
H3178 C3190 0.950 . S
H3179 C3191 0.950 . S
C3180 H3172 0.950 . S
C3180 C3181 1.386 . S
C3180 C3182 1.391 . S
C3181 C3180 1.386 . S
C3181 C3185 1.393 . S
C3182 H3174 0.950 . S
C3182 C3180 1.391 . S
C3182 C3183 1.400 . S
C3183 C3182 1.400 . S
C3183 C3184 1.398 . S
C3183 C3189 1.491 . S
C3184 H3175 0.950 . S
C3184 C3183 1.398 . S
C3184 C3185 1.391 . S
C3185 H3173 0.950 . S
C3185 C3181 1.393 . S
C3185 C3184 1.391 . S
C3186 H3176 0.950 . S
C3186 C3187 1.386 . S
C3186 C3188 1.391 . S
C3187 C3186 1.386 . S
C3187 C3191 1.393 . S
C3188 H3177 0.950 . S
C3188 C3186 1.391 . S
C3188 C3189 1.400 . S
C3189 C3183 1.491 . S
C3189 C3188 1.400 . S
C3189 C3190 1.398 . S
C3190 H3178 0.950 . S
C3190 C3189 1.398 . S
C3190 C3191 1.391 . S
C3191 H3179 0.950 . S
C3191 C3187 1.393 . S
C3191 C3190 1.391 . S
H3192 C3200 0.950 . S
H3193 C3205 0.950 . S
H3194 C3202 0.950 . S
H3195 C3204 0.950 . S
H3196 C3206 0.950 . S
H3197 C3208 0.950 . S
H3198 C3210 0.950 . S
H3199 C3211 0.950 . S
C3200 H3192 0.950 . S
C3200 C3201 1.386 . S
C3200 C3202 1.391 . S
C3201 C3200 1.386 . S
C3201 C3205 1.393 . S
C3202 H3194 0.950 . S
C3202 C3200 1.391 . S
C3202 C3203 1.400 . S
C3203 C3202 1.400 . S
C3203 C3204 1.398 . S
C3203 C3209 1.491 . S
C3204 H3195 0.950 . S
C3204 C3203 1.398 . S
C3204 C3205 1.391 . S
C3205 H3193 0.950 . S
C3205 C3201 1.393 . S
C3205 C3204 1.391 . S
C3206 H3196 0.950 . S
C3206 C3207 1.386 . S
C3206 C3208 1.391 . S
C3207 C3206 1.386 . S
C3207 C3211 1.393 . S
C3208 H3197 0.950 . S
C3208 C3206 1.391 . S
C3208 C3209 1.400 . S
C3209 C3203 1.491 . S
C3209 C3208 1.400 . S
C3209 C3210 1.398 . S
C3210 H3198 0.950 . S
C3210 C3209 1.398 . S
C3210 C3211 1.391 . S
C3211 H3199 0.950 . S
C3211 C3207 1.393 . S
C3211 C3210 1.391 . S
H3212 C3220 0.950 . S
H3213 C3225 0.950 . S
H3214 C3222 0.950 . S
H3215 C3224 0.950 . S
H3216 C3226 0.950 . S
H3217 C3228 0.950 . S
H3218 C3230 0.950 . S
H3219 C3231 0.950 . S
C3220 H3212 0.950 . S
C3220 C3221 1.386 . S
C3220 C3222 1.391 . S
C3221 C3220 1.386 . S
C3221 C3225 1.393 . S
C3222 H3214 0.950 . S
C3222 C3220 1.391 . S
C3222 C3223 1.400 . S
C3223 C3222 1.400 . S
C3223 C3224 1.398 . S
C3223 C3229 1.491 . S
C3224 H3215 0.950 . S
C3224 C3223 1.398 . S
C3224 C3225 1.391 . S
C3225 H3213 0.950 . S
C3225 C3221 1.393 . S
C3225 C3224 1.391 . S
C3226 H3216 0.950 . S
C3226 C3227 1.386 . S
C3226 C3228 1.391 . S
C3227 C3226 1.386 . S
C3227 C3231 1.393 . S
C3228 H3217 0.950 . S
C3228 C3226 1.391 . S
C3228 C3229 1.400 . S
C3229 C3223 1.491 . S
C3229 C3228 1.400 . S
C3229 C3230 1.398 . S
C3230 H3218 0.950 . S
C3230 C3229 1.398 . S
C3230 C3231 1.391 . S
C3231 H3219 0.950 . S
C3231 C3227 1.393 . S
C3231 C3230 1.391 . S
H3232 C3240 0.950 . S
H3233 C3245 0.950 . S
H3234 C3242 0.950 . S
H3235 C3244 0.950 . S
H3236 C3246 0.950 . S
H3237 C3248 0.950 . S
H3238 C3250 0.950 . S
H3239 C3251 0.950 . S
C3240 H3232 0.950 . S
C3240 C3241 1.386 . S
C3240 C3242 1.391 . S
C3241 C3240 1.386 . S
C3241 C3245 1.393 . S
C3242 H3234 0.950 . S
C3242 C3240 1.391 . S
C3242 C3243 1.400 . S
C3243 C3242 1.400 . S
C3243 C3244 1.398 . S
C3243 C3249 1.491 . S
C3244 H3235 0.950 . S
C3244 C3243 1.398 . S
C3244 C3245 1.391 . S
C3245 H3233 0.950 . S
C3245 C3241 1.393 . S
C3245 C3244 1.391 . S
C3246 H3236 0.950 . S
C3246 C3247 1.386 . S
C3246 C3248 1.391 . S
C3247 C3246 1.386 . S
C3247 C3251 1.393 . S
C3248 H3237 0.950 . S
C3248 C3246 1.391 . S
C3248 C3249 1.400 . S
C3249 C3243 1.491 . S
C3249 C3248 1.400 . S
C3249 C3250 1.398 . S
C3250 H3238 0.950 . S
C3250 C3249 1.398 . S
C3250 C3251 1.391 . S
C3251 H3239 0.950 . S
C3251 C3247 1.393 . S
C3251 C3250 1.391 . S
H3252 C3260 0.950 . S
H3253 C3265 0.950 . S
H3254 C3262 0.950 . S
H3255 C3264 0.950 . S
H3256 C3266 0.950 . S
H3257 C3268 0.950 . S
H3258 C3270 0.950 . S
H3259 C3271 0.950 . S
C3260 H3252 0.950 . S
C3260 C3261 1.386 . S
C3260 C3262 1.391 . S
C3261 C3260 1.386 . S
C3261 C3265 1.393 . S
C3262 H3254 0.950 . S
C3262 C3260 1.391 . S
C3262 C3263 1.400 . S
C3263 C3262 1.400 . S
C3263 C3264 1.398 . S
C3263 C3269 1.491 . S
C3264 H3255 0.950 . S
C3264 C3263 1.398 . S
C3264 C3265 1.391 . S
C3265 H3253 0.950 . S
C3265 C3261 1.393 . S
C3265 C3264 1.391 . S
C3266 H3256 0.950 . S
C3266 C3267 1.386 . S
C3266 C3268 1.391 . S
C3267 C3266 1.386 . S
C3267 C3271 1.393 . S
C3268 H3257 0.950 . S
C3268 C3266 1.391 . S
C3268 C3269 1.400 . S
C3269 C3263 1.491 . S
C3269 C3268 1.400 . S
C3269 C3270 1.398 . S
C3270 H3258 0.950 . S
C3270 C3269 1.398 . S
C3270 C3271 1.391 . S
C3271 H3259 0.950 . S
C3271 C3267 1.393 . S
C3271 C3270 1.391 . S
H3272 C3280 0.950 . S
H3273 C3285 0.950 . S
H3274 C3282 0.950 . S
H3275 C3284 0.950 . S
H3276 C3286 0.950 . S
H3277 C3288 0.950 . S
H3278 C3290 0.950 . S
H3279 C3291 0.950 . S
C3280 H3272 0.950 . S
C3280 C3281 1.386 . S
C3280 C3282 1.391 . S
C3281 C3280 1.386 . S
C3281 C3285 1.393 . S
C3282 H3274 0.950 . S
C3282 C3280 1.391 . S
C3282 C3283 1.400 . S
C3283 C3282 1.400 . S
C3283 C3284 1.398 . S
C3283 C3289 1.491 . S
C3284 H3275 0.950 . S
C3284 C3283 1.398 . S
C3284 C3285 1.391 . S
C3285 H3273 0.950 . S
C3285 C3281 1.393 . S
C3285 C3284 1.391 . S
C3286 H3276 0.950 . S
C3286 C3287 1.386 . S
C3286 C3288 1.391 . S
C3287 C3286 1.386 . S
C3287 C3291 1.393 . S
C3288 H3277 0.950 . S
C3288 C3286 1.391 . S
C3288 C3289 1.400 . S
C3289 C3283 1.491 . S
C3289 C3288 1.400 . S
C3289 C3290 1.398 . S
C3290 H3278 0.950 . S
C3290 C3289 1.398 . S
C3290 C3291 1.391 . S
C3291 H3279 0.950 . S
C3291 C3287 1.393 . S
C3291 C3290 1.391 . S
H3292 C3300 0.950 . S
H3293 C3305 0.950 . S
H3294 C3302 0.950 . S
H3295 C3304 0.950 . S
H3296 C3306 0.950 . S
H3297 C3308 0.950 . S
H3298 C3310 0.950 . S
H3299 C3311 0.950 . S
C3300 H3292 0.950 . S
C3300 C3301 1.386 . S
C3300 C3302 1.391 . S
C3301 C3300 1.386 . S
C3301 C3305 1.393 . S
C3302 H3294 0.950 . S
C3302 C3300 1.391 . S
C3302 C3303 1.400 . S
C3303 C3302 1.400 . S
C3303 C3304 1.398 . S
C3303 C3309 1.491 . S
C3304 H3295 0.950 . S
C3304 C3303 1.398 . S
C3304 C3305 1.391 . S
C3305 H3293 0.950 . S
C3305 C3301 1.393 . S
C3305 C3304 1.391 . S
C3306 H3296 0.950 . S
C3306 C3307 1.386 . S
C3306 C3308 1.391 . S
C3307 C3306 1.386 . S
C3307 C3311 1.393 . S
C3308 H3297 0.950 . S
C3308 C3306 1.391 . S
C3308 C3309 1.400 . S
C3309 C3303 1.491 . S
C3309 C3308 1.400 . S
C3309 C3310 1.398 . S
C3310 H3298 0.950 . S
C3310 C3309 1.398 . S
C3310 C3311 1.391 . S
C3311 H3299 0.950 . S
C3311 C3307 1.393 . S
C3311 C3310 1.391 . S
H3312 C3320 0.950 . S
H3313 C3325 0.950 . S
H3314 C3322 0.950 . S
H3315 C3324 0.950 . S
H3316 C3326 0.950 . S
H3317 C3328 0.950 . S
H3318 C3330 0.950 . S
H3319 C3331 0.950 . S
C3320 H3312 0.950 . S
C3320 C3321 1.386 . S
C3320 C3322 1.391 . S
C3321 C3320 1.386 . S
C3321 C3325 1.393 . S
C3322 H3314 0.950 . S
C3322 C3320 1.391 . S
C3322 C3323 1.400 . S
C3323 C3322 1.400 . S
C3323 C3324 1.398 . S
C3323 C3329 1.491 . S
C3324 H3315 0.950 . S
C3324 C3323 1.398 . S
C3324 C3325 1.391 . S
C3325 H3313 0.950 . S
C3325 C3321 1.393 . S
C3325 C3324 1.391 . S
C3326 H3316 0.950 . S
C3326 C3327 1.386 . S
C3326 C3328 1.391 . S
C3327 C3326 1.386 . S
C3327 C3331 1.393 . S
C3328 H3317 0.950 . S
C3328 C3326 1.391 . S
C3328 C3329 1.400 . S
C3329 C3323 1.491 . S
C3329 C3328 1.400 . S
C3329 C3330 1.398 . S
C3330 H3318 0.950 . S
C3330 C3329 1.398 . S
C3330 C3331 1.391 . S
C3331 H3319 0.950 . S
C3331 C3327 1.393 . S
C3331 C3330 1.391 . S
H3332 C3340 0.950 . S
H3333 C3345 0.950 . S
H3334 C3342 0.950 . S
H3335 C3344 0.950 . S
H3336 C3346 0.950 . S
H3337 C3348 0.950 . S
H3338 C3350 0.950 . S
H3339 C3351 0.950 . S
C3340 H3332 0.950 . S
C3340 C3341 1.386 . S
C3340 C3342 1.391 . S
C3341 C3340 1.386 . S
C3341 C3345 1.393 . S
C3342 H3334 0.950 . S
C3342 C3340 1.391 . S
C3342 C3343 1.400 . S
C3343 C3342 1.400 . S
C3343 C3344 1.398 . S
C3343 C3349 1.491 . S
C3344 H3335 0.950 . S
C3344 C3343 1.398 . S
C3344 C3345 1.391 . S
C3345 H3333 0.950 . S
C3345 C3341 1.393 . S
C3345 C3344 1.391 . S
C3346 H3336 0.950 . S
C3346 C3347 1.386 . S
C3346 C3348 1.391 . S
C3347 C3346 1.386 . S
C3347 C3351 1.393 . S
C3348 H3337 0.950 . S
C3348 C3346 1.391 . S
C3348 C3349 1.400 . S
C3349 C3343 1.491 . S
C3349 C3348 1.400 . S
C3349 C3350 1.398 . S
C3350 H3338 0.950 . S
C3350 C3349 1.398 . S
C3350 C3351 1.391 . S
C3351 H3339 0.950 . S
C3351 C3347 1.393 . S
C3351 C3350 1.391 . S
H3352 C3360 0.950 . S
H3353 C3365 0.950 . S
H3354 C3362 0.950 . S
H3355 C3364 0.950 . S
H3356 C3366 0.950 . S
H3357 C3368 0.950 . S
H3358 C3370 0.950 . S
H3359 C3371 0.950 . S
C3360 H3352 0.950 . S
C3360 C3361 1.386 . S
C3360 C3362 1.391 . S
C3361 C3360 1.386 . S
C3361 C3365 1.393 . S
C3362 H3354 0.950 . S
C3362 C3360 1.391 . S
C3362 C3363 1.400 . S
C3363 C3362 1.400 . S
C3363 C3364 1.398 . S
C3363 C3369 1.491 . S
C3364 H3355 0.950 . S
C3364 C3363 1.398 . S
C3364 C3365 1.391 . S
C3365 H3353 0.950 . S
C3365 C3361 1.393 . S
C3365 C3364 1.391 . S
C3366 H3356 0.950 . S
C3366 C3367 1.386 . S
C3366 C3368 1.391 . S
C3367 C3366 1.386 . S
C3367 C3371 1.393 . S
C3368 H3357 0.950 . S
C3368 C3366 1.391 . S
C3368 C3369 1.400 . S
C3369 C3363 1.491 . S
C3369 C3368 1.400 . S
C3369 C3370 1.398 . S
C3370 H3358 0.950 . S
C3370 C3369 1.398 . S
C3370 C3371 1.391 . S
C3371 H3359 0.950 . S
C3371 C3367 1.393 . S
C3371 C3370 1.391 . S
H3372 C3380 0.950 . S
H3373 C3385 0.950 . S
H3374 C3382 0.950 . S
H3375 C3384 0.950 . S
H3376 C3386 0.950 . S
H3377 C3388 0.950 . S
H3378 C3390 0.950 . S
H3379 C3391 0.950 . S
C3380 H3372 0.950 . S
C3380 C3381 1.386 . S
C3380 C3382 1.391 . S
C3381 C3380 1.386 . S
C3381 C3385 1.393 . S
C3382 H3374 0.950 . S
C3382 C3380 1.391 . S
C3382 C3383 1.400 . S
C3383 C3382 1.400 . S
C3383 C3384 1.398 . S
C3383 C3389 1.491 . S
C3384 H3375 0.950 . S
C3384 C3383 1.398 . S
C3384 C3385 1.391 . S
C3385 H3373 0.950 . S
C3385 C3381 1.393 . S
C3385 C3384 1.391 . S
C3386 H3376 0.950 . S
C3386 C3387 1.386 . S
C3386 C3388 1.391 . S
C3387 C3386 1.386 . S
C3387 C3391 1.393 . S
C3388 H3377 0.950 . S
C3388 C3386 1.391 . S
C3388 C3389 1.400 . S
C3389 C3383 1.491 . S
C3389 C3388 1.400 . S
C3389 C3390 1.398 . S
C3390 H3378 0.950 . S
C3390 C3389 1.398 . S
C3390 C3391 1.391 . S
C3391 H3379 0.950 . S
C3391 C3387 1.393 . S
C3391 C3390 1.391 . S
H3392 C3400 0.950 . S
H3393 C3405 0.950 . S
H3394 C3402 0.950 . S
H3395 C3404 0.950 . S
H3396 C3406 0.950 . S
H3397 C3408 0.950 . S
H3398 C3410 0.950 . S
H3399 C3411 0.950 . S
C3400 H3392 0.950 . S
C3400 C3401 1.386 . S
C3400 C3402 1.391 . S
C3401 C3400 1.386 . S
C3401 C3405 1.393 . S
C3402 H3394 0.950 . S
C3402 C3400 1.391 . S
C3402 C3403 1.400 . S
C3403 C3402 1.400 . S
C3403 C3404 1.398 . S
C3403 C3409 1.491 . S
C3404 H3395 0.950 . S
C3404 C3403 1.398 . S
C3404 C3405 1.391 . S
C3405 H3393 0.950 . S
C3405 C3401 1.393 . S
C3405 C3404 1.391 . S
C3406 H3396 0.950 . S
C3406 C3407 1.386 . S
C3406 C3408 1.391 . S
C3407 C3406 1.386 . S
C3407 C3411 1.393 . S
C3408 H3397 0.950 . S
C3408 C3406 1.391 . S
C3408 C3409 1.400 . S
C3409 C3403 1.491 . S
C3409 C3408 1.400 . S
C3409 C3410 1.398 . S
C3410 H3398 0.950 . S
C3410 C3409 1.398 . S
C3410 C3411 1.391 . S
C3411 H3399 0.950 . S
C3411 C3407 1.393 . S
C3411 C3410 1.391 . S
H3412 C3420 0.950 . S
H3413 C3425 0.950 . S
H3414 C3422 0.950 . S
H3415 C3424 0.950 . S
H3416 C3426 0.950 . S
H3417 C3428 0.950 . S
H3418 C3430 0.950 . S
H3419 C3431 0.950 . S
C3420 H3412 0.950 . S
C3420 C3421 1.386 . S
C3420 C3422 1.391 . S
C3421 C3420 1.386 . S
C3421 C3425 1.393 . S
C3422 H3414 0.950 . S
C3422 C3420 1.391 . S
C3422 C3423 1.400 . S
C3423 C3422 1.400 . S
C3423 C3424 1.398 . S
C3423 C3429 1.491 . S
C3424 H3415 0.950 . S
C3424 C3423 1.398 . S
C3424 C3425 1.391 . S
C3425 H3413 0.950 . S
C3425 C3421 1.393 . S
C3425 C3424 1.391 . S
C3426 H3416 0.950 . S
C3426 C3427 1.386 . S
C3426 C3428 1.391 . S
C3427 C3426 1.386 . S
C3427 C3431 1.393 . S
C3428 H3417 0.950 . S
C3428 C3426 1.391 . S
C3428 C3429 1.400 . S
C3429 C3423 1.491 . S
C3429 C3428 1.400 . S
C3429 C3430 1.398 . S
C3430 H3418 0.950 . S
C3430 C3429 1.398 . S
C3430 C3431 1.391 . S
C3431 H3419 0.950 . S
C3431 C3427 1.393 . S
C3431 C3430 1.391 . S
H3432 C3440 0.950 . S
H3433 C3445 0.950 . S
H3434 C3442 0.950 . S
H3435 C3444 0.950 . S
H3436 C3446 0.950 . S
H3437 C3448 0.950 . S
H3438 C3450 0.950 . S
H3439 C3451 0.929 1_655 S
C3440 H3432 0.950 . S
C3440 C3441 1.386 . S
C3440 C3442 1.391 . S
C3441 C3440 1.386 . S
C3441 C3445 1.393 . S
C3442 H3434 0.950 . S
C3442 C3440 1.391 . S
C3442 C3443 1.400 . S
C3443 C3442 1.400 . S
C3443 C3444 1.398 . S
C3443 C3449 1.491 . S
C3444 H3435 0.950 . S
C3444 C3443 1.398 . S
C3444 C3445 1.391 . S
C3445 H3433 0.950 . S
C3445 C3441 1.393 . S
C3445 C3444 1.391 . S
C3446 H3436 0.950 . S
C3446 C3447 1.386 . S
C3446 C3448 1.391 . S
C3447 C3446 1.386 . S
C3447 C3451 1.393 . S
C3448 H3437 0.950 . S
C3448 C3446 1.391 . S
C3448 C3449 1.400 . S
C3449 C3443 1.491 . S
C3449 C3448 1.400 . S
C3449 C3450 1.398 . S
C3450 H3438 0.950 . S
C3450 C3449 1.398 . S
C3450 C3451 1.391 . S
C3451 H3439 0.929 1_455 S
C3451 C3447 1.393 . S
C3451 C3450 1.391 . S
H3452 C3460 0.950 . S
H3453 C3465 0.950 . S
H3454 C3462 0.950 . S
H3455 C3464 0.950 . S
H3456 C3466 0.950 . S
H3457 C3468 0.950 . S
H3458 C3470 0.950 . S
H3459 C3471 0.950 . S
C3460 H3452 0.950 . S
C3460 C3461 1.386 . S
C3460 C3462 1.391 . S
C3461 C3460 1.386 . S
C3461 C3465 1.393 . S
C3462 H3454 0.950 . S
C3462 C3460 1.391 . S
C3462 C3463 1.400 . S
C3463 C3462 1.400 . S
C3463 C3464 1.398 . S
C3463 C3469 1.491 . S
C3464 H3455 0.950 . S
C3464 C3463 1.398 . S
C3464 C3465 1.391 . S
C3465 H3453 0.950 . S
C3465 C3461 1.393 . S
C3465 C3464 1.391 . S
C3466 H3456 0.950 . S
C3466 C3467 1.386 . S
C3466 C3468 1.391 . S
C3467 C3466 1.386 . S
C3467 C3471 1.393 . S
C3468 H3457 0.950 . S
C3468 C3466 1.391 . S
C3468 C3469 1.400 . S
C3469 C3463 1.491 . S
C3469 C3468 1.400 . S
C3469 C3470 1.398 . S
C3470 H3458 0.950 . S
C3470 C3469 1.398 . S
C3470 C3471 1.391 . S
C3471 H3459 0.950 . S
C3471 C3467 1.393 . S
C3471 C3470 1.391 . S
H3472 C3480 0.950 . S
H3473 C3485 0.950 . S
H3474 C3482 0.951 1_545 S
H3475 C3484 0.950 . S
H3476 C3486 0.950 . S
H3477 C3488 0.950 . S
H3478 C3490 0.965 . S
H3479 C3491 0.950 . S
C3480 H3472 0.950 . S
C3480 C3481 1.386 . S
C3480 C3482 1.391 . S
C3481 C3480 1.386 . S
C3481 C3485 1.393 . S
C3482 H3474 0.951 1_565 S
C3482 C3480 1.391 . S
C3482 C3483 1.400 . S
C3483 C3482 1.400 . S
C3483 C3484 1.398 . S
C3483 C3489 1.491 . S
C3484 H3475 0.950 . S
C3484 C3483 1.398 . S
C3484 C3485 1.391 . S
C3485 H3473 0.950 . S
C3485 C3481 1.393 . S
C3485 C3484 1.391 . S
C3486 H3476 0.950 . S
C3486 C3487 1.386 . S
C3486 C3488 1.391 . S
C3487 C3486 1.386 . S
C3487 C3491 1.393 1_565 S
C3488 H3477 0.950 . S
C3488 C3486 1.391 . S
C3488 C3489 1.400 . S
C3489 C3483 1.491 . S
C3489 C3488 1.400 . S
C3489 C3490 1.401 1_565 S
C3490 H3478 0.965 . S
C3490 C3489 1.401 1_545 S
C3490 C3491 1.376 . S
C3491 H3479 0.950 . S
C3491 C3487 1.393 1_545 S
C3491 C3490 1.376 . S
H3492 C3500 0.950 . S
H3493 C3505 0.950 . S
H3494 C3502 0.950 . S
H3495 C3504 0.950 . S
H3496 C3506 0.950 . S
H3497 C3508 0.950 . S
H3498 C3510 0.950 . S
H3499 C3511 0.950 1_545 S
C3500 H3492 0.950 . S
C3500 C3501 1.386 . S
C3500 C3502 1.391 . S
C3501 C3500 1.386 . S
C3501 C3505 1.393 . S
C3502 H3494 0.950 . S
C3502 C3500 1.391 . S
C3502 C3503 1.400 . S
C3503 C3502 1.400 . S
C3503 C3504 1.398 . S
C3503 C3509 1.491 . S
C3504 H3495 0.950 . S
C3504 C3503 1.398 . S
C3504 C3505 1.391 . S
C3505 H3493 0.950 . S
C3505 C3501 1.393 . S
C3505 C3504 1.391 . S
C3506 H3496 0.950 . S
C3506 C3507 1.386 . S
C3506 C3508 1.391 . S
C3507 C3506 1.386 . S
C3507 C3511 1.393 . S
C3508 H3497 0.950 . S
C3508 C3506 1.391 . S
C3508 C3509 1.400 . S
C3509 C3503 1.491 . S
C3509 C3508 1.400 . S
C3509 C3510 1.398 . S
C3510 H3498 0.950 . S
C3510 C3509 1.398 . S
C3510 C3511 1.391 . S
C3511 H3499 0.950 1_565 S
C3511 C3507 1.393 . S
C3511 C3510 1.391 . S
H3512 C3520 0.950 . S
H3513 C3525 0.950 . S
H3514 C3522 0.950 . S
H3515 C3524 0.950 1_655 S
H3516 C3526 0.950 . S
H3517 C3528 0.942 1_655 S
H3518 C3530 0.950 . S
H3519 C3531 0.950 . S
C3520 H3512 0.950 . S
C3520 C3521 1.386 . S
C3520 C3522 1.391 . S
C3521 C3520 1.386 . S
C3521 C3525 1.393 . S
C3522 H3514 0.950 . S
C3522 C3520 1.391 . S
C3522 C3523 1.400 . S
C3523 C3522 1.400 . S
C3523 C3524 1.398 . S
C3523 C3529 1.491 . S
C3524 H3515 0.950 1_455 S
C3524 C3523 1.398 . S
C3524 C3525 1.391 . S
C3525 H3513 0.950 . S
C3525 C3521 1.393 . S
C3525 C3524 1.391 . S
C3526 H3516 0.950 . S
C3526 C3527 1.386 1_655 S
C3526 C3528 1.395 1_655 S
C3527 C3526 1.386 1_455 S
C3527 C3531 1.393 . S
C3528 H3517 0.942 1_455 S
C3528 C3526 1.395 1_455 S
C3528 C3529 1.404 . S
C3529 C3523 1.491 . S
C3529 C3528 1.404 . S
C3529 C3530 1.398 . S
C3530 H3518 0.950 . S
C3530 C3529 1.398 . S
C3530 C3531 1.391 . S
C3531 H3519 0.950 . S
C3531 C3527 1.393 . S
C3531 C3530 1.391 . S
H3532 C3540 0.950 . S
H3533 C3545 0.950 . S
H3534 C3542 0.950 . S
H3535 C3544 0.950 . S
H3536 C3546 0.950 . S
H3537 C3548 0.950 . S
H3538 C3550 0.950 . S
H3539 C3551 0.950 . S
C3540 H3532 0.950 . S
C3540 C3541 1.386 . S
C3540 C3542 1.391 . S
C3541 C3540 1.386 . S
C3541 C3545 1.393 . S
C3542 H3534 0.950 . S
C3542 C3540 1.391 . S
C3542 C3543 1.400 . S
C3543 C3542 1.400 . S
C3543 C3544 1.398 . S
C3543 C3549 1.491 . S
C3544 H3535 0.950 . S
C3544 C3543 1.398 . S
C3544 C3545 1.391 . S
C3545 H3533 0.950 . S
C3545 C3541 1.393 . S
C3545 C3544 1.391 . S
C3546 H3536 0.950 . S
C3546 C3547 1.386 . S
C3546 C3548 1.391 . S
C3547 C3546 1.386 . S
C3547 C3551 1.393 . S
C3548 H3537 0.950 . S
C3548 C3546 1.391 . S
C3548 C3549 1.400 . S
C3549 C3543 1.491 . S
C3549 C3548 1.400 . S
C3549 C3550 1.398 . S
C3550 H3538 0.950 . S
C3550 C3549 1.398 . S
C3550 C3551 1.391 . S
C3551 H3539 0.950 . S
C3551 C3547 1.393 . S
C3551 C3550 1.391 . S
H3552 C3560 0.950 . S
H3553 C3565 0.950 . S
H3554 C3562 0.950 . S
H3555 C3564 0.950 . S
H3556 C3566 0.950 . S
H3557 C3568 0.950 . S
H3558 C3570 0.950 . S
H3559 C3571 0.950 . S
C3560 H3552 0.950 . S
C3560 C3561 1.386 . S
C3560 C3562 1.391 . S
C3561 C3560 1.386 . S
C3561 C3565 1.393 . S
C3562 H3554 0.950 . S
C3562 C3560 1.391 . S
C3562 C3563 1.400 . S
C3563 C3562 1.400 . S
C3563 C3564 1.398 . S
C3563 C3569 1.491 . S
C3564 H3555 0.950 . S
C3564 C3563 1.398 . S
C3564 C3565 1.391 . S
C3565 H3553 0.950 . S
C3565 C3561 1.393 . S
C3565 C3564 1.391 . S
C3566 H3556 0.950 . S
C3566 C3567 1.386 . S
C3566 C3568 1.391 . S
C3567 C3566 1.386 . S
C3567 C3571 1.393 . S
C3568 H3557 0.950 . S
C3568 C3566 1.391 . S
C3568 C3569 1.400 . S
C3569 C3563 1.491 . S
C3569 C3568 1.400 . S
C3569 C3570 1.398 . S
C3570 H3558 0.950 . S
C3570 C3569 1.398 . S
C3570 C3571 1.391 . S
C3571 H3559 0.950 . S
C3571 C3567 1.393 . S
C3571 C3570 1.391 . S
H3572 C3580 0.950 . S
H3573 C3585 0.950 . S
H3574 C3582 0.950 . S
H3575 C3584 0.950 . S
H3576 C3586 0.950 . S
H3577 C3588 0.950 . S
H3578 C3590 0.950 . S
H3579 C3591 0.950 . S
C3580 H3572 0.950 . S
C3580 C3581 1.386 . S
C3580 C3582 1.391 . S
C3581 C3580 1.386 . S
C3581 C3585 1.393 . S
C3582 H3574 0.950 . S
C3582 C3580 1.391 . S
C3582 C3583 1.400 . S
C3583 C3582 1.400 . S
C3583 C3584 1.398 . S
C3583 C3589 1.491 . S
C3584 H3575 0.950 . S
C3584 C3583 1.398 . S
C3584 C3585 1.391 . S
C3585 H3573 0.950 . S
C3585 C3581 1.393 . S
C3585 C3584 1.391 . S
C3586 H3576 0.950 . S
C3586 C3587 1.386 . S
C3586 C3588 1.391 . S
C3587 C3586 1.386 . S
C3587 C3591 1.393 . S
C3588 H3577 0.950 . S
C3588 C3586 1.391 . S
C3588 C3589 1.400 . S
C3589 C3583 1.491 . S
C3589 C3588 1.400 . S
C3589 C3590 1.398 . S
C3590 H3578 0.950 . S
C3590 C3589 1.398 . S
C3590 C3591 1.391 . S
C3591 H3579 0.950 . S
C3591 C3587 1.393 . S
C3591 C3590 1.391 . S
H3592 C3600 0.950 . S
H3593 C3605 0.950 . S
H3594 C3602 0.950 . S
H3595 C3604 0.950 . S
H3596 C3606 0.950 . S
H3597 C3608 0.950 . S
H3598 C3610 0.950 . S
H3599 C3611 0.950 . S
C3600 H3592 0.950 . S
C3600 C3601 1.386 . S
C3600 C3602 1.391 . S
C3601 C3600 1.386 . S
C3601 C3605 1.393 . S
C3602 H3594 0.950 . S
C3602 C3600 1.391 . S
C3602 C3603 1.400 . S
C3603 C3602 1.400 . S
C3603 C3604 1.398 . S
C3603 C3609 1.491 . S
C3604 H3595 0.950 . S
C3604 C3603 1.398 . S
C3604 C3605 1.391 . S
C3605 H3593 0.950 . S
C3605 C3601 1.393 . S
C3605 C3604 1.391 . S
C3606 H3596 0.950 . S
C3606 C3607 1.386 . S
C3606 C3608 1.391 . S
C3607 C3606 1.386 . S
C3607 C3611 1.393 . S
C3608 H3597 0.950 . S
C3608 C3606 1.391 . S
C3608 C3609 1.400 . S
C3609 C3603 1.491 . S
C3609 C3608 1.400 . S
C3609 C3610 1.398 . S
C3610 H3598 0.950 . S
C3610 C3609 1.398 . S
C3610 C3611 1.391 . S
C3611 H3599 0.950 . S
C3611 C3607 1.393 . S
C3611 C3610 1.391 . S
H3612 C3620 0.950 1_565 S
H3613 C3625 0.950 . S
H3614 C3622 0.914 1_565 S
H3615 C3624 0.950 . S
H3616 C3626 0.950 . S
H3617 C3628 0.950 . S
H3618 C3630 0.950 . S
H3619 C3631 0.950 . S
C3620 H3612 0.950 1_545 S
C3620 C3621 1.386 . S
C3620 C3622 1.423 . S
C3621 C3620 1.386 . S
C3621 C3625 1.393 . S
C3622 H3614 0.914 1_545 S
C3622 C3620 1.423 . S
C3622 C3623 1.407 . S
C3623 C3622 1.407 . S
C3623 C3624 1.398 . S
C3623 C3629 1.491 . S
C3624 H3615 0.950 . S
C3624 C3623 1.398 . S
C3624 C3625 1.391 . S
C3625 H3613 0.950 . S
C3625 C3621 1.393 . S
C3625 C3624 1.391 . S
C3626 H3616 0.950 . S
C3626 C3627 1.386 . S
C3626 C3628 1.391 . S
C3627 C3626 1.386 . S
C3627 C3631 1.393 1_545 S
C3628 H3617 0.950 . S
C3628 C3626 1.391 . S
C3628 C3629 1.400 . S
C3629 C3623 1.491 . S
C3629 C3628 1.400 . S
C3629 C3630 1.398 1_545 S
C3630 H3618 0.950 . S
C3630 C3629 1.398 1_565 S
C3630 C3631 1.391 . S
C3631 H3619 0.950 . S
C3631 C3627 1.393 1_565 S
C3631 C3630 1.391 . S
H3632 C3640 0.950 1_455 S
H3633 C3645 0.950 . S
H3634 C3642 0.923 1_455 S
H3635 C3644 0.950 . S
H3636 C3646 0.950 . S
H3637 C3648 0.950 . S
H3638 C3650 0.950 . S
H3639 C3651 0.950 . S
C3640 H3632 0.950 1_655 S
C3640 C3641 1.386 . S
C3640 C3642 1.373 . S
C3641 C3640 1.386 . S
C3641 C3645 1.393 . S
C3642 H3634 0.923 1_655 S
C3642 C3640 1.373 . S
C3642 C3643 1.447 . S
C3643 C3642 1.447 . S
C3643 C3644 1.398 . S
C3643 C3649 1.491 . S
C3644 H3635 0.950 . S
C3644 C3643 1.398 . S
C3644 C3645 1.391 . S
C3645 H3633 0.950 . S
C3645 C3641 1.393 . S
C3645 C3644 1.391 . S
C3646 H3636 0.950 . S
C3646 C3647 1.386 . S
C3646 C3648 1.391 . S
C3647 C3646 1.386 . S
C3647 C3651 1.393 1_655 S
C3648 H3637 0.950 . S
C3648 C3646 1.391 . S
C3648 C3649 1.400 . S
C3649 C3643 1.491 . S
C3649 C3648 1.400 . S
C3649 C3650 1.398 1_655 S
C3650 H3638 0.950 . S
C3650 C3649 1.398 1_455 S
C3650 C3651 1.391 . S
C3651 H3639 0.950 . S
C3651 C3647 1.393 1_455 S
C3651 C3650 1.391 . S
H3652 C3660 0.950 . S
H3653 C3665 0.950 . S
H3654 C3662 0.950 . S
H3655 C3664 0.950 . S
H3656 C3666 0.950 . S
H3657 C3668 0.950 . S
H3658 C3670 0.950 . S
H3659 C3671 0.950 . S
C3660 H3652 0.950 . S
C3660 C3661 1.386 . S
C3660 C3662 1.391 . S
C3661 C3660 1.386 . S
C3661 C3665 1.393 . S
C3662 H3654 0.950 . S
C3662 C3660 1.391 . S
C3662 C3663 1.400 . S
C3663 C3662 1.400 . S
C3663 C3664 1.398 . S
C3663 C3669 1.491 . S
C3664 H3655 0.950 . S
C3664 C3663 1.398 . S
C3664 C3665 1.391 . S
C3665 H3653 0.950 . S
C3665 C3661 1.393 . S
C3665 C3664 1.391 . S
C3666 H3656 0.950 . S
C3666 C3667 1.386 . S
C3666 C3668 1.391 . S
C3667 C3666 1.386 . S
C3667 C3671 1.393 . S
C3668 H3657 0.950 . S
C3668 C3666 1.391 . S
C3668 C3669 1.400 . S
C3669 C3663 1.491 . S
C3669 C3668 1.400 . S
C3669 C3670 1.398 . S
C3670 H3658 0.950 . S
C3670 C3669 1.398 . S
C3670 C3671 1.391 . S
C3671 H3659 0.950 . S
C3671 C3667 1.393 . S
C3671 C3670 1.391 . S
H3672 C3680 0.950 . S
H3673 C3685 0.950 . S
H3674 C3682 0.950 . S
H3675 C3684 0.950 . S
H3676 C3686 0.950 . S
H3677 C3688 0.950 . S
H3678 C3690 0.950 . S
H3679 C3691 0.950 . S
C3680 H3672 0.950 . S
C3680 C3681 1.386 . S
C3680 C3682 1.391 . S
C3681 C3680 1.386 . S
C3681 C3685 1.393 . S
C3682 H3674 0.950 . S
C3682 C3680 1.391 . S
C3682 C3683 1.400 . S
C3683 C3682 1.400 . S
C3683 C3684 1.398 . S
C3683 C3689 1.491 . S
C3684 H3675 0.950 . S
C3684 C3683 1.398 . S
C3684 C3685 1.391 . S
C3685 H3673 0.950 . S
C3685 C3681 1.393 . S
C3685 C3684 1.391 . S
C3686 H3676 0.950 . S
C3686 C3687 1.386 . S
C3686 C3688 1.391 . S
C3687 C3686 1.386 . S
C3687 C3691 1.393 . S
C3688 H3677 0.950 . S
C3688 C3686 1.391 . S
C3688 C3689 1.400 . S
C3689 C3683 1.491 . S
C3689 C3688 1.400 . S
C3689 C3690 1.398 . S
C3690 H3678 0.950 . S
C3690 C3689 1.398 . S
C3690 C3691 1.391 . S
C3691 H3679 0.950 . S
C3691 C3687 1.393 . S
C3691 C3690 1.391 . S
H3692 C3700 0.950 . S
H3693 C3705 0.950 . S
H3694 C3702 0.950 . S
H3695 C3704 0.950 . S
H3696 C3706 0.950 . S
H3697 C3708 0.950 . S
H3698 C3710 0.950 . S
H3699 C3711 0.950 . S
C3700 H3692 0.950 . S
C3700 C3701 1.386 . S
C3700 C3702 1.391 . S
C3701 C3700 1.386 . S
C3701 C3705 1.393 . S
C3702 H3694 0.950 . S
C3702 C3700 1.391 . S
C3702 C3703 1.400 . S
C3703 C3702 1.400 . S
C3703 C3704 1.398 . S
C3703 C3709 1.491 . S
C3704 H3695 0.950 . S
C3704 C3703 1.398 . S
C3704 C3705 1.391 . S
C3705 H3693 0.950 . S
C3705 C3701 1.393 . S
C3705 C3704 1.391 . S
C3706 H3696 0.950 . S
C3706 C3707 1.386 . S
C3706 C3708 1.391 . S
C3707 C3706 1.386 . S
C3707 C3711 1.393 . S
C3708 H3697 0.950 . S
C3708 C3706 1.391 . S
C3708 C3709 1.400 . S
C3709 C3703 1.491 . S
C3709 C3708 1.400 . S
C3709 C3710 1.398 . S
C3710 H3698 0.950 . S
C3710 C3709 1.398 . S
C3710 C3711 1.391 . S
C3711 H3699 0.950 . S
C3711 C3707 1.393 . S
C3711 C3710 1.391 . S
H3712 C3720 0.950 . S
H3713 C3725 0.950 . S
H3714 C3722 0.950 . S
H3715 C3724 0.950 . S
H3716 C3726 0.950 . S
H3717 C3728 0.950 . S
H3718 C3730 0.950 . S
H3719 C3731 0.950 . S
C3720 H3712 0.950 . S
C3720 C3721 1.386 . S
C3720 C3722 1.391 . S
C3721 C3720 1.386 . S
C3721 C3725 1.393 . S
C3722 H3714 0.950 . S
C3722 C3720 1.391 . S
C3722 C3723 1.400 . S
C3723 C3722 1.400 . S
C3723 C3724 1.398 . S
C3723 C3729 1.491 . S
C3724 H3715 0.950 . S
C3724 C3723 1.398 . S
C3724 C3725 1.391 . S
C3725 H3713 0.950 . S
C3725 C3721 1.393 . S
C3725 C3724 1.391 . S
C3726 H3716 0.950 . S
C3726 C3727 1.386 . S
C3726 C3728 1.391 . S
C3727 C3726 1.386 . S
C3727 C3731 1.393 . S
C3728 H3717 0.950 . S
C3728 C3726 1.391 . S
C3728 C3729 1.400 . S
C3729 C3723 1.491 . S
C3729 C3728 1.400 . S
C3729 C3730 1.398 . S
C3730 H3718 0.950 . S
C3730 C3729 1.398 . S
C3730 C3731 1.391 . S
C3731 H3719 0.950 . S
C3731 C3727 1.393 . S
C3731 C3730 1.391 . S
H3732 C3740 0.950 . S
H3733 C3745 0.950 . S
H3734 C3742 0.950 . S
H3735 C3744 0.950 . S
H3736 C3746 0.950 . S
H3737 C3748 0.950 . S
H3738 C3750 0.950 . S
H3739 C3751 0.950 . S
C3740 H3732 0.950 . S
C3740 C3741 1.386 . S
C3740 C3742 1.391 . S
C3741 C3740 1.386 . S
C3741 C3745 1.393 . S
C3742 H3734 0.950 . S
C3742 C3740 1.391 . S
C3742 C3743 1.400 . S
C3743 C3742 1.400 . S
C3743 C3744 1.398 . S
C3743 C3749 1.491 . S
C3744 H3735 0.950 . S
C3744 C3743 1.398 . S
C3744 C3745 1.391 . S
C3745 H3733 0.950 . S
C3745 C3741 1.393 . S
C3745 C3744 1.391 . S
C3746 H3736 0.950 . S
C3746 C3747 1.386 . S
C3746 C3748 1.391 . S
C3747 C3746 1.386 . S
C3747 C3751 1.393 . S
C3748 H3737 0.950 . S
C3748 C3746 1.391 . S
C3748 C3749 1.400 . S
C3749 C3743 1.491 . S
C3749 C3748 1.400 . S
C3749 C3750 1.398 . S
C3750 H3738 0.950 . S
C3750 C3749 1.398 . S
C3750 C3751 1.391 . S
C3751 H3739 0.950 . S
C3751 C3747 1.393 . S
C3751 C3750 1.391 . S
H3752 C3760 0.950 . S
H3753 C3765 0.950 . S
H3754 C3762 0.950 . S
H3755 C3764 0.950 . S
H3756 C3766 0.950 . S
H3757 C3768 0.950 . S
H3758 C3770 0.950 . S
H3759 C3771 0.950 . S
C3760 H3752 0.950 . S
C3760 C3761 1.386 . S
C3760 C3762 1.391 . S
C3761 C3760 1.386 . S
C3761 C3765 1.393 . S
C3762 H3754 0.950 . S
C3762 C3760 1.391 . S
C3762 C3763 1.400 . S
C3763 C3762 1.400 . S
C3763 C3764 1.398 . S
C3763 C3769 1.491 . S
C3764 H3755 0.950 . S
C3764 C3763 1.398 . S
C3764 C3765 1.391 . S
C3765 H3753 0.950 . S
C3765 C3761 1.393 . S
C3765 C3764 1.391 . S
C3766 H3756 0.950 . S
C3766 C3767 1.386 . S
C3766 C3768 1.391 . S
C3767 C3766 1.386 . S
C3767 C3771 1.393 . S
C3768 H3757 0.950 . S
C3768 C3766 1.391 . S
C3768 C3769 1.400 . S
C3769 C3763 1.491 . S
C3769 C3768 1.400 . S
C3769 C3770 1.398 . S
C3770 H3758 0.950 . S
C3770 C3769 1.398 . S
C3770 C3771 1.391 . S
C3771 H3759 0.950 . S
C3771 C3767 1.393 . S
C3771 C3770 1.391 . S
H3772 C3780 0.950 . S
H3773 C3785 0.950 . S
H3774 C3782 0.950 . S
H3775 C3784 0.950 . S
H3776 C3786 0.950 . S
H3777 C3788 0.950 . S
H3778 C3790 0.950 . S
H3779 C3791 0.950 . S
C3780 H3772 0.950 . S
C3780 C3781 1.386 . S
C3780 C3782 1.391 . S
C3781 C3780 1.386 . S
C3781 C3785 1.393 . S
C3782 H3774 0.950 . S
C3782 C3780 1.391 . S
C3782 C3783 1.400 . S
C3783 C3782 1.400 . S
C3783 C3784 1.398 . S
C3783 C3789 1.491 . S
C3784 H3775 0.950 . S
C3784 C3783 1.398 . S
C3784 C3785 1.391 . S
C3785 H3773 0.950 . S
C3785 C3781 1.393 . S
C3785 C3784 1.391 . S
C3786 H3776 0.950 . S
C3786 C3787 1.386 . S
C3786 C3788 1.391 . S
C3787 C3786 1.386 . S
C3787 C3791 1.393 . S
C3788 H3777 0.950 . S
C3788 C3786 1.391 . S
C3788 C3789 1.400 . S
C3789 C3783 1.491 . S
C3789 C3788 1.400 . S
C3789 C3790 1.398 . S
C3790 H3778 0.950 . S
C3790 C3789 1.398 . S
C3790 C3791 1.391 . S
C3791 H3779 0.950 . S
C3791 C3787 1.393 . S
C3791 C3790 1.391 . S
H3792 C3800 0.950 . S
H3793 C3805 0.950 . S
H3794 C3802 0.950 . S
H3795 C3804 0.950 . S
H3796 C3806 0.950 . S
H3797 C3808 0.950 . S
H3798 C3810 0.950 . S
H3799 C3811 0.957 . S
C3800 H3792 0.950 . S
C3800 C3801 1.386 . S
C3800 C3802 1.391 . S
C3801 C3800 1.386 . S
C3801 C3805 1.393 . S
C3802 H3794 0.950 . S
C3802 C3800 1.391 . S
C3802 C3803 1.400 . S
C3803 C3802 1.400 . S
C3803 C3804 1.398 . S
C3803 C3809 1.491 . S
C3804 H3795 0.950 . S
C3804 C3803 1.398 . S
C3804 C3805 1.391 . S
C3805 H3793 0.950 . S
C3805 C3801 1.393 . S
C3805 C3804 1.391 . S
C3806 H3796 0.950 . S
C3806 C3807 1.386 . S
C3806 C3808 1.391 . S
C3807 C3806 1.386 . S
C3807 C3811 1.393 . S
C3808 H3797 0.950 . S
C3808 C3806 1.391 . S
C3808 C3809 1.400 . S
C3809 C3803 1.491 . S
C3809 C3808 1.400 . S
C3809 C3810 1.398 . S
C3810 H3798 0.950 . S
C3810 C3809 1.398 . S
C3810 C3811 1.391 . S
C3811 H3799 0.957 . S
C3811 C3807 1.393 . S
C3811 C3810 1.391 . S
H3812 C3820 0.950 . S
H3813 C3825 0.950 . S
H3814 C3822 0.950 . S
H3815 C3824 0.950 . S
H3816 C3826 0.950 . S
H3817 C3828 0.950 . S
H3818 C3830 0.950 . S
H3819 C3831 0.950 . S
C3820 H3812 0.950 . S
C3820 C3821 1.386 . S
C3820 C3822 1.391 . S
C3821 C3820 1.386 . S
C3821 C3825 1.393 . S
C3822 H3814 0.950 . S
C3822 C3820 1.391 . S
C3822 C3823 1.400 . S
C3823 C3822 1.400 . S
C3823 C3824 1.398 . S
C3823 C3829 1.491 . S
C3824 H3815 0.950 . S
C3824 C3823 1.398 . S
C3824 C3825 1.391 . S
C3825 H3813 0.950 . S
C3825 C3821 1.393 . S
C3825 C3824 1.391 . S
C3826 H3816 0.950 . S
C3826 C3827 1.386 . S
C3826 C3828 1.391 . S
C3827 C3826 1.386 . S
C3827 C3831 1.393 . S
C3828 H3817 0.950 . S
C3828 C3826 1.391 . S
C3828 C3829 1.400 . S
C3829 C3823 1.491 . S
C3829 C3828 1.400 . S
C3829 C3830 1.398 . S
C3830 H3818 0.950 . S
C3830 C3829 1.398 . S
C3830 C3831 1.391 . S
C3831 H3819 0.950 . S
C3831 C3827 1.393 . S
C3831 C3830 1.391 . S
H3832 C3840 0.950 . S
H3833 C3845 0.950 . S
H3834 C3842 0.950 . S
H3835 C3844 0.950 . S
H3836 C3846 0.950 . S
H3837 C3848 0.939 1_565 S
H3838 C3850 0.950 . S
H3839 C3851 0.950 . S
C3840 H3832 0.950 . S
C3840 C3841 1.386 . S
C3840 C3842 1.391 . S
C3841 C3840 1.386 . S
C3841 C3845 1.393 . S
C3842 H3834 0.950 . S
C3842 C3840 1.391 . S
C3842 C3843 1.400 . S
C3843 C3842 1.400 . S
C3843 C3844 1.398 . S
C3843 C3849 1.491 . S
C3844 H3835 0.950 . S
C3844 C3843 1.398 . S
C3844 C3845 1.391 . S
C3845 H3833 0.950 . S
C3845 C3841 1.393 . S
C3845 C3844 1.391 . S
C3846 H3836 0.950 . S
C3846 C3847 1.386 1_565 S
C3846 C3848 1.410 1_565 S
C3847 C3846 1.386 1_545 S
C3847 C3851 1.393 . S
C3848 H3837 0.939 1_545 S
C3848 C3846 1.410 1_545 S
C3848 C3849 1.396 . S
C3849 C3843 1.491 . S
C3849 C3848 1.396 . S
C3849 C3850 1.398 . S
C3850 H3838 0.950 . S
C3850 C3849 1.398 . S
C3850 C3851 1.391 . S
C3851 H3839 0.950 . S
C3851 C3847 1.393 . S
C3851 C3850 1.391 . S
C2421 C49 1.568 . S
C2427 C2020 1.613 . S
C2441 C137 1.613 . S
C2447 C2066 1.624 . S
C2467 C2098 1.637 . S
C2461 C205 1.601 . S
C2481 C196 1.554 . S
C2487 C2151 1.610 . S
C2501 C57 1.592 . S
C2507 C2197 1.645 . S
C2521 C145 1.614 . S
C2527 C2236 1.629 . S
C2541 C313 1.573 . S
C2547 C2190 1.616 . S
C2567 C2243 1.627 . S
C2561 C401 1.618 . S
C2587 C2144 1.635 . S
C2581 C489 1.579 . S
C2601 C469 1.562 . S
C2607 C2105 1.606 . S
C2627 C1999 1.635 . S
C2621 C293 1.583 . S
C2641 C381 1.619 . S
C2647 C2045 1.619 . S
C2661 C577 1.686 . S
C2667 C2275 1.701 . S
C2681 C645 1.661 . S
C2687 C2342 1.655 . S
C2707 C2388 1.622 . S
C2701 C733 1.619 . S
C2721 C724 1.586 . S
C2727 C1599 1.596 . S
C2741 C585 1.671 . S
C2747 C1645 1.666 . S
C2761 C636 1.677 . S
C2767 C1691 1.661 . S
C2781 C841 1.596 . S
C2787 C1638 1.588 . S
C2801 C937 1.679 . S
C2807 C1684 1.667 . S
C2827 C1592 1.671 . S
C2821 C1025 1.671 . S
C2847 C2367 1.696 . S
C2841 C988 1.694 . S
C2867 C2296 1.618 . S
C2861 C821 1.625 . S
C2887 C2321 1.649 . S
C2881 C900 1.671 . S
C2901 C1105 1.587 . S
C2907 C1723 1.604 . S
C2921 C1193 1.677 . S
C2927 C1776 1.673 . S
C2941 C1281 1.664 . S
C2947 C1822 1.681 . S
C2961 C1289 1.697 . S
C2967 C1868 1.696 . S
C2987 C1921 1.616 . S
C2981 C1113 1.620 . S
C3007 C1967 1.659 . S
C3001 C1201 1.662 . S
C3027 C1914 1.690 . S
C3021 C1369 1.703 . S
C3047 C1960 1.659 . S
C3041 C1457 1.671 . S
C3061 C1553 1.622 . S
C3067 C1875 1.625 . S
C3087 C1829 1.597 . S
C3081 C1516 1.591 . S
C3101 C1349 1.673 . S
C3107 C1744 1.683 . S
C3127 C1783 1.677 . S
C3121 C1437 1.679 . S
C3147 C1606 1.600 . S
C3141 C29 1.594 . S
C3161 C117 1.491 . S
C3167 C1652 1.472 . S
C3187 C1698 1.649 . S
C3181 C225 1.650 . S
C3207 C1730 1.584 . S
C3201 C233 1.602 . S
C3227 C1769 1.632 . S
C3221 C20 1.649 . S
C3247 C1815 1.455 . S
C3241 C108 1.491 . S
C3261 C321 1.601 . S
C3267 C1836 1.593 . S
C3281 C409 1.489 . S
C3287 C1737 1.466 . S
C3301 C497 1.645 . S
C3307 C1790 1.636 . S
C3321 C460 1.618 . S
C3327 C1631 1.629 . S
C3347 C1677 1.638 . S
C3341 C284 1.642 . S
C3361 C372 1.480 . S
C3367 C1585 1.471 . S
C3387 C1861 1.468 . S
C3381 C557 1.491 . S
C3401 C665 1.597 . S
C3407 C1928 1.585 . S
C3421 C753 1.587 . S
C3427 C1974 1.569 . S
C3447 C2013 1.152 . S
C3441 C761 1.148 . S
C3461 C548 1.483 . S
C3467 C2059 1.471 . S
C3481 C673 1.157 . S
C3487 C2091 1.159 . S
C3501 C849 1.148 . S
C3507 C2112 1.146 . S
C3521 C929 1.164 . S
C3527 C2006 1.164 . S
C3547 C2052 1.464 . S
C3541 C1017 1.475 . S
C3561 C997 1.496 . S
C3567 C1907 1.490 . S
C3581 C812 1.589 . S
C3587 C1953 1.574 . S
C3607 C1882 1.555 . S
C3601 C909 1.597 . S
C3627 C2158 1.147 . S
C3621 C1085 1.149 . S
C3641 C1173 1.157 . S
C3647 C2204 1.154 . S
C3661 C1261 1.483 . S
C3667 C2229 1.461 . S
C3687 C2282 1.456 . S
C3681 C1252 1.490 . S
C3707 C2335 1.578 . S
C3701 C1076 1.591 . S
C3721 C1164 1.603 . S
C3727 C2381 1.588 . S
C3741 C1377 1.501 . S
C3747 C2374 1.491 . S
C3761 C1465 1.601 . S
C3767 C2289 1.574 . S
C3787 C2328 1.571 . S
C3781 C1545 1.596 . S
C3807 C2183 1.149 . S
C3801 C1525 1.143 . S
C3827 C2250 1.444 . S
C3821 C1340 1.475 . S
C3841 C1428 1.166 . S
C3847 C2137 1.166 . S
