# Generated by pormake.
# Topology pto, (3,4)-cn, num edge types: 1
# Building blocks:
#     Node 0, Type 0, BuildingBlock: CUQRIR_clean_linker_1, # of connection points: 3
#     Node 1, Type 0, BuildingBlock: CUQRIR_clean_linker_1, # of connection points: 3
#     Node 2, Type 0, BuildingBlock: CUQRIR_clean_linker_1, # of connection points: 3
#     Node 3, Type 0, BuildingBlock: CUQRIR_clean_linker_1, # of connection points: 3
#     Node 4, Type 0, BuildingBlock: CUQRIR_clean_linker_1, # of connection points: 3
#     Node 5, Type 0, BuildingBlock: CUQRIR_clean_linker_1, # of connection points: 3
#     Node 6, Type 0, BuildingBlock: CUQRIR_clean_linker_1, # of connection points: 3
#     Node 7, Type 0, BuildingBlock: CUQRIR_clean_linker_1, # of connection points: 3
#     Node 8, Type 1, BuildingBlock: KOZSID_clean_sbu_0, # of connection points: 4
#     Node 9, Type 1, BuildingBlock: KOZSID_clean_sbu_0, # of connection points: 4
#     Node 10, Type 1, BuildingBlock: KOZSID_clean_sbu_0, # of connection points: 4
#     Node 11, Type 1, BuildingBlock: KOZSID_clean_sbu_0, # of connection points: 4
#     Node 12, Type 1, BuildingBlock: KOZSID_clean_sbu_0, # of connection points: 4
#     Node 13, Type 1, BuildingBlock: KOZSID_clean_sbu_0, # of connection points: 4
#     Edge 14, Type (0, 1), BuildingBlock: UVAHIK_clean_linker_0, # of connection points: 2
#     Edge 15, Type (0, 1), BuildingBlock: UVAHIK_clean_linker_0, # of connection points: 2
#     Edge 16, Type (0, 1), BuildingBlock: UVAHIK_clean_linker_0, # of connection points: 2
#     Edge 17, Type (0, 1), BuildingBlock: UVAHIK_clean_linker_0, # of connection points: 2
#     Edge 18, Type (0, 1), BuildingBlock: UVAHIK_clean_linker_0, # of connection points: 2
#     Edge 19, Type (0, 1), BuildingBlock: UVAHIK_clean_linker_0, # of connection points: 2
#     Edge 20, Type (0, 1), BuildingBlock: UVAHIK_clean_linker_0, # of connection points: 2
#     Edge 21, Type (0, 1), BuildingBlock: UVAHIK_clean_linker_0, # of connection points: 2
#     Edge 22, Type (0, 1), BuildingBlock: UVAHIK_clean_linker_0, # of connection points: 2
#     Edge 23, Type (0, 1), BuildingBlock: UVAHIK_clean_linker_0, # of connection points: 2
#     Edge 24, Type (0, 1), BuildingBlock: UVAHIK_clean_linker_0, # of connection points: 2
#     Edge 25, Type (0, 1), BuildingBlock: UVAHIK_clean_linker_0, # of connection points: 2
#     Edge 26, Type (0, 1), BuildingBlock: UVAHIK_clean_linker_0, # of connection points: 2
#     Edge 27, Type (0, 1), BuildingBlock: UVAHIK_clean_linker_0, # of connection points: 2
#     Edge 28, Type (0, 1), BuildingBlock: UVAHIK_clean_linker_0, # of connection points: 2
#     Edge 29, Type (0, 1), BuildingBlock: UVAHIK_clean_linker_0, # of connection points: 2
#     Edge 30, Type (0, 1), BuildingBlock: UVAHIK_clean_linker_0, # of connection points: 2
#     Edge 31, Type (0, 1), BuildingBlock: UVAHIK_clean_linker_0, # of connection points: 2
#     Edge 32, Type (0, 1), BuildingBlock: UVAHIK_clean_linker_0, # of connection points: 2
#     Edge 33, Type (0, 1), BuildingBlock: UVAHIK_clean_linker_0, # of connection points: 2
#     Edge 34, Type (0, 1), BuildingBlock: UVAHIK_clean_linker_0, # of connection points: 2
#     Edge 35, Type (0, 1), BuildingBlock: UVAHIK_clean_linker_0, # of connection points: 2
#     Edge 36, Type (0, 1), BuildingBlock: UVAHIK_clean_linker_0, # of connection points: 2
#     Edge 37, Type (0, 1), BuildingBlock: UVAHIK_clean_linker_0, # of connection points: 2
# Relax obj value: 0.020
# Max RMSD: 0.177
# Mean RMSD: 0.079
data_MOF--net-pto--node1-KOZSID_clean_sbu_0--node2-CUQRIR_clean_linker_1--edge1-UVAHIK_clean_linker_0
_symmetry_space_group_name_H-M    P1
_symmetry_Int_Tables_number       1
_symmetry_cell_setting            triclinic
loop_
_symmetry_equiv_pos_as_xyz
'x, y, z'
_cell_length_a     46.718022
_cell_length_b     60.664884
_cell_length_c     53.359141
_cell_angle_alpha  78.315916
_cell_angle_beta   93.155254
_cell_angle_gamma 98.388757
loop_
_atom_site_label
_atom_site_type_symbol
_atom_site_fract_x
_atom_site_fract_y
_atom_site_fract_z
_atom_type_partial_charge
C0 C 0.30668 0.26887 0.29455 0.0
N1 N 0.32103 0.25417 0.28586 0.0
N2 N 0.29945 0.28529 0.27498 0.0
C3 C 0.29755 0.26614 0.32175 0.0
C4 C 0.3097 0.27995 0.25403 0.0
N5 N 0.32261 0.26092 0.26062 0.0
C6 C 0.30915 0.2943 0.22751 0.0
H7 H 0.2775 0.27375 0.32252 0.0
H8 H 0.315 0.27491 0.33263 0.0
H9 H 0.29379 0.24792 0.33114 0.0
H10 H 0.30851 0.31237 0.22822 0.0
H11 H 0.28949 0.28806 0.21698 0.0
H12 H 0.32838 0.2931 0.21681 0.0
C13 C 0.31181 0.73357 0.70596 0.0
N14 N 0.32982 0.7461 0.72004 0.0
N15 N 0.30412 0.71229 0.71946 0.0
C16 C 0.30061 0.74249 0.67944 0.0
C17 C 0.31792 0.7124 0.74245 0.0
N18 N 0.33338 0.73307 0.74288 0.0
C19 C 0.31493 0.69278 0.7649 0.0
H20 H 0.28147 0.75101 0.68088 0.0
H21 H 0.29405 0.72848 0.66889 0.0
H22 H 0.3173 0.75522 0.6686 0.0
H23 H 0.33458 0.69323 0.77755 0.0
H24 H 0.31112 0.67628 0.75856 0.0
H25 H 0.29608 0.69392 0.77611 0.0
C26 C 0.88942 0.78463 0.3364 0.0
N27 N 0.88062 0.77298 0.31755 0.0
N28 N 0.87917 0.80486 0.33176 0.0
C29 C 0.90959 0.77704 0.35838 0.0
C30 C 0.86388 0.80516 0.30944 0.0
N31 N 0.86494 0.78586 0.30068 0.0
C32 C 0.84635 0.82362 0.29719 0.0
H33 H 0.89679 0.76564 0.37399 0.0
H34 H 0.92117 0.79174 0.36592 0.0
H35 H 0.92563 0.76744 0.3524 0.0
H36 H 0.8594 0.83573 0.28227 0.0
H37 H 0.84049 0.83309 0.31146 0.0
H38 H 0.82629 0.81643 0.2879 0.0
C39 C 0.77483 0.22561 0.75278 0.0
N40 N 0.79302 0.23582 0.73361 0.0
N41 N 0.76286 0.2413 0.76191 0.0
C42 C 0.76725 0.20035 0.76147 0.0
C43 C 0.77425 0.2614 0.74762 0.0
N44 N 0.79238 0.25807 0.73019 0.0
C45 C 0.76949 0.28427 0.75219 0.0
H46 H 0.74568 0.19603 0.77031 0.0
H47 H 0.78366 0.19408 0.77597 0.0
H48 H 0.76733 0.19153 0.74518 0.0
H49 H 0.76248 0.28309 0.772 0.0
H50 H 0.75235 0.29076 0.73867 0.0
H51 H 0.78955 0.29662 0.74883 0.0
C52 C 0.79589 0.7425 0.75743 0.0
N53 N 0.809 0.7509 0.73481 0.0
N54 N 0.78134 0.75812 0.76403 0.0
C55 C 0.79598 0.71865 0.77236 0.0
C56 C 0.78603 0.77631 0.74457 0.0
N57 N 0.8026 0.77184 0.72662 0.0
C58 C 0.77682 0.79912 0.74437 0.0
H59 H 0.7972 0.70669 0.75934 0.0
H60 H 0.77632 0.71295 0.78398 0.0
H61 H 0.81528 0.71819 0.78544 0.0
H62 H 0.77376 0.80146 0.76409 0.0
H63 H 0.75597 0.80024 0.73351 0.0
H64 H 0.79308 0.8131 0.73495 0.0
C65 C 0.82065 0.24925 0.25459 0.0
N66 N 0.84191 0.25857 0.26914 0.0
N67 N 0.80844 0.26566 0.23829 0.0
C68 C 0.80975 0.22422 0.25812 0.0
C69 C 0.82275 0.2853 0.24365 0.0
N70 N 0.84289 0.281 0.26259 0.0
C71 C 0.8184 0.30863 0.2292 0.0
H72 H 0.82262 0.21641 0.24627 0.0
H73 H 0.78665 0.22125 0.25204 0.0
H74 H 0.81213 0.21566 0.27841 0.0
H75 H 0.80262 0.3154 0.23939 0.0
H76 H 0.8098 0.30805 0.20951 0.0
H77 H 0.83903 0.32041 0.22814 0.0
C78 C 0.22188 0.26124 0.71624 0.0
N79 N 0.23701 0.24394 0.71587 0.0
N80 N 0.21288 0.27023 0.69226 0.0
C81 C 0.21754 0.27035 0.73977 0.0
C82 C 0.22321 0.25778 0.67725 0.0
N83 N 0.23812 0.24194 0.69164 0.0
C84 C 0.22021 0.26184 0.64854 0.0
H85 H 0.2139 0.25635 0.75667 0.0
H86 H 0.19886 0.28005 0.73716 0.0
H87 H 0.23736 0.28177 0.74369 0.0
H88 H 0.23985 0.27288 0.64027 0.0
H89 H 0.20117 0.27046 0.64144 0.0
H90 H 0.21841 0.24556 0.64177 0.0
C91 C 0.34798 0.7765 0.33321 0.0
N92 N 0.35136 0.76578 0.31382 0.0
N93 N 0.36508 0.79682 0.33007 0.0
C94 C 0.32634 0.76806 0.35406 0.0
C95 C 0.37887 0.79821 0.30805 0.0
N96 N 0.3704 0.7794 0.29803 0.0
C97 C 0.40196 0.8173 0.29738 0.0
H98 H 0.30666 0.75835 0.34693 0.0
H99 H 0.32003 0.78235 0.36163 0.0
H100 H 0.33623 0.7566 0.36999 0.0
H101 H 0.41243 0.82586 0.3127 0.0
H102 H 0.3919 0.83002 0.28301 0.0
H103 H 0.4187 0.81093 0.28786 0.0
C104 C 0.135 0.55646 0.31898 0.0
C105 C 0.14853 0.55902 0.34227 0.0
C106 C 0.13362 0.54341 0.36073 0.0
C107 C 0.11208 0.53212 0.34775 0.0
N108 N 0.11238 0.53947 0.32205 0.0
Co109 Co 0.08549 0.52719 0.29594 0.0
N110 N 0.06329 0.50448 0.32323 0.0
C111 C 0.0675 0.50223 0.34886 0.0
C112 C 0.04947 0.48471 0.36275 0.0
C113 C 0.03295 0.47497 0.34496 0.0
C114 C 0.04189 0.4872 0.32114 0.0
N115 N 0.05902 0.5145 0.26981 0.0
C116 C 0.03849 0.49597 0.2728 0.0
C117 C 0.02591 0.49242 0.24951 0.0
C118 C 0.03938 0.50902 0.23107 0.0
C119 C 0.05928 0.52171 0.24409 0.0
N120 N 0.1074 0.55014 0.26864 0.0
C121 C 0.10167 0.55351 0.2431 0.0
C122 C 0.11963 0.57107 0.22919 0.0
C123 C 0.13783 0.57957 0.24686 0.0
C124 C 0.13001 0.56655 0.27065 0.0
N125 N 0.11187 0.50483 0.29382 0.0
C126 C 0.14593 0.47085 0.2905 0.0
C127 C 0.13653 0.48495 0.26848 0.0
C128 C 0.1198 0.50174 0.27055 0.0
C129 C 0.13866 0.47449 0.31425 0.0
C130 C 0.12173 0.49142 0.31546 0.0
N131 N 0.05893 0.54963 0.29803 0.0
C132 C 0.02822 0.57727 0.27732 0.0
C133 C 0.02325 0.58292 0.30067 0.0
C134 C 0.03604 0.57126 0.32275 0.0
C135 C 0.05353 0.55481 0.32102 0.0
C136 C 0.04594 0.56079 0.27645 0.0
H137 H 0.06268 0.54672 0.33856 0.0
H138 H 0.04888 0.55754 0.25801 0.0
H139 H 0.11323 0.51186 0.25306 0.0
H140 H 0.11651 0.4931 0.3341 0.0
C141 C 0.09063 0.51515 0.3592 0.0
C142 C 0.14415 0.5709 0.29461 0.0
C143 C 0.03074 0.48091 0.29712 0.0
C144 C 0.07935 0.53986 0.23272 0.0
H145 H 0.16712 0.57107 0.3456 0.0
H146 H 0.13778 0.54077 0.3812 0.0
H147 H 0.04922 0.47908 0.38334 0.0
H148 H 0.01682 0.46009 0.34909 0.0
H149 H 0.00907 0.47897 0.24619 0.0
H150 H 0.03559 0.51124 0.21057 0.0
H151 H 0.11935 0.57709 0.20866 0.0
H152 H 0.15473 0.5939 0.24267 0.0
H153 H 0.14207 0.48307 0.24964 0.0
H154 H 0.14531 0.46392 0.33188 0.0
H155 H 0.0184 0.58545 0.25968 0.0
H156 H 0.03314 0.5751 0.34133 0.0
C157 C 0.0533 0.54094 0.68373 0.0
C158 C 0.06283 0.54543 0.70758 0.0
C159 C 0.0402 0.53764 0.72381 0.0
C160 C 0.01816 0.52883 0.70912 0.0
N161 N 0.02572 0.53034 0.68474 0.0
Co162 Co 1.0001 0.52038 0.65719 0.0
N163 N 0.97331 0.50064 0.68231 0.0
C164 C 0.97072 0.50231 0.70678 0.0
C165 C 0.95058 0.48549 0.71942 0.0
C166 C 0.94006 0.47252 0.70169 0.0
C167 C 0.9545 0.48223 0.67927 0.0
N168 N 0.97408 0.51035 0.62992 0.0
C169 C 0.95518 0.49106 0.63132 0.0
C170 C 0.94211 0.48964 0.60763 0.0
C171 C 0.95342 0.50893 0.5909 0.0
C172 C 0.97275 0.52093 0.60528 0.0
N173 N 0.02682 0.54011 0.63184 0.0
C174 C 0.02045 0.54745 0.60688 0.0
C175 C 0.04318 0.56125 0.59407 0.0
C176 C 0.065 0.5629 0.61218 0.0
C177 C 0.05429 0.55001 0.63516 0.0
N178 N 0.02189 0.49514 0.65784 0.0
C179 C 0.05351 0.45919 0.65912 0.0
C180 C 0.04471 0.47178 0.63574 0.0
C181 C 0.02916 0.48984 0.63551 0.0
C182 C 0.04592 0.46479 0.68183 0.0
C183 C 0.02992 0.48266 0.68078 0.0
N184 N 0.97842 0.54577 0.65669 0.0
C185 C 0.9787 0.58479 0.6598 0.0
C186 C 0.94848 0.58166 0.66062 0.0
C187 C 0.9334 0.56038 0.6583 0.0
C188 C 0.9488 0.54262 0.6564 0.0
C189 C 0.99316 0.56676 0.65778 0.0
H190 H 0.93682 0.52621 0.65532 0.0
H191 H 0.01643 0.56979 0.65772 0.0
H192 H 0.02309 0.49956 0.61727 0.0
H193 H 0.02407 0.48641 0.69856 0.0
C194 C 0.99183 0.51628 0.71825 0.0
C195 C 0.06954 0.54967 0.66009 0.0
C196 C 0.94941 0.47434 0.65506 0.0
C197 C 0.99455 0.5386 0.59563 0.0
H198 H 0.0837 0.55398 0.71261 0.0
H199 H 0.04009 0.53796 0.74401 0.0
H200 H 0.9454 0.48219 0.73948 0.0
H201 H 0.92393 0.45758 0.70489 0.0
H202 H 0.92654 0.47599 0.60282 0.0
H203 H 0.94946 0.51289 0.57042 0.0
H204 H 0.04406 0.5688 0.57388 0.0
H205 H 0.08614 0.57282 0.60895 0.0
H206 H 0.05032 0.46801 0.61778 0.0
H207 H 0.05209 0.45527 0.70029 0.0
H208 H 0.99121 0.60107 0.661 0.0
H209 H 0.91 0.55724 0.65885 0.0
C210 C 0.39308 0.98949 0.57583 0.0
C211 C 0.41912 0.98619 0.5889 0.0
C212 C 0.4386 0.00496 0.57986 0.0
C213 C 0.42354 0.01853 0.56168 0.0
N214 N 0.39584 0.00943 0.55873 0.0
Co215 Co 0.3669 0.02252 0.53358 0.0
N216 N 0.3975 0.04294 0.51252 0.0
C217 C 0.42527 0.04806 0.52003 0.0
C218 C 0.44168 0.06225 0.50119 0.0
C219 C 0.42299 0.06662 0.48068 0.0
C220 C 0.39601 0.05499 0.48827 0.0
N221 N 0.33771 0.03565 0.50872 0.0
C222 C 0.34106 0.04874 0.48499 0.0
C223 C 0.31473 0.05512 0.47488 0.0
C224 C 0.29445 0.04594 0.49303 0.0
C225 C 0.30935 0.03453 0.51319 0.0
N226 N 0.33646 0.00208 0.55465 0.0
C227 C 0.30836 0.00468 0.55452 0.0
C228 C 0.29259 0.98778 0.57144 0.0
C229 C 0.31208 0.97373 0.58292 0.0
C230 C 0.33867 0.98288 0.57221 0.0
N231 N 0.36452 0.04602 0.55342 0.0
C232 C 0.35274 0.07853 0.58045 0.0
C233 C 0.35601 0.05646 0.59332 0.0
C234 C 0.36186 0.04044 0.57943 0.0
C235 C 0.35726 0.08433 0.5541 0.0
C236 C 0.36335 0.06794 0.54102 0.0
N237 N 0.36895 0.99909 0.51369 0.0
C238 C 0.34484 0.97198 0.48957 0.0
C239 C 0.37142 0.96585 0.48468 0.0
C240 C 0.39675 0.97654 0.4948 0.0
C241 C 0.39507 0.99325 0.50906 0.0
C242 C 0.34406 0.98845 0.50428 0.0
H243 H 0.41492 0.0015 0.51624 0.0
H244 H 0.32326 0.9926 0.508 0.0
H245 H 0.36313 0.02331 0.58961 0.0
H246 H 0.366 0.0729 0.52067 0.0
C247 C 0.43595 0.03684 0.54343 0.0
C248 C 0.36589 0.97392 0.58029 0.0
C249 C 0.36908 0.05814 0.47313 0.0
C250 C 0.29698 0.0205 0.53519 0.0
H251 H 0.42386 0.97167 0.60311 0.0
H252 H 0.46145 0.00766 0.58482 0.0
H253 H 0.46463 0.06826 0.50203 0.0
H254 H 0.42847 0.07757 0.46243 0.0
H255 H 0.31063 0.06589 0.45663 0.0
H256 H 0.27153 0.04724 0.49155 0.0
H257 H 0.2695 0.98539 0.57433 0.0
H258 H 0.30732 0.95857 0.59751 0.0
H259 H 0.35273 0.05132 0.61372 0.0
H260 H 0.35547 0.10133 0.54352 0.0
H261 H 0.32474 0.96391 0.48231 0.0
H262 H 0.41774 0.97234 0.4913 0.0
C263 C 0.54068 0.7746 0.06946 0.0
C264 C 0.53401 0.79573 0.07153 0.0
C265 C 0.55056 0.81149 0.05436 0.0
C266 C 0.56613 0.79917 0.04265 0.0
N267 N 0.56042 0.77643 0.05118 0.0
Co268 Co 0.57747 0.75224 0.03868 0.0
N269 N 0.60286 0.77556 0.01434 0.0
C270 C 0.60537 0.79842 0.01161 0.0
C271 C 0.62457 0.81001 0.99342 0.0
C272 C 0.63479 0.7936 0.98374 0.0
C273 C 0.62102 0.77287 0.99658 0.0
N274 N 0.59401 0.72805 0.02568 0.0
C275 C 0.61251 0.7299 0.00641 0.0
C276 C 0.61726 0.70874 0.00268 0.0
C277 C 0.6011 0.69295 0.02012 0.0
C278 C 0.58737 0.70529 0.03336 0.0
N279 N 0.55254 0.72894 0.06347 0.0
C280 C 0.55152 0.7061 0.06736 0.0
C281 C 0.53357 0.69448 0.08651 0.0
C282 C 0.52257 0.71085 0.09561 0.0
C283 C 0.53434 0.73162 0.08127 0.0
N284 N 0.54641 0.75171 0.01172 0.0
C285 C 0.50628 0.75069 0.97026 0.0
C286 C 0.51064 0.73078 0.98765 0.0
C287 C 0.53061 0.73167 0.00806 0.0
C288 C 0.52162 0.77118 0.97464 0.0
C289 C 0.54119 0.77131 0.99535 0.0
N290 N 0.60879 0.75282 0.06546 0.0
C291 C 0.64094 0.73341 0.09673 0.0
C292 C 0.6547 0.75405 0.10208 0.0
C293 C 0.64468 0.77399 0.08913 0.0
C294 C 0.62192 0.77299 0.07116 0.0
C295 C 0.61823 0.73318 0.07851 0.0
H296 H 0.61538 0.78882 0.06212 0.0
H297 H 0.6088 0.71693 0.07523 0.0
H298 H 0.53322 0.71589 0.0204 0.0
H299 H 0.55231 0.78748 0.99736 0.0
C300 C 0.58749 0.8085 0.02475 0.0
C301 C 0.52823 0.75341 0.08577 0.0
C302 C 0.62515 0.75119 0.99053 0.0
C303 C 0.56779 0.69604 0.05279 0.0
H304 H 0.51901 0.79941 0.08437 0.0
H305 H 0.55151 0.82978 0.05111 0.0
H306 H 0.62986 0.82823 0.98736 0.0
H307 H 0.65018 0.79654 0.96858 0.0
H308 H 0.63066 0.70506 0.98854 0.0
H309 H 0.59922 0.67464 0.02258 0.0
H310 H 0.52926 0.67627 0.09327 0.0
H311 H 0.50785 0.70777 0.11128 0.0
H312 H 0.49884 0.7145 0.98552 0.0
H313 H 0.51929 0.7871 0.96171 0.0
H314 H 0.64796 0.71748 0.1062 0.0
H315 H 0.65418 0.79039 0.09299 0.0
C316 C 0.90883 1.00002 0.56604 0.0
C317 C 0.93359 0.99494 0.5803 0.0
C318 C 0.95413 0.01371 0.57425 0.0
C319 C 0.9408 0.02909 0.55667 0.0
N320 N 0.91322 0.02113 0.5514 0.0
Co321 Co 0.88624 0.03701 0.5266 0.0
N322 N 0.9186 0.05806 0.5086 0.0
C323 C 0.9458 0.062 0.51808 0.0
C324 C 0.96341 0.07795 0.50169 0.0
C325 C 0.94611 0.08473 0.48078 0.0
C326 C 0.91877 0.0725 0.48562 0.0
N327 N 0.85895 0.05276 0.50195 0.0
C328 C 0.86408 0.06752 0.47946 0.0
C329 C 0.83856 0.07488 0.46856 0.0
C330 C 0.81696 0.06479 0.48517 0.0
C331 C 0.83034 0.05178 0.50517 0.0
N332 N 0.85412 0.01601 0.54481 0.0
C333 C 0.82621 0.01925 0.54411 0.0
C334 C 0.80906 0.00131 0.55848 0.0
C335 C 0.82743 0.98589 0.56876 0.0
C336 C 0.85478 0.99535 0.55998 0.0
N337 N 0.88378 0.05837 0.54918 0.0
C338 C 0.87671 0.08892 0.58067 0.0
C339 C 0.87636 0.06568 0.59091 0.0
C340 C 0.88001 0.05072 0.57488 0.0
C341 C 0.88154 0.09653 0.55447 0.0
C342 C 0.88493 0.08107 0.53915 0.0
N343 N 0.88853 0.01564 0.50411 0.0
C344 C 0.86453 0.98811 0.48049 0.0
C345 C 0.89119 0.98222 0.4754 0.0
C346 C 0.91655 0.99384 0.48436 0.0
C347 C 0.91475 0.01038 0.49883 0.0
C348 C 0.86369 0.005 0.49461 0.0
H349 H 0.93454 0.01856 0.50619 0.0
H350 H 0.84286 0.00912 0.49828 0.0
H351 H 0.87925 0.03289 0.58319 0.0
H352 H 0.88809 0.08758 0.51906 0.0
C353 C 0.95475 0.04857 0.54093 0.0
C354 C 0.88119 0.98498 0.56715 0.0
C355 C 0.89293 0.07733 0.46965 0.0
C356 C 0.81635 0.03655 0.52562 0.0
H357 H 0.93661 0.97927 0.5934 0.0
H358 H 0.97655 0.01537 0.58077 0.0
H359 H 0.98618 0.08375 0.50443 0.0
H360 H 0.95265 0.09768 0.4642 0.0
H361 H 0.83597 0.08684 0.45083 0.0
H362 H 0.79419 0.06652 0.48276 0.0
H363 H 0.78579 0.99909 0.56013 0.0
H364 H 0.82141 0.96952 0.58108 0.0
H365 H 0.87253 0.05894 0.61102 0.0
H366 H 0.88265 0.11437 0.54573 0.0
H367 H 0.84445 0.97972 0.47358 0.0
H368 H 0.93758 0.98971 0.48087 0.0
C369 C 0.46329 0.23504 0.03072 0.0
C370 C 0.45093 0.25432 0.03155 0.0
C371 C 0.45793 0.26946 0.00918 0.0
C372 C 0.47409 0.25858 0.99603 0.0
N373 N 0.47762 0.23761 0.00879 0.0
Co374 Co 0.49965 0.21607 0.9974 0.0
N375 N 0.52157 0.24087 0.97288 0.0
C376 C 0.51413 0.26179 0.96427 0.0
C377 C 0.53372 0.2755 0.94769 0.0
C378 C 0.5545 0.26229 0.94545 0.0
C379 C 0.54624 0.24105 0.96064 0.0
N380 N 0.52152 0.19435 0.98606 0.0
C381 C 0.54598 0.19829 0.97242 0.0
C382 C 0.55329 0.17806 0.96786 0.0
C383 C 0.53247 0.16103 0.97882 0.0
C384 C 0.51363 0.1717 0.98941 0.0
N385 N 0.4775 0.19143 0.02186 0.0
C386 C 0.47386 0.16914 0.02132 0.0
C387 C 0.45765 0.15625 0.0412 0.0
C388 C 0.45072 0.17146 0.05501 0.0
C389 C 0.46317 0.1928 0.04269 0.0
N390 N 0.47017 0.21185 0.97067 0.0
C391 C 0.42868 0.20839 0.93117 0.0
C392 C 0.45821 0.20961 0.92679 0.0
C393 C 0.47847 0.21149 0.94662 0.0
C394 C 0.42031 0.20821 0.95609 0.0
C395 C 0.44137 0.20985 0.97557 0.0
N396 N 0.52919 0.22038 0.02392 0.0
C397 C 0.56177 0.20495 0.05715 0.0
C398 C 0.57254 0.22683 0.06106 0.0
C399 C 0.56088 0.24536 0.04618 0.0
C400 C 0.53933 0.24179 0.02771 0.0
C401 C 0.54002 0.2021 0.03859 0.0
H402 H 0.53105 0.25639 0.01633 0.0
H403 H 0.53207 0.18509 0.036 0.0
H404 H 0.50096 0.21294 0.94227 0.0
H405 H 0.4344 0.20991 0.9945 0.0
C406 C 0.49116 0.2689 0.97497 0.0
C407 C 0.46011 0.21418 0.05031 0.0
C408 C 0.56046 0.22092 0.96068 0.0
C409 C 0.49068 0.16087 0.0053 0.0
H410 H 0.4384 0.2572 0.04676 0.0
H411 H 0.45314 0.28675 0.00384 0.0
H412 H 0.5334 0.29318 0.93884 0.0
H413 H 0.57328 0.2676 0.93358 0.0
H414 H 0.57133 0.17587 0.95716 0.0
H415 H 0.53152 0.14301 0.97937 0.0
H416 H 0.45271 0.13792 0.04588 0.0
H417 H 0.43816 0.16735 0.07219 0.0
H418 H 0.46578 0.20923 0.90809 0.0
H419 H 0.39777 0.20743 0.96042 0.0
H420 H 0.56995 0.19013 0.06844 0.0
H421 H 0.56879 0.26258 0.04837 0.0
C422 C 0.26014 0.30839 0.26059 0.0
C423 C 0.28465 0.30424 0.27626 0.0
C424 C 0.24569 0.32672 0.26193 0.0
C425 C 0.23468 0.36537 0.3046 0.0
H426 H 0.20856 0.40294 0.24228 0.0
C427 C 0.18638 0.44773 0.30529 0.0
C428 C 0.16262 0.4522 0.28866 0.0
C429 C 0.20182 0.43 0.30365 0.0
C430 C 0.2154 0.39247 0.25989 0.0
H431 H 0.3136 0.31592 0.30532 0.0
H432 H 0.28828 0.34797 0.30793 0.0
H433 H 0.23424 0.37129 0.23966 0.0
H434 H 0.13611 0.44129 0.25758 0.0
H435 H 0.16282 0.41028 0.25485 0.0
H436 H 0.21561 0.38636 0.32486 0.0
C437 C 0.28001 0.33697 0.29477 0.0
C438 C 0.23015 0.37434 0.25837 0.0
C439 C 0.29451 0.3187 0.2933 0.0
C440 C 0.15462 0.43853 0.27039 0.0
C441 C 0.16997 0.42076 0.26881 0.0
C442 C 0.21982 0.38345 0.30613 0.0
C443 C 0.25543 0.34119 0.27909 0.0
C444 C 0.23993 0.36057 0.28071 0.0
C445 C 0.19377 0.41626 0.28541 0.0
C446 C 0.20995 0.3972 0.28379 0.0
H447 H 0.25203 0.29725 0.24753 0.0
H448 H 0.2266 0.32934 0.24984 0.0
H449 H 0.24159 0.35489 0.32217 0.0
H450 H 0.19329 0.45813 0.31938 0.0
H451 H 0.2203 0.42724 0.31648 0.0
C452 C 0.25351 0.70025 0.70781 0.0
C453 C 0.28188 0.69532 0.71274 0.0
C454 C 0.23174 0.68397 0.70115 0.0
C455 C 0.21924 0.62997 0.67702 0.0
H456 H 0.14265 0.62672 0.70326 0.0
C457 C 0.1229 0.55847 0.66865 0.0
C458 C 0.09609 0.56604 0.66167 0.0
C459 C 0.14696 0.57388 0.67348 0.0
C460 C 0.16388 0.62755 0.69562 0.0
H461 H 0.31022 0.66995 0.71419 0.0
H462 H 0.27192 0.64088 0.70337 0.0
H463 H 0.18193 0.65389 0.7153 0.0
H464 H 0.07301 0.59521 0.65394 0.0
H465 H 0.11495 0.62218 0.6623 0.0
H466 H 0.20092 0.60316 0.65772 0.0
C467 C 0.26646 0.65744 0.70427 0.0
C468 C 0.18641 0.64317 0.70245 0.0
C469 C 0.28831 0.67389 0.71073 0.0
C470 C 0.09367 0.58916 0.65903 0.0
C471 C 0.11754 0.60447 0.66403 0.0
C472 C 0.19667 0.61414 0.67037 0.0
C473 C 0.23785 0.66226 0.69949 0.0
C474 C 0.2143 0.64482 0.69298 0.0
C475 C 0.14429 0.59694 0.67178 0.0
C476 C 0.16869 0.61301 0.67935 0.0
H477 H 0.24825 0.71676 0.70922 0.0
H478 H 0.21015 0.68849 0.69711 0.0
H479 H 0.24037 0.63091 0.66917 0.0
H480 H 0.12496 0.5406 0.6711 0.0
H481 H 0.16729 0.56762 0.67958 0.0
C482 C 0.8855 0.73263 0.33401 0.0
C483 C 0.88955 0.75198 0.31444 0.0
C484 C 0.89661 0.71288 0.33198 0.0
C485 C 0.92711 0.68451 0.28577 0.0
H486 H 0.96473 0.65357 0.34668 0.0
C487 C 0.00693 0.62085 0.28265 0.0
C488 C 0.00532 0.60108 0.30188 0.0
C489 C 0.99052 0.63808 0.28391 0.0
C490 C 0.95399 0.66182 0.32957 0.0
H491 H 0.90755 0.76597 0.27724 0.0
H492 H 0.92734 0.73162 0.27357 0.0
H493 H 0.93966 0.68553 0.34912 0.0
H494 H 0.98456 0.58387 0.3373 0.0
H495 H 0.9562 0.6141 0.33963 0.0
H496 H 0.9421 0.66104 0.26613 0.0
C497 C 0.91525 0.73142 0.29037 0.0
C498 C 0.93953 0.68014 0.33097 0.0
C499 C 0.90402 0.7511 0.29242 0.0
C500 C 0.98673 0.59899 0.32236 0.0
C501 C 0.97041 0.6163 0.32368 0.0
C502 C 0.9417 0.66625 0.28435 0.0
C503 C 0.91211 0.71216 0.31033 0.0
C504 C 0.92608 0.69185 0.30904 0.0
C505 C 0.97216 0.63607 0.30449 0.0
C506 C 0.95551 0.65481 0.3062 0.0
H507 H 0.87407 0.73295 0.35101 0.0
H508 H 0.89327 0.69826 0.34748 0.0
H509 H 0.9166 0.69287 0.26859 0.0
H510 H 0.02138 0.62327 0.26683 0.0
H511 H 0.99273 0.65326 0.26903 0.0
C512 C 0.79883 0.29331 0.69752 0.0
C513 C 0.81076 0.27554 0.71373 0.0
C514 C 0.81671 0.31265 0.68551 0.0
C515 C 0.88748 0.34467 0.69682 0.0
H516 H 0.86981 0.38313 0.63211 0.0
C517 C 0.95294 0.43295 0.66446 0.0
C518 C 0.93649 0.45057 0.65513 0.0
C519 C 0.94021 0.41029 0.66735 0.0
C520 C 0.87497 0.37259 0.65025 0.0
H521 H 0.85048 0.263 0.72871 0.0
H522 H 0.88207 0.29654 0.7072 0.0
H523 H 0.84314 0.34492 0.64386 0.0
H524 H 0.89412 0.45875 0.64154 0.0
H525 H 0.87161 0.4191 0.64664 0.0
H526 H 0.91866 0.37244 0.70361 0.0
C527 C 0.85888 0.29585 0.70416 0.0
C528 C 0.85972 0.35069 0.65698 0.0
C529 C 0.84091 0.27655 0.71622 0.0
C530 C 0.90727 0.44532 0.64827 0.0
C531 C 0.89448 0.42265 0.65118 0.0
C532 C 0.90272 0.3665 0.69009 0.0
C533 C 0.84694 0.3145 0.68944 0.0
C534 C 0.86544 0.33661 0.68057 0.0
C535 C 0.91068 0.40485 0.66118 0.0
C536 C 0.89632 0.38089 0.66694 0.0
H537 H 0.77557 0.2927 0.69525 0.0
H538 H 0.8067 0.32666 0.67446 0.0
H539 H 0.89211 0.33453 0.71536 0.0
H540 H 0.97551 0.43675 0.67 0.0
H541 H 0.95337 0.39702 0.67483 0.0
C542 C 0.32256 0.21278 0.29514 0.0
C543 C 0.33152 0.23433 0.30093 0.0
C544 C 0.33002 0.19326 0.31163 0.0
C545 C 0.34598 0.17369 0.37941 0.0
H546 H 0.37248 0.12232 0.35923 0.0
C547 C 0.3776 0.09981 0.4554 0.0
C548 C 0.36952 0.07766 0.45113 0.0
C549 C 0.37553 0.1185 0.43565 0.0
C550 C 0.36478 0.13642 0.36514 0.0
H551 H 0.35671 0.25274 0.32719 0.0
H552 H 0.36955 0.21871 0.35628 0.0
H553 H 0.36451 0.15584 0.32669 0.0
H554 H 0.35293 0.05748 0.42311 0.0
H555 H 0.34835 0.09032 0.38843 0.0
H556 H 0.34524 0.1544 0.41754 0.0
C557 C 0.35649 0.21678 0.33924 0.0
C558 C 0.36033 0.15562 0.34651 0.0
C559 C 0.34921 0.23621 0.32269 0.0
C560 C 0.3596 0.07447 0.42665 0.0
C561 C 0.35711 0.09326 0.40686 0.0
C562 C 0.35011 0.15453 0.3979 0.0
C563 C 0.34639 0.19507 0.33423 0.0
C564 C 0.35115 0.17452 0.35355 0.0
C565 C 0.36461 0.11554 0.41127 0.0
C566 C 0.35986 0.1357 0.39111 0.0
H567 H 0.30877 0.21102 0.27848 0.0
H568 H 0.32185 0.17675 0.30735 0.0
H569 H 0.33824 0.18779 0.38533 0.0
H570 H 0.38499 0.10267 0.47423 0.0
H571 H 0.38211 0.13533 0.43966 0.0
C572 C 0.37941 0.74788 0.76218 0.0
C573 C 0.34974 0.74009 0.76425 0.0
C574 C 0.39613 0.75195 0.78376 0.0
C575 C 0.3915 0.75801 0.85171 0.0
H576 H 0.46651 0.73696 0.85832 0.0
C577 C 0.47024 0.76774 0.93784 0.0
C578 C 0.48682 0.75008 0.94723 0.0
C579 C 0.45334 0.7678 0.91536 0.0
C580 C 0.44551 0.74273 0.85693 0.0
H581 H 0.31375 0.73169 0.78979 0.0
H582 H 0.34285 0.73802 0.82778 0.0
H583 H 0.43746 0.73568 0.81936 0.0
H584 H 0.49822 0.71846 0.94024 0.0
H585 H 0.46795 0.71809 0.90177 0.0
H586 H 0.39908 0.76411 0.8898 0.0
C587 C 0.3534 0.74132 0.80957 0.0
C588 C 0.42901 0.74237 0.83434 0.0
C589 C 0.33672 0.73746 0.78792 0.0
C590 C 0.48553 0.73223 0.93382 0.0
C591 C 0.46849 0.73221 0.91146 0.0
C592 C 0.40794 0.75823 0.87441 0.0
C593 C 0.38347 0.74814 0.8079 0.0
C594 C 0.40169 0.74988 0.83145 0.0
C595 C 0.45242 0.75012 0.90175 0.0
C596 C 0.43508 0.75042 0.8774 0.0
H597 H 0.38985 0.7499 0.74409 0.0
H598 H 0.41909 0.75762 0.78162 0.0
H599 H 0.37072 0.76417 0.85009 0.0
H600 H 0.47035 0.78162 0.94782 0.0
H601 H 0.44145 0.78196 0.90841 0.0
C602 C 0.87298 0.81758 0.37185 0.0
C603 C 0.88339 0.82216 0.34695 0.0
C604 C 0.87567 0.83477 0.38613 0.0
C605 C 0.88888 0.8979 0.37826 0.0
H606 H 0.89885 0.88403 0.45215 0.0
C607 C 0.91062 0.96707 0.44033 0.0
C608 C 0.89236 0.96375 0.46122 0.0
C609 C 0.91102 0.94976 0.42659 0.0
C610 C 0.89598 0.88811 0.43152 0.0
H611 H 0.9054 0.84768 0.31748 0.0
H612 H 0.91132 0.87768 0.34259 0.0
H613 H 0.89764 0.85388 0.42786 0.0
H614 H 0.86088 0.93964 0.4846 0.0
H615 H 0.86194 0.90925 0.46083 0.0
H616 H 0.88785 0.93228 0.38207 0.0
C617 C 0.90022 0.86111 0.35101 0.0
C618 C 0.89512 0.87082 0.41756 0.0
C619 C 0.89711 0.84398 0.33666 0.0
C620 C 0.87496 0.94268 0.46843 0.0
C621 C 0.87573 0.92527 0.45497 0.0
C622 C 0.89019 0.91523 0.3922 0.0
C623 C 0.88923 0.85684 0.37586 0.0
C624 C 0.89128 0.87542 0.39074 0.0
C625 C 0.89358 0.9287 0.43379 0.0
C626 C 0.89349 0.91047 0.41897 0.0
H627 H 0.86212 0.80082 0.37993 0.0
H628 H 0.86648 0.83084 0.40495 0.0
H629 H 0.88532 0.90211 0.35773 0.0
H630 H 0.92417 0.98318 0.43436 0.0
H631 H 0.92509 0.95279 0.41042 0.0
C632 C 0.75051 0.22734 0.80716 0.0
C633 C 0.74279 0.23766 0.78226 0.0
C634 C 0.73157 0.225 0.82723 0.0
C635 C 0.66745 0.24832 0.84414 0.0
H636 H 0.66111 0.19551 0.89942 0.0
C637 C 0.57478 0.22729 0.91514 0.0
C638 C 0.58258 0.22241 0.94124 0.0
C639 C 0.59527 0.22894 0.89658 0.0
C640 C 0.6629 0.21043 0.8842 0.0
H641 H 0.7094 0.25299 0.7583 0.0
H642 H 0.67565 0.24829 0.79302 0.0
H643 H 0.69458 0.19832 0.86491 0.0
H644 H 0.61717 0.21427 0.96865 0.0
H645 H 0.65332 0.21677 0.93593 0.0
H646 H 0.63513 0.26005 0.8631 0.0
C647 C 0.69659 0.24259 0.79744 0.0
C648 C 0.6821 0.21211 0.86446 0.0
C649 C 0.71569 0.24514 0.7775 0.0
C650 C 0.61093 0.21836 0.94857 0.0
C651 C 0.63143 0.21969 0.92993 0.0
C652 C 0.64805 0.2465 0.86367 0.0
C653 C 0.70441 0.23276 0.82266 0.0
C654 C 0.68447 0.23102 0.84406 0.0
C655 C 0.62382 0.22527 0.90376 0.0
C656 C 0.64545 0.22749 0.88379 0.0
H657 H 0.7715 0.22163 0.81109 0.0
H658 H 0.73853 0.21762 0.84639 0.0
H659 H 0.66917 0.26342 0.82917 0.0
H660 H 0.5528 0.22997 0.90914 0.0
H661 H 0.58872 0.23288 0.87656 0.0
C662 C 0.36347 0.77932 0.70036 0.0
C663 C 0.33785 0.77026 0.71338 0.0
C664 C 0.36851 0.80244 0.68922 0.0
C665 C 0.32773 0.84789 0.65962 0.0
H666 H 0.40039 0.88779 0.66123 0.0
C667 C 0.35412 0.93174 0.58643 0.0
C668 C 0.36506 0.95093 0.59663 0.0
C669 C 0.35167 0.91007 0.60198 0.0
C670 C 0.37996 0.87683 0.6607 0.0
H671 H 0.29768 0.77771 0.72558 0.0
H672 H 0.30623 0.81829 0.70601 0.0
H673 H 0.39507 0.84946 0.68788 0.0
H674 H 0.38087 0.96286 0.63111 0.0
H675 H 0.37753 0.9248 0.65822 0.0
H676 H 0.31275 0.87498 0.63214 0.0
C677 C 0.32257 0.80767 0.70456 0.0
C678 C 0.37697 0.85493 0.67584 0.0
C679 C 0.31776 0.78463 0.71592 0.0
C680 C 0.37326 0.94819 0.62267 0.0
C681 C 0.37123 0.92649 0.63815 0.0
C682 C 0.33086 0.86961 0.64424 0.0
C683 C 0.34766 0.81669 0.69054 0.0
C684 C 0.35079 0.84026 0.67545 0.0
C685 C 0.36024 0.90723 0.62798 0.0
C686 C 0.35701 0.88428 0.64457 0.0
H687 H 0.37881 0.76825 0.69776 0.0
H688 H 0.38789 0.80888 0.67831 0.0
H689 H 0.30742 0.83685 0.65871 0.0
H690 H 0.34729 0.93357 0.56646 0.0
H691 H 0.34319 0.8955 0.59364 0.0
C692 C 0.85254 0.79346 0.25459 0.0
C693 C 0.84923 0.7793 0.27878 0.0
C694 C 0.83443 0.78885 0.23402 0.0
C695 C 0.78032 0.74498 0.21176 0.0
H696 H 0.75033 0.79773 0.17135 0.0
C697 C 0.67883 0.73914 0.14425 0.0
C698 C 0.67929 0.75495 0.12097 0.0
C699 C 0.70141 0.74079 0.16245 0.0
C700 C 0.75876 0.78283 0.18217 0.0
H701 H 0.82567 0.74876 0.30049 0.0
H702 H 0.79362 0.7406 0.26461 0.0
H703 H 0.78702 0.80264 0.20456 0.0
H704 H 0.70455 0.78421 0.09807 0.0
H705 H 0.74379 0.78708 0.12973 0.0
H706 H 0.75147 0.72517 0.18951 0.0
C707 C 0.81033 0.75517 0.26132 0.0
C708 C 0.77989 0.78565 0.20123 0.0
C709 C 0.82858 0.75978 0.28187 0.0
C710 C 0.7032 0.77205 0.11603 0.0
C711 C 0.72572 0.77369 0.13418 0.0
C712 C 0.75908 0.74215 0.19267 0.0
C713 C 0.81254 0.77 0.23731 0.0
C714 C 0.79093 0.76678 0.21631 0.0
C715 C 0.72494 0.75827 0.15775 0.0
C716 C 0.74801 0.76106 0.17768 0.0
H717 H 0.86863 0.80845 0.25186 0.0
H718 H 0.83719 0.80034 0.21567 0.0
H719 H 0.78854 0.7301 0.22287 0.0
H720 H 0.66062 0.72589 0.14876 0.0
H721 H 0.69997 0.72879 0.18052 0.0
C722 C 0.82599 0.20869 0.72931 0.0
C723 C 0.80783 0.22461 0.71796 0.0
C724 C 0.83743 0.19564 0.71457 0.0
C725 C 0.84898 0.19067 0.64753 0.0
H726 H 0.84562 0.12653 0.67742 0.0
C727 C 0.85484 0.12275 0.58713 0.0
C728 C 0.87139 0.10515 0.59689 0.0
C729 C 0.84983 0.13813 0.60211 0.0
C730 C 0.84709 0.14444 0.66891 0.0
H731 H 0.78815 0.24019 0.68249 0.0
H732 H 0.80784 0.21729 0.6565 0.0
H733 H 0.83278 0.15251 0.70292 0.0
H734 H 0.89577 0.09009 0.63014 0.0
H735 H 0.88669 0.11684 0.65643 0.0
H736 H 0.86263 0.1824 0.61329 0.0
C737 C 0.81363 0.21497 0.6767 0.0
C738 C 0.83979 0.15938 0.68355 0.0
C739 C 0.80231 0.22807 0.69148 0.0
C740 C 0.88264 0.10325 0.62211 0.0
C741 C 0.8775 0.11861 0.63716 0.0
C742 C 0.85616 0.1757 0.63286 0.0
C743 C 0.83083 0.19822 0.68817 0.0
C744 C 0.84039 0.18266 0.67298 0.0
C745 C 0.86108 0.13625 0.6273 0.0
C746 C 0.85503 0.15237 0.64331 0.0
H747 H 0.83072 0.20602 0.7497 0.0
H748 H 0.85109 0.18327 0.72395 0.0
H749 H 0.85012 0.20853 0.6389 0.0
H750 H 0.84529 0.12447 0.568 0.0
H751 H 0.83661 0.15125 0.5941 0.0
C752 C 0.32205 0.24387 0.2225 0.0
C753 C 0.33706 0.25071 0.24372 0.0
C754 C 0.33659 0.236 0.20462 0.0
C755 C 0.40864 0.24183 0.17852 0.0
H756 H 0.37416 0.19289 0.14504 0.0
C757 C 0.46522 0.21828 0.09598 0.0
C758 C 0.44732 0.21408 0.07506 0.0
C759 C 0.4531 0.21971 0.1189 0.0
C760 C 0.38401 0.20669 0.15408 0.0
H761 H 0.37849 0.25415 0.26362 0.0
H762 H 0.40425 0.24029 0.2323 0.0
H763 H 0.35038 0.20048 0.18139 0.0
H764 H 0.40313 0.2079 0.0612 0.0
H765 H 0.3817 0.21074 0.10103 0.0
H766 H 0.44174 0.24858 0.15078 0.0
C767 C 0.38128 0.24112 0.22937 0.0
C768 C 0.37041 0.21099 0.17495 0.0
C769 C 0.36662 0.24886 0.24735 0.0
C770 C 0.4172 0.21098 0.07732 0.0
C771 C 0.40504 0.21248 0.10015 0.0
C772 C 0.42216 0.23761 0.15758 0.0
C773 C 0.36649 0.23494 0.20759 0.0
C774 C 0.38234 0.22883 0.18715 0.0
C775 C 0.42283 0.21708 0.12117 0.0
C776 C 0.40977 0.22023 0.14483 0.0
H777 H 0.29919 0.24514 0.21953 0.0
H778 H 0.32462 0.2316 0.18795 0.0
H779 H 0.41818 0.2559 0.18727 0.0
H780 H 0.48855 0.22074 0.09445 0.0
H781 H 0.46742 0.223 0.13477 0.0
C782 C 0.8507 0.7309 0.73324 0.0
C783 C 0.82564 0.73895 0.72155 0.0
C784 C 0.86479 0.71657 0.72224 0.0
C785 C 0.84977 0.67361 0.6828 0.0
H786 H 0.93337 0.67819 0.6821 0.0
C787 C 0.90837 0.60604 0.65057 0.0
C788 C 0.93329 0.60038 0.66498 0.0
C789 C 0.89512 0.6244 0.65428 0.0
C790 C 0.90998 0.67653 0.68236 0.0
H791 H 0.79588 0.73918 0.68911 0.0
H792 H 0.82043 0.71376 0.66969 0.0
H793 H 0.91123 0.70862 0.69359 0.0
H794 H 0.96303 0.60884 0.69534 0.0
H795 H 0.93983 0.64037 0.70211 0.0
H796 H 0.84849 0.64111 0.67254 0.0
C797 C 0.82922 0.71856 0.68733 0.0
C798 C 0.89733 0.69404 0.68882 0.0
C799 C 0.81535 0.73318 0.69822 0.0
C800 C 0.94423 0.61308 0.68354 0.0
C801 C 0.93097 0.63125 0.68734 0.0
C802 C 0.86245 0.65596 0.67653 0.0
C803 C 0.85384 0.70982 0.69947 0.0
C804 C 0.86711 0.69258 0.68959 0.0
C805 C 0.90644 0.63736 0.67258 0.0
C806 C 0.89274 0.65698 0.67678 0.0
H807 H 0.85877 0.73518 0.75131 0.0
H808 H 0.88353 0.70997 0.73219 0.0
H809 H 0.82641 0.67191 0.68348 0.0
H810 H 0.89954 0.59662 0.63605 0.0
H811 H 0.87634 0.62869 0.64249 0.0
C812 C 0.89246 0.29897 0.27055 0.0
C813 C 0.86251 0.29768 0.27292 0.0
C814 C 0.91119 0.31741 0.27682 0.0
C815 C 0.90991 0.37718 0.28128 0.0
H816 H 0.98728 0.37373 0.31062 0.0
C817 C 0.98282 0.45629 0.304 0.0
C818 C 0.01188 0.45897 0.29728 0.0
C819 C 0.96488 0.43583 0.30336 0.0
C820 C 0.96579 0.37497 0.30224 0.0
H821 H 0.82856 0.31335 0.28524 0.0
H822 H 0.86111 0.34536 0.29679 0.0
H823 H 0.95551 0.33881 0.30644 0.0
H824 H 0.04526 0.44283 0.28466 0.0
H825 H 0.01387 0.40697 0.28327 0.0
H826 H 0.92016 0.41325 0.2768 0.0
C827 C 0.87026 0.3326 0.28945 0.0
C828 C 0.94758 0.35497 0.29985 0.0
C829 C 0.85164 0.31427 0.28306 0.0
C830 C 0.02287 0.44095 0.29004 0.0
C831 C 0.00496 0.42045 0.28942 0.0
C832 C 0.92804 0.39712 0.2837 0.0
C833 C 0.9002 0.33479 0.28567 0.0
C834 C 0.91942 0.35584 0.28928 0.0
C835 C 0.97568 0.41769 0.29592 0.0
C836 C 0.95624 0.3963 0.29412 0.0
H837 H 0.90114 0.28634 0.2626 0.0
H838 H 0.93408 0.31859 0.27353 0.0
H839 H 0.88861 0.37858 0.27251 0.0
H840 H 0.97401 0.47009 0.30958 0.0
H841 H 0.94254 0.43419 0.30875 0.0
C842 C 0.21155 0.3109 0.69035 0.0
C843 C 0.19864 0.29009 0.68458 0.0
C844 C 0.19658 0.32969 0.68549 0.0
C845 C 0.13761 0.35517 0.64799 0.0
H846 H 0.13248 0.384 0.70583 0.0
C847 C 0.06181 0.42312 0.64632 0.0
C848 C 0.07089 0.4405 0.65999 0.0
C849 C 0.07776 0.40502 0.64807 0.0
C850 C 0.13407 0.37651 0.68928 0.0
H851 H 0.16049 0.2725 0.66882 0.0
H852 H 0.13433 0.30572 0.65949 0.0
H853 H 0.16035 0.35252 0.71019 0.0
H854 H 0.1042 0.45319 0.68533 0.0
H855 H 0.13269 0.42224 0.68765 0.0
H856 H 0.11193 0.37946 0.62682 0.0
C857 C 0.15602 0.30745 0.6678 0.0
C858 C 0.14995 0.35836 0.69187 0.0
C859 C 0.1709 0.28853 0.67304 0.0
C860 C 0.09654 0.4398 0.6749 0.0
C861 C 0.11274 0.42196 0.67632 0.0
C862 C 0.12204 0.37361 0.64524 0.0
C863 C 0.16853 0.32807 0.67447 0.0
C864 C 0.15187 0.3475 0.67129 0.0
C865 C 0.10339 0.40412 0.66323 0.0
C866 C 0.12005 0.38453 0.66588 0.0
H867 H 0.23299 0.31238 0.69918 0.0
H868 H 0.20681 0.34544 0.6906 0.0
H869 H 0.1389 0.34713 0.63179 0.0
H870 H 0.04196 0.42324 0.63482 0.0
H871 H 0.0696 0.3915 0.638 0.0
C872 C 0.33364 0.72519 0.32895 0.0
C873 C 0.33508 0.74472 0.30957 0.0
C874 C 0.31522 0.70548 0.32613 0.0
C875 C 0.27218 0.67615 0.27919 0.0
H876 H 0.22426 0.64839 0.33742 0.0
C877 C 0.19415 0.59142 0.28469 0.0
C878 C 0.16674 0.5909 0.29448 0.0
C879 C 0.21565 0.60995 0.2855 0.0
C880 C 0.2374 0.65599 0.32096 0.0
H881 H 0.31951 0.75891 0.2717 0.0
H882 H 0.28735 0.7243 0.26647 0.0
H883 H 0.261 0.68074 0.34045 0.0
H884 H 0.13995 0.6091 0.31249 0.0
H885 H 0.17751 0.64151 0.31409 0.0
H886 H 0.24817 0.65147 0.25963 0.0
C887 C 0.30049 0.72416 0.28385 0.0
C888 C 0.25868 0.67436 0.32279 0.0
C889 C 0.31885 0.74393 0.28678 0.0
C890 C 0.16102 0.6092 0.30491 0.0
C891 C 0.18253 0.62762 0.30591 0.0
C892 C 0.251 0.6576 0.27743 0.0
C893 C 0.29798 0.70489 0.30376 0.0
C894 C 0.27623 0.68474 0.3019 0.0
C895 C 0.21015 0.62815 0.29636 0.0
C896 C 0.23321 0.64745 0.29825 0.0
H897 H 0.34634 0.72542 0.34652 0.0
H898 H 0.31415 0.69079 0.34162 0.0
H899 H 0.28547 0.68371 0.26282 0.0
H900 H 0.19897 0.57736 0.27669 0.0
H901 H 0.23677 0.60979 0.27818 0.0
C902 C 0.7952 0.7996 0.68713 0.0
C903 C 0.81397 0.78775 0.70443 0.0
C904 C 0.80612 0.81813 0.66847 0.0
C905 C 0.87007 0.86185 0.65818 0.0
H906 H 0.83031 0.88122 0.59351 0.0
C907 C 0.87977 0.95565 0.60749 0.0
C908 C 0.87899 0.96099 0.58069 0.0
C909 C 0.87546 0.93299 0.62033 0.0
C910 C 0.84202 0.87598 0.6113 0.0
H911 H 0.85876 0.7848 0.71498 0.0
H912 H 0.8782 0.81682 0.68178 0.0
H913 H 0.81668 0.84308 0.61827 0.0
H914 H 0.87321 0.94734 0.54607 0.0
H915 H 0.86619 0.9075 0.56844 0.0
H916 H 0.89548 0.89469 0.65119 0.0
C917 C 0.85496 0.81218 0.68293 0.0
C918 C 0.83395 0.85416 0.62566 0.0
C919 C 0.84394 0.79368 0.70169 0.0
C920 C 0.87409 0.94344 0.56681 0.0
C921 C 0.86988 0.92073 0.57963 0.0
C922 C 0.87824 0.88361 0.64376 0.0
C923 C 0.83615 0.82512 0.66664 0.0
C924 C 0.84739 0.847 0.6496 0.0
C925 C 0.87025 0.91521 0.60659 0.0
C926 C 0.86383 0.89118 0.62045 0.0
H927 H 0.772 0.79516 0.68894 0.0
H928 H 0.7909 0.82772 0.6565 0.0
H929 H 0.88077 0.85709 0.6766 0.0
H930 H 0.88306 0.96905 0.61846 0.0
H931 H 0.8753 0.92947 0.64104 0.0
C932 C 0.76039 0.27332 0.22006 0.0
C933 C 0.78514 0.26274 0.21996 0.0
C934 C 0.73738 0.26989 0.20276 0.0
C935 C 0.71885 0.2501 0.1417 0.0
H936 H 0.64018 0.2423 0.16505 0.0
C937 C 0.62036 0.21871 0.08184 0.0
C938 C 0.59626 0.23041 0.0801 0.0
C939 C 0.64324 0.22273 0.09906 0.0
C940 C 0.66203 0.24465 0.15819 0.0
H941 H 0.80565 0.2406 0.2018 0.0
H942 H 0.76523 0.23403 0.17189 0.0
H943 H 0.68063 0.24949 0.19455 0.0
H944 H 0.57692 0.25507 0.09547 0.0
H945 H 0.61695 0.26214 0.12552 0.0
H946 H 0.70018 0.24497 0.10542 0.0
C947 C 0.76363 0.24527 0.18498 0.0
C948 C 0.68522 0.24883 0.17507 0.0
C949 C 0.78665 0.24882 0.20221 0.0
C950 C 0.59533 0.24595 0.09623 0.0
C951 C 0.61812 0.24985 0.11358 0.0
C952 C 0.69567 0.24579 0.12489 0.0
C953 C 0.73865 0.25571 0.18509 0.0
C954 C 0.71393 0.25159 0.16704 0.0
C955 C 0.64242 0.2384 0.11504 0.0
C956 C 0.66701 0.24299 0.13295 0.0
H957 H 0.75876 0.28399 0.23377 0.0
H958 H 0.71866 0.27842 0.20317 0.0
H959 H 0.74065 0.25253 0.13473 0.0
H960 H 0.62181 0.20678 0.06951 0.0
H961 H 0.66155 0.21348 0.09993 0.0
C962 C 0.24345 0.20208 0.69268 0.0
C963 C 0.25194 0.22524 0.68303 0.0
C964 C 0.25589 0.18565 0.68373 0.0
C965 C 0.27047 0.15704 0.64649 0.0
H966 H 0.35325 0.1611 0.63853 0.0
C967 C 0.31971 0.10677 0.58322 0.0
C968 C 0.34268 0.09502 0.59388 0.0
C969 C 0.30956 0.12205 0.59575 0.0
C970 C 0.33012 0.1597 0.64082 0.0
H971 H 0.28089 0.24966 0.6576 0.0
H972 H 0.30296 0.22089 0.64182 0.0
H973 H 0.3342 0.1892 0.65788 0.0
H974 H 0.3732 0.09017 0.62591 0.0
H975 H 0.35565 0.11738 0.64777 0.0
H976 H 0.26626 0.12788 0.62899 0.0
C977 C 0.28653 0.21541 0.65616 0.0
C978 C 0.31923 0.17583 0.6517 0.0
C979 C 0.27379 0.23183 0.66494 0.0
C980 C 0.35542 0.09897 0.61733 0.0
C981 C 0.34551 0.11459 0.62972 0.0
C982 C 0.2813 0.14114 0.63531 0.0
C983 C 0.27739 0.19214 0.66521 0.0
C984 C 0.28927 0.17469 0.65455 0.0
C985 C 0.32233 0.12614 0.61911 0.0
C986 C 0.3112 0.14238 0.63222 0.0
H987 H 0.22672 0.19678 0.70677 0.0
H988 H 0.24864 0.16785 0.69122 0.0
H989 H 0.24728 0.15584 0.64826 0.0
H990 H 0.30928 0.10388 0.5653 0.0
H991 H 0.29181 0.13085 0.58704 0.0
C992 C 0.38178 0.79025 0.25224 0.0
C993 C 0.38131 0.77437 0.27538 0.0
C994 C 0.39535 0.78668 0.23102 0.0
C995 C 0.42244 0.74367 0.20224 0.0
H996 H 0.4766 0.79474 0.16953 0.0
C997 C 0.48073 0.74604 0.10796 0.0
C998 C 0.51043 0.75422 0.10775 0.0
C999 C 0.46398 0.74738 0.12842 0.0
C1000 C 0.46163 0.78031 0.17851 0.0
H1001 H 0.39327 0.74187 0.29431 0.0
H1002 H 0.41672 0.7353 0.25693 0.0
H1003 H 0.44799 0.79881 0.2048 0.0
H1004 H 0.54607 0.77009 0.12841 0.0
H1005 H 0.51677 0.77279 0.16408 0.0
H1006 H 0.43628 0.72518 0.17587 0.0
C1007 C 0.40668 0.75056 0.25524 0.0
C1008 C 0.44504 0.7827 0.19853 0.0
C1009 C 0.39329 0.75426 0.27657 0.0
C1010 C 0.52317 0.76373 0.12824 0.0
C1011 C 0.5064 0.76532 0.14853 0.0
C1012 C 0.43883 0.74136 0.18195 0.0
C1013 C 0.40846 0.76702 0.23243 0.0
C1014 C 0.42534 0.7644 0.21069 0.0
C1015 C 0.47661 0.75724 0.1488 0.0
C1016 C 0.45874 0.75963 0.17001 0.0
H1017 H 0.37215 0.80565 0.25083 0.0
H1018 H 0.39593 0.79947 0.21357 0.0
H1019 H 0.40736 0.72931 0.2112 0.0
H1020 H 0.47051 0.73878 0.0922 0.0
H1021 H 0.44104 0.7412 0.12802 0.0
C1022 C 0.85639 0.24978 0.31478 0.0
C1023 C 0.85805 0.24632 0.28975 0.0
C1024 C 0.86688 0.23469 0.33546 0.0
C1025 C 0.90827 0.18492 0.35288 0.0
H1026 H 0.85455 0.16709 0.40858 0.0
C1027 C 0.89967 0.09821 0.42421 0.0
C1028 C 0.89512 0.0985 0.44986 0.0
C1029 C 0.89981 0.11816 0.40558 0.0
C1030 C 0.87002 0.17205 0.39338 0.0
H1031 H 0.87387 0.22583 0.26628 0.0
H1032 H 0.89149 0.19904 0.30219 0.0
H1033 H 0.84782 0.19949 0.37483 0.0
H1034 H 0.88811 0.11948 0.47663 0.0
H1035 H 0.88826 0.15434 0.44418 0.0
H1036 H 0.92969 0.15667 0.37117 0.0
C1037 C 0.88249 0.21341 0.30614 0.0
C1038 C 0.86627 0.19076 0.37403 0.0
C1039 C 0.87224 0.22862 0.28553 0.0
C1040 C 0.8915 0.11899 0.45684 0.0
C1041 C 0.89149 0.13883 0.43829 0.0
C1042 C 0.91187 0.16603 0.37218 0.0
C1043 C 0.879 0.21576 0.33145 0.0
C1044 C 0.88513 0.19733 0.35335 0.0
C1045 C 0.89522 0.13859 0.4124 0.0
C1046 C 0.8926 0.15928 0.39251 0.0
H1047 H 0.84544 0.26332 0.31841 0.0
H1048 H 0.86443 0.23734 0.35465 0.0
H1049 H 0.92345 0.18964 0.33745 0.0
H1050 H 0.9025 0.08251 0.41856 0.0
H1051 H 0.90251 0.11742 0.38575 0.0
C1052 C 0.24252 0.21955 0.75831 0.0
C1053 C 0.25492 0.23382 0.73648 0.0
C1054 C 0.26 0.21193 0.77952 0.0
C1055 C 0.33685 0.20786 0.80057 0.0
H1056 H 0.30999 0.21274 0.86649 0.0
C1057 C 0.4141 0.22084 0.8851 0.0
C1058 C 0.40712 0.20801 0.90958 0.0
C1059 C 0.39442 0.22031 0.86455 0.0
C1060 C 0.3176 0.21095 0.84829 0.0
H1061 H 0.29478 0.25072 0.71882 0.0
H1062 H 0.32555 0.2378 0.75581 0.0
H1063 H 0.27755 0.21772 0.82896 0.0
H1064 H 0.37361 0.1847 0.93157 0.0
H1065 H 0.3388 0.18433 0.89558 0.0
H1066 H 0.37732 0.20207 0.8198 0.0
C1067 C 0.3025 0.2321 0.75671 0.0
C1068 C 0.29901 0.21373 0.82676 0.0
C1069 C 0.285 0.2396 0.73556 0.0
C1070 C 0.37963 0.19495 0.91305 0.0
C1071 C 0.35975 0.19463 0.89245 0.0
C1072 C 0.35547 0.20527 0.82202 0.0
C1073 C 0.29017 0.21853 0.77917 0.0
C1074 C 0.30863 0.21272 0.80253 0.0
C1075 C 0.36708 0.20719 0.86796 0.0
C1076 C 0.34624 0.20728 0.84597 0.0
H1077 H 0.21928 0.21481 0.7591 0.0
H1078 H 0.24984 0.20121 0.79632 0.0
H1079 H 0.34478 0.20648 0.78233 0.0
H1080 H 0.43471 0.23159 0.88178 0.0
H1081 H 0.40043 0.23057 0.84602 0.0
C1082 C 0.35933 0.83519 0.33559 0.0
C1083 C 0.36705 0.81366 0.34578 0.0
C1084 C 0.36092 0.85156 0.35084 0.0
C1085 C 0.36633 0.8581 0.41909 0.0
H1086 H 0.3859 0.92182 0.38832 0.0
C1087 C 0.38831 0.93027 0.47744 0.0
C1088 C 0.37259 0.94856 0.46885 0.0
C1089 C 0.38871 0.91368 0.4627 0.0
C1090 C 0.38032 0.90408 0.39713 0.0
H1091 H 0.38278 0.79213 0.37943 0.0
H1092 H 0.38673 0.82091 0.40614 0.0
H1093 H 0.38526 0.89312 0.3622 0.0
H1094 H 0.34552 0.96414 0.438 0.0
H1095 H 0.34671 0.93539 0.41199 0.0
H1096 H 0.36216 0.86929 0.4542 0.0
C1097 C 0.37863 0.82514 0.38661 0.0
C1098 C 0.37976 0.88759 0.38215 0.0
C1099 C 0.3766 0.80868 0.37138 0.0
C1100 C 0.35766 0.95014 0.44511 0.0
C1101 C 0.35849 0.93379 0.43019 0.0
C1102 C 0.36736 0.8746 0.43415 0.0
C1103 C 0.37072 0.84682 0.37658 0.0
C1104 C 0.37242 0.86435 0.39283 0.0
C1105 C 0.37386 0.91533 0.4389 0.0
C1106 C 0.37407 0.89776 0.42324 0.0
H1107 H 0.35166 0.83917 0.31588 0.0
H1108 H 0.35402 0.8678 0.34251 0.0
H1109 H 0.36011 0.84047 0.42798 0.0
H1110 H 0.39987 0.92861 0.49574 0.0
H1111 H 0.40082 0.89966 0.46979 0.0
C1112 C 0.77823 0.74998 0.81106 0.0
C1113 C 0.76527 0.75616 0.7868 0.0
C1114 C 0.76287 0.74874 0.83318 0.0
C1115 C 0.7009 0.76995 0.85594 0.0
H1116 H 0.70631 0.72107 0.91464 0.0
C1117 C 0.62807 0.75678 0.94305 0.0
C1118 C 0.64106 0.75093 0.96733 0.0
C1119 C 0.64309 0.75697 0.92106 0.0
C1120 C 0.70482 0.73497 0.89851 0.0
H1121 H 0.72625 0.76549 0.76634 0.0
H1122 H 0.69915 0.76332 0.80497 0.0
H1123 H 0.73273 0.72207 0.87613 0.0
H1124 H 0.6796 0.74087 0.9881 0.0
H1125 H 0.70622 0.74135 0.94962 0.0
H1126 H 0.67312 0.78293 0.8783 0.0
C1127 C 0.72128 0.75971 0.80701 0.0
C1128 C 0.71994 0.73553 0.87644 0.0
C1129 C 0.73666 0.7609 0.78494 0.0
C1130 C 0.66924 0.74527 0.96944 0.0
C1131 C 0.68431 0.74545 0.94746 0.0
C1132 C 0.68581 0.76941 0.878 0.0
C1133 C 0.73425 0.75372 0.83141 0.0
C1134 C 0.71813 0.75302 0.85488 0.0
C1135 C 0.67144 0.75137 0.92299 0.0
C1136 C 0.68755 0.7519 0.89955 0.0
H1137 H 0.80042 0.74653 0.81284 0.0
H1138 H 0.77362 0.74437 0.85165 0.0
H1139 H 0.69943 0.78388 0.83984 0.0
H1140 H 0.60629 0.76118 0.94114 0.0
H1141 H 0.6324 0.76131 0.90255 0.0
loop_
_geom_bond_atom_site_label_1
_geom_bond_atom_site_label_2
_geom_bond_distance
_geom_bond_site_symmetry_2
_ccdc_geom_bond_type
C0 N1 1.317 . S
C0 N2 1.348 . S
C0 C3 1.485 . S
N1 C0 1.317 . S
N1 N5 1.370 . S
N2 C0 1.348 . S
N2 C4 1.346 . S
C3 C0 1.485 . S
C3 H7 0.960 . S
C3 H8 0.961 . S
C3 H9 0.960 . S
C4 N2 1.346 . S
C4 N5 1.307 . S
C4 C6 1.486 . S
N5 N1 1.370 . S
N5 C4 1.307 . S
C6 C4 1.486 . S
C6 H10 0.960 . S
C6 H11 0.960 . S
C6 H12 0.959 . S
H7 C3 0.960 . S
H8 C3 0.961 . S
H9 C3 0.960 . S
H10 C6 0.960 . S
H11 C6 0.960 . S
H12 C6 0.959 . S
C13 N14 1.317 . S
C13 N15 1.348 . S
C13 C16 1.485 . S
N14 C13 1.317 . S
N14 N18 1.370 . S
N15 C13 1.348 . S
N15 C17 1.346 . S
C16 C13 1.485 . S
C16 H20 0.960 . S
C16 H21 0.961 . S
C16 H22 0.960 . S
C17 N15 1.346 . S
C17 N18 1.307 . S
C17 C19 1.486 . S
N18 N14 1.370 . S
N18 C17 1.307 . S
C19 C17 1.486 . S
C19 H23 0.960 . S
C19 H24 0.960 . S
C19 H25 0.959 . S
H20 C16 0.960 . S
H21 C16 0.961 . S
H22 C16 0.960 . S
H23 C19 0.960 . S
H24 C19 0.960 . S
H25 C19 0.959 . S
C26 N27 1.317 . S
C26 N28 1.348 . S
C26 C29 1.485 . S
N27 C26 1.317 . S
N27 N31 1.370 . S
N28 C26 1.348 . S
N28 C30 1.346 . S
C29 C26 1.485 . S
C29 H33 0.960 . S
C29 H34 0.961 . S
C29 H35 0.960 . S
C30 N28 1.346 . S
C30 N31 1.307 . S
C30 C32 1.486 . S
N31 N27 1.370 . S
N31 C30 1.307 . S
C32 C30 1.486 . S
C32 H36 0.960 . S
C32 H37 0.960 . S
C32 H38 0.959 . S
H33 C29 0.960 . S
H34 C29 0.961 . S
H35 C29 0.960 . S
H36 C32 0.960 . S
H37 C32 0.960 . S
H38 C32 0.959 . S
C39 N40 1.317 . S
C39 N41 1.348 . S
C39 C42 1.485 . S
N40 C39 1.317 . S
N40 N44 1.370 . S
N41 C39 1.348 . S
N41 C43 1.346 . S
C42 C39 1.485 . S
C42 H46 0.960 . S
C42 H47 0.961 . S
C42 H48 0.960 . S
C43 N41 1.346 . S
C43 N44 1.307 . S
C43 C45 1.486 . S
N44 N40 1.370 . S
N44 C43 1.307 . S
C45 C43 1.486 . S
C45 H49 0.960 . S
C45 H50 0.960 . S
C45 H51 0.959 . S
H46 C42 0.960 . S
H47 C42 0.961 . S
H48 C42 0.960 . S
H49 C45 0.960 . S
H50 C45 0.960 . S
H51 C45 0.959 . S
C52 N53 1.317 . S
C52 N54 1.348 . S
C52 C55 1.485 . S
N53 C52 1.317 . S
N53 N57 1.370 . S
N54 C52 1.348 . S
N54 C56 1.346 . S
C55 C52 1.485 . S
C55 H59 0.960 . S
C55 H60 0.961 . S
C55 H61 0.960 . S
C56 N54 1.346 . S
C56 N57 1.307 . S
C56 C58 1.486 . S
N57 N53 1.370 . S
N57 C56 1.307 . S
C58 C56 1.486 . S
C58 H62 0.960 . S
C58 H63 0.960 . S
C58 H64 0.959 . S
H59 C55 0.960 . S
H60 C55 0.961 . S
H61 C55 0.960 . S
H62 C58 0.960 . S
H63 C58 0.960 . S
H64 C58 0.959 . S
C65 N66 1.317 . S
C65 N67 1.348 . S
C65 C68 1.485 . S
N66 C65 1.317 . S
N66 N70 1.370 . S
N67 C65 1.348 . S
N67 C69 1.346 . S
C68 C65 1.485 . S
C68 H72 0.960 . S
C68 H73 0.961 . S
C68 H74 0.960 . S
C69 N67 1.346 . S
C69 N70 1.307 . S
C69 C71 1.486 . S
N70 N66 1.370 . S
N70 C69 1.307 . S
C71 C69 1.486 . S
C71 H75 0.960 . S
C71 H76 0.960 . S
C71 H77 0.959 . S
H72 C68 0.960 . S
H73 C68 0.961 . S
H74 C68 0.960 . S
H75 C71 0.960 . S
H76 C71 0.960 . S
H77 C71 0.959 . S
C78 N79 1.317 . S
C78 N80 1.348 . S
C78 C81 1.485 . S
N79 C78 1.317 . S
N79 N83 1.370 . S
N80 C78 1.348 . S
N80 C82 1.346 . S
C81 C78 1.485 . S
C81 H85 0.960 . S
C81 H86 0.961 . S
C81 H87 0.960 . S
C82 N80 1.346 . S
C82 N83 1.307 . S
C82 C84 1.486 . S
N83 N79 1.370 . S
N83 C82 1.307 . S
C84 C82 1.486 . S
C84 H88 0.960 . S
C84 H89 0.960 . S
C84 H90 0.959 . S
H85 C81 0.960 . S
H86 C81 0.961 . S
H87 C81 0.960 . S
H88 C84 0.960 . S
H89 C84 0.960 . S
H90 C84 0.959 . S
C91 N92 1.317 . S
C91 N93 1.348 . S
C91 C94 1.485 . S
N92 C91 1.317 . S
N92 N96 1.370 . S
N93 C91 1.348 . S
N93 C95 1.346 . S
C94 C91 1.485 . S
C94 H98 0.960 . S
C94 H99 0.961 . S
C94 H100 0.960 . S
C95 N93 1.346 . S
C95 N96 1.307 . S
C95 C97 1.486 . S
N96 N92 1.370 . S
N96 C95 1.307 . S
C97 C95 1.486 . S
C97 H101 0.960 . S
C97 H102 0.960 . S
C97 H103 0.959 . S
H98 C94 0.960 . S
H99 C94 0.961 . S
H100 C94 0.960 . S
H101 C97 0.960 . S
H102 C97 0.960 . S
H103 C97 0.959 . S
C104 C105 1.443 . S
C104 N108 1.376 . S
C104 C142 1.389 . S
C105 C104 1.443 . S
C105 C106 1.340 . S
C105 H145 0.951 . S
C106 C105 1.340 . S
C106 C107 1.439 . S
C106 H146 0.950 . S
C107 C106 1.439 . S
C107 N108 1.374 . S
C107 C141 1.395 . S
N108 C104 1.376 . S
N108 C107 1.374 . S
N108 Co109 2.008 . S
Co109 N108 2.008 . S
Co109 N110 1.995 . S
Co109 N115 2.008 . S
Co109 N120 1.995 . S
Co109 N125 2.282 . S
Co109 N131 2.282 . S
N110 Co109 1.995 . S
N110 C111 1.376 . S
N110 C114 1.383 . S
C111 N110 1.376 . S
C111 C112 1.446 . S
C111 C141 1.391 . S
C112 C111 1.446 . S
C112 C113 1.339 . S
C112 H147 0.949 . S
C113 C112 1.339 . S
C113 C114 1.439 . S
C113 H148 0.950 . S
C114 N110 1.383 . S
C114 C113 1.439 . S
C114 C143 1.392 . S
N115 Co109 2.008 . S
N115 C116 1.376 . S
N115 C119 1.374 . S
C116 N115 1.376 . S
C116 C117 1.443 . S
C116 C143 1.389 . S
C117 C116 1.443 . S
C117 C118 1.340 . S
C117 H149 0.951 . S
C118 C117 1.340 . S
C118 C119 1.439 . S
C118 H150 0.950 . S
C119 N115 1.374 . S
C119 C118 1.439 . S
C119 C144 1.395 . S
N120 Co109 1.995 . S
N120 C121 1.376 . S
N120 C124 1.383 . S
C121 N120 1.376 . S
C121 C122 1.446 . S
C121 C144 1.391 . S
C122 C121 1.446 . S
C122 C123 1.339 . S
C122 H151 0.949 . S
C123 C122 1.339 . S
C123 C124 1.439 . S
C123 H152 0.950 . S
C124 N120 1.383 . S
C124 C123 1.439 . S
C124 C142 1.392 . S
N125 Co109 2.282 . S
N125 C128 1.332 . S
N125 C130 1.332 . S
C126 C127 1.386 . S
C126 C129 1.388 . S
C127 C126 1.386 . S
C127 C128 1.382 . S
C127 H153 0.950 . S
C128 N125 1.332 . S
C128 C127 1.382 . S
C128 H139 0.952 . S
C129 C126 1.388 . S
C129 C130 1.382 . S
C129 H154 0.950 . S
C130 N125 1.332 . S
C130 C129 1.382 . S
C130 H140 0.948 . S
N131 Co109 2.282 . S
N131 C135 1.332 . S
N131 C136 1.332 . S
C132 C133 1.388 . S
C132 C136 1.382 . S
C132 H155 0.950 . S
C133 C132 1.388 . S
C133 C134 1.386 . S
C134 C133 1.386 . S
C134 C135 1.382 . S
C134 H156 0.950 . S
C135 N131 1.332 . S
C135 C134 1.382 . S
C135 H137 0.952 . S
C136 N131 1.332 . S
C136 C132 1.382 . S
C136 H138 0.948 . S
H137 C135 0.952 . S
H138 C136 0.948 . S
H139 C128 0.952 . S
H140 C130 0.948 . S
C141 C107 1.395 . S
C141 C111 1.391 . S
C142 C104 1.389 . S
C142 C124 1.392 . S
C143 C114 1.392 . S
C143 C116 1.389 . S
C144 C119 1.395 . S
C144 C121 1.391 . S
H145 C105 0.951 . S
H146 C106 0.950 . S
H147 C112 0.949 . S
H148 C113 0.950 . S
H149 C117 0.951 . S
H150 C118 0.950 . S
H151 C122 0.949 . S
H152 C123 0.950 . S
H153 C127 0.950 . S
H154 C129 0.950 . S
H155 C132 0.950 . S
H156 C134 0.950 . S
C157 C158 1.443 . S
C157 N161 1.376 . S
C157 C195 1.389 . S
C158 C157 1.443 . S
C158 C159 1.340 . S
C158 H198 0.951 . S
C159 C158 1.340 . S
C159 C160 1.439 . S
C159 H199 0.950 . S
C160 C159 1.439 . S
C160 N161 1.374 . S
C160 C194 1.395 1_455 S
N161 C157 1.376 . S
N161 C160 1.374 . S
N161 Co162 2.008 . S
Co162 N161 2.008 . S
Co162 N163 1.995 1_455 S
Co162 N168 2.008 1_455 S
Co162 N173 1.995 . S
Co162 N178 2.282 . S
Co162 N184 2.282 1_455 S
N163 Co162 1.995 1_655 S
N163 C164 1.376 . S
N163 C167 1.383 . S
C164 N163 1.376 . S
C164 C165 1.446 . S
C164 C194 1.391 . S
C165 C164 1.446 . S
C165 C166 1.339 . S
C165 H200 0.949 . S
C166 C165 1.339 . S
C166 C167 1.439 . S
C166 H201 0.950 . S
C167 N163 1.383 . S
C167 C166 1.439 . S
C167 C196 1.392 . S
N168 Co162 2.008 1_655 S
N168 C169 1.376 . S
N168 C172 1.374 . S
C169 N168 1.376 . S
C169 C170 1.443 . S
C169 C196 1.389 . S
C170 C169 1.443 . S
C170 C171 1.340 . S
C170 H202 0.951 . S
C171 C170 1.340 . S
C171 C172 1.439 . S
C171 H203 0.950 . S
C172 N168 1.374 . S
C172 C171 1.439 . S
C172 C197 1.395 1_655 S
N173 Co162 1.995 . S
N173 C174 1.376 . S
N173 C177 1.383 . S
C174 N173 1.376 . S
C174 C175 1.446 . S
C174 C197 1.391 . S
C175 C174 1.446 . S
C175 C176 1.339 . S
C175 H204 0.949 . S
C176 C175 1.339 . S
C176 C177 1.439 . S
C176 H205 0.950 . S
C177 N173 1.383 . S
C177 C176 1.439 . S
C177 C195 1.392 . S
N178 Co162 2.282 . S
N178 C181 1.332 . S
N178 C183 1.332 . S
C179 C180 1.386 . S
C179 C182 1.388 . S
C180 C179 1.386 . S
C180 C181 1.382 . S
C180 H206 0.950 . S
C181 N178 1.332 . S
C181 C180 1.382 . S
C181 H192 0.952 . S
C182 C179 1.388 . S
C182 C183 1.382 . S
C182 H207 0.950 . S
C183 N178 1.332 . S
C183 C182 1.382 . S
C183 H193 0.948 . S
N184 Co162 2.282 1_655 S
N184 C188 1.332 . S
N184 C189 1.332 . S
C185 C186 1.388 . S
C185 C189 1.382 . S
C185 H208 0.950 . S
C186 C185 1.388 . S
C186 C187 1.386 . S
C187 C186 1.386 . S
C187 C188 1.382 . S
C187 H209 0.950 . S
C188 N184 1.332 . S
C188 C187 1.382 . S
C188 H190 0.952 . S
C189 N184 1.332 . S
C189 C185 1.382 . S
C189 H191 0.948 . S
H190 C188 0.952 . S
H191 C189 0.948 . S
H192 C181 0.952 . S
H193 C183 0.948 . S
C194 C160 1.395 1_655 S
C194 C164 1.391 . S
C195 C157 1.389 . S
C195 C177 1.392 . S
C196 C167 1.392 . S
C196 C169 1.389 . S
C197 C172 1.395 1_455 S
C197 C174 1.391 . S
H198 C158 0.951 . S
H199 C159 0.950 . S
H200 C165 0.949 . S
H201 C166 0.950 . S
H202 C170 0.951 . S
H203 C171 0.950 . S
H204 C175 0.949 . S
H205 C176 0.950 . S
H206 C180 0.950 . S
H207 C182 0.950 . S
H208 C185 0.950 . S
H209 C187 0.950 . S
C210 C211 1.443 . S
C210 N214 1.376 1_565 S
C210 C248 1.389 . S
C211 C210 1.443 . S
C211 C212 1.368 . S
C211 H251 0.951 . S
C212 C211 1.368 . S
C212 C213 1.405 1_565 S
C212 H252 0.957 . S
C213 C212 1.405 1_545 S
C213 N214 1.374 . S
C213 C247 1.395 . S
N214 C210 1.376 1_545 S
N214 C213 1.374 . S
N214 Co215 2.008 . S
Co215 N214 2.008 . S
Co215 N216 1.995 . S
Co215 N221 2.008 . S
Co215 N226 1.995 . S
Co215 N231 2.282 . S
Co215 N237 2.282 . S
N216 Co215 1.995 . S
N216 C217 1.376 . S
N216 C220 1.383 . S
C217 N216 1.376 . S
C217 C218 1.446 . S
C217 C247 1.391 . S
C218 C217 1.446 . S
C218 C219 1.339 . S
C218 H253 0.949 . S
C219 C218 1.339 . S
C219 C220 1.439 . S
C219 H254 0.950 . S
C220 N216 1.383 . S
C220 C219 1.439 . S
C220 C249 1.392 . S
N221 Co215 2.008 . S
N221 C222 1.376 . S
N221 C225 1.374 . S
C222 N221 1.376 . S
C222 C223 1.443 . S
C222 C249 1.389 . S
C223 C222 1.443 . S
C223 C224 1.340 . S
C223 H255 0.951 . S
C224 C223 1.340 . S
C224 C225 1.439 . S
C224 H256 0.950 . S
C225 N221 1.374 . S
C225 C224 1.439 . S
C225 C250 1.395 . S
N226 Co215 1.995 . S
N226 C227 1.376 . S
N226 C230 1.383 1_545 S
C227 N226 1.376 . S
C227 C228 1.446 1_545 S
C227 C250 1.391 . S
C228 C227 1.446 1_565 S
C228 C229 1.339 . S
C228 H257 0.949 . S
C229 C228 1.339 . S
C229 C230 1.439 . S
C229 H258 0.950 . S
C230 N226 1.383 1_565 S
C230 C229 1.439 . S
C230 C248 1.392 . S
N231 Co215 2.282 . S
N231 C234 1.332 . S
N231 C236 1.332 . S
C232 C233 1.386 . S
C232 C235 1.388 . S
C233 C232 1.386 . S
C233 C234 1.382 . S
C233 H259 0.950 . S
C234 N231 1.332 . S
C234 C233 1.382 . S
C234 H245 0.952 . S
C235 C232 1.388 . S
C235 C236 1.382 . S
C235 H260 0.950 . S
C236 N231 1.332 . S
C236 C235 1.382 . S
C236 H246 0.948 . S
N237 Co215 2.282 . S
N237 C241 1.337 . S
N237 C242 1.332 1_545 S
C238 C239 1.388 . S
C238 C242 1.382 . S
C238 H261 0.950 . S
C239 C238 1.388 . S
C239 C240 1.386 . S
C240 C239 1.386 . S
C240 C241 1.365 1_565 S
C240 H262 0.950 . S
C241 N237 1.337 . S
C241 C240 1.365 1_545 S
C241 H243 0.964 . S
C242 N237 1.332 1_565 S
C242 C238 1.382 . S
C242 H244 0.948 . S
H243 C241 0.964 . S
H244 C242 0.948 . S
H245 C234 0.952 . S
H246 C236 0.948 . S
C247 C213 1.395 . S
C247 C217 1.391 . S
C248 C210 1.389 . S
C248 C230 1.392 . S
C249 C220 1.392 . S
C249 C222 1.389 . S
C250 C225 1.395 . S
C250 C227 1.391 . S
H251 C211 0.951 . S
H252 C212 0.957 . S
H253 C218 0.949 . S
H254 C219 0.950 . S
H255 C223 0.951 . S
H256 C224 0.950 . S
H257 C228 0.949 . S
H258 C229 0.950 . S
H259 C233 0.950 . S
H260 C235 0.950 . S
H261 C238 0.950 . S
H262 C240 0.950 . S
C263 C264 1.443 . S
C263 N267 1.376 . S
C263 C301 1.389 . S
C264 C263 1.443 . S
C264 C265 1.340 . S
C264 H304 0.951 . S
C265 C264 1.340 . S
C265 C266 1.439 . S
C265 H305 0.950 . S
C266 C265 1.439 . S
C266 N267 1.374 . S
C266 C300 1.395 . S
N267 C263 1.376 . S
N267 C266 1.374 . S
N267 Co268 2.008 . S
Co268 N267 2.008 . S
Co268 N269 1.995 . S
Co268 N274 2.008 . S
Co268 N279 1.995 . S
Co268 N284 2.282 . S
Co268 N290 2.282 . S
N269 Co268 1.995 . S
N269 C270 1.376 . S
N269 C273 1.383 1_554 S
C270 N269 1.376 . S
C270 C271 1.446 1_554 S
C270 C300 1.391 . S
C271 C270 1.446 1_556 S
C271 C272 1.339 . S
C271 H306 0.949 . S
C272 C271 1.339 . S
C272 C273 1.439 . S
C272 H307 0.950 . S
C273 N269 1.383 1_556 S
C273 C272 1.439 . S
C273 C302 1.392 . S
N274 Co268 2.008 . S
N274 C275 1.376 . S
N274 C278 1.374 . S
C275 N274 1.376 . S
C275 C276 1.443 1_554 S
C275 C302 1.389 1_554 S
C276 C275 1.443 1_556 S
C276 C277 1.340 1_556 S
C276 H308 0.951 . S
C277 C276 1.340 1_554 S
C277 C278 1.439 . S
C277 H309 0.950 . S
C278 N274 1.374 . S
C278 C277 1.439 . S
C278 C303 1.395 . S
N279 Co268 1.995 . S
N279 C280 1.376 . S
N279 C283 1.383 . S
C280 N279 1.376 . S
C280 C281 1.446 . S
C280 C303 1.391 . S
C281 C280 1.446 . S
C281 C282 1.339 . S
C281 H310 0.949 . S
C282 C281 1.339 . S
C282 C283 1.439 . S
C282 H311 0.950 . S
C283 N279 1.383 . S
C283 C282 1.439 . S
C283 C301 1.392 . S
N284 Co268 2.282 . S
N284 C287 1.332 . S
N284 C289 1.332 1_554 S
C285 C286 1.386 . S
C285 C288 1.388 . S
C286 C285 1.386 . S
C286 C287 1.382 1_556 S
C286 H312 0.950 . S
C287 N284 1.332 . S
C287 C286 1.382 1_554 S
C287 H298 0.952 . S
C288 C285 1.388 . S
C288 C289 1.382 . S
C288 H313 0.950 . S
C289 N284 1.332 1_556 S
C289 C288 1.382 . S
C289 H299 0.948 . S
N290 Co268 2.282 . S
N290 C294 1.332 . S
N290 C295 1.332 . S
C291 C292 1.388 . S
C291 C295 1.382 . S
C291 H314 0.950 . S
C292 C291 1.388 . S
C292 C293 1.386 . S
C293 C292 1.386 . S
C293 C294 1.382 . S
C293 H315 0.950 . S
C294 N290 1.332 . S
C294 C293 1.382 . S
C294 H296 0.952 . S
C295 N290 1.332 . S
C295 C291 1.382 . S
C295 H297 0.948 . S
H296 C294 0.952 . S
H297 C295 0.948 . S
H298 C287 0.952 . S
H299 C289 0.948 . S
C300 C266 1.395 . S
C300 C270 1.391 . S
C301 C263 1.389 . S
C301 C283 1.392 . S
C302 C273 1.392 . S
C302 C275 1.389 1_556 S
C303 C278 1.395 . S
C303 C280 1.391 . S
H304 C264 0.951 . S
H305 C265 0.950 . S
H306 C271 0.949 . S
H307 C272 0.950 . S
H308 C276 0.951 . S
H309 C277 0.950 . S
H310 C281 0.949 . S
H311 C282 0.950 . S
H312 C286 0.950 . S
H313 C288 0.950 . S
H314 C291 0.950 . S
H315 C293 0.950 . S
C316 C317 1.443 . S
C316 N320 1.376 . S
C316 C354 1.389 1_545 S
C317 C316 1.443 . S
C317 C318 1.340 1_655 S
C317 H357 0.951 1_545 S
C318 C317 1.340 1_455 S
C318 C319 1.439 1_455 S
C318 H358 0.950 . S
C319 C318 1.439 1_655 S
C319 N320 1.374 . S
C319 C353 1.395 1_655 S
N320 C316 1.376 . S
N320 C319 1.374 . S
N320 Co321 2.008 . S
Co321 N320 2.008 . S
Co321 N322 1.995 . S
Co321 N327 2.008 . S
Co321 N332 1.995 . S
Co321 N337 2.282 . S
Co321 N343 2.282 . S
N322 Co321 1.995 . S
N322 C323 1.376 . S
N322 C326 1.383 . S
C323 N322 1.376 . S
C323 C324 1.446 1_655 S
C323 C353 1.391 1_655 S
C324 C323 1.446 1_455 S
C324 C325 1.339 1_455 S
C324 H359 0.949 . S
C325 C324 1.339 1_655 S
C325 C326 1.439 . S
C325 H360 0.950 . S
C326 N322 1.383 . S
C326 C325 1.439 . S
C326 C355 1.392 . S
N327 Co321 2.008 . S
N327 C328 1.376 . S
N327 C331 1.374 . S
C328 N327 1.376 . S
C328 C329 1.443 . S
C328 C355 1.389 . S
C329 C328 1.443 . S
C329 C330 1.340 . S
C329 H361 0.951 . S
C330 C329 1.340 . S
C330 C331 1.439 . S
C330 H362 0.950 . S
C331 N327 1.374 . S
C331 C330 1.439 . S
C331 C356 1.395 . S
N332 Co321 1.995 . S
N332 C333 1.376 . S
N332 C336 1.383 . S
C333 N332 1.376 . S
C333 C334 1.452 . S
C333 C356 1.391 . S
C334 C333 1.452 . S
C334 C335 1.335 1_545 S
C334 H363 0.948 1_545 S
C335 C334 1.335 1_565 S
C335 C336 1.439 1_565 S
C335 H364 0.950 . S
C336 N332 1.383 . S
C336 C335 1.439 1_545 S
C336 C354 1.392 1_545 S
N337 Co321 2.282 . S
N337 C340 1.332 . S
N337 C342 1.332 . S
C338 C339 1.386 . S
C338 C341 1.388 . S
C339 C338 1.386 . S
C339 C340 1.382 . S
C339 H365 0.950 . S
C340 N337 1.332 . S
C340 C339 1.382 . S
C340 H351 0.952 . S
C341 C338 1.388 . S
C341 C342 1.382 . S
C341 H366 0.950 . S
C342 N337 1.332 . S
C342 C341 1.382 . S
C342 H352 0.948 . S
N343 Co321 2.282 . S
N343 C347 1.332 . S
N343 C348 1.332 . S
C344 C345 1.388 . S
C344 C348 1.382 1_565 S
C344 H367 0.950 . S
C345 C344 1.388 . S
C345 C346 1.386 1_565 S
C346 C345 1.386 1_545 S
C346 C347 1.382 . S
C346 H368 0.950 . S
C347 N343 1.332 . S
C347 C346 1.382 . S
C347 H349 0.952 . S
C348 N343 1.332 . S
C348 C344 1.382 1_545 S
C348 H350 0.948 . S
H349 C347 0.952 . S
H350 C348 0.948 . S
H351 C340 0.952 . S
H352 C342 0.948 . S
C353 C319 1.395 1_455 S
C353 C323 1.391 1_455 S
C354 C316 1.389 1_565 S
C354 C336 1.392 1_565 S
C355 C326 1.392 . S
C355 C328 1.389 . S
C356 C331 1.395 . S
C356 C333 1.391 . S
H357 C317 0.951 1_565 S
H358 C318 0.950 . S
H359 C324 0.949 . S
H360 C325 0.950 . S
H361 C329 0.951 . S
H362 C330 0.950 . S
H363 C334 0.948 1_565 S
H364 C335 0.950 . S
H365 C339 0.950 . S
H366 C341 0.950 . S
H367 C344 0.950 . S
H368 C346 0.950 . S
C369 C370 1.443 . S
C369 N373 1.376 . S
C369 C407 1.389 . S
C370 C369 1.443 . S
C370 C371 1.340 . S
C370 H410 0.951 . S
C371 C370 1.340 . S
C371 C372 1.439 . S
C371 H411 0.950 . S
C372 C371 1.439 . S
C372 N373 1.374 . S
C372 C406 1.395 1_554 S
N373 C369 1.376 . S
N373 C372 1.374 . S
N373 Co374 2.008 . S
Co374 N373 2.008 . S
Co374 N375 1.995 1_554 S
Co374 N380 2.008 1_554 S
Co374 N385 1.995 . S
Co374 N390 2.282 1_554 S
Co374 N396 2.282 . S
N375 Co374 1.995 1_556 S
N375 C376 1.376 . S
N375 C379 1.383 . S
C376 N375 1.376 . S
C376 C377 1.446 . S
C376 C406 1.391 . S
C377 C376 1.446 . S
C377 C378 1.339 . S
C377 H412 0.949 . S
C378 C377 1.339 . S
C378 C379 1.439 . S
C378 H413 0.950 . S
C379 N375 1.383 . S
C379 C378 1.439 . S
C379 C408 1.392 . S
N380 Co374 2.008 1_556 S
N380 C381 1.376 . S
N380 C384 1.373 1_556 S
C381 N380 1.376 . S
C381 C382 1.443 . S
C381 C408 1.389 . S
C382 C381 1.443 . S
C382 C383 1.340 . S
C382 H414 0.951 . S
C383 C382 1.340 . S
C383 C384 1.436 1_556 S
C383 H415 0.950 . S
C384 N380 1.373 1_554 S
C384 C383 1.436 1_554 S
C384 C409 1.398 . S
N385 Co374 1.995 . S
N385 C386 1.376 . S
N385 C389 1.383 . S
C386 N385 1.376 . S
C386 C387 1.446 . S
C386 C409 1.391 . S
C387 C386 1.446 . S
C387 C388 1.339 . S
C387 H416 0.949 . S
C388 C387 1.339 . S
C388 C389 1.439 . S
C388 H417 0.950 . S
C389 N385 1.383 . S
C389 C388 1.439 . S
C389 C407 1.392 . S
N390 Co374 2.282 1_556 S
N390 C393 1.332 . S
N390 C395 1.332 . S
C391 C392 1.386 . S
C391 C394 1.388 . S
C392 C391 1.386 . S
C392 C393 1.382 . S
C392 H418 0.950 . S
C393 N390 1.332 . S
C393 C392 1.382 . S
C393 H404 0.952 . S
C394 C391 1.388 . S
C394 C395 1.382 . S
C394 H419 0.950 . S
C395 N390 1.332 . S
C395 C394 1.382 . S
C395 H405 0.948 . S
N396 Co374 2.282 . S
N396 C400 1.332 . S
N396 C401 1.332 . S
C397 C398 1.388 . S
C397 C401 1.382 . S
C397 H420 0.950 . S
C398 C397 1.388 . S
C398 C399 1.386 . S
C399 C398 1.386 . S
C399 C400 1.382 . S
C399 H421 0.950 . S
C400 N396 1.332 . S
C400 C399 1.382 . S
C400 H402 0.952 . S
C401 N396 1.332 . S
C401 C397 1.382 . S
C401 H403 0.948 . S
H402 C400 0.952 . S
H403 C401 0.948 . S
H404 C393 0.952 . S
H405 C395 0.948 . S
C406 C372 1.395 1_556 S
C406 C376 1.391 . S
C407 C369 1.389 . S
C407 C389 1.392 . S
C408 C379 1.392 . S
C408 C381 1.389 . S
C409 C384 1.398 . S
C409 C386 1.391 . S
H410 C370 0.951 . S
H411 C371 0.950 . S
H412 C377 0.949 . S
H413 C378 0.950 . S
H414 C382 0.951 . S
H415 C383 0.950 . S
H416 C387 0.949 . S
H417 C388 0.950 . S
H418 C392 0.950 . S
H419 C394 0.950 . S
H420 C397 0.950 . S
H421 C399 0.950 . S
C422 C423 1.349 . S
C422 C424 1.327 . S
C422 H447 0.950 . S
C423 C422 1.349 . S
C423 C439 1.349 . S
C424 C422 1.327 . S
C424 C443 1.429 . S
C424 H448 0.950 . S
C425 C442 1.574 . S
C425 C444 1.368 . S
C425 H449 0.949 . S
H426 C430 0.949 . S
C427 C428 1.349 . S
C427 C429 1.327 . S
C427 H450 0.950 . S
C428 C427 1.349 . S
C428 C440 1.349 . S
C429 C427 1.327 . S
C429 C445 1.429 . S
C429 H451 0.950 . S
C430 H426 0.949 . S
C430 C438 1.574 . S
C430 C446 1.368 . S
H431 C439 0.950 . S
H432 C437 0.950 . S
H433 C438 0.949 . S
H434 C440 0.950 . S
H435 C441 0.950 . S
H436 C442 0.949 . S
C437 H432 0.950 . S
C437 C439 1.327 . S
C437 C443 1.429 . S
C438 C430 1.574 . S
C438 H433 0.949 . S
C438 C444 1.368 . S
C439 C423 1.349 . S
C439 H431 0.950 . S
C439 C437 1.327 . S
C440 C428 1.349 . S
C440 H434 0.950 . S
C440 C441 1.327 . S
C441 H435 0.950 . S
C441 C440 1.327 . S
C441 C445 1.429 . S
C442 C425 1.574 . S
C442 H436 0.949 . S
C442 C446 1.368 . S
C443 C424 1.429 . S
C443 C437 1.429 . S
C443 C444 1.523 . S
C444 C425 1.368 . S
C444 C438 1.368 . S
C444 C443 1.523 . S
C445 C429 1.429 . S
C445 C441 1.429 . S
C445 C446 1.523 . S
C446 C430 1.368 . S
C446 C442 1.368 . S
C446 C445 1.523 . S
H447 C422 0.950 . S
H448 C424 0.950 . S
H449 C425 0.949 . S
H450 C427 0.950 . S
H451 C429 0.950 . S
C452 C453 1.349 . S
C452 C454 1.327 . S
C452 H477 0.950 . S
C453 C452 1.349 . S
C453 C469 1.349 . S
C454 C452 1.327 . S
C454 C473 1.429 . S
C454 H478 0.950 . S
C455 C472 1.574 . S
C455 C474 1.368 . S
C455 H479 0.949 . S
H456 C460 0.949 . S
C457 C458 1.349 . S
C457 C459 1.327 . S
C457 H480 0.950 . S
C458 C457 1.349 . S
C458 C470 1.349 . S
C459 C457 1.327 . S
C459 C475 1.429 . S
C459 H481 0.950 . S
C460 H456 0.949 . S
C460 C468 1.574 . S
C460 C476 1.368 . S
H461 C469 0.950 . S
H462 C467 0.950 . S
H463 C468 0.949 . S
H464 C470 0.950 . S
H465 C471 0.950 . S
H466 C472 0.949 . S
C467 H462 0.950 . S
C467 C469 1.327 . S
C467 C473 1.429 . S
C468 C460 1.574 . S
C468 H463 0.949 . S
C468 C474 1.368 . S
C469 C453 1.349 . S
C469 H461 0.950 . S
C469 C467 1.327 . S
C470 C458 1.349 . S
C470 H464 0.950 . S
C470 C471 1.327 . S
C471 H465 0.950 . S
C471 C470 1.327 . S
C471 C475 1.429 . S
C472 C455 1.574 . S
C472 H466 0.949 . S
C472 C476 1.368 . S
C473 C454 1.429 . S
C473 C467 1.429 . S
C473 C474 1.523 . S
C474 C455 1.368 . S
C474 C468 1.368 . S
C474 C473 1.523 . S
C475 C459 1.429 . S
C475 C471 1.429 . S
C475 C476 1.523 . S
C476 C460 1.368 . S
C476 C472 1.368 . S
C476 C475 1.523 . S
H477 C452 0.950 . S
H478 C454 0.950 . S
H479 C455 0.949 . S
H480 C457 0.950 . S
H481 C459 0.950 . S
C482 C483 1.349 . S
C482 C484 1.327 . S
C482 H507 0.950 . S
C483 C482 1.349 . S
C483 C499 1.349 . S
C484 C482 1.327 . S
C484 C503 1.429 . S
C484 H508 0.950 . S
C485 C502 1.574 . S
C485 C504 1.368 . S
C485 H509 0.949 . S
H486 C490 0.949 . S
C487 C488 1.349 . S
C487 C489 1.327 . S
C487 H510 0.950 . S
C488 C487 1.349 . S
C488 C500 1.349 . S
C489 C487 1.327 . S
C489 C505 1.429 1_455 S
C489 H511 0.950 . S
C490 H486 0.949 . S
C490 C498 1.574 . S
C490 C506 1.368 . S
H491 C499 0.950 . S
H492 C497 0.950 . S
H493 C498 0.949 . S
H494 C500 0.950 . S
H495 C501 0.950 . S
H496 C502 0.949 . S
C497 H492 0.950 . S
C497 C499 1.327 . S
C497 C503 1.429 . S
C498 C490 1.574 . S
C498 H493 0.949 . S
C498 C504 1.368 . S
C499 C483 1.349 . S
C499 H491 0.950 . S
C499 C497 1.327 . S
C500 C488 1.349 . S
C500 H494 0.950 . S
C500 C501 1.327 1_455 S
C501 H495 0.950 . S
C501 C500 1.327 1_655 S
C501 C505 1.429 . S
C502 C485 1.574 . S
C502 H496 0.949 . S
C502 C506 1.368 . S
C503 C484 1.429 . S
C503 C497 1.429 . S
C503 C504 1.523 . S
C504 C485 1.368 . S
C504 C498 1.368 . S
C504 C503 1.523 . S
C505 C489 1.429 1_655 S
C505 C501 1.429 . S
C505 C506 1.523 . S
C506 C490 1.368 . S
C506 C502 1.368 . S
C506 C505 1.523 . S
H507 C482 0.950 . S
H508 C484 0.950 . S
H509 C485 0.949 . S
H510 C487 0.950 . S
H511 C489 0.950 . S
C512 C513 1.349 . S
C512 C514 1.327 . S
C512 H537 0.950 . S
C513 C512 1.349 . S
C513 C529 1.349 . S
C514 C512 1.327 . S
C514 C533 1.429 . S
C514 H538 0.950 . S
C515 C532 1.574 . S
C515 C534 1.368 . S
C515 H539 0.949 . S
H516 C520 0.949 . S
C517 C518 1.349 . S
C517 C519 1.327 . S
C517 H540 0.950 . S
C518 C517 1.349 . S
C518 C530 1.349 . S
C519 C517 1.327 . S
C519 C535 1.429 . S
C519 H541 0.950 . S
C520 H516 0.949 . S
C520 C528 1.574 . S
C520 C536 1.368 . S
H521 C529 0.950 . S
H522 C527 0.950 . S
H523 C528 0.949 . S
H524 C530 0.950 . S
H525 C531 0.950 . S
H526 C532 0.949 . S
C527 H522 0.950 . S
C527 C529 1.327 . S
C527 C533 1.429 . S
C528 C520 1.574 . S
C528 H523 0.949 . S
C528 C534 1.368 . S
C529 C513 1.349 . S
C529 H521 0.950 . S
C529 C527 1.327 . S
C530 C518 1.349 . S
C530 H524 0.950 . S
C530 C531 1.327 . S
C531 H525 0.950 . S
C531 C530 1.327 . S
C531 C535 1.429 . S
C532 C515 1.574 . S
C532 H526 0.949 . S
C532 C536 1.368 . S
C533 C514 1.429 . S
C533 C527 1.429 . S
C533 C534 1.523 . S
C534 C515 1.368 . S
C534 C528 1.368 . S
C534 C533 1.523 . S
C535 C519 1.429 . S
C535 C531 1.429 . S
C535 C536 1.523 . S
C536 C520 1.368 . S
C536 C532 1.368 . S
C536 C535 1.523 . S
H537 C512 0.950 . S
H538 C514 0.950 . S
H539 C515 0.949 . S
H540 C517 0.950 . S
H541 C519 0.950 . S
C542 C543 1.349 . S
C542 C544 1.327 . S
C542 H567 0.950 . S
C543 C542 1.349 . S
C543 C559 1.349 . S
C544 C542 1.327 . S
C544 C563 1.429 . S
C544 H568 0.950 . S
C545 C562 1.574 . S
C545 C564 1.368 . S
C545 H569 0.949 . S
H546 C550 0.949 . S
C547 C548 1.349 . S
C547 C549 1.327 . S
C547 H570 0.950 . S
C548 C547 1.349 . S
C548 C560 1.349 . S
C549 C547 1.327 . S
C549 C565 1.429 . S
C549 H571 0.950 . S
C550 H546 0.949 . S
C550 C558 1.574 . S
C550 C566 1.368 . S
H551 C559 0.950 . S
H552 C557 0.950 . S
H553 C558 0.949 . S
H554 C560 0.950 . S
H555 C561 0.950 . S
H556 C562 0.949 . S
C557 H552 0.950 . S
C557 C559 1.327 . S
C557 C563 1.429 . S
C558 C550 1.574 . S
C558 H553 0.949 . S
C558 C564 1.368 . S
C559 C543 1.349 . S
C559 H551 0.950 . S
C559 C557 1.327 . S
C560 C548 1.349 . S
C560 H554 0.950 . S
C560 C561 1.327 . S
C561 H555 0.950 . S
C561 C560 1.327 . S
C561 C565 1.429 . S
C562 C545 1.574 . S
C562 H556 0.949 . S
C562 C566 1.368 . S
C563 C544 1.429 . S
C563 C557 1.429 . S
C563 C564 1.523 . S
C564 C545 1.368 . S
C564 C558 1.368 . S
C564 C563 1.523 . S
C565 C549 1.429 . S
C565 C561 1.429 . S
C565 C566 1.523 . S
C566 C550 1.368 . S
C566 C562 1.368 . S
C566 C565 1.523 . S
H567 C542 0.950 . S
H568 C544 0.950 . S
H569 C545 0.949 . S
H570 C547 0.950 . S
H571 C549 0.950 . S
C572 C573 1.349 . S
C572 C574 1.327 . S
C572 H597 0.950 . S
C573 C572 1.349 . S
C573 C589 1.349 . S
C574 C572 1.327 . S
C574 C593 1.429 . S
C574 H598 0.950 . S
C575 C592 1.574 . S
C575 C594 1.368 . S
C575 H599 0.949 . S
H576 C580 0.949 . S
C577 C578 1.349 . S
C577 C579 1.327 . S
C577 H600 0.950 . S
C578 C577 1.349 . S
C578 C590 1.349 . S
C579 C577 1.327 . S
C579 C595 1.429 . S
C579 H601 0.950 . S
C580 H576 0.949 . S
C580 C588 1.574 . S
C580 C596 1.368 . S
H581 C589 0.950 . S
H582 C587 0.950 . S
H583 C588 0.949 . S
H584 C590 0.950 . S
H585 C591 0.950 . S
H586 C592 0.949 . S
C587 H582 0.950 . S
C587 C589 1.327 . S
C587 C593 1.429 . S
C588 C580 1.574 . S
C588 H583 0.949 . S
C588 C594 1.368 . S
C589 C573 1.349 . S
C589 H581 0.950 . S
C589 C587 1.327 . S
C590 C578 1.349 . S
C590 H584 0.950 . S
C590 C591 1.327 . S
C591 H585 0.950 . S
C591 C590 1.327 . S
C591 C595 1.429 . S
C592 C575 1.574 . S
C592 H586 0.949 . S
C592 C596 1.368 . S
C593 C574 1.429 . S
C593 C587 1.429 . S
C593 C594 1.523 . S
C594 C575 1.368 . S
C594 C588 1.368 . S
C594 C593 1.523 . S
C595 C579 1.429 . S
C595 C591 1.429 . S
C595 C596 1.523 . S
C596 C580 1.368 . S
C596 C592 1.368 . S
C596 C595 1.523 . S
H597 C572 0.950 . S
H598 C574 0.950 . S
H599 C575 0.949 . S
H600 C577 0.950 . S
H601 C579 0.950 . S
C602 C603 1.349 . S
C602 C604 1.327 . S
C602 H627 0.950 . S
C603 C602 1.349 . S
C603 C619 1.349 . S
C604 C602 1.327 . S
C604 C623 1.429 . S
C604 H628 0.950 . S
C605 C622 1.574 . S
C605 C624 1.368 . S
C605 H629 0.949 . S
H606 C610 0.949 . S
C607 C608 1.349 . S
C607 C609 1.327 . S
C607 H630 0.950 . S
C608 C607 1.349 . S
C608 C620 1.349 . S
C609 C607 1.327 . S
C609 C625 1.429 . S
C609 H631 0.950 . S
C610 H606 0.949 . S
C610 C618 1.574 . S
C610 C626 1.368 . S
H611 C619 0.950 . S
H612 C617 0.950 . S
H613 C618 0.949 . S
H614 C620 0.950 . S
H615 C621 0.950 . S
H616 C622 0.949 . S
C617 H612 0.950 . S
C617 C619 1.327 . S
C617 C623 1.429 . S
C618 C610 1.574 . S
C618 H613 0.949 . S
C618 C624 1.368 . S
C619 C603 1.349 . S
C619 H611 0.950 . S
C619 C617 1.327 . S
C620 C608 1.349 . S
C620 H614 0.950 . S
C620 C621 1.327 . S
C621 H615 0.950 . S
C621 C620 1.327 . S
C621 C625 1.429 . S
C622 C605 1.574 . S
C622 H616 0.949 . S
C622 C626 1.368 . S
C623 C604 1.429 . S
C623 C617 1.429 . S
C623 C624 1.523 . S
C624 C605 1.368 . S
C624 C618 1.368 . S
C624 C623 1.523 . S
C625 C609 1.429 . S
C625 C621 1.429 . S
C625 C626 1.523 . S
C626 C610 1.368 . S
C626 C622 1.368 . S
C626 C625 1.523 . S
H627 C602 0.950 . S
H628 C604 0.950 . S
H629 C605 0.949 . S
H630 C607 0.950 . S
H631 C609 0.950 . S
C632 C633 1.349 . S
C632 C634 1.327 . S
C632 H657 0.950 . S
C633 C632 1.349 . S
C633 C649 1.349 . S
C634 C632 1.327 . S
C634 C653 1.429 . S
C634 H658 0.950 . S
C635 C652 1.574 . S
C635 C654 1.368 . S
C635 H659 0.949 . S
H636 C640 0.949 . S
C637 C638 1.349 . S
C637 C639 1.327 . S
C637 H660 0.950 . S
C638 C637 1.349 . S
C638 C650 1.349 . S
C639 C637 1.327 . S
C639 C655 1.429 . S
C639 H661 0.950 . S
C640 H636 0.949 . S
C640 C648 1.574 . S
C640 C656 1.368 . S
H641 C649 0.950 . S
H642 C647 0.950 . S
H643 C648 0.949 . S
H644 C650 0.950 . S
H645 C651 0.950 . S
H646 C652 0.949 . S
C647 H642 0.950 . S
C647 C649 1.327 . S
C647 C653 1.429 . S
C648 C640 1.574 . S
C648 H643 0.949 . S
C648 C654 1.368 . S
C649 C633 1.349 . S
C649 H641 0.950 . S
C649 C647 1.327 . S
C650 C638 1.349 . S
C650 H644 0.950 . S
C650 C651 1.327 . S
C651 H645 0.950 . S
C651 C650 1.327 . S
C651 C655 1.429 . S
C652 C635 1.574 . S
C652 H646 0.949 . S
C652 C656 1.368 . S
C653 C634 1.429 . S
C653 C647 1.429 . S
C653 C654 1.523 . S
C654 C635 1.368 . S
C654 C648 1.368 . S
C654 C653 1.523 . S
C655 C639 1.429 . S
C655 C651 1.429 . S
C655 C656 1.523 . S
C656 C640 1.368 . S
C656 C652 1.368 . S
C656 C655 1.523 . S
H657 C632 0.950 . S
H658 C634 0.950 . S
H659 C635 0.949 . S
H660 C637 0.950 . S
H661 C639 0.950 . S
C662 C663 1.349 . S
C662 C664 1.327 . S
C662 H687 0.950 . S
C663 C662 1.349 . S
C663 C679 1.349 . S
C664 C662 1.327 . S
C664 C683 1.429 . S
C664 H688 0.950 . S
C665 C682 1.574 . S
C665 C684 1.368 . S
C665 H689 0.949 . S
H666 C670 0.949 . S
C667 C668 1.349 . S
C667 C669 1.327 . S
C667 H690 0.950 . S
C668 C667 1.349 . S
C668 C680 1.349 . S
C669 C667 1.327 . S
C669 C685 1.429 . S
C669 H691 0.950 . S
C670 H666 0.949 . S
C670 C678 1.574 . S
C670 C686 1.368 . S
H671 C679 0.950 . S
H672 C677 0.950 . S
H673 C678 0.949 . S
H674 C680 0.950 . S
H675 C681 0.950 . S
H676 C682 0.949 . S
C677 H672 0.950 . S
C677 C679 1.327 . S
C677 C683 1.429 . S
C678 C670 1.574 . S
C678 H673 0.949 . S
C678 C684 1.368 . S
C679 C663 1.349 . S
C679 H671 0.950 . S
C679 C677 1.327 . S
C680 C668 1.349 . S
C680 H674 0.950 . S
C680 C681 1.327 . S
C681 H675 0.950 . S
C681 C680 1.327 . S
C681 C685 1.429 . S
C682 C665 1.574 . S
C682 H676 0.949 . S
C682 C686 1.368 . S
C683 C664 1.429 . S
C683 C677 1.429 . S
C683 C684 1.523 . S
C684 C665 1.368 . S
C684 C678 1.368 . S
C684 C683 1.523 . S
C685 C669 1.429 . S
C685 C681 1.429 . S
C685 C686 1.523 . S
C686 C670 1.368 . S
C686 C682 1.368 . S
C686 C685 1.523 . S
H687 C662 0.950 . S
H688 C664 0.950 . S
H689 C665 0.949 . S
H690 C667 0.950 . S
H691 C669 0.950 . S
C692 C693 1.349 . S
C692 C694 1.327 . S
C692 H717 0.950 . S
C693 C692 1.349 . S
C693 C709 1.349 . S
C694 C692 1.327 . S
C694 C713 1.429 . S
C694 H718 0.950 . S
C695 C712 1.574 . S
C695 C714 1.368 . S
C695 H719 0.949 . S
H696 C700 0.949 . S
C697 C698 1.349 . S
C697 C699 1.327 . S
C697 H720 0.950 . S
C698 C697 1.349 . S
C698 C710 1.349 . S
C699 C697 1.327 . S
C699 C715 1.429 . S
C699 H721 0.950 . S
C700 H696 0.949 . S
C700 C708 1.574 . S
C700 C716 1.368 . S
H701 C709 0.950 . S
H702 C707 0.950 . S
H703 C708 0.949 . S
H704 C710 0.950 . S
H705 C711 0.950 . S
H706 C712 0.949 . S
C707 H702 0.950 . S
C707 C709 1.327 . S
C707 C713 1.429 . S
C708 C700 1.574 . S
C708 H703 0.949 . S
C708 C714 1.368 . S
C709 C693 1.349 . S
C709 H701 0.950 . S
C709 C707 1.327 . S
C710 C698 1.349 . S
C710 H704 0.950 . S
C710 C711 1.327 . S
C711 H705 0.950 . S
C711 C710 1.327 . S
C711 C715 1.429 . S
C712 C695 1.574 . S
C712 H706 0.949 . S
C712 C716 1.368 . S
C713 C694 1.429 . S
C713 C707 1.429 . S
C713 C714 1.523 . S
C714 C695 1.368 . S
C714 C708 1.368 . S
C714 C713 1.523 . S
C715 C699 1.429 . S
C715 C711 1.429 . S
C715 C716 1.523 . S
C716 C700 1.368 . S
C716 C712 1.368 . S
C716 C715 1.523 . S
H717 C692 0.950 . S
H718 C694 0.950 . S
H719 C695 0.949 . S
H720 C697 0.950 . S
H721 C699 0.950 . S
C722 C723 1.349 . S
C722 C724 1.327 . S
C722 H747 0.950 . S
C723 C722 1.349 . S
C723 C739 1.349 . S
C724 C722 1.327 . S
C724 C743 1.429 . S
C724 H748 0.950 . S
C725 C742 1.574 . S
C725 C744 1.368 . S
C725 H749 0.949 . S
H726 C730 0.949 . S
C727 C728 1.349 . S
C727 C729 1.327 . S
C727 H750 0.950 . S
C728 C727 1.349 . S
C728 C740 1.349 . S
C729 C727 1.327 . S
C729 C745 1.429 . S
C729 H751 0.950 . S
C730 H726 0.949 . S
C730 C738 1.574 . S
C730 C746 1.368 . S
H731 C739 0.950 . S
H732 C737 0.950 . S
H733 C738 0.949 . S
H734 C740 0.950 . S
H735 C741 0.950 . S
H736 C742 0.949 . S
C737 H732 0.950 . S
C737 C739 1.327 . S
C737 C743 1.429 . S
C738 C730 1.574 . S
C738 H733 0.949 . S
C738 C744 1.368 . S
C739 C723 1.349 . S
C739 H731 0.950 . S
C739 C737 1.327 . S
C740 C728 1.349 . S
C740 H734 0.950 . S
C740 C741 1.327 . S
C741 H735 0.950 . S
C741 C740 1.327 . S
C741 C745 1.429 . S
C742 C725 1.574 . S
C742 H736 0.949 . S
C742 C746 1.368 . S
C743 C724 1.429 . S
C743 C737 1.429 . S
C743 C744 1.523 . S
C744 C725 1.368 . S
C744 C738 1.368 . S
C744 C743 1.523 . S
C745 C729 1.429 . S
C745 C741 1.429 . S
C745 C746 1.523 . S
C746 C730 1.368 . S
C746 C742 1.368 . S
C746 C745 1.523 . S
H747 C722 0.950 . S
H748 C724 0.950 . S
H749 C725 0.949 . S
H750 C727 0.950 . S
H751 C729 0.950 . S
C752 C753 1.349 . S
C752 C754 1.327 . S
C752 H777 0.950 . S
C753 C752 1.349 . S
C753 C769 1.349 . S
C754 C752 1.327 . S
C754 C773 1.429 . S
C754 H778 0.950 . S
C755 C772 1.574 . S
C755 C774 1.368 . S
C755 H779 0.949 . S
H756 C760 0.949 . S
C757 C758 1.349 . S
C757 C759 1.327 . S
C757 H780 0.950 . S
C758 C757 1.349 . S
C758 C770 1.349 . S
C759 C757 1.327 . S
C759 C775 1.429 . S
C759 H781 0.950 . S
C760 H756 0.949 . S
C760 C768 1.574 . S
C760 C776 1.368 . S
H761 C769 0.950 . S
H762 C767 0.950 . S
H763 C768 0.949 . S
H764 C770 0.950 . S
H765 C771 0.950 . S
H766 C772 0.949 . S
C767 H762 0.950 . S
C767 C769 1.327 . S
C767 C773 1.429 . S
C768 C760 1.574 . S
C768 H763 0.949 . S
C768 C774 1.368 . S
C769 C753 1.349 . S
C769 H761 0.950 . S
C769 C767 1.327 . S
C770 C758 1.349 . S
C770 H764 0.950 . S
C770 C771 1.327 . S
C771 H765 0.950 . S
C771 C770 1.327 . S
C771 C775 1.429 . S
C772 C755 1.574 . S
C772 H766 0.949 . S
C772 C776 1.368 . S
C773 C754 1.429 . S
C773 C767 1.429 . S
C773 C774 1.523 . S
C774 C755 1.368 . S
C774 C768 1.368 . S
C774 C773 1.523 . S
C775 C759 1.429 . S
C775 C771 1.429 . S
C775 C776 1.523 . S
C776 C760 1.368 . S
C776 C772 1.368 . S
C776 C775 1.523 . S
H777 C752 0.950 . S
H778 C754 0.950 . S
H779 C755 0.949 . S
H780 C757 0.950 . S
H781 C759 0.950 . S
C782 C783 1.349 . S
C782 C784 1.327 . S
C782 H807 0.950 . S
C783 C782 1.349 . S
C783 C799 1.349 . S
C784 C782 1.327 . S
C784 C803 1.429 . S
C784 H808 0.950 . S
C785 C802 1.574 . S
C785 C804 1.368 . S
C785 H809 0.949 . S
H786 C790 0.949 . S
C787 C788 1.349 . S
C787 C789 1.327 . S
C787 H810 0.950 . S
C788 C787 1.349 . S
C788 C800 1.349 . S
C789 C787 1.327 . S
C789 C805 1.429 . S
C789 H811 0.950 . S
C790 H786 0.949 . S
C790 C798 1.574 . S
C790 C806 1.368 . S
H791 C799 0.950 . S
H792 C797 0.950 . S
H793 C798 0.949 . S
H794 C800 0.950 . S
H795 C801 0.950 . S
H796 C802 0.949 . S
C797 H792 0.950 . S
C797 C799 1.327 . S
C797 C803 1.429 . S
C798 C790 1.574 . S
C798 H793 0.949 . S
C798 C804 1.368 . S
C799 C783 1.349 . S
C799 H791 0.950 . S
C799 C797 1.327 . S
C800 C788 1.349 . S
C800 H794 0.950 . S
C800 C801 1.327 . S
C801 H795 0.950 . S
C801 C800 1.327 . S
C801 C805 1.429 . S
C802 C785 1.574 . S
C802 H796 0.949 . S
C802 C806 1.368 . S
C803 C784 1.429 . S
C803 C797 1.429 . S
C803 C804 1.523 . S
C804 C785 1.368 . S
C804 C798 1.368 . S
C804 C803 1.523 . S
C805 C789 1.429 . S
C805 C801 1.429 . S
C805 C806 1.523 . S
C806 C790 1.368 . S
C806 C802 1.368 . S
C806 C805 1.523 . S
H807 C782 0.950 . S
H808 C784 0.950 . S
H809 C785 0.949 . S
H810 C787 0.950 . S
H811 C789 0.950 . S
C812 C813 1.349 . S
C812 C814 1.327 . S
C812 H837 0.950 . S
C813 C812 1.349 . S
C813 C829 1.349 . S
C814 C812 1.327 . S
C814 C833 1.429 . S
C814 H838 0.950 . S
C815 C832 1.574 . S
C815 C834 1.368 . S
C815 H839 0.949 . S
H816 C820 0.949 . S
C817 C818 1.349 1_655 S
C817 C819 1.327 . S
C817 H840 0.950 . S
C818 C817 1.349 1_455 S
C818 C830 1.349 . S
C819 C817 1.327 . S
C819 C835 1.429 . S
C819 H841 0.950 . S
C820 H816 0.949 . S
C820 C828 1.574 . S
C820 C836 1.368 . S
H821 C829 0.950 . S
H822 C827 0.950 . S
H823 C828 0.949 . S
H824 C830 0.950 . S
H825 C831 0.950 . S
H826 C832 0.949 . S
C827 H822 0.950 . S
C827 C829 1.327 . S
C827 C833 1.429 . S
C828 C820 1.574 . S
C828 H823 0.949 . S
C828 C834 1.368 . S
C829 C813 1.349 . S
C829 H821 0.950 . S
C829 C827 1.327 . S
C830 C818 1.349 . S
C830 H824 0.950 . S
C830 C831 1.327 1_455 S
C831 H825 0.950 . S
C831 C830 1.327 1_655 S
C831 C835 1.429 . S
C832 C815 1.574 . S
C832 H826 0.949 . S
C832 C836 1.368 . S
C833 C814 1.429 . S
C833 C827 1.429 . S
C833 C834 1.523 . S
C834 C815 1.368 . S
C834 C828 1.368 . S
C834 C833 1.523 . S
C835 C819 1.429 . S
C835 C831 1.429 . S
C835 C836 1.523 . S
C836 C820 1.368 . S
C836 C832 1.368 . S
C836 C835 1.523 . S
H837 C812 0.950 . S
H838 C814 0.950 . S
H839 C815 0.949 . S
H840 C817 0.950 . S
H841 C819 0.950 . S
C842 C843 1.349 . S
C842 C844 1.327 . S
C842 H867 0.950 . S
C843 C842 1.349 . S
C843 C859 1.349 . S
C844 C842 1.327 . S
C844 C863 1.429 . S
C844 H868 0.950 . S
C845 C862 1.574 . S
C845 C864 1.368 . S
C845 H869 0.949 . S
H846 C850 0.949 . S
C847 C848 1.349 . S
C847 C849 1.327 . S
C847 H870 0.950 . S
C848 C847 1.349 . S
C848 C860 1.349 . S
C849 C847 1.327 . S
C849 C865 1.429 . S
C849 H871 0.950 . S
C850 H846 0.949 . S
C850 C858 1.574 . S
C850 C866 1.368 . S
H851 C859 0.950 . S
H852 C857 0.950 . S
H853 C858 0.949 . S
H854 C860 0.950 . S
H855 C861 0.950 . S
H856 C862 0.949 . S
C857 H852 0.950 . S
C857 C859 1.327 . S
C857 C863 1.429 . S
C858 C850 1.574 . S
C858 H853 0.949 . S
C858 C864 1.368 . S
C859 C843 1.349 . S
C859 H851 0.950 . S
C859 C857 1.327 . S
C860 C848 1.349 . S
C860 H854 0.950 . S
C860 C861 1.327 . S
C861 H855 0.950 . S
C861 C860 1.327 . S
C861 C865 1.429 . S
C862 C845 1.574 . S
C862 H856 0.949 . S
C862 C866 1.368 . S
C863 C844 1.429 . S
C863 C857 1.429 . S
C863 C864 1.523 . S
C864 C845 1.368 . S
C864 C858 1.368 . S
C864 C863 1.523 . S
C865 C849 1.429 . S
C865 C861 1.429 . S
C865 C866 1.523 . S
C866 C850 1.368 . S
C866 C862 1.368 . S
C866 C865 1.523 . S
H867 C842 0.950 . S
H868 C844 0.950 . S
H869 C845 0.949 . S
H870 C847 0.950 . S
H871 C849 0.950 . S
C872 C873 1.349 . S
C872 C874 1.327 . S
C872 H897 0.950 . S
C873 C872 1.349 . S
C873 C889 1.349 . S
C874 C872 1.327 . S
C874 C893 1.429 . S
C874 H898 0.950 . S
C875 C892 1.574 . S
C875 C894 1.368 . S
C875 H899 0.949 . S
H876 C880 0.949 . S
C877 C878 1.349 . S
C877 C879 1.327 . S
C877 H900 0.950 . S
C878 C877 1.349 . S
C878 C890 1.349 . S
C879 C877 1.327 . S
C879 C895 1.429 . S
C879 H901 0.950 . S
C880 H876 0.949 . S
C880 C888 1.574 . S
C880 C896 1.368 . S
H881 C889 0.950 . S
H882 C887 0.950 . S
H883 C888 0.949 . S
H884 C890 0.950 . S
H885 C891 0.950 . S
H886 C892 0.949 . S
C887 H882 0.950 . S
C887 C889 1.327 . S
C887 C893 1.429 . S
C888 C880 1.574 . S
C888 H883 0.949 . S
C888 C894 1.368 . S
C889 C873 1.349 . S
C889 H881 0.950 . S
C889 C887 1.327 . S
C890 C878 1.349 . S
C890 H884 0.950 . S
C890 C891 1.327 . S
C891 H885 0.950 . S
C891 C890 1.327 . S
C891 C895 1.429 . S
C892 C875 1.574 . S
C892 H886 0.949 . S
C892 C896 1.368 . S
C893 C874 1.429 . S
C893 C887 1.429 . S
C893 C894 1.523 . S
C894 C875 1.368 . S
C894 C888 1.368 . S
C894 C893 1.523 . S
C895 C879 1.429 . S
C895 C891 1.429 . S
C895 C896 1.523 . S
C896 C880 1.368 . S
C896 C892 1.368 . S
C896 C895 1.523 . S
H897 C872 0.950 . S
H898 C874 0.950 . S
H899 C875 0.949 . S
H900 C877 0.950 . S
H901 C879 0.950 . S
C902 C903 1.349 . S
C902 C904 1.327 . S
C902 H927 0.950 . S
C903 C902 1.349 . S
C903 C919 1.349 . S
C904 C902 1.327 . S
C904 C923 1.429 . S
C904 H928 0.950 . S
C905 C922 1.574 . S
C905 C924 1.368 . S
C905 H929 0.949 . S
H906 C910 0.949 . S
C907 C908 1.349 . S
C907 C909 1.327 . S
C907 H930 0.950 . S
C908 C907 1.349 . S
C908 C920 1.349 . S
C909 C907 1.327 . S
C909 C925 1.429 . S
C909 H931 0.950 . S
C910 H906 0.949 . S
C910 C918 1.574 . S
C910 C926 1.368 . S
H911 C919 0.950 . S
H912 C917 0.950 . S
H913 C918 0.949 . S
H914 C920 0.950 . S
H915 C921 0.950 . S
H916 C922 0.949 . S
C917 H912 0.950 . S
C917 C919 1.327 . S
C917 C923 1.429 . S
C918 C910 1.574 . S
C918 H913 0.949 . S
C918 C924 1.368 . S
C919 C903 1.349 . S
C919 H911 0.950 . S
C919 C917 1.327 . S
C920 C908 1.349 . S
C920 H914 0.950 . S
C920 C921 1.327 . S
C921 H915 0.950 . S
C921 C920 1.327 . S
C921 C925 1.429 . S
C922 C905 1.574 . S
C922 H916 0.949 . S
C922 C926 1.368 . S
C923 C904 1.429 . S
C923 C917 1.429 . S
C923 C924 1.523 . S
C924 C905 1.368 . S
C924 C918 1.368 . S
C924 C923 1.523 . S
C925 C909 1.429 . S
C925 C921 1.429 . S
C925 C926 1.523 . S
C926 C910 1.368 . S
C926 C922 1.368 . S
C926 C925 1.523 . S
H927 C902 0.950 . S
H928 C904 0.950 . S
H929 C905 0.949 . S
H930 C907 0.950 . S
H931 C909 0.950 . S
C932 C933 1.349 . S
C932 C934 1.327 . S
C932 H957 0.950 . S
C933 C932 1.349 . S
C933 C949 1.349 . S
C934 C932 1.327 . S
C934 C953 1.429 . S
C934 H958 0.950 . S
C935 C952 1.574 . S
C935 C954 1.368 . S
C935 H959 0.949 . S
H936 C940 0.949 . S
C937 C938 1.349 . S
C937 C939 1.327 . S
C937 H960 0.950 . S
C938 C937 1.349 . S
C938 C950 1.349 . S
C939 C937 1.327 . S
C939 C955 1.429 . S
C939 H961 0.950 . S
C940 H936 0.949 . S
C940 C948 1.574 . S
C940 C956 1.368 . S
H941 C949 0.950 . S
H942 C947 0.950 . S
H943 C948 0.949 . S
H944 C950 0.950 . S
H945 C951 0.950 . S
H946 C952 0.949 . S
C947 H942 0.950 . S
C947 C949 1.327 . S
C947 C953 1.429 . S
C948 C940 1.574 . S
C948 H943 0.949 . S
C948 C954 1.368 . S
C949 C933 1.349 . S
C949 H941 0.950 . S
C949 C947 1.327 . S
C950 C938 1.349 . S
C950 H944 0.950 . S
C950 C951 1.327 . S
C951 H945 0.950 . S
C951 C950 1.327 . S
C951 C955 1.429 . S
C952 C935 1.574 . S
C952 H946 0.949 . S
C952 C956 1.368 . S
C953 C934 1.429 . S
C953 C947 1.429 . S
C953 C954 1.523 . S
C954 C935 1.368 . S
C954 C948 1.368 . S
C954 C953 1.523 . S
C955 C939 1.429 . S
C955 C951 1.429 . S
C955 C956 1.523 . S
C956 C940 1.368 . S
C956 C952 1.368 . S
C956 C955 1.523 . S
H957 C932 0.950 . S
H958 C934 0.950 . S
H959 C935 0.949 . S
H960 C937 0.950 . S
H961 C939 0.950 . S
C962 C963 1.349 . S
C962 C964 1.327 . S
C962 H987 0.950 . S
C963 C962 1.349 . S
C963 C979 1.349 . S
C964 C962 1.327 . S
C964 C983 1.429 . S
C964 H988 0.950 . S
C965 C982 1.574 . S
C965 C984 1.368 . S
C965 H989 0.949 . S
H966 C970 0.949 . S
C967 C968 1.349 . S
C967 C969 1.327 . S
C967 H990 0.950 . S
C968 C967 1.349 . S
C968 C980 1.349 . S
C969 C967 1.327 . S
C969 C985 1.429 . S
C969 H991 0.950 . S
C970 H966 0.949 . S
C970 C978 1.574 . S
C970 C986 1.368 . S
H971 C979 0.950 . S
H972 C977 0.950 . S
H973 C978 0.949 . S
H974 C980 0.950 . S
H975 C981 0.950 . S
H976 C982 0.949 . S
C977 H972 0.950 . S
C977 C979 1.327 . S
C977 C983 1.429 . S
C978 C970 1.574 . S
C978 H973 0.949 . S
C978 C984 1.368 . S
C979 C963 1.349 . S
C979 H971 0.950 . S
C979 C977 1.327 . S
C980 C968 1.349 . S
C980 H974 0.950 . S
C980 C981 1.327 . S
C981 H975 0.950 . S
C981 C980 1.327 . S
C981 C985 1.429 . S
C982 C965 1.574 . S
C982 H976 0.949 . S
C982 C986 1.368 . S
C983 C964 1.429 . S
C983 C977 1.429 . S
C983 C984 1.523 . S
C984 C965 1.368 . S
C984 C978 1.368 . S
C984 C983 1.523 . S
C985 C969 1.429 . S
C985 C981 1.429 . S
C985 C986 1.523 . S
C986 C970 1.368 . S
C986 C982 1.368 . S
C986 C985 1.523 . S
H987 C962 0.950 . S
H988 C964 0.950 . S
H989 C965 0.949 . S
H990 C967 0.950 . S
H991 C969 0.950 . S
C992 C993 1.349 . S
C992 C994 1.327 . S
C992 H1017 0.950 . S
C993 C992 1.349 . S
C993 C1009 1.349 . S
C994 C992 1.327 . S
C994 C1013 1.429 . S
C994 H1018 0.950 . S
C995 C1012 1.574 . S
C995 C1014 1.368 . S
C995 H1019 0.949 . S
H996 C1000 0.949 . S
C997 C998 1.349 . S
C997 C999 1.327 . S
C997 H1020 0.950 . S
C998 C997 1.349 . S
C998 C1010 1.349 . S
C999 C997 1.327 . S
C999 C1015 1.429 . S
C999 H1021 0.950 . S
C1000 H996 0.949 . S
C1000 C1008 1.574 . S
C1000 C1016 1.368 . S
H1001 C1009 0.950 . S
H1002 C1007 0.950 . S
H1003 C1008 0.949 . S
H1004 C1010 0.950 . S
H1005 C1011 0.950 . S
H1006 C1012 0.949 . S
C1007 H1002 0.950 . S
C1007 C1009 1.327 . S
C1007 C1013 1.429 . S
C1008 C1000 1.574 . S
C1008 H1003 0.949 . S
C1008 C1014 1.368 . S
C1009 C993 1.349 . S
C1009 H1001 0.950 . S
C1009 C1007 1.327 . S
C1010 C998 1.349 . S
C1010 H1004 0.950 . S
C1010 C1011 1.327 . S
C1011 H1005 0.950 . S
C1011 C1010 1.327 . S
C1011 C1015 1.429 . S
C1012 C995 1.574 . S
C1012 H1006 0.949 . S
C1012 C1016 1.368 . S
C1013 C994 1.429 . S
C1013 C1007 1.429 . S
C1013 C1014 1.523 . S
C1014 C995 1.368 . S
C1014 C1008 1.368 . S
C1014 C1013 1.523 . S
C1015 C999 1.429 . S
C1015 C1011 1.429 . S
C1015 C1016 1.523 . S
C1016 C1000 1.368 . S
C1016 C1012 1.368 . S
C1016 C1015 1.523 . S
H1017 C992 0.950 . S
H1018 C994 0.950 . S
H1019 C995 0.949 . S
H1020 C997 0.950 . S
H1021 C999 0.950 . S
C1022 C1023 1.349 . S
C1022 C1024 1.327 . S
C1022 H1047 0.950 . S
C1023 C1022 1.349 . S
C1023 C1039 1.349 . S
C1024 C1022 1.327 . S
C1024 C1043 1.429 . S
C1024 H1048 0.950 . S
C1025 C1042 1.574 . S
C1025 C1044 1.368 . S
C1025 H1049 0.949 . S
H1026 C1030 0.949 . S
C1027 C1028 1.349 . S
C1027 C1029 1.327 . S
C1027 H1050 0.950 . S
C1028 C1027 1.349 . S
C1028 C1040 1.349 . S
C1029 C1027 1.327 . S
C1029 C1045 1.429 . S
C1029 H1051 0.950 . S
C1030 H1026 0.949 . S
C1030 C1038 1.574 . S
C1030 C1046 1.368 . S
H1031 C1039 0.950 . S
H1032 C1037 0.950 . S
H1033 C1038 0.949 . S
H1034 C1040 0.950 . S
H1035 C1041 0.950 . S
H1036 C1042 0.949 . S
C1037 H1032 0.950 . S
C1037 C1039 1.327 . S
C1037 C1043 1.429 . S
C1038 C1030 1.574 . S
C1038 H1033 0.949 . S
C1038 C1044 1.368 . S
C1039 C1023 1.349 . S
C1039 H1031 0.950 . S
C1039 C1037 1.327 . S
C1040 C1028 1.349 . S
C1040 H1034 0.950 . S
C1040 C1041 1.327 . S
C1041 H1035 0.950 . S
C1041 C1040 1.327 . S
C1041 C1045 1.429 . S
C1042 C1025 1.574 . S
C1042 H1036 0.949 . S
C1042 C1046 1.368 . S
C1043 C1024 1.429 . S
C1043 C1037 1.429 . S
C1043 C1044 1.523 . S
C1044 C1025 1.368 . S
C1044 C1038 1.368 . S
C1044 C1043 1.523 . S
C1045 C1029 1.429 . S
C1045 C1041 1.429 . S
C1045 C1046 1.523 . S
C1046 C1030 1.368 . S
C1046 C1042 1.368 . S
C1046 C1045 1.523 . S
H1047 C1022 0.950 . S
H1048 C1024 0.950 . S
H1049 C1025 0.949 . S
H1050 C1027 0.950 . S
H1051 C1029 0.950 . S
C1052 C1053 1.349 . S
C1052 C1054 1.327 . S
C1052 H1077 0.950 . S
C1053 C1052 1.349 . S
C1053 C1069 1.349 . S
C1054 C1052 1.327 . S
C1054 C1073 1.429 . S
C1054 H1078 0.950 . S
C1055 C1072 1.574 . S
C1055 C1074 1.368 . S
C1055 H1079 0.949 . S
H1056 C1060 0.949 . S
C1057 C1058 1.349 . S
C1057 C1059 1.327 . S
C1057 H1080 0.950 . S
C1058 C1057 1.349 . S
C1058 C1070 1.349 . S
C1059 C1057 1.327 . S
C1059 C1075 1.429 . S
C1059 H1081 0.950 . S
C1060 H1056 0.949 . S
C1060 C1068 1.574 . S
C1060 C1076 1.368 . S
H1061 C1069 0.950 . S
H1062 C1067 0.950 . S
H1063 C1068 0.949 . S
H1064 C1070 0.950 . S
H1065 C1071 0.950 . S
H1066 C1072 0.949 . S
C1067 H1062 0.950 . S
C1067 C1069 1.327 . S
C1067 C1073 1.429 . S
C1068 C1060 1.574 . S
C1068 H1063 0.949 . S
C1068 C1074 1.368 . S
C1069 C1053 1.349 . S
C1069 H1061 0.950 . S
C1069 C1067 1.327 . S
C1070 C1058 1.349 . S
C1070 H1064 0.950 . S
C1070 C1071 1.327 . S
C1071 H1065 0.950 . S
C1071 C1070 1.327 . S
C1071 C1075 1.429 . S
C1072 C1055 1.574 . S
C1072 H1066 0.949 . S
C1072 C1076 1.368 . S
C1073 C1054 1.429 . S
C1073 C1067 1.429 . S
C1073 C1074 1.523 . S
C1074 C1055 1.368 . S
C1074 C1068 1.368 . S
C1074 C1073 1.523 . S
C1075 C1059 1.429 . S
C1075 C1071 1.429 . S
C1075 C1076 1.523 . S
C1076 C1060 1.368 . S
C1076 C1072 1.368 . S
C1076 C1075 1.523 . S
H1077 C1052 0.950 . S
H1078 C1054 0.950 . S
H1079 C1055 0.949 . S
H1080 C1057 0.950 . S
H1081 C1059 0.950 . S
C1082 C1083 1.349 . S
C1082 C1084 1.327 . S
C1082 H1107 0.950 . S
C1083 C1082 1.349 . S
C1083 C1099 1.349 . S
C1084 C1082 1.327 . S
C1084 C1103 1.429 . S
C1084 H1108 0.950 . S
C1085 C1102 1.574 . S
C1085 C1104 1.368 . S
C1085 H1109 0.949 . S
H1086 C1090 0.949 . S
C1087 C1088 1.349 . S
C1087 C1089 1.327 . S
C1087 H1110 0.950 . S
C1088 C1087 1.349 . S
C1088 C1100 1.349 . S
C1089 C1087 1.327 . S
C1089 C1105 1.429 . S
C1089 H1111 0.950 . S
C1090 H1086 0.949 . S
C1090 C1098 1.574 . S
C1090 C1106 1.368 . S
H1091 C1099 0.950 . S
H1092 C1097 0.950 . S
H1093 C1098 0.949 . S
H1094 C1100 0.950 . S
H1095 C1101 0.950 . S
H1096 C1102 0.949 . S
C1097 H1092 0.950 . S
C1097 C1099 1.327 . S
C1097 C1103 1.429 . S
C1098 C1090 1.574 . S
C1098 H1093 0.949 . S
C1098 C1104 1.368 . S
C1099 C1083 1.349 . S
C1099 H1091 0.950 . S
C1099 C1097 1.327 . S
C1100 C1088 1.349 . S
C1100 H1094 0.950 . S
C1100 C1101 1.327 . S
C1101 H1095 0.950 . S
C1101 C1100 1.327 . S
C1101 C1105 1.429 . S
C1102 C1085 1.574 . S
C1102 H1096 0.949 . S
C1102 C1106 1.368 . S
C1103 C1084 1.429 . S
C1103 C1097 1.429 . S
C1103 C1104 1.523 . S
C1104 C1085 1.368 . S
C1104 C1098 1.368 . S
C1104 C1103 1.523 . S
C1105 C1089 1.429 . S
C1105 C1101 1.429 . S
C1105 C1106 1.523 . S
C1106 C1090 1.368 . S
C1106 C1102 1.368 . S
C1106 C1105 1.523 . S
H1107 C1082 0.950 . S
H1108 C1084 0.950 . S
H1109 C1085 0.949 . S
H1110 C1087 0.950 . S
H1111 C1089 0.950 . S
C1112 C1113 1.349 . S
C1112 C1114 1.327 . S
C1112 H1137 0.950 . S
C1113 C1112 1.349 . S
C1113 C1129 1.349 . S
C1114 C1112 1.327 . S
C1114 C1133 1.429 . S
C1114 H1138 0.950 . S
C1115 C1132 1.574 . S
C1115 C1134 1.368 . S
C1115 H1139 0.949 . S
H1116 C1120 0.949 . S
C1117 C1118 1.349 . S
C1117 C1119 1.327 . S
C1117 H1140 0.950 . S
C1118 C1117 1.349 . S
C1118 C1130 1.349 . S
C1119 C1117 1.327 . S
C1119 C1135 1.429 . S
C1119 H1141 0.950 . S
C1120 H1116 0.949 . S
C1120 C1128 1.574 . S
C1120 C1136 1.368 . S
H1121 C1129 0.950 . S
H1122 C1127 0.950 . S
H1123 C1128 0.949 . S
H1124 C1130 0.950 . S
H1125 C1131 0.950 . S
H1126 C1132 0.949 . S
C1127 H1122 0.950 . S
C1127 C1129 1.327 . S
C1127 C1133 1.429 . S
C1128 C1120 1.574 . S
C1128 H1123 0.949 . S
C1128 C1134 1.368 . S
C1129 C1113 1.349 . S
C1129 H1121 0.950 . S
C1129 C1127 1.327 . S
C1130 C1118 1.349 . S
C1130 H1124 0.950 . S
C1130 C1131 1.327 . S
C1131 H1125 0.950 . S
C1131 C1130 1.327 . S
C1131 C1135 1.429 . S
C1132 C1115 1.574 . S
C1132 H1126 0.949 . S
C1132 C1136 1.368 . S
C1133 C1114 1.429 . S
C1133 C1127 1.429 . S
C1133 C1134 1.523 . S
C1134 C1115 1.368 . S
C1134 C1128 1.368 . S
C1134 C1133 1.523 . S
C1135 C1119 1.429 . S
C1135 C1131 1.429 . S
C1135 C1136 1.523 . S
C1136 C1120 1.368 . S
C1136 C1132 1.368 . S
C1136 C1135 1.523 . S
H1137 C1112 0.950 . S
H1138 C1114 0.950 . S
H1139 C1115 0.949 . S
H1140 C1117 0.950 . S
H1141 C1119 0.950 . S
C428 C126 1.351 . S
C423 N2 1.352 . S
C458 C195 1.578 . S
C453 N15 1.599 . S
C488 C133 1.534 . S
C483 N27 1.527 . S
C518 C196 1.830 . S
C513 N44 1.844 . S
C548 C249 1.698 . S
C543 N1 1.717 . S
C578 C285 1.783 . S
C573 N18 1.770 . S
C603 N28 1.739 . S
C608 C345 1.703 . S
C638 C408 1.698 . S
C633 N41 1.700 . S
C668 C248 1.662 . S
C663 N14 1.668 . S
C693 N31 1.700 . S
C698 C292 1.703 . S
C728 C338 1.963 . S
C723 N40 1.967 . S
C758 C407 1.758 . S
C753 N5 1.774 . S
C783 N53 1.993 . S
C788 C186 1.975 . S
C818 C143 1.652 . S
C813 N70 1.638 . S
C843 N80 1.701 . S
C848 C179 1.675 . S
C873 N92 1.620 . S
C878 C142 1.624 . S
C908 C354 1.947 . S
C903 N57 1.962 . S
C938 C398 1.532 . S
C933 N67 1.539 . S
C968 C232 1.752 . S
C963 N83 1.769 . S
C993 N96 1.651 . S
C998 C301 1.652 . S
C1028 C355 1.727 . S
C1023 N66 1.760 . S
C1058 C391 1.617 . S
C1053 N79 1.626 . S
C1088 C239 1.682 . S
C1083 N93 1.708 . S
C1113 N54 1.472 . S
C1118 C302 1.470 . S
