# Generated by pormake.
# Topology anh, (6,3)-cn, num edge types: 1
# Building blocks:
#     Node 0, Type 0, BuildingBlock: CUKXOW_clean_sbu_0, # of connection points: 6
#     Node 1, Type 0, BuildingBlock: CUKXOW_clean_sbu_0, # of connection points: 6
#     Node 2, Type 0, BuildingBlock: CUKXOW_clean_sbu_0, # of connection points: 6
#     Node 3, Type 1, BuildingBlock: BELTOD_clean_linker_0, # of connection points: 3
#     Node 4, Type 1, BuildingBlock: BELTOD_clean_linker_0, # of connection points: 3
#     Node 5, Type 1, BuildingBlock: BELTOD_clean_linker_0, # of connection points: 3
#     Node 6, Type 1, BuildingBlock: BELTOD_clean_linker_0, # of connection points: 3
#     Node 7, Type 1, BuildingBlock: BELTOD_clean_linker_0, # of connection points: 3
#     Node 8, Type 1, BuildingBlock: BELTOD_clean_linker_0, # of connection points: 3
#     Edge 9, Type (0, 1), BuildingBlock: UVAHIK_clean_linker_0, # of connection points: 2
#     Edge 10, Type (0, 1), BuildingBlock: UVAHIK_clean_linker_0, # of connection points: 2
#     Edge 11, Type (0, 1), BuildingBlock: UVAHIK_clean_linker_0, # of connection points: 2
#     Edge 12, Type (0, 1), BuildingBlock: UVAHIK_clean_linker_0, # of connection points: 2
#     Edge 13, Type (0, 1), BuildingBlock: UVAHIK_clean_linker_0, # of connection points: 2
#     Edge 14, Type (0, 1), BuildingBlock: UVAHIK_clean_linker_0, # of connection points: 2
#     Edge 15, Type (0, 1), BuildingBlock: UVAHIK_clean_linker_0, # of connection points: 2
#     Edge 16, Type (0, 1), BuildingBlock: UVAHIK_clean_linker_0, # of connection points: 2
#     Edge 17, Type (0, 1), BuildingBlock: UVAHIK_clean_linker_0, # of connection points: 2
#     Edge 18, Type (0, 1), BuildingBlock: UVAHIK_clean_linker_0, # of connection points: 2
#     Edge 19, Type (0, 1), BuildingBlock: UVAHIK_clean_linker_0, # of connection points: 2
#     Edge 20, Type (0, 1), BuildingBlock: UVAHIK_clean_linker_0, # of connection points: 2
#     Edge 21, Type (0, 1), BuildingBlock: UVAHIK_clean_linker_0, # of connection points: 2
#     Edge 22, Type (0, 1), BuildingBlock: UVAHIK_clean_linker_0, # of connection points: 2
#     Edge 23, Type (0, 1), BuildingBlock: UVAHIK_clean_linker_0, # of connection points: 2
#     Edge 24, Type (0, 1), BuildingBlock: UVAHIK_clean_linker_0, # of connection points: 2
#     Edge 25, Type (0, 1), BuildingBlock: UVAHIK_clean_linker_0, # of connection points: 2
#     Edge 26, Type (0, 1), BuildingBlock: UVAHIK_clean_linker_0, # of connection points: 2
# Relax obj value: 0.122
# Max RMSD: 0.188
# Mean RMSD: 0.129
data_MOF--net-anh--node1-CUKXOW_clean_sbu_0--node2-BELTOD_clean_linker_0--edge1-UVAHIK_clean_linker_0
_symmetry_space_group_name_H-M    P1
_symmetry_Int_Tables_number       1
_symmetry_cell_setting            triclinic
loop_
_symmetry_equiv_pos_as_xyz
'x, y, z'
_cell_length_a     41.786337
_cell_length_b     40.716994
_cell_length_c     74.725575
_cell_angle_alpha  95.938868
_cell_angle_beta   90.21022
_cell_angle_gamma 116.63596
loop_
_atom_site_label
_atom_site_type_symbol
_atom_site_fract_x
_atom_site_fract_y
_atom_site_fract_z
_atom_type_partial_charge
Tb0 Tb 0.06338 0.53947 0.1548 0.0
C1 C 0.03395 0.49775 0.18833 0.0
Tb2 Tb 0.00796 0.45991 0.14758 0.0
O3 O 0.02232 0.55524 0.16493 0.0
O4 O 0.00886 0.51127 0.14473 0.0
O5 O 0.0594 0.5276 0.18247 0.0
C6 C 0.94488 0.40008 0.14757 0.0
O7 O 0.01065 0.46921 0.1772 0.0
C8 C 0.07433 0.46914 0.14666 0.0
C9 C 0.04072 0.50166 0.11466 0.0
O10 O 0.95239 0.43301 0.15505 0.0
O11 O 0.973 0.40062 0.13998 0.0
O12 O 0.04708 0.4413 0.13795 0.0
O13 O 0.06285 0.4876 0.15705 0.0
O14 O 0.01103 0.47562 0.12037 0.0
O15 O 0.06678 0.52635 0.12606 0.0
C16 C 0.12304 0.60351 0.15651 0.0
O17 O 0.09126 0.59862 0.15161 0.0
O18 O 0.12111 0.5725 0.1605 0.0
C19 C 0.99615 0.52839 0.15508 0.0
Tb20 Tb 0.46955 0.00927 0.51328 0.0
C21 C 0.50544 0.03707 0.47758 0.0
Tb22 Tb 0.5454 0.07283 0.51642 0.0
O23 O 0.44916 0.04604 0.50393 0.0
O24 O 0.4938 0.06672 0.52207 0.0
O25 O 0.48024 0.00901 0.48485 0.0
C26 C 0.60332 0.13744 0.51517 0.0
O27 O 0.5314 0.06585 0.48746 0.0
C28 C 0.54108 0.00693 0.5174 0.0
C29 C 0.51104 0.04334 0.55183 0.0
O30 O 0.60343 0.10578 0.51578 0.0
O31 O 0.57052 0.13281 0.5153 0.0
O32 O 0.56677 0.03696 0.5256 0.0
O33 O 0.52134 0.0152 0.50792 0.0
O34 O 0.53434 0.0729 0.54474 0.0
O35 O 0.48565 0.01416 0.54187 0.0
C36 C 0.41122 0.94469 0.51389 0.0
O37 O 0.41187 0.977 0.51636 0.0
O38 O 0.44334 0.94881 0.51114 0.0
C39 C 0.4746 0.07559 0.51262 0.0
Tb40 Tb 0.50796 0.50553 0.82644 0.0
C41 C 0.54031 0.50687 0.86423 0.0
Tb42 Tb 0.5849 0.51685 0.82888 0.0
O43 O 0.48831 0.44918 0.83359 0.0
O44 O 0.53482 0.47321 0.81936 0.0
O45 O 0.51566 0.5125 0.85562 0.0
C46 C 0.64421 0.50936 0.83366 0.0
O47 O 0.56683 0.50331 0.85587 0.0
C48 C 0.57786 0.57728 0.82821 0.0
C49 C 0.55299 0.51612 0.79098 0.0
O50 O 0.63834 0.53594 0.8415 0.0
O51 O 0.61672 0.48696 0.82308 0.0
O52 O 0.6052 0.57336 0.82217 0.0
O53 O 0.55818 0.54949 0.83589 0.0
O54 O 0.57936 0.51394 0.79985 0.0
O55 O 0.52403 0.51499 0.79878 0.0
C56 C 0.45055 0.51583 0.82041 0.0
O57 O 0.4508 0.48391 0.81889 0.0
O58 O 0.48229 0.54162 0.82563 0.0
C59 C 0.51546 0.44544 0.82709 0.0
P60 P 0.56968 0.9865 0.22728 0.0
H61 H 0.54173 0.92093 0.20066 0.0
H62 H 0.48262 0.88318 0.18554 0.0
H63 H 0.44458 0.95771 0.21173 0.0
H64 H 0.50391 0.99527 0.22693 0.0
H65 H 0.62852 0.05797 0.24149 0.0
H66 H 0.66876 0.11154 0.22693 0.0
H67 H 0.61151 0.05794 0.17573 0.0
H68 H 0.57105 0.00466 0.19037 0.0
H69 H 0.55834 0.94321 0.25722 0.0
H70 H 0.56129 0.04741 0.24821 0.0
O71 O 0.59212 0.96129 0.22609 0.0
H72 H 0.54494 0.95233 0.28858 0.0
H73 H 0.54794 0.05684 0.27972 0.0
C74 C 0.52687 0.96034 0.21523 0.0
C75 C 0.52073 0.92922 0.20311 0.0
C76 C 0.487 0.90787 0.19434 0.0
C77 C 0.45889 0.91738 0.19752 0.0
C78 C 0.46559 0.94943 0.2092 0.0
C79 C 0.49943 0.97087 0.2179 0.0
C80 C 0.59608 0.02784 0.21713 0.0
C81 C 0.62398 0.05817 0.22723 0.0
C82 C 0.64701 0.08871 0.2189 0.0
C83 C 0.64308 0.08892 0.20023 0.0
C84 C 0.6151 0.05847 0.19014 0.0
C85 C 0.59181 0.02816 0.19854 0.0
C86 C 0.56187 0.99513 0.25056 0.0
C87 C 0.5565 0.96828 0.26206 0.0
C88 C 0.54849 0.97335 0.27993 0.0
C89 C 0.54549 0.00536 0.28661 0.0
C90 C 0.5506 0.03216 0.275 0.0
C91 C 0.55833 0.02686 0.25703 0.0
P92 P 0.58892 0.57438 0.5419 0.0
H93 H 0.59975 0.53067 0.51098 0.0
H94 H 0.57144 0.46392 0.50188 0.0
H95 H 0.48981 0.44951 0.5398 0.0
H96 H 0.51778 0.5165 0.54859 0.0
H97 H 0.63166 0.65105 0.53596 0.0
H98 H 0.61656 0.70093 0.53138 0.0
H99 H 0.50388 0.62495 0.53074 0.0
H100 H 0.5193 0.57467 0.5353 0.0
H101 H 0.5843 0.51797 0.56439 0.0
H102 H 0.59255 0.62811 0.57257 0.0
O103 O 0.63129 0.58658 0.53675 0.0
H104 H 0.57973 0.51409 0.59678 0.0
H105 H 0.58954 0.62471 0.60514 0.0
C106 C 0.56131 0.52844 0.53075 0.0
C107 C 0.57505 0.51338 0.51689 0.0
C108 C 0.55883 0.47518 0.51168 0.0
C109 C 0.52883 0.45155 0.52038 0.0
C110 C 0.51316 0.46712 0.53303 0.0
C111 C 0.52903 0.50539 0.53799 0.0
C112 C 0.57661 0.60897 0.53565 0.0
C113 C 0.60366 0.64481 0.53448 0.0
C114 C 0.59501 0.67345 0.53204 0.0
C115 C 0.55904 0.66693 0.53081 0.0
C116 C 0.53183 0.63073 0.5315 0.0
C117 C 0.54059 0.60199 0.53408 0.0
C118 C 0.58731 0.57275 0.56592 0.0
C119 C 0.58484 0.54121 0.57309 0.0
C120 C 0.58243 0.53903 0.59158 0.0
C121 C 0.58385 0.56893 0.6033 0.0
C122 C 0.58813 0.60124 0.59628 0.0
C123 C 0.5897 0.60309 0.57768 0.0
P124 P 0.1174 0.67456 0.88673 0.0
H125 H 0.17023 0.70215 0.85945 0.0
H126 H 0.20824 0.67747 0.84432 0.0
H127 H 0.16752 0.58658 0.87674 0.0
H128 H 0.13069 0.61164 0.89189 0.0
H129 H 0.06381 0.69718 0.87543 0.0
H130 H 1.00385 0.66193 0.86062 0.0
H131 H 0.02089 0.56436 0.85328 0.0
H132 H 0.07981 0.59914 0.86848 0.0
H133 H 0.16428 0.6781 0.91671 0.0
H134 H 0.05146 0.64395 0.90656 0.0
O135 O 0.1338 0.72031 0.88717 0.0
H136 H 0.15192 0.65212 0.94532 0.0
H137 H 0.03903 0.61955 0.93549 0.0
C138 C 0.14859 0.65942 0.87718 0.0
C139 C 0.1702 0.67737 0.86351 0.0
C140 C 0.1915 0.66299 0.85474 0.0
C141 C 0.19107 0.63022 0.85944 0.0
C142 C 0.16918 0.61235 0.8731 0.0
C143 C 0.14818 0.6268 0.88186 0.0
C144 C 0.07654 0.65102 0.87284 0.0
C145 C 0.05491 0.66845 0.87024 0.0
C146 C 0.02072 0.64828 0.86173 0.0
C147 C 0.00769 0.61033 0.85581 0.0
C148 C 0.03007 0.59344 0.85783 0.0
C149 C 0.06403 0.61352 0.8664 0.0
C150 C 0.10874 0.66193 0.90925 0.0
C151 C 0.13691 0.66555 0.92079 0.0
C152 C 0.12977 0.65084 0.93722 0.0
C153 C 0.09432 0.63306 0.94261 0.0
C154 C 0.06649 0.63197 0.93153 0.0
C155 C 0.07363 0.64623 0.91499 0.0
P156 P 0.04035 0.47219 0.44075 0.0
H157 H 0.09032 0.49538 0.47217 0.0
H158 H 0.13165 0.5562 0.48739 0.0
H159 H 0.09311 0.60809 0.45094 0.0
H160 H 0.05139 0.54706 0.43601 0.0
H161 H 0.98146 0.39877 0.43313 0.0
H162 H 0.92195 0.36824 0.4448 0.0
H163 H 0.94289 0.46889 0.47897 0.0
H164 H 1.00267 0.4992 0.46731 0.0
H165 H 0.09179 0.48533 0.41304 0.0
H166 H 0.98296 0.46964 0.41668 0.0
O167 O 0.05945 0.44448 0.44301 0.0
H168 H 0.08864 0.49037 0.38079 0.0
H169 H 0.97961 0.47462 0.38447 0.0
C170 C 0.06852 0.51687 0.45271 0.0
C171 C 0.09071 0.51986 0.46751 0.0
C172 C 0.11436 0.55463 0.47616 0.0
C173 C 0.11599 0.58699 0.47023 0.0
C174 C 0.09242 0.58371 0.45589 0.0
C175 C 0.06879 0.54888 0.44724 0.0
C176 C 0.9965 0.45104 0.44945 0.0
C177 C 0.97319 0.41426 0.44312 0.0
C178 C 0.93909 0.39697 0.4497 0.0
C179 C 0.92766 0.41621 0.46278 0.0
C180 C 0.95106 0.45328 0.46901 0.0
C181 C 0.98521 0.47064 0.46232 0.0
C182 C 0.03742 0.47635 0.41714 0.0
C183 C 0.06721 0.48289 0.40687 0.0
C184 C 0.06544 0.48601 0.38849 0.0
C185 C 0.03378 0.48265 0.38008 0.0
C186 C 0.00415 0.47672 0.39052 0.0
C187 C 0.00606 0.47389 0.40894 0.0
P188 P 0.62112 0.04392 0.79824 0.0
H189 H 0.62998 0.09109 0.83199 0.0
H190 H 0.60822 0.13703 0.84067 0.0
H191 H 0.53937 0.09935 0.7921 0.0
H192 H 0.56044 0.05333 0.78365 0.0
H193 H 0.66272 0.00732 0.80865 0.0
H194 H 0.64659 0.94713 0.81861 0.0
H195 H 0.53499 0.92377 0.81684 0.0
H196 H 0.55158 0.98495 0.80698 0.0
H197 H 0.66219 0.08705 0.77027 0.0
H198 H 0.56544 0.98597 0.77301 0.0
O199 O 0.66467 0.07073 0.80364 0.0
H200 H 0.6499 0.08282 0.738 0.0
H201 H 0.55195 0.98238 0.7409 0.0
C202 C 0.59754 0.06935 0.80698 0.0
C203 C 0.60944 0.09201 0.82348 0.0
C204 C 0.59698 0.11819 0.82844 0.0
C205 C 0.57263 0.12207 0.81686 0.0
C206 C 0.55856 0.09723 0.8011 0.0
C207 C 0.57068 0.07087 0.79628 0.0
C208 C 0.60841 0.00083 0.80735 0.0
C209 C 0.63483 0.98967 0.81073 0.0
C210 C 0.62557 0.95521 0.81647 0.0
C211 C 0.58955 0.93083 0.81868 0.0
C212 C 0.56297 0.94203 0.81528 0.0
C213 C 0.5724 0.97694 0.80973 0.0
C214 C 0.61505 0.03655 0.77402 0.0
C215 C 0.63858 0.06357 0.76387 0.0
C216 C 0.63121 0.06138 0.74543 0.0
C217 C 0.59967 0.03249 0.73682 0.0
C218 C 0.57671 0.00476 0.74697 0.0
C219 C 0.58439 0.00677 0.7654 0.0
P220 P 0.51642 0.45128 0.11442 0.0
H221 H 0.54591 0.41388 0.1358 0.0
H222 H 0.60737 0.42765 0.14444 0.0
H223 H 0.64522 0.53609 0.12706 0.0
H224 H 0.58322 0.52198 0.11826 0.0
H225 H 0.45078 0.40566 0.13146 0.0
H226 H 0.39889 0.41466 0.13985 0.0
H227 H 0.45542 0.52931 0.13067 0.0
H228 H 0.50806 0.52011 0.1223 0.0
H229 H 0.56949 0.45604 0.08834 0.0
H230 H 0.47543 0.47434 0.09044 0.0
O231 O 0.4986 0.40521 0.11073 0.0
H232 H 0.57481 0.46771 0.0568 0.0
H233 H 0.48121 0.48675 0.05906 0.0
C234 C 0.5598 0.46671 0.12617 0.0
C235 C 0.5672 0.441 0.1342 0.0
C236 C 0.60252 0.44877 0.139 0.0
C237 C 0.63139 0.48268 0.13609 0.0
C238 C 0.62367 0.50967 0.12945 0.0
C239 C 0.58817 0.5017 0.12449 0.0
C240 C 0.48332 0.46203 0.1259 0.0
C241 C 0.45258 0.43303 0.13156 0.0
C242 C 0.4226 0.43813 0.13624 0.0
C243 C 0.4225 0.47245 0.13547 0.0
C244 C 0.45446 0.50244 0.13132 0.0
C245 C 0.48466 0.49727 0.1266 0.0
C246 C 0.52292 0.46571 0.0921 0.0
C247 C 0.55057 0.46361 0.08223 0.0
C248 C 0.55342 0.46991 0.06414 0.0
C249 C 0.52855 0.47837 0.05554 0.0
C250 C 0.50112 0.48095 0.06547 0.0
C251 C 0.49799 0.4741 0.08351 0.0
C252 C 0.13936 0.49996 0.15857 0.0
C253 C 0.11159 0.47318 0.1467 0.0
C254 C 0.17413 0.50253 0.15839 0.0
C255 C 0.22121 0.44598 0.14589 0.0
H256 H 0.30672 0.53891 0.14498 0.0
C257 C 0.35609 0.44745 0.12915 0.0
C258 C 0.38824 0.47553 0.13761 0.0
C259 C 0.32357 0.44915 0.13114 0.0
C260 C 0.28325 0.51273 0.1455 0.0
H261 H 0.09873 0.42824 0.12532 0.0
H262 H 0.15866 0.43225 0.12522 0.0
H263 H 0.24805 0.53847 0.14723 0.0
H264 H 0.4112 0.52797 0.15462 0.0
H265 H 0.35413 0.53069 0.15847 0.0
H266 H 0.25581 0.42006 0.14448 0.0
C267 C 0.1538 0.45133 0.13468 0.0
C268 C 0.24954 0.51252 0.14676 0.0
C269 C 0.11939 0.44912 0.1347 0.0
C270 C 0.38697 0.50586 0.1479 0.0
C271 C 0.35418 0.50743 0.15005 0.0
C272 C 0.25475 0.44621 0.14484 0.0
C273 C 0.18166 0.47791 0.14656 0.0
C274 C 0.218 0.47902 0.14662 0.0
C275 C 0.32184 0.47885 0.14182 0.0
C276 C 0.28634 0.47946 0.14425 0.0
H277 H 0.13414 0.51849 0.16819 0.0
H278 H 0.19487 0.52315 0.16781 0.0
H279 H 0.19761 0.41974 0.14613 0.0
H280 H 0.35607 0.42412 0.12073 0.0
H281 H 0.29974 0.42713 0.12407 0.0
C282 C 0.6322 0.20462 0.51094 0.0
C283 C 0.63533 0.17246 0.51345 0.0
C284 C 0.66262 0.23709 0.50813 0.0
C285 C 0.72694 0.29033 0.48926 0.0
H286 H 0.81866 0.31691 0.51378 0.0
C287 C 0.86193 0.37291 0.45876 0.0
C288 C 0.89185 0.39699 0.4702 0.0
C289 C 0.82906 0.35177 0.46585 0.0
C290 C 0.79321 0.31036 0.507 0.0
H291 H 0.67243 0.14902 0.51548 0.0
H292 H 0.72535 0.20537 0.51049 0.0
H293 H 0.76431 0.26835 0.52386 0.0
H294 H 0.91034 0.41893 0.49802 0.0
H295 H 0.85269 0.38229 0.51042 0.0
H296 H 0.75596 0.33204 0.47223 0.0
C297 C 0.69965 0.20586 0.51087 0.0
C298 C 0.7621 0.28221 0.51265 0.0
C299 C 0.66932 0.17348 0.5136 0.0
C300 C 0.88775 0.40072 0.48885 0.0
C301 C 0.85483 0.37949 0.49596 0.0
C302 C 0.75808 0.3185 0.48359 0.0
C303 C 0.69665 0.23793 0.5079 0.0
C304 C 0.72876 0.2712 0.50354 0.0
C305 C 0.82532 0.3542 0.48456 0.0
C306 C 0.79169 0.32818 0.4921 0.0
H307 H 0.60622 0.2045 0.51082 0.0
H308 H 0.65949 0.26144 0.50602 0.0
H309 H 0.70169 0.28241 0.4819 0.0
H310 H 0.86413 0.36982 0.44431 0.0
H311 H 0.80702 0.33234 0.45669 0.0
C312 C 0.54923 0.61793 0.83889 0.0
C313 C 0.57383 0.61146 0.82817 0.0
C314 C 0.54698 0.65131 0.83916 0.0
C315 C 0.53685 0.71801 0.82908 0.0
H316 H 0.62762 0.80674 0.83171 0.0
C317 C 0.55304 0.8617 0.81371 0.0
C318 C 0.58026 0.89328 0.82357 0.0
C319 C 0.54833 0.8263 0.81642 0.0
C320 C 0.602 0.78235 0.8312 0.0
H321 H 0.61483 0.63427 0.8091 0.0
H322 H 0.61107 0.69236 0.8096 0.0
H323 H 0.62716 0.74692 0.83192 0.0
H324 H 0.62181 0.91248 0.84501 0.0
H325 H 0.61339 0.85089 0.84987 0.0
H326 H 0.51177 0.75379 0.82829 0.0
C327 C 0.5937 0.67194 0.81792 0.0
C328 C 0.60175 0.74797 0.83109 0.0
C329 C 0.59578 0.63864 0.81758 0.0
C330 C 0.60105 0.88866 0.83698 0.0
C331 C 0.59628 0.8534 0.83973 0.0
C332 C 0.53709 0.75256 0.82909 0.0
C333 C 0.56961 0.67889 0.82886 0.0
C334 C 0.56924 0.71536 0.82983 0.0
C335 C 0.5707 0.82187 0.82907 0.0
C336 C 0.56972 0.78511 0.83006 0.0
H337 H 0.53235 0.59761 0.84738 0.0
H338 H 0.52834 0.65599 0.84782 0.0
H339 H 0.51137 0.69332 0.82804 0.0
H340 H 0.53675 0.86441 0.80321 0.0
H341 H 0.5285 0.80261 0.80793 0.0
C342 C 0.94869 0.54797 0.16397 0.0
C343 C 0.95867 0.52351 0.15366 0.0
C344 C 0.91367 0.54413 0.1623 0.0
C345 C 0.82969 0.49744 0.13185 0.0
H346 H 0.7872 0.52593 0.17285 0.0
C347 C 0.67847 0.46034 0.13204 0.0
C348 C 0.66919 0.4884 0.13867 0.0
C349 C 0.71382 0.46541 0.13395 0.0
C350 C 0.79879 0.51814 0.16122 0.0
H351 H 0.93949 0.47567 0.13352 0.0
H352 H 0.87819 0.46771 0.1312 0.0
H353 H 0.84777 0.532 0.17624 0.0
H354 H 0.69015 0.54386 0.15266 0.0
H355 H 0.75199 0.55253 0.15631 0.0
H356 H 0.78009 0.48256 0.11705 0.0
C357 C 0.89748 0.49066 0.14026 0.0
C358 C 0.83372 0.52173 0.16312 0.0
C359 C 0.93267 0.49488 0.14175 0.0
C360 C 0.69634 0.52171 0.14737 0.0
C361 C 0.73172 0.52657 0.14955 0.0
C362 C 0.79462 0.49336 0.13005 0.0
C363 C 0.88737 0.51539 0.15041 0.0
C364 C 0.84984 0.51146 0.14846 0.0
C365 C 0.74096 0.49854 0.14276 0.0
C366 C 0.77866 0.50364 0.1447 0.0
H367 H 0.96814 0.57049 0.17319 0.0
H368 H 0.90752 0.56425 0.17014 0.0
H369 H 0.84107 0.48999 0.12007 0.0
H370 H 0.65841 0.4345 0.12507 0.0
H371 H 0.71986 0.44315 0.12867 0.0
C372 C 0.38218 0.87584 0.51091 0.0
C373 C 0.37897 0.90886 0.51316 0.0
C374 C 0.35162 0.8417 0.50915 0.0
C375 C 0.25661 0.79866 0.49436 0.0
H376 H 0.25339 0.71519 0.51641 0.0
C377 C 0.13518 0.6538 0.48171 0.0
C378 C 0.14349 0.62397 0.47829 0.0
C379 C 0.16179 0.689 0.48836 0.0
C380 C 0.25395 0.73817 0.51007 0.0
H381 H 0.34163 0.93237 0.51572 0.0
H382 H 0.28799 0.87252 0.51257 0.0
H383 H 0.30409 0.77619 0.5238 0.0
H384 H 0.18628 0.60775 0.47916 0.0
H385 H 0.23258 0.66893 0.49061 0.0
H386 H 0.20708 0.76055 0.48021 0.0
C387 C 0.31412 0.87305 0.51209 0.0
C388 C 0.28296 0.7731 0.51434 0.0
C389 C 0.34475 0.90724 0.51397 0.0
C390 C 0.17884 0.62997 0.48195 0.0
C391 C 0.20541 0.6651 0.48854 0.0
C392 C 0.22766 0.76368 0.49004 0.0
C393 C 0.31724 0.83992 0.5095 0.0
C394 C 0.28489 0.8036 0.5063 0.0
C395 C 0.19731 0.69513 0.49169 0.0
C396 C 0.22629 0.73289 0.4976 0.0
H397 H 0.4083 0.87637 0.51022 0.0
H398 H 0.3549 0.81669 0.50695 0.0
H399 H 0.25753 0.82154 0.48779 0.0
H400 H 0.10809 0.64994 0.47923 0.0
H401 H 0.15456 0.71142 0.49087 0.0
C402 C 0.54501 0.40645 0.81618 0.0
C403 C 0.5221 0.41305 0.82805 0.0
C404 C 0.55102 0.37551 0.81686 0.0
C405 C 0.51297 0.2835 0.83405 0.0
H406 H 0.60471 0.28858 0.82106 0.0
C407 C 0.55431 0.16412 0.83654 0.0
C408 C 0.56543 0.1546 0.81992 0.0
C409 C 0.54891 0.19583 0.83925 0.0
C410 C 0.57901 0.28686 0.82476 0.0
H411 H 0.48793 0.39314 0.85017 0.0
H412 H 0.49929 0.33965 0.85186 0.0
H413 H 0.59643 0.34437 0.82316 0.0
H414 H 0.58032 0.17089 0.7933 0.0
H415 H 0.57166 0.22652 0.79818 0.0
H416 H 0.49608 0.22584 0.83592 0.0
C417 C 0.51194 0.3577 0.84166 0.0
C418 C 0.57408 0.31872 0.82583 0.0
C419 C 0.50554 0.38843 0.84077 0.0
C420 C 0.57132 0.17737 0.80616 0.0
C421 C 0.56666 0.20931 0.80899 0.0
C422 C 0.51816 0.25174 0.83329 0.0
C423 C 0.53465 0.35069 0.82964 0.0
C424 C 0.54074 0.31735 0.83007 0.0
C425 C 0.55548 0.21887 0.82554 0.0
C426 C 0.55098 0.25303 0.82827 0.0
H427 H 0.55776 0.42483 0.80609 0.0
H428 H 0.56799 0.37074 0.80709 0.0
H429 H 0.48679 0.28113 0.83714 0.0
H430 H 0.54971 0.147 0.84736 0.0
H431 H 0.54032 0.20277 0.85214 0.0
C432 C 0.51383 0.93901 0.50649 0.0
C433 C 0.53682 0.96926 0.5187 0.0
C434 C 0.51062 0.90357 0.50781 0.0
C435 C 0.52885 0.84857 0.53959 0.0
H436 H 0.52964 0.78769 0.49627 0.0
C437 C 0.56953 0.73164 0.54105 0.0
C438 C 0.55045 0.6984 0.52971 0.0
C439 C 0.56277 0.76194 0.5398 0.0
C440 C 0.52882 0.80408 0.50848 0.0
H441 H 0.57457 0.98638 0.54176 0.0
H442 H 0.56955 0.92503 0.54393 0.0
H443 H 0.5272 0.84592 0.49383 0.0
H444 H 0.50894 0.67076 0.50829 0.0
H445 H 0.49713 0.7241 0.50603 0.0
H446 H 0.53148 0.80731 0.55425 0.0
C447 C 0.55338 0.92824 0.53354 0.0
C448 C 0.5274 0.83747 0.50708 0.0
C449 C 0.55654 0.96352 0.53221 0.0
C450 C 0.52398 0.69599 0.51724 0.0
C451 C 0.51742 0.72657 0.51586 0.0
C452 C 0.5304 0.81535 0.54098 0.0
C453 C 0.53041 0.89777 0.52137 0.0
C454 C 0.52819 0.86052 0.52265 0.0
C455 C 0.53684 0.75992 0.52712 0.0
C456 C 0.53117 0.79309 0.52546 0.0
H457 H 0.49869 0.9428 0.49579 0.0
H458 H 0.49256 0.88071 0.49827 0.0
H459 H 0.52864 0.86517 0.55185 0.0
H460 H 0.5898 0.73424 0.55094 0.0
H461 H 0.57848 0.78731 0.54854 0.0
C462 C 0.6855 0.48316 0.82319 0.0
C463 C 0.67794 0.50684 0.83553 0.0
C464 C 0.71913 0.48364 0.82402 0.0
C465 C 0.79951 0.51187 0.8537 0.0
H466 H 0.85261 0.53569 0.8105 0.0
C467 C 0.95296 0.60119 0.8378 0.0
C468 C 0.96977 0.58769 0.84928 0.0
C469 C 0.91612 0.5817 0.83357 0.0
C470 C 0.83797 0.52866 0.82259 0.0
H471 H 0.6984 0.54822 0.85883 0.0
H472 H 0.75689 0.54869 0.86048 0.0
H473 H 0.78833 0.51799 0.80913 0.0
H474 H 0.96148 0.54243 0.86472 0.0
H475 H 0.89732 0.50836 0.85716 0.0
H476 H 0.84922 0.52428 0.86741 0.0
C477 C 0.73702 0.52986 0.85016 0.0
C478 C 0.80123 0.51825 0.82178 0.0
C479 C 0.70371 0.52978 0.84915 0.0
C480 C 0.94938 0.55343 0.8557 0.0
C481 C 0.9126 0.53403 0.85151 0.0
C482 C 0.83608 0.52194 0.85448 0.0
C483 C 0.74525 0.50731 0.83742 0.0
C484 C 0.78203 0.51104 0.83748 0.0
C485 C 0.89546 0.54849 0.84082 0.0
C486 C 0.85589 0.5316 0.83907 0.0
H487 H 0.66591 0.46522 0.81256 0.0
H488 H 0.72493 0.46599 0.81409 0.0
H489 H 0.78515 0.5062 0.86595 0.0
H490 H 0.96811 0.62731 0.83252 0.0
H491 H 0.90354 0.59367 0.82542 0.0
C492 C 0.1555 0.67112 0.1535 0.0
C493 C 0.15619 0.63851 0.15752 0.0
C494 C 0.18715 0.70438 0.15484 0.0
C495 C 0.28599 0.74158 0.15678 0.0
H496 H 0.28574 0.82977 0.18182 0.0
C497 C 0.39261 0.88304 0.20039 0.0
C498 C 0.42224 0.89247 0.18961 0.0
C499 C 0.3587 0.85603 0.19372 0.0
C500 C 0.28622 0.80539 0.17476 0.0
H501 H 0.19013 0.6147 0.16588 0.0
H502 H 0.24521 0.6726 0.16839 0.0
H503 H 0.22934 0.77346 0.17542 0.0
H504 H 0.43915 0.88289 0.16301 0.0
H505 H 0.37981 0.83584 0.1513 0.0
H506 H 0.3429 0.77273 0.15689 0.0
C507 C 0.22049 0.6726 0.16398 0.0
C508 C 0.25388 0.77325 0.17094 0.0
C509 C 0.18892 0.6395 0.16269 0.0
C510 C 0.41691 0.87571 0.17172 0.0
C511 C 0.38295 0.84878 0.16503 0.0
C512 C 0.31826 0.77364 0.16061 0.0
C513 C 0.21998 0.70545 0.16013 0.0
C514 C 0.25355 0.74075 0.1623 0.0
C515 C 0.35366 0.83794 0.17611 0.0
C516 C 0.31887 0.80568 0.17001 0.0
H517 H 0.13053 0.67097 0.14943 0.0
H518 H 0.18597 0.72918 0.15166 0.0
H519 H 0.28653 0.71713 0.14986 0.0
H520 H 0.39593 0.89515 0.21429 0.0
H521 H 0.33687 0.84803 0.2027 0.0
C522 C 0.4638 0.12262 0.49807 0.0
C523 C 0.47937 0.11367 0.51226 0.0
C524 C 0.46856 0.15886 0.49775 0.0
C525 C 0.52462 0.25587 0.51948 0.0
H526 H 0.44846 0.27306 0.49939 0.0
C527 C 0.51605 0.39343 0.53362 0.0
C528 C 0.51751 0.41117 0.51826 0.0
C529 C 0.51006 0.35662 0.5319 0.0
C530 C 0.46995 0.26854 0.50494 0.0
H531 H 0.51154 0.13509 0.53738 0.0
H532 H 0.51848 0.19765 0.53739 0.0
H533 H 0.44097 0.20983 0.4986 0.0
H534 H 0.51272 0.40404 0.48909 0.0
H535 H 0.50081 0.33872 0.4861 0.0
H536 H 0.55266 0.31463 0.52659 0.0
C537 C 0.5037 0.1774 0.52608 0.0
C538 C 0.46587 0.23236 0.5044 0.0
C539 C 0.4995 0.14139 0.52619 0.0
C540 C 0.51156 0.39092 0.50113 0.0
C541 C 0.50475 0.35371 0.49942 0.0
C542 C 0.5283 0.29185 0.52035 0.0
C543 C 0.48845 0.18681 0.51181 0.0
C544 C 0.49309 0.22544 0.51177 0.0
C545 C 0.50473 0.33657 0.5148 0.0
C546 C 0.50097 0.29846 0.51317 0.0
H547 H 0.44835 0.10172 0.48709 0.0
H548 H 0.45692 0.16495 0.48636 0.0
H549 H 0.54667 0.25207 0.52485 0.0
H550 H 0.52107 0.40853 0.54698 0.0
H551 H 0.51009 0.3439 0.54394 0.0
C552 C 0.42324 0.55844 0.81894 0.0
C553 C 0.41933 0.52221 0.81699 0.0
C554 C 0.39342 0.56484 0.81699 0.0
C555 C 0.29856 0.52017 0.82425 0.0
H556 H 0.30362 0.61019 0.80855 0.0
C557 C 0.21605 0.61325 0.83138 0.0
C558 C 0.21297 0.61418 0.85014 0.0
C559 C 0.23581 0.59682 0.82274 0.0
C560 C 0.3014 0.58454 0.81265 0.0
H561 H 0.38193 0.46428 0.81052 0.0
H562 H 0.3294 0.47543 0.80717 0.0
H563 H 0.34898 0.5902 0.79976 0.0
H564 H 0.22904 0.59963 0.87459 0.0
H565 H 0.26305 0.57086 0.85956 0.0
H566 H 0.25185 0.51529 0.83772 0.0
C567 C 0.35549 0.49885 0.81032 0.0
C568 C 0.32748 0.57326 0.80776 0.0
C569 C 0.38544 0.49247 0.81226 0.0
C570 C 0.23022 0.59866 0.86008 0.0
C571 C 0.24962 0.58206 0.85146 0.0
C572 C 0.27255 0.53144 0.82913 0.0
C573 C 0.35911 0.53508 0.81306 0.0
C574 C 0.32722 0.54191 0.81423 0.0
C575 C 0.25248 0.58081 0.83272 0.0
C576 C 0.27474 0.56463 0.82409 0.0
H577 H 0.4492 0.58186 0.8225 0.0
H578 H 0.39707 0.59301 0.81949 0.0
H579 H 0.29762 0.49595 0.8295 0.0
H580 H 0.20272 0.62464 0.82334 0.0
H581 H 0.23776 0.59627 0.80827 0.0
C582 C 0.88416 0.37033 0.15939 0.0
C583 C 0.91054 0.36718 0.14882 0.0
C584 C 0.85245 0.33907 0.16178 0.0
C585 C 0.81549 0.23759 0.15974 0.0
H586 H 0.72636 0.24367 0.16715 0.0
C587 C 0.68547 0.1127 0.17579 0.0
C588 C 0.6694 0.11988 0.1912 0.0
C589 C 0.71232 0.14177 0.16804 0.0
C590 C 0.75109 0.24162 0.1651 0.0
H591 H 0.92416 0.32935 0.13189 0.0
H592 H 0.86816 0.27453 0.13564 0.0
H593 H 0.77796 0.29629 0.15745 0.0
H594 H 0.66776 0.16296 0.21021 0.0
H595 H 0.71454 0.21393 0.19655 0.0
H596 H 0.78841 0.18284 0.16741 0.0
C597 C 0.87229 0.30105 0.14245 0.0
C598 C 0.7807 0.27176 0.15961 0.0
C599 C 0.90425 0.3324 0.14019 0.0
C600 C 0.67987 0.15671 0.19839 0.0
C601 C 0.70639 0.18581 0.1905 0.0
C602 C 0.78573 0.20731 0.16501 0.0
C603 C 0.84621 0.30394 0.15349 0.0
C604 C 0.81354 0.27045 0.15727 0.0
C605 C 0.72325 0.17858 0.17542 0.0
C606 C 0.7535 0.20932 0.1681 0.0
H607 H 0.88841 0.39688 0.16623 0.0
H608 H 0.83339 0.34239 0.17063 0.0
H609 H 0.8404 0.23569 0.15834 0.0
H610 H 0.67807 0.08453 0.17007 0.0
H611 H 0.72479 0.13549 0.15638 0.0
C612 C 0.07718 0.53169 0.08942 0.0
C613 C 0.04462 0.5055 0.09522 0.0
C614 C 0.08066 0.53821 0.07145 0.0
C615 C 0.02708 0.53164 0.03106 0.0
H616 H 0.11871 0.56173 0.00932 0.0
C617 C 0.05529 0.58066 0.95984 0.0
C618 C 0.0863 0.61442 0.95931 0.0
C619 C 0.04833 0.56247 0.97529 0.0
C620 C 0.09298 0.55337 0.01524 0.0
H621 H 0.99053 0.46447 0.08648 0.0
H622 H 0.99679 0.47564 0.0548 0.0
H623 H 0.1096 0.53563 0.03788 0.0
H624 H 0.13387 0.65575 0.97487 0.0
H625 H 0.12212 0.62344 0.00161 0.0
H626 H 0.01069 0.54967 0.00831 0.0
C627 C 0.01945 0.49148 0.06434 0.0
C628 C 0.08773 0.53847 0.03159 0.0
C629 C 0.01593 0.48493 0.08244 0.0
C630 C 0.1101 0.62952 0.97464 0.0
C631 C 0.10337 0.61108 0.98998 0.0
C632 C 0.03222 0.54618 0.01456 0.0
C633 C 0.05176 0.51859 0.05871 0.0
C634 C 0.05512 0.52852 0.03999 0.0
C635 C 0.07249 0.57736 0.99043 0.0
C636 C 0.06557 0.55816 0.00679 0.0
H637 H 0.09994 0.54798 0.09885 0.0
H638 H 0.10573 0.55973 0.06772 0.0
H639 H 1.00175 0.52458 0.03722 0.0
H640 H 0.03669 0.56779 0.94819 0.0
H641 H 0.02445 0.53639 0.97528 0.0
C642 C 0.53103 0.06529 0.44946 0.0
C643 C 0.50581 0.03542 0.45769 0.0
C644 C 0.53243 0.06306 0.4307 0.0
C645 C 0.50974 0.99478 0.39069 0.0
H646 H 0.52499 0.07737 0.36437 0.0
C647 C 0.51047 0.98093 0.31343 0.0
C648 C 0.53713 0.0105 0.30567 0.0
C649 C 0.50408 0.98483 0.33166 0.0
C650 C 0.52106 0.05418 0.37154 0.0
H651 H 0.46168 0.98009 0.45257 0.0
H652 H 0.46416 0.97629 0.4199 0.0
H653 H 0.51859 0.08266 0.39688 0.0
H654 H 0.57752 0.0676 0.31083 0.0
H655 H 0.56677 0.07436 0.3428 0.0
H656 H 0.51289 0.9665 0.36556 0.0
C657 C 0.48308 0.00129 0.42798 0.0
C658 C 0.51734 0.0572 0.39016 0.0
C659 C 0.48156 0.00357 0.44672 0.0
C660 C 0.55661 0.04443 0.31642 0.0
C661 C 0.55038 0.04829 0.33472 0.0
C662 C 0.51361 0.99182 0.37214 0.0
C663 C 0.50875 0.03085 0.41977 0.0
C664 C 0.5117 0.02754 0.39993 0.0
C665 C 0.52438 0.01835 0.34262 0.0
C666 C 0.51937 0.02147 0.36232 0.0
H667 H 0.55005 0.09031 0.45748 0.0
H668 H 0.55272 0.08618 0.42479 0.0
H669 H 0.50607 0.97168 0.39788 0.0
H670 H 0.49457 0.95466 0.30538 0.0
H671 H 0.4833 0.96147 0.33719 0.0
C672 C 0.59029 0.53873 0.76471 0.0
C673 C 0.55632 0.52102 0.77167 0.0
C674 C 0.59354 0.54519 0.74665 0.0
C675 C 0.54057 0.547 0.70661 0.0
H676 H 0.621 0.54654 0.68103 0.0
C677 C 0.54981 0.53777 0.62896 0.0
C678 C 0.5805 0.56599 0.62279 0.0
C679 C 0.54689 0.53408 0.64734 0.0
C680 C 0.59857 0.54697 0.68809 0.0
H681 H 0.49911 0.49527 0.76514 0.0
H682 H 0.5046 0.50459 0.73343 0.0
H683 H 0.61538 0.53467 0.71246 0.0
H684 H 0.63219 0.61237 0.63071 0.0
H685 H 0.62761 0.6051 0.663 0.0
H686 H 0.52308 0.55751 0.68175 0.0
C687 C 0.52888 0.51494 0.74198 0.0
C688 C 0.59537 0.54039 0.70614 0.0
C689 C 0.52565 0.50924 0.76015 0.0
C690 C 0.60825 0.59052 0.63524 0.0
C691 C 0.6057 0.58629 0.6536 0.0
C692 C 0.54341 0.55276 0.68845 0.0
C693 C 0.56288 0.53336 0.73499 0.0
C694 C 0.56633 0.54035 0.7157 0.0
C695 C 0.57498 0.55804 0.65977 0.0
C696 C 0.57245 0.55287 0.67908 0.0
H697 H 0.61441 0.54856 0.77336 0.0
H698 H 0.62019 0.56013 0.74197 0.0
H699 H 0.5183 0.5481 0.71352 0.0
H700 H 0.52809 0.51862 0.61954 0.0
H701 H 0.52305 0.51201 0.65181 0.0
C702 C 0.53577 0.07458 0.58286 0.0
C703 C 0.5151 0.04203 0.57137 0.0
C704 C 0.54278 0.07304 0.60096 0.0
C705 C 0.5152 0.01142 0.63739 0.0
H706 H 0.61104 0.07821 0.65754 0.0
C707 C 0.5723 0.99934 0.70605 0.0
C708 C 0.58982 0.03257 0.71765 0.0
C709 C 0.56223 -0.0003 0.68822 0.0
C710 C 0.5841 0.05956 0.65213 0.0
H711 H 0.48492 0.98235 0.56994 0.0
H712 H 0.49783 0.97954 0.60141 0.0
H713 H 0.59437 0.08046 0.62662 0.0
H714 H 0.60965 0.09216 0.71953 0.0
H715 H 0.59301 0.09272 0.68839 0.0
H716 H 0.50543 0.99009 0.66296 0.0
C717 C 0.50806 0.00638 0.59657 0.0
C718 C 0.57443 0.06095 0.63443 0.0
C719 C 0.5007 0.00797 0.57849 0.0
C720 C 0.59706 0.0661 0.71093 0.0
C721 C 0.58735 0.06646 0.69309 0.0
C722 C 0.52504 0.00979 0.65508 0.0
C723 C 0.5297 0.03886 0.60796 0.0
C724 C 0.53977 0.03711 0.62686 0.0
C725 C 0.56978 0.0333 0.68156 0.0
C726 C 0.55952 0.03403 0.66264 0.0
H727 H 0.54698 0.10129 0.57782 0.0
H728 H 0.55879 0.0987 0.60942 0.0
H729 H 0.48816 0.99293 0.6321 0.0
H730 H 0.56664 0.97304 0.71069 0.0
H731 H 0.54901 0.97375 0.67956 0.0
C732 C 0.56947 0.51053 0.89415 0.0
C733 C 0.53883 0.50501 0.88391 0.0
C734 C 0.56841 0.50882 0.91272 0.0
C735 C 0.51414 0.51003 0.95212 0.0
H736 H 0.57123 0.47002 0.97397 0.0
C737 C 0.52751 0.51232 0.02948 0.0
C738 C 0.53008 0.48242 0.03601 0.0
C739 C 0.52877 0.51578 0.01102 0.0
C740 C 0.55473 0.48086 0.96812 0.0
H741 H 0.48294 0.49314 0.88514 0.0
H742 H 0.48062 0.48874 0.91746 0.0
H743 H 0.57168 0.47323 0.94178 0.0
H744 H 0.53493 0.43215 0.02835 0.0
H745 H 0.53595 0.43735 0.9962 0.0
H746 H 0.49586 0.51596 0.97839 0.0
C747 C 0.50583 0.49544 0.91126 0.0
C748 C 0.55547 0.48331 0.94961 0.0
C749 C 0.50706 0.49773 0.89268 0.0
C750 C 0.53351 0.45583 0.02372 0.0
C751 C 0.53424 0.45896 0.00527 0.0
C752 C 0.51303 0.50712 0.97063 0.0
C753 C 0.53651 0.50091 0.92154 0.0
C754 C 0.53531 0.49806 0.94132 0.0
C755 C 0.53208 0.48909 0.99863 0.0
C756 C 0.53334 0.49251 0.97891 0.0
H757 H 0.59453 0.51665 0.88785 0.0
H758 H 0.59284 0.51408 0.92016 0.0
H759 H 0.4986 0.522 0.94633 0.0
H760 H 0.52506 0.53333 0.0387 0.0
H761 H 0.52763 0.53969 0.00652 0.0
C762 C 0.05933 0.52316 0.21995 0.0
C763 C 0.03219 0.49583 0.20801 0.0
C764 C 0.05781 0.52159 0.23852 0.0
C765 C 0.01589 0.45737 0.27259 0.0
H766 H 0.04727 0.54837 0.30489 0.0
C767 C 1.00138 0.45937 0.34961 0.0
C768 C 0.03164 0.48491 0.36046 0.0
C769 C 0.9999 0.46073 0.33102 0.0
C770 C 0.03865 0.52276 0.29604 0.0
H771 H 0.98197 0.44548 0.20629 0.0
H772 H 0.97904 0.44309 0.23875 0.0
H773 H 0.04718 0.55044 0.27241 0.0
H774 H 0.08368 0.53241 0.3604 0.0
H775 H 0.08114 0.53473 0.32794 0.0
H776 H 0.00725 0.42975 0.2963 0.0
C777 C 1.00183 0.46542 0.23371 0.0
C778 C 0.03866 0.52393 0.27742 0.0
C779 C 1.00344 0.46689 0.21509 0.0
C780 C 0.06015 0.51216 0.35236 0.0
C781 C 0.05855 0.5137 0.33381 0.0
C782 C 0.01569 0.4562 0.29122 0.0
C783 C 0.02901 0.49279 0.24565 0.0
C784 C 0.02761 0.49129 0.26546 0.0
C785 C 0.02851 0.48786 0.32292 0.0
C786 C 0.02736 0.48892 0.30314 0.0
H787 H 0.08201 0.54574 0.21498 0.0
H788 H 0.07954 0.54276 0.24728 0.0
H789 H 0.00768 0.43177 0.26378 0.0
H790 H 0.97913 0.43788 0.35545 0.0
H791 H 0.97628 0.44065 0.323 0.0
loop_
_geom_bond_atom_site_label_1
_geom_bond_atom_site_label_2
_geom_bond_distance
_geom_bond_site_symmetry_2
_ccdc_geom_bond_type
Tb0 O3 2.453 1_455 S
Tb0 O4 2.596 1_455 S
Tb0 O5 2.374 . S
Tb0 O13 2.343 . S
Tb0 O15 2.353 . S
Tb0 O17 2.427 . S
Tb0 O18 2.513 . S
C1 O5 1.251 . S
C1 O7 1.263 . S
Tb2 O4 2.343 1_455 S
Tb2 O7 2.353 . S
Tb2 O10 2.427 1_455 S
Tb2 O11 2.513 1_455 S
Tb2 O12 2.453 . S
Tb2 O13 2.596 . S
Tb2 O14 2.374 . S
O3 Tb0 2.453 1_655 S
O3 C19 1.245 . S
O4 Tb0 2.596 1_655 S
O4 Tb2 2.343 1_655 S
O4 C19 1.259 . S
O5 Tb0 2.374 . S
O5 C1 1.251 . S
C6 O10 1.275 . S
C6 O11 1.246 . S
O7 C1 1.263 . S
O7 Tb2 2.353 . S
C8 O12 1.245 . S
C8 O13 1.259 . S
C9 O14 1.250 . S
C9 O15 1.263 . S
O10 Tb2 2.427 1_655 S
O10 C6 1.275 . S
O11 Tb2 2.513 1_655 S
O11 C6 1.246 . S
O12 Tb2 2.453 . S
O12 C8 1.245 . S
O13 Tb0 2.343 . S
O13 Tb2 2.596 . S
O13 C8 1.259 . S
O14 Tb2 2.374 . S
O14 C9 1.250 . S
O15 Tb0 2.353 . S
O15 C9 1.263 . S
C16 O17 1.275 . S
C16 O18 1.246 . S
O17 Tb0 2.427 . S
O17 C16 1.275 . S
O18 Tb0 2.513 . S
O18 C16 1.246 . S
C19 O3 1.245 . S
C19 O4 1.259 . S
Tb20 O23 2.453 . S
Tb20 O24 2.596 . S
Tb20 O25 2.374 . S
Tb20 O33 2.343 1_545 S
Tb20 O35 2.353 . S
Tb20 O37 2.427 1_545 S
Tb20 O38 2.513 1_545 S
C21 O25 1.251 . S
C21 O27 1.263 . S
Tb22 O24 2.343 . S
Tb22 O27 2.353 . S
Tb22 O30 2.427 . S
Tb22 O31 2.513 . S
Tb22 O32 2.453 1_545 S
Tb22 O33 2.596 1_545 S
Tb22 O34 2.374 . S
O23 Tb20 2.453 . S
O23 C39 1.245 . S
O24 Tb20 2.596 . S
O24 Tb22 2.343 . S
O24 C39 1.259 . S
O25 Tb20 2.374 . S
O25 C21 1.251 . S
C26 O30 1.275 . S
C26 O31 1.246 . S
O27 C21 1.263 . S
O27 Tb22 2.353 . S
C28 O32 1.245 . S
C28 O33 1.259 . S
C29 O34 1.250 . S
C29 O35 1.263 . S
O30 Tb22 2.427 . S
O30 C26 1.275 . S
O31 Tb22 2.513 . S
O31 C26 1.246 . S
O32 Tb22 2.453 1_565 S
O32 C28 1.245 . S
O33 Tb20 2.343 1_565 S
O33 Tb22 2.596 1_565 S
O33 C28 1.259 . S
O34 Tb22 2.374 . S
O34 C29 1.250 . S
O35 Tb20 2.353 . S
O35 C29 1.263 . S
C36 O37 1.275 . S
C36 O38 1.246 . S
O37 Tb20 2.427 1_565 S
O37 C36 1.275 . S
O38 Tb20 2.513 1_565 S
O38 C36 1.246 . S
C39 O23 1.245 . S
C39 O24 1.259 . S
Tb40 O43 2.453 . S
Tb40 O44 2.596 . S
Tb40 O45 2.374 . S
Tb40 O53 2.343 . S
Tb40 O55 2.353 . S
Tb40 O57 2.427 . S
Tb40 O58 2.513 . S
C41 O45 1.251 . S
C41 O47 1.263 . S
Tb42 O44 2.343 . S
Tb42 O47 2.353 . S
Tb42 O50 2.427 . S
Tb42 O51 2.513 . S
Tb42 O52 2.453 . S
Tb42 O53 2.596 . S
Tb42 O54 2.374 . S
O43 Tb40 2.453 . S
O43 C59 1.245 . S
O44 Tb40 2.596 . S
O44 Tb42 2.343 . S
O44 C59 1.259 . S
O45 Tb40 2.374 . S
O45 C41 1.251 . S
C46 O50 1.275 . S
C46 O51 1.246 . S
O47 C41 1.263 . S
O47 Tb42 2.353 . S
C48 O52 1.245 . S
C48 O53 1.259 . S
C49 O54 1.250 . S
C49 O55 1.263 . S
O50 Tb42 2.427 . S
O50 C46 1.275 . S
O51 Tb42 2.513 . S
O51 C46 1.246 . S
O52 Tb42 2.453 . S
O52 C48 1.245 . S
O53 Tb40 2.343 . S
O53 Tb42 2.596 . S
O53 C48 1.259 . S
O54 Tb42 2.374 . S
O54 C49 1.250 . S
O55 Tb40 2.353 . S
O55 C49 1.263 . S
C56 O57 1.275 . S
C56 O58 1.246 . S
O57 Tb40 2.427 . S
O57 C56 1.275 . S
O58 Tb40 2.513 . S
O58 C56 1.246 . S
C59 O43 1.245 . S
C59 O44 1.259 . S
P60 O71 1.490 1_545 S
P60 C74 1.812 1_545 S
P60 C80 1.803 . S
P60 C86 1.819 . S
H61 C75 0.941 . S
H62 C76 0.939 . S
H63 C78 0.940 . S
H64 C79 0.940 1_545 S
H65 C81 0.939 . S
H66 C82 0.942 . S
H67 C84 0.940 . S
H68 C85 0.939 . S
H69 C87 0.921 1_565 S
H70 C91 0.939 . S
O71 P60 1.490 1_565 S
H72 C88 0.939 1_565 S
H73 C90 0.940 . S
C74 P60 1.812 1_565 S
C74 C75 1.389 . S
C74 C79 1.391 . S
C75 H61 0.941 . S
C75 C74 1.389 . S
C75 C76 1.397 . S
C76 H62 0.939 . S
C76 C75 1.397 . S
C76 C77 1.378 . S
C77 C76 1.378 . S
C77 C78 1.378 . S
C78 H63 0.940 . S
C78 C77 1.378 . S
C78 C79 1.396 . S
C79 H64 0.940 1_565 S
C79 C74 1.391 . S
C79 C78 1.396 . S
C80 P60 1.803 . S
C80 C81 1.378 . S
C80 C85 1.400 . S
C81 H65 0.939 . S
C81 C80 1.378 . S
C81 C82 1.361 . S
C82 H66 0.942 . S
C82 C81 1.361 . S
C82 C83 1.369 . S
C83 C82 1.369 . S
C83 C84 1.404 . S
C84 H67 0.940 . S
C84 C83 1.404 . S
C84 C85 1.389 . S
C85 H68 0.939 . S
C85 C80 1.400 . S
C85 C84 1.389 . S
C86 P60 1.819 . S
C86 C87 1.406 . S
C86 C91 1.391 . S
C87 H69 0.921 1_545 S
C87 C86 1.406 . S
C87 C88 1.403 . S
C88 H72 0.939 1_545 S
C88 C87 1.403 . S
C88 C89 1.397 . S
C89 C88 1.397 . S
C89 C90 1.385 . S
C90 H73 0.940 . S
C90 C89 1.385 . S
C90 C91 1.388 . S
C91 H70 0.939 . S
C91 C86 1.391 . S
C91 C90 1.388 . S
P92 O103 1.490 . S
P92 C106 1.812 . S
P92 C112 1.803 . S
P92 C118 1.819 . S
H93 C107 0.941 . S
H94 C108 0.939 . S
H95 C110 0.940 . S
H96 C111 0.940 . S
H97 C113 0.939 . S
H98 C114 0.942 . S
H99 C116 0.940 . S
H100 C117 0.939 . S
H101 C119 0.941 . S
H102 C123 0.939 . S
O103 P92 1.490 . S
H104 C120 0.939 . S
H105 C122 0.940 . S
C106 P92 1.812 . S
C106 C107 1.389 . S
C106 C111 1.391 . S
C107 H93 0.941 . S
C107 C106 1.389 . S
C107 C108 1.397 . S
C108 H94 0.939 . S
C108 C107 1.397 . S
C108 C109 1.378 . S
C109 C108 1.378 . S
C109 C110 1.378 . S
C110 H95 0.940 . S
C110 C109 1.378 . S
C110 C111 1.396 . S
C111 H96 0.940 . S
C111 C106 1.391 . S
C111 C110 1.396 . S
C112 P92 1.803 . S
C112 C113 1.378 . S
C112 C117 1.400 . S
C113 H97 0.939 . S
C113 C112 1.378 . S
C113 C114 1.361 . S
C114 H98 0.942 . S
C114 C113 1.361 . S
C114 C115 1.369 . S
C115 C114 1.369 . S
C115 C116 1.404 . S
C116 H99 0.940 . S
C116 C115 1.404 . S
C116 C117 1.389 . S
C117 H100 0.939 . S
C117 C112 1.400 . S
C117 C116 1.389 . S
C118 P92 1.819 . S
C118 C119 1.391 . S
C118 C123 1.391 . S
C119 H101 0.941 . S
C119 C118 1.391 . S
C119 C120 1.396 . S
C120 H104 0.939 . S
C120 C119 1.396 . S
C120 C121 1.397 . S
C121 C120 1.397 . S
C121 C122 1.385 . S
C122 H105 0.940 . S
C122 C121 1.385 . S
C122 C123 1.388 . S
C123 H102 0.939 . S
C123 C118 1.391 . S
C123 C122 1.388 . S
P124 O135 1.490 . S
P124 C138 1.812 . S
P124 C144 1.803 . S
P124 C150 1.819 . S
H125 C139 0.941 . S
H126 C140 0.939 . S
H127 C142 0.940 . S
H128 C143 0.940 . S
H129 C145 0.939 . S
H130 C146 0.942 1_655 S
H131 C148 0.940 1_655 S
H132 C149 0.939 . S
H133 C151 0.941 . S
H134 C155 0.939 . S
O135 P124 1.490 . S
H136 C152 0.939 . S
H137 C154 0.940 . S
C138 P124 1.812 . S
C138 C139 1.389 . S
C138 C143 1.391 . S
C139 H125 0.941 . S
C139 C138 1.389 . S
C139 C140 1.397 . S
C140 H126 0.939 . S
C140 C139 1.397 . S
C140 C141 1.378 . S
C141 C140 1.378 . S
C141 C142 1.378 . S
C142 H127 0.940 . S
C142 C141 1.378 . S
C142 C143 1.396 . S
C143 H128 0.940 . S
C143 C138 1.391 . S
C143 C142 1.396 . S
C144 P124 1.803 . S
C144 C145 1.378 . S
C144 C149 1.400 . S
C145 H129 0.939 . S
C145 C144 1.378 . S
C145 C146 1.361 . S
C146 H130 0.942 1_455 S
C146 C145 1.361 . S
C146 C147 1.369 1_455 S
C147 C146 1.369 1_655 S
C147 C148 1.404 1_655 S
C148 H131 0.940 1_455 S
C148 C147 1.404 1_455 S
C148 C149 1.389 . S
C149 H132 0.939 . S
C149 C144 1.400 . S
C149 C148 1.389 . S
C150 P124 1.819 . S
C150 C151 1.391 . S
C150 C155 1.391 . S
C151 H133 0.941 . S
C151 C150 1.391 . S
C151 C152 1.396 . S
C152 H136 0.939 . S
C152 C151 1.396 . S
C152 C153 1.397 . S
C153 C152 1.397 . S
C153 C154 1.385 . S
C154 H137 0.940 . S
C154 C153 1.385 . S
C154 C155 1.388 . S
C155 H134 0.939 . S
C155 C150 1.391 . S
C155 C154 1.388 . S
P156 O167 1.490 . S
P156 C170 1.812 . S
P156 C176 1.803 1_455 S
P156 C182 1.819 . S
H157 C171 0.941 . S
H158 C172 0.939 . S
H159 C174 0.940 . S
H160 C175 0.940 . S
H161 C177 0.939 . S
H162 C178 0.942 . S
H163 C180 0.940 . S
H164 C181 0.939 . S
H165 C183 0.941 . S
H166 C187 0.939 . S
O167 P156 1.490 . S
H168 C184 0.939 . S
H169 C186 0.940 . S
C170 P156 1.812 . S
C170 C171 1.389 . S
C170 C175 1.391 . S
C171 H157 0.941 . S
C171 C170 1.389 . S
C171 C172 1.397 . S
C172 H158 0.939 . S
C172 C171 1.397 . S
C172 C173 1.378 . S
C173 C172 1.378 . S
C173 C174 1.378 . S
C174 H159 0.940 . S
C174 C173 1.378 . S
C174 C175 1.396 . S
C175 H160 0.940 . S
C175 C170 1.391 . S
C175 C174 1.396 . S
C176 P156 1.803 1_655 S
C176 C177 1.378 . S
C176 C181 1.400 . S
C177 H161 0.939 . S
C177 C176 1.378 . S
C177 C178 1.361 . S
C178 H162 0.942 . S
C178 C177 1.361 . S
C178 C179 1.369 . S
C179 C178 1.369 . S
C179 C180 1.404 . S
C180 H163 0.940 . S
C180 C179 1.404 . S
C180 C181 1.389 . S
C181 H164 0.939 . S
C181 C176 1.400 . S
C181 C180 1.389 . S
C182 P156 1.819 . S
C182 C183 1.391 . S
C182 C187 1.391 1_455 S
C183 H165 0.941 . S
C183 C182 1.391 . S
C183 C184 1.396 . S
C184 H168 0.939 . S
C184 C183 1.396 . S
C184 C185 1.397 . S
C185 C184 1.397 . S
C185 C186 1.385 1_455 S
C186 H169 0.940 . S
C186 C185 1.385 1_655 S
C186 C187 1.388 . S
C187 H166 0.939 . S
C187 C182 1.391 1_655 S
C187 C186 1.388 . S
P188 O199 1.490 . S
P188 C202 1.812 . S
P188 C208 1.803 . S
P188 C214 1.819 . S
H189 C203 0.941 . S
H190 C204 0.939 . S
H191 C206 0.940 . S
H192 C207 0.940 . S
H193 C209 0.939 . S
H194 C210 0.942 . S
H195 C212 0.940 . S
H196 C213 0.936 1_545 S
H197 C215 0.941 . S
H198 C219 0.939 . S
O199 P188 1.490 . S
H200 C216 0.939 . S
H201 C218 0.940 . S
C202 P188 1.812 . S
C202 C203 1.389 . S
C202 C207 1.391 . S
C203 H189 0.941 . S
C203 C202 1.389 . S
C203 C204 1.397 . S
C204 H190 0.939 . S
C204 C203 1.397 . S
C204 C205 1.378 . S
C205 C204 1.378 . S
C205 C206 1.378 . S
C206 H191 0.940 . S
C206 C205 1.378 . S
C206 C207 1.396 . S
C207 H192 0.940 . S
C207 C202 1.391 . S
C207 C206 1.396 . S
C208 P188 1.803 . S
C208 C209 1.378 1_545 S
C208 C213 1.400 1_545 S
C209 H193 0.939 . S
C209 C208 1.378 1_565 S
C209 C210 1.361 . S
C210 H194 0.942 . S
C210 C209 1.361 . S
C210 C211 1.369 . S
C211 C210 1.369 . S
C211 C212 1.404 . S
C212 H195 0.940 . S
C212 C211 1.404 . S
C212 C213 1.389 . S
C213 H196 0.936 1_565 S
C213 C208 1.400 1_565 S
C213 C212 1.389 . S
C214 P188 1.819 . S
C214 C215 1.391 . S
C214 C219 1.391 1_545 S
C215 H197 0.941 . S
C215 C214 1.391 . S
C215 C216 1.396 . S
C216 H200 0.939 . S
C216 C215 1.396 . S
C216 C217 1.397 . S
C217 C216 1.397 . S
C217 C218 1.385 1_545 S
C218 H201 0.940 . S
C218 C217 1.385 1_565 S
C218 C219 1.388 . S
C219 H198 0.939 . S
C219 C214 1.391 1_565 S
C219 C218 1.388 . S
P220 O231 1.490 . S
P220 C234 1.812 . S
P220 C240 1.803 . S
P220 C246 1.819 . S
H221 C235 0.941 . S
H222 C236 0.939 . S
H223 C238 0.940 . S
H224 C239 0.940 . S
H225 C241 0.939 . S
H226 C242 0.942 . S
H227 C244 0.940 . S
H228 C245 0.939 . S
H229 C247 0.941 . S
H230 C251 0.939 . S
O231 P220 1.490 . S
H232 C248 0.939 . S
H233 C250 0.940 . S
C234 P220 1.812 . S
C234 C235 1.389 . S
C234 C239 1.391 . S
C235 H221 0.941 . S
C235 C234 1.389 . S
C235 C236 1.397 . S
C236 H222 0.939 . S
C236 C235 1.397 . S
C236 C237 1.378 . S
C237 C236 1.378 . S
C237 C238 1.378 . S
C238 H223 0.940 . S
C238 C237 1.378 . S
C238 C239 1.396 . S
C239 H224 0.940 . S
C239 C234 1.391 . S
C239 C238 1.396 . S
C240 P220 1.803 . S
C240 C241 1.378 . S
C240 C245 1.400 . S
C241 H225 0.939 . S
C241 C240 1.378 . S
C241 C242 1.361 . S
C242 H226 0.942 . S
C242 C241 1.361 . S
C242 C243 1.369 . S
C243 C242 1.369 . S
C243 C244 1.404 . S
C244 H227 0.940 . S
C244 C243 1.404 . S
C244 C245 1.389 . S
C245 H228 0.939 . S
C245 C240 1.400 . S
C245 C244 1.389 . S
C246 P220 1.819 . S
C246 C247 1.391 . S
C246 C251 1.391 . S
C247 H229 0.941 . S
C247 C246 1.391 . S
C247 C248 1.396 . S
C248 H232 0.939 . S
C248 C247 1.396 . S
C248 C249 1.397 . S
C249 C248 1.397 . S
C249 C250 1.385 . S
C250 H233 0.940 . S
C250 C249 1.385 . S
C250 C251 1.388 . S
C251 H230 0.939 . S
C251 C246 1.391 . S
C251 C250 1.388 . S
C252 C253 1.349 . S
C252 C254 1.327 . S
C252 H277 0.950 . S
C253 C252 1.349 . S
C253 C269 1.349 . S
C254 C252 1.327 . S
C254 C273 1.429 . S
C254 H278 0.950 . S
C255 C272 1.574 . S
C255 C274 1.368 . S
C255 H279 0.949 . S
H256 C260 0.949 . S
C257 C258 1.349 . S
C257 C259 1.327 . S
C257 H280 0.950 . S
C258 C257 1.349 . S
C258 C270 1.349 . S
C259 C257 1.327 . S
C259 C275 1.429 . S
C259 H281 0.950 . S
C260 H256 0.949 . S
C260 C268 1.574 . S
C260 C276 1.368 . S
H261 C269 0.950 . S
H262 C267 0.950 . S
H263 C268 0.949 . S
H264 C270 0.950 . S
H265 C271 0.950 . S
H266 C272 0.949 . S
C267 H262 0.950 . S
C267 C269 1.327 . S
C267 C273 1.429 . S
C268 C260 1.574 . S
C268 H263 0.949 . S
C268 C274 1.368 . S
C269 C253 1.349 . S
C269 H261 0.950 . S
C269 C267 1.327 . S
C270 C258 1.349 . S
C270 H264 0.950 . S
C270 C271 1.327 . S
C271 H265 0.950 . S
C271 C270 1.327 . S
C271 C275 1.429 . S
C272 C255 1.574 . S
C272 H266 0.949 . S
C272 C276 1.368 . S
C273 C254 1.429 . S
C273 C267 1.429 . S
C273 C274 1.523 . S
C274 C255 1.368 . S
C274 C268 1.368 . S
C274 C273 1.523 . S
C275 C259 1.429 . S
C275 C271 1.429 . S
C275 C276 1.523 . S
C276 C260 1.368 . S
C276 C272 1.368 . S
C276 C275 1.523 . S
H277 C252 0.950 . S
H278 C254 0.950 . S
H279 C255 0.949 . S
H280 C257 0.950 . S
H281 C259 0.950 . S
C282 C283 1.349 . S
C282 C284 1.327 . S
C282 H307 0.950 . S
C283 C282 1.349 . S
C283 C299 1.349 . S
C284 C282 1.327 . S
C284 C303 1.429 . S
C284 H308 0.950 . S
C285 C302 1.574 . S
C285 C304 1.368 . S
C285 H309 0.949 . S
H286 C290 0.949 . S
C287 C288 1.349 . S
C287 C289 1.327 . S
C287 H310 0.950 . S
C288 C287 1.349 . S
C288 C300 1.349 . S
C289 C287 1.327 . S
C289 C305 1.429 . S
C289 H311 0.950 . S
C290 H286 0.949 . S
C290 C298 1.574 . S
C290 C306 1.368 . S
H291 C299 0.950 . S
H292 C297 0.950 . S
H293 C298 0.949 . S
H294 C300 0.950 . S
H295 C301 0.950 . S
H296 C302 0.949 . S
C297 H292 0.950 . S
C297 C299 1.327 . S
C297 C303 1.429 . S
C298 C290 1.574 . S
C298 H293 0.949 . S
C298 C304 1.368 . S
C299 C283 1.349 . S
C299 H291 0.950 . S
C299 C297 1.327 . S
C300 C288 1.349 . S
C300 H294 0.950 . S
C300 C301 1.327 . S
C301 H295 0.950 . S
C301 C300 1.327 . S
C301 C305 1.429 . S
C302 C285 1.574 . S
C302 H296 0.949 . S
C302 C306 1.368 . S
C303 C284 1.429 . S
C303 C297 1.429 . S
C303 C304 1.523 . S
C304 C285 1.368 . S
C304 C298 1.368 . S
C304 C303 1.523 . S
C305 C289 1.429 . S
C305 C301 1.429 . S
C305 C306 1.523 . S
C306 C290 1.368 . S
C306 C302 1.368 . S
C306 C305 1.523 . S
H307 C282 0.950 . S
H308 C284 0.950 . S
H309 C285 0.949 . S
H310 C287 0.950 . S
H311 C289 0.950 . S
C312 C313 1.349 . S
C312 C314 1.327 . S
C312 H337 0.950 . S
C313 C312 1.349 . S
C313 C329 1.349 . S
C314 C312 1.327 . S
C314 C333 1.429 . S
C314 H338 0.950 . S
C315 C332 1.574 . S
C315 C334 1.368 . S
C315 H339 0.949 . S
H316 C320 0.949 . S
C317 C318 1.349 . S
C317 C319 1.327 . S
C317 H340 0.950 . S
C318 C317 1.349 . S
C318 C330 1.349 . S
C319 C317 1.327 . S
C319 C335 1.429 . S
C319 H341 0.950 . S
C320 H316 0.949 . S
C320 C328 1.574 . S
C320 C336 1.368 . S
H321 C329 0.950 . S
H322 C327 0.950 . S
H323 C328 0.949 . S
H324 C330 0.950 . S
H325 C331 0.950 . S
H326 C332 0.949 . S
C327 H322 0.950 . S
C327 C329 1.327 . S
C327 C333 1.429 . S
C328 C320 1.574 . S
C328 H323 0.949 . S
C328 C334 1.368 . S
C329 C313 1.349 . S
C329 H321 0.950 . S
C329 C327 1.327 . S
C330 C318 1.349 . S
C330 H324 0.950 . S
C330 C331 1.327 . S
C331 H325 0.950 . S
C331 C330 1.327 . S
C331 C335 1.429 . S
C332 C315 1.574 . S
C332 H326 0.949 . S
C332 C336 1.368 . S
C333 C314 1.429 . S
C333 C327 1.429 . S
C333 C334 1.523 . S
C334 C315 1.368 . S
C334 C328 1.368 . S
C334 C333 1.523 . S
C335 C319 1.429 . S
C335 C331 1.429 . S
C335 C336 1.523 . S
C336 C320 1.368 . S
C336 C332 1.368 . S
C336 C335 1.523 . S
H337 C312 0.950 . S
H338 C314 0.950 . S
H339 C315 0.949 . S
H340 C317 0.950 . S
H341 C319 0.950 . S
C342 C343 1.349 . S
C342 C344 1.327 . S
C342 H367 0.950 . S
C343 C342 1.349 . S
C343 C359 1.349 . S
C344 C342 1.327 . S
C344 C363 1.429 . S
C344 H368 0.950 . S
C345 C362 1.574 . S
C345 C364 1.368 . S
C345 H369 0.949 . S
H346 C350 0.949 . S
C347 C348 1.349 . S
C347 C349 1.327 . S
C347 H370 0.950 . S
C348 C347 1.349 . S
C348 C360 1.349 . S
C349 C347 1.327 . S
C349 C365 1.429 . S
C349 H371 0.950 . S
C350 H346 0.949 . S
C350 C358 1.574 . S
C350 C366 1.368 . S
H351 C359 0.950 . S
H352 C357 0.950 . S
H353 C358 0.949 . S
H354 C360 0.950 . S
H355 C361 0.950 . S
H356 C362 0.949 . S
C357 H352 0.950 . S
C357 C359 1.327 . S
C357 C363 1.429 . S
C358 C350 1.574 . S
C358 H353 0.949 . S
C358 C364 1.368 . S
C359 C343 1.349 . S
C359 H351 0.950 . S
C359 C357 1.327 . S
C360 C348 1.349 . S
C360 H354 0.950 . S
C360 C361 1.327 . S
C361 H355 0.950 . S
C361 C360 1.327 . S
C361 C365 1.429 . S
C362 C345 1.574 . S
C362 H356 0.949 . S
C362 C366 1.368 . S
C363 C344 1.429 . S
C363 C357 1.429 . S
C363 C364 1.523 . S
C364 C345 1.368 . S
C364 C358 1.368 . S
C364 C363 1.523 . S
C365 C349 1.429 . S
C365 C361 1.429 . S
C365 C366 1.523 . S
C366 C350 1.368 . S
C366 C362 1.368 . S
C366 C365 1.523 . S
H367 C342 0.950 . S
H368 C344 0.950 . S
H369 C345 0.949 . S
H370 C347 0.950 . S
H371 C349 0.950 . S
C372 C373 1.349 . S
C372 C374 1.327 . S
C372 H397 0.950 . S
C373 C372 1.349 . S
C373 C389 1.349 . S
C374 C372 1.327 . S
C374 C393 1.429 . S
C374 H398 0.950 . S
C375 C392 1.574 . S
C375 C394 1.368 . S
C375 H399 0.949 . S
H376 C380 0.949 . S
C377 C378 1.349 . S
C377 C379 1.327 . S
C377 H400 0.950 . S
C378 C377 1.349 . S
C378 C390 1.349 . S
C379 C377 1.327 . S
C379 C395 1.429 . S
C379 H401 0.950 . S
C380 H376 0.949 . S
C380 C388 1.574 . S
C380 C396 1.368 . S
H381 C389 0.950 . S
H382 C387 0.950 . S
H383 C388 0.949 . S
H384 C390 0.950 . S
H385 C391 0.950 . S
H386 C392 0.949 . S
C387 H382 0.950 . S
C387 C389 1.327 . S
C387 C393 1.429 . S
C388 C380 1.574 . S
C388 H383 0.949 . S
C388 C394 1.368 . S
C389 C373 1.349 . S
C389 H381 0.950 . S
C389 C387 1.327 . S
C390 C378 1.349 . S
C390 H384 0.950 . S
C390 C391 1.327 . S
C391 H385 0.950 . S
C391 C390 1.327 . S
C391 C395 1.429 . S
C392 C375 1.574 . S
C392 H386 0.949 . S
C392 C396 1.368 . S
C393 C374 1.429 . S
C393 C387 1.429 . S
C393 C394 1.523 . S
C394 C375 1.368 . S
C394 C388 1.368 . S
C394 C393 1.523 . S
C395 C379 1.429 . S
C395 C391 1.429 . S
C395 C396 1.523 . S
C396 C380 1.368 . S
C396 C392 1.368 . S
C396 C395 1.523 . S
H397 C372 0.950 . S
H398 C374 0.950 . S
H399 C375 0.949 . S
H400 C377 0.950 . S
H401 C379 0.950 . S
C402 C403 1.349 . S
C402 C404 1.327 . S
C402 H427 0.950 . S
C403 C402 1.349 . S
C403 C419 1.349 . S
C404 C402 1.327 . S
C404 C423 1.429 . S
C404 H428 0.950 . S
C405 C422 1.574 . S
C405 C424 1.368 . S
C405 H429 0.949 . S
H406 C410 0.949 . S
C407 C408 1.349 . S
C407 C409 1.327 . S
C407 H430 0.950 . S
C408 C407 1.349 . S
C408 C420 1.349 . S
C409 C407 1.327 . S
C409 C425 1.429 . S
C409 H431 0.950 . S
C410 H406 0.949 . S
C410 C418 1.574 . S
C410 C426 1.368 . S
H411 C419 0.950 . S
H412 C417 0.950 . S
H413 C418 0.949 . S
H414 C420 0.950 . S
H415 C421 0.950 . S
H416 C422 0.949 . S
C417 H412 0.950 . S
C417 C419 1.327 . S
C417 C423 1.429 . S
C418 C410 1.574 . S
C418 H413 0.949 . S
C418 C424 1.368 . S
C419 C403 1.349 . S
C419 H411 0.950 . S
C419 C417 1.327 . S
C420 C408 1.349 . S
C420 H414 0.950 . S
C420 C421 1.327 . S
C421 H415 0.950 . S
C421 C420 1.327 . S
C421 C425 1.429 . S
C422 C405 1.574 . S
C422 H416 0.949 . S
C422 C426 1.368 . S
C423 C404 1.429 . S
C423 C417 1.429 . S
C423 C424 1.523 . S
C424 C405 1.368 . S
C424 C418 1.368 . S
C424 C423 1.523 . S
C425 C409 1.429 . S
C425 C421 1.429 . S
C425 C426 1.523 . S
C426 C410 1.368 . S
C426 C422 1.368 . S
C426 C425 1.523 . S
H427 C402 0.950 . S
H428 C404 0.950 . S
H429 C405 0.949 . S
H430 C407 0.950 . S
H431 C409 0.950 . S
C432 C433 1.349 . S
C432 C434 1.327 . S
C432 H457 0.950 . S
C433 C432 1.349 . S
C433 C449 1.349 . S
C434 C432 1.327 . S
C434 C453 1.429 . S
C434 H458 0.950 . S
C435 C452 1.574 . S
C435 C454 1.368 . S
C435 H459 0.949 . S
H436 C440 0.949 . S
C437 C438 1.349 . S
C437 C439 1.327 . S
C437 H460 0.950 . S
C438 C437 1.349 . S
C438 C450 1.349 . S
C439 C437 1.327 . S
C439 C455 1.429 . S
C439 H461 0.950 . S
C440 H436 0.949 . S
C440 C448 1.574 . S
C440 C456 1.368 . S
H441 C449 0.950 . S
H442 C447 0.950 . S
H443 C448 0.949 . S
H444 C450 0.950 . S
H445 C451 0.950 . S
H446 C452 0.949 . S
C447 H442 0.950 . S
C447 C449 1.327 . S
C447 C453 1.429 . S
C448 C440 1.574 . S
C448 H443 0.949 . S
C448 C454 1.368 . S
C449 C433 1.349 . S
C449 H441 0.950 . S
C449 C447 1.327 . S
C450 C438 1.349 . S
C450 H444 0.950 . S
C450 C451 1.327 . S
C451 H445 0.950 . S
C451 C450 1.327 . S
C451 C455 1.429 . S
C452 C435 1.574 . S
C452 H446 0.949 . S
C452 C456 1.368 . S
C453 C434 1.429 . S
C453 C447 1.429 . S
C453 C454 1.523 . S
C454 C435 1.368 . S
C454 C448 1.368 . S
C454 C453 1.523 . S
C455 C439 1.429 . S
C455 C451 1.429 . S
C455 C456 1.523 . S
C456 C440 1.368 . S
C456 C452 1.368 . S
C456 C455 1.523 . S
H457 C432 0.950 . S
H458 C434 0.950 . S
H459 C435 0.949 . S
H460 C437 0.950 . S
H461 C439 0.950 . S
C462 C463 1.349 . S
C462 C464 1.327 . S
C462 H487 0.950 . S
C463 C462 1.349 . S
C463 C479 1.349 . S
C464 C462 1.327 . S
C464 C483 1.429 . S
C464 H488 0.950 . S
C465 C482 1.574 . S
C465 C484 1.368 . S
C465 H489 0.949 . S
H466 C470 0.949 . S
C467 C468 1.349 . S
C467 C469 1.327 . S
C467 H490 0.950 . S
C468 C467 1.349 . S
C468 C480 1.349 . S
C469 C467 1.327 . S
C469 C485 1.429 . S
C469 H491 0.950 . S
C470 H466 0.949 . S
C470 C478 1.574 . S
C470 C486 1.368 . S
H471 C479 0.950 . S
H472 C477 0.950 . S
H473 C478 0.949 . S
H474 C480 0.950 . S
H475 C481 0.950 . S
H476 C482 0.949 . S
C477 H472 0.950 . S
C477 C479 1.327 . S
C477 C483 1.429 . S
C478 C470 1.574 . S
C478 H473 0.949 . S
C478 C484 1.368 . S
C479 C463 1.349 . S
C479 H471 0.950 . S
C479 C477 1.327 . S
C480 C468 1.349 . S
C480 H474 0.950 . S
C480 C481 1.327 . S
C481 H475 0.950 . S
C481 C480 1.327 . S
C481 C485 1.429 . S
C482 C465 1.574 . S
C482 H476 0.949 . S
C482 C486 1.368 . S
C483 C464 1.429 . S
C483 C477 1.429 . S
C483 C484 1.523 . S
C484 C465 1.368 . S
C484 C478 1.368 . S
C484 C483 1.523 . S
C485 C469 1.429 . S
C485 C481 1.429 . S
C485 C486 1.523 . S
C486 C470 1.368 . S
C486 C482 1.368 . S
C486 C485 1.523 . S
H487 C462 0.950 . S
H488 C464 0.950 . S
H489 C465 0.949 . S
H490 C467 0.950 . S
H491 C469 0.950 . S
C492 C493 1.349 . S
C492 C494 1.327 . S
C492 H517 0.950 . S
C493 C492 1.349 . S
C493 C509 1.349 . S
C494 C492 1.327 . S
C494 C513 1.429 . S
C494 H518 0.950 . S
C495 C512 1.574 . S
C495 C514 1.368 . S
C495 H519 0.949 . S
H496 C500 0.949 . S
C497 C498 1.349 . S
C497 C499 1.327 . S
C497 H520 0.950 . S
C498 C497 1.349 . S
C498 C510 1.349 . S
C499 C497 1.327 . S
C499 C515 1.429 . S
C499 H521 0.950 . S
C500 H496 0.949 . S
C500 C508 1.574 . S
C500 C516 1.368 . S
H501 C509 0.950 . S
H502 C507 0.950 . S
H503 C508 0.949 . S
H504 C510 0.950 . S
H505 C511 0.950 . S
H506 C512 0.949 . S
C507 H502 0.950 . S
C507 C509 1.327 . S
C507 C513 1.429 . S
C508 C500 1.574 . S
C508 H503 0.949 . S
C508 C514 1.368 . S
C509 C493 1.349 . S
C509 H501 0.950 . S
C509 C507 1.327 . S
C510 C498 1.349 . S
C510 H504 0.950 . S
C510 C511 1.327 . S
C511 H505 0.950 . S
C511 C510 1.327 . S
C511 C515 1.429 . S
C512 C495 1.574 . S
C512 H506 0.949 . S
C512 C516 1.368 . S
C513 C494 1.429 . S
C513 C507 1.429 . S
C513 C514 1.523 . S
C514 C495 1.368 . S
C514 C508 1.368 . S
C514 C513 1.523 . S
C515 C499 1.429 . S
C515 C511 1.429 . S
C515 C516 1.523 . S
C516 C500 1.368 . S
C516 C512 1.368 . S
C516 C515 1.523 . S
H517 C492 0.950 . S
H518 C494 0.950 . S
H519 C495 0.949 . S
H520 C497 0.950 . S
H521 C499 0.950 . S
C522 C523 1.349 . S
C522 C524 1.327 . S
C522 H547 0.950 . S
C523 C522 1.349 . S
C523 C539 1.349 . S
C524 C522 1.327 . S
C524 C543 1.429 . S
C524 H548 0.950 . S
C525 C542 1.574 . S
C525 C544 1.368 . S
C525 H549 0.949 . S
H526 C530 0.949 . S
C527 C528 1.349 . S
C527 C529 1.327 . S
C527 H550 0.950 . S
C528 C527 1.349 . S
C528 C540 1.349 . S
C529 C527 1.327 . S
C529 C545 1.429 . S
C529 H551 0.950 . S
C530 H526 0.949 . S
C530 C538 1.574 . S
C530 C546 1.368 . S
H531 C539 0.950 . S
H532 C537 0.950 . S
H533 C538 0.949 . S
H534 C540 0.950 . S
H535 C541 0.950 . S
H536 C542 0.949 . S
C537 H532 0.950 . S
C537 C539 1.327 . S
C537 C543 1.429 . S
C538 C530 1.574 . S
C538 H533 0.949 . S
C538 C544 1.368 . S
C539 C523 1.349 . S
C539 H531 0.950 . S
C539 C537 1.327 . S
C540 C528 1.349 . S
C540 H534 0.950 . S
C540 C541 1.327 . S
C541 H535 0.950 . S
C541 C540 1.327 . S
C541 C545 1.429 . S
C542 C525 1.574 . S
C542 H536 0.949 . S
C542 C546 1.368 . S
C543 C524 1.429 . S
C543 C537 1.429 . S
C543 C544 1.523 . S
C544 C525 1.368 . S
C544 C538 1.368 . S
C544 C543 1.523 . S
C545 C529 1.429 . S
C545 C541 1.429 . S
C545 C546 1.523 . S
C546 C530 1.368 . S
C546 C542 1.368 . S
C546 C545 1.523 . S
H547 C522 0.950 . S
H548 C524 0.950 . S
H549 C525 0.949 . S
H550 C527 0.950 . S
H551 C529 0.950 . S
C552 C553 1.349 . S
C552 C554 1.327 . S
C552 H577 0.950 . S
C553 C552 1.349 . S
C553 C569 1.349 . S
C554 C552 1.327 . S
C554 C573 1.429 . S
C554 H578 0.950 . S
C555 C572 1.574 . S
C555 C574 1.368 . S
C555 H579 0.949 . S
H556 C560 0.949 . S
C557 C558 1.349 . S
C557 C559 1.327 . S
C557 H580 0.950 . S
C558 C557 1.349 . S
C558 C570 1.349 . S
C559 C557 1.327 . S
C559 C575 1.429 . S
C559 H581 0.950 . S
C560 H556 0.949 . S
C560 C568 1.574 . S
C560 C576 1.368 . S
H561 C569 0.950 . S
H562 C567 0.950 . S
H563 C568 0.949 . S
H564 C570 0.950 . S
H565 C571 0.950 . S
H566 C572 0.949 . S
C567 H562 0.950 . S
C567 C569 1.327 . S
C567 C573 1.429 . S
C568 C560 1.574 . S
C568 H563 0.949 . S
C568 C574 1.368 . S
C569 C553 1.349 . S
C569 H561 0.950 . S
C569 C567 1.327 . S
C570 C558 1.349 . S
C570 H564 0.950 . S
C570 C571 1.327 . S
C571 H565 0.950 . S
C571 C570 1.327 . S
C571 C575 1.429 . S
C572 C555 1.574 . S
C572 H566 0.949 . S
C572 C576 1.368 . S
C573 C554 1.429 . S
C573 C567 1.429 . S
C573 C574 1.523 . S
C574 C555 1.368 . S
C574 C568 1.368 . S
C574 C573 1.523 . S
C575 C559 1.429 . S
C575 C571 1.429 . S
C575 C576 1.523 . S
C576 C560 1.368 . S
C576 C572 1.368 . S
C576 C575 1.523 . S
H577 C552 0.950 . S
H578 C554 0.950 . S
H579 C555 0.949 . S
H580 C557 0.950 . S
H581 C559 0.950 . S
C582 C583 1.349 . S
C582 C584 1.327 . S
C582 H607 0.950 . S
C583 C582 1.349 . S
C583 C599 1.349 . S
C584 C582 1.327 . S
C584 C603 1.429 . S
C584 H608 0.950 . S
C585 C602 1.574 . S
C585 C604 1.368 . S
C585 H609 0.949 . S
H586 C590 0.949 . S
C587 C588 1.349 . S
C587 C589 1.327 . S
C587 H610 0.950 . S
C588 C587 1.349 . S
C588 C600 1.349 . S
C589 C587 1.327 . S
C589 C605 1.429 . S
C589 H611 0.950 . S
C590 H586 0.949 . S
C590 C598 1.574 . S
C590 C606 1.368 . S
H591 C599 0.950 . S
H592 C597 0.950 . S
H593 C598 0.949 . S
H594 C600 0.950 . S
H595 C601 0.950 . S
H596 C602 0.949 . S
C597 H592 0.950 . S
C597 C599 1.327 . S
C597 C603 1.429 . S
C598 C590 1.574 . S
C598 H593 0.949 . S
C598 C604 1.368 . S
C599 C583 1.349 . S
C599 H591 0.950 . S
C599 C597 1.327 . S
C600 C588 1.349 . S
C600 H594 0.950 . S
C600 C601 1.327 . S
C601 H595 0.950 . S
C601 C600 1.327 . S
C601 C605 1.429 . S
C602 C585 1.574 . S
C602 H596 0.949 . S
C602 C606 1.368 . S
C603 C584 1.429 . S
C603 C597 1.429 . S
C603 C604 1.523 . S
C604 C585 1.368 . S
C604 C598 1.368 . S
C604 C603 1.523 . S
C605 C589 1.429 . S
C605 C601 1.429 . S
C605 C606 1.523 . S
C606 C590 1.368 . S
C606 C602 1.368 . S
C606 C605 1.523 . S
H607 C582 0.950 . S
H608 C584 0.950 . S
H609 C585 0.949 . S
H610 C587 0.950 . S
H611 C589 0.950 . S
C612 C613 1.349 . S
C612 C614 1.327 . S
C612 H637 0.950 . S
C613 C612 1.349 . S
C613 C629 1.349 . S
C614 C612 1.327 . S
C614 C633 1.429 . S
C614 H638 0.950 . S
C615 C632 1.574 . S
C615 C634 1.368 . S
C615 H639 0.949 . S
H616 C620 0.949 . S
C617 C618 1.349 . S
C617 C619 1.327 . S
C617 H640 0.950 . S
C618 C617 1.349 . S
C618 C630 1.349 . S
C619 C617 1.327 . S
C619 C635 1.429 . S
C619 H641 0.950 . S
C620 H616 0.949 . S
C620 C628 1.574 . S
C620 C636 1.368 . S
H621 C629 0.950 . S
H622 C627 0.950 . S
H623 C628 0.949 . S
H624 C630 0.950 . S
H625 C631 0.967 . S
H626 C632 0.949 . S
C627 H622 0.950 . S
C627 C629 1.327 . S
C627 C633 1.429 . S
C628 C620 1.574 . S
C628 H623 0.949 . S
C628 C634 1.368 . S
C629 C613 1.349 . S
C629 H621 0.950 . S
C629 C627 1.327 . S
C630 C618 1.349 . S
C630 H624 0.950 . S
C630 C631 1.327 . S
C631 H625 0.967 . S
C631 C630 1.327 . S
C631 C635 1.429 . S
C632 C615 1.574 . S
C632 H626 0.949 . S
C632 C636 1.368 . S
C633 C614 1.429 . S
C633 C627 1.429 . S
C633 C634 1.523 . S
C634 C615 1.368 . S
C634 C628 1.368 . S
C634 C633 1.523 . S
C635 C619 1.429 . S
C635 C631 1.429 . S
C635 C636 1.523 1_556 S
C636 C620 1.368 . S
C636 C632 1.368 . S
C636 C635 1.523 1_554 S
H637 C612 0.950 . S
H638 C614 0.950 . S
H639 C615 0.949 . S
H640 C617 0.950 . S
H641 C619 0.950 . S
C642 C643 1.349 . S
C642 C644 1.327 . S
C642 H667 0.950 . S
C643 C642 1.349 . S
C643 C659 1.349 . S
C644 C642 1.327 . S
C644 C663 1.429 . S
C644 H668 0.950 . S
C645 C662 1.574 . S
C645 C664 1.368 . S
C645 H669 0.949 1_545 S
H646 C650 0.949 . S
C647 C648 1.349 . S
C647 C649 1.327 . S
C647 H670 0.950 . S
C648 C647 1.349 . S
C648 C660 1.349 . S
C649 C647 1.327 . S
C649 C665 1.429 . S
C649 H671 0.950 1_545 S
C650 H646 0.949 . S
C650 C658 1.574 . S
C650 C666 1.368 . S
H651 C659 0.950 1_565 S
H652 C657 0.950 1_565 S
H653 C658 0.949 . S
H654 C660 0.950 . S
H655 C661 0.950 . S
H656 C662 0.949 1_565 S
C657 H652 0.950 1_545 S
C657 C659 1.327 . S
C657 C663 1.429 . S
C658 C650 1.574 . S
C658 H653 0.949 . S
C658 C664 1.368 . S
C659 C643 1.349 . S
C659 H651 0.950 1_545 S
C659 C657 1.327 . S
C660 C648 1.349 . S
C660 H654 0.950 . S
C660 C661 1.327 . S
C661 H655 0.950 . S
C661 C660 1.327 . S
C661 C665 1.429 . S
C662 C645 1.574 . S
C662 H656 0.949 1_545 S
C662 C666 1.368 . S
C663 C644 1.429 . S
C663 C657 1.429 . S
C663 C664 1.523 . S
C664 C645 1.368 . S
C664 C658 1.368 . S
C664 C663 1.523 . S
C665 C649 1.429 . S
C665 C661 1.429 . S
C665 C666 1.523 . S
C666 C650 1.368 . S
C666 C662 1.368 . S
C666 C665 1.523 . S
H667 C642 0.950 . S
H668 C644 0.950 . S
H669 C645 0.949 1_565 S
H670 C647 0.950 . S
H671 C649 0.950 1_565 S
C672 C673 1.349 . S
C672 C674 1.327 . S
C672 H697 0.950 . S
C673 C672 1.349 . S
C673 C689 1.349 . S
C674 C672 1.327 . S
C674 C693 1.429 . S
C674 H698 0.950 . S
C675 C692 1.574 . S
C675 C694 1.368 . S
C675 H699 0.949 . S
H676 C680 0.949 . S
C677 C678 1.349 . S
C677 C679 1.327 . S
C677 H700 0.950 . S
C678 C677 1.349 . S
C678 C690 1.349 . S
C679 C677 1.327 . S
C679 C695 1.429 . S
C679 H701 0.950 . S
C680 H676 0.949 . S
C680 C688 1.574 . S
C680 C696 1.368 . S
H681 C689 0.950 . S
H682 C687 0.950 . S
H683 C688 0.949 . S
H684 C690 0.950 . S
H685 C691 0.950 . S
H686 C692 0.949 . S
C687 H682 0.950 . S
C687 C689 1.327 . S
C687 C693 1.429 . S
C688 C680 1.574 . S
C688 H683 0.949 . S
C688 C694 1.368 . S
C689 C673 1.349 . S
C689 H681 0.950 . S
C689 C687 1.327 . S
C690 C678 1.349 . S
C690 H684 0.950 . S
C690 C691 1.327 . S
C691 H685 0.950 . S
C691 C690 1.327 . S
C691 C695 1.429 . S
C692 C675 1.574 . S
C692 H686 0.949 . S
C692 C696 1.368 . S
C693 C674 1.429 . S
C693 C687 1.429 . S
C693 C694 1.523 . S
C694 C675 1.368 . S
C694 C688 1.368 . S
C694 C693 1.523 . S
C695 C679 1.429 . S
C695 C691 1.429 . S
C695 C696 1.523 . S
C696 C680 1.368 . S
C696 C692 1.368 . S
C696 C695 1.523 . S
H697 C672 0.950 . S
H698 C674 0.950 . S
H699 C675 0.949 . S
H700 C677 0.950 . S
H701 C679 0.950 . S
C702 C703 1.349 . S
C702 C704 1.327 . S
C702 H727 0.950 . S
C703 C702 1.349 . S
C703 C719 1.349 . S
C704 C702 1.327 . S
C704 C723 1.429 . S
C704 H728 0.950 . S
C705 C722 1.574 . S
C705 C724 1.368 1_565 S
C705 H729 0.949 . S
H706 C710 0.949 . S
C707 C708 1.349 1_565 S
C707 C709 1.327 . S
C707 H730 0.950 . S
C708 C707 1.349 1_545 S
C708 C720 1.349 . S
C709 C707 1.327 . S
C709 C725 1.429 1_565 S
C709 H731 0.950 . S
C710 H706 0.949 . S
C710 C718 1.574 . S
C710 C726 1.368 . S
H711 C719 0.950 1_565 S
H712 C717 0.950 . S
H713 C718 0.949 . S
H714 C720 0.950 . S
H715 C721 0.950 . S
H716 C722 0.949 . S
C717 H712 0.950 . S
C717 C719 1.327 1_565 S
C717 C723 1.429 1_565 S
C718 C710 1.574 . S
C718 H713 0.949 . S
C718 C724 1.368 . S
C719 C703 1.349 . S
C719 H711 0.950 1_545 S
C719 C717 1.327 1_545 S
C720 C708 1.349 . S
C720 H714 0.950 . S
C720 C721 1.327 . S
C721 H715 0.950 . S
C721 C720 1.327 . S
C721 C725 1.429 . S
C722 C705 1.574 . S
C722 H716 0.949 . S
C722 C726 1.368 1_565 S
C723 C704 1.429 . S
C723 C717 1.429 1_545 S
C723 C724 1.523 . S
C724 C705 1.368 1_545 S
C724 C718 1.368 . S
C724 C723 1.523 . S
C725 C709 1.429 1_545 S
C725 C721 1.429 . S
C725 C726 1.523 . S
C726 C710 1.368 . S
C726 C722 1.368 1_545 S
C726 C725 1.523 . S
H727 C702 0.950 . S
H728 C704 0.950 . S
H729 C705 0.949 . S
H730 C707 0.950 . S
H731 C709 0.950 . S
C732 C733 1.349 . S
C732 C734 1.327 . S
C732 H757 0.950 . S
C733 C732 1.349 . S
C733 C749 1.349 . S
C734 C732 1.327 . S
C734 C753 1.429 . S
C734 H758 0.950 . S
C735 C752 1.574 . S
C735 C754 1.368 . S
C735 H759 0.949 . S
H736 C740 0.949 . S
C737 C738 1.349 . S
C737 C739 1.327 . S
C737 H760 0.950 . S
C738 C737 1.349 . S
C738 C750 1.349 . S
C739 C737 1.327 . S
C739 C755 1.398 1_554 S
C739 H761 0.950 . S
C740 H736 0.949 . S
C740 C748 1.574 . S
C740 C756 1.368 . S
H741 C749 0.950 . S
H742 C747 0.950 . S
H743 C748 0.949 . S
H744 C750 0.950 . S
H745 C751 0.950 1_556 S
H746 C752 0.949 . S
C747 H742 0.950 . S
C747 C749 1.327 . S
C747 C753 1.429 . S
C748 C740 1.574 . S
C748 H743 0.949 . S
C748 C754 1.368 . S
C749 C733 1.349 . S
C749 H741 0.950 . S
C749 C747 1.327 . S
C750 C738 1.349 . S
C750 H744 0.950 . S
C750 C751 1.327 . S
C751 H745 0.950 1_554 S
C751 C750 1.327 . S
C751 C755 1.406 1_554 S
C752 C735 1.574 . S
C752 H746 0.949 . S
C752 C756 1.368 . S
C753 C734 1.429 . S
C753 C747 1.429 . S
C753 C754 1.523 . S
C754 C735 1.368 . S
C754 C748 1.368 . S
C754 C753 1.523 . S
C755 C739 1.398 1_556 S
C755 C751 1.406 1_556 S
C755 C756 1.573 . S
C756 C740 1.368 . S
C756 C752 1.368 . S
C756 C755 1.573 . S
H757 C732 0.950 . S
H758 C734 0.950 . S
H759 C735 0.949 . S
H760 C737 0.950 . S
H761 C739 0.950 . S
C762 C763 1.349 . S
C762 C764 1.327 . S
C762 H787 0.950 . S
C763 C762 1.349 . S
C763 C779 1.349 . S
C764 C762 1.327 . S
C764 C783 1.429 . S
C764 H788 0.950 . S
C765 C782 1.574 . S
C765 C784 1.368 . S
C765 H789 0.949 . S
H766 C770 0.949 . S
C767 C768 1.349 . S
C767 C769 1.327 . S
C767 H790 0.950 . S
C768 C767 1.349 . S
C768 C780 1.359 . S
C769 C767 1.327 . S
C769 C785 1.429 . S
C769 H791 0.950 . S
C770 H766 0.949 . S
C770 C778 1.574 . S
C770 C786 1.368 . S
H771 C779 0.950 . S
H772 C777 0.950 . S
H773 C778 0.949 . S
H774 C780 0.937 1_655 S
H775 C781 0.950 . S
H776 C782 0.949 . S
C777 H772 0.950 . S
C777 C779 1.327 . S
C777 C783 1.429 . S
C778 C770 1.574 . S
C778 H773 0.949 . S
C778 C784 1.368 . S
C779 C763 1.349 . S
C779 H771 0.950 . S
C779 C777 1.327 . S
C780 C768 1.359 . S
C780 H774 0.937 1_455 S
C780 C781 1.330 . S
C781 H775 0.950 . S
C781 C780 1.330 . S
C781 C785 1.429 . S
C782 C765 1.574 . S
C782 H776 0.949 . S
C782 C786 1.368 . S
C783 C764 1.429 . S
C783 C777 1.429 . S
C783 C784 1.523 . S
C784 C765 1.368 . S
C784 C778 1.368 . S
C784 C783 1.523 . S
C785 C769 1.429 . S
C785 C781 1.429 . S
C785 C786 1.523 . S
C786 C770 1.368 . S
C786 C782 1.368 . S
C786 C785 1.523 . S
H787 C762 0.950 . S
H788 C764 0.950 . S
H789 C765 0.949 . S
H790 C767 0.950 . S
H791 C769 0.950 . S
C253 C8 1.935 . S
C258 C243 1.983 . S
C283 C26 1.277 . S
C288 C179 1.258 . S
C313 C48 1.440 . S
C318 C211 1.455 . S
C343 C19 1.720 . S
C348 C237 1.779 . S
C378 C173 1.417 . S
C373 C36 1.422 . S
C408 C205 1.643 . S
C403 C59 1.595 . S
C433 C28 1.461 . S
C438 C115 1.487 . S
C463 C46 1.152 . S
C468 C147 1.150 . S
C493 C16 1.493 . S
C498 C77 1.481 . S
C528 C109 1.608 . S
C523 C39 1.565 . S
C558 C141 0.962 . S
C553 C56 0.956 . S
C583 C6 1.311 . S
C588 C83 1.274 . S
C618 C153 1.410 . S
C613 C9 1.406 . S
C643 C21 1.488 . S
C648 C89 1.460 . S
C673 C49 1.468 . S
C678 C121 1.454 . S
C708 C217 1.433 . S
C703 C29 1.454 . S
C738 C249 1.561 . S
C733 C41 1.566 . S
C763 C1 1.493 . S
C768 C185 1.469 . S
