# Generated by pormake.
# Topology nom, (4,4)-cn, num edge types: 1
# Building blocks:
#     Node 0, Type 0, BuildingBlock: AZAVOO_clean_linker_0, # of connection points: 4
#     Node 1, Type 0, BuildingBlock: AZAVOO_clean_linker_0, # of connection points: 4
#     Node 2, Type 0, BuildingBlock: AZAVOO_clean_linker_0, # of connection points: 4
#     Node 3, Type 0, BuildingBlock: AZAVOO_clean_linker_0, # of connection points: 4
#     Node 4, Type 0, BuildingBlock: AZAVOO_clean_linker_0, # of connection points: 4
#     Node 5, Type 0, BuildingBlock: AZAVOO_clean_linker_0, # of connection points: 4
#     Node 6, Type 1, BuildingBlock: CEKHIL_clean_sbu_0, # of connection points: 4
#     Node 7, Type 1, BuildingBlock: CEKHIL_clean_sbu_0, # of connection points: 4
#     Node 8, Type 1, BuildingBlock: CEKHIL_clean_sbu_0, # of connection points: 4
#     Node 9, Type 1, BuildingBlock: CEKHIL_clean_sbu_0, # of connection points: 4
#     Node 10, Type 1, BuildingBlock: CEKHIL_clean_sbu_0, # of connection points: 4
#     Node 11, Type 1, BuildingBlock: CEKHIL_clean_sbu_0, # of connection points: 4
#     Edge 12, Type (0, 1), BuildingBlock: CIFDUS_clean_linker_0, # of connection points: 2
#     Edge 13, Type (0, 1), BuildingBlock: CIFDUS_clean_linker_0, # of connection points: 2
#     Edge 14, Type (0, 1), BuildingBlock: CIFDUS_clean_linker_0, # of connection points: 2
#     Edge 15, Type (0, 1), BuildingBlock: CIFDUS_clean_linker_0, # of connection points: 2
#     Edge 16, Type (0, 1), BuildingBlock: CIFDUS_clean_linker_0, # of connection points: 2
#     Edge 17, Type (0, 1), BuildingBlock: CIFDUS_clean_linker_0, # of connection points: 2
#     Edge 18, Type (0, 1), BuildingBlock: CIFDUS_clean_linker_0, # of connection points: 2
#     Edge 19, Type (0, 1), BuildingBlock: CIFDUS_clean_linker_0, # of connection points: 2
#     Edge 20, Type (0, 1), BuildingBlock: CIFDUS_clean_linker_0, # of connection points: 2
#     Edge 21, Type (0, 1), BuildingBlock: CIFDUS_clean_linker_0, # of connection points: 2
#     Edge 22, Type (0, 1), BuildingBlock: CIFDUS_clean_linker_0, # of connection points: 2
#     Edge 23, Type (0, 1), BuildingBlock: CIFDUS_clean_linker_0, # of connection points: 2
#     Edge 24, Type (0, 1), BuildingBlock: CIFDUS_clean_linker_0, # of connection points: 2
#     Edge 25, Type (0, 1), BuildingBlock: CIFDUS_clean_linker_0, # of connection points: 2
#     Edge 26, Type (0, 1), BuildingBlock: CIFDUS_clean_linker_0, # of connection points: 2
#     Edge 27, Type (0, 1), BuildingBlock: CIFDUS_clean_linker_0, # of connection points: 2
#     Edge 28, Type (0, 1), BuildingBlock: CIFDUS_clean_linker_0, # of connection points: 2
#     Edge 29, Type (0, 1), BuildingBlock: CIFDUS_clean_linker_0, # of connection points: 2
#     Edge 30, Type (0, 1), BuildingBlock: CIFDUS_clean_linker_0, # of connection points: 2
#     Edge 31, Type (0, 1), BuildingBlock: CIFDUS_clean_linker_0, # of connection points: 2
#     Edge 32, Type (0, 1), BuildingBlock: CIFDUS_clean_linker_0, # of connection points: 2
#     Edge 33, Type (0, 1), BuildingBlock: CIFDUS_clean_linker_0, # of connection points: 2
#     Edge 34, Type (0, 1), BuildingBlock: CIFDUS_clean_linker_0, # of connection points: 2
#     Edge 35, Type (0, 1), BuildingBlock: CIFDUS_clean_linker_0, # of connection points: 2
# Relax obj value: 0.144
# Max RMSD: 0.227
# Mean RMSD: 0.145
data_MOF--net-nom--node1-CEKHIL_clean_sbu_0--node2-AZAVOO_clean_linker_0--edge1-CIFDUS_clean_linker_0
_symmetry_space_group_name_H-M    P1
_symmetry_Int_Tables_number       1
_symmetry_cell_setting            triclinic
loop_
_symmetry_equiv_pos_as_xyz
'x, y, z'
_cell_length_a     44.084323
_cell_length_b     44.072262
_cell_length_c     53.356749
_cell_angle_alpha  90.079734
_cell_angle_beta   90.054048
_cell_angle_gamma 123.50823
loop_
_atom_site_label
_atom_site_type_symbol
_atom_site_fract_x
_atom_site_fract_y
_atom_site_fract_z
_atom_type_partial_charge
H0 H 0.08367 0.5655 0.16362 0.0
H1 H 0.25445 0.75362 0.41498 0.0
H2 H 0.00213 0.52017 0.29424 0.0
H3 H 0.95816 0.48276 0.26185 0.0
H4 H 0.93177 0.56317 0.25269 0.0
H5 H 0.97682 0.60098 0.28514 0.0
H6 H 0.08437 0.56896 0.27326 0.0
H7 H 0.0885 0.56149 0.22817 0.0
H8 H 0.04576 0.62755 0.21338 0.0
H9 H 0.04223 0.63516 0.2585 0.0
H10 H 0.14541 0.61507 0.31862 0.0
H11 H 0.20712 0.65103 0.30255 0.0
H12 H 0.17866 0.71454 0.25865 0.0
H13 H 0.11855 0.68139 0.27757 0.0
H14 H 0.11425 0.59808 0.36833 0.0
H15 H 0.16664 0.62994 0.39655 0.0
H16 H 0.18829 0.73306 0.37063 0.0
H17 H 0.13533 0.70077 0.34282 0.0
H18 H 0.0308 0.55129 0.3781 0.0
H19 H 0.05189 0.55385 0.42085 0.0
H20 H 0.09432 0.66874 0.42387 0.0
H21 H 0.07137 0.66528 0.38177 0.0
H22 H 0.96857 0.52086 0.34447 0.0
H23 H 0.90508 0.49634 0.35521 0.0
H24 H 0.92847 0.60541 0.35587 0.0
H25 H 0.99207 0.62959 0.34577 0.0
O26 O 0.08209 0.56904 0.18136 0.0
O27 O 0.05982 0.60298 0.17479 0.0
O28 O 0.22064 0.68657 0.41711 0.0
O29 O 0.23377 0.74035 0.40382 0.0
C30 C 0.02478 0.58833 0.30762 0.0
C31 C 0.0596 0.60621 0.2965 0.0
C32 C 0.09106 0.6264 0.31149 0.0
C33 C 0.08765 0.62758 0.33773 0.0
C34 C 0.05269 0.61007 0.34888 0.0
C35 C 0.02128 0.59142 0.33367 0.0
C36 C 0.99255 0.56316 0.29202 0.0
C37 C 0.98612 0.52923 0.28573 0.0
C38 C 0.9609 0.50788 0.2672 0.0
C39 C 0.94147 0.52001 0.25456 0.0
C40 C 0.94659 0.55326 0.26188 0.0
C41 C 0.97194 0.57468 0.28056 0.0
C42 C 0.06295 0.60253 0.2691 0.0
C43 C 0.07612 0.58195 0.26023 0.0
C44 C 0.07834 0.57765 0.23448 0.0
C45 C 0.06738 0.59386 0.21716 0.0
C46 C 0.05437 0.61465 0.22619 0.0
C47 C 0.05225 0.61899 0.25193 0.0
C48 C 0.12766 0.64606 0.29971 0.0
C49 C 0.1528 0.63721 0.30587 0.0
C50 C 0.18801 0.65749 0.2962 0.0
C51 C 0.19842 0.68613 0.27925 0.0
C52 C 0.17236 0.6936 0.2722 0.0
C53 C 0.13762 0.67422 0.28267 0.0
C54 C 0.12083 0.64713 0.35372 0.0
C55 C 0.13031 0.62755 0.36882 0.0
C56 C 0.16029 0.64582 0.38487 0.0
C57 C 0.18158 0.68407 0.38592 0.0
C58 C 0.17241 0.7036 0.37035 0.0
C59 C 0.14227 0.68526 0.35439 0.0
C60 C 0.05005 0.60823 0.37667 0.0
C61 C 0.04275 0.5765 0.38854 0.0
C62 C 0.0556 0.57823 0.41283 0.0
C63 C 0.07606 0.61178 0.42553 0.0
C64 C 0.07882 0.6424 0.41478 0.0
C65 C 0.0655 0.64049 0.39064 0.0
C66 C 0.98481 0.57694 0.34439 0.0
C67 C 0.96009 0.53943 0.34752 0.0
C68 C 0.92379 0.52552 0.3534 0.0
C69 C 0.91155 0.5489 0.35605 0.0
C70 C 0.93697 0.58667 0.35415 0.0
C71 C 0.97331 0.60054 0.34837 0.0
C72 C 0.06949 0.589 0.18983 0.0
C73 C 0.21314 0.70359 0.40323 0.0
H74 H 0.65612 0.13684 0.33002 0.0
H75 H 0.56611 0.20892 0.59609 0.0
H76 H 0.58836 0.0129 0.44031 0.0
H77 H 0.57663 0.97485 0.40342 0.0
H78 H 0.46699 0.94989 0.39979 0.0
H79 H 0.47861 0.98628 0.43736 0.0
H80 H 0.63163 0.10541 0.43729 0.0
H81 H 0.65266 0.12383 0.39417 0.0
H82 H 0.54112 0.07222 0.36956 0.0
H83 H 0.52053 0.05448 0.41279 0.0
H84 H 0.63286 0.15656 0.48645 0.0
H85 H 0.65122 0.21874 0.47777 0.0
H86 H 0.55675 0.17736 0.42993 0.0
H87 H 0.53666 0.11564 0.44125 0.0
H88 H 0.61627 0.11404 0.53125 0.0
H89 H 0.62684 0.15533 0.56583 0.0
H90 H 0.53287 0.15543 0.54263 0.0
H91 H 0.52237 0.11372 0.50828 0.0
H92 H 0.5843 0.03548 0.53491 0.0
H93 H 0.59161 0.04736 0.57959 0.0
H94 H 0.49412 0.04863 0.58034 0.0
H95 H 0.48862 0.03897 0.53502 0.0
H96 H 0.54492 0.96508 0.48733 0.0
H97 H 0.5013 0.90073 0.49788 0.0
H98 H 0.41795 0.92254 0.50918 0.0
H99 H 0.46162 0.98641 0.49904 0.0
O100 O 0.64723 0.12941 0.34695 0.0
O101 O 0.58941 0.10223 0.33525 0.0
O102 O 0.61208 0.19364 0.59262 0.0
O103 O 0.56301 0.19326 0.58222 0.0
C104 C 0.54321 0.0298 0.46112 0.0
C105 C 0.56213 0.06699 0.45433 0.0
C106 C 0.56924 0.09353 0.47249 0.0
C107 C 0.56031 0.08323 0.49781 0.0
C108 C 0.54214 0.04618 0.50468 0.0
C109 C 0.53199 0.01927 0.48619 0.0
C110 C 0.53428 0.00218 0.4415 0.0
C111 C 0.56154 0.99832 0.43186 0.0
C112 C 0.55488 0.97693 0.41057 0.0
C113 C 0.52094 0.95945 0.3983 0.0
C114 C 0.49326 0.96229 0.40881 0.0
C115 C 0.49981 0.98321 0.4303 0.0
C116 C 0.57457 0.07829 0.42811 0.0
C117 C 0.61181 0.09816 0.42255 0.0
C118 C 0.62373 0.1086 0.3979 0.0
C119 C 0.59856 0.09936 0.37839 0.0
C120 C 0.56122 0.07964 0.38411 0.0
C121 C 0.54937 0.06932 0.40877 0.0
C122 C 0.58319 0.13147 0.46474 0.0
C123 C 0.61599 0.16104 0.47432 0.0
C124 C 0.62668 0.19668 0.46901 0.0
C125 C 0.60536 0.20349 0.45328 0.0
C126 C 0.57341 0.17356 0.44276 0.0
C127 C 0.56217 0.13805 0.44878 0.0
C128 C 0.56855 0.11091 0.51732 0.0
C129 C 0.59815 0.1232 0.5336 0.0
C130 C 0.6041 0.14676 0.55333 0.0
C131 C 0.58063 0.15862 0.55704 0.0
C132 C 0.55141 0.14677 0.54034 0.0
C133 C 0.54544 0.12312 0.52063 0.0
C134 C 0.53623 0.0368 0.53169 0.0
C135 C 0.56357 0.03663 0.54492 0.0
C136 C 0.56772 0.0436 0.57065 0.0
C137 C 0.54409 0.05019 0.58369 0.0
C138 C 0.51364 0.04508 0.57084 0.0
C139 C 0.50992 0.03875 0.54498 0.0
C140 C 0.50647 0.9804 0.49268 0.0
C141 C 0.51724 0.95582 0.49215 0.0
C142 C 0.49226 0.91912 0.49803 0.0
C143 C 0.4562 0.90656 0.50454 0.0
C144 C 0.44564 0.93139 0.50475 0.0
C145 C 0.47052 0.96789 0.49891 0.0
C146 C 0.6113 0.11035 0.35221 0.0
C147 C 0.58634 0.18293 0.57835 0.0
H148 H 0.40771 0.38943 0.80252 0.0
H149 H 0.54278 0.37475 0.52481 0.0
H150 H 0.45816 0.51148 0.67106 0.0
H151 H 0.44986 0.53585 0.70928 0.0
H152 H 0.34383 0.43708 0.71926 0.0
H153 H 0.35145 0.41331 0.6796 0.0
H154 H 0.46108 0.4577 0.70459 0.0
H155 H 0.44723 0.4387 0.74836 0.0
H156 H 0.358 0.33228 0.72439 0.0
H157 H 0.37179 0.35194 0.68061 0.0
H158 H 0.49143 0.42131 0.68363 0.0
H159 H 0.51395 0.38373 0.69629 0.0
H160 H 0.44192 0.30153 0.64278 0.0
H161 H 0.41793 0.33834 0.63108 0.0
H162 H 0.52469 0.45217 0.62623 0.0
H163 H 0.56348 0.44368 0.59831 0.0
H164 H 0.46856 0.36423 0.55579 0.0
H165 H 0.43009 0.37279 0.58401 0.0
H166 H 0.50816 0.50876 0.60672 0.0
H167 H 0.54544 0.52391 0.56911 0.0
H168 H 0.45234 0.43623 0.52947 0.0
H169 H 0.41534 0.42222 0.56688 0.0
H170 H 0.45928 0.52975 0.62995 0.0
H171 H 0.43524 0.56565 0.61785 0.0
H172 H 0.3383 0.46824 0.58896 0.0
H173 H 0.36125 0.43228 0.60398 0.0
O174 O 0.41281 0.39628 0.78505 0.0
O175 O 0.36782 0.34169 0.77179 0.0
O176 O 0.57545 0.41597 0.56053 0.0
O177 O 0.52791 0.37752 0.53672 0.0
C178 C 0.416 0.4432 0.65393 0.0
C179 C 0.42464 0.41855 0.66295 0.0
C180 C 0.44187 0.40685 0.64708 0.0
C181 C 0.45187 0.42109 0.62262 0.0
C182 C 0.44323 0.44568 0.61363 0.0
C183 C 0.42403 0.45563 0.62887 0.0
C184 C 0.40518 0.4609 0.6722 0.0
C185 C 0.43209 0.49598 0.68041 0.0
C186 C 0.42762 0.50957 0.70259 0.0
C187 C 0.39653 0.48798 0.71733 0.0
C188 C 0.368 0.45417 0.7081 0.0
C189 C 0.37229 0.44068 0.6855 0.0
C190 C 0.41718 0.4063 0.68947 0.0
C191 C 0.43845 0.43035 0.70884 0.0
C192 C 0.43054 0.41939 0.73383 0.0
C193 C 0.40142 0.384 0.73989 0.0
C194 C 0.38056 0.35976 0.72036 0.0
C195 C 0.3884 0.37085 0.69536 0.0
C196 C 0.45274 0.38244 0.65659 0.0
C197 C 0.47957 0.39467 0.67524 0.0
C198 C 0.4925 0.3733 0.68239 0.0
C199 C 0.4795 0.33981 0.67053 0.0
C200 C 0.45221 0.32725 0.6522 0.0
C201 C 0.43861 0.34822 0.64551 0.0
C202 C 0.47466 0.41314 0.60707 0.0
C203 C 0.51232 0.43259 0.61107 0.0
C204 C 0.5344 0.42779 0.59504 0.0
C205 C 0.51913 0.40342 0.57471 0.0
C206 C 0.48121 0.38331 0.57118 0.0
C207 C 0.45916 0.38804 0.5873 0.0
C208 C 0.45917 0.46422 0.5895 0.0
C209 C 0.49538 0.49426 0.58945 0.0
C210 C 0.51681 0.50242 0.56808 0.0
C211 C 0.5022 0.48064 0.54649 0.0
C212 C 0.46459 0.45369 0.5457 0.0
C213 C 0.44317 0.44568 0.56706 0.0
C214 C 0.41156 0.47827 0.61858 0.0
C215 C 0.43259 0.51615 0.62141 0.0
C216 C 0.41889 0.53676 0.61394 0.0
C217 C 0.38436 0.52016 0.60243 0.0
C218 C 0.36435 0.48221 0.59842 0.0
C219 C 0.37763 0.46151 0.60669 0.0
C220 C 0.39291 0.37257 0.76649 0.0
C221 C 0.54262 0.39936 0.55701 0.0
H222 H 0.05623 0.57202 0.98994 0.0
H223 H 0.22471 0.57979 0.72656 0.0
H224 H 0.98626 0.55267 0.86288 0.0
H225 H 0.94791 0.53553 0.90019 0.0
H226 H 0.92061 0.42551 0.89349 0.0
H227 H 0.95883 0.44281 0.85599 0.0
H228 H 0.06837 0.5881 0.88089 0.0
H229 H 0.06875 0.59252 0.92666 0.0
H230 H 0.02111 0.47674 0.93204 0.0
H231 H 0.02138 0.47284 0.8863 0.0
H232 H 0.13886 0.60464 0.84222 0.0
H233 H 0.19625 0.61422 0.85713 0.0
H234 H 0.13973 0.50009 0.87577 0.0
H235 H 0.08286 0.49078 0.86076 0.0
H236 H 0.10901 0.60538 0.78835 0.0
H237 H 0.15959 0.62757 0.75898 0.0
H238 H 0.15868 0.53013 0.77145 0.0
H239 H 0.10773 0.50805 0.80053 0.0
H240 H 0.03178 0.5725 0.77192 0.0
H241 H 0.05394 0.59067 0.72923 0.0
H242 H 0.06507 0.4994 0.7228 0.0
H243 H 0.04469 0.48274 0.76603 0.0
H244 H 0.94425 0.51225 0.81584 0.0
H245 H 0.88388 0.46762 0.79952 0.0
H246 H 0.9262 0.40899 0.76538 0.0
H247 H 0.98411 0.45004 0.78525 0.0
O248 O 0.05669 0.56982 0.97191 0.0
O249 O 0.03101 0.51 0.97357 0.0
O250 O 0.20516 0.62201 0.73325 0.0
O251 O 0.20563 0.57227 0.73879 0.0
C252 C 0.0076 0.51219 0.84066 0.0
C253 C 0.04177 0.52729 0.85257 0.0
C254 C 0.07316 0.53939 0.83819 0.0
C255 C 0.07127 0.53993 0.81187 0.0
C256 C 0.03718 0.52459 0.79985 0.0
C257 C 0.00489 0.50874 0.8142 0.0
C258 C 0.97529 0.49896 0.85678 0.0
C259 C 0.97061 0.52447 0.86878 0.0
C260 C 0.94889 0.51471 0.89015 0.0
C261 C 0.93186 0.47938 0.89989 0.0
C262 C 0.93383 0.45303 0.88645 0.0
C263 C 0.95522 0.46272 0.86489 0.0
C264 C 0.04462 0.53014 0.88034 0.0
C265 C 0.0584 0.56382 0.89203 0.0
C266 C 0.05842 0.56622 0.91815 0.0
C267 C 0.0447 0.53492 0.93301 0.0
C268 C 0.03171 0.50133 0.92117 0.0
C269 C 0.03183 0.49902 0.89506 0.0
C270 C 0.10683 0.54704 0.85043 0.0
C271 C 0.13889 0.58193 0.84992 0.0
C272 C 0.17154 0.58727 0.85831 0.0
C273 C 0.17239 0.55781 0.86748 0.0
C274 C 0.13982 0.52333 0.86908 0.0
C275 C 0.10735 0.51798 0.86052 0.0
C276 C 0.10477 0.55515 0.79654 0.0
C277 C 0.12007 0.58908 0.78491 0.0
C278 C 0.14886 0.60162 0.7681 0.0
C279 C 0.16304 0.58051 0.76275 0.0
C280 C 0.14833 0.547 0.77507 0.0
C281 C 0.11942 0.53443 0.79182 0.0
C282 C 0.03655 0.52631 0.77209 0.0
C283 C 0.03748 0.55554 0.76091 0.0
C284 C 0.05038 0.56596 0.73645 0.0
C285 C 0.06212 0.54696 0.72266 0.0
C286 C 0.05722 0.51523 0.73306 0.0
C287 C 0.0448 0.50516 0.75762 0.0
C288 C 0.96891 0.48464 0.80184 0.0
C289 C 0.94022 0.4894 0.80516 0.0
C290 C 0.90567 0.46399 0.79533 0.0
C291 C 0.89941 0.43398 0.7811 0.0
C292 C 0.92897 0.43064 0.77684 0.0
C293 C 0.96279 0.45495 0.78765 0.0
C294 C 0.0437 0.53735 0.96071 0.0
C295 C 0.1926 0.59301 0.74409 0.0
H296 H 0.57748 0.97724 0.80328 0.0
H297 H 0.58305 0.82839 0.05616 0.0
H298 H 0.56978 0.04378 0.92715 0.0
H299 H 0.57475 0.08527 0.89473 0.0
H300 H 0.69057 0.15492 0.9083 0.0
H301 H 0.68536 0.11231 0.94026 0.0
H302 H 0.5568 0.97192 0.91183 0.0
H303 H 0.55449 0.96668 0.86611 0.0
H304 H 0.67124 0.04272 0.86306 0.0
H305 H 0.67319 0.04734 0.90883 0.0
H306 H 0.54174 0.92337 0.95482 0.0
H307 H 0.52385 0.86304 0.94048 0.0
H308 H 0.63475 0.90592 0.91841 0.0
H309 H 0.65255 0.96675 0.93291 0.0
H310 H 0.5482 0.94715 0.01064 0.0
H311 H 0.53038 0.89436 0.0369 0.0
H312 H 0.62917 0.90199 0.01609 0.0
H313 H 0.64696 0.95514 0.99023 0.0
H314 H 0.57529 0.03368 0.02124 0.0
H315 H 0.56024 0.02087 0.06548 0.0
H316 H 0.64074 0.99433 0.07337 0.0
H317 H 0.6582 0.01107 0.02973 0.0
H318 H 0.59637 0.09021 0.9753 0.0
H319 H 0.62117 0.15141 0.99095 0.0
H320 H 0.70739 0.14918 0.02808 0.0
H321 H 0.68522 0.09034 0.00932 0.0
O322 O 0.57906 0.9795 0.82136 0.0
O323 O 0.6391 0.01885 0.8208 0.0
O324 O 0.5393 0.84679 0.05631 0.0
O325 O 0.58945 0.84923 0.04593 0.0
C326 C 0.62424 0.04628 0.95243 0.0
C327 C 0.61645 0.01357 0.94135 0.0
C328 C 0.6093 0.9843 0.95657 0.0
C329 C 0.60984 0.98741 0.98291 0.0
C330 C 0.61924 0.02064 0.99419 0.0
C331 C 0.62693 0.05037 0.97888 0.0
C332 C 0.62725 0.07492 0.9359 0.0
C333 C 0.59614 0.06832 0.92337 0.0
C334 C 0.59901 0.09223 0.90497 0.0
C335 C 0.63309 0.12334 0.89876 0.0
C336 C 0.66398 0.1309 0.91237 0.0
C337 C 0.66109 0.10681 0.93075 0.0
C338 C 0.61518 0.0098 0.91361 0.0
C339 C 0.58186 0.98714 0.90125 0.0
C340 C 0.58062 0.98434 0.87513 0.0
C341 C 0.61269 0.00427 0.86092 0.0
C342 C 0.64605 0.02697 0.87343 0.0
C343 C 0.64725 0.02966 0.89955 0.0
C344 C 0.59841 0.94912 0.9451 0.0
C345 C 0.56209 0.9198 0.9467 0.0
C346 C 0.55203 0.88544 0.93866 0.0
C347 C 0.57813 0.87985 0.92881 0.0
C348 C 0.61424 0.90963 0.92604 0.0
C349 C 0.62437 0.94418 0.93424 0.0
C350 C 0.59893 0.95503 0.99862 0.0
C351 C 0.566 0.93743 0.01185 0.0
C352 C 0.55586 0.90726 0.02679 0.0
C353 C 0.57837 0.89396 0.0286 0.0
C354 C 0.61122 0.91153 0.01513 0.0
C355 C 0.62141 0.94182 0.0003 0.0
C356 C 0.61722 0.02242 0.02202 0.0
C357 C 0.59077 0.02664 0.03277 0.0
C358 C 0.58172 0.01856 0.05803 0.0
C359 C 0.59808 0.00491 0.07287 0.0
C360 C 0.62726 0.00445 0.06266 0.0
C361 C 0.63714 0.01376 0.03757 0.0
C362 C 0.6395 0.08609 0.99054 0.0
C363 C 0.62112 0.10336 0.98634 0.0
C364 C 0.63503 0.13823 0.9958 0.0
C365 C 0.6668 0.15595 0.01064 0.0
C366 C 0.68379 0.13741 0.01599 0.0
C367 C 0.67072 0.10328 0.00564 0.0
C368 C 0.61123 0.00141 0.83316 0.0
C369 C 0.56774 0.86191 0.04446 0.0
H370 H 0.44655 0.41522 0.0023 0.0
H371 H 0.688 0.49483 0.23921 0.0
H372 H 0.45257 0.50367 0.11757 0.0
H373 H 0.42906 0.51401 0.07904 0.0
H374 H 0.5315 0.61682 0.06907 0.0
H375 H 0.55515 0.60586 0.10677 0.0
H376 H 0.47931 0.44854 0.10895 0.0
H377 H 0.45816 0.42418 0.06668 0.0
H378 H 0.53899 0.5292 0.03554 0.0
H379 H 0.56004 0.55308 0.07787 0.0
H380 H 0.53892 0.44087 0.14903 0.0
H381 H 0.57632 0.41813 0.13705 0.0
H382 H 0.6363 0.50858 0.08588 0.0
H383 H 0.60146 0.53292 0.10004 0.0
H384 H 0.53165 0.46737 0.19811 0.0
H385 H 0.56431 0.45184 0.2269 0.0
H386 H 0.66576 0.532 0.19119 0.0
H387 H 0.63274 0.54757 0.16272 0.0
H388 H 0.5071 0.51402 0.21137 0.0
H389 H 0.5271 0.51248 0.25329 0.0
H390 H 0.63725 0.59857 0.23364 0.0
H391 H 0.61673 0.59821 0.191 0.0
H392 H 0.48101 0.55183 0.18487 0.0
H393 H 0.47724 0.60258 0.19981 0.0
H394 H 0.57785 0.67876 0.16192 0.0
H395 H 0.5823 0.62827 0.14802 0.0
O396 O 0.45575 0.42521 0.01882 0.0
O397 O 0.49703 0.48008 0.00385 0.0
O398 O 0.62139 0.45874 0.2452 0.0
O399 O 0.67436 0.49996 0.22775 0.0
C400 C 0.52375 0.54215 0.13178 0.0
C401 C 0.5322 0.51761 0.12226 0.0
C402 C 0.55172 0.50758 0.13716 0.0
C403 C 0.56018 0.51973 0.16222 0.0
C404 C 0.55158 0.54408 0.17172 0.0
C405 C 0.53473 0.55646 0.15624 0.0
C406 C 0.50552 0.55413 0.11506 0.0
C407 C 0.46926 0.52921 0.1077 0.0
C408 C 0.45591 0.53506 0.0857 0.0
C409 C 0.47876 0.56591 0.07104 0.0
C410 C 0.51352 0.5927 0.08005 0.0
C411 C 0.52688 0.58676 0.10184 0.0
C412 C 0.52094 0.50262 0.09647 0.0
C413 C 0.49253 0.46615 0.09296 0.0
C414 C 0.48044 0.45236 0.0688 0.0
C415 C 0.49669 0.47483 0.04773 0.0
C416 C 0.52568 0.51123 0.05136 0.0
C417 C 0.53773 0.52496 0.07551 0.0
C418 C 0.56781 0.48884 0.12572 0.0
C419 C 0.56001 0.45556 0.13511 0.0
C420 C 0.58128 0.44246 0.12803 0.0
C421 C 0.61003 0.46194 0.11086 0.0
C422 C 0.61534 0.49349 0.09981 0.0
C423 C 0.59488 0.5071 0.10747 0.0
C424 C 0.57988 0.50862 0.17842 0.0
C425 C 0.56091 0.48142 0.1965 0.0
C426 C 0.57963 0.47262 0.2129 0.0
C427 C 0.61768 0.49075 0.21138 0.0
C428 C 0.63649 0.51756 0.1929 0.0
C429 C 0.61772 0.52643 0.17656 0.0
C430 C 0.56053 0.55583 0.19816 0.0
C431 C 0.53518 0.53385 0.2165 0.0
C432 C 0.5469 0.533 0.24059 0.0
C433 C 0.58418 0.55471 0.24681 0.0
C434 C 0.60858 0.58063 0.2293 0.0
C435 C 0.59683 0.58105 0.20504 0.0
C436 C 0.53154 0.58644 0.16497 0.0
C437 C 0.50217 0.57948 0.17985 0.0
C438 C 0.50014 0.60836 0.1884 0.0
C439 C 0.52718 0.64437 0.1818 0.0
C440 C 0.55656 0.65117 0.16699 0.0
C441 C 0.55899 0.62244 0.15897 0.0
C442 C 0.48331 0.46034 0.02212 0.0
C443 C 0.63777 0.48204 0.22913 0.0
Co444 Co 0.64822 0.44639 0.40079 0.0
O445 O 0.68548 0.45043 0.37975 0.0
O446 O 0.69309 0.49404 0.40492 0.0
C447 C 0.63044 0.39126 0.41609 0.0
O448 O 0.61568 0.45114 0.42563 0.0
Co449 Co 0.56742 0.38327 0.39097 0.0
O450 O 0.55771 0.40323 0.42069 0.0
C451 C 0.60113 0.45109 0.36124 0.0
C452 C 0.70722 0.48263 0.38911 0.0
C453 C 0.58161 0.43295 0.43134 0.0
O454 O 0.63145 0.46495 0.37308 0.0
O455 O 0.57333 0.41885 0.36493 0.0
O456 O 0.65814 0.42061 0.42571 0.0
O457 O 0.61626 0.39578 0.39644 0.0
Co458 Co 0.25899 0.65461 0.57096 0.0
O459 O 0.2927 0.64697 0.58807 0.0
O460 O 0.24922 0.60713 0.5624 0.0
C461 C 0.30155 0.71186 0.5585 0.0
O462 O 0.22049 0.65389 0.54885 0.0
Co463 Co 0.2481 0.71543 0.58812 0.0
O464 O 0.22049 0.70411 0.55649 0.0
C465 C 0.21067 0.64543 0.6152 0.0
C466 C 0.27664 0.61568 0.57686 0.0
C467 C 0.20953 0.67507 0.54409 0.0
O468 O 0.22371 0.63275 0.59996 0.0
O469 O 0.21832 0.67795 0.61424 0.0
O470 O 0.29614 0.68409 0.5458 0.0
O471 O 0.28327 0.70415 0.57903 0.0
Co472 Co 0.63639 0.25239 0.73075 0.0
O473 O 0.62056 0.27416 0.70748 0.0
O474 O 0.58871 0.24079 0.74019 0.0
C475 C 0.69275 0.30215 0.7366 0.0
O476 O 0.64482 0.22689 0.75948 0.0
Co477 Co 0.69967 0.24392 0.71655 0.0
O478 O 0.69732 0.23119 0.75226 0.0
C479 C 0.62731 0.19442 0.6942 0.0
C480 C 0.59131 0.26017 0.72093 0.0
C481 C 0.67051 0.22289 0.76635 0.0
O482 O 0.61405 0.20783 0.70853 0.0
O483 O 0.66114 0.2063 0.69355 0.0
O484 O 0.66538 0.29838 0.74874 0.0
O485 O 0.68484 0.27777 0.71969 0.0
Co486 Co 0.42664 0.61259 0.89021 0.0
O487 O 0.40044 0.62455 0.86812 0.0
O488 O 0.37506 0.57797 0.8945 0.0
C489 C 0.46488 0.669 0.90496 0.0
O490 O 0.44478 0.59331 0.91692 0.0
Co491 Co 0.50836 0.64486 0.8818 0.0
O492 O 0.50595 0.62676 0.91607 0.0
C493 C 0.45407 0.58566 0.84918 0.0
C494 C 0.37109 0.59702 0.8778 0.0
C495 C 0.47584 0.60335 0.92641 0.0
O496 O 0.42836 0.58179 0.86306 0.0
O497 O 0.48766 0.6106 0.85264 0.0
O498 O 0.43249 0.64824 0.91429 0.0
O499 O 0.47207 0.65651 0.88548 0.0
Co500 Co 0.80881 0.41733 0.07545 0.0
O501 O 0.76912 0.40875 0.09603 0.0
O502 O 0.8007 0.45559 0.07024 0.0
C503 C 0.78131 0.36028 0.06108 0.0
O504 O 0.84921 0.43347 0.04979 0.0
Co505 Co 0.84873 0.37889 0.08649 0.0
O506 O 0.87044 0.3975 0.05295 0.0
C507 C 0.85702 0.4353 0.12064 0.0
C508 C 0.77396 0.43791 0.08598 0.0
C509 C 0.86834 0.42167 0.04154 0.0
O510 O 0.84419 0.4458 0.10355 0.0
O511 O 0.85764 0.40672 0.11848 0.0
O512 O 0.77419 0.3825 0.05101 0.0
O513 O 0.80185 0.37198 0.08075 0.0
Co514 Co 0.46183 0.82254 0.2216 0.0
O515 O 0.46227 0.79431 0.19423 0.0
O516 O 0.50466 0.82092 0.22376 0.0
C517 C 0.40356 0.782 0.23236 0.0
O518 O 0.46965 0.85194 0.25351 0.0
Co519 Co 0.41048 0.85024 0.22196 0.0
O520 O 0.42072 0.85501 0.2584 0.0
C521 C 0.47352 0.88257 0.18751 0.0
C522 C 0.4919 0.8 0.2041 0.0
C523 C 0.44923 0.85801 0.26695 0.0
O524 O 0.48714 0.86753 0.1997 0.0
O525 O 0.44222 0.87662 0.19238 0.0
O526 O 0.42894 0.77781 0.2401 0.0
O527 O 0.41371 0.80864 0.21708 0.0
H528 H 0.24584 0.66525 0.27055 0.0
H529 H 0.23757 0.7585 0.26621 0.0
H530 H 0.29892 0.79508 0.24976 0.0
H531 H 0.35553 0.80139 0.23747 0.0
H532 H 0.36754 0.71152 0.24767 0.0
H533 H 0.30428 0.67306 0.26177 0.0
C534 C 0.25743 0.69371 0.26653 0.0
C535 C 0.23639 0.70863 0.26946 0.0
C536 C 0.29358 0.71535 0.25827 0.0
C537 C 0.25223 0.74557 0.26349 0.0
C538 C 0.28766 0.76683 0.25435 0.0
C539 C 0.34434 0.77343 0.24285 0.0
C540 C 0.36593 0.75916 0.24147 0.0
C541 C 0.30856 0.75202 0.2517 0.0
C542 C 0.35128 0.72302 0.24868 0.0
C543 C 0.31517 0.70106 0.25665 0.0
H544 H 0.56063 0.22747 0.44488 0.0
H545 H 0.67433 0.26569 0.44992 0.0
H546 H 0.69151 0.32749 0.44173 0.0
H547 H 0.6746 0.37046 0.4309 0.0
H548 H 0.56175 0.33092 0.41967 0.0
H549 H 0.54383 0.26955 0.43195 0.0
C550 C 0.58924 0.249 0.44375 0.0
C551 C 0.616 0.24145 0.44809 0.0
C552 C 0.59908 0.28433 0.43784 0.0
C553 C 0.65291 0.27038 0.44722 0.0
C554 C 0.66287 0.30585 0.44228 0.0
C555 C 0.64608 0.34838 0.43142 0.0
C556 C 0.61939 0.35494 0.42472 0.0
C557 C 0.63622 0.31308 0.4374 0.0
C558 C 0.58261 0.32625 0.42487 0.0
C559 C 0.57244 0.29129 0.43184 0.0
H560 H 0.31243 0.49842 0.5998 0.0
H561 H 0.42182 0.59221 0.58811 0.0
H562 H 0.39807 0.62952 0.58023 0.0
H563 H 0.34656 0.6364 0.57742 0.0
H564 H 0.23707 0.54191 0.58324 0.0
H565 H 0.26058 0.50375 0.5918 0.0
C566 C 0.33129 0.52677 0.59499 0.0
C567 C 0.36922 0.54223 0.59523 0.0
C568 C 0.31738 0.54805 0.58931 0.0
C569 C 0.3927 0.57939 0.58915 0.0
C570 C 0.37911 0.60088 0.58429 0.0
C571 C 0.3279 0.60738 0.58045 0.0
C572 C 0.29023 0.59191 0.58002 0.0
C573 C 0.34159 0.58562 0.58461 0.0
C574 C 0.26621 0.55429 0.58352 0.0
C575 C 0.27966 0.53258 0.58849 0.0
H576 H 0.84307 0.44141 0.76858 0.0
H577 H 0.87064 0.36122 0.77229 0.0
H578 H 0.8115 0.31544 0.75564 0.0
H579 H 0.7506 0.29675 0.74169 0.0
H580 H 0.71852 0.37287 0.74593 0.0
H581 H 0.78048 0.42143 0.75823 0.0
C582 C 0.83627 0.41392 0.76624 0.0
C583 C 0.8623 0.4056 0.77141 0.0
C584 C 0.8011 0.38673 0.75808 0.0
C585 C 0.85232 0.36947 0.76768 0.0
C586 C 0.81807 0.34282 0.75842 0.0
C587 C 0.75724 0.32396 0.74527 0.0
C588 C 0.73035 0.33145 0.74282 0.0
C589 C 0.79221 0.35107 0.75366 0.0
C590 C 0.73904 0.36669 0.74772 0.0
C591 C 0.77436 0.39435 0.75476 0.0
H592 H 0.53993 0.82037 0.95759 0.0
H593 H 0.59204 0.85614 0.88555 0.0
H594 H 0.5654 0.79273 0.87283 0.0
H595 H 0.52053 0.72723 0.88046 0.0
H596 H 0.46553 0.69282 0.95175 0.0
H597 H 0.50021 0.7556 0.96667 0.0
C598 C 0.54562 0.81421 0.93917 0.0
C599 C 0.56718 0.84255 0.9223 0.0
C600 C 0.5295 0.77799 0.93186 0.0
C601 C 0.57529 0.83455 0.89875 0.0
C602 C 0.55991 0.79838 0.89146 0.0
C603 C 0.51677 0.73353 0.8994 0.0
C604 C 0.4903 0.70575 0.91492 0.0
C605 C 0.53599 0.76986 0.90758 0.0
C606 C 0.48549 0.71399 0.93941 0.0
C607 C 0.50524 0.74981 0.94793 0.0
H608 H 0.68306 0.50665 0.10291 0.0
H609 H 0.59602 0.39294 0.10813 0.0
H610 H 0.63971 0.37597 0.10266 0.0
H611 H 0.70247 0.39334 0.0959 0.0
H612 H 0.78812 0.50639 0.08611 0.0
H613 H 0.74477 0.52376 0.09335 0.0
C614 C 0.67329 0.47806 0.10229 0.0
C615 C 0.63609 0.45117 0.10594 0.0
C616 C 0.69834 0.46842 0.09839 0.0
C617 C 0.62446 0.41433 0.10578 0.0
C618 C 0.64941 0.40455 0.10251 0.0
C619 C 0.71161 0.4218 0.09553 0.0
C620 C 0.74835 0.44868 0.09083 0.0
C621 C 0.6864 0.43137 0.09889 0.0
C622 C 0.7599 0.48535 0.08982 0.0
C623 C 0.73517 0.49522 0.09393 0.0
H624 H 0.40716 0.88094 0.54244 0.0
H625 H 0.44544 0.84527 0.48209 0.0
H626 H 0.40051 0.78173 0.49307 0.0
H627 H 0.34995 0.73627 0.51984 0.0
H628 H 0.3121 0.77295 0.57989 0.0
H629 H 0.35672 0.83608 0.56862 0.0
C630 C 0.40547 0.85929 0.5315 0.0
C631 C 0.42955 0.86788 0.51141 0.0
C632 C 0.37946 0.82296 0.53777 0.0
C633 C 0.42747 0.83944 0.4978 0.0
C634 C 0.40162 0.8031 0.50396 0.0
C635 C 0.35137 0.75811 0.53034 0.0
C636 C 0.32769 0.74991 0.55064 0.0
C637 C 0.3774 0.79452 0.52389 0.0
C638 C 0.32998 0.77848 0.56418 0.0
C639 C 0.35554 0.81463 0.55778 0.0
H640 H 0.48555 0.31403 0.71524 0.0
H641 H 0.51309 0.32191 0.63699 0.0
H642 H 0.54851 0.2956 0.64543 0.0
H643 H 0.57545 0.27493 0.67557 0.0
H644 H 0.546 0.26409 0.75361 0.0
H645 H 0.50706 0.28648 0.74482 0.0
C646 C 0.49901 0.30949 0.70009 0.0
C647 C 0.49702 0.31995 0.67559 0.0
C648 C 0.51897 0.29398 0.70507 0.0
C649 C 0.51422 0.31384 0.65597 0.0
C650 C 0.53457 0.29899 0.66081 0.0
C651 C 0.56013 0.27708 0.69058 0.0
C652 C 0.56378 0.26831 0.71521 0.0
C653 C 0.53768 0.28962 0.68534 0.0
C654 C 0.5435 0.27067 0.73448 0.0
C655 C 0.52146 0.28367 0.72949 0.0
H656 H 0.23392 0.59303 0.83992 0.0
H657 H 0.18871 0.53137 0.90798 0.0
H658 H 0.24558 0.53569 0.91631 0.0
H659 H 0.30855 0.55804 0.9045 0.0
H660 H 0.35384 0.6212 0.83697 0.0
H661 H 0.2964 0.61509 0.82808 0.0
C662 C 0.23672 0.58099 0.85676 0.0
C663 C 0.20737 0.56219 0.87342 0.0
C664 C 0.26932 0.58354 0.86137 0.0
C665 C 0.211 0.54594 0.89486 0.0
C666 C 0.24344 0.54838 0.89962 0.0
C667 C 0.30563 0.57005 0.8877 0.0
C668 C 0.33525 0.58993 0.87137 0.0
C669 C 0.27276 0.56706 0.88297 0.0
C670 C 0.33135 0.60577 0.84982 0.0
C671 C 0.2986 0.60241 0.84477 0.0
H672 H 0.73852 0.20856 0.01941 0.0
H673 H 0.63119 0.18936 0.0231 0.0
H674 H 0.65774 0.25179 0.03678 0.0
H675 H 0.71137 0.31164 0.04888 0.0
H676 H 0.81662 0.3269 0.05199 0.0
H677 H 0.79075 0.26564 0.03516 0.0
C678 C 0.72055 0.21738 0.02374 0.0
C679 C 0.68271 0.19379 0.01999 0.0
C680 C 0.7357 0.25273 0.03291 0.0
C681 C 0.66044 0.20679 0.0251 0.0
C682 C 0.67556 0.24251 0.03322 0.0
C683 C 0.7285 0.3014 0.04576 0.0
C684 C 0.76578 0.32354 0.05122 0.0
C685 C 0.71312 0.26568 0.0372 0.0
C686 C 0.78785 0.31016 0.0477 0.0
C687 C 0.77306 0.27523 0.03812 0.0
H688 H 0.52493 0.69308 0.15254 0.0
H689 H 0.52351 0.66337 0.22963 0.0
H690 H 0.51803 0.71319 0.24352 0.0
H691 H 0.50944 0.76245 0.23348 0.0
H692 H 0.5033 0.7872 0.15631 0.0
H693 H 0.51675 0.74273 0.14251 0.0
C694 C 0.52371 0.69785 0.17236 0.0
C695 C 0.52463 0.67486 0.19011 0.0
C696 C 0.51949 0.72578 0.18009 0.0
C697 C 0.52263 0.68077 0.21573 0.0
C698 C 0.51965 0.70926 0.22363 0.0
C699 C 0.51199 0.75865 0.21368 0.0
C700 C 0.50618 0.77837 0.19586 0.0
C701 C 0.51763 0.73167 0.20596 0.0
C702 C 0.50823 0.77253 0.17025 0.0
C703 C 0.51561 0.74698 0.1624 0.0
H704 H 0.87907 0.57386 0.38594 0.0
H705 H 0.85515 0.49023 0.33198 0.0
H706 H 0.79035 0.46425 0.33635 0.0
H707 H 0.74046 0.46382 0.35618 0.0
H708 H 0.7627 0.54657 0.41028 0.0
H709 H 0.82826 0.57503 0.40456 0.0
C710 C 0.85968 0.55013 0.37501 0.0
C711 C 0.87207 0.53372 0.35895 0.0
C712 C 0.8222 0.53535 0.37745 0.0
C713 C 0.84647 0.50289 0.34498 0.0
C714 C 0.80936 0.48818 0.34726 0.0
C715 C 0.75956 0.48829 0.36661 0.0
C716 C 0.74668 0.50298 0.3837 0.0
C717 C 0.79694 0.50398 0.36357 0.0
C718 C 0.77189 0.53477 0.39695 0.0
C719 C 0.80937 0.55089 0.3938 0.0
H720 H 0.09131 0.65515 0.46665 0.0
H721 H 0.11274 0.57897 0.43429 0.0
H722 H 0.15438 0.59023 0.46849 0.0
H723 H 0.18775 0.62445 0.50652 0.0
H724 H 0.16883 0.70349 0.53693 0.0
H725 H 0.12412 0.6889 0.5044 0.0
C726 C 0.10505 0.64098 0.46701 0.0
C727 C 0.09848 0.61603 0.44789 0.0
C728 C 0.12998 0.64844 0.48632 0.0
C729 C 0.1164 0.59768 0.44899 0.0
C730 C 0.14069 0.60445 0.46842 0.0
C731 C 0.17375 0.63837 0.50608 0.0
C732 C 0.18196 0.66518 0.52416 0.0
C733 C 0.14809 0.63014 0.48704 0.0
C734 C 0.16348 0.68297 0.5232 0.0
C735 C 0.1377 0.67457 0.50461 0.0
H736 H 0.53281 0.10091 0.60269 0.0
H737 H 0.57987 0.04004 0.62185 0.0
H738 H 0.60882 0.07868 0.65849 0.0
H739 H 0.62597 0.13383 0.68254 0.0
H740 H 0.57451 0.19085 0.66554 0.0
H741 H 0.54105 0.14868 0.63095 0.0
C742 C 0.54826 0.09499 0.61522 0.0
C743 C 0.55463 0.06784 0.60896 0.0
C744 C 0.5643 0.11684 0.6366 0.0
C745 C 0.5753 0.06136 0.62558 0.0
C746 C 0.5918 0.08337 0.64667 0.0
C747 C 0.60695 0.13656 0.67147 0.0
C748 C 0.60294 0.16552 0.67628 0.0
C749 C 0.58745 0.11194 0.65188 0.0
C750 C 0.57795 0.16867 0.66212 0.0
C751 C 0.55899 0.14471 0.6423 0.0
H752 H 0.4482 0.50453 0.75111 0.0
H753 H 0.34627 0.49529 0.74218 0.0
H754 H 0.35302 0.52114 0.7843 0.0
H755 H 0.39178 0.55262 0.82146 0.0
H756 H 0.49552 0.56463 0.82806 0.0
H757 H 0.48421 0.53126 0.78898 0.0
C758 C 0.4274 0.50808 0.75847 0.0
C759 C 0.39722 0.49891 0.74358 0.0
C760 C 0.43196 0.52358 0.78215 0.0
C761 C 0.36987 0.50255 0.75339 0.0
C762 C 0.37385 0.51743 0.77734 0.0
C763 C 0.41156 0.54734 0.81451 0.0
C764 C 0.4446 0.56132 0.82744 0.0
C765 C 0.40532 0.52898 0.7916 0.0
C766 C 0.47012 0.5545 0.81824 0.0
C767 C 0.46368 0.53544 0.79593 0.0
H768 H 0.94774 0.45004 0.93775 0.0
H769 H 0.88288 0.49265 0.91958 0.0
H770 H 0.85934 0.48108 0.96257 0.0
H771 H 0.85587 0.45681 0.00489 0.0
H772 H 0.92139 0.41444 0.02245 0.0
H773 H 0.94633 0.42839 0.9802 0.0
C774 C 0.92812 0.45639 0.94316 0.0
C775 C 0.91644 0.47146 0.9255 0.0
C776 C 0.91513 0.45004 0.96784 0.0
C777 C 0.89192 0.48067 0.93288 0.0
C778 C 0.87857 0.47414 0.95742 0.0
C779 C 0.87596 0.45107 -0.00041 0.0
C780 C 0.88659 0.43446 0.01687 0.0
C781 C 0.88989 0.45868 0.97505 0.0
C782 C 0.91252 0.42703 0.00956 0.0
C783 C 0.92675 0.43488 0.98535 0.0
H784 H 0.52653 0.96562 0.0851 0.0
H785 H 0.63217 0.00209 0.11567 0.0
H786 H 0.6033 0.96678 0.15373 0.0
H787 H 0.54723 0.92417 0.17807 0.0
H788 H 0.44305 0.89261 0.14721 0.0
H789 H 0.47245 0.92819 0.10987 0.0
C790 C 0.54362 0.96696 0.10026 0.0
C791 C 0.58163 0.98688 0.09736 0.0
C792 C 0.52701 0.94726 0.12216 0.0
C793 C 0.60282 0.98681 0.11712 0.0
C794 C 0.58633 0.96669 0.13898 0.0
C795 C 0.53111 0.92527 0.16318 0.0
C796 C 0.49298 0.90573 0.16551 0.0
C797 C 0.54833 0.94648 0.14163 0.0
C798 C 0.47244 0.90758 0.14609 0.0
C799 C 0.48919 0.92785 0.12462 0.0
H800 H 0.55127 0.53101 0.29245 0.0
H801 H 0.64733 0.55673 0.25171 0.0
H802 H 0.66351 0.53075 0.28514 0.0
H803 H 0.64635 0.49349 0.32358 0.0
H804 H 0.54557 0.46009 0.36045 0.0
H805 H 0.53478 0.49524 0.33072 0.0
C806 C 0.57578 0.53101 0.2908 0.0
C807 C 0.59772 0.54568 0.26935 0.0
C808 C 0.58377 0.51389 0.30931 0.0
C809 C 0.63 0.54628 0.26807 0.0
C810 C 0.63909 0.53085 0.28707 0.0
C811 C 0.62229 0.49432 0.32512 0.0
C812 C 0.59662 0.47418 0.3439 0.0
C813 C 0.61557 0.51351 0.30737 0.0
C814 C 0.5654 0.47513 0.34584 0.0
C815 C 0.55931 0.49531 0.32895 0.0
H816 H 0.45858 0.89859 0.38082 0.0
H817 H 0.5701 0.978 0.36015 0.0
H818 H 0.55902 0.95064 0.31866 0.0
H819 H 0.516 0.90779 0.2866 0.0
H820 H 0.40319 0.83363 0.30621 0.0
H821 H 0.41625 0.85557 0.34945 0.0
C822 C 0.4805 0.91016 0.36726 0.0
C823 C 0.51507 0.94053 0.37379 0.0
C824 C 0.4736 0.89533 0.34302 0.0
C825 C 0.54328 0.95434 0.356 0.0
C826 C 0.5369 0.93894 0.33206 0.0
C827 C 0.49452 0.89619 0.3005 0.0
C828 C 0.45873 0.86925 0.29335 0.0
C829 C 0.50197 0.90991 0.32517 0.0
C830 C 0.43092 0.85461 0.31135 0.0
C831 C 0.43835 0.86712 0.33604 0.0
H832 H 0.4903 0.47325 0.49614 0.0
H833 H 0.56835 0.48944 0.55238 0.0
H834 H 0.60291 0.48057 0.52098 0.0
H835 H 0.60689 0.46065 0.47831 0.0
H836 H 0.52513 0.43908 0.42365 0.0
H837 H 0.49615 0.45727 0.45348 0.0
C838 C 0.51502 0.47513 0.5015 0.0
C839 C 0.52648 0.48185 0.52661 0.0
C840 C 0.53399 0.46855 0.48359 0.0
C841 C 0.55902 0.48483 0.53312 0.0
C842 C 0.57865 0.4793 0.51521 0.0
C843 C 0.5831 0.46058 0.47296 0.0
C844 C 0.5679 0.44833 0.44901 0.0
C845 C 0.56583 0.47008 0.49052 0.0
C846 C 0.53697 0.44806 0.44217 0.0
C847 C 0.52041 0.45848 0.45917 0.0
H848 H 0.12114 0.54707 0.70696 0.0
H849 H 0.05135 0.58304 0.68547 0.0
H850 H 0.09123 0.61633 0.65022 0.0
H851 H 0.14772 0.63814 0.627 0.0
H852 H 0.21504 0.59872 0.64622 0.0
H853 H 0.17377 0.5631 0.68075 0.0
C854 C 0.11394 0.5613 0.69423 0.0
C855 C 0.08328 0.5627 0.69911 0.0
C856 C 0.13669 0.57993 0.67373 0.0
C857 C 0.07506 0.582 0.68254 0.0
C858 C 0.09778 0.60095 0.6623 0.0
C859 C 0.15313 0.62149 0.63868 0.0
C860 C 0.18444 0.62126 0.63443 0.0
C861 C 0.12901 0.60069 0.65803 0.0
C862 C 0.19103 0.59924 0.64928 0.0
C863 C 0.16754 0.57902 0.669 0.0
H864 H 0.68583 0.15108 0.86343 0.0
H865 H 0.58781 0.1447 0.88384 0.0
H866 H 0.59066 0.17542 0.84488 0.0
H867 H 0.61993 0.20192 0.80397 0.0
H868 H 0.71862 0.20827 0.78496 0.0
H869 H 0.71667 0.18036 0.8245 0.0
C870 C 0.66549 0.1571 0.85971 0.0
C871 C 0.6367 0.14559 0.8766 0.0
C872 C 0.66723 0.17464 0.83733 0.0
C873 C 0.61013 0.15294 0.87106 0.0
C874 C 0.61176 0.17057 0.84879 0.0
C875 C 0.64106 0.19732 0.80852 0.0
C876 C 0.66916 0.20704 0.79124 0.0
C877 C 0.63995 0.1811 0.83156 0.0
C878 C 0.69645 0.20101 0.79765 0.0
C879 C 0.69547 0.185 0.82036 0.0
H880 H 0.51889 0.57414 0.03099 0.0
H881 H 0.41749 0.55974 0.05228 0.0
H882 H 0.40517 0.56572 0.00821 0.0
H883 H 0.42649 0.5805 0.96426 0.0
H884 H 0.52912 0.59616 0.94428 0.0
H885 H 0.53752 0.58358 0.98728 0.0
C886 C 0.49409 0.57235 0.02594 0.0
C887 C 0.4695 0.56744 0.0447 0.0
C888 C 0.48743 0.57585 0.00087 0.0
C889 C 0.43696 0.56403 0.03803 0.0
C890 C 0.42999 0.56743 0.01291 0.0
C891 C 0.45028 0.5804 0.96926 0.0
C892 C 0.47729 0.5895 0.95121 0.0
C893 C 0.45542 0.57404 0.99423 0.0
C894 C 0.50814 0.58955 0.95792 0.0
C895 C 0.51303 0.58249 0.98249 0.0
H896 H 0.93605 0.5466 0.20973 0.0
H897 H 0.8953 0.44626 0.24994 0.0
H898 H 0.86531 0.41145 0.21203 0.0
H899 H 0.85418 0.40948 0.16694 0.0
H900 H 0.89169 0.50898 0.12676 0.0
H901 H 0.91905 0.54421 0.16532 0.0
C902 C 0.9199 0.51711 0.21038 0.0
C903 C 0.91841 0.49912 0.23262 0.0
C904 C 0.90249 0.49715 0.18847 0.0
C905 C 0.89756 0.46085 0.23298 0.0
C906 C 0.88033 0.44089 0.21132 0.0
C907 C 0.8683 0.4389 0.16665 0.0
C908 C 0.87153 0.45672 0.14402 0.0
C909 C 0.88337 0.45877 0.18885 0.0
C910 C 0.88909 0.49472 0.14397 0.0
C911 C 0.90474 0.51483 0.16598 0.0
loop_
_geom_bond_atom_site_label_1
_geom_bond_atom_site_label_2
_geom_bond_distance
_geom_bond_site_symmetry_2
_ccdc_geom_bond_type
H0 O26 0.856 . S
H1 O29 0.854 . S
H2 C37 0.920 1_455 S
H3 C38 0.930 . S
H4 C40 0.930 . S
H5 C41 0.930 . S
H6 C43 0.931 . S
H7 C44 0.930 . S
H8 C46 0.930 . S
H9 C47 0.929 . S
H10 C49 0.930 . S
H11 C50 0.931 . S
H12 C52 0.930 . S
H13 C53 0.929 . S
H14 C55 0.931 . S
H15 C56 0.930 . S
H16 C58 0.930 . S
H17 C59 0.932 . S
H18 C61 0.930 . S
H19 C62 0.929 . S
H20 C64 0.931 . S
H21 C65 0.930 . S
H22 C67 0.929 . S
H23 C68 0.931 . S
H24 C70 0.930 . S
H25 C71 0.929 1_455 S
O26 H0 0.856 . S
O26 C72 1.300 . S
O27 C72 1.209 . S
O28 C73 1.199 . S
O29 H1 0.854 . S
O29 C73 1.297 . S
C30 C31 1.404 . S
C30 C35 1.397 . S
C30 C36 1.492 . S
C31 C30 1.404 . S
C31 C32 1.396 . S
C31 C42 1.492 . S
C32 C31 1.396 . S
C32 C33 1.397 . S
C32 C48 1.509 . S
C33 C32 1.397 . S
C33 C34 1.412 . S
C33 C54 1.485 . S
C34 C33 1.412 . S
C34 C35 1.388 . S
C34 C60 1.490 . S
C35 C30 1.397 . S
C35 C34 1.388 . S
C35 C66 1.518 1_455 S
C36 C30 1.492 . S
C36 C37 1.366 1_455 S
C36 C41 1.390 1_455 S
C37 H2 0.920 1_655 S
C37 C36 1.366 1_655 S
C37 C38 1.379 . S
C38 H3 0.930 . S
C38 C37 1.379 . S
C38 C39 1.383 . S
C39 C38 1.383 . S
C39 C40 1.395 . S
C40 H4 0.930 . S
C40 C39 1.395 . S
C40 C41 1.362 . S
C41 H5 0.930 . S
C41 C36 1.390 1_655 S
C41 C40 1.362 . S
C42 C31 1.492 . S
C42 C43 1.377 . S
C42 C47 1.397 . S
C43 H6 0.931 . S
C43 C42 1.377 . S
C43 C44 1.376 . S
C44 H7 0.930 . S
C44 C43 1.376 . S
C44 C45 1.376 . S
C45 C44 1.376 . S
C45 C46 1.378 . S
C45 C72 1.486 . S
C46 H8 0.930 . S
C46 C45 1.378 . S
C46 C47 1.376 . S
C47 H9 0.929 . S
C47 C42 1.397 . S
C47 C46 1.376 . S
C48 C32 1.509 . S
C48 C49 1.391 . S
C48 C53 1.386 . S
C49 H10 0.930 . S
C49 C48 1.391 . S
C49 C50 1.375 . S
C50 H11 0.931 . S
C50 C49 1.375 . S
C50 C51 1.375 . S
C51 C50 1.375 . S
C51 C52 1.361 . S
C52 H12 0.930 . S
C52 C51 1.361 . S
C52 C53 1.399 . S
C53 H13 0.929 . S
C53 C48 1.386 . S
C53 C52 1.399 . S
C54 C33 1.485 . S
C54 C55 1.394 . S
C54 C59 1.360 . S
C55 H14 0.931 . S
C55 C54 1.394 . S
C55 C56 1.372 . S
C56 H15 0.930 . S
C56 C55 1.372 . S
C56 C57 1.397 . S
C57 C56 1.397 . S
C57 C58 1.390 . S
C57 C73 1.476 . S
C58 H16 0.930 . S
C58 C57 1.390 . S
C58 C59 1.366 . S
C59 H17 0.932 . S
C59 C54 1.360 . S
C59 C58 1.366 . S
C60 C34 1.490 . S
C60 C61 1.380 . S
C60 C65 1.386 . S
C61 H18 0.930 . S
C61 C60 1.380 . S
C61 C62 1.381 . S
C62 H19 0.929 . S
C62 C61 1.381 . S
C62 C63 1.371 . S
C63 C62 1.371 . S
C63 C64 1.380 . S
C64 H20 0.931 . S
C64 C63 1.380 . S
C64 C65 1.387 . S
C65 H21 0.930 . S
C65 C60 1.386 . S
C65 C64 1.387 . S
C66 C35 1.518 1_655 S
C66 C67 1.377 . S
C66 C71 1.361 . S
C67 H22 0.929 . S
C67 C66 1.377 . S
C67 C68 1.386 . S
C68 H23 0.931 . S
C68 C67 1.386 . S
C68 C69 1.363 . S
C69 C68 1.363 . S
C69 C70 1.385 . S
C70 H24 0.930 . S
C70 C69 1.385 . S
C70 C71 1.396 . S
C71 H25 0.929 1_655 S
C71 C66 1.361 . S
C71 C70 1.396 . S
C72 O26 1.300 . S
C72 O27 1.209 . S
C72 C45 1.486 . S
C73 O28 1.199 . S
C73 O29 1.297 . S
C73 C57 1.476 . S
H74 O100 0.856 . S
H75 O103 0.854 . S
H76 C111 0.930 . S
H77 C112 0.930 . S
H78 C114 0.930 . S
H79 C115 0.919 . S
H80 C117 0.931 . S
H81 C118 0.930 . S
H82 C120 0.930 . S
H83 C121 0.929 . S
H84 C123 0.930 . S
H85 C124 0.931 . S
H86 C126 0.930 . S
H87 C127 0.929 . S
H88 C129 0.931 . S
H89 C130 0.930 . S
H90 C132 0.930 . S
H91 C133 0.932 . S
H92 C135 0.930 . S
H93 C136 0.929 . S
H94 C138 0.931 . S
H95 C139 0.930 . S
H96 C141 0.929 1_545 S
H97 C142 0.931 . S
H98 C144 0.930 . S
H99 C145 0.929 . S
O100 H74 0.856 . S
O100 C146 1.300 . S
O101 C146 1.209 . S
O102 C147 1.199 . S
O103 H75 0.854 . S
O103 C147 1.297 . S
C104 C105 1.404 . S
C104 C109 1.397 . S
C104 C110 1.492 . S
C105 C104 1.404 . S
C105 C106 1.396 . S
C105 C116 1.492 . S
C106 C105 1.396 . S
C106 C107 1.397 . S
C106 C122 1.509 . S
C107 C106 1.397 . S
C107 C108 1.412 . S
C107 C128 1.485 . S
C108 C107 1.412 . S
C108 C109 1.388 . S
C108 C134 1.490 . S
C109 C104 1.397 . S
C109 C108 1.388 . S
C109 C140 1.519 . S
C110 C104 1.492 . S
C110 C111 1.363 . S
C110 C115 1.390 . S
C111 H76 0.930 . S
C111 C110 1.363 . S
C111 C112 1.372 1_545 S
C112 H77 0.930 . S
C112 C111 1.372 1_565 S
C112 C113 1.383 . S
C113 C112 1.383 . S
C113 C114 1.395 . S
C114 H78 0.930 . S
C114 C113 1.395 . S
C114 C115 1.361 1_565 S
C115 H79 0.919 . S
C115 C110 1.390 . S
C115 C114 1.361 1_545 S
C116 C105 1.492 . S
C116 C117 1.377 . S
C116 C121 1.397 . S
C117 H80 0.931 . S
C117 C116 1.377 . S
C117 C118 1.376 . S
C118 H81 0.930 . S
C118 C117 1.376 . S
C118 C119 1.376 . S
C119 C118 1.376 . S
C119 C120 1.378 . S
C119 C146 1.486 . S
C120 H82 0.930 . S
C120 C119 1.378 . S
C120 C121 1.376 . S
C121 H83 0.929 . S
C121 C116 1.397 . S
C121 C120 1.376 . S
C122 C106 1.509 . S
C122 C123 1.391 . S
C122 C127 1.386 . S
C123 H84 0.930 . S
C123 C122 1.391 . S
C123 C124 1.375 . S
C124 H85 0.931 . S
C124 C123 1.375 . S
C124 C125 1.375 . S
C125 C124 1.375 . S
C125 C126 1.361 . S
C126 H86 0.930 . S
C126 C125 1.361 . S
C126 C127 1.399 . S
C127 H87 0.929 . S
C127 C122 1.386 . S
C127 C126 1.399 . S
C128 C107 1.485 . S
C128 C129 1.394 . S
C128 C133 1.360 . S
C129 H88 0.931 . S
C129 C128 1.394 . S
C129 C130 1.372 . S
C130 H89 0.930 . S
C130 C129 1.372 . S
C130 C131 1.397 . S
C131 C130 1.397 . S
C131 C132 1.390 . S
C131 C147 1.476 . S
C132 H90 0.930 . S
C132 C131 1.390 . S
C132 C133 1.366 . S
C133 H91 0.932 . S
C133 C128 1.360 . S
C133 C132 1.366 . S
C134 C108 1.490 . S
C134 C135 1.380 . S
C134 C139 1.386 . S
C135 H92 0.930 . S
C135 C134 1.380 . S
C135 C136 1.381 . S
C136 H93 0.929 . S
C136 C135 1.381 . S
C136 C137 1.371 . S
C137 C136 1.371 . S
C137 C138 1.380 . S
C138 H94 0.931 . S
C138 C137 1.380 . S
C138 C139 1.387 . S
C139 H95 0.930 . S
C139 C134 1.386 . S
C139 C138 1.387 . S
C140 C109 1.519 . S
C140 C141 1.377 1_545 S
C140 C145 1.361 . S
C141 H96 0.929 1_565 S
C141 C140 1.377 1_565 S
C141 C142 1.386 . S
C142 H97 0.931 . S
C142 C141 1.386 . S
C142 C143 1.363 . S
C143 C142 1.363 . S
C143 C144 1.385 . S
C144 H98 0.930 . S
C144 C143 1.385 . S
C144 C145 1.396 1_565 S
C145 H99 0.929 . S
C145 C140 1.361 . S
C145 C144 1.396 1_545 S
C146 O100 1.300 . S
C146 O101 1.209 . S
C146 C119 1.486 . S
C147 O102 1.199 . S
C147 O103 1.297 . S
C147 C131 1.476 . S
H148 O174 0.856 . S
H149 O177 0.854 . S
H150 C185 0.930 . S
H151 C186 0.930 . S
H152 C188 0.930 . S
H153 C189 0.930 . S
H154 C191 0.931 . S
H155 C192 0.930 . S
H156 C194 0.930 . S
H157 C195 0.929 . S
H158 C197 0.930 . S
H159 C198 0.931 . S
H160 C200 0.930 . S
H161 C201 0.929 . S
H162 C203 0.931 . S
H163 C204 0.930 . S
H164 C206 0.930 . S
H165 C207 0.932 . S
H166 C209 0.930 . S
H167 C210 0.929 . S
H168 C212 0.931 . S
H169 C213 0.930 . S
H170 C215 0.929 . S
H171 C216 0.931 . S
H172 C218 0.930 . S
H173 C219 0.929 . S
O174 H148 0.856 . S
O174 C220 1.300 . S
O175 C220 1.209 . S
O176 C221 1.199 . S
O177 H149 0.854 . S
O177 C221 1.297 . S
C178 C179 1.404 . S
C178 C183 1.397 . S
C178 C184 1.492 . S
C179 C178 1.404 . S
C179 C180 1.396 . S
C179 C190 1.492 . S
C180 C179 1.396 . S
C180 C181 1.397 . S
C180 C196 1.509 . S
C181 C180 1.397 . S
C181 C182 1.412 . S
C181 C202 1.485 . S
C182 C181 1.412 . S
C182 C183 1.388 . S
C182 C208 1.490 . S
C183 C178 1.397 . S
C183 C182 1.388 . S
C183 C214 1.519 . S
C184 C178 1.492 . S
C184 C185 1.363 . S
C184 C189 1.390 . S
C185 H150 0.930 . S
C185 C184 1.363 . S
C185 C186 1.372 . S
C186 H151 0.930 . S
C186 C185 1.372 . S
C186 C187 1.383 . S
C187 C186 1.383 . S
C187 C188 1.395 . S
C188 H152 0.930 . S
C188 C187 1.395 . S
C188 C189 1.362 . S
C189 H153 0.930 . S
C189 C184 1.390 . S
C189 C188 1.362 . S
C190 C179 1.492 . S
C190 C191 1.377 . S
C190 C195 1.397 . S
C191 H154 0.931 . S
C191 C190 1.377 . S
C191 C192 1.376 . S
C192 H155 0.930 . S
C192 C191 1.376 . S
C192 C193 1.376 . S
C193 C192 1.376 . S
C193 C194 1.378 . S
C193 C220 1.486 . S
C194 H156 0.930 . S
C194 C193 1.378 . S
C194 C195 1.376 . S
C195 H157 0.929 . S
C195 C190 1.397 . S
C195 C194 1.376 . S
C196 C180 1.509 . S
C196 C197 1.391 . S
C196 C201 1.386 . S
C197 H158 0.930 . S
C197 C196 1.391 . S
C197 C198 1.375 . S
C198 H159 0.931 . S
C198 C197 1.375 . S
C198 C199 1.375 . S
C199 C198 1.375 . S
C199 C200 1.361 . S
C200 H160 0.930 . S
C200 C199 1.361 . S
C200 C201 1.399 . S
C201 H161 0.929 . S
C201 C196 1.386 . S
C201 C200 1.399 . S
C202 C181 1.485 . S
C202 C203 1.394 . S
C202 C207 1.360 . S
C203 H162 0.931 . S
C203 C202 1.394 . S
C203 C204 1.372 . S
C204 H163 0.930 . S
C204 C203 1.372 . S
C204 C205 1.397 . S
C205 C204 1.397 . S
C205 C206 1.390 . S
C205 C221 1.476 . S
C206 H164 0.930 . S
C206 C205 1.390 . S
C206 C207 1.366 . S
C207 H165 0.932 . S
C207 C202 1.360 . S
C207 C206 1.366 . S
C208 C182 1.490 . S
C208 C209 1.380 . S
C208 C213 1.386 . S
C209 H166 0.930 . S
C209 C208 1.380 . S
C209 C210 1.381 . S
C210 H167 0.929 . S
C210 C209 1.381 . S
C210 C211 1.371 . S
C211 C210 1.371 . S
C211 C212 1.380 . S
C212 H168 0.931 . S
C212 C211 1.380 . S
C212 C213 1.387 . S
C213 H169 0.930 . S
C213 C208 1.386 . S
C213 C212 1.387 . S
C214 C183 1.519 . S
C214 C215 1.377 . S
C214 C219 1.361 . S
C215 H170 0.929 . S
C215 C214 1.377 . S
C215 C216 1.386 . S
C216 H171 0.931 . S
C216 C215 1.386 . S
C216 C217 1.363 . S
C217 C216 1.363 . S
C217 C218 1.385 . S
C218 H172 0.930 . S
C218 C217 1.385 . S
C218 C219 1.396 . S
C219 H173 0.929 . S
C219 C214 1.361 . S
C219 C218 1.396 . S
C220 O174 1.300 . S
C220 O175 1.209 . S
C220 C193 1.486 . S
C221 O176 1.199 . S
C221 O177 1.297 . S
C221 C205 1.476 . S
H222 O248 0.856 . S
H223 O251 0.854 . S
H224 C259 0.930 1_455 S
H225 C260 0.930 . S
H226 C262 0.930 . S
H227 C263 0.930 . S
H228 C265 0.931 . S
H229 C266 0.930 . S
H230 C268 0.930 . S
H231 C269 0.929 . S
H232 C271 0.930 . S
H233 C272 0.931 . S
H234 C274 0.930 . S
H235 C275 0.929 . S
H236 C277 0.931 . S
H237 C278 0.930 . S
H238 C280 0.930 . S
H239 C281 0.932 . S
H240 C283 0.930 . S
H241 C284 0.929 . S
H242 C286 0.931 . S
H243 C287 0.930 . S
H244 C289 0.929 . S
H245 C290 0.931 . S
H246 C292 0.930 . S
H247 C293 0.929 . S
O248 H222 0.856 . S
O248 C294 1.300 . S
O249 C294 1.209 . S
O250 C295 1.199 . S
O251 H223 0.854 . S
O251 C295 1.297 . S
C252 C253 1.404 . S
C252 C257 1.397 . S
C252 C258 1.492 1_455 S
C253 C252 1.404 . S
C253 C254 1.396 . S
C253 C264 1.492 . S
C254 C253 1.396 . S
C254 C255 1.397 . S
C254 C270 1.509 . S
C255 C254 1.397 . S
C255 C256 1.412 . S
C255 C276 1.485 . S
C256 C255 1.412 . S
C256 C257 1.388 . S
C256 C282 1.490 . S
C257 C252 1.397 . S
C257 C256 1.388 . S
C257 C288 1.519 1_455 S
C258 C252 1.492 1_655 S
C258 C259 1.363 . S
C258 C263 1.390 . S
C259 H224 0.930 1_655 S
C259 C258 1.363 . S
C259 C260 1.372 . S
C260 H225 0.930 . S
C260 C259 1.372 . S
C260 C261 1.383 . S
C261 C260 1.383 . S
C261 C262 1.395 . S
C262 H226 0.930 . S
C262 C261 1.395 . S
C262 C263 1.362 . S
C263 H227 0.930 . S
C263 C258 1.390 . S
C263 C262 1.362 . S
C264 C253 1.492 . S
C264 C265 1.377 . S
C264 C269 1.397 . S
C265 H228 0.931 . S
C265 C264 1.377 . S
C265 C266 1.376 . S
C266 H229 0.930 . S
C266 C265 1.376 . S
C266 C267 1.376 . S
C267 C266 1.376 . S
C267 C268 1.378 . S
C267 C294 1.486 . S
C268 H230 0.930 . S
C268 C267 1.378 . S
C268 C269 1.376 . S
C269 H231 0.929 . S
C269 C264 1.397 . S
C269 C268 1.376 . S
C270 C254 1.509 . S
C270 C271 1.391 . S
C270 C275 1.386 . S
C271 H232 0.930 . S
C271 C270 1.391 . S
C271 C272 1.375 . S
C272 H233 0.931 . S
C272 C271 1.375 . S
C272 C273 1.375 . S
C273 C272 1.375 . S
C273 C274 1.361 . S
C274 H234 0.930 . S
C274 C273 1.361 . S
C274 C275 1.399 . S
C275 H235 0.929 . S
C275 C270 1.386 . S
C275 C274 1.399 . S
C276 C255 1.485 . S
C276 C277 1.394 . S
C276 C281 1.360 . S
C277 H236 0.931 . S
C277 C276 1.394 . S
C277 C278 1.372 . S
C278 H237 0.930 . S
C278 C277 1.372 . S
C278 C279 1.397 . S
C279 C278 1.397 . S
C279 C280 1.390 . S
C279 C295 1.476 . S
C280 H238 0.930 . S
C280 C279 1.390 . S
C280 C281 1.366 . S
C281 H239 0.932 . S
C281 C276 1.360 . S
C281 C280 1.366 . S
C282 C256 1.490 . S
C282 C283 1.380 . S
C282 C287 1.386 . S
C283 H240 0.930 . S
C283 C282 1.380 . S
C283 C284 1.381 . S
C284 H241 0.929 . S
C284 C283 1.381 . S
C284 C285 1.371 . S
C285 C284 1.371 . S
C285 C286 1.380 . S
C286 H242 0.931 . S
C286 C285 1.380 . S
C286 C287 1.387 . S
C287 H243 0.930 . S
C287 C282 1.386 . S
C287 C286 1.387 . S
C288 C257 1.519 1_655 S
C288 C289 1.377 . S
C288 C293 1.361 . S
C289 H244 0.929 . S
C289 C288 1.377 . S
C289 C290 1.386 . S
C290 H245 0.931 . S
C290 C289 1.386 . S
C290 C291 1.363 . S
C291 C290 1.363 . S
C291 C292 1.385 . S
C292 H246 0.930 . S
C292 C291 1.385 . S
C292 C293 1.396 . S
C293 H247 0.929 . S
C293 C288 1.361 . S
C293 C292 1.396 . S
C294 O248 1.300 . S
C294 O249 1.209 . S
C294 C267 1.486 . S
C295 O250 1.199 . S
C295 O251 1.297 . S
C295 C279 1.476 . S
H296 O322 0.856 . S
H297 O325 0.854 . S
H298 C333 0.930 . S
H299 C334 0.930 . S
H300 C336 0.930 . S
H301 C337 0.930 . S
H302 C339 0.931 . S
H303 C340 0.930 . S
H304 C342 0.930 1_545 S
H305 C343 0.929 1_545 S
H306 C345 0.930 . S
H307 C346 0.931 . S
H308 C348 0.930 . S
H309 C349 0.929 . S
H310 C351 0.931 . S
H311 C352 0.930 . S
H312 C354 0.930 . S
H313 C355 0.932 . S
H314 C357 0.930 . S
H315 C358 0.929 . S
H316 C360 0.931 . S
H317 C361 0.930 . S
H318 C363 0.929 . S
H319 C364 0.931 . S
H320 C366 0.930 . S
H321 C367 0.929 . S
O322 H296 0.856 . S
O322 C368 1.300 . S
O323 C368 1.209 . S
O324 C369 1.199 . S
O325 H297 0.854 . S
O325 C369 1.297 . S
C326 C327 1.404 1_545 S
C326 C331 1.397 . S
C326 C332 1.492 . S
C327 C326 1.404 1_565 S
C327 C328 1.396 . S
C327 C338 1.492 . S
C328 C327 1.396 . S
C328 C329 1.397 . S
C328 C344 1.509 . S
C329 C328 1.397 . S
C329 C330 1.412 1_556 S
C329 C350 1.485 1_556 S
C330 C329 1.412 1_554 S
C330 C331 1.388 1_564 S
C330 C356 1.490 . S
C331 C326 1.397 . S
C331 C330 1.388 1_546 S
C331 C362 1.536 . S
C332 C326 1.492 . S
C332 C333 1.363 . S
C332 C337 1.390 . S
C333 H298 0.930 . S
C333 C332 1.363 . S
C333 C334 1.372 . S
C334 H299 0.930 . S
C334 C333 1.372 . S
C334 C335 1.383 . S
C335 C334 1.383 . S
C335 C336 1.395 . S
C336 H300 0.930 . S
C336 C335 1.395 . S
C336 C337 1.362 . S
C337 H301 0.930 . S
C337 C332 1.390 . S
C337 C336 1.362 . S
C338 C327 1.492 . S
C338 C339 1.377 . S
C338 C343 1.397 . S
C339 H302 0.931 . S
C339 C338 1.377 . S
C339 C340 1.376 . S
C340 H303 0.930 . S
C340 C339 1.376 . S
C340 C341 1.376 . S
C341 C340 1.376 . S
C341 C342 1.378 . S
C341 C368 1.486 . S
C342 H304 0.930 1_565 S
C342 C341 1.378 . S
C342 C343 1.376 . S
C343 H305 0.929 1_565 S
C343 C338 1.397 . S
C343 C342 1.376 . S
C344 C328 1.509 . S
C344 C345 1.391 . S
C344 C349 1.386 . S
C345 H306 0.930 . S
C345 C344 1.391 . S
C345 C346 1.375 . S
C346 H307 0.931 . S
C346 C345 1.375 . S
C346 C347 1.375 . S
C347 C346 1.375 . S
C347 C348 1.361 . S
C348 H308 0.930 . S
C348 C347 1.361 . S
C348 C349 1.399 . S
C349 H309 0.929 . S
C349 C344 1.386 . S
C349 C348 1.399 . S
C350 C329 1.485 1_554 S
C350 C351 1.394 . S
C350 C355 1.360 . S
C351 H310 0.931 . S
C351 C350 1.394 . S
C351 C352 1.372 . S
C352 H311 0.930 . S
C352 C351 1.372 . S
C352 C353 1.397 . S
C353 C352 1.397 . S
C353 C354 1.390 . S
C353 C369 1.476 . S
C354 H312 0.930 . S
C354 C353 1.390 . S
C354 C355 1.366 . S
C355 H313 0.932 . S
C355 C350 1.360 . S
C355 C354 1.366 . S
C356 C330 1.490 . S
C356 C357 1.380 1_565 S
C356 C361 1.386 . S
C357 H314 0.930 . S
C357 C356 1.380 1_545 S
C357 C358 1.381 . S
C358 H315 0.929 . S
C358 C357 1.381 . S
C358 C359 1.371 . S
C359 C358 1.371 . S
C359 C360 1.380 1_545 S
C360 H316 0.931 . S
C360 C359 1.380 1_565 S
C360 C361 1.387 . S
C361 H317 0.930 . S
C361 C356 1.386 . S
C361 C360 1.387 . S
C362 C331 1.536 . S
C362 C363 1.379 . S
C362 C367 1.343 1_556 S
C363 H318 0.929 . S
C363 C362 1.379 . S
C363 C364 1.386 1_556 S
C364 H319 0.931 . S
C364 C363 1.386 1_554 S
C364 C365 1.363 . S
C365 C364 1.363 . S
C365 C366 1.385 . S
C366 H320 0.930 . S
C366 C365 1.385 . S
C366 C367 1.396 . S
C367 H321 0.929 . S
C367 C362 1.343 1_554 S
C367 C366 1.396 . S
C368 O322 1.300 . S
C368 O323 1.209 . S
C368 C341 1.486 . S
C369 O324 1.199 . S
C369 O325 1.297 . S
C369 C353 1.476 . S
H370 O396 0.831 1_556 S
H371 O399 0.854 . S
H372 C407 0.930 . S
H373 C408 0.930 . S
H374 C410 0.930 . S
H375 C411 0.930 . S
H376 C413 0.931 . S
H377 C414 0.930 . S
H378 C416 0.930 . S
H379 C417 0.929 . S
H380 C419 0.930 . S
H381 C420 0.931 . S
H382 C422 0.930 . S
H383 C423 0.929 . S
H384 C425 0.931 . S
H385 C426 0.930 . S
H386 C428 0.930 . S
H387 C429 0.932 . S
H388 C431 0.930 . S
H389 C432 0.929 . S
H390 C434 0.931 . S
H391 C435 0.930 . S
H392 C437 0.929 . S
H393 C438 0.931 . S
H394 C440 0.930 . S
H395 C441 0.929 . S
O396 H370 0.831 1_554 S
O396 C442 1.309 . S
O397 C442 1.209 1_556 S
O398 C443 1.199 . S
O399 H371 0.854 . S
O399 C443 1.297 . S
C400 C401 1.404 . S
C400 C405 1.397 . S
C400 C406 1.492 . S
C401 C400 1.404 . S
C401 C402 1.396 . S
C401 C412 1.492 . S
C402 C401 1.396 . S
C402 C403 1.397 . S
C402 C418 1.509 . S
C403 C402 1.397 . S
C403 C404 1.412 . S
C403 C424 1.485 . S
C404 C403 1.412 . S
C404 C405 1.388 . S
C404 C430 1.490 . S
C405 C400 1.397 . S
C405 C404 1.388 . S
C405 C436 1.519 . S
C406 C400 1.492 . S
C406 C407 1.363 . S
C406 C411 1.390 . S
C407 H372 0.930 . S
C407 C406 1.363 . S
C407 C408 1.372 . S
C408 H373 0.930 . S
C408 C407 1.372 . S
C408 C409 1.383 . S
C409 C408 1.383 . S
C409 C410 1.395 . S
C410 H374 0.930 . S
C410 C409 1.395 . S
C410 C411 1.362 . S
C411 H375 0.930 . S
C411 C406 1.390 . S
C411 C410 1.362 . S
C412 C401 1.492 . S
C412 C413 1.377 . S
C412 C417 1.397 . S
C413 H376 0.931 . S
C413 C412 1.377 . S
C413 C414 1.376 . S
C414 H377 0.930 . S
C414 C413 1.376 . S
C414 C415 1.376 . S
C415 C414 1.376 . S
C415 C416 1.378 . S
C415 C442 1.486 . S
C416 H378 0.930 . S
C416 C415 1.378 . S
C416 C417 1.376 . S
C417 H379 0.929 . S
C417 C412 1.397 . S
C417 C416 1.376 . S
C418 C402 1.509 . S
C418 C419 1.391 . S
C418 C423 1.386 . S
C419 H380 0.930 . S
C419 C418 1.391 . S
C419 C420 1.375 . S
C420 H381 0.931 . S
C420 C419 1.375 . S
C420 C421 1.375 . S
C421 C420 1.375 . S
C421 C422 1.361 . S
C422 H382 0.930 . S
C422 C421 1.361 . S
C422 C423 1.399 . S
C423 H383 0.929 . S
C423 C418 1.386 . S
C423 C422 1.399 . S
C424 C403 1.485 . S
C424 C425 1.394 . S
C424 C429 1.360 . S
C425 H384 0.931 . S
C425 C424 1.394 . S
C425 C426 1.372 . S
C426 H385 0.930 . S
C426 C425 1.372 . S
C426 C427 1.397 . S
C427 C426 1.397 . S
C427 C428 1.390 . S
C427 C443 1.476 . S
C428 H386 0.930 . S
C428 C427 1.390 . S
C428 C429 1.366 . S
C429 H387 0.932 . S
C429 C424 1.360 . S
C429 C428 1.366 . S
C430 C404 1.490 . S
C430 C431 1.380 . S
C430 C435 1.386 . S
C431 H388 0.930 . S
C431 C430 1.380 . S
C431 C432 1.381 . S
C432 H389 0.929 . S
C432 C431 1.381 . S
C432 C433 1.371 . S
C433 C432 1.371 . S
C433 C434 1.380 . S
C434 H390 0.931 . S
C434 C433 1.380 . S
C434 C435 1.387 . S
C435 H391 0.930 . S
C435 C430 1.386 . S
C435 C434 1.387 . S
C436 C405 1.519 . S
C436 C437 1.377 . S
C436 C441 1.361 . S
C437 H392 0.929 . S
C437 C436 1.377 . S
C437 C438 1.386 . S
C438 H393 0.931 . S
C438 C437 1.386 . S
C438 C439 1.363 . S
C439 C438 1.363 . S
C439 C440 1.385 . S
C440 H394 0.930 . S
C440 C439 1.385 . S
C440 C441 1.396 . S
C441 H395 0.929 . S
C441 C436 1.361 . S
C441 C440 1.396 . S
C442 O396 1.309 . S
C442 O397 1.209 1_554 S
C442 C415 1.486 . S
C443 O398 1.199 . S
C443 O399 1.297 . S
C443 C427 1.476 . S
Co444 O445 2.216 . S
Co444 O446 2.091 . S
Co444 O448 2.004 . S
Co444 O454 2.021 . S
Co444 O456 2.137 . S
Co444 O457 2.244 . S
O445 Co444 2.216 . S
O445 C452 1.247 . S
O446 Co444 2.091 . S
O446 C452 1.261 . S
C447 O456 1.247 . S
C447 O457 1.272 . S
O448 Co444 2.004 . S
O448 C453 1.259 . S
Co449 O450 2.061 . S
Co449 O455 2.052 . S
Co449 O457 2.135 . S
O450 Co449 2.061 . S
O450 C453 1.235 . S
C451 O454 1.238 . S
C451 O455 1.241 . S
C452 O445 1.247 . S
C452 O446 1.261 . S
C453 O448 1.259 . S
C453 O450 1.235 . S
O454 Co444 2.021 . S
O454 C451 1.238 . S
O455 Co449 2.052 . S
O455 C451 1.241 . S
O456 Co444 2.137 . S
O456 C447 1.247 . S
O457 Co444 2.244 . S
O457 C447 1.272 . S
O457 Co449 2.135 . S
Co458 O459 2.216 . S
Co458 O460 2.091 . S
Co458 O462 2.004 . S
Co458 O468 2.021 . S
Co458 O470 2.137 . S
Co458 O471 2.244 . S
O459 Co458 2.216 . S
O459 C466 1.247 . S
O460 Co458 2.091 . S
O460 C466 1.261 . S
C461 O470 1.247 . S
C461 O471 1.272 . S
O462 Co458 2.004 . S
O462 C467 1.259 . S
Co463 O464 2.061 . S
Co463 O469 2.052 . S
Co463 O471 2.135 . S
O464 Co463 2.061 . S
O464 C467 1.235 . S
C465 O468 1.238 . S
C465 O469 1.241 . S
C466 O459 1.247 . S
C466 O460 1.261 . S
C467 O462 1.259 . S
C467 O464 1.235 . S
O468 Co458 2.021 . S
O468 C465 1.238 . S
O469 Co463 2.052 . S
O469 C465 1.241 . S
O470 Co458 2.137 . S
O470 C461 1.247 . S
O471 Co458 2.244 . S
O471 C461 1.272 . S
O471 Co463 2.135 . S
Co472 O473 2.216 . S
Co472 O474 2.091 . S
Co472 O476 2.004 . S
Co472 O482 2.021 . S
Co472 O484 2.137 . S
Co472 O485 2.244 . S
O473 Co472 2.216 . S
O473 C480 1.247 . S
O474 Co472 2.091 . S
O474 C480 1.261 . S
C475 O484 1.247 . S
C475 O485 1.272 . S
O476 Co472 2.004 . S
O476 C481 1.259 . S
Co477 O478 2.061 . S
Co477 O483 2.052 . S
Co477 O485 2.135 . S
O478 Co477 2.061 . S
O478 C481 1.235 . S
C479 O482 1.238 . S
C479 O483 1.241 . S
C480 O473 1.247 . S
C480 O474 1.261 . S
C481 O476 1.259 . S
C481 O478 1.235 . S
O482 Co472 2.021 . S
O482 C479 1.238 . S
O483 Co477 2.052 . S
O483 C479 1.241 . S
O484 Co472 2.137 . S
O484 C475 1.247 . S
O485 Co472 2.244 . S
O485 C475 1.272 . S
O485 Co477 2.135 . S
Co486 O487 2.216 . S
Co486 O488 2.091 . S
Co486 O490 2.004 . S
Co486 O496 2.021 . S
Co486 O498 2.137 . S
Co486 O499 2.244 . S
O487 Co486 2.216 . S
O487 C494 1.247 . S
O488 Co486 2.091 . S
O488 C494 1.261 . S
C489 O498 1.247 . S
C489 O499 1.272 . S
O490 Co486 2.004 . S
O490 C495 1.259 . S
Co491 O492 2.061 . S
Co491 O497 2.052 . S
Co491 O499 2.135 . S
O492 Co491 2.061 . S
O492 C495 1.235 . S
C493 O496 1.238 . S
C493 O497 1.241 . S
C494 O487 1.247 . S
C494 O488 1.261 . S
C495 O490 1.259 . S
C495 O492 1.235 . S
O496 Co486 2.021 . S
O496 C493 1.238 . S
O497 Co491 2.052 . S
O497 C493 1.241 . S
O498 Co486 2.137 . S
O498 C489 1.247 . S
O499 Co486 2.244 . S
O499 C489 1.272 . S
O499 Co491 2.135 . S
Co500 O501 2.216 . S
Co500 O502 2.091 . S
Co500 O504 2.004 . S
Co500 O510 2.021 . S
Co500 O512 2.137 . S
Co500 O513 2.244 . S
O501 Co500 2.216 . S
O501 C508 1.247 . S
O502 Co500 2.091 . S
O502 C508 1.261 . S
C503 O512 1.247 . S
C503 O513 1.272 . S
O504 Co500 2.004 . S
O504 C509 1.259 . S
Co505 O506 2.061 . S
Co505 O511 2.052 . S
Co505 O513 2.135 . S
O506 Co505 2.061 . S
O506 C509 1.235 . S
C507 O510 1.238 . S
C507 O511 1.241 . S
C508 O501 1.247 . S
C508 O502 1.261 . S
C509 O504 1.259 . S
C509 O506 1.235 . S
O510 Co500 2.021 . S
O510 C507 1.238 . S
O511 Co505 2.052 . S
O511 C507 1.241 . S
O512 Co500 2.137 . S
O512 C503 1.247 . S
O513 Co500 2.244 . S
O513 C503 1.272 . S
O513 Co505 2.135 . S
Co514 O515 2.216 . S
Co514 O516 2.091 . S
Co514 O518 2.004 . S
Co514 O524 2.021 . S
Co514 O526 2.137 . S
Co514 O527 2.244 . S
O515 Co514 2.216 . S
O515 C522 1.247 . S
O516 Co514 2.091 . S
O516 C522 1.261 . S
C517 O526 1.247 . S
C517 O527 1.272 . S
O518 Co514 2.004 . S
O518 C523 1.259 . S
Co519 O520 2.061 . S
Co519 O525 2.052 . S
Co519 O527 2.135 . S
O520 Co519 2.061 . S
O520 C523 1.235 . S
C521 O524 1.238 . S
C521 O525 1.241 . S
C522 O515 1.247 . S
C522 O516 1.261 . S
C523 O518 1.259 . S
C523 O520 1.235 . S
O524 Co514 2.021 . S
O524 C521 1.238 . S
O525 Co519 2.052 . S
O525 C521 1.241 . S
O526 Co514 2.137 . S
O526 C517 1.247 . S
O527 Co514 2.244 . S
O527 C517 1.272 . S
O527 Co519 2.135 . S
H528 C534 0.930 . S
H529 C537 0.930 . S
H530 C538 0.930 . S
H531 C539 0.930 . S
H532 C542 0.930 . S
H533 C543 0.930 . S
C534 H528 0.930 . S
C534 C535 1.355 . S
C534 C536 1.415 . S
C535 C534 1.355 . S
C535 C537 1.419 . S
C536 C534 1.415 . S
C536 C541 1.425 . S
C536 C543 1.409 . S
C537 H529 0.930 . S
C537 C535 1.419 . S
C537 C538 1.362 . S
C538 H530 0.930 . S
C538 C537 1.362 . S
C538 C541 1.409 . S
C539 H531 0.930 . S
C539 C540 1.355 . S
C539 C541 1.415 . S
C540 C539 1.355 . S
C540 C542 1.419 . S
C541 C536 1.425 . S
C541 C538 1.409 . S
C541 C539 1.415 . S
C542 H532 0.930 . S
C542 C540 1.419 . S
C542 C543 1.362 . S
C543 H533 0.930 . S
C543 C536 1.409 . S
C543 C542 1.362 . S
H544 C550 0.930 . S
H545 C553 0.930 . S
H546 C554 0.930 . S
H547 C555 0.930 . S
H548 C558 0.930 . S
H549 C559 0.930 . S
C550 H544 0.930 . S
C550 C551 1.355 . S
C550 C552 1.415 . S
C551 C550 1.355 . S
C551 C553 1.419 . S
C552 C550 1.415 . S
C552 C557 1.425 . S
C552 C559 1.409 . S
C553 H545 0.930 . S
C553 C551 1.419 . S
C553 C554 1.362 . S
C554 H546 0.930 . S
C554 C553 1.362 . S
C554 C557 1.409 . S
C555 H547 0.930 . S
C555 C556 1.355 . S
C555 C557 1.415 . S
C556 C555 1.355 . S
C556 C558 1.419 . S
C557 C552 1.425 . S
C557 C554 1.409 . S
C557 C555 1.415 . S
C558 H548 0.930 . S
C558 C556 1.419 . S
C558 C559 1.362 . S
C559 H549 0.930 . S
C559 C552 1.409 . S
C559 C558 1.362 . S
H560 C566 0.930 . S
H561 C569 0.930 . S
H562 C570 0.930 . S
H563 C571 0.930 . S
H564 C574 0.930 . S
H565 C575 0.930 . S
C566 H560 0.930 . S
C566 C567 1.355 . S
C566 C568 1.415 . S
C567 C566 1.355 . S
C567 C569 1.419 . S
C568 C566 1.415 . S
C568 C573 1.425 . S
C568 C575 1.409 . S
C569 H561 0.930 . S
C569 C567 1.419 . S
C569 C570 1.362 . S
C570 H562 0.930 . S
C570 C569 1.362 . S
C570 C573 1.409 . S
C571 H563 0.930 . S
C571 C572 1.355 . S
C571 C573 1.415 . S
C572 C571 1.355 . S
C572 C574 1.419 . S
C573 C568 1.425 . S
C573 C570 1.409 . S
C573 C571 1.415 . S
C574 H564 0.930 . S
C574 C572 1.419 . S
C574 C575 1.362 . S
C575 H565 0.930 . S
C575 C568 1.409 . S
C575 C574 1.362 . S
H576 C582 0.930 . S
H577 C585 0.930 . S
H578 C586 0.930 . S
H579 C587 0.930 . S
H580 C590 0.930 . S
H581 C591 0.930 . S
C582 H576 0.930 . S
C582 C583 1.355 . S
C582 C584 1.415 . S
C583 C582 1.355 . S
C583 C585 1.419 . S
C584 C582 1.415 . S
C584 C589 1.425 . S
C584 C591 1.409 . S
C585 H577 0.930 . S
C585 C583 1.419 . S
C585 C586 1.362 . S
C586 H578 0.930 . S
C586 C585 1.362 . S
C586 C589 1.409 . S
C587 H579 0.930 . S
C587 C588 1.355 . S
C587 C589 1.415 . S
C588 C587 1.355 . S
C588 C590 1.419 . S
C589 C584 1.425 . S
C589 C586 1.409 . S
C589 C587 1.415 . S
C590 H580 0.930 . S
C590 C588 1.419 . S
C590 C591 1.362 . S
C591 H581 0.930 . S
C591 C584 1.409 . S
C591 C590 1.362 . S
H592 C598 0.930 . S
H593 C601 0.930 . S
H594 C602 0.930 . S
H595 C603 0.930 . S
H596 C606 0.930 . S
H597 C607 0.930 . S
C598 H592 0.930 . S
C598 C599 1.355 . S
C598 C600 1.415 . S
C599 C598 1.355 . S
C599 C601 1.419 . S
C600 C598 1.415 . S
C600 C605 1.425 . S
C600 C607 1.409 . S
C601 H593 0.930 . S
C601 C599 1.419 . S
C601 C602 1.362 . S
C602 H594 0.930 . S
C602 C601 1.362 . S
C602 C605 1.409 . S
C603 H595 0.930 . S
C603 C604 1.355 . S
C603 C605 1.415 . S
C604 C603 1.355 . S
C604 C606 1.419 . S
C605 C600 1.425 . S
C605 C602 1.409 . S
C605 C603 1.415 . S
C606 H596 0.930 . S
C606 C604 1.419 . S
C606 C607 1.362 . S
C607 H597 0.930 . S
C607 C600 1.409 . S
C607 C606 1.362 . S
H608 C614 0.930 . S
H609 C617 0.930 . S
H610 C618 0.930 . S
H611 C619 0.930 . S
H612 C622 0.930 . S
H613 C623 0.930 . S
C614 H608 0.930 . S
C614 C615 1.355 . S
C614 C616 1.415 . S
C615 C614 1.355 . S
C615 C617 1.419 . S
C616 C614 1.415 . S
C616 C621 1.425 . S
C616 C623 1.409 . S
C617 H609 0.930 . S
C617 C615 1.419 . S
C617 C618 1.362 . S
C618 H610 0.930 . S
C618 C617 1.362 . S
C618 C621 1.409 . S
C619 H611 0.930 . S
C619 C620 1.355 . S
C619 C621 1.415 . S
C620 C619 1.355 . S
C620 C622 1.419 . S
C621 C616 1.425 . S
C621 C618 1.409 . S
C621 C619 1.415 . S
C622 H612 0.930 . S
C622 C620 1.419 . S
C622 C623 1.362 . S
C623 H613 0.930 . S
C623 C616 1.409 . S
C623 C622 1.362 . S
H624 C630 0.930 . S
H625 C633 0.930 . S
H626 C634 0.930 . S
H627 C635 0.930 . S
H628 C638 0.930 . S
H629 C639 0.930 . S
C630 H624 0.930 . S
C630 C631 1.355 . S
C630 C632 1.415 . S
C631 C630 1.355 . S
C631 C633 1.419 . S
C632 C630 1.415 . S
C632 C637 1.425 . S
C632 C639 1.409 . S
C633 H625 0.930 . S
C633 C631 1.419 . S
C633 C634 1.362 . S
C634 H626 0.930 . S
C634 C633 1.362 . S
C634 C637 1.409 . S
C635 H627 0.930 . S
C635 C636 1.355 . S
C635 C637 1.415 . S
C636 C635 1.355 . S
C636 C638 1.419 . S
C637 C632 1.425 . S
C637 C634 1.409 . S
C637 C635 1.415 . S
C638 H628 0.930 . S
C638 C636 1.419 . S
C638 C639 1.362 . S
C639 H629 0.930 . S
C639 C632 1.409 . S
C639 C638 1.362 . S
H640 C646 0.930 . S
H641 C649 0.930 . S
H642 C650 0.930 . S
H643 C651 0.930 . S
H644 C654 0.930 . S
H645 C655 0.930 . S
C646 H640 0.930 . S
C646 C647 1.355 . S
C646 C648 1.415 . S
C647 C646 1.355 . S
C647 C649 1.419 . S
C648 C646 1.415 . S
C648 C653 1.425 . S
C648 C655 1.409 . S
C649 H641 0.930 . S
C649 C647 1.419 . S
C649 C650 1.362 . S
C650 H642 0.930 . S
C650 C649 1.362 . S
C650 C653 1.409 . S
C651 H643 0.930 . S
C651 C652 1.355 . S
C651 C653 1.415 . S
C652 C651 1.355 . S
C652 C654 1.419 . S
C653 C648 1.425 . S
C653 C650 1.409 . S
C653 C651 1.415 . S
C654 H644 0.930 . S
C654 C652 1.419 . S
C654 C655 1.362 . S
C655 H645 0.930 . S
C655 C648 1.409 . S
C655 C654 1.362 . S
H656 C662 0.930 . S
H657 C665 0.930 . S
H658 C666 0.930 . S
H659 C667 0.930 . S
H660 C670 0.930 . S
H661 C671 0.930 . S
C662 H656 0.930 . S
C662 C663 1.355 . S
C662 C664 1.415 . S
C663 C662 1.355 . S
C663 C665 1.419 . S
C664 C662 1.415 . S
C664 C669 1.425 . S
C664 C671 1.409 . S
C665 H657 0.930 . S
C665 C663 1.419 . S
C665 C666 1.362 . S
C666 H658 0.930 . S
C666 C665 1.362 . S
C666 C669 1.409 . S
C667 H659 0.930 . S
C667 C668 1.355 . S
C667 C669 1.415 . S
C668 C667 1.355 . S
C668 C670 1.419 . S
C669 C664 1.425 . S
C669 C666 1.409 . S
C669 C667 1.415 . S
C670 H660 0.930 . S
C670 C668 1.419 . S
C670 C671 1.362 . S
C671 H661 0.930 . S
C671 C664 1.409 . S
C671 C670 1.362 . S
H672 C678 0.930 . S
H673 C681 0.930 . S
H674 C682 0.930 . S
H675 C683 0.930 . S
H676 C686 0.930 . S
H677 C687 0.930 . S
C678 H672 0.930 . S
C678 C679 1.355 . S
C678 C680 1.415 . S
C679 C678 1.355 . S
C679 C681 1.419 . S
C680 C678 1.415 . S
C680 C685 1.425 . S
C680 C687 1.409 . S
C681 H673 0.930 . S
C681 C679 1.419 . S
C681 C682 1.362 . S
C682 H674 0.930 . S
C682 C681 1.362 . S
C682 C685 1.409 . S
C683 H675 0.930 . S
C683 C684 1.355 . S
C683 C685 1.415 . S
C684 C683 1.355 . S
C684 C686 1.419 . S
C685 C680 1.425 . S
C685 C682 1.409 . S
C685 C683 1.415 . S
C686 H676 0.930 . S
C686 C684 1.419 . S
C686 C687 1.362 . S
C687 H677 0.930 . S
C687 C680 1.409 . S
C687 C686 1.362 . S
H688 C694 0.930 . S
H689 C697 0.930 . S
H690 C698 0.930 . S
H691 C699 0.930 . S
H692 C702 0.930 . S
H693 C703 0.930 . S
C694 H688 0.930 . S
C694 C695 1.355 . S
C694 C696 1.415 . S
C695 C694 1.355 . S
C695 C697 1.419 . S
C696 C694 1.415 . S
C696 C701 1.425 . S
C696 C703 1.409 . S
C697 H689 0.930 . S
C697 C695 1.419 . S
C697 C698 1.362 . S
C698 H690 0.930 . S
C698 C697 1.362 . S
C698 C701 1.409 . S
C699 H691 0.930 . S
C699 C700 1.355 . S
C699 C701 1.415 . S
C700 C699 1.355 . S
C700 C702 1.419 . S
C701 C696 1.425 . S
C701 C698 1.409 . S
C701 C699 1.415 . S
C702 H692 0.930 . S
C702 C700 1.419 . S
C702 C703 1.362 . S
C703 H693 0.930 . S
C703 C696 1.409 . S
C703 C702 1.362 . S
H704 C710 0.930 . S
H705 C713 0.930 . S
H706 C714 0.930 . S
H707 C715 0.930 . S
H708 C718 0.930 . S
H709 C719 0.930 . S
C710 H704 0.930 . S
C710 C711 1.355 . S
C710 C712 1.415 . S
C711 C710 1.355 . S
C711 C713 1.419 . S
C712 C710 1.415 . S
C712 C717 1.425 . S
C712 C719 1.409 . S
C713 H705 0.930 . S
C713 C711 1.419 . S
C713 C714 1.362 . S
C714 H706 0.930 . S
C714 C713 1.362 . S
C714 C717 1.409 . S
C715 H707 0.930 . S
C715 C716 1.355 . S
C715 C717 1.415 . S
C716 C715 1.355 . S
C716 C718 1.419 . S
C717 C712 1.425 . S
C717 C714 1.409 . S
C717 C715 1.415 . S
C718 H708 0.930 . S
C718 C716 1.419 . S
C718 C719 1.362 . S
C719 H709 0.930 . S
C719 C712 1.409 . S
C719 C718 1.362 . S
H720 C726 0.930 . S
H721 C729 0.930 . S
H722 C730 0.930 . S
H723 C731 0.930 . S
H724 C734 0.930 . S
H725 C735 0.930 . S
C726 H720 0.930 . S
C726 C727 1.355 . S
C726 C728 1.415 . S
C727 C726 1.355 . S
C727 C729 1.419 . S
C728 C726 1.415 . S
C728 C733 1.425 . S
C728 C735 1.409 . S
C729 H721 0.930 . S
C729 C727 1.419 . S
C729 C730 1.362 . S
C730 H722 0.930 . S
C730 C729 1.362 . S
C730 C733 1.409 . S
C731 H723 0.930 . S
C731 C732 1.355 . S
C731 C733 1.415 . S
C732 C731 1.355 . S
C732 C734 1.419 . S
C733 C728 1.425 . S
C733 C730 1.409 . S
C733 C731 1.415 . S
C734 H724 0.930 . S
C734 C732 1.419 . S
C734 C735 1.362 . S
C735 H725 0.930 . S
C735 C728 1.409 . S
C735 C734 1.362 . S
H736 C742 0.930 . S
H737 C745 0.930 . S
H738 C746 0.930 . S
H739 C747 0.930 . S
H740 C750 0.930 . S
H741 C751 0.930 . S
C742 H736 0.930 . S
C742 C743 1.355 . S
C742 C744 1.415 . S
C743 C742 1.355 . S
C743 C745 1.419 . S
C744 C742 1.415 . S
C744 C749 1.425 . S
C744 C751 1.409 . S
C745 H737 0.930 . S
C745 C743 1.419 . S
C745 C746 1.362 . S
C746 H738 0.930 . S
C746 C745 1.362 . S
C746 C749 1.409 . S
C747 H739 0.930 . S
C747 C748 1.355 . S
C747 C749 1.415 . S
C748 C747 1.355 . S
C748 C750 1.419 . S
C749 C744 1.425 . S
C749 C746 1.409 . S
C749 C747 1.415 . S
C750 H740 0.930 . S
C750 C748 1.419 . S
C750 C751 1.362 . S
C751 H741 0.930 . S
C751 C744 1.409 . S
C751 C750 1.362 . S
H752 C758 0.930 . S
H753 C761 0.930 . S
H754 C762 0.930 . S
H755 C763 0.930 . S
H756 C766 0.930 . S
H757 C767 0.930 . S
C758 H752 0.930 . S
C758 C759 1.355 . S
C758 C760 1.415 . S
C759 C758 1.355 . S
C759 C761 1.419 . S
C760 C758 1.415 . S
C760 C765 1.425 . S
C760 C767 1.409 . S
C761 H753 0.930 . S
C761 C759 1.419 . S
C761 C762 1.362 . S
C762 H754 0.930 . S
C762 C761 1.362 . S
C762 C765 1.409 . S
C763 H755 0.930 . S
C763 C764 1.355 . S
C763 C765 1.415 . S
C764 C763 1.355 . S
C764 C766 1.419 . S
C765 C760 1.425 . S
C765 C762 1.409 . S
C765 C763 1.415 . S
C766 H756 0.930 . S
C766 C764 1.419 . S
C766 C767 1.362 . S
C767 H757 0.930 . S
C767 C760 1.409 . S
C767 C766 1.362 . S
H768 C774 0.930 . S
H769 C777 0.930 . S
H770 C778 0.930 . S
H771 C779 0.930 . S
H772 C782 0.930 1_554 S
H773 C783 0.930 . S
C774 H768 0.930 . S
C774 C775 1.355 . S
C774 C776 1.415 . S
C775 C774 1.355 . S
C775 C777 1.419 . S
C776 C774 1.415 . S
C776 C781 1.425 . S
C776 C783 1.409 . S
C777 H769 0.930 . S
C777 C775 1.419 . S
C777 C778 1.362 . S
C778 H770 0.930 . S
C778 C777 1.362 . S
C778 C781 1.409 . S
C779 H771 0.930 . S
C779 C780 1.355 . S
C779 C781 1.415 . S
C780 C779 1.355 . S
C780 C782 1.419 . S
C781 C776 1.425 . S
C781 C778 1.409 . S
C781 C779 1.415 . S
C782 H772 0.930 1_556 S
C782 C780 1.419 . S
C782 C783 1.362 . S
C783 H773 0.930 . S
C783 C776 1.409 . S
C783 C782 1.362 . S
H784 C790 0.930 . S
H785 C793 0.930 1_545 S
H786 C794 0.930 . S
H787 C795 0.930 . S
H788 C798 0.930 . S
H789 C799 0.930 . S
C790 H784 0.930 . S
C790 C791 1.355 . S
C790 C792 1.415 . S
C791 C790 1.355 . S
C791 C793 1.419 . S
C792 C790 1.415 . S
C792 C797 1.425 . S
C792 C799 1.409 . S
C793 H785 0.930 1_565 S
C793 C791 1.419 . S
C793 C794 1.362 . S
C794 H786 0.930 . S
C794 C793 1.362 . S
C794 C797 1.409 . S
C795 H787 0.930 . S
C795 C796 1.355 . S
C795 C797 1.415 . S
C796 C795 1.355 . S
C796 C798 1.419 . S
C797 C792 1.425 . S
C797 C794 1.409 . S
C797 C795 1.415 . S
C798 H788 0.930 . S
C798 C796 1.419 . S
C798 C799 1.362 . S
C799 H789 0.930 . S
C799 C792 1.409 . S
C799 C798 1.362 . S
H800 C806 0.930 . S
H801 C809 0.930 . S
H802 C810 0.930 . S
H803 C811 0.930 . S
H804 C814 0.930 . S
H805 C815 0.930 . S
C806 H800 0.930 . S
C806 C807 1.355 . S
C806 C808 1.415 . S
C807 C806 1.355 . S
C807 C809 1.419 . S
C808 C806 1.415 . S
C808 C813 1.425 . S
C808 C815 1.409 . S
C809 H801 0.930 . S
C809 C807 1.419 . S
C809 C810 1.362 . S
C810 H802 0.930 . S
C810 C809 1.362 . S
C810 C813 1.409 . S
C811 H803 0.930 . S
C811 C812 1.355 . S
C811 C813 1.415 . S
C812 C811 1.355 . S
C812 C814 1.419 . S
C813 C808 1.425 . S
C813 C810 1.409 . S
C813 C811 1.415 . S
C814 H804 0.930 . S
C814 C812 1.419 . S
C814 C815 1.362 . S
C815 H805 0.930 . S
C815 C808 1.409 . S
C815 C814 1.362 . S
H816 C822 0.930 . S
H817 C825 0.930 . S
H818 C826 0.930 . S
H819 C827 0.930 . S
H820 C830 0.930 . S
H821 C831 0.930 . S
C822 H816 0.930 . S
C822 C823 1.355 . S
C822 C824 1.415 . S
C823 C822 1.355 . S
C823 C825 1.419 . S
C824 C822 1.415 . S
C824 C829 1.425 . S
C824 C831 1.409 . S
C825 H817 0.930 . S
C825 C823 1.419 . S
C825 C826 1.362 . S
C826 H818 0.930 . S
C826 C825 1.362 . S
C826 C829 1.409 . S
C827 H819 0.930 . S
C827 C828 1.355 . S
C827 C829 1.415 . S
C828 C827 1.355 . S
C828 C830 1.419 . S
C829 C824 1.425 . S
C829 C826 1.409 . S
C829 C827 1.415 . S
C830 H820 0.930 . S
C830 C828 1.419 . S
C830 C831 1.362 . S
C831 H821 0.930 . S
C831 C824 1.409 . S
C831 C830 1.362 . S
H832 C838 0.930 . S
H833 C841 0.930 . S
H834 C842 0.930 . S
H835 C843 0.930 . S
H836 C846 0.930 . S
H837 C847 0.930 . S
C838 H832 0.930 . S
C838 C839 1.355 . S
C838 C840 1.415 . S
C839 C838 1.355 . S
C839 C841 1.419 . S
C840 C838 1.415 . S
C840 C845 1.425 . S
C840 C847 1.409 . S
C841 H833 0.930 . S
C841 C839 1.419 . S
C841 C842 1.362 . S
C842 H834 0.930 . S
C842 C841 1.362 . S
C842 C845 1.409 . S
C843 H835 0.930 . S
C843 C844 1.355 . S
C843 C845 1.415 . S
C844 C843 1.355 . S
C844 C846 1.419 . S
C845 C840 1.425 . S
C845 C842 1.409 . S
C845 C843 1.415 . S
C846 H836 0.930 . S
C846 C844 1.419 . S
C846 C847 1.362 . S
C847 H837 0.930 . S
C847 C840 1.409 . S
C847 C846 1.362 . S
H848 C854 0.930 . S
H849 C857 0.930 . S
H850 C858 0.930 . S
H851 C859 0.930 . S
H852 C862 0.930 . S
H853 C863 0.930 . S
C854 H848 0.930 . S
C854 C855 1.355 . S
C854 C856 1.415 . S
C855 C854 1.355 . S
C855 C857 1.419 . S
C856 C854 1.415 . S
C856 C861 1.425 . S
C856 C863 1.409 . S
C857 H849 0.930 . S
C857 C855 1.419 . S
C857 C858 1.362 . S
C858 H850 0.930 . S
C858 C857 1.362 . S
C858 C861 1.409 . S
C859 H851 0.930 . S
C859 C860 1.355 . S
C859 C861 1.415 . S
C860 C859 1.355 . S
C860 C862 1.419 . S
C861 C856 1.425 . S
C861 C858 1.409 . S
C861 C859 1.415 . S
C862 H852 0.930 . S
C862 C860 1.419 . S
C862 C863 1.362 . S
C863 H853 0.930 . S
C863 C856 1.409 . S
C863 C862 1.362 . S
H864 C870 0.930 . S
H865 C873 0.930 . S
H866 C874 0.930 . S
H867 C875 0.930 . S
H868 C878 0.930 . S
H869 C879 0.930 . S
C870 H864 0.930 . S
C870 C871 1.355 . S
C870 C872 1.415 . S
C871 C870 1.355 . S
C871 C873 1.419 . S
C872 C870 1.415 . S
C872 C877 1.425 . S
C872 C879 1.409 . S
C873 H865 0.930 . S
C873 C871 1.419 . S
C873 C874 1.362 . S
C874 H866 0.930 . S
C874 C873 1.362 . S
C874 C877 1.409 . S
C875 H867 0.930 . S
C875 C876 1.355 . S
C875 C877 1.415 . S
C876 C875 1.355 . S
C876 C878 1.419 . S
C877 C872 1.425 . S
C877 C874 1.409 . S
C877 C875 1.415 . S
C878 H868 0.930 . S
C878 C876 1.419 . S
C878 C879 1.362 . S
C879 H869 0.930 . S
C879 C872 1.409 . S
C879 C878 1.362 . S
H880 C886 0.930 . S
H881 C889 0.930 . S
H882 C890 0.930 . S
H883 C891 0.930 . S
H884 C894 0.930 . S
H885 C895 0.930 . S
C886 H880 0.930 . S
C886 C887 1.355 . S
C886 C888 1.415 . S
C887 C886 1.355 . S
C887 C889 1.419 . S
C888 C886 1.415 . S
C888 C893 1.425 . S
C888 C895 1.409 . S
C889 H881 0.930 . S
C889 C887 1.419 . S
C889 C890 1.362 . S
C890 H882 0.930 . S
C890 C889 1.362 . S
C890 C893 1.409 . S
C891 H883 0.930 . S
C891 C892 1.355 . S
C891 C893 1.415 1_556 S
C892 C891 1.355 . S
C892 C894 1.419 . S
C893 C888 1.425 . S
C893 C890 1.409 . S
C893 C891 1.415 1_554 S
C894 H884 0.930 . S
C894 C892 1.419 . S
C894 C895 1.362 1_556 S
C895 H885 0.930 . S
C895 C888 1.409 . S
C895 C894 1.362 1_554 S
H896 C902 0.930 . S
H897 C905 0.930 . S
H898 C906 0.930 . S
H899 C907 0.930 . S
H900 C910 0.930 . S
H901 C911 0.930 . S
C902 H896 0.930 . S
C902 C903 1.355 . S
C902 C904 1.415 . S
C903 C902 1.355 . S
C903 C905 1.419 . S
C904 C902 1.415 . S
C904 C909 1.425 . S
C904 C911 1.409 . S
C905 H897 0.930 . S
C905 C903 1.419 . S
C905 C906 1.362 . S
C906 H898 0.930 . S
C906 C905 1.362 . S
C906 C909 1.409 . S
C907 H899 0.930 . S
C907 C908 1.355 . S
C907 C909 1.415 . S
C908 C907 1.355 . S
C908 C910 1.419 . S
C909 C904 1.425 . S
C909 C906 1.409 . S
C909 C907 1.415 . S
C910 H900 0.930 . S
C910 C908 1.419 . S
C910 C911 1.362 . S
C911 H901 0.930 . S
C911 C904 1.409 . S
C911 C910 1.362 . S
C540 C517 1.132 . S
C535 C51 1.110 . S
C551 C125 1.786 . S
C556 C447 1.804 . S
C567 C217 2.281 . S
C572 C466 2.279 . S
C583 C291 1.964 . S
C588 C475 2.019 . S
C604 C489 0.718 . S
C599 C347 0.735 . S
C615 C421 1.257 . S
C620 C508 1.266 . S
C631 C143 2.535 . S
C636 C461 2.571 . S
C647 C199 1.208 . S
C652 C480 1.202 . S
C663 C273 1.014 . S
C668 C494 1.043 . S
C684 C503 1.312 . S
C679 C365 1.300 . S
C700 C522 2.213 . S
C695 C439 2.182 . S
C716 C452 2.030 . S
C711 C69 2.049 . S
C727 C63 1.524 . S
C732 C467 1.644 . S
C743 C137 1.465 . S
C748 C479 1.536 . S
C764 C493 1.486 . S
C759 C187 1.459 . S
C775 C261 1.555 . S
C780 C509 1.626 1_556 S
C796 C521 1.419 . S
C791 C359 1.385 1_565 S
C812 C451 1.349 . S
C807 C433 1.268 . S
C828 C523 1.529 . S
C823 C113 1.533 . S
C839 C211 1.462 . S
C844 C453 1.564 . S
C860 C465 1.654 . S
C855 C285 1.570 . S
C871 C335 1.374 . S
C876 C481 1.359 . S
C887 C409 1.519 . S
C892 C495 1.576 . S
C903 C39 1.735 . S
C908 C507 1.796 . S
