# Generated by pormake.
# Topology nom, (4,4)-cn, num edge types: 1
# Building blocks:
#     Node 0, Type 0, BuildingBlock: MUDLON_clean_linker_0, # of connection points: 4
#     Node 1, Type 0, BuildingBlock: MUDLON_clean_linker_0, # of connection points: 4
#     Node 2, Type 0, BuildingBlock: MUDLON_clean_linker_0, # of connection points: 4
#     Node 3, Type 0, BuildingBlock: MUDLON_clean_linker_0, # of connection points: 4
#     Node 4, Type 0, BuildingBlock: MUDLON_clean_linker_0, # of connection points: 4
#     Node 5, Type 0, BuildingBlock: MUDLON_clean_linker_0, # of connection points: 4
#     Node 6, Type 1, BuildingBlock: KUFVIS_clean_sbu_0, # of connection points: 4
#     Node 7, Type 1, BuildingBlock: KUFVIS_clean_sbu_0, # of connection points: 4
#     Node 8, Type 1, BuildingBlock: KUFVIS_clean_sbu_0, # of connection points: 4
#     Node 9, Type 1, BuildingBlock: KUFVIS_clean_sbu_0, # of connection points: 4
#     Node 10, Type 1, BuildingBlock: KUFVIS_clean_sbu_0, # of connection points: 4
#     Node 11, Type 1, BuildingBlock: KUFVIS_clean_sbu_0, # of connection points: 4
#     Edge 12, Type (0, 1), BuildingBlock: MIFKUJ_clean_linker_0, # of connection points: 2
#     Edge 13, Type (0, 1), BuildingBlock: MIFKUJ_clean_linker_0, # of connection points: 2
#     Edge 14, Type (0, 1), BuildingBlock: MIFKUJ_clean_linker_0, # of connection points: 2
#     Edge 15, Type (0, 1), BuildingBlock: MIFKUJ_clean_linker_0, # of connection points: 2
#     Edge 16, Type (0, 1), BuildingBlock: MIFKUJ_clean_linker_0, # of connection points: 2
#     Edge 17, Type (0, 1), BuildingBlock: MIFKUJ_clean_linker_0, # of connection points: 2
#     Edge 18, Type (0, 1), BuildingBlock: MIFKUJ_clean_linker_0, # of connection points: 2
#     Edge 19, Type (0, 1), BuildingBlock: MIFKUJ_clean_linker_0, # of connection points: 2
#     Edge 20, Type (0, 1), BuildingBlock: MIFKUJ_clean_linker_0, # of connection points: 2
#     Edge 21, Type (0, 1), BuildingBlock: MIFKUJ_clean_linker_0, # of connection points: 2
#     Edge 22, Type (0, 1), BuildingBlock: MIFKUJ_clean_linker_0, # of connection points: 2
#     Edge 23, Type (0, 1), BuildingBlock: MIFKUJ_clean_linker_0, # of connection points: 2
#     Edge 24, Type (0, 1), BuildingBlock: MIFKUJ_clean_linker_0, # of connection points: 2
#     Edge 25, Type (0, 1), BuildingBlock: MIFKUJ_clean_linker_0, # of connection points: 2
#     Edge 26, Type (0, 1), BuildingBlock: MIFKUJ_clean_linker_0, # of connection points: 2
#     Edge 27, Type (0, 1), BuildingBlock: MIFKUJ_clean_linker_0, # of connection points: 2
#     Edge 28, Type (0, 1), BuildingBlock: MIFKUJ_clean_linker_0, # of connection points: 2
#     Edge 29, Type (0, 1), BuildingBlock: MIFKUJ_clean_linker_0, # of connection points: 2
#     Edge 30, Type (0, 1), BuildingBlock: MIFKUJ_clean_linker_0, # of connection points: 2
#     Edge 31, Type (0, 1), BuildingBlock: MIFKUJ_clean_linker_0, # of connection points: 2
#     Edge 32, Type (0, 1), BuildingBlock: MIFKUJ_clean_linker_0, # of connection points: 2
#     Edge 33, Type (0, 1), BuildingBlock: MIFKUJ_clean_linker_0, # of connection points: 2
#     Edge 34, Type (0, 1), BuildingBlock: MIFKUJ_clean_linker_0, # of connection points: 2
#     Edge 35, Type (0, 1), BuildingBlock: MIFKUJ_clean_linker_0, # of connection points: 2
# Relax obj value: 0.007
# Max RMSD: 0.105
# Mean RMSD: 0.064
data_MOF--net-nom--node1-KUFVIS_clean_sbu_0--node2-MUDLON_clean_linker_0--edge1-MIFKUJ_clean_linker_0
_symmetry_space_group_name_H-M    P1
_symmetry_Int_Tables_number       1
_symmetry_cell_setting            triclinic
loop_
_symmetry_equiv_pos_as_xyz
'x, y, z'
_cell_length_a     73.349486
_cell_length_b     75.067188
_cell_length_c     74.323284
_cell_angle_alpha  90.959113
_cell_angle_beta   90.477923
_cell_angle_gamma 120.45741
loop_
_atom_site_label
_atom_site_type_symbol
_atom_site_fract_x
_atom_site_fract_y
_atom_site_fract_z
_atom_type_partial_charge
H0 H 0.1175 0.55106 0.3252 0.0
N1 N 0.08766 0.55967 0.33335 0.0
H2 H 0.14984 0.57249 0.3087 0.0
H3 H 0.09602 0.59358 0.31392 0.0
H4 H 0.12791 0.6148 0.29686 0.0
H5 H 0.09562 0.59681 0.3473 0.0
H6 H 0.1105 0.61091 0.37738 0.0
H7 H 0.09123 0.53915 0.36054 0.0
H8 H 0.10587 0.55295 0.39065 0.0
H9 H 0.0632 0.51953 0.32703 0.0
H10 H 0.06297 0.57674 0.32706 0.0
H11 H 0.02588 0.50061 0.31826 0.0
H12 H 0.02589 0.55824 0.31698 0.0
H13 H 0.91686 0.44587 0.2751 0.0
H14 H 0.90311 0.44304 0.24443 0.0
H15 H 0.92356 0.50811 0.24647 0.0
H16 H 0.93753 0.51076 0.27722 0.0
H17 H 0.91764 0.50355 0.3044 0.0
H18 H 0.88626 0.49411 0.32208 0.0
H19 H 0.88299 0.43689 0.33592 0.0
H20 H 0.91422 0.44635 0.31777 0.0
H21 H 0.96499 0.47238 0.28716 0.0
H22 H 0.00258 0.49323 0.29454 0.0
H23 H 0.99085 0.53577 0.32527 0.0
N24 N 0.93418 0.47887 0.29687 0.0
H25 H 0.95348 0.5155 0.31667 0.0
C26 C 0.10431 0.57059 0.32073 0.0
C27 C 0.11951 0.56472 0.31867 0.0
C28 C 0.13798 0.57701 0.3092 0.0
C29 C 0.14162 0.59552 0.30151 0.0
C30 C 0.12582 0.60085 0.30285 0.0
C31 C 0.10739 0.58857 0.31244 0.0
C32 C 0.09251 0.56697 0.35174 0.0
C33 C 0.09742 0.58704 0.35683 0.0
C34 C 0.10599 0.59509 0.37397 0.0
C35 C 0.10948 0.58308 0.38633 0.0
C36 C 0.10319 0.56253 0.38152 0.0
C37 C 0.09487 0.55461 0.36435 0.0
C38 C 0.06593 0.54948 0.32732 0.0
C39 C 0.0551 0.52802 0.32475 0.0
C40 C 0.03376 0.51728 0.31959 0.0
C41 C 0.02273 0.52783 0.31657 0.0
C42 C 0.0337 0.54949 0.31924 0.0
C43 C 0.05506 0.5602 0.32474 0.0
C44 C 0.92805 0.47841 0.27836 0.0
C45 C 0.91862 0.45954 0.26879 0.0
C46 C 0.91086 0.45801 0.25129 0.0
C47 C 0.91227 0.47537 0.24304 0.0
C48 C 0.92212 0.49445 0.25255 0.0
C49 C 0.93011 0.496 0.27006 0.0
C50 C 0.91828 0.4756 0.30979 0.0
C51 C 0.91045 0.48918 0.31151 0.0
C52 C 0.89248 0.48376 0.32169 0.0
C53 C 0.88196 0.46463 0.33029 0.0
C54 C 0.8905 0.45157 0.32924 0.0
C55 C 0.90846 0.45703 0.31906 0.0
C56 C 0.9563 0.49209 0.3015 0.0
C57 C 0.9706 0.48629 0.29539 0.0
C58 C 0.9921 0.49819 0.29981 0.0
C59 C 0.9999 0.51609 0.31084 0.0
C60 C 0.98557 0.52219 0.31666 0.0
C61 C 0.96402 0.51043 0.31189 0.0
H62 H 0.4575 0.9188 0.47054 0.0
N63 N 0.43934 0.94104 0.45919 0.0
H64 H 0.44112 0.88861 0.48926 0.0
H65 H 0.40472 0.92805 0.47853 0.0
H66 H 0.38854 0.89826 0.49819 0.0
H67 H 0.40949 0.92651 0.43357 0.0
H68 H 0.40931 0.91002 0.40471 0.0
H69 H 0.47268 0.93914 0.44509 0.0
H70 H 0.47231 0.92199 0.41656 0.0
H71 H 0.47635 0.95528 0.47882 0.0
H72 H 0.43807 0.97435 0.45015 0.0
H73 H 0.5017 0.9912 0.48699 0.0
H74 H 0.46392 0.01048 0.4573 0.0
H75 H 0.58276 0.11091 0.50845 0.0
H76 H 0.58995 0.12594 0.53893 0.0
H77 H 0.52277 0.09461 0.54846 0.0
H78 H 0.51577 0.08026 0.51794 0.0
H79 H 0.52171 0.10779 0.4949 0.0
H80 H 0.52821 0.13905 0.47983 0.0
H81 H 0.57752 0.13836 0.44907 0.0
H82 H 0.57102 0.107 0.46438 0.0
H83 H 0.55344 0.05896 0.4848 0.0
H84 H 0.52828 0.0229 0.47645 0.0
H85 H 0.47702 0.03547 0.48032 0.0
N86 N 0.54544 0.08909 0.4918 0.0
H87 H 0.50239 0.07156 0.48755 0.0
C88 C 0.43218 0.92563 0.47291 0.0
C89 C 0.4426 0.91467 0.47665 0.0
C90 C 0.43321 0.89736 0.48755 0.0
C91 C 0.4133 0.89071 0.49511 0.0
C92 C 0.40363 0.90257 0.49228 0.0
C93 C 0.41295 0.91976 0.48123 0.0
C94 C 0.44093 0.93382 0.44151 0.0
C95 C 0.4234 0.92593 0.42974 0.0
C96 C 0.42332 0.91655 0.41332 0.0
C97 C 0.44073 0.91461 0.40854 0.0
C98 C 0.45862 0.92313 0.42006 0.0
C99 C 0.45884 0.93289 0.43633 0.0
C100 C 0.45503 0.96207 0.46409 0.0
C101 C 0.47338 0.96717 0.47422 0.0
C102 C 0.48805 0.98787 0.47873 0.0
C103 C 0.48492 0.00394 0.47293 0.0
C104 C 0.46673 0.99866 0.46244 0.0
C105 C 0.45197 0.978 0.45819 0.0
C106 C 0.54882 0.09441 0.5108 0.0
C107 C 0.56964 0.10695 0.51728 0.0
C108 C 0.57369 0.11549 0.53473 0.0
C109 C 0.55693 0.11163 0.54613 0.0
C110 C 0.53606 0.0982 0.53993 0.0
C111 C 0.53202 0.08975 0.52245 0.0
C112 C 0.54602 0.10506 0.48083 0.0
C113 C 0.5336 0.11402 0.48466 0.0
C114 C 0.53742 0.13201 0.47612 0.0
C115 C 0.55353 0.14127 0.46342 0.0
C116 C 0.56494 0.13152 0.45873 0.0
C117 C 0.56126 0.11363 0.46744 0.0
C118 C 0.52991 0.06798 0.48687 0.0
C119 C 0.53675 0.05387 0.48373 0.0
C120 C 0.52228 0.03319 0.47913 0.0
C121 C 0.50047 0.02606 0.47775 0.0
C122 C 0.49366 0.04033 0.48093 0.0
C123 C 0.5082 0.06107 0.48528 0.0
H124 H 0.47323 0.5697 0.66544 0.0
N125 N 0.45165 0.52832 0.67234 0.0
H126 H 0.45988 0.5881 0.64799 0.0
H127 H 0.41744 0.51169 0.65109 0.0
H128 H 0.40365 0.52995 0.63391 0.0
H129 H 0.41858 0.51288 0.6936 0.0
H130 H 0.41618 0.52593 0.72323 0.0
H131 H 0.4849 0.55851 0.69215 0.0
H132 H 0.48287 0.5716 0.72212 0.0
H133 H 0.48828 0.54991 0.65306 0.0
H134 H 0.44996 0.49356 0.6814 0.0
H135 H 0.51233 0.53797 0.64464 0.0
H136 H 0.47471 0.48199 0.67411 0.0
H137 H 0.58734 0.49538 0.61898 0.0
H138 H 0.59138 0.48505 0.58867 0.0
H139 H 0.52348 0.44548 0.58358 0.0
H140 H 0.51978 0.4551 0.61412 0.0
H141 H 0.52694 0.43838 0.64099 0.0
H142 H 0.53574 0.41584 0.65757 0.0
H143 H 0.59393 0.46913 0.67668 0.0
H144 H 0.58479 0.49172 0.66026 0.0
H145 H 0.56218 0.51895 0.64483 0.0
H146 H 0.5387 0.53154 0.65408 0.0
H147 H 0.48567 0.46884 0.65108 0.0
N148 N 0.55225 0.48028 0.63777 0.0
H149 H 0.50943 0.45648 0.64316 0.0
C150 C 0.44632 0.53922 0.65948 0.0
C151 C 0.45831 0.56086 0.65821 0.0
C152 C 0.45053 0.5714 0.64837 0.0
C153 C 0.43057 0.56055 0.63969 0.0
C154 C 0.41917 0.53882 0.64024 0.0
C155 C 0.427 0.52832 0.65004 0.0
C156 C 0.45183 0.53466 0.69076 0.0
C157 C 0.43273 0.52543 0.69994 0.0
C158 C 0.43145 0.5329 0.7169 0.0
C159 C 0.44936 0.54983 0.7251 0.0
C160 C 0.46875 0.55868 0.71611 0.0
C161 C 0.46998 0.55115 0.69906 0.0
C162 C 0.46698 0.52243 0.66768 0.0
C163 C 0.48505 0.53502 0.65762 0.0
C164 C 0.49902 0.52819 0.65294 0.0
C165 C 0.49552 0.50886 0.65854 0.0
C166 C 0.47775 0.49668 0.66908 0.0
C167 C 0.46364 0.50334 0.67344 0.0
C168 C 0.55335 0.47624 0.61888 0.0
C169 C 0.57333 0.48477 0.61116 0.0
C170 C 0.57557 0.47886 0.59377 0.0
C171 C 0.55775 0.46432 0.58359 0.0
C172 C 0.5376 0.45642 0.59109 0.0
C173 C 0.53542 0.46216 0.6086 0.0
C174 C 0.55513 0.46686 0.64961 0.0
C175 C 0.5412 0.44533 0.64924 0.0
C176 C 0.54631 0.43241 0.65867 0.0
C177 C 0.56556 0.44073 0.66836 0.0
C178 C 0.57905 0.4623 0.66923 0.0
C179 C 0.5738 0.4752 0.66 0.0
C180 C 0.53767 0.48687 0.64312 0.0
C181 C 0.54547 0.50799 0.64627 0.0
C182 C 0.53195 0.51514 0.65141 0.0
C183 C 0.51013 0.50128 0.65329 0.0
C184 C 0.50237 0.48004 0.6501 0.0
C185 C 0.51599 0.47289 0.64529 0.0
H186 H 0.11982 0.60198 0.80571 0.0
N187 N 0.08739 0.56488 0.79726 0.0
H188 H 0.1512 0.61021 0.82368 0.0
H189 H 0.09244 0.53757 0.8178 0.0
H190 H 0.12315 0.54567 0.83662 0.0
H191 H 0.09402 0.53486 0.78311 0.0
H192 H 0.10899 0.5354 0.75371 0.0
H193 H 0.09351 0.59045 0.77081 0.0
H194 H 0.10903 0.59155 0.74159 0.0
H195 H 0.06347 0.58047 0.80641 0.0
H196 H 0.062 0.52272 0.79928 0.0
H197 H 0.02641 0.56196 0.81487 0.0
H198 H 0.02524 0.50397 0.80879 0.0
H199 H 0.91106 0.50342 0.84954 0.0
H200 H 0.89579 0.49182 0.87907 0.0
H201 H 0.92927 0.45843 0.88409 0.0
H202 H 0.94393 0.46971 0.85414 0.0
H203 H 0.92108 0.45094 0.82723 0.0
H204 H 0.88905 0.4251 0.81119 0.0
H205 H 0.87952 0.47363 0.79134 0.0
H206 H 0.91134 0.49933 0.80795 0.0
H207 H 0.96635 0.5271 0.84482 0.0
H208 H 0.00372 0.54367 0.83782 0.0
H209 H 0.99014 0.49349 0.80046 0.0
N210 N 0.93446 0.49208 0.83114 0.0
H211 H 0.9531 0.47641 0.80834 0.0
C212 C 0.10371 0.56927 0.81048 0.0
C213 C 0.12033 0.58971 0.81274 0.0
C214 C 0.13825 0.59436 0.82309 0.0
C215 C 0.13987 0.57861 0.83163 0.0
C216 C 0.12269 0.55818 0.83001 0.0
C217 C 0.10489 0.55351 0.8194 0.0
C218 C 0.09253 0.5626 0.77905 0.0
C219 C 0.09665 0.54691 0.7739 0.0
C220 C 0.10549 0.54741 0.75716 0.0
C221 C 0.11044 0.56364 0.74532 0.0
C222 C 0.10523 0.57869 0.75022 0.0
C223 C 0.09637 0.57813 0.76691 0.0
C224 C 0.06559 0.5531 0.80245 0.0
C225 C 0.05516 0.56376 0.80694 0.0
C226 C 0.03398 0.5531 0.81193 0.0
C227 C 0.02272 0.53137 0.81281 0.0
C228 C 0.03325 0.52065 0.80818 0.0
C229 C 0.05443 0.5314 0.80292 0.0
C230 C 0.92861 0.4875 0.8497 0.0
C231 C 0.91539 0.49393 0.85721 0.0
C232 C 0.90675 0.48731 0.87413 0.0
C233 C 0.91124 0.47412 0.88402 0.0
C234 C 0.92523 0.46833 0.87676 0.0
C235 C 0.93379 0.47491 0.85972 0.0
C236 C 0.91856 0.47711 0.81879 0.0
C237 C 0.91234 0.45604 0.81914 0.0
C238 C 0.89402 0.44128 0.80989 0.0
C239 C 0.88154 0.44726 0.80014 0.0
C240 C 0.88854 0.46846 0.79898 0.0
C241 C 0.90685 0.48319 0.80824 0.0
C242 C 0.95665 0.50047 0.82726 0.0
C243 C 0.97147 0.5195 0.83532 0.0
C244 C 0.99287 0.5291 0.8311 0.0
C245 C 1.00008 0.52015 0.81832 0.0
C246 C 0.98532 0.50082 0.81049 0.0
C247 C 0.96389 0.49102 0.81496 0.0
H248 H 0.51919 0.12256 0.97039 0.0
N249 N 0.52331 0.09031 0.9623 0.0
H250 H 0.54392 0.15377 0.9875 0.0
H251 H 0.55769 0.09571 0.98179 0.0
H252 H 0.58221 0.12655 0.99962 0.0
H253 H 0.56154 0.10111 0.9476 0.0
H254 H 0.573 0.1147 0.91765 0.0
H255 H 0.49911 0.09019 0.93544 0.0
H256 H 0.51019 0.10312 0.90508 0.0
H257 H 0.48919 0.0688 0.98175 0.0
H258 H 0.53959 0.06483 0.95627 0.0
H259 H 0.47361 0.03311 0.99125 0.0
H260 H 0.5236 0.02877 0.96486 0.0
H261 H 0.422 0.927 0.01932 0.0
H262 H 0.41859 0.91158 0.04866 0.0
H263 H 0.48502 0.93075 0.04828 0.0
H264 H 0.48787 0.94511 0.0186 0.0
H265 H 0.48534 0.93355 0.98702 0.0
H266 H 0.47852 0.90201 0.9708 0.0
H267 H 0.41249 0.88336 0.96527 0.0
H268 H 0.41948 0.91486 0.98164 0.0
H269 H 0.43733 0.96338 0.98776 0.0
H270 H 0.45462 0.99945 0.97897 0.0
H271 H 0.51569 0.00531 0.98863 0.0
N272 N 0.45526 0.94223 0.99817 0.0
H273 H 0.49811 0.9689 0.99645 0.0
C274 C 0.5365 0.10683 0.97489 0.0
C275 C 0.53273 0.12324 0.97705 0.0
C276 C 0.54688 0.14104 0.9869 0.0
C277 C 0.56518 0.14279 0.99495 0.0
C278 C 0.56848 0.1259 0.99339 0.0
C279 C 0.55434 0.10812 0.98337 0.0
C280 C 0.52943 0.09475 0.94379 0.0
C281 C 0.55012 0.10114 0.93831 0.0
C282 C 0.55664 0.10886 0.9211 0.0
C283 C 0.54259 0.11026 0.90898 0.0
C284 C 0.52155 0.10267 0.91418 0.0
C285 C 0.5151 0.09506 0.93142 0.0
C286 C 0.5153 0.06943 0.9681 0.0
C287 C 0.49681 0.06013 0.97814 0.0
C288 C 0.48785 0.03965 0.9834 0.0
C289 C 0.49709 0.0278 0.97858 0.0
C290 C 0.51605 0.03736 0.96891 0.0
C291 C 0.52515 0.05801 0.96382 0.0
C292 C 0.45514 0.93735 0.01682 0.0
C293 C 0.43591 0.92829 0.02582 0.0
C294 C 0.43403 0.91951 0.04263 0.0
C295 C 0.4515 0.91973 0.05087 0.0
C296 C 0.47113 0.92992 0.04223 0.0
C297 C 0.47289 0.93849 0.0253 0.0
C298 C 0.45284 0.92649 0.98549 0.0
C299 C 0.46954 0.92297 0.98188 0.0
C300 C 0.46561 0.90492 0.97261 0.0
C301 C 0.44491 0.89009 0.96696 0.0
C302 C 0.42854 0.89435 0.96967 0.0
C303 C 0.43251 0.91239 0.97883 0.0
C304 C 0.46633 0.9635 0.99296 0.0
C305 C 0.45445 0.97249 0.98791 0.0
C306 C 0.46441 0.99319 0.98306 0.0
C307 C 0.48663 0.00552 0.98332 0.0
C308 C 0.49857 0.99633 0.98816 0.0
C309 C 0.48852 0.97548 0.99285 0.0
H310 H 0.52566 0.43014 0.15002 0.0
N311 N 0.53578 0.46556 0.16678 0.0
H312 H 0.549 0.42242 0.13247 0.0
H313 H 0.57513 0.49391 0.15535 0.0
H314 H 0.5984 0.48657 0.13746 0.0
H315 H 0.56908 0.49489 0.18681 0.0
H316 H 0.58011 0.49018 0.21664 0.0
H317 H 0.51342 0.43445 0.18852 0.0
H318 H 0.52355 0.4299 0.21877 0.0
H319 H 0.4944 0.44882 0.16243 0.0
H320 H 0.55303 0.50684 0.16082 0.0
H321 H 0.47488 0.466 0.15452 0.0
H322 H 0.5339 0.52414 0.15164 0.0
H323 H 0.41958 0.5227 0.11124 0.0
H324 H 0.41884 0.53602 0.08169 0.0
H325 H 0.48724 0.57054 0.08208 0.0
H326 H 0.48768 0.55748 0.11198 0.0
H327 H 0.4798 0.57497 0.13741 0.0
H328 H 0.47165 0.59849 0.15348 0.0
H329 H 0.41351 0.54638 0.17178 0.0
H330 H 0.42149 0.52295 0.15485 0.0
H331 H 0.44583 0.49606 0.12322 0.0
H332 H 0.46688 0.48039 0.13074 0.0
H333 H 0.51127 0.5361 0.16039 0.0
N334 N 0.45308 0.53336 0.13225 0.0
H335 H 0.49081 0.55207 0.15175 0.0
C336 C 0.54855 0.46254 0.1539 0.0
C337 C 0.54137 0.44257 0.14693 0.0
C338 C 0.55474 0.43823 0.1369 0.0
C339 C 0.57567 0.45385 0.13365 0.0
C340 C 0.5825 0.47411 0.13995 0.0
C341 C 0.5691 0.4784 0.15002 0.0
C342 C 0.54057 0.46485 0.18544 0.0
C343 C 0.55902 0.48078 0.19381 0.0
C344 C 0.56521 0.47808 0.21094 0.0
C345 C 0.5529 0.45949 0.22006 0.0
C346 C 0.53372 0.44418 0.212 0.0
C347 C 0.52773 0.44682 0.19483 0.0
C348 C 0.5251 0.47643 0.16188 0.0
C349 C 0.50305 0.46528 0.16008 0.0
C350 C 0.49196 0.47516 0.15538 0.0
C351 C 0.50274 0.49651 0.15208 0.0
C352 C 0.52497 0.50774 0.15414 0.0
C353 C 0.53603 0.49782 0.15916 0.0
C354 C 0.45359 0.53902 0.11375 0.0
C355 C 0.43437 0.53281 0.10475 0.0
C356 C 0.43403 0.54042 0.08783 0.0
C357 C 0.453 0.55443 0.07948 0.0
C358 C 0.47234 0.56001 0.08823 0.0
C359 C 0.47265 0.55241 0.10524 0.0
C360 C 0.45114 0.54712 0.14486 0.0
C361 C 0.46551 0.56855 0.14516 0.0
C362 C 0.46083 0.58203 0.15446 0.0
C363 C 0.44175 0.5744 0.16379 0.0
C364 C 0.42812 0.55285 0.16444 0.0
C365 C 0.43276 0.5394 0.155 0.0
C366 C 0.46641 0.52507 0.13706 0.0
C367 C 0.46016 0.50489 0.13128 0.0
C368 C 0.47218 0.49591 0.13577 0.0
C369 C 0.49069 0.50677 0.1465 0.0
C370 C 0.49722 0.52724 0.15202 0.0
C371 C 0.48533 0.53638 0.14722 0.0
Mn372 Mn 0.63185 0.38297 0.40552 0.0
Mn373 Mn 0.65661 0.43389 0.41658 0.0
C374 C 0.61654 0.39525 0.42549 0.0
C375 C 0.62592 0.34978 0.41034 0.0
C376 C 0.63279 0.41595 0.38118 0.0
O377 O 0.66201 0.39351 0.39733 0.0
O378 O 0.67739 0.42677 0.40684 0.0
C379 C 0.68333 0.43424 0.44682 0.0
N380 N 0.66842 0.43831 0.44038 0.0
C381 C 0.66601 0.45197 0.46922 0.0
C382 C 0.68144 0.44803 0.47613 0.0
C383 C 0.69009 0.43908 0.46489 0.0
C384 C 0.65993 0.44685 0.45109 0.0
H385 H 0.68997 0.42731 0.43823 0.0
C386 C 0.67819 0.41158 0.39955 0.0
O387 O 0.62205 0.35492 0.39478 0.0
O388 O 0.63387 0.36411 0.42285 0.0
N389 N 0.63854 0.443 0.42631 0.0
C390 C 0.62315 0.44495 0.41777 0.0
C391 C 0.6127 0.45343 0.4272 0.0
C392 C 0.61827 0.45994 0.44525 0.0
C393 C 0.63422 0.45786 0.45373 0.0
C394 C 0.64424 0.44952 0.44359 0.0
H395 H 0.61884 0.44006 0.40388 0.0
O396 O 0.60504 0.37772 0.41696 0.0
O397 O 0.63665 0.40498 0.42219 0.0
O398 O 0.62655 0.39708 0.38439 0.0
O399 O 0.64446 0.43086 0.39211 0.0
C400 C 0.64035 0.46346 0.47192 0.0
C401 C 0.65618 0.46046 0.47967 0.0
H402 H 0.68664 0.45167 0.49008 0.0
H403 H 0.70193 0.43591 0.47015 0.0
H404 H 0.60038 0.45496 0.42057 0.0
H405 H 0.61017 0.46646 0.45248 0.0
H406 H 0.63277 0.46982 0.48013 0.0
H407 H 0.66055 0.46455 0.49374 0.0
Mn408 Mn 0.27053 0.64935 0.56428 0.0
Mn409 Mn 0.24738 0.59868 0.55299 0.0
C410 C 0.2426 0.63483 0.54348 0.0
C411 C 0.29707 0.6835 0.55986 0.0
C412 C 0.23946 0.61471 0.58816 0.0
O413 O 0.29171 0.64149 0.57366 0.0
O414 O 0.27642 0.60885 0.56259 0.0
C415 C 0.27467 0.60115 0.52291 0.0
N416 N 0.25513 0.59552 0.5292 0.0
C417 C 0.23857 0.57899 0.5009 0.0
C418 C 0.2585 0.58446 0.49415 0.0
C419 C 0.27664 0.59578 0.50514 0.0
C420 C 0.23764 0.58521 0.51856 0.0
H421 H 0.28861 0.60953 0.53143 0.0
C422 C 0.29166 0.62465 0.57069 0.0
O423 O 0.28737 0.67781 0.57506 0.0
O424 O 0.29177 0.66926 0.54747 0.0
N425 N 0.21918 0.5865 0.54339 0.0
C426 C 0.20098 0.58073 0.55243 0.0
C427 C 0.1814 0.56937 0.54332 0.0
C428 C 0.18066 0.56345 0.52519 0.0
C429 C 0.19952 0.56872 0.51641 0.0
C430 C 0.2186 0.58035 0.52609 0.0
H431 H 0.20137 0.58482 0.56648 0.0
O432 O 0.24792 0.65217 0.55177 0.0
O433 O 0.25417 0.62676 0.54728 0.0
O434 O 0.25055 0.63392 0.58481 0.0
O435 O 0.23803 0.60048 0.57751 0.0
C436 C 0.20007 0.56225 0.49863 0.0
C437 C 0.21955 0.56723 0.49094 0.0
H438 H 0.26006 0.57997 0.48058 0.0
H439 H 0.29208 0.60009 0.50002 0.0
H440 H 0.16689 0.56502 0.55031 0.0
H441 H 0.16551 0.5545 0.51826 0.0
H442 H 0.18556 0.55315 0.49084 0.0
H443 H 0.21969 0.56181 0.47738 0.0
Mn444 Mn 0.63088 0.2667 0.72778 0.0
Mn445 Mn 0.6567 0.24098 0.71909 0.0
C446 C 0.61755 0.24034 0.70621 0.0
C447 C 0.62569 0.29447 0.72294 0.0
C448 C 0.62979 0.23366 0.75203 0.0
O449 O 0.66011 0.28551 0.73912 0.0
O450 O 0.67657 0.26841 0.73044 0.0
C451 C 0.68565 0.26807 0.69124 0.0
N452 N 0.67029 0.24902 0.69641 0.0
C453 C 0.67021 0.23387 0.66759 0.0
C454 C 0.68611 0.25332 0.66199 0.0
C455 C 0.69383 0.2705 0.67386 0.0
C456 C 0.66271 0.2324 0.68508 0.0
H457 H 0.69159 0.28132 0.70032 0.0
C458 C 0.67659 0.2839 0.73802 0.0
O459 O 0.61996 0.28424 0.73774 0.0
O460 O 0.63487 0.28887 0.71113 0.0
N461 N 0.6395 0.21425 0.70794 0.0
C462 C 0.6236 0.19674 0.71518 0.0
C463 C 0.61402 0.17818 0.70498 0.0
C464 C 0.62097 0.17778 0.68752 0.0
C465 C 0.63743 0.19596 0.68038 0.0
C466 C 0.64654 0.21394 0.69125 0.0
H467 H 0.61825 0.19691 0.72864 0.0
O468 O 0.60534 0.24617 0.71349 0.0
O469 O 0.63726 0.25032 0.71155 0.0
O470 O 0.6234 0.24608 0.74801 0.0
O471 O 0.64277 0.23119 0.74246 0.0
C472 C 0.64497 0.197 0.66283 0.0
C473 C 0.66129 0.21596 0.65641 0.0
H474 H 0.69241 0.25527 0.64857 0.0
H475 H 0.70604 0.28557 0.66961 0.0
H476 H 0.60131 0.16422 0.71058 0.0
H477 H 0.61355 0.16343 0.6797 0.0
H478 H 0.63812 0.18337 0.65407 0.0
H479 H 0.66676 0.21663 0.64281 0.0
Mn480 Mn 0.38979 0.65173 0.90818 0.0
Mn481 Mn 0.3637 0.60059 0.91649 0.0
C482 C 0.40385 0.63876 0.92853 0.0
C483 C 0.39552 0.68486 0.91391 0.0
C484 C 0.38916 0.61883 0.88286 0.0
O485 O 0.36014 0.64177 0.89812 0.0
O486 O 0.34373 0.6084 0.90611 0.0
C487 C 0.33613 0.60018 0.94553 0.0
N488 N 0.351 0.59585 0.93957 0.0
C489 C 0.35153 0.58083 0.96778 0.0
C490 C 0.33614 0.58504 0.9742 0.0
C491 C 0.32845 0.5948 0.96304 0.0
C492 C 0.35857 0.58654 0.95022 0.0
H493 H 0.33019 0.60768 0.93698 0.0
C494 C 0.34367 0.62387 0.89914 0.0
O495 O 0.40045 0.67991 0.89864 0.0
O496 O 0.38696 0.67048 0.92572 0.0
N497 N 0.38089 0.59067 0.92659 0.0
C498 C 0.39626 0.5884 0.91858 0.0
C499 C 0.40571 0.57899 0.92798 0.0
C500 C 0.39913 0.57186 0.94542 0.0
C501 C 0.38323 0.57429 0.95336 0.0
C502 C 0.37423 0.58358 0.94326 0.0
H503 H 0.40127 0.59369 0.90512 0.0
O504 O 0.41586 0.65646 0.9212 0.0
O505 O 0.38388 0.62931 0.92398 0.0
O506 O 0.39593 0.63777 0.88701 0.0
O507 O 0.37663 0.60389 0.89271 0.0
C508 C 0.37615 0.5681 0.97096 0.0
C509 C 0.36037 0.57145 0.9782 0.0
H510 H 0.33021 0.58096 0.98771 0.0
H511 H 0.31662 0.59816 0.96792 0.0
H512 H 0.41799 0.57719 0.92178 0.0
H513 H 0.40641 0.56455 0.95259 0.0
H514 H 0.38293 0.56101 0.97914 0.0
H515 H 0.35524 0.56687 0.99183 0.0
Mn516 Mn 0.75083 0.38862 0.06575 0.0
Mn517 Mn 0.7766 0.36243 0.07188 0.0
C518 C 0.78048 0.40259 0.08454 0.0
C519 C 0.72382 0.39524 0.07278 0.0
C520 C 0.78136 0.38716 0.03869 0.0
O521 O 0.72949 0.35958 0.05644 0.0
O522 O 0.74752 0.34338 0.06239 0.0
C523 C 0.75086 0.33584 0.10143 0.0
N524 N 0.77006 0.34982 0.09484 0.0
C525 C 0.78804 0.34848 0.12155 0.0
C526 C 0.76847 0.33399 0.12861 0.0
C527 C 0.7498 0.32772 0.11853 0.0
C528 C 0.78809 0.35611 0.10448 0.0
H529 H 0.7365 0.33094 0.09368 0.0
C530 C 0.73104 0.34341 0.05665 0.0
O531 O 0.73249 0.39926 0.0571 0.0
O532 O 0.73066 0.38708 0.08435 0.0
N533 N 0.80496 0.37847 0.08103 0.0
C534 C 0.8224 0.39321 0.07259 0.0
C535 C 0.84243 0.40092 0.08071 0.0
C536 C 0.84429 0.39334 0.09736 0.0
C537 C 0.82608 0.3785 0.10596 0.0
C538 C 0.8066 0.37109 0.09705 0.0
H539 H 0.8211 0.39877 0.05962 0.0
O540 O 0.77393 0.41418 0.07765 0.0
O541 O 0.76913 0.38287 0.08058 0.0
O542 O 0.7692 0.39378 0.04362 0.0
O543 O 0.7848 0.37502 0.04804 0.0
C544 C 0.8265 0.37071 0.12299 0.0
C545 C 0.80747 0.35584 0.13084 0.0
H546 H 0.76759 0.32767 0.14178 0.0
H547 H 0.73463 0.3166 0.12391 0.0
H548 H 0.85641 0.41241 0.074 0.0
H549 H 0.85977 0.39885 0.10336 0.0
H550 H 0.84135 0.37623 0.13023 0.0
H551 H 0.80795 0.35018 0.14405 0.0
Mn552 Mn 0.38596 0.76105 0.2314 0.0
Mn553 Mn 0.43909 0.78335 0.23303 0.0
C554 C 0.40593 0.78877 0.25116 0.0
C555 C 0.35216 0.73566 0.23992 0.0
C556 C 0.41539 0.79076 0.2033 0.0
O557 O 0.39099 0.73952 0.21874 0.0
O558 O 0.42629 0.75498 0.22268 0.0
C559 C 0.44324 0.75668 0.25967 0.0
N560 N 0.44783 0.77579 0.25442 0.0
C561 C 0.4718 0.79213 0.27958 0.0
C562 C 0.46739 0.77264 0.28528 0.0
C563 C 0.45292 0.75482 0.27535 0.0
C564 C 0.46136 0.79298 0.26406 0.0
H565 H 0.4324 0.74299 0.2519 0.0
C566 C 0.40845 0.73972 0.21734 0.0
O567 O 0.35537 0.74516 0.22483 0.0
O568 O 0.36869 0.74068 0.25003 0.0
N569 N 0.4536 0.81085 0.24294 0.0
C570 C 0.45564 0.82841 0.23591 0.0
C571 C 0.46908 0.84756 0.24454 0.0
C572 C 0.48068 0.84848 0.26002 0.0
C573 C 0.4785 0.8302 0.26683 0.0
C574 C 0.46452 0.81155 0.25792 0.0
H575 H 0.44709 0.82783 0.2238 0.0
O576 O 0.38689 0.78394 0.24631 0.0
O577 O 0.41258 0.77693 0.24463 0.0
O578 O 0.39702 0.77997 0.20978 0.0
O579 O 0.43203 0.79249 0.21061 0.0
C580 C 0.48994 0.82979 0.28193 0.0
C581 C 0.48643 0.81078 0.28846 0.0
H582 H 0.47504 0.77118 0.29723 0.0
H583 H 0.44943 0.73972 0.27964 0.0
H584 H 0.4707 0.86158 0.23915 0.0
H585 H 0.49124 0.86329 0.26654 0.0
H586 H 0.50175 0.84407 0.28836 0.0
H587 H 0.49525 0.81068 0.30018 0.0
H588 H 0.16438 0.63785 0.30398 0.0
H589 H 0.19929 0.66117 0.2921 0.0
H590 H 0.20175 0.60902 0.26979 0.0
H591 H 0.16633 0.58564 0.2808 0.0
H592 H 0.23583 0.66554 0.29987 0.0
H593 H 0.23249 0.623 0.23293 0.0
H594 H 0.20631 0.6009 0.20951 0.0
H595 H 0.16777 0.62709 0.22271 0.0
H596 H 0.19384 0.64953 0.24604 0.0
H597 H 0.34041 0.7091 0.26805 0.0
H598 H 0.30444 0.68451 0.27748 0.0
H599 H 0.2791 0.70354 0.23411 0.0
H600 H 0.3149 0.7275 0.22428 0.0
H601 H 0.25613 0.66412 0.2366 0.0
H602 H 0.28269 0.72108 0.27897 0.0
H603 H 0.30772 0.74629 0.30153 0.0
H604 H 0.29757 0.69679 0.33592 0.0
H605 H 0.27268 0.67127 0.31345 0.0
C606 C 0.17208 0.63131 0.29618 0.0
C607 C 0.1624 0.6098 0.29329 0.0
C608 C 0.19221 0.64469 0.28958 0.0
C609 C 0.20319 0.63692 0.27997 0.0
C610 C 0.19354 0.61547 0.27695 0.0
C611 C 0.17332 0.60207 0.28343 0.0
C612 C 0.22494 0.65123 0.27358 0.0
C613 C 0.24025 0.6652 0.28603 0.0
C614 C 0.23072 0.65107 0.25547 0.0
C615 C 0.21502 0.63777 0.24136 0.0
C616 C 0.21847 0.62408 0.23079 0.0
C617 C 0.20364 0.61149 0.21754 0.0
C618 C 0.18536 0.61254 0.21467 0.0
C619 C 0.1819 0.62623 0.225 0.0
C620 C 0.19668 0.63887 0.23825 0.0
C621 C 0.32716 0.70796 0.26049 0.0
C622 C 0.3305 0.7203 0.24547 0.0
C623 C 0.30659 0.69396 0.26594 0.0
C624 C 0.28898 0.69235 0.25668 0.0
C625 C 0.29236 0.70444 0.24148 0.0
C626 C 0.31287 0.7182 0.2359 0.0
C627 C 0.26705 0.67837 0.26291 0.0
C628 C 0.25173 0.66441 0.25045 0.0
C629 C 0.26109 0.67896 0.28089 0.0
C630 C 0.27599 0.69427 0.29446 0.0
C631 C 0.28591 0.71557 0.29129 0.0
C632 C 0.30006 0.72992 0.30407 0.0
C633 C 0.30428 0.72314 0.32013 0.0
C634 C 0.29431 0.70201 0.32347 0.0
C635 C 0.28017 0.6876 0.31072 0.0
H636 H 0.31523 0.73427 0.33001 0.0
H637 H 0.1739 0.60277 0.20441 0.0
H638 H 0.56113 0.15391 0.42845 0.0
H639 H 0.57271 0.18855 0.41732 0.0
H640 H 0.57226 0.20996 0.47149 0.0
H641 H 0.56005 0.17533 0.48249 0.0
H642 H 0.55706 0.22594 0.45048 0.0
H643 H 0.61895 0.21954 0.44907 0.0
H644 H 0.64022 0.20379 0.44068 0.0
H645 H 0.63197 0.21193 0.38474 0.0
H646 H 0.6104 0.2275 0.3928 0.0
H647 H 0.62531 0.33355 0.443 0.0
H648 H 0.61262 0.29742 0.44978 0.0
H649 H 0.60051 0.28101 0.3933 0.0
H650 H 0.61301 0.31724 0.38636 0.0
H651 H 0.62085 0.26212 0.41298 0.0
H652 H 0.56031 0.27109 0.41625 0.0
H653 H 0.54138 0.28865 0.42645 0.0
H654 H 0.54985 0.27726 0.48144 0.0
H655 H 0.5691 0.25987 0.47158 0.0
C656 C 0.56343 0.16603 0.43793 0.0
C657 C 0.55962 0.16191 0.45632 0.0
C658 C 0.57016 0.18585 0.43159 0.0
C659 C 0.5737 0.20204 0.44359 0.0
C660 C 0.5696 0.1978 0.46192 0.0
C661 C 0.56258 0.17796 0.46821 0.0
C662 C 0.58176 0.22346 0.43723 0.0
C663 C 0.57113 0.23384 0.44242 0.0
C664 C 0.59991 0.2338 0.42641 0.0
C665 C 0.61286 0.22446 0.42153 0.0
C666 C 0.62154 0.21782 0.43497 0.0
C667 C 0.63366 0.20896 0.43028 0.0
C668 C 0.63739 0.2068 0.41219 0.0
C669 C 0.62903 0.21357 0.39875 0.0
C670 C 0.61687 0.22243 0.40337 0.0
C671 C 0.62016 0.32232 0.43197 0.0
C672 C 0.62009 0.32824 0.41413 0.0
C673 C 0.61286 0.30167 0.43589 0.0
C674 C 0.60547 0.28654 0.42206 0.0
C675 C 0.60613 0.29248 0.40416 0.0
C676 C 0.61322 0.31315 0.40023 0.0
C677 C 0.59631 0.26446 0.42649 0.0
C678 C 0.60671 0.25404 0.42093 0.0
C679 C 0.57818 0.25418 0.43723 0.0
C680 C 0.5663 0.26432 0.44317 0.0
C681 C 0.55826 0.27245 0.43052 0.0
C682 C 0.54745 0.28235 0.43624 0.0
C683 C 0.54446 0.28411 0.45458 0.0
C684 C 0.5522 0.2759 0.46724 0.0
C685 C 0.56303 0.26599 0.46159 0.0
H686 H 0.53611 0.29181 0.45899 0.0
H687 H 0.64679 0.19994 0.40858 0.0
H688 H 0.40692 0.5506 0.60841 0.0
H689 H 0.38808 0.56704 0.5965 0.0
H690 H 0.41367 0.61259 0.63984 0.0
H691 H 0.43185 0.5957 0.65226 0.0
H692 H 0.37281 0.59803 0.63616 0.0
H693 H 0.43057 0.62539 0.59618 0.0
H694 H 0.45591 0.62482 0.57493 0.0
H695 H 0.40492 0.58621 0.53814 0.0
H696 H 0.37923 0.5863 0.55929 0.0
H697 H 0.32288 0.6491 0.5956 0.0
H698 H 0.35142 0.644 0.60696 0.0
H699 H 0.33004 0.59102 0.57119 0.0
H700 H 0.30176 0.59595 0.5598 0.0
H701 H 0.3733 0.61548 0.57202 0.0
H702 H 0.31575 0.58475 0.61437 0.0
H703 H 0.2906 0.5857 0.63564 0.0
H704 H 0.34232 0.63186 0.66804 0.0
H705 H 0.36778 0.63139 0.6468 0.0
C706 C 0.40859 0.56415 0.61539 0.0
C707 C 0.42092 0.5718 0.6313 0.0
C708 C 0.39798 0.57368 0.60846 0.0
C709 C 0.39962 0.59122 0.61716 0.0
C710 C 0.41223 0.59914 0.63285 0.0
C711 C 0.4228 0.58957 0.63983 0.0
C712 C 0.38716 0.60046 0.61043 0.0
C713 C 0.37328 0.60227 0.62222 0.0
C714 C 0.38756 0.60581 0.5922 0.0
C715 C 0.40295 0.60574 0.57939 0.0
C716 C 0.42474 0.61665 0.58362 0.0
C717 C 0.43917 0.61644 0.57158 0.0
C718 C 0.43203 0.60546 0.55521 0.0
C719 C 0.41043 0.59471 0.55083 0.0
C720 C 0.39593 0.59486 0.56283 0.0
C721 C 0.32441 0.6365 0.59005 0.0
C722 C 0.3099 0.62283 0.57691 0.0
C723 C 0.34067 0.63357 0.59658 0.0
C724 C 0.34274 0.61703 0.59 0.0
C725 C 0.32876 0.60388 0.57645 0.0
C726 C 0.31249 0.60667 0.57004 0.0
C727 C 0.35871 0.61256 0.59765 0.0
C728 C 0.3732 0.61161 0.58603 0.0
C729 C 0.35894 0.60809 0.61604 0.0
C730 C 0.34365 0.60822 0.62889 0.0
C731 C 0.32175 0.59521 0.62596 0.0
C732 C 0.30744 0.59565 0.63801 0.0
C733 C 0.31486 0.60888 0.65315 0.0
C734 C 0.3366 0.62165 0.65629 0.0
C735 C 0.35097 0.62131 0.64425 0.0
H736 H 0.30376 0.60921 0.66246 0.0
H737 H 0.44322 0.60531 0.5459 0.0
H738 H 0.84454 0.44781 0.80062 0.0
H739 H 0.80962 0.42101 0.78967 0.0
H740 H 0.83566 0.38358 0.77212 0.0
H741 H 0.87088 0.41068 0.78252 0.0
H742 H 0.80798 0.38272 0.74747 0.0
H743 H 0.80895 0.37399 0.81129 0.0
H744 H 0.8139 0.38517 0.84323 0.0
H745 H 0.76501 0.40031 0.83786 0.0
H746 H 0.76 0.38952 0.80579 0.0
H747 H 0.71487 0.28589 0.73852 0.0
H748 H 0.74891 0.31438 0.74905 0.0
H749 H 0.71945 0.34943 0.76435 0.0
H750 H 0.68501 0.32076 0.75398 0.0
H751 H 0.74829 0.35251 0.78986 0.0
H752 H 0.74666 0.36018 0.72613 0.0
H753 H 0.74155 0.34849 0.69433 0.0
H754 H 0.79166 0.33504 0.69965 0.0
H755 H 0.79685 0.34635 0.73158 0.0
C756 C 0.84296 0.43405 0.79414 0.0
C757 C 0.86056 0.43142 0.79245 0.0
C758 C 0.82291 0.41863 0.78808 0.0
C759 C 0.81996 0.40015 0.78032 0.0
C760 C 0.83755 0.39767 0.77815 0.0
C761 C 0.85765 0.41312 0.78421 0.0
C762 C 0.79848 0.3833 0.7747 0.0
C763 C 0.795 0.37596 0.75679 0.0
C764 C 0.78139 0.37481 0.78676 0.0
C765 C 0.78426 0.38115 0.80609 0.0
C766 C 0.79937 0.37985 0.81688 0.0
C767 C 0.80217 0.3861 0.83502 0.0
C768 C 0.78981 0.3935 0.84256 0.0
C769 C 0.77459 0.39461 0.83199 0.0
C770 C 0.77175 0.38842 0.81384 0.0
C771 C 0.71549 0.29958 0.74417 0.0
C772 C 0.69711 0.30101 0.74528 0.0
C773 C 0.73505 0.31592 0.75014 0.0
C774 C 0.73679 0.33416 0.75723 0.0
C775 C 0.71846 0.33551 0.75885 0.0
C776 C 0.6988 0.31911 0.75288 0.0
C777 C 0.75786 0.35186 0.76266 0.0
C778 C 0.76126 0.35935 0.78053 0.0
C779 C 0.7749 0.36048 0.75057 0.0
C780 C 0.77203 0.35395 0.73129 0.0
C781 C 0.7565 0.3546 0.72055 0.0
C782 C 0.75359 0.34805 0.7025 0.0
C783 C 0.76624 0.34098 0.69498 0.0
C784 C 0.78186 0.3405 0.70549 0.0
C785 C 0.78481 0.347 0.72357 0.0
H786 H 0.76395 0.3359 0.68101 0.0
H787 H 0.792 0.39834 0.85659 0.0
H788 H 0.41276 0.85251 0.97677 0.0
H789 H 0.40524 0.81838 0.96633 0.0
H790 H 0.45849 0.84666 0.93104 0.0
H791 H 0.46611 0.88109 0.94142 0.0
H792 H 0.42053 0.81283 0.915 0.0
H793 H 0.4648 0.82849 0.96793 0.0
H794 H 0.47531 0.8393 0.99964 0.0
H795 H 0.41677 0.78785 0.01684 0.0
H796 H 0.40574 0.77693 0.98521 0.0
H797 H 0.42162 0.72008 0.89593 0.0
H798 H 0.43065 0.75542 0.90375 0.0
H799 H 0.38828 0.7329 0.94855 0.0
H800 H 0.37993 0.69767 0.94121 0.0
H801 H 0.42261 0.76506 0.9592 0.0
H802 H 0.37678 0.74981 0.90775 0.0
H803 H 0.36406 0.73877 0.87646 0.0
H804 H 0.42237 0.78849 0.8569 0.0
H805 H 0.43555 0.79968 0.8881 0.0
C806 C 0.42273 0.8515 0.9666 0.0
C807 C 0.43999 0.86949 0.95984 0.0
C808 C 0.41849 0.83198 0.96076 0.0
C809 C 0.43139 0.83002 0.94802 0.0
C810 C 0.44837 0.84789 0.94091 0.0
C811 C 0.45277 0.8675 0.9469 0.0
C812 C 0.42726 0.8092 0.94248 0.0
C813 C 0.42129 0.80245 0.92456 0.0
C814 C 0.42769 0.79553 0.95512 0.0
C815 C 0.43437 0.802 0.97418 0.0
C816 C 0.45409 0.81958 0.97846 0.0
C817 C 0.46015 0.82571 0.99643 0.0
C818 C 0.44669 0.8143 0.01025 0.0
C819 C 0.42716 0.7967 0.00613 0.0
C820 C 0.421 0.79052 0.98818 0.0
C821 C 0.41413 0.72266 0.90737 0.0
C822 C 0.40004 0.7061 0.91795 0.0
C823 C 0.41923 0.74289 0.91179 0.0
C824 C 0.40996 0.74689 0.92663 0.0
C825 C 0.3957 0.73028 0.93707 0.0
C826 C 0.39087 0.71011 0.93283 0.0
C827 C 0.41557 0.7684 0.93166 0.0
C828 C 0.42187 0.77536 0.94954 0.0
C829 C 0.41512 0.78213 0.91903 0.0
C830 C 0.40723 0.77545 0.90026 0.0
C831 C 0.38695 0.7583 0.89678 0.0
C832 C 0.37965 0.75203 0.87906 0.0
C833 C 0.39243 0.76289 0.8647 0.0
C834 C 0.41251 0.78008 0.86804 0.0
C835 C 0.4199 0.7864 0.88573 0.0
H836 H 0.38674 0.75801 0.85099 0.0
H837 H 0.45143 0.81907 0.02415 0.0
H838 H 0.61717 0.46843 0.1428 0.0
H839 H 0.64123 0.45847 0.12978 0.0
H840 H 0.59225 0.41711 0.09215 0.0
H841 H 0.56807 0.4272 0.10499 0.0
H842 H 0.61131 0.39846 0.10753 0.0
H843 H 0.6334 0.46202 0.07794 0.0
H844 H 0.64507 0.49902 0.07578 0.0
H845 H 0.70058 0.51495 0.10768 0.0
H846 H 0.6891 0.47802 0.11024 0.0
H847 H 0.70835 0.41434 0.05185 0.0
H848 H 0.6819 0.42367 0.05975 0.0
H849 H 0.67577 0.39725 0.11202 0.0
H850 H 0.70211 0.38773 0.10416 0.0
H851 H 0.68264 0.44921 0.08586 0.0
H852 H 0.62462 0.37668 0.12534 0.0
H853 H 0.61202 0.33933 0.12537 0.0
H854 H 0.62643 0.34067 0.06935 0.0
H855 H 0.63882 0.37794 0.06893 0.0
C856 C 0.61159 0.45752 0.13151 0.0
C857 C 0.59068 0.4487 0.12489 0.0
C858 C 0.62537 0.45177 0.12413 0.0
C859 C 0.6186 0.43714 0.1099 0.0
C860 C 0.5978 0.42839 0.10315 0.0
C861 C 0.58399 0.43415 0.11053 0.0
C862 C 0.63309 0.43058 0.10248 0.0
C863 C 0.62688 0.40955 0.10275 0.0
C864 C 0.65329 0.44499 0.09597 0.0
C865 C 0.6603 0.46723 0.0944 0.0
C866 C 0.64802 0.47341 0.08461 0.0
C867 C 0.65461 0.49437 0.08329 0.0
C868 C 0.67353 0.50933 0.09162 0.0
C869 C 0.68592 0.50335 0.10125 0.0
C870 C 0.67939 0.4824 0.10262 0.0
C871 C 0.70129 0.4104 0.06499 0.0
C872 C 0.7073 0.40026 0.07738 0.0
C873 C 0.68623 0.41582 0.06951 0.0
C874 C 0.67675 0.41105 0.08642 0.0
C875 C 0.68267 0.40085 0.0988 0.0
C876 C 0.69778 0.39548 0.09431 0.0
C877 C 0.66104 0.41716 0.09128 0.0
C878 C 0.66703 0.43811 0.09057 0.0
C879 C 0.64053 0.40263 0.09711 0.0
C880 C 0.63284 0.38015 0.09716 0.0
C881 C 0.62501 0.36898 0.11301 0.0
C882 C 0.61792 0.34783 0.1131 0.0
C883 C 0.61848 0.33765 0.09739 0.0
C884 C 0.62607 0.34858 0.08153 0.0
C885 C 0.63316 0.36973 0.08137 0.0
H886 H 0.613 0.32128 0.09748 0.0
H887 H 0.67861 0.52555 0.09059 0.0
H888 H 0.37091 0.86208 0.49379 0.0
H889 H 0.3526 0.82838 0.50757 0.0
H890 H 0.41165 0.83912 0.53051 0.0
H891 H 0.42998 0.8735 0.51764 0.0
H892 H 0.35559 0.79636 0.50129 0.0
H893 H 0.40274 0.81085 0.56833 0.0
H894 H 0.42206 0.83884 0.59102 0.0
H895 H 0.38489 0.866 0.57636 0.0
H896 H 0.36517 0.83804 0.55377 0.0
H897 H 0.32686 0.69881 0.53385 0.0
H898 H 0.34895 0.73488 0.52543 0.0
H899 H 0.3226 0.7537 0.56835 0.0
H900 H 0.30126 0.7177 0.57736 0.0
H901 H 0.36183 0.78192 0.56523 0.0
H902 H 0.30351 0.74583 0.52343 0.0
H903 H 0.28044 0.71807 0.50167 0.0
H904 H 0.33329 0.73522 0.46727 0.0
H905 H 0.35674 0.7629 0.48895 0.0
C906 C 0.38 0.8576 0.50216 0.0
C907 C 0.40199 0.87068 0.50462 0.0
C908 C 0.3695 0.83813 0.50986 0.0
C909 C 0.38067 0.83114 0.52014 0.0
C910 C 0.40258 0.84421 0.52284 0.0
C911 C 0.4131 0.86382 0.51528 0.0
C912 C 0.36946 0.80982 0.52728 0.0
C913 C 0.357 0.79326 0.51529 0.0
C914 C 0.37099 0.80566 0.54558 0.0
C915 C 0.38265 0.82247 0.55922 0.0
C916 C 0.39866 0.82277 0.56999 0.0
C917 C 0.40968 0.83863 0.58283 0.0
C918 C 0.40476 0.85423 0.58508 0.0
C919 C 0.38875 0.85396 0.57454 0.0
C920 C 0.37767 0.83813 0.5617 0.0
C921 C 0.32603 0.71068 0.54165 0.0
C922 C 0.3122 0.70544 0.55616 0.0
C923 C 0.33858 0.7313 0.53677 0.0
C924 C 0.33706 0.74702 0.54594 0.0
C925 C 0.32402 0.74189 0.561 0.0
C926 C 0.31178 0.72129 0.56613 0.0
C927 C 0.34807 0.76853 0.53922 0.0
C928 C 0.36051 0.78507 0.55124 0.0
C929 C 0.34602 0.77278 0.52104 0.0
C930 C 0.33191 0.75631 0.50788 0.0
C931 C 0.31023 0.7436 0.51126 0.0
C932 C 0.29709 0.72789 0.49895 0.0
C933 C 0.30541 0.72485 0.48312 0.0
C934 C 0.32688 0.73757 0.47955 0.0
C935 C 0.34009 0.75328 0.49183 0.0
H936 H 0.29521 0.71267 0.47361 0.0
H937 H 0.41332 0.8665 0.59502 0.0
H938 H 0.60358 0.44301 0.66468 0.0
H939 H 0.61416 0.41895 0.67569 0.0
H940 H 0.55354 0.38305 0.7005 0.0
H941 H 0.54274 0.40705 0.68936 0.0
H942 H 0.59112 0.39136 0.72248 0.0
H943 H 0.55827 0.36498 0.66385 0.0
H944 H 0.55351 0.36787 0.63136 0.0
H945 H 0.61796 0.38448 0.62252 0.0
H946 H 0.62319 0.382 0.65502 0.0
H947 H 0.59586 0.30078 0.73858 0.0
H948 H 0.58618 0.32643 0.73079 0.0
H949 H 0.63576 0.35172 0.69166 0.0
H950 H 0.64466 0.3253 0.69875 0.0
H951 H 0.60341 0.34933 0.6773 0.0
H952 H 0.63773 0.37634 0.73447 0.0
H953 H 0.6449 0.37582 0.76688 0.0
H954 H 0.58163 0.36111 0.7787 0.0
H955 H 0.57399 0.36128 0.74634 0.0
C956 C 0.59261 0.43016 0.6727 0.0
C957 C 0.57234 0.42691 0.6762 0.0
C958 C 0.59864 0.41639 0.67889 0.0
C959 C 0.5846 0.39922 0.68884 0.0
C960 C 0.56459 0.39624 0.69285 0.0
C961 C 0.55842 0.40987 0.68642 0.0
C962 C 0.59057 0.38395 0.69434 0.0
C963 C 0.59357 0.38193 0.71268 0.0
C964 C 0.59437 0.3722 0.68146 0.0
C965 C 0.59118 0.3735 0.66189 0.0
C966 C 0.57148 0.36942 0.655 0.0
C967 C 0.56868 0.37095 0.63658 0.0
C968 C 0.58543 0.3764 0.62489 0.0
C969 C 0.605 0.38028 0.63159 0.0
C970 C 0.60789 0.3788 0.65001 0.0
C971 C 0.60481 0.31195 0.72843 0.0
C972 C 0.62104 0.31107 0.71929 0.0
C973 C 0.59934 0.32671 0.72405 0.0
C974 C 0.61041 0.34133 0.7108 0.0
C975 C 0.62691 0.34065 0.7019 0.0
C976 C 0.63206 0.32559 0.706 0.0
C977 C 0.60421 0.35667 0.7056 0.0
C978 C 0.60108 0.35871 0.68724 0.0
C979 C 0.60068 0.36872 0.71848 0.0
C980 C 0.60523 0.36863 0.73796 0.0
C981 C 0.6253 0.37285 0.74397 0.0
C982 C 0.62945 0.37264 0.76234 0.0
C983 C 0.61371 0.36838 0.77484 0.0
C984 C 0.5938 0.36438 0.769 0.0
C985 C 0.58955 0.36455 0.75065 0.0
H986 H 0.61696 0.36823 0.78905 0.0
H987 H 0.58324 0.37758 0.61063 0.0
H988 H 0.16717 0.61342 0.85179 0.0
H989 H 0.20173 0.62245 0.86453 0.0
H990 H 0.19247 0.56358 0.84632 0.0
H991 H 0.15842 0.55473 0.83276 0.0
H992 H 0.20884 0.57602 0.88291 0.0
H993 H 0.22148 0.60217 0.82223 0.0
H994 H 0.21934 0.62277 0.79768 0.0
H995 H 0.25344 0.67804 0.83044 0.0
H996 H 0.2555 0.6577 0.8553 0.0
H997 H 0.30941 0.58756 0.88772 0.0
H998 H 0.27501 0.58148 0.87761 0.0
H999 H 0.2966 0.64635 0.88541 0.0
H1000 H 0.33155 0.65269 0.89487 0.0
H1001 H 0.27359 0.63302 0.85621 0.0
H1002 H 0.26373 0.60891 0.91609 0.0
H1003 H 0.26582 0.58948 0.94166 0.0
H1004 H 0.22626 0.53226 0.91275 0.0
H1005 H 0.2242 0.55136 0.88687 0.0
C1006 C 0.17247 0.60239 0.85037 0.0
C1007 C 0.15993 0.58336 0.84109 0.0
C1008 C 0.19219 0.60756 0.85778 0.0
C1009 C 0.19966 0.59372 0.85626 0.0
C1010 C 0.18692 0.57443 0.84768 0.0
C1011 C 0.16735 0.56935 0.84004 0.0
C1012 C 0.2211 0.59959 0.863 0.0
C1013 C 0.22304 0.58836 0.87701 0.0
C1014 C 0.23953 0.61615 0.85567 0.0
C1015 C 0.23842 0.62839 0.84069 0.0
C1016 C 0.22835 0.61869 0.82426 0.0
C1017 C 0.22719 0.63032 0.81027 0.0
C1018 C 0.23619 0.65169 0.81252 0.0
C1019 C 0.24644 0.66148 0.82873 0.0
C1020 C 0.24762 0.64991 0.84277 0.0
C1021 C 0.30689 0.60057 0.88726 0.0
C1022 C 0.32316 0.62059 0.89224 0.0
C1023 C 0.28713 0.59705 0.88157 0.0
C1024 C 0.28296 0.61335 0.88119 0.0
C1025 C 0.29936 0.63348 0.8857 0.0
C1026 C 0.31932 0.63709 0.89111 0.0
C1027 C 0.26149 0.60923 0.87603 0.0
C1028 C 0.25948 0.6208 0.8623 0.0
C1029 C 0.24297 0.59318 0.88385 0.0
C1030 C 0.24394 0.58159 0.89948 0.0
C1031 C 0.25557 0.59219 0.91514 0.0
C1032 C 0.25675 0.58123 0.92969 0.0
C1033 C 0.24621 0.55965 0.92882 0.0
C1034 C 0.23442 0.54898 0.9134 0.0
C1035 C 0.23323 0.55986 0.89879 0.0
H1036 H 0.24715 0.5512 0.9401 0.0
H1037 H 0.23528 0.66067 0.80167 0.0
H1038 H 0.6084 0.16128 0.99409 0.0
H1039 H 0.63477 0.19495 0.00677 0.0
H1040 H 0.58521 0.20374 0.02776 0.0
H1041 H 0.55861 0.16969 0.01568 0.0
H1042 H 0.61572 0.23759 0.00841 0.0
H1043 H 0.61313 0.19441 0.05633 0.0
H1044 H 0.614 0.165 0.0697 0.0
H1045 H 0.67712 0.18825 0.05088 0.0
H1046 H 0.67652 0.21765 0.03716 0.0
H1047 H 0.68888 0.33129 0.05591 0.0
H1048 H 0.65906 0.29715 0.04724 0.0
H1049 H 0.70266 0.27653 0.03381 0.0
H1050 H 0.73227 0.31016 0.04317 0.0
H1051 H 0.67262 0.24823 0.05145 0.0
H1052 H 0.67492 0.28923 0.00132 0.0
H1053 H 0.67468 0.31831 0.98659 0.0
H1054 H 0.61331 0.29912 0.00778 0.0
H1055 H 0.6133 0.27005 0.02282 0.0
C1056 C 0.60303 0.17008 0.00176 0.0
C1057 C 0.5813 0.16266 0.00384 0.0
C1058 C 0.61817 0.18943 0.00889 0.0
C1059 C 0.61193 0.20182 0.01821 0.0
C1060 C 0.59033 0.19444 0.02053 0.0
C1061 C 0.57516 0.17499 0.01355 0.0
C1062 C 0.62804 0.22273 0.02503 0.0
C1063 C 0.62799 0.23997 0.01805 0.0
C1064 C 0.64427 0.22577 0.03728 0.0
C1065 C 0.64471 0.20815 0.04559 0.0
C1066 C 0.62713 0.19316 0.05492 0.0
C1067 C 0.62759 0.17651 0.06258 0.0
C1068 C 0.64558 0.17473 0.06111 0.0
C1069 C 0.66318 0.18964 0.052 0.0
C1070 C 0.6628 0.20631 0.04429 0.0
C1071 C 0.69206 0.3195 0.05097 0.0
C1072 C 0.71291 0.32341 0.05024 0.0
C1073 C 0.67501 0.29999 0.04597 0.0
C1074 C 0.67856 0.28423 0.0397 0.0
C1075 C 0.69944 0.28832 0.03869 0.0
C1076 C 0.71639 0.30761 0.044 0.0
C1077 C 0.6607 0.26328 0.03454 0.0
C1078 C 0.66033 0.24597 0.04188 0.0
C1079 C 0.64426 0.26019 0.02243 0.0
C1080 C 0.64421 0.27761 0.01335 0.0
C1081 C 0.66144 0.2913 0.00294 0.0
C1082 C 0.66134 0.30777 0.99452 0.0
C1083 C 0.64402 0.3106 0.99629 0.0
C1084 C 0.62673 0.29693 0.00644 0.0
C1085 C 0.62676 0.28045 0.01491 0.0
H1086 H 0.64397 0.32336 0.98977 0.0
H1087 H 0.6459 0.16183 0.06705 0.0
H1088 H 0.40216 0.56981 0.16403 0.0
H1089 H 0.39232 0.59473 0.1744 0.0
H1090 H 0.45719 0.63738 0.1902 0.0
H1091 H 0.46696 0.61206 0.18085 0.0
H1092 H 0.43225 0.639 0.21413 0.0
H1093 H 0.43468 0.64058 0.14935 0.0
H1094 H 0.42506 0.62585 0.11848 0.0
H1095 H 0.36005 0.60688 0.1277 0.0
H1096 H 0.36926 0.62127 0.15873 0.0
H1097 H 0.44281 0.73608 0.21024 0.0
H1098 H 0.44362 0.70514 0.20173 0.0
H1099 H 0.37547 0.66995 0.19968 0.0
H1100 H 0.37436 0.70115 0.20836 0.0
H1101 H 0.39675 0.66141 0.17041 0.0
H1102 H 0.39689 0.66478 0.23493 0.0
H1103 H 0.40902 0.68271 0.26448 0.0
H1104 H 0.47185 0.69484 0.25454 0.0
H1105 H 0.46018 0.6773 0.22479 0.0
C1106 C 0.41429 0.58428 0.1701 0.0
C1107 C 0.43543 0.58891 0.1715 0.0
C1108 C 0.40866 0.59866 0.1758 0.0
C1109 C 0.42407 0.61813 0.18274 0.0
C1110 C 0.44501 0.62252 0.18478 0.0
C1111 C 0.45063 0.60807 0.17925 0.0
C1112 C 0.41863 0.63422 0.18743 0.0
C1113 C 0.42456 0.64391 0.20452 0.0
C1114 C 0.40816 0.6404 0.17506 0.0
C1115 C 0.40261 0.63177 0.15642 0.0
C1116 C 0.41831 0.63312 0.14484 0.0
C1117 C 0.41294 0.62486 0.12731 0.0
C1118 C 0.39195 0.61537 0.12115 0.0
C1119 C 0.3763 0.61419 0.1325 0.0
C1120 C 0.38158 0.6224 0.15005 0.0
C1121 C 0.42789 0.72188 0.20788 0.0
C1122 C 0.40848 0.72113 0.2102 0.0
C1123 C 0.42843 0.70417 0.20301 0.0
C1124 C 0.40963 0.68523 0.20036 0.0
C1125 C 0.39016 0.68446 0.20177 0.0
C1126 C 0.38957 0.70229 0.20673 0.0
C1127 C 0.41074 0.6663 0.19691 0.0
C1128 C 0.40405 0.65615 0.18009 0.0
C1129 C 0.42075 0.65985 0.20942 0.0
C1130 C 0.42767 0.66981 0.22758 0.0
C1131 C 0.41332 0.67135 0.23901 0.0
C1132 C 0.42011 0.68145 0.25579 0.0
C1133 C 0.4412 0.68994 0.26137 0.0
C1134 C 0.45552 0.68826 0.2502 0.0
C1135 C 0.44881 0.67821 0.23338 0.0
H1136 H 0.44644 0.6978 0.27435 0.0
H1137 H 0.38782 0.60899 0.10757 0.0
H1138 H 0.87072 0.48754 0.35174 0.0
H1139 H 0.8361 0.47659 0.36458 0.0
H1140 H 0.81213 0.4152 0.34206 0.0
H1141 H 0.84646 0.4262 0.32872 0.0
H1142 H 0.78514 0.4284 0.33562 0.0
H1143 H 0.82272 0.42514 0.3872 0.0
H1144 H 0.852 0.43801 0.4095 0.0
H1145 H 0.84035 0.48635 0.42614 0.0
H1146 H 0.81117 0.47395 0.40375 0.0
H1147 H 0.68754 0.38462 0.3821 0.0
H1148 H 0.72206 0.39168 0.37156 0.0
H1149 H 0.75063 0.45434 0.39231 0.0
H1150 H 0.71644 0.44741 0.40311 0.0
H1151 H 0.77491 0.43828 0.40013 0.0
H1152 H 0.73885 0.44279 0.34743 0.0
H1153 H 0.70967 0.43015 0.32503 0.0
H1154 H 0.71864 0.37954 0.31051 0.0
H1155 H 0.7477 0.39173 0.33302 0.0
C1156 C 0.85809 0.47171 0.34953 0.0
C1157 C 0.86142 0.45774 0.33925 0.0
C1158 C 0.83834 0.46542 0.357 0.0
C1159 C 0.82154 0.445 0.35443 0.0
C1160 C 0.82486 0.431 0.34429 0.0
C1161 C 0.84458 0.43727 0.33682 0.0
C1162 C 0.80031 0.43847 0.36175 0.0
C1163 C 0.78285 0.43024 0.34979 0.0
C1164 C 0.79736 0.44124 0.38017 0.0
C1165 C 0.81488 0.44872 0.39367 0.0
C1166 C 0.8265 0.43862 0.39551 0.0
C1167 C 0.84307 0.44581 0.40819 0.0
C1168 C 0.84807 0.46301 0.4192 0.0
C1169 C 0.83648 0.47304 0.41759 0.0
C1170 C 0.81991 0.46592 0.40492 0.0
C1171 C 0.70116 0.39989 0.38447 0.0
C1172 C 0.6991 0.41546 0.39338 0.0
C1173 C 0.72089 0.40392 0.37838 0.0
C1174 C 0.73891 0.42362 0.38097 0.0
C1175 C 0.73696 0.43903 0.39014 0.0
C1176 C 0.71732 0.43504 0.39624 0.0
C1177 C 0.75981 0.42839 0.37398 0.0
C1178 C 0.77719 0.4363 0.386 0.0
C1179 C 0.76271 0.42535 0.35561 0.0
C1180 C 0.74529 0.41804 0.34204 0.0
C1181 C 0.73449 0.42887 0.33956 0.0
C1182 C 0.71799 0.42181 0.32683 0.0
C1183 C 0.71227 0.40402 0.31639 0.0
C1184 C 0.72307 0.39329 0.31863 0.0
C1185 C 0.73956 0.40028 0.33136 0.0
H1186 H 0.69949 0.39858 0.30654 0.0
H1187 H 0.86089 0.46856 0.42901 0.0
H1188 H 0.10092 0.56658 0.41993 0.0
H1189 H 0.12396 0.57965 0.44677 0.0
H1190 H 0.16869 0.63334 0.41794 0.0
H1191 H 0.14585 0.62027 0.39102 0.0
H1192 H 0.18691 0.61351 0.43342 0.0
H1193 H 0.14232 0.63925 0.45144 0.0
H1194 H 0.10857 0.63772 0.45752 0.0
H1195 H 0.09455 0.59239 0.49779 0.0
H1196 H 0.12808 0.59342 0.49177 0.0
H1197 H 0.2564 0.64727 0.51011 0.0
H1198 H 0.23541 0.64438 0.48364 0.0
H1199 H 0.17829 0.60585 0.51297 0.0
H1200 H 0.19964 0.61357 0.54036 0.0
H1201 H 0.16787 0.62345 0.49501 0.0
H1202 H 0.20867 0.59112 0.46905 0.0
H1203 H 0.24173 0.59221 0.46005 0.0
H1204 H 0.26227 0.64957 0.4338 0.0
H1205 H 0.22931 0.6486 0.4423 0.0
C1206 C 0.11551 0.58132 0.41941 0.0
C1207 C 0.12159 0.59238 0.40337 0.0
C1208 C 0.1286 0.58883 0.43478 0.0
C1209 C 0.14802 0.60749 0.43435 0.0
C1210 C 0.15375 0.61894 0.41856 0.0
C1211 C 0.1406 0.61152 0.40324 0.0
C1212 C 0.16316 0.614 0.4498 0.0
C1213 C 0.18284 0.61577 0.44695 0.0
C1214 C 0.15782 0.61691 0.46735 0.0
C1215 C 0.13766 0.6163 0.47105 0.0
C1216 C 0.13197 0.62883 0.46149 0.0
C1217 C 0.11289 0.62808 0.46495 0.0
C1218 C 0.0994 0.61494 0.47801 0.0
C1219 C 0.105 0.60256 0.48767 0.0
C1220 C 0.12406 0.60324 0.48425 0.0
C1221 C 0.23931 0.63796 0.51069 0.0
C1222 C 0.22955 0.6294 0.52696 0.0
C1223 C 0.22716 0.63589 0.49533 0.0
C1224 C 0.20489 0.62387 0.49551 0.0
C1225 C 0.19531 0.61517 0.51199 0.0
C1226 C 0.20749 0.61886 0.52767 0.0
C1227 C 0.19136 0.62125 0.47919 0.0
C1228 C 0.172 0.62068 0.48171 0.0
C1229 C 0.19692 0.61922 0.46127 0.0
C1230 C 0.21683 0.61994 0.45662 0.0
C1231 C 0.22041 0.60402 0.46156 0.0
C1232 C 0.23904 0.60459 0.4565 0.0
C1233 C 0.25416 0.62105 0.44662 0.0
C1234 C 0.25061 0.63689 0.44156 0.0
C1235 C 0.23193 0.63628 0.44639 0.0
H1236 H 0.26856 0.62145 0.44277 0.0
H1237 H 0.08464 0.61438 0.48066 0.0
H1238 H 0.58878 0.12062 0.57081 0.0
H1239 H 0.59713 0.14132 0.59866 0.0
H1240 H 0.54286 0.14819 0.58959 0.0
H1241 H 0.53495 0.12833 0.56141 0.0
H1242 H 0.57579 0.18406 0.59869 0.0
H1243 H 0.54345 0.11555 0.62162 0.0
H1244 H 0.53839 0.08082 0.62579 0.0
H1245 H 0.60112 0.10777 0.64853 0.0
H1246 H 0.60668 0.1427 0.64425 0.0
H1247 H 0.58259 0.20203 0.70338 0.0
H1248 H 0.56978 0.17898 0.6766 0.0
H1249 H 0.62243 0.22479 0.64662 0.0
H1250 H 0.63486 0.24787 0.67323 0.0
H1251 H 0.58722 0.16127 0.65782 0.0
H1252 H 0.60823 0.22251 0.60311 0.0
H1253 H 0.61088 0.25639 0.59977 0.0
H1254 H 0.56606 0.24211 0.64183 0.0
H1255 H 0.56293 0.20805 0.64524 0.0
C1256 C 0.57863 0.12656 0.57473 0.0
C1257 C 0.56116 0.12274 0.56385 0.0
C1258 C 0.58331 0.13823 0.59075 0.0
C1259 C 0.57052 0.14619 0.59632 0.0
C1260 C 0.55294 0.14219 0.58561 0.0
C1261 C 0.5483 0.13061 0.56957 0.0
C1262 C 0.57585 0.15931 0.61293 0.0
C1263 C 0.57831 0.17906 0.61161 0.0
C1264 C 0.57886 0.15273 0.62987 0.0
C1265 C 0.57556 0.13175 0.63243 0.0
C1266 C 0.55624 0.11408 0.62736 0.0
C1267 C 0.55326 0.09436 0.62977 0.0
C1268 C 0.56944 0.09209 0.63737 0.0
C1269 C 0.58861 0.10955 0.64261 0.0
C1270 C 0.59168 0.12931 0.64021 0.0
C1271 C 0.59133 0.20705 0.69102 0.0
C1272 C 0.61002 0.22631 0.69038 0.0
C1273 C 0.58408 0.19393 0.67578 0.0
C1274 C 0.59513 0.20015 0.65959 0.0
C1275 C 0.61352 0.21971 0.65889 0.0
C1276 C 0.62076 0.23277 0.67411 0.0
C1277 C 0.58763 0.18613 0.64347 0.0
C1278 C 0.58478 0.16627 0.64488 0.0
C1279 C 0.58398 0.19248 0.62666 0.0
C1280 C 0.5855 0.2128 0.62452 0.0
C1281 C 0.59887 0.22656 0.61158 0.0
C1282 C 0.60047 0.2458 0.60969 0.0
C1283 C 0.58869 0.25142 0.62062 0.0
C1284 C 0.57523 0.23777 0.63341 0.0
C1285 C 0.57355 0.21851 0.63535 0.0
H1286 H 0.58997 0.26633 0.61914 0.0
H1287 H 0.5671 0.0768 0.63923 0.0
H1288 H 0.42635 0.52916 0.75434 0.0
H1289 H 0.41871 0.54375 0.78084 0.0
H1290 H 0.45996 0.60527 0.76192 0.0
H1291 H 0.46732 0.5908 0.73504 0.0
H1292 H 0.46311 0.60094 0.80005 0.0
H1293 H 0.4108 0.58666 0.75423 0.0
H1294 H 0.38402 0.56534 0.73095 0.0
H1295 H 0.34657 0.52129 0.77065 0.0
H1296 H 0.37331 0.5422 0.79413 0.0
H1297 H 0.41915 0.64538 0.85941 0.0
H1298 H 0.43174 0.63623 0.83233 0.0
H1299 H 0.38866 0.57157 0.84141 0.0
H1300 H 0.37589 0.58044 0.86826 0.0
H1301 H 0.38779 0.58074 0.80666 0.0
H1302 H 0.44061 0.59362 0.85208 0.0
H1303 H 0.46747 0.61424 0.87554 0.0
H1304 H 0.50389 0.66042 0.83697 0.0
H1305 H 0.47706 0.64019 0.81332 0.0
C1306 C 0.43387 0.5458 0.7558 0.0
C1307 C 0.44723 0.55879 0.74242 0.0
C1308 C 0.42956 0.55411 0.771 0.0
C1309 C 0.43855 0.57556 0.77318 0.0
C1310 C 0.45286 0.58867 0.76044 0.0
C1311 C 0.4571 0.58035 0.74514 0.0
C1312 C 0.43182 0.58405 0.78817 0.0
C1313 C 0.44673 0.59683 0.80138 0.0
C1314 C 0.41038 0.57844 0.78997 0.0
C1315 C 0.39416 0.56591 0.77591 0.0
C1316 C 0.39694 0.57234 0.75798 0.0
C1317 C 0.38175 0.56035 0.74475 0.0
C1318 C 0.36362 0.54195 0.74931 0.0
C1319 C 0.36063 0.53554 0.76713 0.0
C1320 C 0.37579 0.54746 0.78041 0.0
C1321 C 0.41228 0.62921 0.85561 0.0
C1322 C 0.3965 0.61367 0.86607 0.0
C1323 C 0.41958 0.62402 0.84017 0.0
C1324 C 0.41125 0.60321 0.83494 0.0
C1325 C 0.3953 0.58772 0.84519 0.0
C1326 C 0.38806 0.59286 0.86059 0.0
C1327 C 0.41899 0.59733 0.81881 0.0
C1328 C 0.40424 0.58504 0.8053 0.0
C1329 C 0.44054 0.60337 0.81681 0.0
C1330 C 0.4567 0.61552 0.83099 0.0
C1331 C 0.45425 0.60826 0.84864 0.0
C1332 C 0.46949 0.61986 0.86196 0.0
C1333 C 0.48735 0.63866 0.85776 0.0
C1334 C 0.49003 0.64587 0.84021 0.0
C1335 C 0.47482 0.63435 0.82684 0.0
H1336 H 0.49913 0.64761 0.8681 0.0
H1337 H 0.35188 0.53268 0.73905 0.0
H1338 H 0.89569 0.43485 0.89637 0.0
H1339 H 0.87473 0.4198 0.9231 0.0
H1340 H 0.8795 0.47812 0.93675 0.0
H1341 H 0.90152 0.49363 0.91062 0.0
H1342 H 0.88218 0.46087 0.9662 0.0
H1343 H 0.83515 0.43782 0.91461 0.0
H1344 H 0.82169 0.42158 0.88461 0.0
H1345 H 0.81283 0.36408 0.90366 0.0
H1346 H 0.82651 0.38006 0.93372 0.0
H1347 H 0.79173 0.42297 0.0216 0.0
H1348 H 0.81424 0.43711 0.99536 0.0
H1349 H 0.8202 0.38292 0.99142 0.0
H1350 H 0.79804 0.36882 0.01784 0.0
H1351 H 0.81194 0.39734 0.95744 0.0
H1352 H 0.85848 0.42103 0.00948 0.0
H1353 H 0.87038 0.43745 0.0396 0.0
H1354 H 0.8789 0.49441 0.01944 0.0
H1355 H 0.86662 0.47818 0.98926 0.0
C1356 C 0.89273 0.44465 0.90526 0.0
C1357 C 0.90019 0.46545 0.9012 0.0
C1358 C 0.88047 0.43591 0.92043 0.0
C1359 C 0.87508 0.44768 0.93172 0.0
C1360 C 0.88326 0.46866 0.92816 0.0
C1361 C 0.8957 0.47746 0.9131 0.0
C1362 C 0.86043 0.43801 0.94691 0.0
C1363 C 0.86675 0.44712 0.9642 0.0
C1364 C 0.84036 0.41985 0.94442 0.0
C1365 C 0.83206 0.4102 0.92637 0.0
C1366 C 0.83048 0.42176 0.91237 0.0
C1367 C 0.82279 0.41259 0.89535 0.0
C1368 C 0.81647 0.39183 0.89222 0.0
C1369 C 0.81776 0.38017 0.9061 0.0
C1370 C 0.82547 0.38927 0.92313 0.0
C1371 C 0.79761 0.41394 0.01502 0.0
C1372 C 0.79315 0.3948 0.02181 0.0
C1373 C 0.81052 0.42208 1.0001 0.0
C1374 C 0.81893 0.41108 0.99157 0.0
C1375 C 0.81384 0.39161 0.99785 0.0
C1376 C 0.80124 0.38363 0.01296 0.0
C1377 C 0.83374 0.42027 0.97654 0.0
C1378 C 0.82742 0.41108 0.95934 0.0
C1379 C 0.8537 0.43842 0.97907 0.0
C1380 C 0.8614 0.44832 0.99714 0.0
C1381 C 0.8627 0.437 0.0115 0.0
C1382 C 0.86954 0.44628 0.02859 0.0
C1383 C 0.87535 0.46695 0.03145 0.0
C1384 C 0.87437 0.47839 0.01721 0.0
C1385 C 0.86747 0.46916 1.00011 0.0
H1386 H 0.88065 0.47411 0.04468 0.0
H1387 H 0.81052 0.38475 0.87905 0.0
H1388 H 0.47023 0.8973 0.05971 0.0
H1389 H 0.46389 0.87592 0.08581 0.0
H1390 H 0.41911 0.89247 0.10541 0.0
H1391 H 0.42638 0.91503 0.07984 0.0
H1392 H 0.44088 0.8909 0.13257 0.0
H1393 H 0.40296 0.84556 0.08312 0.0
H1394 H 0.3976 0.83052 0.05244 0.0
H1395 H 0.44271 0.81154 0.06358 0.0
H1396 H 0.44855 0.82673 0.09429 0.0
H1397 H 0.38952 0.80439 0.19079 0.0
H1398 H 0.39512 0.82614 0.16478 0.0
H1399 H 0.45212 0.82547 0.15261 0.0
H1400 H 0.44694 0.80411 0.17879 0.0
H1401 H 0.42244 0.81814 0.12185 0.0
H1402 H 0.45963 0.86501 0.17227 0.0
H1403 H 0.4618 0.87859 0.20314 0.0
H1404 H 0.41375 0.89307 0.18981 0.0
H1405 H 0.411 0.87917 0.15894 0.0
C1406 C 0.4594 0.89685 0.06974 0.0
C1407 C 0.44877 0.90791 0.06755 0.0
C1408 C 0.45553 0.88431 0.08456 0.0
C1409 C 0.44064 0.88216 0.09738 0.0
C1410 C 0.43054 0.89371 0.09561 0.0
C1411 C 0.43458 0.90647 0.08088 0.0
C1412 C 0.43539 0.86761 0.11243 0.0
C1413 C 0.43658 0.87493 0.13016 0.0
C1414 C 0.42987 0.84674 0.10937 0.0
C1415 C 0.42633 0.83746 0.09096 0.0
C1416 C 0.41185 0.83831 0.07899 0.0
C1417 C 0.40871 0.82974 0.0616 0.0
C1418 C 0.41984 0.82012 0.05606 0.0
C1419 C 0.43411 0.81901 0.0679 0.0
C1420 C 0.43732 0.82758 0.08531 0.0
C1421 C 0.40314 0.8087 0.18248 0.0
C1422 C 0.41783 0.80258 0.18686 0.0
C1423 C 0.40633 0.82116 0.16768 0.0
C1424 C 0.42405 0.82741 0.15686 0.0
C1425 C 0.43835 0.82076 0.16082 0.0
C1426 C 0.4354 0.80865 0.1758 0.0
C1427 C 0.42816 0.84157 0.14182 0.0
C1428 C 0.42671 0.83412 0.12414 0.0
C1429 C 0.43304 0.86217 0.14489 0.0
C1430 C 0.43494 0.87084 0.16336 0.0
C1431 C 0.44939 0.87091 0.17597 0.0
C1432 C 0.45075 0.8787 0.19346 0.0
C1433 C 0.43788 0.88665 0.19845 0.0
C1434 C 0.42368 0.88688 0.18593 0.0
C1435 C 0.42222 0.87905 0.16844 0.0
H1436 H 0.43896 0.89267 0.21199 0.0
H1437 H 0.41736 0.81349 0.0426 0.0
H1438 H 0.57445 0.48674 0.24825 0.0
H1439 H 0.58839 0.48005 0.27576 0.0
H1440 H 0.56257 0.4165 0.25851 0.0
H1441 H 0.54917 0.42309 0.23084 0.0
H1442 H 0.55465 0.42042 0.29425 0.0
H1443 H 0.61369 0.4493 0.25422 0.0
H1444 H 0.63942 0.47554 0.23399 0.0
H1445 H 0.66223 0.52083 0.27718 0.0
H1446 H 0.6364 0.49491 0.29761 0.0
H1447 H 0.60868 0.38936 0.35356 0.0
H1448 H 0.59543 0.39748 0.32651 0.0
H1449 H 0.62666 0.46164 0.3435 0.0
H1450 H 0.64027 0.45379 0.37042 0.0
H1451 H 0.63167 0.45832 0.30838 0.0
H1452 H 0.5736 0.42997 0.34866 0.0
H1453 H 0.54777 0.40428 0.36919 0.0
H1454 H 0.52283 0.35883 0.32613 0.0
H1455 H 0.54874 0.38418 0.30539 0.0
C1456 C 0.57184 0.47137 0.25024 0.0
C1457 C 0.5606 0.45546 0.23728 0.0
C1458 C 0.57976 0.46756 0.266 0.0
C1459 C 0.57658 0.44779 0.26913 0.0
C1460 C 0.5651 0.43183 0.25641 0.0
C1461 C 0.55732 0.43564 0.24062 0.0
C1462 C 0.58543 0.44369 0.28551 0.0
C1463 C 0.5715 0.42854 0.29726 0.0
C1464 C 0.60737 0.45465 0.28963 0.0
C1465 C 0.62295 0.47023 0.27739 0.0
C1466 C 0.62407 0.4649 0.25936 0.0
C1467 C 0.63869 0.4797 0.24787 0.0
C1468 C 0.65241 0.49985 0.25428 0.0
C1469 C 0.65157 0.50522 0.27222 0.0
C1470 C 0.63695 0.49048 0.28377 0.0
C1471 C 0.61284 0.40523 0.35154 0.0
C1472 C 0.6255 0.42089 0.36427 0.0
C1473 C 0.60516 0.40983 0.33608 0.0
C1474 C 0.6098 0.43013 0.3331 0.0
C1475 C 0.62284 0.44586 0.34553 0.0
C1476 C 0.63058 0.44131 0.36095 0.0
C1477 C 0.6009 0.43493 0.31711 0.0
C1478 C 0.6148 0.45023 0.30543 0.0
C1479 C 0.57891 0.42419 0.3131 0.0
C1480 C 0.56325 0.40892 0.32552 0.0
C1481 C 0.56272 0.41445 0.3436 0.0
C1482 C 0.54805 0.39996 0.35527 0.0
C1483 C 0.5337 0.37992 0.34898 0.0
C1484 C 0.53397 0.37435 0.33099 0.0
C1485 C 0.54864 0.38878 0.31927 0.0
H1486 H 0.52235 0.36872 0.35803 0.0
H1487 H 0.66373 0.51129 0.24536 0.0
H1488 H 0.43062 0.9195 0.37422 0.0
H1489 H 0.42779 0.89891 0.34729 0.0
H1490 H 0.44429 0.86143 0.37925 0.0
H1491 H 0.44811 0.88266 0.40593 0.0
H1492 H 0.46356 0.86817 0.35013 0.0
H1493 H 0.39158 0.84517 0.36357 0.0
H1494 H 0.36057 0.84863 0.37001 0.0
H1495 H 0.3654 0.87525 0.31833 0.0
H1496 H 0.39662 0.8722 0.31166 0.0
H1497 H 0.42112 0.78328 0.28282 0.0
H1498 H 0.43179 0.80587 0.30965 0.0
H1499 H 0.42543 0.85123 0.27973 0.0
H1500 H 0.41371 0.82811 0.25316 0.0
H1501 H 0.40126 0.83934 0.30876 0.0
H1502 H 0.48698 0.87804 0.31224 0.0
H1503 H 0.52023 0.87739 0.31466 0.0
H1504 H 0.48674 0.81721 0.33765 0.0
H1505 H 0.45359 0.81807 0.33621 0.0
C1506 C 0.4337 0.90689 0.37541 0.0
C1507 C 0.43964 0.90267 0.39209 0.0
C1508 C 0.43191 0.89501 0.36006 0.0
C1509 C 0.43542 0.87829 0.36123 0.0
C1510 C 0.4415 0.87421 0.37793 0.0
C1511 C 0.44372 0.88635 0.39318 0.0
C1512 C 0.43327 0.86534 0.34503 0.0
C1513 C 0.44979 0.8617 0.34118 0.0
C1514 C 0.4154 0.85689 0.33327 0.0
C1515 C 0.39655 0.85863 0.33719 0.0
C1516 C 0.38611 0.85189 0.35362 0.0
C1517 C 0.36849 0.85375 0.35731 0.0
C1518 C 0.36105 0.8622 0.34461 0.0
C1519 C 0.37119 0.86873 0.32816 0.0
C1520 C 0.38884 0.86692 0.32442 0.0
C1521 C 0.42277 0.79841 0.28186 0.0
C1522 C 0.41691 0.80414 0.26589 0.0
C1523 C 0.42911 0.81146 0.2972 0.0
C1524 C 0.42993 0.83057 0.29676 0.0
C1525 C 0.42514 0.83669 0.28043 0.0
C1526 C 0.41842 0.82349 0.26525 0.0
C1527 C 0.43176 0.8424 0.31368 0.0
C1528 C 0.41504 0.84583 0.31768 0.0
C1529 C 0.4492 0.85022 0.32586 0.0
C1530 C 0.46766 0.84766 0.32327 0.0
C1531 C 0.48666 0.86445 0.31736 0.0
C1532 C 0.50557 0.86429 0.319 0.0
C1533 C 0.50558 0.84721 0.32621 0.0
C1534 C 0.48668 0.83034 0.33191 0.0
C1535 C 0.46783 0.83066 0.33069 0.0
H1536 H 0.52021 0.84705 0.32736 0.0
H1537 H 0.34741 0.86363 0.34749 0.0
H1538 H 0.58669 0.4859 0.5575 0.0
H1539 H 0.59299 0.47223 0.52976 0.0
H1540 H 0.54049 0.41167 0.54094 0.0
H1541 H 0.53501 0.42488 0.56929 0.0
H1542 H 0.5713 0.40762 0.53082 0.0
H1543 H 0.5387 0.44369 0.50731 0.0
H1544 H 0.53321 0.47312 0.50275 0.0
H1545 H 0.59512 0.50805 0.48048 0.0
H1546 H 0.60111 0.47894 0.48514 0.0
H1547 H 0.58112 0.39833 0.42593 0.0
H1548 H 0.5666 0.40736 0.45193 0.0
H1549 H 0.61757 0.41276 0.48552 0.0
H1550 H 0.63158 0.40319 0.45973 0.0
H1551 H 0.58214 0.44116 0.47184 0.0
H1552 H 0.6025 0.40029 0.52778 0.0
H1553 H 0.60469 0.36879 0.53113 0.0
H1554 H 0.56087 0.3396 0.48679 0.0
H1555 H 0.55816 0.3708 0.48334 0.0
C1556 C 0.57652 0.46964 0.55414 0.0
C1557 C 0.56035 0.45653 0.56575 0.0
C1558 C 0.57997 0.46189 0.5381 0.0
C1559 C 0.56706 0.44094 0.53309 0.0
C1560 C 0.55065 0.4279 0.54446 0.0
C1561 C 0.54736 0.43557 0.56061 0.0
C1562 C 0.57134 0.43239 0.51649 0.0
C1563 C 0.57361 0.41497 0.51792 0.0
C1564 C 0.57396 0.44163 0.49952 0.0
C1565 C 0.57041 0.45919 0.49673 0.0
C1566 C 0.55121 0.45771 0.50157 0.0
C1567 C 0.54799 0.47432 0.49895 0.0
C1568 C 0.56382 0.49246 0.49137 0.0
C1569 C 0.58288 0.494 0.48636 0.0
C1570 C 0.58619 0.47744 0.48898 0.0
C1571 C 0.58909 0.40142 0.43893 0.0
C1572 C 0.60779 0.4008 0.44085 0.0
C1573 C 0.58086 0.40659 0.45372 0.0
C1574 C 0.59095 0.4107 0.47071 0.0
C1575 C 0.60932 0.40942 0.47264 0.0
C1576 C 0.6175 0.40425 0.45788 0.0
C1577 C 0.58274 0.41689 0.48634 0.0
C1578 C 0.57976 0.43384 0.48473 0.0
C1579 C 0.57902 0.40695 0.50304 0.0
C1580 C 0.58026 0.38796 0.50523 0.0
C1581 C 0.59323 0.38711 0.51882 0.0
C1582 C 0.59459 0.36931 0.52071 0.0
C1583 C 0.58297 0.35222 0.50915 0.0
C1584 C 0.56991 0.35287 0.4957 0.0
C1585 C 0.56848 0.37061 0.49376 0.0
H1586 H 0.58406 0.33847 0.51063 0.0
H1587 H 0.5613 0.5053 0.48935 0.0
H1588 H 0.10527 0.57638 0.71219 0.0
H1589 H 0.1273 0.5832 0.6858 0.0
H1590 H 0.16455 0.56245 0.71399 0.0
H1591 H 0.14321 0.55648 0.74069 0.0
H1592 H 0.18972 0.59686 0.69775 0.0
H1593 H 0.12869 0.53268 0.68025 0.0
H1594 H 0.09071 0.50798 0.67485 0.0
H1595 H 0.08804 0.54815 0.6358 0.0
H1596 H 0.12596 0.57323 0.64114 0.0
H1597 H 0.21324 0.57541 0.59978 0.0
H1598 H 0.19175 0.56494 0.62668 0.0
H1599 H 0.21527 0.62891 0.64122 0.0
H1600 H 0.23709 0.63961 0.61444 0.0
H1601 H 0.16014 0.57028 0.63641 0.0
H1602 H 0.218 0.63442 0.68696 0.0
H1603 H 0.25647 0.65611 0.69262 0.0
H1604 H 0.2663 0.6104 0.66624 0.0
H1605 H 0.22789 0.58832 0.66067 0.0
C1606 C 0.11815 0.57327 0.7128 0.0
C1607 C 0.12242 0.56585 0.7286 0.0
C1608 C 0.13063 0.57701 0.69762 0.0
C1609 C 0.14751 0.5732 0.69784 0.0
C1610 C 0.15161 0.5655 0.71348 0.0
C1611 C 0.1392 0.56184 0.72869 0.0
C1612 C 0.16129 0.57787 0.68195 0.0
C1613 C 0.18323 0.59102 0.68434 0.0
C1614 C 0.15294 0.56997 0.66449 0.0
C1615 C 0.13013 0.55492 0.66121 0.0
C1616 C 0.11997 0.53632 0.67061 0.0
C1617 C 0.09846 0.52224 0.66754 0.0
C1618 C 0.08696 0.52652 0.65502 0.0
C1619 C 0.09696 0.54487 0.64551 0.0
C1620 C 0.11847 0.55901 0.64853 0.0
C1621 C 0.214 0.58732 0.60872 0.0
C1622 C 0.227 0.6084 0.6049 0.0
C1623 C 0.20161 0.58127 0.62408 0.0
C1624 C 0.20197 0.59611 0.63602 0.0
C1625 C 0.21494 0.61717 0.63232 0.0
C1626 C 0.22737 0.62326 0.61695 0.0
C1627 C 0.18848 0.58955 0.65217 0.0
C1628 C 0.16661 0.57609 0.64982 0.0
C1629 C 0.19696 0.59676 0.66973 0.0
C1630 C 0.22007 0.60982 0.67324 0.0
C1631 C 0.22836 0.62896 0.68243 0.0
C1632 C 0.25016 0.64133 0.68562 0.0
C1633 C 0.26382 0.63467 0.67974 0.0
C1634 C 0.25571 0.61558 0.67073 0.0
C1635 C 0.23393 0.60315 0.66753 0.0
H1636 H 0.28069 0.64427 0.68221 0.0
H1637 H 0.0703 0.51559 0.65267 0.0
H1638 H 0.57058 0.10849 0.88565 0.0
H1639 H 0.58518 0.12848 0.85846 0.0
H1640 H 0.54668 0.15628 0.86581 0.0
H1641 H 0.53229 0.1367 0.8931 0.0
H1642 H 0.54677 0.14524 0.83071 0.0
H1643 H 0.59791 0.18243 0.87815 0.0
H1644 H 0.62222 0.18667 0.90315 0.0
H1645 H 0.65761 0.17046 0.86752 0.0
H1646 H 0.63331 0.16582 0.84236 0.0
H1647 H 0.59988 0.23201 0.775 0.0
H1648 H 0.58495 0.21001 0.80099 0.0
H1649 H 0.62503 0.18426 0.79182 0.0
H1650 H 0.6402 0.20627 0.76589 0.0
H1651 H 0.62422 0.19325 0.82727 0.0
H1652 H 0.57374 0.15718 0.77953 0.0
H1653 H 0.54952 0.15313 0.75454 0.0
H1654 H 0.5129 0.16725 0.79061 0.0
H1655 H 0.5371 0.17169 0.81579 0.0
C1656 C 0.56523 0.11888 0.8815 0.0
C1657 C 0.55027 0.12099 0.89162 0.0
C1658 C 0.57356 0.13026 0.86594 0.0
C1659 C 0.56717 0.14402 0.86021 0.0
C1660 C 0.55179 0.14571 0.86995 0.0
C1661 C 0.5435 0.13439 0.88552 0.0
C1662 C 0.57687 0.15713 0.84437 0.0
C1663 C 0.56367 0.15589 0.83003 0.0
C1664 C 0.59898 0.17072 0.84333 0.0
C1665 C 0.61365 0.17356 0.85842 0.0
C1666 C 0.61077 0.1796 0.87568 0.0
C1667 C 0.62456 0.1821 0.88987 0.0
C1668 C 0.64141 0.17877 0.88694 0.0
C1669 C 0.64453 0.17299 0.86978 0.0
C1670 C 0.63076 0.17043 0.85555 0.0
C1671 C 0.60562 0.22175 0.77852 0.0
C1672 C 0.62124 0.22092 0.76827 0.0
C1673 C 0.59698 0.2091 0.79335 0.0
C1674 C 0.6037 0.19532 0.79822 0.0
C1675 C 0.61958 0.19475 0.78828 0.0
C1676 C 0.6282 0.20735 0.77342 0.0
C1677 C 0.59411 0.18143 0.81363 0.0
C1678 C 0.60732 0.18253 0.8279 0.0
C1679 C 0.57201 0.16772 0.81461 0.0
C1680 C 0.55736 0.16497 0.79951 0.0
C1681 C 0.56062 0.15958 0.78211 0.0
C1682 C 0.54688 0.15719 0.76791 0.0
C1683 C 0.52971 0.15998 0.77098 0.0
C1684 C 0.52622 0.16512 0.78826 0.0
C1685 C 0.53994 0.16756 0.8025 0.0
H1686 H 0.51909 0.15812 0.75997 0.0
H1687 H 0.65208 0.18073 0.89794 0.0
H1688 H 0.42587 0.5363 0.05051 0.0
H1689 H 0.42217 0.55322 0.02416 0.0
H1690 H 0.47532 0.6113 0.04286 0.0
H1691 H 0.4784 0.59471 0.06978 0.0
H1692 H 0.44484 0.61713 0.03296 0.0
H1693 H 0.47867 0.58369 0.00574 0.0
H1694 H 0.48429 0.55476 0.99807 0.0
H1695 H 0.42329 0.52221 0.97171 0.0
H1696 H 0.41717 0.55081 0.97947 0.0
H1697 H 0.43901 0.63534 0.92906 0.0
H1698 H 0.45275 0.62455 0.95429 0.0
H1699 H 0.40118 0.61753 0.98695 0.0
H1700 H 0.38807 0.62907 0.962 0.0
H1701 H 0.43712 0.58998 0.97037 0.0
H1702 H 0.4137 0.62456 0.03047 0.0
H1703 H 0.4111 0.65542 0.03751 0.0
H1704 H 0.45689 0.68926 0.9973 0.0
H1705 H 0.45998 0.6587 0.99019 0.0
C1706 C 0.4368 0.55268 0.04904 0.0
C1707 C 0.45238 0.56413 0.06234 0.0
C1708 C 0.43481 0.5623 0.03383 0.0
C1709 C 0.44859 0.58352 0.03141 0.0
C1710 C 0.46452 0.5949 0.04441 0.0
C1711 C 0.46641 0.58532 0.05971 0.0
C1712 C 0.44554 0.59402 0.01587 0.0
C1713 C 0.4432 0.61121 0.01927 0.0
C1714 C 0.44382 0.58661 0.99793 0.0
C1715 C 0.44743 0.56936 0.99326 0.0
C1716 C 0.4664 0.57031 0.99841 0.0
C1717 C 0.46968 0.55397 0.99404 0.0
C1718 C 0.45414 0.53665 0.98443 0.0
C1719 C 0.43531 0.53564 0.97915 0.0
C1720 C 0.43194 0.55192 0.98351 0.0
C1721 C 0.43077 0.63156 0.94171 0.0
C1722 C 0.41213 0.63226 0.94353 0.0
C1723 C 0.43856 0.62539 0.95607 0.0
C1724 C 0.42806 0.62025 0.97257 0.0
C1725 C 0.40979 0.62168 0.97449 0.0
C1726 C 0.40209 0.62793 0.96017 0.0
C1727 C 0.43559 0.61256 0.98754 0.0
C1728 C 0.43878 0.59592 0.98404 0.0
C1729 C 0.43846 0.6207 0.00534 0.0
C1730 C 0.43695 0.63928 0.00972 0.0
C1731 C 0.4233 0.63862 0.0232 0.0
C1732 C 0.42172 0.65605 0.02719 0.0
C1733 C 0.43378 0.67427 0.01783 0.0
C1734 C 0.4475 0.67512 0.0045 0.0
C1735 C 0.44916 0.65774 0.00047 0.0
H1736 H 0.43252 0.68774 0.02092 0.0
H1737 H 0.45671 0.52402 0.98106 0.0
H1738 H 0.88699 0.49027 0.23185 0.0
H1739 H 0.86738 0.48268 0.20319 0.0
H1740 H 0.89538 0.44721 0.185 0.0
H1741 H 0.91524 0.455 0.21346 0.0
H1742 H 0.89222 0.47009 0.15787 0.0
H1743 H 0.84774 0.42326 0.20374 0.0
H1744 H 0.83001 0.41492 0.23301 0.0
H1745 H 0.79708 0.44648 0.21856 0.0
H1746 H 0.81487 0.45525 0.18928 0.0
H1747 H 0.78061 0.38596 0.1167 0.0
H1748 H 0.8068 0.40147 0.1411 0.0
H1749 H 0.84036 0.45747 0.11093 0.0
H1750 H 0.81602 0.44049 0.08549 0.0
H1751 H 0.81412 0.42894 0.16217 0.0
H1752 H 0.88174 0.48924 0.12488 0.0
H1753 H 0.90101 0.49611 0.09634 0.0
H1754 H 0.88954 0.43406 0.09476 0.0
H1755 H 0.86994 0.42689 0.12329 0.0
C1756 C 0.88931 0.48125 0.22158 0.0
C1757 C 0.90251 0.47308 0.22494 0.0
C1758 C 0.87801 0.47682 0.20527 0.0
C1759 C 0.87975 0.46419 0.19206 0.0
C1760 C 0.89378 0.45696 0.19502 0.0
C1761 C 0.90499 0.46129 0.21133 0.0
C1762 C 0.86586 0.4571 0.17574 0.0
C1763 C 0.87512 0.46112 0.15877 0.0
C1764 C 0.84358 0.44546 0.17689 0.0
C1765 C 0.83281 0.44011 0.19443 0.0
C1766 C 0.83684 0.42855 0.20687 0.0
C1767 C 0.82676 0.42373 0.22345 0.0
C1768 C 0.81247 0.43022 0.22766 0.0
C1769 C 0.80819 0.4415 0.21529 0.0
C1770 C 0.81825 0.4464 0.1987 0.0
C1771 C 0.79443 0.40102 0.11486 0.0
C1772 C 0.79711 0.41144 0.09877 0.0
C1773 C 0.80914 0.41023 0.12903 0.0
C1774 C 0.82617 0.43068 0.12794 0.0
C1775 C 0.8283 0.4414 0.11201 0.0
C1776 C 0.81412 0.43177 0.09751 0.0
C1777 C 0.8404 0.44096 0.14401 0.0
C1778 C 0.83119 0.43786 0.16108 0.0
C1779 C 0.86275 0.45325 0.14295 0.0
C1780 C 0.87397 0.45733 0.12577 0.0
C1781 C 0.88321 0.47704 0.11832 0.0
C1782 C 0.89412 0.48098 0.10218 0.0
C1783 C 0.89623 0.46542 0.09361 0.0
C1784 C 0.88753 0.44595 0.10124 0.0
C1785 C 0.8764 0.44189 0.11728 0.0
H1786 H 0.90475 0.4685 0.08116 0.0
H1787 H 0.80468 0.42647 0.2405 0.0
loop_
_geom_bond_atom_site_label_1
_geom_bond_atom_site_label_2
_geom_bond_distance
_geom_bond_site_symmetry_2
_ccdc_geom_bond_type
H0 C27 0.929 . S
N1 C26 1.433 . S
N1 C32 1.435 . S
N1 C38 1.423 . S
H2 C28 0.930 . S
H3 C31 0.931 . S
H4 C30 0.929 . S
H5 C33 0.930 . S
H6 C34 0.932 . S
H7 C37 0.929 . S
H8 C36 0.931 . S
H9 C39 0.929 . S
H10 C43 0.932 . S
H11 C40 0.931 . S
H12 C42 0.929 . S
H13 C45 0.929 . S
H14 C46 0.930 . S
H15 C48 0.929 . S
H16 C49 0.931 . S
H17 C51 0.930 . S
H18 C52 0.932 . S
H19 C54 0.931 . S
H20 C55 0.929 . S
H21 C57 0.929 . S
H22 C58 0.931 . S
H23 C60 0.929 . S
N24 C44 1.433 . S
N24 C50 1.435 . S
N24 C56 1.423 . S
H25 C61 0.932 . S
C26 N1 1.433 . S
C26 C27 1.363 . S
C26 C31 1.370 . S
C27 H0 0.929 . S
C27 C26 1.363 . S
C27 C28 1.385 . S
C28 H2 0.930 . S
C28 C27 1.385 . S
C28 C29 1.357 . S
C29 C28 1.357 . S
C29 C30 1.406 . S
C30 H4 0.929 . S
C30 C29 1.406 . S
C30 C31 1.391 . S
C31 H3 0.931 . S
C31 C26 1.370 . S
C31 C30 1.391 . S
C32 N1 1.435 . S
C32 C33 1.358 . S
C32 C37 1.371 . S
C33 H5 0.930 . S
C33 C32 1.358 . S
C33 C34 1.405 . S
C34 H6 0.932 . S
C34 C33 1.405 . S
C34 C35 1.383 . S
C35 C34 1.383 . S
C35 C36 1.393 . S
C36 H8 0.931 . S
C36 C35 1.393 . S
C36 C37 1.382 . S
C37 H7 0.929 . S
C37 C32 1.371 . S
C37 C36 1.382 . S
C38 N1 1.423 . S
C38 C39 1.362 . S
C38 C43 1.388 . S
C39 H9 0.929 . S
C39 C38 1.362 . S
C39 C40 1.376 . S
C40 H11 0.931 . S
C40 C39 1.376 . S
C40 C41 1.396 . S
C41 C40 1.396 . S
C41 C42 1.348 . S
C41 C59 1.472 1_455 S
C42 H12 0.929 . S
C42 C41 1.348 . S
C42 C43 1.443 . S
C43 H10 0.932 . S
C43 C38 1.388 . S
C43 C42 1.443 . S
C44 N24 1.433 . S
C44 C45 1.363 . S
C44 C49 1.370 . S
C45 H13 0.929 . S
C45 C44 1.363 . S
C45 C46 1.385 . S
C46 H14 0.930 . S
C46 C45 1.385 . S
C46 C47 1.357 . S
C47 C46 1.357 . S
C47 C48 1.406 . S
C48 H15 0.929 . S
C48 C47 1.406 . S
C48 C49 1.391 . S
C49 H16 0.931 . S
C49 C44 1.370 . S
C49 C48 1.391 . S
C50 N24 1.435 . S
C50 C51 1.358 . S
C50 C55 1.371 . S
C51 H17 0.930 . S
C51 C50 1.358 . S
C51 C52 1.405 . S
C52 H18 0.932 . S
C52 C51 1.405 . S
C52 C53 1.383 . S
C53 C52 1.383 . S
C53 C54 1.393 . S
C54 H19 0.931 . S
C54 C53 1.393 . S
C54 C55 1.382 . S
C55 H20 0.929 . S
C55 C50 1.371 . S
C55 C54 1.382 . S
C56 N24 1.423 . S
C56 C57 1.362 . S
C56 C61 1.388 . S
C57 H21 0.929 . S
C57 C56 1.362 . S
C57 C58 1.376 . S
C58 H22 0.931 . S
C58 C57 1.376 . S
C58 C59 1.396 . S
C59 C41 1.472 1_655 S
C59 C58 1.396 . S
C59 C60 1.348 . S
C60 H23 0.929 . S
C60 C59 1.348 . S
C60 C61 1.443 . S
C61 H25 0.932 . S
C61 C56 1.388 . S
C61 C60 1.443 . S
H62 C89 0.929 . S
N63 C88 1.433 . S
N63 C94 1.435 . S
N63 C100 1.423 . S
H64 C90 0.930 . S
H65 C93 0.931 . S
H66 C92 0.929 . S
H67 C95 0.930 . S
H68 C96 0.932 . S
H69 C99 0.929 . S
H70 C98 0.931 . S
H71 C101 0.929 . S
H72 C105 0.932 . S
H73 C102 0.931 . S
H74 C104 0.926 1_545 S
H75 C107 0.929 . S
H76 C108 0.930 . S
H77 C110 0.929 . S
H78 C111 0.931 . S
H79 C113 0.930 . S
H80 C114 0.932 . S
H81 C116 0.931 . S
H82 C117 0.929 . S
H83 C119 0.929 . S
H84 C120 0.931 . S
H85 C122 0.929 . S
N86 C106 1.433 . S
N86 C112 1.435 . S
N86 C118 1.423 . S
H87 C123 0.932 . S
C88 N63 1.433 . S
C88 C89 1.363 . S
C88 C93 1.370 . S
C89 H62 0.929 . S
C89 C88 1.363 . S
C89 C90 1.385 . S
C90 H64 0.930 . S
C90 C89 1.385 . S
C90 C91 1.357 . S
C91 C90 1.357 . S
C91 C92 1.406 . S
C92 H66 0.929 . S
C92 C91 1.406 . S
C92 C93 1.391 . S
C93 H65 0.931 . S
C93 C88 1.370 . S
C93 C92 1.391 . S
C94 N63 1.435 . S
C94 C95 1.358 . S
C94 C99 1.371 . S
C95 H67 0.930 . S
C95 C94 1.358 . S
C95 C96 1.405 . S
C96 H68 0.932 . S
C96 C95 1.405 . S
C96 C97 1.383 . S
C97 C96 1.383 . S
C97 C98 1.393 . S
C98 H70 0.931 . S
C98 C97 1.393 . S
C98 C99 1.382 . S
C99 H69 0.929 . S
C99 C94 1.371 . S
C99 C98 1.382 . S
C100 N63 1.423 . S
C100 C101 1.362 . S
C100 C105 1.388 . S
C101 H71 0.929 . S
C101 C100 1.362 . S
C101 C102 1.376 . S
C102 H73 0.931 . S
C102 C101 1.376 . S
C102 C103 1.396 1_565 S
C103 C102 1.396 1_545 S
C103 C104 1.348 1_545 S
C103 C121 1.472 . S
C104 H74 0.926 1_565 S
C104 C103 1.348 1_565 S
C104 C105 1.446 . S
C105 H72 0.932 . S
C105 C100 1.388 . S
C105 C104 1.446 . S
C106 N86 1.433 . S
C106 C107 1.363 . S
C106 C111 1.370 . S
C107 H75 0.929 . S
C107 C106 1.363 . S
C107 C108 1.385 . S
C108 H76 0.930 . S
C108 C107 1.385 . S
C108 C109 1.357 . S
C109 C108 1.357 . S
C109 C110 1.406 . S
C110 H77 0.929 . S
C110 C109 1.406 . S
C110 C111 1.391 . S
C111 H78 0.931 . S
C111 C106 1.370 . S
C111 C110 1.391 . S
C112 N86 1.435 . S
C112 C113 1.358 . S
C112 C117 1.371 . S
C113 H79 0.930 . S
C113 C112 1.358 . S
C113 C114 1.405 . S
C114 H80 0.932 . S
C114 C113 1.405 . S
C114 C115 1.383 . S
C115 C114 1.383 . S
C115 C116 1.393 . S
C116 H81 0.931 . S
C116 C115 1.393 . S
C116 C117 1.382 . S
C117 H82 0.929 . S
C117 C112 1.371 . S
C117 C116 1.382 . S
C118 N86 1.423 . S
C118 C119 1.362 . S
C118 C123 1.388 . S
C119 H83 0.929 . S
C119 C118 1.362 . S
C119 C120 1.376 . S
C120 H84 0.931 . S
C120 C119 1.376 . S
C120 C121 1.396 . S
C121 C103 1.472 . S
C121 C120 1.396 . S
C121 C122 1.348 . S
C122 H85 0.929 . S
C122 C121 1.348 . S
C122 C123 1.443 . S
C123 H87 0.932 . S
C123 C118 1.388 . S
C123 C122 1.443 . S
H124 C151 0.929 . S
N125 C150 1.433 . S
N125 C156 1.435 . S
N125 C162 1.423 . S
H126 C152 0.930 . S
H127 C155 0.931 . S
H128 C154 0.929 . S
H129 C157 0.930 . S
H130 C158 0.932 . S
H131 C161 0.929 . S
H132 C160 0.931 . S
H133 C163 0.929 . S
H134 C167 0.932 . S
H135 C164 0.931 . S
H136 C166 0.929 . S
H137 C169 0.929 . S
H138 C170 0.930 . S
H139 C172 0.929 . S
H140 C173 0.931 . S
H141 C175 0.930 . S
H142 C176 0.932 . S
H143 C178 0.931 . S
H144 C179 0.929 . S
H145 C181 0.929 . S
H146 C182 0.931 . S
H147 C184 0.929 . S
N148 C168 1.433 . S
N148 C174 1.435 . S
N148 C180 1.423 . S
H149 C185 0.932 . S
C150 N125 1.433 . S
C150 C151 1.363 . S
C150 C155 1.370 . S
C151 H124 0.929 . S
C151 C150 1.363 . S
C151 C152 1.385 . S
C152 H126 0.930 . S
C152 C151 1.385 . S
C152 C153 1.357 . S
C153 C152 1.357 . S
C153 C154 1.406 . S
C154 H128 0.929 . S
C154 C153 1.406 . S
C154 C155 1.391 . S
C155 H127 0.931 . S
C155 C150 1.370 . S
C155 C154 1.391 . S
C156 N125 1.435 . S
C156 C157 1.358 . S
C156 C161 1.371 . S
C157 H129 0.930 . S
C157 C156 1.358 . S
C157 C158 1.405 . S
C158 H130 0.932 . S
C158 C157 1.405 . S
C158 C159 1.383 . S
C159 C158 1.383 . S
C159 C160 1.393 . S
C160 H132 0.931 . S
C160 C159 1.393 . S
C160 C161 1.382 . S
C161 H131 0.929 . S
C161 C156 1.371 . S
C161 C160 1.382 . S
C162 N125 1.423 . S
C162 C163 1.362 . S
C162 C167 1.388 . S
C163 H133 0.929 . S
C163 C162 1.362 . S
C163 C164 1.376 . S
C164 H135 0.931 . S
C164 C163 1.376 . S
C164 C165 1.396 . S
C165 C164 1.396 . S
C165 C166 1.348 . S
C165 C183 1.472 . S
C166 H136 0.929 . S
C166 C165 1.348 . S
C166 C167 1.443 . S
C167 H134 0.932 . S
C167 C162 1.388 . S
C167 C166 1.443 . S
C168 N148 1.433 . S
C168 C169 1.363 . S
C168 C173 1.370 . S
C169 H137 0.929 . S
C169 C168 1.363 . S
C169 C170 1.385 . S
C170 H138 0.930 . S
C170 C169 1.385 . S
C170 C171 1.357 . S
C171 C170 1.357 . S
C171 C172 1.406 . S
C172 H139 0.929 . S
C172 C171 1.406 . S
C172 C173 1.391 . S
C173 H140 0.931 . S
C173 C168 1.370 . S
C173 C172 1.391 . S
C174 N148 1.435 . S
C174 C175 1.358 . S
C174 C179 1.371 . S
C175 H141 0.930 . S
C175 C174 1.358 . S
C175 C176 1.405 . S
C176 H142 0.932 . S
C176 C175 1.405 . S
C176 C177 1.383 . S
C177 C176 1.383 . S
C177 C178 1.393 . S
C178 H143 0.931 . S
C178 C177 1.393 . S
C178 C179 1.382 . S
C179 H144 0.929 . S
C179 C174 1.371 . S
C179 C178 1.382 . S
C180 N148 1.423 . S
C180 C181 1.362 . S
C180 C185 1.388 . S
C181 H145 0.929 . S
C181 C180 1.362 . S
C181 C182 1.376 . S
C182 H146 0.931 . S
C182 C181 1.376 . S
C182 C183 1.396 . S
C183 C165 1.472 . S
C183 C182 1.396 . S
C183 C184 1.348 . S
C184 H147 0.929 . S
C184 C183 1.348 . S
C184 C185 1.443 . S
C185 H149 0.932 . S
C185 C180 1.388 . S
C185 C184 1.443 . S
H186 C213 0.929 . S
N187 C212 1.433 . S
N187 C218 1.435 . S
N187 C224 1.423 . S
H188 C214 0.930 . S
H189 C217 0.931 . S
H190 C216 0.929 . S
H191 C219 0.930 . S
H192 C220 0.932 . S
H193 C223 0.929 . S
H194 C222 0.931 . S
H195 C225 0.929 . S
H196 C229 0.932 . S
H197 C226 0.931 . S
H198 C228 0.929 . S
H199 C231 0.929 . S
H200 C232 0.930 . S
H201 C234 0.929 . S
H202 C235 0.931 . S
H203 C237 0.930 . S
H204 C238 0.932 . S
H205 C240 0.931 . S
H206 C241 0.929 . S
H207 C243 0.929 . S
H208 C244 0.931 . S
H209 C246 0.929 . S
N210 C230 1.433 . S
N210 C236 1.435 . S
N210 C242 1.423 . S
H211 C247 0.932 . S
C212 N187 1.433 . S
C212 C213 1.363 . S
C212 C217 1.370 . S
C213 H186 0.929 . S
C213 C212 1.363 . S
C213 C214 1.385 . S
C214 H188 0.930 . S
C214 C213 1.385 . S
C214 C215 1.357 . S
C215 C214 1.357 . S
C215 C216 1.406 . S
C216 H190 0.929 . S
C216 C215 1.406 . S
C216 C217 1.391 . S
C217 H189 0.931 . S
C217 C212 1.370 . S
C217 C216 1.391 . S
C218 N187 1.435 . S
C218 C219 1.358 . S
C218 C223 1.371 . S
C219 H191 0.930 . S
C219 C218 1.358 . S
C219 C220 1.405 . S
C220 H192 0.932 . S
C220 C219 1.405 . S
C220 C221 1.383 . S
C221 C220 1.383 . S
C221 C222 1.393 . S
C222 H194 0.931 . S
C222 C221 1.393 . S
C222 C223 1.382 . S
C223 H193 0.929 . S
C223 C218 1.371 . S
C223 C222 1.382 . S
C224 N187 1.423 . S
C224 C225 1.362 . S
C224 C229 1.388 . S
C225 H195 0.929 . S
C225 C224 1.362 . S
C225 C226 1.376 . S
C226 H197 0.931 . S
C226 C225 1.376 . S
C226 C227 1.396 . S
C227 C226 1.396 . S
C227 C228 1.348 . S
C227 C245 1.472 1_455 S
C228 H198 0.929 . S
C228 C227 1.348 . S
C228 C229 1.443 . S
C229 H196 0.932 . S
C229 C224 1.388 . S
C229 C228 1.443 . S
C230 N210 1.433 . S
C230 C231 1.363 . S
C230 C235 1.370 . S
C231 H199 0.929 . S
C231 C230 1.363 . S
C231 C232 1.385 . S
C232 H200 0.930 . S
C232 C231 1.385 . S
C232 C233 1.357 . S
C233 C232 1.357 . S
C233 C234 1.406 . S
C234 H201 0.929 . S
C234 C233 1.406 . S
C234 C235 1.391 . S
C235 H202 0.931 . S
C235 C230 1.370 . S
C235 C234 1.391 . S
C236 N210 1.435 . S
C236 C237 1.358 . S
C236 C241 1.371 . S
C237 H203 0.930 . S
C237 C236 1.358 . S
C237 C238 1.405 . S
C238 H204 0.932 . S
C238 C237 1.405 . S
C238 C239 1.383 . S
C239 C238 1.383 . S
C239 C240 1.393 . S
C240 H205 0.931 . S
C240 C239 1.393 . S
C240 C241 1.382 . S
C241 H206 0.929 . S
C241 C236 1.371 . S
C241 C240 1.382 . S
C242 N210 1.423 . S
C242 C243 1.362 . S
C242 C247 1.388 . S
C243 H207 0.929 . S
C243 C242 1.362 . S
C243 C244 1.376 . S
C244 H208 0.931 . S
C244 C243 1.376 . S
C244 C245 1.396 . S
C245 C227 1.472 1_655 S
C245 C244 1.396 . S
C245 C246 1.348 . S
C246 H209 0.929 . S
C246 C245 1.348 . S
C246 C247 1.443 . S
C247 H211 0.932 . S
C247 C242 1.388 . S
C247 C246 1.443 . S
H248 C275 0.929 . S
N249 C274 1.433 . S
N249 C280 1.435 . S
N249 C286 1.423 . S
H250 C276 0.930 . S
H251 C279 0.931 . S
H252 C278 0.929 . S
H253 C281 0.930 . S
H254 C282 0.932 . S
H255 C285 0.929 . S
H256 C284 0.931 . S
H257 C287 0.929 . S
H258 C291 0.932 . S
H259 C288 0.931 . S
H260 C290 0.929 . S
H261 C293 0.929 . S
H262 C294 0.930 . S
H263 C296 0.929 . S
H264 C297 0.931 . S
H265 C299 0.930 1_554 S
H266 C300 0.932 . S
H267 C302 0.931 . S
H268 C303 0.929 . S
H269 C305 0.929 . S
H270 C306 0.931 1_544 S
H271 C308 0.929 . S
N272 C292 1.433 . S
N272 C298 1.435 1_554 S
N272 C304 1.423 1_554 S
H273 C309 0.932 . S
C274 N249 1.433 . S
C274 C275 1.363 . S
C274 C279 1.370 . S
C275 H248 0.929 . S
C275 C274 1.363 . S
C275 C276 1.385 . S
C276 H250 0.930 . S
C276 C275 1.385 . S
C276 C277 1.357 1_556 S
C277 C276 1.357 1_554 S
C277 C278 1.406 . S
C278 H252 0.929 . S
C278 C277 1.406 . S
C278 C279 1.391 1_554 S
C279 H251 0.931 . S
C279 C274 1.370 . S
C279 C278 1.391 1_556 S
C280 N249 1.435 . S
C280 C281 1.358 . S
C280 C285 1.371 . S
C281 H253 0.930 . S
C281 C280 1.358 . S
C281 C282 1.405 . S
C282 H254 0.932 . S
C282 C281 1.405 . S
C282 C283 1.383 . S
C283 C282 1.383 . S
C283 C284 1.393 . S
C284 H256 0.931 . S
C284 C283 1.393 . S
C284 C285 1.382 . S
C285 H255 0.929 . S
C285 C280 1.371 . S
C285 C284 1.382 . S
C286 N249 1.423 . S
C286 C287 1.362 . S
C286 C291 1.388 . S
C287 H257 0.929 . S
C287 C286 1.362 . S
C287 C288 1.376 . S
C288 H259 0.931 . S
C288 C287 1.376 . S
C288 C289 1.396 . S
C289 C288 1.396 . S
C289 C290 1.348 . S
C289 C307 1.472 . S
C290 H260 0.929 . S
C290 C289 1.348 . S
C290 C291 1.443 . S
C291 H258 0.932 . S
C291 C286 1.388 . S
C291 C290 1.443 . S
C292 N272 1.433 . S
C292 C293 1.363 . S
C292 C297 1.370 . S
C293 H261 0.929 . S
C293 C292 1.363 . S
C293 C294 1.385 . S
C294 H262 0.930 . S
C294 C293 1.385 . S
C294 C295 1.357 . S
C295 C294 1.357 . S
C295 C296 1.406 . S
C296 H263 0.929 . S
C296 C295 1.406 . S
C296 C297 1.391 . S
C297 H264 0.931 . S
C297 C292 1.370 . S
C297 C296 1.391 . S
C298 N272 1.435 1_556 S
C298 C299 1.358 . S
C298 C303 1.371 . S
C299 H265 0.930 1_556 S
C299 C298 1.358 . S
C299 C300 1.405 . S
C300 H266 0.932 . S
C300 C299 1.405 . S
C300 C301 1.383 . S
C301 C300 1.383 . S
C301 C302 1.393 . S
C302 H267 0.931 . S
C302 C301 1.393 . S
C302 C303 1.382 . S
C303 H268 0.929 . S
C303 C298 1.371 . S
C303 C302 1.382 . S
C304 N272 1.423 1_556 S
C304 C305 1.362 1_556 S
C304 C309 1.388 . S
C305 H269 0.929 . S
C305 C304 1.362 1_554 S
C305 C306 1.376 1_554 S
C306 H270 0.931 1_566 S
C306 C305 1.376 1_556 S
C306 C307 1.396 1_565 S
C307 C289 1.472 . S
C307 C306 1.396 1_545 S
C307 C308 1.348 1_545 S
C308 H271 0.929 . S
C308 C307 1.348 1_565 S
C308 C309 1.443 . S
C309 H273 0.932 . S
C309 C304 1.388 . S
C309 C308 1.443 . S
H310 C337 0.929 . S
N311 C336 1.433 . S
N311 C342 1.435 . S
N311 C348 1.423 . S
H312 C338 0.930 . S
H313 C341 0.931 . S
H314 C340 0.929 . S
H315 C343 0.930 . S
H316 C344 0.932 . S
H317 C347 0.929 . S
H318 C346 0.931 . S
H319 C349 0.929 . S
H320 C353 0.932 . S
H321 C350 0.931 . S
H322 C352 0.929 . S
H323 C355 0.929 . S
H324 C356 0.930 . S
H325 C358 0.929 . S
H326 C359 0.931 . S
H327 C361 0.930 . S
H328 C362 0.932 . S
H329 C364 0.931 . S
H330 C365 0.929 . S
H331 C367 0.929 . S
H332 C368 0.931 . S
H333 C370 0.929 . S
N334 C354 1.433 . S
N334 C360 1.435 . S
N334 C366 1.423 . S
H335 C371 0.932 . S
C336 N311 1.433 . S
C336 C337 1.363 . S
C336 C341 1.370 . S
C337 H310 0.929 . S
C337 C336 1.363 . S
C337 C338 1.385 . S
C338 H312 0.930 . S
C338 C337 1.385 . S
C338 C339 1.357 . S
C339 C338 1.357 . S
C339 C340 1.406 . S
C340 H314 0.929 . S
C340 C339 1.406 . S
C340 C341 1.391 . S
C341 H313 0.931 . S
C341 C336 1.370 . S
C341 C340 1.391 . S
C342 N311 1.435 . S
C342 C343 1.358 . S
C342 C347 1.371 . S
C343 H315 0.930 . S
C343 C342 1.358 . S
C343 C344 1.405 . S
C344 H316 0.932 . S
C344 C343 1.405 . S
C344 C345 1.383 . S
C345 C344 1.383 . S
C345 C346 1.393 . S
C346 H318 0.931 . S
C346 C345 1.393 . S
C346 C347 1.382 . S
C347 H317 0.929 . S
C347 C342 1.371 . S
C347 C346 1.382 . S
C348 N311 1.423 . S
C348 C349 1.362 . S
C348 C353 1.388 . S
C349 H319 0.929 . S
C349 C348 1.362 . S
C349 C350 1.376 . S
C350 H321 0.931 . S
C350 C349 1.376 . S
C350 C351 1.396 . S
C351 C350 1.396 . S
C351 C352 1.348 . S
C351 C369 1.472 . S
C352 H322 0.929 . S
C352 C351 1.348 . S
C352 C353 1.443 . S
C353 H320 0.932 . S
C353 C348 1.388 . S
C353 C352 1.443 . S
C354 N334 1.433 . S
C354 C355 1.363 . S
C354 C359 1.370 . S
C355 H323 0.929 . S
C355 C354 1.363 . S
C355 C356 1.385 . S
C356 H324 0.930 . S
C356 C355 1.385 . S
C356 C357 1.357 . S
C357 C356 1.357 . S
C357 C358 1.406 . S
C358 H325 0.929 . S
C358 C357 1.406 . S
C358 C359 1.391 . S
C359 H326 0.931 . S
C359 C354 1.370 . S
C359 C358 1.391 . S
C360 N334 1.435 . S
C360 C361 1.358 . S
C360 C365 1.371 . S
C361 H327 0.930 . S
C361 C360 1.358 . S
C361 C362 1.405 . S
C362 H328 0.932 . S
C362 C361 1.405 . S
C362 C363 1.383 . S
C363 C362 1.383 . S
C363 C364 1.393 . S
C364 H329 0.931 . S
C364 C363 1.393 . S
C364 C365 1.382 . S
C365 H330 0.929 . S
C365 C360 1.371 . S
C365 C364 1.382 . S
C366 N334 1.423 . S
C366 C367 1.362 . S
C366 C371 1.388 . S
C367 H331 0.929 . S
C367 C366 1.362 . S
C367 C368 1.376 . S
C368 H332 0.931 . S
C368 C367 1.376 . S
C368 C369 1.396 . S
C369 C351 1.472 . S
C369 C368 1.396 . S
C369 C370 1.348 . S
C370 H333 0.929 . S
C370 C369 1.348 . S
C370 C371 1.443 . S
C371 H335 0.932 . S
C371 C366 1.388 . S
C371 C370 1.443 . S
Mn372 O377 2.095 . S
Mn372 O387 2.162 . S
Mn372 O388 2.297 . S
Mn372 O396 2.385 . S
Mn372 O397 2.209 . S
Mn372 O398 2.094 . S
Mn373 O378 2.121 . S
Mn373 N380 2.257 . S
Mn373 N389 2.282 . S
Mn373 O397 2.215 . S
Mn373 O399 2.117 . S
C374 O396 1.234 . S
C374 O397 1.283 . S
C375 O387 1.281 . S
C375 O388 1.236 . S
C376 O398 1.240 . S
C376 O399 1.264 . S
O377 Mn372 2.095 . S
O377 C386 1.250 . S
O378 Mn373 2.121 . S
O378 C386 1.258 . S
C379 N380 1.326 . S
C379 C383 1.460 . S
C379 H385 0.929 . S
N380 Mn373 2.257 . S
N380 C379 1.326 . S
N380 C384 1.362 . S
C381 C382 1.258 . S
C381 C384 1.431 . S
C381 C401 1.449 . S
C382 C381 1.258 . S
C382 C383 1.477 . S
C382 H402 0.931 . S
C383 C379 1.460 . S
C383 C382 1.477 . S
C383 H403 0.930 . S
C384 N380 1.362 . S
C384 C381 1.431 . S
C384 C394 1.476 . S
H385 C379 0.929 . S
C386 O377 1.250 . S
C386 O378 1.258 . S
O387 Mn372 2.162 . S
O387 C375 1.281 . S
O388 Mn372 2.297 . S
O388 C375 1.236 . S
N389 Mn373 2.282 . S
N389 C390 1.328 . S
N389 C394 1.318 . S
C390 N389 1.328 . S
C390 C391 1.457 . S
C390 H395 0.929 . S
C391 C390 1.457 . S
C391 C392 1.291 . S
C391 H404 0.931 . S
C392 C391 1.291 . S
C392 C393 1.373 . S
C392 H405 0.929 . S
C393 C392 1.373 . S
C393 C394 1.396 . S
C393 C400 1.403 . S
C394 C384 1.476 . S
C394 N389 1.318 . S
C394 C393 1.396 . S
H395 C390 0.929 . S
O396 Mn372 2.385 . S
O396 C374 1.234 . S
O397 Mn372 2.209 . S
O397 Mn373 2.215 . S
O397 C374 1.283 . S
O398 Mn372 2.094 . S
O398 C376 1.240 . S
O399 Mn373 2.117 . S
O399 C376 1.264 . S
C400 C393 1.403 . S
C400 C401 1.399 . S
C400 H406 0.929 . S
C401 C381 1.449 . S
C401 C400 1.399 . S
C401 H407 0.930 . S
H402 C382 0.931 . S
H403 C383 0.930 . S
H404 C391 0.931 . S
H405 C392 0.929 . S
H406 C400 0.929 . S
H407 C401 0.930 . S
Mn408 O413 2.095 . S
Mn408 O423 2.162 . S
Mn408 O424 2.297 . S
Mn408 O432 2.385 . S
Mn408 O433 2.209 . S
Mn408 O434 2.094 . S
Mn409 O414 2.121 . S
Mn409 N416 2.257 . S
Mn409 N425 2.282 . S
Mn409 O433 2.215 . S
Mn409 O435 2.117 . S
C410 O432 1.234 . S
C410 O433 1.283 . S
C411 O423 1.281 . S
C411 O424 1.236 . S
C412 O434 1.240 . S
C412 O435 1.264 . S
O413 Mn408 2.095 . S
O413 C422 1.250 . S
O414 Mn409 2.121 . S
O414 C422 1.258 . S
C415 N416 1.326 . S
C415 C419 1.460 . S
C415 H421 0.929 . S
N416 Mn409 2.257 . S
N416 C415 1.326 . S
N416 C420 1.362 . S
C417 C418 1.258 . S
C417 C420 1.431 . S
C417 C437 1.449 . S
C418 C417 1.258 . S
C418 C419 1.477 . S
C418 H438 0.931 . S
C419 C415 1.460 . S
C419 C418 1.477 . S
C419 H439 0.930 . S
C420 N416 1.362 . S
C420 C417 1.431 . S
C420 C430 1.476 . S
H421 C415 0.929 . S
C422 O413 1.250 . S
C422 O414 1.258 . S
O423 Mn408 2.162 . S
O423 C411 1.281 . S
O424 Mn408 2.297 . S
O424 C411 1.236 . S
N425 Mn409 2.282 . S
N425 C426 1.328 . S
N425 C430 1.318 . S
C426 N425 1.328 . S
C426 C427 1.457 . S
C426 H431 0.929 . S
C427 C426 1.457 . S
C427 C428 1.291 . S
C427 H440 0.931 . S
C428 C427 1.291 . S
C428 C429 1.373 . S
C428 H441 0.929 . S
C429 C428 1.373 . S
C429 C430 1.396 . S
C429 C436 1.403 . S
C430 C420 1.476 . S
C430 N425 1.318 . S
C430 C429 1.396 . S
H431 C426 0.929 . S
O432 Mn408 2.385 . S
O432 C410 1.234 . S
O433 Mn408 2.209 . S
O433 Mn409 2.215 . S
O433 C410 1.283 . S
O434 Mn408 2.094 . S
O434 C412 1.240 . S
O435 Mn409 2.117 . S
O435 C412 1.264 . S
C436 C429 1.403 . S
C436 C437 1.399 . S
C436 H442 0.929 . S
C437 C417 1.449 . S
C437 C436 1.399 . S
C437 H443 0.930 . S
H438 C418 0.931 . S
H439 C419 0.930 . S
H440 C427 0.931 . S
H441 C428 0.929 . S
H442 C436 0.929 . S
H443 C437 0.930 . S
Mn444 O449 2.095 . S
Mn444 O459 2.162 . S
Mn444 O460 2.297 . S
Mn444 O468 2.385 . S
Mn444 O469 2.209 . S
Mn444 O470 2.094 . S
Mn445 O450 2.121 . S
Mn445 N452 2.257 . S
Mn445 N461 2.282 . S
Mn445 O469 2.215 . S
Mn445 O471 2.117 . S
C446 O468 1.234 . S
C446 O469 1.283 . S
C447 O459 1.281 . S
C447 O460 1.236 . S
C448 O470 1.240 . S
C448 O471 1.264 . S
O449 Mn444 2.095 . S
O449 C458 1.250 . S
O450 Mn445 2.121 . S
O450 C458 1.258 . S
C451 N452 1.326 . S
C451 C455 1.460 . S
C451 H457 0.929 . S
N452 Mn445 2.257 . S
N452 C451 1.326 . S
N452 C456 1.362 . S
C453 C454 1.258 . S
C453 C456 1.431 . S
C453 C473 1.449 . S
C454 C453 1.258 . S
C454 C455 1.477 . S
C454 H474 0.931 . S
C455 C451 1.460 . S
C455 C454 1.477 . S
C455 H475 0.930 . S
C456 N452 1.362 . S
C456 C453 1.431 . S
C456 C466 1.476 . S
H457 C451 0.929 . S
C458 O449 1.250 . S
C458 O450 1.258 . S
O459 Mn444 2.162 . S
O459 C447 1.281 . S
O460 Mn444 2.297 . S
O460 C447 1.236 . S
N461 Mn445 2.282 . S
N461 C462 1.328 . S
N461 C466 1.318 . S
C462 N461 1.328 . S
C462 C463 1.457 . S
C462 H467 0.929 . S
C463 C462 1.457 . S
C463 C464 1.291 . S
C463 H476 0.931 . S
C464 C463 1.291 . S
C464 C465 1.373 . S
C464 H477 0.929 . S
C465 C464 1.373 . S
C465 C466 1.396 . S
C465 C472 1.403 . S
C466 C456 1.476 . S
C466 N461 1.318 . S
C466 C465 1.396 . S
H467 C462 0.929 . S
O468 Mn444 2.385 . S
O468 C446 1.234 . S
O469 Mn444 2.209 . S
O469 Mn445 2.215 . S
O469 C446 1.283 . S
O470 Mn444 2.094 . S
O470 C448 1.240 . S
O471 Mn445 2.117 . S
O471 C448 1.264 . S
C472 C465 1.403 . S
C472 C473 1.399 . S
C472 H478 0.929 . S
C473 C453 1.449 . S
C473 C472 1.399 . S
C473 H479 0.930 . S
H474 C454 0.931 . S
H475 C455 0.930 . S
H476 C463 0.931 . S
H477 C464 0.929 . S
H478 C472 0.929 . S
H479 C473 0.930 . S
Mn480 O485 2.095 . S
Mn480 O495 2.162 . S
Mn480 O496 2.297 . S
Mn480 O504 2.385 . S
Mn480 O505 2.209 . S
Mn480 O506 2.094 . S
Mn481 O486 2.121 . S
Mn481 N488 2.257 . S
Mn481 N497 2.282 . S
Mn481 O505 2.215 . S
Mn481 O507 2.117 . S
C482 O504 1.234 . S
C482 O505 1.283 . S
C483 O495 1.281 . S
C483 O496 1.236 . S
C484 O506 1.240 . S
C484 O507 1.264 . S
O485 Mn480 2.095 . S
O485 C494 1.250 . S
O486 Mn481 2.121 . S
O486 C494 1.258 . S
C487 N488 1.326 . S
C487 C491 1.460 . S
C487 H493 0.929 . S
N488 Mn481 2.257 . S
N488 C487 1.326 . S
N488 C492 1.362 . S
C489 C490 1.258 . S
C489 C492 1.431 . S
C489 C509 1.449 . S
C490 C489 1.258 . S
C490 C491 1.477 . S
C490 H510 0.931 . S
C491 C487 1.460 . S
C491 C490 1.477 . S
C491 H511 0.930 . S
C492 N488 1.362 . S
C492 C489 1.431 . S
C492 C502 1.476 . S
H493 C487 0.929 . S
C494 O485 1.250 . S
C494 O486 1.258 . S
O495 Mn480 2.162 . S
O495 C483 1.281 . S
O496 Mn480 2.297 . S
O496 C483 1.236 . S
N497 Mn481 2.282 . S
N497 C498 1.328 . S
N497 C502 1.318 . S
C498 N497 1.328 . S
C498 C499 1.457 . S
C498 H503 0.929 . S
C499 C498 1.457 . S
C499 C500 1.291 . S
C499 H512 0.931 . S
C500 C499 1.291 . S
C500 C501 1.373 . S
C500 H513 0.929 . S
C501 C500 1.373 . S
C501 C502 1.396 . S
C501 C508 1.403 . S
C502 C492 1.476 . S
C502 N497 1.318 . S
C502 C501 1.396 . S
H503 C498 0.929 . S
O504 Mn480 2.385 . S
O504 C482 1.234 . S
O505 Mn480 2.209 . S
O505 Mn481 2.215 . S
O505 C482 1.283 . S
O506 Mn480 2.094 . S
O506 C484 1.240 . S
O507 Mn481 2.117 . S
O507 C484 1.264 . S
C508 C501 1.403 . S
C508 C509 1.399 . S
C508 H514 0.929 . S
C509 C489 1.449 . S
C509 C508 1.399 . S
C509 H515 0.930 . S
H510 C490 0.931 . S
H511 C491 0.930 . S
H512 C499 0.931 . S
H513 C500 0.929 . S
H514 C508 0.929 . S
H515 C509 0.930 . S
Mn516 O521 2.095 . S
Mn516 O531 2.162 . S
Mn516 O532 2.297 . S
Mn516 O540 2.385 . S
Mn516 O541 2.209 . S
Mn516 O542 2.094 . S
Mn517 O522 2.121 . S
Mn517 N524 2.257 . S
Mn517 N533 2.282 . S
Mn517 O541 2.215 . S
Mn517 O543 2.117 . S
C518 O540 1.234 . S
C518 O541 1.283 . S
C519 O531 1.281 . S
C519 O532 1.236 . S
C520 O542 1.240 . S
C520 O543 1.264 . S
O521 Mn516 2.095 . S
O521 C530 1.250 . S
O522 Mn517 2.121 . S
O522 C530 1.258 . S
C523 N524 1.326 . S
C523 C527 1.460 . S
C523 H529 0.929 . S
N524 Mn517 2.257 . S
N524 C523 1.326 . S
N524 C528 1.362 . S
C525 C526 1.258 . S
C525 C528 1.431 . S
C525 C545 1.449 . S
C526 C525 1.258 . S
C526 C527 1.477 . S
C526 H546 0.931 . S
C527 C523 1.460 . S
C527 C526 1.477 . S
C527 H547 0.930 . S
C528 N524 1.362 . S
C528 C525 1.431 . S
C528 C538 1.476 . S
H529 C523 0.929 . S
C530 O521 1.250 . S
C530 O522 1.258 . S
O531 Mn516 2.162 . S
O531 C519 1.281 . S
O532 Mn516 2.297 . S
O532 C519 1.236 . S
N533 Mn517 2.282 . S
N533 C534 1.328 . S
N533 C538 1.318 . S
C534 N533 1.328 . S
C534 C535 1.457 . S
C534 H539 0.929 . S
C535 C534 1.457 . S
C535 C536 1.291 . S
C535 H548 0.931 . S
C536 C535 1.291 . S
C536 C537 1.373 . S
C536 H549 0.929 . S
C537 C536 1.373 . S
C537 C538 1.396 . S
C537 C544 1.403 . S
C538 C528 1.476 . S
C538 N533 1.318 . S
C538 C537 1.396 . S
H539 C534 0.929 . S
O540 Mn516 2.385 . S
O540 C518 1.234 . S
O541 Mn516 2.209 . S
O541 Mn517 2.215 . S
O541 C518 1.283 . S
O542 Mn516 2.094 . S
O542 C520 1.240 . S
O543 Mn517 2.117 . S
O543 C520 1.264 . S
C544 C537 1.403 . S
C544 C545 1.399 . S
C544 H550 0.929 . S
C545 C525 1.449 . S
C545 C544 1.399 . S
C545 H551 0.930 . S
H546 C526 0.931 . S
H547 C527 0.930 . S
H548 C535 0.931 . S
H549 C536 0.929 . S
H550 C544 0.929 . S
H551 C545 0.930 . S
Mn552 O557 2.095 . S
Mn552 O567 2.162 . S
Mn552 O568 2.297 . S
Mn552 O576 2.385 . S
Mn552 O577 2.209 . S
Mn552 O578 2.094 . S
Mn553 O558 2.121 . S
Mn553 N560 2.257 . S
Mn553 N569 2.282 . S
Mn553 O577 2.215 . S
Mn553 O579 2.117 . S
C554 O576 1.234 . S
C554 O577 1.283 . S
C555 O567 1.281 . S
C555 O568 1.236 . S
C556 O578 1.240 . S
C556 O579 1.264 . S
O557 Mn552 2.095 . S
O557 C566 1.250 . S
O558 Mn553 2.121 . S
O558 C566 1.258 . S
C559 N560 1.326 . S
C559 C563 1.460 . S
C559 H565 0.929 . S
N560 Mn553 2.257 . S
N560 C559 1.326 . S
N560 C564 1.362 . S
C561 C562 1.258 . S
C561 C564 1.431 . S
C561 C581 1.449 . S
C562 C561 1.258 . S
C562 C563 1.477 . S
C562 H582 0.931 . S
C563 C559 1.460 . S
C563 C562 1.477 . S
C563 H583 0.930 . S
C564 N560 1.362 . S
C564 C561 1.431 . S
C564 C574 1.476 . S
H565 C559 0.929 . S
C566 O557 1.250 . S
C566 O558 1.258 . S
O567 Mn552 2.162 . S
O567 C555 1.281 . S
O568 Mn552 2.297 . S
O568 C555 1.236 . S
N569 Mn553 2.282 . S
N569 C570 1.328 . S
N569 C574 1.318 . S
C570 N569 1.328 . S
C570 C571 1.457 . S
C570 H575 0.929 . S
C571 C570 1.457 . S
C571 C572 1.291 . S
C571 H584 0.931 . S
C572 C571 1.291 . S
C572 C573 1.373 . S
C572 H585 0.929 . S
C573 C572 1.373 . S
C573 C574 1.396 . S
C573 C580 1.403 . S
C574 C564 1.476 . S
C574 N569 1.318 . S
C574 C573 1.396 . S
H575 C570 0.929 . S
O576 Mn552 2.385 . S
O576 C554 1.234 . S
O577 Mn552 2.209 . S
O577 Mn553 2.215 . S
O577 C554 1.283 . S
O578 Mn552 2.094 . S
O578 C556 1.240 . S
O579 Mn553 2.117 . S
O579 C556 1.264 . S
C580 C573 1.403 . S
C580 C581 1.399 . S
C580 H586 0.929 . S
C581 C561 1.449 . S
C581 C580 1.399 . S
C581 H587 0.930 . S
H582 C562 0.931 . S
H583 C563 0.930 . S
H584 C571 0.931 . S
H585 C572 0.929 . S
H586 C580 0.929 . S
H587 C581 0.930 . S
H588 C606 0.951 . S
H589 C608 0.951 . S
H590 C610 0.950 . S
H591 C611 0.950 . S
H592 C613 0.950 . S
H593 C616 0.950 . S
H594 C617 0.950 . S
H595 C619 0.950 . S
H596 C620 0.950 . S
H597 C621 0.951 . S
H598 C623 0.951 . S
H599 C625 0.950 . S
H600 C626 0.950 . S
H601 C628 0.950 . S
H602 C631 0.950 . S
H603 C632 0.950 . S
H604 C634 0.950 . S
H605 C635 0.950 . S
C606 H588 0.951 . S
C606 C607 1.366 . S
C606 C608 1.388 . S
C607 C606 1.366 . S
C607 C611 1.385 . S
C608 H589 0.951 . S
C608 C606 1.388 . S
C608 C609 1.366 . S
C609 C608 1.366 . S
C609 C610 1.414 . S
C609 C612 1.499 . S
C610 H590 0.950 . S
C610 C609 1.414 . S
C610 C611 1.374 . S
C611 H591 0.950 . S
C611 C607 1.385 . S
C611 C610 1.374 . S
C612 C609 1.499 . S
C612 C613 1.373 . S
C612 C614 1.389 . S
C613 H592 0.950 . S
C613 C612 1.373 . S
C613 C629 1.377 . S
C614 C612 1.389 . S
C614 C615 1.524 . S
C614 C628 1.377 . S
C615 C614 1.524 . S
C615 C616 1.397 . S
C615 C620 1.363 . S
C616 H593 0.950 . S
C616 C615 1.397 . S
C616 C617 1.334 . S
C617 H594 0.950 . S
C617 C616 1.334 . S
C617 C618 1.287 . S
C618 C617 1.287 . S
C618 C619 1.524 . S
C618 H637 0.913 . S
C619 H595 0.950 . S
C619 C618 1.524 . S
C619 C620 1.415 . S
C620 H596 0.950 . S
C620 C615 1.363 . S
C620 C619 1.415 . S
C621 H597 0.951 . S
C621 C622 1.366 . S
C621 C623 1.388 . S
C622 C621 1.366 . S
C622 C626 1.385 . S
C623 H598 0.951 . S
C623 C621 1.388 . S
C623 C624 1.366 . S
C624 C623 1.366 . S
C624 C625 1.414 . S
C624 C627 1.499 . S
C625 H599 0.950 . S
C625 C624 1.414 . S
C625 C626 1.374 . S
C626 H600 0.950 . S
C626 C622 1.385 . S
C626 C625 1.374 . S
C627 C624 1.499 . S
C627 C628 1.373 . S
C627 C629 1.389 . S
C628 H601 0.950 . S
C628 C614 1.377 . S
C628 C627 1.373 . S
C629 C613 1.377 . S
C629 C627 1.389 . S
C629 C630 1.524 . S
C630 C629 1.524 . S
C630 C631 1.397 . S
C630 C635 1.363 . S
C631 H602 0.950 . S
C631 C630 1.397 . S
C631 C632 1.334 . S
C632 H603 0.950 . S
C632 C631 1.334 . S
C632 C633 1.287 . S
C633 C632 1.287 . S
C633 C634 1.524 . S
C633 H636 0.999 . S
C634 H604 0.950 . S
C634 C633 1.524 . S
C634 C635 1.415 . S
C635 H605 0.950 . S
C635 C630 1.363 . S
C635 C634 1.415 . S
H636 C633 0.999 . S
H637 C618 0.913 . S
H638 C656 0.951 . S
H639 C658 0.951 . S
H640 C660 0.950 . S
H641 C661 0.950 . S
H642 C663 0.950 . S
H643 C666 0.950 . S
H644 C667 0.950 . S
H645 C669 0.950 . S
H646 C670 0.950 . S
H647 C671 0.951 . S
H648 C673 0.951 . S
H649 C675 0.950 . S
H650 C676 0.950 . S
H651 C678 0.950 . S
H652 C681 0.950 . S
H653 C682 0.950 . S
H654 C684 0.950 . S
H655 C685 0.950 . S
C656 H638 0.951 . S
C656 C657 1.366 . S
C656 C658 1.388 . S
C657 C656 1.366 . S
C657 C661 1.385 . S
C658 H639 0.951 . S
C658 C656 1.388 . S
C658 C659 1.366 . S
C659 C658 1.366 . S
C659 C660 1.414 . S
C659 C662 1.499 . S
C660 H640 0.950 . S
C660 C659 1.414 . S
C660 C661 1.374 . S
C661 H641 0.950 . S
C661 C657 1.385 . S
C661 C660 1.374 . S
C662 C659 1.499 . S
C662 C663 1.373 . S
C662 C664 1.389 . S
C663 H642 0.950 . S
C663 C662 1.373 . S
C663 C679 1.377 . S
C664 C662 1.389 . S
C664 C665 1.524 . S
C664 C678 1.377 . S
C665 C664 1.524 . S
C665 C666 1.397 . S
C665 C670 1.363 . S
C666 H643 0.950 . S
C666 C665 1.397 . S
C666 C667 1.334 . S
C667 H644 0.950 . S
C667 C666 1.334 . S
C667 C668 1.287 . S
C668 C667 1.287 . S
C668 C669 1.524 . S
C668 H687 0.913 . S
C669 H645 0.950 . S
C669 C668 1.524 . S
C669 C670 1.415 . S
C670 H646 0.950 . S
C670 C665 1.363 . S
C670 C669 1.415 . S
C671 H647 0.951 . S
C671 C672 1.366 . S
C671 C673 1.388 . S
C672 C671 1.366 . S
C672 C676 1.385 . S
C673 H648 0.951 . S
C673 C671 1.388 . S
C673 C674 1.366 . S
C674 C673 1.366 . S
C674 C675 1.414 . S
C674 C677 1.499 . S
C675 H649 0.950 . S
C675 C674 1.414 . S
C675 C676 1.374 . S
C676 H650 0.950 . S
C676 C672 1.385 . S
C676 C675 1.374 . S
C677 C674 1.499 . S
C677 C678 1.373 . S
C677 C679 1.389 . S
C678 H651 0.950 . S
C678 C664 1.377 . S
C678 C677 1.373 . S
C679 C663 1.377 . S
C679 C677 1.389 . S
C679 C680 1.524 . S
C680 C679 1.524 . S
C680 C681 1.397 . S
C680 C685 1.363 . S
C681 H652 0.950 . S
C681 C680 1.397 . S
C681 C682 1.334 . S
C682 H653 0.950 . S
C682 C681 1.334 . S
C682 C683 1.287 . S
C683 C682 1.287 . S
C683 C684 1.524 . S
C683 H686 0.999 . S
C684 H654 0.950 . S
C684 C683 1.524 . S
C684 C685 1.415 . S
C685 H655 0.950 . S
C685 C680 1.363 . S
C685 C684 1.415 . S
H686 C683 0.999 . S
H687 C668 0.913 . S
H688 C706 0.951 . S
H689 C708 0.951 . S
H690 C710 0.950 . S
H691 C711 0.950 . S
H692 C713 0.950 . S
H693 C716 0.950 . S
H694 C717 0.950 . S
H695 C719 0.950 . S
H696 C720 0.950 . S
H697 C721 0.951 . S
H698 C723 0.951 . S
H699 C725 0.950 . S
H700 C726 0.950 . S
H701 C728 0.950 . S
H702 C731 0.950 . S
H703 C732 0.950 . S
H704 C734 0.950 . S
H705 C735 0.950 . S
C706 H688 0.951 . S
C706 C707 1.366 . S
C706 C708 1.388 . S
C707 C706 1.366 . S
C707 C711 1.385 . S
C708 H689 0.951 . S
C708 C706 1.388 . S
C708 C709 1.366 . S
C709 C708 1.366 . S
C709 C710 1.414 . S
C709 C712 1.499 . S
C710 H690 0.950 . S
C710 C709 1.414 . S
C710 C711 1.374 . S
C711 H691 0.950 . S
C711 C707 1.385 . S
C711 C710 1.374 . S
C712 C709 1.499 . S
C712 C713 1.373 . S
C712 C714 1.389 . S
C713 H692 0.950 . S
C713 C712 1.373 . S
C713 C729 1.377 . S
C714 C712 1.389 . S
C714 C715 1.524 . S
C714 C728 1.377 . S
C715 C714 1.524 . S
C715 C716 1.397 . S
C715 C720 1.363 . S
C716 H693 0.950 . S
C716 C715 1.397 . S
C716 C717 1.334 . S
C717 H694 0.950 . S
C717 C716 1.334 . S
C717 C718 1.287 . S
C718 C717 1.287 . S
C718 C719 1.524 . S
C718 H737 0.913 . S
C719 H695 0.950 . S
C719 C718 1.524 . S
C719 C720 1.415 . S
C720 H696 0.950 . S
C720 C715 1.363 . S
C720 C719 1.415 . S
C721 H697 0.951 . S
C721 C722 1.366 . S
C721 C723 1.388 . S
C722 C721 1.366 . S
C722 C726 1.385 . S
C723 H698 0.951 . S
C723 C721 1.388 . S
C723 C724 1.366 . S
C724 C723 1.366 . S
C724 C725 1.414 . S
C724 C727 1.499 . S
C725 H699 0.950 . S
C725 C724 1.414 . S
C725 C726 1.374 . S
C726 H700 0.950 . S
C726 C722 1.385 . S
C726 C725 1.374 . S
C727 C724 1.499 . S
C727 C728 1.373 . S
C727 C729 1.389 . S
C728 H701 0.950 . S
C728 C714 1.377 . S
C728 C727 1.373 . S
C729 C713 1.377 . S
C729 C727 1.389 . S
C729 C730 1.524 . S
C730 C729 1.524 . S
C730 C731 1.397 . S
C730 C735 1.363 . S
C731 H702 0.950 . S
C731 C730 1.397 . S
C731 C732 1.334 . S
C732 H703 0.950 . S
C732 C731 1.334 . S
C732 C733 1.287 . S
C733 C732 1.287 . S
C733 C734 1.524 . S
C733 H736 0.999 . S
C734 H704 0.950 . S
C734 C733 1.524 . S
C734 C735 1.415 . S
C735 H705 0.950 . S
C735 C730 1.363 . S
C735 C734 1.415 . S
H736 C733 0.999 . S
H737 C718 0.913 . S
H738 C756 0.951 . S
H739 C758 0.951 . S
H740 C760 0.950 . S
H741 C761 0.950 . S
H742 C763 0.950 . S
H743 C766 0.950 . S
H744 C767 0.950 . S
H745 C769 0.950 . S
H746 C770 0.950 . S
H747 C771 0.951 . S
H748 C773 0.951 . S
H749 C775 0.950 . S
H750 C776 0.950 . S
H751 C778 0.950 . S
H752 C781 0.950 . S
H753 C782 0.950 . S
H754 C784 0.950 . S
H755 C785 0.950 . S
C756 H738 0.951 . S
C756 C757 1.366 . S
C756 C758 1.388 . S
C757 C756 1.366 . S
C757 C761 1.385 . S
C758 H739 0.951 . S
C758 C756 1.388 . S
C758 C759 1.366 . S
C759 C758 1.366 . S
C759 C760 1.414 . S
C759 C762 1.499 . S
C760 H740 0.950 . S
C760 C759 1.414 . S
C760 C761 1.374 . S
C761 H741 0.950 . S
C761 C757 1.385 . S
C761 C760 1.374 . S
C762 C759 1.499 . S
C762 C763 1.373 . S
C762 C764 1.389 . S
C763 H742 0.950 . S
C763 C762 1.373 . S
C763 C779 1.377 . S
C764 C762 1.389 . S
C764 C765 1.524 . S
C764 C778 1.377 . S
C765 C764 1.524 . S
C765 C766 1.397 . S
C765 C770 1.363 . S
C766 H743 0.950 . S
C766 C765 1.397 . S
C766 C767 1.334 . S
C767 H744 0.950 . S
C767 C766 1.334 . S
C767 C768 1.287 . S
C768 C767 1.287 . S
C768 C769 1.524 . S
C768 H787 0.913 . S
C769 H745 0.950 . S
C769 C768 1.524 . S
C769 C770 1.415 . S
C770 H746 0.950 . S
C770 C765 1.363 . S
C770 C769 1.415 . S
C771 H747 0.951 . S
C771 C772 1.366 . S
C771 C773 1.388 . S
C772 C771 1.366 . S
C772 C776 1.385 . S
C773 H748 0.951 . S
C773 C771 1.388 . S
C773 C774 1.366 . S
C774 C773 1.366 . S
C774 C775 1.414 . S
C774 C777 1.499 . S
C775 H749 0.950 . S
C775 C774 1.414 . S
C775 C776 1.374 . S
C776 H750 0.950 . S
C776 C772 1.385 . S
C776 C775 1.374 . S
C777 C774 1.499 . S
C777 C778 1.373 . S
C777 C779 1.389 . S
C778 H751 0.950 . S
C778 C764 1.377 . S
C778 C777 1.373 . S
C779 C763 1.377 . S
C779 C777 1.389 . S
C779 C780 1.524 . S
C780 C779 1.524 . S
C780 C781 1.397 . S
C780 C785 1.363 . S
C781 H752 0.950 . S
C781 C780 1.397 . S
C781 C782 1.334 . S
C782 H753 0.950 . S
C782 C781 1.334 . S
C782 C783 1.287 . S
C783 C782 1.287 . S
C783 C784 1.524 . S
C783 H786 0.999 . S
C784 H754 0.950 . S
C784 C783 1.524 . S
C784 C785 1.415 . S
C785 H755 0.950 . S
C785 C780 1.363 . S
C785 C784 1.415 . S
H786 C783 0.999 . S
H787 C768 0.913 . S
H788 C806 0.951 . S
H789 C808 0.951 . S
H790 C810 0.950 . S
H791 C811 0.950 . S
H792 C813 0.950 . S
H793 C816 0.950 . S
H794 C817 0.950 . S
H795 C819 0.950 . S
H796 C820 0.950 . S
H797 C821 0.951 . S
H798 C823 0.951 . S
H799 C825 0.950 . S
H800 C826 0.950 . S
H801 C828 0.950 . S
H802 C831 0.950 . S
H803 C832 0.950 . S
H804 C834 0.950 . S
H805 C835 0.950 . S
C806 H788 0.951 . S
C806 C807 1.366 . S
C806 C808 1.388 . S
C807 C806 1.366 . S
C807 C811 1.385 . S
C808 H789 0.951 . S
C808 C806 1.388 . S
C808 C809 1.366 . S
C809 C808 1.366 . S
C809 C810 1.414 . S
C809 C812 1.499 . S
C810 H790 0.950 . S
C810 C809 1.414 . S
C810 C811 1.374 . S
C811 H791 0.950 . S
C811 C807 1.385 . S
C811 C810 1.374 . S
C812 C809 1.499 . S
C812 C813 1.373 . S
C812 C814 1.389 . S
C813 H792 0.950 . S
C813 C812 1.373 . S
C813 C829 1.377 . S
C814 C812 1.389 . S
C814 C815 1.524 . S
C814 C828 1.377 . S
C815 C814 1.524 . S
C815 C816 1.397 . S
C815 C820 1.363 . S
C816 H793 0.950 . S
C816 C815 1.397 . S
C816 C817 1.334 1_556 S
C817 H794 0.950 . S
C817 C816 1.334 1_554 S
C817 C818 1.287 . S
C818 C817 1.287 . S
C818 C819 1.524 1_554 S
C818 H837 0.913 . S
C819 H795 0.950 . S
C819 C818 1.524 1_556 S
C819 C820 1.415 . S
C820 H796 0.950 . S
C820 C815 1.363 . S
C820 C819 1.415 . S
C821 H797 0.951 . S
C821 C822 1.366 . S
C821 C823 1.388 . S
C822 C821 1.366 . S
C822 C826 1.385 . S
C823 H798 0.951 . S
C823 C821 1.388 . S
C823 C824 1.366 . S
C824 C823 1.366 . S
C824 C825 1.414 . S
C824 C827 1.499 . S
C825 H799 0.950 . S
C825 C824 1.414 . S
C825 C826 1.374 . S
C826 H800 0.950 . S
C826 C822 1.385 . S
C826 C825 1.374 . S
C827 C824 1.499 . S
C827 C828 1.373 . S
C827 C829 1.389 . S
C828 H801 0.950 . S
C828 C814 1.377 . S
C828 C827 1.373 . S
C829 C813 1.377 . S
C829 C827 1.389 . S
C829 C830 1.524 . S
C830 C829 1.524 . S
C830 C831 1.397 . S
C830 C835 1.363 . S
C831 H802 0.950 . S
C831 C830 1.397 . S
C831 C832 1.334 . S
C832 H803 0.950 . S
C832 C831 1.334 . S
C832 C833 1.287 . S
C833 C832 1.287 . S
C833 C834 1.524 . S
C833 H836 0.999 . S
C834 H804 0.950 . S
C834 C833 1.524 . S
C834 C835 1.415 . S
C835 H805 0.950 . S
C835 C830 1.363 . S
C835 C834 1.415 . S
H836 C833 0.999 . S
H837 C818 0.913 . S
H838 C856 0.951 . S
H839 C858 0.951 . S
H840 C860 0.950 . S
H841 C861 0.950 . S
H842 C863 0.950 . S
H843 C866 0.950 . S
H844 C867 0.950 . S
H845 C869 0.950 . S
H846 C870 0.950 . S
H847 C871 0.951 . S
H848 C873 0.951 . S
H849 C875 0.950 . S
H850 C876 0.950 . S
H851 C878 0.950 . S
H852 C881 0.950 . S
H853 C882 0.950 . S
H854 C884 0.950 . S
H855 C885 0.950 . S
C856 H838 0.951 . S
C856 C857 1.366 . S
C856 C858 1.388 . S
C857 C856 1.366 . S
C857 C861 1.385 . S
C858 H839 0.951 . S
C858 C856 1.388 . S
C858 C859 1.366 . S
C859 C858 1.366 . S
C859 C860 1.414 . S
C859 C862 1.499 . S
C860 H840 0.950 . S
C860 C859 1.414 . S
C860 C861 1.374 . S
C861 H841 0.950 . S
C861 C857 1.385 . S
C861 C860 1.374 . S
C862 C859 1.499 . S
C862 C863 1.373 . S
C862 C864 1.389 . S
C863 H842 0.950 . S
C863 C862 1.373 . S
C863 C879 1.377 . S
C864 C862 1.389 . S
C864 C865 1.524 . S
C864 C878 1.377 . S
C865 C864 1.524 . S
C865 C866 1.397 . S
C865 C870 1.363 . S
C866 H843 0.950 . S
C866 C865 1.397 . S
C866 C867 1.334 . S
C867 H844 0.950 . S
C867 C866 1.334 . S
C867 C868 1.287 . S
C868 C867 1.287 . S
C868 C869 1.524 . S
C868 H887 0.913 . S
C869 H845 0.950 . S
C869 C868 1.524 . S
C869 C870 1.415 . S
C870 H846 0.950 . S
C870 C865 1.363 . S
C870 C869 1.415 . S
C871 H847 0.951 . S
C871 C872 1.366 . S
C871 C873 1.388 . S
C872 C871 1.366 . S
C872 C876 1.385 . S
C873 H848 0.951 . S
C873 C871 1.388 . S
C873 C874 1.366 . S
C874 C873 1.366 . S
C874 C875 1.414 . S
C874 C877 1.499 . S
C875 H849 0.950 . S
C875 C874 1.414 . S
C875 C876 1.374 . S
C876 H850 0.950 . S
C876 C872 1.385 . S
C876 C875 1.374 . S
C877 C874 1.499 . S
C877 C878 1.373 . S
C877 C879 1.389 . S
C878 H851 0.950 . S
C878 C864 1.377 . S
C878 C877 1.373 . S
C879 C863 1.377 . S
C879 C877 1.389 . S
C879 C880 1.524 . S
C880 C879 1.524 . S
C880 C881 1.397 . S
C880 C885 1.363 . S
C881 H852 0.950 . S
C881 C880 1.397 . S
C881 C882 1.334 . S
C882 H853 0.950 . S
C882 C881 1.334 . S
C882 C883 1.287 . S
C883 C882 1.287 . S
C883 C884 1.524 . S
C883 H886 0.999 . S
C884 H854 0.950 . S
C884 C883 1.524 . S
C884 C885 1.415 . S
C885 H855 0.950 . S
C885 C880 1.363 . S
C885 C884 1.415 . S
H886 C883 0.999 . S
H887 C868 0.913 . S
H888 C906 0.951 . S
H889 C908 0.951 . S
H890 C910 0.950 . S
H891 C911 0.950 . S
H892 C913 0.950 . S
H893 C916 0.950 . S
H894 C917 0.950 . S
H895 C919 0.950 . S
H896 C920 0.950 . S
H897 C921 0.951 . S
H898 C923 0.951 . S
H899 C925 0.950 . S
H900 C926 0.950 . S
H901 C928 0.950 . S
H902 C931 0.950 . S
H903 C932 0.950 . S
H904 C934 0.950 . S
H905 C935 0.950 . S
C906 H888 0.951 . S
C906 C907 1.366 . S
C906 C908 1.388 . S
C907 C906 1.366 . S
C907 C911 1.385 . S
C908 H889 0.951 . S
C908 C906 1.388 . S
C908 C909 1.366 . S
C909 C908 1.366 . S
C909 C910 1.414 . S
C909 C912 1.499 . S
C910 H890 0.950 . S
C910 C909 1.414 . S
C910 C911 1.374 . S
C911 H891 0.950 . S
C911 C907 1.385 . S
C911 C910 1.374 . S
C912 C909 1.499 . S
C912 C913 1.373 . S
C912 C914 1.389 . S
C913 H892 0.950 . S
C913 C912 1.373 . S
C913 C929 1.377 . S
C914 C912 1.389 . S
C914 C915 1.524 . S
C914 C928 1.377 . S
C915 C914 1.524 . S
C915 C916 1.397 . S
C915 C920 1.363 . S
C916 H893 0.950 . S
C916 C915 1.397 . S
C916 C917 1.334 . S
C917 H894 0.950 . S
C917 C916 1.334 . S
C917 C918 1.287 . S
C918 C917 1.287 . S
C918 C919 1.524 . S
C918 H937 0.913 . S
C919 H895 0.950 . S
C919 C918 1.524 . S
C919 C920 1.415 . S
C920 H896 0.950 . S
C920 C915 1.363 . S
C920 C919 1.415 . S
C921 H897 0.951 . S
C921 C922 1.366 . S
C921 C923 1.388 . S
C922 C921 1.366 . S
C922 C926 1.385 . S
C923 H898 0.951 . S
C923 C921 1.388 . S
C923 C924 1.366 . S
C924 C923 1.366 . S
C924 C925 1.414 . S
C924 C927 1.499 . S
C925 H899 0.950 . S
C925 C924 1.414 . S
C925 C926 1.374 . S
C926 H900 0.950 . S
C926 C922 1.385 . S
C926 C925 1.374 . S
C927 C924 1.499 . S
C927 C928 1.373 . S
C927 C929 1.389 . S
C928 H901 0.950 . S
C928 C914 1.377 . S
C928 C927 1.373 . S
C929 C913 1.377 . S
C929 C927 1.389 . S
C929 C930 1.524 . S
C930 C929 1.524 . S
C930 C931 1.397 . S
C930 C935 1.363 . S
C931 H902 0.950 . S
C931 C930 1.397 . S
C931 C932 1.334 . S
C932 H903 0.950 . S
C932 C931 1.334 . S
C932 C933 1.287 . S
C933 C932 1.287 . S
C933 C934 1.524 . S
C933 H936 0.999 . S
C934 H904 0.950 . S
C934 C933 1.524 . S
C934 C935 1.415 . S
C935 H905 0.950 . S
C935 C930 1.363 . S
C935 C934 1.415 . S
H936 C933 0.999 . S
H937 C918 0.913 . S
H938 C956 0.951 . S
H939 C958 0.951 . S
H940 C960 0.950 . S
H941 C961 0.950 . S
H942 C963 0.950 . S
H943 C966 0.950 . S
H944 C967 0.950 . S
H945 C969 0.950 . S
H946 C970 0.950 . S
H947 C971 0.951 . S
H948 C973 0.951 . S
H949 C975 0.950 . S
H950 C976 0.950 . S
H951 C978 0.950 . S
H952 C981 0.950 . S
H953 C982 0.950 . S
H954 C984 0.950 . S
H955 C985 0.950 . S
C956 H938 0.951 . S
C956 C957 1.366 . S
C956 C958 1.388 . S
C957 C956 1.366 . S
C957 C961 1.385 . S
C958 H939 0.951 . S
C958 C956 1.388 . S
C958 C959 1.366 . S
C959 C958 1.366 . S
C959 C960 1.414 . S
C959 C962 1.499 . S
C960 H940 0.950 . S
C960 C959 1.414 . S
C960 C961 1.374 . S
C961 H941 0.950 . S
C961 C957 1.385 . S
C961 C960 1.374 . S
C962 C959 1.499 . S
C962 C963 1.373 . S
C962 C964 1.389 . S
C963 H942 0.950 . S
C963 C962 1.373 . S
C963 C979 1.377 . S
C964 C962 1.389 . S
C964 C965 1.524 . S
C964 C978 1.377 . S
C965 C964 1.524 . S
C965 C966 1.397 . S
C965 C970 1.363 . S
C966 H943 0.950 . S
C966 C965 1.397 . S
C966 C967 1.334 . S
C967 H944 0.950 . S
C967 C966 1.334 . S
C967 C968 1.287 . S
C968 C967 1.287 . S
C968 C969 1.524 . S
C968 H987 0.913 . S
C969 H945 0.950 . S
C969 C968 1.524 . S
C969 C970 1.415 . S
C970 H946 0.950 . S
C970 C965 1.363 . S
C970 C969 1.415 . S
C971 H947 0.951 . S
C971 C972 1.366 . S
C971 C973 1.388 . S
C972 C971 1.366 . S
C972 C976 1.385 . S
C973 H948 0.951 . S
C973 C971 1.388 . S
C973 C974 1.366 . S
C974 C973 1.366 . S
C974 C975 1.414 . S
C974 C977 1.499 . S
C975 H949 0.950 . S
C975 C974 1.414 . S
C975 C976 1.374 . S
C976 H950 0.950 . S
C976 C972 1.385 . S
C976 C975 1.374 . S
C977 C974 1.499 . S
C977 C978 1.373 . S
C977 C979 1.389 . S
C978 H951 0.950 . S
C978 C964 1.377 . S
C978 C977 1.373 . S
C979 C963 1.377 . S
C979 C977 1.389 . S
C979 C980 1.524 . S
C980 C979 1.524 . S
C980 C981 1.397 . S
C980 C985 1.363 . S
C981 H952 0.950 . S
C981 C980 1.397 . S
C981 C982 1.334 . S
C982 H953 0.950 . S
C982 C981 1.334 . S
C982 C983 1.287 . S
C983 C982 1.287 . S
C983 C984 1.524 . S
C983 H986 0.999 . S
C984 H954 0.950 . S
C984 C983 1.524 . S
C984 C985 1.415 . S
C985 H955 0.950 . S
C985 C980 1.363 . S
C985 C984 1.415 . S
H986 C983 0.999 . S
H987 C968 0.913 . S
H988 C1006 0.951 . S
H989 C1008 0.951 . S
H990 C1010 0.950 . S
H991 C1011 0.950 . S
H992 C1013 0.950 . S
H993 C1016 0.950 . S
H994 C1017 0.950 . S
H995 C1019 0.950 . S
H996 C1020 0.950 . S
H997 C1021 0.951 . S
H998 C1023 0.951 . S
H999 C1025 0.950 . S
H1000 C1026 0.950 . S
H1001 C1028 0.950 . S
H1002 C1031 0.950 . S
H1003 C1032 0.950 . S
H1004 C1034 0.950 . S
H1005 C1035 0.950 . S
C1006 H988 0.951 . S
C1006 C1007 1.366 . S
C1006 C1008 1.388 . S
C1007 C1006 1.366 . S
C1007 C1011 1.385 . S
C1008 H989 0.951 . S
C1008 C1006 1.388 . S
C1008 C1009 1.366 . S
C1009 C1008 1.366 . S
C1009 C1010 1.414 . S
C1009 C1012 1.499 . S
C1010 H990 0.950 . S
C1010 C1009 1.414 . S
C1010 C1011 1.374 . S
C1011 H991 0.950 . S
C1011 C1007 1.385 . S
C1011 C1010 1.374 . S
C1012 C1009 1.499 . S
C1012 C1013 1.373 . S
C1012 C1014 1.389 . S
C1013 H992 0.950 . S
C1013 C1012 1.373 . S
C1013 C1029 1.377 . S
C1014 C1012 1.389 . S
C1014 C1015 1.524 . S
C1014 C1028 1.377 . S
C1015 C1014 1.524 . S
C1015 C1016 1.397 . S
C1015 C1020 1.363 . S
C1016 H993 0.950 . S
C1016 C1015 1.397 . S
C1016 C1017 1.334 . S
C1017 H994 0.950 . S
C1017 C1016 1.334 . S
C1017 C1018 1.287 . S
C1018 C1017 1.287 . S
C1018 C1019 1.524 . S
C1018 H1037 0.913 . S
C1019 H995 0.950 . S
C1019 C1018 1.524 . S
C1019 C1020 1.415 . S
C1020 H996 0.950 . S
C1020 C1015 1.363 . S
C1020 C1019 1.415 . S
C1021 H997 0.951 . S
C1021 C1022 1.366 . S
C1021 C1023 1.388 . S
C1022 C1021 1.366 . S
C1022 C1026 1.385 . S
C1023 H998 0.951 . S
C1023 C1021 1.388 . S
C1023 C1024 1.366 . S
C1024 C1023 1.366 . S
C1024 C1025 1.414 . S
C1024 C1027 1.499 . S
C1025 H999 0.950 . S
C1025 C1024 1.414 . S
C1025 C1026 1.374 . S
C1026 H1000 0.950 . S
C1026 C1022 1.385 . S
C1026 C1025 1.374 . S
C1027 C1024 1.499 . S
C1027 C1028 1.373 . S
C1027 C1029 1.389 . S
C1028 H1001 0.950 . S
C1028 C1014 1.377 . S
C1028 C1027 1.373 . S
C1029 C1013 1.377 . S
C1029 C1027 1.389 . S
C1029 C1030 1.524 . S
C1030 C1029 1.524 . S
C1030 C1031 1.397 . S
C1030 C1035 1.363 . S
C1031 H1002 0.950 . S
C1031 C1030 1.397 . S
C1031 C1032 1.334 . S
C1032 H1003 0.950 . S
C1032 C1031 1.334 . S
C1032 C1033 1.287 . S
C1033 C1032 1.287 . S
C1033 C1034 1.524 . S
C1033 H1036 0.999 . S
C1034 H1004 0.950 . S
C1034 C1033 1.524 . S
C1034 C1035 1.415 . S
C1035 H1005 0.950 . S
C1035 C1030 1.363 . S
C1035 C1034 1.415 . S
H1036 C1033 0.999 . S
H1037 C1018 0.913 . S
H1038 C1056 0.905 1_556 S
H1039 C1058 0.951 . S
H1040 C1060 0.950 . S
H1041 C1061 0.950 . S
H1042 C1063 0.950 . S
H1043 C1066 0.950 . S
H1044 C1067 0.950 . S
H1045 C1069 0.950 . S
H1046 C1070 0.950 . S
H1047 C1071 0.951 . S
H1048 C1073 0.951 . S
H1049 C1075 0.950 . S
H1050 C1076 0.950 . S
H1051 C1078 0.950 . S
H1052 C1081 0.950 . S
H1053 C1082 0.950 . S
H1054 C1084 0.950 . S
H1055 C1085 0.950 . S
C1056 H1038 0.905 1_554 S
C1056 C1057 1.366 . S
C1056 C1058 1.388 . S
C1057 C1056 1.366 . S
C1057 C1061 1.385 . S
C1058 H1039 0.951 . S
C1058 C1056 1.388 . S
C1058 C1059 1.366 . S
C1059 C1058 1.366 . S
C1059 C1060 1.414 . S
C1059 C1062 1.499 . S
C1060 H1040 0.950 . S
C1060 C1059 1.414 . S
C1060 C1061 1.374 . S
C1061 H1041 0.950 . S
C1061 C1057 1.385 . S
C1061 C1060 1.374 . S
C1062 C1059 1.499 . S
C1062 C1063 1.373 . S
C1062 C1064 1.389 . S
C1063 H1042 0.950 . S
C1063 C1062 1.373 . S
C1063 C1079 1.377 . S
C1064 C1062 1.389 . S
C1064 C1065 1.524 . S
C1064 C1078 1.377 . S
C1065 C1064 1.524 . S
C1065 C1066 1.397 . S
C1065 C1070 1.363 . S
C1066 H1043 0.950 . S
C1066 C1065 1.397 . S
C1066 C1067 1.334 . S
C1067 H1044 0.950 . S
C1067 C1066 1.334 . S
C1067 C1068 1.287 . S
C1068 C1067 1.287 . S
C1068 C1069 1.524 . S
C1068 H1087 0.913 . S
C1069 H1045 0.950 . S
C1069 C1068 1.524 . S
C1069 C1070 1.415 . S
C1070 H1046 0.950 . S
C1070 C1065 1.363 . S
C1070 C1069 1.415 . S
C1071 H1047 0.951 . S
C1071 C1072 1.366 . S
C1071 C1073 1.388 . S
C1072 C1071 1.366 . S
C1072 C1076 1.385 . S
C1073 H1048 0.951 . S
C1073 C1071 1.388 . S
C1073 C1074 1.366 . S
C1074 C1073 1.366 . S
C1074 C1075 1.414 . S
C1074 C1077 1.499 . S
C1075 H1049 0.950 . S
C1075 C1074 1.414 . S
C1075 C1076 1.374 . S
C1076 H1050 0.950 . S
C1076 C1072 1.385 . S
C1076 C1075 1.374 . S
C1077 C1074 1.499 . S
C1077 C1078 1.373 . S
C1077 C1079 1.389 . S
C1078 H1051 0.950 . S
C1078 C1064 1.377 . S
C1078 C1077 1.373 . S
C1079 C1063 1.377 . S
C1079 C1077 1.389 . S
C1079 C1080 1.524 . S
C1080 C1079 1.524 . S
C1080 C1081 1.397 . S
C1080 C1085 1.363 . S
C1081 H1052 0.950 . S
C1081 C1080 1.397 . S
C1081 C1082 1.334 . S
C1082 H1053 0.950 . S
C1082 C1081 1.334 . S
C1082 C1083 1.287 . S
C1083 C1082 1.287 . S
C1083 C1084 1.524 . S
C1083 H1086 0.999 . S
C1084 H1054 0.950 . S
C1084 C1083 1.524 . S
C1084 C1085 1.415 . S
C1085 H1055 0.950 . S
C1085 C1080 1.363 . S
C1085 C1084 1.415 . S
H1086 C1083 0.999 . S
H1087 C1068 0.913 . S
H1088 C1106 0.951 . S
H1089 C1108 0.951 . S
H1090 C1110 0.950 . S
H1091 C1111 0.950 . S
H1092 C1113 0.950 . S
H1093 C1116 0.950 . S
H1094 C1117 0.950 . S
H1095 C1119 0.950 . S
H1096 C1120 0.950 . S
H1097 C1121 0.951 . S
H1098 C1123 0.951 . S
H1099 C1125 0.950 . S
H1100 C1126 0.950 . S
H1101 C1128 0.950 . S
H1102 C1131 0.950 . S
H1103 C1132 0.950 . S
H1104 C1134 0.950 . S
H1105 C1135 0.950 . S
C1106 H1088 0.951 . S
C1106 C1107 1.366 . S
C1106 C1108 1.388 . S
C1107 C1106 1.366 . S
C1107 C1111 1.385 . S
C1108 H1089 0.951 . S
C1108 C1106 1.388 . S
C1108 C1109 1.366 . S
C1109 C1108 1.366 . S
C1109 C1110 1.414 . S
C1109 C1112 1.499 . S
C1110 H1090 0.950 . S
C1110 C1109 1.414 . S
C1110 C1111 1.374 . S
C1111 H1091 0.950 . S
C1111 C1107 1.385 . S
C1111 C1110 1.374 . S
C1112 C1109 1.499 . S
C1112 C1113 1.373 . S
C1112 C1114 1.389 . S
C1113 H1092 0.950 . S
C1113 C1112 1.373 . S
C1113 C1129 1.377 . S
C1114 C1112 1.389 . S
C1114 C1115 1.524 . S
C1114 C1128 1.377 . S
C1115 C1114 1.524 . S
C1115 C1116 1.397 . S
C1115 C1120 1.363 . S
C1116 H1093 0.950 . S
C1116 C1115 1.397 . S
C1116 C1117 1.334 . S
C1117 H1094 0.950 . S
C1117 C1116 1.334 . S
C1117 C1118 1.287 . S
C1118 C1117 1.287 . S
C1118 C1119 1.524 . S
C1118 H1137 0.913 . S
C1119 H1095 0.950 . S
C1119 C1118 1.524 . S
C1119 C1120 1.415 . S
C1120 H1096 0.950 . S
C1120 C1115 1.363 . S
C1120 C1119 1.415 . S
C1121 H1097 0.951 . S
C1121 C1122 1.366 . S
C1121 C1123 1.388 . S
C1122 C1121 1.366 . S
C1122 C1126 1.385 . S
C1123 H1098 0.951 . S
C1123 C1121 1.388 . S
C1123 C1124 1.366 . S
C1124 C1123 1.366 . S
C1124 C1125 1.414 . S
C1124 C1127 1.499 . S
C1125 H1099 0.950 . S
C1125 C1124 1.414 . S
C1125 C1126 1.374 . S
C1126 H1100 0.950 . S
C1126 C1122 1.385 . S
C1126 C1125 1.374 . S
C1127 C1124 1.499 . S
C1127 C1128 1.373 . S
C1127 C1129 1.389 . S
C1128 H1101 0.950 . S
C1128 C1114 1.377 . S
C1128 C1127 1.373 . S
C1129 C1113 1.377 . S
C1129 C1127 1.389 . S
C1129 C1130 1.524 . S
C1130 C1129 1.524 . S
C1130 C1131 1.397 . S
C1130 C1135 1.363 . S
C1131 H1102 0.950 . S
C1131 C1130 1.397 . S
C1131 C1132 1.334 . S
C1132 H1103 0.950 . S
C1132 C1131 1.334 . S
C1132 C1133 1.287 . S
C1133 C1132 1.287 . S
C1133 C1134 1.524 . S
C1133 H1136 0.999 . S
C1134 H1104 0.950 . S
C1134 C1133 1.524 . S
C1134 C1135 1.415 . S
C1135 H1105 0.950 . S
C1135 C1130 1.363 . S
C1135 C1134 1.415 . S
H1136 C1133 0.999 . S
H1137 C1118 0.913 . S
H1138 C1156 0.951 . S
H1139 C1158 0.951 . S
H1140 C1160 0.950 . S
H1141 C1161 0.950 . S
H1142 C1163 0.950 . S
H1143 C1166 0.950 . S
H1144 C1167 0.950 . S
H1145 C1169 0.950 . S
H1146 C1170 0.950 . S
H1147 C1171 0.951 . S
H1148 C1173 0.951 . S
H1149 C1175 0.950 . S
H1150 C1176 0.950 . S
H1151 C1178 0.950 . S
H1152 C1181 0.950 . S
H1153 C1182 0.950 . S
H1154 C1184 0.950 . S
H1155 C1185 0.950 . S
C1156 H1138 0.951 . S
C1156 C1157 1.366 . S
C1156 C1158 1.388 . S
C1157 C1156 1.366 . S
C1157 C1161 1.385 . S
C1158 H1139 0.951 . S
C1158 C1156 1.388 . S
C1158 C1159 1.366 . S
C1159 C1158 1.366 . S
C1159 C1160 1.414 . S
C1159 C1162 1.499 . S
C1160 H1140 0.950 . S
C1160 C1159 1.414 . S
C1160 C1161 1.374 . S
C1161 H1141 0.950 . S
C1161 C1157 1.385 . S
C1161 C1160 1.374 . S
C1162 C1159 1.499 . S
C1162 C1163 1.373 . S
C1162 C1164 1.389 . S
C1163 H1142 0.950 . S
C1163 C1162 1.373 . S
C1163 C1179 1.377 . S
C1164 C1162 1.389 . S
C1164 C1165 1.524 . S
C1164 C1178 1.377 . S
C1165 C1164 1.524 . S
C1165 C1166 1.397 . S
C1165 C1170 1.363 . S
C1166 H1143 0.950 . S
C1166 C1165 1.397 . S
C1166 C1167 1.334 . S
C1167 H1144 0.950 . S
C1167 C1166 1.334 . S
C1167 C1168 1.287 . S
C1168 C1167 1.287 . S
C1168 C1169 1.524 . S
C1168 H1187 0.913 . S
C1169 H1145 0.950 . S
C1169 C1168 1.524 . S
C1169 C1170 1.415 . S
C1170 H1146 0.950 . S
C1170 C1165 1.363 . S
C1170 C1169 1.415 . S
C1171 H1147 0.951 . S
C1171 C1172 1.366 . S
C1171 C1173 1.388 . S
C1172 C1171 1.366 . S
C1172 C1176 1.385 . S
C1173 H1148 0.951 . S
C1173 C1171 1.388 . S
C1173 C1174 1.366 . S
C1174 C1173 1.366 . S
C1174 C1175 1.414 . S
C1174 C1177 1.499 . S
C1175 H1149 0.950 . S
C1175 C1174 1.414 . S
C1175 C1176 1.374 . S
C1176 H1150 0.950 . S
C1176 C1172 1.385 . S
C1176 C1175 1.374 . S
C1177 C1174 1.499 . S
C1177 C1178 1.373 . S
C1177 C1179 1.389 . S
C1178 H1151 0.950 . S
C1178 C1164 1.377 . S
C1178 C1177 1.373 . S
C1179 C1163 1.377 . S
C1179 C1177 1.389 . S
C1179 C1180 1.524 . S
C1180 C1179 1.524 . S
C1180 C1181 1.397 . S
C1180 C1185 1.363 . S
C1181 H1152 0.950 . S
C1181 C1180 1.397 . S
C1181 C1182 1.334 . S
C1182 H1153 0.950 . S
C1182 C1181 1.334 . S
C1182 C1183 1.287 . S
C1183 C1182 1.287 . S
C1183 C1184 1.524 . S
C1183 H1186 0.999 . S
C1184 H1154 0.950 . S
C1184 C1183 1.524 . S
C1184 C1185 1.415 . S
C1185 H1155 0.950 . S
C1185 C1180 1.363 . S
C1185 C1184 1.415 . S
H1186 C1183 0.999 . S
H1187 C1168 0.913 . S
H1188 C1206 0.951 . S
H1189 C1208 0.951 . S
H1190 C1210 0.950 . S
H1191 C1211 0.950 . S
H1192 C1213 0.950 . S
H1193 C1216 0.950 . S
H1194 C1217 0.950 . S
H1195 C1219 0.950 . S
H1196 C1220 0.950 . S
H1197 C1221 0.951 . S
H1198 C1223 0.951 . S
H1199 C1225 0.950 . S
H1200 C1226 0.950 . S
H1201 C1228 0.950 . S
H1202 C1231 0.950 . S
H1203 C1232 0.950 . S
H1204 C1234 0.950 . S
H1205 C1235 0.950 . S
C1206 H1188 0.951 . S
C1206 C1207 1.366 . S
C1206 C1208 1.388 . S
C1207 C1206 1.366 . S
C1207 C1211 1.385 . S
C1208 H1189 0.951 . S
C1208 C1206 1.388 . S
C1208 C1209 1.366 . S
C1209 C1208 1.366 . S
C1209 C1210 1.414 . S
C1209 C1212 1.499 . S
C1210 H1190 0.950 . S
C1210 C1209 1.414 . S
C1210 C1211 1.374 . S
C1211 H1191 0.950 . S
C1211 C1207 1.385 . S
C1211 C1210 1.374 . S
C1212 C1209 1.499 . S
C1212 C1213 1.373 . S
C1212 C1214 1.389 . S
C1213 H1192 0.950 . S
C1213 C1212 1.373 . S
C1213 C1229 1.377 . S
C1214 C1212 1.389 . S
C1214 C1215 1.524 . S
C1214 C1228 1.377 . S
C1215 C1214 1.524 . S
C1215 C1216 1.397 . S
C1215 C1220 1.363 . S
C1216 H1193 0.950 . S
C1216 C1215 1.397 . S
C1216 C1217 1.334 . S
C1217 H1194 0.950 . S
C1217 C1216 1.334 . S
C1217 C1218 1.287 . S
C1218 C1217 1.287 . S
C1218 C1219 1.524 . S
C1218 H1237 0.913 . S
C1219 H1195 0.950 . S
C1219 C1218 1.524 . S
C1219 C1220 1.415 . S
C1220 H1196 0.950 . S
C1220 C1215 1.363 . S
C1220 C1219 1.415 . S
C1221 H1197 0.951 . S
C1221 C1222 1.366 . S
C1221 C1223 1.388 . S
C1222 C1221 1.366 . S
C1222 C1226 1.385 . S
C1223 H1198 0.951 . S
C1223 C1221 1.388 . S
C1223 C1224 1.366 . S
C1224 C1223 1.366 . S
C1224 C1225 1.414 . S
C1224 C1227 1.499 . S
C1225 H1199 0.950 . S
C1225 C1224 1.414 . S
C1225 C1226 1.374 . S
C1226 H1200 0.950 . S
C1226 C1222 1.385 . S
C1226 C1225 1.374 . S
C1227 C1224 1.499 . S
C1227 C1228 1.373 . S
C1227 C1229 1.389 . S
C1228 H1201 0.950 . S
C1228 C1214 1.377 . S
C1228 C1227 1.373 . S
C1229 C1213 1.377 . S
C1229 C1227 1.389 . S
C1229 C1230 1.524 . S
C1230 C1229 1.524 . S
C1230 C1231 1.397 . S
C1230 C1235 1.363 . S
C1231 H1202 0.950 . S
C1231 C1230 1.397 . S
C1231 C1232 1.334 . S
C1232 H1203 0.950 . S
C1232 C1231 1.334 . S
C1232 C1233 1.287 . S
C1233 C1232 1.287 . S
C1233 C1234 1.524 . S
C1233 H1236 0.999 . S
C1234 H1204 0.950 . S
C1234 C1233 1.524 . S
C1234 C1235 1.415 . S
C1235 H1205 0.950 . S
C1235 C1230 1.363 . S
C1235 C1234 1.415 . S
H1236 C1233 0.999 . S
H1237 C1218 0.913 . S
H1238 C1256 0.951 . S
H1239 C1258 0.951 . S
H1240 C1260 0.950 . S
H1241 C1261 0.950 . S
H1242 C1263 0.950 . S
H1243 C1266 0.950 . S
H1244 C1267 0.950 . S
H1245 C1269 0.950 . S
H1246 C1270 0.950 . S
H1247 C1271 0.951 . S
H1248 C1273 0.951 . S
H1249 C1275 0.950 . S
H1250 C1276 0.950 . S
H1251 C1278 0.950 . S
H1252 C1281 0.950 . S
H1253 C1282 0.950 . S
H1254 C1284 0.950 . S
H1255 C1285 0.950 . S
C1256 H1238 0.951 . S
C1256 C1257 1.366 . S
C1256 C1258 1.388 . S
C1257 C1256 1.366 . S
C1257 C1261 1.385 . S
C1258 H1239 0.951 . S
C1258 C1256 1.388 . S
C1258 C1259 1.366 . S
C1259 C1258 1.366 . S
C1259 C1260 1.414 . S
C1259 C1262 1.499 . S
C1260 H1240 0.950 . S
C1260 C1259 1.414 . S
C1260 C1261 1.374 . S
C1261 H1241 0.950 . S
C1261 C1257 1.385 . S
C1261 C1260 1.374 . S
C1262 C1259 1.499 . S
C1262 C1263 1.373 . S
C1262 C1264 1.389 . S
C1263 H1242 0.950 . S
C1263 C1262 1.373 . S
C1263 C1279 1.377 . S
C1264 C1262 1.389 . S
C1264 C1265 1.524 . S
C1264 C1278 1.377 . S
C1265 C1264 1.524 . S
C1265 C1266 1.397 . S
C1265 C1270 1.363 . S
C1266 H1243 0.950 . S
C1266 C1265 1.397 . S
C1266 C1267 1.334 . S
C1267 H1244 0.950 . S
C1267 C1266 1.334 . S
C1267 C1268 1.287 . S
C1268 C1267 1.287 . S
C1268 C1269 1.524 . S
C1268 H1287 0.913 . S
C1269 H1245 0.950 . S
C1269 C1268 1.524 . S
C1269 C1270 1.415 . S
C1270 H1246 0.950 . S
C1270 C1265 1.363 . S
C1270 C1269 1.415 . S
C1271 H1247 0.951 . S
C1271 C1272 1.366 . S
C1271 C1273 1.388 . S
C1272 C1271 1.366 . S
C1272 C1276 1.385 . S
C1273 H1248 0.951 . S
C1273 C1271 1.388 . S
C1273 C1274 1.366 . S
C1274 C1273 1.366 . S
C1274 C1275 1.414 . S
C1274 C1277 1.499 . S
C1275 H1249 0.950 . S
C1275 C1274 1.414 . S
C1275 C1276 1.374 . S
C1276 H1250 0.950 . S
C1276 C1272 1.385 . S
C1276 C1275 1.374 . S
C1277 C1274 1.499 . S
C1277 C1278 1.373 . S
C1277 C1279 1.389 . S
C1278 H1251 0.950 . S
C1278 C1264 1.377 . S
C1278 C1277 1.373 . S
C1279 C1263 1.377 . S
C1279 C1277 1.389 . S
C1279 C1280 1.524 . S
C1280 C1279 1.524 . S
C1280 C1281 1.397 . S
C1280 C1285 1.363 . S
C1281 H1252 0.950 . S
C1281 C1280 1.397 . S
C1281 C1282 1.334 . S
C1282 H1253 0.950 . S
C1282 C1281 1.334 . S
C1282 C1283 1.287 . S
C1283 C1282 1.287 . S
C1283 C1284 1.524 . S
C1283 H1286 0.999 . S
C1284 H1254 0.950 . S
C1284 C1283 1.524 . S
C1284 C1285 1.415 . S
C1285 H1255 0.950 . S
C1285 C1280 1.363 . S
C1285 C1284 1.415 . S
H1286 C1283 0.999 . S
H1287 C1268 0.913 . S
H1288 C1306 0.951 . S
H1289 C1308 0.951 . S
H1290 C1310 0.950 . S
H1291 C1311 0.950 . S
H1292 C1313 0.950 . S
H1293 C1316 0.950 . S
H1294 C1317 0.950 . S
H1295 C1319 0.950 . S
H1296 C1320 0.950 . S
H1297 C1321 0.951 . S
H1298 C1323 0.951 . S
H1299 C1325 0.950 . S
H1300 C1326 0.950 . S
H1301 C1328 0.950 . S
H1302 C1331 0.950 . S
H1303 C1332 0.950 . S
H1304 C1334 0.950 . S
H1305 C1335 0.950 . S
C1306 H1288 0.951 . S
C1306 C1307 1.366 . S
C1306 C1308 1.388 . S
C1307 C1306 1.366 . S
C1307 C1311 1.385 . S
C1308 H1289 0.951 . S
C1308 C1306 1.388 . S
C1308 C1309 1.366 . S
C1309 C1308 1.366 . S
C1309 C1310 1.414 . S
C1309 C1312 1.499 . S
C1310 H1290 0.950 . S
C1310 C1309 1.414 . S
C1310 C1311 1.374 . S
C1311 H1291 0.950 . S
C1311 C1307 1.385 . S
C1311 C1310 1.374 . S
C1312 C1309 1.499 . S
C1312 C1313 1.373 . S
C1312 C1314 1.389 . S
C1313 H1292 0.950 . S
C1313 C1312 1.373 . S
C1313 C1329 1.377 . S
C1314 C1312 1.389 . S
C1314 C1315 1.524 . S
C1314 C1328 1.377 . S
C1315 C1314 1.524 . S
C1315 C1316 1.397 . S
C1315 C1320 1.363 . S
C1316 H1293 0.950 . S
C1316 C1315 1.397 . S
C1316 C1317 1.334 . S
C1317 H1294 0.950 . S
C1317 C1316 1.334 . S
C1317 C1318 1.287 . S
C1318 C1317 1.287 . S
C1318 C1319 1.524 . S
C1318 H1337 0.913 . S
C1319 H1295 0.950 . S
C1319 C1318 1.524 . S
C1319 C1320 1.415 . S
C1320 H1296 0.950 . S
C1320 C1315 1.363 . S
C1320 C1319 1.415 . S
C1321 H1297 0.951 . S
C1321 C1322 1.366 . S
C1321 C1323 1.388 . S
C1322 C1321 1.366 . S
C1322 C1326 1.385 . S
C1323 H1298 0.951 . S
C1323 C1321 1.388 . S
C1323 C1324 1.366 . S
C1324 C1323 1.366 . S
C1324 C1325 1.414 . S
C1324 C1327 1.499 . S
C1325 H1299 0.950 . S
C1325 C1324 1.414 . S
C1325 C1326 1.374 . S
C1326 H1300 0.950 . S
C1326 C1322 1.385 . S
C1326 C1325 1.374 . S
C1327 C1324 1.499 . S
C1327 C1328 1.373 . S
C1327 C1329 1.389 . S
C1328 H1301 0.950 . S
C1328 C1314 1.377 . S
C1328 C1327 1.373 . S
C1329 C1313 1.377 . S
C1329 C1327 1.389 . S
C1329 C1330 1.524 . S
C1330 C1329 1.524 . S
C1330 C1331 1.397 . S
C1330 C1335 1.363 . S
C1331 H1302 0.950 . S
C1331 C1330 1.397 . S
C1331 C1332 1.334 . S
C1332 H1303 0.950 . S
C1332 C1331 1.334 . S
C1332 C1333 1.287 . S
C1333 C1332 1.287 . S
C1333 C1334 1.524 . S
C1333 H1336 0.999 . S
C1334 H1304 0.950 . S
C1334 C1333 1.524 . S
C1334 C1335 1.415 . S
C1335 H1305 0.950 . S
C1335 C1330 1.363 . S
C1335 C1334 1.415 . S
H1336 C1333 0.999 . S
H1337 C1318 0.913 . S
H1338 C1356 0.951 . S
H1339 C1358 0.951 . S
H1340 C1360 0.950 . S
H1341 C1361 0.950 . S
H1342 C1363 0.950 . S
H1343 C1366 0.950 . S
H1344 C1367 0.950 . S
H1345 C1369 0.950 . S
H1346 C1370 0.950 . S
H1347 C1371 0.951 . S
H1348 C1373 0.951 . S
H1349 C1375 0.950 1_556 S
H1350 C1376 0.950 . S
H1351 C1378 0.950 . S
H1352 C1381 0.950 . S
H1353 C1382 0.950 . S
H1354 C1384 0.944 1_556 S
H1355 C1385 0.950 . S
C1356 H1338 0.951 . S
C1356 C1357 1.366 . S
C1356 C1358 1.388 . S
C1357 C1356 1.366 . S
C1357 C1361 1.385 . S
C1358 H1339 0.951 . S
C1358 C1356 1.388 . S
C1358 C1359 1.366 . S
C1359 C1358 1.366 . S
C1359 C1360 1.414 . S
C1359 C1362 1.499 . S
C1360 H1340 0.950 . S
C1360 C1359 1.414 . S
C1360 C1361 1.374 . S
C1361 H1341 0.950 . S
C1361 C1357 1.385 . S
C1361 C1360 1.374 . S
C1362 C1359 1.499 . S
C1362 C1363 1.373 . S
C1362 C1364 1.389 . S
C1363 H1342 0.950 . S
C1363 C1362 1.373 . S
C1363 C1379 1.377 . S
C1364 C1362 1.389 . S
C1364 C1365 1.524 . S
C1364 C1378 1.377 . S
C1365 C1364 1.524 . S
C1365 C1366 1.397 . S
C1365 C1370 1.363 . S
C1366 H1343 0.950 . S
C1366 C1365 1.397 . S
C1366 C1367 1.334 . S
C1367 H1344 0.950 . S
C1367 C1366 1.334 . S
C1367 C1368 1.287 . S
C1368 C1367 1.287 . S
C1368 C1369 1.524 . S
C1368 H1387 0.913 . S
C1369 H1345 0.950 . S
C1369 C1368 1.524 . S
C1369 C1370 1.415 . S
C1370 H1346 0.950 . S
C1370 C1365 1.363 . S
C1370 C1369 1.415 . S
C1371 H1347 0.951 . S
C1371 C1372 1.366 . S
C1371 C1373 1.388 1_554 S
C1372 C1371 1.366 . S
C1372 C1376 1.385 . S
C1373 H1348 0.951 . S
C1373 C1371 1.388 1_556 S
C1373 C1374 1.366 . S
C1374 C1373 1.366 . S
C1374 C1375 1.414 1_556 S
C1374 C1377 1.499 . S
C1375 H1349 0.950 1_554 S
C1375 C1374 1.414 1_554 S
C1375 C1376 1.374 . S
C1376 H1350 0.950 . S
C1376 C1372 1.385 . S
C1376 C1375 1.374 . S
C1377 C1374 1.499 . S
C1377 C1378 1.373 . S
C1377 C1379 1.389 . S
C1378 H1351 0.950 . S
C1378 C1364 1.377 . S
C1378 C1377 1.373 . S
C1379 C1363 1.377 . S
C1379 C1377 1.389 . S
C1379 C1380 1.524 . S
C1380 C1379 1.524 . S
C1380 C1381 1.397 1_556 S
C1380 C1385 1.363 . S
C1381 H1352 0.950 . S
C1381 C1380 1.397 1_554 S
C1381 C1382 1.334 . S
C1382 H1353 0.950 . S
C1382 C1381 1.334 . S
C1382 C1383 1.287 . S
C1383 C1382 1.287 . S
C1383 C1384 1.524 . S
C1383 H1386 0.999 . S
C1384 H1354 0.944 1_554 S
C1384 C1383 1.524 . S
C1384 C1385 1.415 1_554 S
C1385 H1355 0.950 . S
C1385 C1380 1.363 . S
C1385 C1384 1.415 1_556 S
H1386 C1383 0.999 . S
H1387 C1368 0.913 . S
H1388 C1406 0.951 . S
H1389 C1408 0.951 . S
H1390 C1410 0.950 . S
H1391 C1411 0.950 . S
H1392 C1413 0.950 . S
H1393 C1416 0.950 . S
H1394 C1417 0.950 . S
H1395 C1419 0.950 . S
H1396 C1420 0.950 . S
H1397 C1421 0.951 . S
H1398 C1423 0.951 . S
H1399 C1425 0.950 . S
H1400 C1426 0.950 . S
H1401 C1428 0.950 . S
H1402 C1431 0.950 . S
H1403 C1432 0.950 . S
H1404 C1434 0.950 . S
H1405 C1435 0.950 . S
C1406 H1388 0.951 . S
C1406 C1407 1.366 . S
C1406 C1408 1.388 . S
C1407 C1406 1.366 . S
C1407 C1411 1.385 . S
C1408 H1389 0.951 . S
C1408 C1406 1.388 . S
C1408 C1409 1.366 . S
C1409 C1408 1.366 . S
C1409 C1410 1.414 . S
C1409 C1412 1.499 . S
C1410 H1390 0.950 . S
C1410 C1409 1.414 . S
C1410 C1411 1.374 . S
C1411 H1391 0.950 . S
C1411 C1407 1.385 . S
C1411 C1410 1.374 . S
C1412 C1409 1.499 . S
C1412 C1413 1.373 . S
C1412 C1414 1.389 . S
C1413 H1392 0.950 . S
C1413 C1412 1.373 . S
C1413 C1429 1.377 . S
C1414 C1412 1.389 . S
C1414 C1415 1.524 . S
C1414 C1428 1.377 . S
C1415 C1414 1.524 . S
C1415 C1416 1.397 . S
C1415 C1420 1.363 . S
C1416 H1393 0.950 . S
C1416 C1415 1.397 . S
C1416 C1417 1.334 . S
C1417 H1394 0.950 . S
C1417 C1416 1.334 . S
C1417 C1418 1.287 . S
C1418 C1417 1.287 . S
C1418 C1419 1.524 . S
C1418 H1437 0.913 . S
C1419 H1395 0.950 . S
C1419 C1418 1.524 . S
C1419 C1420 1.415 . S
C1420 H1396 0.950 . S
C1420 C1415 1.363 . S
C1420 C1419 1.415 . S
C1421 H1397 0.951 . S
C1421 C1422 1.366 . S
C1421 C1423 1.388 . S
C1422 C1421 1.366 . S
C1422 C1426 1.385 . S
C1423 H1398 0.951 . S
C1423 C1421 1.388 . S
C1423 C1424 1.366 . S
C1424 C1423 1.366 . S
C1424 C1425 1.414 . S
C1424 C1427 1.499 . S
C1425 H1399 0.950 . S
C1425 C1424 1.414 . S
C1425 C1426 1.374 . S
C1426 H1400 0.950 . S
C1426 C1422 1.385 . S
C1426 C1425 1.374 . S
C1427 C1424 1.499 . S
C1427 C1428 1.373 . S
C1427 C1429 1.389 . S
C1428 H1401 0.950 . S
C1428 C1414 1.377 . S
C1428 C1427 1.373 . S
C1429 C1413 1.377 . S
C1429 C1427 1.389 . S
C1429 C1430 1.524 . S
C1430 C1429 1.524 . S
C1430 C1431 1.397 . S
C1430 C1435 1.363 . S
C1431 H1402 0.950 . S
C1431 C1430 1.397 . S
C1431 C1432 1.334 . S
C1432 H1403 0.950 . S
C1432 C1431 1.334 . S
C1432 C1433 1.287 . S
C1433 C1432 1.287 . S
C1433 C1434 1.524 . S
C1433 H1436 0.999 . S
C1434 H1404 0.950 . S
C1434 C1433 1.524 . S
C1434 C1435 1.415 . S
C1435 H1405 0.950 . S
C1435 C1430 1.363 . S
C1435 C1434 1.415 . S
H1436 C1433 0.999 . S
H1437 C1418 0.913 . S
H1438 C1456 0.951 . S
H1439 C1458 0.951 . S
H1440 C1460 0.950 . S
H1441 C1461 0.950 . S
H1442 C1463 0.950 . S
H1443 C1466 0.950 . S
H1444 C1467 0.950 . S
H1445 C1469 0.950 . S
H1446 C1470 0.950 . S
H1447 C1471 0.951 . S
H1448 C1473 0.951 . S
H1449 C1475 0.950 . S
H1450 C1476 0.950 . S
H1451 C1478 0.950 . S
H1452 C1481 0.950 . S
H1453 C1482 0.950 . S
H1454 C1484 0.950 . S
H1455 C1485 0.950 . S
C1456 H1438 0.951 . S
C1456 C1457 1.366 . S
C1456 C1458 1.388 . S
C1457 C1456 1.366 . S
C1457 C1461 1.385 . S
C1458 H1439 0.951 . S
C1458 C1456 1.388 . S
C1458 C1459 1.366 . S
C1459 C1458 1.366 . S
C1459 C1460 1.414 . S
C1459 C1462 1.499 . S
C1460 H1440 0.950 . S
C1460 C1459 1.414 . S
C1460 C1461 1.374 . S
C1461 H1441 0.950 . S
C1461 C1457 1.385 . S
C1461 C1460 1.374 . S
C1462 C1459 1.499 . S
C1462 C1463 1.373 . S
C1462 C1464 1.389 . S
C1463 H1442 0.950 . S
C1463 C1462 1.373 . S
C1463 C1479 1.377 . S
C1464 C1462 1.389 . S
C1464 C1465 1.524 . S
C1464 C1478 1.377 . S
C1465 C1464 1.524 . S
C1465 C1466 1.397 . S
C1465 C1470 1.363 . S
C1466 H1443 0.950 . S
C1466 C1465 1.397 . S
C1466 C1467 1.334 . S
C1467 H1444 0.950 . S
C1467 C1466 1.334 . S
C1467 C1468 1.287 . S
C1468 C1467 1.287 . S
C1468 C1469 1.524 . S
C1468 H1487 0.913 . S
C1469 H1445 0.950 . S
C1469 C1468 1.524 . S
C1469 C1470 1.415 . S
C1470 H1446 0.950 . S
C1470 C1465 1.363 . S
C1470 C1469 1.415 . S
C1471 H1447 0.951 . S
C1471 C1472 1.366 . S
C1471 C1473 1.388 . S
C1472 C1471 1.366 . S
C1472 C1476 1.385 . S
C1473 H1448 0.951 . S
C1473 C1471 1.388 . S
C1473 C1474 1.366 . S
C1474 C1473 1.366 . S
C1474 C1475 1.414 . S
C1474 C1477 1.499 . S
C1475 H1449 0.950 . S
C1475 C1474 1.414 . S
C1475 C1476 1.374 . S
C1476 H1450 0.950 . S
C1476 C1472 1.385 . S
C1476 C1475 1.374 . S
C1477 C1474 1.499 . S
C1477 C1478 1.373 . S
C1477 C1479 1.389 . S
C1478 H1451 0.950 . S
C1478 C1464 1.377 . S
C1478 C1477 1.373 . S
C1479 C1463 1.377 . S
C1479 C1477 1.389 . S
C1479 C1480 1.524 . S
C1480 C1479 1.524 . S
C1480 C1481 1.397 . S
C1480 C1485 1.363 . S
C1481 H1452 0.950 . S
C1481 C1480 1.397 . S
C1481 C1482 1.334 . S
C1482 H1453 0.950 . S
C1482 C1481 1.334 . S
C1482 C1483 1.287 . S
C1483 C1482 1.287 . S
C1483 C1484 1.524 . S
C1483 H1486 0.999 . S
C1484 H1454 0.950 . S
C1484 C1483 1.524 . S
C1484 C1485 1.415 . S
C1485 H1455 0.950 . S
C1485 C1480 1.363 . S
C1485 C1484 1.415 . S
H1486 C1483 0.999 . S
H1487 C1468 0.913 . S
H1488 C1506 0.951 . S
H1489 C1508 0.951 . S
H1490 C1510 0.950 . S
H1491 C1511 0.950 . S
H1492 C1513 0.950 . S
H1493 C1516 0.950 . S
H1494 C1517 0.950 . S
H1495 C1519 0.950 . S
H1496 C1520 0.950 . S
H1497 C1521 0.951 . S
H1498 C1523 0.951 . S
H1499 C1525 0.950 . S
H1500 C1526 0.950 . S
H1501 C1528 0.950 . S
H1502 C1531 0.950 . S
H1503 C1532 0.950 . S
H1504 C1534 0.950 . S
H1505 C1535 0.950 . S
C1506 H1488 0.951 . S
C1506 C1507 1.366 . S
C1506 C1508 1.388 . S
C1507 C1506 1.366 . S
C1507 C1511 1.385 . S
C1508 H1489 0.951 . S
C1508 C1506 1.388 . S
C1508 C1509 1.366 . S
C1509 C1508 1.366 . S
C1509 C1510 1.414 . S
C1509 C1512 1.499 . S
C1510 H1490 0.950 . S
C1510 C1509 1.414 . S
C1510 C1511 1.374 . S
C1511 H1491 0.950 . S
C1511 C1507 1.385 . S
C1511 C1510 1.374 . S
C1512 C1509 1.499 . S
C1512 C1513 1.373 . S
C1512 C1514 1.389 . S
C1513 H1492 0.950 . S
C1513 C1512 1.373 . S
C1513 C1529 1.377 . S
C1514 C1512 1.389 . S
C1514 C1515 1.524 . S
C1514 C1528 1.377 . S
C1515 C1514 1.524 . S
C1515 C1516 1.397 . S
C1515 C1520 1.363 . S
C1516 H1493 0.950 . S
C1516 C1515 1.397 . S
C1516 C1517 1.334 . S
C1517 H1494 0.950 . S
C1517 C1516 1.334 . S
C1517 C1518 1.287 . S
C1518 C1517 1.287 . S
C1518 C1519 1.524 . S
C1518 H1537 0.913 . S
C1519 H1495 0.950 . S
C1519 C1518 1.524 . S
C1519 C1520 1.415 . S
C1520 H1496 0.950 . S
C1520 C1515 1.363 . S
C1520 C1519 1.415 . S
C1521 H1497 0.951 . S
C1521 C1522 1.366 . S
C1521 C1523 1.388 . S
C1522 C1521 1.366 . S
C1522 C1526 1.385 . S
C1523 H1498 0.951 . S
C1523 C1521 1.388 . S
C1523 C1524 1.366 . S
C1524 C1523 1.366 . S
C1524 C1525 1.414 . S
C1524 C1527 1.499 . S
C1525 H1499 0.950 . S
C1525 C1524 1.414 . S
C1525 C1526 1.374 . S
C1526 H1500 0.950 . S
C1526 C1522 1.385 . S
C1526 C1525 1.374 . S
C1527 C1524 1.499 . S
C1527 C1528 1.373 . S
C1527 C1529 1.389 . S
C1528 H1501 0.950 . S
C1528 C1514 1.377 . S
C1528 C1527 1.373 . S
C1529 C1513 1.377 . S
C1529 C1527 1.389 . S
C1529 C1530 1.524 . S
C1530 C1529 1.524 . S
C1530 C1531 1.397 . S
C1530 C1535 1.363 . S
C1531 H1502 0.950 . S
C1531 C1530 1.397 . S
C1531 C1532 1.334 . S
C1532 H1503 0.950 . S
C1532 C1531 1.334 . S
C1532 C1533 1.287 . S
C1533 C1532 1.287 . S
C1533 C1534 1.524 . S
C1533 H1536 0.999 . S
C1534 H1504 0.950 . S
C1534 C1533 1.524 . S
C1534 C1535 1.415 . S
C1535 H1505 0.950 . S
C1535 C1530 1.363 . S
C1535 C1534 1.415 . S
H1536 C1533 0.999 . S
H1537 C1518 0.913 . S
H1538 C1556 0.951 . S
H1539 C1558 0.951 . S
H1540 C1560 0.950 . S
H1541 C1561 0.950 . S
H1542 C1563 0.950 . S
H1543 C1566 0.950 . S
H1544 C1567 0.950 . S
H1545 C1569 0.950 . S
H1546 C1570 0.950 . S
H1547 C1571 0.951 . S
H1548 C1573 0.951 . S
H1549 C1575 0.950 . S
H1550 C1576 0.950 . S
H1551 C1578 0.950 . S
H1552 C1581 0.950 . S
H1553 C1582 0.950 . S
H1554 C1584 0.950 . S
H1555 C1585 0.950 . S
C1556 H1538 0.951 . S
C1556 C1557 1.366 . S
C1556 C1558 1.388 . S
C1557 C1556 1.366 . S
C1557 C1561 1.385 . S
C1558 H1539 0.951 . S
C1558 C1556 1.388 . S
C1558 C1559 1.366 . S
C1559 C1558 1.366 . S
C1559 C1560 1.414 . S
C1559 C1562 1.499 . S
C1560 H1540 0.950 . S
C1560 C1559 1.414 . S
C1560 C1561 1.374 . S
C1561 H1541 0.950 . S
C1561 C1557 1.385 . S
C1561 C1560 1.374 . S
C1562 C1559 1.499 . S
C1562 C1563 1.373 . S
C1562 C1564 1.389 . S
C1563 H1542 0.950 . S
C1563 C1562 1.373 . S
C1563 C1579 1.377 . S
C1564 C1562 1.389 . S
C1564 C1565 1.524 . S
C1564 C1578 1.377 . S
C1565 C1564 1.524 . S
C1565 C1566 1.397 . S
C1565 C1570 1.363 . S
C1566 H1543 0.950 . S
C1566 C1565 1.397 . S
C1566 C1567 1.334 . S
C1567 H1544 0.950 . S
C1567 C1566 1.334 . S
C1567 C1568 1.287 . S
C1568 C1567 1.287 . S
C1568 C1569 1.524 . S
C1568 H1587 0.913 . S
C1569 H1545 0.950 . S
C1569 C1568 1.524 . S
C1569 C1570 1.415 . S
C1570 H1546 0.950 . S
C1570 C1565 1.363 . S
C1570 C1569 1.415 . S
C1571 H1547 0.951 . S
C1571 C1572 1.366 . S
C1571 C1573 1.388 . S
C1572 C1571 1.366 . S
C1572 C1576 1.385 . S
C1573 H1548 0.951 . S
C1573 C1571 1.388 . S
C1573 C1574 1.366 . S
C1574 C1573 1.366 . S
C1574 C1575 1.414 . S
C1574 C1577 1.499 . S
C1575 H1549 0.950 . S
C1575 C1574 1.414 . S
C1575 C1576 1.374 . S
C1576 H1550 0.950 . S
C1576 C1572 1.385 . S
C1576 C1575 1.374 . S
C1577 C1574 1.499 . S
C1577 C1578 1.373 . S
C1577 C1579 1.389 . S
C1578 H1551 0.950 . S
C1578 C1564 1.377 . S
C1578 C1577 1.373 . S
C1579 C1563 1.377 . S
C1579 C1577 1.389 . S
C1579 C1580 1.524 . S
C1580 C1579 1.524 . S
C1580 C1581 1.397 . S
C1580 C1585 1.363 . S
C1581 H1552 0.950 . S
C1581 C1580 1.397 . S
C1581 C1582 1.334 . S
C1582 H1553 0.950 . S
C1582 C1581 1.334 . S
C1582 C1583 1.287 . S
C1583 C1582 1.287 . S
C1583 C1584 1.524 . S
C1583 H1586 0.999 . S
C1584 H1554 0.950 . S
C1584 C1583 1.524 . S
C1584 C1585 1.415 . S
C1585 H1555 0.950 . S
C1585 C1580 1.363 . S
C1585 C1584 1.415 . S
H1586 C1583 0.999 . S
H1587 C1568 0.913 . S
H1588 C1606 0.951 . S
H1589 C1608 0.951 . S
H1590 C1610 0.950 . S
H1591 C1611 0.950 . S
H1592 C1613 0.950 . S
H1593 C1616 0.950 . S
H1594 C1617 0.950 . S
H1595 C1619 0.950 . S
H1596 C1620 0.950 . S
H1597 C1621 0.951 . S
H1598 C1623 0.951 . S
H1599 C1625 0.950 . S
H1600 C1626 0.950 . S
H1601 C1628 0.950 . S
H1602 C1631 0.950 . S
H1603 C1632 0.950 . S
H1604 C1634 0.950 . S
H1605 C1635 0.950 . S
C1606 H1588 0.951 . S
C1606 C1607 1.366 . S
C1606 C1608 1.388 . S
C1607 C1606 1.366 . S
C1607 C1611 1.385 . S
C1608 H1589 0.951 . S
C1608 C1606 1.388 . S
C1608 C1609 1.366 . S
C1609 C1608 1.366 . S
C1609 C1610 1.414 . S
C1609 C1612 1.499 . S
C1610 H1590 0.950 . S
C1610 C1609 1.414 . S
C1610 C1611 1.374 . S
C1611 H1591 0.950 . S
C1611 C1607 1.385 . S
C1611 C1610 1.374 . S
C1612 C1609 1.499 . S
C1612 C1613 1.373 . S
C1612 C1614 1.389 . S
C1613 H1592 0.950 . S
C1613 C1612 1.373 . S
C1613 C1629 1.377 . S
C1614 C1612 1.389 . S
C1614 C1615 1.524 . S
C1614 C1628 1.377 . S
C1615 C1614 1.524 . S
C1615 C1616 1.397 . S
C1615 C1620 1.363 . S
C1616 H1593 0.950 . S
C1616 C1615 1.397 . S
C1616 C1617 1.334 . S
C1617 H1594 0.950 . S
C1617 C1616 1.334 . S
C1617 C1618 1.287 . S
C1618 C1617 1.287 . S
C1618 C1619 1.524 . S
C1618 H1637 0.913 . S
C1619 H1595 0.950 . S
C1619 C1618 1.524 . S
C1619 C1620 1.415 . S
C1620 H1596 0.950 . S
C1620 C1615 1.363 . S
C1620 C1619 1.415 . S
C1621 H1597 0.951 . S
C1621 C1622 1.366 . S
C1621 C1623 1.388 . S
C1622 C1621 1.366 . S
C1622 C1626 1.385 . S
C1623 H1598 0.951 . S
C1623 C1621 1.388 . S
C1623 C1624 1.366 . S
C1624 C1623 1.366 . S
C1624 C1625 1.414 . S
C1624 C1627 1.499 . S
C1625 H1599 0.950 . S
C1625 C1624 1.414 . S
C1625 C1626 1.374 . S
C1626 H1600 0.950 . S
C1626 C1622 1.385 . S
C1626 C1625 1.374 . S
C1627 C1624 1.499 . S
C1627 C1628 1.373 . S
C1627 C1629 1.389 . S
C1628 H1601 0.950 . S
C1628 C1614 1.377 . S
C1628 C1627 1.373 . S
C1629 C1613 1.377 . S
C1629 C1627 1.389 . S
C1629 C1630 1.524 . S
C1630 C1629 1.524 . S
C1630 C1631 1.397 . S
C1630 C1635 1.363 . S
C1631 H1602 0.950 . S
C1631 C1630 1.397 . S
C1631 C1632 1.334 . S
C1632 H1603 0.950 . S
C1632 C1631 1.334 . S
C1632 C1633 1.287 . S
C1633 C1632 1.287 . S
C1633 C1634 1.524 . S
C1633 H1636 0.999 . S
C1634 H1604 0.950 . S
C1634 C1633 1.524 . S
C1634 C1635 1.415 . S
C1635 H1605 0.950 . S
C1635 C1630 1.363 . S
C1635 C1634 1.415 . S
H1636 C1633 0.999 . S
H1637 C1618 0.913 . S
H1638 C1656 0.951 . S
H1639 C1658 0.951 . S
H1640 C1660 0.950 . S
H1641 C1661 0.950 . S
H1642 C1663 0.950 . S
H1643 C1666 0.950 . S
H1644 C1667 0.950 . S
H1645 C1669 0.950 . S
H1646 C1670 0.950 . S
H1647 C1671 0.951 . S
H1648 C1673 0.951 . S
H1649 C1675 0.950 . S
H1650 C1676 0.950 . S
H1651 C1678 0.950 . S
H1652 C1681 0.950 . S
H1653 C1682 0.950 . S
H1654 C1684 0.950 . S
H1655 C1685 0.950 . S
C1656 H1638 0.951 . S
C1656 C1657 1.366 . S
C1656 C1658 1.388 . S
C1657 C1656 1.366 . S
C1657 C1661 1.385 . S
C1658 H1639 0.951 . S
C1658 C1656 1.388 . S
C1658 C1659 1.366 . S
C1659 C1658 1.366 . S
C1659 C1660 1.414 . S
C1659 C1662 1.499 . S
C1660 H1640 0.950 . S
C1660 C1659 1.414 . S
C1660 C1661 1.374 . S
C1661 H1641 0.950 . S
C1661 C1657 1.385 . S
C1661 C1660 1.374 . S
C1662 C1659 1.499 . S
C1662 C1663 1.373 . S
C1662 C1664 1.389 . S
C1663 H1642 0.950 . S
C1663 C1662 1.373 . S
C1663 C1679 1.377 . S
C1664 C1662 1.389 . S
C1664 C1665 1.524 . S
C1664 C1678 1.377 . S
C1665 C1664 1.524 . S
C1665 C1666 1.397 . S
C1665 C1670 1.363 . S
C1666 H1643 0.950 . S
C1666 C1665 1.397 . S
C1666 C1667 1.334 . S
C1667 H1644 0.950 . S
C1667 C1666 1.334 . S
C1667 C1668 1.287 . S
C1668 C1667 1.287 . S
C1668 C1669 1.524 . S
C1668 H1687 0.913 . S
C1669 H1645 0.950 . S
C1669 C1668 1.524 . S
C1669 C1670 1.415 . S
C1670 H1646 0.950 . S
C1670 C1665 1.363 . S
C1670 C1669 1.415 . S
C1671 H1647 0.951 . S
C1671 C1672 1.366 . S
C1671 C1673 1.388 . S
C1672 C1671 1.366 . S
C1672 C1676 1.385 . S
C1673 H1648 0.951 . S
C1673 C1671 1.388 . S
C1673 C1674 1.366 . S
C1674 C1673 1.366 . S
C1674 C1675 1.414 . S
C1674 C1677 1.499 . S
C1675 H1649 0.950 . S
C1675 C1674 1.414 . S
C1675 C1676 1.374 . S
C1676 H1650 0.950 . S
C1676 C1672 1.385 . S
C1676 C1675 1.374 . S
C1677 C1674 1.499 . S
C1677 C1678 1.373 . S
C1677 C1679 1.389 . S
C1678 H1651 0.950 . S
C1678 C1664 1.377 . S
C1678 C1677 1.373 . S
C1679 C1663 1.377 . S
C1679 C1677 1.389 . S
C1679 C1680 1.524 . S
C1680 C1679 1.524 . S
C1680 C1681 1.397 . S
C1680 C1685 1.363 . S
C1681 H1652 0.950 . S
C1681 C1680 1.397 . S
C1681 C1682 1.334 . S
C1682 H1653 0.950 . S
C1682 C1681 1.334 . S
C1682 C1683 1.287 . S
C1683 C1682 1.287 . S
C1683 C1684 1.524 . S
C1683 H1686 0.999 . S
C1684 H1654 0.950 . S
C1684 C1683 1.524 . S
C1684 C1685 1.415 . S
C1685 H1655 0.950 . S
C1685 C1680 1.363 . S
C1685 C1684 1.415 . S
H1686 C1683 0.999 . S
H1687 C1668 0.913 . S
H1688 C1706 0.951 . S
H1689 C1708 0.951 . S
H1690 C1710 0.950 . S
H1691 C1711 0.950 . S
H1692 C1713 0.950 . S
H1693 C1716 0.978 . S
H1694 C1717 0.950 . S
H1695 C1719 0.950 . S
H1696 C1720 0.950 . S
H1697 C1721 0.951 . S
H1698 C1723 0.951 . S
H1699 C1725 0.950 . S
H1700 C1726 0.950 . S
H1701 C1728 0.950 . S
H1702 C1731 0.950 . S
H1703 C1732 0.950 . S
H1704 C1734 0.950 . S
H1705 C1735 0.950 . S
C1706 H1688 0.951 . S
C1706 C1707 1.366 . S
C1706 C1708 1.388 . S
C1707 C1706 1.366 . S
C1707 C1711 1.385 . S
C1708 H1689 0.951 . S
C1708 C1706 1.388 . S
C1708 C1709 1.366 . S
C1709 C1708 1.366 . S
C1709 C1710 1.414 . S
C1709 C1712 1.499 . S
C1710 H1690 0.950 . S
C1710 C1709 1.414 . S
C1710 C1711 1.374 . S
C1711 H1691 0.950 . S
C1711 C1707 1.385 . S
C1711 C1710 1.374 . S
C1712 C1709 1.499 . S
C1712 C1713 1.373 . S
C1712 C1714 1.389 1_554 S
C1713 H1692 0.950 . S
C1713 C1712 1.373 . S
C1713 C1729 1.377 . S
C1714 C1712 1.389 1_556 S
C1714 C1715 1.524 . S
C1714 C1728 1.377 . S
C1715 C1714 1.524 . S
C1715 C1716 1.397 . S
C1715 C1720 1.363 . S
C1716 H1693 0.978 . S
C1716 C1715 1.397 . S
C1716 C1717 1.334 . S
C1717 H1694 0.950 . S
C1717 C1716 1.334 . S
C1717 C1718 1.287 . S
C1718 C1717 1.287 . S
C1718 C1719 1.524 . S
C1718 H1737 0.913 . S
C1719 H1695 0.950 . S
C1719 C1718 1.524 . S
C1719 C1720 1.415 . S
C1720 H1696 0.950 . S
C1720 C1715 1.363 . S
C1720 C1719 1.415 . S
C1721 H1697 0.951 . S
C1721 C1722 1.366 . S
C1721 C1723 1.388 . S
C1722 C1721 1.366 . S
C1722 C1726 1.385 . S
C1723 H1698 0.951 . S
C1723 C1721 1.388 . S
C1723 C1724 1.366 . S
C1724 C1723 1.366 . S
C1724 C1725 1.414 . S
C1724 C1727 1.499 . S
C1725 H1699 0.950 . S
C1725 C1724 1.414 . S
C1725 C1726 1.374 . S
C1726 H1700 0.950 . S
C1726 C1722 1.385 . S
C1726 C1725 1.374 . S
C1727 C1724 1.499 . S
C1727 C1728 1.373 . S
C1727 C1729 1.389 1_556 S
C1728 H1701 0.950 . S
C1728 C1714 1.377 . S
C1728 C1727 1.373 . S
C1729 C1713 1.377 . S
C1729 C1727 1.389 1_554 S
C1729 C1730 1.524 . S
C1730 C1729 1.524 . S
C1730 C1731 1.397 . S
C1730 C1735 1.363 . S
C1731 H1702 0.950 . S
C1731 C1730 1.397 . S
C1731 C1732 1.334 . S
C1732 H1703 0.950 . S
C1732 C1731 1.334 . S
C1732 C1733 1.287 . S
C1733 C1732 1.287 . S
C1733 C1734 1.524 . S
C1733 H1736 0.999 . S
C1734 H1704 0.950 . S
C1734 C1733 1.524 . S
C1734 C1735 1.415 . S
C1735 H1705 0.950 . S
C1735 C1730 1.363 . S
C1735 C1734 1.415 . S
H1736 C1733 0.999 . S
H1737 C1718 0.913 . S
H1738 C1756 0.951 . S
H1739 C1758 0.951 . S
H1740 C1760 0.950 . S
H1741 C1761 0.950 . S
H1742 C1763 0.950 . S
H1743 C1766 0.950 . S
H1744 C1767 0.950 . S
H1745 C1769 0.950 . S
H1746 C1770 0.950 . S
H1747 C1771 0.951 . S
H1748 C1773 0.951 . S
H1749 C1775 0.950 . S
H1750 C1776 0.950 . S
H1751 C1778 0.950 . S
H1752 C1781 0.950 . S
H1753 C1782 0.950 . S
H1754 C1784 0.950 . S
H1755 C1785 0.950 . S
C1756 H1738 0.951 . S
C1756 C1757 1.366 . S
C1756 C1758 1.388 . S
C1757 C1756 1.366 . S
C1757 C1761 1.385 . S
C1758 H1739 0.951 . S
C1758 C1756 1.388 . S
C1758 C1759 1.366 . S
C1759 C1758 1.366 . S
C1759 C1760 1.414 . S
C1759 C1762 1.499 . S
C1760 H1740 0.950 . S
C1760 C1759 1.414 . S
C1760 C1761 1.374 . S
C1761 H1741 0.950 . S
C1761 C1757 1.385 . S
C1761 C1760 1.374 . S
C1762 C1759 1.499 . S
C1762 C1763 1.373 . S
C1762 C1764 1.389 . S
C1763 H1742 0.950 . S
C1763 C1762 1.373 . S
C1763 C1779 1.377 . S
C1764 C1762 1.389 . S
C1764 C1765 1.524 . S
C1764 C1778 1.377 . S
C1765 C1764 1.524 . S
C1765 C1766 1.397 . S
C1765 C1770 1.363 . S
C1766 H1743 0.950 . S
C1766 C1765 1.397 . S
C1766 C1767 1.334 . S
C1767 H1744 0.950 . S
C1767 C1766 1.334 . S
C1767 C1768 1.287 . S
C1768 C1767 1.287 . S
C1768 C1769 1.524 . S
C1768 H1787 0.913 . S
C1769 H1745 0.950 . S
C1769 C1768 1.524 . S
C1769 C1770 1.415 . S
C1770 H1746 0.950 . S
C1770 C1765 1.363 . S
C1770 C1769 1.415 . S
C1771 H1747 0.951 . S
C1771 C1772 1.366 . S
C1771 C1773 1.388 . S
C1772 C1771 1.366 . S
C1772 C1776 1.385 . S
C1773 H1748 0.951 . S
C1773 C1771 1.388 . S
C1773 C1774 1.366 . S
C1774 C1773 1.366 . S
C1774 C1775 1.414 . S
C1774 C1777 1.499 . S
C1775 H1749 0.950 . S
C1775 C1774 1.414 . S
C1775 C1776 1.374 . S
C1776 H1750 0.950 . S
C1776 C1772 1.385 . S
C1776 C1775 1.374 . S
C1777 C1774 1.499 . S
C1777 C1778 1.373 . S
C1777 C1779 1.389 . S
C1778 H1751 0.950 . S
C1778 C1764 1.377 . S
C1778 C1777 1.373 . S
C1779 C1763 1.377 . S
C1779 C1777 1.389 . S
C1779 C1780 1.524 . S
C1780 C1779 1.524 . S
C1780 C1781 1.397 . S
C1780 C1785 1.363 . S
C1781 H1752 0.950 . S
C1781 C1780 1.397 . S
C1781 C1782 1.334 . S
C1782 H1753 0.950 . S
C1782 C1781 1.334 . S
C1782 C1783 1.287 . S
C1783 C1782 1.287 . S
C1783 C1784 1.524 . S
C1783 H1786 0.999 . S
C1784 H1754 0.950 . S
C1784 C1783 1.524 . S
C1784 C1785 1.415 . S
C1785 H1755 0.950 . S
C1785 C1780 1.363 . S
C1785 C1784 1.415 . S
H1786 C1783 0.999 . S
H1787 C1768 0.913 . S
C622 C555 1.683 . S
C607 C29 1.593 . S
C657 C115 1.593 . S
C672 C375 1.616 . S
C707 C153 1.596 . S
C722 C422 1.657 . S
C757 C239 1.488 . S
C772 C458 1.477 . S
C822 C483 1.598 . S
C807 C301 1.572 . S
C857 C339 1.841 . S
C872 C519 1.957 . S
C907 C91 1.636 . S
C922 C411 1.737 . S
C957 C177 1.527 . S
C972 C447 1.546 . S
C1007 C215 1.513 . S
C1022 C494 1.575 . S
C1072 C530 1.906 . S
C1057 C277 1.826 . S
C1122 C566 1.565 . S
C1107 C363 1.571 . S
C1172 C386 1.533 . S
C1157 C53 1.539 . S
C1207 C35 1.536 . S
C1222 C410 1.551 . S
C1257 C109 1.426 . S
C1272 C446 1.519 . S
C1322 C484 1.458 . S
C1307 C159 1.441 . S
C1357 C233 1.618 . S
C1372 C520 1.731 . S
C1422 C556 1.513 . S
C1407 C295 1.398 . S
C1472 C376 1.336 . S
C1457 C345 1.319 . S
C1522 C554 1.435 . S
C1507 C97 1.424 . S
C1557 C171 1.394 . S
C1572 C374 1.489 . S
C1622 C412 1.550 . S
C1607 C221 1.527 . S
C1657 C283 1.374 . S
C1672 C448 1.389 . S
C1707 C357 1.454 . S
C1722 C482 1.557 . S
C1757 C47 1.635 . S
C1772 C518 1.732 . S
