# Generated by pormake.
# Topology nom, (4,4)-cn, num edge types: 1
# Building blocks:
#     Node 0, Type 0, BuildingBlock: NAHDIM_clean_linker_0, # of connection points: 4
#     Node 1, Type 0, BuildingBlock: NAHDIM_clean_linker_0, # of connection points: 4
#     Node 2, Type 0, BuildingBlock: NAHDIM_clean_linker_0, # of connection points: 4
#     Node 3, Type 0, BuildingBlock: NAHDIM_clean_linker_0, # of connection points: 4
#     Node 4, Type 0, BuildingBlock: NAHDIM_clean_linker_0, # of connection points: 4
#     Node 5, Type 0, BuildingBlock: NAHDIM_clean_linker_0, # of connection points: 4
#     Node 6, Type 1, BuildingBlock: GALJAG_clean_sbu_0, # of connection points: 4
#     Node 7, Type 1, BuildingBlock: GALJAG_clean_sbu_0, # of connection points: 4
#     Node 8, Type 1, BuildingBlock: GALJAG_clean_sbu_0, # of connection points: 4
#     Node 9, Type 1, BuildingBlock: GALJAG_clean_sbu_0, # of connection points: 4
#     Node 10, Type 1, BuildingBlock: GALJAG_clean_sbu_0, # of connection points: 4
#     Node 11, Type 1, BuildingBlock: GALJAG_clean_sbu_0, # of connection points: 4
#     Edge 12, Type (0, 1), BuildingBlock: XIVTED_clean_linker_0, # of connection points: 2
#     Edge 13, Type (0, 1), BuildingBlock: XIVTED_clean_linker_0, # of connection points: 2
#     Edge 14, Type (0, 1), BuildingBlock: XIVTED_clean_linker_0, # of connection points: 2
#     Edge 15, Type (0, 1), BuildingBlock: XIVTED_clean_linker_0, # of connection points: 2
#     Edge 16, Type (0, 1), BuildingBlock: XIVTED_clean_linker_0, # of connection points: 2
#     Edge 17, Type (0, 1), BuildingBlock: XIVTED_clean_linker_0, # of connection points: 2
#     Edge 18, Type (0, 1), BuildingBlock: XIVTED_clean_linker_0, # of connection points: 2
#     Edge 19, Type (0, 1), BuildingBlock: XIVTED_clean_linker_0, # of connection points: 2
#     Edge 20, Type (0, 1), BuildingBlock: XIVTED_clean_linker_0, # of connection points: 2
#     Edge 21, Type (0, 1), BuildingBlock: XIVTED_clean_linker_0, # of connection points: 2
#     Edge 22, Type (0, 1), BuildingBlock: XIVTED_clean_linker_0, # of connection points: 2
#     Edge 23, Type (0, 1), BuildingBlock: XIVTED_clean_linker_0, # of connection points: 2
#     Edge 24, Type (0, 1), BuildingBlock: XIVTED_clean_linker_0, # of connection points: 2
#     Edge 25, Type (0, 1), BuildingBlock: XIVTED_clean_linker_0, # of connection points: 2
#     Edge 26, Type (0, 1), BuildingBlock: XIVTED_clean_linker_0, # of connection points: 2
#     Edge 27, Type (0, 1), BuildingBlock: XIVTED_clean_linker_0, # of connection points: 2
#     Edge 28, Type (0, 1), BuildingBlock: XIVTED_clean_linker_0, # of connection points: 2
#     Edge 29, Type (0, 1), BuildingBlock: XIVTED_clean_linker_0, # of connection points: 2
#     Edge 30, Type (0, 1), BuildingBlock: XIVTED_clean_linker_0, # of connection points: 2
#     Edge 31, Type (0, 1), BuildingBlock: XIVTED_clean_linker_0, # of connection points: 2
#     Edge 32, Type (0, 1), BuildingBlock: XIVTED_clean_linker_0, # of connection points: 2
#     Edge 33, Type (0, 1), BuildingBlock: XIVTED_clean_linker_0, # of connection points: 2
#     Edge 34, Type (0, 1), BuildingBlock: XIVTED_clean_linker_0, # of connection points: 2
#     Edge 35, Type (0, 1), BuildingBlock: XIVTED_clean_linker_0, # of connection points: 2
# Relax obj value: 0.026
# Max RMSD: 0.127
# Mean RMSD: 0.098
data_MOF--net-nom--node1-GALJAG_clean_sbu_0--node2-NAHDIM_clean_linker_0--edge1-XIVTED_clean_linker_0
_symmetry_space_group_name_H-M    P1
_symmetry_Int_Tables_number       1
_symmetry_cell_setting            triclinic
loop_
_symmetry_equiv_pos_as_xyz
'x, y, z'
_cell_length_a     57.71219
_cell_length_b     57.588588
_cell_length_c     72.181987
_cell_angle_alpha  90.133303
_cell_angle_beta   90.137052
_cell_angle_gamma 120.08703
loop_
_atom_site_label
_atom_site_type_symbol
_atom_site_fract_x
_atom_site_fract_y
_atom_site_fract_z
_atom_type_partial_charge
C0 C 0.16554 0.6905 0.2535 0.0
C1 C 0.17459 0.67072 0.25942 0.0
C2 C 0.14372 0.64423 0.28342 0.0
C3 C 0.13846 0.61791 0.2853 0.0
C4 C 0.11326 0.59753 0.29126 0.0
C5 C 0.09299 0.60382 0.2952 0.0
C6 C 0.09846 0.63059 0.29339 0.0
C7 C 0.12402 0.65061 0.28784 0.0
C8 C 0.10826 0.56931 0.29326 0.0
C9 C 0.07726 0.63805 0.2971 0.0
C10 C 0.00435 0.50682 0.20041 0.0
C11 C 0.97943 0.50722 0.20718 0.0
C12 C 0.98075 0.50522 0.24062 0.0
C13 C 0.98128 0.52891 0.24593 0.0
C14 C 0.99352 0.54189 0.26259 0.0
C15 C 0.00543 0.53089 0.27411 0.0
C16 C 0.0036 0.5062 0.26925 0.0
C17 C 0.99093 0.49347 0.2526 0.0
C18 C 0.99453 0.56784 0.2676 0.0
C19 C 0.01605 0.4939 0.28124 0.0
C20 C 0.90018 0.4793 0.37525 0.0
C21 C 0.90782 0.50415 0.3671 0.0
C22 C 0.9349 0.52261 0.36372 0.0
C23 C 0.95458 0.51566 0.36818 0.0
C24 C 0.94687 0.49081 0.37687 0.0
C25 C 0.91971 0.47311 0.38057 0.0
C26 C 0.94241 0.54941 0.35525 0.0
C27 C 0.96724 0.48273 0.3819 0.0
C28 C 0.14866 0.6708 0.42818 0.0
C29 C 0.12959 0.64046 0.42773 0.0
C30 C 0.08383 0.61762 0.41585 0.0
C31 C 0.06494 0.62391 0.40913 0.0
C32 C 0.04574 0.60744 0.39595 0.0
C33 C 0.04509 0.58377 0.38982 0.0
C34 C 0.06291 0.57629 0.39766 0.0
C35 C 0.08228 0.59344 0.4105 0.0
C36 C 0.02688 0.61589 0.38803 0.0
C37 C 0.06205 0.55063 0.392 0.0
C38 C 0.06578 0.5823 0.30052 0.0
C39 C 0.04863 0.56623 0.2864 0.0
C40 C 0.02219 0.54662 0.2901 0.0
C41 C 0.01232 0.54294 0.3084 0.0
C42 C 0.98566 0.52382 0.31255 0.0
C43 C 0.97609 0.52069 0.3306 0.0
C44 C 0.99279 0.53666 0.34517 0.0
C45 C 0.98311 0.53416 0.36349 0.0
C46 C 0.00054 0.54971 0.37772 0.0
C47 C 0.02744 0.56808 0.37414 0.0
C48 C 0.03726 0.57152 0.35582 0.0
C49 C 0.06402 0.59051 0.35164 0.0
C50 C 0.07348 0.59387 0.33359 0.0
C51 C 0.05654 0.57851 0.31899 0.0
C52 C 0.02961 0.55897 0.3229 0.0
C53 C 0.01989 0.55566 0.34132 0.0
C54 C 0.84508 0.42277 0.36 0.0
C55 C 0.85443 0.45214 0.36447 0.0
O56 O 0.16812 0.6637 0.27782 0.0
O57 O 0.10347 0.63547 0.42724 0.0
O58 O 0.87406 0.46098 0.37808 0.0
O59 O 0.97105 0.49367 0.22387 0.0
H60 H 0.16425 0.65242 0.25052 0.0
H61 H 0.14338 0.68067 0.25403 0.0
H62 H 0.17435 0.70832 0.26281 0.0
H63 H 0.17172 0.69723 0.23903 0.0
H64 H 0.15412 0.6134 0.28207 0.0
H65 H 0.12861 0.67125 0.2867 0.0
H66 H 0.09371 0.55626 0.28253 0.0
H67 H 0.1269 0.56833 0.29173 0.0
H68 H 0.09933 0.56111 0.30701 0.0
H69 H 0.08379 0.65899 0.29292 0.0
H70 H 0.05852 0.62424 0.28954 0.0
H71 H 0.07259 0.63602 0.31212 0.0
H72 H 0.98505 0.52862 0.20895 0.0
H73 H 0.01104 0.51731 0.1869 0.0
H74 H 0.02092 0.51733 0.21058 0.0
H75 H 0.00018 0.48587 0.19879 0.0
H76 H 0.97239 0.5374 0.23696 0.0
H77 H 0.99002 0.47493 0.24845 0.0
H78 H 0.01547 0.58468 0.26653 0.0
H79 H 0.98169 0.5721 0.25836 0.0
H80 H 0.98802 0.56715 0.28215 0.0
H81 H 0.01232 0.47428 0.27574 0.0
H82 H 0.03801 0.50778 0.28219 0.0
H83 H 0.00789 0.49096 0.29549 0.0
H84 H 0.86265 0.46373 0.35143 0.0
H85 H 0.89257 0.50911 0.36349 0.0
H86 H 0.91349 0.45393 0.38708 0.0
H87 H 0.94852 0.54975 0.34064 0.0
H88 H 0.92548 0.55342 0.35543 0.0
H89 H 0.95968 0.56586 0.36276 0.0
H90 H 0.95772 0.46173 0.38695 0.0
H91 H 0.97983 0.48486 0.3697 0.0
H92 H 0.98069 0.49627 0.39294 0.0
H93 H 0.1342 0.63288 0.41484 0.0
H94 H 0.16981 0.67541 0.42833 0.0
H95 H 0.14553 0.68006 0.41564 0.0
H96 H 0.14502 0.67989 0.44064 0.0
H97 H 0.06607 0.64242 0.41362 0.0
H98 H 0.0963 0.58805 0.41624 0.0
H99 H 0.02941 0.61812 0.37278 0.0
H100 H 0.00586 0.60012 0.39075 0.0
H101 H 0.0303 0.63514 0.39404 0.0
H102 H 0.07435 0.54572 0.40131 0.0
H103 H 0.04109 0.53364 0.39205 0.0
H104 H 0.06979 0.55269 0.37768 0.0
H105 H 0.05587 0.5693 0.27225 0.0
H106 H 0.97188 0.51115 0.30187 0.0
H107 H 0.95539 0.50563 0.33298 0.0
H108 H 0.99306 0.54756 0.39176 0.0
H109 H 0.07796 0.60313 0.36226 0.0
H110 H 0.09425 0.60875 0.33122 0.0
H111 H 0.83654 0.41008 0.3725 0.0
H112 H 0.82965 0.41527 0.34886 0.0
H113 H 0.8623 0.42088 0.35511 0.0
C114 C 0.37243 0.88137 0.58168 0.0
C115 C 0.37873 0.86695 0.56635 0.0
C116 C 0.39612 0.90004 0.54187 0.0
C117 C 0.42251 0.9054 0.53998 0.0
C118 C 0.44266 0.93034 0.53342 0.0
C119 C 0.43624 0.95036 0.52884 0.0
C120 C 0.40937 0.94458 0.53011 0.0
C121 C 0.38954 0.91924 0.53632 0.0
C122 C 0.47091 0.93551 0.53178 0.0
C123 C 0.40175 0.96544 0.52551 0.0
C124 C 0.56818 0.12803 0.61638 0.0
C125 C 0.55308 0.11499 0.59923 0.0
C126 C 0.53613 0.0735 0.58153 0.0
C127 C 0.51551 0.07553 0.57263 0.0
C128 C 0.50055 0.05786 0.55826 0.0
C129 C 0.50693 0.03834 0.5522 0.0
C130 C 0.52733 0.03591 0.56134 0.0
C131 C 0.54142 0.05334 0.57608 0.0
C132 C 0.47818 0.06038 0.54939 0.0
C133 C 0.53456 0.01523 0.55537 0.0
C134 C 0.56956 0.14539 0.45204 0.0
C135 C 0.54442 0.13788 0.4596 0.0
C136 C 0.52573 0.11077 0.46286 0.0
C137 C 0.53264 0.0909 0.45881 0.0
C138 C 0.5578 0.09848 0.45079 0.0
C139 C 0.57579 0.12567 0.44723 0.0
C140 C 0.49865 0.10341 0.47064 0.0
C141 C 0.56585 0.07792 0.44621 0.0
C142 C 0.38687 0.94346 0.37601 0.0
C143 C 0.41097 0.94028 0.38094 0.0
C144 C 0.44256 0.97593 0.40087 0.0
C145 C 0.43213 0.98992 0.41021 0.0
C146 C 0.44335 0.00297 0.42706 0.0
C147 C 0.46569 0.00218 0.43446 0.0
C148 C 0.47601 0.9877 0.42509 0.0
C149 C 0.46427 0.97474 0.40831 0.0
C150 C 0.43194 0.01831 0.43665 0.0
C151 C 0.49994 0.98669 0.43251 0.0
C152 C 0.45791 0.97791 0.52421 0.0
C153 C 0.4725 0.99483 0.53894 0.0
C154 C 0.4929 0.0212 0.53587 0.0
C155 C 0.49898 0.03119 0.51759 0.0
C156 C 0.51959 0.05755 0.51398 0.0
C157 C 0.52454 0.06768 0.49607 0.0
C158 C 0.50928 0.05177 0.48104 0.0
C159 C 0.51347 0.06223 0.46287 0.0
C160 C 0.49882 0.0455 0.44814 0.0
C161 C 0.47977 0.01854 0.45101 0.0
C162 C 0.47454 0.00795 0.46915 0.0
C163 C 0.45489 0.98115 0.47262 0.0
C164 C 0.44958 0.97113 0.49061 0.0
C165 C 0.46367 0.98756 0.50581 0.0
C166 C 0.48404 0.01444 0.50255 0.0
C167 C 0.48934 0.0247 0.48423 0.0
C168 C 0.62428 0.20377 0.46731 0.0
C169 C 0.5949 0.19207 0.4618 0.0
O170 O 0.37675 0.87664 0.54919 0.0
O171 O 0.43313 0.96538 0.38392 0.0
O172 O 0.58808 0.17149 0.44912 0.0
O173 O 0.55131 0.09059 0.59529 0.0
H174 H 0.39945 0.87082 0.56863 0.0
H175 H 0.38714 0.90322 0.58134 0.0
H176 H 0.35201 0.87843 0.57977 0.0
H177 H 0.37373 0.87362 0.5955 0.0
H178 H 0.42738 0.89012 0.54367 0.0
H179 H 0.36897 0.91469 0.53764 0.0
H180 H 0.48349 0.94974 0.54282 0.0
H181 H 0.47189 0.91681 0.53319 0.0
H182 H 0.47958 0.94488 0.51822 0.0
H183 H 0.3803 0.9583 0.52833 0.0
H184 H 0.41421 0.98399 0.53371 0.0
H185 H 0.40567 0.97082 0.51064 0.0
H186 H 0.55776 0.1283 0.58694 0.0
H187 H 0.53693 0.1271 0.63522 0.0
H188 H 0.58015 0.11808 0.62018 0.0
H189 H 0.58615 0.14726 0.61158 0.0
H190 H 0.5109 0.0908 0.57684 0.0
H191 H 0.55717 0.05174 0.58312 0.0
H192 H 0.46021 0.04028 0.5473 0.0
H193 H 0.47248 0.07285 0.55787 0.0
H194 H 0.48471 0.0699 0.5356 0.0
H195 H 0.55257 0.01762 0.56272 0.0
H196 H 0.51753 0.99486 0.55825 0.0
H197 H 0.53831 0.01662 0.54022 0.0
H198 H 0.58291 0.18428 0.47472 0.0
H199 H 0.53934 0.15319 0.46275 0.0
H200 H 0.59516 0.13176 0.44117 0.0
H201 H 0.49738 0.09677 0.48521 0.0
H202 H 0.49498 0.12059 0.4704 0.0
H203 H 0.48251 0.08648 0.46267 0.0
H204 H 0.58716 0.08735 0.44196 0.0
H205 H 0.56259 0.06485 0.45836 0.0
H206 H 0.55312 0.06491 0.43471 0.0
H207 H 0.40617 0.9279 0.39374 0.0
H208 H 0.36877 0.92359 0.37347 0.0
H209 H 0.3823 0.95313 0.38764 0.0
H210 H 0.39111 0.95603 0.36343 0.0
H211 H 0.41569 0.99122 0.40407 0.0
H212 H 0.4723 0.96408 0.40074 0.0
H213 H 0.42809 0.01243 0.45146 0.0
H214 H 0.44674 0.04012 0.43618 0.0
H215 H 0.41302 0.01481 0.4301 0.0
H216 H 0.50526 0.97419 0.42373 0.0
H217 H 0.51747 0.00733 0.43332 0.0
H218 H 0.49576 0.97841 0.44677 0.0
H219 H 0.46773 0.98743 0.55303 0.0
H220 H 0.53196 0.07078 0.52499 0.0
H221 H 0.54045 0.08821 0.49417 0.0
H222 H 0.50226 0.0536 0.43421 0.0
H223 H 0.44327 0.9677 0.46145 0.0
H224 H 0.43416 0.9504 0.4925 0.0
H225 H 0.63745 0.21197 0.455 0.0
H226 H 0.63021 0.22004 0.47773 0.0
H227 H 0.62728 0.18783 0.47352 0.0
C228 C 0.49904 0.35462 0.73616 0.0
C229 C 0.52565 0.3682 0.72568 0.0
C230 C 0.51715 0.39072 0.70077 0.0
C231 C 0.5378 0.41749 0.70137 0.0
C232 C 0.53326 0.43818 0.69568 0.0
C233 C 0.50735 0.43181 0.68963 0.0
C234 C 0.48661 0.40461 0.68872 0.0
C235 C 0.492 0.38434 0.69395 0.0
C236 C 0.55596 0.46684 0.69655 0.0
C237 C 0.45851 0.39692 0.68285 0.0
C238 C 0.4468 0.521 0.79486 0.0
C239 C 0.44776 0.5062 0.7784 0.0
C240 C 0.47349 0.51248 0.75029 0.0
C241 C 0.4534 0.48918 0.74149 0.0
C242 C 0.45814 0.48069 0.72443 0.0
C243 C 0.48352 0.49566 0.716 0.0
C244 C 0.5036 0.51942 0.72456 0.0
C245 C 0.49824 0.52762 0.74158 0.0
C246 C 0.43619 0.45534 0.7156 0.0
C247 C 0.53087 0.53577 0.71591 0.0
C248 C 0.43809 0.56306 0.61981 0.0
C249 C 0.42058 0.53583 0.62363 0.0
C250 C 0.43029 0.51796 0.62556 0.0
C251 C 0.45804 0.52757 0.6236 0.0
C252 C 0.47552 0.55475 0.61897 0.0
C253 C 0.46522 0.57211 0.61694 0.0
C254 C 0.41096 0.4889 0.62992 0.0
C255 C 0.50515 0.56555 0.61656 0.0
C256 C 0.4982 0.38006 0.55855 0.0
C257 C 0.50981 0.41018 0.55565 0.0
C258 C 0.48743 0.43258 0.56892 0.0
C259 C 0.46248 0.425 0.5766 0.0
C260 C 0.45994 0.44017 0.59085 0.0
C261 C 0.48292 0.46382 0.59715 0.0
C262 C 0.50789 0.47263 0.58844 0.0
C263 C 0.50992 0.45682 0.57443 0.0
C264 C 0.43292 0.4304 0.59965 0.0
C265 C 0.53256 0.49825 0.59438 0.0
C266 C 0.50132 0.45359 0.68586 0.0
C267 C 0.49754 0.46624 0.70113 0.0
C268 C 0.48947 0.48523 0.69895 0.0
C269 C 0.48515 0.49209 0.68099 0.0
C270 C 0.4766 0.51081 0.6783 0.0
C271 C 0.47159 0.51677 0.66058 0.0
C272 C 0.47477 0.50411 0.64488 0.0
C273 C 0.46881 0.5093 0.62685 0.0
C274 C 0.47216 0.49634 0.61156 0.0
C275 C 0.48117 0.47806 0.61376 0.0
C276 C 0.4872 0.47256 0.63167 0.0
C277 C 0.49615 0.45413 0.63438 0.0
C278 C 0.50136 0.44832 0.65208 0.0
C279 C 0.49743 0.4604 0.66777 0.0
C280 C 0.48904 0.47952 0.66535 0.0
C281 C 0.48386 0.48555 0.64728 0.0
C282 C 0.42207 0.60762 0.64055 0.0
C283 C 0.40988 0.58114 0.62977 0.0
O284 O 0.52102 0.37084 0.70716 0.0
O285 O 0.48923 0.41596 0.5564 0.0
O286 O 0.42948 0.58106 0.61875 0.0
O287 O 0.46984 0.52071 0.76716 0.0
H288 H 0.53877 0.38839 0.73193 0.0
H289 H 0.4894 0.36713 0.73535 0.0
H290 H 0.48518 0.33457 0.73008 0.0
H291 H 0.50244 0.35219 0.75102 0.0
H292 H 0.55737 0.42214 0.70641 0.0
H293 H 0.47629 0.36347 0.69351 0.0
H294 H 0.55256 0.47735 0.70822 0.0
H295 H 0.57564 0.46811 0.69867 0.0
H296 H 0.5567 0.47756 0.68359 0.0
H297 H 0.44404 0.37533 0.68528 0.0
H298 H 0.45163 0.4091 0.69051 0.0
H299 H 0.45826 0.40101 0.66787 0.0
H300 H 0.44293 0.48514 0.78092 0.0
H301 H 0.41131 0.52598 0.78935 0.0
H302 H 0.44806 0.50948 0.80708 0.0
H303 H 0.46759 0.53878 0.79698 0.0
H304 H 0.43401 0.47736 0.74791 0.0
H305 H 0.51357 0.54562 0.74838 0.0
H306 H 0.43311 0.45922 0.70099 0.0
H307 H 0.4422 0.4398 0.71546 0.0
H308 H 0.41689 0.44723 0.72309 0.0
H309 H 0.54417 0.55408 0.72411 0.0
H310 H 0.54055 0.52333 0.7147 0.0
H311 H 0.52876 0.54182 0.7017 0.0
H312 H 0.40268 0.56501 0.64039 0.0
H313 H 0.39935 0.5285 0.62506 0.0
H314 H 0.47848 0.59308 0.61368 0.0
H315 H 0.41547 0.4841 0.64389 0.0
H316 H 0.38978 0.48417 0.62965 0.0
H317 H 0.41338 0.47572 0.6198 0.0
H318 H 0.51616 0.58731 0.61327 0.0
H319 H 0.51366 0.56226 0.62944 0.0
H320 H 0.50845 0.55449 0.60522 0.0
H321 H 0.52448 0.42042 0.56711 0.0
H322 H 0.51434 0.37491 0.55796 0.0
H323 H 0.48858 0.37425 0.57238 0.0
H324 H 0.48288 0.36829 0.54781 0.0
H325 H 0.44519 0.4065 0.57196 0.0
H326 H 0.52907 0.46325 0.5679 0.0
H327 H 0.4341 0.42712 0.61469 0.0
H328 H 0.42701 0.44592 0.59818 0.0
H329 H 0.4171 0.4114 0.59331 0.0
H330 H 0.54963 0.50395 0.58482 0.0
H331 H 0.52813 0.51492 0.59504 0.0
H332 H 0.53864 0.49568 0.60848 0.0
H333 H 0.50008 0.46057 0.715 0.0
H334 H 0.47357 0.52095 0.68989 0.0
H335 H 0.46496 0.53127 0.65936 0.0
H336 H 0.46728 0.50019 0.5978 0.0
H337 H 0.49912 0.44384 0.62287 0.0
H338 H 0.5082 0.43399 0.65333 0.0
H339 H 0.40667 0.60823 0.64941 0.0
H340 H 0.43849 0.60947 0.64963 0.0
H341 H 0.43046 0.62501 0.63096 0.0
C342 C 0.15604 0.51461 0.91707 0.0
C343 C 0.17014 0.5306 0.89966 0.0
C344 C 0.13767 0.5093 0.87482 0.0
C345 C 0.13279 0.53002 0.86987 0.0
C346 C 0.10835 0.52422 0.86176 0.0
C347 C 0.08854 0.49719 0.85846 0.0
C348 C 0.09415 0.4764 0.8623 0.0
C349 C 0.11886 0.48281 0.87028 0.0
C350 C 0.1033 0.5469 0.85732 0.0
C351 C 0.07358 0.44737 0.85876 0.0
C352 C 0.93712 0.4431 0.95875 0.0
C353 C 0.95282 0.44343 0.9425 0.0
C354 C 0.97212 0.4678 0.91393 0.0
C355 C 0.97398 0.44678 0.90544 0.0
C356 C 0.98756 0.45074 0.88865 0.0
C357 C -0.00015 0.47632 0.88025 0.0
C358 C 0.99739 0.49732 0.88842 0.0
C359 C 0.98328 0.49268 0.90512 0.0
C360 C 0.98953 0.42778 0.88021 0.0
C361 C 0.01034 0.52482 0.8798 0.0
C362 C 0.89899 0.44662 0.77878 0.0
C363 C 0.90347 0.42666 0.78606 0.0
C364 C 0.92963 0.43164 0.78899 0.0
C365 C 0.95164 0.45745 0.78517 0.0
C366 C 0.94707 0.47732 0.7773 0.0
C367 C 0.92072 0.47141 0.77388 0.0
C368 C 0.93365 0.40944 0.79645 0.0
C369 C 0.96995 0.505 0.77293 0.0
C370 C 0.13737 0.47963 0.7254 0.0
C371 C 0.12044 0.49319 0.72407 0.0
C372 C 0.0754 0.47361 0.73676 0.0
C373 C 0.05564 0.44907 0.74383 0.0
C374 C 0.03771 0.44797 0.75735 0.0
C375 C 0.03928 0.47206 0.76355 0.0
C376 C 0.05808 0.49681 0.75549 0.0
C377 C 0.07608 0.49735 0.74222 0.0
C378 C 0.0177 0.4212 0.76549 0.0
C379 C 0.0596 0.52274 0.76127 0.0
C380 C 0.06105 0.49056 0.85319 0.0
C381 C 0.04382 0.4881 0.86754 0.0
C382 C 0.01744 0.48153 0.864 0.0
C383 C 0.00797 0.47792 0.84556 0.0
C384 C 0.98178 0.47208 0.84147 0.0
C385 C 0.97254 0.46813 0.82327 0.0
C386 C 0.98889 0.46909 0.80849 0.0
C387 C 0.97933 0.46401 0.79 0.0
C388 C 0.9962 0.46522 0.77568 0.0
C389 C 0.02253 0.47152 0.77929 0.0
C390 C 0.03245 0.47666 0.79768 0.0
C391 C 0.05884 0.48295 0.80181 0.0
C392 C 0.06839 0.48787 0.81995 0.0
C393 C 0.0518 0.48627 0.83467 0.0
C394 C 0.02514 0.47998 0.83085 0.0
C395 C 0.01551 0.47531 0.81232 0.0
C396 C 0.84075 0.4481 0.7919 0.0
C397 C 0.85369 0.43073 0.78951 0.0
O398 O 0.16012 0.51422 0.88415 0.0
O399 O 0.0936 0.47367 0.72486 0.0
O400 O 0.8739 0.44255 0.77649 0.0
O401 O 0.96017 0.46491 0.93066 0.0
H402 H 0.16621 0.5476 0.89888 0.0
H403 H 0.13437 0.50801 0.91634 0.0
H404 H 0.15809 0.4965 0.91833 0.0
H405 H 0.16459 0.5273 0.92964 0.0
H406 H 0.14792 0.55071 0.87246 0.0
H407 H 0.1231 0.46703 0.87381 0.0
H408 H 0.08782 0.5461 0.86684 0.0
H409 H 0.12168 0.56687 0.85876 0.0
H410 H 0.09548 0.54468 0.84296 0.0
H411 H 0.08155 0.43372 0.86159 0.0
H412 H 0.05589 0.4415 0.86772 0.0
H413 H 0.06662 0.44463 0.84415 0.0
H414 H 0.9692 0.43898 0.9454 0.0
H415 H 0.8968 0.40686 0.95382 0.0
H416 H 0.9497 0.44478 0.97123 0.0
H417 H 0.9404 0.46408 0.96022 0.0
H418 H 0.96516 0.42728 0.91193 0.0
H419 H 0.9816 0.50872 0.91166 0.0
H420 H 0.98395 0.42555 0.86531 0.0
H421 H 0.01054 0.43216 0.88116 0.0
H422 H 0.97645 0.40845 0.88731 0.0
H423 H 0.00574 0.53876 0.88748 0.0
H424 H 0.0324 0.53348 0.87951 0.0
H425 H 0.00343 0.52325 0.86524 0.0
H426 H 0.86224 0.43013 0.80327 0.0
H427 H 0.88652 0.40719 0.78938 0.0
H428 H 0.91693 0.48652 0.76804 0.0
H429 H 0.93902 0.41312 0.81136 0.0
H430 H 0.91525 0.38948 0.79505 0.0
H431 H 0.9503 0.40894 0.78912 0.0
H432 H 0.96288 0.51891 0.76858 0.0
H433 H 0.9832 0.51365 0.78523 0.0
H434 H 0.98216 0.50364 0.76158 0.0
H435 H 0.12615 0.50706 0.73618 0.0
H436 H 0.15904 0.49488 0.7249 0.0
H437 H 0.13331 0.46868 0.73874 0.0
H438 H 0.13251 0.46505 0.71388 0.0
H439 H 0.05502 0.43083 0.73925 0.0
H440 H 0.09073 0.5163 0.73618 0.0
H441 H 0.02081 0.4215 0.78069 0.0
H442 H 0.99708 0.41744 0.76313 0.0
H443 H 0.01931 0.40436 0.75935 0.0
H444 H 0.073 0.53972 0.75215 0.0
H445 H 0.03932 0.52046 0.76104 0.0
H446 H 0.0673 0.52777 0.77569 0.0
H447 H 0.05089 0.49079 0.88177 0.0
H448 H 0.9682 0.47066 0.85232 0.0
H449 H 0.95228 0.46399 0.82097 0.0
H450 H 0.98872 0.46117 0.76155 0.0
H451 H 0.07245 0.48414 0.79107 0.0
H452 H 0.08886 0.49268 0.82232 0.0
H453 H 0.83188 0.44968 0.7786 0.0
H454 H 0.8248 0.4394 0.80258 0.0
H455 H 0.85608 0.4686 0.79646 0.0
C456 C 0.55859 0.88831 0.90575 0.0
C457 C 0.53568 0.87701 0.91977 0.0
C458 C 0.54862 0.90973 0.94452 0.0
C459 C 0.52662 0.91362 0.94605 0.0
C460 C 0.52983 0.93786 0.95297 0.0
C461 C 0.55566 0.95866 0.95823 0.0
C462 C 0.57776 0.9544 0.95716 0.0
C463 C 0.57381 0.9297 0.95061 0.0
C464 C 0.5057 0.94141 0.95432 0.0
C465 C 0.60563 0.97618 0.96243 0.0
C466 C 0.56353 0.1025 0.86086 0.0
C467 C 0.55397 0.08727 0.87831 0.0
C468 C 0.57144 0.07574 0.90547 0.0
C469 C 0.59452 0.07993 0.91472 0.0
C470 C 0.59294 0.0647 0.93032 0.0
C471 C 0.56753 0.04513 0.937 0.0
C472 C 0.54404 0.04108 0.92791 0.0
C473 C 0.54621 0.05627 0.91216 0.0
C474 C 0.61843 0.06929 0.9395 0.0
C475 C 0.51661 0.02048 0.93471 0.0
C476 C 0.5903 0.14286 0.03926 0.0
C477 C 0.61114 0.13959 0.03226 0.0
C478 C 0.60738 0.11387 0.02909 0.0
C479 C 0.58193 0.09103 0.0324 0.0
C480 C 0.56115 0.09435 0.03998 0.0
C481 C 0.56583 0.1203 0.04364 0.0
C482 C 0.6305 0.11118 0.02197 0.0
C483 C 0.53382 0.07057 0.04381 0.0
C484 C 0.55936 0.90662 0.09499 0.0
C485 C 0.54637 0.92413 0.09563 0.0
C486 C 0.56682 0.9686 0.08169 0.0
C487 C 0.59163 0.98812 0.07486 0.0
C488 C 0.59338 0.00576 0.06084 0.0
C489 C 0.56967 0.00407 0.05382 0.0
C490 C 0.54458 0.98536 0.06145 0.0
C491 C 0.5434 0.96777 0.07532 0.0
C492 C 0.62046 0.02569 0.05316 0.0
C493 C 0.51901 0.98366 0.05469 0.0
C494 C 0.55982 0.98541 0.96355 0.0
C495 C 0.56173 0.00261 0.94927 0.0
C496 C 0.56551 0.02808 0.95301 0.0
C497 C 0.56753 0.03685 0.97156 0.0
C498 C 0.57072 0.06212 0.97586 0.0
C499 C 0.57336 0.07083 0.99414 0.0
C500 C 0.57314 0.05471 0.00884 0.0
C501 C 0.57681 0.06379 0.02744 0.0
C502 C 0.57572 0.04692 0.04173 0.0
C503 C 0.57099 0.02107 0.03799 0.0
C504 C 0.56774 0.01181 0.01947 0.0
C505 C 0.56327 0.98602 0.0152 0.0
C506 C 0.56035 0.97719 0.99692 0.0
C507 C 0.56209 0.99391 0.9822 0.0
C508 C 0.56618 0.01983 0.98619 0.0
C509 C 0.569 0.02878 0.00485 0.0
C510 C 0.58892 0.20197 0.02704 0.0
C511 C 0.60593 0.18867 0.02951 0.0
O512 O 0.54596 0.8868 0.93727 0.0
O513 O 0.56619 0.95085 0.0943 0.0
O514 O 0.59317 0.1675 0.04177 0.0
O515 O 0.57437 0.09068 0.89017 0.0
H516 H 0.52121 0.88349 0.91555 0.0
H517 H 0.56882 0.91058 0.90576 0.0
H518 H 0.57348 0.88217 0.90937 0.0
H519 H 0.55078 0.88104 0.89156 0.0
H520 H 0.50697 0.8977 0.94183 0.0
H521 H 0.59056 0.92624 0.94955 0.0
H522 H 0.50694 0.95557 0.94345 0.0
H523 H 0.48663 0.92216 0.95243 0.0
H524 H 0.50536 0.95017 0.96798 0.0
H525 H 0.62089 0.97024 0.95968 0.0
H526 H 0.61104 0.99477 0.95458 0.0
H527 H 0.60628 0.98096 0.97739 0.0
H528 H 0.53725 0.08828 0.88524 0.0
H529 H 0.55129 0.07051 0.83919 0.0
H530 H 0.55586 0.11708 0.86116 0.0
H531 H 0.58516 0.11849 0.86307 0.0
H532 H 0.61387 0.09496 0.90947 0.0
H533 H 0.52813 0.05276 0.90517 0.0
H534 H 0.61956 0.07686 0.95382 0.0
H535 H 0.61843 0.05005 0.94049 0.0
H536 H 0.63659 0.084 0.93187 0.0
H537 H 0.50039 0.02213 0.92763 0.0
H538 H 0.51344 8e-05 0.93213 0.0
H539 H 0.51508 0.02269 0.94988 0.0
H540 H 0.60737 0.18102 0.01559 0.0
H541 H 0.63037 0.15713 0.02937 0.0
H542 H 0.55003 0.12314 0.04926 0.0
H543 H 0.62751 0.1061 0.00699 0.0
H544 H 0.64995 0.13009 0.02372 0.0
H545 H 0.63155 0.09477 0.02926 0.0
H546 H 0.51907 0.07672 0.04776 0.0
H547 H 0.5262 0.05736 0.0314 0.0
H548 H 0.53532 0.0586 0.05529 0.0
H549 H 0.53257 0.91799 0.08348 0.0
H550 H 0.54385 0.88506 0.0961 0.0
H551 H 0.57 0.90966 0.08163 0.0
H552 H 0.57408 0.91191 0.10645 0.0
H553 H 0.6096 0.98887 0.08011 0.0
H554 H 0.52422 0.95338 0.08115 0.0
H555 H 0.62098 0.02208 0.03808 0.0
H556 H 0.62395 0.04637 0.05488 0.0
H557 H 0.637 0.02442 0.06009 0.0
H558 H 0.50137 0.96944 0.06297 0.0
H559 H 0.52087 0.0038 0.05528 0.0
H560 H 0.51545 0.97697 0.04 0.0
H561 H 0.56024 0.99605 0.93498 0.0
H562 H 0.5713 0.07548 0.96511 0.0
H563 H 0.57576 0.09047 0.99657 0.0
H564 H 0.57852 0.05396 0.05596 0.0
H565 H 0.56205 0.97236 0.02594 0.0
H566 H 0.55691 0.95715 0.99446 0.0
H567 H 0.58632 0.20982 0.04049 0.0
H568 H 0.59851 0.21879 0.01702 0.0
H569 H 0.56883 0.18708 0.02158 0.0
C570 C 0.63091 0.48453 0.07585 0.0
C571 C 0.63946 0.48001 0.095 0.0
C572 C 0.63349 0.51212 0.11391 0.0
C573 C 0.60614 0.49538 0.11788 0.0
C574 C 0.59093 0.50596 0.12527 0.0
C575 C 0.60314 0.53387 0.12853 0.0
C576 C 0.63083 0.55067 0.12519 0.0
C577 C 0.64572 0.53946 0.11815 0.0
C578 C 0.56155 0.48739 0.12908 0.0
C579 C 0.64441 0.58056 0.12842 0.0
C580 C 0.52064 0.5975 0.02469 0.0
C581 C 0.5352 0.59679 0.04136 0.0
C582 C 0.52728 0.57571 0.07165 0.0
C583 C 0.55178 0.5953 0.07937 0.0
C584 C 0.56052 0.59114 0.09652 0.0
C585 C 0.54469 0.56674 0.10601 0.0
C586 C 0.51962 0.54733 0.09859 0.0
C587 C 0.51108 0.55227 0.08157 0.0
C588 C 0.5872 0.61245 0.10416 0.0
C589 C 0.50241 0.52096 0.10826 0.0
C590 C 0.47721 0.60111 0.20717 0.0
C591 C 0.5028 0.62058 0.20126 0.0
C592 C 0.5229 0.614 0.19851 0.0
C593 C 0.5169 0.58719 0.20121 0.0
C594 C 0.49134 0.5678 0.20783 0.0
C595 C 0.47195 0.5752 0.21105 0.0
C596 C 0.55031 0.63555 0.19236 0.0
C597 C 0.48426 0.53909 0.21105 0.0
C598 C 0.66677 0.54312 0.25945 0.0
C599 C 0.63682 0.53267 0.26188 0.0
C600 C 0.61562 0.55703 0.24986 0.0
C601 C 0.62337 0.58256 0.24306 0.0
C602 C 0.60796 0.58626 0.2296 0.0
C603 C 0.58393 0.56387 0.22318 0.0
C604 C 0.57502 0.53827 0.23102 0.0
C605 C 0.59104 0.53509 0.24427 0.0
C606 C 0.61783 0.6139 0.22173 0.0
C607 C 0.54899 0.51417 0.22498 0.0
C608 C 0.58625 0.54559 0.1335 0.0
C609 C 0.57334 0.55062 0.11904 0.0
C610 C 0.55599 0.5604 0.12241 0.0
C611 C 0.55085 0.5649 0.14081 0.0
C612 C 0.53275 0.5738 0.14475 0.0
C613 C 0.52773 0.57797 0.16296 0.0
C614 C 0.54131 0.57427 0.17787 0.0
C615 C 0.53687 0.57909 0.19642 0.0
C616 C 0.55101 0.57556 0.21085 0.0
C617 C 0.56926 0.56688 0.20733 0.0
C618 C 0.57361 0.56147 0.18893 0.0
C619 C 0.59151 0.55225 0.18493 0.0
C620 C 0.59546 0.54673 0.16682 0.0
C621 C 0.58217 0.55082 0.15197 0.0
C622 C 0.56424 0.56036 0.15564 0.0
C623 C 0.55973 0.56539 0.17416 0.0
C624 C 0.42165 0.60519 0.19134 0.0
C625 C 0.45144 0.62112 0.19626 0.0
O626 O 0.64865 0.50291 0.10583 0.0
O627 O 0.63242 0.55422 0.26161 0.0
O628 O 0.45712 0.60667 0.20898 0.0
O629 O 0.51895 0.57851 0.0546 0.0
H630 H 0.62193 0.46282 0.1016 0.0
H631 H 0.61377 0.48808 0.07721 0.0
H632 H 0.64764 0.50224 0.069 0.0
H633 H 0.62447 0.46654 0.06693 0.0
H634 H 0.59628 0.47407 0.11521 0.0
H635 H 0.66686 0.5522 0.11524 0.0
H636 H 0.54942 0.49143 0.11902 0.0
H637 H 0.55576 0.46591 0.12792 0.0
H638 H 0.55649 0.49116 0.14319 0.0
H639 H 0.66622 0.59081 0.12552 0.0
H640 H 0.63514 0.58928 0.11939 0.0
H641 H 0.64148 0.58469 0.143 0.0
H642 H 0.55421 0.59672 0.03878 0.0
H643 H 0.52477 0.63829 0.02599 0.0
H644 H 0.5289 0.59081 0.01298 0.0
H645 H 0.50042 0.57851 0.02462 0.0
H646 H 0.56438 0.61375 0.072 0.0
H647 H 0.49213 0.53737 0.07558 0.0
H648 H 0.58527 0.61624 0.11902 0.0
H649 H 0.60182 0.60532 0.10321 0.0
H650 H 0.59533 0.63166 0.09649 0.0
H651 H 0.48322 0.50815 0.10083 0.0
H652 H 0.51346 0.50984 0.10937 0.0
H653 H 0.49793 0.52466 0.12255 0.0
H654 H 0.46257 0.62358 0.18312 0.0
H655 H 0.50702 0.64089 0.19879 0.0
H656 H 0.45218 0.56047 0.21585 0.0
H657 H 0.55303 0.63256 0.1775 0.0
H658 H 0.55311 0.65598 0.19409 0.0
H659 H 0.56613 0.63431 0.20034 0.0
H660 H 0.46285 0.52601 0.21473 0.0
H661 H 0.48859 0.53086 0.19844 0.0
H662 H 0.49677 0.53837 0.22249 0.0
H663 H 0.62658 0.51887 0.24998 0.0
H664 H 0.67085 0.52619 0.2596 0.0
H665 H 0.67352 0.55358 0.24595 0.0
H666 H 0.67855 0.55751 0.27068 0.0
H667 H 0.64215 0.59943 0.24776 0.0
H668 H 0.58447 0.51546 0.25014 0.0
H669 H 0.62098 0.61362 0.20658 0.0
H670 H 0.60247 0.61988 0.2238 0.0
H671 H 0.63688 0.62926 0.22826 0.0
H672 H 0.54338 0.49643 0.23389 0.0
H673 H 0.5326 0.51896 0.22529 0.0
H674 H 0.55087 0.50885 0.21049 0.0
H675 H 0.57691 0.5469 0.10486 0.0
H676 H 0.52204 0.57735 0.13381 0.0
H677 H 0.51325 0.5844 0.16515 0.0
H678 H 0.54766 0.57948 0.22502 0.0
H679 H 0.60257 0.54903 0.19577 0.0
H680 H 0.60929 0.53948 0.16457 0.0
H681 H 0.40916 0.60153 0.20388 0.0
H682 H 0.41662 0.61627 0.18099 0.0
H683 H 0.41672 0.5855 0.18524 0.0
In684 In 0.62663 0.41457 0.40923 0.0
O685 O 0.67154 0.43729 0.4165 0.0
O686 O 0.6592 0.4169 0.39062 0.0
C687 C 0.60392 0.42716 0.43695 0.0
C688 C 0.61509 0.43722 0.38084 0.0
C689 C 0.60959 0.36313 0.41849 0.0
O690 O 0.62904 0.43743 0.43565 0.0
O691 O 0.59049 0.41119 0.42401 0.0
O692 O 0.60442 0.3692 0.4028 0.0
O693 O 0.62309 0.38277 0.42913 0.0
C694 C 0.67832 0.43116 0.40144 0.0
O695 O 0.60511 0.41206 0.38203 0.0
O696 O 0.63018 0.45059 0.39415 0.0
In697 In 0.22519 0.61372 0.57563 0.0
O698 O 0.26416 0.61559 0.56668 0.0
O699 O 0.23708 0.58254 0.58298 0.0
C700 C 0.19509 0.60233 0.5446 0.0
C701 C 0.19437 0.59236 0.60594 0.0
C702 C 0.25391 0.66793 0.57805 0.0
O703 O 0.21665 0.60171 0.54499 0.0
O704 O 0.18851 0.60787 0.5599 0.0
O705 O 0.25956 0.6529 0.58735 0.0
O706 O 0.23332 0.65565 0.56802 0.0
C707 C 0.25955 0.59458 0.57514 0.0
O708 O 0.21305 0.61649 0.60537 0.0
O709 O 0.19093 0.57932 0.59114 0.0
In710 In 0.63631 0.22542 0.74561 0.0
O711 O 0.68109 0.25101 0.73819 0.0
O712 O 0.66913 0.25361 0.76544 0.0
C713 C 0.6274 0.1979 0.71359 0.0
C714 C 0.61575 0.18652 0.7714 0.0
C715 C 0.60985 0.25317 0.74237 0.0
O716 O 0.64084 0.22322 0.71437 0.0
O717 O 0.61983 0.18648 0.72908 0.0
O718 O 0.62232 0.25377 0.75686 0.0
O719 O 0.61028 0.23829 0.72979 0.0
C720 C 0.688 0.26161 0.75403 0.0
O721 O 0.60307 0.19742 0.76509 0.0
O722 O 0.63875 0.19507 0.76455 0.0
In723 In 0.42195 0.62199 0.90918 0.0
O724 O 0.37882 0.58974 0.91552 0.0
O725 O 0.38509 0.62581 0.90324 0.0
C726 C 0.44551 0.6137 0.9387 0.0
C727 C 0.42975 0.5981 0.87941 0.0
C728 C 0.44488 0.67588 0.91075 0.0
O729 O 0.42208 0.61011 0.93918 0.0
O730 O 0.45694 0.62097 0.92317 0.0
O731 O 0.43785 0.66306 0.89561 0.0
O732 O 0.4402 0.66152 0.92496 0.0
C733 C 0.3685 0.60291 0.90928 0.0
O734 O 0.44158 0.62325 0.88128 0.0
O735 O 0.4146 0.58522 0.89265 0.0
In736 In 0.81094 0.40442 0.07484 0.0
O737 O 0.83197 0.39922 0.10014 0.0
O738 O 0.83981 0.43844 0.09358 0.0
C739 C 0.77514 0.35281 0.06664 0.0
C740 C 0.77689 0.42302 0.08003 0.0
C741 C 0.84476 0.41661 0.04617 0.0
O742 O 0.78368 0.3603 0.08295 0.0
O743 O 0.78497 0.37114 0.05468 0.0
O744 O 0.82834 0.42499 0.04729 0.0
O745 O 0.84449 0.40264 0.05971 0.0
C746 C 0.84431 0.42387 0.10427 0.0
O747 O 0.79658 0.43432 0.06917 0.0
O748 O 0.77465 0.40271 0.08822 0.0
In749 In 0.42521 0.81502 0.24035 0.0
O750 O 0.4444 0.79089 0.25114 0.0
O751 O 0.43867 0.792 0.22216 0.0
C752 C 0.42764 0.84454 0.27008 0.0
C753 C 0.44823 0.85186 0.21339 0.0
C754 C 0.37316 0.77685 0.24147 0.0
O755 O 0.44609 0.83941 0.26662 0.0
O756 O 0.40894 0.83565 0.25833 0.0
O757 O 0.38262 0.79395 0.2286 0.0
O758 O 0.39003 0.77873 0.2534 0.0
C759 C 0.4467 0.78327 0.23517 0.0
O760 O 0.42384 0.8338 0.21295 0.0
O761 O 0.46075 0.85195 0.22779 0.0
H762 H 0.20123 0.67581 0.22704 0.0
H763 H 0.3473 0.74785 0.27201 0.0
H764 H 0.21596 0.69531 0.28523 0.0
H765 H 0.33338 0.76264 0.21562 0.0
H766 H 0.29896 0.7194 0.2762 0.0
H767 H 0.24981 0.69916 0.22187 0.0
C768 C 0.21469 0.68467 0.23873 0.0
C769 C 0.20449 0.68326 0.2566 0.0
C770 C 0.30654 0.72874 0.26288 0.0
C771 C 0.25981 0.70981 0.25081 0.0
C772 C 0.33408 0.74484 0.26044 0.0
C773 C 0.34428 0.75771 0.24346 0.0
C774 C 0.28912 0.72515 0.24817 0.0
C775 C 0.32626 0.75318 0.22895 0.0
C776 C 0.24229 0.69803 0.23577 0.0
C777 C 0.22279 0.69545 0.27127 0.0
N778 N 0.29947 0.73722 0.23163 0.0
N779 N 0.24954 0.70808 0.26805 0.0
H780 H 0.60105 0.21006 0.42551 0.0
H781 H 0.604 0.34436 0.45352 0.0
H782 H 0.58063 0.22456 0.48008 0.0
H783 H 0.59729 0.31938 0.39644 0.0
H784 H 0.59528 0.30022 0.46327 0.0
H785 H 0.5995 0.24936 0.41411 0.0
C786 C 0.59567 0.22118 0.43499 0.0
C787 C 0.59057 0.21384 0.45373 0.0
C788 C 0.5954 0.3042 0.44861 0.0
C789 C 0.58955 0.25916 0.44092 0.0
C790 C 0.60046 0.32943 0.44303 0.0
C791 C 0.60151 0.33551 0.42416 0.0
C792 C 0.59189 0.28497 0.43521 0.0
C793 C 0.59662 0.31541 0.41114 0.0
C794 C 0.59486 0.24362 0.42849 0.0
C795 C 0.58437 0.22935 0.4655 0.0
N796 N 0.5924 0.29108 0.41691 0.0
N797 N 0.58427 0.25138 0.45896 0.0
H798 H 0.35614 0.54673 0.63518 0.0
H799 H 0.31083 0.61946 0.56186 0.0
H800 H 0.41088 0.60823 0.59801 0.0
H801 H 0.25575 0.55323 0.5959 0.0
H802 H 0.34702 0.61193 0.57195 0.0
H803 H 0.31859 0.5452 0.61836 0.0
C804 C 0.3602 0.55964 0.62329 0.0
C805 C 0.38662 0.57768 0.61799 0.0
C806 C 0.32695 0.59877 0.577 0.0
C807 C 0.34378 0.5764 0.59882 0.0
C808 C 0.30626 0.60301 0.57118 0.0
C809 C 0.28032 0.58713 0.57821 0.0
C810 C 0.32168 0.57866 0.59006 0.0
C811 C 0.27551 0.56608 0.59024 0.0
C812 C 0.33878 0.5588 0.61369 0.0
C813 C 0.39078 0.59405 0.60253 0.0
N814 N 0.29606 0.56269 0.59598 0.0
N815 N 0.3696 0.59323 0.59361 0.0
H816 H 0.82382 0.38766 0.8118 0.0
H817 H 0.72996 0.29112 0.73051 0.0
H818 H 0.83515 0.41055 0.75425 0.0
H819 H 0.70812 0.28129 0.78827 0.0
H820 H 0.7734 0.33025 0.73874 0.0
H821 H 0.78613 0.34384 0.80305 0.0
C822 C 0.81864 0.38322 0.79728 0.0
C823 C 0.83279 0.4026 0.78372 0.0
C824 C 0.75914 0.31933 0.74959 0.0
C825 C 0.78944 0.35271 0.7736 0.0
C826 C 0.73446 0.29697 0.74492 0.0
C827 C 0.71538 0.28313 0.75872 0.0
C828 C 0.76478 0.32764 0.76819 0.0
C829 C 0.72217 0.29153 0.77718 0.0
C830 C 0.79707 0.3583 0.79229 0.0
C831 C 0.82497 0.39603 0.76511 0.0
N832 N 0.74625 0.31328 0.78136 0.0
N833 N 0.80375 0.37163 0.76059 0.0
H834 H 0.54336 0.84228 0.94227 0.0
H835 H 0.44836 0.7107 0.88368 0.0
H836 H 0.49642 0.8429 0.89585 0.0
H837 H 0.47061 0.70802 0.94042 0.0
H838 H 0.4699 0.75969 0.88613 0.0
H839 H 0.52076 0.79335 0.94015 0.0
C840 C 0.52806 0.83211 0.93178 0.0
C841 C 0.52125 0.84664 0.91948 0.0
C842 C 0.46998 0.74833 0.89804 0.0
C843 C 0.49599 0.79073 0.91663 0.0
C844 C 0.45781 0.72044 0.89663 0.0
C845 C 0.45771 0.70536 0.91188 0.0
C846 C 0.48248 0.76118 0.91471 0.0
C847 C 0.47017 0.71892 0.92835 0.0
C848 C 0.51524 0.80419 0.93054 0.0
C849 C 0.50186 0.83239 0.9058 0.0
N850 N 0.4822 0.74609 0.9293 0.0
N851 N 0.48996 0.80522 0.90469 0.0
H852 H 0.69202 0.51206 0.08396 0.0
H853 H 0.72994 0.3976 0.09887 0.0
H854 H 0.63603 0.43152 0.10168 0.0
H855 H 0.77962 0.46927 0.0674 0.0
H856 H 0.69729 0.4122 0.10292 0.0
H857 H 0.72639 0.49911 0.08047 0.0
C858 C 0.68704 0.49171 0.08716 0.0
C859 C 0.66122 0.47285 0.0932 0.0
C860 C 0.71532 0.42478 0.09512 0.0
C861 C 0.70022 0.45798 0.0893 0.0
C862 C 0.73401 0.41649 0.09285 0.0
C863 C 0.75747 0.43224 0.08275 0.0
C864 C 0.72015 0.44913 0.08736 0.0
C865 C 0.7617 0.45651 0.07523 0.0
C866 C 0.70657 0.48433 0.08513 0.0
C867 C 0.65571 0.44673 0.0971 0.0
N868 N 0.7432 0.46428 0.07772 0.0
N869 N 0.67505 0.44011 0.09514 0.0
H870 H 0.32738 0.83717 0.55204 0.0
H871 H 0.30124 0.69862 0.59641 0.0
H872 H 0.38601 0.82918 0.58425 0.0
H873 H 0.2461 0.70428 0.55877 0.0
H874 H 0.33124 0.74706 0.59379 0.0
H875 H 0.29621 0.78899 0.55562 0.0
C876 C 0.33378 0.82518 0.55967 0.0
C877 C 0.35956 0.83702 0.56746 0.0
C878 C 0.31254 0.73774 0.58615 0.0
C879 C 0.3238 0.78209 0.57206 0.0
C880 C 0.29535 0.7101 0.58771 0.0
C881 C 0.27117 0.69743 0.57777 0.0
C882 C 0.30549 0.75285 0.57459 0.0
C883 C 0.26457 0.71327 0.56667 0.0
C884 C 0.31595 0.79774 0.5618 0.0
C885 C 0.36653 0.82072 0.57769 0.0
N886 N 0.28166 0.74015 0.56533 0.0
N887 N 0.3488 0.79411 0.57967 0.0
H888 H 0.55986 0.37133 0.75311 0.0
H889 H 0.58325 0.25572 0.71185 0.0
H890 H 0.52117 0.32676 0.70344 0.0
H891 H 0.60701 0.28772 0.76716 0.0
H892 H 0.5631 0.28387 0.7075 0.0
H893 H 0.58014 0.34319 0.75749 0.0
C894 C 0.55596 0.35583 0.74301 0.0
C895 C 0.53938 0.35182 0.72766 0.0
C896 C 0.57258 0.28463 0.72063 0.0
C897 C 0.56212 0.3193 0.73269 0.0
C898 C 0.58408 0.26857 0.72313 0.0
C899 C 0.59675 0.26936 0.73992 0.0
C900 C 0.57387 0.30173 0.73499 0.0
C901 C 0.59741 0.2865 0.75401 0.0
C902 C 0.56737 0.33969 0.74557 0.0
C903 C 0.53433 0.33098 0.71523 0.0
N904 N 0.58618 0.30207 0.75121 0.0
N905 N 0.54579 0.31561 0.71797 0.0
H906 H 0.2102 0.58339 0.90161 0.0
H907 H 0.32871 0.55152 0.91604 0.0
H908 H 0.19778 0.50303 0.90068 0.0
H909 H 0.34202 0.62965 0.9007 0.0
H910 H 0.28036 0.53371 0.91371 0.0
H911 H 0.25845 0.60111 0.90429 0.0
C912 C 0.21767 0.56949 0.90196 0.0
C913 C 0.2 0.54171 0.90097 0.0
C914 C 0.29387 0.55474 0.91086 0.0
C915 C 0.2551 0.56179 0.90417 0.0
C916 C 0.32143 0.56494 0.91227 0.0
C917 C 0.33933 0.59208 0.90855 0.0
C918 C 0.28419 0.57191 0.9059 0.0
C919 C 0.32888 0.60858 0.90365 0.0
C920 C 0.24518 0.5796 0.90347 0.0
C921 C 0.21074 0.52458 0.90149 0.0
N922 N 0.30197 0.59824 0.90252 0.0
N923 N 0.23761 0.53489 0.90314 0.0
H924 H 0.62262 0.20694 0.0653 0.0
H925 H 0.76127 0.33022 0.03237 0.0
H926 H 0.6515 0.2175 0.00918 0.0
H927 H 0.74002 0.31337 0.09001 0.0
H928 H 0.7224 0.28723 0.02403 0.0
H929 H 0.66635 0.24398 0.07518 0.0
C930 C 0.63837 0.21675 0.05515 0.0
C931 C 0.63359 0.20902 0.03643 0.0
C932 C 0.72632 0.29271 0.03853 0.0
C933 C 0.68335 0.25169 0.0475 0.0
C934 C 0.74852 0.31728 0.04329 0.0
C935 C 0.75371 0.3254 0.06189 0.0
C936 C 0.70887 0.27625 0.05244 0.0
C937 C 0.73667 0.30783 0.0755 0.0
C938 C 0.66327 0.23791 0.06076 0.0
C939 C 0.65446 0.2227 0.02376 0.0
N940 N 0.71476 0.28418 0.07049 0.0
N941 N 0.67833 0.24347 0.0295 0.0
H942 H 0.47501 0.66932 0.17825 0.0
H943 H 0.44888 0.74796 0.25963 0.0
H944 H 0.44288 0.63429 0.23147 0.0
H945 H 0.46396 0.77364 0.20267 0.0
H946 H 0.45638 0.7107 0.25179 0.0
H947 H 0.48081 0.71206 0.18931 0.0
C948 C 0.46963 0.67081 0.19239 0.0
C949 C 0.45856 0.64833 0.20399 0.0
C950 C 0.45841 0.72475 0.2411 0.0
C951 C 0.46465 0.69699 0.21668 0.0
C952 C 0.45429 0.74606 0.24558 0.0
C953 C 0.45551 0.76364 0.23171 0.0
C954 C 0.46399 0.72129 0.22267 0.0
C955 C 0.46251 0.76031 0.21372 0.0
C956 C 0.47283 0.69515 0.19869 0.0
C957 C 0.45164 0.65124 0.22215 0.0
N958 N 0.4663 0.73943 0.2097 0.0
N959 N 0.45461 0.67509 0.2279 0.0
H960 H 0.8207 0.46112 0.34304 0.0
H961 H 0.72154 0.44833 0.42483 0.0
H962 H 0.83401 0.44791 0.39991 0.0
H963 H 0.69831 0.43201 0.36731 0.0
H964 H 0.76675 0.45781 0.4164 0.0
H965 H 0.77958 0.46032 0.35233 0.0
C966 C 0.81519 0.45855 0.35754 0.0
C967 C 0.83096 0.45495 0.37075 0.0
C968 C 0.75174 0.45233 0.40566 0.0
C969 C 0.78378 0.45363 0.38146 0.0
C970 C 0.72606 0.44705 0.41043 0.0
C971 C 0.7062 0.43919 0.39675 0.0
C972 C 0.75756 0.45014 0.38706 0.0
C973 C 0.713 0.43777 0.37831 0.0
C974 C 0.79168 0.45795 0.36282 0.0
C975 C 0.82264 0.45117 0.38933 0.0
N976 N 0.73808 0.44317 0.37401 0.0
N977 N 0.79957 0.45059 0.39414 0.0
H978 H 0.16088 0.61722 0.43047 0.0
H979 H 0.14909 0.60428 0.54073 0.0
H980 H 0.11 0.63601 0.46322 0.0
H981 H 0.20794 0.59603 0.50911 0.0
H982 H 0.12889 0.60774 0.51189 0.0
H983 H 0.1729 0.60169 0.4585 0.0
C984 C 0.15188 0.61759 0.44354 0.0
C985 C 0.13424 0.62764 0.44453 0.0
C986 C 0.14604 0.60488 0.51123 0.0
C987 C 0.14818 0.61037 0.47667 0.0
C988 C 0.15754 0.60282 0.5277 0.0
C989 C 0.18042 0.60018 0.5273 0.0
C990 C 0.15754 0.60439 0.49422 0.0
C991 C 0.19042 0.59824 0.51003 0.0
C992 C 0.1588 0.60884 0.45952 0.0
C993 C 0.12344 0.62812 0.46183 0.0
N994 N 0.17909 0.60067 0.49416 0.0
N995 N 0.13068 0.61973 0.47722 0.0
H996 H 0.54199 0.16073 0.6022 0.0
H997 H 0.59994 0.14352 0.70806 0.0
H998 H 0.52522 0.07088 0.62953 0.0
H999 H 0.6305 0.21873 0.67915 0.0
H1000 H 0.57568 0.11982 0.67992 0.0
H1001 H 0.57669 0.18552 0.63379 0.0
C1002 C 0.54348 0.1489 0.61326 0.0
C1003 C 0.5327 0.11277 0.61067 0.0
C1004 C 0.5881 0.14146 0.67967 0.0
C1005 C 0.57157 0.14325 0.64791 0.0
C1006 C 0.60199 0.155 0.69569 0.0
C1007 C 0.61715 0.18315 0.69595 0.0
C1008 C 0.5891 0.15627 0.664 0.0
C1009 C 0.61904 0.19703 0.67955 0.0
C1010 C 0.56625 0.16396 0.63202 0.0
C1011 C 0.53312 0.09231 0.63046 0.0
N1012 N 0.60477 0.18346 0.66431 0.0
N1013 N 0.55481 0.11044 0.64637 0.0
H1014 H 0.3924 0.46723 0.79221 0.0
H1015 H 0.45749 0.62116 0.8475 0.0
H1016 H 0.45397 0.55924 0.76213 0.0
H1017 H 0.40634 0.54435 0.87298 0.0
H1018 H 0.457 0.59787 0.81884 0.0
H1019 H 0.39703 0.49723 0.82545 0.0
C1020 C 0.40248 0.48892 0.79223 0.0
C1021 C 0.42631 0.5098 0.77389 0.0
C1022 C 0.44607 0.58619 0.83077 0.0
C1023 C 0.42843 0.54325 0.81277 0.0
C1024 C 0.44638 0.59942 0.84712 0.0
C1025 C 0.4318 0.58464 0.86259 0.0
C1026 C 0.43105 0.55808 0.82999 0.0
C1027 C 0.41775 0.55653 0.86135 0.0
C1028 C 0.40706 0.50755 0.8129 0.0
C1029 C 0.4415 0.54696 0.77336 0.0
N1030 N 0.4176 0.54416 0.84529 0.0
N1031 N 0.44278 0.55967 0.79378 0.0
H1032 H 0.90549 0.44801 0.92524 0.0
H1033 H 0.88019 0.39911 0.04028 0.0
H1034 H 0.93703 0.38899 0.95786 0.0
H1035 H 0.84619 0.44263 0.0141 0.0
H1036 H 0.90311 0.40119 0.01139 0.0
H1037 H 0.8828 0.44933 0.96072 0.0
C1038 C 0.90551 0.43618 0.93686 0.0
C1039 C 0.92783 0.42152 0.93831 0.0
C1040 C 0.89078 0.41044 0.01201 0.0
C1041 C 0.89832 0.4219 0.9784 0.0
C1042 C 0.87777 0.40934 0.02851 0.0
C1043 C 0.8611 0.42052 0.02953 0.0
C1044 C 0.88703 0.42273 0.99646 0.0
C1045 C 0.85877 0.43364 0.01386 0.0
C1046 C 0.89324 0.43826 0.95903 0.0
C1047 C 0.9253 0.39888 0.95741 0.0
N1048 N 0.87146 0.43422 0.99788 0.0
N1049 N 0.9126 0.40364 0.97614 0.0
H1050 H 0.49184 0.89652 0.10039 0.0
H1051 H 0.50091 0.89078 0.21033 0.0
H1052 H 0.56563 0.94015 0.13117 0.0
H1053 H 0.42665 0.85156 0.17959 0.0
H1054 H 0.52436 0.91355 0.182 0.0
H1055 H 0.46705 0.88415 0.12953 0.0
C1056 C 0.50277 0.9038 0.11331 0.0
C1057 C 0.5308 0.91933 0.1134 0.0
C1058 C 0.50288 0.90025 0.18149 0.0
C1059 C 0.50267 0.90493 0.14684 0.0
C1060 C 0.48947 0.88729 0.19768 0.0
C1061 C 0.46184 0.86904 0.19725 0.0
C1062 C 0.48858 0.89473 0.16474 0.0
C1063 C 0.44801 0.86534 0.1805 0.0
C1064 C 0.48864 0.89672 0.12994 0.0
C1065 C 0.54401 0.92815 0.13052 0.0
N1066 N 0.46157 0.8778 0.16487 0.0
N1067 N 0.52986 0.9206 0.14656 0.0
H1068 H 0.60887 0.47814 0.26726 0.0
H1069 H 0.63093 0.49015 0.37675 0.0
H1070 H 0.64397 0.55299 0.29737 0.0
H1071 H 0.59218 0.41454 0.34741 0.0
H1072 H 0.6311 0.51294 0.34826 0.0
H1073 H 0.59808 0.45397 0.2967 0.0
C1074 C 0.6139 0.48943 0.2801 0.0
C1075 C 0.62719 0.51756 0.27991 0.0
C1076 C 0.62228 0.49133 0.34805 0.0
C1077 C 0.61536 0.49016 0.31363 0.0
C1078 C 0.62216 0.4783 0.36433 0.0
C1079 C 0.61177 0.45045 0.36437 0.0
C1080 C 0.61219 0.47645 0.33162 0.0
C1081 C 0.6005 0.43607 0.34794 0.0
C1082 C 0.6078 0.47566 0.29689 0.0
C1083 C 0.63356 0.53128 0.29693 0.0
N1084 N 0.6013 0.44929 0.33215 0.0
N1085 N 0.62776 0.51745 0.31308 0.0
H1086 H 0.45292 0.9601 0.35528 0.0
H1087 H 0.38319 0.83757 0.28749 0.0
H1088 H 0.38108 0.88742 0.37114 0.0
H1089 H 0.46941 0.88202 0.29131 0.0
H1090 H 0.38072 0.85986 0.31565 0.0
H1091 H 0.45852 0.93582 0.32946 0.0
C1092 C 0.43841 0.93901 0.3535 0.0
C1093 C 0.41637 0.92573 0.36548 0.0
C1094 C 0.40017 0.86465 0.31036 0.0
C1095 C 0.42252 0.89825 0.33563 0.0
C1096 C 0.40162 0.85213 0.29426 0.0
C1097 C 0.42656 0.85809 0.2871 0.0
C1098 C 0.42383 0.88381 0.31911 0.0
C1099 C 0.44982 0.87691 0.29646 0.0
C1100 C 0.44172 0.92522 0.33875 0.0
C1101 C 0.39824 0.89842 0.36223 0.0
N1102 N 0.44793 0.88945 0.31193 0.0
N1103 N 0.40149 0.88567 0.34747 0.0
H1104 H 0.4876 0.40142 0.52069 0.0
H1105 H 0.62766 0.45455 0.46893 0.0
H1106 H 0.56388 0.43716 0.54882 0.0
H1107 H 0.55064 0.40849 0.44223 0.0
H1108 H 0.60507 0.45547 0.49734 0.0
H1109 H 0.51082 0.41074 0.49094 0.0
C1110 C 0.50928 0.4116 0.52055 0.0
C1111 C 0.52389 0.41859 0.53719 0.0
C1112 C 0.59313 0.44541 0.4852 0.0
C1113 C 0.55057 0.42903 0.5033 0.0
C1114 C 0.60602 0.44497 0.46897 0.0
C1115 C 0.59097 0.43118 0.45328 0.0
C1116 C 0.56502 0.43198 0.48572 0.0
C1117 C 0.56299 0.41915 0.45407 0.0
C1118 C 0.52252 0.41684 0.5036 0.0
C1119 C 0.55191 0.43152 0.53629 0.0
N1120 N 0.55091 0.41964 0.47007 0.0
N1121 N 0.56434 0.4362 0.51962 0.0
H1122 H 0.10265 0.4743 0.6887 0.0
H1123 H 0.20088 0.61489 0.64038 0.0
H1124 H 0.15288 0.54739 0.71896 0.0
H1125 H 0.15388 0.54068 0.61037 0.0
H1126 H 0.17918 0.59183 0.6691 0.0
H1127 H 0.11688 0.4995 0.6597 0.0
C1128 C 0.11634 0.49575 0.68921 0.0
C1129 C 0.12646 0.50886 0.70623 0.0
C1130 C 0.17343 0.58064 0.65621 0.0
C1131 C 0.14324 0.53775 0.67314 0.0
C1132 C 0.18577 0.59382 0.63981 0.0
C1133 C 0.17932 0.57961 0.62301 0.0
C1134 C 0.15456 0.55305 0.65579 0.0
C1135 C 0.15957 0.55236 0.62305 0.0
C1136 C 0.12455 0.51012 0.67268 0.0
C1137 C 0.14448 0.5366 0.70613 0.0
N1138 N 0.14804 0.53992 0.6392 0.0
N1139 N 0.1524 0.55011 0.68985 0.0
H1140 H 0.50183 0.06458 0.85715 0.0
H1141 H 0.6405 0.16288 0.78924 0.0
H1142 H 0.59374 0.07033 0.86275 0.0
H1143 H 0.5655 0.16228 0.78614 0.0
H1144 H 0.62154 0.12854 0.81342 0.0
H1145 H 0.52463 0.10047 0.82609 0.0
C1146 C 0.52144 0.07011 0.85184 0.0
C1147 C 0.54682 0.0666 0.86551 0.0
C1148 C 0.60926 0.13591 0.80739 0.0
C1149 C 0.57077 0.10608 0.82791 0.0
C1150 C 0.62004 0.15546 0.7936 0.0
C1151 C 0.60454 0.16546 0.78571 0.0
C1152 C 0.58284 0.12629 0.8132 0.0
C1153 C 0.57816 0.15518 0.79189 0.0
C1154 C 0.53631 0.09356 0.83353 0.0
C1155 C 0.5795 0.07401 0.85545 0.0
N1156 N 0.56812 0.13613 0.80529 0.0
N1157 N 0.58878 0.0953 0.83841 0.0
H1158 H 0.57942 0.64491 0.02189 0.0
H1159 H 0.42472 0.59771 0.97335 0.0
H1160 H 0.49009 0.60574 0.0573 0.0
H1161 H 0.49779 0.62649 0.94223 0.0
H1162 H 0.44912 0.5997 0.00163 0.0
H1163 H 0.54815 0.63908 0.98909 0.0
C1164 C 0.55842 0.63886 0.0227 0.0
C1165 C 0.53742 0.62188 0.04325 0.0
C1166 C 0.45974 0.60538 0.98859 0.0
C1167 C 0.50307 0.6183 0.00455 0.0
C1168 C 0.44584 0.6042 0.97245 0.0
C1169 C 0.45931 0.61208 0.95545 0.0
C1170 C 0.48727 0.61466 0.98769 0.0
C1171 C 0.48667 0.62029 0.95506 0.0
C1172 C 0.53865 0.6334 0.0025 0.0
C1173 C 0.50203 0.61393 0.04495 0.0
N1174 N 0.49983 0.62158 0.97101 0.0
N1175 N 0.48815 0.61076 0.02473 0.0
H1176 H 0.96204 0.53196 0.18299 0.0
H1177 H 0.85829 0.39723 0.12935 0.0
H1178 H 0.94731 0.45348 0.19862 0.0
H1179 H 0.8724 0.47611 0.11542 0.0
H1180 H 0.88984 0.41692 0.15529 0.0
H1181 H 0.92813 0.51138 0.15868 0.0
C1182 C 0.95143 0.51033 0.18139 0.0
C1183 C 0.95724 0.49436 0.19294 0.0
C1184 C 0.88596 0.42989 0.14658 0.0
C1185 C 0.91867 0.47062 0.16495 0.0
C1186 C 0.86798 0.41867 0.13178 0.0
C1187 C 0.86281 0.43509 0.1202 0.0
C1188 C 0.89883 0.45771 0.14977 0.0
C1189 C 0.87586 0.46271 0.12397 0.0
C1190 C 0.93213 0.49858 0.16748 0.0
C1191 C 0.94319 0.46646 0.1901 0.0
N1192 N 0.89328 0.47314 0.13838 0.0
N1193 N 0.92458 0.45546 0.17636 0.0
loop_
_geom_bond_atom_site_label_1
_geom_bond_atom_site_label_2
_geom_bond_distance
_geom_bond_site_symmetry_2
_ccdc_geom_bond_type
C0 C1 1.560 . S
C0 H61 0.959 . S
C0 H62 0.959 . S
C0 H63 0.960 . S
C1 C0 1.560 . S
C1 O56 1.426 . S
C1 H60 0.980 . S
C2 C3 1.407 . S
C2 C7 1.418 . S
C2 O56 1.334 . S
C3 C2 1.407 . S
C3 C4 1.360 . S
C3 H64 0.929 . S
C4 C3 1.360 . S
C4 C5 1.401 . S
C4 C8 1.527 . S
C5 C4 1.401 . S
C5 C6 1.405 . S
C5 C38 1.587 . S
C6 C5 1.405 . S
C6 C7 1.332 . S
C6 C9 1.496 . S
C7 C2 1.418 . S
C7 C6 1.332 . S
C7 H65 0.929 . S
C8 C4 1.527 . S
C8 H66 0.959 . S
C8 H67 0.961 . S
C8 H68 0.961 . S
C9 C6 1.496 . S
C9 H69 0.960 . S
C9 H70 0.960 . S
C9 H71 0.961 . S
C10 C11 1.517 . S
C10 H73 0.961 . S
C10 H74 0.960 . S
C10 H75 0.959 . S
C11 C10 1.517 . S
C11 O59 1.468 . S
C11 H72 0.980 . S
C12 C13 1.349 . S
C12 C17 1.367 . S
C12 O59 1.408 . S
C13 C12 1.349 . S
C13 C14 1.407 1_655 S
C13 H76 0.930 . S
C14 C13 1.407 1_455 S
C14 C15 1.449 . S
C14 C18 1.535 . S
C15 C14 1.449 . S
C15 C16 1.384 . S
C15 C40 1.553 . S
C16 C15 1.384 . S
C16 C17 1.364 1_455 S
C16 C19 1.450 . S
C17 C12 1.367 . S
C17 C16 1.364 1_655 S
C17 H77 0.931 . S
C18 C14 1.535 . S
C18 H78 0.959 . S
C18 H79 0.961 . S
C18 H80 0.959 1_455 S
C19 C16 1.450 . S
C19 H81 0.960 . S
C19 H82 0.960 . S
C19 H83 0.958 . S
C20 C21 1.309 . S
C20 C25 1.304 . S
C20 O58 1.435 . S
C21 C20 1.309 . S
C21 C22 1.476 . S
C21 H85 0.930 . S
C22 C21 1.476 . S
C22 C23 1.400 . S
C22 C26 1.567 . S
C23 C22 1.400 . S
C23 C24 1.373 . S
C23 C45 1.432 . S
C24 C23 1.373 . S
C24 C25 1.339 . S
C24 C27 1.530 . S
C25 C20 1.304 . S
C25 C24 1.339 . S
C25 H86 0.930 . S
C26 C22 1.567 . S
C26 H87 0.961 . S
C26 H88 0.960 . S
C26 H89 0.958 . S
C27 C24 1.530 . S
C27 H90 0.961 . S
C27 H91 0.960 . S
C27 H92 0.960 . S
C28 C29 1.530 . S
C28 H94 0.961 . S
C28 H95 0.961 . S
C28 H96 0.959 . S
C29 C28 1.530 . S
C29 O57 1.412 . S
C29 H93 0.980 . S
C30 C31 1.288 . S
C30 C35 1.377 . S
C30 O57 1.393 . S
C31 C30 1.288 . S
C31 C32 1.369 . S
C31 H97 0.932 . S
C32 C31 1.369 . S
C32 C33 1.398 . S
C32 C36 1.527 . S
C33 C32 1.398 . S
C33 C34 1.380 . S
C33 C47 1.497 . S
C34 C33 1.380 . S
C34 C35 1.383 . S
C34 C37 1.603 . S
C35 C30 1.377 . S
C35 C34 1.383 . S
C35 H98 0.929 . S
C36 C32 1.527 . S
C36 H99 0.961 . S
C36 H100 0.959 . S
C36 H101 0.959 . S
C37 C34 1.603 . S
C37 H102 0.960 . S
C37 H103 0.962 . S
C37 H104 0.961 . S
C38 C5 1.587 . S
C38 C39 1.360 . S
C38 C51 1.412 . S
C39 C38 1.360 . S
C39 C40 1.365 . S
C39 H105 0.929 . S
C40 C15 1.553 . S
C40 C39 1.365 . S
C40 C41 1.404 . S
C41 C40 1.404 . S
C41 C42 1.395 1_455 S
C41 C52 1.451 . S
C42 C41 1.395 1_655 S
C42 C43 1.322 . S
C42 H106 0.930 . S
C43 C42 1.322 . S
C43 C44 1.459 . S
C43 H107 0.929 . S
C44 C43 1.459 . S
C44 C45 1.445 . S
C44 C53 1.395 1_655 S
C45 C23 1.432 . S
C45 C44 1.445 . S
C45 C46 1.370 . S
C46 C45 1.370 . S
C46 C47 1.438 1_655 S
C46 H108 0.930 . S
C47 C33 1.497 . S
C47 C46 1.438 1_455 S
C47 C48 1.360 . S
C48 C47 1.360 . S
C48 C49 1.401 . S
C48 C53 1.446 . S
C49 C48 1.401 . S
C49 C50 1.347 . S
C49 H109 0.929 . S
C50 C49 1.347 . S
C50 C51 1.455 . S
C50 H110 0.930 . S
C51 C38 1.412 . S
C51 C50 1.455 . S
C51 C52 1.331 . S
C52 C41 1.451 . S
C52 C51 1.331 . S
C52 C53 1.497 . S
C53 C44 1.395 1_455 S
C53 C48 1.446 . S
C53 C52 1.497 . S
C54 C55 1.582 . S
C54 H111 0.962 . S
C54 H112 0.959 . S
C54 H113 0.958 . S
C55 C54 1.582 . S
C55 O58 1.458 . S
C55 H84 0.980 . S
O56 C1 1.426 . S
O56 C2 1.334 . S
O57 C29 1.412 . S
O57 C30 1.393 . S
O58 C20 1.435 . S
O58 C55 1.458 . S
O59 C11 1.468 . S
O59 C12 1.408 . S
H60 C1 0.980 . S
H61 C0 0.959 . S
H62 C0 0.959 . S
H63 C0 0.960 . S
H64 C3 0.929 . S
H65 C7 0.929 . S
H66 C8 0.959 . S
H67 C8 0.961 . S
H68 C8 0.961 . S
H69 C9 0.960 . S
H70 C9 0.960 . S
H71 C9 0.961 . S
H72 C11 0.980 . S
H73 C10 0.961 . S
H74 C10 0.960 . S
H75 C10 0.959 . S
H76 C13 0.930 . S
H77 C17 0.931 . S
H78 C18 0.959 . S
H79 C18 0.961 . S
H80 C18 0.959 1_655 S
H81 C19 0.960 . S
H82 C19 0.960 . S
H83 C19 0.958 . S
H84 C55 0.980 . S
H85 C21 0.930 . S
H86 C25 0.930 . S
H87 C26 0.961 . S
H88 C26 0.960 . S
H89 C26 0.958 . S
H90 C27 0.961 . S
H91 C27 0.960 . S
H92 C27 0.960 . S
H93 C29 0.980 . S
H94 C28 0.961 . S
H95 C28 0.961 . S
H96 C28 0.959 . S
H97 C31 0.932 . S
H98 C35 0.929 . S
H99 C36 0.961 . S
H100 C36 0.959 . S
H101 C36 0.959 . S
H102 C37 0.960 . S
H103 C37 0.962 . S
H104 C37 0.961 . S
H105 C39 0.929 . S
H106 C42 0.930 . S
H107 C43 0.929 . S
H108 C46 0.930 . S
H109 C49 0.929 . S
H110 C50 0.930 . S
H111 C54 0.962 . S
H112 C54 0.959 . S
H113 C54 0.958 . S
C114 C115 1.560 . S
C114 H175 0.959 . S
C114 H176 0.959 . S
C114 H177 0.960 . S
C115 C114 1.560 . S
C115 O170 1.426 . S
C115 H174 0.980 . S
C116 C117 1.407 . S
C116 C121 1.418 . S
C116 O170 1.334 . S
C117 C116 1.407 . S
C117 C118 1.360 . S
C117 H178 0.929 . S
C118 C117 1.360 . S
C118 C119 1.401 . S
C118 C122 1.527 . S
C119 C118 1.401 . S
C119 C120 1.405 . S
C119 C152 1.587 . S
C120 C119 1.405 . S
C120 C121 1.332 . S
C120 C123 1.496 . S
C121 C116 1.418 . S
C121 C120 1.332 . S
C121 H179 0.929 . S
C122 C118 1.527 . S
C122 H180 0.959 . S
C122 H181 0.961 . S
C122 H182 0.961 . S
C123 C120 1.496 . S
C123 H183 0.960 . S
C123 H184 0.960 . S
C123 H185 0.961 . S
C124 C125 1.517 . S
C124 H187 0.961 . S
C124 H188 0.960 . S
C124 H189 0.959 . S
C125 C124 1.517 . S
C125 O173 1.468 . S
C125 H186 0.980 . S
C126 C127 1.349 . S
C126 C131 1.367 . S
C126 O173 1.408 . S
C127 C126 1.349 . S
C127 C128 1.407 . S
C127 H190 0.930 . S
C128 C127 1.407 . S
C128 C129 1.449 . S
C128 C132 1.535 . S
C129 C128 1.449 . S
C129 C130 1.384 . S
C129 C154 1.553 . S
C130 C129 1.384 . S
C130 C131 1.364 . S
C130 C133 1.450 . S
C131 C126 1.367 . S
C131 C130 1.364 . S
C131 H191 0.931 . S
C132 C128 1.535 . S
C132 H192 0.959 . S
C132 H193 0.961 . S
C132 H194 0.959 . S
C133 C130 1.450 . S
C133 H195 0.960 . S
C133 H196 0.960 . S
C133 H197 0.960 . S
C134 C135 1.309 . S
C134 C139 1.304 . S
C134 O172 1.435 . S
C135 C134 1.309 . S
C135 C136 1.476 . S
C135 H199 0.930 . S
C136 C135 1.476 . S
C136 C137 1.400 . S
C136 C140 1.567 . S
C137 C136 1.400 . S
C137 C138 1.373 . S
C137 C159 1.432 . S
C138 C137 1.373 . S
C138 C139 1.339 . S
C138 C141 1.530 . S
C139 C134 1.304 . S
C139 C138 1.339 . S
C139 H200 0.930 . S
C140 C136 1.567 . S
C140 H201 0.961 . S
C140 H202 0.960 . S
C140 H203 0.958 . S
C141 C138 1.530 . S
C141 H204 0.961 . S
C141 H205 0.960 . S
C141 H206 0.960 . S
C142 C143 1.530 . S
C142 H208 0.961 . S
C142 H209 0.961 . S
C142 H210 0.959 . S
C143 C142 1.530 . S
C143 O171 1.412 . S
C143 H207 0.980 . S
C144 C145 1.288 . S
C144 C149 1.377 . S
C144 O171 1.393 . S
C145 C144 1.288 . S
C145 C146 1.383 . S
C145 H211 0.932 . S
C146 C145 1.383 . S
C146 C147 1.416 1_565 S
C146 C150 1.496 1_565 S
C147 C146 1.416 1_545 S
C147 C148 1.380 1_545 S
C147 C161 1.497 . S
C148 C147 1.380 1_565 S
C148 C149 1.383 . S
C148 C151 1.603 . S
C149 C144 1.377 . S
C149 C148 1.383 . S
C149 H212 0.929 . S
C150 C146 1.496 1_545 S
C150 H213 0.961 . S
C150 H214 0.959 . S
C150 H215 0.959 . S
C151 C148 1.603 . S
C151 H216 0.960 . S
C151 H217 0.962 1_565 S
C151 H218 0.961 . S
C152 C119 1.587 . S
C152 C153 1.360 . S
C152 C165 1.412 . S
C153 C152 1.360 . S
C153 C154 1.365 1_565 S
C153 H219 0.929 . S
C154 C129 1.553 . S
C154 C153 1.365 1_545 S
C154 C155 1.404 . S
C155 C154 1.404 . S
C155 C156 1.395 . S
C155 C166 1.451 . S
C156 C155 1.395 . S
C156 C157 1.322 . S
C156 H220 0.930 . S
C157 C156 1.322 . S
C157 C158 1.459 . S
C157 H221 0.929 . S
C158 C157 1.459 . S
C158 C159 1.445 . S
C158 C167 1.395 . S
C159 C137 1.432 . S
C159 C158 1.445 . S
C159 C160 1.370 . S
C160 C159 1.370 . S
C160 C161 1.438 . S
C160 H222 0.930 . S
C161 C147 1.497 . S
C161 C160 1.438 . S
C161 C162 1.360 . S
C162 C161 1.360 . S
C162 C163 1.401 1_545 S
C162 C167 1.446 . S
C163 C162 1.401 1_565 S
C163 C164 1.347 . S
C163 H223 0.929 . S
C164 C163 1.347 . S
C164 C165 1.455 . S
C164 H224 0.930 . S
C165 C152 1.412 . S
C165 C164 1.455 . S
C165 C166 1.331 1_565 S
C166 C155 1.451 . S
C166 C165 1.331 1_545 S
C166 C167 1.497 . S
C167 C158 1.395 . S
C167 C162 1.446 . S
C167 C166 1.497 . S
C168 C169 1.582 . S
C168 H225 0.962 . S
C168 H226 0.959 . S
C168 H227 0.958 . S
C169 C168 1.582 . S
C169 O172 1.458 . S
C169 H198 0.980 . S
O170 C115 1.426 . S
O170 C116 1.334 . S
O171 C143 1.412 . S
O171 C144 1.393 . S
O172 C134 1.435 . S
O172 C169 1.458 . S
O173 C125 1.468 . S
O173 C126 1.408 . S
H174 C115 0.980 . S
H175 C114 0.959 . S
H176 C114 0.959 . S
H177 C114 0.960 . S
H178 C117 0.929 . S
H179 C121 0.929 . S
H180 C122 0.959 . S
H181 C122 0.961 . S
H182 C122 0.961 . S
H183 C123 0.960 . S
H184 C123 0.960 . S
H185 C123 0.961 . S
H186 C125 0.980 . S
H187 C124 0.961 . S
H188 C124 0.960 . S
H189 C124 0.959 . S
H190 C127 0.930 . S
H191 C131 0.931 . S
H192 C132 0.959 . S
H193 C132 0.961 . S
H194 C132 0.959 . S
H195 C133 0.960 . S
H196 C133 0.960 . S
H197 C133 0.960 . S
H198 C169 0.980 . S
H199 C135 0.930 . S
H200 C139 0.930 . S
H201 C140 0.961 . S
H202 C140 0.960 . S
H203 C140 0.958 . S
H204 C141 0.961 . S
H205 C141 0.960 . S
H206 C141 0.960 . S
H207 C143 0.980 . S
H208 C142 0.961 . S
H209 C142 0.961 . S
H210 C142 0.959 . S
H211 C145 0.932 . S
H212 C149 0.929 . S
H213 C150 0.961 . S
H214 C150 0.959 . S
H215 C150 0.959 . S
H216 C151 0.960 . S
H217 C151 0.962 1_545 S
H218 C151 0.961 . S
H219 C153 0.929 . S
H220 C156 0.930 . S
H221 C157 0.929 . S
H222 C160 0.930 . S
H223 C163 0.929 . S
H224 C164 0.930 . S
H225 C168 0.962 . S
H226 C168 0.959 . S
H227 C168 0.958 . S
C228 C229 1.560 . S
C228 H289 0.959 . S
C228 H290 0.959 . S
C228 H291 0.960 . S
C229 C228 1.560 . S
C229 O284 1.426 . S
C229 H288 0.980 . S
C230 C231 1.407 . S
C230 C235 1.418 . S
C230 O284 1.334 . S
C231 C230 1.407 . S
C231 C232 1.360 . S
C231 H292 0.929 . S
C232 C231 1.360 . S
C232 C233 1.401 . S
C232 C236 1.527 . S
C233 C232 1.401 . S
C233 C234 1.405 . S
C233 C266 1.587 . S
C234 C233 1.405 . S
C234 C235 1.332 . S
C234 C237 1.496 . S
C235 C230 1.418 . S
C235 C234 1.332 . S
C235 H293 0.929 . S
C236 C232 1.527 . S
C236 H294 0.959 . S
C236 H295 0.961 . S
C236 H296 0.961 . S
C237 C234 1.496 . S
C237 H297 0.960 . S
C237 H298 0.960 . S
C237 H299 0.961 . S
C238 C239 1.517 . S
C238 H301 0.961 . S
C238 H302 0.960 . S
C238 H303 0.959 . S
C239 C238 1.517 . S
C239 O287 1.468 . S
C239 H300 0.980 . S
C240 C241 1.349 . S
C240 C245 1.367 . S
C240 O287 1.408 . S
C241 C240 1.349 . S
C241 C242 1.407 . S
C241 H304 0.930 . S
C242 C241 1.407 . S
C242 C243 1.449 . S
C242 C246 1.535 . S
C243 C242 1.449 . S
C243 C244 1.384 . S
C243 C268 1.553 . S
C244 C243 1.384 . S
C244 C245 1.364 . S
C244 C247 1.450 . S
C245 C240 1.367 . S
C245 C244 1.364 . S
C245 H305 0.931 . S
C246 C242 1.535 . S
C246 H306 0.959 . S
C246 H307 0.961 . S
C246 H308 0.959 . S
C247 C244 1.450 . S
C247 H309 0.960 . S
C247 H310 0.960 . S
C247 H311 0.960 . S
C248 C249 1.309 . S
C248 C253 1.304 . S
C248 O286 1.435 . S
C249 C248 1.309 . S
C249 C250 1.476 . S
C249 H313 0.930 . S
C250 C249 1.476 . S
C250 C251 1.400 . S
C250 C254 1.567 . S
C251 C250 1.400 . S
C251 C252 1.373 . S
C251 C273 1.432 . S
C252 C251 1.373 . S
C252 C253 1.339 . S
C252 C255 1.530 . S
C253 C248 1.304 . S
C253 C252 1.339 . S
C253 H314 0.930 . S
C254 C250 1.567 . S
C254 H315 0.961 . S
C254 H316 0.960 . S
C254 H317 0.958 . S
C255 C252 1.530 . S
C255 H318 0.961 . S
C255 H319 0.960 . S
C255 H320 0.960 . S
C256 C257 1.530 . S
C256 H322 0.961 . S
C256 H323 0.961 . S
C256 H324 0.959 . S
C257 C256 1.530 . S
C257 O285 1.412 . S
C257 H321 0.980 . S
C258 C259 1.288 . S
C258 C263 1.377 . S
C258 O285 1.393 . S
C259 C258 1.288 . S
C259 C260 1.369 . S
C259 H325 0.932 . S
C260 C259 1.369 . S
C260 C261 1.398 . S
C260 C264 1.527 . S
C261 C260 1.398 . S
C261 C262 1.380 . S
C261 C275 1.497 . S
C262 C261 1.380 . S
C262 C263 1.383 . S
C262 C265 1.603 . S
C263 C258 1.377 . S
C263 C262 1.383 . S
C263 H326 0.929 . S
C264 C260 1.527 . S
C264 H327 0.961 . S
C264 H328 0.959 . S
C264 H329 0.959 . S
C265 C262 1.603 . S
C265 H330 0.960 . S
C265 H331 0.962 . S
C265 H332 0.961 . S
C266 C233 1.587 . S
C266 C267 1.360 . S
C266 C279 1.412 . S
C267 C266 1.360 . S
C267 C268 1.365 . S
C267 H333 0.929 . S
C268 C243 1.553 . S
C268 C267 1.365 . S
C268 C269 1.404 . S
C269 C268 1.404 . S
C269 C270 1.395 . S
C269 C280 1.451 . S
C270 C269 1.395 . S
C270 C271 1.322 . S
C270 H334 0.930 . S
C271 C270 1.322 . S
C271 C272 1.459 . S
C271 H335 0.929 . S
C272 C271 1.459 . S
C272 C273 1.445 . S
C272 C281 1.395 . S
C273 C251 1.432 . S
C273 C272 1.445 . S
C273 C274 1.370 . S
C274 C273 1.370 . S
C274 C275 1.438 . S
C274 H336 0.930 . S
C275 C261 1.497 . S
C275 C274 1.438 . S
C275 C276 1.360 . S
C276 C275 1.360 . S
C276 C277 1.401 . S
C276 C281 1.446 . S
C277 C276 1.401 . S
C277 C278 1.347 . S
C277 H337 0.929 . S
C278 C277 1.347 . S
C278 C279 1.455 . S
C278 H338 0.930 . S
C279 C266 1.412 . S
C279 C278 1.455 . S
C279 C280 1.331 . S
C280 C269 1.451 . S
C280 C279 1.331 . S
C280 C281 1.497 . S
C281 C272 1.395 . S
C281 C276 1.446 . S
C281 C280 1.497 . S
C282 C283 1.582 . S
C282 H339 0.962 . S
C282 H340 0.959 . S
C282 H341 0.958 . S
C283 C282 1.582 . S
C283 O286 1.458 . S
C283 H312 0.980 . S
O284 C229 1.426 . S
O284 C230 1.334 . S
O285 C257 1.412 . S
O285 C258 1.393 . S
O286 C248 1.435 . S
O286 C283 1.458 . S
O287 C239 1.468 . S
O287 C240 1.408 . S
H288 C229 0.980 . S
H289 C228 0.959 . S
H290 C228 0.959 . S
H291 C228 0.960 . S
H292 C231 0.929 . S
H293 C235 0.929 . S
H294 C236 0.959 . S
H295 C236 0.961 . S
H296 C236 0.961 . S
H297 C237 0.960 . S
H298 C237 0.960 . S
H299 C237 0.961 . S
H300 C239 0.980 . S
H301 C238 0.961 . S
H302 C238 0.960 . S
H303 C238 0.959 . S
H304 C241 0.930 . S
H305 C245 0.931 . S
H306 C246 0.959 . S
H307 C246 0.961 . S
H308 C246 0.959 . S
H309 C247 0.960 . S
H310 C247 0.960 . S
H311 C247 0.960 . S
H312 C283 0.980 . S
H313 C249 0.930 . S
H314 C253 0.930 . S
H315 C254 0.961 . S
H316 C254 0.960 . S
H317 C254 0.958 . S
H318 C255 0.961 . S
H319 C255 0.960 . S
H320 C255 0.960 . S
H321 C257 0.980 . S
H322 C256 0.961 . S
H323 C256 0.961 . S
H324 C256 0.959 . S
H325 C259 0.932 . S
H326 C263 0.929 . S
H327 C264 0.961 . S
H328 C264 0.959 . S
H329 C264 0.959 . S
H330 C265 0.960 . S
H331 C265 0.962 . S
H332 C265 0.961 . S
H333 C267 0.929 . S
H334 C270 0.930 . S
H335 C271 0.929 . S
H336 C274 0.930 . S
H337 C277 0.929 . S
H338 C278 0.930 . S
H339 C282 0.962 . S
H340 C282 0.959 . S
H341 C282 0.958 . S
C342 C343 1.560 . S
C342 H403 0.959 . S
C342 H404 0.959 . S
C342 H405 0.960 . S
C343 C342 1.560 . S
C343 O398 1.426 . S
C343 H402 0.980 . S
C344 C345 1.407 . S
C344 C349 1.418 . S
C344 O398 1.334 . S
C345 C344 1.407 . S
C345 C346 1.360 . S
C345 H406 0.929 . S
C346 C345 1.360 . S
C346 C347 1.401 . S
C346 C350 1.527 . S
C347 C346 1.401 . S
C347 C348 1.405 . S
C347 C380 1.587 . S
C348 C347 1.405 . S
C348 C349 1.332 . S
C348 C351 1.496 . S
C349 C344 1.418 . S
C349 C348 1.332 . S
C349 H407 0.929 . S
C350 C346 1.527 . S
C350 H408 0.959 . S
C350 H409 0.961 . S
C350 H410 0.961 . S
C351 C348 1.496 . S
C351 H411 0.960 . S
C351 H412 0.960 . S
C351 H413 0.961 . S
C352 C353 1.517 . S
C352 H415 0.961 . S
C352 H416 0.960 . S
C352 H417 0.959 . S
C353 C352 1.517 . S
C353 O401 1.468 . S
C353 H414 0.980 . S
C354 C355 1.349 . S
C354 C359 1.367 . S
C354 O401 1.408 . S
C355 C354 1.349 . S
C355 C356 1.407 1_655 S
C355 H418 0.930 . S
C356 C355 1.407 1_455 S
C356 C357 1.449 . S
C356 C360 1.535 . S
C357 C356 1.449 . S
C357 C358 1.382 1_455 S
C357 C382 1.553 . S
C358 C357 1.382 1_655 S
C358 C359 1.366 . S
C358 C361 1.450 1_655 S
C359 C354 1.367 . S
C359 C358 1.366 . S
C359 H419 0.931 . S
C360 C356 1.535 . S
C360 H420 0.959 . S
C360 H421 0.961 . S
C360 H422 0.959 1_455 S
C361 C358 1.450 1_455 S
C361 H423 0.960 . S
C361 H424 0.960 . S
C361 H425 0.957 1_455 S
C362 C363 1.309 . S
C362 C367 1.304 . S
C362 O400 1.435 . S
C363 C362 1.309 . S
C363 C364 1.476 . S
C363 H427 0.930 . S
C364 C363 1.476 . S
C364 C365 1.400 . S
C364 C368 1.567 . S
C365 C364 1.400 . S
C365 C366 1.373 . S
C365 C387 1.432 . S
C366 C365 1.373 . S
C366 C367 1.339 . S
C366 C369 1.530 . S
C367 C362 1.304 . S
C367 C366 1.339 . S
C367 H428 0.930 . S
C368 C364 1.567 . S
C368 H429 0.961 . S
C368 H430 0.960 . S
C368 H431 0.958 . S
C369 C366 1.530 . S
C369 H432 0.961 . S
C369 H433 0.960 . S
C369 H434 0.960 . S
C370 C371 1.530 . S
C370 H436 0.961 . S
C370 H437 0.961 . S
C370 H438 0.959 . S
C371 C370 1.530 . S
C371 O399 1.412 . S
C371 H435 0.980 . S
C372 C373 1.288 . S
C372 C377 1.377 . S
C372 O399 1.393 . S
C373 C372 1.288 . S
C373 C374 1.369 . S
C373 H439 0.932 . S
C374 C373 1.369 . S
C374 C375 1.398 . S
C374 C378 1.527 . S
C375 C374 1.398 . S
C375 C376 1.380 . S
C375 C389 1.497 . S
C376 C375 1.380 . S
C376 C377 1.383 . S
C376 C379 1.603 . S
C377 C372 1.377 . S
C377 C376 1.383 . S
C377 H440 0.929 . S
C378 C374 1.527 . S
C378 H441 0.961 . S
C378 H442 0.959 . S
C378 H443 0.959 . S
C379 C376 1.603 . S
C379 H444 0.960 . S
C379 H445 0.962 . S
C379 H446 0.961 . S
C380 C347 1.587 . S
C380 C381 1.360 . S
C380 C393 1.412 . S
C381 C380 1.360 . S
C381 C382 1.365 . S
C381 H447 0.929 . S
C382 C357 1.553 . S
C382 C381 1.365 . S
C382 C383 1.404 . S
C383 C382 1.404 . S
C383 C384 1.395 1_455 S
C383 C394 1.451 . S
C384 C383 1.395 1_655 S
C384 C385 1.322 . S
C384 H448 0.930 . S
C385 C384 1.322 . S
C385 C386 1.459 . S
C385 H449 0.929 . S
C386 C385 1.459 . S
C386 C387 1.445 . S
C386 C395 1.395 1_655 S
C387 C365 1.432 . S
C387 C386 1.445 . S
C387 C388 1.370 . S
C388 C387 1.370 . S
C388 C389 1.438 1_655 S
C388 H450 0.930 . S
C389 C375 1.497 . S
C389 C388 1.438 1_455 S
C389 C390 1.360 . S
C390 C389 1.360 . S
C390 C391 1.401 . S
C390 C395 1.446 . S
C391 C390 1.401 . S
C391 C392 1.347 . S
C391 H451 0.929 . S
C392 C391 1.347 . S
C392 C393 1.455 . S
C392 H452 0.930 . S
C393 C380 1.412 . S
C393 C392 1.455 . S
C393 C394 1.331 . S
C394 C383 1.451 . S
C394 C393 1.331 . S
C394 C395 1.497 . S
C395 C386 1.395 1_455 S
C395 C390 1.446 . S
C395 C394 1.497 . S
C396 C397 1.582 . S
C396 H453 0.962 . S
C396 H454 0.959 . S
C396 H455 0.958 . S
C397 C396 1.582 . S
C397 O400 1.458 . S
C397 H426 0.980 . S
O398 C343 1.426 . S
O398 C344 1.334 . S
O399 C371 1.412 . S
O399 C372 1.393 . S
O400 C362 1.435 . S
O400 C397 1.458 . S
O401 C353 1.468 . S
O401 C354 1.408 . S
H402 C343 0.980 . S
H403 C342 0.959 . S
H404 C342 0.959 . S
H405 C342 0.960 . S
H406 C345 0.929 . S
H407 C349 0.929 . S
H408 C350 0.959 . S
H409 C350 0.961 . S
H410 C350 0.961 . S
H411 C351 0.960 . S
H412 C351 0.960 . S
H413 C351 0.961 . S
H414 C353 0.980 . S
H415 C352 0.961 . S
H416 C352 0.960 . S
H417 C352 0.959 . S
H418 C355 0.930 . S
H419 C359 0.931 . S
H420 C360 0.959 . S
H421 C360 0.961 . S
H422 C360 0.959 1_655 S
H423 C361 0.960 . S
H424 C361 0.960 . S
H425 C361 0.957 1_655 S
H426 C397 0.980 . S
H427 C363 0.930 . S
H428 C367 0.930 . S
H429 C368 0.961 . S
H430 C368 0.960 . S
H431 C368 0.958 . S
H432 C369 0.961 . S
H433 C369 0.960 . S
H434 C369 0.960 . S
H435 C371 0.980 . S
H436 C370 0.961 . S
H437 C370 0.961 . S
H438 C370 0.959 . S
H439 C373 0.932 . S
H440 C377 0.929 . S
H441 C378 0.961 . S
H442 C378 0.959 . S
H443 C378 0.959 . S
H444 C379 0.960 . S
H445 C379 0.962 . S
H446 C379 0.961 . S
H447 C381 0.929 . S
H448 C384 0.930 . S
H449 C385 0.929 . S
H450 C388 0.930 . S
H451 C391 0.929 . S
H452 C392 0.930 . S
H453 C396 0.962 . S
H454 C396 0.959 . S
H455 C396 0.958 . S
C456 C457 1.560 . S
C456 H517 0.959 . S
C456 H518 0.959 . S
C456 H519 0.960 . S
C457 C456 1.560 . S
C457 O512 1.426 . S
C457 H516 0.980 . S
C458 C459 1.407 . S
C458 C463 1.418 . S
C458 O512 1.334 . S
C459 C458 1.407 . S
C459 C460 1.360 . S
C459 H520 0.929 . S
C460 C459 1.360 . S
C460 C461 1.401 . S
C460 C464 1.527 . S
C461 C460 1.401 . S
C461 C462 1.405 . S
C461 C494 1.587 . S
C462 C461 1.405 . S
C462 C463 1.332 . S
C462 C465 1.496 . S
C463 C458 1.418 . S
C463 C462 1.332 . S
C463 H521 0.929 . S
C464 C460 1.527 . S
C464 H522 0.959 . S
C464 H523 0.961 . S
C464 H524 0.961 . S
C465 C462 1.496 . S
C465 H525 0.960 . S
C465 H526 0.960 . S
C465 H527 0.961 . S
C466 C467 1.517 . S
C466 H529 0.961 . S
C466 H530 0.960 . S
C466 H531 0.959 . S
C467 C466 1.517 . S
C467 O515 1.468 . S
C467 H528 0.980 . S
C468 C469 1.349 . S
C468 C473 1.367 . S
C468 O515 1.408 . S
C469 C468 1.349 . S
C469 C470 1.407 . S
C469 H532 0.930 . S
C470 C469 1.407 . S
C470 C471 1.449 . S
C470 C474 1.535 . S
C471 C470 1.449 . S
C471 C472 1.384 . S
C471 C496 1.553 . S
C472 C471 1.384 . S
C472 C473 1.364 . S
C472 C475 1.450 . S
C473 C468 1.367 . S
C473 C472 1.364 . S
C473 H533 0.931 . S
C474 C470 1.535 . S
C474 H534 0.959 . S
C474 H535 0.961 . S
C474 H536 0.959 . S
C475 C472 1.450 . S
C475 H537 0.960 . S
C475 H538 0.960 . S
C475 H539 0.960 . S
C476 C477 1.309 . S
C476 C481 1.304 . S
C476 O514 1.435 . S
C477 C476 1.309 . S
C477 C478 1.476 . S
C477 H541 0.930 . S
C478 C477 1.476 . S
C478 C479 1.400 . S
C478 C482 1.567 . S
C479 C478 1.400 . S
C479 C480 1.373 . S
C479 C501 1.432 . S
C480 C479 1.373 . S
C480 C481 1.339 . S
C480 C483 1.530 . S
C481 C476 1.304 . S
C481 C480 1.339 . S
C481 H542 0.930 . S
C482 C478 1.567 . S
C482 H543 0.961 . S
C482 H544 0.960 . S
C482 H545 0.958 . S
C483 C480 1.530 . S
C483 H546 0.961 . S
C483 H547 0.960 . S
C483 H548 0.960 . S
C484 C485 1.530 . S
C484 H550 0.961 . S
C484 H551 0.961 . S
C484 H552 0.959 . S
C485 C484 1.530 . S
C485 O513 1.412 . S
C485 H549 0.980 . S
C486 C487 1.288 . S
C486 C491 1.377 . S
C486 O513 1.393 . S
C487 C486 1.288 . S
C487 C488 1.379 . S
C487 H553 0.932 . S
C488 C487 1.379 . S
C488 C489 1.389 1_565 S
C488 C492 1.526 1_565 S
C489 C488 1.389 1_545 S
C489 C490 1.380 1_545 S
C489 C503 1.497 . S
C490 C489 1.380 1_565 S
C490 C491 1.383 . S
C490 C493 1.603 . S
C491 C486 1.377 . S
C491 C490 1.383 . S
C491 H554 0.929 . S
C492 C488 1.526 1_545 S
C492 H555 0.961 . S
C492 H556 0.959 . S
C492 H557 0.959 . S
C493 C490 1.603 . S
C493 H558 0.960 . S
C493 H559 0.962 1_565 S
C493 H560 0.961 . S
C494 C461 1.587 . S
C494 C495 1.360 . S
C494 C507 1.412 . S
C495 C494 1.360 . S
C495 C496 1.365 1_565 S
C495 H561 0.929 . S
C496 C471 1.553 . S
C496 C495 1.365 1_545 S
C496 C497 1.404 . S
C497 C496 1.404 . S
C497 C498 1.395 . S
C497 C508 1.451 . S
C498 C497 1.395 . S
C498 C499 1.322 . S
C498 H562 0.930 . S
C499 C498 1.322 . S
C499 C500 1.452 1_556 S
C499 H563 0.929 . S
C500 C499 1.452 1_554 S
C500 C501 1.453 . S
C500 C509 1.395 1_554 S
C501 C479 1.432 . S
C501 C500 1.453 . S
C501 C502 1.370 . S
C502 C501 1.370 . S
C502 C503 1.438 . S
C502 H564 0.930 . S
C503 C489 1.497 . S
C503 C502 1.438 . S
C503 C504 1.360 . S
C504 C503 1.360 . S
C504 C505 1.401 1_545 S
C504 C509 1.446 1_554 S
C505 C504 1.401 1_565 S
C505 C506 1.347 1_554 S
C505 H565 0.929 . S
C506 C505 1.347 1_556 S
C506 C507 1.455 . S
C506 H566 0.930 . S
C507 C494 1.412 . S
C507 C506 1.455 . S
C507 C508 1.331 1_565 S
C508 C497 1.451 . S
C508 C507 1.331 1_545 S
C508 C509 1.497 . S
C509 C500 1.395 1_556 S
C509 C504 1.446 1_556 S
C509 C508 1.497 . S
C510 C511 1.582 . S
C510 H567 0.962 . S
C510 H568 0.959 . S
C510 H569 0.958 . S
C511 C510 1.582 . S
C511 O514 1.458 . S
C511 H540 0.980 . S
O512 C457 1.426 . S
O512 C458 1.334 . S
O513 C485 1.412 . S
O513 C486 1.393 . S
O514 C476 1.435 . S
O514 C511 1.458 . S
O515 C467 1.468 . S
O515 C468 1.408 . S
H516 C457 0.980 . S
H517 C456 0.959 . S
H518 C456 0.959 . S
H519 C456 0.960 . S
H520 C459 0.929 . S
H521 C463 0.929 . S
H522 C464 0.959 . S
H523 C464 0.961 . S
H524 C464 0.961 . S
H525 C465 0.960 . S
H526 C465 0.960 . S
H527 C465 0.961 . S
H528 C467 0.980 . S
H529 C466 0.961 . S
H530 C466 0.960 . S
H531 C466 0.959 . S
H532 C469 0.930 . S
H533 C473 0.931 . S
H534 C474 0.959 . S
H535 C474 0.961 . S
H536 C474 0.959 . S
H537 C475 0.960 . S
H538 C475 0.960 . S
H539 C475 0.960 . S
H540 C511 0.980 . S
H541 C477 0.930 . S
H542 C481 0.930 . S
H543 C482 0.961 . S
H544 C482 0.960 . S
H545 C482 0.958 . S
H546 C483 0.961 . S
H547 C483 0.960 . S
H548 C483 0.960 . S
H549 C485 0.980 . S
H550 C484 0.961 . S
H551 C484 0.961 . S
H552 C484 0.959 . S
H553 C487 0.932 . S
H554 C491 0.929 . S
H555 C492 0.961 . S
H556 C492 0.959 . S
H557 C492 0.959 . S
H558 C493 0.960 . S
H559 C493 0.962 1_545 S
H560 C493 0.961 . S
H561 C495 0.929 . S
H562 C498 0.930 . S
H563 C499 0.929 . S
H564 C502 0.930 . S
H565 C505 0.929 . S
H566 C506 0.930 . S
H567 C510 0.962 . S
H568 C510 0.959 . S
H569 C510 0.958 . S
C570 C571 1.560 . S
C570 H631 0.959 . S
C570 H632 0.959 . S
C570 H633 0.960 . S
C571 C570 1.560 . S
C571 O626 1.426 . S
C571 H630 0.980 . S
C572 C573 1.407 . S
C572 C577 1.418 . S
C572 O626 1.334 . S
C573 C572 1.407 . S
C573 C574 1.360 . S
C573 H634 0.929 . S
C574 C573 1.360 . S
C574 C575 1.401 . S
C574 C578 1.527 . S
C575 C574 1.401 . S
C575 C576 1.405 . S
C575 C608 1.587 . S
C576 C575 1.405 . S
C576 C577 1.332 . S
C576 C579 1.496 . S
C577 C572 1.418 . S
C577 C576 1.332 . S
C577 H635 0.929 . S
C578 C574 1.527 . S
C578 H636 0.959 . S
C578 H637 0.961 . S
C578 H638 0.961 . S
C579 C576 1.496 . S
C579 H639 0.960 . S
C579 H640 0.960 . S
C579 H641 0.961 . S
C580 C581 1.517 . S
C580 H643 0.961 . S
C580 H644 0.960 . S
C580 H645 0.959 . S
C581 C580 1.517 . S
C581 O629 1.468 . S
C581 H642 0.980 . S
C582 C583 1.349 . S
C582 C587 1.367 . S
C582 O629 1.408 . S
C583 C582 1.349 . S
C583 C584 1.407 . S
C583 H646 0.930 . S
C584 C583 1.407 . S
C584 C585 1.449 . S
C584 C588 1.535 . S
C585 C584 1.449 . S
C585 C586 1.384 . S
C585 C610 1.553 . S
C586 C585 1.384 . S
C586 C587 1.364 . S
C586 C589 1.450 . S
C587 C582 1.367 . S
C587 C586 1.364 . S
C587 H647 0.931 . S
C588 C584 1.535 . S
C588 H648 0.959 . S
C588 H649 0.961 . S
C588 H650 0.959 . S
C589 C586 1.450 . S
C589 H651 0.960 . S
C589 H652 0.960 . S
C589 H653 0.960 . S
C590 C591 1.309 . S
C590 C595 1.304 . S
C590 O628 1.435 . S
C591 C590 1.309 . S
C591 C592 1.476 . S
C591 H655 0.930 . S
C592 C591 1.476 . S
C592 C593 1.400 . S
C592 C596 1.567 . S
C593 C592 1.400 . S
C593 C594 1.373 . S
C593 C615 1.432 . S
C594 C593 1.373 . S
C594 C595 1.339 . S
C594 C597 1.530 . S
C595 C590 1.304 . S
C595 C594 1.339 . S
C595 H656 0.930 . S
C596 C592 1.567 . S
C596 H657 0.961 . S
C596 H658 0.960 . S
C596 H659 0.958 . S
C597 C594 1.530 . S
C597 H660 0.961 . S
C597 H661 0.960 . S
C597 H662 0.960 . S
C598 C599 1.530 . S
C598 H664 0.961 . S
C598 H665 0.961 . S
C598 H666 0.959 . S
C599 C598 1.530 . S
C599 O627 1.412 . S
C599 H663 0.980 . S
C600 C601 1.288 . S
C600 C605 1.377 . S
C600 O627 1.393 . S
C601 C600 1.288 . S
C601 C602 1.369 . S
C601 H667 0.932 . S
C602 C601 1.369 . S
C602 C603 1.398 . S
C602 C606 1.527 . S
C603 C602 1.398 . S
C603 C604 1.380 . S
C603 C617 1.497 . S
C604 C603 1.380 . S
C604 C605 1.383 . S
C604 C607 1.603 . S
C605 C600 1.377 . S
C605 C604 1.383 . S
C605 H668 0.929 . S
C606 C602 1.527 . S
C606 H669 0.961 . S
C606 H670 0.959 . S
C606 H671 0.959 . S
C607 C604 1.603 . S
C607 H672 0.960 . S
C607 H673 0.962 . S
C607 H674 0.961 . S
C608 C575 1.587 . S
C608 C609 1.360 . S
C608 C621 1.412 . S
C609 C608 1.360 . S
C609 C610 1.365 . S
C609 H675 0.929 . S
C610 C585 1.553 . S
C610 C609 1.365 . S
C610 C611 1.404 . S
C611 C610 1.404 . S
C611 C612 1.395 . S
C611 C622 1.451 . S
C612 C611 1.395 . S
C612 C613 1.322 . S
C612 H676 0.930 . S
C613 C612 1.322 . S
C613 C614 1.459 . S
C613 H677 0.929 . S
C614 C613 1.459 . S
C614 C615 1.445 . S
C614 C623 1.395 . S
C615 C593 1.432 . S
C615 C614 1.445 . S
C615 C616 1.370 . S
C616 C615 1.370 . S
C616 C617 1.438 . S
C616 H678 0.930 . S
C617 C603 1.497 . S
C617 C616 1.438 . S
C617 C618 1.360 . S
C618 C617 1.360 . S
C618 C619 1.401 . S
C618 C623 1.446 . S
C619 C618 1.401 . S
C619 C620 1.347 . S
C619 H679 0.929 . S
C620 C619 1.347 . S
C620 C621 1.455 . S
C620 H680 0.930 . S
C621 C608 1.412 . S
C621 C620 1.455 . S
C621 C622 1.331 . S
C622 C611 1.451 . S
C622 C621 1.331 . S
C622 C623 1.497 . S
C623 C614 1.395 . S
C623 C618 1.446 . S
C623 C622 1.497 . S
C624 C625 1.582 . S
C624 H681 0.962 . S
C624 H682 0.959 . S
C624 H683 0.958 . S
C625 C624 1.582 . S
C625 O628 1.458 . S
C625 H654 0.980 . S
O626 C571 1.426 . S
O626 C572 1.334 . S
O627 C599 1.412 . S
O627 C600 1.393 . S
O628 C590 1.435 . S
O628 C625 1.458 . S
O629 C581 1.468 . S
O629 C582 1.408 . S
H630 C571 0.980 . S
H631 C570 0.959 . S
H632 C570 0.959 . S
H633 C570 0.960 . S
H634 C573 0.929 . S
H635 C577 0.929 . S
H636 C578 0.959 . S
H637 C578 0.961 . S
H638 C578 0.961 . S
H639 C579 0.960 . S
H640 C579 0.960 . S
H641 C579 0.961 . S
H642 C581 0.980 . S
H643 C580 0.961 . S
H644 C580 0.960 . S
H645 C580 0.959 . S
H646 C583 0.930 . S
H647 C587 0.931 . S
H648 C588 0.959 . S
H649 C588 0.961 . S
H650 C588 0.959 . S
H651 C589 0.960 . S
H652 C589 0.960 . S
H653 C589 0.960 . S
H654 C625 0.980 . S
H655 C591 0.930 . S
H656 C595 0.930 . S
H657 C596 0.961 . S
H658 C596 0.960 . S
H659 C596 0.958 . S
H660 C597 0.961 . S
H661 C597 0.960 . S
H662 C597 0.960 . S
H663 C599 0.980 . S
H664 C598 0.961 . S
H665 C598 0.961 . S
H666 C598 0.959 . S
H667 C601 0.932 . S
H668 C605 0.929 . S
H669 C606 0.961 . S
H670 C606 0.959 . S
H671 C606 0.959 . S
H672 C607 0.960 . S
H673 C607 0.962 . S
H674 C607 0.961 . S
H675 C609 0.929 . S
H676 C612 0.930 . S
H677 C613 0.929 . S
H678 C616 0.930 . S
H679 C619 0.929 . S
H680 C620 0.930 . S
H681 C624 0.962 . S
H682 C624 0.959 . S
H683 C624 0.958 . S
In684 O685 2.294 . S
In684 O686 2.326 . S
In684 O690 2.266 . S
In684 O691 2.326 . S
In684 O692 2.266 . S
In684 O693 2.326 . S
In684 O695 2.294 . S
In684 O696 2.326 . S
O685 In684 2.294 . S
O685 C694 1.240 . S
O686 In684 2.326 . S
O686 C694 1.252 . S
C687 O690 1.252 . S
C687 O691 1.260 . S
C688 O695 1.240 . S
C688 O696 1.252 . S
C689 O692 1.252 . S
C689 O693 1.260 . S
O690 In684 2.266 . S
O690 C687 1.252 . S
O691 In684 2.326 . S
O691 C687 1.260 . S
O692 In684 2.266 . S
O692 C689 1.252 . S
O693 In684 2.326 . S
O693 C689 1.260 . S
C694 O685 1.240 . S
C694 O686 1.252 . S
O695 In684 2.294 . S
O695 C688 1.240 . S
O696 In684 2.326 . S
O696 C688 1.252 . S
In697 O698 2.294 . S
In697 O699 2.326 . S
In697 O703 2.266 . S
In697 O704 2.326 . S
In697 O705 2.266 . S
In697 O706 2.326 . S
In697 O708 2.294 . S
In697 O709 2.326 . S
O698 In697 2.294 . S
O698 C707 1.240 . S
O699 In697 2.326 . S
O699 C707 1.252 . S
C700 O703 1.252 . S
C700 O704 1.260 . S
C701 O708 1.240 . S
C701 O709 1.252 . S
C702 O705 1.252 . S
C702 O706 1.260 . S
O703 In697 2.266 . S
O703 C700 1.252 . S
O704 In697 2.326 . S
O704 C700 1.260 . S
O705 In697 2.266 . S
O705 C702 1.252 . S
O706 In697 2.326 . S
O706 C702 1.260 . S
C707 O698 1.240 . S
C707 O699 1.252 . S
O708 In697 2.294 . S
O708 C701 1.240 . S
O709 In697 2.326 . S
O709 C701 1.252 . S
In710 O711 2.294 . S
In710 O712 2.326 . S
In710 O716 2.266 . S
In710 O717 2.326 . S
In710 O718 2.266 . S
In710 O719 2.326 . S
In710 O721 2.294 . S
In710 O722 2.326 . S
O711 In710 2.294 . S
O711 C720 1.240 . S
O712 In710 2.326 . S
O712 C720 1.252 . S
C713 O716 1.252 . S
C713 O717 1.260 . S
C714 O721 1.240 . S
C714 O722 1.252 . S
C715 O718 1.252 . S
C715 O719 1.260 . S
O716 In710 2.266 . S
O716 C713 1.252 . S
O717 In710 2.326 . S
O717 C713 1.260 . S
O718 In710 2.266 . S
O718 C715 1.252 . S
O719 In710 2.326 . S
O719 C715 1.260 . S
C720 O711 1.240 . S
C720 O712 1.252 . S
O721 In710 2.294 . S
O721 C714 1.240 . S
O722 In710 2.326 . S
O722 C714 1.252 . S
In723 O724 2.294 . S
In723 O725 2.326 . S
In723 O729 2.266 . S
In723 O730 2.326 . S
In723 O731 2.266 . S
In723 O732 2.326 . S
In723 O734 2.294 . S
In723 O735 2.326 . S
O724 In723 2.294 . S
O724 C733 1.240 . S
O725 In723 2.326 . S
O725 C733 1.252 . S
C726 O729 1.252 . S
C726 O730 1.260 . S
C727 O734 1.240 . S
C727 O735 1.252 . S
C728 O731 1.252 . S
C728 O732 1.260 . S
O729 In723 2.266 . S
O729 C726 1.252 . S
O730 In723 2.326 . S
O730 C726 1.260 . S
O731 In723 2.266 . S
O731 C728 1.252 . S
O732 In723 2.326 . S
O732 C728 1.260 . S
C733 O724 1.240 . S
C733 O725 1.252 . S
O734 In723 2.294 . S
O734 C727 1.240 . S
O735 In723 2.326 . S
O735 C727 1.252 . S
In736 O737 2.294 . S
In736 O738 2.326 . S
In736 O742 2.266 . S
In736 O743 2.326 . S
In736 O744 2.266 . S
In736 O745 2.326 . S
In736 O747 2.294 . S
In736 O748 2.326 . S
O737 In736 2.294 . S
O737 C746 1.240 . S
O738 In736 2.326 . S
O738 C746 1.252 . S
C739 O742 1.252 . S
C739 O743 1.260 . S
C740 O747 1.240 . S
C740 O748 1.252 . S
C741 O744 1.252 . S
C741 O745 1.260 . S
O742 In736 2.266 . S
O742 C739 1.252 . S
O743 In736 2.326 . S
O743 C739 1.260 . S
O744 In736 2.266 . S
O744 C741 1.252 . S
O745 In736 2.326 . S
O745 C741 1.260 . S
C746 O737 1.240 . S
C746 O738 1.252 . S
O747 In736 2.294 . S
O747 C740 1.240 . S
O748 In736 2.326 . S
O748 C740 1.252 . S
In749 O750 2.294 . S
In749 O751 2.326 . S
In749 O755 2.266 . S
In749 O756 2.326 . S
In749 O757 2.266 . S
In749 O758 2.326 . S
In749 O760 2.294 . S
In749 O761 2.326 . S
O750 In749 2.294 . S
O750 C759 1.240 . S
O751 In749 2.326 . S
O751 C759 1.252 . S
C752 O755 1.252 . S
C752 O756 1.260 . S
C753 O760 1.240 . S
C753 O761 1.252 . S
C754 O757 1.252 . S
C754 O758 1.260 . S
O755 In749 2.266 . S
O755 C752 1.252 . S
O756 In749 2.326 . S
O756 C752 1.260 . S
O757 In749 2.266 . S
O757 C754 1.252 . S
O758 In749 2.326 . S
O758 C754 1.260 . S
C759 O750 1.240 . S
C759 O751 1.252 . S
O760 In749 2.294 . S
O760 C753 1.240 . S
O761 In749 2.326 . S
O761 C753 1.252 . S
H762 C768 0.930 . S
H763 C772 0.930 . S
H764 C777 0.929 . S
H765 C775 0.929 . S
H766 C770 0.929 . S
H767 C776 0.929 . S
C768 H762 0.930 . S
C768 C769 1.367 . S
C768 C776 1.378 . S
C769 C768 1.367 . S
C769 C777 1.433 . S
C770 H766 0.929 . S
C770 C772 1.378 . S
C770 C774 1.350 . S
C771 C774 1.463 . S
C771 C776 1.350 . S
C771 N779 1.427 . S
C772 H763 0.930 . S
C772 C770 1.378 . S
C772 C773 1.367 . S
C773 C772 1.367 . S
C773 C775 1.433 . S
C774 C770 1.350 . S
C774 C771 1.463 . S
C774 N778 1.427 . S
C775 H765 0.929 . S
C775 C773 1.433 . S
C775 N778 1.384 . S
C776 H767 0.929 . S
C776 C768 1.378 . S
C776 C771 1.350 . S
C777 H764 0.929 . S
C777 C769 1.433 . S
C777 N779 1.384 . S
N778 C774 1.427 . S
N778 C775 1.384 . S
N779 C771 1.427 . S
N779 C777 1.384 . S
H780 C786 0.930 . S
H781 C790 0.930 . S
H782 C795 0.929 . S
H783 C793 0.929 . S
H784 C788 0.929 . S
H785 C794 0.929 . S
C786 H780 0.930 . S
C786 C787 1.367 . S
C786 C794 1.378 . S
C787 C786 1.367 . S
C787 C795 1.433 . S
C788 H784 0.929 . S
C788 C790 1.378 . S
C788 C792 1.350 . S
C789 C792 1.463 . S
C789 C794 1.350 . S
C789 N797 1.427 . S
C790 H781 0.930 . S
C790 C788 1.378 . S
C790 C791 1.367 . S
C791 C790 1.367 . S
C791 C793 1.433 . S
C792 C788 1.350 . S
C792 C789 1.463 . S
C792 N796 1.427 . S
C793 H783 0.929 . S
C793 C791 1.433 . S
C793 N796 1.384 . S
C794 H785 0.929 . S
C794 C786 1.378 . S
C794 C789 1.350 . S
C795 H782 0.929 . S
C795 C787 1.433 . S
C795 N797 1.384 . S
N796 C792 1.427 . S
N796 C793 1.384 . S
N797 C789 1.427 . S
N797 C795 1.384 . S
H798 C804 0.930 . S
H799 C808 0.930 . S
H800 C813 0.929 . S
H801 C811 0.929 . S
H802 C806 0.929 . S
H803 C812 0.929 . S
C804 H798 0.930 . S
C804 C805 1.367 . S
C804 C812 1.378 . S
C805 C804 1.367 . S
C805 C813 1.433 . S
C806 H802 0.929 . S
C806 C808 1.378 . S
C806 C810 1.350 . S
C807 C810 1.463 . S
C807 C812 1.350 . S
C807 N815 1.427 . S
C808 H799 0.930 . S
C808 C806 1.378 . S
C808 C809 1.367 . S
C809 C808 1.367 . S
C809 C811 1.433 . S
C810 C806 1.350 . S
C810 C807 1.463 . S
C810 N814 1.427 . S
C811 H801 0.929 . S
C811 C809 1.433 . S
C811 N814 1.384 . S
C812 H803 0.929 . S
C812 C804 1.378 . S
C812 C807 1.350 . S
C813 H800 0.929 . S
C813 C805 1.433 . S
C813 N815 1.384 . S
N814 C810 1.427 . S
N814 C811 1.384 . S
N815 C807 1.427 . S
N815 C813 1.384 . S
H816 C822 0.930 . S
H817 C826 0.930 . S
H818 C831 0.929 . S
H819 C829 0.929 . S
H820 C824 0.929 . S
H821 C830 0.929 . S
C822 H816 0.930 . S
C822 C823 1.367 . S
C822 C830 1.378 . S
C823 C822 1.367 . S
C823 C831 1.433 . S
C824 H820 0.929 . S
C824 C826 1.378 . S
C824 C828 1.350 . S
C825 C828 1.463 . S
C825 C830 1.350 . S
C825 N833 1.427 . S
C826 H817 0.930 . S
C826 C824 1.378 . S
C826 C827 1.367 . S
C827 C826 1.367 . S
C827 C829 1.433 . S
C828 C824 1.350 . S
C828 C825 1.463 . S
C828 N832 1.427 . S
C829 H819 0.929 . S
C829 C827 1.433 . S
C829 N832 1.384 . S
C830 H821 0.929 . S
C830 C822 1.378 . S
C830 C825 1.350 . S
C831 H818 0.929 . S
C831 C823 1.433 . S
C831 N833 1.384 . S
N832 C828 1.427 . S
N832 C829 1.384 . S
N833 C825 1.427 . S
N833 C831 1.384 . S
H834 C840 0.930 . S
H835 C844 0.930 . S
H836 C849 0.929 . S
H837 C847 0.929 . S
H838 C842 0.929 . S
H839 C848 0.929 . S
C840 H834 0.930 . S
C840 C841 1.367 . S
C840 C848 1.378 . S
C841 C840 1.367 . S
C841 C849 1.433 . S
C842 H838 0.929 . S
C842 C844 1.378 . S
C842 C846 1.350 . S
C843 C846 1.463 . S
C843 C848 1.350 . S
C843 N851 1.427 . S
C844 H835 0.930 . S
C844 C842 1.378 . S
C844 C845 1.367 . S
C845 C844 1.367 . S
C845 C847 1.433 . S
C846 C842 1.350 . S
C846 C843 1.463 . S
C846 N850 1.427 . S
C847 H837 0.929 . S
C847 C845 1.433 . S
C847 N850 1.384 . S
C848 H839 0.929 . S
C848 C840 1.378 . S
C848 C843 1.350 . S
C849 H836 0.929 . S
C849 C841 1.433 . S
C849 N851 1.384 . S
N850 C846 1.427 . S
N850 C847 1.384 . S
N851 C843 1.427 . S
N851 C849 1.384 . S
H852 C858 0.930 . S
H853 C862 0.930 . S
H854 C867 0.929 . S
H855 C865 0.929 . S
H856 C860 0.929 . S
H857 C866 0.929 . S
C858 H852 0.930 . S
C858 C859 1.367 . S
C858 C866 1.378 . S
C859 C858 1.367 . S
C859 C867 1.433 . S
C860 H856 0.929 . S
C860 C862 1.378 . S
C860 C864 1.350 . S
C861 C864 1.463 . S
C861 C866 1.350 . S
C861 N869 1.427 . S
C862 H853 0.930 . S
C862 C860 1.378 . S
C862 C863 1.367 . S
C863 C862 1.367 . S
C863 C865 1.433 . S
C864 C860 1.350 . S
C864 C861 1.463 . S
C864 N868 1.427 . S
C865 H855 0.929 . S
C865 C863 1.433 . S
C865 N868 1.384 . S
C866 H857 0.929 . S
C866 C858 1.378 . S
C866 C861 1.350 . S
C867 H854 0.929 . S
C867 C859 1.433 . S
C867 N869 1.384 . S
N868 C864 1.427 . S
N868 C865 1.384 . S
N869 C861 1.427 . S
N869 C867 1.384 . S
H870 C876 0.930 . S
H871 C880 0.930 . S
H872 C885 0.929 . S
H873 C883 0.929 . S
H874 C878 0.929 . S
H875 C884 0.929 . S
C876 H870 0.930 . S
C876 C877 1.367 . S
C876 C884 1.378 . S
C877 C876 1.367 . S
C877 C885 1.433 . S
C878 H874 0.929 . S
C878 C880 1.378 . S
C878 C882 1.350 . S
C879 C882 1.463 . S
C879 C884 1.350 . S
C879 N887 1.427 . S
C880 H871 0.930 . S
C880 C878 1.378 . S
C880 C881 1.367 . S
C881 C880 1.367 . S
C881 C883 1.433 . S
C882 C878 1.350 . S
C882 C879 1.463 . S
C882 N886 1.427 . S
C883 H873 0.929 . S
C883 C881 1.433 . S
C883 N886 1.384 . S
C884 H875 0.929 . S
C884 C876 1.378 . S
C884 C879 1.350 . S
C885 H872 0.929 . S
C885 C877 1.433 . S
C885 N887 1.384 . S
N886 C882 1.427 . S
N886 C883 1.384 . S
N887 C879 1.427 . S
N887 C885 1.384 . S
H888 C894 0.930 . S
H889 C898 0.930 . S
H890 C903 0.929 . S
H891 C901 0.929 . S
H892 C896 0.929 . S
H893 C902 0.929 . S
C894 H888 0.930 . S
C894 C895 1.367 . S
C894 C902 1.378 . S
C895 C894 1.367 . S
C895 C903 1.433 . S
C896 H892 0.929 . S
C896 C898 1.378 . S
C896 C900 1.350 . S
C897 C900 1.463 . S
C897 C902 1.350 . S
C897 N905 1.427 . S
C898 H889 0.930 . S
C898 C896 1.378 . S
C898 C899 1.367 . S
C899 C898 1.367 . S
C899 C901 1.433 . S
C900 C896 1.350 . S
C900 C897 1.463 . S
C900 N904 1.427 . S
C901 H891 0.929 . S
C901 C899 1.433 . S
C901 N904 1.384 . S
C902 H893 0.929 . S
C902 C894 1.378 . S
C902 C897 1.350 . S
C903 H890 0.929 . S
C903 C895 1.433 . S
C903 N905 1.384 . S
N904 C900 1.427 . S
N904 C901 1.384 . S
N905 C897 1.427 . S
N905 C903 1.384 . S
H906 C912 0.930 . S
H907 C916 0.930 . S
H908 C921 0.929 . S
H909 C919 0.929 . S
H910 C914 0.929 . S
H911 C920 0.929 . S
C912 H906 0.930 . S
C912 C913 1.367 . S
C912 C920 1.378 . S
C913 C912 1.367 . S
C913 C921 1.433 . S
C914 H910 0.929 . S
C914 C916 1.378 . S
C914 C918 1.350 . S
C915 C918 1.463 . S
C915 C920 1.350 . S
C915 N923 1.427 . S
C916 H907 0.930 . S
C916 C914 1.378 . S
C916 C917 1.367 . S
C917 C916 1.367 . S
C917 C919 1.433 . S
C918 C914 1.350 . S
C918 C915 1.463 . S
C918 N922 1.427 . S
C919 H909 0.929 . S
C919 C917 1.433 . S
C919 N922 1.384 . S
C920 H911 0.929 . S
C920 C912 1.378 . S
C920 C915 1.350 . S
C921 H908 0.929 . S
C921 C913 1.433 . S
C921 N923 1.384 . S
N922 C918 1.427 . S
N922 C919 1.384 . S
N923 C915 1.427 . S
N923 C921 1.384 . S
H924 C930 0.930 . S
H925 C934 0.930 . S
H926 C939 0.929 . S
H927 C937 0.929 . S
H928 C932 0.929 . S
H929 C938 0.929 . S
C930 H924 0.930 . S
C930 C931 1.367 . S
C930 C938 1.378 . S
C931 C930 1.367 . S
C931 C939 1.433 . S
C932 H928 0.929 . S
C932 C934 1.378 . S
C932 C936 1.350 . S
C933 C936 1.463 . S
C933 C938 1.350 . S
C933 N941 1.427 . S
C934 H925 0.930 . S
C934 C932 1.378 . S
C934 C935 1.367 . S
C935 C934 1.367 . S
C935 C937 1.433 . S
C936 C932 1.350 . S
C936 C933 1.463 . S
C936 N940 1.427 . S
C937 H927 0.929 . S
C937 C935 1.433 . S
C937 N940 1.384 . S
C938 H929 0.929 . S
C938 C930 1.378 . S
C938 C933 1.350 . S
C939 H926 0.929 . S
C939 C931 1.433 . S
C939 N941 1.384 . S
N940 C936 1.427 . S
N940 C937 1.384 . S
N941 C933 1.427 . S
N941 C939 1.384 . S
H942 C948 0.930 . S
H943 C952 0.930 . S
H944 C957 0.929 . S
H945 C955 0.929 . S
H946 C950 0.929 . S
H947 C956 0.929 . S
C948 H942 0.930 . S
C948 C949 1.367 . S
C948 C956 1.378 . S
C949 C948 1.367 . S
C949 C957 1.433 . S
C950 H946 0.929 . S
C950 C952 1.378 . S
C950 C954 1.350 . S
C951 C954 1.463 . S
C951 C956 1.350 . S
C951 N959 1.427 . S
C952 H943 0.930 . S
C952 C950 1.378 . S
C952 C953 1.367 . S
C953 C952 1.367 . S
C953 C955 1.433 . S
C954 C950 1.350 . S
C954 C951 1.463 . S
C954 N958 1.427 . S
C955 H945 0.929 . S
C955 C953 1.433 . S
C955 N958 1.384 . S
C956 H947 0.929 . S
C956 C948 1.378 . S
C956 C951 1.350 . S
C957 H944 0.929 . S
C957 C949 1.433 . S
C957 N959 1.384 . S
N958 C954 1.427 . S
N958 C955 1.384 . S
N959 C951 1.427 . S
N959 C957 1.384 . S
H960 C966 0.930 . S
H961 C970 0.930 . S
H962 C975 0.929 . S
H963 C973 0.929 . S
H964 C968 0.929 . S
H965 C974 0.929 . S
C966 H960 0.930 . S
C966 C967 1.367 . S
C966 C974 1.378 . S
C967 C966 1.367 . S
C967 C975 1.433 . S
C968 H964 0.929 . S
C968 C970 1.378 . S
C968 C972 1.350 . S
C969 C972 1.463 . S
C969 C974 1.350 . S
C969 N977 1.427 . S
C970 H961 0.930 . S
C970 C968 1.378 . S
C970 C971 1.367 . S
C971 C970 1.367 . S
C971 C973 1.433 . S
C972 C968 1.350 . S
C972 C969 1.463 . S
C972 N976 1.427 . S
C973 H963 0.929 . S
C973 C971 1.433 . S
C973 N976 1.384 . S
C974 H965 0.929 . S
C974 C966 1.378 . S
C974 C969 1.350 . S
C975 H962 0.929 . S
C975 C967 1.433 . S
C975 N977 1.384 . S
N976 C972 1.427 . S
N976 C973 1.384 . S
N977 C969 1.427 . S
N977 C975 1.384 . S
H978 C984 0.930 . S
H979 C988 0.930 . S
H980 C993 0.929 . S
H981 C991 0.929 . S
H982 C986 0.929 . S
H983 C992 0.929 . S
C984 H978 0.930 . S
C984 C985 1.367 . S
C984 C992 1.378 . S
C985 C984 1.367 . S
C985 C993 1.433 . S
C986 H982 0.929 . S
C986 C988 1.378 . S
C986 C990 1.350 . S
C987 C990 1.463 . S
C987 C992 1.350 . S
C987 N995 1.427 . S
C988 H979 0.930 . S
C988 C986 1.378 . S
C988 C989 1.367 . S
C989 C988 1.367 . S
C989 C991 1.433 . S
C990 C986 1.350 . S
C990 C987 1.463 . S
C990 N994 1.427 . S
C991 H981 0.929 . S
C991 C989 1.433 . S
C991 N994 1.384 . S
C992 H983 0.929 . S
C992 C984 1.378 . S
C992 C987 1.350 . S
C993 H980 0.929 . S
C993 C985 1.433 . S
C993 N995 1.384 . S
N994 C990 1.427 . S
N994 C991 1.384 . S
N995 C987 1.427 . S
N995 C993 1.384 . S
H996 C1002 0.930 . S
H997 C1006 0.930 . S
H998 C1011 0.929 . S
H999 C1009 0.929 . S
H1000 C1004 0.929 . S
H1001 C1010 0.929 . S
C1002 H996 0.930 . S
C1002 C1003 1.367 . S
C1002 C1010 1.378 . S
C1003 C1002 1.367 . S
C1003 C1011 1.433 . S
C1004 H1000 0.929 . S
C1004 C1006 1.378 . S
C1004 C1008 1.350 . S
C1005 C1008 1.463 . S
C1005 C1010 1.350 . S
C1005 N1013 1.427 . S
C1006 H997 0.930 . S
C1006 C1004 1.378 . S
C1006 C1007 1.367 . S
C1007 C1006 1.367 . S
C1007 C1009 1.433 . S
C1008 C1004 1.350 . S
C1008 C1005 1.463 . S
C1008 N1012 1.427 . S
C1009 H999 0.929 . S
C1009 C1007 1.433 . S
C1009 N1012 1.384 . S
C1010 H1001 0.929 . S
C1010 C1002 1.378 . S
C1010 C1005 1.350 . S
C1011 H998 0.929 . S
C1011 C1003 1.433 . S
C1011 N1013 1.384 . S
N1012 C1008 1.427 . S
N1012 C1009 1.384 . S
N1013 C1005 1.427 . S
N1013 C1011 1.384 . S
H1014 C1020 0.930 . S
H1015 C1024 0.930 . S
H1016 C1029 0.929 . S
H1017 C1027 0.929 . S
H1018 C1022 0.929 . S
H1019 C1028 0.929 . S
C1020 H1014 0.930 . S
C1020 C1021 1.367 . S
C1020 C1028 1.378 . S
C1021 C1020 1.367 . S
C1021 C1029 1.433 . S
C1022 H1018 0.929 . S
C1022 C1024 1.378 . S
C1022 C1026 1.350 . S
C1023 C1026 1.463 . S
C1023 C1028 1.350 . S
C1023 N1031 1.427 . S
C1024 H1015 0.930 . S
C1024 C1022 1.378 . S
C1024 C1025 1.367 . S
C1025 C1024 1.367 . S
C1025 C1027 1.433 . S
C1026 C1022 1.350 . S
C1026 C1023 1.463 . S
C1026 N1030 1.427 . S
C1027 H1017 0.929 . S
C1027 C1025 1.433 . S
C1027 N1030 1.384 . S
C1028 H1019 0.929 . S
C1028 C1020 1.378 . S
C1028 C1023 1.350 . S
C1029 H1016 0.929 . S
C1029 C1021 1.433 . S
C1029 N1031 1.384 . S
N1030 C1026 1.427 . S
N1030 C1027 1.384 . S
N1031 C1023 1.427 . S
N1031 C1029 1.384 . S
H1032 C1038 0.930 . S
H1033 C1042 0.930 . S
H1034 C1047 0.929 . S
H1035 C1045 0.929 . S
H1036 C1040 0.929 . S
H1037 C1046 0.929 . S
C1038 H1032 0.930 . S
C1038 C1039 1.367 . S
C1038 C1046 1.378 . S
C1039 C1038 1.367 . S
C1039 C1047 1.433 . S
C1040 H1036 0.929 . S
C1040 C1042 1.378 . S
C1040 C1044 1.350 1_554 S
C1041 C1044 1.463 . S
C1041 C1046 1.350 . S
C1041 N1049 1.427 . S
C1042 H1033 0.930 . S
C1042 C1040 1.378 . S
C1042 C1043 1.367 . S
C1043 C1042 1.367 . S
C1043 C1045 1.433 . S
C1044 C1040 1.350 1_556 S
C1044 C1041 1.463 . S
C1044 N1048 1.427 . S
C1045 H1035 0.929 . S
C1045 C1043 1.433 . S
C1045 N1048 1.384 1_554 S
C1046 H1037 0.929 . S
C1046 C1038 1.378 . S
C1046 C1041 1.350 . S
C1047 H1034 0.929 . S
C1047 C1039 1.433 . S
C1047 N1049 1.384 . S
N1048 C1044 1.427 . S
N1048 C1045 1.384 1_556 S
N1049 C1041 1.427 . S
N1049 C1047 1.384 . S
H1050 C1056 0.930 . S
H1051 C1060 0.930 . S
H1052 C1065 0.929 . S
H1053 C1063 0.929 . S
H1054 C1058 0.929 . S
H1055 C1064 0.929 . S
C1056 H1050 0.930 . S
C1056 C1057 1.367 . S
C1056 C1064 1.378 . S
C1057 C1056 1.367 . S
C1057 C1065 1.433 . S
C1058 H1054 0.929 . S
C1058 C1060 1.378 . S
C1058 C1062 1.350 . S
C1059 C1062 1.463 . S
C1059 C1064 1.350 . S
C1059 N1067 1.427 . S
C1060 H1051 0.930 . S
C1060 C1058 1.378 . S
C1060 C1061 1.367 . S
C1061 C1060 1.367 . S
C1061 C1063 1.433 . S
C1062 C1058 1.350 . S
C1062 C1059 1.463 . S
C1062 N1066 1.427 . S
C1063 H1053 0.929 . S
C1063 C1061 1.433 . S
C1063 N1066 1.384 . S
C1064 H1055 0.929 . S
C1064 C1056 1.378 . S
C1064 C1059 1.350 . S
C1065 H1052 0.929 . S
C1065 C1057 1.433 . S
C1065 N1067 1.384 . S
N1066 C1062 1.427 . S
N1066 C1063 1.384 . S
N1067 C1059 1.427 . S
N1067 C1065 1.384 . S
H1068 C1074 0.930 . S
H1069 C1078 0.930 . S
H1070 C1083 0.929 . S
H1071 C1081 0.929 . S
H1072 C1076 0.929 . S
H1073 C1082 0.929 . S
C1074 H1068 0.930 . S
C1074 C1075 1.367 . S
C1074 C1082 1.378 . S
C1075 C1074 1.367 . S
C1075 C1083 1.433 . S
C1076 H1072 0.929 . S
C1076 C1078 1.378 . S
C1076 C1080 1.350 . S
C1077 C1080 1.463 . S
C1077 C1082 1.350 . S
C1077 N1085 1.427 . S
C1078 H1069 0.930 . S
C1078 C1076 1.378 . S
C1078 C1079 1.367 . S
C1079 C1078 1.367 . S
C1079 C1081 1.433 . S
C1080 C1076 1.350 . S
C1080 C1077 1.463 . S
C1080 N1084 1.427 . S
C1081 H1071 0.929 . S
C1081 C1079 1.433 . S
C1081 N1084 1.384 . S
C1082 H1073 0.929 . S
C1082 C1074 1.378 . S
C1082 C1077 1.350 . S
C1083 H1070 0.929 . S
C1083 C1075 1.433 . S
C1083 N1085 1.384 . S
N1084 C1080 1.427 . S
N1084 C1081 1.384 . S
N1085 C1077 1.427 . S
N1085 C1083 1.384 . S
H1086 C1092 0.930 . S
H1087 C1096 0.930 . S
H1088 C1101 0.929 . S
H1089 C1099 0.929 . S
H1090 C1094 0.929 . S
H1091 C1100 0.929 . S
C1092 H1086 0.930 . S
C1092 C1093 1.367 . S
C1092 C1100 1.378 . S
C1093 C1092 1.367 . S
C1093 C1101 1.433 . S
C1094 H1090 0.929 . S
C1094 C1096 1.378 . S
C1094 C1098 1.350 . S
C1095 C1098 1.463 . S
C1095 C1100 1.350 . S
C1095 N1103 1.427 . S
C1096 H1087 0.930 . S
C1096 C1094 1.378 . S
C1096 C1097 1.367 . S
C1097 C1096 1.367 . S
C1097 C1099 1.433 . S
C1098 C1094 1.350 . S
C1098 C1095 1.463 . S
C1098 N1102 1.427 . S
C1099 H1089 0.929 . S
C1099 C1097 1.433 . S
C1099 N1102 1.384 . S
C1100 H1091 0.929 . S
C1100 C1092 1.378 . S
C1100 C1095 1.350 . S
C1101 H1088 0.929 . S
C1101 C1093 1.433 . S
C1101 N1103 1.384 . S
N1102 C1098 1.427 . S
N1102 C1099 1.384 . S
N1103 C1095 1.427 . S
N1103 C1101 1.384 . S
H1104 C1110 0.930 . S
H1105 C1114 0.930 . S
H1106 C1119 0.929 . S
H1107 C1117 0.929 . S
H1108 C1112 0.929 . S
H1109 C1118 0.929 . S
C1110 H1104 0.930 . S
C1110 C1111 1.367 . S
C1110 C1118 1.378 . S
C1111 C1110 1.367 . S
C1111 C1119 1.433 . S
C1112 H1108 0.929 . S
C1112 C1114 1.378 . S
C1112 C1116 1.350 . S
C1113 C1116 1.463 . S
C1113 C1118 1.350 . S
C1113 N1121 1.427 . S
C1114 H1105 0.930 . S
C1114 C1112 1.378 . S
C1114 C1115 1.367 . S
C1115 C1114 1.367 . S
C1115 C1117 1.433 . S
C1116 C1112 1.350 . S
C1116 C1113 1.463 . S
C1116 N1120 1.427 . S
C1117 H1107 0.929 . S
C1117 C1115 1.433 . S
C1117 N1120 1.384 . S
C1118 H1109 0.929 . S
C1118 C1110 1.378 . S
C1118 C1113 1.350 . S
C1119 H1106 0.929 . S
C1119 C1111 1.433 . S
C1119 N1121 1.384 . S
N1120 C1116 1.427 . S
N1120 C1117 1.384 . S
N1121 C1113 1.427 . S
N1121 C1119 1.384 . S
H1122 C1128 0.930 . S
H1123 C1132 0.930 . S
H1124 C1137 0.929 . S
H1125 C1135 0.929 . S
H1126 C1130 0.929 . S
H1127 C1136 0.929 . S
C1128 H1122 0.930 . S
C1128 C1129 1.367 . S
C1128 C1136 1.378 . S
C1129 C1128 1.367 . S
C1129 C1137 1.433 . S
C1130 H1126 0.929 . S
C1130 C1132 1.378 . S
C1130 C1134 1.350 . S
C1131 C1134 1.463 . S
C1131 C1136 1.350 . S
C1131 N1139 1.427 . S
C1132 H1123 0.930 . S
C1132 C1130 1.378 . S
C1132 C1133 1.367 . S
C1133 C1132 1.367 . S
C1133 C1135 1.433 . S
C1134 C1130 1.350 . S
C1134 C1131 1.463 . S
C1134 N1138 1.427 . S
C1135 H1125 0.929 . S
C1135 C1133 1.433 . S
C1135 N1138 1.384 . S
C1136 H1127 0.929 . S
C1136 C1128 1.378 . S
C1136 C1131 1.350 . S
C1137 H1124 0.929 . S
C1137 C1129 1.433 . S
C1137 N1139 1.384 . S
N1138 C1134 1.427 . S
N1138 C1135 1.384 . S
N1139 C1131 1.427 . S
N1139 C1137 1.384 . S
H1140 C1146 0.930 . S
H1141 C1150 0.930 . S
H1142 C1155 0.929 . S
H1143 C1153 0.929 . S
H1144 C1148 0.929 . S
H1145 C1154 0.929 . S
C1146 H1140 0.930 . S
C1146 C1147 1.367 . S
C1146 C1154 1.378 . S
C1147 C1146 1.367 . S
C1147 C1155 1.433 . S
C1148 H1144 0.929 . S
C1148 C1150 1.378 . S
C1148 C1152 1.350 . S
C1149 C1152 1.463 . S
C1149 C1154 1.350 . S
C1149 N1157 1.427 . S
C1150 H1141 0.930 . S
C1150 C1148 1.378 . S
C1150 C1151 1.367 . S
C1151 C1150 1.367 . S
C1151 C1153 1.433 . S
C1152 C1148 1.350 . S
C1152 C1149 1.463 . S
C1152 N1156 1.427 . S
C1153 H1143 0.929 . S
C1153 C1151 1.433 . S
C1153 N1156 1.384 . S
C1154 H1145 0.929 . S
C1154 C1146 1.378 . S
C1154 C1149 1.350 . S
C1155 H1142 0.929 . S
C1155 C1147 1.433 . S
C1155 N1157 1.384 . S
N1156 C1152 1.427 . S
N1156 C1153 1.384 . S
N1157 C1149 1.427 . S
N1157 C1155 1.384 . S
H1158 C1164 0.930 . S
H1159 C1168 0.930 . S
H1160 C1173 0.929 . S
H1161 C1171 0.929 . S
H1162 C1166 0.929 . S
H1163 C1172 0.929 . S
C1164 H1158 0.930 . S
C1164 C1165 1.367 . S
C1164 C1172 1.378 . S
C1165 C1164 1.367 . S
C1165 C1173 1.433 . S
C1166 H1162 0.929 . S
C1166 C1168 1.378 . S
C1166 C1170 1.350 . S
C1167 C1170 1.463 1_554 S
C1167 C1172 1.350 . S
C1167 N1175 1.427 . S
C1168 H1159 0.930 . S
C1168 C1166 1.378 . S
C1168 C1169 1.367 . S
C1169 C1168 1.367 . S
C1169 C1171 1.433 . S
C1170 C1166 1.350 . S
C1170 C1167 1.463 1_556 S
C1170 N1174 1.427 . S
C1171 H1161 0.929 . S
C1171 C1169 1.433 . S
C1171 N1174 1.384 . S
C1172 H1163 0.929 . S
C1172 C1164 1.378 . S
C1172 C1167 1.350 . S
C1173 H1160 0.929 . S
C1173 C1165 1.433 . S
C1173 N1175 1.384 . S
N1174 C1170 1.427 . S
N1174 C1171 1.384 . S
N1175 C1167 1.427 . S
N1175 C1173 1.384 . S
H1176 C1182 0.930 . S
H1177 C1186 0.930 . S
H1178 C1191 0.929 . S
H1179 C1189 0.929 . S
H1180 C1184 0.929 . S
H1181 C1190 0.929 . S
C1182 H1176 0.930 . S
C1182 C1183 1.367 . S
C1182 C1190 1.378 . S
C1183 C1182 1.367 . S
C1183 C1191 1.433 . S
C1184 H1180 0.929 . S
C1184 C1186 1.378 . S
C1184 C1188 1.350 . S
C1185 C1188 1.463 . S
C1185 C1190 1.350 . S
C1185 N1193 1.427 . S
C1186 H1177 0.930 . S
C1186 C1184 1.378 . S
C1186 C1187 1.367 . S
C1187 C1186 1.367 . S
C1187 C1189 1.433 . S
C1188 C1184 1.350 . S
C1188 C1185 1.463 . S
C1188 N1192 1.427 . S
C1189 H1179 0.929 . S
C1189 C1187 1.433 . S
C1189 N1192 1.384 . S
C1190 H1181 0.929 . S
C1190 C1182 1.378 . S
C1190 C1185 1.350 . S
C1191 H1178 0.929 . S
C1191 C1183 1.433 . S
C1191 N1193 1.384 . S
N1192 C1188 1.427 . S
N1192 C1189 1.384 . S
N1193 C1185 1.427 . S
N1193 C1191 1.384 . S
C773 C754 1.591 . S
C769 C1 1.198 . S
C787 C169 1.384 . S
C791 C689 1.719 . S
C805 C283 1.345 . S
C809 C707 1.697 . S
C823 C397 1.197 . S
C827 C720 1.543 . S
C845 C728 1.433 . S
C841 C457 1.117 . S
C859 C571 1.096 . S
C863 C740 1.452 . S
C877 C115 1.230 . S
C881 C702 1.585 . S
C895 C229 1.095 . S
C899 C715 1.456 . S
C913 C343 1.104 . S
C917 C733 1.428 . S
C935 C739 1.561 . S
C931 C511 1.244 . S
C953 C759 1.683 . S
C949 C625 1.319 . S
C971 C694 1.729 . S
C967 C55 1.364 . S
C985 C29 1.298 . S
C989 C700 1.540 . S
C1003 C125 0.951 . S
C1007 C713 1.654 . S
C1025 C727 1.572 . S
C1021 C239 0.863 . S
C1039 C353 0.915 . S
C1043 C741 1.581 . S
C1061 C753 1.462 . S
C1057 C485 1.234 . S
C1079 C688 1.541 . S
C1075 C599 1.285 . S
C1097 C752 1.546 . S
C1093 C143 1.329 . S
C1111 C257 1.281 . S
C1115 C687 1.539 . S
C1133 C701 1.470 . S
C1129 C371 1.255 . S
C1147 C467 0.864 . S
C1151 C714 1.557 . S
C1165 C581 0.867 . S
C1169 C726 1.585 . S
C1183 C11 0.920 . S
C1187 C746 1.638 . S
