# Generated by pormake.
# Topology pyr, (3,6)-cn, num edge types: 1
# Building blocks:
#     Node 0, Type 0, BuildingBlock: PAMTOO_clean_linker_0, # of connection points: 3
#     Node 1, Type 0, BuildingBlock: PAMTOO_clean_linker_0, # of connection points: 3
#     Node 2, Type 0, BuildingBlock: PAMTOO_clean_linker_0, # of connection points: 3
#     Node 3, Type 0, BuildingBlock: PAMTOO_clean_linker_0, # of connection points: 3
#     Node 4, Type 0, BuildingBlock: PAMTOO_clean_linker_0, # of connection points: 3
#     Node 5, Type 0, BuildingBlock: PAMTOO_clean_linker_0, # of connection points: 3
#     Node 6, Type 0, BuildingBlock: PAMTOO_clean_linker_0, # of connection points: 3
#     Node 7, Type 0, BuildingBlock: PAMTOO_clean_linker_0, # of connection points: 3
#     Node 8, Type 1, BuildingBlock: PAMTOO_clean_sbu_0, # of connection points: 6
#     Node 9, Type 1, BuildingBlock: PAMTOO_clean_sbu_0, # of connection points: 6
#     Node 10, Type 1, BuildingBlock: PAMTOO_clean_sbu_0, # of connection points: 6
#     Node 11, Type 1, BuildingBlock: PAMTOO_clean_sbu_0, # of connection points: 6
#     Edge 12, Type (0, 1), BuildingBlock: KIFKEQ_clean_linker_1, # of connection points: 2
#     Edge 13, Type (0, 1), BuildingBlock: KIFKEQ_clean_linker_1, # of connection points: 2
#     Edge 14, Type (0, 1), BuildingBlock: KIFKEQ_clean_linker_1, # of connection points: 2
#     Edge 15, Type (0, 1), BuildingBlock: KIFKEQ_clean_linker_1, # of connection points: 2
#     Edge 16, Type (0, 1), BuildingBlock: KIFKEQ_clean_linker_1, # of connection points: 2
#     Edge 17, Type (0, 1), BuildingBlock: KIFKEQ_clean_linker_1, # of connection points: 2
#     Edge 18, Type (0, 1), BuildingBlock: KIFKEQ_clean_linker_1, # of connection points: 2
#     Edge 19, Type (0, 1), BuildingBlock: KIFKEQ_clean_linker_1, # of connection points: 2
#     Edge 20, Type (0, 1), BuildingBlock: KIFKEQ_clean_linker_1, # of connection points: 2
#     Edge 21, Type (0, 1), BuildingBlock: KIFKEQ_clean_linker_1, # of connection points: 2
#     Edge 22, Type (0, 1), BuildingBlock: KIFKEQ_clean_linker_1, # of connection points: 2
#     Edge 23, Type (0, 1), BuildingBlock: KIFKEQ_clean_linker_1, # of connection points: 2
#     Edge 24, Type (0, 1), BuildingBlock: KIFKEQ_clean_linker_1, # of connection points: 2
#     Edge 25, Type (0, 1), BuildingBlock: KIFKEQ_clean_linker_1, # of connection points: 2
#     Edge 26, Type (0, 1), BuildingBlock: KIFKEQ_clean_linker_1, # of connection points: 2
#     Edge 27, Type (0, 1), BuildingBlock: KIFKEQ_clean_linker_1, # of connection points: 2
#     Edge 28, Type (0, 1), BuildingBlock: KIFKEQ_clean_linker_1, # of connection points: 2
#     Edge 29, Type (0, 1), BuildingBlock: KIFKEQ_clean_linker_1, # of connection points: 2
#     Edge 30, Type (0, 1), BuildingBlock: KIFKEQ_clean_linker_1, # of connection points: 2
#     Edge 31, Type (0, 1), BuildingBlock: KIFKEQ_clean_linker_1, # of connection points: 2
#     Edge 32, Type (0, 1), BuildingBlock: KIFKEQ_clean_linker_1, # of connection points: 2
#     Edge 33, Type (0, 1), BuildingBlock: KIFKEQ_clean_linker_1, # of connection points: 2
#     Edge 34, Type (0, 1), BuildingBlock: KIFKEQ_clean_linker_1, # of connection points: 2
#     Edge 35, Type (0, 1), BuildingBlock: KIFKEQ_clean_linker_1, # of connection points: 2
# Relax obj value: 0.160
# Max RMSD: 0.264
# Mean RMSD: 0.143
data_MOF--net-pyr--node1-PAMTOO_clean_sbu_0--node2-PAMTOO_clean_linker_0--edge1-KIFKEQ_clean_linker_1
_symmetry_space_group_name_H-M    P1
_symmetry_Int_Tables_number       1
_symmetry_cell_setting            triclinic
loop_
_symmetry_equiv_pos_as_xyz
'x, y, z'
_cell_length_a     37.817921
_cell_length_b     39.98176
_cell_length_c     38.03289
_cell_angle_alpha  91.149675
_cell_angle_beta   90.073
_cell_angle_gamma 108.52089
loop_
_atom_site_label
_atom_site_type_symbol
_atom_site_fract_x
_atom_site_fract_y
_atom_site_fract_z
_atom_type_partial_charge
H0 H 0.29725 0.3035 0.28466 0.0
H1 H 0.39301 0.26953 0.2652 0.0
H2 H 0.35876 0.33054 0.18881 0.0
H3 H 0.40387 0.28936 0.14934 0.0
C4 C 0.39625 0.27347 0.17345 0.0
O5 O 0.4051 0.29607 0.20243 0.0
H6 H 0.36564 0.25953 0.17138 0.0
C7 C 0.32103 0.30368 0.26872 0.0
C8 C 0.32542 0.31984 0.2359 0.0
C9 C 0.3454 0.28576 0.28008 0.0
C10 C 0.37415 0.28362 0.25754 0.0
C11 C 0.37875 0.29973 0.22477 0.0
C12 C 0.35497 0.31839 0.21434 0.0
H13 H 0.173 0.83577 0.77266 0.0
H14 H 0.1705 0.80003 0.66497 0.0
H15 H 0.24945 0.78237 0.73682 0.0
H16 H 0.26017 0.81658 0.65576 0.0
C17 C 0.2499 0.78761 0.64999 0.0
O18 O 0.22225 0.77051 0.67321 0.0
H19 H 0.23794 0.78384 0.62297 0.0
C20 C 0.18385 0.82294 0.75192 0.0
C21 C 0.21376 0.81027 0.75915 0.0
C22 C 0.16872 0.82064 0.71789 0.0
C23 C 0.18132 0.80204 0.69158 0.0
C24 C 0.20973 0.78762 0.69888 0.0
C25 C 0.22617 0.79206 0.73237 0.0
H26 H 0.71053 0.33539 0.95274 0.0
H27 H 0.62878 0.31691 0.86977 0.0
H28 H 0.71392 0.41781 0.88027 0.0
H29 H 0.63556 0.41599 0.86599 0.0
C30 C 0.62963 0.39631 0.84383 0.0
O31 O 0.65685 0.38 0.84243 0.0
H32 H 0.6022 0.37624 0.84901 0.0
C33 C 0.6991 0.34489 0.93031 0.0
C34 C 0.71594 0.37965 0.91926 0.0
C35 C 0.66766 0.32202 0.91295 0.0
C36 C 0.65293 0.33423 0.88363 0.0
C37 C 0.66994 0.3687 0.87164 0.0
C38 C 0.70132 0.39123 0.88949 0.0
H39 H 0.86729 0.73328 0.46312 0.0
H40 H 0.85559 0.64882 0.38748 0.0
H41 H 0.94709 0.74515 0.37986 0.0
H42 H 0.91306 0.71322 0.31057 0.0
C43 C 0.90331 0.68498 0.31796 0.0
O44 O 0.91511 0.68188 0.35178 0.0
H45 H 0.87228 0.67572 0.3167 0.0
C46 C 0.87748 0.72246 0.44038 0.0
C47 C 0.90986 0.74321 0.42355 0.0
C48 C 0.85747 0.68847 0.42771 0.0
C49 C 0.87028 0.67516 0.39749 0.0
C50 C 0.90246 0.69557 0.38019 0.0
C51 C 0.92207 0.72966 0.39311 0.0
H52 H 0.6702 0.83507 0.88356 0.0
H53 H 0.67313 0.79453 0.98685 0.0
H54 H 0.74384 0.77507 0.90662 0.0
H55 H 0.69516 0.71409 0.94988 0.0
C56 C 0.71108 0.72716 0.9738 0.0
O57 O 0.72261 0.76341 0.9714 0.0
H58 H 0.69219 0.71925 0.99665 0.0
C59 C 0.68109 0.81994 0.90148 0.0
C60 C 0.70861 0.80546 0.89018 0.0
C61 C 0.66904 0.81728 0.93646 0.0
C62 C 0.68163 0.79647 0.95956 0.0
C63 C 0.70787 0.7806 0.94828 0.0
C64 C 0.72174 0.78557 0.91397 0.0
H65 H 0.89521 0.24295 0.38657 0.0
H66 H 0.84509 0.32173 0.41735 0.0
H67 H 0.91605 0.29202 0.48978 0.0
H68 H 0.86158 0.33186 0.53211 0.0
C69 C 0.84857 0.32113 0.50633 0.0
O70 O 0.87499 0.33238 0.48041 0.0
H71 H 0.83913 0.29185 0.50852 0.0
C72 C 0.89181 0.26208 0.40578 0.0
C73 C 0.90872 0.26482 0.43911 0.0
C74 C 0.86881 0.28245 0.39764 0.0
C75 C 0.86335 0.30634 0.42292 0.0
C76 C 0.88109 0.31013 0.45574 0.0
C77 C 0.90393 0.28973 0.46367 0.0
H78 H 0.3514 0.7265 0.19207 0.0
H79 H 0.34327 0.64037 0.26103 0.0
H80 H 0.4305 0.73902 0.27693 0.0
H81 H 0.45253 0.67341 0.28417 0.0
C82 C 0.42652 0.65625 0.29639 0.0
O83 O 0.40124 0.67459 0.29989 0.0
H84 H 0.41477 0.6329 0.27856 0.0
C85 C 0.36182 0.71582 0.21432 0.0
C86 C 0.39304 0.73735 0.23327 0.0
C87 C 0.34349 0.68085 0.22394 0.0
C88 C 0.35696 0.66724 0.25307 0.0
C89 C 0.38862 0.68802 0.2718 0.0
C90 C 0.40657 0.72298 0.26187 0.0
H91 H 0.10393 0.32417 0.8121 0.0
H92 H 0.18998 0.42555 0.80727 0.0
H93 H 0.19348 0.34191 0.73733 0.0
H94 H 0.26321 0.3842 0.77408 0.0
C95 C 0.2611 0.41061 0.76786 0.0
O96 O 0.22576 0.40749 0.75579 0.0
H97 H 0.26685 0.42703 0.79246 0.0
C98 C 0.12934 0.34137 0.80082 0.0
C99 C 0.14713 0.32836 0.77351 0.0
C100 C 0.14445 0.3767 0.81333 0.0
C101 C 0.17738 0.39855 0.798 0.0
C102 C 0.19478 0.38588 0.77085 0.0
C103 C 0.17977 0.35107 0.75875 0.0
Dy104 Dy 0.07204 0.05142 0.56676 0.0
Dy105 Dy 0.99189 1.03009 0.60871 0.0
C106 C 0.05852 0.0993 0.63158 0.0
O107 O 0.06711 1.00204 0.59482 0.0
O108 O 0.02765 1.00558 0.63938 0.0
O109 O 0.1318 0.06143 0.56805 0.0
O110 O 0.10263 0.05976 0.51839 0.0
O111 O 0.9897 0.98244 0.57662 0.0
O112 O 0.0308 1.00933 0.53375 0.0
O113 O 0.98585 0.05912 0.56057 0.0
O114 O 0.04667 0.0921 0.55121 0.0
O115 O 0.93183 1.01127 0.60581 0.0
O116 O 0.9599 1.02708 0.65613 0.0
C117 C 0.05182 0.99195 0.6253 0.0
O118 O 0.08256 0.08684 0.61519 0.0
O119 O 0.02242 0.08481 0.62719 0.0
C120 C 0.16679 0.09168 0.51993 0.0
C121 C 0.22389 0.13921 0.4818 0.0
C122 C 0.19499 0.15002 0.49636 0.0
C123 C 0.16641 0.12627 0.51521 0.0
C124 C 0.1968 0.08164 0.50738 0.0
C125 C 0.2251 0.10517 0.48839 0.0
C126 C 0.13462 0.06429 0.53397 0.0
C127 C 0.00402 0.98194 0.54532 0.0
C128 C 0.01084 0.08641 0.54679 0.0
C129 C 0.90291 0.98097 0.65554 0.0
C130 C 0.8546 0.92143 0.68821 0.0
C131 C 0.88863 0.92039 0.67414 0.0
C132 C 0.91263 0.94999 0.65782 0.0
C133 C 0.86884 0.98192 0.66887 0.0
C134 C 0.84488 0.95246 0.68509 0.0
C135 C 0.92814 1.01268 0.63982 0.0
H136 H 0.19333 0.17607 0.49139 0.0
H137 H 0.14327 0.13432 0.52467 0.0
H138 H 0.19743 0.05499 0.51082 0.0
H139 H 0.24721 0.09633 0.47765 0.0
H140 H 0.89681 0.89687 0.67603 0.0
H141 H 0.93892 0.94891 0.6474 0.0
H142 H 0.86103 1.00569 0.6673 0.0
H143 H 0.81931 0.95448 0.69631 0.0
Dy144 Dy 0.49462 1.02572 0.063 0.0
Dy145 Dy 0.57146 0.04802 0.11167 0.0
C146 C 0.50398 0.9759 0.12377 0.0
O147 O 0.48454 0.05327 0.11186 0.0
O148 O 0.54403 0.08869 0.12303 0.0
O149 O 0.43451 1.00586 0.06122 0.0
O150 O 0.46589 1.02416 1.01373 0.0
O151 O 0.58609 0.08378 0.06538 0.0
O152 O 0.52714 0.07997 1.04639 0.0
O153 O 0.57493 1.00299 0.07829 0.0
O154 O 0.5315 1.00024 1.03472 0.0
O155 O 0.63096 0.05961 0.11796 0.0
O156 O 0.59602 0.05837 0.16351 0.0
C157 C 0.50797 0.0821 0.12579 0.0
O158 O 0.4919 0.97721 0.0917 0.0
O159 O 0.52916 1.0032 0.13869 0.0
C160 C 0.40927 0.97791 1.00781 0.0
C161 C 0.36341 0.92042 0.96795 0.0
C162 C 0.39805 0.91981 0.98094 0.0
C163 C 0.42082 0.94838 1.00086 0.0
C164 C 0.37461 0.97836 0.9955 0.0
C165 C 0.35188 0.94992 0.97572 0.0
C166 C 0.43317 1.0088 1.02721 0.0
C167 C 0.56345 0.09516 1.04611 0.0
C168 C 0.55939 0.99128 1.04767 0.0
C169 C 0.65832 0.0953 0.16724 0.0
C170 C 0.71126 0.15279 0.20138 0.0
C171 C 0.68323 0.15824 0.18 0.0
C172 C 0.65689 0.12963 0.163 0.0
C173 C 0.68654 0.08987 0.18785 0.0
C174 C 0.71271 0.11826 0.20482 0.0
C175 C 0.62989 0.06448 0.15191 0.0
H176 H 0.40761 0.89742 0.97548 0.0
H177 H 0.44758 0.94768 1.01042 0.0
H178 H 0.3654 1.00103 1.00063 0.0
H179 H 0.32578 0.95164 0.9655 0.0
H180 H 0.68149 0.18451 0.17664 0.0
H181 H 0.63514 0.13417 0.14707 0.0
H182 H 0.68783 0.06346 0.19151 0.0
H183 H 0.73332 0.11291 0.22163 0.0
Dy184 Dy 0.53729 0.50352 0.55064 0.0
Dy185 Dy 0.54618 0.57727 0.59533 0.0
C186 C 0.57416 0.51599 0.6273 0.0
O187 O 0.49051 0.49087 0.5889 0.0
O188 O 0.48556 0.54619 0.59538 0.0
O189 O 0.52811 0.44733 0.549 0.0
O190 O 0.53762 0.47662 0.50088 0.0
O191 O 0.53086 0.58603 0.54023 0.0
O192 O 0.50066 0.52894 0.52245 0.0
O193 O 0.60423 0.58216 0.57819 0.0
O194 O 0.58834 0.54378 0.53084 0.0
O195 O 0.56396 0.6342 0.59959 0.0
O196 O 0.53536 0.60279 0.64287 0.0
C197 C 0.47207 0.51197 0.59952 0.0
O198 O 0.57648 0.50423 0.59514 0.0
O199 O 0.55837 0.5404 0.63359 0.0
C200 C 0.56672 0.4334 0.50709 0.0
C201 C 0.62639 0.40724 0.49344 0.0
C202 C 0.63286 0.44073 0.50937 0.0
C203 C 0.60333 0.45364 0.51614 0.0
C204 C 0.55995 0.40015 0.49092 0.0
C205 C 0.5896 0.38711 0.48415 0.0
C206 C 0.53597 0.44704 0.51566 0.0
C207 C 0.50831 0.56312 0.51841 0.0
C208 C 0.61277 0.56946 0.54838 0.0
C209 C 0.52013 0.65388 0.63103 0.0
C210 C 0.46352 0.68582 0.63637 0.0
C211 C 0.46989 0.67051 0.60433 0.0
C212 C 0.49771 0.6545 0.60176 0.0
C213 C 0.51454 0.66978 0.6628 0.0
C214 C 0.4865 0.68561 0.66548 0.0
C215 C 0.54698 0.6341 0.62945 0.0
H216 H 0.66068 0.45665 0.51749 0.0
H217 H 0.609 0.4793 0.52891 0.0
H218 H 0.53179 0.38422 0.48382 0.0
H219 H 0.58377 0.36132 0.47166 0.0
H220 H 0.4532 0.67066 0.58121 0.0
H221 H 0.50123 0.64204 0.57703 0.0
H222 H 0.53123 0.66916 0.6858 0.0
H223 H 0.48211 0.6967 0.69068 0.0
Dy224 Dy 0.03491 0.56389 1.04751 0.0
Dy225 Dy 0.02359 0.49335 0.09468 0.0
C226 C -0.00063 0.55759 0.12488 0.0
O227 O 0.09282 0.56793 0.06491 0.0
O228 O 0.07623 0.53348 0.11349 0.0
O229 O 0.05365 0.62054 1.04185 0.0
O230 O 0.02587 0.58648 0.99849 0.0
O231 O 0.06073 0.48901 1.05006 0.0
O232 O 0.04178 0.5222 1.01052 0.0
O233 O 0.97415 0.47992 0.05872 0.0
O234 O 0.97353 0.53599 1.04831 0.0
O235 O 0.01349 0.43719 0.09788 0.0
O236 O 0.02301 0.46968 0.14529 0.0
C237 C 0.10119 0.55711 0.09533 0.0
O238 O 0.022 0.57785 0.10215 0.0
O239 O 0.99004 0.52301 0.12235 0.0
C240 C 0.00865 0.63692 1.00934 0.0
C241 C 0.94696 0.66172 1.00256 0.0
C242 C 0.95666 0.65156 1.03545 0.0
C243 C 0.987 0.63907 1.03876 0.0
C244 C 5e-05 0.64831 0.97676 0.0
C245 C 0.96949 0.66064 0.97337 0.0
C246 C 0.03664 0.61849 1.01162 0.0
C247 C 0.05681 0.49763 1.01748 0.0
C248 C 0.95737 0.50168 1.04698 0.0
C249 C 0.05174 0.42598 0.14142 0.0
C250 C 0.11155 0.40235 0.16065 0.0
C251 C 0.1178 0.4328 0.14057 0.0
C252 C 0.08817 0.44444 0.13101 0.0
C253 C 0.04516 0.39562 0.16141 0.0
C254 C 0.07489 0.38385 0.17099 0.0
C255 C 0.02117 0.43909 0.13143 0.0
H256 H 0.94037 0.65261 0.0586 0.0
H257 H 0.99273 0.62999 0.06414 0.0
H258 H 0.01606 0.64633 0.95365 0.0
H259 H 0.9626 0.66789 0.94758 0.0
H260 H 0.1457 0.44799 0.13268 0.0
H261 H 0.09372 0.46805 0.11561 0.0
H262 H 0.01715 0.38109 0.16959 0.0
H263 H 0.06915 0.36011 0.18618 0.0
H264 H 0.3536 0.22185 0.29621 0.0
H265 H 0.32175 0.30792 0.34171 0.0
H266 H 0.33382 0.18844 0.34927 0.0
H267 H 0.29867 0.2733 0.3932 0.0
H268 H 0.2663 0.20876 0.48922 0.0
H269 H 0.30559 0.2459 0.44469 0.0
H270 H 0.27648 0.15672 0.37167 0.0
H271 H 0.23929 0.11983 0.41658 0.0
C272 C 0.34282 0.2339 0.31764 0.0
C273 C 0.33857 0.26736 0.31426 0.0
C274 C 0.33084 0.21444 0.34795 0.0
C275 C 0.31364 0.22764 0.37533 0.0
C276 C 0.31177 0.26208 0.37289 0.0
C277 C 0.32445 0.2818 0.34293 0.0
C278 C 0.26894 0.19723 0.46373 0.0
C279 C 0.24994 0.16151 0.45629 0.0
C280 C 0.29126 0.21845 0.43813 0.0
C281 C 0.2943 0.20448 0.40435 0.0
C282 C 0.27577 0.16843 0.39746 0.0
C283 C 0.25413 0.14721 0.42317 0.0
H284 H 0.2266 0.87098 0.79839 0.0
H285 H 0.24823 0.7709 0.79736 0.0
H286 H 0.25962 0.88683 0.85383 0.0
H287 H 0.2839 0.7885 0.85246 0.0
H288 H 0.38687 0.88673 0.91372 0.0
H289 H 0.34806 0.85072 0.86661 0.0
H290 H 0.24923 0.85551 0.92004 0.0
H291 H 0.28765 0.89045 0.96775 0.0
C292 C 0.23768 0.85194 0.81017 0.0
C293 C 0.2339 0.81922 0.79349 0.0
C294 C 0.25692 0.86128 0.84188 0.0
C295 C 0.27372 0.83864 0.85742 0.0
C296 C 0.27081 0.80619 0.84088 0.0
C297 C 0.25066 0.79634 0.8093 0.0
C298 C 0.35683 0.87889 0.91618 0.0
C299 C 0.34031 0.89206 0.94407 0.0
C300 C 0.3347 0.85828 0.88922 0.0
C301 C 0.29587 0.85076 0.8898 0.0
C302 C 0.2792 0.86118 0.91913 0.0
C303 C 0.30121 0.88141 0.94618 0.0
H304 H 0.65736 0.46692 0.82908 0.0
H305 H 0.59694 0.36619 0.78143 0.0
H306 H 0.64846 0.49658 0.77574 0.0
H307 H 0.58751 0.39571 0.72803 0.0
H308 H 0.59928 0.45846 0.62691 0.0
H309 H 0.61706 0.43016 0.67735 0.0
H310 H 0.59667 0.50869 0.74682 0.0
H311 H 0.57938 0.53711 0.69661 0.0
C312 C 0.64237 0.45113 0.80703 0.0
C313 C 0.6274 0.41429 0.80954 0.0
C314 C 0.63705 0.46811 0.77652 0.0
C315 C 0.61686 0.44866 0.74759 0.0
C316 C 0.60337 0.41159 0.74961 0.0
C317 C 0.6086 0.39464 0.78022 0.0
C318 C 0.59897 0.46993 0.6529 0.0
C319 C 0.58781 0.50013 0.65756 0.0
C320 C 0.60893 0.45352 0.6819 0.0
C321 C 0.60828 0.46702 0.7163 0.0
C322 C 0.59799 0.49772 0.72078 0.0
C323 C 0.58783 0.51396 0.69188 0.0
H324 H 0.86776 0.61945 0.28841 0.0
H325 H 0.97335 0.7027 0.28995 0.0
H326 H 0.8909 0.58757 0.24306 0.0
H327 H -0.00294 0.67066 0.2452 0.0
H328 H 0.01014 0.62795 0.13559 0.0
H329 H 0.98778 0.65669 0.18348 0.0
H330 H 0.93389 0.55539 0.2294 0.0
H331 H 0.95582 0.52633 0.18079 0.0
C332 C 0.89609 0.63071 0.27922 0.0
C333 C 0.9186 0.6638 0.2922 0.0
C334 C 0.90946 0.61238 0.25338 0.0
C335 C 0.94577 0.62665 0.24004 0.0
C336 C 0.9687 0.65917 0.2542 0.0
C337 C 0.95529 0.67746 0.28001 0.0
C338 C 0.99354 0.61164 0.15584 0.0
C339 C 0.98489 0.5747 0.15422 0.0
C340 C 0.98091 0.62825 0.18357 0.0
C341 C 0.95924 0.6085 0.21063 0.0
C342 C 0.95028 0.57149 0.20893 0.0
C343 C 0.96296 0.5548 0.18108 0.0
H344 H 0.37524 0.21036 0.20695 0.0
H345 H 0.46296 0.27694 0.14345 0.0
H346 H 0.40442 0.16372 0.2033 0.0
H347 H 0.49195 0.23046 0.13923 0.0
H348 H 0.54771 0.14795 0.15108 0.0
H349 H 0.52333 0.19487 0.1703 0.0
H350 H 0.41088 0.12448 0.15516 0.0
H351 H 0.4351 0.07747 0.1365 0.0
C352 C 0.40098 0.215 0.19251 0.0
C353 C 0.41654 0.24673 0.17482 0.0
C354 C 0.4176 0.18839 0.1903 0.0
C355 C 0.45027 0.19323 0.17064 0.0
C356 C 0.46696 0.22593 0.15478 0.0
C357 C 0.45029 0.25246 0.15695 0.0
C358 C 0.51777 0.14228 0.15241 0.0
C359 C 0.49335 0.10903 0.1419 0.0
C360 C 0.50383 0.16925 0.16326 0.0
C361 C 0.46519 0.16351 0.16398 0.0
C362 C 0.4408 0.12972 0.15523 0.0
C363 C 0.45471 0.10279 0.14429 0.0
H364 H 0.10838 0.8022 0.67248 0.0
H365 H 0.17162 0.88598 0.74319 0.0
H366 H 0.07195 0.83948 0.65352 0.0
H367 H 0.13474 0.92239 0.72496 0.0
H368 H 0.05052 0.97645 0.69558 0.0
H369 H 0.07093 0.93002 0.72213 0.0
H370 H 0.09208 0.89452 0.61862 0.0
H371 H 0.07201 0.94037 0.59242 0.0
C372 C 0.11424 0.82828 0.6843 0.0
C373 C 0.14309 0.84101 0.70928 0.0
C374 C 0.09324 0.84952 0.6736 0.0
C375 C 0.1005 0.88383 0.68781 0.0
C376 C 0.12802 0.89587 0.71399 0.0
C377 C 0.14919 0.87485 0.72444 0.0
C378 C 0.05908 0.95836 0.67865 0.0
C379 C 0.06033 0.96237 0.64205 0.0
C380 C 0.07077 0.93189 0.69377 0.0
C381 C 0.08311 0.90867 0.67241 0.0
C382 C 0.08239 0.9117 0.63576 0.0
C383 C 0.07132 0.9383 0.62079 0.0
H384 H 0.77982 0.42666 0.89267 0.0
H385 H 0.72716 0.38579 0.99051 0.0
H386 H 0.8366 0.45959 0.92507 0.0
H387 H 0.7841 0.41778 1.02247 0.0
H388 H 0.90812 0.43531 1.05326 0.0
H389 H 0.8483 0.40977 1.02318 0.0
H390 H 0.86218 0.50878 0.97262 0.0
H391 H 0.92211 0.53465 1.00303 0.0
C392 C 0.78008 0.4251 0.92105 0.0
C393 C 0.74907 0.40307 0.93887 0.0
C394 C 0.81264 0.4439 0.93959 0.0
C395 C 0.8149 0.44084 0.97624 0.0
C396 C 0.78339 0.42012 0.99417 0.0
C397 C 0.75082 0.4017 0.97578 0.0
C398 C 0.89833 0.45177 1.03598 0.0
C399 C 0.91988 0.48701 1.03058 0.0
C400 C 0.86398 0.43717 1.01886 0.0
C401 C 0.85059 0.45729 0.99555 0.0
C402 C 0.87193 0.49263 0.99031 0.0
C403 C 0.90609 0.50745 1.0079 0.0
H404 H 0.84629 0.68077 0.49859 0.0
H405 H 0.79049 0.6493 0.39845 0.0
H406 H 0.78852 0.65071 0.52895 0.0
H407 H 0.73257 0.6194 0.42876 0.0
H408 H 0.64253 0.54359 0.4929 0.0
H409 H 0.70237 0.56993 0.46491 0.0
H410 H 0.72798 0.65709 0.53989 0.0
H411 H 0.66813 0.63025 0.56852 0.0
C412 C 0.82164 0.66744 0.48304 0.0
C413 C 0.82297 0.66759 0.44606 0.0
C414 C 0.78847 0.6503 0.50047 0.0
C415 C 0.75575 0.63281 0.48137 0.0
C416 C 0.75732 0.63223 0.44436 0.0
C417 C 0.79054 0.64934 0.42693 0.0
C418 C 0.6609 0.56834 0.50358 0.0
C419 C 0.65033 0.58492 0.53289 0.0
C420 C 0.69522 0.58354 0.48734 0.0
C421 C 0.71996 0.61581 0.49987 0.0
C422 C 0.70979 0.63204 0.52971 0.0
C423 C 0.6754 0.61673 0.54607 0.0
H424 H 0.29167 0.31095 0.17137 0.0
H425 H 0.29472 0.36325 0.27232 0.0
H426 H 0.24048 0.33137 0.1527 0.0
H427 H 0.24371 0.38401 0.25359 0.0
H428 H 0.12439 0.37729 0.22423 0.0
H429 H 0.17737 0.35881 0.2414 0.0
H430 H 0.2245 0.38345 0.13798 0.0
H431 H 0.17077 0.40047 0.12036 0.0
C432 C 0.28189 0.32743 0.1893 0.0
C433 C 0.29715 0.33548 0.22331 0.0
C434 C 0.2525 0.33907 0.17865 0.0
C435 C 0.23781 0.35909 0.20177 0.0
C436 C 0.25388 0.36804 0.23541 0.0
C437 C 0.2832 0.35632 0.24608 0.0
C438 C 0.14583 0.37834 0.20504 0.0
C439 C 0.14337 0.39036 0.17095 0.0
C440 C 0.17646 0.36822 0.21501 0.0
C441 C 0.2053 0.36989 0.19113 0.0
C442 C 0.20266 0.38163 0.15694 0.0
C443 C 0.17204 0.39172 0.14696 0.0
H444 H 0.70267 0.27379 0.92711 0.0
H445 H 0.59478 0.28888 0.9303 0.0
H446 H 0.67748 0.21774 0.95665 0.0
H447 H 0.56951 0.23327 0.96103 0.0
H448 H 0.52757 0.11903 0.99456 0.0
H449 H 0.55179 0.17114 0.95898 0.0
H450 H 0.65801 0.19606 1.01285 0.0
H451 H 0.63407 0.14313 1.04757 0.0
C452 C 0.67342 0.26492 0.93401 0.0
C453 C 0.6507 0.28575 0.92646 0.0
C454 C 0.659 0.23292 0.95129 0.0
C455 C 0.62149 0.22096 0.96188 0.0
C456 C 0.59842 0.24127 0.95309 0.0
C457 C 0.61283 0.2732 0.93543 0.0
C458 C 0.55617 0.13555 0.99878 0.0
C459 C 0.57884 0.12678 1.02402 0.0
C460 C 0.57003 0.16567 0.97842 0.0
C461 C 0.60693 0.18813 0.98288 0.0
C462 C 0.62966 0.17921 1.00808 0.0
C463 C 0.61587 0.14888 1.02823 0.0
H464 H 0.9351 0.80643 0.38949 0.0
H465 H 0.93027 0.76035 0.49172 0.0
H466 H 0.95989 0.86562 0.41668 0.0
H467 H 0.95516 0.8189 0.51868 0.0
H468 H 0.94728 0.92235 0.56032 0.0
H469 H 0.92846 0.86612 0.52883 0.0
H470 H 0.01267 0.9085 0.45069 0.0
H471 H 0.03153 0.96563 0.48228 0.0
C472 C 0.94005 0.80895 0.41762 0.0
C473 C 0.93023 0.77881 0.43856 0.0
C474 C 0.95418 0.84279 0.4332 0.0
C475 C 0.95875 0.84702 0.46995 0.0
C476 C 0.95101 0.81668 0.49044 0.0
C477 C 0.9369 0.78309 0.47498 0.0
C478 C 0.96183 0.91996 0.53636 0.0
C479 C 0.99115 0.94861 0.52403 0.0
C480 C 0.95115 0.8875 0.51839 0.0
C481 C 0.96946 0.88255 0.48753 0.0
C482 C -0.00199 0.91145 0.47439 0.0
C483 C 0.00882 0.94415 0.49252 0.0
H484 H 0.32486 0.8232 0.6487 0.0
H485 H 0.24632 0.71804 0.65205 0.0
H486 H 0.37637 0.79882 0.64617 0.0
H487 H 0.29773 0.69346 0.65088 0.0
H488 H 0.39365 0.66035 0.60702 0.0
H489 H 0.34294 0.68522 0.61128 0.0
H490 H 0.4108 0.7691 0.67921 0.0
H491 H 0.46242 0.7453 0.67327 0.0
C492 C 0.31873 0.79486 0.64953 0.0
C493 C 0.28169 0.77252 0.6512 0.0
C494 C 0.34822 0.78085 0.64823 0.0
C495 C 0.34131 0.74413 0.64842 0.0
C496 C 0.30414 0.72183 0.65027 0.0
C497 C 0.27467 0.73586 0.65133 0.0
C498 C 0.39803 0.68439 0.62247 0.0
C499 C 0.43233 0.70092 0.63959 0.0
C500 C 0.36865 0.69837 0.62538 0.0
C501 C 0.37262 0.72913 0.64572 0.0
C502 C 0.40684 0.74558 0.66302 0.0
C503 C 0.43634 0.73169 0.65995 0.0
H504 H 0.73753 0.76524 0.84553 0.0
H505 H 0.72184 0.86768 0.85589 0.0
H506 H 0.77082 0.78364 0.79021 0.0
H507 H 0.75219 0.88433 0.80019 0.0
H508 H 0.77848 0.89477 0.68713 0.0
H509 H 0.73924 0.85765 0.73151 0.0
H510 H 0.83648 0.84341 0.77993 0.0
H511 H 0.87613 0.88149 0.73633 0.0
C512 C 0.74062 0.79134 0.836 0.0
C513 C 0.72638 0.81471 0.8552 0.0
C514 C 0.75936 0.80163 0.80425 0.0
C515 C 0.76327 0.83505 0.79088 0.0
C516 C 0.74862 0.85806 0.80962 0.0
C517 C 0.73089 0.84826 0.84152 0.0
C518 C 0.79146 0.88316 0.70679 0.0
C519 C 0.83047 0.89179 0.70878 0.0
C520 C 0.76897 0.86168 0.7319 0.0
C521 C 0.78504 0.84803 0.75905 0.0
C522 C 0.82354 0.85347 0.75896 0.0
C523 C 0.84618 0.87531 0.73402 0.0
H524 H 0.79401 0.26698 0.38866 0.0
H525 H 0.89603 0.2818 0.33136 0.0
H526 H 0.75792 0.24428 0.33544 0.0
H527 H 0.86016 0.26067 0.2774 0.0
H528 H 0.7855 0.16452 0.21357 0.0
H529 H 0.82492 0.20453 0.25684 0.0
H530 H 0.73693 0.24947 0.27818 0.0
H531 H 0.69648 0.20749 0.23639 0.0
C532 C 0.80868 0.26647 0.3643 0.0
C533 C 0.8477 0.27571 0.36408 0.0
C534 C 0.78803 0.2536 0.33366 0.0
C535 C 0.80604 0.25012 0.30204 0.0
C536 C 0.84529 0.2621 0.3014 0.0
C537 C 0.86589 0.27442 0.33219 0.0
C538 C 0.7746 0.18306 0.22736 0.0
C539 C 0.73753 0.18219 0.22211 0.0
C540 C 0.79747 0.20649 0.25189 0.0
C541 C 0.78405 0.23007 0.2715 0.0
C542 C 0.74795 0.23117 0.26414 0.0
C543 C 0.72488 0.20739 0.23981 0.0
H544 H 0.38615 0.59795 0.33265 0.0
H545 H 0.4867 0.68703 0.33973 0.0
H546 H 0.40267 0.57565 0.38777 0.0
H547 H 0.50391 0.66462 0.39422 0.0
H548 H 0.5121 0.63134 0.50584 0.0
H549 H 0.48942 0.65429 0.45479 0.0
H550 H 0.44661 0.54881 0.41011 0.0
H551 H 0.46858 0.52568 0.46175 0.0
C552 C 0.41174 0.61276 0.34614 0.0
C553 C 0.43537 0.64396 0.33176 0.0
C554 C 0.4214 0.5999 0.37757 0.0
C555 C 0.45484 0.61809 0.39548 0.0
C556 C 0.47779 0.64998 0.3815 0.0
C557 C 0.46808 0.6628 0.35014 0.0
C558 C 0.49768 0.61292 0.48526 0.0
C559 C 0.49241 0.57659 0.48795 0.0
C560 C 0.48482 0.62618 0.45578 0.0
C561 C 0.46639 0.60355 0.42799 0.0
C562 C 0.46031 0.56708 0.43107 0.0
C563 C 0.4731 0.55377 0.46067 0.0
H564 H 0.11454 0.34604 0.87555 0.0
H565 H 0.13469 0.44151 0.81688 0.0
H566 H 0.09139 0.37345 0.92481 0.0
H567 H 0.11347 0.46928 0.86616 0.0
H568 H 0.04428 0.50245 0.94725 0.0
H569 H 0.06114 0.47073 0.89839 0.0
H570 H 0.11266 0.41787 0.97073 0.0
H571 H 0.09455 0.44897 1.02002 0.0
C572 C 0.11373 0.37272 0.87302 0.0
C573 C 0.12675 0.39158 0.84226 0.0
C574 C 0.10095 0.38866 0.90146 0.0
C575 C 0.10068 0.42379 0.89977 0.0
C576 C 0.11276 0.44214 0.86855 0.0
C577 C 0.12539 0.42627 0.84027 0.0
C578 C 0.05928 0.48415 0.95288 0.0
C579 C 0.06827 0.47858 0.98771 0.0
C580 C 0.06911 0.46594 0.9247 0.0
C581 C 0.08857 0.44174 0.93033 0.0
C582 C 0.09733 0.43592 0.96525 0.0
C583 C 0.08724 0.45404 0.99357 0.0
H584 H 0.68706 0.88732 0.92587 0.0
H585 H 0.60623 0.80132 0.97771 0.0
H586 H 0.65757 0.92853 0.95029 0.0
H587 H 0.57629 0.84311 1.00211 0.0
H588 H 0.52035 0.93706 1.00344 0.0
H589 H 0.54365 0.89248 0.97479 0.0
H590 H 0.65273 0.94381 1.01973 0.0
H591 H 0.62962 0.9876 1.04879 0.0
C592 C 0.66251 0.87713 0.94197 0.0
C593 C 0.64875 0.84107 0.94975 0.0
C594 C 0.6458 0.90075 0.95603 0.0
C595 C 0.61473 0.88886 0.97789 0.0
C596 C 0.6001 0.85271 0.98501 0.0
C597 C 0.61728 0.82897 0.97131 0.0
C598 C 0.54934 0.93885 1.00692 0.0
C599 C 0.57327 0.96578 1.02819 0.0
C600 C 0.56248 0.91326 0.99085 0.0
C601 C 0.59986 0.91487 0.99524 0.0
C602 C 0.6238 0.94213 1.01598 0.0
C603 C 0.61057 0.96713 1.03255 0.0
H604 H 0.97254 0.27735 0.47886 0.0
H605 H 0.88767 0.19414 0.42375 0.0
H606 H -0.00097 0.23379 0.50177 0.0
H607 H 0.91511 0.15106 0.44524 0.0
H608 H 0.9391 0.08254 0.53146 0.0
H609 H 0.91744 0.12582 0.50205 0.0
H610 H 0.03147 0.19121 0.48691 0.0
H611 H 0.05334 0.14803 0.5171 0.0
C612 C 0.95984 0.24987 0.47126 0.0
C613 C 0.92788 0.23927 0.44959 0.0
C614 C 0.97525 0.22495 0.48408 0.0
C615 C 0.95899 0.18891 0.47553 0.0
C616 C 0.92797 0.17855 0.45273 0.0
C617 C 0.91255 0.20338 0.44 0.0
C618 C 0.95966 0.10599 0.52169 0.0
C619 C -0.00202 0.11181 0.52675 0.0
C620 C 0.94721 0.13075 0.50458 0.0
C621 C 0.97273 0.16196 0.49204 0.0
C622 C 0.0111 0.16758 0.49657 0.0
C623 C 0.02361 0.14273 0.51369 0.0
H624 H 0.33332 0.67473 0.15248 0.0
H625 H 0.27716 0.63866 0.24997 0.0
H626 H 0.27668 0.64318 0.11967 0.0
H627 H 0.22029 0.60754 0.21734 0.0
H628 H 0.13187 0.5317 0.14941 0.0
H629 H 0.19147 0.55897 0.17879 0.0
H630 H 0.2156 0.64599 0.10743 0.0
H631 H 0.1561 0.61803 0.07727 0.0
C632 C 0.30881 0.66007 0.16692 0.0
C633 C 0.30975 0.65931 0.20388 0.0
C634 C 0.27625 0.64207 0.1481 0.0
C635 C 0.24368 0.62288 0.16574 0.0
C636 C 0.24491 0.62156 0.20272 0.0
C637 C 0.27754 0.63943 0.22152 0.0
C638 C 0.14993 0.55658 0.13978 0.0
C639 C 0.13901 0.5728 0.11107 0.0
C640 C 0.18412 0.57235 0.15684 0.0
C641 C 0.20834 0.60497 0.14588 0.0
C642 C 0.19789 0.62073 0.11647 0.0
C643 C 0.16368 0.60476 0.0992 0.0
H644 H 0.27039 0.38169 0.70437 0.0
H645 H 0.3146 0.47589 0.76874 0.0
H646 H 0.31744 0.40658 0.65968 0.0
H647 H 0.36226 0.50058 0.72475 0.0
H648 H 0.42747 0.54735 0.62856 0.0
H649 H 0.37338 0.52354 0.66606 0.0
H650 H 0.38378 0.41944 0.6534 0.0
H651 H 0.43713 0.44297 0.61535 0.0
C652 C 0.29025 0.40776 0.70882 0.0
C653 C 0.28921 0.42678 0.74 0.0
C654 C 0.31725 0.42196 0.6834 0.0
C655 C 0.34379 0.45553 0.68867 0.0
C656 C 0.34202 0.47486 0.71959 0.0
C657 C 0.31496 0.46066 0.74495 0.0
C658 C 0.4179 0.51929 0.63336 0.0
C659 C 0.43681 0.49712 0.61904 0.0
C660 C 0.38704 0.50568 0.65509 0.0
C661 C 0.37437 0.46961 0.66301 0.0
C662 C 0.39247 0.44727 0.6476 0.0
C663 C 0.42326 0.46084 0.62587 0.0
H664 H 0.7408 0.7112 1.03454 0.0
H665 H 0.75821 0.71877 0.92256 0.0
H666 H 0.79806 0.6958 1.04153 0.0
H667 H 0.81546 0.70324 0.92931 0.0
H668 H 0.93616 0.71401 0.96231 0.0
H669 H 0.87886 0.72907 0.95509 0.0
H670 H 0.82235 0.64675 1.02634 0.0
H671 H 0.87924 0.63133 1.0332 0.0
C672 C 0.75673 0.70912 1.01142 0.0
C673 C 0.74492 0.71552 0.97796 0.0
C674 C 0.78944 0.70031 1.01536 0.0
C675 C 0.81123 0.69823 0.98595 0.0
C676 C 0.79944 0.70492 0.95249 0.0
C677 C 0.76661 0.7135 0.94856 0.0
C678 C 0.91145 0.69896 0.97624 0.0
C679 C 0.91242 0.67159 0.99849 0.0
C680 C 0.87863 0.70759 0.9721 0.0
C681 C 0.84612 0.68913 0.99022 0.0
C682 C 0.8471 0.66183 1.01247 0.0
C683 C 0.87979 0.65309 1.01647 0.0
H684 H 0.35813 0.78464 0.21471 0.0
H685 H 0.46783 0.77503 0.22858 0.0
H686 H 0.38579 0.84333 0.19133 0.0
H687 H 0.49568 0.8344 0.20541 0.0
H688 H 0.52949 0.95604 0.18541 0.0
H689 H 0.50392 0.89988 0.21568 0.0
H690 H 0.41847 0.86417 0.13556 0.0
H691 H 0.4436 0.91966 0.10559 0.0
C692 C 0.38821 0.79506 0.2128 0.0
C693 C 0.4107 0.77477 0.22291 0.0
C694 C 0.40406 0.82878 0.19946 0.0
C695 C 0.4429 0.84335 0.19602 0.0
C696 C 0.46565 0.82394 0.20782 0.0
C697 C 0.4497 0.78995 0.2211 0.0
C698 C 0.50514 0.93623 0.17441 0.0
C699 C 0.48856 0.94249 0.14311 0.0
C700 C 0.49066 0.90401 0.19163 0.0
C701 C 0.45902 0.87766 0.17815 0.0
C702 C 0.44252 0.88407 0.14696 0.0
C703 C 0.45712 0.91593 0.12965 0.0
H704 H 0.07635 0.29375 0.74932 0.0
H705 H 0.18425 0.28064 0.76361 0.0
H706 H 0.05503 0.23763 0.71655 0.0
H707 H 0.16289 0.22405 0.73206 0.0
H708 H 0.12909 0.14732 0.63767 0.0
H709 H 0.1492 0.20077 0.67456 0.0
H710 H 0.03806 0.17583 0.717 0.0
H711 H 0.01783 0.12337 0.67928 0.0
C712 C 0.09517 0.27838 0.74623 0.0
C713 C 0.13196 0.29165 0.75895 0.0
C714 C 0.08304 0.24614 0.72738 0.0
C715 C 0.10732 0.22619 0.7211 0.0
C716 C 0.1436 0.23888 0.73541 0.0
C717 C 0.15578 0.2712 0.75388 0.0
C718 C 0.10903 0.15319 0.65498 0.0
C719 C 0.07181 0.13103 0.65528 0.0
C720 C 0.12057 0.18383 0.67638 0.0
C721 C 0.0953 0.19295 0.69895 0.0
C722 C 0.05826 0.17029 0.69961 0.0
C723 C 0.04667 0.13994 0.67803 0.0
H724 H 0.84218 0.38569 0.5225 0.0
H725 H 0.78241 0.28547 0.47337 0.0
H726 H 0.78819 0.40581 0.514 0.0
H727 H 0.72821 0.30553 0.46444 0.0
H728 H 0.62772 0.34028 0.50508 0.0
H729 H 0.68154 0.31918 0.50304 0.0
H730 H 0.75042 0.42129 0.46839 0.0
H731 H 0.69658 0.44234 0.47019 0.0
C732 C 0.81744 0.36812 0.5097 0.0
C733 C 0.81594 0.33386 0.49929 0.0
C734 C 0.78666 0.37965 0.50456 0.0
C735 C 0.75384 0.35717 0.48871 0.0
C736 C 0.75289 0.32324 0.4772 0.0
C737 C 0.7838 0.31178 0.48224 0.0
C738 C 0.65415 0.35799 0.49628 0.0
C739 C 0.65795 0.39311 0.48816 0.0
C740 C 0.68501 0.34591 0.49514 0.0
C741 C 0.72031 0.36869 0.4859 0.0
C742 C 0.72373 0.40331 0.47625 0.0
C743 C 0.69289 0.41536 0.47731 0.0
loop_
_geom_bond_atom_site_label_1
_geom_bond_atom_site_label_2
_geom_bond_distance
_geom_bond_site_symmetry_2
_ccdc_geom_bond_type
H0 C7 0.929 . S
H1 C10 0.930 . S
H2 C12 0.929 . S
H3 C4 0.969 . S
C4 H3 0.969 . S
C4 O5 1.550 . S
C4 H6 0.973 . S
O5 C4 1.550 . S
O5 C11 1.412 . S
H6 C4 0.973 . S
C7 H0 0.929 . S
C7 C8 1.400 . S
C7 C9 1.364 . S
C8 C7 1.400 . S
C8 C12 1.377 . S
C9 C7 1.364 . S
C9 C10 1.374 . S
C10 H1 0.930 . S
C10 C9 1.374 . S
C10 C11 1.383 . S
C11 O5 1.412 . S
C11 C10 1.383 . S
C11 C12 1.394 . S
C12 H2 0.929 . S
C12 C8 1.377 . S
C12 C11 1.394 . S
H13 C20 0.929 . S
H14 C23 0.930 . S
H15 C25 0.929 . S
H16 C17 0.969 . S
C17 H16 0.969 . S
C17 O18 1.550 . S
C17 H19 0.973 . S
O18 C17 1.550 . S
O18 C24 1.412 . S
H19 C17 0.973 . S
C20 H13 0.929 . S
C20 C21 1.400 . S
C20 C22 1.364 . S
C21 C20 1.400 . S
C21 C25 1.377 . S
C22 C20 1.364 . S
C22 C23 1.374 . S
C23 H14 0.930 . S
C23 C22 1.374 . S
C23 C24 1.383 . S
C24 O18 1.412 . S
C24 C23 1.383 . S
C24 C25 1.394 . S
C25 H15 0.929 . S
C25 C21 1.377 . S
C25 C24 1.394 . S
H26 C33 0.929 . S
H27 C36 0.930 . S
H28 C38 0.929 . S
H29 C30 0.969 . S
C30 H29 0.969 . S
C30 O31 1.550 . S
C30 H32 0.973 . S
O31 C30 1.550 . S
O31 C37 1.412 . S
H32 C30 0.973 . S
C33 H26 0.929 . S
C33 C34 1.400 . S
C33 C35 1.364 . S
C34 C33 1.400 . S
C34 C38 1.377 . S
C35 C33 1.364 . S
C35 C36 1.374 . S
C36 H27 0.930 . S
C36 C35 1.374 . S
C36 C37 1.383 . S
C37 O31 1.412 . S
C37 C36 1.383 . S
C37 C38 1.394 . S
C38 H28 0.929 . S
C38 C34 1.377 . S
C38 C37 1.394 . S
H39 C46 0.929 . S
H40 C49 0.930 . S
H41 C51 0.929 . S
H42 C43 0.969 . S
C43 H42 0.969 . S
C43 O44 1.550 . S
C43 H45 0.973 . S
O44 C43 1.550 . S
O44 C50 1.412 . S
H45 C43 0.973 . S
C46 H39 0.929 . S
C46 C47 1.400 . S
C46 C48 1.364 . S
C47 C46 1.400 . S
C47 C51 1.377 . S
C48 C46 1.364 . S
C48 C49 1.374 . S
C49 H40 0.930 . S
C49 C48 1.374 . S
C49 C50 1.383 . S
C50 O44 1.412 . S
C50 C49 1.383 . S
C50 C51 1.394 . S
C51 H41 0.929 . S
C51 C47 1.377 . S
C51 C50 1.394 . S
H52 C59 0.929 . S
H53 C62 0.930 . S
H54 C64 0.929 . S
H55 C56 0.969 . S
C56 H55 0.969 . S
C56 O57 1.550 . S
C56 H58 0.973 . S
O57 C56 1.550 . S
O57 C63 1.412 . S
H58 C56 0.973 . S
C59 H52 0.929 . S
C59 C60 1.400 . S
C59 C61 1.364 . S
C60 C59 1.400 . S
C60 C64 1.377 . S
C61 C59 1.364 . S
C61 C62 1.374 . S
C62 H53 0.930 . S
C62 C61 1.374 . S
C62 C63 1.383 . S
C63 O57 1.412 . S
C63 C62 1.383 . S
C63 C64 1.394 . S
C64 H54 0.929 . S
C64 C60 1.377 . S
C64 C63 1.394 . S
H65 C72 0.929 . S
H66 C75 0.930 . S
H67 C77 0.929 . S
H68 C69 0.969 . S
C69 H68 0.969 . S
C69 O70 1.550 . S
C69 H71 0.973 . S
O70 C69 1.550 . S
O70 C76 1.412 . S
H71 C69 0.973 . S
C72 H65 0.929 . S
C72 C73 1.400 . S
C72 C74 1.364 . S
C73 C72 1.400 . S
C73 C77 1.377 . S
C74 C72 1.364 . S
C74 C75 1.374 . S
C75 H66 0.930 . S
C75 C74 1.374 . S
C75 C76 1.383 . S
C76 O70 1.412 . S
C76 C75 1.383 . S
C76 C77 1.394 . S
C77 H67 0.929 . S
C77 C73 1.377 . S
C77 C76 1.394 . S
H78 C85 0.929 . S
H79 C88 0.930 . S
H80 C90 0.929 . S
H81 C82 0.969 . S
C82 H81 0.969 . S
C82 O83 1.550 . S
C82 H84 0.973 . S
O83 C82 1.550 . S
O83 C89 1.412 . S
H84 C82 0.973 . S
C85 H78 0.929 . S
C85 C86 1.400 . S
C85 C87 1.364 . S
C86 C85 1.400 . S
C86 C90 1.377 . S
C87 C85 1.364 . S
C87 C88 1.374 . S
C88 H79 0.930 . S
C88 C87 1.374 . S
C88 C89 1.383 . S
C89 O83 1.412 . S
C89 C88 1.383 . S
C89 C90 1.394 . S
C90 H80 0.929 . S
C90 C86 1.377 . S
C90 C89 1.394 . S
H91 C98 0.929 . S
H92 C101 0.930 . S
H93 C103 0.929 . S
H94 C95 0.969 . S
C95 H94 0.969 . S
C95 O96 1.550 . S
C95 H97 0.973 . S
O96 C95 1.550 . S
O96 C102 1.412 . S
H97 C95 0.973 . S
C98 H91 0.929 . S
C98 C99 1.400 . S
C98 C100 1.364 . S
C99 C98 1.400 . S
C99 C103 1.377 . S
C100 C98 1.364 . S
C100 C101 1.374 . S
C101 H92 0.930 . S
C101 C100 1.374 . S
C101 C102 1.383 . S
C102 O96 1.412 . S
C102 C101 1.383 . S
C102 C103 1.394 . S
C103 H93 0.929 . S
C103 C99 1.377 . S
C103 C102 1.394 . S
Dy104 O107 2.307 1_545 S
Dy104 O109 2.395 . S
Dy104 O110 2.379 . S
Dy104 O112 2.339 1_545 S
Dy104 O114 2.298 . S
Dy104 O118 2.275 . S
Dy104 C126 2.738 . S
Dy105 O108 2.298 1_645 S
Dy105 O111 2.275 1_545 S
Dy105 O113 2.307 . S
Dy105 O115 2.395 1_545 S
Dy105 O116 2.379 1_545 S
Dy105 O119 2.339 1_655 S
Dy105 C135 2.738 1_545 S
C106 O118 1.254 . S
C106 O119 1.257 . S
O107 Dy104 2.307 1_565 S
O107 C117 1.266 . S
O108 Dy105 2.298 1_465 S
O108 C117 1.236 . S
O109 Dy104 2.395 . S
O109 C126 1.255 . S
O110 Dy104 2.379 . S
O110 C126 1.249 . S
O111 Dy105 2.275 1_565 S
O111 C127 1.254 . S
O112 Dy104 2.339 1_565 S
O112 C127 1.257 1_455 S
O113 Dy105 2.307 . S
O113 C128 1.266 . S
O114 Dy104 2.298 . S
O114 C128 1.236 1_455 S
O115 Dy105 2.395 1_565 S
O115 C135 1.255 . S
O116 Dy105 2.379 1_565 S
O116 C135 1.249 . S
C117 O107 1.266 . S
C117 O108 1.236 . S
O118 Dy104 2.275 . S
O118 C106 1.254 . S
O119 Dy105 2.339 1_455 S
O119 C106 1.257 . S
C120 C123 1.344 . S
C120 C124 1.328 . S
C120 C126 1.516 . S
C121 C122 1.304 . S
C121 C125 1.323 . S
C122 C121 1.304 . S
C122 C123 1.371 . S
C122 H136 0.930 . S
C123 C120 1.344 . S
C123 C122 1.371 . S
C123 H137 0.931 . S
C124 C120 1.328 . S
C124 C125 1.433 . S
C124 H138 0.931 . S
C125 C121 1.323 . S
C125 C124 1.433 . S
C125 H139 0.933 . S
C126 Dy104 2.738 . S
C126 O109 1.255 . S
C126 O110 1.249 . S
C126 C120 1.516 . S
C127 O111 1.254 . S
C127 O112 1.257 1_655 S
C128 O113 1.266 . S
C128 O114 1.236 1_655 S
C129 C132 1.344 . S
C129 C133 1.328 . S
C129 C135 1.516 . S
C130 C131 1.304 . S
C130 C134 1.323 . S
C131 C130 1.304 . S
C131 C132 1.371 . S
C131 H140 0.930 . S
C132 C129 1.344 . S
C132 C131 1.371 . S
C132 H141 0.931 . S
C133 C129 1.328 . S
C133 C134 1.433 . S
C133 H142 0.931 . S
C134 C130 1.323 . S
C134 C133 1.433 . S
C134 H143 0.933 . S
C135 Dy105 2.738 1_565 S
C135 O115 1.255 . S
C135 O116 1.249 . S
C135 C129 1.516 . S
H136 C122 0.930 . S
H137 C123 0.931 . S
H138 C124 0.931 . S
H139 C125 0.933 . S
H140 C131 0.930 . S
H141 C132 0.931 . S
H142 C133 0.931 . S
H143 C134 0.933 . S
Dy144 O147 2.313 1_556 S
Dy144 O149 2.388 1_545 S
Dy144 O150 2.378 1_545 S
Dy144 O152 2.344 . S
Dy144 O154 2.293 1_545 S
Dy144 O158 2.271 1_546 S
Dy144 C166 2.734 1_545 S
Dy145 O148 2.298 . S
Dy145 O151 2.275 1_554 S
Dy145 O153 2.307 1_544 S
Dy145 O155 2.395 . S
Dy145 O156 2.379 . S
Dy145 O159 2.339 1_545 S
Dy145 C175 2.738 . S
C146 O158 1.254 . S
C146 O159 1.257 . S
O147 Dy144 2.313 1_554 S
O147 C157 1.266 . S
O148 Dy145 2.298 . S
O148 C157 1.236 . S
O149 Dy144 2.388 1_565 S
O149 C166 1.255 . S
O150 Dy144 2.378 1_565 S
O150 C166 1.249 . S
O151 Dy145 2.275 1_556 S
O151 C167 1.254 . S
O152 Dy144 2.344 . S
O152 C167 1.257 . S
O153 Dy145 2.307 1_566 S
O153 C168 1.266 . S
O154 Dy144 2.293 1_565 S
O154 C168 1.236 . S
O155 Dy145 2.395 . S
O155 C175 1.255 . S
O156 Dy145 2.379 . S
O156 C175 1.249 . S
C157 O147 1.266 . S
C157 O148 1.236 . S
O158 Dy144 2.271 1_564 S
O158 C146 1.254 . S
O159 Dy145 2.339 1_565 S
O159 C146 1.257 . S
C160 C163 1.344 . S
C160 C164 1.328 . S
C160 C166 1.516 . S
C161 C162 1.304 . S
C161 C165 1.323 . S
C162 C161 1.304 . S
C162 C163 1.371 . S
C162 H176 0.930 . S
C163 C160 1.344 . S
C163 C162 1.371 . S
C163 H177 0.931 . S
C164 C160 1.328 . S
C164 C165 1.433 . S
C164 H178 0.931 . S
C165 C161 1.323 . S
C165 C164 1.433 . S
C165 H179 0.933 . S
C166 Dy144 2.734 1_565 S
C166 O149 1.255 . S
C166 O150 1.249 . S
C166 C160 1.516 . S
C167 O151 1.254 . S
C167 O152 1.257 . S
C168 O153 1.266 . S
C168 O154 1.236 . S
C169 C172 1.344 . S
C169 C173 1.328 . S
C169 C175 1.516 . S
C170 C171 1.304 . S
C170 C174 1.323 . S
C171 C170 1.304 . S
C171 C172 1.371 . S
C171 H180 0.930 . S
C172 C169 1.344 . S
C172 C171 1.371 . S
C172 H181 0.931 . S
C173 C169 1.328 . S
C173 C174 1.433 . S
C173 H182 0.931 . S
C174 C170 1.323 . S
C174 C173 1.433 . S
C174 H183 0.933 . S
C175 Dy145 2.738 . S
C175 O155 1.255 . S
C175 O156 1.249 . S
C175 C169 1.516 . S
H176 C162 0.930 . S
H177 C163 0.931 . S
H178 C164 0.931 . S
H179 C165 0.933 . S
H180 C171 0.930 . S
H181 C172 0.931 . S
H182 C173 0.931 . S
H183 C174 0.933 . S
Dy184 O187 2.307 . S
Dy184 O189 2.395 . S
Dy184 O190 2.379 . S
Dy184 O192 2.339 . S
Dy184 O194 2.298 . S
Dy184 O198 2.275 . S
Dy184 C206 2.738 . S
Dy185 O188 2.298 . S
Dy185 O191 2.275 . S
Dy185 O193 2.307 . S
Dy185 O195 2.395 . S
Dy185 O196 2.379 . S
Dy185 O199 2.339 . S
Dy185 C215 2.738 . S
C186 O198 1.254 . S
C186 O199 1.257 . S
O187 Dy184 2.307 . S
O187 C197 1.266 . S
O188 Dy185 2.298 . S
O188 C197 1.236 . S
O189 Dy184 2.395 . S
O189 C206 1.255 . S
O190 Dy184 2.379 . S
O190 C206 1.249 . S
O191 Dy185 2.275 . S
O191 C207 1.254 . S
O192 Dy184 2.339 . S
O192 C207 1.257 . S
O193 Dy185 2.307 . S
O193 C208 1.266 . S
O194 Dy184 2.298 . S
O194 C208 1.236 . S
O195 Dy185 2.395 . S
O195 C215 1.255 . S
O196 Dy185 2.379 . S
O196 C215 1.249 . S
C197 O187 1.266 . S
C197 O188 1.236 . S
O198 Dy184 2.275 . S
O198 C186 1.254 . S
O199 Dy185 2.339 . S
O199 C186 1.257 . S
C200 C203 1.344 . S
C200 C204 1.328 . S
C200 C206 1.516 . S
C201 C202 1.304 . S
C201 C205 1.323 . S
C202 C201 1.304 . S
C202 C203 1.371 . S
C202 H216 0.930 . S
C203 C200 1.344 . S
C203 C202 1.371 . S
C203 H217 0.931 . S
C204 C200 1.328 . S
C204 C205 1.433 . S
C204 H218 0.931 . S
C205 C201 1.323 . S
C205 C204 1.433 . S
C205 H219 0.933 . S
C206 Dy184 2.738 . S
C206 O189 1.255 . S
C206 O190 1.249 . S
C206 C200 1.516 . S
C207 O191 1.254 . S
C207 O192 1.257 . S
C208 O193 1.266 . S
C208 O194 1.236 . S
C209 C212 1.344 . S
C209 C213 1.328 . S
C209 C215 1.516 . S
C210 C211 1.304 . S
C210 C214 1.323 . S
C211 C210 1.304 . S
C211 C212 1.371 . S
C211 H220 0.930 . S
C212 C209 1.344 . S
C212 C211 1.371 . S
C212 H221 0.931 . S
C213 C209 1.328 . S
C213 C214 1.433 . S
C213 H222 0.931 . S
C214 C210 1.323 . S
C214 C213 1.433 . S
C214 H223 0.933 . S
C215 Dy185 2.738 . S
C215 O195 1.255 . S
C215 O196 1.249 . S
C215 C209 1.516 . S
H216 C202 0.930 . S
H217 C203 0.931 . S
H218 C204 0.931 . S
H219 C205 0.933 . S
H220 C211 0.930 . S
H221 C212 0.931 . S
H222 C213 0.931 . S
H223 C214 0.933 . S
Dy224 O227 2.307 . S
Dy224 O229 2.395 1_455 S
Dy224 O230 2.379 1_454 S
Dy224 O232 2.339 1_554 S
Dy224 O234 2.298 1_455 S
Dy224 O238 2.275 . S
Dy224 C246 2.738 1_454 S
Dy225 O228 2.298 . S
Dy225 O231 2.275 . S
Dy225 O233 2.307 1_455 S
Dy225 O235 2.395 . S
Dy225 O236 2.379 . S
Dy225 O239 2.339 1_455 S
Dy225 C255 2.738 . S
C226 O238 1.254 1_655 S
C226 O239 1.257 . S
O227 Dy224 2.307 . S
O227 C237 1.266 . S
O228 Dy225 2.298 . S
O228 C237 1.236 . S
O229 Dy224 2.395 1_655 S
O229 C246 1.255 1_554 S
O230 Dy224 2.379 1_656 S
O230 C246 1.249 . S
O231 Dy225 2.275 . S
O231 C247 1.254 1_554 S
O232 Dy224 2.339 1_556 S
O232 C247 1.257 . S
O233 Dy225 2.307 1_655 S
O233 C248 1.266 . S
O234 Dy224 2.298 1_655 S
O234 C248 1.236 . S
O235 Dy225 2.395 . S
O235 C255 1.255 . S
O236 Dy225 2.379 . S
O236 C255 1.249 . S
C237 O227 1.266 . S
C237 O228 1.236 . S
O238 Dy224 2.275 . S
O238 C226 1.254 1_455 S
O239 Dy225 2.339 1_655 S
O239 C226 1.257 . S
C240 C243 1.344 . S
C240 C244 1.328 . S
C240 C246 1.516 . S
C241 C242 1.304 . S
C241 C245 1.323 . S
C242 C241 1.304 . S
C242 C243 1.371 . S
C242 H256 0.930 . S
C243 C240 1.344 . S
C243 C242 1.371 . S
C243 H257 0.931 1_556 S
C244 C240 1.328 . S
C244 C245 1.433 . S
C244 H258 0.931 . S
C245 C241 1.323 . S
C245 C244 1.433 . S
C245 H259 0.933 . S
C246 Dy224 2.738 1_656 S
C246 O229 1.255 1_556 S
C246 O230 1.249 . S
C246 C240 1.516 . S
C247 O231 1.254 1_556 S
C247 O232 1.257 . S
C248 O233 1.266 . S
C248 O234 1.236 . S
C249 C252 1.344 . S
C249 C253 1.328 . S
C249 C255 1.516 . S
C250 C251 1.304 . S
C250 C254 1.323 . S
C251 C250 1.304 . S
C251 C252 1.371 . S
C251 H260 0.930 . S
C252 C249 1.344 . S
C252 C251 1.371 . S
C252 H261 0.931 . S
C253 C249 1.328 . S
C253 C254 1.433 . S
C253 H262 0.931 . S
C254 C250 1.323 . S
C254 C253 1.433 . S
C254 H263 0.933 . S
C255 Dy225 2.738 . S
C255 O235 1.255 . S
C255 O236 1.249 . S
C255 C249 1.516 . S
H256 C242 0.930 . S
H257 C243 0.931 1_554 S
H258 C244 0.931 . S
H259 C245 0.933 . S
H260 C251 0.930 . S
H261 C252 0.931 . S
H262 C253 0.931 . S
H263 C254 0.933 . S
H264 C272 0.950 . S
H265 C277 0.950 . S
H266 C274 0.950 . S
H267 C276 0.950 . S
H268 C278 0.950 . S
H269 C280 0.950 . S
H270 C282 0.950 . S
H271 C283 0.950 . S
C272 H264 0.950 . S
C272 C273 1.386 . S
C272 C274 1.391 . S
C273 C272 1.386 . S
C273 C277 1.393 . S
C274 H266 0.950 . S
C274 C272 1.391 . S
C274 C275 1.400 . S
C275 C274 1.400 . S
C275 C276 1.398 . S
C275 C281 1.491 . S
C276 H267 0.950 . S
C276 C275 1.398 . S
C276 C277 1.391 . S
C277 H265 0.950 . S
C277 C273 1.393 . S
C277 C276 1.391 . S
C278 H268 0.950 . S
C278 C279 1.386 . S
C278 C280 1.391 . S
C279 C278 1.386 . S
C279 C283 1.393 . S
C280 H269 0.950 . S
C280 C278 1.391 . S
C280 C281 1.400 . S
C281 C275 1.491 . S
C281 C280 1.400 . S
C281 C282 1.398 . S
C282 H270 0.950 . S
C282 C281 1.398 . S
C282 C283 1.391 . S
C283 H271 0.950 . S
C283 C279 1.393 . S
C283 C282 1.391 . S
H284 C292 0.950 . S
H285 C297 0.950 . S
H286 C294 0.950 . S
H287 C296 0.950 . S
H288 C298 0.950 . S
H289 C300 0.950 . S
H290 C302 0.950 . S
H291 C303 0.950 . S
C292 H284 0.950 . S
C292 C293 1.386 . S
C292 C294 1.391 . S
C293 C292 1.386 . S
C293 C297 1.393 . S
C294 H286 0.950 . S
C294 C292 1.391 . S
C294 C295 1.400 . S
C295 C294 1.400 . S
C295 C296 1.398 . S
C295 C301 1.491 . S
C296 H287 0.950 . S
C296 C295 1.398 . S
C296 C297 1.391 . S
C297 H285 0.950 . S
C297 C293 1.393 . S
C297 C296 1.391 . S
C298 H288 0.950 . S
C298 C299 1.386 . S
C298 C300 1.391 . S
C299 C298 1.386 . S
C299 C303 1.393 . S
C300 H289 0.950 . S
C300 C298 1.391 . S
C300 C301 1.400 . S
C301 C295 1.491 . S
C301 C300 1.400 . S
C301 C302 1.398 . S
C302 H290 0.950 . S
C302 C301 1.398 . S
C302 C303 1.391 . S
C303 H291 0.950 . S
C303 C299 1.393 . S
C303 C302 1.391 . S
H304 C312 0.950 . S
H305 C317 0.950 . S
H306 C314 0.950 . S
H307 C316 0.950 . S
H308 C318 0.950 . S
H309 C320 0.950 . S
H310 C322 0.950 . S
H311 C323 0.950 . S
C312 H304 0.950 . S
C312 C313 1.386 . S
C312 C314 1.391 . S
C313 C312 1.386 . S
C313 C317 1.393 . S
C314 H306 0.950 . S
C314 C312 1.391 . S
C314 C315 1.400 . S
C315 C314 1.400 . S
C315 C316 1.398 . S
C315 C321 1.491 . S
C316 H307 0.950 . S
C316 C315 1.398 . S
C316 C317 1.391 . S
C317 H305 0.950 . S
C317 C313 1.393 . S
C317 C316 1.391 . S
C318 H308 0.950 . S
C318 C319 1.386 . S
C318 C320 1.391 . S
C319 C318 1.386 . S
C319 C323 1.393 . S
C320 H309 0.950 . S
C320 C318 1.391 . S
C320 C321 1.400 . S
C321 C315 1.491 . S
C321 C320 1.400 . S
C321 C322 1.398 . S
C322 H310 0.950 . S
C322 C321 1.398 . S
C322 C323 1.391 . S
C323 H311 0.950 . S
C323 C319 1.393 . S
C323 C322 1.391 . S
H324 C332 0.950 . S
H325 C337 0.950 . S
H326 C334 0.950 . S
H327 C336 0.950 1_455 S
H328 C338 0.962 . S
H329 C340 0.950 1_455 S
H330 C342 0.950 . S
H331 C343 0.950 . S
C332 H324 0.950 . S
C332 C333 1.386 . S
C332 C334 1.391 . S
C333 C332 1.386 . S
C333 C337 1.393 . S
C334 H326 0.950 . S
C334 C332 1.391 . S
C334 C335 1.400 . S
C335 C334 1.400 . S
C335 C336 1.398 . S
C335 C341 1.491 . S
C336 H327 0.950 1_655 S
C336 C335 1.398 . S
C336 C337 1.391 . S
C337 H325 0.950 . S
C337 C333 1.393 . S
C337 C336 1.391 . S
C338 H328 0.962 . S
C338 C339 1.378 1_455 S
C338 C340 1.386 1_455 S
C339 C338 1.378 1_655 S
C339 C343 1.393 . S
C340 H329 0.950 1_655 S
C340 C338 1.386 1_655 S
C340 C341 1.400 . S
C341 C335 1.491 . S
C341 C340 1.400 . S
C341 C342 1.398 . S
C342 H330 0.950 . S
C342 C341 1.398 . S
C342 C343 1.391 . S
C343 H331 0.950 . S
C343 C339 1.393 . S
C343 C342 1.391 . S
H344 C352 0.950 . S
H345 C357 0.950 . S
H346 C354 0.950 . S
H347 C356 0.950 . S
H348 C358 0.950 . S
H349 C360 0.950 . S
H350 C362 0.950 . S
H351 C363 0.950 . S
C352 H344 0.950 . S
C352 C353 1.386 . S
C352 C354 1.391 . S
C353 C352 1.386 . S
C353 C357 1.393 . S
C354 H346 0.950 . S
C354 C352 1.391 . S
C354 C355 1.400 . S
C355 C354 1.400 . S
C355 C356 1.398 . S
C355 C361 1.491 . S
C356 H347 0.950 . S
C356 C355 1.398 . S
C356 C357 1.391 . S
C357 H345 0.950 . S
C357 C353 1.393 . S
C357 C356 1.391 . S
C358 H348 0.950 . S
C358 C359 1.386 . S
C358 C360 1.391 . S
C359 C358 1.386 . S
C359 C363 1.393 . S
C360 H349 0.950 . S
C360 C358 1.391 . S
C360 C361 1.400 . S
C361 C355 1.491 . S
C361 C360 1.400 . S
C361 C362 1.398 . S
C362 H350 0.950 . S
C362 C361 1.398 . S
C362 C363 1.391 . S
C363 H351 0.950 . S
C363 C359 1.393 . S
C363 C362 1.391 . S
H364 C372 0.950 . S
H365 C377 0.950 . S
H366 C374 0.950 . S
H367 C376 0.950 . S
H368 C378 0.950 . S
H369 C380 0.950 . S
H370 C382 0.950 . S
H371 C383 0.950 . S
C372 H364 0.950 . S
C372 C373 1.386 . S
C372 C374 1.391 . S
C373 C372 1.386 . S
C373 C377 1.393 . S
C374 H366 0.950 . S
C374 C372 1.391 . S
C374 C375 1.400 . S
C375 C374 1.400 . S
C375 C376 1.398 . S
C375 C381 1.491 . S
C376 H367 0.950 . S
C376 C375 1.398 . S
C376 C377 1.391 . S
C377 H365 0.950 . S
C377 C373 1.393 . S
C377 C376 1.391 . S
C378 H368 0.950 . S
C378 C379 1.386 . S
C378 C380 1.391 . S
C379 C378 1.386 . S
C379 C383 1.393 . S
C380 H369 0.950 . S
C380 C378 1.391 . S
C380 C381 1.400 . S
C381 C375 1.491 . S
C381 C380 1.400 . S
C381 C382 1.398 . S
C382 H370 0.950 . S
C382 C381 1.398 . S
C382 C383 1.391 . S
C383 H371 0.950 . S
C383 C379 1.393 . S
C383 C382 1.391 . S
H384 C392 0.950 . S
H385 C397 0.950 . S
H386 C394 0.950 . S
H387 C396 0.950 . S
H388 C398 0.950 . S
H389 C400 0.955 . S
H390 C402 0.950 . S
H391 C403 0.950 . S
C392 H384 0.950 . S
C392 C393 1.386 . S
C392 C394 1.391 . S
C393 C392 1.386 . S
C393 C397 1.393 . S
C394 H386 0.950 . S
C394 C392 1.391 . S
C394 C395 1.400 . S
C395 C394 1.400 . S
C395 C396 1.398 . S
C395 C401 1.491 . S
C396 H387 0.950 . S
C396 C395 1.398 . S
C396 C397 1.391 . S
C397 H385 0.950 . S
C397 C393 1.393 . S
C397 C396 1.391 . S
C398 H388 0.950 . S
C398 C399 1.386 . S
C398 C400 1.391 1_554 S
C399 C398 1.386 . S
C399 C403 1.393 1_554 S
C400 H389 0.955 . S
C400 C398 1.391 1_556 S
C400 C401 1.400 . S
C401 C395 1.491 . S
C401 C400 1.400 . S
C401 C402 1.398 . S
C402 H390 0.950 . S
C402 C401 1.398 . S
C402 C403 1.391 . S
C403 H391 0.950 . S
C403 C399 1.393 1_556 S
C403 C402 1.391 . S
H404 C412 0.950 . S
H405 C417 0.950 . S
H406 C414 0.950 . S
H407 C416 0.950 . S
H408 C418 0.950 . S
H409 C420 0.950 . S
H410 C422 0.950 . S
H411 C423 0.950 . S
C412 H404 0.950 . S
C412 C413 1.386 . S
C412 C414 1.391 . S
C413 C412 1.386 . S
C413 C417 1.393 . S
C414 H406 0.950 . S
C414 C412 1.391 . S
C414 C415 1.400 . S
C415 C414 1.400 . S
C415 C416 1.398 . S
C415 C421 1.491 . S
C416 H407 0.950 . S
C416 C415 1.398 . S
C416 C417 1.391 . S
C417 H405 0.950 . S
C417 C413 1.393 . S
C417 C416 1.391 . S
C418 H408 0.950 . S
C418 C419 1.386 . S
C418 C420 1.391 . S
C419 C418 1.386 . S
C419 C423 1.393 . S
C420 H409 0.950 . S
C420 C418 1.391 . S
C420 C421 1.400 . S
C421 C415 1.491 . S
C421 C420 1.400 . S
C421 C422 1.398 . S
C422 H410 0.950 . S
C422 C421 1.398 . S
C422 C423 1.391 . S
C423 H411 0.950 . S
C423 C419 1.393 . S
C423 C422 1.391 . S
H424 C432 0.950 . S
H425 C437 0.950 . S
H426 C434 0.950 . S
H427 C436 0.950 . S
H428 C438 0.950 . S
H429 C440 0.950 . S
H430 C442 0.950 . S
H431 C443 0.950 . S
C432 H424 0.950 . S
C432 C433 1.386 . S
C432 C434 1.391 . S
C433 C432 1.386 . S
C433 C437 1.393 . S
C434 H426 0.950 . S
C434 C432 1.391 . S
C434 C435 1.400 . S
C435 C434 1.400 . S
C435 C436 1.398 . S
C435 C441 1.491 . S
C436 H427 0.950 . S
C436 C435 1.398 . S
C436 C437 1.391 . S
C437 H425 0.950 . S
C437 C433 1.393 . S
C437 C436 1.391 . S
C438 H428 0.950 . S
C438 C439 1.386 . S
C438 C440 1.391 . S
C439 C438 1.386 . S
C439 C443 1.393 . S
C440 H429 0.950 . S
C440 C438 1.391 . S
C440 C441 1.400 . S
C441 C435 1.491 . S
C441 C440 1.400 . S
C441 C442 1.398 . S
C442 H430 0.950 . S
C442 C441 1.398 . S
C442 C443 1.391 . S
C443 H431 0.950 . S
C443 C439 1.393 . S
C443 C442 1.391 . S
H444 C452 0.950 . S
H445 C457 0.950 . S
H446 C454 0.950 . S
H447 C456 0.950 . S
H448 C458 0.950 . S
H449 C460 0.950 . S
H450 C462 0.950 . S
H451 C463 0.950 . S
C452 H444 0.950 . S
C452 C453 1.386 . S
C452 C454 1.391 . S
C453 C452 1.386 . S
C453 C457 1.393 . S
C454 H446 0.950 . S
C454 C452 1.391 . S
C454 C455 1.400 . S
C455 C454 1.400 . S
C455 C456 1.398 . S
C455 C461 1.491 . S
C456 H447 0.950 . S
C456 C455 1.398 . S
C456 C457 1.391 . S
C457 H445 0.950 . S
C457 C453 1.393 . S
C457 C456 1.391 . S
C458 H448 0.950 . S
C458 C459 1.386 . S
C458 C460 1.391 . S
C459 C458 1.386 . S
C459 C463 1.393 . S
C460 H449 0.950 . S
C460 C458 1.391 . S
C460 C461 1.400 . S
C461 C455 1.491 . S
C461 C460 1.400 . S
C461 C462 1.398 . S
C462 H450 0.950 . S
C462 C461 1.398 . S
C462 C463 1.391 . S
C463 H451 0.950 . S
C463 C459 1.393 . S
C463 C462 1.391 . S
H464 C472 0.950 . S
H465 C477 0.950 . S
H466 C474 0.950 . S
H467 C476 0.950 . S
H468 C478 0.950 . S
H469 C480 0.950 . S
H470 C482 0.950 . S
H471 C483 0.950 . S
C472 H464 0.950 . S
C472 C473 1.386 . S
C472 C474 1.391 . S
C473 C472 1.386 . S
C473 C477 1.393 . S
C474 H466 0.950 . S
C474 C472 1.391 . S
C474 C475 1.400 . S
C475 C474 1.400 . S
C475 C476 1.398 . S
C475 C481 1.491 . S
C476 H467 0.950 . S
C476 C475 1.398 . S
C476 C477 1.391 . S
C477 H465 0.950 . S
C477 C473 1.393 . S
C477 C476 1.391 . S
C478 H468 0.950 . S
C478 C479 1.386 . S
C478 C480 1.391 . S
C479 C478 1.386 . S
C479 C483 1.393 . S
C480 H469 0.950 . S
C480 C478 1.391 . S
C480 C481 1.400 . S
C481 C475 1.491 . S
C481 C480 1.400 . S
C481 C482 1.398 . S
C482 H470 0.950 . S
C482 C481 1.398 . S
C482 C483 1.391 . S
C483 H471 0.950 . S
C483 C479 1.393 . S
C483 C482 1.391 . S
H484 C492 0.950 . S
H485 C497 0.950 . S
H486 C494 0.950 . S
H487 C496 0.950 . S
H488 C498 0.950 . S
H489 C500 0.950 . S
H490 C502 0.950 . S
H491 C503 0.950 . S
C492 H484 0.950 . S
C492 C493 1.386 . S
C492 C494 1.391 . S
C493 C492 1.386 . S
C493 C497 1.393 . S
C494 H486 0.950 . S
C494 C492 1.391 . S
C494 C495 1.400 . S
C495 C494 1.400 . S
C495 C496 1.398 . S
C495 C501 1.491 . S
C496 H487 0.950 . S
C496 C495 1.398 . S
C496 C497 1.391 . S
C497 H485 0.950 . S
C497 C493 1.393 . S
C497 C496 1.391 . S
C498 H488 0.950 . S
C498 C499 1.386 . S
C498 C500 1.391 . S
C499 C498 1.386 . S
C499 C503 1.393 . S
C500 H489 0.950 . S
C500 C498 1.391 . S
C500 C501 1.400 . S
C501 C495 1.491 . S
C501 C500 1.400 . S
C501 C502 1.398 . S
C502 H490 0.950 . S
C502 C501 1.398 . S
C502 C503 1.391 . S
C503 H491 0.950 . S
C503 C499 1.393 . S
C503 C502 1.391 . S
H504 C512 0.950 . S
H505 C517 0.950 . S
H506 C514 0.950 . S
H507 C516 0.950 . S
H508 C518 0.950 . S
H509 C520 0.950 . S
H510 C522 0.950 . S
H511 C523 0.950 . S
C512 H504 0.950 . S
C512 C513 1.386 . S
C512 C514 1.391 . S
C513 C512 1.386 . S
C513 C517 1.393 . S
C514 H506 0.950 . S
C514 C512 1.391 . S
C514 C515 1.400 . S
C515 C514 1.400 . S
C515 C516 1.398 . S
C515 C521 1.491 . S
C516 H507 0.950 . S
C516 C515 1.398 . S
C516 C517 1.391 . S
C517 H505 0.950 . S
C517 C513 1.393 . S
C517 C516 1.391 . S
C518 H508 0.950 . S
C518 C519 1.386 . S
C518 C520 1.391 . S
C519 C518 1.386 . S
C519 C523 1.393 . S
C520 H509 0.950 . S
C520 C518 1.391 . S
C520 C521 1.400 . S
C521 C515 1.491 . S
C521 C520 1.400 . S
C521 C522 1.398 . S
C522 H510 0.950 . S
C522 C521 1.398 . S
C522 C523 1.391 . S
C523 H511 0.950 . S
C523 C519 1.393 . S
C523 C522 1.391 . S
H524 C532 0.950 . S
H525 C537 0.950 . S
H526 C534 0.950 . S
H527 C536 0.950 . S
H528 C538 0.950 . S
H529 C540 0.950 . S
H530 C542 0.950 . S
H531 C543 0.950 . S
C532 H524 0.950 . S
C532 C533 1.386 . S
C532 C534 1.391 . S
C533 C532 1.386 . S
C533 C537 1.393 . S
C534 H526 0.950 . S
C534 C532 1.391 . S
C534 C535 1.400 . S
C535 C534 1.400 . S
C535 C536 1.398 . S
C535 C541 1.491 . S
C536 H527 0.950 . S
C536 C535 1.398 . S
C536 C537 1.391 . S
C537 H525 0.950 . S
C537 C533 1.393 . S
C537 C536 1.391 . S
C538 H528 0.950 . S
C538 C539 1.386 . S
C538 C540 1.391 . S
C539 C538 1.386 . S
C539 C543 1.393 . S
C540 H529 0.950 . S
C540 C538 1.391 . S
C540 C541 1.400 . S
C541 C535 1.491 . S
C541 C540 1.400 . S
C541 C542 1.398 . S
C542 H530 0.950 . S
C542 C541 1.398 . S
C542 C543 1.391 . S
C543 H531 0.950 . S
C543 C539 1.393 . S
C543 C542 1.391 . S
H544 C552 0.950 . S
H545 C557 0.950 . S
H546 C554 0.950 . S
H547 C556 0.950 . S
H548 C558 0.950 . S
H549 C560 0.950 . S
H550 C562 0.950 . S
H551 C563 0.950 . S
C552 H544 0.950 . S
C552 C553 1.386 . S
C552 C554 1.391 . S
C553 C552 1.386 . S
C553 C557 1.393 . S
C554 H546 0.950 . S
C554 C552 1.391 . S
C554 C555 1.400 . S
C555 C554 1.400 . S
C555 C556 1.398 . S
C555 C561 1.491 . S
C556 H547 0.950 . S
C556 C555 1.398 . S
C556 C557 1.391 . S
C557 H545 0.950 . S
C557 C553 1.393 . S
C557 C556 1.391 . S
C558 H548 0.950 . S
C558 C559 1.386 . S
C558 C560 1.391 . S
C559 C558 1.386 . S
C559 C563 1.393 . S
C560 H549 0.950 . S
C560 C558 1.391 . S
C560 C561 1.400 . S
C561 C555 1.491 . S
C561 C560 1.400 . S
C561 C562 1.398 . S
C562 H550 0.950 . S
C562 C561 1.398 . S
C562 C563 1.391 . S
C563 H551 0.950 . S
C563 C559 1.393 . S
C563 C562 1.391 . S
H564 C572 0.950 . S
H565 C577 0.950 . S
H566 C574 0.950 . S
H567 C576 0.950 . S
H568 C578 0.950 . S
H569 C580 0.950 . S
H570 C582 0.950 . S
H571 C583 0.950 . S
C572 H564 0.950 . S
C572 C573 1.386 . S
C572 C574 1.391 . S
C573 C572 1.386 . S
C573 C577 1.393 . S
C574 H566 0.950 . S
C574 C572 1.391 . S
C574 C575 1.400 . S
C575 C574 1.400 . S
C575 C576 1.398 . S
C575 C581 1.491 . S
C576 H567 0.950 . S
C576 C575 1.398 . S
C576 C577 1.391 . S
C577 H565 0.950 . S
C577 C573 1.393 . S
C577 C576 1.391 . S
C578 H568 0.950 . S
C578 C579 1.386 . S
C578 C580 1.391 . S
C579 C578 1.386 . S
C579 C583 1.393 . S
C580 H569 0.950 . S
C580 C578 1.391 . S
C580 C581 1.400 . S
C581 C575 1.491 . S
C581 C580 1.400 . S
C581 C582 1.398 . S
C582 H570 0.950 . S
C582 C581 1.398 . S
C582 C583 1.391 . S
C583 H571 0.950 . S
C583 C579 1.393 . S
C583 C582 1.391 . S
H584 C592 0.950 . S
H585 C597 0.950 . S
H586 C594 0.950 . S
H587 C596 0.950 . S
H588 C598 0.950 . S
H589 C600 0.950 . S
H590 C602 0.950 . S
H591 C603 0.950 . S
C592 H584 0.950 . S
C592 C593 1.386 . S
C592 C594 1.391 . S
C593 C592 1.386 . S
C593 C597 1.393 . S
C594 H586 0.950 . S
C594 C592 1.391 . S
C594 C595 1.400 . S
C595 C594 1.400 . S
C595 C596 1.398 . S
C595 C601 1.491 . S
C596 H587 0.950 . S
C596 C595 1.398 . S
C596 C597 1.391 . S
C597 H585 0.950 . S
C597 C593 1.393 . S
C597 C596 1.391 . S
C598 H588 0.950 . S
C598 C599 1.386 . S
C598 C600 1.391 . S
C599 C598 1.386 . S
C599 C603 1.393 . S
C600 H589 0.950 . S
C600 C598 1.391 . S
C600 C601 1.400 . S
C601 C595 1.491 . S
C601 C600 1.400 . S
C601 C602 1.398 . S
C602 H590 0.950 . S
C602 C601 1.398 . S
C602 C603 1.391 . S
C603 H591 0.950 . S
C603 C599 1.393 . S
C603 C602 1.391 . S
H604 C612 0.950 . S
H605 C617 0.950 . S
H606 C614 0.950 1_455 S
H607 C616 0.950 . S
H608 C618 0.950 . S
H609 C620 0.950 . S
H610 C622 0.950 1_455 S
H611 C623 0.950 . S
C612 H604 0.950 . S
C612 C613 1.386 . S
C612 C614 1.391 . S
C613 C612 1.386 . S
C613 C617 1.393 . S
C614 H606 0.950 1_655 S
C614 C612 1.391 . S
C614 C615 1.400 . S
C615 C614 1.400 . S
C615 C616 1.398 . S
C615 C621 1.491 . S
C616 H607 0.950 . S
C616 C615 1.398 . S
C616 C617 1.391 . S
C617 H605 0.950 . S
C617 C613 1.393 . S
C617 C616 1.391 . S
C618 H608 0.950 . S
C618 C619 1.386 . S
C618 C620 1.391 . S
C619 C618 1.386 . S
C619 C623 1.393 1_655 S
C620 H609 0.950 . S
C620 C618 1.391 . S
C620 C621 1.400 . S
C621 C615 1.491 . S
C621 C620 1.400 . S
C621 C622 1.398 . S
C622 H610 0.950 1_655 S
C622 C621 1.398 . S
C622 C623 1.391 1_655 S
C623 H611 0.950 . S
C623 C619 1.393 1_455 S
C623 C622 1.391 1_455 S
H624 C632 0.950 . S
H625 C637 0.950 . S
H626 C634 0.950 . S
H627 C636 0.950 . S
H628 C638 0.950 . S
H629 C640 0.950 . S
H630 C642 0.950 . S
H631 C643 0.950 . S
C632 H624 0.950 . S
C632 C633 1.386 . S
C632 C634 1.391 . S
C633 C632 1.386 . S
C633 C637 1.393 . S
C634 H626 0.950 . S
C634 C632 1.391 . S
C634 C635 1.400 . S
C635 C634 1.400 . S
C635 C636 1.398 . S
C635 C641 1.491 . S
C636 H627 0.950 . S
C636 C635 1.398 . S
C636 C637 1.391 . S
C637 H625 0.950 . S
C637 C633 1.393 . S
C637 C636 1.391 . S
C638 H628 0.950 . S
C638 C639 1.386 . S
C638 C640 1.391 . S
C639 C638 1.386 . S
C639 C643 1.393 . S
C640 H629 0.950 . S
C640 C638 1.391 . S
C640 C641 1.400 . S
C641 C635 1.491 . S
C641 C640 1.400 . S
C641 C642 1.398 . S
C642 H630 0.950 . S
C642 C641 1.398 . S
C642 C643 1.391 . S
C643 H631 0.950 . S
C643 C639 1.393 . S
C643 C642 1.391 . S
H644 C652 0.950 . S
H645 C657 0.950 . S
H646 C654 0.950 . S
H647 C656 0.950 . S
H648 C658 0.950 . S
H649 C660 0.950 . S
H650 C662 0.950 . S
H651 C663 0.950 . S
C652 H644 0.950 . S
C652 C653 1.386 . S
C652 C654 1.391 . S
C653 C652 1.386 . S
C653 C657 1.393 . S
C654 H646 0.950 . S
C654 C652 1.391 . S
C654 C655 1.400 . S
C655 C654 1.400 . S
C655 C656 1.398 . S
C655 C661 1.491 . S
C656 H647 0.950 . S
C656 C655 1.398 . S
C656 C657 1.391 . S
C657 H645 0.950 . S
C657 C653 1.393 . S
C657 C656 1.391 . S
C658 H648 0.950 . S
C658 C659 1.386 . S
C658 C660 1.391 . S
C659 C658 1.386 . S
C659 C663 1.393 . S
C660 H649 0.950 . S
C660 C658 1.391 . S
C660 C661 1.400 . S
C661 C655 1.491 . S
C661 C660 1.400 . S
C661 C662 1.398 . S
C662 H650 0.950 . S
C662 C661 1.398 . S
C662 C663 1.391 . S
C663 H651 0.950 . S
C663 C659 1.393 . S
C663 C662 1.391 . S
H664 C672 0.950 . S
H665 C677 0.950 . S
H666 C674 0.950 . S
H667 C676 0.950 . S
H668 C678 0.950 . S
H669 C680 0.950 . S
H670 C682 0.950 . S
H671 C683 0.950 . S
C672 H664 0.950 . S
C672 C673 1.386 . S
C672 C674 1.391 . S
C673 C672 1.386 . S
C673 C677 1.393 . S
C674 H666 0.950 . S
C674 C672 1.391 . S
C674 C675 1.400 . S
C675 C674 1.400 . S
C675 C676 1.398 . S
C675 C681 1.491 . S
C676 H667 0.950 . S
C676 C675 1.398 . S
C676 C677 1.391 . S
C677 H665 0.950 . S
C677 C673 1.393 . S
C677 C676 1.391 . S
C678 H668 0.950 . S
C678 C679 1.386 . S
C678 C680 1.391 . S
C679 C678 1.386 . S
C679 C683 1.393 . S
C680 H669 0.950 . S
C680 C678 1.391 . S
C680 C681 1.400 . S
C681 C675 1.491 . S
C681 C680 1.400 . S
C681 C682 1.398 . S
C682 H670 0.950 . S
C682 C681 1.398 . S
C682 C683 1.391 . S
C683 H671 0.950 . S
C683 C679 1.393 . S
C683 C682 1.391 . S
H684 C692 0.950 . S
H685 C697 0.950 . S
H686 C694 0.950 . S
H687 C696 0.950 . S
H688 C698 0.950 . S
H689 C700 0.950 . S
H690 C702 0.950 . S
H691 C703 0.950 . S
C692 H684 0.950 . S
C692 C693 1.386 . S
C692 C694 1.391 . S
C693 C692 1.386 . S
C693 C697 1.393 . S
C694 H686 0.950 . S
C694 C692 1.391 . S
C694 C695 1.400 . S
C695 C694 1.400 . S
C695 C696 1.398 . S
C695 C701 1.491 . S
C696 H687 0.950 . S
C696 C695 1.398 . S
C696 C697 1.391 . S
C697 H685 0.950 . S
C697 C693 1.393 . S
C697 C696 1.391 . S
C698 H688 0.950 . S
C698 C699 1.386 . S
C698 C700 1.391 . S
C699 C698 1.386 . S
C699 C703 1.393 . S
C700 H689 0.950 . S
C700 C698 1.391 . S
C700 C701 1.400 . S
C701 C695 1.491 . S
C701 C700 1.400 . S
C701 C702 1.398 . S
C702 H690 0.950 . S
C702 C701 1.398 . S
C702 C703 1.391 . S
C703 H691 0.950 . S
C703 C699 1.393 . S
C703 C702 1.391 . S
H704 C712 0.950 . S
H705 C717 0.950 . S
H706 C714 0.950 . S
H707 C716 0.950 . S
H708 C718 0.950 . S
H709 C720 0.950 . S
H710 C722 0.950 . S
H711 C723 0.950 . S
C712 H704 0.950 . S
C712 C713 1.386 . S
C712 C714 1.391 . S
C713 C712 1.386 . S
C713 C717 1.393 . S
C714 H706 0.950 . S
C714 C712 1.391 . S
C714 C715 1.400 . S
C715 C714 1.400 . S
C715 C716 1.398 . S
C715 C721 1.491 . S
C716 H707 0.950 . S
C716 C715 1.398 . S
C716 C717 1.391 . S
C717 H705 0.950 . S
C717 C713 1.393 . S
C717 C716 1.391 . S
C718 H708 0.950 . S
C718 C719 1.386 . S
C718 C720 1.391 . S
C719 C718 1.386 . S
C719 C723 1.393 . S
C720 H709 0.950 . S
C720 C718 1.391 . S
C720 C721 1.400 . S
C721 C715 1.491 . S
C721 C720 1.400 . S
C721 C722 1.398 . S
C722 H710 0.950 . S
C722 C721 1.398 . S
C722 C723 1.391 . S
C723 H711 0.950 . S
C723 C719 1.393 . S
C723 C722 1.391 . S
H724 C732 0.950 . S
H725 C737 0.950 . S
H726 C734 0.950 . S
H727 C736 0.950 . S
H728 C738 0.950 . S
H729 C740 0.950 . S
H730 C742 0.950 . S
H731 C743 0.950 . S
C732 H724 0.950 . S
C732 C733 1.386 . S
C732 C734 1.391 . S
C733 C732 1.386 . S
C733 C737 1.393 . S
C734 H726 0.950 . S
C734 C732 1.391 . S
C734 C735 1.400 . S
C735 C734 1.400 . S
C735 C736 1.398 . S
C735 C741 1.491 . S
C736 H727 0.950 . S
C736 C735 1.398 . S
C736 C737 1.391 . S
C737 H725 0.950 . S
C737 C733 1.393 . S
C737 C736 1.391 . S
C738 H728 0.950 . S
C738 C739 1.386 . S
C738 C740 1.391 . S
C739 C738 1.386 . S
C739 C743 1.393 . S
C740 H729 0.950 . S
C740 C738 1.391 . S
C740 C741 1.400 . S
C741 C735 1.491 . S
C741 C740 1.400 . S
C741 C742 1.398 . S
C742 H730 0.950 . S
C742 C741 1.398 . S
C742 C743 1.391 . S
C743 H731 0.950 . S
C743 C739 1.393 . S
C743 C742 1.391 . S
C273 C9 1.410 . S
C279 C121 1.458 . S
C293 C21 1.063 . S
C299 C161 1.087 . S
C319 C186 2.108 . S
C313 C30 2.138 . S
C333 C43 2.201 . S
C339 C226 2.274 . S
C359 C157 1.595 . S
C353 C4 1.410 . S
C379 C117 2.226 . S
C373 C22 2.167 . S
C399 C248 1.358 . S
C393 C34 1.400 . S
C419 C208 1.553 . S
C413 C48 1.561 . S
C433 C8 1.366 . S
C439 C250 1.387 . S
C459 C167 2.099 . S
C453 C35 2.117 . S
C473 C47 2.367 . S
C479 C127 2.311 . S
C493 C17 1.237 . S
C499 C210 1.256 . S
C519 C130 0.972 . S
C513 C60 0.971 . S
C533 C74 1.126 . S
C539 C170 1.134 . S
C553 C82 1.845 . S
C559 C207 1.876 . S
C573 C100 2.830 . S
C579 C247 2.753 . S
C593 C61 1.922 . S
C599 C168 1.993 . S
C619 C128 1.606 . S
C613 C73 1.545 . S
C639 C237 1.868 . S
C633 C87 1.893 . S
C659 C197 1.448 . S
C653 C95 1.489 . S
C673 C56 1.247 . S
C679 C241 1.227 . S
C699 C146 2.308 . S
C693 C86 2.337 . S
C719 C106 2.248 . S
C713 C99 2.280 . S
C733 C69 1.028 . S
C739 C201 1.136 . S
