# Generated by pormake.
# Topology nom, (4,4)-cn, num edge types: 1
# Building blocks:
#     Node 0, Type 0, BuildingBlock: NAHDIM_clean_linker_0, # of connection points: 4
#     Node 1, Type 0, BuildingBlock: NAHDIM_clean_linker_0, # of connection points: 4
#     Node 2, Type 0, BuildingBlock: NAHDIM_clean_linker_0, # of connection points: 4
#     Node 3, Type 0, BuildingBlock: NAHDIM_clean_linker_0, # of connection points: 4
#     Node 4, Type 0, BuildingBlock: NAHDIM_clean_linker_0, # of connection points: 4
#     Node 5, Type 0, BuildingBlock: NAHDIM_clean_linker_0, # of connection points: 4
#     Node 6, Type 1, BuildingBlock: QUQFOY_clean_sbu_1, # of connection points: 4
#     Node 7, Type 1, BuildingBlock: QUQFOY_clean_sbu_1, # of connection points: 4
#     Node 8, Type 1, BuildingBlock: QUQFOY_clean_sbu_1, # of connection points: 4
#     Node 9, Type 1, BuildingBlock: QUQFOY_clean_sbu_1, # of connection points: 4
#     Node 10, Type 1, BuildingBlock: QUQFOY_clean_sbu_1, # of connection points: 4
#     Node 11, Type 1, BuildingBlock: QUQFOY_clean_sbu_1, # of connection points: 4
#     Edge 12, Type (0, 1), BuildingBlock: CIFDUS_clean_linker_0, # of connection points: 2
#     Edge 13, Type (0, 1), BuildingBlock: CIFDUS_clean_linker_0, # of connection points: 2
#     Edge 14, Type (0, 1), BuildingBlock: CIFDUS_clean_linker_0, # of connection points: 2
#     Edge 15, Type (0, 1), BuildingBlock: CIFDUS_clean_linker_0, # of connection points: 2
#     Edge 16, Type (0, 1), BuildingBlock: CIFDUS_clean_linker_0, # of connection points: 2
#     Edge 17, Type (0, 1), BuildingBlock: CIFDUS_clean_linker_0, # of connection points: 2
#     Edge 18, Type (0, 1), BuildingBlock: CIFDUS_clean_linker_0, # of connection points: 2
#     Edge 19, Type (0, 1), BuildingBlock: CIFDUS_clean_linker_0, # of connection points: 2
#     Edge 20, Type (0, 1), BuildingBlock: CIFDUS_clean_linker_0, # of connection points: 2
#     Edge 21, Type (0, 1), BuildingBlock: CIFDUS_clean_linker_0, # of connection points: 2
#     Edge 22, Type (0, 1), BuildingBlock: CIFDUS_clean_linker_0, # of connection points: 2
#     Edge 23, Type (0, 1), BuildingBlock: CIFDUS_clean_linker_0, # of connection points: 2
#     Edge 24, Type (0, 1), BuildingBlock: CIFDUS_clean_linker_0, # of connection points: 2
#     Edge 25, Type (0, 1), BuildingBlock: CIFDUS_clean_linker_0, # of connection points: 2
#     Edge 26, Type (0, 1), BuildingBlock: CIFDUS_clean_linker_0, # of connection points: 2
#     Edge 27, Type (0, 1), BuildingBlock: CIFDUS_clean_linker_0, # of connection points: 2
#     Edge 28, Type (0, 1), BuildingBlock: CIFDUS_clean_linker_0, # of connection points: 2
#     Edge 29, Type (0, 1), BuildingBlock: CIFDUS_clean_linker_0, # of connection points: 2
#     Edge 30, Type (0, 1), BuildingBlock: CIFDUS_clean_linker_0, # of connection points: 2
#     Edge 31, Type (0, 1), BuildingBlock: CIFDUS_clean_linker_0, # of connection points: 2
#     Edge 32, Type (0, 1), BuildingBlock: CIFDUS_clean_linker_0, # of connection points: 2
#     Edge 33, Type (0, 1), BuildingBlock: CIFDUS_clean_linker_0, # of connection points: 2
#     Edge 34, Type (0, 1), BuildingBlock: CIFDUS_clean_linker_0, # of connection points: 2
#     Edge 35, Type (0, 1), BuildingBlock: CIFDUS_clean_linker_0, # of connection points: 2
# Relax obj value: 0.085
# Max RMSD: 0.159
# Mean RMSD: 0.148
data_MOF--net-nom--node1-QUQFOY_clean_sbu_1--node2-NAHDIM_clean_linker_0--edge1-CIFDUS_clean_linker_0
_symmetry_space_group_name_H-M    P1
_symmetry_Int_Tables_number       1
_symmetry_cell_setting            triclinic
loop_
_symmetry_equiv_pos_as_xyz
'x, y, z'
_cell_length_a     54.681826
_cell_length_b     54.87569
_cell_length_c     61.194958
_cell_angle_alpha  90.098626
_cell_angle_beta   90.143668
_cell_angle_gamma 119.97556
loop_
_atom_site_label
_atom_site_type_symbol
_atom_site_fract_x
_atom_site_fract_y
_atom_site_fract_z
_atom_type_partial_charge
C0 C 0.17474 0.55769 0.22935 0.0
C1 C 0.18037 0.5754 0.25013 0.0
C2 C 0.13201 0.55919 0.26356 0.0
C3 C 0.1262 0.53253 0.27085 0.0
C4 C 0.0994 0.51315 0.27901 0.0
C5 C 0.07808 0.52057 0.27988 0.0
C6 C 0.08404 0.54752 0.27288 0.0
C7 C 0.11098 0.56649 0.26489 0.0
C8 C 0.09373 0.48461 0.2865 0.0
C9 C 0.0618 0.55614 0.27355 0.0
C10 C 0.95713 0.39712 0.16763 0.0
C11 C 0.94565 0.41083 0.18321 0.0
C12 C 0.9537 0.41281 0.22234 0.0
C13 C 0.95596 0.43893 0.22684 0.0
C14 C 0.97074 0.45453 0.24533 0.0
C15 C 0.98359 0.44378 0.25947 0.0
C16 C 0.98018 0.41684 0.25549 0.0
C17 C 0.96484 0.40147 0.23707 0.0
C18 C 0.97339 0.48289 0.24936 0.0
C19 C 0.99366 0.40479 0.27021 0.0
C20 C 0.88249 0.39428 0.38511 0.0
C21 C 0.88668 0.41775 0.37303 0.0
C22 C 0.91397 0.43856 0.36686 0.0
C23 C 0.93735 0.43514 0.37214 0.0
C24 C 0.93305 0.41148 0.38445 0.0
C25 C 0.90569 0.3917 0.39118 0.0
C26 C 0.91772 0.46414 0.35475 0.0
C27 C 0.95726 0.40692 0.39043 0.0
C28 C 0.13954 0.60234 0.41603 0.0
C29 C 0.12545 0.57633 0.43066 0.0
C30 C 0.07576 0.5492 0.42088 0.0
C31 C 0.05634 0.55615 0.41232 0.0
C32 C 0.03506 0.53789 0.39783 0.0
C33 C 0.03295 0.51188 0.39225 0.0
C34 C 0.05139 0.50395 0.40208 0.0
C35 C 0.07267 0.52276 0.4163 0.0
C36 C 0.01555 0.54683 0.38781 0.0
C37 C 0.04916 0.47598 0.39703 0.0
C38 C 0.04922 0.49979 0.2873 0.0
C39 C 0.03023 0.48146 0.27171 0.0
C40 C 0.00249 0.46174 0.27727 0.0
C41 C 0.99328 0.45998 0.29907 0.0
C42 C 0.96561 0.44019 0.30529 0.0
C43 C 0.95683 0.43859 0.32683 0.0
C44 C 0.97515 0.45718 0.3429 0.0
C45 C 0.96627 0.45612 0.36478 0.0
C46 C 0.98536 0.47458 0.38037 0.0
C47 C 0.01319 0.49403 0.37477 0.0
C48 C 0.02228 0.49572 0.35293 0.0
C49 C 0.05003 0.51539 0.34669 0.0
C50 C 0.05893 0.51672 0.32524 0.0
C51 C 0.0404 0.49851 0.30917 0.0
C52 C 0.0123 0.47854 0.31506 0.0
C53 C 0.0032 0.4772 0.33697 0.0
C54 C 0.81954 0.3305 0.37961 0.0
C55 C 0.83211 0.36252 0.37909 0.0
O56 O 0.15727 0.57846 0.25495 0.0
O57 O 0.09726 0.56835 0.43349 0.0
O58 O 0.85646 0.37426 0.39175 0.0
O59 O 0.94161 0.39852 0.20362 0.0
H60 H 0.18473 0.56507 0.26403 0.0
H61 H 0.15647 0.53623 0.23168 0.0
H62 H 0.17004 0.56759 0.21535 0.0
H63 H 0.19344 0.55565 0.22532 0.0
H64 H 0.14227 0.52657 0.27012 0.0
H65 H 0.11569 0.58712 0.25932 0.0
H66 H 0.07706 0.46804 0.27606 0.0
H67 H 0.11287 0.48248 0.28577 0.0
H68 H 0.08576 0.48085 0.30354 0.0
H69 H 0.06982 0.5779 0.26752 0.0
H70 H 0.04339 0.54145 0.26341 0.0
H71 H 0.05423 0.55477 0.29057 0.0
H72 H 0.96211 0.43354 0.18396 0.0
H73 H 0.96025 0.40648 0.15107 0.0
H74 H 0.97784 0.40074 0.17374 0.0
H75 H 0.94248 0.37406 0.16645 0.0
H76 H 0.94649 0.44726 0.21576 0.0
H77 H 0.96262 0.3811 0.23353 0.0
H78 H 0.99552 0.49965 0.24644 0.0
H79 H 0.95931 0.48666 0.2385 0.0
H80 H 0.96827 0.48466 0.26664 0.0
H81 H 0.98921 0.38365 0.26473 0.0
H82 H 0.01688 0.41913 0.27064 0.0
H83 H 0.98576 0.40313 0.28714 0.0
H84 H 0.83724 0.36922 0.36173 0.0
H85 H 0.8687 0.4201 0.36885 0.0
H86 H 0.90218 0.37364 0.40076 0.0
H87 H 0.9218 0.46232 0.33724 0.0
H88 H 0.89866 0.46638 0.35584 0.0
H89 H 0.93612 0.48354 0.36132 0.0
H90 H 0.94985 0.38552 0.39706 0.0
H91 H 0.9707 0.41004 0.37593 0.0
H92 H 0.97062 0.42255 0.40302 0.0
H93 H 0.12752 0.55941 0.42232 0.0
H94 H 0.1622 0.60913 0.41369 0.0
H95 H 0.12908 0.59732 0.39975 0.0
H96 H 0.1378 0.61998 0.42333 0.0
H97 H 0.05863 0.57643 0.41634 0.0
H98 H 0.08694 0.51686 0.42375 0.0
H99 H 0.01829 0.54832 0.3698 0.0
H100 H 0.99327 0.53075 0.39117 0.0
H101 H 0.01954 0.56747 0.3942 0.0
H102 H 0.06293 0.47166 0.4078 0.0
H103 H 0.02698 0.45874 0.39887 0.0
H104 H 0.05538 0.47581 0.3798 0.0
H105 H 0.0371 0.48273 0.25491 0.0
H106 H 0.95049 0.42559 0.29358 0.0
H107 H 0.9354 0.42266 0.33069 0.0
H108 H 0.97859 0.47349 0.39717 0.0
H109 H 0.06526 0.53004 0.35832 0.0
H110 H 0.08054 0.53223 0.32142 0.0
H111 H 0.81061 0.32204 0.39598 0.0
H112 H 0.8029 0.31989 0.36697 0.0
H113 H 0.83628 0.32521 0.37606 0.0
C114 C 0.37306 0.86363 0.59714 0.0
C115 C 0.36547 0.85174 0.57384 0.0
C116 C 0.3687 0.89238 0.554 0.0
C117 C 0.39835 0.90878 0.55393 0.0
C118 C 0.41197 0.93655 0.54616 0.0
C119 C 0.39568 0.94829 0.53846 0.0
C120 C 0.36588 0.93169 0.53813 0.0
C121 C 0.35283 0.90388 0.54575 0.0
C122 C 0.44381 0.95353 0.54654 0.0
C123 C 0.34781 0.94353 0.53016 0.0
C124 C 0.45082 0.09065 0.64426 0.0
C125 C 0.46848 0.11456 0.62825 0.0
C126 C 0.46785 0.08699 0.59607 0.0
C127 C 0.43951 0.07663 0.58997 0.0
C128 C 0.4273 0.05698 0.57288 0.0
C129 C 0.44378 0.04772 0.56168 0.0
C130 C 0.47234 0.05831 0.56771 0.0
C131 C 0.48398 0.07791 0.58477 0.0
C132 C 0.39688 0.04622 0.56665 0.0
C133 C 0.4906 0.04894 0.55612 0.0
C134 C 0.4879 0.14938 0.437 0.0
C135 C 0.4588 0.13039 0.43458 0.0
C136 C 0.44715 0.10204 0.44051 0.0
C137 C 0.46496 0.09228 0.44861 0.0
C138 C 0.49436 0.11113 0.45047 0.0
C139 C 0.50536 0.13951 0.44486 0.0
C140 C 0.41572 0.08251 0.43825 0.0
C141 C 0.51412 0.10132 0.45847 0.0
C142 C 0.4004 0.94775 0.34252 0.0
C143 C 0.40062 0.92694 0.35912 0.0
C144 C 0.42442 0.95766 0.39082 0.0
C145 C 0.40219 0.96226 0.39677 0.0
C146 C 0.40544 0.98053 0.41404 0.0
C147 C 0.43124 0.9942 0.42571 0.0
C148 C 0.45346 0.9893 0.41998 0.0
C149 C 0.44971 0.97108 0.40258 0.0
C150 C 0.38137 0.98536 0.4198 0.0
C151 C 0.48121 0.00346 0.43217 0.0
C152 C 0.40974 0.97832 0.53182 0.0
C153 C 0.41809 0.99861 0.54834 0.0
C154 C 0.43159 0.02727 0.54341 0.0
C155 C 0.43584 0.03608 0.52139 0.0
C156 C 0.44779 0.06465 0.51588 0.0
C157 C 0.45274 0.07325 0.49419 0.0
C158 C 0.44668 0.0537 0.47723 0.0
C159 C 0.45274 0.06236 0.45518 0.0
C160 C 0.44712 0.04242 0.43883 0.0
C161 C 0.43521 0.01387 0.4438 0.0
C162 C 0.42827 0.00469 0.46565 0.0
C163 C 0.4157 0.97604 0.47115 0.0
C164 C 0.40926 0.96728 0.49277 0.0
C165 C 0.41554 0.98687 0.50972 0.0
C166 C 0.42836 0.01586 0.50451 0.0
C167 C 0.43432 0.02474 0.48243 0.0
C168 C 0.50485 0.22084 0.419 0.0
C169 C 0.48612 0.1903 0.42312 0.0
O170 O 0.3545 0.86569 0.56203 0.0
O171 O 0.42267 0.94081 0.37385 0.0
O172 O 0.49989 0.1772 0.43208 0.0
O173 O 0.48065 0.10561 0.61268 0.0
H174 H 0.3847 0.85427 0.56558 0.0
H175 H 0.38961 0.88617 0.59685 0.0
H176 H 0.3542 0.86173 0.60555 0.0
H177 H 0.38136 0.8521 0.60669 0.0
H178 H 0.4111 0.90027 0.56004 0.0
H179 H 0.33001 0.89109 0.54574 0.0
H180 H 0.45073 0.97023 0.55919 0.0
H181 H 0.45349 0.94039 0.55026 0.0
H182 H 0.45187 0.96401 0.53055 0.0
H183 H 0.32489 0.92825 0.53174 0.0
H184 H 0.35287 0.96283 0.53957 0.0
H185 H 0.35253 0.94961 0.51273 0.0
H186 H 0.45488 0.12159 0.62006 0.0
H187 H 0.43327 0.07253 0.63564 0.0
H188 H 0.46415 0.08329 0.65239 0.0
H189 H 0.44142 0.09796 0.65695 0.0
H190 H 0.42684 0.08375 0.59838 0.0
H191 H 0.50582 0.08614 0.58954 0.0
H192 H 0.39553 0.05075 0.54915 0.0
H193 H 0.38463 0.02303 0.56871 0.0
H194 H 0.38698 0.05585 0.57667 0.0
H195 H 0.51191 0.05796 0.56363 0.0
H196 H 0.4803 0.02564 0.55641 0.0
H197 H 0.49307 0.0555 0.53874 0.0
H198 H 0.466 0.18497 0.43155 0.0
H199 H 0.44497 0.1375 0.42822 0.0
H200 H 0.52778 0.1542 0.44653 0.0
H201 H 0.40684 0.07168 0.454 0.0
H202 H 0.40445 0.09376 0.43323 0.0
H203 H 0.41159 0.06609 0.42584 0.0
H204 H 0.53664 0.11784 0.45683 0.0
H205 H 0.50983 0.09534 0.47594 0.0
H206 H 0.51047 0.08237 0.4492 0.0
H207 H 0.38022 0.91644 0.36807 0.0
H208 H 0.38298 0.93649 0.33052 0.0
H209 H 0.3971 0.96387 0.3508 0.0
H210 H 0.42077 0.9587 0.33359 0.0
H211 H 0.38233 0.95188 0.38802 0.0
H212 H 0.46669 0.96736 0.39794 0.0
H213 H 0.37493 0.97904 0.437 0.0
H214 H 0.38841 0.00811 0.4185 0.0
H215 H 0.3627 0.97337 0.40902 0.0
H216 H 0.49617 0.99692 0.42601 0.0
H217 H 0.49116 0.02664 0.43057 0.0
H218 H 0.4775 0.99837 0.44983 0.0
H219 H 0.4147 0.99204 0.56531 0.0
H220 H 0.45332 0.08067 0.52829 0.0
H221 H 0.46183 0.09549 0.49093 0.0
H222 H 0.45223 0.04923 0.42199 0.0
H223 H 0.41065 0.96005 0.4588 0.0
H224 H 0.39961 0.94498 0.49606 0.0
H225 H 0.50474 0.22401 0.38459 0.0
H226 H 0.49677 0.23167 0.43007 0.0
H227 H 0.52471 0.22755 0.42881 0.0
C228 C 0.64558 0.47026 0.75695 0.0
C229 C 0.63518 0.45339 0.73562 0.0
C230 C 0.59803 0.46328 0.72278 0.0
C231 C 0.61582 0.49168 0.71723 0.0
C232 C 0.60449 0.50804 0.70936 0.0
C233 C 0.57491 0.4957 0.70679 0.0
C234 C 0.55709 0.46696 0.71184 0.0
C235 C 0.56892 0.45122 0.71987 0.0
C236 C 0.62405 0.53857 0.70391 0.0
C237 C 0.5255 0.4529 0.70892 0.0
C238 C 0.48553 0.6155 0.75268 0.0
C239 C 0.49549 0.60697 0.77323 0.0
C240 C 0.50498 0.57132 0.75713 0.0
C241 C 0.49191 0.54263 0.75243 0.0
C242 C 0.50355 0.53213 0.7373 0.0
C243 C 0.52946 0.55083 0.7271 0.0
C244 C 0.54372 0.57972 0.73277 0.0
C245 C 0.53116 0.58978 0.74754 0.0
C246 C 0.48785 0.5011 0.73198 0.0
C247 C 0.57186 0.60007 0.7228 0.0
C248 C 0.47341 0.59314 0.60609 0.0
C249 C 0.45836 0.56448 0.61142 0.0
C250 C 0.47245 0.54935 0.61494 0.0
C251 C 0.50222 0.56329 0.61322 0.0
C252 C 0.51726 0.59179 0.60662 0.0
C253 C 0.50255 0.6063 0.60289 0.0
C254 C 0.45562 0.51875 0.62128 0.0
C255 C 0.54896 0.60717 0.6044 0.0
C256 C 0.58037 0.43205 0.57055 0.0
C257 C 0.58655 0.4535 0.55238 0.0
C258 C 0.55807 0.47419 0.56326 0.0
C259 C 0.53046 0.4634 0.57069 0.0
C260 C 0.52366 0.47854 0.58558 0.0
C261 C 0.54497 0.50547 0.59265 0.0
C262 C 0.57257 0.51726 0.58405 0.0
C263 C 0.5789 0.50138 0.56952 0.0
C264 C 0.49393 0.46545 0.59421 0.0
C265 C 0.59549 0.54636 0.59059 0.0
C266 C 0.56242 0.51286 0.69927 0.0
C267 C 0.55414 0.5256 0.71517 0.0
C268 C 0.5404 0.54036 0.7094 0.0
C269 C 0.53524 0.5431 0.68712 0.0
C270 C 0.52141 0.55777 0.68075 0.0
C271 C 0.51613 0.56009 0.65885 0.0
C272 C 0.52386 0.54728 0.64244 0.0
C273 C 0.51769 0.54875 0.62017 0.0
C274 C 0.5253 0.53545 0.60429 0.0
C275 C 0.53879 0.52042 0.61008 0.0
C276 C 0.54522 0.5188 0.63227 0.0
C277 C 0.55857 0.50367 0.63869 0.0
C278 C 0.56456 0.50199 0.66056 0.0
C279 C 0.55714 0.51509 0.67693 0.0
C280 C 0.54361 0.53038 0.67085 0.0
C281 C 0.53773 0.53231 0.64849 0.0
C282 C 0.45681 0.63617 0.63303 0.0
C283 C 0.44192 0.60869 0.61985 0.0
O284 O 0.60763 0.44669 0.7312 0.0
O285 O 0.56386 0.45794 0.54995 0.0
O286 O 0.46038 0.6086 0.60439 0.0
O287 O 0.49139 0.58005 0.77086 0.0
H288 H 0.64914 0.46597 0.72193 0.0
H289 H 0.64576 0.4905 0.75557 0.0
H290 H 0.63162 0.45824 0.77077 0.0
H291 H 0.66744 0.47504 0.76067 0.0
H292 H 0.63844 0.50129 0.71914 0.0
H293 H 0.55539 0.42927 0.72406 0.0
H294 H 0.61874 0.55203 0.71412 0.0
H295 H 0.64659 0.54506 0.70661 0.0
H296 H 0.62108 0.54242 0.68655 0.0
H297 H 0.51471 0.43004 0.71258 0.0
H298 H 0.51699 0.46296 0.71989 0.0
H299 H 0.52036 0.45572 0.69188 0.0
H300 H 0.51826 0.6221 0.77614 0.0
H301 H 0.48827 0.63684 0.75478 0.0
H302 H 0.49811 0.61602 0.7383 0.0
H303 H 0.46291 0.60027 0.74933 0.0
H304 H 0.47194 0.52854 0.76017 0.0
H305 H 0.54185 0.61199 0.75138 0.0
H306 H 0.50005 0.49142 0.73831 0.0
H307 H 0.46648 0.49004 0.73939 0.0
H308 H 0.48569 0.49776 0.71401 0.0
H309 H 0.58227 0.62069 0.73141 0.0
H310 H 0.58615 0.59116 0.72318 0.0
H311 H 0.56873 0.60369 0.70544 0.0
H312 H 0.43622 0.59171 0.63212 0.0
H313 H 0.43564 0.55403 0.61308 0.0
H314 H 0.51389 0.62834 0.59841 0.0
H315 H 0.46008 0.51637 0.63861 0.0
H316 H 0.43253 0.51017 0.61937 0.0
H317 H 0.462 0.50606 0.61115 0.0
H318 H 0.55749 0.62915 0.59869 0.0
H319 H 0.55872 0.60755 0.62042 0.0
H320 H 0.55525 0.59585 0.59266 0.0
H321 H 0.60592 0.47343 0.55693 0.0
H322 H 0.59829 0.42807 0.57245 0.0
H323 H 0.57745 0.44031 0.58632 0.0
H324 H 0.56084 0.41187 0.56681 0.0
H325 H 0.51446 0.44258 0.56538 0.0
H326 H 0.60002 0.51035 0.56298 0.0
H327 H 0.49417 0.46458 0.61234 0.0
H328 H 0.48465 0.47869 0.5896 0.0
H329 H 0.48011 0.44385 0.58776 0.0
H330 H 0.61469 0.55391 0.58038 0.0
H331 H 0.58767 0.56149 0.58923 0.0
H332 H 0.60144 0.54619 0.60792 0.0
H333 H 0.55768 0.52327 0.73231 0.0
H334 H 0.5145 0.56769 0.69259 0.0
H335 H 0.50561 0.57183 0.65501 0.0
H336 H 0.52024 0.53639 0.58727 0.0
H337 H 0.56453 0.49288 0.62688 0.0
H338 H 0.57489 0.49009 0.6645 0.0
H339 H 0.46677 0.65475 0.62211 0.0
H340 H 0.44166 0.6379 0.64409 0.0
H341 H 0.4738 0.63641 0.64319 0.0
C342 C 0.1708 0.52613 0.94626 0.0
C343 C 0.18214 0.53674 0.92329 0.0
C344 C 0.14377 0.5021 0.89977 0.0
C345 C 0.12825 0.51611 0.89758 0.0
C346 C 0.10112 0.50254 0.88824 0.0
C347 C 0.08894 0.47422 0.88131 0.0
C348 C 0.10441 0.46 0.88356 0.0
C349 C 0.13181 0.47432 0.89242 0.0
C350 C 0.08548 0.51856 0.88568 0.0
C351 C 0.09194 0.42963 0.87674 0.0
C352 C 0.88327 0.37916 0.96452 0.0
C353 C 0.90401 0.379 0.94891 0.0
C354 C 0.9391 0.40984 0.92229 0.0
C355 C 0.95147 0.39289 0.91941 0.0
C356 C 0.97476 0.40138 0.90555 0.0
C357 C 0.98605 0.4274 0.89452 0.0
C358 C 0.97411 0.44481 0.89785 0.0
C359 C 0.95062 0.43565 0.91155 0.0
C360 C 0.98695 0.3823 0.90229 0.0
C361 C 0.98589 0.47292 0.88663 0.0
C362 C 0.90111 0.3753 0.76788 0.0
C363 C 0.91697 0.3616 0.76977 0.0
C364 C 0.9458 0.3767 0.77511 0.0
C365 C 0.95914 0.4061 0.77844 0.0
C366 C 0.94371 0.42019 0.7752 0.0
C367 C 0.91486 0.40456 0.76992 0.0
C368 C 0.96178 0.36109 0.77809 0.0
C369 C 0.95743 0.45161 0.77826 0.0
C370 C 0.1808 0.52197 0.74021 0.0
C371 C 0.15736 0.52491 0.729 0.0
C372 C 0.11021 0.48623 0.73754 0.0
C373 C 0.09784 0.45766 0.74251 0.0
C374 C 0.07401 0.44446 0.75602 0.0
C375 C 0.06212 0.46026 0.7644 0.0
C376 C 0.07354 0.48877 0.75832 0.0
C377 C 0.09743 0.50145 0.74486 0.0
C378 C 0.06203 0.4139 0.76188 0.0
C379 C 0.06083 0.50597 0.76646 0.0
C380 C 0.05994 0.45949 0.87188 0.0
C381 C 0.0371 0.44932 0.88629 0.0
C382 C 0.0093 0.43578 0.87855 0.0
C383 C 0.00391 0.43151 0.85586 0.0
C384 C 0.97617 0.41701 0.84761 0.0
C385 C 0.97102 0.4135 0.82525 0.0
C386 C 0.9934 0.42455 0.81021 0.0
C387 C 0.98831 0.42156 0.78741 0.0
C388 C 0.01103 0.43315 0.77289 0.0
C389 C 0.03889 0.44758 0.78057 0.0
C390 C 0.04439 0.45038 0.80333 0.0
C391 C 0.07215 0.46447 0.81161 0.0
C392 C 0.07733 0.46741 0.83402 0.0
C393 C 0.05495 0.4564 0.84905 0.0
C394 C 0.02681 0.44219 0.84105 0.0
C395 C 0.02153 0.43897 0.81818 0.0
C396 C 0.85282 0.32455 0.79179 0.0
C397 C 0.85428 0.33258 0.76758 0.0
O398 O 0.17028 0.5145 0.90852 0.0
O399 O 0.13422 0.49835 0.72549 0.0
O400 O 0.8726 0.36117 0.76473 0.0
O401 O 0.91614 0.4021 0.93516 0.0
H402 H 0.17676 0.55305 0.91874 0.0
H403 H 0.14757 0.51727 0.94653 0.0
H404 H 0.17549 0.50944 0.95128 0.0
H405 H 0.18049 0.54371 0.95825 0.0
H406 H 0.13711 0.53773 0.9027 0.0
H407 H 0.14389 0.46365 0.89406 0.0
H408 H 0.06684 0.50941 0.89663 0.0
H409 H 0.0989 0.54124 0.88974 0.0
H410 H 0.07765 0.51661 0.86864 0.0
H411 H 0.10562 0.42084 0.88141 0.0
H412 H 0.07087 0.41669 0.88434 0.0
H413 H 0.08891 0.42782 0.85875 0.0
H414 H 0.89688 0.35863 0.94024 0.0
H415 H 0.86249 0.36015 0.95999 0.0
H416 H 0.90264 0.38369 0.99536 0.0
H417 H 0.87734 0.39474 0.95801 0.0
H418 H 0.94285 0.37287 0.92767 0.0
H419 H 0.94108 0.44864 0.91396 0.0
H420 H 0.98617 0.377 0.88469 0.0
H421 H 0.00946 0.3934 0.90741 0.0
H422 H 0.97546 0.36247 0.91174 0.0
H423 H 0.9763 0.48528 0.89281 0.0
H424 H 0.00912 0.48541 0.88902 0.0
H425 H 0.98179 0.46957 0.8688 0.0
H426 H 0.86177 0.32052 0.75776 0.0
H427 H 0.90695 0.33906 0.76762 0.0
H428 H 0.90265 0.41506 0.76811 0.0
H429 H 0.96857 0.36273 0.79541 0.0
H430 H 0.94888 0.33848 0.77366 0.0
H431 H 0.98112 0.37084 0.76789 0.0
H432 H 0.94323 0.45973 0.77343 0.0
H433 H 0.96343 0.457 0.79569 0.0
H434 H 0.97707 0.46244 0.76845 0.0
H435 H 0.15208 0.53755 0.74024 0.0
H436 H 0.19972 0.54302 0.74285 0.0
H437 H 0.17336 0.51174 0.75637 0.0
H438 H 0.18683 0.50887 0.73023 0.0
H439 H 0.10752 0.44595 0.73635 0.0
H440 H 0.10601 0.52319 0.74007 0.0
H441 H 0.06347 0.41191 0.77983 0.0
H442 H 0.03934 0.40184 0.7573 0.0
H443 H 0.07329 0.40435 0.7536 0.0
H444 H 0.07094 0.52726 0.75906 0.0
H445 H 0.03787 0.49494 0.76274 0.0
H446 H 0.06327 0.50829 0.78449 0.0
H447 H 0.04104 0.45236 0.90374 0.0
H448 H 0.95807 0.40815 0.85836 0.0
H449 H 0.9492 0.40218 0.81994 0.0
H450 H 0.00698 0.431 0.75543 0.0
H451 H 0.09025 0.47342 0.80086 0.0
H452 H 0.09912 0.47857 0.8394 0.0
H453 H 0.83732 0.30185 0.79406 0.0
H454 H 0.87358 0.32829 0.79774 0.0
H455 H 0.8464 0.33716 0.802 0.0
C456 C 0.40494 0.84987 0.90684 0.0
C457 C 0.41867 0.84762 0.92805 0.0
C458 C 0.45017 0.8976 0.93817 0.0
C459 C 0.42911 0.90382 0.94431 0.0
C460 C 0.4363 0.93121 0.95085 0.0
C461 C 0.46503 0.95258 0.95142 0.0
C462 C 0.4862 0.94622 0.94549 0.0
C463 C 0.47844 0.91881 0.93895 0.0
C464 C 0.4133 0.93738 0.95718 0.0
C465 C 0.51707 0.96842 0.94601 0.0
C466 C 0.4643 0.07329 0.83828 0.0
C467 C 0.49087 0.08669 0.85259 0.0
C468 C 0.48612 0.07766 0.89176 0.0
C469 C 0.50895 0.07311 0.89501 0.0
C470 C 0.50984 0.05812 0.91325 0.0
C471 C 0.48751 0.04764 0.92853 0.0
C472 C 0.4652 0.05343 0.92582 0.0
C473 C 0.465 0.06871 0.90754 0.0
C474 C 0.53431 0.05296 0.91597 0.0
C475 C 0.44113 0.0427 0.94186 0.0
C476 C 0.57597 0.15569 0.05078 0.0
C477 C 0.58768 0.13929 0.04443 0.0
C478 C 0.57061 0.11118 0.03801 0.0
C479 C 0.54091 0.09904 0.03817 0.0
C480 C 0.5288 0.11565 0.0441 0.0
C481 C 0.54648 0.14398 0.0501 0.0
C482 C 0.58436 0.09434 0.03136 0.0
C483 C 0.49721 0.10334 0.04429 0.0
C484 C 0.45791 0.89331 0.08449 0.0
C485 C 0.45321 0.90776 0.10418 0.0
C486 C 0.48277 0.95683 0.09376 0.0
C487 C 0.51072 0.9736 0.08707 0.0
C488 C 0.51811 0.99523 0.07181 0.0
C489 C 0.49702 0.00058 0.06362 0.0
C490 C 0.46911 0.98505 0.07167 0.0
C491 C 0.46222 0.96317 0.08655 0.0
C492 C 0.54817 0.01164 0.06387 0.0
C493 C 0.44633 0.99096 0.064 0.0
C494 C 0.47326 0.98173 0.95811 0.0
C495 C 0.47574 0.00066 0.94185 0.0
C496 C 0.48652 0.02917 0.94658 0.0
C497 C 0.4957 0.03935 0.96801 0.0
C498 C 0.50859 0.06819 0.97302 0.0
C499 C 0.51781 0.07795 0.99418 0.0
C500 C 0.51369 0.05913 0.01123 0.0
C501 C 0.52284 0.06872 0.03281 0.0
C502 C 0.51694 0.04926 0.04958 0.0
C503 C 0.50335 0.0204 0.0452 0.0
C504 C 0.49588 0.01058 0.02348 0.0
C505 C 0.48417 0.98188 0.01825 0.0
C506 C 0.47691 0.97241 0.99685 0.0
C507 C 0.48055 0.99116 0.97991 0.0
C508 C 0.49212 0.02014 0.98483 0.0
C509 C 0.50044 0.02995 0.00655 0.0
C510 C 0.57617 0.19423 0.08932 0.0
C511 C 0.58813 0.20227 0.06611 0.0
O512 O 0.44456 0.87176 0.93125 0.0
O513 O 0.47628 0.93456 0.10695 0.0
O514 O 0.59408 0.18238 0.05762 0.0
O515 O 0.48371 0.09039 0.87355 0.0
H516 H 0.40458 0.84453 0.94213 0.0
H517 H 0.41888 0.85312 0.89265 0.0
H518 H 0.40099 0.86781 0.90769 0.0
H519 H 0.38434 0.83037 0.90415 0.0
H520 H 0.40713 0.88758 0.94399 0.0
H521 H 0.49451 0.91376 0.93426 0.0
H522 H 0.41414 0.95407 0.94643 0.0
H523 H 0.39194 0.91849 0.95595 0.0
H524 H 0.41678 0.94546 0.97422 0.0
H525 H 0.53095 0.96003 0.94092 0.0
H526 H 0.52082 0.98599 0.93498 0.0
H527 H 0.52317 0.9772 0.96278 0.0
H528 H 0.49893 0.07164 0.85246 0.0
H529 H 0.46964 0.07052 0.82128 0.0
H530 H 0.4489 0.05226 0.84484 0.0
H531 H 0.45413 0.08647 0.83802 0.0
H532 H 0.52601 0.08115 0.88328 0.0
H533 H 0.44775 0.07279 0.90503 0.0
H534 H 0.52682 0.03028 0.91336 0.0
H535 H 0.55157 0.06531 0.90421 0.0
H536 H 0.54291 0.05842 0.93285 0.0
H537 H 0.42505 0.04848 0.93714 0.0
H538 H 0.43072 0.01943 0.94303 0.0
H539 H 0.44939 0.05146 0.95835 0.0
H540 H 0.5726 0.20398 0.05537 0.0
H541 H 0.61045 0.1486 0.04477 0.0
H542 H 0.53712 0.15662 0.05443 0.0
H543 H 0.57643 0.08461 0.01505 0.0
H544 H 0.60774 0.10741 0.0307 0.0
H545 H 0.57868 0.07705 0.04321 0.0
H546 H 0.49101 0.11888 0.04953 0.0
H547 H 0.48851 0.09554 0.02771 0.0
H548 H 0.48748 0.08504 0.05552 0.0
H549 H 0.4338 0.90899 0.10119 0.0
H550 H 0.43969 0.87168 0.08238 0.0
H551 H 0.45994 0.90531 0.06935 0.0
H552 H 0.47748 0.89215 0.08671 0.0
H553 H 0.52652 0.96883 0.0931 0.0
H554 H 0.44079 0.95114 0.09248 0.0
H555 H 0.5487 0.01054 0.04577 0.0
H556 H 0.55729 0.0341 0.0685 0.0
H557 H 0.56166 0.00374 0.07087 0.0
H558 H 0.42721 0.98053 0.07443 0.0
H559 H 0.4543 0.01397 0.06394 0.0
H560 H 0.44014 0.98314 0.04701 0.0
H561 H 0.46961 0.99316 0.9252 0.0
H562 H 0.51201 0.08356 0.96057 0.0
H563 H 0.52787 0.10039 0.99707 0.0
H564 H 0.52351 0.0567 0.06618 0.0
H565 H 0.48075 0.96641 0.0306 0.0
H566 H 0.46814 0.95013 0.99379 0.0
H567 H 0.591 0.19151 0.10011 0.0
H568 H 0.57257 0.21088 0.0963 0.0
H569 H 0.55568 0.17428 0.08924 0.0
C570 C 0.63564 0.4762 0.05728 0.0
C571 C 0.64697 0.47736 0.08042 0.0
C572 C 0.64607 0.51806 0.09684 0.0
C573 C 0.61665 0.50478 0.09984 0.0
C574 C 0.60408 0.51962 0.10847 0.0
C575 C 0.62113 0.54839 0.11397 0.0
C576 C 0.65067 0.5619 0.11075 0.0
C577 C 0.66273 0.54646 0.10241 0.0
C578 C 0.57252 0.50452 0.11176 0.0
C579 C 0.6695 0.59267 0.1161 0.0
C580 C 0.51994 0.65257 0.02965 0.0
C581 C 0.53967 0.65156 0.04591 0.0
C582 C 0.54202 0.6187 0.07161 0.0
C583 C 0.57129 0.63505 0.07532 0.0
C584 C 0.5851 0.62568 0.08946 0.0
C585 C 0.56938 0.59946 0.10006 0.0
C586 C 0.54004 0.58275 0.09606 0.0
C587 C 0.52674 0.59268 0.08192 0.0
C588 C 0.61641 0.64398 0.09343 0.0
C589 C 0.52269 0.5546 0.10699 0.0
C590 C 0.55304 0.66648 0.22705 0.0
C591 C 0.58193 0.67753 0.22261 0.0
C592 C 0.59252 0.65982 0.2168 0.0
C593 C 0.57397 0.63044 0.21553 0.0
C594 C 0.54521 0.61911 0.22105 0.0
C595 C 0.53515 0.63732 0.2268 0.0
C596 C 0.62343 0.67257 0.21133 0.0
C597 C 0.52495 0.58784 0.22014 0.0
C598 C 0.67518 0.50955 0.24667 0.0
C599 C 0.64967 0.50602 0.25958 0.0
C600 C 0.6412 0.54519 0.25491 0.0
C601 C 0.65764 0.57353 0.24936 0.0
C602 C 0.64629 0.58699 0.23689 0.0
C603 C 0.61766 0.57169 0.23025 0.0
C604 C 0.60038 0.54363 0.23732 0.0
C605 C 0.61235 0.53065 0.24963 0.0
C606 C 0.66514 0.6171 0.22995 0.0
C607 C 0.56956 0.52702 0.23112 0.0
C608 C 0.60808 0.56434 0.12315 0.0
C609 C 0.59571 0.57475 0.10864 0.0
C610 C 0.58328 0.59009 0.11617 0.0
C611 C 0.58361 0.59579 0.13875 0.0
C612 C 0.57212 0.61195 0.14677 0.0
C613 C 0.57244 0.61737 0.16901 0.0
C614 C 0.58398 0.60659 0.18415 0.0
C615 C 0.58432 0.61193 0.20683 0.0
C616 C 0.59541 0.60038 0.22148 0.0
C617 C 0.6066 0.58387 0.21403 0.0
C618 C 0.60707 0.5789 0.19137 0.0
C619 C 0.61876 0.5629 0.1833 0.0
C620 C 0.6191 0.55809 0.16101 0.0
C621 C 0.60776 0.56904 0.14587 0.0
C622 C 0.59568 0.58502 0.15366 0.0
C623 C 0.59556 0.59016 0.17641 0.0
C624 C 0.55696 0.71766 0.20254 0.0
C625 C 0.55386 0.71173 0.22721 0.0
O626 O 0.6593 0.50458 0.08863 0.0
O627 O 0.65374 0.53233 0.2651 0.0
O628 O 0.5415 0.68306 0.2311 0.0
O629 O 0.52776 0.62722 0.05831 0.0
H630 H 0.62931 0.46286 0.09119 0.0
H631 H 0.61923 0.48246 0.05746 0.0
H632 H 0.65294 0.49071 0.04627 0.0
H633 H 0.62593 0.45447 0.05062 0.0
H634 H 0.60327 0.48288 0.09555 0.0
H635 H 0.68536 0.55661 0.10003 0.0
H636 H 0.56303 0.51363 0.10075 0.0
H637 H 0.56245 0.48161 0.10834 0.0
H638 H 0.56762 0.50752 0.12882 0.0
H639 H 0.69165 0.60065 0.11085 0.0
H640 H 0.66135 0.60534 0.10807 0.0
H641 H 0.66939 0.5959 0.13401 0.0
H642 H 0.55195 0.67107 0.05585 0.0
H643 H 0.5376 0.65138 -0.00077 0.0
H644 H 0.49798 0.63616 0.03473 0.0
H645 H 0.51742 0.67088 0.0349 0.0
H646 H 0.58345 0.65523 0.0674 0.0
H647 H 0.50423 0.58017 0.0789 0.0
H648 H 0.62736 0.6322 0.08915 0.0
H649 H 0.62574 0.66371 0.08376 0.0
H650 H 0.62037 0.64951 0.11105 0.0
H651 H 0.50043 0.54342 0.10119 0.0
H652 H 0.53213 0.54112 0.10384 0.0
H653 H 0.52285 0.55764 0.12494 0.0
H654 H 0.57504 0.72287 0.2351 0.0
H655 H 0.59633 0.69997 0.22323 0.0
H656 H 0.51299 0.62889 0.2305 0.0
H657 H 0.62567 0.6684 0.1939 0.0
H658 H 0.63543 0.69566 0.21418 0.0
H659 H 0.63297 0.66259 0.22135 0.0
H660 H 0.50359 0.58218 0.2261 0.0
H661 H 0.52311 0.58031 0.20303 0.0
H662 H 0.53321 0.57665 0.23015 0.0
H663 H 0.63106 0.4945 0.2486 0.0
H664 H 0.67261 0.48865 0.24258 0.0
H665 H 0.67699 0.52083 0.23116 0.0
H666 H 0.69505 0.52194 0.25611 0.0
H667 H 0.67976 0.58472 0.25397 0.0
H668 H 0.59926 0.50908 0.25488 0.0
H669 H 0.66701 0.61811 0.21187 0.0
H670 H 0.65561 0.62999 0.2349 0.0
H671 H 0.68663 0.62644 0.23719 0.0
H672 H 0.5583 0.50663 0.23987 0.0
H673 H 0.55905 0.53943 0.23475 0.0
H674 H 0.56761 0.52276 0.21327 0.0
H675 H 0.59562 0.57073 0.09126 0.0
H676 H 0.56284 0.62072 0.13594 0.0
H677 H 0.56335 0.63001 0.17417 0.0
H678 H 0.59545 0.60438 0.23885 0.0
H679 H 0.62787 0.55395 0.19412 0.0
H680 H 0.62833 0.5456 0.1558 0.0
H681 H 0.53609 0.70603 0.19425 0.0
H682 H 0.56608 0.74054 0.1995 0.0
H683 H 0.57127 0.71114 0.19508 0.0
O684 O 0.62023 0.39813 0.4313 0.0
Cd685 Cd 0.62158 0.38229 0.40096 0.0
Cd686 Cd 0.67757 0.41411 0.4081 0.0
O687 O 0.6658 0.41995 0.43872 0.0
O688 O 0.58282 0.34967 0.39634 0.0
O689 O 0.6207 0.34524 0.39907 0.0
C690 C 0.59366 0.33351 0.39676 0.0
C691 C 0.70715 0.39551 0.40314 0.0
C692 C 0.64064 0.4124 0.44434 0.0
C693 C 0.65418 0.43065 0.37041 0.0
O694 O 0.67534 0.43767 0.38285 0.0
O695 O 0.63091 0.40825 0.37407 0.0
O696 O 0.71702 0.42116 0.40961 0.0
O697 O 0.68022 0.38017 0.40012 0.0
O698 O 0.23334 0.57884 0.59833 0.0
Cd699 Cd 0.25775 0.59776 0.57121 0.0
Cd700 Cd 0.24048 0.63533 0.57964 0.0
O701 O 0.22459 0.61244 0.60808 0.0
O702 O 0.2834 0.5817 0.56904 0.0
O703 O 0.29851 0.62669 0.57559 0.0
C704 C 0.30405 0.60655 0.57343 0.0
C705 C 0.27327 0.68335 0.58047 0.0
C706 C 0.22277 0.58876 0.61169 0.0
C707 C 0.22139 0.60295 0.53725 0.0
O708 O 0.21861 0.61906 0.55075 0.0
O709 O 0.23759 0.59318 0.54168 0.0
O710 O 0.24671 0.67431 0.58334 0.0
O711 O 0.28114 0.66496 0.57767 0.0
O712 O 0.62165 0.20915 0.76625 0.0
Cd713 Cd 0.64071 0.2334 0.7391 0.0
Cd714 Cd 0.60491 0.25279 0.74747 0.0
O715 O 0.59583 0.2282 0.77502 0.0
O716 O 0.67421 0.2289 0.73426 0.0
O717 O 0.67771 0.26985 0.74209 0.0
C718 C 0.68998 0.2554 0.73812 0.0
C719 C 0.61081 0.29784 0.7507 0.0
C720 C 0.60401 0.21064 0.77885 0.0
C721 C 0.59506 0.21942 0.70614 0.0
O722 O 0.58611 0.2314 0.71901 0.0
O723 O 0.61777 0.21933 0.71047 0.0
O724 O 0.58656 0.27558 0.75323 0.0
O725 O 0.63221 0.29463 0.74663 0.0
O726 O 0.44755 0.6561 0.94825 0.0
Cd727 Cd 0.42892 0.66487 0.92244 0.0
Cd728 Cd 0.39663 0.60853 0.92104 0.0
O729 O 0.42111 0.60989 0.94736 0.0
O730 O 0.44496 0.70636 0.92363 0.0
O731 O 0.39938 0.6762 0.92717 0.0
C732 C 0.41973 0.70196 0.92634 0.0
C733 C 0.34769 0.58718 0.92357 0.0
C734 C 0.4415 0.63208 0.95562 0.0
C735 C 0.43204 0.63564 0.88174 0.0
O736 O 0.41413 0.61258 0.89051 0.0
O737 O 0.44021 0.65879 0.89168 0.0
O738 O 0.35996 0.5724 0.92157 0.0
O739 O 0.36343 0.61424 0.92458 0.0
O740 O 0.8126 0.38308 0.04746 0.0
Cd741 Cd 0.7886 0.37689 0.07506 0.0
Cd742 Cd 0.80879 0.43193 0.07055 0.0
O743 O 0.8277 0.42815 0.04256 0.0
O744 O 0.76757 0.33519 0.07809 0.0
O745 O 0.74614 0.35979 0.07316 0.0
C746 C 0.7444 0.33564 0.07581 0.0
C747 C 0.77573 0.44685 0.06993 0.0
C748 C 0.82721 0.40564 0.03675 0.0
C749 C 0.82802 0.41479 0.11017 0.0
O750 O 0.83045 0.43543 0.09905 0.0
O751 O 0.81115 0.38972 0.10396 0.0
O752 O 0.80239 0.46455 0.06802 0.0
O753 O 0.76784 0.42046 0.07183 0.0
O754 O 0.42361 0.8097 0.21991 0.0
Cd755 Cd 0.42125 0.79031 0.24923 0.0
Cd756 Cd 0.36538 0.76599 0.24268 0.0
O757 O 0.3779 0.78664 0.2131 0.0
O758 O 0.45784 0.79122 0.25314 0.0
O759 O 0.41706 0.75182 0.2485 0.0
C760 C 0.44417 0.76422 0.25087 0.0
C761 C 0.32826 0.7195 0.24304 0.0
C762 C 0.40293 0.8045 0.20746 0.0
C763 C 0.39 0.80519 0.28131 0.0
O764 O 0.36835 0.78979 0.2697 0.0
O765 O 0.41375 0.80764 0.27658 0.0
O766 O 0.32408 0.74017 0.23906 0.0
O767 O 0.35389 0.72514 0.24648 0.0
H768 H 0.23549 0.59279 0.26011 0.0
H769 H 0.18277 0.62203 0.23122 0.0
H770 H 0.22385 0.6686 0.22605 0.0
H771 H 0.27433 0.70138 0.23066 0.0
H772 H 0.32789 0.67246 0.25848 0.0
H773 H 0.28695 0.62534 0.26298 0.0
C774 C 0.23307 0.60946 0.2528 0.0
C775 C 0.206 0.60422 0.24676 0.0
C776 C 0.25689 0.63616 0.24961 0.0
C777 C 0.20323 0.62573 0.23663 0.0
C778 C 0.22672 0.65232 0.23356 0.0
C779 C 0.27712 0.68477 0.23765 0.0
C780 C 0.30408 0.69047 0.24437 0.0
C781 C 0.25358 0.65784 0.24017 0.0
C782 C 0.30734 0.66862 0.25318 0.0
C783 C 0.28393 0.6417 0.25583 0.0
H784 H 0.53327 0.19063 0.39412 0.0
H785 H 0.4445 0.20059 0.39832 0.0
H786 H 0.48108 0.26099 0.39659 0.0
H787 H 0.53668 0.30446 0.39732 0.0
H788 H 0.61096 0.29547 0.39307 0.0
H789 H 0.58459 0.24448 0.39161 0.0
C790 C 0.52344 0.20352 0.39347 0.0
C791 C 0.48538 0.1893 0.40023 0.0
C792 C 0.54415 0.24132 0.39369 0.0
C793 C 0.46702 0.20981 0.39603 0.0
C794 C 0.49002 0.24732 0.39611 0.0
C795 C 0.54582 0.29098 0.39614 0.0
C796 C 0.57541 0.30247 0.39535 0.0
C797 C 0.52774 0.26225 0.39573 0.0
C798 C 0.58815 0.28541 0.39368 0.0
C799 C 0.57324 0.25589 0.39278 0.0
H800 H 0.43012 0.64717 0.59967 0.0
H801 H 0.39324 0.55879 0.61426 0.0
H802 H 0.34829 0.54978 0.59881 0.0
H803 H 0.31834 0.5675 0.58431 0.0
H804 H 0.35388 0.65641 0.57298 0.0
H805 H 0.40043 0.66478 0.58424 0.0
C806 C 0.41228 0.62596 0.59969 0.0
C807 C 0.41489 0.6038 0.60885 0.0
C808 C 0.38618 0.62106 0.59144 0.0
C809 C 0.39167 0.57631 0.60778 0.0
C810 C 0.36594 0.57113 0.59896 0.0
C811 C 0.33636 0.58866 0.584 0.0
C812 C 0.3327 0.6113 0.5778 0.0
C813 C 0.36278 0.59342 0.59121 0.0
C814 C 0.35617 0.63864 0.57772 0.0
C815 C 0.38277 0.64344 0.5842 0.0
H816 H 0.81681 0.28529 0.74571 0.0
H817 H 0.82548 0.36151 0.77338 0.0
H818 H 0.77585 0.34543 0.76512 0.0
H819 H 0.72904 0.30789 0.7526 0.0
H820 H 0.72075 0.23113 0.72608 0.0
H821 H 0.77113 0.24935 0.73109 0.0
C822 C 0.80796 0.29862 0.74951 0.0
C823 C 0.8249 0.32473 0.75979 0.0
C824 C 0.77938 0.28903 0.74508 0.0
C825 C 0.81299 0.34154 0.76509 0.0
C826 C 0.78458 0.33226 0.76051 0.0
C827 C 0.73834 0.29533 0.74765 0.0
C828 C 0.72107 0.26811 0.73911 0.0
C829 C 0.76742 0.3058 0.75085 0.0
C830 C 0.73347 0.25208 0.73283 0.0
C831 C 0.76232 0.26246 0.7357 0.0
H832 H 0.38239 0.79312 0.93999 0.0
H833 H 0.4644 0.84564 0.91136 0.0
H834 H 0.47182 0.80553 0.90887 0.0
H835 H 0.45541 0.75579 0.91486 0.0
H836 H 0.37248 0.70187 0.94143 0.0
H837 H 0.36497 0.7422 0.94464 0.0
C838 C 0.40193 0.79572 0.93337 0.0
C839 C 0.42317 0.82254 0.92659 0.0
C840 C 0.40588 0.77234 0.93155 0.0
C841 C 0.44805 0.82547 0.91735 0.0
C842 C 0.45227 0.8025 0.91579 0.0
C843 C 0.43569 0.75282 0.92143 0.0
C844 C 0.41463 0.72594 0.92807 0.0
C845 C 0.43142 0.77591 0.92293 0.0
C846 C 0.38905 0.72239 0.93623 0.0
C847 C 0.38477 0.74544 0.93809 0.0
H848 H 0.70336 0.50766 0.07001 0.0
H849 H 0.63814 0.42457 0.08859 0.0
H850 H 0.67173 0.40755 0.08648 0.0
H851 H 0.71973 0.41634 0.07959 0.0
H852 H 0.78519 0.49971 0.06156 0.0
H853 H 0.7515 0.51653 0.06329 0.0
C854 C 0.69663 0.48592 0.07385 0.0
C855 C 0.66845 0.46756 0.07997 0.0
C856 C 0.71607 0.47629 0.07262 0.0
C857 C 0.65984 0.43924 0.08429 0.0
C858 C 0.679 0.42948 0.08299 0.0
C859 C 0.72661 0.43817 0.07597 0.0
C860 C 0.75495 0.4567 0.07043 0.0
C861 C 0.70718 0.44781 0.07721 0.0
C862 C 0.76352 0.48496 0.06589 0.0
C863 C 0.74426 0.49464 0.06688 0.0
H864 H 0.3753 0.80772 0.57245 0.0
H865 H 0.30773 0.82623 0.57882 0.0
H866 H 0.27346 0.77601 0.58187 0.0
H867 H 0.2627 0.72683 0.58251 0.0
H868 H 0.33049 0.70844 0.57638 0.0
H869 H 0.36463 0.75858 0.57353 0.0
C870 C 0.35302 0.80069 0.57428 0.0
C871 C 0.34399 0.8206 0.57482 0.0
C872 C 0.3335 0.77183 0.5762 0.0
C873 C 0.31514 0.81127 0.57782 0.0
C874 C 0.29556 0.78259 0.57969 0.0
C875 C 0.28495 0.73378 0.58063 0.0
C876 C 0.29399 0.71386 0.57965 0.0
C877 C 0.3045 0.76268 0.57887 0.0
C878 C 0.32292 0.72328 0.57717 0.0
C879 C 0.34248 0.75197 0.5755 0.0
H880 H 0.59754 0.40518 0.75646 0.0
H881 H 0.67534 0.44144 0.72023 0.0
H882 H 0.67598 0.3972 0.72301 0.0
H883 H 0.6529 0.3473 0.73423 0.0
H884 H 0.57397 0.3112 0.76913 0.0
H885 H 0.5753 0.35624 0.7684 0.0
C886 C 0.61456 0.40334 0.74909 0.0
C887 C 0.63601 0.4263 0.73771 0.0
C888 C 0.61458 0.37786 0.75053 0.0
C889 C 0.65833 0.42386 0.72871 0.0
C890 C 0.65871 0.39861 0.73034 0.0
C891 C 0.63618 0.34943 0.74186 0.0
C892 C 0.61335 0.32593 0.75167 0.0
C893 C 0.63676 0.37534 0.74099 0.0
C894 C 0.59171 0.32892 0.76137 0.0
C895 C 0.59243 0.35467 0.76096 0.0
H896 H 0.21457 0.51129 0.92223 0.0
H897 H 0.22112 0.59286 0.92522 0.0
H898 H 0.27256 0.6156 0.92607 0.0
H899 H 0.31574 0.61243 0.92557 0.0
H900 H 0.30942 0.53088 0.92255 0.0
H901 H 0.25799 0.50809 0.9221 0.0
C902 C 0.22732 0.53404 0.92287 0.0
C903 C 0.21405 0.55039 0.92316 0.0
C904 C 0.25694 0.547 0.92342 0.0
C905 C 0.23083 0.57984 0.92455 0.0
C906 C 0.26023 0.59285 0.92512 0.0
C907 C 0.30313 0.58967 0.92488 0.0
C908 C 0.31647 0.57344 0.92409 0.0
C909 C 0.27353 0.57667 0.9245 0.0
C910 C 0.29975 0.54394 0.92318 0.0
C911 C 0.27029 0.53085 0.92288 0.0
H912 H 0.64007 0.21265 0.07935 0.0
H913 H 0.59678 0.25482 0.05541 0.0
H914 H 0.64097 0.30009 0.05694 0.0
H915 H 0.69235 0.32742 0.06442 0.0
H916 H 0.73496 0.28402 0.08759 0.0
H917 H 0.69065 0.23954 0.08696 0.0
C918 C 0.64036 0.23174 0.07432 0.0
C919 C 0.61534 0.23034 0.06686 0.0
C920 C 0.66573 0.25747 0.07513 0.0
C921 C 0.61588 0.25532 0.06087 0.0
C922 C 0.64111 0.28117 0.0618 0.0
C923 C 0.69187 0.30823 0.06941 0.0
C924 C 0.71697 0.30908 0.076 0.0
C925 C 0.66623 0.28248 0.06879 0.0
C926 C 0.71601 0.284 0.08236 0.0
C927 C 0.69066 0.25851 0.08202 0.0
H928 H 0.49595 0.68735 0.22756 0.0
H929 H 0.57218 0.76244 0.24723 0.0
H930 H 0.54473 0.78443 0.25805 0.0
H931 H 0.49972 0.78386 0.25898 0.0
H932 H 0.42325 0.70921 0.23886 0.0
H933 H 0.45004 0.68533 0.23154 0.0
C934 C 0.50642 0.70826 0.2347 0.0
C935 C 0.53604 0.72309 0.23689 0.0
C936 C 0.4905 0.72093 0.24065 0.0
C937 C 0.5494 0.75045 0.24569 0.0
C938 C 0.53373 0.76308 0.25176 0.0
C939 C 0.48882 0.76224 0.25324 0.0
C940 C 0.45956 0.74845 0.24929 0.0
C941 C 0.50436 0.74875 0.24889 0.0
C942 C 0.44577 0.72036 0.24201 0.0
C943 C 0.4611 0.70672 0.23773 0.0
H944 H 0.77645 0.34076 0.36741 0.0
H945 H 0.84119 0.40567 0.40792 0.0
H946 H 0.80837 0.42108 0.41892 0.0
H947 H 0.76142 0.41673 0.41674 0.0
H948 H 0.69602 0.34993 0.37818 0.0
H949 H 0.72882 0.33413 0.36736 0.0
C950 C 0.78336 0.3578 0.37909 0.0
C951 C 0.81127 0.37132 0.3872 0.0
C952 C 0.76418 0.36624 0.38581 0.0
C953 C 0.81983 0.39427 0.40162 0.0
C954 C 0.80104 0.40322 0.40796 0.0
C955 C 0.75431 0.39859 0.40609 0.0
C956 C 0.72638 0.38461 0.39819 0.0
C957 C 0.77319 0.3894 0.40013 0.0
C958 C 0.71739 0.36102 0.38454 0.0
C959 C 0.73617 0.35206 0.37825 0.0
H960 H 0.16381 0.56175 0.44457 0.0
H961 H 0.12121 0.60601 0.46529 0.0
H962 H 0.14705 0.6181 0.49998 0.0
H963 H 0.18207 0.6165 0.52414 0.0
H964 H 0.22479 0.57223 0.50334 0.0
H965 H 0.19853 0.5597 0.46896 0.0
C966 C 0.16002 0.57381 0.4568 0.0
C967 C 0.1403 0.58257 0.45256 0.0
C968 C 0.17504 0.58078 0.47661 0.0
C969 C 0.13595 0.59865 0.46835 0.0
C970 C 0.1508 0.60565 0.48812 0.0
C971 C 0.18568 0.60412 0.51211 0.0
C972 C 0.20545 0.59538 0.51636 0.0
C973 C 0.17044 0.59689 0.49239 0.0
C974 C 0.20973 0.57926 0.50055 0.0
C975 C 0.19471 0.57207 0.48086 0.0
H976 H 0.52285 0.12644 0.63669 0.0
H977 H 0.46517 0.15698 0.64898 0.0
H978 H 0.50028 0.19404 0.67266 0.0
H979 H 0.54588 0.21531 0.69186 0.0
H980 H 0.60346 0.18464 0.67907 0.0
H981 H 0.57009 0.1506 0.65297 0.0
C982 C 0.51813 0.14157 0.64412 0.0
C983 C 0.49152 0.13921 0.64082 0.0
C984 C 0.53839 0.16279 0.6576 0.0
C985 C 0.48562 0.15862 0.65106 0.0
C986 C 0.50564 0.17973 0.66462 0.0
C987 C 0.55136 0.20149 0.68313 0.0
C988 C 0.57706 0.20239 0.68764 0.0
C989 C 0.53193 0.18172 0.66827 0.0
C990 C 0.58383 0.18442 0.67602 0.0
C991 C 0.56467 0.16479 0.66116 0.0
H992 H 0.50775 0.65182 0.79933 0.0
H993 H 0.44537 0.56438 0.79009 0.0
H994 H 0.4198 0.56588 0.82222 0.0
H995 H 0.4162 0.5915 0.85382 0.0
H996 H 0.47766 0.6795 0.86231 0.0
H997 H 0.50227 0.67836 0.8295 0.0
C998 C 0.48861 0.63311 0.80446 0.0
C999 C 0.4791 0.60782 0.79284 0.0
C1000 C 0.47375 0.63422 0.82274 0.0
C1001 C 0.45371 0.58391 0.79916 0.0
C1002 C 0.43896 0.58478 0.81746 0.0
C1003 C 0.43486 0.61048 0.84843 0.0
C1004 C 0.44515 0.63546 0.86064 0.0
C1005 C 0.44897 0.60972 0.82953 0.0
C1006 C 0.46924 0.65994 0.85327 0.0
C1007 C 0.48343 0.65931 0.83454 0.0
H1008 H 0.93989 0.43744 0.97168 0.0
H1009 H 0.89484 0.32968 0.97674 0.0
H1010 H 0.84988 0.32871 0.00233 0.0
H1011 H 0.82848 0.36083 0.01957 0.0
H1012 H 0.86841 0.45181 0.01688 0.0
H1013 H 0.90743 0.4578 0.99444 0.0
C1014 C 0.92384 0.4174 0.97805 0.0
C1015 C 0.91956 0.38325 0.96816 0.0
C1016 C 0.894 0.41403 0.99291 0.0
C1017 C 0.89536 0.34897 0.98139 0.0
C1018 C 0.86671 0.34843 0.99614 0.0
C1019 C 0.84519 0.38073 0.01347 0.0
C1020 C 0.84677 0.40635 0.01958 0.0
C1021 C 0.86604 0.38045 0.00098 0.0
C1022 C 0.86845 0.43288 0.01188 0.0
C1023 C 0.89134 0.43679 -0.00097 0.0
H1024 H 0.40343 0.86701 0.12078 0.0
H1025 H 0.49323 0.90855 0.13225 0.0
H1026 H 0.48561 0.87981 0.16476 0.0
H1027 H 0.45335 0.84353 0.19026 0.0
H1028 H 0.36346 0.80135 0.17832 0.0
H1029 H 0.37124 0.82957 0.14559 0.0
C1030 C 0.42127 0.86988 0.13054 0.0
C1031 C 0.44875 0.89045 0.12454 0.0
C1032 C 0.41675 0.85308 0.14903 0.0
C1033 C 0.47181 0.8934 0.13689 0.0
C1034 C 0.46748 0.87686 0.15539 0.0
C1035 C 0.43544 0.84039 0.18047 0.0
C1036 C 0.40786 0.82039 0.18684 0.0
C1037 C 0.44002 0.85676 0.16168 0.0
C1038 C 0.38493 0.81658 0.17386 0.0
C1039 C 0.38933 0.83276 0.15514 0.0
H1040 H 0.68435 0.51996 0.2953 0.0
H1041 H 0.60539 0.4538 0.26953 0.0
H1042 H 0.59929 0.42508 0.30177 0.0
H1043 H 0.61718 0.41815 0.33667 0.0
H1044 H 0.69722 0.48366 0.3617 0.0
H1045 H 0.70218 0.51313 0.33032 0.0
C1046 C 0.66583 0.49925 0.2968 0.0
C1047 C 0.64542 0.48895 0.28005 0.0
C1048 C 0.66271 0.48268 0.31518 0.0
C1049 C 0.62141 0.46216 0.28221 0.0
C1050 C 0.61794 0.44572 0.3006 0.0
C1051 C 0.63567 0.43892 0.33532 0.0
C1052 C 0.6568 0.44862 0.35152 0.0
C1053 C 0.63857 0.45567 0.3171 0.0
C1054 C 0.68067 0.47556 0.34944 0.0
C1055 C 0.68353 0.49248 0.33151 0.0
H1056 H 0.3593 0.87492 0.34618 0.0
H1057 H 0.44952 0.92993 0.34414 0.0
H1058 H 0.45446 0.89566 0.32184 0.0
H1059 H 0.43276 0.8517 0.30068 0.0
H1060 H 0.3422 0.79782 0.30121 0.0
H1061 H 0.33781 0.82974 0.32661 0.0
C1062 C 0.38005 0.87914 0.34115 0.0
C1063 C 0.40402 0.90466 0.34713 0.0
C1064 C 0.38267 0.85958 0.32801 0.0
C1065 C 0.43079 0.9102 0.34008 0.0
C1066 C 0.43361 0.89067 0.32725 0.0
C1067 C 0.41211 0.84668 0.30665 0.0
C1068 C 0.38785 0.82245 0.299 0.0
C1069 C 0.40965 0.86548 0.32085 0.0
C1070 C 0.36122 0.8164 0.30676 0.0
C1071 C 0.35866 0.83468 0.32124 0.0
H1072 H 0.63714 0.46481 0.53546 0.0
H1073 H 0.54768 0.41702 0.52242 0.0
H1074 H 0.55652 0.39965 0.48824 0.0
H1075 H 0.58969 0.39883 0.4618 0.0
H1076 H 0.67926 0.44606 0.47511 0.0
H1077 H 0.67031 0.46273 0.50951 0.0
C1078 C 0.61964 0.45075 0.52502 0.0
C1079 C 0.59189 0.44288 0.53111 0.0
C1080 C 0.62486 0.44066 0.50552 0.0
C1081 C 0.56929 0.42398 0.51779 0.0
C1082 C 0.57432 0.41393 0.49832 0.0
C1083 C 0.60729 0.4127 0.47223 0.0
C1084 C 0.63512 0.42125 0.46578 0.0
C1085 C 0.60203 0.42228 0.49197 0.0
C1086 C 0.65762 0.43913 0.47961 0.0
C1087 C 0.65254 0.44874 0.49929 0.0
H1088 H 0.16913 0.50593 0.69139 0.0
H1089 H 0.16897 0.57831 0.7187 0.0
H1090 H 0.18799 0.60411 0.68462 0.0
H1091 H 0.20633 0.60663 0.64751 0.0
H1092 H 0.2079 0.5345 0.62085 0.0
H1093 H 0.18669 0.50814 0.65415 0.0
C1094 C 0.17311 0.52729 0.68978 0.0
C1095 C 0.16756 0.54016 0.70746 0.0
C1096 C 0.18441 0.54209 0.67029 0.0
C1097 C 0.17295 0.56791 0.70526 0.0
C1098 C 0.18388 0.58268 0.68581 0.0
C1099 C 0.20187 0.58509 0.64893 0.0
C1100 C 0.20879 0.57265 0.63169 0.0
C1101 C 0.18993 0.57007 0.66827 0.0
C1102 C 0.20295 0.54472 0.63388 0.0
C1103 C 0.19078 0.52956 0.65292 0.0
H1104 H 0.54131 0.09989 0.83402 0.0
H1105 H 0.48933 0.1359 0.8502 0.0
H1106 H 0.52184 0.17915 0.83093 0.0
H1107 H 0.56216 0.20446 0.80633 0.0
H1108 H 0.61383 0.168 0.78985 0.0
H1109 H 0.58469 0.1275 0.81284 0.0
C1110 C 0.53736 0.11738 0.83358 0.0
C1111 C 0.51282 0.11464 0.84325 0.0
C1112 C 0.55604 0.14206 0.82241 0.0
C1113 C 0.508 0.13751 0.8427 0.0
C1114 C 0.52655 0.16219 0.83169 0.0
C1115 C 0.5674 0.18792 0.80805 0.0
C1116 C 0.58994 0.18915 0.79609 0.0
C1117 C 0.55025 0.1644 0.82101 0.0
C1118 C 0.59649 0.16757 0.7987 0.0
C1119 C 0.57974 0.14428 0.81177 0.0
H1120 H 0.5199 0.59563 0.02002 0.0
H1121 H 0.5816 0.70373 0.02166 0.0
H1122 H 0.53939 0.70646 0.99476 0.0
H1123 H 0.48713 0.67549 0.97489 0.0
H1124 H 0.43698 0.58438 0.97211 0.0
H1125 H 0.469 0.57682 0.99469 0.0
C1126 C 0.52413 0.61614 0.01463 0.0
C1127 C 0.55277 0.64942 0.02695 0.0
C1128 C 0.49864 0.62047 -0.00093 0.0
C1129 C 0.56345 0.6848 0.01555 0.0
C1130 C 0.53636 0.6863 -8e-05 0.0
C1131 C 0.4839 0.65515 0.97983 0.0
C1132 C 0.46032 0.63 0.97219 0.0
C1133 C 0.50439 0.65456 0.99266 0.0
C1134 C 0.45555 0.60293 0.97827 0.0
C1135 C 0.47392 0.59813 0.99123 0.0
H1136 H 0.93615 0.45187 0.16743 0.0
H1137 H 0.89401 0.36262 0.17949 0.0
H1138 H 0.85188 0.35645 0.16042 0.0
H1139 H 0.8296 0.37571 0.13657 0.0
H1140 H 0.87221 0.46504 0.12406 0.0
H1141 H 0.91125 0.47198 0.14759 0.0
C1142 C 0.91756 0.43115 0.16618 0.0
C1143 C 0.91827 0.40767 0.17454 0.0
C1144 C 0.89355 0.42778 0.1551 0.0
C1145 C 0.89398 0.38095 0.17299 0.0
C1146 C 0.86995 0.37744 0.16208 0.0
C1147 C 0.84715 0.39679 0.1393 0.0
C1148 C 0.84813 0.41973 0.12822 0.0
C1149 C 0.86983 0.40059 0.1525 0.0
C1150 C 0.87093 0.44693 0.13221 0.0
C1151 C 0.8934 0.45093 0.14557 0.0
loop_
_geom_bond_atom_site_label_1
_geom_bond_atom_site_label_2
_geom_bond_distance
_geom_bond_site_symmetry_2
_ccdc_geom_bond_type
C0 C1 1.560 . S
C0 H61 0.959 . S
C0 H62 0.959 . S
C0 H63 0.960 . S
C1 C0 1.560 . S
C1 O56 1.426 . S
C1 H60 0.980 . S
C2 C3 1.407 . S
C2 C7 1.418 . S
C2 O56 1.334 . S
C3 C2 1.407 . S
C3 C4 1.360 . S
C3 H64 0.929 . S
C4 C3 1.360 . S
C4 C5 1.401 . S
C4 C8 1.527 . S
C5 C4 1.401 . S
C5 C6 1.405 . S
C5 C38 1.587 . S
C6 C5 1.405 . S
C6 C7 1.332 . S
C6 C9 1.496 . S
C7 C2 1.418 . S
C7 C6 1.332 . S
C7 H65 0.929 . S
C8 C4 1.527 . S
C8 H66 0.959 . S
C8 H67 0.961 . S
C8 H68 0.961 . S
C9 C6 1.496 . S
C9 H69 0.960 . S
C9 H70 0.960 . S
C9 H71 0.961 . S
C10 C11 1.517 . S
C10 H73 0.961 . S
C10 H74 0.960 . S
C10 H75 0.959 . S
C11 C10 1.517 . S
C11 O59 1.468 . S
C11 H72 0.980 . S
C12 C13 1.349 . S
C12 C17 1.367 . S
C12 O59 1.408 . S
C13 C12 1.349 . S
C13 C14 1.407 . S
C13 H76 0.930 . S
C14 C13 1.407 . S
C14 C15 1.449 . S
C14 C18 1.531 . S
C15 C14 1.449 . S
C15 C16 1.384 . S
C15 C40 1.553 1_655 S
C16 C15 1.384 . S
C16 C17 1.364 . S
C16 C19 1.480 . S
C17 C12 1.367 . S
C17 C16 1.364 . S
C17 H77 0.931 . S
C18 C14 1.531 . S
C18 H78 0.947 1_655 S
C18 H79 0.960 1_655 S
C18 H80 0.977 . S
C19 C16 1.480 . S
C19 H81 0.950 . S
C19 H82 0.924 1_655 S
C19 H83 0.979 . S
C20 C21 1.309 . S
C20 C25 1.304 . S
C20 O58 1.435 . S
C21 C20 1.309 . S
C21 C22 1.476 . S
C21 H85 0.930 . S
C22 C21 1.476 . S
C22 C23 1.400 . S
C22 C26 1.567 . S
C23 C22 1.400 . S
C23 C24 1.373 . S
C23 C45 1.432 . S
C24 C23 1.373 . S
C24 C25 1.339 . S
C24 C27 1.530 . S
C25 C20 1.304 . S
C25 C24 1.339 . S
C25 H86 0.930 . S
C26 C22 1.567 . S
C26 H87 0.961 . S
C26 H88 0.960 . S
C26 H89 0.958 . S
C27 C24 1.530 . S
C27 H90 0.961 . S
C27 H91 0.960 . S
C27 H92 0.960 . S
C28 C29 1.530 . S
C28 H94 0.961 . S
C28 H95 0.961 . S
C28 H96 0.959 . S
C29 C28 1.530 . S
C29 O57 1.412 . S
C29 H93 0.980 . S
C30 C31 1.288 . S
C30 C35 1.377 . S
C30 O57 1.393 . S
C31 C30 1.288 . S
C31 C32 1.369 . S
C31 H97 0.932 . S
C32 C31 1.369 . S
C32 C33 1.398 . S
C32 C36 1.527 . S
C33 C32 1.398 . S
C33 C34 1.380 . S
C33 C47 1.497 . S
C34 C33 1.380 . S
C34 C35 1.383 . S
C34 C37 1.603 . S
C35 C30 1.377 . S
C35 C34 1.383 . S
C35 H98 0.929 . S
C36 C32 1.527 . S
C36 H99 0.961 . S
C36 H100 0.959 . S
C36 H101 0.959 . S
C37 C34 1.603 . S
C37 H102 0.960 . S
C37 H103 0.962 . S
C37 H104 0.961 . S
C38 C5 1.587 . S
C38 C39 1.360 . S
C38 C51 1.412 . S
C39 C38 1.360 . S
C39 C40 1.365 . S
C39 H105 0.929 . S
C40 C15 1.553 1_455 S
C40 C39 1.365 . S
C40 C41 1.404 . S
C41 C40 1.404 . S
C41 C42 1.395 1_455 S
C41 C52 1.451 . S
C42 C41 1.395 1_655 S
C42 C43 1.322 . S
C42 H106 0.930 . S
C43 C42 1.322 . S
C43 C44 1.459 . S
C43 H107 0.929 . S
C44 C43 1.459 . S
C44 C45 1.445 . S
C44 C53 1.395 1_655 S
C45 C23 1.432 . S
C45 C44 1.445 . S
C45 C46 1.370 . S
C46 C45 1.370 . S
C46 C47 1.438 1_655 S
C46 H108 0.930 . S
C47 C33 1.497 . S
C47 C46 1.438 1_455 S
C47 C48 1.360 . S
C48 C47 1.360 . S
C48 C49 1.401 . S
C48 C53 1.446 . S
C49 C48 1.401 . S
C49 C50 1.347 . S
C49 H109 0.929 . S
C50 C49 1.347 . S
C50 C51 1.455 . S
C50 H110 0.930 . S
C51 C38 1.412 . S
C51 C50 1.455 . S
C51 C52 1.331 . S
C52 C41 1.451 . S
C52 C51 1.331 . S
C52 C53 1.497 . S
C53 C44 1.395 1_455 S
C53 C48 1.446 . S
C53 C52 1.497 . S
C54 C55 1.582 . S
C54 H111 0.962 . S
C54 H112 0.959 . S
C54 H113 0.958 . S
C55 C54 1.582 . S
C55 O58 1.458 . S
C55 H84 0.980 . S
O56 C1 1.426 . S
O56 C2 1.334 . S
O57 C29 1.412 . S
O57 C30 1.393 . S
O58 C20 1.435 . S
O58 C55 1.458 . S
O59 C11 1.468 . S
O59 C12 1.408 . S
H60 C1 0.980 . S
H61 C0 0.959 . S
H62 C0 0.959 . S
H63 C0 0.960 . S
H64 C3 0.929 . S
H65 C7 0.929 . S
H66 C8 0.959 . S
H67 C8 0.961 . S
H68 C8 0.961 . S
H69 C9 0.960 . S
H70 C9 0.960 . S
H71 C9 0.961 . S
H72 C11 0.980 . S
H73 C10 0.961 . S
H74 C10 0.960 . S
H75 C10 0.959 . S
H76 C13 0.930 . S
H77 C17 0.931 . S
H78 C18 0.947 1_455 S
H79 C18 0.960 1_455 S
H80 C18 0.977 . S
H81 C19 0.950 . S
H82 C19 0.924 1_455 S
H83 C19 0.979 . S
H84 C55 0.980 . S
H85 C21 0.930 . S
H86 C25 0.930 . S
H87 C26 0.961 . S
H88 C26 0.960 . S
H89 C26 0.958 . S
H90 C27 0.961 . S
H91 C27 0.960 . S
H92 C27 0.960 . S
H93 C29 0.980 . S
H94 C28 0.961 . S
H95 C28 0.961 . S
H96 C28 0.959 . S
H97 C31 0.932 . S
H98 C35 0.929 . S
H99 C36 0.961 . S
H100 C36 0.959 . S
H101 C36 0.959 . S
H102 C37 0.960 . S
H103 C37 0.962 . S
H104 C37 0.961 . S
H105 C39 0.929 . S
H106 C42 0.930 . S
H107 C43 0.929 . S
H108 C46 0.930 . S
H109 C49 0.929 . S
H110 C50 0.930 . S
H111 C54 0.962 . S
H112 C54 0.959 . S
H113 C54 0.958 . S
C114 C115 1.560 . S
C114 H175 0.959 . S
C114 H176 0.959 . S
C114 H177 0.960 . S
C115 C114 1.560 . S
C115 O170 1.426 . S
C115 H174 0.980 . S
C116 C117 1.407 . S
C116 C121 1.418 . S
C116 O170 1.334 . S
C117 C116 1.407 . S
C117 C118 1.360 . S
C117 H178 0.929 . S
C118 C117 1.360 . S
C118 C119 1.401 . S
C118 C122 1.527 . S
C119 C118 1.401 . S
C119 C120 1.405 . S
C119 C152 1.587 . S
C120 C119 1.405 . S
C120 C121 1.332 . S
C120 C123 1.496 . S
C121 C116 1.418 . S
C121 C120 1.332 . S
C121 H179 0.929 . S
C122 C118 1.527 . S
C122 H180 0.959 . S
C122 H181 0.961 . S
C122 H182 0.961 . S
C123 C120 1.496 . S
C123 H183 0.960 . S
C123 H184 0.960 . S
C123 H185 0.961 . S
C124 C125 1.517 . S
C124 H187 0.961 . S
C124 H188 0.960 . S
C124 H189 0.959 . S
C125 C124 1.517 . S
C125 O173 1.468 . S
C125 H186 0.980 . S
C126 C127 1.349 . S
C126 C131 1.367 . S
C126 O173 1.408 . S
C127 C126 1.349 . S
C127 C128 1.407 . S
C127 H190 0.930 . S
C128 C127 1.407 . S
C128 C129 1.449 . S
C128 C132 1.535 . S
C129 C128 1.449 . S
C129 C130 1.384 . S
C129 C154 1.553 . S
C130 C129 1.384 . S
C130 C131 1.364 . S
C130 C133 1.450 . S
C131 C126 1.367 . S
C131 C130 1.364 . S
C131 H191 0.931 . S
C132 C128 1.535 . S
C132 H192 0.959 . S
C132 H193 0.961 . S
C132 H194 0.959 . S
C133 C130 1.450 . S
C133 H195 0.960 . S
C133 H196 0.960 . S
C133 H197 0.960 . S
C134 C135 1.309 . S
C134 C139 1.304 . S
C134 O172 1.435 . S
C135 C134 1.309 . S
C135 C136 1.476 . S
C135 H199 0.930 . S
C136 C135 1.476 . S
C136 C137 1.400 . S
C136 C140 1.567 . S
C137 C136 1.400 . S
C137 C138 1.373 . S
C137 C159 1.432 . S
C138 C137 1.373 . S
C138 C139 1.339 . S
C138 C141 1.530 . S
C139 C134 1.304 . S
C139 C138 1.339 . S
C139 H200 0.930 . S
C140 C136 1.567 . S
C140 H201 0.961 . S
C140 H202 0.960 . S
C140 H203 0.958 . S
C141 C138 1.530 . S
C141 H204 0.961 . S
C141 H205 0.960 . S
C141 H206 0.960 . S
C142 C143 1.530 . S
C142 H208 0.961 . S
C142 H209 0.961 . S
C142 H210 0.959 . S
C143 C142 1.530 . S
C143 O171 1.412 . S
C143 H207 0.980 . S
C144 C145 1.288 . S
C144 C149 1.377 . S
C144 O171 1.393 . S
C145 C144 1.288 . S
C145 C146 1.369 . S
C145 H211 0.932 . S
C146 C145 1.369 . S
C146 C147 1.398 . S
C146 C150 1.527 1_565 S
C147 C146 1.398 . S
C147 C148 1.380 . S
C147 C161 1.497 1_565 S
C148 C147 1.380 . S
C148 C149 1.383 . S
C148 C151 1.603 . S
C149 C144 1.377 . S
C149 C148 1.383 . S
C149 H212 0.929 . S
C150 C146 1.527 1_545 S
C150 H213 0.961 . S
C150 H214 0.959 . S
C150 H215 0.959 1_545 S
C151 C148 1.603 . S
C151 H216 0.960 . S
C151 H217 0.962 . S
C151 H218 0.961 . S
C152 C119 1.587 . S
C152 C153 1.360 . S
C152 C165 1.412 . S
C153 C152 1.360 . S
C153 C154 1.365 1_565 S
C153 H219 0.929 . S
C154 C129 1.553 . S
C154 C153 1.365 1_545 S
C154 C155 1.404 . S
C155 C154 1.404 . S
C155 C156 1.395 . S
C155 C166 1.451 . S
C156 C155 1.395 . S
C156 C157 1.322 . S
C156 H220 0.930 . S
C157 C156 1.322 . S
C157 C158 1.459 . S
C157 H221 0.929 . S
C158 C157 1.459 . S
C158 C159 1.445 . S
C158 C167 1.395 . S
C159 C137 1.432 . S
C159 C158 1.445 . S
C159 C160 1.370 . S
C160 C159 1.370 . S
C160 C161 1.438 . S
C160 H222 0.930 . S
C161 C147 1.497 1_545 S
C161 C160 1.438 . S
C161 C162 1.360 1_545 S
C162 C161 1.360 1_565 S
C162 C163 1.401 . S
C162 C167 1.446 1_565 S
C163 C162 1.401 . S
C163 C164 1.347 . S
C163 H223 0.929 . S
C164 C163 1.347 . S
C164 C165 1.455 . S
C164 H224 0.930 . S
C165 C152 1.412 . S
C165 C164 1.455 . S
C165 C166 1.331 1_565 S
C166 C155 1.451 . S
C166 C165 1.331 1_545 S
C166 C167 1.497 . S
C167 C158 1.395 . S
C167 C162 1.446 1_545 S
C167 C166 1.497 . S
C168 C169 1.582 . S
C168 H225 0.962 . S
C168 H226 0.959 . S
C168 H227 0.958 . S
C169 C168 1.582 . S
C169 O172 1.458 . S
C169 H198 0.980 . S
O170 C115 1.426 . S
O170 C116 1.334 . S
O171 C143 1.412 . S
O171 C144 1.393 . S
O172 C134 1.435 . S
O172 C169 1.458 . S
O173 C125 1.468 . S
O173 C126 1.408 . S
H174 C115 0.980 . S
H175 C114 0.959 . S
H176 C114 0.959 . S
H177 C114 0.960 . S
H178 C117 0.929 . S
H179 C121 0.929 . S
H180 C122 0.959 . S
H181 C122 0.961 . S
H182 C122 0.961 . S
H183 C123 0.960 . S
H184 C123 0.960 . S
H185 C123 0.961 . S
H186 C125 0.980 . S
H187 C124 0.961 . S
H188 C124 0.960 . S
H189 C124 0.959 . S
H190 C127 0.930 . S
H191 C131 0.931 . S
H192 C132 0.959 . S
H193 C132 0.961 . S
H194 C132 0.959 . S
H195 C133 0.960 . S
H196 C133 0.960 . S
H197 C133 0.960 . S
H198 C169 0.980 . S
H199 C135 0.930 . S
H200 C139 0.930 . S
H201 C140 0.961 . S
H202 C140 0.960 . S
H203 C140 0.958 . S
H204 C141 0.961 . S
H205 C141 0.960 . S
H206 C141 0.960 . S
H207 C143 0.980 . S
H208 C142 0.961 . S
H209 C142 0.961 . S
H210 C142 0.959 . S
H211 C145 0.932 . S
H212 C149 0.929 . S
H213 C150 0.961 . S
H214 C150 0.959 . S
H215 C150 0.959 1_565 S
H216 C151 0.960 . S
H217 C151 0.962 . S
H218 C151 0.961 . S
H219 C153 0.929 . S
H220 C156 0.930 . S
H221 C157 0.929 . S
H222 C160 0.930 . S
H223 C163 0.929 . S
H224 C164 0.930 . S
H225 C168 0.962 . S
H226 C168 0.959 . S
H227 C168 0.958 . S
C228 C229 1.560 . S
C228 H289 0.959 . S
C228 H290 0.959 . S
C228 H291 0.960 . S
C229 C228 1.560 . S
C229 O284 1.426 . S
C229 H288 0.980 . S
C230 C231 1.407 . S
C230 C235 1.418 . S
C230 O284 1.334 . S
C231 C230 1.407 . S
C231 C232 1.360 . S
C231 H292 0.929 . S
C232 C231 1.360 . S
C232 C233 1.401 . S
C232 C236 1.527 . S
C233 C232 1.401 . S
C233 C234 1.405 . S
C233 C266 1.587 . S
C234 C233 1.405 . S
C234 C235 1.332 . S
C234 C237 1.496 . S
C235 C230 1.418 . S
C235 C234 1.332 . S
C235 H293 0.929 . S
C236 C232 1.527 . S
C236 H294 0.959 . S
C236 H295 0.961 . S
C236 H296 0.961 . S
C237 C234 1.496 . S
C237 H297 0.960 . S
C237 H298 0.960 . S
C237 H299 0.961 . S
C238 C239 1.517 . S
C238 H301 0.961 . S
C238 H302 0.960 . S
C238 H303 0.959 . S
C239 C238 1.517 . S
C239 O287 1.468 . S
C239 H300 0.980 . S
C240 C241 1.349 . S
C240 C245 1.367 . S
C240 O287 1.408 . S
C241 C240 1.349 . S
C241 C242 1.407 . S
C241 H304 0.930 . S
C242 C241 1.407 . S
C242 C243 1.449 . S
C242 C246 1.535 . S
C243 C242 1.449 . S
C243 C244 1.384 . S
C243 C268 1.553 . S
C244 C243 1.384 . S
C244 C245 1.364 . S
C244 C247 1.450 . S
C245 C240 1.367 . S
C245 C244 1.364 . S
C245 H305 0.931 . S
C246 C242 1.535 . S
C246 H306 0.959 . S
C246 H307 0.961 . S
C246 H308 0.959 . S
C247 C244 1.450 . S
C247 H309 0.960 . S
C247 H310 0.960 . S
C247 H311 0.960 . S
C248 C249 1.309 . S
C248 C253 1.304 . S
C248 O286 1.435 . S
C249 C248 1.309 . S
C249 C250 1.476 . S
C249 H313 0.930 . S
C250 C249 1.476 . S
C250 C251 1.400 . S
C250 C254 1.567 . S
C251 C250 1.400 . S
C251 C252 1.373 . S
C251 C273 1.432 . S
C252 C251 1.373 . S
C252 C253 1.339 . S
C252 C255 1.530 . S
C253 C248 1.304 . S
C253 C252 1.339 . S
C253 H314 0.930 . S
C254 C250 1.567 . S
C254 H315 0.961 . S
C254 H316 0.960 . S
C254 H317 0.958 . S
C255 C252 1.530 . S
C255 H318 0.961 . S
C255 H319 0.960 . S
C255 H320 0.960 . S
C256 C257 1.530 . S
C256 H322 0.961 . S
C256 H323 0.961 . S
C256 H324 0.959 . S
C257 C256 1.530 . S
C257 O285 1.412 . S
C257 H321 0.980 . S
C258 C259 1.288 . S
C258 C263 1.377 . S
C258 O285 1.393 . S
C259 C258 1.288 . S
C259 C260 1.369 . S
C259 H325 0.932 . S
C260 C259 1.369 . S
C260 C261 1.398 . S
C260 C264 1.527 . S
C261 C260 1.398 . S
C261 C262 1.380 . S
C261 C275 1.497 . S
C262 C261 1.380 . S
C262 C263 1.383 . S
C262 C265 1.603 . S
C263 C258 1.377 . S
C263 C262 1.383 . S
C263 H326 0.929 . S
C264 C260 1.527 . S
C264 H327 0.961 . S
C264 H328 0.959 . S
C264 H329 0.959 . S
C265 C262 1.603 . S
C265 H330 0.960 . S
C265 H331 0.962 . S
C265 H332 0.961 . S
C266 C233 1.587 . S
C266 C267 1.360 . S
C266 C279 1.412 . S
C267 C266 1.360 . S
C267 C268 1.365 . S
C267 H333 0.929 . S
C268 C243 1.553 . S
C268 C267 1.365 . S
C268 C269 1.404 . S
C269 C268 1.404 . S
C269 C270 1.395 . S
C269 C280 1.451 . S
C270 C269 1.395 . S
C270 C271 1.322 . S
C270 H334 0.930 . S
C271 C270 1.322 . S
C271 C272 1.459 . S
C271 H335 0.929 . S
C272 C271 1.459 . S
C272 C273 1.445 . S
C272 C281 1.395 . S
C273 C251 1.432 . S
C273 C272 1.445 . S
C273 C274 1.370 . S
C274 C273 1.370 . S
C274 C275 1.438 . S
C274 H336 0.930 . S
C275 C261 1.497 . S
C275 C274 1.438 . S
C275 C276 1.360 . S
C276 C275 1.360 . S
C276 C277 1.401 . S
C276 C281 1.446 . S
C277 C276 1.401 . S
C277 C278 1.347 . S
C277 H337 0.929 . S
C278 C277 1.347 . S
C278 C279 1.455 . S
C278 H338 0.930 . S
C279 C266 1.412 . S
C279 C278 1.455 . S
C279 C280 1.331 . S
C280 C269 1.451 . S
C280 C279 1.331 . S
C280 C281 1.497 . S
C281 C272 1.395 . S
C281 C276 1.446 . S
C281 C280 1.497 . S
C282 C283 1.582 . S
C282 H339 0.962 . S
C282 H340 0.959 . S
C282 H341 0.958 . S
C283 C282 1.582 . S
C283 O286 1.458 . S
C283 H312 0.980 . S
O284 C229 1.426 . S
O284 C230 1.334 . S
O285 C257 1.412 . S
O285 C258 1.393 . S
O286 C248 1.435 . S
O286 C283 1.458 . S
O287 C239 1.468 . S
O287 C240 1.408 . S
H288 C229 0.980 . S
H289 C228 0.959 . S
H290 C228 0.959 . S
H291 C228 0.960 . S
H292 C231 0.929 . S
H293 C235 0.929 . S
H294 C236 0.959 . S
H295 C236 0.961 . S
H296 C236 0.961 . S
H297 C237 0.960 . S
H298 C237 0.960 . S
H299 C237 0.961 . S
H300 C239 0.980 . S
H301 C238 0.961 . S
H302 C238 0.960 . S
H303 C238 0.959 . S
H304 C241 0.930 . S
H305 C245 0.931 . S
H306 C246 0.959 . S
H307 C246 0.961 . S
H308 C246 0.959 . S
H309 C247 0.960 . S
H310 C247 0.960 . S
H311 C247 0.960 . S
H312 C283 0.980 . S
H313 C249 0.930 . S
H314 C253 0.930 . S
H315 C254 0.961 . S
H316 C254 0.960 . S
H317 C254 0.958 . S
H318 C255 0.961 . S
H319 C255 0.960 . S
H320 C255 0.960 . S
H321 C257 0.980 . S
H322 C256 0.961 . S
H323 C256 0.961 . S
H324 C256 0.959 . S
H325 C259 0.932 . S
H326 C263 0.929 . S
H327 C264 0.961 . S
H328 C264 0.959 . S
H329 C264 0.959 . S
H330 C265 0.960 . S
H331 C265 0.962 . S
H332 C265 0.961 . S
H333 C267 0.929 . S
H334 C270 0.930 . S
H335 C271 0.929 . S
H336 C274 0.930 . S
H337 C277 0.929 . S
H338 C278 0.930 . S
H339 C282 0.962 . S
H340 C282 0.959 . S
H341 C282 0.958 . S
C342 C343 1.560 . S
C342 H403 0.959 . S
C342 H404 0.959 . S
C342 H405 0.960 . S
C343 C342 1.560 . S
C343 O398 1.426 . S
C343 H402 0.980 . S
C344 C345 1.407 . S
C344 C349 1.418 . S
C344 O398 1.334 . S
C345 C344 1.407 . S
C345 C346 1.360 . S
C345 H406 0.929 . S
C346 C345 1.360 . S
C346 C347 1.401 . S
C346 C350 1.527 . S
C347 C346 1.401 . S
C347 C348 1.405 . S
C347 C380 1.587 . S
C348 C347 1.405 . S
C348 C349 1.332 . S
C348 C351 1.496 . S
C349 C344 1.418 . S
C349 C348 1.332 . S
C349 H407 0.929 . S
C350 C346 1.527 . S
C350 H408 0.959 . S
C350 H409 0.961 . S
C350 H410 0.961 . S
C351 C348 1.496 . S
C351 H411 0.960 . S
C351 H412 0.960 . S
C351 H413 0.961 . S
C352 C353 1.517 . S
C352 H415 0.961 . S
C352 H416 0.960 . S
C352 H417 0.959 . S
C353 C352 1.517 . S
C353 O401 1.468 . S
C353 H414 0.980 . S
C354 C355 1.349 . S
C354 C359 1.367 . S
C354 O401 1.408 . S
C355 C354 1.349 . S
C355 C356 1.407 . S
C355 H418 0.930 . S
C356 C355 1.407 . S
C356 C357 1.449 . S
C356 C360 1.535 . S
C357 C356 1.449 . S
C357 C358 1.384 . S
C357 C382 1.553 1_655 S
C358 C357 1.384 . S
C358 C359 1.364 . S
C358 C361 1.450 . S
C359 C354 1.367 . S
C359 C358 1.364 . S
C359 H419 0.931 . S
C360 C356 1.535 . S
C360 H420 0.959 1_655 S
C360 H421 0.961 1_655 S
C360 H422 0.959 . S
C361 C358 1.450 . S
C361 H423 0.960 . S
C361 H424 0.960 1_655 S
C361 H425 0.960 . S
C362 C363 1.309 . S
C362 C367 1.304 . S
C362 O400 1.435 . S
C363 C362 1.309 . S
C363 C364 1.476 . S
C363 H427 0.930 . S
C364 C363 1.476 . S
C364 C365 1.400 . S
C364 C368 1.567 . S
C365 C364 1.400 . S
C365 C366 1.373 . S
C365 C387 1.432 . S
C366 C365 1.373 . S
C366 C367 1.339 . S
C366 C369 1.530 . S
C367 C362 1.304 . S
C367 C366 1.339 . S
C367 H428 0.930 . S
C368 C364 1.567 . S
C368 H429 0.961 . S
C368 H430 0.960 . S
C368 H431 0.958 . S
C369 C366 1.530 . S
C369 H432 0.961 . S
C369 H433 0.960 . S
C369 H434 0.960 . S
C370 C371 1.530 . S
C370 H436 0.961 . S
C370 H437 0.961 . S
C370 H438 0.959 . S
C371 C370 1.530 . S
C371 O399 1.412 . S
C371 H435 0.980 . S
C372 C373 1.288 . S
C372 C377 1.377 . S
C372 O399 1.393 . S
C373 C372 1.288 . S
C373 C374 1.369 . S
C373 H439 0.932 . S
C374 C373 1.369 . S
C374 C375 1.398 . S
C374 C378 1.527 . S
C375 C374 1.398 . S
C375 C376 1.380 . S
C375 C389 1.497 . S
C376 C375 1.380 . S
C376 C377 1.383 . S
C376 C379 1.603 . S
C377 C372 1.377 . S
C377 C376 1.383 . S
C377 H440 0.929 . S
C378 C374 1.527 . S
C378 H441 0.961 . S
C378 H442 0.959 . S
C378 H443 0.959 . S
C379 C376 1.603 . S
C379 H444 0.960 . S
C379 H445 0.962 . S
C379 H446 0.961 . S
C380 C347 1.587 . S
C380 C381 1.360 . S
C380 C393 1.412 . S
C381 C380 1.360 . S
C381 C382 1.365 . S
C381 H447 0.929 . S
C382 C357 1.553 1_455 S
C382 C381 1.365 . S
C382 C383 1.404 . S
C383 C382 1.404 . S
C383 C384 1.395 1_455 S
C383 C394 1.451 . S
C384 C383 1.395 1_655 S
C384 C385 1.322 . S
C384 H448 0.930 . S
C385 C384 1.322 . S
C385 C386 1.459 . S
C385 H449 0.929 . S
C386 C385 1.459 . S
C386 C387 1.445 . S
C386 C395 1.395 1_655 S
C387 C365 1.432 . S
C387 C386 1.445 . S
C387 C388 1.370 . S
C388 C387 1.370 . S
C388 C389 1.438 1_655 S
C388 H450 0.930 . S
C389 C375 1.497 . S
C389 C388 1.438 1_455 S
C389 C390 1.360 . S
C390 C389 1.360 . S
C390 C391 1.401 . S
C390 C395 1.446 . S
C391 C390 1.401 . S
C391 C392 1.347 . S
C391 H451 0.929 . S
C392 C391 1.347 . S
C392 C393 1.455 . S
C392 H452 0.930 . S
C393 C380 1.412 . S
C393 C392 1.455 . S
C393 C394 1.331 . S
C394 C383 1.451 . S
C394 C393 1.331 . S
C394 C395 1.497 . S
C395 C386 1.395 1_455 S
C395 C390 1.446 . S
C395 C394 1.497 . S
C396 C397 1.582 . S
C396 H453 0.962 . S
C396 H454 0.959 . S
C396 H455 0.958 . S
C397 C396 1.582 . S
C397 O400 1.458 . S
C397 H426 0.980 . S
O398 C343 1.426 . S
O398 C344 1.334 . S
O399 C371 1.412 . S
O399 C372 1.393 . S
O400 C362 1.435 . S
O400 C397 1.458 . S
O401 C353 1.468 . S
O401 C354 1.408 . S
H402 C343 0.980 . S
H403 C342 0.959 . S
H404 C342 0.959 . S
H405 C342 0.960 . S
H406 C345 0.929 . S
H407 C349 0.929 . S
H408 C350 0.959 . S
H409 C350 0.961 . S
H410 C350 0.961 . S
H411 C351 0.960 . S
H412 C351 0.960 . S
H413 C351 0.961 . S
H414 C353 0.980 . S
H415 C352 0.961 . S
H416 C352 0.960 . S
H417 C352 0.959 . S
H418 C355 0.930 . S
H419 C359 0.931 . S
H420 C360 0.959 1_455 S
H421 C360 0.961 1_455 S
H422 C360 0.959 . S
H423 C361 0.960 . S
H424 C361 0.960 1_455 S
H425 C361 0.960 . S
H426 C397 0.980 . S
H427 C363 0.930 . S
H428 C367 0.930 . S
H429 C368 0.961 . S
H430 C368 0.960 . S
H431 C368 0.958 . S
H432 C369 0.961 . S
H433 C369 0.960 . S
H434 C369 0.960 . S
H435 C371 0.980 . S
H436 C370 0.961 . S
H437 C370 0.961 . S
H438 C370 0.959 . S
H439 C373 0.932 . S
H440 C377 0.929 . S
H441 C378 0.961 . S
H442 C378 0.959 . S
H443 C378 0.959 . S
H444 C379 0.960 . S
H445 C379 0.962 . S
H446 C379 0.961 . S
H447 C381 0.929 . S
H448 C384 0.930 . S
H449 C385 0.929 . S
H450 C388 0.930 . S
H451 C391 0.929 . S
H452 C392 0.930 . S
H453 C396 0.962 . S
H454 C396 0.959 . S
H455 C396 0.958 . S
C456 C457 1.560 . S
C456 H517 0.959 . S
C456 H518 0.959 . S
C456 H519 0.960 . S
C457 C456 1.560 . S
C457 O512 1.426 . S
C457 H516 0.980 . S
C458 C459 1.407 . S
C458 C463 1.418 . S
C458 O512 1.334 . S
C459 C458 1.407 . S
C459 C460 1.360 . S
C459 H520 0.929 . S
C460 C459 1.360 . S
C460 C461 1.401 . S
C460 C464 1.527 . S
C461 C460 1.401 . S
C461 C462 1.405 . S
C461 C494 1.587 . S
C462 C461 1.405 . S
C462 C463 1.332 . S
C462 C465 1.496 . S
C463 C458 1.418 . S
C463 C462 1.332 . S
C463 H521 0.929 . S
C464 C460 1.527 . S
C464 H522 0.959 . S
C464 H523 0.961 . S
C464 H524 0.961 . S
C465 C462 1.496 . S
C465 H525 0.960 . S
C465 H526 0.960 . S
C465 H527 0.961 . S
C466 C467 1.517 . S
C466 H529 0.961 . S
C466 H530 0.960 . S
C466 H531 0.959 . S
C467 C466 1.517 . S
C467 O515 1.468 . S
C467 H528 0.980 . S
C468 C469 1.349 . S
C468 C473 1.367 . S
C468 O515 1.408 . S
C469 C468 1.349 . S
C469 C470 1.407 . S
C469 H532 0.930 . S
C470 C469 1.407 . S
C470 C471 1.449 . S
C470 C474 1.535 . S
C471 C470 1.449 . S
C471 C472 1.384 . S
C471 C496 1.553 . S
C472 C471 1.384 . S
C472 C473 1.364 . S
C472 C475 1.450 . S
C473 C468 1.367 . S
C473 C472 1.364 . S
C473 H533 0.931 . S
C474 C470 1.535 . S
C474 H534 0.959 . S
C474 H535 0.961 . S
C474 H536 0.959 . S
C475 C472 1.450 . S
C475 H537 0.960 . S
C475 H538 0.960 . S
C475 H539 0.960 . S
C476 C477 1.309 . S
C476 C481 1.304 . S
C476 O514 1.435 . S
C477 C476 1.309 . S
C477 C478 1.476 . S
C477 H541 0.930 . S
C478 C477 1.476 . S
C478 C479 1.400 . S
C478 C482 1.567 . S
C479 C478 1.400 . S
C479 C480 1.373 . S
C479 C501 1.432 . S
C480 C479 1.373 . S
C480 C481 1.339 . S
C480 C483 1.530 . S
C481 C476 1.304 . S
C481 C480 1.339 . S
C481 H542 0.930 . S
C482 C478 1.567 . S
C482 H543 0.961 . S
C482 H544 0.960 . S
C482 H545 0.958 . S
C483 C480 1.530 . S
C483 H546 0.961 . S
C483 H547 0.960 . S
C483 H548 0.960 . S
C484 C485 1.530 . S
C484 H550 0.961 . S
C484 H551 0.961 . S
C484 H552 0.959 . S
C485 C484 1.530 . S
C485 O513 1.412 . S
C485 H549 0.980 . S
C486 C487 1.288 . S
C486 C491 1.377 . S
C486 O513 1.393 . S
C487 C486 1.288 . S
C487 C488 1.369 . S
C487 H553 0.932 . S
C488 C487 1.369 . S
C488 C489 1.398 . S
C488 C492 1.527 1_565 S
C489 C488 1.398 . S
C489 C490 1.380 . S
C489 C503 1.497 1_565 S
C490 C489 1.380 . S
C490 C491 1.383 . S
C490 C493 1.603 . S
C491 C486 1.377 . S
C491 C490 1.383 . S
C491 H554 0.929 . S
C492 C488 1.527 1_545 S
C492 H555 0.961 . S
C492 H556 0.959 . S
C492 H557 0.959 1_545 S
C493 C490 1.603 . S
C493 H558 0.960 . S
C493 H559 0.962 . S
C493 H560 0.961 . S
C494 C461 1.587 . S
C494 C495 1.360 . S
C494 C507 1.412 . S
C495 C494 1.360 . S
C495 C496 1.365 1_565 S
C495 H561 0.929 . S
C496 C471 1.553 . S
C496 C495 1.365 1_545 S
C496 C497 1.404 . S
C497 C496 1.404 . S
C497 C498 1.395 . S
C497 C508 1.451 . S
C498 C497 1.395 . S
C498 C499 1.322 . S
C498 H562 0.930 . S
C499 C498 1.322 . S
C499 C500 1.459 1_556 S
C499 H563 0.929 . S
C500 C499 1.459 1_554 S
C500 C501 1.445 . S
C500 C509 1.395 . S
C501 C479 1.432 . S
C501 C500 1.445 . S
C501 C502 1.370 . S
C502 C501 1.370 . S
C502 C503 1.438 . S
C502 H564 0.930 . S
C503 C489 1.497 1_545 S
C503 C502 1.438 . S
C503 C504 1.360 1_545 S
C504 C503 1.360 1_565 S
C504 C505 1.401 . S
C504 C509 1.446 1_565 S
C505 C504 1.401 . S
C505 C506 1.347 1_554 S
C505 H565 0.929 . S
C506 C505 1.347 1_556 S
C506 C507 1.455 . S
C506 H566 0.930 . S
C507 C494 1.412 . S
C507 C506 1.455 . S
C507 C508 1.331 1_565 S
C508 C497 1.451 . S
C508 C507 1.331 1_545 S
C508 C509 1.497 1_556 S
C509 C500 1.395 . S
C509 C504 1.446 1_545 S
C509 C508 1.497 1_554 S
C510 C511 1.582 . S
C510 H567 0.962 . S
C510 H568 0.959 . S
C510 H569 0.958 . S
C511 C510 1.582 . S
C511 O514 1.458 . S
C511 H540 0.980 . S
O512 C457 1.426 . S
O512 C458 1.334 . S
O513 C485 1.412 . S
O513 C486 1.393 . S
O514 C476 1.435 . S
O514 C511 1.458 . S
O515 C467 1.468 . S
O515 C468 1.408 . S
H516 C457 0.980 . S
H517 C456 0.959 . S
H518 C456 0.959 . S
H519 C456 0.960 . S
H520 C459 0.929 . S
H521 C463 0.929 . S
H522 C464 0.959 . S
H523 C464 0.961 . S
H524 C464 0.961 . S
H525 C465 0.960 . S
H526 C465 0.960 . S
H527 C465 0.961 . S
H528 C467 0.980 . S
H529 C466 0.961 . S
H530 C466 0.960 . S
H531 C466 0.959 . S
H532 C469 0.930 . S
H533 C473 0.931 . S
H534 C474 0.959 . S
H535 C474 0.961 . S
H536 C474 0.959 . S
H537 C475 0.960 . S
H538 C475 0.960 . S
H539 C475 0.960 . S
H540 C511 0.980 . S
H541 C477 0.930 . S
H542 C481 0.930 . S
H543 C482 0.961 . S
H544 C482 0.960 . S
H545 C482 0.958 . S
H546 C483 0.961 . S
H547 C483 0.960 . S
H548 C483 0.960 . S
H549 C485 0.980 . S
H550 C484 0.961 . S
H551 C484 0.961 . S
H552 C484 0.959 . S
H553 C487 0.932 . S
H554 C491 0.929 . S
H555 C492 0.961 . S
H556 C492 0.959 . S
H557 C492 0.959 1_565 S
H558 C493 0.960 . S
H559 C493 0.962 . S
H560 C493 0.961 . S
H561 C495 0.929 . S
H562 C498 0.930 . S
H563 C499 0.929 . S
H564 C502 0.930 . S
H565 C505 0.929 . S
H566 C506 0.930 . S
H567 C510 0.962 . S
H568 C510 0.959 . S
H569 C510 0.958 . S
C570 C571 1.560 . S
C570 H631 0.959 . S
C570 H632 0.959 . S
C570 H633 0.960 . S
C571 C570 1.560 . S
C571 O626 1.426 . S
C571 H630 0.980 . S
C572 C573 1.407 . S
C572 C577 1.418 . S
C572 O626 1.334 . S
C573 C572 1.407 . S
C573 C574 1.360 . S
C573 H634 0.929 . S
C574 C573 1.360 . S
C574 C575 1.401 . S
C574 C578 1.527 . S
C575 C574 1.401 . S
C575 C576 1.405 . S
C575 C608 1.587 . S
C576 C575 1.405 . S
C576 C577 1.332 . S
C576 C579 1.496 . S
C577 C572 1.418 . S
C577 C576 1.332 . S
C577 H635 0.929 . S
C578 C574 1.527 . S
C578 H636 0.959 . S
C578 H637 0.961 . S
C578 H638 0.961 . S
C579 C576 1.496 . S
C579 H639 0.960 . S
C579 H640 0.960 . S
C579 H641 0.961 . S
C580 C581 1.517 . S
C580 H643 0.957 1_554 S
C580 H644 0.960 . S
C580 H645 0.959 . S
C581 C580 1.517 . S
C581 O629 1.468 . S
C581 H642 0.980 . S
C582 C583 1.349 . S
C582 C587 1.367 . S
C582 O629 1.408 . S
C583 C582 1.349 . S
C583 C584 1.407 . S
C583 H646 0.930 . S
C584 C583 1.407 . S
C584 C585 1.449 . S
C584 C588 1.535 . S
C585 C584 1.449 . S
C585 C586 1.384 . S
C585 C610 1.553 . S
C586 C585 1.384 . S
C586 C587 1.364 . S
C586 C589 1.450 . S
C587 C582 1.367 . S
C587 C586 1.364 . S
C587 H647 0.931 . S
C588 C584 1.535 . S
C588 H648 0.959 . S
C588 H649 0.961 . S
C588 H650 0.959 . S
C589 C586 1.450 . S
C589 H651 0.960 . S
C589 H652 0.960 . S
C589 H653 0.960 . S
C590 C591 1.309 . S
C590 C595 1.304 . S
C590 O628 1.435 . S
C591 C590 1.309 . S
C591 C592 1.476 . S
C591 H655 0.930 . S
C592 C591 1.476 . S
C592 C593 1.400 . S
C592 C596 1.567 . S
C593 C592 1.400 . S
C593 C594 1.373 . S
C593 C615 1.432 . S
C594 C593 1.373 . S
C594 C595 1.339 . S
C594 C597 1.530 . S
C595 C590 1.304 . S
C595 C594 1.339 . S
C595 H656 0.930 . S
C596 C592 1.567 . S
C596 H657 0.961 . S
C596 H658 0.960 . S
C596 H659 0.958 . S
C597 C594 1.530 . S
C597 H660 0.961 . S
C597 H661 0.960 . S
C597 H662 0.960 . S
C598 C599 1.530 . S
C598 H664 0.961 . S
C598 H665 0.961 . S
C598 H666 0.959 . S
C599 C598 1.530 . S
C599 O627 1.412 . S
C599 H663 0.980 . S
C600 C601 1.288 . S
C600 C605 1.377 . S
C600 O627 1.393 . S
C601 C600 1.288 . S
C601 C602 1.369 . S
C601 H667 0.932 . S
C602 C601 1.369 . S
C602 C603 1.398 . S
C602 C606 1.527 . S
C603 C602 1.398 . S
C603 C604 1.380 . S
C603 C617 1.497 . S
C604 C603 1.380 . S
C604 C605 1.383 . S
C604 C607 1.603 . S
C605 C600 1.377 . S
C605 C604 1.383 . S
C605 H668 0.929 . S
C606 C602 1.527 . S
C606 H669 0.961 . S
C606 H670 0.959 . S
C606 H671 0.959 . S
C607 C604 1.603 . S
C607 H672 0.960 . S
C607 H673 0.962 . S
C607 H674 0.961 . S
C608 C575 1.587 . S
C608 C609 1.360 . S
C608 C621 1.412 . S
C609 C608 1.360 . S
C609 C610 1.365 . S
C609 H675 0.929 . S
C610 C585 1.553 . S
C610 C609 1.365 . S
C610 C611 1.404 . S
C611 C610 1.404 . S
C611 C612 1.395 . S
C611 C622 1.451 . S
C612 C611 1.395 . S
C612 C613 1.322 . S
C612 H676 0.930 . S
C613 C612 1.322 . S
C613 C614 1.459 . S
C613 H677 0.929 . S
C614 C613 1.459 . S
C614 C615 1.445 . S
C614 C623 1.395 . S
C615 C593 1.432 . S
C615 C614 1.445 . S
C615 C616 1.370 . S
C616 C615 1.370 . S
C616 C617 1.438 . S
C616 H678 0.930 . S
C617 C603 1.497 . S
C617 C616 1.438 . S
C617 C618 1.360 . S
C618 C617 1.360 . S
C618 C619 1.401 . S
C618 C623 1.446 . S
C619 C618 1.401 . S
C619 C620 1.347 . S
C619 H679 0.929 . S
C620 C619 1.347 . S
C620 C621 1.455 . S
C620 H680 0.930 . S
C621 C608 1.412 . S
C621 C620 1.455 . S
C621 C622 1.331 . S
C622 C611 1.451 . S
C622 C621 1.331 . S
C622 C623 1.497 . S
C623 C614 1.395 . S
C623 C618 1.446 . S
C623 C622 1.497 . S
C624 C625 1.582 . S
C624 H681 0.962 . S
C624 H682 0.959 . S
C624 H683 0.958 . S
C625 C624 1.582 . S
C625 O628 1.458 . S
C625 H654 0.980 . S
O626 C571 1.426 . S
O626 C572 1.334 . S
O627 C599 1.412 . S
O627 C600 1.393 . S
O628 C590 1.435 . S
O628 C625 1.458 . S
O629 C581 1.468 . S
O629 C582 1.408 . S
H630 C571 0.980 . S
H631 C570 0.959 . S
H632 C570 0.959 . S
H633 C570 0.960 . S
H634 C573 0.929 . S
H635 C577 0.929 . S
H636 C578 0.959 . S
H637 C578 0.961 . S
H638 C578 0.961 . S
H639 C579 0.960 . S
H640 C579 0.960 . S
H641 C579 0.961 . S
H642 C581 0.980 . S
H643 C580 0.957 1_556 S
H644 C580 0.960 . S
H645 C580 0.959 . S
H646 C583 0.930 . S
H647 C587 0.931 . S
H648 C588 0.959 . S
H649 C588 0.961 . S
H650 C588 0.959 . S
H651 C589 0.960 . S
H652 C589 0.960 . S
H653 C589 0.960 . S
H654 C625 0.980 . S
H655 C591 0.930 . S
H656 C595 0.930 . S
H657 C596 0.961 . S
H658 C596 0.960 . S
H659 C596 0.958 . S
H660 C597 0.961 . S
H661 C597 0.960 . S
H662 C597 0.960 . S
H663 C599 0.980 . S
H664 C598 0.961 . S
H665 C598 0.961 . S
H666 C598 0.959 . S
H667 C601 0.932 . S
H668 C605 0.929 . S
H669 C606 0.961 . S
H670 C606 0.959 . S
H671 C606 0.959 . S
H672 C607 0.960 . S
H673 C607 0.962 . S
H674 C607 0.961 . S
H675 C609 0.929 . S
H676 C612 0.930 . S
H677 C613 0.929 . S
H678 C616 0.930 . S
H679 C619 0.929 . S
H680 C620 0.930 . S
H681 C624 0.962 . S
H682 C624 0.959 . S
H683 C624 0.958 . S
O684 Cd685 2.223 . S
O684 C692 1.315 . S
Cd685 O684 2.223 . S
Cd685 O688 2.297 . S
Cd685 O689 2.439 . S
Cd685 O695 2.240 . S
Cd686 O687 2.240 . S
Cd686 O694 2.223 . S
Cd686 O696 2.297 . S
Cd686 O697 2.439 . S
O687 Cd686 2.240 . S
O687 C692 1.279 . S
O688 Cd685 2.297 . S
O688 C690 1.247 . S
O689 Cd685 2.439 . S
O689 C690 1.208 . S
C690 O688 1.247 . S
C690 O689 1.208 . S
C691 O696 1.247 . S
C691 O697 1.208 . S
C692 O684 1.315 . S
C692 O687 1.279 . S
C693 O694 1.315 . S
C693 O695 1.279 . S
O694 Cd686 2.223 . S
O694 C693 1.315 . S
O695 Cd685 2.240 . S
O695 C693 1.279 . S
O696 Cd686 2.297 . S
O696 C691 1.247 . S
O697 Cd686 2.439 . S
O697 C691 1.208 . S
O698 Cd699 2.223 . S
O698 C706 1.315 . S
Cd699 O698 2.223 . S
Cd699 O702 2.297 . S
Cd699 O703 2.439 . S
Cd699 O709 2.240 . S
Cd700 O701 2.240 . S
Cd700 O708 2.223 . S
Cd700 O710 2.297 . S
Cd700 O711 2.439 . S
O701 Cd700 2.240 . S
O701 C706 1.279 . S
O702 Cd699 2.297 . S
O702 C704 1.247 . S
O703 Cd699 2.439 . S
O703 C704 1.208 . S
C704 O702 1.247 . S
C704 O703 1.208 . S
C705 O710 1.247 . S
C705 O711 1.208 . S
C706 O698 1.315 . S
C706 O701 1.279 . S
C707 O708 1.315 . S
C707 O709 1.279 . S
O708 Cd700 2.223 . S
O708 C707 1.315 . S
O709 Cd699 2.240 . S
O709 C707 1.279 . S
O710 Cd700 2.297 . S
O710 C705 1.247 . S
O711 Cd700 2.439 . S
O711 C705 1.208 . S
O712 Cd713 2.223 . S
O712 C720 1.315 . S
Cd713 O712 2.223 . S
Cd713 O716 2.297 . S
Cd713 O717 2.439 . S
Cd713 O723 2.240 . S
Cd714 O715 2.240 . S
Cd714 O722 2.223 . S
Cd714 O724 2.297 . S
Cd714 O725 2.439 . S
O715 Cd714 2.240 . S
O715 C720 1.279 . S
O716 Cd713 2.297 . S
O716 C718 1.247 . S
O717 Cd713 2.439 . S
O717 C718 1.208 . S
C718 O716 1.247 . S
C718 O717 1.208 . S
C719 O724 1.247 . S
C719 O725 1.208 . S
C720 O712 1.315 . S
C720 O715 1.279 . S
C721 O722 1.315 . S
C721 O723 1.279 . S
O722 Cd714 2.223 . S
O722 C721 1.315 . S
O723 Cd713 2.240 . S
O723 C721 1.279 . S
O724 Cd714 2.297 . S
O724 C719 1.247 . S
O725 Cd714 2.439 . S
O725 C719 1.208 . S
O726 Cd727 2.223 . S
O726 C734 1.315 . S
Cd727 O726 2.223 . S
Cd727 O730 2.297 . S
Cd727 O731 2.439 . S
Cd727 O737 2.240 . S
Cd728 O729 2.240 . S
Cd728 O736 2.223 . S
Cd728 O738 2.297 . S
Cd728 O739 2.439 . S
O729 Cd728 2.240 . S
O729 C734 1.279 . S
O730 Cd727 2.297 . S
O730 C732 1.247 . S
O731 Cd727 2.439 . S
O731 C732 1.208 . S
C732 O730 1.247 . S
C732 O731 1.208 . S
C733 O738 1.247 . S
C733 O739 1.208 . S
C734 O726 1.315 . S
C734 O729 1.279 . S
C735 O736 1.315 . S
C735 O737 1.279 . S
O736 Cd728 2.223 . S
O736 C735 1.315 . S
O737 Cd727 2.240 . S
O737 C735 1.279 . S
O738 Cd728 2.297 . S
O738 C733 1.247 . S
O739 Cd728 2.439 . S
O739 C733 1.208 . S
O740 Cd741 2.223 . S
O740 C748 1.315 . S
Cd741 O740 2.223 . S
Cd741 O744 2.297 . S
Cd741 O745 2.439 . S
Cd741 O751 2.240 . S
Cd742 O743 2.240 . S
Cd742 O750 2.223 . S
Cd742 O752 2.297 . S
Cd742 O753 2.439 . S
O743 Cd742 2.240 . S
O743 C748 1.279 . S
O744 Cd741 2.297 . S
O744 C746 1.247 . S
O745 Cd741 2.439 . S
O745 C746 1.208 . S
C746 O744 1.247 . S
C746 O745 1.208 . S
C747 O752 1.247 . S
C747 O753 1.208 . S
C748 O740 1.315 . S
C748 O743 1.279 . S
C749 O750 1.315 . S
C749 O751 1.279 . S
O750 Cd742 2.223 . S
O750 C749 1.315 . S
O751 Cd741 2.240 . S
O751 C749 1.279 . S
O752 Cd742 2.297 . S
O752 C747 1.247 . S
O753 Cd742 2.439 . S
O753 C747 1.208 . S
O754 Cd755 2.223 . S
O754 C762 1.315 . S
Cd755 O754 2.223 . S
Cd755 O758 2.297 . S
Cd755 O759 2.439 . S
Cd755 O765 2.240 . S
Cd756 O757 2.240 . S
Cd756 O764 2.223 . S
Cd756 O766 2.297 . S
Cd756 O767 2.439 . S
O757 Cd756 2.240 . S
O757 C762 1.279 . S
O758 Cd755 2.297 . S
O758 C760 1.247 . S
O759 Cd755 2.439 . S
O759 C760 1.208 . S
C760 O758 1.247 . S
C760 O759 1.208 . S
C761 O766 1.247 . S
C761 O767 1.208 . S
C762 O754 1.315 . S
C762 O757 1.279 . S
C763 O764 1.315 . S
C763 O765 1.279 . S
O764 Cd756 2.223 . S
O764 C763 1.315 . S
O765 Cd755 2.240 . S
O765 C763 1.279 . S
O766 Cd756 2.297 . S
O766 C761 1.247 . S
O767 Cd756 2.439 . S
O767 C761 1.208 . S
H768 C774 0.930 . S
H769 C777 0.930 . S
H770 C778 0.930 . S
H771 C779 0.930 . S
H772 C782 0.930 . S
H773 C783 0.930 . S
C774 H768 0.930 . S
C774 C775 1.355 . S
C774 C776 1.415 . S
C775 C774 1.355 . S
C775 C777 1.419 . S
C776 C774 1.415 . S
C776 C781 1.425 . S
C776 C783 1.409 . S
C777 H769 0.930 . S
C777 C775 1.419 . S
C777 C778 1.362 . S
C778 H770 0.930 . S
C778 C777 1.362 . S
C778 C781 1.409 . S
C779 H771 0.930 . S
C779 C780 1.355 . S
C779 C781 1.415 . S
C780 C779 1.355 . S
C780 C782 1.419 . S
C781 C776 1.425 . S
C781 C778 1.409 . S
C781 C779 1.415 . S
C782 H772 0.930 . S
C782 C780 1.419 . S
C782 C783 1.362 . S
C783 H773 0.930 . S
C783 C776 1.409 . S
C783 C782 1.362 . S
H784 C790 0.930 . S
H785 C793 0.930 . S
H786 C794 0.930 . S
H787 C795 0.930 . S
H788 C798 0.930 . S
H789 C799 0.930 . S
C790 H784 0.930 . S
C790 C791 1.355 . S
C790 C792 1.415 . S
C791 C790 1.355 . S
C791 C793 1.419 . S
C792 C790 1.415 . S
C792 C797 1.425 . S
C792 C799 1.409 . S
C793 H785 0.930 . S
C793 C791 1.419 . S
C793 C794 1.362 . S
C794 H786 0.930 . S
C794 C793 1.362 . S
C794 C797 1.409 . S
C795 H787 0.930 . S
C795 C796 1.355 . S
C795 C797 1.415 . S
C796 C795 1.355 . S
C796 C798 1.419 . S
C797 C792 1.425 . S
C797 C794 1.409 . S
C797 C795 1.415 . S
C798 H788 0.930 . S
C798 C796 1.419 . S
C798 C799 1.362 . S
C799 H789 0.930 . S
C799 C792 1.409 . S
C799 C798 1.362 . S
H800 C806 0.930 . S
H801 C809 0.930 . S
H802 C810 0.930 . S
H803 C811 0.930 . S
H804 C814 0.930 . S
H805 C815 0.930 . S
C806 H800 0.930 . S
C806 C807 1.355 . S
C806 C808 1.415 . S
C807 C806 1.355 . S
C807 C809 1.419 . S
C808 C806 1.415 . S
C808 C813 1.425 . S
C808 C815 1.409 . S
C809 H801 0.930 . S
C809 C807 1.419 . S
C809 C810 1.362 . S
C810 H802 0.930 . S
C810 C809 1.362 . S
C810 C813 1.409 . S
C811 H803 0.930 . S
C811 C812 1.355 . S
C811 C813 1.415 . S
C812 C811 1.355 . S
C812 C814 1.419 . S
C813 C808 1.425 . S
C813 C810 1.409 . S
C813 C811 1.415 . S
C814 H804 0.930 . S
C814 C812 1.419 . S
C814 C815 1.362 . S
C815 H805 0.930 . S
C815 C808 1.409 . S
C815 C814 1.362 . S
H816 C822 0.930 . S
H817 C825 0.930 . S
H818 C826 0.930 . S
H819 C827 0.930 . S
H820 C830 0.930 . S
H821 C831 0.930 . S
C822 H816 0.930 . S
C822 C823 1.355 . S
C822 C824 1.415 . S
C823 C822 1.355 . S
C823 C825 1.419 . S
C824 C822 1.415 . S
C824 C829 1.425 . S
C824 C831 1.409 . S
C825 H817 0.930 . S
C825 C823 1.419 . S
C825 C826 1.362 . S
C826 H818 0.930 . S
C826 C825 1.362 . S
C826 C829 1.409 . S
C827 H819 0.930 . S
C827 C828 1.355 . S
C827 C829 1.415 . S
C828 C827 1.355 . S
C828 C830 1.419 . S
C829 C824 1.425 . S
C829 C826 1.409 . S
C829 C827 1.415 . S
C830 H820 0.930 . S
C830 C828 1.419 . S
C830 C831 1.362 . S
C831 H821 0.930 . S
C831 C824 1.409 . S
C831 C830 1.362 . S
H832 C838 0.930 . S
H833 C841 0.930 . S
H834 C842 0.930 . S
H835 C843 0.930 . S
H836 C846 0.930 . S
H837 C847 0.930 . S
C838 H832 0.930 . S
C838 C839 1.355 . S
C838 C840 1.415 . S
C839 C838 1.355 . S
C839 C841 1.419 . S
C840 C838 1.415 . S
C840 C845 1.425 . S
C840 C847 1.409 . S
C841 H833 0.930 . S
C841 C839 1.419 . S
C841 C842 1.362 . S
C842 H834 0.930 . S
C842 C841 1.362 . S
C842 C845 1.409 . S
C843 H835 0.930 . S
C843 C844 1.355 . S
C843 C845 1.415 . S
C844 C843 1.355 . S
C844 C846 1.419 . S
C845 C840 1.425 . S
C845 C842 1.409 . S
C845 C843 1.415 . S
C846 H836 0.930 . S
C846 C844 1.419 . S
C846 C847 1.362 . S
C847 H837 0.930 . S
C847 C840 1.409 . S
C847 C846 1.362 . S
H848 C854 0.930 . S
H849 C857 0.930 . S
H850 C858 0.930 . S
H851 C859 0.930 . S
H852 C862 0.930 . S
H853 C863 0.930 . S
C854 H848 0.930 . S
C854 C855 1.355 . S
C854 C856 1.415 . S
C855 C854 1.355 . S
C855 C857 1.419 . S
C856 C854 1.415 . S
C856 C861 1.425 . S
C856 C863 1.409 . S
C857 H849 0.930 . S
C857 C855 1.419 . S
C857 C858 1.362 . S
C858 H850 0.930 . S
C858 C857 1.362 . S
C858 C861 1.409 . S
C859 H851 0.930 . S
C859 C860 1.355 . S
C859 C861 1.415 . S
C860 C859 1.355 . S
C860 C862 1.419 . S
C861 C856 1.425 . S
C861 C858 1.409 . S
C861 C859 1.415 . S
C862 H852 0.930 . S
C862 C860 1.419 . S
C862 C863 1.362 . S
C863 H853 0.930 . S
C863 C856 1.409 . S
C863 C862 1.362 . S
H864 C870 0.930 . S
H865 C873 0.930 . S
H866 C874 0.930 . S
H867 C875 0.930 . S
H868 C878 0.930 . S
H869 C879 0.930 . S
C870 H864 0.930 . S
C870 C871 1.355 . S
C870 C872 1.415 . S
C871 C870 1.355 . S
C871 C873 1.419 . S
C872 C870 1.415 . S
C872 C877 1.425 . S
C872 C879 1.409 . S
C873 H865 0.930 . S
C873 C871 1.419 . S
C873 C874 1.362 . S
C874 H866 0.930 . S
C874 C873 1.362 . S
C874 C877 1.409 . S
C875 H867 0.930 . S
C875 C876 1.355 . S
C875 C877 1.415 . S
C876 C875 1.355 . S
C876 C878 1.419 . S
C877 C872 1.425 . S
C877 C874 1.409 . S
C877 C875 1.415 . S
C878 H868 0.930 . S
C878 C876 1.419 . S
C878 C879 1.362 . S
C879 H869 0.930 . S
C879 C872 1.409 . S
C879 C878 1.362 . S
H880 C886 0.930 . S
H881 C889 0.930 . S
H882 C890 0.930 . S
H883 C891 0.930 . S
H884 C894 0.930 . S
H885 C895 0.930 . S
C886 H880 0.930 . S
C886 C887 1.355 . S
C886 C888 1.415 . S
C887 C886 1.355 . S
C887 C889 1.419 . S
C888 C886 1.415 . S
C888 C893 1.425 . S
C888 C895 1.409 . S
C889 H881 0.930 . S
C889 C887 1.419 . S
C889 C890 1.362 . S
C890 H882 0.930 . S
C890 C889 1.362 . S
C890 C893 1.409 . S
C891 H883 0.930 . S
C891 C892 1.355 . S
C891 C893 1.415 . S
C892 C891 1.355 . S
C892 C894 1.419 . S
C893 C888 1.425 . S
C893 C890 1.409 . S
C893 C891 1.415 . S
C894 H884 0.930 . S
C894 C892 1.419 . S
C894 C895 1.362 . S
C895 H885 0.930 . S
C895 C888 1.409 . S
C895 C894 1.362 . S
H896 C902 0.930 . S
H897 C905 0.930 . S
H898 C906 0.930 . S
H899 C907 0.930 . S
H900 C910 0.930 . S
H901 C911 0.930 . S
C902 H896 0.930 . S
C902 C903 1.355 . S
C902 C904 1.415 . S
C903 C902 1.355 . S
C903 C905 1.419 . S
C904 C902 1.415 . S
C904 C909 1.425 . S
C904 C911 1.409 . S
C905 H897 0.930 . S
C905 C903 1.419 . S
C905 C906 1.362 . S
C906 H898 0.930 . S
C906 C905 1.362 . S
C906 C909 1.409 . S
C907 H899 0.930 . S
C907 C908 1.355 . S
C907 C909 1.415 . S
C908 C907 1.355 . S
C908 C910 1.419 . S
C909 C904 1.425 . S
C909 C906 1.409 . S
C909 C907 1.415 . S
C910 H900 0.930 . S
C910 C908 1.419 . S
C910 C911 1.362 . S
C911 H901 0.930 . S
C911 C904 1.409 . S
C911 C910 1.362 . S
H912 C918 0.930 . S
H913 C921 0.930 . S
H914 C922 0.930 . S
H915 C923 0.930 . S
H916 C926 0.930 . S
H917 C927 0.930 . S
C918 H912 0.930 . S
C918 C919 1.355 . S
C918 C920 1.415 . S
C919 C918 1.355 . S
C919 C921 1.419 . S
C920 C918 1.415 . S
C920 C925 1.425 . S
C920 C927 1.409 . S
C921 H913 0.930 . S
C921 C919 1.419 . S
C921 C922 1.362 . S
C922 H914 0.930 . S
C922 C921 1.362 . S
C922 C925 1.409 . S
C923 H915 0.930 . S
C923 C924 1.355 . S
C923 C925 1.415 . S
C924 C923 1.355 . S
C924 C926 1.419 . S
C925 C920 1.425 . S
C925 C922 1.409 . S
C925 C923 1.415 . S
C926 H916 0.930 . S
C926 C924 1.419 . S
C926 C927 1.362 . S
C927 H917 0.930 . S
C927 C920 1.409 . S
C927 C926 1.362 . S
H928 C934 0.930 . S
H929 C937 0.930 . S
H930 C938 0.930 . S
H931 C939 0.930 . S
H932 C942 0.930 . S
H933 C943 0.930 . S
C934 H928 0.930 . S
C934 C935 1.355 . S
C934 C936 1.415 . S
C935 C934 1.355 . S
C935 C937 1.419 . S
C936 C934 1.415 . S
C936 C941 1.425 . S
C936 C943 1.409 . S
C937 H929 0.930 . S
C937 C935 1.419 . S
C937 C938 1.362 . S
C938 H930 0.930 . S
C938 C937 1.362 . S
C938 C941 1.409 . S
C939 H931 0.930 . S
C939 C940 1.355 . S
C939 C941 1.415 . S
C940 C939 1.355 . S
C940 C942 1.419 . S
C941 C936 1.425 . S
C941 C938 1.409 . S
C941 C939 1.415 . S
C942 H932 0.930 . S
C942 C940 1.419 . S
C942 C943 1.362 . S
C943 H933 0.930 . S
C943 C936 1.409 . S
C943 C942 1.362 . S
H944 C950 0.930 . S
H945 C953 0.930 . S
H946 C954 0.930 . S
H947 C955 0.930 . S
H948 C958 0.930 . S
H949 C959 0.930 . S
C950 H944 0.930 . S
C950 C951 1.355 . S
C950 C952 1.415 . S
C951 C950 1.355 . S
C951 C953 1.419 . S
C952 C950 1.415 . S
C952 C957 1.425 . S
C952 C959 1.409 . S
C953 H945 0.930 . S
C953 C951 1.419 . S
C953 C954 1.362 . S
C954 H946 0.930 . S
C954 C953 1.362 . S
C954 C957 1.409 . S
C955 H947 0.930 . S
C955 C956 1.355 . S
C955 C957 1.415 . S
C956 C955 1.355 . S
C956 C958 1.419 . S
C957 C952 1.425 . S
C957 C954 1.409 . S
C957 C955 1.415 . S
C958 H948 0.930 . S
C958 C956 1.419 . S
C958 C959 1.362 . S
C959 H949 0.930 . S
C959 C952 1.409 . S
C959 C958 1.362 . S
H960 C966 0.930 . S
H961 C969 0.930 . S
H962 C970 0.930 . S
H963 C971 0.930 . S
H964 C974 0.930 . S
H965 C975 0.930 . S
C966 H960 0.930 . S
C966 C967 1.355 . S
C966 C968 1.415 . S
C967 C966 1.355 . S
C967 C969 1.419 . S
C968 C966 1.415 . S
C968 C973 1.425 . S
C968 C975 1.409 . S
C969 H961 0.930 . S
C969 C967 1.419 . S
C969 C970 1.362 . S
C970 H962 0.930 . S
C970 C969 1.362 . S
C970 C973 1.409 . S
C971 H963 0.930 . S
C971 C972 1.355 . S
C971 C973 1.415 . S
C972 C971 1.355 . S
C972 C974 1.419 . S
C973 C968 1.425 . S
C973 C970 1.409 . S
C973 C971 1.415 . S
C974 H964 0.930 . S
C974 C972 1.419 . S
C974 C975 1.362 . S
C975 H965 0.930 . S
C975 C968 1.409 . S
C975 C974 1.362 . S
H976 C982 0.930 . S
H977 C985 0.930 . S
H978 C986 0.930 . S
H979 C987 0.930 . S
H980 C990 0.930 . S
H981 C991 0.930 . S
C982 H976 0.930 . S
C982 C983 1.355 . S
C982 C984 1.415 . S
C983 C982 1.355 . S
C983 C985 1.419 . S
C984 C982 1.415 . S
C984 C989 1.425 . S
C984 C991 1.409 . S
C985 H977 0.930 . S
C985 C983 1.419 . S
C985 C986 1.362 . S
C986 H978 0.930 . S
C986 C985 1.362 . S
C986 C989 1.409 . S
C987 H979 0.930 . S
C987 C988 1.355 . S
C987 C989 1.415 . S
C988 C987 1.355 . S
C988 C990 1.419 . S
C989 C984 1.425 . S
C989 C986 1.409 . S
C989 C987 1.415 . S
C990 H980 0.930 . S
C990 C988 1.419 . S
C990 C991 1.362 . S
C991 H981 0.930 . S
C991 C984 1.409 . S
C991 C990 1.362 . S
H992 C998 0.930 . S
H993 C1001 0.930 . S
H994 C1002 0.930 . S
H995 C1003 0.930 . S
H996 C1006 0.930 . S
H997 C1007 0.930 . S
C998 H992 0.930 . S
C998 C999 1.355 . S
C998 C1000 1.415 . S
C999 C998 1.355 . S
C999 C1001 1.419 . S
C1000 C998 1.415 . S
C1000 C1005 1.425 . S
C1000 C1007 1.409 . S
C1001 H993 0.930 . S
C1001 C999 1.419 . S
C1001 C1002 1.362 . S
C1002 H994 0.930 . S
C1002 C1001 1.362 . S
C1002 C1005 1.409 . S
C1003 H995 0.930 . S
C1003 C1004 1.355 . S
C1003 C1005 1.415 . S
C1004 C1003 1.355 . S
C1004 C1006 1.419 . S
C1005 C1000 1.425 . S
C1005 C1002 1.409 . S
C1005 C1003 1.415 . S
C1006 H996 0.930 . S
C1006 C1004 1.419 . S
C1006 C1007 1.362 . S
C1007 H997 0.930 . S
C1007 C1000 1.409 . S
C1007 C1006 1.362 . S
H1008 C1014 0.930 . S
H1009 C1017 0.930 . S
H1010 C1018 0.930 . S
H1011 C1019 0.930 . S
H1012 C1022 0.930 . S
H1013 C1023 0.930 . S
C1014 H1008 0.930 . S
C1014 C1015 1.355 . S
C1014 C1016 1.415 . S
C1015 C1014 1.355 . S
C1015 C1017 1.419 . S
C1016 C1014 1.415 . S
C1016 C1021 1.425 1_556 S
C1016 C1023 1.409 . S
C1017 H1009 0.930 . S
C1017 C1015 1.419 . S
C1017 C1018 1.362 1_556 S
C1018 H1010 0.930 . S
C1018 C1017 1.362 1_554 S
C1018 C1021 1.409 . S
C1019 H1011 0.930 . S
C1019 C1020 1.355 . S
C1019 C1021 1.415 . S
C1020 C1019 1.355 . S
C1020 C1022 1.419 . S
C1021 C1016 1.425 1_554 S
C1021 C1018 1.409 . S
C1021 C1019 1.415 . S
C1022 H1012 0.930 . S
C1022 C1020 1.419 . S
C1022 C1023 1.362 1_554 S
C1023 H1013 0.930 . S
C1023 C1016 1.409 . S
C1023 C1022 1.362 1_556 S
H1024 C1030 0.930 . S
H1025 C1033 0.930 . S
H1026 C1034 0.930 . S
H1027 C1035 0.930 . S
H1028 C1038 0.930 . S
H1029 C1039 0.930 . S
C1030 H1024 0.930 . S
C1030 C1031 1.355 . S
C1030 C1032 1.415 . S
C1031 C1030 1.355 . S
C1031 C1033 1.419 . S
C1032 C1030 1.415 . S
C1032 C1037 1.425 . S
C1032 C1039 1.409 . S
C1033 H1025 0.930 . S
C1033 C1031 1.419 . S
C1033 C1034 1.362 . S
C1034 H1026 0.930 . S
C1034 C1033 1.362 . S
C1034 C1037 1.409 . S
C1035 H1027 0.930 . S
C1035 C1036 1.355 . S
C1035 C1037 1.415 . S
C1036 C1035 1.355 . S
C1036 C1038 1.419 . S
C1037 C1032 1.425 . S
C1037 C1034 1.409 . S
C1037 C1035 1.415 . S
C1038 H1028 0.930 . S
C1038 C1036 1.419 . S
C1038 C1039 1.362 . S
C1039 H1029 0.930 . S
C1039 C1032 1.409 . S
C1039 C1038 1.362 . S
H1040 C1046 0.930 . S
H1041 C1049 0.930 . S
H1042 C1050 0.930 . S
H1043 C1051 0.930 . S
H1044 C1054 0.930 . S
H1045 C1055 0.930 . S
C1046 H1040 0.930 . S
C1046 C1047 1.355 . S
C1046 C1048 1.415 . S
C1047 C1046 1.355 . S
C1047 C1049 1.419 . S
C1048 C1046 1.415 . S
C1048 C1053 1.425 . S
C1048 C1055 1.409 . S
C1049 H1041 0.930 . S
C1049 C1047 1.419 . S
C1049 C1050 1.362 . S
C1050 H1042 0.930 . S
C1050 C1049 1.362 . S
C1050 C1053 1.409 . S
C1051 H1043 0.930 . S
C1051 C1052 1.355 . S
C1051 C1053 1.415 . S
C1052 C1051 1.355 . S
C1052 C1054 1.419 . S
C1053 C1048 1.425 . S
C1053 C1050 1.409 . S
C1053 C1051 1.415 . S
C1054 H1044 0.930 . S
C1054 C1052 1.419 . S
C1054 C1055 1.362 . S
C1055 H1045 0.930 . S
C1055 C1048 1.409 . S
C1055 C1054 1.362 . S
H1056 C1062 0.930 . S
H1057 C1065 0.930 . S
H1058 C1066 0.930 . S
H1059 C1067 0.930 . S
H1060 C1070 0.930 . S
H1061 C1071 0.930 . S
C1062 H1056 0.930 . S
C1062 C1063 1.355 . S
C1062 C1064 1.415 . S
C1063 C1062 1.355 . S
C1063 C1065 1.419 . S
C1064 C1062 1.415 . S
C1064 C1069 1.425 . S
C1064 C1071 1.409 . S
C1065 H1057 0.930 . S
C1065 C1063 1.419 . S
C1065 C1066 1.362 . S
C1066 H1058 0.930 . S
C1066 C1065 1.362 . S
C1066 C1069 1.409 . S
C1067 H1059 0.930 . S
C1067 C1068 1.355 . S
C1067 C1069 1.415 . S
C1068 C1067 1.355 . S
C1068 C1070 1.419 . S
C1069 C1064 1.425 . S
C1069 C1066 1.409 . S
C1069 C1067 1.415 . S
C1070 H1060 0.930 . S
C1070 C1068 1.419 . S
C1070 C1071 1.362 . S
C1071 H1061 0.930 . S
C1071 C1064 1.409 . S
C1071 C1070 1.362 . S
H1072 C1078 0.930 . S
H1073 C1081 0.930 . S
H1074 C1082 0.930 . S
H1075 C1083 0.930 . S
H1076 C1086 0.930 . S
H1077 C1087 0.930 . S
C1078 H1072 0.930 . S
C1078 C1079 1.355 . S
C1078 C1080 1.415 . S
C1079 C1078 1.355 . S
C1079 C1081 1.419 . S
C1080 C1078 1.415 . S
C1080 C1085 1.425 . S
C1080 C1087 1.409 . S
C1081 H1073 0.930 . S
C1081 C1079 1.419 . S
C1081 C1082 1.362 . S
C1082 H1074 0.930 . S
C1082 C1081 1.362 . S
C1082 C1085 1.409 . S
C1083 H1075 0.930 . S
C1083 C1084 1.355 . S
C1083 C1085 1.415 . S
C1084 C1083 1.355 . S
C1084 C1086 1.419 . S
C1085 C1080 1.425 . S
C1085 C1082 1.409 . S
C1085 C1083 1.415 . S
C1086 H1076 0.930 . S
C1086 C1084 1.419 . S
C1086 C1087 1.362 . S
C1087 H1077 0.930 . S
C1087 C1080 1.409 . S
C1087 C1086 1.362 . S
H1088 C1094 0.930 . S
H1089 C1097 0.930 . S
H1090 C1098 0.930 . S
H1091 C1099 0.930 . S
H1092 C1102 0.930 . S
H1093 C1103 0.930 . S
C1094 H1088 0.930 . S
C1094 C1095 1.355 . S
C1094 C1096 1.415 . S
C1095 C1094 1.355 . S
C1095 C1097 1.419 . S
C1096 C1094 1.415 . S
C1096 C1101 1.425 . S
C1096 C1103 1.409 . S
C1097 H1089 0.930 . S
C1097 C1095 1.419 . S
C1097 C1098 1.362 . S
C1098 H1090 0.930 . S
C1098 C1097 1.362 . S
C1098 C1101 1.409 . S
C1099 H1091 0.930 . S
C1099 C1100 1.355 . S
C1099 C1101 1.415 . S
C1100 C1099 1.355 . S
C1100 C1102 1.419 . S
C1101 C1096 1.425 . S
C1101 C1098 1.409 . S
C1101 C1099 1.415 . S
C1102 H1092 0.930 . S
C1102 C1100 1.419 . S
C1102 C1103 1.362 . S
C1103 H1093 0.930 . S
C1103 C1096 1.409 . S
C1103 C1102 1.362 . S
H1104 C1110 0.930 . S
H1105 C1113 0.930 . S
H1106 C1114 0.930 . S
H1107 C1115 0.930 . S
H1108 C1118 0.930 . S
H1109 C1119 0.930 . S
C1110 H1104 0.930 . S
C1110 C1111 1.355 . S
C1110 C1112 1.415 . S
C1111 C1110 1.355 . S
C1111 C1113 1.419 . S
C1112 C1110 1.415 . S
C1112 C1117 1.425 . S
C1112 C1119 1.409 . S
C1113 H1105 0.930 . S
C1113 C1111 1.419 . S
C1113 C1114 1.362 . S
C1114 H1106 0.930 . S
C1114 C1113 1.362 . S
C1114 C1117 1.409 . S
C1115 H1107 0.930 . S
C1115 C1116 1.355 . S
C1115 C1117 1.415 . S
C1116 C1115 1.355 . S
C1116 C1118 1.419 . S
C1117 C1112 1.425 . S
C1117 C1114 1.409 . S
C1117 C1115 1.415 . S
C1118 H1108 0.930 . S
C1118 C1116 1.419 . S
C1118 C1119 1.362 . S
C1119 H1109 0.930 . S
C1119 C1112 1.409 . S
C1119 C1118 1.362 . S
H1120 C1126 0.930 . S
H1121 C1129 0.930 . S
H1122 C1130 0.930 . S
H1123 C1131 0.930 . S
H1124 C1134 0.930 . S
H1125 C1135 0.930 . S
C1126 H1120 0.930 . S
C1126 C1127 1.355 . S
C1126 C1128 1.415 1_554 S
C1127 C1126 1.355 . S
C1127 C1129 1.419 . S
C1128 C1126 1.415 1_556 S
C1128 C1133 1.425 . S
C1128 C1135 1.409 . S
C1129 H1121 0.930 . S
C1129 C1127 1.419 . S
C1129 C1130 1.362 . S
C1130 H1122 0.930 . S
C1130 C1129 1.362 . S
C1130 C1133 1.409 1_554 S
C1131 H1123 0.930 . S
C1131 C1132 1.355 . S
C1131 C1133 1.415 . S
C1132 C1131 1.355 . S
C1132 C1134 1.419 . S
C1133 C1128 1.425 . S
C1133 C1130 1.409 1_556 S
C1133 C1131 1.415 . S
C1134 H1124 0.930 . S
C1134 C1132 1.419 . S
C1134 C1135 1.362 . S
C1135 H1125 0.930 . S
C1135 C1128 1.409 . S
C1135 C1134 1.362 . S
H1136 C1142 0.930 . S
H1137 C1145 0.930 . S
H1138 C1146 0.930 . S
H1139 C1147 0.930 . S
H1140 C1150 0.930 . S
H1141 C1151 0.930 . S
C1142 H1136 0.930 . S
C1142 C1143 1.355 . S
C1142 C1144 1.415 . S
C1143 C1142 1.355 . S
C1143 C1145 1.419 . S
C1144 C1142 1.415 . S
C1144 C1149 1.425 . S
C1144 C1151 1.409 . S
C1145 H1137 0.930 . S
C1145 C1143 1.419 . S
C1145 C1146 1.362 . S
C1146 H1138 0.930 . S
C1146 C1145 1.362 . S
C1146 C1149 1.409 . S
C1147 H1139 0.930 . S
C1147 C1148 1.355 . S
C1147 C1149 1.415 . S
C1148 C1147 1.355 . S
C1148 C1150 1.419 . S
C1149 C1144 1.425 . S
C1149 C1146 1.409 . S
C1149 C1147 1.415 . S
C1150 H1140 0.930 . S
C1150 C1148 1.419 . S
C1150 C1151 1.362 . S
C1151 H1141 0.930 . S
C1151 C1144 1.409 . S
C1151 C1150 1.362 . S
C780 C761 2.005 . S
C775 C1 1.477 . S
C791 C169 1.091 . S
C796 C690 1.521 . S
C807 C283 1.854 . S
C812 C704 2.085 . S
C823 C397 0.951 . S
C828 C718 1.404 . S
C844 C732 1.886 . S
C839 C457 1.364 . S
C855 C571 1.241 . S
C860 C747 1.299 . S
C871 C115 1.224 . S
C876 C705 1.447 . S
C887 C229 1.370 . S
C892 C719 1.901 . S
C903 C343 1.210 . S
C908 C733 1.319 . S
C924 C746 1.953 . S
C919 C511 1.651 . S
C940 C760 1.508 . S
C935 C625 1.065 . S
C956 C691 2.105 . S
C951 C55 1.877 . S
C967 C29 1.071 . S
C972 C707 1.500 . S
C983 C125 1.213 . S
C988 C721 1.949 . S
C1004 C735 1.503 . S
C999 C239 1.069 . S
C1015 C353 1.038 . S
C1020 C748 1.876 . S
C1036 C762 1.448 . S
C1031 C485 1.091 . S
C1052 C693 1.883 . S
C1047 C599 1.730 . S
C1068 C763 1.844 . S
C1063 C143 1.788 . S
C1079 C257 1.095 . S
C1084 C692 1.507 . S
C1100 C706 1.838 . S
C1095 C371 1.672 . S
C1111 C467 1.036 . S
C1116 C720 1.488 . S
C1127 C581 1.175 . S
C1132 C734 1.914 . S
C1143 C11 1.124 . S
C1148 C749 1.555 . S
