# Generated by pormake.
# Topology pts, (4,4)-cn, num edge types: 1
# Building blocks:
#     Node 0, Type 0, BuildingBlock: AZAVOO_clean_linker_0, # of connection points: 4
#     Node 1, Type 0, BuildingBlock: AZAVOO_clean_linker_0, # of connection points: 4
#     Node 2, Type 1, BuildingBlock: AZAVOO_clean_sbu_0, # of connection points: 4
#     Node 3, Type 1, BuildingBlock: AZAVOO_clean_sbu_0, # of connection points: 4
#     Edge 4, Type (0, 1), BuildingBlock: FUNLAD_clean_linker_0, # of connection points: 2
#     Edge 5, Type (0, 1), BuildingBlock: FUNLAD_clean_linker_0, # of connection points: 2
#     Edge 6, Type (0, 1), BuildingBlock: FUNLAD_clean_linker_0, # of connection points: 2
#     Edge 7, Type (0, 1), BuildingBlock: FUNLAD_clean_linker_0, # of connection points: 2
#     Edge 8, Type (0, 1), BuildingBlock: FUNLAD_clean_linker_0, # of connection points: 2
#     Edge 9, Type (0, 1), BuildingBlock: FUNLAD_clean_linker_0, # of connection points: 2
#     Edge 10, Type (0, 1), BuildingBlock: FUNLAD_clean_linker_0, # of connection points: 2
#     Edge 11, Type (0, 1), BuildingBlock: FUNLAD_clean_linker_0, # of connection points: 2
# Relax obj value: 0.115
# Max RMSD: 0.230
# Mean RMSD: 0.159
data_MOF--net-pts--node1-AZAVOO_clean_sbu_0--node2-AZAVOO_clean_linker_0--edge1-FUNLAD_clean_linker_0
_symmetry_space_group_name_H-M    P1
_symmetry_Int_Tables_number       1
_symmetry_cell_setting            triclinic
loop_
_symmetry_equiv_pos_as_xyz
'x, y, z'
_cell_length_a     29.835333
_cell_length_b     30.687831
_cell_length_c     52.698378
_cell_angle_alpha  91.923098
_cell_angle_beta   97.832467
_cell_angle_gamma 89.515612
loop_
_atom_site_label
_atom_site_type_symbol
_atom_site_fract_x
_atom_site_fract_y
_atom_site_fract_z
_atom_type_partial_charge
H0 H 0.49029 0.02826 0.82695 0.0
H1 H 0.86531 0.96183 0.05436 0.0
H2 H 0.486 0.08623 0.96027 0.0
H3 H 0.4108 0.08326 0.93538 0.0
H4 H 0.38906 0.95734 0.96595 0.0
H5 H 0.46513 0.96023 0.99031 0.0
H6 H 0.5721 0.07033 0.9321 0.0
H7 H 0.54353 0.06412 0.88634 0.0
H8 H 0.48412 0.93954 0.89803 0.0
H9 H 0.51346 0.94589 0.94368 0.0
H10 H 0.67157 0.06565 0.96559 0.0
H11 H 0.72618 0.05241 0.93551 0.0
H12 H 0.67127 0.92349 0.91773 0.0
H13 H 0.61724 0.93661 0.94844 0.0
H14 H 0.68063 0.08206 0.02081 0.0
H15 H 0.76042 0.07741 0.03895 0.0
H16 H 0.75629 0.93743 0.02627 0.0
H17 H 0.67623 0.94255 0.00854 0.0
H18 H 0.60706 0.09806 0.04984 0.0
H19 H 0.66151 0.10798 0.08882 0.0
H20 H 0.67569 0.96818 0.09367 0.0
H21 H 0.62131 0.95869 0.05484 0.0
H22 H 0.49056 0.09493 0.01964 0.0
H23 H 0.43046 0.10083 0.04699 0.0
H24 H 0.46671 0.97339 0.07603 0.0
H25 H 0.52567 0.96732 0.04809 0.0
O26 O 0.50163 0.02986 0.84506 0.0
O27 O 0.47151 0.96608 0.85212 0.0
O28 O 0.83388 0.03659 0.05368 0.0
O29 O 0.83393 0.96465 0.04699 0.0
C30 C 0.52998 0.02072 0.98675 0.0
C31 C 0.56116 0.01311 0.96906 0.0
C32 C 0.60787 0.0102 0.97782 0.0
C33 C 0.62345 0.01531 0.00422 0.0
C34 C 0.59231 0.02232 0.02199 0.0
C35 C 0.54546 0.02495 0.01331 0.0
C36 C 0.48103 0.02335 0.97693 0.0
C37 C 0.46448 0.05858 0.96211 0.0
C38 C 0.42142 0.05682 0.94795 0.0
C39 C 0.39409 0.01981 0.94845 0.0
C40 C 0.40959 0.98597 0.96485 0.0
C41 C 0.45277 0.98775 0.979 0.0
C42 C 0.54476 0.00861 0.94117 0.0
C43 C 0.55315 0.04161 0.92469 0.0
C44 C 0.53667 0.03803 0.89859 0.0
C45 C 0.51145 0.00137 0.88853 0.0
C46 C 0.50337 0.96822 0.90515 0.0
C47 C 0.52001 0.97179 0.93122 0.0
C48 C 0.64064 0.00203 0.95932 0.0
C49 C 0.67164 0.03439 0.95543 0.0
C50 C 0.70281 0.02674 0.93829 0.0
C51 C 0.70312 0.98678 0.92446 0.0
C52 C 0.67165 0.95457 0.92812 0.0
C53 C 0.64086 0.96203 0.94559 0.0
C54 C 0.67269 0.01262 0.01352 0.0
C55 C 0.69707 0.05045 0.02195 0.0
C56 C 0.74263 0.04769 0.03229 0.0
C57 C 0.76471 0.007 0.03415 0.0
C58 C 0.74031 0.96925 0.02517 0.0
C59 C 0.69466 0.97206 0.01495 0.0
C60 C 0.61031 0.02768 0.04955 0.0
C61 C 0.62031 0.06963 0.06003 0.0
C62 C 0.65192 0.07522 0.08204 0.0
C63 C 0.67346 0.03886 0.09399 0.0
C64 C 0.65959 -0.00319 0.08496 0.0
C65 C 0.62828 0.99128 0.06287 0.0
C66 C 0.51245 0.03068 0.03186 0.0
C67 C 0.48569 0.06849 0.03209 0.0
C68 C 0.45153 0.07187 0.04781 0.0
C69 C 0.44353 0.03743 0.06357 0.0
C70 C 0.47145 0.00019 0.06382 0.0
C71 C 0.5055 -0.00315 0.04809 0.0
C72 C 0.49361 -0.00213 0.86084 0.0
C73 C 0.81291 0.00383 0.04552 0.0
H74 H 0.05172 0.47144 0.3538 0.0
H75 H 0.10301 0.85634 0.55993 0.0
H76 H 0.99038 0.48506 0.48767 0.0
H77 H 0.98788 0.42451 0.45641 0.0
H78 H 0.13385 0.41544 0.47001 0.0
H79 H 0.13555 0.47433 0.50236 0.0
H80 H 0.00624 0.55056 0.44953 0.0
H81 H 0.01194 0.52036 0.4065 0.0
H82 H 0.15735 0.51257 0.42568 0.0
H83 H 0.15104 0.54255 0.46873 0.0
H84 H 0.01618 0.65535 0.46632 0.0
H85 H 0.03272 0.70534 0.43346 0.0
H86 H 0.17549 0.67769 0.45233 0.0
H87 H 0.15855 0.62844 0.48535 0.0
H88 H 0.99419 0.66901 0.52823 0.0
H89 H 0.99225 0.74642 0.54085 0.0
H90 H 0.13759 0.75255 0.54342 0.0
H91 H 0.13908 0.675 0.53112 0.0
H92 H 0.97826 0.57822 0.55642 0.0
H93 H 0.95281 0.61437 0.594 0.0
H94 H 0.08675 0.66757 0.61579 0.0
H95 H 0.11225 0.62984 0.57872 0.0
H96 H 0.98941 0.48693 0.53476 0.0
H97 H 0.98613 0.42956 0.56556 0.0
H98 H 0.11759 0.46862 0.6042 0.0
H99 H 0.12134 0.52446 0.57255 0.0
O100 O 0.05042 0.48504 0.37053 0.0
O101 O 0.12522 0.48384 0.3808 0.0
O102 O 0.02816 0.82076 0.5535 0.0
O103 O 0.10279 0.82571 0.55491 0.0
C104 C 0.0657 0.53014 0.50664 0.0
C105 C 0.07386 0.56199 0.48909 0.0
C106 C 0.0762 0.60628 0.49677 0.0
C107 C 0.06786 0.61935 0.5216 0.0
C108 C 0.0592 0.58757 0.53924 0.0
C109 C 0.05932 0.54277 0.53192 0.0
C110 C 0.06313 0.48399 0.49737 0.0
C111 C 0.02155 0.46817 0.48509 0.0
C112 C 0.02034 0.43428 0.46669 0.0
C113 C 0.06078 0.41615 0.46 0.0
C114 C 0.10203 0.42861 0.47458 0.0
C115 C 0.10311 0.46209 0.49331 0.0
C116 C 0.07822 0.54869 0.46215 0.0
C117 C 0.03932 0.54286 0.44424 0.0
C118 C 0.04267 0.52541 0.41974 0.0
C119 C 0.08508 0.51378 0.4127 0.0
C120 C 0.12417 0.52107 0.4305 0.0
C121 C 0.12072 0.53842 0.45503 0.0
C122 C 0.08624 0.63877 0.47825 0.0
C123 C 0.05099 0.66055 0.46345 0.0
C124 C 0.06048 0.6886 0.44456 0.0
C125 C 0.10541 0.69524 0.44024 0.0
C126 C 0.14061 0.67354 0.45536 0.0
C127 C 0.13106 0.64546 0.47418 0.0
C128 C 0.06676 0.66649 0.52877 0.0
C129 C 0.02555 0.68716 0.53155 0.0
C130 C 0.02455 0.73136 0.53874 0.0
C131 C 0.0648 0.75569 0.54314 0.0
C132 C 0.106 0.73481 0.54017 0.0
C133 C 0.10695 0.69057 0.53307 0.0
C134 C 0.04696 0.6018 0.56467 0.0
C135 C 0.00246 0.5965 0.56978 0.0
C136 C 0.98788 0.61754 0.59114 0.0
C137 C 0.01752 0.64447 0.60771 0.0
C138 C 0.06306 0.6469 0.60358 0.0
C139 C 0.07767 0.6256 0.58229 0.0
C140 C 0.05595 0.50927 0.55116 0.0
C141 C 0.01766 0.48271 0.54971 0.0
C142 C 0.01562 0.45035 0.56755 0.0
C143 C 0.05174 0.44429 0.5873 0.0
C144 C 0.08958 0.4718 0.58898 0.0
C145 C 0.09166 0.50392 0.57104 0.0
C146 C 0.08832 0.49344 0.38706 0.0
C147 C 0.06395 0.80264 0.55082 0.0
Mg148 Mg 0.13218 0.05404 0.26543 0.0
O149 O 0.05867 0.04401 0.24546 0.0
O150 O 0.01708 0.02784 0.27612 0.0
Mg151 Mg 0.06094 0.03058 0.31496 0.0
C152 C 0.02092 0.03394 0.25268 0.0
C153 C 0.15356 0.05358 0.20952 0.0
O154 O 0.13361 0.01568 0.21006 0.0
O155 O 0.11379 0.12215 0.28034 0.0
O156 O 0.07183 0.10335 0.31039 0.0
O157 O 0.14591 0.9816 0.2635 0.0
O158 O 0.11982 0.01658 0.29565 0.0
C159 C 0.09 0.13213 0.29815 0.0
C160 C 0.13145 0.98036 0.28553 0.0
O161 O 0.15537 0.07932 0.22905 0.0
Mg162 Mg 0.97524 0.05618 0.74336 0.0
O163 O 0.04029 0.04387 0.77023 0.0
O164 O 0.09006 0.00962 0.74851 0.0
Mg165 Mg 0.05559 -0.00061 0.707 0.0
C166 C 0.07905 0.02658 0.76926 0.0
C167 C 0.94554 0.10867 0.79424 0.0
O168 O 0.94196 0.14623 0.80652 0.0
O169 O 0.00946 0.10943 0.72413 0.0
O170 O 0.05603 0.0734 0.70096 0.0
O171 O 0.94976 0.98909 0.75155 0.0
O172 O 0.98842 0.00335 0.72011 0.0
C173 C 0.03843 0.1089 0.70841 0.0
C174 C 0.96919 0.97507 0.7323 0.0
O175 O 0.9567 0.10864 0.77184 0.0
C176 C 0.39501 0.07817 0.09213 0.0
C177 C 0.40524 0.0395 0.07898 0.0
C178 C 0.35911 0.07966 0.10674 0.0
C179 C 0.33242 0.04242 0.10839 0.0
C180 C 0.34265 0.00398 0.09508 0.0
C181 C 0.37842 0.00252 0.08054 0.0
C182 C 0.29493 0.04108 0.12441 0.0
C183 C 0.2763 0.07624 0.13507 0.0
C184 C 0.2409 0.07237 0.15226 0.0
C185 C 0.23842 0.10411 0.17186 0.0
C186 C 0.20849 0.09923 0.18985 0.0
C187 C 0.18011 0.06261 0.18845 0.0
H188 H 0.20977 0.01313 0.13441 0.0
C189 C 0.18049 0.03239 0.16784 0.0
C190 C 0.21039 0.03726 0.1499 0.0
H191 H 0.15859 0.00417 0.16593 0.0
H192 H 0.41535 0.1071 0.09156 0.0
H193 H 0.35332 0.10978 0.11702 0.0
H194 H 0.32284 0.97476 0.09593 0.0
H195 H 0.38481 0.9724 0.07031 0.0
H196 H 0.28276 0.0089 0.12794 0.0
H197 H 0.28864 0.10868 0.13247 0.0
H198 H 0.26098 0.13187 0.17389 0.0
H199 H 0.20885 0.12332 0.20538 0.0
C200 C 0.08944 0.38433 0.61382 0.0
C201 C 0.05036 0.40884 0.60574 0.0
C202 C 0.08794 0.35009 0.63049 0.0
C203 C 0.04707 0.33914 0.63924 0.0
C204 C 0.00836 0.3644 0.6317 0.0
C205 C 0.00991 0.39877 0.61512 0.0
C206 C 0.04314 0.30173 0.65605 0.0
C207 C 0.07231 0.2678 0.65809 0.0
C208 C 0.06556 0.22833 0.67274 0.0
C209 C 0.08603 0.18907 0.66596 0.0
C210 C 0.07827 0.15053 0.67801 0.0
C211 C 0.04998 0.15041 0.69728 0.0
H212 H 0.02405 0.25852 0.69941 0.0
C213 C 0.03115 0.19011 0.70491 0.0
C214 C 0.03899 0.22869 0.69287 0.0
H215 H 0.00975 0.19138 0.71995 0.0
H216 H 0.12115 0.39106 0.60691 0.0
H217 H 0.11898 0.33255 0.63642 0.0
H218 H 0.97654 0.35714 0.63837 0.0
H219 H 0.97939 0.41752 0.6097 0.0
H220 H 0.01303 0.30075 0.66549 0.0
H221 H 0.1003 0.26686 0.64693 0.0
H222 H 0.10714 0.18791 0.65077 0.0
H223 H 0.09365 0.12066 0.67176 0.0
C224 C 0.72018 0.01868 0.1353 0.0
C225 C 0.71394 0.04443 0.11356 0.0
C226 C 0.76042 0.02107 0.15235 0.0
C227 C 0.79567 0.04889 0.1478 0.0
C228 C 0.78872 0.0755 0.12645 0.0
C229 C 0.74843 0.07325 0.10949 0.0
C230 C 0.83982 0.05162 0.16485 0.0
C231 C 0.85539 0.0206 0.18137 0.0
C232 C 0.89881 0.02417 0.19883 0.0
C233 C 0.90236 0.00384 0.22244 0.0
C234 C 0.94211 0.00684 0.23972 0.0
C235 C 0.97974 0.02956 0.23359 0.0
H236 H 0.93554 0.06129 0.17399 0.0
C237 C 0.97683 0.04877 0.20957 0.0
C238 C 0.93664 0.04631 0.19237 0.0
H239 H 0.0053 0.06632 0.20423 0.0
H240 H 0.69397 -0.00347 0.13905 0.0
H241 H 0.76334 0.00115 0.16902 0.0
H242 H 0.81499 0.09747 0.12251 0.0
H243 H 0.74495 0.09303 0.09268 0.0
H244 H 0.86039 0.08027 0.16349 0.0
H245 H 0.83519 0.99191 0.18306 0.0
H246 H 0.87395 0.98617 0.22777 0.0
H247 H 0.9433 0.99125 0.25794 0.0
C248 C 0.02561 0.68415 0.65084 0.0
C249 C 0.9999 0.67429 0.62694 0.0
C250 C 0.01203 0.71756 0.66697 0.0
C251 C 0.97244 0.74178 0.65942 0.0
C252 C 0.94564 0.73025 0.63622 0.0
C253 C 0.95907 0.69691 0.62021 0.0
C254 C 0.96163 0.78314 0.6728 0.0
C255 C 0.97805 0.7949 0.69714 0.0
C256 C 0.97441 0.8408 0.70655 0.0
C257 C 0.96595 0.85091 0.7317 0.0
C258 C 0.9633 0.89462 0.74031 0.0
C259 C 0.97043 0.92858 0.72407 0.0
H260 H 0.98939 0.86831 0.67126 0.0
C261 C 0.97963 0.91812 0.69914 0.0
C262 C 0.9815 0.87494 0.69049 0.0
H263 H 0.98529 0.94344 0.6861 0.0
H264 H 0.05708 0.66712 0.65666 0.0
H265 H 0.03401 0.72589 0.68449 0.0
H266 H 0.91521 0.74855 0.62981 0.0
H267 H 0.93872 0.69079 0.60182 0.0
H268 H 0.94073 0.80645 0.66134 0.0
H269 H 0.99555 0.77146 0.70999 0.0
H270 H 0.96096 0.82507 0.74452 0.0
H271 H 0.95643 0.90179 0.75968 0.0
C272 C 0.32321 0.05046 0.92393 0.0
C273 C 0.35206 0.01474 0.92993 0.0
C274 C 0.28689 0.04691 0.90418 0.0
C275 C 0.27842 0.00732 0.89007 0.0
C276 C 0.30651 0.97135 0.89662 0.0
C277 C 0.34281 0.97493 0.91631 0.0
C278 C 0.24318 0.00297 0.86724 0.0
C279 C 0.20819 0.03081 0.86212 0.0
C280 C 0.17524 0.02769 0.83826 0.0
C281 C 0.13218 0.04641 0.83826 0.0
C282 C 0.10087 0.04566 0.81597 0.0
C283 C 0.1121 0.02654 0.793 0.0
H284 H 0.2199 0.99507 0.81421 0.0
C285 C 0.1553 0.00793 0.79296 0.0
C286 C 0.18658 0.00859 0.81529 0.0
H287 H 0.16524 0.9932 0.77559 0.0
H288 H 0.32935 0.08154 0.93412 0.0
H289 H 0.26687 0.07579 0.89953 0.0
H290 H 0.30109 0.94056 0.88601 0.0
H291 H 0.36482 0.94697 0.92008 0.0
H292 H 0.2462 0.97519 0.85426 0.0
H293 H 0.20242 0.0563 0.87609 0.0
H294 H 0.12267 0.06169 0.85559 0.0
H295 H 0.06794 0.0604 0.81676 0.0
C296 C 0.09099 0.35391 0.43477 0.0
C297 C 0.06026 0.3886 0.43618 0.0
C298 C 0.09134 0.32943 0.41192 0.0
C299 C 0.06085 0.3391 0.39001 0.0
C300 C 0.03015 0.37359 0.39141 0.0
C301 C 0.03015 0.39837 0.41411 0.0
C302 C 0.05749 0.31125 0.36629 0.0
C303 C 0.09308 0.28974 0.35866 0.0
C304 C 0.08831 0.25485 0.33824 0.0
C305 C 0.12598 0.24277 0.32618 0.0
C306 C 0.12519 0.20468 0.31071 0.0
C307 C 0.08695 0.17769 0.30755 0.0
H308 H 0.01934 0.237 0.34251 0.0
C309 C 0.04826 0.19132 0.31813 0.0
C310 C 0.04881 0.2295 0.33325 0.0
H311 H 0.0184 0.17095 0.31604 0.0
H312 H 0.11434 0.3452 0.45142 0.0
H313 H 0.11454 0.30214 0.41173 0.0
H314 H 0.00616 0.38152 0.37485 0.0
H315 H 0.00684 0.4256 0.41419 0.0
H316 H 0.02431 0.30805 0.35502 0.0
H317 H 0.12688 0.29641 0.3685 0.0
H318 H 0.15688 0.26161 0.3298 0.0
H319 H 0.15565 0.19461 0.303 0.0
C320 C 0.78135 0.99094 0.91274 0.0
C321 C 0.73575 0.97953 0.9059 0.0
C322 C 0.81124 0.98906 0.89454 0.0
C323 C 0.79612 0.97571 0.86898 0.0
C324 C 0.75087 0.96272 0.86242 0.0
C325 C 0.72102 0.96423 0.88075 0.0
C326 C 0.8245 0.98167 0.84826 0.0
C327 C 0.87003 0.98362 0.85252 0.0
C328 C 0.89647 0.00688 0.8353 0.0
C329 C 0.93306 0.03241 0.84666 0.0
C330 C 0.95181 0.06342 0.83252 0.0
C331 C 0.9352 0.06849 0.80659 0.0
H332 H 0.85537 0.98902 0.79923 0.0
C333 C 0.90207 0.0398 0.79444 0.0
C334 C 0.88266 0.00915 0.80872 0.0
H335 H 0.88861 0.04345 0.77447 0.0
H336 H 0.7936 0.00262 0.93205 0.0
H337 H 0.84536 0.00063 0.90034 0.0
H338 H 0.73816 0.95289 0.84284 0.0
H339 H 0.68593 0.95554 0.87493 0.0
H340 H 0.80671 0.98988 0.82965 0.0
H341 H 0.88764 0.97504 0.87111 0.0
H342 H 0.94462 0.03105 0.86702 0.0
H343 H 0.97741 0.08529 0.84223 0.0
C344 C 0.08889 0.72551 0.39624 0.0
C345 C 0.1156 0.72533 0.42038 0.0
C346 C 0.09714 0.75555 0.37807 0.0
C347 C 0.13238 0.78601 0.38374 0.0
C348 C 0.1596 0.78509 0.40764 0.0
C349 C 0.15147 0.75501 0.42572 0.0
C350 C 0.13876 0.82218 0.36663 0.0
C351 C 0.12285 0.82252 0.34145 0.0
C352 C 0.12449 0.86266 0.3267 0.0
C353 C 0.13112 0.86018 0.3008 0.0
C354 C 0.13329 0.89833 0.28707 0.0
C355 C 0.1279 0.93936 0.299 0.0
H356 H 0.1114 0.90678 0.35797 0.0
C357 C 0.12003 0.94148 0.32468 0.0
C358 C 0.11817 0.9037 0.33831 0.0
H359 H 0.11587 0.97248 0.33453 0.0
H360 H 0.06125 0.70271 0.39151 0.0
H361 H 0.07476 0.75579 0.36011 0.0
H362 H 0.18666 0.80847 0.41261 0.0
H363 H 0.17236 0.75599 0.44423 0.0
H364 H 0.15696 0.85055 0.37549 0.0
H365 H 0.10857 0.79329 0.33143 0.0
H366 H 0.13543 0.82882 0.29135 0.0
H367 H 0.13922 0.89574 0.26726 0.0
loop_
_geom_bond_atom_site_label_1
_geom_bond_atom_site_label_2
_geom_bond_distance
_geom_bond_site_symmetry_2
_ccdc_geom_bond_type
H0 O26 0.856 . S
H1 O29 0.854 . S
H2 C37 0.930 . S
H3 C38 0.930 . S
H4 C40 0.930 1_565 S
H5 C41 0.930 1_565 S
H6 C43 0.931 . S
H7 C44 0.930 . S
H8 C46 0.930 . S
H9 C47 0.929 . S
H10 C49 0.930 . S
H11 C50 0.931 . S
H12 C52 0.930 . S
H13 C53 0.929 . S
H14 C55 0.931 . S
H15 C56 0.930 . S
H16 C58 0.930 . S
H17 C59 0.932 1_556 S
H18 C61 0.930 . S
H19 C62 0.929 . S
H20 C64 0.931 1_565 S
H21 C65 0.930 1_565 S
H22 C67 0.929 . S
H23 C68 0.931 . S
H24 C70 0.930 . S
H25 C71 0.949 . S
O26 H0 0.856 . S
O26 C72 1.300 . S
O27 C72 1.209 1_565 S
O28 C73 1.199 . S
O29 H1 0.854 . S
O29 C73 1.297 1_565 S
C30 C31 1.404 . S
C30 C35 1.397 1_556 S
C30 C36 1.492 . S
C31 C30 1.404 . S
C31 C32 1.396 . S
C31 C42 1.492 . S
C32 C31 1.396 . S
C32 C33 1.397 1_556 S
C32 C48 1.509 . S
C33 C32 1.397 1_554 S
C33 C34 1.412 . S
C33 C54 1.485 . S
C34 C33 1.412 . S
C34 C35 1.388 . S
C34 C60 1.490 . S
C35 C30 1.397 1_554 S
C35 C34 1.388 . S
C35 C66 1.519 . S
C36 C30 1.492 . S
C36 C37 1.363 . S
C36 C41 1.390 . S
C37 H2 0.930 . S
C37 C36 1.363 . S
C37 C38 1.372 . S
C38 H3 0.930 . S
C38 C37 1.372 . S
C38 C39 1.383 . S
C39 C38 1.383 . S
C39 C40 1.395 . S
C40 H4 0.930 1_545 S
C40 C39 1.395 . S
C40 C41 1.362 . S
C41 H5 0.930 1_545 S
C41 C36 1.390 . S
C41 C40 1.362 . S
C42 C31 1.492 . S
C42 C43 1.377 . S
C42 C47 1.397 1_545 S
C43 H6 0.931 . S
C43 C42 1.377 . S
C43 C44 1.376 . S
C44 H7 0.930 . S
C44 C43 1.376 . S
C44 C45 1.376 . S
C45 C44 1.376 . S
C45 C46 1.378 1_545 S
C45 C72 1.486 . S
C46 H8 0.930 . S
C46 C45 1.378 1_565 S
C46 C47 1.376 . S
C47 H9 0.929 . S
C47 C42 1.397 1_565 S
C47 C46 1.376 . S
C48 C32 1.509 . S
C48 C49 1.391 . S
C48 C53 1.386 1_545 S
C49 H10 0.930 . S
C49 C48 1.391 . S
C49 C50 1.375 . S
C50 H11 0.931 . S
C50 C49 1.375 . S
C50 C51 1.375 . S
C51 C50 1.375 . S
C51 C52 1.361 1_545 S
C52 H12 0.930 . S
C52 C51 1.361 1_565 S
C52 C53 1.399 . S
C53 H13 0.929 . S
C53 C48 1.386 1_565 S
C53 C52 1.399 . S
C54 C33 1.485 . S
C54 C55 1.394 . S
C54 C59 1.360 1_545 S
C55 H14 0.931 . S
C55 C54 1.394 . S
C55 C56 1.372 . S
C56 H15 0.930 . S
C56 C55 1.372 . S
C56 C57 1.397 . S
C57 C56 1.397 . S
C57 C58 1.390 1_545 S
C57 C73 1.476 . S
C58 H16 0.930 . S
C58 C57 1.390 1_565 S
C58 C59 1.366 . S
C59 H17 0.932 1_554 S
C59 C54 1.360 1_565 S
C59 C58 1.366 . S
C60 C34 1.490 . S
C60 C61 1.380 . S
C60 C65 1.386 . S
C61 H18 0.930 . S
C61 C60 1.380 . S
C61 C62 1.381 . S
C62 H19 0.929 . S
C62 C61 1.381 . S
C62 C63 1.371 . S
C63 C62 1.371 . S
C63 C64 1.380 . S
C64 H20 0.931 1_545 S
C64 C63 1.380 . S
C64 C65 1.387 . S
C65 H21 0.930 1_545 S
C65 C60 1.386 . S
C65 C64 1.387 . S
C66 C35 1.519 . S
C66 C67 1.377 . S
C66 C71 1.339 1_545 S
C67 H22 0.929 . S
C67 C66 1.377 . S
C67 C68 1.386 . S
C68 H23 0.931 . S
C68 C67 1.386 . S
C68 C69 1.363 . S
C69 C68 1.363 . S
C69 C70 1.385 1_545 S
C70 H24 0.930 . S
C70 C69 1.385 1_565 S
C70 C71 1.399 . S
C71 H25 0.949 . S
C71 C66 1.339 1_565 S
C71 C70 1.399 . S
C72 O26 1.300 . S
C72 O27 1.209 1_545 S
C72 C45 1.486 . S
C73 O28 1.199 . S
C73 O29 1.297 1_545 S
C73 C57 1.476 . S
H74 O100 0.856 . S
H75 O103 0.854 . S
H76 C111 0.930 1_655 S
H77 C112 0.930 1_655 S
H78 C114 0.930 . S
H79 C115 0.930 . S
H80 C117 0.931 . S
H81 C118 0.930 . S
H82 C120 0.930 . S
H83 C121 0.929 . S
H84 C123 0.930 . S
H85 C124 0.931 . S
H86 C126 0.930 . S
H87 C127 0.929 . S
H88 C129 0.931 . S
H89 C130 0.930 . S
H90 C132 0.930 . S
H91 C133 0.932 . S
H92 C135 0.930 1_655 S
H93 C136 0.929 1_655 S
H94 C138 0.931 . S
H95 C139 0.930 . S
H96 C141 0.920 1_655 S
H97 C142 0.931 . S
H98 C144 0.930 . S
H99 C145 0.929 . S
O100 H74 0.856 . S
O100 C146 1.300 . S
O101 C146 1.209 . S
O102 C147 1.199 . S
O103 H75 0.854 . S
O103 C147 1.297 . S
C104 C105 1.404 . S
C104 C109 1.397 . S
C104 C110 1.492 . S
C105 C104 1.404 . S
C105 C106 1.396 . S
C105 C116 1.492 . S
C106 C105 1.396 . S
C106 C107 1.397 . S
C106 C122 1.509 . S
C107 C106 1.397 . S
C107 C108 1.412 . S
C107 C128 1.485 . S
C108 C107 1.412 . S
C108 C109 1.388 . S
C108 C134 1.490 . S
C109 C104 1.397 . S
C109 C108 1.388 . S
C109 C140 1.519 . S
C110 C104 1.492 . S
C110 C111 1.363 . S
C110 C115 1.390 . S
C111 H76 0.930 1_455 S
C111 C110 1.363 . S
C111 C112 1.372 . S
C112 H77 0.930 1_455 S
C112 C111 1.372 . S
C112 C113 1.383 . S
C113 C112 1.383 . S
C113 C114 1.395 . S
C114 H78 0.930 . S
C114 C113 1.395 . S
C114 C115 1.362 . S
C115 H79 0.930 . S
C115 C110 1.390 . S
C115 C114 1.362 . S
C116 C105 1.492 . S
C116 C117 1.377 . S
C116 C121 1.397 . S
C117 H80 0.931 . S
C117 C116 1.377 . S
C117 C118 1.376 . S
C118 H81 0.930 . S
C118 C117 1.376 . S
C118 C119 1.376 . S
C119 C118 1.376 . S
C119 C120 1.378 . S
C119 C146 1.486 . S
C120 H82 0.930 . S
C120 C119 1.378 . S
C120 C121 1.376 . S
C121 H83 0.929 . S
C121 C116 1.397 . S
C121 C120 1.376 . S
C122 C106 1.509 . S
C122 C123 1.391 . S
C122 C127 1.386 . S
C123 H84 0.930 . S
C123 C122 1.391 . S
C123 C124 1.375 . S
C124 H85 0.931 . S
C124 C123 1.375 . S
C124 C125 1.375 . S
C125 C124 1.375 . S
C125 C126 1.361 . S
C126 H86 0.930 . S
C126 C125 1.361 . S
C126 C127 1.399 . S
C127 H87 0.929 . S
C127 C122 1.386 . S
C127 C126 1.399 . S
C128 C107 1.485 . S
C128 C129 1.394 . S
C128 C133 1.360 . S
C129 H88 0.931 . S
C129 C128 1.394 . S
C129 C130 1.372 . S
C130 H89 0.930 . S
C130 C129 1.372 . S
C130 C131 1.397 . S
C131 C130 1.397 . S
C131 C132 1.390 . S
C131 C147 1.476 . S
C132 H90 0.930 . S
C132 C131 1.390 . S
C132 C133 1.366 . S
C133 H91 0.932 . S
C133 C128 1.360 . S
C133 C132 1.366 . S
C134 C108 1.490 . S
C134 C135 1.380 . S
C134 C139 1.386 . S
C135 H92 0.930 1_455 S
C135 C134 1.380 . S
C135 C136 1.381 . S
C136 H93 0.929 1_455 S
C136 C135 1.381 . S
C136 C137 1.371 . S
C137 C136 1.371 . S
C137 C138 1.380 . S
C138 H94 0.931 . S
C138 C137 1.380 . S
C138 C139 1.387 . S
C139 H95 0.930 . S
C139 C134 1.386 . S
C139 C138 1.387 . S
C140 C109 1.519 . S
C140 C141 1.377 . S
C140 C145 1.361 . S
C141 H96 0.920 1_455 S
C141 C140 1.377 . S
C141 C142 1.386 . S
C142 H97 0.931 . S
C142 C141 1.386 . S
C142 C143 1.363 . S
C143 C142 1.363 . S
C143 C144 1.385 . S
C144 H98 0.930 . S
C144 C143 1.385 . S
C144 C145 1.396 . S
C145 H99 0.929 . S
C145 C140 1.361 . S
C145 C144 1.396 . S
C146 O100 1.300 . S
C146 O101 1.209 . S
C146 C119 1.486 . S
C147 O102 1.199 . S
C147 O103 1.297 . S
C147 C131 1.476 . S
Mg148 O149 2.028 . S
Mg148 O155 1.986 . S
Mg148 O157 2.114 1_545 S
Mg148 O158 2.251 . S
Mg148 O161 2.010 . S
O149 Mg148 2.028 . S
O149 C152 1.248 1_455 S
O150 Mg151 2.028 . S
O150 C152 1.249 . S
Mg151 O150 2.028 . S
Mg151 O156 2.032 1_655 S
Mg151 O158 2.079 1_655 S
C152 O149 1.248 1_655 S
C152 O150 1.249 . S
C153 O154 1.264 . S
C153 O161 1.249 . S
O154 C153 1.264 . S
O155 Mg148 1.986 . S
O155 C159 1.246 . S
O156 Mg151 2.032 1_455 S
O156 C159 1.259 . S
O157 Mg148 2.114 1_565 S
O157 C160 1.252 . S
O158 Mg148 2.251 . S
O158 Mg151 2.079 1_455 S
O158 C160 1.273 1_545 S
C159 O155 1.246 . S
C159 O156 1.259 . S
C160 O157 1.252 . S
C160 O158 1.273 1_565 S
O161 Mg148 2.010 . S
O161 C153 1.249 . S
Mg162 O163 2.028 . S
Mg162 O169 1.986 . S
Mg162 O171 2.114 1_545 S
Mg162 O172 2.251 1_545 S
Mg162 O175 2.010 1_455 S
O163 Mg162 2.028 . S
O163 C166 1.250 . S
O164 Mg165 2.028 . S
O164 C166 1.248 . S
Mg165 O164 2.028 . S
Mg165 O170 2.032 . S
Mg165 O172 2.079 1_545 S
C166 O163 1.250 . S
C166 O164 1.248 . S
C167 O168 1.264 . S
C167 O175 1.249 . S
O168 C167 1.264 . S
O169 Mg162 1.986 . S
O169 C173 1.246 . S
O170 Mg165 2.032 . S
O170 C173 1.259 . S
O171 Mg162 2.114 1_565 S
O171 C174 1.252 . S
O172 Mg162 2.251 1_565 S
O172 Mg165 2.079 1_565 S
O172 C174 1.273 . S
C173 O169 1.246 . S
C173 O170 1.259 . S
C174 O171 1.252 . S
C174 O172 1.273 . S
O175 Mg162 2.010 1_655 S
O175 C167 1.249 . S
C176 C177 1.386 . S
C176 C178 1.383 . S
C176 H192 0.951 . S
C177 C176 1.386 . S
C177 C181 1.371 1_545 S
C178 C176 1.383 . S
C178 C179 1.402 . S
C178 H193 0.951 . S
C179 C178 1.402 . S
C179 C180 1.379 . S
C179 C182 1.481 . S
C180 C179 1.379 . S
C180 C181 1.367 1_545 S
C180 H194 0.947 1_545 S
C181 C177 1.371 1_565 S
C181 C180 1.367 1_565 S
C181 H195 0.962 . S
C182 C179 1.481 . S
C182 C183 1.297 . S
C182 H196 0.950 . S
C183 C182 1.297 . S
C183 C184 1.479 . S
C183 H197 0.950 . S
C184 C183 1.479 . S
C184 C185 1.375 . S
C184 C190 1.404 . S
C185 C184 1.375 . S
C185 C186 1.369 . S
C185 H198 0.950 . S
C186 C185 1.369 . S
C186 C187 1.392 . S
C186 H199 0.951 . S
C187 C186 1.392 . S
C187 C189 1.384 . S
H188 C190 0.949 . S
C189 C187 1.384 . S
C189 C190 1.385 . S
C189 H191 0.950 . S
C190 C184 1.404 . S
C190 H188 0.949 . S
C190 C189 1.385 . S
H191 C189 0.950 . S
H192 C176 0.951 . S
H193 C178 0.951 . S
H194 C180 0.947 1_565 S
H195 C181 0.962 . S
H196 C182 0.950 . S
H197 C183 0.950 . S
H198 C185 0.950 . S
H199 C186 0.951 . S
C200 C201 1.386 . S
C200 C202 1.383 . S
C200 H216 0.951 . S
C201 C200 1.386 . S
C201 C205 1.383 . S
C202 C200 1.383 . S
C202 C203 1.402 . S
C202 H217 0.951 . S
C203 C202 1.402 . S
C203 C204 1.375 . S
C203 C206 1.481 . S
C204 C203 1.375 . S
C204 C205 1.367 . S
C204 H218 0.951 . S
C205 C201 1.383 . S
C205 C204 1.367 . S
C205 H219 0.950 . S
C206 C203 1.481 . S
C206 C207 1.297 . S
C206 H220 0.950 . S
C207 C206 1.297 . S
C207 C208 1.479 . S
C207 H221 0.950 . S
C208 C207 1.479 . S
C208 C209 1.375 . S
C208 C214 1.404 . S
C209 C208 1.375 . S
C209 C210 1.369 . S
C209 H222 0.950 . S
C210 C209 1.369 . S
C210 C211 1.392 . S
C210 H223 0.951 . S
C211 C210 1.392 . S
C211 C213 1.384 . S
H212 C214 0.949 . S
C213 C211 1.384 . S
C213 C214 1.385 . S
C213 H215 0.950 . S
C214 C208 1.404 . S
C214 H212 0.949 . S
C214 C213 1.385 . S
H215 C213 0.950 . S
H216 C200 0.951 . S
H217 C202 0.951 . S
H218 C204 0.951 . S
H219 C205 0.950 . S
H220 C206 0.950 . S
H221 C207 0.950 . S
H222 C209 0.950 . S
H223 C210 0.951 . S
C224 C225 1.386 . S
C224 C226 1.383 . S
C224 H240 0.951 1_545 S
C225 C224 1.386 . S
C225 C229 1.383 . S
C226 C224 1.383 . S
C226 C227 1.402 . S
C226 H241 0.951 . S
C227 C226 1.402 . S
C227 C228 1.375 . S
C227 C230 1.481 . S
C228 C227 1.375 . S
C228 C229 1.367 . S
C228 H242 0.951 . S
C229 C225 1.383 . S
C229 C228 1.367 . S
C229 H243 0.950 . S
C230 C227 1.481 . S
C230 C231 1.297 . S
C230 H244 0.950 . S
C231 C230 1.297 . S
C231 C232 1.479 . S
C231 H245 0.950 . S
C232 C231 1.479 . S
C232 C233 1.375 . S
C232 C238 1.404 . S
C233 C232 1.375 . S
C233 C234 1.369 . S
C233 H246 0.950 1_545 S
C234 C233 1.369 . S
C234 C235 1.392 . S
C234 H247 0.951 1_545 S
C235 C234 1.392 . S
C235 C237 1.384 . S
H236 C238 0.949 . S
C237 C235 1.384 . S
C237 C238 1.385 . S
C237 H239 0.950 . S
C238 C232 1.404 . S
C238 H236 0.949 . S
C238 C237 1.385 . S
H239 C237 0.950 . S
H240 C224 0.951 1_565 S
H241 C226 0.951 . S
H242 C228 0.951 . S
H243 C229 0.950 . S
H244 C230 0.950 . S
H245 C231 0.950 . S
H246 C233 0.950 1_565 S
H247 C234 0.951 1_565 S
C248 C249 1.386 . S
C248 C250 1.383 . S
C248 H264 0.951 . S
C249 C248 1.386 . S
C249 C253 1.383 . S
C250 C248 1.383 . S
C250 C251 1.402 . S
C250 H265 0.951 . S
C251 C250 1.402 . S
C251 C252 1.375 . S
C251 C254 1.481 . S
C252 C251 1.375 . S
C252 C253 1.367 . S
C252 H266 0.951 . S
C253 C249 1.383 . S
C253 C252 1.367 . S
C253 H267 0.950 . S
C254 C251 1.481 . S
C254 C255 1.297 . S
C254 H268 0.950 . S
C255 C254 1.297 . S
C255 C256 1.479 . S
C255 H269 0.950 . S
C256 C255 1.479 . S
C256 C257 1.375 . S
C256 C262 1.404 . S
C257 C256 1.375 . S
C257 C258 1.369 . S
C257 H270 0.950 . S
C258 C257 1.369 . S
C258 C259 1.392 . S
C258 H271 0.951 . S
C259 C258 1.392 . S
C259 C261 1.384 . S
H260 C262 0.949 . S
C261 C259 1.384 . S
C261 C262 1.385 . S
C261 H263 0.950 . S
C262 C256 1.404 . S
C262 H260 0.949 . S
C262 C261 1.385 . S
H263 C261 0.950 . S
H264 C248 0.951 . S
H265 C250 0.951 . S
H266 C252 0.951 . S
H267 C253 0.950 . S
H268 C254 0.950 . S
H269 C255 0.950 . S
H270 C257 0.950 . S
H271 C258 0.951 . S
C272 C273 1.386 . S
C272 C274 1.383 . S
C272 H288 0.951 . S
C273 C272 1.386 . S
C273 C277 1.383 . S
C274 C272 1.383 . S
C274 C275 1.402 . S
C274 H289 0.951 . S
C275 C274 1.402 . S
C275 C276 1.375 . S
C275 C278 1.481 . S
C276 C275 1.375 . S
C276 C277 1.367 . S
C276 H290 0.951 1_545 S
C277 C273 1.383 . S
C277 C276 1.367 . S
C277 H291 0.950 1_545 S
C278 C275 1.481 . S
C278 C279 1.297 . S
C278 H292 0.950 . S
C279 C278 1.297 . S
C279 C280 1.479 . S
C279 H293 0.950 . S
C280 C279 1.479 . S
C280 C281 1.375 . S
C280 C286 1.404 . S
C281 C280 1.375 . S
C281 C282 1.369 . S
C281 H294 0.950 . S
C282 C281 1.369 . S
C282 C283 1.392 . S
C282 H295 0.951 . S
C283 C282 1.392 . S
C283 C285 1.384 . S
H284 C286 0.949 1_565 S
C285 C283 1.384 . S
C285 C286 1.385 . S
C285 H287 0.950 1_545 S
C286 C280 1.404 . S
C286 H284 0.949 1_545 S
C286 C285 1.385 . S
H287 C285 0.950 1_565 S
H288 C272 0.951 . S
H289 C274 0.951 . S
H290 C276 0.951 1_565 S
H291 C277 0.950 1_565 S
H292 C278 0.950 . S
H293 C279 0.950 . S
H294 C281 0.950 . S
H295 C282 0.951 . S
C296 C297 1.386 . S
C296 C298 1.383 . S
C296 H312 0.951 . S
C297 C296 1.386 . S
C297 C301 1.383 . S
C298 C296 1.383 . S
C298 C299 1.402 . S
C298 H313 0.951 . S
C299 C298 1.402 . S
C299 C300 1.375 . S
C299 C302 1.481 . S
C300 C299 1.375 . S
C300 C301 1.367 . S
C300 H314 0.951 . S
C301 C297 1.383 . S
C301 C300 1.367 . S
C301 H315 0.950 . S
C302 C299 1.481 . S
C302 C303 1.297 . S
C302 H316 0.950 . S
C303 C302 1.297 . S
C303 C304 1.479 . S
C303 H317 0.950 . S
C304 C303 1.479 . S
C304 C305 1.375 . S
C304 C310 1.404 . S
C305 C304 1.375 . S
C305 C306 1.369 . S
C305 H318 0.950 . S
C306 C305 1.369 . S
C306 C307 1.392 . S
C306 H319 0.951 . S
C307 C306 1.392 . S
C307 C309 1.384 . S
H308 C310 0.949 . S
C309 C307 1.384 . S
C309 C310 1.385 . S
C309 H311 0.950 . S
C310 C304 1.404 . S
C310 H308 0.949 . S
C310 C309 1.385 . S
H311 C309 0.950 . S
H312 C296 0.951 . S
H313 C298 0.951 . S
H314 C300 0.951 . S
H315 C301 0.950 . S
H316 C302 0.950 . S
H317 C303 0.950 . S
H318 C305 0.950 . S
H319 C306 0.951 . S
C320 C321 1.386 . S
C320 C322 1.383 . S
C320 H336 0.951 . S
C321 C320 1.386 . S
C321 C325 1.383 1_545 S
C322 C320 1.383 . S
C322 C323 1.397 1_545 S
C322 H337 0.951 . S
C323 C322 1.397 1_565 S
C323 C324 1.379 . S
C323 C326 1.481 . S
C324 C323 1.379 . S
C324 C325 1.367 . S
C324 H338 0.951 . S
C325 C321 1.383 1_565 S
C325 C324 1.367 . S
C325 H339 0.950 . S
C326 C323 1.481 . S
C326 C327 1.297 1_565 S
C326 H340 0.950 . S
C327 C326 1.297 1_545 S
C327 C328 1.479 . S
C327 H341 0.950 . S
C328 C327 1.479 . S
C328 C329 1.375 . S
C328 C334 1.404 1_545 S
C329 C328 1.375 . S
C329 C330 1.369 . S
C329 H342 0.950 . S
C330 C329 1.369 . S
C330 C331 1.392 . S
C330 H343 0.951 . S
C331 C330 1.392 . S
C331 C333 1.384 1_545 S
H332 C334 0.949 . S
C333 C331 1.384 1_565 S
C333 C334 1.385 . S
C333 H335 0.950 . S
C334 C328 1.404 1_565 S
C334 H332 0.949 . S
C334 C333 1.385 . S
H335 C333 0.950 . S
H336 C320 0.951 . S
H337 C322 0.951 . S
H338 C324 0.951 . S
H339 C325 0.950 . S
H340 C326 0.950 . S
H341 C327 0.950 . S
H342 C329 0.950 . S
H343 C330 0.951 . S
C344 C345 1.386 . S
C344 C346 1.383 . S
C344 H360 0.951 . S
C345 C344 1.386 . S
C345 C349 1.383 . S
C346 C344 1.383 . S
C346 C347 1.402 . S
C346 H361 0.951 . S
C347 C346 1.402 . S
C347 C348 1.375 . S
C347 C350 1.481 . S
C348 C347 1.375 . S
C348 C349 1.367 . S
C348 H362 0.951 . S
C349 C345 1.383 . S
C349 C348 1.367 . S
C349 H363 0.950 . S
C350 C347 1.481 . S
C350 C351 1.297 . S
C350 H364 0.950 . S
C351 C350 1.297 . S
C351 C352 1.479 . S
C351 H365 0.950 . S
C352 C351 1.479 . S
C352 C353 1.375 . S
C352 C358 1.404 . S
C353 C352 1.375 . S
C353 C354 1.369 . S
C353 H366 0.950 . S
C354 C353 1.369 . S
C354 C355 1.392 . S
C354 H367 0.951 . S
C355 C354 1.392 . S
C355 C357 1.384 . S
H356 C358 0.949 . S
C357 C355 1.384 . S
C357 C358 1.385 . S
C357 H359 0.950 . S
C358 C352 1.404 . S
C358 H356 0.949 . S
C358 C357 1.385 . S
H359 C357 0.950 . S
H360 C344 0.951 . S
H361 C346 0.951 . S
H362 C348 0.951 . S
H363 C349 0.950 . S
H364 C350 0.950 . S
H365 C351 0.950 . S
H366 C353 0.950 . S
H367 C354 0.951 . S
C187 C153 1.933 . S
C177 C69 2.161 . S
C211 C173 2.125 . S
C201 C143 2.199 . S
C235 C152 1.519 . S
C225 C63 1.418 . S
C259 C174 1.522 . S
C249 C137 1.386 . S
C283 C166 1.387 . S
C273 C39 1.319 . S
C307 C159 1.257 . S
C297 C113 1.304 . S
C331 C167 0.848 . S
C321 C51 0.764 . S
C345 C125 0.759 . S
C355 C160 0.764 . S
