# Generated by pormake.
# Topology ftw, (4,12)-cn, num edge types: 1
# Building blocks:
#     Node 0, Type 0, BuildingBlock: MIFKUJ_clean_linker_1, # of connection points: 4
#     Node 1, Type 0, BuildingBlock: MIFKUJ_clean_linker_1, # of connection points: 4
#     Node 2, Type 0, BuildingBlock: MIFKUJ_clean_linker_1, # of connection points: 4
#     Node 3, Type 1, BuildingBlock: EZIPEK_clean_sbu_0, # of connection points: 12
#     Edge 4, Type (0, 1), BuildingBlock: CIFDUS_clean_linker_0, # of connection points: 2
#     Edge 5, Type (0, 1), BuildingBlock: CIFDUS_clean_linker_0, # of connection points: 2
#     Edge 6, Type (0, 1), BuildingBlock: CIFDUS_clean_linker_0, # of connection points: 2
#     Edge 7, Type (0, 1), BuildingBlock: CIFDUS_clean_linker_0, # of connection points: 2
#     Edge 8, Type (0, 1), BuildingBlock: CIFDUS_clean_linker_0, # of connection points: 2
#     Edge 9, Type (0, 1), BuildingBlock: CIFDUS_clean_linker_0, # of connection points: 2
#     Edge 10, Type (0, 1), BuildingBlock: CIFDUS_clean_linker_0, # of connection points: 2
#     Edge 11, Type (0, 1), BuildingBlock: CIFDUS_clean_linker_0, # of connection points: 2
#     Edge 12, Type (0, 1), BuildingBlock: CIFDUS_clean_linker_0, # of connection points: 2
#     Edge 13, Type (0, 1), BuildingBlock: CIFDUS_clean_linker_0, # of connection points: 2
#     Edge 14, Type (0, 1), BuildingBlock: CIFDUS_clean_linker_0, # of connection points: 2
#     Edge 15, Type (0, 1), BuildingBlock: CIFDUS_clean_linker_0, # of connection points: 2
# Relax obj value: 0.048
# Max RMSD: 0.168
# Mean RMSD: 0.128
data_MOF--net-ftw--node1-EZIPEK_clean_sbu_0--node2-MIFKUJ_clean_linker_1--edge1-CIFDUS_clean_linker_0
_symmetry_space_group_name_H-M    P1
_symmetry_Int_Tables_number       1
_symmetry_cell_setting            triclinic
loop_
_symmetry_equiv_pos_as_xyz
'x, y, z'
_cell_length_a     25.11792
_cell_length_b     26.153004
_cell_length_c     25.434904
_cell_angle_alpha  89.905781
_cell_angle_beta   89.660671
_cell_angle_gamma 90.53785
loop_
_atom_site_label
_atom_site_type_symbol
_atom_site_fract_x
_atom_site_fract_y
_atom_site_fract_z
_atom_type_partial_charge
H0 H 0.07906 0.60899 0.60379 0.0
H1 H 0.08117 0.67336 0.67307 0.0
H2 H 0.92468 0.72363 0.62761 0.0
H3 H 0.92313 0.65909 0.5576 0.0
H4 H 0.00339 0.53431 0.60988 0.0
H5 H 0.05851 0.66486 0.4861 0.0
H6 H 0.06135 0.73729 0.42494 0.0
H7 H 0.91614 0.6832 0.35314 0.0
H8 H 0.91276 0.6116 0.41483 0.0
H9 H 0.90279 0.4403 0.44034 0.0
H10 H 0.9065 0.37406 0.37203 0.0
H11 H 0.07791 0.37365 0.38256 0.0
H12 H 0.07384 0.43874 0.45193 0.0
H13 H 0.97808 0.53804 0.41718 0.0
H14 H 0.92232 0.40889 0.54096 0.0
H15 H 0.91859 0.3366 0.60213 0.0
H16 H 0.06456 0.38902 0.67375 0.0
H17 H 0.06882 0.46053 0.6119 0.0
C18 C 0.00096 0.62916 0.57541 0.0
C19 C 0.04565 0.63463 0.60793 0.0
C20 C 0.04656 0.6711 0.64795 0.0
C21 C 0.00266 0.70301 0.65666 0.0
C22 C 0.9592 0.69971 0.62196 0.0
C23 C 0.95832 0.663 0.58173 0.0
C24 C -0.00412 0.58282 0.54193 0.0
C25 C -0.00133 0.53515 0.5675 0.0
C26 C 0.98707 0.58424 0.48692 0.0
C27 C 0.98521 0.6326 0.45561 0.0
C28 C 0.0264 0.66929 0.4583 0.0
C29 C 0.02823 0.71057 0.42294 0.0
C30 C -0.01068 0.71569 0.38366 0.0
C31 C 0.94725 0.67992 0.38222 0.0
C32 C 0.94513 0.63909 0.41781 0.0
C33 C -0.01202 0.44369 0.4518 0.0
C34 C 0.941 0.42473 0.42907 0.0
C35 C 0.94318 0.38712 0.38997 0.0
C36 C -0.00749 0.369 0.37188 0.0
C37 C 0.0394 0.38711 0.39569 0.0
C38 C 0.03711 0.42388 0.43557 0.0
C39 C 0.98674 0.49005 0.48516 0.0
C40 C 0.98268 0.53755 0.45958 0.0
C41 C -0.00567 0.48864 0.54016 0.0
C42 C -0.00385 0.44018 0.57119 0.0
C43 C 0.9545 0.40401 0.56858 0.0
C44 C 0.95213 0.36286 0.604 0.0
C45 C -0.00903 0.35738 0.64326 0.0
C46 C 0.03354 0.3926 0.64461 0.0
C47 C 0.03618 0.43333 0.60894 0.0
H48 H 0.40028 0.06545 0.44386 0.0
H49 H 0.34554 0.08174 0.36673 0.0
H50 H 0.38387 0.93225 0.30597 0.0
H51 H 0.43875 0.91603 0.38344 0.0
H52 H 0.38905 0.99688 0.51828 0.0
H53 H 0.51629 0.04345 0.39333 0.0
H54 H 0.57345 0.0484 0.31565 0.0
H55 H 0.63017 0.89609 0.34703 0.0
H56 H 0.57124 0.89038 0.42411 0.0
H57 H 0.57603 0.89079 0.5972 0.0
H58 H 0.64836 0.89946 0.66075 0.0
H59 H 0.60633 0.05766 0.68501 0.0
H60 H 0.53399 0.04848 0.62233 0.0
H61 H 0.57926 0.94913 0.50836 0.0
H62 H 0.44949 0.92095 0.64974 0.0
H63 H 0.3922 0.93626 0.72641 0.0
H64 H 0.35182 0.08456 0.66395 0.0
H65 H 0.40875 0.06909 0.58764 0.0
C66 C 0.42306 0.98937 0.41947 0.0
C67 C 0.39684 0.03617 0.41395 0.0
C68 C 0.36588 0.04552 0.36987 0.0
C69 C 0.36051 1.00816 0.33065 0.0
C70 C 0.38795 0.96186 0.33544 0.0
C71 C 0.41891 0.95244 0.37972 0.0
C72 C 0.4548 0.97963 0.46701 0.0
C73 C 0.43075 0.98652 0.51621 0.0
C74 C 0.50883 0.96568 0.46414 0.0
C75 C 0.53885 0.96617 0.41401 0.0
C76 C 0.53948 1.01034 0.38253 0.0
C77 C 0.57225 1.01326 0.33828 0.0
C78 C 0.60585 0.97255 0.32557 0.0
C79 C 0.60444 0.9279 0.35628 0.0
C80 C 0.57098 0.92466 0.40014 0.0
C81 C 0.54934 0.96879 0.60567 0.0
C82 C 0.58167 0.92688 0.61737 0.0
C83 C 0.62327 0.93206 0.65311 0.0
C84 C 0.63331 0.97937 0.67739 0.0
C85 C 0.59923 1.02056 0.66741 0.0
C86 C 0.55762 1.01531 0.63181 0.0
C87 C 0.51374 0.96696 0.55985 0.0
C88 C 0.53714 0.95786 0.51064 0.0
C89 C 0.45994 0.98177 0.56268 0.0
C90 C 0.43284 0.99367 0.61286 0.0
C91 C 0.42924 0.95719 0.65325 0.0
C92 C 0.39656 0.96598 0.69695 0.0
C93 C 0.36704 1.01128 0.70058 0.0
C94 C 0.37335 0.04893 0.66159 0.0
C95 C 0.40593 0.04018 0.61813 0.0
H96 H 0.53084 0.64716 0.92527 0.0
H97 H 0.59115 0.72153 0.92203 0.0
H98 H 0.61861 0.70662 0.08869 0.0
H99 H 0.55696 0.63327 0.09198 0.0
H100 H 0.58325 0.54532 0.99859 0.0
H101 H 0.43484 0.65487 0.94472 0.0
H102 H 0.36569 0.71995 0.94774 0.0
H103 H 0.32256 0.67121 0.1048 0.0
H104 H 0.39223 0.6065 0.10168 0.0
H105 H 0.44252 0.42578 0.09985 0.0
H106 H 0.38222 0.35141 0.10286 0.0
H107 H 0.35128 0.36943 0.93714 0.0
H108 H 0.41298 0.44273 0.93402 0.0
H109 H 0.38851 0.52909 0.02723 0.0
H110 H 0.53802 0.42103 0.08228 0.0
H111 H 0.60712 0.35591 0.0796 0.0
H112 H 0.6481 0.40181 0.9211 0.0
H113 H 0.5785 0.46663 0.92395 0.0
C114 C 0.53851 0.63568 1.0091 0.0
C115 C 0.54836 0.66111 0.96138 0.0
C116 C 0.58302 0.70326 0.95952 0.0
C117 C 0.60951 0.71957 1.00511 0.0
C118 C 0.59874 0.69464 0.05303 0.0
C119 C 0.5633 0.65314 0.05502 0.0
C120 C 0.51003 0.58606 1.00968 0.0
C121 C 0.54052 0.54171 1.00439 0.0
C122 C 0.45463 0.58161 0.01838 0.0
C123 C 0.41939 0.62643 0.02333 0.0
C124 C 0.41189 0.65942 0.98051 0.0
C125 C 0.37198 0.69634 0.98213 0.0
C126 C 0.33843 0.70043 0.02637 0.0
C127 C 0.34732 0.66852 0.06991 0.0
C128 C 0.38737 0.63186 0.06836 0.0
C129 C 0.4332 0.43877 0.01642 0.0
C130 C 0.42431 0.41248 0.06383 0.0
C131 C 0.3896 0.37035 0.06558 0.0
C132 C 0.36212 0.35493 0.02024 0.0
C133 C 0.37193 0.38072 0.97261 0.0
C134 C 0.40739 0.42219 0.9707 0.0
C135 C 0.46172 0.48838 0.01615 0.0
C136 C 0.43124 0.53272 0.02146 0.0
C137 C 0.51713 0.49283 1.00759 0.0
C138 C 0.55237 0.448 1.00295 0.0
C139 C 0.56048 0.41581 0.04629 0.0
C140 C 0.60036 0.37887 0.04484 0.0
C141 C 0.63329 0.37397 1.00024 0.0
C142 C 0.62383 0.40512 0.95625 0.0
C143 C 0.5838 0.44183 0.95765 0.0
C144 C 0.98169 0.16802 0.89223 0.0
C145 C 0.97764 0.15358 0.14889 0.0
C146 C 0.98576 0.92088 0.87827 0.0
C147 C -0.0074 0.90652 0.13542 0.0
C148 C 0.12135 0.9212 1.00617 0.0
C149 C 0.10936 0.1674 0.01704 0.0
C150 C 0.86215 0.90727 1.00958 0.0
C151 C 0.85042 0.15347 0.02302 0.0
C152 C 0.85908 1.01691 0.14206 0.0
C153 C 0.11484 0.0402 0.13915 0.0
C154 C 0.85461 0.03929 0.89079 0.0
C155 C 0.11315 0.04608 0.88575 0.0
Eu156 Eu 0.98113 0.13496 0.01927 0.0
O157 O 0.03073 0.08307 0.06261 0.0
O158 O 0.93592 0.0833 0.97053 0.0
Eu159 Eu 0.08515 0.04257 0.01278 0.0
Eu160 Eu 0.88631 0.03209 0.01583 0.0
O161 O 0.02971 0.08788 0.96922 0.0
O162 O 0.93711 0.07837 0.06415 0.0
Eu163 Eu 0.98416 0.0428 0.91462 0.0
Eu164 Eu 0.98657 0.03176 0.11309 0.0
O165 O 0.03389 0.99662 0.96409 0.0
O166 O 0.03528 0.9911 0.05749 0.0
O167 O 0.942 0.9865 0.05827 0.0
O168 O 0.94057 0.99158 0.96567 0.0
Eu169 Eu -0.00952 0.93939 1.00827 0.0
O170 O 0.98091 0.18132 0.94308 0.0
O171 O 0.98033 0.17291 0.10013 0.0
O172 O -0.01041 0.90163 0.927 0.0
O173 O -0.00823 0.8932 0.08456 0.0
O174 O 0.1341 0.97075 1.00836 0.0
O175 O 0.12704 0.11948 0.0151 0.0
O176 O 0.84449 0.95524 1.01028 0.0
O177 O 0.83762 0.10387 0.02323 0.0
O178 O 0.90954 1.0196 0.1578 0.0
O179 O 0.06458 0.03718 0.15594 0.0
O180 O 0.90457 0.04108 0.87255 0.0
O181 O 0.06256 0.04559 0.86981 0.0
O182 O 0.91325 0.89341 1.00946 0.0
O183 O 0.07187 0.90181 1.00597 0.0
O184 O 0.89987 0.17279 0.02066 0.0
O185 O 0.05825 0.18115 0.0188 0.0
O186 O 0.97794 0.10396 0.16136 0.0
O187 O -0.00769 0.95449 0.15347 0.0
O188 O 0.98242 0.12009 0.87417 0.0
O189 O 0.98341 0.97049 0.86625 0.0
O190 O 0.12923 0.04596 0.93555 0.0
O191 O 0.1307 0.04165 0.08907 0.0
O192 O 0.84002 0.0366 0.94103 0.0
O193 O 0.84254 1.02162 0.09266 0.0
H194 H 0.94085 0.27796 0.35891 0.0
H195 H 0.0502 0.38203 0.28193 0.0
H196 H 0.05337 0.32625 0.20479 0.0
H197 H 0.02544 0.24711 0.15925 0.0
H198 H 0.92099 0.14031 0.23916 0.0
H199 H 0.91523 0.19767 0.31467 0.0
C200 C 0.96529 0.28829 0.32516 0.0
C201 C -0.00477 0.33395 0.32602 0.0
C202 C 0.96766 0.25554 0.28134 0.0
C203 C 0.02715 0.34681 0.28228 0.0
C204 C 0.02877 0.31506 0.23809 0.0
C205 C 0.00116 0.23669 0.19309 0.0
C206 C 0.97343 0.18972 0.19349 0.0
C207 C -0.0008 0.26928 0.23712 0.0
C208 C 0.94281 0.17624 0.23795 0.0
C209 C 0.93945 0.20903 0.28115 0.0
H210 H 0.71129 0.95821 0.33415 0.0
H211 H 0.59012 1.00348 0.22459 0.0
H212 H 0.65837 1.02137 0.1577 0.0
H213 H 0.75214 1.02619 0.13185 0.0
H214 H 0.87365 0.98308 0.24267 0.0
H215 H 0.80531 0.9626 0.30803 0.0
C216 C 0.69995 0.97122 0.29529 0.0
C217 C 0.64609 0.97909 0.28377 0.0
C218 C 0.73928 0.98235 0.25773 0.0
C219 C 0.63156 0.99707 0.23393 0.0
C220 C 0.67046 1.00738 0.19591 0.0
C221 C 0.76381 1.01221 0.17023 0.0
C222 C 0.81796 1.00625 0.18232 0.0
C223 C 0.72444 1.00059 0.20762 0.0
C224 C 0.83228 0.98845 0.23242 0.0
C225 C 0.79325 0.97644 0.26975 0.0
H226 H 0.97519 0.70758 0.27773 0.0
H227 H 0.01269 0.81708 0.3989 0.0
H228 H 0.01799 0.88531 0.33306 0.0
H229 H 0.01042 0.91418 0.2413 0.0
H230 H 0.974 0.80414 0.11993 0.0
H231 H 0.96984 0.7361 0.18559 0.0
C232 C 0.98419 0.74645 0.28979 0.0
C233 C -0.00682 0.75718 0.34335 0.0
C234 C 0.98746 0.78548 0.25163 0.0
C235 C 0.00585 0.80764 0.35804 0.0
C236 C 0.00869 0.84672 0.32038 0.0
C237 C 0.00161 0.87535 0.22901 0.0
C238 C -0.00758 0.86466 0.17541 0.0
C239 C -0.0006 0.83614 0.26706 0.0
C240 C 0.98147 0.81381 0.16063 0.0
C241 C 0.97889 0.77474 0.19827 0.0
H242 H 0.26009 0.0418 0.33904 0.0
H243 H 0.3762 0.99048 0.22574 0.0
H244 H 0.31065 0.99853 0.15529 0.0
H245 H 0.2193 1.01657 0.12731 0.0
H246 H 0.10325 0.06571 0.24225 0.0
H247 H 0.17034 0.06267 0.31085 0.0
C248 C 0.27128 0.03321 0.29876 0.0
C249 C 0.32271 1.01583 0.28731 0.0
C250 C 0.23347 0.03732 0.25899 0.0
C251 C 0.33657 1.0037 0.23528 0.0
C252 C 0.29924 1.0084 0.19513 0.0
C253 C 0.20883 0.0271 0.16726 0.0
C254 C 0.15635 0.04107 0.17973 0.0
C255 C 0.24739 1.02462 0.20671 0.0
C256 C 0.14326 0.05428 0.23173 0.0
C257 C 0.18157 0.05269 0.27098 0.0
H258 H 0.96815 0.80177 0.66239 0.0
H259 H 0.0339 0.68093 0.75684 0.0
H260 H 0.03354 0.73651 0.83381 0.0
H261 H 0.01576 0.82023 0.87453 0.0
H262 H 0.95022 0.94089 0.77931 0.0
H263 H 0.9488 0.88465 0.70331 0.0
C264 C 0.98203 0.78747 0.69989 0.0
C265 C 0.00141 0.73731 0.70351 0.0
C266 C 0.98177 0.81971 0.7442 0.0
C267 C 0.01965 0.71966 0.7525 0.0
C268 C 0.01915 0.75134 0.79675 0.0
C269 C 0.0009 0.83414 0.83726 0.0
C270 C 0.98348 0.88497 0.83294 0.0
C271 C 0.00054 0.80158 0.79309 0.0
C272 C 0.96452 0.90222 0.78403 0.0
C273 C 0.96352 0.87 0.74031 0.0
H274 H 0.26579 0.0428 0.68832 0.0
H275 H 0.37699 0.99276 0.80589 0.0
H276 H 0.30814 1.00053 0.87389 0.0
H277 H 0.21645 1.01996 0.89906 0.0
H278 H 0.10461 0.0684 0.78096 0.0
H279 H 0.1742 0.06329 0.71374 0.0
C280 C 0.27514 0.03432 0.72898 0.0
C281 C 0.3264 1.01763 0.74229 0.0
C282 C 0.23541 0.03851 0.76752 0.0
C283 C 0.33771 1.00554 0.79482 0.0
C284 C 0.29847 1.01011 0.8336 0.0
C285 C 0.20725 0.0299 0.85873 0.0
C286 C 0.15537 0.04475 0.84511 0.0
C287 C 0.24717 1.02636 0.82029 0.0
C288 C 0.14413 0.05674 0.7925 0.0
C289 C 0.1839 0.05389 0.75406 0.0
H290 H 0.00463 0.36589 0.74918 0.0
H291 H 0.96618 0.25634 0.62833 0.0
H292 H 0.95894 0.1886 0.69451 0.0
H293 H 0.96486 0.16021 0.78641 0.0
H294 H 0.00225 0.27011 0.90762 0.0
H295 H 0.00852 0.33779 0.8416 0.0
C296 C -0.00496 0.3271 0.73728 0.0
C297 C 0.98632 0.31619 0.68373 0.0
C298 C -0.00938 0.28837 0.77564 0.0
C299 C 0.97286 0.26588 0.6692 0.0
C300 C 0.96888 0.22709 0.70704 0.0
C301 C 0.97438 0.19893 0.79858 0.0
C302 C 0.9832 0.20973 0.8522 0.0
C303 C 0.97782 0.23785 0.76037 0.0
C304 C -0.00498 0.26042 0.86688 0.0
C305 C -0.00117 0.29925 0.82904 0.0
H306 H 0.63857 0.03088 0.76942 0.0
H307 H 0.73431 0.94477 0.66017 0.0
H308 H 0.81284 0.95889 0.71472 0.0
H309 H 0.85375 0.99443 0.79471 0.0
H310 H 0.75686 0.08005 0.90343 0.0
H311 H 0.67963 0.06882 0.84689 0.0
C312 C 0.67672 1.01564 0.75727 0.0
C313 C 0.68059 0.98672 0.71104 0.0
C314 C 0.72161 1.02432 0.78838 0.0
C315 C 0.73013 0.96648 0.69616 0.0
C316 C 0.77514 0.97496 0.727 0.0
C317 C 0.81592 1.01134 0.80536 0.0
C318 C 0.8108 0.03802 0.8529 0.0
C319 C 0.77132 1.00378 0.77325 0.0
C320 C 0.76151 0.05914 0.86696 0.0
C321 C 0.71735 0.05263 0.83482 0.0
H322 H 0.25958 0.36079 0.98906 0.0
H323 H 0.37233 0.25845 0.05944 0.0
H324 H 0.30384 0.19125 0.06497 0.0
H325 H 0.21214 0.16172 0.04912 0.0
H326 H 0.09825 0.26557 0.98229 0.0
H327 H 0.16684 0.33227 0.97633 0.0
C328 C 0.26908 0.3236 1.00528 0.0
C329 C 0.32089 0.31418 0.0233 0.0
C330 C 0.22931 0.28567 1.00919 0.0
C331 C 0.33266 0.26635 0.04525 0.0
C332 C 0.29357 0.22803 0.04836 0.0
C333 C 0.20232 0.19895 0.03322 0.0
C334 C 0.1502 0.20858 0.01596 0.0
C335 C 0.24179 0.23726 0.03038 0.0
C336 C 0.13795 0.25723 0.99613 0.0
C337 C 0.17722 0.29532 0.99246 0.0
H338 H 0.33688 0.79937 0.99304 0.0
H339 H 0.23651 0.68024 0.05834 0.0
H340 H 0.16008 0.73725 0.05644 0.0
H341 H 0.12169 0.8212 0.03657 0.0
H342 H 0.22273 0.94066 0.97249 0.0
H343 H 0.29853 0.88317 0.97297 0.0
C344 C 0.2982 0.78586 1.00659 0.0
C345 C 0.29246 0.73574 0.02597 0.0
C346 C 0.2544 0.81885 1.00543 0.0
C347 C 0.24219 0.71892 0.04394 0.0
C348 C 0.19836 0.75137 0.04253 0.0
C349 C 0.16019 0.83451 0.02232 0.0
C350 C 0.16642 0.88515 1.00453 0.0
C351 C 0.20397 0.80143 0.02336 0.0
C352 C 0.21679 0.90196 0.98675 0.0
C353 C 0.26025 0.86909 0.98693 0.0
H354 H 0.63519 0.27579 0.03585 0.0
H355 H 0.73475 0.3932 0.96618 0.0
H356 H 0.81113 0.33615 0.96848 0.0
H357 H 0.84971 0.25271 0.99008 0.0
H358 H 0.74948 0.13499 0.05867 0.0
H359 H 0.67372 0.19251 0.05761 0.0
C360 C 0.67368 0.28893 0.02144 0.0
C361 C 0.67919 0.33857 1.00073 0.0
C362 C 0.71746 0.25595 0.02289 0.0
C363 C 0.72922 0.35488 0.98162 0.0
C364 C 0.77304 0.32242 0.98328 0.0
C365 C 0.81142 0.23979 1.00521 0.0
C366 C 0.80542 0.18963 0.02449 0.0
C367 C 0.76765 0.27287 1.00385 0.0
C368 C 0.75527 0.17333 0.04335 0.0
C369 C 0.71183 0.2062 0.04281 0.0
H370 H 0.71135 0.71445 0.03854 0.0
H371 H 0.60008 0.81527 0.96367 0.0
H372 H 0.66867 0.88238 0.95805 0.0
H373 H 0.76005 0.9123 0.97513 0.0
H374 H 0.87246 0.80981 0.04648 0.0
H375 H 0.80377 0.74325 0.0525 0.0
C376 C 0.70218 0.7513 0.02133 0.0
C377 C 0.65076 0.76032 1.00207 0.0
C378 C 0.74202 0.78916 0.01737 0.0
C379 C 0.63944 0.80769 0.97884 0.0
C380 C 0.67859 0.84596 0.97567 0.0
C381 C 0.76953 0.87539 0.992 0.0
C382 C 0.82127 0.86611 1.01051 0.0
C383 C 0.72999 0.83712 0.99487 0.0
C384 C 0.83307 0.81786 0.03163 0.0
C385 C 0.79374 0.77986 0.03535 0.0
loop_
_geom_bond_atom_site_label_1
_geom_bond_atom_site_label_2
_geom_bond_distance
_geom_bond_site_symmetry_2
_ccdc_geom_bond_type
H0 C19 0.949 . S
H1 C20 0.950 . S
H2 C22 0.950 . S
H3 C23 0.950 . S
H4 C25 0.950 . S
H5 C28 0.950 . S
H6 C29 0.950 . S
H7 C31 0.951 . S
H8 C32 0.949 . S
H9 C34 0.949 . S
H10 C35 0.950 . S
H11 C37 0.950 . S
H12 C38 0.950 . S
H13 C40 0.950 . S
H14 C43 0.950 . S
H15 C44 0.950 . S
H16 C46 0.951 . S
H17 C47 0.949 . S
C18 C19 1.376 . S
C18 C23 1.386 1_455 S
C18 C24 1.483 . S
C19 H0 0.949 . S
C19 C18 1.376 . S
C19 C20 1.397 . S
C20 H1 0.950 . S
C20 C19 1.397 . S
C20 C21 1.391 . S
C21 C20 1.391 . S
C21 C22 1.405 1_455 S
C22 H2 0.950 . S
C22 C21 1.405 1_655 S
C22 C23 1.367 . S
C23 H3 0.950 . S
C23 C18 1.386 1_655 S
C23 C22 1.367 . S
C24 C18 1.483 . S
C24 C25 1.382 . S
C24 C26 1.403 1_455 S
C25 H4 0.950 . S
C25 C24 1.382 . S
C25 C41 1.411 . S
C26 C24 1.403 1_655 S
C26 C27 1.489 . S
C26 C40 1.411 . S
C27 C26 1.489 . S
C27 C28 1.383 1_655 S
C27 C32 1.382 . S
C28 H5 0.950 . S
C28 C27 1.383 1_455 S
C28 C29 1.395 . S
C29 H6 0.950 . S
C29 C28 1.395 . S
C29 C30 1.288 1_455 S
C30 C29 1.288 1_655 S
C30 C31 1.392 . S
C31 H7 0.951 . S
C31 C30 1.392 . S
C31 C32 1.392 . S
C32 H8 0.949 . S
C32 C27 1.382 . S
C32 C31 1.392 . S
C33 C34 1.376 . S
C33 C38 1.386 1_655 S
C33 C39 1.483 . S
C34 H9 0.949 . S
C34 C33 1.376 . S
C34 C35 1.397 . S
C35 H10 0.950 . S
C35 C34 1.397 . S
C35 C36 1.391 . S
C36 C35 1.391 . S
C36 C37 1.405 1_655 S
C37 H11 0.950 . S
C37 C36 1.405 1_455 S
C37 C38 1.367 . S
C38 H12 0.950 . S
C38 C33 1.386 1_455 S
C38 C37 1.367 . S
C39 C33 1.483 . S
C39 C40 1.382 . S
C39 C41 1.403 1_655 S
C40 H13 0.950 . S
C40 C26 1.411 . S
C40 C39 1.382 . S
C41 C25 1.411 . S
C41 C39 1.403 1_455 S
C41 C42 1.489 . S
C42 C41 1.489 . S
C42 C43 1.383 1_455 S
C42 C47 1.382 . S
C43 H14 0.950 . S
C43 C42 1.383 1_655 S
C43 C44 1.395 . S
C44 H15 0.950 . S
C44 C43 1.395 . S
C44 C45 1.288 1_655 S
C45 C44 1.288 1_455 S
C45 C46 1.392 . S
C46 H16 0.951 . S
C46 C45 1.392 . S
C46 C47 1.392 . S
C47 H17 0.949 . S
C47 C42 1.382 . S
C47 C46 1.392 . S
H48 C67 0.949 . S
H49 C68 0.950 . S
H50 C70 0.950 . S
H51 C71 0.950 . S
H52 C73 0.950 . S
H53 C76 0.950 . S
H54 C77 0.950 . S
H55 C79 0.951 . S
H56 C80 0.949 . S
H57 C82 0.949 . S
H58 C83 0.950 . S
H59 C85 0.950 . S
H60 C86 0.950 . S
H61 C88 0.950 . S
H62 C91 0.950 . S
H63 C92 0.950 . S
H64 C94 0.951 . S
H65 C95 0.949 . S
C66 C67 1.376 . S
C66 C71 1.386 1_545 S
C66 C72 1.483 . S
C67 H48 0.949 . S
C67 C66 1.376 . S
C67 C68 1.397 . S
C68 H49 0.950 . S
C68 C67 1.397 . S
C68 C69 1.391 . S
C69 C68 1.391 . S
C69 C70 1.405 1_545 S
C70 H50 0.950 . S
C70 C69 1.405 1_565 S
C70 C71 1.367 . S
C71 H51 0.950 . S
C71 C66 1.386 1_565 S
C71 C70 1.367 . S
C72 C66 1.483 . S
C72 C73 1.382 . S
C72 C74 1.403 1_545 S
C73 H52 0.950 . S
C73 C72 1.382 . S
C73 C89 1.411 . S
C74 C72 1.403 1_565 S
C74 C75 1.489 . S
C74 C88 1.411 . S
C75 C74 1.489 . S
C75 C76 1.383 1_565 S
C75 C80 1.382 . S
C76 H53 0.950 . S
C76 C75 1.383 1_545 S
C76 C77 1.395 . S
C77 H54 0.950 . S
C77 C76 1.395 . S
C77 C78 1.288 1_545 S
C78 C77 1.288 1_565 S
C78 C79 1.392 . S
C79 H55 0.951 . S
C79 C78 1.392 . S
C79 C80 1.392 . S
C80 H56 0.949 . S
C80 C75 1.382 . S
C80 C79 1.392 . S
C81 C82 1.376 . S
C81 C86 1.386 1_565 S
C81 C87 1.483 . S
C82 H57 0.949 . S
C82 C81 1.376 . S
C82 C83 1.397 . S
C83 H58 0.950 . S
C83 C82 1.397 . S
C83 C84 1.391 . S
C84 C83 1.391 . S
C84 C85 1.405 1_565 S
C85 H59 0.950 . S
C85 C84 1.405 1_545 S
C85 C86 1.367 . S
C86 H60 0.950 . S
C86 C81 1.386 1_545 S
C86 C85 1.367 . S
C87 C81 1.483 . S
C87 C88 1.382 . S
C87 C89 1.403 1_565 S
C88 H61 0.950 . S
C88 C74 1.411 . S
C88 C87 1.382 . S
C89 C73 1.411 . S
C89 C87 1.403 1_545 S
C89 C90 1.489 . S
C90 C89 1.489 . S
C90 C91 1.383 1_545 S
C90 C95 1.382 . S
C91 H62 0.950 . S
C91 C90 1.383 1_565 S
C91 C92 1.395 . S
C92 H63 0.950 . S
C92 C91 1.395 . S
C92 C93 1.288 1_565 S
C93 C92 1.288 1_545 S
C93 C94 1.392 . S
C94 H64 0.951 . S
C94 C93 1.392 . S
C94 C95 1.392 . S
C95 H65 0.949 . S
C95 C90 1.382 . S
C95 C94 1.392 . S
H96 C115 0.949 . S
H97 C116 0.950 . S
H98 C118 0.950 . S
H99 C119 0.950 . S
H100 C121 0.950 . S
H101 C124 0.950 . S
H102 C125 0.950 . S
H103 C127 0.951 . S
H104 C128 0.949 . S
H105 C130 0.949 . S
H106 C131 0.950 . S
H107 C133 0.950 . S
H108 C134 0.950 . S
H109 C136 0.950 . S
H110 C139 0.950 . S
H111 C140 0.950 . S
H112 C142 0.951 . S
H113 C143 0.949 . S
C114 C115 1.376 . S
C114 C119 1.386 1_556 S
C114 C120 1.483 . S
C115 H96 0.949 . S
C115 C114 1.376 . S
C115 C116 1.397 . S
C116 H97 0.950 . S
C116 C115 1.397 . S
C116 C117 1.391 . S
C117 C116 1.391 . S
C117 C118 1.405 1_556 S
C118 H98 0.950 . S
C118 C117 1.405 1_554 S
C118 C119 1.367 . S
C119 H99 0.950 . S
C119 C114 1.386 1_554 S
C119 C118 1.367 . S
C120 C114 1.483 . S
C120 C121 1.382 . S
C120 C122 1.403 1_556 S
C121 H100 0.950 . S
C121 C120 1.382 . S
C121 C137 1.411 . S
C122 C120 1.403 1_554 S
C122 C123 1.489 . S
C122 C136 1.411 . S
C123 C122 1.489 . S
C123 C124 1.383 1_554 S
C123 C128 1.382 . S
C124 H101 0.950 . S
C124 C123 1.383 1_556 S
C124 C125 1.395 . S
C125 H102 0.950 . S
C125 C124 1.395 . S
C125 C126 1.288 1_556 S
C126 C125 1.288 1_554 S
C126 C127 1.392 . S
C127 H103 0.951 . S
C127 C126 1.392 . S
C127 C128 1.392 . S
C128 H104 0.949 . S
C128 C123 1.382 . S
C128 C127 1.392 . S
C129 C130 1.376 . S
C129 C134 1.386 1_554 S
C129 C135 1.483 . S
C130 H105 0.949 . S
C130 C129 1.376 . S
C130 C131 1.397 . S
C131 H106 0.950 . S
C131 C130 1.397 . S
C131 C132 1.391 . S
C132 C131 1.391 . S
C132 C133 1.405 1_554 S
C133 H107 0.950 . S
C133 C132 1.405 1_556 S
C133 C134 1.367 . S
C134 H108 0.950 . S
C134 C129 1.386 1_556 S
C134 C133 1.367 . S
C135 C129 1.483 . S
C135 C136 1.382 . S
C135 C137 1.403 1_554 S
C136 H109 0.950 . S
C136 C122 1.411 . S
C136 C135 1.382 . S
C137 C121 1.411 . S
C137 C135 1.403 1_556 S
C137 C138 1.489 . S
C138 C137 1.489 . S
C138 C139 1.383 1_556 S
C138 C143 1.382 . S
C139 H110 0.950 . S
C139 C138 1.383 1_554 S
C139 C140 1.395 . S
C140 H111 0.950 . S
C140 C139 1.395 . S
C140 C141 1.288 1_554 S
C141 C140 1.288 1_556 S
C141 C142 1.392 . S
C142 H112 0.951 . S
C142 C141 1.392 . S
C142 C143 1.392 . S
C143 H113 0.949 . S
C143 C138 1.382 . S
C143 C142 1.392 . S
C144 O170 1.283 . S
C144 O188 1.283 . S
C145 O171 1.283 . S
C145 O186 1.283 . S
C146 O172 1.283 . S
C146 O189 1.283 . S
C147 O173 1.283 . S
C147 O187 1.283 . S
C148 O174 1.283 . S
C148 O183 1.283 . S
C149 O175 1.283 . S
C149 O185 1.283 . S
C150 O176 1.283 . S
C150 O182 1.283 . S
C151 O177 1.283 . S
C151 O184 1.283 . S
C152 O178 1.283 . S
C152 O193 1.283 . S
C153 O179 1.283 . S
C153 O191 1.283 . S
C154 O180 1.283 . S
C154 O192 1.283 . S
C155 O181 1.283 . S
C155 O190 1.283 . S
Eu156 O157 2.371 . S
Eu156 O158 2.370 1_454 S
Eu156 O161 2.370 1_554 S
Eu156 O162 2.370 1_455 S
Eu156 O170 2.362 1_554 S
Eu156 O171 2.363 . S
Eu156 O184 2.362 1_455 S
Eu156 O185 2.363 . S
O157 Eu156 2.371 . S
O157 Eu159 2.371 . S
O157 Eu164 2.371 . S
O158 Eu156 2.370 1_656 S
O158 Eu160 2.370 1_556 S
O158 Eu163 2.370 1_655 S
Eu159 O157 2.371 . S
Eu159 O161 2.370 1_554 S
Eu159 O165 2.369 1_544 S
Eu159 O166 2.370 1_545 S
Eu159 O174 2.362 1_545 S
Eu159 O175 2.363 . S
Eu159 O190 2.362 1_554 S
Eu159 O191 2.363 . S
Eu160 O158 2.370 1_554 S
Eu160 O162 2.369 . S
Eu160 O167 2.370 1_545 S
Eu160 O168 2.371 1_544 S
Eu160 O176 2.363 1_545 S
Eu160 O177 2.362 . S
Eu160 O192 2.363 1_554 S
Eu160 O193 2.362 . S
O161 Eu156 2.370 1_556 S
O161 Eu159 2.370 1_556 S
O161 Eu163 2.369 . S
O162 Eu156 2.370 1_655 S
O162 Eu160 2.369 . S
O162 Eu164 2.370 1_655 S
Eu163 O158 2.370 1_455 S
Eu163 O161 2.369 . S
Eu163 O165 2.370 1_545 S
Eu163 O168 2.371 1_445 S
Eu163 O180 2.363 1_455 S
Eu163 O181 2.362 . S
Eu163 O188 2.362 . S
Eu163 O189 2.363 1_545 S
Eu164 O157 2.371 . S
Eu164 O162 2.370 1_455 S
Eu164 O166 2.370 1_545 S
Eu164 O167 2.369 1_445 S
Eu164 O178 2.362 1_455 S
Eu164 O179 2.363 . S
Eu164 O186 2.363 . S
Eu164 O187 2.362 1_545 S
O165 Eu159 2.369 1_566 S
O165 Eu163 2.370 1_565 S
O165 Eu169 2.370 1_556 S
O166 Eu159 2.370 1_565 S
O166 Eu164 2.370 1_565 S
O166 Eu169 2.370 . S
O167 Eu160 2.370 1_565 S
O167 Eu164 2.369 1_665 S
O167 Eu169 2.370 1_655 S
O168 Eu160 2.371 1_566 S
O168 Eu163 2.371 1_665 S
O168 Eu169 2.371 1_656 S
Eu169 O165 2.370 1_554 S
Eu169 O166 2.370 . S
Eu169 O167 2.370 1_455 S
Eu169 O168 2.371 1_454 S
Eu169 O172 2.363 1_554 S
Eu169 O173 2.362 . S
Eu169 O182 2.363 1_455 S
Eu169 O183 2.362 . S
O170 C144 1.283 . S
O170 Eu156 2.362 1_556 S
O171 C145 1.283 . S
O171 Eu156 2.363 . S
O172 C146 1.283 . S
O172 Eu169 2.363 1_556 S
O173 C147 1.283 . S
O173 Eu169 2.362 . S
O174 C148 1.283 . S
O174 Eu159 2.362 1_565 S
O175 C149 1.283 . S
O175 Eu159 2.363 . S
O176 C150 1.283 . S
O176 Eu160 2.363 1_565 S
O177 C151 1.283 . S
O177 Eu160 2.362 . S
O178 C152 1.283 . S
O178 Eu164 2.362 1_655 S
O179 C153 1.283 . S
O179 Eu164 2.363 . S
O180 C154 1.283 . S
O180 Eu163 2.363 1_655 S
O181 C155 1.283 . S
O181 Eu163 2.362 . S
O182 C150 1.283 . S
O182 Eu169 2.363 1_655 S
O183 C148 1.283 . S
O183 Eu169 2.362 . S
O184 C151 1.283 . S
O184 Eu156 2.362 1_655 S
O185 C149 1.283 . S
O185 Eu156 2.363 . S
O186 C145 1.283 . S
O186 Eu164 2.363 . S
O187 C147 1.283 . S
O187 Eu164 2.362 1_565 S
O188 C144 1.283 . S
O188 Eu163 2.362 . S
O189 C146 1.283 . S
O189 Eu163 2.363 1_565 S
O190 C155 1.283 . S
O190 Eu159 2.362 1_556 S
O191 C153 1.283 . S
O191 Eu159 2.363 . S
O192 C154 1.283 . S
O192 Eu160 2.363 1_556 S
O193 C152 1.283 . S
O193 Eu160 2.362 . S
H194 C200 0.930 . S
H195 C203 0.930 . S
H196 C204 0.930 . S
H197 C205 0.930 . S
H198 C208 0.930 . S
H199 C209 0.930 . S
C200 H194 0.930 . S
C200 C201 1.355 1_655 S
C200 C202 1.415 . S
C201 C200 1.355 1_455 S
C201 C203 1.419 . S
C202 C200 1.415 . S
C202 C207 1.425 1_655 S
C202 C209 1.409 . S
C203 H195 0.930 . S
C203 C201 1.419 . S
C203 C204 1.362 . S
C204 H196 0.930 . S
C204 C203 1.362 . S
C204 C207 1.409 . S
C205 H197 0.930 . S
C205 C206 1.355 1_455 S
C205 C207 1.415 . S
C206 C205 1.355 1_655 S
C206 C208 1.419 . S
C207 C202 1.425 1_455 S
C207 C204 1.409 . S
C207 C205 1.415 . S
C208 H198 0.930 . S
C208 C206 1.419 . S
C208 C209 1.362 . S
C209 H199 0.930 . S
C209 C202 1.409 . S
C209 C208 1.362 . S
H210 C216 0.930 . S
H211 C219 0.930 . S
H212 C220 0.930 . S
H213 C221 0.930 . S
H214 C224 0.930 . S
H215 C225 0.930 . S
C216 H210 0.930 . S
C216 C217 1.355 1_565 S
C216 C218 1.415 . S
C217 C216 1.355 1_545 S
C217 C219 1.419 . S
C218 C216 1.415 . S
C218 C223 1.425 1_565 S
C218 C225 1.409 . S
C219 H211 0.930 . S
C219 C217 1.419 . S
C219 C220 1.362 . S
C220 H212 0.930 . S
C220 C219 1.362 . S
C220 C223 1.409 . S
C221 H213 0.930 . S
C221 C222 1.355 1_545 S
C221 C223 1.415 . S
C222 C221 1.355 1_565 S
C222 C224 1.419 . S
C223 C218 1.425 1_545 S
C223 C220 1.409 . S
C223 C221 1.415 . S
C224 H214 0.930 . S
C224 C222 1.419 . S
C224 C225 1.362 . S
C225 H215 0.930 . S
C225 C218 1.409 . S
C225 C224 1.362 . S
H226 C232 0.930 . S
H227 C235 0.930 . S
H228 C236 0.930 . S
H229 C237 0.930 . S
H230 C240 0.930 . S
H231 C241 0.930 . S
C232 H226 0.930 . S
C232 C233 1.355 1_655 S
C232 C234 1.415 . S
C233 C232 1.355 1_455 S
C233 C235 1.419 . S
C234 C232 1.415 . S
C234 C239 1.425 1_655 S
C234 C241 1.409 . S
C235 H227 0.930 . S
C235 C233 1.419 . S
C235 C236 1.362 . S
C236 H228 0.930 . S
C236 C235 1.362 . S
C236 C239 1.409 . S
C237 H229 0.930 . S
C237 C238 1.355 1_455 S
C237 C239 1.415 . S
C238 C237 1.355 1_655 S
C238 C240 1.419 . S
C239 C234 1.425 1_455 S
C239 C236 1.409 . S
C239 C237 1.415 . S
C240 H230 0.930 . S
C240 C238 1.419 . S
C240 C241 1.362 . S
C241 H231 0.930 . S
C241 C234 1.409 . S
C241 C240 1.362 . S
H242 C248 0.930 . S
H243 C251 0.930 . S
H244 C252 0.930 . S
H245 C253 0.930 . S
H246 C256 0.930 . S
H247 C257 0.930 . S
C248 H242 0.930 . S
C248 C249 1.357 . S
C248 C250 1.415 . S
C249 C248 1.357 . S
C249 C251 1.417 1_565 S
C250 C248 1.415 . S
C250 C255 1.425 1_565 S
C250 C257 1.409 . S
C251 H243 0.930 . S
C251 C249 1.417 1_545 S
C251 C252 1.362 . S
C252 H244 0.930 . S
C252 C251 1.362 . S
C252 C255 1.409 . S
C253 H245 0.930 . S
C253 C254 1.358 . S
C253 C255 1.415 . S
C254 C253 1.358 . S
C254 C256 1.415 1_545 S
C255 C250 1.425 1_545 S
C255 C252 1.409 . S
C255 C253 1.415 . S
C256 H246 0.930 . S
C256 C254 1.415 1_565 S
C256 C257 1.362 . S
C257 H247 0.930 . S
C257 C250 1.409 . S
C257 C256 1.362 . S
H258 C264 0.930 . S
H259 C267 0.930 . S
H260 C268 0.930 . S
H261 C269 0.930 . S
H262 C272 0.930 . S
H263 C273 0.930 . S
C264 H258 0.930 . S
C264 C265 1.355 1_655 S
C264 C266 1.415 . S
C265 C264 1.355 1_455 S
C265 C267 1.419 . S
C266 C264 1.415 . S
C266 C271 1.425 1_655 S
C266 C273 1.409 . S
C267 H259 0.930 . S
C267 C265 1.419 . S
C267 C268 1.362 . S
C268 H260 0.930 . S
C268 C267 1.362 . S
C268 C271 1.409 . S
C269 H261 0.930 . S
C269 C270 1.355 1_455 S
C269 C271 1.415 . S
C270 C269 1.355 1_655 S
C270 C272 1.419 . S
C271 C266 1.425 1_455 S
C271 C268 1.409 . S
C271 C269 1.415 . S
C272 H262 0.930 . S
C272 C270 1.419 . S
C272 C273 1.362 . S
C273 H263 0.930 . S
C273 C266 1.409 . S
C273 C272 1.362 . S
H274 C280 0.930 . S
H275 C283 0.930 . S
H276 C284 0.930 . S
H277 C285 0.930 . S
H278 C288 0.930 . S
H279 C289 0.930 . S
C280 H274 0.930 . S
C280 C281 1.355 1_565 S
C280 C282 1.415 . S
C281 C280 1.355 1_545 S
C281 C283 1.419 . S
C282 C280 1.415 . S
C282 C287 1.425 1_565 S
C282 C289 1.409 . S
C283 H275 0.930 . S
C283 C281 1.419 . S
C283 C284 1.362 . S
C284 H276 0.930 . S
C284 C283 1.362 . S
C284 C287 1.409 . S
C285 H277 0.930 . S
C285 C286 1.355 1_545 S
C285 C287 1.415 . S
C286 C285 1.355 1_565 S
C286 C288 1.419 . S
C287 C282 1.425 1_545 S
C287 C284 1.409 . S
C287 C285 1.415 . S
C288 H278 0.930 . S
C288 C286 1.419 . S
C288 C289 1.362 . S
C289 H279 0.930 . S
C289 C282 1.409 . S
C289 C288 1.362 . S
H290 C296 0.930 . S
H291 C299 0.930 . S
H292 C300 0.930 . S
H293 C301 0.930 . S
H294 C304 0.930 . S
H295 C305 0.930 . S
C296 H290 0.930 . S
C296 C297 1.355 1_455 S
C296 C298 1.415 . S
C297 C296 1.355 1_655 S
C297 C299 1.419 . S
C298 C296 1.415 . S
C298 C303 1.425 1_455 S
C298 C305 1.409 . S
C299 H291 0.930 . S
C299 C297 1.419 . S
C299 C300 1.362 . S
C300 H292 0.930 . S
C300 C299 1.362 . S
C300 C303 1.409 . S
C301 H293 0.930 . S
C301 C302 1.355 1_655 S
C301 C303 1.415 . S
C302 C301 1.355 1_455 S
C302 C304 1.419 . S
C303 C298 1.425 1_655 S
C303 C300 1.409 . S
C303 C301 1.415 . S
C304 H294 0.930 . S
C304 C302 1.419 . S
C304 C305 1.362 . S
C305 H295 0.930 . S
C305 C298 1.409 . S
C305 C304 1.362 . S
H306 C312 0.930 . S
H307 C315 0.930 . S
H308 C316 0.930 . S
H309 C317 0.930 . S
H310 C320 0.930 . S
H311 C321 0.930 . S
C312 H306 0.930 . S
C312 C313 1.348 1_545 S
C312 C314 1.415 . S
C313 C312 1.348 1_565 S
C313 C315 1.427 . S
C314 C312 1.415 . S
C314 C319 1.425 1_545 S
C314 C321 1.409 . S
C315 H307 0.930 . S
C315 C313 1.427 . S
C315 C316 1.362 . S
C316 H308 0.930 . S
C316 C315 1.362 . S
C316 C319 1.409 . S
C317 H309 0.930 . S
C317 C318 1.347 1_565 S
C317 C319 1.415 . S
C318 C317 1.347 1_545 S
C318 C320 1.429 . S
C319 C314 1.425 1_565 S
C319 C316 1.409 . S
C319 C317 1.415 . S
C320 H310 0.930 . S
C320 C318 1.429 . S
C320 C321 1.362 . S
C321 H311 0.930 . S
C321 C314 1.409 . S
C321 C320 1.362 . S
H322 C328 0.930 . S
H323 C331 0.930 . S
H324 C332 0.930 . S
H325 C333 0.930 . S
H326 C336 0.930 . S
H327 C337 0.930 . S
C328 H322 0.930 . S
C328 C329 1.355 1_556 S
C328 C330 1.415 . S
C329 C328 1.355 1_554 S
C329 C331 1.419 . S
C330 C328 1.415 . S
C330 C335 1.425 1_556 S
C330 C337 1.409 . S
C331 H323 0.930 . S
C331 C329 1.419 . S
C331 C332 1.362 . S
C332 H324 0.930 . S
C332 C331 1.362 . S
C332 C335 1.409 . S
C333 H325 0.930 . S
C333 C334 1.355 1_554 S
C333 C335 1.415 . S
C334 C333 1.355 1_556 S
C334 C336 1.419 . S
C335 C330 1.425 1_554 S
C335 C332 1.409 . S
C335 C333 1.415 . S
C336 H326 0.930 . S
C336 C334 1.419 . S
C336 C337 1.362 . S
C337 H327 0.930 . S
C337 C330 1.409 . S
C337 C336 1.362 . S
H338 C344 0.930 . S
H339 C347 0.930 . S
H340 C348 0.930 . S
H341 C349 0.930 . S
H342 C352 0.930 . S
H343 C353 0.930 . S
C344 H338 0.930 . S
C344 C345 1.355 1_554 S
C344 C346 1.415 . S
C345 C344 1.355 1_556 S
C345 C347 1.419 . S
C346 C344 1.415 . S
C346 C351 1.425 1_554 S
C346 C353 1.409 . S
C347 H339 0.930 . S
C347 C345 1.419 . S
C347 C348 1.362 . S
C348 H340 0.930 . S
C348 C347 1.362 . S
C348 C351 1.409 . S
C349 H341 0.930 . S
C349 C350 1.355 1_556 S
C349 C351 1.415 . S
C350 C349 1.355 1_554 S
C350 C352 1.419 . S
C351 C346 1.425 1_556 S
C351 C348 1.409 . S
C351 C349 1.415 . S
C352 H342 0.930 . S
C352 C350 1.419 . S
C352 C353 1.362 . S
C353 H343 0.930 . S
C353 C346 1.409 . S
C353 C352 1.362 . S
H354 C360 0.930 . S
H355 C363 0.930 . S
H356 C364 0.930 . S
H357 C365 0.930 . S
H358 C368 0.930 . S
H359 C369 0.930 . S
C360 H354 0.930 . S
C360 C361 1.351 1_554 S
C360 C362 1.415 . S
C361 C360 1.351 1_556 S
C361 C363 1.424 . S
C362 C360 1.415 . S
C362 C367 1.425 1_554 S
C362 C369 1.409 . S
C363 H355 0.930 . S
C363 C361 1.424 . S
C363 C364 1.362 . S
C364 H356 0.930 . S
C364 C363 1.362 . S
C364 C367 1.409 . S
C365 H357 0.930 . S
C365 C366 1.349 1_556 S
C365 C367 1.415 . S
C366 C365 1.349 1_554 S
C366 C368 1.426 . S
C367 C362 1.425 1_556 S
C367 C364 1.409 . S
C367 C365 1.415 . S
C368 H358 0.930 . S
C368 C366 1.426 . S
C368 C369 1.362 . S
C369 H359 0.930 . S
C369 C362 1.409 . S
C369 C368 1.362 . S
H370 C376 0.930 . S
H371 C379 0.930 . S
H372 C380 0.930 . S
H373 C381 0.930 . S
H374 C384 0.930 . S
H375 C385 0.930 . S
C376 H370 0.930 . S
C376 C377 1.355 1_554 S
C376 C378 1.415 . S
C377 C376 1.355 1_556 S
C377 C379 1.419 . S
C378 C376 1.415 . S
C378 C383 1.425 1_554 S
C378 C385 1.409 . S
C379 H371 0.930 . S
C379 C377 1.419 . S
C379 C380 1.362 . S
C380 H372 0.930 . S
C380 C379 1.362 . S
C380 C383 1.409 . S
C381 H373 0.930 . S
C381 C382 1.355 1_556 S
C381 C383 1.415 . S
C382 C381 1.355 1_554 S
C382 C384 1.419 . S
C383 C378 1.425 1_556 S
C383 C380 1.409 . S
C383 C381 1.415 . S
C384 H374 0.930 . S
C384 C382 1.419 . S
C384 C385 1.362 . S
C385 H375 0.930 . S
C385 C378 1.409 . S
C385 C384 1.362 . S
C206 C145 1.832 1_655 S
C201 C36 1.821 1_455 S
C222 C152 1.302 1_565 S
C217 C78 1.303 1_545 S
C238 C147 1.829 1_655 S
C233 C30 1.803 1_455 S
C254 C153 1.304 . S
C249 C69 1.303 1_565 S
C265 C21 1.816 . S
C270 C146 1.834 1_655 S
C286 C155 1.301 1_565 S
C281 C93 1.289 . S
C297 C45 1.814 1_655 S
C302 C144 1.832 . S
C313 C84 1.270 . S
C318 C154 1.290 . S
C329 C132 1.528 . S
C334 C149 1.537 1_556 S
C345 C126 1.510 1_556 S
C350 C148 1.536 . S
C366 C151 1.537 . S
C361 C141 1.506 . S
C382 C150 1.540 . S
C377 C117 1.535 . S
