# Generated by pormake.
# Topology pyr, (3,6)-cn, num edge types: 1
# Building blocks:
#     Node 0, Type 0, BuildingBlock: BETDIP_clean_linker_0, # of connection points: 3
#     Node 1, Type 0, BuildingBlock: BETDIP_clean_linker_0, # of connection points: 3
#     Node 2, Type 0, BuildingBlock: BETDIP_clean_linker_0, # of connection points: 3
#     Node 3, Type 0, BuildingBlock: BETDIP_clean_linker_0, # of connection points: 3
#     Node 4, Type 0, BuildingBlock: BETDIP_clean_linker_0, # of connection points: 3
#     Node 5, Type 0, BuildingBlock: BETDIP_clean_linker_0, # of connection points: 3
#     Node 6, Type 0, BuildingBlock: BETDIP_clean_linker_0, # of connection points: 3
#     Node 7, Type 0, BuildingBlock: BETDIP_clean_linker_0, # of connection points: 3
#     Node 8, Type 1, BuildingBlock: BETDEL_clean_sbu_0, # of connection points: 6
#     Node 9, Type 1, BuildingBlock: BETDEL_clean_sbu_0, # of connection points: 6
#     Node 10, Type 1, BuildingBlock: BETDEL_clean_sbu_0, # of connection points: 6
#     Node 11, Type 1, BuildingBlock: BETDEL_clean_sbu_0, # of connection points: 6
#     Edge 12, Type (0, 1), BuildingBlock: MIFKUJ_clean_linker_0, # of connection points: 2
#     Edge 13, Type (0, 1), BuildingBlock: MIFKUJ_clean_linker_0, # of connection points: 2
#     Edge 14, Type (0, 1), BuildingBlock: MIFKUJ_clean_linker_0, # of connection points: 2
#     Edge 15, Type (0, 1), BuildingBlock: MIFKUJ_clean_linker_0, # of connection points: 2
#     Edge 16, Type (0, 1), BuildingBlock: MIFKUJ_clean_linker_0, # of connection points: 2
#     Edge 17, Type (0, 1), BuildingBlock: MIFKUJ_clean_linker_0, # of connection points: 2
#     Edge 18, Type (0, 1), BuildingBlock: MIFKUJ_clean_linker_0, # of connection points: 2
#     Edge 19, Type (0, 1), BuildingBlock: MIFKUJ_clean_linker_0, # of connection points: 2
#     Edge 20, Type (0, 1), BuildingBlock: MIFKUJ_clean_linker_0, # of connection points: 2
#     Edge 21, Type (0, 1), BuildingBlock: MIFKUJ_clean_linker_0, # of connection points: 2
#     Edge 22, Type (0, 1), BuildingBlock: MIFKUJ_clean_linker_0, # of connection points: 2
#     Edge 23, Type (0, 1), BuildingBlock: MIFKUJ_clean_linker_0, # of connection points: 2
#     Edge 24, Type (0, 1), BuildingBlock: MIFKUJ_clean_linker_0, # of connection points: 2
#     Edge 25, Type (0, 1), BuildingBlock: MIFKUJ_clean_linker_0, # of connection points: 2
#     Edge 26, Type (0, 1), BuildingBlock: MIFKUJ_clean_linker_0, # of connection points: 2
#     Edge 27, Type (0, 1), BuildingBlock: MIFKUJ_clean_linker_0, # of connection points: 2
#     Edge 28, Type (0, 1), BuildingBlock: MIFKUJ_clean_linker_0, # of connection points: 2
#     Edge 29, Type (0, 1), BuildingBlock: MIFKUJ_clean_linker_0, # of connection points: 2
#     Edge 30, Type (0, 1), BuildingBlock: MIFKUJ_clean_linker_0, # of connection points: 2
#     Edge 31, Type (0, 1), BuildingBlock: MIFKUJ_clean_linker_0, # of connection points: 2
#     Edge 32, Type (0, 1), BuildingBlock: MIFKUJ_clean_linker_0, # of connection points: 2
#     Edge 33, Type (0, 1), BuildingBlock: MIFKUJ_clean_linker_0, # of connection points: 2
#     Edge 34, Type (0, 1), BuildingBlock: MIFKUJ_clean_linker_0, # of connection points: 2
#     Edge 35, Type (0, 1), BuildingBlock: MIFKUJ_clean_linker_0, # of connection points: 2
# Relax obj value: 0.063
# Max RMSD: 0.183
# Mean RMSD: 0.132
data_MOF--net-pyr--node1-BETDEL_clean_sbu_0--node2-BETDIP_clean_linker_0--edge1-MIFKUJ_clean_linker_0
_symmetry_space_group_name_H-M    P1
_symmetry_Int_Tables_number       1
_symmetry_cell_setting            triclinic
loop_
_symmetry_equiv_pos_as_xyz
'x, y, z'
_cell_length_a     47.206625
_cell_length_b     48.306705
_cell_length_c     47.048579
_cell_angle_alpha  94.896788
_cell_angle_beta   85.496882
_cell_angle_gamma 100.88982
loop_
_atom_site_label
_atom_site_type_symbol
_atom_site_fract_x
_atom_site_fract_y
_atom_site_fract_z
_atom_type_partial_charge
H0 H 0.15159 0.19845 0.17105 0.0
H1 H 0.22227 0.20017 0.10729 0.0
H2 H 0.21654 0.14791 0.17743 0.0
H3 H 0.19597 0.22023 0.0815 0.0
C4 C 0.18006 0.22924 0.09535 0.0
C5 C 0.17124 0.19123 0.16283 0.0
C6 C 0.18232 0.17197 0.17758 0.0
C7 C 0.18511 0.20127 0.13734 0.0
C8 C 0.21083 0.19232 0.12664 0.0
C9 C 0.22239 0.1734 0.14137 0.0
C10 C 0.20809 0.16334 0.16675 0.0
N11 N 0.17246 0.22046 0.12345 0.0
H12 H 0.27319 0.84659 0.7051 0.0
H13 H 0.2752 0.78535 0.63326 0.0
H14 H 0.32983 0.78598 0.70191 0.0
H15 H 0.24859 0.80968 0.61312 0.0
C16 C 0.24072 0.8253 0.62803 0.0
C17 C 0.28194 0.82903 0.69433 0.0
C18 C 0.30281 0.81774 0.70716 0.0
C19 C 0.27203 0.81802 0.66757 0.0
C20 C 0.2828 0.79469 0.65359 0.0
C21 C 0.30317 0.78269 0.66636 0.0
C22 C 0.31317 0.79452 0.69287 0.0
N23 N 0.25128 0.83113 0.65588 0.0
H24 H 0.68344 0.38933 0.8342 0.0
H25 H 0.61269 0.31864 0.83382 0.0
H26 H 0.68052 0.32366 0.89115 0.0
H27 H 0.61255 0.33008 0.78661 0.0
C28 C 0.6171 0.35303 0.78812 0.0
C29 C 0.67277 0.36954 0.84258 0.0
C30 C 0.68527 0.35816 0.86403 0.0
C31 C 0.64709 0.35517 0.83097 0.0
C32 C 0.63309 0.32934 0.8418 0.0
C33 C 0.6448 0.31794 0.86395 0.0
C34 C 0.67107 0.33242 0.8745 0.0
N35 N 0.63573 0.36782 0.80905 0.0
H36 H 0.85404 0.58467 0.38779 0.0
H37 H 0.91468 0.66317 0.38987 0.0
H38 H 0.84215 0.65191 0.45136 0.0
H39 H 0.90695 0.65397 0.34102 0.0
C40 C 0.90944 0.63198 0.33781 0.0
C41 C 0.86159 0.60545 0.39802 0.0
C42 C 0.84563 0.61575 0.42173 0.0
C43 C 0.88611 0.62262 0.3861 0.0
C44 C 0.89573 0.64972 0.39897 0.0
C45 C 0.87996 0.66023 0.42255 0.0
C46 C 0.85498 0.64323 0.4339 0.0
N47 N 0.89899 0.61334 0.35963 0.0
H48 H 0.78476 0.83617 0.90301 0.0
H49 H 0.85449 0.82634 0.84084 0.0
H50 H 0.8011 0.88735 0.83088 0.0
H51 H 0.84203 0.78055 0.85387 0.0
C52 C 0.83958 0.78423 0.87697 0.0
C53 C 0.79722 0.84221 0.88343 0.0
C54 C 0.79008 0.86323 0.86796 0.0
C55 C 0.81976 0.82819 0.87335 0.0
C56 C 0.83632 0.83633 0.84826 0.0
C57 C 0.82973 0.85764 0.83278 0.0
C58 C 0.80621 0.87066 0.8425 0.0
N59 N 0.82577 0.8065 0.88921 0.0
H60 H 0.73582 0.15716 0.32378 0.0
H61 H 0.73546 0.21993 0.3947 0.0
H62 H 0.67486 0.21336 0.32987 0.0
H63 H 0.76923 0.201 0.41109 0.0
C64 C 0.77553 0.18428 0.39652 0.0
C65 C 0.72703 0.17461 0.33482 0.0
C66 C 0.70367 0.18355 0.32396 0.0
C67 C 0.73873 0.18729 0.36035 0.0
C68 C 0.72698 0.20981 0.37499 0.0
C69 C 0.70354 0.21909 0.36428 0.0
C70 C 0.69232 0.20587 0.33871 0.0
N71 N 0.76179 0.17619 0.37041 0.0
H72 H 0.32199 0.64459 0.20011 0.0
H73 H 0.39599 0.7118 0.19544 0.0
H74 H 0.32722 0.7069 0.13912 0.0
H75 H 0.4177 0.67973 0.21585 0.0
C76 C 0.40083 0.66798 0.22948 0.0
C77 C 0.33356 0.66333 0.19032 0.0
C78 C 0.32121 0.67434 0.16857 0.0
C79 C 0.36068 0.67621 0.19982 0.0
C80 C 0.37556 0.70107 0.18758 0.0
C81 C 0.36334 0.71277 0.16592 0.0
C82 C 0.33634 0.6989 0.15648 0.0
N83 N 0.37145 0.66399 0.22241 0.0
H84 H 0.11118 0.35194 0.66346 0.0
H85 H 0.17775 0.42472 0.6534 0.0
H86 H 0.16893 0.35641 0.58783 0.0
H87 H 0.17972 0.41698 0.70262 0.0
C88 C 0.15673 0.41442 0.70868 0.0
C89 C 0.12906 0.36318 0.65062 0.0
C90 C 0.13782 0.35118 0.62391 0.0
C91 C 0.14408 0.38905 0.66167 0.0
C92 C 0.16695 0.40413 0.64518 0.0
C93 C 0.17585 0.39278 0.61819 0.0
C94 C 0.1612 0.36617 0.60781 0.0
N95 N 0.13634 0.39901 0.68986 0.0
Dy96 Dy 0.02709 0.01296 0.47583 0.0
C97 C 0.98091 0.97914 0.58576 0.0
C98 C 0.04738 0.03437 0.42481 0.0
Dy99 Dy 1.00184 1.00206 0.53566 0.0
O100 O 0.06321 0.02971 0.44454 0.0
O101 O 0.02018 0.02712 0.43278 0.0
O102 O 0.05328 0.97894 0.47667 0.0
O103 O 0.04479 1.00292 0.51475 0.0
C104 C 0.0558 0.98215 0.5041 0.0
C105 C 0.9735 0.03336 0.50757 0.0
O106 O 0.0313 0.04255 0.54639 0.0
O107 O 0.03705 0.05557 0.49969 0.0
O108 O 0.96546 0.98243 0.56514 0.0
O109 O 0.00805 0.98889 0.57934 0.0
O110 O 0.97592 0.0363 0.53501 0.0
O111 O 0.98414 0.01237 0.49686 0.0
O112 O 0.99722 0.97238 0.46545 0.0
O113 O 0.9937 0.9594 0.51205 0.0
C114 C 0.03992 0.06163 0.52745 0.0
C115 C 0.98982 0.9533 0.48453 0.0
Dy116 Dy 0.5231 0.02636 0.03446 0.0
C117 C 0.44638 0.96088 0.95158 0.0
C118 C 0.55329 0.05886 0.07646 0.0
Dy119 Dy 0.48395 0.99683 0.98516 0.0
O120 O 0.56246 0.05659 0.0497 0.0
O121 O 0.52759 0.04377 0.08004 0.0
O122 O 0.52498 0.98351 0.04815 0.0
O123 O 0.48766 0.98946 0.03007 0.0
C124 C 0.50004 0.9713 0.03929 0.0
C125 C 0.5137 0.0476 0.96972 0.0
O126 O 0.45227 0.01597 0.01453 0.0
O127 O 0.48508 0.0483 0.04086 0.0
O128 O 0.44624 0.9876 0.95754 0.0
O129 O 0.46696 0.95347 0.96443 0.0
O130 O 0.4965 0.03033 0.95331 0.0
O131 O 0.5141 0.0361 0.99266 0.0
O132 O 0.55608 0.01303 0.00235 0.0
O133 O 0.52483 0.97968 0.97522 0.0
C134 C 0.45853 0.03837 0.03281 0.0
C135 C 0.55117 0.99169 0.98261 0.0
Dy136 Dy 0.51668 0.4806 0.48652 0.0
C137 C 0.46031 0.56639 0.54958 0.0
C138 C 0.55152 0.44472 0.46146 0.0
Dy139 Dy 0.49267 0.52794 0.52552 0.0
O140 O 0.52379 0.44147 0.45924 0.0
O141 O 0.56031 0.46794 0.47686 0.0
O142 O 0.47154 0.45978 0.47645 0.0
O143 O 0.47921 0.48279 0.516 0.0
C144 C 0.45996 0.47016 0.49999 0.0
C145 C 0.54939 0.53809 0.51161 0.0
O146 O 0.50385 0.50369 0.56045 0.0
O147 O 0.52699 0.47228 0.53081 0.0
O148 O 0.48114 0.57128 0.52995 0.0
O149 O 0.45737 0.54047 0.5566 0.0
O150 O 0.53805 0.54843 0.5353 0.0
O151 O 0.52989 0.52571 0.4958 0.0
O152 O 0.50926 0.5089 0.45333 0.0
O153 O 0.47518 0.52893 0.4823 0.0
C154 C 0.51915 0.48303 0.5566 0.0
C155 C 0.48803 0.52374 0.45674 0.0
Dy156 Dy 0.00947 0.48852 0.01916 0.0
C157 C 0.97928 0.59564 0.00222 0.0
C158 C 0.0312 0.44035 0.0212 0.0
Dy159 Dy 0.99995 0.54753 0.00755 0.0
O160 O 0.01315 0.4495 0.04029 0.0
O161 O 0.03734 0.45744 1.00084 0.0
O162 O 0.97274 0.4855 0.05301 0.0
O163 O 0.99859 0.52469 0.04522 0.0
C164 C 0.97646 0.51269 0.05897 0.0
C165 C 0.03502 0.52477 0.96931 0.0
O166 O 0.03706 0.5608 0.03555 0.0
O167 O 0.05085 0.51683 0.03287 0.0
O168 O 0.9967 0.58482 0.98371 0.0
O169 O 0.97329 0.58034 0.02408 0.0
O170 O 0.03828 0.55172 0.97627 0.0
O171 O 0.01209 0.51176 0.98127 0.0
O172 O 0.97144 0.47531 0.99246 0.0
O173 O 0.95814 0.51942 0.99501 0.0
C174 C 0.0558 0.54452 0.04003 0.0
C175 C 0.9528 0.49172 0.98824 0.0
H176 H 0.2048 0.16158 0.22668 0.0
H177 H 0.17894 0.13804 0.26761 0.0
H178 H 0.09814 0.13186 0.22853 0.0
H179 H 0.12386 0.15484 0.18717 0.0
H180 H 0.09507 0.148 0.28752 0.0
H181 H 0.12765 0.07608 0.22337 0.0
H182 H 0.16386 0.05498 0.19256 0.0
H183 H 0.21316 0.05351 0.26514 0.0
H184 H 0.17748 0.07507 0.29633 0.0
H185 H 0.01735 0.04729 0.38182 0.0
H186 H 0.0376 0.07033 0.33826 0.0
H187 H 0.1238 0.07395 0.36474 0.0
H188 H 0.10376 0.05063 0.4078 0.0
H189 H 0.12102 0.0576 0.30953 0.0
H190 H 0.09114 0.13183 0.37311 0.0
H191 H 0.05653 0.15461 0.40448 0.0
H192 H 0.00351 0.15286 0.33401 0.0
H193 H 0.03764 0.12969 0.30229 0.0
C194 C 0.18154 0.15517 0.22673 0.0
C195 C 0.16643 0.15988 0.20353 0.0
C196 C 0.1668 0.14185 0.25018 0.0
C197 C 0.1367 0.13298 0.25089 0.0
C198 C 0.12138 0.1386 0.22835 0.0
C199 C 0.13612 0.15182 0.2048 0.0
C200 C 0.12147 0.11675 0.27461 0.0
C201 C 0.10037 0.12802 0.29214 0.0
C202 C 0.12879 0.09092 0.28075 0.0
C203 C 0.15 0.07742 0.26215 0.0
C204 C 0.1463 0.07143 0.23274 0.0
C205 C 0.16673 0.05937 0.2152 0.0
C206 C 0.19083 0.05297 0.22687 0.0
C207 C 0.1945 0.05851 0.25613 0.0
C208 C 0.17417 0.07063 0.27375 0.0
C209 C 0.0406 0.0529 0.37818 0.0
C210 C 0.05903 0.04727 0.3981 0.0
C211 C 0.05213 0.06615 0.35341 0.0
C212 C 0.08221 0.07409 0.34841 0.0
C213 C 0.10055 0.06799 0.36814 0.0
C214 C 0.08907 0.05474 0.39277 0.0
C215 C 0.09487 0.08903 0.32284 0.0
C216 C 0.11549 0.07747 0.30487 0.0
C217 C 0.08721 0.11466 0.31642 0.0
C218 C 0.06676 0.12873 0.33541 0.0
C219 C 0.07198 0.1361 0.36436 0.0
C220 C 0.05248 0.14912 0.38219 0.0
C221 C 0.02779 0.1551 0.37127 0.0
C222 C 0.02261 0.14816 0.34245 0.0
C223 C 0.04204 0.1351 0.32454 0.0
H224 H 0.01271 0.16517 0.38511 0.0
H225 H 0.20664 0.04366 0.21326 0.0
H226 H 0.31273 0.87386 0.72681 0.0
H227 H 0.33409 0.89499 0.77078 0.0
H228 H 0.34327 0.81268 0.79364 0.0
H229 H 0.31965 0.79104 0.75082 0.0
H230 H 0.33027 0.84112 0.83968 0.0
H231 H 0.40119 0.86104 0.76293 0.0
H232 H 0.42155 0.87778 0.71624 0.0
H233 H 0.40897 0.96183 0.74415 0.0
H234 H 0.38817 0.9455 0.79089 0.0
H235 H 0.44207 0.90395 0.93712 0.0
H236 H 0.41525 0.87626 0.89812 0.0
H237 H 0.38387 0.95037 0.87884 0.0
H238 H 0.41011 0.97784 0.91769 0.0
H239 H 0.41059 0.92321 0.83143 0.0
H240 H 0.33908 0.89995 0.90974 0.0
H241 H 0.32182 0.88089 0.95626 0.0
H242 H 0.34075 0.79986 0.92484 0.0
H243 H 0.35854 0.81856 0.87824 0.0
C244 C 0.31864 0.86006 0.74139 0.0
C245 C 0.31461 0.83064 0.73487 0.0
C246 C 0.33135 0.87229 0.76644 0.0
C247 C 0.34112 0.85558 0.78527 0.0
C248 C 0.33625 0.82614 0.77938 0.0
C249 C 0.32303 0.81381 0.75459 0.0
C250 C 0.35696 0.86891 0.81067 0.0
C251 C 0.34809 0.85882 0.83775 0.0
C252 C 0.3803 0.89203 0.80839 0.0
C253 C 0.39288 0.90198 0.78033 0.0
C254 C 0.40259 0.88305 0.75904 0.0
C255 C 0.41423 0.89247 0.73258 0.0
C256 C 0.41649 0.92084 0.72721 0.0
C257 C 0.40718 0.93986 0.74833 0.0
C258 C 0.39548 0.93054 0.77482 0.0
C259 C 0.42912 0.91415 0.92475 0.0
C260 C 0.42825 0.94305 0.93031 0.0
C261 C 0.41381 0.89835 0.90254 0.0
C262 C 0.39767 0.91133 0.88552 0.0
C263 C 0.39627 0.93998 0.89163 0.0
C264 C 0.41121 0.95561 0.91391 0.0
C265 C 0.38347 0.89581 0.86029 0.0
C266 C 0.39281 0.90544 0.83323 0.0
C267 C 0.3611 0.87194 0.86257 0.0
C268 C 0.35039 0.86073 0.89058 0.0
C269 C 0.33981 0.87814 0.91282 0.0
C270 C 0.32986 0.86738 0.93918 0.0
C271 C 0.33017 0.83918 0.94348 0.0
C272 C 0.34049 0.82169 0.92146 0.0
C273 C 0.3505 0.83236 0.89507 0.0
H274 H 0.32241 0.83087 0.96388 0.0
H275 H 0.42551 0.92809 0.70671 0.0
H276 H 0.61707 0.41009 0.7867 0.0
H277 H 0.60035 0.4339 0.7488 0.0
H278 H 0.57829 0.35384 0.70037 0.0
H279 H 0.59445 0.32991 0.73838 0.0
H280 H 0.61048 0.39804 0.66778 0.0
H281 H 0.52605 0.38119 0.73374 0.0
H282 H 0.4997 0.38461 0.78091 0.0
H283 H 0.51936 0.4752 0.78246 0.0
H284 H 0.54619 0.47231 0.73545 0.0
H285 H 0.53066 0.43015 0.55952 0.0
H286 H 0.54673 0.41013 0.59987 0.0
H287 H 0.5449 0.4883 0.65114 0.0
H288 H 0.52723 0.50798 0.61095 0.0
H289 H 0.52737 0.44809 0.6837 0.0
H290 H 0.6101 0.46724 0.6189 0.0
H291 H 0.6384 0.46635 0.5726 0.0
H292 H 0.62605 0.37582 0.5699 0.0
H293 H 0.59732 0.37612 0.61602 0.0
C294 C 0.60864 0.39756 0.76799 0.0
C295 C 0.60712 0.36808 0.7655 0.0
C296 C 0.59902 0.4112 0.74636 0.0
C297 C 0.58801 0.39568 0.72169 0.0
C298 C 0.58673 0.36629 0.71913 0.0
C299 C 0.5959 0.35263 0.7409 0.0
C300 C 0.57787 0.40992 0.69844 0.0
C301 C 0.59213 0.40875 0.67115 0.0
C302 C 0.5546 0.42479 0.70304 0.0
C303 C 0.53839 0.42653 0.73124 0.0
C304 C 0.52498 0.40184 0.74426 0.0
C305 C 0.50991 0.40368 0.77094 0.0
C306 C 0.50793 0.43011 0.78472 0.0
C307 C 0.52095 0.45475 0.77179 0.0
C308 C 0.53607 0.45302 0.74512 0.0
C309 C 0.5336 0.44312 0.57939 0.0
C310 C 0.52785 0.47079 0.58188 0.0
C311 C 0.54304 0.43168 0.6025 0.0
C312 C 0.54796 0.44785 0.62855 0.0
C313 C 0.54154 0.47532 0.63133 0.0
C314 C 0.53143 0.4866 0.6083 0.0
C315 C 0.55973 0.43599 0.65267 0.0
C316 C 0.54586 0.4376 0.68019 0.0
C317 C 0.58379 0.42197 0.64842 0.0
C318 C 0.60135 0.4217 0.62083 0.0
C319 C 0.61328 0.44712 0.60836 0.0
C320 C 0.62941 0.44673 0.58215 0.0
C321 C 0.63396 0.42104 0.56828 0.0
C322 C 0.62248 0.3957 0.58065 0.0
C323 C 0.6063 0.39597 0.60685 0.0
H324 H 0.64643 0.42077 0.54798 0.0
H325 H 0.49626 0.43149 0.80537 0.0
H326 H 0.92751 0.58208 0.32105 0.0
H327 H 0.93776 0.56353 0.27181 0.0
H328 H 0.91693 0.63782 0.23984 0.0
H329 H 0.90757 0.65688 0.28897 0.0
H330 H 0.8879 0.58018 0.21512 0.0
H331 H 0.97956 0.63943 0.23494 0.0
H332 H 0.02347 0.65685 0.26102 0.0
H333 H 0.04646 0.5746 0.24885 0.0
H334 H 1.00234 0.55654 0.22317 0.0
H335 H 0.98922 0.56791 0.07748 0.0
H336 H 0.9744 0.58985 0.12343 0.0
H337 H 0.92099 0.51071 0.14495 0.0
H338 H 0.93581 0.48845 0.09864 0.0
H339 H 0.98652 0.57245 0.17442 0.0
H340 H 0.86411 0.52922 0.19158 0.0
H341 H 0.82147 0.51415 0.16303 0.0
H342 H 0.86139 0.56868 0.09803 0.0
H343 H 0.90405 0.58437 0.12635 0.0
C344 C 0.9253 0.59447 0.30349 0.0
C345 C 0.91672 0.62084 0.30861 0.0
C346 C 0.93115 0.58389 0.2755 0.0
C347 C 0.92796 0.59935 0.25241 0.0
C348 C 0.9194 0.62565 0.2575 0.0
C349 C 0.9142 0.63651 0.28546 0.0
C350 C 0.9332 0.5879 0.22284 0.0
C351 C 0.90942 0.57838 0.20616 0.0
C352 C 0.96133 0.58592 0.2113 0.0
C353 C 0.98735 0.59651 0.22758 0.0
C354 C 0.99369 0.62493 0.23826 0.0
C355 C 0.01869 0.63495 0.25286 0.0
C356 C 0.03767 0.61681 0.25672 0.0
C357 C 0.03168 0.5886 0.24597 0.0
C358 C 0.00666 0.57846 0.23141 0.0
C359 C 0.97389 0.55527 0.09174 0.0
C360 C 0.9638 0.52643 0.08468 0.0
C361 C 0.96555 0.56782 0.118 0.0
C362 C 0.94679 0.55184 0.13755 0.0
C363 C 0.93542 0.52338 0.13001 0.0
C364 C 0.94388 0.51071 0.10365 0.0
C365 C 0.94121 0.56448 0.16664 0.0
C366 C 0.96495 0.5741 0.18335 0.0
C367 C 0.91309 0.56674 0.17805 0.0
C368 C 0.88741 0.55771 0.16097 0.0
C369 C 0.86374 0.53805 0.17124 0.0
C370 C 0.83957 0.5294 0.15509 0.0
C371 C 0.83877 0.54037 0.12869 0.0
C372 C 0.86209 0.5601 0.11842 0.0
C373 C 0.88629 0.56884 0.13449 0.0
H374 H 0.82004 0.53364 0.11622 0.0
H375 H 0.05707 0.62464 0.26794 0.0
H376 H 0.23251 0.1493 0.08808 0.0
H377 H 0.27442 0.12816 0.07018 0.0
H378 H 0.31342 0.15302 0.15051 0.0
H379 H 0.27124 0.17372 0.16873 0.0
H380 H 0.35158 0.16299 0.09622 0.0
H381 H 0.28532 0.09159 0.14618 0.0
H382 H 0.2374 0.06264 0.15708 0.0
H383 H 0.23521 0.02781 0.07002 0.0
H384 H 0.28295 0.05695 0.0585 0.0
H385 H 0.45893 0.07703 0.07888 0.0
H386 H 0.41989 0.10143 0.09786 0.0
H387 H 0.36605 0.058 0.03183 0.0
H388 H 0.40462 0.03286 0.01329 0.0
H389 H 0.33551 0.05844 0.08021 0.0
H390 H 0.40082 0.12854 0.02925 0.0
H391 H 0.44778 0.15832 0.01644 0.0
H392 H 0.45125 0.19643 0.10225 0.0
H393 H 0.40447 0.16658 0.11569 0.0
C394 C 0.25022 0.15056 0.10172 0.0
C395 C 0.24876 0.16303 0.12974 0.0
C396 C 0.27402 0.13846 0.09155 0.0
C397 C 0.29684 0.13905 0.10911 0.0
C398 C 0.29597 0.15247 0.1367 0.0
C399 C 0.27192 0.16412 0.14708 0.0
C400 C 0.32079 0.1242 0.09916 0.0
C401 C 0.34829 0.14012 0.09303 0.0
C402 C 0.3161 0.09446 0.09447 0.0
C403 C 0.28756 0.07667 0.10141 0.0
C404 C 0.2745 0.07796 0.1293 0.0
C405 C 0.2474 0.06148 0.1356 0.0
C406 C 0.23324 0.04345 0.11423 0.0
C407 C 0.24619 0.04181 0.08654 0.0
C408 C 0.27328 0.05829 0.08012 0.0
C409 C 0.43878 0.07267 0.06838 0.0
C410 C 0.4349 0.05305 0.04453 0.0
C411 C 0.41652 0.08674 0.07919 0.0
C412 C 0.39017 0.08188 0.06601 0.0
C413 C 0.38618 0.06211 0.04235 0.0
C414 C 0.40829 0.04777 0.03176 0.0
C415 C 0.36661 0.09716 0.07697 0.0
C416 C 0.33903 0.08131 0.08336 0.0
C417 C 0.37123 0.12702 0.08161 0.0
C418 C 0.39928 0.14512 0.07355 0.0
C419 C 0.41169 0.14313 0.04544 0.0
C420 C 0.43826 0.16004 0.03806 0.0
C421 C 0.45253 0.1792 0.05853 0.0
C422 C 0.4402 0.18155 0.08642 0.0
C423 C 0.41364 0.16466 0.09393 0.0
H424 H 0.4731 0.19227 0.05278 0.0
H425 H 0.21225 0.03071 0.11915 0.0
H426 H 0.21986 0.8206 0.57548 0.0
H427 H 0.1873 0.84798 0.5575 0.0
H428 H 0.18257 0.89443 0.63966 0.0
H429 H 0.21501 0.86686 0.65785 0.0
H430 H 0.12923 0.88055 0.61702 0.0
H431 H 0.22474 0.9245 0.5858 0.0
H432 H 0.27394 0.9266 0.56317 0.0
H433 H 0.23872 0.89474 0.48285 0.0
H434 H 0.18927 0.89206 0.50511 0.0
H435 H 0.06877 0.98945 0.56051 0.0
H436 H 0.09899 0.96363 0.5846 0.0
H437 H 0.11151 0.91298 0.50617 0.0
H438 H 0.08166 0.93873 0.48213 0.0
H439 H 0.16184 0.932 0.52998 0.0
H440 H 0.06622 0.88625 0.56179 0.0
H441 H 0.01703 0.88539 0.58413 0.0
H442 H 0.05239 0.92183 0.66308 0.0
H443 H 0.10185 0.92322 0.64111 0.0
C444 C 0.21181 0.83659 0.58974 0.0
C445 C 0.22018 0.84167 0.61798 0.0
C446 C 0.19325 0.85229 0.57943 0.0
C447 C 0.18271 0.87356 0.5971 0.0
C448 C 0.19043 0.8782 0.62559 0.0
C449 C 0.2091 0.86249 0.63593 0.0
C450 C 0.16431 0.89131 0.58541 0.0
C451 C 0.13652 0.89213 0.59824 0.0
C452 C 0.17358 0.90621 0.56069 0.0
C453 C 0.20329 0.90784 0.5472 0.0
C454 C 0.22748 0.91773 0.56337 0.0
C455 C 0.25541 0.91906 0.5506 0.0
C456 C 0.25945 0.91074 0.52161 0.0
C457 C 0.23556 0.90114 0.50532 0.0
C458 C 0.20757 0.89974 0.51799 0.0
C459 C 0.07787 0.97269 0.54852 0.0
C460 C 0.07295 0.96616 0.51943 0.0
C461 C 0.09507 0.9579 0.5623 0.0
C462 C 0.10752 0.93625 0.54723 0.0
C463 C 0.10231 0.92964 0.51825 0.0
C464 C 0.08516 0.94434 0.50454 0.0
C465 C 0.12655 0.9208 0.5612 0.0
C466 C 0.15456 0.9205 0.54883 0.0
C467 C 0.11743 0.90646 0.5863 0.0
C468 C 0.08774 0.90508 0.59973 0.0
C469 C 0.06352 0.89422 0.58388 0.0
C470 C 0.0356 0.89362 0.59647 0.0
C471 C 0.03162 0.9036 0.62497 0.0
C472 C 0.05554 0.91412 0.64099 0.0
C473 C 0.08352 0.91478 0.62849 0.0
H474 H 0.01002 0.90315 0.63466 0.0
H475 H 0.2811 0.9118 0.51176 0.0
H476 H 0.73157 0.33503 0.87512 0.0
H477 H 0.77651 0.35875 0.89571 0.0
H478 H 0.74736 0.43849 0.89973 0.0
H479 H 0.70231 0.41482 0.87889 0.0
H480 H 0.80298 0.44523 0.88194 0.0
H481 H 0.74524 0.40132 0.95981 0.0
H482 H 0.71507 0.36205 0.98457 0.0
H483 H 0.78585 0.31706 0.9768 0.0
H484 H 0.81633 0.3559 0.95162 0.0
H485 H 0.90868 0.51792 0.97627 0.0
H486 H 0.8634 0.49649 0.9549 0.0
H487 H 0.88906 0.41499 0.94869 0.0
H488 H 0.93416 0.43612 0.97044 0.0
H489 H 0.83433 0.4103 0.9683 0.0
H490 H 0.89238 0.45537 0.89084 0.0
H491 H 0.92188 0.49487 0.86594 0.0
H492 H 0.84981 0.53808 0.87266 0.0
H493 H 0.82012 0.49925 0.89838 0.0
C494 C 0.73462 0.3576 0.88053 0.0
C495 C 0.71316 0.37296 0.87558 0.0
C496 C 0.76037 0.37116 0.89232 0.0
C497 C 0.76521 0.40039 0.8998 0.0
C498 C 0.74416 0.41592 0.89424 0.0
C499 C 0.71841 0.40237 0.88226 0.0
C500 C 0.79214 0.41461 0.91356 0.0
C501 C 0.80962 0.43786 0.90108 0.0
C502 C 0.80119 0.40472 0.93824 0.0
C503 C 0.78298 0.38142 0.9536 0.0
C504 C 0.75431 0.38297 0.96321 0.0
C505 C 0.73716 0.36079 0.97734 0.0
C506 C 0.74851 0.33704 0.9822 0.0
C507 C 0.77707 0.33546 0.973 0.0
C508 C 0.79431 0.35756 0.95882 0.0
C509 C 0.90476 0.49543 0.97036 0.0
C510 C 0.92522 0.4788 0.97509 0.0
C511 C 0.87884 0.4832 0.95799 0.0
C512 C 0.87284 0.45411 0.94984 0.0
C513 C 0.89313 0.43746 0.95474 0.0
C514 C 0.91901 0.44964 0.96715 0.0
C515 C 0.84533 0.44085 0.93659 0.0
C516 C 0.8277 0.41776 0.9492 0.0
C517 C 0.83613 0.45099 0.9121 0.0
C518 C 0.85411 0.47452 0.89687 0.0
C519 C 0.88292 0.47345 0.88734 0.0
C520 C 0.89968 0.49574 0.87306 0.0
C521 C 0.88778 0.51905 0.86784 0.0
C522 C 0.85906 0.52008 0.87682 0.0
C523 C 0.84227 0.49797 0.89131 0.0
H524 H 0.90078 0.53627 0.85676 0.0
H525 H 0.7352 0.31989 0.99314 0.0
H526 H 0.82508 0.60548 0.47649 0.0
H527 H 0.77526 0.58521 0.49258 0.0
H528 H 0.7521 0.57119 0.40502 0.0
H529 H 0.80175 0.59093 0.38878 0.0
H530 H 0.72432 0.61241 0.46054 0.0
H531 H 0.7398 0.51919 0.41453 0.0
H532 H 0.76677 0.4798 0.40866 0.0
H533 H 0.75433 0.46954 0.49883 0.0
H534 H 0.72767 0.5092 0.50523 0.0
H535 H 0.57522 0.52054 0.46129 0.0
H536 H 0.62705 0.52761 0.44751 0.0
H537 H 0.64538 0.57293 0.52896 0.0
H538 H 0.59357 0.56498 0.54334 0.0
H539 H 0.67609 0.51398 0.47699 0.0
H540 H 0.69563 0.6328 0.50912 0.0
H541 H 0.66878 0.6723 0.51571 0.0
H542 H 0.6108 0.63135 0.45263 0.0
H543 H 0.63756 0.59187 0.44537 0.0
C544 C 0.80947 0.59741 0.46071 0.0
C545 C 0.81721 0.59962 0.43142 0.0
C546 C 0.78118 0.58579 0.46989 0.0
C547 C 0.76032 0.57644 0.4499 0.0
C548 C 0.76817 0.57779 0.42065 0.0
C549 C 0.79649 0.58903 0.41144 0.0
C550 C 0.72962 0.56903 0.45956 0.0
C551 C 0.71376 0.59093 0.46425 0.0
C552 C 0.71606 0.54102 0.46424 0.0
C553 C 0.7322 0.5174 0.4604 0.0
C554 C 0.74319 0.50879 0.43314 0.0
C555 C 0.75831 0.48635 0.4297 0.0
C556 C 0.76238 0.47225 0.45338 0.0
C557 C 0.75125 0.48052 0.48052 0.0
C558 C 0.73614 0.50297 0.48406 0.0
C559 C 0.59035 0.5315 0.47647 0.0
C560 C 0.58051 0.54202 0.50345 0.0
C561 C 0.61987 0.5355 0.46857 0.0
C562 C 0.63986 0.55068 0.48729 0.0
C563 C 0.63015 0.56107 0.51433 0.0
C564 C 0.60064 0.55664 0.52243 0.0
C565 C 0.67071 0.55738 0.47773 0.0
C566 C 0.68665 0.53547 0.47331 0.0
C567 C 0.68438 0.58543 0.47314 0.0
C568 C 0.66838 0.60925 0.47699 0.0
C569 C 0.6772 0.63229 0.49661 0.0
C570 C 0.662 0.65467 0.50046 0.0
C571 C 0.63803 0.65428 0.48468 0.0
C572 C 0.62929 0.63157 0.46493 0.0
C573 C 0.64443 0.60917 0.46098 0.0
H574 H 0.62629 0.67162 0.4877 0.0
H575 H 0.77405 0.45486 0.45067 0.0
H576 H 0.18744 0.24846 0.04215 0.0
H577 H 0.1615 0.28148 0.0228 0.0
H578 H 0.11244 0.28839 0.1036 0.0
H579 H 0.13788 0.25543 0.12283 0.0
H580 H 0.0781 0.28109 0.05931 0.0
H581 H 0.16911 0.33964 0.08459 0.0
H582 H 0.22222 0.35358 0.08248 0.0
H583 H 0.22354 0.36132 0.99212 0.0
H584 H 0.17044 0.34705 0.99364 0.0
H585 H 0.02506 0.40764 0.06609 0.0
H586 H 0.04928 0.36825 0.0717 0.0
H587 H 0.09059 0.37677 0.98699 0.0
H588 H 0.06706 0.4171 0.98163 0.0
H589 H 0.12881 0.37272 0.02457 0.0
H590 H 0.03693 0.32039 1.00066 0.0
H591 H 0.98376 0.30737 0.00317 0.0
H592 H 0.98369 0.28809 0.09059 0.0
H593 H 0.03683 0.30137 0.08876 0.0
C594 C 0.17111 0.2571 0.0557 0.0
C595 C 0.16469 0.2494 0.08392 0.0
C596 C 0.15639 0.27595 0.04468 0.0
C597 C 0.13513 0.28744 0.06182 0.0
C598 C 0.12868 0.27967 0.08998 0.0
C599 C 0.14334 0.26088 0.10097 0.0
C600 C 0.11945 0.30766 0.05076 0.0
C601 C 0.08915 0.3012 0.05184 0.0
C602 C 0.13396 0.33342 0.04007 0.0
C603 C 0.16586 0.3419 0.03916 0.0
C604 C 0.18076 0.34404 0.06422 0.0
C605 C 0.21085 0.35206 0.06315 0.0
C606 C 0.22626 0.35823 0.03717 0.0
C607 C 0.21159 0.35646 0.01222 0.0
C608 C 0.1815 0.34842 0.01317 0.0
C609 C 0.03912 0.40098 0.04857 0.0
C610 C 0.04426 0.41535 0.02346 0.0
C611 C 0.05283 0.37837 0.05172 0.0
C612 C 0.07155 0.36942 0.02964 0.0
C613 C 0.07631 0.38345 0.00428 0.0
C614 C 0.0628 0.40633 1.00122 0.0
C615 C 0.08737 0.34653 0.03396 0.0
C616 C 0.11771 0.35242 0.03154 0.0
C617 C 0.07289 0.32022 0.04342 0.0
C618 C 0.04089 0.31204 0.0446 0.0
C619 C 0.02557 0.31356 0.02049 0.0
C620 C 0.99543 0.3061 0.02178 0.0
C621 C 0.98035 0.29695 0.04704 0.0
C622 C 0.99539 0.29518 0.07104 0.0
C623 C 0.02553 0.30263 0.06987 0.0
H624 H 0.95702 0.29119 0.048 0.0
H625 H 0.24955 0.36445 0.03638 0.0
H626 H 0.61757 0.2688 0.83606 0.0
H627 H 0.59542 0.22433 0.8567 0.0
H628 H 0.61638 0.26158 0.94078 0.0
H629 H 0.63836 0.30604 0.92037 0.0
H630 H 0.62919 0.20995 0.93385 0.0
H631 H 0.54689 0.25037 0.91972 0.0
H632 H 0.51501 0.27207 0.89287 0.0
H633 H 0.50114 0.19804 0.83468 0.0
H634 H 0.53327 0.17604 0.86096 0.0
H635 H 0.54177 0.0922 0.00395 0.0
H636 H 0.56396 0.13963 0.98927 0.0
H637 H 0.54344 0.11297 0.90219 0.0
H638 H 0.52065 0.06645 0.91689 0.0
H639 H 0.52944 0.16167 0.91472 0.0
H640 H 0.61461 0.12262 0.92768 0.0
H641 H 0.646 0.10111 0.95536 0.0
H642 H 0.65367 0.17274 0.0168 0.0
H643 H 0.62208 0.19454 0.9896 0.0
C644 C 0.61715 0.26767 0.85898 0.0
C645 C 0.62988 0.29109 0.87646 0.0
C646 C 0.60452 0.24215 0.87079 0.0
C647 C 0.60405 0.23951 0.90041 0.0
C648 C 0.61658 0.26292 0.9179 0.0
C649 C 0.62921 0.28838 0.90612 0.0
C650 C 0.59069 0.21235 0.91312 0.0
C651 C 0.60723 0.19958 0.92995 0.0
C652 C 0.56213 0.19855 0.90797 0.0
C653 C 0.5427 0.21167 0.89217 0.0
C654 C 0.53721 0.2388 0.90107 0.0
C655 C 0.51907 0.25114 0.88597 0.0
C656 C 0.50611 0.23647 0.86204 0.0
C657 C 0.51122 0.20939 0.8532 0.0
C658 C 0.52937 0.19696 0.86821 0.0
C659 C 0.54229 0.09654 0.98168 0.0
C660 C 0.52949 0.07565 0.96157 0.0
C661 C 0.55502 0.12361 0.97325 0.0
C662 C 0.55557 0.13003 0.94448 0.0
C663 C 0.54321 0.10882 0.92449 0.0
C664 C 0.53028 0.0821 0.93293 0.0
C665 C 0.56817 0.1588 0.93482 0.0
C666 C 0.55139 0.17201 0.91867 0.0
C667 C 0.59647 0.17297 0.94066 0.0
C668 C 0.61577 0.16007 0.95676 0.0
C669 C 0.62288 0.1337 0.94717 0.0
C670 C 0.64072 0.12148 0.96276 0.0
C671 C 0.65176 0.13552 0.98786 0.0
C672 C 0.64508 0.16188 0.99737 0.0
C673 C 0.62724 0.17419 0.98186 0.0
H674 H 0.66554 0.126 0.99991 0.0
H675 H 0.49207 0.24606 0.85038 0.0
H676 H 0.92937 0.68685 0.44656 0.0
H677 H 0.94394 0.73791 0.45852 0.0
H678 H 0.86319 0.75195 0.43085 0.0
H679 H 0.84814 0.70087 0.41985 0.0
H680 H 0.92433 0.78349 0.40512 0.0
H681 H 0.86155 0.7635 0.49011 0.0
H682 H 0.84371 0.7388 0.53354 0.0
H683 H 0.92697 0.76481 0.56796 0.0
H684 H 0.94551 0.78913 0.52442 0.0
H685 H 0.95238 0.93294 0.44285 0.0
H686 H 0.93006 0.88332 0.43206 0.0
H687 H 0.98074 0.85793 0.49445 0.0
H688 H 1.00169 0.90724 0.50616 0.0
H689 H 0.92924 0.83221 0.50223 0.0
H690 H 0.99449 0.84816 0.41883 0.0
H691 H 0.0159 0.87198 0.37579 0.0
H692 H 0.93358 0.85274 0.33865 0.0
H693 H 0.9116 0.8291 0.38165 0.0
C694 C 0.9146 0.70088 0.44365 0.0
C695 C 0.88761 0.69021 0.43263 0.0
C696 C 0.92288 0.72986 0.45039 0.0
C697 C 0.90452 0.74844 0.44559 0.0
C698 C 0.87746 0.73778 0.43482 0.0
C699 C 0.86889 0.70875 0.42871 0.0
C700 C 0.9145 0.77916 0.45014 0.0
C701 C 0.92506 0.79438 0.42627 0.0
C702 C 0.91602 0.79287 0.47781 0.0
C703 C 0.90504 0.77775 0.50376 0.0
C704 C 0.8762 0.76355 0.50671 0.0
C705 C 0.86593 0.74971 0.53141 0.0
C706 C 0.88423 0.75012 0.55345 0.0
C707 C 0.91285 0.76441 0.55083 0.0
C708 C 0.92325 0.77821 0.52614 0.0
C709 C 0.95883 0.91661 0.45394 0.0
C710 C 0.97852 0.92373 0.47539 0.0
C711 C 0.94618 0.88832 0.44777 0.0
C712 C 0.95378 0.86682 0.4624 0.0
C713 C 0.97427 0.87408 0.48309 0.0
C714 C 0.98631 0.90224 0.4897 0.0
C715 C 0.93985 0.83679 0.45719 0.0
C716 C 0.92846 0.82157 0.48096 0.0
C717 C 0.93816 0.82297 0.42944 0.0
C718 C 0.95134 0.83716 0.40359 0.0
C719 C 0.98091 0.84921 0.40158 0.0
C720 C 0.99315 0.86264 0.37717 0.0
C721 C 0.97609 0.86395 0.35454 0.0
C722 C 0.94676 0.85176 0.35622 0.0
C723 C 0.9344 0.83833 0.3806 0.0
H724 H 0.98561 0.87435 0.33566 0.0
H725 H 0.87621 0.73946 0.57259 0.0
H726 H 0.32655 0.77601 0.61154 0.0
H727 H 0.35034 0.7374 0.59062 0.0
H728 H 0.32913 0.69482 0.66862 0.0
H729 H 0.30631 0.7338 0.68978 0.0
H730 H 0.38196 0.69397 0.65356 0.0
H731 H 0.29542 0.67172 0.6032 0.0
H732 H 0.25786 0.68034 0.5732 0.0
H733 H 0.32159 0.69904 0.50389 0.0
H734 H 0.35962 0.69092 0.53361 0.0
H735 H 0.42322 0.56378 0.59744 0.0
H736 H 0.39397 0.59895 0.61664 0.0
H737 H 0.42663 0.6503 0.54641 0.0
H738 H 0.45621 0.61555 0.52749 0.0
H739 H 0.36695 0.6451 0.55739 0.0
H740 H 0.45334 0.66855 0.60956 0.0
H741 H 0.49 0.65859 0.63988 0.0
H742 H 0.42427 0.63567 0.70648 0.0
H743 H 0.38714 0.64513 0.67636 0.0
C744 C 0.32661 0.75816 0.62399 0.0
C745 C 0.31463 0.75792 0.65229 0.0
C746 C 0.34016 0.73604 0.61202 0.0
C747 C 0.34144 0.71292 0.62791 0.0
C748 C 0.32864 0.71237 0.6559 0.0
C749 C 0.31551 0.73463 0.66797 0.0
C750 C 0.35745 0.69012 0.61615 0.0
C751 C 0.37822 0.68302 0.63271 0.0
C752 C 0.35323 0.67607 0.58867 0.0
C753 C 0.33042 0.68099 0.57075 0.0
C754 C 0.30147 0.6779 0.58164 0.0
C755 C 0.28009 0.68265 0.56467 0.0
C756 C 0.28735 0.69031 0.53668 0.0
C757 C 0.31601 0.69316 0.52558 0.0
C758 C 0.33748 0.68846 0.54248 0.0
C759 C 0.42419 0.58262 0.5862 0.0
C760 C 0.44217 0.5871 0.56116 0.0
C761 C 0.40753 0.60271 0.59718 0.0
C762 C 0.40825 0.62736 0.58305 0.0
C763 C 0.42573 0.63148 0.55768 0.0
C764 C 0.44272 0.61167 0.54698 0.0
C765 C 0.39117 0.64912 0.59488 0.0
C766 C 0.37037 0.65603 0.57831 0.0
C767 C 0.39513 0.66284 0.62244 0.0
C768 C 0.41744 0.65726 0.6406 0.0
C769 C 0.44668 0.66116 0.63058 0.0
C770 C 0.46754 0.65565 0.64774 0.0
C771 C 0.45946 0.64643 0.67506 0.0
C772 C 0.43049 0.64277 0.6853 0.0
C773 C 0.40953 0.64822 0.6682 0.0
H774 H 0.47565 0.64218 0.68832 0.0
H775 H 0.27076 0.69398 0.52358 0.0
H776 H 0.88865 0.86929 0.82635 0.0
H777 H 0.91878 0.88614 0.78431 0.0
H778 H 0.84222 0.88405 0.7392 0.0
H779 H 0.81194 0.86689 0.7811 0.0
H780 H 0.88614 0.86203 0.70582 0.0
H781 H 0.87458 0.94469 0.76847 0.0
H782 H 0.87755 0.97377 0.81421 0.0
H783 H 0.96913 0.97617 0.81136 0.0
H784 H 0.96662 0.94674 0.76576 0.0
H785 H 0.92512 0.95581 0.59835 0.0
H786 H 0.90479 0.93109 0.64043 0.0
H787 H 0.98937 0.94488 0.67363 0.0
H788 H 0.01 0.96984 0.63118 0.0
H789 H 0.94768 0.95745 0.714 0.0
H790 H 0.96088 0.87982 0.64903 0.0
H791 H 0.95896 0.85082 0.60325 0.0
H792 H 0.86622 0.83781 0.61041 0.0
H793 H 0.86765 0.86723 0.65598 0.0
C794 C 0.87826 0.87209 0.80734 0.0
C795 C 0.84796 0.86686 0.80698 0.0
C796 C 0.89548 0.88183 0.78343 0.0
C797 C 0.88269 0.88646 0.75876 0.0
C798 C 0.85247 0.88058 0.75807 0.0
C799 C 0.83522 0.87102 0.78205 0.0
C800 C 0.90068 0.89857 0.73405 0.0
C801 C 0.89947 0.88295 0.7075 0.0
C802 C 0.91882 0.92544 0.73659 0.0
C803 C 0.92036 0.94324 0.7639 0.0
C804 C 0.89531 0.95121 0.77773 0.0
C805 C 0.89692 0.9678 0.8036 0.0
C806 C 0.9235 0.97674 0.81573 0.0
C807 C 0.94854 0.96918 0.80197 0.0
C808 C 0.94704 0.95256 0.77611 0.0
C809 C 0.93943 0.95358 0.61458 0.0
C810 C 0.96909 0.96478 0.61162 0.0
C811 C 0.92781 0.93927 0.63852 0.0
C812 C 0.94564 0.93581 0.65993 0.0
C813 C 0.9753 0.94725 0.65723 0.0
C814 C 0.98702 0.96149 0.63309 0.0
C815 C 0.93267 0.9212 0.68555 0.0
C816 C 0.93477 0.93633 0.71232 0.0
C817 C 0.91551 0.89379 0.68322 0.0
C818 C 0.91442 0.87598 0.65582 0.0
C819 C 0.9401 0.87102 0.64069 0.0
C820 C 0.93909 0.85446 0.6148 0.0
C821 C 0.91248 0.84251 0.60389 0.0
C822 C 0.88683 0.84709 0.61888 0.0
C823 C 0.88773 0.8637 0.64476 0.0
H824 H 0.91173 0.82965 0.58386 0.0
H825 H 0.9247 0.98958 0.83576 0.0
H826 H 0.64634 0.16644 0.31549 0.0
H827 H 0.62413 0.14511 0.27175 0.0
H828 H 0.70857 0.14717 0.22882 0.0
H829 H 0.73106 0.16894 0.27269 0.0
H830 H 0.67012 0.16653 0.19615 0.0
H831 H 0.67167 0.08594 0.24821 0.0
H832 H 0.66329 0.05746 0.29015 0.0
H833 H 0.57204 0.05601 0.29055 0.0
H834 H 0.5799 0.08484 0.24884 0.0
H835 H 0.61123 0.08054 0.07501 0.0
H836 H 0.63975 0.10146 0.11543 0.0
H837 H 0.56194 0.09247 0.17119 0.0
H838 H 0.5337 0.07058 0.13113 0.0
H839 H 0.6014 0.07512 0.19595 0.0
H840 H 0.59936 0.15813 0.1466 0.0
H841 H 0.60682 0.18701 0.10495 0.0
H842 H 0.69759 0.18475 0.0998 0.0
H843 H 0.6906 0.15554 0.14123 0.0
C844 C 0.66022 0.16242 0.29673 0.0
C845 C 0.69047 0.16942 0.29753 0.0
C846 C 0.64749 0.15008 0.27179 0.0
C847 C 0.66468 0.14439 0.24705 0.0
C848 C 0.69491 0.15136 0.24769 0.0
C849 C 0.70771 0.16357 0.27279 0.0
C850 C 0.65081 0.13131 0.22063 0.0
C851 C 0.65544 0.14632 0.1959 0.0
C852 C 0.63124 0.10522 0.22051 0.0
C853 C 0.62641 0.08775 0.24552 0.0
C854 C 0.64983 0.07973 0.25737 0.0
C855 C 0.64517 0.06349 0.28108 0.0
C856 C 0.61716 0.05498 0.29304 0.0
C857 C 0.59373 0.06264 0.28127 0.0
C858 C 0.59827 0.0789 0.25757 0.0
C859 C 0.60026 0.08332 0.09586 0.0
C860 C 0.57029 0.07398 0.09998 0.0
C861 C 0.61654 0.09536 0.11896 0.0
C862 C 0.60303 0.0988 0.14644 0.0
C863 C 0.57295 0.08997 0.15029 0.0
C864 C 0.55678 0.07759 0.12735 0.0
C865 C 0.62009 0.11061 0.1715 0.0
C866 C 0.61615 0.09529 0.19603 0.0
C867 C 0.6401 0.1365 0.17145 0.0
C868 C 0.6444 0.15441 0.14683 0.0
C869 C 0.62088 0.16365 0.13648 0.0
C870 C 0.62503 0.18009 0.11292 0.0
C871 C 0.65265 0.18763 0.09968 0.0
C872 C 0.6762 0.17885 0.11005 0.0
C873 C 0.67216 0.16238 0.13359 0.0
H874 H 0.65581 0.20031 0.08141 0.0
H875 H 0.61359 0.04241 0.3114 0.0
H876 H 0.45496 0.66166 0.24021 0.0
H877 H 0.46948 0.63641 0.27815 0.0
H878 H 0.38057 0.61576 0.31036 0.0
H879 H 0.36591 0.64072 0.27228 0.0
H880 H 0.41914 0.63495 0.35381 0.0
H881 H 0.40972 0.56624 0.2731 0.0
H882 H 0.41924 0.54854 0.22321 0.0
H883 H 0.50988 0.56002 0.23613 0.0
H884 H 0.50093 0.57818 0.28602 0.0
H885 H 0.43491 0.53575 0.45004 0.0
H886 H 0.41975 0.55854 0.41097 0.0
H887 H 0.50486 0.56357 0.36862 0.0
H888 H 0.5196 0.53924 0.40714 0.0
H889 H 0.46841 0.55306 0.33005 0.0
H890 H 0.47947 0.62193 0.40983 0.0
H891 H 0.4714 0.63992 0.4599 0.0
H892 H 0.38052 0.63037 0.44906 0.0
H893 H 0.38798 0.61193 0.39902 0.0
C894 C 0.43851 0.65173 0.2554 0.0
C895 C 0.40929 0.65307 0.2531 0.0
C896 C 0.44682 0.63724 0.27704 0.0
C897 C 0.42612 0.62396 0.29707 0.0
C898 C 0.39696 0.62578 0.29518 0.0
C899 C 0.38859 0.63998 0.2733 0.0
C900 C 0.43488 0.60801 0.3198 0.0
C901 C 0.4296 0.61683 0.34864 0.0
C902 C 0.44928 0.58484 0.31315 0.0
C903 C 0.45469 0.57384 0.2832 0.0
C904 C 0.43171 0.56522 0.26523 0.0
C905 C 0.437 0.55506 0.23697 0.0
C906 C 0.46516 0.55323 0.22648 0.0
C907 C 0.48808 0.56149 0.24427 0.0
C908 C 0.48291 0.57169 0.27255 0.0
C909 C 0.45037 0.54154 0.43231 0.0
C910 C 0.47855 0.53584 0.43182 0.0
C911 C 0.44173 0.55484 0.41001 0.0
C912 C 0.46133 0.56371 0.38703 0.0
C913 C 0.48927 0.55721 0.38608 0.0
C914 C 0.49773 0.54327 0.40813 0.0
C915 C 0.45274 0.57994 0.36428 0.0
C916 C 0.45805 0.57122 0.33537 0.0
C917 C 0.43871 0.60348 0.37089 0.0
C918 C 0.43426 0.61532 0.40074 0.0
C919 C 0.45775 0.62357 0.41815 0.0
C920 C 0.45328 0.63384 0.44653 0.0
C921 C 0.42545 0.63621 0.45768 0.0
C922 C 0.40206 0.62848 0.44041 0.0
C923 C 0.40639 0.61815 0.41203 0.0
H924 H 0.42203 0.64409 0.47968 0.0
H925 H 0.46921 0.54535 0.2046 0.0
H926 H 0.10144 0.41559 0.73048 0.0
H927 H 0.08637 0.43372 0.77821 0.0
H928 H 0.1753 0.45383 0.8002 0.0
H929 H 0.19065 0.43577 0.75217 0.0
H930 H 0.13522 0.42814 0.84434 0.0
H931 H 0.14963 0.50534 0.78376 0.0
H932 H 0.14393 0.52868 0.7405 0.0
H933 H 0.05202 0.51538 0.75888 0.0
H934 H 0.05714 0.49156 0.80205 0.0
H935 H 0.0827 0.55163 0.94028 0.0
H936 H 0.11004 0.53235 0.89951 0.0
H937 H 0.05539 0.45057 0.90656 0.0
H938 H 0.02752 0.4699 0.94715 0.0
H939 H 0.08498 0.51007 0.84943 0.0
H940 H 0.09993 0.40103 0.88372 0.0
H941 H 0.10896 0.37991 0.92734 0.0
H942 H 0.14783 0.46168 0.96321 0.0
H943 H 0.13942 0.48323 0.91973 0.0
C944 C 0.1178 0.42369 0.74549 0.0
C945 C 0.14725 0.42445 0.73769 0.0
C946 C 0.10915 0.43399 0.77273 0.0
C947 C 0.12977 0.44512 0.79257 0.0
C948 C 0.15912 0.44519 0.78513 0.0
C949 C 0.16783 0.43509 0.75775 0.0
C950 C 0.12059 0.45823 0.82039 0.0
C951 C 0.12427 0.44606 0.84557 0.0
C952 C 0.10692 0.48198 0.82184 0.0
C953 C 0.10376 0.49646 0.796 0.0
C954 C 0.12819 0.50719 0.77845 0.0
C955 C 0.12506 0.52054 0.75397 0.0
C956 C 0.09763 0.52346 0.74691 0.0
C957 C 0.07326 0.51308 0.76436 0.0
C958 C 0.07626 0.49968 0.78885 0.0
C959 C 0.0767 0.52946 0.93333 0.0
C960 C 0.05296 0.51223 0.94669 0.0
C961 C 0.09236 0.51851 0.91013 0.0
C962 C 0.08473 0.49009 0.90018 0.0
C963 C 0.06174 0.47251 0.9142 0.0
C964 C 0.04585 0.48355 0.93729 0.0
C965 C 0.09893 0.47961 0.87345 0.0
C966 C 0.09607 0.49224 0.84835 0.0
C967 C 0.11369 0.45662 0.87225 0.0
C968 C 0.1188 0.44377 0.89851 0.0
C969 C 0.11048 0.41449 0.90087 0.0
C970 C 0.1155 0.40244 0.92558 0.0
C971 C 0.12897 0.41945 0.94801 0.0
C972 C 0.13735 0.44854 0.94584 0.0
C973 C 0.1324 0.46069 0.9212 0.0
H974 H 0.13301 0.4101 0.96705 0.0
H975 H 0.09525 0.5338 0.72794 0.0
H976 H 0.74415 0.86935 0.83905 0.0
H977 H 0.70339 0.89195 0.85712 0.0
H978 H 0.74158 0.91283 0.93847 0.0
H979 H 0.78163 0.8891 0.92076 0.0
H980 H 0.6876 0.89476 0.94783 0.0
H981 H 0.74239 0.96274 0.88684 0.0
H982 H 0.76787 0.98 0.84218 0.0
H983 H 0.68898 0.95706 0.79915 0.0
H984 H 0.66309 0.9393 0.84348 0.0
H985 H 0.60548 0.99892 0.00146 0.0
H986 H 0.64606 0.97789 0.98004 0.0
H987 H 0.59427 0.9378 0.91123 0.0
H988 H 0.5533 0.95846 0.93269 0.0
H989 H 0.65394 0.96576 0.89489 0.0
H990 H 0.59996 0.8983 0.95841 0.0
H991 H 0.57586 0.8841 0.0047 0.0
H992 H 0.65621 0.90996 0.04479 0.0
H993 H 0.6807 0.92479 0.9988 0.0
C994 C 0.74379 0.8789 0.86074 0.0
C995 C 0.76591 0.87758 0.87856 0.0
C996 C 0.72062 0.89192 0.87101 0.0
C997 C 0.71959 0.90452 0.89905 0.0
C998 C 0.74183 0.90325 0.9168 0.0
C999 C 0.7647 0.88976 0.9067 0.0
C1000 C 0.69502 0.91839 0.9102 0.0
C1001 C 0.68058 0.91055 0.93636 0.0
C1002 C 0.68538 0.93866 0.89507 0.0
C1003 C 0.70087 0.94943 0.86841 0.0
C1004 C 0.73052 0.96119 0.8678 0.0
C1005 C 0.74503 0.97109 0.84255 0.0
C1006 C 0.73007 0.96956 0.81783 0.0
C1007 C 0.70055 0.9582 0.81832 0.0
C1008 C 0.68594 0.94823 0.8435 0.0
C1009 C 0.60274 0.98582 0.98166 0.0
C1010 C 0.57614 0.98023 0.96883 0.0
C1011 C 0.62592 0.9738 0.9695 0.0
C1012 C 0.62301 0.95626 0.94418 0.0
C1013 C 0.59684 0.95133 0.9308 0.0
C1014 C 0.57347 0.96301 0.94316 0.0
C1015 C 0.64698 0.94218 0.93238 0.0
C1016 C 0.66117 0.94995 0.90618 0.0
C1017 C 0.65671 0.9222 0.94764 0.0
C1018 C 0.6421 0.91291 0.97522 0.0
C1019 C 0.61244 0.90118 0.97714 0.0
C1020 C 0.59872 0.89298 0.00332 0.0
C1021 C 0.61448 0.89619 0.02769 0.0
C1022 C 0.64402 0.90752 0.0259 0.0
C1023 C 0.65784 0.91581 0.99978 0.0
H1024 H 0.60381 0.88983 0.04793 0.0
H1025 H 0.74134 0.97724 0.7983 0.0
H1026 H 0.80413 0.19399 0.44532 0.0
H1027 H 0.84051 0.16916 0.46031 0.0
H1028 H 0.83455 0.11613 0.38165 0.0
H1029 H 0.79784 0.14062 0.3668 0.0
H1030 H 0.83468 0.08495 0.42507 0.0
H1031 H 0.89296 0.17014 0.39394 0.0
H1032 H 0.90937 0.22148 0.39136 0.0
H1033 H 0.92589 0.23002 0.48044 0.0
H1034 H 0.9091 0.1788 0.48369 0.0
H1035 H 0.95573 0.0236 0.45269 0.0
H1036 H 0.92504 0.0498 0.42967 0.0
H1037 H 0.92236 0.10615 0.5057 0.0
H1038 H 0.95302 0.08031 0.52852 0.0
H1039 H 0.92885 0.13517 0.45919 0.0
H1040 H 0.86622 0.05111 0.49114 0.0
H1041 H 0.85032 0.99971 0.49396 0.0
H1042 H 0.84278 0.98934 0.40315 0.0
H1043 H 0.85902 0.04067 0.39974 0.0
C1044 C 0.81068 0.17711 0.43118 0.0
C1045 C 0.79812 0.16935 0.40489 0.0
C1046 C 0.83162 0.16301 0.43969 0.0
C1047 C 0.84067 0.14093 0.42198 0.0
C1048 C 0.82805 0.1331 0.39569 0.0
C1049 C 0.80707 0.14719 0.38719 0.0
C1050 C 0.86257 0.12549 0.4313 0.0
C1051 C 0.85548 0.09595 0.43203 0.0
C1052 C 0.88959 0.13973 0.44094 0.0
C1053 C 0.89943 0.17063 0.43912 0.0
C1054 C 0.89979 0.18299 0.41306 0.0
C1055 C 0.90922 0.21208 0.41146 0.0
C1056 C 0.91858 0.22901 0.43574 0.0
C1057 C 0.91857 0.21689 0.46166 0.0
C1058 C 0.9091 0.18783 0.46339 0.0
C1059 C 0.94869 0.04168 0.46436 0.0
C1060 C 0.95649 0.04972 0.49251 0.0
C1061 C 0.93106 0.05657 0.45126 0.0
C1062 C 0.92097 0.07975 0.46608 0.0
C1063 C 0.92969 0.08831 0.49382 0.0
C1064 C 0.94713 0.07342 0.50691 0.0
C1065 C 0.90074 0.09479 0.45328 0.0
C1066 C 0.90814 0.12423 0.45193 0.0
C1067 C 0.87402 0.08049 0.44311 0.0
C1068 C 0.86415 0.04967 0.44514 0.0
C1069 C 0.86139 0.03784 0.47174 0.0
C1070 C 0.85228 0.00872 0.47345 0.0
C1071 C 0.84564 0.99126 0.44874 0.0
C1072 C 0.848 1.00289 0.42227 0.0
C1073 C 0.85713 0.03198 0.42043 0.0
H1074 H 0.83859 0.96872 0.4501 0.0
H1075 H 0.9259 0.25152 0.43445 0.0
H1076 H 0.30174 0.61771 0.15628 0.0
H1077 H 0.25566 0.59488 0.13701 0.0
H1078 H 0.23007 0.67603 0.13767 0.0
H1079 H 0.27593 0.69896 0.15729 0.0
H1080 H 0.18519 0.63458 0.15688 0.0
H1081 H 0.25532 0.64685 0.0767 0.0
H1082 H 0.30118 0.64206 0.0495 0.0
H1083 H 0.27779 0.55165 0.04829 0.0
H1084 H 0.23195 0.55592 0.07586 0.0
H1085 H 0.0725 0.59957 0.06083 0.0
H1086 H 0.11632 0.62038 0.08501 0.0
H1087 H 0.14333 0.53947 0.07692 0.0
H1088 H 0.09978 0.51854 0.05239 0.0
H1089 H 0.18724 0.57982 0.06283 0.0
H1090 H 0.11661 0.56653 0.14119 0.0
H1091 H 0.07096 0.57033 0.16926 0.0
H1092 H 0.09476 0.66081 0.17508 0.0
H1093 H 0.1404 0.65759 0.14669 0.0
C1094 C 0.28616 0.63066 0.15266 0.0
C1095 C 0.29261 0.66019 0.15817 0.0
C1096 C 0.2599 0.6176 0.14147 0.0
C1097 C 0.23949 0.63376 0.13562 0.0
C1098 C 0.24548 0.66313 0.14194 0.0
C1099 C 0.27181 0.67622 0.15294 0.0
C1100 C 0.21237 0.6202 0.12199 0.0
C1101 C 0.18559 0.62286 0.13617 0.0
C1102 C 0.21287 0.60432 0.09529 0.0
C1103 C 0.24035 0.60171 0.0786 0.0
C1104 C 0.26006 0.62595 0.07084 0.0
C1105 C 0.28603 0.62333 0.05532 0.0
C1106 C 0.29243 0.59657 0.04724 0.0
C1107 C 0.27283 0.57237 0.0546 0.0
C1108 C 0.24685 0.57488 0.07016 0.0
C1109 C 0.08772 0.58614 0.06418 0.0
C1110 C 0.08251 0.55732 0.05463 0.0
C1111 C 0.11273 0.59807 0.0782 0.0
C1112 C 0.13303 0.58145 0.08314 0.0
C1113 C 0.12799 0.55274 0.07344 0.0
C1114 C 0.103 0.54078 0.05943 0.0
C1115 C 0.15991 0.59415 0.09767 0.0
C1116 C 0.18671 0.5914 0.08361 0.0
C1117 C 0.15936 0.60977 0.12456 0.0
C1118 C 0.13183 0.61182 0.14153 0.0
C1119 C 0.112 0.58726 0.14822 0.0
C1120 C 0.08615 0.5893 0.16424 0.0
C1121 C 0.07993 0.61579 0.17389 0.0
C1122 C 0.09959 0.6403 0.16756 0.0
C1123 C 0.12547 0.63838 0.15152 0.0
H1124 H 0.05991 0.61732 0.18631 0.0
H1125 H 0.31255 0.59458 0.03522 0.0
H1126 H 0.18473 0.39588 0.56003 0.0
H1127 H 0.22965 0.41529 0.53328 0.0
H1128 H 0.27001 0.44329 0.61235 0.0
H1129 H 0.2259 0.42297 0.63927 0.0
H1130 H 0.28386 0.48285 0.56713 0.0
H1131 H 0.27959 0.38366 0.58478 0.0
H1132 H 0.25622 0.33341 0.5819 0.0
H1133 H 0.25874 0.33281 0.49042 0.0
H1134 H 0.28172 0.38325 0.49283 0.0
H1135 H 0.4334 0.48544 0.55066 0.0
H1136 H 0.38152 0.47898 0.56332 0.0
H1137 H 0.3642 0.44113 0.47852 0.0
H1138 H 0.41628 0.44765 0.46575 0.0
H1139 H 0.33464 0.40937 0.51796 0.0
H1140 H 0.34851 0.50502 0.4988 0.0
H1141 H 0.37027 0.55561 0.49985 0.0
H1142 H 0.34838 0.56465 0.59003 0.0
H1143 H 0.32719 0.51391 0.58974 0.0
C1144 C 0.20313 0.40623 0.57176 0.0
C1145 C 0.20172 0.40759 0.60184 0.0
C1146 C 0.22863 0.41755 0.55642 0.0
C1147 C 0.25302 0.43066 0.57092 0.0
C1148 C 0.25126 0.43348 0.60084 0.0
C1149 C 0.22594 0.42186 0.61618 0.0
C1150 C 0.28135 0.4385 0.55524 0.0
C1151 C 0.29512 0.46692 0.55638 0.0
C1152 C 0.2954 0.41766 0.54047 0.0
C1153 C 0.28202 0.38727 0.53901 0.0
C1154 C 0.27494 0.37286 0.56408 0.0
C1155 C 0.2618 0.34435 0.56253 0.0
C1156 C 0.25591 0.32995 0.536 0.0
C1157 C 0.26325 0.34401 0.51096 0.0
C1158 C 0.27633 0.37255 0.5124 0.0
C1159 C 0.41851 0.47617 0.53461 0.0
C1160 C 0.42873 0.4671 0.50725 0.0
C1161 C 0.38889 0.47257 0.54181 0.0
C1162 C 0.36901 0.45989 0.52173 0.0
C1163 C 0.37921 0.45107 0.49426 0.0
C1164 C 0.40888 0.45473 0.48703 0.0
C1165 C 0.33777 0.45382 0.53039 0.0
C1166 C 0.32337 0.4256 0.52806 0.0
C1167 C 0.32312 0.47497 0.54375 0.0
C1168 C 0.33637 0.5055 0.54427 0.0
C1169 C 0.34863 0.51767 0.51895 0.0
C1170 C 0.36085 0.54641 0.5194 0.0
C1171 C 0.3607 0.56332 0.54498 0.0
C1172 C 0.34849 0.5515 0.57022 0.0
C1173 C 0.33638 0.52273 0.56993 0.0
H1174 H 0.36994 0.5856 0.5452 0.0
H1175 H 0.24573 0.30787 0.53484 0.0
H1176 H 0.83796 0.78609 0.9357 0.0
H1177 H 0.85752 0.7552 0.96467 0.0
H1178 H 0.88498 0.70936 0.88785 0.0
H1179 H 0.86514 0.73991 0.85887 0.0
H1180 H 0.86143 0.67377 0.92724 0.0
H1181 H 0.93217 0.75983 0.92325 0.0
H1182 H 0.94992 0.8112 0.92983 0.0
H1183 H 0.92756 0.80918 0.01997 0.0
H1184 H 0.9093 0.7578 0.01384 0.0
H1185 H 0.98507 0.62304 0.95381 0.0
H1186 H 0.95706 0.65744 0.9416 0.0
H1187 H 0.91377 0.65603 0.02577 0.0
H1188 H 0.9415 0.62083 0.03811 0.0
H1189 H 0.93929 0.71511 0.99176 0.0
H1190 H 0.87163 0.62514 0.99332 0.0
H1191 H 0.86045 0.57341 0.98325 0.0
H1192 H 0.88249 0.58331 0.89392 0.0
H1193 H 0.89415 0.63506 0.90356 0.0
C1194 C 0.84801 0.76931 0.92503 0.0
C1195 C 0.85017 0.76535 0.89503 0.0
C1196 C 0.85922 0.75175 0.94159 0.0
C1197 C 0.87287 0.73013 0.9284 0.0
C1198 C 0.87445 0.72586 0.89847 0.0
C1199 C 0.86325 0.74336 0.88195 0.0
C1200 C 0.88638 0.71236 0.94546 0.0
C1201 C 0.87826 0.68287 0.94152 0.0
C1202 C 0.90817 0.7242 0.96434 0.0
C1203 C 0.919 0.75507 0.96804 0.0
C1204 C 0.93078 0.77039 0.94443 0.0
C1205 C 0.94098 0.79949 0.94808 0.0
C1206 C 0.93976 0.81347 0.97528 0.0
C1207 C 0.92841 0.79834 0.9989 0.0
C1208 C 0.91813 0.76923 0.99536 0.0
C1209 C 0.96994 0.63035 0.96992 0.0
C1210 C 0.96526 0.61922 0.99683 0.0
C1211 C 0.95402 0.65 0.96291 0.0
C1212 C 0.93341 0.65904 0.98278 0.0
C1213 C 0.9297 0.6492 0.01026 0.0
C1214 C 0.94545 0.62916 0.01722 0.0
C1215 C 0.91431 0.67682 0.97336 0.0
C1216 C 0.92163 0.70619 0.97838 0.0
C1217 C 0.89202 0.66496 0.95522 0.0
C1218 C 0.88394 0.63393 0.94919 0.0
C1219 C 0.87421 0.61625 0.97155 0.0
C1220 C 0.86776 0.58693 0.96592 0.0
C1221 C 0.87078 0.57505 0.93797 0.0
C1222 C 0.88011 0.5925 0.91557 0.0
C1223 C 0.8866 0.62184 0.92109 0.0
H1224 H 0.8659 0.55234 0.93371 0.0
H1225 H 0.9477 0.836 0.97807 0.0
H1226 H 0.42155 0.73035 0.15192 0.0
H1227 H 0.44488 0.77299 0.12847 0.0
H1228 H 0.36216 0.79797 0.12632 0.0
H1229 H 0.33883 0.75597 0.15025 0.0
H1230 H 0.39348 0.80422 0.07475 0.0
H1231 H 0.40881 0.83002 0.17432 0.0
H1232 H 0.42524 0.82446 0.22164 0.0
H1233 H 0.51215 0.82835 0.18539 0.0
H1234 H 0.49614 0.83356 0.13775 0.0
H1235 H 0.44195 0.94865 0.04272 0.0
H1236 H 0.41884 0.90375 0.06222 0.0
H1237 H 0.50282 0.88472 0.07345 0.0
H1238 H 0.52578 0.92987 0.05501 0.0
H1239 H 0.47088 0.87446 0.11946 0.0
H1240 H 0.45678 0.84986 0.0201 0.0
H1241 H 0.44124 0.85658 0.97271 0.0
H1242 H 0.35354 0.85033 0.00729 0.0
H1243 H 0.36861 0.84393 0.05498 0.0
C1244 C 0.40834 0.74507 0.14682 0.0
C1245 C 0.3782 0.73945 0.15292 0.0
C1246 C 0.42171 0.76941 0.13322 0.0
C1247 C 0.40528 0.78875 0.12549 0.0
C1248 C 0.37529 0.78329 0.13173 0.0
C1249 C 0.36197 0.75913 0.14543 0.0
C1250 C 0.41927 0.81488 0.11129 0.0
C1251 C 0.41024 0.81971 0.08463 0.0
C1252 C 0.44155 0.8349 0.1238 0.0
C1253 C 0.45122 0.83187 0.15243 0.0
C1254 C 0.43138 0.82946 0.1764 0.0
C1255 C 0.44062 0.82641 0.20328 0.0
C1256 C 0.46971 0.82597 0.2065 0.0
C1257 C 0.48962 0.82865 0.18285 0.0
C1258 C 0.48048 0.83167 0.15591 0.0
C1259 C 0.45541 0.93467 0.04901 0.0
C1260 C 0.48566 0.9428 0.04744 0.0
C1261 C 0.44221 0.90893 0.06011 0.0
C1262 C 0.45902 0.89057 0.06928 0.0
C1263 C 0.48927 0.89843 0.06676 0.0
C1264 C 0.50241 0.92423 0.05606 0.0
C1265 C 0.44532 0.86385 0.08272 0.0
C1266 C 0.4543 0.85893 0.10936 0.0
C1267 C 0.42318 0.84369 0.07003 0.0
C1268 C 0.41388 0.84665 0.04119 0.0
C1269 C 0.43419 0.85002 0.01762 0.0
C1270 C 0.42547 0.85376 0.9907 0.0
C1271 C 0.39644 0.85393 0.98699 0.0
C1272 C 0.37603 0.85018 0.01018 0.0
C1273 C 0.38464 0.84646 0.03716 0.0
H1274 H 0.38978 0.85696 0.96615 0.0
H1275 H 0.47682 0.82361 0.22733 0.0
H1276 H 0.12198 0.30541 0.65574 0.0
H1277 H 0.10314 0.25676 0.63907 0.0
H1278 H 0.10573 0.28172 0.55289 0.0
H1279 H 0.12358 0.3309 0.56964 0.0
H1280 H 0.05734 0.24282 0.56536 0.0
H1281 H 0.15932 0.25302 0.57283 0.0
H1282 H 0.20527 0.26647 0.59639 0.0
H1283 H 0.17311 0.20839 0.66067 0.0
H1284 H 0.12678 0.19489 0.6377 0.0
H1285 H 0.05572 0.107 0.49512 0.0
H1286 H 0.07112 0.15634 0.51176 0.0
H1287 H 0.06465 0.13293 0.59879 0.0
H1288 H 0.0493 0.08328 0.58238 0.0
H1289 H 0.11455 0.17112 0.58527 0.0
H1290 H 0.01227 0.15993 0.57518 0.0
H1291 H 0.96793 0.14582 0.54904 0.0
H1292 H 1.00207 0.20568 0.48696 0.0
H1293 H 0.04692 0.21973 0.51239 0.0
C1294 C 0.11794 0.30074 0.63334 0.0
C1295 C 0.12434 0.32204 0.61399 0.0
C1296 C 0.10744 0.27285 0.6238 0.0
C1297 C 0.10348 0.26561 0.59469 0.0
C1298 C 0.10878 0.2869 0.57544 0.0
C1299 C 0.1192 0.3149 0.58499 0.0
C1300 C 0.09517 0.2356 0.5843 0.0
C1301 C 0.06999 0.22717 0.5694 0.0
C1302 C 0.11156 0.21521 0.58992 0.0
C1303 C 0.13947 0.22315 0.6037 0.0
C1304 C 0.16196 0.24327 0.59211 0.0
C1305 C 0.18809 0.25088 0.60534 0.0
C1306 C 0.19208 0.23834 0.63006 0.0
C1307 C 0.16997 0.21811 0.64154 0.0
C1308 C 0.14378 0.21045 0.62842 0.0
C1309 C 0.05771 0.11222 0.51781 0.0
C1310 C 0.05114 0.09119 0.53747 0.0
C1311 C 0.06639 0.14047 0.52726 0.0
C1312 C 0.06858 0.14823 0.5565 0.0
C1313 C 0.06292 0.12728 0.57613 0.0
C1314 C 0.05414 0.09896 0.56671 0.0
C1315 C 0.07663 0.1783 0.56656 0.0
C1316 C 0.10183 0.18675 0.58132 0.0
C1317 C 0.06038 0.19868 0.56054 0.0
C1318 C 0.03311 0.19071 0.54557 0.0
C1319 C 0.01043 0.16995 0.55584 0.0
C1320 C 0.98519 0.16196 0.54116 0.0
C1321 C 0.9822 0.1748 0.51632 0.0
C1322 C 0.00443 0.19572 0.50618 0.0
C1323 C 0.02977 0.20371 0.52073 0.0
H1324 H 0.96266 0.16857 0.50497 0.0
H1325 H 0.21233 0.24426 0.64027 0.0
H1326 H 0.73066 0.27032 0.38849 0.0
H1327 H 0.70814 0.3107 0.40709 0.0
H1328 H 0.62398 0.26128 0.39155 0.0
H1329 H 0.64612 0.22098 0.3736 0.0
H1330 H 0.63327 0.31244 0.36764 0.0
H1331 H 0.64455 0.27701 0.45832 0.0
H1332 H 0.67191 0.26273 0.49537 0.0
H1333 H 0.72339 0.34611 0.50238 0.0
H1334 H 0.69658 0.36078 0.46504 0.0
H1335 H 0.53401 0.39273 0.43478 0.0
H1336 H 0.56318 0.35673 0.41962 0.0
H1337 H 0.63931 0.41319 0.44844 0.0
H1338 H 0.60987 0.44909 0.4644 0.0
H1339 H 0.63901 0.36214 0.46429 0.0
H1340 H 0.62737 0.39897 0.37615 0.0
H1341 H 0.60129 0.41429 0.33868 0.0
H1342 H 0.55297 0.33003 0.32557 0.0
H1343 H 0.57848 0.31427 0.36325 0.0
C1344 C 0.70733 0.26791 0.38963 0.0
C1345 C 0.69024 0.24252 0.3792 0.0
C1346 C 0.69449 0.29104 0.40015 0.0
C1347 C 0.66435 0.28911 0.40048 0.0
C1348 C 0.64727 0.2634 0.39121 0.0
C1349 C 0.66 0.24038 0.38089 0.0
C1350 C 0.65041 0.31405 0.40894 0.0
C1351 C 0.63431 0.32314 0.38887 0.0
C1352 C 0.65264 0.32872 0.43627 0.0
C1353 C 0.66881 0.31988 0.45863 0.0
C1354 C 0.6619 0.29221 0.46754 0.0
C1355 C 0.67726 0.28407 0.48865 0.0
C1356 C 0.69945 0.30347 0.50115 0.0
C1357 C 0.70625 0.33108 0.49263 0.0
C1358 C 0.69097 0.33933 0.47151 0.0
C1359 C 0.557 0.39756 0.43767 0.0
C1360 C 0.56969 0.42377 0.4506 0.0
C1361 C 0.57373 0.37698 0.42891 0.0
C1362 C 0.60362 0.38229 0.43247 0.0
C1363 C 0.61635 0.40855 0.44538 0.0
C1364 C 0.59954 0.42911 0.45435 0.0
C1365 C 0.62127 0.36014 0.42316 0.0
C1366 C 0.63815 0.35163 0.44298 0.0
C1367 C 0.62005 0.34613 0.39545 0.0
C1368 C 0.60469 0.35549 0.37269 0.0
C1369 C 0.61104 0.38374 0.36542 0.0
C1370 C 0.59638 0.3925 0.34412 0.0
C1371 C 0.57544 0.37316 0.32979 0.0
C1372 C 0.56917 0.345 0.3367 0.0
C1373 C 0.58375 0.33613 0.358 0.0
H1374 H 0.56412 0.37998 0.31331 0.0
H1375 H 0.7113 0.29713 0.5175 0.0
loop_
_geom_bond_atom_site_label_1
_geom_bond_atom_site_label_2
_geom_bond_distance
_geom_bond_site_symmetry_2
_ccdc_geom_bond_type
H0 C5 0.930 . S
H1 C8 0.930 . S
H2 C10 0.930 . S
H3 C4 1.016 . S
C4 H3 1.016 . S
C4 N11 1.286 . S
C5 H0 0.930 . S
C5 C6 1.397 . S
C5 C7 1.361 . S
C6 C5 1.397 . S
C6 C10 1.390 . S
C7 C5 1.361 . S
C7 C8 1.393 . S
C7 N11 1.413 . S
C8 H1 0.930 . S
C8 C7 1.393 . S
C8 C9 1.399 . S
C9 C8 1.399 . S
C9 C10 1.381 . S
C10 H2 0.930 . S
C10 C6 1.390 . S
C10 C9 1.381 . S
N11 C4 1.286 . S
N11 C7 1.413 . S
H12 C17 0.930 . S
H13 C20 0.930 . S
H14 C22 0.930 . S
H15 C16 1.016 . S
C16 H15 1.016 . S
C16 N23 1.286 . S
C17 H12 0.930 . S
C17 C18 1.397 . S
C17 C19 1.361 . S
C18 C17 1.397 . S
C18 C22 1.390 . S
C19 C17 1.361 . S
C19 C20 1.393 . S
C19 N23 1.413 . S
C20 H13 0.930 . S
C20 C19 1.393 . S
C20 C21 1.399 . S
C21 C20 1.399 . S
C21 C22 1.381 . S
C22 H14 0.930 . S
C22 C18 1.390 . S
C22 C21 1.381 . S
N23 C16 1.286 . S
N23 C19 1.413 . S
H24 C29 0.930 . S
H25 C32 0.930 . S
H26 C34 0.930 . S
H27 C28 1.016 . S
C28 H27 1.016 . S
C28 N35 1.286 . S
C29 H24 0.930 . S
C29 C30 1.397 . S
C29 C31 1.361 . S
C30 C29 1.397 . S
C30 C34 1.390 . S
C31 C29 1.361 . S
C31 C32 1.393 . S
C31 N35 1.413 . S
C32 H25 0.930 . S
C32 C31 1.393 . S
C32 C33 1.399 . S
C33 C32 1.399 . S
C33 C34 1.381 . S
C34 H26 0.930 . S
C34 C30 1.390 . S
C34 C33 1.381 . S
N35 C28 1.286 . S
N35 C31 1.413 . S
H36 C41 0.930 . S
H37 C44 0.930 . S
H38 C46 0.930 . S
H39 C40 1.016 . S
C40 H39 1.016 . S
C40 N47 1.286 . S
C41 H36 0.930 . S
C41 C42 1.397 . S
C41 C43 1.361 . S
C42 C41 1.397 . S
C42 C46 1.390 . S
C43 C41 1.361 . S
C43 C44 1.393 . S
C43 N47 1.413 . S
C44 H37 0.930 . S
C44 C43 1.393 . S
C44 C45 1.399 . S
C45 C44 1.399 . S
C45 C46 1.381 . S
C46 H38 0.930 . S
C46 C42 1.390 . S
C46 C45 1.381 . S
N47 C40 1.286 . S
N47 C43 1.413 . S
H48 C53 0.930 . S
H49 C56 0.930 . S
H50 C58 0.930 . S
H51 C52 1.016 . S
C52 H51 1.016 . S
C52 N59 1.286 . S
C53 H48 0.930 . S
C53 C54 1.397 . S
C53 C55 1.361 . S
C54 C53 1.397 . S
C54 C58 1.390 . S
C55 C53 1.361 . S
C55 C56 1.393 . S
C55 N59 1.413 . S
C56 H49 0.930 . S
C56 C55 1.393 . S
C56 C57 1.399 . S
C57 C56 1.399 . S
C57 C58 1.381 . S
C58 H50 0.930 . S
C58 C54 1.390 . S
C58 C57 1.381 . S
N59 C52 1.286 . S
N59 C55 1.413 . S
H60 C65 0.930 . S
H61 C68 0.930 . S
H62 C70 0.930 . S
H63 C64 1.016 . S
C64 H63 1.016 . S
C64 N71 1.286 . S
C65 H60 0.930 . S
C65 C66 1.397 . S
C65 C67 1.361 . S
C66 C65 1.397 . S
C66 C70 1.390 . S
C67 C65 1.361 . S
C67 C68 1.393 . S
C67 N71 1.413 . S
C68 H61 0.930 . S
C68 C67 1.393 . S
C68 C69 1.399 . S
C69 C68 1.399 . S
C69 C70 1.381 . S
C70 H62 0.930 . S
C70 C66 1.390 . S
C70 C69 1.381 . S
N71 C64 1.286 . S
N71 C67 1.413 . S
H72 C77 0.930 . S
H73 C80 0.930 . S
H74 C82 0.930 . S
H75 C76 1.016 . S
C76 H75 1.016 . S
C76 N83 1.286 . S
C77 H72 0.930 . S
C77 C78 1.397 . S
C77 C79 1.361 . S
C78 C77 1.397 . S
C78 C82 1.390 . S
C79 C77 1.361 . S
C79 C80 1.393 . S
C79 N83 1.413 . S
C80 H73 0.930 . S
C80 C79 1.393 . S
C80 C81 1.399 . S
C81 C80 1.399 . S
C81 C82 1.381 . S
C82 H74 0.930 . S
C82 C78 1.390 . S
C82 C81 1.381 . S
N83 C76 1.286 . S
N83 C79 1.413 . S
H84 C89 0.930 . S
H85 C92 0.930 . S
H86 C94 0.930 . S
H87 C88 1.016 . S
C88 H87 1.016 . S
C88 N95 1.286 . S
C89 H84 0.930 . S
C89 C90 1.397 . S
C89 C91 1.361 . S
C90 C89 1.397 . S
C90 C94 1.390 . S
C91 C89 1.361 . S
C91 C92 1.393 . S
C91 N95 1.413 . S
C92 H85 0.930 . S
C92 C91 1.393 . S
C92 C93 1.399 . S
C93 C92 1.399 . S
C93 C94 1.381 . S
C94 H86 0.930 . S
C94 C90 1.390 . S
C94 C93 1.381 . S
N95 C88 1.286 . S
N95 C91 1.413 . S
Dy96 O100 2.398 . S
Dy96 O101 2.491 . S
Dy96 O102 2.403 1_545 S
Dy96 O103 2.664 1_545 S
Dy96 O107 2.326 . S
Dy96 O111 2.310 1_455 S
Dy96 O112 2.351 1_445 S
C97 O108 1.185 . S
C97 O109 1.355 . S
C98 O100 1.185 . S
C98 O101 1.355 . S
Dy99 O103 2.310 1_655 S
Dy99 O106 2.351 1_665 S
Dy99 O108 2.398 . S
Dy99 O109 2.491 . S
Dy99 O110 2.403 1_565 S
Dy99 O111 2.664 1_565 S
Dy99 O113 2.326 . S
O100 Dy96 2.398 . S
O100 C98 1.185 . S
O101 Dy96 2.491 . S
O101 C98 1.355 . S
O102 Dy96 2.403 1_565 S
O102 C104 1.254 . S
O103 Dy96 2.664 1_565 S
O103 Dy99 2.310 1_455 S
O103 C104 1.268 . S
C104 O102 1.254 . S
C104 O103 1.268 . S
C105 O110 1.254 . S
C105 O111 1.268 . S
O106 Dy99 2.351 1_445 S
O106 C114 1.249 . S
O107 Dy96 2.326 . S
O107 C114 1.267 . S
O108 C97 1.185 . S
O108 Dy99 2.398 . S
O109 C97 1.355 . S
O109 Dy99 2.491 . S
O110 Dy99 2.403 1_545 S
O110 C105 1.254 . S
O111 Dy96 2.310 1_655 S
O111 Dy99 2.664 1_545 S
O111 C105 1.268 . S
O112 Dy96 2.351 1_665 S
O112 C115 1.249 . S
O113 Dy99 2.326 . S
O113 C115 1.267 . S
C114 O106 1.249 . S
C114 O107 1.267 . S
C115 O112 1.249 . S
C115 O113 1.267 . S
Dy116 O120 2.398 . S
Dy116 O121 2.491 . S
Dy116 O122 2.403 1_545 S
Dy116 O123 2.664 1_545 S
Dy116 O127 2.326 . S
Dy116 O131 2.310 . S
Dy116 O132 2.349 1_545 S
C117 O128 1.185 . S
C117 O129 1.355 . S
C118 O120 1.185 . S
C118 O121 1.355 . S
Dy119 O123 2.310 1_546 S
Dy119 O126 2.351 1_556 S
Dy119 O128 2.398 1_545 S
Dy119 O129 2.491 1_545 S
Dy119 O130 2.403 . S
Dy119 O131 2.664 1_556 S
Dy119 O133 2.326 1_545 S
O120 Dy116 2.398 . S
O120 C118 1.185 . S
O121 Dy116 2.491 . S
O121 C118 1.355 . S
O122 Dy116 2.403 1_565 S
O122 C124 1.254 . S
O123 Dy116 2.664 1_565 S
O123 Dy119 2.310 1_564 S
O123 C124 1.268 . S
C124 O122 1.254 . S
C124 O123 1.268 . S
C125 O130 1.254 . S
C125 O131 1.268 1_556 S
O126 Dy119 2.351 1_554 S
O126 C134 1.249 . S
O127 Dy116 2.326 . S
O127 C134 1.267 . S
O128 C117 1.185 . S
O128 Dy119 2.398 1_565 S
O129 C117 1.355 . S
O129 Dy119 2.491 1_565 S
O130 Dy119 2.403 . S
O130 C125 1.254 . S
O131 Dy116 2.310 . S
O131 Dy119 2.664 1_554 S
O131 C125 1.268 1_554 S
O132 Dy116 2.349 1_565 S
O132 C135 1.252 1_554 S
O133 Dy119 2.326 1_565 S
O133 C135 1.267 . S
C134 O126 1.249 . S
C134 O127 1.267 . S
C135 O132 1.252 1_556 S
C135 O133 1.267 . S
Dy136 O140 2.398 . S
Dy136 O141 2.491 . S
Dy136 O142 2.403 . S
Dy136 O143 2.664 . S
Dy136 O147 2.326 . S
Dy136 O151 2.310 . S
Dy136 O152 2.351 . S
C137 O148 1.185 . S
C137 O149 1.355 . S
C138 O140 1.185 . S
C138 O141 1.355 . S
Dy139 O143 2.310 . S
Dy139 O146 2.351 . S
Dy139 O148 2.398 . S
Dy139 O149 2.491 . S
Dy139 O150 2.403 . S
Dy139 O151 2.664 . S
Dy139 O153 2.326 . S
O140 Dy136 2.398 . S
O140 C138 1.185 . S
O141 Dy136 2.491 . S
O141 C138 1.355 . S
O142 Dy136 2.403 . S
O142 C144 1.254 . S
O143 Dy136 2.664 . S
O143 Dy139 2.310 . S
O143 C144 1.268 . S
C144 O142 1.254 . S
C144 O143 1.268 . S
C145 O150 1.254 . S
C145 O151 1.268 . S
O146 Dy139 2.351 . S
O146 C154 1.249 . S
O147 Dy136 2.326 . S
O147 C154 1.267 . S
O148 C137 1.185 . S
O148 Dy139 2.398 . S
O149 C137 1.355 . S
O149 Dy139 2.491 . S
O150 Dy139 2.403 . S
O150 C145 1.254 . S
O151 Dy136 2.310 . S
O151 Dy139 2.664 . S
O151 C145 1.268 . S
O152 Dy136 2.351 . S
O152 C155 1.249 . S
O153 Dy139 2.326 . S
O153 C155 1.267 . S
C154 O146 1.249 . S
C154 O147 1.267 . S
C155 O152 1.249 . S
C155 O153 1.267 . S
Dy156 O160 2.398 . S
Dy156 O161 2.491 . S
Dy156 O162 2.403 1_455 S
Dy156 O163 2.664 1_455 S
Dy156 O167 2.326 . S
Dy156 O171 2.310 1_554 S
Dy156 O172 2.353 1_455 S
C157 O168 1.185 . S
C157 O169 1.355 . S
C158 O160 1.185 . S
C158 O161 1.355 . S
Dy159 O163 2.310 1_456 S
Dy159 O166 2.351 1_556 S
Dy159 O168 2.398 1_455 S
Dy159 O169 2.491 1_455 S
Dy159 O170 2.403 . S
Dy159 O171 2.664 . S
Dy159 O173 2.326 1_455 S
O160 Dy156 2.398 . S
O160 C158 1.185 . S
O161 Dy156 2.491 . S
O161 C158 1.355 . S
O162 Dy156 2.403 1_655 S
O162 C164 1.254 . S
O163 Dy156 2.664 1_655 S
O163 Dy159 2.310 1_654 S
O163 C164 1.268 . S
C164 O162 1.254 . S
C164 O163 1.268 . S
C165 O170 1.254 . S
C165 O171 1.268 . S
O166 Dy159 2.351 1_554 S
O166 C174 1.249 . S
O167 Dy156 2.326 . S
O167 C174 1.267 . S
O168 C157 1.185 . S
O168 Dy159 2.398 1_655 S
O169 C157 1.355 . S
O169 Dy159 2.491 1_655 S
O170 Dy159 2.403 . S
O170 C165 1.254 . S
O171 Dy156 2.310 1_556 S
O171 Dy159 2.664 . S
O171 C165 1.268 . S
O172 Dy156 2.353 1_655 S
O172 C175 1.246 1_554 S
O173 Dy159 2.326 1_655 S
O173 C175 1.267 . S
C174 O166 1.249 . S
C174 O167 1.267 . S
C175 O172 1.246 1_556 S
C175 O173 1.267 . S
H176 C194 0.951 . S
H177 C196 0.951 . S
H178 C198 0.950 . S
H179 C199 0.950 . S
H180 C201 0.950 . S
H181 C204 0.950 . S
H182 C205 0.950 . S
H183 C207 0.950 . S
H184 C208 0.950 . S
H185 C209 0.951 . S
H186 C211 0.951 . S
H187 C213 0.950 . S
H188 C214 0.950 . S
H189 C216 0.950 . S
H190 C219 0.950 . S
H191 C220 0.950 . S
H192 C222 0.950 . S
H193 C223 0.950 . S
C194 H176 0.951 . S
C194 C195 1.366 . S
C194 C196 1.388 . S
C195 C194 1.366 . S
C195 C199 1.385 . S
C196 H177 0.951 . S
C196 C194 1.388 . S
C196 C197 1.366 . S
C197 C196 1.366 . S
C197 C198 1.414 . S
C197 C200 1.499 . S
C198 H178 0.950 . S
C198 C197 1.414 . S
C198 C199 1.374 . S
C199 H179 0.950 . S
C199 C195 1.385 . S
C199 C198 1.374 . S
C200 C197 1.499 . S
C200 C201 1.373 . S
C200 C202 1.389 . S
C201 H180 0.950 . S
C201 C200 1.373 . S
C201 C217 1.377 . S
C202 C200 1.389 . S
C202 C203 1.524 . S
C202 C216 1.377 . S
C203 C202 1.524 . S
C203 C204 1.397 . S
C203 C208 1.363 . S
C204 H181 0.950 . S
C204 C203 1.397 . S
C204 C205 1.334 . S
C205 H182 0.950 . S
C205 C204 1.334 . S
C205 C206 1.287 . S
C206 C205 1.287 . S
C206 C207 1.524 . S
C206 H225 0.913 . S
C207 H183 0.950 . S
C207 C206 1.524 . S
C207 C208 1.415 . S
C208 H184 0.950 . S
C208 C203 1.363 . S
C208 C207 1.415 . S
C209 H185 0.951 . S
C209 C210 1.366 . S
C209 C211 1.388 . S
C210 C209 1.366 . S
C210 C214 1.385 . S
C211 H186 0.951 . S
C211 C209 1.388 . S
C211 C212 1.366 . S
C212 C211 1.366 . S
C212 C213 1.414 . S
C212 C215 1.499 . S
C213 H187 0.950 . S
C213 C212 1.414 . S
C213 C214 1.374 . S
C214 H188 0.950 . S
C214 C210 1.385 . S
C214 C213 1.374 . S
C215 C212 1.499 . S
C215 C216 1.373 . S
C215 C217 1.389 . S
C216 H189 0.950 . S
C216 C202 1.377 . S
C216 C215 1.373 . S
C217 C201 1.377 . S
C217 C215 1.389 . S
C217 C218 1.524 . S
C218 C217 1.524 . S
C218 C219 1.397 . S
C218 C223 1.363 . S
C219 H190 0.950 . S
C219 C218 1.397 . S
C219 C220 1.334 . S
C220 H191 0.950 . S
C220 C219 1.334 . S
C220 C221 1.287 . S
C221 C220 1.287 . S
C221 C222 1.524 . S
C221 H224 0.999 . S
C222 H192 0.950 . S
C222 C221 1.524 . S
C222 C223 1.415 . S
C223 H193 0.950 . S
C223 C218 1.363 . S
C223 C222 1.415 . S
H224 C221 0.999 . S
H225 C206 0.913 . S
H226 C244 0.951 . S
H227 C246 0.951 . S
H228 C248 0.950 . S
H229 C249 0.950 . S
H230 C251 0.950 . S
H231 C254 0.950 . S
H232 C255 0.950 . S
H233 C257 0.950 . S
H234 C258 0.950 . S
H235 C259 0.951 . S
H236 C261 0.951 . S
H237 C263 0.950 . S
H238 C264 0.950 . S
H239 C266 0.950 . S
H240 C269 0.950 . S
H241 C270 0.950 . S
H242 C272 0.950 . S
H243 C273 0.950 . S
C244 H226 0.951 . S
C244 C245 1.366 . S
C244 C246 1.388 . S
C245 C244 1.366 . S
C245 C249 1.385 . S
C246 H227 0.951 . S
C246 C244 1.388 . S
C246 C247 1.366 . S
C247 C246 1.366 . S
C247 C248 1.414 . S
C247 C250 1.499 . S
C248 H228 0.950 . S
C248 C247 1.414 . S
C248 C249 1.374 . S
C249 H229 0.950 . S
C249 C245 1.385 . S
C249 C248 1.374 . S
C250 C247 1.499 . S
C250 C251 1.373 . S
C250 C252 1.389 . S
C251 H230 0.950 . S
C251 C250 1.373 . S
C251 C267 1.377 . S
C252 C250 1.389 . S
C252 C253 1.524 . S
C252 C266 1.377 . S
C253 C252 1.524 . S
C253 C254 1.397 . S
C253 C258 1.363 . S
C254 H231 0.950 . S
C254 C253 1.397 . S
C254 C255 1.334 . S
C255 H232 0.950 . S
C255 C254 1.334 . S
C255 C256 1.287 . S
C256 C255 1.287 . S
C256 C257 1.524 . S
C256 H275 0.913 . S
C257 H233 0.950 . S
C257 C256 1.524 . S
C257 C258 1.415 . S
C258 H234 0.950 . S
C258 C253 1.363 . S
C258 C257 1.415 . S
C259 H235 0.951 . S
C259 C260 1.366 . S
C259 C261 1.388 . S
C260 C259 1.366 . S
C260 C264 1.385 . S
C261 H236 0.951 . S
C261 C259 1.388 . S
C261 C262 1.366 . S
C262 C261 1.366 . S
C262 C263 1.414 . S
C262 C265 1.499 . S
C263 H237 0.950 . S
C263 C262 1.414 . S
C263 C264 1.374 . S
C264 H238 0.950 . S
C264 C260 1.385 . S
C264 C263 1.374 . S
C265 C262 1.499 . S
C265 C266 1.373 . S
C265 C267 1.389 . S
C266 H239 0.950 . S
C266 C252 1.377 . S
C266 C265 1.373 . S
C267 C251 1.377 . S
C267 C265 1.389 . S
C267 C268 1.524 . S
C268 C267 1.524 . S
C268 C269 1.397 . S
C268 C273 1.363 . S
C269 H240 0.950 . S
C269 C268 1.397 . S
C269 C270 1.334 . S
C270 H241 0.950 . S
C270 C269 1.334 . S
C270 C271 1.287 . S
C271 C270 1.287 . S
C271 C272 1.524 . S
C271 H274 0.999 . S
C272 H242 0.950 . S
C272 C271 1.524 . S
C272 C273 1.415 . S
C273 H243 0.950 . S
C273 C268 1.363 . S
C273 C272 1.415 . S
H274 C271 0.999 . S
H275 C256 0.913 . S
H276 C294 0.951 . S
H277 C296 0.951 . S
H278 C298 0.950 . S
H279 C299 0.950 . S
H280 C301 0.950 . S
H281 C304 0.950 . S
H282 C305 0.950 . S
H283 C307 0.950 . S
H284 C308 0.950 . S
H285 C309 0.951 . S
H286 C311 0.951 . S
H287 C313 0.950 . S
H288 C314 0.950 . S
H289 C316 0.950 . S
H290 C319 0.950 . S
H291 C320 0.950 . S
H292 C322 0.950 . S
H293 C323 0.950 . S
C294 H276 0.951 . S
C294 C295 1.366 . S
C294 C296 1.388 . S
C295 C294 1.366 . S
C295 C299 1.385 . S
C296 H277 0.951 . S
C296 C294 1.388 . S
C296 C297 1.366 . S
C297 C296 1.366 . S
C297 C298 1.414 . S
C297 C300 1.499 . S
C298 H278 0.950 . S
C298 C297 1.414 . S
C298 C299 1.374 . S
C299 H279 0.950 . S
C299 C295 1.385 . S
C299 C298 1.374 . S
C300 C297 1.499 . S
C300 C301 1.373 . S
C300 C302 1.389 . S
C301 H280 0.950 . S
C301 C300 1.373 . S
C301 C317 1.377 . S
C302 C300 1.389 . S
C302 C303 1.524 . S
C302 C316 1.377 . S
C303 C302 1.524 . S
C303 C304 1.397 . S
C303 C308 1.363 . S
C304 H281 0.950 . S
C304 C303 1.397 . S
C304 C305 1.334 . S
C305 H282 0.950 . S
C305 C304 1.334 . S
C305 C306 1.287 . S
C306 C305 1.287 . S
C306 C307 1.524 . S
C306 H325 0.913 . S
C307 H283 0.950 . S
C307 C306 1.524 . S
C307 C308 1.415 . S
C308 H284 0.950 . S
C308 C303 1.363 . S
C308 C307 1.415 . S
C309 H285 0.951 . S
C309 C310 1.366 . S
C309 C311 1.388 . S
C310 C309 1.366 . S
C310 C314 1.385 . S
C311 H286 0.951 . S
C311 C309 1.388 . S
C311 C312 1.366 . S
C312 C311 1.366 . S
C312 C313 1.414 . S
C312 C315 1.499 . S
C313 H287 0.950 . S
C313 C312 1.414 . S
C313 C314 1.374 . S
C314 H288 0.950 . S
C314 C310 1.385 . S
C314 C313 1.374 . S
C315 C312 1.499 . S
C315 C316 1.373 . S
C315 C317 1.389 . S
C316 H289 0.950 . S
C316 C302 1.377 . S
C316 C315 1.373 . S
C317 C301 1.377 . S
C317 C315 1.389 . S
C317 C318 1.524 . S
C318 C317 1.524 . S
C318 C319 1.397 . S
C318 C323 1.363 . S
C319 H290 0.950 . S
C319 C318 1.397 . S
C319 C320 1.334 . S
C320 H291 0.950 . S
C320 C319 1.334 . S
C320 C321 1.287 . S
C321 C320 1.287 . S
C321 C322 1.524 . S
C321 H324 0.999 . S
C322 H292 0.950 . S
C322 C321 1.524 . S
C322 C323 1.415 . S
C323 H293 0.950 . S
C323 C318 1.363 . S
C323 C322 1.415 . S
H324 C321 0.999 . S
H325 C306 0.913 . S
H326 C344 0.951 . S
H327 C346 0.951 . S
H328 C348 0.950 . S
H329 C349 0.950 . S
H330 C351 0.950 . S
H331 C354 0.950 . S
H332 C355 0.950 . S
H333 C357 0.950 . S
H334 C358 0.950 . S
H335 C359 0.951 . S
H336 C361 0.951 . S
H337 C363 0.950 . S
H338 C364 0.950 1_455 S
H339 C366 0.950 . S
H340 C369 0.950 . S
H341 C370 0.950 . S
H342 C372 0.950 . S
H343 C373 0.950 . S
C344 H326 0.951 . S
C344 C345 1.366 . S
C344 C346 1.388 . S
C345 C344 1.366 . S
C345 C349 1.385 . S
C346 H327 0.951 . S
C346 C344 1.388 . S
C346 C347 1.366 . S
C347 C346 1.366 . S
C347 C348 1.414 . S
C347 C350 1.499 . S
C348 H328 0.950 . S
C348 C347 1.414 . S
C348 C349 1.374 . S
C349 H329 0.950 . S
C349 C345 1.385 . S
C349 C348 1.374 . S
C350 C347 1.499 . S
C350 C351 1.373 . S
C350 C352 1.389 . S
C351 H330 0.950 . S
C351 C350 1.373 . S
C351 C367 1.377 . S
C352 C350 1.389 . S
C352 C353 1.524 . S
C352 C366 1.377 . S
C353 C352 1.524 . S
C353 C354 1.397 . S
C353 C358 1.363 . S
C354 H331 0.950 . S
C354 C353 1.397 . S
C354 C355 1.334 . S
C355 H332 0.950 . S
C355 C354 1.334 . S
C355 C356 1.287 1_655 S
C356 C355 1.287 1_455 S
C356 C357 1.524 . S
C356 H375 0.913 . S
C357 H333 0.950 . S
C357 C356 1.524 . S
C357 C358 1.415 1_455 S
C358 H334 0.950 . S
C358 C353 1.363 . S
C358 C357 1.415 1_655 S
C359 H335 0.951 . S
C359 C360 1.366 . S
C359 C361 1.388 . S
C360 C359 1.366 . S
C360 C364 1.385 . S
C361 H336 0.951 . S
C361 C359 1.388 . S
C361 C362 1.366 . S
C362 C361 1.366 . S
C362 C363 1.414 . S
C362 C365 1.499 . S
C363 H337 0.950 . S
C363 C362 1.414 . S
C363 C364 1.374 . S
C364 H338 0.950 1_655 S
C364 C360 1.385 . S
C364 C363 1.374 . S
C365 C362 1.499 . S
C365 C366 1.373 . S
C365 C367 1.389 . S
C366 H339 0.950 . S
C366 C352 1.377 . S
C366 C365 1.373 . S
C367 C351 1.377 . S
C367 C365 1.389 . S
C367 C368 1.524 . S
C368 C367 1.524 . S
C368 C369 1.397 . S
C368 C373 1.363 . S
C369 H340 0.950 . S
C369 C368 1.397 . S
C369 C370 1.334 . S
C370 H341 0.950 . S
C370 C369 1.334 . S
C370 C371 1.287 . S
C371 C370 1.287 . S
C371 C372 1.524 . S
C371 H374 0.999 . S
C372 H342 0.950 . S
C372 C371 1.524 . S
C372 C373 1.415 . S
C373 H343 0.950 . S
C373 C368 1.363 . S
C373 C372 1.415 . S
H374 C371 0.999 . S
H375 C356 0.913 . S
H376 C394 0.951 . S
H377 C396 0.951 . S
H378 C398 0.950 . S
H379 C399 0.950 . S
H380 C401 0.950 . S
H381 C404 0.950 . S
H382 C405 0.950 . S
H383 C407 0.950 . S
H384 C408 0.950 . S
H385 C409 0.951 . S
H386 C411 0.951 . S
H387 C413 0.950 . S
H388 C414 0.950 . S
H389 C416 0.950 . S
H390 C419 0.950 . S
H391 C420 0.950 . S
H392 C422 0.950 . S
H393 C423 0.950 . S
C394 H376 0.951 . S
C394 C395 1.366 . S
C394 C396 1.388 . S
C395 C394 1.366 . S
C395 C399 1.385 . S
C396 H377 0.951 . S
C396 C394 1.388 . S
C396 C397 1.366 . S
C397 C396 1.366 . S
C397 C398 1.414 . S
C397 C400 1.499 . S
C398 H378 0.950 . S
C398 C397 1.414 . S
C398 C399 1.374 . S
C399 H379 0.950 . S
C399 C395 1.385 . S
C399 C398 1.374 . S
C400 C397 1.499 . S
C400 C401 1.373 . S
C400 C402 1.389 . S
C401 H380 0.950 . S
C401 C400 1.373 . S
C401 C417 1.377 . S
C402 C400 1.389 . S
C402 C403 1.524 . S
C402 C416 1.377 . S
C403 C402 1.524 . S
C403 C404 1.397 . S
C403 C408 1.363 . S
C404 H381 0.950 . S
C404 C403 1.397 . S
C404 C405 1.334 . S
C405 H382 0.950 . S
C405 C404 1.334 . S
C405 C406 1.287 . S
C406 C405 1.287 . S
C406 C407 1.524 . S
C406 H425 0.913 . S
C407 H383 0.950 . S
C407 C406 1.524 . S
C407 C408 1.415 . S
C408 H384 0.950 . S
C408 C403 1.363 . S
C408 C407 1.415 . S
C409 H385 0.951 . S
C409 C410 1.366 . S
C409 C411 1.388 . S
C410 C409 1.366 . S
C410 C414 1.385 . S
C411 H386 0.951 . S
C411 C409 1.388 . S
C411 C412 1.366 . S
C412 C411 1.366 . S
C412 C413 1.414 . S
C412 C415 1.499 . S
C413 H387 0.950 . S
C413 C412 1.414 . S
C413 C414 1.374 . S
C414 H388 0.950 . S
C414 C410 1.385 . S
C414 C413 1.374 . S
C415 C412 1.499 . S
C415 C416 1.373 . S
C415 C417 1.389 . S
C416 H389 0.950 . S
C416 C402 1.377 . S
C416 C415 1.373 . S
C417 C401 1.377 . S
C417 C415 1.389 . S
C417 C418 1.524 . S
C418 C417 1.524 . S
C418 C419 1.397 . S
C418 C423 1.363 . S
C419 H390 0.950 . S
C419 C418 1.397 . S
C419 C420 1.334 . S
C420 H391 0.950 . S
C420 C419 1.334 . S
C420 C421 1.287 . S
C421 C420 1.287 . S
C421 C422 1.524 . S
C421 H424 0.999 . S
C422 H392 0.950 . S
C422 C421 1.524 . S
C422 C423 1.415 . S
C423 H393 0.950 . S
C423 C418 1.363 . S
C423 C422 1.415 . S
H424 C421 0.999 . S
H425 C406 0.913 . S
H426 C444 0.951 . S
H427 C446 0.951 . S
H428 C448 0.950 . S
H429 C449 0.950 . S
H430 C451 0.950 . S
H431 C454 0.950 . S
H432 C455 0.950 . S
H433 C457 0.950 . S
H434 C458 0.953 . S
H435 C459 0.951 . S
H436 C461 0.951 . S
H437 C463 0.950 . S
H438 C464 0.950 1_545 S
H439 C466 0.950 . S
H440 C469 0.950 . S
H441 C470 0.950 . S
H442 C472 0.950 . S
H443 C473 0.950 . S
C444 H426 0.951 . S
C444 C445 1.366 . S
C444 C446 1.388 . S
C445 C444 1.366 . S
C445 C449 1.385 . S
C446 H427 0.951 . S
C446 C444 1.388 . S
C446 C447 1.366 . S
C447 C446 1.366 . S
C447 C448 1.414 . S
C447 C450 1.499 . S
C448 H428 0.950 . S
C448 C447 1.414 . S
C448 C449 1.374 . S
C449 H429 0.950 . S
C449 C445 1.385 . S
C449 C448 1.374 . S
C450 C447 1.499 . S
C450 C451 1.373 . S
C450 C452 1.389 . S
C451 H430 0.950 . S
C451 C450 1.373 . S
C451 C467 1.377 . S
C452 C450 1.389 . S
C452 C453 1.524 . S
C452 C466 1.377 . S
C453 C452 1.524 . S
C453 C454 1.397 . S
C453 C458 1.363 . S
C454 H431 0.950 . S
C454 C453 1.397 . S
C454 C455 1.334 . S
C455 H432 0.950 . S
C455 C454 1.334 . S
C455 C456 1.287 1_565 S
C456 C455 1.287 1_545 S
C456 C457 1.524 . S
C456 H475 0.913 . S
C457 H433 0.950 . S
C457 C456 1.524 . S
C457 C458 1.415 1_545 S
C458 H434 0.953 . S
C458 C453 1.363 . S
C458 C457 1.415 1_565 S
C459 H435 0.951 . S
C459 C460 1.366 . S
C459 C461 1.388 . S
C460 C459 1.366 . S
C460 C464 1.385 . S
C461 H436 0.951 . S
C461 C459 1.388 . S
C461 C462 1.366 . S
C462 C461 1.366 . S
C462 C463 1.414 . S
C462 C465 1.499 . S
C463 H437 0.950 . S
C463 C462 1.414 . S
C463 C464 1.374 . S
C464 H438 0.950 1_565 S
C464 C460 1.385 . S
C464 C463 1.374 . S
C465 C462 1.499 . S
C465 C466 1.373 . S
C465 C467 1.389 . S
C466 H439 0.950 . S
C466 C452 1.377 . S
C466 C465 1.373 . S
C467 C451 1.377 . S
C467 C465 1.389 . S
C467 C468 1.524 . S
C468 C467 1.524 . S
C468 C469 1.397 . S
C468 C473 1.363 . S
C469 H440 0.950 . S
C469 C468 1.397 . S
C469 C470 1.334 . S
C470 H441 0.950 . S
C470 C469 1.334 . S
C470 C471 1.287 . S
C471 C470 1.287 . S
C471 C472 1.524 . S
C471 H474 0.999 . S
C472 H442 0.950 . S
C472 C471 1.524 . S
C472 C473 1.415 . S
C473 H443 0.950 . S
C473 C468 1.363 . S
C473 C472 1.415 . S
H474 C471 0.999 . S
H475 C456 0.913 . S
H476 C494 0.951 . S
H477 C496 0.951 . S
H478 C498 0.950 . S
H479 C499 0.950 . S
H480 C501 0.950 . S
H481 C504 0.950 . S
H482 C505 0.950 . S
H483 C507 0.950 . S
H484 C508 0.950 . S
H485 C509 0.951 1_554 S
H486 C511 0.951 . S
H487 C513 0.950 . S
H488 C514 0.950 . S
H489 C516 0.950 . S
H490 C519 0.950 . S
H491 C520 0.950 . S
H492 C522 0.950 . S
H493 C523 0.950 . S
C494 H476 0.951 . S
C494 C495 1.366 . S
C494 C496 1.388 . S
C495 C494 1.366 . S
C495 C499 1.385 . S
C496 H477 0.951 . S
C496 C494 1.388 . S
C496 C497 1.366 . S
C497 C496 1.366 . S
C497 C498 1.414 . S
C497 C500 1.499 . S
C498 H478 0.950 . S
C498 C497 1.414 . S
C498 C499 1.374 . S
C499 H479 0.950 . S
C499 C495 1.385 . S
C499 C498 1.374 . S
C500 C497 1.499 . S
C500 C501 1.373 . S
C500 C502 1.389 . S
C501 H480 0.950 . S
C501 C500 1.373 . S
C501 C517 1.377 . S
C502 C500 1.389 . S
C502 C503 1.524 . S
C502 C516 1.377 . S
C503 C502 1.524 . S
C503 C504 1.397 . S
C503 C508 1.363 . S
C504 H481 0.950 . S
C504 C503 1.397 . S
C504 C505 1.334 . S
C505 H482 0.950 . S
C505 C504 1.334 . S
C505 C506 1.287 . S
C506 C505 1.287 . S
C506 C507 1.524 . S
C506 H525 0.913 . S
C507 H483 0.950 . S
C507 C506 1.524 . S
C507 C508 1.415 . S
C508 H484 0.950 . S
C508 C503 1.363 . S
C508 C507 1.415 . S
C509 H485 0.951 1_556 S
C509 C510 1.366 . S
C509 C511 1.388 . S
C510 C509 1.366 . S
C510 C514 1.385 . S
C511 H486 0.951 . S
C511 C509 1.388 . S
C511 C512 1.366 . S
C512 C511 1.366 . S
C512 C513 1.414 . S
C512 C515 1.499 . S
C513 H487 0.950 . S
C513 C512 1.414 . S
C513 C514 1.374 . S
C514 H488 0.950 . S
C514 C510 1.385 . S
C514 C513 1.374 . S
C515 C512 1.499 . S
C515 C516 1.373 . S
C515 C517 1.389 . S
C516 H489 0.950 . S
C516 C502 1.377 . S
C516 C515 1.373 . S
C517 C501 1.377 . S
C517 C515 1.389 . S
C517 C518 1.524 . S
C518 C517 1.524 . S
C518 C519 1.397 . S
C518 C523 1.363 . S
C519 H490 0.950 . S
C519 C518 1.397 . S
C519 C520 1.334 . S
C520 H491 0.950 . S
C520 C519 1.334 . S
C520 C521 1.287 . S
C521 C520 1.287 . S
C521 C522 1.524 . S
C521 H524 0.999 . S
C522 H492 0.950 . S
C522 C521 1.524 . S
C522 C523 1.415 . S
C523 H493 0.950 . S
C523 C518 1.363 . S
C523 C522 1.415 . S
H524 C521 0.999 . S
H525 C506 0.913 . S
H526 C544 0.951 . S
H527 C546 0.951 . S
H528 C548 0.950 . S
H529 C549 0.950 . S
H530 C551 0.950 . S
H531 C554 0.950 . S
H532 C555 0.950 . S
H533 C557 0.950 . S
H534 C558 0.950 . S
H535 C559 0.951 . S
H536 C561 0.951 . S
H537 C563 0.950 . S
H538 C564 0.950 . S
H539 C566 0.950 . S
H540 C569 0.950 . S
H541 C570 0.950 . S
H542 C572 0.950 . S
H543 C573 0.950 . S
C544 H526 0.951 . S
C544 C545 1.366 . S
C544 C546 1.388 . S
C545 C544 1.366 . S
C545 C549 1.385 . S
C546 H527 0.951 . S
C546 C544 1.388 . S
C546 C547 1.366 . S
C547 C546 1.366 . S
C547 C548 1.414 . S
C547 C550 1.499 . S
C548 H528 0.950 . S
C548 C547 1.414 . S
C548 C549 1.374 . S
C549 H529 0.950 . S
C549 C545 1.385 . S
C549 C548 1.374 . S
C550 C547 1.499 . S
C550 C551 1.373 . S
C550 C552 1.389 . S
C551 H530 0.950 . S
C551 C550 1.373 . S
C551 C567 1.377 . S
C552 C550 1.389 . S
C552 C553 1.524 . S
C552 C566 1.377 . S
C553 C552 1.524 . S
C553 C554 1.397 . S
C553 C558 1.363 . S
C554 H531 0.950 . S
C554 C553 1.397 . S
C554 C555 1.334 . S
C555 H532 0.950 . S
C555 C554 1.334 . S
C555 C556 1.287 . S
C556 C555 1.287 . S
C556 C557 1.524 . S
C556 H575 0.913 . S
C557 H533 0.950 . S
C557 C556 1.524 . S
C557 C558 1.415 . S
C558 H534 0.950 . S
C558 C553 1.363 . S
C558 C557 1.415 . S
C559 H535 0.951 . S
C559 C560 1.366 . S
C559 C561 1.388 . S
C560 C559 1.366 . S
C560 C564 1.385 . S
C561 H536 0.951 . S
C561 C559 1.388 . S
C561 C562 1.366 . S
C562 C561 1.366 . S
C562 C563 1.414 . S
C562 C565 1.499 . S
C563 H537 0.950 . S
C563 C562 1.414 . S
C563 C564 1.374 . S
C564 H538 0.950 . S
C564 C560 1.385 . S
C564 C563 1.374 . S
C565 C562 1.499 . S
C565 C566 1.373 . S
C565 C567 1.389 . S
C566 H539 0.950 . S
C566 C552 1.377 . S
C566 C565 1.373 . S
C567 C551 1.377 . S
C567 C565 1.389 . S
C567 C568 1.524 . S
C568 C567 1.524 . S
C568 C569 1.397 . S
C568 C573 1.363 . S
C569 H540 0.950 . S
C569 C568 1.397 . S
C569 C570 1.334 . S
C570 H541 0.950 . S
C570 C569 1.334 . S
C570 C571 1.287 . S
C571 C570 1.287 . S
C571 C572 1.524 . S
C571 H574 0.999 . S
C572 H542 0.950 . S
C572 C571 1.524 . S
C572 C573 1.415 . S
C573 H543 0.950 . S
C573 C568 1.363 . S
C573 C572 1.415 . S
H574 C571 0.999 . S
H575 C556 0.913 . S
H576 C594 0.951 . S
H577 C596 0.951 . S
H578 C598 0.950 . S
H579 C599 0.950 . S
H580 C601 0.950 . S
H581 C604 0.950 . S
H582 C605 0.950 . S
H583 C607 0.950 . S
H584 C608 0.950 . S
H585 C609 0.951 . S
H586 C611 0.951 . S
H587 C613 0.950 . S
H588 C614 0.950 . S
H589 C616 0.950 . S
H590 C619 0.950 . S
H591 C620 0.950 . S
H592 C622 0.950 . S
H593 C623 0.950 . S
C594 H576 0.951 . S
C594 C595 1.366 . S
C594 C596 1.388 . S
C595 C594 1.366 . S
C595 C599 1.385 . S
C596 H577 0.951 . S
C596 C594 1.388 . S
C596 C597 1.366 . S
C597 C596 1.366 . S
C597 C598 1.414 . S
C597 C600 1.499 . S
C598 H578 0.950 . S
C598 C597 1.414 . S
C598 C599 1.374 . S
C599 H579 0.950 . S
C599 C595 1.385 . S
C599 C598 1.374 . S
C600 C597 1.499 . S
C600 C601 1.373 . S
C600 C602 1.389 . S
C601 H580 0.950 . S
C601 C600 1.373 . S
C601 C617 1.377 . S
C602 C600 1.389 . S
C602 C603 1.524 . S
C602 C616 1.377 . S
C603 C602 1.524 . S
C603 C604 1.397 . S
C603 C608 1.363 . S
C604 H581 0.950 . S
C604 C603 1.397 . S
C604 C605 1.334 . S
C605 H582 0.950 . S
C605 C604 1.334 . S
C605 C606 1.287 . S
C606 C605 1.287 . S
C606 C607 1.524 . S
C606 H625 0.913 . S
C607 H583 0.950 . S
C607 C606 1.524 . S
C607 C608 1.415 . S
C608 H584 0.950 . S
C608 C603 1.363 . S
C608 C607 1.415 . S
C609 H585 0.951 . S
C609 C610 1.366 . S
C609 C611 1.388 . S
C610 C609 1.366 . S
C610 C614 1.385 . S
C611 H586 0.951 . S
C611 C609 1.388 . S
C611 C612 1.366 . S
C612 C611 1.366 . S
C612 C613 1.414 . S
C612 C615 1.499 . S
C613 H587 0.950 . S
C613 C612 1.414 . S
C613 C614 1.374 . S
C614 H588 0.950 . S
C614 C610 1.385 . S
C614 C613 1.374 . S
C615 C612 1.499 . S
C615 C616 1.373 . S
C615 C617 1.389 . S
C616 H589 0.950 . S
C616 C602 1.377 . S
C616 C615 1.373 . S
C617 C601 1.377 . S
C617 C615 1.389 . S
C617 C618 1.524 . S
C618 C617 1.524 . S
C618 C619 1.397 . S
C618 C623 1.363 . S
C619 H590 0.950 . S
C619 C618 1.397 . S
C619 C620 1.334 . S
C620 H591 0.950 . S
C620 C619 1.334 . S
C620 C621 1.287 . S
C621 C620 1.287 . S
C621 C622 1.524 . S
C621 H624 0.999 . S
C622 H592 0.950 . S
C622 C621 1.524 . S
C622 C623 1.415 . S
C623 H593 0.950 . S
C623 C618 1.363 . S
C623 C622 1.415 . S
H624 C621 0.999 . S
H625 C606 0.913 . S
H626 C644 0.951 . S
H627 C646 0.951 . S
H628 C648 0.950 . S
H629 C649 0.950 . S
H630 C651 0.950 . S
H631 C654 0.950 . S
H632 C655 0.950 . S
H633 C657 0.950 . S
H634 C658 0.950 . S
H635 C659 0.951 . S
H636 C661 0.951 . S
H637 C663 0.950 . S
H638 C664 0.950 . S
H639 C666 0.950 . S
H640 C669 0.950 . S
H641 C670 0.950 . S
H642 C672 0.950 . S
H643 C673 0.950 . S
C644 H626 0.951 . S
C644 C645 1.366 . S
C644 C646 1.388 . S
C645 C644 1.366 . S
C645 C649 1.385 . S
C646 H627 0.951 . S
C646 C644 1.388 . S
C646 C647 1.366 . S
C647 C646 1.366 . S
C647 C648 1.414 . S
C647 C650 1.499 . S
C648 H628 0.950 . S
C648 C647 1.414 . S
C648 C649 1.374 . S
C649 H629 0.950 . S
C649 C645 1.385 . S
C649 C648 1.374 . S
C650 C647 1.499 . S
C650 C651 1.373 . S
C650 C652 1.389 . S
C651 H630 0.950 . S
C651 C650 1.373 . S
C651 C667 1.377 . S
C652 C650 1.389 . S
C652 C653 1.524 . S
C652 C666 1.377 . S
C653 C652 1.524 . S
C653 C654 1.397 . S
C653 C658 1.363 . S
C654 H631 0.950 . S
C654 C653 1.397 . S
C654 C655 1.334 . S
C655 H632 0.950 . S
C655 C654 1.334 . S
C655 C656 1.287 . S
C656 C655 1.287 . S
C656 C657 1.524 . S
C656 H675 0.913 . S
C657 H633 0.950 . S
C657 C656 1.524 . S
C657 C658 1.415 . S
C658 H634 0.950 . S
C658 C653 1.363 . S
C658 C657 1.415 . S
C659 H635 0.951 . S
C659 C660 1.366 . S
C659 C661 1.388 . S
C660 C659 1.366 . S
C660 C664 1.385 . S
C661 H636 0.951 . S
C661 C659 1.388 . S
C661 C662 1.366 . S
C662 C661 1.366 . S
C662 C663 1.414 . S
C662 C665 1.499 . S
C663 H637 0.950 . S
C663 C662 1.414 . S
C663 C664 1.374 . S
C664 H638 0.950 . S
C664 C660 1.385 . S
C664 C663 1.374 . S
C665 C662 1.499 . S
C665 C666 1.373 . S
C665 C667 1.389 . S
C666 H639 0.950 . S
C666 C652 1.377 . S
C666 C665 1.373 . S
C667 C651 1.377 . S
C667 C665 1.389 . S
C667 C668 1.524 . S
C668 C667 1.524 . S
C668 C669 1.397 . S
C668 C673 1.363 . S
C669 H640 0.950 . S
C669 C668 1.397 . S
C669 C670 1.334 . S
C670 H641 0.950 . S
C670 C669 1.334 . S
C670 C671 1.287 . S
C671 C670 1.287 . S
C671 C672 1.524 . S
C671 H674 0.999 . S
C672 H642 0.950 . S
C672 C671 1.524 . S
C672 C673 1.415 . S
C673 H643 0.950 . S
C673 C668 1.363 . S
C673 C672 1.415 . S
H674 C671 0.999 . S
H675 C656 0.913 . S
H676 C694 0.951 . S
H677 C696 0.951 . S
H678 C698 0.950 . S
H679 C699 0.950 . S
H680 C701 0.950 . S
H681 C704 0.950 . S
H682 C705 0.950 . S
H683 C707 0.950 . S
H684 C708 0.950 . S
H685 C709 0.951 . S
H686 C711 0.951 . S
H687 C713 0.950 . S
H688 C714 0.964 . S
H689 C716 0.950 . S
H690 C719 0.950 . S
H691 C720 0.950 . S
H692 C722 0.950 . S
H693 C723 0.950 . S
C694 H676 0.951 . S
C694 C695 1.366 . S
C694 C696 1.388 . S
C695 C694 1.366 . S
C695 C699 1.385 . S
C696 H677 0.951 . S
C696 C694 1.388 . S
C696 C697 1.366 . S
C697 C696 1.366 . S
C697 C698 1.414 . S
C697 C700 1.499 . S
C698 H678 0.950 . S
C698 C697 1.414 . S
C698 C699 1.374 . S
C699 H679 0.950 . S
C699 C695 1.385 . S
C699 C698 1.374 . S
C700 C697 1.499 . S
C700 C701 1.373 . S
C700 C702 1.389 . S
C701 H680 0.950 . S
C701 C700 1.373 . S
C701 C717 1.377 . S
C702 C700 1.389 . S
C702 C703 1.524 . S
C702 C716 1.377 . S
C703 C702 1.524 . S
C703 C704 1.397 . S
C703 C708 1.363 . S
C704 H681 0.950 . S
C704 C703 1.397 . S
C704 C705 1.334 . S
C705 H682 0.950 . S
C705 C704 1.334 . S
C705 C706 1.287 . S
C706 C705 1.287 . S
C706 C707 1.524 . S
C706 H725 0.913 . S
C707 H683 0.950 . S
C707 C706 1.524 . S
C707 C708 1.415 . S
C708 H684 0.950 . S
C708 C703 1.363 . S
C708 C707 1.415 . S
C709 H685 0.951 . S
C709 C710 1.366 . S
C709 C711 1.388 . S
C710 C709 1.366 . S
C710 C714 1.385 . S
C711 H686 0.951 . S
C711 C709 1.388 . S
C711 C712 1.366 . S
C712 C711 1.366 . S
C712 C713 1.414 . S
C712 C715 1.499 . S
C713 H687 0.950 . S
C713 C712 1.414 . S
C713 C714 1.374 . S
C714 H688 0.964 . S
C714 C710 1.385 . S
C714 C713 1.374 . S
C715 C712 1.499 . S
C715 C716 1.373 . S
C715 C717 1.389 . S
C716 H689 0.950 . S
C716 C702 1.377 . S
C716 C715 1.373 . S
C717 C701 1.377 . S
C717 C715 1.389 . S
C717 C718 1.524 . S
C718 C717 1.524 . S
C718 C719 1.397 . S
C718 C723 1.363 . S
C719 H690 0.950 . S
C719 C718 1.397 . S
C719 C720 1.334 . S
C720 H691 0.950 . S
C720 C719 1.334 . S
C720 C721 1.287 . S
C721 C720 1.287 . S
C721 C722 1.524 . S
C721 H724 0.999 . S
C722 H692 0.950 . S
C722 C721 1.524 . S
C722 C723 1.415 . S
C723 H693 0.950 . S
C723 C718 1.363 . S
C723 C722 1.415 . S
H724 C721 0.999 . S
H725 C706 0.913 . S
H726 C744 0.951 . S
H727 C746 0.951 . S
H728 C748 0.950 . S
H729 C749 0.950 . S
H730 C751 0.950 . S
H731 C754 0.950 . S
H732 C755 0.950 . S
H733 C757 0.950 . S
H734 C758 0.950 . S
H735 C759 0.951 . S
H736 C761 0.951 . S
H737 C763 0.950 . S
H738 C764 0.950 . S
H739 C766 0.950 . S
H740 C769 0.950 . S
H741 C770 0.950 . S
H742 C772 0.950 . S
H743 C773 0.950 . S
C744 H726 0.951 . S
C744 C745 1.366 . S
C744 C746 1.388 . S
C745 C744 1.366 . S
C745 C749 1.385 . S
C746 H727 0.951 . S
C746 C744 1.388 . S
C746 C747 1.366 . S
C747 C746 1.366 . S
C747 C748 1.414 . S
C747 C750 1.499 . S
C748 H728 0.950 . S
C748 C747 1.414 . S
C748 C749 1.374 . S
C749 H729 0.950 . S
C749 C745 1.385 . S
C749 C748 1.374 . S
C750 C747 1.499 . S
C750 C751 1.373 . S
C750 C752 1.389 . S
C751 H730 0.950 . S
C751 C750 1.373 . S
C751 C767 1.377 . S
C752 C750 1.389 . S
C752 C753 1.524 . S
C752 C766 1.377 . S
C753 C752 1.524 . S
C753 C754 1.397 . S
C753 C758 1.363 . S
C754 H731 0.950 . S
C754 C753 1.397 . S
C754 C755 1.334 . S
C755 H732 0.950 . S
C755 C754 1.334 . S
C755 C756 1.287 . S
C756 C755 1.287 . S
C756 C757 1.524 . S
C756 H775 0.913 . S
C757 H733 0.950 . S
C757 C756 1.524 . S
C757 C758 1.415 . S
C758 H734 0.950 . S
C758 C753 1.363 . S
C758 C757 1.415 . S
C759 H735 0.951 . S
C759 C760 1.366 . S
C759 C761 1.388 . S
C760 C759 1.366 . S
C760 C764 1.385 . S
C761 H736 0.951 . S
C761 C759 1.388 . S
C761 C762 1.366 . S
C762 C761 1.366 . S
C762 C763 1.414 . S
C762 C765 1.499 . S
C763 H737 0.950 . S
C763 C762 1.414 . S
C763 C764 1.374 . S
C764 H738 0.950 . S
C764 C760 1.385 . S
C764 C763 1.374 . S
C765 C762 1.499 . S
C765 C766 1.373 . S
C765 C767 1.389 . S
C766 H739 0.950 . S
C766 C752 1.377 . S
C766 C765 1.373 . S
C767 C751 1.377 . S
C767 C765 1.389 . S
C767 C768 1.524 . S
C768 C767 1.524 . S
C768 C769 1.397 . S
C768 C773 1.363 . S
C769 H740 0.950 . S
C769 C768 1.397 . S
C769 C770 1.334 . S
C770 H741 0.950 . S
C770 C769 1.334 . S
C770 C771 1.287 . S
C771 C770 1.287 . S
C771 C772 1.524 . S
C771 H774 0.999 . S
C772 H742 0.950 . S
C772 C771 1.524 . S
C772 C773 1.415 . S
C773 H743 0.950 . S
C773 C768 1.363 . S
C773 C772 1.415 . S
H774 C771 0.999 . S
H775 C756 0.913 . S
H776 C794 0.951 . S
H777 C796 0.951 . S
H778 C798 0.950 . S
H779 C799 0.950 . S
H780 C801 0.950 . S
H781 C804 0.950 . S
H782 C805 0.950 . S
H783 C807 0.950 . S
H784 C808 0.950 . S
H785 C809 0.951 . S
H786 C811 0.951 . S
H787 C813 0.950 . S
H788 C814 0.950 . S
H789 C816 0.950 . S
H790 C819 0.950 . S
H791 C820 0.950 . S
H792 C822 0.950 . S
H793 C823 0.950 . S
C794 H776 0.951 . S
C794 C795 1.366 . S
C794 C796 1.388 . S
C795 C794 1.366 . S
C795 C799 1.385 . S
C796 H777 0.951 . S
C796 C794 1.388 . S
C796 C797 1.366 . S
C797 C796 1.366 . S
C797 C798 1.414 . S
C797 C800 1.499 . S
C798 H778 0.950 . S
C798 C797 1.414 . S
C798 C799 1.374 . S
C799 H779 0.950 . S
C799 C795 1.385 . S
C799 C798 1.374 . S
C800 C797 1.499 . S
C800 C801 1.373 . S
C800 C802 1.389 . S
C801 H780 0.950 . S
C801 C800 1.373 . S
C801 C817 1.377 . S
C802 C800 1.389 . S
C802 C803 1.524 . S
C802 C816 1.377 . S
C803 C802 1.524 . S
C803 C804 1.397 . S
C803 C808 1.363 . S
C804 H781 0.950 . S
C804 C803 1.397 . S
C804 C805 1.334 . S
C805 H782 0.950 . S
C805 C804 1.334 . S
C805 C806 1.287 . S
C806 C805 1.287 . S
C806 C807 1.524 . S
C806 H825 0.913 . S
C807 H783 0.950 . S
C807 C806 1.524 . S
C807 C808 1.415 . S
C808 H784 0.950 . S
C808 C803 1.363 . S
C808 C807 1.415 . S
C809 H785 0.951 . S
C809 C810 1.366 . S
C809 C811 1.388 . S
C810 C809 1.366 . S
C810 C814 1.385 . S
C811 H786 0.951 . S
C811 C809 1.388 . S
C811 C812 1.366 . S
C812 C811 1.366 . S
C812 C813 1.414 . S
C812 C815 1.499 . S
C813 H787 0.950 . S
C813 C812 1.414 . S
C813 C814 1.374 . S
C814 H788 0.950 . S
C814 C810 1.385 . S
C814 C813 1.374 . S
C815 C812 1.499 . S
C815 C816 1.373 . S
C815 C817 1.389 . S
C816 H789 0.950 . S
C816 C802 1.377 . S
C816 C815 1.373 . S
C817 C801 1.377 . S
C817 C815 1.389 . S
C817 C818 1.524 . S
C818 C817 1.524 . S
C818 C819 1.397 . S
C818 C823 1.363 . S
C819 H790 0.950 . S
C819 C818 1.397 . S
C819 C820 1.334 . S
C820 H791 0.950 . S
C820 C819 1.334 . S
C820 C821 1.287 . S
C821 C820 1.287 . S
C821 C822 1.524 . S
C821 H824 0.999 . S
C822 H792 0.950 . S
C822 C821 1.524 . S
C822 C823 1.415 . S
C823 H793 0.950 . S
C823 C818 1.363 . S
C823 C822 1.415 . S
H824 C821 0.999 . S
H825 C806 0.913 . S
H826 C844 0.951 . S
H827 C846 0.951 . S
H828 C848 0.950 . S
H829 C849 0.950 . S
H830 C851 0.950 . S
H831 C854 0.950 . S
H832 C855 0.950 . S
H833 C857 0.950 . S
H834 C858 0.950 . S
H835 C859 0.951 . S
H836 C861 0.951 . S
H837 C863 0.950 . S
H838 C864 0.950 . S
H839 C866 0.950 . S
H840 C869 0.950 . S
H841 C870 0.950 . S
H842 C872 0.950 . S
H843 C873 0.950 . S
C844 H826 0.951 . S
C844 C845 1.366 . S
C844 C846 1.388 . S
C845 C844 1.366 . S
C845 C849 1.385 . S
C846 H827 0.951 . S
C846 C844 1.388 . S
C846 C847 1.366 . S
C847 C846 1.366 . S
C847 C848 1.414 . S
C847 C850 1.499 . S
C848 H828 0.950 . S
C848 C847 1.414 . S
C848 C849 1.374 . S
C849 H829 0.950 . S
C849 C845 1.385 . S
C849 C848 1.374 . S
C850 C847 1.499 . S
C850 C851 1.373 . S
C850 C852 1.389 . S
C851 H830 0.950 . S
C851 C850 1.373 . S
C851 C867 1.377 . S
C852 C850 1.389 . S
C852 C853 1.524 . S
C852 C866 1.377 . S
C853 C852 1.524 . S
C853 C854 1.397 . S
C853 C858 1.363 . S
C854 H831 0.950 . S
C854 C853 1.397 . S
C854 C855 1.334 . S
C855 H832 0.950 . S
C855 C854 1.334 . S
C855 C856 1.287 . S
C856 C855 1.287 . S
C856 C857 1.524 . S
C856 H875 0.913 . S
C857 H833 0.950 . S
C857 C856 1.524 . S
C857 C858 1.415 . S
C858 H834 0.950 . S
C858 C853 1.363 . S
C858 C857 1.415 . S
C859 H835 0.951 . S
C859 C860 1.366 . S
C859 C861 1.388 . S
C860 C859 1.366 . S
C860 C864 1.385 . S
C861 H836 0.951 . S
C861 C859 1.388 . S
C861 C862 1.366 . S
C862 C861 1.366 . S
C862 C863 1.414 . S
C862 C865 1.499 . S
C863 H837 0.950 . S
C863 C862 1.414 . S
C863 C864 1.374 . S
C864 H838 0.950 . S
C864 C860 1.385 . S
C864 C863 1.374 . S
C865 C862 1.499 . S
C865 C866 1.373 . S
C865 C867 1.389 . S
C866 H839 0.950 . S
C866 C852 1.377 . S
C866 C865 1.373 . S
C867 C851 1.377 . S
C867 C865 1.389 . S
C867 C868 1.524 . S
C868 C867 1.524 . S
C868 C869 1.397 . S
C868 C873 1.363 . S
C869 H840 0.950 . S
C869 C868 1.397 . S
C869 C870 1.334 . S
C870 H841 0.950 . S
C870 C869 1.334 . S
C870 C871 1.287 . S
C871 C870 1.287 . S
C871 C872 1.524 . S
C871 H874 0.999 . S
C872 H842 0.950 . S
C872 C871 1.524 . S
C872 C873 1.415 . S
C873 H843 0.950 . S
C873 C868 1.363 . S
C873 C872 1.415 . S
H874 C871 0.999 . S
H875 C856 0.913 . S
H876 C894 0.951 . S
H877 C896 0.951 . S
H878 C898 0.950 . S
H879 C899 0.950 . S
H880 C901 0.950 . S
H881 C904 0.950 . S
H882 C905 0.950 . S
H883 C907 0.950 . S
H884 C908 0.950 . S
H885 C909 0.951 . S
H886 C911 0.951 . S
H887 C913 0.950 . S
H888 C914 0.950 . S
H889 C916 0.950 . S
H890 C919 0.950 . S
H891 C920 0.950 . S
H892 C922 0.950 . S
H893 C923 0.950 . S
C894 H876 0.951 . S
C894 C895 1.366 . S
C894 C896 1.388 . S
C895 C894 1.366 . S
C895 C899 1.385 . S
C896 H877 0.951 . S
C896 C894 1.388 . S
C896 C897 1.366 . S
C897 C896 1.366 . S
C897 C898 1.414 . S
C897 C900 1.499 . S
C898 H878 0.950 . S
C898 C897 1.414 . S
C898 C899 1.374 . S
C899 H879 0.950 . S
C899 C895 1.385 . S
C899 C898 1.374 . S
C900 C897 1.499 . S
C900 C901 1.373 . S
C900 C902 1.389 . S
C901 H880 0.950 . S
C901 C900 1.373 . S
C901 C917 1.377 . S
C902 C900 1.389 . S
C902 C903 1.524 . S
C902 C916 1.377 . S
C903 C902 1.524 . S
C903 C904 1.397 . S
C903 C908 1.363 . S
C904 H881 0.950 . S
C904 C903 1.397 . S
C904 C905 1.334 . S
C905 H882 0.950 . S
C905 C904 1.334 . S
C905 C906 1.287 . S
C906 C905 1.287 . S
C906 C907 1.524 . S
C906 H925 0.913 . S
C907 H883 0.950 . S
C907 C906 1.524 . S
C907 C908 1.415 . S
C908 H884 0.950 . S
C908 C903 1.363 . S
C908 C907 1.415 . S
C909 H885 0.951 . S
C909 C910 1.366 . S
C909 C911 1.388 . S
C910 C909 1.366 . S
C910 C914 1.385 . S
C911 H886 0.951 . S
C911 C909 1.388 . S
C911 C912 1.366 . S
C912 C911 1.366 . S
C912 C913 1.414 . S
C912 C915 1.499 . S
C913 H887 0.950 . S
C913 C912 1.414 . S
C913 C914 1.374 . S
C914 H888 0.950 . S
C914 C910 1.385 . S
C914 C913 1.374 . S
C915 C912 1.499 . S
C915 C916 1.373 . S
C915 C917 1.389 . S
C916 H889 0.950 . S
C916 C902 1.377 . S
C916 C915 1.373 . S
C917 C901 1.377 . S
C917 C915 1.389 . S
C917 C918 1.524 . S
C918 C917 1.524 . S
C918 C919 1.397 . S
C918 C923 1.363 . S
C919 H890 0.950 . S
C919 C918 1.397 . S
C919 C920 1.334 . S
C920 H891 0.950 . S
C920 C919 1.334 . S
C920 C921 1.287 . S
C921 C920 1.287 . S
C921 C922 1.524 . S
C921 H924 0.999 . S
C922 H892 0.950 . S
C922 C921 1.524 . S
C922 C923 1.415 . S
C923 H893 0.950 . S
C923 C918 1.363 . S
C923 C922 1.415 . S
H924 C921 0.999 . S
H925 C906 0.913 . S
H926 C944 0.951 . S
H927 C946 0.951 . S
H928 C948 0.950 . S
H929 C949 0.950 . S
H930 C951 0.950 . S
H931 C954 0.950 . S
H932 C955 0.950 . S
H933 C957 0.950 . S
H934 C958 0.950 . S
H935 C959 0.951 . S
H936 C961 0.951 . S
H937 C963 0.950 . S
H938 C964 0.950 . S
H939 C966 0.950 . S
H940 C969 0.950 . S
H941 C970 0.950 . S
H942 C972 0.950 . S
H943 C973 0.950 . S
C944 H926 0.951 . S
C944 C945 1.366 . S
C944 C946 1.388 . S
C945 C944 1.366 . S
C945 C949 1.385 . S
C946 H927 0.951 . S
C946 C944 1.388 . S
C946 C947 1.366 . S
C947 C946 1.366 . S
C947 C948 1.414 . S
C947 C950 1.499 . S
C948 H928 0.950 . S
C948 C947 1.414 . S
C948 C949 1.374 . S
C949 H929 0.950 . S
C949 C945 1.385 . S
C949 C948 1.374 . S
C950 C947 1.499 . S
C950 C951 1.373 . S
C950 C952 1.389 . S
C951 H930 0.950 . S
C951 C950 1.373 . S
C951 C967 1.377 . S
C952 C950 1.389 . S
C952 C953 1.524 . S
C952 C966 1.377 . S
C953 C952 1.524 . S
C953 C954 1.397 . S
C953 C958 1.363 . S
C954 H931 0.950 . S
C954 C953 1.397 . S
C954 C955 1.334 . S
C955 H932 0.950 . S
C955 C954 1.334 . S
C955 C956 1.287 . S
C956 C955 1.287 . S
C956 C957 1.524 . S
C956 H975 0.913 . S
C957 H933 0.950 . S
C957 C956 1.524 . S
C957 C958 1.415 . S
C958 H934 0.950 . S
C958 C953 1.363 . S
C958 C957 1.415 . S
C959 H935 0.951 . S
C959 C960 1.366 . S
C959 C961 1.388 . S
C960 C959 1.366 . S
C960 C964 1.385 . S
C961 H936 0.951 . S
C961 C959 1.388 . S
C961 C962 1.366 . S
C962 C961 1.366 . S
C962 C963 1.414 . S
C962 C965 1.499 . S
C963 H937 0.950 . S
C963 C962 1.414 . S
C963 C964 1.374 . S
C964 H938 0.950 . S
C964 C960 1.385 . S
C964 C963 1.374 . S
C965 C962 1.499 . S
C965 C966 1.373 . S
C965 C967 1.389 . S
C966 H939 0.950 . S
C966 C952 1.377 . S
C966 C965 1.373 . S
C967 C951 1.377 . S
C967 C965 1.389 . S
C967 C968 1.524 . S
C968 C967 1.524 . S
C968 C969 1.397 . S
C968 C973 1.363 . S
C969 H940 0.950 . S
C969 C968 1.397 . S
C969 C970 1.334 . S
C970 H941 0.950 . S
C970 C969 1.334 . S
C970 C971 1.287 . S
C971 C970 1.287 . S
C971 C972 1.524 . S
C971 H974 0.999 . S
C972 H942 0.950 . S
C972 C971 1.524 . S
C972 C973 1.415 . S
C973 H943 0.950 . S
C973 C968 1.363 . S
C973 C972 1.415 . S
H974 C971 0.999 . S
H975 C956 0.913 . S
H976 C994 0.951 . S
H977 C996 0.951 . S
H978 C998 0.950 . S
H979 C999 0.950 . S
H980 C1001 0.950 . S
H981 C1004 0.950 . S
H982 C1005 0.950 . S
H983 C1007 0.950 . S
H984 C1008 0.950 . S
H985 C1009 0.951 . S
H986 C1011 0.951 . S
H987 C1013 0.950 . S
H988 C1014 0.950 . S
H989 C1016 0.950 . S
H990 C1019 0.950 . S
H991 C1020 0.935 1_554 S
H992 C1022 0.950 1_554 S
H993 C1023 0.950 . S
C994 H976 0.951 . S
C994 C995 1.366 . S
C994 C996 1.388 . S
C995 C994 1.366 . S
C995 C999 1.385 . S
C996 H977 0.951 . S
C996 C994 1.388 . S
C996 C997 1.366 . S
C997 C996 1.366 . S
C997 C998 1.414 . S
C997 C1000 1.499 . S
C998 H978 0.950 . S
C998 C997 1.414 . S
C998 C999 1.374 . S
C999 H979 0.950 . S
C999 C995 1.385 . S
C999 C998 1.374 . S
C1000 C997 1.499 . S
C1000 C1001 1.373 . S
C1000 C1002 1.389 . S
C1001 H980 0.950 . S
C1001 C1000 1.373 . S
C1001 C1017 1.377 . S
C1002 C1000 1.389 . S
C1002 C1003 1.524 . S
C1002 C1016 1.377 . S
C1003 C1002 1.524 . S
C1003 C1004 1.397 . S
C1003 C1008 1.363 . S
C1004 H981 0.950 . S
C1004 C1003 1.397 . S
C1004 C1005 1.334 . S
C1005 H982 0.950 . S
C1005 C1004 1.334 . S
C1005 C1006 1.287 . S
C1006 C1005 1.287 . S
C1006 C1007 1.524 . S
C1006 H1025 0.913 . S
C1007 H983 0.950 . S
C1007 C1006 1.524 . S
C1007 C1008 1.415 . S
C1008 H984 0.950 . S
C1008 C1003 1.363 . S
C1008 C1007 1.415 . S
C1009 H985 0.951 . S
C1009 C1010 1.366 . S
C1009 C1011 1.388 . S
C1010 C1009 1.366 . S
C1010 C1014 1.385 . S
C1011 H986 0.951 . S
C1011 C1009 1.388 . S
C1011 C1012 1.366 . S
C1012 C1011 1.366 . S
C1012 C1013 1.414 . S
C1012 C1015 1.499 . S
C1013 H987 0.950 . S
C1013 C1012 1.414 . S
C1013 C1014 1.374 . S
C1014 H988 0.950 . S
C1014 C1010 1.385 . S
C1014 C1013 1.374 . S
C1015 C1012 1.499 . S
C1015 C1016 1.373 . S
C1015 C1017 1.389 . S
C1016 H989 0.950 . S
C1016 C1002 1.377 . S
C1016 C1015 1.373 . S
C1017 C1001 1.377 . S
C1017 C1015 1.389 . S
C1017 C1018 1.524 . S
C1018 C1017 1.524 . S
C1018 C1019 1.397 . S
C1018 C1023 1.363 . S
C1019 H990 0.950 . S
C1019 C1018 1.397 . S
C1019 C1020 1.364 . S
C1020 H991 0.935 1_556 S
C1020 C1019 1.364 . S
C1020 C1021 1.274 1_556 S
C1021 C1020 1.274 1_554 S
C1021 C1022 1.524 1_554 S
C1021 H1024 0.999 . S
C1022 H992 0.950 1_556 S
C1022 C1021 1.524 1_556 S
C1022 C1023 1.415 . S
C1023 H993 0.950 . S
C1023 C1018 1.363 . S
C1023 C1022 1.415 . S
H1024 C1021 0.999 . S
H1025 C1006 0.913 . S
H1026 C1044 0.951 . S
H1027 C1046 0.951 . S
H1028 C1048 0.950 . S
H1029 C1049 0.950 . S
H1030 C1051 0.950 . S
H1031 C1054 0.950 . S
H1032 C1055 0.950 . S
H1033 C1057 0.950 . S
H1034 C1058 0.950 . S
H1035 C1059 0.951 1_565 S
H1036 C1061 0.951 . S
H1037 C1063 0.950 . S
H1038 C1064 0.950 . S
H1039 C1066 0.950 . S
H1040 C1069 0.950 . S
H1041 C1070 0.950 . S
H1042 C1072 0.950 . S
H1043 C1073 0.950 . S
C1044 H1026 0.951 . S
C1044 C1045 1.366 . S
C1044 C1046 1.388 . S
C1045 C1044 1.366 . S
C1045 C1049 1.385 . S
C1046 H1027 0.951 . S
C1046 C1044 1.388 . S
C1046 C1047 1.366 . S
C1047 C1046 1.366 . S
C1047 C1048 1.414 . S
C1047 C1050 1.499 . S
C1048 H1028 0.950 . S
C1048 C1047 1.414 . S
C1048 C1049 1.374 . S
C1049 H1029 0.950 . S
C1049 C1045 1.385 . S
C1049 C1048 1.374 . S
C1050 C1047 1.499 . S
C1050 C1051 1.373 . S
C1050 C1052 1.389 . S
C1051 H1030 0.950 . S
C1051 C1050 1.373 . S
C1051 C1067 1.377 . S
C1052 C1050 1.389 . S
C1052 C1053 1.524 . S
C1052 C1066 1.377 . S
C1053 C1052 1.524 . S
C1053 C1054 1.397 . S
C1053 C1058 1.363 . S
C1054 H1031 0.950 . S
C1054 C1053 1.397 . S
C1054 C1055 1.334 . S
C1055 H1032 0.950 . S
C1055 C1054 1.334 . S
C1055 C1056 1.287 . S
C1056 C1055 1.287 . S
C1056 C1057 1.524 . S
C1056 H1075 0.913 . S
C1057 H1033 0.950 . S
C1057 C1056 1.524 . S
C1057 C1058 1.415 . S
C1058 H1034 0.950 . S
C1058 C1053 1.363 . S
C1058 C1057 1.415 . S
C1059 H1035 0.951 1_545 S
C1059 C1060 1.366 . S
C1059 C1061 1.388 . S
C1060 C1059 1.366 . S
C1060 C1064 1.385 . S
C1061 H1036 0.951 . S
C1061 C1059 1.388 . S
C1061 C1062 1.366 . S
C1062 C1061 1.366 . S
C1062 C1063 1.414 . S
C1062 C1065 1.499 . S
C1063 H1037 0.950 . S
C1063 C1062 1.414 . S
C1063 C1064 1.374 . S
C1064 H1038 0.950 . S
C1064 C1060 1.385 . S
C1064 C1063 1.374 . S
C1065 C1062 1.499 . S
C1065 C1066 1.373 . S
C1065 C1067 1.389 . S
C1066 H1039 0.950 . S
C1066 C1052 1.377 . S
C1066 C1065 1.373 . S
C1067 C1051 1.377 . S
C1067 C1065 1.389 . S
C1067 C1068 1.524 . S
C1068 C1067 1.524 . S
C1068 C1069 1.397 . S
C1068 C1073 1.363 . S
C1069 H1040 0.950 . S
C1069 C1068 1.397 . S
C1069 C1070 1.334 . S
C1070 H1041 0.950 . S
C1070 C1069 1.334 . S
C1070 C1071 1.287 1_545 S
C1071 C1070 1.287 1_565 S
C1071 C1072 1.524 . S
C1071 H1074 0.999 . S
C1072 H1042 0.950 . S
C1072 C1071 1.524 . S
C1072 C1073 1.415 1_565 S
C1073 H1043 0.950 . S
C1073 C1068 1.363 . S
C1073 C1072 1.415 1_545 S
H1074 C1071 0.999 . S
H1075 C1056 0.913 . S
H1076 C1094 0.951 . S
H1077 C1096 0.951 . S
H1078 C1098 0.950 . S
H1079 C1099 0.950 . S
H1080 C1101 0.950 . S
H1081 C1104 0.950 . S
H1082 C1105 0.950 . S
H1083 C1107 0.950 . S
H1084 C1108 0.950 . S
H1085 C1109 0.951 . S
H1086 C1111 0.951 . S
H1087 C1113 0.950 . S
H1088 C1114 0.950 . S
H1089 C1116 0.950 . S
H1090 C1119 0.950 . S
H1091 C1120 0.950 . S
H1092 C1122 0.950 . S
H1093 C1123 0.950 . S
C1094 H1076 0.951 . S
C1094 C1095 1.366 . S
C1094 C1096 1.388 . S
C1095 C1094 1.366 . S
C1095 C1099 1.385 . S
C1096 H1077 0.951 . S
C1096 C1094 1.388 . S
C1096 C1097 1.366 . S
C1097 C1096 1.366 . S
C1097 C1098 1.414 . S
C1097 C1100 1.499 . S
C1098 H1078 0.950 . S
C1098 C1097 1.414 . S
C1098 C1099 1.374 . S
C1099 H1079 0.950 . S
C1099 C1095 1.385 . S
C1099 C1098 1.374 . S
C1100 C1097 1.499 . S
C1100 C1101 1.373 . S
C1100 C1102 1.389 . S
C1101 H1080 0.950 . S
C1101 C1100 1.373 . S
C1101 C1117 1.377 . S
C1102 C1100 1.389 . S
C1102 C1103 1.524 . S
C1102 C1116 1.377 . S
C1103 C1102 1.524 . S
C1103 C1104 1.397 . S
C1103 C1108 1.363 . S
C1104 H1081 0.950 . S
C1104 C1103 1.397 . S
C1104 C1105 1.334 . S
C1105 H1082 0.950 . S
C1105 C1104 1.334 . S
C1105 C1106 1.287 . S
C1106 C1105 1.287 . S
C1106 C1107 1.524 . S
C1106 H1125 0.913 . S
C1107 H1083 0.950 . S
C1107 C1106 1.524 . S
C1107 C1108 1.415 . S
C1108 H1084 0.950 . S
C1108 C1103 1.363 . S
C1108 C1107 1.415 . S
C1109 H1085 0.951 . S
C1109 C1110 1.366 . S
C1109 C1111 1.388 . S
C1110 C1109 1.366 . S
C1110 C1114 1.385 . S
C1111 H1086 0.951 . S
C1111 C1109 1.388 . S
C1111 C1112 1.366 . S
C1112 C1111 1.366 . S
C1112 C1113 1.414 . S
C1112 C1115 1.499 . S
C1113 H1087 0.950 . S
C1113 C1112 1.414 . S
C1113 C1114 1.374 . S
C1114 H1088 0.950 . S
C1114 C1110 1.385 . S
C1114 C1113 1.374 . S
C1115 C1112 1.499 . S
C1115 C1116 1.373 . S
C1115 C1117 1.389 . S
C1116 H1089 0.950 . S
C1116 C1102 1.377 . S
C1116 C1115 1.373 . S
C1117 C1101 1.377 . S
C1117 C1115 1.389 . S
C1117 C1118 1.524 . S
C1118 C1117 1.524 . S
C1118 C1119 1.397 . S
C1118 C1123 1.363 . S
C1119 H1090 0.950 . S
C1119 C1118 1.397 . S
C1119 C1120 1.334 . S
C1120 H1091 0.950 . S
C1120 C1119 1.334 . S
C1120 C1121 1.287 . S
C1121 C1120 1.287 . S
C1121 C1122 1.524 . S
C1121 H1124 0.999 . S
C1122 H1092 0.950 . S
C1122 C1121 1.524 . S
C1122 C1123 1.415 . S
C1123 H1093 0.950 . S
C1123 C1118 1.363 . S
C1123 C1122 1.415 . S
H1124 C1121 0.999 . S
H1125 C1106 0.913 . S
H1126 C1144 0.951 . S
H1127 C1146 0.951 . S
H1128 C1148 0.950 . S
H1129 C1149 0.950 . S
H1130 C1151 0.950 . S
H1131 C1154 0.950 . S
H1132 C1155 0.950 . S
H1133 C1157 0.950 . S
H1134 C1158 0.950 . S
H1135 C1159 0.951 . S
H1136 C1161 0.951 . S
H1137 C1163 0.950 . S
H1138 C1164 0.950 . S
H1139 C1166 0.950 . S
H1140 C1169 0.950 . S
H1141 C1170 0.950 . S
H1142 C1172 0.950 . S
H1143 C1173 0.950 . S
C1144 H1126 0.951 . S
C1144 C1145 1.366 . S
C1144 C1146 1.388 . S
C1145 C1144 1.366 . S
C1145 C1149 1.385 . S
C1146 H1127 0.951 . S
C1146 C1144 1.388 . S
C1146 C1147 1.366 . S
C1147 C1146 1.366 . S
C1147 C1148 1.414 . S
C1147 C1150 1.499 . S
C1148 H1128 0.950 . S
C1148 C1147 1.414 . S
C1148 C1149 1.374 . S
C1149 H1129 0.950 . S
C1149 C1145 1.385 . S
C1149 C1148 1.374 . S
C1150 C1147 1.499 . S
C1150 C1151 1.373 . S
C1150 C1152 1.389 . S
C1151 H1130 0.950 . S
C1151 C1150 1.373 . S
C1151 C1167 1.377 . S
C1152 C1150 1.389 . S
C1152 C1153 1.524 . S
C1152 C1166 1.377 . S
C1153 C1152 1.524 . S
C1153 C1154 1.397 . S
C1153 C1158 1.363 . S
C1154 H1131 0.950 . S
C1154 C1153 1.397 . S
C1154 C1155 1.334 . S
C1155 H1132 0.950 . S
C1155 C1154 1.334 . S
C1155 C1156 1.287 . S
C1156 C1155 1.287 . S
C1156 C1157 1.524 . S
C1156 H1175 0.913 . S
C1157 H1133 0.950 . S
C1157 C1156 1.524 . S
C1157 C1158 1.415 . S
C1158 H1134 0.950 . S
C1158 C1153 1.363 . S
C1158 C1157 1.415 . S
C1159 H1135 0.951 . S
C1159 C1160 1.366 . S
C1159 C1161 1.388 . S
C1160 C1159 1.366 . S
C1160 C1164 1.385 . S
C1161 H1136 0.951 . S
C1161 C1159 1.388 . S
C1161 C1162 1.366 . S
C1162 C1161 1.366 . S
C1162 C1163 1.414 . S
C1162 C1165 1.499 . S
C1163 H1137 0.950 . S
C1163 C1162 1.414 . S
C1163 C1164 1.374 . S
C1164 H1138 0.950 . S
C1164 C1160 1.385 . S
C1164 C1163 1.374 . S
C1165 C1162 1.499 . S
C1165 C1166 1.373 . S
C1165 C1167 1.389 . S
C1166 H1139 0.950 . S
C1166 C1152 1.377 . S
C1166 C1165 1.373 . S
C1167 C1151 1.377 . S
C1167 C1165 1.389 . S
C1167 C1168 1.524 . S
C1168 C1167 1.524 . S
C1168 C1169 1.397 . S
C1168 C1173 1.363 . S
C1169 H1140 0.950 . S
C1169 C1168 1.397 . S
C1169 C1170 1.334 . S
C1170 H1141 0.950 . S
C1170 C1169 1.334 . S
C1170 C1171 1.287 . S
C1171 C1170 1.287 . S
C1171 C1172 1.524 . S
C1171 H1174 0.999 . S
C1172 H1142 0.950 . S
C1172 C1171 1.524 . S
C1172 C1173 1.415 . S
C1173 H1143 0.950 . S
C1173 C1168 1.363 . S
C1173 C1172 1.415 . S
H1174 C1171 0.999 . S
H1175 C1156 0.913 . S
H1176 C1194 0.951 . S
H1177 C1196 0.951 . S
H1178 C1198 0.950 . S
H1179 C1199 0.950 . S
H1180 C1201 0.950 . S
H1181 C1204 0.950 . S
H1182 C1205 0.950 . S
H1183 C1207 0.950 . S
H1184 C1208 0.950 . S
H1185 C1209 0.951 . S
H1186 C1211 0.951 . S
H1187 C1213 0.950 . S
H1188 C1214 0.950 . S
H1189 C1216 0.950 . S
H1190 C1219 0.950 . S
H1191 C1220 0.950 . S
H1192 C1222 0.950 . S
H1193 C1223 0.950 . S
C1194 H1176 0.951 . S
C1194 C1195 1.366 . S
C1194 C1196 1.388 . S
C1195 C1194 1.366 . S
C1195 C1199 1.385 . S
C1196 H1177 0.951 . S
C1196 C1194 1.388 . S
C1196 C1197 1.366 . S
C1197 C1196 1.366 . S
C1197 C1198 1.414 . S
C1197 C1200 1.499 . S
C1198 H1178 0.950 . S
C1198 C1197 1.414 . S
C1198 C1199 1.374 . S
C1199 H1179 0.950 . S
C1199 C1195 1.385 . S
C1199 C1198 1.374 . S
C1200 C1197 1.499 . S
C1200 C1201 1.373 . S
C1200 C1202 1.389 . S
C1201 H1180 0.950 . S
C1201 C1200 1.373 . S
C1201 C1217 1.377 . S
C1202 C1200 1.389 . S
C1202 C1203 1.524 . S
C1202 C1216 1.377 . S
C1203 C1202 1.524 . S
C1203 C1204 1.397 . S
C1203 C1208 1.363 . S
C1204 H1181 0.950 . S
C1204 C1203 1.397 . S
C1204 C1205 1.334 . S
C1205 H1182 0.950 . S
C1205 C1204 1.334 . S
C1205 C1206 1.287 . S
C1206 C1205 1.287 . S
C1206 C1207 1.524 . S
C1206 H1225 0.913 . S
C1207 H1183 0.950 . S
C1207 C1206 1.524 . S
C1207 C1208 1.415 . S
C1208 H1184 0.950 . S
C1208 C1203 1.363 . S
C1208 C1207 1.415 . S
C1209 H1185 0.951 . S
C1209 C1210 1.366 . S
C1209 C1211 1.388 . S
C1210 C1209 1.366 . S
C1210 C1214 1.385 . S
C1211 H1186 0.951 . S
C1211 C1209 1.388 . S
C1211 C1212 1.366 . S
C1212 C1211 1.366 . S
C1212 C1213 1.414 . S
C1212 C1215 1.499 . S
C1213 H1187 0.950 . S
C1213 C1212 1.414 . S
C1213 C1214 1.374 . S
C1214 H1188 0.950 . S
C1214 C1210 1.385 . S
C1214 C1213 1.374 . S
C1215 C1212 1.499 . S
C1215 C1216 1.373 . S
C1215 C1217 1.389 . S
C1216 H1189 0.950 . S
C1216 C1202 1.377 . S
C1216 C1215 1.373 . S
C1217 C1201 1.377 . S
C1217 C1215 1.389 . S
C1217 C1218 1.524 . S
C1218 C1217 1.524 . S
C1218 C1219 1.397 . S
C1218 C1223 1.363 . S
C1219 H1190 0.950 . S
C1219 C1218 1.397 . S
C1219 C1220 1.334 . S
C1220 H1191 0.950 . S
C1220 C1219 1.334 . S
C1220 C1221 1.287 . S
C1221 C1220 1.287 . S
C1221 C1222 1.524 . S
C1221 H1224 0.999 . S
C1222 H1192 0.950 . S
C1222 C1221 1.524 . S
C1222 C1223 1.415 . S
C1223 H1193 0.950 . S
C1223 C1218 1.363 . S
C1223 C1222 1.415 . S
H1224 C1221 0.999 . S
H1225 C1206 0.913 . S
H1226 C1244 0.951 . S
H1227 C1246 0.951 . S
H1228 C1248 0.950 . S
H1229 C1249 0.950 . S
H1230 C1251 0.950 . S
H1231 C1254 0.950 . S
H1232 C1255 0.950 . S
H1233 C1257 0.950 . S
H1234 C1258 0.950 . S
H1235 C1259 0.951 . S
H1236 C1261 0.951 . S
H1237 C1263 0.950 . S
H1238 C1264 0.950 . S
H1239 C1266 0.950 . S
H1240 C1269 0.950 . S
H1241 C1270 0.950 . S
H1242 C1272 0.950 . S
H1243 C1273 0.950 . S
C1244 H1226 0.951 . S
C1244 C1245 1.366 . S
C1244 C1246 1.388 . S
C1245 C1244 1.366 . S
C1245 C1249 1.385 . S
C1246 H1227 0.951 . S
C1246 C1244 1.388 . S
C1246 C1247 1.366 . S
C1247 C1246 1.366 . S
C1247 C1248 1.414 . S
C1247 C1250 1.499 . S
C1248 H1228 0.950 . S
C1248 C1247 1.414 . S
C1248 C1249 1.374 . S
C1249 H1229 0.950 . S
C1249 C1245 1.385 . S
C1249 C1248 1.374 . S
C1250 C1247 1.499 . S
C1250 C1251 1.373 . S
C1250 C1252 1.389 . S
C1251 H1230 0.950 . S
C1251 C1250 1.373 . S
C1251 C1267 1.377 . S
C1252 C1250 1.389 . S
C1252 C1253 1.524 . S
C1252 C1266 1.377 . S
C1253 C1252 1.524 . S
C1253 C1254 1.397 . S
C1253 C1258 1.363 . S
C1254 H1231 0.950 . S
C1254 C1253 1.397 . S
C1254 C1255 1.334 . S
C1255 H1232 0.950 . S
C1255 C1254 1.334 . S
C1255 C1256 1.287 . S
C1256 C1255 1.287 . S
C1256 C1257 1.524 . S
C1256 H1275 0.913 . S
C1257 H1233 0.950 . S
C1257 C1256 1.524 . S
C1257 C1258 1.415 . S
C1258 H1234 0.950 . S
C1258 C1253 1.363 . S
C1258 C1257 1.415 . S
C1259 H1235 0.951 . S
C1259 C1260 1.366 . S
C1259 C1261 1.388 . S
C1260 C1259 1.366 . S
C1260 C1264 1.385 . S
C1261 H1236 0.951 . S
C1261 C1259 1.388 . S
C1261 C1262 1.366 . S
C1262 C1261 1.366 . S
C1262 C1263 1.414 . S
C1262 C1265 1.499 . S
C1263 H1237 0.950 . S
C1263 C1262 1.414 . S
C1263 C1264 1.374 . S
C1264 H1238 0.950 . S
C1264 C1260 1.385 . S
C1264 C1263 1.374 . S
C1265 C1262 1.499 . S
C1265 C1266 1.373 . S
C1265 C1267 1.389 . S
C1266 H1239 0.950 . S
C1266 C1252 1.377 . S
C1266 C1265 1.373 . S
C1267 C1251 1.377 . S
C1267 C1265 1.389 . S
C1267 C1268 1.524 . S
C1268 C1267 1.524 . S
C1268 C1269 1.397 . S
C1268 C1273 1.363 . S
C1269 H1240 0.950 . S
C1269 C1268 1.397 . S
C1269 C1270 1.334 1_554 S
C1270 H1241 0.950 . S
C1270 C1269 1.334 1_556 S
C1270 C1271 1.287 . S
C1271 C1270 1.287 . S
C1271 C1272 1.524 . S
C1271 H1274 0.999 . S
C1272 H1242 0.950 . S
C1272 C1271 1.524 . S
C1272 C1273 1.415 1_556 S
C1273 H1243 0.950 . S
C1273 C1268 1.363 . S
C1273 C1272 1.415 1_554 S
H1274 C1271 0.999 . S
H1275 C1256 0.913 . S
H1276 C1294 0.951 . S
H1277 C1296 0.951 . S
H1278 C1298 0.950 . S
H1279 C1299 0.950 . S
H1280 C1301 0.950 . S
H1281 C1304 0.950 . S
H1282 C1305 0.950 . S
H1283 C1307 0.950 . S
H1284 C1308 0.950 . S
H1285 C1309 0.951 . S
H1286 C1311 0.951 . S
H1287 C1313 0.950 . S
H1288 C1314 0.950 . S
H1289 C1316 0.950 . S
H1290 C1319 0.950 . S
H1291 C1320 0.950 . S
H1292 C1322 0.950 1_655 S
H1293 C1323 0.950 . S
C1294 H1276 0.951 . S
C1294 C1295 1.366 . S
C1294 C1296 1.388 . S
C1295 C1294 1.366 . S
C1295 C1299 1.385 . S
C1296 H1277 0.951 . S
C1296 C1294 1.388 . S
C1296 C1297 1.366 . S
C1297 C1296 1.366 . S
C1297 C1298 1.414 . S
C1297 C1300 1.499 . S
C1298 H1278 0.950 . S
C1298 C1297 1.414 . S
C1298 C1299 1.374 . S
C1299 H1279 0.950 . S
C1299 C1295 1.385 . S
C1299 C1298 1.374 . S
C1300 C1297 1.499 . S
C1300 C1301 1.373 . S
C1300 C1302 1.389 . S
C1301 H1280 0.950 . S
C1301 C1300 1.373 . S
C1301 C1317 1.377 . S
C1302 C1300 1.389 . S
C1302 C1303 1.524 . S
C1302 C1316 1.377 . S
C1303 C1302 1.524 . S
C1303 C1304 1.397 . S
C1303 C1308 1.363 . S
C1304 H1281 0.950 . S
C1304 C1303 1.397 . S
C1304 C1305 1.334 . S
C1305 H1282 0.950 . S
C1305 C1304 1.334 . S
C1305 C1306 1.287 . S
C1306 C1305 1.287 . S
C1306 C1307 1.524 . S
C1306 H1325 0.913 . S
C1307 H1283 0.950 . S
C1307 C1306 1.524 . S
C1307 C1308 1.415 . S
C1308 H1284 0.950 . S
C1308 C1303 1.363 . S
C1308 C1307 1.415 . S
C1309 H1285 0.951 . S
C1309 C1310 1.366 . S
C1309 C1311 1.388 . S
C1310 C1309 1.366 . S
C1310 C1314 1.385 . S
C1311 H1286 0.951 . S
C1311 C1309 1.388 . S
C1311 C1312 1.366 . S
C1312 C1311 1.366 . S
C1312 C1313 1.414 . S
C1312 C1315 1.499 . S
C1313 H1287 0.950 . S
C1313 C1312 1.414 . S
C1313 C1314 1.374 . S
C1314 H1288 0.950 . S
C1314 C1310 1.385 . S
C1314 C1313 1.374 . S
C1315 C1312 1.499 . S
C1315 C1316 1.373 . S
C1315 C1317 1.389 . S
C1316 H1289 0.950 . S
C1316 C1302 1.377 . S
C1316 C1315 1.373 . S
C1317 C1301 1.377 . S
C1317 C1315 1.389 . S
C1317 C1318 1.524 . S
C1318 C1317 1.524 . S
C1318 C1319 1.397 . S
C1318 C1323 1.363 . S
C1319 H1290 0.950 . S
C1319 C1318 1.397 . S
C1319 C1320 1.334 1_455 S
C1320 H1291 0.950 . S
C1320 C1319 1.334 1_655 S
C1320 C1321 1.287 . S
C1321 C1320 1.287 . S
C1321 C1322 1.524 1_655 S
C1321 H1324 0.999 . S
C1322 H1292 0.950 1_455 S
C1322 C1321 1.524 1_455 S
C1322 C1323 1.415 . S
C1323 H1293 0.950 . S
C1323 C1318 1.363 . S
C1323 C1322 1.415 . S
H1324 C1321 0.999 . S
H1325 C1306 0.913 . S
H1326 C1344 0.951 . S
H1327 C1346 0.951 . S
H1328 C1348 0.950 . S
H1329 C1349 0.950 . S
H1330 C1351 0.950 . S
H1331 C1354 0.950 . S
H1332 C1355 0.950 . S
H1333 C1357 0.950 . S
H1334 C1358 0.950 . S
H1335 C1359 0.951 . S
H1336 C1361 0.951 . S
H1337 C1363 0.950 . S
H1338 C1364 0.950 . S
H1339 C1366 0.950 . S
H1340 C1369 0.950 . S
H1341 C1370 0.950 . S
H1342 C1372 0.950 . S
H1343 C1373 0.950 . S
C1344 H1326 0.951 . S
C1344 C1345 1.366 . S
C1344 C1346 1.388 . S
C1345 C1344 1.366 . S
C1345 C1349 1.385 . S
C1346 H1327 0.951 . S
C1346 C1344 1.388 . S
C1346 C1347 1.366 . S
C1347 C1346 1.366 . S
C1347 C1348 1.414 . S
C1347 C1350 1.499 . S
C1348 H1328 0.950 . S
C1348 C1347 1.414 . S
C1348 C1349 1.374 . S
C1349 H1329 0.950 . S
C1349 C1345 1.385 . S
C1349 C1348 1.374 . S
C1350 C1347 1.499 . S
C1350 C1351 1.373 . S
C1350 C1352 1.389 . S
C1351 H1330 0.950 . S
C1351 C1350 1.373 . S
C1351 C1367 1.377 . S
C1352 C1350 1.389 . S
C1352 C1353 1.524 . S
C1352 C1366 1.377 . S
C1353 C1352 1.524 . S
C1353 C1354 1.397 . S
C1353 C1358 1.363 . S
C1354 H1331 0.950 . S
C1354 C1353 1.397 . S
C1354 C1355 1.334 . S
C1355 H1332 0.950 . S
C1355 C1354 1.334 . S
C1355 C1356 1.287 . S
C1356 C1355 1.287 . S
C1356 C1357 1.524 . S
C1356 H1375 0.913 . S
C1357 H1333 0.950 . S
C1357 C1356 1.524 . S
C1357 C1358 1.415 . S
C1358 H1334 0.950 . S
C1358 C1353 1.363 . S
C1358 C1357 1.415 . S
C1359 H1335 0.951 . S
C1359 C1360 1.366 . S
C1359 C1361 1.388 . S
C1360 C1359 1.366 . S
C1360 C1364 1.385 . S
C1361 H1336 0.951 . S
C1361 C1359 1.388 . S
C1361 C1362 1.366 . S
C1362 C1361 1.366 . S
C1362 C1363 1.414 . S
C1362 C1365 1.499 . S
C1363 H1337 0.950 . S
C1363 C1362 1.414 . S
C1363 C1364 1.374 . S
C1364 H1338 0.950 . S
C1364 C1360 1.385 . S
C1364 C1363 1.374 . S
C1365 C1362 1.499 . S
C1365 C1366 1.373 . S
C1365 C1367 1.389 . S
C1366 H1339 0.950 . S
C1366 C1352 1.377 . S
C1366 C1365 1.373 . S
C1367 C1351 1.377 . S
C1367 C1365 1.389 . S
C1367 C1368 1.524 . S
C1368 C1367 1.524 . S
C1368 C1369 1.397 . S
C1368 C1373 1.363 . S
C1369 H1340 0.950 . S
C1369 C1368 1.397 . S
C1369 C1370 1.334 . S
C1370 H1341 0.950 . S
C1370 C1369 1.334 . S
C1370 C1371 1.287 . S
C1371 C1370 1.287 . S
C1371 C1372 1.524 . S
C1371 H1374 0.999 . S
C1372 H1342 0.950 . S
C1372 C1371 1.524 . S
C1372 C1373 1.415 . S
C1373 H1343 0.950 . S
C1373 C1368 1.363 . S
C1373 C1372 1.415 . S
H1374 C1371 0.999 . S
H1375 C1356 0.913 . S
C195 C6 1.534 . S
C210 C98 1.535 . S
C245 C18 1.687 . S
C260 C117 1.656 . S
C310 C154 1.792 . S
C295 C28 1.810 . S
C345 C40 1.025 . S
C360 C164 1.005 . S
C410 C134 2.191 . S
C395 C9 2.162 . S
C460 C104 1.474 . S
C445 C16 1.524 . S
C510 C175 1.453 . S
C495 C30 1.471 . S
C560 C145 0.977 . S
C545 C42 0.992 . S
C595 C4 1.666 . S
C610 C158 1.670 . S
C660 C125 1.834 . S
C645 C33 1.894 . S
C695 C45 1.509 . S
C710 C115 1.499 . S
C745 C21 1.451 . S
C760 C137 1.447 . S
C810 C97 1.556 . S
C795 C57 1.565 . S
C845 C66 1.688 . S
C860 C118 1.643 . S
C895 C76 1.856 . S
C910 C155 1.832 . S
C945 C88 0.955 . S
C960 C165 0.940 . S
C995 C54 2.132 . S
C1010 C135 2.159 . S
C1060 C105 1.541 . S
C1045 C64 1.590 . S
C1110 C174 1.341 . S
C1095 C78 1.360 . S
C1160 C144 0.998 . S
C1145 C93 1.016 . S
C1195 C52 1.614 . S
C1210 C157 1.635 . S
C1260 C124 1.825 . S
C1245 C81 1.886 . S
C1310 C114 1.479 . S
C1295 C90 1.488 . S
C1345 C69 1.479 . S
C1360 C138 1.474 . S
