# Generated by pormake.
# Topology zzz, (3,6)-cn, num edge types: 1
# Building blocks:
#     Node 0, Type 0, BuildingBlock: MIDCAF_clean_linker_0, # of connection points: 3
#     Node 1, Type 0, BuildingBlock: MIDCAF_clean_linker_0, # of connection points: 3
#     Node 2, Type 0, BuildingBlock: MIDCAF_clean_linker_0, # of connection points: 3
#     Node 3, Type 0, BuildingBlock: MIDCAF_clean_linker_0, # of connection points: 3
#     Node 4, Type 0, BuildingBlock: MIDCAF_clean_linker_0, # of connection points: 3
#     Node 5, Type 0, BuildingBlock: MIDCAF_clean_linker_0, # of connection points: 3
#     Node 6, Type 0, BuildingBlock: MIDCAF_clean_linker_0, # of connection points: 3
#     Node 7, Type 0, BuildingBlock: MIDCAF_clean_linker_0, # of connection points: 3
#     Node 8, Type 1, BuildingBlock: PAMTOO_clean_sbu_0, # of connection points: 6
#     Node 9, Type 1, BuildingBlock: PAMTOO_clean_sbu_0, # of connection points: 6
#     Node 10, Type 1, BuildingBlock: PAMTOO_clean_sbu_0, # of connection points: 6
#     Node 11, Type 1, BuildingBlock: PAMTOO_clean_sbu_0, # of connection points: 6
#     Edge 12, Type (0, 1), BuildingBlock: CIFDUS_clean_linker_0, # of connection points: 2
#     Edge 13, Type (0, 1), BuildingBlock: CIFDUS_clean_linker_0, # of connection points: 2
#     Edge 14, Type (0, 1), BuildingBlock: CIFDUS_clean_linker_0, # of connection points: 2
#     Edge 15, Type (0, 1), BuildingBlock: CIFDUS_clean_linker_0, # of connection points: 2
#     Edge 16, Type (0, 1), BuildingBlock: CIFDUS_clean_linker_0, # of connection points: 2
#     Edge 17, Type (0, 1), BuildingBlock: CIFDUS_clean_linker_0, # of connection points: 2
#     Edge 18, Type (0, 1), BuildingBlock: CIFDUS_clean_linker_0, # of connection points: 2
#     Edge 19, Type (0, 1), BuildingBlock: CIFDUS_clean_linker_0, # of connection points: 2
#     Edge 20, Type (0, 1), BuildingBlock: CIFDUS_clean_linker_0, # of connection points: 2
#     Edge 21, Type (0, 1), BuildingBlock: CIFDUS_clean_linker_0, # of connection points: 2
#     Edge 22, Type (0, 1), BuildingBlock: CIFDUS_clean_linker_0, # of connection points: 2
#     Edge 23, Type (0, 1), BuildingBlock: CIFDUS_clean_linker_0, # of connection points: 2
#     Edge 24, Type (0, 1), BuildingBlock: CIFDUS_clean_linker_0, # of connection points: 2
#     Edge 25, Type (0, 1), BuildingBlock: CIFDUS_clean_linker_0, # of connection points: 2
#     Edge 26, Type (0, 1), BuildingBlock: CIFDUS_clean_linker_0, # of connection points: 2
#     Edge 27, Type (0, 1), BuildingBlock: CIFDUS_clean_linker_0, # of connection points: 2
#     Edge 28, Type (0, 1), BuildingBlock: CIFDUS_clean_linker_0, # of connection points: 2
#     Edge 29, Type (0, 1), BuildingBlock: CIFDUS_clean_linker_0, # of connection points: 2
#     Edge 30, Type (0, 1), BuildingBlock: CIFDUS_clean_linker_0, # of connection points: 2
#     Edge 31, Type (0, 1), BuildingBlock: CIFDUS_clean_linker_0, # of connection points: 2
#     Edge 32, Type (0, 1), BuildingBlock: CIFDUS_clean_linker_0, # of connection points: 2
#     Edge 33, Type (0, 1), BuildingBlock: CIFDUS_clean_linker_0, # of connection points: 2
#     Edge 34, Type (0, 1), BuildingBlock: CIFDUS_clean_linker_0, # of connection points: 2
#     Edge 35, Type (0, 1), BuildingBlock: CIFDUS_clean_linker_0, # of connection points: 2
# Relax obj value: 0.366
# Max RMSD: 0.282
# Mean RMSD: 0.222
data_MOF--net-zzz--node1-PAMTOO_clean_sbu_0--node2-MIDCAF_clean_linker_0--edge1-CIFDUS_clean_linker_0
_symmetry_space_group_name_H-M    P1
_symmetry_Int_Tables_number       1
_symmetry_cell_setting            triclinic
loop_
_symmetry_equiv_pos_as_xyz
'x, y, z'
_cell_length_a     56.972774
_cell_length_b     49.46135
_cell_length_c     18.724874
_cell_angle_alpha  92.213879
_cell_angle_beta   81.778518
_cell_angle_gamma 83.896865
loop_
_atom_site_label
_atom_site_type_symbol
_atom_site_fract_x
_atom_site_fract_y
_atom_site_fract_z
_atom_type_partial_charge
C0 C 0.82039 0.55818 0.65028 0.0
C1 C 0.83349 0.53216 0.6427 0.0
C2 C 0.82392 0.51091 0.60793 0.0
C3 C 0.80293 0.51605 0.57703 0.0
H4 H 0.69803 0.5739 0.47006 0.0
H5 H 0.66581 0.55928 0.41072 0.0
H6 H 0.70318 0.47812 0.3756 0.0
H7 H 0.73559 0.49313 0.43528 0.0
H8 H 0.76157 0.5649 0.28006 0.0
H9 H 0.79138 0.56016 0.1741 0.0
H10 H 0.84058 0.59627 0.29464 0.0
H11 H 0.81093 0.59938 0.40287 0.0
H12 H 0.79114 0.58405 0.62028 0.0
H13 H 0.82665 0.57495 0.67823 0.0
H14 H 0.83345 0.49065 0.60014 0.0
H15 H 0.79713 0.49981 0.54568 0.0
N16 N 0.75419 0.5392 0.52304 0.0
N17 N 0.75032 0.56175 0.41609 0.0
N18 N 0.78359 0.56594 0.47322 0.0
C19 C 0.74134 0.54597 0.46857 0.0
C20 C 0.7715 0.57163 0.41749 0.0
C21 C 0.77515 0.55009 0.52629 0.0
C22 C 0.71905 0.53452 0.45862 0.0
C23 C 0.69879 0.55262 0.45275 0.0
C24 C 0.68037 0.54422 0.4182 0.0
C25 C 0.68194 0.51755 0.38746 0.0
C26 C 0.7015 0.49889 0.39789 0.0
C27 C 0.71986 0.50729 0.43327 0.0
C28 C 0.78435 0.5812 0.35073 0.0
C29 C 0.77839 0.57282 0.28369 0.0
C30 C 0.79562 0.57018 0.22228 0.0
C31 C 0.81889 0.57651 0.2267 0.0
C32 C 0.8232 0.58992 0.29042 0.0
C33 C 0.80612 0.59198 0.35233 0.0
C34 C 0.79112 0.54253 0.57974 0.0
C35 C 0.79969 0.56333 0.61843 0.0
C36 C 0.9673 0.80488 0.5078 0.0
C37 C 0.97449 0.80812 0.57621 0.0
C38 C 0.98471 0.78496 0.60687 0.0
C39 C 0.99013 0.76004 0.56679 0.0
H40 H 0.96263 0.69096 0.32521 0.0
H41 H 0.9554 0.65512 0.23881 0.0
H42 H 0.02366 0.61137 0.2583 0.0
H43 H 0.03092 0.64701 0.34322 0.0
H44 H 0.0599 0.70644 0.23289 0.0
H45 H 0.08515 0.73171 0.15001 0.0
H46 H 0.08412 0.79386 0.31919 0.0
H47 H 0.05923 0.7686 0.40224 0.0
H48 H 0.96911 0.77871 0.41262 0.0
H49 H 0.95956 0.82222 0.48216 0.0
H50 H 0.99006 0.78656 0.65996 0.0
H51 H 1.00021 0.74335 0.58881 0.0
N52 N 0.99125 0.71391 0.42155 0.0
N53 N 0.02751 0.70291 0.34302 0.0
N54 N 0.02153 0.74297 0.41609 0.0
C55 C 1.00562 0.69642 0.37138 0.0
C56 C 0.03558 0.72617 0.36484 0.0
C57 C 0.99964 0.737 0.44505 0.0
C58 C 0.99743 0.67182 0.34021 0.0
C59 C 0.97556 0.67308 0.31329 0.0
C60 C 0.97146 0.65264 0.26375 0.0
C61 C 0.98918 0.63077 0.24099 0.0
C62 C 1.00985 0.6282 0.27415 0.0
C63 C 1.01396 0.64854 0.32295 0.0
C64 C 0.05686 0.73601 0.32351 0.0
C65 C 0.0658 0.72495 0.25334 0.0
C66 C 0.08024 0.73944 0.20567 0.0
C67 C 0.08608 0.76508 0.22758 0.0
C68 C 0.07989 0.77421 0.3005 0.0
C69 C 0.06539 0.7598 0.34805 0.0
C70 C 0.98503 0.75764 0.49592 0.0
C71 C 0.9726 0.77987 0.468 0.0
C72 C 0.72058 0.0227 0.58864 0.0
C73 C 0.70857 0.99953 0.58132 0.0
C74 C 0.71881 0.97918 0.5276 0.0
C75 C 0.73936 0.98295 0.4792 0.0
H76 H 0.83996 1.00295 0.36821 0.0
H77 H 0.87897 0.99356 0.29091 0.0
H78 H 0.84325 0.98245 0.10524 0.0
H79 H 0.80475 0.99248 0.18171 0.0
H80 H 0.76629 0.05066 0.17653 0.0
H81 H 0.73524 0.07363 0.11639 0.0
H82 H 0.69926 0.10987 0.32195 0.0
H83 H 0.72997 0.08633 0.38238 0.0
H84 H 0.74837 0.04571 0.54341 0.0
H85 H 0.71327 0.03899 0.62849 0.0
H86 H 0.7103 0.96089 0.52077 0.0
H87 H 0.74558 0.96803 0.43483 0.0
N88 N 0.78572 1.003 0.38518 0.0
N89 N 0.78502 0.0326 0.28935 0.0
N90 N 0.75402 0.03774 0.38635 0.0
C91 C 0.79626 0.01159 0.32073 0.0
C92 C 0.76407 0.04594 0.32223 0.0
C93 C 0.76438 0.01641 0.41814 0.0
C94 C 0.81932 0.99838 0.281 0.0
C95 C 0.84057 0.99757 0.3113 0.0
C96 C 0.86291 0.99236 0.26682 0.0
C97 C 0.86433 0.98786 0.19134 0.0
C98 C 0.84294 0.98654 0.16263 0.0
C99 C 0.82082 0.99194 0.20665 0.0
C100 C 0.75015 0.06612 0.28432 0.0
C101 C 0.75223 0.0643 0.20858 0.0
C102 C 0.73445 0.07757 0.17404 0.0
C103 C 0.71451 0.09299 0.21479 0.0
C104 C 0.71415 0.09757 0.28946 0.0
C105 C 0.73174 0.08412 0.324 0.0
C106 C 0.75008 0.00717 0.48328 0.0
C107 C 0.74091 0.02652 0.54008 0.0
C108 C 0.53468 0.64898 0.09267 0.0
C109 C 0.51948 0.65636 0.04205 0.0
C110 C 0.5129 0.68416 0.0336 0.0
C111 C 0.52047 0.70407 0.07741 0.0
H112 H 0.5174 0.80936 0.25777 0.0
H113 H 0.51868 0.85102 0.19047 0.0
H114 H 0.58412 0.81552 0.05949 0.0
H115 H 0.58235 0.77404 0.1253 0.0
H116 H 0.50574 0.73079 0.41283 0.0
H117 H 0.49958 0.69593 0.50061 0.0
H118 H 0.57327 0.66228 0.44241 0.0
H119 H 0.57927 0.69736 0.35574 0.0
H120 H 0.55296 0.66235 0.1771 0.0
H121 H 0.54081 0.62783 0.09886 0.0
H122 H 0.5012 0.69052 0.99512 0.0
H123 H 0.51442 0.7253 0.07195 0.0
N124 N 0.54221 0.74252 0.16835 0.0
N125 N 0.54604 0.75375 0.28964 0.0
N126 N 0.54019 0.70922 0.25316 0.0
C127 C 0.54573 0.76114 0.21998 0.0
C128 C 0.54339 0.7274 0.30568 0.0
C129 C 0.53941 0.71656 0.18483 0.0
C130 C 0.54988 0.78866 0.19693 0.0
C131 C 0.53247 0.81102 0.21639 0.0
C132 C 0.53317 0.83477 0.17753 0.0
C133 C 0.55127 0.83642 0.11854 0.0
C134 C 0.56965 0.81476 0.10344 0.0
C135 C 0.56883 0.79112 0.14172 0.0
C136 C 0.5431 0.71712 0.37853 0.0
C137 C 0.52094 0.71698 0.4222 0.0
C138 C 0.51731 0.69658 0.47129 0.0
C139 C 0.53578 0.67585 0.47745 0.0
C140 C 0.55864 0.67789 0.43949 0.0
C141 C 0.5622 0.69824 0.3903 0.0
C142 C 0.53445 0.69641 0.13081 0.0
C143 C 0.54187 0.66876 0.13701 0.0
C144 C 0.20637 0.48922 0.87373 0.0
C145 C 0.19604 0.46707 0.84655 0.0
C146 C 0.2083 0.44084 0.84588 0.0
C147 C 0.22889 0.43646 0.8785 0.0
H148 H 0.32753 0.446 0.98723 0.0
H149 H 0.36206 0.45389 0.04676 0.0
H150 H 0.31537 0.50367 0.21504 0.0
H151 H 0.28142 0.4962 0.15457 0.0
H152 H 0.24912 0.44621 0.23136 0.0
H153 H 0.21328 0.45322 0.31812 0.0
H154 H 0.17664 0.4075 0.17578 0.0
H155 H 0.21254 0.40182 0.08643 0.0
H156 H 0.23309 0.50183 0.93438 0.0
H157 H 0.19728 0.50967 0.87532 0.0
H158 H 0.20097 0.42339 0.82475 0.0
H159 H 0.23651 0.41569 0.88318 0.0
N160 N 0.27144 0.46323 0.98446 0.0
N161 N 0.26916 0.44444 0.09884 0.0
N162 N 0.24044 0.43718 0.02558 0.0
C163 C 0.28073 0.45874 0.04718 0.0
C164 C 0.2491 0.43345 0.08842 0.0
C165 C 0.25122 0.45187 0.97348 0.0
C166 C 0.30188 0.47087 0.06563 0.0
C167 C 0.32496 0.4597 0.03494 0.0
C168 C 0.34465 0.46384 0.06999 0.0
C169 C 0.3416 0.47912 0.13663 0.0
C170 C 0.31866 0.49205 0.16371 0.0
C171 C 0.29911 0.48787 0.12883 0.0
C172 C 0.23318 0.42482 0.15051 0.0
C173 C 0.2338 0.43655 0.2196 0.0
C174 C 0.21305 0.44051 0.26992 0.0
C175 C 0.1916 0.43227 0.25212 0.0
C176 C 0.19258 0.4153 0.18948 0.0
C177 C 0.21322 0.41184 0.13848 0.0
C178 C 0.23779 0.45816 0.91278 0.0
C179 C 0.22706 0.48478 0.90684 0.0
C180 C 0.02545 0.22801 0.95143 0.0
C181 C 0.04245 0.20877 0.90982 0.0
C182 C 0.06671 0.21246 0.90475 0.0
C183 C 0.07403 0.23307 0.94646 0.0
H184 H 0.01956 0.32268 0.18397 0.0
H185 H 1.00687 0.36099 0.27334 0.0
H186 H 0.08043 0.37542 0.27012 0.0
H187 H 0.09291 0.33718 0.18189 0.0
H188 H 0.08516 0.26429 0.30346 0.0
H189 H 0.08116 0.22857 0.38856 0.0
H190 H 0.09996 0.16753 0.21311 0.0
H191 H 0.10385 0.20311 0.12728 0.0
H192 H 0.0196 0.26164 0.03079 0.0
H193 H 1.00663 0.22555 0.95645 0.0
H194 H 0.08016 0.19808 0.87259 0.0
H195 H 0.09299 0.23383 0.9463 0.0
N196 N 0.05795 0.28979 0.08184 0.0
N197 N 0.07885 0.2828 0.18071 0.0
N198 N 0.07913 0.24725 0.09527 0.0
C199 C 0.06543 0.29965 0.14298 0.0
C200 C 0.08561 0.25648 0.15767 0.0
C201 C 0.06559 0.26356 0.05675 0.0
C202 C 0.05717 0.32723 0.17568 0.0
C203 C 0.03283 0.33485 0.20014 0.0
C204 C 0.02564 0.3565 0.25199 0.0
C205 C 0.04269 0.37105 0.2794 0.0
C206 C 0.06684 0.36481 0.24988 0.0
C207 C 0.07401 0.34297 0.19913 0.0
C208 C 0.09382 0.23652 0.20824 0.0
C209 C 0.08957 0.24331 0.28297 0.0
C210 C 0.08728 0.22287 0.33197 0.0
C211 C 0.08964 0.19547 0.3069 0.0
C212 C 0.0979 0.18857 0.2336 0.0
C213 C 0.09999 0.20901 0.18444 0.0
C214 C 0.05729 0.25051 0.99411 0.0
C215 C 0.03285 0.24879 0.9935 0.0
C216 C 0.32413 0.99846 0.05654 0.0
C217 C 0.33517 0.02114 0.03049 0.0
C218 C 0.32296 0.04725 0.04996 0.0
C219 C 0.30159 0.05067 0.09861 0.0
H220 H 0.19725 0.06057 0.29 0.0
H221 H 0.16015 0.05192 0.36455 0.0
H222 H 0.19058 0.96961 0.38802 0.0
H223 H 0.22761 0.97849 0.31347 0.0
H224 H 0.25625 0.03932 0.46594 0.0
H225 H 0.28158 0.03455 0.56008 0.0
H226 H 0.34065 0.0573 0.41126 0.0
H227 H 0.3153 0.06326 0.31953 0.0
H228 H 0.29567 0.98421 0.1286 0.0
H229 H 0.33291 0.978 0.04364 0.0
H230 H 0.33039 0.06525 0.03001 0.0
H231 H 0.29376 0.07114 0.11687 0.0
N232 N 0.25251 0.02463 0.20855 0.0
N233 N 0.24925 0.03807 0.33223 0.0
N234 N 0.28432 0.04247 0.25475 0.0
C235 C 0.23936 0.02823 0.2763 0.0
C236 C 0.2717 0.04521 0.32202 0.0
C237 C 0.27511 0.03239 0.19787 0.0
C238 C 0.21509 0.01997 0.2942 0.0
C239 C 0.1955 0.04023 0.30797 0.0
C240 C 0.17431 0.03532 0.35141 0.0
C241 C 0.17242 0.01017 0.38332 0.0
C242 C 0.19148 0.98932 0.36515 0.0
C243 C 0.21255 0.99419 0.32123 0.0
C244 C 0.28403 0.05072 0.3844 0.0
C245 C 0.27442 0.0443 0.45432 0.0
C246 C 0.28899 0.04134 0.5082 0.0
C247 C 0.31338 0.04467 0.49286 0.0
C248 C 0.32202 0.0545 0.42569 0.0
C249 C 0.30746 0.05766 0.3723 0.0
C250 C 0.29147 0.02814 0.12823 0.0
C251 C 0.30255 1.00194 0.10484 0.0
C252 C 0.55276 0.33563 0.34354 0.0
C253 C 0.5671 0.32829 0.39657 0.0
C254 C 0.57294 0.3004 0.40631 0.0
C255 C 0.56356 0.28053 0.36697 0.0
H256 H 0.54725 0.20183 0.36921 0.0
H257 H 0.54029 0.16259 0.43876 0.0
H258 H 0.48015 0.14953 0.33065 0.0
H259 H 0.48708 0.18968 0.25953 0.0
H260 H 0.46911 0.27523 0.16748 0.0
H261 H 0.45872 0.30877 0.08109 0.0
H262 H 0.53214 0.2983 0.97624 0.0
H263 H 0.54163 0.26408 0.05924 0.0
H264 H 0.53227 0.32252 0.26482 0.0
H265 H 0.5472 0.35673 0.33526 0.0
H266 H 0.58426 0.29386 0.44565 0.0
H267 H 0.56775 0.2593 0.37718 0.0
N268 N 0.53337 0.24348 0.30615 0.0
N269 N 0.51113 0.23278 0.21391 0.0
N270 N 0.52748 0.27446 0.21816 0.0
C271 C 0.52073 0.2257 0.27467 0.0
C272 C 0.51488 0.25729 0.18539 0.0
C273 C 0.53671 0.26788 0.27847 0.0
C274 C 0.51746 0.19941 0.30938 0.0
C275 C 0.5325 0.19078 0.35958 0.0
C276 C 0.5285 0.16818 0.39984 0.0
C277 C 0.50936 0.15327 0.39149 0.0
C278 C 0.49498 0.16075 0.33855 0.0
C279 C 0.49897 0.1837 0.29787 0.0
C280 C 0.50608 0.26672 0.11923 0.0
C281 C 0.48254 0.27899 0.12299 0.0
C282 C 0.47681 0.2988 0.07444 0.0
C283 C 0.49464 0.3071 0.02206 0.0
C284 C 0.51765 0.29266 0.01455 0.0
C285 C 0.52319 0.27271 0.0622 0.0
C286 C 0.54858 0.28816 0.31601 0.0
C287 C 0.54388 0.31586 0.3034 0.0
Dy288 Dy 0.99528 0.01594 0.71693 0.0
Dy289 Dy 0.03141 0.99069 0.82459 0.0
C290 C 0.0516 0.00679 0.66411 0.0
O291 O 0.9888 0.97205 0.72392 0.0
O292 O 0.02515 0.95588 0.75341 0.0
O293 O 0.98146 0.01464 0.61536 0.0
O294 O 0.96756 0.04671 0.69692 0.0
O295 O 0.99441 0.98496 0.88024 0.0
O296 O 0.97341 0.01827 0.82579 0.0
O297 O 0.02469 0.03497 0.85604 0.0
O298 O 1.01453 0.05072 0.74981 0.0
O299 O 0.03945 0.98076 0.93087 0.0
O300 O 0.06644 0.97217 0.83678 0.0
C301 C 1.0052 0.95174 0.72951 0.0
O302 O 0.03032 0.00545 0.64625 0.0
O303 O 0.0551 0.0064 0.73202 0.0
C304 C 0.97656 0.0598 0.57759 0.0
C305 C 0.99884 0.10035 0.50072 0.0
C306 C 1.0042 0.07281 0.47682 0.0
C307 C 0.99319 0.05272 0.51485 0.0
C308 C 0.96971 0.08748 0.59773 0.0
C309 C 0.98085 0.10755 0.56002 0.0
C310 C 0.9698 0.03892 0.62868 0.0
C311 C 0.97467 1.00115 0.87728 0.0
C312 C 0.02166 0.05484 0.81266 0.0
C313 C 0.0668 0.94136 0.92934 0.0
C314 C 0.07751 0.88889 0.97798 0.0
C315 C 0.0726 0.89223 0.90712 0.0
C316 C 0.06716 0.91821 0.88316 0.0
C317 C 0.07214 0.9382 0.99942 0.0
C318 C 0.07739 0.9122 0.02368 0.0
C319 C 0.06066 0.96882 0.90542 0.0
H320 H 1.01751 0.06667 0.4301 0.0
H321 H 0.99874 0.0316 0.49727 0.0
H322 H 0.95688 0.09358 0.64561 0.0
H323 H 0.97629 0.12856 0.58001 0.0
H324 H 0.07276 0.87476 0.8703 0.0
H325 H 0.06307 0.92018 0.82873 0.0
H326 H 0.07188 0.95584 0.03582 0.0
H327 H 0.0806 0.9104 0.079 0.0
Dy328 Dy 0.51515 0.9859 0.74354 0.0
Dy329 Dy 0.52763 0.03282 0.85494 0.0
C330 C 0.51104 0.04825 0.70355 0.0
O331 O 0.5528 0.99285 0.70306 0.0
O332 O 0.56361 0.01132 0.80625 0.0
O333 O 0.51486 0.96943 0.63523 0.0
O334 O 0.50105 0.94764 0.72706 0.0
O335 O 0.52602 0.9953 0.91769 0.0
O336 O 0.53426 0.96324 0.82343 0.0
O337 O 0.48767 0.03874 0.86178 0.0
O338 O 0.48193 0.99576 0.82417 0.0
O339 O 0.52282 0.05298 0.96124 0.0
O340 O 0.54479 0.06887 0.87203 0.0
C341 C 0.56928 1.00013 0.7401 0.0
O342 O 0.50154 0.02529 0.69929 0.0
O343 O 0.52518 0.05251 0.75115 0.0
C344 C 0.47746 0.95385 0.6337 0.0
C345 C 0.4335 0.97794 0.6022 0.0
C346 C 0.45379 0.97518 0.54906 0.0
C347 C 0.47557 0.96301 0.56449 0.0
C348 C 0.45652 0.95391 0.684 0.0
C349 C 0.43469 0.96589 0.66828 0.0
C350 C 0.50104 0.95119 0.65836 0.0
C351 C 0.53225 0.96998 0.89281 0.0
C352 C 0.47363 0.01949 0.85694 0.0
C353 C 0.55547 0.07567 0.98717 0.0
C354 C 0.59154 0.08538 0.06963 0.0
C355 C 0.58214 0.06021 0.07089 0.0
C356 C 0.56432 0.05532 0.02964 0.0
C357 C 0.56462 0.1009 0.98653 0.0
C358 C 0.5826 0.10571 0.02721 0.0
C359 C 0.53736 0.07086 0.94125 0.0
H360 H 0.45308 0.98383 0.49702 0.0
H361 H 0.49134 0.96303 0.52455 0.0
H362 H 0.45725 0.94686 0.73776 0.0
H363 H 0.4192 0.96761 0.70986 0.0
H364 H 0.58899 0.04407 0.10239 0.0
H365 H 0.55769 0.03558 0.0303 0.0
H366 H 0.55801 0.1168 0.95386 0.0
H367 H 0.5895 0.12529 0.02562 0.0
Dy368 Dy 0.54336 0.48954 0.78843 0.0
Dy369 Dy 0.49436 0.4885 0.7044 0.0
C370 C 0.51006 0.4414 0.8053 0.0
O371 O 0.55851 0.47517 0.67556 0.0
O372 O 0.52423 0.46238 0.63643 0.0
O373 O 0.57581 0.47139 0.82406 0.0
O374 O 0.56206 0.51327 0.85643 0.0
O375 O 0.51523 0.51894 0.64595 0.0
O376 O 0.5393 0.52841 0.73123 0.0
O377 O 0.48782 0.52141 0.79182 0.0
O378 O 0.50999 0.49897 0.86666 0.0
O379 O 0.46215 0.50866 0.67255 0.0
O380 O 0.47087 0.46517 0.6518 0.0
C381 C 0.54755 0.46234 0.62968 0.0
O382 O 0.53207 0.4477 0.79469 0.0
O383 O 0.49193 0.45833 0.79185 0.0
C384 C 0.58704 0.49022 0.93338 0.0
C385 C 0.61128 0.4882 0.05618 0.0
C386 C 0.59586 0.51137 0.04527 0.0
C387 C 0.58397 0.5124 0.98459 0.0
C388 C 0.60156 0.4666 0.94606 0.0
C389 C 0.61342 0.46556 1.00673 0.0
C390 C 0.57838 0.49322 0.86234 0.0
C391 C 0.52959 0.53445 0.67318 0.0
C392 C 0.49445 0.51919 0.85563 0.0
C393 C 0.44709 0.48821 0.57245 0.0
C394 C 0.42398 0.49238 0.44768 0.0
C395 C 0.43594 0.51385 0.47122 0.0
C396 C 0.44735 0.51181 0.53285 0.0
C397 C 0.43578 0.46651 0.54784 0.0
C398 C 0.42444 0.46851 0.48629 0.0
C399 C 0.45635 0.48654 0.64273 0.0
H400 H 0.59392 0.52932 0.08152 0.0
H401 H 0.57323 0.53111 0.97621 0.0
H402 H 0.60456 0.44923 0.90753 0.0
H403 H 0.62482 0.4472 0.0138 0.0
H404 H 0.43625 0.53242 0.44247 0.0
H405 H 0.45588 0.52894 0.55028 0.0
H406 H 0.43506 0.4482 0.57767 0.0
H407 H 0.41518 0.4517 0.47075 0.0
Dy408 Dy 0.02278 0.54257 0.68615 0.0
Dy409 Dy 1.01005 0.49054 0.78064 0.0
C410 C 0.02767 0.48166 0.61094 0.0
O411 O 0.98303 0.54819 0.71724 0.0
O412 O 0.97838 0.50321 0.7261 0.0
O413 O 1.01616 0.56866 0.59943 0.0
O414 O 0.04218 0.57749 0.66774 0.0
O415 O 0.99679 0.52845 0.85127 0.0
O416 O 0.02436 0.55473 0.8005 0.0
O417 O 0.04879 0.49358 0.78705 0.0
O418 O 0.0583 0.51861 0.68824 0.0
O419 O 1.00894 0.47162 0.88312 0.0
O420 O 0.99425 0.45288 0.79581 0.0
C421 C 0.96953 0.52825 0.71753 0.0
O422 O 0.02355 0.50806 0.6048 0.0
O423 O 0.02696 0.47066 0.67393 0.0
C424 C 0.05443 0.57638 0.54257 0.0
C425 C 0.09362 0.54489 0.46029 0.0
C426 C 0.0706 0.54424 0.44199 0.0
C427 C 0.05119 0.56009 0.4823 0.0
C428 C 0.07778 0.58056 0.55267 0.0
C429 C 0.09726 0.5648 0.51198 0.0
C430 C 0.03514 0.58081 0.605 0.0
C431 C 1.0094 0.54895 0.85599 0.0
C432 C 0.06469 0.50358 0.74019 0.0
C433 C 0.97063 0.45915 0.90995 0.0
C434 C 0.9301 0.48261 1.00529 0.0
C435 C 0.93301 0.4882 0.93173 0.0
C436 C 0.95277 0.47634 0.88483 0.0
C437 C 0.96729 0.45194 0.98198 0.0
C438 C 0.94695 0.46326 0.02915 0.0
C439 C 0.99427 0.45485 0.86553 0.0
H440 H 0.06705 0.52954 0.4017 0.0
H441 H 0.03347 0.55689 0.4716 0.0
H442 H 0.08088 0.59351 0.59759 0.0
H443 H 0.11495 0.5667 0.52504 0.0
H444 H 0.92106 0.50325 0.91043 0.0
H445 H 0.95498 0.48251 0.8299 0.0
H446 H 0.98097 0.4389 1.0027 0.0
H447 H 0.94507 0.45774 0.08486 0.0
H448 H 0.1245 0.0259 0.38556 0.0
H449 H 0.17452 0.98719 0.51285 0.0
H450 H 0.14213 0.98331 0.61102 0.0
H451 H 0.09937 0.99131 0.66238 0.0
H452 H 0.04913 0.02841 0.53334 0.0
H453 H 0.08158 0.03279 0.43559 0.0
C454 C 0.1283 0.01659 0.43474 0.0
C455 C 0.15202 0.00671 0.44119 0.0
C456 C 0.10946 0.01427 0.49132 0.0
C457 C 0.15648 0.99457 0.50547 0.0
C458 C 0.13794 0.99253 0.56212 0.0
C459 C 0.09556 1.00042 0.61295 0.0
C460 C 0.07179 0.00956 0.60557 0.0
C461 C 0.11434 1.00237 0.55591 0.0
C462 C 0.06719 0.02106 0.54063 0.0
C463 C 0.08578 0.02361 0.48452 0.0
H464 H 0.50646 0.15596 0.5365 0.0
H465 H 0.50123 0.10051 0.35789 0.0
H466 H 0.49873 0.06289 0.43993 0.0
H467 H 0.50222 0.0451 0.56195 0.0
H468 H 0.50906 0.10194 0.73661 0.0
H469 H 0.50668 0.13946 0.65706 0.0
C470 C 0.50463 0.13565 0.51548 0.0
C471 C 0.50439 0.13097 0.44106 0.0
C472 C 0.50366 0.11425 0.56248 0.0
C473 C 0.50149 0.10466 0.41497 0.0
C474 C 0.50022 0.08313 0.46187 0.0
C475 C 0.50279 0.06577 0.5826 0.0
C476 C 0.50609 0.07062 0.65511 0.0
C477 C 0.50188 0.08753 0.53566 0.0
C478 C 0.50686 0.09753 0.68097 0.0
C479 C 0.50548 0.11908 0.63549 0.0
H480 H 0.35221 0.52067 0.22449 0.0
H481 H 0.37505 0.43667 0.15377 0.0
H482 H 0.40356 0.43396 0.23926 0.0
H483 H 0.41995 0.45414 0.34114 0.0
H484 H 0.39577 0.53743 0.41588 0.0
H485 H 0.37007 0.54156 0.32233 0.0
C486 C 0.36344 0.50176 0.2275 0.0
C487 C 0.36124 0.47891 0.18232 0.0
C488 C 0.37956 0.50008 0.27822 0.0
C489 C 0.3764 0.45478 0.18661 0.0
C490 C 0.39261 0.45307 0.2363 0.0
C491 C 0.40907 0.47322 0.33706 0.0
C492 C 0.40984 0.49537 0.38618 0.0
C493 C 0.394 0.4754 0.28347 0.0
C494 C 0.39586 0.52007 0.37875 0.0
C495 C 0.38096 0.52241 0.32541 0.0
H496 H 0.0571 0.42128 0.30223 0.0
H497 H 1.01368 0.3631 0.40374 0.0
H498 H 1.00587 0.39154 0.51594 0.0
H499 H 1.01233 0.43241 0.58697 0.0
H500 H 0.0542 0.49159 0.48438 0.0
H501 H 0.06202 0.46327 0.37157 0.0
C502 C 0.04581 0.41495 0.34882 0.0
C503 C 0.03593 0.39012 0.3444 0.0
C504 C 0.04137 0.43145 0.41336 0.0
C505 C 0.02121 0.38228 0.40518 0.0
C506 C 1.01693 0.39841 0.46969 0.0
C507 C 0.02326 0.43895 0.53992 0.0
C508 C 0.03285 0.4639 0.54392 0.0
C509 C 0.02712 0.42288 0.47471 0.0
C510 C 0.04662 0.47246 0.48234 0.0
C511 C 0.05108 0.45628 0.41789 0.0
H512 H 0.87225 0.01243 0.06451 0.0
H513 H 0.90889 0.96209 0.20607 0.0
H514 H 0.94636 0.96127 0.12228 0.0
H515 H 0.96878 0.97491 1.0066 0.0
H516 H 0.93034 0.0256 0.86878 0.0
H517 H 0.89381 0.02575 0.95242 0.0
C518 C 0.88831 1.0009 0.0769 0.0
C519 C 0.88752 0.98703 0.14134 0.0
C520 C 0.90968 1.00056 0.0287 0.0
C521 C 0.90885 0.97298 0.15702 0.0
C522 C 0.93031 0.97243 0.10886 0.0
C523 C 0.9524 0.98592 0.99489 0.0
C524 C 0.95262 1.00025 0.9309 0.0
C525 C 0.93098 0.98614 0.04418 0.0
C526 C 0.93107 0.01446 0.91724 0.0
C527 C 0.90997 0.01458 0.96519 0.0
H528 H 0.53927 0.89136 0.15098 0.0
H529 H 0.55953 0.83213 0.97144 0.0
H530 H 0.55639 0.86792 0.88661 0.0
H531 H 0.5468 0.91584 0.86231 0.0
H532 H 0.52634 0.97553 0.04075 0.0
H533 H 0.53059 0.93994 0.12628 0.0
C534 C 0.54298 0.88632 0.09332 0.0
C535 C 0.54982 0.85901 0.06799 0.0
C536 C 0.54106 0.90713 0.04424 0.0
C537 C 0.55468 0.85294 0.99285 0.0
C538 C 0.55272 0.87342 0.94404 0.0
C539 C 0.54336 0.92116 0.91987 0.0
C540 C 0.53617 0.94842 0.94467 0.0
C541 C 0.54583 0.90056 0.969 0.0
C542 C 0.53189 0.95477 0.01972 0.0
C543 C 0.53427 0.93438 0.0689 0.0
H544 H 0.69164 0.4885 0.25767 0.0
H545 H 0.63335 0.53142 0.40542 0.0
H546 H 0.60614 0.52523 0.31779 0.0
H547 H 0.59934 0.50987 0.19598 0.0
H548 H 0.65813 0.46769 0.04835 0.0
H549 H 0.68435 0.47077 0.13954 0.0
C550 C 0.67289 0.49599 0.27154 0.0
C551 C 0.66467 0.51049 0.33831 0.0
C552 C 0.65734 0.49257 0.22056 0.0
C553 C 0.64031 0.52044 0.35433 0.0
C554 C 0.62469 0.51688 0.30416 0.0
C555 C 0.61787 0.50131 0.18373 0.0
C556 C 0.6266 0.48853 0.11494 0.0
C557 C 0.63309 0.50344 0.23645 0.0
C558 C 0.65067 0.47727 0.10081 0.0
C559 C 0.66582 0.47922 0.15291 0.0
H560 H 0.0229 0.62294 0.12481 0.0
H561 H 0.95355 0.60069 0.20806 0.0
H562 H 0.95358 0.57253 0.0966 0.0
H563 H 0.97388 0.55442 0.97426 0.0
H564 H 0.0426 0.5797 0.89334 0.0
H565 H 0.0423 0.60628 1.00507 0.0
C566 C 1.00786 0.6117 0.11889 0.0
C567 C 0.98844 0.61348 0.17485 0.0
C568 C 1.00789 0.59615 0.05483 0.0
C569 C 0.96878 0.59946 0.16573 0.0
C570 C 0.96883 0.58339 0.1021 0.0
C571 C 0.98874 0.56576 0.98132 0.0
C572 C 1.00821 0.56506 0.92518 0.0
C573 C 0.98836 0.58157 0.04607 0.0
C574 C 0.02729 0.57998 0.93508 0.0
C575 C 0.02721 0.59518 0.99919 0.0
H576 H 0.04398 0.20145 0.36771 0.0
H577 H 0.10776 0.14456 0.34 0.0
H578 H 0.08511 0.10993 0.39941 0.0
H579 H 0.04677 0.09579 0.45475 0.0
H580 H 0.98263 0.1522 0.47179 0.0
H581 H 1.00595 0.18735 0.4214 0.0
C582 C 0.05302 0.18165 0.37624 0.0
C583 C 0.07753 0.1756 0.35125 0.0
C584 C 0.03977 0.16179 0.4076 0.0
C585 C 0.08895 0.14965 0.36005 0.0
C586 C 0.07598 0.1299 0.39341 0.0
C587 C 0.03782 0.11565 0.44655 0.0
C588 C 1.01293 0.12131 0.46695 0.0
C589 C 0.05129 0.13565 0.41631 0.0
C590 C 1.00175 0.14736 0.45735 0.0
C591 C 1.01506 0.16746 0.42834 0.0
H592 H 0.35447 0.06425 0.5194 0.0
H593 H 0.31157 0.99861 0.5694 0.0
H594 H 0.34453 0.97332 0.61604 0.0
H595 H 0.38756 0.96631 0.62307 0.0
H596 H 0.43145 0.02962 0.55901 0.0
H597 H 0.39647 0.05878 0.53468 0.0
C598 C 0.35223 0.04449 0.54091 0.0
C599 C 0.33066 0.03324 0.5393 0.0
C600 C 0.37176 0.02916 0.56298 0.0
C601 C 0.32785 0.00801 0.57001 0.0
C602 C 0.34688 0.99322 0.59566 0.0
C603 C 0.38932 0.98659 0.60442 0.0
C604 C 0.41197 0.99567 0.59124 0.0
C605 C 0.36922 1.00303 0.58915 0.0
C606 C 0.41417 0.02202 0.56763 0.0
C607 C 0.39419 0.03876 0.55436 0.0
H608 H 0.57677 0.38018 0.3667 0.0
H609 H 0.57065 0.32525 0.54087 0.0
H610 H 0.57055 0.36288 0.62794 0.0
H611 H 0.56316 0.41199 0.65686 0.0
H612 H 0.56108 0.46739 0.48575 0.0
H613 H 0.57321 0.42935 0.39531 0.0
C614 C 0.5755 0.37633 0.42364 0.0
C615 C 0.57308 0.34982 0.44678 0.0
C616 C 0.57368 0.3984 0.47422 0.0
C617 C 0.57256 0.34523 0.52072 0.0
C618 C 0.5722 0.36688 0.57102 0.0
C619 C 0.56621 0.41565 0.5997 0.0
C620 C 0.56159 0.44214 0.57728 0.0
C621 C 0.57147 0.39362 0.54867 0.0
C622 C 0.56496 0.44703 0.50356 0.0
C623 C 0.57162 0.42528 0.45216 0.0
H624 H 0.17799 0.44969 0.39434 0.0
H625 H 0.15347 0.45005 0.18624 0.0
H626 H 0.12097 0.48458 0.23267 0.0
H627 H 0.10271 0.51908 0.32623 0.0
H628 H 0.12698 0.51964 0.5345 0.0
H629 H 0.15729 0.48176 0.49218 0.0
C630 C 0.16541 0.4571 0.35932 0.0
C631 C 0.16852 0.44729 0.28666 0.0
C632 C 0.14726 0.47805 0.38524 0.0
C633 C 0.15158 0.45674 0.2427 0.0
C634 C 0.13314 0.477 0.26873 0.0
C635 C 0.11441 0.51079 0.36279 0.0
C636 C 0.11279 0.52266 0.43293 0.0
C637 C 0.13138 0.48852 0.33893 0.0
C638 C 0.1283 0.51162 0.47926 0.0
C639 C 0.14541 0.4896 0.45558 0.0
H640 H 0.06752 0.7747 0.10545 0.0
H641 H 0.11995 0.8006 0.23023 0.0
H642 H 0.12407 0.84023 0.15681 0.0
H643 H 0.10865 0.87034 0.06823 0.0
H644 H 0.05373 0.84534 0.95154 0.0
H645 H 0.05528 0.80211 0.0092 0.0
C646 C 0.08049 0.78846 0.11508 0.0
C647 C 0.09341 0.78475 0.17323 0.0
C648 C 0.08209 0.81156 0.07455 0.0
C649 C 0.10975 0.80312 0.18589 0.0
C650 C 0.11199 0.82583 0.14422 0.0
C651 C 0.09711 0.85537 0.05518 0.0
C652 C 0.08093 0.86128 1.00612 0.0
C653 C 0.09752 0.8308 0.09035 0.0
C654 C 0.0665 0.84137 0.98856 0.0
C655 C 0.06722 0.81666 0.02199 0.0
H656 H 0.66998 0.08475 0.27264 0.0
H657 H 0.70974 0.11408 0.0832 0.0
H658 H 0.6741 0.11655 0.02321 0.0
H659 H 0.63289 0.10583 0.02101 0.0
H660 H 0.59424 0.07476 0.20974 0.0
H661 H 0.62829 0.07778 0.27431 0.0
C662 C 0.67073 0.09249 0.21903 0.0
C663 C 0.69243 0.09938 0.18251 0.0
C664 C 0.65048 0.09318 0.18458 0.0
C665 C 0.69322 0.10862 0.11229 0.0
C666 C 0.6729 0.10996 0.07801 0.0
C667 C 0.63183 0.10022 0.07671 0.0
C668 C 0.61123 0.0899 0.11059 0.0
C669 C 0.65162 0.10159 0.11301 0.0
C670 C 0.61008 0.08241 0.18243 0.0
C671 C 0.62947 0.08421 0.21934 0.0
H672 H 0.5052 0.60867 0.0892 0.0
H673 H 0.51309 0.65582 0.89957 0.0
H674 H 0.50138 0.61859 0.82794 0.0
H675 H 0.49382 0.57096 0.81628 0.0
H676 H 0.49121 0.5219 1.00216 0.0
H677 H 0.49593 0.56167 0.07867 0.0
C678 C 0.50448 0.6108 0.0321 0.0
C679 C 0.51038 0.63486 0.99959 0.0
C680 C 0.49864 0.58899 0.9908 0.0
C681 C 0.50858 0.63759 0.92608 0.0
C682 C 0.50202 0.61625 0.88499 0.0
C683 C 0.49358 0.56917 0.87395 0.0
C684 C 0.49192 0.54372 0.90406 0.0
C685 C 0.49758 0.59166 0.91646 0.0
C686 C 0.49227 0.54143 0.97831 0.0
C687 C 0.49515 0.56406 0.02174 0.0
H688 H 0.86254 0.5549 0.25263 0.0
H689 H 0.82056 0.56803 0.0796 0.0
H690 H 0.85014 0.53771 0.99846 0.0
H691 H 0.88616 0.50537 0.97974 0.0
H692 H 0.93097 0.49788 0.14775 0.0
H693 H 0.90117 0.52741 0.22895 0.0
C694 C 0.86007 0.55202 0.19662 0.0
C695 C 0.8391 0.5637 0.17273 0.0
C696 C 0.87722 0.53485 0.15006 0.0
C697 C 0.83626 0.55901 0.10004 0.0
C698 C 0.85314 0.5416 0.05361 0.0
C699 C 0.88988 0.51053 0.03341 0.0
C700 C 0.91102 0.49904 0.05689 0.0
C701 C 0.8734 0.52896 0.07863 0.0
C702 C 0.91474 0.50555 0.12801 0.0
C703 C 0.89786 0.52293 0.17438 0.0
H704 H 0.05993 0.15869 0.93989 0.0
H705 H 1.00929 0.20018 0.81983 0.0
H706 H 0.9988 0.15608 0.77608 0.0
H707 H 1.00415 0.10528 0.77342 0.0
H708 H 0.05346 0.06535 0.90138 0.0
H709 H 0.06445 0.10917 0.94013 0.0
C710 C 0.04673 0.15807 0.9036 0.0
C711 C 0.03565 0.18256 0.88214 0.0
C712 C 0.04054 0.13286 0.88022 0.0
C713 C 1.01814 0.18153 0.83667 0.0
C714 C 1.01219 0.15634 0.8117 0.0
C715 C 1.01733 0.10626 0.80958 0.0
C716 C 0.02797 0.08201 0.83442 0.0
C717 C 0.02329 0.1318 0.8332 0.0
C718 C 0.04487 0.08362 0.88179 0.0
C719 C 0.05124 0.1087 0.90392 0.0
H720 H 0.37099 0.05385 0.03698 0.0
H721 H 0.3558 0.98056 0.92822 0.0
H722 H 0.39677 0.97373 0.86503 0.0
H723 H 0.43744 0.98793 0.84241 0.0
H724 H 0.45186 0.06207 0.94886 0.0
H725 H 0.41068 0.06931 0.00961 0.0
C726 C 0.37636 0.03659 0.99854 0.0
C727 C 0.35997 0.01777 0.98798 0.0
C728 C 0.4 0.03285 0.96177 0.0
C729 C 0.36784 0.99526 0.93874 0.0
C730 C 0.39135 0.99138 0.90213 0.0
C731 C 0.4316 0.00574 0.87873 0.0
C732 C 0.448 0.02434 0.89104 0.0
C733 C 0.40768 0.0099 0.91367 0.0
C734 C 0.43984 0.04737 0.93803 0.0
C735 C 0.41621 0.05152 0.97308 0.0
H736 H 0.51583 0.31893 0.88695 0.0
H737 H 0.46432 0.35384 0.06765 0.0
H738 H 0.46213 0.39749 0.01203 0.0
H739 H 0.47841 0.42769 0.91881 0.0
H740 H 0.5338 0.39367 0.74826 0.0
H741 H 0.53136 0.34831 0.79383 0.0
C742 C 0.50418 0.33599 0.91483 0.0
C743 C 0.49049 0.33266 0.9823 0.0
C744 C 0.50395 0.36162 0.88453 0.0
C745 C 0.47493 0.3552 0.01544 0.0
C746 C 0.47387 0.3805 0.98404 0.0
C747 C 0.48963 0.4102 0.89126 0.0
C748 C 0.50625 0.41394 0.83024 0.0
C749 C 0.48878 0.38419 0.91958 0.0
C750 C 0.52096 0.39126 0.79548 0.0
C751 C 0.51956 0.36531 0.82153 0.0
H752 H 0.17578 0.50225 0.75549 0.0
H753 H 0.15982 0.43934 0.90211 0.0
H754 H 0.11832 0.4445 0.88155 0.0
H755 H 0.08607 0.46746 0.82452 0.0
H756 H 0.10171 0.52915 0.67358 0.0
H757 H 0.14349 0.5237 0.69247 0.0
C758 C 0.16319 0.48966 0.78262 0.0
C759 C 0.171 0.47035 0.83009 0.0
C760 C 0.13918 0.49248 0.76973 0.0
C761 C 0.15443 0.45412 0.86466 0.0
C762 C 0.13061 0.45714 0.85318 0.0
C763 C 0.09859 0.47967 0.79546 0.0
C764 C 0.09053 0.49881 0.74803 0.0
C765 C 0.12272 0.4763 0.80611 0.0
C766 C 0.10724 0.51424 0.71048 0.0
C767 C 0.13122 0.51121 0.72146 0.0
H768 H 1.00963 0.82672 0.64157 0.0
H769 H 0.94034 0.85254 0.58423 0.0
H770 H 0.94338 0.89926 0.6274 0.0
H771 H 0.96669 0.93321 0.67712 0.0
H772 H 0.03593 0.90598 0.73375 0.0
H773 H 0.03166 0.85949 0.69617 0.0
C774 C 0.99486 0.84234 0.64 0.0
C775 C 0.97471 0.83594 0.60999 0.0
C776 C 0.9968 0.8691 0.66436 0.0
C777 C 0.95613 0.85682 0.60671 0.0
C778 C 0.95786 0.88357 0.63143 0.0
C779 C 0.9808 0.9171 0.68146 0.0
C780 C 1.00167 0.92334 0.70794 0.0
C781 C 0.97829 0.89006 0.65947 0.0
C782 C 0.0197 0.90204 0.71337 0.0
C783 C 1.0173 0.8753 0.6919 0.0
H784 H 0.66915 0.98126 0.53596 0.0
H785 H 0.69316 0.01544 0.72453 0.0
H786 H 0.65269 0.01824 0.79085 0.0
H787 H 0.60974 0.01291 0.79386 0.0
H788 H 0.58648 0.97825 0.60427 0.0
H789 H 0.62716 0.97348 0.54108 0.0
C790 C 0.66574 0.98881 0.59203 0.0
C791 C 0.68442 0.99817 0.62472 0.0
C792 C 0.64232 0.99048 0.62999 0.0
C793 C 0.67924 0.00836 0.69728 0.0
C794 C 0.65603 0.00993 0.73547 0.0
C795 C 0.61356 1.00415 0.73891 0.0
C796 C 0.59476 0.99612 0.70425 0.0
C797 C 0.63728 1.00143 0.7021 0.0
C798 C 0.60032 0.98477 0.63283 0.0
C799 C 0.62371 0.98199 0.59629 0.0
H800 H 0.56273 0.646 0.56362 0.0
H801 H 0.49727 0.64778 0.47212 0.0
H802 H 0.48988 0.60421 0.52225 0.0
H803 H 0.50234 0.56474 0.58982 0.0
H804 H 0.56733 0.56328 0.68361 0.0
H805 H 0.57466 0.60707 0.6341 0.0
C806 C 0.54682 0.6369 0.55483 0.0
C807 C 0.53054 0.65042 0.51442 0.0
C808 C 0.54268 0.61159 0.58358 0.0
C809 C 0.50992 0.63826 0.50411 0.0
C810 C 0.50578 0.61311 0.53213 0.0
C811 C 0.51821 0.57389 0.59892 0.0
C812 C 0.53437 0.56052 0.63983 0.0
C813 C 0.52212 0.59944 0.57144 0.0
C814 C 0.55461 0.573 0.65217 0.0
C815 C 0.55882 0.59812 0.62396 0.0
H816 H 0.86746 0.56776 0.63844 0.0
H817 H 0.85482 0.48647 0.69799 0.0
H818 H 0.89544 0.47818 0.72581 0.0
H819 H 0.93503 0.49339 0.72959 0.0
H820 H 0.9468 0.57555 0.67698 0.0
H821 H 0.90592 0.58411 0.65124 0.0
C822 C 0.87326 0.54837 0.65896 0.0
C823 C 0.85779 0.52777 0.66559 0.0
C824 C 0.89663 0.54381 0.67595 0.0
C825 C 0.86621 0.50263 0.69089 0.0
C826 C 0.88949 0.49789 0.70728 0.0
C827 C 0.92866 0.51329 0.71329 0.0
C828 C 0.94418 0.53377 0.70535 0.0
C829 C 0.90495 0.51822 0.69928 0.0
C830 C 0.93541 0.55936 0.68372 0.0
C831 C 0.91198 0.56428 0.66884 0.0
loop_
_geom_bond_atom_site_label_1
_geom_bond_atom_site_label_2
_geom_bond_distance
_geom_bond_site_symmetry_2
_ccdc_geom_bond_type
C0 C1 1.384 . S
C0 H13 0.947 . S
C0 C35 1.382 . S
C1 C0 1.384 . S
C1 C2 1.378 . S
C2 C1 1.378 . S
C2 C3 1.378 . S
C2 H14 0.952 . S
C3 C2 1.378 . S
C3 H15 0.950 . S
C3 C34 1.383 . S
H4 C23 0.947 . S
H5 C24 0.946 . S
H6 C26 0.953 . S
H7 C27 0.945 . S
H8 C29 0.952 . S
H9 C30 0.949 . S
H10 C32 0.950 . S
H11 C33 0.948 . S
H12 C35 0.951 . S
H13 C0 0.947 . S
H14 C2 0.952 . S
H15 C3 0.950 . S
N16 C19 1.382 . S
N16 C21 1.363 . S
N17 C19 1.371 . S
N17 C20 1.372 . S
N18 C20 1.361 . S
N18 C21 1.377 . S
C19 N16 1.382 . S
C19 N17 1.371 . S
C19 C22 1.480 . S
C20 N17 1.372 . S
C20 N18 1.361 . S
C20 C28 1.457 . S
C21 N16 1.363 . S
C21 N18 1.377 . S
C21 C34 1.479 . S
C22 C19 1.480 . S
C22 C23 1.383 . S
C22 C27 1.385 . S
C23 H4 0.947 . S
C23 C22 1.383 . S
C23 C24 1.388 . S
C24 H5 0.946 . S
C24 C23 1.388 . S
C24 C25 1.384 . S
C25 C24 1.384 . S
C25 C26 1.377 . S
C26 H6 0.953 . S
C26 C25 1.377 . S
C26 C27 1.369 . S
C27 H7 0.945 . S
C27 C22 1.385 . S
C27 C26 1.369 . S
C28 C20 1.457 . S
C28 C29 1.372 . S
C28 C33 1.364 . S
C29 H8 0.952 . S
C29 C28 1.372 . S
C29 C30 1.389 . S
C30 H9 0.949 . S
C30 C29 1.389 . S
C30 C31 1.387 . S
C31 C30 1.387 . S
C31 C32 1.372 . S
C32 H10 0.950 . S
C32 C31 1.372 . S
C32 C33 1.379 . S
C33 H11 0.948 . S
C33 C28 1.364 . S
C33 C32 1.379 . S
C34 C3 1.383 . S
C34 C21 1.479 . S
C34 C35 1.398 . S
C35 C0 1.382 . S
C35 H12 0.951 . S
C35 C34 1.398 . S
C36 C37 1.382 1_655 S
C36 H49 0.947 . S
C36 C71 1.375 . S
C37 C36 1.382 1_455 S
C37 C38 1.378 . S
C38 C37 1.378 . S
C38 C39 1.378 . S
C38 H50 0.952 . S
C39 C38 1.378 . S
C39 H51 0.950 . S
C39 C70 1.383 . S
H40 C59 0.960 . S
H41 C60 0.946 . S
H42 C62 0.953 . S
H43 C63 0.945 . S
H44 C65 0.958 . S
H45 C66 0.949 . S
H46 C68 0.950 . S
H47 C69 0.948 . S
H48 C71 0.959 . S
H49 C36 0.947 . S
H50 C38 0.952 . S
H51 C39 0.950 . S
N52 C55 1.382 . S
N52 C57 1.363 . S
N53 C55 1.371 . S
N53 C56 1.372 . S
N54 C56 1.361 . S
N54 C57 1.377 . S
C55 N52 1.382 . S
C55 N53 1.371 . S
C55 C58 1.480 . S
C56 N53 1.372 . S
C56 N54 1.361 . S
C56 C64 1.457 . S
C57 N52 1.363 . S
C57 N54 1.377 . S
C57 C70 1.479 . S
C58 C55 1.480 . S
C58 C59 1.386 . S
C58 C63 1.385 . S
C59 H40 0.960 . S
C59 C58 1.386 . S
C59 C60 1.377 1_455 S
C60 H41 0.946 . S
C60 C59 1.377 1_655 S
C60 C61 1.388 1_655 S
C61 C60 1.388 1_455 S
C61 C62 1.380 . S
C62 H42 0.953 . S
C62 C61 1.380 . S
C62 C63 1.369 . S
C63 H43 0.945 . S
C63 C58 1.385 . S
C63 C62 1.369 . S
C64 C56 1.457 . S
C64 C65 1.364 1_455 S
C64 C69 1.364 . S
C65 H44 0.958 . S
C65 C64 1.364 1_655 S
C65 C66 1.391 . S
C66 H45 0.949 . S
C66 C65 1.391 . S
C66 C67 1.378 1_655 S
C67 C66 1.378 1_455 S
C67 C68 1.385 . S
C68 H46 0.950 . S
C68 C67 1.385 . S
C68 C69 1.379 . S
C69 H47 0.948 . S
C69 C64 1.364 . S
C69 C68 1.379 . S
C70 C39 1.383 . S
C70 C57 1.479 . S
C70 C71 1.399 1_455 S
C71 C36 1.375 . S
C71 H48 0.959 . S
C71 C70 1.399 1_655 S
C72 C73 1.383 1_565 S
C72 H85 0.948 . S
C72 C107 1.381 1_565 S
C73 C72 1.383 1_545 S
C73 C74 1.378 . S
C74 C73 1.378 . S
C74 C75 1.378 . S
C74 H86 0.952 . S
C75 C74 1.378 . S
C75 H87 0.950 . S
C75 C106 1.383 . S
H76 C95 0.947 . S
H77 C96 0.951 . S
H78 C98 0.953 . S
H79 C99 0.945 . S
H80 C101 0.951 1_565 S
H81 C102 0.953 . S
H82 C104 0.950 . S
H83 C105 0.948 . S
H84 C107 0.951 1_565 S
H85 C72 0.948 . S
H86 C74 0.952 . S
H87 C75 0.950 . S
N88 C91 1.382 . S
N88 C93 1.363 . S
N89 C91 1.371 . S
N89 C92 1.372 . S
N90 C92 1.361 . S
N90 C93 1.377 . S
C91 N88 1.382 . S
C91 N89 1.371 . S
C91 C94 1.480 . S
C92 N89 1.372 . S
C92 N90 1.361 . S
C92 C100 1.457 . S
C93 N88 1.363 . S
C93 N90 1.377 . S
C93 C106 1.479 . S
C94 C91 1.480 . S
C94 C95 1.383 . S
C94 C99 1.385 . S
C95 H76 0.947 . S
C95 C94 1.383 . S
C95 C96 1.389 1_545 S
C96 H77 0.951 . S
C96 C95 1.389 1_565 S
C96 C97 1.379 1_565 S
C97 C96 1.379 1_545 S
C97 C98 1.377 . S
C98 H78 0.953 . S
C98 C97 1.377 . S
C98 C99 1.369 . S
C99 H79 0.945 . S
C99 C94 1.385 . S
C99 C98 1.369 . S
C100 C92 1.457 . S
C100 C101 1.375 . S
C100 C105 1.364 . S
C101 H80 0.951 1_545 S
C101 C100 1.375 . S
C101 C102 1.384 1_545 S
C102 H81 0.953 . S
C102 C101 1.384 1_565 S
C102 C103 1.387 1_565 S
C103 C102 1.387 1_545 S
C103 C104 1.372 . S
C104 H82 0.950 . S
C104 C103 1.372 . S
C104 C105 1.379 . S
C105 H83 0.948 . S
C105 C100 1.364 . S
C105 C104 1.379 . S
C106 C75 1.383 . S
C106 C93 1.479 . S
C106 C107 1.398 . S
C107 C72 1.381 1_545 S
C107 H84 0.951 1_545 S
C107 C106 1.398 . S
C108 C109 1.384 1_554 S
C108 H121 0.947 . S
C108 C143 1.382 . S
C109 C108 1.384 1_556 S
C109 C110 1.378 . S
C110 C109 1.378 . S
C110 C111 1.378 . S
C110 H122 0.952 . S
C111 C110 1.378 . S
C111 H123 0.950 . S
C111 C142 1.383 1_556 S
H112 C131 0.947 . S
H113 C132 0.946 1_556 S
H114 C134 0.953 . S
H115 C135 0.945 . S
H116 C137 0.952 . S
H117 C138 0.949 . S
H118 C140 0.950 . S
H119 C141 0.948 . S
H120 C143 0.951 . S
H121 C108 0.947 . S
H122 C110 0.952 . S
H123 C111 0.950 . S
N124 C127 1.382 . S
N124 C129 1.363 . S
N125 C127 1.371 . S
N125 C128 1.372 . S
N126 C128 1.361 . S
N126 C129 1.377 . S
C127 N124 1.382 . S
C127 N125 1.371 . S
C127 C130 1.480 . S
C128 N125 1.372 . S
C128 N126 1.361 . S
C128 C136 1.457 . S
C129 N124 1.363 . S
C129 N126 1.377 . S
C129 C142 1.479 . S
C130 C127 1.480 . S
C130 C131 1.383 . S
C130 C135 1.385 . S
C131 H112 0.947 . S
C131 C130 1.383 . S
C131 C132 1.388 . S
C132 H113 0.946 1_554 S
C132 C131 1.388 . S
C132 C133 1.384 . S
C133 C132 1.384 . S
C133 C134 1.377 . S
C134 H114 0.953 . S
C134 C133 1.377 . S
C134 C135 1.369 . S
C135 H115 0.945 . S
C135 C130 1.385 . S
C135 C134 1.369 . S
C136 C128 1.457 . S
C136 C137 1.372 . S
C136 C141 1.364 . S
C137 H116 0.952 . S
C137 C136 1.372 . S
C137 C138 1.389 . S
C138 H117 0.949 . S
C138 C137 1.389 . S
C138 C139 1.387 . S
C139 C138 1.387 . S
C139 C140 1.372 . S
C140 H118 0.950 . S
C140 C139 1.372 . S
C140 C141 1.379 . S
C141 H119 0.948 . S
C141 C136 1.364 . S
C141 C140 1.379 . S
C142 C111 1.383 1_554 S
C142 C129 1.479 . S
C142 C143 1.398 . S
C143 C108 1.382 . S
C143 H120 0.951 . S
C143 C142 1.398 . S
C144 C145 1.384 . S
C144 H157 0.947 . S
C144 C179 1.382 . S
C145 C144 1.384 . S
C145 C146 1.378 . S
C146 C145 1.378 . S
C146 C147 1.378 . S
C146 H158 0.952 . S
C147 C146 1.378 . S
C147 H159 0.950 . S
C147 C178 1.383 . S
H148 C167 0.947 . S
H149 C168 0.946 . S
H150 C170 0.953 . S
H151 C171 0.945 . S
H152 C173 0.952 . S
H153 C174 0.949 . S
H154 C176 0.950 . S
H155 C177 0.948 . S
H156 C179 0.951 . S
H157 C144 0.947 . S
H158 C146 0.952 . S
H159 C147 0.950 . S
N160 C163 1.382 1_556 S
N160 C165 1.363 . S
N161 C163 1.371 . S
N161 C164 1.372 . S
N162 C164 1.361 1_556 S
N162 C165 1.377 . S
C163 N160 1.382 1_554 S
C163 N161 1.371 . S
C163 C166 1.480 . S
C164 N161 1.372 . S
C164 N162 1.361 1_554 S
C164 C172 1.457 . S
C165 N160 1.363 . S
C165 N162 1.377 . S
C165 C178 1.479 . S
C166 C163 1.480 . S
C166 C167 1.383 1_554 S
C166 C171 1.385 . S
C167 H148 0.947 . S
C167 C166 1.383 1_556 S
C167 C168 1.388 . S
C168 H149 0.946 . S
C168 C167 1.388 . S
C168 C169 1.384 1_556 S
C169 C168 1.384 1_554 S
C169 C170 1.377 . S
C170 H150 0.953 . S
C170 C169 1.377 . S
C170 C171 1.369 . S
C171 H151 0.945 . S
C171 C166 1.385 . S
C171 C170 1.369 . S
C172 C164 1.457 . S
C172 C173 1.372 . S
C172 C177 1.364 . S
C173 H152 0.952 . S
C173 C172 1.372 . S
C173 C174 1.389 . S
C174 H153 0.949 . S
C174 C173 1.389 . S
C174 C175 1.387 . S
C175 C174 1.387 . S
C175 C176 1.372 . S
C176 H154 0.950 . S
C176 C175 1.372 . S
C176 C177 1.379 . S
C177 H155 0.948 . S
C177 C172 1.364 . S
C177 C176 1.379 . S
C178 C147 1.383 . S
C178 C165 1.479 . S
C178 C179 1.398 . S
C179 C144 1.382 . S
C179 H156 0.951 . S
C179 C178 1.398 . S
C180 C181 1.384 . S
C180 H193 0.947 . S
C180 C215 1.382 . S
C181 C180 1.384 . S
C181 C182 1.378 . S
C182 C181 1.378 . S
C182 C183 1.378 . S
C182 H194 0.952 . S
C183 C182 1.378 . S
C183 H195 0.950 . S
C183 C214 1.383 . S
H184 C203 0.947 . S
H185 C204 0.958 . S
H186 C206 0.953 . S
H187 C207 0.945 . S
H188 C209 0.952 . S
H189 C210 0.949 . S
H190 C212 0.950 . S
H191 C213 0.948 . S
H192 C215 0.951 1_554 S
H193 C180 0.947 . S
H194 C182 0.952 . S
H195 C183 0.950 . S
N196 C199 1.382 . S
N196 C201 1.363 . S
N197 C199 1.371 . S
N197 C200 1.372 . S
N198 C200 1.361 . S
N198 C201 1.377 . S
C199 N196 1.382 . S
C199 N197 1.371 . S
C199 C202 1.480 . S
C200 N197 1.372 . S
C200 N198 1.361 . S
C200 C208 1.457 . S
C201 N196 1.363 . S
C201 N198 1.377 . S
C201 C214 1.479 1_554 S
C202 C199 1.480 . S
C202 C203 1.383 . S
C202 C207 1.385 . S
C203 H184 0.947 . S
C203 C202 1.383 . S
C203 C204 1.388 . S
C204 H185 0.958 . S
C204 C203 1.388 . S
C204 C205 1.384 . S
C205 C204 1.384 . S
C205 C206 1.377 . S
C206 H186 0.953 . S
C206 C205 1.377 . S
C206 C207 1.369 . S
C207 H187 0.945 . S
C207 C202 1.385 . S
C207 C206 1.369 . S
C208 C200 1.457 . S
C208 C209 1.372 . S
C208 C213 1.364 . S
C209 H188 0.952 . S
C209 C208 1.372 . S
C209 C210 1.389 . S
C210 H189 0.949 . S
C210 C209 1.389 . S
C210 C211 1.387 . S
C211 C210 1.387 . S
C211 C212 1.372 . S
C212 H190 0.950 . S
C212 C211 1.372 . S
C212 C213 1.379 . S
C213 H191 0.948 . S
C213 C208 1.364 . S
C213 C212 1.379 . S
C214 C183 1.383 . S
C214 C201 1.479 1_556 S
C214 C215 1.398 . S
C215 C180 1.382 . S
C215 H192 0.951 1_556 S
C215 C214 1.398 . S
C216 C217 1.384 1_565 S
C216 H229 0.947 . S
C216 C251 1.382 1_566 S
C217 C216 1.384 1_545 S
C217 C218 1.378 . S
C218 C217 1.378 . S
C218 C219 1.378 1_556 S
C218 H230 0.952 . S
C219 C218 1.378 1_554 S
C219 H231 0.950 . S
C219 C250 1.383 . S
H220 C239 0.947 . S
H221 C240 0.950 . S
H222 C242 0.953 . S
H223 C243 0.945 . S
H224 C245 0.944 1_565 S
H225 C246 0.957 . S
H226 C248 0.950 . S
H227 C249 0.948 . S
H228 C251 0.951 1_565 S
H229 C216 0.947 . S
H230 C218 0.952 . S
H231 C219 0.950 . S
N232 C235 1.382 . S
N232 C237 1.363 . S
N233 C235 1.371 . S
N233 C236 1.372 . S
N234 C236 1.361 . S
N234 C237 1.377 . S
C235 N232 1.382 . S
C235 N233 1.371 . S
C235 C238 1.480 . S
C236 N233 1.372 . S
C236 N234 1.361 . S
C236 C244 1.457 . S
C237 N232 1.363 . S
C237 N234 1.377 . S
C237 C250 1.479 . S
C238 C235 1.480 . S
C238 C239 1.383 . S
C238 C243 1.385 . S
C239 H220 0.947 . S
C239 C238 1.383 . S
C239 C240 1.385 1_545 S
C240 H221 0.950 . S
C240 C239 1.385 1_565 S
C240 C241 1.383 1_565 S
C241 C240 1.383 1_545 S
C241 C242 1.377 . S
C242 H222 0.953 . S
C242 C241 1.377 . S
C242 C243 1.369 . S
C243 H223 0.945 . S
C243 C238 1.385 . S
C243 C242 1.369 . S
C244 C236 1.457 . S
C244 C245 1.381 . S
C244 C249 1.364 . S
C245 H224 0.944 1_545 S
C245 C244 1.381 . S
C245 C246 1.389 1_545 S
C246 H225 0.957 . S
C246 C245 1.389 1_565 S
C246 C247 1.380 1_565 S
C247 C246 1.380 1_545 S
C247 C248 1.372 . S
C248 H226 0.950 . S
C248 C247 1.372 . S
C248 C249 1.379 . S
C249 H227 0.948 . S
C249 C244 1.364 . S
C249 C248 1.379 . S
C250 C219 1.383 . S
C250 C237 1.479 . S
C250 C251 1.398 . S
C251 C216 1.382 1_544 S
C251 H228 0.951 1_545 S
C251 C250 1.398 . S
C252 C253 1.384 . S
C252 H265 0.947 . S
C252 C287 1.382 . S
C253 C252 1.384 . S
C253 C254 1.378 . S
C254 C253 1.378 . S
C254 C255 1.378 . S
C254 H266 0.952 . S
C255 C254 1.378 . S
C255 H267 0.950 . S
C255 C286 1.383 . S
H256 C275 0.947 . S
H257 C276 0.946 . S
H258 C278 0.953 . S
H259 C279 0.945 . S
H260 C281 0.952 . S
H261 C282 0.949 . S
H262 C284 0.950 . S
H263 C285 0.948 . S
H264 C287 0.951 . S
H265 C252 0.947 . S
H266 C254 0.952 . S
H267 C255 0.950 . S
N268 C271 1.382 . S
N268 C273 1.363 . S
N269 C271 1.371 . S
N269 C272 1.372 . S
N270 C272 1.361 . S
N270 C273 1.377 . S
C271 N268 1.382 . S
C271 N269 1.371 . S
C271 C274 1.480 . S
C272 N269 1.372 . S
C272 N270 1.361 . S
C272 C280 1.457 . S
C273 N268 1.363 . S
C273 N270 1.377 . S
C273 C286 1.479 . S
C274 C271 1.480 . S
C274 C275 1.383 . S
C274 C279 1.385 . S
C275 H256 0.947 . S
C275 C274 1.383 . S
C275 C276 1.388 . S
C276 H257 0.946 . S
C276 C275 1.388 . S
C276 C277 1.384 . S
C277 C276 1.384 . S
C277 C278 1.377 . S
C278 H258 0.953 . S
C278 C277 1.377 . S
C278 C279 1.369 . S
C279 H259 0.945 . S
C279 C274 1.385 . S
C279 C278 1.369 . S
C280 C272 1.457 . S
C280 C281 1.372 . S
C280 C285 1.364 . S
C281 H260 0.952 . S
C281 C280 1.372 . S
C281 C282 1.389 . S
C282 H261 0.949 . S
C282 C281 1.389 . S
C282 C283 1.387 . S
C283 C282 1.387 . S
C283 C284 1.372 . S
C284 H262 0.950 . S
C284 C283 1.372 . S
C284 C285 1.379 . S
C285 H263 0.948 . S
C285 C280 1.364 . S
C285 C284 1.379 . S
C286 C255 1.383 . S
C286 C273 1.479 . S
C286 C287 1.398 . S
C287 C252 1.382 . S
C287 H264 0.951 . S
C287 C286 1.398 . S
Dy288 O291 2.307 1_545 S
Dy288 O293 2.395 1_655 S
Dy288 O294 2.379 . S
Dy288 O296 2.339 . S
Dy288 O298 2.298 . S
Dy288 O302 2.275 1_655 S
Dy288 C310 2.738 . S
Dy289 O292 2.298 . S
Dy289 O295 2.275 1_455 S
Dy289 O297 2.307 1_565 S
Dy289 O299 2.403 . S
Dy289 O300 2.379 . S
Dy289 O303 2.339 . S
Dy289 C319 2.738 . S
C290 O302 1.254 1_565 S
C290 O303 1.257 . S
O291 Dy288 2.307 1_565 S
O291 C301 1.266 . S
O292 Dy289 2.298 . S
O292 C301 1.236 1_455 S
O293 Dy288 2.395 1_455 S
O293 C310 1.255 1_455 S
O294 Dy288 2.379 . S
O294 C310 1.249 . S
O295 Dy289 2.275 1_655 S
O295 C311 1.254 1_565 S
O296 Dy288 2.339 . S
O296 C311 1.257 . S
O297 Dy289 2.307 1_545 S
O297 C312 1.266 . S
O298 Dy288 2.298 . S
O298 C312 1.236 1_655 S
O299 Dy289 2.403 . S
O299 C319 1.273 . S
O300 Dy289 2.379 . S
O300 C319 1.249 . S
C301 O291 1.266 . S
C301 O292 1.236 1_655 S
O302 Dy288 2.275 1_455 S
O302 C290 1.254 1_545 S
O303 Dy289 2.339 . S
O303 C290 1.257 . S
C304 C307 1.344 1_655 S
C304 C308 1.328 . S
C304 C310 1.516 . S
C305 C306 1.334 . S
C305 C309 1.323 . S
C306 C305 1.334 . S
C306 C307 1.369 1_655 S
C306 H320 0.902 1_655 S
C307 C304 1.344 1_455 S
C307 C306 1.369 1_455 S
C307 H321 0.931 . S
C308 C304 1.328 . S
C308 C309 1.433 . S
C308 H322 0.931 . S
C309 C305 1.323 . S
C309 C308 1.433 . S
C309 H323 0.933 . S
C310 Dy288 2.738 . S
C310 O293 1.255 1_655 S
C310 O294 1.249 . S
C310 C304 1.516 . S
C311 O295 1.254 1_545 S
C311 O296 1.257 . S
C312 O297 1.266 . S
C312 O298 1.236 1_455 S
C313 C316 1.344 . S
C313 C317 1.328 . S
C313 C319 1.516 . S
C314 C315 1.304 1_554 S
C314 C318 1.323 1_554 S
C315 C314 1.304 1_556 S
C315 C316 1.371 . S
C315 H324 0.930 1_456 S
C316 C313 1.344 . S
C316 C315 1.371 . S
C316 H325 0.931 1_455 S
C317 C313 1.328 . S
C317 C318 1.433 . S
C317 H326 0.931 . S
C318 C314 1.323 1_556 S
C318 C317 1.433 . S
C318 H327 0.933 . S
C319 Dy289 2.738 . S
C319 O299 1.273 . S
C319 O300 1.249 . S
C319 C313 1.516 . S
H320 C306 0.902 1_455 S
H321 C307 0.931 . S
H322 C308 0.931 . S
H323 C309 0.933 . S
H324 C315 0.930 1_654 S
H325 C316 0.931 1_655 S
H326 C317 0.931 . S
H327 C318 0.933 . S
Dy328 O331 2.307 . S
Dy328 O333 2.395 1_565 S
Dy328 O334 2.379 . S
Dy328 O336 2.339 . S
Dy328 O338 2.298 . S
Dy328 O342 2.275 1_565 S
Dy328 C350 2.738 . S
Dy329 O332 2.298 . S
Dy329 O335 2.275 1_545 S
Dy329 O337 2.307 . S
Dy329 O339 2.395 1_545 S
Dy329 O340 2.379 . S
Dy329 O343 2.339 . S
Dy329 C359 2.738 . S
C330 O342 1.254 . S
C330 O343 1.257 . S
O331 Dy328 2.307 . S
O331 C341 1.266 . S
O332 Dy329 2.298 . S
O332 C341 1.236 1_545 S
O333 Dy328 2.395 1_545 S
O333 C350 1.255 1_545 S
O334 Dy328 2.379 . S
O334 C350 1.249 . S
O335 Dy329 2.275 1_565 S
O335 C351 1.254 . S
O336 Dy328 2.339 . S
O336 C351 1.257 . S
O337 Dy329 2.307 . S
O337 C352 1.266 . S
O338 Dy328 2.298 . S
O338 C352 1.236 1_565 S
O339 Dy329 2.395 1_565 S
O339 C359 1.255 1_565 S
O340 Dy329 2.379 . S
O340 C359 1.249 . S
C341 O331 1.266 . S
C341 O332 1.236 1_565 S
O342 Dy328 2.275 1_545 S
O342 C330 1.254 . S
O343 Dy329 2.339 . S
O343 C330 1.257 . S
C344 C347 1.351 . S
C344 C348 1.328 . S
C344 C350 1.516 . S
C345 C346 1.304 . S
C345 C349 1.323 . S
C346 C345 1.304 . S
C346 C347 1.372 . S
C346 H360 0.930 1_565 S
C347 C344 1.351 . S
C347 C346 1.372 . S
C347 H361 0.923 1_565 S
C348 C344 1.328 . S
C348 C349 1.433 . S
C348 H362 0.931 . S
C349 C345 1.323 . S
C349 C348 1.433 . S
C349 H363 0.933 . S
C350 Dy328 2.738 . S
C350 O333 1.255 1_565 S
C350 O334 1.249 . S
C350 C344 1.516 . S
C351 O335 1.254 . S
C351 O336 1.257 . S
C352 O337 1.266 . S
C352 O338 1.236 1_545 S
C353 C356 1.358 . S
C353 C357 1.328 . S
C353 C359 1.516 . S
C354 C355 1.304 . S
C354 C358 1.323 . S
C355 C354 1.304 . S
C355 C356 1.374 . S
C355 H364 0.930 1_545 S
C356 C353 1.358 . S
C356 C355 1.374 . S
C356 H365 0.914 1_545 S
C357 C353 1.328 . S
C357 C358 1.433 . S
C357 H366 0.931 . S
C358 C354 1.323 . S
C358 C357 1.433 . S
C358 H367 0.933 1_556 S
C359 Dy329 2.738 . S
C359 O339 1.255 1_545 S
C359 O340 1.249 . S
C359 C353 1.516 . S
H360 C346 0.930 1_545 S
H361 C347 0.923 1_545 S
H362 C348 0.931 . S
H363 C349 0.933 . S
H364 C355 0.930 1_565 S
H365 C356 0.914 1_565 S
H366 C357 0.931 . S
H367 C358 0.933 1_554 S
Dy368 O371 2.307 . S
Dy368 O373 2.395 . S
Dy368 O374 2.379 . S
Dy368 O376 2.339 . S
Dy368 O378 2.298 . S
Dy368 O382 2.275 . S
Dy368 C390 2.738 . S
Dy369 O372 2.298 . S
Dy369 O375 2.275 . S
Dy369 O377 2.307 . S
Dy369 O379 2.395 . S
Dy369 O380 2.379 . S
Dy369 O383 2.339 . S
Dy369 C399 2.738 . S
C370 O382 1.254 . S
C370 O383 1.257 . S
O371 Dy368 2.307 . S
O371 C381 1.266 . S
O372 Dy369 2.298 . S
O372 C381 1.236 . S
O373 Dy368 2.395 . S
O373 C390 1.255 . S
O374 Dy368 2.379 . S
O374 C390 1.249 . S
O375 Dy369 2.275 . S
O375 C391 1.254 . S
O376 Dy368 2.339 . S
O376 C391 1.257 . S
O377 Dy369 2.307 . S
O377 C392 1.266 . S
O378 Dy368 2.298 . S
O378 C392 1.236 . S
O379 Dy369 2.395 . S
O379 C399 1.255 . S
O380 Dy369 2.379 . S
O380 C399 1.249 . S
C381 O371 1.266 . S
C381 O372 1.236 . S
O382 Dy368 2.275 . S
O382 C370 1.254 . S
O383 Dy369 2.339 . S
O383 C370 1.257 . S
C384 C387 1.344 . S
C384 C388 1.328 . S
C384 C390 1.516 . S
C385 C386 1.300 1_556 S
C385 C389 1.323 . S
C386 C385 1.300 1_554 S
C386 C387 1.360 1_554 S
C386 H400 0.946 . S
C387 C384 1.344 . S
C387 C386 1.360 1_556 S
C387 H401 0.931 . S
C388 C384 1.328 . S
C388 C389 1.433 . S
C388 H402 0.931 . S
C389 C385 1.323 . S
C389 C388 1.433 . S
C389 H403 0.933 . S
C390 Dy368 2.738 . S
C390 O373 1.255 . S
C390 O374 1.249 . S
C390 C384 1.516 . S
C391 O375 1.254 . S
C391 O376 1.257 . S
C392 O377 1.266 . S
C392 O378 1.236 . S
C393 C396 1.344 . S
C393 C397 1.328 . S
C393 C399 1.516 . S
C394 C395 1.304 . S
C394 C398 1.323 . S
C395 C394 1.304 . S
C395 C396 1.371 . S
C395 H404 0.930 . S
C396 C393 1.344 . S
C396 C395 1.371 . S
C396 H405 0.931 . S
C397 C393 1.328 . S
C397 C398 1.433 . S
C397 H406 0.931 . S
C398 C394 1.323 . S
C398 C397 1.433 . S
C398 H407 0.933 . S
C399 Dy369 2.738 . S
C399 O379 1.255 . S
C399 O380 1.249 . S
C399 C393 1.516 . S
H400 C386 0.946 . S
H401 C387 0.931 . S
H402 C388 0.931 . S
H403 C389 0.933 . S
H404 C395 0.930 . S
H405 C396 0.931 . S
H406 C397 0.931 . S
H407 C398 0.933 . S
Dy408 O411 2.307 1_455 S
Dy408 O413 2.395 . S
Dy408 O414 2.379 . S
Dy408 O416 2.339 . S
Dy408 O418 2.298 . S
Dy408 O422 2.275 . S
Dy408 C430 2.738 . S
Dy409 O412 2.298 . S
Dy409 O415 2.275 . S
Dy409 O417 2.307 1_655 S
Dy409 O419 2.395 . S
Dy409 O420 2.379 . S
Dy409 O423 2.339 . S
Dy409 C439 2.738 . S
C410 O422 1.254 . S
C410 O423 1.258 1_455 S
O411 Dy408 2.307 1_655 S
O411 C421 1.266 . S
O412 Dy409 2.298 . S
O412 C421 1.236 . S
O413 Dy408 2.395 . S
O413 C430 1.255 . S
O414 Dy408 2.379 . S
O414 C430 1.249 . S
O415 Dy409 2.275 . S
O415 C431 1.254 1_655 S
O416 Dy408 2.339 . S
O416 C431 1.257 . S
O417 Dy409 2.307 1_455 S
O417 C432 1.266 . S
O418 Dy408 2.298 . S
O418 C432 1.236 . S
O419 Dy409 2.395 . S
O419 C439 1.255 . S
O420 Dy409 2.379 . S
O420 C439 1.249 . S
C421 O411 1.266 . S
C421 O412 1.236 . S
O422 Dy408 2.275 . S
O422 C410 1.254 . S
O423 Dy409 2.339 . S
O423 C410 1.258 1_655 S
C424 C427 1.344 . S
C424 C428 1.328 . S
C424 C430 1.516 . S
C425 C426 1.304 . S
C425 C429 1.323 . S
C426 C425 1.304 . S
C426 C427 1.371 . S
C426 H440 0.930 . S
C427 C424 1.344 . S
C427 C426 1.371 . S
C427 H441 0.931 . S
C428 C424 1.328 . S
C428 C429 1.433 . S
C428 H442 0.931 . S
C429 C425 1.323 . S
C429 C428 1.433 . S
C429 H443 0.933 . S
C430 Dy408 2.738 . S
C430 O413 1.255 . S
C430 O414 1.249 . S
C430 C424 1.516 . S
C431 O415 1.254 1_455 S
C431 O416 1.257 . S
C432 O417 1.266 . S
C432 O418 1.236 . S
C433 C436 1.344 1_556 S
C433 C437 1.328 . S
C433 C439 1.516 . S
C434 C435 1.304 . S
C434 C438 1.323 . S
C435 C434 1.304 . S
C435 C436 1.371 . S
C435 H444 0.930 . S
C436 C433 1.344 1_554 S
C436 C435 1.371 . S
C436 H445 0.931 1_554 S
C437 C433 1.328 . S
C437 C438 1.433 1_556 S
C437 H446 0.931 . S
C438 C434 1.323 . S
C438 C437 1.433 1_554 S
C438 H447 0.933 . S
C439 Dy409 2.738 . S
C439 O419 1.255 . S
C439 O420 1.249 . S
C439 C433 1.516 . S
H440 C426 0.930 . S
H441 C427 0.931 . S
H442 C428 0.931 . S
H443 C429 0.933 . S
H444 C435 0.930 . S
H445 C436 0.931 1_556 S
H446 C437 0.931 . S
H447 C438 0.933 . S
H448 C454 0.930 . S
H449 C457 0.930 . S
H450 C458 0.930 . S
H451 C459 0.930 . S
H452 C462 0.930 . S
H453 C463 0.930 . S
C454 H448 0.930 . S
C454 C455 1.355 1_565 S
C454 C456 1.415 . S
C455 C454 1.355 1_545 S
C455 C457 1.419 . S
C456 C454 1.415 . S
C456 C461 1.425 1_565 S
C456 C463 1.409 . S
C457 H449 0.930 . S
C457 C455 1.419 . S
C457 C458 1.362 . S
C458 H450 0.930 . S
C458 C457 1.362 . S
C458 C461 1.409 . S
C459 H451 0.930 . S
C459 C460 1.355 1_545 S
C459 C461 1.415 . S
C460 C459 1.355 1_565 S
C460 C462 1.419 . S
C461 C456 1.425 1_545 S
C461 C458 1.409 . S
C461 C459 1.415 . S
C462 H452 0.930 . S
C462 C460 1.419 . S
C462 C463 1.362 . S
C463 H453 0.930 . S
C463 C456 1.409 . S
C463 C462 1.362 . S
H464 C470 0.930 . S
H465 C473 0.930 . S
H466 C474 0.930 . S
H467 C475 0.930 . S
H468 C478 0.930 . S
H469 C479 0.930 . S
C470 H464 0.930 . S
C470 C471 1.355 . S
C470 C472 1.415 . S
C471 C470 1.355 . S
C471 C473 1.419 . S
C472 C470 1.415 . S
C472 C477 1.425 . S
C472 C479 1.409 . S
C473 H465 0.930 . S
C473 C471 1.419 . S
C473 C474 1.362 . S
C474 H466 0.930 . S
C474 C473 1.362 . S
C474 C477 1.409 . S
C475 H467 0.930 . S
C475 C476 1.355 . S
C475 C477 1.415 . S
C476 C475 1.355 . S
C476 C478 1.419 . S
C477 C472 1.425 . S
C477 C474 1.409 . S
C477 C475 1.415 . S
C478 H468 0.930 . S
C478 C476 1.419 . S
C478 C479 1.362 . S
C479 H469 0.930 . S
C479 C472 1.409 . S
C479 C478 1.362 . S
H480 C486 0.930 . S
H481 C489 0.930 . S
H482 C490 0.930 . S
H483 C491 0.930 . S
H484 C494 0.930 . S
H485 C495 0.930 . S
C486 H480 0.930 . S
C486 C487 1.355 . S
C486 C488 1.415 . S
C487 C486 1.355 . S
C487 C489 1.419 . S
C488 C486 1.415 . S
C488 C493 1.425 . S
C488 C495 1.409 . S
C489 H481 0.930 . S
C489 C487 1.419 . S
C489 C490 1.362 . S
C490 H482 0.930 . S
C490 C489 1.362 . S
C490 C493 1.409 . S
C491 H483 0.930 . S
C491 C492 1.355 . S
C491 C493 1.415 . S
C492 C491 1.355 . S
C492 C494 1.419 . S
C493 C488 1.425 . S
C493 C490 1.409 . S
C493 C491 1.415 . S
C494 H484 0.930 . S
C494 C492 1.419 . S
C494 C495 1.362 . S
C495 H485 0.930 . S
C495 C488 1.409 . S
C495 C494 1.362 . S
H496 C502 0.930 . S
H497 C505 0.930 . S
H498 C506 0.930 . S
H499 C507 0.930 . S
H500 C510 0.930 . S
H501 C511 0.930 . S
C502 H496 0.930 . S
C502 C503 1.355 . S
C502 C504 1.415 . S
C503 C502 1.355 . S
C503 C505 1.419 1_455 S
C504 C502 1.415 . S
C504 C509 1.425 1_455 S
C504 C511 1.409 . S
C505 H497 0.930 . S
C505 C503 1.419 1_655 S
C505 C506 1.362 . S
C506 H498 0.930 . S
C506 C505 1.362 . S
C506 C509 1.409 . S
C507 H499 0.930 . S
C507 C508 1.355 1_655 S
C507 C509 1.415 . S
C508 C507 1.355 1_455 S
C508 C510 1.419 . S
C509 C504 1.425 1_655 S
C509 C506 1.409 . S
C509 C507 1.415 . S
C510 H500 0.930 . S
C510 C508 1.419 . S
C510 C511 1.362 . S
C511 H501 0.930 . S
C511 C504 1.409 . S
C511 C510 1.362 . S
H512 C518 0.930 . S
H513 C521 0.930 . S
H514 C522 0.930 . S
H515 C523 0.930 . S
H516 C526 0.930 . S
H517 C527 0.930 . S
C518 H512 0.930 . S
C518 C519 1.355 1_545 S
C518 C520 1.415 . S
C519 C518 1.355 1_565 S
C519 C521 1.419 . S
C520 C518 1.415 . S
C520 C525 1.425 1_545 S
C520 C527 1.409 1_554 S
C521 H513 0.930 . S
C521 C519 1.419 . S
C521 C522 1.362 . S
C522 H514 0.930 . S
C522 C521 1.362 . S
C522 C525 1.409 . S
C523 H515 0.930 . S
C523 C524 1.355 1_565 S
C523 C525 1.415 1_556 S
C524 C523 1.355 1_545 S
C524 C526 1.419 . S
C525 C520 1.425 1_565 S
C525 C522 1.409 . S
C525 C523 1.415 1_554 S
C526 H516 0.930 . S
C526 C524 1.419 . S
C526 C527 1.362 . S
C527 H517 0.930 . S
C527 C520 1.409 1_556 S
C527 C526 1.362 . S
H528 C534 0.930 . S
H529 C537 0.930 . S
H530 C538 0.930 . S
H531 C539 0.930 . S
H532 C542 0.930 . S
H533 C543 0.930 1_554 S
C534 H528 0.930 . S
C534 C535 1.355 . S
C534 C536 1.415 1_554 S
C535 C534 1.355 . S
C535 C537 1.419 1_554 S
C536 C534 1.415 1_556 S
C536 C541 1.425 . S
C536 C543 1.409 . S
C537 H529 0.930 . S
C537 C535 1.419 1_556 S
C537 C538 1.362 . S
C538 H530 0.930 . S
C538 C537 1.362 . S
C538 C541 1.409 . S
C539 H531 0.930 . S
C539 C540 1.355 . S
C539 C541 1.415 . S
C540 C539 1.355 . S
C540 C542 1.419 . S
C541 C536 1.425 . S
C541 C538 1.409 . S
C541 C539 1.415 . S
C542 H532 0.930 . S
C542 C540 1.419 . S
C542 C543 1.362 . S
C543 H533 0.930 1_556 S
C543 C536 1.409 . S
C543 C542 1.362 . S
H544 C550 0.930 . S
H545 C553 0.930 . S
H546 C554 0.930 . S
H547 C555 0.930 . S
H548 C558 0.930 . S
H549 C559 0.930 . S
C550 H544 0.930 . S
C550 C551 1.355 . S
C550 C552 1.415 . S
C551 C550 1.355 . S
C551 C553 1.419 . S
C552 C550 1.415 . S
C552 C557 1.425 . S
C552 C559 1.409 . S
C553 H545 0.930 . S
C553 C551 1.419 . S
C553 C554 1.362 . S
C554 H546 0.930 . S
C554 C553 1.362 . S
C554 C557 1.409 . S
C555 H547 0.930 . S
C555 C556 1.355 . S
C555 C557 1.415 . S
C556 C555 1.355 . S
C556 C558 1.419 . S
C557 C552 1.425 . S
C557 C554 1.409 . S
C557 C555 1.415 . S
C558 H548 0.930 . S
C558 C556 1.419 . S
C558 C559 1.362 . S
C559 H549 0.930 . S
C559 C552 1.409 . S
C559 C558 1.362 . S
H560 C566 0.930 . S
H561 C569 0.930 . S
H562 C570 0.930 . S
H563 C571 0.930 1_556 S
H564 C574 0.930 . S
H565 C575 0.930 . S
C566 H560 0.930 . S
C566 C567 1.355 1_455 S
C566 C568 1.415 . S
C567 C566 1.355 1_655 S
C567 C569 1.419 . S
C568 C566 1.415 . S
C568 C573 1.425 1_455 S
C568 C575 1.409 . S
C569 H561 0.930 . S
C569 C567 1.419 . S
C569 C570 1.362 . S
C570 H562 0.930 . S
C570 C569 1.362 . S
C570 C573 1.409 . S
C571 H563 0.930 1_554 S
C571 C572 1.355 1_654 S
C571 C573 1.415 . S
C572 C571 1.355 1_456 S
C572 C574 1.419 . S
C573 C568 1.425 1_655 S
C573 C570 1.409 . S
C573 C571 1.415 . S
C574 H564 0.930 . S
C574 C572 1.419 . S
C574 C575 1.362 1_556 S
C575 H565 0.930 . S
C575 C568 1.409 . S
C575 C574 1.362 1_554 S
H576 C582 0.930 . S
H577 C585 0.930 . S
H578 C586 0.930 . S
H579 C587 0.956 . S
H580 C590 0.930 . S
H581 C591 0.930 . S
C582 H576 0.930 . S
C582 C583 1.355 1_655 S
C582 C584 1.415 . S
C583 C582 1.355 1_455 S
C583 C585 1.419 . S
C584 C582 1.415 . S
C584 C589 1.425 . S
C584 C591 1.409 . S
C585 H577 0.930 . S
C585 C583 1.419 . S
C585 C586 1.362 . S
C586 H578 0.930 . S
C586 C585 1.362 . S
C586 C589 1.409 1_455 S
C587 H579 0.956 . S
C587 C588 1.355 . S
C587 C589 1.415 . S
C588 C587 1.355 . S
C588 C590 1.419 . S
C589 C584 1.425 . S
C589 C586 1.409 1_655 S
C589 C587 1.415 . S
C590 H580 0.930 . S
C590 C588 1.419 . S
C590 C591 1.362 . S
C591 H581 0.930 . S
C591 C584 1.409 . S
C591 C590 1.362 . S
H592 C598 0.930 . S
H593 C601 0.930 . S
H594 C602 0.930 . S
H595 C603 0.930 . S
H596 C606 0.938 . S
H597 C607 0.930 . S
C598 H592 0.930 . S
C598 C599 1.349 1_545 S
C598 C600 1.415 1_545 S
C599 C598 1.349 1_565 S
C599 C601 1.431 . S
C600 C598 1.415 1_565 S
C600 C605 1.425 . S
C600 C607 1.409 1_565 S
C601 H593 0.930 . S
C601 C599 1.431 . S
C601 C602 1.362 . S
C602 H594 0.930 . S
C602 C601 1.362 . S
C602 C605 1.409 . S
C603 H595 0.930 . S
C603 C604 1.355 . S
C603 C605 1.415 . S
C604 C603 1.355 . S
C604 C606 1.419 . S
C605 C600 1.425 . S
C605 C602 1.409 . S
C605 C603 1.415 . S
C606 H596 0.938 . S
C606 C604 1.419 . S
C606 C607 1.362 1_565 S
C607 H597 0.930 . S
C607 C600 1.409 1_545 S
C607 C606 1.362 1_545 S
H608 C614 0.930 . S
H609 C617 0.930 . S
H610 C618 0.930 . S
H611 C619 0.930 . S
H612 C622 0.930 . S
H613 C623 0.930 . S
C614 H608 0.930 . S
C614 C615 1.355 . S
C614 C616 1.415 . S
C615 C614 1.355 . S
C615 C617 1.419 . S
C616 C614 1.415 . S
C616 C621 1.425 . S
C616 C623 1.409 . S
C617 H609 0.930 . S
C617 C615 1.419 . S
C617 C618 1.362 . S
C618 H610 0.930 . S
C618 C617 1.362 . S
C618 C621 1.409 . S
C619 H611 0.930 . S
C619 C620 1.355 . S
C619 C621 1.415 . S
C620 C619 1.355 . S
C620 C622 1.419 . S
C621 C616 1.425 . S
C621 C618 1.409 . S
C621 C619 1.415 . S
C622 H612 0.930 . S
C622 C620 1.419 . S
C622 C623 1.362 . S
C623 H613 0.930 . S
C623 C616 1.409 . S
C623 C622 1.362 . S
H624 C630 0.930 . S
H625 C633 0.930 . S
H626 C634 0.930 . S
H627 C635 0.930 . S
H628 C638 0.930 . S
H629 C639 0.930 . S
C630 H624 0.930 . S
C630 C631 1.355 . S
C630 C632 1.415 . S
C631 C630 1.355 . S
C631 C633 1.419 . S
C632 C630 1.415 . S
C632 C637 1.425 . S
C632 C639 1.409 . S
C633 H625 0.930 . S
C633 C631 1.419 . S
C633 C634 1.362 . S
C634 H626 0.930 . S
C634 C633 1.362 . S
C634 C637 1.409 . S
C635 H627 0.930 . S
C635 C636 1.355 . S
C635 C637 1.415 . S
C636 C635 1.355 . S
C636 C638 1.419 . S
C637 C632 1.425 . S
C637 C634 1.409 . S
C637 C635 1.415 . S
C638 H628 0.930 . S
C638 C636 1.419 . S
C638 C639 1.362 . S
C639 H629 0.930 . S
C639 C632 1.409 . S
C639 C638 1.362 . S
H640 C646 0.930 . S
H641 C649 0.930 . S
H642 C650 0.930 . S
H643 C651 0.930 . S
H644 C654 0.930 1_655 S
H645 C655 0.930 . S
C646 H640 0.930 . S
C646 C647 1.355 . S
C646 C648 1.392 1_655 S
C647 C646 1.355 . S
C647 C649 1.419 1_655 S
C648 C646 1.392 1_455 S
C648 C653 1.468 . S
C648 C655 1.392 1_455 S
C649 H641 0.930 . S
C649 C647 1.419 1_455 S
C649 C650 1.362 . S
C650 H642 0.930 . S
C650 C649 1.362 . S
C650 C653 1.409 . S
C651 H643 0.930 . S
C651 C652 1.355 . S
C651 C653 1.415 . S
C652 C651 1.355 . S
C652 C654 1.419 . S
C653 C648 1.468 . S
C653 C650 1.409 . S
C653 C651 1.415 . S
C654 H644 0.930 1_455 S
C654 C652 1.419 . S
C654 C655 1.362 1_455 S
C655 H645 0.930 . S
C655 C648 1.392 1_655 S
C655 C654 1.362 1_655 S
H656 C662 0.930 . S
H657 C665 0.930 . S
H658 C666 0.930 . S
H659 C667 0.930 . S
H660 C670 0.930 . S
H661 C671 0.909 1_565 S
C662 H656 0.930 . S
C662 C663 1.354 1_565 S
C662 C664 1.415 1_565 S
C663 C662 1.354 1_545 S
C663 C665 1.420 . S
C664 C662 1.415 1_545 S
C664 C669 1.425 . S
C664 C671 1.420 . S
C665 H657 0.930 . S
C665 C663 1.420 . S
C665 C666 1.362 1_554 S
C666 H658 0.930 . S
C666 C665 1.362 1_556 S
C666 C669 1.409 1_556 S
C667 H659 0.930 . S
C667 C668 1.355 1_556 S
C667 C669 1.415 1_556 S
C668 C667 1.355 1_554 S
C668 C670 1.419 . S
C669 C664 1.425 . S
C669 C666 1.409 1_554 S
C669 C667 1.415 1_554 S
C670 H660 0.930 . S
C670 C668 1.419 . S
C670 C671 1.374 . S
C671 H661 0.909 1_545 S
C671 C664 1.420 . S
C671 C670 1.374 . S
H672 C678 0.930 . S
H673 C681 0.930 . S
H674 C682 0.930 . S
H675 C683 0.930 . S
H676 C686 0.930 . S
H677 C687 0.930 . S
C678 H672 0.930 . S
C678 C679 1.355 . S
C678 C680 1.415 . S
C679 C678 1.355 . S
C679 C681 1.419 . S
C680 C678 1.415 . S
C680 C685 1.425 . S
C680 C687 1.409 . S
C681 H673 0.930 . S
C681 C679 1.419 . S
C681 C682 1.362 . S
C682 H674 0.930 . S
C682 C681 1.362 . S
C682 C685 1.409 . S
C683 H675 0.930 . S
C683 C684 1.355 . S
C683 C685 1.415 . S
C684 C683 1.355 . S
C684 C686 1.419 . S
C685 C680 1.425 . S
C685 C682 1.409 . S
C685 C683 1.415 . S
C686 H676 0.930 . S
C686 C684 1.419 . S
C686 C687 1.362 . S
C687 H677 0.930 . S
C687 C680 1.409 . S
C687 C686 1.362 . S
H688 C694 0.930 . S
H689 C697 0.930 . S
H690 C698 0.930 . S
H691 C699 0.930 . S
H692 C702 0.930 . S
H693 C703 0.930 . S
C694 H688 0.930 . S
C694 C695 1.355 . S
C694 C696 1.415 . S
C695 C694 1.355 . S
C695 C697 1.419 . S
C696 C694 1.415 . S
C696 C701 1.425 . S
C696 C703 1.409 . S
C697 H689 0.930 . S
C697 C695 1.419 . S
C697 C698 1.362 . S
C698 H690 0.930 . S
C698 C697 1.362 . S
C698 C701 1.409 . S
C699 H691 0.930 . S
C699 C700 1.355 . S
C699 C701 1.415 . S
C700 C699 1.355 . S
C700 C702 1.419 . S
C701 C696 1.425 . S
C701 C698 1.409 . S
C701 C699 1.415 . S
C702 H692 0.930 . S
C702 C700 1.419 . S
C702 C703 1.362 . S
C703 H693 0.930 . S
C703 C696 1.409 . S
C703 C702 1.362 . S
H704 C710 0.930 . S
H705 C713 0.930 . S
H706 C714 0.930 . S
H707 C715 0.930 . S
H708 C718 0.930 . S
H709 C719 0.930 . S
C710 H704 0.930 . S
C710 C711 1.355 . S
C710 C712 1.415 . S
C711 C710 1.355 . S
C711 C713 1.419 1_455 S
C712 C710 1.415 . S
C712 C717 1.425 1_455 S
C712 C719 1.409 . S
C713 H705 0.930 . S
C713 C711 1.419 1_655 S
C713 C714 1.362 . S
C714 H706 0.930 . S
C714 C713 1.362 . S
C714 C717 1.409 . S
C715 H707 0.930 . S
C715 C716 1.355 1_655 S
C715 C717 1.415 . S
C716 C715 1.355 1_455 S
C716 C718 1.419 . S
C717 C712 1.425 1_655 S
C717 C714 1.409 . S
C717 C715 1.415 . S
C718 H708 0.930 . S
C718 C716 1.419 . S
C718 C719 1.362 . S
C719 H709 0.930 . S
C719 C712 1.409 . S
C719 C718 1.362 . S
H720 C726 0.930 . S
H721 C729 0.930 . S
H722 C730 0.930 . S
H723 C731 0.930 . S
H724 C734 0.930 . S
H725 C735 0.930 . S
C726 H720 0.930 . S
C726 C727 1.353 1_545 S
C726 C728 1.415 . S
C727 C726 1.353 1_565 S
C727 C729 1.421 . S
C728 C726 1.415 . S
C728 C733 1.425 1_545 S
C728 C735 1.409 . S
C729 H721 0.930 . S
C729 C727 1.421 . S
C729 C730 1.362 . S
C730 H722 0.930 . S
C730 C729 1.362 . S
C730 C733 1.409 . S
C731 H723 0.930 . S
C731 C732 1.355 1_565 S
C731 C733 1.415 . S
C732 C731 1.355 1_545 S
C732 C734 1.419 . S
C733 C728 1.425 1_565 S
C733 C730 1.409 . S
C733 C731 1.415 . S
C734 H724 0.930 . S
C734 C732 1.419 . S
C734 C735 1.362 . S
C735 H725 0.930 . S
C735 C728 1.409 . S
C735 C734 1.362 . S
H736 C742 0.930 . S
H737 C745 0.930 . S
H738 C746 0.930 . S
H739 C747 0.930 . S
H740 C750 0.930 . S
H741 C751 0.930 . S
C742 H736 0.930 . S
C742 C743 1.355 . S
C742 C744 1.415 1_554 S
C743 C742 1.355 . S
C743 C745 1.419 . S
C744 C742 1.415 1_556 S
C744 C749 1.425 . S
C744 C751 1.409 . S
C745 H737 0.930 . S
C745 C743 1.419 . S
C745 C746 1.362 1_554 S
C746 H738 0.930 . S
C746 C745 1.362 1_556 S
C746 C749 1.409 . S
C747 H739 0.930 . S
C747 C748 1.355 . S
C747 C749 1.415 . S
C748 C747 1.355 . S
C748 C750 1.419 . S
C749 C744 1.425 . S
C749 C746 1.409 . S
C749 C747 1.415 . S
C750 H740 0.930 . S
C750 C748 1.419 . S
C750 C751 1.362 . S
C751 H741 0.930 . S
C751 C744 1.409 . S
C751 C750 1.362 . S
H752 C758 0.930 . S
H753 C761 0.930 . S
H754 C762 0.930 . S
H755 C763 0.930 . S
H756 C766 0.930 . S
H757 C767 0.930 . S
C758 H752 0.930 . S
C758 C759 1.355 . S
C758 C760 1.415 . S
C759 C758 1.355 . S
C759 C761 1.419 . S
C760 C758 1.415 . S
C760 C765 1.425 . S
C760 C767 1.409 . S
C761 H753 0.930 . S
C761 C759 1.419 . S
C761 C762 1.362 . S
C762 H754 0.930 . S
C762 C761 1.362 . S
C762 C765 1.409 . S
C763 H755 0.930 . S
C763 C764 1.355 . S
C763 C765 1.415 . S
C764 C763 1.355 . S
C764 C766 1.419 . S
C765 C760 1.425 . S
C765 C762 1.409 . S
C765 C763 1.415 . S
C766 H756 0.930 . S
C766 C764 1.419 . S
C766 C767 1.362 . S
C767 H757 0.930 . S
C767 C760 1.409 . S
C767 C766 1.362 . S
H768 C774 0.930 . S
H769 C777 0.930 . S
H770 C778 0.930 . S
H771 C779 0.930 . S
H772 C782 0.930 . S
H773 C783 0.930 . S
C774 H768 0.930 . S
C774 C775 1.355 1_455 S
C774 C776 1.415 . S
C775 C774 1.355 1_655 S
C775 C777 1.419 . S
C776 C774 1.415 . S
C776 C781 1.425 1_455 S
C776 C783 1.409 . S
C777 H769 0.930 . S
C777 C775 1.419 . S
C777 C778 1.362 . S
C778 H770 0.930 . S
C778 C777 1.362 . S
C778 C781 1.409 . S
C779 H771 0.930 . S
C779 C780 1.355 . S
C779 C781 1.415 . S
C780 C779 1.355 . S
C780 C782 1.419 1_655 S
C781 C776 1.425 1_655 S
C781 C778 1.409 . S
C781 C779 1.415 . S
C782 H772 0.930 . S
C782 C780 1.419 1_455 S
C782 C783 1.362 . S
C783 H773 0.930 . S
C783 C776 1.409 . S
C783 C782 1.362 . S
H784 C790 0.930 . S
H785 C793 0.930 . S
H786 C794 0.930 . S
H787 C795 0.930 1_545 S
H788 C798 0.930 . S
H789 C799 0.930 . S
C790 H784 0.930 . S
C790 C791 1.364 . S
C790 C792 1.415 . S
C791 C790 1.364 . S
C791 C793 1.413 1_565 S
C792 C790 1.415 . S
C792 C797 1.425 . S
C792 C799 1.409 . S
C793 H785 0.930 . S
C793 C791 1.413 1_545 S
C793 C794 1.362 . S
C794 H786 0.930 . S
C794 C793 1.362 . S
C794 C797 1.409 1_545 S
C795 H787 0.930 1_565 S
C795 C796 1.355 . S
C795 C797 1.415 . S
C796 C795 1.355 . S
C796 C798 1.419 . S
C797 C792 1.425 . S
C797 C794 1.409 1_565 S
C797 C795 1.415 . S
C798 H788 0.930 . S
C798 C796 1.419 . S
C798 C799 1.362 . S
C799 H789 0.930 . S
C799 C792 1.409 . S
C799 C798 1.362 . S
H800 C806 0.930 . S
H801 C809 0.930 . S
H802 C810 0.930 . S
H803 C811 0.930 . S
H804 C814 0.930 . S
H805 C815 0.930 . S
C806 H800 0.930 . S
C806 C807 1.355 . S
C806 C808 1.415 . S
C807 C806 1.355 . S
C807 C809 1.419 . S
C808 C806 1.415 . S
C808 C813 1.425 . S
C808 C815 1.409 . S
C809 H801 0.930 . S
C809 C807 1.419 . S
C809 C810 1.362 . S
C810 H802 0.930 . S
C810 C809 1.362 . S
C810 C813 1.409 . S
C811 H803 0.930 . S
C811 C812 1.355 . S
C811 C813 1.415 . S
C812 C811 1.355 . S
C812 C814 1.419 . S
C813 C808 1.425 . S
C813 C810 1.409 . S
C813 C811 1.415 . S
C814 H804 0.930 . S
C814 C812 1.419 . S
C814 C815 1.362 . S
C815 H805 0.930 . S
C815 C808 1.409 . S
C815 C814 1.362 . S
H816 C822 0.930 . S
H817 C825 0.930 . S
H818 C826 0.930 . S
H819 C827 0.930 . S
H820 C830 0.930 . S
H821 C831 0.930 . S
C822 H816 0.930 . S
C822 C823 1.355 . S
C822 C824 1.415 . S
C823 C822 1.355 . S
C823 C825 1.419 . S
C824 C822 1.415 . S
C824 C829 1.425 . S
C824 C831 1.409 . S
C825 H817 0.930 . S
C825 C823 1.419 . S
C825 C826 1.362 . S
C826 H818 0.930 . S
C826 C825 1.362 . S
C826 C829 1.409 . S
C827 H819 0.930 . S
C827 C828 1.355 . S
C827 C829 1.415 . S
C828 C827 1.355 . S
C828 C830 1.419 . S
C829 C824 1.425 . S
C829 C826 1.409 . S
C829 C827 1.415 . S
C830 H820 0.930 . S
C830 C828 1.419 . S
C830 C831 1.362 . S
C831 H821 0.930 . S
C831 C824 1.409 . S
C831 C830 1.362 . S
C455 C241 2.083 . S
C460 C290 2.260 . S
C476 C330 2.199 . S
C471 C277 2.094 . S
C492 C394 2.624 . S
C487 C169 2.477 . S
C508 C410 2.387 . S
C503 C205 2.047 . S
C524 C311 2.273 . S
C519 C97 2.145 1_565 S
C535 C133 2.128 . S
C540 C351 2.187 . S
C551 C25 2.472 . S
C556 C385 2.653 1_554 S
C567 C61 2.072 1_655 S
C572 C431 2.383 . S
C588 C305 0.581 . S
C583 C211 0.499 . S
C604 C345 0.609 . S
C599 C247 0.593 1_565 S
C620 C381 0.665 . S
C615 C253 0.639 . S
C631 C175 0.848 . S
C636 C425 0.839 . S
C647 C67 0.383 1_655 S
C652 C314 0.383 . S
C668 C354 0.699 1_554 S
C663 C103 0.740 . S
C684 C392 0.617 . S
C679 C109 0.591 . S
C695 C31 0.913 . S
C700 C434 0.900 . S
C711 C181 2.741 . S
C716 C312 3.086 . S
C727 C217 2.585 1_565 S
C732 C352 2.899 . S
C748 C370 2.073 . S
C743 C283 1.960 . S
C764 C432 3.491 . S
C759 C145 3.081 . S
C775 C37 2.759 1_655 S
C780 C301 3.085 . S
C796 C341 2.906 . S
C791 C73 2.612 1_565 S
C812 C391 2.041 . S
C807 C139 1.974 . S
C823 C1 3.111 . S
C828 C421 3.517 . S
