# Generated by pormake.
# Topology wbl, (4,4)-cn, num edge types: 1
# Building blocks:
#     Node 0, Type 0, BuildingBlock: MUDLON_clean_linker_0, # of connection points: 4
#     Node 1, Type 0, BuildingBlock: MUDLON_clean_linker_0, # of connection points: 4
#     Node 2, Type 0, BuildingBlock: MUDLON_clean_linker_0, # of connection points: 4
#     Node 3, Type 0, BuildingBlock: MUDLON_clean_linker_0, # of connection points: 4
#     Node 4, Type 0, BuildingBlock: MUDLON_clean_linker_0, # of connection points: 4
#     Node 5, Type 0, BuildingBlock: MUDLON_clean_linker_0, # of connection points: 4
#     Node 6, Type 0, BuildingBlock: MUDLON_clean_linker_0, # of connection points: 4
#     Node 7, Type 0, BuildingBlock: MUDLON_clean_linker_0, # of connection points: 4
#     Node 8, Type 1, BuildingBlock: CEKHIL_clean_sbu_0, # of connection points: 4
#     Node 9, Type 1, BuildingBlock: CEKHIL_clean_sbu_0, # of connection points: 4
#     Node 10, Type 1, BuildingBlock: CEKHIL_clean_sbu_0, # of connection points: 4
#     Node 11, Type 1, BuildingBlock: CEKHIL_clean_sbu_0, # of connection points: 4
#     Node 12, Type 1, BuildingBlock: CEKHIL_clean_sbu_0, # of connection points: 4
#     Node 13, Type 1, BuildingBlock: CEKHIL_clean_sbu_0, # of connection points: 4
#     Node 14, Type 1, BuildingBlock: CEKHIL_clean_sbu_0, # of connection points: 4
#     Node 15, Type 1, BuildingBlock: CEKHIL_clean_sbu_0, # of connection points: 4
#     Edge 16, Type (0, 1), BuildingBlock: CIFDUS_clean_linker_0, # of connection points: 2
#     Edge 17, Type (0, 1), BuildingBlock: CIFDUS_clean_linker_0, # of connection points: 2
#     Edge 18, Type (0, 1), BuildingBlock: CIFDUS_clean_linker_0, # of connection points: 2
#     Edge 19, Type (0, 1), BuildingBlock: CIFDUS_clean_linker_0, # of connection points: 2
#     Edge 20, Type (0, 1), BuildingBlock: CIFDUS_clean_linker_0, # of connection points: 2
#     Edge 21, Type (0, 1), BuildingBlock: CIFDUS_clean_linker_0, # of connection points: 2
#     Edge 22, Type (0, 1), BuildingBlock: CIFDUS_clean_linker_0, # of connection points: 2
#     Edge 23, Type (0, 1), BuildingBlock: CIFDUS_clean_linker_0, # of connection points: 2
#     Edge 24, Type (0, 1), BuildingBlock: CIFDUS_clean_linker_0, # of connection points: 2
#     Edge 25, Type (0, 1), BuildingBlock: CIFDUS_clean_linker_0, # of connection points: 2
#     Edge 26, Type (0, 1), BuildingBlock: CIFDUS_clean_linker_0, # of connection points: 2
#     Edge 27, Type (0, 1), BuildingBlock: CIFDUS_clean_linker_0, # of connection points: 2
#     Edge 28, Type (0, 1), BuildingBlock: CIFDUS_clean_linker_0, # of connection points: 2
#     Edge 29, Type (0, 1), BuildingBlock: CIFDUS_clean_linker_0, # of connection points: 2
#     Edge 30, Type (0, 1), BuildingBlock: CIFDUS_clean_linker_0, # of connection points: 2
#     Edge 31, Type (0, 1), BuildingBlock: CIFDUS_clean_linker_0, # of connection points: 2
#     Edge 32, Type (0, 1), BuildingBlock: CIFDUS_clean_linker_0, # of connection points: 2
#     Edge 33, Type (0, 1), BuildingBlock: CIFDUS_clean_linker_0, # of connection points: 2
#     Edge 34, Type (0, 1), BuildingBlock: CIFDUS_clean_linker_0, # of connection points: 2
#     Edge 35, Type (0, 1), BuildingBlock: CIFDUS_clean_linker_0, # of connection points: 2
#     Edge 36, Type (0, 1), BuildingBlock: CIFDUS_clean_linker_0, # of connection points: 2
#     Edge 37, Type (0, 1), BuildingBlock: CIFDUS_clean_linker_0, # of connection points: 2
#     Edge 38, Type (0, 1), BuildingBlock: CIFDUS_clean_linker_0, # of connection points: 2
#     Edge 39, Type (0, 1), BuildingBlock: CIFDUS_clean_linker_0, # of connection points: 2
#     Edge 40, Type (0, 1), BuildingBlock: CIFDUS_clean_linker_0, # of connection points: 2
#     Edge 41, Type (0, 1), BuildingBlock: CIFDUS_clean_linker_0, # of connection points: 2
#     Edge 42, Type (0, 1), BuildingBlock: CIFDUS_clean_linker_0, # of connection points: 2
#     Edge 43, Type (0, 1), BuildingBlock: CIFDUS_clean_linker_0, # of connection points: 2
#     Edge 44, Type (0, 1), BuildingBlock: CIFDUS_clean_linker_0, # of connection points: 2
#     Edge 45, Type (0, 1), BuildingBlock: CIFDUS_clean_linker_0, # of connection points: 2
#     Edge 46, Type (0, 1), BuildingBlock: CIFDUS_clean_linker_0, # of connection points: 2
#     Edge 47, Type (0, 1), BuildingBlock: CIFDUS_clean_linker_0, # of connection points: 2
# Relax obj value: 0.122
# Max RMSD: 0.151
# Mean RMSD: 0.136
data_MOF--net-wbl--node1-CEKHIL_clean_sbu_0--node2-MUDLON_clean_linker_0--edge1-CIFDUS_clean_linker_0
_symmetry_space_group_name_H-M    P1
_symmetry_Int_Tables_number       1
_symmetry_cell_setting            triclinic
loop_
_symmetry_equiv_pos_as_xyz
'x, y, z'
_cell_length_a     48.625715
_cell_length_b     48.838735
_cell_length_c     69.784025
_cell_angle_alpha  90.304399
_cell_angle_beta   90.044803
_cell_angle_gamma 89.924581
loop_
_atom_site_label
_atom_site_type_symbol
_atom_site_fract_x
_atom_site_fract_y
_atom_site_fract_z
_atom_type_partial_charge
H0 H 0.09581 0.9689 0.33342 0.0
N1 N 0.08067 0.93748 0.30251 0.0
H2 H 0.10627 0.9523 0.36549 0.0
H3 H 0.07237 0.88743 0.31593 0.0
H4 H 0.08236 0.87063 0.34822 0.0
H5 H 0.08941 0.90224 0.27413 0.0
H6 H 0.13406 0.88762 0.26148 0.0
H7 H 0.12941 0.96486 0.30771 0.0
H8 H 0.17389 0.95024 0.29546 0.0
H9 H 0.09175 0.99284 0.30295 0.0
H10 H 0.02781 0.93311 0.29413 0.0
H11 H 0.05778 0.02955 0.30153 0.0
H12 H 0.99366 0.9698 0.29206 0.0
H13 H 0.90412 0.06949 0.32973 0.0
H14 H 0.89374 0.08161 0.36277 0.0
H15 H 0.96534 0.13354 0.36483 0.0
H16 H 0.9753 0.12222 0.33109 0.0
H17 H 0.90623 0.05368 0.29616 0.0
H18 H 0.86103 0.06497 0.28402 0.0
H19 H 0.88547 0.14975 0.27868 0.0
H20 H 0.9303 0.13832 0.29232 0.0
H21 H 0.99168 0.09205 0.28705 0.0
H22 H 0.02505 0.05492 0.28231 0.0
H23 H 0.97262 1.00065 0.31455 0.0
N24 N 0.94557 0.09091 0.30749 0.0
H25 H 0.93945 0.03744 0.31883 0.0
C26 C 0.0832 0.92932 0.32225 0.0
C27 C 0.09235 0.94754 0.33656 0.0
C28 C 0.0983 0.93801 0.35494 0.0
C29 C 0.09533 0.91011 0.35934 0.0
C30 C 0.08524 0.89216 0.34519 0.0
C31 C 0.07925 0.90173 0.32683 0.0
C32 C 0.10583 0.93474 0.29172 0.0
C33 C 0.1077 0.91343 0.27826 0.0
C34 C 0.13328 0.90484 0.2713 0.0
C35 C 0.15764 0.91744 0.2777 0.0
C36 C 0.15559 0.94016 0.29012 0.0
C37 C 0.12997 0.94871 0.29708 0.0
C38 C 0.0623 0.96005 0.29873 0.0
C39 C 0.07052 0.98756 0.30031 0.0
C40 C 0.05097 0.00865 0.2994 0.0
C41 C 0.02285 0.00268 0.29687 0.0
C42 C 0.015 0.97518 0.29438 0.0
C43 C 0.03451 0.95419 0.29536 0.0
C44 C 0.94035 0.09544 0.32765 0.0
C45 C 0.91768 0.08357 0.33705 0.0
C46 C 0.91171 0.0904 0.35602 0.0
C47 C 0.92863 0.10861 0.36615 0.0
C48 C 0.95202 0.11945 0.3572 0.0
C49 C 0.95769 0.11304 0.33802 0.0
C50 C 0.92174 0.09527 0.29546 0.0
C51 C 0.90221 0.0746 0.29205 0.0
C52 C 0.87613 0.08118 0.28495 0.0
C53 C 0.8691 0.10849 0.28061 0.0
C54 C 0.88964 0.12865 0.28238 0.0
C55 C 0.91552 0.12211 0.28986 0.0
C56 C 0.963 0.06768 0.30319 0.0
C57 C 0.98724 0.07197 0.29277 0.0
C58 C 0.00639 0.0508 0.29024 0.0
C59 C 0.00163 0.02475 0.2981 0.0
C60 C 0.97685 0.02027 0.30804 0.0
C61 C 0.95778 0.04144 0.31056 0.0
H62 H 0.97096 0.4044 0.57866 0.0
N63 N 0.94206 0.44189 0.55769 0.0
H64 H 0.96153 0.39089 0.61171 0.0
H65 H 0.90569 0.46411 0.58154 0.0
H66 H 0.8953 0.44964 0.61444 0.0
H67 H 0.89262 0.42103 0.55212 0.0
H68 H 0.88135 0.37613 0.53971 0.0
H69 H 0.97751 0.40901 0.53632 0.0
H70 H 0.96608 0.36507 0.52222 0.0
H71 H 0.99782 0.43328 0.56151 0.0
H72 H 0.93688 0.49235 0.5442 0.0
H73 H 0.03371 0.46726 0.55781 0.0
H74 H 0.97279 0.52717 0.54122 0.0
H75 H 0.14098 0.58546 0.56698 0.0
H76 H 0.15565 0.60224 0.59855 0.0
H77 H 0.07101 0.61966 0.613 0.0
H78 H 0.05659 0.60292 0.5815 0.0
H79 H 0.04905 0.62283 0.55117 0.0
H80 H 0.05342 0.66851 0.5375 0.0
H81 H 0.13243 0.64614 0.5138 0.0
H82 H 0.12815 0.60063 0.52803 0.0
H83 H 0.08382 0.54083 0.5759 0.0
H84 H 0.04862 0.50598 0.57494 0.0
H85 H 0.01306 0.54367 0.52484 0.0
N86 N 0.09016 0.58435 0.55273 0.0
H87 H 0.04783 0.57933 0.52612 0.0
C88 C 0.9394 0.43584 0.5778 0.0
C89 C 0.9552 0.41522 0.58657 0.0
C90 C 0.94959 0.40726 0.60537 0.0
C91 C 0.9277 0.41924 0.61547 0.0
C92 C 0.91226 0.44013 0.60685 0.0
C93 C 0.91826 0.44851 0.58821 0.0
C94 C 0.93589 0.41857 0.54555 0.0
C95 C 0.90868 0.40909 0.54529 0.0
C96 C 0.90226 0.38322 0.53803 0.0
C97 C 0.92281 0.36628 0.53011 0.0
C98 C 0.94975 0.37685 0.52883 0.0
C99 C 0.95634 0.40246 0.53673 0.0
C100 C 0.96442 0.46012 0.55295 0.0
C101 C 0.99207 0.45343 0.55664 0.0
C102 C 0.01269 0.47314 0.55474 0.0
C103 C 0.00621 0.5002 0.5495 0.0
C104 C 0.97868 0.50655 0.54511 0.0
C105 C 0.95809 0.48668 0.54682 0.0
C106 C 0.09781 0.59282 0.5719 0.0
C107 C 0.12566 0.59276 0.57704 0.0
C108 C 0.13395 0.60239 0.59502 0.0
C109 C 0.11448 0.61242 0.6082 0.0
C110 C 0.08653 0.6125 0.60303 0.0
C111 C 0.07824 0.60278 0.58508 0.0
C112 C 0.0884 0.60825 0.54066 0.0
C113 C 0.067 0.62751 0.54266 0.0
C114 C 0.06953 0.65366 0.53478 0.0
C115 C 0.09351 0.66112 0.52482 0.0
C116 C 0.11394 0.6412 0.5217 0.0
C117 C 0.11137 0.61508 0.52956 0.0
C118 C 0.06799 0.56424 0.55192 0.0
C119 C 0.06814 0.54224 0.56492 0.0
C120 C 0.04815 0.5218 0.56414 0.0
C121 C 0.02776 0.52198 0.54987 0.0
C122 C 0.02804 0.54323 0.53633 0.0
C123 C 0.04804 0.5639 0.53718 0.0
H124 H 0.62156 0.44389 0.82507 0.0
N125 N 0.57566 0.42867 0.80483 0.0
H126 H 0.63071 0.4348 0.8589 0.0
H127 H 0.54193 0.4058 0.83015 0.0
H128 H 0.55081 0.39717 0.86424 0.0
H129 H 0.59096 0.37765 0.7977 0.0
H130 H 0.63407 0.36196 0.78387 0.0
H131 H 0.61271 0.46118 0.78494 0.0
H132 H 0.65498 0.44561 0.77003 0.0
H133 H 0.59131 0.48146 0.81268 0.0
H134 H 0.52631 0.43217 0.78868 0.0
H135 H 0.56213 0.52192 0.81082 0.0
H136 H 0.49639 0.47248 0.78744 0.0
H137 H 0.46071 0.639 0.82507 0.0
H138 H 0.45253 0.65335 0.85845 0.0
H139 H 0.41931 0.5735 0.87086 0.0
H140 H 0.42852 0.55896 0.83798 0.0
H141 H 0.41219 0.54854 0.80817 0.0
H142 H 0.36555 0.55122 0.79577 0.0
H143 H 0.38237 0.63218 0.7739 0.0
H144 H 0.42871 0.62987 0.78754 0.0
H145 H 0.49223 0.57512 0.83268 0.0
H146 H 0.52372 0.53747 0.82865 0.0
H147 H 0.48621 0.51732 0.7743 0.0
N148 N 0.4499 0.59037 0.80916 0.0
H149 H 0.45375 0.5548 0.77849 0.0
C150 C 0.58111 0.42508 0.82501 0.0
C151 C 0.60598 0.43368 0.83346 0.0
C152 C 0.61122 0.42849 0.85278 0.0
C153 C 0.59151 0.41519 0.86408 0.0
C154 C 0.56628 0.40756 0.85582 0.0
C155 C 0.56123 0.41235 0.83641 0.0
C156 C 0.59837 0.42053 0.79263 0.0
C157 C 0.60463 0.39254 0.79133 0.0
C158 C 0.62939 0.38361 0.78334 0.0
C159 C 0.64846 0.40248 0.776 0.0
C160 C 0.64129 0.43046 0.77604 0.0
C161 C 0.6167 0.43945 0.78443 0.0
C162 C 0.56104 0.45369 0.80064 0.0
C163 C 0.57094 0.47942 0.80661 0.0
C164 C 0.55403 0.50254 0.80578 0.0
C165 C 0.52668 0.50044 0.79928 0.0
C166 C 0.51735 0.47496 0.79238 0.0
C167 C 0.53441 0.45188 0.79307 0.0
C168 C 0.44489 0.59814 0.8289 0.0
C169 C 0.45171 0.62466 0.83504 0.0
C170 C 0.44707 0.63277 0.85402 0.0
C171 C 0.43506 0.61456 0.86708 0.0
C172 C 0.42819 0.58802 0.86095 0.0
C173 C 0.43329 0.57977 0.84212 0.0
C174 C 0.42398 0.58921 0.79896 0.0
C175 C 0.40592 0.56686 0.80071 0.0
C176 C 0.37922 0.56833 0.79336 0.0
C177 C 0.36995 0.59204 0.78393 0.0
C178 C 0.38852 0.61382 0.78142 0.0
C179 C 0.41515 0.61242 0.78895 0.0
C180 C 0.46855 0.56708 0.80671 0.0
C181 C 0.48988 0.56236 0.82007 0.0
C182 C 0.50856 0.54095 0.81756 0.0
C183 C 0.50739 0.52404 0.80124 0.0
C184 C 0.48723 0.52947 0.78731 0.0
C185 C 0.46839 0.55094 0.78984 0.0
H186 H 0.45134 0.89496 0.07217 0.0
N187 N 0.433 0.9396 0.052 0.0
H188 H 0.44141 0.88452 0.10563 0.0
H189 H 0.40667 0.97108 0.07745 0.0
H190 H 0.39765 0.96099 0.1114 0.0
H191 H 0.38511 0.91508 0.04583 0.0
H192 H 0.3781 0.86815 0.03507 0.0
H193 H 0.47105 0.90915 0.03079 0.0
H194 H 0.46384 0.86302 0.01915 0.0
H195 H 0.48663 0.92879 0.06164 0.0
H196 H 0.4335 0.98861 0.03548 0.0
H197 H 0.52509 0.96045 0.05976 0.0
H198 H 0.47189 0.02104 0.03411 0.0
H199 H 0.63915 0.06897 0.06965 0.0
H200 H 0.65245 0.08555 0.10157 0.0
H201 H 0.56917 0.11316 0.11135 0.0
H202 H 0.55605 0.09641 0.07957 0.0
H203 H 0.54962 0.1111 0.04792 0.0
H204 H 0.55589 0.15585 0.03317 0.0
H205 H 0.63783 0.1324 0.01564 0.0
H206 H 0.63157 0.08777 0.03087 0.0
H207 H 0.57527 0.03345 0.07859 0.0
H208 H 0.53811 1.00092 0.0763 0.0
H209 H 0.51668 0.03219 0.0205 0.0
N210 N 0.59001 0.07248 0.05298 0.0
H211 H 0.55357 0.06557 0.0229 0.0
C212 C 0.42924 0.93373 0.07215 0.0
C213 C 0.43952 0.90954 0.08051 0.0
C214 C 0.43389 0.90353 0.09962 0.0
C215 C 0.41866 0.92189 0.11088 0.0
C216 C 0.40941 0.94655 0.10287 0.0
C217 C 0.41451 0.9523 0.08359 0.0
C218 C 0.42868 0.9157 0.0399 0.0
C219 C 0.40226 0.90408 0.03954 0.0
C220 C 0.39828 0.87713 0.03333 0.0
C221 C 0.42062 0.86134 0.02682 0.0
C222 C 0.44639 0.87416 0.02486 0.0
C223 C 0.45049 0.90091 0.03148 0.0
C224 C 0.45705 0.95628 0.04858 0.0
C225 C 0.48328 0.94865 0.05526 0.0
C226 C 0.50526 0.96695 0.05435 0.0
C227 C 0.50154 0.99351 0.04705 0.0
C228 C 0.47558 1.00071 0.03968 0.0
C229 C 0.4536 0.98224 0.04046 0.0
C230 C 0.59672 0.08135 0.07224 0.0
C231 C 0.62381 0.07848 0.07876 0.0
C232 C 0.63133 0.088 0.09692 0.0
C233 C 0.61186 0.10078 0.10889 0.0
C234 C 0.58471 0.1038 0.10232 0.0
C235 C 0.57716 0.09413 0.08419 0.0
C236 C 0.59026 0.09605 0.04053 0.0
C237 C 0.56871 0.11534 0.04056 0.0
C238 C 0.5723 0.14092 0.03205 0.0
C239 C 0.59751 0.14778 0.02346 0.0
C240 C 0.61834 0.12786 0.02242 0.0
C241 C 0.61469 0.10226 0.03087 0.0
C242 C 0.56656 0.05389 0.05162 0.0
C243 C 0.56225 0.03417 0.06602 0.0
C244 C 0.54116 0.01497 0.06454 0.0
C245 C 0.52416 0.01401 0.04828 0.0
C246 C 0.52893 0.03281 0.03346 0.0
C247 C 0.55009 0.05218 0.03495 0.0
H248 H 0.11702 0.53179 0.90794 0.0
N249 N 0.08805 0.55287 0.93677 0.0
H250 H 0.12857 0.55401 0.87756 0.0
H251 H 0.06665 0.6011 0.92351 0.0
H252 H 0.07779 0.62315 0.89335 0.0
H253 H 0.08891 0.60395 0.95282 0.0
H254 H 0.12841 0.62422 0.96896 0.0
H255 H 0.12868 0.52518 0.95312 0.0
H256 H 0.16725 0.5445 0.971 0.0
H257 H 0.07855 0.5 0.94219 0.0
H258 H 0.03947 0.57904 0.94421 0.0
H259 H 0.03436 0.47785 0.94779 0.0
H260 H 0.99485 0.55742 0.94763 0.0
H261 H 0.90379 0.41849 0.92747 0.0
H262 H 0.89595 0.39688 0.89629 0.0
H263 H 0.88531 0.47661 0.87084 0.0
H264 H 0.89277 0.49816 0.90228 0.0
H265 H 0.85291 0.4953 0.94118 0.0
H266 H 0.81508 0.47614 0.95947 0.0
H267 H 0.86884 0.41211 0.98012 0.0
H268 H 0.90677 0.43165 0.96134 0.0
H269 H 0.95058 0.447 0.92745 0.0
H270 H 0.99603 0.46587 0.93158 0.0
H271 H 0.96156 0.53416 0.96331 0.0
N272 N 0.90184 0.4734 0.93555 0.0
H273 H 0.91555 0.5162 0.95733 0.0
C274 C 0.0909 0.56457 0.91797 0.0
C275 C 0.10797 0.55148 0.90461 0.0
C276 C 0.11456 0.56422 0.88732 0.0
C277 C 0.10425 0.59045 0.88316 0.0
C278 C 0.08635 0.60312 0.89628 0.0
C279 C 0.07971 0.59031 0.91351 0.0
C280 C 0.10635 0.5632 0.95126 0.0
C281 C 0.10582 0.59083 0.9569 0.0
C282 C 0.12846 0.60237 0.96633 0.0
C283 C 0.15164 0.58624 0.97076 0.0
C284 C 0.1504 0.55787 0.9671 0.0
C285 C 0.12814 0.54659 0.95721 0.0
C286 C 0.06219 0.54102 0.9422 0.0
C287 C 0.0603 0.51254 0.94378 0.0
C288 C 0.03487 0.49994 0.94673 0.0
C289 C 0.01052 0.51559 0.94765 0.0
C290 C 0.01285 0.5444 0.94711 0.0
C291 C 0.03847 0.55697 0.94474 0.0
C292 C 0.89863 0.46004 0.91719 0.0
C293 C 0.89955 0.43135 0.91526 0.0
C294 C 0.89502 0.41899 0.89744 0.0
C295 C 0.88987 0.43507 0.8812 0.0
C296 C 0.88936 0.46374 0.88312 0.0
C297 C 0.89361 0.47606 0.90099 0.0
C298 C 0.88242 0.46487 0.94985 0.0
C299 C 0.8567 0.47764 0.95013 0.0
C300 C 0.83512 0.46661 0.96067 0.0
C301 C 0.83882 0.44244 0.97126 0.0
C302 C 0.86522 0.43055 0.97194 0.0
C303 C 0.88694 0.44176 0.96136 0.0
C304 C 0.92933 0.48056 0.94166 0.0
C305 C 0.95263 0.46594 0.9354 0.0
C306 C 0.97897 0.47677 0.93801 0.0
C307 C 0.98286 0.50205 0.9475 0.0
C308 C 0.9596 0.51523 0.95531 0.0
C309 C 0.93319 0.50476 0.9522 0.0
H310 H 0.55476 0.3871 0.17466 0.0
N311 N 0.5767 0.42927 0.19567 0.0
H312 H 0.5589 0.38036 0.13996 0.0
H313 H 0.60101 0.4621 0.17066 0.0
H314 H 0.60483 0.45571 0.13588 0.0
H315 H 0.6285 0.416 0.20229 0.0
H316 H 0.64623 0.37294 0.21468 0.0
H317 H 0.54563 0.38932 0.21343 0.0
H318 H 0.56312 0.34674 0.2267 0.0
H319 H 0.52168 0.41766 0.19282 0.0
H320 H 0.57982 0.47891 0.21104 0.0
H321 H 0.48412 0.44998 0.19742 0.0
H322 H 0.54266 0.5122 0.21437 0.0
H323 H 0.38043 0.58097 0.1808 0.0
H324 H 0.37091 0.59713 0.14868 0.0
H325 H 0.45721 0.58817 0.13443 0.0
H326 H 0.46671 0.57531 0.16736 0.0
H327 H 0.4735 0.60495 0.19771 0.0
H328 H 0.47243 0.65275 0.20783 0.0
H329 H 0.3878 0.64289 0.22569 0.0
H330 H 0.39019 0.59462 0.21714 0.0
H331 H 0.4327 0.52239 0.17753 0.0
H332 H 0.46672 0.48665 0.18086 0.0
H333 H 0.50293 0.53017 0.22868 0.0
N334 N 0.42915 0.5704 0.19651 0.0
H335 H 0.4696 0.56675 0.22472 0.0
C336 C 0.5779 0.42505 0.17523 0.0
C337 C 0.56577 0.40212 0.16632 0.0
C338 C 0.56817 0.39826 0.14653 0.0
C339 C 0.58221 0.4175 0.13529 0.0
C340 C 0.59374 0.44067 0.1442 0.0
C341 C 0.59167 0.44431 0.16399 0.0
C342 C 0.58581 0.40616 0.20688 0.0
C343 C 0.61416 0.40118 0.20801 0.0
C344 C 0.62426 0.37646 0.21514 0.0
C345 C 0.60617 0.35602 0.22159 0.0
C346 C 0.57771 0.36166 0.22147 0.0
C347 C 0.56761 0.38634 0.21407 0.0
C348 C 0.55368 0.44569 0.20197 0.0
C349 C 0.52634 0.43784 0.19838 0.0
C350 C 0.50484 0.45669 0.20061 0.0
C351 C 0.51019 0.48409 0.20593 0.0
C352 C 0.53746 0.49136 0.21047 0.0
C353 C 0.55884 0.47233 0.20858 0.0
C354 C 0.4241 0.57647 0.17649 0.0
C355 C 0.39721 0.58241 0.17066 0.0
C356 C 0.39183 0.59143 0.15209 0.0
C357 C 0.41317 0.59386 0.13852 0.0
C358 C 0.44015 0.58722 0.14434 0.0
C359 C 0.44564 0.57928 0.16318 0.0
C360 C 0.43195 0.59602 0.20687 0.0
C361 C 0.45517 0.61283 0.20462 0.0
C362 C 0.45423 0.64045 0.21005 0.0
C363 C 0.42971 0.65228 0.21712 0.0
C364 C 0.40718 0.63487 0.2205 0.0
C365 C 0.40846 0.60708 0.21562 0.0
C366 C 0.4494 0.54875 0.19977 0.0
C367 C 0.44825 0.52471 0.18854 0.0
C368 C 0.46756 0.50379 0.19074 0.0
C369 C 0.48811 0.50548 0.20488 0.0
C370 C 0.48808 0.52848 0.21717 0.0
C371 C 0.46889 0.5497 0.21479 0.0
H372 H 0.38251 0.96914 0.41761 0.0
N373 N 0.42074 0.94479 0.44086 0.0
H374 H 0.37268 0.95721 0.38424 0.0
H375 H 0.44667 0.90823 0.41915 0.0
H376 H 0.43683 0.89595 0.38576 0.0
H377 H 0.40321 0.8981 0.45541 0.0
H378 H 0.35897 0.88918 0.47053 0.0
H379 H 0.38428 0.9842 0.45317 0.0
H380 H 0.34033 0.97574 0.46899 0.0
H381 H 0.41894 0.99861 0.42975 0.0
H382 H 0.46701 0.93923 0.46063 0.0
H383 H 0.45614 0.03181 0.4328 0.0
H384 H 0.50421 0.97261 0.46424 0.0
H385 H 0.57389 0.13209 0.43169 0.0
H386 H 0.58746 0.14919 0.4002 0.0
H387 H 0.59936 0.06581 0.38065 0.0
H388 H 0.58419 0.04914 0.41159 0.0
H389 H 0.61691 0.04513 0.43639 0.0
H390 H 0.66264 0.04827 0.44978 0.0
H391 H 0.6357 0.11344 0.48745 0.0
H392 H 0.5894 0.11031 0.47364 0.0
H393 H 0.52193 0.09229 0.45139 0.0
H394 H 0.48297 0.06073 0.45375 0.0
H395 H 0.53792 0.99265 0.44344 0.0
N396 N 0.57396 0.08049 0.44353 0.0
H397 H 0.57647 0.024 0.44161 0.0
C398 C 0.41542 0.93948 0.42086 0.0
C399 C 0.39459 0.95329 0.41075 0.0
C400 C 0.38885 0.94632 0.3917 0.0
C401 C 0.40392 0.92559 0.38238 0.0
C402 C 0.42504 0.91221 0.39246 0.0
C403 C 0.43067 0.91911 0.41151 0.0
C404 C 0.39716 0.9417 0.45318 0.0
C405 C 0.38982 0.9152 0.45878 0.0
C406 C 0.36448 0.91018 0.46747 0.0
C407 C 0.34583 0.9317 0.47088 0.0
C408 C 0.35392 0.95858 0.46627 0.0
C409 C 0.37927 0.96354 0.4574 0.0
C410 C 0.44024 0.96629 0.44495 0.0
C411 C 0.43725 0.99287 0.43757 0.0
C412 C 0.4586 0.01194 0.43938 0.0
C413 C 0.48337 0.00486 0.44861 0.0
C414 C 0.48568 0.97864 0.45674 0.0
C415 C 0.46435 0.95962 0.45488 0.0
C416 C 0.57808 0.08945 0.42408 0.0
C417 C 0.57882 0.11759 0.4204 0.0
C418 C 0.58697 0.12729 0.40248 0.0
C419 C 0.59495 0.10894 0.38788 0.0
C420 C 0.59314 0.08063 0.3914 0.0
C421 C 0.58459 0.07099 0.40924 0.0
C422 C 0.5993 0.07736 0.45414 0.0
C423 C 0.62025 0.05944 0.44799 0.0
C424 C 0.64671 0.06134 0.45567 0.0
C425 C 0.65299 0.08126 0.46961 0.0
C426 C 0.63167 0.09811 0.47654 0.0
C427 C 0.60512 0.09612 0.46886 0.0
C428 C 0.55222 0.06077 0.4464 0.0
C429 C 0.52555 0.0705 0.44992 0.0
C430 C 0.50329 0.05244 0.45111 0.0
C431 C 0.50722 0.02408 0.44875 0.0
C432 C 0.53411 0.01429 0.44563 0.0
C433 C 0.55635 0.03237 0.44446 0.0
H434 H 0.04205 0.89553 0.67145 0.0
N435 N 0.06288 0.93032 0.6988 0.0
H436 H 0.05609 0.89266 0.63795 0.0
H437 H 0.10037 0.96059 0.68113 0.0
H438 H 0.11425 0.95811 0.64734 0.0
H439 H 0.10735 0.91722 0.71864 0.0
H440 H 0.119 0.87261 0.73214 0.0
H441 H 0.02695 0.88723 0.70338 0.0
H442 H 0.03877 0.84233 0.71585 0.0
H443 H 0.00872 0.92445 0.68841 0.0
H444 H 0.0662 0.97812 0.71681 0.0
H445 H 0.97319 0.95966 0.69062 0.0
H446 H 0.03078 0.01389 0.71861 0.0
H447 H 0.94525 0.10835 0.66855 0.0
H448 H 0.93522 0.11615 0.63483 0.0
H449 H 0.87147 0.05479 0.6368 0.0
H450 H 0.88135 0.04729 0.67089 0.0
H451 H 0.95548 0.11369 0.7013 0.0
H452 H 0.94452 0.15853 0.71398 0.0
H453 H 0.86088 0.13233 0.72431 0.0
H454 H 0.87179 0.08782 0.71004 0.0
H455 H 0.91052 0.02518 0.70946 0.0
H456 H 0.94471 0.98884 0.71456 0.0
H457 H 0.00775 0.04122 0.6914 0.0
N458 N 0.91804 0.07318 0.69263 0.0
H459 H 0.97361 0.07688 0.68584 0.0
C460 C 0.07044 0.92818 0.67889 0.0
C461 C 0.05797 0.90912 0.66645 0.0
C462 C 0.06605 0.90743 0.64728 0.0
C463 C 0.08634 0.92507 0.64011 0.0
C464 C 0.0985 0.94433 0.6525 0.0
C465 C 0.09067 0.94575 0.67174 0.0
C466 C 0.06644 0.90569 0.70987 0.0
C467 C 0.09204 0.90113 0.71851 0.0
C468 C 0.09878 0.87547 0.72594 0.0
C469 C 0.08009 0.85355 0.7247 0.0
C470 C 0.05372 0.85865 0.71712 0.0
C471 C 0.04691 0.88448 0.70986 0.0
C472 C 0.04013 0.94841 0.70284 0.0
C473 C 0.01351 0.94338 0.69573 0.0
C474 C 0.99319 0.96368 0.69688 0.0
C475 C 0.99924 0.98956 0.70475 0.0
C476 C 0.02556 0.99419 0.71241 0.0
C477 C 0.0457 0.97374 0.71154 0.0
C478 C 0.9138 0.07728 0.67238 0.0
C479 C 0.92907 0.09655 0.66189 0.0
C480 C 0.92327 0.10111 0.64256 0.0
C481 C 0.90245 0.08623 0.63325 0.0
C482 C 0.88769 0.0665 0.64362 0.0
C483 C 0.89327 0.0622 0.66303 0.0
C484 C 0.91428 0.09733 0.70437 0.0
C485 C 0.93487 0.11729 0.70646 0.0
C486 C 0.92853 0.14314 0.71396 0.0
C487 C 0.90158 0.14951 0.71998 0.0
C488 C 0.88165 0.12863 0.71934 0.0
C489 C 0.88792 0.10297 0.71147 0.0
C490 C 0.93942 0.05397 0.69763 0.0
C491 C 0.93183 0.02895 0.70583 0.0
C492 C 0.9513 0.0082 0.70863 0.0
C493 C 0.97891 0.01226 0.70347 0.0
C494 C 0.98671 0.03767 0.69582 0.0
C495 C 0.96713 0.05823 0.69272 0.0
Co496 Co 0.34429 0.65276 0.00621 0.0
O497 O 0.32308 0.62033 0.00115 0.0
O498 O 0.30943 0.66266 0.99473 0.0
C499 C 0.35607 0.64126 0.03632 0.0
O500 O 0.36007 0.69124 0.00977 0.0
Co501 Co 0.40667 0.64915 0.014 0.0
O502 O 0.40352 0.68845 0.02052 0.0
C503 C 0.38623 0.64264 0.9745 0.0
C504 C 0.3042 0.63655 0.99459 0.0
C505 C 0.38236 0.70241 0.01604 0.0
O506 O 0.36191 0.64906 0.98021 0.0
O507 O 0.4067 0.63997 0.98589 0.0
O508 O 0.33247 0.65261 0.03278 0.0
O509 O 0.37095 0.63523 0.02152 0.0
Co510 Co 0.35456 0.86044 0.24251 0.0
O511 O 0.33192 0.89263 0.24466 0.0
O512 O 0.31981 0.85155 0.25474 0.0
C513 C 0.36617 0.86766 0.2117 0.0
O514 O 0.37208 0.82217 0.24187 0.0
Co515 Co 0.4168 0.86499 0.23372 0.0
O516 O 0.41369 0.82534 0.22806 0.0
C517 C 0.3963 0.87826 0.27256 0.0
C518 C 0.31341 0.87723 0.25246 0.0
C519 C 0.39377 0.81116 0.23444 0.0
O520 O 0.3722 0.86936 0.26803 0.0
O521 O 0.41613 0.87986 0.26056 0.0
O522 O 0.3432 0.85553 0.21586 0.0
O523 O 0.38036 0.87646 0.22609 0.0
Co524 Co 0.14564 0.85997 0.49702 0.0
O525 O 0.11922 0.83098 0.50016 0.0
O526 O 0.16372 0.82729 0.50631 0.0
C527 C 0.13099 0.87305 0.46786 0.0
O528 O 0.17945 0.88466 0.49447 0.0
Co529 Co 0.12746 0.9206 0.49322 0.0
O530 O 0.16555 0.92581 0.48389 0.0
C531 C 0.12642 0.89415 0.53115 0.0
C532 C 0.13963 0.81574 0.5056 0.0
C533 C 0.1845 0.90857 0.48754 0.0
O534 O 0.13852 0.8729 0.5241 0.0
O535 O 0.11876 0.91452 0.52096 0.0
O536 O 0.1475 0.85226 0.46961 0.0
O537 O 0.12217 0.88366 0.4837 0.0
Co538 Co 0.16254 0.66428 0.75235 0.0
O539 O 0.13097 0.6874 0.74736 0.0
O540 O 0.17442 0.70029 0.74475 0.0
C541 C 0.14676 0.64654 0.78004 0.0
O542 O 0.2006 0.64783 0.75723 0.0
Co543 Co 0.15933 0.60078 0.75505 0.0
O544 O 0.19791 0.60293 0.76388 0.0
C545 C 0.15864 0.62748 0.71711 0.0
C546 C 0.14852 0.70669 0.7436 0.0
C547 C 0.21164 0.62498 0.76228 0.0
O548 O 0.16267 0.65122 0.72476 0.0
O549 O 0.15532 0.60554 0.72677 0.0
O550 O 0.15823 0.67058 0.77992 0.0
O551 O 0.1434 0.63514 0.76349 0.0
Co552 Co 0.85324 0.17442 0.49461 0.0
O553 O 0.88246 0.2006 0.49838 0.0
O554 O 0.83866 0.20793 0.50541 0.0
C555 C 0.86544 0.16252 0.46457 0.0
O556 O 0.81699 0.15362 0.49202 0.0
Co557 Co 0.86413 0.11291 0.48742 0.0
O558 O 0.82416 0.11033 0.48224 0.0
C559 C 0.87004 0.13558 0.52654 0.0
C560 C 0.86364 0.2173 0.50459 0.0
C561 C 0.80808 0.13006 0.48645 0.0
O562 O 0.86023 0.15873 0.52093 0.0
O563 O 0.87493 0.1156 0.51508 0.0
O564 O 0.85068 0.18427 0.46767 0.0
O565 O 0.8739 0.1497 0.47962 0.0
Co566 Co 0.84885 0.35776 0.743 0.0
O567 O 0.82425 0.38859 0.74516 0.0
O568 O 0.81459 0.34644 0.75461 0.0
C569 C 0.86138 0.36566 0.71244 0.0
O570 O 0.86829 0.32056 0.74248 0.0
Co571 Co 0.91127 0.36605 0.73578 0.0
O572 O 0.91292 0.32559 0.73467 0.0
C573 C 0.88674 0.38189 0.77275 0.0
C574 C 0.80673 0.37173 0.75265 0.0
C575 C 0.89229 0.31066 0.73873 0.0
O576 O 0.86516 0.36765 0.76879 0.0
O577 O 0.90601 0.38606 0.76064 0.0
O578 O 0.83862 0.35278 0.71612 0.0
O579 O 0.8745 0.37499 0.72715 0.0
Co580 Co 0.64915 0.34637 0.99576 0.0
O581 O 0.62413 0.31595 0.9958 0.0
O582 O 0.66666 0.31478 0.00714 0.0
C583 C 0.64122 0.35889 0.96525 0.0
O584 O 0.68133 0.37311 0.99723 0.0
Co585 Co 0.62725 0.40542 0.98997 0.0
O586 O 0.66673 0.41523 0.98907 0.0
C587 C 0.6199 0.37869 0.02731 0.0
C588 C 0.64372 0.30193 0.00371 0.0
C589 C 0.6858 0.39857 0.99364 0.0
O590 O 0.63506 0.35858 0.02166 0.0
O591 O 0.61259 0.39826 0.01629 0.0
O592 O 0.65836 0.33921 0.96901 0.0
O593 O 0.6277 0.36851 0.97972 0.0
Co594 Co 0.6589 0.15753 0.25224 0.0
O595 O 0.62729 0.18018 0.24711 0.0
O596 O 0.67047 0.193 0.24275 0.0
C597 C 0.6442 0.14341 0.28131 0.0
O598 O 0.69693 0.14021 0.25635 0.0
Co599 Co 0.65268 0.09466 0.25811 0.0
O600 O 0.69257 0.09545 0.26337 0.0
C601 C 0.65089 0.11775 0.219 0.0
C602 C 0.64443 0.19912 0.24203 0.0
C603 C 0.70723 0.11668 0.2607 0.0
O604 O 0.65678 0.14187 0.22537 0.0
O605 O 0.64679 0.09707 0.2298 0.0
O606 O 0.6568 0.1667 0.27955 0.0
O607 O 0.63943 0.13045 0.26552 0.0
H608 H 0.20481 0.94467 0.26844 0.0
H609 H 0.17225 0.86337 0.27631 0.0
H610 H 0.21743 0.84366 0.26973 0.0
H611 H 0.26659 0.84944 0.26197 0.0
H612 H 0.29882 0.9309 0.25414 0.0
H613 H 0.2537 0.95047 0.26082 0.0
C614 C 0.2076 0.92265 0.26879 0.0
C615 C 0.18504 0.9056 0.27277 0.0
C616 C 0.23374 0.9114 0.26515 0.0
C617 C 0.18907 0.87704 0.27295 0.0
C618 C 0.215 0.86571 0.26936 0.0
C619 C 0.26375 0.87147 0.26187 0.0
C620 C 0.28611 0.88864 0.25762 0.0
C621 C 0.23754 0.88268 0.26551 0.0
C622 C 0.28201 0.91716 0.25737 0.0
C623 C 0.25616 0.92842 0.26115 0.0
H624 H 0.14055 0.69079 0.52853 0.0
H625 H 0.05667 0.69673 0.50871 0.0
H626 H 0.06349 0.74512 0.50136 0.0
H627 H 0.09308 0.78582 0.50093 0.0
H628 H 0.17719 0.77975 0.52024 0.0
H629 H 0.17052 0.73121 0.52729 0.0
C630 C 0.12387 0.70253 0.5223 0.0
C631 C 0.09813 0.69008 0.51912 0.0
C632 C 0.12794 0.73035 0.51813 0.0
C633 C 0.0766 0.70582 0.51144 0.0
C634 C 0.08051 0.73348 0.5072 0.0
C635 C 0.10996 0.77391 0.50672 0.0
C636 C 0.13557 0.78644 0.51014 0.0
C637 C 0.10602 0.746 0.51062 0.0
C638 C 0.15726 0.77064 0.51752 0.0
C639 C 0.15347 0.74287 0.52153 0.0
H640 H 0.33685 0.63744 0.78481 0.0
H641 H 0.33697 0.5519 0.76871 0.0
H642 H 0.28819 0.5546 0.76094 0.0
H643 H 0.24523 0.58078 0.7594 0.0
H644 H 0.2454 0.6669 0.77352 0.0
H645 H 0.29454 0.66452 0.78097 0.0
C646 C 0.32643 0.61946 0.77926 0.0
C647 C 0.34072 0.59441 0.77758 0.0
C648 C 0.29838 0.62123 0.77448 0.0
C649 C 0.32652 0.57132 0.77059 0.0
C650 C 0.2986 0.57286 0.76602 0.0
C651 C 0.256 0.59905 0.76413 0.0
C652 C 0.2416 0.62392 0.7661 0.0
C653 C 0.28427 0.59761 0.76812 0.0
C654 C 0.25599 0.6475 0.7719 0.0
C655 C 0.28407 0.64613 0.7762 0.0
H656 H 0.37649 0.83194 0.01292 0.0
H657 H 0.45841 0.8222 0.03603 0.0
H658 H 0.45362 0.77283 0.0346 0.0
H659 H 0.42613 0.73238 0.028 0.0
H660 H 0.3435 0.74089 0.00609 0.0
H661 H 0.34844 0.79076 0.00648 0.0
C662 C 0.39328 0.81907 0.01771 0.0
C663 C 0.4179 0.83108 0.02438 0.0
C664 C 0.39018 0.7904 0.01737 0.0
C665 C 0.43948 0.81383 0.03032 0.0
C666 C 0.43666 0.78545 0.02977 0.0
C667 C 0.40907 0.74501 0.02333 0.0
C668 C 0.38445 0.73275 0.01707 0.0
C669 C 0.41206 0.77355 0.02349 0.0
C670 C 0.36268 0.74968 0.01107 0.0
C671 C 0.36552 0.77823 0.01121 0.0
H672 H 0.20388 0.57078 0.96167 0.0
H673 H 0.15878 0.6314 0.99428 0.0
H674 H 0.20189 0.65388 0.00297 0.0
H675 H 0.2528 0.65569 0.00191 0.0
H676 H 0.29719 0.59188 0.97225 0.0
H677 H 0.25389 0.57101 0.96201 0.0
C678 C 0.20328 0.58851 0.97106 0.0
C679 C 0.17786 0.59916 0.97734 0.0
C680 C 0.22811 0.60088 0.97645 0.0
C681 C 0.17786 0.62279 0.98899 0.0
C682 C 0.20256 0.63564 0.99406 0.0
C683 C 0.25283 0.63737 0.99305 0.0
C684 C 0.27795 0.62541 0.9876 0.0
C685 C 0.22783 0.62489 0.98784 0.0
C686 C 0.27798 0.6014 0.9765 0.0
C687 C 0.25328 0.58946 0.9707 0.0
H688 H 0.39734 0.68202 0.24238 0.0
H689 H 0.45471 0.69195 0.19557 0.0
H690 H 0.44907 0.74115 0.19732 0.0
H691 H 0.42711 0.78157 0.21115 0.0
H692 H 0.36673 0.77253 0.25592 0.0
H693 H 0.37355 0.72278 0.25535 0.0
C694 C 0.40848 0.69478 0.2324 0.0
C695 C 0.42681 0.68277 0.21905 0.0
C696 C 0.40432 0.72337 0.2329 0.0
C697 C 0.44117 0.70016 0.20648 0.0
C698 C 0.43766 0.72849 0.20724 0.0
C699 C 0.41542 0.76878 0.22083 0.0
C700 C 0.39654 0.78085 0.23363 0.0
C701 C 0.41923 0.74029 0.2203 0.0
C702 C 0.38134 0.76383 0.24587 0.0
C703 C 0.38534 0.73537 0.24561 0.0
H704 H 0.29809 0.95597 0.45952 0.0
H705 H 0.32924 0.89338 0.49724 0.0
H706 H 0.28228 0.88031 0.50553 0.0
H707 H 0.23211 0.88581 0.50134 0.0
H708 H 0.20173 0.94993 0.46453 0.0
H709 H 0.2486 0.96343 0.45696 0.0
C710 C 0.29476 0.93986 0.46989 0.0
C711 C 0.31735 0.92566 0.47764 0.0
C712 C 0.26772 0.93257 0.47472 0.0
C713 C 0.31234 0.90444 0.49077 0.0
C714 C 0.28544 0.89699 0.49559 0.0
C715 C 0.23576 0.90273 0.49167 0.0
C716 C 0.21332 0.9167 0.48347 0.0
C717 C 0.26293 0.91067 0.48746 0.0
C718 C 0.2185 0.93879 0.47111 0.0
C719 C 0.24535 0.94655 0.46673 0.0
H720 H 0.13004 0.82945 0.71895 0.0
H721 H 0.04944 0.81352 0.74225 0.0
H722 H 0.06306 0.76649 0.74938 0.0
H723 H 0.09804 0.72979 0.74912 0.0
H724 H 0.17921 0.74691 0.72735 0.0
H725 H 0.16526 0.79366 0.71977 0.0
C726 C 0.11552 0.81593 0.7259 0.0
C727 C 0.08871 0.82522 0.73006 0.0
C728 C 0.12359 0.78902 0.7302 0.0
C729 C 0.07009 0.80698 0.73865 0.0
C730 C 0.07791 0.78006 0.74282 0.0
C731 C 0.11262 0.74374 0.74264 0.0
C732 C 0.13959 0.73482 0.73871 0.0
C733 C 0.10458 0.77081 0.73859 0.0
C734 C 0.15834 0.75323 0.73052 0.0
C735 C 0.15038 0.77998 0.72618 0.0
H736 H 0.69748 0.42953 0.77954 0.0
H737 H 0.66255 0.35406 0.75804 0.0
H738 H 0.7084 0.33717 0.75033 0.0
H739 H 0.75874 0.34372 0.74962 0.0
H740 H 0.79283 0.42103 0.7678 0.0
H741 H 0.74696 0.43744 0.7766 0.0
C742 C 0.69965 0.40961 0.77279 0.0
C743 C 0.67629 0.39313 0.76958 0.0
C744 C 0.72606 0.40025 0.76786 0.0
C745 C 0.67999 0.3671 0.76114 0.0
C746 C 0.70627 0.35742 0.75659 0.0
C747 C 0.75603 0.36408 0.75562 0.0
C748 C 0.77903 0.38107 0.7583 0.0
C749 C 0.72948 0.37372 0.76002 0.0
C750 C 0.77535 0.4076 0.76569 0.0
C751 C 0.74915 0.41699 0.77069 0.0
H752 H 0.64335 0.17831 0.02973 0.0
H753 H 0.56322 0.18137 0.0032 0.0
H754 H 0.57061 0.22931 0.99477 0.0
H755 H 0.59931 0.27049 0.99561 0.0
H756 H 0.67957 0.26758 0.02199 0.0
H757 H 0.67274 0.21924 0.02967 0.0
C758 C 0.62769 0.18933 0.02182 0.0
C759 C 0.60278 0.17625 0.01706 0.0
C760 C 0.63203 0.2169 0.01711 0.0
C761 C 0.58247 0.19101 0.00716 0.0
C762 C 0.5867 0.21839 0.00231 0.0
C763 C 0.61535 0.25931 0.00304 0.0
C764 C 0.63988 0.27265 0.0083 0.0
C765 C 0.61129 0.23159 0.00737 0.0
C766 C 0.66048 0.25781 0.01783 0.0
C767 C 0.65659 0.23017 0.02221 0.0
H768 H 0.8309 0.07835 0.26078 0.0
H769 H 0.84119 0.15584 0.29005 0.0
H770 H 0.79286 0.16651 0.28486 0.0
H771 H 0.7463 0.15228 0.27431 0.0
H772 H 0.73585 0.07256 0.24844 0.0
H773 H 0.78517 0.06419 0.25044 0.0
C774 C 0.82268 0.09751 0.26622 0.0
C775 C 0.84003 0.11609 0.27587 0.0
C776 C 0.79451 0.10307 0.26399 0.0
C777 C 0.82876 0.14116 0.28226 0.0
C778 C 0.80089 0.14723 0.27951 0.0
C779 C 0.75494 0.13322 0.26901 0.0
C780 C 0.73744 0.11302 0.26135 0.0
C781 C 0.78341 0.12813 0.2707 0.0
C782 C 0.74885 0.08831 0.25461 0.0
C783 C 0.77708 0.08352 0.25569 0.0
H784 H 0.87381 0.34469 0.5171 0.0
H785 H 0.95735 0.32143 0.531 0.0
H786 H 0.94666 0.274 0.52368 0.0
H787 H 0.91327 0.23843 0.51457 0.0
H788 H 0.82865 0.26087 0.5047 0.0
H789 H 0.8399 0.30908 0.51013 0.0
C790 C 0.88973 0.32939 0.51891 0.0
C791 C 0.91649 0.33722 0.52458 0.0
C792 C 0.88314 0.30173 0.51569 0.0
C793 C 0.93674 0.31665 0.52619 0.0
C794 C 0.93057 0.28924 0.52228 0.0
C795 C 0.89729 0.25389 0.51369 0.0
C796 C 0.87019 0.24613 0.50923 0.0
C797 C 0.9038 0.28151 0.51719 0.0
C798 C 0.84964 0.26632 0.50825 0.0
C799 C 0.8561 0.2939 0.51123 0.0
H800 H 0.67914 0.13008 0.47503 0.0
H801 H 0.69256 0.04275 0.47702 0.0
H802 H 0.74156 0.05021 0.48259 0.0
H803 H 0.78091 0.08139 0.48531 0.0
H804 H 0.76745 0.16874 0.48418 0.0
H805 H 0.71809 0.16135 0.48014 0.0
C806 C 0.69264 0.11266 0.47709 0.0
C807 C 0.68211 0.08587 0.47547 0.0
C808 C 0.72085 0.11708 0.4803 0.0
C809 C 0.70011 0.06358 0.4779 0.0
C810 C 0.72815 0.06782 0.48113 0.0
C811 C 0.7672 0.09884 0.48421 0.0
C812 C 0.77797 0.12559 0.48486 0.0
C813 C 0.73882 0.09446 0.482 0.0
C814 C 0.75979 0.14794 0.48369 0.0
C815 C 0.73153 0.14373 0.48135 0.0
H816 H 0.93312 0.18824 0.73823 0.0
H817 H 0.85265 0.17617 0.71328 0.0
H818 H 0.84156 0.22409 0.71895 0.0
H819 H 0.8561 0.27073 0.72819 0.0
H820 H 0.93833 0.28342 0.74963 0.0
H821 H 0.94742 0.2343 0.74776 0.0
C822 C 0.91319 0.19599 0.73388 0.0
C823 C 0.89391 0.17828 0.72525 0.0
C824 C 0.90728 0.22396 0.73638 0.0
C825 C 0.86791 0.1889 0.72025 0.0
C826 C 0.86157 0.21653 0.72328 0.0
C827 C 0.87586 0.26263 0.73267 0.0
C828 C 0.89653 0.28065 0.739 0.0
C829 C 0.88128 0.23439 0.73097 0.0
C830 C 0.92216 0.26996 0.74457 0.0
C831 C 0.92737 0.24188 0.74352 0.0
H832 H 0.7954 0.46604 0.98958 0.0
H833 H 0.82699 0.38753 0.97136 0.0
H834 H 0.78309 0.36608 0.97916 0.0
H835 H 0.73367 0.37088 0.98682 0.0
H836 H 0.70161 0.45051 0.00202 0.0
H837 H 0.74746 0.47024 -0.0005 0.0
C838 C 0.79277 0.44419 0.98742 0.0
C839 C 0.81439 0.42856 0.97963 0.0
C840 C 0.76713 0.43222 0.99111 0.0
C841 C 0.81082 0.40012 0.97743 0.0
C842 C 0.78556 0.38786 0.98167 0.0
C843 C 0.73686 0.39244 0.98988 0.0
C844 C 0.71423 0.40927 0.99439 0.0
C845 C 0.76326 0.40388 0.98787 0.0
C846 C 0.71863 0.4372 -0.00174 0.0
C847 C 0.74486 0.4485 0.99686 0.0
H848 H 0.58256 0.30591 0.21543 0.0
H849 H 0.65441 0.34385 0.24044 0.0
H850 H 0.67353 0.29886 0.24754 0.0
H851 H 0.66976 0.24839 0.247 0.0
H852 H 0.59607 0.21102 0.22462 0.0
H853 H 0.57772 0.25604 0.21634 0.0
C854 C 0.60217 0.30451 0.22276 0.0
C855 C 0.61695 0.32851 0.22727 0.0
C856 C 0.61286 0.27853 0.2272 0.0
C857 C 0.64266 0.32591 0.23643 0.0
C858 C 0.65362 0.30011 0.2406 0.0
C859 C 0.6498 0.25018 0.24017 0.0
C860 C 0.63438 0.22645 0.23625 0.0
C861 C 0.63898 0.27625 0.23597 0.0
C862 C 0.60833 0.22902 0.22773 0.0
C863 C 0.59781 0.25475 0.22302 0.0
H864 H 0.08548 0.93276 0.39442 0.0
H865 H 0.12476 0.8638 0.36682 0.0
H866 H 0.13959 0.84646 0.3979 0.0
H867 H 0.14149 0.85088 0.43291 0.0
H868 H 0.10207 0.9197 0.46059 0.0
H869 H 0.0876 0.93732 0.42948 0.0
C870 C 0.09743 0.91403 0.39521 0.0
C871 C 0.10389 0.89955 0.37834 0.0
C872 C 0.10598 0.90421 0.41313 0.0
C873 C 0.11913 0.87512 0.37961 0.0
C874 C 0.12779 0.86529 0.39737 0.0
C875 C 0.12982 0.86979 0.43212 0.0
C876 C 0.12288 0.88397 0.449 0.0
C877 C 0.12133 0.87965 0.41421 0.0
C878 C 0.10764 0.90837 0.44778 0.0
C879 C 0.09934 0.91846 0.43001 0.0
H880 H 0.15039 0.58732 0.63198 0.0
H881 H 0.09759 0.65806 0.62795 0.0
H882 H 0.1092 0.67109 0.6609 0.0
H883 H 0.13169 0.66014 0.69177 0.0
H884 H 0.18219 0.58776 0.69574 0.0
H885 H 0.17485 0.57801 0.66179 0.0
C886 C 0.14182 0.60587 0.63818 0.0
C887 C 0.12311 0.62164 0.62758 0.0
C888 C 0.14826 0.61296 0.65715 0.0
C889 C 0.1118 0.64539 0.63593 0.0
C890 C 0.11852 0.65291 0.65473 0.0
C891 C 0.14148 0.64261 0.68503 0.0
C892 C 0.15743 0.62467 0.69612 0.0
C893 C 0.13635 0.63657 0.66561 0.0
C894 C 0.16975 0.60176 0.6874 0.0
C895 C 0.16549 0.59613 0.66804 0.0
H896 H 0.3871 0.61156 0.88658 0.0
H897 H 0.47179 0.63615 0.89242 0.0
H898 H 0.4642 0.64723 0.92629 0.0
H899 H 0.43374 0.64842 0.95443 0.0
H900 H 0.34842 0.62581 0.94812 0.0
H901 H 0.35593 0.6155 0.91423 0.0
C902 C 0.40381 0.61941 0.89532 0.0
C903 C 0.42998 0.6229 0.88717 0.0
C904 C 0.3992 0.626 0.91465 0.0
C905 C 0.45146 0.63342 0.89845 0.0
C906 C 0.44715 0.63962 0.91779 0.0
C907 C 0.41681 0.64125 0.94562 0.0
C908 C 0.39064 0.63766 0.9538 0.0
C909 C 0.42116 0.63575 0.92608 0.0
C910 C 0.36877 0.62877 0.94216 0.0
C911 C 0.37305 0.62279 0.92279 0.0
H912 H 0.38901 0.8787 0.12308 0.0
H913 H 0.43309 0.94979 0.14308 0.0
H914 H 0.42209 0.93818 0.17634 0.0
H915 H 0.39914 0.9083 0.19951 0.0
H916 H 0.35176 0.83928 0.17946 0.0
H917 H 0.36489 0.84937 0.14634 0.0
C918 C 0.39621 0.8915 0.1348 0.0
C919 C 0.41188 0.91494 0.13085 0.0
C920 C 0.38923 0.88504 0.15376 0.0
C921 C 0.42094 0.93169 0.14596 0.0
C922 C 0.41471 0.92502 0.16489 0.0
C923 C 0.39187 0.89537 0.18788 0.0
C924 C 0.3747 0.87299 0.19183 0.0
C925 C 0.3988 0.90181 0.16894 0.0
C926 C 0.36502 0.85662 0.17669 0.0
C927 C 0.37251 0.86238 0.1578 0.0
H928 H 0.10781 0.56973 0.84705 0.0
H929 H 0.12027 0.64378 0.87985 0.0
H930 H 0.13506 0.66771 0.85097 0.0
H931 H 0.14448 0.66755 0.81626 0.0
H932 H 0.13111 0.59344 0.78362 0.0
H933 H 0.11708 0.56956 0.81255 0.0
C934 C 0.11394 0.59106 0.84788 0.0
C935 C 0.11291 0.60495 0.86554 0.0
C936 C 0.12238 0.60468 0.83125 0.0
C937 C 0.12055 0.63271 0.86637 0.0
C938 C 0.12917 0.64636 0.84989 0.0
C939 C 0.1386 0.64616 0.81553 0.0
C940 C 0.13893 0.6323 0.79783 0.0
C941 C 0.13017 0.63256 0.83223 0.0
C942 C 0.13107 0.60462 0.79706 0.0
C943 C 0.123 0.59091 0.8136 0.0
H944 H 0.36547 0.58841 0.11775 0.0
H945 H 0.44751 0.62213 0.11394 0.0
H946 H 0.43782 0.63791 0.08167 0.0
H947 H 0.40542 0.64361 0.05458 0.0
H948 H 0.32166 0.61643 0.06095 0.0
H949 H 0.33237 0.59765 0.09247 0.0
C950 C 0.38122 0.59974 0.11023 0.0
C951 C 0.40731 0.60375 0.11862 0.0
C952 C 0.37508 0.61024 0.09206 0.0
C953 C 0.42743 0.61785 0.10797 0.0
C954 C 0.42183 0.6273 0.08948 0.0
C955 C 0.38962 0.63361 0.06297 0.0
C956 C 0.36288 0.63123 0.05556 0.0
C957 C 0.39569 0.62372 0.0814 0.0
C958 C 0.34237 0.61856 0.0665 0.0
C959 C 0.3485 0.60774 0.08446 0.0
H960 H 0.44019 0.9157 0.35367 0.0
H961 H 0.35331 0.91772 0.366 0.0
H962 H 0.34306 0.90317 0.33316 0.0
H963 H 0.359 0.88907 0.30101 0.0
H964 H 0.4462 0.88738 0.28917 0.0
H965 H 0.45601 0.90223 0.32176 0.0
C966 C 0.41901 0.91278 0.34921 0.0
C967 C 0.39758 0.91766 0.36228 0.0
C968 C 0.4133 0.90434 0.33039 0.0
C969 C 0.37021 0.91431 0.35617 0.0
C970 C 0.36434 0.90583 0.33743 0.0
C971 C 0.38015 0.89185 0.30558 0.0
C972 C 0.40178 0.88701 0.29259 0.0
C973 C 0.38575 0.90063 0.32442 0.0
C974 C 0.42907 0.89099 0.29876 0.0
C975 C 0.43476 0.89948 0.31745 0.0
H976 H 0.10005 0.87988 0.61927 0.0
H977 H 0.09052 0.96747 0.6152 0.0
H978 H 0.10251 0.96562 0.58122 0.0
H979 H 0.11472 0.93913 0.55263 0.0
H980 H 0.12544 0.85157 0.55656 0.0
H981 H 0.11403 0.85339 0.59067 0.0
C982 C 0.10056 0.89851 0.61088 0.0
C983 C 0.09434 0.92376 0.61965 0.0
C984 C 0.10768 0.8973 0.59138 0.0
C985 C 0.09542 0.94783 0.60876 0.0
C986 C 0.10216 0.94677 0.58933 0.0
C987 C 0.11457 0.92041 0.56092 0.0
C988 C 0.12076 0.89523 0.552 0.0
C989 C 0.1082 0.92162 0.58049 0.0
C990 C 0.12081 0.87124 0.56305 0.0
C991 C 0.11419 0.87224 0.58255 0.0
H992 H 0.63648 0.38897 0.87757 0.0
H993 H 0.55999 0.42565 0.89556 0.0
H994 H 0.5694 0.4127 0.92878 0.0
H995 H 0.59871 0.38965 0.95244 0.0
H996 H 0.67397 0.3507 0.93409 0.0
H997 H 0.66588 0.36603 0.90126 0.0
C998 C 0.62205 0.39434 0.88884 0.0
C999 C 0.59766 0.4083 0.88424 0.0
C1000 C 0.62736 0.38638 0.90777 0.0
C1001 C 0.57885 0.4148 0.89883 0.0
C1002 C 0.58425 0.40746 0.91779 0.0
C1003 C 0.61342 0.38469 0.94127 0.0
C1004 C 0.6369 0.36911 0.94563 0.0
C1005 C 0.60833 0.39305 0.92238 0.0
C1006 C 0.65569 0.36261 0.93103 0.0
C1007 C 0.65109 0.37137 0.91228 0.0
H1008 H 0.64116 0.07234 0.13498 0.0
H1009 H 0.59931 0.14927 0.12679 0.0
H1010 H 0.60984 0.16271 0.15987 0.0
H1011 H 0.62885 0.15121 0.1918 0.0
H1012 H 0.66835 0.07296 0.19977 0.0
H1013 H 0.66141 0.06165 0.16605 0.0
C1014 C 0.63473 0.09223 0.14035 0.0
C1015 C 0.61953 0.10978 0.1285 0.0
C1016 C 0.64047 0.09958 0.15937 0.0
C1017 C 0.61086 0.1353 0.13574 0.0
C1018 C 0.61696 0.14302 0.15461 0.0
C1019 C 0.63624 0.13191 0.18601 0.0
C1020 C 0.64901 0.11291 0.19818 0.0
C1021 C 0.63145 0.12516 0.16665 0.0
C1022 C 0.65828 0.0878 0.19065 0.0
C1023 C 0.65431 0.08131 0.17139 0.0
H1024 H 0.88231 0.13459 0.37705 0.0
H1025 H 0.95815 0.1014 0.3989 0.0
H1026 H 0.94459 0.11399 0.43166 0.0
H1027 H 0.91102 0.13455 0.45393 0.0
H1028 H 0.83687 0.17102 0.43164 0.0
H1029 H 0.8497 0.15695 0.39913 0.0
C1030 C 0.89578 0.13017 0.38905 0.0
C1031 C 0.92104 0.11702 0.38578 0.0
C1032 C 0.88808 0.13796 0.40767 0.0
C1033 C 0.93862 0.11158 0.40124 0.0
C1034 C 0.93083 0.11868 0.4199 0.0
C1035 C 0.89765 0.13925 0.44193 0.0
C1036 C 0.87295 0.15355 0.44509 0.0
C1037 C 0.90558 0.13183 0.42327 0.0
C1038 C 0.85597 0.15998 0.42948 0.0
C1039 C 0.86329 0.15196 0.41093 0.0
H1040 H 0.8789 0.39785 0.62598 0.0
H1041 H 0.95971 0.41729 0.64739 0.0
H1042 H 0.94663 0.40125 0.67935 0.0
H1043 H 0.91159 0.38331 0.70129 0.0
H1044 H 0.83131 0.36196 0.67953 0.0
H1045 H 0.84484 0.3768 0.64747 0.0
C1046 C 0.89354 0.39855 0.63771 0.0
C1047 C 0.92005 0.409 0.63458 0.0
C1048 C 0.88601 0.38887 0.65585 0.0
C1049 C 0.93915 0.40941 0.64964 0.0
C1050 C 0.93168 0.40027 0.66784 0.0
C1051 C 0.89713 0.38173 0.68949 0.0
C1052 C 0.87044 0.37177 0.69276 0.0
C1053 C 0.9051 0.39016 0.67113 0.0
C1054 C 0.85199 0.36954 0.67734 0.0
C1055 C 0.85966 0.37815 0.65905 0.0
H1056 H 0.58763 0.08724 0.35207 0.0
H1057 H 0.62789 0.1537 0.38195 0.0
H1058 H 0.64666 0.17023 0.35178 0.0
H1059 H 0.65201 0.1657 0.3168 0.0
H1060 H 0.61369 0.09772 0.28744 0.0
H1061 H 0.59459 0.08151 0.3176 0.0
C1062 C 0.60078 0.10514 0.3521 0.0
C1063 C 0.60611 0.1192 0.36936 0.0
C1064 C 0.61212 0.11419 0.33476 0.0
C1065 C 0.62286 0.14271 0.3689 0.0
C1066 C 0.63388 0.15207 0.35165 0.0
C1067 C 0.6396 0.14727 0.31704 0.0
C1068 C 0.63424 0.13299 0.2999 0.0
C1069 C 0.62867 0.13797 0.33448 0.0
C1070 C 0.61816 0.10911 0.30043 0.0
C1071 C 0.60713 0.09985 0.31767 0.0
H1072 H 0.89453 0.13521 0.61566 0.0
H1073 H 0.89646 0.04816 0.60496 0.0
H1074 H 0.88665 0.05589 0.57107 0.0
H1075 H 0.87783 0.08717 0.5446 0.0
H1076 H 0.87464 0.17434 0.55502 0.0
H1077 H 0.88466 0.16677 0.58897 0.0
C1078 C 0.89292 0.11799 0.60585 0.0
C1079 C 0.89627 0.09115 0.61275 0.0
C1080 C 0.88704 0.12259 0.5864 0.0
C1081 C 0.89376 0.06897 0.59999 0.0
C1082 C 0.88826 0.07338 0.58062 0.0
C1083 C 0.8794 0.10459 0.55423 0.0
C1084 C 0.87565 0.13132 0.54721 0.0
C1085 C 0.8849 0.10009 0.57369 0.0
C1086 C 0.87741 0.15356 0.56002 0.0
C1087 C 0.88319 0.14924 0.57943 0.0
H1088 H 0.9142 0.44879 0.84784 0.0
H1089 H 0.85635 0.39195 0.87214 0.0
H1090 H 0.84962 0.37055 0.84064 0.0
H1091 H 0.86048 0.36809 0.80606 0.0
H1092 H 0.91969 0.42456 0.78255 0.0
H1093 H 0.92537 0.44608 0.81378 0.0
C1094 C 0.89996 0.43185 0.84619 0.0
C1095 C 0.88568 0.42204 0.8622 0.0
C1096 C 0.89644 0.41956 0.82816 0.0
C1097 C 0.86767 0.39976 0.85998 0.0
C1098 C 0.86375 0.3876 0.84198 0.0
C1099 C 0.87456 0.38514 0.80779 0.0
C1100 C 0.88965 0.39461 0.79196 0.0
C1101 C 0.87807 0.39733 0.82595 0.0
C1102 C 0.90794 0.41665 0.79448 0.0
C1103 C 0.91119 0.42907 0.81234 0.0
H1104 H 0.59944 0.3716 0.11664 0.0
H1105 H 0.57204 0.45446 0.10717 0.0
H1106 H 0.57976 0.44907 0.07276 0.0
H1107 H 0.59629 0.42178 0.04576 0.0
H1108 H 0.62551 0.33934 0.05502 0.0
H1109 H 0.61483 0.34354 0.08913 0.0
C1110 C 0.59487 0.3883 0.10697 0.0
C1111 C 0.58526 0.4134 0.11437 0.0
C1112 C 0.59976 0.3852 0.08723 0.0
C1113 C 0.57969 0.43504 0.10177 0.0
C1114 C 0.58404 0.43196 0.08213 0.0
C1115 C 0.60013 0.40458 0.05514 0.0
C1116 C 0.61176 0.3803 0.04777 0.0
C1117 C 0.5944 0.40726 0.07475 0.0
C1118 C 0.61668 0.35833 0.06027 0.0
C1119 C 0.61059 0.36069 0.0798 0.0
loop_
_geom_bond_atom_site_label_1
_geom_bond_atom_site_label_2
_geom_bond_distance
_geom_bond_site_symmetry_2
_ccdc_geom_bond_type
H0 C27 0.929 . S
N1 C26 1.433 . S
N1 C32 1.435 . S
N1 C38 1.423 . S
H2 C28 0.930 . S
H3 C31 0.931 . S
H4 C30 0.929 . S
H5 C33 0.930 . S
H6 C34 0.932 . S
H7 C37 0.929 . S
H8 C36 0.931 . S
H9 C39 0.927 1_545 S
H10 C43 0.932 . S
H11 C40 0.931 . S
H12 C42 0.929 . S
H13 C45 0.929 . S
H14 C46 0.930 . S
H15 C48 0.929 . S
H16 C49 0.931 . S
H17 C51 0.930 . S
H18 C52 0.932 . S
H19 C54 0.931 . S
H20 C55 0.929 . S
H21 C57 0.929 . S
H22 C58 0.931 . S
H23 C60 0.929 . S
N24 C44 1.433 . S
N24 C50 1.435 . S
N24 C56 1.423 . S
H25 C61 0.932 . S
C26 N1 1.433 . S
C26 C27 1.363 . S
C26 C31 1.370 . S
C27 H0 0.929 . S
C27 C26 1.363 . S
C27 C28 1.385 . S
C28 H2 0.930 . S
C28 C27 1.385 . S
C28 C29 1.357 . S
C29 C28 1.357 . S
C29 C30 1.406 . S
C30 H4 0.929 . S
C30 C29 1.406 . S
C30 C31 1.391 . S
C31 H3 0.931 . S
C31 C26 1.370 . S
C31 C30 1.391 . S
C32 N1 1.435 . S
C32 C33 1.358 . S
C32 C37 1.371 . S
C33 H5 0.930 . S
C33 C32 1.358 . S
C33 C34 1.405 . S
C34 H6 0.932 . S
C34 C33 1.405 . S
C34 C35 1.383 . S
C35 C34 1.383 . S
C35 C36 1.393 . S
C36 H8 0.931 . S
C36 C35 1.393 . S
C36 C37 1.382 . S
C37 H7 0.929 . S
C37 C32 1.371 . S
C37 C36 1.382 . S
C38 N1 1.423 . S
C38 C39 1.362 . S
C38 C43 1.388 . S
C39 H9 0.927 1_565 S
C39 C38 1.362 . S
C39 C40 1.376 1_565 S
C40 H11 0.931 . S
C40 C39 1.376 1_545 S
C40 C41 1.396 . S
C41 C40 1.396 . S
C41 C42 1.348 1_545 S
C41 C59 1.472 . S
C42 H12 0.929 . S
C42 C41 1.348 1_565 S
C42 C43 1.443 . S
C43 H10 0.932 . S
C43 C38 1.388 . S
C43 C42 1.443 . S
C44 N24 1.433 . S
C44 C45 1.363 . S
C44 C49 1.370 . S
C45 H13 0.929 . S
C45 C44 1.363 . S
C45 C46 1.385 . S
C46 H14 0.930 . S
C46 C45 1.385 . S
C46 C47 1.357 . S
C47 C46 1.357 . S
C47 C48 1.406 . S
C48 H15 0.929 . S
C48 C47 1.406 . S
C48 C49 1.391 . S
C49 H16 0.931 . S
C49 C44 1.370 . S
C49 C48 1.391 . S
C50 N24 1.435 . S
C50 C51 1.358 . S
C50 C55 1.371 . S
C51 H17 0.930 . S
C51 C50 1.358 . S
C51 C52 1.405 . S
C52 H18 0.932 . S
C52 C51 1.405 . S
C52 C53 1.383 . S
C53 C52 1.383 . S
C53 C54 1.393 . S
C54 H19 0.931 . S
C54 C53 1.393 . S
C54 C55 1.382 . S
C55 H20 0.929 . S
C55 C50 1.371 . S
C55 C54 1.382 . S
C56 N24 1.423 . S
C56 C57 1.362 . S
C56 C61 1.388 . S
C57 H21 0.929 . S
C57 C56 1.362 . S
C57 C58 1.376 1_655 S
C58 H22 0.931 . S
C58 C57 1.376 1_455 S
C58 C59 1.396 . S
C59 C41 1.472 . S
C59 C58 1.396 . S
C59 C60 1.348 1_455 S
C60 H23 0.929 . S
C60 C59 1.348 1_655 S
C60 C61 1.443 . S
C61 H25 0.932 . S
C61 C56 1.388 . S
C61 C60 1.443 . S
H62 C89 0.929 . S
N63 C88 1.433 . S
N63 C94 1.435 . S
N63 C100 1.423 . S
H64 C90 0.930 . S
H65 C93 0.931 . S
H66 C92 0.929 . S
H67 C95 0.930 . S
H68 C96 0.932 . S
H69 C99 0.929 . S
H70 C98 0.931 . S
H71 C101 0.935 . S
H72 C105 0.932 . S
H73 C102 0.931 . S
H74 C104 0.929 . S
H75 C107 0.929 . S
H76 C108 0.930 . S
H77 C110 0.929 . S
H78 C111 0.931 . S
H79 C113 0.930 . S
H80 C114 0.932 . S
H81 C116 0.931 . S
H82 C117 0.929 . S
H83 C119 0.929 . S
H84 C120 0.931 . S
H85 C122 0.929 . S
N86 C106 1.433 . S
N86 C112 1.435 . S
N86 C118 1.423 . S
H87 C123 0.932 . S
C88 N63 1.433 . S
C88 C89 1.363 . S
C88 C93 1.370 . S
C89 H62 0.929 . S
C89 C88 1.363 . S
C89 C90 1.385 . S
C90 H64 0.930 . S
C90 C89 1.385 . S
C90 C91 1.357 . S
C91 C90 1.357 . S
C91 C92 1.406 . S
C92 H66 0.929 . S
C92 C91 1.406 . S
C92 C93 1.391 . S
C93 H65 0.931 . S
C93 C88 1.370 . S
C93 C92 1.391 . S
C94 N63 1.435 . S
C94 C95 1.358 . S
C94 C99 1.371 . S
C95 H67 0.930 . S
C95 C94 1.358 . S
C95 C96 1.405 . S
C96 H68 0.932 . S
C96 C95 1.405 . S
C96 C97 1.383 . S
C97 C96 1.383 . S
C97 C98 1.393 . S
C98 H70 0.931 . S
C98 C97 1.393 . S
C98 C99 1.382 . S
C99 H69 0.929 . S
C99 C94 1.371 . S
C99 C98 1.382 . S
C100 N63 1.423 . S
C100 C101 1.362 . S
C100 C105 1.388 . S
C101 H71 0.935 . S
C101 C100 1.362 . S
C101 C102 1.376 1_655 S
C102 H73 0.931 . S
C102 C101 1.376 1_455 S
C102 C103 1.396 . S
C103 C102 1.396 . S
C103 C104 1.348 1_455 S
C103 C121 1.472 . S
C104 H74 0.929 . S
C104 C103 1.348 1_655 S
C104 C105 1.443 . S
C105 H72 0.932 . S
C105 C100 1.388 . S
C105 C104 1.443 . S
C106 N86 1.433 . S
C106 C107 1.363 . S
C106 C111 1.370 . S
C107 H75 0.929 . S
C107 C106 1.363 . S
C107 C108 1.385 . S
C108 H76 0.930 . S
C108 C107 1.385 . S
C108 C109 1.357 . S
C109 C108 1.357 . S
C109 C110 1.406 . S
C110 H77 0.929 . S
C110 C109 1.406 . S
C110 C111 1.391 . S
C111 H78 0.931 . S
C111 C106 1.370 . S
C111 C110 1.391 . S
C112 N86 1.435 . S
C112 C113 1.358 . S
C112 C117 1.371 . S
C113 H79 0.930 . S
C113 C112 1.358 . S
C113 C114 1.405 . S
C114 H80 0.932 . S
C114 C113 1.405 . S
C114 C115 1.383 . S
C115 C114 1.383 . S
C115 C116 1.393 . S
C116 H81 0.931 . S
C116 C115 1.393 . S
C116 C117 1.382 . S
C117 H82 0.929 . S
C117 C112 1.371 . S
C117 C116 1.382 . S
C118 N86 1.423 . S
C118 C119 1.362 . S
C118 C123 1.388 . S
C119 H83 0.929 . S
C119 C118 1.362 . S
C119 C120 1.376 . S
C120 H84 0.931 . S
C120 C119 1.376 . S
C120 C121 1.396 . S
C121 C103 1.472 . S
C121 C120 1.396 . S
C121 C122 1.348 . S
C122 H85 0.929 . S
C122 C121 1.348 . S
C122 C123 1.443 . S
C123 H87 0.932 . S
C123 C118 1.388 . S
C123 C122 1.443 . S
H124 C151 0.929 . S
N125 C150 1.433 . S
N125 C156 1.435 . S
N125 C162 1.423 . S
H126 C152 0.930 . S
H127 C155 0.931 . S
H128 C154 0.929 . S
H129 C157 0.930 . S
H130 C158 0.932 . S
H131 C161 0.929 . S
H132 C160 0.931 . S
H133 C163 0.929 . S
H134 C167 0.932 . S
H135 C164 0.931 . S
H136 C166 0.929 . S
H137 C169 0.929 . S
H138 C170 0.930 . S
H139 C172 0.929 . S
H140 C173 0.931 . S
H141 C175 0.930 . S
H142 C176 0.932 . S
H143 C178 0.931 . S
H144 C179 0.929 . S
H145 C181 0.929 . S
H146 C182 0.931 . S
H147 C184 0.929 . S
N148 C168 1.433 . S
N148 C174 1.435 . S
N148 C180 1.423 . S
H149 C185 0.932 . S
C150 N125 1.433 . S
C150 C151 1.363 . S
C150 C155 1.370 . S
C151 H124 0.929 . S
C151 C150 1.363 . S
C151 C152 1.385 . S
C152 H126 0.930 . S
C152 C151 1.385 . S
C152 C153 1.357 . S
C153 C152 1.357 . S
C153 C154 1.406 . S
C154 H128 0.929 . S
C154 C153 1.406 . S
C154 C155 1.391 . S
C155 H127 0.931 . S
C155 C150 1.370 . S
C155 C154 1.391 . S
C156 N125 1.435 . S
C156 C157 1.358 . S
C156 C161 1.371 . S
C157 H129 0.930 . S
C157 C156 1.358 . S
C157 C158 1.405 . S
C158 H130 0.932 . S
C158 C157 1.405 . S
C158 C159 1.383 . S
C159 C158 1.383 . S
C159 C160 1.393 . S
C160 H132 0.931 . S
C160 C159 1.393 . S
C160 C161 1.382 . S
C161 H131 0.929 . S
C161 C156 1.371 . S
C161 C160 1.382 . S
C162 N125 1.423 . S
C162 C163 1.362 . S
C162 C167 1.388 . S
C163 H133 0.929 . S
C163 C162 1.362 . S
C163 C164 1.376 . S
C164 H135 0.931 . S
C164 C163 1.376 . S
C164 C165 1.396 . S
C165 C164 1.396 . S
C165 C166 1.348 . S
C165 C183 1.472 . S
C166 H136 0.929 . S
C166 C165 1.348 . S
C166 C167 1.443 . S
C167 H134 0.932 . S
C167 C162 1.388 . S
C167 C166 1.443 . S
C168 N148 1.433 . S
C168 C169 1.363 . S
C168 C173 1.370 . S
C169 H137 0.929 . S
C169 C168 1.363 . S
C169 C170 1.385 . S
C170 H138 0.930 . S
C170 C169 1.385 . S
C170 C171 1.357 . S
C171 C170 1.357 . S
C171 C172 1.406 . S
C172 H139 0.929 . S
C172 C171 1.406 . S
C172 C173 1.391 . S
C173 H140 0.931 . S
C173 C168 1.370 . S
C173 C172 1.391 . S
C174 N148 1.435 . S
C174 C175 1.358 . S
C174 C179 1.371 . S
C175 H141 0.930 . S
C175 C174 1.358 . S
C175 C176 1.405 . S
C176 H142 0.932 . S
C176 C175 1.405 . S
C176 C177 1.383 . S
C177 C176 1.383 . S
C177 C178 1.393 . S
C178 H143 0.931 . S
C178 C177 1.393 . S
C178 C179 1.382 . S
C179 H144 0.929 . S
C179 C174 1.371 . S
C179 C178 1.382 . S
C180 N148 1.423 . S
C180 C181 1.362 . S
C180 C185 1.388 . S
C181 H145 0.929 . S
C181 C180 1.362 . S
C181 C182 1.376 . S
C182 H146 0.931 . S
C182 C181 1.376 . S
C182 C183 1.396 . S
C183 C165 1.472 . S
C183 C182 1.396 . S
C183 C184 1.348 . S
C184 H147 0.929 . S
C184 C183 1.348 . S
C184 C185 1.443 . S
C185 H149 0.932 . S
C185 C180 1.388 . S
C185 C184 1.443 . S
H186 C213 0.929 . S
N187 C212 1.433 . S
N187 C218 1.435 . S
N187 C224 1.423 . S
H188 C214 0.930 . S
H189 C217 0.931 . S
H190 C216 0.929 . S
H191 C219 0.930 . S
H192 C220 0.932 . S
H193 C223 0.929 . S
H194 C222 0.931 . S
H195 C225 0.929 . S
H196 C229 0.932 . S
H197 C226 0.931 . S
H198 C228 0.929 . S
H199 C231 0.929 . S
H200 C232 0.930 . S
H201 C234 0.929 . S
H202 C235 0.931 . S
H203 C237 0.930 . S
H204 C238 0.932 . S
H205 C240 0.931 . S
H206 C241 0.929 . S
H207 C243 0.929 . S
H208 C244 0.931 1_565 S
H209 C246 0.929 . S
N210 C230 1.433 . S
N210 C236 1.435 . S
N210 C242 1.423 . S
H211 C247 0.932 . S
C212 N187 1.433 . S
C212 C213 1.363 . S
C212 C217 1.370 . S
C213 H186 0.929 . S
C213 C212 1.363 . S
C213 C214 1.385 . S
C214 H188 0.930 . S
C214 C213 1.385 . S
C214 C215 1.357 . S
C215 C214 1.357 . S
C215 C216 1.406 . S
C216 H190 0.929 . S
C216 C215 1.406 . S
C216 C217 1.391 . S
C217 H189 0.931 . S
C217 C212 1.370 . S
C217 C216 1.391 . S
C218 N187 1.435 . S
C218 C219 1.358 . S
C218 C223 1.371 . S
C219 H191 0.930 . S
C219 C218 1.358 . S
C219 C220 1.405 . S
C220 H192 0.932 . S
C220 C219 1.405 . S
C220 C221 1.383 . S
C221 C220 1.383 . S
C221 C222 1.393 . S
C222 H194 0.931 . S
C222 C221 1.393 . S
C222 C223 1.382 . S
C223 H193 0.929 . S
C223 C218 1.371 . S
C223 C222 1.382 . S
C224 N187 1.423 . S
C224 C225 1.362 . S
C224 C229 1.388 . S
C225 H195 0.929 . S
C225 C224 1.362 . S
C225 C226 1.376 . S
C226 H197 0.931 . S
C226 C225 1.376 . S
C226 C227 1.396 . S
C227 C226 1.396 . S
C227 C228 1.348 . S
C227 C245 1.472 1_565 S
C228 H198 0.929 . S
C228 C227 1.348 . S
C228 C229 1.443 . S
C229 H196 0.932 . S
C229 C224 1.388 . S
C229 C228 1.443 . S
C230 N210 1.433 . S
C230 C231 1.363 . S
C230 C235 1.370 . S
C231 H199 0.929 . S
C231 C230 1.363 . S
C231 C232 1.385 . S
C232 H200 0.930 . S
C232 C231 1.385 . S
C232 C233 1.357 . S
C233 C232 1.357 . S
C233 C234 1.406 . S
C234 H201 0.929 . S
C234 C233 1.406 . S
C234 C235 1.391 . S
C235 H202 0.931 . S
C235 C230 1.370 . S
C235 C234 1.391 . S
C236 N210 1.435 . S
C236 C237 1.358 . S
C236 C241 1.371 . S
C237 H203 0.930 . S
C237 C236 1.358 . S
C237 C238 1.405 . S
C238 H204 0.932 . S
C238 C237 1.405 . S
C238 C239 1.383 . S
C239 C238 1.383 . S
C239 C240 1.393 . S
C240 H205 0.931 . S
C240 C239 1.393 . S
C240 C241 1.382 . S
C241 H206 0.929 . S
C241 C236 1.371 . S
C241 C240 1.382 . S
C242 N210 1.423 . S
C242 C243 1.362 . S
C242 C247 1.388 . S
C243 H207 0.929 . S
C243 C242 1.362 . S
C243 C244 1.376 . S
C244 H208 0.931 1_545 S
C244 C243 1.376 . S
C244 C245 1.396 . S
C245 C227 1.472 1_545 S
C245 C244 1.396 . S
C245 C246 1.348 . S
C246 H209 0.929 . S
C246 C245 1.348 . S
C246 C247 1.443 . S
C247 H211 0.932 . S
C247 C242 1.388 . S
C247 C246 1.443 . S
H248 C275 0.929 . S
N249 C274 1.433 . S
N249 C280 1.435 . S
N249 C286 1.423 . S
H250 C276 0.930 . S
H251 C279 0.931 . S
H252 C278 0.929 . S
H253 C281 0.930 . S
H254 C282 0.932 . S
H255 C285 0.929 . S
H256 C284 0.954 . S
H257 C287 0.929 . S
H258 C291 0.932 . S
H259 C288 0.931 . S
H260 C290 0.929 . S
H261 C293 0.929 . S
H262 C294 0.930 . S
H263 C296 0.929 . S
H264 C297 0.931 . S
H265 C299 0.930 . S
H266 C300 0.932 . S
H267 C302 0.931 . S
H268 C303 0.929 . S
H269 C305 0.929 . S
H270 C306 0.931 1_455 S
H271 C308 0.929 . S
N272 C292 1.433 . S
N272 C298 1.435 . S
N272 C304 1.423 . S
H273 C309 0.932 . S
C274 N249 1.433 . S
C274 C275 1.363 . S
C274 C279 1.370 . S
C275 H248 0.929 . S
C275 C274 1.363 . S
C275 C276 1.385 . S
C276 H250 0.930 . S
C276 C275 1.385 . S
C276 C277 1.357 . S
C277 C276 1.357 . S
C277 C278 1.406 . S
C278 H252 0.929 . S
C278 C277 1.406 . S
C278 C279 1.391 . S
C279 H251 0.931 . S
C279 C274 1.370 . S
C279 C278 1.391 . S
C280 N249 1.435 . S
C280 C281 1.358 . S
C280 C285 1.371 . S
C281 H253 0.930 . S
C281 C280 1.358 . S
C281 C282 1.405 . S
C282 H254 0.932 . S
C282 C281 1.405 . S
C282 C283 1.383 . S
C283 C282 1.383 . S
C283 C284 1.393 . S
C284 H256 0.954 . S
C284 C283 1.393 . S
C284 C285 1.382 . S
C285 H255 0.929 . S
C285 C280 1.371 . S
C285 C284 1.382 . S
C286 N249 1.423 . S
C286 C287 1.362 . S
C286 C291 1.388 . S
C287 H257 0.929 . S
C287 C286 1.362 . S
C287 C288 1.376 . S
C288 H259 0.931 . S
C288 C287 1.376 . S
C288 C289 1.396 . S
C289 C288 1.396 . S
C289 C290 1.348 . S
C289 C307 1.472 . S
C290 H260 0.929 . S
C290 C289 1.348 . S
C290 C291 1.443 . S
C291 H258 0.932 . S
C291 C286 1.388 . S
C291 C290 1.443 . S
C292 N272 1.433 . S
C292 C293 1.363 . S
C292 C297 1.370 . S
C293 H261 0.929 . S
C293 C292 1.363 . S
C293 C294 1.385 . S
C294 H262 0.930 . S
C294 C293 1.385 . S
C294 C295 1.357 . S
C295 C294 1.357 . S
C295 C296 1.406 . S
C296 H263 0.929 . S
C296 C295 1.406 . S
C296 C297 1.391 . S
C297 H264 0.931 . S
C297 C292 1.370 . S
C297 C296 1.391 . S
C298 N272 1.435 . S
C298 C299 1.358 . S
C298 C303 1.371 . S
C299 H265 0.930 . S
C299 C298 1.358 . S
C299 C300 1.405 . S
C300 H266 0.932 . S
C300 C299 1.405 . S
C300 C301 1.383 . S
C301 C300 1.383 . S
C301 C302 1.393 . S
C302 H267 0.931 . S
C302 C301 1.393 . S
C302 C303 1.382 . S
C303 H268 0.929 . S
C303 C298 1.371 . S
C303 C302 1.382 . S
C304 N272 1.423 . S
C304 C305 1.362 . S
C304 C309 1.388 . S
C305 H269 0.929 . S
C305 C304 1.362 . S
C305 C306 1.376 . S
C306 H270 0.931 1_655 S
C306 C305 1.376 . S
C306 C307 1.396 1_655 S
C307 C289 1.472 . S
C307 C306 1.396 1_455 S
C307 C308 1.348 1_455 S
C308 H271 0.929 . S
C308 C307 1.348 1_655 S
C308 C309 1.443 . S
C309 H273 0.932 . S
C309 C304 1.388 . S
C309 C308 1.443 . S
H310 C337 0.929 . S
N311 C336 1.433 . S
N311 C342 1.435 . S
N311 C348 1.423 . S
H312 C338 0.930 . S
H313 C341 0.931 . S
H314 C340 0.929 . S
H315 C343 0.930 . S
H316 C344 0.932 . S
H317 C347 0.929 . S
H318 C346 0.931 . S
H319 C349 0.929 . S
H320 C353 0.932 . S
H321 C350 0.931 . S
H322 C352 0.929 . S
H323 C355 0.929 . S
H324 C356 0.930 . S
H325 C358 0.929 . S
H326 C359 0.931 . S
H327 C361 0.930 . S
H328 C362 0.932 . S
H329 C364 0.931 . S
H330 C365 0.929 . S
H331 C367 0.929 . S
H332 C368 0.931 . S
H333 C370 0.929 . S
N334 C354 1.433 . S
N334 C360 1.435 . S
N334 C366 1.423 . S
H335 C371 0.932 . S
C336 N311 1.433 . S
C336 C337 1.363 . S
C336 C341 1.370 . S
C337 H310 0.929 . S
C337 C336 1.363 . S
C337 C338 1.385 . S
C338 H312 0.930 . S
C338 C337 1.385 . S
C338 C339 1.357 . S
C339 C338 1.357 . S
C339 C340 1.406 . S
C340 H314 0.929 . S
C340 C339 1.406 . S
C340 C341 1.391 . S
C341 H313 0.931 . S
C341 C336 1.370 . S
C341 C340 1.391 . S
C342 N311 1.435 . S
C342 C343 1.358 . S
C342 C347 1.371 . S
C343 H315 0.930 . S
C343 C342 1.358 . S
C343 C344 1.405 . S
C344 H316 0.932 . S
C344 C343 1.405 . S
C344 C345 1.383 . S
C345 C344 1.383 . S
C345 C346 1.393 . S
C346 H318 0.931 . S
C346 C345 1.393 . S
C346 C347 1.382 . S
C347 H317 0.929 . S
C347 C342 1.371 . S
C347 C346 1.382 . S
C348 N311 1.423 . S
C348 C349 1.362 . S
C348 C353 1.388 . S
C349 H319 0.929 . S
C349 C348 1.362 . S
C349 C350 1.376 . S
C350 H321 0.931 . S
C350 C349 1.376 . S
C350 C351 1.396 . S
C351 C350 1.396 . S
C351 C352 1.348 . S
C351 C369 1.472 . S
C352 H322 0.929 . S
C352 C351 1.348 . S
C352 C353 1.443 . S
C353 H320 0.932 . S
C353 C348 1.388 . S
C353 C352 1.443 . S
C354 N334 1.433 . S
C354 C355 1.363 . S
C354 C359 1.370 . S
C355 H323 0.929 . S
C355 C354 1.363 . S
C355 C356 1.385 . S
C356 H324 0.930 . S
C356 C355 1.385 . S
C356 C357 1.357 . S
C357 C356 1.357 . S
C357 C358 1.406 . S
C358 H325 0.929 . S
C358 C357 1.406 . S
C358 C359 1.391 . S
C359 H326 0.931 . S
C359 C354 1.370 . S
C359 C358 1.391 . S
C360 N334 1.435 . S
C360 C361 1.358 . S
C360 C365 1.371 . S
C361 H327 0.930 . S
C361 C360 1.358 . S
C361 C362 1.405 . S
C362 H328 0.932 . S
C362 C361 1.405 . S
C362 C363 1.383 . S
C363 C362 1.383 . S
C363 C364 1.393 . S
C364 H329 0.931 . S
C364 C363 1.393 . S
C364 C365 1.382 . S
C365 H330 0.929 . S
C365 C360 1.371 . S
C365 C364 1.382 . S
C366 N334 1.423 . S
C366 C367 1.362 . S
C366 C371 1.388 . S
C367 H331 0.929 . S
C367 C366 1.362 . S
C367 C368 1.376 . S
C368 H332 0.931 . S
C368 C367 1.376 . S
C368 C369 1.396 . S
C369 C351 1.472 . S
C369 C368 1.396 . S
C369 C370 1.348 . S
C370 H333 0.929 . S
C370 C369 1.348 . S
C370 C371 1.443 . S
C371 H335 0.932 . S
C371 C366 1.388 . S
C371 C370 1.443 . S
H372 C399 0.929 . S
N373 C398 1.433 . S
N373 C404 1.435 . S
N373 C410 1.423 . S
H374 C400 0.930 . S
H375 C403 0.931 . S
H376 C402 0.929 . S
H377 C405 0.930 . S
H378 C406 0.932 . S
H379 C409 0.929 . S
H380 C408 0.931 . S
H381 C411 0.928 1_545 S
H382 C415 0.932 . S
H383 C412 0.931 . S
H384 C414 0.929 . S
H385 C417 0.929 . S
H386 C418 0.930 . S
H387 C420 0.929 . S
H388 C421 0.931 . S
H389 C423 0.930 . S
H390 C424 0.932 . S
H391 C426 0.931 . S
H392 C427 0.929 . S
H393 C429 0.929 . S
H394 C430 0.931 . S
H395 C432 0.929 . S
N396 C416 1.433 . S
N396 C422 1.435 . S
N396 C428 1.423 . S
H397 C433 0.932 . S
C398 N373 1.433 . S
C398 C399 1.363 . S
C398 C403 1.370 . S
C399 H372 0.929 . S
C399 C398 1.363 . S
C399 C400 1.385 . S
C400 H374 0.930 . S
C400 C399 1.385 . S
C400 C401 1.357 . S
C401 C400 1.357 . S
C401 C402 1.406 . S
C402 H376 0.929 . S
C402 C401 1.406 . S
C402 C403 1.391 . S
C403 H375 0.931 . S
C403 C398 1.370 . S
C403 C402 1.391 . S
C404 N373 1.435 . S
C404 C405 1.358 . S
C404 C409 1.371 . S
C405 H377 0.930 . S
C405 C404 1.358 . S
C405 C406 1.405 . S
C406 H378 0.932 . S
C406 C405 1.405 . S
C406 C407 1.383 . S
C407 C406 1.383 . S
C407 C408 1.393 . S
C408 H380 0.931 . S
C408 C407 1.393 . S
C408 C409 1.382 . S
C409 H379 0.929 . S
C409 C404 1.371 . S
C409 C408 1.382 . S
C410 N373 1.423 . S
C410 C411 1.362 . S
C410 C415 1.388 . S
C411 H381 0.928 1_565 S
C411 C410 1.362 . S
C411 C412 1.376 1_565 S
C412 H383 0.931 . S
C412 C411 1.376 1_545 S
C412 C413 1.396 . S
C413 C412 1.396 . S
C413 C414 1.348 1_545 S
C413 C431 1.472 . S
C414 H384 0.929 . S
C414 C413 1.348 1_565 S
C414 C415 1.443 . S
C415 H382 0.932 . S
C415 C410 1.388 . S
C415 C414 1.443 . S
C416 N396 1.433 . S
C416 C417 1.363 . S
C416 C421 1.370 . S
C417 H385 0.929 . S
C417 C416 1.363 . S
C417 C418 1.385 . S
C418 H386 0.930 . S
C418 C417 1.385 . S
C418 C419 1.357 . S
C419 C418 1.357 . S
C419 C420 1.406 . S
C420 H387 0.929 . S
C420 C419 1.406 . S
C420 C421 1.391 . S
C421 H388 0.931 . S
C421 C416 1.370 . S
C421 C420 1.391 . S
C422 N396 1.435 . S
C422 C423 1.358 . S
C422 C427 1.371 . S
C423 H389 0.930 . S
C423 C422 1.358 . S
C423 C424 1.405 . S
C424 H390 0.932 . S
C424 C423 1.405 . S
C424 C425 1.383 . S
C425 C424 1.383 . S
C425 C426 1.393 . S
C426 H391 0.931 . S
C426 C425 1.393 . S
C426 C427 1.382 . S
C427 H392 0.929 . S
C427 C422 1.371 . S
C427 C426 1.382 . S
C428 N396 1.423 . S
C428 C429 1.362 . S
C428 C433 1.388 . S
C429 H393 0.929 . S
C429 C428 1.362 . S
C429 C430 1.376 . S
C430 H394 0.931 . S
C430 C429 1.376 . S
C430 C431 1.396 . S
C431 C413 1.472 . S
C431 C430 1.396 . S
C431 C432 1.348 . S
C432 H395 0.929 . S
C432 C431 1.348 . S
C432 C433 1.443 . S
C433 H397 0.932 . S
C433 C428 1.388 . S
C433 C432 1.443 . S
H434 C461 0.929 . S
N435 C460 1.433 . S
N435 C466 1.435 . S
N435 C472 1.423 . S
H436 C462 0.930 . S
H437 C465 0.931 . S
H438 C464 0.929 . S
H439 C467 0.930 . S
H440 C468 0.932 . S
H441 C471 0.929 . S
H442 C470 0.931 . S
H443 C473 0.929 . S
H444 C477 0.932 . S
H445 C474 0.931 . S
H446 C476 0.929 . S
H447 C479 0.929 . S
H448 C480 0.930 . S
H449 C482 0.929 . S
H450 C483 0.931 . S
H451 C485 0.930 . S
H452 C486 0.932 . S
H453 C488 0.931 . S
H454 C489 0.929 . S
H455 C491 0.929 . S
H456 C492 0.946 . S
H457 C494 0.929 . S
N458 C478 1.433 . S
N458 C484 1.435 . S
N458 C490 1.423 . S
H459 C495 0.932 . S
C460 N435 1.433 . S
C460 C461 1.363 . S
C460 C465 1.370 . S
C461 H434 0.929 . S
C461 C460 1.363 . S
C461 C462 1.385 . S
C462 H436 0.930 . S
C462 C461 1.385 . S
C462 C463 1.357 . S
C463 C462 1.357 . S
C463 C464 1.406 . S
C464 H438 0.929 . S
C464 C463 1.406 . S
C464 C465 1.391 . S
C465 H437 0.931 . S
C465 C460 1.370 . S
C465 C464 1.391 . S
C466 N435 1.435 . S
C466 C467 1.358 . S
C466 C471 1.371 . S
C467 H439 0.930 . S
C467 C466 1.358 . S
C467 C468 1.405 . S
C468 H440 0.932 . S
C468 C467 1.405 . S
C468 C469 1.383 . S
C469 C468 1.383 . S
C469 C470 1.393 . S
C470 H442 0.931 . S
C470 C469 1.393 . S
C470 C471 1.382 . S
C471 H441 0.929 . S
C471 C466 1.371 . S
C471 C470 1.382 . S
C472 N435 1.423 . S
C472 C473 1.362 . S
C472 C477 1.388 . S
C473 H443 0.929 . S
C473 C472 1.362 . S
C473 C474 1.376 1_455 S
C474 H445 0.931 . S
C474 C473 1.376 1_655 S
C474 C475 1.396 . S
C475 C474 1.396 . S
C475 C476 1.348 1_655 S
C475 C493 1.472 1_565 S
C476 H446 0.929 . S
C476 C475 1.348 1_455 S
C476 C477 1.443 . S
C477 H444 0.932 . S
C477 C472 1.388 . S
C477 C476 1.443 . S
C478 N458 1.433 . S
C478 C479 1.363 . S
C478 C483 1.370 . S
C479 H447 0.929 . S
C479 C478 1.363 . S
C479 C480 1.385 . S
C480 H448 0.930 . S
C480 C479 1.385 . S
C480 C481 1.357 . S
C481 C480 1.357 . S
C481 C482 1.406 . S
C482 H449 0.929 . S
C482 C481 1.406 . S
C482 C483 1.391 . S
C483 H450 0.931 . S
C483 C478 1.370 . S
C483 C482 1.391 . S
C484 N458 1.435 . S
C484 C485 1.358 . S
C484 C489 1.371 . S
C485 H451 0.930 . S
C485 C484 1.358 . S
C485 C486 1.405 . S
C486 H452 0.932 . S
C486 C485 1.405 . S
C486 C487 1.383 . S
C487 C486 1.383 . S
C487 C488 1.393 . S
C488 H453 0.931 . S
C488 C487 1.393 . S
C488 C489 1.382 . S
C489 H454 0.929 . S
C489 C484 1.371 . S
C489 C488 1.382 . S
C490 N458 1.423 . S
C490 C491 1.362 . S
C490 C495 1.388 . S
C491 H455 0.929 . S
C491 C490 1.362 . S
C491 C492 1.376 . S
C492 H456 0.946 . S
C492 C491 1.376 . S
C492 C493 1.396 . S
C493 C475 1.472 1_545 S
C493 C492 1.396 . S
C493 C494 1.348 . S
C494 H457 0.929 . S
C494 C493 1.348 . S
C494 C495 1.443 . S
C495 H459 0.932 . S
C495 C490 1.388 . S
C495 C494 1.443 . S
Co496 O497 2.211 1_554 S
Co496 O498 2.082 1_554 S
Co496 O500 2.004 . S
Co496 O506 2.021 1_554 S
Co496 O508 2.137 . S
Co496 O509 2.244 . S
O497 Co496 2.211 1_556 S
O497 C504 1.251 . S
O498 Co496 2.082 1_556 S
O498 C504 1.267 . S
C499 O508 1.247 . S
C499 O509 1.272 . S
O500 Co496 2.004 . S
O500 C505 1.259 . S
Co501 O502 2.061 . S
Co501 O507 2.052 1_554 S
Co501 O509 2.135 . S
O502 Co501 2.061 . S
O502 C505 1.235 . S
C503 O506 1.238 . S
C503 O507 1.241 . S
C504 O497 1.251 . S
C504 O498 1.267 . S
C505 O500 1.259 . S
C505 O502 1.235 . S
O506 Co496 2.021 1_556 S
O506 C503 1.238 . S
O507 Co501 2.052 1_556 S
O507 C503 1.241 . S
O508 Co496 2.137 . S
O508 C499 1.247 . S
O509 Co496 2.244 . S
O509 C499 1.272 . S
O509 Co501 2.135 . S
Co510 O511 2.216 . S
Co510 O512 2.091 . S
Co510 O514 2.004 . S
Co510 O520 2.021 . S
Co510 O522 2.137 . S
Co510 O523 2.244 . S
O511 Co510 2.216 . S
O511 C518 1.247 . S
O512 Co510 2.091 . S
O512 C518 1.261 . S
C513 O522 1.247 . S
C513 O523 1.272 . S
O514 Co510 2.004 . S
O514 C519 1.259 . S
Co515 O516 2.061 . S
Co515 O521 2.052 . S
Co515 O523 2.135 . S
O516 Co515 2.061 . S
O516 C519 1.235 . S
C517 O520 1.238 . S
C517 O521 1.241 . S
C518 O511 1.247 . S
C518 O512 1.261 . S
C519 O514 1.259 . S
C519 O516 1.235 . S
O520 Co510 2.021 . S
O520 C517 1.238 . S
O521 Co515 2.052 . S
O521 C517 1.241 . S
O522 Co510 2.137 . S
O522 C513 1.247 . S
O523 Co510 2.244 . S
O523 C513 1.272 . S
O523 Co515 2.135 . S
Co524 O525 2.216 . S
Co524 O526 2.091 . S
Co524 O528 2.004 . S
Co524 O534 2.021 . S
Co524 O536 2.137 . S
Co524 O537 2.244 . S
O525 Co524 2.216 . S
O525 C532 1.247 . S
O526 Co524 2.091 . S
O526 C532 1.261 . S
C527 O536 1.247 . S
C527 O537 1.272 . S
O528 Co524 2.004 . S
O528 C533 1.259 . S
Co529 O530 2.061 . S
Co529 O535 2.052 . S
Co529 O537 2.135 . S
O530 Co529 2.061 . S
O530 C533 1.235 . S
C531 O534 1.238 . S
C531 O535 1.241 . S
C532 O525 1.247 . S
C532 O526 1.261 . S
C533 O528 1.259 . S
C533 O530 1.235 . S
O534 Co524 2.021 . S
O534 C531 1.238 . S
O535 Co529 2.052 . S
O535 C531 1.241 . S
O536 Co524 2.137 . S
O536 C527 1.247 . S
O537 Co524 2.244 . S
O537 C527 1.272 . S
O537 Co529 2.135 . S
Co538 O539 2.216 . S
Co538 O540 2.091 . S
Co538 O542 2.004 . S
Co538 O548 2.021 . S
Co538 O550 2.137 . S
Co538 O551 2.244 . S
O539 Co538 2.216 . S
O539 C546 1.247 . S
O540 Co538 2.091 . S
O540 C546 1.261 . S
C541 O550 1.247 . S
C541 O551 1.272 . S
O542 Co538 2.004 . S
O542 C547 1.259 . S
Co543 O544 2.061 . S
Co543 O549 2.052 . S
Co543 O551 2.135 . S
O544 Co543 2.061 . S
O544 C547 1.235 . S
C545 O548 1.238 . S
C545 O549 1.241 . S
C546 O539 1.247 . S
C546 O540 1.261 . S
C547 O542 1.259 . S
C547 O544 1.235 . S
O548 Co538 2.021 . S
O548 C545 1.238 . S
O549 Co543 2.052 . S
O549 C545 1.241 . S
O550 Co538 2.137 . S
O550 C541 1.247 . S
O551 Co538 2.244 . S
O551 C541 1.272 . S
O551 Co543 2.135 . S
Co552 O553 2.216 . S
Co552 O554 2.091 . S
Co552 O556 2.004 . S
Co552 O562 2.021 . S
Co552 O564 2.137 . S
Co552 O565 2.244 . S
O553 Co552 2.216 . S
O553 C560 1.247 . S
O554 Co552 2.091 . S
O554 C560 1.261 . S
C555 O564 1.247 . S
C555 O565 1.272 . S
O556 Co552 2.004 . S
O556 C561 1.259 . S
Co557 O558 2.061 . S
Co557 O563 2.052 . S
Co557 O565 2.135 . S
O558 Co557 2.061 . S
O558 C561 1.235 . S
C559 O562 1.238 . S
C559 O563 1.241 . S
C560 O553 1.247 . S
C560 O554 1.261 . S
C561 O556 1.259 . S
C561 O558 1.235 . S
O562 Co552 2.021 . S
O562 C559 1.238 . S
O563 Co557 2.052 . S
O563 C559 1.241 . S
O564 Co552 2.137 . S
O564 C555 1.247 . S
O565 Co552 2.244 . S
O565 C555 1.272 . S
O565 Co557 2.135 . S
Co566 O567 2.216 . S
Co566 O568 2.091 . S
Co566 O570 2.004 . S
Co566 O576 2.021 . S
Co566 O578 2.137 . S
Co566 O579 2.244 . S
O567 Co566 2.216 . S
O567 C574 1.247 . S
O568 Co566 2.091 . S
O568 C574 1.261 . S
C569 O578 1.247 . S
C569 O579 1.272 . S
O570 Co566 2.004 . S
O570 C575 1.259 . S
Co571 O572 2.061 . S
Co571 O577 2.052 . S
Co571 O579 2.135 . S
O572 Co571 2.061 . S
O572 C575 1.235 . S
C573 O576 1.238 . S
C573 O577 1.241 . S
C574 O567 1.247 . S
C574 O568 1.261 . S
C575 O570 1.259 . S
C575 O572 1.235 . S
O576 Co566 2.021 . S
O576 C573 1.238 . S
O577 Co571 2.052 . S
O577 C573 1.241 . S
O578 Co566 2.137 . S
O578 C569 1.247 . S
O579 Co566 2.244 . S
O579 C569 1.272 . S
O579 Co571 2.135 . S
Co580 O581 2.216 1_556 S
Co580 O582 2.091 1_556 S
Co580 O584 2.004 . S
Co580 O590 2.021 1_556 S
Co580 O592 2.137 . S
Co580 O593 2.244 . S
O581 Co580 2.216 1_554 S
O581 C588 1.247 . S
O582 Co580 2.091 1_554 S
O582 C588 1.261 . S
C583 O592 1.247 . S
C583 O593 1.272 . S
O584 Co580 2.004 . S
O584 C589 1.259 . S
Co585 O586 2.061 . S
Co585 O591 2.052 1_556 S
Co585 O593 2.135 . S
O586 Co585 2.061 . S
O586 C589 1.235 . S
C587 O590 1.238 . S
C587 O591 1.241 . S
C588 O581 1.247 . S
C588 O582 1.261 . S
C589 O584 1.259 . S
C589 O586 1.235 . S
O590 Co580 2.021 1_554 S
O590 C587 1.238 . S
O591 Co585 2.052 1_554 S
O591 C587 1.241 . S
O592 Co580 2.137 . S
O592 C583 1.247 . S
O593 Co580 2.244 . S
O593 C583 1.272 . S
O593 Co585 2.135 . S
Co594 O595 2.216 . S
Co594 O596 2.091 . S
Co594 O598 2.004 . S
Co594 O604 2.021 . S
Co594 O606 2.137 . S
Co594 O607 2.244 . S
O595 Co594 2.216 . S
O595 C602 1.247 . S
O596 Co594 2.091 . S
O596 C602 1.261 . S
C597 O606 1.247 . S
C597 O607 1.272 . S
O598 Co594 2.004 . S
O598 C603 1.259 . S
Co599 O600 2.061 . S
Co599 O605 2.052 . S
Co599 O607 2.135 . S
O600 Co599 2.061 . S
O600 C603 1.235 . S
C601 O604 1.238 . S
C601 O605 1.241 . S
C602 O595 1.247 . S
C602 O596 1.261 . S
C603 O598 1.259 . S
C603 O600 1.235 . S
O604 Co594 2.021 . S
O604 C601 1.238 . S
O605 Co599 2.052 . S
O605 C601 1.241 . S
O606 Co594 2.137 . S
O606 C597 1.247 . S
O607 Co594 2.244 . S
O607 C597 1.272 . S
O607 Co599 2.135 . S
H608 C614 0.930 . S
H609 C617 0.930 . S
H610 C618 0.930 . S
H611 C619 0.930 . S
H612 C622 0.930 . S
H613 C623 0.930 . S
C614 H608 0.930 . S
C614 C615 1.355 . S
C614 C616 1.415 . S
C615 C614 1.355 . S
C615 C617 1.419 . S
C616 C614 1.415 . S
C616 C621 1.425 . S
C616 C623 1.409 . S
C617 H609 0.930 . S
C617 C615 1.419 . S
C617 C618 1.362 . S
C618 H610 0.930 . S
C618 C617 1.362 . S
C618 C621 1.409 . S
C619 H611 0.930 . S
C619 C620 1.355 . S
C619 C621 1.415 . S
C620 C619 1.355 . S
C620 C622 1.419 . S
C621 C616 1.425 . S
C621 C618 1.409 . S
C621 C619 1.415 . S
C622 H612 0.930 . S
C622 C620 1.419 . S
C622 C623 1.362 . S
C623 H613 0.930 . S
C623 C616 1.409 . S
C623 C622 1.362 . S
H624 C630 0.930 . S
H625 C633 0.930 . S
H626 C634 0.930 . S
H627 C635 0.930 . S
H628 C638 0.930 . S
H629 C639 0.930 . S
C630 H624 0.930 . S
C630 C631 1.355 . S
C630 C632 1.415 . S
C631 C630 1.355 . S
C631 C633 1.419 . S
C632 C630 1.415 . S
C632 C637 1.425 . S
C632 C639 1.409 . S
C633 H625 0.930 . S
C633 C631 1.419 . S
C633 C634 1.362 . S
C634 H626 0.930 . S
C634 C633 1.362 . S
C634 C637 1.409 . S
C635 H627 0.930 . S
C635 C636 1.355 . S
C635 C637 1.415 . S
C636 C635 1.355 . S
C636 C638 1.419 . S
C637 C632 1.425 . S
C637 C634 1.409 . S
C637 C635 1.415 . S
C638 H628 0.930 . S
C638 C636 1.419 . S
C638 C639 1.362 . S
C639 H629 0.930 . S
C639 C632 1.409 . S
C639 C638 1.362 . S
H640 C646 0.930 . S
H641 C649 0.930 . S
H642 C650 0.930 . S
H643 C651 0.930 . S
H644 C654 0.930 . S
H645 C655 0.930 . S
C646 H640 0.930 . S
C646 C647 1.355 . S
C646 C648 1.415 . S
C647 C646 1.355 . S
C647 C649 1.419 . S
C648 C646 1.415 . S
C648 C653 1.425 . S
C648 C655 1.409 . S
C649 H641 0.930 . S
C649 C647 1.419 . S
C649 C650 1.362 . S
C650 H642 0.930 . S
C650 C649 1.362 . S
C650 C653 1.409 . S
C651 H643 0.930 . S
C651 C652 1.355 . S
C651 C653 1.415 . S
C652 C651 1.355 . S
C652 C654 1.419 . S
C653 C648 1.425 . S
C653 C650 1.409 . S
C653 C651 1.415 . S
C654 H644 0.930 . S
C654 C652 1.419 . S
C654 C655 1.362 . S
C655 H645 0.930 . S
C655 C648 1.409 . S
C655 C654 1.362 . S
H656 C662 0.930 . S
H657 C665 0.930 . S
H658 C666 0.930 . S
H659 C667 0.930 . S
H660 C670 0.930 . S
H661 C671 0.930 . S
C662 H656 0.930 . S
C662 C663 1.355 . S
C662 C664 1.415 . S
C663 C662 1.355 . S
C663 C665 1.419 . S
C664 C662 1.415 . S
C664 C669 1.425 . S
C664 C671 1.409 . S
C665 H657 0.930 . S
C665 C663 1.419 . S
C665 C666 1.362 . S
C666 H658 0.930 . S
C666 C665 1.362 . S
C666 C669 1.409 . S
C667 H659 0.930 . S
C667 C668 1.355 . S
C667 C669 1.415 . S
C668 C667 1.355 . S
C668 C670 1.419 . S
C669 C664 1.425 . S
C669 C666 1.409 . S
C669 C667 1.415 . S
C670 H660 0.930 . S
C670 C668 1.419 . S
C670 C671 1.362 . S
C671 H661 0.930 . S
C671 C664 1.409 . S
C671 C670 1.362 . S
H672 C678 0.930 . S
H673 C681 0.930 . S
H674 C682 0.930 . S
H675 C683 0.930 . S
H676 C686 0.930 . S
H677 C687 0.930 . S
C678 H672 0.930 . S
C678 C679 1.355 . S
C678 C680 1.415 . S
C679 C678 1.355 . S
C679 C681 1.419 1_556 S
C680 C678 1.415 . S
C680 C685 1.425 1_556 S
C680 C687 1.409 . S
C681 H673 0.930 . S
C681 C679 1.419 1_554 S
C681 C682 1.362 . S
C682 H674 0.930 . S
C682 C681 1.362 . S
C682 C685 1.409 . S
C683 H675 0.930 . S
C683 C684 1.355 1_554 S
C683 C685 1.415 . S
C684 C683 1.355 1_556 S
C684 C686 1.419 . S
C685 C680 1.425 1_554 S
C685 C682 1.409 . S
C685 C683 1.415 . S
C686 H676 0.930 . S
C686 C684 1.419 . S
C686 C687 1.362 . S
C687 H677 0.930 . S
C687 C680 1.409 . S
C687 C686 1.362 . S
H688 C694 0.930 . S
H689 C697 0.930 . S
H690 C698 0.930 . S
H691 C699 0.930 . S
H692 C702 0.930 . S
H693 C703 0.930 . S
C694 H688 0.930 . S
C694 C695 1.355 . S
C694 C696 1.415 . S
C695 C694 1.355 . S
C695 C697 1.419 . S
C696 C694 1.415 . S
C696 C701 1.425 . S
C696 C703 1.409 . S
C697 H689 0.930 . S
C697 C695 1.419 . S
C697 C698 1.362 . S
C698 H690 0.930 . S
C698 C697 1.362 . S
C698 C701 1.409 . S
C699 H691 0.930 . S
C699 C700 1.355 . S
C699 C701 1.415 . S
C700 C699 1.355 . S
C700 C702 1.419 . S
C701 C696 1.425 . S
C701 C698 1.409 . S
C701 C699 1.415 . S
C702 H692 0.930 . S
C702 C700 1.419 . S
C702 C703 1.362 . S
C703 H693 0.930 . S
C703 C696 1.409 . S
C703 C702 1.362 . S
H704 C710 0.930 . S
H705 C713 0.930 . S
H706 C714 0.930 . S
H707 C715 0.930 . S
H708 C718 0.930 . S
H709 C719 0.930 . S
C710 H704 0.930 . S
C710 C711 1.355 . S
C710 C712 1.415 . S
C711 C710 1.355 . S
C711 C713 1.419 . S
C712 C710 1.415 . S
C712 C717 1.425 . S
C712 C719 1.409 . S
C713 H705 0.930 . S
C713 C711 1.419 . S
C713 C714 1.362 . S
C714 H706 0.930 . S
C714 C713 1.362 . S
C714 C717 1.409 . S
C715 H707 0.930 . S
C715 C716 1.355 . S
C715 C717 1.415 . S
C716 C715 1.355 . S
C716 C718 1.419 . S
C717 C712 1.425 . S
C717 C714 1.409 . S
C717 C715 1.415 . S
C718 H708 0.930 . S
C718 C716 1.419 . S
C718 C719 1.362 . S
C719 H709 0.930 . S
C719 C712 1.409 . S
C719 C718 1.362 . S
H720 C726 0.930 . S
H721 C729 0.930 . S
H722 C730 0.930 . S
H723 C731 0.930 . S
H724 C734 0.930 . S
H725 C735 0.930 . S
C726 H720 0.930 . S
C726 C727 1.355 . S
C726 C728 1.415 . S
C727 C726 1.355 . S
C727 C729 1.419 . S
C728 C726 1.415 . S
C728 C733 1.425 . S
C728 C735 1.409 . S
C729 H721 0.930 . S
C729 C727 1.419 . S
C729 C730 1.362 . S
C730 H722 0.930 . S
C730 C729 1.362 . S
C730 C733 1.409 . S
C731 H723 0.930 . S
C731 C732 1.355 . S
C731 C733 1.415 . S
C732 C731 1.355 . S
C732 C734 1.419 . S
C733 C728 1.425 . S
C733 C730 1.409 . S
C733 C731 1.415 . S
C734 H724 0.930 . S
C734 C732 1.419 . S
C734 C735 1.362 . S
C735 H725 0.930 . S
C735 C728 1.409 . S
C735 C734 1.362 . S
H736 C742 0.930 . S
H737 C745 0.930 . S
H738 C746 0.930 . S
H739 C747 0.930 . S
H740 C750 0.930 . S
H741 C751 0.930 . S
C742 H736 0.930 . S
C742 C743 1.355 . S
C742 C744 1.415 . S
C743 C742 1.355 . S
C743 C745 1.419 . S
C744 C742 1.415 . S
C744 C749 1.425 . S
C744 C751 1.409 . S
C745 H737 0.930 . S
C745 C743 1.419 . S
C745 C746 1.362 . S
C746 H738 0.930 . S
C746 C745 1.362 . S
C746 C749 1.409 . S
C747 H739 0.930 . S
C747 C748 1.355 . S
C747 C749 1.415 . S
C748 C747 1.355 . S
C748 C750 1.419 . S
C749 C744 1.425 . S
C749 C746 1.409 . S
C749 C747 1.415 . S
C750 H740 0.930 . S
C750 C748 1.419 . S
C750 C751 1.362 . S
C751 H741 0.930 . S
C751 C744 1.409 . S
C751 C750 1.362 . S
H752 C758 0.930 . S
H753 C761 0.930 . S
H754 C762 0.930 . S
H755 C763 0.930 . S
H756 C766 0.930 . S
H757 C767 0.930 . S
C758 H752 0.930 . S
C758 C759 1.355 . S
C758 C760 1.415 . S
C759 C758 1.355 . S
C759 C761 1.419 1_554 S
C760 C758 1.415 . S
C760 C765 1.423 1_554 S
C760 C767 1.409 . S
C761 H753 0.930 . S
C761 C759 1.419 1_556 S
C761 C762 1.362 . S
C762 H754 0.930 . S
C762 C761 1.362 . S
C762 C765 1.411 . S
C763 H755 0.930 . S
C763 C764 1.355 1_556 S
C763 C765 1.415 . S
C764 C763 1.355 1_554 S
C764 C766 1.419 . S
C765 C760 1.423 1_556 S
C765 C762 1.411 . S
C765 C763 1.415 . S
C766 H756 0.930 . S
C766 C764 1.419 . S
C766 C767 1.362 . S
C767 H757 0.930 . S
C767 C760 1.409 . S
C767 C766 1.362 . S
H768 C774 0.930 . S
H769 C777 0.930 . S
H770 C778 0.930 . S
H771 C779 0.930 . S
H772 C782 0.930 . S
H773 C783 0.930 . S
C774 H768 0.930 . S
C774 C775 1.355 . S
C774 C776 1.415 . S
C775 C774 1.355 . S
C775 C777 1.419 . S
C776 C774 1.415 . S
C776 C781 1.425 . S
C776 C783 1.409 . S
C777 H769 0.930 . S
C777 C775 1.419 . S
C777 C778 1.362 . S
C778 H770 0.930 . S
C778 C777 1.362 . S
C778 C781 1.409 . S
C779 H771 0.930 . S
C779 C780 1.355 . S
C779 C781 1.415 . S
C780 C779 1.355 . S
C780 C782 1.419 . S
C781 C776 1.425 . S
C781 C778 1.409 . S
C781 C779 1.415 . S
C782 H772 0.930 . S
C782 C780 1.419 . S
C782 C783 1.362 . S
C783 H773 0.930 . S
C783 C776 1.409 . S
C783 C782 1.362 . S
H784 C790 0.930 . S
H785 C793 0.930 . S
H786 C794 0.930 . S
H787 C795 0.930 . S
H788 C798 0.930 . S
H789 C799 0.930 . S
C790 H784 0.930 . S
C790 C791 1.355 . S
C790 C792 1.415 . S
C791 C790 1.355 . S
C791 C793 1.419 . S
C792 C790 1.415 . S
C792 C797 1.425 . S
C792 C799 1.409 . S
C793 H785 0.930 . S
C793 C791 1.419 . S
C793 C794 1.362 . S
C794 H786 0.930 . S
C794 C793 1.362 . S
C794 C797 1.409 . S
C795 H787 0.930 . S
C795 C796 1.355 . S
C795 C797 1.415 . S
C796 C795 1.355 . S
C796 C798 1.419 . S
C797 C792 1.425 . S
C797 C794 1.409 . S
C797 C795 1.415 . S
C798 H788 0.930 . S
C798 C796 1.419 . S
C798 C799 1.362 . S
C799 H789 0.930 . S
C799 C792 1.409 . S
C799 C798 1.362 . S
H800 C806 0.930 . S
H801 C809 0.930 . S
H802 C810 0.930 . S
H803 C811 0.930 . S
H804 C814 0.930 . S
H805 C815 0.930 . S
C806 H800 0.930 . S
C806 C807 1.355 . S
C806 C808 1.415 . S
C807 C806 1.355 . S
C807 C809 1.419 . S
C808 C806 1.415 . S
C808 C813 1.425 . S
C808 C815 1.409 . S
C809 H801 0.930 . S
C809 C807 1.419 . S
C809 C810 1.362 . S
C810 H802 0.930 . S
C810 C809 1.362 . S
C810 C813 1.409 . S
C811 H803 0.930 . S
C811 C812 1.355 . S
C811 C813 1.415 . S
C812 C811 1.355 . S
C812 C814 1.419 . S
C813 C808 1.425 . S
C813 C810 1.409 . S
C813 C811 1.415 . S
C814 H804 0.930 . S
C814 C812 1.419 . S
C814 C815 1.362 . S
C815 H805 0.930 . S
C815 C808 1.409 . S
C815 C814 1.362 . S
H816 C822 0.930 . S
H817 C825 0.930 . S
H818 C826 0.930 . S
H819 C827 0.930 . S
H820 C830 0.930 . S
H821 C831 0.930 . S
C822 H816 0.930 . S
C822 C823 1.355 . S
C822 C824 1.415 . S
C823 C822 1.355 . S
C823 C825 1.419 . S
C824 C822 1.415 . S
C824 C829 1.425 . S
C824 C831 1.409 . S
C825 H817 0.930 . S
C825 C823 1.419 . S
C825 C826 1.362 . S
C826 H818 0.930 . S
C826 C825 1.362 . S
C826 C829 1.409 . S
C827 H819 0.930 . S
C827 C828 1.355 . S
C827 C829 1.415 . S
C828 C827 1.355 . S
C828 C830 1.419 . S
C829 C824 1.425 . S
C829 C826 1.409 . S
C829 C827 1.415 . S
C830 H820 0.930 . S
C830 C828 1.419 . S
C830 C831 1.362 . S
C831 H821 0.930 . S
C831 C824 1.409 . S
C831 C830 1.362 . S
H832 C838 0.930 . S
H833 C841 0.930 . S
H834 C842 0.930 . S
H835 C843 0.930 . S
H836 C846 0.930 . S
H837 C847 0.930 . S
C838 H832 0.930 . S
C838 C839 1.355 1_554 S
C838 C840 1.421 . S
C839 C838 1.355 1_556 S
C839 C841 1.419 . S
C840 C838 1.421 . S
C840 C845 1.401 1_554 S
C840 C847 1.427 . S
C841 H833 0.930 . S
C841 C839 1.419 . S
C841 C842 1.362 . S
C842 H834 0.930 . S
C842 C841 1.362 . S
C842 C845 1.409 . S
C843 H835 0.930 . S
C843 C844 1.355 . S
C843 C845 1.415 . S
C844 C843 1.355 . S
C844 C846 1.419 1_556 S
C845 C840 1.401 1_556 S
C845 C842 1.409 . S
C845 C843 1.415 . S
C846 H836 0.930 . S
C846 C844 1.419 1_554 S
C846 C847 1.362 . S
C847 H837 0.930 . S
C847 C840 1.427 . S
C847 C846 1.362 . S
H848 C854 0.930 . S
H849 C857 0.930 . S
H850 C858 0.930 . S
H851 C859 0.930 . S
H852 C862 0.930 . S
H853 C863 0.930 . S
C854 H848 0.930 . S
C854 C855 1.355 . S
C854 C856 1.415 . S
C855 C854 1.355 . S
C855 C857 1.419 . S
C856 C854 1.415 . S
C856 C861 1.425 . S
C856 C863 1.409 . S
C857 H849 0.930 . S
C857 C855 1.419 . S
C857 C858 1.362 . S
C858 H850 0.930 . S
C858 C857 1.362 . S
C858 C861 1.409 . S
C859 H851 0.930 . S
C859 C860 1.355 . S
C859 C861 1.415 . S
C860 C859 1.355 . S
C860 C862 1.419 . S
C861 C856 1.425 . S
C861 C858 1.409 . S
C861 C859 1.415 . S
C862 H852 0.930 . S
C862 C860 1.419 . S
C862 C863 1.362 . S
C863 H853 0.930 . S
C863 C856 1.409 . S
C863 C862 1.362 . S
H864 C870 0.930 . S
H865 C873 0.930 . S
H866 C874 0.930 . S
H867 C875 0.930 . S
H868 C878 0.930 . S
H869 C879 0.930 . S
C870 H864 0.930 . S
C870 C871 1.355 . S
C870 C872 1.415 . S
C871 C870 1.355 . S
C871 C873 1.419 . S
C872 C870 1.415 . S
C872 C877 1.425 . S
C872 C879 1.409 . S
C873 H865 0.930 . S
C873 C871 1.419 . S
C873 C874 1.362 . S
C874 H866 0.930 . S
C874 C873 1.362 . S
C874 C877 1.409 . S
C875 H867 0.930 . S
C875 C876 1.355 . S
C875 C877 1.415 . S
C876 C875 1.355 . S
C876 C878 1.419 . S
C877 C872 1.425 . S
C877 C874 1.409 . S
C877 C875 1.415 . S
C878 H868 0.930 . S
C878 C876 1.419 . S
C878 C879 1.362 . S
C879 H869 0.930 . S
C879 C872 1.409 . S
C879 C878 1.362 . S
H880 C886 0.930 . S
H881 C889 0.930 . S
H882 C890 0.930 . S
H883 C891 0.930 . S
H884 C894 0.930 . S
H885 C895 0.930 . S
C886 H880 0.930 . S
C886 C887 1.355 . S
C886 C888 1.415 . S
C887 C886 1.355 . S
C887 C889 1.419 . S
C888 C886 1.415 . S
C888 C893 1.425 . S
C888 C895 1.409 . S
C889 H881 0.930 . S
C889 C887 1.419 . S
C889 C890 1.362 . S
C890 H882 0.930 . S
C890 C889 1.362 . S
C890 C893 1.409 . S
C891 H883 0.930 . S
C891 C892 1.355 . S
C891 C893 1.415 . S
C892 C891 1.355 . S
C892 C894 1.419 . S
C893 C888 1.425 . S
C893 C890 1.409 . S
C893 C891 1.415 . S
C894 H884 0.930 . S
C894 C892 1.419 . S
C894 C895 1.362 . S
C895 H885 0.930 . S
C895 C888 1.409 . S
C895 C894 1.362 . S
H896 C902 0.930 . S
H897 C905 0.930 . S
H898 C906 0.930 . S
H899 C907 0.930 . S
H900 C910 0.930 . S
H901 C911 0.930 . S
C902 H896 0.930 . S
C902 C903 1.355 . S
C902 C904 1.415 . S
C903 C902 1.355 . S
C903 C905 1.419 . S
C904 C902 1.415 . S
C904 C909 1.425 . S
C904 C911 1.409 . S
C905 H897 0.930 . S
C905 C903 1.419 . S
C905 C906 1.362 . S
C906 H898 0.930 . S
C906 C905 1.362 . S
C906 C909 1.409 . S
C907 H899 0.930 . S
C907 C908 1.355 . S
C907 C909 1.415 . S
C908 C907 1.355 . S
C908 C910 1.419 . S
C909 C904 1.425 . S
C909 C906 1.409 . S
C909 C907 1.415 . S
C910 H900 0.930 . S
C910 C908 1.419 . S
C910 C911 1.362 . S
C911 H901 0.930 . S
C911 C904 1.409 . S
C911 C910 1.362 . S
H912 C918 0.930 . S
H913 C921 0.930 . S
H914 C922 0.930 . S
H915 C923 0.930 . S
H916 C926 0.930 . S
H917 C927 0.930 . S
C918 H912 0.930 . S
C918 C919 1.355 . S
C918 C920 1.415 . S
C919 C918 1.355 . S
C919 C921 1.419 . S
C920 C918 1.415 . S
C920 C925 1.425 . S
C920 C927 1.409 . S
C921 H913 0.930 . S
C921 C919 1.419 . S
C921 C922 1.362 . S
C922 H914 0.930 . S
C922 C921 1.362 . S
C922 C925 1.409 . S
C923 H915 0.930 . S
C923 C924 1.355 . S
C923 C925 1.415 . S
C924 C923 1.355 . S
C924 C926 1.419 . S
C925 C920 1.425 . S
C925 C922 1.409 . S
C925 C923 1.415 . S
C926 H916 0.930 . S
C926 C924 1.419 . S
C926 C927 1.362 . S
C927 H917 0.930 . S
C927 C920 1.409 . S
C927 C926 1.362 . S
H928 C934 0.930 . S
H929 C937 0.930 . S
H930 C938 0.930 . S
H931 C939 0.930 . S
H932 C942 0.930 . S
H933 C943 0.930 . S
C934 H928 0.930 . S
C934 C935 1.355 . S
C934 C936 1.415 . S
C935 C934 1.355 . S
C935 C937 1.419 . S
C936 C934 1.415 . S
C936 C941 1.425 . S
C936 C943 1.409 . S
C937 H929 0.930 . S
C937 C935 1.419 . S
C937 C938 1.362 . S
C938 H930 0.930 . S
C938 C937 1.362 . S
C938 C941 1.409 . S
C939 H931 0.930 . S
C939 C940 1.355 . S
C939 C941 1.415 . S
C940 C939 1.355 . S
C940 C942 1.419 . S
C941 C936 1.425 . S
C941 C938 1.409 . S
C941 C939 1.415 . S
C942 H932 0.930 . S
C942 C940 1.419 . S
C942 C943 1.362 . S
C943 H933 0.930 . S
C943 C936 1.409 . S
C943 C942 1.362 . S
H944 C950 0.930 . S
H945 C953 0.930 . S
H946 C954 0.930 . S
H947 C955 0.930 . S
H948 C958 0.930 . S
H949 C959 0.930 . S
C950 H944 0.930 . S
C950 C951 1.355 . S
C950 C952 1.415 . S
C951 C950 1.355 . S
C951 C953 1.419 . S
C952 C950 1.415 . S
C952 C957 1.425 . S
C952 C959 1.409 . S
C953 H945 0.930 . S
C953 C951 1.419 . S
C953 C954 1.362 . S
C954 H946 0.930 . S
C954 C953 1.362 . S
C954 C957 1.409 . S
C955 H947 0.930 . S
C955 C956 1.355 . S
C955 C957 1.415 . S
C956 C955 1.355 . S
C956 C958 1.419 . S
C957 C952 1.425 . S
C957 C954 1.409 . S
C957 C955 1.415 . S
C958 H948 0.930 . S
C958 C956 1.419 . S
C958 C959 1.362 . S
C959 H949 0.930 . S
C959 C952 1.409 . S
C959 C958 1.362 . S
H960 C966 0.930 . S
H961 C969 0.930 . S
H962 C970 0.930 . S
H963 C971 0.930 . S
H964 C974 0.930 . S
H965 C975 0.930 . S
C966 H960 0.930 . S
C966 C967 1.355 . S
C966 C968 1.415 . S
C967 C966 1.355 . S
C967 C969 1.419 . S
C968 C966 1.415 . S
C968 C973 1.425 . S
C968 C975 1.409 . S
C969 H961 0.930 . S
C969 C967 1.419 . S
C969 C970 1.362 . S
C970 H962 0.930 . S
C970 C969 1.362 . S
C970 C973 1.409 . S
C971 H963 0.930 . S
C971 C972 1.355 . S
C971 C973 1.415 . S
C972 C971 1.355 . S
C972 C974 1.419 . S
C973 C968 1.425 . S
C973 C970 1.409 . S
C973 C971 1.415 . S
C974 H964 0.930 . S
C974 C972 1.419 . S
C974 C975 1.362 . S
C975 H965 0.930 . S
C975 C968 1.409 . S
C975 C974 1.362 . S
H976 C982 0.930 . S
H977 C985 0.930 . S
H978 C986 0.930 . S
H979 C987 0.930 . S
H980 C990 0.930 . S
H981 C991 0.930 . S
C982 H976 0.930 . S
C982 C983 1.355 . S
C982 C984 1.415 . S
C983 C982 1.355 . S
C983 C985 1.419 . S
C984 C982 1.415 . S
C984 C989 1.425 . S
C984 C991 1.409 . S
C985 H977 0.930 . S
C985 C983 1.419 . S
C985 C986 1.362 . S
C986 H978 0.930 . S
C986 C985 1.362 . S
C986 C989 1.409 . S
C987 H979 0.930 . S
C987 C988 1.355 . S
C987 C989 1.415 . S
C988 C987 1.355 . S
C988 C990 1.419 . S
C989 C984 1.425 . S
C989 C986 1.409 . S
C989 C987 1.415 . S
C990 H980 0.930 . S
C990 C988 1.419 . S
C990 C991 1.362 . S
C991 H981 0.930 . S
C991 C984 1.409 . S
C991 C990 1.362 . S
H992 C998 0.930 . S
H993 C1001 0.930 . S
H994 C1002 0.930 . S
H995 C1003 0.930 . S
H996 C1006 0.930 . S
H997 C1007 0.930 . S
C998 H992 0.930 . S
C998 C999 1.355 . S
C998 C1000 1.415 . S
C999 C998 1.355 . S
C999 C1001 1.419 . S
C1000 C998 1.415 . S
C1000 C1005 1.425 . S
C1000 C1007 1.409 . S
C1001 H993 0.930 . S
C1001 C999 1.419 . S
C1001 C1002 1.362 . S
C1002 H994 0.930 . S
C1002 C1001 1.362 . S
C1002 C1005 1.409 . S
C1003 H995 0.930 . S
C1003 C1004 1.355 . S
C1003 C1005 1.415 . S
C1004 C1003 1.355 . S
C1004 C1006 1.419 . S
C1005 C1000 1.425 . S
C1005 C1002 1.409 . S
C1005 C1003 1.415 . S
C1006 H996 0.930 . S
C1006 C1004 1.419 . S
C1006 C1007 1.362 . S
C1007 H997 0.930 . S
C1007 C1000 1.409 . S
C1007 C1006 1.362 . S
H1008 C1014 0.930 . S
H1009 C1017 0.930 . S
H1010 C1018 0.930 . S
H1011 C1019 0.930 . S
H1012 C1022 0.930 . S
H1013 C1023 0.930 . S
C1014 H1008 0.930 . S
C1014 C1015 1.355 . S
C1014 C1016 1.415 . S
C1015 C1014 1.355 . S
C1015 C1017 1.419 . S
C1016 C1014 1.415 . S
C1016 C1021 1.425 . S
C1016 C1023 1.409 . S
C1017 H1009 0.930 . S
C1017 C1015 1.419 . S
C1017 C1018 1.362 . S
C1018 H1010 0.930 . S
C1018 C1017 1.362 . S
C1018 C1021 1.409 . S
C1019 H1011 0.930 . S
C1019 C1020 1.355 . S
C1019 C1021 1.415 . S
C1020 C1019 1.355 . S
C1020 C1022 1.419 . S
C1021 C1016 1.425 . S
C1021 C1018 1.409 . S
C1021 C1019 1.415 . S
C1022 H1012 0.930 . S
C1022 C1020 1.419 . S
C1022 C1023 1.362 . S
C1023 H1013 0.930 . S
C1023 C1016 1.409 . S
C1023 C1022 1.362 . S
H1024 C1030 0.930 . S
H1025 C1033 0.930 . S
H1026 C1034 0.930 . S
H1027 C1035 0.930 . S
H1028 C1038 0.930 . S
H1029 C1039 0.930 . S
C1030 H1024 0.930 . S
C1030 C1031 1.355 . S
C1030 C1032 1.415 . S
C1031 C1030 1.355 . S
C1031 C1033 1.419 . S
C1032 C1030 1.415 . S
C1032 C1037 1.425 . S
C1032 C1039 1.409 . S
C1033 H1025 0.930 . S
C1033 C1031 1.419 . S
C1033 C1034 1.362 . S
C1034 H1026 0.930 . S
C1034 C1033 1.362 . S
C1034 C1037 1.409 . S
C1035 H1027 0.930 . S
C1035 C1036 1.355 . S
C1035 C1037 1.415 . S
C1036 C1035 1.355 . S
C1036 C1038 1.419 . S
C1037 C1032 1.425 . S
C1037 C1034 1.409 . S
C1037 C1035 1.415 . S
C1038 H1028 0.930 . S
C1038 C1036 1.419 . S
C1038 C1039 1.362 . S
C1039 H1029 0.930 . S
C1039 C1032 1.409 . S
C1039 C1038 1.362 . S
H1040 C1046 0.930 . S
H1041 C1049 0.930 . S
H1042 C1050 0.930 . S
H1043 C1051 0.930 . S
H1044 C1054 0.930 . S
H1045 C1055 0.930 . S
C1046 H1040 0.930 . S
C1046 C1047 1.355 . S
C1046 C1048 1.415 . S
C1047 C1046 1.355 . S
C1047 C1049 1.419 . S
C1048 C1046 1.415 . S
C1048 C1053 1.425 . S
C1048 C1055 1.409 . S
C1049 H1041 0.930 . S
C1049 C1047 1.419 . S
C1049 C1050 1.362 . S
C1050 H1042 0.930 . S
C1050 C1049 1.362 . S
C1050 C1053 1.409 . S
C1051 H1043 0.930 . S
C1051 C1052 1.355 . S
C1051 C1053 1.415 . S
C1052 C1051 1.355 . S
C1052 C1054 1.419 . S
C1053 C1048 1.425 . S
C1053 C1050 1.409 . S
C1053 C1051 1.415 . S
C1054 H1044 0.930 . S
C1054 C1052 1.419 . S
C1054 C1055 1.362 . S
C1055 H1045 0.930 . S
C1055 C1048 1.409 . S
C1055 C1054 1.362 . S
H1056 C1062 0.930 . S
H1057 C1065 0.930 . S
H1058 C1066 0.930 . S
H1059 C1067 0.930 . S
H1060 C1070 0.930 . S
H1061 C1071 0.930 . S
C1062 H1056 0.930 . S
C1062 C1063 1.355 . S
C1062 C1064 1.415 . S
C1063 C1062 1.355 . S
C1063 C1065 1.419 . S
C1064 C1062 1.415 . S
C1064 C1069 1.425 . S
C1064 C1071 1.409 . S
C1065 H1057 0.930 . S
C1065 C1063 1.419 . S
C1065 C1066 1.362 . S
C1066 H1058 0.930 . S
C1066 C1065 1.362 . S
C1066 C1069 1.409 . S
C1067 H1059 0.930 . S
C1067 C1068 1.355 . S
C1067 C1069 1.415 . S
C1068 C1067 1.355 . S
C1068 C1070 1.419 . S
C1069 C1064 1.425 . S
C1069 C1066 1.409 . S
C1069 C1067 1.415 . S
C1070 H1060 0.930 . S
C1070 C1068 1.419 . S
C1070 C1071 1.362 . S
C1071 H1061 0.930 . S
C1071 C1064 1.409 . S
C1071 C1070 1.362 . S
H1072 C1078 0.930 . S
H1073 C1081 0.930 . S
H1074 C1082 0.930 . S
H1075 C1083 0.930 . S
H1076 C1086 0.930 . S
H1077 C1087 0.930 . S
C1078 H1072 0.930 . S
C1078 C1079 1.355 . S
C1078 C1080 1.415 . S
C1079 C1078 1.355 . S
C1079 C1081 1.419 . S
C1080 C1078 1.415 . S
C1080 C1085 1.425 . S
C1080 C1087 1.409 . S
C1081 H1073 0.930 . S
C1081 C1079 1.419 . S
C1081 C1082 1.362 . S
C1082 H1074 0.930 . S
C1082 C1081 1.362 . S
C1082 C1085 1.409 . S
C1083 H1075 0.930 . S
C1083 C1084 1.355 . S
C1083 C1085 1.415 . S
C1084 C1083 1.355 . S
C1084 C1086 1.419 . S
C1085 C1080 1.425 . S
C1085 C1082 1.409 . S
C1085 C1083 1.415 . S
C1086 H1076 0.930 . S
C1086 C1084 1.419 . S
C1086 C1087 1.362 . S
C1087 H1077 0.930 . S
C1087 C1080 1.409 . S
C1087 C1086 1.362 . S
H1088 C1094 0.930 . S
H1089 C1097 0.930 . S
H1090 C1098 0.930 . S
H1091 C1099 0.930 . S
H1092 C1102 0.930 . S
H1093 C1103 0.930 . S
C1094 H1088 0.930 . S
C1094 C1095 1.355 . S
C1094 C1096 1.415 . S
C1095 C1094 1.355 . S
C1095 C1097 1.419 . S
C1096 C1094 1.415 . S
C1096 C1101 1.425 . S
C1096 C1103 1.409 . S
C1097 H1089 0.930 . S
C1097 C1095 1.419 . S
C1097 C1098 1.362 . S
C1098 H1090 0.930 . S
C1098 C1097 1.362 . S
C1098 C1101 1.409 . S
C1099 H1091 0.930 . S
C1099 C1100 1.355 . S
C1099 C1101 1.415 . S
C1100 C1099 1.355 . S
C1100 C1102 1.419 . S
C1101 C1096 1.425 . S
C1101 C1098 1.409 . S
C1101 C1099 1.415 . S
C1102 H1092 0.930 . S
C1102 C1100 1.419 . S
C1102 C1103 1.362 . S
C1103 H1093 0.930 . S
C1103 C1096 1.409 . S
C1103 C1102 1.362 . S
H1104 C1110 0.930 . S
H1105 C1113 0.930 . S
H1106 C1114 0.930 . S
H1107 C1115 0.930 . S
H1108 C1118 0.930 . S
H1109 C1119 0.930 . S
C1110 H1104 0.930 . S
C1110 C1111 1.355 . S
C1110 C1112 1.415 . S
C1111 C1110 1.355 . S
C1111 C1113 1.419 . S
C1112 C1110 1.415 . S
C1112 C1117 1.425 . S
C1112 C1119 1.409 . S
C1113 H1105 0.930 . S
C1113 C1111 1.419 . S
C1113 C1114 1.362 . S
C1114 H1106 0.930 . S
C1114 C1113 1.362 . S
C1114 C1117 1.409 . S
C1115 H1107 0.930 . S
C1115 C1116 1.355 . S
C1115 C1117 1.415 . S
C1116 C1115 1.355 . S
C1116 C1118 1.419 . S
C1117 C1112 1.425 . S
C1117 C1114 1.409 . S
C1117 C1115 1.415 . S
C1118 H1108 0.930 . S
C1118 C1116 1.419 . S
C1118 C1119 1.362 . S
C1119 H1109 0.930 . S
C1119 C1112 1.409 . S
C1119 C1118 1.362 . S
C620 C518 1.493 . S
C615 C35 1.276 . S
C636 C532 1.515 . S
C631 C115 1.388 . S
C652 C547 1.527 . S
C647 C177 1.364 . S
C663 C221 1.289 . S
C668 C505 1.508 . S
C679 C283 1.383 . S
C684 C504 1.509 . S
C695 C363 1.279 . S
C700 C519 1.486 . S
C716 C533 1.520 . S
C711 C407 1.407 . S
C732 C546 1.525 . S
C727 C469 1.352 . S
C743 C159 1.378 . S
C748 C574 1.507 . S
C764 C588 1.541 . S
C759 C239 1.394 . S
C775 C53 1.295 . S
C780 C603 1.478 . S
C796 C560 1.474 . S
C791 C97 1.262 . S
C807 C425 1.315 . S
C812 C561 1.519 . S
C823 C487 1.394 . S
C828 C575 1.484 . S
C844 C589 1.479 . S
C839 C301 1.337 . S
C855 C345 1.397 . S
C860 C602 1.537 . S
C876 C527 1.873 . S
C871 C29 1.870 . S
C892 C545 1.865 . S
C887 C109 1.861 . S
C903 C171 1.807 . S
C908 C503 1.840 . S
C919 C215 1.895 . S
C924 C513 1.892 . S
C935 C277 1.864 . S
C940 C541 1.870 . S
C956 C499 1.907 . S
C951 C357 1.867 . S
C972 C517 1.840 . S
C967 C401 1.868 . S
C988 C531 1.877 . S
C983 C463 1.893 . S
C1004 C583 1.877 . S
C999 C153 1.882 . S
C1020 C601 1.870 . S
C1015 C233 1.855 . S
C1031 C47 1.857 . S
C1036 C555 1.896 . S
C1052 C569 1.894 . S
C1047 C91 1.890 . S
C1068 C597 1.907 . S
C1063 C419 1.848 . S
C1079 C481 1.870 . S
C1084 C559 1.893 . S
C1100 C573 1.839 . S
C1095 C295 1.816 . S
C1116 C587 1.878 . S
C1111 C339 1.892 . S
