# Generated by pormake.
# Topology anh, (6,3)-cn, num edge types: 1
# Building blocks:
#     Node 0, Type 0, BuildingBlock: BETFAJ_clean_sbu_0, # of connection points: 6
#     Node 1, Type 0, BuildingBlock: BETFAJ_clean_sbu_0, # of connection points: 6
#     Node 2, Type 0, BuildingBlock: BETFAJ_clean_sbu_0, # of connection points: 6
#     Node 3, Type 1, BuildingBlock: VETTIZ_charged_linker_0, # of connection points: 3
#     Node 4, Type 1, BuildingBlock: VETTIZ_charged_linker_0, # of connection points: 3
#     Node 5, Type 1, BuildingBlock: VETTIZ_charged_linker_0, # of connection points: 3
#     Node 6, Type 1, BuildingBlock: VETTIZ_charged_linker_0, # of connection points: 3
#     Node 7, Type 1, BuildingBlock: VETTIZ_charged_linker_0, # of connection points: 3
#     Node 8, Type 1, BuildingBlock: VETTIZ_charged_linker_0, # of connection points: 3
#     Edge 9, Type (0, 1), BuildingBlock: CIFDUS_clean_linker_0, # of connection points: 2
#     Edge 10, Type (0, 1), BuildingBlock: CIFDUS_clean_linker_0, # of connection points: 2
#     Edge 11, Type (0, 1), BuildingBlock: CIFDUS_clean_linker_0, # of connection points: 2
#     Edge 12, Type (0, 1), BuildingBlock: CIFDUS_clean_linker_0, # of connection points: 2
#     Edge 13, Type (0, 1), BuildingBlock: CIFDUS_clean_linker_0, # of connection points: 2
#     Edge 14, Type (0, 1), BuildingBlock: CIFDUS_clean_linker_0, # of connection points: 2
#     Edge 15, Type (0, 1), BuildingBlock: CIFDUS_clean_linker_0, # of connection points: 2
#     Edge 16, Type (0, 1), BuildingBlock: CIFDUS_clean_linker_0, # of connection points: 2
#     Edge 17, Type (0, 1), BuildingBlock: CIFDUS_clean_linker_0, # of connection points: 2
#     Edge 18, Type (0, 1), BuildingBlock: CIFDUS_clean_linker_0, # of connection points: 2
#     Edge 19, Type (0, 1), BuildingBlock: CIFDUS_clean_linker_0, # of connection points: 2
#     Edge 20, Type (0, 1), BuildingBlock: CIFDUS_clean_linker_0, # of connection points: 2
#     Edge 21, Type (0, 1), BuildingBlock: CIFDUS_clean_linker_0, # of connection points: 2
#     Edge 22, Type (0, 1), BuildingBlock: CIFDUS_clean_linker_0, # of connection points: 2
#     Edge 23, Type (0, 1), BuildingBlock: CIFDUS_clean_linker_0, # of connection points: 2
#     Edge 24, Type (0, 1), BuildingBlock: CIFDUS_clean_linker_0, # of connection points: 2
#     Edge 25, Type (0, 1), BuildingBlock: CIFDUS_clean_linker_0, # of connection points: 2
#     Edge 26, Type (0, 1), BuildingBlock: CIFDUS_clean_linker_0, # of connection points: 2
# Relax obj value: 0.198
# Max RMSD: 0.217
# Mean RMSD: 0.162
data_MOF--net-anh--node1-BETFAJ_clean_sbu_0--node2-VETTIZ_charged_linker_0--edge1-CIFDUS_clean_linker_0
_symmetry_space_group_name_H-M    P1
_symmetry_Int_Tables_number       1
_symmetry_cell_setting            triclinic
loop_
_symmetry_equiv_pos_as_xyz
'x, y, z'
_cell_length_a     33.244406
_cell_length_b     39.555845
_cell_length_c     60.308556
_cell_angle_alpha  91.848093
_cell_angle_beta   89.727325
_cell_angle_gamma 129.54812
loop_
_atom_site_label
_atom_site_type_symbol
_atom_site_fract_x
_atom_site_fract_y
_atom_site_fract_z
_atom_type_partial_charge
Sm0 Sm 0.1288 0.51255 0.14196 0.0
Sm1 Sm 1.04212 0.52205 0.15247 0.0
C2 C 0.21005 0.52066 0.12888 0.0
C3 C 0.25934 0.54081 0.14079 0.0
C4 C 0.30418 0.556 0.12913 0.0
C5 C 0.34981 0.57186 0.1407 0.0
C6 C 0.35088 0.57234 0.16405 0.0
C7 C 0.30667 0.55929 0.17567 0.0
C8 C 0.26135 0.54404 0.1641 0.0
C9 C 0.1083 0.51385 0.18595 0.0
C10 C 0.16239 0.61305 0.14688 0.0
C11 C 0.96774 0.51229 0.17485 0.0
C12 C 0.91118 0.47508 0.17362 0.0
C13 C 0.89245 0.43156 0.17422 0.0
C14 C 0.84092 0.39638 0.168 0.0
C15 C 0.80739 0.40422 0.16138 0.0
C16 C 0.82471 0.4472 0.16238 0.0
C17 C 0.87634 0.48246 0.16847 0.0
C18 C 1.0443 0.50762 0.10731 0.0
C19 C 1.00764 0.42317 0.14337 0.0
O20 O 0.20221 0.54764 0.12305 0.0
O21 O 0.1689 0.48487 0.13738 0.0
O22 O 0.11032 0.53666 0.17127 0.0
O23 O 0.12168 0.49155 0.17797 0.0
O24 O 0.17533 0.58832 0.14119 0.0
O25 O 0.11435 0.5957 0.15293 0.0
O26 O 0.99675 0.50378 0.18313 0.0
O27 O 0.98753 0.53605 0.15711 0.0
O28 O 1.07128 0.50991 0.12258 0.0
O29 O 1.01288 0.51333 0.1158 0.0
O30 O 0.99781 0.44734 0.15345 0.0
O31 O 1.05348 0.44112 0.13433 0.0
H32 H 0.30338 0.55417 0.11116 0.0
H33 H 0.3832 0.5811 0.13136 0.0
H34 H 0.30657 0.55925 0.19363 0.0
H35 H 0.22725 0.53319 0.17339 0.0
H36 H 0.9182 0.42465 0.17825 0.0
H37 H 0.82812 0.36343 0.16724 0.0
H38 H 0.79916 0.45369 0.1571 0.0
H39 H 0.88984 0.51558 0.16782 0.0
Sm40 Sm 0.63976 0.03879 0.4726 0.0
Sm41 Sm 0.56949 0.05939 0.46681 0.0
C42 C 0.68661 1.00702 0.4842 0.0
C43 C 0.67477 0.96458 0.48624 0.0
C44 C 0.62318 0.92506 0.48558 0.0
C45 C 0.61284 0.88516 0.48828 0.0
C46 C 0.65398 0.88417 0.49163 0.0
C47 C 0.70562 0.92392 0.49185 0.0
C48 C 0.71584 0.9637 0.48918 0.0
C49 C 0.63122 0.05466 0.42954 0.0
C50 C 0.51281 0.95766 0.46354 0.0
C51 C 0.52431 0.09381 0.45792 0.0
C52 C 0.5372 0.13609 0.46409 0.0
C53 C 0.58707 0.17104 0.47249 0.0
C54 C 0.59944 0.21086 0.47907 0.0
C55 C 0.56156 0.21631 0.47812 0.0
C56 C 0.51137 0.18105 0.46963 0.0
C57 C 0.49942 0.14135 0.46259 0.0
C58 C 0.57931 0.04442 0.5098 0.0
C59 C 0.6975 0.14134 0.47265 0.0
O60 O 0.66441 0.01606 0.49834 0.0
O61 O 0.68703 0.01854 0.4641 0.0
O62 O 0.59352 0.03121 0.44241 0.0
O63 O 0.67515 0.0702 0.43903 0.0
O64 O 0.55585 0.96986 0.47362 0.0
O65 O 0.51135 0.98741 0.45542 0.0
O66 O 0.5566 0.09553 0.44453 0.0
O67 O 0.51061 0.06775 0.47426 0.0
O68 O 0.61667 0.06791 0.49681 0.0
O69 O 0.53512 0.02804 0.50036 0.0
O70 O 0.65182 0.12736 0.46499 0.0
O71 O 0.70291 0.11322 0.47978 0.0
H72 H 0.59096 0.9251 0.48319 0.0
H73 H 0.57268 0.85513 0.48782 0.0
H74 H 0.73817 0.92448 0.49473 0.0
H75 H 0.7559 0.99393 0.48974 0.0
H76 H 0.61636 0.16735 0.4743 0.0
H77 H 0.63877 0.23725 0.48505 0.0
H78 H 0.48085 0.18358 0.46896 0.0
H79 H 0.46043 0.11452 0.45638 0.0
Sm80 Sm 0.61236 0.56985 0.83161 0.0
Sm81 Sm 0.53896 0.47401 0.83699 0.0
C82 C 0.66416 0.65086 0.81807 0.0
C83 C 0.66004 0.68534 0.81514 0.0
C84 C 0.61224 0.67533 0.81 0.0
C85 C 0.61069 0.70889 0.8051 0.0
C86 C 0.65693 0.75286 0.80522 0.0
C87 C 0.70421 0.76268 0.81139 0.0
C88 C 0.7057 0.72924 0.81627 0.0
C89 C 0.59999 0.54579 0.87479 0.0
C90 C 0.48337 0.51968 0.83848 0.0
C91 C 0.4919 0.39187 0.84698 0.0
C92 C 0.49907 0.36046 0.83899 0.0
C93 C 0.48703 0.327 0.85251 0.0
C94 C 0.49389 0.2972 0.84474 0.0
C95 C 0.51249 0.3003 0.82327 0.0
C96 C 0.52532 0.33438 0.80998 0.0
C97 C 0.51899 0.3643 0.81781 0.0
C98 C 0.55268 0.49792 0.79375 0.0
C99 C 0.66867 0.52467 0.83423 0.0
O100 O 0.6355 0.6159 0.80485 0.0
O101 O 0.66731 0.64211 0.83839 0.0
O102 O 0.56364 0.52889 0.8606 0.0
O103 O 0.64464 0.5781 0.86683 0.0
O104 O 0.52914 0.55438 0.83063 0.0
O105 O 0.47983 0.48606 0.84509 0.0
O106 O 0.53043 0.4256 0.85892 0.0
O107 O 0.47334 0.4027 0.83233 0.0
O108 O 0.58876 0.51455 0.80807 0.0
O109 O 0.50773 0.46676 0.80179 0.0
O110 O 0.62081 0.48991 0.83992 0.0
O111 O 0.67591 0.56015 0.82792 0.0
H112 H 0.57647 0.64158 0.80914 0.0
H113 H 0.57373 0.70025 0.8003 0.0
H114 H 0.74034 0.79625 0.81198 0.0
H115 H 0.74288 0.7376 0.82034 0.0
H116 H 0.47209 0.3238 0.86899 0.0
H117 H 0.48363 0.27121 0.85531 0.0
H118 H 0.54053 0.33802 0.79352 0.0
H119 H 0.52946 0.39038 0.80724 0.0
C120 C 0.71333 0.13862 0.15749 0.0
C121 C 0.75789 0.17705 0.16844 0.0
C122 C 0.76402 0.17662 0.19146 0.0
C123 C 0.68125 0.10276 0.19284 0.0
C124 C 0.67582 0.10138 0.17004 0.0
C125 C 0.62714 0.05624 0.16177 0.0
H126 H 0.3973 0.85663 0.19117 0.0
C127 C 0.63425 0.06133 0.20159 0.0
C128 C 0.60154 0.03334 0.18354 0.0
H129 H 0.45879 0.88996 0.12515 0.0
H130 H 0.53349 0.96364 0.13895 0.0
H131 H 0.50281 0.89417 0.21429 0.0
H132 H 0.42238 0.94476 0.20502 0.0
H133 H 0.45653 0.96913 0.23035 0.0
H134 H 0.40734 0.91009 0.22749 0.0
H135 H 0.44295 0.87363 0.2275 0.0
H136 H 0.50517 0.9178 0.23989 0.0
C137 C 0.64501 0.034 0.14852 0.0
C138 C 0.59232 0.06109 0.14796 0.0
C139 C 0.61313 0.04499 0.2855 0.0
C140 C 0.5702 0.01421 0.29878 0.0
C141 C 0.52171 0.98125 0.28805 0.0
C142 C 0.51682 0.97708 0.26492 0.0
C143 C 0.56048 1.00659 0.252 0.0
C144 C 0.60699 0.04096 0.26226 0.0
C145 C 0.64714 0.07209 0.24566 0.0
C146 C 0.6176 0.04916 0.22378 0.0
C147 C 0.56753 1.01026 0.22773 0.0
C148 C 0.69464 0.07365 0.2482 0.0
C149 C 0.65996 0.11711 0.24955 0.0
C150 C 0.42628 0.87975 0.17948 0.0
C151 C 0.42148 0.86723 0.15703 0.0
C152 C 0.46134 0.89849 0.14262 0.0
C153 C 0.50489 0.94113 0.15066 0.0
C154 C 0.50958 0.95244 0.17348 0.0
C155 C 0.47021 0.92145 0.18729 0.0
C156 C 0.4815 0.93651 0.21115 0.0
C157 C 0.53493 0.98111 0.20982 0.0
C158 C 0.55166 0.99158 0.18772 0.0
C159 C 0.48299 0.90395 0.22407 0.0
C160 C 0.43979 0.94012 0.21909 0.0
H161 H 0.73317 0.14256 0.22115 0.0
H162 H 0.70803 0.13771 0.13973 0.0
H163 H 0.58436 0.08071 0.15753 0.0
H164 H 0.55427 0.02899 0.14354 0.0
H165 H 0.61168 0.07797 0.13235 0.0
H166 H 0.67742 0.03854 0.15747 0.0
H167 H 0.65923 0.04841 0.13196 0.0
H168 H 0.61383 0.99828 0.14625 0.0
H169 H 0.65097 0.07131 0.29283 0.0
H170 H 0.48701 0.9583 0.29746 0.0
H171 H 0.47912 0.95055 0.25803 0.0
H172 H 0.68152 0.04021 0.2506 0.0
H173 H 0.7194 0.09471 0.26281 0.0
H174 H 0.71909 0.08545 0.23333 0.0
H175 H 0.62852 0.1139 0.25862 0.0
H176 H 0.66308 0.13229 0.23384 0.0
H177 H 0.69664 0.14043 0.25945 0.0
H178 H 0.79767 0.20546 0.20024 0.0
C179 C 0.72615 0.14008 0.20364 0.0
C180 C 0.59489 0.64412 0.53162 0.0
C181 C 0.5937 0.67443 0.54384 0.0
C182 C 0.59599 0.67534 0.56719 0.0
C183 C 0.60093 0.61689 0.56594 0.0
C184 C 0.59804 0.6154 0.54303 0.0
C185 C 0.598 0.57995 0.53294 0.0
H186 H 0.59586 0.4098 0.54955 0.0
C187 C 0.60477 0.58356 0.5728 0.0
C188 C 0.60296 0.56155 0.55358 0.0
H189 H 0.58726 0.45484 0.48668 0.0
H190 H 0.59558 0.51377 0.50583 0.0
H191 H 0.68989 0.50247 0.56819 0.0
H192 H 0.52482 0.42387 0.57769 0.0
H193 H 0.55688 0.44445 0.60381 0.0
H194 H 0.56365 0.40995 0.58716 0.0
H195 H 0.65715 0.46098 0.58844 0.0
H196 H 0.6834 0.51664 0.59506 0.0
C197 C 0.64614 0.60168 0.51804 0.0
C198 C 0.54514 0.54584 0.52055 0.0
C199 C 0.61791 0.56564 0.65488 0.0
C200 C 0.62443 0.53902 0.66632 0.0
C201 C 0.63011 0.51129 0.65424 0.0
C202 C 0.62746 0.50893 0.631 0.0
C203 C 0.61946 0.53485 0.61973 0.0
C204 C 0.61624 0.56345 0.63165 0.0
C205 C 0.61071 0.59018 0.61684 0.0
C206 C 0.61 0.57221 0.59407 0.0
C207 C 0.61417 0.53933 0.59591 0.0
C208 C 0.65949 0.63913 0.62063 0.0
C209 C 0.55803 0.57961 0.62188 0.0
C210 C 0.59649 0.43253 0.53971 0.0
C211 C 0.59066 0.42718 0.51646 0.0
C212 C 0.59074 0.45748 0.5046 0.0
C213 C 0.5958 0.49185 0.51575 0.0
C214 C 0.60092 0.49617 0.53904 0.0
C215 C 0.60202 0.46709 0.55051 0.0
C216 C 0.60948 0.47709 0.57507 0.0
C217 C 0.61072 0.51603 0.57663 0.0
C218 C 0.60544 0.52713 0.55553 0.0
C219 C 0.66245 0.4897 0.58224 0.0
C220 C 0.56149 0.43682 0.58671 0.0
H221 H 0.60159 0.64959 0.59603 0.0
H222 H 0.59283 0.64252 0.51365 0.0
H223 H 0.51274 0.5404 0.53001 0.0
H224 H 0.53445 0.51317 0.51863 0.0
H225 H 0.54533 0.5572 0.50392 0.0
H226 H 0.68078 0.63292 0.52598 0.0
H227 H 0.63897 0.60938 0.5017 0.0
H228 H 0.65778 0.58127 0.51529 0.0
H229 H 0.61401 0.58757 0.66386 0.0
H230 H 0.63498 0.49044 0.66284 0.0
H231 H 0.63086 0.48647 0.62273 0.0
H232 H 0.69452 0.64265 0.62497 0.0
H233 H 0.65359 0.65481 0.63441 0.0
H234 H 0.67057 0.65838 0.6056 0.0
H235 H 0.52764 0.54444 0.62573 0.0
H236 H 0.54169 0.58447 0.60762 0.0
H237 H 0.56191 0.59956 0.6364 0.0
H238 H 0.59581 0.69873 0.57695 0.0
C239 C 0.59972 0.64693 0.57826 0.0
C240 C 0.20694 0.53374 0.83988 0.0
C241 C 0.23936 0.52753 0.85218 0.0
C242 C 0.22817 0.51913 0.87481 0.0
C243 C 0.15641 0.52159 0.87301 0.0
C244 C 0.16488 0.53008 0.85071 0.0
C245 C 0.12377 0.53396 0.84179 0.0
H246 H 0.90505 0.51923 0.87361 0.0
C247 C 0.11183 0.51955 0.88048 0.0
C248 C 0.09057 0.52637 0.86239 0.0
H249 H 0.96417 0.54921 0.80736 0.0
H250 H 1.03314 0.54504 0.81862 0.0
H251 H 0.91013 0.44658 0.88178 0.0
H252 H 1.012 0.58518 0.89504 0.0
H253 H 1.02158 0.5655 0.91821 0.0
H254 H 0.9573 0.54756 0.91205 0.0
H255 H 0.89997 0.47151 0.90398 0.0
H256 H 0.93692 0.45306 0.908 0.0
C257 C 0.08939 0.49846 0.82354 0.0
C258 C 0.15187 0.57999 0.83305 0.0
C259 C 1.06621 0.4925 0.96278 0.0
C260 C 1.02807 0.48909 0.97548 0.0
C261 C 0.99442 0.49384 0.96481 0.0
C262 C 0.99752 0.50069 0.94214 0.0
C263 C 1.03534 0.50376 0.92953 0.0
C264 C 1.06902 0.4999 0.93989 0.0
C265 C 0.10696 0.50465 0.9238 0.0
C266 C 0.09059 0.51225 0.90207 0.0
C267 C 1.0485 0.5114 0.90564 0.0
C268 C 0.0972 0.46061 0.92288 0.0
C269 C 0.16266 0.54554 0.93169 0.0
C270 C 0.93138 0.52408 0.86098 0.0
C271 C 0.92652 0.53342 0.8394 0.0
C272 C 0.96518 0.54142 0.82428 0.0
C273 C 1.00536 0.53897 0.83074 0.0
C274 C 1.00868 0.52922 0.85279 0.0
C275 C 0.9714 0.52267 0.8671 0.0
C276 C 0.97932 0.51575 0.8901 0.0
C277 C 1.02573 0.51718 0.88794 0.0
C278 C 1.0453 0.52503 0.86605 0.0
C279 C 0.92912 0.46961 0.89653 0.0
C280 C 0.99287 0.55513 0.90476 0.0
H281 H 0.18398 0.50986 0.90223 0.0
H282 H 0.21359 0.54054 0.82242 0.0
H283 H 0.17714 0.60543 0.84632 0.0
H284 H 0.12333 0.58389 0.82745 0.0
H285 H 0.17677 0.58591 0.81883 0.0
H286 H 1.06972 0.46532 0.82998 0.0
H287 H 0.11332 0.50304 0.80919 0.0
H288 H 1.05889 0.4998 0.81761 0.0
H289 H 0.09289 0.48911 0.97035 0.0
H290 H 0.9657 0.49284 0.97406 0.0
H291 H 0.96988 0.5033 0.93552 0.0
H292 H 1.05599 0.43243 0.92663 0.0
H293 H 0.12242 0.46106 0.93511 0.0
H294 H 0.10298 0.45211 0.90617 0.0
H295 H 0.16215 0.57062 0.94025 0.0
H296 H 0.18967 0.56307 0.91784 0.0
H297 H 0.17975 0.53661 0.94353 0.0
H298 H 0.25145 0.51536 0.88522 0.0
C299 C 0.18819 0.51622 0.88496 0.0
C300 C 1.00583 0.42014 0.46352 0.0
C301 C 0.96421 0.37877 0.45361 0.0
C302 C 0.96075 0.37344 0.43039 0.0
C303 C 1.03685 0.44945 0.4268 0.0
C304 C 1.04191 0.45535 0.44964 0.0
C305 C 0.0886 0.5025 0.45635 0.0
H306 H 0.28698 0.70964 0.4203 0.0
C307 C 0.07791 0.49159 0.41672 0.0
C308 C 0.10894 0.52354 0.43376 0.0
H309 H 0.25668 0.67139 0.48847 0.0
H310 H 0.18304 0.59613 0.47638 0.0
H311 H 0.27361 0.6284 0.40175 0.0
H312 H 0.17011 0.65831 0.40531 0.0
H313 H 0.1574 0.63129 0.37945 0.0
H314 H 0.22161 0.68261 0.38566 0.0
H315 H 0.27913 0.66662 0.38397 0.0
H316 H 0.23826 0.60888 0.37656 0.0
C317 C 0.12848 0.50205 0.46897 0.0
C318 C 1.06932 0.523 0.47015 0.0
C319 C 0.08286 0.49586 0.33271 0.0
C320 C 0.11484 0.52958 0.3179 0.0
C321 C 0.15331 0.57279 0.32638 0.0
C322 C 0.1608 0.58199 0.34933 0.0
C323 C 0.12934 0.54764 0.364 0.0
C324 C 0.09068 0.50565 0.35554 0.0
C325 C 1.06016 0.47342 0.37341 0.0
C326 C 0.08779 0.50274 0.39411 0.0
C327 C 0.12824 0.54596 0.38852 0.0
C328 C 1.06718 0.43823 0.37097 0.0
C329 C 1.00289 0.4554 0.37132 0.0
C330 C 0.26434 0.68541 0.43279 0.0
C331 C 0.27741 0.69688 0.45537 0.0
C332 C 0.2475 0.66357 0.4709 0.0
C333 C 0.20472 0.61995 0.46387 0.0
C334 C 0.19204 0.60938 0.44105 0.0
C335 C 0.22234 0.64226 0.42609 0.0
C336 C 0.20559 0.6264 0.4025 0.0
C337 C 0.1601 0.57848 0.40542 0.0
C338 C 0.1513 0.56787 0.42802 0.0
C339 C 0.25135 0.63304 0.39037 0.0
C340 C 0.18804 0.65095 0.3925 0.0
H341 H 0.99078 0.40132 0.39954 0.0
H342 H 1.00944 0.42504 0.48139 0.0
H343 H 1.03567 0.51709 0.46158 0.0
H344 H 0.09957 0.55886 0.47257 0.0
H345 H 1.05641 0.50837 0.48672 0.0
H346 H 0.13452 0.48069 0.45992 0.0
H347 H 0.11449 0.48919 0.48581 0.0
H348 H 0.16719 0.53483 0.4706 0.0
H349 H 1.05244 0.46243 0.32665 0.0
H350 H 0.1786 0.59928 0.31525 0.0
H351 H 0.1913 0.61543 0.35473 0.0
H352 H 0.10651 0.45269 0.36466 0.0
H353 H 1.03786 0.41117 0.35914 0.0
H354 H 1.06515 0.42429 0.38694 0.0
H355 H 1.00074 0.47953 0.36376 0.0
H356 H 0.98421 0.44926 0.38758 0.0
H357 H 0.97872 0.42483 0.36074 0.0
H358 H 0.92954 0.34198 0.42245 0.0
C359 C 0.99652 0.40819 0.41705 0.0
C360 C 0.60296 0.94289 0.7754 0.0
C361 C 0.61078 0.91595 0.76392 0.0
C362 C 0.61632 0.91862 0.74072 0.0
C363 C 0.60911 0.97572 0.74082 0.0
C364 C 0.60262 0.97273 0.76353 0.0
C365 C 0.5967 1.00513 0.77295 0.0
H366 H 0.59301 0.17192 0.75512 0.0
C367 C 0.60931 1.01105 0.73351 0.0
C368 C 0.60245 0.0288 0.75224 0.0
H369 H 0.56512 0.10743 0.81666 0.0
H370 H 0.58023 0.06104 0.79854 0.0
H371 H 0.68813 0.17844 0.73989 0.0
H372 H 0.5238 0.08244 0.72457 0.0
H373 H 0.55778 0.09507 0.69968 0.0
H374 H 0.56404 0.1377 0.71535 0.0
H375 H 0.65676 0.18817 0.72007 0.0
H376 H 0.68272 0.16106 0.71212 0.0
C377 C 0.64164 0.03618 0.79 0.0
C378 C 0.54148 0.97899 0.78271 0.0
C379 C 0.62881 0.04452 0.65166 0.0
C380 C 0.63412 0.07728 0.64001 0.0
C381 C 0.63627 0.10969 0.65183 0.0
C382 C 0.63138 0.10862 0.67495 0.0
C383 C 0.62463 0.07493 0.68639 0.0
C384 C 0.62482 0.04432 0.6748 0.0
C385 C 0.62084 0.01278 0.68985 0.0
C386 C 0.61608 0.02842 0.7123 0.0
C387 C 0.61755 0.06437 0.71012 0.0
C388 C 0.67201 0.01929 0.68816 0.0
C389 C 0.57063 0.96588 0.68328 0.0
C390 C 0.58957 0.14755 0.76472 0.0
C391 C 0.57734 0.14323 0.78735 0.0
C392 C 0.57475 0.11174 0.79925 0.0
C393 C 0.58312 0.08455 0.78865 0.0
C394 C 0.5941 0.08872 0.76588 0.0
C395 C 0.59727 0.11997 0.75437 0.0
C396 C 0.60803 0.11938 0.7302 0.0
C397 C 0.6102 0.08223 0.72896 0.0
C398 C 0.60232 0.06443 0.74991 0.0
C399 C 0.66144 0.16406 0.7251 0.0
C400 C 0.56135 0.10835 0.71656 0.0
H401 H 0.62009 0.94857 0.71154 0.0
H402 H 0.59863 0.94159 0.79324 0.0
H403 H 0.51256 0.94832 0.77263 0.0
H404 H 0.52642 0.99707 0.78255 0.0
H405 H 0.54083 0.96954 0.79994 0.0
H406 H 0.67902 0.04576 0.78368 0.0
H407 H 0.63378 0.01994 0.80598 0.0
H408 H 0.6489 0.06728 0.79324 0.0
H409 H 0.62792 0.01967 0.64293 0.0
H410 H 0.64033 0.13517 0.64307 0.0
H411 H 0.63245 0.13377 0.68299 0.0
H412 H 0.70513 0.05271 0.68271 0.0
H413 H 0.66757 0.99533 0.67603 0.0
H414 H 0.68531 0.01681 0.70435 0.0
H415 H 0.5379 0.96594 0.67963 0.0
H416 H 0.55661 0.94247 0.69663 0.0
H417 H 0.57667 0.95285 0.66818 0.0
H418 H 0.62137 0.89766 0.73145 0.0
C419 C 0.61548 0.9482 0.72915 0.0
C420 C 0.54769 0.3486 0.12924 0.0
C421 C 0.55118 0.32091 0.11573 0.0
C422 C 0.54347 0.31946 0.09259 0.0
C423 C 0.54458 0.38124 0.09669 0.0
C424 C 0.54555 0.37891 0.11946 0.0
C425 C 0.5525 0.41612 0.1316 0.0
H426 H 0.58293 0.60082 0.12744 0.0
C427 C 0.55379 0.42211 0.09193 0.0
C428 C 0.55851 0.44257 0.1124 0.0
H429 H 0.56197 0.53016 0.18562 0.0
H430 H 0.56498 0.48056 0.16285 0.0
H431 H 0.67015 0.59908 0.10557 0.0
H432 H 0.5048 0.52194 0.09701 0.0
H433 H 0.53081 0.53077 0.07034 0.0
H434 H 0.55177 0.57712 0.08802 0.0
H435 H 0.64281 0.61539 0.08768 0.0
H436 H 0.65756 0.58088 0.07764 0.0
C437 C 0.60289 0.44184 0.14631 0.0
C438 C 0.50201 0.39662 0.14454 0.0
C439 C 0.58192 0.47368 0.01271 0.0
C440 C 0.59755 0.51304 0.00418 0.0
C441 C 0.6043 0.54502 0.0186 0.0
C442 C 0.59615 0.53829 0.04131 0.0
C443 C 0.58165 0.49933 0.04978 0.0
C444 C 0.57473 0.46773 0.03563 0.0
C445 C 0.56229 0.42966 0.04804 0.0
C446 C 0.56234 0.44359 0.07186 0.0
C447 C 0.5737 0.4844 0.07263 0.0
C448 C 0.6068 0.42765 0.04403 0.0
C449 C 0.50764 0.38766 0.04031 0.0
C450 C 0.581 0.57586 0.1356 0.0
C451 C 0.57133 0.56922 0.15845 0.0
C452 C 0.56839 0.53562 0.16802 0.0
C453 C 0.56962 0.50655 0.15471 0.0
C454 C 0.57437 0.51137 0.13161 0.0
C455 C 0.58192 0.54658 0.12258 0.0
C456 C 0.58584 0.54656 0.09776 0.0
C457 C 0.57693 0.50432 0.09325 0.0
C458 C 0.57002 0.48378 0.11305 0.0
C459 C 0.6417 0.5876 0.09168 0.0
C460 C 0.54134 0.54427 0.08758 0.0
H461 H 0.5374 0.3486 0.06523 0.0
H462 H 0.55352 0.35106 0.14704 0.0
H463 H 0.46694 0.36927 0.13472 0.0
H464 H 0.49565 0.42048 0.14792 0.0
H465 H 0.50216 0.38333 0.16046 0.0
H466 H 0.6328 0.44121 0.13848 0.0
H467 H 0.5947 0.42747 0.16289 0.0
H468 H 0.62234 0.47707 0.14855 0.0
H469 H 0.577 0.44884 0.00189 0.0
H470 H 0.61587 0.57533 0.01221 0.0
H471 H 0.60181 0.56388 0.05137 0.0
H472 H 0.64525 0.46125 0.04373 0.0
H473 H 0.60109 0.41064 0.02789 0.0
H474 H 0.61097 0.41149 0.05729 0.0
H475 H 0.48062 0.39482 0.0378 0.0
H476 H 0.48878 0.3619 0.05268 0.0
H477 H 0.50969 0.37409 0.02433 0.0
H478 H 0.54455 0.29766 0.08177 0.0
C479 C 0.5401 0.34949 0.08299 0.0
H480 H 0.45492 0.63993 0.16076 0.0
H481 H 0.34345 0.5175 0.19274 0.0
H482 H 0.41126 0.5125 0.20058 0.0
H483 H 0.49271 0.53139 0.18798 0.0
H484 H 0.60506 0.65321 0.15548 0.0
H485 H 0.54691 0.67072 0.15886 0.0
C486 C 0.44617 0.61313 0.1702 0.0
C487 C 0.39429 0.57853 0.17561 0.0
C488 C 0.48513 0.60989 0.17415 0.0
C489 C 0.38316 0.54432 0.18822 0.0
C490 C 0.42185 0.54124 0.19254 0.0
C491 C 0.50602 0.56287 0.18261 0.0
C492 C 0.55185 0.58972 0.17029 0.0
C493 C 0.47187 0.57215 0.18409 0.0
C494 C 0.56869 0.63089 0.16406 0.0
C495 C 0.53534 0.64086 0.16589 0.0
H496 H 0.80049 0.18634 0.48599 0.0
H497 H 0.69742 0.20518 0.45733 0.0
H498 H 0.76979 0.28228 0.45342 0.0
H499 H 0.86353 0.34299 0.45369 0.0
H500 H 0.96972 0.32591 0.47946 0.0
H501 H 0.89572 0.25058 0.48937 0.0
C502 C 0.79381 0.20743 0.47914 0.0
C503 C 0.74294 0.18935 0.47204 0.0
C504 C 0.83648 0.25247 0.47643 0.0
C505 C 0.73548 0.21755 0.46316 0.0
C506 C 0.77713 0.26199 0.4608 0.0
C507 C 0.87032 0.32323 0.46221 0.0
C508 C 0.9219 0.34017 0.46617 0.0
C509 C 0.82785 0.27961 0.46691 0.0
C510 C 0.93034 0.31395 0.47672 0.0
C511 C 0.88797 0.2706 0.48202 0.0
H512 H 0.58841 0.76755 0.81502 0.0
H513 H 0.72525 0.81682 0.77703 0.0
H514 H 0.72473 0.87303 0.76219 0.0
H515 H 0.68371 0.90634 0.75859 0.0
H516 H 0.54632 0.85778 0.79573 0.0
H517 H 0.54901 0.80352 0.81251 0.0
C518 C 0.61805 0.79063 0.8035 0.0
C519 C 0.65687 0.78799 0.7972 0.0
C520 C 0.61745 0.823 0.79488 0.0
C521 C 0.69536 0.81843 0.78242 0.0
C522 C 0.69494 0.85047 0.7738 0.0
C523 C 0.65431 0.88384 0.77036 0.0
C524 C 0.61453 0.88566 0.77573 0.0
C525 C 0.65595 0.85277 0.77973 0.0
C526 C 0.57738 0.85702 0.79137 0.0
C527 C 0.57875 0.82586 0.80084 0.0
H528 H 0.71089 0.3496 0.179 0.0
H529 H 0.79398 0.38332 0.11785 0.0
H530 H 0.71249 0.34463 0.09651 0.0
H531 H 0.62486 0.32095 0.09605 0.0
H532 H 0.54034 0.28748 0.15696 0.0
H533 H 0.61447 0.30426 0.17761 0.0
C534 C 0.71049 0.34679 0.16104 0.0
C535 C 0.75777 0.36964 0.14982 0.0
C536 C 0.66353 0.32508 0.1489 0.0
C537 C 0.75759 0.36603 0.12662 0.0
C538 C 0.71113 0.3441 0.11447 0.0
C539 C 0.62116 0.31502 0.11365 0.0
C540 C 0.57833 0.30566 0.12514 0.0
C541 C 0.66452 0.32614 0.12547 0.0
C542 C 0.57403 0.29678 0.14785 0.0
C543 C 0.61663 0.30679 0.15973 0.0
H544 H 0.4903 0.88525 0.48351 0.0
H545 H 0.4276 0.92332 0.4374 0.0
H546 H 0.34906 0.84747 0.43228 0.0
H547 H 0.29813 0.77005 0.43988 0.0
H548 H 0.35812 0.72914 0.48535 0.0
H549 H 0.43663 0.80598 0.4921 0.0
C550 C 0.4595 0.87691 0.47232 0.0
C551 C 0.46543 0.91039 0.46081 0.0
C552 C 0.41348 0.83258 0.46946 0.0
C553 C 0.42461 0.89869 0.44653 0.0
C554 C 0.37938 0.85512 0.44356 0.0
C555 C 0.32831 0.77783 0.45132 0.0
C556 C 0.32224 0.74365 0.46194 0.0
C557 C 0.37343 0.82182 0.45483 0.0
C558 C 0.36145 0.75466 0.47703 0.0
C559 C 0.40663 0.79864 0.48073 0.0
H560 H 0.55792 0.27072 0.84331 0.0
H561 H 0.47831 0.25696 0.78311 0.0
H562 H 0.48951 0.20599 0.76718 0.0
H563 H 0.52331 0.16665 0.76992 0.0
H564 H 0.60659 0.18221 0.82923 0.0
H565 H 0.59137 0.23015 0.84615 0.0
C566 C 0.54266 0.25618 0.82679 0.0
C567 C 0.51756 0.26776 0.81436 0.0
C568 C 0.54975 0.22716 0.8176 0.0
C569 C 0.49833 0.24899 0.7929 0.0
C570 C 0.50455 0.21973 0.78381 0.0
C571 C 0.53866 0.18082 0.78647 0.0
C572 C 0.56648 0.17104 0.79817 0.0
C573 C 0.53067 0.20896 0.79591 0.0
C574 C 0.58472 0.18884 0.81987 0.0
C575 C 0.57633 0.21652 0.82951 0.0
H576 H 0.57899 0.81886 0.51777 0.0
H577 H 0.70575 0.8558 0.47574 0.0
H578 H 0.69495 0.79144 0.48652 0.0
H579 H 0.65439 0.72814 0.51049 0.0
H580 H 0.52873 0.69246 0.55285 0.0
H581 H 0.53342 0.75221 0.53899 0.0
C582 C 0.60355 0.81238 0.51058 0.0
C583 C 0.64342 0.84238 0.49611 0.0
C584 C 0.59742 0.77554 0.51699 0.0
C585 C 0.67532 0.83367 0.48721 0.0
C586 C 0.66905 0.79676 0.4933 0.0
C587 C 0.62737 0.73296 0.5163 0.0
C588 C 0.59155 0.70621 0.53277 0.0
C589 C 0.63097 0.76798 0.50856 0.0
C590 C 0.55703 0.713 0.54034 0.0
C591 C 0.55972 0.74715 0.53244 0.0
H592 H 0.77145 0.57655 0.81536 0.0
H593 H 0.66947 0.46679 0.8573 0.0
H594 H 0.73598 0.45922 0.86188 0.0
H595 H 0.82394 0.48276 0.85489 0.0
H596 H 0.92727 0.59015 0.81208 0.0
H597 H 0.86064 0.59848 0.80688 0.0
C598 C 0.76351 0.55093 0.82555 0.0
C599 C 0.71375 0.52247 0.83605 0.0
C600 C 0.8029 0.54588 0.82797 0.0
C601 C 0.70598 0.48948 0.84889 0.0
C602 C 0.7446 0.485 0.85159 0.0
C603 C 0.83259 0.50826 0.84437 0.0
C604 C 0.88245 0.5359 0.83408 0.0
C605 C 0.79338 0.51288 0.84132 0.0
C606 C 0.89033 0.56784 0.82025 0.0
C607 C 0.85178 0.57288 0.81738 0.0
H608 H 0.26209 0.66346 0.1303 0.0
H609 H 0.15765 0.67385 0.16636 0.0
H610 H 0.22672 0.75293 0.17114 0.0
H611 H 0.31833 0.81908 0.16716 0.0
H612 H 0.42329 0.81006 0.1308 0.0
H613 H 0.35263 0.73126 0.12373 0.0
C614 C 0.25423 0.68299 0.13908 0.0
C615 C 0.20429 0.6621 0.14807 0.0
C616 C 0.29442 0.72904 0.1417 0.0
C617 C 0.19525 0.68848 0.15922 0.0
C618 C 0.23495 0.73394 0.16203 0.0
C619 C 0.32572 0.79999 0.1575 0.0
C620 C 0.37647 0.82078 0.14963 0.0
C621 C 0.28488 0.75454 0.15363 0.0
C622 C 0.3848 0.79534 0.13692 0.0
C623 C 0.34438 0.75005 0.13305 0.0
H624 H 0.52633 0.25826 0.46271 0.0
H625 H 0.62465 0.26816 0.51373 0.0
H626 H 0.64627 0.33603 0.52819 0.0
H627 H 0.63574 0.39145 0.52738 0.0
H628 H 0.52952 0.37789 0.47958 0.0
H629 H 0.51346 0.3132 0.46272 0.0
C630 C 0.55208 0.27494 0.47712 0.0
C631 C 0.5741 0.25792 0.48686 0.0
C632 C 0.56329 0.3136 0.48593 0.0
C633 C 0.608 0.28068 0.50539 0.0
C634 C 0.62014 0.31948 0.51388 0.0
C635 C 0.60846 0.37418 0.51346 0.0
C636 C 0.58357 0.38961 0.505 0.0
C637 C 0.59777 0.33605 0.50439 0.0
C638 C 0.5498 0.36731 0.4864 0.0
C639 C 0.54012 0.32993 0.47686 0.0
H640 H 0.45991 0.57451 0.82303 0.0
H641 H 0.39322 0.458 0.85975 0.0
H642 H 0.31449 0.44874 0.86515 0.0
H643 H 0.26241 0.47269 0.86093 0.0
H644 H 0.3242 0.58843 0.82491 0.0
H645 H 0.40378 0.59766 0.81755 0.0
C646 C 0.42832 0.54702 0.83224 0.0
C647 C 0.43467 0.51713 0.84097 0.0
C648 C 0.38077 0.54118 0.83536 0.0
C649 C 0.39158 0.48192 0.85267 0.0
C650 C 0.3456 0.47637 0.85583 0.0
C651 C 0.29285 0.50005 0.85128 0.0
C652 C 0.28543 0.52968 0.84359 0.0
C653 C 0.33942 0.50562 0.8474 0.0
C654 C 0.32671 0.56434 0.83096 0.0
C655 C 0.37315 0.56996 0.82695 0.0
H656 H 0.90168 0.37329 0.13853 0.0
H657 H 1.02148 0.36324 0.15014 0.0
H658 H 0.95474 0.28498 0.15703 0.0
H659 H 0.86216 0.22087 0.16349 0.0
H660 H 0.74209 0.22944 0.14946 0.0
H661 H 0.80844 0.30601 0.13927 0.0
C662 C 0.91312 0.35377 0.14223 0.0
C663 C 0.96674 0.37435 0.14399 0.0
C664 C 0.87427 0.30836 0.14575 0.0
C665 C 0.98073 0.34839 0.14858 0.0
C666 C 0.94246 0.30359 0.15265 0.0
C667 C 0.85053 0.23921 0.15761 0.0
C668 C 0.79705 0.21925 0.15711 0.0
C669 C 0.88912 0.28338 0.15176 0.0
C670 C 0.78272 0.24367 0.1497 0.0
C671 C 0.82083 0.28772 0.14415 0.0
H672 H 0.96779 0.46371 0.07619 0.0
H673 H 0.13384 0.54133 0.08529 0.0
H674 H 0.1441 0.54031 0.04499 0.0
H675 H 0.10577 0.52242 0.00702 0.0
H676 H 0.93818 0.43812 -0.00115 0.0
H677 H 0.9286 0.43637 0.03885 0.0
C678 C 1.0061 0.48001 0.06928 0.0
C679 C 1.05007 0.50311 0.08344 0.0
C680 C 1.01143 0.47829 0.04627 0.0
C681 C 0.09949 0.52348 0.07454 0.0
C682 C 0.10534 0.52298 0.05153 0.0
C683 C 1.0671 0.50287 0.01396 0.0
C684 C 1.02293 0.48171 -0.0002 0.0
C685 C 1.06159 0.50112 0.03718 0.0
C686 C 0.9731 0.45621 0.00924 0.0
C687 C 0.96744 0.45493 0.03217 0.0
H688 H 0.55977 0.98606 0.40226 0.0
H689 H 0.69034 0.12447 0.40314 0.0
H690 H 0.68181 0.12513 0.36277 0.0
H691 H 0.63718 0.08582 0.32737 0.0
H692 H 0.51564 0.94478 0.32657 0.0
H693 H 0.52005 0.94595 0.36665 0.0
C694 C 0.58604 0.01635 0.39355 0.0
C695 C 0.62514 0.05526 0.40546 0.0
C696 C 0.58236 0.01602 0.37035 0.0
C697 C 0.65981 0.0942 0.39414 0.0
C698 C 0.65494 0.09453 0.37112 0.0
C699 C 0.61208 0.05513 0.33577 0.0
C700 C 0.57525 0.01544 0.32355 0.0
C701 C 0.61651 0.0555 0.359 0.0
C702 C 0.54301 0.97627 0.33521 0.0
C703 C 0.54586 0.97667 0.35828 0.0
H704 H 0.63946 0.53065 0.77001 0.0
H705 H 0.48322 0.48674 0.76467 0.0
H706 H 0.49341 0.49918 0.72486 0.0
H707 H 0.54494 0.51868 0.69125 0.0
H708 H 0.69785 0.55581 0.69567 0.0
H709 H 0.69115 0.54998 0.73613 0.0
C710 C 0.60796 0.52423 0.76008 0.0
C711 C 0.56072 0.50792 0.7701 0.0
C712 C 0.61349 0.53003 0.73708 0.0
C713 C 0.51983 0.49917 0.75718 0.0
C714 C 0.52564 0.50628 0.73447 0.0
C715 C 0.57691 0.52593 0.70119 0.0
C716 C 0.62192 0.53794 0.69074 0.0
C717 C 0.572 0.52113 0.72421 0.0
C718 C 0.6629 0.54656 0.70354 0.0
C719 C 0.65903 0.54322 0.72659 0.0
H720 H 0.66159 0.10579 0.53688 0.0
H721 H 0.50925 0.97806 0.53618 0.0
H722 H 0.51474 0.97539 0.57644 0.0
H723 H 0.56053 1.01135 0.61207 0.0
H724 H 0.70885 0.14198 0.6134 0.0
H725 H 0.7076 0.14188 0.57272 0.0
C726 C 0.62999 0.07725 0.54559 0.0
C727 C 0.58517 0.04208 0.53374 0.0
C728 C 0.63262 0.07671 0.56882 0.0
C729 C 0.54404 1.00549 0.54509 0.0
C730 C 0.54715 1.00398 0.56806 0.0
C731 C 0.59275 0.03952 0.60336 0.0
C732 C 0.63484 0.07651 0.61551 0.0
C733 C 0.59087 0.03967 0.58013 0.0
C734 C 0.67609 0.11321 0.60423 0.0
C735 C 0.67535 0.11311 0.58105 0.0
H736 H 0.6708 0.58648 0.90862 0.0
H737 H 0.51145 0.47362 0.89242 0.0
H738 H 0.49773 0.45109 0.93087 0.0
H739 H 0.53009 0.46564 0.96961 0.0
H740 H 0.68779 0.58089 0.98595 0.0
H741 H 0.70349 0.60027 0.94695 0.0
C742 C 0.63317 0.55689 0.91352 0.0
C743 C 0.59215 0.53184 0.89784 0.0
C744 C 0.62538 0.54458 0.93567 0.0
C745 C 0.54352 0.49356 0.90432 0.0
C746 C 0.53569 0.48062 0.92626 0.0
C747 C 0.56799 0.49459 0.96446 0.0
C748 C 0.60786 0.52181 0.9804 0.0
C749 C 0.57619 0.50611 0.94213 0.0
C750 C 0.65668 0.55961 0.9738 0.0
C751 C 0.66558 0.5707 0.95158 0.0
H752 H 0.10306 0.46697 0.21901 0.0
H753 H 0.10492 0.5746 0.20622 0.0
H754 H 0.10596 0.58858 0.24613 0.0
H755 H 0.11032 0.57206 0.2847 0.0
H756 H 0.10771 0.46391 0.29716 0.0
H757 H 0.10267 0.44805 0.25735 0.0
C758 C 0.10337 0.4933 0.225 0.0
C759 C 0.10435 0.51994 0.20982 0.0
C760 C 0.10401 0.50112 0.24787 0.0
C761 C 0.10429 0.55373 0.21768 0.0
C762 C 0.10505 0.56181 0.24046 0.0
C763 C 0.10867 0.54508 0.27863 0.0
C764 C 0.10961 0.51931 0.29377 0.0
C765 C 0.10567 0.5361 0.25571 0.0
C766 C 0.10669 0.48401 0.28579 0.0
C767 C 0.10403 0.47504 0.26305 0.0
loop_
_geom_bond_atom_site_label_1
_geom_bond_atom_site_label_2
_geom_bond_distance
_geom_bond_site_symmetry_2
_ccdc_geom_bond_type
Sm0 C2 2.846 . S
Sm0 O20 2.543 . S
Sm0 O21 2.450 . S
Sm0 O22 2.681 . S
Sm0 O23 2.464 . S
Sm0 O24 2.396 . S
Sm0 O28 2.386 . S
Sm0 O31 2.408 1_455 S
Sm1 C11 2.846 . S
Sm1 O22 2.386 1_655 S
Sm1 O25 2.408 1_655 S
Sm1 O26 2.543 . S
Sm1 O27 2.450 . S
Sm1 O28 2.681 1_655 S
Sm1 O29 2.464 . S
Sm1 O30 2.396 . S
C2 Sm0 2.846 . S
C2 C3 1.506 . S
C2 O20 1.261 . S
C2 O21 1.242 . S
C3 C2 1.506 . S
C3 C4 1.358 . S
C3 C8 1.382 . S
C4 C3 1.358 . S
C4 C5 1.385 . S
C4 H32 0.930 . S
C5 C4 1.385 . S
C5 C6 1.395 . S
C5 H33 0.929 . S
C6 C5 1.395 . S
C6 C7 1.335 . S
C7 C6 1.335 . S
C7 C8 1.398 . S
C7 H34 0.930 . S
C8 C3 1.382 . S
C8 C7 1.398 . S
C8 H35 0.929 . S
C9 O22 1.271 . S
C9 O23 1.251 . S
C10 O24 1.252 . S
C10 O25 1.272 . S
C11 Sm1 2.846 . S
C11 C12 1.506 . S
C11 O26 1.261 . S
C11 O27 1.242 . S
C12 C11 1.506 . S
C12 C13 1.358 . S
C12 C17 1.382 . S
C13 C12 1.358 . S
C13 C14 1.385 . S
C13 H36 0.930 . S
C14 C13 1.385 . S
C14 C15 1.395 . S
C14 H37 0.929 . S
C15 C14 1.395 . S
C15 C16 1.335 . S
C16 C15 1.335 . S
C16 C17 1.398 . S
C16 H38 0.930 . S
C17 C12 1.382 . S
C17 C16 1.398 . S
C17 H39 0.929 . S
C18 O28 1.271 . S
C18 O29 1.251 1_455 S
C19 O30 1.252 . S
C19 O31 1.272 . S
O20 Sm0 2.543 . S
O20 C2 1.261 . S
O21 Sm0 2.450 . S
O21 C2 1.242 . S
O22 Sm0 2.681 . S
O22 Sm1 2.386 1_455 S
O22 C9 1.271 . S
O23 Sm0 2.464 . S
O23 C9 1.251 . S
O24 Sm0 2.396 . S
O24 C10 1.252 . S
O25 Sm1 2.408 1_455 S
O25 C10 1.272 . S
O26 Sm1 2.543 . S
O26 C11 1.261 . S
O27 Sm1 2.450 . S
O27 C11 1.242 . S
O28 Sm0 2.386 . S
O28 Sm1 2.681 1_455 S
O28 C18 1.271 . S
O29 Sm1 2.464 . S
O29 C18 1.251 1_655 S
O30 Sm1 2.396 . S
O30 C19 1.252 . S
O31 Sm0 2.408 1_655 S
O31 C19 1.272 . S
H32 C4 0.930 . S
H33 C5 0.929 . S
H34 C7 0.930 . S
H35 C8 0.929 . S
H36 C13 0.930 . S
H37 C14 0.929 . S
H38 C16 0.930 . S
H39 C17 0.929 . S
Sm40 C42 2.846 . S
Sm40 O60 2.543 . S
Sm40 O61 2.450 . S
Sm40 O62 2.681 1_565 S
Sm40 O63 2.464 . S
Sm40 O64 2.396 . S
Sm40 O68 2.386 . S
Sm40 O71 2.408 1_565 S
Sm41 C51 2.846 . S
Sm41 O62 2.386 . S
Sm41 O65 2.408 1_545 S
Sm41 O66 2.543 . S
Sm41 O67 2.450 . S
Sm41 O68 2.681 1_545 S
Sm41 O69 2.464 . S
Sm41 O70 2.396 . S
C42 Sm40 2.846 . S
C42 C43 1.506 . S
C42 O60 1.261 . S
C42 O61 1.242 . S
C43 C42 1.506 . S
C43 C44 1.358 . S
C43 C48 1.382 . S
C44 C43 1.358 . S
C44 C45 1.385 . S
C44 H72 0.930 . S
C45 C44 1.385 . S
C45 C46 1.395 . S
C45 H73 0.929 . S
C46 C45 1.395 . S
C46 C47 1.335 . S
C47 C46 1.335 . S
C47 C48 1.398 . S
C47 H74 0.930 . S
C48 C43 1.382 . S
C48 C47 1.398 . S
C48 H75 0.929 . S
C49 O62 1.271 . S
C49 O63 1.251 1_545 S
C50 O64 1.252 . S
C50 O65 1.272 . S
C51 Sm41 2.846 . S
C51 C52 1.506 . S
C51 O66 1.261 . S
C51 O67 1.242 . S
C52 C51 1.506 . S
C52 C53 1.358 . S
C52 C57 1.382 . S
C53 C52 1.358 . S
C53 C54 1.385 . S
C53 H76 0.930 . S
C54 C53 1.385 . S
C54 C55 1.395 . S
C54 H77 0.929 . S
C55 C54 1.395 . S
C55 C56 1.335 . S
C56 C55 1.335 . S
C56 C57 1.398 . S
C56 H78 0.930 . S
C57 C52 1.382 . S
C57 C56 1.398 . S
C57 H79 0.929 . S
C58 O68 1.271 1_545 S
C58 O69 1.251 . S
C59 O70 1.252 . S
C59 O71 1.272 . S
O60 Sm40 2.543 . S
O60 C42 1.261 . S
O61 Sm40 2.450 . S
O61 C42 1.242 . S
O62 Sm40 2.681 1_545 S
O62 Sm41 2.386 . S
O62 C49 1.271 . S
O63 Sm40 2.464 . S
O63 C49 1.251 1_565 S
O64 Sm40 2.396 . S
O64 C50 1.252 . S
O65 Sm41 2.408 1_565 S
O65 C50 1.272 . S
O66 Sm41 2.543 . S
O66 C51 1.261 . S
O67 Sm41 2.450 . S
O67 C51 1.242 . S
O68 Sm40 2.386 . S
O68 Sm41 2.681 1_565 S
O68 C58 1.271 1_565 S
O69 Sm41 2.464 . S
O69 C58 1.251 . S
O70 Sm41 2.396 . S
O70 C59 1.252 . S
O71 Sm40 2.408 1_545 S
O71 C59 1.272 . S
H72 C44 0.930 . S
H73 C45 0.929 . S
H74 C47 0.930 . S
H75 C48 0.929 . S
H76 C53 0.930 . S
H77 C54 0.929 . S
H78 C56 0.930 . S
H79 C57 0.929 . S
Sm80 C82 2.846 . S
Sm80 O100 2.543 . S
Sm80 O101 2.450 . S
Sm80 O102 2.681 . S
Sm80 O103 2.464 . S
Sm80 O104 2.396 . S
Sm80 O108 2.386 . S
Sm80 O111 2.408 . S
Sm81 C91 2.846 . S
Sm81 O102 2.386 . S
Sm81 O105 2.408 . S
Sm81 O106 2.543 . S
Sm81 O107 2.450 . S
Sm81 O108 2.681 . S
Sm81 O109 2.464 . S
Sm81 O110 2.396 . S
C82 Sm80 2.846 . S
C82 C83 1.506 . S
C82 O100 1.261 . S
C82 O101 1.242 . S
C83 C82 1.506 . S
C83 C84 1.358 . S
C83 C88 1.382 . S
C84 C83 1.358 . S
C84 C85 1.385 . S
C84 H112 0.930 . S
C85 C84 1.385 . S
C85 C86 1.395 . S
C85 H113 0.929 . S
C86 C85 1.395 . S
C86 C87 1.335 . S
C87 C86 1.335 . S
C87 C88 1.398 . S
C87 H114 0.930 . S
C88 C83 1.382 . S
C88 C87 1.398 . S
C88 H115 0.929 . S
C89 O102 1.271 . S
C89 O103 1.251 . S
C90 O104 1.252 . S
C90 O105 1.272 . S
C91 Sm81 2.846 . S
C91 C92 1.506 . S
C91 O106 1.261 . S
C91 O107 1.242 . S
C92 C91 1.506 . S
C92 C93 1.358 . S
C92 C97 1.382 . S
C93 C92 1.358 . S
C93 C94 1.385 . S
C93 H116 0.930 . S
C94 C93 1.385 . S
C94 C95 1.395 . S
C94 H117 0.929 . S
C95 C94 1.395 . S
C95 C96 1.335 . S
C96 C95 1.335 . S
C96 C97 1.398 . S
C96 H118 0.930 . S
C97 C92 1.382 . S
C97 C96 1.398 . S
C97 H119 0.929 . S
C98 O108 1.271 . S
C98 O109 1.251 . S
C99 O110 1.252 . S
C99 O111 1.272 . S
O100 Sm80 2.543 . S
O100 C82 1.261 . S
O101 Sm80 2.450 . S
O101 C82 1.242 . S
O102 Sm80 2.681 . S
O102 Sm81 2.386 . S
O102 C89 1.271 . S
O103 Sm80 2.464 . S
O103 C89 1.251 . S
O104 Sm80 2.396 . S
O104 C90 1.252 . S
O105 Sm81 2.408 . S
O105 C90 1.272 . S
O106 Sm81 2.543 . S
O106 C91 1.261 . S
O107 Sm81 2.450 . S
O107 C91 1.242 . S
O108 Sm80 2.386 . S
O108 Sm81 2.681 . S
O108 C98 1.271 . S
O109 Sm81 2.464 . S
O109 C98 1.251 . S
O110 Sm81 2.396 . S
O110 C99 1.252 . S
O111 Sm80 2.408 . S
O111 C99 1.272 . S
H112 C84 0.930 . S
H113 C85 0.929 . S
H114 C87 0.930 . S
H115 C88 0.929 . S
H116 C93 0.930 . S
H117 C94 0.929 . S
H118 C96 0.930 . S
H119 C97 0.929 . S
C120 C121 1.391 . S
C120 C124 1.391 . S
C120 H162 0.948 . S
C121 C120 1.391 . S
C121 C122 1.391 . S
C122 C121 1.391 . S
C122 H178 0.947 . S
C122 C179 1.392 . S
C123 C124 1.391 . S
C123 C127 1.397 . S
C123 C179 1.419 . S
C124 C120 1.391 . S
C124 C123 1.391 . S
C124 C125 1.399 . S
C125 C124 1.399 . S
C125 C128 1.396 . S
C125 C137 1.453 . S
C125 C138 1.684 . S
H126 C150 0.948 . S
C127 C123 1.397 . S
C127 C128 1.394 . S
C127 C146 1.723 . S
C128 C125 1.396 . S
C128 C127 1.394 . S
C128 C158 1.723 1_545 S
H129 C152 0.947 . S
H130 C153 0.948 . S
H131 C159 0.982 . S
H132 C160 0.979 . S
H133 C160 0.980 . S
H134 C160 0.983 . S
H135 C159 0.979 . S
H136 C159 0.977 . S
C137 C125 1.453 . S
C137 H166 0.982 . S
C137 H167 0.979 . S
C137 H168 0.977 1_545 S
C138 C125 1.684 . S
C138 H163 0.979 . S
C138 H164 0.980 . S
C138 H165 0.983 . S
C139 C140 1.391 . S
C139 C144 1.391 . S
C139 H169 0.948 . S
C140 C139 1.391 . S
C140 C141 1.391 1_545 S
C141 C140 1.391 1_565 S
C141 C142 1.392 . S
C141 H170 0.947 . S
C142 C141 1.392 . S
C142 C143 1.419 1_565 S
C142 H171 0.948 . S
C143 C142 1.419 1_545 S
C143 C144 1.391 . S
C143 C147 1.397 . S
C144 C139 1.391 . S
C144 C143 1.391 . S
C144 C145 1.399 . S
C145 C144 1.399 . S
C145 C146 1.396 . S
C145 C148 1.453 . S
C145 C149 1.684 . S
C146 C127 1.723 . S
C146 C145 1.396 . S
C146 C147 1.394 . S
C147 C143 1.397 . S
C147 C146 1.394 . S
C147 C157 1.723 1_545 S
C148 C145 1.453 . S
C148 H172 0.982 . S
C148 H173 0.979 . S
C148 H174 0.977 . S
C149 C145 1.684 . S
C149 H175 0.979 . S
C149 H176 0.980 . S
C149 H177 0.983 . S
C150 H126 0.948 . S
C150 C151 1.391 . S
C150 C155 1.391 . S
C151 C150 1.391 . S
C151 C152 1.391 . S
C152 H129 0.947 . S
C152 C151 1.391 . S
C152 C153 1.392 . S
C153 H130 0.948 . S
C153 C152 1.392 . S
C153 C154 1.419 . S
C154 C153 1.419 . S
C154 C155 1.391 . S
C154 C158 1.397 . S
C155 C150 1.391 . S
C155 C154 1.391 . S
C155 C156 1.399 . S
C156 C155 1.399 . S
C156 C157 1.396 . S
C156 C159 1.453 . S
C156 C160 1.684 . S
C157 C147 1.723 1_565 S
C157 C156 1.396 . S
C157 C158 1.394 . S
C158 C128 1.723 1_565 S
C158 C154 1.397 . S
C158 C157 1.394 . S
C159 H131 0.982 . S
C159 H135 0.979 . S
C159 H136 0.977 . S
C159 C156 1.453 . S
C160 H132 0.979 . S
C160 H133 0.980 . S
C160 H134 0.983 . S
C160 C156 1.684 . S
H161 C179 0.948 . S
H162 C120 0.948 . S
H163 C138 0.979 . S
H164 C138 0.980 . S
H165 C138 0.983 . S
H166 C137 0.982 . S
H167 C137 0.979 . S
H168 C137 0.977 1_565 S
H169 C139 0.948 . S
H170 C141 0.947 . S
H171 C142 0.948 . S
H172 C148 0.982 . S
H173 C148 0.979 . S
H174 C148 0.977 . S
H175 C149 0.979 . S
H176 C149 0.980 . S
H177 C149 0.983 . S
H178 C122 0.947 . S
C179 C122 1.392 . S
C179 C123 1.419 . S
C179 H161 0.948 . S
C180 C181 1.391 . S
C180 C184 1.391 . S
C180 H222 0.948 . S
C181 C180 1.391 . S
C181 C182 1.391 . S
C182 C181 1.391 . S
C182 H238 0.947 . S
C182 C239 1.392 . S
C183 C184 1.391 . S
C183 C187 1.397 . S
C183 C239 1.419 . S
C184 C180 1.391 . S
C184 C183 1.391 . S
C184 C185 1.399 . S
C185 C184 1.399 . S
C185 C188 1.396 . S
C185 C197 1.453 . S
C185 C198 1.684 . S
H186 C210 0.948 . S
C187 C183 1.397 . S
C187 C188 1.394 . S
C187 C206 1.723 . S
C188 C185 1.396 . S
C188 C187 1.394 . S
C188 C218 1.723 . S
H189 C212 0.947 . S
H190 C213 0.948 . S
H191 C219 0.982 . S
H192 C220 0.979 . S
H193 C220 0.980 . S
H194 C220 0.983 . S
H195 C219 0.979 . S
H196 C219 0.977 . S
C197 C185 1.453 . S
C197 H226 0.982 . S
C197 H227 0.979 . S
C197 H228 0.977 . S
C198 C185 1.684 . S
C198 H223 0.979 . S
C198 H224 0.980 . S
C198 H225 0.983 . S
C199 C200 1.391 . S
C199 C204 1.391 . S
C199 H229 0.948 . S
C200 C199 1.391 . S
C200 C201 1.391 . S
C201 C200 1.391 . S
C201 C202 1.392 . S
C201 H230 0.947 . S
C202 C201 1.392 . S
C202 C203 1.419 . S
C202 H231 0.948 . S
C203 C202 1.419 . S
C203 C204 1.391 . S
C203 C207 1.397 . S
C204 C199 1.391 . S
C204 C203 1.391 . S
C204 C205 1.399 . S
C205 C204 1.399 . S
C205 C206 1.396 . S
C205 C208 1.453 . S
C205 C209 1.684 . S
C206 C187 1.723 . S
C206 C205 1.396 . S
C206 C207 1.394 . S
C207 C203 1.397 . S
C207 C206 1.394 . S
C207 C217 1.723 . S
C208 C205 1.453 . S
C208 H232 0.982 . S
C208 H233 0.979 . S
C208 H234 0.977 . S
C209 C205 1.684 . S
C209 H235 0.979 . S
C209 H236 0.980 . S
C209 H237 0.983 . S
C210 H186 0.948 . S
C210 C211 1.391 . S
C210 C215 1.391 . S
C211 C210 1.391 . S
C211 C212 1.391 . S
C212 H189 0.947 . S
C212 C211 1.391 . S
C212 C213 1.392 . S
C213 H190 0.948 . S
C213 C212 1.392 . S
C213 C214 1.419 . S
C214 C213 1.419 . S
C214 C215 1.391 . S
C214 C218 1.397 . S
C215 C210 1.391 . S
C215 C214 1.391 . S
C215 C216 1.399 . S
C216 C215 1.399 . S
C216 C217 1.396 . S
C216 C219 1.453 . S
C216 C220 1.684 . S
C217 C207 1.723 . S
C217 C216 1.396 . S
C217 C218 1.394 . S
C218 C188 1.723 . S
C218 C214 1.397 . S
C218 C217 1.394 . S
C219 H191 0.982 . S
C219 H195 0.979 . S
C219 H196 0.977 . S
C219 C216 1.453 . S
C220 H192 0.979 . S
C220 H193 0.980 . S
C220 H194 0.983 . S
C220 C216 1.684 . S
H221 C239 0.948 . S
H222 C180 0.948 . S
H223 C198 0.979 . S
H224 C198 0.980 . S
H225 C198 0.983 . S
H226 C197 0.982 . S
H227 C197 0.979 . S
H228 C197 0.977 . S
H229 C199 0.948 . S
H230 C201 0.947 . S
H231 C202 0.948 . S
H232 C208 0.982 . S
H233 C208 0.979 . S
H234 C208 0.977 . S
H235 C209 0.979 . S
H236 C209 0.980 . S
H237 C209 0.983 . S
H238 C182 0.947 . S
C239 C182 1.392 . S
C239 C183 1.419 . S
C239 H221 0.948 . S
C240 C241 1.391 . S
C240 C244 1.391 . S
C240 H282 0.948 . S
C241 C240 1.391 . S
C241 C242 1.391 . S
C242 C241 1.391 . S
C242 H298 0.947 . S
C242 C299 1.392 . S
C243 C244 1.391 . S
C243 C247 1.397 . S
C243 C299 1.419 . S
C244 C240 1.391 . S
C244 C243 1.391 . S
C244 C245 1.399 . S
C245 C244 1.399 . S
C245 C248 1.396 . S
C245 C257 1.453 . S
C245 C258 1.684 . S
H246 C270 0.948 . S
C247 C243 1.397 . S
C247 C248 1.394 . S
C247 C266 1.723 . S
C248 C245 1.396 . S
C248 C247 1.394 . S
C248 C278 1.723 . S
H249 C272 0.947 . S
H250 C273 0.948 1_455 S
H251 C279 0.982 . S
H252 C280 0.979 . S
H253 C280 0.980 . S
H254 C280 0.983 . S
H255 C279 0.979 . S
H256 C279 0.977 . S
C257 C245 1.453 . S
C257 H286 0.982 . S
C257 H287 0.979 . S
C257 H288 0.977 . S
C258 C245 1.684 . S
C258 H283 0.979 . S
C258 H284 0.980 . S
C258 H285 0.983 . S
C259 C260 1.391 . S
C259 C264 1.391 . S
C259 H289 0.948 . S
C260 C259 1.391 . S
C260 C261 1.391 . S
C261 C260 1.391 . S
C261 C262 1.392 . S
C261 H290 0.947 1_455 S
C262 C261 1.392 . S
C262 C263 1.419 . S
C262 H291 0.948 1_455 S
C263 C262 1.419 . S
C263 C264 1.391 . S
C263 C267 1.397 . S
C264 C259 1.391 . S
C264 C263 1.391 . S
C264 C265 1.399 . S
C265 C264 1.399 . S
C265 C266 1.396 . S
C265 C268 1.453 . S
C265 C269 1.684 . S
C266 C247 1.723 . S
C266 C265 1.396 . S
C266 C267 1.394 . S
C267 C263 1.397 . S
C267 C266 1.394 . S
C267 C277 1.723 . S
C268 C265 1.453 . S
C268 H292 0.982 . S
C268 H293 0.979 . S
C268 H294 0.977 . S
C269 C265 1.684 . S
C269 H295 0.979 . S
C269 H296 0.980 . S
C269 H297 0.983 . S
C270 H246 0.948 . S
C270 C271 1.391 . S
C270 C275 1.391 . S
C271 C270 1.391 . S
C271 C272 1.391 . S
C272 H249 0.947 . S
C272 C271 1.391 . S
C272 C273 1.392 . S
C273 H250 0.948 1_655 S
C273 C272 1.392 . S
C273 C274 1.419 . S
C274 C273 1.419 . S
C274 C275 1.391 . S
C274 C278 1.397 1_655 S
C275 C270 1.391 . S
C275 C274 1.391 . S
C275 C276 1.399 . S
C276 C275 1.399 . S
C276 C277 1.396 1_655 S
C276 C279 1.453 . S
C276 C280 1.684 . S
C277 C267 1.723 . S
C277 C276 1.396 1_455 S
C277 C278 1.394 . S
C278 C248 1.723 . S
C278 C274 1.397 1_455 S
C278 C277 1.394 . S
C279 H251 0.982 . S
C279 H255 0.979 . S
C279 H256 0.977 . S
C279 C276 1.453 . S
C280 H252 0.979 . S
C280 H253 0.980 . S
C280 H254 0.983 . S
C280 C276 1.684 . S
H281 C299 0.948 . S
H282 C240 0.948 . S
H283 C258 0.979 . S
H284 C258 0.980 . S
H285 C258 0.983 . S
H286 C257 0.982 . S
H287 C257 0.979 . S
H288 C257 0.977 . S
H289 C259 0.948 . S
H290 C261 0.947 1_655 S
H291 C262 0.948 1_655 S
H292 C268 0.982 . S
H293 C268 0.979 . S
H294 C268 0.977 . S
H295 C269 0.979 . S
H296 C269 0.980 . S
H297 C269 0.983 . S
H298 C242 0.947 . S
C299 C242 1.392 . S
C299 C243 1.419 . S
C299 H281 0.948 . S
C300 C301 1.391 . S
C300 C304 1.391 . S
C300 H342 0.948 . S
C301 C300 1.391 . S
C301 C302 1.391 . S
C302 C301 1.391 . S
C302 H358 0.947 . S
C302 C359 1.392 . S
C303 C304 1.391 . S
C303 C307 1.397 . S
C303 C359 1.419 . S
C304 C300 1.391 . S
C304 C303 1.391 . S
C304 C305 1.399 . S
C305 C304 1.399 . S
C305 C308 1.396 . S
C305 C317 1.453 . S
C305 C318 1.684 . S
H306 C330 0.948 . S
C307 C303 1.397 . S
C307 C308 1.394 . S
C307 C326 1.723 . S
C308 C305 1.396 . S
C308 C307 1.394 . S
C308 C338 1.723 1_655 S
H309 C332 0.947 . S
H310 C333 0.948 . S
H311 C339 0.982 . S
H312 C340 0.979 . S
H313 C340 0.980 . S
H314 C340 0.983 . S
H315 C339 0.979 . S
H316 C339 0.977 . S
C317 C305 1.453 . S
C317 H346 0.982 1_655 S
C317 H347 0.979 . S
C317 H348 0.977 1_655 S
C318 C305 1.684 . S
C318 H343 0.979 . S
C318 H344 0.980 . S
C318 H345 0.983 . S
C319 C320 1.391 1_655 S
C319 C324 1.391 . S
C319 H349 0.948 . S
C320 C319 1.391 1_455 S
C320 C321 1.391 . S
C321 C320 1.391 . S
C321 C322 1.392 . S
C321 H350 0.947 . S
C322 C321 1.392 . S
C322 C323 1.419 . S
C322 H351 0.948 . S
C323 C322 1.419 . S
C323 C324 1.391 1_455 S
C323 C327 1.397 . S
C324 C319 1.391 . S
C324 C323 1.391 1_655 S
C324 C325 1.399 . S
C325 C324 1.399 . S
C325 C326 1.396 . S
C325 C328 1.453 . S
C325 C329 1.684 . S
C326 C307 1.723 . S
C326 C325 1.396 . S
C326 C327 1.394 1_655 S
C327 C323 1.397 . S
C327 C326 1.394 1_455 S
C327 C337 1.723 . S
C328 C325 1.453 . S
C328 H352 0.982 . S
C328 H353 0.979 . S
C328 H354 0.977 . S
C329 C325 1.684 . S
C329 H355 0.979 . S
C329 H356 0.980 . S
C329 H357 0.983 . S
C330 H306 0.948 . S
C330 C331 1.391 . S
C330 C335 1.391 . S
C331 C330 1.391 . S
C331 C332 1.391 . S
C332 H309 0.947 . S
C332 C331 1.391 . S
C332 C333 1.392 . S
C333 H310 0.948 . S
C333 C332 1.392 . S
C333 C334 1.419 . S
C334 C333 1.419 . S
C334 C335 1.391 . S
C334 C338 1.397 . S
C335 C330 1.391 . S
C335 C334 1.391 . S
C335 C336 1.399 . S
C336 C335 1.399 . S
C336 C337 1.396 . S
C336 C339 1.453 . S
C336 C340 1.684 . S
C337 C327 1.723 . S
C337 C336 1.396 . S
C337 C338 1.394 . S
C338 C308 1.723 1_455 S
C338 C334 1.397 . S
C338 C337 1.394 . S
C339 H311 0.982 . S
C339 H315 0.979 . S
C339 H316 0.977 . S
C339 C336 1.453 . S
C340 H312 0.979 . S
C340 H313 0.980 . S
C340 H314 0.983 . S
C340 C336 1.684 . S
H341 C359 0.948 . S
H342 C300 0.948 . S
H343 C318 0.979 . S
H344 C318 0.980 . S
H345 C318 0.983 . S
H346 C317 0.982 1_455 S
H347 C317 0.979 . S
H348 C317 0.977 1_455 S
H349 C319 0.948 . S
H350 C321 0.947 . S
H351 C322 0.948 . S
H352 C328 0.982 . S
H353 C328 0.979 . S
H354 C328 0.977 . S
H355 C329 0.979 . S
H356 C329 0.980 . S
H357 C329 0.983 . S
H358 C302 0.947 . S
C359 C302 1.392 . S
C359 C303 1.419 . S
C359 H341 0.948 . S
C360 C361 1.391 . S
C360 C364 1.391 . S
C360 H402 0.948 . S
C361 C360 1.391 . S
C361 C362 1.391 . S
C362 C361 1.391 . S
C362 H418 0.947 . S
C362 C419 1.392 . S
C363 C364 1.391 . S
C363 C367 1.397 . S
C363 C419 1.419 . S
C364 C360 1.391 . S
C364 C363 1.391 . S
C364 C365 1.399 . S
C365 C364 1.399 . S
C365 C368 1.396 . S
C365 C377 1.453 1_565 S
C365 C378 1.684 . S
H366 C390 0.948 . S
C367 C363 1.397 . S
C367 C368 1.394 . S
C367 C386 1.723 . S
C368 C365 1.396 . S
C368 C367 1.394 . S
C368 C398 1.723 1_565 S
H369 C392 0.947 . S
H370 C393 0.948 . S
H371 C399 0.982 . S
H372 C400 0.979 . S
H373 C400 0.980 . S
H374 C400 0.983 . S
H375 C399 0.979 . S
H376 C399 0.977 . S
C377 C365 1.453 1_545 S
C377 H406 0.982 . S
C377 H407 0.979 1_545 S
C377 H408 0.977 . S
C378 C365 1.684 . S
C378 H403 0.979 . S
C378 H404 0.980 . S
C378 H405 0.983 . S
C379 C380 1.391 . S
C379 C384 1.391 . S
C379 H409 0.948 . S
C380 C379 1.391 . S
C380 C381 1.391 1_565 S
C381 C380 1.391 1_545 S
C381 C382 1.392 . S
C381 H410 0.947 . S
C382 C381 1.392 . S
C382 C383 1.419 . S
C382 H411 0.948 . S
C383 C382 1.419 . S
C383 C384 1.391 1_545 S
C383 C387 1.397 . S
C384 C379 1.391 . S
C384 C383 1.391 1_565 S
C384 C385 1.399 . S
C385 C384 1.399 . S
C385 C386 1.396 . S
C385 C388 1.453 . S
C385 C389 1.684 . S
C386 C367 1.723 . S
C386 C385 1.396 . S
C386 C387 1.394 1_565 S
C387 C383 1.397 . S
C387 C386 1.394 1_545 S
C387 C397 1.723 . S
C388 C385 1.453 . S
C388 H412 0.982 . S
C388 H413 0.979 . S
C388 H414 0.977 . S
C389 C385 1.684 . S
C389 H415 0.979 . S
C389 H416 0.980 . S
C389 H417 0.983 . S
C390 H366 0.948 . S
C390 C391 1.391 . S
C390 C395 1.391 . S
C391 C390 1.391 . S
C391 C392 1.391 . S
C392 H369 0.947 . S
C392 C391 1.391 . S
C392 C393 1.392 . S
C393 H370 0.948 . S
C393 C392 1.392 . S
C393 C394 1.419 . S
C394 C393 1.419 . S
C394 C395 1.391 . S
C394 C398 1.397 . S
C395 C390 1.391 . S
C395 C394 1.391 . S
C395 C396 1.399 . S
C396 C395 1.399 . S
C396 C397 1.396 . S
C396 C399 1.453 . S
C396 C400 1.684 . S
C397 C387 1.723 . S
C397 C396 1.396 . S
C397 C398 1.394 . S
C398 C368 1.723 1_545 S
C398 C394 1.397 . S
C398 C397 1.394 . S
C399 H371 0.982 . S
C399 H375 0.979 . S
C399 H376 0.977 . S
C399 C396 1.453 . S
C400 H372 0.979 . S
C400 H373 0.980 . S
C400 H374 0.983 . S
C400 C396 1.684 . S
H401 C419 0.948 . S
H402 C360 0.948 . S
H403 C378 0.979 . S
H404 C378 0.980 . S
H405 C378 0.983 . S
H406 C377 0.982 . S
H407 C377 0.979 1_565 S
H408 C377 0.977 . S
H409 C379 0.948 . S
H410 C381 0.947 . S
H411 C382 0.948 . S
H412 C388 0.982 . S
H413 C388 0.979 . S
H414 C388 0.977 . S
H415 C389 0.979 . S
H416 C389 0.980 . S
H417 C389 0.983 . S
H418 C362 0.947 . S
C419 C362 1.392 . S
C419 C363 1.419 . S
C419 H401 0.948 . S
C420 C421 1.391 . S
C420 C424 1.391 . S
C420 H462 0.948 . S
C421 C420 1.391 . S
C421 C422 1.391 . S
C422 C421 1.391 . S
C422 H478 0.947 . S
C422 C479 1.392 . S
C423 C424 1.391 . S
C423 C427 1.397 . S
C423 C479 1.419 . S
C424 C420 1.391 . S
C424 C423 1.391 . S
C424 C425 1.399 . S
C425 C424 1.399 . S
C425 C428 1.396 . S
C425 C437 1.453 . S
C425 C438 1.684 . S
H426 C450 0.948 . S
C427 C423 1.397 . S
C427 C428 1.394 . S
C427 C446 1.723 . S
C428 C425 1.396 . S
C428 C427 1.394 . S
C428 C458 1.723 . S
H429 C452 0.947 . S
H430 C453 0.948 . S
H431 C459 0.982 . S
H432 C460 0.979 . S
H433 C460 0.980 . S
H434 C460 0.983 . S
H435 C459 0.979 . S
H436 C459 0.977 . S
C437 C425 1.453 . S
C437 H466 0.982 . S
C437 H467 0.979 . S
C437 H468 0.977 . S
C438 C425 1.684 . S
C438 H463 0.979 . S
C438 H464 0.980 . S
C438 H465 0.983 . S
C439 C440 1.391 1_554 S
C439 C444 1.391 . S
C439 H469 0.948 1_554 S
C440 C439 1.391 1_556 S
C440 C441 1.388 1_556 S
C441 C440 1.388 1_554 S
C441 C442 1.399 . S
C441 H470 0.943 1_554 S
C442 C441 1.399 . S
C442 C443 1.419 . S
C442 H471 0.948 . S
C443 C442 1.419 . S
C443 C444 1.391 . S
C443 C447 1.397 . S
C444 C439 1.391 . S
C444 C443 1.391 . S
C444 C445 1.399 . S
C445 C444 1.399 . S
C445 C446 1.396 . S
C445 C448 1.453 . S
C445 C449 1.684 . S
C446 C427 1.723 . S
C446 C445 1.396 . S
C446 C447 1.394 . S
C447 C443 1.397 . S
C447 C446 1.394 . S
C447 C457 1.723 . S
C448 C445 1.453 . S
C448 H472 0.982 . S
C448 H473 0.979 . S
C448 H474 0.977 . S
C449 C445 1.684 . S
C449 H475 0.979 . S
C449 H476 0.980 . S
C449 H477 0.983 . S
C450 H426 0.948 . S
C450 C451 1.391 . S
C450 C455 1.391 . S
C451 C450 1.391 . S
C451 C452 1.391 . S
C452 H429 0.947 . S
C452 C451 1.391 . S
C452 C453 1.392 . S
C453 H430 0.948 . S
C453 C452 1.392 . S
C453 C454 1.419 . S
C454 C453 1.419 . S
C454 C455 1.391 . S
C454 C458 1.397 . S
C455 C450 1.391 . S
C455 C454 1.391 . S
C455 C456 1.399 . S
C456 C455 1.399 . S
C456 C457 1.396 . S
C456 C459 1.453 . S
C456 C460 1.684 . S
C457 C447 1.723 . S
C457 C456 1.396 . S
C457 C458 1.394 . S
C458 C428 1.723 . S
C458 C454 1.397 . S
C458 C457 1.394 . S
C459 H431 0.982 . S
C459 H435 0.979 . S
C459 H436 0.977 . S
C459 C456 1.453 . S
C460 H432 0.979 . S
C460 H433 0.980 . S
C460 H434 0.983 . S
C460 C456 1.684 . S
H461 C479 0.948 . S
H462 C420 0.948 . S
H463 C438 0.979 . S
H464 C438 0.980 . S
H465 C438 0.983 . S
H466 C437 0.982 . S
H467 C437 0.979 . S
H468 C437 0.977 . S
H469 C439 0.948 1_556 S
H470 C441 0.943 1_556 S
H471 C442 0.948 . S
H472 C448 0.982 . S
H473 C448 0.979 . S
H474 C448 0.977 . S
H475 C449 0.979 . S
H476 C449 0.980 . S
H477 C449 0.983 . S
H478 C422 0.947 . S
C479 C422 1.392 . S
C479 C423 1.419 . S
C479 H461 0.948 . S
H480 C486 0.930 . S
H481 C489 0.930 . S
H482 C490 0.930 . S
H483 C491 0.930 . S
H484 C494 0.930 . S
H485 C495 0.930 . S
C486 H480 0.930 . S
C486 C487 1.355 . S
C486 C488 1.415 . S
C487 C486 1.355 . S
C487 C489 1.419 . S
C488 C486 1.415 . S
C488 C493 1.425 . S
C488 C495 1.409 . S
C489 H481 0.930 . S
C489 C487 1.419 . S
C489 C490 1.362 . S
C490 H482 0.930 . S
C490 C489 1.362 . S
C490 C493 1.409 . S
C491 H483 0.930 . S
C491 C492 1.355 . S
C491 C493 1.415 . S
C492 C491 1.355 . S
C492 C494 1.419 . S
C493 C488 1.425 . S
C493 C490 1.409 . S
C493 C491 1.415 . S
C494 H484 0.930 . S
C494 C492 1.419 . S
C494 C495 1.362 . S
C495 H485 0.930 . S
C495 C488 1.409 . S
C495 C494 1.362 . S
H496 C502 0.930 . S
H497 C505 0.930 . S
H498 C506 0.930 . S
H499 C507 0.930 . S
H500 C510 0.930 . S
H501 C511 0.930 . S
C502 H496 0.930 . S
C502 C503 1.355 . S
C502 C504 1.415 . S
C503 C502 1.355 . S
C503 C505 1.419 . S
C504 C502 1.415 . S
C504 C509 1.425 . S
C504 C511 1.409 . S
C505 H497 0.930 . S
C505 C503 1.419 . S
C505 C506 1.362 . S
C506 H498 0.930 . S
C506 C505 1.362 . S
C506 C509 1.409 . S
C507 H499 0.930 . S
C507 C508 1.355 . S
C507 C509 1.415 . S
C508 C507 1.355 . S
C508 C510 1.419 . S
C509 C504 1.425 . S
C509 C506 1.409 . S
C509 C507 1.415 . S
C510 H500 0.930 . S
C510 C508 1.419 . S
C510 C511 1.362 . S
C511 H501 0.930 . S
C511 C504 1.409 . S
C511 C510 1.362 . S
H512 C518 0.930 . S
H513 C521 0.930 . S
H514 C522 0.930 . S
H515 C523 0.930 . S
H516 C526 0.930 . S
H517 C527 0.930 . S
C518 H512 0.930 . S
C518 C519 1.355 . S
C518 C520 1.415 . S
C519 C518 1.355 . S
C519 C521 1.419 . S
C520 C518 1.415 . S
C520 C525 1.425 . S
C520 C527 1.409 . S
C521 H513 0.930 . S
C521 C519 1.419 . S
C521 C522 1.362 . S
C522 H514 0.930 . S
C522 C521 1.362 . S
C522 C525 1.409 . S
C523 H515 0.930 . S
C523 C524 1.355 . S
C523 C525 1.415 . S
C524 C523 1.355 . S
C524 C526 1.419 . S
C525 C520 1.425 . S
C525 C522 1.409 . S
C525 C523 1.415 . S
C526 H516 0.930 . S
C526 C524 1.419 . S
C526 C527 1.362 . S
C527 H517 0.930 . S
C527 C520 1.409 . S
C527 C526 1.362 . S
H528 C534 0.930 . S
H529 C537 0.930 . S
H530 C538 0.930 . S
H531 C539 0.930 . S
H532 C542 0.930 . S
H533 C543 0.930 . S
C534 H528 0.930 . S
C534 C535 1.355 . S
C534 C536 1.415 . S
C535 C534 1.355 . S
C535 C537 1.419 . S
C536 C534 1.415 . S
C536 C541 1.425 . S
C536 C543 1.409 . S
C537 H529 0.930 . S
C537 C535 1.419 . S
C537 C538 1.362 . S
C538 H530 0.930 . S
C538 C537 1.362 . S
C538 C541 1.409 . S
C539 H531 0.930 . S
C539 C540 1.355 . S
C539 C541 1.415 . S
C540 C539 1.355 . S
C540 C542 1.419 . S
C541 C536 1.425 . S
C541 C538 1.409 . S
C541 C539 1.415 . S
C542 H532 0.930 . S
C542 C540 1.419 . S
C542 C543 1.362 . S
C543 H533 0.930 . S
C543 C536 1.409 . S
C543 C542 1.362 . S
H544 C550 0.930 . S
H545 C553 0.930 . S
H546 C554 0.930 . S
H547 C555 0.930 . S
H548 C558 0.930 . S
H549 C559 0.930 . S
C550 H544 0.930 . S
C550 C551 1.355 . S
C550 C552 1.415 . S
C551 C550 1.355 . S
C551 C553 1.419 . S
C552 C550 1.415 . S
C552 C557 1.425 . S
C552 C559 1.409 . S
C553 H545 0.930 . S
C553 C551 1.419 . S
C553 C554 1.362 . S
C554 H546 0.930 . S
C554 C553 1.362 . S
C554 C557 1.409 . S
C555 H547 0.930 . S
C555 C556 1.355 . S
C555 C557 1.415 . S
C556 C555 1.355 . S
C556 C558 1.419 . S
C557 C552 1.425 . S
C557 C554 1.409 . S
C557 C555 1.415 . S
C558 H548 0.930 . S
C558 C556 1.419 . S
C558 C559 1.362 . S
C559 H549 0.930 . S
C559 C552 1.409 . S
C559 C558 1.362 . S
H560 C566 0.930 . S
H561 C569 0.930 . S
H562 C570 0.930 . S
H563 C571 0.930 . S
H564 C574 0.930 . S
H565 C575 0.930 . S
C566 H560 0.930 . S
C566 C567 1.355 . S
C566 C568 1.415 . S
C567 C566 1.355 . S
C567 C569 1.419 . S
C568 C566 1.415 . S
C568 C573 1.425 . S
C568 C575 1.409 . S
C569 H561 0.930 . S
C569 C567 1.419 . S
C569 C570 1.362 . S
C570 H562 0.930 . S
C570 C569 1.362 . S
C570 C573 1.409 . S
C571 H563 0.930 . S
C571 C572 1.355 . S
C571 C573 1.415 . S
C572 C571 1.355 . S
C572 C574 1.419 . S
C573 C568 1.425 . S
C573 C570 1.409 . S
C573 C571 1.415 . S
C574 H564 0.930 . S
C574 C572 1.419 . S
C574 C575 1.362 . S
C575 H565 0.930 . S
C575 C568 1.409 . S
C575 C574 1.362 . S
H576 C582 0.930 . S
H577 C585 0.930 . S
H578 C586 0.930 . S
H579 C587 0.930 . S
H580 C590 0.930 . S
H581 C591 0.930 . S
C582 H576 0.930 . S
C582 C583 1.355 . S
C582 C584 1.415 . S
C583 C582 1.355 . S
C583 C585 1.419 . S
C584 C582 1.415 . S
C584 C589 1.425 . S
C584 C591 1.409 . S
C585 H577 0.930 . S
C585 C583 1.419 . S
C585 C586 1.362 . S
C586 H578 0.930 . S
C586 C585 1.362 . S
C586 C589 1.409 . S
C587 H579 0.930 . S
C587 C588 1.355 . S
C587 C589 1.415 . S
C588 C587 1.355 . S
C588 C590 1.419 . S
C589 C584 1.425 . S
C589 C586 1.409 . S
C589 C587 1.415 . S
C590 H580 0.930 . S
C590 C588 1.419 . S
C590 C591 1.362 . S
C591 H581 0.930 . S
C591 C584 1.409 . S
C591 C590 1.362 . S
H592 C598 0.930 . S
H593 C601 0.930 . S
H594 C602 0.930 . S
H595 C603 0.930 . S
H596 C606 0.930 . S
H597 C607 0.930 . S
C598 H592 0.930 . S
C598 C599 1.355 . S
C598 C600 1.415 . S
C599 C598 1.355 . S
C599 C601 1.419 . S
C600 C598 1.415 . S
C600 C605 1.425 . S
C600 C607 1.409 . S
C601 H593 0.930 . S
C601 C599 1.419 . S
C601 C602 1.362 . S
C602 H594 0.930 . S
C602 C601 1.362 . S
C602 C605 1.409 . S
C603 H595 0.930 . S
C603 C604 1.355 . S
C603 C605 1.415 . S
C604 C603 1.355 . S
C604 C606 1.419 . S
C605 C600 1.425 . S
C605 C602 1.409 . S
C605 C603 1.415 . S
C606 H596 0.930 . S
C606 C604 1.419 . S
C606 C607 1.362 . S
C607 H597 0.930 . S
C607 C600 1.409 . S
C607 C606 1.362 . S
H608 C614 0.930 . S
H609 C617 0.930 . S
H610 C618 0.930 . S
H611 C619 0.930 . S
H612 C622 0.930 . S
H613 C623 0.930 . S
C614 H608 0.930 . S
C614 C615 1.355 . S
C614 C616 1.415 . S
C615 C614 1.355 . S
C615 C617 1.419 . S
C616 C614 1.415 . S
C616 C621 1.425 . S
C616 C623 1.409 . S
C617 H609 0.930 . S
C617 C615 1.419 . S
C617 C618 1.362 . S
C618 H610 0.930 . S
C618 C617 1.362 . S
C618 C621 1.409 . S
C619 H611 0.930 . S
C619 C620 1.355 . S
C619 C621 1.415 . S
C620 C619 1.355 . S
C620 C622 1.419 . S
C621 C616 1.425 . S
C621 C618 1.409 . S
C621 C619 1.415 . S
C622 H612 0.930 . S
C622 C620 1.419 . S
C622 C623 1.362 . S
C623 H613 0.930 . S
C623 C616 1.409 . S
C623 C622 1.362 . S
H624 C630 0.930 . S
H625 C633 0.930 . S
H626 C634 0.930 . S
H627 C635 0.930 . S
H628 C638 0.930 . S
H629 C639 0.930 . S
C630 H624 0.930 . S
C630 C631 1.355 . S
C630 C632 1.415 . S
C631 C630 1.355 . S
C631 C633 1.419 . S
C632 C630 1.415 . S
C632 C637 1.425 . S
C632 C639 1.409 . S
C633 H625 0.930 . S
C633 C631 1.419 . S
C633 C634 1.362 . S
C634 H626 0.930 . S
C634 C633 1.362 . S
C634 C637 1.409 . S
C635 H627 0.930 . S
C635 C636 1.355 . S
C635 C637 1.415 . S
C636 C635 1.355 . S
C636 C638 1.419 . S
C637 C632 1.425 . S
C637 C634 1.409 . S
C637 C635 1.415 . S
C638 H628 0.930 . S
C638 C636 1.419 . S
C638 C639 1.362 . S
C639 H629 0.930 . S
C639 C632 1.409 . S
C639 C638 1.362 . S
H640 C646 0.930 . S
H641 C649 0.930 . S
H642 C650 0.930 . S
H643 C651 0.930 . S
H644 C654 0.930 . S
H645 C655 0.930 . S
C646 H640 0.930 . S
C646 C647 1.355 . S
C646 C648 1.415 . S
C647 C646 1.355 . S
C647 C649 1.419 . S
C648 C646 1.415 . S
C648 C653 1.425 . S
C648 C655 1.409 . S
C649 H641 0.930 . S
C649 C647 1.419 . S
C649 C650 1.362 . S
C650 H642 0.930 . S
C650 C649 1.362 . S
C650 C653 1.409 . S
C651 H643 0.930 . S
C651 C652 1.355 . S
C651 C653 1.415 . S
C652 C651 1.355 . S
C652 C654 1.419 . S
C653 C648 1.425 . S
C653 C650 1.409 . S
C653 C651 1.415 . S
C654 H644 0.930 . S
C654 C652 1.419 . S
C654 C655 1.362 . S
C655 H645 0.930 . S
C655 C648 1.409 . S
C655 C654 1.362 . S
H656 C662 0.930 . S
H657 C665 0.930 . S
H658 C666 0.930 . S
H659 C667 0.930 . S
H660 C670 0.930 . S
H661 C671 0.930 . S
C662 H656 0.930 . S
C662 C663 1.355 . S
C662 C664 1.415 . S
C663 C662 1.355 . S
C663 C665 1.419 . S
C664 C662 1.415 . S
C664 C669 1.425 . S
C664 C671 1.409 . S
C665 H657 0.930 . S
C665 C663 1.419 . S
C665 C666 1.362 . S
C666 H658 0.930 . S
C666 C665 1.362 . S
C666 C669 1.409 . S
C667 H659 0.930 . S
C667 C668 1.355 . S
C667 C669 1.415 . S
C668 C667 1.355 . S
C668 C670 1.419 . S
C669 C664 1.425 . S
C669 C666 1.409 . S
C669 C667 1.415 . S
C670 H660 0.930 . S
C670 C668 1.419 . S
C670 C671 1.362 . S
C671 H661 0.930 . S
C671 C664 1.409 . S
C671 C670 1.362 . S
H672 C678 0.930 1_655 S
H673 C681 0.930 . S
H674 C682 0.930 . S
H675 C683 0.930 . S
H676 C686 0.930 1_655 S
H677 C687 0.930 . S
C678 H672 0.930 1_455 S
C678 C679 1.355 . S
C678 C680 1.415 . S
C679 C678 1.355 . S
C679 C681 1.419 . S
C680 C678 1.415 . S
C680 C685 1.425 . S
C680 C687 1.409 1_455 S
C681 H673 0.930 . S
C681 C679 1.419 . S
C681 C682 1.362 . S
C682 H674 0.930 . S
C682 C681 1.362 . S
C682 C685 1.409 . S
C683 H675 0.930 . S
C683 C684 1.355 . S
C683 C685 1.415 . S
C684 C683 1.355 . S
C684 C686 1.420 . S
C685 C680 1.425 . S
C685 C682 1.409 . S
C685 C683 1.415 . S
C686 H676 0.930 1_455 S
C686 C684 1.420 . S
C686 C687 1.362 1_455 S
C687 H677 0.930 . S
C687 C680 1.409 1_655 S
C687 C686 1.362 1_655 S
H688 C694 0.930 . S
H689 C697 0.930 . S
H690 C698 0.930 . S
H691 C699 0.930 . S
H692 C702 0.930 . S
H693 C703 0.930 . S
C694 H688 0.930 . S
C694 C695 1.355 1_565 S
C694 C696 1.415 . S
C695 C694 1.355 1_545 S
C695 C697 1.419 . S
C696 C694 1.415 . S
C696 C701 1.425 1_565 S
C696 C703 1.409 . S
C697 H689 0.930 . S
C697 C695 1.419 . S
C697 C698 1.362 . S
C698 H690 0.930 . S
C698 C697 1.362 . S
C698 C701 1.409 . S
C699 H691 0.930 . S
C699 C700 1.355 . S
C699 C701 1.415 . S
C700 C699 1.355 . S
C700 C702 1.419 1_545 S
C701 C696 1.425 1_545 S
C701 C698 1.409 . S
C701 C699 1.415 . S
C702 H692 0.930 . S
C702 C700 1.419 1_565 S
C702 C703 1.362 . S
C703 H693 0.930 . S
C703 C696 1.409 . S
C703 C702 1.362 . S
H704 C710 0.930 . S
H705 C713 0.930 . S
H706 C714 0.930 . S
H707 C715 0.930 . S
H708 C718 0.930 . S
H709 C719 0.930 . S
C710 H704 0.930 . S
C710 C711 1.355 . S
C710 C712 1.415 . S
C711 C710 1.355 . S
C711 C713 1.419 . S
C712 C710 1.415 . S
C712 C717 1.425 . S
C712 C719 1.409 . S
C713 H705 0.930 . S
C713 C711 1.419 . S
C713 C714 1.362 . S
C714 H706 0.930 . S
C714 C713 1.362 . S
C714 C717 1.409 . S
C715 H707 0.930 . S
C715 C716 1.355 . S
C715 C717 1.415 . S
C716 C715 1.355 . S
C716 C718 1.419 . S
C717 C712 1.425 . S
C717 C714 1.409 . S
C717 C715 1.415 . S
C718 H708 0.930 . S
C718 C716 1.419 . S
C718 C719 1.362 . S
C719 H709 0.930 . S
C719 C712 1.409 . S
C719 C718 1.362 . S
H720 C726 0.930 . S
H721 C729 0.930 . S
H722 C730 0.930 . S
H723 C731 0.930 . S
H724 C734 0.930 . S
H725 C735 0.930 . S
C726 H720 0.930 . S
C726 C727 1.367 . S
C726 C728 1.415 . S
C727 C726 1.367 . S
C727 C729 1.403 1_545 S
C728 C726 1.415 . S
C728 C733 1.425 1_545 S
C728 C735 1.409 . S
C729 H721 0.930 . S
C729 C727 1.403 1_565 S
C729 C730 1.362 . S
C730 H722 0.930 . S
C730 C729 1.362 . S
C730 C733 1.409 . S
C731 H723 0.930 . S
C731 C732 1.355 . S
C731 C733 1.415 . S
C732 C731 1.355 . S
C732 C734 1.419 1_565 S
C733 C728 1.425 1_565 S
C733 C730 1.409 . S
C733 C731 1.415 . S
C734 H724 0.930 . S
C734 C732 1.419 1_545 S
C734 C735 1.362 . S
C735 H725 0.930 . S
C735 C728 1.409 . S
C735 C734 1.362 . S
H736 C742 0.930 . S
H737 C745 0.930 . S
H738 C746 0.930 . S
H739 C747 0.930 . S
H740 C750 0.930 . S
H741 C751 0.930 . S
C742 H736 0.930 . S
C742 C743 1.355 . S
C742 C744 1.415 . S
C743 C742 1.355 . S
C743 C745 1.419 . S
C744 C742 1.415 . S
C744 C749 1.425 . S
C744 C751 1.409 . S
C745 H737 0.930 . S
C745 C743 1.419 . S
C745 C746 1.362 . S
C746 H738 0.930 . S
C746 C745 1.362 . S
C746 C749 1.409 . S
C747 H739 0.930 . S
C747 C748 1.355 . S
C747 C749 1.415 . S
C748 C747 1.355 . S
C748 C750 1.419 . S
C749 C744 1.425 . S
C749 C746 1.409 . S
C749 C747 1.415 . S
C750 H740 0.930 . S
C750 C748 1.419 . S
C750 C751 1.362 . S
C751 H741 0.930 . S
C751 C744 1.409 . S
C751 C750 1.362 . S
H752 C758 0.930 . S
H753 C761 0.930 . S
H754 C762 0.930 . S
H755 C763 0.930 . S
H756 C766 0.930 . S
H757 C767 0.930 . S
C758 H752 0.930 . S
C758 C759 1.355 . S
C758 C760 1.415 . S
C759 C758 1.355 . S
C759 C761 1.419 1_455 S
C760 C758 1.415 . S
C760 C765 1.425 1_455 S
C760 C767 1.409 . S
C761 H753 0.930 . S
C761 C759 1.419 1_655 S
C761 C762 1.362 . S
C762 H754 0.930 . S
C762 C761 1.362 . S
C762 C765 1.409 . S
C763 H755 0.930 . S
C763 C764 1.355 1_655 S
C763 C765 1.415 . S
C764 C763 1.355 1_455 S
C764 C766 1.419 . S
C765 C760 1.425 1_655 S
C765 C762 1.409 . S
C765 C763 1.415 . S
C766 H756 0.930 . S
C766 C764 1.419 . S
C766 C767 1.362 . S
C767 H757 0.930 . S
C767 C760 1.409 . S
C767 C766 1.362 . S
C487 C6 0.663 . S
C492 C451 0.672 . S
C503 C59 1.946 . S
C508 C301 1.767 . S
C519 C86 1.265 . S
C524 C361 1.290 . S
C535 C15 0.417 . S
C540 C421 0.543 . S
C556 C331 2.060 . S
C551 C50 2.072 . S
C572 C391 1.340 . S
C567 C95 1.300 . S
C583 C46 1.257 . S
C588 C181 1.169 . S
C599 C99 3.135 . S
C604 C271 3.123 . S
C615 C10 2.096 . S
C620 C151 2.129 . S
C636 C211 1.336 . S
C631 C55 1.342 . S
C652 C241 2.875 . S
C647 C90 3.049 . S
C663 C19 1.941 . S
C668 C121 1.793 . S
C684 C260 1.752 1_554 S
C679 C18 1.704 . S
C695 C49 1.310 . S
C700 C140 1.311 . S
C711 C98 1.434 . S
C716 C200 1.478 . S
C732 C380 1.431 . S
C727 C58 1.469 . S
C748 C440 1.050 . S
C743 C89 1.089 . S
C759 C9 1.326 . S
C764 C320 1.308 . S
