# Generated by pormake.
# Topology pth, (4,4)-cn, num edge types: 1
# Building blocks:
#     Node 0, Type 0, BuildingBlock: TATPOV_clean_sbu_0, # of connection points: 4
#     Node 1, Type 0, BuildingBlock: TATPOV_clean_sbu_0, # of connection points: 4
#     Node 2, Type 0, BuildingBlock: TATPOV_clean_sbu_0, # of connection points: 4
#     Node 3, Type 1, BuildingBlock: MIFKUJ_clean_linker_1, # of connection points: 4
#     Node 4, Type 1, BuildingBlock: MIFKUJ_clean_linker_1, # of connection points: 4
#     Node 5, Type 1, BuildingBlock: MIFKUJ_clean_linker_1, # of connection points: 4
#     Edge 6, Type (0, 1), BuildingBlock: ZUJKAS_clean_linker_0, # of connection points: 2
#     Edge 7, Type (0, 1), BuildingBlock: ZUJKAS_clean_linker_0, # of connection points: 2
#     Edge 8, Type (0, 1), BuildingBlock: ZUJKAS_clean_linker_0, # of connection points: 2
#     Edge 9, Type (0, 1), BuildingBlock: ZUJKAS_clean_linker_0, # of connection points: 2
#     Edge 10, Type (0, 1), BuildingBlock: ZUJKAS_clean_linker_0, # of connection points: 2
#     Edge 11, Type (0, 1), BuildingBlock: ZUJKAS_clean_linker_0, # of connection points: 2
#     Edge 12, Type (0, 1), BuildingBlock: ZUJKAS_clean_linker_0, # of connection points: 2
#     Edge 13, Type (0, 1), BuildingBlock: ZUJKAS_clean_linker_0, # of connection points: 2
#     Edge 14, Type (0, 1), BuildingBlock: ZUJKAS_clean_linker_0, # of connection points: 2
#     Edge 15, Type (0, 1), BuildingBlock: ZUJKAS_clean_linker_0, # of connection points: 2
#     Edge 16, Type (0, 1), BuildingBlock: ZUJKAS_clean_linker_0, # of connection points: 2
#     Edge 17, Type (0, 1), BuildingBlock: ZUJKAS_clean_linker_0, # of connection points: 2
# Relax obj value: 0.038
# Max RMSD: 0.160
# Mean RMSD: 0.089
data_MOF--net-pth--node1-TATPOV_clean_sbu_0--node2-MIFKUJ_clean_linker_1--edge1-ZUJKAS_clean_linker_0
_symmetry_space_group_name_H-M    P1
_symmetry_Int_Tables_number       1
_symmetry_cell_setting            triclinic
loop_
_symmetry_equiv_pos_as_xyz
'x, y, z'
_cell_length_a     37.094318
_cell_length_b     36.737346
_cell_length_c     77.868094
_cell_angle_alpha  92.481038
_cell_angle_beta   92.109512
_cell_angle_gamma 120.79921
loop_
_atom_site_label
_atom_site_type_symbol
_atom_site_fract_x
_atom_site_fract_y
_atom_site_fract_z
_atom_type_partial_charge
Zn0 Zn 0.1136 0.01544 0.03197 0.0
Zn1 Zn 0.0788 0.05463 0.04854 0.0
O2 O 0.08543 0.01964 0.06701 0.0
O3 O 0.11634 0.98959 0.05401 0.0
O4 O 0.05794 0.08832 0.06135 0.0
O5 O 0.16205 0.07138 0.02564 0.0
O6 O 0.1319 0.10224 0.03858 0.0
C7 C 0.10075 0.99553 0.06729 0.0
C8 C 0.0295 0.99127 0.01807 0.0
O9 O 0.03181 0.01716 0.03011 0.0
O10 O 0.05999 0.98536 0.01619 0.0
C11 C 0.02921 0.07302 0.07188 0.0
O12 O 0.01074 0.03246 0.07459 0.0
C13 C 0.16149 0.10471 0.02993 0.0
Zn14 Zn 0.12298 0.10065 0.35577 0.0
Zn15 Zn 0.05734 0.07248 0.37587 0.0
O16 O 0.10805 0.08726 0.39261 0.0
O17 O 0.16265 0.11452 0.37675 0.0
O18 O 0.01107 0.05908 0.39179 0.0
O19 O 0.11151 0.14451 0.34654 0.0
O20 O 0.05773 0.12012 0.36278 0.0
C21 C 0.14747 0.10382 0.39124 0.0
C22 C 0.05709 0.01128 0.34843 0.0
O23 O 0.03855 0.01845 0.36041 0.0
O24 O 0.09265 0.04063 0.34432 0.0
C25 C 0.97834 0.02317 0.39341 0.0
O26 O 0.97253 0.9895 0.38424 0.0
C27 C 0.08006 0.14547 0.35174 0.0
Zn28 Zn 0.07531 0.94507 0.72474 0.0
Zn29 Zn 0.0348 0.97493 0.70636 0.0
O30 O 0.06916 0.96506 0.68838 0.0
O31 O 0.10322 0.9415 0.70357 0.0
O32 O -0.00151 0.99063 0.69244 0.0
O33 O 0.02137 0.89506 0.7314 0.0
O34 O 0.98939 0.92318 0.71795 0.0
C35 C 0.09528 0.9523 0.68936 0.0
C36 C 0.09556 0.03025 0.73648 0.0
O37 O 0.07124 0.02625 0.7236 0.0
O38 O 0.10153 0.00013 0.7397 0.0
C39 C 0.00967 0.01402 0.67981 0.0
O40 O 0.04855 0.03133 0.67529 0.0
C41 C 0.98791 0.89463 0.72714 0.0
H42 H 0.01503 0.48106 0.17677 0.0
H43 H 0.02012 0.42616 0.16013 0.0
H44 H 0.90387 0.32978 0.17938 0.0
H45 H 0.89819 0.38502 0.19553 0.0
H46 H 0.96303 0.50788 0.17588 0.0
H47 H 0.01104 0.45146 0.21685 0.0
H48 H 0.0191 0.40353 0.23512 0.0
H49 H 0.90053 0.368 0.25649 0.0
H50 H 0.8923 0.41585 0.23793 0.0
H51 H 0.88487 0.52852 0.23516 0.0
H52 H 0.88409 0.58461 0.25307 0.0
H53 H 0.00974 0.67451 0.23941 0.0
H54 H 0.01048 0.61838 0.22171 0.0
H55 H 0.93952 0.49875 0.23823 0.0
H56 H 0.90623 0.57352 0.19522 0.0
H57 H 0.92362 0.63943 0.18199 0.0
H58 H 0.04176 0.65399 0.16798 0.0
H59 H 0.02487 0.58915 0.18169 0.0
C60 C 0.95636 0.4372 0.18748 0.0
C61 C 0.99044 0.44814 0.17729 0.0
C62 C 0.99354 0.41666 0.16793 0.0
C63 C 0.96253 0.37354 0.16851 0.0
C64 C 0.92811 0.36269 0.17854 0.0
C65 C 0.92502 0.39422 0.18791 0.0
C66 C 0.95381 0.47076 0.19776 0.0
C67 C 0.95793 0.50583 0.18952 0.0
C68 C 0.94777 0.46854 0.21563 0.0
C69 C 0.95072 0.43678 0.22579 0.0
C70 C 0.98623 0.43261 0.22514 0.0
C71 C 0.99087 0.40526 0.23563 0.0
C72 C 0.96039 0.38192 0.24721 0.0
C73 C 0.92466 0.38583 0.24778 0.0
C74 C 0.91987 0.41301 0.23715 0.0
C75 C 0.94744 0.56944 0.22689 0.0
C76 C 0.91219 0.56036 0.23603 0.0
C77 C 0.91181 0.59236 0.24626 0.0
C78 C 0.94672 0.634 0.24752 0.0
C79 C 0.98206 0.64292 0.23842 0.0
C80 C 0.98254 0.61088 0.22831 0.0
C81 C 0.94799 0.53525 0.21629 0.0
C82 C 0.94354 0.50008 0.2245 0.0
C83 C 0.95592 0.53852 0.19861 0.0
C84 C 0.9644 0.57659 0.18956 0.0
C85 C 0.93589 0.59101 0.18932 0.0
C86 C 0.94578 0.62855 0.18168 0.0
C87 C 0.98428 0.6522 0.17409 0.0
C88 C 0.01224 0.63704 0.17402 0.0
C89 C 0.00238 0.59965 0.18165 0.0
H90 H 0.63265 0.08766 0.51054 0.0
H91 H 0.68377 0.0841 0.4927 0.0
H92 H 0.65414 0.96533 0.51343 0.0
H93 H 0.60201 0.96832 0.53074 0.0
H94 H 0.55116 0.03886 0.51029 0.0
H95 H 0.66417 0.08401 0.5513 0.0
H96 H 0.72198 0.08471 0.5676 0.0
H97 H 0.63317 0.9681 0.58943 0.0
H98 H 0.57558 0.96661 0.57246 0.0
H99 H 0.45416 0.95424 0.56413 0.0
H100 H 0.39226 0.94533 0.57813 0.0
H101 H 0.43423 0.07739 0.57257 0.0
H102 H 0.49589 0.086 0.55834 0.0
H103 H 0.54518 0.01665 0.57278 0.0
H104 H 0.4319 0.97682 0.52858 0.0
H105 H 0.37923 0.98766 0.51388 0.0
H106 H 0.47796 0.10982 0.49953 0.0
H107 H 0.53014 0.0997 0.51512 0.0
C108 C 0.61372 0.02846 0.52209 0.0
C109 C 0.63714 0.06084 0.51122 0.0
C110 C 0.66661 0.05892 0.50114 0.0
C111 C 0.67314 0.02447 0.50167 0.0
C112 C 0.64962 0.99209 0.51259 0.0
C113 C 0.62012 0.994 0.52264 0.0
C114 C 0.5816 0.02991 0.53247 0.0
C115 C 0.5503 0.03462 0.524 0.0
C116 C 0.58047 0.02456 0.55039 0.0
C117 C 0.61551 0.02494 0.56046 0.0
C118 C 0.65716 0.05828 0.55943 0.0
C119 C 0.69019 0.05892 0.56893 0.0
C120 C 0.68228 0.02646 0.57984 0.0
C121 C 0.64048 0.99328 0.58097 0.0
C122 C 0.60745 0.99257 0.57139 0.0
C123 C 0.47945 0.02073 0.56022 0.0
C124 C 0.45018 0.98133 0.56608 0.0
C125 C 0.41474 0.9762 0.5739 0.0
C126 C 0.40843 0.01062 0.57629 0.0
C127 C 0.43846 0.05041 0.57089 0.0
C128 C 0.47359 0.05536 0.56281 0.0
C129 C 0.51465 0.02472 0.55049 0.0
C130 C 0.5464 0.02103 0.55908 0.0
C131 C 0.51697 0.03235 0.53281 0.0
C132 C 0.48492 0.03776 0.5232 0.0
C133 C 0.44212 0.00618 0.52247 0.0
C134 C 0.41206 0.01224 0.51388 0.0
C135 C 0.42426 0.04975 0.50558 0.0
C136 C 0.46729 0.08095 0.50607 0.0
C137 C 0.49726 0.075 0.5148 0.0
H138 H 0.48508 0.46035 0.84671 0.0
H139 H 0.42676 0.39993 0.8299 0.0
H140 H 0.33905 0.42684 0.85395 0.0
H141 H 0.39785 0.48809 0.87065 0.0
H142 H 0.51194 0.53891 0.84516 0.0
H143 H 0.46457 0.44463 0.88892 0.0
H144 H 0.42049 0.3947 0.90936 0.0
H145 H 0.39735 0.48961 0.93211 0.0
H146 H 0.44166 0.53962 0.91154 0.0
H147 H 0.55672 0.65781 0.90392 0.0
H148 H 0.61837 0.71655 0.92025 0.0
H149 H 0.69512 0.66806 0.90154 0.0
H150 H 0.63324 0.60898 0.88558 0.0
H151 H 0.52303 0.57161 0.90822 0.0
H152 H 0.58539 0.66722 0.86152 0.0
H153 H 0.64151 0.70911 0.84258 0.0
H154 H 0.64631 0.59729 0.82721 0.0
H155 H 0.59124 0.55608 0.84638 0.0
C156 C 0.44593 0.47891 0.85991 0.0
C157 C 0.45333 0.45336 0.84839 0.0
C158 C 0.42001 0.41891 0.83876 0.0
C159 C 0.37847 0.40908 0.84048 0.0
C160 C 0.37079 0.43373 0.85242 0.0
C161 C 0.40432 0.46859 0.86199 0.0
C162 C 0.48211 0.51764 0.8689 0.0
C163 C 0.51438 0.5458 0.85899 0.0
C164 C 0.48536 0.52686 0.88692 0.0
C165 C 0.45592 0.49569 0.89851 0.0
C166 C 0.44932 0.45446 0.89806 0.0
C167 C 0.42416 0.42594 0.90979 0.0
C168 C 0.40535 0.43817 0.92234 0.0
C169 C 0.41174 0.47939 0.92271 0.0
C170 C 0.43685 0.5079 0.91091 0.0
C171 C 0.59051 0.62931 0.89343 0.0
C172 C 0.58692 0.66006 0.90327 0.0
C173 C 0.62218 0.6937 0.91249 0.0
C174 C 0.66157 0.6969 0.91217 0.0
C175 C 0.66512 0.66623 0.90216 0.0
C176 C 0.62989 0.6327 0.89291 0.0
C177 C 0.55268 0.59245 0.88445 0.0
C178 C 0.52003 0.56483 0.89437 0.0
C179 C 0.55002 0.5825 0.86655 0.0
C180 C 0.58433 0.60861 0.85542 0.0
C181 C 0.59886 0.65192 0.85418 0.0
C182 C 0.63062 0.67568 0.84325 0.0
C183 C 0.64835 0.65648 0.83343 0.0
C184 C 0.63371 0.61313 0.83477 0.0
C185 C 0.602 0.58947 0.84562 0.0
H186 H 0.06232 0.15817 0.06941 0.0
H187 H 0.04636 0.20544 0.08605 0.0
H188 H 0.95485 0.09954 0.11252 0.0
H189 H 0.97099 0.0519 0.09606 0.0
H190 H 0.97033 0.20333 0.08855 0.0
H191 H 0.0319 0.18605 0.15193 0.0
H192 H 0.04288 0.1688 0.13177 0.0
H193 H 0.99267 0.13712 0.1405 0.0
C194 C 0.03875 0.14482 0.07875 0.0
C195 C 0.01812 0.10125 0.08148 0.0
C196 C 0.02964 0.17192 0.08824 0.0
C197 C -0.00013 0.15611 0.10068 0.0
C198 C 0.9785 0.11251 0.1032 0.0
H199 H 0.90023 0.30212 0.14996 0.0
H200 H 0.90697 0.24751 0.13376 0.0
C201 C 0.98761 0.08531 0.09371 0.0
C202 C 0.99158 0.18556 0.11102 0.0
H203 H 0.00015 0.22775 0.15197 0.0
C204 C 0.97666 0.20858 0.10243 0.0
C205 C 0.00037 0.19265 0.12909 0.0
C206 C 0.01818 0.17018 0.1389 0.0
C207 C 0.97039 0.23864 0.11141 0.0
C208 C 0.97871 0.24536 0.12951 0.0
C209 C 0.9935 0.22225 0.13811 0.0
C210 C 0.97407 0.27761 0.13967 0.0
C211 C 0.95614 0.26385 0.10141 0.0
C212 C 0.00933 0.312 0.14873 0.0
C213 C 0.00553 0.34298 0.15813 0.0
C214 C 0.96629 0.3401 0.15872 0.0
C215 C 0.93085 0.30518 0.14985 0.0
C216 C 0.93471 0.27418 0.14044 0.0
H217 H 0.96051 0.26191 0.08743 0.0
H218 H 0.92219 0.25104 0.10296 0.0
H219 H 0.97364 0.29779 0.10631 0.0
H220 H 0.03995 0.31508 0.14839 0.0
H221 H 0.0333 0.36904 0.16506 0.0
H222 H 0.981 0.0871 0.41371 0.0
H223 H 0.92752 0.08293 0.43221 0.0
H224 H 0.84948 0.94874 0.41796 0.0
H225 H 0.90315 0.95243 0.39947 0.0
H226 H 0.84392 0.05664 0.42169 0.0
H227 H 0.85194 0.95546 0.47099 0.0
H228 H 0.89278 0.9822 0.45634 0.0
H229 H 0.84444 0.93464 0.44899 0.0
C230 C 0.95264 0.05656 0.41458 0.0
C231 C 0.9464 0.02005 0.40511 0.0
C232 C 0.92208 0.05429 0.42515 0.0
C233 C 0.88476 0.01548 0.42658 0.0
C234 C 0.87841 0.97887 0.41726 0.0
H235 H 0.66456 0.95458 0.48348 0.0
H236 H 0.71498 0.95123 0.46503 0.0
C237 C 0.90902 0.98109 0.40663 0.0
C238 C 0.85198 0.01406 0.43733 0.0
H239 H 0.79935 0.97332 0.47329 0.0
C240 C 0.83416 0.03843 0.43298 0.0
C241 C 0.8392 0.99008 0.45197 0.0
C242 C 0.85823 0.96433 0.4575 0.0
C243 C 0.80389 0.03955 0.44289 0.0
C244 C 0.79168 0.01624 0.45773 0.0
C245 C 0.80891 0.99124 0.46192 0.0
C246 C 0.76165 0.01814 0.46922 0.0
C247 C 0.78488 0.0653 0.4373 0.0
C248 C 0.77158 0.05673 0.47792 0.0
C249 C 0.74299 0.05874 0.48852 0.0
C250 C 0.70397 0.02211 0.49071 0.0
C251 C 0.69448 0.9833 0.48221 0.0
C252 C 0.72314 0.98134 0.4716 0.0
H253 H 0.78912 0.07189 0.4235 0.0
H254 H 0.75076 0.04864 0.43938 0.0
H255 H 0.80059 0.09622 0.44506 0.0
H256 H 0.80155 0.08532 0.47654 0.0
H257 H 0.75161 0.08894 0.49514 0.0
H258 H 0.91316 0.89298 0.72556 0.0
H259 H 0.85199 0.85009 0.74199 0.0
H260 H 0.91147 0.78453 0.76191 0.0
H261 H 0.97289 0.82746 0.74576 0.0
H262 H 0.79653 0.76022 0.74405 0.0
H263 H 0.89287 0.84065 0.80514 0.0
H264 H 0.91016 0.86045 0.78436 0.0
H265 H 0.91411 0.81663 0.79147 0.0
C266 C 0.91297 0.86896 0.73321 0.0
C267 C 0.94818 0.86407 0.73455 0.0
C268 C 0.87801 0.84453 0.74259 0.0
C269 C 0.87775 0.81491 0.75343 0.0
C270 C 0.91155 0.80793 0.75389 0.0
H271 H 0.72009 0.65463 0.8291 0.0
H272 H 0.77392 0.69305 0.80896 0.0
C273 C 0.94653 0.83238 0.74458 0.0
C274 C 0.84343 0.7931 0.76507 0.0
H275 H 0.82411 0.78222 0.80762 0.0
C276 C 0.80239 0.76511 0.75795 0.0
C277 C 0.8513 0.79994 0.78318 0.0
C278 C 0.8944 0.83133 0.79154 0.0
C279 C 0.76912 0.74263 0.76853 0.0
C280 C 0.77722 0.74893 0.78664 0.0
C281 C 0.81813 0.7774 0.79372 0.0
C282 C 0.74399 0.72546 0.79854 0.0
C283 C 0.72587 0.71148 0.76029 0.0
C284 C 0.7097 0.7315 0.7995 0.0
C285 C 0.6788 0.70952 0.81099 0.0
C286 C 0.6818 0.68118 0.8217 0.0
C287 C 0.71658 0.67575 0.82084 0.0
C288 C 0.74742 0.69778 0.80941 0.0
H289 H 0.72677 0.70373 0.74642 0.0
H290 H 0.71105 0.68158 0.76699 0.0
H291 H 0.70564 0.7255 0.76134 0.0
H292 H 0.70692 0.75334 0.79142 0.0
H293 H 0.65225 0.71416 0.81128 0.0
H294 H 0.05068 0.98227 0.09417 0.0
H295 H 0.03308 0.92989 0.11562 0.0
H296 H 0.12171 0.89887 0.0956 0.0
H297 H 0.13891 0.95045 0.07396 0.0
H298 H 0.04247 0.82966 0.09618 0.0
H299 H 0.09202 0.92239 0.1596 0.0
H300 H 0.05938 0.93298 0.1456 0.0
H301 H 0.11094 0.94662 0.13963 0.0
C302 C 0.0672 0.96507 0.09461 0.0
C303 C 0.09596 0.97028 0.08227 0.0
C304 C 0.05719 0.93522 0.10693 0.0
C305 C 0.07618 0.91057 0.10723 0.0
C306 C 0.10664 0.91752 0.09556 0.0
H307 H 0.06053 0.72636 0.17621 0.0
H308 H 0.08056 0.78985 0.16073 0.0
C309 C 0.11646 0.94706 0.08321 0.0
C310 C 0.06116 0.87433 0.11828 0.0
H311 H 0.05066 0.84716 0.15999 0.0
C312 C 0.04432 0.83351 0.11014 0.0
C313 C 0.0637 0.87948 0.13647 0.0
C314 C 0.08281 0.92274 0.1459 0.0
C315 C 0.03012 0.79768 0.11966 0.0
C316 C 0.03197 0.80265 0.13784 0.0
C317 C 0.04885 0.84345 0.14603 0.0
C318 C 0.01849 0.76591 0.14847 0.0
C319 C 0.01427 0.75493 0.11017 0.0
C320 C 0.97668 0.73186 0.14704 0.0
C321 C 0.96521 0.69531 0.15571 0.0
C322 C 0.99536 0.69228 0.16604 0.0
C323 C 0.03676 0.72733 0.16807 0.0
C324 C 0.04819 0.7638 0.15937 0.0
H325 H 0.02387 0.75802 0.09671 0.0
H326 H 0.02615 0.73666 0.11688 0.0
H327 H 0.97939 0.73638 0.10969 0.0
H328 H 0.95316 0.73316 0.13886 0.0
H329 H 0.93311 0.66889 0.15384 0.0
H330 H 0.23333 0.14771 0.39436 0.0
H331 H 0.27847 0.14201 0.41637 0.0
H332 H 0.16955 0.05841 0.44321 0.0
H333 H 0.12408 0.06466 0.42141 0.0
H334 H 0.23924 0.11481 0.46545 0.0
H335 H 0.28134 0.03226 0.41595 0.0
H336 H 0.29285 0.08395 0.4105 0.0
H337 H 0.23914 0.04248 0.41223 0.0
C338 C 0.21897 0.12864 0.40508 0.0
C339 C 0.17505 0.10615 0.40601 0.0
C340 C 0.24482 0.12527 0.41761 0.0
C341 C 0.22722 0.0989 0.43115 0.0
C342 C 0.18369 0.07865 0.43276 0.0
H343 H 0.35414 0.99054 0.48568 0.0
H344 H 0.30345 0.00147 0.46935 0.0
C345 C 0.15777 0.0823 0.4203 0.0
C346 C 0.25389 0.09025 0.44288 0.0
H347 H 0.31942 0.05067 0.44315 0.0
C348 C 0.25671 0.10068 0.46063 0.0
C349 C 0.27589 0.07093 0.43657 0.0
C350 C 0.27191 0.05633 0.4178 0.0
C351 C 0.28185 0.09325 0.4722 0.0
C352 C 0.3053 0.07566 0.46576 0.0
C353 C 0.30171 0.06446 0.44806 0.0
C354 C 0.33398 0.0686 0.47702 0.0
C355 C 0.28247 0.10364 0.4912 0.0
C356 C 0.36793 0.10266 0.48684 0.0
C357 C 0.3967 0.09639 0.4964 0.0
C358 C 0.39243 0.05602 0.49615 0.0
C359 C 0.35812 0.0219 0.48641 0.0
C360 C 0.32923 0.02815 0.47696 0.0
H361 H 0.25394 0.10444 0.49442 0.0
H362 H 0.28464 0.08015 0.49901 0.0
H363 H 0.31028 0.13551 0.49494 0.0
H364 H 0.3728 0.13434 0.4868 0.0
H365 H 0.42244 0.12328 0.50391 0.0
H366 H 0.13496 0.0422 0.76814 0.0
H367 H 0.17592 0.10831 0.78605 0.0
H368 H 0.14873 0.17498 0.74827 0.0
H369 H 0.10658 0.10832 0.7303 0.0
H370 H 0.24618 0.1771 0.77652 0.0
H371 H 0.12811 0.22056 0.79331 0.0
H372 H 0.11352 0.16805 0.78463 0.0
H373 H 0.12968 0.21063 0.77064 0.0
C374 C 0.13723 0.07078 0.76367 0.0
C375 C 0.11772 0.07007 0.74773 0.0
C376 C 0.1606 0.10854 0.77397 0.0
C377 C 0.16514 0.1465 0.76857 0.0
C378 C 0.14496 0.14588 0.75284 0.0
H379 H 0.37561 0.39269 0.8059 0.0
H380 H 0.32156 0.33063 0.78812 0.0
C381 C 0.12113 0.10785 0.74254 0.0
C382 C 0.19403 0.18692 0.7788 0.0
H383 H 0.1999 0.27215 0.80112 0.0
C384 C 0.23601 0.19783 0.78191 0.0
C385 C 0.18057 0.21369 0.78595 0.0
C386 C 0.13543 0.20258 0.78363 0.0
C387 C 0.26498 0.23476 0.79195 0.0
C388 C 0.25188 0.26214 0.79872 0.0
C389 C 0.20985 0.25122 0.79575 0.0
C390 C 0.2817 0.30199 0.80905 0.0
C391 C 0.30918 0.24366 0.79549 0.0
C392 C 0.27619 0.30727 0.82653 0.0
C393 C 0.30698 0.34288 0.83672 0.0
C394 C 0.3437 0.37353 0.82954 0.0
C395 C 0.34803 0.36908 0.81184 0.0
C396 C 0.31719 0.33375 0.80167 0.0
H397 H 0.31103 0.21462 0.79317 0.0
H398 H 0.33035 0.26754 0.78678 0.0
H399 H 0.32099 0.25664 0.80899 0.0
H400 H 0.24888 0.28309 0.83242 0.0
H401 H 0.3029 0.34557 0.85032 0.0
H402 H 0.92612 0.97869 0.68488 0.0
H403 H 0.87334 0.98444 0.66755 0.0
H404 H 0.96872 0.06781 0.63491 0.0
H405 H 0.02184 0.06163 0.65203 0.0
H406 H 0.86733 0.05389 0.66059 0.0
H407 H 0.88016 0.97568 0.60038 0.0
H408 H 0.90323 0.97432 0.62098 0.0
H409 H 0.92877 0.02103 0.60912 0.0
C410 C 0.93601 -0.00168 0.67403 0.0
C411 C 0.97822 0.01947 0.66977 0.0
C412 C 0.90574 0.0016 0.66415 0.0
C413 C 0.91695 0.02599 0.64978 0.0
C414 C 0.95922 0.04807 0.64573 0.0
H415 H 0.75153 0.09547 0.5966 0.0
H416 H 0.80953 0.09691 0.61318 0.0
C417 C 0.98958 0.04471 0.6556 0.0
C418 C 0.88412 0.028 0.63911 0.0
H419 H 0.8352 0.00359 0.5987 0.0
C420 C 0.86035 0.043 0.64704 0.0
C421 C 0.87471 0.01322 0.6215 0.0
C422 C 0.89774 0.99478 0.61248 0.0
C423 C 0.82741 0.04364 0.63785 0.0
C424 C 0.81853 0.02962 0.62016 0.0
C425 C 0.84229 0.01461 0.61223 0.0
C426 C 0.7839 0.02907 0.60977 0.0
C427 C 0.80167 0.05817 0.6473 0.0
C428 C 0.75081 0.99064 0.60192 0.0
C429 C 0.7179 0.98977 0.5922 0.0
C430 C 0.71747 0.02739 0.59009 0.0
C431 C 0.75098 0.06594 0.59783 0.0
C432 C 0.78394 0.06678 0.6075 0.0
H433 H 0.80533 0.05729 0.66148 0.0
H434 H 0.81234 0.09143 0.6445 0.0
H435 H 0.76777 0.03813 0.64305 0.0
H436 H 0.75032 0.9612 0.6034 0.0
H437 H 0.69301 0.95966 0.58619 0.0
H438 H 0.01707 0.93899 0.98965 0.0
H439 H 0.95257 0.89613 0.97129 0.0
H440 H 0.88981 0.94524 0.00162 0.0
H441 H 0.95439 0.9883 0.02024 0.0
H442 H 0.84572 0.85581 0.99616 0.0
H443 H 0.89657 0.93287 0.93485 0.0
H444 H 0.93233 0.91917 0.94454 0.0
H445 H 0.92421 0.95827 0.95545 0.0
C446 C 0.98973 0.94106 0.99237 0.0
C447 C 0.99091 0.9671 0.00644 0.0
C448 C 0.95295 0.91674 0.98177 0.0
C449 C 0.91667 0.91802 0.98495 0.0
C450 C 0.91767 0.94413 -0.00111 0.0
H451 H 0.68707 0.78135 0.91618 0.0
H452 H 0.74717 0.83725 0.93437 0.0
C453 C 0.95457 0.96869 0.00949 0.0
C454 C 0.87707 0.88986 0.97437 0.0
H455 H 0.83457 0.86351 0.93287 0.0
C456 C 0.84303 0.8578 0.98236 0.0
C457 C 0.87358 0.89283 0.9564 0.0
C458 C 0.90847 0.92789 0.9473 0.0
C459 C 0.80618 0.82742 0.97273 0.0
C460 C 0.80362 0.829 0.95464 0.0
C461 C 0.83688 0.86217 0.94673 0.0
C462 C 0.76737 0.79545 0.94366 0.0
C463 C 0.77045 0.79359 0.98194 0.0
C464 C 0.75937 0.75372 0.9427 0.0
C465 C 0.72523 0.72185 0.93237 0.0
C466 C 0.69848 0.73116 0.92276 0.0
C467 C 0.70687 0.77316 0.92359 0.0
C468 C 0.74121 0.8051 0.93389 0.0
H469 H 0.77276 0.80313 0.99586 0.0
H470 H 0.73959 0.78657 0.9761 0.0
H471 H 0.77149 0.76392 0.98082 0.0
H472 H 0.77962 0.74582 0.94996 0.0
H473 H 0.71938 0.68976 0.93212 0.0
H474 H 0.9775 0.94252 0.3506 0.0
H475 H 0.94704 0.87168 0.33563 0.0
H476 H 0.06276 0.91274 0.31108 0.0
H477 H 0.09332 0.98324 0.32576 0.0
H478 H 0.94278 0.85267 0.29674 0.0
H479 H 0.03428 0.80135 0.3363 0.0
H480 H 0.02466 0.84266 0.34384 0.0
H481 H 0.06438 0.85392 0.32898 0.0
C482 C 0.99643 0.93643 0.34202 0.0
C483 C 0.03788 0.96851 0.3394 0.0
C484 C 0.97897 0.89603 0.33348 0.0
C485 C 0.0029 0.8871 0.32243 0.0
C486 C 0.04403 0.91904 0.31972 0.0
H487 H 0.97351 0.71552 0.23993 0.0
H488 H 0.97931 0.7731 0.25906 0.0
C489 C 0.06135 0.95936 0.32809 0.0
C490 C 0.98536 0.84463 0.31345 0.0
H491 H 0.00204 0.7617 0.30946 0.0
C492 C 0.9551 0.83232 0.29966 0.0
C493 C 0.00126 0.81812 0.31745 0.0
C494 C 0.0327 0.82937 0.33254 0.0
C495 C 0.94204 0.7951 0.28913 0.0
C496 C 0.96007 0.77004 0.29246 0.0
C497 C 0.98848 0.78115 0.30686 0.0
C498 C 0.95258 0.73412 0.28047 0.0
C499 C 0.90974 0.78337 0.27434 0.0
C500 C 0.936 0.69323 0.28622 0.0
C501 C 0.93293 0.66032 0.27535 0.0
C502 C 0.94691 0.66795 0.25861 0.0
C503 C 0.96281 0.70879 0.2528 0.0
C504 C 0.96566 0.74157 0.26364 0.0
H505 H 0.89021 0.79786 0.27656 0.0
H506 H 0.92608 0.79532 0.26239 0.0
H507 H 0.88875 0.74836 0.27229 0.0
H508 H 0.92617 0.68701 0.29924 0.0
H509 H 0.92097 0.6293 0.28024 0.0
H510 H 0.08712 0.97249 0.65636 0.0
H511 H 0.1301 0.97736 0.63234 0.0
H512 H 0.20071 0.94002 0.66477 0.0
H513 H 0.15756 0.93386 0.68843 0.0
H514 H 0.21261 0.02876 0.63005 0.0
H515 H 0.17704 0.86356 0.62248 0.0
H516 H 0.14591 0.8784 0.63496 0.0
H517 H 0.19366 0.88384 0.64446 0.0
C518 C 0.11135 0.96462 0.65825 0.0
C519 C 0.1187 0.95254 0.6743 0.0
C520 C 0.13592 0.9675 0.64453 0.0
C521 C 0.16811 0.95824 0.64664 0.0
C522 C 0.17527 0.94605 0.66263 0.0
H523 H 0.40497 0.05843 0.60321 0.0
H524 H 0.34282 0.04598 0.61785 0.0
C525 C 0.15066 0.94286 0.67623 0.0
C526 C 0.19648 0.96406 0.63271 0.0
H527 H 0.24423 0.91703 0.61282 0.0
C528 C 0.21898 0.00408 0.62601 0.0
C529 C 0.20416 0.93165 0.62709 0.0
C530 C 0.1785 0.88685 0.63249 0.0
C531 C 0.25082 0.01334 0.61473 0.0
C532 C 0.2613 0.98215 0.61048 0.0
C533 C 0.23691 0.94132 0.6163 0.0
C534 C 0.29861 0.99154 0.60082 0.0
C535 C 0.27293 0.05653 0.60759 0.0
C536 C 0.29479 0.96446 0.58666 0.0
C537 C 0.33044 0.97095 0.57858 0.0
C538 C 0.37054 0.00484 0.58441 0.0
C539 C 0.37433 0.0324 0.59834 0.0
C540 C 0.33876 0.02549 0.60661 0.0
H541 H 0.25186 0.06967 0.60662 0.0
H542 H 0.30047 0.07878 0.61644 0.0
H543 H 0.28403 0.05529 0.59465 0.0
H544 H 0.26424 0.93794 0.582 0.0
H545 H 0.32671 0.94942 0.56777 0.0
H546 H 0.16561 0.18134 0.03386 0.0
H547 H 0.21041 0.24548 0.01914 0.0
H548 H 0.27153 0.18454 0.99585 0.0
H549 H 0.22747 0.12061 0.01064 0.0
H550 H 0.32698 0.27111 0.00685 0.0
H551 H 0.18717 0.24518 0.9669 0.0
H552 H 0.18423 0.24936 0.98982 0.0
H553 H 0.18572 0.2051 0.97995 0.0
C554 C 0.18905 0.1818 0.02583 0.0
C555 C 0.19257 0.14561 0.02326 0.0
C556 C 0.21445 0.21841 0.01736 0.0
C557 C 0.24364 0.21937 0.00615 0.0
C558 C 0.249 0.18431 0.00438 0.0
H559 H 0.34763 0.35326 0.91696 0.0
H560 H 0.30932 0.30326 0.9385 0.0
C561 C 0.2237 0.14776 0.01283 0.0
C562 C 0.26669 0.25549 0.99532 0.0
H563 H 0.25267 0.30388 0.9614 0.0
C564 C 0.31082 0.27864 0.99702 0.0
C565 C 0.24538 0.26472 0.98236 0.0
C566 C 0.19804 0.23966 0.97948 0.0
C567 C 0.33429 0.31048 0.98592 0.0
C568 C 0.31295 0.31961 0.97295 0.0
C569 C 0.26884 0.29692 0.97144 0.0
C570 C 0.33575 0.35056 0.96007 0.0
C571 C 0.38168 0.33291 0.98772 0.0
C572 C 0.36279 0.39382 0.96504 0.0
C573 C 0.38491 0.42246 0.95276 0.0
C574 C 0.38025 0.4083 0.93529 0.0
C575 C 0.35238 0.36505 0.93034 0.0
C576 C 0.33029 0.33651 0.94261 0.0
H577 H 0.39289 0.31631 0.996 0.0
H578 H 0.39465 0.33547 0.97491 0.0
H579 H 0.39448 0.36557 0.99366 0.0
H580 H 0.36692 0.40538 0.97842 0.0
H581 H 0.40636 0.45551 0.957 0.0
H582 H 0.00857 0.14818 0.3564 0.0
H583 H 0.98439 0.18935 0.341 0.0
H584 H 0.09796 0.24695 0.31392 0.0
H585 H 0.12254 0.20619 0.32923 0.0
H586 H 0.07126 0.30435 0.32676 0.0
H587 H 0.94479 0.16038 0.28862 0.0
H588 H 0.94594 0.15834 0.31166 0.0
H589 H 0.98821 0.16099 0.30018 0.0
C590 C 0.02865 0.16996 0.34732 0.0
C591 C 0.06736 0.17363 0.34394 0.0
C592 C 0.01467 0.19327 0.33848 0.0
C593 C 0.03916 0.22064 0.32617 0.0
C594 C 0.07856 0.2258 0.32333 0.0
H595 H 0.98793 0.32722 0.23974 0.0
H596 H 0.00449 0.28768 0.25991 0.0
C597 C 0.09251 0.20243 0.33209 0.0
C598 C 0.02323 0.24273 0.31569 0.0
H599 H 0.95061 0.22575 0.28327 0.0
C600 C 0.04466 0.28725 0.31735 0.0
C601 C 0.98883 0.22016 0.30332 0.0
C602 C 0.96565 0.17234 0.30067 0.0
C603 C 0.03275 0.30993 0.30683 0.0
C604 C -0.00162 0.28736 0.29445 0.0
C605 C 0.97674 0.24283 0.29289 0.0
C606 C 0.98608 0.30957 0.2823 0.0
C607 C 0.05782 0.35786 0.30862 0.0
C608 C 0.96944 0.33419 0.2882 0.0
C609 C 0.95997 0.35682 0.27671 0.0
C610 C 0.96707 0.35519 0.25914 0.0
C611 C 0.98263 0.32949 0.25323 0.0
C612 C 0.99189 0.30676 0.2647 0.0
H613 H 0.08777 0.37035 0.31661 0.0
H614 H 0.06511 0.37088 0.29576 0.0
H615 H 0.03894 0.36967 0.31484 0.0
H616 H 0.96431 0.33633 0.30171 0.0
H617 H 0.94831 0.37659 0.28167 0.0
loop_
_geom_bond_atom_site_label_1
_geom_bond_atom_site_label_2
_geom_bond_distance
_geom_bond_site_symmetry_2
_ccdc_geom_bond_type
Zn0 O3 2.031 1_545 S
Zn0 O5 2.049 . S
Zn0 O10 2.067 1_545 S
Zn1 O2 1.962 . S
Zn1 O4 1.986 . S
Zn1 O6 1.996 . S
Zn1 O9 1.943 . S
O2 Zn1 1.962 . S
O2 C7 1.254 1_545 S
O3 Zn0 2.031 1_565 S
O3 C7 1.269 . S
O4 Zn1 1.986 . S
O4 C11 1.262 . S
O5 Zn0 2.049 . S
O5 C13 1.260 . S
O6 Zn1 1.996 . S
O6 C13 1.257 . S
C7 O2 1.254 1_565 S
C7 O3 1.269 . S
C8 O9 1.249 1_565 S
C8 O10 1.270 . S
O9 Zn1 1.943 . S
O9 C8 1.249 1_545 S
O10 Zn0 2.067 1_565 S
O10 C8 1.270 . S
C11 O4 1.262 . S
C11 O12 1.232 . S
O12 C11 1.232 . S
C13 O5 1.260 . S
C13 O6 1.257 . S
Zn14 O17 2.031 . S
Zn14 O19 2.049 . S
Zn14 O24 2.067 . S
Zn15 O16 1.962 . S
Zn15 O18 1.986 1_455 S
Zn15 O20 1.996 . S
Zn15 O23 1.943 1_455 S
O16 Zn15 1.962 . S
O16 C21 1.254 . S
O17 Zn14 2.031 . S
O17 C21 1.269 . S
O18 Zn15 1.986 1_655 S
O18 C25 1.262 . S
O19 Zn14 2.049 . S
O19 C27 1.260 . S
O20 Zn15 1.996 . S
O20 C27 1.257 . S
C21 O16 1.254 . S
C21 O17 1.269 . S
C22 O23 1.249 1_455 S
C22 O24 1.270 . S
O23 Zn15 1.943 1_655 S
O23 C22 1.249 1_655 S
O24 Zn14 2.067 . S
O24 C22 1.270 . S
C25 O18 1.262 . S
C25 O26 1.232 . S
O26 C25 1.232 . S
C27 O19 1.260 . S
C27 O20 1.257 . S
Zn28 O31 2.031 1_565 S
Zn28 O33 2.049 . S
Zn28 O38 2.067 1_565 S
Zn29 O30 1.962 1_545 S
Zn29 O32 1.986 1_445 S
Zn29 O34 1.996 1_445 S
Zn29 O37 1.943 . S
O30 Zn29 1.962 1_565 S
O30 C35 1.254 . S
O31 Zn28 2.031 1_545 S
O31 C35 1.269 1_545 S
O32 Zn29 1.986 1_665 S
O32 C39 1.262 1_565 S
O33 Zn28 2.049 . S
O33 C41 1.260 1_455 S
O34 Zn29 1.996 1_665 S
O34 C41 1.257 . S
C35 O30 1.254 . S
C35 O31 1.269 1_565 S
C36 O37 1.249 . S
C36 O38 1.270 . S
O37 Zn29 1.943 . S
O37 C36 1.249 . S
O38 Zn28 2.067 1_545 S
O38 C36 1.270 . S
C39 O32 1.262 1_545 S
C39 O40 1.232 . S
O40 C39 1.232 . S
C41 O33 1.260 1_655 S
C41 O34 1.257 . S
H42 C61 0.949 . S
H43 C62 0.950 . S
H44 C64 0.950 1_655 S
H45 C65 0.950 1_655 S
H46 C67 0.950 . S
H47 C70 0.950 . S
H48 C71 0.950 . S
H49 C73 0.951 . S
H50 C74 0.949 . S
H51 C76 0.949 . S
H52 C77 0.950 . S
H53 C79 0.950 . S
H54 C80 0.950 . S
H55 C82 0.950 . S
H56 C85 0.950 1_655 S
H57 C86 0.950 1_655 S
H58 C88 0.951 . S
H59 C89 0.949 . S
C60 C61 1.376 . S
C60 C65 1.386 . S
C60 C66 1.483 . S
C61 H42 0.949 . S
C61 C60 1.376 . S
C61 C62 1.397 . S
C62 H43 0.950 . S
C62 C61 1.397 . S
C62 C63 1.391 . S
C63 C62 1.391 . S
C63 C64 1.405 . S
C64 H44 0.950 1_455 S
C64 C63 1.405 . S
C64 C65 1.367 . S
C65 H45 0.950 1_455 S
C65 C60 1.386 . S
C65 C64 1.367 . S
C66 C60 1.483 . S
C66 C67 1.382 . S
C66 C68 1.403 . S
C67 H46 0.950 . S
C67 C66 1.382 . S
C67 C83 1.411 . S
C68 C66 1.403 . S
C68 C69 1.489 . S
C68 C82 1.411 . S
C69 C68 1.489 . S
C69 C70 1.383 . S
C69 C74 1.382 1_455 S
C70 H47 0.950 . S
C70 C69 1.383 . S
C70 C71 1.395 . S
C71 H48 0.950 . S
C71 C70 1.395 . S
C71 C72 1.288 . S
C72 C71 1.288 . S
C72 C73 1.392 1_455 S
C73 H49 0.951 . S
C73 C72 1.392 1_655 S
C73 C74 1.392 . S
C74 H50 0.949 . S
C74 C69 1.382 1_655 S
C74 C73 1.392 . S
C75 C76 1.376 1_455 S
C75 C80 1.386 . S
C75 C81 1.483 . S
C76 H51 0.949 . S
C76 C75 1.376 1_655 S
C76 C77 1.397 . S
C77 H52 0.950 . S
C77 C76 1.397 . S
C77 C78 1.391 1_655 S
C78 C77 1.391 1_455 S
C78 C79 1.405 . S
C79 H53 0.950 . S
C79 C78 1.405 . S
C79 C80 1.367 . S
C80 H54 0.950 . S
C80 C75 1.386 . S
C80 C79 1.367 . S
C81 C75 1.483 . S
C81 C82 1.382 . S
C81 C83 1.403 . S
C82 H55 0.950 . S
C82 C68 1.411 . S
C82 C81 1.382 . S
C83 C67 1.411 . S
C83 C81 1.403 . S
C83 C84 1.489 . S
C84 C83 1.489 . S
C84 C85 1.383 . S
C84 C89 1.382 . S
C85 H56 0.950 1_455 S
C85 C84 1.383 . S
C85 C86 1.395 . S
C86 H57 0.950 1_455 S
C86 C85 1.395 . S
C86 C87 1.288 . S
C87 C86 1.288 . S
C87 C88 1.392 . S
C88 H58 0.951 . S
C88 C87 1.392 . S
C88 C89 1.392 . S
C89 H59 0.949 . S
C89 C84 1.382 . S
C89 C88 1.392 . S
H90 C109 0.949 . S
H91 C110 0.950 . S
H92 C112 0.950 1_565 S
H93 C113 0.950 1_565 S
H94 C115 0.950 . S
H95 C118 0.950 . S
H96 C119 0.950 . S
H97 C121 0.951 . S
H98 C122 0.949 . S
H99 C124 0.949 . S
H100 C125 0.950 . S
H101 C127 0.950 . S
H102 C128 0.950 . S
H103 C130 0.950 . S
H104 C133 0.950 1_565 S
H105 C134 0.950 1_565 S
H106 C136 0.951 . S
H107 C137 0.949 . S
C108 C109 1.376 . S
C108 C113 1.386 . S
C108 C114 1.483 . S
C109 H90 0.949 . S
C109 C108 1.376 . S
C109 C110 1.397 . S
C110 H91 0.950 . S
C110 C109 1.397 . S
C110 C111 1.391 . S
C111 C110 1.391 . S
C111 C112 1.405 . S
C112 H92 0.950 1_545 S
C112 C111 1.405 . S
C112 C113 1.367 . S
C113 H93 0.950 1_545 S
C113 C108 1.386 . S
C113 C112 1.367 . S
C114 C108 1.483 . S
C114 C115 1.382 . S
C114 C116 1.403 . S
C115 H94 0.950 . S
C115 C114 1.382 . S
C115 C131 1.411 . S
C116 C114 1.403 . S
C116 C117 1.489 . S
C116 C130 1.411 . S
C117 C116 1.489 . S
C117 C118 1.383 . S
C117 C122 1.382 1_545 S
C118 H95 0.950 . S
C118 C117 1.383 . S
C118 C119 1.395 . S
C119 H96 0.950 . S
C119 C118 1.395 . S
C119 C120 1.288 . S
C120 C119 1.288 . S
C120 C121 1.392 1_545 S
C121 H97 0.951 . S
C121 C120 1.392 1_565 S
C121 C122 1.392 . S
C122 H98 0.949 . S
C122 C117 1.382 1_565 S
C122 C121 1.392 . S
C123 C124 1.376 1_545 S
C123 C128 1.386 . S
C123 C129 1.483 . S
C124 H99 0.949 . S
C124 C123 1.376 1_565 S
C124 C125 1.397 . S
C125 H100 0.950 . S
C125 C124 1.397 . S
C125 C126 1.391 1_565 S
C126 C125 1.391 1_545 S
C126 C127 1.405 . S
C127 H101 0.950 . S
C127 C126 1.405 . S
C127 C128 1.367 . S
C128 H102 0.950 . S
C128 C123 1.386 . S
C128 C127 1.367 . S
C129 C123 1.483 . S
C129 C130 1.382 . S
C129 C131 1.403 . S
C130 H103 0.950 . S
C130 C116 1.411 . S
C130 C129 1.382 . S
C131 C115 1.411 . S
C131 C129 1.403 . S
C131 C132 1.489 . S
C132 C131 1.489 . S
C132 C133 1.383 . S
C132 C137 1.382 . S
C133 H104 0.950 1_545 S
C133 C132 1.383 . S
C133 C134 1.395 . S
C134 H105 0.950 1_545 S
C134 C133 1.395 . S
C134 C135 1.288 . S
C135 C134 1.288 . S
C135 C136 1.392 . S
C136 H106 0.951 . S
C136 C135 1.392 . S
C136 C137 1.392 . S
C137 H107 0.949 . S
C137 C132 1.382 . S
C137 C136 1.392 . S
H138 C157 0.949 . S
H139 C158 0.950 . S
H140 C160 0.950 . S
H141 C161 0.950 . S
H142 C163 0.950 . S
H143 C166 0.950 . S
H144 C167 0.950 . S
H145 C169 0.951 . S
H146 C170 0.949 . S
H147 C172 0.949 . S
H148 C173 0.950 . S
H149 C175 0.950 . S
H150 C176 0.950 . S
H151 C178 0.950 . S
H152 C181 0.950 . S
H153 C182 0.950 . S
H154 C184 0.951 . S
H155 C185 0.949 . S
C156 C157 1.376 . S
C156 C161 1.386 . S
C156 C162 1.483 . S
C157 H138 0.949 . S
C157 C156 1.376 . S
C157 C158 1.397 . S
C158 H139 0.950 . S
C158 C157 1.397 . S
C158 C159 1.391 . S
C159 C158 1.391 . S
C159 C160 1.405 . S
C160 H140 0.950 . S
C160 C159 1.405 . S
C160 C161 1.367 . S
C161 H141 0.950 . S
C161 C156 1.386 . S
C161 C160 1.367 . S
C162 C156 1.483 . S
C162 C163 1.382 . S
C162 C164 1.403 . S
C163 H142 0.950 . S
C163 C162 1.382 . S
C163 C179 1.411 . S
C164 C162 1.403 . S
C164 C165 1.489 . S
C164 C178 1.411 . S
C165 C164 1.489 . S
C165 C166 1.383 . S
C165 C170 1.382 . S
C166 H143 0.950 . S
C166 C165 1.383 . S
C166 C167 1.395 . S
C167 H144 0.950 . S
C167 C166 1.395 . S
C167 C168 1.288 . S
C168 C167 1.288 . S
C168 C169 1.392 . S
C169 H145 0.951 . S
C169 C168 1.392 . S
C169 C170 1.392 . S
C170 H146 0.949 . S
C170 C165 1.382 . S
C170 C169 1.392 . S
C171 C172 1.376 . S
C171 C176 1.386 . S
C171 C177 1.483 . S
C172 H147 0.949 . S
C172 C171 1.376 . S
C172 C173 1.397 . S
C173 H148 0.950 . S
C173 C172 1.397 . S
C173 C174 1.391 . S
C174 C173 1.391 . S
C174 C175 1.405 . S
C175 H149 0.950 . S
C175 C174 1.405 . S
C175 C176 1.367 . S
C176 H150 0.950 . S
C176 C171 1.386 . S
C176 C175 1.367 . S
C177 C171 1.483 . S
C177 C178 1.382 . S
C177 C179 1.403 . S
C178 H151 0.950 . S
C178 C164 1.411 . S
C178 C177 1.382 . S
C179 C163 1.411 . S
C179 C177 1.403 . S
C179 C180 1.489 . S
C180 C179 1.489 . S
C180 C181 1.383 . S
C180 C185 1.382 . S
C181 H152 0.950 . S
C181 C180 1.383 . S
C181 C182 1.395 . S
C182 H153 0.950 . S
C182 C181 1.395 . S
C182 C183 1.288 . S
C183 C182 1.288 . S
C183 C184 1.392 . S
C184 H154 0.951 . S
C184 C183 1.392 . S
C184 C185 1.392 . S
C185 H155 0.949 . S
C185 C180 1.382 . S
C185 C184 1.392 . S
H186 C194 0.929 . S
H187 C196 0.930 . S
H188 C198 0.930 1_655 S
H189 C201 0.921 1_655 S
H190 C204 0.930 . S
H191 C206 0.960 . S
H192 C206 0.960 . S
H193 C206 0.960 1_655 S
C194 H186 0.929 . S
C194 C195 1.377 . S
C194 C196 1.384 . S
C195 C194 1.377 . S
C195 C201 1.406 . S
C196 H187 0.930 . S
C196 C194 1.384 . S
C196 C197 1.372 . S
C197 C196 1.372 . S
C197 C198 1.400 . S
C197 C202 1.490 . S
C198 H188 0.930 1_455 S
C198 C197 1.400 . S
C198 C201 1.378 . S
H199 C215 0.930 1_655 S
H200 C216 0.931 1_655 S
C201 H189 0.921 1_455 S
C201 C195 1.406 . S
C201 C198 1.378 . S
C202 C197 1.490 . S
C202 C204 1.395 . S
C202 C205 1.403 . S
H203 C209 0.930 . S
C204 H190 0.930 . S
C204 C202 1.395 . S
C204 C207 1.403 . S
C205 C202 1.403 . S
C205 C206 1.524 . S
C205 C209 1.400 . S
C206 H191 0.960 . S
C206 H192 0.960 . S
C206 H193 0.960 1_455 S
C206 C205 1.524 . S
C207 C204 1.403 . S
C207 C208 1.392 . S
C207 C211 1.495 . S
C208 C207 1.392 . S
C208 C209 1.385 . S
C208 C210 1.478 . S
C209 H203 0.930 . S
C209 C205 1.400 . S
C209 C208 1.385 . S
C210 C208 1.478 . S
C210 C212 1.381 . S
C210 C216 1.383 . S
C211 C207 1.495 . S
C211 H217 0.959 . S
C211 H218 0.961 . S
C211 H219 0.960 . S
C212 C210 1.381 . S
C212 C213 1.394 . S
C212 H220 0.930 . S
C213 C212 1.394 . S
C213 C214 1.383 . S
C213 H221 0.929 . S
C214 C213 1.383 . S
C214 C215 1.377 . S
C215 H199 0.930 1_455 S
C215 C214 1.377 . S
C215 C216 1.379 . S
C216 H200 0.931 1_455 S
C216 C210 1.383 . S
C216 C215 1.379 . S
H217 C211 0.959 . S
H218 C211 0.961 . S
H219 C211 0.960 . S
H220 C212 0.930 . S
H221 C213 0.929 . S
H222 C230 0.929 . S
H223 C232 0.930 . S
H224 C234 0.930 . S
H225 C237 0.929 . S
H226 C240 0.930 . S
H227 C242 0.960 1_565 S
H228 C242 0.960 . S
H229 C242 0.960 1_565 S
C230 H222 0.929 . S
C230 C231 1.377 . S
C230 C232 1.384 . S
C231 C230 1.377 . S
C231 C237 1.390 1_545 S
C232 H223 0.930 . S
C232 C230 1.384 . S
C232 C233 1.372 . S
C233 C232 1.372 . S
C233 C234 1.400 1_545 S
C233 C238 1.490 . S
C234 H224 0.930 . S
C234 C233 1.400 1_565 S
C234 C237 1.386 . S
H235 C251 0.922 1_565 S
H236 C252 0.931 1_565 S
C237 H225 0.929 . S
C237 C231 1.390 1_565 S
C237 C234 1.386 . S
C238 C233 1.490 . S
C238 C240 1.395 . S
C238 C241 1.403 . S
H239 C245 0.930 . S
C240 H226 0.930 . S
C240 C238 1.395 . S
C240 C243 1.403 . S
C241 C238 1.403 . S
C241 C242 1.524 . S
C241 C245 1.400 . S
C242 H227 0.960 1_545 S
C242 H228 0.960 . S
C242 H229 0.960 1_545 S
C242 C241 1.524 . S
C243 C240 1.403 . S
C243 C244 1.392 . S
C243 C247 1.495 . S
C244 C243 1.392 . S
C244 C245 1.385 . S
C244 C246 1.478 . S
C245 H239 0.930 . S
C245 C241 1.400 . S
C245 C244 1.385 . S
C246 C244 1.478 . S
C246 C248 1.381 . S
C246 C252 1.383 . S
C247 C243 1.495 . S
C247 H253 0.959 . S
C247 H254 0.961 . S
C247 H255 0.960 . S
C248 C246 1.381 . S
C248 C249 1.394 . S
C248 H256 0.930 . S
C249 C248 1.394 . S
C249 C250 1.383 . S
C249 H257 0.929 . S
C250 C249 1.383 . S
C250 C251 1.388 . S
C251 H235 0.922 1_545 S
C251 C250 1.388 . S
C251 C252 1.375 . S
C252 H236 0.931 1_545 S
C252 C246 1.383 . S
C252 C251 1.375 . S
H253 C247 0.959 . S
H254 C247 0.961 . S
H255 C247 0.960 . S
H256 C248 0.930 . S
H257 C249 0.929 . S
H258 C266 0.929 . S
H259 C268 0.930 . S
H260 C270 0.930 . S
H261 C273 0.929 . S
H262 C276 0.930 . S
H263 C278 0.960 . S
H264 C278 0.960 . S
H265 C278 0.960 . S
C266 H258 0.929 . S
C266 C267 1.377 . S
C266 C268 1.384 . S
C267 C266 1.377 . S
C267 C273 1.390 . S
C268 H259 0.930 . S
C268 C266 1.384 . S
C268 C269 1.372 . S
C269 C268 1.372 . S
C269 C270 1.400 . S
C269 C274 1.490 . S
C270 H260 0.930 . S
C270 C269 1.400 . S
C270 C273 1.386 . S
H271 C287 0.930 . S
H272 C288 0.931 . S
C273 H261 0.929 . S
C273 C267 1.390 . S
C273 C270 1.386 . S
C274 C269 1.490 . S
C274 C276 1.395 . S
C274 C277 1.403 . S
H275 C281 0.930 . S
C276 H262 0.930 . S
C276 C274 1.395 . S
C276 C279 1.403 . S
C277 C274 1.403 . S
C277 C278 1.524 . S
C277 C281 1.400 . S
C278 H263 0.960 . S
C278 H264 0.960 . S
C278 H265 0.960 . S
C278 C277 1.524 . S
C279 C276 1.403 . S
C279 C280 1.392 . S
C279 C283 1.495 . S
C280 C279 1.392 . S
C280 C281 1.385 . S
C280 C282 1.478 . S
C281 H275 0.930 . S
C281 C277 1.400 . S
C281 C280 1.385 . S
C282 C280 1.478 . S
C282 C284 1.381 . S
C282 C288 1.383 . S
C283 C279 1.495 . S
C283 H289 0.959 . S
C283 H290 0.961 . S
C283 H291 0.960 . S
C284 C282 1.381 . S
C284 C285 1.394 . S
C284 H292 0.930 . S
C285 C284 1.394 . S
C285 C286 1.383 . S
C285 H293 0.929 . S
C286 C285 1.383 . S
C286 C287 1.377 . S
C287 H271 0.930 . S
C287 C286 1.377 . S
C287 C288 1.379 . S
C288 H272 0.931 . S
C288 C282 1.383 . S
C288 C287 1.379 . S
H289 C283 0.959 . S
H290 C283 0.961 . S
H291 C283 0.960 . S
H292 C284 0.930 . S
H293 C285 0.929 . S
H294 C302 0.929 . S
H295 C304 0.932 1_655 S
H296 C306 0.930 . S
H297 C309 0.929 . S
H298 C312 0.930 . S
H299 C314 0.960 . S
H300 C314 0.960 . S
H301 C314 0.960 . S
C302 H294 0.929 . S
C302 C303 1.377 . S
C302 C304 1.384 . S
C303 C302 1.377 . S
C303 C309 1.390 . S
C304 H295 0.932 1_455 S
C304 C302 1.384 . S
C304 C305 1.372 . S
C305 C304 1.372 . S
C305 C306 1.400 . S
C305 C310 1.490 . S
C306 H296 0.930 . S
C306 C305 1.400 . S
C306 C309 1.386 . S
H307 C323 0.930 . S
H308 C324 0.931 . S
C309 H297 0.929 . S
C309 C303 1.390 . S
C309 C306 1.386 . S
C310 C305 1.490 . S
C310 C312 1.395 . S
C310 C313 1.403 . S
H311 C317 0.930 . S
C312 H298 0.930 . S
C312 C310 1.395 . S
C312 C315 1.403 . S
C313 C310 1.403 . S
C313 C314 1.524 . S
C313 C317 1.400 . S
C314 H299 0.960 . S
C314 H300 0.960 . S
C314 H301 0.960 . S
C314 C313 1.524 . S
C315 C312 1.403 . S
C315 C316 1.392 . S
C315 C319 1.495 1_455 S
C316 C315 1.392 . S
C316 C317 1.385 . S
C316 C318 1.478 . S
C317 H311 0.930 . S
C317 C313 1.400 . S
C317 C316 1.385 . S
C318 C316 1.478 . S
C318 C320 1.381 . S
C318 C324 1.383 . S
C319 C315 1.495 1_655 S
C319 H325 0.959 . S
C319 H326 0.961 . S
C319 H327 0.960 . S
C320 C318 1.381 . S
C320 C321 1.394 . S
C320 H328 0.930 1_455 S
C321 C320 1.394 . S
C321 C322 1.383 . S
C321 H329 0.929 1_455 S
C322 C321 1.383 . S
C322 C323 1.377 . S
C323 H307 0.930 . S
C323 C322 1.377 . S
C323 C324 1.379 . S
C324 H308 0.931 . S
C324 C318 1.383 . S
C324 C323 1.379 . S
H325 C319 0.959 . S
H326 C319 0.961 . S
H327 C319 0.960 . S
H328 C320 0.930 1_655 S
H329 C321 0.929 1_655 S
H330 C338 0.929 . S
H331 C340 0.930 . S
H332 C342 0.930 1_565 S
H333 C345 0.929 . S
H334 C348 0.930 . S
H335 C350 0.960 . S
H336 C350 0.960 . S
H337 C350 0.960 . S
C338 H330 0.929 . S
C338 C339 1.377 . S
C338 C340 1.384 . S
C339 C338 1.377 . S
C339 C345 1.390 . S
C340 H331 0.930 . S
C340 C338 1.384 . S
C340 C341 1.372 . S
C341 C340 1.372 . S
C341 C342 1.400 . S
C341 C346 1.490 . S
C342 H332 0.930 1_545 S
C342 C341 1.400 . S
C342 C345 1.386 . S
H343 C359 0.930 1_565 S
H344 C360 0.931 1_565 S
C345 H333 0.929 . S
C345 C339 1.390 . S
C345 C342 1.386 . S
C346 C341 1.490 . S
C346 C348 1.395 . S
C346 C349 1.403 . S
H347 C353 0.930 . S
C348 H334 0.930 . S
C348 C346 1.395 . S
C348 C351 1.403 . S
C349 C346 1.403 . S
C349 C350 1.524 . S
C349 C353 1.400 . S
C350 H335 0.960 . S
C350 H336 0.960 . S
C350 H337 0.960 . S
C350 C349 1.524 . S
C351 C348 1.403 . S
C351 C352 1.392 . S
C351 C355 1.495 . S
C352 C351 1.392 . S
C352 C353 1.385 . S
C352 C354 1.478 . S
C353 H347 0.930 . S
C353 C349 1.400 . S
C353 C352 1.385 . S
C354 C352 1.478 . S
C354 C356 1.381 . S
C354 C360 1.383 . S
C355 C351 1.495 . S
C355 H361 0.959 . S
C355 H362 0.961 . S
C355 H363 0.960 . S
C356 C354 1.381 . S
C356 C357 1.394 . S
C356 H364 0.930 . S
C357 C356 1.394 . S
C357 C358 1.383 . S
C357 H365 0.929 . S
C358 C357 1.383 . S
C358 C359 1.377 . S
C359 H343 0.930 1_545 S
C359 C358 1.377 . S
C359 C360 1.379 . S
C360 H344 0.931 1_545 S
C360 C354 1.383 . S
C360 C359 1.379 . S
H361 C355 0.959 . S
H362 C355 0.961 . S
H363 C355 0.960 . S
H364 C356 0.930 . S
H365 C357 0.929 . S
H366 C374 0.929 . S
H367 C376 0.930 . S
H368 C378 0.930 . S
H369 C381 0.929 . S
H370 C384 0.930 . S
H371 C386 0.960 . S
H372 C386 0.960 . S
H373 C386 0.960 . S
C374 H366 0.929 . S
C374 C375 1.377 . S
C374 C376 1.384 . S
C375 C374 1.377 . S
C375 C381 1.390 . S
C376 H367 0.930 . S
C376 C374 1.384 . S
C376 C377 1.372 . S
C377 C376 1.372 . S
C377 C378 1.400 . S
C377 C382 1.490 . S
C378 H368 0.930 . S
C378 C377 1.400 . S
C378 C381 1.386 . S
H379 C395 0.930 . S
H380 C396 0.931 . S
C381 H369 0.929 . S
C381 C375 1.390 . S
C381 C378 1.386 . S
C382 C377 1.490 . S
C382 C384 1.395 . S
C382 C385 1.403 . S
H383 C389 0.930 . S
C384 H370 0.930 . S
C384 C382 1.395 . S
C384 C387 1.403 . S
C385 C382 1.403 . S
C385 C386 1.524 . S
C385 C389 1.400 . S
C386 H371 0.960 . S
C386 H372 0.960 . S
C386 H373 0.960 . S
C386 C385 1.524 . S
C387 C384 1.403 . S
C387 C388 1.392 . S
C387 C391 1.495 . S
C388 C387 1.392 . S
C388 C389 1.385 . S
C388 C390 1.478 . S
C389 H383 0.930 . S
C389 C385 1.400 . S
C389 C388 1.385 . S
C390 C388 1.478 . S
C390 C392 1.381 . S
C390 C396 1.383 . S
C391 C387 1.495 . S
C391 H397 0.959 . S
C391 H398 0.961 . S
C391 H399 0.960 . S
C392 C390 1.381 . S
C392 C393 1.394 . S
C392 H400 0.930 . S
C393 C392 1.394 . S
C393 C394 1.383 . S
C393 H401 0.929 . S
C394 C393 1.383 . S
C394 C395 1.377 . S
C395 H379 0.930 . S
C395 C394 1.377 . S
C395 C396 1.379 . S
C396 H380 0.931 . S
C396 C390 1.383 . S
C396 C395 1.379 . S
H397 C391 0.959 . S
H398 C391 0.961 . S
H399 C391 0.960 . S
H400 C392 0.930 . S
H401 C393 0.929 . S
H402 C410 0.929 . S
H403 C412 0.930 . S
H404 C414 0.930 . S
H405 C417 0.929 . S
H406 C420 0.930 . S
H407 C422 0.960 . S
H408 C422 0.960 . S
H409 C422 0.960 . S
C410 H402 0.929 . S
C410 C411 1.377 1_565 S
C410 C412 1.384 . S
C411 C410 1.377 1_545 S
C411 C417 1.390 . S
C412 H403 0.930 . S
C412 C410 1.384 . S
C412 C413 1.372 1_565 S
C413 C412 1.372 1_545 S
C413 C414 1.400 . S
C413 C418 1.490 . S
C414 H404 0.930 . S
C414 C413 1.400 . S
C414 C417 1.386 . S
H415 C431 0.930 . S
H416 C432 0.931 . S
C417 H405 0.929 . S
C417 C411 1.390 . S
C417 C414 1.386 . S
C418 C413 1.490 . S
C418 C420 1.395 . S
C418 C421 1.403 . S
H419 C425 0.930 . S
C420 H406 0.930 . S
C420 C418 1.395 . S
C420 C423 1.403 . S
C421 C418 1.403 . S
C421 C422 1.524 . S
C421 C425 1.400 . S
C422 H407 0.960 . S
C422 H408 0.960 . S
C422 H409 0.960 . S
C422 C421 1.524 . S
C423 C420 1.403 . S
C423 C424 1.392 . S
C423 C427 1.495 . S
C424 C423 1.392 . S
C424 C425 1.385 . S
C424 C426 1.478 . S
C425 H419 0.930 . S
C425 C421 1.400 . S
C425 C424 1.385 . S
C426 C424 1.478 . S
C426 C428 1.381 1_545 S
C426 C432 1.383 . S
C427 C423 1.495 . S
C427 H433 0.959 . S
C427 H434 0.961 . S
C427 H435 0.960 1_545 S
C428 C426 1.381 1_565 S
C428 C429 1.394 . S
C428 H436 0.930 . S
C429 C428 1.394 . S
C429 C430 1.383 1_565 S
C429 H437 0.929 . S
C430 C429 1.383 1_545 S
C430 C431 1.377 . S
C431 H415 0.930 . S
C431 C430 1.377 . S
C431 C432 1.379 . S
C432 H416 0.931 . S
C432 C426 1.383 . S
C432 C431 1.379 . S
H433 C427 0.959 . S
H434 C427 0.961 . S
H435 C427 0.960 1_565 S
H436 C428 0.930 . S
H437 C429 0.929 . S
H438 C446 0.929 . S
H439 C448 0.930 . S
H440 C450 0.930 . S
H441 C453 0.950 . S
H442 C456 0.924 1_554 S
H443 C458 0.960 . S
H444 C458 0.960 . S
H445 C458 0.960 . S
C446 H438 0.929 . S
C446 C447 1.377 . S
C446 C448 1.384 . S
C447 C446 1.377 . S
C447 C453 1.347 1_554 S
C448 H439 0.930 . S
C448 C446 1.384 . S
C448 C449 1.372 1_554 S
C449 C448 1.372 1_556 S
C449 C450 1.400 . S
C449 C454 1.490 . S
C450 H440 0.930 . S
C450 C449 1.400 . S
C450 C453 1.409 . S
H451 C467 0.930 . S
H452 C468 0.931 . S
C453 H441 0.950 . S
C453 C447 1.347 1_556 S
C453 C450 1.409 . S
C454 C449 1.490 . S
C454 C456 1.395 . S
C454 C457 1.403 . S
H455 C461 0.930 . S
C456 H442 0.924 1_556 S
C456 C454 1.395 . S
C456 C459 1.403 . S
C457 C454 1.403 . S
C457 C458 1.524 . S
C457 C461 1.400 . S
C458 H443 0.960 . S
C458 H444 0.960 . S
C458 H445 0.960 . S
C458 C457 1.524 . S
C459 C456 1.403 . S
C459 C460 1.392 . S
C459 C463 1.495 . S
C460 C459 1.392 . S
C460 C461 1.385 . S
C460 C462 1.478 . S
C461 H455 0.930 . S
C461 C457 1.400 . S
C461 C460 1.385 . S
C462 C460 1.478 . S
C462 C464 1.381 . S
C462 C468 1.383 . S
C463 C459 1.495 . S
C463 H469 0.959 . S
C463 H470 0.961 . S
C463 H471 0.960 . S
C464 C462 1.381 . S
C464 C465 1.394 . S
C464 H472 0.930 . S
C465 C464 1.394 . S
C465 C466 1.383 . S
C465 H473 0.929 . S
C466 C465 1.383 . S
C466 C467 1.377 . S
C467 H451 0.930 . S
C467 C466 1.377 . S
C467 C468 1.379 . S
C468 H452 0.931 . S
C468 C462 1.383 . S
C468 C467 1.379 . S
H469 C463 0.959 . S
H470 C463 0.961 . S
H471 C463 0.960 . S
H472 C464 0.930 . S
H473 C465 0.929 . S
H474 C482 0.929 . S
H475 C484 0.930 . S
H476 C486 0.930 . S
H477 C489 0.929 1_545 S
H478 C492 0.930 . S
H479 C494 0.960 . S
H480 C494 0.960 . S
H481 C494 0.960 . S
C482 H474 0.929 . S
C482 C483 1.377 1_655 S
C482 C484 1.384 . S
C483 C482 1.377 1_455 S
C483 C489 1.390 . S
C484 H475 0.930 . S
C484 C482 1.384 . S
C484 C485 1.372 1_655 S
C485 C484 1.372 1_455 S
C485 C486 1.400 . S
C485 C490 1.490 . S
C486 H476 0.930 . S
C486 C485 1.400 . S
C486 C489 1.386 . S
H487 C503 0.930 . S
H488 C504 0.931 . S
C489 H477 0.929 1_565 S
C489 C483 1.390 . S
C489 C486 1.386 . S
C490 C485 1.490 . S
C490 C492 1.395 1_455 S
C490 C493 1.403 . S
H491 C497 0.930 . S
C492 H478 0.930 . S
C492 C490 1.395 1_655 S
C492 C495 1.403 . S
C493 C490 1.403 . S
C493 C494 1.524 . S
C493 C497 1.400 . S
C494 H479 0.960 . S
C494 H480 0.960 . S
C494 H481 0.960 . S
C494 C493 1.524 . S
C495 C492 1.403 . S
C495 C496 1.392 1_655 S
C495 C499 1.495 . S
C496 C495 1.392 1_455 S
C496 C497 1.385 . S
C496 C498 1.478 . S
C497 H491 0.930 . S
C497 C493 1.400 . S
C497 C496 1.385 . S
C498 C496 1.478 . S
C498 C500 1.381 1_455 S
C498 C504 1.383 . S
C499 C495 1.495 . S
C499 H505 0.959 . S
C499 H506 0.961 . S
C499 H507 0.960 . S
C500 C498 1.381 1_655 S
C500 C501 1.394 1_655 S
C500 H508 0.930 . S
C501 C500 1.394 1_455 S
C501 C502 1.383 . S
C501 H509 0.929 1_455 S
C502 C501 1.383 . S
C502 C503 1.377 . S
C503 H487 0.930 . S
C503 C502 1.377 . S
C503 C504 1.379 . S
C504 H488 0.931 . S
C504 C498 1.383 . S
C504 C503 1.379 . S
H505 C499 0.959 . S
H506 C499 0.961 . S
H507 C499 0.960 . S
H508 C500 0.930 . S
H509 C501 0.929 1_655 S
H510 C518 0.929 . S
H511 C520 0.930 . S
H512 C522 0.930 . S
H513 C525 0.929 . S
H514 C528 0.930 . S
H515 C530 0.960 . S
H516 C530 0.960 . S
H517 C530 0.938 1_545 S
C518 H510 0.929 . S
C518 C519 1.377 . S
C518 C520 1.384 . S
C519 C518 1.377 . S
C519 C525 1.390 1_565 S
C520 H511 0.930 . S
C520 C518 1.384 . S
C520 C521 1.372 1_565 S
C521 C520 1.372 1_545 S
C521 C522 1.400 . S
C521 C526 1.490 . S
C522 H512 0.930 . S
C522 C521 1.400 . S
C522 C525 1.386 . S
H523 C539 0.930 . S
H524 C540 0.931 . S
C525 H513 0.929 . S
C525 C519 1.390 1_545 S
C525 C522 1.386 . S
C526 C521 1.490 . S
C526 C528 1.395 . S
C526 C529 1.403 1_545 S
H527 C533 0.930 1_565 S
C528 H514 0.930 . S
C528 C526 1.395 . S
C528 C531 1.403 . S
C529 C526 1.403 1_565 S
C529 C530 1.524 . S
C529 C533 1.400 1_565 S
C530 H515 0.960 . S
C530 H516 0.960 . S
C530 H517 0.938 1_565 S
C530 C529 1.524 . S
C531 C528 1.403 . S
C531 C532 1.392 . S
C531 C535 1.495 . S
C532 C531 1.392 . S
C532 C533 1.385 . S
C532 C534 1.478 . S
C533 H527 0.930 1_545 S
C533 C529 1.400 1_545 S
C533 C532 1.385 . S
C534 C532 1.478 . S
C534 C536 1.381 1_545 S
C534 C540 1.383 . S
C535 C531 1.495 . S
C535 H541 0.959 . S
C535 H542 0.961 . S
C535 H543 0.960 . S
C536 C534 1.381 1_565 S
C536 C537 1.394 . S
C536 H544 0.930 . S
C537 C536 1.394 . S
C537 C538 1.383 1_565 S
C537 H545 0.929 . S
C538 C537 1.383 1_545 S
C538 C539 1.377 . S
C539 H523 0.930 . S
C539 C538 1.377 . S
C539 C540 1.379 . S
C540 H524 0.931 . S
C540 C534 1.383 . S
C540 C539 1.379 . S
H541 C535 0.959 . S
H542 C535 0.961 . S
H543 C535 0.960 . S
H544 C536 0.930 . S
H545 C537 0.929 . S
H546 C554 0.929 . S
H547 C556 0.930 . S
H548 C558 0.930 . S
H549 C561 0.925 1_556 S
H550 C564 0.930 1_554 S
H551 C566 0.960 . S
H552 C566 0.960 . S
H553 C566 0.960 . S
C554 H546 0.929 . S
C554 C555 1.377 . S
C554 C556 1.384 . S
C555 C554 1.377 . S
C555 C561 1.422 . S
C556 H547 0.930 . S
C556 C554 1.384 . S
C556 C557 1.372 1_554 S
C557 C556 1.372 1_556 S
C557 C558 1.400 . S
C557 C562 1.490 . S
C558 H548 0.930 . S
C558 C557 1.400 . S
C558 C561 1.360 1_556 S
H559 C575 0.930 . S
H560 C576 0.931 . S
C561 H549 0.925 1_554 S
C561 C555 1.422 . S
C561 C558 1.360 1_554 S
C562 C557 1.490 . S
C562 C564 1.395 . S
C562 C565 1.403 . S
H563 C569 0.930 . S
C564 H550 0.930 1_556 S
C564 C562 1.395 . S
C564 C567 1.403 . S
C565 C562 1.403 . S
C565 C566 1.524 . S
C565 C569 1.400 . S
C566 H551 0.960 . S
C566 H552 0.960 . S
C566 H553 0.960 . S
C566 C565 1.524 . S
C567 C564 1.403 . S
C567 C568 1.392 . S
C567 C571 1.495 . S
C568 C567 1.392 . S
C568 C569 1.385 . S
C568 C570 1.478 . S
C569 H563 0.930 . S
C569 C565 1.400 . S
C569 C568 1.385 . S
C570 C568 1.478 . S
C570 C572 1.381 . S
C570 C576 1.383 . S
C571 C567 1.495 . S
C571 H577 0.959 1_556 S
C571 H578 0.961 . S
C571 H579 0.960 . S
C572 C570 1.381 . S
C572 C573 1.394 . S
C572 H580 0.930 . S
C573 C572 1.394 . S
C573 C574 1.383 . S
C573 H581 0.929 . S
C574 C573 1.383 . S
C574 C575 1.377 . S
C575 H559 0.930 . S
C575 C574 1.377 . S
C575 C576 1.379 . S
C576 H560 0.931 . S
C576 C570 1.383 . S
C576 C575 1.379 . S
H577 C571 0.959 1_554 S
H578 C571 0.961 . S
H579 C571 0.960 . S
H580 C572 0.930 . S
H581 C573 0.929 . S
H582 C590 0.929 . S
H583 C592 0.930 . S
H584 C594 0.930 . S
H585 C597 0.929 . S
H586 C600 0.930 . S
H587 C602 0.960 . S
H588 C602 0.960 . S
H589 C602 0.960 . S
C590 H582 0.929 . S
C590 C591 1.377 . S
C590 C592 1.384 . S
C591 C590 1.377 . S
C591 C597 1.390 . S
C592 H583 0.930 . S
C592 C590 1.384 . S
C592 C593 1.372 . S
C593 C592 1.372 . S
C593 C594 1.400 . S
C593 C598 1.490 . S
C594 H584 0.930 . S
C594 C593 1.400 . S
C594 C597 1.386 . S
H595 C611 0.930 . S
H596 C612 0.931 . S
C597 H585 0.929 . S
C597 C591 1.390 . S
C597 C594 1.386 . S
C598 C593 1.490 . S
C598 C600 1.395 . S
C598 C601 1.403 . S
H599 C605 0.930 1_655 S
C600 H586 0.930 . S
C600 C598 1.395 . S
C600 C603 1.403 . S
C601 C598 1.403 . S
C601 C602 1.524 1_455 S
C601 C605 1.400 . S
C602 H587 0.960 . S
C602 H588 0.960 . S
C602 H589 0.960 . S
C602 C601 1.524 1_655 S
C603 C600 1.403 . S
C603 C604 1.392 . S
C603 C607 1.495 . S
C604 C603 1.392 . S
C604 C605 1.385 . S
C604 C606 1.478 . S
C605 H599 0.930 1_455 S
C605 C601 1.400 . S
C605 C604 1.385 . S
C606 C604 1.478 . S
C606 C608 1.381 . S
C606 C612 1.383 . S
C607 C603 1.495 . S
C607 H613 0.959 . S
C607 H614 0.961 . S
C607 H615 0.960 . S
C608 C606 1.381 . S
C608 C609 1.394 . S
C608 H616 0.930 . S
C609 C608 1.394 . S
C609 C610 1.383 . S
C609 H617 0.929 . S
C610 C609 1.383 . S
C610 C611 1.377 . S
C611 H595 0.930 . S
C611 C610 1.377 . S
C611 C612 1.379 . S
C612 H596 0.931 . S
C612 C606 1.383 . S
C612 C611 1.379 . S
H613 C607 0.959 . S
H614 C607 0.961 . S
H615 C607 0.960 . S
H616 C608 0.930 . S
H617 C609 0.929 . S
C214 C63 1.313 . S
C195 C11 1.299 . S
C231 C25 1.373 . S
C250 C111 1.388 . S
C267 C41 1.382 . S
C286 C183 1.434 . S
C303 C7 1.328 . S
C322 C87 1.326 . S
C358 C135 1.393 . S
C339 C21 1.398 . S
C375 C36 1.394 . S
C394 C159 1.447 . S
C430 C120 1.375 . S
C411 C39 1.369 . S
C447 C8 1.384 1_655 S
C466 C174 1.430 . S
C502 C78 1.491 . S
C483 C22 1.447 1_565 S
C538 C126 1.393 . S
C519 C35 1.393 . S
C574 C168 1.426 . S
C555 C13 1.380 . S
C591 C27 1.434 . S
C610 C72 1.479 . S
