# Generated by pormake.
# Topology eea, (3,6)-cn, num edge types: 1
# Building blocks:
#     Node 0, Type 0, BuildingBlock: VETTIZ_charged_linker_0, # of connection points: 3
#     Node 1, Type 0, BuildingBlock: VETTIZ_charged_linker_0, # of connection points: 3
#     Node 2, Type 0, BuildingBlock: VETTIZ_charged_linker_0, # of connection points: 3
#     Node 3, Type 0, BuildingBlock: VETTIZ_charged_linker_0, # of connection points: 3
#     Node 4, Type 0, BuildingBlock: VETTIZ_charged_linker_0, # of connection points: 3
#     Node 5, Type 0, BuildingBlock: VETTIZ_charged_linker_0, # of connection points: 3
#     Node 6, Type 0, BuildingBlock: VETTIZ_charged_linker_0, # of connection points: 3
#     Node 7, Type 0, BuildingBlock: VETTIZ_charged_linker_0, # of connection points: 3
#     Node 8, Type 0, BuildingBlock: VETTIZ_charged_linker_0, # of connection points: 3
#     Node 9, Type 0, BuildingBlock: VETTIZ_charged_linker_0, # of connection points: 3
#     Node 10, Type 0, BuildingBlock: VETTIZ_charged_linker_0, # of connection points: 3
#     Node 11, Type 0, BuildingBlock: VETTIZ_charged_linker_0, # of connection points: 3
#     Node 12, Type 0, BuildingBlock: VETTIZ_charged_linker_0, # of connection points: 3
#     Node 13, Type 0, BuildingBlock: VETTIZ_charged_linker_0, # of connection points: 3
#     Node 14, Type 0, BuildingBlock: VETTIZ_charged_linker_0, # of connection points: 3
#     Node 15, Type 0, BuildingBlock: VETTIZ_charged_linker_0, # of connection points: 3
#     Node 16, Type 0, BuildingBlock: VETTIZ_charged_linker_0, # of connection points: 3
#     Node 17, Type 0, BuildingBlock: VETTIZ_charged_linker_0, # of connection points: 3
#     Node 18, Type 1, BuildingBlock: NUHQIS_clean_sbu_0, # of connection points: 6
#     Node 19, Type 1, BuildingBlock: NUHQIS_clean_sbu_0, # of connection points: 6
#     Node 20, Type 1, BuildingBlock: NUHQIS_clean_sbu_0, # of connection points: 6
#     Node 21, Type 1, BuildingBlock: NUHQIS_clean_sbu_0, # of connection points: 6
#     Node 22, Type 1, BuildingBlock: NUHQIS_clean_sbu_0, # of connection points: 6
#     Node 23, Type 1, BuildingBlock: NUHQIS_clean_sbu_0, # of connection points: 6
#     Node 24, Type 1, BuildingBlock: NUHQIS_clean_sbu_0, # of connection points: 6
#     Node 25, Type 1, BuildingBlock: NUHQIS_clean_sbu_0, # of connection points: 6
#     Node 26, Type 1, BuildingBlock: NUHQIS_clean_sbu_0, # of connection points: 6
#     Edge 27, Type (0, 1), BuildingBlock: CIFDUS_clean_linker_0, # of connection points: 2
#     Edge 28, Type (0, 1), BuildingBlock: CIFDUS_clean_linker_0, # of connection points: 2
#     Edge 29, Type (0, 1), BuildingBlock: CIFDUS_clean_linker_0, # of connection points: 2
#     Edge 30, Type (0, 1), BuildingBlock: CIFDUS_clean_linker_0, # of connection points: 2
#     Edge 31, Type (0, 1), BuildingBlock: CIFDUS_clean_linker_0, # of connection points: 2
#     Edge 32, Type (0, 1), BuildingBlock: CIFDUS_clean_linker_0, # of connection points: 2
#     Edge 33, Type (0, 1), BuildingBlock: CIFDUS_clean_linker_0, # of connection points: 2
#     Edge 34, Type (0, 1), BuildingBlock: CIFDUS_clean_linker_0, # of connection points: 2
#     Edge 35, Type (0, 1), BuildingBlock: CIFDUS_clean_linker_0, # of connection points: 2
#     Edge 36, Type (0, 1), BuildingBlock: CIFDUS_clean_linker_0, # of connection points: 2
#     Edge 37, Type (0, 1), BuildingBlock: CIFDUS_clean_linker_0, # of connection points: 2
#     Edge 38, Type (0, 1), BuildingBlock: CIFDUS_clean_linker_0, # of connection points: 2
#     Edge 39, Type (0, 1), BuildingBlock: CIFDUS_clean_linker_0, # of connection points: 2
#     Edge 40, Type (0, 1), BuildingBlock: CIFDUS_clean_linker_0, # of connection points: 2
#     Edge 41, Type (0, 1), BuildingBlock: CIFDUS_clean_linker_0, # of connection points: 2
#     Edge 42, Type (0, 1), BuildingBlock: CIFDUS_clean_linker_0, # of connection points: 2
#     Edge 43, Type (0, 1), BuildingBlock: CIFDUS_clean_linker_0, # of connection points: 2
#     Edge 44, Type (0, 1), BuildingBlock: CIFDUS_clean_linker_0, # of connection points: 2
#     Edge 45, Type (0, 1), BuildingBlock: CIFDUS_clean_linker_0, # of connection points: 2
#     Edge 46, Type (0, 1), BuildingBlock: CIFDUS_clean_linker_0, # of connection points: 2
#     Edge 47, Type (0, 1), BuildingBlock: CIFDUS_clean_linker_0, # of connection points: 2
#     Edge 48, Type (0, 1), BuildingBlock: CIFDUS_clean_linker_0, # of connection points: 2
#     Edge 49, Type (0, 1), BuildingBlock: CIFDUS_clean_linker_0, # of connection points: 2
#     Edge 50, Type (0, 1), BuildingBlock: CIFDUS_clean_linker_0, # of connection points: 2
#     Edge 51, Type (0, 1), BuildingBlock: CIFDUS_clean_linker_0, # of connection points: 2
#     Edge 52, Type (0, 1), BuildingBlock: CIFDUS_clean_linker_0, # of connection points: 2
#     Edge 53, Type (0, 1), BuildingBlock: CIFDUS_clean_linker_0, # of connection points: 2
#     Edge 54, Type (0, 1), BuildingBlock: CIFDUS_clean_linker_0, # of connection points: 2
#     Edge 55, Type (0, 1), BuildingBlock: CIFDUS_clean_linker_0, # of connection points: 2
#     Edge 56, Type (0, 1), BuildingBlock: CIFDUS_clean_linker_0, # of connection points: 2
#     Edge 57, Type (0, 1), BuildingBlock: CIFDUS_clean_linker_0, # of connection points: 2
#     Edge 58, Type (0, 1), BuildingBlock: CIFDUS_clean_linker_0, # of connection points: 2
#     Edge 59, Type (0, 1), BuildingBlock: CIFDUS_clean_linker_0, # of connection points: 2
#     Edge 60, Type (0, 1), BuildingBlock: CIFDUS_clean_linker_0, # of connection points: 2
#     Edge 61, Type (0, 1), BuildingBlock: CIFDUS_clean_linker_0, # of connection points: 2
#     Edge 62, Type (0, 1), BuildingBlock: CIFDUS_clean_linker_0, # of connection points: 2
#     Edge 63, Type (0, 1), BuildingBlock: CIFDUS_clean_linker_0, # of connection points: 2
#     Edge 64, Type (0, 1), BuildingBlock: CIFDUS_clean_linker_0, # of connection points: 2
#     Edge 65, Type (0, 1), BuildingBlock: CIFDUS_clean_linker_0, # of connection points: 2
#     Edge 66, Type (0, 1), BuildingBlock: CIFDUS_clean_linker_0, # of connection points: 2
#     Edge 67, Type (0, 1), BuildingBlock: CIFDUS_clean_linker_0, # of connection points: 2
#     Edge 68, Type (0, 1), BuildingBlock: CIFDUS_clean_linker_0, # of connection points: 2
#     Edge 69, Type (0, 1), BuildingBlock: CIFDUS_clean_linker_0, # of connection points: 2
#     Edge 70, Type (0, 1), BuildingBlock: CIFDUS_clean_linker_0, # of connection points: 2
#     Edge 71, Type (0, 1), BuildingBlock: CIFDUS_clean_linker_0, # of connection points: 2
#     Edge 72, Type (0, 1), BuildingBlock: CIFDUS_clean_linker_0, # of connection points: 2
#     Edge 73, Type (0, 1), BuildingBlock: CIFDUS_clean_linker_0, # of connection points: 2
#     Edge 74, Type (0, 1), BuildingBlock: CIFDUS_clean_linker_0, # of connection points: 2
#     Edge 75, Type (0, 1), BuildingBlock: CIFDUS_clean_linker_0, # of connection points: 2
#     Edge 76, Type (0, 1), BuildingBlock: CIFDUS_clean_linker_0, # of connection points: 2
#     Edge 77, Type (0, 1), BuildingBlock: CIFDUS_clean_linker_0, # of connection points: 2
#     Edge 78, Type (0, 1), BuildingBlock: CIFDUS_clean_linker_0, # of connection points: 2
#     Edge 79, Type (0, 1), BuildingBlock: CIFDUS_clean_linker_0, # of connection points: 2
#     Edge 80, Type (0, 1), BuildingBlock: CIFDUS_clean_linker_0, # of connection points: 2
# Relax obj value: 0.035
# Max RMSD: 0.133
# Mean RMSD: 0.080
data_MOF--net-eea--node1-NUHQIS_clean_sbu_0--node2-VETTIZ_charged_linker_0--edge1-CIFDUS_clean_linker_0
_symmetry_space_group_name_H-M    P1
_symmetry_Int_Tables_number       1
_symmetry_cell_setting            triclinic
loop_
_symmetry_equiv_pos_as_xyz
'x, y, z'
_cell_length_a     55.467555
_cell_length_b     55.405826
_cell_length_c     82.165249
_cell_angle_alpha  93.448372
_cell_angle_beta   93.691399
_cell_angle_gamma 119.81954
loop_
_atom_site_label
_atom_site_type_symbol
_atom_site_fract_x
_atom_site_fract_y
_atom_site_fract_z
_atom_type_partial_charge
C0 C 0.26756 0.19728 0.3838 0.0
C1 C 0.26757 0.22053 0.39159 0.0
C2 C 0.27777 0.22882 0.40834 0.0
C3 C 0.28536 0.18949 0.40955 0.0
C4 C 0.27639 0.18207 0.39298 0.0
C5 C 0.2754 0.15549 0.38683 0.0
H6 H 0.28483 0.0426 0.40349 0.0
C7 C 0.29091 0.16802 0.41574 0.0
C8 C 0.2853 0.14818 0.40241 0.0
H9 H 0.25656 0.05883 0.35731 0.0
H10 H 0.2686 0.10485 0.3691 0.0
H11 H 0.33888 0.10592 0.41379 0.0
H12 H 0.2533 0.06174 0.4239 0.0
H13 H 0.27211 0.08289 0.44204 0.0
H14 H 0.27953 0.05646 0.4342 0.0
H15 H 0.32608 0.07921 0.42748 0.0
H16 H 0.33882 0.11543 0.43457 0.0
C17 C 0.29628 0.16236 0.37383 0.0
C18 C 0.24464 0.13351 0.38042 0.0
C19 C 0.31408 0.16928 0.47698 0.0
C20 C 0.31778 0.15041 0.48608 0.0
C21 C 0.31837 0.1278 0.47773 0.0
C22 C 0.3143 0.12334 0.46061 0.0
C23 C 0.30921 0.14147 0.45168 0.0
C24 C 0.30972 0.16433 0.45979 0.0
C25 C 0.30364 0.18108 0.4481 0.0
C26 C 0.29887 0.1641 0.43174 0.0
C27 C 0.302 0.14087 0.43402 0.0
C28 C 0.32982 0.2106 0.44913 0.0
C29 C 0.27684 0.18092 0.45253 0.0
C30 C 0.2813 0.05607 0.39587 0.0
C31 C 0.2694 0.04686 0.37949 0.0
C32 C 0.26579 0.06538 0.36994 0.0
C33 C 0.27252 0.09202 0.37687 0.0
C34 C 0.28262 0.10011 0.39358 0.0
C35 C 0.28734 0.08242 0.40268 0.0
C36 C 0.29664 0.09365 0.42042 0.0
C37 C 0.29645 0.12093 0.42055 0.0
C38 C 0.28828 0.12463 0.40482 0.0
C39 C 0.32658 0.0987 0.42444 0.0
C40 C 0.27453 0.0727 0.4308 0.0
H41 H 0.29394 0.22061 0.43008 0.0
H42 H 0.2595 0.19017 0.37101 0.0
H43 H 0.22971 0.13701 0.3872 0.0
H44 H 0.23922 0.1119 0.38231 0.0
H45 H 0.24005 0.13455 0.36721 0.0
H46 H 0.31567 0.18281 0.37756 0.0
H47 H 0.28708 0.16374 0.36175 0.0
H48 H 0.30338 0.14702 0.37229 0.0
H49 H 0.31355 0.18684 0.4831 0.0
H50 H 0.32174 0.11334 0.48449 0.0
H51 H 0.3146 0.10551 0.45504 0.0
H52 H 0.3493 0.20954 0.4511 0.0
H53 H 0.33003 0.22458 0.45948 0.0
H54 H 0.33157 0.22052 0.43767 0.0
H55 H 0.26122 0.16001 0.45586 0.0
H56 H 0.26599 0.18494 0.44225 0.0
H57 H 0.28159 0.19653 0.46316 0.0
H58 H 0.27829 0.24691 0.41455 0.0
C59 C 0.28682 0.21353 0.41733 0.0
C60 C 0.96269 0.19184 0.39759 0.0
C61 C 0.98401 0.219 0.40372 0.0
C62 C 0.98214 0.23061 0.41906 0.0
C63 C 0.93781 0.18902 0.42137 0.0
C64 C 0.93996 0.17732 0.40658 0.0
C65 C 0.91567 0.14828 0.40177 0.0
H66 H 0.78937 0.04397 0.41667 0.0
C67 C 0.91105 0.16891 0.42724 0.0
C68 C 0.89799 0.14502 0.41573 0.0
H69 H 0.84041 0.04252 0.37931 0.0
H70 H 0.87541 0.0902 0.38859 0.0
H71 H 0.83656 0.06759 0.44399 0.0
H72 H 0.80235 0.10747 0.4151 0.0
H73 H 0.8091 0.12348 0.43527 0.0
H74 H 0.78504 0.08634 0.43097 0.0
H75 H 0.80572 0.06812 0.44869 0.0
H76 H 0.84018 0.09526 0.45734 0.0
C77 C 0.92677 0.1275 0.40161 0.0
C78 C 0.90072 0.14801 0.38514 0.0
C79 C 0.8823 0.1903 0.48173 0.0
C80 C 0.85834 0.17464 0.48974 0.0
C81 C 0.83583 0.14987 0.48145 0.0
C82 C 0.83753 0.1399 0.46584 0.0
C83 C 0.86211 0.15471 0.45835 0.0
C84 C 0.88373 0.17985 0.466 0.0
C85 C 0.90786 0.19268 0.45571 0.0
C86 C 0.89753 0.17034 0.44113 0.0
C87 C 0.87077 0.1482 0.4429 0.0
C88 C 0.93421 0.19607 0.46567 0.0
C89 C 0.91083 0.22043 0.45067 0.0
C90 C 0.8081 0.05367 0.41048 0.0
C91 C 0.81183 0.03917 0.39715 0.0
C92 C 0.83654 0.05314 0.38941 0.0
C93 C 0.8571 0.08081 0.39494 0.0
C94 C 0.85321 0.09466 0.40852 0.0
C95 C 0.8291 0.08096 0.41608 0.0
C96 C 0.82936 0.0979 0.43111 0.0
C97 C 0.85766 0.1241 0.43134 0.0
C98 C 0.87134 0.12233 0.41795 0.0
C99 C 0.82769 0.0815 0.4461 0.0
C100 C 0.80514 0.10407 0.42814 0.0
H101 H 0.95899 0.22589 0.43938 0.0
H102 H 0.96328 0.18223 0.38587 0.0
H103 H 0.89816 0.1667 0.38512 0.0
H104 H 0.87947 0.12974 0.38245 0.0
H105 H 0.91299 0.14838 0.3749 0.0
H106 H 0.94662 0.13597 0.4098 0.0
H107 H 0.93094 0.12294 0.38908 0.0
H108 H 0.91228 0.10759 0.40635 0.0
H109 H 0.89982 0.20954 0.4878 0.0
H110 H 0.81694 0.13785 0.48723 0.0
H111 H 0.81981 0.12065 0.46039 0.0
H112 H 0.92881 0.17746 0.47237 0.0
H113 H 0.94364 0.21477 0.47486 0.0
H114 H 0.95029 0.19761 0.45788 0.0
H115 H 0.88998 0.21859 0.44828 0.0
H116 H 0.92043 0.22628 0.43913 0.0
H117 H 0.92319 0.23786 0.46052 0.0
H118 H 0.99853 0.25118 0.42433 0.0
C119 C 0.95918 0.21585 0.42785 0.0
C120 C 0.96892 0.78805 0.40056 0.0
C121 C 0.98994 0.7819 0.40533 0.0
C122 C 0.98818 0.76936 0.42006 0.0
C123 C 0.94526 0.76941 0.42465 0.0
C124 C 0.94692 0.78148 0.4102 0.0
C125 C 0.92269 0.78593 0.40628 0.0
H126 H 0.80082 0.77447 0.425 0.0
C127 C 0.91948 0.76521 0.43165 0.0
C128 C 0.90621 0.77476 0.42075 0.0
H129 H 0.84494 0.80773 0.3829 0.0
H130 H 0.88106 0.79859 0.39277 0.0
H131 H 0.81073 0.72221 0.42552 0.0
H132 H 0.8551 0.80507 0.45104 0.0
H133 H 0.85545 0.78256 0.46505 0.0
H134 H 0.82247 0.77831 0.45674 0.0
H135 H 0.79725 0.73317 0.4419 0.0
H136 H 0.81984 0.71896 0.4458 0.0
C137 C 0.90636 0.76805 0.38987 0.0
C138 C 0.93428 0.81779 0.40609 0.0
C139 C 0.89417 0.72522 0.48679 0.0
C140 C 0.87176 0.71988 0.49611 0.0
C141 C 0.85089 0.72522 0.48963 0.0
C142 C 0.85234 0.73595 0.4745 0.0
C143 C 0.8749 0.74154 0.46548 0.0
C144 C 0.89534 0.73611 0.47158 0.0
C145 C 0.91766 0.74336 0.46006 0.0
C146 C 0.90737 0.75436 0.44626 0.0
C147 C 0.88219 0.75309 0.44957 0.0
C148 C 0.91738 0.7162 0.45409 0.0
C149 C 0.94592 0.76636 0.46918 0.0
C150 C 0.81834 0.77995 0.41795 0.0
C151 C 0.81974 0.79166 0.40302 0.0
C152 C 0.84291 0.7982 0.39424 0.0
C153 C 0.86405 0.79304 0.40007 0.0
C154 C 0.86226 0.78119 0.41492 0.0
C155 C 0.83973 0.77494 0.42362 0.0
C156 C 0.84154 0.76275 0.43924 0.0
C157 C 0.86874 0.76247 0.43838 0.0
C158 C 0.88072 0.77328 0.4241 0.0
C159 C 0.81599 0.73277 0.43825 0.0
C160 C 0.84355 0.78295 0.45386 0.0
H161 H 0.966 0.75367 0.44073 0.0
H162 H 0.96951 0.79802 0.38954 0.0
H163 H 0.95244 0.83 0.41558 0.0
H164 H 0.91901 0.82418 0.40913 0.0
H165 H 0.94141 0.82469 0.39401 0.0
H166 H 0.90725 0.74841 0.38851 0.0
H167 H 0.91522 0.77964 0.37919 0.0
H168 H 0.8838 0.76092 0.38908 0.0
H169 H 0.91062 0.72144 0.49134 0.0
H170 H 0.83307 0.72077 0.49621 0.0
H171 H 0.8357 0.73946 0.4704 0.0
H172 H 0.89558 0.69826 0.45186 0.0
H173 H 0.92901 0.71094 0.46338 0.0
H174 H 0.92612 0.71738 0.44229 0.0
H175 H 0.94326 0.78255 0.47619 0.0
H176 H 0.9617 0.77768 0.46082 0.0
H177 H 0.95451 0.7574 0.47802 0.0
H178 H 1.00363 0.76385 0.42405 0.0
C179 C 0.9661 0.7632 0.42972 0.0
C180 C 0.16628 0.21302 0.6175 0.0
C181 C 0.19062 0.21757 0.61058 0.0
C182 C 0.19646 0.23026 0.59583 0.0
C183 C 0.1538 0.23249 0.59485 0.0
C184 C 0.14829 0.22061 0.60946 0.0
C185 C 0.12143 0.21695 0.61503 0.0
H186 H 1.00375 0.22463 0.60121 0.0
C187 C 0.13058 0.2372 0.58945 0.0
C188 C 0.11158 0.22824 0.60126 0.0
H189 H 0.03136 0.1975 0.64321 0.0
H190 H 0.07329 0.2075 0.63143 0.0
H191 H 0.06649 0.28012 0.59885 0.0
H192 H 0.02506 0.19686 0.57302 0.0
H193 H 0.03983 0.22203 0.55906 0.0
H194 H 0.01246 0.22076 0.57027 0.0
H195 H 0.03621 0.26772 0.58424 0.0
H196 H 0.07079 0.28227 0.57784 0.0
C197 C 0.12854 0.23517 0.63165 0.0
C198 C 0.10129 0.18526 0.61568 0.0
C199 C 0.13152 0.27711 0.53529 0.0
C200 C 0.11324 0.28359 0.52648 0.0
C201 C 0.08864 0.27879 0.53328 0.0
C202 C 0.08236 0.26761 0.54843 0.0
C203 C 0.10087 0.26116 0.55701 0.0
C204 C 0.125 0.26605 0.55036 0.0
C205 C 0.14249 0.25821 0.56103 0.0
C206 C 0.12505 0.24781 0.57523 0.0
C207 C 0.10054 0.24945 0.57291 0.0
C208 C 0.17106 0.28501 0.56651 0.0
C209 C 0.14442 0.23451 0.55125 0.0
C210 C 0.01891 0.221 0.6079 0.0
C211 C 0.01364 0.20961 0.62311 0.0
C212 C 0.03418 0.20538 0.63132 0.0
C213 C 0.05881 0.21145 0.62449 0.0
C214 C 0.06345 0.22209 0.60922 0.0
C215 C 0.04393 0.22711 0.60122 0.0
C216 C 0.05318 0.23928 0.58524 0.0
C217 C 0.08117 0.24034 0.58495 0.0
C218 C 0.08687 0.23002 0.59906 0.0
C219 C 0.05674 0.26886 0.58644 0.0
C220 C 0.03151 0.21887 0.57107 0.0
H221 H 0.18398 0.24712 0.57677 0.0
H222 H 0.16098 0.20322 0.62875 0.0
H223 H 0.10289 0.1728 0.6051 0.0
H224 H 0.07909 0.17943 0.61475 0.0
H225 H 0.1064 0.17817 0.62708 0.0
H226 H 0.1499 0.25384 0.63263 0.0
H227 H 0.12776 0.22317 0.64215 0.0
H228 H 0.11463 0.24392 0.63314 0.0
H229 H 0.15083 0.28091 0.53068 0.0
H230 H 0.074 0.28334 0.52677 0.0
H231 H 0.06328 0.26432 0.55286 0.0
H232 H 0.16862 0.30375 0.56811 0.0
H233 H 0.18601 0.28884 0.55727 0.0
H234 H 0.18064 0.28441 0.57858 0.0
H235 H 0.1245 0.22024 0.54341 0.0
H236 H 0.14771 0.22078 0.55918 0.0
H237 H 0.16135 0.24316 0.54309 0.0
H238 H 0.21528 0.23462 0.59036 0.0
C239 C 0.17827 0.23768 0.58797 0.0
C240 C 0.7557 0.81588 0.63849 0.0
C241 C 0.75913 0.7944 0.63104 0.0
C242 C 0.75178 0.78707 0.61393 0.0
C243 C 0.73887 0.82274 0.61213 0.0
C244 C 0.74607 0.82995 0.62884 0.0
C245 C 0.74433 0.8552 0.63468 0.0
H246 H 0.72812 0.96356 0.61631 0.0
C247 C 0.73096 0.84242 0.6056 0.0
C248 C 0.73441 0.86164 0.61875 0.0
H249 H 0.75624 0.94917 0.66316 0.0
H250 H 0.74679 0.90389 0.65169 0.0
H251 H 0.76087 0.94308 0.59507 0.0
H252 H 0.67604 0.9002 0.60699 0.0
H253 H 0.67519 0.88688 0.58689 0.0
H254 H 0.68663 0.92357 0.59133 0.0
H255 H 0.73473 0.95077 0.58725 0.0
H256 H 0.73915 0.92383 0.57702 0.0
C257 C 0.77409 0.87878 0.64184 0.0
C258 C 0.72214 0.8464 0.64698 0.0
C259 C 0.69933 0.83277 0.5448 0.0
C260 C 0.69111 0.84833 0.53531 0.0
C261 C 0.69031 0.87123 0.54316 0.0
C262 C 0.69788 0.87876 0.56006 0.0
C263 C 0.70654 0.86337 0.5693 0.0
C264 C 0.70688 0.84062 0.56171 0.0
C265 C 0.71662 0.82674 0.57358 0.0
C266 C 0.72165 0.84472 0.58955 0.0
C267 C 0.71598 0.86629 0.58689 0.0
C268 C 0.74403 0.82915 0.56833 0.0
C269 C 0.69256 0.79634 0.57393 0.0
C270 C 0.73221 0.95062 0.62411 0.0
C271 C 0.74333 0.96016 0.64061 0.0
C272 C 0.74763 0.94235 0.65043 0.0
C273 C 0.74245 0.91618 0.64369 0.0
C274 C 0.73315 0.90779 0.62692 0.0
C275 C 0.72749 0.92458 0.61752 0.0
C276 C 0.7181 0.91245 0.59987 0.0
C277 C 0.72026 0.8862 0.60011 0.0
C278 C 0.7291 0.88366 0.61597 0.0
C279 C 0.73907 0.93354 0.58911 0.0
C280 C 0.68748 0.90552 0.59591 0.0
H281 H 0.73651 0.79449 0.59157 0.0
H282 H 0.76082 0.82209 0.65156 0.0
H283 H 0.70364 0.82556 0.64263 0.0
H284 H 0.71385 0.86078 0.64841 0.0
H285 H 0.73075 0.84489 0.65922 0.0
H286 H 0.79063 0.876 0.63654 0.0
H287 H 0.77729 0.87915 0.65535 0.0
H288 H 0.77864 0.89973 0.63885 0.0
H289 H 0.70038 0.81519 0.53915 0.0
H290 H 0.68358 0.88324 0.53621 0.0
H291 H 0.69689 0.89643 0.56524 0.0
H292 H 0.75602 0.84833 0.56212 0.0
H293 H 0.73964 0.81091 0.55967 0.0
H294 H 0.75862 0.83128 0.57888 0.0
H295 H 0.6722 0.79568 0.57415 0.0
H296 H 0.69479 0.78689 0.58495 0.0
H297 H 0.69094 0.78282 0.56288 0.0
H298 H 0.75472 0.77115 0.60764 0.0
C299 C 0.74147 0.80091 0.6045 0.0
C300 C 0.03362 0.81762 0.61586 0.0
C301 C 0.0128 0.78983 0.61044 0.0
C302 C 0.01677 0.77619 0.59663 0.0
C303 C 0.06081 0.81776 0.59373 0.0
C304 C 0.0574 0.83096 0.60748 0.0
C305 C 0.0818 0.86007 0.61199 0.0
H306 H 0.20973 0.96244 0.59731 0.0
C307 C 0.08783 0.83734 0.58792 0.0
C308 C 0.1004 0.86207 0.59875 0.0
H309 H 0.15965 0.96489 0.63496 0.0
H310 H 0.12342 0.91782 0.62532 0.0
H311 H 0.19653 0.89973 0.59943 0.0
H312 H 0.16104 0.93743 0.56951 0.0
H313 H 0.1584 0.9097 0.55664 0.0
H314 H 0.19245 0.93769 0.56527 0.0
H315 H 0.21344 0.91993 0.58315 0.0
H316 H 0.18948 0.8827 0.57951 0.0
C317 C 0.09546 0.86124 0.62929 0.0
C318 C 0.07112 0.88102 0.61061 0.0
C319 C 0.11675 0.81291 0.53432 0.0
C320 C 0.14094 0.82759 0.52629 0.0
C321 C 0.16307 0.85325 0.53399 0.0
C322 C 0.16106 0.86451 0.54915 0.0
C323 C 0.13659 0.85014 0.55681 0.0
C324 C 0.11513 0.82451 0.54964 0.0
C325 C 0.09126 0.81204 0.56014 0.0
C326 C 0.10145 0.83521 0.57424 0.0
C327 C 0.12796 0.85741 0.57208 0.0
C328 C 0.08884 0.7849 0.56595 0.0
C329 C 0.06457 0.80757 0.55006 0.0
C330 C 0.19093 0.95301 0.60346 0.0
C331 C 0.18783 0.96752 0.61703 0.0
C332 C 0.16298 0.95411 0.62469 0.0
C333 C 0.14179 0.92677 0.61899 0.0
C334 C 0.14529 0.91262 0.6054 0.0
C335 C 0.16946 0.92589 0.59783 0.0
C336 C 0.16912 0.90833 0.58309 0.0
C337 C 0.14088 0.88214 0.58317 0.0
C338 C 0.12708 0.88461 0.59633 0.0
C339 C 0.19346 0.90241 0.58628 0.0
C340 C 0.17051 0.92397 0.56779 0.0
H341 H 0.04208 0.77849 0.5778 0.0
H342 H 0.03143 0.82899 0.6263 0.0
H343 H 0.05381 0.8734 0.60053 0.0
H344 H 0.08726 0.90162 0.60745 0.0
H345 H 0.06308 0.884 0.62215 0.0
H346 H 0.09579 0.84156 0.63075 0.0
H347 H 0.08366 0.86387 0.63899 0.0
H348 H 0.11753 0.87805 0.63166 0.0
H349 H 0.09954 0.79297 0.5288 0.0
H350 H 0.18175 0.86517 0.52803 0.0
H351 H 0.17854 0.88429 0.55416 0.0
H352 H 0.1094 0.78582 0.56677 0.0
H353 H 0.07398 0.76628 0.55736 0.0
H354 H 0.0824 0.78154 0.57846 0.0
H355 H 0.06911 0.8265 0.54389 0.0
H356 H 0.04763 0.8039 0.55766 0.0
H357 H 0.05655 0.78961 0.54043 0.0
H358 H 1.00167 0.7546 0.59233 0.0
C359 C 0.04046 0.79 0.58824 0.0
C360 C 0.9286 0.54246 0.72904 0.0
C361 C 0.93457 0.56833 0.73707 0.0
C362 C 0.95263 0.57866 0.75187 0.0
C363 C 0.95612 0.53678 0.75103 0.0
C364 C 0.93995 0.52741 0.73606 0.0
C365 C 0.93653 0.50017 0.7288 0.0
H366 H 0.95346 0.38915 0.7383 0.0
C367 C 0.96353 0.51565 0.75531 0.0
C368 C 0.95278 0.4945 0.74211 0.0
H369 H 0.91246 0.40314 0.6964 0.0
H370 H 0.92584 0.44911 0.7092 0.0
H371 H 0.00877 0.45328 0.74417 0.0
H372 H 0.92997 0.40898 0.76357 0.0
H373 H 0.95296 0.43231 0.78003 0.0
H374 H 0.95941 0.40595 0.77084 0.0
H375 H 1.00083 0.4268 0.75781 0.0
H376 H 0.01529 0.4631 0.76545 0.0
C377 C 0.95029 0.50514 0.71257 0.0
C378 C 0.90497 0.47802 0.72686 0.0
C379 C 1.00224 0.51861 0.81365 0.0
C380 C 0.00768 0.49965 0.82147 0.0
C381 C 0.00696 0.47727 0.81194 0.0
C382 C 0.99933 0.4728 0.79503 0.0
C383 C 0.99202 0.49072 0.78754 0.0
C384 C 0.99435 0.51368 0.79668 0.0
C385 C 0.98587 0.53047 0.78645 0.0
C386 C 0.97663 0.5128 0.76992 0.0
C387 C 0.98016 0.48952 0.77074 0.0
C388 C 0.01188 0.55971 0.7858 0.0
C389 C 0.9613 0.53133 0.79384 0.0
C390 C 0.94799 0.40239 0.73167 0.0
C391 C 0.9319 0.39255 0.71634 0.0
C392 C 0.92464 0.4102 0.70831 0.0
C393 C 0.93244 0.43686 0.71576 0.0
C394 C 0.94745 0.44586 0.73146 0.0
C395 C 0.9554 0.42889 0.73898 0.0
C396 C 0.97022 0.44122 0.75588 0.0
C397 C 0.97003 0.46854 0.75726 0.0
C398 C 0.95657 0.47109 0.74298 0.0
C399 C 1.00033 0.44626 0.756 0.0
C400 C 0.95253 0.42119 0.7683 0.0
H401 H 0.97656 0.57179 0.77025 0.0
H402 H 0.91494 0.53364 0.71768 0.0
H403 H 0.89497 0.48025 0.73773 0.0
H404 H 0.90082 0.45633 0.72605 0.0
H405 H 0.89399 0.48047 0.71585 0.0
H406 H 0.96812 0.52691 0.71301 0.0
H407 H 0.93509 0.50175 0.70196 0.0
H408 H 0.95951 0.49177 0.71014 0.0
H409 H 1.0028 0.53609 0.82068 0.0
H410 H 0.01172 0.46279 0.81766 0.0
H411 H 0.99851 0.45499 0.78855 0.0
H412 H 0.03168 0.55942 0.78834 0.0
H413 H 0.01236 0.57552 0.795 0.0
H414 H 0.01288 0.56703 0.77348 0.0
H415 H 0.94506 0.50996 0.79616 0.0
H416 H 0.95064 0.53906 0.78573 0.0
H417 H 0.96861 0.54486 0.80569 0.0
H418 H 0.95866 0.59894 0.7581 0.0
C419 C 0.96329 0.563 0.7589 0.0
C420 C 0.62853 0.53325 0.72326 0.0
C421 C 0.65293 0.55709 0.73064 0.0
C422 C 0.65451 0.56572 0.74739 0.0
C423 C 0.60789 0.52658 0.74906 0.0
C424 C 0.60659 0.5183 0.73264 0.0
C425 C 0.5803 0.49139 0.72671 0.0
H426 H 0.45928 0.38094 0.7424 0.0
C427 C 0.58173 0.50561 0.7553 0.0
C428 C 0.56572 0.48494 0.74216 0.0
H429 H 0.49791 0.39502 0.69718 0.0
H430 H 0.53491 0.44017 0.70927 0.0
H431 H 0.51462 0.40179 0.76553 0.0
H432 H 0.46987 0.44268 0.75026 0.0
H433 H 0.48347 0.45639 0.77068 0.0
H434 H 0.45907 0.41938 0.76594 0.0
H435 H 0.48253 0.39511 0.77318 0.0
H436 H 0.51597 0.42259 0.78291 0.0
C437 C 0.58847 0.46931 0.72126 0.0
C438 C 0.56392 0.49731 0.71305 0.0
C439 C 0.56235 0.51529 0.81487 0.0
C440 C 0.53975 0.49801 0.82352 0.0
C441 C 0.517 0.47355 0.81508 0.0
C442 C 0.51673 0.46604 0.79852 0.0
C443 C 0.53952 0.48302 0.79011 0.0
C444 C 0.56184 0.50729 0.79817 0.0
C445 C 0.58422 0.52232 0.78698 0.0
C446 C 0.57131 0.50321 0.77093 0.0
C447 C 0.54518 0.48019 0.77301 0.0
C448 C 0.6112 0.52315 0.79399 0.0
C449 C 0.58766 0.55151 0.78547 0.0
C450 C 0.47576 0.3937 0.73511 0.0
C451 C 0.47568 0.38424 0.71881 0.0
C452 C 0.49727 0.40183 0.70969 0.0
C453 C 0.51894 0.42799 0.71681 0.0
C454 C 0.51922 0.4367 0.73329 0.0
C455 C 0.49769 0.41978 0.74207 0.0
C456 C 0.5016 0.43223 0.75946 0.0
C457 C 0.52937 0.45919 0.75977 0.0
C458 C 0.53953 0.46166 0.74443 0.0
C459 C 0.50361 0.41196 0.77099 0.0
C460 C 0.47724 0.43786 0.76188 0.0
H461 H 0.63445 0.55829 0.76928 0.0
H462 H 0.62691 0.52573 0.71052 0.0
H463 H 0.56555 0.51796 0.71606 0.0
H464 H 0.54128 0.48204 0.71157 0.0
H465 H 0.57231 0.49772 0.70109 0.0
H466 H 0.60839 0.47368 0.72817 0.0
H467 H 0.59133 0.46913 0.70801 0.0
H468 H 0.5731 0.44794 0.72381 0.0
H469 H 0.58016 0.53422 0.82103 0.0
H470 H 0.49911 0.4602 0.82131 0.0
H471 H 0.49873 0.44712 0.79296 0.0
H472 H 0.60617 0.5032 0.79908 0.0
H473 H 0.6228 0.54042 0.80403 0.0
H474 H 0.62528 0.52537 0.78458 0.0
H475 H 0.56686 0.54995 0.78365 0.0
H476 H 0.5985 0.56122 0.77485 0.0
H477 H 0.59926 0.56588 0.79677 0.0
H478 H 0.67316 0.5841 0.75335 0.0
C479 C 0.63205 0.55073 0.75661 0.0
C480 C 0.63208 0.12325 0.73892 0.0
C481 C 0.65413 0.11982 0.74555 0.0
C482 C 0.6513 0.10765 0.76046 0.0
C483 C 0.60571 0.10331 0.76193 0.0
C484 C 0.60825 0.11488 0.74724 0.0
C485 C 0.58309 0.11716 0.74179 0.0
H486 H 0.45751 0.10137 0.75662 0.0
C487 C 0.57851 0.09732 0.76754 0.0
C488 C 0.56519 0.10542 0.7557 0.0
H489 H 0.50128 0.13064 0.71385 0.0
H490 H 0.53872 0.12465 0.72543 0.0
H491 H 0.46736 0.05019 0.7579 0.0
H492 H 0.51103 0.13292 0.78353 0.0
H493 H 0.50843 0.10971 0.79789 0.0
H494 H 0.47701 0.10649 0.78773 0.0
H495 H 0.45411 0.05989 0.7749 0.0
H496 H 0.47768 0.0465 0.77778 0.0
C497 C 0.5691 0.09853 0.7253 0.0
C498 C 0.59279 0.1485 0.74096 0.0
C499 C 0.54868 0.0546 0.82144 0.0
C500 C 0.52428 0.04647 0.8293 0.0
C501 C 0.50349 0.05135 0.82217 0.0
C502 C 0.5065 0.06353 0.80746 0.0
C503 C 0.53059 0.07102 0.79956 0.0
C504 C 0.55129 0.06666 0.80654 0.0
C505 C 0.57525 0.07577 0.79613 0.0
C506 C 0.56534 0.08608 0.78178 0.0
C507 C 0.53917 0.08325 0.78395 0.0
C508 C 0.57755 0.04984 0.79064 0.0
C509 C 0.60186 0.09976 0.80625 0.0
C510 C 0.47496 0.10628 0.7496 0.0
C511 C 0.47623 0.11674 0.73426 0.0
C512 C 0.49977 0.12311 0.72581 0.0
C513 C 0.52149 0.11937 0.7325 0.0
C514 C 0.51982 0.10893 0.74783 0.0
C515 C 0.49671 0.10239 0.75603 0.0
C516 C 0.49798 0.0907 0.77192 0.0
C517 C 0.52578 0.0915 0.77199 0.0
C518 C 0.5386 0.10236 0.7579 0.0
C519 C 0.47297 0.06032 0.77074 0.0
C520 C 0.49845 0.11074 0.78609 0.0
H521 H 0.62661 0.09039 0.77992 0.0
H522 H 0.63346 0.13273 0.72762 0.0
H523 H 0.60864 0.1616 0.75147 0.0
H524 H 0.57575 0.15319 0.74183 0.0
H525 H 0.60245 0.15578 0.72949 0.0
H526 H 0.57157 0.07976 0.72475 0.0
H527 H 0.57858 0.11015 0.71474 0.0
H528 H 0.54627 0.09 0.72358 0.0
H529 H 0.565 0.05105 0.82654 0.0
H530 H 0.48475 0.04579 0.82806 0.0
H531 H 0.4898 0.06652 0.80276 0.0
H532 H 0.55644 0.03092 0.78785 0.0
H533 H 0.58925 0.04552 0.80041 0.0
H534 H 0.58754 0.05189 0.77922 0.0
H535 H 0.59685 0.1141 0.8134 0.0
H536 H 0.61792 0.11316 0.79854 0.0
H537 H 0.61115 0.09142 0.81507 0.0
H538 H 0.66756 0.10419 0.76578 0.0
C539 C 0.62735 0.09946 0.76865 0.0
C540 C 0.84336 0.5523 0.95663 0.0
C541 C 0.86728 0.55405 0.95049 0.0
C542 C 0.87323 0.56282 0.93472 0.0
C543 C 0.83195 0.56752 0.93159 0.0
C544 C 0.82603 0.55891 0.94699 0.0
C545 C 0.7994 0.55723 0.95152 0.0
H546 H 0.68319 0.56413 0.9304 0.0
C547 C 0.80948 0.57232 0.92468 0.0
C548 C 0.79026 0.56618 0.93628 0.0
H549 H 0.70913 0.54551 0.97659 0.0
H550 H 0.75116 0.5523 0.96628 0.0
H551 H 0.74547 0.61807 0.92798 0.0
H552 H 0.70593 0.53275 0.90546 0.0
H553 H 0.72108 0.55632 0.89066 0.0
H554 H 0.69315 0.55595 0.90081 0.0
H555 H 0.71736 0.60468 0.91174 0.0
H556 H 0.75312 0.61827 0.90754 0.0
C557 C 0.80668 0.57838 0.96684 0.0
C558 C 0.7786 0.52638 0.95396 0.0
C559 C 0.81437 0.60601 0.86816 0.0
C560 C 0.7972 0.61248 0.85819 0.0
C561 C 0.77258 0.60945 0.86412 0.0
C562 C 0.76514 0.5999 0.87955 0.0
C563 C 0.78258 0.59347 0.88932 0.0
C564 C 0.80678 0.5967 0.88353 0.0
C565 C 0.82306 0.58916 0.89544 0.0
C566 C 0.80495 0.58117 0.90947 0.0
C567 C 0.78106 0.58351 0.90588 0.0
C568 C 0.85202 0.6156 0.90057 0.0
C569 C 0.82425 0.56388 0.88722 0.0
C570 C 0.69789 0.5616 0.93838 0.0
C571 C 0.69196 0.55345 0.95433 0.0
C572 C 0.71215 0.55064 0.96411 0.0
C573 C 0.73694 0.55493 0.95815 0.0
C574 C 0.7422 0.5625 0.9422 0.0
C575 C 0.72314 0.56626 0.93267 0.0
C576 C 0.7334 0.57615 0.91639 0.0
C577 C 0.76121 0.57668 0.91756 0.0
C578 C 0.76604 0.5684 0.93272 0.0
C579 C 0.73744 0.60577 0.9157 0.0
C580 C 0.7123 0.55432 0.9025 0.0
H581 H 0.86158 0.57604 0.91343 0.0
H582 H 0.83816 0.546 0.96873 0.0
H583 H 0.77999 0.51185 0.94462 0.0
H584 H 0.75655 0.52106 0.95239 0.0
H585 H 0.78323 0.52137 0.96625 0.0
H586 H 0.82813 0.59669 0.9671 0.0
H587 H 0.8058 0.56857 0.97835 0.0
H588 H 0.79293 0.58752 0.96695 0.0
H589 H 0.83362 0.60843 0.86419 0.0
H590 H 0.75879 0.61402 0.85669 0.0
H591 H 0.74603 0.59775 0.88326 0.0
H592 H 0.85007 0.63464 0.90197 0.0
H593 H 0.86658 0.61867 0.8912 0.0
H594 H 0.8618 0.61514 0.91258 0.0
H595 H 0.80507 0.55012 0.87867 0.0
H596 H 0.82496 0.55001 0.89612 0.0
H597 H 0.84246 0.5709 0.88003 0.0
H598 H 0.8911 0.56393 0.92944 0.0
C599 C 0.85584 0.56962 0.92531 0.0
C600 C 0.40341 0.13282 0.97133 0.0
C601 C 0.39891 0.10687 0.96452 0.0
C602 C 0.3836 0.0955 0.94894 0.0
C603 C 0.3795 0.13673 0.94672 0.0
C604 C 0.39364 0.14736 0.96224 0.0
C605 C 0.39857 0.17614 0.9672 0.0
H606 H 0.39474 0.28995 0.94587 0.0
C607 C 0.37403 0.15795 0.94011 0.0
C608 C 0.38493 0.18098 0.95213 0.0
H609 H 0.43231 0.28066 0.99107 0.0
H610 H 0.41376 0.23171 0.98231 0.0
H611 H 0.41484 0.25774 0.92319 0.0
H612 H 0.337 0.23153 0.94328 0.0
H613 H 0.32821 0.2129 0.92373 0.0
H614 H 0.34566 0.25068 0.92568 0.0
H615 H 0.3906 0.26859 0.9165 0.0
H616 H 0.38814 0.23698 0.90744 0.0
C617 C 0.43061 0.19665 0.96989 0.0
C618 C 0.38311 0.17479 0.98246 0.0
C619 C 0.33457 0.14462 0.88053 0.0
C620 C 0.32962 0.16212 0.87085 0.0
C621 C 0.33208 0.18687 0.87838 0.0
C622 C 0.34087 0.19495 0.89511 0.0
C623 C 0.34765 0.1783 0.90442 0.0
C624 C 0.34359 0.15315 0.89728 0.0
C625 C 0.35163 0.13816 0.90926 0.0
C626 C 0.36192 0.15892 0.92457 0.0
C627 C 0.35987 0.18252 0.92153 0.0
C628 C 0.3754 0.13464 0.9027 0.0
C629 C 0.32504 0.11032 0.91158 0.0
C630 C 0.39895 0.27737 0.95391 0.0
C631 C 0.41532 0.28928 0.96908 0.0
C632 C 0.41971 0.272 0.97933 0.0
C633 C 0.40914 0.24363 0.97415 0.0
C634 C 0.39427 0.23249 0.95849 0.0
C635 C 0.38889 0.24918 0.94883 0.0
C636 C 0.37359 0.23423 0.93237 0.0
C637 C 0.37101 0.20586 0.93362 0.0
C638 C 0.38326 0.205 0.94889 0.0
C639 C 0.39248 0.25011 0.91908 0.0
C640 C 0.34466 0.23231 0.93103 0.0
H641 H 0.36257 0.10067 0.92817 0.0
H642 H 0.41542 0.14227 0.98318 0.0
H643 H 0.36276 0.15487 0.98152 0.0
H644 H 0.37773 0.19146 0.98377 0.0
H645 H 0.39568 0.17588 0.99386 0.0
H646 H 0.44168 0.19004 0.96146 0.0
H647 H 0.43922 0.19753 0.98263 0.0
H648 H 0.43663 0.21805 0.96713 0.0
H649 H 0.33274 0.12542 0.87507 0.0
H650 H 0.32773 0.20033 0.87121 0.0
H651 H 0.34291 0.21432 0.90003 0.0
H652 H 0.39043 0.15382 0.89736 0.0
H653 H 0.36692 0.11682 0.89293 0.0
H654 H 0.38812 0.13157 0.91231 0.0
H655 H 0.30611 0.11245 0.91035 0.0
H656 H 0.32562 0.10374 0.92397 0.0
H657 H 0.32165 0.09325 0.90226 0.0
H658 H 0.37963 0.07536 0.94354 0.0
C659 C 0.37372 0.11021 0.94005 0.0
C660 C 0.70461 0.15265 0.95355 0.0
C661 C 0.68244 0.12697 0.94595 0.0
C662 C 0.68374 0.11846 0.92961 0.0
C663 C 0.72907 0.16004 0.92914 0.0
C664 C 0.72744 0.16876 0.94496 0.0
C665 C 0.75241 0.1966 0.95133 0.0
H666 H 0.8789 0.30516 0.94045 0.0
C667 C 0.75604 0.18131 0.92394 0.0
C668 C 0.76965 0.20285 0.93692 0.0
H669 H 0.83126 0.29512 0.98174 0.0
H670 H 0.79453 0.25045 0.96876 0.0
H671 H 0.86735 0.24398 0.93571 0.0
H672 H 0.82674 0.28399 0.91294 0.0
H673 H 0.82907 0.26242 0.89732 0.0
H674 H 0.86063 0.29035 0.90869 0.0
H675 H 0.88151 0.2656 0.91951 0.0
H676 H 0.85703 0.22851 0.91537 0.0
C677 C 0.76726 0.19254 0.96666 0.0
C678 C 0.74229 0.21784 0.95452 0.0
C679 C 0.78638 0.16714 0.86828 0.0
C680 C 0.81135 0.18288 0.86113 0.0
C681 C 0.83284 0.20797 0.86979 0.0
C682 C 0.82977 0.21731 0.88526 0.0
C683 C 0.80494 0.20142 0.89234 0.0
C684 C 0.78377 0.17669 0.88398 0.0
C685 C 0.75934 0.16232 0.89392 0.0
C686 C 0.76937 0.1827 0.90946 0.0
C687 C 0.79605 0.2056 0.90831 0.0
C688 C 0.75602 0.13372 0.89735 0.0
C689 C 0.7333 0.16028 0.88439 0.0
C690 C 0.86044 0.29353 0.94664 0.0
C691 C 0.85811 0.30381 0.96218 0.0
C692 C 0.83385 0.28761 0.96987 0.0
C693 C 0.81238 0.26171 0.96225 0.0
C694 C 0.81503 0.2518 0.9467 0.0
C695 C 0.83873 0.2677 0.93916 0.0
C696 C 0.83786 0.25406 0.9226 0.0
C697 C 0.80954 0.22749 0.92134 0.0
C698 C 0.79636 0.22619 0.93552 0.0
C699 C 0.86223 0.24781 0.92316 0.0
C700 C 0.83881 0.27363 0.90962 0.0
H701 H 0.70661 0.12704 0.90887 0.0
H702 H 0.70462 0.15991 0.96608 0.0
H703 H 0.72327 0.2123 0.94615 0.0
H704 H 0.75775 0.23924 0.95205 0.0
H705 H 0.737 0.2184 0.96729 0.0
H706 H 0.76759 0.17266 0.96476 0.0
H707 H 0.75629 0.19162 0.97765 0.0
H708 H 0.78939 0.20907 0.96939 0.0
H709 H 0.76959 0.14768 0.86194 0.0
H710 H 0.85208 0.22062 0.86447 0.0
H711 H 0.84696 0.23661 0.8911 0.0
H712 H 0.77681 0.13571 0.90038 0.0
H713 H 0.74533 0.11805 0.88644 0.0
H714 H 0.74448 0.1253 0.90799 0.0
H715 H 0.7391 0.17951 0.87825 0.0
H716 H 0.71748 0.15865 0.89243 0.0
H717 H 0.72344 0.14218 0.87476 0.0
H718 H 0.66678 0.09916 0.92322 0.0
C719 C 0.70688 0.13476 0.92121 0.0
C720 C 0.5885 0.86512 0.05571 0.0
C721 C 0.5947 0.89225 0.06137 0.0
C722 C 0.61274 0.90561 0.07602 0.0
C723 C 0.61734 0.86485 0.07912 0.0
C724 C 0.60026 0.85207 0.0646 0.0
C725 C 0.59634 0.82363 0.05992 0.0
H726 H 0.62656 0.72305 0.07589 0.0
C727 C 0.62621 0.84566 0.08524 0.0
C728 C 0.61445 0.82176 0.07384 0.0
H729 H 0.56653 0.7198 0.03803 0.0
H730 H 0.57992 0.76719 0.04675 0.0
H731 H 0.67631 0.7894 0.0755 0.0
H732 H 0.60593 0.74425 0.10219 0.0
H733 H 0.62968 0.773 0.11594 0.0
H734 H 0.63926 0.74799 0.10842 0.0
H735 H 0.67439 0.76609 0.09028 0.0
H736 H 0.68699 0.80259 0.09634 0.0
C737 C 0.60792 0.82406 0.04321 0.0
C738 C 0.56494 0.80159 0.05996 0.0
C739 C 0.67706 0.8652 0.14243 0.0
C740 C 0.68714 0.85032 0.15113 0.0
C741 C 0.68735 0.82742 0.14286 0.0
C742 C 0.67621 0.81841 0.12646 0.0
C743 C 0.66463 0.83235 0.11822 0.0
C744 C 0.66612 0.85599 0.12594 0.0
C745 C 0.65391 0.86875 0.11478 0.0
C746 C 0.64278 0.84743 0.09968 0.0
C747 C 0.64897 0.8261 0.1019 0.0
C748 C 0.67782 0.89767 0.11122 0.0
C749 C 0.6301 0.86998 0.12293 0.0
C750 C 0.61616 0.73236 0.06941 0.0
C751 C 0.59551 0.71729 0.0561 0.0
C752 C 0.58298 0.73077 0.04804 0.0
C753 C 0.59048 0.75834 0.05329 0.0
C754 C 0.61032 0.77258 0.06698 0.0
C755 C 0.62269 0.75953 0.07484 0.0
C756 C 0.64091 0.77661 0.09025 0.0
C757 C 0.63768 0.80225 0.09017 0.0
C758 C 0.62015 0.79994 0.07637 0.0
C759 C 0.6713 0.78402 0.08815 0.0
C760 C 0.62862 0.75974 0.10501 0.0
H761 H 0.6374 0.90314 0.096 0.0
H762 H 0.5745 0.85399 0.04467 0.0
H763 H 0.55448 0.80923 0.06824 0.0
H764 H 0.56174 0.78206 0.06474 0.0
H765 H 0.55351 0.79646 0.0475 0.0
H766 H 0.62799 0.84389 0.04287 0.0
H767 H 0.59301 0.82254 0.03296 0.0
H768 H 0.61276 0.80721 0.04079 0.0
H769 H 0.6772 0.88322 0.14844 0.0
H770 H 0.69496 0.81562 0.14931 0.0
H771 H 0.67622 0.80036 0.12099 0.0
H772 H 0.69858 0.89913 0.11304 0.0
H773 H 0.6788 0.91489 0.11943 0.0
H774 H 0.67574 0.90163 0.0983 0.0
H775 H 0.61589 0.84953 0.12738 0.0
H776 H 0.61692 0.87442 0.11444 0.0
H777 H 0.63866 0.88626 0.1336 0.0
H778 H 0.61844 0.92672 0.08055 0.0
C779 C 0.62399 0.89202 0.08492 0.0
C780 C 0.31169 0.8667 0.06998 0.0
C781 C 0.33423 0.89255 0.0771 0.0
C782 C 0.33185 0.90404 0.09233 0.0
C783 C 0.28593 0.86372 0.09338 0.0
C784 C 0.28789 0.85278 0.07827 0.0
C785 C 0.26235 0.82498 0.07248 0.0
H786 H 0.13713 0.7182 0.08722 0.0
C787 C 0.25881 0.84362 0.09894 0.0
C788 C 0.24485 0.82094 0.08663 0.0
H789 H 0.18033 0.72576 0.04416 0.0
H790 H 0.21753 0.77143 0.05564 0.0
H791 H 0.18995 0.74216 0.11298 0.0
H792 H 0.14769 0.78053 0.09007 0.0
H793 H 0.15839 0.79636 0.11034 0.0
H794 H 0.13433 0.75915 0.10647 0.0
H795 H 0.157 0.7369 0.11846 0.0
H796 H 0.18971 0.76548 0.12828 0.0
C797 C 0.27143 0.80272 0.07075 0.0
C798 C 0.24835 0.82807 0.05642 0.0
C799 C 0.23341 0.86093 0.15551 0.0
C800 C 0.20975 0.84527 0.16379 0.0
C801 C 0.18751 0.81998 0.15572 0.0
C802 C 0.18871 0.81033 0.13986 0.0
C803 C 0.21249 0.82592 0.13183 0.0
C804 C 0.23426 0.85091 0.13953 0.0
C805 C 0.25764 0.86462 0.12883 0.0
C806 C 0.24638 0.84347 0.11361 0.0
C807 C 0.21998 0.82083 0.11557 0.0
C808 C 0.2843 0.86701 0.13774 0.0
C809 C 0.26062 0.89299 0.1251 0.0
C810 C 0.15439 0.72981 0.08014 0.0
C811 C 0.15577 0.71821 0.06478 0.0
C812 C 0.17891 0.73398 0.05613 0.0
C813 C 0.20046 0.76059 0.06279 0.0
C814 C 0.19898 0.77165 0.0783 0.0
C815 C 0.17607 0.75638 0.08661 0.0
C816 C 0.17796 0.77128 0.10294 0.0
C817 C 0.20587 0.798 0.10313 0.0
C818 C 0.21816 0.79809 0.08871 0.0
C819 C 0.1785 0.75311 0.11646 0.0
C820 C 0.15329 0.77705 0.10261 0.0
H821 H 0.30755 0.89962 0.11205 0.0
H822 H 0.31277 0.85709 0.05838 0.0
H823 H 0.25077 0.84927 0.05667 0.0
H824 H 0.22554 0.81352 0.05455 0.0
H825 H 0.25789 0.82501 0.04558 0.0
H826 H 0.28799 0.80688 0.08073 0.0
H827 H 0.27998 0.80287 0.05887 0.0
H828 H 0.25437 0.78133 0.07187 0.0
H829 H 0.25079 0.88053 0.16131 0.0
H830 H 0.16927 0.80719 0.16184 0.0
H831 H 0.17112 0.79083 0.13456 0.0
H832 H 0.27915 0.84758 0.14352 0.0
H833 H 0.2941 0.88477 0.1476 0.0
H834 H 0.30003 0.86952 0.12943 0.0
H835 H 0.23989 0.89167 0.12394 0.0
H836 H 0.26893 0.89943 0.11327 0.0
H837 H 0.27415 0.9098 0.13505 0.0
H838 H 0.34855 0.92418 0.09798 0.0
C839 C 0.30792 0.88981 0.10048 0.0
C840 C 0.31037 0.45851 0.07472 0.0
C841 C 0.3321 0.45429 0.08095 0.0
C842 C 0.32919 0.44154 0.09565 0.0
C843 C 0.28425 0.43841 0.09782 0.0
C844 C 0.28685 0.45051 0.08331 0.0
C845 C 0.26232 0.45418 0.0785 0.0
H846 H 0.13837 0.44117 0.09479 0.0
C847 C 0.25751 0.43313 0.10384 0.0
C848 C 0.2446 0.44236 0.09249 0.0
H849 H 0.18448 0.47557 0.05354 0.0
H850 H 0.22014 0.46593 0.06382 0.0
H851 H 0.14741 0.38886 0.0948 0.0
H852 H 0.19197 0.47047 0.12192 0.0
H853 H 0.18917 0.44633 0.13564 0.0
H854 H 0.15786 0.44407 0.12601 0.0
H855 H 0.13381 0.39845 0.11167 0.0
H856 H 0.15654 0.38413 0.11471 0.0
C857 C 0.2475 0.43637 0.06188 0.0
C858 C 0.2732 0.4859 0.07827 0.0
C859 C 0.22852 0.39034 0.15779 0.0
C860 C 0.20482 0.38315 0.16622 0.0
C861 C 0.18384 0.38793 0.15925 0.0
C862 C 0.18629 0.39958 0.14435 0.0
C863 C 0.21002 0.40671 0.13613 0.0
C864 C 0.23062 0.40196 0.14279 0.0
C865 C 0.25419 0.41067 0.13211 0.0
C866 C 0.24438 0.42156 0.11805 0.0
C867 C 0.2185 0.41924 0.12056 0.0
C868 C 0.25559 0.38436 0.12624 0.0
C869 C 0.28132 0.43415 0.14209 0.0
C870 C 0.15624 0.44683 0.08802 0.0
C871 C 0.15843 0.45912 0.07327 0.0
C872 C 0.18194 0.46573 0.06479 0.0
C873 C 0.2028 0.46027 0.07085 0.0
C874 C 0.20033 0.44807 0.08562 0.0
C875 C 0.17729 0.44151 0.09391 0.0
C876 C 0.17814 0.42861 0.10939 0.0
C877 C 0.20553 0.42862 0.10906 0.0
C878 C 0.21847 0.44008 0.09511 0.0
C879 C 0.15262 0.3985 0.10774 0.0
C880 C 0.17914 0.44812 0.12408 0.0
H881 H 0.30474 0.42416 0.11519 0.0
H882 H 0.31189 0.46848 0.06359 0.0
H883 H 0.2907 0.49838 0.08811 0.0
H884 H 0.25729 0.49167 0.08074 0.0
H885 H 0.28108 0.49306 0.06636 0.0
H886 H 0.24793 0.41647 0.06118 0.0
H887 H 0.25794 0.44777 0.05145 0.0
H888 H 0.22511 0.42983 0.06006 0.0
H889 H 0.24496 0.38677 0.16266 0.0
H890 H 0.16561 0.38312 0.16551 0.0
H891 H 0.16958 0.40272 0.13985 0.0
H892 H 0.23423 0.36579 0.12357 0.0
H893 H 0.26725 0.37954 0.13578 0.0
H894 H 0.26518 0.38629 0.11468 0.0
H895 H 0.27699 0.4488 0.14948 0.0
H896 H 0.29732 0.44731 0.13429 0.0
H897 H 0.29043 0.42533 0.15069 0.0
H898 H 0.34527 0.43755 0.10067 0.0
C899 C 0.30552 0.43362 0.10408 0.0
C900 C 0.50628 0.87729 0.27957 0.0
C901 C 0.53271 0.88514 0.27427 0.0
C902 C 0.54105 0.90181 0.26111 0.0
C903 C 0.49671 0.9006 0.25801 0.0
C904 C 0.48884 0.88547 0.27137 0.0
C905 C 0.46049 0.87972 0.27558 0.0
H906 H 0.34587 0.89249 0.25926 0.0
C907 C 0.47364 0.90497 0.25185 0.0
C908 C 0.45245 0.89317 0.26222 0.0
H909 H 0.36435 0.85452 0.29911 0.0
H910 H 0.40783 0.86504 0.28898 0.0
H911 H 0.40881 0.94592 0.25933 0.0
H912 H 0.36765 0.86458 0.23126 0.0
H913 H 0.38607 0.89027 0.21824 0.0
H914 H 0.35765 0.89024 0.22774 0.0
H915 H 0.37954 0.93492 0.24414 0.0
H916 H 0.41462 0.94984 0.23856 0.0
C917 C 0.46432 0.89471 0.2929 0.0
C918 C 0.44071 0.84762 0.27401 0.0
C919 C 0.48009 0.94841 0.19855 0.0
C920 C 0.46189 0.95379 0.18877 0.0
C921 C 0.43647 0.94847 0.19461 0.0
C922 C 0.42903 0.93716 0.20964 0.0
C923 C 0.44718 0.93109 0.21899 0.0
C924 C 0.47236 0.93707 0.21341 0.0
C925 C 0.48927 0.92945 0.22473 0.0
C926 C 0.46989 0.91716 0.23789 0.0
C927 C 0.44521 0.91817 0.23459 0.0
C928 C 0.51671 0.95667 0.23153 0.0
C929 C 0.49362 0.90723 0.21507 0.0
C930 C 0.35918 0.88629 0.26576 0.0
C931 C 0.35158 0.87298 0.28023 0.0
C932 C 0.36978 0.86541 0.28823 0.0
C933 C 0.39507 0.87139 0.28226 0.0
C934 C 0.40254 0.88504 0.26801 0.0
C935 C 0.38465 0.89209 0.2599 0.0
C936 C 0.39602 0.90605 0.24473 0.0
C937 C 0.42396 0.90693 0.24539 0.0
C938 C 0.42757 0.89446 0.25908 0.0
C939 C 0.39987 0.93573 0.24663 0.0
C940 C 0.37583 0.88704 0.22962 0.0
H941 H 0.53093 0.92174 0.24295 0.0
H942 H 0.49904 0.8647 0.28967 0.0
H943 H 0.44439 0.83742 0.26313 0.0
H944 H 0.4184 0.84138 0.27209 0.0
H945 H 0.44422 0.83859 0.28501 0.0
H946 H 0.485 0.91429 0.29525 0.0
H947 H 0.46315 0.88117 0.3026 0.0
H948 H 0.44895 0.9016 0.29445 0.0
H949 H 0.50005 0.9528 0.19468 0.0
H950 H 0.42201 0.95239 0.18736 0.0
H951 H 0.40931 0.93331 0.21333 0.0
H952 H 0.51408 0.97532 0.23155 0.0
H953 H 0.53399 0.96044 0.22404 0.0
H954 H 0.52334 0.95651 0.24451 0.0
H955 H 0.4741 0.89177 0.20727 0.0
H956 H 0.49872 0.8947 0.22302 0.0
H957 H 0.51037 0.91715 0.20689 0.0
H958 H 0.56154 0.90925 0.25706 0.0
C959 C 0.52327 0.90939 0.25296 0.0
C960 C 0.09128 0.46055 0.28945 0.0
C961 C 0.08237 0.43375 0.2816 0.0
C962 C 0.06416 0.42463 0.26689 0.0
C963 C 0.06512 0.46895 0.26798 0.0
C964 C 0.08208 0.4774 0.28264 0.0
C965 C 0.0888 0.50576 0.29001 0.0
H966 H 0.08502 0.62423 0.28293 0.0
C967 C 0.06014 0.49192 0.26412 0.0
C968 C 0.07354 0.51327 0.27716 0.0
H969 H 0.12229 0.60361 0.32371 0.0
H970 H 0.10536 0.55761 0.30993 0.0
H971 H 0.1028 0.5961 0.25474 0.0
H972 H 0.02729 0.56622 0.27811 0.0
H973 H 0.01692 0.55247 0.25743 0.0
H974 H 0.03548 0.58993 0.26269 0.0
H975 H 0.07913 0.60907 0.25161 0.0
H976 H 0.07459 0.57881 0.23931 0.0
C977 C 0.12092 0.52539 0.29122 0.0
C978 C 0.0763 0.50253 0.30665 0.0
C979 C 0.01392 0.48912 0.20803 0.0
C980 C 0.00858 0.50852 0.20068 0.0
C981 C 0.01386 0.53299 0.21021 0.0
C982 C 0.02542 0.53867 0.22659 0.0
C983 C 0.03195 0.51979 0.23352 0.0
C984 C 0.02552 0.49513 0.22443 0.0
C985 C 0.03341 0.47731 0.23403 0.0
C986 C 0.04662 0.4959 0.25012 0.0
C987 C 0.04588 0.52083 0.24966 0.0
C988 C 0.05484 0.47305 0.22495 0.0
C989 C 0.00636 0.44977 0.23621 0.0
C990 C 0.08918 0.60967 0.28902 0.0
C991 C 0.10518 0.61765 0.30441 0.0
C992 C 0.11042 0.59814 0.31176 0.0
C993 C 0.1004 0.57136 0.30377 0.0
C994 C 0.08501 0.56395 0.28823 0.0
C995 C 0.07926 0.58281 0.28123 0.0
C996 C 0.06252 0.57124 0.26469 0.0
C997 C 0.05916 0.54226 0.26294 0.0
C998 C 0.07266 0.53832 0.27667 0.0
C999 C 0.08041 0.58971 0.25182 0.0
C1000 C 0.03411 0.57 0.26561 0.0
H1001 H 0.04191 0.4341 0.24878 0.0
H1002 H 0.10552 0.46866 0.30061 0.0
H1003 H 0.05796 0.48124 0.30689 0.0
H1004 H 0.06808 0.51682 0.30904 0.0
H1005 H 0.09193 0.50597 0.31701 0.0
H1006 H 0.12936 0.52146 0.28007 0.0
H1007 H 0.13154 0.5219 0.30199 0.0
H1008 H 0.12736 0.54776 0.29196 0.0
H1009 H 0.00958 0.4699 0.20108 0.0
H1010 H 0.01005 0.54832 0.20482 0.0
H1011 H 0.02949 0.55792 0.23308 0.0
H1012 H 0.07112 0.49322 0.22113 0.0
H1013 H 0.04444 0.45805 0.21374 0.0
H1014 H 0.0662 0.46545 0.23259 0.0
H1015 H 0.98807 0.45295 0.23628 0.0
H1016 H 0.00755 0.44187 0.2481 0.0
H1017 H 1.00146 0.43324 0.2261 0.0
H1018 H 0.05634 0.40391 0.26069 0.0
C1019 C 0.05558 0.44211 0.26003 0.0
C1020 C 0.37915 0.46621 0.29664 0.0
C1021 C 0.35469 0.44203 0.28969 0.0
C1022 C 0.35197 0.43347 0.27281 0.0
C1023 C 0.39761 0.47341 0.27016 0.0
C1024 C 0.4 0.48163 0.28671 0.0
C1025 C 0.42598 0.50908 0.29212 0.0
H1026 H 0.54241 0.62249 0.27411 0.0
C1027 C 0.42275 0.49492 0.26333 0.0
C1028 C 0.43919 0.51589 0.27622 0.0
H1029 H 0.50709 0.6064 0.3204 0.0
H1030 H 0.47079 0.56087 0.30867 0.0
H1031 H 0.53507 0.56288 0.26583 0.0
H1032 H 0.48335 0.59705 0.25141 0.0
H1033 H 0.48562 0.57867 0.2339 0.0
H1034 H 0.51697 0.60791 0.24449 0.0
H1035 H 0.54226 0.58414 0.24919 0.0
H1036 H 0.51927 0.54665 0.24604 0.0
C1037 C 0.44403 0.50402 0.30515 0.0
C1038 C 0.41715 0.53036 0.2982 0.0
C1039 C 0.43791 0.48462 0.20305 0.0
C1040 C 0.45999 0.50138 0.19401 0.0
C1041 C 0.48299 0.52621 0.20183 0.0
C1042 C 0.4841 0.53452 0.2184 0.0
C1043 C 0.46196 0.5178 0.22735 0.0
C1044 C 0.43943 0.49316 0.21977 0.0
C1045 C 0.41823 0.47798 0.23154 0.0
C1046 C 0.43195 0.49747 0.24737 0.0
C1047 C 0.45743 0.5209 0.2447 0.0
C1048 C 0.41583 0.44918 0.23291 0.0
C1049 C 0.39046 0.47631 0.22532 0.0
C1050 C 0.52673 0.60919 0.28168 0.0
C1051 C 0.52768 0.61819 0.29823 0.0
C1052 C 0.50714 0.59996 0.3077 0.0
C1053 C 0.48584 0.57353 0.3008 0.0
C1054 C 0.48476 0.56511 0.28417 0.0
C1055 C 0.50514 0.58268 0.27493 0.0
C1056 C 0.50057 0.57002 0.25748 0.0
C1057 C 0.47361 0.54233 0.2577 0.0
C1058 C 0.46455 0.53969 0.27336 0.0
C1059 C 0.52557 0.5658 0.25432 0.0
C1060 C 0.49656 0.58936 0.2461 0.0
H1061 H 0.37011 0.44142 0.25028 0.0
H1062 H 0.38154 0.4737 0.30947 0.0
H1063 H 0.39624 0.52489 0.29219 0.0
H1064 H 0.43123 0.55177 0.2951 0.0
H1065 H 0.41598 0.53097 0.31165 0.0
H1066 H 0.44298 0.4837 0.30191 0.0
H1067 H 0.4366 0.50342 0.31744 0.0
H1068 H 0.46648 0.51986 0.30605 0.0
H1069 H 0.42005 0.46536 0.19725 0.0
H1070 H 0.50013 0.53929 0.19502 0.0
H1071 H 0.50217 0.55373 0.22359 0.0
H1072 H 0.4369 0.45128 0.23394 0.0
H1073 H 0.4034 0.43438 0.2219 0.0
H1074 H 0.40636 0.43965 0.24392 0.0
H1075 H 0.3945 0.49588 0.2201 0.0
H1076 H 0.3772 0.47419 0.23521 0.0
H1077 H 0.37836 0.45863 0.21557 0.0
H1078 H 0.3332 0.41487 0.26718 0.0
C1079 C 0.37338 0.44891 0.26303 0.0
Tb1080 Tb 0.50077 0.99045 0.99479 0.0
Eu1081 Eu 0.51689 0.03149 0.02981 0.0
C1082 C 0.52976 0.98092 0.02576 0.0
C1083 C 0.46151 0.97157 0.02331 0.0
C1084 C 0.4998 0.97606 0.95041 0.0
C1085 C 0.49766 0.96803 0.92076 0.0
C1086 C 0.49018 0.95773 0.93593 0.0
C1087 C 0.51725 0.00484 0.94954 0.0
C1088 C 0.52473 0.01516 0.93439 0.0
C1089 C 0.51492 0.99693 0.91975 0.0
C1090 C 0.4913 0.96532 0.96634 0.0
O1091 O 0.49825 0.02709 0.98962 0.0
O1092 O 0.4848 0.03547 0.0139 0.0
O1093 O 0.54714 0.0584 0.01254 0.0
O1094 O 0.54501 0.0216 0.99684 0.0
C1095 C 0.48504 0.03673 0.99805 0.0
O1096 O 0.50376 0.05154 0.04808 0.0
O1097 O 0.54423 0.05496 0.0523 0.0
O1098 O 0.53861 0.00669 0.03199 0.0
O1099 O 0.51134 0.96886 0.01271 0.0
O1100 O 0.46266 0.97194 1.00733 0.0
O1101 O 0.48312 0.98871 0.03377 0.0
C1102 C 0.557 0.04856 1.0014 0.0
O1103 O 0.51147 0.96925 0.97718 0.0
O1104 O 0.47403 0.97157 0.97286 0.0
C1105 C 0.51803 0.04814 0.07495 0.0
C1106 C 0.50094 0.02752 0.10541 0.0
C1107 C 0.51308 0.05631 0.10366 0.0
C1108 C 0.52146 0.06648 0.08857 0.0
C1109 C 0.50626 0.0195 0.07665 0.0
C1110 C 0.49774 0.00929 0.09167 0.0
C1111 C 0.52513 0.05842 0.05877 0.0
H1112 H 0.49001 0.95329 0.90983 0.0
H1113 H 0.47677 0.93545 0.93635 0.0
H1114 H 0.52486 0.01939 0.96057 0.0
H1115 H 0.53772 0.03753 0.93415 0.0
H1116 H 0.51627 0.07106 0.11398 0.0
H1117 H 0.53041 0.08864 0.0875 0.0
H1118 H 0.5033 0.00495 0.06626 0.0
H1119 H 0.48812 0.98699 0.09239 0.0
Tb1120 Tb 0.03512 0.5168 0.99384 0.0
Eu1121 Eu 0.99948 0.5033 0.02563 0.0
C1122 C 0.05621 0.56052 0.02451 0.0
C1123 C 0.05009 0.49175 0.02383 0.0
C1124 C 0.05763 0.53033 0.9521 0.0
C1125 C 0.07519 0.54593 0.9262 0.0
C1126 C 0.08008 0.54482 0.94295 0.0
C1127 C 0.03015 0.51744 0.94448 0.0
C1128 C 0.02524 0.51838 0.92772 0.0
C1129 C 0.04773 0.5324 0.91839 0.0
C1130 C 0.06314 0.52877 0.96956 0.0
O1131 O 0.99456 0.48079 0.98486 0.0
O1132 O 0.98348 0.46304 1.00946 0.0
O1133 O 0.97366 0.50917 1.00568 0.0
O1134 O 0.00971 0.53665 0.9911 0.0
C1135 C 0.97997 0.45989 0.99337 0.0
O1136 O 0.97537 0.47377 0.04256 0.0
O1137 O 0.98054 0.51525 0.04469 0.0
O1138 O 0.03056 0.54962 0.02841 0.0
O1139 O 0.06305 0.54664 0.01413 0.0
O1140 O 0.04599 0.49061 1.00778 0.0
O1141 O 0.03812 0.50132 0.03356 0.0
C1142 C 0.98389 0.52691 0.99467 0.0
O1143 O 0.06207 0.54725 0.97959 0.0
O1144 O 0.05031 0.50387 0.97446 0.0
C1145 C 0.97744 0.49364 0.06891 0.0
C1146 C 0.9886 0.49437 0.10288 0.0
C1147 C 0.96097 0.48304 0.09562 0.0
C1148 C 0.95546 0.48268 0.07875 0.0
C1149 C 1.00506 0.5052 0.07605 0.0
C1150 C 0.01061 0.5056 0.09292 0.0
C1151 C 0.97124 0.49168 0.05114 0.0
H1152 H 0.09289 0.55665 0.91927 0.0
H1153 H 0.10141 0.55498 0.94872 0.0
H1154 H 0.01256 0.50642 0.95146 0.0
H1155 H 1.00386 0.50805 0.92202 0.0
H1156 H 0.94355 0.47393 0.10291 0.0
H1157 H 0.93401 0.47347 0.07335 0.0
H1158 H 0.02225 0.51367 0.06856 0.0
H1159 H 0.03213 0.5148 0.09818 0.0
Tb1160 Tb 0.51845 0.502 0.03025 0.0
Eu1161 Eu 0.49309 0.50543 0.99322 0.0
C1162 C 0.48455 0.44923 1.00537 0.0
C1163 C 0.55469 0.51316 1.00022 0.0
C1164 C 0.52415 0.4925 0.0748 0.0
C1165 C 0.53176 0.49195 0.10418 0.0
C1166 C 0.54193 0.49661 0.08886 0.0
C1167 C 0.49581 0.48316 0.07619 0.0
C1168 C 0.48557 0.47855 0.09157 0.0
C1169 C 0.5035 0.48308 0.1058 0.0
C1170 C 0.53606 0.50014 0.05911 0.0
O1171 O 0.5396 0.54541 0.02514 0.0
O1172 O 0.50421 0.54472 1.00881 0.0
O1173 O 0.45642 0.48952 1.00846 0.0
O1174 O 0.48079 0.50352 0.03429 0.0
C1175 C 0.52722 0.5582 0.01887 0.0
O1176 O 0.49488 0.53004 0.97308 0.0
O1177 O 0.46495 0.48563 0.97059 0.0
O1178 O 0.49368 0.46533 0.99354 0.0
O1179 O 0.48626 0.45996 0.02035 0.0
O1180 O 0.54782 0.50109 0.01389 0.0
O1181 O 0.53892 0.52093 0.99215 0.0
C1182 C 0.4574 0.49375 0.02453 0.0
O1183 O 0.52779 0.48004 0.04729 0.0
O1184 O 0.53681 0.52216 0.05383 0.0
C1185 C 0.48613 0.50554 0.94701 0.0
C1186 C 0.50463 0.50139 0.91623 0.0
C1187 C 0.48913 0.51495 0.91844 0.0
C1188 C 0.47994 0.51695 0.93369 0.0
C1189 C 0.50204 0.49247 0.94497 0.0
C1190 C 0.51109 0.49031 0.92972 0.0
C1191 C 0.47691 0.50826 0.96312 0.0
H1192 H 0.54634 0.49617 0.11485 0.0
H1193 H 0.56392 0.50408 0.08807 0.0
H1194 H 0.48176 0.47988 0.06544 0.0
H1195 H 0.46366 0.47151 0.0923 0.0
H1196 H 0.48357 0.52345 0.90828 0.0
H1197 H 0.46791 0.52734 0.93507 0.0
H1198 H 0.50744 0.48392 0.95518 0.0
H1199 H 0.52327 0.48005 0.9285 0.0
Tb1200 Tb 0.15784 0.30619 0.32634 0.0
Eu1201 Eu 0.17726 0.3449 0.36255 0.0
C1202 C 0.18363 0.29217 0.3567 0.0
C1203 C 0.11642 0.29004 0.35315 0.0
C1204 C 0.15247 0.29175 0.28127 0.0
C1205 C 0.14443 0.28207 0.25151 0.0
C1206 C 0.14014 0.2727 0.26712 0.0
C1207 C 0.16918 0.32038 0.27956 0.0
C1208 C 0.17364 0.32976 0.26397 0.0
C1209 C 0.16129 0.31073 0.24971 0.0
C1210 C 0.14849 0.28163 0.29771 0.0
O1211 O 0.13881 0.33234 0.32521 0.0
O1212 O 0.16552 0.3686 0.34568 0.0
O1213 O 0.21541 0.36164 0.34835 0.0
O1214 O 0.19036 0.34786 0.32303 0.0
C1215 C 0.14712 0.35744 0.33258 0.0
O1216 O 0.17028 0.36781 0.3826 0.0
O1217 O 0.20506 0.3605 0.38547 0.0
O1218 O 0.17263 0.30326 0.36591 0.0
O1219 O 0.18547 0.29634 0.34116 0.0
O1220 O 0.126 0.28016 0.34182 0.0
O1221 O 0.1308 0.31608 0.35985 0.0
C1222 C 0.21395 0.36297 0.3324 0.0
O1223 O 0.17133 0.29016 0.30745 0.0
O1224 O 0.12942 0.28327 0.30541 0.0
C1225 C 0.18032 0.35653 0.4085 0.0
C1226 C 0.16285 0.33356 0.43842 0.0
C1227 C 0.17657 0.36271 0.43769 0.0
C1228 C 0.18527 0.37407 0.42288 0.0
C1229 C 0.16618 0.32744 0.40911 0.0
C1230 C 0.15763 0.3161 0.42388 0.0
C1231 C 0.18953 0.36833 0.39286 0.0
H1232 H 0.1348 0.26678 0.24084 0.0
H1233 H 0.12728 0.25052 0.26814 0.0
H1234 H 0.17885 0.3355 0.29029 0.0
H1235 H 0.18641 0.35198 0.26308 0.0
H1236 H 0.18113 0.37679 0.44865 0.0
H1237 H 0.19602 0.39656 0.42268 0.0
H1238 H 0.1618 0.31345 0.39813 0.0
H1239 H 0.14676 0.29358 0.42388 0.0
Tb1240 Tb 0.6843 0.83838 0.32463 0.0
Eu1241 Eu 0.65371 0.8253 0.35893 0.0
C1242 C 0.70579 0.88493 0.35433 0.0
C1243 C 0.70702 0.81946 0.35456 0.0
C1244 C 0.70389 0.85228 0.28182 0.0
C1245 C 0.72205 0.87295 0.25702 0.0
C1246 C 0.72636 0.87012 0.27354 0.0
C1247 C 0.67683 0.83763 0.27351 0.0
C1248 C 0.67249 0.84034 0.25692 0.0
C1249 C 0.69513 0.85785 0.24845 0.0
C1250 C 0.70938 0.84982 0.29915 0.0
O1251 O 0.64417 0.80082 0.31781 0.0
O1252 O 0.63767 0.78454 0.34306 0.0
O1253 O 0.62432 0.82977 0.34081 0.0
O1254 O 0.65468 0.85336 0.32196 0.0
C1255 C 0.63234 0.78032 0.32701 0.0
O1256 O 0.63893 0.79832 0.37858 0.0
O1257 O 0.63275 0.83391 0.37812 0.0
O1258 O 0.68226 0.8719 0.36091 0.0
O1259 O 0.71244 0.87244 0.34291 0.0
O1260 O 0.69994 0.81572 0.33862 0.0
O1261 O 0.69576 0.8292 0.36466 0.0
C1262 C 0.63078 0.84462 0.32823 0.0
O1263 O 0.70931 0.86842 0.30958 0.0
O1264 O 0.69657 0.82483 0.30397 0.0
C1265 C 0.64044 0.82117 0.40397 0.0
C1266 C 0.65858 0.83435 0.43781 0.0
C1267 C 0.63065 0.81433 0.43221 0.0
C1268 C 0.62168 0.80782 0.41542 0.0
C1269 C 0.66833 0.84113 0.40943 0.0
C1270 C 0.67733 0.84772 0.42623 0.0
C1271 C 0.6308 0.81374 0.38638 0.0
H1272 H 0.73985 0.887 0.25097 0.0
H1273 H 0.74734 0.88184 0.27985 0.0
H1274 H 0.65918 0.82396 0.2798 0.0
H1275 H 0.65153 0.82824 0.25064 0.0
H1276 H 0.61562 0.80395 0.44081 0.0
H1277 H 0.60007 0.79235 0.41138 0.0
H1278 H 0.68313 0.8515 0.4007 0.0
H1279 H 0.69903 0.863 0.43014 0.0
Tb1280 Tb 0.18889 0.82288 0.36321 0.0
Eu1281 Eu 0.16078 0.83342 0.32966 0.0
C1282 C 0.15071 0.77447 0.33667 0.0
C1283 C 0.22213 0.84003 0.33203 0.0
C1284 C 0.20173 0.81301 0.4063 0.0
C1285 C 0.20373 0.79887 0.43352 0.0
C1286 C 0.2103 0.79974 0.41733 0.0
C1287 C 0.18634 0.82528 0.41157 0.0
C1288 C 0.17961 0.8243 0.42772 0.0
C1289 C 0.18829 0.81114 0.4389 0.0
C1290 C 0.20776 0.81288 0.38915 0.0
O1291 O 0.19031 0.86249 0.36832 0.0
O1292 O 0.19422 0.87502 0.34223 0.0
O1293 O 0.13234 0.83115 0.34893 0.0
O1294 O 0.14667 0.81114 0.36842 0.0
C1295 C 0.19794 0.88171 0.35812 0.0
O1296 O 0.15289 0.86021 0.31417 0.0
O1297 O 0.13719 0.81672 0.30559 0.0
O1298 O 0.1376 0.78791 0.33315 0.0
O1299 O 0.17577 0.78778 0.3447 0.0
O1300 O 0.22321 0.84245 0.34813 0.0
O1301 O 0.19867 0.83151 0.32259 0.0
C1302 C 0.12939 0.81919 0.36266 0.0
O1303 O 0.18725 0.79373 0.37891 0.0
O1304 O 0.21971 0.8371 0.38333 0.0
C1305 C 0.15188 0.84863 0.28574 0.0
C1306 C 0.16723 0.85765 0.25355 0.0
C1307 C 0.14825 0.8651 0.25946 0.0
C1308 C 0.14058 0.86051 0.27537 0.0
C1309 C 0.17193 0.84255 0.28026 0.0
C1310 C 0.17946 0.84692 0.26431 0.0
C1311 C 0.14127 0.84087 0.30174 0.0
H1312 H 0.21052 0.78839 0.44179 0.0
H1313 H 0.22197 0.78993 0.4134 0.0
H1314 H 0.1796 0.83565 0.40319 0.0
H1315 H 0.16806 0.83429 0.43153 0.0
H1316 H 0.13883 0.87393 0.25166 0.0
H1317 H 0.12523 0.86553 0.27942 0.0
H1318 H 0.18102 0.83345 0.2881 0.0
H1319 H 0.1939 0.84065 0.26022 0.0
Tb1320 Tb 0.83216 0.6554 0.66091 0.0
Eu1321 Eu 0.85354 0.69374 0.69784 0.0
C1322 C 0.86572 0.64364 0.68852 0.0
C1323 C 0.7972 0.63531 0.6911 0.0
C1324 C 0.8261 0.64458 0.61599 0.0
C1325 C 0.8273 0.63962 0.58639 0.0
C1326 C 0.82039 0.62764 0.60123 0.0
C1327 C 0.83924 0.6737 0.61573 0.0
C1328 C 0.84617 0.68566 0.60097 0.0
C1329 C 0.84003 0.66881 0.58604 0.0
C1330 C 0.81881 0.63221 0.6317 0.0
O1331 O 0.83058 0.69304 0.65813 0.0
O1332 O 0.82269 0.7026 0.68409 0.0
O1333 O 0.8843 0.72191 0.6813 0.0
O1334 O 0.87566 0.68748 0.66057 0.0
C1335 C 0.82025 0.70374 0.66822 0.0
O1336 O 0.84249 0.71262 0.71796 0.0
O1337 O 0.88164 0.71293 0.72064 0.0
O1338 O 0.87511 0.66869 0.69619 0.0
O1339 O 0.84555 0.63268 0.67631 0.0
O1340 O 0.796 0.63778 0.67524 0.0
O1341 O 0.82052 0.65014 0.70073 0.0
C1342 C 0.89058 0.71327 0.66777 0.0
O1343 O 0.83961 0.6345 0.64133 0.0
O1344 O 0.80292 0.63849 0.63987 0.0
C1345 C 0.85698 0.70632 0.74414 0.0
C1346 C 0.83987 0.6853 0.77457 0.0
C1347 C 0.85379 0.71429 0.77319 0.0
C1348 C 0.86218 0.72464 0.75815 0.0
C1349 C 0.84357 0.67743 0.74545 0.0
C1350 C 0.83514 0.66702 0.7605 0.0
C1351 C 0.86382 0.71731 0.72806 0.0
H1352 H 0.82204 0.62596 0.57515 0.0
H1353 H 0.81038 0.60513 0.60115 0.0
H1354 H 0.84405 0.68723 0.62697 0.0
H1355 H 0.85638 0.70821 0.60129 0.0
H1356 H 0.85821 0.72907 0.78377 0.0
H1357 H 0.8724 0.747 0.75742 0.0
H1358 H 0.83915 0.66286 0.73476 0.0
H1359 H 0.82424 0.6446 0.76098 0.0
Tb1360 Tb 0.34649 0.17847 0.66146 0.0
Eu1361 Eu 0.31538 0.16256 0.69525 0.0
C1362 C 0.36661 0.22216 0.69284 0.0
C1363 C 0.37085 0.15937 0.69055 0.0
C1364 C 0.36338 0.18983 0.61779 0.0
C1365 C 0.35759 0.20971 0.59322 0.0
C1366 C 0.36264 0.2116 0.61025 0.0
C1367 C 0.35899 0.1661 0.60792 0.0
C1368 C 0.35401 0.16424 0.59086 0.0
C1369 C 0.3534 0.1861 0.58331 0.0
C1370 C 0.37058 0.19308 0.63575 0.0
O1371 O 0.31944 0.13292 0.65803 0.0
O1372 O 0.28748 0.12799 0.67596 0.0
O1373 O 0.29777 0.18477 0.68067 0.0
O1374 O 0.30564 0.1737 0.65501 0.0
C1375 C 0.29542 0.11793 0.66396 0.0
O1376 O 0.29361 0.13241 0.71249 0.0
O1377 O 0.29892 0.17398 0.71583 0.0
O1378 O 0.35613 0.202 0.70233 0.0
O1379 O 0.35935 0.21726 0.67693 0.0
O1380 O 0.37632 0.17655 0.67916 0.0
O1381 O 0.34644 0.14737 0.69636 0.0
C1382 C 0.29275 0.18226 0.66462 0.0
O1383 O 0.36284 0.2079 0.64451 0.0
O1384 O 0.36694 0.17113 0.64272 0.0
C1385 C 0.2984 0.15206 0.73947 0.0
C1386 C 0.31307 0.15736 0.77342 0.0
C1387 C 0.28482 0.14307 0.76688 0.0
C1388 C 0.27757 0.14048 0.75002 0.0
C1389 C 0.32663 0.16579 0.74583 0.0
C1390 C 0.33392 0.16846 0.7627 0.0
C1391 C 0.29043 0.15019 0.72193 0.0
H1392 H 0.35696 0.22677 0.58783 0.0
H1393 H 0.36628 0.23032 0.61751 0.0
H1394 H 0.35984 0.14914 0.61331 0.0
H1395 H 0.3513 0.14595 0.58357 0.0
H1396 H 0.26831 0.13462 0.77484 0.0
H1397 H 0.25568 0.12982 0.74525 0.0
H1398 H 0.34296 0.17471 0.73777 0.0
H1399 H 0.35585 0.1793 0.76737 0.0
Tb1400 Tb 0.84032 0.17235 0.69153 0.0
Eu1401 Eu 0.81385 0.18191 0.65727 0.0
C1402 C 0.80984 0.12463 0.66272 0.0
C1403 C 0.87617 0.19076 0.66178 0.0
C1404 C 0.84703 0.16342 0.73539 0.0
C1405 C 0.84278 0.14703 0.76243 0.0
C1406 C 0.85263 0.14885 0.74701 0.0
C1407 C 0.83105 0.17578 0.73929 0.0
C1408 C 0.82121 0.17401 0.75467 0.0
C1409 C 0.8271 0.15977 0.76651 0.0
C1410 C 0.8574 0.16523 0.71917 0.0
O1411 O 0.85884 0.21718 0.68989 0.0
O1412 O 0.8216 0.21654 0.67601 0.0
O1413 O 0.77763 0.15981 0.67234 0.0
O1414 O 0.80302 0.17308 0.69769 0.0
C1415 C 0.845 0.2298 0.68571 0.0
O1416 O 0.816 0.21012 0.63928 0.0
O1417 O 0.78378 0.16638 0.63538 0.0
O1418 O 0.81711 0.14357 0.65244 0.0
O1419 O 0.81116 0.13138 0.67846 0.0
O1420 O 0.86938 0.17482 0.67393 0.0
O1421 O 0.86021 0.20033 0.65606 0.0
C1422 C 0.77903 0.16254 0.68847 0.0
O1423 O 0.8411 0.14491 0.70795 0.0
O1424 O 0.86733 0.18939 0.71343 0.0
C1425 C 0.80583 0.18774 0.61263 0.0
C1426 C 0.82335 0.18311 0.58177 0.0
C1427 C 0.80648 0.19519 0.5838 0.0
C1428 C 0.79772 0.19743 0.59916 0.0
C1429 C 0.82325 0.17637 0.61072 0.0
C1430 C 0.83186 0.174 0.59543 0.0
C1431 C 0.79691 0.18989 0.62883 0.0
H1432 H 0.84739 0.13557 0.77113 0.0
H1433 H 0.86468 0.13892 0.74418 0.0
H1434 H 0.82643 0.1871 0.73049 0.0
H1435 H 0.80956 0.1844 0.75741 0.0
H1436 H 0.79947 0.20219 0.57345 0.0
H1437 H 0.78447 0.20648 0.60049 0.0
H1438 H 0.83007 0.16917 0.62107 0.0
H1439 H 0.84513 0.16494 0.59428 0.0
H1440 H 0.3399 0.89741 0.04426 0.0
H1441 H 0.38788 0.92018 0.09181 0.0
H1442 H 0.43104 0.94526 0.0792 0.0
H1443 H 0.45518 0.96161 0.05505 0.0
H1444 H 0.40838 0.93934 1.0072 0.0
H1445 H 0.36477 0.91236 0.01955 0.0
C1446 C 0.3598 0.90758 0.05185 0.0
C1447 C 0.36047 0.90712 0.06904 0.0
C1448 C 0.38477 0.92186 0.04447 0.0
C1449 C 0.38655 0.92067 0.07864 0.0
C1450 C 0.41132 0.93484 0.07142 0.0
C1451 C 0.43551 0.95081 0.04722 0.0
C1452 C 0.43513 0.9527 0.03019 0.0
C1453 C 0.41066 0.93574 0.0544 0.0
C1454 C 0.40936 0.93823 0.02032 0.0
C1455 C 0.3844 0.92293 0.0274 0.0
H1456 H 0.13656 0.45197 0.04149 0.0
H1457 H 0.13094 0.48022 0.09044 0.0
H1458 H 0.09613 0.49166 0.07969 0.0
H1459 H 0.06844 0.49529 0.05618 0.0
H1460 H 0.07527 0.4678 1.00725 0.0
H1461 H 0.10851 0.45477 0.01821 0.0
C1462 C 0.1279 0.46082 0.04982 0.0
C1463 C 0.13655 0.46532 0.06676 0.0
C1464 C 0.10808 0.4676 0.04355 0.0
C1465 C 0.12455 0.47626 0.07737 0.0
C1466 C 0.10473 0.48298 0.07122 0.0
C1467 C 0.07708 0.48632 0.04792 0.0
C1468 C 0.06932 0.48268 0.03088 0.0
C1469 C 0.09646 0.47893 0.0543 0.0
C1470 C 0.08082 0.471 0.0204 0.0
C1471 C 0.09991 0.46351 0.02665 0.0
H1472 H 0.57556 0.68811 0.02555 0.0
H1473 H 0.59271 0.67801 0.07603 0.0
H1474 H 0.57544 0.6287 0.06855 0.0
H1475 H 0.55299 0.58763 0.04808 0.0
H1476 H 0.52951 0.59617 0.99865 0.0
H1477 H 0.55083 0.64677 1.00546 0.0
C1478 C 0.57521 0.6752 0.03503 0.0
C1479 C 0.58574 0.68719 0.05134 0.0
C1480 C 0.56378 0.64641 0.03087 0.0
C1481 C 0.58558 0.66989 0.06328 0.0
C1482 C 0.57531 0.64145 0.05908 0.0
C1483 C 0.55271 0.60068 0.03883 0.0
C1484 C 0.53993 0.58849 0.02292 0.0
C1485 C 0.56412 0.62946 0.04296 0.0
C1486 C 0.5392 0.6053 0.01102 0.0
C1487 C 0.55144 0.63415 0.01489 0.0
H1488 H 0.88907 0.35193 0.94814 0.0
H1489 H 0.87839 0.31741 0.99464 0.0
H1490 H 0.91501 0.36251 1.00825 0.0
H1491 H 0.94986 0.41159 1.00704 0.0
H1492 H 0.96173 0.44618 0.96054 0.0
H1493 H 0.92518 0.40095 0.9468 0.0
C1494 C 0.89496 0.35415 0.96122 0.0
C1495 C 0.88083 0.33126 0.97034 0.0
C1496 C 0.91629 0.38011 0.96897 0.0
C1497 C 0.88851 0.33473 0.98734 0.0
C1498 C 0.90961 0.36048 0.99513 0.0
C1499 C 0.94454 0.40932 0.99389 0.0
C1500 C 0.95851 0.43233 0.98486 0.0
C1501 C 0.92355 0.38331 0.98607 0.0
C1502 C 0.95136 0.42884 0.96781 0.0
C1503 C 0.93041 0.40299 0.95994 0.0
H1504 H 0.66237 0.51644 0.97618 0.0
H1505 H 0.66105 0.57902 0.94774 0.0
H1506 H 0.61849 0.57138 0.95893 0.0
H1507 H 0.58216 0.54801 0.97736 0.0
H1508 H 0.58572 0.4884 1.00745 0.0
H1509 H 0.62741 0.49465 0.99544 0.0
C1510 C 0.65322 0.52887 0.97255 0.0
C1511 C 0.66537 0.54838 0.96101 0.0
C1512 C 0.62914 0.52511 0.97948 0.0
C1513 C 0.65227 0.56348 0.95629 0.0
C1514 C 0.62795 0.55935 0.96284 0.0
C1515 C 0.59204 0.53636 0.98133 0.0
C1516 C 0.58068 0.5177 0.99333 0.0
C1517 C 0.61627 0.54033 0.97451 0.0
C1518 C 0.59398 0.50299 0.99834 0.0
C1519 C 0.6178 0.50648 0.99141 0.0
H1520 H 0.42802 0.08467 0.95147 0.0
H1521 H 0.39965 0.09836 0.99692 0.0
H1522 H 0.42407 0.07804 0.01141 0.0
H1523 H 0.45405 0.05711 0.01115 0.0
H1524 H 0.48252 0.0438 0.96554 0.0
H1525 H 0.45737 0.06319 0.95112 0.0
C1526 C 0.42684 0.0828 0.9645 0.0
C1527 C 0.41197 0.09282 0.97311 0.0
C1528 C 0.44109 0.07138 0.97273 0.0
C1529 C 0.41108 0.09085 0.99006 0.0
C1530 C 0.42501 0.07925 0.99833 0.0
C1531 C 0.45482 0.0585 0.99806 0.0
C1532 C 0.47024 0.0491 0.98947 0.0
C1533 C 0.44026 0.06964 0.98981 0.0
C1534 C 0.4709 0.05095 0.97249 0.0
C1535 C 0.45646 0.06199 0.96421 0.0
H1536 H 0.65713 0.14286 0.96861 0.0
H1537 H 0.65402 0.06982 0.94433 0.0
H1538 H 0.61544 0.03973 0.95931 0.0
H1539 H 0.58295 0.03384 0.97932 0.0
H1540 H 0.58631 0.10622 1.00463 0.0
H1541 H 0.62505 0.13686 0.98953 0.0
C1542 C 0.64828 0.12039 0.9667 0.0
C1543 C 0.65856 0.10878 0.95517 0.0
C1544 C 0.62631 0.10305 0.97565 0.0
C1545 C 0.64633 0.07949 0.95277 0.0
C1546 C 0.62438 0.0622 0.96148 0.0
C1547 C 0.59215 0.05633 0.98168 0.0
C1548 C 0.58166 0.06765 0.99318 0.0
C1549 C 0.61425 0.07373 0.97295 0.0
C1550 C 0.59399 0.09688 0.99594 0.0
C1551 C 0.61608 0.11441 0.98725 0.0
H1552 H 0.9243 0.57816 0.95247 0.0
H1553 H 0.85155 0.51192 0.97053 0.0
H1554 H 0.88109 0.4986 0.98623 0.0
H1555 H 0.92746 0.50474 0.99431 0.0
H1556 H 0.99985 0.56936 0.97508 0.0
H1557 H 0.97049 0.58384 0.96018 0.0
C1558 C 0.91478 0.56061 0.95969 0.0
C1559 C 0.88559 0.54619 0.96026 0.0
C1560 C 0.93186 0.55262 0.96847 0.0
C1561 C 0.87391 0.52382 0.97 0.0
C1562 C 0.8908 0.51599 0.97891 0.0
C1563 C 0.93687 0.52208 0.98693 0.0
C1564 C 0.96591 0.53594 0.98589 0.0
C1565 C 0.9198 0.53016 0.97821 0.0
C1566 C 0.97761 0.55824 0.97613 0.0
C1567 C 0.96081 0.56658 0.96759 0.0
H1568 H 0.42141 0.31716 0.999 0.0
H1569 H 0.44121 0.33023 0.94916 0.0
H1570 H 0.46426 0.38064 0.95604 0.0
H1571 H 0.47884 0.42093 0.97602 0.0
H1572 H 0.4602 0.40872 0.0261 0.0
H1573 H 0.43705 0.35804 0.01935 0.0
C1574 C 0.43094 0.33107 0.9897 0.0
C1575 C 0.42931 0.31991 0.97356 0.0
C1576 C 0.44446 0.36016 0.99377 0.0
C1577 C 0.44161 0.33822 0.9616 0.0
C1578 C 0.45501 0.36708 0.96553 0.0
C1579 C 0.46977 0.40725 0.9855 0.0
C1580 C 0.47122 0.41862 1.00153 0.0
C1581 C 0.4565 0.37825 0.98155 0.0
C1582 C 0.45939 0.40052 0.01365 0.0
C1583 C 0.44611 0.37153 0.0098 0.0
H1584 H 0.16245 0.67756 0.04922 0.0
H1585 H 0.09915 0.69421 0.0654 0.0
H1586 H 0.06284 0.64655 0.05508 0.0
H1587 H 0.049 0.60026 0.04106 0.0
H1588 H 0.11254 0.58454 0.02415 0.0
H1589 H 0.1487 0.63175 0.03503 0.0
C1590 C 0.14069 0.67091 0.05031 0.0
C1591 C 0.13358 0.68949 0.05805 0.0
C1592 C 0.11992 0.64358 0.04424 0.0
C1593 C 0.10528 0.68027 0.05965 0.0
C1594 C 0.08447 0.65304 0.05369 0.0
C1595 C 0.07077 0.60712 0.03984 0.0
C1596 C 0.078 0.58885 0.03181 0.0
C1597 C 0.09154 0.63449 0.04597 0.0
C1598 C 0.10632 0.59815 0.03023 0.0
C1599 C 0.12707 0.62518 0.03645 0.0
H1600 H 0.33685 0.45092 0.04784 0.0
H1601 H 0.3861 0.47955 0.09511 0.0
H1602 H 0.42868 0.49471 0.08187 0.0
H1603 H 0.45212 0.49978 0.05707 0.0
H1604 H 0.40362 0.47099 1.00959 0.0
H1605 H 0.36079 0.4567 0.02271 0.0
C1606 C 0.3569 0.4607 0.05525 0.0
C1607 C 0.35805 0.46383 0.07253 0.0
C1608 C 0.38155 0.46956 0.04751 0.0
C1609 C 0.38434 0.47633 0.08186 0.0
C1610 C 0.40882 0.48524 0.07427 0.0
C1611 C 0.43225 0.4904 0.0495 0.0
C1612 C 0.4313 0.48645 0.03229 0.0
C1613 C 0.40768 0.48188 0.05713 0.0
C1614 C 0.40517 0.47438 0.02283 0.0
C1615 C 0.38059 0.4661 0.03034 0.0
H1616 H 0.57668 0.92641 0.07384 0.0
H1617 H 0.5845 0.88988 0.02797 0.0
H1618 H 0.56299 0.91218 0.0129 0.0
H1619 H 0.54318 0.94344 0.01268 0.0
H1620 H 0.53964 0.98309 0.05855 0.0
H1621 H 0.5586 0.95852 0.07365 0.0
C1622 C 0.57412 0.92361 0.06054 0.0
C1623 C 0.58222 0.9064 0.05213 0.0
C1624 C 0.56247 0.93709 0.05192 0.0
C1625 C 0.57807 0.9026 0.03485 0.0
C1626 C 0.56592 0.91551 0.02618 0.0
C1627 C 0.54643 0.94646 0.02597 0.0
C1628 C 0.54008 0.96492 0.03453 0.0
C1629 C 0.55809 0.93286 0.03458 0.0
C1630 C 0.5446 0.96904 0.05174 0.0
C1631 C 0.55539 0.95501 0.06037 0.0
H1632 H 0.01175 0.20039 0.38471 0.0
H1633 H 0.00941 0.27492 0.4006 0.0
H1634 H 0.04904 0.30274 0.38571 0.0
H1635 H 0.08509 0.30645 0.36897 0.0
H1636 H 0.08771 0.2326 0.35215 0.0
H1637 H 0.04649 0.20379 0.36614 0.0
C1638 C 0.01965 0.22265 0.38476 0.0
C1639 C 0.00773 0.23551 0.39404 0.0
C1640 C 0.04232 0.23862 0.3759 0.0
C1641 C 0.01851 0.26447 0.39399 0.0
C1642 C 0.04105 0.28042 0.38533 0.0
C1643 C 0.07661 0.28401 0.36826 0.0
C1644 C 0.08959 0.27171 0.35964 0.0
C1645 C 0.05325 0.26777 0.3764 0.0
C1646 C 0.07806 0.24257 0.35866 0.0
C1647 C 0.05462 0.22615 0.36676 0.0
H1648 H 0.79719 0.78395 0.37131 0.0
H1649 H 0.79201 0.81224 0.42037 0.0
H1650 H 0.75636 0.82267 0.40983 0.0
H1651 H 0.72749 0.82494 0.38658 0.0
H1652 H 0.73373 0.79762 0.33748 0.0
H1653 H 0.76839 0.78611 0.34815 0.0
C1654 C 0.78848 0.79263 0.37971 0.0
C1655 C 0.79744 0.79735 0.39663 0.0
C1656 C 0.76821 0.7989 0.37355 0.0
C1657 C 0.78537 0.80806 0.40732 0.0
C1658 C 0.76509 0.81424 0.40129 0.0
C1659 C 0.73638 0.81644 0.37819 0.0
C1660 C 0.72794 0.81224 0.36121 0.0
C1661 C 0.75645 0.80988 0.38441 0.0
C1662 C 0.73977 0.80116 0.35058 0.0
C1663 C 0.75964 0.79454 0.35668 0.0
H1664 H 0.24224 1.00087 0.39553 0.0
H1665 H 0.27156 0.02637 0.34867 0.0
H1666 H 0.25162 0.97736 0.33785 0.0
H1667 H 0.22577 0.92739 0.34177 0.0
H1668 H 0.19836 0.90253 0.3891 0.0
H1669 H 0.21832 0.95145 0.39979 0.0
C1670 C 0.24481 0.99584 0.38303 0.0
C1671 C 0.25855 0.01732 0.37296 0.0
C1672 C 0.23366 0.96777 0.37699 0.0
C1673 C 0.2609 0.01025 0.35665 0.0
C1674 C 0.24962 0.98225 0.35048 0.0
C1675 C 0.22415 0.93267 0.35442 0.0
C1676 C 0.2105 0.91135 0.36461 0.0
C1677 C 0.23586 0.96086 0.36053 0.0
C1678 C 0.20879 0.91854 0.38101 0.0
C1679 C 0.22015 0.94649 0.38713 0.0
H1680 H 0.54728 0.66693 0.28419 0.0
H1681 H 0.55641 0.63363 0.32886 0.0
H1682 H 0.58911 0.68082 0.34175 0.0
H1683 H 0.61445 0.73152 0.34054 0.0
H1684 H 0.60673 0.76488 0.29561 0.0
H1685 H 0.57438 0.71762 0.28257 0.0
C1686 C 0.55676 0.66994 0.29666 0.0
C1687 C 0.54924 0.64675 0.30556 0.0
C1688 C 0.5757 0.69714 0.30398 0.0
C1689 C 0.56146 0.65112 0.3218 0.0
C1690 C 0.58025 0.67809 0.32917 0.0
C1691 C 0.60565 0.72848 0.32791 0.0
C1692 C 0.61285 0.75171 0.31911 0.0
C1693 C 0.5873 0.70126 0.32043 0.0
C1694 C 0.60152 0.74736 0.30267 0.0
C1695 C 0.58301 0.72034 0.2952 0.0
H1696 H 0.34323 0.87691 0.31243 0.0
H1697 H 0.29983 0.85545 0.26363 0.0
H1698 H 0.2562 0.84391 0.27515 0.0
H1699 H 0.22992 0.83849 0.29926 0.0
H1700 H 0.27404 0.85897 0.34788 0.0
H1701 H 0.31744 0.87166 0.33621 0.0
C1702 C 0.32422 0.86942 0.30425 0.0
C1703 C 0.32499 0.8669 0.28714 0.0
C1704 C 0.29912 0.86241 0.31095 0.0
C1705 C 0.30011 0.85786 0.27683 0.0
C1706 C 0.27503 0.85104 0.28342 0.0
C1707 C 0.249 0.8457 0.30731 0.0
C1708 C 0.24845 0.84759 0.32449 0.0
C1709 C 0.27421 0.85302 0.30049 0.0
C1710 C 0.27356 0.85713 0.33466 0.0
C1711 C 0.29854 0.86447 0.32798 0.0
H1712 H 0.09418 0.43069 0.31398 0.0
H1713 H 0.09376 0.39643 0.2652 0.0
H1714 H 0.11246 0.3689 0.2768 0.0
H1715 H 0.13093 0.35612 0.30069 0.0
H1716 H 0.13643 0.39461 0.34906 0.0
H1717 H 0.11479 0.41996 0.33759 0.0
C1718 C 0.09858 0.41765 0.30577 0.0
C1719 C 0.09255 0.41588 0.28867 0.0
C1720 C 0.1106 0.4029 0.31245 0.0
C1721 C 0.09764 0.39798 0.2784 0.0
C1722 C 0.10868 0.38243 0.28502 0.0
C1723 C 0.12732 0.37005 0.3087 0.0
C1724 C 0.13508 0.3735 0.32567 0.0
C1725 C 0.11547 0.38494 0.302 0.0
C1726 C 0.13072 0.39182 0.33593 0.0
C1727 C 0.11824 0.40616 0.3294 0.0
H1728 H 0.30051 0.42735 0.28285 0.0
H1729 H 0.35739 0.42416 0.31972 0.0
H1730 H 0.31951 0.40138 0.33711 0.0
H1731 H 0.2694 0.38099 0.3414 0.0
H1732 H 0.21357 0.38568 0.30429 0.0
H1733 H 0.25169 0.40939 0.28762 0.0
C1734 C 0.30451 0.4214 0.29462 0.0
C1735 C 0.33153 0.42704 0.2999 0.0
C1736 C 0.28281 0.40881 0.30463 0.0
C1737 C 0.33664 0.41986 0.31537 0.0
C1738 C 0.31502 0.40692 0.32532 0.0
C1739 C 0.26579 0.38771 0.32982 0.0
C1740 C 0.23863 0.38142 0.3241 0.0
C1741 C 0.28794 0.40126 0.32009 0.0
C1742 C 0.23421 0.39002 0.30896 0.0
C1743 C 0.256 0.40354 0.29935 0.0
H1744 H 0.53984 0.87708 0.30666 0.0
H1745 H 0.56817 0.87189 0.25947 0.0
H1746 H 0.60143 0.86032 0.27203 0.0
H1747 H 0.62308 0.85188 0.29636 0.0
H1748 H 0.59218 0.85249 0.34311 0.0
H1749 H 0.55908 0.86501 0.33072 0.0
C1750 C 0.55294 0.87305 0.29903 0.0
C1751 C 0.55166 0.87607 0.28211 0.0
C1752 C 0.57168 0.8655 0.30627 0.0
C1753 C 0.56912 0.87077 0.27258 0.0
C1754 C 0.58809 0.86384 0.27973 0.0
C1755 C 0.60913 0.85482 0.30384 0.0
C1756 C 0.61028 0.85154 0.32066 0.0
C1757 C 0.58974 0.86139 0.29657 0.0
C1758 C 0.59172 0.8549 0.33013 0.0
C1759 C 0.57282 0.86211 0.32305 0.0
H1760 H 0.07987 0.6488 0.30616 0.0
H1761 H 0.15733 0.65129 0.32069 0.0
H1762 H 0.17777 0.69962 0.33275 0.0
H1763 H 0.17441 0.74183 0.33794 0.0
H1764 H 0.09755 0.73983 0.32225 0.0
H1765 H 0.07628 0.69074 0.31165 0.0
C1766 C 0.10128 0.65997 0.31188 0.0
C1767 C 0.11705 0.64648 0.31247 0.0
C1768 C 0.11309 0.68788 0.31848 0.0
C1769 C 0.14459 0.66106 0.32023 0.0
C1770 C 0.15639 0.68877 0.32702 0.0
C1771 C 0.15297 0.73063 0.33227 0.0
C1772 C 0.13766 0.74451 0.33082 0.0
C1773 C 0.14092 0.70247 0.32606 0.0
C1774 C 0.10988 0.7297 0.32344 0.0
C1775 C 0.09767 0.7016 0.31738 0.0
H1776 H 0.79636 0.01272 0.36597 0.0
H1777 H 0.77902 0.9983 0.41612 0.0
H1778 H 0.74332 0.95006 0.40719 0.0
H1779 H 0.71768 0.91126 0.3852 0.0
H1780 H 0.73893 0.92453 0.33568 0.0
H1781 H 0.77283 0.97369 0.34438 0.0
C1782 C 0.78515 0.99903 0.37504 0.0
C1783 C 0.79038 0.00947 0.39169 0.0
C1784 C 0.76533 0.97095 0.36993 0.0
C1785 C 0.7751 0.99127 0.40314 0.0
C1786 C 0.75478 0.96349 0.39809 0.0
C1787 C 0.7297 0.92503 0.37636 0.0
C1788 C 0.72585 0.9145 0.35986 0.0
C1789 C 0.74974 0.95308 0.38152 0.0
C1790 C 0.74172 0.93229 0.34849 0.0
C1791 C 0.76103 0.96036 0.35343 0.0
H1792 H 0.04477 0.7989 0.41531 0.0
H1793 H 0.98808 0.77951 0.37163 0.0
H1794 H 0.02617 0.79141 0.3547 0.0
H1795 H 0.07582 0.80622 0.35204 0.0
H1796 H 0.13098 0.82163 0.39572 0.0
H1797 H 0.09344 0.81212 0.41269 0.0
C1798 C 0.04051 0.79687 0.40209 0.0
C1799 C 0.01334 0.78842 0.39493 0.0
C1800 C 0.06244 0.8031 0.3923 0.0
C1801 C 0.00873 0.7865 0.37768 0.0
C1802 C 0.03054 0.79312 0.3679 0.0
C1803 C 0.0796 0.80771 0.36527 0.0
C1804 C 0.10626 0.81473 0.37257 0.0
C1805 C 0.05754 0.80146 0.37505 0.0
C1806 C 0.11069 0.81618 0.38974 0.0
C1807 C 0.08919 0.81074 0.3995 0.0
H1808 H 0.23055 0.23426 0.40227 0.0
H1809 H 0.27519 0.23726 0.36069 0.0
H1810 H 0.25209 0.25847 0.34569 0.0
H1811 H 0.21953 0.27683 0.34469 0.0
H1812 H 0.1753 0.27332 0.3867 0.0
H1813 H 0.19787 0.25163 0.40118 0.0
C1814 C 0.2355 0.2399 0.39001 0.0
C1815 C 0.25474 0.23453 0.38266 0.0
C1816 C 0.22204 0.25181 0.38148 0.0
C1817 C 0.26043 0.24125 0.3666 0.0
C1818 C 0.24723 0.25335 0.35803 0.0
C1819 C 0.21466 0.27105 0.35694 0.0
C1820 C 0.1958 0.27677 0.36458 0.0
C1821 C 0.22794 0.2587 0.36535 0.0
C1822 C 0.18982 0.2693 0.38052 0.0
C1823 C 0.20275 0.25692 0.38886 0.0
H1824 H 0.70695 0.57207 0.73914 0.0
H1825 H 0.65249 0.57429 0.70017 0.0
H1826 H 0.6917 0.59665 0.68368 0.0
H1827 H 0.74217 0.61691 0.6807 0.0
H1828 H 0.79583 0.61372 0.71994 0.0
H1829 H 0.75639 0.59027 0.73576 0.0
C1830 C 0.70376 0.57771 0.7271 0.0
C1831 C 0.67698 0.57185 0.72097 0.0
C1832 C 0.72627 0.59016 0.71762 0.0
C1833 C 0.67298 0.57869 0.70518 0.0
C1834 C 0.69538 0.59141 0.69573 0.0
C1835 C 0.74507 0.6106 0.69257 0.0
C1836 C 0.77196 0.61715 0.69909 0.0
C1837 C 0.72218 0.59727 0.70181 0.0
C1838 C 0.77541 0.60909 0.71461 0.0
C1839 C 0.75286 0.59573 0.72375 0.0
H1840 H 0.48028 0.1581 0.71592 0.0
H1841 H 0.41975 0.08444 0.73631 0.0
H1842 H 0.38221 0.09151 0.72516 0.0
H1843 H 0.3662 0.11832 0.7093 0.0
H1844 H 0.42664 0.19027 0.68762 0.0
H1845 H 0.46424 0.18369 0.69927 0.0
C1846 C 0.45888 0.14329 0.71777 0.0
C1847 C 0.45314 0.12082 0.72709 0.0
C1848 C 0.43719 0.1471 0.71101 0.0
C1849 C 0.42513 0.10228 0.72952 0.0
C1850 C 0.40349 0.10616 0.72301 0.0
C1851 C 0.38759 0.13258 0.70713 0.0
C1852 C 0.39347 0.15478 0.69758 0.0
C1853 C 0.40925 0.12852 0.71374 0.0
C1854 C 0.42137 0.17291 0.69484 0.0
C1855 C 0.44297 0.16922 0.70154 0.0
H1856 H 0.87899 0.35573 0.70309 0.0
H1857 H 0.9595 0.36323 0.71501 0.0
H1858 H 0.9395 0.31323 0.7069 0.0
H1859 H 0.89884 0.26726 0.69723 0.0
H1860 H 0.81852 0.26005 0.68486 0.0
H1861 H 0.83882 0.3102 0.6923 0.0
C1862 C 0.89228 0.34653 0.7036 0.0
C1863 C 0.92066 0.36311 0.70961 0.0
C1864 C 0.88063 0.31782 0.69902 0.0
C1865 C 0.93752 0.3508 0.71052 0.0
C1866 C 0.92611 0.32225 0.7059 0.0
C1867 C 0.88575 0.27664 0.69624 0.0
C1868 C 0.8572 0.25996 0.69062 0.0
C1869 C 0.89761 0.30551 0.70036 0.0
C1870 C 0.84058 0.27246 0.68918 0.0
C1871 C 0.85216 0.30112 0.69341 0.0
H1872 H 0.20506 0.99063 0.64871 0.0
H1873 H 0.22142 0.00973 0.59904 0.0
H1874 H 0.25809 0.05727 0.60917 0.0
H1875 H 0.2841 0.09442 0.63223 0.0
H1876 H 0.26429 0.07562 0.68147 0.0
H1877 H 0.23027 0.0272 0.67142 0.0
C1878 C 0.21636 0.00522 0.64005 0.0
C1879 C 0.21032 0.9965 0.62314 0.0
C1880 C 0.23688 0.03271 0.6459 0.0
C1881 C 0.22578 0.01565 0.61216 0.0
C1882 C 0.24668 0.04296 0.61792 0.0
C1883 C 0.27249 0.07956 0.6407 0.0
C1884 C 0.27659 0.08845 0.65752 0.0
C1885 C 0.25229 0.05182 0.63477 0.0
C1886 C 0.26128 0.0692 0.66843 0.0
C1887 C 0.24184 0.04153 0.66271 0.0
H1888 H 0.98363 0.23699 0.62335 0.0
H1889 H 0.98336 0.1643 0.63977 0.0
H1890 H 0.94222 0.15292 0.65378 0.0
H1891 H 0.90596 0.16341 0.66162 0.0
H1892 H 0.90457 0.2345 0.64394 0.0
H1893 H 0.94621 0.24637 0.63021 0.0
C1894 C 0.97442 0.21847 0.62981 0.0
C1895 C 0.98708 0.20186 0.63061 0.0
C1896 C 0.95033 0.21171 0.63776 0.0
C1897 C 0.9747 0.178 0.6392 0.0
C1898 C 0.95096 0.1713 0.64719 0.0
C1899 C 0.91487 0.1816 0.65486 0.0
C1900 C 0.90215 0.1981 0.65396 0.0
C1901 C 0.93868 0.1881 0.64668 0.0
C1902 C 0.91383 0.22137 0.64489 0.0
C1903 C 0.93771 0.22821 0.63699 0.0
H1904 H 0.74743 0.7402 0.62651 0.0
H1905 H 0.79899 0.81748 0.65783 0.0
H1906 H 0.81997 0.79529 0.67336 0.0
H1907 H 0.82626 0.7547 0.67696 0.0
H1908 H 0.77939 0.68008 0.64316 0.0
H1909 H 0.75449 0.70058 0.6295 0.0
C1910 C 0.7635 0.75244 0.63657 0.0
C1911 C 0.77141 0.78056 0.64088 0.0
C1912 C 0.77651 0.73998 0.64501 0.0
C1913 C 0.79186 0.79564 0.65432 0.0
C1914 C 0.80419 0.78305 0.66316 0.0
C1915 C 0.81035 0.74297 0.66672 0.0
C1916 C 0.8044 0.71598 0.66107 0.0
C1917 C 0.79693 0.75533 0.6585 0.0
C1918 C 0.78418 0.70095 0.64765 0.0
C1919 C 0.76999 0.71265 0.63985 0.0
H1920 H 0.00726 0.79467 0.64343 0.0
H1921 H 0.95969 0.75185 0.59671 0.0
H1922 H 0.91817 0.72521 0.61039 0.0
H1923 H 0.8956 0.71269 0.63547 0.0
H1924 H 0.941 0.75704 0.68218 0.0
H1925 H 0.98301 0.78514 0.66855 0.0
C1926 C 0.98777 0.77988 0.63616 0.0
C1927 C 0.98704 0.77502 0.61899 0.0
C1928 C 0.96354 0.76497 0.64409 0.0
C1929 C 0.96139 0.75552 0.60993 0.0
C1930 C 0.93744 0.7404 0.61773 0.0
C1931 C 0.91463 0.72863 0.64269 0.0
C1932 C 0.91531 0.7326 0.65982 0.0
C1933 C 0.93838 0.74469 0.63479 0.0
C1934 C 0.93998 0.75362 0.66897 0.0
C1935 C 0.96399 0.76955 0.66118 0.0
H1936 H 0.20696 0.2216 0.64332 0.0
H1937 H 0.21716 0.19352 0.59544 0.0
H1938 H 0.24945 0.18035 0.60785 0.0
H1939 H 0.27512 0.17696 0.63218 0.0
H1940 H 0.26438 0.20396 0.6802 0.0
H1941 H 0.23174 0.21691 0.66784 0.0
C1942 C 0.216 0.21232 0.6356 0.0
C1943 C 0.2097 0.20882 0.61842 0.0
C1944 C 0.23448 0.20452 0.64284 0.0
C1945 C 0.22195 0.19702 0.60865 0.0
C1946 C 0.24032 0.18928 0.61574 0.0
C1947 C 0.26564 0.18563 0.63999 0.0
C1948 C 0.27233 0.18949 0.65713 0.0
C1949 C 0.24685 0.19304 0.63281 0.0
C1950 C 0.25969 0.20071 0.66698 0.0
C1951 C 0.241 0.20817 0.65992 0.0
H1952 H 0.77065 0.00666 0.62507 0.0
H1953 H 0.7378 0.97939 0.67092 0.0
H1954 H 0.75617 0.02803 0.68201 0.0
H1955 H 0.7818 0.07829 0.67863 0.0
H1956 H 0.81323 0.10489 0.63233 0.0
H1957 H 0.7948 0.05636 0.6214 0.0
C1958 C 0.76702 0.01126 0.63739 0.0
C1959 C 0.75274 0.9894 0.64712 0.0
C1960 C 0.77748 0.03914 0.64362 0.0
C1961 C 0.74889 0.99584 0.66321 0.0
C1962 C 0.75932 0.02363 0.66954 0.0
C1963 C 0.78468 0.07346 0.66617 0.0
C1964 C 0.79893 0.09517 0.65633 0.0
C1965 C 0.77379 0.04545 0.65988 0.0
C1966 C 0.8023 0.08857 0.64016 0.0
C1967 C 0.79178 0.06083 0.63389 0.0
H1968 H 0.45411 0.33644 0.73375 0.0
H1969 H 0.44868 0.36778 0.68762 0.0
H1970 H 0.41459 0.32038 0.6755 0.0
H1971 H 0.38672 0.27005 0.67795 0.0
H1972 H 0.39137 0.23911 0.72438 0.0
H1973 H 0.42505 0.28652 0.73649 0.0
C1974 C 0.44515 0.33302 0.72111 0.0
C1975 C 0.45396 0.35567 0.71162 0.0
C1976 C 0.42544 0.30579 0.71427 0.0
C1977 C 0.44254 0.35069 0.69516 0.0
C1978 C 0.42294 0.32362 0.68824 0.0
C1979 C 0.39507 0.27365 0.69073 0.0
C1980 C 0.38656 0.25102 0.70022 0.0
C1981 C 0.41437 0.301 0.69766 0.0
C1982 C 0.3975 0.25612 0.71678 0.0
C1983 C 0.4168 0.28324 0.72373 0.0
H1984 H 0.65884 0.11665 0.7125 0.0
H1985 H 0.70833 0.14461 0.7597 0.0
H1986 H 0.7508 0.15989 0.74632 0.0
H1987 H 0.77416 0.16579 0.72129 0.0
H1988 H 0.72511 0.13896 0.67399 0.0
H1989 H 0.68243 0.12336 0.68736 0.0
C1990 C 0.6789 0.12635 0.7199 0.0
C1991 C 0.68012 0.12928 0.73717 0.0
C1992 C 0.70346 0.13549 0.71209 0.0
C1993 C 0.70647 0.14154 0.74644 0.0
C1994 C 0.7309 0.15054 0.73878 0.0
C1995 C 0.75419 0.15662 0.71385 0.0
C1996 C 0.75303 0.15366 0.69659 0.0
C1997 C 0.72967 0.14763 0.72162 0.0
C1998 C 0.7268 0.14162 0.68726 0.0
C1999 C 0.70231 0.13263 0.69491 0.0
H2000 H 0.92031 0.57065 0.70474 0.0
H2001 H 0.91896 0.60157 0.7541 0.0
H2002 H 0.89866 0.62809 0.74331 0.0
H2003 H 0.88073 0.64226 0.72002 0.0
H2004 H 0.87674 0.6075 0.67089 0.0
H2005 H 0.89877 0.5818 0.68152 0.0
C2006 C 0.9152 0.58273 0.71323 0.0
C2007 C 0.92169 0.58421 0.73029 0.0
C2008 C 0.90233 0.59709 0.70698 0.0
C2009 C 0.91518 0.60055 0.74093 0.0
C2010 C 0.90318 0.61553 0.73478 0.0
C2011 C 0.88473 0.62905 0.71165 0.0
C2012 C 0.8775 0.62691 0.69473 0.0
C2013 C 0.89674 0.61399 0.71786 0.0
C2014 C 0.88219 0.60937 0.68399 0.0
C2015 C 0.89486 0.59482 0.69006 0.0
H2016 H 0.45588 0.99447 0.17461 0.0
H2017 H 0.48462 0.93583 0.16593 0.0
H2018 H 0.4993 0.95344 0.13974 0.0
H2019 H 0.50511 0.98609 0.1195 0.0
H2020 H 0.47536 0.04406 0.12746 0.0
H2021 H 0.46028 0.02633 0.15366 0.0
C2022 C 0.4651 0.98537 0.16691 0.0
C2023 C 0.46934 0.964 0.17239 0.0
C2024 C 0.47357 0.99564 0.15174 0.0
C2025 C 0.48154 0.95263 0.16224 0.0
C2026 C 0.48985 0.96261 0.14718 0.0
C2027 C 0.49503 0.99468 0.12683 0.0
C2028 C 0.49152 0.01651 0.12141 0.0
C2029 C 0.48616 0.98422 0.14185 0.0
C2030 C 0.47882 0.02759 0.13135 0.0
C2031 C 0.46996 0.0173 0.14632 0.0
H2032 H 0.02914 0.49214 0.17604 0.0
H2033 H 0.96813 0.51645 0.18545 0.0
H2034 H 0.95623 0.51378 0.15596 0.0
H2035 H 0.9647 0.50652 0.1276 0.0
H2036 H 0.02558 0.48192 0.11827 0.0
H2037 H 0.0361 0.48285 0.14769 0.0
C2038 C 0.01289 0.49637 0.17163 0.0
C2039 C 0.9995 0.50444 0.18288 0.0
C2040 C 0.00637 0.49505 0.15471 0.0
C2041 C 0.97887 0.51039 0.177 0.0
C2042 C 0.97205 0.50884 0.16017 0.0
C2043 C 0.98002 0.50103 0.13199 0.0
C2044 C 0.99442 0.4943 0.12076 0.0
C2045 C 0.98591 0.50152 0.14891 0.0
C2046 C 0.01451 0.48762 0.12667 0.0
C2047 C 0.02041 0.48795 0.14348 0.0
H2048 H 0.48547 0.47527 0.18094 0.0
H2049 H 0.43547 0.51216 0.16799 0.0
H2050 H 0.44261 0.50779 0.13902 0.0
H2051 H 0.46727 0.49795 0.11797 0.0
H2052 H 0.51707 0.46064 0.13115 0.0
H2053 H 0.50584 0.46065 0.15935 0.0
C2054 C 0.47562 0.48168 0.17166 0.0
C2055 C 0.45977 0.49374 0.17643 0.0
C2056 C 0.48017 0.47943 0.15512 0.0
C2057 C 0.44743 0.50245 0.16446 0.0
C2058 C 0.45171 0.50016 0.14795 0.0
C2059 C 0.4752 0.48927 0.1269 0.0
C2060 C 0.49342 0.47975 0.12241 0.0
C2061 C 0.46863 0.4893 0.14319 0.0
C2062 C 0.50358 0.46875 0.13428 0.0
C2063 C 0.49706 0.4686 0.15043 0.0
H2064 H 0.04146 0.54624 0.84269 0.0
H2065 H 0.98326 0.45765 0.8408 0.0
H2066 H 0.99005 0.46019 0.87058 0.0
H2067 H 0.01299 0.48723 0.89709 0.0
H2068 H 0.0715 0.57573 0.89944 0.0
H2069 H 0.06412 0.57366 0.86955 0.0
C2070 C 0.0302 0.52759 0.84885 0.0
C2071 C 0.01209 0.50178 0.83958 0.0
C2072 C 0.03424 0.52917 0.86602 0.0
C2073 C 0.99771 0.47768 0.84766 0.0
C2074 C 1.00143 0.47913 0.86469 0.0
C2075 C 0.02385 0.50613 0.89107 0.0
C2076 C 0.04262 0.5316 0.90041 0.0
C2077 C 0.01969 0.50471 0.87397 0.0
C2078 C 0.05702 0.55584 0.89245 0.0
C2079 C 0.05277 0.55467 0.87539 0.0
H2080 H 0.52609 0.46307 0.84734 0.0
H2081 H 0.55144 0.54827 0.83938 0.0
H2082 H 0.54386 0.55737 0.86765 0.0
H2083 H 0.52678 0.53989 0.89406 0.0
H2084 H 0.50082 0.45419 0.90134 0.0
H2085 H 0.5118 0.44651 0.87394 0.0
C2086 C 0.53009 0.48369 0.85182 0.0
C2087 C 0.53904 0.50489 0.84122 0.0
C2088 C 0.52535 0.4886 0.86794 0.0
C2089 C 0.54465 0.53164 0.8473 0.0
C2090 C 0.54009 0.53675 0.86342 0.0
C2091 C 0.52355 0.51955 0.88963 0.0
C2092 C 0.51288 0.49762 0.89977 0.0
C2093 C 0.52988 0.51521 0.87375 0.0
C2094 C 0.50922 0.47151 0.89391 0.0
C2095 C 0.51537 0.46704 0.87819 0.0
H2096 H 0.5609 0.06094 0.8571 0.0
H2097 H 0.47707 1.00037 0.83611 0.0
H2098 H 0.4671 0.9794 0.86187 0.0
H2099 H 0.48109 0.97964 0.89079 0.0
H2100 H 0.56494 0.03965 0.91208 0.0
H2101 H 0.57582 0.05945 0.88594 0.0
C2102 C 0.5406 0.04293 0.85812 0.0
C2103 C 0.5197 0.03245 0.84469 0.0
C2104 C 0.53485 0.03099 0.87312 0.0
C2105 C 0.49342 0.00917 0.84629 0.0
C2106 C 0.48769 0.99709 0.86103 0.0
C2107 C 0.50191 0.99676 0.8897 0.0
C2108 C 0.52206 0.00811 0.90352 0.0
C2109 C 0.50808 0.00805 0.8746 0.0
C2110 C 0.54879 0.03068 0.9018 0.0
C2111 C 0.55512 0.04195 0.88679 0.0
H2112 H 0.13552 0.26853 0.5018 0.0
H2113 H 0.10645 0.32555 0.51484 0.0
H2114 H 0.11901 0.34594 0.48895 0.0
H2115 H 0.13898 0.34811 0.46262 0.0
H2116 H 0.16849 0.29126 0.45004 0.0
H2117 H 0.15524 0.27057 0.47568 0.0
C2118 C 0.13209 0.28556 0.49907 0.0
C2119 C 0.12008 0.29547 0.51038 0.0
C2120 C 0.1395 0.29732 0.48418 0.0
C2121 C 0.11535 0.31722 0.50637 0.0
C2122 C 0.12272 0.32906 0.49158 0.0
C2123 C 0.14268 0.33131 0.46553 0.0
C2124 C 0.1547 0.32128 0.45429 0.0
C2125 C 0.13494 0.31938 0.4804 0.0
C2126 C 0.15896 0.29922 0.45826 0.0
C2127 C 0.15151 0.28742 0.473 0.0
H2128 H 0.70603 0.88373 0.51157 0.0
H2129 H 0.65903 0.79619 0.51865 0.0
H2130 H 0.64541 0.7841 0.48911 0.0
H2131 H 0.64607 0.79851 0.46133 0.0
H2132 H 0.69227 0.88618 0.45442 0.0
H2133 H 0.707 0.89809 0.48384 0.0
C2134 C 0.69264 0.86201 0.50667 0.0
C2135 C 0.68345 0.84091 0.51732 0.0
C2136 C 0.68477 0.85523 0.4897 0.0
C2137 C 0.66658 0.81282 0.51071 0.0
C2138 C 0.65866 0.8059 0.49383 0.0
C2139 C 0.65921 0.82023 0.46628 0.0
C2140 C 0.66798 0.84142 0.45568 0.0
C2141 C 0.66749 0.82695 0.48322 0.0
C2142 C 0.68544 0.86944 0.46226 0.0
C2143 C 0.69375 0.87629 0.4791 0.0
H2144 H 0.18538 0.82621 0.5153 0.0
H2145 H 0.10149 0.80713 0.49965 0.0
H2146 H 0.10806 0.79851 0.47114 0.0
H2147 H 0.13931 0.80079 0.45046 0.0
H2148 H 0.22379 0.82175 0.46636 0.0
H2149 H 0.21535 0.82528 0.49494 0.0
C2150 C 0.16845 0.81995 0.50565 0.0
C2151 C 0.1431 0.81761 0.50955 0.0
C2152 C 0.1726 0.81566 0.48931 0.0
C2153 C 0.12116 0.80894 0.49698 0.0
C2154 C 0.12502 0.80429 0.48066 0.0
C2155 C 0.15584 0.80609 0.46019 0.0
C2156 C 0.18221 0.8112 0.45626 0.0
C2157 C 0.15092 0.80834 0.47664 0.0
C2158 C 0.20325 0.81753 0.46902 0.0
C2159 C 0.19849 0.81969 0.48538 0.0
H2160 H 0.65799 0.85793 0.17412 0.0
H2161 H 0.73374 0.856 0.16823 0.0
H2162 H 0.74343 0.85937 0.19798 0.0
H2163 H 0.72839 0.85893 0.22534 0.0
H2164 H 0.65245 0.86049 0.23144 0.0
H2165 H 0.64461 0.86087 0.20186 0.0
C2166 C 0.67692 0.85889 0.1794 0.0
C2167 C 0.69515 0.85673 0.16905 0.0
C2168 C 0.68205 0.86026 0.19648 0.0
C2169 C 0.71937 0.8575 0.17599 0.0
C2170 C 0.72486 0.85935 0.19297 0.0
C2171 C 0.71038 0.85988 0.22026 0.0
C2172 C 0.691 0.8596 0.2306 0.0
C2173 C 0.70604 0.86013 0.20329 0.0
C2174 C 0.66749 0.86028 0.22374 0.0
C2175 C 0.66308 0.86068 0.20684 0.0
H2176 H 0.16496 0.84342 0.17658 0.0
H2177 H 0.25095 0.86687 0.18969 0.0
H2178 H 0.24619 0.87528 0.21858 0.0
H2179 H 0.21629 0.8719 0.24034 0.0
H2180 H 0.1294 0.84519 0.22688 0.0
H2181 H 0.13595 0.84236 0.19801 0.0
C2182 C 0.18271 0.85043 0.18575 0.0
C2183 C 0.20816 0.85415 0.18097 0.0
C2184 C 0.17963 0.85455 0.20234 0.0
C2185 C 0.23114 0.86393 0.19298 0.0
C2186 C 0.22835 0.86851 0.20954 0.0
C2187 C 0.19878 0.86548 0.23111 0.0
C2188 C 0.17235 0.85872 0.23592 0.0
C2189 C 0.20248 0.86321 0.2144 0.0
C2190 C 0.15008 0.85095 0.22368 0.0
C2191 C 0.15372 0.84905 0.20709 0.0
H2192 H 0.15783 0.34099 0.17671 0.0
H2193 H 0.24519 0.39857 0.19213 0.0
H2194 H 0.23969 0.38114 0.21909 0.0
H2195 H 0.20964 0.35044 0.23868 0.0
H2196 H 0.12214 0.29355 0.22314 0.0
H2197 H 0.12814 0.3099 0.19598 0.0
C2198 C 0.17569 0.34986 0.18598 0.0
C2199 C 0.20188 0.37124 0.18234 0.0
C2200 C 0.17233 0.33988 0.20152 0.0
C2201 C 0.22484 0.38197 0.19446 0.0
C2202 C 0.22166 0.37214 0.20996 0.0
C2203 C 0.19185 0.34171 0.22938 0.0
C2204 C 0.16544 0.32073 0.23304 0.0
C2205 C 0.19544 0.35127 0.21369 0.0
C2206 C 0.14276 0.30943 0.22069 0.0
C2207 C 0.14614 0.31889 0.20514 0.0
H2208 H 0.79414 0.65451 0.84384 0.0
H2209 H 0.81812 0.59211 0.83531 0.0
H2210 H 0.83322 0.60882 0.80894 0.0
H2211 H 0.84071 0.64182 0.78843 0.0
H2212 H 0.81614 0.70384 0.79671 0.0
H2213 H 0.8004 0.68671 0.82289 0.0
C2214 C 0.80238 0.64436 0.83614 0.0
C2215 C 0.80507 0.62213 0.84169 0.0
C2216 C 0.81117 0.65415 0.82091 0.0
C2217 C 0.81615 0.60951 0.83154 0.0
C2218 C 0.82471 0.61899 0.81639 0.0
C2219 C 0.83167 0.65145 0.79586 0.0
C2220 C 0.82985 0.67428 0.79052 0.0
C2221 C 0.8225 0.64141 0.81097 0.0
C2222 C 0.81834 0.6866 0.80053 0.0
C2223 C 0.80911 0.67668 0.81551 0.0
H2224 H 0.35438 0.19781 0.84841 0.0
H2225 H 0.29235 0.11228 0.85293 0.0
H2226 H 0.28244 0.10283 0.82299 0.0
H2227 H 0.29061 0.11955 0.79563 0.0
H2228 H 0.35243 0.20547 0.79155 0.0
H2229 H 0.3634 0.21409 0.82128 0.0
C2230 C 0.33853 0.17715 0.84283 0.0
C2231 C 0.32382 0.15586 0.8528 0.0
C2232 C 0.33303 0.17195 0.82573 0.0
C2233 C 0.30389 0.12899 0.84546 0.0
C2234 C 0.29819 0.12363 0.82838 0.0
C2235 C 0.30643 0.14016 0.80128 0.0
C2236 C 0.32065 0.16185 0.79141 0.0
C2237 C 0.31249 0.14504 0.81841 0.0
C2238 C 0.34142 0.18834 0.79885 0.0
C2239 C 0.34756 0.19335 0.81586 0.0
H2240 H 0.77681 0.16712 0.83254 0.0
H2241 H 0.85607 0.17908 0.85294 0.0
H2242 H 0.86717 0.17127 0.82555 0.0
H2243 H 0.85638 0.16538 0.79576 0.0
H2244 H 0.77729 0.15348 0.77495 0.0
H2245 H 0.76424 0.15713 0.80246 0.0
C2246 C 0.79623 0.16744 0.83096 0.0
C2247 C 0.81568 0.17386 0.84471 0.0
C2248 C 0.80273 0.1634 0.81509 0.0
C2249 C 0.8409 0.17447 0.84251 0.0
C2250 C 0.84728 0.17004 0.82686 0.0
C2251 C 0.83603 0.16299 0.79719 0.0
C2252 C 0.81799 0.15937 0.78324 0.0
C2253 C 0.82866 0.16515 0.81303 0.0
C2254 C 0.79186 0.15679 0.78544 0.0
C2255 C 0.78429 0.15872 0.80118 0.0
H2256 H 0.35121 0.19728 0.50708 0.0
H2257 H 0.28922 0.1099 0.50568 0.0
H2258 H 0.29418 0.11337 0.5356 0.0
H2259 H 0.31683 0.14087 0.56211 0.0
H2260 H 0.38014 0.2279 0.5637 0.0
H2261 H 0.37359 0.22509 0.53383 0.0
C2262 C 0.33865 0.17912 0.51337 0.0
C2263 C 0.32003 0.15335 0.50423 0.0
C2264 C 0.34182 0.1812 0.5306 0.0
C2265 C 0.30398 0.12989 0.51249 0.0
C2266 C 0.30673 0.13186 0.52958 0.0
C2267 C 0.32936 0.15918 0.55593 0.0
C2268 C 0.34896 0.18451 0.56515 0.0
C2269 C 0.3258 0.15732 0.53875 0.0
C2270 C 0.36464 0.20819 0.55693 0.0
C2271 C 0.36104 0.20657 0.53983 0.0
H2272 H 0.8446 0.14149 0.5141 0.0
H2273 H 0.86838 0.2254 0.50395 0.0
H2274 H 0.86021 0.23594 0.53186 0.0
H2275 H 0.8436 0.21997 0.55867 0.0
H2276 H 0.81963 0.13551 0.56801 0.0
H2277 H 0.83043 0.12641 0.54085 0.0
C2278 C 0.84806 0.16212 0.51803 0.0
C2279 C 0.85672 0.18256 0.507 0.0
C2280 C 0.84309 0.16781 0.53389 0.0
C2281 C 0.86171 0.20938 0.51228 0.0
C2282 C 0.85685 0.2153 0.52817 0.0
C2283 C 0.84075 0.19961 0.5547 0.0
C2284 C 0.8308 0.17843 0.56532 0.0
C2285 C 0.84705 0.19448 0.53899 0.0
C2286 C 0.82751 0.15223 0.56013 0.0
C2287 C 0.83357 0.14696 0.54458 0.0
H2288 H 0.85539 0.73502 0.52365 0.0
H2289 H 0.88318 0.67935 0.50542 0.0
H2290 H 0.87638 0.65893 0.53155 0.0
H2291 H 0.86085 0.65576 0.55941 0.0
H2292 H 0.83192 0.71098 0.57684 0.0
H2293 H 0.84064 0.73237 0.55124 0.0
C2294 C 0.85982 0.71829 0.5253 0.0
C2295 C 0.86958 0.70865 0.51243 0.0
C2296 C 0.85556 0.70643 0.54028 0.0
C2297 C 0.87584 0.6874 0.51507 0.0
C2298 C 0.87174 0.67554 0.53 0.0
C2299 C 0.85633 0.67238 0.55758 0.0
C2300 C 0.8458 0.68172 0.57019 0.0
C2301 C 0.8613 0.68467 0.54266 0.0
C2302 C 0.84042 0.70356 0.56757 0.0
C2303 C 0.84525 0.71576 0.55284 0.0
loop_
_geom_bond_atom_site_label_1
_geom_bond_atom_site_label_2
_geom_bond_distance
_geom_bond_site_symmetry_2
_ccdc_geom_bond_type
C0 C1 1.391 . S
C0 C4 1.391 . S
C0 H42 0.948 . S
C1 C0 1.391 . S
C1 C2 1.391 . S
C2 C1 1.391 . S
C2 H58 0.947 . S
C2 C59 1.392 . S
C3 C4 1.391 . S
C3 C7 1.397 . S
C3 C59 1.419 . S
C4 C0 1.391 . S
C4 C3 1.391 . S
C4 C5 1.399 . S
C5 C4 1.399 . S
C5 C8 1.396 . S
C5 C17 1.453 . S
C5 C18 1.684 . S
H6 C30 0.948 . S
C7 C3 1.397 . S
C7 C8 1.394 . S
C7 C26 1.723 . S
C8 C5 1.396 . S
C8 C7 1.394 . S
C8 C38 1.723 . S
H9 C32 0.947 . S
H10 C33 0.948 . S
H11 C39 0.982 . S
H12 C40 0.979 . S
H13 C40 0.980 . S
H14 C40 0.983 . S
H15 C39 0.979 . S
H16 C39 0.977 . S
C17 C5 1.453 . S
C17 H46 0.982 . S
C17 H47 0.979 . S
C17 H48 0.977 . S
C18 C5 1.684 . S
C18 H43 0.979 . S
C18 H44 0.980 . S
C18 H45 0.983 . S
C19 C20 1.391 . S
C19 C24 1.391 . S
C19 H49 0.948 . S
C20 C19 1.391 . S
C20 C21 1.391 . S
C21 C20 1.391 . S
C21 C22 1.392 . S
C21 H50 0.947 . S
C22 C21 1.392 . S
C22 C23 1.419 . S
C22 H51 0.948 . S
C23 C22 1.419 . S
C23 C24 1.391 . S
C23 C27 1.397 . S
C24 C19 1.391 . S
C24 C23 1.391 . S
C24 C25 1.399 . S
C25 C24 1.399 . S
C25 C26 1.396 . S
C25 C28 1.453 . S
C25 C29 1.684 . S
C26 C7 1.723 . S
C26 C25 1.396 . S
C26 C27 1.394 . S
C27 C23 1.397 . S
C27 C26 1.394 . S
C27 C37 1.723 . S
C28 C25 1.453 . S
C28 H52 0.982 . S
C28 H53 0.979 . S
C28 H54 0.977 . S
C29 C25 1.684 . S
C29 H55 0.979 . S
C29 H56 0.980 . S
C29 H57 0.983 . S
C30 H6 0.948 . S
C30 C31 1.391 . S
C30 C35 1.391 . S
C31 C30 1.391 . S
C31 C32 1.391 . S
C32 H9 0.947 . S
C32 C31 1.391 . S
C32 C33 1.392 . S
C33 H10 0.948 . S
C33 C32 1.392 . S
C33 C34 1.419 . S
C34 C33 1.419 . S
C34 C35 1.391 . S
C34 C38 1.397 . S
C35 C30 1.391 . S
C35 C34 1.391 . S
C35 C36 1.399 . S
C36 C35 1.399 . S
C36 C37 1.396 . S
C36 C39 1.453 . S
C36 C40 1.684 . S
C37 C27 1.723 . S
C37 C36 1.396 . S
C37 C38 1.394 . S
C38 C8 1.723 . S
C38 C34 1.397 . S
C38 C37 1.394 . S
C39 H11 0.982 . S
C39 H15 0.979 . S
C39 H16 0.977 . S
C39 C36 1.453 . S
C40 H12 0.979 . S
C40 H13 0.980 . S
C40 H14 0.983 . S
C40 C36 1.684 . S
H41 C59 0.948 . S
H42 C0 0.948 . S
H43 C18 0.979 . S
H44 C18 0.980 . S
H45 C18 0.983 . S
H46 C17 0.982 . S
H47 C17 0.979 . S
H48 C17 0.977 . S
H49 C19 0.948 . S
H50 C21 0.947 . S
H51 C22 0.948 . S
H52 C28 0.982 . S
H53 C28 0.979 . S
H54 C28 0.977 . S
H55 C29 0.979 . S
H56 C29 0.980 . S
H57 C29 0.983 . S
H58 C2 0.947 . S
C59 C2 1.392 . S
C59 C3 1.419 . S
C59 H41 0.948 . S
C60 C61 1.391 . S
C60 C64 1.391 . S
C60 H102 0.948 . S
C61 C60 1.391 . S
C61 C62 1.391 . S
C62 C61 1.391 . S
C62 H118 0.947 . S
C62 C119 1.392 . S
C63 C64 1.391 . S
C63 C67 1.397 . S
C63 C119 1.419 . S
C64 C60 1.391 . S
C64 C63 1.391 . S
C64 C65 1.399 . S
C65 C64 1.399 . S
C65 C68 1.396 . S
C65 C77 1.453 . S
C65 C78 1.684 . S
H66 C90 0.948 . S
C67 C63 1.397 . S
C67 C68 1.394 . S
C67 C86 1.723 . S
C68 C65 1.396 . S
C68 C67 1.394 . S
C68 C98 1.723 . S
H69 C92 0.947 . S
H70 C93 0.948 . S
H71 C99 0.982 . S
H72 C100 0.979 . S
H73 C100 0.980 . S
H74 C100 0.983 . S
H75 C99 0.979 . S
H76 C99 0.977 . S
C77 C65 1.453 . S
C77 H106 0.982 . S
C77 H107 0.979 . S
C77 H108 0.977 . S
C78 C65 1.684 . S
C78 H103 0.979 . S
C78 H104 0.980 . S
C78 H105 0.983 . S
C79 C80 1.391 . S
C79 C84 1.391 . S
C79 H109 0.948 . S
C80 C79 1.391 . S
C80 C81 1.391 . S
C81 C80 1.391 . S
C81 C82 1.392 . S
C81 H110 0.947 . S
C82 C81 1.392 . S
C82 C83 1.419 . S
C82 H111 0.948 . S
C83 C82 1.419 . S
C83 C84 1.391 . S
C83 C87 1.397 . S
C84 C79 1.391 . S
C84 C83 1.391 . S
C84 C85 1.399 . S
C85 C84 1.399 . S
C85 C86 1.396 . S
C85 C88 1.453 . S
C85 C89 1.684 . S
C86 C67 1.723 . S
C86 C85 1.396 . S
C86 C87 1.394 . S
C87 C83 1.397 . S
C87 C86 1.394 . S
C87 C97 1.723 . S
C88 C85 1.453 . S
C88 H112 0.982 . S
C88 H113 0.979 . S
C88 H114 0.977 . S
C89 C85 1.684 . S
C89 H115 0.979 . S
C89 H116 0.980 . S
C89 H117 0.983 . S
C90 H66 0.948 . S
C90 C91 1.391 . S
C90 C95 1.391 . S
C91 C90 1.391 . S
C91 C92 1.391 . S
C92 H69 0.947 . S
C92 C91 1.391 . S
C92 C93 1.392 . S
C93 H70 0.948 . S
C93 C92 1.392 . S
C93 C94 1.419 . S
C94 C93 1.419 . S
C94 C95 1.391 . S
C94 C98 1.397 . S
C95 C90 1.391 . S
C95 C94 1.391 . S
C95 C96 1.399 . S
C96 C95 1.399 . S
C96 C97 1.396 . S
C96 C99 1.453 . S
C96 C100 1.684 . S
C97 C87 1.723 . S
C97 C96 1.396 . S
C97 C98 1.394 . S
C98 C68 1.723 . S
C98 C94 1.397 . S
C98 C97 1.394 . S
C99 H71 0.982 . S
C99 H75 0.979 . S
C99 H76 0.977 . S
C99 C96 1.453 . S
C100 H72 0.979 . S
C100 H73 0.980 . S
C100 H74 0.983 . S
C100 C96 1.684 . S
H101 C119 0.948 . S
H102 C60 0.948 . S
H103 C78 0.979 . S
H104 C78 0.980 . S
H105 C78 0.983 . S
H106 C77 0.982 . S
H107 C77 0.979 . S
H108 C77 0.977 . S
H109 C79 0.948 . S
H110 C81 0.947 . S
H111 C82 0.948 . S
H112 C88 0.982 . S
H113 C88 0.979 . S
H114 C88 0.977 . S
H115 C89 0.979 . S
H116 C89 0.980 . S
H117 C89 0.983 . S
H118 C62 0.947 . S
C119 C62 1.392 . S
C119 C63 1.419 . S
C119 H101 0.948 . S
C120 C121 1.391 . S
C120 C124 1.391 . S
C120 H162 0.948 . S
C121 C120 1.391 . S
C121 C122 1.391 . S
C122 C121 1.391 . S
C122 H178 0.947 . S
C122 C179 1.392 . S
C123 C124 1.391 . S
C123 C127 1.397 . S
C123 C179 1.419 . S
C124 C120 1.391 . S
C124 C123 1.391 . S
C124 C125 1.399 . S
C125 C124 1.399 . S
C125 C128 1.396 . S
C125 C137 1.453 . S
C125 C138 1.684 . S
H126 C150 0.948 . S
C127 C123 1.397 . S
C127 C128 1.394 . S
C127 C146 1.723 . S
C128 C125 1.396 . S
C128 C127 1.394 . S
C128 C158 1.723 . S
H129 C152 0.947 . S
H130 C153 0.948 . S
H131 C159 0.982 . S
H132 C160 0.979 . S
H133 C160 0.980 . S
H134 C160 0.983 . S
H135 C159 0.979 . S
H136 C159 0.977 . S
C137 C125 1.453 . S
C137 H166 0.982 . S
C137 H167 0.979 . S
C137 H168 0.977 . S
C138 C125 1.684 . S
C138 H163 0.979 . S
C138 H164 0.980 . S
C138 H165 0.983 . S
C139 C140 1.391 . S
C139 C144 1.391 . S
C139 H169 0.948 . S
C140 C139 1.391 . S
C140 C141 1.391 . S
C141 C140 1.391 . S
C141 C142 1.392 . S
C141 H170 0.947 . S
C142 C141 1.392 . S
C142 C143 1.419 . S
C142 H171 0.948 . S
C143 C142 1.419 . S
C143 C144 1.391 . S
C143 C147 1.397 . S
C144 C139 1.391 . S
C144 C143 1.391 . S
C144 C145 1.399 . S
C145 C144 1.399 . S
C145 C146 1.396 . S
C145 C148 1.453 . S
C145 C149 1.684 . S
C146 C127 1.723 . S
C146 C145 1.396 . S
C146 C147 1.394 . S
C147 C143 1.397 . S
C147 C146 1.394 . S
C147 C157 1.723 . S
C148 C145 1.453 . S
C148 H172 0.982 . S
C148 H173 0.979 . S
C148 H174 0.977 . S
C149 C145 1.684 . S
C149 H175 0.979 . S
C149 H176 0.980 . S
C149 H177 0.983 . S
C150 H126 0.948 . S
C150 C151 1.391 . S
C150 C155 1.391 . S
C151 C150 1.391 . S
C151 C152 1.391 . S
C152 H129 0.947 . S
C152 C151 1.391 . S
C152 C153 1.392 . S
C153 H130 0.948 . S
C153 C152 1.392 . S
C153 C154 1.419 . S
C154 C153 1.419 . S
C154 C155 1.391 . S
C154 C158 1.397 . S
C155 C150 1.391 . S
C155 C154 1.391 . S
C155 C156 1.399 . S
C156 C155 1.399 . S
C156 C157 1.396 . S
C156 C159 1.453 . S
C156 C160 1.684 . S
C157 C147 1.723 . S
C157 C156 1.396 . S
C157 C158 1.394 . S
C158 C128 1.723 . S
C158 C154 1.397 . S
C158 C157 1.394 . S
C159 H131 0.982 . S
C159 H135 0.979 . S
C159 H136 0.977 . S
C159 C156 1.453 . S
C160 H132 0.979 . S
C160 H133 0.980 . S
C160 H134 0.983 . S
C160 C156 1.684 . S
H161 C179 0.948 . S
H162 C120 0.948 . S
H163 C138 0.979 . S
H164 C138 0.980 . S
H165 C138 0.983 . S
H166 C137 0.982 . S
H167 C137 0.979 . S
H168 C137 0.977 . S
H169 C139 0.948 . S
H170 C141 0.947 . S
H171 C142 0.948 . S
H172 C148 0.982 . S
H173 C148 0.979 . S
H174 C148 0.977 . S
H175 C149 0.979 . S
H176 C149 0.980 . S
H177 C149 0.983 . S
H178 C122 0.947 . S
C179 C122 1.392 . S
C179 C123 1.419 . S
C179 H161 0.948 . S
C180 C181 1.391 . S
C180 C184 1.391 . S
C180 H222 0.948 . S
C181 C180 1.391 . S
C181 C182 1.391 . S
C182 C181 1.391 . S
C182 H238 0.947 . S
C182 C239 1.392 . S
C183 C184 1.391 . S
C183 C187 1.397 . S
C183 C239 1.419 . S
C184 C180 1.391 . S
C184 C183 1.391 . S
C184 C185 1.399 . S
C185 C184 1.399 . S
C185 C188 1.396 . S
C185 C197 1.453 . S
C185 C198 1.684 . S
H186 C210 0.948 . S
C187 C183 1.397 . S
C187 C188 1.394 . S
C187 C206 1.723 . S
C188 C185 1.396 . S
C188 C187 1.394 . S
C188 C218 1.723 . S
H189 C212 0.947 . S
H190 C213 0.948 . S
H191 C219 0.982 . S
H192 C220 0.979 . S
H193 C220 0.980 . S
H194 C220 0.983 . S
H195 C219 0.979 . S
H196 C219 0.977 . S
C197 C185 1.453 . S
C197 H226 0.982 . S
C197 H227 0.979 . S
C197 H228 0.977 . S
C198 C185 1.684 . S
C198 H223 0.979 . S
C198 H224 0.980 . S
C198 H225 0.983 . S
C199 C200 1.391 . S
C199 C204 1.391 . S
C199 H229 0.948 . S
C200 C199 1.391 . S
C200 C201 1.391 . S
C201 C200 1.391 . S
C201 C202 1.392 . S
C201 H230 0.947 . S
C202 C201 1.392 . S
C202 C203 1.419 . S
C202 H231 0.948 . S
C203 C202 1.419 . S
C203 C204 1.391 . S
C203 C207 1.397 . S
C204 C199 1.391 . S
C204 C203 1.391 . S
C204 C205 1.399 . S
C205 C204 1.399 . S
C205 C206 1.396 . S
C205 C208 1.453 . S
C205 C209 1.684 . S
C206 C187 1.723 . S
C206 C205 1.396 . S
C206 C207 1.394 . S
C207 C203 1.397 . S
C207 C206 1.394 . S
C207 C217 1.723 . S
C208 C205 1.453 . S
C208 H232 0.982 . S
C208 H233 0.979 . S
C208 H234 0.977 . S
C209 C205 1.684 . S
C209 H235 0.979 . S
C209 H236 0.980 . S
C209 H237 0.983 . S
C210 H186 0.948 . S
C210 C211 1.391 . S
C210 C215 1.391 . S
C211 C210 1.391 . S
C211 C212 1.391 . S
C212 H189 0.947 . S
C212 C211 1.391 . S
C212 C213 1.392 . S
C213 H190 0.948 . S
C213 C212 1.392 . S
C213 C214 1.419 . S
C214 C213 1.419 . S
C214 C215 1.391 . S
C214 C218 1.397 . S
C215 C210 1.391 . S
C215 C214 1.391 . S
C215 C216 1.399 . S
C216 C215 1.399 . S
C216 C217 1.396 . S
C216 C219 1.453 . S
C216 C220 1.684 . S
C217 C207 1.723 . S
C217 C216 1.396 . S
C217 C218 1.394 . S
C218 C188 1.723 . S
C218 C214 1.397 . S
C218 C217 1.394 . S
C219 H191 0.982 . S
C219 H195 0.979 . S
C219 H196 0.977 . S
C219 C216 1.453 . S
C220 H192 0.979 . S
C220 H193 0.980 . S
C220 H194 0.983 . S
C220 C216 1.684 . S
H221 C239 0.948 . S
H222 C180 0.948 . S
H223 C198 0.979 . S
H224 C198 0.980 . S
H225 C198 0.983 . S
H226 C197 0.982 . S
H227 C197 0.979 . S
H228 C197 0.977 . S
H229 C199 0.948 . S
H230 C201 0.947 . S
H231 C202 0.948 . S
H232 C208 0.982 . S
H233 C208 0.979 . S
H234 C208 0.977 . S
H235 C209 0.979 . S
H236 C209 0.980 . S
H237 C209 0.983 . S
H238 C182 0.947 . S
C239 C182 1.392 . S
C239 C183 1.419 . S
C239 H221 0.948 . S
C240 C241 1.391 . S
C240 C244 1.391 . S
C240 H282 0.948 . S
C241 C240 1.391 . S
C241 C242 1.391 . S
C242 C241 1.391 . S
C242 H298 0.947 . S
C242 C299 1.392 . S
C243 C244 1.391 . S
C243 C247 1.397 . S
C243 C299 1.419 . S
C244 C240 1.391 . S
C244 C243 1.391 . S
C244 C245 1.399 . S
C245 C244 1.399 . S
C245 C248 1.396 . S
C245 C257 1.453 . S
C245 C258 1.684 . S
H246 C270 0.948 . S
C247 C243 1.397 . S
C247 C248 1.394 . S
C247 C266 1.723 . S
C248 C245 1.396 . S
C248 C247 1.394 . S
C248 C278 1.723 . S
H249 C272 0.947 . S
H250 C273 0.948 . S
H251 C279 0.982 . S
H252 C280 0.979 . S
H253 C280 0.980 . S
H254 C280 0.983 . S
H255 C279 0.979 . S
H256 C279 0.977 . S
C257 C245 1.453 . S
C257 H286 0.982 . S
C257 H287 0.979 . S
C257 H288 0.977 . S
C258 C245 1.684 . S
C258 H283 0.979 . S
C258 H284 0.980 . S
C258 H285 0.983 . S
C259 C260 1.391 . S
C259 C264 1.391 . S
C259 H289 0.948 . S
C260 C259 1.391 . S
C260 C261 1.391 . S
C261 C260 1.391 . S
C261 C262 1.392 . S
C261 H290 0.947 . S
C262 C261 1.392 . S
C262 C263 1.419 . S
C262 H291 0.948 . S
C263 C262 1.419 . S
C263 C264 1.391 . S
C263 C267 1.397 . S
C264 C259 1.391 . S
C264 C263 1.391 . S
C264 C265 1.399 . S
C265 C264 1.399 . S
C265 C266 1.396 . S
C265 C268 1.453 . S
C265 C269 1.684 . S
C266 C247 1.723 . S
C266 C265 1.396 . S
C266 C267 1.394 . S
C267 C263 1.397 . S
C267 C266 1.394 . S
C267 C277 1.723 . S
C268 C265 1.453 . S
C268 H292 0.982 . S
C268 H293 0.979 . S
C268 H294 0.977 . S
C269 C265 1.684 . S
C269 H295 0.979 . S
C269 H296 0.980 . S
C269 H297 0.983 . S
C270 H246 0.948 . S
C270 C271 1.391 . S
C270 C275 1.391 . S
C271 C270 1.391 . S
C271 C272 1.391 . S
C272 H249 0.947 . S
C272 C271 1.391 . S
C272 C273 1.392 . S
C273 H250 0.948 . S
C273 C272 1.392 . S
C273 C274 1.419 . S
C274 C273 1.419 . S
C274 C275 1.391 . S
C274 C278 1.397 . S
C275 C270 1.391 . S
C275 C274 1.391 . S
C275 C276 1.399 . S
C276 C275 1.399 . S
C276 C277 1.396 . S
C276 C279 1.453 . S
C276 C280 1.684 . S
C277 C267 1.723 . S
C277 C276 1.396 . S
C277 C278 1.394 . S
C278 C248 1.723 . S
C278 C274 1.397 . S
C278 C277 1.394 . S
C279 H251 0.982 . S
C279 H255 0.979 . S
C279 H256 0.977 . S
C279 C276 1.453 . S
C280 H252 0.979 . S
C280 H253 0.980 . S
C280 H254 0.983 . S
C280 C276 1.684 . S
H281 C299 0.948 . S
H282 C240 0.948 . S
H283 C258 0.979 . S
H284 C258 0.980 . S
H285 C258 0.983 . S
H286 C257 0.982 . S
H287 C257 0.979 . S
H288 C257 0.977 . S
H289 C259 0.948 . S
H290 C261 0.947 . S
H291 C262 0.948 . S
H292 C268 0.982 . S
H293 C268 0.979 . S
H294 C268 0.977 . S
H295 C269 0.979 . S
H296 C269 0.980 . S
H297 C269 0.983 . S
H298 C242 0.947 . S
C299 C242 1.392 . S
C299 C243 1.419 . S
C299 H281 0.948 . S
C300 C301 1.391 . S
C300 C304 1.391 . S
C300 H342 0.948 . S
C301 C300 1.391 . S
C301 C302 1.391 . S
C302 C301 1.391 . S
C302 H358 0.947 . S
C302 C359 1.392 . S
C303 C304 1.391 . S
C303 C307 1.397 . S
C303 C359 1.419 . S
C304 C300 1.391 . S
C304 C303 1.391 . S
C304 C305 1.399 . S
C305 C304 1.399 . S
C305 C308 1.396 . S
C305 C317 1.453 . S
C305 C318 1.684 . S
H306 C330 0.948 . S
C307 C303 1.397 . S
C307 C308 1.394 . S
C307 C326 1.723 . S
C308 C305 1.396 . S
C308 C307 1.394 . S
C308 C338 1.723 . S
H309 C332 0.947 . S
H310 C333 0.948 . S
H311 C339 0.982 . S
H312 C340 0.979 . S
H313 C340 0.980 . S
H314 C340 0.983 . S
H315 C339 0.979 . S
H316 C339 0.977 . S
C317 C305 1.453 . S
C317 H346 0.982 . S
C317 H347 0.979 . S
C317 H348 0.977 . S
C318 C305 1.684 . S
C318 H343 0.979 . S
C318 H344 0.980 . S
C318 H345 0.983 . S
C319 C320 1.391 . S
C319 C324 1.391 . S
C319 H349 0.948 . S
C320 C319 1.391 . S
C320 C321 1.391 . S
C321 C320 1.391 . S
C321 C322 1.392 . S
C321 H350 0.947 . S
C322 C321 1.392 . S
C322 C323 1.419 . S
C322 H351 0.948 . S
C323 C322 1.419 . S
C323 C324 1.391 . S
C323 C327 1.397 . S
C324 C319 1.391 . S
C324 C323 1.391 . S
C324 C325 1.399 . S
C325 C324 1.399 . S
C325 C326 1.396 . S
C325 C328 1.453 . S
C325 C329 1.684 . S
C326 C307 1.723 . S
C326 C325 1.396 . S
C326 C327 1.394 . S
C327 C323 1.397 . S
C327 C326 1.394 . S
C327 C337 1.723 . S
C328 C325 1.453 . S
C328 H352 0.982 . S
C328 H353 0.979 . S
C328 H354 0.977 . S
C329 C325 1.684 . S
C329 H355 0.979 . S
C329 H356 0.980 . S
C329 H357 0.983 . S
C330 H306 0.948 . S
C330 C331 1.391 . S
C330 C335 1.391 . S
C331 C330 1.391 . S
C331 C332 1.391 . S
C332 H309 0.947 . S
C332 C331 1.391 . S
C332 C333 1.392 . S
C333 H310 0.948 . S
C333 C332 1.392 . S
C333 C334 1.419 . S
C334 C333 1.419 . S
C334 C335 1.391 . S
C334 C338 1.397 . S
C335 C330 1.391 . S
C335 C334 1.391 . S
C335 C336 1.399 . S
C336 C335 1.399 . S
C336 C337 1.396 . S
C336 C339 1.453 . S
C336 C340 1.684 . S
C337 C327 1.723 . S
C337 C336 1.396 . S
C337 C338 1.394 . S
C338 C308 1.723 . S
C338 C334 1.397 . S
C338 C337 1.394 . S
C339 H311 0.982 . S
C339 H315 0.979 . S
C339 H316 0.977 . S
C339 C336 1.453 . S
C340 H312 0.979 . S
C340 H313 0.980 . S
C340 H314 0.983 . S
C340 C336 1.684 . S
H341 C359 0.948 . S
H342 C300 0.948 . S
H343 C318 0.979 . S
H344 C318 0.980 . S
H345 C318 0.983 . S
H346 C317 0.982 . S
H347 C317 0.979 . S
H348 C317 0.977 . S
H349 C319 0.948 . S
H350 C321 0.947 . S
H351 C322 0.948 . S
H352 C328 0.982 . S
H353 C328 0.979 . S
H354 C328 0.977 . S
H355 C329 0.979 . S
H356 C329 0.980 . S
H357 C329 0.983 . S
H358 C302 0.947 . S
C359 C302 1.392 . S
C359 C303 1.419 . S
C359 H341 0.948 . S
C360 C361 1.391 . S
C360 C364 1.391 . S
C360 H402 0.948 . S
C361 C360 1.391 . S
C361 C362 1.391 . S
C362 C361 1.391 . S
C362 H418 0.947 . S
C362 C419 1.392 . S
C363 C364 1.391 . S
C363 C367 1.397 . S
C363 C419 1.419 . S
C364 C360 1.391 . S
C364 C363 1.391 . S
C364 C365 1.399 . S
C365 C364 1.399 . S
C365 C368 1.396 . S
C365 C377 1.453 . S
C365 C378 1.684 . S
H366 C390 0.948 . S
C367 C363 1.397 . S
C367 C368 1.394 . S
C367 C386 1.723 . S
C368 C365 1.396 . S
C368 C367 1.394 . S
C368 C398 1.723 . S
H369 C392 0.947 . S
H370 C393 0.948 . S
H371 C399 0.982 1_455 S
H372 C400 0.979 . S
H373 C400 0.980 . S
H374 C400 0.983 . S
H375 C399 0.979 . S
H376 C399 0.977 . S
C377 C365 1.453 . S
C377 H406 0.982 . S
C377 H407 0.979 . S
C377 H408 0.977 . S
C378 C365 1.684 . S
C378 H403 0.979 . S
C378 H404 0.980 . S
C378 H405 0.983 . S
C379 C380 1.391 . S
C379 C384 1.391 . S
C379 H409 0.948 . S
C380 C379 1.391 . S
C380 C381 1.391 . S
C381 C380 1.391 . S
C381 C382 1.392 . S
C381 H410 0.947 . S
C382 C381 1.392 . S
C382 C383 1.419 . S
C382 H411 0.948 . S
C383 C382 1.419 . S
C383 C384 1.391 . S
C383 C387 1.397 . S
C384 C379 1.391 . S
C384 C383 1.391 . S
C384 C385 1.399 . S
C385 C384 1.399 . S
C385 C386 1.396 . S
C385 C388 1.453 . S
C385 C389 1.684 . S
C386 C367 1.723 . S
C386 C385 1.396 . S
C386 C387 1.394 . S
C387 C383 1.397 . S
C387 C386 1.394 . S
C387 C397 1.723 . S
C388 C385 1.453 . S
C388 H412 0.982 1_655 S
C388 H413 0.975 . S
C388 H414 0.977 . S
C389 C385 1.684 . S
C389 H415 0.979 . S
C389 H416 0.980 . S
C389 H417 0.983 . S
C390 H366 0.948 . S
C390 C391 1.391 . S
C390 C395 1.391 . S
C391 C390 1.391 . S
C391 C392 1.391 . S
C392 H369 0.947 . S
C392 C391 1.391 . S
C392 C393 1.392 . S
C393 H370 0.948 . S
C393 C392 1.392 . S
C393 C394 1.419 . S
C394 C393 1.419 . S
C394 C395 1.391 . S
C394 C398 1.397 . S
C395 C390 1.391 . S
C395 C394 1.391 . S
C395 C396 1.399 . S
C396 C395 1.399 . S
C396 C397 1.396 . S
C396 C399 1.453 . S
C396 C400 1.684 . S
C397 C387 1.723 . S
C397 C396 1.396 . S
C397 C398 1.394 . S
C398 C368 1.723 . S
C398 C394 1.397 . S
C398 C397 1.394 . S
C399 H371 0.982 1_655 S
C399 H375 0.979 . S
C399 H376 0.977 . S
C399 C396 1.453 . S
C400 H372 0.979 . S
C400 H373 0.980 . S
C400 H374 0.983 . S
C400 C396 1.684 . S
H401 C419 0.948 . S
H402 C360 0.948 . S
H403 C378 0.979 . S
H404 C378 0.980 . S
H405 C378 0.983 . S
H406 C377 0.982 . S
H407 C377 0.979 . S
H408 C377 0.977 . S
H409 C379 0.948 . S
H410 C381 0.947 . S
H411 C382 0.948 . S
H412 C388 0.982 1_455 S
H413 C388 0.975 . S
H414 C388 0.977 . S
H415 C389 0.979 . S
H416 C389 0.980 . S
H417 C389 0.983 . S
H418 C362 0.947 . S
C419 C362 1.392 . S
C419 C363 1.419 . S
C419 H401 0.948 . S
C420 C421 1.391 . S
C420 C424 1.391 . S
C420 H462 0.948 . S
C421 C420 1.391 . S
C421 C422 1.391 . S
C422 C421 1.391 . S
C422 H478 0.947 . S
C422 C479 1.392 . S
C423 C424 1.391 . S
C423 C427 1.397 . S
C423 C479 1.419 . S
C424 C420 1.391 . S
C424 C423 1.391 . S
C424 C425 1.399 . S
C425 C424 1.399 . S
C425 C428 1.396 . S
C425 C437 1.453 . S
C425 C438 1.684 . S
H426 C450 0.948 . S
C427 C423 1.397 . S
C427 C428 1.394 . S
C427 C446 1.723 . S
C428 C425 1.396 . S
C428 C427 1.394 . S
C428 C458 1.723 . S
H429 C452 0.947 . S
H430 C453 0.948 . S
H431 C459 0.982 . S
H432 C460 0.979 . S
H433 C460 0.980 . S
H434 C460 0.983 . S
H435 C459 0.979 . S
H436 C459 0.977 . S
C437 C425 1.453 . S
C437 H466 0.982 . S
C437 H467 0.979 . S
C437 H468 0.977 . S
C438 C425 1.684 . S
C438 H463 0.979 . S
C438 H464 0.980 . S
C438 H465 0.983 . S
C439 C440 1.391 . S
C439 C444 1.391 . S
C439 H469 0.948 . S
C440 C439 1.391 . S
C440 C441 1.391 . S
C441 C440 1.391 . S
C441 C442 1.392 . S
C441 H470 0.947 . S
C442 C441 1.392 . S
C442 C443 1.419 . S
C442 H471 0.948 . S
C443 C442 1.419 . S
C443 C444 1.391 . S
C443 C447 1.397 . S
C444 C439 1.391 . S
C444 C443 1.391 . S
C444 C445 1.399 . S
C445 C444 1.399 . S
C445 C446 1.396 . S
C445 C448 1.453 . S
C445 C449 1.684 . S
C446 C427 1.723 . S
C446 C445 1.396 . S
C446 C447 1.394 . S
C447 C443 1.397 . S
C447 C446 1.394 . S
C447 C457 1.723 . S
C448 C445 1.453 . S
C448 H472 0.982 . S
C448 H473 0.979 . S
C448 H474 0.977 . S
C449 C445 1.684 . S
C449 H475 0.979 . S
C449 H476 0.980 . S
C449 H477 0.983 . S
C450 H426 0.948 . S
C450 C451 1.391 . S
C450 C455 1.391 . S
C451 C450 1.391 . S
C451 C452 1.391 . S
C452 H429 0.947 . S
C452 C451 1.391 . S
C452 C453 1.392 . S
C453 H430 0.948 . S
C453 C452 1.392 . S
C453 C454 1.419 . S
C454 C453 1.419 . S
C454 C455 1.391 . S
C454 C458 1.397 . S
C455 C450 1.391 . S
C455 C454 1.391 . S
C455 C456 1.399 . S
C456 C455 1.399 . S
C456 C457 1.396 . S
C456 C459 1.453 . S
C456 C460 1.684 . S
C457 C447 1.723 . S
C457 C456 1.396 . S
C457 C458 1.394 . S
C458 C428 1.723 . S
C458 C454 1.397 . S
C458 C457 1.394 . S
C459 H431 0.982 . S
C459 H435 0.979 . S
C459 H436 0.977 . S
C459 C456 1.453 . S
C460 H432 0.979 . S
C460 H433 0.980 . S
C460 H434 0.983 . S
C460 C456 1.684 . S
H461 C479 0.948 . S
H462 C420 0.948 . S
H463 C438 0.979 . S
H464 C438 0.980 . S
H465 C438 0.983 . S
H466 C437 0.982 . S
H467 C437 0.979 . S
H468 C437 0.977 . S
H469 C439 0.948 . S
H470 C441 0.947 . S
H471 C442 0.948 . S
H472 C448 0.982 . S
H473 C448 0.979 . S
H474 C448 0.977 . S
H475 C449 0.979 . S
H476 C449 0.980 . S
H477 C449 0.983 . S
H478 C422 0.947 . S
C479 C422 1.392 . S
C479 C423 1.419 . S
C479 H461 0.948 . S
C480 C481 1.391 . S
C480 C484 1.391 . S
C480 H522 0.948 . S
C481 C480 1.391 . S
C481 C482 1.391 . S
C482 C481 1.391 . S
C482 H538 0.947 . S
C482 C539 1.392 . S
C483 C484 1.391 . S
C483 C487 1.397 . S
C483 C539 1.419 . S
C484 C480 1.391 . S
C484 C483 1.391 . S
C484 C485 1.399 . S
C485 C484 1.399 . S
C485 C488 1.396 . S
C485 C497 1.453 . S
C485 C498 1.684 . S
H486 C510 0.948 . S
C487 C483 1.397 . S
C487 C488 1.394 . S
C487 C506 1.723 . S
C488 C485 1.396 . S
C488 C487 1.394 . S
C488 C518 1.723 . S
H489 C512 0.947 . S
H490 C513 0.948 . S
H491 C519 0.982 . S
H492 C520 0.979 . S
H493 C520 0.980 . S
H494 C520 0.983 . S
H495 C519 0.979 . S
H496 C519 0.977 . S
C497 C485 1.453 . S
C497 H526 0.982 . S
C497 H527 0.979 . S
C497 H528 0.977 . S
C498 C485 1.684 . S
C498 H523 0.979 . S
C498 H524 0.980 . S
C498 H525 0.983 . S
C499 C500 1.391 . S
C499 C504 1.391 . S
C499 H529 0.948 . S
C500 C499 1.391 . S
C500 C501 1.391 . S
C501 C500 1.391 . S
C501 C502 1.392 . S
C501 H530 0.947 . S
C502 C501 1.392 . S
C502 C503 1.419 . S
C502 H531 0.948 . S
C503 C502 1.419 . S
C503 C504 1.391 . S
C503 C507 1.397 . S
C504 C499 1.391 . S
C504 C503 1.391 . S
C504 C505 1.399 . S
C505 C504 1.399 . S
C505 C506 1.396 . S
C505 C508 1.453 . S
C505 C509 1.684 . S
C506 C487 1.723 . S
C506 C505 1.396 . S
C506 C507 1.394 . S
C507 C503 1.397 . S
C507 C506 1.394 . S
C507 C517 1.723 . S
C508 C505 1.453 . S
C508 H532 0.982 . S
C508 H533 0.979 . S
C508 H534 0.977 . S
C509 C505 1.684 . S
C509 H535 0.979 . S
C509 H536 0.980 . S
C509 H537 0.983 . S
C510 H486 0.948 . S
C510 C511 1.391 . S
C510 C515 1.391 . S
C511 C510 1.391 . S
C511 C512 1.391 . S
C512 H489 0.947 . S
C512 C511 1.391 . S
C512 C513 1.392 . S
C513 H490 0.948 . S
C513 C512 1.392 . S
C513 C514 1.419 . S
C514 C513 1.419 . S
C514 C515 1.391 . S
C514 C518 1.397 . S
C515 C510 1.391 . S
C515 C514 1.391 . S
C515 C516 1.399 . S
C516 C515 1.399 . S
C516 C517 1.396 . S
C516 C519 1.453 . S
C516 C520 1.684 . S
C517 C507 1.723 . S
C517 C516 1.396 . S
C517 C518 1.394 . S
C518 C488 1.723 . S
C518 C514 1.397 . S
C518 C517 1.394 . S
C519 H491 0.982 . S
C519 H495 0.979 . S
C519 H496 0.977 . S
C519 C516 1.453 . S
C520 H492 0.979 . S
C520 H493 0.980 . S
C520 H494 0.983 . S
C520 C516 1.684 . S
H521 C539 0.948 . S
H522 C480 0.948 . S
H523 C498 0.979 . S
H524 C498 0.980 . S
H525 C498 0.983 . S
H526 C497 0.982 . S
H527 C497 0.979 . S
H528 C497 0.977 . S
H529 C499 0.948 . S
H530 C501 0.947 . S
H531 C502 0.948 . S
H532 C508 0.982 . S
H533 C508 0.979 . S
H534 C508 0.977 . S
H535 C509 0.979 . S
H536 C509 0.980 . S
H537 C509 0.983 . S
H538 C482 0.947 . S
C539 C482 1.392 . S
C539 C483 1.419 . S
C539 H521 0.948 . S
C540 C541 1.391 . S
C540 C544 1.391 . S
C540 H582 0.948 . S
C541 C540 1.391 . S
C541 C542 1.391 . S
C542 C541 1.391 . S
C542 H598 0.947 . S
C542 C599 1.392 . S
C543 C544 1.391 . S
C543 C547 1.397 . S
C543 C599 1.419 . S
C544 C540 1.391 . S
C544 C543 1.391 . S
C544 C545 1.399 . S
C545 C544 1.399 . S
C545 C548 1.396 . S
C545 C557 1.453 . S
C545 C558 1.684 . S
H546 C570 0.948 . S
C547 C543 1.397 . S
C547 C548 1.394 . S
C547 C566 1.723 . S
C548 C545 1.396 . S
C548 C547 1.394 . S
C548 C578 1.723 . S
H549 C572 0.947 . S
H550 C573 0.948 . S
H551 C579 0.982 . S
H552 C580 0.979 . S
H553 C580 0.980 . S
H554 C580 0.983 . S
H555 C579 0.979 . S
H556 C579 0.977 . S
C557 C545 1.453 . S
C557 H586 0.982 . S
C557 H587 0.979 . S
C557 H588 0.977 . S
C558 C545 1.684 . S
C558 H583 0.979 . S
C558 H584 0.980 . S
C558 H585 0.983 . S
C559 C560 1.391 . S
C559 C564 1.391 . S
C559 H589 0.948 . S
C560 C559 1.391 . S
C560 C561 1.391 . S
C561 C560 1.391 . S
C561 C562 1.392 . S
C561 H590 0.947 . S
C562 C561 1.392 . S
C562 C563 1.419 . S
C562 H591 0.948 . S
C563 C562 1.419 . S
C563 C564 1.391 . S
C563 C567 1.397 . S
C564 C559 1.391 . S
C564 C563 1.391 . S
C564 C565 1.399 . S
C565 C564 1.399 . S
C565 C566 1.396 . S
C565 C568 1.453 . S
C565 C569 1.684 . S
C566 C547 1.723 . S
C566 C565 1.396 . S
C566 C567 1.394 . S
C567 C563 1.397 . S
C567 C566 1.394 . S
C567 C577 1.723 . S
C568 C565 1.453 . S
C568 H592 0.982 . S
C568 H593 0.979 . S
C568 H594 0.977 . S
C569 C565 1.684 . S
C569 H595 0.979 . S
C569 H596 0.980 . S
C569 H597 0.983 . S
C570 H546 0.948 . S
C570 C571 1.391 . S
C570 C575 1.391 . S
C571 C570 1.391 . S
C571 C572 1.391 . S
C572 H549 0.947 . S
C572 C571 1.391 . S
C572 C573 1.392 . S
C573 H550 0.948 . S
C573 C572 1.392 . S
C573 C574 1.419 . S
C574 C573 1.419 . S
C574 C575 1.391 . S
C574 C578 1.397 . S
C575 C570 1.391 . S
C575 C574 1.391 . S
C575 C576 1.399 . S
C576 C575 1.399 . S
C576 C577 1.396 . S
C576 C579 1.453 . S
C576 C580 1.684 . S
C577 C567 1.723 . S
C577 C576 1.396 . S
C577 C578 1.394 . S
C578 C548 1.723 . S
C578 C574 1.397 . S
C578 C577 1.394 . S
C579 H551 0.982 . S
C579 H555 0.979 . S
C579 H556 0.977 . S
C579 C576 1.453 . S
C580 H552 0.979 . S
C580 H553 0.980 . S
C580 H554 0.983 . S
C580 C576 1.684 . S
H581 C599 0.948 . S
H582 C540 0.948 . S
H583 C558 0.979 . S
H584 C558 0.980 . S
H585 C558 0.983 . S
H586 C557 0.982 . S
H587 C557 0.979 . S
H588 C557 0.977 . S
H589 C559 0.948 . S
H590 C561 0.947 . S
H591 C562 0.948 . S
H592 C568 0.982 . S
H593 C568 0.979 . S
H594 C568 0.977 . S
H595 C569 0.979 . S
H596 C569 0.980 . S
H597 C569 0.983 . S
H598 C542 0.947 . S
C599 C542 1.392 . S
C599 C543 1.419 . S
C599 H581 0.948 . S
C600 C601 1.391 . S
C600 C604 1.391 . S
C600 H642 0.948 . S
C601 C600 1.391 . S
C601 C602 1.391 . S
C602 C601 1.391 . S
C602 H658 0.947 . S
C602 C659 1.392 . S
C603 C604 1.391 . S
C603 C607 1.397 . S
C603 C659 1.419 . S
C604 C600 1.391 . S
C604 C603 1.391 . S
C604 C605 1.399 . S
C605 C604 1.399 . S
C605 C608 1.396 . S
C605 C617 1.453 . S
C605 C618 1.684 . S
H606 C630 0.948 . S
C607 C603 1.397 . S
C607 C608 1.394 . S
C607 C626 1.723 . S
C608 C605 1.396 . S
C608 C607 1.394 . S
C608 C638 1.723 . S
H609 C632 0.947 . S
H610 C633 0.948 . S
H611 C639 0.982 . S
H612 C640 0.979 . S
H613 C640 0.980 . S
H614 C640 0.983 . S
H615 C639 0.979 . S
H616 C639 0.977 . S
C617 C605 1.453 . S
C617 H646 0.982 . S
C617 H647 0.979 . S
C617 H648 0.977 . S
C618 C605 1.684 . S
C618 H643 0.979 . S
C618 H644 0.980 . S
C618 H645 0.983 . S
C619 C620 1.391 . S
C619 C624 1.391 . S
C619 H649 0.948 . S
C620 C619 1.391 . S
C620 C621 1.391 . S
C621 C620 1.391 . S
C621 C622 1.392 . S
C621 H650 0.947 . S
C622 C621 1.392 . S
C622 C623 1.419 . S
C622 H651 0.948 . S
C623 C622 1.419 . S
C623 C624 1.391 . S
C623 C627 1.397 . S
C624 C619 1.391 . S
C624 C623 1.391 . S
C624 C625 1.399 . S
C625 C624 1.399 . S
C625 C626 1.396 . S
C625 C628 1.453 . S
C625 C629 1.684 . S
C626 C607 1.723 . S
C626 C625 1.396 . S
C626 C627 1.394 . S
C627 C623 1.397 . S
C627 C626 1.394 . S
C627 C637 1.723 . S
C628 C625 1.453 . S
C628 H652 0.982 . S
C628 H653 0.979 . S
C628 H654 0.977 . S
C629 C625 1.684 . S
C629 H655 0.979 . S
C629 H656 0.980 . S
C629 H657 0.983 . S
C630 H606 0.948 . S
C630 C631 1.391 . S
C630 C635 1.391 . S
C631 C630 1.391 . S
C631 C632 1.391 . S
C632 H609 0.947 . S
C632 C631 1.391 . S
C632 C633 1.392 . S
C633 H610 0.948 . S
C633 C632 1.392 . S
C633 C634 1.419 . S
C634 C633 1.419 . S
C634 C635 1.391 . S
C634 C638 1.397 . S
C635 C630 1.391 . S
C635 C634 1.391 . S
C635 C636 1.399 . S
C636 C635 1.399 . S
C636 C637 1.396 . S
C636 C639 1.453 . S
C636 C640 1.684 . S
C637 C627 1.723 . S
C637 C636 1.396 . S
C637 C638 1.394 . S
C638 C608 1.723 . S
C638 C634 1.397 . S
C638 C637 1.394 . S
C639 H611 0.982 . S
C639 H615 0.979 . S
C639 H616 0.977 . S
C639 C636 1.453 . S
C640 H612 0.979 . S
C640 H613 0.980 . S
C640 H614 0.983 . S
C640 C636 1.684 . S
H641 C659 0.948 . S
H642 C600 0.948 . S
H643 C618 0.979 . S
H644 C618 0.980 . S
H645 C618 0.983 . S
H646 C617 0.982 . S
H647 C617 0.979 . S
H648 C617 0.977 . S
H649 C619 0.948 . S
H650 C621 0.947 . S
H651 C622 0.948 . S
H652 C628 0.982 . S
H653 C628 0.979 . S
H654 C628 0.977 . S
H655 C629 0.979 . S
H656 C629 0.980 . S
H657 C629 0.983 . S
H658 C602 0.947 . S
C659 C602 1.392 . S
C659 C603 1.419 . S
C659 H641 0.948 . S
C660 C661 1.391 . S
C660 C664 1.391 . S
C660 H702 0.948 . S
C661 C660 1.391 . S
C661 C662 1.391 . S
C662 C661 1.391 . S
C662 H718 0.947 . S
C662 C719 1.392 . S
C663 C664 1.391 . S
C663 C667 1.397 . S
C663 C719 1.419 . S
C664 C660 1.391 . S
C664 C663 1.391 . S
C664 C665 1.399 . S
C665 C664 1.399 . S
C665 C668 1.396 . S
C665 C677 1.453 . S
C665 C678 1.684 . S
H666 C690 0.948 . S
C667 C663 1.397 . S
C667 C668 1.394 . S
C667 C686 1.723 . S
C668 C665 1.396 . S
C668 C667 1.394 . S
C668 C698 1.723 . S
H669 C692 0.947 . S
H670 C693 0.948 . S
H671 C699 0.982 . S
H672 C700 0.979 . S
H673 C700 0.980 . S
H674 C700 0.983 . S
H675 C699 0.979 . S
H676 C699 0.977 . S
C677 C665 1.453 . S
C677 H706 0.982 . S
C677 H707 0.979 . S
C677 H708 0.977 . S
C678 C665 1.684 . S
C678 H703 0.979 . S
C678 H704 0.980 . S
C678 H705 0.983 . S
C679 C680 1.391 . S
C679 C684 1.391 . S
C679 H709 0.948 . S
C680 C679 1.391 . S
C680 C681 1.391 . S
C681 C680 1.391 . S
C681 C682 1.392 . S
C681 H710 0.947 . S
C682 C681 1.392 . S
C682 C683 1.419 . S
C682 H711 0.948 . S
C683 C682 1.419 . S
C683 C684 1.391 . S
C683 C687 1.397 . S
C684 C679 1.391 . S
C684 C683 1.391 . S
C684 C685 1.399 . S
C685 C684 1.399 . S
C685 C686 1.396 . S
C685 C688 1.453 . S
C685 C689 1.684 . S
C686 C667 1.723 . S
C686 C685 1.396 . S
C686 C687 1.394 . S
C687 C683 1.397 . S
C687 C686 1.394 . S
C687 C697 1.723 . S
C688 C685 1.453 . S
C688 H712 0.982 . S
C688 H713 0.979 . S
C688 H714 0.977 . S
C689 C685 1.684 . S
C689 H715 0.979 . S
C689 H716 0.980 . S
C689 H717 0.983 . S
C690 H666 0.948 . S
C690 C691 1.391 . S
C690 C695 1.391 . S
C691 C690 1.391 . S
C691 C692 1.391 . S
C692 H669 0.947 . S
C692 C691 1.391 . S
C692 C693 1.392 . S
C693 H670 0.948 . S
C693 C692 1.392 . S
C693 C694 1.419 . S
C694 C693 1.419 . S
C694 C695 1.391 . S
C694 C698 1.397 . S
C695 C690 1.391 . S
C695 C694 1.391 . S
C695 C696 1.399 . S
C696 C695 1.399 . S
C696 C697 1.396 . S
C696 C699 1.453 . S
C696 C700 1.684 . S
C697 C687 1.723 . S
C697 C696 1.396 . S
C697 C698 1.394 . S
C698 C668 1.723 . S
C698 C694 1.397 . S
C698 C697 1.394 . S
C699 H671 0.982 . S
C699 H675 0.979 . S
C699 H676 0.977 . S
C699 C696 1.453 . S
C700 H672 0.979 . S
C700 H673 0.980 . S
C700 H674 0.983 . S
C700 C696 1.684 . S
H701 C719 0.948 . S
H702 C660 0.948 . S
H703 C678 0.979 . S
H704 C678 0.980 . S
H705 C678 0.983 . S
H706 C677 0.982 . S
H707 C677 0.979 . S
H708 C677 0.977 . S
H709 C679 0.948 . S
H710 C681 0.947 . S
H711 C682 0.948 . S
H712 C688 0.982 . S
H713 C688 0.979 . S
H714 C688 0.977 . S
H715 C689 0.979 . S
H716 C689 0.980 . S
H717 C689 0.983 . S
H718 C662 0.947 . S
C719 C662 1.392 . S
C719 C663 1.419 . S
C719 H701 0.948 . S
C720 C721 1.391 . S
C720 C724 1.391 . S
C720 H762 0.948 . S
C721 C720 1.391 . S
C721 C722 1.391 . S
C722 C721 1.391 . S
C722 H778 0.947 . S
C722 C779 1.392 . S
C723 C724 1.391 . S
C723 C727 1.397 . S
C723 C779 1.419 . S
C724 C720 1.391 . S
C724 C723 1.391 . S
C724 C725 1.399 . S
C725 C724 1.399 . S
C725 C728 1.396 . S
C725 C737 1.453 . S
C725 C738 1.684 . S
H726 C750 0.948 . S
C727 C723 1.397 . S
C727 C728 1.394 . S
C727 C746 1.723 . S
C728 C725 1.396 . S
C728 C727 1.394 . S
C728 C758 1.723 . S
H729 C752 0.947 . S
H730 C753 0.948 . S
H731 C759 0.982 . S
H732 C760 0.979 . S
H733 C760 0.980 . S
H734 C760 0.983 . S
H735 C759 0.979 . S
H736 C759 0.977 . S
C737 C725 1.453 . S
C737 H766 0.982 . S
C737 H767 0.979 . S
C737 H768 0.977 . S
C738 C725 1.684 . S
C738 H763 0.979 . S
C738 H764 0.980 . S
C738 H765 0.983 . S
C739 C740 1.391 . S
C739 C744 1.391 . S
C739 H769 0.948 . S
C740 C739 1.391 . S
C740 C741 1.391 . S
C741 C740 1.391 . S
C741 C742 1.392 . S
C741 H770 0.947 . S
C742 C741 1.392 . S
C742 C743 1.419 . S
C742 H771 0.948 . S
C743 C742 1.419 . S
C743 C744 1.391 . S
C743 C747 1.397 . S
C744 C739 1.391 . S
C744 C743 1.391 . S
C744 C745 1.399 . S
C745 C744 1.399 . S
C745 C746 1.396 . S
C745 C748 1.453 . S
C745 C749 1.684 . S
C746 C727 1.723 . S
C746 C745 1.396 . S
C746 C747 1.394 . S
C747 C743 1.397 . S
C747 C746 1.394 . S
C747 C757 1.723 . S
C748 C745 1.453 . S
C748 H772 0.982 . S
C748 H773 0.979 . S
C748 H774 0.977 . S
C749 C745 1.684 . S
C749 H775 0.979 . S
C749 H776 0.980 . S
C749 H777 0.983 . S
C750 H726 0.948 . S
C750 C751 1.391 . S
C750 C755 1.391 . S
C751 C750 1.391 . S
C751 C752 1.391 . S
C752 H729 0.947 . S
C752 C751 1.391 . S
C752 C753 1.392 . S
C753 H730 0.948 . S
C753 C752 1.392 . S
C753 C754 1.419 . S
C754 C753 1.419 . S
C754 C755 1.391 . S
C754 C758 1.397 . S
C755 C750 1.391 . S
C755 C754 1.391 . S
C755 C756 1.399 . S
C756 C755 1.399 . S
C756 C757 1.396 . S
C756 C759 1.453 . S
C756 C760 1.684 . S
C757 C747 1.723 . S
C757 C756 1.396 . S
C757 C758 1.394 . S
C758 C728 1.723 . S
C758 C754 1.397 . S
C758 C757 1.394 . S
C759 H731 0.982 . S
C759 H735 0.979 . S
C759 H736 0.977 . S
C759 C756 1.453 . S
C760 H732 0.979 . S
C760 H733 0.980 . S
C760 H734 0.983 . S
C760 C756 1.684 . S
H761 C779 0.948 . S
H762 C720 0.948 . S
H763 C738 0.979 . S
H764 C738 0.980 . S
H765 C738 0.983 . S
H766 C737 0.982 . S
H767 C737 0.979 . S
H768 C737 0.977 . S
H769 C739 0.948 . S
H770 C741 0.947 . S
H771 C742 0.948 . S
H772 C748 0.982 . S
H773 C748 0.979 . S
H774 C748 0.977 . S
H775 C749 0.979 . S
H776 C749 0.980 . S
H777 C749 0.983 . S
H778 C722 0.947 . S
C779 C722 1.392 . S
C779 C723 1.419 . S
C779 H761 0.948 . S
C780 C781 1.391 . S
C780 C784 1.391 . S
C780 H822 0.948 . S
C781 C780 1.391 . S
C781 C782 1.391 . S
C782 C781 1.391 . S
C782 H838 0.947 . S
C782 C839 1.392 . S
C783 C784 1.391 . S
C783 C787 1.397 . S
C783 C839 1.419 . S
C784 C780 1.391 . S
C784 C783 1.391 . S
C784 C785 1.399 . S
C785 C784 1.399 . S
C785 C788 1.396 . S
C785 C797 1.453 . S
C785 C798 1.684 . S
H786 C810 0.948 . S
C787 C783 1.397 . S
C787 C788 1.394 . S
C787 C806 1.723 . S
C788 C785 1.396 . S
C788 C787 1.394 . S
C788 C818 1.723 . S
H789 C812 0.947 . S
H790 C813 0.948 . S
H791 C819 0.982 . S
H792 C820 0.979 . S
H793 C820 0.980 . S
H794 C820 0.983 . S
H795 C819 0.979 . S
H796 C819 0.977 . S
C797 C785 1.453 . S
C797 H826 0.982 . S
C797 H827 0.979 . S
C797 H828 0.977 . S
C798 C785 1.684 . S
C798 H823 0.979 . S
C798 H824 0.980 . S
C798 H825 0.983 . S
C799 C800 1.391 . S
C799 C804 1.391 . S
C799 H829 0.948 . S
C800 C799 1.391 . S
C800 C801 1.391 . S
C801 C800 1.391 . S
C801 C802 1.392 . S
C801 H830 0.947 . S
C802 C801 1.392 . S
C802 C803 1.419 . S
C802 H831 0.948 . S
C803 C802 1.419 . S
C803 C804 1.391 . S
C803 C807 1.397 . S
C804 C799 1.391 . S
C804 C803 1.391 . S
C804 C805 1.399 . S
C805 C804 1.399 . S
C805 C806 1.396 . S
C805 C808 1.453 . S
C805 C809 1.684 . S
C806 C787 1.723 . S
C806 C805 1.396 . S
C806 C807 1.394 . S
C807 C803 1.397 . S
C807 C806 1.394 . S
C807 C817 1.723 . S
C808 C805 1.453 . S
C808 H832 0.982 . S
C808 H833 0.979 . S
C808 H834 0.977 . S
C809 C805 1.684 . S
C809 H835 0.979 . S
C809 H836 0.980 . S
C809 H837 0.983 . S
C810 H786 0.948 . S
C810 C811 1.391 . S
C810 C815 1.391 . S
C811 C810 1.391 . S
C811 C812 1.391 . S
C812 H789 0.947 . S
C812 C811 1.391 . S
C812 C813 1.392 . S
C813 H790 0.948 . S
C813 C812 1.392 . S
C813 C814 1.419 . S
C814 C813 1.419 . S
C814 C815 1.391 . S
C814 C818 1.397 . S
C815 C810 1.391 . S
C815 C814 1.391 . S
C815 C816 1.399 . S
C816 C815 1.399 . S
C816 C817 1.396 . S
C816 C819 1.453 . S
C816 C820 1.684 . S
C817 C807 1.723 . S
C817 C816 1.396 . S
C817 C818 1.394 . S
C818 C788 1.723 . S
C818 C814 1.397 . S
C818 C817 1.394 . S
C819 H791 0.982 . S
C819 H795 0.979 . S
C819 H796 0.977 . S
C819 C816 1.453 . S
C820 H792 0.979 . S
C820 H793 0.980 . S
C820 H794 0.983 . S
C820 C816 1.684 . S
H821 C839 0.948 . S
H822 C780 0.948 . S
H823 C798 0.979 . S
H824 C798 0.980 . S
H825 C798 0.983 . S
H826 C797 0.982 . S
H827 C797 0.979 . S
H828 C797 0.977 . S
H829 C799 0.948 . S
H830 C801 0.947 . S
H831 C802 0.948 . S
H832 C808 0.982 . S
H833 C808 0.979 . S
H834 C808 0.977 . S
H835 C809 0.979 . S
H836 C809 0.980 . S
H837 C809 0.983 . S
H838 C782 0.947 . S
C839 C782 1.392 . S
C839 C783 1.419 . S
C839 H821 0.948 . S
C840 C841 1.391 . S
C840 C844 1.391 . S
C840 H882 0.948 . S
C841 C840 1.391 . S
C841 C842 1.391 . S
C842 C841 1.391 . S
C842 H898 0.947 . S
C842 C899 1.392 . S
C843 C844 1.391 . S
C843 C847 1.397 . S
C843 C899 1.419 . S
C844 C840 1.391 . S
C844 C843 1.391 . S
C844 C845 1.399 . S
C845 C844 1.399 . S
C845 C848 1.396 . S
C845 C857 1.453 . S
C845 C858 1.684 . S
H846 C870 0.948 . S
C847 C843 1.397 . S
C847 C848 1.394 . S
C847 C866 1.723 . S
C848 C845 1.396 . S
C848 C847 1.394 . S
C848 C878 1.723 . S
H849 C872 0.947 . S
H850 C873 0.948 . S
H851 C879 0.982 . S
H852 C880 0.979 . S
H853 C880 0.980 . S
H854 C880 0.983 . S
H855 C879 0.979 . S
H856 C879 0.977 . S
C857 C845 1.453 . S
C857 H886 0.982 . S
C857 H887 0.979 . S
C857 H888 0.977 . S
C858 C845 1.684 . S
C858 H883 0.979 . S
C858 H884 0.980 . S
C858 H885 0.983 . S
C859 C860 1.391 . S
C859 C864 1.391 . S
C859 H889 0.948 . S
C860 C859 1.391 . S
C860 C861 1.391 . S
C861 C860 1.391 . S
C861 C862 1.392 . S
C861 H890 0.947 . S
C862 C861 1.392 . S
C862 C863 1.419 . S
C862 H891 0.948 . S
C863 C862 1.419 . S
C863 C864 1.391 . S
C863 C867 1.397 . S
C864 C859 1.391 . S
C864 C863 1.391 . S
C864 C865 1.399 . S
C865 C864 1.399 . S
C865 C866 1.396 . S
C865 C868 1.453 . S
C865 C869 1.684 . S
C866 C847 1.723 . S
C866 C865 1.396 . S
C866 C867 1.394 . S
C867 C863 1.397 . S
C867 C866 1.394 . S
C867 C877 1.723 . S
C868 C865 1.453 . S
C868 H892 0.982 . S
C868 H893 0.979 . S
C868 H894 0.977 . S
C869 C865 1.684 . S
C869 H895 0.979 . S
C869 H896 0.980 . S
C869 H897 0.983 . S
C870 H846 0.948 . S
C870 C871 1.391 . S
C870 C875 1.391 . S
C871 C870 1.391 . S
C871 C872 1.391 . S
C872 H849 0.947 . S
C872 C871 1.391 . S
C872 C873 1.392 . S
C873 H850 0.948 . S
C873 C872 1.392 . S
C873 C874 1.419 . S
C874 C873 1.419 . S
C874 C875 1.391 . S
C874 C878 1.397 . S
C875 C870 1.391 . S
C875 C874 1.391 . S
C875 C876 1.399 . S
C876 C875 1.399 . S
C876 C877 1.396 . S
C876 C879 1.453 . S
C876 C880 1.684 . S
C877 C867 1.723 . S
C877 C876 1.396 . S
C877 C878 1.394 . S
C878 C848 1.723 . S
C878 C874 1.397 . S
C878 C877 1.394 . S
C879 H851 0.982 . S
C879 H855 0.979 . S
C879 H856 0.977 . S
C879 C876 1.453 . S
C880 H852 0.979 . S
C880 H853 0.980 . S
C880 H854 0.983 . S
C880 C876 1.684 . S
H881 C899 0.948 . S
H882 C840 0.948 . S
H883 C858 0.979 . S
H884 C858 0.980 . S
H885 C858 0.983 . S
H886 C857 0.982 . S
H887 C857 0.979 . S
H888 C857 0.977 . S
H889 C859 0.948 . S
H890 C861 0.947 . S
H891 C862 0.948 . S
H892 C868 0.982 . S
H893 C868 0.979 . S
H894 C868 0.977 . S
H895 C869 0.979 . S
H896 C869 0.980 . S
H897 C869 0.983 . S
H898 C842 0.947 . S
C899 C842 1.392 . S
C899 C843 1.419 . S
C899 H881 0.948 . S
C900 C901 1.391 . S
C900 C904 1.391 . S
C900 H942 0.948 . S
C901 C900 1.391 . S
C901 C902 1.391 . S
C902 C901 1.391 . S
C902 H958 0.947 . S
C902 C959 1.392 . S
C903 C904 1.391 . S
C903 C907 1.397 . S
C903 C959 1.419 . S
C904 C900 1.391 . S
C904 C903 1.391 . S
C904 C905 1.399 . S
C905 C904 1.399 . S
C905 C908 1.396 . S
C905 C917 1.453 . S
C905 C918 1.684 . S
H906 C930 0.948 . S
C907 C903 1.397 . S
C907 C908 1.394 . S
C907 C926 1.723 . S
C908 C905 1.396 . S
C908 C907 1.394 . S
C908 C938 1.723 . S
H909 C932 0.947 . S
H910 C933 0.948 . S
H911 C939 0.982 . S
H912 C940 0.979 . S
H913 C940 0.980 . S
H914 C940 0.983 . S
H915 C939 0.979 . S
H916 C939 0.977 . S
C917 C905 1.453 . S
C917 H946 0.982 . S
C917 H947 0.979 . S
C917 H948 0.977 . S
C918 C905 1.684 . S
C918 H943 0.979 . S
C918 H944 0.980 . S
C918 H945 0.983 . S
C919 C920 1.391 . S
C919 C924 1.391 . S
C919 H949 0.948 . S
C920 C919 1.391 . S
C920 C921 1.391 . S
C921 C920 1.391 . S
C921 C922 1.392 . S
C921 H950 0.947 . S
C922 C921 1.392 . S
C922 C923 1.419 . S
C922 H951 0.948 . S
C923 C922 1.419 . S
C923 C924 1.391 . S
C923 C927 1.397 . S
C924 C919 1.391 . S
C924 C923 1.391 . S
C924 C925 1.399 . S
C925 C924 1.399 . S
C925 C926 1.396 . S
C925 C928 1.453 . S
C925 C929 1.684 . S
C926 C907 1.723 . S
C926 C925 1.396 . S
C926 C927 1.394 . S
C927 C923 1.397 . S
C927 C926 1.394 . S
C927 C937 1.723 . S
C928 C925 1.453 . S
C928 H952 0.982 . S
C928 H953 0.979 . S
C928 H954 0.977 . S
C929 C925 1.684 . S
C929 H955 0.979 . S
C929 H956 0.980 . S
C929 H957 0.983 . S
C930 H906 0.948 . S
C930 C931 1.391 . S
C930 C935 1.391 . S
C931 C930 1.391 . S
C931 C932 1.391 . S
C932 H909 0.947 . S
C932 C931 1.391 . S
C932 C933 1.392 . S
C933 H910 0.948 . S
C933 C932 1.392 . S
C933 C934 1.419 . S
C934 C933 1.419 . S
C934 C935 1.391 . S
C934 C938 1.397 . S
C935 C930 1.391 . S
C935 C934 1.391 . S
C935 C936 1.399 . S
C936 C935 1.399 . S
C936 C937 1.396 . S
C936 C939 1.453 . S
C936 C940 1.684 . S
C937 C927 1.723 . S
C937 C936 1.396 . S
C937 C938 1.394 . S
C938 C908 1.723 . S
C938 C934 1.397 . S
C938 C937 1.394 . S
C939 H911 0.982 . S
C939 H915 0.979 . S
C939 H916 0.977 . S
C939 C936 1.453 . S
C940 H912 0.979 . S
C940 H913 0.980 . S
C940 H914 0.983 . S
C940 C936 1.684 . S
H941 C959 0.948 . S
H942 C900 0.948 . S
H943 C918 0.979 . S
H944 C918 0.980 . S
H945 C918 0.983 . S
H946 C917 0.982 . S
H947 C917 0.979 . S
H948 C917 0.977 . S
H949 C919 0.948 . S
H950 C921 0.947 . S
H951 C922 0.948 . S
H952 C928 0.982 . S
H953 C928 0.979 . S
H954 C928 0.977 . S
H955 C929 0.979 . S
H956 C929 0.980 . S
H957 C929 0.983 . S
H958 C902 0.947 . S
C959 C902 1.392 . S
C959 C903 1.419 . S
C959 H941 0.948 . S
C960 C961 1.391 . S
C960 C964 1.391 . S
C960 H1002 0.948 . S
C961 C960 1.391 . S
C961 C962 1.391 . S
C962 C961 1.391 . S
C962 H1018 0.947 . S
C962 C1019 1.392 . S
C963 C964 1.391 . S
C963 C967 1.397 . S
C963 C1019 1.419 . S
C964 C960 1.391 . S
C964 C963 1.391 . S
C964 C965 1.399 . S
C965 C964 1.399 . S
C965 C968 1.396 . S
C965 C977 1.453 . S
C965 C978 1.684 . S
H966 C990 0.948 . S
C967 C963 1.397 . S
C967 C968 1.394 . S
C967 C986 1.723 . S
C968 C965 1.396 . S
C968 C967 1.394 . S
C968 C998 1.723 . S
H969 C992 0.947 . S
H970 C993 0.948 . S
H971 C999 0.982 . S
H972 C1000 0.979 1_655 S
H973 C1000 0.980 . S
H974 C1000 0.983 . S
H975 C999 0.979 . S
H976 C999 0.977 . S
C977 C965 1.453 . S
C977 H1006 0.982 . S
C977 H1007 0.979 . S
C977 H1008 0.977 . S
C978 C965 1.684 . S
C978 H1003 0.979 . S
C978 H1004 0.980 . S
C978 H1005 0.983 . S
C979 C980 1.391 . S
C979 C984 1.391 . S
C979 H1009 0.948 . S
C980 C979 1.391 . S
C980 C981 1.391 . S
C981 C980 1.391 . S
C981 C982 1.392 . S
C981 H1010 0.947 . S
C982 C981 1.392 . S
C982 C983 1.419 . S
C982 H1011 0.948 . S
C983 C982 1.419 . S
C983 C984 1.391 . S
C983 C987 1.397 . S
C984 C979 1.391 . S
C984 C983 1.391 . S
C984 C985 1.399 . S
C985 C984 1.399 . S
C985 C986 1.396 . S
C985 C988 1.453 . S
C985 C989 1.684 1_455 S
C986 C967 1.723 . S
C986 C985 1.396 . S
C986 C987 1.394 . S
C987 C983 1.397 . S
C987 C986 1.394 . S
C987 C997 1.723 . S
C988 C985 1.453 . S
C988 H1012 0.982 . S
C988 H1013 0.979 . S
C988 H1014 0.977 . S
C989 C985 1.684 1_655 S
C989 H1015 0.979 . S
C989 H1016 0.980 1_655 S
C989 H1017 0.983 . S
C990 H966 0.948 . S
C990 C991 1.391 . S
C990 C995 1.391 . S
C991 C990 1.391 . S
C991 C992 1.391 . S
C992 H969 0.947 . S
C992 C991 1.391 . S
C992 C993 1.392 . S
C993 H970 0.948 . S
C993 C992 1.392 . S
C993 C994 1.419 . S
C994 C993 1.419 . S
C994 C995 1.391 . S
C994 C998 1.397 . S
C995 C990 1.391 . S
C995 C994 1.391 . S
C995 C996 1.399 . S
C996 C995 1.399 . S
C996 C997 1.396 . S
C996 C999 1.453 . S
C996 C1000 1.684 . S
C997 C987 1.723 . S
C997 C996 1.396 . S
C997 C998 1.394 . S
C998 C968 1.723 . S
C998 C994 1.397 . S
C998 C997 1.394 . S
C999 H971 0.982 . S
C999 H975 0.979 . S
C999 H976 0.977 . S
C999 C996 1.453 . S
C1000 H972 0.979 1_455 S
C1000 H973 0.980 . S
C1000 H974 0.983 . S
C1000 C996 1.684 . S
H1001 C1019 0.948 . S
H1002 C960 0.948 . S
H1003 C978 0.979 . S
H1004 C978 0.980 . S
H1005 C978 0.983 . S
H1006 C977 0.982 . S
H1007 C977 0.979 . S
H1008 C977 0.977 . S
H1009 C979 0.948 . S
H1010 C981 0.947 . S
H1011 C982 0.948 . S
H1012 C988 0.982 . S
H1013 C988 0.979 . S
H1014 C988 0.977 . S
H1015 C989 0.979 . S
H1016 C989 0.980 1_455 S
H1017 C989 0.983 . S
H1018 C962 0.947 . S
C1019 C962 1.392 . S
C1019 C963 1.419 . S
C1019 H1001 0.948 . S
C1020 C1021 1.391 . S
C1020 C1024 1.391 . S
C1020 H1062 0.948 . S
C1021 C1020 1.391 . S
C1021 C1022 1.391 . S
C1022 C1021 1.391 . S
C1022 H1078 0.947 . S
C1022 C1079 1.392 . S
C1023 C1024 1.391 . S
C1023 C1027 1.397 . S
C1023 C1079 1.419 . S
C1024 C1020 1.391 . S
C1024 C1023 1.391 . S
C1024 C1025 1.399 . S
C1025 C1024 1.399 . S
C1025 C1028 1.396 . S
C1025 C1037 1.453 . S
C1025 C1038 1.684 . S
H1026 C1050 0.948 . S
C1027 C1023 1.397 . S
C1027 C1028 1.394 . S
C1027 C1046 1.723 . S
C1028 C1025 1.396 . S
C1028 C1027 1.394 . S
C1028 C1058 1.723 . S
H1029 C1052 0.947 . S
H1030 C1053 0.948 . S
H1031 C1059 0.982 . S
H1032 C1060 0.979 . S
H1033 C1060 0.980 . S
H1034 C1060 0.983 . S
H1035 C1059 0.979 . S
H1036 C1059 0.977 . S
C1037 C1025 1.453 . S
C1037 H1066 0.982 . S
C1037 H1067 0.979 . S
C1037 H1068 0.977 . S
C1038 C1025 1.684 . S
C1038 H1063 0.979 . S
C1038 H1064 0.980 . S
C1038 H1065 0.983 . S
C1039 C1040 1.391 . S
C1039 C1044 1.391 . S
C1039 H1069 0.948 . S
C1040 C1039 1.391 . S
C1040 C1041 1.391 . S
C1041 C1040 1.391 . S
C1041 C1042 1.392 . S
C1041 H1070 0.947 . S
C1042 C1041 1.392 . S
C1042 C1043 1.419 . S
C1042 H1071 0.948 . S
C1043 C1042 1.419 . S
C1043 C1044 1.391 . S
C1043 C1047 1.397 . S
C1044 C1039 1.391 . S
C1044 C1043 1.391 . S
C1044 C1045 1.399 . S
C1045 C1044 1.399 . S
C1045 C1046 1.396 . S
C1045 C1048 1.453 . S
C1045 C1049 1.684 . S
C1046 C1027 1.723 . S
C1046 C1045 1.396 . S
C1046 C1047 1.394 . S
C1047 C1043 1.397 . S
C1047 C1046 1.394 . S
C1047 C1057 1.723 . S
C1048 C1045 1.453 . S
C1048 H1072 0.982 . S
C1048 H1073 0.979 . S
C1048 H1074 0.977 . S
C1049 C1045 1.684 . S
C1049 H1075 0.979 . S
C1049 H1076 0.980 . S
C1049 H1077 0.983 . S
C1050 H1026 0.948 . S
C1050 C1051 1.391 . S
C1050 C1055 1.391 . S
C1051 C1050 1.391 . S
C1051 C1052 1.391 . S
C1052 H1029 0.947 . S
C1052 C1051 1.391 . S
C1052 C1053 1.392 . S
C1053 H1030 0.948 . S
C1053 C1052 1.392 . S
C1053 C1054 1.419 . S
C1054 C1053 1.419 . S
C1054 C1055 1.391 . S
C1054 C1058 1.397 . S
C1055 C1050 1.391 . S
C1055 C1054 1.391 . S
C1055 C1056 1.399 . S
C1056 C1055 1.399 . S
C1056 C1057 1.396 . S
C1056 C1059 1.453 . S
C1056 C1060 1.684 . S
C1057 C1047 1.723 . S
C1057 C1056 1.396 . S
C1057 C1058 1.394 . S
C1058 C1028 1.723 . S
C1058 C1054 1.397 . S
C1058 C1057 1.394 . S
C1059 H1031 0.982 . S
C1059 H1035 0.979 . S
C1059 H1036 0.977 . S
C1059 C1056 1.453 . S
C1060 H1032 0.979 . S
C1060 H1033 0.980 . S
C1060 H1034 0.983 . S
C1060 C1056 1.684 . S
H1061 C1079 0.948 . S
H1062 C1020 0.948 . S
H1063 C1038 0.979 . S
H1064 C1038 0.980 . S
H1065 C1038 0.983 . S
H1066 C1037 0.982 . S
H1067 C1037 0.979 . S
H1068 C1037 0.977 . S
H1069 C1039 0.948 . S
H1070 C1041 0.947 . S
H1071 C1042 0.948 . S
H1072 C1048 0.982 . S
H1073 C1048 0.979 . S
H1074 C1048 0.977 . S
H1075 C1049 0.979 . S
H1076 C1049 0.980 . S
H1077 C1049 0.983 . S
H1078 C1022 0.947 . S
C1079 C1022 1.392 . S
C1079 C1023 1.419 . S
C1079 H1061 0.948 . S
Tb1080 C1090 2.825 . S
Tb1080 O1091 2.347 1_565 S
Tb1080 O1094 2.366 1_565 S
Tb1080 O1099 2.418 . S
Tb1080 O1100 2.384 . S
Tb1080 O1103 2.479 . S
Tb1080 O1104 2.469 1_565 S
Eu1081 O1092 2.418 . S
Eu1081 O1093 2.384 . S
Eu1081 O1096 2.479 . S
Eu1081 O1097 2.469 . S
Eu1081 O1098 2.347 1_545 S
Eu1081 O1101 2.366 1_545 S
Eu1081 C1111 2.825 . S
C1082 O1098 1.259 . S
C1082 O1099 1.265 1_554 S
C1083 O1100 1.255 1_554 S
C1083 O1101 1.265 . S
C1084 C1086 1.380 . S
C1084 C1087 1.374 1_565 S
C1084 C1090 1.507 . S
C1085 C1086 1.384 . S
C1085 C1089 1.387 1_565 S
C1085 H1112 0.930 . S
C1086 C1084 1.380 . S
C1086 C1085 1.384 . S
C1086 H1113 0.931 . S
C1087 C1084 1.374 1_545 S
C1087 C1088 1.390 . S
C1087 H1114 0.930 . S
C1088 C1087 1.390 . S
C1088 C1089 1.391 . S
C1088 H1115 0.930 . S
C1089 C1085 1.387 1_545 S
C1089 C1088 1.391 . S
C1090 Tb1080 2.825 . S
C1090 C1084 1.507 . S
C1090 O1103 1.238 . S
C1090 O1104 1.243 1_565 S
O1091 Tb1080 2.347 1_545 S
O1091 C1095 1.259 . S
O1092 Eu1081 2.418 . S
O1092 C1095 1.265 1_554 S
O1093 Eu1081 2.384 . S
O1093 C1102 1.255 1_554 S
O1094 Tb1080 2.366 1_545 S
O1094 C1102 1.265 . S
C1095 O1091 1.259 . S
C1095 O1092 1.265 1_556 S
O1096 Eu1081 2.479 . S
O1096 C1111 1.238 . S
O1097 Eu1081 2.469 . S
O1097 C1111 1.243 . S
O1098 Eu1081 2.347 1_565 S
O1098 C1082 1.259 . S
O1099 Tb1080 2.418 . S
O1099 C1082 1.265 1_556 S
O1100 Tb1080 2.384 . S
O1100 C1083 1.255 1_556 S
O1101 Eu1081 2.366 1_565 S
O1101 C1083 1.265 . S
C1102 O1093 1.255 1_556 S
C1102 O1094 1.265 . S
O1103 Tb1080 2.479 . S
O1103 C1090 1.238 . S
O1104 Tb1080 2.469 1_545 S
O1104 C1090 1.243 1_545 S
C1105 C1108 1.380 . S
C1105 C1109 1.374 1_545 S
C1105 C1111 1.507 . S
C1106 C1107 1.387 1_565 S
C1106 C1110 1.391 . S
C1107 C1106 1.387 1_545 S
C1107 C1108 1.384 . S
C1107 H1116 0.930 . S
C1108 C1105 1.380 . S
C1108 C1107 1.384 . S
C1108 H1117 0.931 . S
C1109 C1105 1.374 1_565 S
C1109 C1110 1.390 . S
C1109 H1118 0.930 . S
C1110 C1106 1.391 . S
C1110 C1109 1.390 . S
C1110 H1119 0.930 . S
C1111 Eu1081 2.825 . S
C1111 O1096 1.238 . S
C1111 O1097 1.243 . S
C1111 C1105 1.507 . S
H1112 C1085 0.930 . S
H1113 C1086 0.931 . S
H1114 C1087 0.930 . S
H1115 C1088 0.930 . S
H1116 C1107 0.930 . S
H1117 C1108 0.931 . S
H1118 C1109 0.930 . S
H1119 C1110 0.930 . S
Tb1120 C1130 2.825 . S
Tb1120 O1131 2.347 1_455 S
Tb1120 O1134 2.366 1_455 S
Tb1120 O1139 2.418 . S
Tb1120 O1140 2.384 1_556 S
Tb1120 O1143 2.479 . S
Tb1120 O1144 2.471 1_455 S
Eu1121 O1132 2.418 . S
Eu1121 O1133 2.384 1_554 S
Eu1121 O1136 2.479 . S
Eu1121 O1137 2.471 1_655 S
Eu1121 O1138 2.347 1_655 S
Eu1121 O1141 2.366 1_655 S
Eu1121 C1151 2.825 . S
C1122 O1138 1.259 . S
C1122 O1139 1.265 1_554 S
C1123 O1140 1.255 . S
C1123 O1141 1.265 . S
C1124 C1126 1.380 . S
C1124 C1127 1.374 1_455 S
C1124 C1130 1.507 . S
C1125 C1126 1.384 . S
C1125 C1129 1.387 1_455 S
C1125 H1152 0.930 . S
C1126 C1124 1.380 . S
C1126 C1125 1.384 . S
C1126 H1153 0.931 . S
C1127 C1124 1.374 1_655 S
C1127 C1128 1.390 . S
C1127 H1154 0.930 . S
C1128 C1127 1.390 . S
C1128 C1129 1.391 . S
C1128 H1155 0.930 . S
C1129 C1125 1.387 1_655 S
C1129 C1128 1.391 . S
C1130 Tb1120 2.825 . S
C1130 C1124 1.507 . S
C1130 O1143 1.238 . S
C1130 O1144 1.247 1_455 S
O1131 Tb1120 2.347 1_655 S
O1131 C1135 1.259 . S
O1132 Eu1121 2.418 . S
O1132 C1135 1.265 1_554 S
O1133 Eu1121 2.384 1_556 S
O1133 C1142 1.255 . S
O1134 Tb1120 2.366 1_655 S
O1134 C1142 1.265 . S
C1135 O1131 1.259 . S
C1135 O1132 1.265 1_556 S
O1136 Eu1121 2.479 . S
O1136 C1151 1.238 . S
O1137 Eu1121 2.471 1_455 S
O1137 C1151 1.247 1_455 S
O1138 Eu1121 2.347 1_455 S
O1138 C1122 1.259 . S
O1139 Tb1120 2.418 . S
O1139 C1122 1.265 1_556 S
O1140 Tb1120 2.384 1_554 S
O1140 C1123 1.255 . S
O1141 Eu1121 2.366 1_455 S
O1141 C1123 1.265 . S
C1142 O1133 1.255 . S
C1142 O1134 1.265 . S
O1143 Tb1120 2.479 . S
O1143 C1130 1.238 . S
O1144 Tb1120 2.471 1_655 S
O1144 C1130 1.247 1_655 S
C1145 C1148 1.380 . S
C1145 C1149 1.374 1_655 S
C1145 C1151 1.507 . S
C1146 C1147 1.387 1_455 S
C1146 C1150 1.391 . S
C1147 C1146 1.387 1_655 S
C1147 C1148 1.384 . S
C1147 H1156 0.930 . S
C1148 C1145 1.380 . S
C1148 C1147 1.384 . S
C1148 H1157 0.931 . S
C1149 C1145 1.374 1_455 S
C1149 C1150 1.390 . S
C1149 H1158 0.930 . S
C1150 C1146 1.391 . S
C1150 C1149 1.390 . S
C1150 H1159 0.930 . S
C1151 Eu1121 2.825 . S
C1151 O1136 1.238 . S
C1151 O1137 1.247 1_655 S
C1151 C1145 1.507 . S
H1152 C1125 0.930 . S
H1153 C1126 0.931 . S
H1154 C1127 0.930 . S
H1155 C1128 0.930 . S
H1156 C1147 0.930 . S
H1157 C1148 0.931 . S
H1158 C1149 0.930 . S
H1159 C1150 0.930 . S
Tb1160 C1170 2.825 . S
Tb1160 O1171 2.347 . S
Tb1160 O1174 2.366 . S
Tb1160 O1179 2.418 . S
Tb1160 O1180 2.426 . S
Tb1160 O1183 2.479 . S
Tb1160 O1184 2.471 . S
Eu1161 O1172 2.418 . S
Eu1161 O1173 2.384 1_556 S
Eu1161 O1176 2.479 . S
Eu1161 O1177 2.471 . S
Eu1161 O1178 2.347 . S
Eu1161 O1181 2.366 . S
Eu1161 C1191 2.825 . S
C1162 O1178 1.259 . S
C1162 O1179 1.265 1_556 S
C1163 O1180 1.207 1_556 S
C1163 O1181 1.265 . S
C1164 C1166 1.380 . S
C1164 C1167 1.374 . S
C1164 C1170 1.507 . S
C1165 C1166 1.384 . S
C1165 C1169 1.387 . S
C1165 H1192 0.930 . S
C1166 C1164 1.380 . S
C1166 C1165 1.384 . S
C1166 H1193 0.931 . S
C1167 C1164 1.374 . S
C1167 C1168 1.390 . S
C1167 H1194 0.930 . S
C1168 C1167 1.390 . S
C1168 C1169 1.391 . S
C1168 H1195 0.930 . S
C1169 C1165 1.387 . S
C1169 C1168 1.391 . S
C1170 Tb1160 2.825 . S
C1170 C1164 1.507 . S
C1170 O1183 1.238 . S
C1170 O1184 1.247 . S
O1171 Tb1160 2.347 . S
O1171 C1175 1.259 . S
O1172 Eu1161 2.418 . S
O1172 C1175 1.265 1_556 S
O1173 Eu1161 2.384 1_554 S
O1173 C1182 1.255 . S
O1174 Tb1160 2.366 . S
O1174 C1182 1.265 . S
C1175 O1171 1.259 . S
C1175 O1172 1.265 1_554 S
O1176 Eu1161 2.479 . S
O1176 C1191 1.238 . S
O1177 Eu1161 2.471 . S
O1177 C1191 1.247 . S
O1178 Eu1161 2.347 . S
O1178 C1162 1.259 . S
O1179 Tb1160 2.418 . S
O1179 C1162 1.265 1_554 S
O1180 Tb1160 2.426 . S
O1180 C1163 1.207 1_554 S
O1181 Eu1161 2.366 . S
O1181 C1163 1.265 . S
C1182 O1173 1.255 . S
C1182 O1174 1.265 . S
O1183 Tb1160 2.479 . S
O1183 C1170 1.238 . S
O1184 Tb1160 2.471 . S
O1184 C1170 1.247 . S
C1185 C1188 1.380 . S
C1185 C1189 1.374 . S
C1185 C1191 1.507 . S
C1186 C1187 1.387 . S
C1186 C1190 1.391 . S
C1187 C1186 1.387 . S
C1187 C1188 1.384 . S
C1187 H1196 0.930 . S
C1188 C1185 1.380 . S
C1188 C1187 1.384 . S
C1188 H1197 0.931 . S
C1189 C1185 1.374 . S
C1189 C1190 1.390 . S
C1189 H1198 0.930 . S
C1190 C1186 1.391 . S
C1190 C1189 1.390 . S
C1190 H1199 0.930 . S
C1191 Eu1161 2.825 . S
C1191 O1176 1.238 . S
C1191 O1177 1.247 . S
C1191 C1185 1.507 . S
H1192 C1165 0.930 . S
H1193 C1166 0.931 . S
H1194 C1167 0.930 . S
H1195 C1168 0.930 . S
H1196 C1187 0.930 . S
H1197 C1188 0.931 . S
H1198 C1189 0.930 . S
H1199 C1190 0.930 . S
Tb1200 C1210 2.825 . S
Tb1200 O1211 2.347 . S
Tb1200 O1214 2.366 . S
Tb1200 O1219 2.418 . S
Tb1200 O1220 2.384 . S
Tb1200 O1223 2.479 . S
Tb1200 O1224 2.471 . S
Eu1201 O1212 2.418 . S
Eu1201 O1213 2.384 . S
Eu1201 O1216 2.479 . S
Eu1201 O1217 2.471 . S
Eu1201 O1218 2.347 . S
Eu1201 O1221 2.366 . S
Eu1201 C1231 2.825 . S
C1202 O1218 1.259 . S
C1202 O1219 1.265 . S
C1203 O1220 1.255 . S
C1203 O1221 1.265 . S
C1204 C1206 1.380 . S
C1204 C1207 1.374 . S
C1204 C1210 1.507 . S
C1205 C1206 1.384 . S
C1205 C1209 1.387 . S
C1205 H1232 0.930 . S
C1206 C1204 1.380 . S
C1206 C1205 1.384 . S
C1206 H1233 0.931 . S
C1207 C1204 1.374 . S
C1207 C1208 1.390 . S
C1207 H1234 0.930 . S
C1208 C1207 1.390 . S
C1208 C1209 1.391 . S
C1208 H1235 0.930 . S
C1209 C1205 1.387 . S
C1209 C1208 1.391 . S
C1210 Tb1200 2.825 . S
C1210 C1204 1.507 . S
C1210 O1223 1.238 . S
C1210 O1224 1.247 . S
O1211 Tb1200 2.347 . S
O1211 C1215 1.259 . S
O1212 Eu1201 2.418 . S
O1212 C1215 1.265 . S
O1213 Eu1201 2.384 . S
O1213 C1222 1.255 . S
O1214 Tb1200 2.366 . S
O1214 C1222 1.265 . S
C1215 O1211 1.259 . S
C1215 O1212 1.265 . S
O1216 Eu1201 2.479 . S
O1216 C1231 1.238 . S
O1217 Eu1201 2.471 . S
O1217 C1231 1.247 . S
O1218 Eu1201 2.347 . S
O1218 C1202 1.259 . S
O1219 Tb1200 2.418 . S
O1219 C1202 1.265 . S
O1220 Tb1200 2.384 . S
O1220 C1203 1.255 . S
O1221 Eu1201 2.366 . S
O1221 C1203 1.265 . S
C1222 O1213 1.255 . S
C1222 O1214 1.265 . S
O1223 Tb1200 2.479 . S
O1223 C1210 1.238 . S
O1224 Tb1200 2.471 . S
O1224 C1210 1.247 . S
C1225 C1228 1.380 . S
C1225 C1229 1.374 . S
C1225 C1231 1.507 . S
C1226 C1227 1.387 . S
C1226 C1230 1.391 . S
C1227 C1226 1.387 . S
C1227 C1228 1.384 . S
C1227 H1236 0.930 . S
C1228 C1225 1.380 . S
C1228 C1227 1.384 . S
C1228 H1237 0.931 . S
C1229 C1225 1.374 . S
C1229 C1230 1.390 . S
C1229 H1238 0.930 . S
C1230 C1226 1.391 . S
C1230 C1229 1.390 . S
C1230 H1239 0.930 . S
C1231 Eu1201 2.825 . S
C1231 O1216 1.238 . S
C1231 O1217 1.247 . S
C1231 C1225 1.507 . S
H1232 C1205 0.930 . S
H1233 C1206 0.931 . S
H1234 C1207 0.930 . S
H1235 C1208 0.930 . S
H1236 C1227 0.930 . S
H1237 C1228 0.931 . S
H1238 C1229 0.930 . S
H1239 C1230 0.930 . S
Tb1240 C1250 2.825 . S
Tb1240 O1251 2.347 . S
Tb1240 O1254 2.366 . S
Tb1240 O1259 2.418 . S
Tb1240 O1260 2.384 . S
Tb1240 O1263 2.479 . S
Tb1240 O1264 2.471 . S
Eu1241 O1252 2.418 . S
Eu1241 O1253 2.384 . S
Eu1241 O1256 2.479 . S
Eu1241 O1257 2.471 . S
Eu1241 O1258 2.347 . S
Eu1241 O1261 2.366 . S
Eu1241 C1271 2.825 . S
C1242 O1258 1.259 . S
C1242 O1259 1.265 . S
C1243 O1260 1.255 . S
C1243 O1261 1.265 . S
C1244 C1246 1.380 . S
C1244 C1247 1.374 . S
C1244 C1250 1.507 . S
C1245 C1246 1.384 . S
C1245 C1249 1.387 . S
C1245 H1272 0.930 . S
C1246 C1244 1.380 . S
C1246 C1245 1.384 . S
C1246 H1273 0.931 . S
C1247 C1244 1.374 . S
C1247 C1248 1.390 . S
C1247 H1274 0.930 . S
C1248 C1247 1.390 . S
C1248 C1249 1.391 . S
C1248 H1275 0.930 . S
C1249 C1245 1.387 . S
C1249 C1248 1.391 . S
C1250 Tb1240 2.825 . S
C1250 C1244 1.507 . S
C1250 O1263 1.238 . S
C1250 O1264 1.247 . S
O1251 Tb1240 2.347 . S
O1251 C1255 1.259 . S
O1252 Eu1241 2.418 . S
O1252 C1255 1.265 . S
O1253 Eu1241 2.384 . S
O1253 C1262 1.255 . S
O1254 Tb1240 2.366 . S
O1254 C1262 1.265 . S
C1255 O1251 1.259 . S
C1255 O1252 1.265 . S
O1256 Eu1241 2.479 . S
O1256 C1271 1.238 . S
O1257 Eu1241 2.471 . S
O1257 C1271 1.247 . S
O1258 Eu1241 2.347 . S
O1258 C1242 1.259 . S
O1259 Tb1240 2.418 . S
O1259 C1242 1.265 . S
O1260 Tb1240 2.384 . S
O1260 C1243 1.255 . S
O1261 Eu1241 2.366 . S
O1261 C1243 1.265 . S
C1262 O1253 1.255 . S
C1262 O1254 1.265 . S
O1263 Tb1240 2.479 . S
O1263 C1250 1.238 . S
O1264 Tb1240 2.471 . S
O1264 C1250 1.247 . S
C1265 C1268 1.380 . S
C1265 C1269 1.374 . S
C1265 C1271 1.507 . S
C1266 C1267 1.387 . S
C1266 C1270 1.391 . S
C1267 C1266 1.387 . S
C1267 C1268 1.384 . S
C1267 H1276 0.930 . S
C1268 C1265 1.380 . S
C1268 C1267 1.384 . S
C1268 H1277 0.931 . S
C1269 C1265 1.374 . S
C1269 C1270 1.390 . S
C1269 H1278 0.930 . S
C1270 C1266 1.391 . S
C1270 C1269 1.390 . S
C1270 H1279 0.930 . S
C1271 Eu1241 2.825 . S
C1271 O1256 1.238 . S
C1271 O1257 1.247 . S
C1271 C1265 1.507 . S
H1272 C1245 0.930 . S
H1273 C1246 0.931 . S
H1274 C1247 0.930 . S
H1275 C1248 0.930 . S
H1276 C1267 0.930 . S
H1277 C1268 0.931 . S
H1278 C1269 0.930 . S
H1279 C1270 0.930 . S
Tb1280 C1290 2.825 . S
Tb1280 O1291 2.347 . S
Tb1280 O1294 2.366 . S
Tb1280 O1299 2.418 . S
Tb1280 O1300 2.384 . S
Tb1280 O1303 2.479 . S
Tb1280 O1304 2.471 . S
Eu1281 O1292 2.418 . S
Eu1281 O1293 2.384 . S
Eu1281 O1296 2.479 . S
Eu1281 O1297 2.471 . S
Eu1281 O1298 2.347 . S
Eu1281 O1301 2.366 . S
Eu1281 C1311 2.825 . S
C1282 O1298 1.259 . S
C1282 O1299 1.265 . S
C1283 O1300 1.255 . S
C1283 O1301 1.265 . S
C1284 C1286 1.380 . S
C1284 C1287 1.374 . S
C1284 C1290 1.507 . S
C1285 C1286 1.384 . S
C1285 C1289 1.387 . S
C1285 H1312 0.930 . S
C1286 C1284 1.380 . S
C1286 C1285 1.384 . S
C1286 H1313 0.931 . S
C1287 C1284 1.374 . S
C1287 C1288 1.390 . S
C1287 H1314 0.930 . S
C1288 C1287 1.390 . S
C1288 C1289 1.391 . S
C1288 H1315 0.930 . S
C1289 C1285 1.387 . S
C1289 C1288 1.391 . S
C1290 Tb1280 2.825 . S
C1290 C1284 1.507 . S
C1290 O1303 1.238 . S
C1290 O1304 1.247 . S
O1291 Tb1280 2.347 . S
O1291 C1295 1.259 . S
O1292 Eu1281 2.418 . S
O1292 C1295 1.265 . S
O1293 Eu1281 2.384 . S
O1293 C1302 1.255 . S
O1294 Tb1280 2.366 . S
O1294 C1302 1.265 . S
C1295 O1291 1.259 . S
C1295 O1292 1.265 . S
O1296 Eu1281 2.479 . S
O1296 C1311 1.238 . S
O1297 Eu1281 2.471 . S
O1297 C1311 1.247 . S
O1298 Eu1281 2.347 . S
O1298 C1282 1.259 . S
O1299 Tb1280 2.418 . S
O1299 C1282 1.265 . S
O1300 Tb1280 2.384 . S
O1300 C1283 1.255 . S
O1301 Eu1281 2.366 . S
O1301 C1283 1.265 . S
C1302 O1293 1.255 . S
C1302 O1294 1.265 . S
O1303 Tb1280 2.479 . S
O1303 C1290 1.238 . S
O1304 Tb1280 2.471 . S
O1304 C1290 1.247 . S
C1305 C1308 1.380 . S
C1305 C1309 1.374 . S
C1305 C1311 1.507 . S
C1306 C1307 1.387 . S
C1306 C1310 1.391 . S
C1307 C1306 1.387 . S
C1307 C1308 1.384 . S
C1307 H1316 0.930 . S
C1308 C1305 1.380 . S
C1308 C1307 1.384 . S
C1308 H1317 0.931 . S
C1309 C1305 1.374 . S
C1309 C1310 1.390 . S
C1309 H1318 0.930 . S
C1310 C1306 1.391 . S
C1310 C1309 1.390 . S
C1310 H1319 0.930 . S
C1311 Eu1281 2.825 . S
C1311 O1296 1.238 . S
C1311 O1297 1.247 . S
C1311 C1305 1.507 . S
H1312 C1285 0.930 . S
H1313 C1286 0.931 . S
H1314 C1287 0.930 . S
H1315 C1288 0.930 . S
H1316 C1307 0.930 . S
H1317 C1308 0.931 . S
H1318 C1309 0.930 . S
H1319 C1310 0.930 . S
Tb1320 C1330 2.825 . S
Tb1320 O1331 2.347 . S
Tb1320 O1334 2.366 . S
Tb1320 O1339 2.418 . S
Tb1320 O1340 2.384 . S
Tb1320 O1343 2.479 . S
Tb1320 O1344 2.471 . S
Eu1321 O1332 2.418 . S
Eu1321 O1333 2.384 . S
Eu1321 O1336 2.479 . S
Eu1321 O1337 2.471 . S
Eu1321 O1338 2.347 . S
Eu1321 O1341 2.366 . S
Eu1321 C1351 2.825 . S
C1322 O1338 1.259 . S
C1322 O1339 1.265 . S
C1323 O1340 1.255 . S
C1323 O1341 1.265 . S
C1324 C1326 1.380 . S
C1324 C1327 1.374 . S
C1324 C1330 1.507 . S
C1325 C1326 1.384 . S
C1325 C1329 1.387 . S
C1325 H1352 0.930 . S
C1326 C1324 1.380 . S
C1326 C1325 1.384 . S
C1326 H1353 0.931 . S
C1327 C1324 1.374 . S
C1327 C1328 1.390 . S
C1327 H1354 0.930 . S
C1328 C1327 1.390 . S
C1328 C1329 1.391 . S
C1328 H1355 0.930 . S
C1329 C1325 1.387 . S
C1329 C1328 1.391 . S
C1330 Tb1320 2.825 . S
C1330 C1324 1.507 . S
C1330 O1343 1.238 . S
C1330 O1344 1.247 . S
O1331 Tb1320 2.347 . S
O1331 C1335 1.259 . S
O1332 Eu1321 2.418 . S
O1332 C1335 1.265 . S
O1333 Eu1321 2.384 . S
O1333 C1342 1.255 . S
O1334 Tb1320 2.366 . S
O1334 C1342 1.265 . S
C1335 O1331 1.259 . S
C1335 O1332 1.265 . S
O1336 Eu1321 2.479 . S
O1336 C1351 1.238 . S
O1337 Eu1321 2.471 . S
O1337 C1351 1.247 . S
O1338 Eu1321 2.347 . S
O1338 C1322 1.259 . S
O1339 Tb1320 2.418 . S
O1339 C1322 1.265 . S
O1340 Tb1320 2.384 . S
O1340 C1323 1.255 . S
O1341 Eu1321 2.366 . S
O1341 C1323 1.265 . S
C1342 O1333 1.255 . S
C1342 O1334 1.265 . S
O1343 Tb1320 2.479 . S
O1343 C1330 1.238 . S
O1344 Tb1320 2.471 . S
O1344 C1330 1.247 . S
C1345 C1348 1.380 . S
C1345 C1349 1.374 . S
C1345 C1351 1.507 . S
C1346 C1347 1.387 . S
C1346 C1350 1.391 . S
C1347 C1346 1.387 . S
C1347 C1348 1.384 . S
C1347 H1356 0.930 . S
C1348 C1345 1.380 . S
C1348 C1347 1.384 . S
C1348 H1357 0.931 . S
C1349 C1345 1.374 . S
C1349 C1350 1.390 . S
C1349 H1358 0.930 . S
C1350 C1346 1.391 . S
C1350 C1349 1.390 . S
C1350 H1359 0.930 . S
C1351 Eu1321 2.825 . S
C1351 O1336 1.238 . S
C1351 O1337 1.247 . S
C1351 C1345 1.507 . S
H1352 C1325 0.930 . S
H1353 C1326 0.931 . S
H1354 C1327 0.930 . S
H1355 C1328 0.930 . S
H1356 C1347 0.930 . S
H1357 C1348 0.931 . S
H1358 C1349 0.930 . S
H1359 C1350 0.930 . S
Tb1360 C1370 2.825 . S
Tb1360 O1371 2.347 . S
Tb1360 O1374 2.366 . S
Tb1360 O1379 2.418 . S
Tb1360 O1380 2.384 . S
Tb1360 O1383 2.479 . S
Tb1360 O1384 2.471 . S
Eu1361 O1372 2.418 . S
Eu1361 O1373 2.384 . S
Eu1361 O1376 2.479 . S
Eu1361 O1377 2.471 . S
Eu1361 O1378 2.347 . S
Eu1361 O1381 2.366 . S
Eu1361 C1391 2.825 . S
C1362 O1378 1.259 . S
C1362 O1379 1.265 . S
C1363 O1380 1.255 . S
C1363 O1381 1.265 . S
C1364 C1366 1.380 . S
C1364 C1367 1.374 . S
C1364 C1370 1.507 . S
C1365 C1366 1.384 . S
C1365 C1369 1.387 . S
C1365 H1392 0.930 . S
C1366 C1364 1.380 . S
C1366 C1365 1.384 . S
C1366 H1393 0.931 . S
C1367 C1364 1.374 . S
C1367 C1368 1.390 . S
C1367 H1394 0.930 . S
C1368 C1367 1.390 . S
C1368 C1369 1.391 . S
C1368 H1395 0.930 . S
C1369 C1365 1.387 . S
C1369 C1368 1.391 . S
C1370 Tb1360 2.825 . S
C1370 C1364 1.507 . S
C1370 O1383 1.238 . S
C1370 O1384 1.247 . S
O1371 Tb1360 2.347 . S
O1371 C1375 1.259 . S
O1372 Eu1361 2.418 . S
O1372 C1375 1.265 . S
O1373 Eu1361 2.384 . S
O1373 C1382 1.255 . S
O1374 Tb1360 2.366 . S
O1374 C1382 1.265 . S
C1375 O1371 1.259 . S
C1375 O1372 1.265 . S
O1376 Eu1361 2.479 . S
O1376 C1391 1.238 . S
O1377 Eu1361 2.471 . S
O1377 C1391 1.247 . S
O1378 Eu1361 2.347 . S
O1378 C1362 1.259 . S
O1379 Tb1360 2.418 . S
O1379 C1362 1.265 . S
O1380 Tb1360 2.384 . S
O1380 C1363 1.255 . S
O1381 Eu1361 2.366 . S
O1381 C1363 1.265 . S
C1382 O1373 1.255 . S
C1382 O1374 1.265 . S
O1383 Tb1360 2.479 . S
O1383 C1370 1.238 . S
O1384 Tb1360 2.471 . S
O1384 C1370 1.247 . S
C1385 C1388 1.380 . S
C1385 C1389 1.374 . S
C1385 C1391 1.507 . S
C1386 C1387 1.387 . S
C1386 C1390 1.391 . S
C1387 C1386 1.387 . S
C1387 C1388 1.384 . S
C1387 H1396 0.930 . S
C1388 C1385 1.380 . S
C1388 C1387 1.384 . S
C1388 H1397 0.931 . S
C1389 C1385 1.374 . S
C1389 C1390 1.390 . S
C1389 H1398 0.930 . S
C1390 C1386 1.391 . S
C1390 C1389 1.390 . S
C1390 H1399 0.930 . S
C1391 Eu1361 2.825 . S
C1391 O1376 1.238 . S
C1391 O1377 1.247 . S
C1391 C1385 1.507 . S
H1392 C1365 0.930 . S
H1393 C1366 0.931 . S
H1394 C1367 0.930 . S
H1395 C1368 0.930 . S
H1396 C1387 0.930 . S
H1397 C1388 0.931 . S
H1398 C1389 0.930 . S
H1399 C1390 0.930 . S
Tb1400 C1410 2.825 . S
Tb1400 O1411 2.347 . S
Tb1400 O1414 2.366 . S
Tb1400 O1419 2.418 . S
Tb1400 O1420 2.384 . S
Tb1400 O1423 2.479 . S
Tb1400 O1424 2.471 . S
Eu1401 O1412 2.418 . S
Eu1401 O1413 2.384 . S
Eu1401 O1416 2.479 . S
Eu1401 O1417 2.471 . S
Eu1401 O1418 2.347 . S
Eu1401 O1421 2.366 . S
Eu1401 C1431 2.825 . S
C1402 O1418 1.259 . S
C1402 O1419 1.265 . S
C1403 O1420 1.255 . S
C1403 O1421 1.265 . S
C1404 C1406 1.380 . S
C1404 C1407 1.374 . S
C1404 C1410 1.507 . S
C1405 C1406 1.384 . S
C1405 C1409 1.387 . S
C1405 H1432 0.930 . S
C1406 C1404 1.380 . S
C1406 C1405 1.384 . S
C1406 H1433 0.931 . S
C1407 C1404 1.374 . S
C1407 C1408 1.390 . S
C1407 H1434 0.930 . S
C1408 C1407 1.390 . S
C1408 C1409 1.391 . S
C1408 H1435 0.930 . S
C1409 C1405 1.387 . S
C1409 C1408 1.391 . S
C1410 Tb1400 2.825 . S
C1410 C1404 1.507 . S
C1410 O1423 1.238 . S
C1410 O1424 1.247 . S
O1411 Tb1400 2.347 . S
O1411 C1415 1.259 . S
O1412 Eu1401 2.418 . S
O1412 C1415 1.265 . S
O1413 Eu1401 2.384 . S
O1413 C1422 1.255 . S
O1414 Tb1400 2.366 . S
O1414 C1422 1.265 . S
C1415 O1411 1.259 . S
C1415 O1412 1.265 . S
O1416 Eu1401 2.479 . S
O1416 C1431 1.238 . S
O1417 Eu1401 2.471 . S
O1417 C1431 1.247 . S
O1418 Eu1401 2.347 . S
O1418 C1402 1.259 . S
O1419 Tb1400 2.418 . S
O1419 C1402 1.265 . S
O1420 Tb1400 2.384 . S
O1420 C1403 1.255 . S
O1421 Eu1401 2.366 . S
O1421 C1403 1.265 . S
C1422 O1413 1.255 . S
C1422 O1414 1.265 . S
O1423 Tb1400 2.479 . S
O1423 C1410 1.238 . S
O1424 Tb1400 2.471 . S
O1424 C1410 1.247 . S
C1425 C1428 1.380 . S
C1425 C1429 1.374 . S
C1425 C1431 1.507 . S
C1426 C1427 1.387 . S
C1426 C1430 1.391 . S
C1427 C1426 1.387 . S
C1427 C1428 1.384 . S
C1427 H1436 0.930 . S
C1428 C1425 1.380 . S
C1428 C1427 1.384 . S
C1428 H1437 0.931 . S
C1429 C1425 1.374 . S
C1429 C1430 1.390 . S
C1429 H1438 0.930 . S
C1430 C1426 1.391 . S
C1430 C1429 1.390 . S
C1430 H1439 0.930 . S
C1431 Eu1401 2.825 . S
C1431 O1416 1.238 . S
C1431 O1417 1.247 . S
C1431 C1425 1.507 . S
H1432 C1405 0.930 . S
H1433 C1406 0.931 . S
H1434 C1407 0.930 . S
H1435 C1408 0.930 . S
H1436 C1427 0.930 . S
H1437 C1428 0.931 . S
H1438 C1429 0.930 . S
H1439 C1430 0.930 . S
H1440 C1446 0.930 . S
H1441 C1449 0.930 . S
H1442 C1450 0.930 . S
H1443 C1451 0.930 . S
H1444 C1454 0.930 1_556 S
H1445 C1455 0.928 1_556 S
C1446 H1440 0.930 . S
C1446 C1447 1.355 . S
C1446 C1448 1.415 . S
C1447 C1446 1.355 . S
C1447 C1449 1.419 . S
C1448 C1446 1.415 . S
C1448 C1453 1.425 . S
C1448 C1455 1.409 . S
C1449 H1441 0.930 . S
C1449 C1447 1.419 . S
C1449 C1450 1.362 . S
C1450 H1442 0.930 . S
C1450 C1449 1.362 . S
C1450 C1453 1.409 . S
C1451 H1443 0.930 . S
C1451 C1452 1.355 . S
C1451 C1453 1.415 . S
C1452 C1451 1.355 . S
C1452 C1454 1.419 . S
C1453 C1448 1.425 . S
C1453 C1450 1.409 . S
C1453 C1451 1.415 . S
C1454 H1444 0.930 1_554 S
C1454 C1452 1.419 . S
C1454 C1455 1.362 . S
C1455 H1445 0.928 1_554 S
C1455 C1448 1.409 . S
C1455 C1454 1.362 . S
H1456 C1462 0.930 . S
H1457 C1465 0.930 . S
H1458 C1466 0.930 . S
H1459 C1467 0.930 . S
H1460 C1470 0.930 . S
H1461 C1471 0.930 . S
C1462 H1456 0.930 . S
C1462 C1463 1.355 . S
C1462 C1464 1.415 . S
C1463 C1462 1.355 . S
C1463 C1465 1.419 . S
C1464 C1462 1.415 . S
C1464 C1469 1.425 . S
C1464 C1471 1.409 . S
C1465 H1457 0.930 . S
C1465 C1463 1.419 . S
C1465 C1466 1.362 . S
C1466 H1458 0.930 . S
C1466 C1465 1.362 . S
C1466 C1469 1.409 . S
C1467 H1459 0.930 . S
C1467 C1468 1.355 . S
C1467 C1469 1.415 . S
C1468 C1467 1.355 . S
C1468 C1470 1.419 . S
C1469 C1464 1.425 . S
C1469 C1466 1.409 . S
C1469 C1467 1.415 . S
C1470 H1460 0.930 . S
C1470 C1468 1.419 . S
C1470 C1471 1.362 . S
C1471 H1461 0.930 . S
C1471 C1464 1.409 . S
C1471 C1470 1.362 . S
H1472 C1478 0.930 . S
H1473 C1481 0.930 . S
H1474 C1482 0.930 . S
H1475 C1483 0.930 . S
H1476 C1486 0.930 1_556 S
H1477 C1487 0.935 1_556 S
C1478 H1472 0.930 . S
C1478 C1479 1.355 . S
C1478 C1480 1.415 . S
C1479 C1478 1.355 . S
C1479 C1481 1.419 . S
C1480 C1478 1.415 . S
C1480 C1485 1.425 . S
C1480 C1487 1.409 . S
C1481 H1473 0.930 . S
C1481 C1479 1.419 . S
C1481 C1482 1.362 . S
C1482 H1474 0.930 . S
C1482 C1481 1.362 . S
C1482 C1485 1.409 . S
C1483 H1475 0.930 . S
C1483 C1484 1.355 . S
C1483 C1485 1.415 . S
C1484 C1483 1.355 . S
C1484 C1486 1.419 . S
C1485 C1480 1.425 . S
C1485 C1482 1.409 . S
C1485 C1483 1.415 . S
C1486 H1476 0.930 1_554 S
C1486 C1484 1.419 . S
C1486 C1487 1.362 . S
C1487 H1477 0.935 1_554 S
C1487 C1480 1.409 . S
C1487 C1486 1.362 . S
H1488 C1494 0.930 . S
H1489 C1497 0.930 . S
H1490 C1498 0.930 1_554 S
H1491 C1499 0.930 1_554 S
H1492 C1502 0.930 . S
H1493 C1503 0.930 . S
C1494 H1488 0.930 . S
C1494 C1495 1.355 . S
C1494 C1496 1.415 . S
C1495 C1494 1.355 . S
C1495 C1497 1.419 . S
C1496 C1494 1.415 . S
C1496 C1501 1.425 . S
C1496 C1503 1.409 . S
C1497 H1489 0.930 . S
C1497 C1495 1.419 . S
C1497 C1498 1.362 . S
C1498 H1490 0.930 1_556 S
C1498 C1497 1.362 . S
C1498 C1501 1.409 . S
C1499 H1491 0.930 1_556 S
C1499 C1500 1.355 . S
C1499 C1501 1.415 . S
C1500 C1499 1.355 . S
C1500 C1502 1.419 . S
C1501 C1496 1.425 . S
C1501 C1498 1.409 . S
C1501 C1499 1.415 . S
C1502 H1492 0.930 . S
C1502 C1500 1.419 . S
C1502 C1503 1.362 . S
C1503 H1493 0.930 . S
C1503 C1496 1.409 . S
C1503 C1502 1.362 . S
H1504 C1510 0.930 . S
H1505 C1513 0.930 . S
H1506 C1514 0.930 . S
H1507 C1515 0.930 . S
H1508 C1518 0.930 . S
H1509 C1519 0.930 . S
C1510 H1504 0.930 . S
C1510 C1511 1.355 . S
C1510 C1512 1.415 . S
C1511 C1510 1.355 . S
C1511 C1513 1.419 . S
C1512 C1510 1.415 . S
C1512 C1517 1.425 . S
C1512 C1519 1.409 . S
C1513 H1505 0.930 . S
C1513 C1511 1.419 . S
C1513 C1514 1.362 . S
C1514 H1506 0.930 . S
C1514 C1513 1.362 . S
C1514 C1517 1.409 . S
C1515 H1507 0.930 . S
C1515 C1516 1.355 . S
C1515 C1517 1.415 . S
C1516 C1515 1.355 . S
C1516 C1518 1.419 . S
C1517 C1512 1.425 . S
C1517 C1514 1.409 . S
C1517 C1515 1.415 . S
C1518 H1508 0.930 . S
C1518 C1516 1.419 . S
C1518 C1519 1.362 . S
C1519 H1509 0.930 . S
C1519 C1512 1.409 . S
C1519 C1518 1.362 . S
H1520 C1526 0.930 . S
H1521 C1529 0.968 . S
H1522 C1530 0.920 1_554 S
H1523 C1531 0.930 1_554 S
H1524 C1534 0.930 . S
H1525 C1535 0.930 . S
C1526 H1520 0.930 . S
C1526 C1527 1.355 . S
C1526 C1528 1.415 . S
C1527 C1526 1.355 . S
C1527 C1529 1.419 . S
C1528 C1526 1.415 . S
C1528 C1533 1.425 . S
C1528 C1535 1.409 . S
C1529 H1521 0.968 . S
C1529 C1527 1.419 . S
C1529 C1530 1.366 . S
C1530 H1522 0.920 1_556 S
C1530 C1529 1.366 . S
C1530 C1533 1.415 . S
C1531 H1523 0.930 1_556 S
C1531 C1532 1.355 . S
C1531 C1533 1.415 . S
C1532 C1531 1.355 . S
C1532 C1534 1.419 . S
C1533 C1528 1.425 . S
C1533 C1530 1.415 . S
C1533 C1531 1.415 . S
C1534 H1524 0.930 . S
C1534 C1532 1.419 . S
C1534 C1535 1.362 . S
C1535 H1525 0.930 . S
C1535 C1528 1.409 . S
C1535 C1534 1.362 . S
H1536 C1542 0.930 . S
H1537 C1545 0.930 . S
H1538 C1546 0.930 . S
H1539 C1547 0.930 . S
H1540 C1550 0.930 . S
H1541 C1551 0.930 . S
C1542 H1536 0.930 . S
C1542 C1543 1.355 . S
C1542 C1544 1.415 . S
C1543 C1542 1.355 . S
C1543 C1545 1.419 . S
C1544 C1542 1.415 . S
C1544 C1549 1.425 . S
C1544 C1551 1.409 . S
C1545 H1537 0.930 . S
C1545 C1543 1.419 . S
C1545 C1546 1.362 . S
C1546 H1538 0.930 . S
C1546 C1545 1.362 . S
C1546 C1549 1.409 . S
C1547 H1539 0.930 . S
C1547 C1548 1.355 . S
C1547 C1549 1.415 . S
C1548 C1547 1.355 . S
C1548 C1550 1.419 . S
C1549 C1544 1.425 . S
C1549 C1546 1.409 . S
C1549 C1547 1.415 . S
C1550 H1540 0.930 . S
C1550 C1548 1.419 . S
C1550 C1551 1.362 . S
C1551 H1541 0.930 . S
C1551 C1544 1.409 . S
C1551 C1550 1.362 . S
H1552 C1558 0.930 . S
H1553 C1561 0.930 . S
H1554 C1562 0.930 . S
H1555 C1563 0.930 . S
H1556 C1566 0.930 . S
H1557 C1567 0.930 . S
C1558 H1552 0.930 . S
C1558 C1559 1.355 . S
C1558 C1560 1.415 . S
C1559 C1558 1.355 . S
C1559 C1561 1.419 . S
C1560 C1558 1.415 . S
C1560 C1565 1.425 . S
C1560 C1567 1.409 . S
C1561 H1553 0.930 . S
C1561 C1559 1.419 . S
C1561 C1562 1.362 . S
C1562 H1554 0.930 . S
C1562 C1561 1.362 . S
C1562 C1565 1.409 . S
C1563 H1555 0.930 . S
C1563 C1564 1.355 . S
C1563 C1565 1.415 . S
C1564 C1563 1.355 . S
C1564 C1566 1.419 . S
C1565 C1560 1.425 . S
C1565 C1562 1.409 . S
C1565 C1563 1.415 . S
C1566 H1556 0.930 . S
C1566 C1564 1.419 . S
C1566 C1567 1.362 . S
C1567 H1557 0.930 . S
C1567 C1560 1.409 . S
C1567 C1566 1.362 . S
H1568 C1574 0.930 . S
H1569 C1577 0.930 . S
H1570 C1578 0.930 . S
H1571 C1579 0.930 . S
H1572 C1582 0.933 1_554 S
H1573 C1583 0.917 1_554 S
C1574 H1568 0.930 . S
C1574 C1575 1.355 . S
C1574 C1576 1.415 . S
C1575 C1574 1.355 . S
C1575 C1577 1.419 . S
C1576 C1574 1.415 . S
C1576 C1581 1.425 . S
C1576 C1583 1.420 . S
C1577 H1569 0.930 . S
C1577 C1575 1.419 . S
C1577 C1578 1.362 . S
C1578 H1570 0.930 . S
C1578 C1577 1.362 . S
C1578 C1581 1.409 . S
C1579 H1571 0.930 . S
C1579 C1580 1.355 . S
C1579 C1581 1.415 . S
C1580 C1579 1.355 . S
C1580 C1582 1.415 . S
C1581 C1576 1.425 . S
C1581 C1578 1.409 . S
C1581 C1579 1.415 . S
C1582 H1572 0.933 1_556 S
C1582 C1580 1.415 . S
C1582 C1583 1.365 . S
C1583 H1573 0.917 1_556 S
C1583 C1576 1.420 . S
C1583 C1582 1.365 . S
H1584 C1590 0.930 . S
H1585 C1593 0.930 . S
H1586 C1594 0.930 . S
H1587 C1595 0.930 . S
H1588 C1598 0.930 . S
H1589 C1599 0.930 . S
C1590 H1584 0.930 . S
C1590 C1591 1.355 . S
C1590 C1592 1.415 . S
C1591 C1590 1.355 . S
C1591 C1593 1.419 . S
C1592 C1590 1.415 . S
C1592 C1597 1.425 . S
C1592 C1599 1.409 . S
C1593 H1585 0.930 . S
C1593 C1591 1.419 . S
C1593 C1594 1.362 . S
C1594 H1586 0.930 . S
C1594 C1593 1.362 . S
C1594 C1597 1.409 . S
C1595 H1587 0.930 . S
C1595 C1596 1.355 . S
C1595 C1597 1.415 . S
C1596 C1595 1.355 . S
C1596 C1598 1.419 . S
C1597 C1592 1.425 . S
C1597 C1594 1.409 . S
C1597 C1595 1.415 . S
C1598 H1588 0.930 . S
C1598 C1596 1.419 . S
C1598 C1599 1.362 . S
C1599 H1589 0.930 . S
C1599 C1592 1.409 . S
C1599 C1598 1.362 . S
H1600 C1606 0.930 . S
H1601 C1609 0.930 . S
H1602 C1610 0.930 . S
H1603 C1611 0.930 . S
H1604 C1614 0.930 . S
H1605 C1615 0.930 . S
C1606 H1600 0.930 . S
C1606 C1607 1.355 . S
C1606 C1608 1.415 . S
C1607 C1606 1.355 . S
C1607 C1609 1.419 . S
C1608 C1606 1.415 . S
C1608 C1613 1.425 . S
C1608 C1615 1.409 . S
C1609 H1601 0.930 . S
C1609 C1607 1.419 . S
C1609 C1610 1.362 . S
C1610 H1602 0.930 . S
C1610 C1609 1.362 . S
C1610 C1613 1.409 . S
C1611 H1603 0.930 . S
C1611 C1612 1.355 . S
C1611 C1613 1.415 . S
C1612 C1611 1.355 . S
C1612 C1614 1.419 . S
C1613 C1608 1.425 . S
C1613 C1610 1.409 . S
C1613 C1611 1.415 . S
C1614 H1604 0.930 . S
C1614 C1612 1.419 . S
C1614 C1615 1.362 . S
C1615 H1605 0.930 . S
C1615 C1608 1.409 . S
C1615 C1614 1.362 . S
H1616 C1622 0.930 . S
H1617 C1625 0.930 . S
H1618 C1626 0.930 1_556 S
H1619 C1627 0.930 1_556 S
H1620 C1630 0.930 . S
H1621 C1631 0.930 . S
C1622 H1616 0.930 . S
C1622 C1623 1.355 . S
C1622 C1624 1.415 . S
C1623 C1622 1.355 . S
C1623 C1625 1.419 . S
C1624 C1622 1.415 . S
C1624 C1629 1.425 . S
C1624 C1631 1.409 . S
C1625 H1617 0.930 . S
C1625 C1623 1.419 . S
C1625 C1626 1.362 . S
C1626 H1618 0.930 1_554 S
C1626 C1625 1.362 . S
C1626 C1629 1.409 . S
C1627 H1619 0.930 1_554 S
C1627 C1628 1.355 . S
C1627 C1629 1.415 . S
C1628 C1627 1.355 . S
C1628 C1630 1.419 . S
C1629 C1624 1.425 . S
C1629 C1626 1.409 . S
C1629 C1627 1.415 . S
C1630 H1620 0.930 . S
C1630 C1628 1.419 . S
C1630 C1631 1.362 . S
C1631 H1621 0.930 . S
C1631 C1624 1.409 . S
C1631 C1630 1.362 . S
H1632 C1638 0.930 . S
H1633 C1641 0.930 . S
H1634 C1642 0.930 . S
H1635 C1643 0.930 . S
H1636 C1646 0.930 . S
H1637 C1647 0.930 . S
C1638 H1632 0.930 . S
C1638 C1639 1.355 1_455 S
C1638 C1640 1.415 . S
C1639 C1638 1.355 1_655 S
C1639 C1641 1.419 . S
C1640 C1638 1.415 . S
C1640 C1645 1.425 . S
C1640 C1647 1.409 . S
C1641 H1633 0.930 . S
C1641 C1639 1.419 . S
C1641 C1642 1.362 1_655 S
C1642 H1634 0.930 . S
C1642 C1641 1.362 1_455 S
C1642 C1645 1.409 . S
C1643 H1635 0.930 . S
C1643 C1644 1.355 . S
C1643 C1645 1.415 . S
C1644 C1643 1.355 . S
C1644 C1646 1.419 . S
C1645 C1640 1.425 . S
C1645 C1642 1.409 . S
C1645 C1643 1.415 . S
C1646 H1636 0.930 . S
C1646 C1644 1.419 . S
C1646 C1647 1.362 . S
C1647 H1637 0.930 . S
C1647 C1640 1.409 . S
C1647 C1646 1.362 . S
H1648 C1654 0.930 . S
H1649 C1657 0.930 . S
H1650 C1658 0.930 . S
H1651 C1659 0.930 . S
H1652 C1662 0.930 . S
H1653 C1663 0.930 . S
C1654 H1648 0.930 . S
C1654 C1655 1.355 . S
C1654 C1656 1.415 . S
C1655 C1654 1.355 . S
C1655 C1657 1.419 . S
C1656 C1654 1.415 . S
C1656 C1661 1.425 . S
C1656 C1663 1.409 . S
C1657 H1649 0.930 . S
C1657 C1655 1.419 . S
C1657 C1658 1.362 . S
C1658 H1650 0.930 . S
C1658 C1657 1.362 . S
C1658 C1661 1.409 . S
C1659 H1651 0.930 . S
C1659 C1660 1.355 . S
C1659 C1661 1.415 . S
C1660 C1659 1.355 . S
C1660 C1662 1.419 . S
C1661 C1656 1.425 . S
C1661 C1658 1.409 . S
C1661 C1659 1.415 . S
C1662 H1652 0.930 . S
C1662 C1660 1.419 . S
C1662 C1663 1.362 . S
C1663 H1653 0.930 . S
C1663 C1656 1.409 . S
C1663 C1662 1.362 . S
H1664 C1670 0.930 . S
H1665 C1673 0.930 . S
H1666 C1674 0.930 . S
H1667 C1675 0.930 . S
H1668 C1678 0.930 . S
H1669 C1679 0.930 . S
C1670 H1664 0.930 . S
C1670 C1671 1.355 . S
C1670 C1672 1.415 1_545 S
C1671 C1670 1.355 . S
C1671 C1673 1.419 . S
C1672 C1670 1.415 1_565 S
C1672 C1677 1.425 . S
C1672 C1679 1.409 . S
C1673 H1665 0.930 . S
C1673 C1671 1.419 . S
C1673 C1674 1.362 1_545 S
C1674 H1666 0.930 . S
C1674 C1673 1.362 1_565 S
C1674 C1677 1.409 . S
C1675 H1667 0.930 . S
C1675 C1676 1.355 . S
C1675 C1677 1.415 . S
C1676 C1675 1.355 . S
C1676 C1678 1.419 . S
C1677 C1672 1.425 . S
C1677 C1674 1.409 . S
C1677 C1675 1.415 . S
C1678 H1668 0.930 . S
C1678 C1676 1.419 . S
C1678 C1679 1.362 . S
C1679 H1669 0.930 . S
C1679 C1672 1.409 . S
C1679 C1678 1.362 . S
H1680 C1686 0.930 . S
H1681 C1689 0.930 . S
H1682 C1690 0.930 . S
H1683 C1691 0.930 . S
H1684 C1694 0.930 . S
H1685 C1695 0.930 . S
C1686 H1680 0.930 . S
C1686 C1687 1.355 . S
C1686 C1688 1.415 . S
C1687 C1686 1.355 . S
C1687 C1689 1.419 . S
C1688 C1686 1.415 . S
C1688 C1693 1.425 . S
C1688 C1695 1.409 . S
C1689 H1681 0.930 . S
C1689 C1687 1.419 . S
C1689 C1690 1.362 . S
C1690 H1682 0.930 . S
C1690 C1689 1.362 . S
C1690 C1693 1.409 . S
C1691 H1683 0.930 . S
C1691 C1692 1.355 . S
C1691 C1693 1.415 . S
C1692 C1691 1.355 . S
C1692 C1694 1.419 . S
C1693 C1688 1.425 . S
C1693 C1690 1.409 . S
C1693 C1691 1.415 . S
C1694 H1684 0.930 . S
C1694 C1692 1.419 . S
C1694 C1695 1.362 . S
C1695 H1685 0.930 . S
C1695 C1688 1.409 . S
C1695 C1694 1.362 . S
H1696 C1702 0.930 . S
H1697 C1705 0.930 . S
H1698 C1706 0.930 . S
H1699 C1707 0.930 . S
H1700 C1710 0.930 . S
H1701 C1711 0.930 . S
C1702 H1696 0.930 . S
C1702 C1703 1.355 . S
C1702 C1704 1.415 . S
C1703 C1702 1.355 . S
C1703 C1705 1.419 . S
C1704 C1702 1.415 . S
C1704 C1709 1.425 . S
C1704 C1711 1.409 . S
C1705 H1697 0.930 . S
C1705 C1703 1.419 . S
C1705 C1706 1.362 . S
C1706 H1698 0.930 . S
C1706 C1705 1.362 . S
C1706 C1709 1.409 . S
C1707 H1699 0.930 . S
C1707 C1708 1.355 . S
C1707 C1709 1.415 . S
C1708 C1707 1.355 . S
C1708 C1710 1.419 . S
C1709 C1704 1.425 . S
C1709 C1706 1.409 . S
C1709 C1707 1.415 . S
C1710 H1700 0.930 . S
C1710 C1708 1.419 . S
C1710 C1711 1.362 . S
C1711 H1701 0.930 . S
C1711 C1704 1.409 . S
C1711 C1710 1.362 . S
H1712 C1718 0.930 . S
H1713 C1721 0.930 . S
H1714 C1722 0.930 . S
H1715 C1723 0.930 . S
H1716 C1726 0.930 . S
H1717 C1727 0.930 . S
C1718 H1712 0.930 . S
C1718 C1719 1.355 . S
C1718 C1720 1.415 . S
C1719 C1718 1.355 . S
C1719 C1721 1.419 . S
C1720 C1718 1.415 . S
C1720 C1725 1.425 . S
C1720 C1727 1.409 . S
C1721 H1713 0.930 . S
C1721 C1719 1.419 . S
C1721 C1722 1.362 . S
C1722 H1714 0.930 . S
C1722 C1721 1.362 . S
C1722 C1725 1.409 . S
C1723 H1715 0.930 . S
C1723 C1724 1.355 . S
C1723 C1725 1.415 . S
C1724 C1723 1.355 . S
C1724 C1726 1.419 . S
C1725 C1720 1.425 . S
C1725 C1722 1.409 . S
C1725 C1723 1.415 . S
C1726 H1716 0.930 . S
C1726 C1724 1.419 . S
C1726 C1727 1.362 . S
C1727 H1717 0.930 . S
C1727 C1720 1.409 . S
C1727 C1726 1.362 . S
H1728 C1734 0.930 . S
H1729 C1737 0.930 . S
H1730 C1738 0.930 . S
H1731 C1739 0.930 . S
H1732 C1742 0.930 . S
H1733 C1743 0.930 . S
C1734 H1728 0.930 . S
C1734 C1735 1.355 . S
C1734 C1736 1.415 . S
C1735 C1734 1.355 . S
C1735 C1737 1.419 . S
C1736 C1734 1.415 . S
C1736 C1741 1.425 . S
C1736 C1743 1.409 . S
C1737 H1729 0.930 . S
C1737 C1735 1.419 . S
C1737 C1738 1.362 . S
C1738 H1730 0.930 . S
C1738 C1737 1.362 . S
C1738 C1741 1.409 . S
C1739 H1731 0.930 . S
C1739 C1740 1.355 . S
C1739 C1741 1.415 . S
C1740 C1739 1.355 . S
C1740 C1742 1.419 . S
C1741 C1736 1.425 . S
C1741 C1738 1.409 . S
C1741 C1739 1.415 . S
C1742 H1732 0.930 . S
C1742 C1740 1.419 . S
C1742 C1743 1.362 . S
C1743 H1733 0.930 . S
C1743 C1736 1.409 . S
C1743 C1742 1.362 . S
H1744 C1750 0.930 . S
H1745 C1753 0.930 . S
H1746 C1754 0.930 . S
H1747 C1755 0.930 . S
H1748 C1758 0.930 . S
H1749 C1759 0.930 . S
C1750 H1744 0.930 . S
C1750 C1751 1.355 . S
C1750 C1752 1.415 . S
C1751 C1750 1.355 . S
C1751 C1753 1.419 . S
C1752 C1750 1.415 . S
C1752 C1757 1.425 . S
C1752 C1759 1.409 . S
C1753 H1745 0.930 . S
C1753 C1751 1.419 . S
C1753 C1754 1.362 . S
C1754 H1746 0.930 . S
C1754 C1753 1.362 . S
C1754 C1757 1.409 . S
C1755 H1747 0.930 . S
C1755 C1756 1.355 . S
C1755 C1757 1.415 . S
C1756 C1755 1.355 . S
C1756 C1758 1.419 . S
C1757 C1752 1.425 . S
C1757 C1754 1.409 . S
C1757 C1755 1.415 . S
C1758 H1748 0.930 . S
C1758 C1756 1.419 . S
C1758 C1759 1.362 . S
C1759 H1749 0.930 . S
C1759 C1752 1.409 . S
C1759 C1758 1.362 . S
H1760 C1766 0.930 . S
H1761 C1769 0.930 . S
H1762 C1770 0.930 . S
H1763 C1771 0.930 . S
H1764 C1774 0.930 . S
H1765 C1775 0.930 . S
C1766 H1760 0.930 . S
C1766 C1767 1.355 . S
C1766 C1768 1.415 . S
C1767 C1766 1.355 . S
C1767 C1769 1.419 . S
C1768 C1766 1.415 . S
C1768 C1773 1.425 . S
C1768 C1775 1.409 . S
C1769 H1761 0.930 . S
C1769 C1767 1.419 . S
C1769 C1770 1.362 . S
C1770 H1762 0.930 . S
C1770 C1769 1.362 . S
C1770 C1773 1.409 . S
C1771 H1763 0.930 . S
C1771 C1772 1.355 . S
C1771 C1773 1.415 . S
C1772 C1771 1.355 . S
C1772 C1774 1.419 . S
C1773 C1768 1.425 . S
C1773 C1770 1.409 . S
C1773 C1771 1.415 . S
C1774 H1764 0.930 . S
C1774 C1772 1.419 . S
C1774 C1775 1.362 . S
C1775 H1765 0.930 . S
C1775 C1768 1.409 . S
C1775 C1774 1.362 . S
H1776 C1782 0.930 . S
H1777 C1785 0.930 . S
H1778 C1786 0.930 . S
H1779 C1787 0.930 . S
H1780 C1790 0.930 . S
H1781 C1791 0.930 . S
C1782 H1776 0.930 . S
C1782 C1783 1.355 . S
C1782 C1784 1.415 1_545 S
C1783 C1782 1.355 . S
C1783 C1785 1.419 . S
C1784 C1782 1.415 1_565 S
C1784 C1789 1.425 . S
C1784 C1791 1.409 . S
C1785 H1777 0.930 . S
C1785 C1783 1.419 . S
C1785 C1786 1.362 1_545 S
C1786 H1778 0.930 . S
C1786 C1785 1.362 1_565 S
C1786 C1789 1.409 . S
C1787 H1779 0.930 . S
C1787 C1788 1.355 . S
C1787 C1789 1.415 . S
C1788 C1787 1.355 . S
C1788 C1790 1.419 . S
C1789 C1784 1.425 . S
C1789 C1786 1.409 . S
C1789 C1787 1.415 . S
C1790 H1780 0.930 . S
C1790 C1788 1.419 . S
C1790 C1791 1.362 . S
C1791 H1781 0.930 . S
C1791 C1784 1.409 . S
C1791 C1790 1.362 . S
H1792 C1798 0.930 . S
H1793 C1801 0.930 . S
H1794 C1802 0.930 . S
H1795 C1803 0.930 . S
H1796 C1806 0.930 . S
H1797 C1807 0.930 . S
C1798 H1792 0.930 . S
C1798 C1799 1.355 . S
C1798 C1800 1.415 . S
C1799 C1798 1.355 . S
C1799 C1801 1.419 1_455 S
C1800 C1798 1.415 . S
C1800 C1805 1.425 . S
C1800 C1807 1.409 . S
C1801 H1793 0.930 . S
C1801 C1799 1.419 1_655 S
C1801 C1802 1.362 1_655 S
C1802 H1794 0.930 . S
C1802 C1801 1.362 1_455 S
C1802 C1805 1.409 . S
C1803 H1795 0.930 . S
C1803 C1804 1.355 . S
C1803 C1805 1.415 . S
C1804 C1803 1.355 . S
C1804 C1806 1.419 . S
C1805 C1800 1.425 . S
C1805 C1802 1.409 . S
C1805 C1803 1.415 . S
C1806 H1796 0.930 . S
C1806 C1804 1.419 . S
C1806 C1807 1.362 . S
C1807 H1797 0.930 . S
C1807 C1800 1.409 . S
C1807 C1806 1.362 . S
H1808 C1814 0.930 . S
H1809 C1817 0.930 . S
H1810 C1818 0.930 . S
H1811 C1819 0.930 . S
H1812 C1822 0.930 . S
H1813 C1823 0.930 . S
C1814 H1808 0.930 . S
C1814 C1815 1.355 . S
C1814 C1816 1.415 . S
C1815 C1814 1.355 . S
C1815 C1817 1.419 . S
C1816 C1814 1.415 . S
C1816 C1821 1.425 . S
C1816 C1823 1.409 . S
C1817 H1809 0.930 . S
C1817 C1815 1.419 . S
C1817 C1818 1.362 . S
C1818 H1810 0.930 . S
C1818 C1817 1.362 . S
C1818 C1821 1.409 . S
C1819 H1811 0.930 . S
C1819 C1820 1.355 . S
C1819 C1821 1.415 . S
C1820 C1819 1.355 . S
C1820 C1822 1.419 . S
C1821 C1816 1.425 . S
C1821 C1818 1.409 . S
C1821 C1819 1.415 . S
C1822 H1812 0.930 . S
C1822 C1820 1.419 . S
C1822 C1823 1.362 . S
C1823 H1813 0.930 . S
C1823 C1816 1.409 . S
C1823 C1822 1.362 . S
H1824 C1830 0.930 . S
H1825 C1833 0.930 . S
H1826 C1834 0.930 . S
H1827 C1835 0.930 . S
H1828 C1838 0.930 . S
H1829 C1839 0.930 . S
C1830 H1824 0.930 . S
C1830 C1831 1.355 . S
C1830 C1832 1.415 . S
C1831 C1830 1.355 . S
C1831 C1833 1.419 . S
C1832 C1830 1.415 . S
C1832 C1837 1.425 . S
C1832 C1839 1.409 . S
C1833 H1825 0.930 . S
C1833 C1831 1.419 . S
C1833 C1834 1.362 . S
C1834 H1826 0.930 . S
C1834 C1833 1.362 . S
C1834 C1837 1.409 . S
C1835 H1827 0.930 . S
C1835 C1836 1.355 . S
C1835 C1837 1.415 . S
C1836 C1835 1.355 . S
C1836 C1838 1.419 . S
C1837 C1832 1.425 . S
C1837 C1834 1.409 . S
C1837 C1835 1.415 . S
C1838 H1828 0.930 . S
C1838 C1836 1.419 . S
C1838 C1839 1.362 . S
C1839 H1829 0.930 . S
C1839 C1832 1.409 . S
C1839 C1838 1.362 . S
H1840 C1846 0.930 . S
H1841 C1849 0.930 . S
H1842 C1850 0.930 . S
H1843 C1851 0.930 . S
H1844 C1854 0.930 . S
H1845 C1855 0.930 . S
C1846 H1840 0.930 . S
C1846 C1847 1.355 . S
C1846 C1848 1.415 . S
C1847 C1846 1.355 . S
C1847 C1849 1.419 . S
C1848 C1846 1.415 . S
C1848 C1853 1.425 . S
C1848 C1855 1.409 . S
C1849 H1841 0.930 . S
C1849 C1847 1.419 . S
C1849 C1850 1.362 . S
C1850 H1842 0.930 . S
C1850 C1849 1.362 . S
C1850 C1853 1.409 . S
C1851 H1843 0.930 . S
C1851 C1852 1.355 . S
C1851 C1853 1.415 . S
C1852 C1851 1.355 . S
C1852 C1854 1.419 . S
C1853 C1848 1.425 . S
C1853 C1850 1.409 . S
C1853 C1851 1.415 . S
C1854 H1844 0.930 . S
C1854 C1852 1.419 . S
C1854 C1855 1.362 . S
C1855 H1845 0.930 . S
C1855 C1848 1.409 . S
C1855 C1854 1.362 . S
H1856 C1862 0.930 . S
H1857 C1865 0.930 . S
H1858 C1866 0.930 . S
H1859 C1867 0.930 . S
H1860 C1870 0.930 . S
H1861 C1871 0.930 . S
C1862 H1856 0.930 . S
C1862 C1863 1.355 . S
C1862 C1864 1.415 . S
C1863 C1862 1.355 . S
C1863 C1865 1.419 . S
C1864 C1862 1.415 . S
C1864 C1869 1.425 . S
C1864 C1871 1.409 . S
C1865 H1857 0.930 . S
C1865 C1863 1.419 . S
C1865 C1866 1.362 . S
C1866 H1858 0.930 . S
C1866 C1865 1.362 . S
C1866 C1869 1.409 . S
C1867 H1859 0.930 . S
C1867 C1868 1.355 . S
C1867 C1869 1.415 . S
C1868 C1867 1.355 . S
C1868 C1870 1.419 . S
C1869 C1864 1.425 . S
C1869 C1866 1.409 . S
C1869 C1867 1.415 . S
C1870 H1860 0.930 . S
C1870 C1868 1.419 . S
C1870 C1871 1.362 . S
C1871 H1861 0.930 . S
C1871 C1864 1.409 . S
C1871 C1870 1.362 . S
H1872 C1878 0.930 . S
H1873 C1881 0.930 . S
H1874 C1882 0.930 . S
H1875 C1883 0.930 . S
H1876 C1886 0.930 . S
H1877 C1887 0.930 . S
C1878 H1872 0.930 . S
C1878 C1879 1.355 . S
C1878 C1880 1.415 1_565 S
C1879 C1878 1.355 . S
C1879 C1881 1.419 . S
C1880 C1878 1.415 1_545 S
C1880 C1885 1.425 . S
C1880 C1887 1.409 . S
C1881 H1873 0.930 . S
C1881 C1879 1.419 . S
C1881 C1882 1.362 1_565 S
C1882 H1874 0.930 . S
C1882 C1881 1.362 1_545 S
C1882 C1885 1.409 . S
C1883 H1875 0.930 . S
C1883 C1884 1.355 . S
C1883 C1885 1.415 . S
C1884 C1883 1.355 . S
C1884 C1886 1.419 . S
C1885 C1880 1.425 . S
C1885 C1882 1.409 . S
C1885 C1883 1.415 . S
C1886 H1876 0.930 . S
C1886 C1884 1.419 . S
C1886 C1887 1.362 . S
C1887 H1877 0.930 . S
C1887 C1880 1.409 . S
C1887 C1886 1.362 . S
H1888 C1894 0.930 . S
H1889 C1897 0.930 1_455 S
H1890 C1898 0.930 . S
H1891 C1899 0.930 . S
H1892 C1902 0.930 . S
H1893 C1903 0.930 . S
C1894 H1888 0.930 . S
C1894 C1895 1.355 . S
C1894 C1896 1.415 . S
C1895 C1894 1.355 . S
C1895 C1897 1.419 . S
C1896 C1894 1.415 . S
C1896 C1901 1.425 . S
C1896 C1903 1.409 . S
C1897 H1889 0.930 1_655 S
C1897 C1895 1.419 . S
C1897 C1898 1.362 . S
C1898 H1890 0.930 . S
C1898 C1897 1.362 . S
C1898 C1901 1.409 . S
C1899 H1891 0.930 . S
C1899 C1900 1.355 . S
C1899 C1901 1.415 . S
C1900 C1899 1.355 . S
C1900 C1902 1.419 . S
C1901 C1896 1.425 . S
C1901 C1898 1.409 . S
C1901 C1899 1.415 . S
C1902 H1892 0.930 . S
C1902 C1900 1.419 . S
C1902 C1903 1.362 . S
C1903 H1893 0.930 . S
C1903 C1896 1.409 . S
C1903 C1902 1.362 . S
H1904 C1910 0.930 . S
H1905 C1913 0.930 . S
H1906 C1914 0.930 . S
H1907 C1915 0.930 . S
H1908 C1918 0.930 . S
H1909 C1919 0.930 . S
C1910 H1904 0.930 . S
C1910 C1911 1.355 . S
C1910 C1912 1.415 . S
C1911 C1910 1.355 . S
C1911 C1913 1.419 . S
C1912 C1910 1.415 . S
C1912 C1917 1.425 . S
C1912 C1919 1.409 . S
C1913 H1905 0.930 . S
C1913 C1911 1.419 . S
C1913 C1914 1.362 . S
C1914 H1906 0.930 . S
C1914 C1913 1.362 . S
C1914 C1917 1.409 . S
C1915 H1907 0.930 . S
C1915 C1916 1.355 . S
C1915 C1917 1.415 . S
C1916 C1915 1.355 . S
C1916 C1918 1.419 . S
C1917 C1912 1.425 . S
C1917 C1914 1.409 . S
C1917 C1915 1.415 . S
C1918 H1908 0.930 . S
C1918 C1916 1.419 . S
C1918 C1919 1.362 . S
C1919 H1909 0.930 . S
C1919 C1912 1.409 . S
C1919 C1918 1.362 . S
H1920 C1926 0.957 . S
H1921 C1929 0.930 . S
H1922 C1930 0.930 . S
H1923 C1931 0.930 . S
H1924 C1934 0.930 . S
H1925 C1935 0.930 . S
C1926 H1920 0.957 . S
C1926 C1927 1.374 . S
C1926 C1928 1.370 1_455 S
C1927 C1926 1.374 . S
C1927 C1929 1.419 1_455 S
C1928 C1926 1.370 1_655 S
C1928 C1933 1.425 . S
C1928 C1935 1.409 . S
C1929 H1921 0.930 . S
C1929 C1927 1.419 1_655 S
C1929 C1930 1.362 . S
C1930 H1922 0.930 . S
C1930 C1929 1.362 . S
C1930 C1933 1.409 . S
C1931 H1923 0.930 . S
C1931 C1932 1.355 . S
C1931 C1933 1.415 . S
C1932 C1931 1.355 . S
C1932 C1934 1.419 . S
C1933 C1928 1.425 . S
C1933 C1930 1.409 . S
C1933 C1931 1.415 . S
C1934 H1924 0.930 . S
C1934 C1932 1.419 . S
C1934 C1935 1.362 . S
C1935 H1925 0.930 . S
C1935 C1928 1.409 . S
C1935 C1934 1.362 . S
H1936 C1942 0.930 . S
H1937 C1945 0.930 . S
H1938 C1946 0.930 . S
H1939 C1947 0.930 . S
H1940 C1950 0.930 . S
H1941 C1951 0.930 . S
C1942 H1936 0.930 . S
C1942 C1943 1.355 . S
C1942 C1944 1.415 . S
C1943 C1942 1.355 . S
C1943 C1945 1.419 . S
C1944 C1942 1.415 . S
C1944 C1949 1.425 . S
C1944 C1951 1.409 . S
C1945 H1937 0.930 . S
C1945 C1943 1.419 . S
C1945 C1946 1.362 . S
C1946 H1938 0.930 . S
C1946 C1945 1.362 . S
C1946 C1949 1.409 . S
C1947 H1939 0.930 . S
C1947 C1948 1.355 . S
C1947 C1949 1.415 . S
C1948 C1947 1.355 . S
C1948 C1950 1.419 . S
C1949 C1944 1.425 . S
C1949 C1946 1.409 . S
C1949 C1947 1.415 . S
C1950 H1940 0.930 . S
C1950 C1948 1.419 . S
C1950 C1951 1.362 . S
C1951 H1941 0.930 . S
C1951 C1944 1.409 . S
C1951 C1950 1.362 . S
H1952 C1958 0.930 . S
H1953 C1961 0.930 . S
H1954 C1962 0.930 . S
H1955 C1963 0.930 . S
H1956 C1966 0.930 . S
H1957 C1967 0.930 . S
C1958 H1952 0.930 . S
C1958 C1959 1.355 . S
C1958 C1960 1.415 1_565 S
C1959 C1958 1.355 . S
C1959 C1961 1.419 . S
C1960 C1958 1.415 1_545 S
C1960 C1965 1.425 . S
C1960 C1967 1.409 . S
C1961 H1953 0.930 . S
C1961 C1959 1.419 . S
C1961 C1962 1.362 1_565 S
C1962 H1954 0.930 . S
C1962 C1961 1.362 1_545 S
C1962 C1965 1.409 . S
C1963 H1955 0.930 . S
C1963 C1964 1.355 . S
C1963 C1965 1.415 . S
C1964 C1963 1.355 . S
C1964 C1966 1.419 . S
C1965 C1960 1.425 . S
C1965 C1962 1.409 . S
C1965 C1963 1.415 . S
C1966 H1956 0.930 . S
C1966 C1964 1.419 . S
C1966 C1967 1.362 . S
C1967 H1957 0.930 . S
C1967 C1960 1.409 . S
C1967 C1966 1.362 . S
H1968 C1974 0.930 . S
H1969 C1977 0.930 . S
H1970 C1978 0.930 . S
H1971 C1979 0.930 . S
H1972 C1982 0.930 . S
H1973 C1983 0.930 . S
C1974 H1968 0.930 . S
C1974 C1975 1.355 . S
C1974 C1976 1.415 . S
C1975 C1974 1.355 . S
C1975 C1977 1.419 . S
C1976 C1974 1.415 . S
C1976 C1981 1.425 . S
C1976 C1983 1.409 . S
C1977 H1969 0.930 . S
C1977 C1975 1.419 . S
C1977 C1978 1.362 . S
C1978 H1970 0.930 . S
C1978 C1977 1.362 . S
C1978 C1981 1.409 . S
C1979 H1971 0.930 . S
C1979 C1980 1.355 . S
C1979 C1981 1.415 . S
C1980 C1979 1.355 . S
C1980 C1982 1.419 . S
C1981 C1976 1.425 . S
C1981 C1978 1.409 . S
C1981 C1979 1.415 . S
C1982 H1972 0.930 . S
C1982 C1980 1.419 . S
C1982 C1983 1.362 . S
C1983 H1973 0.930 . S
C1983 C1976 1.409 . S
C1983 C1982 1.362 . S
H1984 C1990 0.930 . S
H1985 C1993 0.930 . S
H1986 C1994 0.930 . S
H1987 C1995 0.930 . S
H1988 C1998 0.930 . S
H1989 C1999 0.930 . S
C1990 H1984 0.930 . S
C1990 C1991 1.355 . S
C1990 C1992 1.415 . S
C1991 C1990 1.355 . S
C1991 C1993 1.419 . S
C1992 C1990 1.415 . S
C1992 C1997 1.425 . S
C1992 C1999 1.409 . S
C1993 H1985 0.930 . S
C1993 C1991 1.419 . S
C1993 C1994 1.362 . S
C1994 H1986 0.930 . S
C1994 C1993 1.362 . S
C1994 C1997 1.409 . S
C1995 H1987 0.930 . S
C1995 C1996 1.355 . S
C1995 C1997 1.415 . S
C1996 C1995 1.355 . S
C1996 C1998 1.419 . S
C1997 C1992 1.425 . S
C1997 C1994 1.409 . S
C1997 C1995 1.415 . S
C1998 H1988 0.930 . S
C1998 C1996 1.419 . S
C1998 C1999 1.362 . S
C1999 H1989 0.930 . S
C1999 C1992 1.409 . S
C1999 C1998 1.362 . S
H2000 C2006 0.930 . S
H2001 C2009 0.930 . S
H2002 C2010 0.930 . S
H2003 C2011 0.930 . S
H2004 C2014 0.930 . S
H2005 C2015 0.930 . S
C2006 H2000 0.930 . S
C2006 C2007 1.355 . S
C2006 C2008 1.415 . S
C2007 C2006 1.355 . S
C2007 C2009 1.419 . S
C2008 C2006 1.415 . S
C2008 C2013 1.425 . S
C2008 C2015 1.409 . S
C2009 H2001 0.930 . S
C2009 C2007 1.419 . S
C2009 C2010 1.362 . S
C2010 H2002 0.930 . S
C2010 C2009 1.362 . S
C2010 C2013 1.409 . S
C2011 H2003 0.930 . S
C2011 C2012 1.355 . S
C2011 C2013 1.415 . S
C2012 C2011 1.355 . S
C2012 C2014 1.419 . S
C2013 C2008 1.425 . S
C2013 C2010 1.409 . S
C2013 C2011 1.415 . S
C2014 H2004 0.930 . S
C2014 C2012 1.419 . S
C2014 C2015 1.362 . S
C2015 H2005 0.930 . S
C2015 C2008 1.409 . S
C2015 C2014 1.362 . S
H2016 C2022 0.930 . S
H2017 C2025 0.930 . S
H2018 C2026 0.930 . S
H2019 C2027 0.930 . S
H2020 C2030 0.930 1_545 S
H2021 C2031 0.933 . S
C2022 H2016 0.930 . S
C2022 C2023 1.355 . S
C2022 C2024 1.415 . S
C2023 C2022 1.355 . S
C2023 C2025 1.419 . S
C2024 C2022 1.415 . S
C2024 C2029 1.425 . S
C2024 C2031 1.409 . S
C2025 H2017 0.930 . S
C2025 C2023 1.419 . S
C2025 C2026 1.362 . S
C2026 H2018 0.930 . S
C2026 C2025 1.362 . S
C2026 C2029 1.409 . S
C2027 H2019 0.930 . S
C2027 C2028 1.355 . S
C2027 C2029 1.415 . S
C2028 C2027 1.355 . S
C2028 C2030 1.419 . S
C2029 C2024 1.425 . S
C2029 C2026 1.409 . S
C2029 C2027 1.415 . S
C2030 H2020 0.930 1_565 S
C2030 C2028 1.419 . S
C2030 C2031 1.362 . S
C2031 H2021 0.933 . S
C2031 C2024 1.409 . S
C2031 C2030 1.362 . S
H2032 C2038 0.930 . S
H2033 C2041 0.930 . S
H2034 C2042 0.930 . S
H2035 C2043 0.916 1_655 S
H2036 C2046 0.930 . S
H2037 C2047 0.930 . S
C2038 H2032 0.930 . S
C2038 C2039 1.355 . S
C2038 C2040 1.415 . S
C2039 C2038 1.355 . S
C2039 C2041 1.419 1_455 S
C2040 C2038 1.415 . S
C2040 C2045 1.464 . S
C2040 C2047 1.409 . S
C2041 H2033 0.930 . S
C2041 C2039 1.419 1_655 S
C2041 C2042 1.362 . S
C2042 H2034 0.930 . S
C2042 C2041 1.362 . S
C2042 C2045 1.372 1_655 S
C2043 H2035 0.916 1_455 S
C2043 C2044 1.368 . S
C2043 C2045 1.416 . S
C2044 C2043 1.368 . S
C2044 C2046 1.419 . S
C2045 C2040 1.464 . S
C2045 C2042 1.372 1_455 S
C2045 C2043 1.416 . S
C2046 H2036 0.930 . S
C2046 C2044 1.419 . S
C2046 C2047 1.362 . S
C2047 H2037 0.930 . S
C2047 C2040 1.409 . S
C2047 C2046 1.362 . S
H2048 C2054 0.930 . S
H2049 C2057 0.930 . S
H2050 C2058 0.930 . S
H2051 C2059 0.930 . S
H2052 C2062 0.930 . S
H2053 C2063 0.930 . S
C2054 H2048 0.930 . S
C2054 C2055 1.355 . S
C2054 C2056 1.415 . S
C2055 C2054 1.355 . S
C2055 C2057 1.419 . S
C2056 C2054 1.415 . S
C2056 C2061 1.425 . S
C2056 C2063 1.409 . S
C2057 H2049 0.930 . S
C2057 C2055 1.419 . S
C2057 C2058 1.362 . S
C2058 H2050 0.930 . S
C2058 C2057 1.362 . S
C2058 C2061 1.409 . S
C2059 H2051 0.930 . S
C2059 C2060 1.355 . S
C2059 C2061 1.415 . S
C2060 C2059 1.355 . S
C2060 C2062 1.419 . S
C2061 C2056 1.425 . S
C2061 C2058 1.409 . S
C2061 C2059 1.415 . S
C2062 H2052 0.930 . S
C2062 C2060 1.419 . S
C2062 C2063 1.362 . S
C2063 H2053 0.930 . S
C2063 C2056 1.409 . S
C2063 C2062 1.362 . S
H2064 C2070 0.930 . S
H2065 C2073 0.930 . S
H2066 C2074 0.930 . S
H2067 C2075 0.930 . S
H2068 C2078 0.930 1_455 S
H2069 C2079 0.930 . S
C2070 H2064 0.930 . S
C2070 C2071 1.355 1_455 S
C2070 C2072 1.415 1_455 S
C2071 C2070 1.355 1_655 S
C2071 C2073 1.419 . S
C2072 C2070 1.415 1_655 S
C2072 C2077 1.425 . S
C2072 C2079 1.409 1_655 S
C2073 H2065 0.930 . S
C2073 C2071 1.419 . S
C2073 C2074 1.362 . S
C2074 H2066 0.930 . S
C2074 C2073 1.362 . S
C2074 C2077 1.409 . S
C2075 H2067 0.930 . S
C2075 C2076 1.355 . S
C2075 C2077 1.415 . S
C2076 C2075 1.355 . S
C2076 C2078 1.419 . S
C2077 C2072 1.425 . S
C2077 C2074 1.409 . S
C2077 C2075 1.415 . S
C2078 H2068 0.930 1_655 S
C2078 C2076 1.419 . S
C2078 C2079 1.362 1_655 S
C2079 H2069 0.930 . S
C2079 C2072 1.409 1_455 S
C2079 C2078 1.362 1_455 S
H2080 C2086 0.930 . S
H2081 C2089 0.930 . S
H2082 C2090 0.930 . S
H2083 C2091 0.930 . S
H2084 C2094 0.930 . S
H2085 C2095 0.930 . S
C2086 H2080 0.930 . S
C2086 C2087 1.355 . S
C2086 C2088 1.415 . S
C2087 C2086 1.355 . S
C2087 C2089 1.419 . S
C2088 C2086 1.415 . S
C2088 C2093 1.425 . S
C2088 C2095 1.409 . S
C2089 H2081 0.930 . S
C2089 C2087 1.419 . S
C2089 C2090 1.362 . S
C2090 H2082 0.930 . S
C2090 C2089 1.362 . S
C2090 C2093 1.409 . S
C2091 H2083 0.930 . S
C2091 C2092 1.355 . S
C2091 C2093 1.415 . S
C2092 C2091 1.355 . S
C2092 C2094 1.419 . S
C2093 C2088 1.425 . S
C2093 C2090 1.409 . S
C2093 C2091 1.415 . S
C2094 H2084 0.930 . S
C2094 C2092 1.419 . S
C2094 C2095 1.362 . S
C2095 H2085 0.930 . S
C2095 C2088 1.409 . S
C2095 C2094 1.362 . S
H2096 C2102 0.930 . S
H2097 C2105 0.930 1_565 S
H2098 C2106 0.930 . S
H2099 C2107 0.930 . S
H2100 C2110 0.930 . S
H2101 C2111 0.930 . S
C2102 H2096 0.930 . S
C2102 C2103 1.355 . S
C2102 C2104 1.415 . S
C2103 C2102 1.355 . S
C2103 C2105 1.419 . S
C2104 C2102 1.415 . S
C2104 C2109 1.425 . S
C2104 C2111 1.409 . S
C2105 H2097 0.930 1_545 S
C2105 C2103 1.419 . S
C2105 C2106 1.362 1_545 S
C2106 H2098 0.930 . S
C2106 C2105 1.362 1_565 S
C2106 C2109 1.409 1_565 S
C2107 H2099 0.930 . S
C2107 C2108 1.355 1_565 S
C2107 C2109 1.415 1_565 S
C2108 C2107 1.355 1_545 S
C2108 C2110 1.419 . S
C2109 C2104 1.425 . S
C2109 C2106 1.409 1_545 S
C2109 C2107 1.415 1_545 S
C2110 H2100 0.930 . S
C2110 C2108 1.419 . S
C2110 C2111 1.362 . S
C2111 H2101 0.930 . S
C2111 C2104 1.409 . S
C2111 C2110 1.362 . S
H2112 C2118 0.930 . S
H2113 C2121 0.930 . S
H2114 C2122 0.930 . S
H2115 C2123 0.930 . S
H2116 C2126 0.930 . S
H2117 C2127 0.930 . S
C2118 H2112 0.930 . S
C2118 C2119 1.355 . S
C2118 C2120 1.415 . S
C2119 C2118 1.355 . S
C2119 C2121 1.419 . S
C2120 C2118 1.415 . S
C2120 C2125 1.425 . S
C2120 C2127 1.409 . S
C2121 H2113 0.930 . S
C2121 C2119 1.419 . S
C2121 C2122 1.362 . S
C2122 H2114 0.930 . S
C2122 C2121 1.362 . S
C2122 C2125 1.409 . S
C2123 H2115 0.930 . S
C2123 C2124 1.355 . S
C2123 C2125 1.415 . S
C2124 C2123 1.355 . S
C2124 C2126 1.419 . S
C2125 C2120 1.425 . S
C2125 C2122 1.409 . S
C2125 C2123 1.415 . S
C2126 H2116 0.930 . S
C2126 C2124 1.419 . S
C2126 C2127 1.362 . S
C2127 H2117 0.930 . S
C2127 C2120 1.409 . S
C2127 C2126 1.362 . S
H2128 C2134 0.930 . S
H2129 C2137 0.930 . S
H2130 C2138 0.930 . S
H2131 C2139 0.930 . S
H2132 C2142 0.930 . S
H2133 C2143 0.930 . S
C2134 H2128 0.930 . S
C2134 C2135 1.355 . S
C2134 C2136 1.415 . S
C2135 C2134 1.355 . S
C2135 C2137 1.419 . S
C2136 C2134 1.415 . S
C2136 C2141 1.425 . S
C2136 C2143 1.409 . S
C2137 H2129 0.930 . S
C2137 C2135 1.419 . S
C2137 C2138 1.362 . S
C2138 H2130 0.930 . S
C2138 C2137 1.362 . S
C2138 C2141 1.409 . S
C2139 H2131 0.930 . S
C2139 C2140 1.355 . S
C2139 C2141 1.415 . S
C2140 C2139 1.355 . S
C2140 C2142 1.419 . S
C2141 C2136 1.425 . S
C2141 C2138 1.409 . S
C2141 C2139 1.415 . S
C2142 H2132 0.930 . S
C2142 C2140 1.419 . S
C2142 C2143 1.362 . S
C2143 H2133 0.930 . S
C2143 C2136 1.409 . S
C2143 C2142 1.362 . S
H2144 C2150 0.930 . S
H2145 C2153 0.930 . S
H2146 C2154 0.930 . S
H2147 C2155 0.930 . S
H2148 C2158 0.930 . S
H2149 C2159 0.930 . S
C2150 H2144 0.930 . S
C2150 C2151 1.355 . S
C2150 C2152 1.415 . S
C2151 C2150 1.355 . S
C2151 C2153 1.419 . S
C2152 C2150 1.415 . S
C2152 C2157 1.425 . S
C2152 C2159 1.409 . S
C2153 H2145 0.930 . S
C2153 C2151 1.419 . S
C2153 C2154 1.362 . S
C2154 H2146 0.930 . S
C2154 C2153 1.362 . S
C2154 C2157 1.409 . S
C2155 H2147 0.930 . S
C2155 C2156 1.355 . S
C2155 C2157 1.415 . S
C2156 C2155 1.355 . S
C2156 C2158 1.419 . S
C2157 C2152 1.425 . S
C2157 C2154 1.409 . S
C2157 C2155 1.415 . S
C2158 H2148 0.930 . S
C2158 C2156 1.419 . S
C2158 C2159 1.362 . S
C2159 H2149 0.930 . S
C2159 C2152 1.409 . S
C2159 C2158 1.362 . S
H2160 C2166 0.930 . S
H2161 C2169 0.930 . S
H2162 C2170 0.930 . S
H2163 C2171 0.930 . S
H2164 C2174 0.930 . S
H2165 C2175 0.930 . S
C2166 H2160 0.930 . S
C2166 C2167 1.355 . S
C2166 C2168 1.415 . S
C2167 C2166 1.355 . S
C2167 C2169 1.419 . S
C2168 C2166 1.415 . S
C2168 C2173 1.425 . S
C2168 C2175 1.409 . S
C2169 H2161 0.930 . S
C2169 C2167 1.419 . S
C2169 C2170 1.362 . S
C2170 H2162 0.930 . S
C2170 C2169 1.362 . S
C2170 C2173 1.409 . S
C2171 H2163 0.930 . S
C2171 C2172 1.355 . S
C2171 C2173 1.415 . S
C2172 C2171 1.355 . S
C2172 C2174 1.419 . S
C2173 C2168 1.425 . S
C2173 C2170 1.409 . S
C2173 C2171 1.415 . S
C2174 H2164 0.930 . S
C2174 C2172 1.419 . S
C2174 C2175 1.362 . S
C2175 H2165 0.930 . S
C2175 C2168 1.409 . S
C2175 C2174 1.362 . S
H2176 C2182 0.930 . S
H2177 C2185 0.930 . S
H2178 C2186 0.930 . S
H2179 C2187 0.930 . S
H2180 C2190 0.930 . S
H2181 C2191 0.930 . S
C2182 H2176 0.930 . S
C2182 C2183 1.355 . S
C2182 C2184 1.415 . S
C2183 C2182 1.355 . S
C2183 C2185 1.419 . S
C2184 C2182 1.415 . S
C2184 C2189 1.425 . S
C2184 C2191 1.409 . S
C2185 H2177 0.930 . S
C2185 C2183 1.419 . S
C2185 C2186 1.362 . S
C2186 H2178 0.930 . S
C2186 C2185 1.362 . S
C2186 C2189 1.409 . S
C2187 H2179 0.930 . S
C2187 C2188 1.355 . S
C2187 C2189 1.415 . S
C2188 C2187 1.355 . S
C2188 C2190 1.419 . S
C2189 C2184 1.425 . S
C2189 C2186 1.409 . S
C2189 C2187 1.415 . S
C2190 H2180 0.930 . S
C2190 C2188 1.419 . S
C2190 C2191 1.362 . S
C2191 H2181 0.930 . S
C2191 C2184 1.409 . S
C2191 C2190 1.362 . S
H2192 C2198 0.930 . S
H2193 C2201 0.930 . S
H2194 C2202 0.930 . S
H2195 C2203 0.930 . S
H2196 C2206 0.930 . S
H2197 C2207 0.930 . S
C2198 H2192 0.930 . S
C2198 C2199 1.355 . S
C2198 C2200 1.415 . S
C2199 C2198 1.355 . S
C2199 C2201 1.419 . S
C2200 C2198 1.415 . S
C2200 C2205 1.425 . S
C2200 C2207 1.409 . S
C2201 H2193 0.930 . S
C2201 C2199 1.419 . S
C2201 C2202 1.362 . S
C2202 H2194 0.930 . S
C2202 C2201 1.362 . S
C2202 C2205 1.409 . S
C2203 H2195 0.930 . S
C2203 C2204 1.355 . S
C2203 C2205 1.415 . S
C2204 C2203 1.355 . S
C2204 C2206 1.419 . S
C2205 C2200 1.425 . S
C2205 C2202 1.409 . S
C2205 C2203 1.415 . S
C2206 H2196 0.930 . S
C2206 C2204 1.419 . S
C2206 C2207 1.362 . S
C2207 H2197 0.930 . S
C2207 C2200 1.409 . S
C2207 C2206 1.362 . S
H2208 C2214 0.930 . S
H2209 C2217 0.930 . S
H2210 C2218 0.930 . S
H2211 C2219 0.930 . S
H2212 C2222 0.930 . S
H2213 C2223 0.930 . S
C2214 H2208 0.930 . S
C2214 C2215 1.355 . S
C2214 C2216 1.415 . S
C2215 C2214 1.355 . S
C2215 C2217 1.419 . S
C2216 C2214 1.415 . S
C2216 C2221 1.425 . S
C2216 C2223 1.409 . S
C2217 H2209 0.930 . S
C2217 C2215 1.419 . S
C2217 C2218 1.362 . S
C2218 H2210 0.930 . S
C2218 C2217 1.362 . S
C2218 C2221 1.409 . S
C2219 H2211 0.930 . S
C2219 C2220 1.355 . S
C2219 C2221 1.415 . S
C2220 C2219 1.355 . S
C2220 C2222 1.419 . S
C2221 C2216 1.425 . S
C2221 C2218 1.409 . S
C2221 C2219 1.415 . S
C2222 H2212 0.930 . S
C2222 C2220 1.419 . S
C2222 C2223 1.362 . S
C2223 H2213 0.930 . S
C2223 C2216 1.409 . S
C2223 C2222 1.362 . S
H2224 C2230 0.930 . S
H2225 C2233 0.930 . S
H2226 C2234 0.930 . S
H2227 C2235 0.930 . S
H2228 C2238 0.930 . S
H2229 C2239 0.930 . S
C2230 H2224 0.930 . S
C2230 C2231 1.355 . S
C2230 C2232 1.415 . S
C2231 C2230 1.355 . S
C2231 C2233 1.419 . S
C2232 C2230 1.415 . S
C2232 C2237 1.425 . S
C2232 C2239 1.409 . S
C2233 H2225 0.930 . S
C2233 C2231 1.419 . S
C2233 C2234 1.362 . S
C2234 H2226 0.930 . S
C2234 C2233 1.362 . S
C2234 C2237 1.409 . S
C2235 H2227 0.930 . S
C2235 C2236 1.355 . S
C2235 C2237 1.415 . S
C2236 C2235 1.355 . S
C2236 C2238 1.419 . S
C2237 C2232 1.425 . S
C2237 C2234 1.409 . S
C2237 C2235 1.415 . S
C2238 H2228 0.930 . S
C2238 C2236 1.419 . S
C2238 C2239 1.362 . S
C2239 H2229 0.930 . S
C2239 C2232 1.409 . S
C2239 C2238 1.362 . S
H2240 C2246 0.930 . S
H2241 C2249 0.930 . S
H2242 C2250 0.930 . S
H2243 C2251 0.930 . S
H2244 C2254 0.930 . S
H2245 C2255 0.930 . S
C2246 H2240 0.930 . S
C2246 C2247 1.355 . S
C2246 C2248 1.415 . S
C2247 C2246 1.355 . S
C2247 C2249 1.419 . S
C2248 C2246 1.415 . S
C2248 C2253 1.425 . S
C2248 C2255 1.409 . S
C2249 H2241 0.930 . S
C2249 C2247 1.419 . S
C2249 C2250 1.362 . S
C2250 H2242 0.930 . S
C2250 C2249 1.362 . S
C2250 C2253 1.409 . S
C2251 H2243 0.930 . S
C2251 C2252 1.355 . S
C2251 C2253 1.415 . S
C2252 C2251 1.355 . S
C2252 C2254 1.419 . S
C2253 C2248 1.425 . S
C2253 C2250 1.409 . S
C2253 C2251 1.415 . S
C2254 H2244 0.930 . S
C2254 C2252 1.419 . S
C2254 C2255 1.362 . S
C2255 H2245 0.930 . S
C2255 C2248 1.409 . S
C2255 C2254 1.362 . S
H2256 C2262 0.930 . S
H2257 C2265 0.930 . S
H2258 C2266 0.930 . S
H2259 C2267 0.930 . S
H2260 C2270 0.930 . S
H2261 C2271 0.930 . S
C2262 H2256 0.930 . S
C2262 C2263 1.355 . S
C2262 C2264 1.415 . S
C2263 C2262 1.355 . S
C2263 C2265 1.419 . S
C2264 C2262 1.415 . S
C2264 C2269 1.425 . S
C2264 C2271 1.409 . S
C2265 H2257 0.930 . S
C2265 C2263 1.419 . S
C2265 C2266 1.362 . S
C2266 H2258 0.930 . S
C2266 C2265 1.362 . S
C2266 C2269 1.409 . S
C2267 H2259 0.930 . S
C2267 C2268 1.355 . S
C2267 C2269 1.415 . S
C2268 C2267 1.355 . S
C2268 C2270 1.419 . S
C2269 C2264 1.425 . S
C2269 C2266 1.409 . S
C2269 C2267 1.415 . S
C2270 H2260 0.930 . S
C2270 C2268 1.419 . S
C2270 C2271 1.362 . S
C2271 H2261 0.930 . S
C2271 C2264 1.409 . S
C2271 C2270 1.362 . S
H2272 C2278 0.930 . S
H2273 C2281 0.930 . S
H2274 C2282 0.930 . S
H2275 C2283 0.930 . S
H2276 C2286 0.930 . S
H2277 C2287 0.930 . S
C2278 H2272 0.930 . S
C2278 C2279 1.355 . S
C2278 C2280 1.415 . S
C2279 C2278 1.355 . S
C2279 C2281 1.419 . S
C2280 C2278 1.415 . S
C2280 C2285 1.425 . S
C2280 C2287 1.409 . S
C2281 H2273 0.930 . S
C2281 C2279 1.419 . S
C2281 C2282 1.362 . S
C2282 H2274 0.930 . S
C2282 C2281 1.362 . S
C2282 C2285 1.409 . S
C2283 H2275 0.930 . S
C2283 C2284 1.355 . S
C2283 C2285 1.415 . S
C2284 C2283 1.355 . S
C2284 C2286 1.419 . S
C2285 C2280 1.425 . S
C2285 C2282 1.409 . S
C2285 C2283 1.415 . S
C2286 H2276 0.930 . S
C2286 C2284 1.419 . S
C2286 C2287 1.362 . S
C2287 H2277 0.930 . S
C2287 C2280 1.409 . S
C2287 C2286 1.362 . S
H2288 C2294 0.930 . S
H2289 C2297 0.930 . S
H2290 C2298 0.930 . S
H2291 C2299 0.930 . S
H2292 C2302 0.930 . S
H2293 C2303 0.930 . S
C2294 H2288 0.930 . S
C2294 C2295 1.355 . S
C2294 C2296 1.415 . S
C2295 C2294 1.355 . S
C2295 C2297 1.419 . S
C2296 C2294 1.415 . S
C2296 C2301 1.425 . S
C2296 C2303 1.409 . S
C2297 H2289 0.930 . S
C2297 C2295 1.419 . S
C2297 C2298 1.362 . S
C2298 H2290 0.930 . S
C2298 C2297 1.362 . S
C2298 C2301 1.409 . S
C2299 H2291 0.930 . S
C2299 C2300 1.355 . S
C2299 C2301 1.415 . S
C2300 C2299 1.355 . S
C2300 C2302 1.419 . S
C2301 C2296 1.425 . S
C2301 C2298 1.409 . S
C2301 C2299 1.415 . S
C2302 H2292 0.930 . S
C2302 C2300 1.419 . S
C2302 C2303 1.362 . S
C2303 H2293 0.930 . S
C2303 C2296 1.409 . S
C2303 C2302 1.362 . S
C1447 C781 1.683 . S
C1452 C1083 1.690 . S
C1463 C871 1.713 . S
C1468 C1123 1.768 . S
C1479 C751 1.673 . S
C1484 C1175 1.764 . S
C1495 C691 1.574 . S
C1500 C1135 1.615 . S
C1516 C1163 1.507 . S
C1511 C571 1.463 . S
C1527 C601 1.503 . S
C1532 C1095 1.517 . S
C1548 C1102 1.730 . S
C1543 C661 1.663 . S
C1564 C1142 1.771 . S
C1559 C541 1.689 . S
C1575 C631 1.787 . S
C1580 C1162 1.748 . S
C1591 C811 1.633 . S
C1596 C1122 1.594 . S
C1607 C841 1.416 . S
C1612 C1182 1.480 . S
C1628 C1082 1.519 . S
C1623 C721 1.437 . S
C1644 C1203 1.729 . S
C1639 C61 1.714 . S
C1655 C151 1.726 . S
C1660 C1243 1.769 . S
C1671 C31 1.750 . S
C1676 C1295 1.775 . S
C1687 C1051 1.587 . S
C1692 C1255 1.597 . S
C1703 C931 1.408 . S
C1708 C1283 1.482 . S
C1719 C961 1.434 . S
C1724 C1215 1.466 . S
C1735 C1021 1.668 . S
C1740 C1222 1.729 . S
C1751 C901 1.696 . S
C1756 C1262 1.776 . S
C1772 C1282 1.776 . S
C1767 C991 1.782 . S
C1783 C91 1.612 . S
C1788 C1242 1.563 . S
C1804 C1302 1.490 . S
C1799 C121 1.466 1_455 S
C1815 C1 1.441 . S
C1820 C1202 1.517 . S
C1836 C1323 1.730 . S
C1831 C421 1.717 . S
C1847 C511 1.754 . S
C1852 C1363 1.777 . S
C1868 C1415 1.750 . S
C1863 C391 1.720 . S
C1884 C1375 1.563 . S
C1879 C331 1.538 . S
C1900 C1403 1.482 . S
C1895 C211 1.378 1_655 S
C1911 C241 1.486 . S
C1916 C1335 1.504 . S
C1927 C301 1.606 . S
C1932 C1342 1.708 . S
C1943 C181 1.700 . S
C1948 C1382 1.778 . S
C1964 C1402 1.802 . S
C1959 C271 1.805 . S
C1975 C451 1.629 . S
C1980 C1362 1.610 . S
C1991 C481 1.418 . S
C1996 C1422 1.478 . S
C2007 C361 1.338 . S
C2012 C1322 1.467 . S
C2023 C920 1.336 . S
C2028 C1106 1.360 . S
C2044 C1146 1.850 . S
C2039 C980 1.836 . S
C2055 C1040 1.484 . S
C2060 C1169 1.577 . S
C2071 C380 1.768 . S
C2076 C1129 1.845 . S
C2087 C440 1.565 . S
C2092 C1186 1.580 . S
C2108 C1089 1.347 . S
C2103 C500 1.347 . S
C2119 C200 1.317 . S
C2124 C1226 1.327 . S
C2135 C260 1.865 . S
C2140 C1266 1.841 . S
C2151 C320 1.476 . S
C2156 C1289 1.566 . S
C2167 C740 1.814 . S
C2172 C1249 1.852 . S
C2188 C1306 1.558 . S
C2183 C800 1.558 . S
C2199 C860 1.329 . S
C2204 C1209 1.335 . S
C2215 C560 1.314 . S
C2220 C1346 1.347 . S
C2231 C620 1.864 . S
C2236 C1386 1.843 . S
C2252 C1409 1.585 . S
C2247 C680 1.535 . S
C2263 C20 1.751 . S
C2268 C1369 1.822 . S
C2279 C80 1.575 . S
C2284 C1426 1.570 . S
C2295 C140 1.358 . S
C2300 C1329 1.324 . S
