# Generated by pormake.
# Topology anh, (6,3)-cn, num edge types: 1
# Building blocks:
#     Node 0, Type 0, BuildingBlock: CUKXOW_clean_sbu_0, # of connection points: 6
#     Node 1, Type 0, BuildingBlock: CUKXOW_clean_sbu_0, # of connection points: 6
#     Node 2, Type 0, BuildingBlock: CUKXOW_clean_sbu_0, # of connection points: 6
#     Node 3, Type 1, BuildingBlock: BETDIP_clean_linker_0, # of connection points: 3
#     Node 4, Type 1, BuildingBlock: BETDIP_clean_linker_0, # of connection points: 3
#     Node 5, Type 1, BuildingBlock: BETDIP_clean_linker_0, # of connection points: 3
#     Node 6, Type 1, BuildingBlock: BETDIP_clean_linker_0, # of connection points: 3
#     Node 7, Type 1, BuildingBlock: BETDIP_clean_linker_0, # of connection points: 3
#     Node 8, Type 1, BuildingBlock: BETDIP_clean_linker_0, # of connection points: 3
#     Edge 9, Type (0, 1), BuildingBlock: XUDNAN_clean_linker_2, # of connection points: 2
#     Edge 10, Type (0, 1), BuildingBlock: XUDNAN_clean_linker_2, # of connection points: 2
#     Edge 11, Type (0, 1), BuildingBlock: XUDNAN_clean_linker_2, # of connection points: 2
#     Edge 12, Type (0, 1), BuildingBlock: XUDNAN_clean_linker_2, # of connection points: 2
#     Edge 13, Type (0, 1), BuildingBlock: XUDNAN_clean_linker_2, # of connection points: 2
#     Edge 14, Type (0, 1), BuildingBlock: XUDNAN_clean_linker_2, # of connection points: 2
#     Edge 15, Type (0, 1), BuildingBlock: XUDNAN_clean_linker_2, # of connection points: 2
#     Edge 16, Type (0, 1), BuildingBlock: XUDNAN_clean_linker_2, # of connection points: 2
#     Edge 17, Type (0, 1), BuildingBlock: XUDNAN_clean_linker_2, # of connection points: 2
#     Edge 18, Type (0, 1), BuildingBlock: XUDNAN_clean_linker_2, # of connection points: 2
#     Edge 19, Type (0, 1), BuildingBlock: XUDNAN_clean_linker_2, # of connection points: 2
#     Edge 20, Type (0, 1), BuildingBlock: XUDNAN_clean_linker_2, # of connection points: 2
#     Edge 21, Type (0, 1), BuildingBlock: XUDNAN_clean_linker_2, # of connection points: 2
#     Edge 22, Type (0, 1), BuildingBlock: XUDNAN_clean_linker_2, # of connection points: 2
#     Edge 23, Type (0, 1), BuildingBlock: XUDNAN_clean_linker_2, # of connection points: 2
#     Edge 24, Type (0, 1), BuildingBlock: XUDNAN_clean_linker_2, # of connection points: 2
#     Edge 25, Type (0, 1), BuildingBlock: XUDNAN_clean_linker_2, # of connection points: 2
#     Edge 26, Type (0, 1), BuildingBlock: XUDNAN_clean_linker_2, # of connection points: 2
# Relax obj value: 0.081
# Max RMSD: 0.172
# Mean RMSD: 0.106
data_MOF--net-anh--node1-CUKXOW_clean_sbu_0--node2-BETDIP_clean_linker_0--edge1-XUDNAN_clean_linker_2
_symmetry_space_group_name_H-M    P1
_symmetry_Int_Tables_number       1
_symmetry_cell_setting            triclinic
loop_
_symmetry_equiv_pos_as_xyz
'x, y, z'
_cell_length_a     28.944386
_cell_length_b     28.201012
_cell_length_c     48.601234
_cell_angle_alpha  99.123496
_cell_angle_beta   90.41568
_cell_angle_gamma 112.77565
loop_
_atom_site_label
_atom_site_type_symbol
_atom_site_fract_x
_atom_site_fract_y
_atom_site_fract_z
_atom_type_partial_charge
Tb0 Tb 0.11182 0.57876 0.15756 0.0
C1 C 0.07626 0.51693 0.20682 0.0
Tb2 Tb 0.0412 0.45677 0.14388 0.0
O3 O 0.05078 0.60691 0.16698 0.0
O4 O 0.03518 0.52944 0.15408 0.0
O5 O 0.11093 0.55801 0.19859 0.0
C6 C 0.96257 0.36589 0.13828 0.0
O7 O 0.04191 0.47751 0.18937 0.0
C8 C 0.13939 0.47484 0.14238 0.0
C9 C 0.07164 0.52141 0.095 0.0
O10 O 1.00245 0.38004 0.15503 0.0
O11 O 0.96686 0.40296 0.12436 0.0
O12 O 0.10301 0.42876 0.13812 0.0
O13 O 0.11786 0.50633 0.14618 0.0
O14 O 0.0395 0.47829 0.10293 0.0
O15 O 0.10692 0.56019 0.11219 0.0
C16 C 0.19393 0.66612 0.16328 0.0
O17 O 0.15354 0.65623 0.14769 0.0
O18 O 0.18785 0.62711 0.17598 0.0
C19 C 1.01423 0.56094 0.16078 0.0
Tb20 Tb 0.57678 0.02155 0.50311 0.0
C21 C 0.62761 0.05474 0.44877 0.0
Tb22 Tb 0.6863 0.09859 0.50847 0.0
O23 O 0.54968 0.08273 0.49726 0.0
O24 O 0.61725 0.10166 0.51956 0.0
O25 O 0.59366 0.0159 0.45912 0.0
C26 C 0.76523 0.18723 0.50718 0.0
O27 O 0.66458 0.09322 0.46481 0.0
C28 C 0.67508 1.00064 0.50374 0.0
C29 C 0.63655 0.06479 0.56292 0.0
O30 O 0.72204 0.17228 0.49351 0.0
O31 O 0.76462 0.15174 0.52141 0.0
O32 O 0.71622 0.04005 0.51382 0.0
O33 O 0.64632 0.01747 0.49263 0.0
O34 O 0.67072 0.10289 0.55224 0.0
O35 O 0.59877 0.02621 0.54715 0.0
C36 C 0.49033 0.9387 0.50196 0.0
O37 O 0.5291 0.95164 0.51935 0.0
O38 O 0.50009 0.97253 0.48539 0.0
C39 C 0.59051 0.12074 0.50876 0.0
Tb40 Tb 0.46956 0.5328 0.829 0.0
C41 C 0.54521 0.56987 0.88297 0.0
Tb42 Tb 0.58561 0.57237 0.82235 0.0
O43 O 0.4527 0.4488 0.82683 0.0
O44 O 0.52454 0.5023 0.82439 0.0
O45 O 0.49917 0.56031 0.87262 0.0
C46 C 0.68428 0.59839 0.82256 0.0
O47 O 0.58325 0.5727 0.86722 0.0
C48 C 0.54246 0.63717 0.81651 0.0
C49 C 0.51178 0.52601 0.76871 0.0
O50 O 0.66237 0.63046 0.82909 0.0
O51 O 0.65065 0.5509 0.81627 0.0
O52 O 0.58123 0.63642 0.80362 0.0
O53 O 0.53192 0.60533 0.8333 0.0
O54 O 0.55655 0.53339 0.77996 0.0
O55 O 0.47445 0.52887 0.7838 0.0
C56 C 0.38101 0.5404 0.83259 0.0
O57 O 0.4129 0.55791 0.81437 0.0
O58 O 0.3986 0.51755 0.84863 0.0
C59 C 0.49943 0.45471 0.82483 0.0
H60 H 0.55205 0.96395 0.16319 0.0
H61 H 0.65953 0.05093 0.23271 0.0
H62 H 0.50958 0.95087 0.24717 0.0
H63 H 0.71383 0.0421 0.19893 0.0
C64 C 0.69759 0.05396 0.18238 0.0
C65 C 0.5614 0.9744 0.18557 0.0
C66 C 0.52543 0.95215 0.20402 0.0
C67 C 0.60994 0.0093 0.19571 0.0
C68 C 0.62227 0.02316 0.22473 0.0
C69 C 0.58631 1.00229 0.24357 0.0
C70 C 0.53807 0.9664 0.23294 0.0
N71 N 0.64472 0.03224 0.1764 0.0
H72 H 0.61655 0.51051 0.49736 0.0
H73 H 0.55455 0.58563 0.56237 0.0
H74 H 0.55953 0.43712 0.56792 0.0
H75 H 0.53443 0.61758 0.5224 0.0
C76 C 0.57246 0.6304 0.51572 0.0
C77 C 0.59816 0.51023 0.51671 0.0
C78 C 0.58815 0.46826 0.5311 0.0
C79 C 0.58465 0.55211 0.52739 0.0
C80 C 0.56252 0.55232 0.55315 0.0
C81 C 0.55422 0.51136 0.5681 0.0
C82 C 0.56611 0.46907 0.55658 0.0
N83 N 0.59762 0.59555 0.51324 0.0
H84 H 0.08282 0.73227 0.85978 0.0
H85 H 0.13672 0.71303 0.93763 0.0
H86 H 0.98321 0.6217 0.90667 0.0
H87 H 0.21216 0.79067 0.86329 0.0
C88 C 0.19358 0.75807 0.874 0.0
C89 C 0.07582 0.71254 0.87766 0.0
C90 C 1.02748 0.67608 0.88086 0.0
C91 C 0.11491 0.72575 0.89822 0.0
C92 C 0.10612 0.70182 0.92182 0.0
C93 C 0.05973 0.66127 0.92398 0.0
C94 C 1.0202 0.6497 0.90378 0.0
N95 N 0.16286 0.76457 0.89574 0.0
H96 H 0.14094 0.6271 0.49274 0.0
H97 H 0.04008 0.52991 0.4226 0.0
H98 H 0.18969 0.63295 0.40935 0.0
H99 H 0.98116 0.5348 0.45499 0.0
C100 C 0.99926 0.5253 0.47175 0.0
C101 C 0.1337 0.61418 0.47033 0.0
C102 C 0.17097 0.63558 0.4523 0.0
C103 C 0.08657 0.57648 0.45981 0.0
C104 C 0.07642 0.55948 0.4308 0.0
C105 C 0.11332 0.57966 0.41232 0.0
C106 C 0.1605 0.61801 0.42329 0.0
N107 N 0.05147 0.55348 0.47896 0.0
H108 H 0.51339 0.08664 0.83181 0.0
H109 H 0.54654 0.99635 0.76034 0.0
H110 H 0.59266 0.16186 0.76583 0.0
H111 H 0.45292 0.94308 0.77355 0.0
C112 C 0.473 0.94159 0.79218 0.0
C113 C 0.52992 0.08453 0.81196 0.0
C114 C 0.55348 0.13021 0.80045 0.0
C115 C 0.52718 0.03591 0.79745 0.0
C116 C 0.54804 0.03346 0.77147 0.0
C117 C 0.57243 0.07887 0.76027 0.0
C118 C 0.57507 0.12689 0.77489 0.0
N119 N 0.50466 0.98965 0.80912 0.0
H120 H 0.53087 0.51518 0.15786 0.0
H121 H 0.62264 0.5449 0.08828 0.0
H122 H 0.47663 0.55012 0.08375 0.0
H123 H 0.64634 0.48159 0.10509 0.0
C124 C 0.65701 0.50425 0.12609 0.0
C125 C 0.53605 0.52457 0.13704 0.0
C126 C 0.49712 0.53187 0.12232 0.0
C127 C 0.58167 0.52888 0.12477 0.0
C128 C 0.58805 0.54133 0.09782 0.0
C129 C 0.55067 0.54954 0.08304 0.0
C130 C 0.50563 0.54462 0.09542 0.0
N131 N 0.62162 0.52274 0.13973 0.0
H132 H 0.22619 0.55458 0.12834 0.0
H133 H 0.17567 0.41373 0.16463 0.0
H134 H 0.26227 0.41831 0.16782 0.0
H135 H 0.31168 0.52196 0.08528 0.0
H136 H 0.35936 0.58724 0.08912 0.0
H137 H 0.29461 0.57751 0.09281 0.0
H138 H 0.31866 0.63532 0.14195 0.0
H139 H 0.38359 0.64538 0.1383 0.0
H140 H 0.35258 0.61952 0.16787 0.0
H141 H 0.35354 0.4337 0.1644 0.0
H142 H 0.44121 0.45631 0.15208 0.0
H143 H 0.43555 0.58637 0.11692 0.0
C144 C 0.23374 0.52559 0.1376 0.0
C145 C 0.19384 0.48411 0.14666 0.0
C146 C 0.20533 0.44608 0.15779 0.0
C147 C 0.25463 0.44835 0.15973 0.0
C148 C 0.29293 0.48878 0.1502 0.0
C149 C 0.28325 0.52677 0.13927 0.0
C150 C 0.33108 0.5635 0.12856 0.0
C151 C 0.32372 0.56247 0.09707 0.0
C152 C 0.34744 0.61925 0.14515 0.0
C153 C 0.3684 0.53943 0.1346 0.0
C154 C 0.34568 0.49686 0.14752 0.0
C155 C 0.37183 0.4673 0.15448 0.0
C156 C 0.42205 0.48072 0.14756 0.0
C157 C 0.44617 0.52317 0.13347 0.0
C158 C 0.41869 0.55337 0.12748 0.0
H159 H 0.76492 0.26372 0.47987 0.0
H160 H 0.85838 0.22513 0.53511 0.0
H161 H 0.92744 0.31141 0.53506 0.0
H162 H 0.8599 0.32754 0.43773 0.0
H163 H 0.83616 0.37654 0.43343 0.0
H164 H 0.79378 0.31345 0.43945 0.0
H165 H 0.76335 0.35759 0.48236 0.0
H166 H 0.80579 0.42092 0.47651 0.0
H167 H 0.80861 0.40179 0.50995 0.0
H168 H 0.98699 0.40025 0.52709 0.0
H169 H 0.0338 0.48305 0.51054 0.0
H170 H 0.90066 0.46243 0.46032 0.0
C171 C 0.79988 0.27352 0.49205 0.0
C172 C 0.80669 0.23805 0.50745 0.0
C173 C 0.85274 0.25201 0.52315 0.0
C174 C 0.89194 0.30088 0.52333 0.0
C175 C 0.88405 0.33504 0.50781 0.0
C176 C 0.83913 0.3219 0.49246 0.0
C177 C 0.84063 0.36449 0.47667 0.0
C178 C 0.83214 0.34429 0.44495 0.0
C179 C 0.80233 0.38756 0.487 0.0
C180 C 0.89396 0.40327 0.48494 0.0
C181 C 0.91821 0.38593 0.50319 0.0
C182 C 0.96831 0.4144 0.51297 0.0
C183 C 0.99456 0.46138 0.50345 0.0
C184 C 0.97063 0.47902 0.4842 0.0
C185 C 0.91959 0.44992 0.47521 0.0
H186 H 0.5712 0.73797 0.8434 0.0
H187 H 0.46318 0.62011 0.78061 0.0
H188 H 0.42746 0.68344 0.77189 0.0
H189 H 0.49052 0.80863 0.86955 0.0
H190 H 0.54168 0.87177 0.87316 0.0
H191 H 0.5539 0.81526 0.87748 0.0
H192 H 0.61757 0.83397 0.83938 0.0
H193 H 0.60549 0.89036 0.8349 0.0
H194 H 0.59757 0.83977 0.8053 0.0
H195 H 0.40798 0.76074 0.76726 0.0
H196 H 0.40905 0.84786 0.76471 0.0
H197 H 0.53195 0.91838 0.82917 0.0
C198 C 0.53901 0.72536 0.82846 0.0
C199 C 0.51824 0.67361 0.81353 0.0
C200 C 0.47791 0.65884 0.79315 0.0
C201 C 0.45767 0.69472 0.78795 0.0
C202 C 0.47875 0.74552 0.80306 0.0
C203 C 0.51873 0.76103 0.82281 0.0
C204 C 0.53761 0.81928 0.83404 0.0
C205 C 0.53049 0.82932 0.86543 0.0
C206 C 0.59282 0.84749 0.82804 0.0
C207 C 0.5028 0.83432 0.81706 0.0
C208 C 0.46868 0.7909 0.79964 0.0
C209 C 0.43418 0.7949 0.78098 0.0
C210 C 0.43508 0.84455 0.77969 0.0
C211 C 0.47025 0.88977 0.79684 0.0
C212 C 0.50411 0.88445 0.81609 0.0
H213 H 0.93063 0.49009 0.12592 0.0
H214 H 0.9749 0.61208 0.19908 0.0
H215 H 0.88779 0.60676 0.2005 0.0
H216 H 0.85026 0.53654 0.09354 0.0
H217 H 0.80359 0.47308 0.07879 0.0
H218 H 0.86779 0.48139 0.08541 0.0
H219 H 0.83905 0.40915 0.11583 0.0
H220 H 0.77463 0.40033 0.10919 0.0
H221 H 0.80141 0.41441 0.14462 0.0
H222 H 0.79574 0.59194 0.19261 0.0
H223 H 0.70829 0.57099 0.17476 0.0
H224 H 0.72324 0.46213 0.10525 0.0
C225 C 0.92153 0.5145 0.14268 0.0
C226 C 0.95965 0.55078 0.16283 0.0
C227 C 0.94642 0.5835 0.1837 0.0
C228 C 0.89687 0.58079 0.18466 0.0
C229 C 0.86032 0.54555 0.1643 0.0
C230 C 0.87199 0.51301 0.14361 0.0
C231 C 0.82639 0.48169 0.12299 0.0
C232 C 0.8377 0.49392 0.09344 0.0
C233 C 0.80936 0.4229 0.12318 0.0
C234 C 0.78771 0.5021 0.13512 0.0
C235 C 0.80786 0.53845 0.15918 0.0
C236 C 0.77958 0.5633 0.17384 0.0
C237 C 0.72975 0.55113 0.16358 0.0
C238 C 0.70848 0.51476 0.13866 0.0
C239 C 0.73816 0.48991 0.12447 0.0
H240 H 0.41334 0.9014 0.46133 0.0
H241 H 0.46285 0.86968 0.53825 0.0
H242 H 0.38755 0.78706 0.53327 0.0
H243 H 0.28112 0.85223 0.47298 0.0
H244 H 0.2613 0.82545 0.43662 0.0
H245 H 0.31937 0.88157 0.44625 0.0
H246 H 0.36716 0.83244 0.41718 0.0
H247 H 0.30929 0.77601 0.40765 0.0
H248 H 0.36206 0.76983 0.42428 0.0
H249 H 0.30766 0.70754 0.51937 0.0
H250 H 0.22684 0.63838 0.49885 0.0
H251 H 0.22782 0.72419 0.43199 0.0
C252 C 0.40814 0.87713 0.47717 0.0
C253 C 0.44406 0.89125 0.49997 0.0
C254 C 0.43611 0.85882 0.52035 0.0
C255 C 0.39341 0.81204 0.51775 0.0
C256 C 0.35897 0.79876 0.49478 0.0
C257 C 0.36563 0.83054 0.47497 0.0
C258 C 0.32269 0.80763 0.45248 0.0
C259 C 0.29445 0.84388 0.45207 0.0
C260 C 0.34144 0.79577 0.4237 0.0
C261 C 0.29084 0.75792 0.4627 0.0
C262 C 0.31251 0.75346 0.48707 0.0
C263 C 0.29014 0.71077 0.5004 0.0
C264 C 0.24411 0.67184 0.48865 0.0
C265 C 0.22077 0.67598 0.4639 0.0
C266 C 0.24485 0.71957 0.45075 0.0
H267 H 0.44358 0.35004 0.81764 0.0
H268 H 0.59702 0.46433 0.83226 0.0
H269 H 0.62702 0.39325 0.83302 0.0
H270 H 0.45613 0.26123 0.86131 0.0
H271 H 0.41577 0.20345 0.83771 0.0
H272 H 0.40639 0.26343 0.83967 0.0
H273 H 0.41436 0.25954 0.78636 0.0
H274 H 0.42297 0.19924 0.7842 0.0
H275 H 0.46919 0.25365 0.77149 0.0
H276 H 0.64006 0.30888 0.82983 0.0
H277 H 0.63595 0.21848 0.81947 0.0
H278 H 0.47375 0.15902 0.80773 0.0
C279 C 0.48351 0.36011 0.8211 0.0
C280 C 0.51818 0.41269 0.82466 0.0
C281 C 0.57004 0.42431 0.82905 0.0
C282 C 0.58726 0.38418 0.82982 0.0
C283 C 0.55202 0.33265 0.82628 0.0
C284 C 0.50122 0.32055 0.82186 0.0
C285 C 0.47127 0.26195 0.81719 0.0
C286 C 0.43526 0.24663 0.84036 0.0
C287 C 0.44279 0.24247 0.78808 0.0
C288 C 0.51317 0.24272 0.8192 0.0
C289 C 0.55944 0.28419 0.82479 0.0
C290 C 0.604 0.27623 0.82587 0.0
C291 C 0.60133 0.2248 0.82017 0.0
C292 C 0.55449 0.18189 0.81353 0.0
C293 C 0.50984 0.19102 0.81372 0.0
H294 H 0.58722 0.9132 0.49892 0.0
H295 H 0.74904 0.96372 0.50311 0.0
H296 H 0.74004 0.87264 0.50208 0.0
H297 H 0.5717 0.82512 0.54797 0.0
H298 H 0.51118 0.78042 0.53141 0.0
H299 H 0.53351 0.84884 0.52941 0.0
H300 H 0.51834 0.82162 0.47517 0.0
H301 H 0.49978 0.75379 0.47775 0.0
H302 H 0.55084 0.78429 0.45703 0.0
H303 H 0.71355 0.77654 0.50257 0.0
H304 H 0.67236 0.68452 0.50883 0.0
H305 H 0.52807 0.69799 0.50959 0.0
C306 C 0.62056 0.90494 0.49936 0.0
C307 C 0.66872 0.94539 0.50092 0.0
C308 C 0.71172 0.93319 0.50175 0.0
C309 C 0.70697 0.88156 0.50111 0.0
C310 C 0.65894 0.84265 0.50026 0.0
C311 C 0.61648 0.85383 0.49983 0.0
C312 C 0.56972 0.80612 0.50229 0.0
C313 C 0.54503 0.81563 0.52938 0.0
C314 C 0.53249 0.79054 0.47651 0.0
C315 C 0.59237 0.76611 0.50361 0.0
C316 C 0.64386 0.78789 0.50213 0.0
C317 C 0.67324 0.75902 0.50366 0.0
C318 C 0.64951 0.70673 0.50718 0.0
C319 C 0.59702 0.68411 0.50958 0.0
C320 C 0.56822 0.71424 0.50761 0.0
H321 H 0.73953 0.54028 0.82883 0.0
H322 H 0.75174 0.69396 0.81746 0.0
H323 H 0.84409 0.72592 0.82234 0.0
H324 H 0.83077 0.58381 0.88248 0.0
H325 H 0.85649 0.53508 0.87308 0.0
H326 H 0.79217 0.52069 0.86255 0.0
H327 H 0.80868 0.49743 0.81083 0.0
H328 H 0.87327 0.51173 0.82125 0.0
H329 H 0.85873 0.54427 0.79544 0.0
H330 H 0.93222 0.74511 0.83561 0.0
H331 H 1.0105 0.75194 0.859 0.0
H332 H 0.94387 0.58593 0.86188 0.0
C333 C 0.76191 0.5801 0.82647 0.0
C334 C 0.73896 0.61466 0.82249 0.0
C335 C 0.76894 0.66697 0.82039 0.0
C336 C 0.82135 0.68534 0.82291 0.0
C337 C 0.84313 0.65087 0.8276 0.0
C338 C 0.8145 0.59931 0.82938 0.0
C339 C 0.84713 0.57269 0.83845 0.0
C340 C 0.83066 0.55189 0.86576 0.0
C341 C 0.84694 0.52894 0.81509 0.0
C342 C 0.89795 0.61807 0.84286 0.0
C343 C 0.89491 0.66236 0.83578 0.0
C344 C 0.93553 0.71044 0.84058 0.0
C345 C 0.98008 0.71384 0.85379 0.0
C346 C 0.98367 0.66943 0.86221 0.0
C347 C 0.94243 0.62062 0.85575 0.0
H348 H 0.27882 0.69253 0.19704 0.0
H349 H 0.21332 0.74538 0.13379 0.0
H350 H 0.29204 0.82408 0.1365 0.0
H351 H 0.34459 0.81899 0.23898 0.0
H352 H 0.39826 0.80556 0.24803 0.0
H353 H 0.33721 0.75302 0.24057 0.0
H354 H 0.37289 0.70425 0.20255 0.0
H355 H 0.43404 0.75666 0.20963 0.0
H356 H 0.40422 0.73647 0.17467 0.0
H357 H 0.37795 0.89662 0.14611 0.0
H358 H 0.46396 0.9596 0.16326 0.0
H359 H 0.47212 0.85928 0.22058 0.0
C360 C 0.28111 0.72075 0.1838 0.0
C361 C 0.24029 0.71326 0.16524 0.0
C362 C 0.24438 0.75076 0.1482 0.0
C363 C 0.28887 0.79539 0.14954 0.0
C364 C 0.32857 0.80173 0.1681 0.0
C365 C 0.32504 0.76557 0.18501 0.0
C366 C 0.37271 0.78209 0.20356 0.0
C367 C 0.36257 0.79042 0.23462 0.0
C368 C 0.39742 0.7425 0.1972 0.0
C369 C 0.40363 0.83321 0.19446 0.0
C370 C 0.37767 0.84376 0.17389 0.0
C371 C 0.39869 0.88879 0.1622 0.0
C372 C 0.44753 0.92413 0.17194 0.0
C373 C 0.47445 0.91422 0.19323 0.0
C374 C 0.45214 0.86806 0.20448 0.0
H375 H 0.53001 0.16628 0.49115 0.0
H376 H 0.67552 0.20258 0.53289 0.0
H377 H 0.69619 0.29675 0.53529 0.0
H378 H 0.5655 0.27611 0.45273 0.0
H379 H 0.50881 0.28681 0.45938 0.0
H380 H 0.50828 0.22213 0.45686 0.0
H381 H 0.47402 0.21587 0.50588 0.0
H382 H 0.47381 0.28009 0.50832 0.0
H383 H 0.5075 0.26614 0.53516 0.0
H384 H 0.69918 0.38705 0.5357 0.0
H385 H 0.67946 0.46587 0.54067 0.0
H386 H 0.52943 0.37147 0.50266 0.0
C387 C 0.5665 0.19412 0.50039 0.0
C388 C 0.60202 0.17715 0.51086 0.0
C389 C 0.64862 0.21469 0.52373 0.0
C390 C 0.66059 0.26829 0.52527 0.0
C391 C 0.62499 0.28384 0.51449 0.0
C392 C 0.57847 0.24787 0.50281 0.0
C393 C 0.54464 0.27484 0.49598 0.0
C394 C 0.53102 0.26434 0.46435 0.0
C395 C 0.49721 0.25826 0.51232 0.0
C396 C 0.57901 0.33151 0.50613 0.0
C397 C 0.62567 0.33592 0.51606 0.0
C398 C 0.66299 0.38413 0.52772 0.0
C399 C 0.65171 0.4287 0.53026 0.0
C400 C 0.60348 0.42458 0.5214 0.0
C401 C 0.56705 0.3756 0.50875 0.0
H402 H 0.35032 0.60057 0.80459 0.0
H403 H 0.31748 0.51584 0.87394 0.0
H404 H 0.25684 0.55506 0.88886 0.0
H405 H 0.35395 0.71533 0.84009 0.0
H406 H 0.32451 0.73318 0.81292 0.0
H407 H 0.35734 0.69104 0.80389 0.0
H408 H 0.27835 0.6202 0.77554 0.0
H409 H 0.24496 0.66235 0.78378 0.0
H410 H 0.21977 0.59724 0.7918 0.0
H411 H 0.21575 0.61633 0.90178 0.0
H412 H 0.18835 0.68858 0.90933 0.0
H413 H 0.24067 0.73042 0.82985 0.0
C414 C 0.32889 0.58881 0.82228 0.0
C415 C 0.33803 0.55497 0.83807 0.0
C416 C 0.31046 0.54133 0.86149 0.0
C417 C 0.27604 0.56342 0.87009 0.0
C418 C 0.26937 0.59842 0.85478 0.0
C419 C 0.29429 0.6104 0.83107 0.0
C420 C 0.2839 0.65291 0.81998 0.0
C421 C 0.33282 0.70095 0.81922 0.0
C422 C 0.25501 0.6319 0.79106 0.0
C423 C 0.25116 0.66465 0.84194 0.0
C424 C 0.24305 0.63245 0.86165 0.0
C425 C 0.21944 0.63993 0.88576 0.0
C426 C 0.20306 0.68089 0.88968 0.0
C427 C 0.20901 0.71318 0.86932 0.0
C428 C 0.23373 0.70499 0.84522 0.0
H429 H 0.95245 0.28884 0.16757 0.0
H430 H 0.87276 0.33342 0.10729 0.0
H431 H 0.79658 0.25357 0.10895 0.0
H432 H 0.89399 0.14729 0.14291 0.0
H433 H 0.89241 0.13319 0.17788 0.0
H434 H 0.94131 0.19102 0.16971 0.0
H435 H 0.91712 0.24803 0.20952 0.0
H436 H 0.86814 0.19052 0.21776 0.0
H437 H 0.85327 0.24353 0.20979 0.0
H438 H 0.72758 0.17203 0.12033 0.0
H439 H 0.67167 0.09656 0.14044 0.0
H440 H 0.79785 0.10676 0.19318 0.0
C441 C 0.91921 0.28136 0.15436 0.0
C442 C 0.91826 0.31688 0.1372 0.0
C443 C 0.87407 0.30629 0.12044 0.0
C444 C 0.83079 0.26111 0.12125 0.0
C445 C 0.83276 0.2271 0.13877 0.0
C446 C 0.87599 0.2367 0.15492 0.0
C447 C 0.86786 0.19602 0.17326 0.0
C448 C 0.90085 0.16504 0.16546 0.0
C449 C 0.87713 0.22103 0.20442 0.0
C450 C 0.81295 0.16245 0.1654 0.0
C451 C 0.79335 0.18063 0.14532 0.0
C452 C 0.74268 0.15715 0.13581 0.0
C453 C 0.71123 0.11436 0.14737 0.0
C454 C 0.73071 0.09587 0.16825 0.0
C455 C 0.78223 0.11987 0.17703 0.0
H456 H 0.11341 0.61283 0.07537 0.0
H457 H 1.01599 0.44918 0.04946 0.0
H458 H 1.00215 0.46666 0.00235 0.0
H459 H 0.03997 0.66301 0.04083 0.0
H460 H 0.09302 0.71644 0.0318 0.0
H461 H 0.09814 0.69002 0.0625 0.0
H462 H 0.17524 0.67287 0.04433 0.0
H463 H 0.17072 0.69971 0.01367 0.0
H464 H 0.17002 0.63483 0.01007 0.0
H465 H 0.99866 0.50359 0.95817 0.0
H466 H 1.00553 0.55591 0.92106 0.0
H467 H 0.09991 0.69581 0.97851 0.0
C468 C 0.08979 0.58023 0.05976 0.0
C469 C 0.06618 0.52944 0.06603 0.0
C470 C 0.03473 0.48835 0.04505 0.0
C471 C 1.02662 0.49793 0.01828 0.0
C472 C 0.0499 0.54882 0.01305 0.0
C473 C 0.08081 0.58919 0.03328 0.0
C474 C 0.09973 0.64082 0.02306 0.0
C475 C 0.08161 0.67985 0.04059 0.0
C476 C 0.15734 0.66336 0.02276 0.0
C477 C 0.07463 0.62338 0.99382 0.0
C478 C 0.04632 0.5702 0.98828 0.0
C479 C 1.02047 0.54531 0.96237 0.0
C480 C 1.02421 0.57553 0.9415 0.0
C481 C 0.05318 0.6302 0.94677 0.0
C482 C 0.07806 0.65415 0.9735 0.0
H483 H 0.57724 0.97372 0.4053 0.0
H484 H 0.67399 0.13888 0.42386 0.0
H485 H 0.67329 0.14299 0.37376 0.0
H486 H 0.63511 0.94431 0.34321 0.0
H487 H 0.57707 0.8983 0.3245 0.0
H488 H 0.58355 0.90804 0.36209 0.0
H489 H 0.50446 0.92997 0.36464 0.0
H490 H 0.49773 0.92027 0.32704 0.0
H491 H 0.50192 0.98119 0.34748 0.0
H492 H 0.66219 0.13045 0.32222 0.0
H493 H 0.64247 0.1011 0.2715 0.0
H494 H 0.55651 0.94303 0.28528 0.0
C495 C 0.59804 0.01072 0.39878 0.0
C496 C 0.62576 0.05591 0.41851 0.0
C497 C 0.65278 0.10359 0.40916 0.0
C498 C 0.65252 0.10646 0.38072 0.0
C499 C 0.62528 0.06128 0.3618 0.0
C500 C 0.59863 0.01424 0.3703 0.0
C501 C 0.57348 0.97142 0.34536 0.0
C502 C 0.59352 0.92796 0.3437 0.0
C503 C 0.51599 0.94943 0.34619 0.0
C504 C 0.59024 1.00193 0.32167 0.0
C505 C 0.61986 0.05371 0.3317 0.0
C506 C 0.63937 0.08987 0.31402 0.0
C507 C 0.62831 0.07267 0.28519 0.0
C508 C 0.59838 0.01961 0.27425 0.0
C509 C 0.57921 0.98391 0.29289 0.0
H510 H 0.57089 0.50095 0.73018 0.0
H511 H 0.43795 0.53664 0.7376 0.0
H512 H 0.43261 0.53505 0.68668 0.0
H513 H 0.62577 0.57962 0.68054 0.0
H514 H 0.6497 0.53484 0.66146 0.0
H515 H 0.64096 0.53521 0.6981 0.0
H516 H 0.58393 0.43642 0.68771 0.0
H517 H 0.59288 0.43561 0.65102 0.0
H518 H 0.53027 0.4132 0.66271 0.0
H519 H 0.44649 0.53684 0.6351 0.0
H520 H 0.47446 0.53417 0.58691 0.0
H521 H 0.5968 0.49585 0.61408 0.0
C522 C 0.54019 0.50773 0.72111 0.0
C523 C 0.50483 0.51886 0.73791 0.0
C524 C 0.4653 0.52759 0.72514 0.0
C525 C 0.46207 0.52702 0.69623 0.0
C526 C 0.49831 0.51711 0.68038 0.0
C527 C 0.53619 0.50691 0.69236 0.0
C528 C 0.57108 0.49835 0.67096 0.0
C529 C 0.62506 0.53946 0.67821 0.0
C530 C 0.56941 0.44258 0.66792 0.0
C531 C 0.54743 0.5061 0.64512 0.0
C532 C 0.50557 0.51705 0.65087 0.0
C533 C 0.47886 0.52767 0.6303 0.0
C534 C 0.4951 0.52638 0.60309 0.0
C535 C 0.53732 0.51418 0.5968 0.0
C536 C 0.56376 0.50425 0.6182 0.0
H537 H 0.56396 0.00816 0.59471 0.0
H538 H 0.71429 0.12956 0.60057 0.0
H539 H 0.71697 0.13977 0.65186 0.0
H540 H 0.52085 0.0689 0.65118 0.0
H541 H 0.48352 0.00973 0.66359 0.0
H542 H 0.49521 0.00761 0.6272 0.0
H543 H 0.53221 0.93801 0.62968 0.0
H544 H 0.52062 0.93993 0.66616 0.0
H545 H 0.58297 0.95157 0.65537 0.0
H546 H 0.70104 0.14296 0.70207 0.0
H547 H 0.66675 0.13904 0.74844 0.0
H548 H 0.52712 0.0155 0.71065 0.0
C549 C 0.59779 0.03622 0.60676 0.0
C550 C 0.63894 0.06801 0.59359 0.0
C551 C 0.68223 0.10481 0.61014 0.0
C552 C 0.68426 0.11076 0.63932 0.0
C553 C 0.64281 0.07947 0.65167 0.0
C554 C 0.60041 0.04281 0.63598 0.0
C555 C 0.55977 0.01677 0.65459 0.0
C556 C 0.51204 0.02636 0.64879 0.0
C557 C 0.54823 0.95808 0.65124 0.0
C558 C 0.58555 0.04553 0.68311 0.0
C559 C 0.63362 0.08116 0.6809 0.0
C560 C 0.66375 0.11473 0.70414 0.0
C561 C 0.64395 0.11238 0.73032 0.0
C562 C 0.59456 0.07676 0.73301 0.0
C563 C 0.56537 0.04232 0.70916 0.0
H564 H 0.47794 0.52947 0.92107 0.0
H565 H 0.63451 0.62576 0.91386 0.0
H566 H 0.65181 0.63494 0.96471 0.0
H567 H 0.4649 0.59618 0.98955 0.0
H568 H 0.42588 0.53643 0.00089 0.0
H569 H 0.42484 0.5409 0.96433 0.0
H570 H 0.4469 0.45956 0.95272 0.0
H571 H 0.448 0.45484 0.98921 0.0
H572 H 0.50212 0.4593 0.96999 0.0
H573 H 0.65243 0.63243 0.01608 0.0
H574 H 0.63764 0.61448 0.06396 0.0
H575 H 0.48192 0.51449 0.03712 0.0
C576 C 0.51567 0.55319 0.93029 0.0
C577 C 0.55481 0.57737 0.9136 0.0
C578 C 0.60396 0.60701 0.92629 0.0
C579 C 0.6141 0.61261 0.95515 0.0
C580 C 0.57481 0.58786 0.97099 0.0
C581 C 0.52664 0.55845 0.95901 0.0
C582 C 0.49195 0.53307 0.98042 0.0
C583 C 0.44938 0.55284 0.98401 0.0
C584 C 0.47103 0.47315 0.97262 0.0
C585 C 0.52821 0.55265 0.00627 0.0
C586 C 0.57564 0.58465 0.00042 0.0
C587 C 0.61549 0.60721 0.02088 0.0
C588 C 0.60677 0.59639 0.048 0.0
C589 C 0.5587 0.56268 0.05443 0.0
C590 C 0.51895 0.54093 0.03315 0.0
H591 H 0.12227 0.5984 0.24998 0.0
H592 H 1.02828 0.4325 0.23224 0.0
H593 H 1.02839 0.43027 0.28286 0.0
H594 H 0.19816 0.59563 0.30781 0.0
H595 H 0.20102 0.6567 0.32743 0.0
H596 H 0.19392 0.64517 0.28981 0.0
H597 H 0.11334 0.6645 0.29168 0.0
H598 H 0.12029 0.6763 0.32929 0.0
H599 H 0.0626 0.62839 0.31108 0.0
H600 H 0.04073 0.4458 0.33531 0.0
H601 H 0.0605 0.47854 0.38588 0.0
H602 H 0.14278 0.63532 0.36929 0.0
C603 C 0.10179 0.5615 0.25668 0.0
C604 C 0.07542 0.51554 0.23712 0.0
C605 C 0.04866 0.46824 0.24683 0.0
C606 C 0.04864 0.46654 0.27552 0.0
C607 C 0.0752 0.51255 0.29421 0.0
C608 C 0.10095 0.55921 0.28519 0.0
C609 C 0.12561 0.60333 0.30957 0.0
C610 C 0.18309 0.62656 0.30859 0.0
C611 C 0.10416 0.64561 0.31045 0.0
C612 C 0.10993 0.57413 0.33374 0.0
C613 C 0.08109 0.52178 0.32443 0.0
C614 C 0.06283 0.48682 0.34286 0.0
C615 C 0.074 0.50594 0.37159 0.0
C616 C 0.10278 0.55971 0.38171 0.0
C617 C 0.12104 0.59399 0.36235 0.0
loop_
_geom_bond_atom_site_label_1
_geom_bond_atom_site_label_2
_geom_bond_distance
_geom_bond_site_symmetry_2
_ccdc_geom_bond_type
Tb0 O3 2.453 . S
Tb0 O4 2.596 . S
Tb0 O5 2.374 . S
Tb0 O13 2.343 . S
Tb0 O15 2.353 . S
Tb0 O17 2.427 . S
Tb0 O18 2.513 . S
C1 O5 1.251 . S
C1 O7 1.263 . S
Tb2 O4 2.343 . S
Tb2 O7 2.353 . S
Tb2 O10 2.427 1_455 S
Tb2 O11 2.513 1_455 S
Tb2 O12 2.453 . S
Tb2 O13 2.596 . S
Tb2 O14 2.374 . S
O3 Tb0 2.453 . S
O3 C19 1.245 1_455 S
O4 Tb0 2.596 . S
O4 Tb2 2.343 . S
O4 C19 1.259 1_455 S
O5 Tb0 2.374 . S
O5 C1 1.251 . S
C6 O10 1.275 . S
C6 O11 1.246 . S
O7 C1 1.263 . S
O7 Tb2 2.353 . S
C8 O12 1.245 . S
C8 O13 1.259 . S
C9 O14 1.250 . S
C9 O15 1.263 . S
O10 Tb2 2.427 1_655 S
O10 C6 1.275 . S
O11 Tb2 2.513 1_655 S
O11 C6 1.246 . S
O12 Tb2 2.453 . S
O12 C8 1.245 . S
O13 Tb0 2.343 . S
O13 Tb2 2.596 . S
O13 C8 1.259 . S
O14 Tb2 2.374 . S
O14 C9 1.250 . S
O15 Tb0 2.353 . S
O15 C9 1.263 . S
C16 O17 1.275 . S
C16 O18 1.246 . S
O17 Tb0 2.427 . S
O17 C16 1.275 . S
O18 Tb0 2.513 . S
O18 C16 1.246 . S
C19 O3 1.245 1_655 S
C19 O4 1.259 1_655 S
Tb20 O23 2.453 . S
Tb20 O24 2.596 . S
Tb20 O25 2.374 . S
Tb20 O33 2.343 . S
Tb20 O35 2.353 . S
Tb20 O37 2.427 1_545 S
Tb20 O38 2.513 1_545 S
C21 O25 1.251 . S
C21 O27 1.263 . S
Tb22 O24 2.343 . S
Tb22 O27 2.353 . S
Tb22 O30 2.427 . S
Tb22 O31 2.513 . S
Tb22 O32 2.453 1_545 S
Tb22 O33 2.596 . S
Tb22 O34 2.374 . S
O23 Tb20 2.453 . S
O23 C39 1.245 . S
O24 Tb20 2.596 . S
O24 Tb22 2.343 . S
O24 C39 1.259 . S
O25 Tb20 2.374 . S
O25 C21 1.251 . S
C26 O30 1.275 . S
C26 O31 1.246 . S
O27 C21 1.263 . S
O27 Tb22 2.353 . S
C28 O32 1.245 . S
C28 O33 1.259 1_565 S
C29 O34 1.250 . S
C29 O35 1.263 . S
O30 Tb22 2.427 . S
O30 C26 1.275 . S
O31 Tb22 2.513 . S
O31 C26 1.246 . S
O32 Tb22 2.453 1_565 S
O32 C28 1.245 . S
O33 Tb20 2.343 . S
O33 Tb22 2.596 . S
O33 C28 1.259 1_545 S
O34 Tb22 2.374 . S
O34 C29 1.250 . S
O35 Tb20 2.353 . S
O35 C29 1.263 . S
C36 O37 1.275 . S
C36 O38 1.246 . S
O37 Tb20 2.427 1_565 S
O37 C36 1.275 . S
O38 Tb20 2.513 1_565 S
O38 C36 1.246 . S
C39 O23 1.245 . S
C39 O24 1.259 . S
Tb40 O43 2.453 . S
Tb40 O44 2.596 . S
Tb40 O45 2.374 . S
Tb40 O53 2.343 . S
Tb40 O55 2.353 . S
Tb40 O57 2.427 . S
Tb40 O58 2.513 . S
C41 O45 1.251 . S
C41 O47 1.263 . S
Tb42 O44 2.343 . S
Tb42 O47 2.353 . S
Tb42 O50 2.427 . S
Tb42 O51 2.513 . S
Tb42 O52 2.453 . S
Tb42 O53 2.596 . S
Tb42 O54 2.374 . S
O43 Tb40 2.453 . S
O43 C59 1.245 . S
O44 Tb40 2.596 . S
O44 Tb42 2.343 . S
O44 C59 1.259 . S
O45 Tb40 2.374 . S
O45 C41 1.251 . S
C46 O50 1.275 . S
C46 O51 1.246 . S
O47 C41 1.263 . S
O47 Tb42 2.353 . S
C48 O52 1.245 . S
C48 O53 1.259 . S
C49 O54 1.250 . S
C49 O55 1.263 . S
O50 Tb42 2.427 . S
O50 C46 1.275 . S
O51 Tb42 2.513 . S
O51 C46 1.246 . S
O52 Tb42 2.453 . S
O52 C48 1.245 . S
O53 Tb40 2.343 . S
O53 Tb42 2.596 . S
O53 C48 1.259 . S
O54 Tb42 2.374 . S
O54 C49 1.250 . S
O55 Tb40 2.353 . S
O55 C49 1.263 . S
C56 O57 1.275 . S
C56 O58 1.246 . S
O57 Tb40 2.427 . S
O57 C56 1.275 . S
O58 Tb40 2.513 . S
O58 C56 1.246 . S
C59 O43 1.245 . S
C59 O44 1.259 . S
H60 C65 0.930 . S
H61 C68 0.930 . S
H62 C70 0.930 . S
H63 C64 1.016 . S
C64 H63 1.016 . S
C64 N71 1.286 . S
C65 H60 0.930 . S
C65 C66 1.397 . S
C65 C67 1.361 . S
C66 C65 1.397 . S
C66 C70 1.390 . S
C67 C65 1.361 . S
C67 C68 1.393 . S
C67 N71 1.413 . S
C68 H61 0.930 . S
C68 C67 1.393 . S
C68 C69 1.399 . S
C69 C68 1.399 . S
C69 C70 1.381 . S
C70 H62 0.930 . S
C70 C66 1.390 . S
C70 C69 1.381 . S
N71 C64 1.286 . S
N71 C67 1.413 . S
H72 C77 0.930 . S
H73 C80 0.930 . S
H74 C82 0.930 . S
H75 C76 1.016 . S
C76 H75 1.016 . S
C76 N83 1.286 . S
C77 H72 0.930 . S
C77 C78 1.397 . S
C77 C79 1.361 . S
C78 C77 1.397 . S
C78 C82 1.390 . S
C79 C77 1.361 . S
C79 C80 1.393 . S
C79 N83 1.413 . S
C80 H73 0.930 . S
C80 C79 1.393 . S
C80 C81 1.399 . S
C81 C80 1.399 . S
C81 C82 1.381 . S
C82 H74 0.930 . S
C82 C78 1.390 . S
C82 C81 1.381 . S
N83 C76 1.286 . S
N83 C79 1.413 . S
H84 C89 0.930 . S
H85 C92 0.930 . S
H86 C94 0.930 . S
H87 C88 1.016 . S
C88 H87 1.016 . S
C88 N95 1.286 . S
C89 H84 0.930 . S
C89 C90 1.397 . S
C89 C91 1.361 . S
C90 C89 1.397 . S
C90 C94 1.390 . S
C91 C89 1.361 . S
C91 C92 1.393 . S
C91 N95 1.413 . S
C92 H85 0.930 . S
C92 C91 1.393 . S
C92 C93 1.399 . S
C93 C92 1.399 . S
C93 C94 1.381 . S
C94 H86 0.930 . S
C94 C90 1.390 . S
C94 C93 1.381 . S
N95 C88 1.286 . S
N95 C91 1.413 . S
H96 C101 0.930 . S
H97 C104 0.930 . S
H98 C106 0.930 . S
H99 C100 1.016 . S
C100 H99 1.016 . S
C100 N107 1.286 . S
C101 H96 0.930 . S
C101 C102 1.397 . S
C101 C103 1.361 1_455 S
C102 C101 1.397 . S
C102 C106 1.390 . S
C103 C101 1.361 1_655 S
C103 C104 1.393 . S
C103 N107 1.413 . S
C104 H97 0.930 . S
C104 C103 1.393 . S
C104 C105 1.399 1_655 S
C105 C104 1.399 1_455 S
C105 C106 1.381 . S
C106 H98 0.930 . S
C106 C102 1.390 . S
C106 C105 1.381 . S
N107 C100 1.286 . S
N107 C103 1.413 . S
H108 C113 0.930 . S
H109 C116 0.930 1_565 S
H110 C118 0.930 . S
H111 C112 1.016 . S
C112 H111 1.016 . S
C112 N119 1.286 . S
C113 H108 0.930 . S
C113 C114 1.397 . S
C113 C115 1.361 . S
C114 C113 1.397 . S
C114 C118 1.390 . S
C115 C113 1.361 . S
C115 C116 1.393 . S
C115 N119 1.413 1_545 S
C116 H109 0.930 1_545 S
C116 C115 1.393 . S
C116 C117 1.399 . S
C117 C116 1.399 . S
C117 C118 1.381 . S
C118 H110 0.930 . S
C118 C114 1.390 . S
C118 C117 1.381 . S
N119 C112 1.286 . S
N119 C115 1.413 1_565 S
H120 C125 0.930 . S
H121 C128 0.930 . S
H122 C130 0.930 . S
H123 C124 1.016 . S
C124 H123 1.016 . S
C124 N131 1.286 . S
C125 H120 0.930 . S
C125 C126 1.397 . S
C125 C127 1.361 . S
C126 C125 1.397 . S
C126 C130 1.390 . S
C127 C125 1.361 . S
C127 C128 1.393 . S
C127 N131 1.413 . S
C128 H121 0.930 . S
C128 C127 1.393 . S
C128 C129 1.399 . S
C129 C128 1.399 . S
C129 C130 1.381 . S
C130 H122 0.930 . S
C130 C126 1.390 . S
C130 C129 1.381 . S
N131 C124 1.286 . S
N131 C127 1.413 . S
H132 C144 0.930 . S
H133 C146 0.930 . S
H134 C147 0.930 . S
H135 C151 0.959 . S
H136 C151 0.959 . S
H137 C151 0.961 . S
H138 C152 0.960 . S
H139 C152 0.961 . S
H140 C152 0.959 . S
H141 C155 0.929 . S
H142 C156 0.931 . S
H143 C158 0.930 . S
C144 H132 0.930 . S
C144 C145 1.399 . S
C144 C149 1.399 . S
C145 C144 1.399 . S
C145 C146 1.376 . S
C146 H133 0.930 . S
C146 C145 1.376 . S
C146 C147 1.388 . S
C147 H134 0.930 . S
C147 C146 1.388 . S
C147 C148 1.390 . S
C148 C147 1.390 . S
C148 C149 1.394 . S
C148 C154 1.465 . S
C149 C144 1.399 . S
C149 C148 1.394 . S
C149 C150 1.516 . S
C150 C149 1.516 . S
C150 C151 1.502 . S
C150 C152 1.561 . S
C150 C153 1.526 . S
C151 H135 0.959 . S
C151 H136 0.959 . S
C151 H137 0.961 . S
C151 C150 1.502 . S
C152 H138 0.960 . S
C152 H139 0.961 . S
C152 H140 0.959 . S
C152 C150 1.561 . S
C153 C150 1.526 . S
C153 C154 1.396 . S
C153 C158 1.390 . S
C154 C148 1.465 . S
C154 C153 1.396 . S
C154 C155 1.399 . S
C155 H141 0.929 . S
C155 C154 1.399 . S
C155 C156 1.385 . S
C156 H142 0.931 . S
C156 C155 1.385 . S
C156 C157 1.389 . S
C157 C156 1.389 . S
C157 C158 1.387 . S
C158 H143 0.930 . S
C158 C153 1.390 . S
C158 C157 1.387 . S
H159 C171 0.930 . S
H160 C173 0.930 . S
H161 C174 0.930 . S
H162 C178 0.959 . S
H163 C178 0.959 . S
H164 C178 0.961 . S
H165 C179 0.960 . S
H166 C179 0.961 . S
H167 C179 0.959 . S
H168 C182 0.929 . S
H169 C183 0.931 . S
H170 C185 0.930 . S
C171 H159 0.930 . S
C171 C172 1.399 . S
C171 C176 1.399 . S
C172 C171 1.399 . S
C172 C173 1.376 . S
C173 H160 0.930 . S
C173 C172 1.376 . S
C173 C174 1.388 . S
C174 H161 0.930 . S
C174 C173 1.388 . S
C174 C175 1.390 . S
C175 C174 1.390 . S
C175 C176 1.394 . S
C175 C181 1.465 . S
C176 C171 1.399 . S
C176 C175 1.394 . S
C176 C177 1.516 . S
C177 C176 1.516 . S
C177 C178 1.502 . S
C177 C179 1.561 . S
C177 C180 1.526 . S
C178 H162 0.959 . S
C178 H163 0.959 . S
C178 H164 0.961 . S
C178 C177 1.502 . S
C179 H165 0.960 . S
C179 H166 0.961 . S
C179 H167 0.959 . S
C179 C177 1.561 . S
C180 C177 1.526 . S
C180 C181 1.396 . S
C180 C185 1.390 . S
C181 C175 1.465 . S
C181 C180 1.396 . S
C181 C182 1.399 . S
C182 H168 0.929 . S
C182 C181 1.399 . S
C182 C183 1.385 . S
C183 H169 0.931 . S
C183 C182 1.385 . S
C183 C184 1.389 . S
C184 C183 1.389 . S
C184 C185 1.387 . S
C185 H170 0.930 . S
C185 C180 1.390 . S
C185 C184 1.387 . S
H186 C198 0.930 . S
H187 C200 0.930 . S
H188 C201 0.930 . S
H189 C205 0.959 . S
H190 C205 0.959 . S
H191 C205 0.961 . S
H192 C206 0.960 . S
H193 C206 0.961 . S
H194 C206 0.959 . S
H195 C209 0.929 . S
H196 C210 0.931 . S
H197 C212 0.930 . S
C198 H186 0.930 . S
C198 C199 1.399 . S
C198 C203 1.399 . S
C199 C198 1.399 . S
C199 C200 1.376 . S
C200 H187 0.930 . S
C200 C199 1.376 . S
C200 C201 1.388 . S
C201 H188 0.930 . S
C201 C200 1.388 . S
C201 C202 1.390 . S
C202 C201 1.390 . S
C202 C203 1.394 . S
C202 C208 1.465 . S
C203 C198 1.399 . S
C203 C202 1.394 . S
C203 C204 1.516 . S
C204 C203 1.516 . S
C204 C205 1.502 . S
C204 C206 1.561 . S
C204 C207 1.526 . S
C205 H189 0.959 . S
C205 H190 0.959 . S
C205 H191 0.961 . S
C205 C204 1.502 . S
C206 H192 0.960 . S
C206 H193 0.961 . S
C206 H194 0.959 . S
C206 C204 1.561 . S
C207 C204 1.526 . S
C207 C208 1.396 . S
C207 C212 1.390 . S
C208 C202 1.465 . S
C208 C207 1.396 . S
C208 C209 1.399 . S
C209 H195 0.929 . S
C209 C208 1.399 . S
C209 C210 1.385 . S
C210 H196 0.931 . S
C210 C209 1.385 . S
C210 C211 1.389 . S
C211 C210 1.389 . S
C211 C212 1.387 . S
C212 H197 0.930 . S
C212 C207 1.390 . S
C212 C211 1.387 . S
H213 C225 0.930 . S
H214 C227 0.930 . S
H215 C228 0.930 . S
H216 C232 0.959 . S
H217 C232 0.959 . S
H218 C232 0.961 . S
H219 C233 0.960 . S
H220 C233 0.961 . S
H221 C233 0.959 . S
H222 C236 0.929 . S
H223 C237 0.931 . S
H224 C239 0.930 . S
C225 H213 0.930 . S
C225 C226 1.399 . S
C225 C230 1.399 . S
C226 C225 1.399 . S
C226 C227 1.376 . S
C227 H214 0.930 . S
C227 C226 1.376 . S
C227 C228 1.388 . S
C228 H215 0.930 . S
C228 C227 1.388 . S
C228 C229 1.390 . S
C229 C228 1.390 . S
C229 C230 1.394 . S
C229 C235 1.465 . S
C230 C225 1.399 . S
C230 C229 1.394 . S
C230 C231 1.516 . S
C231 C230 1.516 . S
C231 C232 1.502 . S
C231 C233 1.561 . S
C231 C234 1.526 . S
C232 H216 0.959 . S
C232 H217 0.959 . S
C232 H218 0.961 . S
C232 C231 1.502 . S
C233 H219 0.960 . S
C233 H220 0.961 . S
C233 H221 0.959 . S
C233 C231 1.561 . S
C234 C231 1.526 . S
C234 C235 1.396 . S
C234 C239 1.390 . S
C235 C229 1.465 . S
C235 C234 1.396 . S
C235 C236 1.399 . S
C236 H222 0.929 . S
C236 C235 1.399 . S
C236 C237 1.385 . S
C237 H223 0.931 . S
C237 C236 1.385 . S
C237 C238 1.389 . S
C238 C237 1.389 . S
C238 C239 1.387 . S
C239 H224 0.930 . S
C239 C234 1.390 . S
C239 C238 1.387 . S
H240 C252 0.930 . S
H241 C254 0.930 . S
H242 C255 0.930 . S
H243 C259 0.959 . S
H244 C259 0.959 . S
H245 C259 0.961 . S
H246 C260 0.960 . S
H247 C260 0.961 . S
H248 C260 0.959 . S
H249 C263 0.929 . S
H250 C264 0.931 . S
H251 C266 0.930 . S
C252 H240 0.930 . S
C252 C253 1.399 . S
C252 C257 1.399 . S
C253 C252 1.399 . S
C253 C254 1.376 . S
C254 H241 0.930 . S
C254 C253 1.376 . S
C254 C255 1.388 . S
C255 H242 0.930 . S
C255 C254 1.388 . S
C255 C256 1.390 . S
C256 C255 1.390 . S
C256 C257 1.394 . S
C256 C262 1.465 . S
C257 C252 1.399 . S
C257 C256 1.394 . S
C257 C258 1.516 . S
C258 C257 1.516 . S
C258 C259 1.502 . S
C258 C260 1.561 . S
C258 C261 1.526 . S
C259 H243 0.959 . S
C259 H244 0.959 . S
C259 H245 0.961 . S
C259 C258 1.502 . S
C260 H246 0.960 . S
C260 H247 0.961 . S
C260 H248 0.959 . S
C260 C258 1.561 . S
C261 C258 1.526 . S
C261 C262 1.396 . S
C261 C266 1.390 . S
C262 C256 1.465 . S
C262 C261 1.396 . S
C262 C263 1.399 . S
C263 H249 0.929 . S
C263 C262 1.399 . S
C263 C264 1.385 . S
C264 H250 0.931 . S
C264 C263 1.385 . S
C264 C265 1.389 . S
C265 C264 1.389 . S
C265 C266 1.387 . S
C266 H251 0.930 . S
C266 C261 1.390 . S
C266 C265 1.387 . S
H267 C279 0.930 . S
H268 C281 0.930 . S
H269 C282 0.930 . S
H270 C286 0.959 . S
H271 C286 0.959 . S
H272 C286 0.961 . S
H273 C287 0.960 . S
H274 C287 0.961 . S
H275 C287 0.959 . S
H276 C290 0.929 . S
H277 C291 0.931 . S
H278 C293 0.930 . S
C279 H267 0.930 . S
C279 C280 1.399 . S
C279 C284 1.399 . S
C280 C279 1.399 . S
C280 C281 1.376 . S
C281 H268 0.930 . S
C281 C280 1.376 . S
C281 C282 1.388 . S
C282 H269 0.930 . S
C282 C281 1.388 . S
C282 C283 1.390 . S
C283 C282 1.390 . S
C283 C284 1.394 . S
C283 C289 1.465 . S
C284 C279 1.399 . S
C284 C283 1.394 . S
C284 C285 1.516 . S
C285 C284 1.516 . S
C285 C286 1.502 . S
C285 C287 1.561 . S
C285 C288 1.526 . S
C286 H270 0.959 . S
C286 H271 0.959 . S
C286 H272 0.961 . S
C286 C285 1.502 . S
C287 H273 0.960 . S
C287 H274 0.961 . S
C287 H275 0.959 . S
C287 C285 1.561 . S
C288 C285 1.526 . S
C288 C289 1.396 . S
C288 C293 1.390 . S
C289 C283 1.465 . S
C289 C288 1.396 . S
C289 C290 1.399 . S
C290 H276 0.929 . S
C290 C289 1.399 . S
C290 C291 1.385 . S
C291 H277 0.931 . S
C291 C290 1.385 . S
C291 C292 1.389 . S
C292 C291 1.389 . S
C292 C293 1.387 . S
C293 H278 0.930 . S
C293 C288 1.390 . S
C293 C292 1.387 . S
H294 C306 0.930 . S
H295 C308 0.930 . S
H296 C309 0.930 . S
H297 C313 0.959 . S
H298 C313 0.959 . S
H299 C313 0.961 . S
H300 C314 0.960 . S
H301 C314 0.961 . S
H302 C314 0.959 . S
H303 C317 0.929 . S
H304 C318 0.931 . S
H305 C320 0.930 . S
C306 H294 0.930 . S
C306 C307 1.399 . S
C306 C311 1.399 . S
C307 C306 1.399 . S
C307 C308 1.376 . S
C308 H295 0.930 . S
C308 C307 1.376 . S
C308 C309 1.388 . S
C309 H296 0.930 . S
C309 C308 1.388 . S
C309 C310 1.390 . S
C310 C309 1.390 . S
C310 C311 1.394 . S
C310 C316 1.465 . S
C311 C306 1.399 . S
C311 C310 1.394 . S
C311 C312 1.516 . S
C312 C311 1.516 . S
C312 C313 1.502 . S
C312 C314 1.561 . S
C312 C315 1.526 . S
C313 H297 0.959 . S
C313 H298 0.959 . S
C313 H299 0.961 . S
C313 C312 1.502 . S
C314 H300 0.960 . S
C314 H301 0.961 . S
C314 H302 0.959 . S
C314 C312 1.561 . S
C315 C312 1.526 . S
C315 C316 1.396 . S
C315 C320 1.390 . S
C316 C310 1.465 . S
C316 C315 1.396 . S
C316 C317 1.399 . S
C317 H303 0.929 . S
C317 C316 1.399 . S
C317 C318 1.385 . S
C318 H304 0.931 . S
C318 C317 1.385 . S
C318 C319 1.389 . S
C319 C318 1.389 . S
C319 C320 1.387 . S
C320 H305 0.930 . S
C320 C315 1.390 . S
C320 C319 1.387 . S
H321 C333 0.930 . S
H322 C335 0.930 . S
H323 C336 0.930 . S
H324 C340 0.959 . S
H325 C340 0.959 . S
H326 C340 0.961 . S
H327 C341 0.960 . S
H328 C341 0.961 . S
H329 C341 0.959 . S
H330 C344 0.929 . S
H331 C345 0.931 1_455 S
H332 C347 0.930 . S
C333 H321 0.930 . S
C333 C334 1.399 . S
C333 C338 1.399 . S
C334 C333 1.399 . S
C334 C335 1.376 . S
C335 H322 0.930 . S
C335 C334 1.376 . S
C335 C336 1.388 . S
C336 H323 0.930 . S
C336 C335 1.388 . S
C336 C337 1.390 . S
C337 C336 1.390 . S
C337 C338 1.394 . S
C337 C343 1.465 . S
C338 C333 1.399 . S
C338 C337 1.394 . S
C338 C339 1.516 . S
C339 C338 1.516 . S
C339 C340 1.502 . S
C339 C341 1.561 . S
C339 C342 1.526 . S
C340 H324 0.959 . S
C340 H325 0.959 . S
C340 H326 0.961 . S
C340 C339 1.502 . S
C341 H327 0.960 . S
C341 H328 0.961 . S
C341 H329 0.959 . S
C341 C339 1.561 . S
C342 C339 1.526 . S
C342 C343 1.396 . S
C342 C347 1.390 . S
C343 C337 1.465 . S
C343 C342 1.396 . S
C343 C344 1.399 . S
C344 H330 0.929 . S
C344 C343 1.399 . S
C344 C345 1.385 . S
C345 H331 0.931 1_655 S
C345 C344 1.385 . S
C345 C346 1.389 . S
C346 C345 1.389 . S
C346 C347 1.387 . S
C347 H332 0.930 . S
C347 C342 1.390 . S
C347 C346 1.387 . S
H348 C360 0.930 . S
H349 C362 0.930 . S
H350 C363 0.930 . S
H351 C367 0.959 . S
H352 C367 0.959 . S
H353 C367 0.961 . S
H354 C368 0.960 . S
H355 C368 0.961 . S
H356 C368 0.959 . S
H357 C371 0.929 . S
H358 C372 0.931 . S
H359 C374 0.930 . S
C360 H348 0.930 . S
C360 C361 1.399 . S
C360 C365 1.399 . S
C361 C360 1.399 . S
C361 C362 1.376 . S
C362 H349 0.930 . S
C362 C361 1.376 . S
C362 C363 1.388 . S
C363 H350 0.930 . S
C363 C362 1.388 . S
C363 C364 1.390 . S
C364 C363 1.390 . S
C364 C365 1.394 . S
C364 C370 1.465 . S
C365 C360 1.399 . S
C365 C364 1.394 . S
C365 C366 1.516 . S
C366 C365 1.516 . S
C366 C367 1.502 . S
C366 C368 1.561 . S
C366 C369 1.526 . S
C367 H351 0.959 . S
C367 H352 0.959 . S
C367 H353 0.961 . S
C367 C366 1.502 . S
C368 H354 0.960 . S
C368 H355 0.961 . S
C368 H356 0.959 . S
C368 C366 1.561 . S
C369 C366 1.526 . S
C369 C370 1.396 . S
C369 C374 1.390 . S
C370 C364 1.465 . S
C370 C369 1.396 . S
C370 C371 1.399 . S
C371 H357 0.929 . S
C371 C370 1.399 . S
C371 C372 1.385 . S
C372 H358 0.931 . S
C372 C371 1.385 . S
C372 C373 1.389 . S
C373 C372 1.389 . S
C373 C374 1.387 . S
C374 H359 0.930 . S
C374 C369 1.390 . S
C374 C373 1.387 . S
H375 C387 0.930 . S
H376 C389 0.930 . S
H377 C390 0.930 . S
H378 C394 0.959 . S
H379 C394 0.959 . S
H380 C394 0.961 . S
H381 C395 0.960 . S
H382 C395 0.961 . S
H383 C395 0.959 . S
H384 C398 0.929 . S
H385 C399 0.931 . S
H386 C401 0.930 . S
C387 H375 0.930 . S
C387 C388 1.399 . S
C387 C392 1.399 . S
C388 C387 1.399 . S
C388 C389 1.376 . S
C389 H376 0.930 . S
C389 C388 1.376 . S
C389 C390 1.388 . S
C390 H377 0.930 . S
C390 C389 1.388 . S
C390 C391 1.390 . S
C391 C390 1.390 . S
C391 C392 1.394 . S
C391 C397 1.465 . S
C392 C387 1.399 . S
C392 C391 1.394 . S
C392 C393 1.516 . S
C393 C392 1.516 . S
C393 C394 1.502 . S
C393 C395 1.561 . S
C393 C396 1.526 . S
C394 H378 0.959 . S
C394 H379 0.959 . S
C394 H380 0.961 . S
C394 C393 1.502 . S
C395 H381 0.960 . S
C395 H382 0.961 . S
C395 H383 0.959 . S
C395 C393 1.561 . S
C396 C393 1.526 . S
C396 C397 1.396 . S
C396 C401 1.390 . S
C397 C391 1.465 . S
C397 C396 1.396 . S
C397 C398 1.399 . S
C398 H384 0.929 . S
C398 C397 1.399 . S
C398 C399 1.385 . S
C399 H385 0.931 . S
C399 C398 1.385 . S
C399 C400 1.389 . S
C400 C399 1.389 . S
C400 C401 1.387 . S
C401 H386 0.930 . S
C401 C396 1.390 . S
C401 C400 1.387 . S
H402 C414 0.930 . S
H403 C416 0.930 . S
H404 C417 0.930 . S
H405 C421 0.959 . S
H406 C421 0.959 . S
H407 C421 0.961 . S
H408 C422 0.960 . S
H409 C422 0.961 . S
H410 C422 0.959 . S
H411 C425 0.929 . S
H412 C426 0.931 . S
H413 C428 0.930 . S
C414 H402 0.930 . S
C414 C415 1.399 . S
C414 C419 1.399 . S
C415 C414 1.399 . S
C415 C416 1.376 . S
C416 H403 0.930 . S
C416 C415 1.376 . S
C416 C417 1.388 . S
C417 H404 0.930 . S
C417 C416 1.388 . S
C417 C418 1.390 . S
C418 C417 1.390 . S
C418 C419 1.394 . S
C418 C424 1.465 . S
C419 C414 1.399 . S
C419 C418 1.394 . S
C419 C420 1.516 . S
C420 C419 1.516 . S
C420 C421 1.502 . S
C420 C422 1.561 . S
C420 C423 1.526 . S
C421 H405 0.959 . S
C421 H406 0.959 . S
C421 H407 0.961 . S
C421 C420 1.502 . S
C422 H408 0.960 . S
C422 H409 0.961 . S
C422 H410 0.959 . S
C422 C420 1.561 . S
C423 C420 1.526 . S
C423 C424 1.396 . S
C423 C428 1.390 . S
C424 C418 1.465 . S
C424 C423 1.396 . S
C424 C425 1.399 . S
C425 H411 0.929 . S
C425 C424 1.399 . S
C425 C426 1.385 . S
C426 H412 0.931 . S
C426 C425 1.385 . S
C426 C427 1.389 . S
C427 C426 1.389 . S
C427 C428 1.387 . S
C428 H413 0.930 . S
C428 C423 1.390 . S
C428 C427 1.387 . S
H429 C441 0.930 . S
H430 C443 0.930 . S
H431 C444 0.930 . S
H432 C448 0.959 . S
H433 C448 0.959 . S
H434 C448 0.961 . S
H435 C449 0.960 . S
H436 C449 0.961 . S
H437 C449 0.959 . S
H438 C452 0.929 . S
H439 C453 0.931 . S
H440 C455 0.930 . S
C441 H429 0.930 . S
C441 C442 1.399 . S
C441 C446 1.399 . S
C442 C441 1.399 . S
C442 C443 1.376 . S
C443 H430 0.930 . S
C443 C442 1.376 . S
C443 C444 1.388 . S
C444 H431 0.930 . S
C444 C443 1.388 . S
C444 C445 1.390 . S
C445 C444 1.390 . S
C445 C446 1.394 . S
C445 C451 1.465 . S
C446 C441 1.399 . S
C446 C445 1.394 . S
C446 C447 1.516 . S
C447 C446 1.516 . S
C447 C448 1.502 . S
C447 C449 1.561 . S
C447 C450 1.526 . S
C448 H432 0.959 . S
C448 H433 0.959 . S
C448 H434 0.961 . S
C448 C447 1.502 . S
C449 H435 0.960 . S
C449 H436 0.961 . S
C449 H437 0.959 . S
C449 C447 1.561 . S
C450 C447 1.526 . S
C450 C451 1.396 . S
C450 C455 1.390 . S
C451 C445 1.465 . S
C451 C450 1.396 . S
C451 C452 1.399 . S
C452 H438 0.929 . S
C452 C451 1.399 . S
C452 C453 1.385 . S
C453 H439 0.931 . S
C453 C452 1.385 . S
C453 C454 1.389 . S
C454 C453 1.389 . S
C454 C455 1.387 . S
C455 H440 0.930 . S
C455 C450 1.390 . S
C455 C454 1.387 . S
H456 C468 0.930 . S
H457 C470 0.930 . S
H458 C471 0.930 . S
H459 C475 0.959 . S
H460 C475 0.959 . S
H461 C475 0.961 . S
H462 C476 0.960 . S
H463 C476 0.961 . S
H464 C476 0.959 . S
H465 C479 0.929 . S
H466 C480 0.931 . S
H467 C482 0.930 . S
C468 H456 0.930 . S
C468 C469 1.399 . S
C468 C473 1.399 . S
C469 C468 1.399 . S
C469 C470 1.376 . S
C470 H457 0.930 . S
C470 C469 1.376 . S
C470 C471 1.388 . S
C471 H458 0.930 . S
C471 C470 1.388 . S
C471 C472 1.390 . S
C472 C471 1.390 . S
C472 C473 1.394 . S
C472 C478 1.465 1_554 S
C473 C468 1.399 . S
C473 C472 1.394 . S
C473 C474 1.516 . S
C474 C473 1.516 . S
C474 C475 1.502 . S
C474 C476 1.561 . S
C474 C477 1.526 1_554 S
C475 H459 0.959 . S
C475 H460 0.959 . S
C475 H461 0.961 . S
C475 C474 1.502 . S
C476 H462 0.960 . S
C476 H463 0.961 . S
C476 H464 0.959 . S
C476 C474 1.561 . S
C477 C474 1.526 1_556 S
C477 C478 1.396 . S
C477 C482 1.390 . S
C478 C472 1.465 1_556 S
C478 C477 1.396 . S
C478 C479 1.399 . S
C479 H465 0.929 . S
C479 C478 1.399 . S
C479 C480 1.385 . S
C480 H466 0.931 . S
C480 C479 1.385 . S
C480 C481 1.389 . S
C481 C480 1.389 . S
C481 C482 1.387 . S
C482 H467 0.930 . S
C482 C477 1.390 . S
C482 C481 1.387 . S
H483 C495 0.930 1_565 S
H484 C497 0.930 . S
H485 C498 0.930 . S
H486 C502 0.959 . S
H487 C502 0.959 . S
H488 C502 0.961 . S
H489 C503 0.960 . S
H490 C503 0.961 . S
H491 C503 0.959 1_545 S
H492 C506 0.929 . S
H493 C507 0.931 . S
H494 C509 0.930 . S
C495 H483 0.930 1_545 S
C495 C496 1.399 . S
C495 C500 1.399 . S
C496 C495 1.399 . S
C496 C497 1.376 . S
C497 H484 0.930 . S
C497 C496 1.376 . S
C497 C498 1.388 . S
C498 H485 0.930 . S
C498 C497 1.388 . S
C498 C499 1.390 . S
C499 C498 1.390 . S
C499 C500 1.394 . S
C499 C505 1.465 . S
C500 C495 1.399 . S
C500 C499 1.394 . S
C500 C501 1.516 . S
C501 C500 1.516 . S
C501 C502 1.502 1_545 S
C501 C503 1.561 1_545 S
C501 C504 1.526 . S
C502 H486 0.959 . S
C502 H487 0.959 . S
C502 H488 0.961 . S
C502 C501 1.502 1_565 S
C503 H489 0.960 . S
C503 H490 0.961 . S
C503 H491 0.959 1_565 S
C503 C501 1.561 1_565 S
C504 C501 1.526 . S
C504 C505 1.396 . S
C504 C509 1.390 . S
C505 C499 1.465 . S
C505 C504 1.396 . S
C505 C506 1.399 . S
C506 H492 0.929 . S
C506 C505 1.399 . S
C506 C507 1.385 . S
C507 H493 0.931 . S
C507 C506 1.385 . S
C507 C508 1.389 . S
C508 C507 1.389 . S
C508 C509 1.387 . S
C509 H494 0.930 . S
C509 C504 1.390 . S
C509 C508 1.387 . S
H510 C522 0.930 . S
H511 C524 0.930 . S
H512 C525 0.930 . S
H513 C529 0.959 . S
H514 C529 0.959 . S
H515 C529 0.961 . S
H516 C530 0.960 . S
H517 C530 0.961 . S
H518 C530 0.959 . S
H519 C533 0.929 . S
H520 C534 0.931 . S
H521 C536 0.930 . S
C522 H510 0.930 . S
C522 C523 1.399 . S
C522 C527 1.399 . S
C523 C522 1.399 . S
C523 C524 1.376 . S
C524 H511 0.930 . S
C524 C523 1.376 . S
C524 C525 1.388 . S
C525 H512 0.930 . S
C525 C524 1.388 . S
C525 C526 1.390 . S
C526 C525 1.390 . S
C526 C527 1.394 . S
C526 C532 1.465 . S
C527 C522 1.399 . S
C527 C526 1.394 . S
C527 C528 1.516 . S
C528 C527 1.516 . S
C528 C529 1.502 . S
C528 C530 1.561 . S
C528 C531 1.526 . S
C529 H513 0.959 . S
C529 H514 0.959 . S
C529 H515 0.961 . S
C529 C528 1.502 . S
C530 H516 0.960 . S
C530 H517 0.961 . S
C530 H518 0.959 . S
C530 C528 1.561 . S
C531 C528 1.526 . S
C531 C532 1.396 . S
C531 C536 1.390 . S
C532 C526 1.465 . S
C532 C531 1.396 . S
C532 C533 1.399 . S
C533 H519 0.929 . S
C533 C532 1.399 . S
C533 C534 1.385 . S
C534 H520 0.931 . S
C534 C533 1.385 . S
C534 C535 1.389 . S
C535 C534 1.389 . S
C535 C536 1.387 . S
C536 H521 0.930 . S
C536 C531 1.390 . S
C536 C535 1.387 . S
H537 C549 0.930 . S
H538 C551 0.930 . S
H539 C552 0.930 . S
H540 C556 0.959 . S
H541 C556 0.959 . S
H542 C556 0.961 . S
H543 C557 0.960 . S
H544 C557 0.961 . S
H545 C557 0.959 . S
H546 C560 0.929 . S
H547 C561 0.931 . S
H548 C563 0.931 . S
C549 H537 0.930 . S
C549 C550 1.399 . S
C549 C554 1.399 . S
C550 C549 1.399 . S
C550 C551 1.376 . S
C551 H538 0.930 . S
C551 C550 1.376 . S
C551 C552 1.388 . S
C552 H539 0.930 . S
C552 C551 1.388 . S
C552 C553 1.390 . S
C553 C552 1.390 . S
C553 C554 1.394 . S
C553 C559 1.465 . S
C554 C549 1.399 . S
C554 C553 1.394 . S
C554 C555 1.516 . S
C555 C554 1.516 . S
C555 C556 1.502 . S
C555 C557 1.561 1_545 S
C555 C558 1.526 . S
C556 H540 0.959 . S
C556 H541 0.959 . S
C556 H542 0.961 . S
C556 C555 1.502 . S
C557 H543 0.960 . S
C557 H544 0.961 . S
C557 H545 0.959 . S
C557 C555 1.561 1_565 S
C558 C555 1.526 . S
C558 C559 1.396 . S
C558 C563 1.390 . S
C559 C553 1.465 . S
C559 C558 1.396 . S
C559 C560 1.399 . S
C560 H546 0.929 . S
C560 C559 1.399 . S
C560 C561 1.385 . S
C561 H547 0.931 . S
C561 C560 1.385 . S
C561 C562 1.389 . S
C562 C561 1.389 . S
C562 C563 1.387 . S
C563 H548 0.931 . S
C563 C558 1.390 . S
C563 C562 1.387 . S
H564 C576 0.930 . S
H565 C578 0.930 . S
H566 C579 0.930 . S
H567 C583 0.959 . S
H568 C583 0.959 . S
H569 C583 0.961 . S
H570 C584 0.960 . S
H571 C584 0.961 . S
H572 C584 0.959 . S
H573 C587 0.929 . S
H574 C588 0.931 . S
H575 C590 0.930 . S
C576 H564 0.930 . S
C576 C577 1.399 . S
C576 C581 1.399 . S
C577 C576 1.399 . S
C577 C578 1.376 . S
C578 H565 0.930 . S
C578 C577 1.376 . S
C578 C579 1.388 . S
C579 H566 0.930 . S
C579 C578 1.388 . S
C579 C580 1.390 . S
C580 C579 1.390 . S
C580 C581 1.394 . S
C580 C586 1.465 1_556 S
C581 C576 1.399 . S
C581 C580 1.394 . S
C581 C582 1.516 . S
C582 C581 1.516 . S
C582 C583 1.502 . S
C582 C584 1.561 . S
C582 C585 1.526 1_556 S
C583 H567 0.959 . S
C583 H568 0.959 . S
C583 H569 0.961 . S
C583 C582 1.502 . S
C584 H570 0.960 . S
C584 H571 0.961 . S
C584 H572 0.959 . S
C584 C582 1.561 . S
C585 C582 1.526 1_554 S
C585 C586 1.396 . S
C585 C590 1.390 . S
C586 C580 1.465 1_554 S
C586 C585 1.396 . S
C586 C587 1.399 . S
C587 H573 0.929 . S
C587 C586 1.399 . S
C587 C588 1.385 . S
C588 H574 0.931 . S
C588 C587 1.385 . S
C588 C589 1.389 . S
C589 C588 1.389 . S
C589 C590 1.387 . S
C590 H575 0.930 . S
C590 C585 1.390 . S
C590 C589 1.387 . S
H591 C603 0.930 . S
H592 C605 0.930 1_655 S
H593 C606 0.930 . S
H594 C610 0.959 . S
H595 C610 0.959 . S
H596 C610 0.961 . S
H597 C611 0.960 . S
H598 C611 0.961 . S
H599 C611 0.959 . S
H600 C614 0.929 . S
H601 C615 0.931 . S
H602 C617 0.930 . S
C603 H591 0.930 . S
C603 C604 1.399 . S
C603 C608 1.399 . S
C604 C603 1.399 . S
C604 C605 1.376 . S
C605 H592 0.930 1_455 S
C605 C604 1.376 . S
C605 C606 1.388 1_455 S
C606 H593 0.930 . S
C606 C605 1.388 1_655 S
C606 C607 1.390 1_655 S
C607 C606 1.390 1_455 S
C607 C608 1.394 . S
C607 C613 1.465 . S
C608 C603 1.399 . S
C608 C607 1.394 . S
C608 C609 1.516 . S
C609 C608 1.516 . S
C609 C610 1.502 . S
C609 C611 1.561 . S
C609 C612 1.526 . S
C610 H594 0.959 . S
C610 H595 0.959 . S
C610 H596 0.961 . S
C610 C609 1.502 . S
C611 H597 0.960 . S
C611 H598 0.961 . S
C611 H599 0.959 . S
C611 C609 1.561 . S
C612 C609 1.526 . S
C612 C613 1.396 . S
C612 C617 1.390 . S
C613 C607 1.465 . S
C613 C612 1.396 . S
C613 C614 1.399 1_455 S
C614 H600 0.929 . S
C614 C613 1.399 1_655 S
C614 C615 1.385 . S
C615 H601 0.931 . S
C615 C614 1.385 . S
C615 C616 1.389 1_655 S
C616 C615 1.389 1_455 S
C616 C617 1.387 . S
C617 H602 0.930 . S
C617 C612 1.390 . S
C617 C616 1.387 . S
C145 C8 2.175 . S
C157 C126 2.281 . S
C172 C26 1.411 . S
C184 C100 1.413 . S
C199 C48 1.531 . S
C211 C112 1.552 . S
C226 C19 1.602 . S
C238 C124 1.592 . S
C265 C102 1.360 . S
C253 C36 1.371 . S
C292 C114 1.565 . S
C280 C59 1.535 . S
C307 C28 1.548 . S
C319 C76 1.554 . S
C334 C46 1.390 . S
C346 C90 1.447 1_655 S
C361 C16 1.386 . S
C373 C66 1.384 1_565 S
C400 C78 1.557 . S
C388 C39 1.541 . S
C427 C88 0.746 . S
C415 C56 0.816 . S
C442 C6 1.434 . S
C454 C64 1.408 . S
C481 C93 1.475 . S
C469 C9 1.471 . S
C496 C21 1.544 . S
C508 C69 1.551 . S
C523 C49 1.460 . S
C535 C81 1.456 . S
C562 C117 1.493 . S
C550 C29 1.493 . S
C589 C129 1.610 . S
C577 C41 1.595 . S
C604 C1 1.511 . S
C616 C105 1.517 . S
