# Generated by pormake.
# Topology pyr, (3,6)-cn, num edge types: 1
# Building blocks:
#     Node 0, Type 0, BuildingBlock: VETTIZ_charged_linker_0, # of connection points: 3
#     Node 1, Type 0, BuildingBlock: VETTIZ_charged_linker_0, # of connection points: 3
#     Node 2, Type 0, BuildingBlock: VETTIZ_charged_linker_0, # of connection points: 3
#     Node 3, Type 0, BuildingBlock: VETTIZ_charged_linker_0, # of connection points: 3
#     Node 4, Type 0, BuildingBlock: VETTIZ_charged_linker_0, # of connection points: 3
#     Node 5, Type 0, BuildingBlock: VETTIZ_charged_linker_0, # of connection points: 3
#     Node 6, Type 0, BuildingBlock: VETTIZ_charged_linker_0, # of connection points: 3
#     Node 7, Type 0, BuildingBlock: VETTIZ_charged_linker_0, # of connection points: 3
#     Node 8, Type 1, BuildingBlock: JUFBIX_clean_sbu_0, # of connection points: 6
#     Node 9, Type 1, BuildingBlock: JUFBIX_clean_sbu_0, # of connection points: 6
#     Node 10, Type 1, BuildingBlock: JUFBIX_clean_sbu_0, # of connection points: 6
#     Node 11, Type 1, BuildingBlock: JUFBIX_clean_sbu_0, # of connection points: 6
#     Edge 12, Type (0, 1), BuildingBlock: XIVTED_clean_linker_0, # of connection points: 2
#     Edge 13, Type (0, 1), BuildingBlock: XIVTED_clean_linker_0, # of connection points: 2
#     Edge 14, Type (0, 1), BuildingBlock: XIVTED_clean_linker_0, # of connection points: 2
#     Edge 15, Type (0, 1), BuildingBlock: XIVTED_clean_linker_0, # of connection points: 2
#     Edge 16, Type (0, 1), BuildingBlock: XIVTED_clean_linker_0, # of connection points: 2
#     Edge 17, Type (0, 1), BuildingBlock: XIVTED_clean_linker_0, # of connection points: 2
#     Edge 18, Type (0, 1), BuildingBlock: XIVTED_clean_linker_0, # of connection points: 2
#     Edge 19, Type (0, 1), BuildingBlock: XIVTED_clean_linker_0, # of connection points: 2
#     Edge 20, Type (0, 1), BuildingBlock: XIVTED_clean_linker_0, # of connection points: 2
#     Edge 21, Type (0, 1), BuildingBlock: XIVTED_clean_linker_0, # of connection points: 2
#     Edge 22, Type (0, 1), BuildingBlock: XIVTED_clean_linker_0, # of connection points: 2
#     Edge 23, Type (0, 1), BuildingBlock: XIVTED_clean_linker_0, # of connection points: 2
#     Edge 24, Type (0, 1), BuildingBlock: XIVTED_clean_linker_0, # of connection points: 2
#     Edge 25, Type (0, 1), BuildingBlock: XIVTED_clean_linker_0, # of connection points: 2
#     Edge 26, Type (0, 1), BuildingBlock: XIVTED_clean_linker_0, # of connection points: 2
#     Edge 27, Type (0, 1), BuildingBlock: XIVTED_clean_linker_0, # of connection points: 2
#     Edge 28, Type (0, 1), BuildingBlock: XIVTED_clean_linker_0, # of connection points: 2
#     Edge 29, Type (0, 1), BuildingBlock: XIVTED_clean_linker_0, # of connection points: 2
#     Edge 30, Type (0, 1), BuildingBlock: XIVTED_clean_linker_0, # of connection points: 2
#     Edge 31, Type (0, 1), BuildingBlock: XIVTED_clean_linker_0, # of connection points: 2
#     Edge 32, Type (0, 1), BuildingBlock: XIVTED_clean_linker_0, # of connection points: 2
#     Edge 33, Type (0, 1), BuildingBlock: XIVTED_clean_linker_0, # of connection points: 2
#     Edge 34, Type (0, 1), BuildingBlock: XIVTED_clean_linker_0, # of connection points: 2
#     Edge 35, Type (0, 1), BuildingBlock: XIVTED_clean_linker_0, # of connection points: 2
# Relax obj value: 0.046
# Max RMSD: 0.093
# Mean RMSD: 0.031
data_MOF--net-pry--node1-JUFBIX_clean_sbu_0--node2-VETTIZ_charged_linker_0--edge1-XIVTED_clean_linker_0
_symmetry_space_group_name_H-M    P1
_symmetry_Int_Tables_number       1
_symmetry_cell_setting            triclinic
loop_
_symmetry_equiv_pos_as_xyz
'x, y, z'
_cell_length_a     45.917605
_cell_length_b     43.749001
_cell_length_c     45.929927
_cell_angle_alpha  85.419212
_cell_angle_beta   89.890415
_cell_angle_gamma 91.356982
loop_
_atom_site_label
_atom_site_type_symbol
_atom_site_fract_x
_atom_site_fract_y
_atom_site_fract_z
_atom_type_partial_charge
C0 C 0.15882 0.10294 0.26247 0.0
C1 C 0.13301 0.11199 0.27585 0.0
C2 C 0.11837 0.13758 0.26287 0.0
C3 C 0.15406 0.14395 0.22368 0.0
C4 C 0.1688 0.11911 0.23636 0.0
C5 C 0.1952 0.11219 0.2185 0.0
H6 H 0.27969 0.14541 0.09723 0.0
C7 C 0.16959 0.15549 0.19649 0.0
C8 C 0.19379 0.13695 0.1932 0.0
H9 H 0.29139 0.07358 0.16617 0.0
H10 H 0.24897 0.09003 0.19125 0.0
H11 H 0.26497 0.19733 0.13948 0.0
H12 H 0.20843 0.13788 0.09329 0.0
H13 H 0.19527 0.17543 0.08869 0.0
H14 H 0.23093 0.16768 0.07508 0.0
H15 H 0.25953 0.20319 0.10077 0.0
H16 H 0.23539 0.21907 0.12639 0.0
C17 C 0.22263 0.11624 0.23747 0.0
C18 C 0.19093 0.07962 0.20808 0.0
C19 C 0.13034 0.24769 0.13514 0.0
C20 C 0.13987 0.2645 0.10922 0.0
C21 C 0.16533 0.25495 0.0955 0.0
C22 C 0.1808 0.22946 0.10722 0.0
C23 C 0.17099 0.21312 0.13315 0.0
C24 C 0.14618 0.22245 0.14668 0.0
C25 C 0.13917 0.2028 0.17434 0.0
C26 C 0.16385 0.18016 0.17528 0.0
C27 C 0.18239 0.18614 0.15101 0.0
C28 C 0.14069 0.22353 0.20017 0.0
C29 C 0.10913 0.18675 0.17041 0.0
C30 C 0.27298 0.133 0.11757 0.0
C31 C 0.2891 0.10803 0.12957 0.0
C32 C 0.27972 0.09304 0.15646 0.0
C33 C 0.2549 0.10253 0.17098 0.0
C34 C 0.23905 0.12747 0.15869 0.0
C35 C 0.2483 0.14234 0.13246 0.0
C36 C 0.22924 0.16888 0.12296 0.0
C37 C 0.20682 0.16724 0.1475 0.0
C38 C 0.21258 0.14284 0.16845 0.0
C39 C 0.24811 0.19878 0.12208 0.0
C40 C 0.21526 0.16245 0.09335 0.0
H41 H 0.1163 0.17263 0.22849 0.0
H42 H 0.17056 0.08331 0.2717 0.0
H43 H 0.16787 0.07551 0.20175 0.0
H44 H 0.20383 0.07602 0.18842 0.0
H45 H 0.19644 0.06179 0.22566 0.0
H46 H 0.22044 0.13617 0.25086 0.0
H47 H 0.226 0.09558 0.25265 0.0
H48 H 0.24259 0.12126 0.22437 0.0
H49 H 0.11076 0.25381 0.14625 0.0
H50 H 0.17371 0.2675 0.07588 0.0
H51 H 0.19995 0.22358 0.09569 0.0
H52 H 0.15797 0.2417 0.19641 0.0
H53 H 0.11973 0.2351 0.20302 0.0
H54 H 0.14667 0.21096 0.22103 0.0
H55 H 0.10611 0.1809 0.14745 0.0
H56 H 0.10669 0.16461 0.18362 0.0
H57 H 0.09106 0.20181 0.17575 0.0
H58 H 0.0988 0.14548 0.2728 0.0
C59 C 0.12868 0.15349 0.23708 0.0
C60 C 0.33377 0.92707 0.55214 0.0
C61 C 0.32549 0.95634 0.55925 0.0
C62 C 0.34521 0.97428 0.57456 0.0
C63 C 0.37739 0.93142 0.58128 0.0
C64 C 0.35981 0.91504 0.56342 0.0
C65 C 0.37053 0.88307 0.56092 0.0
H66 H 0.45402 0.7668 0.615 0.0
C67 C 0.3992 0.91051 0.59461 0.0
C68 C 0.39561 0.88223 0.58256 0.0
H69 H 0.39965 0.77037 0.53815 0.0
H70 H 0.38773 0.82273 0.5452 0.0
H71 H 0.48458 0.83353 0.60042 0.0
H72 H 0.41102 0.80381 0.65473 0.0
H73 H 0.42995 0.83212 0.67258 0.0
H74 H 0.44779 0.79693 0.66617 0.0
H75 H 0.48791 0.80966 0.63388 0.0
H76 H 0.4876 0.85084 0.63368 0.0
C77 C 0.3812 0.88063 0.52912 0.0
C78 C 0.34577 0.85983 0.57077 0.0
C79 C 0.45102 0.94126 0.68513 0.0
C80 C 0.46508 0.92419 0.70794 0.0
C81 C 0.47311 0.8939 0.70381 0.0
C82 C 0.46522 0.8802 0.67825 0.0
C83 C 0.44883 0.89682 0.6568 0.0
C84 C 0.44254 0.92705 0.66024 0.0
C85 C 0.42292 0.94058 0.63674 0.0
C86 C 0.4179 0.91325 0.61887 0.0
C87 C 0.43339 0.8878 0.63047 0.0
C88 C 0.44015 0.96665 0.61901 0.0
C89 C 0.39447 0.95101 0.65121 0.0
C90 C 0.43921 0.77882 0.60001 0.0
C91 C 0.4275 0.76456 0.57615 0.0
C92 C 0.40886 0.78102 0.55666 0.0
C93 C 0.40204 0.81137 0.56073 0.0
C94 C 0.414 0.82545 0.58452 0.0
C95 C 0.4325 0.80939 0.60352 0.0
C96 C 0.44429 0.82884 0.62662 0.0
C97 C 0.43051 0.85939 0.61767 0.0
C98 C 0.41222 0.85692 0.59347 0.0
C99 C 0.47789 0.83081 0.6238 0.0
C100 C 0.43297 0.81478 0.6567 0.0
H101 H 0.38462 0.97616 0.59824 0.0
H102 H 0.3192 0.91288 0.54017 0.0
H103 H 0.33581 0.86603 0.59153 0.0
H104 H 0.3533 0.83617 0.57505 0.0
H105 H 0.32834 0.85961 0.55405 0.0
H106 H 0.3857 0.90358 0.51754 0.0
H107 H 0.36472 0.86872 0.51612 0.0
H108 H 0.40212 0.86857 0.52834 0.0
H109 H 0.4449 0.96472 0.68741 0.0
H110 H 0.48395 0.88017 0.72101 0.0
H111 H 0.47107 0.85677 0.67675 0.0
H112 H 0.46292 0.95979 0.6151 0.0
H113 H 0.44114 0.98775 0.63096 0.0
H114 H 0.4309 0.97224 0.59709 0.0
H115 H 0.39195 0.94125 0.67421 0.0
H116 H 0.37455 0.94298 0.64034 0.0
H117 H 0.39402 0.97635 0.65147 0.0
H118 H 0.33971 0.99724 0.57956 0.0
C119 C 0.37118 0.96199 0.58552 0.0
C120 C 0.64724 0.26135 0.89857 0.0
C121 C 0.62056 0.24909 0.88904 0.0
C122 C 0.60667 0.26419 0.86476 0.0
C123 C 0.64607 0.30212 0.85944 0.0
C124 C 0.65949 0.28779 0.88354 0.0
C125 C 0.6876 0.30392 0.89079 0.0
H126 H 0.7864 0.41984 0.86012 0.0
C127 C 0.66475 0.32856 0.84837 0.0
C128 C 0.68911 0.32983 0.86664 0.0
H129 H 0.78583 0.35004 0.93236 0.0
H130 H 0.74171 0.3277 0.91438 0.0
H131 H 0.7165 0.43252 0.86113 0.0
H132 H 0.76724 0.37349 0.81085 0.0
H133 H 0.74065 0.39061 0.78786 0.0
H134 H 0.76823 0.41442 0.80342 0.0
H135 H 0.74278 0.44707 0.83415 0.0
H136 H 0.70607 0.43733 0.82415 0.0
C137 C 0.68425 0.31604 0.92141 0.0
C138 C 0.7127 0.28121 0.88832 0.0
C139 C 0.63427 0.39264 0.75716 0.0
C140 C 0.64757 0.41694 0.73962 0.0
C141 C 0.67488 0.42859 0.74841 0.0
C142 C 0.6886 0.41613 0.7739 0.0
C143 C 0.67506 0.39156 0.79084 0.0
C144 C 0.64842 0.38018 0.78214 0.0
C145 C 0.63764 0.35316 0.80176 0.0
C146 C 0.66205 0.35023 0.82389 0.0
C147 C 0.68386 0.37293 0.81769 0.0
C148 C 0.60862 0.36185 0.81591 0.0
C149 C 0.63533 0.32496 0.78334 0.0
C150 C 0.77687 0.3996 0.8719 0.0
C151 C 0.7896 0.38691 0.89791 0.0
C152 C 0.77629 0.36066 0.91262 0.0
C153 C 0.75066 0.3476 0.90207 0.0
C154 C 0.73792 0.36082 0.87645 0.0
C155 C 0.75104 0.38632 0.86169 0.0
C156 C 0.7341 0.39725 0.83489 0.0
C157 C 0.70844 0.37452 0.83642 0.0
C158 C 0.71094 0.35314 0.86078 0.0
C159 C 0.72438 0.43037 0.83848 0.0
C160 C 0.75346 0.39407 0.80771 0.0
H161 H 0.60751 0.30075 0.83168 0.0
H162 H 0.65864 0.25038 0.91704 0.0
H163 H 0.70931 0.26734 0.86928 0.0
H164 H 0.73415 0.29277 0.88451 0.0
H165 H 0.71392 0.26508 0.90819 0.0
H166 H 0.66127 0.32193 0.92568 0.0
H167 H 0.69076 0.29859 0.93893 0.0
H168 H 0.6968 0.33757 0.92369 0.0
H169 H 0.61313 0.38328 0.75171 0.0
H170 H 0.68599 0.44698 0.73532 0.0
H171 H 0.70935 0.42592 0.7793 0.0
H172 H 0.60908 0.38643 0.82058 0.0
H173 H 0.58988 0.3582 0.80122 0.0
H174 H 0.60435 0.3491 0.83729 0.0
H175 H 0.6523 0.32623 0.76592 0.0
H176 H 0.6392 0.30304 0.79623 0.0
H177 H 0.61377 0.32361 0.77252 0.0
H178 H 0.58583 0.25583 0.85727 0.0
C179 C 0.61924 0.2905 0.84998 0.0
C180 C 0.98459 0.71244 0.43789 0.0
C181 C 0.97475 0.72774 0.46166 0.0
C182 C 0.95231 0.71406 0.47961 0.0
C183 C 0.94801 0.67209 0.44833 0.0
C184 C 0.97109 0.68471 0.43175 0.0
C185 C 0.97822 0.66623 0.40659 0.0
H186 H 0.94144 0.55117 0.32342 0.0
C187 C 0.93751 0.64432 0.43486 0.0
C188 C 0.95556 0.64046 0.41072 0.0
H189 H 0.01192 0.618 0.30928 0.0
H190 H 1.00079 0.63865 0.3552 0.0
H191 H 0.95216 0.53428 0.39137 0.0
H192 H 0.89655 0.59759 0.34343 0.0
H193 H 0.87558 0.57968 0.37207 0.0
H194 H 0.89089 0.55674 0.34541 0.0
H195 H 0.91837 0.52206 0.37603 0.0
H196 H 0.92026 0.535 0.41241 0.0
C197 C 1.00956 0.65434 0.41081 0.0
C198 C 0.97356 0.68669 0.37789 0.0
C199 C 0.84012 0.59352 0.46541 0.0
C200 C 0.82397 0.56948 0.45404 0.0
C201 C 0.83752 0.55105 0.43447 0.0
C202 C 0.86582 0.55797 0.42442 0.0
C203 C 0.88063 0.58388 0.43365 0.0
C204 C 0.86846 0.60034 0.45486 0.0
C205 C 0.88812 0.62664 0.46245 0.0
C206 C 0.91308 0.62422 0.44093 0.0
C207 C 0.90819 0.59941 0.42386 0.0
C208 C 0.89813 0.62042 0.49453 0.0
C209 C 0.87142 0.65681 0.45641 0.0
C210 C 0.95495 0.56979 0.33049 0.0
C211 C 0.9776 0.58295 0.31271 0.0
C212 C 0.99417 0.60765 0.32247 0.0
C213 C 0.98767 0.61957 0.34915 0.0
C214 C 0.96409 0.60694 0.36605 0.0
C215 C 0.94854 0.58213 0.35681 0.0
C216 C 0.92345 0.57239 0.3767 0.0
C217 C 0.92649 0.59541 0.39958 0.0
C218 C 0.95016 0.61571 0.39314 0.0
C219 C 0.92852 0.53915 0.38975 0.0
C220 C 0.89503 0.57653 0.35869 0.0
H221 H 0.92146 0.67734 0.48706 0.0
H222 H 1.00206 0.72221 0.42396 0.0
H223 H 0.95473 0.70194 0.37998 0.0
H224 H 0.96813 0.67347 0.35909 0.0
H225 H 0.99306 0.70154 0.37235 0.0
H226 H 0.01428 0.64872 0.43436 0.0
H227 H 0.02597 0.67187 0.40225 0.0
H228 H 0.01301 0.63278 0.40043 0.0
H229 H 0.83027 0.60787 0.48067 0.0
H230 H 0.8257 0.53199 0.42597 0.0
H231 H 0.87451 0.5437 0.40876 0.0
H232 H 0.89835 0.5954 0.50117 0.0
H233 H 0.88338 0.63109 0.5098 0.0
H234 H 0.92076 0.62861 0.49791 0.0
H235 H 0.86036 0.65723 0.43485 0.0
H236 H 0.88564 0.67749 0.45546 0.0
H237 H 0.8545 0.65906 0.47338 0.0
H238 H 0.94431 0.72549 0.498 0.0
C239 C 0.93892 0.68627 0.47309 0.0
C240 C 0.868 0.75661 0.90661 0.0
C241 C 0.89375 0.74338 0.89701 0.0
C242 C 0.90802 0.75751 0.87199 0.0
C243 C 0.87081 0.79593 0.86589 0.0
C244 C 0.85701 0.78282 0.89078 0.0
C245 C 0.82991 0.79984 0.89764 0.0
H246 H 0.74105 0.92063 0.86686 0.0
C247 C 0.85378 0.82256 0.85418 0.0
C248 C 0.82982 0.82518 0.8728 0.0
H249 H 0.73189 0.84828 0.93613 0.0
H250 H 0.7749 0.82421 0.91903 0.0
H251 H 0.75486 0.87417 0.81774 0.0
H252 H 0.81301 0.92867 0.86751 0.0
H253 H 0.82314 0.93305 0.83029 0.0
H254 H 0.78785 0.94523 0.84116 0.0
H255 H 0.75889 0.91493 0.8101 0.0
H256 H 0.78313 0.88873 0.79446 0.0
C257 C 0.80332 0.77756 0.89613 0.0
C258 C 0.83421 0.81286 0.92772 0.0
C259 C 0.88677 0.88239 0.75965 0.0
C260 C 0.87588 0.90789 0.74275 0.0
C261 C 0.85066 0.92176 0.75282 0.0
C262 C 0.83671 0.91054 0.77901 0.0
C263 C 0.84786 0.88495 0.7955 0.0
C264 C 0.87252 0.87138 0.78565 0.0
C265 C 0.8814 0.84437 0.80575 0.0
C266 C 0.85782 0.84357 0.8291 0.0
C267 C 0.83819 0.86746 0.82315 0.0
C268 C 0.87989 0.81545 0.78835 0.0
C269 C 0.91195 0.85171 0.81818 0.0
C270 C 0.74855 0.89975 0.87841 0.0
C271 C 0.73327 0.8865 0.9031 0.0
C272 C 0.7433 0.85892 0.91713 0.0
C273 C 0.76835 0.84504 0.9072 0.0
C274 C 0.78353 0.85856 0.88264 0.0
C275 C 0.77328 0.8852 0.86834 0.0
C276 C 0.79107 0.89504 0.84139 0.0
C277 C 0.81424 0.87063 0.84246 0.0
C278 C 0.80987 0.84942 0.86691 0.0
C279 C 0.77109 0.89343 0.81439 0.0
C280 C 0.80444 0.92729 0.84499 0.0
H281 H 0.90871 0.79268 0.83759 0.0
H282 H 0.85632 0.74651 0.92563 0.0
H283 H 0.85671 0.82247 0.92968 0.0
H284 H 0.81972 0.83198 0.93124 0.0
H285 H 0.83082 0.79464 0.94576 0.0
H286 H 0.8066 0.76121 0.87914 0.0
H287 H 0.79972 0.76389 0.91732 0.0
H288 H 0.78308 0.78944 0.88969 0.0
H289 H 0.90582 0.87081 0.75261 0.0
H290 H 0.84188 0.94165 0.74063 0.0
H291 H 0.8178 0.9223 0.78548 0.0
H292 H 0.86058 0.816 0.77372 0.0
H293 H 0.89958 0.81402 0.77449 0.0
H294 H 0.87724 0.79391 0.80241 0.0
H295 H 0.91534 0.87679 0.81974 0.0
H296 H 0.91493 0.84151 0.84076 0.0
H297 H 0.92953 0.84394 0.80407 0.0
H298 H 0.92823 0.74862 0.86437 0.0
C299 C 0.89674 0.78343 0.85647 0.0
C300 C 0.69478 0.09859 0.44405 0.0
C301 C 0.70393 0.07016 0.43563 0.0
C302 C 0.68495 0.05254 0.41919 0.0
C303 C 0.6502 0.09335 0.41643 0.0
C304 C 0.6679 0.10971 0.43421 0.0
C305 C 0.6558 0.14049 0.43924 0.0
H306 H 0.55148 0.24514 0.41222 0.0
C307 C 0.62543 0.11268 0.4073 0.0
C308 C 0.62831 0.14013 0.42094 0.0
H309 H 0.62934 0.25232 0.46479 0.0
H310 H 0.64218 0.20156 0.45474 0.0
H311 H 0.53428 0.17163 0.42893 0.0
H312 H 0.58383 0.22241 0.36121 0.0
H313 H 0.57142 0.18925 0.34559 0.0
H314 H 0.54539 0.21591 0.35764 0.0
H315 H 0.51946 0.19847 0.40154 0.0
H316 H 0.52415 0.15896 0.39465 0.0
C317 C 0.64887 0.1408 0.47223 0.0
C318 C 0.67804 0.1657 0.42725 0.0
C319 C 0.56113 0.08225 0.3246 0.0
C320 C 0.54034 0.09836 0.30749 0.0
C321 C 0.52942 0.12572 0.31702 0.0
C322 C 0.54041 0.13779 0.34229 0.0
C323 C 0.56296 0.12268 0.35779 0.0
C324 C 0.5724 0.09495 0.3493 0.0
C325 C 0.59786 0.08314 0.36699 0.0
C326 C 0.60278 0.10884 0.38685 0.0
C327 C 0.58227 0.1319 0.38143 0.0
C328 C 0.58824 0.05273 0.38434 0.0
C329 C 0.62388 0.08024 0.34583 0.0
C330 C 0.57142 0.23607 0.42151 0.0
C331 C 0.58901 0.25309 0.43985 0.0
C332 C 0.61469 0.23977 0.45139 0.0
C333 C 0.62239 0.2102 0.44528 0.0
C334 C 0.60469 0.19376 0.42683 0.0
C335 C 0.57987 0.20684 0.41499 0.0
C336 C 0.56514 0.18699 0.39381 0.0
C337 C 0.58453 0.15926 0.39603 0.0
C338 C 0.60755 0.16337 0.4155 0.0
C339 C 0.53399 0.17858 0.4051 0.0
C340 C 0.56624 0.20441 0.36297 0.0
H341 H 0.64497 0.04979 0.39658 0.0
H342 H 0.70893 0.11272 0.45657 0.0
H343 H 0.69035 0.1582 0.40828 0.0
H344 H 0.6676 0.18705 0.4187 0.0
H345 H 0.69416 0.17117 0.44419 0.0
H346 H 0.63994 0.1181 0.48119 0.0
H347 H 0.6688 0.14591 0.4848 0.0
H348 H 0.63197 0.15729 0.47687 0.0
H349 H 0.57029 0.06146 0.31754 0.0
H350 H 0.51323 0.13838 0.30424 0.0
H351 H 0.5318 0.15906 0.34812 0.0
H352 H 0.56456 0.05247 0.38961 0.0
H353 H 0.59232 0.03268 0.37166 0.0
H354 H 0.5991 0.04943 0.40581 0.0
H355 H 0.62462 0.09977 0.32874 0.0
H356 H 0.6453 0.08101 0.35652 0.0
H357 H 0.62198 0.05872 0.3346 0.0
H358 H 0.69132 0.03029 0.41292 0.0
C359 C 0.65807 0.0639 0.40972 0.0
C360 C 0.38675 0.61827 0.2673 0.0
C361 C 0.37459 0.59223 0.28316 0.0
C362 C 0.3481 0.5796 0.27339 0.0
C363 C 0.34726 0.6181 0.23215 0.0
C364 C 0.37295 0.63061 0.24208 0.0
C365 C 0.38371 0.65788 0.22285 0.0
H366 H 0.36683 0.7575 0.10453 0.0
C367 C 0.33917 0.63624 0.20477 0.0
C368 C 0.36061 0.65947 0.19931 0.0
H369 H 0.43546 0.75573 0.16909 0.0
H370 H 0.41359 0.71071 0.19412 0.0
H371 H 0.31255 0.73827 0.15022 0.0
H372 H 0.36722 0.68741 0.09632 0.0
H373 H 0.3334 0.6678 0.0983 0.0
H374 H 0.33577 0.70668 0.08175 0.0
H375 H 0.31269 0.74235 0.11098 0.0
H376 H 0.29055 0.7133 0.13081 0.0
C377 C 0.38352 0.68629 0.24103 0.0
C378 C 0.41401 0.65039 0.21058 0.0
C379 C 0.24718 0.60934 0.14902 0.0
C380 C 0.23563 0.62056 0.1218 0.0
C381 C 0.25118 0.6445 0.10554 0.0
C382 C 0.27681 0.65742 0.11628 0.0
C383 C 0.2877 0.64615 0.14345 0.0
C384 C 0.2733 0.62209 0.15911 0.0
C385 C 0.28952 0.61156 0.18651 0.0
C386 C 0.31557 0.63378 0.18495 0.0
C387 C 0.31411 0.65428 0.15981 0.0
C388 C 0.26981 0.61588 0.21313 0.0
C389 C 0.29872 0.57804 0.18396 0.0
C390 C 0.37726 0.7473 0.12395 0.0
C391 C 0.4028 0.76066 0.13498 0.0
C392 C 0.41547 0.74653 0.16041 0.0
C393 C 0.40281 0.72014 0.17488 0.0
C394 C 0.37714 0.70737 0.16387 0.0
C395 C 0.36489 0.72075 0.13869 0.0
C396 C 0.33788 0.70346 0.13 0.0
C397 C 0.33566 0.678 0.15457 0.0
C398 C 0.35873 0.68051 0.17426 0.0
C399 C 0.31192 0.72537 0.1303 0.0
C400 C 0.34358 0.69077 0.09998 0.0
H401 H 0.31436 0.5817 0.24164 0.0
H402 H 0.40667 0.62911 0.27442 0.0
H403 H 0.4153 0.6256 0.20699 0.0
H404 H 0.41868 0.66239 0.18893 0.0
H405 H 0.43169 0.6559 0.22591 0.0
H406 H 0.36524 0.68457 0.25707 0.0
H407 H 0.40409 0.68845 0.25347 0.0
H408 H 0.37993 0.70795 0.22761 0.0
H409 H 0.23623 0.59109 0.16241 0.0
H410 H 0.24395 0.65313 0.08411 0.0
H411 H 0.28732 0.67558 0.10281 0.0
H412 H 0.25865 0.63822 0.21028 0.0
H413 H 0.25276 0.59741 0.21584 0.0
H414 H 0.28209 0.61644 0.23371 0.0
H415 H 0.30435 0.57419 0.16098 0.0
H416 H 0.31853 0.57212 0.19655 0.0
H417 H 0.28083 0.56157 0.19105 0.0
H418 H 0.33822 0.55949 0.28507 0.0
C419 C 0.33438 0.59239 0.24802 0.0
C420 C 0.03687 0.28889 0.58347 0.0
C421 C 0.04472 0.27447 0.55843 0.0
C422 C 0.06611 0.28856 0.53943 0.0
C423 C 0.07344 0.32901 0.57196 0.0
C424 C 0.05135 0.31609 0.58971 0.0
C425 C 0.04639 0.3337 0.61601 0.0
H426 H 0.09006 0.44672 0.69921 0.0
C427 C 0.08552 0.35593 0.5857 0.0
C428 C 0.06938 0.35911 0.61127 0.0
H429 H 0.01893 0.38112 0.71603 0.0
H430 H 0.02794 0.36013 0.66979 0.0
H431 H 0.07632 0.46401 0.63203 0.0
H432 H 0.1334 0.39949 0.67644 0.0
H433 H 0.1529 0.41685 0.64647 0.0
H434 H 0.14013 0.44018 0.67417 0.0
H435 H 0.11057 0.47567 0.64685 0.0
H436 H 0.10769 0.46384 0.61012 0.0
C437 C 0.01515 0.3463 0.61432 0.0
C438 C 0.05245 0.31216 0.64369 0.0
C439 C 0.18029 0.40736 0.54807 0.0
C440 C 0.1978 0.43107 0.55832 0.0
C441 C 0.18686 0.4481 0.58055 0.0
C442 C 0.15987 0.44043 0.59363 0.0
C443 C 0.14365 0.41527 0.58467 0.0
C444 C 0.15332 0.3999 0.56151 0.0
C445 C 0.13267 0.37418 0.55467 0.0
C446 C 0.10987 0.37578 0.57854 0.0
C447 C 0.11673 0.39963 0.59622 0.0
C448 C 0.11986 0.38184 0.52383 0.0
C449 C 0.14946 0.34381 0.55797 0.0
C450 C 0.07603 0.42821 0.69273 0.0
C451 C 0.0537 0.41563 0.71125 0.0
C452 C 0.03644 0.39104 0.70224 0.0
C453 C 0.04166 0.37897 0.67536 0.0
C454 C 0.06461 0.39136 0.65743 0.0
C455 C 0.0811 0.41578 0.66616 0.0
C456 C 0.10515 0.42551 0.645 0.0
C457 C 0.10027 0.40308 0.62187 0.0
C458 C 0.07665 0.38301 0.62932 0.0
C459 C 0.09998 0.45906 0.6329 0.0
C460 C 0.13453 0.42055 0.66115 0.0
H461 H 0.09705 0.325 0.53115 0.0
H462 H 0.02023 0.27882 0.59827 0.0
H463 H 0.07109 0.29712 0.63998 0.0
H464 H 0.05884 0.32458 0.66274 0.0
H465 H 0.0332 0.2971 0.64968 0.0
H466 H 1.0089 0.3527 0.59127 0.0
H467 H 0.99895 0.3289 0.62356 0.0
H468 H 0.01299 0.36758 0.62549 0.0
H469 H 0.18785 0.39425 0.53063 0.0
H470 H 0.19986 0.46635 0.58901 0.0
H471 H 0.15324 0.45367 0.61105 0.0
H472 H 0.11952 0.40704 0.51819 0.0
H473 H 0.13291 0.3717 0.5068 0.0
H474 H 0.09686 0.37406 0.52223 0.0
H475 H 0.16273 0.34261 0.57826 0.0
H476 H 0.13511 0.32321 0.55984 0.0
H477 H 0.16447 0.34206 0.53921 0.0
H478 H 0.07265 0.27782 0.52007 0.0
C479 C 0.08046 0.31578 0.54603 0.0
Co480 Co 0.99056 1.00365 0.49772 0.0
C481 C 0.01574 0.94554 0.4983 0.0
Co482 Co 0.03184 0.99847 0.52163 0.0
C483 C 0.93108 0.01724 0.48043 0.0
C484 C 0.95463 0.99356 0.4492 0.0
N485 N 0.95723 0.0052 0.4754 0.0
N486 N 0.91231 0.01361 0.45825 0.0
C487 C 0.92715 0.99862 0.43866 0.0
H488 H 0.9261 0.02871 0.4998 0.0
H489 H 0.97169 0.98199 0.43846 0.0
C490 C 1.00665 0.05648 0.52132 0.0
N491 N 0.06541 0.99692 0.54353 0.0
C492 C 0.09222 0.98826 0.53602 0.0
C493 C 0.06846 0.00672 0.57045 0.0
N494 N 0.112 0.99246 0.55719 0.0
C495 C 0.09698 1.00404 0.57889 0.0
C496 C 0.04041 0.01905 0.46331 0.0
O497 O 0.98678 0.04535 0.5058 0.0
O498 O 0.02764 0.0398 0.53011 0.0
O499 O 0.05407 0.01208 0.48692 0.0
O500 O 0.01278 0.01674 0.46357 0.0
O501 O 0.03583 0.9569 0.51337 0.0
H502 H 0.05118 0.01609 0.58281 0.0
H503 H 0.09707 0.97941 0.51527 0.0
O504 O 0.99464 0.9621 0.48965 0.0
O505 O 0.96828 0.99053 0.53233 0.0
O506 O 1.00953 0.98503 0.55581 0.0
C507 C 0.98183 0.98323 0.55596 0.0
H508 H 0.91866 0.99132 0.41831 0.0
H509 H 0.10602 0.01116 0.59907 0.0
Co510 Co 0.49924 1.00011 0.9913 0.0
C511 C 0.49397 0.95283 0.03547 0.0
Co512 Co 0.52476 0.00802 0.0306 0.0
C513 C 0.48734 0.9911 0.931 0.0
C514 C 0.4491 0.98517 0.95781 0.0
N515 N 0.47779 0.99235 0.95867 0.0
N516 N 0.46574 0.98338 0.91292 0.0
C517 C 0.44161 0.97974 0.9297 0.0
H518 H 0.50974 0.99562 0.9243 0.0
H519 H 0.43469 0.9833 0.97655 0.0
C520 C 0.52996 0.05532 0.98629 0.0
N521 N 0.54594 0.01602 0.06338 0.0
C522 C 0.53576 0.01704 0.09086 0.0
C523 C 0.57358 0.02708 0.06412 0.0
N524 N 0.55567 0.02901 0.10851 0.0
C525 C 0.57956 0.03526 0.09183 0.0
C526 C 0.55617 0.97819 0.9897 0.0
O527 O 0.51294 0.03818 0.97261 0.0
O528 O 0.53741 0.0466 0.0122 0.0
O529 O 0.55794 0.98916 0.01449 0.0
O530 O 0.53213 0.97994 0.97598 0.0
O531 O 0.51182 0.96935 0.04889 0.0
H532 H 0.58782 0.03072 0.04531 0.0
H533 H 0.51347 0.01128 0.09727 0.0
O534 O 0.48576 0.96217 0.00997 0.0
O535 O 0.4664 0.02025 1.00703 0.0
O536 O 0.49158 0.0269 0.04642 0.0
C537 C 0.46784 0.02987 0.03242 0.0
H538 H 0.42028 0.97265 0.92241 0.0
H539 H 0.59945 0.04621 0.09885 0.0
Co540 Co 0.53033 0.51975 0.50383 0.0
C541 C 0.483 0.52095 0.46529 0.0
Co542 Co 0.4906 0.49593 0.52171 0.0
C543 C 0.59085 0.53597 0.49144 0.0
C544 C 0.56142 0.56826 0.471 0.0
N545 N 0.56226 0.54193 0.48836 0.0
N546 N 0.6078 0.55743 0.47645 0.0
C547 C 0.58935 0.57774 0.46352 0.0
H548 H 0.59904 0.51597 0.50395 0.0
H549 H 0.5417 0.57981 0.46417 0.0
C550 C 0.53796 0.49437 0.56011 0.0
N551 N 0.45852 0.4736 0.53678 0.0
C552 C 0.42999 0.47884 0.53205 0.0
C553 C 0.4591 0.44626 0.55253 0.0
N554 N 0.41279 0.45563 0.5439 0.0
C555 C 0.43106 0.43517 0.55694 0.0
C556 C 0.52844 0.45947 0.49266 0.0
O557 O 0.55047 0.5112 0.53974 0.0
O558 O 0.51186 0.48507 0.55654 0.0
O559 O 0.50381 0.46031 0.50517 0.0
O560 O 0.54472 0.48339 0.49006 0.0
O561 O 0.46979 0.50683 0.48683 0.0
H562 H 0.47871 0.43461 0.55951 0.0
H563 H 0.42209 0.49863 0.51904 0.0
O564 O 0.50983 0.52809 0.46785 0.0
O565 O 0.51583 0.55582 0.51766 0.0
O566 O 0.47745 0.53193 0.53794 0.0
C567 C 0.49242 0.55654 0.53232 0.0
H568 H 0.59565 0.59812 0.44981 0.0
H569 H 0.42468 0.41353 0.56853 0.0
Co570 Co 0.02427 0.50431 0.98914 0.0
C571 C 0.96883 0.47752 0.98753 0.0
Co572 Co 1.00051 0.50446 0.03091 0.0
C573 C 0.04045 0.48761 0.93178 0.0
C574 C 0.0616 0.52925 0.94271 0.0
N575 N 0.04368 0.50626 0.95364 0.0
N576 N 0.05526 0.4983 0.90751 0.0
C577 C 0.06878 0.5244 0.91443 0.0
H578 H 0.02621 0.46748 0.93309 0.0
H579 H 0.06805 0.54901 0.9541 0.0
C580 C 0.05585 0.53125 0.03259 0.0
N581 N 0.98106 0.50243 0.06646 0.0
C582 C 0.98534 0.52008 0.08895 0.0
C583 C 0.96241 0.47988 0.07692 0.0
N584 N 0.97054 0.50912 0.11314 0.0
C585 C 0.95589 0.48394 0.10553 0.0
C586 C 0.03512 0.4527 0.02591 0.0
O587 O 0.05647 0.52509 1.00604 0.0
O588 O 0.03317 0.52418 0.04772 0.0
O589 O 0.01732 0.46554 0.04209 0.0
O590 O 0.04139 0.46571 1.00081 0.0
O591 O 0.96812 0.48458 0.0138 0.0
H592 H 0.95513 0.46077 0.06502 0.0
H593 H 1.00041 0.53951 0.08818 0.0
O594 O 0.9918 0.4837 0.97255 0.0
O595 O 1.00705 0.54258 0.97773 0.0
O596 O 0.98376 0.54369 0.01933 0.0
C597 C 0.98965 0.55599 0.99382 0.0
H598 H 0.08229 0.5394 0.89987 0.0
H599 H 0.94216 0.46894 0.11986 0.0
H600 H 0.07606 0.09547 0.28706 0.0
H601 H 0.09956 0.02977 0.4536 0.0
H602 H 0.16126 0.08953 0.32615 0.0
H603 H 0.01651 0.03428 0.40985 0.0
H604 H 0.12336 0.05006 0.40773 0.0
H605 H 0.05479 0.07148 0.33206 0.0
C606 C 0.09036 0.08913 0.30517 0.0
C607 C 0.12053 0.09493 0.30278 0.0
C608 C 0.09994 0.04648 0.40822 0.0
C609 C 0.09609 0.06704 0.35493 0.0
C610 C 0.08633 0.03489 0.43441 0.0
C611 C 0.0559 0.03035 0.43576 0.0
C612 C 0.08303 0.0536 0.38317 0.0
C613 C 0.03996 0.03742 0.41009 0.0
C614 C 0.07816 0.07527 0.33094 0.0
C615 C 0.13792 0.0855 0.32692 0.0
N616 N 0.05365 0.04868 0.38508 0.0
N617 N 0.12544 0.07226 0.35205 0.0
H618 H 0.42482 0.95687 0.73508 0.0
H619 H 0.51272 0.96319 0.88456 0.0
H620 H 0.51026 0.91887 0.74758 0.0
H621 H 0.42399 0.99149 0.87183 0.0
H622 H 0.51483 0.95157 0.83327 0.0
H623 H 0.42697 0.97464 0.78367 0.0
C624 C 0.44433 0.95269 0.74786 0.0
C625 C 0.46755 0.93655 0.73703 0.0
C626 C 0.49497 0.96046 0.84171 0.0
C627 C 0.46976 0.95624 0.79345 0.0
C628 C 0.49381 0.96728 0.8709 0.0
C629 C 0.46805 0.97816 0.88248 0.0
C630 C 0.47026 0.96475 0.82403 0.0
C631 C 0.4441 0.9827 0.86392 0.0
C632 C 0.4454 0.96261 0.77583 0.0
C633 C 0.49182 0.93108 0.7551 0.0
N634 N 0.44578 0.97593 0.83568 0.0
N635 N 0.49228 0.94086 0.78251 0.0
H636 H 0.64832 0.47665 0.71437 0.0
H637 H 0.52438 0.44594 0.59926 0.0
H638 H 0.61351 0.38601 0.7018 0.0
H639 H 0.58803 0.51939 0.58213 0.0
H640 H 0.55193 0.42773 0.64243 0.0
H641 H 0.62248 0.4964 0.6704 0.0
C642 C 0.63549 0.4608 0.70242 0.0
C643 C 0.63298 0.42954 0.71227 0.0
C644 C 0.55984 0.44787 0.62924 0.0
C645 C 0.60273 0.45235 0.66238 0.0
C646 C 0.54404 0.4584 0.6047 0.0
C647 C 0.55393 0.48423 0.58703 0.0
C648 C 0.58548 0.46354 0.63658 0.0
C649 C 0.57969 0.49933 0.59511 0.0
C650 C 0.62062 0.4722 0.67741 0.0
C651 C 0.61558 0.41038 0.69584 0.0
N652 N 0.59452 0.48887 0.61943 0.0
N653 N 0.60097 0.42213 0.67198 0.0
H654 H 0.98756 0.6177 0.26115 0.0
H655 H 0.96498 0.47489 0.16481 0.0
H656 H 0.97723 0.52385 0.29709 0.0
H657 H 0.98263 0.56713 0.12745 0.0
H658 H 0.9703 0.49268 0.21343 0.0
H659 H 0.98827 0.59978 0.21205 0.0
C660 C 0.98597 0.59329 0.25875 0.0
C661 C 0.98212 0.57224 0.28325 0.0
C662 C 0.97306 0.50908 0.19463 0.0
C663 C 0.9823 0.55167 0.22715 0.0
C664 C 0.96972 0.49897 0.16682 0.0
C665 C 0.97312 0.5196 0.14198 0.0
C666 C 0.97973 0.54013 0.19777 0.0
C667 C 0.97997 0.55043 0.14599 0.0
C668 C 0.98612 0.5831 0.2307 0.0
C669 C 0.97976 0.54092 0.2788 0.0
N670 N 0.98293 0.5598 0.17338 0.0
N671 N 0.97966 0.53162 0.25131 0.0
H672 H 0.29748 0.10257 0.07071 0.0
H673 H 0.46238 0.04667 0.08842 0.0
H674 H 0.34143 0.08978 0.15355 0.0
H675 H 0.41414 0.04305 1.00819 0.0
H676 H 0.41945 0.06636 0.11152 0.0
H677 H 0.34093 0.08485 0.04652 0.0
C678 C 0.31629 0.09623 0.08383 0.0
C679 C 0.31561 0.09765 0.11432 0.0
C680 C 0.41821 0.06134 0.08884 0.0
C681 C 0.36562 0.07719 0.08663 0.0
C682 C 0.44282 0.05015 0.07555 0.0
C683 C 0.44202 0.04312 0.04621 0.0
C684 C 0.39243 0.06582 0.07277 0.0
C685 C 0.41586 0.0481 0.03082 0.0
C686 C 0.34106 0.08592 0.06999 0.0
C687 C 0.34066 0.08874 0.1301 0.0
N688 N 0.39219 0.05915 0.04424 0.0
N689 N 0.36454 0.07902 0.11612 0.0
H690 H 0.28933 0.95106 0.51182 0.0
H691 H 0.14863 0.98586 0.60347 0.0
H692 H 0.29156 0.98177 0.59884 0.0
H693 H 0.14646 0.98712 0.50932 0.0
H694 H 0.20094 0.97986 0.60201 0.0
H695 H 0.23677 0.96062 0.50996 0.0
C696 C 0.27887 0.96017 0.53032 0.0
C697 C 0.29488 0.9658 0.55545 0.0
C698 C 0.18905 0.98157 0.58163 0.0
C699 C 0.23508 0.97621 0.55365 0.0
C700 C 0.15906 0.98509 0.58242 0.0
C701 C 0.14291 0.98736 0.55647 0.0
C702 C 0.20319 0.97994 0.55472 0.0
C703 C 0.15785 0.98529 0.52993 0.0
C704 C 0.24897 0.96561 0.52924 0.0
C705 C 0.28027 0.97758 0.57882 0.0
N706 N 0.18719 0.98165 0.52974 0.0
N707 N 0.25123 0.98211 0.57743 0.0
H708 H 0.83891 0.41009 0.86885 0.0
H709 H 0.91773 0.45836 0.01463 0.0
H710 H 0.80109 0.39603 0.95509 0.0
H711 H 0.96038 0.46456 0.93045 0.0
H712 H 0.87439 0.43678 0.99257 0.0
H713 H 0.88287 0.43196 0.89023 0.0
C714 C 0.83977 0.41174 0.89224 0.0
C715 C 0.81628 0.40102 0.91019 0.0
C716 C 0.89322 0.44278 0.97888 0.0
C717 C 0.8666 0.42587 0.93483 0.0
C718 C 0.91804 0.45511 0.99149 0.0
C719 C 0.94281 0.46331 0.9744 0.0
C720 C 0.89295 0.43866 0.94885 0.0
C721 C 0.94183 0.45853 0.94451 0.0
C722 C 0.86495 0.42405 0.90445 0.0
C723 C 0.81877 0.40351 0.94041 0.0
N724 N 0.91729 0.44662 0.93267 0.0
N725 N 0.84339 0.41566 0.95171 0.0
H726 H 0.7939 0.5671 0.50628 0.0
H727 H 0.63929 0.57693 0.42869 0.0
H728 H 0.78187 0.56461 0.41336 0.0
H729 H 0.64728 0.53983 0.51804 0.0
H730 H 0.69229 0.57912 0.4243 0.0
H731 H 0.74059 0.56305 0.51284 0.0
C732 C 0.78005 0.56558 0.48736 0.0
C733 C 0.79221 0.56589 0.45928 0.0
C734 C 0.68249 0.57041 0.44488 0.0
C735 C 0.73177 0.56179 0.46651 0.0
C736 C 0.65229 0.56936 0.44742 0.0
C737 C 0.639 0.55821 0.47375 0.0
C738 C 0.69964 0.56067 0.46897 0.0
C739 C 0.65681 0.54833 0.49731 0.0
C740 C 0.74978 0.56316 0.4911 0.0
C741 C 0.77341 0.56396 0.43542 0.0
N742 N 0.68634 0.54999 0.49446 0.0
N743 N 0.74418 0.5622 0.43957 0.0
H744 H 0.11059 0.30714 0.13866 0.0
H745 H 0.07049 0.41561 0.99619 0.0
H746 H 0.13195 0.28516 0.05125 0.0
H747 H 0.03275 0.42401 0.08121 0.0
H748 H 0.09538 0.36948 0.01595 0.0
H749 H 0.0842 0.3515 0.11812 0.0
C750 C 0.10961 0.31135 0.11514 0.0
C751 C 0.12364 0.29197 0.0968 0.0
C752 C 0.08155 0.38136 0.03023 0.0
C753 C 0.09366 0.34364 0.073 0.0
C754 C 0.06732 0.40773 0.01896 0.0
C755 C 0.04941 0.42381 0.03701 0.0
C756 C 0.07816 0.37108 0.05988 0.0
C757 C 0.04622 0.41242 0.06638 0.0
C758 C 0.09461 0.33693 0.10341 0.0
C759 C 0.12198 0.29947 0.06644 0.0
N760 N 0.06054 0.38696 0.07688 0.0
N761 N 0.10739 0.32465 0.05555 0.0
H762 H 0.61913 0.2311 0.94791 0.0
H763 H 0.52372 0.07813 0.92931 0.0
H764 H 0.59143 0.20203 0.86446 0.0
H765 H 0.56369 0.09901 0.01061 0.0
H766 H 0.54542 0.12543 0.90581 0.0
H767 H 0.59664 0.18443 0.97181 0.0
C768 C 0.60849 0.21488 0.93456 0.0
C769 C 0.60719 0.22067 0.90406 0.0
C770 C 0.54941 0.11969 0.92881 0.0
C771 C 0.58095 0.1673 0.93142 0.0
C772 C 0.53693 0.09272 0.94227 0.0
C773 C 0.54189 0.08454 0.97199 0.0
C774 C 0.56688 0.13875 0.94518 0.0
C775 C 0.55929 0.10435 0.98764 0.0
C776 C 0.59549 0.18829 0.94826 0.0
C777 C 0.59262 0.19892 0.88804 0.0
N778 N 0.57113 0.1305 0.97406 0.0
N779 N 0.58007 0.1733 0.90189 0.0
H780 H 0.98251 0.77557 0.42057 0.0
H781 H 0.03939 0.89653 0.53018 0.0
H782 H 0.99225 0.75108 0.51285 0.0
H783 H 0.99154 0.9211 0.45135 0.0
H784 H 0.0336 0.8421 0.5207 0.0
H785 H 0.9976 0.82822 0.42829 0.0
C786 C 0.98826 0.7812 0.44241 0.0
C787 C 0.98607 0.759 0.46614 0.0
C788 C 0.02468 0.85953 0.50541 0.0
C789 C 1.00323 0.81918 0.47509 0.0
C790 C 0.02812 0.89048 0.51068 0.0
C791 C 0.01576 0.91318 0.49157 0.0
C792 C 1.00934 0.85154 0.48059 0.0
C793 C 1.00118 0.90423 0.46673 0.0
C794 C 0.99668 0.81126 0.44681 0.0
C795 C 0.99341 0.76764 0.49404 0.0
N796 N 0.9984 0.87412 0.46194 0.0
N797 N 1.00167 0.79715 0.49779 0.0
H798 H 0.44884 0.74613 0.52551 0.0
H799 H 0.45115 0.56786 0.57356 0.0
H800 H 0.42584 0.71237 0.61354 0.0
H801 H 0.51061 0.61306 0.51012 0.0
H802 H 0.43451 0.61854 0.58554 0.0
H803 H 0.46397 0.69474 0.51582 0.0
C804 C 0.44682 0.72776 0.54272 0.0
C805 C 0.43613 0.73333 0.57033 0.0
C806 C 0.45129 0.61714 0.56913 0.0
C807 C 0.45327 0.67462 0.55943 0.0
C808 C 0.46069 0.58836 0.56224 0.0
C809 C 0.48231 0.5863 0.54088 0.0
C810 C 0.46318 0.64373 0.55402 0.0
C811 C 0.49401 0.61353 0.52684 0.0
C812 C 0.45559 0.69856 0.53727 0.0
C813 C 0.43417 0.70887 0.59202 0.0
N814 N 0.48412 0.64105 0.53349 0.0
N815 N 0.44252 0.68037 0.58607 0.0
H816 H 0.85129 0.93019 0.69064 0.0
H817 H 1.005 0.96454 0.60916 0.0
H818 H 0.93473 0.91313 0.73102 0.0
H819 H 0.92241 0.97756 0.56581 0.0
H820 H 0.97923 0.9469 0.65411 0.0
H821 H 0.87639 0.94902 0.64533 0.0
C822 C 0.87487 0.93054 0.69013 0.0
C823 C 0.8908 0.9199 0.7149 0.0
C824 C 0.96666 0.95359 0.63482 0.0
C825 C 0.9198 0.94132 0.66271 0.0
C826 C 0.9814 0.96372 0.60903 0.0
C827 C 0.96593 0.97258 0.58347 0.0
C828 C 0.93604 0.95226 0.63537 0.0
C829 C 0.93531 0.97096 0.58489 0.0
C830 C 0.8892 0.94115 0.66411 0.0
C831 C 0.92138 0.92061 0.71253 0.0
N832 N 0.92141 0.96103 0.61034 0.0
N833 N 0.93477 0.9311 0.68706 0.0
H834 H 0.54138 0.1348 0.25668 0.0
H835 H 0.52391 0.99856 0.15179 0.0
H836 H 0.52665 0.04089 0.29068 0.0
H837 H 0.57473 0.08139 0.13022 0.0
H838 H 0.5142 0.01611 0.20043 0.0
H839 H 0.54137 0.11809 0.20718 0.0
C840 C 0.53734 0.11076 0.25368 0.0
C841 C 0.5341 0.08915 0.27778 0.0
C842 C 0.52744 0.03036 0.18497 0.0
C843 C 0.5346 0.06988 0.22131 0.0
C844 C 0.53297 0.0204 0.15737 0.0
C845 C 0.55042 0.03842 0.13727 0.0
C846 C 0.53893 0.05883 0.19209 0.0
C847 C 0.56163 0.06659 0.14533 0.0
C848 C 0.53772 0.10121 0.22547 0.0
C849 C 0.52944 0.05821 0.27263 0.0
N850 N 0.55559 0.076 0.17208 0.0
N851 N 0.53 0.04941 0.2449 0.0
H852 H 0.35074 0.56794 0.3354 0.0
H853 H 0.50549 0.54702 0.41362 0.0
H854 H 0.43328 0.58531 0.29128 0.0
H855 H 0.4245 0.51458 0.45431 0.0
H856 H 0.47898 0.56217 0.36894 0.0
H857 H 0.37685 0.5486 0.37931 0.0
C858 C 0.3743 0.56745 0.33481 0.0
C859 C 0.38978 0.57859 0.3096 0.0
C860 C 0.46699 0.55162 0.38759 0.0
C861 C 0.41983 0.55687 0.35996 0.0
C862 C 0.48213 0.543 0.41315 0.0
C863 C 0.46723 0.5295 0.4378 0.0
C864 C 0.43662 0.54697 0.38661 0.0
C865 C 0.43692 0.52488 0.43584 0.0
C866 C 0.3892 0.55655 0.35996 0.0
C867 C 0.42036 0.57763 0.31033 0.0
N868 N 0.4226 0.53372 0.41076 0.0
N869 N 0.43432 0.56717 0.33507 0.0
H870 H 0.04383 0.38272 0.76388 0.0
H871 H 0.06154 0.53043 0.8548 0.0
H872 H 0.05473 0.47536 0.72485 0.0
H873 H 0.0454 0.43916 0.89531 0.0
H874 H 0.05845 0.51029 0.80703 0.0
H875 H 0.04233 0.40266 0.81216 0.0
C876 C 0.04548 0.40727 0.76544 0.0
C877 C 0.04961 0.42741 0.74033 0.0
C878 C 0.05555 0.4946 0.82633 0.0
C879 C 0.04842 0.45029 0.79544 0.0
C880 C 0.0576 0.50608 0.85369 0.0
C881 C 0.05394 0.48643 0.87917 0.0
C882 C 0.04989 0.46317 0.8243 0.0
C883 C 0.04819 0.45515 0.87625 0.0
C884 C 0.04486 0.41862 0.79301 0.0
C885 C 0.05199 0.45897 0.74366 0.0
N886 N 0.04644 0.44445 0.84929 0.0
N887 N 0.05153 0.4694 0.77068 0.0
H888 H 0.72841 0.9446 0.92073 0.0
H889 H 0.55699 0.93607 0.94848 0.0
H890 H 0.67836 0.86142 0.91154 0.0
H891 H 0.61414 0.98899 1.00059 0.0
H892 H 0.59986 0.91397 0.92673 0.0
H893 H 0.6853 0.96712 0.9419 0.0
C894 C 0.70826 0.93122 0.92292 0.0
C895 C 0.70694 0.9011 0.91441 0.0
C896 C 0.60295 0.9304 0.94295 0.0
C897 C 0.65753 0.9268 0.93819 0.0
C898 C 0.57853 0.94308 0.95533 0.0
C899 C 0.58193 0.96429 0.97656 0.0
C900 C 0.63108 0.9396 0.9512 0.0
C901 C 0.61045 0.97253 0.98452 0.0
C902 C 0.68377 0.94398 0.93514 0.0
C903 C 0.68032 0.88467 0.91792 0.0
N904 N 0.63388 0.96042 0.97166 0.0
N905 N 0.65663 0.89778 0.9293 0.0
H906 H 0.73598 0.07193 0.4861 0.0
H907 H 0.88204 0.02548 0.40825 0.0
H908 H 0.74101 0.0473 0.39712 0.0
H909 H 0.8746 0.02425 0.50207 0.0
H910 H 0.83113 0.03863 0.40386 0.0
H911 H 0.78748 0.05898 0.49263 0.0
C912 C 0.74788 0.06364 0.46804 0.0
C913 C 0.73421 0.06045 0.4411 0.0
C914 C 0.84055 0.03541 0.42545 0.0
C915 C 0.79282 0.04603 0.44828 0.0
C916 C 0.86968 0.02777 0.428 0.0
C917 C 0.88261 0.02327 0.45561 0.0
C918 C 0.82407 0.03884 0.45067 0.0
C919 C 0.86558 0.02757 0.48035 0.0
C920 C 0.77715 0.05623 0.47179 0.0
C921 C 0.75052 0.0496 0.41841 0.0
N922 N 0.83709 0.03506 0.47731 0.0
N923 N 0.77896 0.04295 0.42248 0.0
H924 H 0.21193 0.5616 0.13191 0.0
H925 H 0.09618 0.57153 1.00641 0.0
H926 H 0.1953 0.64892 0.08452 0.0
H927 H 0.07415 0.5228 0.08916 0.0
H928 H 0.13927 0.594 0.02915 0.0
H929 H 0.16723 0.5408 0.11158 0.0
C930 C 0.19904 0.57662 0.11752 0.0
C931 C 0.20798 0.60729 0.11003 0.0
C932 C 0.1249 0.57842 0.04225 0.0
C933 C 0.15724 0.5828 0.08572 0.0
C934 C 0.10045 0.56555 0.02933 0.0
C935 C 0.08157 0.54543 0.046 0.0
C936 C 0.13098 0.57029 0.07176 0.0
C937 C 0.08808 0.53842 0.07563 0.0
C938 C 0.17357 0.56451 0.10576 0.0
C939 C 0.19022 0.62499 0.0905 0.0
N940 N 0.11248 0.55053 0.08751 0.0
N941 N 0.166 0.6124 0.07878 0.0
H942 H 0.22829 0.48558 0.54658 0.0
H943 H 0.38115 0.40259 0.54352 0.0
H944 H 0.23759 0.38748 0.54874 0.0
H945 H 0.37323 0.50093 0.53834 0.0
H946 H 0.3283 0.39706 0.5414 0.0
H947 H 0.28087 0.49221 0.5388 0.0
C948 C 0.24134 0.46546 0.54508 0.0
C949 C 0.22853 0.43591 0.54857 0.0
C950 C 0.33806 0.41989 0.54059 0.0
C951 C 0.28868 0.44332 0.5398 0.0
C952 C 0.36827 0.42305 0.54205 0.0
C953 C 0.38163 0.45227 0.5415 0.0
C954 C 0.32093 0.44614 0.53875 0.0
C955 C 0.36383 0.47799 0.5388 0.0
C956 C 0.27134 0.46926 0.5406 0.0
C957 C 0.24642 0.41069 0.54598 0.0
N958 N 0.33437 0.47432 0.53778 0.0
N959 N 0.27559 0.41497 0.54209 0.0
H960 H 0.91944 0.6956 0.87245 0.0
H961 H 0.95261 0.59406 0.02125 0.0
H962 H 0.89555 0.72539 0.95642 0.0
H963 H 0.99365 0.58293 0.93827 0.0
H964 H 0.92795 0.63951 0.99882 0.0
H965 H 0.94237 0.65116 0.8969 0.0
C966 C 0.91913 0.69299 0.89609 0.0
C967 C 0.90588 0.71485 0.91228 0.0
C968 C 0.94245 0.6271 0.98565 0.0
C969 C 0.93196 0.66302 0.94072 0.0
C970 C 0.95656 0.60117 0.99843 0.0
C971 C 0.97533 0.58453 0.9817 0.0
C972 C 0.94687 0.6362 0.95585 0.0
C973 C 0.97949 0.59488 0.95218 0.0
C974 C 0.93219 0.66738 0.91009 0.0
C975 C 0.90543 0.70927 0.94294 0.0
N976 N 0.96534 0.61977 0.94029 0.0
N977 N 0.91836 0.68399 0.95616 0.0
H978 H 0.42873 0.80902 0.16048 0.0
H979 H 0.46123 0.90911 0.0103 0.0
H980 H 0.40765 0.77771 0.07605 0.0
H981 H 0.49867 0.93014 0.09271 0.0
H982 H 0.43928 0.86223 0.0342 0.0
H983 H 0.45211 0.85483 0.13628 0.0
C984 C 0.42915 0.8116 0.13684 0.0
C985 C 0.41629 0.7892 0.12033 0.0
C986 C 0.4524 0.87701 0.04704 0.0
C987 C 0.44272 0.84215 0.09243 0.0
C988 C 0.46494 0.90382 0.03342 0.0
C989 C 0.48184 0.92362 0.04953 0.0
C990 C 0.4565 0.87001 0.07709 0.0
C991 C 0.4859 0.91552 0.07942 0.0
C992 C 0.44243 0.83791 0.12304 0.0
C993 C 0.41695 0.7944 0.08974 0.0
N994 N 0.47318 0.88943 0.09226 0.0
N995 N 0.42992 0.82031 0.07681 0.0
H996 H 0.02472 0.25297 0.50728 0.0
H997 H 0.03039 0.07973 0.56903 0.0
H998 H 0.0382 0.22543 0.59848 0.0
H999 H 0.98277 0.10612 0.49049 0.0
H1000 H 0.03452 0.13346 0.57931 0.0
H1001 H 1.01014 0.19988 0.49938 0.0
C1002 C 0.02433 0.23582 0.52565 0.0
C1003 C 0.03275 0.24355 0.55356 0.0
C1004 C 0.02285 0.12755 0.55999 0.0
C1005 C 0.01642 0.18305 0.54465 0.0
C1006 C 0.02058 0.0969 0.55406 0.0
C1007 C 1.00633 0.08858 0.52882 0.0
C1008 C 0.01135 0.15021 0.54021 0.0
C1009 C 0.99387 0.11168 0.51023 0.0
C1010 C 0.01587 0.20564 0.52117 0.0
C1011 C 0.03166 0.22054 0.57666 0.0
N1012 N 0.99706 0.14162 0.51606 0.0
N1013 N 0.02404 0.19129 0.57162 0.0
H1014 H 0.60081 0.28234 0.48978 0.0
H1015 H 0.49562 0.41725 0.46628 0.0
H1016 H 0.55859 0.29643 0.40574 0.0
H1017 H 0.58293 0.4362 0.49552 0.0
H1018 H 0.51158 0.3676 0.45119 0.0
H1019 H 0.5882 0.33423 0.49995 0.0
C1020 C 0.58919 0.29618 0.47327 0.0
C1021 C 0.58097 0.28461 0.44667 0.0
C1022 C 0.52717 0.38283 0.46073 0.0
C1023 C 0.56543 0.34359 0.4591 0.0
C1024 C 0.51814 0.41092 0.46939 0.0
C1025 C 0.5381 0.43063 0.48202 0.0
C1026 C 0.55601 0.37413 0.46575 0.0
C1027 C 0.56703 0.42159 0.48565 0.0
C1028 C 0.58187 0.32575 0.4793 0.0
C1029 C 0.56495 0.30374 0.42679 0.0
N1030 N 0.57508 0.39362 0.47799 0.0
N1031 N 0.55738 0.33216 0.43357 0.0
loop_
_geom_bond_atom_site_label_1
_geom_bond_atom_site_label_2
_geom_bond_distance
_geom_bond_site_symmetry_2
_ccdc_geom_bond_type
C0 C1 1.391 . S
C0 C4 1.391 . S
C0 H42 0.948 . S
C1 C0 1.391 . S
C1 C2 1.391 . S
C2 C1 1.391 . S
C2 H58 0.947 . S
C2 C59 1.392 . S
C3 C4 1.391 . S
C3 C7 1.397 . S
C3 C59 1.419 . S
C4 C0 1.391 . S
C4 C3 1.391 . S
C4 C5 1.399 . S
C5 C4 1.399 . S
C5 C8 1.396 . S
C5 C17 1.453 . S
C5 C18 1.684 . S
H6 C30 0.948 . S
C7 C3 1.397 . S
C7 C8 1.394 . S
C7 C26 1.723 . S
C8 C5 1.396 . S
C8 C7 1.394 . S
C8 C38 1.723 . S
H9 C32 0.947 . S
H10 C33 0.948 . S
H11 C39 0.982 . S
H12 C40 0.979 . S
H13 C40 0.980 . S
H14 C40 0.983 . S
H15 C39 0.979 . S
H16 C39 0.977 . S
C17 C5 1.453 . S
C17 H46 0.982 . S
C17 H47 0.979 . S
C17 H48 0.977 . S
C18 C5 1.684 . S
C18 H43 0.979 . S
C18 H44 0.980 . S
C18 H45 0.983 . S
C19 C20 1.391 . S
C19 C24 1.391 . S
C19 H49 0.948 . S
C20 C19 1.391 . S
C20 C21 1.391 . S
C21 C20 1.391 . S
C21 C22 1.392 . S
C21 H50 0.947 . S
C22 C21 1.392 . S
C22 C23 1.419 . S
C22 H51 0.948 . S
C23 C22 1.419 . S
C23 C24 1.391 . S
C23 C27 1.397 . S
C24 C19 1.391 . S
C24 C23 1.391 . S
C24 C25 1.399 . S
C25 C24 1.399 . S
C25 C26 1.396 . S
C25 C28 1.453 . S
C25 C29 1.684 . S
C26 C7 1.723 . S
C26 C25 1.396 . S
C26 C27 1.394 . S
C27 C23 1.397 . S
C27 C26 1.394 . S
C27 C37 1.723 . S
C28 C25 1.453 . S
C28 H52 0.982 . S
C28 H53 0.979 . S
C28 H54 0.977 . S
C29 C25 1.684 . S
C29 H55 0.979 . S
C29 H56 0.980 . S
C29 H57 0.983 . S
C30 H6 0.948 . S
C30 C31 1.391 . S
C30 C35 1.391 . S
C31 C30 1.391 . S
C31 C32 1.391 . S
C32 H9 0.947 . S
C32 C31 1.391 . S
C32 C33 1.392 . S
C33 H10 0.948 . S
C33 C32 1.392 . S
C33 C34 1.419 . S
C34 C33 1.419 . S
C34 C35 1.391 . S
C34 C38 1.397 . S
C35 C30 1.391 . S
C35 C34 1.391 . S
C35 C36 1.399 . S
C36 C35 1.399 . S
C36 C37 1.396 . S
C36 C39 1.453 . S
C36 C40 1.684 . S
C37 C27 1.723 . S
C37 C36 1.396 . S
C37 C38 1.394 . S
C38 C8 1.723 . S
C38 C34 1.397 . S
C38 C37 1.394 . S
C39 H11 0.982 . S
C39 H15 0.979 . S
C39 H16 0.977 . S
C39 C36 1.453 . S
C40 H12 0.979 . S
C40 H13 0.980 . S
C40 H14 0.983 . S
C40 C36 1.684 . S
H41 C59 0.948 . S
H42 C0 0.948 . S
H43 C18 0.979 . S
H44 C18 0.980 . S
H45 C18 0.983 . S
H46 C17 0.982 . S
H47 C17 0.979 . S
H48 C17 0.977 . S
H49 C19 0.948 . S
H50 C21 0.947 . S
H51 C22 0.948 . S
H52 C28 0.982 . S
H53 C28 0.979 . S
H54 C28 0.977 . S
H55 C29 0.979 . S
H56 C29 0.980 . S
H57 C29 0.983 . S
H58 C2 0.947 . S
C59 C2 1.392 . S
C59 C3 1.419 . S
C59 H41 0.948 . S
C60 C61 1.391 . S
C60 C64 1.391 . S
C60 H102 0.948 . S
C61 C60 1.391 . S
C61 C62 1.391 . S
C62 C61 1.391 . S
C62 H118 0.947 . S
C62 C119 1.392 . S
C63 C64 1.391 . S
C63 C67 1.397 . S
C63 C119 1.419 . S
C64 C60 1.391 . S
C64 C63 1.391 . S
C64 C65 1.399 . S
C65 C64 1.399 . S
C65 C68 1.396 . S
C65 C77 1.453 . S
C65 C78 1.684 . S
H66 C90 0.948 . S
C67 C63 1.397 . S
C67 C68 1.394 . S
C67 C86 1.723 . S
C68 C65 1.396 . S
C68 C67 1.394 . S
C68 C98 1.723 . S
H69 C92 0.947 . S
H70 C93 0.948 . S
H71 C99 0.982 . S
H72 C100 0.979 . S
H73 C100 0.980 . S
H74 C100 0.983 . S
H75 C99 0.979 . S
H76 C99 0.977 . S
C77 C65 1.453 . S
C77 H106 0.982 . S
C77 H107 0.979 . S
C77 H108 0.977 . S
C78 C65 1.684 . S
C78 H103 0.979 . S
C78 H104 0.980 . S
C78 H105 0.983 . S
C79 C80 1.391 . S
C79 C84 1.391 . S
C79 H109 0.948 . S
C80 C79 1.391 . S
C80 C81 1.391 . S
C81 C80 1.391 . S
C81 C82 1.392 . S
C81 H110 0.947 . S
C82 C81 1.392 . S
C82 C83 1.419 . S
C82 H111 0.948 . S
C83 C82 1.419 . S
C83 C84 1.391 . S
C83 C87 1.397 . S
C84 C79 1.391 . S
C84 C83 1.391 . S
C84 C85 1.399 . S
C85 C84 1.399 . S
C85 C86 1.396 . S
C85 C88 1.453 . S
C85 C89 1.684 . S
C86 C67 1.723 . S
C86 C85 1.396 . S
C86 C87 1.394 . S
C87 C83 1.397 . S
C87 C86 1.394 . S
C87 C97 1.723 . S
C88 C85 1.453 . S
C88 H112 0.982 . S
C88 H113 0.979 . S
C88 H114 0.977 . S
C89 C85 1.684 . S
C89 H115 0.979 . S
C89 H116 0.980 . S
C89 H117 0.983 . S
C90 H66 0.948 . S
C90 C91 1.391 . S
C90 C95 1.391 . S
C91 C90 1.391 . S
C91 C92 1.391 . S
C92 H69 0.947 . S
C92 C91 1.391 . S
C92 C93 1.392 . S
C93 H70 0.948 . S
C93 C92 1.392 . S
C93 C94 1.419 . S
C94 C93 1.419 . S
C94 C95 1.391 . S
C94 C98 1.397 . S
C95 C90 1.391 . S
C95 C94 1.391 . S
C95 C96 1.399 . S
C96 C95 1.399 . S
C96 C97 1.396 . S
C96 C99 1.453 . S
C96 C100 1.684 . S
C97 C87 1.723 . S
C97 C96 1.396 . S
C97 C98 1.394 . S
C98 C68 1.723 . S
C98 C94 1.397 . S
C98 C97 1.394 . S
C99 H71 0.982 . S
C99 H75 0.979 . S
C99 H76 0.977 . S
C99 C96 1.453 . S
C100 H72 0.979 . S
C100 H73 0.980 . S
C100 H74 0.983 . S
C100 C96 1.684 . S
H101 C119 0.948 . S
H102 C60 0.948 . S
H103 C78 0.979 . S
H104 C78 0.980 . S
H105 C78 0.983 . S
H106 C77 0.982 . S
H107 C77 0.979 . S
H108 C77 0.977 . S
H109 C79 0.948 . S
H110 C81 0.947 . S
H111 C82 0.948 . S
H112 C88 0.982 . S
H113 C88 0.979 . S
H114 C88 0.977 . S
H115 C89 0.979 . S
H116 C89 0.980 . S
H117 C89 0.983 . S
H118 C62 0.947 . S
C119 C62 1.392 . S
C119 C63 1.419 . S
C119 H101 0.948 . S
C120 C121 1.391 . S
C120 C124 1.391 . S
C120 H162 0.948 . S
C121 C120 1.391 . S
C121 C122 1.391 . S
C122 C121 1.391 . S
C122 H178 0.947 . S
C122 C179 1.392 . S
C123 C124 1.391 . S
C123 C127 1.397 . S
C123 C179 1.419 . S
C124 C120 1.391 . S
C124 C123 1.391 . S
C124 C125 1.399 . S
C125 C124 1.399 . S
C125 C128 1.396 . S
C125 C137 1.453 . S
C125 C138 1.684 . S
H126 C150 0.948 . S
C127 C123 1.397 . S
C127 C128 1.394 . S
C127 C146 1.723 . S
C128 C125 1.396 . S
C128 C127 1.394 . S
C128 C158 1.723 . S
H129 C152 0.947 . S
H130 C153 0.948 . S
H131 C159 0.982 . S
H132 C160 0.979 . S
H133 C160 0.980 . S
H134 C160 0.983 . S
H135 C159 0.979 . S
H136 C159 0.977 . S
C137 C125 1.453 . S
C137 H166 0.982 . S
C137 H167 0.979 . S
C137 H168 0.977 . S
C138 C125 1.684 . S
C138 H163 0.979 . S
C138 H164 0.980 . S
C138 H165 0.983 . S
C139 C140 1.391 . S
C139 C144 1.391 . S
C139 H169 0.948 . S
C140 C139 1.391 . S
C140 C141 1.391 . S
C141 C140 1.391 . S
C141 C142 1.392 . S
C141 H170 0.947 . S
C142 C141 1.392 . S
C142 C143 1.419 . S
C142 H171 0.948 . S
C143 C142 1.419 . S
C143 C144 1.391 . S
C143 C147 1.397 . S
C144 C139 1.391 . S
C144 C143 1.391 . S
C144 C145 1.399 . S
C145 C144 1.399 . S
C145 C146 1.396 . S
C145 C148 1.453 . S
C145 C149 1.684 . S
C146 C127 1.723 . S
C146 C145 1.396 . S
C146 C147 1.394 . S
C147 C143 1.397 . S
C147 C146 1.394 . S
C147 C157 1.723 . S
C148 C145 1.453 . S
C148 H172 0.982 . S
C148 H173 0.979 . S
C148 H174 0.977 . S
C149 C145 1.684 . S
C149 H175 0.979 . S
C149 H176 0.980 . S
C149 H177 0.983 . S
C150 H126 0.948 . S
C150 C151 1.391 . S
C150 C155 1.391 . S
C151 C150 1.391 . S
C151 C152 1.391 . S
C152 H129 0.947 . S
C152 C151 1.391 . S
C152 C153 1.392 . S
C153 H130 0.948 . S
C153 C152 1.392 . S
C153 C154 1.419 . S
C154 C153 1.419 . S
C154 C155 1.391 . S
C154 C158 1.397 . S
C155 C150 1.391 . S
C155 C154 1.391 . S
C155 C156 1.399 . S
C156 C155 1.399 . S
C156 C157 1.396 . S
C156 C159 1.453 . S
C156 C160 1.684 . S
C157 C147 1.723 . S
C157 C156 1.396 . S
C157 C158 1.394 . S
C158 C128 1.723 . S
C158 C154 1.397 . S
C158 C157 1.394 . S
C159 H131 0.982 . S
C159 H135 0.979 . S
C159 H136 0.977 . S
C159 C156 1.453 . S
C160 H132 0.979 . S
C160 H133 0.980 . S
C160 H134 0.983 . S
C160 C156 1.684 . S
H161 C179 0.948 . S
H162 C120 0.948 . S
H163 C138 0.979 . S
H164 C138 0.980 . S
H165 C138 0.983 . S
H166 C137 0.982 . S
H167 C137 0.979 . S
H168 C137 0.977 . S
H169 C139 0.948 . S
H170 C141 0.947 . S
H171 C142 0.948 . S
H172 C148 0.982 . S
H173 C148 0.979 . S
H174 C148 0.977 . S
H175 C149 0.979 . S
H176 C149 0.980 . S
H177 C149 0.983 . S
H178 C122 0.947 . S
C179 C122 1.392 . S
C179 C123 1.419 . S
C179 H161 0.948 . S
C180 C181 1.391 . S
C180 C184 1.391 . S
C180 H222 0.948 . S
C181 C180 1.391 . S
C181 C182 1.391 . S
C182 C181 1.391 . S
C182 H238 0.947 . S
C182 C239 1.392 . S
C183 C184 1.391 . S
C183 C187 1.397 . S
C183 C239 1.419 . S
C184 C180 1.391 . S
C184 C183 1.391 . S
C184 C185 1.399 . S
C185 C184 1.399 . S
C185 C188 1.396 . S
C185 C197 1.453 . S
C185 C198 1.684 . S
H186 C210 0.948 . S
C187 C183 1.397 . S
C187 C188 1.394 . S
C187 C206 1.723 . S
C188 C185 1.396 . S
C188 C187 1.394 . S
C188 C218 1.723 . S
H189 C212 0.947 . S
H190 C213 0.948 . S
H191 C219 0.982 . S
H192 C220 0.979 . S
H193 C220 0.980 . S
H194 C220 0.983 . S
H195 C219 0.979 . S
H196 C219 0.977 . S
C197 C185 1.453 . S
C197 H226 0.982 . S
C197 H227 0.979 . S
C197 H228 0.977 . S
C198 C185 1.684 . S
C198 H223 0.979 . S
C198 H224 0.980 . S
C198 H225 0.983 . S
C199 C200 1.391 . S
C199 C204 1.391 . S
C199 H229 0.948 . S
C200 C199 1.391 . S
C200 C201 1.391 . S
C201 C200 1.391 . S
C201 C202 1.392 . S
C201 H230 0.947 . S
C202 C201 1.392 . S
C202 C203 1.419 . S
C202 H231 0.948 . S
C203 C202 1.419 . S
C203 C204 1.391 . S
C203 C207 1.397 . S
C204 C199 1.391 . S
C204 C203 1.391 . S
C204 C205 1.399 . S
C205 C204 1.399 . S
C205 C206 1.396 . S
C205 C208 1.453 . S
C205 C209 1.684 . S
C206 C187 1.723 . S
C206 C205 1.396 . S
C206 C207 1.394 . S
C207 C203 1.397 . S
C207 C206 1.394 . S
C207 C217 1.723 . S
C208 C205 1.453 . S
C208 H232 0.982 . S
C208 H233 0.979 . S
C208 H234 0.977 . S
C209 C205 1.684 . S
C209 H235 0.979 . S
C209 H236 0.980 . S
C209 H237 0.983 . S
C210 H186 0.948 . S
C210 C211 1.391 . S
C210 C215 1.391 . S
C211 C210 1.391 . S
C211 C212 1.391 . S
C212 H189 0.947 . S
C212 C211 1.391 . S
C212 C213 1.392 . S
C213 H190 0.948 . S
C213 C212 1.392 . S
C213 C214 1.419 . S
C214 C213 1.419 . S
C214 C215 1.391 . S
C214 C218 1.397 . S
C215 C210 1.391 . S
C215 C214 1.391 . S
C215 C216 1.399 . S
C216 C215 1.399 . S
C216 C217 1.396 . S
C216 C219 1.453 . S
C216 C220 1.684 . S
C217 C207 1.723 . S
C217 C216 1.396 . S
C217 C218 1.394 . S
C218 C188 1.723 . S
C218 C214 1.397 . S
C218 C217 1.394 . S
C219 H191 0.982 . S
C219 H195 0.979 . S
C219 H196 0.977 . S
C219 C216 1.453 . S
C220 H192 0.979 . S
C220 H193 0.980 . S
C220 H194 0.983 . S
C220 C216 1.684 . S
H221 C239 0.948 . S
H222 C180 0.948 . S
H223 C198 0.979 . S
H224 C198 0.980 . S
H225 C198 0.983 . S
H226 C197 0.982 . S
H227 C197 0.979 . S
H228 C197 0.977 . S
H229 C199 0.948 . S
H230 C201 0.947 . S
H231 C202 0.948 . S
H232 C208 0.982 . S
H233 C208 0.979 . S
H234 C208 0.977 . S
H235 C209 0.979 . S
H236 C209 0.980 . S
H237 C209 0.983 . S
H238 C182 0.947 . S
C239 C182 1.392 . S
C239 C183 1.419 . S
C239 H221 0.948 . S
C240 C241 1.391 . S
C240 C244 1.391 . S
C240 H282 0.948 . S
C241 C240 1.391 . S
C241 C242 1.391 . S
C242 C241 1.391 . S
C242 H298 0.947 . S
C242 C299 1.392 . S
C243 C244 1.391 . S
C243 C247 1.397 . S
C243 C299 1.419 . S
C244 C240 1.391 . S
C244 C243 1.391 . S
C244 C245 1.399 . S
C245 C244 1.399 . S
C245 C248 1.396 . S
C245 C257 1.453 . S
C245 C258 1.684 . S
H246 C270 0.948 . S
C247 C243 1.397 . S
C247 C248 1.394 . S
C247 C266 1.723 . S
C248 C245 1.396 . S
C248 C247 1.394 . S
C248 C278 1.723 . S
H249 C272 0.947 . S
H250 C273 0.948 . S
H251 C279 0.982 . S
H252 C280 0.979 . S
H253 C280 0.980 . S
H254 C280 0.983 . S
H255 C279 0.979 . S
H256 C279 0.977 . S
C257 C245 1.453 . S
C257 H286 0.982 . S
C257 H287 0.979 . S
C257 H288 0.977 . S
C258 C245 1.684 . S
C258 H283 0.979 . S
C258 H284 0.980 . S
C258 H285 0.983 . S
C259 C260 1.391 . S
C259 C264 1.391 . S
C259 H289 0.948 . S
C260 C259 1.391 . S
C260 C261 1.391 . S
C261 C260 1.391 . S
C261 C262 1.392 . S
C261 H290 0.947 . S
C262 C261 1.392 . S
C262 C263 1.419 . S
C262 H291 0.948 . S
C263 C262 1.419 . S
C263 C264 1.391 . S
C263 C267 1.397 . S
C264 C259 1.391 . S
C264 C263 1.391 . S
C264 C265 1.399 . S
C265 C264 1.399 . S
C265 C266 1.396 . S
C265 C268 1.453 . S
C265 C269 1.684 . S
C266 C247 1.723 . S
C266 C265 1.396 . S
C266 C267 1.394 . S
C267 C263 1.397 . S
C267 C266 1.394 . S
C267 C277 1.723 . S
C268 C265 1.453 . S
C268 H292 0.982 . S
C268 H293 0.979 . S
C268 H294 0.977 . S
C269 C265 1.684 . S
C269 H295 0.979 . S
C269 H296 0.980 . S
C269 H297 0.983 . S
C270 H246 0.948 . S
C270 C271 1.391 . S
C270 C275 1.391 . S
C271 C270 1.391 . S
C271 C272 1.391 . S
C272 H249 0.947 . S
C272 C271 1.391 . S
C272 C273 1.392 . S
C273 H250 0.948 . S
C273 C272 1.392 . S
C273 C274 1.419 . S
C274 C273 1.419 . S
C274 C275 1.391 . S
C274 C278 1.397 . S
C275 C270 1.391 . S
C275 C274 1.391 . S
C275 C276 1.399 . S
C276 C275 1.399 . S
C276 C277 1.396 . S
C276 C279 1.453 . S
C276 C280 1.684 . S
C277 C267 1.723 . S
C277 C276 1.396 . S
C277 C278 1.394 . S
C278 C248 1.723 . S
C278 C274 1.397 . S
C278 C277 1.394 . S
C279 H251 0.982 . S
C279 H255 0.979 . S
C279 H256 0.977 . S
C279 C276 1.453 . S
C280 H252 0.979 . S
C280 H253 0.980 . S
C280 H254 0.983 . S
C280 C276 1.684 . S
H281 C299 0.948 . S
H282 C240 0.948 . S
H283 C258 0.979 . S
H284 C258 0.980 . S
H285 C258 0.983 . S
H286 C257 0.982 . S
H287 C257 0.979 . S
H288 C257 0.977 . S
H289 C259 0.948 . S
H290 C261 0.947 . S
H291 C262 0.948 . S
H292 C268 0.982 . S
H293 C268 0.979 . S
H294 C268 0.977 . S
H295 C269 0.979 . S
H296 C269 0.980 . S
H297 C269 0.983 . S
H298 C242 0.947 . S
C299 C242 1.392 . S
C299 C243 1.419 . S
C299 H281 0.948 . S
C300 C301 1.391 . S
C300 C304 1.391 . S
C300 H342 0.948 . S
C301 C300 1.391 . S
C301 C302 1.391 . S
C302 C301 1.391 . S
C302 H358 0.947 . S
C302 C359 1.392 . S
C303 C304 1.391 . S
C303 C307 1.397 . S
C303 C359 1.419 . S
C304 C300 1.391 . S
C304 C303 1.391 . S
C304 C305 1.399 . S
C305 C304 1.399 . S
C305 C308 1.396 . S
C305 C317 1.453 . S
C305 C318 1.684 . S
H306 C330 0.948 . S
C307 C303 1.397 . S
C307 C308 1.394 . S
C307 C326 1.723 . S
C308 C305 1.396 . S
C308 C307 1.394 . S
C308 C338 1.723 . S
H309 C332 0.947 . S
H310 C333 0.948 . S
H311 C339 0.982 . S
H312 C340 0.979 . S
H313 C340 0.980 . S
H314 C340 0.983 . S
H315 C339 0.979 . S
H316 C339 0.977 . S
C317 C305 1.453 . S
C317 H346 0.982 . S
C317 H347 0.979 . S
C317 H348 0.977 . S
C318 C305 1.684 . S
C318 H343 0.979 . S
C318 H344 0.980 . S
C318 H345 0.983 . S
C319 C320 1.391 . S
C319 C324 1.391 . S
C319 H349 0.948 . S
C320 C319 1.391 . S
C320 C321 1.391 . S
C321 C320 1.391 . S
C321 C322 1.392 . S
C321 H350 0.947 . S
C322 C321 1.392 . S
C322 C323 1.419 . S
C322 H351 0.948 . S
C323 C322 1.419 . S
C323 C324 1.391 . S
C323 C327 1.397 . S
C324 C319 1.391 . S
C324 C323 1.391 . S
C324 C325 1.399 . S
C325 C324 1.399 . S
C325 C326 1.396 . S
C325 C328 1.453 . S
C325 C329 1.684 . S
C326 C307 1.723 . S
C326 C325 1.396 . S
C326 C327 1.394 . S
C327 C323 1.397 . S
C327 C326 1.394 . S
C327 C337 1.723 . S
C328 C325 1.453 . S
C328 H352 0.982 . S
C328 H353 0.979 . S
C328 H354 0.977 . S
C329 C325 1.684 . S
C329 H355 0.979 . S
C329 H356 0.980 . S
C329 H357 0.983 . S
C330 H306 0.948 . S
C330 C331 1.391 . S
C330 C335 1.391 . S
C331 C330 1.391 . S
C331 C332 1.391 . S
C332 H309 0.947 . S
C332 C331 1.391 . S
C332 C333 1.392 . S
C333 H310 0.948 . S
C333 C332 1.392 . S
C333 C334 1.419 . S
C334 C333 1.419 . S
C334 C335 1.391 . S
C334 C338 1.397 . S
C335 C330 1.391 . S
C335 C334 1.391 . S
C335 C336 1.399 . S
C336 C335 1.399 . S
C336 C337 1.396 . S
C336 C339 1.453 . S
C336 C340 1.684 . S
C337 C327 1.723 . S
C337 C336 1.396 . S
C337 C338 1.394 . S
C338 C308 1.723 . S
C338 C334 1.397 . S
C338 C337 1.394 . S
C339 H311 0.982 . S
C339 H315 0.979 . S
C339 H316 0.977 . S
C339 C336 1.453 . S
C340 H312 0.979 . S
C340 H313 0.980 . S
C340 H314 0.983 . S
C340 C336 1.684 . S
H341 C359 0.948 . S
H342 C300 0.948 . S
H343 C318 0.979 . S
H344 C318 0.980 . S
H345 C318 0.983 . S
H346 C317 0.982 . S
H347 C317 0.979 . S
H348 C317 0.977 . S
H349 C319 0.948 . S
H350 C321 0.947 . S
H351 C322 0.948 . S
H352 C328 0.982 . S
H353 C328 0.979 . S
H354 C328 0.977 . S
H355 C329 0.979 . S
H356 C329 0.980 . S
H357 C329 0.983 . S
H358 C302 0.947 . S
C359 C302 1.392 . S
C359 C303 1.419 . S
C359 H341 0.948 . S
C360 C361 1.391 . S
C360 C364 1.391 . S
C360 H402 0.948 . S
C361 C360 1.391 . S
C361 C362 1.391 . S
C362 C361 1.391 . S
C362 H418 0.947 . S
C362 C419 1.392 . S
C363 C364 1.391 . S
C363 C367 1.397 . S
C363 C419 1.419 . S
C364 C360 1.391 . S
C364 C363 1.391 . S
C364 C365 1.399 . S
C365 C364 1.399 . S
C365 C368 1.396 . S
C365 C377 1.453 . S
C365 C378 1.684 . S
H366 C390 0.948 . S
C367 C363 1.397 . S
C367 C368 1.394 . S
C367 C386 1.723 . S
C368 C365 1.396 . S
C368 C367 1.394 . S
C368 C398 1.723 . S
H369 C392 0.947 . S
H370 C393 0.948 . S
H371 C399 0.982 . S
H372 C400 0.979 . S
H373 C400 0.980 . S
H374 C400 0.983 . S
H375 C399 0.979 . S
H376 C399 0.977 . S
C377 C365 1.453 . S
C377 H406 0.982 . S
C377 H407 0.979 . S
C377 H408 0.977 . S
C378 C365 1.684 . S
C378 H403 0.979 . S
C378 H404 0.980 . S
C378 H405 0.983 . S
C379 C380 1.391 . S
C379 C384 1.391 . S
C379 H409 0.948 . S
C380 C379 1.391 . S
C380 C381 1.391 . S
C381 C380 1.391 . S
C381 C382 1.392 . S
C381 H410 0.947 . S
C382 C381 1.392 . S
C382 C383 1.419 . S
C382 H411 0.948 . S
C383 C382 1.419 . S
C383 C384 1.391 . S
C383 C387 1.397 . S
C384 C379 1.391 . S
C384 C383 1.391 . S
C384 C385 1.399 . S
C385 C384 1.399 . S
C385 C386 1.396 . S
C385 C388 1.453 . S
C385 C389 1.684 . S
C386 C367 1.723 . S
C386 C385 1.396 . S
C386 C387 1.394 . S
C387 C383 1.397 . S
C387 C386 1.394 . S
C387 C397 1.723 . S
C388 C385 1.453 . S
C388 H412 0.982 . S
C388 H413 0.979 . S
C388 H414 0.977 . S
C389 C385 1.684 . S
C389 H415 0.979 . S
C389 H416 0.980 . S
C389 H417 0.983 . S
C390 H366 0.948 . S
C390 C391 1.391 . S
C390 C395 1.391 . S
C391 C390 1.391 . S
C391 C392 1.391 . S
C392 H369 0.947 . S
C392 C391 1.391 . S
C392 C393 1.392 . S
C393 H370 0.948 . S
C393 C392 1.392 . S
C393 C394 1.419 . S
C394 C393 1.419 . S
C394 C395 1.391 . S
C394 C398 1.397 . S
C395 C390 1.391 . S
C395 C394 1.391 . S
C395 C396 1.399 . S
C396 C395 1.399 . S
C396 C397 1.396 . S
C396 C399 1.453 . S
C396 C400 1.684 . S
C397 C387 1.723 . S
C397 C396 1.396 . S
C397 C398 1.394 . S
C398 C368 1.723 . S
C398 C394 1.397 . S
C398 C397 1.394 . S
C399 H371 0.982 . S
C399 H375 0.979 . S
C399 H376 0.977 . S
C399 C396 1.453 . S
C400 H372 0.979 . S
C400 H373 0.980 . S
C400 H374 0.983 . S
C400 C396 1.684 . S
H401 C419 0.948 . S
H402 C360 0.948 . S
H403 C378 0.979 . S
H404 C378 0.980 . S
H405 C378 0.983 . S
H406 C377 0.982 . S
H407 C377 0.979 . S
H408 C377 0.977 . S
H409 C379 0.948 . S
H410 C381 0.947 . S
H411 C382 0.948 . S
H412 C388 0.982 . S
H413 C388 0.979 . S
H414 C388 0.977 . S
H415 C389 0.979 . S
H416 C389 0.980 . S
H417 C389 0.983 . S
H418 C362 0.947 . S
C419 C362 1.392 . S
C419 C363 1.419 . S
C419 H401 0.948 . S
C420 C421 1.391 . S
C420 C424 1.391 . S
C420 H462 0.948 . S
C421 C420 1.391 . S
C421 C422 1.391 . S
C422 C421 1.391 . S
C422 H478 0.947 . S
C422 C479 1.392 . S
C423 C424 1.391 . S
C423 C427 1.397 . S
C423 C479 1.419 . S
C424 C420 1.391 . S
C424 C423 1.391 . S
C424 C425 1.399 . S
C425 C424 1.399 . S
C425 C428 1.396 . S
C425 C437 1.453 . S
C425 C438 1.684 . S
H426 C450 0.948 . S
C427 C423 1.397 . S
C427 C428 1.394 . S
C427 C446 1.723 . S
C428 C425 1.396 . S
C428 C427 1.394 . S
C428 C458 1.723 . S
H429 C452 0.947 . S
H430 C453 0.948 . S
H431 C459 0.982 . S
H432 C460 0.979 . S
H433 C460 0.980 . S
H434 C460 0.983 . S
H435 C459 0.979 . S
H436 C459 0.977 . S
C437 C425 1.453 . S
C437 H466 0.982 . S
C437 H467 0.979 . S
C437 H468 0.977 . S
C438 C425 1.684 . S
C438 H463 0.979 . S
C438 H464 0.980 . S
C438 H465 0.983 . S
C439 C440 1.391 . S
C439 C444 1.391 . S
C439 H469 0.948 . S
C440 C439 1.391 . S
C440 C441 1.391 . S
C441 C440 1.391 . S
C441 C442 1.392 . S
C441 H470 0.947 . S
C442 C441 1.392 . S
C442 C443 1.419 . S
C442 H471 0.948 . S
C443 C442 1.419 . S
C443 C444 1.391 . S
C443 C447 1.397 . S
C444 C439 1.391 . S
C444 C443 1.391 . S
C444 C445 1.399 . S
C445 C444 1.399 . S
C445 C446 1.396 . S
C445 C448 1.453 . S
C445 C449 1.684 . S
C446 C427 1.723 . S
C446 C445 1.396 . S
C446 C447 1.394 . S
C447 C443 1.397 . S
C447 C446 1.394 . S
C447 C457 1.723 . S
C448 C445 1.453 . S
C448 H472 0.982 . S
C448 H473 0.979 . S
C448 H474 0.977 . S
C449 C445 1.684 . S
C449 H475 0.979 . S
C449 H476 0.980 . S
C449 H477 0.983 . S
C450 H426 0.948 . S
C450 C451 1.391 . S
C450 C455 1.391 . S
C451 C450 1.391 . S
C451 C452 1.391 . S
C452 H429 0.947 . S
C452 C451 1.391 . S
C452 C453 1.392 . S
C453 H430 0.948 . S
C453 C452 1.392 . S
C453 C454 1.419 . S
C454 C453 1.419 . S
C454 C455 1.391 . S
C454 C458 1.397 . S
C455 C450 1.391 . S
C455 C454 1.391 . S
C455 C456 1.399 . S
C456 C455 1.399 . S
C456 C457 1.396 . S
C456 C459 1.453 . S
C456 C460 1.684 . S
C457 C447 1.723 . S
C457 C456 1.396 . S
C457 C458 1.394 . S
C458 C428 1.723 . S
C458 C454 1.397 . S
C458 C457 1.394 . S
C459 H431 0.982 . S
C459 H435 0.979 . S
C459 H436 0.977 . S
C459 C456 1.453 . S
C460 H432 0.979 . S
C460 H433 0.980 . S
C460 H434 0.983 . S
C460 C456 1.684 . S
H461 C479 0.948 . S
H462 C420 0.948 . S
H463 C438 0.979 . S
H464 C438 0.980 . S
H465 C438 0.983 . S
H466 C437 0.982 . S
H467 C437 0.979 . S
H468 C437 0.977 . S
H469 C439 0.948 . S
H470 C441 0.947 . S
H471 C442 0.948 . S
H472 C448 0.982 . S
H473 C448 0.979 . S
H474 C448 0.977 . S
H475 C449 0.979 . S
H476 C449 0.980 . S
H477 C449 0.983 . S
H478 C422 0.947 . S
C479 C422 1.392 . S
C479 C423 1.419 . S
C479 H461 0.948 . S
Co480 N485 2.057 . S
Co480 O497 2.021 . S
Co480 O500 2.062 . S
Co480 O504 2.117 1_545 S
Co480 O505 2.020 1_545 S
C481 O501 1.259 1_655 S
C481 O504 1.258 . S
Co482 N491 2.057 . S
Co482 O498 2.117 1_565 S
Co482 O499 2.020 1_565 S
Co482 O501 2.021 . S
Co482 O506 2.062 . S
C483 N485 1.316 . S
C483 N486 1.347 . S
C483 H488 0.931 . S
C484 N485 1.375 1_565 S
C484 C487 1.350 1_565 S
C484 H489 0.930 . S
N485 Co480 2.057 . S
N485 C483 1.316 . S
N485 C484 1.375 1_545 S
N486 C483 1.347 . S
N486 C487 1.373 . S
C487 C484 1.350 1_545 S
C487 N486 1.373 . S
C487 H508 0.931 1_545 S
H488 C483 0.931 . S
H489 C484 0.930 . S
C490 O497 1.259 1_455 S
C490 O498 1.258 . S
N491 Co482 2.057 . S
N491 C492 1.316 . S
N491 C493 1.375 1_565 S
C492 N491 1.316 . S
C492 N494 1.347 . S
C492 H503 0.931 . S
C493 N491 1.375 1_545 S
C493 C495 1.350 1_545 S
C493 H502 0.930 . S
N494 C492 1.347 . S
N494 C495 1.373 . S
C495 C493 1.350 1_565 S
C495 N494 1.373 . S
C495 H509 0.931 1_565 S
C496 O499 1.256 . S
C496 O500 1.255 1_455 S
O497 Co480 2.021 . S
O497 C490 1.259 1_655 S
O498 Co482 2.117 1_545 S
O498 C490 1.258 . S
O499 Co482 2.020 1_545 S
O499 C496 1.256 . S
O500 Co480 2.062 . S
O500 C496 1.255 1_655 S
O501 C481 1.259 1_455 S
O501 Co482 2.021 . S
H502 C493 0.930 . S
H503 C492 0.931 . S
O504 Co480 2.117 1_565 S
O504 C481 1.258 . S
O505 Co480 2.020 1_565 S
O505 C507 1.256 . S
O506 Co482 2.062 . S
O506 C507 1.255 1_455 S
C507 O505 1.256 . S
C507 O506 1.255 1_655 S
H508 C487 0.931 1_565 S
H509 C495 0.931 1_545 S
Co510 N515 2.057 . S
Co510 O527 2.021 1_565 S
Co510 O530 2.062 . S
Co510 O534 2.117 . S
Co510 O535 2.020 1_565 S
C511 O531 1.259 . S
C511 O534 1.258 1_554 S
Co512 N521 2.057 . S
Co512 O528 2.117 . S
Co512 O529 2.020 1_545 S
Co512 O531 2.021 1_545 S
Co512 O536 2.062 . S
C513 N515 1.316 . S
C513 N516 1.347 . S
C513 H518 0.931 1_565 S
C514 N515 1.375 . S
C514 C517 1.350 . S
C514 H519 0.930 . S
N515 Co510 2.057 . S
N515 C513 1.316 . S
N515 C514 1.375 . S
N516 C513 1.347 . S
N516 C517 1.373 . S
C517 C514 1.350 . S
C517 N516 1.373 . S
C517 H538 0.931 . S
H518 C513 0.931 1_545 S
H519 C514 0.930 . S
C520 O527 1.259 . S
C520 O528 1.258 1_556 S
N521 Co512 2.057 . S
N521 C522 1.316 . S
N521 C523 1.375 . S
C522 N521 1.316 . S
C522 N524 1.347 . S
C522 H533 0.931 1_545 S
C523 N521 1.375 . S
C523 C525 1.350 . S
C523 H532 0.930 . S
N524 C522 1.347 . S
N524 C525 1.373 . S
C525 C523 1.350 . S
C525 N524 1.373 . S
C525 H539 0.931 . S
C526 O529 1.256 1_556 S
C526 O530 1.255 . S
O527 Co510 2.021 1_545 S
O527 C520 1.259 . S
O528 Co512 2.117 . S
O528 C520 1.258 1_554 S
O529 Co512 2.020 1_565 S
O529 C526 1.256 1_554 S
O530 Co510 2.062 . S
O530 C526 1.255 . S
O531 C511 1.259 . S
O531 Co512 2.021 1_565 S
H532 C523 0.930 . S
H533 C522 0.931 1_565 S
O534 Co510 2.117 . S
O534 C511 1.258 1_556 S
O535 Co510 2.020 1_545 S
O535 C537 1.256 1_556 S
O536 Co512 2.062 . S
O536 C537 1.255 . S
C537 O535 1.256 1_554 S
C537 O536 1.255 . S
H538 C517 0.931 . S
H539 C525 0.931 . S
Co540 N545 2.057 . S
Co540 O557 2.021 . S
Co540 O560 2.062 . S
Co540 O564 2.117 . S
Co540 O565 2.020 . S
C541 O561 1.259 . S
C541 O564 1.258 . S
Co542 N551 2.057 . S
Co542 O558 2.117 . S
Co542 O559 2.020 . S
Co542 O561 2.021 . S
Co542 O566 2.062 . S
C543 N545 1.316 . S
C543 N546 1.347 . S
C543 H548 0.931 . S
C544 N545 1.375 . S
C544 C547 1.350 . S
C544 H549 0.930 . S
N545 Co540 2.057 . S
N545 C543 1.316 . S
N545 C544 1.375 . S
N546 C543 1.347 . S
N546 C547 1.373 . S
C547 C544 1.350 . S
C547 N546 1.373 . S
C547 H568 0.931 . S
H548 C543 0.931 . S
H549 C544 0.930 . S
C550 O557 1.259 . S
C550 O558 1.258 . S
N551 Co542 2.057 . S
N551 C552 1.316 . S
N551 C553 1.375 . S
C552 N551 1.316 . S
C552 N554 1.347 . S
C552 H563 0.931 . S
C553 N551 1.375 . S
C553 C555 1.350 . S
C553 H562 0.930 . S
N554 C552 1.347 . S
N554 C555 1.373 . S
C555 C553 1.350 . S
C555 N554 1.373 . S
C555 H569 0.931 . S
C556 O559 1.256 . S
C556 O560 1.255 . S
O557 Co540 2.021 . S
O557 C550 1.259 . S
O558 Co542 2.117 . S
O558 C550 1.258 . S
O559 Co542 2.020 . S
O559 C556 1.256 . S
O560 Co540 2.062 . S
O560 C556 1.255 . S
O561 C541 1.259 . S
O561 Co542 2.021 . S
H562 C553 0.930 . S
H563 C552 0.931 . S
O564 Co540 2.117 . S
O564 C541 1.258 . S
O565 Co540 2.020 . S
O565 C567 1.256 . S
O566 Co542 2.062 . S
O566 C567 1.255 . S
C567 O565 1.256 . S
C567 O566 1.255 . S
H568 C547 0.931 . S
H569 C555 0.931 . S
Co570 N575 2.057 . S
Co570 O587 2.021 . S
Co570 O590 2.062 . S
Co570 O594 2.117 1_455 S
Co570 O595 2.020 1_455 S
C571 O591 1.259 1_556 S
C571 O594 1.258 . S
Co572 N581 2.057 . S
Co572 O588 2.117 1_655 S
Co572 O589 2.020 1_655 S
Co572 O591 2.021 . S
Co572 O596 2.062 . S
C573 N575 1.316 . S
C573 N576 1.347 . S
C573 H578 0.931 . S
C574 N575 1.375 1_655 S
C574 C577 1.350 1_655 S
C574 H579 0.930 . S
N575 Co570 2.057 . S
N575 C573 1.316 . S
N575 C574 1.375 1_455 S
N576 C573 1.347 . S
N576 C577 1.373 . S
C577 C574 1.350 1_455 S
C577 N576 1.373 . S
C577 H598 0.931 1_455 S
H578 C573 0.931 . S
H579 C574 0.930 . S
C580 O587 1.259 1_554 S
C580 O588 1.258 . S
N581 Co572 2.057 . S
N581 C582 1.316 . S
N581 C583 1.375 1_655 S
C582 N581 1.316 . S
C582 N584 1.347 . S
C582 H593 0.931 . S
C583 N581 1.375 1_455 S
C583 C585 1.350 1_455 S
C583 H592 0.930 . S
N584 C582 1.347 . S
N584 C585 1.373 . S
C585 C583 1.350 1_655 S
C585 N584 1.373 . S
C585 H599 0.931 1_655 S
C586 O589 1.256 . S
C586 O590 1.255 1_554 S
O587 Co570 2.021 . S
O587 C580 1.259 1_556 S
O588 Co572 2.117 1_455 S
O588 C580 1.258 . S
O589 Co572 2.020 1_455 S
O589 C586 1.256 . S
O590 Co570 2.062 . S
O590 C586 1.255 1_556 S
O591 C571 1.259 1_554 S
O591 Co572 2.021 . S
H592 C583 0.930 . S
H593 C582 0.931 . S
O594 Co570 2.117 1_655 S
O594 C571 1.258 . S
O595 Co570 2.020 1_655 S
O595 C597 1.256 . S
O596 Co572 2.062 . S
O596 C597 1.255 1_554 S
C597 O595 1.256 . S
C597 O596 1.255 1_556 S
H598 C577 0.931 1_655 S
H599 C585 0.931 1_455 S
H600 C606 0.930 . S
H601 C610 0.930 1_565 S
H602 C615 0.929 . S
H603 C613 0.929 . S
H604 C608 0.929 . S
H605 C614 0.929 . S
C606 H600 0.930 . S
C606 C607 1.367 . S
C606 C614 1.378 . S
C607 C606 1.367 . S
C607 C615 1.433 . S
C608 H604 0.929 . S
C608 C610 1.378 . S
C608 C612 1.350 . S
C609 C612 1.463 . S
C609 C614 1.350 . S
C609 N617 1.427 . S
C610 H601 0.930 1_545 S
C610 C608 1.378 . S
C610 C611 1.367 . S
C611 C610 1.367 . S
C611 C613 1.433 . S
C612 C608 1.350 . S
C612 C609 1.463 . S
C612 N616 1.427 . S
C613 H603 0.929 . S
C613 C611 1.433 . S
C613 N616 1.384 . S
C614 H605 0.929 . S
C614 C606 1.378 . S
C614 C609 1.350 . S
C615 H602 0.929 . S
C615 C607 1.433 . S
C615 N617 1.384 . S
N616 C612 1.427 . S
N616 C613 1.384 . S
N617 C609 1.427 . S
N617 C615 1.384 . S
H618 C624 0.930 . S
H619 C628 0.930 . S
H620 C633 0.929 . S
H621 C631 0.929 . S
H622 C626 0.929 . S
H623 C632 0.929 . S
C624 H618 0.930 . S
C624 C625 1.367 . S
C624 C632 1.378 . S
C625 C624 1.367 . S
C625 C633 1.433 . S
C626 H622 0.929 . S
C626 C628 1.378 . S
C626 C630 1.350 . S
C627 C630 1.463 . S
C627 C632 1.350 . S
C627 N635 1.427 . S
C628 H619 0.930 . S
C628 C626 1.378 . S
C628 C629 1.367 . S
C629 C628 1.367 . S
C629 C631 1.433 . S
C630 C626 1.350 . S
C630 C627 1.463 . S
C630 N634 1.427 . S
C631 H621 0.929 . S
C631 C629 1.433 . S
C631 N634 1.384 . S
C632 H623 0.929 . S
C632 C624 1.378 . S
C632 C627 1.350 . S
C633 H620 0.929 . S
C633 C625 1.433 . S
C633 N635 1.384 . S
N634 C630 1.427 . S
N634 C631 1.384 . S
N635 C627 1.427 . S
N635 C633 1.384 . S
H636 C642 0.930 . S
H637 C646 0.930 . S
H638 C651 0.929 . S
H639 C649 0.929 . S
H640 C644 0.929 . S
H641 C650 0.929 . S
C642 H636 0.930 . S
C642 C643 1.367 . S
C642 C650 1.378 . S
C643 C642 1.367 . S
C643 C651 1.433 . S
C644 H640 0.929 . S
C644 C646 1.378 . S
C644 C648 1.350 . S
C645 C648 1.463 . S
C645 C650 1.350 . S
C645 N653 1.427 . S
C646 H637 0.930 . S
C646 C644 1.378 . S
C646 C647 1.367 . S
C647 C646 1.367 . S
C647 C649 1.433 . S
C648 C644 1.350 . S
C648 C645 1.463 . S
C648 N652 1.427 . S
C649 H639 0.929 . S
C649 C647 1.433 . S
C649 N652 1.384 . S
C650 H641 0.929 . S
C650 C642 1.378 . S
C650 C645 1.350 . S
C651 H638 0.929 . S
C651 C643 1.433 . S
C651 N653 1.384 . S
N652 C648 1.427 . S
N652 C649 1.384 . S
N653 C645 1.427 . S
N653 C651 1.384 . S
H654 C660 0.930 . S
H655 C664 0.930 . S
H656 C669 0.929 . S
H657 C667 0.929 . S
H658 C662 0.929 . S
H659 C668 0.929 . S
C660 H654 0.930 . S
C660 C661 1.367 . S
C660 C668 1.378 . S
C661 C660 1.367 . S
C661 C669 1.433 . S
C662 H658 0.929 . S
C662 C664 1.378 . S
C662 C666 1.350 . S
C663 C666 1.463 . S
C663 C668 1.350 . S
C663 N671 1.427 . S
C664 H655 0.930 . S
C664 C662 1.378 . S
C664 C665 1.367 . S
C665 C664 1.367 . S
C665 C667 1.433 . S
C666 C662 1.350 . S
C666 C663 1.463 . S
C666 N670 1.427 . S
C667 H657 0.929 . S
C667 C665 1.433 . S
C667 N670 1.384 . S
C668 H659 0.929 . S
C668 C660 1.378 . S
C668 C663 1.350 . S
C669 H656 0.929 . S
C669 C661 1.433 . S
C669 N671 1.384 . S
N670 C666 1.427 . S
N670 C667 1.384 . S
N671 C663 1.427 . S
N671 C669 1.384 . S
H672 C678 0.930 . S
H673 C682 0.930 . S
H674 C687 0.929 . S
H675 C685 0.929 1_556 S
H676 C680 0.929 . S
H677 C686 0.929 . S
C678 H672 0.930 . S
C678 C679 1.367 . S
C678 C686 1.378 . S
C679 C678 1.367 . S
C679 C687 1.433 . S
C680 H676 0.929 . S
C680 C682 1.378 . S
C680 C684 1.350 . S
C681 C684 1.463 . S
C681 C686 1.350 . S
C681 N689 1.427 . S
C682 H673 0.930 . S
C682 C680 1.378 . S
C682 C683 1.367 . S
C683 C682 1.367 . S
C683 C685 1.433 . S
C684 C680 1.350 . S
C684 C681 1.463 . S
C684 N688 1.427 . S
C685 H675 0.929 1_554 S
C685 C683 1.433 . S
C685 N688 1.384 . S
C686 H677 0.929 . S
C686 C678 1.378 . S
C686 C681 1.350 . S
C687 H674 0.929 . S
C687 C679 1.433 . S
C687 N689 1.384 . S
N688 C684 1.427 . S
N688 C685 1.384 . S
N689 C681 1.427 . S
N689 C687 1.384 . S
H690 C696 0.930 . S
H691 C700 0.930 . S
H692 C705 0.929 . S
H693 C703 0.929 . S
H694 C698 0.929 . S
H695 C704 0.929 . S
C696 H690 0.930 . S
C696 C697 1.367 . S
C696 C704 1.378 . S
C697 C696 1.367 . S
C697 C705 1.433 . S
C698 H694 0.929 . S
C698 C700 1.378 . S
C698 C702 1.350 . S
C699 C702 1.463 . S
C699 C704 1.350 . S
C699 N707 1.427 . S
C700 H691 0.930 . S
C700 C698 1.378 . S
C700 C701 1.367 . S
C701 C700 1.367 . S
C701 C703 1.433 . S
C702 C698 1.350 . S
C702 C699 1.463 . S
C702 N706 1.427 . S
C703 H693 0.929 . S
C703 C701 1.433 . S
C703 N706 1.384 . S
C704 H695 0.929 . S
C704 C696 1.378 . S
C704 C699 1.350 . S
C705 H692 0.929 . S
C705 C697 1.433 . S
C705 N707 1.384 . S
N706 C702 1.427 . S
N706 C703 1.384 . S
N707 C699 1.427 . S
N707 C705 1.384 . S
H708 C714 0.930 . S
H709 C718 0.930 1_554 S
H710 C723 0.929 . S
H711 C721 0.929 . S
H712 C716 0.929 . S
H713 C722 0.929 . S
C714 H708 0.930 . S
C714 C715 1.367 . S
C714 C722 1.378 . S
C715 C714 1.367 . S
C715 C723 1.433 . S
C716 H712 0.929 . S
C716 C718 1.378 . S
C716 C720 1.350 . S
C717 C720 1.463 . S
C717 C722 1.350 . S
C717 N725 1.427 . S
C718 H709 0.930 1_556 S
C718 C716 1.378 . S
C718 C719 1.367 . S
C719 C718 1.367 . S
C719 C721 1.433 . S
C720 C716 1.350 . S
C720 C717 1.463 . S
C720 N724 1.427 . S
C721 H711 0.929 . S
C721 C719 1.433 . S
C721 N724 1.384 . S
C722 H713 0.929 . S
C722 C714 1.378 . S
C722 C717 1.350 . S
C723 H710 0.929 . S
C723 C715 1.433 . S
C723 N725 1.384 . S
N724 C720 1.427 . S
N724 C721 1.384 . S
N725 C717 1.427 . S
N725 C723 1.384 . S
H726 C732 0.930 . S
H727 C736 0.930 . S
H728 C741 0.929 . S
H729 C739 0.929 . S
H730 C734 0.929 . S
H731 C740 0.929 . S
C732 H726 0.930 . S
C732 C733 1.367 . S
C732 C740 1.378 . S
C733 C732 1.367 . S
C733 C741 1.433 . S
C734 H730 0.929 . S
C734 C736 1.378 . S
C734 C738 1.350 . S
C735 C738 1.463 . S
C735 C740 1.350 . S
C735 N743 1.427 . S
C736 H727 0.930 . S
C736 C734 1.378 . S
C736 C737 1.367 . S
C737 C736 1.367 . S
C737 C739 1.433 . S
C738 C734 1.350 . S
C738 C735 1.463 . S
C738 N742 1.427 . S
C739 H729 0.929 . S
C739 C737 1.433 . S
C739 N742 1.384 . S
C740 H731 0.929 . S
C740 C732 1.378 . S
C740 C735 1.350 . S
C741 H728 0.929 . S
C741 C733 1.433 . S
C741 N743 1.384 . S
N742 C738 1.427 . S
N742 C739 1.384 . S
N743 C735 1.427 . S
N743 C741 1.384 . S
H744 C750 0.930 . S
H745 C754 0.930 1_556 S
H746 C759 0.929 . S
H747 C757 0.929 . S
H748 C752 0.929 1_556 S
H749 C758 0.929 . S
C750 H744 0.930 . S
C750 C751 1.367 . S
C750 C758 1.378 . S
C751 C750 1.367 . S
C751 C759 1.433 . S
C752 H748 0.929 1_554 S
C752 C754 1.378 . S
C752 C756 1.350 . S
C753 C756 1.463 . S
C753 C758 1.350 . S
C753 N761 1.427 . S
C754 H745 0.930 1_554 S
C754 C752 1.378 . S
C754 C755 1.367 . S
C755 C754 1.367 . S
C755 C757 1.433 . S
C756 C752 1.350 . S
C756 C753 1.463 . S
C756 N760 1.427 . S
C757 H747 0.929 . S
C757 C755 1.433 . S
C757 N760 1.384 . S
C758 H749 0.929 . S
C758 C750 1.378 . S
C758 C753 1.350 . S
C759 H746 0.929 . S
C759 C751 1.433 . S
C759 N761 1.384 . S
N760 C756 1.427 . S
N760 C757 1.384 . S
N761 C753 1.427 . S
N761 C759 1.384 . S
H762 C768 0.930 . S
H763 C772 0.930 . S
H764 C777 0.929 . S
H765 C775 0.929 . S
H766 C770 0.929 . S
H767 C776 0.929 . S
C768 H762 0.930 . S
C768 C769 1.367 . S
C768 C776 1.378 . S
C769 C768 1.367 . S
C769 C777 1.433 . S
C770 H766 0.929 . S
C770 C772 1.378 . S
C770 C774 1.350 . S
C771 C774 1.463 . S
C771 C776 1.350 . S
C771 N779 1.427 . S
C772 H763 0.930 . S
C772 C770 1.378 . S
C772 C773 1.367 . S
C773 C772 1.367 . S
C773 C775 1.433 . S
C774 C770 1.350 . S
C774 C771 1.463 . S
C774 N778 1.427 . S
C775 H765 0.929 . S
C775 C773 1.433 . S
C775 N778 1.384 . S
C776 H767 0.929 . S
C776 C768 1.378 . S
C776 C771 1.350 . S
C777 H764 0.929 . S
C777 C769 1.433 . S
C777 N779 1.384 . S
N778 C774 1.427 . S
N778 C775 1.384 . S
N779 C771 1.427 . S
N779 C777 1.384 . S
H780 C786 0.930 . S
H781 C790 0.930 . S
H782 C795 0.929 . S
H783 C793 0.929 . S
H784 C788 0.929 . S
H785 C794 0.929 . S
C786 H780 0.930 . S
C786 C787 1.367 . S
C786 C794 1.378 . S
C787 C786 1.367 . S
C787 C795 1.433 . S
C788 H784 0.929 . S
C788 C790 1.378 . S
C788 C792 1.350 . S
C789 C792 1.463 . S
C789 C794 1.350 . S
C789 N797 1.427 . S
C790 H781 0.930 . S
C790 C788 1.378 . S
C790 C791 1.367 . S
C791 C790 1.367 . S
C791 C793 1.433 . S
C792 C788 1.350 . S
C792 C789 1.463 . S
C792 N796 1.427 . S
C793 H783 0.929 . S
C793 C791 1.433 . S
C793 N796 1.384 . S
C794 H785 0.929 . S
C794 C786 1.378 . S
C794 C789 1.350 . S
C795 H782 0.929 . S
C795 C787 1.433 . S
C795 N797 1.384 . S
N796 C792 1.427 . S
N796 C793 1.384 . S
N797 C789 1.427 . S
N797 C795 1.384 . S
H798 C804 0.930 . S
H799 C808 0.930 . S
H800 C813 0.929 . S
H801 C811 0.929 . S
H802 C806 0.929 . S
H803 C812 0.929 . S
C804 H798 0.930 . S
C804 C805 1.367 . S
C804 C812 1.378 . S
C805 C804 1.367 . S
C805 C813 1.433 . S
C806 H802 0.929 . S
C806 C808 1.378 . S
C806 C810 1.350 . S
C807 C810 1.463 . S
C807 C812 1.350 . S
C807 N815 1.427 . S
C808 H799 0.930 . S
C808 C806 1.378 . S
C808 C809 1.367 . S
C809 C808 1.367 . S
C809 C811 1.433 . S
C810 C806 1.350 . S
C810 C807 1.463 . S
C810 N814 1.427 . S
C811 H801 0.929 . S
C811 C809 1.433 . S
C811 N814 1.384 . S
C812 H803 0.929 . S
C812 C804 1.378 . S
C812 C807 1.350 . S
C813 H800 0.929 . S
C813 C805 1.433 . S
C813 N815 1.384 . S
N814 C810 1.427 . S
N814 C811 1.384 . S
N815 C807 1.427 . S
N815 C813 1.384 . S
H816 C822 0.930 . S
H817 C826 0.930 . S
H818 C831 0.929 . S
H819 C829 0.929 1_545 S
H820 C824 0.929 . S
H821 C830 0.929 . S
C822 H816 0.930 . S
C822 C823 1.367 . S
C822 C830 1.378 . S
C823 C822 1.367 . S
C823 C831 1.433 . S
C824 H820 0.929 . S
C824 C826 1.378 . S
C824 C828 1.350 . S
C825 C828 1.463 . S
C825 C830 1.350 . S
C825 N833 1.427 . S
C826 H817 0.930 . S
C826 C824 1.378 . S
C826 C827 1.367 . S
C827 C826 1.367 . S
C827 C829 1.433 . S
C828 C824 1.350 . S
C828 C825 1.463 . S
C828 N832 1.427 . S
C829 H819 0.929 1_565 S
C829 C827 1.433 . S
C829 N832 1.384 . S
C830 H821 0.929 . S
C830 C822 1.378 . S
C830 C825 1.350 . S
C831 H818 0.929 . S
C831 C823 1.433 . S
C831 N833 1.384 . S
N832 C828 1.427 . S
N832 C829 1.384 . S
N833 C825 1.427 . S
N833 C831 1.384 . S
H834 C840 0.930 . S
H835 C844 0.930 . S
H836 C849 0.929 . S
H837 C847 0.929 . S
H838 C842 0.929 . S
H839 C848 0.929 . S
C840 H834 0.930 . S
C840 C841 1.367 . S
C840 C848 1.378 . S
C841 C840 1.367 . S
C841 C849 1.433 . S
C842 H838 0.929 . S
C842 C844 1.378 . S
C842 C846 1.350 . S
C843 C846 1.463 . S
C843 C848 1.350 . S
C843 N851 1.427 . S
C844 H835 0.930 . S
C844 C842 1.378 . S
C844 C845 1.367 . S
C845 C844 1.367 . S
C845 C847 1.433 . S
C846 C842 1.350 . S
C846 C843 1.463 . S
C846 N850 1.427 . S
C847 H837 0.929 . S
C847 C845 1.433 . S
C847 N850 1.384 . S
C848 H839 0.929 . S
C848 C840 1.378 . S
C848 C843 1.350 . S
C849 H836 0.929 . S
C849 C841 1.433 . S
C849 N851 1.384 . S
N850 C846 1.427 . S
N850 C847 1.384 . S
N851 C843 1.427 . S
N851 C849 1.384 . S
H852 C858 0.930 . S
H853 C862 0.930 . S
H854 C867 0.929 . S
H855 C865 0.929 . S
H856 C860 0.929 . S
H857 C866 0.929 . S
C858 H852 0.930 . S
C858 C859 1.367 . S
C858 C866 1.378 . S
C859 C858 1.367 . S
C859 C867 1.433 . S
C860 H856 0.929 . S
C860 C862 1.378 . S
C860 C864 1.350 . S
C861 C864 1.463 . S
C861 C866 1.350 . S
C861 N869 1.427 . S
C862 H853 0.930 . S
C862 C860 1.378 . S
C862 C863 1.367 . S
C863 C862 1.367 . S
C863 C865 1.433 . S
C864 C860 1.350 . S
C864 C861 1.463 . S
C864 N868 1.427 . S
C865 H855 0.929 . S
C865 C863 1.433 . S
C865 N868 1.384 . S
C866 H857 0.929 . S
C866 C858 1.378 . S
C866 C861 1.350 . S
C867 H854 0.929 . S
C867 C859 1.433 . S
C867 N869 1.384 . S
N868 C864 1.427 . S
N868 C865 1.384 . S
N869 C861 1.427 . S
N869 C867 1.384 . S
H870 C876 0.930 . S
H871 C880 0.930 . S
H872 C885 0.929 . S
H873 C883 0.929 . S
H874 C878 0.929 . S
H875 C884 0.929 . S
C876 H870 0.930 . S
C876 C877 1.367 . S
C876 C884 1.378 . S
C877 C876 1.367 . S
C877 C885 1.433 . S
C878 H874 0.929 . S
C878 C880 1.378 . S
C878 C882 1.350 . S
C879 C882 1.463 . S
C879 C884 1.350 . S
C879 N887 1.427 . S
C880 H871 0.930 . S
C880 C878 1.378 . S
C880 C881 1.367 . S
C881 C880 1.367 . S
C881 C883 1.433 . S
C882 C878 1.350 . S
C882 C879 1.463 . S
C882 N886 1.427 . S
C883 H873 0.929 . S
C883 C881 1.433 . S
C883 N886 1.384 . S
C884 H875 0.929 . S
C884 C876 1.378 . S
C884 C879 1.350 . S
C885 H872 0.929 . S
C885 C877 1.433 . S
C885 N887 1.384 . S
N886 C882 1.427 . S
N886 C883 1.384 . S
N887 C879 1.427 . S
N887 C885 1.384 . S
H888 C894 0.930 . S
H889 C898 0.930 . S
H890 C903 0.929 . S
H891 C901 0.929 1_545 S
H892 C896 0.929 . S
H893 C902 0.929 . S
C894 H888 0.930 . S
C894 C895 1.367 . S
C894 C902 1.378 . S
C895 C894 1.367 . S
C895 C903 1.433 . S
C896 H892 0.929 . S
C896 C898 1.378 . S
C896 C900 1.350 . S
C897 C900 1.463 . S
C897 C902 1.350 . S
C897 N905 1.427 . S
C898 H889 0.930 . S
C898 C896 1.378 . S
C898 C899 1.367 . S
C899 C898 1.367 . S
C899 C901 1.433 . S
C900 C896 1.350 . S
C900 C897 1.463 . S
C900 N904 1.427 . S
C901 H891 0.929 1_565 S
C901 C899 1.433 . S
C901 N904 1.384 . S
C902 H893 0.929 . S
C902 C894 1.378 . S
C902 C897 1.350 . S
C903 H890 0.929 . S
C903 C895 1.433 . S
C903 N905 1.384 . S
N904 C900 1.427 . S
N904 C901 1.384 . S
N905 C897 1.427 . S
N905 C903 1.384 . S
H906 C912 0.930 . S
H907 C916 0.930 . S
H908 C921 0.929 . S
H909 C919 0.929 . S
H910 C914 0.929 . S
H911 C920 0.929 . S
C912 H906 0.930 . S
C912 C913 1.367 . S
C912 C920 1.378 . S
C913 C912 1.367 . S
C913 C921 1.433 . S
C914 H910 0.929 . S
C914 C916 1.378 . S
C914 C918 1.350 . S
C915 C918 1.463 . S
C915 C920 1.350 . S
C915 N923 1.427 . S
C916 H907 0.930 . S
C916 C914 1.378 . S
C916 C917 1.367 . S
C917 C916 1.367 . S
C917 C919 1.433 . S
C918 C914 1.350 . S
C918 C915 1.463 . S
C918 N922 1.427 . S
C919 H909 0.929 . S
C919 C917 1.433 . S
C919 N922 1.384 . S
C920 H911 0.929 . S
C920 C912 1.378 . S
C920 C915 1.350 . S
C921 H908 0.929 . S
C921 C913 1.433 . S
C921 N923 1.384 . S
N922 C918 1.427 . S
N922 C919 1.384 . S
N923 C915 1.427 . S
N923 C921 1.384 . S
H924 C930 0.930 . S
H925 C934 0.930 1_556 S
H926 C939 0.929 . S
H927 C937 0.929 . S
H928 C932 0.929 . S
H929 C938 0.929 . S
C930 H924 0.930 . S
C930 C931 1.367 . S
C930 C938 1.378 . S
C931 C930 1.367 . S
C931 C939 1.433 . S
C932 H928 0.929 . S
C932 C934 1.378 . S
C932 C936 1.350 . S
C933 C936 1.463 . S
C933 C938 1.350 . S
C933 N941 1.427 . S
C934 H925 0.930 1_554 S
C934 C932 1.378 . S
C934 C935 1.367 . S
C935 C934 1.367 . S
C935 C937 1.433 . S
C936 C932 1.350 . S
C936 C933 1.463 . S
C936 N940 1.427 . S
C937 H927 0.929 . S
C937 C935 1.433 . S
C937 N940 1.384 . S
C938 H929 0.929 . S
C938 C930 1.378 . S
C938 C933 1.350 . S
C939 H926 0.929 . S
C939 C931 1.433 . S
C939 N941 1.384 . S
N940 C936 1.427 . S
N940 C937 1.384 . S
N941 C933 1.427 . S
N941 C939 1.384 . S
H942 C948 0.930 . S
H943 C952 0.930 . S
H944 C957 0.929 . S
H945 C955 0.929 . S
H946 C950 0.929 . S
H947 C956 0.929 . S
C948 H942 0.930 . S
C948 C949 1.367 . S
C948 C956 1.378 . S
C949 C948 1.367 . S
C949 C957 1.433 . S
C950 H946 0.929 . S
C950 C952 1.378 . S
C950 C954 1.350 . S
C951 C954 1.463 . S
C951 C956 1.350 . S
C951 N959 1.427 . S
C952 H943 0.930 . S
C952 C950 1.378 . S
C952 C953 1.367 . S
C953 C952 1.367 . S
C953 C955 1.433 . S
C954 C950 1.350 . S
C954 C951 1.463 . S
C954 N958 1.427 . S
C955 H945 0.929 . S
C955 C953 1.433 . S
C955 N958 1.384 . S
C956 H947 0.929 . S
C956 C948 1.378 . S
C956 C951 1.350 . S
C957 H944 0.929 . S
C957 C949 1.433 . S
C957 N959 1.384 . S
N958 C954 1.427 . S
N958 C955 1.384 . S
N959 C951 1.427 . S
N959 C957 1.384 . S
H960 C966 0.930 . S
H961 C970 0.930 1_554 S
H962 C975 0.929 . S
H963 C973 0.929 . S
H964 C968 0.929 1_554 S
H965 C974 0.929 . S
C966 H960 0.930 . S
C966 C967 1.367 . S
C966 C974 1.378 . S
C967 C966 1.367 . S
C967 C975 1.433 . S
C968 H964 0.929 1_556 S
C968 C970 1.378 . S
C968 C972 1.350 . S
C969 C972 1.463 . S
C969 C974 1.350 . S
C969 N977 1.427 . S
C970 H961 0.930 1_556 S
C970 C968 1.378 . S
C970 C971 1.367 . S
C971 C970 1.367 . S
C971 C973 1.433 . S
C972 C968 1.350 . S
C972 C969 1.463 . S
C972 N976 1.427 . S
C973 H963 0.929 . S
C973 C971 1.433 . S
C973 N976 1.384 . S
C974 H965 0.929 . S
C974 C966 1.378 . S
C974 C969 1.350 . S
C975 H962 0.929 . S
C975 C967 1.433 . S
C975 N977 1.384 . S
N976 C972 1.427 . S
N976 C973 1.384 . S
N977 C969 1.427 . S
N977 C975 1.384 . S
H978 C984 0.930 . S
H979 C988 0.930 1_556 S
H980 C993 0.929 . S
H981 C991 0.929 . S
H982 C986 0.929 . S
H983 C992 0.929 . S
C984 H978 0.930 . S
C984 C985 1.367 . S
C984 C992 1.378 . S
C985 C984 1.367 . S
C985 C993 1.433 . S
C986 H982 0.929 . S
C986 C988 1.378 . S
C986 C990 1.350 . S
C987 C990 1.463 . S
C987 C992 1.350 . S
C987 N995 1.427 . S
C988 H979 0.930 1_554 S
C988 C986 1.378 . S
C988 C989 1.367 . S
C989 C988 1.367 . S
C989 C991 1.433 . S
C990 C986 1.350 . S
C990 C987 1.463 . S
C990 N994 1.427 . S
C991 H981 0.929 . S
C991 C989 1.433 . S
C991 N994 1.384 . S
C992 H983 0.929 . S
C992 C984 1.378 . S
C992 C987 1.350 . S
C993 H980 0.929 . S
C993 C985 1.433 . S
C993 N995 1.384 . S
N994 C990 1.427 . S
N994 C991 1.384 . S
N995 C987 1.427 . S
N995 C993 1.384 . S
H996 C1002 0.930 . S
H997 C1006 0.930 1_655 S
H998 C1011 0.929 . S
H999 C1009 0.929 . S
H1000 C1004 0.929 1_655 S
H1001 C1010 0.929 . S
C1002 H996 0.930 . S
C1002 C1003 1.367 . S
C1002 C1010 1.378 . S
C1003 C1002 1.367 . S
C1003 C1011 1.433 . S
C1004 H1000 0.929 1_455 S
C1004 C1006 1.378 . S
C1004 C1008 1.350 . S
C1005 C1008 1.463 . S
C1005 C1010 1.350 . S
C1005 N1013 1.427 . S
C1006 H997 0.930 1_455 S
C1006 C1004 1.378 . S
C1006 C1007 1.367 . S
C1007 C1006 1.367 . S
C1007 C1009 1.433 . S
C1008 C1004 1.350 . S
C1008 C1005 1.463 . S
C1008 N1012 1.427 . S
C1009 H999 0.929 . S
C1009 C1007 1.433 . S
C1009 N1012 1.384 . S
C1010 H1001 0.929 . S
C1010 C1002 1.378 . S
C1010 C1005 1.350 . S
C1011 H998 0.929 . S
C1011 C1003 1.433 . S
C1011 N1013 1.384 . S
N1012 C1008 1.427 . S
N1012 C1009 1.384 . S
N1013 C1005 1.427 . S
N1013 C1011 1.384 . S
H1014 C1020 0.930 . S
H1015 C1024 0.930 . S
H1016 C1029 0.929 . S
H1017 C1027 0.929 . S
H1018 C1022 0.929 . S
H1019 C1028 0.929 . S
C1020 H1014 0.930 . S
C1020 C1021 1.367 . S
C1020 C1028 1.378 . S
C1021 C1020 1.367 . S
C1021 C1029 1.433 . S
C1022 H1018 0.929 . S
C1022 C1024 1.378 . S
C1022 C1026 1.350 . S
C1023 C1026 1.463 . S
C1023 C1028 1.350 . S
C1023 N1031 1.427 . S
C1024 H1015 0.930 . S
C1024 C1022 1.378 . S
C1024 C1025 1.367 . S
C1025 C1024 1.367 . S
C1025 C1027 1.433 . S
C1026 C1022 1.350 . S
C1026 C1023 1.463 . S
C1026 N1030 1.427 . S
C1027 H1017 0.929 . S
C1027 C1025 1.433 . S
C1027 N1030 1.384 . S
C1028 H1019 0.929 . S
C1028 C1020 1.378 . S
C1028 C1023 1.350 . S
C1029 H1016 0.929 . S
C1029 C1021 1.433 . S
C1029 N1031 1.384 . S
N1030 C1026 1.427 . S
N1030 C1027 1.384 . S
N1031 C1023 1.427 . S
N1031 C1029 1.384 . S
C607 C1 2.134 . S
C611 C496 2.171 . S
C625 C80 1.111 . S
C629 N516 1.115 . S
C647 C550 2.007 . S
C643 C140 1.944 . S
C661 C211 1.311 . S
C665 N584 1.287 . S
C683 C537 2.343 . S
C679 C31 2.326 . S
C701 N494 1.183 . S
C697 C61 1.175 . S
C719 C571 2.006 . S
C715 C151 1.929 . S
C737 N546 1.051 . S
C733 C200 1.031 . S
C751 C20 1.835 . S
C755 C586 1.847 . S
C773 C520 1.731 . S
C769 C121 1.659 . S
C787 C181 1.415 . S
C791 C481 1.499 . S
C805 C91 1.414 . S
C809 C567 1.475 . S
C827 C507 2.174 . S
C823 C260 2.162 . S
C841 C320 1.100 . S
C845 N524 1.122 . S
C859 C361 1.995 . S
C863 C541 2.004 . S
C877 C451 1.307 . S
C881 N576 1.275 . S
C895 C271 2.325 . S
C899 C526 2.346 . S
C917 N486 1.179 . S
C913 C301 1.177 . S
C935 C580 2.008 . S
C931 C380 1.977 . S
C953 N554 1.049 . S
C949 C440 1.029 . S
C967 C241 1.811 . S
C971 C597 1.849 . S
C989 C511 1.728 . S
C985 C391 1.704 . S
C1007 C490 1.496 . S
C1003 C421 1.412 . S
C1021 C331 1.407 . S
C1025 C556 1.473 . S
