# Generated by pormake.
# Topology apo, (3,6)-cn, num edge types: 1
# Building blocks:
#     Node 0, Type 0, BuildingBlock: BETDAH_clean_linker_0, # of connection points: 3
#     Node 1, Type 0, BuildingBlock: BETDAH_clean_linker_0, # of connection points: 3
#     Node 2, Type 0, BuildingBlock: BETDAH_clean_linker_0, # of connection points: 3
#     Node 3, Type 0, BuildingBlock: BETDAH_clean_linker_0, # of connection points: 3
#     Node 4, Type 0, BuildingBlock: BETDAH_clean_linker_0, # of connection points: 3
#     Node 5, Type 0, BuildingBlock: BETDAH_clean_linker_0, # of connection points: 3
#     Node 6, Type 0, BuildingBlock: BETDAH_clean_linker_0, # of connection points: 3
#     Node 7, Type 0, BuildingBlock: BETDAH_clean_linker_0, # of connection points: 3
#     Node 8, Type 1, BuildingBlock: MIDCAF_clean_sbu_0, # of connection points: 6
#     Node 9, Type 1, BuildingBlock: MIDCAF_clean_sbu_0, # of connection points: 6
#     Node 10, Type 1, BuildingBlock: MIDCAF_clean_sbu_0, # of connection points: 6
#     Node 11, Type 1, BuildingBlock: MIDCAF_clean_sbu_0, # of connection points: 6
#     Edge 12, Type (0, 1), BuildingBlock: TEMPAE_clean_linker_10, # of connection points: 2
#     Edge 13, Type (0, 1), BuildingBlock: TEMPAE_clean_linker_10, # of connection points: 2
#     Edge 14, Type (0, 1), BuildingBlock: TEMPAE_clean_linker_10, # of connection points: 2
#     Edge 15, Type (0, 1), BuildingBlock: TEMPAE_clean_linker_10, # of connection points: 2
#     Edge 16, Type (0, 1), BuildingBlock: TEMPAE_clean_linker_10, # of connection points: 2
#     Edge 17, Type (0, 1), BuildingBlock: TEMPAE_clean_linker_10, # of connection points: 2
#     Edge 18, Type (0, 1), BuildingBlock: TEMPAE_clean_linker_10, # of connection points: 2
#     Edge 19, Type (0, 1), BuildingBlock: TEMPAE_clean_linker_10, # of connection points: 2
#     Edge 20, Type (0, 1), BuildingBlock: TEMPAE_clean_linker_10, # of connection points: 2
#     Edge 21, Type (0, 1), BuildingBlock: TEMPAE_clean_linker_10, # of connection points: 2
#     Edge 22, Type (0, 1), BuildingBlock: TEMPAE_clean_linker_10, # of connection points: 2
#     Edge 23, Type (0, 1), BuildingBlock: TEMPAE_clean_linker_10, # of connection points: 2
#     Edge 24, Type (0, 1), BuildingBlock: TEMPAE_clean_linker_10, # of connection points: 2
#     Edge 25, Type (0, 1), BuildingBlock: TEMPAE_clean_linker_10, # of connection points: 2
#     Edge 26, Type (0, 1), BuildingBlock: TEMPAE_clean_linker_10, # of connection points: 2
#     Edge 27, Type (0, 1), BuildingBlock: TEMPAE_clean_linker_10, # of connection points: 2
#     Edge 28, Type (0, 1), BuildingBlock: TEMPAE_clean_linker_10, # of connection points: 2
#     Edge 29, Type (0, 1), BuildingBlock: TEMPAE_clean_linker_10, # of connection points: 2
#     Edge 30, Type (0, 1), BuildingBlock: TEMPAE_clean_linker_10, # of connection points: 2
#     Edge 31, Type (0, 1), BuildingBlock: TEMPAE_clean_linker_10, # of connection points: 2
#     Edge 32, Type (0, 1), BuildingBlock: TEMPAE_clean_linker_10, # of connection points: 2
#     Edge 33, Type (0, 1), BuildingBlock: TEMPAE_clean_linker_10, # of connection points: 2
#     Edge 34, Type (0, 1), BuildingBlock: TEMPAE_clean_linker_10, # of connection points: 2
#     Edge 35, Type (0, 1), BuildingBlock: TEMPAE_clean_linker_10, # of connection points: 2
# Relax obj value: 0.013
# Max RMSD: 0.063
# Mean RMSD: 0.053
data_MOF--net-apo--node1-MIDCAF_clean_sbu_0--node2-BETDAH_clean_linker_0--edge1-TEMPAE_clean_linker_10
_symmetry_space_group_name_H-M    P1
_symmetry_Int_Tables_number       1
_symmetry_cell_setting            triclinic
loop_
_symmetry_equiv_pos_as_xyz
'x, y, z'
_cell_length_a     36.9167
_cell_length_b     41.765757
_cell_length_c     34.758872
_cell_angle_alpha  89.054731
_cell_angle_beta   90.136243
_cell_angle_gamma 90.166787
loop_
_atom_site_label
_atom_site_type_symbol
_atom_site_fract_x
_atom_site_fract_y
_atom_site_fract_z
_atom_type_partial_charge
H0 H 0.39672 0.36949 0.43607 0.0
H1 H 0.36253 0.31332 0.33994 0.0
H2 H 0.36159 0.27189 0.45395 0.0
C3 C 0.38629 0.34714 0.42503 0.0
C4 C 0.37953 0.3212 0.45039 0.0
C5 C 0.38062 0.34431 0.38524 0.0
C6 C 0.3667 0.31566 0.37064 0.0
C7 C 0.35925 0.28973 0.39566 0.0
C8 C 0.36624 0.29246 0.43517 0.0
N9 N 0.34672 0.25998 0.38171 0.0
C10 C 0.32145 0.25699 0.35224 0.0
H11 H 0.13127 0.14223 0.92175 0.0
H12 H 0.14769 0.18956 0.81267 0.0
H13 H 0.18302 0.23486 0.91664 0.0
C14 C 0.14197 0.16237 0.90521 0.0
C15 C 0.1571 0.18862 0.92437 0.0
C16 C 0.13849 0.16249 0.8651 0.0
C17 C 0.15112 0.18887 0.84365 0.0
C18 C 0.16847 0.21435 0.86199 0.0
C19 C 0.17152 0.21427 0.90244 0.0
N20 N 0.1791 0.24137 0.83961 0.0
C21 C 0.21512 0.25025 0.83502 0.0
H22 H 0.89121 0.13979 0.57663 0.0
H23 H 0.86201 0.19811 0.67245 0.0
H24 H 0.86461 0.2392 0.55827 0.0
C25 C 0.88246 0.16265 0.58759 0.0
C26 C 0.87818 0.18892 0.56215 0.0
C27 C 0.87715 0.16586 0.62735 0.0
C28 C 0.86575 0.19537 0.64176 0.0
C29 C 0.86053 0.22166 0.61661 0.0
C30 C 0.86731 0.21843 0.57714 0.0
N31 N 0.85084 0.25222 0.63041 0.0
C32 C 0.82668 0.25697 0.66041 0.0
H33 H 0.61694 0.35135 0.10109 0.0
H34 H 0.65701 0.33126 0.21468 0.0
H35 H 0.69547 0.27622 0.11935 0.0
C36 C 0.63379 0.337 0.12026 0.0
C37 C 0.6556 0.31258 0.10527 0.0
C38 C 0.63449 0.34409 0.15943 0.0
C39 C 0.65665 0.32612 0.1842 0.0
C40 C 0.67871 0.30174 0.17017 0.0
C41 C 0.67873 0.29522 0.13038 0.0
N42 N 0.69896 0.28365 0.19759 0.0
C43 C 0.73098 0.26736 0.19069 0.0
H44 H 0.60948 0.6374 0.58378 0.0
H45 H 0.69132 0.66713 0.66404 0.0
H46 H 0.69362 0.70279 0.54756 0.0
C47 C 0.63333 0.65157 0.59001 0.0
C48 C 0.64925 0.6705 0.56065 0.0
C49 C 0.64857 0.6498 0.62718 0.0
C50 C 0.67936 0.6684 0.63556 0.0
C51 C 0.69501 0.68802 0.60682 0.0
C52 C 0.68024 0.68852 0.56965 0.0
N53 N 0.72641 0.70686 0.61333 0.0
C54 C 0.74229 0.71303 0.64877 0.0
H55 H 0.88821 0.86056 0.1091 0.0
H56 H 0.83626 0.76793 0.11084 0.0
H57 H 0.86808 0.81204 0.21675 0.0
C58 C 0.87714 0.84015 0.12485 0.0
C59 C 0.87932 0.83956 0.16509 0.0
C60 C 0.86249 0.8142 0.10466 0.0
C61 C 0.84737 0.78834 0.12572 0.0
C62 C 0.84895 0.78784 0.16624 0.0
C63 C 0.86576 0.81306 0.18566 0.0
N64 N 0.83758 0.76049 0.1876 0.0
C65 C 0.80127 0.75323 0.1937 0.0
H66 H 0.11087 0.85621 0.44483 0.0
H67 H 0.17547 0.81533 0.35564 0.0
H68 H 0.17867 0.77478 0.47022 0.0
C69 C 0.12958 0.83786 0.43577 0.0
C70 C 0.14333 0.8156 0.46283 0.0
C71 C 0.14072 0.83768 0.39716 0.0
C72 C 0.16659 0.81528 0.38532 0.0
C73 C 0.18016 0.79249 0.41189 0.0
C74 C 0.16829 0.79272 0.45023 0.0
N75 N 0.20527 0.76847 0.40147 0.0
C76 C 0.2245 0.76697 0.36715 0.0
H77 H 0.406 0.65112 0.90287 0.0
H78 H 0.3221 0.72167 0.88585 0.0
H79 H 0.36003 0.66612 0.79067 0.0
C80 C 0.3876 0.66413 0.88395 0.0
C81 C 0.38564 0.65596 0.84513 0.0
C82 C 0.36471 0.68767 0.89908 0.0
C83 C 0.33975 0.70345 0.8745 0.0
C84 C 0.33871 0.69603 0.83497 0.0
C85 C 0.36149 0.67224 0.82083 0.0
N86 N 0.31595 0.71203 0.80791 0.0
C87 C 0.28585 0.73052 0.8162 0.0
Zn88 Zn 0.05509 0.11143 0.31857 0.0
Zn89 Zn 0.01396 0.10231 0.17955 0.0
Zn90 Zn 0.03252 0.10956 0.24951 0.0
C91 C 0.08081 0.12956 0.17415 0.0
C92 C 0.00679 0.04245 0.20984 0.0
O93 O 0.99103 0.13669 0.283 0.0
O94 O 0.01694 0.13799 0.34044 0.0
C95 C 0.10949 0.13997 0.27606 0.0
O96 O 0.07492 0.13193 0.21062 0.0
O97 O 0.0588 0.11462 0.15325 0.0
O98 O 1.00023 0.05693 0.17852 0.0
O99 O 0.02035 0.05787 0.23842 0.0
O100 O 0.1024 0.13139 0.31015 0.0
O101 O 0.08643 0.13466 0.24891 0.0
O102 O 0.04059 0.05931 0.27259 0.0
O103 O 0.05656 0.06588 0.33318 0.0
C104 C 0.05026 0.04741 0.30561 0.0
O105 O 0.98099 0.13669 0.24341 0.0
O106 O 0.97445 0.13432 0.18031 0.0
C107 C 0.99096 0.14534 0.31848 0.0
C108 C 0.96392 0.14472 0.2123 0.0
Zn109 Zn 0.557 0.37654 0.70877 0.0
Zn110 Zn 0.50841 0.38284 0.84024 0.0
Zn111 Zn 0.53241 0.3797 0.77503 0.0
C112 C 0.50145 0.44389 0.81253 0.0
C113 C 0.46297 0.34069 0.80509 0.0
O114 O 0.58366 0.3511 0.77916 0.0
O115 O 0.593 0.34273 0.71742 0.0
C116 C 0.56279 0.44045 0.72566 0.0
O117 O 0.52157 0.43131 0.7865 0.0
O118 O 0.48874 0.42647 0.83923 0.0
O119 O 0.47339 0.34698 0.83872 0.0
O120 O 0.47985 0.3531 0.77596 0.0
O121 O 0.57406 0.42094 0.70112 0.0
O122 O 0.54454 0.42998 0.75495 0.0
O123 O 0.4905 0.35601 0.73742 0.0
O124 O 0.51423 0.36384 0.67966 0.0
C125 C 0.48848 0.35404 0.70043 0.0
O126 O 0.57311 0.35761 0.81656 0.0
O127 O 0.55236 0.37684 0.87094 0.0
C128 C 0.60131 0.3373 0.75209 0.0
C129 C 0.5767 0.36223 0.85304 0.0
Zn130 Zn 0.00607 0.89976 0.84865 0.0
Zn131 Zn 0.96282 0.89609 0.7078 0.0
Zn132 Zn 0.98584 0.89385 0.77783 0.0
C133 C 0.96697 0.95859 0.72545 0.0
C134 C 0.91067 0.86209 0.7499 0.0
O135 O 0.03839 0.86818 0.78157 0.0
O136 O 0.048 0.87047 0.84427 0.0
C137 C 0.00811 0.96076 0.82095 0.0
O138 O 0.97617 0.94459 0.75744 0.0
O139 O 0.9608 0.94222 0.69602 0.0
O140 O 0.91657 0.87377 0.71679 0.0
O141 O 0.93376 0.86653 0.77724 0.0
O142 O 0.01563 0.94602 0.85187 0.0
O143 O 0.99578 0.94524 0.79185 0.0
O144 O 0.94452 0.86928 0.81593 0.0
O145 O 0.96254 0.88315 0.87413 0.0
C146 C 0.93997 0.86933 0.85276 0.0
O147 O 0.02752 0.86918 0.74229 0.0
O148 O 1.00228 0.87184 0.68446 0.0
C149 C 0.05738 0.86068 0.81158 0.0
C150 C 0.02805 0.86313 0.706 0.0
Zn151 Zn 0.51984 0.62102 0.17536 0.0
Zn152 Zn 0.44719 0.61622 0.29714 0.0
Zn153 Zn 0.4847 0.61918 0.23682 0.0
C154 C 0.50842 0.65007 0.31806 0.0
C155 C 0.45972 0.55366 0.28247 0.0
O156 O 0.44963 0.64172 0.19018 0.0
O157 O 0.48144 0.63079 0.13833 0.0
C158 C 0.55783 0.66015 0.22339 0.0
O159 O 0.5169 0.64345 0.28304 0.0
O160 O 0.47769 0.64216 0.33088 0.0
O161 O 0.44614 0.57026 0.30866 0.0
O162 O 0.47489 0.56742 0.25306 0.0
O163 O 0.55455 0.65525 0.18787 0.0
O164 O 0.53566 0.64691 0.24755 0.0
O165 O 0.49962 0.56881 0.22253 0.0
O166 O 0.53795 0.57677 0.17464 0.0
C167 C 0.52251 0.55782 0.19803 0.0
O168 O 0.43237 0.6456 0.22569 0.0
O169 O 0.40189 0.63538 0.27919 0.0
C170 C 0.45286 0.64131 0.15318 0.0
C171 C 0.40342 0.64828 0.24622 0.0
C172 C 0.14835 0.88671 0.35618 0.0
C173 C 0.12592 0.86221 0.37032 0.0
C174 C 0.13348 0.9142 0.33854 0.0
C175 C 0.09534 0.91686 0.33449 0.0
C176 C 0.07296 0.89064 0.34533 0.0
C177 C 0.0885 0.86382 0.36373 0.0
C178 C 0.15833 0.94162 0.32765 0.0
C179 C 0.03234 0.89178 0.34066 0.0
C180 C 0.05941 1.00049 0.34957 0.0
C181 C 0.05653 0.0126 0.3118 0.0
C182 C 0.071 0.96913 0.3571 0.0
C183 C 0.07899 0.94882 0.32607 0.0
C184 C 0.07361 0.96004 0.28779 0.0
C185 C 0.06341 0.99212 0.28108 0.0
C186 C 0.07617 0.95823 0.39844 0.0
C187 C 0.07973 0.93861 0.25394 0.0
H188 H 0.17727 0.88545 0.36153 0.0
H189 H 0.07117 0.84472 0.3746 0.0
H190 H 0.15199 0.95069 0.29825 0.0
H191 H 0.15413 0.96164 0.34776 0.0
H192 H 0.18733 0.9346 0.32879 0.0
H193 H 0.02117 0.86748 0.33562 0.0
H194 H 0.02007 0.90076 0.3675 0.0
H195 H 0.024 0.90788 0.31656 0.0
H196 H 0.05393 0.01601 0.37355 0.0
H197 H 0.06218 0.00137 0.25185 0.0
H198 H 0.10485 0.95137 0.4034 0.0
H199 H 0.05925 0.93678 0.40458 0.0
H200 H 0.0689 0.97707 0.41922 0.0
H201 H 0.10921 0.93664 0.24842 0.0
H202 H 0.06647 0.94821 0.22744 0.0
H203 H 0.06915 0.91414 0.25997 0.0
C204 C 0.38805 0.60122 0.81834 0.0
C205 C 0.40651 0.62843 0.83091 0.0
C206 C 0.40686 0.57311 0.80977 0.0
C207 C 0.44511 0.57252 0.81306 0.0
C208 C 0.46404 0.60081 0.82283 0.0
C209 C 0.44443 0.62835 0.8324 0.0
C210 C 0.3856 0.54344 0.79977 0.0
C211 C 0.50487 0.6015 0.82453 0.0
C212 C 0.48256 0.49271 0.84672 0.0
C213 C 0.49202 0.4783 0.81202 0.0
C214 C 0.46854 0.52376 0.84736 0.0
C215 C 0.46437 0.54126 0.81242 0.0
C216 C 0.47573 0.52755 0.77741 0.0
C217 C 0.48892 0.49595 0.77756 0.0
C218 C 0.4564 0.53715 0.88536 0.0
C219 C 0.47229 0.54531 0.73948 0.0
H220 H 0.35869 0.60142 0.81726 0.0
H221 H 0.45863 0.64964 0.84169 0.0
H222 H 0.3961 0.53306 0.77286 0.0
H223 H 0.3889 0.52511 0.82299 0.0
H224 H 0.35624 0.54841 0.79602 0.0
H225 H 0.5156 0.62608 0.82872 0.0
H226 H 0.51454 0.58593 0.84857 0.0
H227 H 0.51623 0.59189 0.79755 0.0
H228 H 0.48503 0.47921 0.87351 0.0
H229 H 0.49544 0.48473 0.75057 0.0
H230 H 0.42681 0.54176 0.88447 0.0
H231 H 0.47011 0.56032 0.89068 0.0
H232 H 0.46218 0.52064 0.90999 0.0
H233 H 0.49292 0.53703 0.71868 0.0
H234 H 0.47511 0.57156 0.74294 0.0
H235 H 0.44518 0.54049 0.72698 0.0
C236 C 0.59664 0.62293 0.66128 0.0
C237 C 0.63409 0.62599 0.6555 0.0
C238 C 0.58216 0.59629 0.68118 0.0
C239 C 0.60564 0.57193 0.695 0.0
C240 C 0.64361 0.57655 0.69254 0.0
C241 C 0.65741 0.60358 0.67287 0.0
C242 C 0.54166 0.5931 0.68518 0.0
C243 C 0.66965 0.55146 0.70746 0.0
C244 C 0.57323 0.49671 0.74918 0.0
C245 C 0.57033 0.47501 0.71895 0.0
C246 C 0.58301 0.52894 0.74201 0.0
C247 C 0.59102 0.53929 0.70386 0.0
C248 C 0.5871 0.51756 0.67329 0.0
C249 C 0.57672 0.48591 0.6812 0.0
C250 C 0.58604 0.55127 0.77551 0.0
C251 C 0.59491 0.52743 0.63207 0.0
H252 H 0.57856 0.64063 0.64865 0.0
H253 H 0.68639 0.60586 0.66859 0.0
H254 H 0.53179 0.5727 0.66793 0.0
H255 H 0.53471 0.58796 0.71568 0.0
H256 H 0.52721 0.61512 0.67554 0.0
H257 H 0.69799 0.56045 0.70821 0.0
H258 H 0.66182 0.54335 0.73684 0.0
H259 H 0.66858 0.5303 0.68857 0.0
H260 H 0.56874 0.48839 0.77848 0.0
H261 H 0.57417 0.4694 0.65759 0.0
H262 H 0.5796 0.57632 0.767 0.0
H263 H 0.61423 0.55073 0.78662 0.0
H264 H 0.56773 0.54368 0.79932 0.0
H265 H 0.57778 0.54815 0.62351 0.0
H266 H 0.58984 0.50776 0.61159 0.0
H267 H 0.62362 0.53505 0.62928 0.0
C268 C 0.93092 0.86147 0.20335 0.0
C269 C 0.89763 0.86629 0.18472 0.0
C270 C 0.95194 0.88766 0.21534 0.0
C271 C 0.93903 0.9192 0.20871 0.0
C272 C 0.9041 0.92386 0.19255 0.0
C273 C 0.88401 0.89734 0.18038 0.0
C274 C 0.98902 0.88145 0.23215 0.0
C275 C 0.88897 0.957 0.18552 0.0
C276 C 0.98004 0.99604 0.24667 0.0
C277 C 0.99652 0.00832 0.21325 0.0
C278 C 0.96352 0.96562 0.24687 0.0
C279 C 0.96347 0.9474 0.21283 0.0
C280 C 0.98295 0.95864 0.18025 0.0
C281 C 0.99898 0.98904 0.18078 0.0
C282 C 0.94402 0.954 0.28253 0.0
C283 C 0.98464 0.93957 0.14375 0.0
H284 H 0.94154 0.83738 0.20639 0.0
H285 H 0.8582 0.90093 0.166 0.0
H286 H 0.00926 0.88176 0.2086 0.0
H287 H 0.99692 0.90009 0.25292 0.0
H288 H 0.99024 0.85762 0.24677 0.0
H289 H 0.85993 0.95641 0.1771 0.0
H290 H 0.89186 0.97164 0.2117 0.0
H291 H 0.90444 0.96915 0.16212 0.0
H292 H 0.97817 0.01093 0.27184 0.0
H293 H 0.01218 0.99837 0.15509 0.0
H294 H 0.95024 0.92843 0.28859 0.0
H295 H 0.91435 0.95592 0.27787 0.0
H296 H 0.95143 0.96823 0.30812 0.0
H297 H 0.99253 0.91446 0.15034 0.0
H298 H 0.00421 0.94992 0.12271 0.0
H299 H 0.95746 0.93904 0.13006 0.0
C300 C 0.87184 0.10855 0.64803 0.0
C301 C 0.887 0.1389 0.65348 0.0
C302 C 0.88557 0.08154 0.66759 0.0
C303 C 0.91578 0.08487 0.69248 0.0
C304 C 0.92978 0.11579 0.69976 0.0
C305 C 0.91501 0.14253 0.68035 0.0
C306 C 0.86921 0.04913 0.65964 0.0
C307 C 0.96193 0.12037 0.72589 0.0
C308 C 0.93923 0.00898 0.74922 0.0
C309 C 0.9613 0.99347 0.72267 0.0
C310 C 0.9258 0.03991 0.74116 0.0
C311 C 0.93539 0.05563 0.70616 0.0
C312 C 0.96069 0.04116 0.68133 0.0
C313 C 0.97291 0.01008 0.68963 0.0
C314 C 0.8989 0.05433 0.76843 0.0
C315 C 0.97274 0.05745 0.64439 0.0
H316 H 0.85007 0.10583 0.62732 0.0
H317 H 0.92692 0.16602 0.68431 0.0
H318 H 0.88836 0.03495 0.64226 0.0
H319 H 0.86442 0.03571 0.68698 0.0
H320 H 0.84319 0.05107 0.64367 0.0
H321 H 0.96686 0.14601 0.7322 0.0
H322 H 0.95793 0.10704 0.75341 0.0
H323 H 0.98649 0.11057 0.71206 0.0
H324 H 0.93016 0.99602 0.77473 0.0
H325 H 0.99027 0.9981 0.6693 0.0
H326 H 0.87112 0.05058 0.75706 0.0
H327 H 0.90316 0.0805 0.771 0.0
H328 H 0.90054 0.04302 0.79753 0.0
H329 H 0.94996 0.05776 0.62349 0.0
H330 H 0.99603 0.04503 0.6311 0.0
H331 H 0.98056 0.08267 0.64967 0.0
C332 C 0.5762 0.37347 0.16852 0.0
C333 C 0.6138 0.37172 0.17375 0.0
C334 C 0.55708 0.40129 0.17797 0.0
C335 C 0.57629 0.42826 0.19155 0.0
C336 C 0.61403 0.42596 0.19856 0.0
C337 C 0.63227 0.39754 0.18995 0.0
C338 C 0.51662 0.40237 0.17181 0.0
C339 C 0.6356 0.4542 0.21272 0.0
C340 C 0.54419 0.51098 0.16162 0.0
C341 C 0.53182 0.52339 0.19644 0.0
C342 C 0.55768 0.47977 0.15958 0.0
C343 C 0.55826 0.46007 0.19311 0.0
C344 C 0.54419 0.47186 0.22802 0.0
C345 C 0.53178 0.50366 0.22943 0.0
C346 C 0.57284 0.46843 0.12183 0.0
C347 C 0.5438 0.45161 0.26435 0.0
H348 H 0.56193 0.35328 0.15634 0.0
H349 H 0.66137 0.39611 0.19388 0.0
H350 H 0.50307 0.41291 0.1971 0.0
H351 H 0.51033 0.41789 0.14647 0.0
H352 H 0.50506 0.3782 0.16682 0.0
H353 H 0.66422 0.44786 0.21909 0.0
H354 H 0.63529 0.47363 0.19054 0.0
H355 H 0.62316 0.46381 0.23911 0.0
H356 H 0.54431 0.5261 0.13596 0.0
H357 H 0.5238 0.51346 0.2567 0.0
H358 H 0.55905 0.44607 0.11307 0.0
H359 H 0.60208 0.46292 0.12526 0.0
H360 H 0.56975 0.48655 0.0983 0.0
H361 H 0.53871 0.42603 0.25809 0.0
H362 H 0.52287 0.45995 0.28473 0.0
H363 H 0.57052 0.45339 0.27881 0.0
C364 C 0.42185 0.36838 0.33577 0.0
C365 C 0.39121 0.37104 0.3592 0.0
C366 C 0.43582 0.39525 0.31582 0.0
C367 C 0.41836 0.42524 0.31918 0.0
C368 C 0.3859 0.42732 0.34075 0.0
C369 C 0.373 0.40027 0.36093 0.0
C370 C 0.47067 0.39196 0.29367 0.0
C371 C 0.36596 0.45863 0.34449 0.0
C372 C 0.46722 0.5046 0.32214 0.0
C373 C 0.45717 0.51863 0.2869 0.0
C374 C 0.45752 0.473 0.33146 0.0
C375 C 0.43625 0.45531 0.30531 0.0
C376 C 0.42835 0.46858 0.26841 0.0
C377 C 0.43922 0.50019 0.25947 0.0
C378 C 0.46783 0.45942 0.3705 0.0
C379 C 0.40588 0.45049 0.23969 0.0
H380 H 0.43603 0.34571 0.33478 0.0
H381 H 0.34928 0.40216 0.37909 0.0
H382 H 0.47013 0.4065 0.26669 0.0
H383 H 0.49345 0.40083 0.31149 0.0
H384 H 0.4762 0.36662 0.28648 0.0
H385 H 0.33889 0.45535 0.35789 0.0
H386 H 0.38206 0.47511 0.36256 0.0
H387 H 0.36244 0.47033 0.31583 0.0
H388 H 0.48135 0.51893 0.3432 0.0
H389 H 0.43131 0.51123 0.23229 0.0
H390 H 0.47878 0.43485 0.36777 0.0
H391 H 0.44342 0.45786 0.38901 0.0
H392 H 0.48837 0.47445 0.38515 0.0
H393 H 0.41481 0.42521 0.23812 0.0
H394 H 0.40733 0.4616 0.21047 0.0
H395 H 0.37717 0.45033 0.24909 0.0
C396 C 0.08618 0.14088 0.82785 0.0
C397 C 0.11932 0.13568 0.84661 0.0
C398 C 0.0645 0.11494 0.81654 0.0
C399 C 0.07657 0.08325 0.82382 0.0
C400 C 0.11127 0.0781 0.84029 0.0
C401 C 0.13204 0.10439 0.8519 0.0
C402 C 0.02778 0.12143 0.79915 0.0
C403 C 0.12556 0.04474 0.84783 0.0
C404 C 0.01502 0.01412 0.85049 0.0
C405 C 0.01734 0.99511 0.8178 0.0
C406 C 0.03159 0.04431 0.85149 0.0
C407 C 0.05159 0.05548 0.81922 0.0
C408 C 0.05135 0.03758 0.78492 0.0
C409 C 0.03408 0.00752 0.78459 0.0
C410 C 0.03011 0.06304 0.88825 0.0
C411 C 0.07195 0.04868 0.74971 0.0
H412 H 0.07629 0.16515 0.82407 0.0
H413 H 0.15776 0.10051 0.86636 0.0
H414 H 0.02258 0.10509 0.77497 0.0
H415 H 0.00657 0.11684 0.82114 0.0
H416 H 0.0252 0.14658 0.78862 0.0
H417 H 0.15451 0.04487 0.85664 0.0
H418 H 0.10955 0.03299 0.8711 0.0
H419 H 0.12264 0.03 0.82173 0.0
H420 H 1.00176 0.00463 0.87607 0.0
H421 H 0.0362 0.99274 0.75935 0.0
H422 H 0.02365 0.08852 0.88196 0.0
H423 H 0.05699 0.06231 0.90258 0.0
H424 H 0.00961 0.05323 0.90864 0.0
H425 H 0.0696 0.07494 0.74523 0.0
H426 H 0.06222 0.03651 0.72342 0.0
H427 H 0.10109 0.04303 0.7537 0.0
C428 C 0.18388 0.19631 0.99075 0.0
C429 C 0.15405 0.18968 0.96704 0.0
C430 C 0.18128 0.19281 0.03115 0.0
C431 C 0.14826 0.18213 0.04786 0.0
C432 C 0.11758 0.17751 0.02396 0.0
C433 C 0.12083 0.18163 0.98411 0.0
C434 C 0.21439 0.19899 0.05542 0.0
C435 C 0.0816 0.16636 0.04013 0.0
C436 C 0.13347 0.12613 0.13134 0.0
C437 C 0.11163 0.14514 0.15455 0.0
C438 C 0.1507 0.13915 0.09873 0.0
C439 C 0.14572 0.17194 0.08918 0.0
C440 C 0.12869 0.19211 0.11607 0.0
C441 C 0.11133 0.17835 0.1484 0.0
C442 C 0.16941 0.11678 0.07157 0.0
C443 C 0.12458 0.22749 0.10812 0.0
H444 H 0.20956 0.20285 0.97773 0.0
H445 H 0.09743 0.17739 0.96595 0.0
H446 H 0.20707 0.20742 0.08449 0.0
H447 H 0.22996 0.17645 0.05888 0.0
H448 H 0.23241 0.21703 0.04138 0.0
H449 H 0.06026 0.16473 0.01766 0.0
H450 H 0.0847 0.14238 0.05397 0.0
H451 H 0.07217 0.18303 0.06246 0.0
H452 H 0.13363 0.1004 0.13614 0.0
H453 H 0.09418 0.1931 0.16611 0.0
H454 H 0.19457 0.12781 0.06005 0.0
H455 H 0.15123 0.11189 0.04685 0.0
H456 H 0.17633 0.09358 0.08584 0.0
H457 H 0.14899 0.23741 0.09359 0.0
H458 H 0.11982 0.24075 0.13508 0.0
H459 H 0.10102 0.23154 0.08877 0.0
C460 C 0.36484 0.31051 0.52044 0.0
C461 C 0.38806 0.32365 0.49228 0.0
C462 C 0.3733 0.31228 0.55992 0.0
C463 C 0.40582 0.32742 0.57151 0.0
C464 C 0.42916 0.34091 0.5432 0.0
C465 C 0.42004 0.33881 0.50411 0.0
C466 C 0.34769 0.29773 0.58916 0.0
C467 C 0.46422 0.35723 0.55412 0.0
C468 C 0.42979 0.36246 0.66786 0.0
C469 C 0.45675 0.34113 0.68023 0.0
C470 C 0.40946 0.35648 0.63444 0.0
C471 C 0.41669 0.32869 0.61291 0.0
C472 C 0.44063 0.30524 0.6282 0.0
C473 C 0.46053 0.31186 0.66165 0.0
C474 C 0.38373 0.38188 0.61974 0.0
C475 C 0.44887 0.27505 0.60668 0.0
H476 H 0.33989 0.299 0.51161 0.0
H477 H 0.43849 0.34852 0.48267 0.0
H478 H 0.36124 0.27768 0.60472 0.0
H479 H 0.34031 0.31572 0.6109 0.0
H480 H 0.3225 0.28852 0.57569 0.0
H481 H 0.47897 0.36703 0.5287 0.0
H482 H 0.45871 0.37714 0.574 0.0
H483 H 0.48217 0.33998 0.56947 0.0
H484 H 0.42731 0.38537 0.68185 0.0
H485 H 0.48185 0.29561 0.67087 0.0
H486 H 0.35934 0.37098 0.60657 0.0
H487 H 0.39746 0.39657 0.59719 0.0
H488 H 0.37509 0.39802 0.64307 0.0
H489 H 0.42384 0.26461 0.59434 0.0
H490 H 0.46209 0.25677 0.62554 0.0
H491 H 0.46745 0.28084 0.58248 0.0
C492 C 0.68455 0.3068 0.04 0.0
C493 C 0.65348 0.30645 0.0632 0.0
C494 C 0.68161 0.30907 0.99954 0.0
C495 C 0.64688 0.31166 0.98221 0.0
C496 C 0.6156 0.30798 1.00549 0.0
C497 C 0.61936 0.30511 0.04551 0.0
C498 C 0.71571 0.3112 0.97586 0.0
C499 C 0.5779 0.3103 0.98865 0.0
C500 C 0.62212 0.37041 0.90374 0.0
C501 C 0.60749 0.35003 0.8761 0.0
C502 C 0.63933 0.35815 0.93674 0.0
C503 C 0.64227 0.32456 0.94209 0.0
C504 C 0.63251 0.30417 0.91144 0.0
C505 C 0.61481 0.31717 0.8787 0.0
C506 C 0.64979 0.38108 0.96807 0.0
C507 C 0.63723 0.26842 0.91482 0.0
H508 H 0.71107 0.30749 0.05344 0.0
H509 H 0.59529 0.30404 0.06333 0.0
H510 H 0.71147 0.30171 0.94654 0.0
H511 H 0.72422 0.33661 0.973 0.0
H512 H 0.73815 0.2978 0.99004 0.0
H513 H 0.55658 0.30471 1.01026 0.0
H514 H 0.57327 0.33493 0.97722 0.0
H515 H 0.57481 0.29362 0.96439 0.0
H516 H 0.61671 0.39589 0.90149 0.0
H517 H 0.60366 0.30133 0.85726 0.0
H518 H 0.67726 0.37556 0.9792 0.0
H519 H 0.63055 0.37849 0.99243 0.0
H520 H 0.64939 0.40642 0.95783 0.0
H521 H 0.66157 0.26218 0.93216 0.0
H522 H 0.63961 0.25754 0.88599 0.0
H523 H 0.61323 0.25774 0.92932 0.0
C524 C 0.86606 0.20019 0.49158 0.0
C525 C 0.88745 0.18588 0.52058 0.0
C526 C 0.87521 0.19746 0.4524 0.0
C527 C 0.90657 0.18019 0.44206 0.0
C528 C 0.92812 0.16565 0.47126 0.0
C529 C 0.91839 0.16877 0.50996 0.0
C530 C 0.85161 0.21331 0.42218 0.0
C531 C 0.9619 0.14703 0.46171 0.0
C532 C 0.93036 0.1418 0.34801 0.0
C533 C 0.95982 0.16087 0.33664 0.0
C534 C 0.90926 0.14996 0.38 0.0
C535 C 0.91823 0.17766 0.4011 0.0
C536 C 0.94485 0.19907 0.38645 0.0
C537 C 0.96552 0.19027 0.35449 0.0
C538 C 0.88067 0.12673 0.39403 0.0
C539 C 0.95496 0.22915 0.40746 0.0
H540 H 0.84199 0.2133 0.49949 0.0
H541 H 0.93554 0.15822 0.53208 0.0
H542 H 0.86687 0.23301 0.40777 0.0
H543 H 0.8441 0.19595 0.39968 0.0
H544 H 0.82646 0.22336 0.43459 0.0
H545 H 0.97516 0.13659 0.48773 0.0
H546 H 0.95512 0.12729 0.44194 0.0
H547 H 0.98166 0.16293 0.44676 0.0
H548 H 0.92631 0.11878 0.33462 0.0
H549 H 0.98867 0.20479 0.34602 0.0
H550 H 0.85701 0.13953 0.40588 0.0
H551 H 0.89219 0.11146 0.41743 0.0
H552 H 0.87127 0.11089 0.37062 0.0
H553 H 0.93054 0.24133 0.41848 0.0
H554 H 0.97024 0.24617 0.38866 0.0
H555 H 0.97232 0.22275 0.43254 0.0
C556 C 0.89898 0.82351 0.0452 0.0
C557 C 0.86615 0.81374 0.06192 0.0
C558 C 0.90267 0.82708 1.0053 0.0
C559 C 0.87293 0.8201 0.98094 0.0
C560 C 0.84036 0.8081 0.99735 0.0
C561 C 0.83726 0.80521 0.03777 0.0
C562 C 0.93815 0.83973 0.98943 0.0
C563 C 0.80825 0.7996 0.97261 0.0
C564 C 0.88604 0.87254 0.8936 0.0
C565 C 0.90928 0.85339 0.87214 0.0
C566 C 0.8692 0.86047 0.92698 0.0
C567 C 0.87595 0.82849 0.93908 0.0
C568 C 0.8946 0.80778 0.91403 0.0
C569 C 0.91151 0.82061 0.88091 0.0
C570 C 0.84887 0.88335 0.95216 0.0
C571 C 0.90086 0.77312 0.92475 0.0
H572 H 0.92182 0.82915 0.06358 0.0
H573 H 0.81185 0.7974 0.05042 0.0
H574 H 0.94934 0.82284 0.96828 0.0
H575 H 0.93362 0.86296 0.97422 0.0
H576 H 0.95876 0.84342 0.01228 0.0
H577 H 0.79031 0.78195 0.98744 0.0
H578 H 0.79216 0.8215 0.96653 0.0
H579 H 0.81688 0.78968 0.94468 0.0
H580 H 0.88452 0.89797 0.88692 0.0
H581 H 0.92975 0.80578 0.86456 0.0
H582 H 0.86655 0.89055 0.97642 0.0
H583 H 0.8244 0.87172 0.96451 0.0
H584 H 0.84055 0.90531 0.936 0.0
H585 H 0.92443 0.77132 0.94454 0.0
H586 H 0.90677 0.7587 0.89895 0.0
H587 H 0.87697 0.76276 0.93981 0.0
C588 C 0.63503 0.69878 0.49745 0.0
C589 C 0.63415 0.6708 0.52057 0.0
C590 C 0.62001 0.69943 0.46019 0.0
C591 C 0.60262 0.67177 0.446 0.0
C592 C 0.60247 0.64326 0.46866 0.0
C593 C 0.61863 0.64301 0.50527 0.0
C594 C 0.62173 0.73002 0.43652 0.0
C595 C 0.58396 0.61324 0.45486 0.0
C596 C 0.52152 0.67719 0.3796 0.0
C597 C 0.53478 0.66333 0.34593 0.0
C598 C 0.54393 0.68189 0.4116 0.0
C599 C 0.58091 0.67329 0.40971 0.0
C600 C 0.59534 0.66241 0.37446 0.0
C601 C 0.57194 0.65711 0.34307 0.0
C602 C 0.52714 0.69336 0.4485 0.0
C603 C 0.63489 0.65414 0.37067 0.0
H604 H 0.64665 0.72055 0.50874 0.0
H605 H 0.61877 0.62092 0.52204 0.0
H606 H 0.62993 0.72494 0.40653 0.0
H607 H 0.59453 0.74119 0.43526 0.0
H608 H 0.64105 0.74757 0.44881 0.0
H609 H 0.58714 0.59279 0.47543 0.0
H610 H 0.5546 0.61785 0.45074 0.0
H611 H 0.59512 0.60625 0.42664 0.0
H612 H 0.49285 0.68237 0.38194 0.0
H613 H 0.58228 0.64596 0.31751 0.0
H614 H 0.54313 0.71337 0.46049 0.0
H615 H 0.52726 0.67357 0.47022 0.0
H616 H 0.49876 0.70149 0.44432 0.0
H617 H 0.65216 0.67156 0.38609 0.0
H618 H 0.64336 0.65365 0.34004 0.0
H619 H 0.63981 0.6301 0.38365 0.0
C620 C 0.33779 0.68777 0.96542 0.0
C621 C 0.36718 0.69413 0.94093 0.0
C622 C 0.34291 0.68489 1.00557 0.0
C623 C 0.3782 0.68818 0.02126 0.0
C624 C 0.40698 0.69811 0.99686 0.0
C625 C 0.4011 0.70089 0.95707 0.0
C626 C 0.31123 0.6754 0.0306 0.0
C627 C 0.44499 0.7024 0.0121 0.0
C628 C 0.40989 0.68237 0.12564 0.0
C629 C 0.42365 0.65114 0.12643 0.0
C630 C 0.39142 0.69427 0.09276 0.0
C631 C 0.38723 0.6745 0.06016 0.0
C632 C 0.3979 0.64199 0.0628 0.0
C633 C 0.41586 0.6308 0.09586 0.0
C634 C 0.37929 0.72869 0.09188 0.0
C635 C 0.39394 0.61973 0.02917 0.0
H636 H 0.31148 0.68258 0.95305 0.0
H637 H 0.42376 0.70613 0.93815 0.0
H638 H 0.31157 0.64911 0.03568 0.0
H639 H 0.31289 0.68705 0.05902 0.0
H640 H 0.28504 0.68178 0.01671 0.0
H641 H 0.46314 0.71398 0.99052 0.0
H642 H 0.44484 0.71711 0.03836 0.0
H643 H 0.45644 0.67864 0.02007 0.0
H644 H 0.41604 0.69821 0.14918 0.0
H645 H 0.4264 0.60657 0.09659 0.0
H646 H 0.35448 0.73188 0.07415 0.0
H647 H 0.40099 0.74384 0.07904 0.0
H648 H 0.37397 0.73737 0.12139 0.0
H649 H 0.36592 0.62051 0.01765 0.0
H650 H 0.40049 0.59454 0.03714 0.0
H651 H 0.41244 0.62756 1.00568 0.0
C652 C 0.09627 0.8251 0.51352 0.0
C653 C 0.13192 0.81677 0.50409 0.0
C654 C 0.08566 0.82903 0.55187 0.0
C655 C 0.111 0.82373 0.58199 0.0
C656 C 0.14655 0.81375 0.57297 0.0
C657 C 0.15672 0.81075 0.53415 0.0
C658 C 0.04742 0.8398 0.56001 0.0
C659 C 0.17419 0.8072 0.60416 0.0
C660 C 0.08338 0.8715 0.66822 0.0
C661 C 0.05988 0.8499 0.68669 0.0
C662 C 0.10352 0.86234 0.63605 0.0
C663 C 0.10021 0.83069 0.62238 0.0
C664 C 0.0802 0.80776 0.64415 0.0
C665 C 0.05971 0.81779 0.67582 0.0
C666 C 0.12452 0.88764 0.61397 0.0
C667 C 0.07719 0.77347 0.6316 0.0
H668 H 0.07655 0.82892 0.49078 0.0
H669 H 0.18444 0.80455 0.52742 0.0
H670 H 0.03362 0.82206 0.57905 0.0
H671 H 0.04799 0.86293 0.57528 0.0
H672 H 0.03106 0.84291 0.53335 0.0
H673 H 0.19764 0.79345 0.59326 0.0
H674 H 0.18443 0.83022 0.61541 0.0
H675 H 0.16187 0.7937 0.62862 0.0
H676 H 0.08299 0.89647 0.67634 0.0
H677 H 0.04114 0.80118 0.68983 0.0
H678 H 0.10918 0.89455 0.58762 0.0
H679 H 0.15115 0.87831 0.60477 0.0
H680 H 0.12902 0.90945 0.63123 0.0
H681 H 0.05733 0.7719 0.60768 0.0
H682 H 0.06786 0.75749 0.65547 0.0
H683 H 0.10359 0.76469 0.6209 0.0
C684 C 0.29841 0.23288 0.29252 0.0
C685 C 0.29194 0.24895 0.32682 0.0
C686 C 0.26972 0.21836 0.27245 0.0
C687 C 0.23421 0.21941 0.28779 0.0
C688 C 0.22742 0.23817 0.32065 0.0
C689 C 0.25647 0.25273 0.33977 0.0
C690 C 0.27791 0.19966 0.23678 0.0
C691 C 0.19005 0.24018 0.33799 0.0
C692 C 0.14689 0.18467 0.24739 0.0
C693 C 0.14446 0.15632 0.26933 0.0
C694 C 0.17778 0.20448 0.25 0.0
C695 C 0.20623 0.19579 0.27564 0.0
C696 C 0.20505 0.16566 0.2949 0.0
C697 C 0.1743 0.14633 0.29134 0.0
C698 C 0.17848 0.23574 0.22772 0.0
C699 C 0.23468 0.15506 0.32235 0.0
H700 H 0.32602 0.23007 0.28257 0.0
H701 H 0.2517 0.26521 0.36641 0.0
H702 H 0.28005 0.17384 0.24443 0.0
H703 H 0.25586 0.20239 0.21522 0.0
H704 H 0.30391 0.20741 0.22349 0.0
H705 H 0.18851 0.25859 0.36064 0.0
H706 H 0.16967 0.24591 0.31544 0.0
H707 H 0.18263 0.21663 0.35104 0.0
H708 H 0.12372 0.19258 0.23064 0.0
H709 H 0.17254 0.12419 0.30799 0.0
H710 H 0.2065 0.24257 0.21943 0.0
H711 H 0.16742 0.25495 0.24594 0.0
H712 H 0.1615 0.23442 0.20135 0.0
H713 H 0.26155 0.15711 0.30835 0.0
H714 H 0.23094 0.12994 0.33262 0.0
H715 H 0.23495 0.17083 0.34775 0.0
C716 C 0.27422 0.2423 0.80385 0.0
C717 C 0.25159 0.26077 0.82681 0.0
C718 C 0.30946 0.25279 0.79476 0.0
C719 C 0.32207 0.28239 0.80906 0.0
C720 C 0.2988 0.30127 0.83181 0.0
C721 C 0.26376 0.29017 0.84041 0.0
C722 C 0.33337 0.23203 0.77044 0.0
C723 C 0.31114 0.33295 0.84765 0.0
C724 C 0.42093 0.29873 0.82981 0.0
C725 C 0.42986 0.32104 0.80075 0.0
C726 C 0.38662 0.28438 0.83134 0.0
C727 C 0.36039 0.29265 0.80317 0.0
C728 C 0.37008 0.3134 0.77211 0.0
C729 C 0.40481 0.32743 0.77129 0.0
C730 C 0.37773 0.26206 0.86466 0.0
C731 C 0.34308 0.32261 0.74125 0.0
H732 H 0.26437 0.21965 0.79308 0.0
H733 H 0.24587 0.30448 0.85785 0.0
H734 H 0.34408 0.24608 0.74557 0.0
H735 H 0.357 0.22374 0.78764 0.0
H736 H 0.31875 0.21073 0.75952 0.0
H737 H 0.28919 0.34542 0.86321 0.0
H738 H 0.33415 0.32905 0.86777 0.0
H739 H 0.32093 0.34883 0.82395 0.0
H740 H 0.44038 0.29352 0.85249 0.0
H741 H 0.41141 0.34498 0.74911 0.0
H742 H 0.36469 0.23987 0.85421 0.0
H743 H 0.35821 0.27385 0.88406 0.0
H744 H 0.40216 0.25538 0.88167 0.0
H745 H 0.32762 0.30136 0.73164 0.0
H746 H 0.35643 0.33403 0.71587 0.0
H747 H 0.32335 0.33981 0.75312 0.0
C748 C 0.77878 0.29418 0.6772 0.0
C749 C 0.79838 0.26657 0.68635 0.0
C750 C 0.7485 0.30284 0.69886 0.0
C751 C 0.73769 0.28339 0.73068 0.0
C752 C 0.75891 0.25641 0.74143 0.0
C753 C 0.78898 0.24807 0.71877 0.0
C754 C 0.72681 0.33177 0.68608 0.0
C755 C 0.74899 0.23544 0.77556 0.0
C756 C 0.6622 0.32672 0.78129 0.0
C757 C 0.63269 0.31629 0.7594 0.0
C758 C 0.69675 0.31318 0.77605 0.0
C759 C 0.70144 0.28911 0.74814 0.0
C760 C 0.6706 0.27569 0.73022 0.0
C761 C 0.63661 0.28947 0.73613 0.0
C762 C 0.72867 0.32705 0.79719 0.0
C763 C 0.67396 0.24968 0.70078 0.0
H764 H 0.78636 0.30844 0.6521 0.0
H765 H 0.80445 0.22672 0.7258 0.0
H766 H 0.69957 0.32405 0.67623 0.0
H767 H 0.72292 0.34817 0.71049 0.0
H768 H 0.74007 0.34533 0.6622 0.0
H769 H 0.77291 0.22217 0.78681 0.0
H770 H 0.73723 0.2497 0.79909 0.0
H771 H 0.72842 0.21761 0.76667 0.0
H772 H 0.65915 0.34738 0.79948 0.0
H773 H 0.61357 0.28117 0.71958 0.0
H774 H 0.74197 0.34548 0.77866 0.0
H775 H 0.749 0.30829 0.80414 0.0
H776 H 0.72008 0.33862 0.82424 0.0
H777 H 0.68578 0.25995 0.67394 0.0
H778 H 0.6473 0.23885 0.69367 0.0
H779 H 0.6923 0.23046 0.71129 0.0
C780 C 0.76765 0.21856 0.18391 0.0
C781 C 0.76539 0.25109 0.1923 0.0
C782 C 0.80031 0.20181 0.18936 0.0
C783 C 0.83117 0.2181 0.20372 0.0
C784 C 0.82875 0.25108 0.21222 0.0
C785 C 0.79578 0.26719 0.20641 0.0
C786 C 0.80181 0.16672 0.1798 0.0
C787 C 0.86095 0.26931 0.22749 0.0
C788 C 0.90849 0.16714 0.24419 0.0
C789 C 0.93163 0.16576 0.2124 0.0
C790 C 0.876 0.18472 0.24227 0.0
C791 C 0.86647 0.20108 0.20761 0.0
C792 C 0.89031 0.20045 0.17585 0.0
C793 C 0.92248 0.18286 0.17865 0.0
C794 C 0.85139 0.18492 0.27687 0.0
C795 C 0.88142 0.21771 0.13847 0.0
H796 H 0.74378 0.20614 0.1736 0.0
H797 H 0.79359 0.29231 0.21347 0.0
H798 H 0.82217 0.16283 0.15692 0.0
H799 H 0.81051 0.15255 0.20545 0.0
H800 H 0.77524 0.15741 0.16982 0.0
H801 H 0.85433 0.29465 0.23361 0.0
H802 H 0.87106 0.25764 0.25432 0.0
H803 H 0.88336 0.2689 0.20629 0.0
H804 H 0.91501 0.15346 0.26991 0.0
H805 H 0.94033 0.18209 0.15396 0.0
H806 H 0.82578 0.17223 0.27006 0.0
H807 H 0.84422 0.20986 0.2842 0.0
H808 H 0.86397 0.17317 0.30249 0.0
H809 H 0.85632 0.20753 0.12592 0.0
H810 H 0.90352 0.21584 0.11699 0.0
H811 H 0.87627 0.24341 0.14375 0.0
C812 C 0.80175 0.72847 0.67266 0.0
C813 C 0.76462 0.72541 0.67929 0.0
C814 C 0.82335 0.74782 0.69603 0.0
C815 C 0.80728 0.76429 0.72699 0.0
C816 C 0.77046 0.75832 0.73625 0.0
C817 C 0.74925 0.73927 0.71176 0.0
C818 C 0.86245 0.75327 0.68494 0.0
C819 C 0.7527 0.77405 0.77005 0.0
C820 C 0.87974 0.81304 0.77702 0.0
C821 C 0.87852 0.84118 0.75454 0.0
C822 C 0.8538 0.78863 0.77183 0.0
C823 C 0.82681 0.79244 0.74299 0.0
C824 C 0.82325 0.82236 0.72359 0.0
C825 C 0.84894 0.84639 0.72991 0.0
C826 C 0.85738 0.75788 0.7948 0.0
C827 C 0.79486 0.82789 0.6928 0.0
H828 H 0.81343 0.71766 0.64738 0.0
H829 H 0.7204 0.73676 0.71682 0.0
H830 H 0.86592 0.77815 0.67379 0.0
H831 H 0.88033 0.75032 0.71041 0.0
H832 H 0.87155 0.73654 0.66243 0.0
H833 H 0.72892 0.75999 0.7803 0.0
H834 H 0.77208 0.77686 0.79423 0.0
H835 H 0.74307 0.79822 0.76126 0.0
H836 H 0.90248 0.80891 0.79621 0.0
H837 H 0.84753 0.86843 0.71304 0.0
H838 H 0.87487 0.74105 0.77897 0.0
H839 H 0.83064 0.74623 0.79939 0.0
H840 H 0.87022 0.76222 0.8232 0.0
H841 H 0.80078 0.81265 0.66773 0.0
H842 H 0.79398 0.85326 0.6827 0.0
H843 H 0.76765 0.82113 0.70365 0.0
C844 C 0.74986 0.7506 0.2388 0.0
C845 C 0.76466 0.74357 0.20289 0.0
C846 C 0.71509 0.73956 0.24906 0.0
C847 C 0.69497 0.72101 0.22272 0.0
C848 C 0.70997 0.71419 0.1862 0.0
C849 C 0.74471 0.72559 0.17675 0.0
C850 C 0.70003 0.74743 0.2881 0.0
C851 C 0.6895 0.6945 0.15723 0.0
C852 C 0.62004 0.66262 0.2498 0.0
C853 C 0.58956 0.67879 0.23559 0.0
C854 C 0.65444 0.67713 0.24881 0.0
C855 C 0.65828 0.70842 0.23287 0.0
C856 C 0.627 0.72575 0.22152 0.0
C857 C 0.59302 0.71057 0.22268 0.0
C858 C 0.68701 0.65784 0.26139 0.0
C859 C 0.62974 0.75924 0.20477 0.0
H860 H 0.76565 0.76442 0.25901 0.0
H861 H 0.7565 0.72008 0.14909 0.0
H862 H 0.67385 0.76017 0.2848 0.0
H863 H 0.69454 0.72503 0.3047 0.0
H864 H 0.71884 0.76256 0.305 0.0
H865 H 0.70492 0.69145 0.13014 0.0
H866 H 0.68337 0.67046 0.16968 0.0
H867 H 0.66326 0.7061 0.15018 0.0
H868 H 0.61752 0.63768 0.2586 0.0
H869 H 0.56949 0.72278 0.21088 0.0
H870 H 0.705 0.67229 0.27995 0.0
H871 H 0.70287 0.65105 0.23572 0.0
H872 H 0.67917 0.63563 0.27735 0.0
H873 H 0.64839 0.77411 0.2221 0.0
H874 H 0.60291 0.77119 0.20324 0.0
H875 H 0.64096 0.7582 0.17523 0.0
C876 C 0.28278 0.74514 0.34858 0.0
C877 C 0.24982 0.75862 0.33732 0.0
C878 C 0.30613 0.73176 0.32157 0.0
C879 C 0.29638 0.73217 0.28203 0.0
C880 C 0.26403 0.74781 0.27022 0.0
C881 C 0.24075 0.76056 0.29822 0.0
C882 C 0.34019 0.71535 0.33586 0.0
C883 C 0.25293 0.74981 0.22848 0.0
C884 C 0.3789 0.70225 0.23088 0.0
C885 C 0.37296 0.66924 0.23516 0.0
C886 C 0.35151 0.72412 0.24051 0.0
C887 C 0.31806 0.71243 0.25505 0.0
C888 C 0.31023 0.6793 0.25283 0.0
C889 C 0.33787 0.65808 0.24285 0.0
C890 C 0.36012 0.75941 0.24004 0.0
C891 C 0.27461 0.66567 0.26677 0.0
H892 H 0.28957 0.7437 0.37896 0.0
H893 H 0.21509 0.77106 0.28962 0.0
H894 H 0.33878 0.6894 0.32964 0.0
H895 H 0.36423 0.72531 0.32075 0.0
H896 H 0.3443 0.7181 0.36731 0.0
H897 H 0.23652 0.77161 0.22261 0.0
H898 H 0.27674 0.75002 0.20904 0.0
H899 H 0.23593 0.72873 0.22155 0.0
H900 H 0.406 0.71099 0.22476 0.0
H901 H 0.33324 0.63249 0.24581 0.0
H902 H 0.36963 0.76649 0.26899 0.0
H903 H 0.33569 0.77376 0.23285 0.0
H904 H 0.38186 0.76526 0.21899 0.0
H905 H 0.2739 0.66616 0.29869 0.0
H906 H 0.27068 0.64052 0.25765 0.0
H907 H 0.25167 0.68026 0.25577 0.0
C908 C 0.25337 0.78147 0.82408 0.0
C909 C 0.25273 0.74874 0.81646 0.0
C910 C 0.22163 0.79987 0.82084 0.0
C911 C 0.18875 0.78502 0.80956 0.0
C912 C 0.18829 0.75187 0.80162 0.0
C913 C 0.22039 0.7341 0.80517 0.0
C914 C 0.2232 0.83511 0.82968 0.0
C915 C 0.15386 0.73515 0.78956 0.0
C916 C 0.10159 0.82348 0.84258 0.0
C917 C 0.09005 0.84021 0.80941 0.0
C918 C 0.1334 0.8053 0.84276 0.0
C919 C 0.15437 0.80362 0.80888 0.0
C920 C 0.14262 0.81994 0.77498 0.0
C921 C 0.11065 0.83824 0.77575 0.0
C922 C 0.14476 0.78818 0.87947 0.0
C923 C 0.16412 0.8186 0.73816 0.0
H924 H 0.27872 0.79272 0.83217 0.0
H925 H 0.22031 0.70879 0.79867 0.0
H926 H 0.21308 0.84938 0.80471 0.0
H927 H 0.20533 0.84024 0.85443 0.0
H928 H 0.2511 0.84323 0.83669 0.0
H929 H 0.1584 0.70955 0.78292 0.0
H930 H 0.13347 0.73655 0.81286 0.0
H931 H 0.14217 0.74729 0.76378 0.0
H932 H 0.08575 0.82472 0.86873 0.0
H933 H 0.10247 0.85176 0.75046 0.0
H934 H 0.17161 0.79713 0.88893 0.0
H935 H 0.14755 0.76215 0.87436 0.0
H936 H 0.12509 0.79153 0.90319 0.0
H937 H 0.19079 0.83038 0.7423 0.0
H938 H 0.14996 0.83062 0.71367 0.0
H939 H 0.16942 0.79336 0.73052 0.0
loop_
_geom_bond_atom_site_label_1
_geom_bond_atom_site_label_2
_geom_bond_distance
_geom_bond_site_symmetry_2
_ccdc_geom_bond_type
H0 C3 0.929 . S
H1 C6 0.929 . S
H2 C8 0.930 . S
C3 H0 0.929 . S
C3 C4 1.398 . S
C3 C5 1.396 . S
C4 C3 1.398 . S
C4 C8 1.407 . S
C5 C3 1.396 . S
C5 C6 1.394 . S
C6 H1 0.929 . S
C6 C5 1.394 . S
C6 C7 1.382 . S
C7 C6 1.382 . S
C7 C8 1.392 . S
C7 N9 1.420 . S
C8 H2 0.930 . S
C8 C4 1.407 . S
C8 C7 1.392 . S
N9 C7 1.420 . S
N9 C10 1.244 . S
C10 N9 1.244 . S
H11 C14 0.929 . S
H12 C17 0.929 . S
H13 C19 0.930 . S
C14 H11 0.929 . S
C14 C15 1.398 . S
C14 C16 1.396 . S
C15 C14 1.398 . S
C15 C19 1.407 . S
C16 C14 1.396 . S
C16 C17 1.394 . S
C17 H12 0.929 . S
C17 C16 1.394 . S
C17 C18 1.382 . S
C18 C17 1.382 . S
C18 C19 1.392 . S
C18 N20 1.420 . S
C19 H13 0.930 . S
C19 C15 1.407 . S
C19 C18 1.392 . S
N20 C18 1.420 . S
N20 C21 1.244 . S
C21 N20 1.244 . S
H22 C25 0.929 . S
H23 C28 0.929 . S
H24 C30 0.930 . S
C25 H22 0.929 . S
C25 C26 1.398 . S
C25 C27 1.396 . S
C26 C25 1.398 . S
C26 C30 1.407 . S
C27 C25 1.396 . S
C27 C28 1.394 . S
C28 H23 0.929 . S
C28 C27 1.394 . S
C28 C29 1.382 . S
C29 C28 1.382 . S
C29 C30 1.392 . S
C29 N31 1.420 . S
C30 H24 0.930 . S
C30 C26 1.407 . S
C30 C29 1.392 . S
N31 C29 1.420 . S
N31 C32 1.244 . S
C32 N31 1.244 . S
H33 C36 0.929 . S
H34 C39 0.929 . S
H35 C41 0.930 . S
C36 H33 0.929 . S
C36 C37 1.398 . S
C36 C38 1.396 . S
C37 C36 1.398 . S
C37 C41 1.407 . S
C38 C36 1.396 . S
C38 C39 1.394 . S
C39 H34 0.929 . S
C39 C38 1.394 . S
C39 C40 1.382 . S
C40 C39 1.382 . S
C40 C41 1.392 . S
C40 N42 1.420 . S
C41 H35 0.930 . S
C41 C37 1.407 . S
C41 C40 1.392 . S
N42 C40 1.420 . S
N42 C43 1.244 . S
C43 N42 1.244 . S
H44 C47 0.929 . S
H45 C50 0.929 . S
H46 C52 0.930 . S
C47 H44 0.929 . S
C47 C48 1.398 . S
C47 C49 1.396 . S
C48 C47 1.398 . S
C48 C52 1.407 . S
C49 C47 1.396 . S
C49 C50 1.394 . S
C50 H45 0.929 . S
C50 C49 1.394 . S
C50 C51 1.382 . S
C51 C50 1.382 . S
C51 C52 1.392 . S
C51 N53 1.420 . S
C52 H46 0.930 . S
C52 C48 1.407 . S
C52 C51 1.392 . S
N53 C51 1.420 . S
N53 C54 1.244 . S
C54 N53 1.244 . S
H55 C58 0.929 . S
H56 C61 0.929 . S
H57 C63 0.930 . S
C58 H55 0.929 . S
C58 C59 1.398 . S
C58 C60 1.396 . S
C59 C58 1.398 . S
C59 C63 1.407 . S
C60 C58 1.396 . S
C60 C61 1.394 . S
C61 H56 0.929 . S
C61 C60 1.394 . S
C61 C62 1.382 . S
C62 C61 1.382 . S
C62 C63 1.392 . S
C62 N64 1.420 . S
C63 H57 0.930 . S
C63 C59 1.407 . S
C63 C62 1.392 . S
N64 C62 1.420 . S
N64 C65 1.244 . S
C65 N64 1.244 . S
H66 C69 0.929 . S
H67 C72 0.929 . S
H68 C74 0.930 . S
C69 H66 0.929 . S
C69 C70 1.398 . S
C69 C71 1.396 . S
C70 C69 1.398 . S
C70 C74 1.407 . S
C71 C69 1.396 . S
C71 C72 1.394 . S
C72 H67 0.929 . S
C72 C71 1.394 . S
C72 C73 1.382 . S
C73 C72 1.382 . S
C73 C74 1.392 . S
C73 N75 1.420 . S
C74 H68 0.930 . S
C74 C70 1.407 . S
C74 C73 1.392 . S
N75 C73 1.420 . S
N75 C76 1.244 . S
C76 N75 1.244 . S
H77 C80 0.929 . S
H78 C83 0.929 . S
H79 C85 0.930 . S
C80 H77 0.929 . S
C80 C81 1.398 . S
C80 C82 1.396 . S
C81 C80 1.398 . S
C81 C85 1.407 . S
C82 C80 1.396 . S
C82 C83 1.394 . S
C83 H78 0.929 . S
C83 C82 1.394 . S
C83 C84 1.382 . S
C84 C83 1.382 . S
C84 C85 1.392 . S
C84 N86 1.420 . S
C85 H79 0.930 . S
C85 C81 1.407 . S
C85 C84 1.392 . S
N86 C84 1.420 . S
N86 C87 1.244 . S
C87 N86 1.244 . S
Zn88 O94 1.920 . S
Zn88 O100 1.898 . S
Zn88 O103 1.905 . S
Zn89 O97 1.905 1_655 S
Zn89 O98 1.898 . S
Zn89 O106 1.920 . S
Zn90 O93 2.080 1_455 S
Zn90 O96 2.114 . S
Zn90 O99 2.120 1_455 S
Zn90 O101 2.120 . S
Zn90 O102 2.114 . S
Zn90 O105 2.080 1_455 S
C91 O96 1.166 . S
C91 O97 1.182 . S
C92 O98 1.167 . S
C92 O99 1.299 . S
O93 Zn90 2.080 1_655 S
O93 C107 1.305 . S
O94 Zn88 1.920 . S
O94 C107 1.234 1_455 S
C95 O100 1.167 . S
C95 O101 1.299 . S
O96 Zn90 2.114 . S
O96 C91 1.166 . S
O97 Zn89 1.905 1_455 S
O97 C91 1.182 . S
O98 Zn89 1.898 . S
O98 C92 1.167 . S
O99 Zn90 2.120 1_655 S
O99 C92 1.299 . S
O100 Zn88 1.898 . S
O100 C95 1.167 . S
O101 Zn90 2.120 . S
O101 C95 1.299 . S
O102 Zn90 2.114 . S
O102 C104 1.166 . S
O103 Zn88 1.905 . S
O103 C104 1.182 . S
C104 O102 1.166 . S
C104 O103 1.182 . S
O105 Zn90 2.080 1_655 S
O105 C108 1.305 . S
O106 Zn89 1.920 . S
O106 C108 1.234 . S
C107 O93 1.305 . S
C107 O94 1.234 1_655 S
C108 O105 1.305 . S
C108 O106 1.234 . S
Zn109 O115 1.920 . S
Zn109 O121 1.898 . S
Zn109 O124 1.905 . S
Zn110 O118 1.905 . S
Zn110 O119 1.898 . S
Zn110 O127 1.920 . S
Zn111 O114 2.080 . S
Zn111 O117 2.114 . S
Zn111 O120 2.120 . S
Zn111 O122 2.120 . S
Zn111 O123 2.114 . S
Zn111 O126 2.080 . S
C112 O117 1.166 . S
C112 O118 1.182 . S
C113 O119 1.167 . S
C113 O120 1.299 . S
O114 Zn111 2.080 . S
O114 C128 1.305 . S
O115 Zn109 1.920 . S
O115 C128 1.234 . S
C116 O121 1.167 . S
C116 O122 1.299 . S
O117 Zn111 2.114 . S
O117 C112 1.166 . S
O118 Zn110 1.905 . S
O118 C112 1.182 . S
O119 Zn110 1.898 . S
O119 C113 1.167 . S
O120 Zn111 2.120 . S
O120 C113 1.299 . S
O121 Zn109 1.898 . S
O121 C116 1.167 . S
O122 Zn111 2.120 . S
O122 C116 1.299 . S
O123 Zn111 2.114 . S
O123 C125 1.166 . S
O124 Zn109 1.905 . S
O124 C125 1.182 . S
C125 O123 1.166 . S
C125 O124 1.182 . S
O126 Zn111 2.080 . S
O126 C129 1.305 . S
O127 Zn110 1.920 . S
O127 C129 1.234 . S
C128 O114 1.305 . S
C128 O115 1.234 . S
C129 O126 1.305 . S
C129 O127 1.234 . S
Zn130 O136 1.920 . S
Zn130 O142 1.898 . S
Zn130 O145 1.905 1_455 S
Zn131 O139 1.905 . S
Zn131 O140 1.898 . S
Zn131 O148 1.920 1_655 S
Zn132 O135 2.080 . S
Zn132 O138 2.114 1_455 S
Zn132 O141 2.120 1_455 S
Zn132 O143 2.120 . S
Zn132 O144 2.114 1_455 S
Zn132 O147 2.080 . S
C133 O138 1.166 . S
C133 O139 1.182 . S
C134 O140 1.167 . S
C134 O141 1.299 . S
O135 Zn132 2.080 . S
O135 C149 1.305 . S
O136 Zn130 1.920 . S
O136 C149 1.234 . S
C137 O142 1.167 . S
C137 O143 1.299 . S
O138 Zn132 2.114 1_655 S
O138 C133 1.166 . S
O139 Zn131 1.905 . S
O139 C133 1.182 . S
O140 Zn131 1.898 . S
O140 C134 1.167 . S
O141 Zn132 2.120 1_655 S
O141 C134 1.299 . S
O142 Zn130 1.898 . S
O142 C137 1.167 . S
O143 Zn132 2.120 . S
O143 C137 1.299 . S
O144 Zn132 2.114 1_655 S
O144 C146 1.166 . S
O145 Zn130 1.905 1_655 S
O145 C146 1.182 . S
C146 O144 1.166 . S
C146 O145 1.182 . S
O147 Zn132 2.080 . S
O147 C150 1.305 . S
O148 Zn131 1.920 1_455 S
O148 C150 1.234 . S
C149 O135 1.305 . S
C149 O136 1.234 . S
C150 O147 1.305 . S
C150 O148 1.234 . S
Zn151 O157 1.920 . S
Zn151 O163 1.898 . S
Zn151 O166 1.905 . S
Zn152 O160 1.905 . S
Zn152 O161 1.898 . S
Zn152 O169 1.920 . S
Zn153 O156 2.080 . S
Zn153 O159 2.114 . S
Zn153 O162 2.120 . S
Zn153 O164 2.120 . S
Zn153 O165 2.114 . S
Zn153 O168 2.080 . S
C154 O159 1.166 . S
C154 O160 1.182 . S
C155 O161 1.167 . S
C155 O162 1.299 . S
O156 Zn153 2.080 . S
O156 C170 1.305 . S
O157 Zn151 1.920 . S
O157 C170 1.234 . S
C158 O163 1.167 . S
C158 O164 1.299 . S
O159 Zn153 2.114 . S
O159 C154 1.166 . S
O160 Zn152 1.905 . S
O160 C154 1.182 . S
O161 Zn152 1.898 . S
O161 C155 1.167 . S
O162 Zn153 2.120 . S
O162 C155 1.299 . S
O163 Zn151 1.898 . S
O163 C158 1.167 . S
O164 Zn153 2.120 . S
O164 C158 1.299 . S
O165 Zn153 2.114 . S
O165 C167 1.166 . S
O166 Zn151 1.905 . S
O166 C167 1.182 . S
C167 O165 1.166 . S
C167 O166 1.182 . S
O168 Zn153 2.080 . S
O168 C171 1.305 . S
O169 Zn152 1.920 . S
O169 C171 1.234 . S
C170 O156 1.305 . S
C170 O157 1.234 . S
C171 O168 1.305 . S
C171 O169 1.234 . S
C172 C173 1.391 . S
C172 C174 1.394 . S
C172 H188 0.931 . S
C173 C172 1.391 . S
C173 C177 1.376 . S
C174 C172 1.394 . S
C174 C175 1.369 . S
C174 C178 1.531 . S
C175 C174 1.369 . S
C175 C176 1.410 . S
C175 C183 1.503 . S
C176 C175 1.410 . S
C176 C177 1.392 . S
C176 C179 1.511 . S
C177 C173 1.376 . S
C177 C176 1.392 . S
C177 H189 0.929 . S
C178 C174 1.531 . S
C178 H190 0.960 . S
C178 H191 0.962 . S
C178 H192 0.960 . S
C179 C176 1.511 . S
C179 H193 0.961 . S
C179 H194 0.961 . S
C179 H195 0.961 . S
C180 C181 1.370 . S
C180 C182 1.344 1_545 S
C180 H196 0.931 . S
C181 C180 1.370 . S
C181 C185 1.408 . S
C182 C180 1.344 1_565 S
C182 C183 1.389 . S
C182 C186 1.524 . S
C183 C175 1.503 . S
C183 C182 1.389 . S
C183 C184 1.403 . S
C184 C183 1.403 . S
C184 C185 1.404 1_565 S
C184 C187 1.539 . S
C185 C181 1.408 . S
C185 C184 1.404 1_545 S
C185 H197 0.930 . S
C186 C182 1.524 . S
C186 H198 0.969 . S
C186 H199 0.982 . S
C186 H200 0.928 1_565 S
C187 C184 1.539 . S
C187 H201 0.958 . S
C187 H202 0.961 . S
C187 H203 0.960 . S
H188 C172 0.931 . S
H189 C177 0.929 . S
H190 C178 0.960 . S
H191 C178 0.962 . S
H192 C178 0.960 . S
H193 C179 0.961 . S
H194 C179 0.961 . S
H195 C179 0.961 . S
H196 C180 0.931 . S
H197 C185 0.930 . S
H198 C186 0.969 . S
H199 C186 0.982 . S
H200 C186 0.928 1_545 S
H201 C187 0.958 . S
H202 C187 0.961 . S
H203 C187 0.960 . S
C204 C205 1.391 . S
C204 C206 1.394 . S
C204 H220 0.931 . S
C205 C204 1.391 . S
C205 C209 1.376 . S
C206 C204 1.394 . S
C206 C207 1.369 . S
C206 C210 1.531 . S
C207 C206 1.369 . S
C207 C208 1.410 . S
C207 C215 1.503 . S
C208 C207 1.410 . S
C208 C209 1.392 . S
C208 C211 1.511 . S
C209 C205 1.376 . S
C209 C208 1.392 . S
C209 H221 0.929 . S
C210 C206 1.531 . S
C210 H222 0.960 . S
C210 H223 0.962 . S
C210 H224 0.960 . S
C211 C208 1.511 . S
C211 H225 0.961 . S
C211 H226 0.961 . S
C211 H227 0.961 . S
C212 C213 1.370 . S
C212 C214 1.363 . S
C212 H228 0.931 . S
C213 C212 1.370 . S
C213 C217 1.408 . S
C214 C212 1.363 . S
C214 C215 1.370 . S
C214 C218 1.524 . S
C215 C207 1.503 . S
C215 C214 1.370 . S
C215 C216 1.403 . S
C216 C215 1.403 . S
C216 C217 1.404 . S
C216 C219 1.539 . S
C217 C213 1.408 . S
C217 C216 1.404 . S
C217 H229 0.930 . S
C218 C214 1.524 . S
C218 H230 0.956 . S
C218 H231 0.961 . S
C218 H232 0.961 . S
C219 C216 1.539 . S
C219 H233 0.958 . S
C219 H234 0.961 . S
C219 H235 0.960 . S
H220 C204 0.931 . S
H221 C209 0.929 . S
H222 C210 0.960 . S
H223 C210 0.962 . S
H224 C210 0.960 . S
H225 C211 0.961 . S
H226 C211 0.961 . S
H227 C211 0.961 . S
H228 C212 0.931 . S
H229 C217 0.930 . S
H230 C218 0.956 . S
H231 C218 0.961 . S
H232 C218 0.961 . S
H233 C219 0.958 . S
H234 C219 0.961 . S
H235 C219 0.960 . S
C236 C237 1.391 . S
C236 C238 1.394 . S
C236 H252 0.931 . S
C237 C236 1.391 . S
C237 C241 1.376 . S
C238 C236 1.394 . S
C238 C239 1.369 . S
C238 C242 1.531 . S
C239 C238 1.369 . S
C239 C240 1.410 . S
C239 C247 1.503 . S
C240 C239 1.410 . S
C240 C241 1.392 . S
C240 C243 1.511 . S
C241 C237 1.376 . S
C241 C240 1.392 . S
C241 H253 0.929 . S
C242 C238 1.531 . S
C242 H254 0.960 . S
C242 H255 0.962 . S
C242 H256 0.960 . S
C243 C240 1.511 . S
C243 H257 0.961 . S
C243 H258 0.961 . S
C243 H259 0.961 . S
C244 C245 1.370 . S
C244 C246 1.363 . S
C244 H260 0.931 . S
C245 C244 1.370 . S
C245 C249 1.408 . S
C246 C244 1.363 . S
C246 C247 1.370 . S
C246 C250 1.524 . S
C247 C239 1.503 . S
C247 C246 1.370 . S
C247 C248 1.403 . S
C248 C247 1.403 . S
C248 C249 1.404 . S
C248 C251 1.539 . S
C249 C245 1.408 . S
C249 C248 1.404 . S
C249 H261 0.930 . S
C250 C246 1.524 . S
C250 H262 0.956 . S
C250 H263 0.961 . S
C250 H264 0.961 . S
C251 C248 1.539 . S
C251 H265 0.958 . S
C251 H266 0.961 . S
C251 H267 0.960 . S
H252 C236 0.931 . S
H253 C241 0.929 . S
H254 C242 0.960 . S
H255 C242 0.962 . S
H256 C242 0.960 . S
H257 C243 0.961 . S
H258 C243 0.961 . S
H259 C243 0.961 . S
H260 C244 0.931 . S
H261 C249 0.930 . S
H262 C250 0.956 . S
H263 C250 0.961 . S
H264 C250 0.961 . S
H265 C251 0.958 . S
H266 C251 0.961 . S
H267 C251 0.960 . S
C268 C269 1.391 . S
C268 C270 1.394 . S
C268 H284 0.931 . S
C269 C268 1.391 . S
C269 C273 1.376 . S
C270 C268 1.394 . S
C270 C271 1.369 . S
C270 C274 1.531 . S
C271 C270 1.369 . S
C271 C272 1.410 . S
C271 C279 1.503 . S
C272 C271 1.410 . S
C272 C273 1.392 . S
C272 C275 1.511 . S
C273 C269 1.376 . S
C273 C272 1.392 . S
C273 H285 0.929 . S
C274 C270 1.531 . S
C274 H286 0.960 . S
C274 H287 0.962 . S
C274 H288 0.960 . S
C275 C272 1.511 . S
C275 H289 0.961 . S
C275 H290 0.961 . S
C275 H291 0.961 . S
C276 C277 1.370 . S
C276 C278 1.358 1_545 S
C276 H292 0.931 . S
C277 C276 1.370 . S
C277 C281 1.408 . S
C278 C276 1.358 1_565 S
C278 C279 1.375 . S
C278 C282 1.525 . S
C279 C271 1.503 . S
C279 C278 1.375 . S
C279 C280 1.403 . S
C280 C279 1.403 . S
C280 C281 1.404 1_565 S
C280 C283 1.539 . S
C281 C277 1.408 . S
C281 C280 1.404 1_545 S
C281 H293 0.930 1_655 S
C282 C278 1.525 . S
C282 H294 0.956 . S
C282 H295 0.961 . S
C282 H296 0.961 1_565 S
C283 C280 1.539 . S
C283 H297 0.958 . S
C283 H298 0.961 1_655 S
C283 H299 0.960 . S
H284 C268 0.931 . S
H285 C273 0.929 . S
H286 C274 0.960 . S
H287 C274 0.962 . S
H288 C274 0.960 . S
H289 C275 0.961 . S
H290 C275 0.961 . S
H291 C275 0.961 . S
H292 C276 0.931 . S
H293 C281 0.930 1_455 S
H294 C282 0.956 . S
H295 C282 0.961 . S
H296 C282 0.961 1_545 S
H297 C283 0.958 . S
H298 C283 0.961 1_455 S
H299 C283 0.960 . S
C300 C301 1.391 . S
C300 C302 1.394 . S
C300 H316 0.931 . S
C301 C300 1.391 . S
C301 C305 1.376 . S
C302 C300 1.394 . S
C302 C303 1.369 . S
C302 C306 1.531 . S
C303 C302 1.369 . S
C303 C304 1.410 . S
C303 C311 1.503 . S
C304 C303 1.410 . S
C304 C305 1.392 . S
C304 C307 1.511 . S
C305 C301 1.376 . S
C305 C304 1.392 . S
C305 H317 0.929 . S
C306 C302 1.531 . S
C306 H318 0.960 . S
C306 H319 0.962 . S
C306 H320 0.960 . S
C307 C304 1.511 . S
C307 H321 0.961 . S
C307 H322 0.961 . S
C307 H323 0.961 . S
C308 C309 1.370 . S
C308 C310 1.363 1_565 S
C308 H324 0.931 . S
C309 C308 1.370 . S
C309 C313 1.408 . S
C310 C308 1.363 1_545 S
C310 C311 1.370 . S
C310 C314 1.524 . S
C311 C303 1.503 . S
C311 C310 1.370 . S
C311 C312 1.403 . S
C312 C311 1.403 . S
C312 C313 1.404 1_545 S
C312 C315 1.539 . S
C313 C309 1.408 . S
C313 C312 1.404 1_565 S
C313 H325 0.930 . S
C314 C310 1.524 . S
C314 H326 0.956 . S
C314 H327 0.961 . S
C314 H328 0.961 . S
C315 C312 1.539 . S
C315 H329 0.958 . S
C315 H330 0.961 . S
C315 H331 0.960 . S
H316 C300 0.931 . S
H317 C305 0.929 . S
H318 C306 0.960 . S
H319 C306 0.962 . S
H320 C306 0.960 . S
H321 C307 0.961 . S
H322 C307 0.961 . S
H323 C307 0.961 . S
H324 C308 0.931 . S
H325 C313 0.930 . S
H326 C314 0.956 . S
H327 C314 0.961 . S
H328 C314 0.961 . S
H329 C315 0.958 . S
H330 C315 0.961 . S
H331 C315 0.960 . S
C332 C333 1.391 . S
C332 C334 1.394 . S
C332 H348 0.931 . S
C333 C332 1.391 . S
C333 C337 1.376 . S
C334 C332 1.394 . S
C334 C335 1.369 . S
C334 C338 1.531 . S
C335 C334 1.369 . S
C335 C336 1.410 . S
C335 C343 1.503 . S
C336 C335 1.410 . S
C336 C337 1.392 . S
C336 C339 1.511 . S
C337 C333 1.376 . S
C337 C336 1.392 . S
C337 H349 0.929 . S
C338 C334 1.531 . S
C338 H350 0.960 . S
C338 H351 0.962 . S
C338 H352 0.960 . S
C339 C336 1.511 . S
C339 H353 0.961 . S
C339 H354 0.961 . S
C339 H355 0.961 . S
C340 C341 1.370 . S
C340 C342 1.363 . S
C340 H356 0.931 . S
C341 C340 1.370 . S
C341 C345 1.408 . S
C342 C340 1.363 . S
C342 C343 1.370 . S
C342 C346 1.524 . S
C343 C335 1.503 . S
C343 C342 1.370 . S
C343 C344 1.403 . S
C344 C343 1.403 . S
C344 C345 1.404 . S
C344 C347 1.539 . S
C345 C341 1.408 . S
C345 C344 1.404 . S
C345 H357 0.930 . S
C346 C342 1.524 . S
C346 H358 0.956 . S
C346 H359 0.961 . S
C346 H360 0.961 . S
C347 C344 1.539 . S
C347 H361 0.958 . S
C347 H362 0.961 . S
C347 H363 0.960 . S
H348 C332 0.931 . S
H349 C337 0.929 . S
H350 C338 0.960 . S
H351 C338 0.962 . S
H352 C338 0.960 . S
H353 C339 0.961 . S
H354 C339 0.961 . S
H355 C339 0.961 . S
H356 C340 0.931 . S
H357 C345 0.930 . S
H358 C346 0.956 . S
H359 C346 0.961 . S
H360 C346 0.961 . S
H361 C347 0.958 . S
H362 C347 0.961 . S
H363 C347 0.960 . S
C364 C365 1.391 . S
C364 C366 1.394 . S
C364 H380 0.931 . S
C365 C364 1.391 . S
C365 C369 1.376 . S
C366 C364 1.394 . S
C366 C367 1.369 . S
C366 C370 1.531 . S
C367 C366 1.369 . S
C367 C368 1.410 . S
C367 C375 1.503 . S
C368 C367 1.410 . S
C368 C369 1.392 . S
C368 C371 1.511 . S
C369 C365 1.376 . S
C369 C368 1.392 . S
C369 H381 0.929 . S
C370 C366 1.531 . S
C370 H382 0.960 . S
C370 H383 0.962 . S
C370 H384 0.960 . S
C371 C368 1.511 . S
C371 H385 0.961 . S
C371 H386 0.961 . S
C371 H387 0.961 . S
C372 C373 1.370 . S
C372 C374 1.363 . S
C372 H388 0.931 . S
C373 C372 1.370 . S
C373 C377 1.408 . S
C374 C372 1.363 . S
C374 C375 1.370 . S
C374 C378 1.524 . S
C375 C367 1.503 . S
C375 C374 1.370 . S
C375 C376 1.403 . S
C376 C375 1.403 . S
C376 C377 1.404 . S
C376 C379 1.539 . S
C377 C373 1.408 . S
C377 C376 1.404 . S
C377 H389 0.930 . S
C378 C374 1.524 . S
C378 H390 0.956 . S
C378 H391 0.961 . S
C378 H392 0.961 . S
C379 C376 1.539 . S
C379 H393 0.958 . S
C379 H394 0.961 . S
C379 H395 0.960 . S
H380 C364 0.931 . S
H381 C369 0.929 . S
H382 C370 0.960 . S
H383 C370 0.962 . S
H384 C370 0.960 . S
H385 C371 0.961 . S
H386 C371 0.961 . S
H387 C371 0.961 . S
H388 C372 0.931 . S
H389 C377 0.930 . S
H390 C378 0.956 . S
H391 C378 0.961 . S
H392 C378 0.961 . S
H393 C379 0.958 . S
H394 C379 0.961 . S
H395 C379 0.960 . S
C396 C397 1.391 . S
C396 C398 1.394 . S
C396 H412 0.931 . S
C397 C396 1.391 . S
C397 C401 1.376 . S
C398 C396 1.394 . S
C398 C399 1.369 . S
C398 C402 1.531 . S
C399 C398 1.369 . S
C399 C400 1.410 . S
C399 C407 1.503 . S
C400 C399 1.410 . S
C400 C401 1.392 . S
C400 C403 1.511 . S
C401 C397 1.376 . S
C401 C400 1.392 . S
C401 H413 0.929 . S
C402 C398 1.531 . S
C402 H414 0.960 . S
C402 H415 0.962 . S
C402 H416 0.960 . S
C403 C400 1.511 . S
C403 H417 0.961 . S
C403 H418 0.961 . S
C403 H419 0.961 . S
C404 C405 1.370 . S
C404 C406 1.363 1_565 S
C404 H420 0.931 . S
C405 C404 1.370 . S
C405 C409 1.408 . S
C406 C404 1.363 1_545 S
C406 C407 1.370 . S
C406 C410 1.524 . S
C407 C399 1.503 . S
C407 C406 1.370 . S
C407 C408 1.403 . S
C408 C407 1.403 . S
C408 C409 1.404 1_545 S
C408 C411 1.539 . S
C409 C405 1.408 . S
C409 C408 1.404 1_565 S
C409 H421 0.930 . S
C410 C406 1.524 . S
C410 H422 0.956 . S
C410 H423 0.961 . S
C410 H424 0.961 . S
C411 C408 1.539 . S
C411 H425 0.958 . S
C411 H426 0.961 1_545 S
C411 H427 0.960 . S
H412 C396 0.931 . S
H413 C401 0.929 . S
H414 C402 0.960 . S
H415 C402 0.962 . S
H416 C402 0.960 . S
H417 C403 0.961 . S
H418 C403 0.961 . S
H419 C403 0.961 . S
H420 C404 0.931 . S
H421 C409 0.930 . S
H422 C410 0.956 . S
H423 C410 0.961 . S
H424 C410 0.961 . S
H425 C411 0.958 . S
H426 C411 0.961 1_565 S
H427 C411 0.960 . S
C428 C429 1.391 1_554 S
C428 C430 1.394 . S
C428 H444 0.929 1_554 S
C429 C428 1.391 1_556 S
C429 C433 1.376 . S
C430 C428 1.394 . S
C430 C431 1.369 . S
C430 C434 1.531 . S
C431 C430 1.369 . S
C431 C432 1.410 . S
C431 C439 1.503 . S
C432 C431 1.410 . S
C432 C433 1.392 1_554 S
C432 C435 1.511 . S
C433 C429 1.376 . S
C433 C432 1.392 1_556 S
C433 H445 0.929 . S
C434 C430 1.531 . S
C434 H446 0.960 . S
C434 H447 0.962 . S
C434 H448 0.960 . S
C435 C432 1.511 . S
C435 H449 0.961 1_554 S
C435 H450 0.961 . S
C435 H451 0.961 . S
C436 C437 1.370 . S
C436 C438 1.363 . S
C436 H452 0.931 . S
C437 C436 1.370 . S
C437 C441 1.408 . S
C438 C436 1.363 . S
C438 C439 1.370 . S
C438 C442 1.524 . S
C439 C431 1.503 . S
C439 C438 1.370 . S
C439 C440 1.403 . S
C440 C439 1.403 . S
C440 C441 1.404 . S
C440 C443 1.539 . S
C441 C437 1.408 . S
C441 C440 1.404 . S
C441 H453 0.930 . S
C442 C438 1.524 . S
C442 H454 0.956 . S
C442 H455 0.961 . S
C442 H456 0.961 . S
C443 C440 1.539 . S
C443 H457 0.958 . S
C443 H458 0.961 . S
C443 H459 0.960 . S
H444 C428 0.929 1_556 S
H445 C433 0.929 . S
H446 C434 0.960 . S
H447 C434 0.962 . S
H448 C434 0.960 . S
H449 C435 0.961 1_556 S
H450 C435 0.961 . S
H451 C435 0.961 . S
H452 C436 0.931 . S
H453 C441 0.930 . S
H454 C442 0.956 . S
H455 C442 0.961 . S
H456 C442 0.961 . S
H457 C443 0.958 . S
H458 C443 0.961 . S
H459 C443 0.960 . S
C460 C461 1.391 . S
C460 C462 1.394 . S
C460 H476 0.931 . S
C461 C460 1.391 . S
C461 C465 1.376 . S
C462 C460 1.394 . S
C462 C463 1.369 . S
C462 C466 1.531 . S
C463 C462 1.369 . S
C463 C464 1.410 . S
C463 C471 1.503 . S
C464 C463 1.410 . S
C464 C465 1.392 . S
C464 C467 1.511 . S
C465 C461 1.376 . S
C465 C464 1.392 . S
C465 H477 0.929 . S
C466 C462 1.531 . S
C466 H478 0.960 . S
C466 H479 0.962 . S
C466 H480 0.960 . S
C467 C464 1.511 . S
C467 H481 0.961 . S
C467 H482 0.961 . S
C467 H483 0.961 . S
C468 C469 1.370 . S
C468 C470 1.363 . S
C468 H484 0.931 . S
C469 C468 1.370 . S
C469 C473 1.408 . S
C470 C468 1.363 . S
C470 C471 1.370 . S
C470 C474 1.524 . S
C471 C463 1.503 . S
C471 C470 1.370 . S
C471 C472 1.403 . S
C472 C471 1.403 . S
C472 C473 1.404 . S
C472 C475 1.539 . S
C473 C469 1.408 . S
C473 C472 1.404 . S
C473 H485 0.930 . S
C474 C470 1.524 . S
C474 H486 0.956 . S
C474 H487 0.961 . S
C474 H488 0.961 . S
C475 C472 1.539 . S
C475 H489 0.958 . S
C475 H490 0.961 . S
C475 H491 0.960 . S
H476 C460 0.931 . S
H477 C465 0.929 . S
H478 C466 0.960 . S
H479 C466 0.962 . S
H480 C466 0.960 . S
H481 C467 0.961 . S
H482 C467 0.961 . S
H483 C467 0.961 . S
H484 C468 0.931 . S
H485 C473 0.930 . S
H486 C474 0.956 . S
H487 C474 0.961 . S
H488 C474 0.961 . S
H489 C475 0.958 . S
H490 C475 0.961 . S
H491 C475 0.960 . S
C492 C493 1.391 1_556 S
C492 C494 1.394 . S
C492 H508 0.931 . S
C493 C492 1.391 1_554 S
C493 C497 1.376 . S
C494 C492 1.394 . S
C494 C495 1.369 . S
C494 C498 1.531 . S
C495 C494 1.369 . S
C495 C496 1.410 . S
C495 C503 1.503 . S
C496 C495 1.410 . S
C496 C497 1.392 1_556 S
C496 C499 1.511 . S
C497 C493 1.376 . S
C497 C496 1.392 1_554 S
C497 H509 0.929 . S
C498 C494 1.531 . S
C498 H510 0.960 . S
C498 H511 0.962 . S
C498 H512 0.960 . S
C499 C496 1.511 . S
C499 H513 0.961 1_556 S
C499 H514 0.961 . S
C499 H515 0.961 . S
C500 C501 1.370 . S
C500 C502 1.363 . S
C500 H516 0.931 . S
C501 C500 1.370 . S
C501 C505 1.408 . S
C502 C500 1.363 . S
C502 C503 1.370 . S
C502 C506 1.524 . S
C503 C495 1.503 . S
C503 C502 1.370 . S
C503 C504 1.403 . S
C504 C503 1.403 . S
C504 C505 1.404 . S
C504 C507 1.539 . S
C505 C501 1.408 . S
C505 C504 1.404 . S
C505 H517 0.930 . S
C506 C502 1.524 . S
C506 H518 0.956 . S
C506 H519 0.961 . S
C506 H520 0.961 . S
C507 C504 1.539 . S
C507 H521 0.958 . S
C507 H522 0.961 . S
C507 H523 0.960 . S
H508 C492 0.931 . S
H509 C497 0.929 . S
H510 C498 0.960 . S
H511 C498 0.962 . S
H512 C498 0.960 . S
H513 C499 0.961 1_554 S
H514 C499 0.961 . S
H515 C499 0.961 . S
H516 C500 0.931 . S
H517 C505 0.930 . S
H518 C506 0.956 . S
H519 C506 0.961 . S
H520 C506 0.961 . S
H521 C507 0.958 . S
H522 C507 0.961 . S
H523 C507 0.960 . S
C524 C525 1.391 . S
C524 C526 1.394 . S
C524 H540 0.931 . S
C525 C524 1.391 . S
C525 C529 1.376 . S
C526 C524 1.394 . S
C526 C527 1.369 . S
C526 C530 1.531 . S
C527 C526 1.369 . S
C527 C528 1.410 . S
C527 C535 1.503 . S
C528 C527 1.410 . S
C528 C529 1.392 . S
C528 C531 1.511 . S
C529 C525 1.376 . S
C529 C528 1.392 . S
C529 H541 0.929 . S
C530 C526 1.531 . S
C530 H542 0.960 . S
C530 H543 0.962 . S
C530 H544 0.960 . S
C531 C528 1.511 . S
C531 H545 0.961 . S
C531 H546 0.961 . S
C531 H547 0.961 . S
C532 C533 1.370 . S
C532 C534 1.363 . S
C532 H548 0.931 . S
C533 C532 1.370 . S
C533 C537 1.408 . S
C534 C532 1.363 . S
C534 C535 1.370 . S
C534 C538 1.524 . S
C535 C527 1.503 . S
C535 C534 1.370 . S
C535 C536 1.403 . S
C536 C535 1.403 . S
C536 C537 1.404 . S
C536 C539 1.539 . S
C537 C533 1.408 . S
C537 C536 1.404 . S
C537 H549 0.930 . S
C538 C534 1.524 . S
C538 H550 0.956 . S
C538 H551 0.961 . S
C538 H552 0.961 . S
C539 C536 1.539 . S
C539 H553 0.958 . S
C539 H554 0.961 1_655 S
C539 H555 0.960 . S
H540 C524 0.931 . S
H541 C529 0.929 . S
H542 C530 0.960 . S
H543 C530 0.962 . S
H544 C530 0.960 . S
H545 C531 0.961 . S
H546 C531 0.961 . S
H547 C531 0.961 . S
H548 C532 0.931 . S
H549 C537 0.930 . S
H550 C538 0.956 . S
H551 C538 0.961 . S
H552 C538 0.961 . S
H553 C539 0.958 . S
H554 C539 0.961 1_455 S
H555 C539 0.960 . S
C556 C557 1.391 . S
C556 C558 1.394 1_554 S
C556 H572 0.931 . S
C557 C556 1.391 . S
C557 C561 1.376 . S
C558 C556 1.394 1_556 S
C558 C559 1.369 . S
C558 C562 1.531 . S
C559 C558 1.369 . S
C559 C560 1.410 . S
C559 C567 1.503 . S
C560 C559 1.410 . S
C560 C561 1.392 1_556 S
C560 C563 1.511 . S
C561 C557 1.376 . S
C561 C560 1.392 1_554 S
C561 H573 0.929 . S
C562 C558 1.531 . S
C562 H574 0.960 . S
C562 H575 0.962 . S
C562 H576 0.960 . S
C563 C560 1.511 . S
C563 H577 0.961 . S
C563 H578 0.961 . S
C563 H579 0.961 . S
C564 C565 1.370 . S
C564 C566 1.363 . S
C564 H580 0.931 . S
C565 C564 1.370 . S
C565 C569 1.408 . S
C566 C564 1.363 . S
C566 C567 1.370 . S
C566 C570 1.524 . S
C567 C559 1.503 . S
C567 C566 1.370 . S
C567 C568 1.403 . S
C568 C567 1.403 . S
C568 C569 1.404 . S
C568 C571 1.539 . S
C569 C565 1.408 . S
C569 C568 1.404 . S
C569 H581 0.930 . S
C570 C566 1.524 . S
C570 H582 0.956 . S
C570 H583 0.961 . S
C570 H584 0.961 . S
C571 C568 1.539 . S
C571 H585 0.958 . S
C571 H586 0.961 . S
C571 H587 0.960 . S
H572 C556 0.931 . S
H573 C561 0.929 . S
H574 C562 0.960 . S
H575 C562 0.962 . S
H576 C562 0.960 . S
H577 C563 0.961 . S
H578 C563 0.961 . S
H579 C563 0.961 . S
H580 C564 0.931 . S
H581 C569 0.930 . S
H582 C570 0.956 . S
H583 C570 0.961 . S
H584 C570 0.961 . S
H585 C571 0.958 . S
H586 C571 0.961 . S
H587 C571 0.960 . S
C588 C589 1.391 . S
C588 C590 1.394 . S
C588 H604 0.931 . S
C589 C588 1.391 . S
C589 C593 1.376 . S
C590 C588 1.394 . S
C590 C591 1.369 . S
C590 C594 1.531 . S
C591 C590 1.369 . S
C591 C592 1.410 . S
C591 C599 1.503 . S
C592 C591 1.410 . S
C592 C593 1.392 . S
C592 C595 1.511 . S
C593 C589 1.376 . S
C593 C592 1.392 . S
C593 H605 0.929 . S
C594 C590 1.531 . S
C594 H606 0.960 . S
C594 H607 0.962 . S
C594 H608 0.960 . S
C595 C592 1.511 . S
C595 H609 0.961 . S
C595 H610 0.961 . S
C595 H611 0.961 . S
C596 C597 1.370 . S
C596 C598 1.363 . S
C596 H612 0.931 . S
C597 C596 1.370 . S
C597 C601 1.408 . S
C598 C596 1.363 . S
C598 C599 1.370 . S
C598 C602 1.524 . S
C599 C591 1.503 . S
C599 C598 1.370 . S
C599 C600 1.403 . S
C600 C599 1.403 . S
C600 C601 1.404 . S
C600 C603 1.539 . S
C601 C597 1.408 . S
C601 C600 1.404 . S
C601 H613 0.930 . S
C602 C598 1.524 . S
C602 H614 0.956 . S
C602 H615 0.961 . S
C602 H616 0.961 . S
C603 C600 1.539 . S
C603 H617 0.958 . S
C603 H618 0.961 . S
C603 H619 0.960 . S
H604 C588 0.931 . S
H605 C593 0.929 . S
H606 C594 0.960 . S
H607 C594 0.962 . S
H608 C594 0.960 . S
H609 C595 0.961 . S
H610 C595 0.961 . S
H611 C595 0.961 . S
H612 C596 0.931 . S
H613 C601 0.930 . S
H614 C602 0.956 . S
H615 C602 0.961 . S
H616 C602 0.961 . S
H617 C603 0.958 . S
H618 C603 0.961 . S
H619 C603 0.960 . S
C620 C621 1.391 . S
C620 C622 1.394 1_556 S
C620 H636 0.931 . S
C621 C620 1.391 . S
C621 C625 1.376 . S
C622 C620 1.394 1_554 S
C622 C623 1.369 . S
C622 C626 1.531 . S
C623 C622 1.369 . S
C623 C624 1.410 . S
C623 C631 1.503 . S
C624 C623 1.410 . S
C624 C625 1.392 1_554 S
C624 C627 1.511 . S
C625 C621 1.376 . S
C625 C624 1.392 1_556 S
C625 H637 0.929 . S
C626 C622 1.531 . S
C626 H638 0.960 . S
C626 H639 0.962 . S
C626 H640 0.960 . S
C627 C624 1.511 . S
C627 H641 0.961 1_554 S
C627 H642 0.961 . S
C627 H643 0.961 1_554 S
C628 C629 1.370 . S
C628 C630 1.363 . S
C628 H644 0.931 . S
C629 C628 1.370 . S
C629 C633 1.408 . S
C630 C628 1.363 . S
C630 C631 1.370 . S
C630 C634 1.524 . S
C631 C623 1.503 . S
C631 C630 1.370 . S
C631 C632 1.403 . S
C632 C631 1.403 . S
C632 C633 1.404 . S
C632 C635 1.539 . S
C633 C629 1.408 . S
C633 C632 1.404 . S
C633 H645 0.930 . S
C634 C630 1.524 . S
C634 H646 0.956 . S
C634 H647 0.961 . S
C634 H648 0.961 . S
C635 C632 1.539 . S
C635 H649 0.958 . S
C635 H650 0.961 . S
C635 H651 0.960 . S
H636 C620 0.931 . S
H637 C625 0.929 . S
H638 C626 0.960 . S
H639 C626 0.962 . S
H640 C626 0.960 . S
H641 C627 0.961 1_556 S
H642 C627 0.961 . S
H643 C627 0.961 1_556 S
H644 C628 0.931 . S
H645 C633 0.930 . S
H646 C634 0.956 . S
H647 C634 0.961 . S
H648 C634 0.961 . S
H649 C635 0.958 . S
H650 C635 0.961 . S
H651 C635 0.960 . S
C652 C653 1.391 . S
C652 C654 1.394 . S
C652 H668 0.931 . S
C653 C652 1.391 . S
C653 C657 1.376 . S
C654 C652 1.394 . S
C654 C655 1.369 . S
C654 C658 1.531 . S
C655 C654 1.369 . S
C655 C656 1.410 . S
C655 C663 1.503 . S
C656 C655 1.410 . S
C656 C657 1.392 . S
C656 C659 1.511 . S
C657 C653 1.376 . S
C657 C656 1.392 . S
C657 H669 0.929 . S
C658 C654 1.531 . S
C658 H670 0.960 . S
C658 H671 0.962 . S
C658 H672 0.960 . S
C659 C656 1.511 . S
C659 H673 0.961 . S
C659 H674 0.961 . S
C659 H675 0.961 . S
C660 C661 1.370 . S
C660 C662 1.363 . S
C660 H676 0.931 . S
C661 C660 1.370 . S
C661 C665 1.408 . S
C662 C660 1.363 . S
C662 C663 1.370 . S
C662 C666 1.524 . S
C663 C655 1.503 . S
C663 C662 1.370 . S
C663 C664 1.403 . S
C664 C663 1.403 . S
C664 C665 1.404 . S
C664 C667 1.539 . S
C665 C661 1.408 . S
C665 C664 1.404 . S
C665 H677 0.930 . S
C666 C662 1.524 . S
C666 H678 0.956 . S
C666 H679 0.961 . S
C666 H680 0.961 . S
C667 C664 1.539 . S
C667 H681 0.958 . S
C667 H682 0.961 . S
C667 H683 0.960 . S
H668 C652 0.931 . S
H669 C657 0.929 . S
H670 C658 0.960 . S
H671 C658 0.962 . S
H672 C658 0.960 . S
H673 C659 0.961 . S
H674 C659 0.961 . S
H675 C659 0.961 . S
H676 C660 0.931 . S
H677 C665 0.930 . S
H678 C666 0.956 . S
H679 C666 0.961 . S
H680 C666 0.961 . S
H681 C667 0.958 . S
H682 C667 0.961 . S
H683 C667 0.960 . S
C684 C685 1.391 . S
C684 C686 1.394 . S
C684 H700 0.931 . S
C685 C684 1.391 . S
C685 C689 1.376 . S
C686 C684 1.394 . S
C686 C687 1.369 . S
C686 C690 1.531 . S
C687 C686 1.369 . S
C687 C688 1.410 . S
C687 C695 1.503 . S
C688 C687 1.410 . S
C688 C689 1.392 . S
C688 C691 1.511 . S
C689 C685 1.376 . S
C689 C688 1.392 . S
C689 H701 0.929 . S
C690 C686 1.531 . S
C690 H702 0.960 . S
C690 H703 0.962 . S
C690 H704 0.960 . S
C691 C688 1.511 . S
C691 H705 0.961 . S
C691 H706 0.961 . S
C691 H707 0.961 . S
C692 C693 1.370 . S
C692 C694 1.363 . S
C692 H708 0.931 . S
C693 C692 1.370 . S
C693 C697 1.408 . S
C694 C692 1.363 . S
C694 C695 1.370 . S
C694 C698 1.524 . S
C695 C687 1.503 . S
C695 C694 1.370 . S
C695 C696 1.403 . S
C696 C695 1.403 . S
C696 C697 1.404 . S
C696 C699 1.539 . S
C697 C693 1.408 . S
C697 C696 1.404 . S
C697 H709 0.930 . S
C698 C694 1.524 . S
C698 H710 0.956 . S
C698 H711 0.961 . S
C698 H712 0.961 . S
C699 C696 1.539 . S
C699 H713 0.958 . S
C699 H714 0.961 . S
C699 H715 0.960 . S
H700 C684 0.931 . S
H701 C689 0.929 . S
H702 C690 0.960 . S
H703 C690 0.962 . S
H704 C690 0.960 . S
H705 C691 0.961 . S
H706 C691 0.961 . S
H707 C691 0.961 . S
H708 C692 0.931 . S
H709 C697 0.930 . S
H710 C698 0.956 . S
H711 C698 0.961 . S
H712 C698 0.961 . S
H713 C699 0.958 . S
H714 C699 0.961 . S
H715 C699 0.960 . S
C716 C717 1.391 . S
C716 C718 1.394 . S
C716 H732 0.931 . S
C717 C716 1.391 . S
C717 C721 1.376 . S
C718 C716 1.394 . S
C718 C719 1.369 . S
C718 C722 1.531 . S
C719 C718 1.369 . S
C719 C720 1.410 . S
C719 C727 1.503 . S
C720 C719 1.410 . S
C720 C721 1.392 . S
C720 C723 1.511 . S
C721 C717 1.376 . S
C721 C720 1.392 . S
C721 H733 0.929 . S
C722 C718 1.531 . S
C722 H734 0.960 . S
C722 H735 0.962 . S
C722 H736 0.960 . S
C723 C720 1.511 . S
C723 H737 0.961 . S
C723 H738 0.961 . S
C723 H739 0.961 . S
C724 C725 1.370 . S
C724 C726 1.363 . S
C724 H740 0.931 . S
C725 C724 1.370 . S
C725 C729 1.408 . S
C726 C724 1.363 . S
C726 C727 1.370 . S
C726 C730 1.524 . S
C727 C719 1.503 . S
C727 C726 1.370 . S
C727 C728 1.403 . S
C728 C727 1.403 . S
C728 C729 1.404 . S
C728 C731 1.539 . S
C729 C725 1.408 . S
C729 C728 1.404 . S
C729 H741 0.930 . S
C730 C726 1.524 . S
C730 H742 0.956 . S
C730 H743 0.961 . S
C730 H744 0.961 . S
C731 C728 1.539 . S
C731 H745 0.958 . S
C731 H746 0.961 . S
C731 H747 0.960 . S
H732 C716 0.931 . S
H733 C721 0.929 . S
H734 C722 0.960 . S
H735 C722 0.962 . S
H736 C722 0.960 . S
H737 C723 0.961 . S
H738 C723 0.961 . S
H739 C723 0.961 . S
H740 C724 0.931 . S
H741 C729 0.930 . S
H742 C730 0.956 . S
H743 C730 0.961 . S
H744 C730 0.961 . S
H745 C731 0.958 . S
H746 C731 0.961 . S
H747 C731 0.960 . S
C748 C749 1.391 . S
C748 C750 1.394 . S
C748 H764 0.931 . S
C749 C748 1.391 . S
C749 C753 1.376 . S
C750 C748 1.394 . S
C750 C751 1.369 . S
C750 C754 1.531 . S
C751 C750 1.369 . S
C751 C752 1.410 . S
C751 C759 1.503 . S
C752 C751 1.410 . S
C752 C753 1.392 . S
C752 C755 1.511 . S
C753 C749 1.376 . S
C753 C752 1.392 . S
C753 H765 0.929 . S
C754 C750 1.531 . S
C754 H766 0.960 . S
C754 H767 0.962 . S
C754 H768 0.960 . S
C755 C752 1.511 . S
C755 H769 0.961 . S
C755 H770 0.961 . S
C755 H771 0.961 . S
C756 C757 1.370 . S
C756 C758 1.363 . S
C756 H772 0.931 . S
C757 C756 1.370 . S
C757 C761 1.408 . S
C758 C756 1.363 . S
C758 C759 1.370 . S
C758 C762 1.524 . S
C759 C751 1.503 . S
C759 C758 1.370 . S
C759 C760 1.403 . S
C760 C759 1.403 . S
C760 C761 1.404 . S
C760 C763 1.539 . S
C761 C757 1.408 . S
C761 C760 1.404 . S
C761 H773 0.930 . S
C762 C758 1.524 . S
C762 H774 0.956 . S
C762 H775 0.961 . S
C762 H776 0.961 . S
C763 C760 1.539 . S
C763 H777 0.958 . S
C763 H778 0.961 . S
C763 H779 0.960 . S
H764 C748 0.931 . S
H765 C753 0.929 . S
H766 C754 0.960 . S
H767 C754 0.962 . S
H768 C754 0.960 . S
H769 C755 0.961 . S
H770 C755 0.961 . S
H771 C755 0.961 . S
H772 C756 0.931 . S
H773 C761 0.930 . S
H774 C762 0.956 . S
H775 C762 0.961 . S
H776 C762 0.961 . S
H777 C763 0.958 . S
H778 C763 0.961 . S
H779 C763 0.960 . S
C780 C781 1.391 . S
C780 C782 1.394 . S
C780 H796 0.931 . S
C781 C780 1.391 . S
C781 C785 1.376 . S
C782 C780 1.394 . S
C782 C783 1.369 . S
C782 C786 1.531 . S
C783 C782 1.369 . S
C783 C784 1.410 . S
C783 C791 1.503 . S
C784 C783 1.410 . S
C784 C785 1.392 . S
C784 C787 1.511 . S
C785 C781 1.376 . S
C785 C784 1.392 . S
C785 H797 0.929 . S
C786 C782 1.531 . S
C786 H798 0.960 . S
C786 H799 0.962 . S
C786 H800 0.960 . S
C787 C784 1.511 . S
C787 H801 0.961 . S
C787 H802 0.961 . S
C787 H803 0.961 . S
C788 C789 1.370 . S
C788 C790 1.363 . S
C788 H804 0.931 . S
C789 C788 1.370 . S
C789 C793 1.408 . S
C790 C788 1.363 . S
C790 C791 1.370 . S
C790 C794 1.524 . S
C791 C783 1.503 . S
C791 C790 1.370 . S
C791 C792 1.403 . S
C792 C791 1.403 . S
C792 C793 1.404 . S
C792 C795 1.539 . S
C793 C789 1.408 . S
C793 C792 1.404 . S
C793 H805 0.930 . S
C794 C790 1.524 . S
C794 H806 0.956 . S
C794 H807 0.961 . S
C794 H808 0.961 . S
C795 C792 1.539 . S
C795 H809 0.958 . S
C795 H810 0.961 . S
C795 H811 0.960 . S
H796 C780 0.931 . S
H797 C785 0.929 . S
H798 C786 0.960 . S
H799 C786 0.962 . S
H800 C786 0.960 . S
H801 C787 0.961 . S
H802 C787 0.961 . S
H803 C787 0.961 . S
H804 C788 0.931 . S
H805 C793 0.930 . S
H806 C794 0.956 . S
H807 C794 0.961 . S
H808 C794 0.961 . S
H809 C795 0.958 . S
H810 C795 0.961 . S
H811 C795 0.960 . S
C812 C813 1.391 . S
C812 C814 1.394 . S
C812 H828 0.931 . S
C813 C812 1.391 . S
C813 C817 1.376 . S
C814 C812 1.394 . S
C814 C815 1.369 . S
C814 C818 1.531 . S
C815 C814 1.369 . S
C815 C816 1.410 . S
C815 C823 1.503 . S
C816 C815 1.410 . S
C816 C817 1.392 . S
C816 C819 1.511 . S
C817 C813 1.376 . S
C817 C816 1.392 . S
C817 H829 0.929 . S
C818 C814 1.531 . S
C818 H830 0.960 . S
C818 H831 0.962 . S
C818 H832 0.960 . S
C819 C816 1.511 . S
C819 H833 0.961 . S
C819 H834 0.961 . S
C819 H835 0.961 . S
C820 C821 1.370 . S
C820 C822 1.363 . S
C820 H836 0.931 . S
C821 C820 1.370 . S
C821 C825 1.408 . S
C822 C820 1.363 . S
C822 C823 1.370 . S
C822 C826 1.524 . S
C823 C815 1.503 . S
C823 C822 1.370 . S
C823 C824 1.403 . S
C824 C823 1.403 . S
C824 C825 1.404 . S
C824 C827 1.539 . S
C825 C821 1.408 . S
C825 C824 1.404 . S
C825 H837 0.930 . S
C826 C822 1.524 . S
C826 H838 0.956 . S
C826 H839 0.961 . S
C826 H840 0.961 . S
C827 C824 1.539 . S
C827 H841 0.958 . S
C827 H842 0.961 . S
C827 H843 0.960 . S
H828 C812 0.931 . S
H829 C817 0.929 . S
H830 C818 0.960 . S
H831 C818 0.962 . S
H832 C818 0.960 . S
H833 C819 0.961 . S
H834 C819 0.961 . S
H835 C819 0.961 . S
H836 C820 0.931 . S
H837 C825 0.930 . S
H838 C826 0.956 . S
H839 C826 0.961 . S
H840 C826 0.961 . S
H841 C827 0.958 . S
H842 C827 0.961 . S
H843 C827 0.960 . S
C844 C845 1.391 . S
C844 C846 1.394 . S
C844 H860 0.931 . S
C845 C844 1.391 . S
C845 C849 1.376 . S
C846 C844 1.394 . S
C846 C847 1.369 . S
C846 C850 1.531 . S
C847 C846 1.369 . S
C847 C848 1.410 . S
C847 C855 1.503 . S
C848 C847 1.410 . S
C848 C849 1.392 . S
C848 C851 1.511 . S
C849 C845 1.376 . S
C849 C848 1.392 . S
C849 H861 0.929 . S
C850 C846 1.531 . S
C850 H862 0.960 . S
C850 H863 0.962 . S
C850 H864 0.960 . S
C851 C848 1.511 . S
C851 H865 0.961 . S
C851 H866 0.961 . S
C851 H867 0.961 . S
C852 C853 1.370 . S
C852 C854 1.363 . S
C852 H868 0.931 . S
C853 C852 1.370 . S
C853 C857 1.408 . S
C854 C852 1.363 . S
C854 C855 1.370 . S
C854 C858 1.524 . S
C855 C847 1.503 . S
C855 C854 1.370 . S
C855 C856 1.403 . S
C856 C855 1.403 . S
C856 C857 1.404 . S
C856 C859 1.539 . S
C857 C853 1.408 . S
C857 C856 1.404 . S
C857 H869 0.930 . S
C858 C854 1.524 . S
C858 H870 0.956 . S
C858 H871 0.961 . S
C858 H872 0.961 . S
C859 C856 1.539 . S
C859 H873 0.958 . S
C859 H874 0.961 . S
C859 H875 0.960 . S
H860 C844 0.931 . S
H861 C849 0.929 . S
H862 C850 0.960 . S
H863 C850 0.962 . S
H864 C850 0.960 . S
H865 C851 0.961 . S
H866 C851 0.961 . S
H867 C851 0.961 . S
H868 C852 0.931 . S
H869 C857 0.930 . S
H870 C858 0.956 . S
H871 C858 0.961 . S
H872 C858 0.961 . S
H873 C859 0.958 . S
H874 C859 0.961 . S
H875 C859 0.960 . S
C876 C877 1.391 . S
C876 C878 1.394 . S
C876 H892 0.931 . S
C877 C876 1.391 . S
C877 C881 1.376 . S
C878 C876 1.394 . S
C878 C879 1.369 . S
C878 C882 1.531 . S
C879 C878 1.369 . S
C879 C880 1.410 . S
C879 C887 1.503 . S
C880 C879 1.410 . S
C880 C881 1.392 . S
C880 C883 1.511 . S
C881 C877 1.376 . S
C881 C880 1.392 . S
C881 H893 0.929 . S
C882 C878 1.531 . S
C882 H894 0.960 . S
C882 H895 0.962 . S
C882 H896 0.960 . S
C883 C880 1.511 . S
C883 H897 0.961 . S
C883 H898 0.961 . S
C883 H899 0.961 . S
C884 C885 1.370 . S
C884 C886 1.363 . S
C884 H900 0.931 . S
C885 C884 1.370 . S
C885 C889 1.408 . S
C886 C884 1.363 . S
C886 C887 1.370 . S
C886 C890 1.524 . S
C887 C879 1.503 . S
C887 C886 1.370 . S
C887 C888 1.403 . S
C888 C887 1.403 . S
C888 C889 1.404 . S
C888 C891 1.539 . S
C889 C885 1.408 . S
C889 C888 1.404 . S
C889 H901 0.930 . S
C890 C886 1.524 . S
C890 H902 0.956 . S
C890 H903 0.961 . S
C890 H904 0.961 . S
C891 C888 1.539 . S
C891 H905 0.958 . S
C891 H906 0.961 . S
C891 H907 0.960 . S
H892 C876 0.931 . S
H893 C881 0.929 . S
H894 C882 0.960 . S
H895 C882 0.962 . S
H896 C882 0.960 . S
H897 C883 0.961 . S
H898 C883 0.961 . S
H899 C883 0.961 . S
H900 C884 0.931 . S
H901 C889 0.930 . S
H902 C890 0.956 . S
H903 C890 0.961 . S
H904 C890 0.961 . S
H905 C891 0.958 . S
H906 C891 0.961 . S
H907 C891 0.960 . S
C908 C909 1.391 . S
C908 C910 1.394 . S
C908 H924 0.931 . S
C909 C908 1.391 . S
C909 C913 1.376 . S
C910 C908 1.394 . S
C910 C911 1.369 . S
C910 C914 1.531 . S
C911 C910 1.369 . S
C911 C912 1.410 . S
C911 C919 1.503 . S
C912 C911 1.410 . S
C912 C913 1.392 . S
C912 C915 1.511 . S
C913 C909 1.376 . S
C913 C912 1.392 . S
C913 H925 0.929 . S
C914 C910 1.531 . S
C914 H926 0.960 . S
C914 H927 0.962 . S
C914 H928 0.960 . S
C915 C912 1.511 . S
C915 H929 0.961 . S
C915 H930 0.961 . S
C915 H931 0.961 . S
C916 C917 1.370 . S
C916 C918 1.363 . S
C916 H932 0.931 . S
C917 C916 1.370 . S
C917 C921 1.408 . S
C918 C916 1.363 . S
C918 C919 1.370 . S
C918 C922 1.524 . S
C919 C911 1.503 . S
C919 C918 1.370 . S
C919 C920 1.403 . S
C920 C919 1.403 . S
C920 C921 1.404 . S
C920 C923 1.539 . S
C921 C917 1.408 . S
C921 C920 1.404 . S
C921 H933 0.930 . S
C922 C918 1.524 . S
C922 H934 0.956 . S
C922 H935 0.961 . S
C922 H936 0.961 . S
C923 C920 1.539 . S
C923 H937 0.958 . S
C923 H938 0.961 . S
C923 H939 0.960 . S
H924 C908 0.931 . S
H925 C913 0.929 . S
H926 C914 0.960 . S
H927 C914 0.962 . S
H928 C914 0.960 . S
H929 C915 0.961 . S
H930 C915 0.961 . S
H931 C915 0.961 . S
H932 C916 0.931 . S
H933 C921 0.930 . S
H934 C922 0.956 . S
H935 C922 0.961 . S
H936 C922 0.961 . S
H937 C923 0.958 . S
H938 C923 0.961 . S
H939 C923 0.960 . S
C173 C71 1.441 . S
C181 C104 1.391 . S
C213 C112 1.296 . S
C205 C81 1.364 . S
C245 C116 1.349 . S
C237 C49 1.412 . S
C269 C59 1.351 . S
C277 C92 1.275 . S
C309 C133 1.339 . S
C301 C27 1.380 . S
C341 C167 1.408 . S
C333 C38 1.456 . S
C365 C5 1.421 . S
C373 C155 1.333 . S
C397 C16 1.467 . S
C405 C137 1.381 . S
C437 C91 1.276 . S
C429 C15 1.423 . S
C469 C125 1.301 . S
C461 C4 1.451 . S
C501 C129 1.287 . S
C493 C37 1.429 . S
C533 C107 1.296 . S
C525 C26 1.448 . S
C565 C146 1.399 . S
C557 C60 1.513 . S
C589 C48 1.501 . S
C597 C154 1.389 . S
C629 C170 1.363 . S
C621 C82 1.469 . S
C653 C70 1.510 . S
C661 C150 1.380 . S
C693 C95 1.309 . S
C685 C10 1.486 . S
C725 C113 1.392 . S
C717 C21 1.532 . S
C749 C32 1.474 . S
C757 C128 1.318 . S
C789 C108 1.371 . S
C781 C43 1.527 . S
C821 C134 1.385 . S
C813 C54 1.574 . S
C845 C65 1.507 . S
C853 C158 1.349 . S
C877 C76 1.568 . S
C885 C171 1.376 . S
C909 C87 1.511 . S
C917 C149 1.357 . S
