# Generated by pormake.
# Topology sqc, (4,8)-cn, num edge types: 1
# Building blocks:
#     Node 0, Type 0, BuildingBlock: MIFKUJ_clean_linker_1, # of connection points: 4
#     Node 1, Type 0, BuildingBlock: MIFKUJ_clean_linker_1, # of connection points: 4
#     Node 2, Type 0, BuildingBlock: MIFKUJ_clean_linker_1, # of connection points: 4
#     Node 3, Type 0, BuildingBlock: MIFKUJ_clean_linker_1, # of connection points: 4
#     Node 4, Type 0, BuildingBlock: MIFKUJ_clean_linker_1, # of connection points: 4
#     Node 5, Type 0, BuildingBlock: MIFKUJ_clean_linker_1, # of connection points: 4
#     Node 6, Type 0, BuildingBlock: MIFKUJ_clean_linker_1, # of connection points: 4
#     Node 7, Type 0, BuildingBlock: MIFKUJ_clean_linker_1, # of connection points: 4
#     Node 8, Type 1, BuildingBlock: VETTIZ_charged_sbu_0, # of connection points: 8
#     Node 9, Type 1, BuildingBlock: VETTIZ_charged_sbu_0, # of connection points: 8
#     Node 10, Type 1, BuildingBlock: VETTIZ_charged_sbu_0, # of connection points: 8
#     Node 11, Type 1, BuildingBlock: VETTIZ_charged_sbu_0, # of connection points: 8
#     Edge 12, Type (0, 1), BuildingBlock: MIFKUJ_clean_linker_0, # of connection points: 2
#     Edge 13, Type (0, 1), BuildingBlock: MIFKUJ_clean_linker_0, # of connection points: 2
#     Edge 14, Type (0, 1), BuildingBlock: MIFKUJ_clean_linker_0, # of connection points: 2
#     Edge 15, Type (0, 1), BuildingBlock: MIFKUJ_clean_linker_0, # of connection points: 2
#     Edge 16, Type (0, 1), BuildingBlock: MIFKUJ_clean_linker_0, # of connection points: 2
#     Edge 17, Type (0, 1), BuildingBlock: MIFKUJ_clean_linker_0, # of connection points: 2
#     Edge 18, Type (0, 1), BuildingBlock: MIFKUJ_clean_linker_0, # of connection points: 2
#     Edge 19, Type (0, 1), BuildingBlock: MIFKUJ_clean_linker_0, # of connection points: 2
#     Edge 20, Type (0, 1), BuildingBlock: MIFKUJ_clean_linker_0, # of connection points: 2
#     Edge 21, Type (0, 1), BuildingBlock: MIFKUJ_clean_linker_0, # of connection points: 2
#     Edge 22, Type (0, 1), BuildingBlock: MIFKUJ_clean_linker_0, # of connection points: 2
#     Edge 23, Type (0, 1), BuildingBlock: MIFKUJ_clean_linker_0, # of connection points: 2
#     Edge 24, Type (0, 1), BuildingBlock: MIFKUJ_clean_linker_0, # of connection points: 2
#     Edge 25, Type (0, 1), BuildingBlock: MIFKUJ_clean_linker_0, # of connection points: 2
#     Edge 26, Type (0, 1), BuildingBlock: MIFKUJ_clean_linker_0, # of connection points: 2
#     Edge 27, Type (0, 1), BuildingBlock: MIFKUJ_clean_linker_0, # of connection points: 2
#     Edge 28, Type (0, 1), BuildingBlock: MIFKUJ_clean_linker_0, # of connection points: 2
#     Edge 29, Type (0, 1), BuildingBlock: MIFKUJ_clean_linker_0, # of connection points: 2
#     Edge 30, Type (0, 1), BuildingBlock: MIFKUJ_clean_linker_0, # of connection points: 2
#     Edge 31, Type (0, 1), BuildingBlock: MIFKUJ_clean_linker_0, # of connection points: 2
#     Edge 32, Type (0, 1), BuildingBlock: MIFKUJ_clean_linker_0, # of connection points: 2
#     Edge 33, Type (0, 1), BuildingBlock: MIFKUJ_clean_linker_0, # of connection points: 2
#     Edge 34, Type (0, 1), BuildingBlock: MIFKUJ_clean_linker_0, # of connection points: 2
#     Edge 35, Type (0, 1), BuildingBlock: MIFKUJ_clean_linker_0, # of connection points: 2
#     Edge 36, Type (0, 1), BuildingBlock: MIFKUJ_clean_linker_0, # of connection points: 2
#     Edge 37, Type (0, 1), BuildingBlock: MIFKUJ_clean_linker_0, # of connection points: 2
#     Edge 38, Type (0, 1), BuildingBlock: MIFKUJ_clean_linker_0, # of connection points: 2
#     Edge 39, Type (0, 1), BuildingBlock: MIFKUJ_clean_linker_0, # of connection points: 2
#     Edge 40, Type (0, 1), BuildingBlock: MIFKUJ_clean_linker_0, # of connection points: 2
#     Edge 41, Type (0, 1), BuildingBlock: MIFKUJ_clean_linker_0, # of connection points: 2
#     Edge 42, Type (0, 1), BuildingBlock: MIFKUJ_clean_linker_0, # of connection points: 2
#     Edge 43, Type (0, 1), BuildingBlock: MIFKUJ_clean_linker_0, # of connection points: 2
# Relax obj value: 0.137
# Max RMSD: 0.270
# Mean RMSD: 0.176
data_MOF--net-sqc--node1-VETTIZ_charged_sbu_0--node2-MIFKUJ_clean_linker_1--edge1-MIFKUJ_clean_linker_0
_symmetry_space_group_name_H-M    P1
_symmetry_Int_Tables_number       1
_symmetry_cell_setting            triclinic
loop_
_symmetry_equiv_pos_as_xyz
'x, y, z'
_cell_length_a     35.310145
_cell_length_b     35.298634
_cell_length_c     101.39963
_cell_angle_alpha  89.958241
_cell_angle_beta   90.109484
_cell_angle_gamma 90.126514
loop_
_atom_site_label
_atom_site_type_symbol
_atom_site_fract_x
_atom_site_fract_y
_atom_site_fract_z
_atom_type_partial_charge
H0 H 0.95034 0.94232 0.49391 0.0
H1 H 0.89554 0.93277 0.47952 0.0
H2 H 0.85812 0.04666 0.48756 0.0
H3 H 0.914 0.05699 0.50146 0.0
H4 H 0.008 0.98114 0.49301 0.0
H5 H 0.90962 0.97598 0.52443 0.0
H6 H 0.85091 0.98937 0.53627 0.0
H7 H 0.8896 0.1038 0.54342 0.0
H8 H 0.94731 0.09074 0.53108 0.0
H9 H 0.05757 0.09103 0.53142 0.0
H10 H 0.11295 0.10916 0.5445 0.0
H11 H 0.15454 0.99452 0.54244 0.0
H12 H 0.09808 0.97582 0.52989 0.0
H13 H 1.00201 0.04573 0.53629 0.0
H14 H 0.10557 0.04015 0.50303 0.0
H15 H 0.16375 0.01378 0.49358 0.0
H16 H 0.11311 0.90225 0.49389 0.0
H17 H 0.05536 0.92864 0.50329 0.0
C18 C 0.93648 1.00029 0.49899 0.0
C19 C 0.93066 0.96549 0.49252 0.0
C20 C 0.89927 0.96001 0.48427 0.0
C21 C 0.87255 0.98899 0.48239 0.0
C22 C 0.87809 0.02372 0.4889 0.0
C23 C 0.90995 0.02949 0.49695 0.0
C24 C 0.97094 0.00636 0.50741 0.0
C25 C 0.00646 0.99491 0.50255 0.0
C26 C 0.96934 0.02399 0.51997 0.0
C27 C 0.93285 0.03246 0.52671 0.0
C28 C 0.90517 0.00416 0.52835 0.0
C29 C 0.87175 0.01173 0.53527 0.0
C30 C 0.86538 0.04769 0.54082 0.0
C31 C 0.89313 0.07597 0.53912 0.0
C32 C 0.92641 0.06844 0.53215 0.0
C33 C 0.07361 0.0321 0.52941 0.0
C34 C 0.0784 0.0696 0.53382 0.0
C35 C 0.1101 0.08001 0.54131 0.0
C36 C 0.13815 0.0533 0.54445 0.0
C37 C 0.13357 0.0158 0.54003 0.0
C38 C 0.10137 0.00516 0.53278 0.0
C39 C 0.03896 0.02162 0.52168 0.0
C40 C 0.00335 0.03211 0.52671 0.0
C41 C 0.04032 1.00157 0.50956 0.0
C42 C 0.07611 0.98636 0.50395 0.0
C43 C 0.10715 0.01 0.50115 0.0
C44 C 0.14041 0.99486 0.49577 0.0
C45 C 0.14307 0.95589 0.49295 0.0
C46 C 0.11189 0.93243 0.49576 0.0
C47 C 0.07885 0.94749 0.50118 0.0
H48 H 0.26349 0.80521 0.78734 0.0
H49 H 0.24113 0.85632 0.80151 0.0
H50 H 0.16179 0.89046 0.77132 0.0
H51 H 0.18395 0.83869 0.75717 0.0
H52 H 0.22136 0.74774 0.7799 0.0
H53 H 0.28581 0.84977 0.75778 0.0
H54 H 0.29443 0.90776 0.74514 0.0
H55 H 0.23433 0.85729 0.71232 0.0
H56 H 0.22303 0.8007 0.72546 0.0
H57 H 0.23587 0.69114 0.72563 0.0
H58 H 0.25972 0.63539 0.71395 0.0
H59 H 0.32661 0.60534 0.74807 0.0
H60 H 0.30349 0.66137 0.75958 0.0
H61 H 0.26875 0.75112 0.73397 0.0
H62 H 0.19049 0.65922 0.75682 0.0
H63 H 0.17044 0.6051 0.77035 0.0
H64 H 0.25228 0.63648 0.80012 0.0
H65 H 0.27188 0.69069 0.78664 0.0
C66 C 0.22547 0.81808 0.77117 0.0
C67 C 0.24148 0.82387 0.7837 0.0
C68 C 0.22857 0.85296 0.79182 0.0
C69 C 0.19944 0.87709 0.78758 0.0
C70 C 0.1844 0.87235 0.77482 0.0
C71 C 0.19713 0.84289 0.76671 0.0
C72 C 0.23599 0.78378 0.76352 0.0
C73 C 0.23225 0.74865 0.7699 0.0
C74 C 0.24843 0.78479 0.75023 0.0
C75 C 0.25321 0.82083 0.74271 0.0
C76 C 0.27359 0.8515 0.748 0.0
C77 C 0.27913 0.88456 0.74061 0.0
C78 C 0.2653 0.88747 0.7276 0.0
C79 C 0.2449 0.85665 0.72235 0.0
C80 C 0.23878 0.82391 0.72983 0.0
C81 C 0.26737 0.68032 0.74359 0.0
C82 C 0.25563 0.67253 0.73062 0.0
C83 C 0.26932 0.64071 0.72394 0.0
C84 C 0.29493 0.6159 0.73011 0.0
C85 C 0.30642 0.62356 0.74312 0.0
C86 C 0.29304 0.65555 0.74974 0.0
C87 C 0.25445 0.7153 0.75044 0.0
C88 C 0.2577 0.75042 0.74394 0.0
C89 C 0.24082 0.71454 0.76354 0.0
C90 C 0.23274 0.67884 0.77072 0.0
C91 C 0.20458 0.65398 0.76614 0.0
C92 C 0.19298 0.62331 0.77391 0.0
C93 C 0.20973 0.61676 0.78629 0.0
C94 C 0.23909 0.64072 0.79057 0.0
C95 C 0.25024 0.67169 0.78291 0.0
H96 H 0.43279 0.04354 0.04495 0.0
H97 H 0.37624 0.0244 0.05742 0.0
H98 H 0.35191 0.93887 0.0282 0.0
H99 H 0.40786 0.95868 0.01561 0.0
H100 H 0.49409 0.99403 0.03894 0.0
H101 H 0.40581 0.07395 0.01725 0.0
H102 H 0.35098 0.09641 0.00478 0.0
H103 H 0.38284 0.02495 0.97209 0.0
H104 H 0.43758 1.00247 0.98461 0.0
H105 H 0.54568 0.99153 0.98449 0.0
H106 H 0.60233 1.00123 0.97108 0.0
H107 H 0.65319 0.06587 1.00261 0.0
H108 H 0.59587 0.05741 0.01586 0.0
H109 H 0.49653 0.0385 0.99259 0.0
H110 H 0.58039 0.95174 0.01631 0.0
H111 H 0.63557 0.93169 0.02909 0.0
H112 H 0.6127 0.01944 0.05771 0.0
H113 H 0.55684 0.0383 0.04509 0.0
C114 C 0.42439 0.0027 0.02931 0.0
C115 C 0.41494 0.02106 0.04114 0.0
C116 C 0.38266 0.01018 0.04823 0.0
C117 C 0.35984 0.98009 0.04378 0.0
C118 C 0.36912 0.96204 0.03187 0.0
C119 C 0.40091 0.97346 0.02464 0.0
C120 C 0.46031 0.01183 0.02236 0.0
C121 C 0.4947 0.00427 0.02885 0.0
C122 C 0.46092 0.02466 0.00913 0.0
C123 C 0.42582 0.03617 1.00196 0.0
C124 C 0.40064 0.06249 0.0075 0.0
C125 C 0.36929 0.07546 1.00033 0.0
C126 C 0.36252 0.06265 0.98739 0.0
C127 C 0.38748 0.03589 0.98193 0.0
C128 C 0.41873 0.02285 0.98913 0.0
C129 C 0.56634 0.0234 1.00129 0.0
C130 C 0.56894 0.00784 0.98856 0.0
C131 C 0.60135 0.01338 0.98088 0.0
C132 C 0.6322 0.03429 0.98579 0.0
C133 C 0.63003 0.04925 0.99862 0.0
C134 C 0.59728 0.04424 0.00623 0.0
C135 C 0.53046 0.01933 0.00897 0.0
C136 C 0.49599 0.02809 1.00265 0.0
C137 C 0.52974 0.00758 0.02235 0.0
C138 C 0.56457 0.99666 0.0297 0.0
C139 C 0.58747 0.96681 0.02529 0.0
C140 C 0.61918 0.95549 0.03261 0.0
C141 C 0.62883 0.97388 0.0445 0.0
C142 C 0.60594 0.00409 0.04877 0.0
C143 C 0.57407 0.01514 0.04151 0.0
H144 H 0.27495 0.21922 0.28984 0.0
H145 H 0.29832 0.16202 0.30052 0.0
H146 H 0.353 0.12882 0.26422 0.0
H147 H 0.3312 0.18737 0.2538 0.0
H148 H 0.3099 0.2778 0.28014 0.0
H149 H 0.22939 0.17954 0.26166 0.0
H150 H 0.21211 0.12265 0.2492 0.0
H151 H 0.26438 0.17007 0.21441 0.0
H152 H 0.28183 0.22665 0.22691 0.0
H153 H 0.26708 0.33454 0.22805 0.0
H154 H 0.23786 0.38836 0.21722 0.0
H155 H 0.19137 0.42463 0.25458 0.0
H156 H 0.21785 0.3685 0.2651 0.0
H157 H 0.23773 0.27718 0.23822 0.0
H158 H 0.31389 0.37802 0.25614 0.0
H159 H 0.32974 0.43557 0.26824 0.0
H160 H 0.29052 0.3831 0.3043 0.0
H161 H 0.27183 0.32715 0.29194 0.0
C162 C 0.30088 0.20756 0.27096 0.0
C163 C 0.29215 0.19976 0.28419 0.0
C164 C 0.30522 0.16669 0.29024 0.0
C165 C 0.32729 0.1404 0.28322 0.0
C166 C 0.33632 0.14844 0.26998 0.0
C167 C 0.32347 0.18176 0.26395 0.0
C168 C 0.28667 0.243 0.26468 0.0
C169 C 0.29369 0.27778 0.27104 0.0
C170 C 0.26657 0.2429 0.25258 0.0
C171 C 0.25723 0.20739 0.24528 0.0
C172 C 0.23765 0.17747 0.2514 0.0
C173 C 0.22777 0.14492 0.24426 0.0
C174 C 0.23679 0.1418 0.23079 0.0
C175 C 0.25658 0.17171 0.22472 0.0
C176 C 0.26666 0.20407 0.23187 0.0
C177 C 0.24512 0.34736 0.24746 0.0
C178 C 0.25044 0.35396 0.23393 0.0
C179 C 0.23401 0.38527 0.22775 0.0
C180 C 0.21226 0.41144 0.23496 0.0
C181 C 0.20738 0.40505 0.24858 0.0
C182 C 0.22317 0.37316 0.25471 0.0
C183 C 0.26083 0.31236 0.25366 0.0
C184 C 0.25406 0.27752 0.2473 0.0
C185 C 0.28129 0.31257 0.26575 0.0
C186 C 0.29101 0.34817 0.27302 0.0
C187 C 0.30789 0.3792 0.2666 0.0
C188 C 0.31757 0.41205 0.27362 0.0
C189 C 0.31153 0.41443 0.28735 0.0
C190 C 0.29496 0.38306 0.29374 0.0
C191 C 0.28466 0.35059 0.28667 0.0
H192 H 0.7203 0.32654 0.22429 0.0
H193 H 0.74853 0.3816 0.21343 0.0
H194 H 0.81738 0.40218 0.24802 0.0
H195 H 0.78814 0.34786 0.25889 0.0
H196 H 0.75167 0.26251 0.23289 0.0
H197 H 0.67978 0.36025 0.25115 0.0
H198 H 0.66373 0.4202 0.26171 0.0
H199 H 0.71791 0.38235 0.29761 0.0
H200 H 0.73536 0.32308 0.28679 0.0
H201 H 0.7372 0.21258 0.28686 0.0
H202 H 0.72154 0.15676 0.29984 0.0
H203 H 0.65664 0.11233 0.26708 0.0
H204 H 0.66985 0.16982 0.2546 0.0
H205 H 0.69653 0.26732 0.27778 0.0
H206 H 0.78258 0.17582 0.25329 0.0
H207 H 0.79491 0.11891 0.23999 0.0
H208 H 0.70005 0.14655 0.2149 0.0
H209 H 0.68851 0.20388 0.22797 0.0
C210 C 0.75175 0.33319 0.24247 0.0
C211 C 0.74136 0.34305 0.22954 0.0
C212 C 0.7578 0.37447 0.22331 0.0
C213 C 0.78544 0.39656 0.22979 0.0
C214 C 0.79577 0.38646 0.24275 0.0
C215 C 0.7791 0.35524 0.24901 0.0
C216 C 0.73544 0.29892 0.24895 0.0
C217 C 0.73915 0.2637 0.24264 0.0
C218 C 0.71868 0.30039 0.26163 0.0
C219 C 0.70927 0.33715 0.26809 0.0
C220 C 0.68877 0.36505 0.26124 0.0
C221 C 0.67915 0.39923 0.26735 0.0
C222 C 0.6895 0.40628 0.28053 0.0
C223 C 0.70994 0.37824 0.28739 0.0
C224 C 0.71966 0.3441 0.28125 0.0
C225 C 0.70535 0.1955 0.26959 0.0
C226 C 0.71942 0.19094 0.28247 0.0
C227 C 0.71079 0.15853 0.28986 0.0
C228 C 0.68807 0.12938 0.28455 0.0
C229 C 0.67395 0.13405 0.27163 0.0
C230 C 0.68212 0.16682 0.26432 0.0
C231 C 0.71447 0.2307 0.26197 0.0
C232 C 0.70911 0.26623 0.26804 0.0
C233 C 0.72873 0.22973 0.24892 0.0
C234 C 0.73457 0.19388 0.24162 0.0
C235 C 0.76433 0.16942 0.24498 0.0
C236 C 0.77138 0.13709 0.23738 0.0
C237 C 0.74835 0.12842 0.22645 0.0
C238 C 0.718 0.15247 0.22333 0.0
C239 C 0.71149 0.18519 0.23074 0.0
H240 H 0.69884 0.80782 0.74146 0.0
H241 H 0.69018 0.86429 0.72808 0.0
H242 H 0.80335 0.90143 0.73817 0.0
H243 H 0.81267 0.84328 0.75091 0.0
H244 H 0.74255 0.75116 0.7386 0.0
H245 H 0.73154 0.84944 0.77162 0.0
H246 H 0.7478 0.90592 0.78454 0.0
H247 H 0.85365 0.85439 0.79587 0.0
H248 H 0.83839 0.79886 0.78248 0.0
H249 H 0.82138 0.66106 0.76197 0.0
H250 H 0.8386 0.60464 0.77479 0.0
H251 H 0.75316 0.63233 0.80357 0.0
H252 H 0.73651 0.68918 0.79085 0.0
H253 H 0.78824 0.74879 0.78483 0.0
H254 H 0.78332 0.68833 0.73189 0.0
H255 H 0.76186 0.63236 0.71981 0.0
H256 H 0.67962 0.60974 0.75039 0.0
H257 H 0.70233 0.66489 0.76259 0.0
C258 C 0.75628 0.82122 0.74735 0.0
C259 C 0.72192 0.828 0.74077 0.0
C260 C 0.71684 0.86072 0.73322 0.0
C261 C 0.74588 0.88794 0.7321 0.0
C262 C 0.78039 0.88112 0.73869 0.0
C263 C 0.78562 0.84801 0.74614 0.0
C264 C 0.76137 0.78543 0.755 0.0
C265 C 0.75267 0.75086 0.74871 0.0
C266 C 0.77431 0.7848 0.76829 0.0
C267 C 0.78391 0.81984 0.77586 0.0
C268 C 0.7586 0.85051 0.77664 0.0
C269 C 0.76777 0.8827 0.7841 0.0
C270 C 0.80191 0.88441 0.79124 0.0
C271 C 0.827 0.85368 0.79056 0.0
C272 C 0.81824 0.82193 0.7829 0.0
C273 C 0.77759 0.67923 0.77544 0.0
C274 C 0.80607 0.65475 0.77096 0.0
C275 C 0.81602 0.62269 0.77832 0.0
C276 C 0.79726 0.6142 0.79018 0.0
C277 C 0.76792 0.63809 0.79443 0.0
C278 C 0.75847 0.67056 0.7872 0.0
C279 C 0.76985 0.71524 0.76834 0.0
C280 C 0.77825 0.74958 0.77471 0.0
C281 C 0.75649 0.71586 0.7552 0.0
C282 C 0.74468 0.68069 0.7482 0.0
C283 C 0.76087 0.67108 0.73602 0.0
C284 C 0.74829 0.63916 0.72907 0.0
C285 C 0.71876 0.61633 0.73403 0.0
C286 C 0.70281 0.62602 0.74631 0.0
C287 C 0.71571 0.65772 0.75331 0.0
H288 H 0.42945 0.42746 0.00735 0.0
H289 H 0.3736 0.40183 0.99622 0.0
H290 H 0.35719 0.50962 0.97666 0.0
H291 H 0.41173 0.53537 0.98853 0.0
H292 H 0.49481 0.46854 0.9911 0.0
H293 H 0.40557 0.4799 0.02798 0.0
H294 H 0.3526 0.50203 0.04149 0.0
H295 H 0.38121 0.61785 0.03182 0.0
H296 H 0.43349 0.59551 0.01817 0.0
H297 H 0.54797 0.59765 0.02227 0.0
H298 H 0.60025 0.61842 0.03626 0.0
H299 H 0.63942 0.50277 0.03919 0.0
H300 H 0.58601 0.48198 0.02559 0.0
H301 H 0.49241 0.55508 0.02953 0.0
H302 H 0.58573 0.54836 0.99648 0.0
H303 H 0.64242 0.53191 0.98392 0.0
H304 H 0.6088 0.41426 0.98436 0.0
H305 H 0.55267 0.43054 0.99723 0.0
C306 C 0.42446 0.48331 0.99881 0.0
C307 C 0.4134 0.44559 1.00078 0.0
C308 C 0.38164 0.4309 0.99427 0.0
C309 C 0.36071 0.45341 0.98538 0.0
C310 C 0.37194 0.49144 0.98355 0.0
C311 C 0.40331 0.50626 0.99027 0.0
C312 C 0.45958 0.49792 0.00498 0.0
C313 C 0.49457 0.48707 0.99963 0.0
C314 C 0.45886 0.52347 0.01566 0.0
C315 C 0.42324 0.53605 0.02198 0.0
C316 C 0.39973 0.50998 0.02848 0.0
C317 C 0.36981 0.5227 0.03634 0.0
C318 C 0.36289 0.56173 0.03782 0.0
C319 C 0.38551 0.58763 0.03081 0.0
C320 C 0.41546 0.57491 0.02302 0.0
C321 C 0.56303 0.53825 0.02282 0.0
C322 C 0.56801 0.57678 0.02582 0.0
C323 C 0.59813 0.58866 0.03377 0.0
C324 C 0.62404 0.56227 0.03891 0.0
C325 C 0.61971 0.5238 0.03555 0.0
C326 C 0.58945 0.51191 0.02762 0.0
C327 C 0.52824 0.52541 0.01583 0.0
C328 C 0.49313 0.53665 0.02097 0.0
C329 C 0.52905 0.50083 0.00478 0.0
C330 C 0.56492 0.49067 0.99795 0.0
C331 C 0.59093 0.51888 0.99417 0.0
C332 C 0.62328 0.5095 0.98693 0.0
C333 C 0.62992 0.47184 0.98312 0.0
C334 C 0.60417 0.44359 0.98704 0.0
C335 C 0.57211 0.45289 0.99441 0.0
H336 H 0.9496 0.49606 0.48167 0.0
H337 H 0.88783 0.51135 0.47208 0.0
H338 H 0.85833 0.57304 0.50734 0.0
H339 H 0.92029 0.5582 0.51681 0.0
H340 H 0.00704 0.53897 0.48861 0.0
H341 H 0.9216 0.4557 0.51143 0.0
H342 H 0.87008 0.43308 0.52559 0.0
H343 H 0.91877 0.49304 0.55859 0.0
H344 H 0.96916 0.51721 0.54435 0.0
H345 H 0.08106 0.53509 0.53858 0.0
H346 H 0.13653 0.51235 0.55069 0.0
H347 H 0.15889 0.43175 0.51965 0.0
H348 H 0.10327 0.4548 0.50753 0.0
H349 H 0.02208 0.48277 0.53311 0.0
H350 H 0.10034 0.57364 0.51015 0.0
H351 H 0.15477 0.59496 0.49712 0.0
H352 H 0.12295 0.51786 0.46596 0.0
H353 H 0.06838 0.49675 0.47902 0.0
C354 C 0.93963 0.52572 0.50001 0.0
C355 C 0.92986 0.51289 0.48734 0.0
C356 C 0.8945 0.52155 0.48189 0.0
C357 C 0.8681 0.54323 0.48898 0.0
C358 C 0.87775 0.55572 0.50172 0.0
C359 C 0.91325 0.54733 0.50713 0.0
C360 C 0.97758 0.51702 0.50567 0.0
C361 C 0.01022 0.52628 0.4983 0.0
C362 C 0.98189 0.50114 0.51845 0.0
C363 C 0.94924 0.48863 0.52673 0.0
C364 C 0.92078 0.4648 0.52162 0.0
C365 C 0.89147 0.45165 0.52973 0.0
C366 C 0.89064 0.46121 0.54318 0.0
C367 C 0.91897 0.48501 0.54828 0.0
C368 C 0.94775 0.49879 0.54013 0.0
C369 C 0.08821 0.49673 0.52215 0.0
C370 C 0.09848 0.51318 0.53424 0.0
C371 C 0.13018 0.50019 0.54113 0.0
C372 C 0.15185 0.4701 0.53615 0.0
C373 C 0.14247 0.45476 0.52376 0.0
C374 C 0.11098 0.46812 0.51678 0.0
C375 C 0.0509 0.50549 0.51622 0.0
C376 C 0.01854 0.49577 0.52348 0.0
C377 C 0.04689 0.52099 0.50345 0.0
C378 C 0.08034 0.5334 0.49561 0.0
C379 C 0.10517 0.56117 0.50054 0.0
C380 C 0.13613 0.57354 0.49305 0.0
C381 C 0.14321 0.5581 0.48051 0.0
C382 C 0.11846 0.53008 0.47563 0.0
C383 C 0.08717 0.51812 0.48305 0.0
Fe384 Fe 0.99203 0.79674 0.1702 0.0
O385 O 0.99674 0.79679 0.15085 0.0
Fe386 Fe 0.95224 0.77135 0.14012 0.0
Fe387 Fe 0.04057 0.77397 0.14125 0.0
O388 O 0.99275 0.79654 0.15082 0.0
O389 O 0.99604 0.74869 0.13049 0.0
O390 O 0.99997 0.74895 0.13052 0.0
Fe391 Fe 0.99982 0.74801 0.11118 0.0
C392 C 0.06912 0.83022 0.16277 0.0
O393 O 0.03237 0.75533 0.1732 0.0
O394 O 0.04122 0.72777 0.15365 0.0
O395 O 0.95609 0.70964 0.11322 0.0
O396 O 0.91574 0.74069 0.12749 0.0
O397 O 0.95155 0.72519 0.15254 0.0
O398 O 0.95084 0.75508 0.1718 0.0
O399 O 0.08098 0.74572 0.12959 0.0
O400 O 0.04521 0.71226 0.11439 0.0
C401 C 0.94513 0.72553 0.16487 0.0
O402 O 0.95747 0.78744 0.10835 0.0
O403 O 0.95008 0.81709 0.12752 0.0
O404 O 0.03657 0.83443 0.16852 0.0
O405 O 0.07708 0.80465 0.15389 0.0
C406 C 0.04264 0.72725 0.16619 0.0
C407 C 0.07667 0.71966 0.12058 0.0
C408 C 0.05035 0.81814 0.11641 0.0
O409 O 0.04328 0.8199 0.12871 0.0
O410 O 0.0399 0.7902 0.10934 0.0
C411 C 0.92294 0.71548 0.1184 0.0
O412 O 0.91172 0.80048 0.15168 0.0
O413 O 0.94831 0.83376 0.1667 0.0
C414 C 0.9442 0.81463 0.11517 0.0
C415 C 0.9173 0.82806 0.16007 0.0
Fe416 Fe 0.51207 0.76632 0.40514 0.0
O417 O 0.53571 0.739 0.39001 0.0
Fe418 Fe 0.48992 0.85402 0.39201 0.0
Fe419 Fe 0.53382 0.68343 0.38874 0.0
O420 O 0.49002 0.79878 0.39098 0.0
O421 O 0.48974 0.79884 0.3896 0.0
O422 O 0.53574 0.73925 0.38857 0.0
Fe423 Fe 0.51295 0.77146 0.37431 0.0
C424 C 0.5666 0.70414 0.41542 0.0
O425 O 0.46487 0.73287 0.4042 0.0
O426 O 0.49193 0.67641 0.40312 0.0
O427 O 0.4854 0.81013 0.36166 0.0
O428 O 0.45404 0.85094 0.3758 0.0
O429 O 0.45083 0.84328 0.40668 0.0
O430 O 0.48239 0.79867 0.41921 0.0
O431 O 0.49268 0.67976 0.37448 0.0
O432 O 0.46572 0.73677 0.37278 0.0
C433 C 0.45543 0.82327 0.41731 0.0
O434 O 0.55984 0.80713 0.37413 0.0
O435 O 0.53209 0.86274 0.37849 0.0
O436 O 0.53989 0.72846 0.41808 0.0
O437 O 0.57174 0.68811 0.40406 0.0
C438 C 0.46394 0.69745 0.40617 0.0
C439 C 0.46584 0.70113 0.37073 0.0
C440 C 0.56499 0.70885 0.36212 0.0
O441 O 0.57094 0.69117 0.37321 0.0
O442 O 0.54095 0.73661 0.3604 0.0
C443 C 0.46113 0.83709 0.36416 0.0
O444 O 0.5306 0.85672 0.40695 0.0
O445 O 0.55905 0.80039 0.40683 0.0
C446 C 0.55904 0.84334 0.37363 0.0
C447 C 0.55868 0.8354 0.40969 0.0
Fe448 Fe 0.51217 0.224 0.67 0.0
O449 O 0.51341 0.22281 0.65058 0.0
Fe450 Fe 0.46718 0.24685 0.6404 0.0
Fe451 Fe 0.55569 0.24613 0.64022 0.0
O452 O 0.50935 0.22285 0.6506 0.0
O453 O 0.50948 0.26991 0.63001 0.0
O454 O 0.51343 0.27012 0.63005 0.0
Fe455 Fe 0.51101 0.27075 0.6107 0.0
C456 C 0.56249 0.293 0.66481 0.0
O457 O 0.55494 0.18555 0.66741 0.0
O458 O 0.59418 0.21549 0.6524 0.0
O459 O 0.46944 0.22984 0.60855 0.0
O460 O 0.46375 0.20069 0.62798 0.0
O461 O 0.42845 0.21813 0.6529 0.0
O462 O 0.46692 0.18782 0.66806 0.0
O463 O 0.55712 0.20007 0.62773 0.0
O464 O 0.55192 0.22962 0.60839 0.0
C465 C 0.43454 0.19349 0.66231 0.0
O466 O 0.46661 0.30821 0.61333 0.0
O467 O 0.42873 0.27583 0.62815 0.0
O468 O 0.55437 0.26439 0.67191 0.0
O469 O 0.55731 0.29279 0.65241 0.0
C470 C 0.58667 0.18897 0.66106 0.0
C471 C 0.56324 0.20182 0.61537 0.0
C472 C 0.58823 0.30157 0.61899 0.0
O473 O 0.59408 0.27546 0.62792 0.0
O474 O 0.5559 0.30776 0.61319 0.0
C475 C 0.45727 0.20256 0.61562 0.0
O476 O 0.46744 0.29374 0.65251 0.0
O477 O 0.47221 0.26615 0.67217 0.0
C478 C 0.43439 0.30143 0.61908 0.0
C479 C 0.4632 0.29424 0.66495 0.0
Fe480 Fe 0.96952 0.24981 0.91904 0.0
O481 O 0.96936 0.24856 0.89964 0.0
Fe482 Fe 0.99337 0.29521 0.88963 0.0
Fe483 Fe 0.99363 0.20675 0.88938 0.0
O484 O 0.9694 0.25261 0.89966 0.0
O485 O 0.01681 0.25337 0.87921 0.0
O486 O 0.01699 0.24947 0.87923 0.0
Fe487 Fe 0.01743 0.25236 0.8599 0.0
C488 C 0.03961 0.20159 0.91425 0.0
O489 O 0.93165 0.20622 0.91627 0.0
O490 O 0.96386 0.1678 0.90156 0.0
O491 O 0.97626 0.29335 0.85783 0.0
O492 O 0.94718 0.29815 0.87725 0.0
O493 O 0.96433 0.33343 0.90195 0.0
O494 O 0.93292 0.29475 0.91681 0.0
O495 O 0.94767 0.20397 0.87684 0.0
O496 O 0.97665 0.21106 0.85748 0.0
C497 C 0.93836 0.32676 0.91078 0.0
O498 O 0.0547 0.29699 0.86264 0.0
O499 O 0.02232 0.33428 0.87756 0.0
O500 O 0.01008 0.20809 0.92106 0.0
O501 O 0.04004 0.20657 0.90182 0.0
C502 C 0.93712 0.17434 0.91019 0.0
C503 C 0.94943 0.19843 0.86445 0.0
C504 C 0.048 0.17507 0.86764 0.0
O505 O 0.02326 0.16883 0.87699 0.0
O506 O 0.05451 0.20788 0.86225 0.0
C507 C 0.94866 0.30443 0.8649 0.0
O508 O 0.03992 0.29532 0.9019 0.0
O509 O 0.01178 0.28982 0.92145 0.0
C510 C 0.04805 0.32899 0.86853 0.0
C511 C 0.04044 0.29814 0.9144 0.0
H512 H 0.21734 0.97112 0.49911 0.0
H513 H 0.27421 0.94413 0.48905 0.0
H514 H 0.20435 0.87704 0.46303 0.0
H515 H 0.14755 0.90368 0.47308 0.0
H516 H 0.26154 0.83552 0.47196 0.0
H517 H 0.24796 0.95958 0.45271 0.0
H518 H 0.24157 0.02914 0.45294 0.0
H519 H 0.34844 0.0392 0.47293 0.0
H520 H 0.35522 0.96962 0.47296 0.0
H521 H 0.38009 0.81188 0.41533 0.0
H522 H 0.33128 0.82811 0.43153 0.0
H523 H 0.41785 0.8657 0.45861 0.0
H524 H 0.46701 0.84807 0.44251 0.0
H525 H 0.35786 0.92024 0.45195 0.0
H526 H 0.37541 0.79471 0.4671 0.0
H527 H 0.38064 0.72524 0.46625 0.0
H528 H 0.265 0.7168 0.45354 0.0
H529 H 0.25943 0.78643 0.45368 0.0
C530 C 0.21412 0.95077 0.4912 0.0
C531 C 0.17787 0.93965 0.48689 0.0
C532 C 0.24666 0.93527 0.48547 0.0
C533 C 0.24365 0.9087 0.47519 0.0
C534 C 0.20748 0.89728 0.47099 0.0
C535 C 0.17499 0.91258 0.47675 0.0
C536 C 0.27798 0.89348 0.46852 0.0
C537 C 0.28245 0.85401 0.46748 0.0
C538 C 0.30587 0.91759 0.463 0.0
C539 C 0.30187 0.9594 0.46298 0.0
C540 C 0.26994 0.97662 0.45725 0.0
C541 C 0.26628 0.01604 0.45732 0.0
C542 C 0.29452 0.03857 0.46299 0.0
C543 C 0.32655 0.02171 0.46857 0.0
C544 C 0.33033 0.98229 0.46854 0.0
C545 C 0.38864 0.82285 0.42486 0.0
C546 C 0.4271 0.82868 0.42776 0.0
C547 C 0.36083 0.83203 0.43409 0.0
C548 C 0.37098 0.84802 0.44626 0.0
C549 C 0.40951 0.85319 0.44929 0.0
C550 C 0.43748 0.84304 0.44016 0.0
C551 C 0.341 0.86235 0.45517 0.0
C552 C 0.33724 0.9017 0.45658 0.0
C553 C 0.31361 0.83805 0.46087 0.0
C554 C 0.31717 0.79607 0.46024 0.0
C555 C 0.35128 0.7782 0.46383 0.0
C556 C 0.35431 0.73873 0.46347 0.0
C557 C 0.32324 0.71666 0.45973 0.0
C558 C 0.28914 0.73401 0.45627 0.0
C559 C 0.28607 0.77351 0.45647 0.0
H560 H 0.32547 0.68611 0.45963 0.0
H561 H 0.29164 0.06909 0.46303 0.0
H562 H 0.32875 0.93284 0.72783 0.0
H563 H 0.34144 0.98907 0.71458 0.0
H564 H 0.2343 0.97558 0.69476 0.0
H565 H 0.21993 0.92047 0.70856 0.0
H566 H 0.32034 0.9877 0.67976 0.0
H567 H 0.21998 0.03937 0.70754 0.0
H568 H 0.18867 0.0486 0.72902 0.0
H569 H 0.29024 0.09864 0.74462 0.0
H570 H 0.32232 0.08913 0.72328 0.0
H571 H 0.37334 0.16269 0.64899 0.0
H572 H 0.32839 0.1155 0.65772 0.0
H573 H 0.38016 0.12545 0.69615 0.0
H574 H 0.4244 0.17203 0.68757 0.0
H575 H 0.30589 0.11641 0.69874 0.0
H576 H 0.40886 0.05648 0.67488 0.0
H577 H 0.44794 0.0458 0.6551 0.0
H578 H 0.34928 0.0105 0.6335 0.0
H579 H 0.30954 0.02125 0.65318 0.0
C580 C 0.30736 0.94204 0.72088 0.0
C581 C 0.2731 0.92192 0.71941 0.0
C582 C 0.31494 0.97402 0.7132 0.0
C583 C 0.2888 0.98636 0.70372 0.0
C584 C 0.25484 0.96635 0.70202 0.0
C585 C 0.24686 0.93467 0.70988 0.0
C586 C 0.29749 0.02047 0.69577 0.0
C587 C 0.31613 0.01599 0.68367 0.0
C588 C 0.29288 0.05714 0.70107 0.0
C589 C 0.27362 0.06319 0.71386 0.0
C590 C 0.23573 0.05199 0.71559 0.0
C591 C 0.21782 0.05735 0.72773 0.0
C592 C 0.23748 0.0741 0.73819 0.0
C593 C 0.27506 0.08562 0.73652 0.0
C594 C 0.2931 0.08029 0.7244 0.0
C595 C 0.37449 0.15527 0.65933 0.0
C596 C 0.40282 0.17047 0.66752 0.0
C597 C 0.34893 0.12827 0.66431 0.0
C598 C 0.35122 0.11655 0.67757 0.0
C599 C 0.37776 0.1339 0.6859 0.0
C600 C 0.40328 0.16038 0.68094 0.0
C601 C 0.32914 0.08382 0.68272 0.0
C602 C 0.30854 0.08839 0.69445 0.0
C603 C 0.3325 0.04716 0.67718 0.0
C604 C 0.35624 0.04001 0.66543 0.0
C605 C 0.39551 0.04657 0.66589 0.0
C606 C 0.41776 0.04049 0.65471 0.0
C607 C 0.40108 0.02756 0.64305 0.0
C608 C 0.36212 0.02055 0.64255 0.0
C609 C 0.33973 0.02659 0.65371 0.0
H610 H 0.41841 0.02286 0.63442 0.0
H611 H 0.22357 0.07824 0.74758 0.0
H612 H 0.36138 0.08257 0.96122 0.0
H613 H 0.30799 0.10645 0.9483 0.0
H614 H 0.23692 0.10159 0.9828 0.0
H615 H 0.28995 0.07671 0.99571 0.0
H616 H 0.20094 0.07262 0.96198 0.0
H617 H 0.27064 0.18705 0.97079 0.0
H618 H 0.32594 0.22986 0.97112 0.0
H619 H 0.33449 0.22227 0.92897 0.0
H620 H 0.27932 0.17933 0.92839 0.0
H621 H 0.04734 0.18419 0.9404 0.0
H622 H 0.10324 0.16068 0.95185 0.0
H623 H 0.16603 0.16269 0.91543 0.0
H624 H 0.10997 0.18658 0.9038 0.0
H625 H 0.20715 0.192 0.9362 0.0
H626 H 0.13522 0.07977 0.92743 0.0
H627 H 0.07811 0.03948 0.92721 0.0
H628 H 0.07325 0.04357 0.96949 0.0
H629 H 0.13005 0.08438 0.96996 0.0
C630 C 0.33433 0.08631 0.96605 0.0
C631 C 0.33002 0.07762 0.97953 0.0
C632 C 0.30389 0.1004 0.95867 0.0
C633 C 0.26844 0.10626 0.96459 0.0
C634 C 0.264 0.09747 0.97801 0.0
C635 C 0.29445 0.08347 0.98541 0.0
C636 C 0.2357 0.1205 0.95672 0.0
C637 C 0.20221 0.09897 0.95648 0.0
C638 C 0.23754 0.15436 0.94921 0.0
C639 C 0.27112 0.17965 0.94957 0.0
C640 C 0.28453 0.19425 0.9616 0.0
C641 C 0.31576 0.21867 0.96183 0.0
C642 C 0.33374 0.22877 0.95008 0.0
C643 C 0.32052 0.21448 0.93807 0.0
C644 C 0.28923 0.19016 0.93778 0.0
C645 C 0.07292 0.17959 0.93475 0.0
C646 C 0.07393 0.18705 0.92111 0.0
C647 C 0.10491 0.16602 0.94135 0.0
C648 C 0.13874 0.15943 0.93449 0.0
C649 C 0.14018 0.16742 0.92092 0.0
C650 C 0.10805 0.18093 0.91427 0.0
C651 C 0.17243 0.14426 0.94158 0.0
C652 C 0.20603 0.16556 0.94165 0.0
C653 C 0.17071 0.11023 0.94896 0.0
C654 C 0.13672 0.08541 0.94872 0.0
C655 C 0.12182 0.07231 0.93668 0.0
C656 C 0.08952 0.04934 0.93651 0.0
C657 C 0.07201 0.03904 0.94833 0.0
C658 C 0.08683 0.0516 0.96034 0.0
C659 C 0.1191 0.07462 0.96057 0.0
H660 H 0.047 0.02126 0.94817 0.0
H661 H 0.35788 0.24772 0.95027 0.0
H662 H 0.20613 0.14084 0.20599 0.0
H663 H 0.18458 0.08611 0.19327 0.0
H664 H 0.21728 0.01185 0.22507 0.0
H665 H 0.23955 0.06664 0.23783 0.0
H666 H 0.23709 0.98297 0.20045 0.0
H667 H 0.12714 0.03359 0.22158 0.0
H668 H 0.08161 0.0831 0.22798 0.0
H669 H 0.0549 0.10304 0.18723 0.0
H670 H 0.10073 0.05399 0.18057 0.0
H671 H 0.1187 0.82409 0.18312 0.0
H672 H 0.15514 0.87596 0.19316 0.0
H673 H 0.11881 0.95093 0.162 0.0
H674 H 0.0824 0.89899 0.15201 0.0
H675 H 0.10282 0.97929 0.186 0.0
H676 H 0.21132 0.92608 0.16493 0.0
H677 H 0.25617 0.87568 0.15881 0.0
H678 H 0.28491 0.85931 0.19958 0.0
H679 H 0.2398 0.90928 0.20597 0.0
C680 C 0.2092 0.11286 0.21024 0.0
C681 C 0.22453 0.10817 0.22295 0.0
C682 C 0.19663 0.08158 0.20298 0.0
C683 C 0.19904 0.04486 0.20825 0.0
C684 C 0.21511 0.03991 0.22081 0.0
C685 C 0.22751 0.07127 0.22813 0.0
C686 C 0.18351 0.01195 0.20079 0.0
C687 C 0.20764 0.9819 0.19741 0.0
C688 C 0.14525 0.01088 0.19661 0.0
C689 C 0.11767 0.04041 0.20057 0.0
C690 C 0.11181 0.04877 0.21397 0.0
C691 C 0.08591 0.0767 0.21765 0.0
C692 C 0.06546 0.09629 0.20801 0.0
C693 C 0.07081 0.0879 0.19468 0.0
C694 C 0.09673 0.06002 0.19095 0.0
C695 C 0.1198 0.8513 0.17818 0.0
C696 C 0.09849 0.85757 0.1667 0.0
C697 C 0.14044 0.88097 0.18393 0.0
C698 C 0.13979 0.91742 0.17833 0.0
C699 C 0.11981 0.9231 0.16649 0.0
C700 C 0.09934 0.8934 0.16072 0.0
C701 C 0.15643 0.95031 0.18551 0.0
C702 C 0.13238 0.98036 0.18893 0.0
C703 C 0.19467 0.95121 0.18975 0.0
C704 C 0.22189 0.92119 0.18594 0.0
C705 C 0.22695 0.91151 0.17261 0.0
C706 C 0.25247 0.88307 0.16908 0.0
C707 C 0.2733 0.86423 0.1788 0.0
C708 C 0.26872 0.87389 0.19206 0.0
C709 C 0.2432 0.90231 0.19564 0.0
H710 H 0.29305 0.84222 0.17605 0.0
H711 H 0.04539 0.11789 0.21088 0.0
H712 H 0.13937 0.09115 0.56793 0.0
H713 H 0.19453 0.11107 0.5808 0.0
H714 H 0.26838 0.06278 0.55141 0.0
H715 H 0.21299 0.04114 0.53888 0.0
H716 H 0.29837 0.04914 0.57326 0.0
H717 H 0.249 0.16278 0.55502 0.0
H718 H 0.20292 0.21284 0.54962 0.0
H719 H 0.18812 0.23652 0.5908 0.0
H720 H 0.23373 0.18623 0.59649 0.0
H721 H 0.45508 0.17708 0.5902 0.0
H722 H 0.40221 0.14479 0.57915 0.0
H723 H 0.34143 0.14019 0.61593 0.0
H724 H 0.39467 0.17158 0.62709 0.0
H725 H 0.30631 0.17994 0.59089 0.0
H726 H 0.36104 0.06269 0.60763 0.0
H727 H 0.41375 0.0177 0.61056 0.0
H728 H 0.42533 0.0079 0.56858 0.0
H729 H 0.37286 0.05307 0.56538 0.0
C730 C 0.16741 0.08478 0.56424 0.0
C731 C 0.17187 0.06474 0.55237 0.0
C732 C 0.19904 0.09641 0.57156 0.0
C733 C 0.23598 0.08931 0.567 0.0
C734 C 0.24038 0.06877 0.55521 0.0
C735 C 0.20869 0.05641 0.54802 0.0
C736 C 0.26989 0.10308 0.57455 0.0
C737 C 0.30002 0.0779 0.57697 0.0
C738 C 0.27256 0.14061 0.57954 0.0
C739 C 0.24443 0.17034 0.57618 0.0
C740 C 0.23561 0.17836 0.56294 0.0
C741 C 0.20964 0.20685 0.55982 0.0
C742 C 0.19253 0.22778 0.56986 0.0
C743 C 0.20136 0.22025 0.58304 0.0
C744 C 0.22726 0.19174 0.58622 0.0
C745 C 0.43089 0.16821 0.596 0.0
C746 C 0.42915 0.17655 0.60956 0.0
C747 C 0.4007 0.14987 0.58967 0.0
C748 C 0.36791 0.1402 0.59672 0.0
C749 C 0.36657 0.14729 0.61033 0.0
C750 C 0.39712 0.16488 0.61673 0.0
C751 C 0.3339 0.12589 0.58963 0.0
C752 C 0.30408 0.15113 0.58722 0.0
C753 C 0.33204 0.08895 0.58433 0.0
C754 C 0.36327 0.06152 0.58627 0.0
C755 C 0.37502 0.05118 0.59903 0.0
C756 C 0.40479 0.02559 0.60074 0.0
C757 C 0.42296 0.01008 0.58978 0.0
C758 C 0.41126 0.01997 0.57707 0.0
C759 C 0.38146 0.0455 0.57529 0.0
H760 H 0.44604 0.99032 0.59113 0.0
H761 H 0.17251 0.24989 0.56743 0.0
H762 H 0.17982 0.86794 0.8134 0.0
H763 H 0.15571 0.91587 0.82865 0.0
H764 H 0.15996 0.99953 0.79767 0.0
H765 H 0.18424 0.95164 0.78234 0.0
H766 H 0.19288 0.0234 0.82167 0.0
H767 H 0.07716 0.96411 0.80625 0.0
H768 H 0.03439 0.90998 0.80224 0.0
H769 H 0.03333 0.88471 0.84367 0.0
H770 H 0.07652 0.93842 0.8479 0.0
H771 H 0.08523 0.1742 0.84418 0.0
H772 H 0.11279 0.12086 0.83285 0.0
H773 H 0.08352 0.04761 0.86537 0.0
H774 H 0.05402 0.10142 0.87677 0.0
H775 H 0.06673 0.01435 0.84295 0.0
H776 H 0.17764 0.07532 0.85912 0.0
H777 H 0.2209 0.12863 0.86374 0.0
H778 H 0.23358 0.14885 0.82222 0.0
H779 H 0.18999 0.09599 0.81734 0.0
C780 C 0.17572 0.89659 0.80985 0.0
C781 C 0.18403 0.90612 0.79669 0.0
C782 C 0.16171 0.92384 0.81855 0.0
C783 C 0.15591 0.96117 0.81427 0.0
C784 C 0.16422 0.97082 0.80114 0.0
C785 C 0.17786 0.94346 0.79239 0.0
C786 C 0.14189 0.9904 0.82354 0.0
C787 C 0.16519 0.02165 0.82625 0.0
C788 C 0.10642 0.98721 0.82992 0.0
C789 C 0.0804 0.955 0.82737 0.0
C790 C 0.06808 0.9468 0.81449 0.0
C791 C 0.0437 0.91625 0.81218 0.0
C792 C 0.03124 0.89385 0.82268 0.0
C793 C 0.04305 0.90204 0.83553 0.0
C794 C 0.06745 0.93255 0.83789 0.0
C795 C 0.085 0.14701 0.84913 0.0
C796 C 0.06768 0.14235 0.86153 0.0
C797 C 0.10107 0.11639 0.8426 0.0
C798 C 0.10117 0.0803 0.84836 0.0
C799 C 0.08409 0.07531 0.86077 0.0
C800 C 0.06737 0.10608 0.8673 0.0
C801 C 0.11748 0.0479 0.84094 0.0
C802 C 0.09469 0.01598 0.83856 0.0
C803 C 0.15373 0.05018 0.83499 0.0
C804 C 0.18037 0.08176 0.83787 0.0
C805 C 0.1895 0.09125 0.85097 0.0
C806 C 0.21409 0.12138 0.85364 0.0
C807 C 0.22994 0.14214 0.84328 0.0
C808 C 0.2213 0.13274 0.83023 0.0
C809 C 0.19669 0.10264 0.82751 0.0
H810 H 0.24895 0.16548 0.84536 0.0
H811 H 0.01237 0.87021 0.82088 0.0
H812 H 0.30032 0.02111 0.05343 0.0
H813 H 0.24665 0.99791 0.06646 0.0
H814 H 0.29416 0.88528 0.0659 0.0
H815 H 0.34649 0.90816 0.05227 0.0
H816 H 0.22537 0.87728 0.06268 0.0
H817 H 0.29587 0.94824 0.09413 0.0
H818 H 0.32934 0.00347 0.10346 0.0
H819 H 0.2262 0.06765 0.10267 0.0
H820 H 0.1922 0.01294 0.09317 0.0
H821 H 0.11177 0.85243 0.12782 0.0
H822 H 0.16381 0.88432 0.11628 0.0
H823 H 0.10096 0.87764 0.07981 0.0
H824 H 0.04991 0.84417 0.09118 0.0
H825 H 0.17949 0.94383 0.10262 0.0
H826 H 0.15697 0.85751 0.05429 0.0
H827 H 0.13142 0.79552 0.04735 0.0
H828 H 0.15221 0.75048 0.086 0.0
H829 H 0.17847 0.81197 0.09314 0.0
C830 C 0.29916 0.99142 0.05612 0.0
C831 C 0.32745 0.96639 0.05183 0.0
C832 C 0.26863 0.97817 0.06366 0.0
C833 C 0.26637 0.93981 0.06742 0.0
C834 C 0.2949 0.91493 0.06314 0.0
C835 C 0.32489 0.928 0.05536 0.0
C836 C 0.23398 0.92525 0.07549 0.0
C837 C 0.21547 0.89196 0.07141 0.0
C838 C 0.22127 0.94361 0.08711 0.0
C839 C 0.24158 0.97661 0.09281 0.0
C840 C 0.28039 0.97423 0.09585 0.0
C841 C 0.29944 0.00542 0.10119 0.0
C842 C 0.27993 0.03908 0.10362 0.0
C843 C 0.24129 0.04158 0.10076 0.0
C844 C 0.2221 0.01047 0.09541 0.0
C845 C 0.10872 0.85861 0.1174 0.0
C846 C 0.07693 0.84556 0.11036 0.0
C847 C 0.13857 0.87673 0.11079 0.0
C848 C 0.13691 0.88247 0.09707 0.0
C849 C 0.10355 0.87252 0.0903 0.0
C850 C 0.07418 0.85372 0.09683 0.0
C851 C 0.17077 0.89631 0.08966 0.0
C852 C 0.18947 0.92933 0.09387 0.0
C853 C 0.18483 0.87677 0.07848 0.0
C854 C 0.16933 0.83952 0.07427 0.0
C855 C 0.15623 0.83434 0.0613 0.0
C856 C 0.14163 0.79929 0.05733 0.0
C857 C 0.14014 0.76912 0.06625 0.0
C858 C 0.15334 0.7739 0.07913 0.0
C859 C 0.16805 0.80886 0.08314 0.0
H860 H 0.12882 0.742 0.06316 0.0
H861 H 0.29473 0.0632 0.10776 0.0
H862 H 0.396 0.10443 0.28031 0.0
H863 H 0.41865 0.04785 0.29185 0.0
H864 H 0.31278 0.04021 0.31278 0.0
H865 H 0.28939 0.09581 0.30103 0.0
H866 H 0.37715 0.03732 0.32915 0.0
H867 H 0.33043 0.9792 0.28893 0.0
H868 H 0.32752 0.97084 0.2648 0.0
H869 H 0.44609 0.94414 0.26407 0.0
H870 H 0.44981 0.95287 0.28818 0.0
H871 H 0.39071 0.86804 0.36293 0.0
H872 H 0.36784 0.91421 0.34684 0.0
H873 H 0.47095 0.90165 0.32453 0.0
H874 H 0.49338 0.85423 0.34041 0.0
H875 H 0.41297 0.91563 0.30814 0.0
H876 H 0.46278 0.97294 0.34692 0.0
H877 H 0.47075 0.98313 0.37082 0.0
H878 H 0.35385 0.01508 0.37402 0.0
H879 H 0.34504 0.00453 0.35015 0.0
C880 C 0.37722 0.09037 0.28718 0.0
C881 C 0.34087 0.10499 0.28977 0.0
C882 C 0.39031 0.05808 0.29381 0.0
C883 C 0.36739 0.03982 0.30317 0.0
C884 C 0.33101 0.05399 0.30565 0.0
C885 C 0.31779 0.08599 0.29897 0.0
C886 C 0.38162 0.0069 0.31084 0.0
C887 C 0.38451 0.01056 0.32457 0.0
C888 C 0.39279 0.97255 0.30481 0.0
C889 C 0.39048 0.96706 0.29034 0.0
C890 C 0.35595 0.97185 0.28361 0.0
C891 C 0.35414 0.96698 0.26994 0.0
C892 C 0.38662 0.95706 0.2629 0.0
C893 C 0.42096 0.95187 0.26953 0.0
C894 C 0.42293 0.95674 0.28319 0.0
C895 C 0.40803 0.87432 0.3544 0.0
C896 C 0.44385 0.85765 0.35295 0.0
C897 C 0.39508 0.90093 0.34525 0.0
C898 C 0.41813 0.91226 0.33467 0.0
C899 C 0.45274 0.89356 0.33264 0.0
C900 C 0.46546 0.86633 0.3417 0.0
C901 C 0.40739 0.9457 0.32652 0.0
C902 C 0.40555 0.94235 0.31273 0.0
C903 C 0.39793 0.98078 0.33244 0.0
C904 C 0.40317 0.98762 0.34677 0.0
C905 C 0.43871 0.98191 0.35273 0.0
C906 C 0.44339 0.98777 0.36627 0.0
C907 C 0.4128 0.99966 0.37394 0.0
C908 C 0.3775 0.00583 0.36807 0.0
C909 C 0.37265 0.99995 0.35454 0.0
H910 H 0.41647 0.00417 0.38442 0.0
H911 H 0.38516 0.9533 0.25232 0.0
H912 H 0.82307 0.11277 0.54113 0.0
H913 H 0.7689 0.12754 0.55516 0.0
H914 H 0.77346 0.01562 0.57205 0.0
H915 H 0.82847 1.00072 0.55829 0.0
H916 H 0.69483 0.04876 0.56408 0.0
H917 H 0.80236 0.07266 0.59578 0.0
H918 H 0.86707 0.09752 0.59939 0.0
H919 H 0.83534 0.20312 0.58146 0.0
H920 H 0.77073 0.17847 0.57761 0.0
H921 H 0.61514 0.15461 0.62716 0.0
H922 H 0.66354 0.11621 0.61615 0.0
H923 H 0.61807 0.14848 0.57828 0.0
H924 H 0.56985 0.18659 0.58913 0.0
H925 H 0.71857 0.14247 0.59966 0.0
H926 H 0.63135 0.07798 0.55616 0.0
H927 H 0.56722 0.05249 0.55225 0.0
H928 H 0.55655 0.02572 0.59338 0.0
H929 H 0.62081 0.05047 0.59751 0.0
C930 C 0.81274 0.09124 0.54784 0.0
C931 C 0.83048 0.05563 0.54863 0.0
C932 C 0.78156 0.09966 0.55578 0.0
C933 C 0.76728 0.07267 0.56463 0.0
C934 C 0.78396 0.03671 0.5652 0.0
C935 C 0.81535 0.02827 0.55729 0.0
C936 C 0.73655 0.08328 0.57385 0.0
C937 C 0.69981 0.06923 0.57187 0.0
C938 C 0.74334 0.10916 0.58418 0.0
C939 C 0.78175 0.12414 0.58668 0.0
C940 C 0.80926 0.10125 0.5927 0.0
C941 C 0.8459 0.11521 0.59473 0.0
C942 C 0.85526 0.15196 0.59072 0.0
C943 C 0.82802 0.17476 0.58464 0.0
C944 C 0.79138 0.16087 0.58258 0.0
C945 C 0.6149 0.15278 0.6165 0.0
C946 C 0.58856 0.17367 0.60903 0.0
C947 C 0.64275 0.13103 0.61022 0.0
C948 C 0.64435 0.12926 0.59638 0.0
C949 C 0.61715 0.14892 0.58896 0.0
C950 C 0.58962 0.17085 0.5952 0.0
C951 C 0.67593 0.10954 0.58954 0.0
C952 C 0.71317 0.12177 0.59198 0.0
C953 C 0.66931 0.08203 0.57961 0.0
C954 C 0.63087 0.06636 0.57715 0.0
C955 C 0.61544 0.06644 0.56436 0.0
C956 C 0.57902 0.05216 0.5621 0.0
C957 C 0.55778 0.03759 0.57256 0.0
C958 C 0.57297 0.03713 0.58529 0.0
C959 C 0.60938 0.05133 0.5876 0.0
H960 H 0.52957 0.02661 0.5708 0.0
H961 H 0.88364 0.16272 0.59229 0.0
H962 H 0.62228 0.08674 0.28438 0.0
H963 H 0.60642 0.03222 0.29806 0.0
H964 H 0.71508 0.04024 0.31735 0.0
H965 H 0.73242 0.09282 0.30301 0.0
H966 H 0.69867 0.96939 0.31488 0.0
H967 H 0.6277 0.07871 0.33013 0.0
H968 H 0.58223 0.13139 0.32812 0.0
H969 H 0.4941 0.05289 0.31763 0.0
H970 H 0.53918 0.99983 0.3194 0.0
H971 H 0.5874 0.91303 0.37874 0.0
H972 H 0.61628 0.95639 0.36293 0.0
H973 H 0.61961 0.86714 0.33394 0.0
H974 H 0.59057 0.82329 0.34988 0.0
H975 H 0.57953 0.97601 0.34056 0.0
H976 H 0.69177 0.89351 0.3112 0.0
H977 H 0.73785 0.84191 0.31457 0.0
H978 H 0.74523 0.86953 0.35573 0.0
H979 H 0.69963 0.92157 0.35257 0.0
C980 C 0.64327 0.07657 0.29131 0.0
C981 C 0.67861 0.09488 0.29259 0.0
C982 C 0.63387 0.04552 0.2993 0.0
C983 C 0.65913 0.03244 0.30903 0.0
C984 C 0.69486 0.04979 0.31003 0.0
C985 C 0.70454 0.08041 0.3019 0.0
C986 C 0.64802 1.00181 0.31849 0.0
C987 C 0.67252 0.97086 0.32045 0.0
C988 C 0.61395 0.0034 0.32586 0.0
C989 C 0.58694 0.03538 0.32474 0.0
C990 C 0.5987 0.07274 0.32729 0.0
C991 C 0.57299 0.10266 0.32621 0.0
C992 C 0.53534 0.09551 0.32271 0.0
C993 C 0.52329 0.05841 0.32031 0.0
C994 C 0.54891 0.02841 0.32134 0.0
C995 C 0.59541 0.90225 0.36914 0.0
C996 C 0.5867 0.86475 0.36555 0.0
C997 C 0.61166 0.92717 0.36007 0.0
C998 C 0.61968 0.91526 0.34718 0.0
C999 C 0.61379 0.87698 0.34384 0.0
C1000 C 0.5975 0.85183 0.35299 0.0
C1001 C 0.63035 0.94402 0.33706 0.0
C1002 C 0.60557 0.97447 0.33492 0.0
C1003 C 0.66421 0.94208 0.32966 0.0
C1004 C 0.69194 0.91113 0.33166 0.0
C1005 C 0.70331 0.88862 0.32096 0.0
C1006 C 0.72934 0.85929 0.32283 0.0
C1007 C 0.74435 0.85236 0.33537 0.0
C1008 C 0.73346 0.87482 0.34604 0.0
C1009 C 0.70747 0.90418 0.34422 0.0
H1010 H 0.76448 0.82964 0.3368 0.0
H1011 H 0.51548 0.11871 0.32188 0.0
H1012 H 0.63599 0.97124 0.07155 0.0
H1013 H 0.69017 0.94956 0.08453 0.0
H1014 H 0.75095 0.92462 0.04877 0.0
H1015 H 0.69755 0.94748 0.03567 0.0
H1016 H 0.75111 0.86507 0.06712 0.0
H1017 H 0.77454 1.00065 0.06656 0.0
H1018 H 0.75853 0.06762 0.0706 0.0
H1019 H 0.74393 0.04408 0.11184 0.0
H1020 H 0.75909 0.97683 0.10798 0.0
H1021 H 0.93351 0.82623 0.08885 0.0
H1022 H 0.88019 0.85748 0.07815 0.0
H1023 H 0.83631 0.89022 0.11613 0.0
H1024 H 0.89016 0.85931 0.12697 0.0
H1025 H 0.82391 0.94516 0.09844 0.0
H1026 H 0.80124 0.81358 0.10062 0.0
H1027 H 0.81309 0.74526 0.09824 0.0
H1028 H 0.81974 0.7578 0.0562 0.0
H1029 H 0.80872 0.82652 0.05833 0.0
C1030 C 0.66108 0.96183 0.0664 0.0
C1031 C 0.66217 0.96121 0.0525 0.0
C1032 C 0.69202 0.94926 0.07387 0.0
C1033 C 0.72469 0.93561 0.06763 0.0
C1034 C 0.72597 0.93494 0.0538 0.0
C1035 C 0.69523 0.94782 0.04632 0.0
C1036 C 0.75712 0.92078 0.07546 0.0
C1037 C 0.76741 0.88272 0.07381 0.0
C1038 C 0.77716 0.9433 0.0847 0.0
C1039 C 0.76764 0.98365 0.08696 0.0
C1040 C 0.76754 0.00968 0.07646 0.0
C1041 C 0.75866 0.04771 0.07872 0.0
C1042 C 0.75012 0.06009 0.09146 0.0
C1043 C 0.75047 0.03447 0.10197 0.0
C1044 C 0.75921 0.9964 0.09975 0.0
C1045 C 0.91291 0.8406 0.09495 0.0
C1046 C 0.91598 0.83989 0.10878 0.0
C1047 C 0.88224 0.85828 0.08881 0.0
C1048 C 0.85363 0.87533 0.09634 0.0
C1049 C 0.85784 0.87696 0.11011 0.0
C1050 C 0.88875 0.85938 0.1163 0.0
C1051 C 0.81875 0.88972 0.08975 0.0
C1052 C 0.80773 0.92749 0.09172 0.0
C1053 C 0.79739 0.86667 0.08101 0.0
C1054 C 0.80457 0.82537 0.07965 0.0
C1055 C 0.80566 0.8019 0.09087 0.0
C1056 C 0.81218 0.76304 0.08957 0.0
C1057 C 0.81728 0.74717 0.07708 0.0
C1058 C 0.81587 0.77015 0.06587 0.0
C1059 C 0.8095 0.80908 0.06712 0.0
H1060 H 0.82217 0.71705 0.07608 0.0
H1061 H 0.74332 0.08955 0.09319 0.0
H1062 H 0.82375 0.8856 0.81708 0.0
H1063 H 0.84213 0.94084 0.83037 0.0
H1064 H 0.82146 0.01392 0.79706 0.0
H1065 H 0.80216 0.95885 0.78381 0.0
H1066 H 0.89808 0.01854 0.8116 0.0
H1067 H 0.76114 0.02023 0.81833 0.0
H1068 H 0.70081 0.99076 0.82505 0.0
H1069 H 0.7456 0.97081 0.86383 0.0
H1070 H 0.80643 0.99965 0.85727 0.0
H1071 H 0.9287 0.19608 0.83861 0.0
H1072 H 0.89701 0.14419 0.82712 0.0
H1073 H 0.88084 0.08603 0.86413 0.0
H1074 H 0.91166 0.13865 0.87576 0.0
H1075 H 0.82275 0.0714 0.84852 0.0
H1076 H 0.95513 0.06312 0.84448 0.0
H1077 H 0.02051 0.08398 0.84022 0.0
H1078 H 0.9925 0.10541 0.79968 0.0
H1079 H 0.9266 0.08509 0.80375 0.0
C1080 C 0.82292 0.9135 0.81263 0.0
C1081 C 0.81154 0.918 0.79942 0.0
C1082 C 0.8333 0.94497 0.82023 0.0
C1083 C 0.83307 0.9814 0.81469 0.0
C1084 C 0.82171 0.98601 0.80151 0.0
C1085 C 0.81058 0.95463 0.79398 0.0
C1086 C 0.84607 0.01451 0.82251 0.0
C1087 C 0.88135 0.03059 0.81951 0.0
C1088 C 0.82515 0.02874 0.83331 0.0
C1089 C 0.78846 0.01175 0.83726 0.0
C1090 C 0.75825 0.00925 0.82825 0.0
C1091 C 0.72393 0.99272 0.83204 0.0
C1092 C 0.7194 0.97882 0.84485 0.0
C1093 C 0.74915 0.98154 0.85391 0.0
C1094 C 0.78354 0.998 0.85016 0.0
C1095 C 0.91762 0.17266 0.84435 0.0
C1096 C 0.92299 0.17133 0.85808 0.0
C1097 C 0.89973 0.14284 0.83775 0.0
C1098 C 0.8875 0.11061 0.84469 0.0
C1099 C 0.89028 0.11042 0.85853 0.0
C1100 C 0.90779 0.14061 0.86518 0.0
C1101 C 0.87439 0.07638 0.83735 0.0
C1102 C 0.8394 0.05973 0.84052 0.0
C1103 C 0.89627 0.06056 0.82702 0.0
C1104 C 0.9358 0.07296 0.82446 0.0
C1105 C 0.9628 0.07258 0.83468 0.0
C1106 C 1.0 0.08424 0.83229 0.0
C1107 C 0.0107 0.0961 0.81969 0.0
C1108 C 0.98417 0.09625 0.80944 0.0
C1109 C 0.94688 0.08463 0.81178 0.0
H1110 H 0.03955 0.1051 0.81787 0.0
H1111 H 0.69282 0.96603 0.84777 0.0
H1112 H 0.87053 0.96022 0.45734 0.0
H1113 H 0.81447 0.94305 0.44428 0.0
H1114 H 0.7422 0.9841 0.47529 0.0
H1115 H 0.79815 1.00222 0.48828 0.0
H1116 H 0.74831 0.89564 0.46364 0.0
H1117 H 0.72111 0.02822 0.45538 0.0
H1118 H 0.73817 0.09187 0.44729 0.0
H1119 H 0.75928 0.04643 0.40873 0.0
H1120 H 0.74295 0.98236 0.41667 0.0
H1121 H 0.5701 0.83409 0.43624 0.0
H1122 H 0.62241 0.86311 0.44869 0.0
H1123 H 0.67278 0.90034 0.41209 0.0
H1124 H 0.61977 0.87247 0.39982 0.0
H1125 H 0.67734 0.95479 0.427 0.0
H1126 H 0.7021 0.82157 0.43086 0.0
H1127 H 0.72254 0.74605 0.43607 0.0
H1128 H 0.72319 0.79885 0.4899 0.0
H1129 H 0.70182 0.86469 0.47738 0.0
C1130 C 0.84268 0.96631 0.46125 0.0
C1131 C 0.83873 0.98245 0.47386 0.0
C1132 C 0.81071 0.95685 0.45372 0.0
C1133 C 0.77417 0.963 0.45869 0.0
C1134 C 0.77012 0.97998 0.47113 0.0
C1135 C 0.8021 0.99013 0.47857 0.0
C1136 C 0.741 0.94523 0.45207 0.0
C1137 C 0.73126 0.90861 0.45597 0.0
C1138 C 0.72148 0.96197 0.44144 0.0
C1139 C 0.73129 1.00043 0.43667 0.0
C1140 C 0.72987 0.03171 0.44523 0.0
C1141 C 0.73928 0.06789 0.44065 0.0
C1142 C 0.74993 0.07318 0.42751 0.0
C1143 C 0.75109 0.04229 0.41891 0.0
C1144 C 0.74173 0.00605 0.42344 0.0
C1145 C 0.59254 0.84844 0.43093 0.0
C1146 C 0.59098 0.8514 0.41712 0.0
C1147 C 0.62263 0.86474 0.43802 0.0
C1148 C 0.65197 0.88401 0.43142 0.0
C1149 C 0.65054 0.88607 0.41753 0.0
C1150 C 0.62032 0.87008 0.41048 0.0
C1151 C 0.68281 0.90405 0.43885 0.0
C1152 C 0.69257 0.94136 0.43503 0.0
C1153 C 0.70255 0.8876 0.44964 0.0
C1154 C 0.69932 0.84741 0.45374 0.0
C1155 C 0.70477 0.81296 0.44105 0.0
C1156 C 0.71927 0.76541 0.4444 0.0
C1157 C 0.73002 0.75575 0.47067 0.0
C1158 C 0.72 0.79838 0.4793 0.0
C1159 C 0.70555 0.84019 0.47112 0.0
H1160 H 0.73908 0.73121 0.47646 0.0
H1161 H 0.75718 0.10122 0.42399 0.0
H1162 H 0.70087 0.0707 0.21921 0.0
H1163 H 0.71568 0.01614 0.20502 0.0
H1164 H 0.82945 0.05829 0.20002 0.0
H1165 H 0.81512 0.11211 0.21445 0.0
H1166 H 0.78647 0.03319 0.17545 0.0
H1167 H 0.82325 0.99436 0.22018 0.0
H1168 H 0.80955 0.98218 0.24365 0.0
H1169 H 0.72223 0.90331 0.2327 0.0
H1170 H 0.7351 0.9155 0.20915 0.0
H1171 H 0.92571 0.9036 0.16004 0.0
H1172 H 0.88099 0.95094 0.16777 0.0
H1173 H 0.79662 0.86384 0.17351 0.0
H1174 H 0.84198 0.81586 0.16562 0.0
H1175 H 0.80638 0.90648 0.1955 0.0
H1176 H 0.78021 0.93184 0.15119 0.0
H1177 H 0.79224 0.9422 0.12754 0.0
H1178 H 0.85345 0.04422 0.13648 0.0
H1179 H 0.84256 0.03411 0.16022 0.0
C1180 C 0.729 0.06819 0.21506 0.0
C1181 C 0.75697 0.09538 0.21796 0.0
C1182 C 0.73737 0.03718 0.20696 0.0
C1183 C 0.77357 0.03339 0.20143 0.0
C1184 C 0.80129 0.06087 0.20414 0.0
C1185 C 0.7932 0.09136 0.21245 0.0
C1186 C 0.78345 1.00009 0.19324 0.0
C1187 C 0.79084 0.00542 0.17977 0.0
C1188 C 0.78738 0.96358 0.1988 0.0
C1189 C 0.77974 0.95625 0.21293 0.0
C1190 C 0.80085 0.97474 0.22279 0.0
C1191 C 0.79331 0.96777 0.2361 0.0
C1192 C 0.76493 0.9421 0.23967 0.0
C1193 C 0.74413 0.92327 0.22993 0.0
C1194 C 0.75153 0.93019 0.2166 0.0
C1195 C 0.8973 0.89465 0.16264 0.0
C1196 C 0.8872 0.85619 0.16226 0.0
C1197 C 0.87165 0.92176 0.167 0.0
C1198 C 0.8353 0.91106 0.17116 0.0
C1199 C 0.82447 0.87274 0.17028 0.0
C1200 C 0.85021 0.84544 0.16571 0.0
C1201 C 0.81105 0.93975 0.17773 0.0
C1202 C 0.80096 0.93378 0.19097 0.0
C1203 C 0.80407 0.97552 0.17187 0.0
C1204 C 0.81064 0.9821 0.15755 0.0
C1205 C 0.79649 0.95636 0.14814 0.0
C1206 C 0.80309 0.9622 0.1347 0.0
C1207 C 0.8236 0.99384 0.1305 0.0
C1208 C 0.83753 0.01973 0.13974 0.0
C1209 C 0.83111 0.01398 0.15321 0.0
H1210 H 0.82867 0.99831 0.12009 0.0
H1211 H 0.75915 0.93672 0.24998 0.0
H1212 H 0.63334 0.05933 0.96034 0.0
H1213 H 0.68839 0.07262 0.94653 0.0
H1214 H 0.76241 0.03787 0.97822 0.0
H1215 H 0.70715 0.02599 0.99225 0.0
H1216 H 0.79029 0.0972 0.96802 0.0
H1217 H 0.74533 0.98239 0.9491 0.0
H1218 H 0.6991 0.93784 0.93945 0.0
H1219 H 0.68013 0.01422 0.90714 0.0
H1220 H 0.72584 0.0595 0.91669 0.0
H1221 H 0.95049 0.11629 0.92715 0.0
H1222 H 0.90174 0.07993 0.93896 0.0
H1223 H 0.81538 0.13079 0.91461 0.0
H1224 H 0.86404 0.16698 0.90286 0.0
H1225 H 0.79848 0.05533 0.92142 0.0
H1226 H 0.84089 0.17196 0.94255 0.0
H1227 H 0.88982 0.21342 0.95229 0.0
H1228 H 0.91607 0.12803 0.98101 0.0
H1229 H 0.86792 0.08565 0.97126 0.0
C1230 C 0.66137 0.05424 0.96432 0.0
C1231 C 0.66592 0.04145 0.97736 0.0
C1232 C 0.6929 0.06163 0.95638 0.0
C1233 C 0.7298 0.05551 0.96117 0.0
C1234 C 0.73436 0.04274 0.97423 0.0
C1235 C 0.70278 0.03596 0.98225 0.0
C1236 C 0.76349 0.0641 0.95276 0.0
C1237 C 0.79231 0.08728 0.95793 0.0
C1238 C 0.76632 0.05166 0.93948 0.0
C1239 C 0.73882 0.02448 0.93368 0.0
C1240 C 0.7311 0.98982 0.93999 0.0
C1241 C 0.70502 0.96441 0.93453 0.0
C1242 C 0.68663 0.97323 0.92271 0.0
C1243 C 0.69437 0.00744 0.91631 0.0
C1244 C 0.7204 0.03297 0.92173 0.0
C1245 C 0.92126 0.11824 0.92395 0.0
C1246 C 0.91092 0.14381 0.91398 0.0
C1247 C 0.8934 0.09784 0.93078 0.0
C1248 C 0.85483 0.10302 0.92778 0.0
C1249 C 0.84489 0.12624 0.91708 0.0
C1250 C 0.87268 0.14674 0.91032 0.0
C1251 C 0.82469 0.08847 0.93671 0.0
C1252 C 0.79654 0.06449 0.9316 0.0
C1253 C 0.82269 0.09968 0.9501 0.0
C1254 C 0.85111 0.12549 0.95609 0.0
C1255 C 0.85727 0.16193 0.95089 0.0
C1256 C 0.88483 0.18561 0.95641 0.0
C1257 C 0.90603 0.17338 0.96725 0.0
C1258 C 0.89967 0.13745 0.9726 0.0
C1259 C 0.87228 0.11357 0.96707 0.0
H1260 H 0.92734 0.19177 0.97151 0.0
H1261 H 0.66645 0.95352 0.9185 0.0
H1262 H 0.68068 0.92944 0.72911 0.0
H1263 H 0.66934 0.98279 0.71434 0.0
H1264 H 0.78617 0.98108 0.70226 0.0
H1265 H 0.79762 0.92611 0.71652 0.0
H1266 H 0.73264 0.06053 0.71143 0.0
H1267 H 0.75833 0.95775 0.67977 0.0
H1268 H 0.75109 0.89151 0.67242 0.0
H1269 H 0.63012 0.90378 0.67245 0.0
H1270 H 0.63671 0.96994 0.68001 0.0
H1271 H 0.66468 0.19536 0.66364 0.0
H1272 H 0.70765 0.14671 0.6727 0.0
H1273 H 0.61414 0.06797 0.67484 0.0
H1274 H 0.57218 0.1154 0.66566 0.0
H1275 H 0.67361 0.03078 0.66821 0.0
H1276 H 0.64354 0.12551 0.70157 0.0
H1277 H 0.64359 0.19014 0.71082 0.0
H1278 H 0.76511 0.19279 0.70934 0.0
H1279 H 0.7657 0.12828 0.69993 0.0
C1280 C 0.70404 0.93997 0.72325 0.0
C1281 C 0.74 0.92283 0.72393 0.0
C1282 C 0.69753 0.97082 0.71491 0.0
C1283 C 0.72686 0.98573 0.70719 0.0
C1284 C 0.76317 0.96994 0.70817 0.0
C1285 C 0.76966 0.93861 0.71639 0.0
C1286 C 0.71832 0.01644 0.69765 0.0
C1287 C 0.72076 0.05427 0.7018 0.0
C1288 C 0.70202 0.00813 0.68526 0.0
C1289 C 0.69802 0.96859 0.68057 0.0
C1290 C 0.73021 0.94618 0.67833 0.0
C1291 C 0.72622 0.90869 0.6741 0.0
C1292 C 0.69016 0.89341 0.672 0.0
C1293 C 0.65803 0.91563 0.67409 0.0
C1294 C 0.66187 0.95313 0.67834 0.0
C1295 C 0.65376 0.16732 0.66575 0.0
C1296 C 0.61502 0.15931 0.6641 0.0
C1297 C 0.67817 0.13964 0.67103 0.0
C1298 C 0.66406 0.10371 0.67468 0.0
C1299 C 0.6259 0.09529 0.67216 0.0
C1300 C 0.6018 0.12263 0.66697 0.0
C1301 C 0.68723 0.07528 0.68201 0.0
C1302 C 0.68703 0.03756 0.67755 0.0
C1303 C 0.70501 0.08375 0.69422 0.0
C1304 C 0.70465 0.12237 0.6999 0.0
C1305 C 0.67024 0.14001 0.70314 0.0
C1306 C 0.67016 0.17658 0.70842 0.0
C1307 C 0.70433 0.19562 0.71063 0.0
C1308 C 0.73866 0.17806 0.70759 0.0
C1309 C 0.7389 0.1415 0.70229 0.0
H1310 H 0.70421 0.22393 0.71472 0.0
H1311 H 0.68713 0.86439 0.66872 0.0
H1312 H 0.70385 0.49388 0.98614 0.0
H1313 H 0.75793 0.47704 0.97224 0.0
H1314 H 0.68388 0.41208 0.94694 0.0
H1315 H 0.63011 0.428 0.96101 0.0
H1316 H 0.74404 0.37336 0.95137 0.0
H1317 H 0.72148 0.50187 0.93822 0.0
H1318 H 0.71246 0.57048 0.94149 0.0
H1319 H 0.82401 0.57948 0.95815 0.0
H1320 H 0.8335 0.5108 0.95514 0.0
H1321 H 0.86953 0.33939 0.9002 0.0
H1322 H 0.81789 0.37451 0.91068 0.0
H1323 H 0.89515 0.41437 0.94064 0.0
H1324 H 0.94683 0.37902 0.93014 0.0
H1325 H 0.83451 0.46789 0.93334 0.0
H1326 H 0.85489 0.33808 0.94685 0.0
H1327 H 0.86417 0.27024 0.94229 0.0
H1328 H 0.7544 0.26435 0.92411 0.0
H1329 H 0.74495 0.33262 0.9282 0.0
C1330 C 0.69917 0.47618 0.97756 0.0
C1331 C 0.66281 0.46216 0.97467 0.0
C1332 C 0.73005 0.4667 0.96959 0.0
C1333 C 0.725 0.44367 0.95841 0.0
C1334 C 0.6886 0.42982 0.95551 0.0
C1335 C 0.65788 0.43886 0.96356 0.0
C1336 C 0.75769 0.43282 0.94996 0.0
C1337 C 0.76337 0.39421 0.94728 0.0
C1338 C 0.78361 0.4598 0.94481 0.0
C1339 C 0.77805 0.50113 0.94657 0.0
C1340 C 0.74398 0.51843 0.94267 0.0
C1341 C 0.7388 0.55734 0.94446 0.0
C1342 C 0.76761 0.57931 0.95005 0.0
C1343 C 0.8017 0.56242 0.95383 0.0
C1344 C 0.80701 0.52351 0.95208 0.0
C1345 C 0.87572 0.35707 0.90867 0.0
C1346 C 0.91197 0.35704 0.91433 0.0
C1347 C 0.84626 0.37693 0.91469 0.0
C1348 C 0.85268 0.39668 0.9265 0.0
C1349 C 0.8897 0.39945 0.93149 0.0
C1350 C 0.91918 0.37941 0.92549 0.0
C1351 C 0.82017 0.40878 0.9347 0.0
C1352 C 0.81481 0.44734 0.93739 0.0
C1353 C 0.79429 0.38186 0.9398 0.0
C1354 C 0.79939 0.34056 0.9377 0.0
C1355 C 0.83284 0.3224 0.94179 0.0
C1356 C 0.83812 0.28385 0.9393 0.0
C1357 C 0.8099 0.26294 0.93292 0.0
C1358 C 0.77627 0.28058 0.92904 0.0
C1359 C 0.77095 0.31923 0.93142 0.0
H1360 H 0.81406 0.23308 0.93099 0.0
H1361 H 0.76354 0.60943 0.95143 0.0
H1362 H 0.80764 0.46454 0.24068 0.0
H1363 H 0.8373 0.51843 0.22973 0.0
H1364 H 0.83244 0.45917 0.19259 0.0
H1365 H 0.80483 0.40415 0.20361 0.0
H1366 H 0.89712 0.49543 0.19422 0.0
H1367 H 0.76742 0.52988 0.20117 0.0
H1368 H 0.70913 0.53983 0.21406 0.0
H1369 H 0.7666 0.62183 0.23817 0.0
H1370 H 0.8254 0.612 0.22553 0.0
H1371 H 0.92135 0.6592 0.15325 0.0
H1372 H 0.89566 0.60277 0.1641 0.0
H1373 H 0.90856 0.65683 0.20197 0.0
H1374 H 0.93377 0.71341 0.19124 0.0
H1375 H 0.84045 0.62286 0.19978 0.0
H1376 H 0.96982 0.59133 0.19003 0.0
H1377 H 0.02394 0.5832 0.175 0.0
H1378 H 0.96509 0.49395 0.1548 0.0
H1379 H 0.90954 0.50313 0.16911 0.0
C1380 C 0.81332 0.46259 0.23022 0.0
C1381 C 0.8035 0.42979 0.22307 0.0
C1382 C 0.82995 0.49375 0.22392 0.0
C1383 C 0.83659 0.49331 0.21025 0.0
C1384 C 0.82747 0.46042 0.20312 0.0
C1385 C 0.81118 0.42906 0.20943 0.0
C1386 C 0.85237 0.52731 0.20338 0.0
C1387 C 0.88446 0.52321 0.19531 0.0
C1388 C 0.83628 0.56379 0.20492 0.0
C1389 C 0.8009 0.56993 0.21249 0.0
C1390 C 0.76769 0.54985 0.20928 0.0
C1391 C 0.73455 0.55549 0.21653 0.0
C1392 C 0.73419 0.58137 0.22695 0.0
C1393 C 0.76694 0.60175 0.23011 0.0
C1394 C 0.80017 0.59618 0.2229 0.0
C1395 C 0.91878 0.65911 0.16389 0.0
C1396 C 0.92964 0.69099 0.17135 0.0
C1397 C 0.90416 0.62674 0.17009 0.0
C1398 C 0.90045 0.62536 0.18388 0.0
C1399 C 0.9111 0.65718 0.19133 0.0
C1400 C 0.92558 0.68955 0.18516 0.0
C1401 C 0.88517 0.59103 0.19061 0.0
C1402 C 0.85318 0.59509 0.19869 0.0
C1403 C 0.90114 0.55452 0.18891 0.0
C1404 C 0.9352 0.54823 0.18059 0.0
C1405 C 0.96817 0.57022 0.18231 0.0
C1406 C 0.99914 0.56543 0.17391 0.0
C1407 C 0.99809 0.53788 0.16404 0.0
C1408 C 0.9659 0.51526 0.16247 0.0
C1409 C 0.93454 0.52042 0.17066 0.0
H1410 H 0.02218 0.53413 0.15759 0.0
H1411 H 0.70851 0.5857 0.23256 0.0
H1412 H 0.79676 0.54363 0.49989 0.0
H1413 H 0.73832 0.56899 0.49003 0.0
H1414 H 0.79941 0.59542 0.45442 0.0
H1415 H 0.85749 0.57031 0.46411 0.0
H1416 H 0.75954 0.65706 0.46812 0.0
H1417 H 0.74161 0.52777 0.45263 0.0
H1418 H 0.73217 0.45927 0.45613 0.0
H1419 H 0.63183 0.48174 0.47865 0.0
H1420 H 0.64101 0.55047 0.47544 0.0
H1421 H 0.64259 0.70246 0.4133 0.0
H1422 H 0.68824 0.67719 0.42916 0.0
H1423 H 0.59751 0.65436 0.4565 0.0
H1424 H 0.55158 0.68075 0.44064 0.0
H1425 H 0.64392 0.59207 0.45221 0.0
H1426 H 0.64843 0.72415 0.46053 0.0
H1427 H 0.65752 0.79943 0.46247 0.0
H1428 H 0.80934 0.76606 0.45355 0.0
H1429 H 0.78029 0.69643 0.45183 0.0
C1430 C 0.79754 0.55451 0.48991 0.0
C1431 C 0.83176 0.55505 0.48278 0.0
C1432 C 0.76412 0.56868 0.48427 0.0
C1433 C 0.76459 0.5839 0.47149 0.0
C1434 C 0.79845 0.58353 0.46427 0.0
C1435 C 0.8316 0.56906 0.46981 0.0
C1436 C 0.73133 0.60404 0.46596 0.0
C1437 C 0.73465 0.64314 0.46413 0.0
C1438 C 0.69773 0.58553 0.46203 0.0
C1439 C 0.6923 0.54427 0.46395 0.0
C1440 C 0.71779 0.51814 0.45846 0.0
C1441 C 0.71242 0.47926 0.46036 0.0
C1442 C 0.68151 0.46617 0.46765 0.0
C1443 C 0.65582 0.49193 0.47303 0.0
C1444 C 0.66108 0.53084 0.47117 0.0
C1445 C 0.63252 0.69272 0.42281 0.0
C1446 C 0.59374 0.69362 0.42583 0.0
C1447 C 0.65859 0.67835 0.43185 0.0
C1448 C 0.64629 0.66399 0.44401 0.0
C1449 C 0.60753 0.66541 0.44717 0.0
C1450 C 0.58143 0.6807 0.43819 0.0
C1451 C 0.6739 0.64541 0.45293 0.0
C1452 C 0.66913 0.60658 0.45571 0.0
C1453 C 0.70697 0.66421 0.45739 0.0
C1454 C 0.71359 0.70565 0.45579 0.0
C1455 C 0.67646 0.73539 0.45882 0.0
C1456 C 0.68338 0.78328 0.46053 0.0
C1457 C 0.75247 0.80141 0.45801 0.0
C1458 C 0.77917 0.7626 0.45492 0.0
C1459 C 0.76016 0.7187 0.45387 0.0
H1460 H 0.73245 0.80196 0.45901 0.0
H1461 H 0.67739 0.43606 0.4691 0.0
H1462 H 0.69252 0.54793 0.74348 0.0
H1463 H 0.667 0.49474 0.73098 0.0
H1464 H 0.68818 0.55461 0.69463 0.0
H1465 H 0.71137 0.60905 0.70709 0.0
H1466 H 0.62332 0.52164 0.69275 0.0
H1467 H 0.74575 0.47925 0.70604 0.0
H1468 H 0.79812 0.46569 0.72145 0.0
H1469 H 0.72744 0.38737 0.74256 0.0
H1470 H 0.67445 0.40084 0.72739 0.0
H1471 H 0.59325 0.35617 0.65299 0.0
H1472 H 0.62164 0.41144 0.66375 0.0
H1473 H 0.59794 0.36248 0.70185 0.0
H1474 H 0.57017 0.30705 0.69121 0.0
H1475 H 0.66703 0.39064 0.70161 0.0
H1476 H 0.54458 0.43435 0.68719 0.0
H1477 H 0.49413 0.44843 0.67107 0.0
H1478 H 0.56858 0.52481 0.65071 0.0
H1479 H 0.61956 0.51078 0.66664 0.0
C1480 C 0.6914 0.55013 0.73283 0.0
C1481 C 0.70424 0.58305 0.72636 0.0
C1482 C 0.67723 0.51931 0.72566 0.0
C1483 C 0.67622 0.52017 0.7118 0.0
C1484 C 0.6888 0.55301 0.7053 0.0
C1485 C 0.70255 0.58405 0.71247 0.0
C1486 C 0.66157 0.48707 0.70412 0.0
C1487 C 0.63335 0.49307 0.69455 0.0
C1488 C 0.67419 0.4496 0.70652 0.0
C1489 C 0.70603 0.44132 0.71564 0.0
C1490 C 0.74129 0.45933 0.71403 0.0
C1491 C 0.7711 0.45163 0.72271 0.0
C1492 C 0.76608 0.42576 0.733 0.0
C1493 C 0.73127 0.40744 0.7346 0.0
C1494 C 0.70135 0.41507 0.72595 0.0
C1495 C 0.59398 0.35719 0.66366 0.0
C1496 C 0.57937 0.32703 0.67121 0.0
C1497 C 0.61014 0.38893 0.66981 0.0
C1498 C 0.61162 0.39145 0.68365 0.0
C1499 C 0.59719 0.36131 0.69117 0.0
C1500 C 0.58122 0.32956 0.68505 0.0
C1501 C 0.62841 0.42514 0.69038 0.0
C1502 C 0.65713 0.41924 0.69976 0.0
C1503 C 0.6166 0.46272 0.68766 0.0
C1504 C 0.58594 0.47123 0.67807 0.0
C1505 C 0.55019 0.45397 0.67924 0.0
C1506 C 0.52152 0.46195 0.67014 0.0
C1507 C 0.52816 0.48744 0.65985 0.0
C1508 C 0.56348 0.50504 0.65867 0.0
C1509 C 0.59226 0.49708 0.66775 0.0
H1510 H 0.50593 0.49359 0.65281 0.0
H1511 H 0.7892 0.41983 0.73971 0.0
H1512 H 0.64921 0.52627 0.06125 0.0
H1513 H 0.69717 0.54816 0.07694 0.0
H1514 H 0.71481 0.64871 0.05356 0.0
H1515 H 0.66746 0.62677 0.03769 0.0
H1516 H 0.77192 0.56381 0.07393 0.0
H1517 H 0.73201 0.72264 0.07392 0.0
H1518 H 0.67534 0.7627 0.07124 0.0
H1519 H 0.60477 0.67132 0.08469 0.0
H1520 H 0.66104 0.63086 0.08757 0.0
H1521 H 0.92202 0.6791 0.09474 0.0
H1522 H 0.86898 0.64878 0.08381 0.0
H1523 H 0.7976 0.67293 0.11722 0.0
H1524 H 0.85085 0.70491 0.12821 0.0
H1525 H 0.76221 0.69007 0.09514 0.0
H1526 H 0.8296 0.58082 0.11027 0.0
H1527 H 0.88569 0.54039 0.11361 0.0
H1528 H 0.89929 0.53003 0.07169 0.0
H1529 H 0.84361 0.57081 0.0681 0.0
C1530 C 0.66364 0.5528 0.05933 0.0
C1531 C 0.65438 0.57477 0.04819 0.0
C1532 C 0.69087 0.56538 0.06837 0.0
C1533 C 0.70918 0.6003 0.06652 0.0
C1534 C 0.70049 0.62201 0.05532 0.0
C1535 C 0.67338 0.60942 0.04626 0.0
C1536 C 0.73782 0.61385 0.07618 0.0
C1537 C 0.76975 0.59133 0.07862 0.0
C1538 C 0.73467 0.64946 0.08249 0.0
C1539 C 0.7007 0.67365 0.08085 0.0
C1540 C 0.70441 0.71116 0.07635 0.0
C1541 C 0.67235 0.73391 0.07478 0.0
C1542 C 0.63647 0.71953 0.07776 0.0
C1543 C 0.63256 0.68238 0.08234 0.0
C1544 C 0.66451 0.65949 0.08391 0.0
C1545 C 0.89529 0.67758 0.09994 0.0
C1546 C 0.89087 0.69425 0.11245 0.0
C1547 C 0.86491 0.65999 0.09364 0.0
C1548 C 0.82942 0.65782 0.09977 0.0
C1549 C 0.82482 0.67402 0.11234 0.0
C1550 C 0.85526 0.69223 0.11861 0.0
C1551 C 0.79694 0.64049 0.09262 0.0
C1552 C 0.76427 0.66234 0.0906 0.0
C1553 C 0.79933 0.60411 0.08678 0.0
C1554 C 0.83248 0.57901 0.08892 0.0
C1555 C 0.84464 0.57005 0.10176 0.0
C1556 C 0.87636 0.54706 0.1037 0.0
C1557 C 0.89605 0.53268 0.09287 0.0
C1558 C 0.884 0.54116 0.08008 0.0
C1559 C 0.85231 0.56416 0.07808 0.0
H1560 H 0.92064 0.51493 0.09439 0.0
H1561 H 0.61169 0.73719 0.07655 0.0
H1562 H 0.73149 0.44905 0.29782 0.0
H1563 H 0.71233 0.50634 0.30952 0.0
H1564 H 0.60393 0.50337 0.28991 0.0
H1565 H 0.62262 0.44563 0.27829 0.0
H1566 H 0.63255 0.57627 0.29142 0.0
H1567 H 0.6098 0.47233 0.32072 0.0
H1568 H 0.62565 0.41423 0.33305 0.0
H1569 H 0.71384 0.4737 0.35369 0.0
H1570 H 0.69885 0.53206 0.34134 0.0
H1571 H 0.53383 0.6943 0.33798 0.0
H1572 H 0.55803 0.64969 0.3216 0.0
H1573 H 0.6616 0.63866 0.34396 0.0
H1574 H 0.63685 0.68221 0.36051 0.0
H1575 H 0.63447 0.57292 0.34029 0.0
H1576 H 0.6552 0.67846 0.31109 0.0
H1577 H 0.63746 0.73612 0.29882 0.0
H1578 H 0.55091 0.67412 0.27823 0.0
H1579 H 0.56781 0.61617 0.29051 0.0
C1580 C 0.70348 0.46038 0.29603 0.0
C1581 C 0.67852 0.44238 0.28718 0.0
C1582 C 0.69264 0.49331 0.30268 0.0
C1583 C 0.65654 0.50901 0.30069 0.0
C1584 C 0.63196 0.49186 0.29158 0.0
C1585 C 0.64276 0.45884 0.28492 0.0
C1586 C 0.644 0.54224 0.30859 0.0
C1587 C 0.63259 0.57552 0.30211 0.0
C1588 C 0.64444 0.54144 0.32253 0.0
C1589 C 0.65347 0.50644 0.33 0.0
C1590 C 0.63278 0.47293 0.32781 0.0
C1591 C 0.64157 0.43997 0.33481 0.0
C1592 C 0.67081 0.44024 0.34412 0.0
C1593 C 0.69125 0.47352 0.34646 0.0
C1594 C 0.6826 0.50655 0.33947 0.0
C1595 C 0.56231 0.68344 0.33911 0.0
C1596 C 0.58349 0.69173 0.3505 0.0
C1597 C 0.57617 0.65775 0.32975 0.0
C1598 C 0.61167 0.64035 0.33154 0.0
C1599 C 0.634 0.65123 0.34239 0.0
C1600 C 0.61997 0.67639 0.3518 0.0
C1601 C 0.62373 0.60768 0.32319 0.0
C1602 C 0.63474 0.57412 0.3296 0.0
C1603 C 0.62266 0.60832 0.30922 0.0
C1604 C 0.6126 0.64306 0.30178 0.0
C1605 C 0.63222 0.67718 0.304 0.0
C1606 C 0.62235 0.70991 0.29704 0.0
C1607 C 0.59303 0.7088 0.28777 0.0
C1608 C 0.57359 0.67494 0.28542 0.0
C1609 C 0.58335 0.64213 0.29236 0.0
H1610 H 0.58542 0.73417 0.28239 0.0
H1611 H 0.67757 0.4147 0.34954 0.0
H1612 H 0.81392 0.46461 0.53988 0.0
H1613 H 0.76481 0.44048 0.55487 0.0
H1614 H 0.85123 0.39822 0.58108 0.0
H1615 H 0.90039 0.4231 0.5663 0.0
H1616 H 0.78701 0.34516 0.57389 0.0
H1617 H 0.81406 0.47014 0.59119 0.0
H1618 H 0.82224 0.53934 0.58944 0.0
H1619 H 0.70744 0.55052 0.57596 0.0
H1620 H 0.69877 0.48126 0.57743 0.0
H1621 H 0.66376 0.29309 0.62516 0.0
H1622 H 0.71761 0.32492 0.61476 0.0
H1623 H 0.64113 0.39219 0.59129 0.0
H1624 H 0.58728 0.36142 0.60178 0.0
H1625 H 0.70317 0.4334 0.5983 0.0
H1626 H 0.67804 0.31453 0.57641 0.0
H1627 H 0.66239 0.24642 0.57758 0.0
H1628 H 0.76603 0.22535 0.59854 0.0
H1629 H 0.78254 0.29328 0.59727 0.0
C1630 C 0.82234 0.45008 0.54883 0.0
C1631 C 0.86086 0.44579 0.55198 0.0
C1632 C 0.79437 0.43643 0.55738 0.0
C1633 C 0.80448 0.41768 0.56908 0.0
C1634 C 0.84291 0.41264 0.5721 0.0
C1635 C 0.87088 0.42697 0.5637 0.0
C1636 C 0.77485 0.40366 0.57821 0.0
C1637 C 0.76918 0.36445 0.57941 0.0
C1638 C 0.75083 0.42883 0.5851 0.0
C1639 C 0.7559 0.47048 0.58429 0.0
C1640 C 0.79067 0.48731 0.58773 0.0
C1641 C 0.79538 0.52656 0.58681 0.0
C1642 C 0.76541 0.54931 0.58256 0.0
C1643 C 0.73064 0.53286 0.57924 0.0
C1644 C 0.72581 0.49361 0.58012 0.0
C1645 C 0.65831 0.31512 0.61796 0.0
C1646 C 0.62105 0.32412 0.61417 0.0
C1647 C 0.68917 0.33324 0.61199 0.0
C1648 C 0.68339 0.36047 0.60206 0.0
C1649 C 0.64631 0.37122 0.59889 0.0
C1650 C 0.6155 0.35328 0.60486 0.0
C1651 C 0.71557 0.37496 0.59406 0.0
C1652 C 0.72147 0.41416 0.59295 0.0
C1653 C 0.73934 0.34994 0.58701 0.0
C1654 C 0.73152 0.30878 0.58673 0.0
C1655 C 0.69767 0.29522 0.58112 0.0
C1656 C 0.68864 0.25672 0.5818 0.0
C1657 C 0.71325 0.23159 0.58808 0.0
C1658 C 0.74715 0.24481 0.59357 0.0
C1659 C 0.7565 0.28326 0.5928 0.0
H1660 H 0.70594 0.20193 0.5887 0.0
H1661 H 0.7691 0.57969 0.58186 0.0
H1662 H 0.75326 0.55755 0.80053 0.0
H1663 H 0.77383 0.50352 0.81392 0.0
H1664 H 0.88907 0.54443 0.81227 0.0
H1665 H 0.86872 0.59721 0.79837 0.0
H1666 H 0.89217 0.47471 0.80945 0.0
H1667 H 0.82855 0.55202 0.84073 0.0
H1668 H 0.77634 0.58952 0.85014 0.0
H1669 H 0.70565 0.49042 0.85107 0.0
H1670 H 0.7573 0.45241 0.84149 0.0
H1671 H 0.91778 0.36807 0.87572 0.0
H1672 H 0.88633 0.41957 0.86378 0.0
H1673 H 0.88608 0.35183 0.82836 0.0
H1674 H 0.91948 0.30134 0.84008 0.0
H1675 H 0.82633 0.43644 0.85055 0.0
H1676 H 0.90625 0.40427 0.80171 0.0
H1677 H 0.9651 0.3728 0.7946 0.0
H1678 H 0.01498 0.3937 0.83255 0.0
H1679 H 0.95698 0.42624 0.83976 0.0
C1680 C 0.78295 0.55489 0.80305 0.0
C1681 C 0.80942 0.58148 0.79839 0.0
C1682 C 0.79471 0.52414 0.81079 0.0
C1683 C 0.83304 0.51994 0.81434 0.0
C1684 C 0.85939 0.54671 0.80968 0.0
C1685 C 0.84777 0.57694 0.80173 0.0
C1686 C 0.84602 0.48732 0.82261 0.0
C1687 C 0.87764 0.46646 0.81842 0.0
C1688 C 0.82783 0.47672 0.83453 0.0
C1689 C 0.79667 0.49946 0.84027 0.0
C1690 C 0.80177 0.53829 0.84285 0.0
C1691 C 0.7723 0.55963 0.84823 0.0
C1692 C 0.73767 0.54239 0.85117 0.0
C1693 C 0.73248 0.50375 0.84876 0.0
C1694 C 0.76185 0.48228 0.84337 0.0
C1695 C 0.91018 0.36388 0.86547 0.0
C1696 C 0.92137 0.3309 0.85878 0.0
C1697 C 0.89225 0.39338 0.85863 0.0
C1698 C 0.88476 0.39015 0.84504 0.0
C1699 C 0.89259 0.35559 0.83872 0.0
C1700 C 0.91137 0.32658 0.84545 0.0
C1701 C 0.87204 0.42374 0.83725 0.0
C1702 C 0.84062 0.44472 0.84153 0.0
C1703 C 0.89142 0.43558 0.82571 0.0
C1704 C 0.92705 0.41731 0.82131 0.0
C1705 C 0.92991 0.40243 0.80849 0.0
C1706 C 0.96315 0.38444 0.80445 0.0
C1707 C 0.99377 0.38122 0.81312 0.0
C1708 C 0.99132 0.39626 0.82583 0.0
C1709 C 0.95828 0.41453 0.8299 0.0
H1710 H 0.01937 0.36708 0.80998 0.0
H1711 H 0.71489 0.55896 0.85533 0.0
H1712 H 0.34824 0.53576 0.06272 0.0
H1713 H 0.3018 0.55996 0.07848 0.0
H1714 H 0.26665 0.64431 0.05022 0.0
H1715 H 0.31233 0.61966 0.0343 0.0
H1716 H 0.29378 0.62895 0.09007 0.0
H1717 H 0.17168 0.65731 0.05319 0.0
H1718 H 0.14723 0.63222 0.03212 0.0
H1719 H 0.1966 0.52382 0.0406 0.0
H1720 H 0.22085 0.54809 0.0618 0.0
H1721 H 0.14872 0.7469 0.1178 0.0
H1722 H 0.20052 0.71692 0.10567 0.0
H1723 H 0.13221 0.61642 0.10049 0.0
H1724 H 0.08009 0.64681 0.11216 0.0
H1725 H 0.15779 0.63668 0.07806 0.0
H1726 H 0.21429 0.62023 0.12082 0.0
H1727 H 0.23724 0.64106 0.14264 0.0
H1728 H 0.31679 0.71621 0.12411 0.0
H1729 H 0.29396 0.69621 0.10218 0.0
C1730 C 0.33025 0.55913 0.05979 0.0
C1731 C 0.33376 0.5756 0.04721 0.0
C1732 C 0.30407 0.57321 0.06887 0.0
C1733 C 0.28068 0.60383 0.06551 0.0
C1734 C 0.28421 0.62045 0.05299 0.0
C1735 C 0.31044 0.60645 0.04392 0.0
C1736 C 0.25206 0.61797 0.07501 0.0
C1737 C 0.26401 0.6306 0.08748 0.0
C1738 C 0.21319 0.61964 0.0717 0.0
C1739 C 0.19843 0.60467 0.05901 0.0
C1740 C 0.17721 0.62809 0.05058 0.0
C1741 C 0.16339 0.61402 0.03861 0.0
C1742 C 0.17047 0.57649 0.035 0.0
C1743 C 0.19127 0.55292 0.04338 0.0
C1744 C 0.20509 0.56684 0.05536 0.0
C1745 C 0.14524 0.71801 0.11439 0.0
C1746 C 0.11042 0.69916 0.11588 0.0
C1747 C 0.17486 0.70087 0.10745 0.0
C1748 C 0.17032 0.66435 0.10212 0.0
C1749 C 0.1363 0.64473 0.10437 0.0
C1750 C 0.10659 0.66202 0.1111 0.0
C1751 C 0.19931 0.64776 0.09322 0.0
C1752 C 0.18749 0.63492 0.08075 0.0
C1753 C 0.2381 0.64523 0.09668 0.0
C1754 C 0.25221 0.65691 0.10986 0.0
C1755 C 0.23653 0.64135 0.1214 0.0
C1756 C 0.24953 0.65299 0.13379 0.0
C1757 C 0.2784 0.67999 0.13476 0.0
C1758 C 0.29441 0.69531 0.12334 0.0
C1759 C 0.28149 0.6838 0.11093 0.0
H1760 H 0.2884 0.68899 0.14436 0.0
H1761 H 0.15977 0.56566 0.02573 0.0
H1762 H 0.13626 0.60296 0.79292 0.0
H1763 H 0.11209 0.55558 0.80848 0.0
H1764 H 0.22575 0.51544 0.81521 0.0
H1765 H 0.25019 0.56315 0.79974 0.0
H1766 H 0.16883 0.45727 0.81037 0.0
H1767 H 0.19095 0.56683 0.83774 0.0
H1768 H 0.18472 0.63417 0.84378 0.0
H1769 H 0.06391 0.62167 0.84601 0.0
H1770 H 0.06938 0.55435 0.83978 0.0
H1771 H 0.12239 0.33343 0.86176 0.0
H1772 H 0.15364 0.38464 0.84968 0.0
H1773 H 0.0499 0.44916 0.85034 0.0
H1774 H 0.01937 0.39883 0.86313 0.0
H1775 H 0.10466 0.49595 0.85172 0.0
H1776 H 0.07877 0.3913 0.82304 0.0
H1777 H 0.08012 0.32471 0.81566 0.0
H1778 H 0.20158 0.32857 0.81403 0.0
H1779 H 0.20085 0.39502 0.8216 0.0
C1780 C 0.15604 0.58379 0.79763 0.0
C1781 C 0.19508 0.58661 0.79512 0.0
C1782 C 0.14224 0.55698 0.80657 0.0
C1783 C 0.16719 0.53226 0.81305 0.0
C1784 C 0.20609 0.53439 0.81033 0.0
C1785 C 0.21999 0.56162 0.80154 0.0
C1786 C 0.15253 0.50414 0.82263 0.0
C1787 C 0.15534 0.4656 0.81953 0.0
C1788 C 0.13388 0.51524 0.83433 0.0
C1789 C 0.13056 0.55564 0.83817 0.0
C1790 C 0.16303 0.57852 0.83941 0.0
C1791 C 0.15965 0.61667 0.84289 0.0
C1792 C 0.12394 0.63221 0.84525 0.0
C1793 C 0.09155 0.6096 0.84417 0.0
C1794 C 0.09478 0.57144 0.84067 0.0
C1795 C 0.10661 0.35897 0.85957 0.0
C1796 C 0.06853 0.36225 0.86335 0.0
C1797 C 0.12432 0.38807 0.85255 0.0
C1798 C 0.10384 0.42035 0.84869 0.0
C1799 C 0.06636 0.42454 0.85312 0.0
C1800 C 0.04892 0.39582 0.86046 0.0
C1801 C 0.12078 0.4487 0.83951 0.0
C1802 C 0.11834 0.48739 0.84263 0.0
C1803 C 0.13909 0.43778 0.82765 0.0
C1804 C 0.13971 0.39793 0.82303 0.0
C1805 C 0.10572 0.3778 0.8212 0.0
C1806 C 0.10638 0.34013 0.81697 0.0
C1807 C 0.14093 0.32239 0.81441 0.0
C1808 C 0.17485 0.34233 0.81604 0.0
C1809 C 0.17432 0.38 0.82029 0.0
H1810 H 0.14141 0.29321 0.81114 0.0
H1811 H 0.12137 0.66176 0.84794 0.0
H1812 H 0.20778 0.50638 0.54999 0.0
H1813 H 0.25453 0.47794 0.56489 0.0
H1814 H 0.21024 0.36683 0.55606 0.0
H1815 H 0.1634 0.3951 0.54118 0.0
H1816 H 0.21984 0.38035 0.58323 0.0
H1817 H 0.29097 0.39107 0.54299 0.0
H1818 H 0.31709 0.42451 0.52367 0.0
H1819 H 0.37766 0.50049 0.54921 0.0
H1820 H 0.35145 0.46781 0.5687 0.0
H1821 H 0.36696 0.27022 0.61216 0.0
H1822 H 0.31721 0.29948 0.59887 0.0
H1823 H 0.37732 0.40617 0.60017 0.0
H1824 H 0.42835 0.37601 0.6127 0.0
H1825 H 0.35826 0.39505 0.57674 0.0
H1826 H 0.28761 0.38604 0.61711 0.0
H1827 H 0.26107 0.3541 0.63668 0.0
H1828 H 0.19927 0.27757 0.61171 0.0
H1829 H 0.22576 0.30878 0.59198 0.0
C1830 C 0.20818 0.47589 0.55119 0.0
C1831 C 0.18211 0.45293 0.54438 0.0
C1832 C 0.2349 0.45968 0.55966 0.0
C1833 C 0.23584 0.42028 0.56155 0.0
C1834 C 0.20995 0.39729 0.55473 0.0
C1835 C 0.1835 0.41344 0.54615 0.0
C1836 C 0.2636 0.40311 0.57076 0.0
C1837 C 0.25015 0.38317 0.58178 0.0
C1838 C 0.30303 0.40765 0.569 0.0
C1839 C 0.31894 0.42723 0.5573 0.0
C1840 C 0.3096 0.41511 0.54448 0.0
C1841 C 0.32447 0.43389 0.5335 0.0
C1842 C 0.34893 0.46467 0.53521 0.0
C1843 C 0.35866 0.47668 0.5479 0.0
C1844 C 0.34384 0.45802 0.55892 0.0
C1845 C 0.36898 0.30015 0.60987 0.0
C1846 C 0.40121 0.32103 0.61352 0.0
C1847 C 0.34048 0.31696 0.60228 0.0
C1848 C 0.34308 0.35531 0.59858 0.0
C1849 C 0.37459 0.37655 0.60282 0.0
C1850 C 0.40359 0.35945 0.61006 0.0
C1851 C 0.31472 0.37255 0.58947 0.0
C1852 C 0.32801 0.39239 0.57836 0.0
C1853 C 0.27512 0.36822 0.59124 0.0
C1854 C 0.25889 0.34959 0.60308 0.0
C1855 C 0.26851 0.36227 0.6158 0.0
C1856 C 0.25346 0.34431 0.62691 0.0
C1857 C 0.22856 0.31378 0.62543 0.0
C1858 C 0.21857 0.30121 0.61283 0.0
C1859 C 0.23355 0.31906 0.60168 0.0
H1860 H 0.21696 0.2999 0.63405 0.0
H1861 H 0.36042 0.47917 0.5267 0.0
H1862 H 0.27773 0.44511 0.30943 0.0
H1863 H 0.29916 0.49829 0.32272 0.0
H1864 H 0.39126 0.51775 0.29564 0.0
H1865 H 0.37204 0.46246 0.28292 0.0
H1866 H 0.41768 0.52529 0.31842 0.0
H1867 H 0.30742 0.57648 0.29803 0.0
H1868 H 0.24046 0.57951 0.29118 0.0
H1869 H 0.2058 0.58019 0.33174 0.0
H1870 H 0.27256 0.57664 0.33885 0.0
H1871 H 0.46408 0.70707 0.34422 0.0
H1872 H 0.43211 0.6634 0.32897 0.0
H1873 H 0.37495 0.61059 0.36174 0.0
H1874 H 0.40825 0.65326 0.37705 0.0
H1875 H 0.33029 0.62355 0.33548 0.0
H1876 H 0.44436 0.57045 0.3549 0.0
H1877 H 0.51229 0.57041 0.36049 0.0
H1878 H 0.54067 0.57645 0.31939 0.0
H1879 H 0.47279 0.57804 0.31356 0.0
C1880 C 0.30286 0.46025 0.30633 0.0
C1881 C 0.3231 0.44894 0.29503 0.0
C1882 C 0.31473 0.49133 0.31386 0.0
C1883 C 0.34656 0.51278 0.31013 0.0
C1884 C 0.36653 0.50193 0.29877 0.0
C1885 C 0.35513 0.47039 0.29136 0.0
C1886 C 0.36002 0.54536 0.31837 0.0
C1887 C 0.39851 0.54704 0.32191 0.0
C1888 C 0.3352 0.57377 0.32319 0.0
C1889 C 0.295 0.57595 0.31897 0.0
C1890 C 0.28551 0.577 0.30549 0.0
C1891 C 0.24759 0.57885 0.30156 0.0
C1892 C 0.21889 0.57995 0.31102 0.0
C1893 C 0.22806 0.57929 0.32443 0.0
C1894 C 0.26594 0.5774 0.32841 0.0
C1895 C 0.44357 0.68709 0.34809 0.0
C1896 C 0.43794 0.68391 0.36175 0.0
C1897 C 0.42557 0.662 0.3394 0.0
C1898 C 0.40125 0.63373 0.34424 0.0
C1899 C 0.39341 0.63238 0.35781 0.0
C1900 C 0.41218 0.65687 0.36653 0.0
C1901 C 0.38754 0.60306 0.33539 0.0
C1902 C 0.3492 0.60181 0.33181 0.0
C1903 C 0.41258 0.57546 0.3303 0.0
C1904 C 0.45343 0.57505 0.33381 0.0
C1905 C 0.46503 0.57252 0.34706 0.0
C1906 C 0.50354 0.57214 0.35027 0.0
C1907 C 0.53076 0.57361 0.34031 0.0
C1908 C 0.51954 0.5755 0.3271 0.0
C1909 C 0.48105 0.57629 0.32384 0.0
H1910 H 0.56052 0.57312 0.34284 0.0
H1911 H 0.18955 0.58139 0.30796 0.0
H1912 H 0.35159 0.38054 0.97609 0.0
H1913 H 0.2981 0.35409 0.96404 0.0
H1914 H 0.24315 0.46313 0.96447 0.0
H1915 H 0.295 0.48904 0.97753 0.0
H1916 H 0.19287 0.4141 0.96847 0.0
H1917 H 0.29053 0.42426 0.93615 0.0
H1918 H 0.35403 0.41493 0.92661 0.0
H1919 H 0.3382 0.29439 0.92775 0.0
H1920 H 0.27478 0.3029 0.9375 0.0
H1921 H 0.0995 0.33829 0.90363 0.0
H1922 H 0.1547 0.36457 0.91513 0.0
H1923 H 0.11569 0.31506 0.95159 0.0
H1924 H 0.0601 0.28976 0.94028 0.0
H1925 H 0.2128 0.33739 0.9281 0.0
H1926 H 0.13603 0.37132 0.97727 0.0
H1927 H 0.07198 0.38808 0.98498 0.0
H1928 H 0.04544 0.43416 0.94687 0.0
H1929 H 0.10948 0.4182 0.939 0.0
C1930 C 0.32791 0.39889 0.97387 0.0
C1931 C 0.32797 0.43714 0.97786 0.0
C1932 C 0.29748 0.38377 0.96673 0.0
C1933 C 0.26673 0.40669 0.96306 0.0
C1934 C 0.26654 0.44477 0.96709 0.0
C1935 C 0.2966 0.45974 0.97445 0.0
C1936 C 0.23448 0.39095 0.95522 0.0
C1937 C 0.19737 0.39737 0.95964 0.0
C1938 C 0.23997 0.36961 0.94352 0.0
C1939 C 0.27803 0.36425 0.93765 0.0
C1940 C 0.30069 0.39575 0.93445 0.0
C1941 C 0.33665 0.39059 0.92901 0.0
C1942 C 0.35016 0.35407 0.92662 0.0
C1943 C 0.32769 0.32262 0.92965 0.0
C1944 C 0.29172 0.32759 0.93512 0.0
C1945 C 0.10273 0.33298 0.9141 0.0
C1946 C 0.07505 0.31247 0.92108 0.0
C1947 C 0.13438 0.34792 0.92066 0.0
C1948 C 0.13908 0.34244 0.9343 0.0
C1949 C 0.11227 0.32056 0.94114 0.0
C1950 C 0.08047 0.30605 0.93465 0.0
C1951 C 0.17141 0.3603 0.94145 0.0
C1952 C 0.20845 0.35416 0.93693 0.0
C1953 C 0.16584 0.38296 0.95281 0.0
C1954 C 0.12743 0.3932 0.95752 0.0
C1955 C 0.11657 0.38518 0.97056 0.0
C1956 C 0.08026 0.39452 0.97495 0.0
C1957 C 0.05462 0.41206 0.96641 0.0
C1958 C 0.06528 0.42045 0.95347 0.0
C1959 C 0.10157 0.41124 0.94903 0.0
H1960 H 0.02651 0.41922 0.96982 0.0
H1961 H 0.378 0.35013 0.9224 0.0
H1962 H 0.322 0.61325 0.70486 0.0
H1963 H 0.34985 0.5591 0.69342 0.0
H1964 H 0.33044 0.48916 0.72768 0.0
H1965 H 0.30323 0.54345 0.73924 0.0
H1966 H 0.39836 0.47704 0.71882 0.0
H1967 H 0.27534 0.48266 0.69889 0.0
H1968 H 0.22173 0.51237 0.68723 0.0
H1969 H 0.2931 0.53518 0.65391 0.0
H1970 H 0.34731 0.50606 0.66545 0.0
H1971 H 0.43305 0.29889 0.68967 0.0
H1972 H 0.40402 0.35357 0.7002 0.0
H1973 H 0.42568 0.42083 0.66546 0.0
H1974 H 0.45382 0.36563 0.65465 0.0
H1975 H 0.35756 0.43521 0.67431 0.0
H1976 H 0.48014 0.4262 0.69461 0.0
H1977 H 0.53249 0.39517 0.70664 0.0
H1978 H 0.45957 0.37692 0.73986 0.0
H1979 H 0.40677 0.40736 0.72797 0.0
C1980 C 0.32329 0.58621 0.7099 0.0
C1981 C 0.31036 0.5826 0.72295 0.0
C1982 C 0.33919 0.55523 0.70334 0.0
C1983 C 0.3419 0.51982 0.70961 0.0
C1984 C 0.32876 0.51615 0.72263 0.0
C1985 C 0.31323 0.5472 0.72923 0.0
C1986 C 0.35946 0.48687 0.7028 0.0
C1987 C 0.38905 0.46758 0.70916 0.0
C1988 C 0.34804 0.47501 0.69005 0.0
C1989 C 0.31548 0.49253 0.68309 0.0
C1990 C 0.27968 0.49429 0.68912 0.0
C1991 C 0.24917 0.51097 0.68252 0.0
C1992 C 0.25403 0.52575 0.66985 0.0
C1993 C 0.2894 0.52378 0.66373 0.0
C1994 C 0.32002 0.50716 0.67029 0.0
C1995 C 0.43183 0.32533 0.68425 0.0
C1996 C 0.44598 0.32789 0.67132 0.0
C1997 C 0.41532 0.35669 0.69033 0.0
C1998 C 0.41329 0.39165 0.68375 0.0
C1999 C 0.42705 0.39423 0.67078 0.0
C2000 C 0.4432 0.36267 0.66461 0.0
C2001 C 0.39635 0.42526 0.69036 0.0
C2002 C 0.36691 0.44471 0.68396 0.0
C2003 C 0.40769 0.43706 0.70314 0.0
C2004 C 0.43948 0.41884 0.71034 0.0
C2005 C 0.4753 0.41538 0.70444 0.0
C2006 C 0.50502 0.39792 0.71124 0.0
C2007 C 0.49934 0.38404 0.72398 0.0
C2008 C 0.46394 0.38766 0.72998 0.0
C2009 C 0.43412 0.40505 0.72322 0.0
H2010 H 0.52239 0.37053 0.72922 0.0
H2011 H 0.23037 0.53865 0.66476 0.0
H2012 H 0.16586 0.63113 0.47575 0.0
H2013 H 0.21974 0.65284 0.46249 0.0
H2014 H 0.24906 0.5369 0.45403 0.0
H2015 H 0.19507 0.51502 0.46722 0.0
H2016 H 0.31164 0.58207 0.46152 0.0
H2017 H 0.20697 0.5856 0.43176 0.0
H2018 H 0.14341 0.60316 0.42384 0.0
H2019 H 0.17512 0.72064 0.42403 0.0
H2020 H 0.23874 0.70389 0.4321 0.0
H2021 H 0.44746 0.62252 0.41135 0.0
H2022 H 0.39275 0.5971 0.42333 0.0
H2023 H 0.35004 0.7104 0.42878 0.0
H2024 H 0.40391 0.73586 0.41668 0.0
H2025 H 0.29376 0.66434 0.42233 0.0
H2026 H 0.39565 0.66239 0.45347 0.0
H2027 H 0.45914 0.64641 0.46192 0.0
H2028 H 0.43276 0.52787 0.45917 0.0
H2029 H 0.36921 0.54316 0.45054 0.0
C2030 C 0.18387 0.61027 0.47111 0.0
C2031 C 0.17613 0.57134 0.47252 0.0
C2032 C 0.21454 0.62272 0.46348 0.0
C2033 C 0.23835 0.59651 0.4572 0.0
C2034 C 0.23105 0.55763 0.45876 0.0
C2035 C 0.20006 0.54517 0.46623 0.0
C2036 C 0.27083 0.60968 0.44901 0.0
C2037 C 0.3077 0.59958 0.45283 0.0
C2038 C 0.26575 0.63329 0.43784 0.0
C2039 C 0.22748 0.64351 0.43288 0.0
C2040 C 0.20027 0.61524 0.43031 0.0
C2041 C 0.16424 0.62504 0.42573 0.0
C2042 C 0.15514 0.66302 0.42352 0.0
C2043 C 0.18213 0.69125 0.42582 0.0
C2044 C 0.2182 0.6816 0.43041 0.0
C2045 C 0.42636 0.64201 0.41505 0.0
C2046 C 0.43028 0.68126 0.41303 0.0
C2047 C 0.39512 0.62745 0.42195 0.0
C2048 C 0.36732 0.65183 0.42709 0.0
C2049 C 0.37093 0.69093 0.4249 0.0
C2050 C 0.40194 0.70546 0.41798 0.0
C2051 C 0.33465 0.63687 0.43485 0.0
C2052 C 0.29771 0.64669 0.43098 0.0
C2053 C 0.33964 0.6132 0.44601 0.0
C2054 C 0.37779 0.60392 0.45123 0.0
C2055 C 0.40346 0.63292 0.45459 0.0
C2056 C 0.43945 0.62398 0.45942 0.0
C2057 C 0.45001 0.58614 0.46105 0.0
C2058 C 0.42456 0.55716 0.45788 0.0
C2059 C 0.38854 0.56595 0.45303 0.0
H2060 H 0.4779 0.57928 0.46479 0.0
H2061 H 0.12723 0.67055 0.41996 0.0
H2062 H 0.14454 0.44675 0.24077 0.0
H2063 H 0.11544 0.50027 0.22957 0.0
H2064 H 0.20788 0.50313 0.2018 0.0
H2065 H 0.23903 0.45226 0.21372 0.0
H2066 H 0.19185 0.5699 0.2064 0.0
H2067 H 0.11439 0.46408 0.19547 0.0
H2068 H 0.07328 0.40823 0.1985 0.0
H2069 H 0.99173 0.47658 0.21886 0.0
H2070 H 0.03268 0.53273 0.21618 0.0
H2071 H 0.09406 0.67595 0.15686 0.0
H2072 H 0.12151 0.62195 0.16873 0.0
H2073 H 0.05204 0.64726 0.2025 0.0
H2074 H 0.02498 0.70166 0.19081 0.0
H2075 H 0.05525 0.56777 0.19507 0.0
H2076 H 0.13777 0.67381 0.20453 0.0
H2077 H 0.17806 0.72805 0.19826 0.0
H2078 H 0.25008 0.65403 0.17601 0.0
H2079 H 0.20992 0.59939 0.18204 0.0
C2080 C 0.15921 0.45912 0.23246 0.0
C2081 C 0.19427 0.44462 0.22819 0.0
C2082 C 0.14204 0.48945 0.22586 0.0
C2083 C 0.15883 0.5054 0.21458 0.0
C2084 C 0.19402 0.49135 0.21041 0.0
C2085 C 0.21164 0.46167 0.21717 0.0
C2086 C 0.14022 0.53705 0.20723 0.0
C2087 C 0.16211 0.56887 0.20372 0.0
C2088 C 0.10119 0.53648 0.20383 0.0
C2089 C 0.07693 0.50253 0.2058 0.0
C2090 C 0.08793 0.46712 0.20075 0.0
C2091 C 0.06461 0.43542 0.20238 0.0
C2092 C 0.03 0.43882 0.20892 0.0
C2093 C 0.01862 0.47395 0.21384 0.0
C2094 C 0.0419 0.50572 0.21228 0.0
C2095 C 0.08452 0.66989 0.16679 0.0
C2096 C 0.05772 0.69329 0.17297 0.0
C2097 C 0.10028 0.63913 0.17356 0.0
C2098 C 0.08906 0.6309 0.18653 0.0
C2099 C 0.06123 0.6533 0.19253 0.0
C2100 C 0.04598 0.68445 0.18586 0.0
C2101 C 0.1071 0.59952 0.19397 0.0
C2102 C 0.08505 0.56816 0.19759 0.0
C2103 C 0.14613 0.59988 0.19707 0.0
C2104 C 0.17067 0.63258 0.19364 0.0
C2105 C 0.16207 0.66914 0.19824 0.0
C2106 C 0.1849 0.69995 0.19474 0.0
C2107 C 0.21657 0.6945 0.18672 0.0
C2108 C 0.22554 0.6582 0.18222 0.0
C2109 C 0.20279 0.6273 0.18569 0.0
H2110 H 0.23419 0.71839 0.18402 0.0
H2111 H 0.01193 0.41426 0.21014 0.0
loop_
_geom_bond_atom_site_label_1
_geom_bond_atom_site_label_2
_geom_bond_distance
_geom_bond_site_symmetry_2
_ccdc_geom_bond_type
H0 C19 0.949 . S
H1 C20 0.950 . S
H2 C22 0.950 . S
H3 C23 0.950 . S
H4 C25 0.950 . S
H5 C28 0.950 1_565 S
H6 C29 0.950 . S
H7 C31 0.951 . S
H8 C32 0.949 . S
H9 C34 0.949 . S
H10 C35 0.950 . S
H11 C37 0.950 . S
H12 C38 0.950 1_565 S
H13 C40 0.950 . S
H14 C43 0.950 . S
H15 C44 0.950 1_545 S
H16 C46 0.951 . S
H17 C47 0.949 . S
C18 C19 1.376 . S
C18 C23 1.386 1_565 S
C18 C24 1.483 1_565 S
C19 H0 0.949 . S
C19 C18 1.376 . S
C19 C20 1.397 . S
C20 H1 0.950 . S
C20 C19 1.397 . S
C20 C21 1.391 . S
C21 C20 1.391 . S
C21 C22 1.405 1_565 S
C22 H2 0.950 . S
C22 C21 1.405 1_545 S
C22 C23 1.367 . S
C23 H3 0.950 . S
C23 C18 1.386 1_545 S
C23 C22 1.367 . S
C24 C18 1.483 1_545 S
C24 C25 1.382 1_545 S
C24 C26 1.403 . S
C25 H4 0.950 . S
C25 C24 1.382 1_565 S
C25 C41 1.407 1_665 S
C26 C24 1.403 . S
C26 C27 1.489 . S
C26 C40 1.411 1_655 S
C27 C26 1.489 . S
C27 C28 1.383 . S
C27 C32 1.382 . S
C28 H5 0.950 1_545 S
C28 C27 1.383 . S
C28 C29 1.395 . S
C29 H6 0.950 . S
C29 C28 1.395 . S
C29 C30 1.288 . S
C30 C29 1.288 . S
C30 C31 1.392 . S
C31 H7 0.951 . S
C31 C30 1.392 . S
C31 C32 1.392 . S
C32 H8 0.949 . S
C32 C27 1.382 . S
C32 C31 1.392 . S
C33 C34 1.376 . S
C33 C38 1.386 . S
C33 C39 1.483 . S
C34 H9 0.949 . S
C34 C33 1.376 . S
C34 C35 1.397 . S
C35 H10 0.950 . S
C35 C34 1.397 . S
C35 C36 1.391 . S
C36 C35 1.391 . S
C36 C37 1.405 . S
C37 H11 0.950 . S
C37 C36 1.405 . S
C37 C38 1.367 . S
C38 H12 0.950 1_545 S
C38 C33 1.386 . S
C38 C37 1.367 . S
C39 C33 1.483 . S
C39 C40 1.382 . S
C39 C41 1.412 . S
C40 H13 0.950 . S
C40 C26 1.411 1_455 S
C40 C39 1.382 . S
C41 C25 1.407 1_445 S
C41 C39 1.412 . S
C41 C42 1.484 1_545 S
C42 C41 1.484 1_565 S
C42 C43 1.383 1_565 S
C42 C47 1.382 . S
C43 H14 0.950 . S
C43 C42 1.383 1_545 S
C43 C44 1.395 1_545 S
C44 H15 0.950 1_565 S
C44 C43 1.395 1_565 S
C44 C45 1.288 . S
C45 C44 1.288 . S
C45 C46 1.392 . S
C46 H16 0.951 . S
C46 C45 1.392 . S
C46 C47 1.392 . S
C47 H17 0.949 . S
C47 C42 1.382 . S
C47 C46 1.392 . S
H48 C67 0.949 . S
H49 C68 0.950 . S
H50 C70 0.950 . S
H51 C71 0.950 . S
H52 C73 0.950 . S
H53 C76 0.950 . S
H54 C77 0.950 . S
H55 C79 0.951 . S
H56 C80 0.949 . S
H57 C82 0.949 . S
H58 C83 0.950 . S
H59 C85 0.950 . S
H60 C86 0.950 . S
H61 C88 0.950 . S
H62 C91 0.950 . S
H63 C92 0.950 . S
H64 C94 0.951 . S
H65 C95 0.949 . S
C66 C67 1.376 . S
C66 C71 1.386 . S
C66 C72 1.483 . S
C67 H48 0.949 . S
C67 C66 1.376 . S
C67 C68 1.397 . S
C68 H49 0.950 . S
C68 C67 1.397 . S
C68 C69 1.391 . S
C69 C68 1.391 . S
C69 C70 1.405 . S
C70 H50 0.950 . S
C70 C69 1.405 . S
C70 C71 1.367 . S
C71 H51 0.950 . S
C71 C66 1.386 . S
C71 C70 1.367 . S
C72 C66 1.483 . S
C72 C73 1.382 . S
C72 C74 1.403 . S
C73 H52 0.950 . S
C73 C72 1.382 . S
C73 C89 1.411 . S
C74 C72 1.403 . S
C74 C75 1.489 . S
C74 C88 1.411 . S
C75 C74 1.489 . S
C75 C76 1.383 . S
C75 C80 1.382 . S
C76 H53 0.950 . S
C76 C75 1.383 . S
C76 C77 1.395 . S
C77 H54 0.950 . S
C77 C76 1.395 . S
C77 C78 1.288 . S
C78 C77 1.288 . S
C78 C79 1.392 . S
C79 H55 0.951 . S
C79 C78 1.392 . S
C79 C80 1.392 . S
C80 H56 0.949 . S
C80 C75 1.382 . S
C80 C79 1.392 . S
C81 C82 1.376 . S
C81 C86 1.386 . S
C81 C87 1.483 . S
C82 H57 0.949 . S
C82 C81 1.376 . S
C82 C83 1.397 . S
C83 H58 0.950 . S
C83 C82 1.397 . S
C83 C84 1.391 . S
C84 C83 1.391 . S
C84 C85 1.405 . S
C85 H59 0.950 . S
C85 C84 1.405 . S
C85 C86 1.367 . S
C86 H60 0.950 . S
C86 C81 1.386 . S
C86 C85 1.367 . S
C87 C81 1.483 . S
C87 C88 1.382 . S
C87 C89 1.403 . S
C88 H61 0.950 . S
C88 C74 1.411 . S
C88 C87 1.382 . S
C89 C73 1.411 . S
C89 C87 1.403 . S
C89 C90 1.489 . S
C90 C89 1.489 . S
C90 C91 1.383 . S
C90 C95 1.382 . S
C91 H62 0.950 . S
C91 C90 1.383 . S
C91 C92 1.395 . S
C92 H63 0.950 . S
C92 C91 1.395 . S
C92 C93 1.288 . S
C93 C92 1.288 . S
C93 C94 1.392 . S
C94 H64 0.951 . S
C94 C93 1.392 . S
C94 C95 1.392 . S
C95 H65 0.949 . S
C95 C90 1.382 . S
C95 C94 1.392 . S
H96 C115 0.949 1_545 S
H97 C116 0.950 . S
H98 C118 0.950 . S
H99 C119 0.950 . S
H100 C121 0.950 . S
H101 C124 0.950 . S
H102 C125 0.936 1_554 S
H103 C127 0.951 . S
H104 C128 0.965 . S
H105 C130 0.949 1_565 S
H106 C131 0.950 . S
H107 C133 0.950 1_554 S
H108 C134 0.950 . S
H109 C136 0.950 . S
H110 C139 0.950 . S
H111 C140 0.950 . S
H112 C142 0.951 . S
H113 C143 0.954 . S
C114 C115 1.376 . S
C114 C119 1.386 . S
C114 C120 1.483 . S
C115 H96 0.949 1_565 S
C115 C114 1.376 . S
C115 C116 1.397 . S
C116 H97 0.950 . S
C116 C115 1.397 . S
C116 C117 1.391 . S
C117 C116 1.391 . S
C117 C118 1.405 . S
C118 H98 0.950 . S
C118 C117 1.405 . S
C118 C119 1.367 . S
C119 H99 0.950 . S
C119 C114 1.386 . S
C119 C118 1.367 . S
C120 C114 1.483 . S
C120 C121 1.382 . S
C120 C122 1.403 1_565 S
C121 H100 0.950 . S
C121 C120 1.382 . S
C121 C137 1.411 . S
C122 C120 1.403 1_545 S
C122 C123 1.489 1_554 S
C122 C136 1.411 1_554 S
C123 C122 1.489 1_556 S
C123 C124 1.383 1_556 S
C123 C128 1.382 . S
C124 H101 0.950 . S
C124 C123 1.383 1_554 S
C124 C125 1.395 1_554 S
C125 H102 0.936 1_556 S
C125 C124 1.395 1_556 S
C125 C126 1.288 . S
C126 C125 1.288 . S
C126 C127 1.392 . S
C127 H103 0.951 . S
C127 C126 1.392 . S
C127 C128 1.392 . S
C128 H104 0.965 . S
C128 C123 1.382 . S
C128 C127 1.392 . S
C129 C130 1.376 . S
C129 C134 1.386 1_556 S
C129 C135 1.483 1_556 S
C130 H105 0.949 1_545 S
C130 C129 1.376 . S
C130 C131 1.397 . S
C131 H106 0.950 . S
C131 C130 1.397 . S
C131 C132 1.391 . S
C132 C131 1.391 . S
C132 C133 1.405 . S
C133 H107 0.950 1_556 S
C133 C132 1.405 . S
C133 C134 1.367 1_556 S
C134 H108 0.950 . S
C134 C129 1.386 1_554 S
C134 C133 1.367 1_554 S
C135 C129 1.483 1_554 S
C135 C136 1.382 1_554 S
C135 C137 1.403 1_545 S
C136 H109 0.950 . S
C136 C122 1.411 1_556 S
C136 C135 1.382 1_556 S
C137 C121 1.411 . S
C137 C135 1.403 1_565 S
C137 C138 1.489 . S
C138 C137 1.489 . S
C138 C139 1.383 . S
C138 C143 1.382 . S
C139 H110 0.950 . S
C139 C138 1.383 . S
C139 C140 1.395 . S
C140 H111 0.950 . S
C140 C139 1.395 . S
C140 C141 1.288 . S
C141 C140 1.288 . S
C141 C142 1.392 . S
C142 H112 0.951 . S
C142 C141 1.392 . S
C142 C143 1.392 . S
C143 H113 0.954 . S
C143 C138 1.382 . S
C143 C142 1.392 . S
H144 C163 0.949 . S
H145 C164 0.950 . S
H146 C166 0.950 . S
H147 C167 0.950 . S
H148 C169 0.950 . S
H149 C172 0.950 . S
H150 C173 0.950 . S
H151 C175 0.951 . S
H152 C176 0.949 . S
H153 C178 0.949 . S
H154 C179 0.950 . S
H155 C181 0.950 . S
H156 C182 0.950 . S
H157 C184 0.950 . S
H158 C187 0.950 . S
H159 C188 0.950 . S
H160 C190 0.951 . S
H161 C191 0.949 . S
C162 C163 1.376 . S
C162 C167 1.386 . S
C162 C168 1.483 . S
C163 H144 0.949 . S
C163 C162 1.376 . S
C163 C164 1.397 . S
C164 H145 0.950 . S
C164 C163 1.397 . S
C164 C165 1.391 . S
C165 C164 1.391 . S
C165 C166 1.405 . S
C166 H146 0.950 . S
C166 C165 1.405 . S
C166 C167 1.367 . S
C167 H147 0.950 . S
C167 C162 1.386 . S
C167 C166 1.367 . S
C168 C162 1.483 . S
C168 C169 1.382 . S
C168 C170 1.403 . S
C169 H148 0.950 . S
C169 C168 1.382 . S
C169 C185 1.411 . S
C170 C168 1.403 . S
C170 C171 1.489 . S
C170 C184 1.411 . S
C171 C170 1.489 . S
C171 C172 1.383 . S
C171 C176 1.382 . S
C172 H149 0.950 . S
C172 C171 1.383 . S
C172 C173 1.395 . S
C173 H150 0.950 . S
C173 C172 1.395 . S
C173 C174 1.288 . S
C174 C173 1.288 . S
C174 C175 1.392 . S
C175 H151 0.951 . S
C175 C174 1.392 . S
C175 C176 1.392 . S
C176 H152 0.949 . S
C176 C171 1.382 . S
C176 C175 1.392 . S
C177 C178 1.376 . S
C177 C182 1.386 . S
C177 C183 1.483 . S
C178 H153 0.949 . S
C178 C177 1.376 . S
C178 C179 1.397 . S
C179 H154 0.950 . S
C179 C178 1.397 . S
C179 C180 1.391 . S
C180 C179 1.391 . S
C180 C181 1.405 . S
C181 H155 0.950 . S
C181 C180 1.405 . S
C181 C182 1.367 . S
C182 H156 0.950 . S
C182 C177 1.386 . S
C182 C181 1.367 . S
C183 C177 1.483 . S
C183 C184 1.382 . S
C183 C185 1.403 . S
C184 H157 0.950 . S
C184 C170 1.411 . S
C184 C183 1.382 . S
C185 C169 1.411 . S
C185 C183 1.403 . S
C185 C186 1.489 . S
C186 C185 1.489 . S
C186 C187 1.383 . S
C186 C191 1.382 . S
C187 H158 0.950 . S
C187 C186 1.383 . S
C187 C188 1.395 . S
C188 H159 0.950 . S
C188 C187 1.395 . S
C188 C189 1.288 . S
C189 C188 1.288 . S
C189 C190 1.392 . S
C190 H160 0.951 . S
C190 C189 1.392 . S
C190 C191 1.392 . S
C191 H161 0.949 . S
C191 C186 1.382 . S
C191 C190 1.392 . S
H192 C211 0.949 . S
H193 C212 0.950 . S
H194 C214 0.950 . S
H195 C215 0.950 . S
H196 C217 0.950 . S
H197 C220 0.950 . S
H198 C221 0.950 . S
H199 C223 0.951 . S
H200 C224 0.949 . S
H201 C226 0.949 . S
H202 C227 0.950 . S
H203 C229 0.950 . S
H204 C230 0.950 . S
H205 C232 0.950 . S
H206 C235 0.950 . S
H207 C236 0.950 . S
H208 C238 0.951 . S
H209 C239 0.949 . S
C210 C211 1.376 . S
C210 C215 1.386 . S
C210 C216 1.483 . S
C211 H192 0.949 . S
C211 C210 1.376 . S
C211 C212 1.397 . S
C212 H193 0.950 . S
C212 C211 1.397 . S
C212 C213 1.391 . S
C213 C212 1.391 . S
C213 C214 1.405 . S
C214 H194 0.950 . S
C214 C213 1.405 . S
C214 C215 1.367 . S
C215 H195 0.950 . S
C215 C210 1.386 . S
C215 C214 1.367 . S
C216 C210 1.483 . S
C216 C217 1.382 . S
C216 C218 1.403 . S
C217 H196 0.950 . S
C217 C216 1.382 . S
C217 C233 1.411 . S
C218 C216 1.403 . S
C218 C219 1.489 . S
C218 C232 1.411 . S
C219 C218 1.489 . S
C219 C220 1.383 . S
C219 C224 1.382 . S
C220 H197 0.950 . S
C220 C219 1.383 . S
C220 C221 1.395 . S
C221 H198 0.950 . S
C221 C220 1.395 . S
C221 C222 1.288 . S
C222 C221 1.288 . S
C222 C223 1.392 . S
C223 H199 0.951 . S
C223 C222 1.392 . S
C223 C224 1.392 . S
C224 H200 0.949 . S
C224 C219 1.382 . S
C224 C223 1.392 . S
C225 C226 1.376 . S
C225 C230 1.386 . S
C225 C231 1.483 . S
C226 H201 0.949 . S
C226 C225 1.376 . S
C226 C227 1.397 . S
C227 H202 0.950 . S
C227 C226 1.397 . S
C227 C228 1.391 . S
C228 C227 1.391 . S
C228 C229 1.405 . S
C229 H203 0.950 . S
C229 C228 1.405 . S
C229 C230 1.367 . S
C230 H204 0.950 . S
C230 C225 1.386 . S
C230 C229 1.367 . S
C231 C225 1.483 . S
C231 C232 1.382 . S
C231 C233 1.403 . S
C232 H205 0.950 . S
C232 C218 1.411 . S
C232 C231 1.382 . S
C233 C217 1.411 . S
C233 C231 1.403 . S
C233 C234 1.489 . S
C234 C233 1.489 . S
C234 C235 1.383 . S
C234 C239 1.382 . S
C235 H206 0.950 . S
C235 C234 1.383 . S
C235 C236 1.395 . S
C236 H207 0.950 . S
C236 C235 1.395 . S
C236 C237 1.288 . S
C237 C236 1.288 . S
C237 C238 1.392 . S
C238 H208 0.951 . S
C238 C237 1.392 . S
C238 C239 1.392 . S
C239 H209 0.949 . S
C239 C234 1.382 . S
C239 C238 1.392 . S
H240 C259 0.949 . S
H241 C260 0.950 . S
H242 C262 0.950 . S
H243 C263 0.950 . S
H244 C265 0.950 . S
H245 C268 0.950 . S
H246 C269 0.950 . S
H247 C271 0.951 . S
H248 C272 0.949 . S
H249 C274 0.949 . S
H250 C275 0.950 . S
H251 C277 0.950 . S
H252 C278 0.950 . S
H253 C280 0.950 . S
H254 C283 0.950 . S
H255 C284 0.950 . S
H256 C286 0.951 . S
H257 C287 0.949 . S
C258 C259 1.376 . S
C258 C263 1.386 . S
C258 C264 1.483 . S
C259 H240 0.949 . S
C259 C258 1.376 . S
C259 C260 1.397 . S
C260 H241 0.950 . S
C260 C259 1.397 . S
C260 C261 1.391 . S
C261 C260 1.391 . S
C261 C262 1.405 . S
C262 H242 0.950 . S
C262 C261 1.405 . S
C262 C263 1.367 . S
C263 H243 0.950 . S
C263 C258 1.386 . S
C263 C262 1.367 . S
C264 C258 1.483 . S
C264 C265 1.382 . S
C264 C266 1.403 . S
C265 H244 0.950 . S
C265 C264 1.382 . S
C265 C281 1.411 . S
C266 C264 1.403 . S
C266 C267 1.489 . S
C266 C280 1.411 . S
C267 C266 1.489 . S
C267 C268 1.383 . S
C267 C272 1.382 . S
C268 H245 0.950 . S
C268 C267 1.383 . S
C268 C269 1.395 . S
C269 H246 0.950 . S
C269 C268 1.395 . S
C269 C270 1.288 . S
C270 C269 1.288 . S
C270 C271 1.392 . S
C271 H247 0.951 . S
C271 C270 1.392 . S
C271 C272 1.392 . S
C272 H248 0.949 . S
C272 C267 1.382 . S
C272 C271 1.392 . S
C273 C274 1.376 . S
C273 C278 1.386 . S
C273 C279 1.483 . S
C274 H249 0.949 . S
C274 C273 1.376 . S
C274 C275 1.397 . S
C275 H250 0.950 . S
C275 C274 1.397 . S
C275 C276 1.391 . S
C276 C275 1.391 . S
C276 C277 1.405 . S
C277 H251 0.950 . S
C277 C276 1.405 . S
C277 C278 1.367 . S
C278 H252 0.950 . S
C278 C273 1.386 . S
C278 C277 1.367 . S
C279 C273 1.483 . S
C279 C280 1.382 . S
C279 C281 1.403 . S
C280 H253 0.950 . S
C280 C266 1.411 . S
C280 C279 1.382 . S
C281 C265 1.411 . S
C281 C279 1.403 . S
C281 C282 1.489 . S
C282 C281 1.489 . S
C282 C283 1.383 . S
C282 C287 1.382 . S
C283 H254 0.950 . S
C283 C282 1.383 . S
C283 C284 1.395 . S
C284 H255 0.950 . S
C284 C283 1.395 . S
C284 C285 1.288 . S
C285 C284 1.288 . S
C285 C286 1.392 . S
C286 H256 0.951 . S
C286 C285 1.392 . S
C286 C287 1.392 . S
C287 H257 0.949 . S
C287 C282 1.382 . S
C287 C286 1.392 . S
H288 C307 0.949 1_554 S
H289 C308 0.950 . S
H290 C310 0.950 . S
H291 C311 0.950 . S
H292 C313 0.947 1_556 S
H293 C316 0.950 . S
H294 C317 0.950 . S
H295 C319 0.951 . S
H296 C320 0.949 . S
H297 C322 0.949 . S
H298 C323 0.950 . S
H299 C325 0.950 . S
H300 C326 0.950 . S
H301 C328 0.950 . S
H302 C331 0.950 . S
H303 C332 0.950 . S
H304 C334 0.951 . S
H305 C335 0.949 . S
C306 C307 1.376 . S
C306 C311 1.386 . S
C306 C312 1.483 1_556 S
C307 H288 0.949 1_556 S
C307 C306 1.376 . S
C307 C308 1.397 . S
C308 H289 0.950 . S
C308 C307 1.397 . S
C308 C309 1.391 . S
C309 C308 1.391 . S
C309 C310 1.405 . S
C310 H290 0.950 . S
C310 C309 1.405 . S
C310 C311 1.367 . S
C311 H291 0.950 . S
C311 C306 1.386 . S
C311 C310 1.367 . S
C312 C306 1.483 1_554 S
C312 C313 1.383 . S
C312 C314 1.403 . S
C313 H292 0.947 1_554 S
C313 C312 1.383 . S
C313 C329 1.412 . S
C314 C312 1.403 . S
C314 C315 1.489 . S
C314 C328 1.411 . S
C315 C314 1.489 . S
C315 C316 1.383 . S
C315 C320 1.382 . S
C316 H293 0.950 . S
C316 C315 1.383 . S
C316 C317 1.395 . S
C317 H294 0.950 . S
C317 C316 1.395 . S
C317 C318 1.288 . S
C318 C317 1.288 . S
C318 C319 1.392 . S
C319 H295 0.951 . S
C319 C318 1.392 . S
C319 C320 1.392 . S
C320 H296 0.949 . S
C320 C315 1.382 . S
C320 C319 1.392 . S
C321 C322 1.376 . S
C321 C326 1.386 . S
C321 C327 1.483 . S
C322 H297 0.949 . S
C322 C321 1.376 . S
C322 C323 1.397 . S
C323 H298 0.950 . S
C323 C322 1.397 . S
C323 C324 1.391 . S
C324 C323 1.391 . S
C324 C325 1.405 . S
C325 H299 0.950 . S
C325 C324 1.405 . S
C325 C326 1.367 . S
C326 H300 0.950 . S
C326 C321 1.386 . S
C326 C325 1.367 . S
C327 C321 1.483 . S
C327 C328 1.382 . S
C327 C329 1.403 . S
C328 H301 0.950 . S
C328 C314 1.411 . S
C328 C327 1.382 . S
C329 C313 1.412 . S
C329 C327 1.403 . S
C329 C330 1.489 1_554 S
C330 C329 1.489 1_556 S
C330 C331 1.383 . S
C330 C335 1.382 . S
C331 H302 0.950 . S
C331 C330 1.383 . S
C331 C332 1.395 . S
C332 H303 0.950 . S
C332 C331 1.395 . S
C332 C333 1.288 . S
C333 C332 1.288 . S
C333 C334 1.392 . S
C334 H304 0.951 . S
C334 C333 1.392 . S
C334 C335 1.392 . S
C335 H305 0.949 . S
C335 C330 1.382 . S
C335 C334 1.392 . S
H336 C355 0.949 . S
H337 C356 0.950 . S
H338 C358 0.950 . S
H339 C359 0.950 . S
H340 C361 0.950 . S
H341 C364 0.950 . S
H342 C365 0.950 . S
H343 C367 0.951 . S
H344 C368 0.949 . S
H345 C370 0.949 . S
H346 C371 0.950 . S
H347 C373 0.950 . S
H348 C374 0.950 . S
H349 C376 0.950 . S
H350 C379 0.950 . S
H351 C380 0.950 . S
H352 C382 0.951 . S
H353 C383 0.949 . S
C354 C355 1.376 . S
C354 C359 1.386 . S
C354 C360 1.483 . S
C355 H336 0.949 . S
C355 C354 1.376 . S
C355 C356 1.397 . S
C356 H337 0.950 . S
C356 C355 1.397 . S
C356 C357 1.391 . S
C357 C356 1.391 . S
C357 C358 1.405 . S
C358 H338 0.950 . S
C358 C357 1.405 . S
C358 C359 1.367 . S
C359 H339 0.950 . S
C359 C354 1.386 . S
C359 C358 1.367 . S
C360 C354 1.483 . S
C360 C361 1.382 . S
C360 C362 1.403 . S
C361 H340 0.950 . S
C361 C360 1.382 . S
C361 C377 1.411 1_655 S
C362 C360 1.403 . S
C362 C363 1.489 . S
C362 C376 1.411 1_655 S
C363 C362 1.489 . S
C363 C364 1.383 . S
C363 C368 1.382 . S
C364 H341 0.950 . S
C364 C363 1.383 . S
C364 C365 1.395 . S
C365 H342 0.950 . S
C365 C364 1.395 . S
C365 C366 1.288 . S
C366 C365 1.288 . S
C366 C367 1.392 . S
C367 H343 0.951 . S
C367 C366 1.392 . S
C367 C368 1.392 . S
C368 H344 0.949 . S
C368 C363 1.382 . S
C368 C367 1.392 . S
C369 C370 1.376 . S
C369 C374 1.386 . S
C369 C375 1.483 . S
C370 H345 0.949 . S
C370 C369 1.376 . S
C370 C371 1.397 . S
C371 H346 0.950 . S
C371 C370 1.397 . S
C371 C372 1.391 . S
C372 C371 1.391 . S
C372 C373 1.405 . S
C373 H347 0.950 . S
C373 C372 1.405 . S
C373 C374 1.367 . S
C374 H348 0.950 . S
C374 C369 1.386 . S
C374 C373 1.367 . S
C375 C369 1.483 . S
C375 C376 1.382 . S
C375 C377 1.403 . S
C376 H349 0.950 . S
C376 C362 1.411 1_455 S
C376 C375 1.382 . S
C377 C361 1.411 1_455 S
C377 C375 1.403 . S
C377 C378 1.489 . S
C378 C377 1.489 . S
C378 C379 1.383 . S
C378 C383 1.382 . S
C379 H350 0.950 . S
C379 C378 1.383 . S
C379 C380 1.395 . S
C380 H351 0.950 . S
C380 C379 1.395 . S
C380 C381 1.288 . S
C381 C380 1.288 . S
C381 C382 1.392 . S
C382 H352 0.951 . S
C382 C381 1.392 . S
C382 C383 1.392 . S
C383 H353 0.949 . S
C383 C378 1.382 . S
C383 C382 1.392 . S
Fe384 O385 1.886 . S
Fe384 O388 1.715 1_455 S
Fe384 O393 2.077 . S
Fe384 O398 1.935 1_455 S
Fe384 O404 2.077 . S
Fe384 O413 1.935 1_455 S
O385 Fe384 1.886 . S
O385 Fe387 1.715 . S
Fe386 O388 1.886 . S
Fe386 O389 1.715 . S
Fe386 O396 1.935 . S
Fe386 O397 2.077 . S
Fe386 O403 1.935 . S
Fe386 O412 2.077 . S
Fe387 O385 1.715 . S
Fe387 O390 1.886 . S
Fe387 O394 1.935 . S
Fe387 O399 2.077 . S
Fe387 O405 1.935 . S
Fe387 O409 2.077 . S
O388 Fe384 1.715 1_655 S
O388 Fe386 1.886 . S
O389 Fe386 1.715 . S
O389 Fe391 1.901 . S
O390 Fe387 1.886 . S
O390 Fe391 1.699 1_455 S
Fe391 O389 1.901 . S
Fe391 O390 1.699 1_655 S
Fe391 O395 2.091 . S
Fe391 O400 1.923 1_655 S
Fe391 O402 2.091 . S
Fe391 O410 1.923 1_655 S
C392 O404 1.381 . S
C392 O405 1.421 . S
O393 Fe384 2.077 . S
O393 C406 1.381 . S
O394 Fe387 1.935 . S
O394 C406 1.421 . S
O395 Fe391 2.091 . S
O395 C411 1.381 . S
O396 Fe386 1.935 . S
O396 C411 1.421 . S
O397 Fe386 2.077 . S
O397 C401 1.381 . S
O398 Fe384 1.935 1_655 S
O398 C401 1.421 . S
O399 Fe387 2.077 . S
O399 C407 1.381 . S
O400 Fe391 1.923 1_455 S
O400 C407 1.421 . S
C401 O397 1.381 . S
C401 O398 1.421 . S
O402 Fe391 2.091 . S
O402 C414 1.381 . S
O403 Fe386 1.935 . S
O403 C414 1.421 . S
O404 Fe384 2.077 . S
O404 C392 1.381 . S
O405 Fe387 1.935 . S
O405 C392 1.421 . S
C406 O393 1.381 . S
C406 O394 1.421 . S
C407 O399 1.381 . S
C407 O400 1.421 . S
C408 O409 1.381 . S
C408 O410 1.421 . S
O409 Fe387 2.077 . S
O409 C408 1.381 . S
O410 Fe391 1.923 1_455 S
O410 C408 1.421 . S
C411 O395 1.381 . S
C411 O396 1.421 . S
O412 Fe386 2.077 . S
O412 C415 1.381 . S
O413 Fe384 1.935 1_655 S
O413 C415 1.421 . S
C414 O402 1.381 . S
C414 O403 1.421 . S
C415 O412 1.381 . S
C415 O413 1.421 . S
Fe416 O417 1.886 . S
Fe416 O420 1.715 . S
Fe416 O425 2.077 . S
Fe416 O430 1.935 . S
Fe416 O436 2.077 . S
Fe416 O445 1.935 . S
O417 Fe416 1.886 . S
O417 Fe419 1.715 . S
Fe418 O420 1.886 . S
Fe418 O421 1.715 . S
Fe418 O428 1.935 . S
Fe418 O429 2.077 . S
Fe418 O435 1.935 . S
Fe418 O444 2.077 . S
Fe419 O417 1.715 . S
Fe419 O422 1.886 . S
Fe419 O426 1.935 . S
Fe419 O431 2.077 . S
Fe419 O437 1.935 . S
Fe419 O441 2.077 . S
O420 Fe416 1.715 . S
O420 Fe418 1.886 . S
O421 Fe418 1.715 . S
O421 Fe423 1.886 . S
O422 Fe419 1.886 . S
O422 Fe423 1.715 . S
Fe423 O421 1.886 . S
Fe423 O422 1.715 . S
Fe423 O427 2.077 . S
Fe423 O432 1.935 . S
Fe423 O434 2.077 . S
Fe423 O442 1.935 . S
C424 O436 1.381 . S
C424 O437 1.421 . S
O425 Fe416 2.077 . S
O425 C438 1.381 . S
O426 Fe419 1.935 . S
O426 C438 1.421 . S
O427 Fe423 2.077 . S
O427 C443 1.381 . S
O428 Fe418 1.935 . S
O428 C443 1.421 . S
O429 Fe418 2.077 . S
O429 C433 1.381 . S
O430 Fe416 1.935 . S
O430 C433 1.421 . S
O431 Fe419 2.077 . S
O431 C439 1.381 . S
O432 Fe423 1.935 . S
O432 C439 1.421 . S
C433 O429 1.381 . S
C433 O430 1.421 . S
O434 Fe423 2.077 . S
O434 C446 1.381 . S
O435 Fe418 1.935 . S
O435 C446 1.421 . S
O436 Fe416 2.077 . S
O436 C424 1.381 . S
O437 Fe419 1.935 . S
O437 C424 1.421 . S
C438 O425 1.381 . S
C438 O426 1.421 . S
C439 O431 1.381 . S
C439 O432 1.421 . S
C440 O441 1.381 . S
C440 O442 1.421 . S
O441 Fe419 2.077 . S
O441 C440 1.381 . S
O442 Fe423 1.935 . S
O442 C440 1.421 . S
C443 O427 1.381 . S
C443 O428 1.421 . S
O444 Fe418 2.077 . S
O444 C447 1.381 . S
O445 Fe416 1.935 . S
O445 C447 1.421 . S
C446 O434 1.381 . S
C446 O435 1.421 . S
C447 O444 1.381 . S
C447 O445 1.421 . S
Fe448 O449 1.886 . S
Fe448 O452 1.715 . S
Fe448 O457 2.077 . S
Fe448 O462 1.935 . S
Fe448 O468 2.077 . S
Fe448 O477 1.935 . S
O449 Fe448 1.886 . S
O449 Fe451 1.715 . S
Fe450 O452 1.886 . S
Fe450 O453 1.715 . S
Fe450 O460 1.935 . S
Fe450 O461 2.077 . S
Fe450 O467 1.935 . S
Fe450 O476 2.077 . S
Fe451 O449 1.715 . S
Fe451 O454 1.886 . S
Fe451 O458 1.935 . S
Fe451 O463 2.077 . S
Fe451 O469 1.935 . S
Fe451 O473 2.077 . S
O452 Fe448 1.715 . S
O452 Fe450 1.886 . S
O453 Fe450 1.715 . S
O453 Fe455 1.886 . S
O454 Fe451 1.886 . S
O454 Fe455 1.715 . S
Fe455 O453 1.886 . S
Fe455 O454 1.715 . S
Fe455 O459 2.077 . S
Fe455 O464 1.935 . S
Fe455 O466 2.077 . S
Fe455 O474 1.935 . S
C456 O468 1.381 . S
C456 O469 1.421 . S
O457 Fe448 2.077 . S
O457 C470 1.381 . S
O458 Fe451 1.935 . S
O458 C470 1.421 . S
O459 Fe455 2.077 . S
O459 C475 1.381 . S
O460 Fe450 1.935 . S
O460 C475 1.421 . S
O461 Fe450 2.077 . S
O461 C465 1.381 . S
O462 Fe448 1.935 . S
O462 C465 1.421 . S
O463 Fe451 2.077 . S
O463 C471 1.381 . S
O464 Fe455 1.935 . S
O464 C471 1.421 . S
C465 O461 1.381 . S
C465 O462 1.421 . S
O466 Fe455 2.077 . S
O466 C478 1.381 . S
O467 Fe450 1.935 . S
O467 C478 1.421 . S
O468 Fe448 2.077 . S
O468 C456 1.381 . S
O469 Fe451 1.935 . S
O469 C456 1.421 . S
C470 O457 1.381 . S
C470 O458 1.421 . S
C471 O463 1.381 . S
C471 O464 1.421 . S
C472 O473 1.381 . S
C472 O474 1.421 . S
O473 Fe451 2.077 . S
O473 C472 1.381 . S
O474 Fe455 1.935 . S
O474 C472 1.421 . S
C475 O459 1.381 . S
C475 O460 1.421 . S
O476 Fe450 2.077 . S
O476 C479 1.381 . S
O477 Fe448 1.935 . S
O477 C479 1.421 . S
C478 O466 1.381 . S
C478 O467 1.421 . S
C479 O476 1.381 . S
C479 O477 1.421 . S
Fe480 O481 1.886 . S
Fe480 O484 1.715 . S
Fe480 O489 2.077 1_455 S
Fe480 O494 1.935 1_455 S
Fe480 O500 2.077 . S
Fe480 O509 1.936 . S
O481 Fe480 1.886 . S
O481 Fe483 1.715 . S
Fe482 O484 1.886 . S
Fe482 O485 1.715 . S
Fe482 O492 1.935 1_455 S
Fe482 O493 2.077 1_455 S
Fe482 O499 1.935 . S
Fe482 O508 2.077 . S
Fe483 O481 1.715 . S
Fe483 O486 1.886 . S
Fe483 O490 1.935 1_455 S
Fe483 O495 2.077 1_455 S
Fe483 O501 1.935 . S
Fe483 O505 2.077 . S
O484 Fe480 1.715 . S
O484 Fe482 1.886 . S
O485 Fe482 1.715 . S
O485 Fe487 1.886 . S
O486 Fe483 1.886 . S
O486 Fe487 1.715 . S
Fe487 O485 1.886 . S
Fe487 O486 1.715 . S
Fe487 O491 2.077 1_455 S
Fe487 O496 1.936 1_455 S
Fe487 O498 2.077 . S
Fe487 O506 1.935 . S
C488 O500 1.381 . S
C488 O501 1.421 . S
O489 Fe480 2.077 1_655 S
O489 C502 1.381 . S
O490 Fe483 1.935 1_655 S
O490 C502 1.421 . S
O491 Fe487 2.077 1_655 S
O491 C507 1.381 . S
O492 Fe482 1.935 1_655 S
O492 C507 1.421 . S
O493 Fe482 2.077 1_655 S
O493 C497 1.381 . S
O494 Fe480 1.935 1_655 S
O494 C497 1.421 . S
O495 Fe483 2.077 1_655 S
O495 C503 1.381 . S
O496 Fe487 1.936 1_655 S
O496 C503 1.421 . S
C497 O493 1.381 . S
C497 O494 1.421 . S
O498 Fe487 2.077 . S
O498 C510 1.381 . S
O499 Fe482 1.935 . S
O499 C510 1.421 . S
O500 Fe480 2.077 . S
O500 C488 1.381 . S
O501 Fe483 1.935 . S
O501 C488 1.421 . S
C502 O489 1.381 . S
C502 O490 1.421 . S
C503 O495 1.381 . S
C503 O496 1.421 . S
C504 O505 1.381 . S
C504 O506 1.421 . S
O505 Fe483 2.077 . S
O505 C504 1.381 . S
O506 Fe487 1.935 . S
O506 C504 1.421 . S
C507 O491 1.381 . S
C507 O492 1.421 . S
O508 Fe482 2.077 . S
O508 C511 1.381 . S
O509 Fe480 1.936 . S
O509 C511 1.421 . S
C510 O498 1.381 . S
C510 O499 1.421 . S
C511 O508 1.381 . S
C511 O509 1.421 . S
H512 C530 0.951 . S
H513 C532 0.951 . S
H514 C534 0.950 . S
H515 C535 0.950 . S
H516 C537 0.950 . S
H517 C540 0.950 . S
H518 C541 0.950 . S
H519 C543 0.950 . S
H520 C544 0.950 . S
H521 C545 0.951 . S
H522 C547 0.951 . S
H523 C549 0.950 . S
H524 C550 0.950 . S
H525 C552 0.950 . S
H526 C555 0.950 . S
H527 C556 0.950 . S
H528 C558 0.950 . S
H529 C559 0.950 . S
C530 H512 0.951 . S
C530 C531 1.366 . S
C530 C532 1.388 . S
C531 C530 1.366 . S
C531 C535 1.385 . S
C532 H513 0.951 . S
C532 C530 1.388 . S
C532 C533 1.366 . S
C533 C532 1.366 . S
C533 C534 1.414 . S
C533 C536 1.499 . S
C534 H514 0.950 . S
C534 C533 1.414 . S
C534 C535 1.374 . S
C535 H515 0.950 . S
C535 C531 1.385 . S
C535 C534 1.374 . S
C536 C533 1.499 . S
C536 C537 1.373 . S
C536 C538 1.389 . S
C537 H516 0.950 . S
C537 C536 1.373 . S
C537 C553 1.377 . S
C538 C536 1.389 . S
C538 C539 1.524 . S
C538 C552 1.377 . S
C539 C538 1.524 . S
C539 C540 1.397 . S
C539 C544 1.363 . S
C540 H517 0.950 . S
C540 C539 1.397 . S
C540 C541 1.334 . S
C541 H518 0.950 . S
C541 C540 1.334 . S
C541 C542 1.287 1_565 S
C542 C541 1.287 1_545 S
C542 C543 1.524 . S
C542 H561 0.913 . S
C543 H519 0.950 . S
C543 C542 1.524 . S
C543 C544 1.415 1_545 S
C544 H520 0.950 . S
C544 C539 1.363 . S
C544 C543 1.415 1_565 S
C545 H521 0.951 . S
C545 C546 1.366 . S
C545 C547 1.388 . S
C546 C545 1.366 . S
C546 C550 1.385 . S
C547 H522 0.951 . S
C547 C545 1.388 . S
C547 C548 1.366 . S
C548 C547 1.366 . S
C548 C549 1.414 . S
C548 C551 1.499 . S
C549 H523 0.950 . S
C549 C548 1.414 . S
C549 C550 1.374 . S
C550 H524 0.950 . S
C550 C546 1.385 . S
C550 C549 1.374 . S
C551 C548 1.499 . S
C551 C552 1.373 . S
C551 C553 1.389 . S
C552 H525 0.950 . S
C552 C538 1.377 . S
C552 C551 1.373 . S
C553 C537 1.377 . S
C553 C551 1.389 . S
C553 C554 1.524 . S
C554 C553 1.524 . S
C554 C555 1.397 . S
C554 C559 1.363 . S
C555 H526 0.950 . S
C555 C554 1.397 . S
C555 C556 1.334 . S
C556 H527 0.950 . S
C556 C555 1.334 . S
C556 C557 1.287 . S
C557 C556 1.287 . S
C557 C558 1.524 . S
C557 H560 0.999 . S
C558 H528 0.950 . S
C558 C557 1.524 . S
C558 C559 1.415 . S
C559 H529 0.950 . S
C559 C554 1.363 . S
C559 C558 1.415 . S
H560 C557 0.999 . S
H561 C542 0.913 . S
H562 C580 0.951 . S
H563 C582 0.951 . S
H564 C584 0.950 . S
H565 C585 0.950 . S
H566 C587 0.950 1_565 S
H567 C590 0.950 . S
H568 C591 0.950 . S
H569 C593 0.950 . S
H570 C594 0.950 . S
H571 C595 0.951 . S
H572 C597 0.951 . S
H573 C599 0.950 . S
H574 C600 0.950 . S
H575 C602 0.950 . S
H576 C605 0.950 . S
H577 C606 0.950 . S
H578 C608 0.950 . S
H579 C609 0.950 1_565 S
C580 H562 0.951 . S
C580 C581 1.366 . S
C580 C582 1.388 . S
C581 C580 1.366 . S
C581 C585 1.385 . S
C582 H563 0.951 . S
C582 C580 1.388 . S
C582 C583 1.366 . S
C583 C582 1.366 . S
C583 C584 1.414 . S
C583 C586 1.499 1_565 S
C584 H564 0.950 . S
C584 C583 1.414 . S
C584 C585 1.374 . S
C585 H565 0.950 . S
C585 C581 1.385 . S
C585 C584 1.374 . S
C586 C583 1.499 1_545 S
C586 C587 1.373 . S
C586 C588 1.389 . S
C587 H566 0.950 1_545 S
C587 C586 1.373 . S
C587 C603 1.377 . S
C588 C586 1.389 . S
C588 C589 1.524 . S
C588 C602 1.377 . S
C589 C588 1.524 . S
C589 C590 1.397 . S
C589 C594 1.363 . S
C590 H567 0.950 . S
C590 C589 1.397 . S
C590 C591 1.334 . S
C591 H568 0.950 . S
C591 C590 1.334 . S
C591 C592 1.287 . S
C592 C591 1.287 . S
C592 C593 1.524 . S
C592 H611 0.913 . S
C593 H569 0.950 . S
C593 C592 1.524 . S
C593 C594 1.415 . S
C594 H570 0.950 . S
C594 C589 1.363 . S
C594 C593 1.415 . S
C595 H571 0.951 . S
C595 C596 1.366 . S
C595 C597 1.388 . S
C596 C595 1.366 . S
C596 C600 1.385 . S
C597 H572 0.951 . S
C597 C595 1.388 . S
C597 C598 1.366 . S
C598 C597 1.366 . S
C598 C599 1.414 . S
C598 C601 1.499 . S
C599 H573 0.950 . S
C599 C598 1.414 . S
C599 C600 1.374 . S
C600 H574 0.950 . S
C600 C596 1.385 . S
C600 C599 1.374 . S
C601 C598 1.499 . S
C601 C602 1.373 . S
C601 C603 1.389 . S
C602 H575 0.950 . S
C602 C588 1.377 . S
C602 C601 1.373 . S
C603 C587 1.377 . S
C603 C601 1.389 . S
C603 C604 1.524 . S
C604 C603 1.524 . S
C604 C605 1.397 . S
C604 C609 1.363 . S
C605 H576 0.950 . S
C605 C604 1.397 . S
C605 C606 1.334 . S
C606 H577 0.950 . S
C606 C605 1.334 . S
C606 C607 1.287 . S
C607 C606 1.287 . S
C607 C608 1.524 1_545 S
C607 H610 0.999 1_545 S
C608 H578 0.950 . S
C608 C607 1.524 1_565 S
C608 C609 1.415 1_565 S
C609 H579 0.950 1_545 S
C609 C604 1.363 . S
C609 C608 1.415 1_545 S
H610 C607 0.999 1_565 S
H611 C592 0.913 . S
H612 C630 0.951 . S
H613 C632 0.951 . S
H614 C634 0.950 . S
H615 C635 0.950 . S
H616 C637 0.950 . S
H617 C640 0.950 . S
H618 C641 0.950 . S
H619 C643 0.950 . S
H620 C644 0.950 . S
H621 C645 0.951 . S
H622 C647 0.951 . S
H623 C649 0.950 . S
H624 C650 0.950 . S
H625 C652 0.950 . S
H626 C655 0.950 . S
H627 C656 0.950 . S
H628 C658 0.950 . S
H629 C659 0.950 . S
C630 H612 0.951 . S
C630 C631 1.366 . S
C630 C632 1.388 . S
C631 C630 1.366 . S
C631 C635 1.385 . S
C632 H613 0.951 . S
C632 C630 1.388 . S
C632 C633 1.366 . S
C633 C632 1.366 . S
C633 C634 1.414 . S
C633 C636 1.499 . S
C634 H614 0.950 . S
C634 C633 1.414 . S
C634 C635 1.374 . S
C635 H615 0.950 . S
C635 C631 1.385 . S
C635 C634 1.374 . S
C636 C633 1.499 . S
C636 C637 1.373 . S
C636 C638 1.389 . S
C637 H616 0.950 . S
C637 C636 1.373 . S
C637 C653 1.377 . S
C638 C636 1.389 . S
C638 C639 1.524 . S
C638 C652 1.377 . S
C639 C638 1.524 . S
C639 C640 1.397 . S
C639 C644 1.363 . S
C640 H617 0.950 . S
C640 C639 1.397 . S
C640 C641 1.334 . S
C641 H618 0.950 . S
C641 C640 1.334 . S
C641 C642 1.287 . S
C642 C641 1.287 . S
C642 C643 1.524 . S
C642 H661 0.913 . S
C643 H619 0.950 . S
C643 C642 1.524 . S
C643 C644 1.415 . S
C644 H620 0.950 . S
C644 C639 1.363 . S
C644 C643 1.415 . S
C645 H621 0.951 . S
C645 C646 1.366 . S
C645 C647 1.388 . S
C646 C645 1.366 . S
C646 C650 1.385 . S
C647 H622 0.951 . S
C647 C645 1.388 . S
C647 C648 1.366 . S
C648 C647 1.366 . S
C648 C649 1.414 . S
C648 C651 1.499 . S
C649 H623 0.950 . S
C649 C648 1.414 . S
C649 C650 1.374 . S
C650 H624 0.950 . S
C650 C646 1.385 . S
C650 C649 1.374 . S
C651 C648 1.499 . S
C651 C652 1.373 . S
C651 C653 1.389 . S
C652 H625 0.950 . S
C652 C638 1.377 . S
C652 C651 1.373 . S
C653 C637 1.377 . S
C653 C651 1.389 . S
C653 C654 1.524 . S
C654 C653 1.524 . S
C654 C655 1.397 . S
C654 C659 1.363 . S
C655 H626 0.950 . S
C655 C654 1.397 . S
C655 C656 1.334 . S
C656 H627 0.950 . S
C656 C655 1.334 . S
C656 C657 1.287 . S
C657 C656 1.287 . S
C657 C658 1.524 . S
C657 H660 0.999 1_545 S
C658 H628 0.950 . S
C658 C657 1.524 . S
C658 C659 1.415 . S
C659 H629 0.950 . S
C659 C654 1.363 . S
C659 C658 1.415 . S
H660 C657 0.999 1_565 S
H661 C642 0.913 . S
H662 C680 0.951 . S
H663 C682 0.951 . S
H664 C684 0.972 . S
H665 C685 0.950 . S
H666 C687 0.950 . S
H667 C690 0.950 1_565 S
H668 C691 0.950 . S
H669 C693 0.942 1_655 S
H670 C694 0.950 . S
H671 C695 0.951 . S
H672 C697 0.951 . S
H673 C699 0.950 . S
H674 C700 0.950 . S
H675 C702 0.950 . S
H676 C705 0.950 . S
H677 C706 0.950 . S
H678 C708 0.950 . S
H679 C709 0.950 . S
C680 H662 0.951 . S
C680 C681 1.366 . S
C680 C682 1.388 . S
C681 C680 1.366 . S
C681 C685 1.385 . S
C682 H663 0.951 . S
C682 C680 1.388 . S
C682 C683 1.366 . S
C683 C682 1.366 . S
C683 C684 1.414 . S
C683 C686 1.499 1_545 S
C684 H664 0.972 . S
C684 C683 1.414 . S
C684 C685 1.374 . S
C685 H665 0.950 . S
C685 C681 1.385 . S
C685 C684 1.374 . S
C686 C683 1.499 1_565 S
C686 C687 1.373 . S
C686 C688 1.389 . S
C687 H666 0.950 . S
C687 C686 1.373 . S
C687 C703 1.377 . S
C688 C686 1.389 . S
C688 C689 1.524 1_565 S
C688 C702 1.377 . S
C689 C688 1.524 1_545 S
C689 C690 1.397 . S
C689 C694 1.363 . S
C690 H667 0.950 1_545 S
C690 C689 1.397 . S
C690 C691 1.334 . S
C691 H668 0.950 . S
C691 C690 1.334 . S
C691 C692 1.287 . S
C692 C691 1.287 . S
C692 C693 1.524 . S
C692 H711 0.913 . S
C693 H669 0.942 1_455 S
C693 C692 1.524 . S
C693 C694 1.415 . S
C694 H670 0.950 . S
C694 C689 1.363 . S
C694 C693 1.415 . S
C695 H671 0.951 . S
C695 C696 1.366 . S
C695 C697 1.388 . S
C696 C695 1.366 . S
C696 C700 1.385 . S
C697 H672 0.951 . S
C697 C695 1.388 . S
C697 C698 1.366 . S
C698 C697 1.366 . S
C698 C699 1.414 . S
C698 C701 1.499 . S
C699 H673 0.950 . S
C699 C698 1.414 . S
C699 C700 1.374 . S
C700 H674 0.950 . S
C700 C696 1.385 . S
C700 C699 1.374 . S
C701 C698 1.499 . S
C701 C702 1.373 . S
C701 C703 1.389 . S
C702 H675 0.950 . S
C702 C688 1.377 . S
C702 C701 1.373 . S
C703 C687 1.377 . S
C703 C701 1.389 . S
C703 C704 1.524 . S
C704 C703 1.524 . S
C704 C705 1.397 . S
C704 C709 1.363 . S
C705 H676 0.950 . S
C705 C704 1.397 . S
C705 C706 1.334 . S
C706 H677 0.950 . S
C706 C705 1.334 . S
C706 C707 1.287 . S
C707 C706 1.287 . S
C707 C708 1.524 . S
C707 H710 0.999 . S
C708 H678 0.950 . S
C708 C707 1.524 . S
C708 C709 1.415 . S
C709 H679 0.950 . S
C709 C704 1.363 . S
C709 C708 1.415 . S
H710 C707 0.999 . S
H711 C692 0.913 . S
H712 C730 0.951 . S
H713 C732 0.951 . S
H714 C734 0.950 . S
H715 C735 0.950 . S
H716 C737 0.950 . S
H717 C740 0.950 . S
H718 C741 0.950 . S
H719 C743 0.950 . S
H720 C744 0.950 . S
H721 C745 0.951 . S
H722 C747 0.951 . S
H723 C749 0.950 . S
H724 C750 0.950 . S
H725 C752 0.950 . S
H726 C755 0.950 . S
H727 C756 0.950 . S
H728 C758 0.950 1_565 S
H729 C759 0.950 . S
C730 H712 0.951 . S
C730 C731 1.366 . S
C730 C732 1.388 . S
C731 C730 1.366 . S
C731 C735 1.385 . S
C732 H713 0.951 . S
C732 C730 1.388 . S
C732 C733 1.366 . S
C733 C732 1.366 . S
C733 C734 1.414 . S
C733 C736 1.499 . S
C734 H714 0.950 . S
C734 C733 1.414 . S
C734 C735 1.374 . S
C735 H715 0.950 . S
C735 C731 1.385 . S
C735 C734 1.374 . S
C736 C733 1.499 . S
C736 C737 1.373 . S
C736 C738 1.389 . S
C737 H716 0.950 . S
C737 C736 1.373 . S
C737 C753 1.377 . S
C738 C736 1.389 . S
C738 C739 1.524 . S
C738 C752 1.377 . S
C739 C738 1.524 . S
C739 C740 1.397 . S
C739 C744 1.363 . S
C740 H717 0.950 . S
C740 C739 1.397 . S
C740 C741 1.334 . S
C741 H718 0.950 . S
C741 C740 1.334 . S
C741 C742 1.287 . S
C742 C741 1.287 . S
C742 C743 1.524 . S
C742 H761 0.913 . S
C743 H719 0.950 . S
C743 C742 1.524 . S
C743 C744 1.415 . S
C744 H720 0.950 . S
C744 C739 1.363 . S
C744 C743 1.415 . S
C745 H721 0.951 . S
C745 C746 1.366 . S
C745 C747 1.388 . S
C746 C745 1.366 . S
C746 C750 1.385 . S
C747 H722 0.951 . S
C747 C745 1.388 . S
C747 C748 1.366 . S
C748 C747 1.366 . S
C748 C749 1.414 . S
C748 C751 1.499 . S
C749 H723 0.950 . S
C749 C748 1.414 . S
C749 C750 1.374 . S
C750 H724 0.950 . S
C750 C746 1.385 . S
C750 C749 1.374 . S
C751 C748 1.499 . S
C751 C752 1.373 . S
C751 C753 1.389 . S
C752 H725 0.950 . S
C752 C738 1.377 . S
C752 C751 1.373 . S
C753 C737 1.377 . S
C753 C751 1.389 . S
C753 C754 1.524 . S
C754 C753 1.524 . S
C754 C755 1.397 . S
C754 C759 1.363 . S
C755 H726 0.950 . S
C755 C754 1.397 . S
C755 C756 1.334 . S
C756 H727 0.950 . S
C756 C755 1.334 . S
C756 C757 1.287 . S
C757 C756 1.287 . S
C757 C758 1.524 . S
C757 H760 0.999 1_545 S
C758 H728 0.950 1_545 S
C758 C757 1.524 . S
C758 C759 1.415 . S
C759 H729 0.950 . S
C759 C754 1.363 . S
C759 C758 1.415 . S
H760 C757 0.999 1_565 S
H761 C742 0.913 . S
H762 C780 0.951 . S
H763 C782 0.951 . S
H764 C784 0.950 1_545 S
H765 C785 0.950 . S
H766 C787 0.950 . S
H767 C790 0.950 . S
H768 C791 0.950 . S
H769 C793 0.950 . S
H770 C794 0.950 . S
H771 C795 0.951 . S
H772 C797 0.951 . S
H773 C799 0.950 . S
H774 C800 0.950 . S
H775 C802 0.950 . S
H776 C805 0.950 . S
H777 C806 0.950 . S
H778 C808 0.950 . S
H779 C809 0.950 . S
C780 H762 0.951 . S
C780 C781 1.366 . S
C780 C782 1.388 . S
C781 C780 1.366 . S
C781 C785 1.385 . S
C782 H763 0.951 . S
C782 C780 1.388 . S
C782 C783 1.366 . S
C783 C782 1.366 . S
C783 C784 1.414 . S
C783 C786 1.499 1_565 S
C784 H764 0.950 1_565 S
C784 C783 1.414 . S
C784 C785 1.374 . S
C785 H765 0.950 . S
C785 C781 1.385 . S
C785 C784 1.374 . S
C786 C783 1.499 1_545 S
C786 C787 1.373 . S
C786 C788 1.389 . S
C787 H766 0.950 . S
C787 C786 1.373 . S
C787 C803 1.377 . S
C788 C786 1.389 . S
C788 C789 1.524 1_545 S
C788 C802 1.377 . S
C789 C788 1.524 1_565 S
C789 C790 1.397 . S
C789 C794 1.363 . S
C790 H767 0.950 . S
C790 C789 1.397 . S
C790 C791 1.334 . S
C791 H768 0.950 . S
C791 C790 1.334 . S
C791 C792 1.287 . S
C792 C791 1.287 . S
C792 C793 1.524 . S
C792 H811 0.913 . S
C793 H769 0.950 . S
C793 C792 1.524 . S
C793 C794 1.415 . S
C794 H770 0.950 . S
C794 C789 1.363 . S
C794 C793 1.415 . S
C795 H771 0.951 . S
C795 C796 1.366 . S
C795 C797 1.388 . S
C796 C795 1.366 . S
C796 C800 1.385 . S
C797 H772 0.951 . S
C797 C795 1.388 . S
C797 C798 1.366 . S
C798 C797 1.366 . S
C798 C799 1.414 . S
C798 C801 1.499 . S
C799 H773 0.950 . S
C799 C798 1.414 . S
C799 C800 1.374 . S
C800 H774 0.950 . S
C800 C796 1.385 . S
C800 C799 1.374 . S
C801 C798 1.499 . S
C801 C802 1.373 . S
C801 C803 1.389 . S
C802 H775 0.950 . S
C802 C788 1.377 . S
C802 C801 1.373 . S
C803 C787 1.377 . S
C803 C801 1.389 . S
C803 C804 1.524 . S
C804 C803 1.524 . S
C804 C805 1.397 . S
C804 C809 1.363 . S
C805 H776 0.950 . S
C805 C804 1.397 . S
C805 C806 1.334 . S
C806 H777 0.950 . S
C806 C805 1.334 . S
C806 C807 1.287 . S
C807 C806 1.287 . S
C807 C808 1.524 . S
C807 H810 0.999 . S
C808 H778 0.950 . S
C808 C807 1.524 . S
C808 C809 1.415 . S
C809 H779 0.950 . S
C809 C804 1.363 . S
C809 C808 1.415 . S
H810 C807 0.999 . S
H811 C792 0.913 . S
H812 C830 0.951 . S
H813 C832 0.951 . S
H814 C834 0.950 . S
H815 C835 0.950 . S
H816 C837 0.950 . S
H817 C840 0.950 . S
H818 C841 0.950 1_545 S
H819 C843 0.950 . S
H820 C844 0.950 . S
H821 C845 0.951 . S
H822 C847 0.951 . S
H823 C849 0.950 . S
H824 C850 0.950 . S
H825 C852 0.950 . S
H826 C855 0.950 . S
H827 C856 0.950 . S
H828 C858 0.950 . S
H829 C859 0.950 . S
C830 H812 0.951 . S
C830 C831 1.366 . S
C830 C832 1.388 . S
C831 C830 1.366 . S
C831 C835 1.385 . S
C832 H813 0.951 . S
C832 C830 1.388 . S
C832 C833 1.366 . S
C833 C832 1.366 . S
C833 C834 1.414 . S
C833 C836 1.499 . S
C834 H814 0.950 . S
C834 C833 1.414 . S
C834 C835 1.374 . S
C835 H815 0.950 . S
C835 C831 1.385 . S
C835 C834 1.374 . S
C836 C833 1.499 . S
C836 C837 1.373 . S
C836 C838 1.389 . S
C837 H816 0.950 . S
C837 C836 1.373 . S
C837 C853 1.377 . S
C838 C836 1.389 . S
C838 C839 1.524 . S
C838 C852 1.377 . S
C839 C838 1.524 . S
C839 C840 1.397 . S
C839 C844 1.363 . S
C840 H817 0.950 . S
C840 C839 1.397 . S
C840 C841 1.334 . S
C841 H818 0.950 1_565 S
C841 C840 1.334 . S
C841 C842 1.287 1_565 S
C842 C841 1.287 1_545 S
C842 C843 1.524 . S
C842 H861 0.913 . S
C843 H819 0.950 . S
C843 C842 1.524 . S
C843 C844 1.415 1_545 S
C844 H820 0.950 . S
C844 C839 1.363 . S
C844 C843 1.415 1_565 S
C845 H821 0.951 . S
C845 C846 1.366 . S
C845 C847 1.388 . S
C846 C845 1.366 . S
C846 C850 1.385 . S
C847 H822 0.951 . S
C847 C845 1.388 . S
C847 C848 1.366 . S
C848 C847 1.366 . S
C848 C849 1.414 . S
C848 C851 1.499 . S
C849 H823 0.950 . S
C849 C848 1.414 . S
C849 C850 1.374 . S
C850 H824 0.950 . S
C850 C846 1.385 . S
C850 C849 1.374 . S
C851 C848 1.499 . S
C851 C852 1.373 . S
C851 C853 1.389 . S
C852 H825 0.950 . S
C852 C838 1.377 . S
C852 C851 1.373 . S
C853 C837 1.377 . S
C853 C851 1.389 . S
C853 C854 1.524 . S
C854 C853 1.524 . S
C854 C855 1.397 . S
C854 C859 1.363 . S
C855 H826 0.950 . S
C855 C854 1.397 . S
C855 C856 1.334 . S
C856 H827 0.950 . S
C856 C855 1.334 . S
C856 C857 1.287 . S
C857 C856 1.287 . S
C857 C858 1.524 . S
C857 H860 0.999 . S
C858 H828 0.950 . S
C858 C857 1.524 . S
C858 C859 1.415 . S
C859 H829 0.950 . S
C859 C854 1.363 . S
C859 C858 1.415 . S
H860 C857 0.999 . S
H861 C842 0.913 . S
H862 C880 0.951 . S
H863 C882 0.951 . S
H864 C884 0.950 . S
H865 C885 0.950 . S
H866 C887 0.950 1_545 S
H867 C890 0.950 . S
H868 C891 0.950 . S
H869 C893 0.950 . S
H870 C894 0.950 . S
H871 C895 0.951 . S
H872 C897 0.951 . S
H873 C899 0.950 . S
H874 C900 0.950 . S
H875 C902 0.950 . S
H876 C905 0.950 . S
H877 C906 0.950 . S
H878 C908 0.950 . S
H879 C909 0.950 . S
C880 H862 0.951 . S
C880 C881 1.366 . S
C880 C882 1.388 . S
C881 C880 1.366 . S
C881 C885 1.385 . S
C882 H863 0.951 . S
C882 C880 1.388 . S
C882 C883 1.366 . S
C883 C882 1.366 . S
C883 C884 1.414 . S
C883 C886 1.499 1_545 S
C884 H864 0.950 . S
C884 C883 1.414 . S
C884 C885 1.374 . S
C885 H865 0.950 . S
C885 C881 1.385 . S
C885 C884 1.374 . S
C886 C883 1.499 1_565 S
C886 C887 1.373 . S
C886 C888 1.389 . S
C887 H866 0.950 1_565 S
C887 C886 1.373 . S
C887 C903 1.377 . S
C888 C886 1.389 . S
C888 C889 1.524 . S
C888 C902 1.377 . S
C889 C888 1.524 . S
C889 C890 1.397 . S
C889 C894 1.363 . S
C890 H867 0.950 . S
C890 C889 1.397 . S
C890 C891 1.334 . S
C891 H868 0.950 . S
C891 C890 1.334 . S
C891 C892 1.287 . S
C892 C891 1.287 . S
C892 C893 1.524 . S
C892 H911 0.913 . S
C893 H869 0.950 . S
C893 C892 1.524 . S
C893 C894 1.415 . S
C894 H870 0.950 . S
C894 C889 1.363 . S
C894 C893 1.415 . S
C895 H871 0.951 . S
C895 C896 1.366 . S
C895 C897 1.388 . S
C896 C895 1.366 . S
C896 C900 1.385 . S
C897 H872 0.951 . S
C897 C895 1.388 . S
C897 C898 1.366 . S
C898 C897 1.366 . S
C898 C899 1.414 . S
C898 C901 1.499 . S
C899 H873 0.950 . S
C899 C898 1.414 . S
C899 C900 1.374 . S
C900 H874 0.950 . S
C900 C896 1.385 . S
C900 C899 1.374 . S
C901 C898 1.499 . S
C901 C902 1.373 . S
C901 C903 1.389 . S
C902 H875 0.950 . S
C902 C888 1.377 . S
C902 C901 1.373 . S
C903 C887 1.377 . S
C903 C901 1.389 . S
C903 C904 1.524 . S
C904 C903 1.524 . S
C904 C905 1.397 . S
C904 C909 1.363 . S
C905 H876 0.950 . S
C905 C904 1.397 . S
C905 C906 1.334 . S
C906 H877 0.950 . S
C906 C905 1.334 . S
C906 C907 1.287 . S
C907 C906 1.287 . S
C907 C908 1.524 . S
C907 H910 0.999 . S
C908 H878 0.950 . S
C908 C907 1.524 . S
C908 C909 1.415 . S
C909 H879 0.950 . S
C909 C904 1.363 . S
C909 C908 1.415 . S
H910 C907 0.999 . S
H911 C892 0.913 . S
H912 C930 0.951 . S
H913 C932 0.951 . S
H914 C934 0.950 . S
H915 C935 0.950 . S
H916 C937 0.950 . S
H917 C940 0.950 . S
H918 C941 0.950 . S
H919 C943 0.950 . S
H920 C944 0.950 . S
H921 C945 0.951 . S
H922 C947 0.951 . S
H923 C949 0.950 . S
H924 C950 0.950 . S
H925 C952 0.950 . S
H926 C955 0.950 . S
H927 C956 0.950 . S
H928 C958 0.950 1_565 S
H929 C959 0.950 . S
C930 H912 0.951 . S
C930 C931 1.366 . S
C930 C932 1.388 . S
C931 C930 1.366 . S
C931 C935 1.385 . S
C932 H913 0.951 . S
C932 C930 1.388 . S
C932 C933 1.366 . S
C933 C932 1.366 . S
C933 C934 1.414 . S
C933 C936 1.499 . S
C934 H914 0.950 . S
C934 C933 1.414 . S
C934 C935 1.374 . S
C935 H915 0.950 . S
C935 C931 1.385 . S
C935 C934 1.374 . S
C936 C933 1.499 . S
C936 C937 1.373 . S
C936 C938 1.389 . S
C937 H916 0.950 . S
C937 C936 1.373 . S
C937 C953 1.377 . S
C938 C936 1.389 . S
C938 C939 1.524 . S
C938 C952 1.377 . S
C939 C938 1.524 . S
C939 C940 1.397 . S
C939 C944 1.363 . S
C940 H917 0.950 . S
C940 C939 1.397 . S
C940 C941 1.334 . S
C941 H918 0.950 . S
C941 C940 1.334 . S
C941 C942 1.287 . S
C942 C941 1.287 . S
C942 C943 1.524 . S
C942 H961 0.913 . S
C943 H919 0.950 . S
C943 C942 1.524 . S
C943 C944 1.415 . S
C944 H920 0.950 . S
C944 C939 1.363 . S
C944 C943 1.415 . S
C945 H921 0.951 . S
C945 C946 1.366 . S
C945 C947 1.388 . S
C946 C945 1.366 . S
C946 C950 1.385 . S
C947 H922 0.951 . S
C947 C945 1.388 . S
C947 C948 1.366 . S
C948 C947 1.366 . S
C948 C949 1.414 . S
C948 C951 1.499 . S
C949 H923 0.950 . S
C949 C948 1.414 . S
C949 C950 1.374 . S
C950 H924 0.950 . S
C950 C946 1.385 . S
C950 C949 1.374 . S
C951 C948 1.499 . S
C951 C952 1.373 . S
C951 C953 1.389 . S
C952 H925 0.950 . S
C952 C938 1.377 . S
C952 C951 1.373 . S
C953 C937 1.377 . S
C953 C951 1.389 . S
C953 C954 1.524 . S
C954 C953 1.524 . S
C954 C955 1.397 . S
C954 C959 1.363 . S
C955 H926 0.950 . S
C955 C954 1.397 . S
C955 C956 1.334 . S
C956 H927 0.950 . S
C956 C955 1.334 . S
C956 C957 1.287 . S
C957 C956 1.287 . S
C957 C958 1.524 . S
C957 H960 0.999 . S
C958 H928 0.950 1_545 S
C958 C957 1.524 . S
C958 C959 1.415 . S
C959 H929 0.950 . S
C959 C954 1.363 . S
C959 C958 1.415 . S
H960 C957 0.999 . S
H961 C942 0.913 . S
H962 C980 0.951 . S
H963 C982 0.951 . S
H964 C984 0.950 . S
H965 C985 0.950 . S
H966 C987 0.950 . S
H967 C990 0.950 . S
H968 C991 0.950 . S
H969 C993 0.950 . S
H970 C994 0.950 1_565 S
H971 C995 0.951 . S
H972 C997 0.951 . S
H973 C999 0.950 . S
H974 C1000 0.950 . S
H975 C1002 0.950 . S
H976 C1005 0.950 . S
H977 C1006 0.950 . S
H978 C1008 0.950 . S
H979 C1009 0.950 . S
C980 H962 0.951 . S
C980 C981 1.366 . S
C980 C982 1.388 . S
C981 C980 1.366 . S
C981 C985 1.385 . S
C982 H963 0.951 . S
C982 C980 1.388 . S
C982 C983 1.366 . S
C983 C982 1.366 . S
C983 C984 1.414 . S
C983 C986 1.499 . S
C984 H964 0.950 . S
C984 C983 1.414 . S
C984 C985 1.374 . S
C985 H965 0.950 . S
C985 C981 1.385 . S
C985 C984 1.374 . S
C986 C983 1.499 . S
C986 C987 1.373 1_545 S
C986 C988 1.389 1_545 S
C987 H966 0.950 . S
C987 C986 1.373 1_565 S
C987 C1003 1.377 . S
C988 C986 1.389 1_565 S
C988 C989 1.524 1_565 S
C988 C1002 1.377 . S
C989 C988 1.524 1_545 S
C989 C990 1.397 . S
C989 C994 1.363 . S
C990 H967 0.950 . S
C990 C989 1.397 . S
C990 C991 1.334 . S
C991 H968 0.950 . S
C991 C990 1.334 . S
C991 C992 1.287 . S
C992 C991 1.287 . S
C992 C993 1.524 . S
C992 H1011 0.913 . S
C993 H969 0.950 . S
C993 C992 1.524 . S
C993 C994 1.415 . S
C994 H970 0.950 1_545 S
C994 C989 1.363 . S
C994 C993 1.415 . S
C995 H971 0.951 . S
C995 C996 1.366 . S
C995 C997 1.388 . S
C996 C995 1.366 . S
C996 C1000 1.385 . S
C997 H972 0.951 . S
C997 C995 1.388 . S
C997 C998 1.366 . S
C998 C997 1.366 . S
C998 C999 1.414 . S
C998 C1001 1.499 . S
C999 H973 0.950 . S
C999 C998 1.414 . S
C999 C1000 1.374 . S
C1000 H974 0.950 . S
C1000 C996 1.385 . S
C1000 C999 1.374 . S
C1001 C998 1.499 . S
C1001 C1002 1.373 . S
C1001 C1003 1.389 . S
C1002 H975 0.950 . S
C1002 C988 1.377 . S
C1002 C1001 1.373 . S
C1003 C987 1.377 . S
C1003 C1001 1.389 . S
C1003 C1004 1.524 . S
C1004 C1003 1.524 . S
C1004 C1005 1.397 . S
C1004 C1009 1.363 . S
C1005 H976 0.950 . S
C1005 C1004 1.397 . S
C1005 C1006 1.334 . S
C1006 H977 0.950 . S
C1006 C1005 1.334 . S
C1006 C1007 1.287 . S
C1007 C1006 1.287 . S
C1007 C1008 1.524 . S
C1007 H1010 0.999 . S
C1008 H978 0.950 . S
C1008 C1007 1.524 . S
C1008 C1009 1.415 . S
C1009 H979 0.950 . S
C1009 C1004 1.363 . S
C1009 C1008 1.415 . S
H1010 C1007 0.999 . S
H1011 C992 0.913 . S
H1012 C1030 0.951 . S
H1013 C1032 0.951 . S
H1014 C1034 0.950 . S
H1015 C1035 0.950 . S
H1016 C1037 0.950 . S
H1017 C1040 0.950 . S
H1018 C1041 0.950 . S
H1019 C1043 0.950 . S
H1020 C1044 0.950 . S
H1021 C1045 0.951 . S
H1022 C1047 0.951 . S
H1023 C1049 0.950 . S
H1024 C1050 0.950 . S
H1025 C1052 0.950 . S
H1026 C1055 0.950 . S
H1027 C1056 0.950 . S
H1028 C1058 0.950 . S
H1029 C1059 0.950 . S
C1030 H1012 0.951 . S
C1030 C1031 1.366 . S
C1030 C1032 1.388 . S
C1031 C1030 1.366 . S
C1031 C1035 1.385 . S
C1032 H1013 0.951 . S
C1032 C1030 1.388 . S
C1032 C1033 1.366 . S
C1033 C1032 1.366 . S
C1033 C1034 1.414 . S
C1033 C1036 1.499 . S
C1034 H1014 0.950 . S
C1034 C1033 1.414 . S
C1034 C1035 1.374 . S
C1035 H1015 0.950 . S
C1035 C1031 1.385 . S
C1035 C1034 1.374 . S
C1036 C1033 1.499 . S
C1036 C1037 1.373 . S
C1036 C1038 1.389 . S
C1037 H1016 0.950 . S
C1037 C1036 1.373 . S
C1037 C1053 1.377 . S
C1038 C1036 1.389 . S
C1038 C1039 1.524 . S
C1038 C1052 1.377 . S
C1039 C1038 1.524 . S
C1039 C1040 1.397 . S
C1039 C1044 1.363 . S
C1040 H1017 0.950 . S
C1040 C1039 1.397 . S
C1040 C1041 1.334 1_565 S
C1041 H1018 0.950 . S
C1041 C1040 1.334 1_545 S
C1041 C1042 1.287 . S
C1042 C1041 1.287 . S
C1042 C1043 1.524 1_545 S
C1042 H1061 0.913 . S
C1043 H1019 0.950 . S
C1043 C1042 1.524 1_565 S
C1043 C1044 1.415 . S
C1044 H1020 0.950 . S
C1044 C1039 1.363 . S
C1044 C1043 1.415 . S
C1045 H1021 0.951 . S
C1045 C1046 1.366 . S
C1045 C1047 1.388 . S
C1046 C1045 1.366 . S
C1046 C1050 1.385 . S
C1047 H1022 0.951 . S
C1047 C1045 1.388 . S
C1047 C1048 1.366 . S
C1048 C1047 1.366 . S
C1048 C1049 1.414 . S
C1048 C1051 1.499 . S
C1049 H1023 0.950 . S
C1049 C1048 1.414 . S
C1049 C1050 1.374 . S
C1050 H1024 0.950 . S
C1050 C1046 1.385 . S
C1050 C1049 1.374 . S
C1051 C1048 1.499 . S
C1051 C1052 1.373 . S
C1051 C1053 1.389 . S
C1052 H1025 0.950 . S
C1052 C1038 1.377 . S
C1052 C1051 1.373 . S
C1053 C1037 1.377 . S
C1053 C1051 1.389 . S
C1053 C1054 1.524 . S
C1054 C1053 1.524 . S
C1054 C1055 1.397 . S
C1054 C1059 1.363 . S
C1055 H1026 0.950 . S
C1055 C1054 1.397 . S
C1055 C1056 1.334 . S
C1056 H1027 0.950 . S
C1056 C1055 1.334 . S
C1056 C1057 1.287 . S
C1057 C1056 1.287 . S
C1057 C1058 1.524 . S
C1057 H1060 0.999 . S
C1058 H1028 0.950 . S
C1058 C1057 1.524 . S
C1058 C1059 1.415 . S
C1059 H1029 0.950 . S
C1059 C1054 1.363 . S
C1059 C1058 1.415 . S
H1060 C1057 0.999 . S
H1061 C1042 0.913 . S
H1062 C1080 0.951 . S
H1063 C1082 0.951 . S
H1064 C1084 0.950 1_545 S
H1065 C1085 0.950 . S
H1066 C1087 0.950 . S
H1067 C1090 0.950 . S
H1068 C1091 0.950 . S
H1069 C1093 0.950 . S
H1070 C1094 0.950 . S
H1071 C1095 0.951 . S
H1072 C1097 0.951 . S
H1073 C1099 0.950 . S
H1074 C1100 0.950 . S
H1075 C1102 0.950 . S
H1076 C1105 0.950 . S
H1077 C1106 0.950 . S
H1078 C1108 0.950 . S
H1079 C1109 0.950 . S
C1080 H1062 0.951 . S
C1080 C1081 1.366 . S
C1080 C1082 1.388 . S
C1081 C1080 1.366 . S
C1081 C1085 1.385 . S
C1082 H1063 0.951 . S
C1082 C1080 1.388 . S
C1082 C1083 1.366 . S
C1083 C1082 1.366 . S
C1083 C1084 1.414 . S
C1083 C1086 1.499 1_565 S
C1084 H1064 0.950 1_565 S
C1084 C1083 1.414 . S
C1084 C1085 1.374 . S
C1085 H1065 0.950 . S
C1085 C1081 1.385 . S
C1085 C1084 1.374 . S
C1086 C1083 1.499 1_545 S
C1086 C1087 1.373 . S
C1086 C1088 1.389 . S
C1087 H1066 0.950 . S
C1087 C1086 1.373 . S
C1087 C1103 1.377 . S
C1088 C1086 1.389 . S
C1088 C1089 1.524 1_545 S
C1088 C1102 1.377 . S
C1089 C1088 1.524 1_565 S
C1089 C1090 1.397 . S
C1089 C1094 1.363 . S
C1090 H1067 0.950 . S
C1090 C1089 1.397 . S
C1090 C1091 1.334 . S
C1091 H1068 0.950 . S
C1091 C1090 1.334 . S
C1091 C1092 1.287 . S
C1092 C1091 1.287 . S
C1092 C1093 1.524 . S
C1092 H1111 0.913 . S
C1093 H1069 0.950 . S
C1093 C1092 1.524 . S
C1093 C1094 1.415 . S
C1094 H1070 0.950 . S
C1094 C1089 1.363 . S
C1094 C1093 1.415 . S
C1095 H1071 0.951 . S
C1095 C1096 1.366 . S
C1095 C1097 1.388 . S
C1096 C1095 1.366 . S
C1096 C1100 1.385 . S
C1097 H1072 0.951 . S
C1097 C1095 1.388 . S
C1097 C1098 1.366 . S
C1098 C1097 1.366 . S
C1098 C1099 1.414 . S
C1098 C1101 1.499 . S
C1099 H1073 0.950 . S
C1099 C1098 1.414 . S
C1099 C1100 1.374 . S
C1100 H1074 0.950 . S
C1100 C1096 1.385 . S
C1100 C1099 1.374 . S
C1101 C1098 1.499 . S
C1101 C1102 1.373 . S
C1101 C1103 1.389 . S
C1102 H1075 0.950 . S
C1102 C1088 1.377 . S
C1102 C1101 1.373 . S
C1103 C1087 1.377 . S
C1103 C1101 1.389 . S
C1103 C1104 1.524 . S
C1104 C1103 1.524 . S
C1104 C1105 1.397 . S
C1104 C1109 1.363 . S
C1105 H1076 0.950 . S
C1105 C1104 1.397 . S
C1105 C1106 1.334 . S
C1106 H1077 0.950 . S
C1106 C1105 1.334 . S
C1106 C1107 1.287 . S
C1107 C1106 1.287 . S
C1107 C1108 1.524 . S
C1107 H1110 0.999 . S
C1108 H1078 0.950 . S
C1108 C1107 1.524 . S
C1108 C1109 1.415 . S
C1109 H1079 0.950 . S
C1109 C1104 1.363 . S
C1109 C1108 1.415 . S
H1110 C1107 0.999 . S
H1111 C1092 0.913 . S
H1112 C1130 0.951 . S
H1113 C1132 0.951 . S
H1114 C1134 0.950 . S
H1115 C1135 0.950 . S
H1116 C1137 0.950 . S
H1117 C1140 0.950 . S
H1118 C1141 0.950 . S
H1119 C1143 0.950 . S
H1120 C1144 0.950 . S
H1121 C1145 0.951 . S
H1122 C1147 0.951 . S
H1123 C1149 0.950 . S
H1124 C1150 0.950 . S
H1125 C1152 0.950 . S
H1126 C1155 0.950 . S
H1127 C1156 0.950 . S
H1128 C1158 0.950 . S
H1129 C1159 0.950 . S
C1130 H1112 0.951 . S
C1130 C1131 1.366 . S
C1130 C1132 1.388 . S
C1131 C1130 1.366 . S
C1131 C1135 1.385 . S
C1132 H1113 0.951 . S
C1132 C1130 1.388 . S
C1132 C1133 1.366 . S
C1133 C1132 1.366 . S
C1133 C1134 1.414 . S
C1133 C1136 1.499 . S
C1134 H1114 0.950 . S
C1134 C1133 1.414 . S
C1134 C1135 1.374 . S
C1135 H1115 0.950 . S
C1135 C1131 1.385 . S
C1135 C1134 1.374 . S
C1136 C1133 1.499 . S
C1136 C1137 1.373 . S
C1136 C1138 1.389 . S
C1137 H1116 0.950 . S
C1137 C1136 1.373 . S
C1137 C1153 1.377 . S
C1138 C1136 1.389 . S
C1138 C1139 1.524 . S
C1138 C1152 1.377 . S
C1139 C1138 1.524 . S
C1139 C1140 1.397 . S
C1139 C1144 1.363 . S
C1140 H1117 0.950 . S
C1140 C1139 1.397 . S
C1140 C1141 1.334 1_565 S
C1141 H1118 0.950 . S
C1141 C1140 1.334 1_545 S
C1141 C1142 1.287 . S
C1142 C1141 1.287 . S
C1142 C1143 1.524 . S
C1142 H1161 0.913 . S
C1143 H1119 0.950 . S
C1143 C1142 1.524 . S
C1143 C1144 1.415 1_545 S
C1144 H1120 0.950 . S
C1144 C1139 1.363 . S
C1144 C1143 1.415 1_565 S
C1145 H1121 0.951 . S
C1145 C1146 1.366 . S
C1145 C1147 1.388 . S
C1146 C1145 1.366 . S
C1146 C1150 1.385 . S
C1147 H1122 0.951 . S
C1147 C1145 1.388 . S
C1147 C1148 1.366 . S
C1148 C1147 1.366 . S
C1148 C1149 1.414 . S
C1148 C1151 1.499 . S
C1149 H1123 0.950 . S
C1149 C1148 1.414 . S
C1149 C1150 1.374 . S
C1150 H1124 0.950 . S
C1150 C1146 1.385 . S
C1150 C1149 1.374 . S
C1151 C1148 1.499 . S
C1151 C1152 1.373 . S
C1151 C1153 1.389 . S
C1152 H1125 0.950 . S
C1152 C1138 1.377 . S
C1152 C1151 1.373 . S
C1153 C1137 1.377 . S
C1153 C1151 1.389 . S
C1153 C1154 1.524 . S
C1154 C1153 1.524 . S
C1154 C1155 1.397 . S
C1154 C1159 1.363 . S
C1155 H1126 0.950 . S
C1155 C1154 1.397 . S
C1155 C1156 1.334 . S
C1156 H1127 0.950 . S
C1156 C1155 1.334 . S
C1156 C1157 1.287 . S
C1157 C1156 1.287 . S
C1157 C1158 1.524 . S
C1157 H1160 0.999 . S
C1158 H1128 0.950 . S
C1158 C1157 1.524 . S
C1158 C1159 1.415 . S
C1159 H1129 0.950 . S
C1159 C1154 1.363 . S
C1159 C1158 1.415 . S
H1160 C1157 0.999 . S
H1161 C1142 0.913 . S
H1162 C1180 0.951 . S
H1163 C1182 0.951 . S
H1164 C1184 0.950 . S
H1165 C1185 0.950 . S
H1166 C1187 0.950 . S
H1167 C1190 0.950 . S
H1168 C1191 0.950 . S
H1169 C1193 0.950 . S
H1170 C1194 0.950 . S
H1171 C1195 0.951 . S
H1172 C1197 0.951 . S
H1173 C1199 0.950 . S
H1174 C1200 0.950 . S
H1175 C1202 0.950 . S
H1176 C1205 0.950 . S
H1177 C1206 0.950 . S
H1178 C1208 0.950 . S
H1179 C1209 0.950 . S
C1180 H1162 0.951 . S
C1180 C1181 1.366 . S
C1180 C1182 1.388 . S
C1181 C1180 1.366 . S
C1181 C1185 1.385 . S
C1182 H1163 0.951 . S
C1182 C1180 1.388 . S
C1182 C1183 1.366 . S
C1183 C1182 1.366 . S
C1183 C1184 1.414 . S
C1183 C1186 1.499 1_545 S
C1184 H1164 0.950 . S
C1184 C1183 1.414 . S
C1184 C1185 1.374 . S
C1185 H1165 0.950 . S
C1185 C1181 1.385 . S
C1185 C1184 1.374 . S
C1186 C1183 1.499 1_565 S
C1186 C1187 1.373 1_565 S
C1186 C1188 1.389 . S
C1187 H1166 0.950 . S
C1187 C1186 1.373 1_545 S
C1187 C1203 1.377 1_545 S
C1188 C1186 1.389 . S
C1188 C1189 1.524 . S
C1188 C1202 1.377 . S
C1189 C1188 1.524 . S
C1189 C1190 1.397 . S
C1189 C1194 1.363 . S
C1190 H1167 0.950 . S
C1190 C1189 1.397 . S
C1190 C1191 1.334 . S
C1191 H1168 0.950 . S
C1191 C1190 1.334 . S
C1191 C1192 1.287 . S
C1192 C1191 1.287 . S
C1192 C1193 1.524 . S
C1192 H1211 0.913 . S
C1193 H1169 0.950 . S
C1193 C1192 1.524 . S
C1193 C1194 1.415 . S
C1194 H1170 0.950 . S
C1194 C1189 1.363 . S
C1194 C1193 1.415 . S
C1195 H1171 0.951 . S
C1195 C1196 1.366 . S
C1195 C1197 1.388 . S
C1196 C1195 1.366 . S
C1196 C1200 1.385 . S
C1197 H1172 0.951 . S
C1197 C1195 1.388 . S
C1197 C1198 1.366 . S
C1198 C1197 1.366 . S
C1198 C1199 1.414 . S
C1198 C1201 1.499 . S
C1199 H1173 0.950 . S
C1199 C1198 1.414 . S
C1199 C1200 1.374 . S
C1200 H1174 0.950 . S
C1200 C1196 1.385 . S
C1200 C1199 1.374 . S
C1201 C1198 1.499 . S
C1201 C1202 1.373 . S
C1201 C1203 1.389 . S
C1202 H1175 0.950 . S
C1202 C1188 1.377 . S
C1202 C1201 1.373 . S
C1203 C1187 1.377 1_565 S
C1203 C1201 1.389 . S
C1203 C1204 1.524 . S
C1204 C1203 1.524 . S
C1204 C1205 1.397 . S
C1204 C1209 1.363 1_565 S
C1205 H1176 0.950 . S
C1205 C1204 1.397 . S
C1205 C1206 1.334 . S
C1206 H1177 0.950 . S
C1206 C1205 1.334 . S
C1206 C1207 1.287 1_565 S
C1207 C1206 1.287 1_545 S
C1207 C1208 1.524 . S
C1207 H1210 0.999 . S
C1208 H1178 0.950 . S
C1208 C1207 1.524 . S
C1208 C1209 1.415 . S
C1209 H1179 0.950 . S
C1209 C1204 1.363 1_545 S
C1209 C1208 1.415 . S
H1210 C1207 0.999 . S
H1211 C1192 0.913 . S
H1212 C1230 0.951 . S
H1213 C1232 0.951 . S
H1214 C1234 0.950 . S
H1215 C1235 0.950 . S
H1216 C1237 0.950 . S
H1217 C1240 0.950 . S
H1218 C1241 0.950 . S
H1219 C1243 0.950 . S
H1220 C1244 0.950 . S
H1221 C1245 0.951 . S
H1222 C1247 0.951 . S
H1223 C1249 0.950 . S
H1224 C1250 0.950 . S
H1225 C1252 0.950 . S
H1226 C1255 0.950 . S
H1227 C1256 0.950 . S
H1228 C1258 0.950 . S
H1229 C1259 0.950 . S
C1230 H1212 0.951 . S
C1230 C1231 1.366 . S
C1230 C1232 1.388 . S
C1231 C1230 1.366 . S
C1231 C1235 1.385 . S
C1232 H1213 0.951 . S
C1232 C1230 1.388 . S
C1232 C1233 1.366 . S
C1233 C1232 1.366 . S
C1233 C1234 1.414 . S
C1233 C1236 1.499 . S
C1234 H1214 0.950 . S
C1234 C1233 1.414 . S
C1234 C1235 1.374 . S
C1235 H1215 0.950 . S
C1235 C1231 1.385 . S
C1235 C1234 1.374 . S
C1236 C1233 1.499 . S
C1236 C1237 1.373 . S
C1236 C1238 1.389 . S
C1237 H1216 0.950 . S
C1237 C1236 1.373 . S
C1237 C1253 1.377 . S
C1238 C1236 1.389 . S
C1238 C1239 1.524 . S
C1238 C1252 1.377 . S
C1239 C1238 1.524 . S
C1239 C1240 1.397 . S
C1239 C1244 1.363 . S
C1240 H1217 0.950 . S
C1240 C1239 1.397 . S
C1240 C1241 1.334 . S
C1241 H1218 0.950 . S
C1241 C1240 1.334 . S
C1241 C1242 1.287 . S
C1242 C1241 1.287 . S
C1242 C1243 1.524 . S
C1242 H1261 0.913 . S
C1243 H1219 0.950 . S
C1243 C1242 1.524 . S
C1243 C1244 1.415 . S
C1244 H1220 0.950 . S
C1244 C1239 1.363 . S
C1244 C1243 1.415 . S
C1245 H1221 0.951 . S
C1245 C1246 1.366 . S
C1245 C1247 1.388 . S
C1246 C1245 1.366 . S
C1246 C1250 1.385 . S
C1247 H1222 0.951 . S
C1247 C1245 1.388 . S
C1247 C1248 1.366 . S
C1248 C1247 1.366 . S
C1248 C1249 1.414 . S
C1248 C1251 1.499 . S
C1249 H1223 0.950 . S
C1249 C1248 1.414 . S
C1249 C1250 1.374 . S
C1250 H1224 0.950 . S
C1250 C1246 1.385 . S
C1250 C1249 1.374 . S
C1251 C1248 1.499 . S
C1251 C1252 1.373 . S
C1251 C1253 1.389 . S
C1252 H1225 0.950 . S
C1252 C1238 1.377 . S
C1252 C1251 1.373 . S
C1253 C1237 1.377 . S
C1253 C1251 1.389 . S
C1253 C1254 1.524 . S
C1254 C1253 1.524 . S
C1254 C1255 1.397 . S
C1254 C1259 1.363 . S
C1255 H1226 0.950 . S
C1255 C1254 1.397 . S
C1255 C1256 1.334 . S
C1256 H1227 0.950 . S
C1256 C1255 1.334 . S
C1256 C1257 1.287 . S
C1257 C1256 1.287 . S
C1257 C1258 1.524 . S
C1257 H1260 0.999 . S
C1258 H1228 0.950 . S
C1258 C1257 1.524 . S
C1258 C1259 1.415 . S
C1259 H1229 0.950 . S
C1259 C1254 1.363 . S
C1259 C1258 1.415 . S
H1260 C1257 0.999 . S
H1261 C1242 0.913 . S
H1262 C1280 0.951 . S
H1263 C1282 0.951 . S
H1264 C1284 0.950 . S
H1265 C1285 0.950 . S
H1266 C1287 0.950 . S
H1267 C1290 0.950 . S
H1268 C1291 0.950 . S
H1269 C1293 0.950 . S
H1270 C1294 0.950 . S
H1271 C1295 0.951 . S
H1272 C1297 0.951 . S
H1273 C1299 0.950 . S
H1274 C1300 0.950 . S
H1275 C1302 0.950 . S
H1276 C1305 0.950 . S
H1277 C1306 0.950 . S
H1278 C1308 0.950 . S
H1279 C1309 0.950 . S
C1280 H1262 0.951 . S
C1280 C1281 1.366 . S
C1280 C1282 1.388 . S
C1281 C1280 1.366 . S
C1281 C1285 1.385 . S
C1282 H1263 0.951 . S
C1282 C1280 1.388 . S
C1282 C1283 1.366 . S
C1283 C1282 1.366 . S
C1283 C1284 1.414 . S
C1283 C1286 1.499 1_565 S
C1284 H1264 0.950 . S
C1284 C1283 1.414 . S
C1284 C1285 1.374 . S
C1285 H1265 0.950 . S
C1285 C1281 1.385 . S
C1285 C1284 1.374 . S
C1286 C1283 1.499 1_545 S
C1286 C1287 1.373 . S
C1286 C1288 1.389 . S
C1287 H1266 0.950 . S
C1287 C1286 1.373 . S
C1287 C1303 1.377 . S
C1288 C1286 1.389 . S
C1288 C1289 1.524 1_545 S
C1288 C1302 1.377 . S
C1289 C1288 1.524 1_565 S
C1289 C1290 1.397 . S
C1289 C1294 1.363 . S
C1290 H1267 0.950 . S
C1290 C1289 1.397 . S
C1290 C1291 1.334 . S
C1291 H1268 0.950 . S
C1291 C1290 1.334 . S
C1291 C1292 1.287 . S
C1292 C1291 1.287 . S
C1292 C1293 1.524 . S
C1292 H1311 0.913 . S
C1293 H1269 0.950 . S
C1293 C1292 1.524 . S
C1293 C1294 1.415 . S
C1294 H1270 0.950 . S
C1294 C1289 1.363 . S
C1294 C1293 1.415 . S
C1295 H1271 0.951 . S
C1295 C1296 1.366 . S
C1295 C1297 1.388 . S
C1296 C1295 1.366 . S
C1296 C1300 1.385 . S
C1297 H1272 0.951 . S
C1297 C1295 1.388 . S
C1297 C1298 1.366 . S
C1298 C1297 1.366 . S
C1298 C1299 1.414 . S
C1298 C1301 1.499 . S
C1299 H1273 0.950 . S
C1299 C1298 1.414 . S
C1299 C1300 1.374 . S
C1300 H1274 0.950 . S
C1300 C1296 1.385 . S
C1300 C1299 1.374 . S
C1301 C1298 1.499 . S
C1301 C1302 1.373 . S
C1301 C1303 1.389 . S
C1302 H1275 0.950 . S
C1302 C1288 1.377 . S
C1302 C1301 1.373 . S
C1303 C1287 1.377 . S
C1303 C1301 1.389 . S
C1303 C1304 1.524 . S
C1304 C1303 1.524 . S
C1304 C1305 1.397 . S
C1304 C1309 1.363 . S
C1305 H1276 0.950 . S
C1305 C1304 1.397 . S
C1305 C1306 1.334 . S
C1306 H1277 0.950 . S
C1306 C1305 1.334 . S
C1306 C1307 1.287 . S
C1307 C1306 1.287 . S
C1307 C1308 1.524 . S
C1307 H1310 0.999 . S
C1308 H1278 0.950 . S
C1308 C1307 1.524 . S
C1308 C1309 1.415 . S
C1309 H1279 0.950 . S
C1309 C1304 1.363 . S
C1309 C1308 1.415 . S
H1310 C1307 0.999 . S
H1311 C1292 0.913 . S
H1312 C1330 0.951 . S
H1313 C1332 0.951 . S
H1314 C1334 0.950 . S
H1315 C1335 0.950 . S
H1316 C1337 0.950 . S
H1317 C1340 0.950 . S
H1318 C1341 0.950 . S
H1319 C1343 0.950 . S
H1320 C1344 0.950 . S
H1321 C1345 0.951 . S
H1322 C1347 0.951 . S
H1323 C1349 0.950 . S
H1324 C1350 0.950 . S
H1325 C1352 0.950 . S
H1326 C1355 0.950 . S
H1327 C1356 0.950 . S
H1328 C1358 0.950 . S
H1329 C1359 0.950 . S
C1330 H1312 0.951 . S
C1330 C1331 1.366 . S
C1330 C1332 1.388 . S
C1331 C1330 1.366 . S
C1331 C1335 1.385 . S
C1332 H1313 0.951 . S
C1332 C1330 1.388 . S
C1332 C1333 1.366 . S
C1333 C1332 1.366 . S
C1333 C1334 1.414 . S
C1333 C1336 1.499 . S
C1334 H1314 0.950 . S
C1334 C1333 1.414 . S
C1334 C1335 1.374 . S
C1335 H1315 0.950 . S
C1335 C1331 1.385 . S
C1335 C1334 1.374 . S
C1336 C1333 1.499 . S
C1336 C1337 1.373 . S
C1336 C1338 1.389 . S
C1337 H1316 0.950 . S
C1337 C1336 1.373 . S
C1337 C1353 1.377 . S
C1338 C1336 1.389 . S
C1338 C1339 1.524 . S
C1338 C1352 1.377 . S
C1339 C1338 1.524 . S
C1339 C1340 1.397 . S
C1339 C1344 1.363 . S
C1340 H1317 0.950 . S
C1340 C1339 1.397 . S
C1340 C1341 1.334 . S
C1341 H1318 0.950 . S
C1341 C1340 1.334 . S
C1341 C1342 1.287 . S
C1342 C1341 1.287 . S
C1342 C1343 1.524 . S
C1342 H1361 0.913 . S
C1343 H1319 0.950 . S
C1343 C1342 1.524 . S
C1343 C1344 1.415 . S
C1344 H1320 0.950 . S
C1344 C1339 1.363 . S
C1344 C1343 1.415 . S
C1345 H1321 0.951 . S
C1345 C1346 1.366 . S
C1345 C1347 1.388 . S
C1346 C1345 1.366 . S
C1346 C1350 1.385 . S
C1347 H1322 0.951 . S
C1347 C1345 1.388 . S
C1347 C1348 1.366 . S
C1348 C1347 1.366 . S
C1348 C1349 1.414 . S
C1348 C1351 1.499 . S
C1349 H1323 0.950 . S
C1349 C1348 1.414 . S
C1349 C1350 1.374 . S
C1350 H1324 0.950 . S
C1350 C1346 1.385 . S
C1350 C1349 1.374 . S
C1351 C1348 1.499 . S
C1351 C1352 1.373 . S
C1351 C1353 1.389 . S
C1352 H1325 0.950 . S
C1352 C1338 1.377 . S
C1352 C1351 1.373 . S
C1353 C1337 1.377 . S
C1353 C1351 1.389 . S
C1353 C1354 1.524 . S
C1354 C1353 1.524 . S
C1354 C1355 1.397 . S
C1354 C1359 1.363 . S
C1355 H1326 0.950 . S
C1355 C1354 1.397 . S
C1355 C1356 1.334 . S
C1356 H1327 0.950 . S
C1356 C1355 1.334 . S
C1356 C1357 1.287 . S
C1357 C1356 1.287 . S
C1357 C1358 1.524 . S
C1357 H1360 0.999 . S
C1358 H1328 0.950 . S
C1358 C1357 1.524 . S
C1358 C1359 1.415 . S
C1359 H1329 0.950 . S
C1359 C1354 1.363 . S
C1359 C1358 1.415 . S
H1360 C1357 0.999 . S
H1361 C1342 0.913 . S
H1362 C1380 0.951 . S
H1363 C1382 0.951 . S
H1364 C1384 0.950 . S
H1365 C1385 0.950 . S
H1366 C1387 0.950 . S
H1367 C1390 0.950 . S
H1368 C1391 0.950 . S
H1369 C1393 0.950 . S
H1370 C1394 0.950 . S
H1371 C1395 0.951 . S
H1372 C1397 0.951 . S
H1373 C1399 0.950 . S
H1374 C1400 0.950 . S
H1375 C1402 0.950 . S
H1376 C1405 0.950 . S
H1377 C1406 0.950 1_455 S
H1378 C1408 0.950 . S
H1379 C1409 0.950 . S
C1380 H1362 0.951 . S
C1380 C1381 1.366 . S
C1380 C1382 1.388 . S
C1381 C1380 1.366 . S
C1381 C1385 1.385 . S
C1382 H1363 0.951 . S
C1382 C1380 1.388 . S
C1382 C1383 1.366 . S
C1383 C1382 1.366 . S
C1383 C1384 1.414 . S
C1383 C1386 1.499 . S
C1384 H1364 0.950 . S
C1384 C1383 1.414 . S
C1384 C1385 1.374 . S
C1385 H1365 0.950 . S
C1385 C1381 1.385 . S
C1385 C1384 1.374 . S
C1386 C1383 1.499 . S
C1386 C1387 1.373 . S
C1386 C1388 1.389 . S
C1387 H1366 0.950 . S
C1387 C1386 1.373 . S
C1387 C1403 1.377 . S
C1388 C1386 1.389 . S
C1388 C1389 1.524 . S
C1388 C1402 1.377 . S
C1389 C1388 1.524 . S
C1389 C1390 1.397 . S
C1389 C1394 1.363 . S
C1390 H1367 0.950 . S
C1390 C1389 1.397 . S
C1390 C1391 1.334 . S
C1391 H1368 0.950 . S
C1391 C1390 1.334 . S
C1391 C1392 1.287 . S
C1392 C1391 1.287 . S
C1392 C1393 1.524 . S
C1392 H1411 0.913 . S
C1393 H1369 0.950 . S
C1393 C1392 1.524 . S
C1393 C1394 1.415 . S
C1394 H1370 0.950 . S
C1394 C1389 1.363 . S
C1394 C1393 1.415 . S
C1395 H1371 0.951 . S
C1395 C1396 1.366 . S
C1395 C1397 1.388 . S
C1396 C1395 1.366 . S
C1396 C1400 1.385 . S
C1397 H1372 0.951 . S
C1397 C1395 1.388 . S
C1397 C1398 1.366 . S
C1398 C1397 1.366 . S
C1398 C1399 1.414 . S
C1398 C1401 1.499 . S
C1399 H1373 0.950 . S
C1399 C1398 1.414 . S
C1399 C1400 1.374 . S
C1400 H1374 0.950 . S
C1400 C1396 1.385 . S
C1400 C1399 1.374 . S
C1401 C1398 1.499 . S
C1401 C1402 1.373 . S
C1401 C1403 1.389 . S
C1402 H1375 0.950 . S
C1402 C1388 1.377 . S
C1402 C1401 1.373 . S
C1403 C1387 1.377 . S
C1403 C1401 1.389 . S
C1403 C1404 1.524 . S
C1404 C1403 1.524 . S
C1404 C1405 1.397 . S
C1404 C1409 1.363 . S
C1405 H1376 0.950 . S
C1405 C1404 1.397 . S
C1405 C1406 1.334 . S
C1406 H1377 0.950 1_655 S
C1406 C1405 1.334 . S
C1406 C1407 1.287 . S
C1407 C1406 1.287 . S
C1407 C1408 1.524 . S
C1407 H1410 0.999 . S
C1408 H1378 0.950 . S
C1408 C1407 1.524 . S
C1408 C1409 1.415 . S
C1409 H1379 0.950 . S
C1409 C1404 1.363 . S
C1409 C1408 1.415 . S
H1410 C1407 0.999 . S
H1411 C1392 0.913 . S
H1412 C1430 0.951 . S
H1413 C1432 0.951 . S
H1414 C1434 0.950 . S
H1415 C1435 0.950 . S
H1416 C1437 0.950 . S
H1417 C1440 0.950 . S
H1418 C1441 0.950 . S
H1419 C1443 0.950 . S
H1420 C1444 0.950 . S
H1421 C1445 0.951 . S
H1422 C1447 0.951 . S
H1423 C1449 0.950 . S
H1424 C1450 0.950 . S
H1425 C1452 0.950 . S
H1426 C1455 0.950 . S
H1427 C1456 0.950 . S
H1428 C1458 0.950 . S
H1429 C1459 0.950 . S
C1430 H1412 0.951 . S
C1430 C1431 1.366 . S
C1430 C1432 1.388 . S
C1431 C1430 1.366 . S
C1431 C1435 1.385 . S
C1432 H1413 0.951 . S
C1432 C1430 1.388 . S
C1432 C1433 1.366 . S
C1433 C1432 1.366 . S
C1433 C1434 1.414 . S
C1433 C1436 1.499 . S
C1434 H1414 0.950 . S
C1434 C1433 1.414 . S
C1434 C1435 1.374 . S
C1435 H1415 0.950 . S
C1435 C1431 1.385 . S
C1435 C1434 1.374 . S
C1436 C1433 1.499 . S
C1436 C1437 1.373 . S
C1436 C1438 1.389 . S
C1437 H1416 0.950 . S
C1437 C1436 1.373 . S
C1437 C1453 1.377 . S
C1438 C1436 1.389 . S
C1438 C1439 1.524 . S
C1438 C1452 1.377 . S
C1439 C1438 1.524 . S
C1439 C1440 1.397 . S
C1439 C1444 1.363 . S
C1440 H1417 0.950 . S
C1440 C1439 1.397 . S
C1440 C1441 1.334 . S
C1441 H1418 0.950 . S
C1441 C1440 1.334 . S
C1441 C1442 1.287 . S
C1442 C1441 1.287 . S
C1442 C1443 1.524 . S
C1442 H1461 0.913 . S
C1443 H1419 0.950 . S
C1443 C1442 1.524 . S
C1443 C1444 1.415 . S
C1444 H1420 0.950 . S
C1444 C1439 1.363 . S
C1444 C1443 1.415 . S
C1445 H1421 0.951 . S
C1445 C1446 1.366 . S
C1445 C1447 1.388 . S
C1446 C1445 1.366 . S
C1446 C1450 1.385 . S
C1447 H1422 0.951 . S
C1447 C1445 1.388 . S
C1447 C1448 1.366 . S
C1448 C1447 1.366 . S
C1448 C1449 1.414 . S
C1448 C1451 1.499 . S
C1449 H1423 0.950 . S
C1449 C1448 1.414 . S
C1449 C1450 1.374 . S
C1450 H1424 0.950 . S
C1450 C1446 1.385 . S
C1450 C1449 1.374 . S
C1451 C1448 1.499 . S
C1451 C1452 1.373 . S
C1451 C1453 1.389 . S
C1452 H1425 0.950 . S
C1452 C1438 1.377 . S
C1452 C1451 1.373 . S
C1453 C1437 1.377 . S
C1453 C1451 1.389 . S
C1453 C1454 1.524 . S
C1454 C1453 1.524 . S
C1454 C1455 1.397 . S
C1454 C1459 1.363 . S
C1455 H1426 0.950 . S
C1455 C1454 1.397 . S
C1455 C1456 1.334 . S
C1456 H1427 0.950 . S
C1456 C1455 1.334 . S
C1456 C1457 1.287 . S
C1457 C1456 1.287 . S
C1457 C1458 1.524 . S
C1457 H1460 0.999 . S
C1458 H1428 0.950 . S
C1458 C1457 1.524 . S
C1458 C1459 1.415 . S
C1459 H1429 0.950 . S
C1459 C1454 1.363 . S
C1459 C1458 1.415 . S
H1460 C1457 0.999 . S
H1461 C1442 0.913 . S
H1462 C1480 0.951 . S
H1463 C1482 0.951 . S
H1464 C1484 0.950 . S
H1465 C1485 0.950 . S
H1466 C1487 0.950 . S
H1467 C1490 0.950 . S
H1468 C1491 0.950 . S
H1469 C1493 0.950 . S
H1470 C1494 0.950 . S
H1471 C1495 0.951 . S
H1472 C1497 0.951 . S
H1473 C1499 0.950 . S
H1474 C1500 0.950 . S
H1475 C1502 0.950 . S
H1476 C1505 0.950 . S
H1477 C1506 0.950 . S
H1478 C1508 0.950 . S
H1479 C1509 0.950 . S
C1480 H1462 0.951 . S
C1480 C1481 1.366 . S
C1480 C1482 1.388 . S
C1481 C1480 1.366 . S
C1481 C1485 1.385 . S
C1482 H1463 0.951 . S
C1482 C1480 1.388 . S
C1482 C1483 1.366 . S
C1483 C1482 1.366 . S
C1483 C1484 1.414 . S
C1483 C1486 1.499 . S
C1484 H1464 0.950 . S
C1484 C1483 1.414 . S
C1484 C1485 1.374 . S
C1485 H1465 0.950 . S
C1485 C1481 1.385 . S
C1485 C1484 1.374 . S
C1486 C1483 1.499 . S
C1486 C1487 1.373 . S
C1486 C1488 1.389 . S
C1487 H1466 0.950 . S
C1487 C1486 1.373 . S
C1487 C1503 1.377 . S
C1488 C1486 1.389 . S
C1488 C1489 1.524 . S
C1488 C1502 1.377 . S
C1489 C1488 1.524 . S
C1489 C1490 1.397 . S
C1489 C1494 1.363 . S
C1490 H1467 0.950 . S
C1490 C1489 1.397 . S
C1490 C1491 1.334 . S
C1491 H1468 0.950 . S
C1491 C1490 1.334 . S
C1491 C1492 1.287 . S
C1492 C1491 1.287 . S
C1492 C1493 1.524 . S
C1492 H1511 0.913 . S
C1493 H1469 0.950 . S
C1493 C1492 1.524 . S
C1493 C1494 1.415 . S
C1494 H1470 0.950 . S
C1494 C1489 1.363 . S
C1494 C1493 1.415 . S
C1495 H1471 0.951 . S
C1495 C1496 1.366 . S
C1495 C1497 1.388 . S
C1496 C1495 1.366 . S
C1496 C1500 1.385 . S
C1497 H1472 0.951 . S
C1497 C1495 1.388 . S
C1497 C1498 1.366 . S
C1498 C1497 1.366 . S
C1498 C1499 1.414 . S
C1498 C1501 1.499 . S
C1499 H1473 0.950 . S
C1499 C1498 1.414 . S
C1499 C1500 1.374 . S
C1500 H1474 0.950 . S
C1500 C1496 1.385 . S
C1500 C1499 1.374 . S
C1501 C1498 1.499 . S
C1501 C1502 1.373 . S
C1501 C1503 1.389 . S
C1502 H1475 0.950 . S
C1502 C1488 1.377 . S
C1502 C1501 1.373 . S
C1503 C1487 1.377 . S
C1503 C1501 1.389 . S
C1503 C1504 1.524 . S
C1504 C1503 1.524 . S
C1504 C1505 1.397 . S
C1504 C1509 1.363 . S
C1505 H1476 0.950 . S
C1505 C1504 1.397 . S
C1505 C1506 1.334 . S
C1506 H1477 0.950 . S
C1506 C1505 1.334 . S
C1506 C1507 1.287 . S
C1507 C1506 1.287 . S
C1507 C1508 1.524 . S
C1507 H1510 0.999 . S
C1508 H1478 0.950 . S
C1508 C1507 1.524 . S
C1508 C1509 1.415 . S
C1509 H1479 0.950 . S
C1509 C1504 1.363 . S
C1509 C1508 1.415 . S
H1510 C1507 0.999 . S
H1511 C1492 0.913 . S
H1512 C1530 0.951 . S
H1513 C1532 0.951 . S
H1514 C1534 0.950 . S
H1515 C1535 0.950 . S
H1516 C1537 0.950 . S
H1517 C1540 0.950 . S
H1518 C1541 0.950 . S
H1519 C1543 0.950 . S
H1520 C1544 0.950 . S
H1521 C1545 0.951 . S
H1522 C1547 0.951 . S
H1523 C1549 0.950 . S
H1524 C1550 0.950 . S
H1525 C1552 0.950 . S
H1526 C1555 0.950 . S
H1527 C1556 0.950 . S
H1528 C1558 0.950 . S
H1529 C1559 0.950 . S
C1530 H1512 0.951 . S
C1530 C1531 1.366 . S
C1530 C1532 1.388 . S
C1531 C1530 1.366 . S
C1531 C1535 1.385 . S
C1532 H1513 0.951 . S
C1532 C1530 1.388 . S
C1532 C1533 1.366 . S
C1533 C1532 1.366 . S
C1533 C1534 1.414 . S
C1533 C1536 1.499 . S
C1534 H1514 0.950 . S
C1534 C1533 1.414 . S
C1534 C1535 1.374 . S
C1535 H1515 0.950 . S
C1535 C1531 1.385 . S
C1535 C1534 1.374 . S
C1536 C1533 1.499 . S
C1536 C1537 1.373 . S
C1536 C1538 1.389 . S
C1537 H1516 0.950 . S
C1537 C1536 1.373 . S
C1537 C1553 1.377 . S
C1538 C1536 1.389 . S
C1538 C1539 1.524 . S
C1538 C1552 1.377 . S
C1539 C1538 1.524 . S
C1539 C1540 1.397 . S
C1539 C1544 1.363 . S
C1540 H1517 0.950 . S
C1540 C1539 1.397 . S
C1540 C1541 1.334 . S
C1541 H1518 0.950 . S
C1541 C1540 1.334 . S
C1541 C1542 1.287 . S
C1542 C1541 1.287 . S
C1542 C1543 1.524 . S
C1542 H1561 0.913 . S
C1543 H1519 0.950 . S
C1543 C1542 1.524 . S
C1543 C1544 1.415 . S
C1544 H1520 0.950 . S
C1544 C1539 1.363 . S
C1544 C1543 1.415 . S
C1545 H1521 0.951 . S
C1545 C1546 1.366 . S
C1545 C1547 1.388 . S
C1546 C1545 1.366 . S
C1546 C1550 1.385 . S
C1547 H1522 0.951 . S
C1547 C1545 1.388 . S
C1547 C1548 1.366 . S
C1548 C1547 1.366 . S
C1548 C1549 1.414 . S
C1548 C1551 1.499 . S
C1549 H1523 0.950 . S
C1549 C1548 1.414 . S
C1549 C1550 1.374 . S
C1550 H1524 0.950 . S
C1550 C1546 1.385 . S
C1550 C1549 1.374 . S
C1551 C1548 1.499 . S
C1551 C1552 1.373 . S
C1551 C1553 1.389 . S
C1552 H1525 0.950 . S
C1552 C1538 1.377 . S
C1552 C1551 1.373 . S
C1553 C1537 1.377 . S
C1553 C1551 1.389 . S
C1553 C1554 1.524 . S
C1554 C1553 1.524 . S
C1554 C1555 1.397 . S
C1554 C1559 1.363 . S
C1555 H1526 0.950 . S
C1555 C1554 1.397 . S
C1555 C1556 1.334 . S
C1556 H1527 0.950 . S
C1556 C1555 1.334 . S
C1556 C1557 1.287 . S
C1557 C1556 1.287 . S
C1557 C1558 1.524 . S
C1557 H1560 0.999 . S
C1558 H1528 0.950 . S
C1558 C1557 1.524 . S
C1558 C1559 1.415 . S
C1559 H1529 0.950 . S
C1559 C1554 1.363 . S
C1559 C1558 1.415 . S
H1560 C1557 0.999 . S
H1561 C1542 0.913 . S
H1562 C1580 0.951 . S
H1563 C1582 0.951 . S
H1564 C1584 0.950 . S
H1565 C1585 0.950 . S
H1566 C1587 0.950 . S
H1567 C1590 0.950 . S
H1568 C1591 0.950 . S
H1569 C1593 0.950 . S
H1570 C1594 0.950 . S
H1571 C1595 0.951 . S
H1572 C1597 0.951 . S
H1573 C1599 0.950 . S
H1574 C1600 0.950 . S
H1575 C1602 0.950 . S
H1576 C1605 0.950 . S
H1577 C1606 0.950 . S
H1578 C1608 0.950 . S
H1579 C1609 0.950 . S
C1580 H1562 0.951 . S
C1580 C1581 1.366 . S
C1580 C1582 1.388 . S
C1581 C1580 1.366 . S
C1581 C1585 1.385 . S
C1582 H1563 0.951 . S
C1582 C1580 1.388 . S
C1582 C1583 1.366 . S
C1583 C1582 1.366 . S
C1583 C1584 1.414 . S
C1583 C1586 1.499 . S
C1584 H1564 0.950 . S
C1584 C1583 1.414 . S
C1584 C1585 1.374 . S
C1585 H1565 0.950 . S
C1585 C1581 1.385 . S
C1585 C1584 1.374 . S
C1586 C1583 1.499 . S
C1586 C1587 1.373 . S
C1586 C1588 1.389 . S
C1587 H1566 0.950 . S
C1587 C1586 1.373 . S
C1587 C1603 1.377 . S
C1588 C1586 1.389 . S
C1588 C1589 1.524 . S
C1588 C1602 1.377 . S
C1589 C1588 1.524 . S
C1589 C1590 1.397 . S
C1589 C1594 1.363 . S
C1590 H1567 0.950 . S
C1590 C1589 1.397 . S
C1590 C1591 1.334 . S
C1591 H1568 0.950 . S
C1591 C1590 1.334 . S
C1591 C1592 1.287 . S
C1592 C1591 1.287 . S
C1592 C1593 1.524 . S
C1592 H1611 0.913 . S
C1593 H1569 0.950 . S
C1593 C1592 1.524 . S
C1593 C1594 1.415 . S
C1594 H1570 0.950 . S
C1594 C1589 1.363 . S
C1594 C1593 1.415 . S
C1595 H1571 0.951 . S
C1595 C1596 1.366 . S
C1595 C1597 1.388 . S
C1596 C1595 1.366 . S
C1596 C1600 1.385 . S
C1597 H1572 0.951 . S
C1597 C1595 1.388 . S
C1597 C1598 1.366 . S
C1598 C1597 1.366 . S
C1598 C1599 1.414 . S
C1598 C1601 1.499 . S
C1599 H1573 0.950 . S
C1599 C1598 1.414 . S
C1599 C1600 1.374 . S
C1600 H1574 0.950 . S
C1600 C1596 1.385 . S
C1600 C1599 1.374 . S
C1601 C1598 1.499 . S
C1601 C1602 1.373 . S
C1601 C1603 1.389 . S
C1602 H1575 0.950 . S
C1602 C1588 1.377 . S
C1602 C1601 1.373 . S
C1603 C1587 1.377 . S
C1603 C1601 1.389 . S
C1603 C1604 1.524 . S
C1604 C1603 1.524 . S
C1604 C1605 1.397 . S
C1604 C1609 1.363 . S
C1605 H1576 0.950 . S
C1605 C1604 1.397 . S
C1605 C1606 1.334 . S
C1606 H1577 0.950 . S
C1606 C1605 1.334 . S
C1606 C1607 1.287 . S
C1607 C1606 1.287 . S
C1607 C1608 1.524 . S
C1607 H1610 0.999 . S
C1608 H1578 0.950 . S
C1608 C1607 1.524 . S
C1608 C1609 1.415 . S
C1609 H1579 0.950 . S
C1609 C1604 1.363 . S
C1609 C1608 1.415 . S
H1610 C1607 0.999 . S
H1611 C1592 0.913 . S
H1612 C1630 0.951 . S
H1613 C1632 0.951 . S
H1614 C1634 0.950 . S
H1615 C1635 0.950 . S
H1616 C1637 0.950 . S
H1617 C1640 0.950 . S
H1618 C1641 0.950 . S
H1619 C1643 0.950 . S
H1620 C1644 0.950 . S
H1621 C1645 0.951 . S
H1622 C1647 0.951 . S
H1623 C1649 0.950 . S
H1624 C1650 0.950 . S
H1625 C1652 0.950 . S
H1626 C1655 0.950 . S
H1627 C1656 0.950 . S
H1628 C1658 0.950 . S
H1629 C1659 0.950 . S
C1630 H1612 0.951 . S
C1630 C1631 1.366 . S
C1630 C1632 1.388 . S
C1631 C1630 1.366 . S
C1631 C1635 1.385 . S
C1632 H1613 0.951 . S
C1632 C1630 1.388 . S
C1632 C1633 1.366 . S
C1633 C1632 1.366 . S
C1633 C1634 1.414 . S
C1633 C1636 1.499 . S
C1634 H1614 0.950 . S
C1634 C1633 1.414 . S
C1634 C1635 1.374 . S
C1635 H1615 0.950 . S
C1635 C1631 1.385 . S
C1635 C1634 1.374 . S
C1636 C1633 1.499 . S
C1636 C1637 1.373 . S
C1636 C1638 1.389 . S
C1637 H1616 0.950 . S
C1637 C1636 1.373 . S
C1637 C1653 1.377 . S
C1638 C1636 1.389 . S
C1638 C1639 1.524 . S
C1638 C1652 1.377 . S
C1639 C1638 1.524 . S
C1639 C1640 1.397 . S
C1639 C1644 1.363 . S
C1640 H1617 0.950 . S
C1640 C1639 1.397 . S
C1640 C1641 1.334 . S
C1641 H1618 0.950 . S
C1641 C1640 1.334 . S
C1641 C1642 1.287 . S
C1642 C1641 1.287 . S
C1642 C1643 1.524 . S
C1642 H1661 0.913 . S
C1643 H1619 0.950 . S
C1643 C1642 1.524 . S
C1643 C1644 1.415 . S
C1644 H1620 0.950 . S
C1644 C1639 1.363 . S
C1644 C1643 1.415 . S
C1645 H1621 0.951 . S
C1645 C1646 1.366 . S
C1645 C1647 1.388 . S
C1646 C1645 1.366 . S
C1646 C1650 1.385 . S
C1647 H1622 0.951 . S
C1647 C1645 1.388 . S
C1647 C1648 1.366 . S
C1648 C1647 1.366 . S
C1648 C1649 1.414 . S
C1648 C1651 1.499 . S
C1649 H1623 0.950 . S
C1649 C1648 1.414 . S
C1649 C1650 1.374 . S
C1650 H1624 0.950 . S
C1650 C1646 1.385 . S
C1650 C1649 1.374 . S
C1651 C1648 1.499 . S
C1651 C1652 1.373 . S
C1651 C1653 1.389 . S
C1652 H1625 0.950 . S
C1652 C1638 1.377 . S
C1652 C1651 1.373 . S
C1653 C1637 1.377 . S
C1653 C1651 1.389 . S
C1653 C1654 1.524 . S
C1654 C1653 1.524 . S
C1654 C1655 1.397 . S
C1654 C1659 1.363 . S
C1655 H1626 0.950 . S
C1655 C1654 1.397 . S
C1655 C1656 1.334 . S
C1656 H1627 0.950 . S
C1656 C1655 1.334 . S
C1656 C1657 1.287 . S
C1657 C1656 1.287 . S
C1657 C1658 1.524 . S
C1657 H1660 0.999 . S
C1658 H1628 0.950 . S
C1658 C1657 1.524 . S
C1658 C1659 1.415 . S
C1659 H1629 0.950 . S
C1659 C1654 1.363 . S
C1659 C1658 1.415 . S
H1660 C1657 0.999 . S
H1661 C1642 0.913 . S
H1662 C1680 0.951 . S
H1663 C1682 0.951 . S
H1664 C1684 0.950 . S
H1665 C1685 0.950 . S
H1666 C1687 0.950 . S
H1667 C1690 0.950 . S
H1668 C1691 0.950 . S
H1669 C1693 0.950 . S
H1670 C1694 0.950 . S
H1671 C1695 0.951 . S
H1672 C1697 0.951 . S
H1673 C1699 0.950 . S
H1674 C1700 0.950 . S
H1675 C1702 0.950 . S
H1676 C1705 0.950 . S
H1677 C1706 0.950 . S
H1678 C1708 0.925 1_455 S
H1679 C1709 0.950 . S
C1680 H1662 0.951 . S
C1680 C1681 1.366 . S
C1680 C1682 1.388 . S
C1681 C1680 1.366 . S
C1681 C1685 1.385 . S
C1682 H1663 0.951 . S
C1682 C1680 1.388 . S
C1682 C1683 1.366 . S
C1683 C1682 1.366 . S
C1683 C1684 1.414 . S
C1683 C1686 1.499 . S
C1684 H1664 0.950 . S
C1684 C1683 1.414 . S
C1684 C1685 1.374 . S
C1685 H1665 0.950 . S
C1685 C1681 1.385 . S
C1685 C1684 1.374 . S
C1686 C1683 1.499 . S
C1686 C1687 1.373 . S
C1686 C1688 1.389 . S
C1687 H1666 0.950 . S
C1687 C1686 1.373 . S
C1687 C1703 1.377 . S
C1688 C1686 1.389 . S
C1688 C1689 1.524 . S
C1688 C1702 1.377 . S
C1689 C1688 1.524 . S
C1689 C1690 1.397 . S
C1689 C1694 1.363 . S
C1690 H1667 0.950 . S
C1690 C1689 1.397 . S
C1690 C1691 1.334 . S
C1691 H1668 0.950 . S
C1691 C1690 1.334 . S
C1691 C1692 1.287 . S
C1692 C1691 1.287 . S
C1692 C1693 1.524 . S
C1692 H1711 0.913 . S
C1693 H1669 0.950 . S
C1693 C1692 1.524 . S
C1693 C1694 1.415 . S
C1694 H1670 0.950 . S
C1694 C1689 1.363 . S
C1694 C1693 1.415 . S
C1695 H1671 0.951 . S
C1695 C1696 1.366 . S
C1695 C1697 1.388 . S
C1696 C1695 1.366 . S
C1696 C1700 1.385 . S
C1697 H1672 0.951 . S
C1697 C1695 1.388 . S
C1697 C1698 1.366 . S
C1698 C1697 1.366 . S
C1698 C1699 1.414 . S
C1698 C1701 1.499 . S
C1699 H1673 0.950 . S
C1699 C1698 1.414 . S
C1699 C1700 1.374 . S
C1700 H1674 0.950 . S
C1700 C1696 1.385 . S
C1700 C1699 1.374 . S
C1701 C1698 1.499 . S
C1701 C1702 1.373 . S
C1701 C1703 1.389 . S
C1702 H1675 0.950 . S
C1702 C1688 1.377 . S
C1702 C1701 1.373 . S
C1703 C1687 1.377 . S
C1703 C1701 1.389 . S
C1703 C1704 1.524 . S
C1704 C1703 1.524 . S
C1704 C1705 1.397 . S
C1704 C1709 1.363 . S
C1705 H1676 0.950 . S
C1705 C1704 1.397 . S
C1705 C1706 1.334 . S
C1706 H1677 0.950 . S
C1706 C1705 1.334 . S
C1706 C1707 1.287 . S
C1707 C1706 1.287 . S
C1707 C1708 1.524 . S
C1707 H1710 0.999 . S
C1708 H1678 0.925 1_655 S
C1708 C1707 1.524 . S
C1708 C1709 1.415 . S
C1709 H1679 0.950 . S
C1709 C1704 1.363 . S
C1709 C1708 1.415 . S
H1710 C1707 0.999 . S
H1711 C1692 0.913 . S
H1712 C1730 0.951 . S
H1713 C1732 0.951 . S
H1714 C1734 0.950 . S
H1715 C1735 0.950 . S
H1716 C1737 0.950 . S
H1717 C1740 0.950 . S
H1718 C1741 0.950 . S
H1719 C1743 0.950 . S
H1720 C1744 0.950 . S
H1721 C1745 0.951 . S
H1722 C1747 0.951 . S
H1723 C1749 0.950 . S
H1724 C1750 0.950 . S
H1725 C1752 0.950 . S
H1726 C1755 0.950 . S
H1727 C1756 0.950 . S
H1728 C1758 0.950 . S
H1729 C1759 0.950 . S
C1730 H1712 0.951 . S
C1730 C1731 1.366 . S
C1730 C1732 1.388 . S
C1731 C1730 1.366 . S
C1731 C1735 1.385 . S
C1732 H1713 0.951 . S
C1732 C1730 1.388 . S
C1732 C1733 1.366 . S
C1733 C1732 1.366 . S
C1733 C1734 1.414 . S
C1733 C1736 1.499 . S
C1734 H1714 0.950 . S
C1734 C1733 1.414 . S
C1734 C1735 1.374 . S
C1735 H1715 0.950 . S
C1735 C1731 1.385 . S
C1735 C1734 1.374 . S
C1736 C1733 1.499 . S
C1736 C1737 1.373 . S
C1736 C1738 1.389 . S
C1737 H1716 0.950 . S
C1737 C1736 1.373 . S
C1737 C1753 1.377 . S
C1738 C1736 1.389 . S
C1738 C1739 1.524 . S
C1738 C1752 1.377 . S
C1739 C1738 1.524 . S
C1739 C1740 1.397 . S
C1739 C1744 1.363 . S
C1740 H1717 0.950 . S
C1740 C1739 1.397 . S
C1740 C1741 1.334 . S
C1741 H1718 0.950 . S
C1741 C1740 1.334 . S
C1741 C1742 1.287 . S
C1742 C1741 1.287 . S
C1742 C1743 1.524 . S
C1742 H1761 0.913 . S
C1743 H1719 0.950 . S
C1743 C1742 1.524 . S
C1743 C1744 1.415 . S
C1744 H1720 0.950 . S
C1744 C1739 1.363 . S
C1744 C1743 1.415 . S
C1745 H1721 0.951 . S
C1745 C1746 1.366 . S
C1745 C1747 1.388 . S
C1746 C1745 1.366 . S
C1746 C1750 1.385 . S
C1747 H1722 0.951 . S
C1747 C1745 1.388 . S
C1747 C1748 1.366 . S
C1748 C1747 1.366 . S
C1748 C1749 1.414 . S
C1748 C1751 1.499 . S
C1749 H1723 0.950 . S
C1749 C1748 1.414 . S
C1749 C1750 1.374 . S
C1750 H1724 0.950 . S
C1750 C1746 1.385 . S
C1750 C1749 1.374 . S
C1751 C1748 1.499 . S
C1751 C1752 1.373 . S
C1751 C1753 1.389 . S
C1752 H1725 0.950 . S
C1752 C1738 1.377 . S
C1752 C1751 1.373 . S
C1753 C1737 1.377 . S
C1753 C1751 1.389 . S
C1753 C1754 1.524 . S
C1754 C1753 1.524 . S
C1754 C1755 1.397 . S
C1754 C1759 1.363 . S
C1755 H1726 0.950 . S
C1755 C1754 1.397 . S
C1755 C1756 1.334 . S
C1756 H1727 0.950 . S
C1756 C1755 1.334 . S
C1756 C1757 1.287 . S
C1757 C1756 1.287 . S
C1757 C1758 1.524 . S
C1757 H1760 0.999 . S
C1758 H1728 0.950 . S
C1758 C1757 1.524 . S
C1758 C1759 1.415 . S
C1759 H1729 0.950 . S
C1759 C1754 1.363 . S
C1759 C1758 1.415 . S
H1760 C1757 0.999 . S
H1761 C1742 0.913 . S
H1762 C1780 0.951 . S
H1763 C1782 0.951 . S
H1764 C1784 0.950 . S
H1765 C1785 0.950 . S
H1766 C1787 0.950 . S
H1767 C1790 0.950 . S
H1768 C1791 0.950 . S
H1769 C1793 0.950 . S
H1770 C1794 0.950 . S
H1771 C1795 0.951 . S
H1772 C1797 0.951 . S
H1773 C1799 0.950 . S
H1774 C1800 0.950 . S
H1775 C1802 0.950 . S
H1776 C1805 0.950 . S
H1777 C1806 0.950 . S
H1778 C1808 0.950 . S
H1779 C1809 0.950 . S
C1780 H1762 0.951 . S
C1780 C1781 1.366 . S
C1780 C1782 1.388 . S
C1781 C1780 1.366 . S
C1781 C1785 1.385 . S
C1782 H1763 0.951 . S
C1782 C1780 1.388 . S
C1782 C1783 1.366 . S
C1783 C1782 1.366 . S
C1783 C1784 1.414 . S
C1783 C1786 1.499 . S
C1784 H1764 0.950 . S
C1784 C1783 1.414 . S
C1784 C1785 1.374 . S
C1785 H1765 0.950 . S
C1785 C1781 1.385 . S
C1785 C1784 1.374 . S
C1786 C1783 1.499 . S
C1786 C1787 1.373 . S
C1786 C1788 1.389 . S
C1787 H1766 0.950 . S
C1787 C1786 1.373 . S
C1787 C1803 1.377 . S
C1788 C1786 1.389 . S
C1788 C1789 1.524 . S
C1788 C1802 1.377 . S
C1789 C1788 1.524 . S
C1789 C1790 1.397 . S
C1789 C1794 1.363 . S
C1790 H1767 0.950 . S
C1790 C1789 1.397 . S
C1790 C1791 1.334 . S
C1791 H1768 0.950 . S
C1791 C1790 1.334 . S
C1791 C1792 1.287 . S
C1792 C1791 1.287 . S
C1792 C1793 1.524 . S
C1792 H1811 0.913 . S
C1793 H1769 0.950 . S
C1793 C1792 1.524 . S
C1793 C1794 1.415 . S
C1794 H1770 0.950 . S
C1794 C1789 1.363 . S
C1794 C1793 1.415 . S
C1795 H1771 0.951 . S
C1795 C1796 1.366 . S
C1795 C1797 1.388 . S
C1796 C1795 1.366 . S
C1796 C1800 1.385 . S
C1797 H1772 0.951 . S
C1797 C1795 1.388 . S
C1797 C1798 1.366 . S
C1798 C1797 1.366 . S
C1798 C1799 1.414 . S
C1798 C1801 1.499 . S
C1799 H1773 0.950 . S
C1799 C1798 1.414 . S
C1799 C1800 1.374 . S
C1800 H1774 0.950 . S
C1800 C1796 1.385 . S
C1800 C1799 1.374 . S
C1801 C1798 1.499 . S
C1801 C1802 1.373 . S
C1801 C1803 1.389 . S
C1802 H1775 0.950 . S
C1802 C1788 1.377 . S
C1802 C1801 1.373 . S
C1803 C1787 1.377 . S
C1803 C1801 1.389 . S
C1803 C1804 1.524 . S
C1804 C1803 1.524 . S
C1804 C1805 1.397 . S
C1804 C1809 1.363 . S
C1805 H1776 0.950 . S
C1805 C1804 1.397 . S
C1805 C1806 1.334 . S
C1806 H1777 0.950 . S
C1806 C1805 1.334 . S
C1806 C1807 1.287 . S
C1807 C1806 1.287 . S
C1807 C1808 1.524 . S
C1807 H1810 0.999 . S
C1808 H1778 0.950 . S
C1808 C1807 1.524 . S
C1808 C1809 1.415 . S
C1809 H1779 0.950 . S
C1809 C1804 1.363 . S
C1809 C1808 1.415 . S
H1810 C1807 0.999 . S
H1811 C1792 0.913 . S
H1812 C1830 0.951 . S
H1813 C1832 0.951 . S
H1814 C1834 0.950 . S
H1815 C1835 0.950 . S
H1816 C1837 0.950 . S
H1817 C1840 0.950 . S
H1818 C1841 0.950 . S
H1819 C1843 0.950 . S
H1820 C1844 0.950 . S
H1821 C1845 0.951 . S
H1822 C1847 0.951 . S
H1823 C1849 0.950 . S
H1824 C1850 0.950 . S
H1825 C1852 0.950 . S
H1826 C1855 0.950 . S
H1827 C1856 0.950 . S
H1828 C1858 0.950 . S
H1829 C1859 0.950 . S
C1830 H1812 0.951 . S
C1830 C1831 1.366 . S
C1830 C1832 1.388 . S
C1831 C1830 1.366 . S
C1831 C1835 1.385 . S
C1832 H1813 0.951 . S
C1832 C1830 1.388 . S
C1832 C1833 1.366 . S
C1833 C1832 1.366 . S
C1833 C1834 1.414 . S
C1833 C1836 1.499 . S
C1834 H1814 0.950 . S
C1834 C1833 1.414 . S
C1834 C1835 1.374 . S
C1835 H1815 0.950 . S
C1835 C1831 1.385 . S
C1835 C1834 1.374 . S
C1836 C1833 1.499 . S
C1836 C1837 1.373 . S
C1836 C1838 1.389 . S
C1837 H1816 0.950 . S
C1837 C1836 1.373 . S
C1837 C1853 1.377 . S
C1838 C1836 1.389 . S
C1838 C1839 1.524 . S
C1838 C1852 1.377 . S
C1839 C1838 1.524 . S
C1839 C1840 1.397 . S
C1839 C1844 1.363 . S
C1840 H1817 0.950 . S
C1840 C1839 1.397 . S
C1840 C1841 1.334 . S
C1841 H1818 0.950 . S
C1841 C1840 1.334 . S
C1841 C1842 1.287 . S
C1842 C1841 1.287 . S
C1842 C1843 1.524 . S
C1842 H1861 0.913 . S
C1843 H1819 0.950 . S
C1843 C1842 1.524 . S
C1843 C1844 1.415 . S
C1844 H1820 0.950 . S
C1844 C1839 1.363 . S
C1844 C1843 1.415 . S
C1845 H1821 0.951 . S
C1845 C1846 1.366 . S
C1845 C1847 1.388 . S
C1846 C1845 1.366 . S
C1846 C1850 1.385 . S
C1847 H1822 0.951 . S
C1847 C1845 1.388 . S
C1847 C1848 1.366 . S
C1848 C1847 1.366 . S
C1848 C1849 1.414 . S
C1848 C1851 1.499 . S
C1849 H1823 0.950 . S
C1849 C1848 1.414 . S
C1849 C1850 1.374 . S
C1850 H1824 0.950 . S
C1850 C1846 1.385 . S
C1850 C1849 1.374 . S
C1851 C1848 1.499 . S
C1851 C1852 1.373 . S
C1851 C1853 1.389 . S
C1852 H1825 0.950 . S
C1852 C1838 1.377 . S
C1852 C1851 1.373 . S
C1853 C1837 1.377 . S
C1853 C1851 1.389 . S
C1853 C1854 1.524 . S
C1854 C1853 1.524 . S
C1854 C1855 1.397 . S
C1854 C1859 1.363 . S
C1855 H1826 0.950 . S
C1855 C1854 1.397 . S
C1855 C1856 1.334 . S
C1856 H1827 0.950 . S
C1856 C1855 1.334 . S
C1856 C1857 1.287 . S
C1857 C1856 1.287 . S
C1857 C1858 1.524 . S
C1857 H1860 0.999 . S
C1858 H1828 0.950 . S
C1858 C1857 1.524 . S
C1858 C1859 1.415 . S
C1859 H1829 0.950 . S
C1859 C1854 1.363 . S
C1859 C1858 1.415 . S
H1860 C1857 0.999 . S
H1861 C1842 0.913 . S
H1862 C1880 0.951 . S
H1863 C1882 0.951 . S
H1864 C1884 0.950 . S
H1865 C1885 0.950 . S
H1866 C1887 0.950 . S
H1867 C1890 0.950 . S
H1868 C1891 0.950 . S
H1869 C1893 0.950 . S
H1870 C1894 0.950 . S
H1871 C1895 0.951 . S
H1872 C1897 0.951 . S
H1873 C1899 0.950 . S
H1874 C1900 0.950 . S
H1875 C1902 0.950 . S
H1876 C1905 0.950 . S
H1877 C1906 0.950 . S
H1878 C1908 0.950 . S
H1879 C1909 0.950 . S
C1880 H1862 0.951 . S
C1880 C1881 1.366 . S
C1880 C1882 1.388 . S
C1881 C1880 1.366 . S
C1881 C1885 1.385 . S
C1882 H1863 0.951 . S
C1882 C1880 1.388 . S
C1882 C1883 1.366 . S
C1883 C1882 1.366 . S
C1883 C1884 1.414 . S
C1883 C1886 1.499 . S
C1884 H1864 0.950 . S
C1884 C1883 1.414 . S
C1884 C1885 1.374 . S
C1885 H1865 0.950 . S
C1885 C1881 1.385 . S
C1885 C1884 1.374 . S
C1886 C1883 1.499 . S
C1886 C1887 1.373 . S
C1886 C1888 1.389 . S
C1887 H1866 0.950 . S
C1887 C1886 1.373 . S
C1887 C1903 1.377 . S
C1888 C1886 1.389 . S
C1888 C1889 1.524 . S
C1888 C1902 1.377 . S
C1889 C1888 1.524 . S
C1889 C1890 1.397 . S
C1889 C1894 1.363 . S
C1890 H1867 0.950 . S
C1890 C1889 1.397 . S
C1890 C1891 1.334 . S
C1891 H1868 0.950 . S
C1891 C1890 1.334 . S
C1891 C1892 1.287 . S
C1892 C1891 1.287 . S
C1892 C1893 1.524 . S
C1892 H1911 0.913 . S
C1893 H1869 0.950 . S
C1893 C1892 1.524 . S
C1893 C1894 1.415 . S
C1894 H1870 0.950 . S
C1894 C1889 1.363 . S
C1894 C1893 1.415 . S
C1895 H1871 0.951 . S
C1895 C1896 1.366 . S
C1895 C1897 1.388 . S
C1896 C1895 1.366 . S
C1896 C1900 1.385 . S
C1897 H1872 0.951 . S
C1897 C1895 1.388 . S
C1897 C1898 1.366 . S
C1898 C1897 1.366 . S
C1898 C1899 1.414 . S
C1898 C1901 1.499 . S
C1899 H1873 0.950 . S
C1899 C1898 1.414 . S
C1899 C1900 1.374 . S
C1900 H1874 0.950 . S
C1900 C1896 1.385 . S
C1900 C1899 1.374 . S
C1901 C1898 1.499 . S
C1901 C1902 1.373 . S
C1901 C1903 1.389 . S
C1902 H1875 0.950 . S
C1902 C1888 1.377 . S
C1902 C1901 1.373 . S
C1903 C1887 1.377 . S
C1903 C1901 1.389 . S
C1903 C1904 1.524 . S
C1904 C1903 1.524 . S
C1904 C1905 1.397 . S
C1904 C1909 1.363 . S
C1905 H1876 0.950 . S
C1905 C1904 1.397 . S
C1905 C1906 1.334 . S
C1906 H1877 0.950 . S
C1906 C1905 1.334 . S
C1906 C1907 1.287 . S
C1907 C1906 1.287 . S
C1907 C1908 1.524 . S
C1907 H1910 0.999 . S
C1908 H1878 0.950 . S
C1908 C1907 1.524 . S
C1908 C1909 1.415 . S
C1909 H1879 0.950 . S
C1909 C1904 1.363 . S
C1909 C1908 1.415 . S
H1910 C1907 0.999 . S
H1911 C1892 0.913 . S
H1912 C1930 0.951 . S
H1913 C1932 0.951 . S
H1914 C1934 0.950 . S
H1915 C1935 0.950 . S
H1916 C1937 0.950 . S
H1917 C1940 0.950 . S
H1918 C1941 0.950 . S
H1919 C1943 0.950 . S
H1920 C1944 0.950 . S
H1921 C1945 0.951 . S
H1922 C1947 0.951 . S
H1923 C1949 0.950 . S
H1924 C1950 0.950 . S
H1925 C1952 0.950 . S
H1926 C1955 0.950 . S
H1927 C1956 0.950 . S
H1928 C1958 0.950 . S
H1929 C1959 0.950 . S
C1930 H1912 0.951 . S
C1930 C1931 1.366 . S
C1930 C1932 1.388 . S
C1931 C1930 1.366 . S
C1931 C1935 1.385 . S
C1932 H1913 0.951 . S
C1932 C1930 1.388 . S
C1932 C1933 1.366 . S
C1933 C1932 1.366 . S
C1933 C1934 1.414 . S
C1933 C1936 1.499 . S
C1934 H1914 0.950 . S
C1934 C1933 1.414 . S
C1934 C1935 1.374 . S
C1935 H1915 0.950 . S
C1935 C1931 1.385 . S
C1935 C1934 1.374 . S
C1936 C1933 1.499 . S
C1936 C1937 1.373 . S
C1936 C1938 1.389 . S
C1937 H1916 0.950 . S
C1937 C1936 1.373 . S
C1937 C1953 1.377 . S
C1938 C1936 1.389 . S
C1938 C1939 1.524 . S
C1938 C1952 1.377 . S
C1939 C1938 1.524 . S
C1939 C1940 1.397 . S
C1939 C1944 1.363 . S
C1940 H1917 0.950 . S
C1940 C1939 1.397 . S
C1940 C1941 1.334 . S
C1941 H1918 0.950 . S
C1941 C1940 1.334 . S
C1941 C1942 1.287 . S
C1942 C1941 1.287 . S
C1942 C1943 1.524 . S
C1942 H1961 0.913 . S
C1943 H1919 0.950 . S
C1943 C1942 1.524 . S
C1943 C1944 1.415 . S
C1944 H1920 0.950 . S
C1944 C1939 1.363 . S
C1944 C1943 1.415 . S
C1945 H1921 0.951 . S
C1945 C1946 1.366 . S
C1945 C1947 1.388 . S
C1946 C1945 1.366 . S
C1946 C1950 1.385 . S
C1947 H1922 0.951 . S
C1947 C1945 1.388 . S
C1947 C1948 1.366 . S
C1948 C1947 1.366 . S
C1948 C1949 1.414 . S
C1948 C1951 1.499 . S
C1949 H1923 0.950 . S
C1949 C1948 1.414 . S
C1949 C1950 1.374 . S
C1950 H1924 0.950 . S
C1950 C1946 1.385 . S
C1950 C1949 1.374 . S
C1951 C1948 1.499 . S
C1951 C1952 1.373 . S
C1951 C1953 1.389 . S
C1952 H1925 0.950 . S
C1952 C1938 1.377 . S
C1952 C1951 1.373 . S
C1953 C1937 1.377 . S
C1953 C1951 1.389 . S
C1953 C1954 1.524 . S
C1954 C1953 1.524 . S
C1954 C1955 1.397 . S
C1954 C1959 1.363 . S
C1955 H1926 0.950 . S
C1955 C1954 1.397 . S
C1955 C1956 1.334 . S
C1956 H1927 0.950 . S
C1956 C1955 1.334 . S
C1956 C1957 1.287 . S
C1957 C1956 1.287 . S
C1957 C1958 1.524 . S
C1957 H1960 0.999 . S
C1958 H1928 0.950 . S
C1958 C1957 1.524 . S
C1958 C1959 1.415 . S
C1959 H1929 0.950 . S
C1959 C1954 1.363 . S
C1959 C1958 1.415 . S
H1960 C1957 0.999 . S
H1961 C1942 0.913 . S
H1962 C1980 0.951 . S
H1963 C1982 0.951 . S
H1964 C1984 0.950 . S
H1965 C1985 0.950 . S
H1966 C1987 0.950 . S
H1967 C1990 0.950 . S
H1968 C1991 0.950 . S
H1969 C1993 0.950 . S
H1970 C1994 0.950 . S
H1971 C1995 0.951 . S
H1972 C1997 0.951 . S
H1973 C1999 0.950 . S
H1974 C2000 0.950 . S
H1975 C2002 0.950 . S
H1976 C2005 0.950 . S
H1977 C2006 0.950 . S
H1978 C2008 0.950 . S
H1979 C2009 0.950 . S
C1980 H1962 0.951 . S
C1980 C1981 1.366 . S
C1980 C1982 1.388 . S
C1981 C1980 1.366 . S
C1981 C1985 1.385 . S
C1982 H1963 0.951 . S
C1982 C1980 1.388 . S
C1982 C1983 1.366 . S
C1983 C1982 1.366 . S
C1983 C1984 1.414 . S
C1983 C1986 1.499 . S
C1984 H1964 0.950 . S
C1984 C1983 1.414 . S
C1984 C1985 1.374 . S
C1985 H1965 0.950 . S
C1985 C1981 1.385 . S
C1985 C1984 1.374 . S
C1986 C1983 1.499 . S
C1986 C1987 1.373 . S
C1986 C1988 1.389 . S
C1987 H1966 0.950 . S
C1987 C1986 1.373 . S
C1987 C2003 1.377 . S
C1988 C1986 1.389 . S
C1988 C1989 1.524 . S
C1988 C2002 1.377 . S
C1989 C1988 1.524 . S
C1989 C1990 1.397 . S
C1989 C1994 1.363 . S
C1990 H1967 0.950 . S
C1990 C1989 1.397 . S
C1990 C1991 1.334 . S
C1991 H1968 0.950 . S
C1991 C1990 1.334 . S
C1991 C1992 1.287 . S
C1992 C1991 1.287 . S
C1992 C1993 1.524 . S
C1992 H2011 0.913 . S
C1993 H1969 0.950 . S
C1993 C1992 1.524 . S
C1993 C1994 1.415 . S
C1994 H1970 0.950 . S
C1994 C1989 1.363 . S
C1994 C1993 1.415 . S
C1995 H1971 0.951 . S
C1995 C1996 1.366 . S
C1995 C1997 1.388 . S
C1996 C1995 1.366 . S
C1996 C2000 1.385 . S
C1997 H1972 0.951 . S
C1997 C1995 1.388 . S
C1997 C1998 1.366 . S
C1998 C1997 1.366 . S
C1998 C1999 1.414 . S
C1998 C2001 1.499 . S
C1999 H1973 0.950 . S
C1999 C1998 1.414 . S
C1999 C2000 1.374 . S
C2000 H1974 0.950 . S
C2000 C1996 1.385 . S
C2000 C1999 1.374 . S
C2001 C1998 1.499 . S
C2001 C2002 1.373 . S
C2001 C2003 1.389 . S
C2002 H1975 0.950 . S
C2002 C1988 1.377 . S
C2002 C2001 1.373 . S
C2003 C1987 1.377 . S
C2003 C2001 1.389 . S
C2003 C2004 1.524 . S
C2004 C2003 1.524 . S
C2004 C2005 1.397 . S
C2004 C2009 1.363 . S
C2005 H1976 0.950 . S
C2005 C2004 1.397 . S
C2005 C2006 1.334 . S
C2006 H1977 0.950 . S
C2006 C2005 1.334 . S
C2006 C2007 1.287 . S
C2007 C2006 1.287 . S
C2007 C2008 1.524 . S
C2007 H2010 0.999 . S
C2008 H1978 0.950 . S
C2008 C2007 1.524 . S
C2008 C2009 1.415 . S
C2009 H1979 0.950 . S
C2009 C2004 1.363 . S
C2009 C2008 1.415 . S
H2010 C2007 0.999 . S
H2011 C1992 0.913 . S
H2012 C2030 0.951 . S
H2013 C2032 0.951 . S
H2014 C2034 0.950 . S
H2015 C2035 0.950 . S
H2016 C2037 0.950 . S
H2017 C2040 0.950 . S
H2018 C2041 0.950 . S
H2019 C2043 0.950 . S
H2020 C2044 0.950 . S
H2021 C2045 0.951 . S
H2022 C2047 0.951 . S
H2023 C2049 0.950 . S
H2024 C2050 0.950 . S
H2025 C2052 0.950 . S
H2026 C2055 0.950 . S
H2027 C2056 0.950 . S
H2028 C2058 0.950 . S
H2029 C2059 0.950 . S
C2030 H2012 0.951 . S
C2030 C2031 1.366 . S
C2030 C2032 1.388 . S
C2031 C2030 1.366 . S
C2031 C2035 1.385 . S
C2032 H2013 0.951 . S
C2032 C2030 1.388 . S
C2032 C2033 1.366 . S
C2033 C2032 1.366 . S
C2033 C2034 1.414 . S
C2033 C2036 1.499 . S
C2034 H2014 0.950 . S
C2034 C2033 1.414 . S
C2034 C2035 1.374 . S
C2035 H2015 0.950 . S
C2035 C2031 1.385 . S
C2035 C2034 1.374 . S
C2036 C2033 1.499 . S
C2036 C2037 1.373 . S
C2036 C2038 1.389 . S
C2037 H2016 0.950 . S
C2037 C2036 1.373 . S
C2037 C2053 1.377 . S
C2038 C2036 1.389 . S
C2038 C2039 1.524 . S
C2038 C2052 1.377 . S
C2039 C2038 1.524 . S
C2039 C2040 1.397 . S
C2039 C2044 1.363 . S
C2040 H2017 0.950 . S
C2040 C2039 1.397 . S
C2040 C2041 1.334 . S
C2041 H2018 0.950 . S
C2041 C2040 1.334 . S
C2041 C2042 1.287 . S
C2042 C2041 1.287 . S
C2042 C2043 1.524 . S
C2042 H2061 0.913 . S
C2043 H2019 0.950 . S
C2043 C2042 1.524 . S
C2043 C2044 1.415 . S
C2044 H2020 0.950 . S
C2044 C2039 1.363 . S
C2044 C2043 1.415 . S
C2045 H2021 0.951 . S
C2045 C2046 1.366 . S
C2045 C2047 1.388 . S
C2046 C2045 1.366 . S
C2046 C2050 1.385 . S
C2047 H2022 0.951 . S
C2047 C2045 1.388 . S
C2047 C2048 1.366 . S
C2048 C2047 1.366 . S
C2048 C2049 1.414 . S
C2048 C2051 1.499 . S
C2049 H2023 0.950 . S
C2049 C2048 1.414 . S
C2049 C2050 1.374 . S
C2050 H2024 0.950 . S
C2050 C2046 1.385 . S
C2050 C2049 1.374 . S
C2051 C2048 1.499 . S
C2051 C2052 1.373 . S
C2051 C2053 1.389 . S
C2052 H2025 0.950 . S
C2052 C2038 1.377 . S
C2052 C2051 1.373 . S
C2053 C2037 1.377 . S
C2053 C2051 1.389 . S
C2053 C2054 1.524 . S
C2054 C2053 1.524 . S
C2054 C2055 1.397 . S
C2054 C2059 1.363 . S
C2055 H2026 0.950 . S
C2055 C2054 1.397 . S
C2055 C2056 1.334 . S
C2056 H2027 0.950 . S
C2056 C2055 1.334 . S
C2056 C2057 1.287 . S
C2057 C2056 1.287 . S
C2057 C2058 1.524 . S
C2057 H2060 0.999 . S
C2058 H2028 0.950 . S
C2058 C2057 1.524 . S
C2058 C2059 1.415 . S
C2059 H2029 0.950 . S
C2059 C2054 1.363 . S
C2059 C2058 1.415 . S
H2060 C2057 0.999 . S
H2061 C2042 0.913 . S
H2062 C2080 0.951 . S
H2063 C2082 0.951 . S
H2064 C2084 0.950 . S
H2065 C2085 0.950 . S
H2066 C2087 0.950 . S
H2067 C2090 0.950 . S
H2068 C2091 0.950 . S
H2069 C2093 0.950 . S
H2070 C2094 0.950 . S
H2071 C2095 0.951 . S
H2072 C2097 0.951 . S
H2073 C2099 0.950 . S
H2074 C2100 0.950 . S
H2075 C2102 0.950 . S
H2076 C2105 0.950 . S
H2077 C2106 0.950 . S
H2078 C2108 0.950 . S
H2079 C2109 0.950 . S
C2080 H2062 0.951 . S
C2080 C2081 1.366 . S
C2080 C2082 1.388 . S
C2081 C2080 1.366 . S
C2081 C2085 1.385 . S
C2082 H2063 0.951 . S
C2082 C2080 1.388 . S
C2082 C2083 1.366 . S
C2083 C2082 1.366 . S
C2083 C2084 1.414 . S
C2083 C2086 1.499 . S
C2084 H2064 0.950 . S
C2084 C2083 1.414 . S
C2084 C2085 1.374 . S
C2085 H2065 0.950 . S
C2085 C2081 1.385 . S
C2085 C2084 1.374 . S
C2086 C2083 1.499 . S
C2086 C2087 1.373 . S
C2086 C2088 1.389 . S
C2087 H2066 0.950 . S
C2087 C2086 1.373 . S
C2087 C2103 1.377 . S
C2088 C2086 1.389 . S
C2088 C2089 1.524 . S
C2088 C2102 1.377 . S
C2089 C2088 1.524 . S
C2089 C2090 1.397 . S
C2089 C2094 1.363 . S
C2090 H2067 0.950 . S
C2090 C2089 1.397 . S
C2090 C2091 1.334 . S
C2091 H2068 0.950 . S
C2091 C2090 1.334 . S
C2091 C2092 1.287 . S
C2092 C2091 1.287 . S
C2092 C2093 1.524 . S
C2092 H2111 0.913 . S
C2093 H2069 0.950 . S
C2093 C2092 1.524 . S
C2093 C2094 1.415 . S
C2094 H2070 0.950 . S
C2094 C2089 1.363 . S
C2094 C2093 1.415 . S
C2095 H2071 0.951 . S
C2095 C2096 1.366 . S
C2095 C2097 1.388 . S
C2096 C2095 1.366 . S
C2096 C2100 1.385 . S
C2097 H2072 0.951 . S
C2097 C2095 1.388 . S
C2097 C2098 1.366 . S
C2098 C2097 1.366 . S
C2098 C2099 1.414 . S
C2098 C2101 1.499 . S
C2099 H2073 0.950 . S
C2099 C2098 1.414 . S
C2099 C2100 1.374 . S
C2100 H2074 0.950 . S
C2100 C2096 1.385 . S
C2100 C2099 1.374 . S
C2101 C2098 1.499 . S
C2101 C2102 1.373 . S
C2101 C2103 1.389 . S
C2102 H2075 0.950 . S
C2102 C2088 1.377 . S
C2102 C2101 1.373 . S
C2103 C2087 1.377 . S
C2103 C2101 1.389 . S
C2103 C2104 1.524 . S
C2104 C2103 1.524 . S
C2104 C2105 1.397 . S
C2104 C2109 1.363 . S
C2105 H2076 0.950 . S
C2105 C2104 1.397 . S
C2105 C2106 1.334 . S
C2106 H2077 0.950 . S
C2106 C2105 1.334 . S
C2106 C2107 1.287 . S
C2107 C2106 1.287 . S
C2107 C2108 1.524 . S
C2107 H2110 0.999 . S
C2108 H2078 0.950 . S
C2108 C2107 1.524 . S
C2108 C2109 1.415 . S
C2109 H2079 0.950 . S
C2109 C2104 1.363 . S
C2109 C2108 1.415 . S
H2110 C2107 0.999 . S
H2111 C2092 0.913 . S
C546 C433 1.492 . S
C531 C45 1.506 . S
C581 C78 1.499 . S
C596 C465 1.489 . S
C631 C126 1.499 . S
C646 C488 1.499 . S
C696 C392 1.502 . S
C681 C174 1.501 . S
C746 C475 1.345 . S
C731 C36 1.468 . S
C796 C504 1.357 . S
C781 C69 1.467 . S
C846 C408 1.359 . S
C831 C117 1.468 . S
C896 C443 1.346 . S
C881 C165 1.465 . S
C931 C30 1.463 . S
C946 C471 1.355 . S
C981 C228 1.466 . S
C996 C446 1.345 . S
C1031 C141 1.453 . S
C1046 C414 1.344 . S
C1096 C503 1.352 . S
C1081 C270 1.459 . S
C1146 C447 1.492 . S
C1131 C21 1.513 . S
C1181 C237 1.502 . S
C1196 C415 1.491 . S
C1231 C132 1.514 . S
C1246 C502 1.505 . S
C1296 C470 1.505 . S
C1281 C261 1.515 . S
C1331 C333 1.503 . S
C1346 C497 1.489 . S
C1381 C213 1.511 . S
C1396 C401 1.492 . S
C1431 C357 1.511 . S
C1446 C424 1.502 . S
C1481 C285 1.503 . S
C1496 C456 1.499 . S
C1546 C411 1.347 . S
C1531 C324 1.471 . S
C1581 C222 1.455 . S
C1596 C440 1.355 . S
C1631 C366 1.455 . S
C1646 C472 1.356 . S
C1696 C507 1.348 . S
C1681 C276 1.471 . S
C1731 C318 1.460 . S
C1746 C407 1.353 . S
C1781 C93 1.453 . S
C1796 C510 1.342 . S
C1831 C372 1.465 . S
C1846 C478 1.345 . S
C1896 C439 1.355 . S
C1881 C189 1.454 . S
C1946 C511 1.495 . S
C1931 C309 1.516 . S
C1996 C479 1.495 . S
C1981 C84 1.514 . S
C2046 C438 1.502 . S
C2031 C381 1.501 . S
C2096 C406 1.502 . S
C2081 C180 1.511 . S
