# Generated by pormake.
# Topology nom, (4,4)-cn, num edge types: 1
# Building blocks:
#     Node 0, Type 0, BuildingBlock: NAHDIM_clean_linker_0, # of connection points: 4
#     Node 1, Type 0, BuildingBlock: NAHDIM_clean_linker_0, # of connection points: 4
#     Node 2, Type 0, BuildingBlock: NAHDIM_clean_linker_0, # of connection points: 4
#     Node 3, Type 0, BuildingBlock: NAHDIM_clean_linker_0, # of connection points: 4
#     Node 4, Type 0, BuildingBlock: NAHDIM_clean_linker_0, # of connection points: 4
#     Node 5, Type 0, BuildingBlock: NAHDIM_clean_linker_0, # of connection points: 4
#     Node 6, Type 1, BuildingBlock: AZAVOO_clean_sbu_0, # of connection points: 4
#     Node 7, Type 1, BuildingBlock: AZAVOO_clean_sbu_0, # of connection points: 4
#     Node 8, Type 1, BuildingBlock: AZAVOO_clean_sbu_0, # of connection points: 4
#     Node 9, Type 1, BuildingBlock: AZAVOO_clean_sbu_0, # of connection points: 4
#     Node 10, Type 1, BuildingBlock: AZAVOO_clean_sbu_0, # of connection points: 4
#     Node 11, Type 1, BuildingBlock: AZAVOO_clean_sbu_0, # of connection points: 4
#     Edge 12, Type (0, 1), BuildingBlock: MIFKUJ_clean_linker_0, # of connection points: 2
#     Edge 13, Type (0, 1), BuildingBlock: MIFKUJ_clean_linker_0, # of connection points: 2
#     Edge 14, Type (0, 1), BuildingBlock: MIFKUJ_clean_linker_0, # of connection points: 2
#     Edge 15, Type (0, 1), BuildingBlock: MIFKUJ_clean_linker_0, # of connection points: 2
#     Edge 16, Type (0, 1), BuildingBlock: MIFKUJ_clean_linker_0, # of connection points: 2
#     Edge 17, Type (0, 1), BuildingBlock: MIFKUJ_clean_linker_0, # of connection points: 2
#     Edge 18, Type (0, 1), BuildingBlock: MIFKUJ_clean_linker_0, # of connection points: 2
#     Edge 19, Type (0, 1), BuildingBlock: MIFKUJ_clean_linker_0, # of connection points: 2
#     Edge 20, Type (0, 1), BuildingBlock: MIFKUJ_clean_linker_0, # of connection points: 2
#     Edge 21, Type (0, 1), BuildingBlock: MIFKUJ_clean_linker_0, # of connection points: 2
#     Edge 22, Type (0, 1), BuildingBlock: MIFKUJ_clean_linker_0, # of connection points: 2
#     Edge 23, Type (0, 1), BuildingBlock: MIFKUJ_clean_linker_0, # of connection points: 2
#     Edge 24, Type (0, 1), BuildingBlock: MIFKUJ_clean_linker_0, # of connection points: 2
#     Edge 25, Type (0, 1), BuildingBlock: MIFKUJ_clean_linker_0, # of connection points: 2
#     Edge 26, Type (0, 1), BuildingBlock: MIFKUJ_clean_linker_0, # of connection points: 2
#     Edge 27, Type (0, 1), BuildingBlock: MIFKUJ_clean_linker_0, # of connection points: 2
#     Edge 28, Type (0, 1), BuildingBlock: MIFKUJ_clean_linker_0, # of connection points: 2
#     Edge 29, Type (0, 1), BuildingBlock: MIFKUJ_clean_linker_0, # of connection points: 2
#     Edge 30, Type (0, 1), BuildingBlock: MIFKUJ_clean_linker_0, # of connection points: 2
#     Edge 31, Type (0, 1), BuildingBlock: MIFKUJ_clean_linker_0, # of connection points: 2
#     Edge 32, Type (0, 1), BuildingBlock: MIFKUJ_clean_linker_0, # of connection points: 2
#     Edge 33, Type (0, 1), BuildingBlock: MIFKUJ_clean_linker_0, # of connection points: 2
#     Edge 34, Type (0, 1), BuildingBlock: MIFKUJ_clean_linker_0, # of connection points: 2
#     Edge 35, Type (0, 1), BuildingBlock: MIFKUJ_clean_linker_0, # of connection points: 2
# Relax obj value: 0.095
# Max RMSD: 0.169
# Mean RMSD: 0.146
data_MOF--net-nom--node1-AZAVOO_clean_sbu_0--node2-NAHDIM_clean_linker_0--edge1-MIFKUJ_clean_linker_0
_symmetry_space_group_name_H-M    P1
_symmetry_Int_Tables_number       1
_symmetry_cell_setting            triclinic
loop_
_symmetry_equiv_pos_as_xyz
'x, y, z'
_cell_length_a     69.897746
_cell_length_b     70.582151
_cell_length_c     83.107333
_cell_angle_alpha  90.801807
_cell_angle_beta   90.853066
_cell_angle_gamma 119.99683
loop_
_atom_site_label
_atom_site_type_symbol
_atom_site_fract_x
_atom_site_fract_y
_atom_site_fract_z
_atom_type_partial_charge
C0 C 0.12708 0.59411 0.2548 0.0
C1 C 0.13465 0.59945 0.27253 0.0
C2 C 0.09872 0.58728 0.28501 0.0
C3 C 0.09102 0.56467 0.28401 0.0
C4 C 0.06919 0.54943 0.28786 0.0
C5 C 0.05471 0.5569 0.29263 0.0
C6 C 0.06241 0.57962 0.2937 0.0
C7 C 0.08442 0.59451 0.29006 0.0
C8 C 0.06158 0.52531 0.2868 0.0
C9 C 0.04735 0.58816 0.2986 0.0
C10 C 0.90938 0.48151 0.21118 0.0
C11 C 0.92227 0.49307 0.22608 0.0
C12 C 0.95057 0.49414 0.24439 0.0
C13 C 0.95071 0.50977 0.25517 0.0
C14 C 0.96474 0.51702 0.26888 0.0
C15 C 0.9785 0.50806 0.27214 0.0
C16 C 0.97804 0.49198 0.26152 0.0
C17 C 0.96419 0.48537 0.24771 0.0
C18 C 0.96504 0.53449 0.27976 0.0
C19 C 0.99231 0.48191 0.26467 0.0
C20 C 0.89853 0.44292 0.35794 0.0
C21 C 0.90387 0.46436 0.3544 0.0
C22 C 0.92595 0.48076 0.35257 0.0
C23 C 0.9429 0.47537 0.35385 0.0
C24 C 0.93755 0.45391 0.35803 0.0
C25 C 0.91539 0.43805 0.3603 0.0
C26 C 0.93106 0.5037 0.34896 0.0
C27 C 0.95513 0.44756 0.3597 0.0
C28 C 0.10347 0.58305 0.39801 0.0
C29 C 0.08996 0.56292 0.40821 0.0
C30 C 0.05194 0.5479 0.39846 0.0
C31 C 0.03851 0.5565 0.39405 0.0
C32 C 0.02205 0.5463 0.38194 0.0
C33 C 0.0188 0.52682 0.37433 0.0
C34 C 0.03144 0.51732 0.37945 0.0
C35 C 0.04787 0.52794 0.39151 0.0
C36 C 0.00864 0.55668 0.37691 0.0
C37 C 0.02794 0.49621 0.37189 0.0
C38 C 0.03148 0.54089 0.29643 0.0
C39 C 0.0161 0.53172 0.28365 0.0
C40 C 0.99402 0.51622 0.28629 0.0
C41 C 0.98704 0.50948 0.30214 0.0
C42 C 0.96519 0.49333 0.30521 0.0
C43 C 0.95835 0.48727 0.32088 0.0
C44 C 0.97302 0.49732 0.33412 0.0
C45 C 0.96605 0.49184 0.35015 0.0
C46 C 0.98122 0.5019 0.36298 0.0
C47 C 0.00332 0.5172 0.36026 0.0
C48 C 0.01055 0.52298 0.34434 0.0
C49 C 0.03269 0.53832 0.3412 0.0
C50 C 0.03964 0.54401 0.32552 0.0
C51 C 0.02468 0.53481 0.31238 0.0
C52 C 0.00234 0.51913 0.31524 0.0
C53 C 0.99529 0.51315 0.33125 0.0
C54 C 0.8465 0.39984 0.34341 0.0
C55 C 0.86006 0.42387 0.34888 0.0
O56 O 0.11961 0.60265 0.28115 0.0
O57 O 0.06857 0.55915 0.40948 0.0
O58 O 0.87727 0.42655 0.35894 0.0
O59 O 0.93778 0.48726 0.23069 0.0
H60 H 0.13615 0.58581 0.27774 0.0
H61 H 0.1108 0.57886 0.25366 0.0
H62 H 0.12555 0.60766 0.24945 0.0
H63 H 0.13909 0.59159 0.24781 0.0
H64 H 0.10185 0.55872 0.28028 0.0
H65 H 0.09049 0.61195 0.29084 0.0
H66 H 0.04859 0.51738 0.2772 0.0
H67 H 0.07527 0.52216 0.28407 0.0
H68 H 0.05416 0.51747 0.29831 0.0
H69 H 0.05542 0.60623 0.29774 0.0
H70 H 0.03212 0.58049 0.29086 0.0
H71 H 0.04226 0.58366 0.3112 0.0
H72 H 0.92898 0.51111 0.22628 0.0
H73 H 0.91387 0.49475 0.20215 0.0
H74 H 0.91874 0.47438 0.20507 0.0
H75 H 0.87708 0.46219 0.21926 0.0
H76 H 0.94015 0.51661 0.25288 0.0
H77 H 0.96393 0.47327 0.2394 0.0
H78 H 0.95825 0.52745 0.2916 0.0
H79 H 0.98229 0.548 0.28192 0.0
H80 H 0.95512 0.5414 0.27467 0.0
H81 H 0.98791 0.46764 0.25651 0.0
H82 H 0.00988 0.49436 0.26289 0.0
H83 H 0.99077 0.47658 0.27733 0.0
H84 H 0.8667 0.43346 0.33775 0.0
H85 H 0.89081 0.46829 0.35306 0.0
H86 H 0.91104 0.42149 0.36328 0.0
H87 H 0.935 0.50691 0.33605 0.0
H88 H 0.91687 0.50615 0.35148 0.0
H89 H 0.94568 0.5159 0.35618 0.0
H90 H 0.948 0.42972 0.36139 0.0
H91 H 0.9655 0.45234 0.34886 0.0
H92 H 0.96611 0.45645 0.37023 0.0
H93 H 0.09003 0.54888 0.40207 0.0
H94 H 0.1208 0.58657 0.39727 0.0
H95 H 0.09624 0.57996 0.3856 0.0
H96 H 0.10345 0.59763 0.4032 0.0
H97 H 0.0415 0.57168 0.39974 0.0
H98 H 0.05741 0.52055 0.39548 0.0
H99 H 0.01183 0.56148 0.36413 0.0
H100 H 0.99075 0.54465 0.37779 0.0
H101 H 0.01262 0.5714 0.38441 0.0
H102 H 0.0381 0.49018 0.37792 0.0
H103 H 0.01025 0.48342 0.37242 0.0
H104 H 0.0323 0.49874 0.359 0.0
H105 H 0.02138 0.53679 0.27148 0.0
H106 H 0.95313 0.4852 0.29551 0.0
H107 H 0.94134 0.47471 0.32247 0.0
H108 H 0.9758 0.49762 0.37523 0.0
H109 H 0.04493 0.54614 0.35083 0.0
H110 H 0.05688 0.55588 0.32386 0.0
H111 H 0.8397 0.38906 0.35391 0.0
H112 H 0.83261 0.3973 0.33526 0.0
H113 H 0.85714 0.39504 0.33674 0.0
C114 C 0.44761 0.8911 0.55364 0.0
C115 C 0.43691 0.88499 0.53671 0.0
C116 C 0.44671 0.92158 0.52705 0.0
C117 C 0.46926 0.92914 0.52468 0.0
C118 C 0.48368 0.95099 0.52071 0.0
C119 C 0.47538 0.96551 0.51908 0.0
C120 C 0.45265 0.95785 0.52119 0.0
C121 C 0.4386 0.93592 0.52504 0.0
C122 C 0.5078 0.95864 0.51834 0.0
C123 C 0.44325 0.9729 0.51954 0.0
C124 C 0.55957 0.0536 0.60214 0.0
C125 C 0.55032 0.06845 0.59752 0.0
C126 C 0.5473 0.06521 0.56854 0.0
C127 C 0.52518 0.05863 0.56494 0.0
C128 C 0.51466 0.04619 0.55092 0.0
C129 C 0.52651 0.04 0.54045 0.0
C130 C 0.54898 0.04692 0.544 0.0
C131 C 0.55921 0.05984 0.5579 0.0
C132 C 0.49084 0.0395 0.54737 0.0
C133 C 0.56206 0.04033 0.53332 0.0
C134 C 0.56872 0.12746 0.46071 0.0
C135 C 0.54579 0.11853 0.46177 0.0
C136 C 0.53158 0.09578 0.46134 0.0
C137 C 0.54054 0.0818 0.45977 0.0
C138 C 0.56345 0.09082 0.45737 0.0
C139 C 0.57726 0.11364 0.45774 0.0
C140 C 0.50713 0.08667 0.46339 0.0
C141 C 0.57347 0.07635 0.45534 0.0
C142 C 0.44231 0.9206 0.41509 0.0
C143 C 0.46052 0.93607 0.40391 0.0
C144 C 0.47219 0.97291 0.41403 0.0
C145 C 0.46162 0.98373 0.42014 0.0
C146 C 0.47188 0.0002 0.43213 0.0
C147 C 0.49334 0.00612 0.43791 0.0
C148 C 0.50469 0.99626 0.43097 0.0
C149 C 0.49402 0.97981 0.41903 0.0
C150 C 0.45948 0.01067 0.4391 0.0
C151 C 0.52783 0.00264 0.43653 0.0
C152 C 0.49051 0.98884 0.5155 0.0
C153 C 0.5015 0.00333 0.52844 0.0
C154 C 0.5152 0.02572 0.52608 0.0
C155 C 0.51793 0.03399 0.51037 0.0
C156 C 0.531 0.05648 0.5076 0.0
C157 C 0.53385 0.06442 0.49208 0.0
C158 C 0.52364 0.05018 0.4787 0.0
C159 C 0.52657 0.05811 0.46285 0.0
C160 C 0.51635 0.04351 0.4498 0.0
C161 C 0.50312 0.02104 0.45218 0.0
C162 C 0.49979 0.01285 0.46796 0.0
C163 C 0.48638 0.99037 0.47079 0.0
C164 C 0.48328 0.98246 0.48634 0.0
C165 C 0.49356 0.9967 0.49966 0.0
C166 C 0.50724 0.01939 0.4971 0.0
C167 C 0.5102 0.02748 0.48124 0.0
C168 C 0.60017 0.17041 0.48675 0.0
C169 C 0.58112 0.16257 0.47436 0.0
O170 O 0.4322 0.90079 0.53139 0.0
O171 O 0.46093 0.95591 0.40339 0.0
O172 O 0.58301 0.14923 0.46284 0.0
O173 O 0.55734 0.07656 0.58232 0.0
H174 H 0.44825 0.88345 0.52823 0.0
H175 H 0.46354 0.90674 0.55358 0.0
H176 H 0.43654 0.89294 0.5622 0.0
H177 H 0.45102 0.87824 0.55801 0.0
H178 H 0.47579 0.9182 0.52595 0.0
H179 H 0.42118 0.92991 0.5268 0.0
H180 H 0.51797 0.9715 0.52754 0.0
H181 H 0.51152 0.94511 0.51928 0.0
H182 H 0.51281 0.96605 0.50634 0.0
H183 H 0.4253 0.96453 0.52197 0.0
H184 H 0.45206 0.98712 0.52802 0.0
H185 H 0.44585 0.97934 0.50717 0.0
H186 H 0.53194 0.05856 0.59755 0.0
H187 H 0.55406 0.0469 0.6143 0.0
H188 H 0.55351 0.03963 0.59339 0.0
H189 H 0.57793 0.06283 0.60213 0.0
H190 H 0.5162 0.06328 0.5731 0.0
H191 H 0.57636 0.06516 0.56082 0.0
H192 H 0.48874 0.04315 0.53472 0.0
H193 H 0.48032 0.02157 0.54882 0.0
H194 H 0.48487 0.04793 0.55553 0.0
H195 H 0.57852 0.04501 0.53871 0.0
H196 H 0.55281 0.02236 0.53098 0.0
H197 H 0.56454 0.04837 0.52155 0.0
H198 H 0.56576 0.15331 0.48131 0.0
H199 H 0.53903 0.12929 0.46327 0.0
H200 H 0.59495 0.12076 0.45654 0.0
H201 H 0.50238 0.07913 0.47537 0.0
H202 H 0.50242 0.09951 0.4625 0.0
H203 H 0.49759 0.07366 0.45412 0.0
H204 H 0.59131 0.08584 0.45257 0.0
H205 H 0.57155 0.06729 0.46657 0.0
H206 H 0.5646 0.06407 0.44549 0.0
H207 H 0.47631 0.93825 0.40899 0.0
H208 H 0.4412 0.90433 0.41505 0.0
H209 H 0.44619 0.92745 0.42759 0.0
H210 H 0.42602 0.91849 0.41134 0.0
H211 H 0.44494 0.9786 0.41594 0.0
H212 H 0.50278 0.97237 0.41369 0.0
H213 H 0.45614 0.00635 0.45195 0.0
H214 H 0.46974 0.02876 0.43863 0.0
H215 H 0.44351 0.0053 0.4326 0.0
H216 H 0.53495 0.99449 0.42922 0.0
H217 H 0.53875 0.02065 0.4359 0.0
H218 H 0.52767 0.99814 0.4493 0.0
H219 H 0.49924 0.99711 0.54055 0.0
H220 H 0.53922 0.06823 0.5174 0.0
H221 H 0.54424 0.08189 0.49073 0.0
H222 H 0.51885 0.04968 0.43768 0.0
H223 H 0.47807 0.97859 0.46102 0.0
H224 H 0.47278 0.96501 0.48777 0.0
H225 H 0.61643 0.17865 0.48087 0.0
H226 H 0.5995 0.18192 0.49568 0.0
H227 H 0.59876 0.15615 0.49328 0.0
C228 C 0.52727 0.40086 0.65708 0.0
C229 C 0.53715 0.413 0.6732 0.0
C230 C 0.54622 0.45102 0.66889 0.0
C231 C 0.56346 0.47258 0.66761 0.0
C232 C 0.55923 0.4899 0.66572 0.0
C233 C 0.53714 0.48547 0.66505 0.0
C234 C 0.51958 0.4637 0.66626 0.0
C235 C 0.52426 0.44671 0.66814 0.0
C236 C 0.57831 0.51293 0.6644 0.0
C237 C 0.4958 0.45838 0.66565 0.0
C238 C 0.48017 0.55673 0.75635 0.0
C239 C 0.48204 0.54497 0.742 0.0
C240 C 0.50719 0.54886 0.72067 0.0
C241 C 0.4908 0.5316 0.71108 0.0
C242 C 0.49598 0.52538 0.69644 0.0
C243 C 0.51803 0.53656 0.69122 0.0
C244 C 0.53458 0.55403 0.70072 0.0
C245 C 0.5289 0.55999 0.71534 0.0
C246 C 0.47784 0.50673 0.68658 0.0
C247 C 0.55819 0.56632 0.69541 0.0
C248 C 0.48248 0.59863 0.61165 0.0
C249 C 0.46768 0.57703 0.61593 0.0
C250 C 0.4745 0.56142 0.61665 0.0
C251 C 0.49666 0.56767 0.61324 0.0
C252 C 0.51135 0.58924 0.60837 0.0
C253 C 0.50394 0.60438 0.60744 0.0
C254 C 0.45811 0.53833 0.62124 0.0
C255 C 0.535 0.59642 0.60448 0.0
C256 C 0.49144 0.4391 0.54674 0.0
C257 C 0.51411 0.45996 0.54714 0.0
C258 C 0.51162 0.48961 0.55966 0.0
C259 C 0.49204 0.48333 0.56775 0.0
C260 C 0.49196 0.49492 0.58157 0.0
C261 C 0.5119 0.51341 0.58714 0.0
C262 C 0.53159 0.52018 0.57863 0.0
C263 C 0.53121 0.50809 0.56495 0.0
C264 C 0.47065 0.4873 0.5903 0.0
C265 C 0.55302 0.54001 0.58409 0.0
C266 C 0.53228 0.50352 0.66306 0.0
C267 C 0.53002 0.51355 0.67695 0.0
C268 C 0.52362 0.52937 0.67601 0.0
C269 C 0.51999 0.53593 0.66081 0.0
C270 C 0.514 0.55213 0.65943 0.0
C271 C 0.50939 0.55769 0.64445 0.0
C272 C 0.51028 0.54704 0.63028 0.0
C273 C 0.50455 0.55178 0.61506 0.0
C274 C 0.50563 0.54086 0.60124 0.0
C275 C 0.5122 0.52517 0.60217 0.0
C276 C 0.51796 0.52018 0.61727 0.0
C277 C 0.52442 0.50431 0.61864 0.0
C278 C 0.52952 0.49912 0.63358 0.0
C279 C 0.52813 0.50941 0.64776 0.0
C280 C 0.52193 0.52566 0.64664 0.0
C281 C 0.51689 0.53109 0.63137 0.0
C282 C 0.47184 0.63916 0.62816 0.0
C283 C 0.46185 0.6156 0.62176 0.0
O284 O 0.55154 0.43503 0.67075 0.0
O285 O 0.51154 0.47817 0.54646 0.0
O286 O 0.47663 0.61431 0.6115 0.0
O287 O 0.50261 0.55512 0.73501 0.0
H288 H 0.52344 0.411 0.68094 0.0
H289 H 0.51736 0.40722 0.65116 0.0
H290 H 0.5405 0.40302 0.6488 0.0
H291 H 0.51623 0.38311 0.65906 0.0
H292 H 0.58034 0.4758 0.66814 0.0
H293 H 0.5106 0.43018 0.66895 0.0
H294 H 0.57769 0.5234 0.67424 0.0
H295 H 0.59457 0.51368 0.66507 0.0
H296 H 0.57689 0.51984 0.65282 0.0
H297 H 0.48398 0.44053 0.66615 0.0
H298 H 0.49281 0.46665 0.67595 0.0
H299 H 0.49236 0.46464 0.65443 0.0
H300 H 0.47534 0.52707 0.74352 0.0
H301 H 0.47717 0.54549 0.76667 0.0
H302 H 0.49757 0.56904 0.76041 0.0
H303 H 0.45705 0.56573 0.74878 0.0
H304 H 0.47387 0.5228 0.71492 0.0
H305 H 0.54145 0.57332 0.72274 0.0
H306 H 0.47605 0.51269 0.67468 0.0
H307 H 0.48222 0.49383 0.68441 0.0
H308 H 0.46164 0.49928 0.69256 0.0
H309 H 0.56897 0.58011 0.70381 0.0
H310 H 0.56482 0.55495 0.69462 0.0
H311 H 0.55889 0.57282 0.68321 0.0
H312 H 0.45932 0.60537 0.63249 0.0
H313 H 0.45079 0.57231 0.61865 0.0
H314 H 0.51512 0.62102 0.60392 0.0
H315 H 0.46258 0.53515 0.63337 0.0
H316 H 0.44095 0.53539 0.62148 0.0
H317 H 0.45862 0.52641 0.61264 0.0
H318 H 0.54468 0.6141 0.60178 0.0
H319 H 0.54314 0.59308 0.61475 0.0
H320 H 0.53535 0.58684 0.59389 0.0
H321 H 0.52297 0.46048 0.55857 0.0
H322 H 0.49333 0.42437 0.54666 0.0
H323 H 0.48217 0.43857 0.55761 0.0
H324 H 0.48168 0.4385 0.53586 0.0
H325 H 0.47686 0.46928 0.56327 0.0
H326 H 0.54618 0.51289 0.55839 0.0
H327 H 0.47287 0.48429 0.60309 0.0
H328 H 0.46612 0.5003 0.59015 0.0
H329 H 0.45678 0.47209 0.5848 0.0
H330 H 0.56644 0.54414 0.57544 0.0
H331 H 0.55062 0.55434 0.58566 0.0
H332 H 0.55831 0.53692 0.59596 0.0
H333 H 0.53237 0.50831 0.68866 0.0
H334 H 0.51273 0.56062 0.66995 0.0
H335 H 0.50481 0.57024 0.64414 0.0
H336 H 0.50098 0.54439 0.58962 0.0
H337 H 0.5255 0.49561 0.60817 0.0
H338 H 0.53431 0.48672 0.63389 0.0
H339 H 0.47551 0.65064 0.61813 0.0
H340 H 0.46027 0.64062 0.63644 0.0
H341 H 0.4875 0.644 0.63495 0.0
C342 C 0.12167 0.54833 0.90312 0.0
C343 C 0.13416 0.55979 0.88801 0.0
C344 C 0.1046 0.54305 0.86774 0.0
C345 C 0.10116 0.56043 0.86399 0.0
C346 C 0.08061 0.55641 0.85788 0.0
C347 C 0.06316 0.53456 0.85566 0.0
C348 C 0.06691 0.51702 0.85887 0.0
C349 C 0.08779 0.52155 0.86461 0.0
C350 C 0.07737 0.57552 0.85418 0.0
C351 C 0.04864 0.49352 0.85686 0.0
C352 C 0.99979 0.56432 0.94363 0.0
C353 C 0.98606 0.5427 0.93424 0.0
C354 C 0.98309 0.54082 0.90501 0.0
C355 C 0.98136 0.52036 0.90229 0.0
C356 C 0.98753 0.51532 0.88756 0.0
C357 C 0.99582 0.53119 0.87544 0.0
C358 C 0.99636 0.55135 0.87786 0.0
C359 C 0.98956 0.55572 0.89258 0.0
C360 C 0.98614 0.49342 0.88523 0.0
C361 C 0.00529 0.56876 0.8653 0.0
C362 C 0.9013 0.48935 0.79102 0.0
C363 C 0.90541 0.47286 0.79632 0.0
C364 C 0.92711 0.47693 0.79836 0.0
C365 C 0.94502 0.49795 0.7952 0.0
C366 C 0.94092 0.51429 0.78923 0.0
C367 C 0.91903 0.50966 0.78704 0.0
C368 C 0.93092 0.45889 0.80418 0.0
C369 C 0.95965 0.5368 0.78556 0.0
C370 C 0.09037 0.50081 0.74477 0.0
C371 C 0.07769 0.51285 0.7414 0.0
C372 C 0.04114 0.50015 0.75206 0.0
C373 C 0.02484 0.48144 0.75935 0.0
C374 C 0.01132 0.48292 0.77102 0.0
C375 C 0.01393 0.50363 0.77513 0.0
C376 C 0.0293 0.5224 0.76688 0.0
C377 C 0.04284 0.52048 0.75545 0.0
C378 C 0.99486 0.46253 0.7794 0.0
C379 C 0.0319 0.54458 0.77054 0.0
C380 C 0.04054 0.53014 0.85157 0.0
C381 C 0.02841 0.53203 0.86404 0.0
C382 C 0.00693 0.52804 0.86141 0.0
C383 C 0.99699 0.52171 0.84587 0.0
C384 C 0.97526 0.51716 0.84282 0.0
C385 C 0.96575 0.51118 0.82741 0.0
C386 C 0.97756 0.50933 0.81449 0.0
C387 C 0.96801 0.50311 0.79879 0.0
C388 C 0.98024 0.50152 0.78622 0.0
C389 C 0.00188 0.50589 0.78889 0.0
C390 C 0.01169 0.51202 0.8045 0.0
C391 C 0.03341 0.51642 0.80761 0.0
C392 C 0.04296 0.52253 0.82298 0.0
C393 C 0.03109 0.52421 0.83588 0.0
C394 C 0.00919 0.51989 0.83303 0.0
C395 C 0.99948 0.51376 0.81733 0.0
C396 C 0.84981 0.48367 0.80362 0.0
C397 C 0.86289 0.4724 0.79905 0.0
O398 O 0.12389 0.54652 0.87451 0.0
O399 O 0.05521 0.49815 0.74205 0.0
O400 O 0.88055 0.48632 0.78979 0.0
O401 O 0.97923 0.54685 0.91962 0.0
H402 H 0.13422 0.57551 0.88701 0.0
H403 H 0.1045 0.54534 0.90232 0.0
H404 H 0.12104 0.53238 0.90441 0.0
H405 H 0.12988 0.55874 0.91403 0.0
H406 H 0.11447 0.57712 0.86581 0.0
H407 H 0.0908 0.50829 0.86737 0.0
H408 H 0.06669 0.57678 0.86338 0.0
H409 H 0.09328 0.59125 0.8542 0.0
H410 H 0.06891 0.57293 0.84227 0.0
H411 H 0.05398 0.48181 0.86064 0.0
H412 H 0.03425 0.49076 0.86407 0.0
H413 H 0.04301 0.48996 0.84406 0.0
H414 H 0.99712 0.53574 0.93234 0.0
H415 H 0.00555 0.56143 0.95539 0.0
H416 H 0.01452 0.57545 0.93666 0.0
H417 H 0.98995 0.57249 0.94579 0.0
H418 H 0.97556 0.50851 0.91177 0.0
H419 H 0.99049 0.57133 0.89477 0.0
H420 H 0.97923 0.48641 0.87305 0.0
H421 H 0.003 0.49563 0.88617 0.0
H422 H 0.97576 0.48158 0.89441 0.0
H423 H 0.00503 0.58375 0.86922 0.0
H424 H 0.02256 0.5733 0.86261 0.0
H425 H 0.99534 0.56231 0.85396 0.0
H426 H 0.86901 0.46938 0.81065 0.0
H427 H 0.89174 0.45684 0.79889 0.0
H428 H 0.91567 0.52215 0.78274 0.0
H429 H 0.93858 0.4632 0.81646 0.0
H430 H 0.91532 0.44291 0.80459 0.0
H431 H 0.94256 0.45712 0.7962 0.0
H432 H 0.95368 0.54781 0.78125 0.0
H433 H 0.97022 0.5443 0.79653 0.0
H434 H 0.97014 0.53549 0.77621 0.0
H435 H 0.08302 0.52576 0.75104 0.0
H436 H 0.10846 0.51227 0.74419 0.0
H437 H 0.08667 0.49396 0.75703 0.0
H438 H 0.08556 0.48712 0.73593 0.0
H439 H 0.02343 0.46578 0.75639 0.0
H440 H 0.05489 0.53485 0.74929 0.0
H441 H 0.99866 0.46447 0.79255 0.0
H442 H 0.97799 0.46007 0.77764 0.0
H443 H 0.99494 0.44769 0.77487 0.0
H444 H 0.0425 0.55696 0.76173 0.0
H445 H 0.01547 0.54346 0.7705 0.0
H446 H 0.03948 0.5503 0.78275 0.0
H447 H 0.03589 0.53679 0.87604 0.0
H448 H 0.96539 0.51823 0.85233 0.0
H449 H 0.949 0.508 0.82577 0.0
H450 H 0.9728 0.49672 0.77423 0.0
H451 H 0.04332 0.51523 0.7982 0.0
H452 H 0.05976 0.52584 0.82465 0.0
H453 H 0.83536 0.47264 0.81088 0.0
H454 H 0.86052 0.49873 0.81095 0.0
H455 H 0.84391 0.48838 0.79273 0.0
C456 C 0.52633 0.91293 0.94953 0.0
C457 C 0.50258 0.90864 0.94777 0.0
C458 C 0.49687 0.93449 0.96373 0.0
C459 C 0.47757 0.93438 0.96803 0.0
C460 C 0.47745 0.95405 0.9705 0.0
C461 C 0.4973 0.97422 0.96903 0.0
C462 C 0.51699 0.97438 0.96507 0.0
C463 C 0.51654 0.9545 0.96244 0.0
C464 C 0.45617 0.95334 0.97466 0.0
C465 C 0.53858 0.99559 0.96379 0.0
C466 C 0.45939 0.02915 0.87425 0.0
C467 C 0.48039 0.04268 0.88455 0.0
C468 C 0.48067 0.04462 0.91382 0.0
C469 C 0.50171 0.04746 0.91704 0.0
C470 C 0.50695 0.04215 0.93206 0.0
C471 C 0.49068 0.03355 0.944 0.0
C472 C 0.46972 0.03147 0.94096 0.0
C473 C 0.46516 0.03746 0.92597 0.0
C474 C 0.52966 0.04512 0.93497 0.0
C475 C 0.45185 0.02214 0.95329 0.0
C476 C 0.53085 0.13747 0.0225 0.0
C477 C 0.54748 0.13311 0.01767 0.0
C478 C 0.54355 0.1116 0.01675 0.0
C479 C 0.52251 0.09407 0.0206 0.0
C480 C 0.50594 0.09844 0.02592 0.0
C481 C 0.51043 0.12016 0.02694 0.0
C482 C 0.56186 0.10759 0.01154 0.0
C483 C 0.48342 0.08012 0.03027 0.0
C484 C 0.54915 0.97857 0.08965 0.0
C485 C 0.52926 0.98151 0.08617 0.0
C486 C 0.53173 0.01312 0.07329 0.0
C487 C 0.54904 0.03099 0.06595 0.0
C488 C 0.5451 0.04022 0.05235 0.0
C489 C 0.52313 0.03184 0.04645 0.0
C490 C 0.5054 0.01458 0.05455 0.0
C491 C 0.50997 0.00511 0.06772 0.0
C492 C 0.56448 0.0586 0.04414 0.0
C493 C 0.48168 0.00593 0.04922 0.0
C494 C 0.49756 0.99523 0.97142 0.0
C495 C 0.49345 0.00443 0.95799 0.0
C496 C 0.49494 0.02492 0.95901 0.0
C497 C 0.50061 0.03661 0.97392 0.0
C498 C 0.50288 0.05751 0.97533 0.0
C499 C 0.50842 0.06883 0.99008 0.0
C500 C 0.512 0.05972 0.00396 0.0
C501 C 0.51794 0.07121 0.01895 0.0
C502 C 0.52086 0.06147 0.03258 0.0
C503 C 0.51883 0.04076 0.0316 0.0
C504 C 0.51361 0.02929 0.0166 0.0
C505 C 0.51238 0.00884 0.015 0.0
C506 C 0.50701 0.9976 0.00025 0.0
C507 C 0.50286 0.00645 0.98648 0.0
C508 C 0.50433 0.0272 0.98774 0.0
C509 C 0.50986 0.03869 0.0028 0.0
C510 C 0.53846 0.18914 0.00894 0.0
C511 C 0.54887 0.17549 0.01406 0.0
O512 O 0.49634 0.91514 0.96162 0.0
O513 O 0.53644 0.00367 0.08563 0.0
O514 O 0.53386 0.15805 0.02296 0.0
O515 O 0.47476 0.04828 0.89907 0.0
H516 H 0.50169 0.91792 0.93731 0.0
H517 H 0.5385 0.93057 0.94867 0.0
H518 H 0.52889 0.90701 0.96124 0.0
H519 H 0.5299 0.90446 0.93964 0.0
H520 H 0.46251 0.91881 0.96921 0.0
H521 H 0.53169 0.95471 0.95977 0.0
H522 H 0.45191 0.96179 0.9653 0.0
H523 H 0.44219 0.93633 0.97558 0.0
H524 H 0.45833 0.96221 0.98629 0.0
H525 H 0.5524 0.99294 0.96043 0.0
H526 H 0.53686 0.00599 0.95465 0.0
H527 H 0.54286 0.00474 0.97549 0.0
H528 H 0.48771 0.03201 0.88658 0.0
H529 H 0.46345 0.02436 0.86255 0.0
H530 H 0.44793 0.01401 0.88059 0.0
H531 H 0.45083 0.03858 0.87193 0.0
H532 H 0.51398 0.05367 0.90777 0.0
H533 H 0.44906 0.03561 0.92339 0.0
H534 H 0.53624 0.05259 0.9471 0.0
H535 H 0.52855 0.02888 0.93451 0.0
H536 H 0.54151 0.05555 0.92579 0.0
H537 H 0.43599 0.02024 0.94864 0.0
H538 H 0.449 0.00591 0.95707 0.0
H539 H 0.4572 0.03306 0.96415 0.0
H540 H 0.55228 0.16934 0.00265 0.0
H541 H 0.56358 0.14642 0.01468 0.0
H542 H 0.49779 0.1237 0.03084 0.0
H543 H 0.55713 0.09836 0.99987 0.0
H544 H 0.57775 0.12306 0.01013 0.0
H545 H 0.56437 0.09745 0.02049 0.0
H546 H 0.47209 0.08618 0.03371 0.0
H547 H 0.4759 0.0684 0.01992 0.0
H548 H 0.48508 0.07103 0.04048 0.0
H549 H 0.52209 0.97343 0.07422 0.0
H550 H 0.54395 0.9609 0.08981 0.0
H551 H 0.5615 0.98633 0.08011 0.0
H552 H 0.55711 0.98631 0.10146 0.0
H553 H 0.56576 0.03712 0.07052 0.0
H554 H 0.49659 0.99153 0.07374 0.0
H555 H 0.56333 0.05531 0.03095 0.0
H556 H 0.56423 0.07406 0.04615 0.0
H557 H 0.58055 0.06104 0.04882 0.0
H558 H 0.46996 0.996 0.05863 0.0
H559 H 0.47879 0.01959 0.04618 0.0
H560 H 0.47796 0.99541 0.03825 0.0
H561 H 0.48936 0.99566 0.94648 0.0
H562 H 0.5004 0.06535 0.96504 0.0
H563 H 0.50985 0.08483 0.99046 0.0
H564 H 0.52529 0.07037 0.04404 0.0
H565 H 0.51556 0.00125 0.02513 0.0
H566 H 0.50617 0.98186 0.99977 0.0
H567 H 0.5333 0.19506 0.01956 0.0
H568 H 0.55038 0.20343 0.00199 0.0
H569 H 0.52361 0.179 0.00114 0.0
C570 C 0.56299 0.45335 0.09413 0.0
C571 C 0.57534 0.4611 0.11044 0.0
C572 C 0.56552 0.48877 0.11867 0.0
C573 C 0.54366 0.47401 0.12292 0.0
C574 C 0.52919 0.4815 0.12716 0.0
C575 C 0.53663 0.50418 0.12706 0.0
C576 C 0.55864 0.5191 0.12293 0.0
C577 C 0.57285 0.51118 0.11892 0.0
C578 C 0.50584 0.46517 0.13164 0.0
C579 C 0.56705 0.54338 0.12263 0.0
C580 C 0.41832 0.4865 0.05061 0.0
C581 C 0.4389 0.50883 0.05392 0.0
C582 C 0.45092 0.51668 0.08169 0.0
C583 C 0.47229 0.53444 0.08387 0.0
C584 C 0.48578 0.53525 0.09684 0.0
C585 C 0.47762 0.51775 0.1077 0.0
C586 C 0.45601 0.49965 0.10535 0.0
C587 C 0.44278 0.49948 0.09243 0.0
C588 C 0.50871 0.55479 0.09898 0.0
C589 C 0.44691 0.4805 0.11647 0.0
C590 C 0.43012 0.55677 0.19258 0.0
C591 C 0.45115 0.57347 0.18827 0.0
C592 C 0.46861 0.56924 0.18648 0.0
C593 C 0.46486 0.54786 0.18893 0.0
C594 C 0.44402 0.53134 0.19412 0.0
C595 C 0.42695 0.53612 0.19605 0.0
C596 C 0.49087 0.58742 0.18148 0.0
C597 C 0.43956 0.50844 0.19703 0.0
C598 C 0.60685 0.53959 0.24133 0.0
C599 C 0.58159 0.52704 0.24118 0.0
C600 C 0.55801 0.5405 0.23081 0.0
C601 C 0.56046 0.55971 0.22435 0.0
C602 C 0.5454 0.55901 0.21269 0.0
C603 C 0.52711 0.53858 0.2078 0.0
C604 C 0.52367 0.51921 0.21522 0.0
C605 C 0.53932 0.52035 0.22654 0.0
C606 C 0.54945 0.58002 0.20519 0.0
C607 C 0.50381 0.49727 0.21085 0.0
C608 C 0.52117 0.51214 0.13095 0.0
C609 C 0.50744 0.51212 0.11855 0.0
C610 C 0.49172 0.51838 0.12146 0.0
C611 C 0.48943 0.52472 0.13721 0.0
C612 C 0.4736 0.53085 0.14061 0.0
C613 C 0.47107 0.53648 0.15621 0.0
C614 C 0.48461 0.53667 0.16899 0.0
C615 C 0.48215 0.54236 0.18492 0.0
C616 C 0.49605 0.54266 0.1973 0.0
C617 C 0.51246 0.53736 0.19423 0.0
C618 C 0.515 0.53137 0.17842 0.0
C619 C 0.53124 0.52578 0.17492 0.0
C620 C 0.53322 0.51936 0.15942 0.0
C621 C 0.51939 0.51877 0.14673 0.0
C622 C 0.50331 0.52488 0.14989 0.0
C623 C 0.50098 0.53099 0.16578 0.0
C624 C 0.38515 0.56217 0.17733 0.0
C625 C 0.40914 0.57392 0.18362 0.0
O626 O 0.57999 0.48224 0.11412 0.0
O627 O 0.57412 0.54189 0.24089 0.0
O628 O 0.41249 0.55991 0.19322 0.0
O629 O 0.43799 0.51619 0.06926 0.0
H630 H 0.56509 0.44989 0.11999 0.0
H631 H 0.54699 0.45306 0.09449 0.0
H632 H 0.573 0.46448 0.08448 0.0
H633 H 0.55945 0.4365 0.09109 0.0
H634 H 0.53765 0.45662 0.12292 0.0
H635 H 0.58973 0.52246 0.11568 0.0
H636 H 0.49404 0.46557 0.12275 0.0
H637 H 0.50292 0.4482 0.13201 0.0
H638 H 0.50222 0.46966 0.14361 0.0
H639 H 0.58446 0.5528 0.11877 0.0
H640 H 0.55654 0.54666 0.11429 0.0
H641 H 0.56593 0.54937 0.1348 0.0
H642 H 0.45369 0.50679 0.05293 0.0
H643 H 0.41883 0.48016 0.03841 0.0
H644 H 0.41759 0.47462 0.05955 0.0
H645 H 0.40311 0.48772 0.05147 0.0
H646 H 0.47828 0.54766 0.07542 0.0
H647 H 0.42613 0.48587 0.09055 0.0
H648 H 0.51106 0.56181 0.11138 0.0
H649 H 0.52112 0.54953 0.09736 0.0
H650 H 0.51194 0.56776 0.09023 0.0
H651 H 0.43082 0.46671 0.11197 0.0
H652 H 0.45882 0.47454 0.11793 0.0
H653 H 0.44452 0.4858 0.12854 0.0
H654 H 0.41946 0.57801 0.17271 0.0
H655 H 0.45393 0.58974 0.18616 0.0
H656 H 0.41075 0.52346 0.19962 0.0
H657 H 0.49413 0.58396 0.16907 0.0
H658 H 0.4918 0.6036 0.18176 0.0
H659 H 0.5041 0.58824 0.18953 0.0
H660 H 0.4225 0.49749 0.20115 0.0
H661 H 0.44202 0.50137 0.18576 0.0
H662 H 0.45147 0.50893 0.20624 0.0
H663 H 0.57612 0.5166 0.22998 0.0
H664 H 0.61327 0.52801 0.24144 0.0
H665 H 0.61277 0.54952 0.23035 0.0
H666 H 0.61361 0.55075 0.25206 0.0
H667 H 0.57479 0.57519 0.22796 0.0
H668 H 0.53705 0.50552 0.23198 0.0
H669 H 0.55025 0.57877 0.19191 0.0
H670 H 0.53549 0.58278 0.20779 0.0
H671 H 0.56502 0.59443 0.20979 0.0
H672 H 0.50163 0.48451 0.2195 0.0
H673 H 0.48857 0.49849 0.21049 0.0
H674 H 0.50586 0.49196 0.19868 0.0
H675 H 0.50887 0.50695 0.10648 0.0
H676 H 0.46281 0.53116 0.13126 0.0
H677 H 0.45839 0.54075 0.1581 0.0
H678 H 0.49411 0.54712 0.20946 0.0
H679 H 0.5425 0.5261 0.18414 0.0
H680 H 0.5458 0.51496 0.1575 0.0
H681 H 0.38201 0.57331 0.16985 0.0
H682 H 0.38194 0.54774 0.16974 0.0
H683 H 0.37344 0.55638 0.18741 0.0
Mg684 Mg 0.61637 0.39492 0.38185 0.0
O685 O 0.61177 0.41286 0.40336 0.0
O686 O 0.62411 0.44746 0.39618 0.0
Mg687 Mg 0.63623 0.45157 0.37032 0.0
C688 C 0.61555 0.43225 0.40642 0.0
C689 C 0.59299 0.3526 0.40282 0.0
O690 O 0.57549 0.35442 0.39977 0.0
O691 O 0.6533 0.4125 0.38713 0.0
O692 O 0.66501 0.44607 0.37789 0.0
O693 O 0.58281 0.3859 0.37175 0.0
O694 O 0.61383 0.41633 0.36653 0.0
C695 C 0.6688 0.4317 0.38401 0.0
C696 C 0.59269 0.40478 0.36506 0.0
O697 O 0.61156 0.36677 0.39747 0.0
Mg698 Mg 0.23663 0.63024 0.59021 0.0
O699 O 0.21457 0.61538 0.56768 0.0
O700 O 0.1956 0.57906 0.57062 0.0
Mg701 Mg 0.20231 0.57141 0.59618 0.0
C702 C 0.20089 0.59609 0.5624 0.0
C703 C 0.25378 0.67545 0.57313 0.0
O704 O 0.23395 0.6719 0.57645 0.0
O705 O 0.25804 0.61576 0.58296 0.0
O706 O 0.23796 0.58079 0.58995 0.0
O707 O 0.21098 0.63565 0.60186 0.0
O708 O 0.2128 0.60535 0.60353 0.0
C709 C 0.25582 0.59687 0.58492 0.0
C710 C 0.20253 0.61577 0.60675 0.0
O711 O 0.25923 0.66143 0.57707 0.0
Mg712 Mg 0.62947 0.25146 0.76053 0.0
O713 O 0.62337 0.22741 0.73957 0.0
O714 O 0.63784 0.20693 0.7474 0.0
Mg715 Mg 0.6515 0.21669 0.7733 0.0
C716 C 0.6279 0.21222 0.7369 0.0
C717 C 0.61099 0.28061 0.75074 0.0
O718 O 0.60379 0.27478 0.76537 0.0
O719 O 0.66566 0.27045 0.75477 0.0
O720 O 0.67934 0.25051 0.76515 0.0
O721 O 0.59719 0.22856 0.7711 0.0
O722 O 0.62828 0.22881 0.77687 0.0
C723 C 0.68191 0.2677 0.75826 0.0
C724 C 0.60726 0.22001 0.77865 0.0
O725 O 0.62244 0.27317 0.74445 0.0
Mg726 Mg 0.41096 0.64285 0.88901 0.0
O727 O 0.41775 0.62691 0.91071 0.0
O728 O 0.40499 0.59184 0.90343 0.0
Mg729 Mg 0.39022 0.58533 0.87787 0.0
C730 C 0.41432 0.60773 0.91366 0.0
C731 C 0.41625 0.68732 0.8958 0.0
O732 O 0.41112 0.68339 0.88037 0.0
O733 O 0.37457 0.62575 0.89502 0.0
O734 O 0.36248 0.59142 0.88631 0.0
O735 O 0.4433 0.65126 0.87784 0.0
O736 O 0.41208 0.62019 0.87358 0.0
C737 C 0.35898 0.60613 0.89236 0.0
C738 C 0.43287 0.63197 0.87105 0.0
O739 O 0.41773 0.67295 0.90392 0.0
Mg740 Mg 0.7732 0.39979 0.0572 0.0
O741 O 0.7961 0.40818 0.07929 0.0
O742 O 0.81641 0.39214 0.07566 0.0
Mg743 Mg 0.80929 0.37724 0.04996 0.0
C744 C 0.81056 0.40347 0.08424 0.0
C745 C 0.75603 0.42779 0.07448 0.0
O746 O 0.77561 0.44349 0.07036 0.0
O747 O 0.75364 0.36454 0.06455 0.0
O748 O 0.77417 0.35007 0.0568 0.0
O749 O 0.79673 0.43055 0.04562 0.0
O750 O 0.79725 0.39961 0.04277 0.0
C751 C 0.75636 0.34813 0.06243 0.0
C752 C 0.806 0.42013 0.03972 0.0
O753 O 0.75042 0.40804 0.07111 0.0
Mg754 Mg 0.39152 0.79495 0.22022 0.0
O755 O 0.40699 0.81565 0.2432 0.0
O756 O 0.44358 0.8343 0.24023 0.0
Mg757 Mg 0.45115 0.82717 0.21483 0.0
C758 C 0.42648 0.82902 0.24855 0.0
C759 C 0.34805 0.77924 0.24075 0.0
O760 O 0.35441 0.80017 0.24176 0.0
O761 O 0.40449 0.77224 0.22693 0.0
O762 O 0.44032 0.79159 0.22125 0.0
O763 O 0.3883 0.82223 0.20943 0.0
O764 O 0.41727 0.81787 0.20693 0.0
C765 C 0.42346 0.77395 0.22569 0.0
C766 C 0.40803 0.82936 0.20412 0.0
O767 O 0.35964 0.77307 0.23307 0.0
H768 H 0.14586 0.64274 0.27852 0.0
H769 H 0.18249 0.67528 0.27798 0.0
H770 H 0.21094 0.63484 0.26679 0.0
H771 H 0.17447 0.60212 0.26821 0.0
H772 H 0.23783 0.6665 0.28624 0.0
H773 H 0.19719 0.6621 0.23738 0.0
H774 H 0.16586 0.65992 0.22171 0.0
H775 H 0.17832 0.72091 0.24309 0.0
H776 H 0.20956 0.72331 0.25904 0.0
H777 H 0.33181 0.73522 0.24191 0.0
H778 H 0.29632 0.70745 0.25189 0.0
H779 H 0.28112 0.75754 0.26562 0.0
H780 H 0.31672 0.78562 0.25545 0.0
H781 H 0.24754 0.72432 0.24847 0.0
H782 H 0.29256 0.73046 0.29434 0.0
H783 H 0.32439 0.7319 0.30872 0.0
H784 H 0.30445 0.66682 0.29154 0.0
H785 H 0.27266 0.66509 0.27688 0.0
C786 C 0.15996 0.64072 0.2763 0.0
C787 C 0.15732 0.61979 0.27362 0.0
C788 C 0.1809 0.65938 0.27584 0.0
C789 C 0.19947 0.65758 0.27209 0.0
C790 C 0.19691 0.63669 0.26975 0.0
C791 C 0.17607 0.61801 0.27052 0.0
C792 C 0.22138 0.67735 0.26978 0.0
C793 C 0.23997 0.67908 0.27792 0.0
C794 C 0.22416 0.69409 0.25922 0.0
C795 C 0.20554 0.69276 0.24952 0.0
C796 C 0.19316 0.67498 0.2388 0.0
C797 C 0.17543 0.67371 0.22986 0.0
C798 C 0.17007 0.69024 0.23143 0.0
C799 C 0.18247 0.70811 0.2419 0.0
C800 C 0.20019 0.70943 0.25089 0.0
C801 C 0.32105 0.74043 0.24717 0.0
C802 C 0.32708 0.76266 0.24782 0.0
C803 C 0.3008 0.7245 0.25298 0.0
C804 C 0.28617 0.73043 0.25967 0.0
C805 C 0.29223 0.75263 0.26056 0.0
C806 C 0.31257 0.76864 0.25476 0.0
C807 C 0.26401 0.71321 0.26467 0.0
C808 C 0.24537 0.71194 0.25701 0.0
C809 C 0.26125 0.69678 0.27551 0.0
C810 C 0.28028 0.6977 0.28443 0.0
C811 C 0.29503 0.71651 0.29354 0.0
C812 C 0.31306 0.71737 0.30176 0.0
C813 C 0.31646 0.69948 0.30102 0.0
C814 C 0.3018 0.68067 0.2921 0.0
C815 C 0.28375 0.67973 0.28386 0.0
H816 H 0.33044 0.70018 0.30739 0.0
H817 H 0.15633 0.68922 0.22451 0.0
H818 H 0.61391 0.19526 0.45683 0.0
H819 H 0.61438 0.2273 0.44543 0.0
H820 H 0.5481 0.20415 0.46147 0.0
H821 H 0.54775 0.17237 0.47336 0.0
H822 H 0.55712 0.21982 0.42836 0.0
H823 H 0.58478 0.24156 0.48285 0.0
H824 H 0.60906 0.24628 0.5062 0.0
H825 H 0.66609 0.28838 0.47901 0.0
H826 H 0.64214 0.28362 0.45538 0.0
H827 H 0.55571 0.31833 0.41502 0.0
H828 H 0.55236 0.28581 0.4278 0.0
H829 H 0.62221 0.31087 0.42245 0.0
H830 H 0.62578 0.34352 0.40998 0.0
H831 H 0.60988 0.29365 0.45113 0.0
H832 H 0.58407 0.27151 0.39663 0.0
H833 H 0.56122 0.26629 0.37228 0.0
H834 H 0.50251 0.22476 0.39807 0.0
H835 H 0.52502 0.22999 0.42267 0.0
C836 C 0.59951 0.19708 0.45803 0.0
C837 C 0.581 0.18162 0.46634 0.0
C838 C 0.59976 0.2153 0.45146 0.0
C839 C 0.58137 0.21814 0.4528 0.0
C840 C 0.56248 0.20225 0.46041 0.0
C841 C 0.56234 0.18419 0.46722 0.0
C842 C 0.58214 0.23803 0.4466 0.0
C843 C 0.56838 0.23596 0.43346 0.0
C844 C 0.59725 0.25903 0.45308 0.0
C845 C 0.61168 0.26204 0.46729 0.0
C846 C 0.60251 0.25166 0.48179 0.0
C847 C 0.61621 0.25437 0.49509 0.0
C848 C 0.63911 0.26757 0.49408 0.0
C849 C 0.64835 0.27814 0.47977 0.0
C850 C 0.63472 0.27544 0.46642 0.0
C851 C 0.57038 0.31698 0.41666 0.0
C852 C 0.59099 0.33346 0.41139 0.0
C853 C 0.56842 0.29834 0.42389 0.0
C854 C 0.58698 0.29577 0.42587 0.0
C855 C 0.60765 0.31248 0.42102 0.0
C856 C 0.60965 0.33112 0.41385 0.0
C857 C 0.58492 0.27557 0.43275 0.0
C858 C 0.59848 0.27754 0.44605 0.0
C859 C 0.5698 0.25449 0.42628 0.0
C860 C 0.55621 0.25136 0.41154 0.0
C861 C 0.56627 0.26143 0.39715 0.0
C862 C 0.55339 0.25844 0.3833 0.0
C863 C 0.53042 0.24526 0.38364 0.0
C864 C 0.5203 0.235 0.39784 0.0
C865 C 0.53311 0.23797 0.41173 0.0
H866 H 0.52047 0.24296 0.3729 0.0
H867 H 0.64969 0.26966 0.50439 0.0
H868 H 0.45443 0.62792 0.59206 0.0
H869 H 0.41901 0.6206 0.58008 0.0
H870 H 0.38487 0.58064 0.62032 0.0
H871 H 0.42018 0.58793 0.63231 0.0
H872 H 0.36198 0.56368 0.59051 0.0
H873 H 0.39893 0.63251 0.62137 0.0
H874 H 0.43039 0.66936 0.62767 0.0
H875 H 0.42634 0.68939 0.57978 0.0
H876 H 0.39505 0.65251 0.57313 0.0
H877 H 0.26453 0.56804 0.60016 0.0
H878 H 0.29909 0.5676 0.60081 0.0
H879 H 0.32591 0.61882 0.56595 0.0
H880 H 0.29161 0.62021 0.56606 0.0
H881 H 0.354 0.62959 0.58825 0.0
H882 H 0.31349 0.56283 0.55815 0.0
H883 H 0.28241 0.52602 0.5512 0.0
H884 H 0.29304 0.50173 0.59553 0.0
H885 H 0.32399 0.53845 0.60287 0.0
C886 C 0.4393 0.61721 0.59814 0.0
C887 C 0.44001 0.60849 0.61311 0.0
C888 C 0.41912 0.61306 0.59132 0.0
C889 C 0.39936 0.6002 0.59938 0.0
C890 C 0.39993 0.59053 0.61388 0.0
C891 C 0.42009 0.59475 0.62074 0.0
C892 C 0.37842 0.59866 0.59371 0.0
C893 C 0.36011 0.57802 0.59 0.0
C894 C 0.37625 0.61748 0.59261 0.0
C895 C 0.39484 0.63971 0.5967 0.0
C896 C 0.40486 0.64473 0.61215 0.0
C897 C 0.42264 0.66562 0.61579 0.0
C898 C 0.4304 0.68169 0.60412 0.0
C899 C 0.42034 0.67691 0.5888 0.0
C900 C 0.40259 0.65603 0.58509 0.0
C901 C 0.27761 0.5789 0.59237 0.0
C902 C 0.27537 0.5942 0.58308 0.0
C903 C 0.2974 0.57854 0.59266 0.0
C904 C 0.31516 0.59296 0.58326 0.0
C905 C 0.31252 0.60753 0.57334 0.0
C906 C 0.29289 0.60828 0.57336 0.0
C907 C 0.33711 0.59443 0.58514 0.0
C908 C 0.35572 0.61514 0.58828 0.0
C909 C 0.33953 0.57565 0.58552 0.0
C910 C 0.32102 0.55346 0.5811 0.0
C911 C 0.30913 0.54968 0.56647 0.0
C912 C 0.29154 0.52882 0.56245 0.0
C913 C 0.28574 0.51156 0.57292 0.0
C914 C 0.29755 0.51511 0.58742 0.0
C915 C 0.31515 0.53594 0.5915 0.0
H916 H 0.27211 0.49543 0.5698 0.0
H917 H 0.44417 0.69785 0.60695 0.0
H918 H 0.85021 0.43081 0.80861 0.0
H919 H 0.82405 0.39606 0.79516 0.0
H920 H 0.81589 0.43099 0.75594 0.0
H921 H 0.84259 0.46589 0.76918 0.0
H922 H 0.77615 0.40025 0.77061 0.0
H923 H 0.83954 0.40345 0.74768 0.0
H924 H 0.87698 0.40829 0.74753 0.0
H925 H 0.85601 0.35279 0.77771 0.0
H926 H 0.81851 0.34782 0.77829 0.0
H927 H 0.69472 0.30091 0.7371 0.0
H928 H 0.72995 0.33525 0.73737 0.0
H929 H 0.75486 0.31133 0.77505 0.0
H930 H 0.71996 0.27663 0.77442 0.0
H931 H 0.78789 0.33834 0.75638 0.0
H932 H 0.72793 0.33973 0.78373 0.0
H933 H 0.69055 0.33487 0.78555 0.0
H934 H 0.70553 0.3821 0.74878 0.0
H935 H 0.74293 0.38701 0.7466 0.0
C936 C 0.84312 0.43107 0.797 0.0
C937 C 0.84827 0.45103 0.78999 0.0
C938 C 0.82827 0.41124 0.7893 0.0
C939 C 0.81813 0.41101 0.77455 0.0
C940 C 0.82362 0.43087 0.76731 0.0
C941 C 0.83878 0.45074 0.77488 0.0
C942 C 0.80023 0.39005 0.76761 0.0
C943 C 0.77878 0.38687 0.7671 0.0
C944 C 0.80369 0.37251 0.76346 0.0
C945 C 0.82622 0.37537 0.76314 0.0
C946 C 0.84295 0.39239 0.75442 0.0
C947 C 0.86418 0.39514 0.75423 0.0
C948 C 0.86889 0.38089 0.76263 0.0
C949 C 0.85235 0.36383 0.77122 0.0
C950 C 0.83108 0.36102 0.77147 0.0
C951 C 0.70791 0.30275 0.74516 0.0
C952 C 0.70445 0.28624 0.75596 0.0
C953 C 0.72802 0.3224 0.74531 0.0
C954 C 0.74479 0.32609 0.75656 0.0
C955 C 0.74209 0.3089 0.76634 0.0
C956 C 0.7221 0.28907 0.76599 0.0
C957 C 0.76377 0.34848 0.7596 0.0
C958 C 0.78536 0.35188 0.75952 0.0
C959 C 0.76048 0.36626 0.76343 0.0
C960 C 0.73811 0.36354 0.76487 0.0
C961 C 0.7232 0.34898 0.77597 0.0
C962 C 0.70202 0.34622 0.77707 0.0
C963 C 0.69564 0.35812 0.76725 0.0
C964 C 0.71047 0.37286 0.75635 0.0
C965 C 0.73166 0.37564 0.75518 0.0
H966 H 0.67923 0.35596 0.7681 0.0
H967 H 0.88534 0.38303 0.76247 0.0
H968 H 0.48286 0.8874 0.91913 0.0
H969 H 0.46233 0.84794 0.9134 0.0
H970 H 0.46787 0.83583 0.96352 0.0
H971 H 0.48856 0.87532 0.96927 0.0
H972 H 0.4816 0.81448 0.94454 0.0
H973 H 0.41779 0.82219 0.94657 0.0
H974 H 0.394 0.83782 0.94027 0.0
H975 H 0.3919 0.8203 0.89033 0.0
H976 H 0.41595 0.80486 0.89627 0.0
H977 H 0.42372 0.69974 0.92778 0.0
H978 H 0.43278 0.73534 0.93963 0.0
H979 H 0.42891 0.75818 0.89246 0.0
H980 H 0.41928 0.72264 0.88065 0.0
H981 H 0.41087 0.77234 0.91361 0.0
H982 H 0.47899 0.77012 0.911 0.0
H983 H 0.50341 0.75506 0.91685 0.0
H984 H 0.49779 0.76296 0.96758 0.0
H985 H 0.4731 0.77783 0.96202 0.0
C986 C 0.47923 0.87629 0.92897 0.0
C987 C 0.48709 0.88441 0.94467 0.0
C988 C 0.46746 0.85376 0.92571 0.0
C989 C 0.4634 0.83892 0.93807 0.0
C990 C 0.47072 0.84698 0.95383 0.0
C991 C 0.48243 0.8695 0.95711 0.0
C992 C 0.45352 0.81521 0.93422 0.0
C993 C 0.46588 0.80513 0.93808 0.0
C994 C 0.43325 0.80315 0.92551 0.0
C995 C 0.41884 0.81252 0.92186 0.0
C996 C 0.41243 0.82184 0.93422 0.0
C997 C 0.39886 0.83064 0.93071 0.0
C998 C 0.39148 0.83009 0.9149 0.0
C999 C 0.39764 0.82073 0.90257 0.0
C1000 C 0.41122 0.81193 0.906 0.0
C1001 C 0.42469 0.71233 0.91996 0.0
C1002 C 0.42095 0.70842 0.90326 0.0
C1003 C 0.42991 0.73267 0.92674 0.0
C1004 C 0.43182 0.74954 0.91691 0.0
C1005 C 0.42751 0.74544 0.9003 0.0
C1006 C 0.42211 0.7251 0.89355 0.0
C1007 C 0.43919 0.77181 0.92364 0.0
C1008 C 0.4264 0.78162 0.9203 0.0
C1009 C 0.45914 0.78372 0.93276 0.0
C1010 C 0.47401 0.77483 0.9361 0.0
C1011 C 0.48284 0.76849 0.9234 0.0
C1012 C 0.49674 0.76001 0.92666 0.0
C1013 C 0.50209 0.75799 0.94258 0.0
C1014 C 0.49359 0.7645 0.95526 0.0
C1015 C 0.47965 0.77296 0.95206 0.0
H1016 H 0.51286 0.75142 0.94508 0.0
H1017 H 0.38097 0.83689 0.91222 0.0
H1018 H 0.58137 0.42668 0.11726 0.0
H1019 H 0.61449 0.42375 0.11398 0.0
H1020 H 0.65007 0.49053 0.09836 0.0
H1021 H 0.61669 0.4932 0.10101 0.0
H1022 H 0.65765 0.46625 0.07915 0.0
H1023 H 0.65995 0.47473 0.13625 0.0
H1024 H 0.64581 0.46724 0.1638 0.0
H1025 H 0.63436 0.40167 0.15933 0.0
H1026 H 0.64815 0.40867 0.13166 0.0
H1027 H 0.75997 0.46812 0.07838 0.0
H1028 H 0.73176 0.47638 0.08749 0.0
H1029 H 0.68751 0.40788 0.0956 0.0
H1030 H 0.71557 0.39942 0.08647 0.0
H1031 H 0.68692 0.43605 0.12002 0.0
H1032 H 0.68197 0.42772 0.06188 0.0
H1033 H 0.69695 0.4361 0.03458 0.0
H1034 H 0.7146 0.50332 0.04187 0.0
H1035 H 0.69999 0.49538 0.06931 0.0
C1036 C 0.59638 0.44083 0.11339 0.0
C1037 C 0.59658 0.46032 0.10979 0.0
C1038 C 0.61533 0.43919 0.11157 0.0
C1039 C 0.63495 0.45708 0.10625 0.0
C1040 C 0.6352 0.47658 0.10264 0.0
C1041 C 0.61616 0.47815 0.10427 0.0
C1042 C 0.65472 0.45492 0.10344 0.0
C1043 C 0.66429 0.46007 0.08824 0.0
C1044 C 0.66321 0.44646 0.11516 0.0
C1045 C 0.65493 0.44218 0.13182 0.0
C1046 C 0.65427 0.45866 0.14109 0.0
C1047 C 0.64634 0.45451 0.15674 0.0
C1048 C 0.63915 0.43398 0.1633 0.0
C1049 C 0.63992 0.41756 0.15423 0.0
C1050 C 0.64782 0.42162 0.13857 0.0
C1051 C 0.74434 0.45483 0.08229 0.0
C1052 C 0.73992 0.43308 0.08156 0.0
C1053 C 0.72825 0.45959 0.08747 0.0
C1054 C 0.70752 0.4427 0.09206 0.0
C1055 C 0.70342 0.42112 0.09209 0.0
C1056 C 0.71944 0.41632 0.0868 0.0
C1057 C 0.68957 0.44729 0.09579 0.0
C1058 C 0.68036 0.44251 0.11109 0.0
C1059 C 0.68151 0.45627 0.08424 0.0
C1060 C 0.69011 0.46101 0.0677 0.0
C1061 C 0.6892 0.44432 0.0577 0.0
C1062 C 0.6976 0.44899 0.04219 0.0
C1063 C 0.70677 0.47024 0.03651 0.0
C1064 C 0.70752 0.48687 0.0463 0.0
C1065 C 0.69917 0.4823 0.06182 0.0
H1066 H 0.71327 0.47382 0.0245 0.0
H1067 H 0.63302 0.4308 0.17542 0.0
H1068 H 0.43193 0.84423 0.53266 0.0
H1069 H 0.39864 0.80864 0.5358 0.0
H1070 H 0.36115 0.84085 0.54536 0.0
H1071 H 0.39457 0.87642 0.54294 0.0
H1072 H 0.35198 0.81136 0.56632 0.0
H1073 H 0.3554 0.81159 0.509 0.0
H1074 H 0.37245 0.81528 0.48262 0.0
H1075 H 0.38333 0.76194 0.49306 0.0
H1076 H 0.36661 0.75811 0.51961 0.0
H1077 H 0.24997 0.7115 0.56708 0.0
H1078 H 0.27867 0.74696 0.55759 0.0
H1079 H 0.32358 0.72201 0.55369 0.0
H1080 H 0.29504 0.68654 0.56306 0.0
H1081 H 0.32658 0.74817 0.52818 0.0
H1082 H 0.32596 0.75078 0.58644 0.0
H1083 H 0.30861 0.74724 0.61269 0.0
H1084 H 0.2918 0.79588 0.59968 0.0
H1085 H 0.30881 0.7995 0.57325 0.0
C1086 C 0.41648 0.84365 0.53518 0.0
C1087 C 0.41576 0.86309 0.53715 0.0
C1088 C 0.39744 0.82332 0.5369 0.0
C1089 C 0.37724 0.82201 0.5405 0.0
C1090 C 0.37648 0.84142 0.54245 0.0
C1091 C 0.39557 0.86175 0.54093 0.0
C1092 C 0.35726 0.8005 0.54329 0.0
C1093 C 0.34619 0.79771 0.5578 0.0
C1094 C 0.3499 0.78248 0.53235 0.0
C1095 C 0.3599 0.78468 0.51636 0.0
C1096 C 0.36157 0.80074 0.50572 0.0
C1097 C 0.37115 0.80285 0.49073 0.0
C1098 C 0.37901 0.78889 0.48618 0.0
C1099 C 0.37725 0.77276 0.4966 0.0
C1100 C 0.36769 0.77059 0.51162 0.0
C1101 C 0.26587 0.71347 0.56403 0.0
C1102 C 0.2703 0.69627 0.566 0.0
C1103 C 0.28225 0.73375 0.55864 0.0
C1104 C 0.30331 0.73716 0.55512 0.0
C1105 C 0.30744 0.71972 0.55636 0.0
C1106 C 0.29113 0.69949 0.5618 0.0
C1107 C 0.32152 0.7592 0.55116 0.0
C1108 C 0.33226 0.76201 0.53652 0.0
C1109 C 0.32854 0.7773 0.56191 0.0
C1110 C 0.31843 0.77523 0.57782 0.0
C1111 C 0.31841 0.76059 0.58913 0.0
C1112 C 0.30866 0.75859 0.60405 0.0
C1113 C 0.29905 0.77128 0.60783 0.0
C1114 C 0.29922 0.78604 0.59672 0.0
C1115 C 0.30892 0.78808 0.58178 0.0
H1116 H 0.29151 0.76971 0.61938 0.0
H1117 H 0.38643 0.79054 0.47457 0.0
H1118 H 0.57544 0.4138 0.66445 0.0
H1119 H 0.59316 0.3951 0.67718 0.0
H1120 H 0.5441 0.37173 0.71393 0.0
H1121 H 0.52617 0.39002 0.70116 0.0
H1122 H 0.58818 0.38745 0.72577 0.0
H1123 H 0.53705 0.33908 0.68366 0.0
H1124 H 0.52282 0.33015 0.65561 0.0
H1125 H 0.58582 0.34109 0.64013 0.0
H1126 H 0.60052 0.35041 0.66808 0.0
H1127 H 0.58319 0.29525 0.75957 0.0
H1128 H 0.5759 0.32131 0.7458 0.0
H1129 H 0.62128 0.32765 0.70881 0.0
H1130 H 0.62828 0.30102 0.72238 0.0
H1131 H 0.58532 0.32478 0.6957 0.0
H1132 H 0.63567 0.36836 0.73742 0.0
H1133 H 0.65146 0.3783 0.76502 0.0
H1134 H 0.5934 0.37864 0.78078 0.0
H1135 H 0.57709 0.36835 0.75332 0.0
C1136 C 0.56857 0.40479 0.6753 0.0
C1137 C 0.54935 0.40323 0.68176 0.0
C1138 C 0.57869 0.39417 0.68255 0.0
C1139 C 0.56984 0.38198 0.69643 0.0
C1140 C 0.5512 0.38112 0.70324 0.0
C1141 C 0.54095 0.39151 0.69592 0.0
C1142 C 0.57906 0.36897 0.7034 0.0
C1143 C 0.58751 0.37369 0.71926 0.0
C1144 C 0.57887 0.35154 0.69466 0.0
C1145 C 0.56994 0.34568 0.67791 0.0
C1146 C 0.54791 0.33974 0.67425 0.0
C1147 C 0.53976 0.33458 0.65838 0.0
C1148 C 0.55343 0.33511 0.64609 0.0
C1149 C 0.57526 0.34073 0.64966 0.0
C1150 C 0.58351 0.34594 0.66551 0.0
C1151 C 0.59166 0.30217 0.74851 0.0
C1152 C 0.60638 0.29612 0.74209 0.0
C1153 C 0.58758 0.3172 0.7407 0.0
C1154 C 0.59838 0.32679 0.72643 0.0
C1155 C 0.61286 0.32056 0.71985 0.0
C1156 C 0.61684 0.30535 0.72762 0.0
C1157 C 0.59396 0.34285 0.7183 0.0
C1158 C 0.58641 0.33875 0.70219 0.0
C1159 C 0.59529 0.36106 0.72677 0.0
C1160 C 0.60509 0.36743 0.74331 0.0
C1161 C 0.62619 0.37041 0.74679 0.0
C1162 C 0.63525 0.37612 0.76241 0.0
C1163 C 0.62342 0.37907 0.77465 0.0
C1164 C 0.60254 0.37635 0.77128 0.0
C1165 C 0.59339 0.3706 0.75568 0.0
H1166 H 0.63046 0.38349 0.78673 0.0
H1167 H 0.54709 0.33111 0.6338 0.0
H1168 H 0.16927 0.59592 0.90203 0.0
H1169 H 0.20743 0.60389 0.90562 0.0
H1170 H 0.19036 0.54274 0.88143 0.0
H1171 H 0.15204 0.5343 0.87848 0.0
H1172 H 0.21586 0.54864 0.90647 0.0
H1173 H 0.21836 0.59371 0.86247 0.0
H1174 H 0.21262 0.62157 0.84918 0.0
H1175 H 0.25463 0.66968 0.88487 0.0
H1176 H 0.2604 0.64202 0.89849 0.0
H1177 H 0.32109 0.56866 0.88321 0.0
H1178 H 0.28321 0.56101 0.8854 0.0
H1179 H 0.30638 0.62297 0.91037 0.0
H1180 H 0.34455 0.63109 0.90781 0.0
H1181 H 0.27823 0.61792 0.88718 0.0
H1182 H 0.27811 0.57293 0.92986 0.0
H1183 H 0.28411 0.54485 0.94248 0.0
H1184 H 0.23792 0.49629 0.90873 0.0
H1185 H 0.23184 0.52413 0.89577 0.0
C1186 C 0.17377 0.58429 0.89738 0.0
C1187 C 0.15785 0.56483 0.88953 0.0
C1188 C 0.19555 0.58886 0.89941 0.0
C1189 C 0.20189 0.57414 0.89347 0.0
C1190 C 0.1859 0.55443 0.88599 0.0
C1191 C 0.16405 0.54972 0.88415 0.0
C1192 C 0.22516 0.57918 0.89507 0.0
C1193 C 0.22949 0.56369 0.90211 0.0
C1194 C 0.24302 0.5991 0.8898 0.0
C1195 C 0.23962 0.61574 0.88159 0.0
C1196 C 0.22624 0.61019 0.86754 0.0
C1197 C 0.22301 0.62595 0.85994 0.0
C1198 C 0.23321 0.64737 0.8662 0.0
C1199 C 0.24672 0.65308 0.88005 0.0
C1200 C 0.24999 0.63737 0.88771 0.0
C1201 C 0.31818 0.58057 0.88938 0.0
C1202 C 0.3359 0.60054 0.8953 0.0
C1203 C 0.29644 0.5761 0.89069 0.0
C1204 C 0.2919 0.5913 0.89821 0.0
C1205 C 0.3095 0.61099 0.90453 0.0
C1206 C 0.3313 0.61559 0.90309 0.0
C1207 C 0.26894 0.58727 0.89842 0.0
C1208 C 0.26465 0.60295 0.8917 0.0
C1209 C 0.25113 0.56749 0.90392 0.0
C1210 C 0.25464 0.55067 0.91178 0.0
C1211 C 0.26933 0.5563 0.92506 0.0
C1212 C 0.27273 0.54041 0.93229 0.0
C1213 C 0.26143 0.51881 0.92639 0.0
C1214 C 0.24666 0.51303 0.91328 0.0
C1215 C 0.24321 0.52885 0.90601 0.0
H1216 H 0.2641 0.50654 0.93199 0.0
H1217 H 0.23068 0.65955 0.8603 0.0
H1218 H 0.59103 0.1862 0.00619 0.0
H1219 H 0.62569 0.21081 0.02074 0.0
H1220 H 0.58935 0.2213 0.0579 0.0
H1221 H 0.55448 0.19596 0.04369 0.0
H1222 H 0.62391 0.26021 0.04198 0.0
H1223 H 0.61261 0.19655 0.06927 0.0
H1224 H 0.60454 0.15848 0.07142 0.0
H1225 H 0.66276 0.17386 0.04511 0.0
H1226 H 0.67098 0.21197 0.04254 0.0
H1227 H 0.72065 0.33693 0.08113 0.0
H1228 H 0.68517 0.30291 0.07932 0.0
H1229 H 0.71225 0.27581 0.04586 0.0
H1230 H 0.74803 0.30957 0.04799 0.0
H1231 H 0.68047 0.24374 0.0636 0.0
H1232 H 0.68835 0.30386 0.03207 0.0
H1233 H 0.69693 0.3418 0.02784 0.0
H1234 H 0.6453 0.33261 0.05969 0.0
H1235 H 0.63664 0.29467 0.06429 0.0
C1236 C 0.59041 0.19345 0.0176 0.0
C1237 C 0.57009 0.18932 0.02375 0.0
C1238 C 0.61018 0.20742 0.02591 0.0
C1239 C 0.61001 0.21777 0.04039 0.0
C1240 C 0.58976 0.21337 0.04676 0.0
C1241 C 0.56992 0.19901 0.03862 0.0
C1242 C 0.63108 0.2348 0.0479 0.0
C1243 C 0.63608 0.2566 0.04709 0.0
C1244 C 0.64713 0.22999 0.05404 0.0
C1245 C 0.6423 0.2071 0.05558 0.0
C1246 C 0.62358 0.19178 0.06379 0.0
C1247 C 0.619 0.17019 0.06512 0.0
C1248 C 0.6331 0.16374 0.05837 0.0
C1249 C 0.65184 0.17888 0.05031 0.0
C1250 C 0.65648 0.20048 0.04893 0.0
C1251 C 0.71924 0.3235 0.07374 0.0
C1252 C 0.73701 0.32608 0.06445 0.0
C1253 C 0.69895 0.30407 0.07271 0.0
C1254 C 0.69591 0.28708 0.06211 0.0
C1255 C 0.71419 0.28878 0.05404 0.0
C1256 C 0.73464 0.30812 0.05525 0.0
C1257 C 0.67329 0.26919 0.05765 0.0
C1258 C 0.6681 0.2473 0.05885 0.0
C1259 C 0.65707 0.27385 0.05157 0.0
C1260 C 0.66202 0.29654 0.04867 0.0
C1261 C 0.67892 0.30998 0.03825 0.0
C1262 C 0.68379 0.33147 0.03578 0.0
C1263 C 0.67171 0.33963 0.04354 0.0
C1264 C 0.65468 0.32628 0.05373 0.0
C1265 C 0.64977 0.30478 0.05626 0.0
H1266 H 0.67551 0.35628 0.04162 0.0
H1267 H 0.62953 0.14702 0.05942 0.0
H1268 H 0.39183 0.57785 0.21221 0.0
H1269 H 0.39708 0.61149 0.22543 0.0
H1270 H 0.44402 0.64995 0.18964 0.0
H1271 H 0.43841 0.61642 0.17614 0.0
H1272 H 0.45521 0.66749 0.22327 0.0
H1273 H 0.39578 0.63928 0.18242 0.0
H1274 H 0.36075 0.61023 0.17019 0.0
H1275 H 0.32755 0.60552 0.21429 0.0
H1276 H 0.36253 0.63431 0.22687 0.0
H1277 H 0.45587 0.7667 0.21466 0.0
H1278 H 0.45589 0.73227 0.21392 0.0
H1279 H 0.39585 0.70196 0.24087 0.0
H1280 H 0.39521 0.73628 0.241 0.0
H1281 H 0.3904 0.67786 0.2165 0.0
H1282 H 0.44769 0.71035 0.25626 0.0
H1283 H 0.48239 0.73858 0.26942 0.0
H1284 H 0.51929 0.73478 0.22989 0.0
H1285 H 0.48479 0.70676 0.21637 0.0
C1286 C 0.40343 0.59351 0.20728 0.0
C1287 C 0.41446 0.59456 0.19302 0.0
C1288 C 0.40649 0.61265 0.21488 0.0
C1289 C 0.42087 0.63312 0.20845 0.0
C1290 C 0.43293 0.63428 0.1948 0.0
C1291 C 0.42962 0.61514 0.18706 0.0
C1292 C 0.4215 0.6531 0.21476 0.0
C1293 C 0.44113 0.66991 0.22182 0.0
C1294 C 0.40285 0.65581 0.21327 0.0
C1295 C 0.3818 0.63873 0.20564 0.0
C1296 C 0.38105 0.63191 0.18955 0.0
C1297 C 0.36121 0.61552 0.18255 0.0
C1298 C 0.34195 0.60598 0.19147 0.0
C1299 C 0.34249 0.61288 0.2074 0.0
C1300 C 0.36232 0.62923 0.21447 0.0
C1301 C 0.4429 0.75286 0.22074 0.0
C1302 C 0.42544 0.7542 0.22778 0.0
C1303 C 0.44302 0.73314 0.22041 0.0
C1304 C 0.42597 0.71445 0.22746 0.0
C1305 C 0.40916 0.7161 0.2353 0.0
C1306 C 0.40883 0.73575 0.23539 0.0
C1307 C 0.42435 0.69278 0.22494 0.0
C1308 C 0.40447 0.67553 0.21843 0.0
C1309 C 0.44274 0.68966 0.22716 0.0
C1310 C 0.46359 0.70652 0.23525 0.0
C1311 C 0.46318 0.71564 0.25031 0.0
C1312 C 0.48282 0.73159 0.25784 0.0
C1313 C 0.50303 0.73849 0.25048 0.0
C1314 C 0.50363 0.72942 0.23558 0.0
C1315 C 0.48403 0.71347 0.22798 0.0
H1316 H 0.51822 0.75084 0.25634 0.0
H1317 H 0.3266 0.5933 0.18603 0.0
H1318 H 0.84346 0.41391 0.3794 0.0
H1319 H 0.81545 0.42065 0.39133 0.0
H1320 H 0.81531 0.45542 0.3491 0.0
H1321 H 0.84329 0.44879 0.33719 0.0
H1322 H 0.81072 0.4743 0.37782 0.0
H1323 H 0.7795 0.40267 0.35101 0.0
H1324 H 0.77582 0.3663 0.34687 0.0
H1325 H 0.75669 0.35075 0.39594 0.0
H1326 H 0.76062 0.3872 0.40043 0.0
H1327 H 0.70446 0.4607 0.36729 0.0
H1328 H 0.74093 0.46425 0.36721 0.0
H1329 H 0.72217 0.41787 0.40543 0.0
H1330 H 0.68511 0.41333 0.40487 0.0
H1331 H 0.73888 0.40612 0.38385 0.0
H1332 H 0.76378 0.47519 0.4098 0.0
H1333 H 0.76778 0.51159 0.41447 0.0
H1334 H 0.79901 0.53253 0.36896 0.0
H1335 H 0.79493 0.49617 0.36389 0.0
C1336 C 0.83779 0.42342 0.37286 0.0
C1337 C 0.84551 0.43084 0.35738 0.0
C1338 C 0.82181 0.42724 0.37966 0.0
C1339 C 0.81322 0.4384 0.37103 0.0
C1340 C 0.8218 0.44687 0.35598 0.0
C1341 C 0.83771 0.443 0.34916 0.0
C1342 C 0.7936 0.43912 0.37671 0.0
C1343 C 0.79496 0.45946 0.37917 0.0
C1344 C 0.77325 0.41971 0.37888 0.0
C1345 C 0.7706 0.39772 0.3761 0.0
C1346 C 0.77466 0.39154 0.36094 0.0
C1347 C 0.77251 0.37092 0.35853 0.0
C1348 C 0.76608 0.35625 0.37115 0.0
C1349 C 0.76171 0.36215 0.38619 0.0
C1350 C 0.7639 0.38278 0.38867 0.0
C1351 C 0.70825 0.45161 0.37592 0.0
C1352 C 0.6919 0.43665 0.38603 0.0
C1353 C 0.72923 0.45377 0.37595 0.0
C1354 C 0.73453 0.44152 0.38644 0.0
C1355 C 0.71853 0.42746 0.39719 0.0
C1356 C 0.69737 0.42491 0.39689 0.0
C1357 C 0.75568 0.44143 0.38484 0.0
C1358 C 0.75464 0.42111 0.383 0.0
C1359 C 0.77631 0.4609 0.3834 0.0
C1360 C 0.77894 0.48288 0.38643 0.0
C1361 C 0.77138 0.48751 0.40074 0.0
C1362 C 0.77368 0.50815 0.40346 0.0
C1363 C 0.78362 0.52435 0.39201 0.0
C1364 C 0.79132 0.51996 0.37782 0.0
C1365 C 0.78906 0.49935 0.37503 0.0
H1366 H 0.78537 0.54031 0.39414 0.0
H1367 H 0.76443 0.34029 0.36926 0.0
H1368 H 0.11082 0.54224 0.42111 0.0
H1369 H 0.1289 0.5483 0.44763 0.0
H1370 H 0.11144 0.59744 0.45911 0.0
H1371 H 0.09312 0.5913 0.43257 0.0
H1372 H 0.15592 0.61049 0.46637 0.0
H1373 H 0.08341 0.54946 0.47562 0.0
H1374 H 0.05144 0.51273 0.4699 0.0
H1375 H 0.09257 0.48415 0.47676 0.0
H1376 H 0.12486 0.52076 0.4823 0.0
H1377 H 0.18834 0.62312 0.54878 0.0
H1378 H 0.16862 0.61777 0.52311 0.0
H1379 H 0.17037 0.55822 0.51414 0.0
H1380 H 0.18869 0.5628 0.54038 0.0
H1381 H 0.1328 0.55097 0.50554 0.0
H1382 H 0.20552 0.61057 0.49505 0.0
H1383 H 0.23863 0.64684 0.49979 0.0
H1384 H 0.19936 0.67761 0.49397 0.0
H1385 H 0.16596 0.6415 0.4894 0.0
C1386 C 0.11069 0.55421 0.42934 0.0
C1387 C 0.10045 0.56621 0.42483 0.0
C1388 C 0.12101 0.55765 0.44446 0.0
C1389 C 0.12136 0.57321 0.45535 0.0
C1390 C 0.11131 0.58535 0.45087 0.0
C1391 C 0.10082 0.58179 0.43577 0.0
C1392 C 0.1325 0.57694 0.47133 0.0
C1393 C 0.15074 0.59761 0.47506 0.0
C1394 C 0.12604 0.55992 0.48241 0.0
C1395 C 0.10658 0.53787 0.47925 0.0
C1396 C 0.08567 0.53536 0.4758 0.0
C1397 C 0.06748 0.51456 0.47261 0.0
C1398 C 0.06998 0.49612 0.47293 0.0
C1399 C 0.09066 0.49844 0.4765 0.0
C1400 C 0.1089 0.51921 0.47969 0.0
C1401 C 0.18459 0.60896 0.54126 0.0
C1402 C 0.19011 0.59342 0.54649 0.0
C1403 C 0.17344 0.60596 0.52653 0.0
C1404 C 0.16836 0.58781 0.51643 0.0
C1405 C 0.17405 0.57236 0.52165 0.0
C1406 C 0.1846 0.57501 0.53662 0.0
C1407 C 0.15661 0.58456 0.50064 0.0
C1408 C 0.13813 0.56395 0.49691 0.0
C1409 C 0.1631 0.60157 0.48945 0.0
C1410 C 0.18322 0.62331 0.49203 0.0
C1411 C 0.20393 0.62506 0.49487 0.0
C1412 C 0.22275 0.64559 0.49752 0.0
C1413 C 0.22109 0.66451 0.49722 0.0
C1414 C 0.20062 0.66294 0.49422 0.0
C1415 C 0.18174 0.64245 0.49158 0.0
H1416 H 0.23567 0.68039 0.49929 0.0
H1417 H 0.05589 0.48003 0.47045 0.0
H1418 H 0.58785 0.10966 0.59787 0.0
H1419 H 0.60119 0.13764 0.61942 0.0
H1420 H 0.54424 0.09588 0.64727 0.0
H1421 H 0.5304 0.06831 0.62547 0.0
H1422 H 0.55333 0.13619 0.65133 0.0
H1423 H 0.5954 0.09895 0.65282 0.0
H1424 H 0.61943 0.08598 0.64163 0.0
H1425 H 0.66976 0.1523 0.63346 0.0
H1426 H 0.64589 0.16564 0.64442 0.0
H1427 H 0.62729 0.17422 0.72898 0.0
H1428 H 0.61466 0.15314 0.70376 0.0
H1429 H 0.60084 0.20136 0.68397 0.0
H1430 H 0.61286 0.2223 0.70943 0.0
H1431 H 0.62809 0.16039 0.67448 0.0
H1432 H 0.55724 0.17635 0.65717 0.0
H1433 H 0.53125 0.18548 0.67016 0.0
H1434 H 0.53534 0.15519 0.71353 0.0
H1435 H 0.56113 0.14565 0.70073 0.0
C1436 C 0.57792 0.10668 0.60842 0.0
C1437 C 0.55785 0.08693 0.60988 0.0
C1438 C 0.58566 0.1226 0.6208 0.0
C1439 C 0.57385 0.11878 0.63506 0.0
C1440 C 0.5536 0.09928 0.63637 0.0
C1441 C 0.54571 0.08352 0.62393 0.0
C1442 C 0.58304 0.13438 0.64905 0.0
C1443 C 0.56974 0.14161 0.65632 0.0
C1444 C 0.60434 0.14125 0.65573 0.0
C1445 C 0.61878 0.13327 0.64928 0.0
C1446 C 0.61154 0.11075 0.64855 0.0
C1447 C 0.62513 0.10334 0.64226 0.0
C1448 C 0.64609 0.1183 0.6368 0.0
C1449 C 0.65351 0.14072 0.63767 0.0
C1450 C 0.63997 0.14822 0.64392 0.0
C1451 C 0.62161 0.18042 0.71928 0.0
C1452 C 0.62098 0.19991 0.72129 0.0
C1453 C 0.61444 0.16835 0.70482 0.0
C1454 C 0.60659 0.17552 0.69198 0.0
C1455 C 0.60645 0.19527 0.69379 0.0
C1456 C 0.6134 0.20727 0.70835 0.0
C1457 C 0.59828 0.162 0.6769 0.0
C1458 C 0.61179 0.15522 0.66938 0.0
C1459 C 0.57693 0.15505 0.67027 0.0
C1460 C 0.56131 0.16054 0.67805 0.0
C1461 C 0.55255 0.1716 0.66947 0.0
C1462 C 0.53786 0.17685 0.6768 0.0
C1463 C 0.53172 0.171 0.69268 0.0
C1464 C 0.54018 0.1598 0.70125 0.0
C1465 C 0.55485 0.15449 0.69397 0.0
H1466 H 0.52036 0.17509 0.69834 0.0
H1467 H 0.65659 0.11253 0.63193 0.0
H1468 H 0.4332 0.51673 0.74576 0.0
H1469 H 0.43249 0.53694 0.77596 0.0
H1470 H 0.49396 0.60972 0.75923 0.0
H1471 H 0.49639 0.59135 0.72836 0.0
H1472 H 0.49746 0.59992 0.79195 0.0
H1473 H 0.43576 0.59218 0.76185 0.0
H1474 H 0.40173 0.57392 0.74493 0.0
H1475 H 0.36816 0.52869 0.78247 0.0
H1476 H 0.40208 0.54649 0.79954 0.0
H1477 H 0.46783 0.65657 0.85194 0.0
H1478 H 0.4793 0.64324 0.82867 0.0
H1479 H 0.43364 0.57668 0.84133 0.0
H1480 H 0.42216 0.58986 0.8644 0.0
H1481 H 0.42519 0.58654 0.81163 0.0
H1482 H 0.48872 0.59602 0.84203 0.0
H1483 H 0.52298 0.61659 0.85846 0.0
H1484 H 0.55322 0.66146 0.82013 0.0
H1485 H 0.51902 0.64134 0.80354 0.0
C1486 C 0.44373 0.53415 0.74792 0.0
C1487 C 0.46758 0.55108 0.73506 0.0
C1488 C 0.44422 0.54665 0.76698 0.0
C1489 C 0.46404 0.57511 0.77129 0.0
C1490 C 0.48317 0.5925 0.75647 0.0
C1491 C 0.48404 0.58153 0.73695 0.0
C1492 C 0.46256 0.58491 0.78665 0.0
C1493 C 0.48172 0.59721 0.79624 0.0
C1494 C 0.44201 0.58133 0.79215 0.0
C1495 C 0.42156 0.57053 0.78191 0.0
C1496 C 0.42118 0.57823 0.76645 0.0
C1497 C 0.4019 0.56798 0.75684 0.0
C1498 C 0.38282 0.55012 0.7626 0.0
C1499 C 0.38296 0.54251 0.77801 0.0
C1500 C 0.4022 0.55269 0.78767 0.0
C1501 C 0.46077 0.6391 0.85002 0.0
C1502 C 0.44371 0.62423 0.85974 0.0
C1503 C 0.46735 0.63151 0.83673 0.0
C1504 C 0.45712 0.60896 0.83318 0.0
C1505 C 0.44156 0.59415 0.84376 0.0
C1506 C 0.4349 0.60171 0.8569 0.0
C1507 C 0.4599 0.6008 0.81737 0.0
C1508 C 0.44094 0.58908 0.80749 0.0
C1509 C 0.48065 0.60518 0.81163 0.0
C1510 C 0.50121 0.6173 0.8216 0.0
C1511 C 0.5026 0.6104 0.83716 0.0
C1512 C 0.52203 0.62195 0.84649 0.0
C1513 C 0.54024 0.64036 0.84036 0.0
C1514 C 0.53909 0.64722 0.82487 0.0
C1515 C 0.51969 0.63573 0.81549 0.0
H1516 H 0.55527 0.64927 0.84761 0.0
H1517 H 0.3679 0.54221 0.75515 0.0
H1518 H 0.98122 0.50839 0.95226 0.0
H1519 H 0.95099 0.48551 0.97004 0.0
H1520 H 0.91687 0.51974 0.95614 0.0
H1521 H 0.94717 0.54278 0.93849 0.0
H1522 H 0.91998 0.51746 0.98856 0.0
H1523 H 0.8992 0.4675 0.94266 0.0
H1524 H 0.90557 0.44584 0.92212 0.0
H1525 H 0.91739 0.41093 0.95923 0.0
H1526 H 0.91141 0.43262 0.98001 0.0
H1527 H 0.81639 0.45534 0.02167 0.0
H1528 H 0.8472 0.47391 0.00371 0.0
H1529 H 0.87048 0.4297 0.01657 0.0
H1530 H 0.83864 0.41014 0.03398 0.0
H1531 H 0.87524 0.4364 0.98604 0.0
H1532 H 0.89534 0.48454 0.03196 0.0
H1533 H 0.89026 0.50628 0.05319 0.0
H1534 H 0.88197 0.54495 0.0173 0.0
H1535 H 0.88672 0.52326 0.99585 0.0
C1536 C 0.96708 0.51074 0.95281 0.0
C1537 C 0.96636 0.52713 0.94384 0.0
C1538 C 0.94983 0.49767 0.96294 0.0
C1539 C 0.93161 0.50081 0.9643 0.0
C1540 C 0.93076 0.51701 0.95522 0.0
C1541 C 0.94797 0.53006 0.94509 0.0
C1542 C 0.914 0.48814 0.97586 0.0
C1543 C 0.91001 0.49975 0.98791 0.0
C1544 C 0.90168 0.465 0.9754 0.0
C1545 C 0.90507 0.45184 0.96289 0.0
C1546 C 0.90333 0.45532 0.94645 0.0
C1547 C 0.90683 0.44302 0.93476 0.0
C1548 C 0.91193 0.42706 0.93937 0.0
C1549 C 0.91347 0.42332 0.95568 0.0
C1550 C 0.91 0.4356 0.96741 0.0
C1551 C 0.82813 0.44963 0.02076 0.0
C1552 C 0.82528 0.43145 0.02936 0.0
C1553 C 0.84583 0.46033 0.01052 0.0
C1554 C 0.86157 0.45363 0.00909 0.0
C1555 C 0.85864 0.43528 0.01755 0.0
C1556 C 0.84052 0.42416 0.02753 0.0
C1557 C 0.88083 0.46576 0.99858 0.0
C1558 C 0.88526 0.4541 0.98679 0.0
C1559 C 0.89383 0.4889 0.9994 0.0
C1560 C 0.89126 0.50218 0.01229 0.0
C1561 C 0.89233 0.49761 0.0286 0.0
C1562 C 0.88952 0.50994 0.04067 0.0
C1563 C 0.88576 0.52696 0.0366 0.0
C1564 C 0.88488 0.53175 0.02044 0.0
C1565 C 0.88767 0.51948 0.00832 0.0
H1566 H 0.88356 0.53647 0.04596 0.0
H1567 H 0.91465 0.41755 0.9303 0.0
H1568 H 0.52617 0.99835 0.11571 0.0
H1569 H 0.5018 0.97832 0.13772 0.0
H1570 H 0.47105 0.91953 0.10788 0.0
H1571 H 0.49478 0.93965 0.08574 0.0
H1572 H 0.44112 0.92015 0.1266 0.0
H1573 H 0.51557 0.9323 0.13335 0.0
H1574 H 0.55611 0.95521 0.13613 0.0
H1575 H 0.54922 0.98701 0.17827 0.0
H1576 H 0.50859 0.96447 0.17558 0.0
H1577 H 0.44695 0.84474 0.18887 0.0
H1578 H 0.46463 0.87598 0.17151 0.0
H1579 H 0.41329 0.89142 0.18077 0.0
H1580 H 0.39505 0.85955 0.19807 0.0
H1581 H 0.48234 0.91809 0.17503 0.0
H1582 H 0.40515 0.91332 0.14607 0.0
H1583 H 0.36552 0.8868 0.14128 0.0
H1584 H 0.37929 0.83394 0.14074 0.0
H1585 H 0.419 0.86017 0.14535 0.0
C1586 C 0.51374 0.98132 0.11372 0.0
C1587 C 0.5122 0.97057 0.09896 0.0
C1588 C 0.49992 0.96987 0.12631 0.0
C1589 C 0.48476 0.94736 0.12451 0.0
C1590 C 0.48251 0.9369 0.10954 0.0
C1591 C 0.49612 0.94838 0.09691 0.0
C1592 C 0.47304 0.934 0.13853 0.0
C1593 C 0.45007 0.91992 0.1373 0.0
C1594 C 0.48471 0.93352 0.15245 0.0
C1595 C 0.50909 0.94692 0.15415 0.0
C1596 C 0.52271 0.94428 0.14314 0.0
C1597 C 0.54569 0.95718 0.14471 0.0
C1598 C 0.55523 0.9726 0.15734 0.0
C1599 C 0.5418 0.9751 0.16847 0.0
C1600 C 0.5188 0.96227 0.16693 0.0
C1601 C 0.43949 0.85488 0.18743 0.0
C1602 C 0.41955 0.84962 0.19484 0.0
C1603 C 0.44968 0.87283 0.17749 0.0
C1604 C 0.44024 0.886 0.17472 0.0
C1605 C 0.42073 0.88132 0.18257 0.0
C1606 C 0.41038 0.86317 0.19249 0.0
C1607 C 0.45051 0.90375 0.1629 0.0
C1608 C 0.47323 0.91875 0.16457 0.0
C1609 C 0.43872 0.90457 0.14918 0.0
C1610 C 0.41495 0.88867 0.14627 0.0
C1611 C 0.39969 0.89604 0.14491 0.0
C1612 C 0.37723 0.88106 0.14222 0.0
C1613 C 0.36988 0.85869 0.14077 0.0
C1614 C 0.38499 0.85126 0.14193 0.0
C1615 C 0.40747 0.86616 0.1446 0.0
H1616 H 0.35249 0.84713 0.1387 0.0
H1617 H 0.57303 0.98257 0.15853 0.0
H1618 H 0.56639 0.48314 0.24294 0.0
H1619 H 0.55838 0.46121 0.26703 0.0
H1620 H 0.57114 0.51732 0.29653 0.0
H1621 H 0.57946 0.53941 0.2724 0.0
H1622 H 0.59519 0.49994 0.30632 0.0
H1623 H 0.51899 0.47216 0.29346 0.0
H1624 H 0.48534 0.4561 0.27613 0.0
H1625 H 0.48997 0.39826 0.26846 0.0
H1626 H 0.52385 0.41409 0.28553 0.0
H1627 H 0.58866 0.43981 0.37331 0.0
H1628 H 0.57579 0.45895 0.3557 0.0
H1629 H 0.55883 0.40923 0.31862 0.0
H1630 H 0.57038 0.38943 0.33667 0.0
H1631 H 0.53238 0.42553 0.31564 0.0
H1632 H 0.6117 0.45608 0.32233 0.0
H1633 H 0.64646 0.47136 0.33838 0.0
H1634 H 0.63685 0.52343 0.35598 0.0
H1635 H 0.60189 0.50828 0.34015 0.0
C1636 C 0.56693 0.49062 0.25453 0.0
C1637 C 0.57335 0.5129 0.25581 0.0
C1638 C 0.56225 0.47806 0.26829 0.0
C1639 C 0.5639 0.48755 0.28358 0.0
C1640 C 0.56959 0.50963 0.28484 0.0
C1641 C 0.57429 0.52221 0.27107 0.0
C1642 C 0.56256 0.47521 0.29822 0.0
C1643 C 0.58117 0.48392 0.30859 0.0
C1644 C 0.54454 0.45405 0.30094 0.0
C1645 C 0.52406 0.44439 0.29072 0.0
C1646 C 0.51293 0.45608 0.28799 0.0
C1647 C 0.4938 0.44701 0.27822 0.0
C1648 C 0.48554 0.42619 0.27118 0.0
C1649 C 0.49638 0.41438 0.27392 0.0
C1650 C 0.51554 0.42339 0.28366 0.0
C1651 C 0.58141 0.43266 0.3616 0.0
C1652 C 0.58049 0.41332 0.3562 0.0
C1653 C 0.5742 0.44362 0.35152 0.0
C1654 C 0.56697 0.43588 0.33565 0.0
C1655 C 0.56442 0.41557 0.33077 0.0
C1656 C 0.57104 0.40429 0.34104 0.0
C1657 C 0.56514 0.45017 0.32351 0.0
C1658 C 0.54608 0.4418 0.31358 0.0
C1659 C 0.58288 0.47158 0.32097 0.0
C1660 C 0.60412 0.48095 0.3302 0.0
C1661 C 0.61699 0.47075 0.32966 0.0
C1662 C 0.63671 0.47938 0.33871 0.0
C1663 C 0.64383 0.49832 0.34823 0.0
C1664 C 0.6313 0.50873 0.34863 0.0
C1665 C 0.61154 0.50015 0.33961 0.0
H1666 H 0.65908 0.50494 0.35526 0.0
H1667 H 0.47073 0.4192 0.26362 0.0
H1668 H 0.42546 0.92461 0.38269 0.0
H1669 H 0.41893 0.90672 0.35605 0.0
H1670 H 0.48122 0.9082 0.36039 0.0
H1671 H 0.48763 0.92561 0.38712 0.0
H1672 H 0.47311 0.92186 0.33002 0.0
H1673 H 0.43714 0.86261 0.36726 0.0
H1674 H 0.4112 0.84258 0.38875 0.0
H1675 H 0.35693 0.83511 0.35906 0.0
H1676 H 0.38262 0.85541 0.33747 0.0
H1677 H 0.46403 0.84947 0.26749 0.0
H1678 H 0.46898 0.86782 0.2936 0.0
H1679 H 0.40059 0.85128 0.29192 0.0
H1680 H 0.3953 0.83211 0.26609 0.0
H1681 H 0.41067 0.84622 0.32078 0.0
H1682 H 0.44434 0.90393 0.28346 0.0
H1683 H 0.46897 0.92515 0.26166 0.0
H1684 H 0.52559 0.93737 0.29061 0.0
H1685 H 0.50127 0.91597 0.31251 0.0
C1686 C 0.4377 0.92104 0.37797 0.0
C1687 C 0.4569 0.9262 0.38708 0.0
C1688 C 0.43398 0.91088 0.36277 0.0
C1689 C 0.44952 0.90599 0.35636 0.0
C1690 C 0.46902 0.9118 0.36517 0.0
C1691 C 0.47262 0.92169 0.38044 0.0
C1692 C 0.44533 0.89444 0.34058 0.0
C1693 C 0.45961 0.90524 0.32799 0.0
C1694 C 0.42728 0.87305 0.33789 0.0
C1695 C 0.41183 0.86074 0.35082 0.0
C1696 C 0.4197 0.85687 0.36537 0.0
C1697 C 0.40504 0.84544 0.37756 0.0
C1698 C 0.38244 0.83763 0.37529 0.0
C1699 C 0.37445 0.84119 0.36081 0.0
C1700 C 0.38905 0.85265 0.34859 0.0
C1701 C 0.45002 0.84968 0.2727 0.0
C1702 C 0.42931 0.83943 0.26467 0.0
C1703 C 0.45291 0.86031 0.28759 0.0
C1704 C 0.43529 0.86139 0.29459 0.0
C1705 C 0.41447 0.85076 0.28675 0.0
C1706 C 0.41147 0.83981 0.27197 0.0
C1707 C 0.43859 0.87354 0.3101 0.0
C1708 C 0.42413 0.86288 0.32268 0.0
C1709 C 0.45627 0.89524 0.3127 0.0
C1710 C 0.47096 0.90817 0.29957 0.0
C1711 C 0.46204 0.91101 0.28514 0.0
C1712 C 0.47594 0.92309 0.27277 0.0
C1713 C 0.49882 0.93256 0.27473 0.0
C1714 C 0.50785 0.93001 0.28909 0.0
C1715 C 0.49402 0.91792 0.3015 0.0
H1716 H 0.50956 0.94191 0.26514 0.0
H1717 H 0.37111 0.82878 0.38474 0.0
H1718 H 0.53996 0.44109 0.54565 0.0
H1719 H 0.55947 0.43773 0.52255 0.0
H1720 H 0.53757 0.47422 0.49393 0.0
H1721 H 0.51719 0.47663 0.51671 0.0
H1722 H 0.53227 0.44142 0.47724 0.0
H1723 H 0.59264 0.49624 0.50893 0.0
H1724 H 0.61642 0.51296 0.53315 0.0
H1725 H 0.63198 0.46132 0.53372 0.0
H1726 H 0.60803 0.4441 0.50962 0.0
H1727 H 0.60692 0.46506 0.41342 0.0
H1728 H 0.5921 0.47092 0.43827 0.0
H1729 H 0.59341 0.41615 0.45942 0.0
H1730 H 0.60785 0.40981 0.43442 0.0
H1731 H 0.61027 0.45841 0.47982 0.0
H1732 H 0.54792 0.40401 0.44743 0.0
H1733 H 0.5256 0.39017 0.42228 0.0
H1734 H 0.51569 0.44551 0.42238 0.0
H1735 H 0.53828 0.45985 0.44741 0.0
C1736 C 0.53957 0.44861 0.53446 0.0
C1737 C 0.52751 0.45958 0.53312 0.0
C1738 C 0.55079 0.44677 0.52129 0.0
C1739 C 0.55038 0.4561 0.50655 0.0
C1740 C 0.53827 0.46701 0.50519 0.0
C1741 C 0.52678 0.46855 0.51827 0.0
C1742 C 0.56165 0.45359 0.49233 0.0
C1743 C 0.54942 0.44545 0.47782 0.0
C1744 C 0.58395 0.45848 0.49305 0.0
C1745 C 0.59835 0.46876 0.50756 0.0
C1746 C 0.60098 0.48834 0.5143 0.0
C1747 C 0.61452 0.49793 0.52799 0.0
C1748 C 0.62565 0.48817 0.53499 0.0
C1749 C 0.62331 0.46884 0.52829 0.0
C1750 C 0.60977 0.45917 0.51461 0.0
C1751 C 0.60433 0.45441 0.42341 0.0
C1752 C 0.60848 0.43691 0.42195 0.0
C1753 C 0.59584 0.45778 0.43757 0.0
C1754 C 0.59167 0.44394 0.45059 0.0
C1755 C 0.59661 0.42701 0.44946 0.0
C1756 C 0.60474 0.42336 0.43517 0.0
C1757 C 0.58084 0.44638 0.46497 0.0
C1758 C 0.59314 0.45445 0.4794 0.0
C1759 C 0.55874 0.44184 0.46415 0.0
C1760 C 0.54499 0.43312 0.44919 0.0
C1761 C 0.54116 0.41333 0.44201 0.0
C1762 C 0.52843 0.40537 0.42779 0.0
C1763 C 0.51929 0.41699 0.42071 0.0
C1764 C 0.52281 0.43655 0.42786 0.0
C1765 C 0.53557 0.44459 0.44207 0.0
H1766 H 0.50943 0.4108 0.4097 0.0
H1767 H 0.63614 0.49563 0.54559 0.0
H1768 H 0.10277 0.55639 0.73469 0.0
H1769 H 0.11599 0.57284 0.70853 0.0
H1770 H 0.07933 0.50912 0.68529 0.0
H1771 H 0.06596 0.49259 0.71148 0.0
H1772 H 0.12336 0.53084 0.67829 0.0
H1773 H 0.06411 0.54636 0.67849 0.0
H1774 H 0.04114 0.56048 0.68984 0.0
H1775 H 0.09746 0.62535 0.69259 0.0
H1776 H 0.12087 0.61158 0.68148 0.0
H1777 H 0.16847 0.57379 0.60456 0.0
H1778 H 0.13892 0.55536 0.62379 0.0
H1779 H 0.16305 0.61625 0.65058 0.0
H1780 H 0.19177 0.63492 0.63075 0.0
H1781 H 0.12057 0.59315 0.6538 0.0
H1782 H 0.18064 0.57829 0.65903 0.0
H1783 H 0.20594 0.56595 0.64941 0.0
H1784 H 0.15077 0.50187 0.63889 0.0
H1785 H 0.12511 0.51394 0.64825 0.0
C1786 C 0.09717 0.54597 0.72396 0.0
C1787 C 0.08337 0.52323 0.72509 0.0
C1788 C 0.10464 0.55538 0.70902 0.0
C1789 C 0.09851 0.5422 0.69497 0.0
C1790 C 0.08414 0.51957 0.696 0.0
C1791 C 0.07654 0.51017 0.71092 0.0
C1792 C 0.10914 0.55171 0.67957 0.0
C1793 C 0.12233 0.54412 0.67271 0.0
C1794 C 0.10836 0.56952 0.67265 0.0
C1795 C 0.09429 0.57789 0.67924 0.0
C1796 C 0.07165 0.56361 0.68162 0.0
C1797 C 0.05854 0.57156 0.68799 0.0
C1798 C 0.06785 0.59379 0.69196 0.0
C1799 C 0.09027 0.60813 0.68952 0.0
C1800 C 0.10346 0.60027 0.68316 0.0
C1801 C 0.16712 0.58327 0.61437 0.0
C1802 C 0.18253 0.60562 0.6164 0.0
C1803 C 0.15029 0.57275 0.62537 0.0
C1804 C 0.14922 0.58425 0.63896 0.0
C1805 C 0.16361 0.60698 0.64028 0.0
C1806 C 0.18005 0.61763 0.62898 0.0
C1807 C 0.13492 0.57235 0.65259 0.0
C1808 C 0.12123 0.57957 0.6592 0.0
C1809 C 0.13555 0.55444 0.65956 0.0
C1810 C 0.15096 0.54707 0.65417 0.0
C1811 C 0.17391 0.5616 0.65459 0.0
C1812 C 0.18831 0.55466 0.64919 0.0
C1813 C 0.17996 0.53316 0.6435 0.0
C1814 C 0.1572 0.51853 0.64327 0.0
C1815 C 0.14273 0.5254 0.64862 0.0
H1816 H 0.19113 0.52782 0.63931 0.0
H1817 H 0.05767 0.59991 0.69689 0.0
H1818 H 0.47913 0.08067 0.88037 0.0
H1819 H 0.50258 0.11141 0.86329 0.0
H1820 H 0.54047 0.08044 0.85118 0.0
H1821 H 0.51716 0.04977 0.86835 0.0
H1822 H 0.56679 0.12551 0.85617 0.0
H1823 H 0.50054 0.07472 0.82616 0.0
H1824 H 0.4602 0.05222 0.82179 0.0
H1825 H 0.45439 0.10995 0.82423 0.0
H1826 H 0.49468 0.13276 0.82887 0.0
H1827 H 0.61767 0.18887 0.78752 0.0
H1828 H 0.59745 0.15866 0.80578 0.0
H1829 H 0.54974 0.17972 0.81272 0.0
H1830 H 0.56919 0.20904 0.79381 0.0
H1831 H 0.52885 0.13866 0.8104 0.0
H1832 H 0.59394 0.18979 0.84116 0.0
H1833 H 0.63399 0.2131 0.84664 0.0
H1834 H 0.64194 0.15662 0.84403 0.0
H1835 H 0.60197 0.13301 0.83834 0.0
C1836 C 0.49273 0.08066 0.8743 0.0
C1837 C 0.49645 0.06293 0.87575 0.0
C1838 C 0.50602 0.09813 0.8645 0.0
C1839 C 0.5231 0.09806 0.85585 0.0
C1840 C 0.52739 0.08081 0.85777 0.0
C1841 C 0.51408 0.06332 0.86756 0.0
C1842 C 0.53559 0.11528 0.84406 0.0
C1843 C 0.55859 0.12831 0.84606 0.0
C1844 C 0.52478 0.1191 0.83105 0.0
C1845 C 0.5006 0.10542 0.828 0.0
C1846 C 0.49064 0.0826 0.82586 0.0
C1847 C 0.46779 0.06979 0.82333 0.0
C1848 C 0.45473 0.07965 0.82276 0.0
C1849 C 0.46452 0.10234 0.82469 0.0
C1850 C 0.48737 0.11521 0.82726 0.0
C1851 C 0.60285 0.18698 0.79292 0.0
C1852 C 0.59502 0.20132 0.78928 0.0
C1853 C 0.59136 0.16979 0.80346 0.0
C1854 C 0.57226 0.1671 0.81094 0.0
C1855 C 0.56439 0.18137 0.80714 0.0
C1856 C 0.57554 0.19816 0.79632 0.0
C1857 C 0.56019 0.14937 0.82259 0.0
C1858 C 0.53719 0.13606 0.82052 0.0
C1859 C 0.57101 0.14551 0.83564 0.0
C1860 C 0.59501 0.15967 0.83918 0.0
C1861 C 0.60426 0.18237 0.84166 0.0
C1862 C 0.62694 0.19563 0.84482 0.0
C1863 C 0.64051 0.18635 0.84564 0.0
C1864 C 0.63141 0.16379 0.84337 0.0
C1865 C 0.60875 0.15046 0.84019 0.0
H1866 H 0.65806 0.19665 0.84808 0.0
H1867 H 0.43704 0.06971 0.82081 0.0
H1868 H 0.423 0.53782 0.05524 0.0
H1869 H 0.42306 0.56146 0.03401 0.0
H1870 H 0.45617 0.53822 0.0028 0.0
H1871 H 0.45704 0.51532 0.02428 0.0
H1872 H 0.47198 0.57999 0.99835 0.0
H1873 H 0.39898 0.51685 0.00136 0.0
H1874 H 0.36457 0.49129 0.01479 0.0
H1875 H 0.35224 0.54391 0.02537 0.0
H1876 H 0.38676 0.56985 0.01218 0.0
H1877 H 0.42788 0.57865 0.92023 0.0
H1878 H 0.43639 0.56936 0.94661 0.0
H1879 H 0.4234 0.6169 0.96937 0.0
H1880 H 0.41547 0.62684 0.94284 0.0
H1881 H 0.39907 0.56924 0.9805 0.0
H1882 H 0.47084 0.63103 0.97281 0.0
H1883 H 0.50448 0.65434 0.95777 0.0
H1884 H 0.51814 0.60152 0.95416 0.0
H1885 H 0.48436 0.57776 0.96896 0.0
C1886 C 0.43072 0.53811 0.04398 0.0
C1887 C 0.44033 0.52494 0.04149 0.0
C1888 C 0.43058 0.5515 0.0318 0.0
C1889 C 0.43939 0.55144 0.01672 0.0
C1890 C 0.44937 0.53865 0.01434 0.0
C1891 C 0.44981 0.52552 0.02659 0.0
C1892 C 0.43714 0.56365 0.00308 0.0
C1893 C 0.45602 0.57759 0.99445 0.0
C1894 C 0.41639 0.5609 0.99813 0.0
C1895 C 0.39556 0.54532 0.00596 0.0
C1896 C 0.389 0.52299 0.00665 0.0
C1897 C 0.36947 0.50844 0.01421 0.0
C1898 C 0.35626 0.51599 0.02097 0.0
C1899 C 0.36252 0.5381 0.02015 0.0
C1900 C 0.38205 0.55273 0.01263 0.0
C1901 C 0.42708 0.58731 0.93083 0.0
C1902 C 0.42098 0.60343 0.92952 0.0
C1903 C 0.43201 0.58205 0.94586 0.0
C1904 C 0.43055 0.5925 0.95986 0.0
C1905 C 0.42469 0.60877 0.95864 0.0
C1906 C 0.42025 0.61444 0.94352 0.0
C1907 C 0.4338 0.58517 0.97572 0.0
C1908 C 0.41507 0.57202 0.98468 0.0
C1909 C 0.45459 0.58833 0.98079 0.0
C1910 C 0.47494 0.60255 0.97188 0.0
C1911 C 0.48089 0.62431 0.96867 0.0
C1912 C 0.50001 0.63762 0.96022 0.0
C1913 C 0.51341 0.6294 0.95498 0.0
C1914 C 0.50773 0.60786 0.95821 0.0
C1915 C 0.48861 0.59447 0.96665 0.0
H1916 H 0.52822 0.63973 0.94844 0.0
H1917 H 0.34115 0.50469 0.02682 0.0
H1918 H 0.88916 0.50848 0.22729 0.0
H1919 H 0.86946 0.48988 0.19606 0.0
H1920 H 0.88311 0.42728 0.20351 0.0
H1921 H 0.90313 0.44413 0.23512 0.0
H1922 H 0.89468 0.44785 0.17242 0.0
H1923 H 0.8308 0.42592 0.20423 0.0
H1924 H 0.80698 0.43116 0.22323 0.0
H1925 H 0.80147 0.47504 0.19072 0.0
H1926 H 0.82552 0.47031 0.17161 0.0
H1927 H 0.8304 0.38684 0.10358 0.0
H1928 H 0.84635 0.39957 0.13064 0.0
H1929 H 0.83085 0.45152 0.12821 0.0
H1930 H 0.81395 0.4382 0.10151 0.0
H1931 H 0.82059 0.43499 0.15576 0.0
H1932 H 0.8854 0.45919 0.12438 0.0
H1933 H 0.91018 0.45562 0.10531 0.0
H1934 H 0.91537 0.41015 0.13632 0.0
H1935 H 0.89038 0.41323 0.15548 0.0
C1936 C 0.88702 0.49287 0.22327 0.0
C1937 C 0.9018 0.4803 0.23327 0.0
C1938 C 0.8758 0.48174 0.20353 0.0
C1939 C 0.87534 0.45736 0.19602 0.0
C1940 C 0.88456 0.44232 0.20821 0.0
C1941 C 0.89607 0.45208 0.22816 0.0
C1942 C 0.86575 0.44865 0.17986 0.0
C1943 C 0.87837 0.44476 0.16877 0.0
C1944 C 0.84472 0.44515 0.17511 0.0
C1945 C 0.83015 0.44793 0.18656 0.0
C1946 C 0.82465 0.43682 0.20118 0.0
C1947 C 0.81108 0.43967 0.21196 0.0
C1948 C 0.80276 0.45347 0.2082 0.0
C1949 C 0.80794 0.46438 0.19363 0.0
C1950 C 0.82152 0.4616 0.18281 0.0
C1951 C 0.83048 0.40102 0.10881 0.0
C1952 C 0.82091 0.41151 0.10042 0.0
C1953 C 0.83973 0.40839 0.12426 0.0
C1954 C 0.84015 0.42675 0.13145 0.0
C1955 C 0.83073 0.4373 0.12299 0.0
C1956 C 0.82109 0.42969 0.1077 0.0
C1957 C 0.84968 0.4346 0.14797 0.0
C1958 C 0.83697 0.43816 0.15925 0.0
C1959 C 0.87081 0.43816 0.15279 0.0
C1960 C 0.88583 0.43626 0.14128 0.0
C1961 C 0.89169 0.44829 0.12707 0.0
C1962 C 0.90579 0.44638 0.11625 0.0
C1963 C 0.91429 0.43262 0.11958 0.0
C1964 C 0.90874 0.42078 0.13375 0.0
C1965 C 0.89462 0.42261 0.1446 0.0
H1966 H 0.92521 0.43116 0.11119 0.0
H1967 H 0.79226 0.45566 0.21657 0.0
loop_
_geom_bond_atom_site_label_1
_geom_bond_atom_site_label_2
_geom_bond_distance
_geom_bond_site_symmetry_2
_ccdc_geom_bond_type
C0 C1 1.560 . S
C0 H61 0.959 . S
C0 H62 0.959 . S
C0 H63 0.960 . S
C1 C0 1.560 . S
C1 O56 1.426 . S
C1 H60 0.980 . S
C2 C3 1.407 . S
C2 C7 1.418 . S
C2 O56 1.334 . S
C3 C2 1.407 . S
C3 C4 1.360 . S
C3 H64 0.929 . S
C4 C3 1.360 . S
C4 C5 1.401 . S
C4 C8 1.527 . S
C5 C4 1.401 . S
C5 C6 1.405 . S
C5 C38 1.587 . S
C6 C5 1.405 . S
C6 C7 1.332 . S
C6 C9 1.496 . S
C7 C2 1.418 . S
C7 C6 1.332 . S
C7 H65 0.929 . S
C8 C4 1.527 . S
C8 H66 0.959 . S
C8 H67 0.961 . S
C8 H68 0.961 . S
C9 C6 1.496 . S
C9 H69 0.960 . S
C9 H70 0.960 . S
C9 H71 0.961 . S
C10 C11 1.517 . S
C10 H73 0.961 . S
C10 H74 0.960 . S
C10 H75 0.959 . S
C11 C10 1.517 . S
C11 O59 1.468 . S
C11 H72 0.980 . S
C12 C13 1.349 . S
C12 C17 1.367 . S
C12 O59 1.408 . S
C13 C12 1.349 . S
C13 C14 1.407 . S
C13 H76 0.930 . S
C14 C13 1.407 . S
C14 C15 1.449 . S
C14 C18 1.535 . S
C15 C14 1.449 . S
C15 C16 1.384 . S
C15 C40 1.553 1_655 S
C16 C15 1.384 . S
C16 C17 1.364 . S
C16 C19 1.450 . S
C17 C12 1.367 . S
C17 C16 1.364 . S
C17 H77 0.931 . S
C18 C14 1.535 . S
C18 H78 0.959 1_655 S
C18 H79 0.961 . S
C18 H80 0.959 . S
C19 C16 1.450 . S
C19 H81 0.960 . S
C19 H82 0.960 1_655 S
C19 H83 0.960 . S
C20 C21 1.309 . S
C20 C25 1.304 . S
C20 O58 1.435 . S
C21 C20 1.309 . S
C21 C22 1.476 . S
C21 H85 0.930 . S
C22 C21 1.476 . S
C22 C23 1.400 . S
C22 C26 1.567 . S
C23 C22 1.400 . S
C23 C24 1.373 . S
C23 C45 1.432 . S
C24 C23 1.373 . S
C24 C25 1.339 . S
C24 C27 1.530 . S
C25 C20 1.304 . S
C25 C24 1.339 . S
C25 H86 0.930 . S
C26 C22 1.567 . S
C26 H87 0.961 . S
C26 H88 0.960 . S
C26 H89 0.958 . S
C27 C24 1.530 . S
C27 H90 0.961 . S
C27 H91 0.960 . S
C27 H92 0.960 . S
C28 C29 1.530 . S
C28 H94 0.961 . S
C28 H95 0.961 . S
C28 H96 0.959 . S
C29 C28 1.530 . S
C29 O57 1.412 . S
C29 H93 0.980 . S
C30 C31 1.288 . S
C30 C35 1.377 . S
C30 O57 1.393 . S
C31 C30 1.288 . S
C31 C32 1.369 . S
C31 H97 0.932 . S
C32 C31 1.369 . S
C32 C33 1.398 . S
C32 C36 1.527 . S
C33 C32 1.398 . S
C33 C34 1.380 . S
C33 C47 1.497 . S
C34 C33 1.380 . S
C34 C35 1.383 . S
C34 C37 1.603 . S
C35 C30 1.377 . S
C35 C34 1.383 . S
C35 H98 0.929 . S
C36 C32 1.527 . S
C36 H99 0.961 . S
C36 H100 0.959 1_455 S
C36 H101 0.959 . S
C37 C34 1.603 . S
C37 H102 0.960 . S
C37 H103 0.962 . S
C37 H104 0.961 . S
C38 C5 1.587 . S
C38 C39 1.360 . S
C38 C51 1.412 . S
C39 C38 1.360 . S
C39 C40 1.365 . S
C39 H105 0.929 . S
C40 C15 1.553 1_455 S
C40 C39 1.365 . S
C40 C41 1.404 1_455 S
C41 C40 1.404 1_655 S
C41 C42 1.395 . S
C41 C52 1.451 1_655 S
C42 C41 1.395 . S
C42 C43 1.322 . S
C42 H106 0.930 . S
C43 C42 1.322 . S
C43 C44 1.459 . S
C43 H107 0.929 . S
C44 C43 1.459 . S
C44 C45 1.445 . S
C44 C53 1.395 1_655 S
C45 C23 1.432 . S
C45 C44 1.445 . S
C45 C46 1.370 . S
C46 C45 1.370 . S
C46 C47 1.438 1_655 S
C46 H108 0.930 . S
C47 C33 1.497 . S
C47 C46 1.438 1_455 S
C47 C48 1.360 . S
C48 C47 1.360 . S
C48 C49 1.401 . S
C48 C53 1.446 . S
C49 C48 1.401 . S
C49 C50 1.347 . S
C49 H109 0.929 . S
C50 C49 1.347 . S
C50 C51 1.455 . S
C50 H110 0.930 . S
C51 C38 1.412 . S
C51 C50 1.455 . S
C51 C52 1.331 . S
C52 C41 1.451 1_455 S
C52 C51 1.331 . S
C52 C53 1.497 . S
C53 C44 1.395 1_455 S
C53 C48 1.446 . S
C53 C52 1.497 . S
C54 C55 1.582 . S
C54 H111 0.962 . S
C54 H112 0.959 . S
C54 H113 0.958 . S
C55 C54 1.582 . S
C55 O58 1.458 . S
C55 H84 0.980 . S
O56 C1 1.426 . S
O56 C2 1.334 . S
O57 C29 1.412 . S
O57 C30 1.393 . S
O58 C20 1.435 . S
O58 C55 1.458 . S
O59 C11 1.468 . S
O59 C12 1.408 . S
H60 C1 0.980 . S
H61 C0 0.959 . S
H62 C0 0.959 . S
H63 C0 0.960 . S
H64 C3 0.929 . S
H65 C7 0.929 . S
H66 C8 0.959 . S
H67 C8 0.961 . S
H68 C8 0.961 . S
H69 C9 0.960 . S
H70 C9 0.960 . S
H71 C9 0.961 . S
H72 C11 0.980 . S
H73 C10 0.961 . S
H74 C10 0.960 . S
H75 C10 0.959 . S
H76 C13 0.930 . S
H77 C17 0.931 . S
H78 C18 0.959 1_455 S
H79 C18 0.961 . S
H80 C18 0.959 . S
H81 C19 0.960 . S
H82 C19 0.960 1_455 S
H83 C19 0.960 . S
H84 C55 0.980 . S
H85 C21 0.930 . S
H86 C25 0.930 . S
H87 C26 0.961 . S
H88 C26 0.960 . S
H89 C26 0.958 . S
H90 C27 0.961 . S
H91 C27 0.960 . S
H92 C27 0.960 . S
H93 C29 0.980 . S
H94 C28 0.961 . S
H95 C28 0.961 . S
H96 C28 0.959 . S
H97 C31 0.932 . S
H98 C35 0.929 . S
H99 C36 0.961 . S
H100 C36 0.959 1_655 S
H101 C36 0.959 . S
H102 C37 0.960 . S
H103 C37 0.962 . S
H104 C37 0.961 . S
H105 C39 0.929 . S
H106 C42 0.930 . S
H107 C43 0.929 . S
H108 C46 0.930 . S
H109 C49 0.929 . S
H110 C50 0.930 . S
H111 C54 0.962 . S
H112 C54 0.959 . S
H113 C54 0.958 . S
C114 C115 1.560 . S
C114 H175 0.959 . S
C114 H176 0.959 . S
C114 H177 0.960 . S
C115 C114 1.560 . S
C115 O170 1.426 . S
C115 H174 0.980 . S
C116 C117 1.407 . S
C116 C121 1.418 . S
C116 O170 1.334 . S
C117 C116 1.407 . S
C117 C118 1.360 . S
C117 H178 0.929 . S
C118 C117 1.360 . S
C118 C119 1.401 . S
C118 C122 1.527 . S
C119 C118 1.401 . S
C119 C120 1.405 . S
C119 C152 1.587 . S
C120 C119 1.405 . S
C120 C121 1.332 . S
C120 C123 1.496 . S
C121 C116 1.418 . S
C121 C120 1.332 . S
C121 H179 0.929 . S
C122 C118 1.527 . S
C122 H180 0.959 . S
C122 H181 0.961 . S
C122 H182 0.961 . S
C123 C120 1.496 . S
C123 H183 0.960 . S
C123 H184 0.960 . S
C123 H185 0.961 . S
C124 C125 1.517 . S
C124 H187 0.961 . S
C124 H188 0.960 . S
C124 H189 0.959 . S
C125 C124 1.517 . S
C125 O173 1.468 . S
C125 H186 0.980 . S
C126 C127 1.349 . S
C126 C131 1.367 . S
C126 O173 1.408 . S
C127 C126 1.349 . S
C127 C128 1.407 . S
C127 H190 0.930 . S
C128 C127 1.407 . S
C128 C129 1.449 . S
C128 C132 1.535 . S
C129 C128 1.449 . S
C129 C130 1.384 . S
C129 C154 1.553 . S
C130 C129 1.384 . S
C130 C131 1.364 . S
C130 C133 1.450 . S
C131 C126 1.367 . S
C131 C130 1.364 . S
C131 H191 0.931 . S
C132 C128 1.535 . S
C132 H192 0.959 . S
C132 H193 0.961 . S
C132 H194 0.959 . S
C133 C130 1.450 . S
C133 H195 0.960 . S
C133 H196 0.960 . S
C133 H197 0.960 . S
C134 C135 1.309 . S
C134 C139 1.304 . S
C134 O172 1.435 . S
C135 C134 1.309 . S
C135 C136 1.476 . S
C135 H199 0.930 . S
C136 C135 1.476 . S
C136 C137 1.400 . S
C136 C140 1.567 . S
C137 C136 1.400 . S
C137 C138 1.373 . S
C137 C159 1.432 . S
C138 C137 1.373 . S
C138 C139 1.339 . S
C138 C141 1.530 . S
C139 C134 1.304 . S
C139 C138 1.339 . S
C139 H200 0.930 . S
C140 C136 1.567 . S
C140 H201 0.961 . S
C140 H202 0.960 . S
C140 H203 0.958 . S
C141 C138 1.530 . S
C141 H204 0.961 . S
C141 H205 0.960 . S
C141 H206 0.960 . S
C142 C143 1.530 . S
C142 H208 0.961 . S
C142 H209 0.961 . S
C142 H210 0.959 . S
C143 C142 1.530 . S
C143 O171 1.412 . S
C143 H207 0.980 . S
C144 C145 1.288 . S
C144 C149 1.377 . S
C144 O171 1.393 . S
C145 C144 1.288 . S
C145 C146 1.387 . S
C145 H211 0.932 . S
C146 C145 1.387 . S
C146 C147 1.419 1_565 S
C146 C150 1.489 1_565 S
C147 C146 1.419 1_545 S
C147 C148 1.380 1_545 S
C147 C161 1.497 . S
C148 C147 1.380 1_565 S
C148 C149 1.383 . S
C148 C151 1.603 . S
C149 C144 1.377 . S
C149 C148 1.383 . S
C149 H212 0.929 . S
C150 C146 1.489 1_545 S
C150 H213 0.961 . S
C150 H214 0.959 . S
C150 H215 0.959 . S
C151 C148 1.603 . S
C151 H216 0.960 . S
C151 H217 0.962 1_565 S
C151 H218 0.961 . S
C152 C119 1.587 . S
C152 C153 1.360 . S
C152 C165 1.412 . S
C153 C152 1.360 . S
C153 C154 1.365 1_565 S
C153 H219 0.929 . S
C154 C129 1.553 . S
C154 C153 1.365 1_545 S
C154 C155 1.404 . S
C155 C154 1.404 . S
C155 C156 1.395 . S
C155 C166 1.451 . S
C156 C155 1.395 . S
C156 C157 1.322 . S
C156 H220 0.930 . S
C157 C156 1.322 . S
C157 C158 1.459 . S
C157 H221 0.929 . S
C158 C157 1.459 . S
C158 C159 1.445 . S
C158 C167 1.395 . S
C159 C137 1.432 . S
C159 C158 1.445 . S
C159 C160 1.370 . S
C160 C159 1.370 . S
C160 C161 1.438 . S
C160 H222 0.930 . S
C161 C147 1.497 . S
C161 C160 1.438 . S
C161 C162 1.360 . S
C162 C161 1.360 . S
C162 C163 1.401 1_545 S
C162 C167 1.446 . S
C163 C162 1.401 1_565 S
C163 C164 1.347 . S
C163 H223 0.929 . S
C164 C163 1.347 . S
C164 C165 1.455 . S
C164 H224 0.930 . S
C165 C152 1.412 . S
C165 C164 1.455 . S
C165 C166 1.331 1_565 S
C166 C155 1.451 . S
C166 C165 1.331 1_545 S
C166 C167 1.497 . S
C167 C158 1.395 . S
C167 C162 1.446 . S
C167 C166 1.497 . S
C168 C169 1.582 . S
C168 H225 0.962 . S
C168 H226 0.959 . S
C168 H227 0.958 . S
C169 C168 1.582 . S
C169 O172 1.458 . S
C169 H198 0.980 . S
O170 C115 1.426 . S
O170 C116 1.334 . S
O171 C143 1.412 . S
O171 C144 1.393 . S
O172 C134 1.435 . S
O172 C169 1.458 . S
O173 C125 1.468 . S
O173 C126 1.408 . S
H174 C115 0.980 . S
H175 C114 0.959 . S
H176 C114 0.959 . S
H177 C114 0.960 . S
H178 C117 0.929 . S
H179 C121 0.929 . S
H180 C122 0.959 . S
H181 C122 0.961 . S
H182 C122 0.961 . S
H183 C123 0.960 . S
H184 C123 0.960 . S
H185 C123 0.961 . S
H186 C125 0.980 . S
H187 C124 0.961 . S
H188 C124 0.960 . S
H189 C124 0.959 . S
H190 C127 0.930 . S
H191 C131 0.931 . S
H192 C132 0.959 . S
H193 C132 0.961 . S
H194 C132 0.959 . S
H195 C133 0.960 . S
H196 C133 0.960 . S
H197 C133 0.960 . S
H198 C169 0.980 . S
H199 C135 0.930 . S
H200 C139 0.930 . S
H201 C140 0.961 . S
H202 C140 0.960 . S
H203 C140 0.958 . S
H204 C141 0.961 . S
H205 C141 0.960 . S
H206 C141 0.960 . S
H207 C143 0.980 . S
H208 C142 0.961 . S
H209 C142 0.961 . S
H210 C142 0.959 . S
H211 C145 0.932 . S
H212 C149 0.929 . S
H213 C150 0.961 . S
H214 C150 0.959 . S
H215 C150 0.959 . S
H216 C151 0.960 . S
H217 C151 0.962 1_545 S
H218 C151 0.961 . S
H219 C153 0.929 . S
H220 C156 0.930 . S
H221 C157 0.929 . S
H222 C160 0.930 . S
H223 C163 0.929 . S
H224 C164 0.930 . S
H225 C168 0.962 . S
H226 C168 0.959 . S
H227 C168 0.958 . S
C228 C229 1.560 . S
C228 H289 0.959 . S
C228 H290 0.959 . S
C228 H291 0.960 . S
C229 C228 1.560 . S
C229 O284 1.426 . S
C229 H288 0.980 . S
C230 C231 1.407 . S
C230 C235 1.418 . S
C230 O284 1.334 . S
C231 C230 1.407 . S
C231 C232 1.360 . S
C231 H292 0.929 . S
C232 C231 1.360 . S
C232 C233 1.401 . S
C232 C236 1.527 . S
C233 C232 1.401 . S
C233 C234 1.405 . S
C233 C266 1.587 . S
C234 C233 1.405 . S
C234 C235 1.332 . S
C234 C237 1.496 . S
C235 C230 1.418 . S
C235 C234 1.332 . S
C235 H293 0.929 . S
C236 C232 1.527 . S
C236 H294 0.959 . S
C236 H295 0.961 . S
C236 H296 0.961 . S
C237 C234 1.496 . S
C237 H297 0.960 . S
C237 H298 0.960 . S
C237 H299 0.961 . S
C238 C239 1.517 . S
C238 H301 0.961 . S
C238 H302 0.960 . S
C238 H303 0.959 . S
C239 C238 1.517 . S
C239 O287 1.468 . S
C239 H300 0.980 . S
C240 C241 1.349 . S
C240 C245 1.367 . S
C240 O287 1.408 . S
C241 C240 1.349 . S
C241 C242 1.407 . S
C241 H304 0.930 . S
C242 C241 1.407 . S
C242 C243 1.449 . S
C242 C246 1.535 . S
C243 C242 1.449 . S
C243 C244 1.384 . S
C243 C268 1.553 . S
C244 C243 1.384 . S
C244 C245 1.364 . S
C244 C247 1.450 . S
C245 C240 1.367 . S
C245 C244 1.364 . S
C245 H305 0.931 . S
C246 C242 1.535 . S
C246 H306 0.959 . S
C246 H307 0.961 . S
C246 H308 0.959 . S
C247 C244 1.450 . S
C247 H309 0.960 . S
C247 H310 0.960 . S
C247 H311 0.960 . S
C248 C249 1.309 . S
C248 C253 1.304 . S
C248 O286 1.435 . S
C249 C248 1.309 . S
C249 C250 1.476 . S
C249 H313 0.930 . S
C250 C249 1.476 . S
C250 C251 1.400 . S
C250 C254 1.567 . S
C251 C250 1.400 . S
C251 C252 1.373 . S
C251 C273 1.432 . S
C252 C251 1.373 . S
C252 C253 1.339 . S
C252 C255 1.530 . S
C253 C248 1.304 . S
C253 C252 1.339 . S
C253 H314 0.930 . S
C254 C250 1.567 . S
C254 H315 0.961 . S
C254 H316 0.960 . S
C254 H317 0.958 . S
C255 C252 1.530 . S
C255 H318 0.961 . S
C255 H319 0.960 . S
C255 H320 0.960 . S
C256 C257 1.530 . S
C256 H322 0.961 . S
C256 H323 0.961 . S
C256 H324 0.959 . S
C257 C256 1.530 . S
C257 O285 1.412 . S
C257 H321 0.980 . S
C258 C259 1.288 . S
C258 C263 1.377 . S
C258 O285 1.393 . S
C259 C258 1.288 . S
C259 C260 1.369 . S
C259 H325 0.932 . S
C260 C259 1.369 . S
C260 C261 1.398 . S
C260 C264 1.527 . S
C261 C260 1.398 . S
C261 C262 1.380 . S
C261 C275 1.497 . S
C262 C261 1.380 . S
C262 C263 1.383 . S
C262 C265 1.603 . S
C263 C258 1.377 . S
C263 C262 1.383 . S
C263 H326 0.929 . S
C264 C260 1.527 . S
C264 H327 0.961 . S
C264 H328 0.959 . S
C264 H329 0.959 . S
C265 C262 1.603 . S
C265 H330 0.960 . S
C265 H331 0.962 . S
C265 H332 0.961 . S
C266 C233 1.587 . S
C266 C267 1.360 . S
C266 C279 1.412 . S
C267 C266 1.360 . S
C267 C268 1.365 . S
C267 H333 0.929 . S
C268 C243 1.553 . S
C268 C267 1.365 . S
C268 C269 1.404 . S
C269 C268 1.404 . S
C269 C270 1.395 . S
C269 C280 1.451 . S
C270 C269 1.395 . S
C270 C271 1.322 . S
C270 H334 0.930 . S
C271 C270 1.322 . S
C271 C272 1.459 . S
C271 H335 0.929 . S
C272 C271 1.459 . S
C272 C273 1.445 . S
C272 C281 1.395 . S
C273 C251 1.432 . S
C273 C272 1.445 . S
C273 C274 1.370 . S
C274 C273 1.370 . S
C274 C275 1.438 . S
C274 H336 0.930 . S
C275 C261 1.497 . S
C275 C274 1.438 . S
C275 C276 1.360 . S
C276 C275 1.360 . S
C276 C277 1.401 . S
C276 C281 1.446 . S
C277 C276 1.401 . S
C277 C278 1.347 . S
C277 H337 0.929 . S
C278 C277 1.347 . S
C278 C279 1.455 . S
C278 H338 0.930 . S
C279 C266 1.412 . S
C279 C278 1.455 . S
C279 C280 1.331 . S
C280 C269 1.451 . S
C280 C279 1.331 . S
C280 C281 1.497 . S
C281 C272 1.395 . S
C281 C276 1.446 . S
C281 C280 1.497 . S
C282 C283 1.582 . S
C282 H339 0.962 . S
C282 H340 0.959 . S
C282 H341 0.958 . S
C283 C282 1.582 . S
C283 O286 1.458 . S
C283 H312 0.980 . S
O284 C229 1.426 . S
O284 C230 1.334 . S
O285 C257 1.412 . S
O285 C258 1.393 . S
O286 C248 1.435 . S
O286 C283 1.458 . S
O287 C239 1.468 . S
O287 C240 1.408 . S
H288 C229 0.980 . S
H289 C228 0.959 . S
H290 C228 0.959 . S
H291 C228 0.960 . S
H292 C231 0.929 . S
H293 C235 0.929 . S
H294 C236 0.959 . S
H295 C236 0.961 . S
H296 C236 0.961 . S
H297 C237 0.960 . S
H298 C237 0.960 . S
H299 C237 0.961 . S
H300 C239 0.980 . S
H301 C238 0.961 . S
H302 C238 0.960 . S
H303 C238 0.959 . S
H304 C241 0.930 . S
H305 C245 0.931 . S
H306 C246 0.959 . S
H307 C246 0.961 . S
H308 C246 0.959 . S
H309 C247 0.960 . S
H310 C247 0.960 . S
H311 C247 0.960 . S
H312 C283 0.980 . S
H313 C249 0.930 . S
H314 C253 0.930 . S
H315 C254 0.961 . S
H316 C254 0.960 . S
H317 C254 0.958 . S
H318 C255 0.961 . S
H319 C255 0.960 . S
H320 C255 0.960 . S
H321 C257 0.980 . S
H322 C256 0.961 . S
H323 C256 0.961 . S
H324 C256 0.959 . S
H325 C259 0.932 . S
H326 C263 0.929 . S
H327 C264 0.961 . S
H328 C264 0.959 . S
H329 C264 0.959 . S
H330 C265 0.960 . S
H331 C265 0.962 . S
H332 C265 0.961 . S
H333 C267 0.929 . S
H334 C270 0.930 . S
H335 C271 0.929 . S
H336 C274 0.930 . S
H337 C277 0.929 . S
H338 C278 0.930 . S
H339 C282 0.962 . S
H340 C282 0.959 . S
H341 C282 0.958 . S
C342 C343 1.560 . S
C342 H403 0.959 . S
C342 H404 0.959 . S
C342 H405 0.960 . S
C343 C342 1.560 . S
C343 O398 1.426 . S
C343 H402 0.980 . S
C344 C345 1.407 . S
C344 C349 1.418 . S
C344 O398 1.334 . S
C345 C344 1.407 . S
C345 C346 1.360 . S
C345 H406 0.929 . S
C346 C345 1.360 . S
C346 C347 1.401 . S
C346 C350 1.527 . S
C347 C346 1.401 . S
C347 C348 1.405 . S
C347 C380 1.587 . S
C348 C347 1.405 . S
C348 C349 1.332 . S
C348 C351 1.496 . S
C349 C344 1.418 . S
C349 C348 1.332 . S
C349 H407 0.929 . S
C350 C346 1.527 . S
C350 H408 0.959 . S
C350 H409 0.961 . S
C350 H410 0.961 . S
C351 C348 1.496 . S
C351 H411 0.960 . S
C351 H412 0.960 . S
C351 H413 0.961 . S
C352 C353 1.517 . S
C352 H415 0.961 . S
C352 H416 0.960 . S
C352 H417 0.959 . S
C353 C352 1.517 . S
C353 O401 1.468 . S
C353 H414 0.980 . S
C354 C355 1.349 . S
C354 C359 1.367 . S
C354 O401 1.408 . S
C355 C354 1.349 . S
C355 C356 1.407 . S
C355 H418 0.930 . S
C356 C355 1.407 . S
C356 C357 1.449 . S
C356 C360 1.535 . S
C357 C356 1.449 . S
C357 C358 1.384 . S
C357 C382 1.553 1_655 S
C358 C357 1.384 . S
C358 C359 1.364 . S
C358 C361 1.450 . S
C359 C354 1.367 . S
C359 C358 1.364 . S
C359 H419 0.931 . S
C360 C356 1.535 . S
C360 H420 0.959 1_655 S
C360 H421 0.961 1_655 S
C360 H422 0.959 . S
C361 C358 1.450 . S
C361 H423 0.960 . S
C361 H424 0.960 1_655 S
C361 H425 0.960 . S
C362 C363 1.309 . S
C362 C367 1.304 . S
C362 O400 1.435 . S
C363 C362 1.309 . S
C363 C364 1.476 . S
C363 H427 0.930 . S
C364 C363 1.476 . S
C364 C365 1.400 . S
C364 C368 1.567 . S
C365 C364 1.400 . S
C365 C366 1.373 . S
C365 C387 1.432 . S
C366 C365 1.373 . S
C366 C367 1.339 . S
C366 C369 1.530 . S
C367 C362 1.304 . S
C367 C366 1.339 . S
C367 H428 0.930 . S
C368 C364 1.567 . S
C368 H429 0.961 . S
C368 H430 0.960 . S
C368 H431 0.958 . S
C369 C366 1.530 . S
C369 H432 0.961 . S
C369 H433 0.960 . S
C369 H434 0.960 . S
C370 C371 1.530 . S
C370 H436 0.961 . S
C370 H437 0.961 . S
C370 H438 0.959 . S
C371 C370 1.530 . S
C371 O399 1.412 . S
C371 H435 0.980 . S
C372 C373 1.288 . S
C372 C377 1.377 . S
C372 O399 1.393 . S
C373 C372 1.288 . S
C373 C374 1.369 . S
C373 H439 0.932 . S
C374 C373 1.369 . S
C374 C375 1.398 . S
C374 C378 1.527 . S
C375 C374 1.398 . S
C375 C376 1.380 . S
C375 C389 1.497 . S
C376 C375 1.380 . S
C376 C377 1.383 . S
C376 C379 1.603 . S
C377 C372 1.377 . S
C377 C376 1.383 . S
C377 H440 0.929 . S
C378 C374 1.527 . S
C378 H441 0.961 . S
C378 H442 0.941 1_455 S
C378 H443 0.959 . S
C379 C376 1.603 . S
C379 H444 0.960 . S
C379 H445 0.962 . S
C379 H446 0.961 . S
C380 C347 1.587 . S
C380 C381 1.360 . S
C380 C393 1.412 . S
C381 C380 1.360 . S
C381 C382 1.365 . S
C381 H447 0.929 . S
C382 C357 1.553 1_455 S
C382 C381 1.365 . S
C382 C383 1.404 . S
C383 C382 1.404 . S
C383 C384 1.395 1_455 S
C383 C394 1.451 . S
C384 C383 1.395 1_655 S
C384 C385 1.322 . S
C384 H448 0.930 . S
C385 C384 1.322 . S
C385 C386 1.459 . S
C385 H449 0.929 . S
C386 C385 1.459 . S
C386 C387 1.445 . S
C386 C395 1.395 1_655 S
C387 C365 1.432 . S
C387 C386 1.445 . S
C387 C388 1.370 . S
C388 C387 1.370 . S
C388 C389 1.438 1_655 S
C388 H450 0.930 . S
C389 C375 1.497 . S
C389 C388 1.438 1_455 S
C389 C390 1.360 . S
C390 C389 1.360 . S
C390 C391 1.401 . S
C390 C395 1.446 . S
C391 C390 1.401 . S
C391 C392 1.347 . S
C391 H451 0.929 . S
C392 C391 1.347 . S
C392 C393 1.455 . S
C392 H452 0.930 . S
C393 C380 1.412 . S
C393 C392 1.455 . S
C393 C394 1.331 . S
C394 C383 1.451 . S
C394 C393 1.331 . S
C394 C395 1.497 . S
C395 C386 1.395 1_455 S
C395 C390 1.446 . S
C395 C394 1.497 . S
C396 C397 1.582 . S
C396 H453 0.962 . S
C396 H454 0.959 . S
C396 H455 0.958 . S
C397 C396 1.582 . S
C397 O400 1.458 . S
C397 H426 0.980 . S
O398 C343 1.426 . S
O398 C344 1.334 . S
O399 C371 1.412 . S
O399 C372 1.393 . S
O400 C362 1.435 . S
O400 C397 1.458 . S
O401 C353 1.468 . S
O401 C354 1.408 . S
H402 C343 0.980 . S
H403 C342 0.959 . S
H404 C342 0.959 . S
H405 C342 0.960 . S
H406 C345 0.929 . S
H407 C349 0.929 . S
H408 C350 0.959 . S
H409 C350 0.961 . S
H410 C350 0.961 . S
H411 C351 0.960 . S
H412 C351 0.960 . S
H413 C351 0.961 . S
H414 C353 0.980 . S
H415 C352 0.961 . S
H416 C352 0.960 . S
H417 C352 0.959 . S
H418 C355 0.930 . S
H419 C359 0.931 . S
H420 C360 0.959 1_455 S
H421 C360 0.961 1_455 S
H422 C360 0.959 . S
H423 C361 0.960 . S
H424 C361 0.960 1_455 S
H425 C361 0.960 . S
H426 C397 0.980 . S
H427 C363 0.930 . S
H428 C367 0.930 . S
H429 C368 0.961 . S
H430 C368 0.960 . S
H431 C368 0.958 . S
H432 C369 0.961 . S
H433 C369 0.960 . S
H434 C369 0.960 . S
H435 C371 0.980 . S
H436 C370 0.961 . S
H437 C370 0.961 . S
H438 C370 0.959 . S
H439 C373 0.932 . S
H440 C377 0.929 . S
H441 C378 0.961 . S
H442 C378 0.941 1_655 S
H443 C378 0.959 . S
H444 C379 0.960 . S
H445 C379 0.962 . S
H446 C379 0.961 . S
H447 C381 0.929 . S
H448 C384 0.930 . S
H449 C385 0.929 . S
H450 C388 0.930 . S
H451 C391 0.929 . S
H452 C392 0.930 . S
H453 C396 0.962 . S
H454 C396 0.959 . S
H455 C396 0.958 . S
C456 C457 1.560 . S
C456 H517 0.959 . S
C456 H518 0.959 . S
C456 H519 0.960 . S
C457 C456 1.560 . S
C457 O512 1.426 . S
C457 H516 0.980 . S
C458 C459 1.407 . S
C458 C463 1.418 . S
C458 O512 1.334 . S
C459 C458 1.407 . S
C459 C460 1.360 . S
C459 H520 0.929 . S
C460 C459 1.360 . S
C460 C461 1.401 . S
C460 C464 1.527 . S
C461 C460 1.401 . S
C461 C462 1.405 . S
C461 C494 1.587 . S
C462 C461 1.405 . S
C462 C463 1.332 . S
C462 C465 1.496 . S
C463 C458 1.418 . S
C463 C462 1.332 . S
C463 H521 0.929 . S
C464 C460 1.527 . S
C464 H522 0.959 . S
C464 H523 0.961 . S
C464 H524 0.961 . S
C465 C462 1.496 . S
C465 H525 0.960 . S
C465 H526 0.960 . S
C465 H527 0.961 . S
C466 C467 1.517 . S
C466 H529 0.961 . S
C466 H530 0.960 . S
C466 H531 0.959 . S
C467 C466 1.517 . S
C467 O515 1.468 . S
C467 H528 0.980 . S
C468 C469 1.349 . S
C468 C473 1.367 . S
C468 O515 1.408 . S
C469 C468 1.349 . S
C469 C470 1.407 . S
C469 H532 0.930 . S
C470 C469 1.407 . S
C470 C471 1.449 . S
C470 C474 1.535 . S
C471 C470 1.449 . S
C471 C472 1.384 . S
C471 C496 1.553 . S
C472 C471 1.384 . S
C472 C473 1.364 . S
C472 C475 1.450 . S
C473 C468 1.367 . S
C473 C472 1.364 . S
C473 H533 0.931 . S
C474 C470 1.535 . S
C474 H534 0.959 . S
C474 H535 0.961 . S
C474 H536 0.959 . S
C475 C472 1.450 . S
C475 H537 0.960 . S
C475 H538 0.960 . S
C475 H539 0.960 . S
C476 C477 1.309 . S
C476 C481 1.304 . S
C476 O514 1.435 . S
C477 C476 1.309 . S
C477 C478 1.476 . S
C477 H541 0.930 . S
C478 C477 1.476 . S
C478 C479 1.400 . S
C478 C482 1.567 . S
C479 C478 1.400 . S
C479 C480 1.373 . S
C479 C501 1.432 . S
C480 C479 1.373 . S
C480 C481 1.339 . S
C480 C483 1.530 . S
C481 C476 1.304 . S
C481 C480 1.339 . S
C481 H542 0.930 . S
C482 C478 1.567 . S
C482 H543 0.961 . S
C482 H544 0.960 . S
C482 H545 0.958 . S
C483 C480 1.530 . S
C483 H546 0.961 . S
C483 H547 0.960 . S
C483 H548 0.960 . S
C484 C485 1.530 . S
C484 H550 0.961 . S
C484 H551 0.961 . S
C484 H552 0.959 . S
C485 C484 1.530 . S
C485 O513 1.412 . S
C485 H549 0.980 . S
C486 C487 1.288 . S
C486 C491 1.377 . S
C486 O513 1.393 . S
C487 C486 1.288 . S
C487 C488 1.369 1_565 S
C487 H553 0.932 . S
C488 C487 1.369 1_545 S
C488 C489 1.398 . S
C488 C492 1.527 . S
C489 C488 1.398 . S
C489 C490 1.380 1_545 S
C489 C503 1.497 . S
C490 C489 1.380 1_565 S
C490 C491 1.383 . S
C490 C493 1.603 . S
C491 C486 1.377 . S
C491 C490 1.383 . S
C491 H554 0.929 . S
C492 C488 1.527 . S
C492 H555 0.961 . S
C492 H556 0.959 . S
C492 H557 0.959 . S
C493 C490 1.603 . S
C493 H558 0.960 . S
C493 H559 0.962 1_565 S
C493 H560 0.961 . S
C494 C461 1.587 . S
C494 C495 1.360 . S
C494 C507 1.412 . S
C495 C494 1.360 . S
C495 C496 1.365 1_565 S
C495 H561 0.929 . S
C496 C471 1.553 . S
C496 C495 1.365 1_545 S
C496 C497 1.404 . S
C497 C496 1.404 . S
C497 C498 1.395 . S
C497 C508 1.451 . S
C498 C497 1.395 . S
C498 C499 1.322 . S
C498 H562 0.930 . S
C499 C498 1.322 . S
C499 C500 1.459 . S
C499 H563 0.929 . S
C500 C499 1.459 . S
C500 C501 1.445 1_556 S
C500 C509 1.395 . S
C501 C479 1.432 . S
C501 C500 1.445 1_554 S
C501 C502 1.370 . S
C502 C501 1.370 . S
C502 C503 1.438 . S
C502 H564 0.930 . S
C503 C489 1.497 . S
C503 C502 1.438 . S
C503 C504 1.360 . S
C504 C503 1.360 . S
C504 C505 1.401 1_545 S
C504 C509 1.446 1_554 S
C505 C504 1.401 1_565 S
C505 C506 1.347 1_554 S
C505 H565 0.929 . S
C506 C505 1.347 1_556 S
C506 C507 1.455 . S
C506 H566 0.930 . S
C507 C494 1.412 . S
C507 C506 1.455 . S
C507 C508 1.331 1_565 S
C508 C497 1.451 . S
C508 C507 1.331 1_545 S
C508 C509 1.497 . S
C509 C500 1.395 . S
C509 C504 1.446 1_556 S
C509 C508 1.497 . S
C510 C511 1.582 . S
C510 H567 0.962 . S
C510 H568 0.959 . S
C510 H569 0.958 . S
C511 C510 1.582 . S
C511 O514 1.458 . S
C511 H540 0.980 . S
O512 C457 1.426 . S
O512 C458 1.334 . S
O513 C485 1.412 . S
O513 C486 1.393 . S
O514 C476 1.435 . S
O514 C511 1.458 . S
O515 C467 1.468 . S
O515 C468 1.408 . S
H516 C457 0.980 . S
H517 C456 0.959 . S
H518 C456 0.959 . S
H519 C456 0.960 . S
H520 C459 0.929 . S
H521 C463 0.929 . S
H522 C464 0.959 . S
H523 C464 0.961 . S
H524 C464 0.961 . S
H525 C465 0.960 . S
H526 C465 0.960 . S
H527 C465 0.961 . S
H528 C467 0.980 . S
H529 C466 0.961 . S
H530 C466 0.960 . S
H531 C466 0.959 . S
H532 C469 0.930 . S
H533 C473 0.931 . S
H534 C474 0.959 . S
H535 C474 0.961 . S
H536 C474 0.959 . S
H537 C475 0.960 . S
H538 C475 0.960 . S
H539 C475 0.960 . S
H540 C511 0.980 . S
H541 C477 0.930 . S
H542 C481 0.930 . S
H543 C482 0.961 . S
H544 C482 0.960 . S
H545 C482 0.958 . S
H546 C483 0.961 . S
H547 C483 0.960 . S
H548 C483 0.960 . S
H549 C485 0.980 . S
H550 C484 0.961 . S
H551 C484 0.961 . S
H552 C484 0.959 . S
H553 C487 0.932 . S
H554 C491 0.929 . S
H555 C492 0.961 . S
H556 C492 0.959 . S
H557 C492 0.959 . S
H558 C493 0.960 . S
H559 C493 0.962 1_545 S
H560 C493 0.961 . S
H561 C495 0.929 . S
H562 C498 0.930 . S
H563 C499 0.929 . S
H564 C502 0.930 . S
H565 C505 0.929 . S
H566 C506 0.930 . S
H567 C510 0.962 . S
H568 C510 0.959 . S
H569 C510 0.958 . S
C570 C571 1.560 . S
C570 H631 0.959 . S
C570 H632 0.959 . S
C570 H633 0.960 . S
C571 C570 1.560 . S
C571 O626 1.426 . S
C571 H630 0.980 . S
C572 C573 1.407 . S
C572 C577 1.418 . S
C572 O626 1.334 . S
C573 C572 1.407 . S
C573 C574 1.360 . S
C573 H634 0.929 . S
C574 C573 1.360 . S
C574 C575 1.401 . S
C574 C578 1.527 . S
C575 C574 1.401 . S
C575 C576 1.405 . S
C575 C608 1.587 . S
C576 C575 1.405 . S
C576 C577 1.332 . S
C576 C579 1.496 . S
C577 C572 1.418 . S
C577 C576 1.332 . S
C577 H635 0.929 . S
C578 C574 1.527 . S
C578 H636 0.959 . S
C578 H637 0.961 . S
C578 H638 0.961 . S
C579 C576 1.496 . S
C579 H639 0.960 . S
C579 H640 0.960 . S
C579 H641 0.961 . S
C580 C581 1.517 . S
C580 H643 0.961 . S
C580 H644 0.960 . S
C580 H645 0.959 . S
C581 C580 1.517 . S
C581 O629 1.468 . S
C581 H642 0.980 . S
C582 C583 1.349 . S
C582 C587 1.367 . S
C582 O629 1.408 . S
C583 C582 1.349 . S
C583 C584 1.407 . S
C583 H646 0.930 . S
C584 C583 1.407 . S
C584 C585 1.449 . S
C584 C588 1.535 . S
C585 C584 1.449 . S
C585 C586 1.384 . S
C585 C610 1.553 . S
C586 C585 1.384 . S
C586 C587 1.364 . S
C586 C589 1.450 . S
C587 C582 1.367 . S
C587 C586 1.364 . S
C587 H647 0.931 . S
C588 C584 1.535 . S
C588 H648 0.959 . S
C588 H649 0.961 . S
C588 H650 0.959 . S
C589 C586 1.450 . S
C589 H651 0.960 . S
C589 H652 0.960 . S
C589 H653 0.960 . S
C590 C591 1.309 . S
C590 C595 1.304 . S
C590 O628 1.435 . S
C591 C590 1.309 . S
C591 C592 1.476 . S
C591 H655 0.930 . S
C592 C591 1.476 . S
C592 C593 1.400 . S
C592 C596 1.567 . S
C593 C592 1.400 . S
C593 C594 1.373 . S
C593 C615 1.432 . S
C594 C593 1.373 . S
C594 C595 1.339 . S
C594 C597 1.530 . S
C595 C590 1.304 . S
C595 C594 1.339 . S
C595 H656 0.930 . S
C596 C592 1.567 . S
C596 H657 0.961 . S
C596 H658 0.960 . S
C596 H659 0.958 . S
C597 C594 1.530 . S
C597 H660 0.961 . S
C597 H661 0.960 . S
C597 H662 0.960 . S
C598 C599 1.530 . S
C598 H664 0.961 . S
C598 H665 0.961 . S
C598 H666 0.959 . S
C599 C598 1.530 . S
C599 O627 1.412 . S
C599 H663 0.980 . S
C600 C601 1.288 . S
C600 C605 1.377 . S
C600 O627 1.393 . S
C601 C600 1.288 . S
C601 C602 1.369 . S
C601 H667 0.932 . S
C602 C601 1.369 . S
C602 C603 1.398 . S
C602 C606 1.527 . S
C603 C602 1.398 . S
C603 C604 1.380 . S
C603 C617 1.497 . S
C604 C603 1.380 . S
C604 C605 1.383 . S
C604 C607 1.603 . S
C605 C600 1.377 . S
C605 C604 1.383 . S
C605 H668 0.929 . S
C606 C602 1.527 . S
C606 H669 0.961 . S
C606 H670 0.959 . S
C606 H671 0.959 . S
C607 C604 1.603 . S
C607 H672 0.960 . S
C607 H673 0.962 . S
C607 H674 0.961 . S
C608 C575 1.587 . S
C608 C609 1.360 . S
C608 C621 1.412 . S
C609 C608 1.360 . S
C609 C610 1.365 . S
C609 H675 0.929 . S
C610 C585 1.553 . S
C610 C609 1.365 . S
C610 C611 1.404 . S
C611 C610 1.404 . S
C611 C612 1.395 . S
C611 C622 1.451 . S
C612 C611 1.395 . S
C612 C613 1.322 . S
C612 H676 0.930 . S
C613 C612 1.322 . S
C613 C614 1.459 . S
C613 H677 0.929 . S
C614 C613 1.459 . S
C614 C615 1.445 . S
C614 C623 1.395 . S
C615 C593 1.432 . S
C615 C614 1.445 . S
C615 C616 1.370 . S
C616 C615 1.370 . S
C616 C617 1.438 . S
C616 H678 0.930 . S
C617 C603 1.497 . S
C617 C616 1.438 . S
C617 C618 1.360 . S
C618 C617 1.360 . S
C618 C619 1.401 . S
C618 C623 1.446 . S
C619 C618 1.401 . S
C619 C620 1.347 . S
C619 H679 0.929 . S
C620 C619 1.347 . S
C620 C621 1.455 . S
C620 H680 0.930 . S
C621 C608 1.412 . S
C621 C620 1.455 . S
C621 C622 1.331 . S
C622 C611 1.451 . S
C622 C621 1.331 . S
C622 C623 1.497 . S
C623 C614 1.395 . S
C623 C618 1.446 . S
C623 C622 1.497 . S
C624 C625 1.582 . S
C624 H681 0.962 . S
C624 H682 0.959 . S
C624 H683 0.958 . S
C625 C624 1.582 . S
C625 O628 1.458 . S
C625 H654 0.980 . S
O626 C571 1.426 . S
O626 C572 1.334 . S
O627 C599 1.412 . S
O627 C600 1.393 . S
O628 C590 1.435 . S
O628 C625 1.458 . S
O629 C581 1.468 . S
O629 C582 1.408 . S
H630 C571 0.980 . S
H631 C570 0.959 . S
H632 C570 0.959 . S
H633 C570 0.960 . S
H634 C573 0.929 . S
H635 C577 0.929 . S
H636 C578 0.959 . S
H637 C578 0.961 . S
H638 C578 0.961 . S
H639 C579 0.960 . S
H640 C579 0.960 . S
H641 C579 0.961 . S
H642 C581 0.980 . S
H643 C580 0.961 . S
H644 C580 0.960 . S
H645 C580 0.959 . S
H646 C583 0.930 . S
H647 C587 0.931 . S
H648 C588 0.959 . S
H649 C588 0.961 . S
H650 C588 0.959 . S
H651 C589 0.960 . S
H652 C589 0.960 . S
H653 C589 0.960 . S
H654 C625 0.980 . S
H655 C591 0.930 . S
H656 C595 0.930 . S
H657 C596 0.961 . S
H658 C596 0.960 . S
H659 C596 0.958 . S
H660 C597 0.961 . S
H661 C597 0.960 . S
H662 C597 0.960 . S
H663 C599 0.980 . S
H664 C598 0.961 . S
H665 C598 0.961 . S
H666 C598 0.959 . S
H667 C601 0.932 . S
H668 C605 0.929 . S
H669 C606 0.961 . S
H670 C606 0.959 . S
H671 C606 0.959 . S
H672 C607 0.960 . S
H673 C607 0.962 . S
H674 C607 0.961 . S
H675 C609 0.929 . S
H676 C612 0.930 . S
H677 C613 0.929 . S
H678 C616 0.930 . S
H679 C619 0.929 . S
H680 C620 0.930 . S
H681 C624 0.962 . S
H682 C624 0.959 . S
H683 C624 0.958 . S
Mg684 O685 2.028 . S
Mg684 O691 1.986 . S
Mg684 O693 2.114 . S
Mg684 O694 2.251 . S
Mg684 O697 2.010 . S
O685 Mg684 2.028 . S
O685 C688 1.250 . S
O686 Mg687 2.028 . S
O686 C688 1.248 . S
Mg687 O686 2.028 . S
Mg687 O692 2.032 . S
Mg687 O694 2.079 . S
C688 O685 1.250 . S
C688 O686 1.248 . S
C689 O690 1.264 . S
C689 O697 1.249 . S
O690 C689 1.264 . S
O691 Mg684 1.986 . S
O691 C695 1.246 . S
O692 Mg687 2.032 . S
O692 C695 1.259 . S
O693 Mg684 2.114 . S
O693 C696 1.252 . S
O694 Mg684 2.251 . S
O694 Mg687 2.079 . S
O694 C696 1.273 . S
C695 O691 1.246 . S
C695 O692 1.259 . S
C696 O693 1.252 . S
C696 O694 1.273 . S
O697 Mg684 2.010 . S
O697 C689 1.249 . S
Mg698 O699 2.028 . S
Mg698 O705 1.986 . S
Mg698 O707 2.114 . S
Mg698 O708 2.251 . S
Mg698 O711 2.010 . S
O699 Mg698 2.028 . S
O699 C702 1.250 . S
O700 Mg701 2.028 . S
O700 C702 1.248 . S
Mg701 O700 2.028 . S
Mg701 O706 2.032 . S
Mg701 O708 2.079 . S
C702 O699 1.250 . S
C702 O700 1.248 . S
C703 O704 1.264 . S
C703 O711 1.249 . S
O704 C703 1.264 . S
O705 Mg698 1.986 . S
O705 C709 1.246 . S
O706 Mg701 2.032 . S
O706 C709 1.259 . S
O707 Mg698 2.114 . S
O707 C710 1.252 . S
O708 Mg698 2.251 . S
O708 Mg701 2.079 . S
O708 C710 1.273 . S
C709 O705 1.246 . S
C709 O706 1.259 . S
C710 O707 1.252 . S
C710 O708 1.273 . S
O711 Mg698 2.010 . S
O711 C703 1.249 . S
Mg712 O713 2.028 . S
Mg712 O719 1.986 . S
Mg712 O721 2.114 . S
Mg712 O722 2.251 . S
Mg712 O725 2.010 . S
O713 Mg712 2.028 . S
O713 C716 1.250 . S
O714 Mg715 2.028 . S
O714 C716 1.248 . S
Mg715 O714 2.028 . S
Mg715 O720 2.032 . S
Mg715 O722 2.079 . S
C716 O713 1.250 . S
C716 O714 1.248 . S
C717 O718 1.264 . S
C717 O725 1.249 . S
O718 C717 1.264 . S
O719 Mg712 1.986 . S
O719 C723 1.246 . S
O720 Mg715 2.032 . S
O720 C723 1.259 . S
O721 Mg712 2.114 . S
O721 C724 1.252 . S
O722 Mg712 2.251 . S
O722 Mg715 2.079 . S
O722 C724 1.273 . S
C723 O719 1.246 . S
C723 O720 1.259 . S
C724 O721 1.252 . S
C724 O722 1.273 . S
O725 Mg712 2.010 . S
O725 C717 1.249 . S
Mg726 O727 2.028 . S
Mg726 O733 1.986 . S
Mg726 O735 2.114 . S
Mg726 O736 2.251 . S
Mg726 O739 2.010 . S
O727 Mg726 2.028 . S
O727 C730 1.250 . S
O728 Mg729 2.028 . S
O728 C730 1.248 . S
Mg729 O728 2.028 . S
Mg729 O734 2.032 . S
Mg729 O736 2.079 . S
C730 O727 1.250 . S
C730 O728 1.248 . S
C731 O732 1.264 . S
C731 O739 1.249 . S
O732 C731 1.264 . S
O733 Mg726 1.986 . S
O733 C737 1.246 . S
O734 Mg729 2.032 . S
O734 C737 1.259 . S
O735 Mg726 2.114 . S
O735 C738 1.252 . S
O736 Mg726 2.251 . S
O736 Mg729 2.079 . S
O736 C738 1.273 . S
C737 O733 1.246 . S
C737 O734 1.259 . S
C738 O735 1.252 . S
C738 O736 1.273 . S
O739 Mg726 2.010 . S
O739 C731 1.249 . S
Mg740 O741 2.028 . S
Mg740 O747 1.986 . S
Mg740 O749 2.114 . S
Mg740 O750 2.251 . S
Mg740 O753 2.010 . S
O741 Mg740 2.028 . S
O741 C744 1.250 . S
O742 Mg743 2.028 . S
O742 C744 1.248 . S
Mg743 O742 2.028 . S
Mg743 O748 2.032 . S
Mg743 O750 2.079 . S
C744 O741 1.250 . S
C744 O742 1.248 . S
C745 O746 1.264 . S
C745 O753 1.249 . S
O746 C745 1.264 . S
O747 Mg740 1.986 . S
O747 C751 1.246 . S
O748 Mg743 2.032 . S
O748 C751 1.259 . S
O749 Mg740 2.114 . S
O749 C752 1.252 . S
O750 Mg740 2.251 . S
O750 Mg743 2.079 . S
O750 C752 1.273 . S
C751 O747 1.246 . S
C751 O748 1.259 . S
C752 O749 1.252 . S
C752 O750 1.273 . S
O753 Mg740 2.010 . S
O753 C745 1.249 . S
Mg754 O755 2.028 . S
Mg754 O761 1.986 . S
Mg754 O763 2.114 . S
Mg754 O764 2.251 . S
Mg754 O767 2.010 . S
O755 Mg754 2.028 . S
O755 C758 1.250 . S
O756 Mg757 2.028 . S
O756 C758 1.248 . S
Mg757 O756 2.028 . S
Mg757 O762 2.032 . S
Mg757 O764 2.079 . S
C758 O755 1.250 . S
C758 O756 1.248 . S
C759 O760 1.264 . S
C759 O767 1.249 . S
O760 C759 1.264 . S
O761 Mg754 1.986 . S
O761 C765 1.246 . S
O762 Mg757 2.032 . S
O762 C765 1.259 . S
O763 Mg754 2.114 . S
O763 C766 1.252 . S
O764 Mg754 2.251 . S
O764 Mg757 2.079 . S
O764 C766 1.273 . S
C765 O761 1.246 . S
C765 O762 1.259 . S
C766 O763 1.252 . S
C766 O764 1.273 . S
O767 Mg754 2.010 . S
O767 C759 1.249 . S
H768 C786 0.951 . S
H769 C788 0.951 . S
H770 C790 0.950 . S
H771 C791 0.950 . S
H772 C793 0.950 . S
H773 C796 0.950 . S
H774 C797 0.950 . S
H775 C799 0.950 . S
H776 C800 0.950 . S
H777 C801 0.951 . S
H778 C803 0.951 . S
H779 C805 0.950 . S
H780 C806 0.950 . S
H781 C808 0.950 . S
H782 C811 0.950 . S
H783 C812 0.950 . S
H784 C814 0.950 . S
H785 C815 0.950 . S
C786 H768 0.951 . S
C786 C787 1.366 . S
C786 C788 1.388 . S
C787 C786 1.366 . S
C787 C791 1.385 . S
C788 H769 0.951 . S
C788 C786 1.388 . S
C788 C789 1.366 . S
C789 C788 1.366 . S
C789 C790 1.414 . S
C789 C792 1.499 . S
C790 H770 0.950 . S
C790 C789 1.414 . S
C790 C791 1.374 . S
C791 H771 0.950 . S
C791 C787 1.385 . S
C791 C790 1.374 . S
C792 C789 1.499 . S
C792 C793 1.373 . S
C792 C794 1.389 . S
C793 H772 0.950 . S
C793 C792 1.373 . S
C793 C809 1.377 . S
C794 C792 1.389 . S
C794 C795 1.524 . S
C794 C808 1.377 . S
C795 C794 1.524 . S
C795 C796 1.397 . S
C795 C800 1.363 . S
C796 H773 0.950 . S
C796 C795 1.397 . S
C796 C797 1.334 . S
C797 H774 0.950 . S
C797 C796 1.334 . S
C797 C798 1.287 . S
C798 C797 1.287 . S
C798 C799 1.524 . S
C798 H817 0.913 . S
C799 H775 0.950 . S
C799 C798 1.524 . S
C799 C800 1.415 . S
C800 H776 0.950 . S
C800 C795 1.363 . S
C800 C799 1.415 . S
C801 H777 0.951 . S
C801 C802 1.366 . S
C801 C803 1.388 . S
C802 C801 1.366 . S
C802 C806 1.385 . S
C803 H778 0.951 . S
C803 C801 1.388 . S
C803 C804 1.366 . S
C804 C803 1.366 . S
C804 C805 1.414 . S
C804 C807 1.499 . S
C805 H779 0.950 . S
C805 C804 1.414 . S
C805 C806 1.374 . S
C806 H780 0.950 . S
C806 C802 1.385 . S
C806 C805 1.374 . S
C807 C804 1.499 . S
C807 C808 1.373 . S
C807 C809 1.389 . S
C808 H781 0.950 . S
C808 C794 1.377 . S
C808 C807 1.373 . S
C809 C793 1.377 . S
C809 C807 1.389 . S
C809 C810 1.524 . S
C810 C809 1.524 . S
C810 C811 1.397 . S
C810 C815 1.363 . S
C811 H782 0.950 . S
C811 C810 1.397 . S
C811 C812 1.334 . S
C812 H783 0.950 . S
C812 C811 1.334 . S
C812 C813 1.287 . S
C813 C812 1.287 . S
C813 C814 1.524 . S
C813 H816 0.999 . S
C814 H784 0.950 . S
C814 C813 1.524 . S
C814 C815 1.415 . S
C815 H785 0.950 . S
C815 C810 1.363 . S
C815 C814 1.415 . S
H816 C813 0.999 . S
H817 C798 0.913 . S
H818 C836 0.951 . S
H819 C838 0.951 . S
H820 C840 0.950 . S
H821 C841 0.950 . S
H822 C843 0.950 . S
H823 C846 0.950 . S
H824 C847 0.950 . S
H825 C849 0.950 . S
H826 C850 0.950 . S
H827 C851 0.951 . S
H828 C853 0.951 . S
H829 C855 0.950 . S
H830 C856 0.950 . S
H831 C858 0.950 . S
H832 C861 0.950 . S
H833 C862 0.950 . S
H834 C864 0.950 . S
H835 C865 0.950 . S
C836 H818 0.951 . S
C836 C837 1.366 . S
C836 C838 1.388 . S
C837 C836 1.366 . S
C837 C841 1.385 . S
C838 H819 0.951 . S
C838 C836 1.388 . S
C838 C839 1.366 . S
C839 C838 1.366 . S
C839 C840 1.414 . S
C839 C842 1.499 . S
C840 H820 0.950 . S
C840 C839 1.414 . S
C840 C841 1.374 . S
C841 H821 0.950 . S
C841 C837 1.385 . S
C841 C840 1.374 . S
C842 C839 1.499 . S
C842 C843 1.373 . S
C842 C844 1.389 . S
C843 H822 0.950 . S
C843 C842 1.373 . S
C843 C859 1.377 . S
C844 C842 1.389 . S
C844 C845 1.524 . S
C844 C858 1.377 . S
C845 C844 1.524 . S
C845 C846 1.397 . S
C845 C850 1.363 . S
C846 H823 0.950 . S
C846 C845 1.397 . S
C846 C847 1.334 . S
C847 H824 0.950 . S
C847 C846 1.334 . S
C847 C848 1.287 . S
C848 C847 1.287 . S
C848 C849 1.524 . S
C848 H867 0.913 . S
C849 H825 0.950 . S
C849 C848 1.524 . S
C849 C850 1.415 . S
C850 H826 0.950 . S
C850 C845 1.363 . S
C850 C849 1.415 . S
C851 H827 0.951 . S
C851 C852 1.366 . S
C851 C853 1.388 . S
C852 C851 1.366 . S
C852 C856 1.385 . S
C853 H828 0.951 . S
C853 C851 1.388 . S
C853 C854 1.366 . S
C854 C853 1.366 . S
C854 C855 1.414 . S
C854 C857 1.499 . S
C855 H829 0.950 . S
C855 C854 1.414 . S
C855 C856 1.374 . S
C856 H830 0.950 . S
C856 C852 1.385 . S
C856 C855 1.374 . S
C857 C854 1.499 . S
C857 C858 1.373 . S
C857 C859 1.389 . S
C858 H831 0.950 . S
C858 C844 1.377 . S
C858 C857 1.373 . S
C859 C843 1.377 . S
C859 C857 1.389 . S
C859 C860 1.524 . S
C860 C859 1.524 . S
C860 C861 1.397 . S
C860 C865 1.363 . S
C861 H832 0.950 . S
C861 C860 1.397 . S
C861 C862 1.334 . S
C862 H833 0.950 . S
C862 C861 1.334 . S
C862 C863 1.287 . S
C863 C862 1.287 . S
C863 C864 1.524 . S
C863 H866 0.999 . S
C864 H834 0.950 . S
C864 C863 1.524 . S
C864 C865 1.415 . S
C865 H835 0.950 . S
C865 C860 1.363 . S
C865 C864 1.415 . S
H866 C863 0.999 . S
H867 C848 0.913 . S
H868 C886 0.951 . S
H869 C888 0.951 . S
H870 C890 0.950 . S
H871 C891 0.950 . S
H872 C893 0.950 . S
H873 C896 0.950 . S
H874 C897 0.950 . S
H875 C899 0.950 . S
H876 C900 0.950 . S
H877 C901 0.951 . S
H878 C903 0.951 . S
H879 C905 0.950 . S
H880 C906 0.950 . S
H881 C908 0.950 . S
H882 C911 0.950 . S
H883 C912 0.950 . S
H884 C914 0.950 . S
H885 C915 0.950 . S
C886 H868 0.951 . S
C886 C887 1.366 . S
C886 C888 1.388 . S
C887 C886 1.366 . S
C887 C891 1.385 . S
C888 H869 0.951 . S
C888 C886 1.388 . S
C888 C889 1.366 . S
C889 C888 1.366 . S
C889 C890 1.414 . S
C889 C892 1.499 . S
C890 H870 0.950 . S
C890 C889 1.414 . S
C890 C891 1.374 . S
C891 H871 0.950 . S
C891 C887 1.385 . S
C891 C890 1.374 . S
C892 C889 1.499 . S
C892 C893 1.373 . S
C892 C894 1.389 . S
C893 H872 0.950 . S
C893 C892 1.373 . S
C893 C909 1.377 . S
C894 C892 1.389 . S
C894 C895 1.524 . S
C894 C908 1.377 . S
C895 C894 1.524 . S
C895 C896 1.397 . S
C895 C900 1.363 . S
C896 H873 0.950 . S
C896 C895 1.397 . S
C896 C897 1.334 . S
C897 H874 0.950 . S
C897 C896 1.334 . S
C897 C898 1.287 . S
C898 C897 1.287 . S
C898 C899 1.524 . S
C898 H917 0.913 . S
C899 H875 0.950 . S
C899 C898 1.524 . S
C899 C900 1.415 . S
C900 H876 0.950 . S
C900 C895 1.363 . S
C900 C899 1.415 . S
C901 H877 0.951 . S
C901 C902 1.366 . S
C901 C903 1.388 . S
C902 C901 1.366 . S
C902 C906 1.385 . S
C903 H878 0.951 . S
C903 C901 1.388 . S
C903 C904 1.366 . S
C904 C903 1.366 . S
C904 C905 1.414 . S
C904 C907 1.499 . S
C905 H879 0.950 . S
C905 C904 1.414 . S
C905 C906 1.374 . S
C906 H880 0.950 . S
C906 C902 1.385 . S
C906 C905 1.374 . S
C907 C904 1.499 . S
C907 C908 1.373 . S
C907 C909 1.389 . S
C908 H881 0.950 . S
C908 C894 1.377 . S
C908 C907 1.373 . S
C909 C893 1.377 . S
C909 C907 1.389 . S
C909 C910 1.524 . S
C910 C909 1.524 . S
C910 C911 1.397 . S
C910 C915 1.363 . S
C911 H882 0.950 . S
C911 C910 1.397 . S
C911 C912 1.334 . S
C912 H883 0.950 . S
C912 C911 1.334 . S
C912 C913 1.287 . S
C913 C912 1.287 . S
C913 C914 1.524 . S
C913 H916 0.999 . S
C914 H884 0.950 . S
C914 C913 1.524 . S
C914 C915 1.415 . S
C915 H885 0.950 . S
C915 C910 1.363 . S
C915 C914 1.415 . S
H916 C913 0.999 . S
H917 C898 0.913 . S
H918 C936 0.951 . S
H919 C938 0.951 . S
H920 C940 0.950 . S
H921 C941 0.950 . S
H922 C943 0.950 . S
H923 C946 0.950 . S
H924 C947 0.950 . S
H925 C949 0.950 . S
H926 C950 0.950 . S
H927 C951 0.951 . S
H928 C953 0.951 . S
H929 C955 0.950 . S
H930 C956 0.950 . S
H931 C958 0.950 . S
H932 C961 0.950 . S
H933 C962 0.950 . S
H934 C964 0.950 . S
H935 C965 0.950 . S
C936 H918 0.951 . S
C936 C937 1.366 . S
C936 C938 1.388 . S
C937 C936 1.366 . S
C937 C941 1.385 . S
C938 H919 0.951 . S
C938 C936 1.388 . S
C938 C939 1.366 . S
C939 C938 1.366 . S
C939 C940 1.414 . S
C939 C942 1.499 . S
C940 H920 0.950 . S
C940 C939 1.414 . S
C940 C941 1.374 . S
C941 H921 0.950 . S
C941 C937 1.385 . S
C941 C940 1.374 . S
C942 C939 1.499 . S
C942 C943 1.373 . S
C942 C944 1.389 . S
C943 H922 0.950 . S
C943 C942 1.373 . S
C943 C959 1.377 . S
C944 C942 1.389 . S
C944 C945 1.524 . S
C944 C958 1.377 . S
C945 C944 1.524 . S
C945 C946 1.397 . S
C945 C950 1.363 . S
C946 H923 0.950 . S
C946 C945 1.397 . S
C946 C947 1.334 . S
C947 H924 0.950 . S
C947 C946 1.334 . S
C947 C948 1.287 . S
C948 C947 1.287 . S
C948 C949 1.524 . S
C948 H967 0.913 . S
C949 H925 0.950 . S
C949 C948 1.524 . S
C949 C950 1.415 . S
C950 H926 0.950 . S
C950 C945 1.363 . S
C950 C949 1.415 . S
C951 H927 0.951 . S
C951 C952 1.366 . S
C951 C953 1.388 . S
C952 C951 1.366 . S
C952 C956 1.385 . S
C953 H928 0.951 . S
C953 C951 1.388 . S
C953 C954 1.366 . S
C954 C953 1.366 . S
C954 C955 1.414 . S
C954 C957 1.499 . S
C955 H929 0.950 . S
C955 C954 1.414 . S
C955 C956 1.374 . S
C956 H930 0.950 . S
C956 C952 1.385 . S
C956 C955 1.374 . S
C957 C954 1.499 . S
C957 C958 1.373 . S
C957 C959 1.389 . S
C958 H931 0.950 . S
C958 C944 1.377 . S
C958 C957 1.373 . S
C959 C943 1.377 . S
C959 C957 1.389 . S
C959 C960 1.524 . S
C960 C959 1.524 . S
C960 C961 1.397 . S
C960 C965 1.363 . S
C961 H932 0.950 . S
C961 C960 1.397 . S
C961 C962 1.334 . S
C962 H933 0.950 . S
C962 C961 1.334 . S
C962 C963 1.287 . S
C963 C962 1.287 . S
C963 C964 1.524 . S
C963 H966 0.999 . S
C964 H934 0.950 . S
C964 C963 1.524 . S
C964 C965 1.415 . S
C965 H935 0.950 . S
C965 C960 1.363 . S
C965 C964 1.415 . S
H966 C963 0.999 . S
H967 C948 0.913 . S
H968 C986 0.951 . S
H969 C988 0.951 . S
H970 C990 0.950 . S
H971 C991 0.950 . S
H972 C993 0.950 . S
H973 C996 0.950 . S
H974 C997 0.950 . S
H975 C999 0.950 . S
H976 C1000 0.950 . S
H977 C1001 0.951 . S
H978 C1003 0.951 . S
H979 C1005 0.950 . S
H980 C1006 0.950 . S
H981 C1008 0.950 . S
H982 C1011 0.950 . S
H983 C1012 0.950 . S
H984 C1014 0.950 . S
H985 C1015 0.950 . S
C986 H968 0.951 . S
C986 C987 1.366 . S
C986 C988 1.388 . S
C987 C986 1.366 . S
C987 C991 1.385 . S
C988 H969 0.951 . S
C988 C986 1.388 . S
C988 C989 1.366 . S
C989 C988 1.366 . S
C989 C990 1.414 . S
C989 C992 1.499 . S
C990 H970 0.950 . S
C990 C989 1.414 . S
C990 C991 1.374 . S
C991 H971 0.950 . S
C991 C987 1.385 . S
C991 C990 1.374 . S
C992 C989 1.499 . S
C992 C993 1.373 . S
C992 C994 1.389 . S
C993 H972 0.950 . S
C993 C992 1.373 . S
C993 C1009 1.377 . S
C994 C992 1.389 . S
C994 C995 1.524 . S
C994 C1008 1.377 . S
C995 C994 1.524 . S
C995 C996 1.397 . S
C995 C1000 1.363 . S
C996 H973 0.950 . S
C996 C995 1.397 . S
C996 C997 1.334 . S
C997 H974 0.950 . S
C997 C996 1.334 . S
C997 C998 1.287 . S
C998 C997 1.287 . S
C998 C999 1.524 . S
C998 H1017 0.913 . S
C999 H975 0.950 . S
C999 C998 1.524 . S
C999 C1000 1.415 . S
C1000 H976 0.950 . S
C1000 C995 1.363 . S
C1000 C999 1.415 . S
C1001 H977 0.951 . S
C1001 C1002 1.366 . S
C1001 C1003 1.388 . S
C1002 C1001 1.366 . S
C1002 C1006 1.385 . S
C1003 H978 0.951 . S
C1003 C1001 1.388 . S
C1003 C1004 1.366 . S
C1004 C1003 1.366 . S
C1004 C1005 1.414 . S
C1004 C1007 1.499 . S
C1005 H979 0.950 . S
C1005 C1004 1.414 . S
C1005 C1006 1.374 . S
C1006 H980 0.950 . S
C1006 C1002 1.385 . S
C1006 C1005 1.374 . S
C1007 C1004 1.499 . S
C1007 C1008 1.373 . S
C1007 C1009 1.389 . S
C1008 H981 0.950 . S
C1008 C994 1.377 . S
C1008 C1007 1.373 . S
C1009 C993 1.377 . S
C1009 C1007 1.389 . S
C1009 C1010 1.524 . S
C1010 C1009 1.524 . S
C1010 C1011 1.397 . S
C1010 C1015 1.363 . S
C1011 H982 0.950 . S
C1011 C1010 1.397 . S
C1011 C1012 1.334 . S
C1012 H983 0.950 . S
C1012 C1011 1.334 . S
C1012 C1013 1.287 . S
C1013 C1012 1.287 . S
C1013 C1014 1.524 . S
C1013 H1016 0.999 . S
C1014 H984 0.950 . S
C1014 C1013 1.524 . S
C1014 C1015 1.415 . S
C1015 H985 0.950 . S
C1015 C1010 1.363 . S
C1015 C1014 1.415 . S
H1016 C1013 0.999 . S
H1017 C998 0.913 . S
H1018 C1036 0.951 . S
H1019 C1038 0.951 . S
H1020 C1040 0.950 . S
H1021 C1041 0.950 . S
H1022 C1043 0.950 . S
H1023 C1046 0.950 . S
H1024 C1047 0.950 . S
H1025 C1049 0.950 . S
H1026 C1050 0.950 . S
H1027 C1051 0.951 . S
H1028 C1053 0.951 . S
H1029 C1055 0.950 . S
H1030 C1056 0.950 . S
H1031 C1058 0.950 . S
H1032 C1061 0.950 . S
H1033 C1062 0.950 . S
H1034 C1064 0.950 . S
H1035 C1065 0.950 . S
C1036 H1018 0.951 . S
C1036 C1037 1.366 . S
C1036 C1038 1.388 . S
C1037 C1036 1.366 . S
C1037 C1041 1.385 . S
C1038 H1019 0.951 . S
C1038 C1036 1.388 . S
C1038 C1039 1.366 . S
C1039 C1038 1.366 . S
C1039 C1040 1.414 . S
C1039 C1042 1.499 . S
C1040 H1020 0.950 . S
C1040 C1039 1.414 . S
C1040 C1041 1.374 . S
C1041 H1021 0.950 . S
C1041 C1037 1.385 . S
C1041 C1040 1.374 . S
C1042 C1039 1.499 . S
C1042 C1043 1.373 . S
C1042 C1044 1.389 . S
C1043 H1022 0.950 . S
C1043 C1042 1.373 . S
C1043 C1059 1.377 . S
C1044 C1042 1.389 . S
C1044 C1045 1.524 . S
C1044 C1058 1.377 . S
C1045 C1044 1.524 . S
C1045 C1046 1.397 . S
C1045 C1050 1.363 . S
C1046 H1023 0.950 . S
C1046 C1045 1.397 . S
C1046 C1047 1.334 . S
C1047 H1024 0.950 . S
C1047 C1046 1.334 . S
C1047 C1048 1.287 . S
C1048 C1047 1.287 . S
C1048 C1049 1.524 . S
C1048 H1067 0.913 . S
C1049 H1025 0.950 . S
C1049 C1048 1.524 . S
C1049 C1050 1.415 . S
C1050 H1026 0.950 . S
C1050 C1045 1.363 . S
C1050 C1049 1.415 . S
C1051 H1027 0.951 . S
C1051 C1052 1.366 . S
C1051 C1053 1.388 . S
C1052 C1051 1.366 . S
C1052 C1056 1.385 . S
C1053 H1028 0.951 . S
C1053 C1051 1.388 . S
C1053 C1054 1.366 . S
C1054 C1053 1.366 . S
C1054 C1055 1.414 . S
C1054 C1057 1.499 . S
C1055 H1029 0.950 . S
C1055 C1054 1.414 . S
C1055 C1056 1.374 . S
C1056 H1030 0.950 . S
C1056 C1052 1.385 . S
C1056 C1055 1.374 . S
C1057 C1054 1.499 . S
C1057 C1058 1.373 . S
C1057 C1059 1.389 . S
C1058 H1031 0.950 . S
C1058 C1044 1.377 . S
C1058 C1057 1.373 . S
C1059 C1043 1.377 . S
C1059 C1057 1.389 . S
C1059 C1060 1.524 . S
C1060 C1059 1.524 . S
C1060 C1061 1.397 . S
C1060 C1065 1.363 . S
C1061 H1032 0.950 . S
C1061 C1060 1.397 . S
C1061 C1062 1.334 . S
C1062 H1033 0.950 . S
C1062 C1061 1.334 . S
C1062 C1063 1.287 . S
C1063 C1062 1.287 . S
C1063 C1064 1.524 . S
C1063 H1066 0.999 . S
C1064 H1034 0.950 . S
C1064 C1063 1.524 . S
C1064 C1065 1.415 . S
C1065 H1035 0.950 . S
C1065 C1060 1.363 . S
C1065 C1064 1.415 . S
H1066 C1063 0.999 . S
H1067 C1048 0.913 . S
H1068 C1086 0.951 . S
H1069 C1088 0.951 . S
H1070 C1090 0.950 . S
H1071 C1091 0.950 . S
H1072 C1093 0.950 . S
H1073 C1096 0.950 . S
H1074 C1097 0.950 . S
H1075 C1099 0.950 . S
H1076 C1100 0.950 . S
H1077 C1101 0.951 . S
H1078 C1103 0.951 . S
H1079 C1105 0.950 . S
H1080 C1106 0.950 . S
H1081 C1108 0.950 . S
H1082 C1111 0.950 . S
H1083 C1112 0.950 . S
H1084 C1114 0.950 . S
H1085 C1115 0.950 . S
C1086 H1068 0.951 . S
C1086 C1087 1.366 . S
C1086 C1088 1.388 . S
C1087 C1086 1.366 . S
C1087 C1091 1.385 . S
C1088 H1069 0.951 . S
C1088 C1086 1.388 . S
C1088 C1089 1.366 . S
C1089 C1088 1.366 . S
C1089 C1090 1.414 . S
C1089 C1092 1.499 . S
C1090 H1070 0.950 . S
C1090 C1089 1.414 . S
C1090 C1091 1.374 . S
C1091 H1071 0.950 . S
C1091 C1087 1.385 . S
C1091 C1090 1.374 . S
C1092 C1089 1.499 . S
C1092 C1093 1.373 . S
C1092 C1094 1.389 . S
C1093 H1072 0.950 . S
C1093 C1092 1.373 . S
C1093 C1109 1.377 . S
C1094 C1092 1.389 . S
C1094 C1095 1.524 . S
C1094 C1108 1.377 . S
C1095 C1094 1.524 . S
C1095 C1096 1.397 . S
C1095 C1100 1.363 . S
C1096 H1073 0.950 . S
C1096 C1095 1.397 . S
C1096 C1097 1.334 . S
C1097 H1074 0.950 . S
C1097 C1096 1.334 . S
C1097 C1098 1.287 . S
C1098 C1097 1.287 . S
C1098 C1099 1.524 . S
C1098 H1117 0.913 . S
C1099 H1075 0.950 . S
C1099 C1098 1.524 . S
C1099 C1100 1.415 . S
C1100 H1076 0.950 . S
C1100 C1095 1.363 . S
C1100 C1099 1.415 . S
C1101 H1077 0.951 . S
C1101 C1102 1.366 . S
C1101 C1103 1.388 . S
C1102 C1101 1.366 . S
C1102 C1106 1.385 . S
C1103 H1078 0.951 . S
C1103 C1101 1.388 . S
C1103 C1104 1.366 . S
C1104 C1103 1.366 . S
C1104 C1105 1.414 . S
C1104 C1107 1.499 . S
C1105 H1079 0.950 . S
C1105 C1104 1.414 . S
C1105 C1106 1.374 . S
C1106 H1080 0.950 . S
C1106 C1102 1.385 . S
C1106 C1105 1.374 . S
C1107 C1104 1.499 . S
C1107 C1108 1.373 . S
C1107 C1109 1.389 . S
C1108 H1081 0.950 . S
C1108 C1094 1.377 . S
C1108 C1107 1.373 . S
C1109 C1093 1.377 . S
C1109 C1107 1.389 . S
C1109 C1110 1.524 . S
C1110 C1109 1.524 . S
C1110 C1111 1.397 . S
C1110 C1115 1.363 . S
C1111 H1082 0.950 . S
C1111 C1110 1.397 . S
C1111 C1112 1.334 . S
C1112 H1083 0.950 . S
C1112 C1111 1.334 . S
C1112 C1113 1.287 . S
C1113 C1112 1.287 . S
C1113 C1114 1.524 . S
C1113 H1116 0.999 . S
C1114 H1084 0.950 . S
C1114 C1113 1.524 . S
C1114 C1115 1.415 . S
C1115 H1085 0.950 . S
C1115 C1110 1.363 . S
C1115 C1114 1.415 . S
H1116 C1113 0.999 . S
H1117 C1098 0.913 . S
H1118 C1136 0.951 . S
H1119 C1138 0.951 . S
H1120 C1140 0.950 . S
H1121 C1141 0.950 . S
H1122 C1143 0.950 . S
H1123 C1146 0.950 . S
H1124 C1147 0.950 . S
H1125 C1149 0.950 . S
H1126 C1150 0.950 . S
H1127 C1151 0.951 . S
H1128 C1153 0.951 . S
H1129 C1155 0.950 . S
H1130 C1156 0.950 . S
H1131 C1158 0.950 . S
H1132 C1161 0.950 . S
H1133 C1162 0.950 . S
H1134 C1164 0.950 . S
H1135 C1165 0.950 . S
C1136 H1118 0.951 . S
C1136 C1137 1.366 . S
C1136 C1138 1.388 . S
C1137 C1136 1.366 . S
C1137 C1141 1.385 . S
C1138 H1119 0.951 . S
C1138 C1136 1.388 . S
C1138 C1139 1.366 . S
C1139 C1138 1.366 . S
C1139 C1140 1.414 . S
C1139 C1142 1.499 . S
C1140 H1120 0.950 . S
C1140 C1139 1.414 . S
C1140 C1141 1.374 . S
C1141 H1121 0.950 . S
C1141 C1137 1.385 . S
C1141 C1140 1.374 . S
C1142 C1139 1.499 . S
C1142 C1143 1.373 . S
C1142 C1144 1.389 . S
C1143 H1122 0.950 . S
C1143 C1142 1.373 . S
C1143 C1159 1.377 . S
C1144 C1142 1.389 . S
C1144 C1145 1.524 . S
C1144 C1158 1.377 . S
C1145 C1144 1.524 . S
C1145 C1146 1.397 . S
C1145 C1150 1.363 . S
C1146 H1123 0.950 . S
C1146 C1145 1.397 . S
C1146 C1147 1.334 . S
C1147 H1124 0.950 . S
C1147 C1146 1.334 . S
C1147 C1148 1.287 . S
C1148 C1147 1.287 . S
C1148 C1149 1.524 . S
C1148 H1167 0.913 . S
C1149 H1125 0.950 . S
C1149 C1148 1.524 . S
C1149 C1150 1.415 . S
C1150 H1126 0.950 . S
C1150 C1145 1.363 . S
C1150 C1149 1.415 . S
C1151 H1127 0.951 . S
C1151 C1152 1.366 . S
C1151 C1153 1.388 . S
C1152 C1151 1.366 . S
C1152 C1156 1.385 . S
C1153 H1128 0.951 . S
C1153 C1151 1.388 . S
C1153 C1154 1.366 . S
C1154 C1153 1.366 . S
C1154 C1155 1.414 . S
C1154 C1157 1.499 . S
C1155 H1129 0.950 . S
C1155 C1154 1.414 . S
C1155 C1156 1.374 . S
C1156 H1130 0.950 . S
C1156 C1152 1.385 . S
C1156 C1155 1.374 . S
C1157 C1154 1.499 . S
C1157 C1158 1.373 . S
C1157 C1159 1.389 . S
C1158 H1131 0.950 . S
C1158 C1144 1.377 . S
C1158 C1157 1.373 . S
C1159 C1143 1.377 . S
C1159 C1157 1.389 . S
C1159 C1160 1.524 . S
C1160 C1159 1.524 . S
C1160 C1161 1.397 . S
C1160 C1165 1.363 . S
C1161 H1132 0.950 . S
C1161 C1160 1.397 . S
C1161 C1162 1.334 . S
C1162 H1133 0.950 . S
C1162 C1161 1.334 . S
C1162 C1163 1.287 . S
C1163 C1162 1.287 . S
C1163 C1164 1.524 . S
C1163 H1166 0.999 . S
C1164 H1134 0.950 . S
C1164 C1163 1.524 . S
C1164 C1165 1.415 . S
C1165 H1135 0.950 . S
C1165 C1160 1.363 . S
C1165 C1164 1.415 . S
H1166 C1163 0.999 . S
H1167 C1148 0.913 . S
H1168 C1186 0.951 . S
H1169 C1188 0.951 . S
H1170 C1190 0.950 . S
H1171 C1191 0.950 . S
H1172 C1193 0.950 . S
H1173 C1196 0.950 . S
H1174 C1197 0.950 . S
H1175 C1199 0.950 . S
H1176 C1200 0.950 . S
H1177 C1201 0.951 . S
H1178 C1203 0.951 . S
H1179 C1205 0.950 . S
H1180 C1206 0.950 . S
H1181 C1208 0.950 . S
H1182 C1211 0.950 . S
H1183 C1212 0.950 . S
H1184 C1214 0.950 . S
H1185 C1215 0.950 . S
C1186 H1168 0.951 . S
C1186 C1187 1.366 . S
C1186 C1188 1.388 . S
C1187 C1186 1.366 . S
C1187 C1191 1.385 . S
C1188 H1169 0.951 . S
C1188 C1186 1.388 . S
C1188 C1189 1.366 . S
C1189 C1188 1.366 . S
C1189 C1190 1.414 . S
C1189 C1192 1.499 . S
C1190 H1170 0.950 . S
C1190 C1189 1.414 . S
C1190 C1191 1.374 . S
C1191 H1171 0.950 . S
C1191 C1187 1.385 . S
C1191 C1190 1.374 . S
C1192 C1189 1.499 . S
C1192 C1193 1.373 . S
C1192 C1194 1.389 . S
C1193 H1172 0.950 . S
C1193 C1192 1.373 . S
C1193 C1209 1.377 . S
C1194 C1192 1.389 . S
C1194 C1195 1.524 . S
C1194 C1208 1.377 . S
C1195 C1194 1.524 . S
C1195 C1196 1.397 . S
C1195 C1200 1.363 . S
C1196 H1173 0.950 . S
C1196 C1195 1.397 . S
C1196 C1197 1.334 . S
C1197 H1174 0.950 . S
C1197 C1196 1.334 . S
C1197 C1198 1.287 . S
C1198 C1197 1.287 . S
C1198 C1199 1.524 . S
C1198 H1217 0.913 . S
C1199 H1175 0.950 . S
C1199 C1198 1.524 . S
C1199 C1200 1.415 . S
C1200 H1176 0.950 . S
C1200 C1195 1.363 . S
C1200 C1199 1.415 . S
C1201 H1177 0.951 . S
C1201 C1202 1.366 . S
C1201 C1203 1.388 . S
C1202 C1201 1.366 . S
C1202 C1206 1.385 . S
C1203 H1178 0.951 . S
C1203 C1201 1.388 . S
C1203 C1204 1.366 . S
C1204 C1203 1.366 . S
C1204 C1205 1.414 . S
C1204 C1207 1.499 . S
C1205 H1179 0.950 . S
C1205 C1204 1.414 . S
C1205 C1206 1.374 . S
C1206 H1180 0.950 . S
C1206 C1202 1.385 . S
C1206 C1205 1.374 . S
C1207 C1204 1.499 . S
C1207 C1208 1.373 . S
C1207 C1209 1.389 . S
C1208 H1181 0.950 . S
C1208 C1194 1.377 . S
C1208 C1207 1.373 . S
C1209 C1193 1.377 . S
C1209 C1207 1.389 . S
C1209 C1210 1.524 . S
C1210 C1209 1.524 . S
C1210 C1211 1.397 . S
C1210 C1215 1.363 . S
C1211 H1182 0.950 . S
C1211 C1210 1.397 . S
C1211 C1212 1.334 . S
C1212 H1183 0.950 . S
C1212 C1211 1.334 . S
C1212 C1213 1.287 . S
C1213 C1212 1.287 . S
C1213 C1214 1.524 . S
C1213 H1216 0.999 . S
C1214 H1184 0.950 . S
C1214 C1213 1.524 . S
C1214 C1215 1.415 . S
C1215 H1185 0.950 . S
C1215 C1210 1.363 . S
C1215 C1214 1.415 . S
H1216 C1213 0.999 . S
H1217 C1198 0.913 . S
H1218 C1236 0.951 . S
H1219 C1238 0.951 . S
H1220 C1240 0.950 . S
H1221 C1241 0.950 . S
H1222 C1243 0.950 . S
H1223 C1246 0.950 . S
H1224 C1247 0.950 . S
H1225 C1249 0.950 . S
H1226 C1250 0.950 . S
H1227 C1251 0.951 . S
H1228 C1253 0.951 . S
H1229 C1255 0.950 . S
H1230 C1256 0.950 . S
H1231 C1258 0.950 . S
H1232 C1261 0.950 . S
H1233 C1262 0.950 . S
H1234 C1264 0.950 . S
H1235 C1265 0.950 . S
C1236 H1218 0.951 . S
C1236 C1237 1.366 . S
C1236 C1238 1.388 . S
C1237 C1236 1.366 . S
C1237 C1241 1.385 . S
C1238 H1219 0.951 . S
C1238 C1236 1.388 . S
C1238 C1239 1.366 . S
C1239 C1238 1.366 . S
C1239 C1240 1.414 . S
C1239 C1242 1.499 . S
C1240 H1220 0.950 . S
C1240 C1239 1.414 . S
C1240 C1241 1.374 . S
C1241 H1221 0.950 . S
C1241 C1237 1.385 . S
C1241 C1240 1.374 . S
C1242 C1239 1.499 . S
C1242 C1243 1.373 . S
C1242 C1244 1.389 . S
C1243 H1222 0.950 . S
C1243 C1242 1.373 . S
C1243 C1259 1.377 . S
C1244 C1242 1.389 . S
C1244 C1245 1.524 . S
C1244 C1258 1.377 . S
C1245 C1244 1.524 . S
C1245 C1246 1.397 . S
C1245 C1250 1.363 . S
C1246 H1223 0.950 . S
C1246 C1245 1.397 . S
C1246 C1247 1.334 . S
C1247 H1224 0.950 . S
C1247 C1246 1.334 . S
C1247 C1248 1.287 . S
C1248 C1247 1.287 . S
C1248 C1249 1.524 . S
C1248 H1267 0.913 . S
C1249 H1225 0.950 . S
C1249 C1248 1.524 . S
C1249 C1250 1.415 . S
C1250 H1226 0.950 . S
C1250 C1245 1.363 . S
C1250 C1249 1.415 . S
C1251 H1227 0.951 . S
C1251 C1252 1.366 . S
C1251 C1253 1.388 . S
C1252 C1251 1.366 . S
C1252 C1256 1.385 . S
C1253 H1228 0.951 . S
C1253 C1251 1.388 . S
C1253 C1254 1.366 . S
C1254 C1253 1.366 . S
C1254 C1255 1.414 . S
C1254 C1257 1.499 . S
C1255 H1229 0.950 . S
C1255 C1254 1.414 . S
C1255 C1256 1.374 . S
C1256 H1230 0.950 . S
C1256 C1252 1.385 . S
C1256 C1255 1.374 . S
C1257 C1254 1.499 . S
C1257 C1258 1.373 . S
C1257 C1259 1.389 . S
C1258 H1231 0.950 . S
C1258 C1244 1.377 . S
C1258 C1257 1.373 . S
C1259 C1243 1.377 . S
C1259 C1257 1.389 . S
C1259 C1260 1.524 . S
C1260 C1259 1.524 . S
C1260 C1261 1.397 . S
C1260 C1265 1.363 . S
C1261 H1232 0.950 . S
C1261 C1260 1.397 . S
C1261 C1262 1.334 . S
C1262 H1233 0.950 . S
C1262 C1261 1.334 . S
C1262 C1263 1.287 . S
C1263 C1262 1.287 . S
C1263 C1264 1.524 . S
C1263 H1266 0.999 1_554 S
C1264 H1234 0.950 . S
C1264 C1263 1.524 . S
C1264 C1265 1.415 . S
C1265 H1235 0.950 . S
C1265 C1260 1.363 . S
C1265 C1264 1.415 . S
H1266 C1263 0.999 1_556 S
H1267 C1248 0.913 . S
H1268 C1286 0.951 . S
H1269 C1288 0.951 . S
H1270 C1290 0.950 . S
H1271 C1291 0.950 . S
H1272 C1293 0.950 . S
H1273 C1296 0.950 . S
H1274 C1297 0.950 . S
H1275 C1299 0.950 . S
H1276 C1300 0.950 . S
H1277 C1301 0.951 . S
H1278 C1303 0.951 . S
H1279 C1305 0.950 . S
H1280 C1306 0.950 . S
H1281 C1308 0.950 . S
H1282 C1311 0.950 . S
H1283 C1312 0.950 . S
H1284 C1314 0.950 . S
H1285 C1315 0.950 . S
C1286 H1268 0.951 . S
C1286 C1287 1.366 . S
C1286 C1288 1.388 . S
C1287 C1286 1.366 . S
C1287 C1291 1.385 . S
C1288 H1269 0.951 . S
C1288 C1286 1.388 . S
C1288 C1289 1.366 . S
C1289 C1288 1.366 . S
C1289 C1290 1.414 . S
C1289 C1292 1.499 . S
C1290 H1270 0.950 . S
C1290 C1289 1.414 . S
C1290 C1291 1.374 . S
C1291 H1271 0.950 . S
C1291 C1287 1.385 . S
C1291 C1290 1.374 . S
C1292 C1289 1.499 . S
C1292 C1293 1.373 . S
C1292 C1294 1.389 . S
C1293 H1272 0.950 . S
C1293 C1292 1.373 . S
C1293 C1309 1.377 . S
C1294 C1292 1.389 . S
C1294 C1295 1.524 . S
C1294 C1308 1.377 . S
C1295 C1294 1.524 . S
C1295 C1296 1.397 . S
C1295 C1300 1.363 . S
C1296 H1273 0.950 . S
C1296 C1295 1.397 . S
C1296 C1297 1.334 . S
C1297 H1274 0.950 . S
C1297 C1296 1.334 . S
C1297 C1298 1.287 . S
C1298 C1297 1.287 . S
C1298 C1299 1.524 . S
C1298 H1317 0.913 . S
C1299 H1275 0.950 . S
C1299 C1298 1.524 . S
C1299 C1300 1.415 . S
C1300 H1276 0.950 . S
C1300 C1295 1.363 . S
C1300 C1299 1.415 . S
C1301 H1277 0.951 . S
C1301 C1302 1.366 . S
C1301 C1303 1.388 . S
C1302 C1301 1.366 . S
C1302 C1306 1.385 . S
C1303 H1278 0.951 . S
C1303 C1301 1.388 . S
C1303 C1304 1.366 . S
C1304 C1303 1.366 . S
C1304 C1305 1.414 . S
C1304 C1307 1.499 . S
C1305 H1279 0.950 . S
C1305 C1304 1.414 . S
C1305 C1306 1.374 . S
C1306 H1280 0.950 . S
C1306 C1302 1.385 . S
C1306 C1305 1.374 . S
C1307 C1304 1.499 . S
C1307 C1308 1.373 . S
C1307 C1309 1.389 . S
C1308 H1281 0.950 . S
C1308 C1294 1.377 . S
C1308 C1307 1.373 . S
C1309 C1293 1.377 . S
C1309 C1307 1.389 . S
C1309 C1310 1.524 . S
C1310 C1309 1.524 . S
C1310 C1311 1.397 . S
C1310 C1315 1.363 . S
C1311 H1282 0.950 . S
C1311 C1310 1.397 . S
C1311 C1312 1.334 . S
C1312 H1283 0.950 . S
C1312 C1311 1.334 . S
C1312 C1313 1.287 . S
C1313 C1312 1.287 . S
C1313 C1314 1.524 . S
C1313 H1316 0.999 . S
C1314 H1284 0.950 . S
C1314 C1313 1.524 . S
C1314 C1315 1.415 . S
C1315 H1285 0.950 . S
C1315 C1310 1.363 . S
C1315 C1314 1.415 . S
H1316 C1313 0.999 . S
H1317 C1298 0.913 . S
H1318 C1336 0.951 . S
H1319 C1338 0.951 . S
H1320 C1340 0.950 . S
H1321 C1341 0.950 . S
H1322 C1343 0.950 . S
H1323 C1346 0.950 . S
H1324 C1347 0.950 . S
H1325 C1349 0.950 . S
H1326 C1350 0.950 . S
H1327 C1351 0.951 . S
H1328 C1353 0.951 . S
H1329 C1355 0.950 . S
H1330 C1356 0.950 . S
H1331 C1358 0.950 . S
H1332 C1361 0.950 . S
H1333 C1362 0.950 . S
H1334 C1364 0.950 . S
H1335 C1365 0.950 . S
C1336 H1318 0.951 . S
C1336 C1337 1.366 . S
C1336 C1338 1.388 . S
C1337 C1336 1.366 . S
C1337 C1341 1.385 . S
C1338 H1319 0.951 . S
C1338 C1336 1.388 . S
C1338 C1339 1.366 . S
C1339 C1338 1.366 . S
C1339 C1340 1.414 . S
C1339 C1342 1.499 . S
C1340 H1320 0.950 . S
C1340 C1339 1.414 . S
C1340 C1341 1.374 . S
C1341 H1321 0.950 . S
C1341 C1337 1.385 . S
C1341 C1340 1.374 . S
C1342 C1339 1.499 . S
C1342 C1343 1.373 . S
C1342 C1344 1.389 . S
C1343 H1322 0.950 . S
C1343 C1342 1.373 . S
C1343 C1359 1.377 . S
C1344 C1342 1.389 . S
C1344 C1345 1.524 . S
C1344 C1358 1.377 . S
C1345 C1344 1.524 . S
C1345 C1346 1.397 . S
C1345 C1350 1.363 . S
C1346 H1323 0.950 . S
C1346 C1345 1.397 . S
C1346 C1347 1.334 . S
C1347 H1324 0.950 . S
C1347 C1346 1.334 . S
C1347 C1348 1.287 . S
C1348 C1347 1.287 . S
C1348 C1349 1.524 . S
C1348 H1367 0.913 . S
C1349 H1325 0.950 . S
C1349 C1348 1.524 . S
C1349 C1350 1.415 . S
C1350 H1326 0.950 . S
C1350 C1345 1.363 . S
C1350 C1349 1.415 . S
C1351 H1327 0.951 . S
C1351 C1352 1.366 . S
C1351 C1353 1.388 . S
C1352 C1351 1.366 . S
C1352 C1356 1.385 . S
C1353 H1328 0.951 . S
C1353 C1351 1.388 . S
C1353 C1354 1.366 . S
C1354 C1353 1.366 . S
C1354 C1355 1.414 . S
C1354 C1357 1.499 . S
C1355 H1329 0.950 . S
C1355 C1354 1.414 . S
C1355 C1356 1.374 . S
C1356 H1330 0.950 . S
C1356 C1352 1.385 . S
C1356 C1355 1.374 . S
C1357 C1354 1.499 . S
C1357 C1358 1.373 . S
C1357 C1359 1.389 . S
C1358 H1331 0.950 . S
C1358 C1344 1.377 . S
C1358 C1357 1.373 . S
C1359 C1343 1.377 . S
C1359 C1357 1.389 . S
C1359 C1360 1.524 . S
C1360 C1359 1.524 . S
C1360 C1361 1.397 . S
C1360 C1365 1.363 . S
C1361 H1332 0.950 . S
C1361 C1360 1.397 . S
C1361 C1362 1.334 . S
C1362 H1333 0.950 . S
C1362 C1361 1.334 . S
C1362 C1363 1.287 . S
C1363 C1362 1.287 . S
C1363 C1364 1.524 . S
C1363 H1366 0.999 . S
C1364 H1334 0.950 . S
C1364 C1363 1.524 . S
C1364 C1365 1.415 . S
C1365 H1335 0.950 . S
C1365 C1360 1.363 . S
C1365 C1364 1.415 . S
H1366 C1363 0.999 . S
H1367 C1348 0.913 . S
H1368 C1386 0.951 . S
H1369 C1388 0.951 . S
H1370 C1390 0.950 . S
H1371 C1391 0.950 . S
H1372 C1393 0.950 . S
H1373 C1396 0.950 . S
H1374 C1397 0.950 . S
H1375 C1399 0.950 . S
H1376 C1400 0.950 . S
H1377 C1401 0.951 . S
H1378 C1403 0.951 . S
H1379 C1405 0.950 . S
H1380 C1406 0.950 . S
H1381 C1408 0.950 . S
H1382 C1411 0.950 . S
H1383 C1412 0.950 . S
H1384 C1414 0.950 . S
H1385 C1415 0.950 . S
C1386 H1368 0.951 . S
C1386 C1387 1.366 . S
C1386 C1388 1.388 . S
C1387 C1386 1.366 . S
C1387 C1391 1.385 . S
C1388 H1369 0.951 . S
C1388 C1386 1.388 . S
C1388 C1389 1.366 . S
C1389 C1388 1.366 . S
C1389 C1390 1.414 . S
C1389 C1392 1.499 . S
C1390 H1370 0.950 . S
C1390 C1389 1.414 . S
C1390 C1391 1.374 . S
C1391 H1371 0.950 . S
C1391 C1387 1.385 . S
C1391 C1390 1.374 . S
C1392 C1389 1.499 . S
C1392 C1393 1.373 . S
C1392 C1394 1.389 . S
C1393 H1372 0.950 . S
C1393 C1392 1.373 . S
C1393 C1409 1.377 . S
C1394 C1392 1.389 . S
C1394 C1395 1.524 . S
C1394 C1408 1.377 . S
C1395 C1394 1.524 . S
C1395 C1396 1.397 . S
C1395 C1400 1.363 . S
C1396 H1373 0.950 . S
C1396 C1395 1.397 . S
C1396 C1397 1.334 . S
C1397 H1374 0.950 . S
C1397 C1396 1.334 . S
C1397 C1398 1.287 . S
C1398 C1397 1.287 . S
C1398 C1399 1.524 . S
C1398 H1417 0.913 . S
C1399 H1375 0.950 . S
C1399 C1398 1.524 . S
C1399 C1400 1.415 . S
C1400 H1376 0.950 . S
C1400 C1395 1.363 . S
C1400 C1399 1.415 . S
C1401 H1377 0.951 . S
C1401 C1402 1.366 . S
C1401 C1403 1.388 . S
C1402 C1401 1.366 . S
C1402 C1406 1.385 . S
C1403 H1378 0.951 . S
C1403 C1401 1.388 . S
C1403 C1404 1.366 . S
C1404 C1403 1.366 . S
C1404 C1405 1.414 . S
C1404 C1407 1.499 . S
C1405 H1379 0.950 . S
C1405 C1404 1.414 . S
C1405 C1406 1.374 . S
C1406 H1380 0.950 . S
C1406 C1402 1.385 . S
C1406 C1405 1.374 . S
C1407 C1404 1.499 . S
C1407 C1408 1.373 . S
C1407 C1409 1.389 . S
C1408 H1381 0.950 . S
C1408 C1394 1.377 . S
C1408 C1407 1.373 . S
C1409 C1393 1.377 . S
C1409 C1407 1.389 . S
C1409 C1410 1.524 . S
C1410 C1409 1.524 . S
C1410 C1411 1.397 . S
C1410 C1415 1.363 . S
C1411 H1382 0.950 . S
C1411 C1410 1.397 . S
C1411 C1412 1.334 . S
C1412 H1383 0.950 . S
C1412 C1411 1.334 . S
C1412 C1413 1.287 . S
C1413 C1412 1.287 . S
C1413 C1414 1.524 . S
C1413 H1416 0.999 . S
C1414 H1384 0.950 . S
C1414 C1413 1.524 . S
C1414 C1415 1.415 . S
C1415 H1385 0.950 . S
C1415 C1410 1.363 . S
C1415 C1414 1.415 . S
H1416 C1413 0.999 . S
H1417 C1398 0.913 . S
H1418 C1436 0.951 . S
H1419 C1438 0.951 . S
H1420 C1440 0.950 . S
H1421 C1441 0.950 . S
H1422 C1443 0.950 . S
H1423 C1446 0.950 . S
H1424 C1447 0.950 . S
H1425 C1449 0.950 . S
H1426 C1450 0.950 . S
H1427 C1451 0.951 . S
H1428 C1453 0.951 . S
H1429 C1455 0.950 . S
H1430 C1456 0.950 . S
H1431 C1458 0.950 . S
H1432 C1461 0.950 . S
H1433 C1462 0.950 . S
H1434 C1464 0.950 . S
H1435 C1465 0.950 . S
C1436 H1418 0.951 . S
C1436 C1437 1.366 . S
C1436 C1438 1.388 . S
C1437 C1436 1.366 . S
C1437 C1441 1.385 . S
C1438 H1419 0.951 . S
C1438 C1436 1.388 . S
C1438 C1439 1.366 . S
C1439 C1438 1.366 . S
C1439 C1440 1.414 . S
C1439 C1442 1.499 . S
C1440 H1420 0.950 . S
C1440 C1439 1.414 . S
C1440 C1441 1.374 . S
C1441 H1421 0.950 . S
C1441 C1437 1.385 . S
C1441 C1440 1.374 . S
C1442 C1439 1.499 . S
C1442 C1443 1.373 . S
C1442 C1444 1.389 . S
C1443 H1422 0.950 . S
C1443 C1442 1.373 . S
C1443 C1459 1.377 . S
C1444 C1442 1.389 . S
C1444 C1445 1.524 . S
C1444 C1458 1.377 . S
C1445 C1444 1.524 . S
C1445 C1446 1.397 . S
C1445 C1450 1.363 . S
C1446 H1423 0.950 . S
C1446 C1445 1.397 . S
C1446 C1447 1.334 . S
C1447 H1424 0.950 . S
C1447 C1446 1.334 . S
C1447 C1448 1.287 . S
C1448 C1447 1.287 . S
C1448 C1449 1.524 . S
C1448 H1467 0.913 . S
C1449 H1425 0.950 . S
C1449 C1448 1.524 . S
C1449 C1450 1.415 . S
C1450 H1426 0.950 . S
C1450 C1445 1.363 . S
C1450 C1449 1.415 . S
C1451 H1427 0.951 . S
C1451 C1452 1.366 . S
C1451 C1453 1.388 . S
C1452 C1451 1.366 . S
C1452 C1456 1.385 . S
C1453 H1428 0.951 . S
C1453 C1451 1.388 . S
C1453 C1454 1.366 . S
C1454 C1453 1.366 . S
C1454 C1455 1.414 . S
C1454 C1457 1.499 . S
C1455 H1429 0.950 . S
C1455 C1454 1.414 . S
C1455 C1456 1.374 . S
C1456 H1430 0.950 . S
C1456 C1452 1.385 . S
C1456 C1455 1.374 . S
C1457 C1454 1.499 . S
C1457 C1458 1.373 . S
C1457 C1459 1.389 . S
C1458 H1431 0.950 . S
C1458 C1444 1.377 . S
C1458 C1457 1.373 . S
C1459 C1443 1.377 . S
C1459 C1457 1.389 . S
C1459 C1460 1.524 . S
C1460 C1459 1.524 . S
C1460 C1461 1.397 . S
C1460 C1465 1.363 . S
C1461 H1432 0.950 . S
C1461 C1460 1.397 . S
C1461 C1462 1.334 . S
C1462 H1433 0.950 . S
C1462 C1461 1.334 . S
C1462 C1463 1.287 . S
C1463 C1462 1.287 . S
C1463 C1464 1.524 . S
C1463 H1466 0.999 . S
C1464 H1434 0.950 . S
C1464 C1463 1.524 . S
C1464 C1465 1.415 . S
C1465 H1435 0.950 . S
C1465 C1460 1.363 . S
C1465 C1464 1.415 . S
H1466 C1463 0.999 . S
H1467 C1448 0.913 . S
H1468 C1486 0.951 . S
H1469 C1488 0.951 . S
H1470 C1490 0.950 . S
H1471 C1491 0.950 . S
H1472 C1493 0.950 . S
H1473 C1496 0.950 . S
H1474 C1497 0.950 . S
H1475 C1499 0.950 . S
H1476 C1500 0.950 . S
H1477 C1501 0.951 . S
H1478 C1503 0.951 . S
H1479 C1505 0.950 . S
H1480 C1506 0.950 . S
H1481 C1508 0.950 . S
H1482 C1511 0.950 . S
H1483 C1512 0.950 . S
H1484 C1514 0.950 . S
H1485 C1515 0.950 . S
C1486 H1468 0.951 . S
C1486 C1487 1.366 . S
C1486 C1488 1.388 . S
C1487 C1486 1.366 . S
C1487 C1491 1.385 . S
C1488 H1469 0.951 . S
C1488 C1486 1.388 . S
C1488 C1489 1.366 . S
C1489 C1488 1.366 . S
C1489 C1490 1.414 . S
C1489 C1492 1.499 . S
C1490 H1470 0.950 . S
C1490 C1489 1.414 . S
C1490 C1491 1.374 . S
C1491 H1471 0.950 . S
C1491 C1487 1.385 . S
C1491 C1490 1.374 . S
C1492 C1489 1.499 . S
C1492 C1493 1.373 . S
C1492 C1494 1.389 . S
C1493 H1472 0.950 . S
C1493 C1492 1.373 . S
C1493 C1509 1.377 . S
C1494 C1492 1.389 . S
C1494 C1495 1.524 . S
C1494 C1508 1.377 . S
C1495 C1494 1.524 . S
C1495 C1496 1.397 . S
C1495 C1500 1.363 . S
C1496 H1473 0.950 . S
C1496 C1495 1.397 . S
C1496 C1497 1.334 . S
C1497 H1474 0.950 . S
C1497 C1496 1.334 . S
C1497 C1498 1.287 . S
C1498 C1497 1.287 . S
C1498 C1499 1.524 . S
C1498 H1517 0.913 . S
C1499 H1475 0.950 . S
C1499 C1498 1.524 . S
C1499 C1500 1.415 . S
C1500 H1476 0.950 . S
C1500 C1495 1.363 . S
C1500 C1499 1.415 . S
C1501 H1477 0.951 . S
C1501 C1502 1.366 . S
C1501 C1503 1.388 . S
C1502 C1501 1.366 . S
C1502 C1506 1.385 . S
C1503 H1478 0.951 . S
C1503 C1501 1.388 . S
C1503 C1504 1.366 . S
C1504 C1503 1.366 . S
C1504 C1505 1.414 . S
C1504 C1507 1.499 . S
C1505 H1479 0.950 . S
C1505 C1504 1.414 . S
C1505 C1506 1.374 . S
C1506 H1480 0.950 . S
C1506 C1502 1.385 . S
C1506 C1505 1.374 . S
C1507 C1504 1.499 . S
C1507 C1508 1.373 . S
C1507 C1509 1.389 . S
C1508 H1481 0.950 . S
C1508 C1494 1.377 . S
C1508 C1507 1.373 . S
C1509 C1493 1.377 . S
C1509 C1507 1.389 . S
C1509 C1510 1.524 . S
C1510 C1509 1.524 . S
C1510 C1511 1.397 . S
C1510 C1515 1.363 . S
C1511 H1482 0.950 . S
C1511 C1510 1.397 . S
C1511 C1512 1.334 . S
C1512 H1483 0.950 . S
C1512 C1511 1.334 . S
C1512 C1513 1.287 . S
C1513 C1512 1.287 . S
C1513 C1514 1.524 . S
C1513 H1516 0.999 . S
C1514 H1484 0.950 . S
C1514 C1513 1.524 . S
C1514 C1515 1.415 . S
C1515 H1485 0.950 . S
C1515 C1510 1.363 . S
C1515 C1514 1.415 . S
H1516 C1513 0.999 . S
H1517 C1498 0.913 . S
H1518 C1536 0.951 . S
H1519 C1538 0.951 . S
H1520 C1540 0.950 . S
H1521 C1541 0.950 . S
H1522 C1543 0.950 . S
H1523 C1546 0.950 . S
H1524 C1547 0.950 . S
H1525 C1549 0.950 . S
H1526 C1550 0.950 . S
H1527 C1551 0.951 . S
H1528 C1553 0.951 1_556 S
H1529 C1555 0.950 . S
H1530 C1556 0.950 . S
H1531 C1558 0.950 . S
H1532 C1561 0.950 1_554 S
H1533 C1562 0.975 . S
H1534 C1564 0.950 . S
H1535 C1565 0.950 . S
C1536 H1518 0.951 . S
C1536 C1537 1.366 . S
C1536 C1538 1.388 . S
C1537 C1536 1.366 . S
C1537 C1541 1.385 . S
C1538 H1519 0.951 . S
C1538 C1536 1.388 . S
C1538 C1539 1.366 . S
C1539 C1538 1.366 . S
C1539 C1540 1.414 . S
C1539 C1542 1.499 . S
C1540 H1520 0.950 . S
C1540 C1539 1.414 . S
C1540 C1541 1.374 . S
C1541 H1521 0.950 . S
C1541 C1537 1.385 . S
C1541 C1540 1.374 . S
C1542 C1539 1.499 . S
C1542 C1543 1.373 . S
C1542 C1544 1.389 . S
C1543 H1522 0.950 . S
C1543 C1542 1.373 . S
C1543 C1559 1.377 . S
C1544 C1542 1.389 . S
C1544 C1545 1.524 . S
C1544 C1558 1.377 . S
C1545 C1544 1.524 . S
C1545 C1546 1.397 . S
C1545 C1550 1.363 . S
C1546 H1523 0.950 . S
C1546 C1545 1.397 . S
C1546 C1547 1.334 . S
C1547 H1524 0.950 . S
C1547 C1546 1.334 . S
C1547 C1548 1.287 . S
C1548 C1547 1.287 . S
C1548 C1549 1.524 . S
C1548 H1567 0.913 . S
C1549 H1525 0.950 . S
C1549 C1548 1.524 . S
C1549 C1550 1.415 . S
C1550 H1526 0.950 . S
C1550 C1545 1.363 . S
C1550 C1549 1.415 . S
C1551 H1527 0.951 . S
C1551 C1552 1.366 . S
C1551 C1553 1.388 . S
C1552 C1551 1.366 . S
C1552 C1556 1.385 . S
C1553 H1528 0.951 1_554 S
C1553 C1551 1.388 . S
C1553 C1554 1.366 . S
C1554 C1553 1.366 . S
C1554 C1555 1.414 . S
C1554 C1557 1.499 1_554 S
C1555 H1529 0.950 . S
C1555 C1554 1.414 . S
C1555 C1556 1.374 . S
C1556 H1530 0.950 . S
C1556 C1552 1.385 . S
C1556 C1555 1.374 . S
C1557 C1554 1.499 1_556 S
C1557 C1558 1.373 . S
C1557 C1559 1.389 . S
C1558 H1531 0.950 . S
C1558 C1544 1.377 . S
C1558 C1557 1.373 . S
C1559 C1543 1.377 . S
C1559 C1557 1.389 . S
C1559 C1560 1.524 . S
C1560 C1559 1.524 . S
C1560 C1561 1.397 . S
C1560 C1565 1.363 . S
C1561 H1532 0.950 1_556 S
C1561 C1560 1.397 . S
C1561 C1562 1.329 1_556 S
C1562 H1533 0.975 . S
C1562 C1561 1.329 1_554 S
C1562 C1563 1.267 1_554 S
C1563 C1562 1.267 1_556 S
C1563 C1564 1.524 . S
C1563 H1566 0.999 . S
C1564 H1534 0.950 . S
C1564 C1563 1.524 . S
C1564 C1565 1.415 . S
C1565 H1535 0.950 . S
C1565 C1560 1.363 . S
C1565 C1564 1.415 . S
H1566 C1563 0.999 . S
H1567 C1548 0.913 . S
H1568 C1586 0.951 . S
H1569 C1588 0.951 . S
H1570 C1590 0.950 . S
H1571 C1591 0.950 . S
H1572 C1593 0.950 . S
H1573 C1596 0.950 . S
H1574 C1597 0.950 . S
H1575 C1599 0.950 . S
H1576 C1600 0.950 . S
H1577 C1601 0.951 . S
H1578 C1603 0.951 . S
H1579 C1605 0.950 . S
H1580 C1606 0.950 . S
H1581 C1608 0.950 . S
H1582 C1611 0.950 . S
H1583 C1612 0.950 . S
H1584 C1614 0.950 . S
H1585 C1615 0.950 . S
C1586 H1568 0.951 . S
C1586 C1587 1.366 . S
C1586 C1588 1.388 . S
C1587 C1586 1.366 . S
C1587 C1591 1.385 . S
C1588 H1569 0.951 . S
C1588 C1586 1.388 . S
C1588 C1589 1.366 . S
C1589 C1588 1.366 . S
C1589 C1590 1.414 . S
C1589 C1592 1.499 . S
C1590 H1570 0.950 . S
C1590 C1589 1.414 . S
C1590 C1591 1.374 . S
C1591 H1571 0.950 . S
C1591 C1587 1.385 . S
C1591 C1590 1.374 . S
C1592 C1589 1.499 . S
C1592 C1593 1.373 . S
C1592 C1594 1.389 . S
C1593 H1572 0.950 . S
C1593 C1592 1.373 . S
C1593 C1609 1.377 . S
C1594 C1592 1.389 . S
C1594 C1595 1.524 . S
C1594 C1608 1.377 . S
C1595 C1594 1.524 . S
C1595 C1596 1.397 . S
C1595 C1600 1.363 . S
C1596 H1573 0.950 . S
C1596 C1595 1.397 . S
C1596 C1597 1.334 . S
C1597 H1574 0.950 . S
C1597 C1596 1.334 . S
C1597 C1598 1.287 . S
C1598 C1597 1.287 . S
C1598 C1599 1.524 . S
C1598 H1617 0.913 . S
C1599 H1575 0.950 . S
C1599 C1598 1.524 . S
C1599 C1600 1.415 . S
C1600 H1576 0.950 . S
C1600 C1595 1.363 . S
C1600 C1599 1.415 . S
C1601 H1577 0.951 . S
C1601 C1602 1.366 . S
C1601 C1603 1.388 . S
C1602 C1601 1.366 . S
C1602 C1606 1.385 . S
C1603 H1578 0.951 . S
C1603 C1601 1.388 . S
C1603 C1604 1.366 . S
C1604 C1603 1.366 . S
C1604 C1605 1.414 . S
C1604 C1607 1.499 . S
C1605 H1579 0.950 . S
C1605 C1604 1.414 . S
C1605 C1606 1.374 . S
C1606 H1580 0.950 . S
C1606 C1602 1.385 . S
C1606 C1605 1.374 . S
C1607 C1604 1.499 . S
C1607 C1608 1.373 . S
C1607 C1609 1.389 . S
C1608 H1581 0.950 . S
C1608 C1594 1.377 . S
C1608 C1607 1.373 . S
C1609 C1593 1.377 . S
C1609 C1607 1.389 . S
C1609 C1610 1.524 . S
C1610 C1609 1.524 . S
C1610 C1611 1.397 . S
C1610 C1615 1.363 . S
C1611 H1582 0.950 . S
C1611 C1610 1.397 . S
C1611 C1612 1.334 . S
C1612 H1583 0.950 . S
C1612 C1611 1.334 . S
C1612 C1613 1.287 . S
C1613 C1612 1.287 . S
C1613 C1614 1.524 . S
C1613 H1616 0.999 . S
C1614 H1584 0.950 . S
C1614 C1613 1.524 . S
C1614 C1615 1.415 . S
C1615 H1585 0.950 . S
C1615 C1610 1.363 . S
C1615 C1614 1.415 . S
H1616 C1613 0.999 . S
H1617 C1598 0.913 . S
H1618 C1636 0.951 . S
H1619 C1638 0.951 . S
H1620 C1640 0.950 . S
H1621 C1641 0.950 . S
H1622 C1643 0.950 . S
H1623 C1646 0.950 . S
H1624 C1647 0.950 . S
H1625 C1649 0.950 . S
H1626 C1650 0.950 . S
H1627 C1651 0.951 . S
H1628 C1653 0.951 . S
H1629 C1655 0.950 . S
H1630 C1656 0.950 . S
H1631 C1658 0.950 . S
H1632 C1661 0.950 . S
H1633 C1662 0.950 . S
H1634 C1664 0.950 . S
H1635 C1665 0.950 . S
C1636 H1618 0.951 . S
C1636 C1637 1.366 . S
C1636 C1638 1.388 . S
C1637 C1636 1.366 . S
C1637 C1641 1.385 . S
C1638 H1619 0.951 . S
C1638 C1636 1.388 . S
C1638 C1639 1.366 . S
C1639 C1638 1.366 . S
C1639 C1640 1.414 . S
C1639 C1642 1.499 . S
C1640 H1620 0.950 . S
C1640 C1639 1.414 . S
C1640 C1641 1.374 . S
C1641 H1621 0.950 . S
C1641 C1637 1.385 . S
C1641 C1640 1.374 . S
C1642 C1639 1.499 . S
C1642 C1643 1.373 . S
C1642 C1644 1.389 . S
C1643 H1622 0.950 . S
C1643 C1642 1.373 . S
C1643 C1659 1.377 . S
C1644 C1642 1.389 . S
C1644 C1645 1.524 . S
C1644 C1658 1.377 . S
C1645 C1644 1.524 . S
C1645 C1646 1.397 . S
C1645 C1650 1.363 . S
C1646 H1623 0.950 . S
C1646 C1645 1.397 . S
C1646 C1647 1.334 . S
C1647 H1624 0.950 . S
C1647 C1646 1.334 . S
C1647 C1648 1.287 . S
C1648 C1647 1.287 . S
C1648 C1649 1.524 . S
C1648 H1667 0.913 . S
C1649 H1625 0.950 . S
C1649 C1648 1.524 . S
C1649 C1650 1.415 . S
C1650 H1626 0.950 . S
C1650 C1645 1.363 . S
C1650 C1649 1.415 . S
C1651 H1627 0.951 . S
C1651 C1652 1.366 . S
C1651 C1653 1.388 . S
C1652 C1651 1.366 . S
C1652 C1656 1.385 . S
C1653 H1628 0.951 . S
C1653 C1651 1.388 . S
C1653 C1654 1.366 . S
C1654 C1653 1.366 . S
C1654 C1655 1.414 . S
C1654 C1657 1.499 . S
C1655 H1629 0.950 . S
C1655 C1654 1.414 . S
C1655 C1656 1.374 . S
C1656 H1630 0.950 . S
C1656 C1652 1.385 . S
C1656 C1655 1.374 . S
C1657 C1654 1.499 . S
C1657 C1658 1.373 . S
C1657 C1659 1.389 . S
C1658 H1631 0.950 . S
C1658 C1644 1.377 . S
C1658 C1657 1.373 . S
C1659 C1643 1.377 . S
C1659 C1657 1.389 . S
C1659 C1660 1.524 . S
C1660 C1659 1.524 . S
C1660 C1661 1.397 . S
C1660 C1665 1.363 . S
C1661 H1632 0.950 . S
C1661 C1660 1.397 . S
C1661 C1662 1.334 . S
C1662 H1633 0.950 . S
C1662 C1661 1.334 . S
C1662 C1663 1.287 . S
C1663 C1662 1.287 . S
C1663 C1664 1.524 . S
C1663 H1666 0.999 . S
C1664 H1634 0.950 . S
C1664 C1663 1.524 . S
C1664 C1665 1.415 . S
C1665 H1635 0.950 . S
C1665 C1660 1.363 . S
C1665 C1664 1.415 . S
H1666 C1663 0.999 . S
H1667 C1648 0.913 . S
H1668 C1686 0.951 . S
H1669 C1688 0.951 . S
H1670 C1690 0.950 . S
H1671 C1691 0.950 . S
H1672 C1693 0.950 . S
H1673 C1696 0.950 . S
H1674 C1697 0.950 . S
H1675 C1699 0.950 . S
H1676 C1700 0.950 . S
H1677 C1701 0.951 . S
H1678 C1703 0.951 . S
H1679 C1705 0.950 . S
H1680 C1706 0.950 . S
H1681 C1708 0.950 . S
H1682 C1711 0.950 . S
H1683 C1712 0.950 . S
H1684 C1714 0.950 . S
H1685 C1715 0.950 . S
C1686 H1668 0.951 . S
C1686 C1687 1.366 . S
C1686 C1688 1.388 . S
C1687 C1686 1.366 . S
C1687 C1691 1.385 . S
C1688 H1669 0.951 . S
C1688 C1686 1.388 . S
C1688 C1689 1.366 . S
C1689 C1688 1.366 . S
C1689 C1690 1.414 . S
C1689 C1692 1.499 . S
C1690 H1670 0.950 . S
C1690 C1689 1.414 . S
C1690 C1691 1.374 . S
C1691 H1671 0.950 . S
C1691 C1687 1.385 . S
C1691 C1690 1.374 . S
C1692 C1689 1.499 . S
C1692 C1693 1.373 . S
C1692 C1694 1.389 . S
C1693 H1672 0.950 . S
C1693 C1692 1.373 . S
C1693 C1709 1.377 . S
C1694 C1692 1.389 . S
C1694 C1695 1.524 . S
C1694 C1708 1.377 . S
C1695 C1694 1.524 . S
C1695 C1696 1.397 . S
C1695 C1700 1.363 . S
C1696 H1673 0.950 . S
C1696 C1695 1.397 . S
C1696 C1697 1.334 . S
C1697 H1674 0.950 . S
C1697 C1696 1.334 . S
C1697 C1698 1.287 . S
C1698 C1697 1.287 . S
C1698 C1699 1.524 . S
C1698 H1717 0.913 . S
C1699 H1675 0.950 . S
C1699 C1698 1.524 . S
C1699 C1700 1.415 . S
C1700 H1676 0.950 . S
C1700 C1695 1.363 . S
C1700 C1699 1.415 . S
C1701 H1677 0.951 . S
C1701 C1702 1.366 . S
C1701 C1703 1.388 . S
C1702 C1701 1.366 . S
C1702 C1706 1.385 . S
C1703 H1678 0.951 . S
C1703 C1701 1.388 . S
C1703 C1704 1.366 . S
C1704 C1703 1.366 . S
C1704 C1705 1.414 . S
C1704 C1707 1.499 . S
C1705 H1679 0.950 . S
C1705 C1704 1.414 . S
C1705 C1706 1.374 . S
C1706 H1680 0.950 . S
C1706 C1702 1.385 . S
C1706 C1705 1.374 . S
C1707 C1704 1.499 . S
C1707 C1708 1.373 . S
C1707 C1709 1.389 . S
C1708 H1681 0.950 . S
C1708 C1694 1.377 . S
C1708 C1707 1.373 . S
C1709 C1693 1.377 . S
C1709 C1707 1.389 . S
C1709 C1710 1.524 . S
C1710 C1709 1.524 . S
C1710 C1711 1.397 . S
C1710 C1715 1.363 . S
C1711 H1682 0.950 . S
C1711 C1710 1.397 . S
C1711 C1712 1.334 . S
C1712 H1683 0.950 . S
C1712 C1711 1.334 . S
C1712 C1713 1.287 . S
C1713 C1712 1.287 . S
C1713 C1714 1.524 . S
C1713 H1716 0.999 . S
C1714 H1684 0.950 . S
C1714 C1713 1.524 . S
C1714 C1715 1.415 . S
C1715 H1685 0.950 . S
C1715 C1710 1.363 . S
C1715 C1714 1.415 . S
H1716 C1713 0.999 . S
H1717 C1698 0.913 . S
H1718 C1736 0.951 . S
H1719 C1738 0.951 . S
H1720 C1740 0.950 . S
H1721 C1741 0.950 . S
H1722 C1743 0.950 . S
H1723 C1746 0.950 . S
H1724 C1747 0.950 . S
H1725 C1749 0.950 . S
H1726 C1750 0.950 . S
H1727 C1751 0.951 . S
H1728 C1753 0.951 . S
H1729 C1755 0.950 . S
H1730 C1756 0.950 . S
H1731 C1758 0.950 . S
H1732 C1761 0.950 . S
H1733 C1762 0.950 . S
H1734 C1764 0.950 . S
H1735 C1765 0.950 . S
C1736 H1718 0.951 . S
C1736 C1737 1.366 . S
C1736 C1738 1.388 . S
C1737 C1736 1.366 . S
C1737 C1741 1.385 . S
C1738 H1719 0.951 . S
C1738 C1736 1.388 . S
C1738 C1739 1.366 . S
C1739 C1738 1.366 . S
C1739 C1740 1.414 . S
C1739 C1742 1.499 . S
C1740 H1720 0.950 . S
C1740 C1739 1.414 . S
C1740 C1741 1.374 . S
C1741 H1721 0.950 . S
C1741 C1737 1.385 . S
C1741 C1740 1.374 . S
C1742 C1739 1.499 . S
C1742 C1743 1.373 . S
C1742 C1744 1.389 . S
C1743 H1722 0.950 . S
C1743 C1742 1.373 . S
C1743 C1759 1.377 . S
C1744 C1742 1.389 . S
C1744 C1745 1.524 . S
C1744 C1758 1.377 . S
C1745 C1744 1.524 . S
C1745 C1746 1.397 . S
C1745 C1750 1.363 . S
C1746 H1723 0.950 . S
C1746 C1745 1.397 . S
C1746 C1747 1.334 . S
C1747 H1724 0.950 . S
C1747 C1746 1.334 . S
C1747 C1748 1.287 . S
C1748 C1747 1.287 . S
C1748 C1749 1.524 . S
C1748 H1767 0.913 . S
C1749 H1725 0.950 . S
C1749 C1748 1.524 . S
C1749 C1750 1.415 . S
C1750 H1726 0.950 . S
C1750 C1745 1.363 . S
C1750 C1749 1.415 . S
C1751 H1727 0.951 . S
C1751 C1752 1.366 . S
C1751 C1753 1.388 . S
C1752 C1751 1.366 . S
C1752 C1756 1.385 . S
C1753 H1728 0.951 . S
C1753 C1751 1.388 . S
C1753 C1754 1.366 . S
C1754 C1753 1.366 . S
C1754 C1755 1.414 . S
C1754 C1757 1.499 . S
C1755 H1729 0.950 . S
C1755 C1754 1.414 . S
C1755 C1756 1.374 . S
C1756 H1730 0.950 . S
C1756 C1752 1.385 . S
C1756 C1755 1.374 . S
C1757 C1754 1.499 . S
C1757 C1758 1.373 . S
C1757 C1759 1.389 . S
C1758 H1731 0.950 . S
C1758 C1744 1.377 . S
C1758 C1757 1.373 . S
C1759 C1743 1.377 . S
C1759 C1757 1.389 . S
C1759 C1760 1.524 . S
C1760 C1759 1.524 . S
C1760 C1761 1.397 . S
C1760 C1765 1.363 . S
C1761 H1732 0.950 . S
C1761 C1760 1.397 . S
C1761 C1762 1.334 . S
C1762 H1733 0.950 . S
C1762 C1761 1.334 . S
C1762 C1763 1.287 . S
C1763 C1762 1.287 . S
C1763 C1764 1.524 . S
C1763 H1766 0.999 . S
C1764 H1734 0.950 . S
C1764 C1763 1.524 . S
C1764 C1765 1.415 . S
C1765 H1735 0.950 . S
C1765 C1760 1.363 . S
C1765 C1764 1.415 . S
H1766 C1763 0.999 . S
H1767 C1748 0.913 . S
H1768 C1786 0.951 . S
H1769 C1788 0.951 . S
H1770 C1790 0.950 . S
H1771 C1791 0.950 . S
H1772 C1793 0.950 . S
H1773 C1796 0.950 . S
H1774 C1797 0.950 . S
H1775 C1799 0.950 . S
H1776 C1800 0.950 . S
H1777 C1801 0.951 . S
H1778 C1803 0.951 . S
H1779 C1805 0.950 . S
H1780 C1806 0.950 . S
H1781 C1808 0.950 . S
H1782 C1811 0.950 . S
H1783 C1812 0.950 . S
H1784 C1814 0.950 . S
H1785 C1815 0.950 . S
C1786 H1768 0.951 . S
C1786 C1787 1.366 . S
C1786 C1788 1.388 . S
C1787 C1786 1.366 . S
C1787 C1791 1.385 . S
C1788 H1769 0.951 . S
C1788 C1786 1.388 . S
C1788 C1789 1.366 . S
C1789 C1788 1.366 . S
C1789 C1790 1.414 . S
C1789 C1792 1.499 . S
C1790 H1770 0.950 . S
C1790 C1789 1.414 . S
C1790 C1791 1.374 . S
C1791 H1771 0.950 . S
C1791 C1787 1.385 . S
C1791 C1790 1.374 . S
C1792 C1789 1.499 . S
C1792 C1793 1.373 . S
C1792 C1794 1.389 . S
C1793 H1772 0.950 . S
C1793 C1792 1.373 . S
C1793 C1809 1.377 . S
C1794 C1792 1.389 . S
C1794 C1795 1.524 . S
C1794 C1808 1.377 . S
C1795 C1794 1.524 . S
C1795 C1796 1.397 . S
C1795 C1800 1.363 . S
C1796 H1773 0.950 . S
C1796 C1795 1.397 . S
C1796 C1797 1.334 . S
C1797 H1774 0.950 . S
C1797 C1796 1.334 . S
C1797 C1798 1.287 . S
C1798 C1797 1.287 . S
C1798 C1799 1.524 . S
C1798 H1817 0.913 . S
C1799 H1775 0.950 . S
C1799 C1798 1.524 . S
C1799 C1800 1.415 . S
C1800 H1776 0.950 . S
C1800 C1795 1.363 . S
C1800 C1799 1.415 . S
C1801 H1777 0.951 . S
C1801 C1802 1.366 . S
C1801 C1803 1.388 . S
C1802 C1801 1.366 . S
C1802 C1806 1.385 . S
C1803 H1778 0.951 . S
C1803 C1801 1.388 . S
C1803 C1804 1.366 . S
C1804 C1803 1.366 . S
C1804 C1805 1.414 . S
C1804 C1807 1.499 . S
C1805 H1779 0.950 . S
C1805 C1804 1.414 . S
C1805 C1806 1.374 . S
C1806 H1780 0.950 . S
C1806 C1802 1.385 . S
C1806 C1805 1.374 . S
C1807 C1804 1.499 . S
C1807 C1808 1.373 . S
C1807 C1809 1.389 . S
C1808 H1781 0.950 . S
C1808 C1794 1.377 . S
C1808 C1807 1.373 . S
C1809 C1793 1.377 . S
C1809 C1807 1.389 . S
C1809 C1810 1.524 . S
C1810 C1809 1.524 . S
C1810 C1811 1.397 . S
C1810 C1815 1.363 . S
C1811 H1782 0.950 . S
C1811 C1810 1.397 . S
C1811 C1812 1.334 . S
C1812 H1783 0.950 . S
C1812 C1811 1.334 . S
C1812 C1813 1.287 . S
C1813 C1812 1.287 . S
C1813 C1814 1.524 . S
C1813 H1816 0.999 . S
C1814 H1784 0.950 . S
C1814 C1813 1.524 . S
C1814 C1815 1.415 . S
C1815 H1785 0.950 . S
C1815 C1810 1.363 . S
C1815 C1814 1.415 . S
H1816 C1813 0.999 . S
H1817 C1798 0.913 . S
H1818 C1836 0.951 . S
H1819 C1838 0.951 . S
H1820 C1840 0.950 . S
H1821 C1841 0.950 . S
H1822 C1843 0.950 . S
H1823 C1846 0.950 . S
H1824 C1847 0.950 . S
H1825 C1849 0.950 . S
H1826 C1850 0.950 . S
H1827 C1851 0.951 . S
H1828 C1853 0.951 . S
H1829 C1855 0.950 . S
H1830 C1856 0.950 . S
H1831 C1858 0.950 . S
H1832 C1861 0.950 . S
H1833 C1862 0.950 . S
H1834 C1864 0.950 . S
H1835 C1865 0.950 . S
C1836 H1818 0.951 . S
C1836 C1837 1.366 . S
C1836 C1838 1.388 . S
C1837 C1836 1.366 . S
C1837 C1841 1.385 . S
C1838 H1819 0.951 . S
C1838 C1836 1.388 . S
C1838 C1839 1.366 . S
C1839 C1838 1.366 . S
C1839 C1840 1.414 . S
C1839 C1842 1.499 . S
C1840 H1820 0.950 . S
C1840 C1839 1.414 . S
C1840 C1841 1.374 . S
C1841 H1821 0.950 . S
C1841 C1837 1.385 . S
C1841 C1840 1.374 . S
C1842 C1839 1.499 . S
C1842 C1843 1.373 . S
C1842 C1844 1.389 . S
C1843 H1822 0.950 . S
C1843 C1842 1.373 . S
C1843 C1859 1.377 . S
C1844 C1842 1.389 . S
C1844 C1845 1.524 . S
C1844 C1858 1.377 . S
C1845 C1844 1.524 . S
C1845 C1846 1.397 . S
C1845 C1850 1.363 . S
C1846 H1823 0.950 . S
C1846 C1845 1.397 . S
C1846 C1847 1.334 . S
C1847 H1824 0.950 . S
C1847 C1846 1.334 . S
C1847 C1848 1.287 . S
C1848 C1847 1.287 . S
C1848 C1849 1.524 . S
C1848 H1867 0.913 . S
C1849 H1825 0.950 . S
C1849 C1848 1.524 . S
C1849 C1850 1.415 . S
C1850 H1826 0.950 . S
C1850 C1845 1.363 . S
C1850 C1849 1.415 . S
C1851 H1827 0.951 . S
C1851 C1852 1.366 . S
C1851 C1853 1.388 . S
C1852 C1851 1.366 . S
C1852 C1856 1.385 . S
C1853 H1828 0.951 . S
C1853 C1851 1.388 . S
C1853 C1854 1.366 . S
C1854 C1853 1.366 . S
C1854 C1855 1.414 . S
C1854 C1857 1.499 . S
C1855 H1829 0.950 . S
C1855 C1854 1.414 . S
C1855 C1856 1.374 . S
C1856 H1830 0.950 . S
C1856 C1852 1.385 . S
C1856 C1855 1.374 . S
C1857 C1854 1.499 . S
C1857 C1858 1.373 . S
C1857 C1859 1.389 . S
C1858 H1831 0.950 . S
C1858 C1844 1.377 . S
C1858 C1857 1.373 . S
C1859 C1843 1.377 . S
C1859 C1857 1.389 . S
C1859 C1860 1.524 . S
C1860 C1859 1.524 . S
C1860 C1861 1.397 . S
C1860 C1865 1.363 . S
C1861 H1832 0.950 . S
C1861 C1860 1.397 . S
C1861 C1862 1.334 . S
C1862 H1833 0.950 . S
C1862 C1861 1.334 . S
C1862 C1863 1.287 . S
C1863 C1862 1.287 . S
C1863 C1864 1.524 . S
C1863 H1866 0.999 . S
C1864 H1834 0.950 . S
C1864 C1863 1.524 . S
C1864 C1865 1.415 . S
C1865 H1835 0.950 . S
C1865 C1860 1.363 . S
C1865 C1864 1.415 . S
H1866 C1863 0.999 . S
H1867 C1848 0.913 . S
H1868 C1886 0.951 . S
H1869 C1888 0.951 . S
H1870 C1890 0.950 . S
H1871 C1891 0.950 . S
H1872 C1893 0.945 1_554 S
H1873 C1896 0.950 . S
H1874 C1897 0.950 . S
H1875 C1899 0.950 . S
H1876 C1900 0.950 . S
H1877 C1901 0.951 . S
H1878 C1903 0.951 . S
H1879 C1905 0.950 . S
H1880 C1906 0.950 . S
H1881 C1908 0.950 . S
H1882 C1911 0.950 . S
H1883 C1912 0.950 . S
H1884 C1914 0.950 . S
H1885 C1915 0.950 . S
C1886 H1868 0.951 . S
C1886 C1887 1.366 . S
C1886 C1888 1.388 . S
C1887 C1886 1.366 . S
C1887 C1891 1.385 . S
C1888 H1869 0.951 . S
C1888 C1886 1.388 . S
C1888 C1889 1.366 . S
C1889 C1888 1.366 . S
C1889 C1890 1.414 . S
C1889 C1892 1.499 . S
C1890 H1870 0.950 . S
C1890 C1889 1.414 . S
C1890 C1891 1.374 . S
C1891 H1871 0.950 . S
C1891 C1887 1.385 . S
C1891 C1890 1.374 . S
C1892 C1889 1.499 . S
C1892 C1893 1.345 1_554 S
C1892 C1894 1.389 . S
C1893 H1872 0.945 1_556 S
C1893 C1892 1.345 1_556 S
C1893 C1909 1.411 . S
C1894 C1892 1.389 . S
C1894 C1895 1.524 . S
C1894 C1908 1.377 1_554 S
C1895 C1894 1.524 . S
C1895 C1896 1.397 . S
C1895 C1900 1.363 . S
C1896 H1873 0.950 . S
C1896 C1895 1.397 . S
C1896 C1897 1.334 . S
C1897 H1874 0.950 . S
C1897 C1896 1.334 . S
C1897 C1898 1.287 . S
C1898 C1897 1.287 . S
C1898 C1899 1.524 . S
C1898 H1917 0.913 . S
C1899 H1875 0.950 . S
C1899 C1898 1.524 . S
C1899 C1900 1.415 . S
C1900 H1876 0.950 . S
C1900 C1895 1.363 . S
C1900 C1899 1.415 . S
C1901 H1877 0.951 . S
C1901 C1902 1.366 . S
C1901 C1903 1.388 . S
C1902 C1901 1.366 . S
C1902 C1906 1.385 . S
C1903 H1878 0.951 . S
C1903 C1901 1.388 . S
C1903 C1904 1.366 . S
C1904 C1903 1.366 . S
C1904 C1905 1.414 . S
C1904 C1907 1.499 . S
C1905 H1879 0.950 . S
C1905 C1904 1.414 . S
C1905 C1906 1.374 . S
C1906 H1880 0.950 . S
C1906 C1902 1.385 . S
C1906 C1905 1.374 . S
C1907 C1904 1.499 . S
C1907 C1908 1.373 . S
C1907 C1909 1.389 . S
C1908 H1881 0.950 . S
C1908 C1894 1.377 1_556 S
C1908 C1907 1.373 . S
C1909 C1893 1.411 . S
C1909 C1907 1.389 . S
C1909 C1910 1.524 . S
C1910 C1909 1.524 . S
C1910 C1911 1.397 . S
C1910 C1915 1.363 . S
C1911 H1882 0.950 . S
C1911 C1910 1.397 . S
C1911 C1912 1.334 . S
C1912 H1883 0.950 . S
C1912 C1911 1.334 . S
C1912 C1913 1.287 . S
C1913 C1912 1.287 . S
C1913 C1914 1.524 . S
C1913 H1916 0.999 . S
C1914 H1884 0.950 . S
C1914 C1913 1.524 . S
C1914 C1915 1.415 . S
C1915 H1885 0.950 . S
C1915 C1910 1.363 . S
C1915 C1914 1.415 . S
H1916 C1913 0.999 . S
H1917 C1898 0.913 . S
H1918 C1936 0.951 . S
H1919 C1938 0.951 . S
H1920 C1940 0.950 . S
H1921 C1941 0.950 . S
H1922 C1943 0.950 . S
H1923 C1946 0.950 . S
H1924 C1947 0.950 . S
H1925 C1949 0.950 . S
H1926 C1950 0.950 . S
H1927 C1951 0.951 . S
H1928 C1953 0.951 . S
H1929 C1955 0.950 . S
H1930 C1956 0.950 . S
H1931 C1958 0.950 . S
H1932 C1961 0.950 . S
H1933 C1962 0.950 . S
H1934 C1964 0.950 . S
H1935 C1965 0.950 . S
C1936 H1918 0.951 . S
C1936 C1937 1.366 . S
C1936 C1938 1.388 . S
C1937 C1936 1.366 . S
C1937 C1941 1.385 . S
C1938 H1919 0.951 . S
C1938 C1936 1.388 . S
C1938 C1939 1.366 . S
C1939 C1938 1.366 . S
C1939 C1940 1.414 . S
C1939 C1942 1.499 . S
C1940 H1920 0.950 . S
C1940 C1939 1.414 . S
C1940 C1941 1.374 . S
C1941 H1921 0.950 . S
C1941 C1937 1.385 . S
C1941 C1940 1.374 . S
C1942 C1939 1.499 . S
C1942 C1943 1.373 . S
C1942 C1944 1.389 . S
C1943 H1922 0.950 . S
C1943 C1942 1.373 . S
C1943 C1959 1.377 . S
C1944 C1942 1.389 . S
C1944 C1945 1.524 . S
C1944 C1958 1.377 . S
C1945 C1944 1.524 . S
C1945 C1946 1.397 . S
C1945 C1950 1.363 . S
C1946 H1923 0.950 . S
C1946 C1945 1.397 . S
C1946 C1947 1.334 . S
C1947 H1924 0.950 . S
C1947 C1946 1.334 . S
C1947 C1948 1.287 . S
C1948 C1947 1.287 . S
C1948 C1949 1.524 . S
C1948 H1967 0.913 . S
C1949 H1925 0.950 . S
C1949 C1948 1.524 . S
C1949 C1950 1.415 . S
C1950 H1926 0.950 . S
C1950 C1945 1.363 . S
C1950 C1949 1.415 . S
C1951 H1927 0.951 . S
C1951 C1952 1.366 . S
C1951 C1953 1.388 . S
C1952 C1951 1.366 . S
C1952 C1956 1.385 . S
C1953 H1928 0.951 . S
C1953 C1951 1.388 . S
C1953 C1954 1.366 . S
C1954 C1953 1.366 . S
C1954 C1955 1.414 . S
C1954 C1957 1.499 . S
C1955 H1929 0.950 . S
C1955 C1954 1.414 . S
C1955 C1956 1.374 . S
C1956 H1930 0.950 . S
C1956 C1952 1.385 . S
C1956 C1955 1.374 . S
C1957 C1954 1.499 . S
C1957 C1958 1.373 . S
C1957 C1959 1.389 . S
C1958 H1931 0.950 . S
C1958 C1944 1.377 . S
C1958 C1957 1.373 . S
C1959 C1943 1.377 . S
C1959 C1957 1.389 . S
C1959 C1960 1.524 . S
C1960 C1959 1.524 . S
C1960 C1961 1.397 . S
C1960 C1965 1.363 . S
C1961 H1932 0.950 . S
C1961 C1960 1.397 . S
C1961 C1962 1.334 . S
C1962 H1933 0.950 . S
C1962 C1961 1.334 . S
C1962 C1963 1.287 . S
C1963 C1962 1.287 . S
C1963 C1964 1.524 . S
C1963 H1966 0.999 . S
C1964 H1934 0.950 . S
C1964 C1963 1.524 . S
C1964 C1965 1.415 . S
C1965 H1935 0.950 . S
C1965 C1960 1.363 . S
C1965 C1964 1.415 . S
H1966 C1963 0.999 . S
H1967 C1948 0.913 . S
C802 C759 1.255 . S
C787 C1 1.125 . S
C837 C169 1.442 . S
C852 C689 1.427 . S
C887 C283 1.371 . S
C902 C709 1.678 . S
C937 C397 1.154 . S
C952 C723 1.422 . S
C1002 C731 1.085 . S
C987 C457 0.994 . S
C1037 C571 1.020 . S
C1052 C745 1.119 . S
C1087 C115 1.155 . S
C1102 C703 1.275 . S
C1137 C229 1.009 . S
C1152 C717 1.129 . S
C1187 C343 0.970 . S
C1202 C737 1.281 . S
C1252 C751 1.502 . S
C1237 C511 1.219 . S
C1302 C765 1.633 . S
C1287 C625 1.340 . S
C1352 C695 1.716 . S
C1337 C55 1.414 . S
C1387 C29 1.065 . S
C1402 C702 1.323 . S
C1437 C125 0.929 . S
C1452 C716 1.456 . S
C1502 C738 1.392 . S
C1487 C239 0.881 . S
C1537 C353 0.875 . S
C1552 C752 1.376 . S
C1602 C766 1.263 . S
C1587 C485 1.010 . S
C1652 C696 1.314 . S
C1637 C599 1.045 . S
C1702 C758 1.328 . S
C1687 C143 1.075 . S
C1737 C257 1.055 . S
C1752 C688 1.310 . S
C1802 C710 1.263 . S
C1787 C371 1.019 . S
C1837 C467 0.880 . S
C1852 C724 1.382 . S
C1887 C581 0.888 . S
C1902 C730 1.414 . S
C1937 C11 0.919 . S
C1952 C744 1.455 . S
