# Generated by pormake.
# Topology pyr, (3,6)-cn, num edge types: 1
# Building blocks:
#     Node 0, Type 0, BuildingBlock: ESEHIV_clean_linker_0, # of connection points: 3
#     Node 1, Type 0, BuildingBlock: ESEHIV_clean_linker_0, # of connection points: 3
#     Node 2, Type 0, BuildingBlock: ESEHIV_clean_linker_0, # of connection points: 3
#     Node 3, Type 0, BuildingBlock: ESEHIV_clean_linker_0, # of connection points: 3
#     Node 4, Type 0, BuildingBlock: ESEHIV_clean_linker_0, # of connection points: 3
#     Node 5, Type 0, BuildingBlock: ESEHIV_clean_linker_0, # of connection points: 3
#     Node 6, Type 0, BuildingBlock: ESEHIV_clean_linker_0, # of connection points: 3
#     Node 7, Type 0, BuildingBlock: ESEHIV_clean_linker_0, # of connection points: 3
#     Node 8, Type 1, BuildingBlock: BETGAK_clean_sbu_0, # of connection points: 6
#     Node 9, Type 1, BuildingBlock: BETGAK_clean_sbu_0, # of connection points: 6
#     Node 10, Type 1, BuildingBlock: BETGAK_clean_sbu_0, # of connection points: 6
#     Node 11, Type 1, BuildingBlock: BETGAK_clean_sbu_0, # of connection points: 6
#     Edge 12, Type (0, 1), BuildingBlock: MIFKUJ_clean_linker_0, # of connection points: 2
#     Edge 13, Type (0, 1), BuildingBlock: MIFKUJ_clean_linker_0, # of connection points: 2
#     Edge 14, Type (0, 1), BuildingBlock: MIFKUJ_clean_linker_0, # of connection points: 2
#     Edge 15, Type (0, 1), BuildingBlock: MIFKUJ_clean_linker_0, # of connection points: 2
#     Edge 16, Type (0, 1), BuildingBlock: MIFKUJ_clean_linker_0, # of connection points: 2
#     Edge 17, Type (0, 1), BuildingBlock: MIFKUJ_clean_linker_0, # of connection points: 2
#     Edge 18, Type (0, 1), BuildingBlock: MIFKUJ_clean_linker_0, # of connection points: 2
#     Edge 19, Type (0, 1), BuildingBlock: MIFKUJ_clean_linker_0, # of connection points: 2
#     Edge 20, Type (0, 1), BuildingBlock: MIFKUJ_clean_linker_0, # of connection points: 2
#     Edge 21, Type (0, 1), BuildingBlock: MIFKUJ_clean_linker_0, # of connection points: 2
#     Edge 22, Type (0, 1), BuildingBlock: MIFKUJ_clean_linker_0, # of connection points: 2
#     Edge 23, Type (0, 1), BuildingBlock: MIFKUJ_clean_linker_0, # of connection points: 2
#     Edge 24, Type (0, 1), BuildingBlock: MIFKUJ_clean_linker_0, # of connection points: 2
#     Edge 25, Type (0, 1), BuildingBlock: MIFKUJ_clean_linker_0, # of connection points: 2
#     Edge 26, Type (0, 1), BuildingBlock: MIFKUJ_clean_linker_0, # of connection points: 2
#     Edge 27, Type (0, 1), BuildingBlock: MIFKUJ_clean_linker_0, # of connection points: 2
#     Edge 28, Type (0, 1), BuildingBlock: MIFKUJ_clean_linker_0, # of connection points: 2
#     Edge 29, Type (0, 1), BuildingBlock: MIFKUJ_clean_linker_0, # of connection points: 2
#     Edge 30, Type (0, 1), BuildingBlock: MIFKUJ_clean_linker_0, # of connection points: 2
#     Edge 31, Type (0, 1), BuildingBlock: MIFKUJ_clean_linker_0, # of connection points: 2
#     Edge 32, Type (0, 1), BuildingBlock: MIFKUJ_clean_linker_0, # of connection points: 2
#     Edge 33, Type (0, 1), BuildingBlock: MIFKUJ_clean_linker_0, # of connection points: 2
#     Edge 34, Type (0, 1), BuildingBlock: MIFKUJ_clean_linker_0, # of connection points: 2
#     Edge 35, Type (0, 1), BuildingBlock: MIFKUJ_clean_linker_0, # of connection points: 2
# Relax obj value: 0.093
# Max RMSD: 0.120
# Mean RMSD: 0.056
data_MOF--net-pyr--node1-BETGAK_clean_sbu_0--node2-ESEHIV_clean_linker_0--edge1-MIFKUJ_clean_linker_0
_symmetry_space_group_name_H-M    P1
_symmetry_Int_Tables_number       1
_symmetry_cell_setting            triclinic
loop_
_symmetry_equiv_pos_as_xyz
'x, y, z'
_cell_length_a     46.789845
_cell_length_b     50.415341
_cell_length_c     45.844472
_cell_angle_alpha  90.995957
_cell_angle_beta   88.347411
_cell_angle_gamma 100.01726
loop_
_atom_site_label
_atom_site_type_symbol
_atom_site_fract_x
_atom_site_fract_y
_atom_site_fract_z
_atom_type_partial_charge
H0 H 0.29467 0.29512 0.24378 0.0
H1 H 0.34082 0.22853 0.24413 0.0
H2 H 0.34511 0.27845 0.16837 0.0
C3 C 0.30958 0.28341 0.23338 0.0
C4 C 0.31913 0.28912 0.20474 0.0
C5 C 0.31687 0.26131 0.24761 0.0
C6 C 0.33605 0.24635 0.23374 0.0
C7 C 0.3472 0.25279 0.20548 0.0
C8 C 0.33805 0.27398 0.19073 0.0
H9 H 0.27246 0.8916 0.65147 0.0
H10 H 0.34037 0.8508 0.61835 0.0
H11 H 0.25633 0.83466 0.58044 0.0
C12 C 0.28011 0.8774 0.63641 0.0
C13 C 0.26124 0.86394 0.6157 0.0
C14 C 0.30879 0.87296 0.63749 0.0
C15 C 0.31825 0.85455 0.61795 0.0
C16 C 0.29918 0.84063 0.59785 0.0
C17 C 0.27084 0.84542 0.59638 0.0
H18 H 0.69479 0.32981 0.88617 0.0
H19 H 0.69569 0.39414 0.82699 0.0
H20 H 0.62387 0.32705 0.82715 0.0
C21 C 0.68381 0.33854 0.86932 0.0
C22 C 0.65704 0.32463 0.85864 0.0
C23 C 0.69725 0.36384 0.85868 0.0
C24 C 0.68433 0.37524 0.83548 0.0
C25 C 0.65792 0.3622 0.82283 0.0
C26 C 0.64452 0.33691 0.83523 0.0
H27 H 0.8443 0.70597 0.3981 0.0
H28 H 0.90863 0.71127 0.32867 0.0
H29 H 0.8397 0.64179 0.3348 0.0
C30 C 0.85311 0.6972 0.37882 0.0
C31 C 0.83849 0.67248 0.36754 0.0
C32 C 0.87841 0.71134 0.36506 0.0
C33 C 0.88949 0.70005 0.33934 0.0
C34 C 0.87601 0.6746 0.32758 0.0
C35 C 0.85036 0.66137 0.3423 0.0
H36 H 0.68947 0.8143 0.81273 0.0
H37 H 0.72943 0.74356 0.8097 0.0
H38 H 0.68737 0.76565 0.88863 0.0
C39 C 0.69399 0.79609 0.82244 0.0
C40 C 0.68432 0.79036 0.8512 0.0
C41 C 0.71121 0.77986 0.80745 0.0
C42 C 0.71695 0.7568 0.82121 0.0
C43 C 0.70965 0.75213 0.85072 0.0
C44 C 0.69312 0.76899 0.86575 0.0
H45 H 0.69314 0.20369 0.4266 0.0
H46 H 0.76285 0.16646 0.39234 0.0
H47 H 0.76664 0.19986 0.47947 0.0
C48 C 0.7142 0.19794 0.42922 0.0
C49 C 0.72897 0.20391 0.45527 0.0
C50 C 0.72627 0.18416 0.40677 0.0
C51 C 0.75331 0.1768 0.41008 0.0
C52 C 0.76769 0.18184 0.43636 0.0
C53 C 0.75578 0.19597 0.45887 0.0
H54 H 0.34163 0.71786 0.16864 0.0
H55 H 0.34125 0.65102 0.22643 0.0
H56 H 0.40697 0.72212 0.23318 0.0
C57 C 0.35119 0.70814 0.18575 0.0
C58 C 0.37651 0.7227 0.19847 0.0
C59 C 0.33769 0.68215 0.19514 0.0
C60 C 0.35052 0.67093 0.2189 0.0
C61 C 0.37522 0.68514 0.2335 0.0
C62 C 0.38778 0.7112 0.22296 0.0
H63 H 0.12478 0.33681 0.72581 0.0
H64 H 0.19159 0.34278 0.65812 0.0
H65 H 0.19329 0.40606 0.72206 0.0
C66 C 0.14414 0.34766 0.71517 0.0
C67 C 0.1572 0.37307 0.72719 0.0
C68 C 0.15651 0.33585 0.69033 0.0
C69 C 0.18207 0.35074 0.67736 0.0
C70 C 0.1959 0.37582 0.68861 0.0
C71 C 0.18326 0.38657 0.71363 0.0
La72 La 0.02887 0.03313 0.50096 0.0
La73 La 1.00734 1.01235 0.56026 0.0
C74 C 0.03679 0.05043 0.4504 0.0
C75 C 0.06021 0.07071 0.43826 0.0
C76 C 0.08462 0.06245 0.42484 0.0
C77 C 0.10866 0.08139 0.41686 0.0
C78 C 0.10853 0.10885 0.42194 0.0
C79 C 0.08393 0.11728 0.43451 0.0
C80 C 0.05989 0.09833 0.44266 0.0
C81 C 0.06922 1.02246 0.53505 0.0
C82 C 0.04039 0.07202 0.55626 0.0
C83 C 0.99524 0.98653 0.60641 0.0
C84 C 0.97108 0.96546 0.61461 0.0
C85 C 0.95315 0.97033 0.63834 0.0
C86 C 0.92782 0.95236 0.64449 0.0
C87 C 0.92032 0.92921 0.62709 0.0
C88 C 0.93849 0.92393 0.6037 0.0
C89 C 0.96365 0.94217 0.59724 0.0
C90 C 0.97426 0.0405 0.53365 0.0
C91 C 0.99334 0.97275 0.50481 0.0
O92 O 0.04494 0.02815 0.45873 0.0
O93 O 0.01898 0.05932 0.46941 0.0
O94 O 0.07435 0.0398 0.51431 0.0
O95 O 0.04388 1.00981 0.53324 0.0
O96 O 0.03493 0.07056 0.52786 0.0
O97 O 0.03596 0.05006 0.57254 0.0
O98 O 0.9876 1.00972 0.6017 0.0
O99 O 1.01375 0.98037 0.5866 0.0
O100 O 0.9768 0.04066 0.56159 0.0
O101 O 0.98803 1.02373 0.52231 0.0
O102 O 0.98891 0.97672 0.5333 0.0
O103 O 1.00818 0.99201 0.48824 0.0
H104 H 0.08545 0.04131 0.42119 0.0
H105 H 0.12734 0.07459 0.40668 0.0
H106 H 0.08355 0.13846 0.43859 0.0
H107 H 0.04143 0.10531 0.45307 0.0
H108 H 0.95837 0.98843 0.65163 0.0
H109 H 0.91415 0.95646 0.66293 0.0
H110 H 0.93288 0.90605 0.59016 0.0
H111 H 0.97682 0.93834 0.57837 0.0
La112 La 0.54029 0.02495 0.0458 0.0
La113 La 0.49124 1.01728 1.00982 0.0
C114 C 0.58842 0.03392 0.06951 0.0
C115 C 0.59517 0.0436 0.09895 0.0
C116 C 0.57911 0.03139 0.12304 0.0
C117 C 0.5819 0.04377 0.1503 0.0
C118 C 0.60031 0.06858 0.1535 0.0
C119 C 0.61674 0.08053 0.12965 0.0
C120 C 0.61428 0.06798 0.10248 0.0
C121 C 0.49825 0.98575 0.06555 0.0
C122 C 0.49147 0.05461 0.06516 0.0
C123 C 0.44198 0.99833 0.99153 0.0
C124 C 0.43064 0.99292 0.96253 0.0
C125 C 0.43789 1.01169 0.94007 0.0
C126 C 0.43037 1.00435 0.91158 0.0
C127 C 0.41607 0.97815 0.9055 0.0
C128 C 0.40824 0.95971 0.92804 0.0
C129 C 0.41541 0.96712 0.95648 0.0
C130 C 0.52415 0.06228 0.98898 0.0
C131 C 0.54321 0.9927 0.98598 0.0
O132 O 0.57292 1.00984 0.06715 0.0
O133 O 0.57896 0.05144 0.05333 0.0
O134 O 0.51299 1.00446 0.0815 0.0
O135 O 0.50679 0.99037 0.03928 0.0
O136 O 0.51965 0.05592 0.06607 0.0
O137 O 0.47565 0.03682 0.04835 0.0
O138 O 0.4498 1.02362 0.99905 0.0
O139 O 0.46104 0.98352 0.99834 0.0
O140 O 0.50054 0.04957 0.97779 0.0
O141 O 0.53021 0.04837 1.01021 0.0
O142 O 0.51636 0.99538 0.98083 0.0
O143 O 0.55671 1.00369 1.00915 0.0
H144 H 0.56371 1.01282 0.12072 0.0
H145 H 0.56924 0.03438 0.16871 0.0
H146 H 0.63142 0.09954 0.13206 0.0
H147 H 0.62635 0.07784 0.08397 0.0
H148 H 0.45016 0.0316 0.94428 0.0
H149 H 0.43671 1.01866 0.89421 0.0
H150 H 0.39707 0.93942 0.92354 0.0
H151 H 0.41014 0.95238 0.97361 0.0
La152 La 0.51612 0.50198 0.50831 0.0
La153 La 0.51878 0.54519 0.54577 0.0
C154 C 0.52965 0.46442 0.47734 0.0
C155 C 0.54139 0.44057 0.48466 0.0
C156 C 0.53275 0.42666 0.51063 0.0
C157 C 0.54729 0.40642 0.51941 0.0
C158 C 0.57082 0.40036 0.50256 0.0
C159 C 0.57908 0.41399 0.47642 0.0
C160 C 0.56436 0.43396 0.46748 0.0
C161 C 0.46611 0.49996 0.53796 0.0
C162 C 0.54222 0.49677 0.57296 0.0
C163 C 0.50688 0.58334 0.57697 0.0
C164 C 0.49066 0.60473 0.57112 0.0
C165 C 0.50057 0.63067 0.58195 0.0
C166 C 0.48626 0.65164 0.5751 0.0
C167 C 0.4619 0.6468 0.55731 0.0
C168 C 0.4521 0.62077 0.54636 0.0
C169 C 0.46641 0.59984 0.55321 0.0
C170 C 0.56852 0.54678 0.51586 0.0
C171 C 0.49252 0.55009 0.48122 0.0
O172 O 0.50308 0.46519 0.48642 0.0
O173 O 0.54729 0.487 0.48239 0.0
O174 O 0.46876 0.49483 0.51034 0.0
O175 O 0.49137 0.50633 0.54818 0.0
O176 O 0.53701 0.48584 0.54654 0.0
O177 O 0.53569 0.52084 0.57843 0.0
O178 O 0.53113 0.58456 0.56191 0.0
O179 O 0.49175 0.55899 0.57757 0.0
O180 O 0.56618 0.55121 0.54364 0.0
O181 O 0.54317 0.54097 0.50582 0.0
O182 O 0.49481 0.55959 0.50856 0.0
O183 O 0.50215 0.5275 0.47503 0.0
H184 H 0.51541 0.43194 0.52451 0.0
H185 H 0.54075 0.39605 0.53967 0.0
H186 H 0.59701 0.40925 0.463 0.0
H187 H 0.57149 0.44486 0.44766 0.0
H188 H 0.51953 0.63473 0.59543 0.0
H189 H 0.49437 0.67166 0.58351 0.0
H190 H 0.43314 0.6165 0.5329 0.0
H191 H 0.4585 0.5799 0.54449 0.0
La192 La 0.01748 0.4975 0.04518 0.0
La193 La 1.01388 0.54815 1.01363 0.0
C194 C 0.03375 0.45627 0.06449 0.0
C195 C 0.05883 0.44982 0.0796 0.0
C196 C 0.05463 0.42755 0.09797 0.0
C197 C 0.0783 0.41914 0.11041 0.0
C198 C 0.10667 0.4328 0.10456 0.0
C199 C 0.11075 0.45601 0.08728 0.0
C200 C 0.08696 0.46447 0.07484 0.0
C201 C 0.98839 0.53117 0.07467 0.0
C202 C 0.07037 0.54831 0.05065 0.0
C203 C 0.99568 0.59141 1.00583 0.0
C204 C 0.97275 0.60101 0.98988 0.0
C205 C 0.96835 0.59583 0.95999 0.0
C206 C 0.94576 0.60521 0.94616 0.0
C207 C 0.92719 0.61966 0.96213 0.0
C208 C 0.93129 0.62389 0.99222 0.0
C209 C 0.95393 0.61489 1.00582 0.0
C210 C 0.03532 0.51459 0.97545 0.0
C211 C 0.9639 0.49623 1.00482 0.0
O212 O 0.01703 0.47012 0.07935 0.0
O213 O 0.0385 0.46455 0.03762 0.0
O214 O 0.98069 0.50514 0.0733 0.0
O215 O 1.01157 0.53725 0.05916 0.0
O216 O 0.05932 0.52287 0.05713 0.0
O217 O 0.05631 0.56251 0.0336 0.0
O218 O 0.01795 0.58475 0.99111 0.0
O219 O 0.98604 0.57444 1.02661 0.0
O220 O 0.03033 0.53839 0.96935 0.0
O221 O 0.02779 0.511 1.00214 0.0
O222 O 0.97112 0.52291 1.00443 0.0
O223 O 0.98078 0.48139 1.01729 0.0
H224 H 0.03305 0.4162 0.10206 0.0
H225 H 0.07444 0.40152 0.12412 0.0
H226 H 0.13236 0.46691 0.08232 0.0
H227 H 0.09065 0.48184 0.06079 0.0
H228 H 0.98233 0.58468 0.94737 0.0
H229 H 0.94321 0.60158 0.92296 0.0
H230 H 0.91691 0.63411 1.00545 0.0
H231 H 0.95662 0.61863 0.02903 0.0
H232 H 0.2598 0.26086 0.26158 0.0
H233 H 0.23255 0.24071 0.30365 0.0
H234 H 0.30983 0.21703 0.33622 0.0
H235 H 0.33806 0.23852 0.29454 0.0
H236 H 0.26318 0.17517 0.32878 0.0
H237 H 0.28145 0.26094 0.37552 0.0
H238 H 0.28531 0.31017 0.3804 0.0
H239 H 0.19407 0.30322 0.36568 0.0
H240 H 0.18973 0.25395 0.3602 0.0
H241 H 0.16481 0.10783 0.43381 0.0
H242 H 0.20752 0.13845 0.41511 0.0
H243 H 0.15171 0.18423 0.37169 0.0
H244 H 0.10906 0.15403 0.39077 0.0
H245 H 0.19658 0.21635 0.39467 0.0
H246 H 0.18058 0.13404 0.33608 0.0
H247 H 0.17513 0.08491 0.328 0.0
H248 H 0.26015 0.0857 0.36123 0.0
H249 H 0.26594 0.13478 0.36983 0.0
C250 C 0.27145 0.25243 0.27818 0.0
C251 C 0.30126 0.25161 0.27487 0.0
C252 C 0.25573 0.24081 0.30217 0.0
C253 C 0.26943 0.22789 0.32307 0.0
C254 C 0.29918 0.22732 0.32031 0.0
C255 C 0.31512 0.23937 0.29645 0.0
C256 C 0.25153 0.21217 0.34552 0.0
C257 C 0.24921 0.18413 0.34391 0.0
C258 C 0.2329 0.22409 0.36439 0.0
C259 C 0.23532 0.25374 0.36737 0.0
C260 C 0.26225 0.26992 0.37308 0.0
C261 C 0.26451 0.29783 0.37599 0.0
C262 C 0.23996 0.30982 0.37334 0.0
C263 C 0.21307 0.2939 0.36774 0.0
C264 C 0.2107 0.26597 0.36477 0.0
C265 C 0.16181 0.12464 0.42051 0.0
C266 C 0.13392 0.12863 0.41337 0.0
C267 C 0.18606 0.14201 0.40995 0.0
C268 C 0.18255 0.16318 0.39178 0.0
C269 C 0.15469 0.16793 0.38576 0.0
C270 C 0.13044 0.15075 0.39659 0.0
C271 C 0.20773 0.17941 0.37729 0.0
C272 C 0.21124 0.20744 0.38027 0.0
C273 C 0.22709 0.16748 0.35919 0.0
C274 C 0.22353 0.13798 0.35399 0.0
C275 C 0.198 0.12368 0.34189 0.0
C276 C 0.19487 0.09586 0.33717 0.0
C277 C 0.21723 0.08218 0.34421 0.0
C278 C 0.24282 0.0963 0.35587 0.0
C279 C 0.24603 0.12411 0.36067 0.0
H280 H 0.21478 0.06064 0.34054 0.0
H281 H 0.24176 0.33144 0.37567 0.0
H282 H 0.34896 0.85207 0.66784 0.0
H283 H 0.37646 0.87278 0.70894 0.0
H284 H 0.33793 0.94407 0.70079 0.0
H285 H 0.31279 0.92476 0.65762 0.0
H286 H 0.39087 0.95724 0.71857 0.0
H287 H 0.30668 0.89061 0.7458 0.0
H288 H 0.27638 0.84535 0.74505 0.0
H289 H 0.34702 0.81139 0.77775 0.0
H290 H 0.37779 0.85642 0.77842 0.0
H291 H 0.38797 1.00215 0.86553 0.0
H292 H 0.37614 0.98568 0.81603 0.0
H293 H 0.42058 0.91866 0.82907 0.0
H294 H 0.43163 0.93465 0.87876 0.0
H295 H 0.36836 0.90279 0.80816 0.0
H296 H 0.45074 0.97188 0.78562 0.0
H297 H 0.47857 1.01808 0.78839 0.0
H298 H 0.40887 0.04845 0.7488 0.0
H299 H 0.38048 1.00244 0.74614 0.0
C300 C 0.34715 0.87254 0.67402 0.0
C301 C 0.32821 0.8866 0.65987 0.0
C302 C 0.3626 0.88417 0.69773 0.0
C303 C 0.35837 0.90947 0.70824 0.0
C304 C 0.34113 0.92433 0.69305 0.0
C305 C 0.32641 0.91309 0.66874 0.0
C306 C 0.36959 0.91943 0.73652 0.0
C307 C 0.38594 0.94542 0.73821 0.0
C308 C 0.36322 0.90376 0.76193 0.0
C309 C 0.34459 0.87677 0.76184 0.0
C310 C 0.31576 0.87344 0.75267 0.0
C311 C 0.29851 0.84785 0.75229 0.0
C312 C 0.3098 0.8255 0.76125 0.0
C313 C 0.33832 0.82871 0.77076 0.0
C314 C 0.35566 0.85425 0.77117 0.0
C315 C 0.39536 0.98409 0.85754 0.0
C316 C 0.41048 0.96946 0.87551 0.0
C317 C 0.38878 0.97481 0.82944 0.0
C318 C 0.39792 0.95124 0.81907 0.0
C319 C 0.4135 0.93694 0.8369 0.0
C320 C 0.41971 0.94598 0.86508 0.0
C321 C 0.38976 0.94054 0.79018 0.0
C322 C 0.37374 0.91445 0.78845 0.0
C323 C 0.39618 0.95623 0.76489 0.0
C324 C 0.41349 0.98377 0.76577 0.0
C325 C 0.44134 0.98844 0.77758 0.0
C326 C 0.45719 1.01458 0.77914 0.0
C327 C 0.44549 0.03619 0.76879 0.0
C328 C 0.41792 0.03169 0.75678 0.0
C329 C 0.40196 1.00558 0.75519 0.0
H330 H 0.45779 0.05643 0.77006 0.0
H331 H 0.29642 0.8057 0.76089 0.0
H332 H 0.61804 0.33861 0.78055 0.0
H333 H 0.59753 0.35936 0.74042 0.0
H334 H 0.64833 0.43622 0.76301 0.0
H335 H 0.66653 0.41637 0.80484 0.0
H336 H 0.6033 0.44818 0.74564 0.0
H337 H 0.65989 0.38686 0.69699 0.0
H338 H 0.67259 0.3419 0.68766 0.0
H339 H 0.58485 0.31125 0.66368 0.0
H340 H 0.57163 0.356 0.67306 0.0
H341 H 0.57784 0.51818 0.61773 0.0
H342 H 0.59822 0.49569 0.65667 0.0
H343 H 0.55395 0.41884 0.625 0.0
H344 H 0.53624 0.44149 0.58387 0.0
H345 H 0.59437 0.40541 0.64752 0.0
H346 H 0.53635 0.46435 0.69605 0.0
H347 H 0.52077 0.50772 0.7078 0.0
H348 H 0.60676 0.54088 0.73524 0.0
H349 H 0.62288 0.49778 0.72342 0.0
C350 C 0.62481 0.36003 0.7776 0.0
C351 C 0.64476 0.37515 0.79695 0.0
C352 C 0.61329 0.37203 0.75368 0.0
C353 C 0.62165 0.39973 0.74706 0.0
C354 C 0.6412 0.41489 0.76656 0.0
C355 C 0.65222 0.40307 0.7908 0.0
C356 C 0.60999 0.41317 0.72072 0.0
C357 C 0.60185 0.43877 0.72416 0.0
C358 C 0.6066 0.4013 0.69224 0.0
C359 C 0.61478 0.37471 0.68579 0.0
C360 C 0.64332 0.3705 0.68978 0.0
C361 C 0.65059 0.34505 0.68455 0.0
C362 C 0.62952 0.32371 0.67518 0.0
C363 C 0.60113 0.32778 0.67101 0.0
C364 C 0.59376 0.35319 0.6762 0.0
C365 C 0.57242 0.49644 0.61886 0.0
C366 C 0.55496 0.48201 0.59721 0.0
C367 C 0.5838 0.4833 0.64194 0.0
C368 C 0.577 0.45501 0.64584 0.0
C369 C 0.55986 0.44052 0.62372 0.0
C370 C 0.54944 0.45364 0.59985 0.0
C371 C 0.58778 0.44074 0.67229 0.0
C372 C 0.59578 0.41495 0.66892 0.0
C373 C 0.59062 0.45226 0.70107 0.0
C374 C 0.58084 0.47796 0.7086 0.0
C375 C 0.55191 0.48093 0.70453 0.0
C376 C 0.543 0.50545 0.71119 0.0
C377 C 0.56278 0.52706 0.72218 0.0
C378 C 0.59147 0.52414 0.72669 0.0
C379 C 0.6005 0.49967 0.72006 0.0
H380 H 0.55585 0.54604 0.72726 0.0
H381 H 0.63521 0.30406 0.67102 0.0
H382 H 0.84781 0.63657 0.28769 0.0
H383 H 0.86782 0.61404 0.24671 0.0
H384 H 0.95241 0.66057 0.26153 0.0
H385 H 0.93301 0.68242 0.30388 0.0
H386 H 0.94195 0.65691 0.20253 0.0
H387 H 0.93576 0.59276 0.27982 0.0
H388 H 0.91144 0.5639 0.3193 0.0
H389 H 0.84999 0.52289 0.25874 0.0
H390 H 0.87375 0.55173 0.21896 0.0
H391 H 0.01558 0.57968 0.0997 0.0
H392 H 0.99903 0.60454 0.14159 0.0
H393 H 0.91917 0.54712 0.14626 0.0
H394 H 0.93663 0.52152 0.10576 0.0
H395 H 0.92883 0.55731 0.19711 0.0
H396 H 0.93135 0.62139 0.12035 0.0
H397 H 0.95323 0.65041 0.07992 0.0
H398 H 0.01748 0.69208 0.13736 0.0
H399 H 0.99615 0.66307 0.17803 0.0
C400 C 0.87086 0.64193 0.2831 0.0
C401 C 0.88846 0.66154 0.30045 0.0
C402 C 0.88236 0.62891 0.25902 0.0
C403 C 0.91198 0.635 0.25063 0.0
C404 C 0.92952 0.65512 0.26713 0.0
C405 C 0.91813 0.6679 0.29161 0.0
C406 C 0.92441 0.62037 0.22493 0.0
C407 C 0.93934 0.63512 0.20162 0.0
C408 C 0.9207 0.59181 0.22264 0.0
C409 C 0.90638 0.57452 0.2465 0.0
C410 C 0.91693 0.57771 0.27498 0.0
C411 C 0.90327 0.56134 0.29739 0.0
C412 C 0.87915 0.54161 0.29154 0.0
C413 C 0.86866 0.53819 0.26325 0.0
C414 C 0.88223 0.55452 0.24076 0.0
C415 C 0.99438 0.57244 0.10948 0.0
C416 C 0.97752 0.54843 0.09883 0.0
C417 C 0.98463 0.58694 0.13362 0.0
C418 C 0.95719 0.57852 0.14767 0.0
C419 C 0.94037 0.5546 0.13662 0.0
C420 C 0.95036 0.53987 0.11299 0.0
C421 C 0.94612 0.59374 0.17402 0.0
C422 C 0.93146 0.5791 0.19769 0.0
C423 C 0.94964 0.62241 0.17636 0.0
C424 C 0.9624 0.63988 0.15207 0.0
C425 C 0.95026 0.63664 0.12427 0.0
C426 C 0.96254 0.65309 0.10134 0.0
C427 C 0.98679 0.67302 0.10605 0.0
C428 C 0.99874 0.6766 0.13373 0.0
C429 C 0.98656 0.66018 0.15673 0.0
H430 H 0.99629 0.68572 0.08826 0.0
H431 H 0.86861 0.52894 0.30892 0.0
H432 H 0.34572 0.23441 0.14888 0.0
H433 H 0.37349 0.20226 0.12668 0.0
H434 H 0.41765 0.19837 0.20741 0.0
H435 H 0.39113 0.23172 0.22933 0.0
H436 H 0.45418 0.19634 0.16131 0.0
H437 H 0.3595 0.15086 0.19126 0.0
H438 H 0.30602 0.14429 0.19408 0.0
H439 H 0.30276 0.13431 0.10095 0.0
H440 H 0.35627 0.14119 0.09755 0.0
H441 H 0.50503 0.07588 0.11922 0.0
H442 H 0.48161 0.10893 0.14628 0.0
H443 H 0.4242 0.11145 0.07458 0.0
H444 H 0.44591 0.07684 0.04884 0.0
H445 H 0.39487 0.11354 0.12052 0.0
H446 H 0.49093 0.16194 0.09089 0.0
H447 H 0.54445 0.1681 0.08935 0.0
H448 H 0.54528 0.17205 0.18299 0.0
H449 H 0.49176 0.16572 0.18505 0.0
C450 C 0.36191 0.22733 0.16168 0.0
C451 C 0.36612 0.23554 0.19091 0.0
C452 C 0.37752 0.2087 0.14907 0.0
C453 C 0.3972 0.19755 0.1656 0.0
C454 C 0.40246 0.20662 0.19434 0.0
C455 C 0.38709 0.22549 0.20688 0.0
C456 C 0.41092 0.17529 0.15343 0.0
C457 C 0.44127 0.17812 0.15258 0.0
C458 C 0.39405 0.15155 0.14209 0.0
C459 C 0.36186 0.14668 0.14414 0.0
C460 C 0.34737 0.14735 0.17138 0.0
C461 C 0.31706 0.14358 0.17308 0.0
C462 C 0.301 0.13892 0.14771 0.0
C463 C 0.31522 0.13792 0.12058 0.0
C464 C 0.34554 0.14171 0.11876 0.0
C465 C 0.48725 0.08343 0.10948 0.0
C466 C 0.47724 0.07394 0.08203 0.0
C467 C 0.47405 0.10251 0.12477 0.0
C468 C 0.45158 0.11335 0.11221 0.0
C469 C 0.44147 0.10352 0.08483 0.0
C470 C 0.45392 0.08377 0.07008 0.0
C471 C 0.43837 0.13484 0.12726 0.0
C472 C 0.40795 0.13177 0.12902 0.0
C473 C 0.45525 0.15832 0.13945 0.0
C474 C 0.4874 0.16318 0.13811 0.0
C475 C 0.50256 0.16413 0.11112 0.0
C476 C 0.53288 0.16763 0.11017 0.0
C477 C 0.54825 0.17041 0.13605 0.0
C478 C 0.53335 0.1699 0.16296 0.0
C479 C 0.50304 0.16641 0.16403 0.0
H480 H 0.57171 0.173 0.13527 0.0
H481 H 0.27754 0.13605 0.14906 0.0
H482 H 0.23798 0.87665 0.56573 0.0
H483 H 0.19795 0.9014 0.56196 0.0
H484 H 0.1812 0.89476 0.65477 0.0
H485 H 0.22121 0.86956 0.65877 0.0
H486 H 0.12964 0.89486 0.60446 0.0
H487 H 0.21723 0.94426 0.65275 0.0
H488 H 0.2706 0.95294 0.65591 0.0
H489 H 0.27859 0.97705 0.56623 0.0
H490 H 0.22522 0.96807 0.56248 0.0
H491 H 0.06285 1.0077 0.59146 0.0
H492 H 0.09329 0.98109 0.61674 0.0
H493 H 0.15477 0.99134 0.54399 0.0
H494 H 0.12407 1.0177 0.51867 0.0
H495 H 0.1814 0.98935 0.59536 0.0
H496 H 0.09952 0.93914 0.5437 0.0
H497 H 0.04742 0.9269 0.53322 0.0
H498 H 0.02909 0.90184 0.62185 0.0
H499 H 0.0811 0.9143 0.63293 0.0
C500 C 0.22489 0.87928 0.5851 0.0
C501 C 0.23269 0.87156 0.61257 0.0
C502 C 0.20211 0.89339 0.58291 0.0
C503 C 0.18706 0.89982 0.60815 0.0
C504 C 0.19268 0.88967 0.63517 0.0
C505 C 0.21557 0.87557 0.63741 0.0
C506 C 0.17057 0.92177 0.60683 0.0
C507 C 0.14061 0.91565 0.60337 0.0
C508 C 0.18541 0.94858 0.60467 0.0
C509 C 0.21734 0.9554 0.60733 0.0
C510 C 0.23041 0.95136 0.63372 0.0
C511 C 0.26064 0.95629 0.6356 0.0
C512 C 0.27799 0.96549 0.61127 0.0
C513 C 0.26513 0.96993 0.58506 0.0
C514 C 0.2349 0.96496 0.58306 0.0
C515 C 0.08301 1.00442 0.58115 0.0
C516 C 0.09087 1.01365 0.55291 0.0
C517 C 0.10047 0.98958 0.59567 0.0
C518 C 0.12576 0.98382 0.58181 0.0
C519 C 0.13516 0.99557 0.55489 0.0
C520 C 0.11773 1.01055 0.54046 0.0
C521 C 0.14019 0.96265 0.59298 0.0
C522 C 0.16999 0.96882 0.59784 0.0
C523 C 0.12519 0.93583 0.59598 0.0
C524 C 0.09407 0.92792 0.58922 0.0
C525 C 0.08433 0.93117 0.56098 0.0
C526 C 0.05485 0.92418 0.55493 0.0
C527 C 0.03498 0.91361 0.57687 0.0
C528 C 0.04453 0.91004 0.6049 0.0
C529 C 0.07399 0.91705 0.61107 0.0
H530 H 1.0122 0.90801 0.57213 0.0
H531 H 0.3014 0.9692 0.61274 0.0
H532 H 0.7527 0.35267 0.85205 0.0
H533 H 0.79734 0.37503 0.87496 0.0
H534 H 0.74886 0.42852 0.92151 0.0
H535 H 0.70474 0.40731 0.89667 0.0
H536 H 0.7957 0.45672 0.91099 0.0
H537 H 0.77947 0.36667 0.95088 0.0
H538 H 0.77246 0.31703 0.94824 0.0
H539 H 0.85413 0.32132 0.90177 0.0
H540 H 0.86145 0.37097 0.90388 0.0
H541 H 0.90979 0.51092 1.00707 0.0
H542 H 0.86502 0.48865 0.98481 0.0
H543 H 0.91129 0.42997 0.94457 0.0
H544 H 0.95506 0.45049 0.97004 0.0
H545 H 0.86501 0.4042 0.95157 0.0
H546 H 0.88127 0.49452 0.91075 0.0
H547 H 0.88769 0.54419 0.91268 0.0
H548 H 0.80611 0.53962 0.95936 0.0
H549 H 0.79941 0.49001 0.95805 0.0
C550 C 0.75165 0.36938 0.86699 0.0
C551 C 0.725 0.37822 0.87225 0.0
C552 C 0.77731 0.38203 0.88065 0.0
C553 C 0.77716 0.40337 0.90111 0.0
C554 C 0.75033 0.41225 0.90611 0.0
C555 C 0.72483 0.40003 0.89186 0.0
C556 C 0.80461 0.41675 0.91682 0.0
C557 C 0.81058 0.44501 0.9201 0.0
C558 C 0.8252 0.40225 0.92839 0.0
C559 C 0.82085 0.37247 0.92733 0.0
C560 C 0.79584 0.357 0.94 0.0
C561 C 0.79183 0.32887 0.9386 0.0
C562 C 0.8128 0.31603 0.92478 0.0
C563 C 0.83789 0.33128 0.91243 0.0
C564 C 0.84199 0.3594 0.91374 0.0
C565 C 0.91037 0.49318 0.99355 0.0
C566 C 0.93631 0.48269 0.99043 0.0
C567 C 0.88457 0.48052 0.98012 0.0
C568 C 0.88398 0.45776 0.96142 0.0
C569 C 0.91018 0.44733 0.9585 0.0
C570 C 0.9356 0.45925 0.97307 0.0
C571 C 0.85645 0.44439 0.94559 0.0
C572 C 0.85037 0.41605 0.94233 0.0
C573 C 0.83584 0.45886 0.93384 0.0
C574 C 0.84 0.48862 0.93453 0.0
C575 C 0.8648 0.50415 0.92152 0.0
C576 C 0.86847 0.53228 0.92252 0.0
C577 C 0.84733 0.54501 0.9362 0.0
C578 C 0.82247 0.5297 0.94884 0.0
C579 C 0.81873 0.50162 0.94797 0.0
H580 H 0.85005 0.56672 0.93701 0.0
H581 H 0.80964 0.29426 0.9237 0.0
H582 H 0.78751 0.64876 0.34191 0.0
H583 H 0.74184 0.62709 0.36554 0.0
H584 H 0.78015 0.64251 0.44982 0.0
H585 H 0.82578 0.66439 0.42633 0.0
H586 H 0.74913 0.59019 0.44487 0.0
H587 H 0.73231 0.67971 0.42848 0.0
H588 H 0.7293 0.72002 0.39982 0.0
H589 H 0.66526 0.6733 0.34573 0.0
H590 H 0.6682 0.63261 0.37385 0.0
H591 H 0.62302 0.56207 0.53649 0.0
H592 H 0.66753 0.58199 0.51036 0.0
H593 H 0.62142 0.57574 0.42977 0.0
H594 H 0.57632 0.55608 0.45627 0.0
H595 H 0.65628 0.62255 0.43107 0.0
H596 H 0.67207 0.53321 0.44693 0.0
H597 H 0.67523 0.49222 0.47433 0.0
H598 H 0.74135 0.53712 0.5275 0.0
H599 H 0.73829 0.57849 0.50066 0.0
C600 C 0.78633 0.64744 0.36548 0.0
C601 C 0.81059 0.65843 0.38207 0.0
C602 C 0.76002 0.63517 0.37904 0.0
C603 C 0.75717 0.63317 0.40964 0.0
C604 C 0.78151 0.64373 0.42624 0.0
C605 C 0.80767 0.6564 0.41272 0.0
C606 C 0.72904 0.61995 0.42428 0.0
C607 C 0.72893 0.59753 0.44211 0.0
C608 C 0.70224 0.62877 0.42021 0.0
C609 C 0.70073 0.65307 0.40304 0.0
C610 C 0.71782 0.67798 0.41027 0.0
C611 C 0.71607 0.70091 0.39418 0.0
C612 C 0.69717 0.69921 0.37091 0.0
C613 C 0.67994 0.67458 0.36372 0.0
C614 C 0.68163 0.65158 0.37973 0.0
C615 C 0.62228 0.56469 0.51314 0.0
C616 C 0.59592 0.55721 0.49859 0.0
C617 C 0.64798 0.57605 0.49807 0.0
C618 C 0.64844 0.58018 0.46774 0.0
C619 C 0.62204 0.57278 0.45307 0.0
C620 C 0.59618 0.56132 0.46823 0.0
C621 C 0.67627 0.59269 0.45181 0.0
C622 C 0.6764 0.61505 0.43377 0.0
C623 C 0.7031 0.58368 0.4555 0.0
C624 C 0.70472 0.55898 0.47199 0.0
C625 C 0.68708 0.53439 0.46465 0.0
C626 C 0.6889 0.51108 0.48004 0.0
C627 C 0.70842 0.51208 0.5027 0.0
C628 C 0.7262 0.53639 0.50998 0.0
C629 C 0.72444 0.55977 0.49468 0.0
H630 H 0.70982 0.494 0.51456 0.0
H631 H 0.6958 0.71699 0.3585 0.0
H632 H 0.27477 0.27533 0.16872 0.0
H633 H 0.24322 0.3047 0.15044 0.0
H634 H 0.29843 0.37381 0.18785 0.0
H635 H 0.32896 0.34382 0.20787 0.0
H636 H 0.24572 0.37807 0.19887 0.0
H637 H 0.29588 0.35934 0.11106 0.0
H638 H 0.31578 0.3304 0.07466 0.0
H639 H 0.22968 0.28931 0.05658 0.0
H640 H 0.20927 0.31771 0.09322 0.0
H641 H 0.15698 0.4598 0.12794 0.0
H642 H 0.19932 0.44074 0.14213 0.0
H643 H 0.15442 0.3612 0.11938 0.0
H644 H 0.11313 0.38023 0.10367 0.0
H645 H 0.20876 0.36921 0.09821 0.0
H646 H 0.16037 0.3852 0.19104 0.0
H647 H 0.1413 0.41428 0.22792 0.0
H648 H 0.22617 0.46222 0.23549 0.0
H649 H 0.24565 0.43361 0.19835 0.0
C650 C 0.28057 0.2969 0.17217 0.0
C651 C 0.30471 0.30764 0.18862 0.0
C652 C 0.26256 0.31369 0.16182 0.0
C653 C 0.26889 0.34164 0.167 0.0
C654 C 0.29333 0.35239 0.18324 0.0
C655 C 0.31097 0.33543 0.19426 0.0
C656 C 0.24907 0.35922 0.15658 0.0
C657 C 0.23814 0.37656 0.17667 0.0
C658 C 0.23895 0.35718 0.12769 0.0
C659 C 0.25106 0.34065 0.10492 0.0
C660 C 0.28119 0.34411 0.09935 0.0
C661 C 0.29256 0.32777 0.0787 0.0
C662 C 0.27401 0.30803 0.06332 0.0
C663 C 0.24402 0.30464 0.06849 0.0
C664 C 0.23254 0.32089 0.08915 0.0
C665 C 0.15643 0.43833 0.12567 0.0
C666 C 0.13183 0.42155 0.11466 0.0
C667 C 0.18042 0.42743 0.13406 0.0
C668 C 0.17992 0.39952 0.13194 0.0
C669 C 0.15529 0.38279 0.12113 0.0
C670 C 0.13155 0.39367 0.1125 0.0
C671 C 0.20487 0.38732 0.14071 0.0
C672 C 0.21682 0.37106 0.12025 0.0
C673 C 0.21608 0.39058 0.16912 0.0
C674 C 0.20439 0.40746 0.19173 0.0
C675 C 0.17491 0.40204 0.20045 0.0
C676 C 0.16404 0.41843 0.22141 0.0
C677 C 0.18249 0.44013 0.23398 0.0
C678 C 0.21189 0.44543 0.2257 0.0
C679 C 0.22286 0.42914 0.20472 0.0
H680 H 0.17403 0.4528 0.25018 0.0
H681 H 0.28286 0.29537 0.04738 0.0
H682 H 0.61702 0.28166 0.83524 0.0
H683 H 0.59572 0.23868 0.85736 0.0
H684 H 0.64325 0.26138 0.93544 0.0
H685 H 0.66341 0.3046 0.91453 0.0
H686 H 0.64587 0.21021 0.9242 0.0
H687 H 0.56721 0.26012 0.93048 0.0
H688 H 0.53217 0.28646 0.91156 0.0
H689 H 0.49802 0.22055 0.85488 0.0
H690 H 0.53312 0.19393 0.87323 0.0
H691 H 0.57101 0.09913 1.01168 0.0
H692 H 0.59362 0.14317 0.99175 0.0
H693 H 0.53687 0.1296 0.9185 0.0
H694 H 0.51368 0.08684 0.93899 0.0
H695 H 0.53979 0.17728 0.92831 0.0
H696 H 0.61879 0.12745 0.91988 0.0
H697 H 0.65432 0.1009 0.93741 0.0
H698 H 0.68839 0.16549 0.99577 0.0
H699 H 0.65285 0.1923 0.9788 0.0
C700 C 0.62285 0.278 0.85728 0.0
C701 C 0.64273 0.29756 0.87237 0.0
C702 C 0.61055 0.25295 0.87004 0.0
C703 C 0.61756 0.24613 0.89846 0.0
C704 C 0.63734 0.26546 0.91351 0.0
C705 C 0.64927 0.29057 0.90103 0.0
C706 C 0.6044 0.21927 0.91269 0.0
C707 C 0.6226 0.20323 0.92527 0.0
C708 C 0.57406 0.20923 0.91405 0.0
C709 C 0.55296 0.22515 0.90302 0.0
C710 C 0.55236 0.25133 0.91383 0.0
C711 C 0.53247 0.26629 0.90324 0.0
C712 C 0.51293 0.25521 0.88198 0.0
C713 C 0.5132 0.22911 0.87132 0.0
C714 C 0.53307 0.21407 0.88182 0.0
C715 C 0.56349 0.10548 0.99124 0.0
C716 C 0.54044 0.08889 0.97703 0.0
C717 C 0.57666 0.13085 0.97955 0.0
C718 C 0.56768 0.1404 0.95289 0.0
C719 C 0.54468 0.12357 0.93894 0.0
C720 C 0.53138 0.09863 0.95074 0.0
C721 C 0.58124 0.16767 0.93947 0.0
C722 C 0.56309 0.18398 0.92714 0.0
C723 C 0.61167 0.17779 0.93807 0.0
C724 C 0.63298 0.16173 0.94831 0.0
C725 C 0.63375 0.1359 0.93659 0.0
C726 C 0.6539 0.12083 0.9464 0.0
C727 C 0.67354 0.13147 0.96776 0.0
C728 C 0.67313 0.15725 0.97928 0.0
C729 C 0.65301 0.1724 0.96956 0.0
H730 H 0.68913 0.11977 0.97532 0.0
H731 H 0.49754 0.26682 0.87382 0.0
H732 H 0.90826 0.72072 0.41602 0.0
H733 H 0.92883 0.76381 0.43887 0.0
H734 H 0.89834 0.80592 0.36812 0.0
H735 H 0.87982 0.76258 0.34429 0.0
H736 H 0.94454 0.83408 0.38102 0.0
H737 H 0.8659 0.79583 0.44799 0.0
H738 H 0.83986 0.76096 0.48092 0.0
H739 H 0.91609 0.76572 0.53209 0.0
H740 H 0.94259 0.80046 0.49935 0.0
H741 H 0.96906 0.96353 0.4508 0.0
H742 H 0.94886 0.92073 0.42757 0.0
H743 H 0.97259 0.8783 0.50168 0.0
H744 H 0.98962 0.92145 0.52616 0.0
H745 H 0.92963 0.85 0.48681 0.0
H746 H 1.00918 0.88677 0.42059 0.0
H747 H 0.03677 0.9208 0.38764 0.0
H748 H 0.96159 0.91802 0.33534 0.0
H749 H 0.93357 0.88412 0.36806 0.0
C750 C 0.90631 0.73921 0.40515 0.0
C751 C 0.89265 0.73803 0.37805 0.0
C752 C 0.91767 0.76411 0.41858 0.0
C753 C 0.91468 0.7889 0.40608 0.0
C754 C 0.90119 0.78757 0.37872 0.0
C755 C 0.89053 0.76263 0.36492 0.0
C756 C 0.92584 0.81603 0.42092 0.0
C757 C 0.94085 0.83747 0.40414 0.0
C758 C 0.92228 0.82112 0.45136 0.0
C759 C 0.90623 0.8005 0.47111 0.0
C760 C 0.87709 0.78934 0.46621 0.0
C761 C 0.86227 0.76962 0.48485 0.0
C762 C 0.87634 0.76108 0.50854 0.0
C763 C 0.90522 0.77233 0.51373 0.0
C764 C 0.92013 0.79205 0.49518 0.0
C765 C 0.96979 0.94505 0.46224 0.0
C766 C 0.98099 0.94615 0.49054 0.0
C767 C 0.95863 0.92021 0.44858 0.0
C768 C 0.95977 0.89531 0.4619 0.0
C769 C 0.97108 0.89663 0.49032 0.0
C770 C 0.98105 0.92152 0.50449 0.0
C771 C 0.94866 0.86814 0.44698 0.0
C772 C 0.93353 0.84668 0.46371 0.0
C773 C 0.95241 0.86294 0.41654 0.0
C774 C 0.96928 0.88315 0.39687 0.0
C775 C 0.99856 0.89352 0.40211 0.0
C776 C 1.01426 0.91276 0.38347 0.0
C777 C 1.00092 0.92162 0.35946 0.0
C778 C 0.97189 0.91117 0.35395 0.0
C779 C 0.95611 0.89192 0.37249 0.0
H780 H 1.0131 0.93654 0.34509 0.0
H781 H 0.86484 0.74577 0.5229 0.0
H782 H 0.30217 0.79078 0.6146 0.0
H783 H 0.32772 0.75874 0.58863 0.0
H784 H 0.34491 0.81272 0.51568 0.0
H785 H 0.31928 0.84503 0.54193 0.0
H786 H 0.32573 0.73574 0.52397 0.0
H787 H 0.40079 0.82451 0.5215 0.0
H788 H 0.41682 0.86822 0.5464 0.0
H789 H 0.41607 0.82799 0.62832 0.0
H790 H 0.39983 0.78413 0.60384 0.0
H791 H 0.44108 0.65883 0.505 0.0
H792 H 0.41289 0.69438 0.49566 0.0
H793 H 0.41901 0.71899 0.58628 0.0
H794 H 0.44678 0.68362 0.59576 0.0
H795 H 0.42893 0.76155 0.551 0.0
H796 H 0.35969 0.67895 0.56348 0.0
H797 H 0.3374 0.63211 0.55178 0.0
H798 H 0.32038 0.65545 0.46519 0.0
H799 H 0.34294 0.70241 0.47634 0.0
C800 C 0.31052 0.79521 0.59258 0.0
C801 C 0.30884 0.81984 0.57982 0.0
C802 C 0.32489 0.77702 0.5778 0.0
C803 C 0.33782 0.78353 0.55032 0.0
C804 C 0.33465 0.80748 0.53677 0.0
C805 C 0.32017 0.82575 0.55162 0.0
C806 C 0.35895 0.76751 0.53918 0.0
C807 C 0.34863 0.74158 0.52849 0.0
C808 C 0.38833 0.77508 0.5465 0.0
C809 C 0.39913 0.80123 0.5609 0.0
C810 C 0.40411 0.82508 0.5448 0.0
C811 C 0.41317 0.84983 0.55884 0.0
C812 C 0.41744 0.85088 0.58893 0.0
C813 C 0.41277 0.82716 0.60502 0.0
C814 C 0.40368 0.80237 0.59109 0.0
C815 C 0.43638 0.67192 0.52283 0.0
C816 C 0.4461 0.66869 0.55107 0.0
C817 C 0.42048 0.69217 0.51744 0.0
C818 C 0.41413 0.70921 0.54027 0.0
C819 C 0.42414 0.70618 0.56834 0.0
C820 C 0.43997 0.68604 0.57372 0.0
C821 C 0.3958 0.7295 0.5358 0.0
C822 C 0.40663 0.7561 0.54415 0.0
C823 C 0.36664 0.72219 0.52731 0.0
C824 C 0.35344 0.694 0.52053 0.0
C825 C 0.35149 0.674 0.54185 0.0
C826 C 0.33875 0.64747 0.53535 0.0
C827 C 0.32762 0.64078 0.5077 0.0
C828 C 0.32912 0.66064 0.48654 0.0
C829 C 0.3419 0.6872 0.49293 0.0
H830 H 0.31773 0.62022 0.50271 0.0
H831 H 0.42439 0.87007 0.59976 0.0
H832 H 0.69498 0.81179 0.76438 0.0
H833 H 0.72646 0.83487 0.72626 0.0
H834 H 0.79329 0.78962 0.74718 0.0
H835 H 0.76466 0.77019 0.78799 0.0
H836 H 0.81501 0.8381 0.74751 0.0
H837 H 0.75162 0.78211 0.68061 0.0
H838 H 0.70457 0.76331 0.6591 0.0
H839 H 0.69193 0.8429 0.63732 0.0
H840 H 0.73874 0.86218 0.65906 0.0
H841 H 0.91622 0.87591 0.63624 0.0
H842 H 0.87451 0.84611 0.6581 0.0
H843 H 0.82445 0.91036 0.65713 0.0
H844 H 0.86608 0.94025 0.63519 0.0
H845 H 0.79314 0.85467 0.64482 0.0
H846 H 0.85581 0.90955 0.71421 0.0
H847 H 0.90336 0.92783 0.735 0.0
H848 H 0.91776 0.84759 0.75107 0.0
H849 H 0.87043 0.82884 0.72999 0.0
C850 C 0.71644 0.80684 0.76113 0.0
C851 C 0.72704 0.78914 0.77988 0.0
C852 C 0.73418 0.81966 0.73879 0.0
C853 C 0.76217 0.81387 0.73388 0.0
C854 C 0.77177 0.79449 0.75075 0.0
C855 C 0.75483 0.78284 0.77392 0.0
C856 C 0.78304 0.83006 0.71386 0.0
C857 C 0.81027 0.84115 0.7249 0.0
C858 C 0.77652 0.83512 0.68476 0.0
C859 C 0.74849 0.82356 0.67168 0.0
C860 C 0.73868 0.79559 0.67142 0.0
C861 C 0.71209 0.78486 0.65916 0.0
C862 C 0.69524 0.8019 0.64691 0.0
C863 C 0.70498 0.82972 0.64684 0.0
C864 C 0.73154 0.84056 0.6591 0.0
C865 C 0.89596 0.88328 0.63977 0.0
C866 C 0.89406 0.91017 0.63441 0.0
C867 C 0.87233 0.86637 0.65218 0.0
C868 C 0.84684 0.87637 0.65912 0.0
C869 C 0.8441 0.90253 0.65159 0.0
C870 C 0.86778 0.91951 0.63938 0.0
C871 C 0.82495 0.86109 0.67829 0.0
C872 C 0.79763 0.85093 0.66733 0.0
C873 C 0.83137 0.85654 0.70743 0.0
C874 C 0.85976 0.86781 0.72023 0.0
C875 C 0.86924 0.89581 0.72193 0.0
C876 C 0.89612 0.90626 0.73382 0.0
C877 C 0.91361 0.88888 0.74427 0.0
C878 C 0.90422 0.86103 0.74293 0.0
C879 C 0.87737 0.85048 0.73103 0.0
H880 H 0.9344 0.897 0.75348 0.0
H881 H 0.67465 0.79354 0.63743 0.0
H882 H 0.718 0.13456 0.3821 0.0
H883 H 0.69226 0.1202 0.33763 0.0
H884 H 0.67118 0.19969 0.32871 0.0
H885 H 0.69752 0.21442 0.3733 0.0
H886 H 0.62484 0.15812 0.31985 0.0
H887 H 0.72231 0.1844 0.2858 0.0
H888 H 0.77548 0.18746 0.28448 0.0
H889 H 0.76565 0.10194 0.27066 0.0
H890 H 0.71239 0.09828 0.27237 0.0
H891 H 0.59476 0.11989 0.16736 0.0
H892 H 0.60965 0.14379 0.21298 0.0
H893 H 0.62903 0.07026 0.24824 0.0
H894 H 0.61422 0.04632 0.20285 0.0
H895 H 0.67646 0.11664 0.23984 0.0
H896 H 0.57879 0.09054 0.27943 0.0
H897 H 0.5257 0.08799 0.27963 0.0
H898 H 0.53668 0.17436 0.28138 0.0
H899 H 0.58991 0.17741 0.28066 0.0
C900 C 0.70812 0.14903 0.37049 0.0
C901 C 0.70993 0.17565 0.38061 0.0
C902 C 0.69344 0.14083 0.34529 0.0
C903 C 0.68057 0.15919 0.32993 0.0
C904 C 0.6814 0.18552 0.34041 0.0
C905 C 0.69622 0.19381 0.36572 0.0
C906 C 0.66613 0.15034 0.30295 0.0
C907 C 0.63612 0.14959 0.30197 0.0
C908 C 0.68119 0.1391 0.28009 0.0
C909 C 0.71329 0.14108 0.27938 0.0
C910 C 0.73146 0.16621 0.28275 0.0
C911 C 0.76163 0.16805 0.28188 0.0
C912 C 0.77393 0.14491 0.27752 0.0
C913 C 0.75609 0.11986 0.27403 0.0
C914 C 0.72589 0.11789 0.27492 0.0
C915 C 0.6015 0.10883 0.18525 0.0
C916 C 0.60368 0.08154 0.18201 0.0
C917 C 0.60973 0.12234 0.2111 0.0
C918 C 0.62022 0.10851 0.23347 0.0
C919 C 0.62066 0.08089 0.23095 0.0
C920 C 0.61224 0.06735 0.20525 0.0
C921 C 0.63513 0.12351 0.25742 0.0
C922 C 0.66531 0.1256 0.25754 0.0
C923 C 0.62026 0.13604 0.27928 0.0
C924 C 0.58831 0.1342 0.2796 0.0
C925 C 0.56989 0.10899 0.27949 0.0
C926 C 0.53978 0.10745 0.27978 0.0
C927 C 0.52782 0.131 0.28042 0.0
C928 C 0.54597 0.15614 0.28082 0.0
C929 C 0.57611 0.15778 0.28048 0.0
H930 H 0.50449 0.12977 0.28069 0.0
H931 H 0.7973 0.14639 0.27679 0.0
H932 H 0.39255 0.70776 0.28753 0.0
H933 H 0.4099 0.68676 0.32965 0.0
H934 H 0.40614 0.61255 0.28049 0.0
H935 H 0.38621 0.63301 0.23948 0.0
H936 H 0.39584 0.59553 0.32769 0.0
H937 H 0.47567 0.6682 0.3067 0.0
H938 H 0.49895 0.71547 0.29896 0.0
H939 H 0.46891 0.73719 0.38401 0.0
H940 H 0.4453 0.69009 0.39213 0.0
H941 H 0.48349 0.53448 0.42346 0.0
H942 H 0.46463 0.5575 0.38377 0.0
H943 H 0.45319 0.62272 0.4424 0.0
H944 H 0.47283 0.59978 0.48233 0.0
H945 H 0.4705 0.64475 0.3925 0.0
H946 H 0.39354 0.57044 0.41332 0.0
H947 H 0.37203 0.52267 0.42051 0.0
H948 H 0.39954 0.50352 0.33365 0.0
H949 H 0.42147 0.55114 0.32608 0.0
C950 C 0.39552 0.68697 0.28556 0.0
C951 C 0.38785 0.67243 0.25947 0.0
C952 C 0.40604 0.67478 0.30993 0.0
C953 C 0.41082 0.64769 0.30914 0.0
C954 C 0.40311 0.63328 0.28284 0.0
C955 C 0.39167 0.6452 0.25887 0.0
C956 C 0.42289 0.63408 0.33528 0.0
C957 C 0.41262 0.60655 0.34122 0.0
C958 C 0.44431 0.64758 0.35467 0.0
C959 C 0.45856 0.67576 0.34989 0.0
C960 C 0.47398 0.68311 0.32368 0.0
C961 C 0.48722 0.70985 0.31924 0.0
C962 C 0.48535 0.72933 0.34095 0.0
C963 C 0.47031 0.72209 0.3672 0.0
C964 C 0.45704 0.69539 0.37175 0.0
C965 C 0.47693 0.55369 0.42824 0.0
C966 C 0.47984 0.56482 0.45681 0.0
C967 C 0.46573 0.56697 0.40517 0.0
C968 C 0.45649 0.59209 0.40934 0.0
C969 C 0.45973 0.60346 0.43784 0.0
C970 C 0.47099 0.59012 0.46102 0.0
C971 C 0.44389 0.6063 0.38418 0.0
C972 C 0.45393 0.63387 0.37862 0.0
C973 C 0.42262 0.59277 0.36483 0.0
C974 C 0.40933 0.56425 0.36925 0.0
C975 C 0.39512 0.55599 0.39583 0.0
C976 C 0.38284 0.52896 0.39995 0.0
C977 C 0.38448 0.51006 0.37757 0.0
C978 C 0.39832 0.51817 0.35098 0.0
C979 C 0.41063 0.54518 0.34674 0.0
H980 H 0.37498 0.48914 0.38083 0.0
H981 H 0.49559 0.75002 0.33746 0.0
H982 H 0.09916 0.37496 0.74113 0.0
H983 H 0.07851 0.39695 0.78301 0.0
H984 H 0.16423 0.42238 0.81614 0.0
H985 H 0.18493 0.40049 0.77442 0.0
H986 H 0.12674 0.40493 0.86098 0.0
H987 H 0.12614 0.46659 0.78214 0.0
H988 H 0.11366 0.48067 0.73355 0.0
H989 H 0.02289 0.45885 0.75566 0.0
H990 H 0.03485 0.44426 0.80424 0.0
H991 H 0.08714 0.4946 0.9738 0.0
H992 H 0.10806 0.47101 0.93351 0.0
H993 H 0.02923 0.46763 0.88592 0.0
H994 H 1.0098 0.49345 0.92511 0.0
H995 H 0.06412 0.47322 0.84744 0.0
H996 H 0.06183 0.40901 0.92401 0.0
H997 H 0.07191 0.39216 0.97218 0.0
H998 H 0.16357 0.41379 0.95445 0.0
H999 H 0.15401 0.4311 0.90634 0.0
C1000 C 0.11372 0.38506 0.75736 0.0
C1001 C 0.14397 0.38577 0.75382 0.0
C1002 C 0.1018 0.39796 0.78143 0.0
C1003 C 0.11956 0.41189 0.80322 0.0
C1004 C 0.14969 0.41207 0.80002 0.0
C1005 C 0.16163 0.39953 0.77579 0.0
C1006 C 0.10699 0.42618 0.82916 0.0
C1007 C 0.11324 0.42005 0.85791 0.0
C1008 C 0.08857 0.44554 0.82596 0.0
C1009 C 0.0814 0.45409 0.7967 0.0
C1010 C 0.10353 0.46457 0.77654 0.0
C1011 C 0.09654 0.47268 0.74901 0.0
C1012 C 0.0675 0.47059 0.74149 0.0
C1013 C 0.04537 0.46041 0.76149 0.0
C1014 C 0.05224 0.45222 0.78902 0.0
C1015 C 0.07405 0.48836 0.95498 0.0
C1016 C 0.04632 0.49557 0.95334 0.0
C1017 C 0.08604 0.47451 0.9316 0.0
C1018 C 0.07044 0.46631 0.90589 0.0
C1019 C 0.04244 0.47328 0.90478 0.0
C1020 C 0.03093 0.48789 0.92766 0.0
C1021 C 0.08322 0.45171 0.87989 0.0
C1022 C 0.07726 0.45791 0.85091 0.0
C1023 C 0.10138 0.4319 0.88292 0.0
C1024 C 0.10719 0.42166 0.9118 0.0
C1025 C 0.08412 0.41035 0.93051 0.0
C1026 C 0.08975 0.4007 0.95777 0.0
C1027 C 0.11836 0.40201 0.96642 0.0
C1028 C 0.14142 0.41287 0.94777 0.0
C1029 C 0.13591 0.4226 0.92051 0.0
H1030 H 0.12267 0.39453 0.98755 0.0
H1031 H 0.06214 0.47693 0.72019 0.0
H1032 H 0.63232 0.80118 0.83532 0.0
H1033 H 0.60552 0.8344 0.85726 0.0
H1034 H 0.67223 0.85513 0.92103 0.0
H1035 H 0.69811 0.82074 0.90001 0.0
H1036 H 0.6229 0.85529 0.94629 0.0
H1037 H 0.66646 0.89279 0.85572 0.0
H1038 H 0.67588 0.89325 0.80249 0.0
H1039 H 0.58489 0.8889 0.78802 0.0
H1040 H 0.5749 0.88799 0.84115 0.0
H1041 H 0.59844 0.98302 0.99084 0.0
H1042 H 0.62015 0.94795 0.96621 0.0
H1043 H 0.54315 0.9251 0.91577 0.0
H1044 H 0.52107 0.96041 0.9403 0.0
H1045 H 0.59397 0.92466 0.88327 0.0
H1046 H 0.55142 0.8905 0.97432 0.0
H1047 H 0.54271 0.89155 0.02758 0.0
H1048 H 0.63293 0.89051 0.04123 0.0
H1049 H 0.64231 0.8901 0.98802 0.0
C1050 C 0.64087 0.81259 0.85435 0.0
C1051 C 0.66701 0.80843 0.86625 0.0
C1052 C 0.62579 0.83175 0.86665 0.0
C1053 C 0.63717 0.84775 0.8904 0.0
C1054 C 0.66301 0.84308 0.9027 0.0
C1055 C 0.67775 0.82345 0.8908 0.0
C1056 C 0.62245 0.86957 0.9023 0.0
C1057 C 0.61693 0.87062 0.9325 0.0
C1058 C 0.61382 0.88919 0.88427 0.0
C1059 C 0.61991 0.89004 0.85237 0.0
C1060 C 0.64846 0.89177 0.84117 0.0
C1061 C 0.65389 0.89212 0.81102 0.0
C1062 C 0.63099 0.89103 0.79188 0.0
C1063 C 0.60261 0.88969 0.80286 0.0
C1064 C 0.59705 0.88926 0.83298 0.0
C1065 C 0.58618 0.97088 0.97419 0.0
C1066 C 0.55788 0.97443 0.96765 0.0
C1067 C 0.59862 0.95073 0.96026 0.0
C1068 C 0.58301 0.93365 0.93962 0.0
C1069 C 0.55544 0.93803 0.9318 0.0
C1070 C 0.5429 0.95823 0.94579 0.0
C1071 C 0.59513 0.91059 0.92716 0.0
C1072 C 0.59997 0.90926 0.89694 0.0
C1073 C 0.60331 0.8908 0.94516 0.0
C1074 C 0.59761 0.89055 0.97718 0.0
C1075 C 0.56945 0.89071 0.98868 0.0
C1076 C 0.56439 0.89119 1.01886 0.0
C1077 C 0.58726 0.89116 0.03778 0.0
C1078 C 0.61524 0.89058 1.02655 0.0
C1079 C 0.62044 0.89024 0.99638 0.0
H1080 H 0.58331 0.89153 0.06115 0.0
H1081 H 0.63524 0.89129 0.76855 0.0
H1082 H 0.81762 0.2056 0.46214 0.0
H1083 H 0.85963 0.18451 0.47194 0.0
H1084 H 0.81833 0.11125 0.42942 0.0
H1085 H 0.77584 0.13152 0.42111 0.0
H1086 H 0.83694 0.1014 0.4807 0.0
H1087 H 0.87549 0.15083 0.39664 0.0
H1088 H 0.88756 0.19106 0.36589 0.0
H1089 H 0.94434 0.23052 0.43139 0.0
H1090 H 0.93225 0.19063 0.46274 0.0
H1091 H 0.95839 0.0367 0.47731 0.0
H1092 H 0.93222 0.06727 0.45216 0.0
H1093 H 0.9377 0.11923 0.52828 0.0
H1094 H 0.9635 0.08861 0.55372 0.0
H1095 H 0.93981 0.13945 0.45567 0.0
H1096 H 0.88297 0.09206 0.54334 0.0
H1097 H 0.87137 0.05017 0.57171 0.0
H1098 H 0.85003 1.00466 0.49285 0.0
H1099 H 0.8619 0.04633 0.46408 0.0
C1100 C 0.81762 0.18501 0.45498 0.0
C1101 C 0.79372 0.17018 0.44084 0.0
C1102 C 0.84163 0.17316 0.46021 0.0
C1103 C 0.84199 0.14655 0.451 0.0
C1104 C 0.81835 0.1319 0.43646 0.0
C1105 C 0.79428 0.14356 0.43156 0.0
C1106 C 0.86601 0.13317 0.45853 0.0
C1107 C 0.85934 0.1096 0.47484 0.0
C1108 C 0.89516 0.144 0.45099 0.0
C1109 C 0.90284 0.16784 0.43209 0.0
C1110 C 0.89042 0.16816 0.40455 0.0
C1111 C 0.89727 0.19088 0.38701 0.0
C1112 C 0.91667 0.21335 0.3967 0.0
C1113 C 0.92931 0.2131 0.42392 0.0
C1114 C 0.9225 0.19043 0.44157 0.0
C1115 C 0.95455 0.055 0.48833 0.0
C1116 C 0.96212 0.06024 0.51749 0.0
C1117 C 0.9401 0.07251 0.47387 0.0
C1118 C 0.93346 0.09531 0.48853 0.0
C1119 C 0.94319 0.10177 0.51675 0.0
C1120 C 0.95732 0.08411 0.53134 0.0
C1121 C 0.91041 0.10812 0.47774 0.0
C1122 C 0.91728 0.1314 0.46108 0.0
C1123 C 0.8813 0.09693 0.48444 0.0
C1124 C 0.87342 0.07211 0.50167 0.0
C1125 C 0.87584 0.07307 0.53213 0.0
C1126 C 0.86927 0.04941 0.54825 0.0
C1127 C 0.86003 0.02476 0.53408 0.0
C1128 C 0.85724 1.02375 0.50378 0.0
C1129 C 0.86389 0.04736 0.48757 0.0
H1130 H 0.85498 1.00645 0.54659 0.0
H1131 H 0.92194 0.23094 0.38308 0.0
H1132 H 0.31697 0.6893 0.13916 0.0
H1133 H 0.27244 0.66788 0.11677 0.0
H1134 H 0.251 0.61715 0.19145 0.0
H1135 H 0.29458 0.63983 0.21548 0.0
H1136 H 0.24146 0.58799 0.13892 0.0
H1137 H 0.21473 0.66896 0.18024 0.0
H1138 H 0.21904 0.71793 0.18858 0.0
H1139 H 0.21178 0.72968 0.09672 0.0
H1140 H 0.20782 0.68079 0.08779 0.0
H1141 H 0.09843 0.53011 0.09645 0.0
H1142 H 0.14184 0.55195 0.12115 0.0
H1143 H 0.15058 0.61841 0.06167 0.0
H1144 H 0.10574 0.5973 0.0382 0.0
H1145 H 0.16734 0.6399 0.10731 0.0
H1146 H 0.19618 0.56164 0.06355 0.0
H1147 H 0.19451 0.51344 0.05201 0.0
H1148 H 0.20158 0.49709 0.14289 0.0
H1149 H 0.20275 0.54513 0.15503 0.0
C1150 C 0.30283 0.67421 0.15172 0.0
C1151 C 0.31027 0.66726 0.18009 0.0
C1152 C 0.27705 0.66158 0.13836 0.0
C1153 C 0.25766 0.64087 0.15226 0.0
C1154 C 0.26523 0.63308 0.18 0.0
C1155 C 0.29072 0.64617 0.19376 0.0
C1156 C 0.22986 0.62732 0.13776 0.0
C1157 C 0.22509 0.59934 0.13238 0.0
C1158 C 0.20858 0.64188 0.12802 0.0
C1159 C 0.2113 0.67126 0.13333 0.0
C1160 C 0.21435 0.68202 0.16179 0.0
C1161 C 0.21666 0.70975 0.16663 0.0
C1162 C 0.21577 0.72692 0.14319 0.0
C1163 C 0.21252 0.71637 0.11485 0.0
C1164 C 0.21022 0.68865 0.10989 0.0
C1165 C 0.10958 0.54933 0.0884 0.0
C1166 C 0.09831 0.56158 0.06484 0.0
C1167 C 0.13495 0.56187 0.10253 0.0
C1168 C 0.15086 0.58685 0.09317 0.0
C1169 C 0.13941 0.5992 0.06971 0.0
C1170 C 0.1136 0.58692 0.05598 0.0
C1171 C 0.17874 0.6003 0.10807 0.0
C1172 C 0.1836 0.62834 0.11363 0.0
C1173 C 0.20046 0.58586 0.11736 0.0
C1174 C 0.19928 0.55692 0.11021 0.0
C1175 C 0.19712 0.54772 0.08109 0.0
C1176 C 0.19628 0.52044 0.07444 0.0
C1177 C 0.19792 0.50222 0.09669 0.0
C1178 C 0.20029 0.51122 0.12567 0.0
C1179 C 0.20102 0.53847 0.13245 0.0
H1180 H 0.19744 0.48114 0.09145 0.0
H1181 H 0.21753 0.74838 0.14699 0.0
H1182 H 0.2109 0.37912 0.62963 0.0
H1183 H 0.25627 0.40035 0.60615 0.0
H1184 H 0.29006 0.42762 0.68997 0.0
H1185 H 0.2445 0.40626 0.71378 0.0
H1186 H 0.30694 0.46598 0.65351 0.0
H1187 H 0.31152 0.37146 0.64797 0.0
H1188 H 0.29481 0.32352 0.63576 0.0
H1189 H 0.2917 0.34309 0.54525 0.0
H1190 H 0.30811 0.39118 0.55697 0.0
H1191 H 0.45532 0.50127 0.59802 0.0
H1192 H 0.41051 0.48169 0.62506 0.0
H1193 H 0.37022 0.45469 0.54392 0.0
H1194 H 0.41454 0.47399 0.51715 0.0
H1195 H 0.35784 0.41571 0.58076 0.0
H1196 H 0.35254 0.50981 0.58584 0.0
H1197 H 0.36901 0.5579 0.59742 0.0
H1198 H 0.37317 0.53926 0.6881 0.0
H1199 H 0.3571 0.491 0.67696 0.0
C1200 C 0.22798 0.38931 0.64333 0.0
C1201 C 0.22367 0.39043 0.67395 0.0
C1202 C 0.25421 0.40156 0.6297 0.0
C1203 C 0.27738 0.41527 0.64607 0.0
C1204 C 0.27289 0.41713 0.67655 0.0
C1205 C 0.24656 0.40491 0.69025 0.0
C1206 C 0.30597 0.4278 0.63146 0.0
C1207 C 0.31822 0.45472 0.63798 0.0
C1208 C 0.32085 0.41375 0.61046 0.0
C1209 C 0.31076 0.38491 0.6034 0.0
C1210 C 0.30705 0.36555 0.6255 0.0
C1211 C 0.29768 0.33835 0.61866 0.0
C1212 C 0.29212 0.33028 0.58976 0.0
C1213 C 0.29597 0.34938 0.56763 0.0
C1214 C 0.30534 0.37659 0.57435 0.0
C1215 C 0.43683 0.49132 0.58597 0.0
C1216 C 0.43874 0.48936 0.55527 0.0
C1217 C 0.41105 0.48014 0.60147 0.0
C1218 C 0.38646 0.46665 0.58674 0.0
C1219 C 0.38855 0.46481 0.55611 0.0
C1220 C 0.41408 0.47605 0.5407 0.0
C1221 C 0.35877 0.45389 0.60275 0.0
C1222 C 0.34665 0.42692 0.59643 0.0
C1223 C 0.34402 0.4679 0.62385 0.0
C1224 C 0.35402 0.4968 0.63052 0.0
C1225 C 0.35727 0.51595 0.6082 0.0
C1226 C 0.36646 0.54324 0.61469 0.0
C1227 C 0.37224 0.55162 0.64346 0.0
C1228 C 0.36877 0.53273 0.66581 0.0
C1229 C 0.35962 0.50542 0.65943 0.0
H1230 H 0.37933 0.57276 0.64845 0.0
H1231 H 0.28488 0.30921 0.58451 0.0
H1232 H 0.714 0.70072 0.83378 0.0
H1233 H 0.74872 0.67405 0.85151 0.0
H1234 H 0.77348 0.73347 0.91915 0.0
H1235 H 0.73944 0.76061 0.90099 0.0
H1236 H 0.81972 0.72239 0.88435 0.0
H1237 H 0.73518 0.67229 0.93503 0.0
H1238 H 0.68564 0.64578 0.93646 0.0
H1239 H 0.71327 0.58621 0.87928 0.0
H1240 H 0.76286 0.61264 0.87708 0.0
H1241 H 0.90999 0.66784 0.9737 0.0
H1242 H 0.86981 0.68519 0.95328 0.0
H1243 H 0.85189 0.61544 0.89655 0.0
H1244 H 0.89185 0.59726 0.91784 0.0
H1245 H 0.80204 0.62834 0.91979 0.0
H1246 H 0.88456 0.67398 0.86893 0.0
H1247 H 0.93429 0.69925 0.86225 0.0
H1248 H 0.91117 0.76555 0.91222 0.0
H1249 H 0.8614 0.74047 0.91968 0.0
C1250 C 0.72628 0.70769 0.85294 0.0
C1251 C 0.72395 0.73267 0.8661 0.0
C1252 C 0.7461 0.69247 0.863 0.0
C1253 C 0.76362 0.70184 0.88659 0.0
C1254 C 0.76009 0.72594 0.90089 0.0
C1255 C 0.74033 0.74122 0.89078 0.0
C1256 C 0.78734 0.68782 0.89486 0.0
C1257 C 0.81585 0.70196 0.8925 0.0
C1258 C 0.7823 0.66066 0.90379 0.0
C1259 C 0.75266 0.64453 0.90571 0.0
C1260 C 0.73064 0.65362 0.92261 0.0
C1261 C 0.70256 0.63861 0.92357 0.0
C1262 C 0.6963 0.61435 0.90793 0.0
C1263 C 0.71814 0.60502 0.89137 0.0
C1264 C 0.74624 0.61999 0.89027 0.0
C1265 C 0.89736 0.65589 0.95717 0.0
C1266 C 0.90384 0.63084 0.94784 0.0
C1267 C 0.87453 0.66603 0.94527 0.0
C1268 C 0.858 0.65172 0.92324 0.0
C1269 C 0.86441 0.6268 0.91356 0.0
C1270 C 0.88736 0.61654 0.9256 0.0
C1271 C 0.83435 0.66335 0.91041 0.0
C1272 C 0.80593 0.64875 0.91159 0.0
C1273 C 0.83946 0.68993 0.89963 0.0
C1274 C 0.86929 0.70526 0.89502 0.0
C1275 C 0.89013 0.69388 0.87867 0.0
C1276 C 0.91832 0.70817 0.87473 0.0
C1277 C 0.9259 0.73397 0.88684 0.0
C1278 C 0.90527 0.74555 0.90287 0.0
C1279 C 0.87705 0.73131 0.90694 0.0
H1280 H 0.94775 0.74502 0.88376 0.0
H1281 H 0.67453 0.60276 0.90869 0.0
H1282 H 0.38489 0.73618 0.14025 0.0
H1283 H 0.40466 0.77949 0.11821 0.0
H1284 H 0.42055 0.81484 0.20366 0.0
H1285 H 0.40034 0.77125 0.22601 0.0
H1286 H 0.39857 0.84964 0.16948 0.0
H1287 H 0.47639 0.79976 0.15679 0.0
H1288 H 0.49947 0.76126 0.14127 0.0
H1289 H 0.47783 0.77218 0.05239 0.0
H1290 H 0.45422 0.81052 0.06746 0.0
H1291 H 0.48496 0.97282 0.12275 0.0
H1292 H 0.46559 0.92925 0.1443 0.0
H1293 H 0.46008 0.89242 0.05865 0.0
H1294 H 0.48048 0.93631 0.03698 0.0
H1295 H 0.47622 0.85792 0.09259 0.0
H1296 H 0.39777 0.90642 0.10387 0.0
H1297 H 0.37317 0.94431 0.11813 0.0
H1298 H 0.39362 0.93527 0.20773 0.0
H1299 H 0.41869 0.89753 0.19394 0.0
C1300 C 0.39253 0.75306 0.15458 0.0
C1301 C 0.39074 0.74968 0.18522 0.0
C1302 C 0.40416 0.77807 0.14177 0.0
C1303 C 0.41464 0.80101 0.15891 0.0
C1304 C 0.41285 0.7978 0.18955 0.0
C1305 C 0.40142 0.77259 0.20245 0.0
C1306 C 0.42711 0.82806 0.14484 0.0
C1307 C 0.41587 0.85139 0.153 0.0
C1308 C 0.44913 0.83089 0.12243 0.0
C1309 C 0.46332 0.80787 0.1133 0.0
C1310 C 0.47635 0.79382 0.13397 0.0
C1311 C 0.48956 0.77204 0.12525 0.0
C1312 C 0.49007 0.76424 0.09587 0.0
C1313 C 0.47739 0.77823 0.07515 0.0
C1314 C 0.46411 0.8 0.08376 0.0
C1315 C 0.47948 0.95556 0.10831 0.0
C1316 C 0.48424 0.95858 0.07792 0.0
C1317 C 0.46807 0.93035 0.12079 0.0
C1318 C 0.46042 0.90688 0.10346 0.0
C1319 C 0.46538 0.90979 0.07295 0.0
C1320 C 0.47695 0.93515 0.06041 0.0
C1321 C 0.44775 0.87966 0.11727 0.0
C1322 C 0.45891 0.85626 0.10905 0.0
C1323 C 0.42541 0.87668 0.13942 0.0
C1324 C 0.41031 0.8993 0.14783 0.0
C1325 C 0.39718 0.91263 0.12659 0.0
C1326 C 0.38313 0.93406 0.13458 0.0
C1327 C 0.38188 0.94223 0.16381 0.0
C1328 C 0.39463 0.92894 0.1851 0.0
C1329 C 0.40874 0.90751 0.17721 0.0
H1330 H 0.37099 0.95883 0.16996 0.0
H1331 H 0.50033 0.74739 0.08916 0.0
H1332 H 0.09894 0.30811 0.69259 0.0
H1333 H 0.07872 0.2644 0.67086 0.0
H1334 H 0.16313 0.25663 0.63566 0.0
H1335 H 0.18394 0.29893 0.65861 0.0
H1336 H 0.12138 0.24232 0.59425 0.0
H1337 H 0.13332 0.22015 0.69527 0.0
H1338 H 0.12521 0.22517 0.74834 0.0
H1339 H 0.03305 0.20521 0.73758 0.0
H1340 H 0.04064 0.20039 0.68438 0.0
H1341 H 0.09037 0.10706 0.54223 0.0
H1342 H 0.11026 0.14987 0.56576 0.0
H1343 H 0.03501 0.14186 0.62386 0.0
H1344 H 0.01715 0.09741 0.60239 0.0
H1345 H 0.07118 0.16602 0.65353 0.0
H1346 H 0.05504 0.1894 0.55505 0.0
H1347 H 0.05909 0.18644 0.50134 0.0
H1348 H 0.1519 0.2073 0.50514 0.0
H1349 H 0.14839 0.21016 0.55889 0.0
C1350 C 0.11353 0.29714 0.68068 0.0
C1351 C 0.1434 0.30818 0.67752 0.0
C1352 C 0.10173 0.27194 0.66794 0.0
C1353 C 0.1192 0.25681 0.65128 0.0
C1354 C 0.14885 0.26768 0.64801 0.0
C1355 C 0.16076 0.29248 0.66115 0.0
C1356 C 0.10703 0.22964 0.63755 0.0
C1357 C 0.11056 0.22558 0.60729 0.0
C1358 C 0.09203 0.20768 0.65397 0.0
C1359 C 0.08753 0.21009 0.68591 0.0
C1360 C 0.11133 0.21695 0.70424 0.0
C1361 C 0.10683 0.21975 0.73432 0.0
C1362 C 0.07863 0.21555 0.74632 0.0
C1363 C 0.05488 0.20847 0.72826 0.0
C1364 C 0.05926 0.20567 0.69816 0.0
C1365 C 0.07813 0.11448 0.56006 0.0
C1366 C 0.052 0.09883 0.57015 0.0
C1367 C 0.08931 0.13944 0.5734 0.0
C1368 C 0.07391 0.15058 0.59623 0.0
C1369 C 0.04775 0.13455 0.60638 0.0
C1370 C 0.03727 0.10899 0.5939 0.0
C1371 C 0.08505 0.17837 0.60976 0.0
C1372 C 0.08157 0.18262 0.64012 0.0
C1373 C 0.0993 0.20083 0.59322 0.0
C1374 C 0.10145 0.19979 0.56094 0.0
C1375 C 0.0763 0.19332 0.5444 0.0
C1376 C 0.0785 0.19164 0.51397 0.0
C1377 C 0.10574 0.19661 0.49984 0.0
C1378 C 0.13082 0.20343 0.51611 0.0
C1379 C 0.12874 0.20514 0.54655 0.0
H1380 H 0.1074 0.19521 0.47629 0.0
H1381 H 0.07519 0.21775 0.76962 0.0
H1382 H 0.67537 0.19111 0.48002 0.0
H1383 H 0.64888 0.22272 0.50528 0.0
H1384 H 0.72687 0.28271 0.50561 0.0
H1385 H 0.75355 0.25097 0.48045 0.0
H1386 H 0.68571 0.28832 0.55288 0.0
H1387 H 0.69438 0.28237 0.44913 0.0
H1388 H 0.69373 0.25941 0.4012 0.0
H1389 H 0.60317 0.22722 0.41424 0.0
H1390 H 0.60346 0.24963 0.46259 0.0
H1391 H 0.62885 0.40541 0.50895 0.0
H1392 H 0.65613 0.36887 0.51627 0.0
H1393 H 0.57578 0.31216 0.52307 0.0
H1394 H 0.54838 0.34871 0.51589 0.0
H1395 H 0.61745 0.30396 0.47655 0.0
H1396 H 0.61266 0.32537 0.57925 0.0
H1397 H 0.62019 0.35879 0.61919 0.0
H1398 H 0.71227 0.37067 0.60285 0.0
H1399 H 0.7052 0.33887 0.56121 0.0
C1400 C 0.68707 0.21063 0.48673 0.0
C1401 C 0.71617 0.21902 0.47811 0.0
C1402 C 0.67205 0.22853 0.50124 0.0
C1403 C 0.68599 0.25497 0.50676 0.0
C1404 C 0.71596 0.26227 0.50153 0.0
C1405 C 0.73109 0.24424 0.48712 0.0
C1406 C 0.66831 0.27604 0.51086 0.0
C1407 C 0.67069 0.29182 0.53637 0.0
C1408 C 0.6494 0.28077 0.48876 0.0
C1409 C 0.64907 0.26725 0.4597 0.0
C1410 C 0.67442 0.27011 0.44194 0.0
C1411 C 0.6741 0.25727 0.41466 0.0
C1412 C 0.64845 0.24174 0.40473 0.0
C1413 C 0.62305 0.23915 0.42203 0.0
C1414 C 0.62328 0.25191 0.44938 0.0
C1415 C 0.61712 0.3852 0.51267 0.0
C1416 C 0.58672 0.37955 0.51172 0.0
C1417 C 0.63261 0.36452 0.517 0.0
C1418 C 0.61777 0.3381 0.52029 0.0
C1419 C 0.58736 0.33262 0.52078 0.0
C1420 C 0.57184 0.35336 0.51675 0.0
C1421 C 0.63404 0.31582 0.51905 0.0
C1422 C 0.63179 0.30004 0.49358 0.0
C1423 C 0.65394 0.31213 0.5406 0.0
C1424 C 0.65834 0.32988 0.56684 0.0
C1425 C 0.63452 0.33527 0.58394 0.0
C1426 C 0.63871 0.35399 0.60688 0.0
C1427 C 0.6667 0.36672 0.61371 0.0
C1428 C 0.69059 0.36079 0.59753 0.0
C1429 C 0.68648 0.34256 0.57409 0.0
H1430 H 0.66989 0.38127 0.63144 0.0
H1431 H 0.64822 0.23181 0.3836 0.0
loop_
_geom_bond_atom_site_label_1
_geom_bond_atom_site_label_2
_geom_bond_distance
_geom_bond_site_symmetry_2
_ccdc_geom_bond_type
H0 C3 0.931 . S
H1 C6 0.928 . S
H2 C8 0.930 . S
C3 H0 0.931 . S
C3 C4 1.413 . S
C3 C5 1.360 . S
C4 C3 1.413 . S
C4 C8 1.429 . S
C5 C3 1.360 . S
C5 C6 1.372 . S
C6 H1 0.928 . S
C6 C5 1.372 . S
C6 C7 1.404 . S
C7 C6 1.404 . S
C7 C8 1.391 . S
C8 H2 0.930 . S
C8 C4 1.429 . S
C8 C7 1.391 . S
H9 C12 0.931 . S
H10 C15 0.928 . S
H11 C17 0.930 . S
C12 H9 0.931 . S
C12 C13 1.413 . S
C12 C14 1.360 . S
C13 C12 1.413 . S
C13 C17 1.429 . S
C14 C12 1.360 . S
C14 C15 1.372 . S
C15 H10 0.928 . S
C15 C14 1.372 . S
C15 C16 1.404 . S
C16 C15 1.404 . S
C16 C17 1.391 . S
C17 H11 0.930 . S
C17 C13 1.429 . S
C17 C16 1.391 . S
H18 C21 0.931 . S
H19 C24 0.928 . S
H20 C26 0.930 . S
C21 H18 0.931 . S
C21 C22 1.413 . S
C21 C23 1.360 . S
C22 C21 1.413 . S
C22 C26 1.429 . S
C23 C21 1.360 . S
C23 C24 1.372 . S
C24 H19 0.928 . S
C24 C23 1.372 . S
C24 C25 1.404 . S
C25 C24 1.404 . S
C25 C26 1.391 . S
C26 H20 0.930 . S
C26 C22 1.429 . S
C26 C25 1.391 . S
H27 C30 0.931 . S
H28 C33 0.928 . S
H29 C35 0.930 . S
C30 H27 0.931 . S
C30 C31 1.413 . S
C30 C32 1.360 . S
C31 C30 1.413 . S
C31 C35 1.429 . S
C32 C30 1.360 . S
C32 C33 1.372 . S
C33 H28 0.928 . S
C33 C32 1.372 . S
C33 C34 1.404 . S
C34 C33 1.404 . S
C34 C35 1.391 . S
C35 H29 0.930 . S
C35 C31 1.429 . S
C35 C34 1.391 . S
H36 C39 0.931 . S
H37 C42 0.928 . S
H38 C44 0.930 . S
C39 H36 0.931 . S
C39 C40 1.413 . S
C39 C41 1.360 . S
C40 C39 1.413 . S
C40 C44 1.429 . S
C41 C39 1.360 . S
C41 C42 1.372 . S
C42 H37 0.928 . S
C42 C41 1.372 . S
C42 C43 1.404 . S
C43 C42 1.404 . S
C43 C44 1.391 . S
C44 H38 0.930 . S
C44 C40 1.429 . S
C44 C43 1.391 . S
H45 C48 0.931 . S
H46 C51 0.928 . S
H47 C53 0.930 . S
C48 H45 0.931 . S
C48 C49 1.413 . S
C48 C50 1.360 . S
C49 C48 1.413 . S
C49 C53 1.429 . S
C50 C48 1.360 . S
C50 C51 1.372 . S
C51 H46 0.928 . S
C51 C50 1.372 . S
C51 C52 1.404 . S
C52 C51 1.404 . S
C52 C53 1.391 . S
C53 H47 0.930 . S
C53 C49 1.429 . S
C53 C52 1.391 . S
H54 C57 0.931 . S
H55 C60 0.928 . S
H56 C62 0.930 . S
C57 H54 0.931 . S
C57 C58 1.413 . S
C57 C59 1.360 . S
C58 C57 1.413 . S
C58 C62 1.429 . S
C59 C57 1.360 . S
C59 C60 1.372 . S
C60 H55 0.928 . S
C60 C59 1.372 . S
C60 C61 1.404 . S
C61 C60 1.404 . S
C61 C62 1.391 . S
C62 H56 0.930 . S
C62 C58 1.429 . S
C62 C61 1.391 . S
H63 C66 0.931 . S
H64 C69 0.928 . S
H65 C71 0.930 . S
C66 H63 0.931 . S
C66 C67 1.413 . S
C66 C68 1.360 . S
C67 C66 1.413 . S
C67 C71 1.429 . S
C68 C66 1.360 . S
C68 C69 1.372 . S
C69 H64 0.928 . S
C69 C68 1.372 . S
C69 C70 1.404 . S
C70 C69 1.404 . S
C70 C71 1.391 . S
C71 H65 0.930 . S
C71 C67 1.429 . S
C71 C70 1.391 . S
La72 C74 2.928 . S
La72 O92 2.521 . S
La72 O93 2.628 . S
La72 O94 2.554 1_545 S
La72 O95 2.757 1_545 S
La72 O96 2.470 . S
La72 O101 2.482 1_455 S
La72 O103 2.503 1_445 S
La73 C83 2.928 . S
La73 O95 2.482 1_655 S
La73 O97 2.503 1_665 S
La73 O98 2.521 . S
La73 O99 2.628 . S
La73 O100 2.554 1_565 S
La73 O101 2.757 1_565 S
La73 O102 2.470 . S
C74 La72 2.928 . S
C74 C75 1.503 . S
C74 O92 1.261 . S
C74 O93 1.243 . S
C75 C74 1.503 . S
C75 C76 1.394 . S
C75 C80 1.373 . S
C76 C75 1.394 . S
C76 C77 1.380 . S
C76 H104 0.930 . S
C77 C76 1.380 . S
C77 C78 1.376 . S
C77 H105 0.930 . S
C78 C77 1.376 . S
C78 C79 1.370 . S
C79 C78 1.370 . S
C79 C80 1.396 . S
C79 H106 0.929 . S
C80 C75 1.373 . S
C80 C79 1.396 . S
C80 H107 0.929 . S
C81 O94 1.240 . S
C81 O95 1.289 . S
C82 O96 1.258 . S
C82 O97 1.256 . S
C83 La73 2.928 . S
C83 C84 1.503 . S
C83 O98 1.261 . S
C83 O99 1.243 . S
C84 C83 1.503 . S
C84 C85 1.394 . S
C84 C89 1.373 . S
C85 C84 1.394 . S
C85 C86 1.380 . S
C85 H108 0.930 . S
C86 C85 1.380 . S
C86 C87 1.376 . S
C86 H109 0.930 . S
C87 C86 1.376 . S
C87 C88 1.370 . S
C88 C87 1.370 . S
C88 C89 1.396 . S
C88 H110 0.929 . S
C89 C84 1.373 . S
C89 C88 1.396 . S
C89 H111 0.929 . S
C90 O100 1.240 . S
C90 O101 1.289 . S
C91 O102 1.258 . S
C91 O103 1.256 . S
O92 La72 2.521 . S
O92 C74 1.261 . S
O93 La72 2.628 . S
O93 C74 1.243 . S
O94 La72 2.554 1_565 S
O94 C81 1.240 . S
O95 La72 2.757 1_565 S
O95 La73 2.482 1_455 S
O95 C81 1.289 . S
O96 La72 2.470 . S
O96 C82 1.258 . S
O97 La73 2.503 1_445 S
O97 C82 1.256 . S
O98 La73 2.521 . S
O98 C83 1.261 . S
O99 La73 2.628 . S
O99 C83 1.243 . S
O100 La73 2.554 1_545 S
O100 C90 1.240 . S
O101 La72 2.482 1_655 S
O101 La73 2.757 1_545 S
O101 C90 1.289 . S
O102 La73 2.470 . S
O102 C91 1.258 . S
O103 La72 2.503 1_665 S
O103 C91 1.256 . S
H104 C76 0.930 . S
H105 C77 0.930 . S
H106 C79 0.929 . S
H107 C80 0.929 . S
H108 C85 0.930 . S
H109 C86 0.930 . S
H110 C88 0.929 . S
H111 C89 0.929 . S
La112 C114 2.917 1_565 S
La112 O132 2.519 1_565 S
La112 O133 2.609 1_565 S
La112 O134 2.570 . S
La112 O135 2.766 . S
La112 O136 2.459 1_565 S
La112 O141 2.466 1_564 S
La112 O143 2.515 1_554 S
La113 C123 2.928 1_545 S
La113 O135 2.482 1_546 S
La113 O137 2.503 1_556 S
La113 O138 2.521 1_545 S
La113 O139 2.628 1_545 S
La113 O140 2.554 . S
La113 O141 2.757 . S
La113 O142 2.470 1_545 S
C114 La112 2.917 1_545 S
C114 C115 1.503 . S
C114 O132 1.261 . S
C114 O133 1.243 . S
C115 C114 1.503 . S
C115 C116 1.394 . S
C115 C120 1.373 . S
C116 C115 1.394 . S
C116 C117 1.380 . S
C116 H144 0.930 . S
C117 C116 1.380 . S
C117 C118 1.376 . S
C117 H145 0.930 . S
C118 C117 1.376 . S
C118 C119 1.370 . S
C119 C118 1.370 . S
C119 C120 1.396 . S
C119 H146 0.929 . S
C120 C115 1.373 . S
C120 C119 1.396 . S
C120 H147 0.929 . S
C121 O134 1.240 . S
C121 O135 1.289 . S
C122 O136 1.258 . S
C122 O137 1.256 . S
C123 La113 2.928 1_565 S
C123 C124 1.503 . S
C123 O138 1.261 . S
C123 O139 1.243 . S
C124 C123 1.503 . S
C124 C125 1.394 . S
C124 C129 1.373 . S
C125 C124 1.394 . S
C125 C126 1.380 . S
C125 H148 0.930 . S
C126 C125 1.380 . S
C126 C127 1.376 . S
C126 H149 0.930 . S
C127 C126 1.376 . S
C127 C128 1.370 . S
C128 C127 1.370 . S
C128 C129 1.396 . S
C128 H150 0.929 . S
C129 C124 1.373 . S
C129 C128 1.396 . S
C129 H151 0.929 . S
C130 O140 1.240 . S
C130 O141 1.289 . S
C131 O142 1.258 . S
C131 O143 1.256 . S
O132 La112 2.519 1_545 S
O132 C114 1.261 . S
O133 La112 2.609 1_545 S
O133 C114 1.243 . S
O134 La112 2.570 . S
O134 C121 1.240 . S
O135 La112 2.766 . S
O135 La113 2.482 1_564 S
O135 C121 1.289 . S
O136 La112 2.459 1_545 S
O136 C122 1.258 . S
O137 La113 2.503 1_554 S
O137 C122 1.256 . S
O138 La113 2.521 1_565 S
O138 C123 1.261 . S
O139 La113 2.628 1_565 S
O139 C123 1.243 . S
O140 La113 2.554 . S
O140 C130 1.240 . S
O141 La112 2.466 1_546 S
O141 La113 2.757 . S
O141 C130 1.289 . S
O142 La113 2.470 1_565 S
O142 C131 1.258 . S
O143 La112 2.515 1_556 S
O143 C131 1.256 . S
H144 C116 0.930 . S
H145 C117 0.930 . S
H146 C119 0.929 . S
H147 C120 0.929 . S
H148 C125 0.930 . S
H149 C126 0.930 . S
H150 C128 0.929 . S
H151 C129 0.929 . S
La152 C154 2.928 . S
La152 O172 2.521 . S
La152 O173 2.628 . S
La152 O174 2.554 . S
La152 O175 2.757 . S
La152 O176 2.470 . S
La152 O181 2.482 . S
La152 O183 2.503 . S
La153 C163 2.928 . S
La153 O175 2.482 . S
La153 O177 2.503 . S
La153 O178 2.521 . S
La153 O179 2.628 . S
La153 O180 2.554 . S
La153 O181 2.757 . S
La153 O182 2.470 . S
C154 La152 2.928 . S
C154 C155 1.503 . S
C154 O172 1.261 . S
C154 O173 1.243 . S
C155 C154 1.503 . S
C155 C156 1.394 . S
C155 C160 1.373 . S
C156 C155 1.394 . S
C156 C157 1.380 . S
C156 H184 0.930 . S
C157 C156 1.380 . S
C157 C158 1.376 . S
C157 H185 0.930 . S
C158 C157 1.376 . S
C158 C159 1.370 . S
C159 C158 1.370 . S
C159 C160 1.396 . S
C159 H186 0.929 . S
C160 C155 1.373 . S
C160 C159 1.396 . S
C160 H187 0.929 . S
C161 O174 1.240 . S
C161 O175 1.289 . S
C162 O176 1.258 . S
C162 O177 1.256 . S
C163 La153 2.928 . S
C163 C164 1.503 . S
C163 O178 1.261 . S
C163 O179 1.243 . S
C164 C163 1.503 . S
C164 C165 1.394 . S
C164 C169 1.373 . S
C165 C164 1.394 . S
C165 C166 1.380 . S
C165 H188 0.930 . S
C166 C165 1.380 . S
C166 C167 1.376 . S
C166 H189 0.930 . S
C167 C166 1.376 . S
C167 C168 1.370 . S
C168 C167 1.370 . S
C168 C169 1.396 . S
C168 H190 0.929 . S
C169 C164 1.373 . S
C169 C168 1.396 . S
C169 H191 0.929 . S
C170 O180 1.240 . S
C170 O181 1.289 . S
C171 O182 1.258 . S
C171 O183 1.256 . S
O172 La152 2.521 . S
O172 C154 1.261 . S
O173 La152 2.628 . S
O173 C154 1.243 . S
O174 La152 2.554 . S
O174 C161 1.240 . S
O175 La152 2.757 . S
O175 La153 2.482 . S
O175 C161 1.289 . S
O176 La152 2.470 . S
O176 C162 1.258 . S
O177 La153 2.503 . S
O177 C162 1.256 . S
O178 La153 2.521 . S
O178 C163 1.261 . S
O179 La153 2.628 . S
O179 C163 1.243 . S
O180 La153 2.554 . S
O180 C170 1.240 . S
O181 La152 2.482 . S
O181 La153 2.757 . S
O181 C170 1.289 . S
O182 La153 2.470 . S
O182 C171 1.258 . S
O183 La152 2.503 . S
O183 C171 1.256 . S
H184 C156 0.930 . S
H185 C157 0.930 . S
H186 C159 0.929 . S
H187 C160 0.929 . S
H188 C165 0.930 . S
H189 C166 0.930 . S
H190 C168 0.929 . S
H191 C169 0.929 . S
La192 C194 2.928 . S
La192 O212 2.521 . S
La192 O213 2.628 . S
La192 O214 2.554 1_455 S
La192 O215 2.757 1_455 S
La192 O216 2.470 . S
La192 O221 2.482 1_554 S
La192 O223 2.503 1_454 S
La193 C203 2.928 . S
La193 O215 2.482 1_556 S
La193 O217 2.503 1_656 S
La193 O218 2.521 . S
La193 O219 2.628 . S
La193 O220 2.554 1_655 S
La193 O221 2.757 1_655 S
La193 O222 2.470 . S
C194 La192 2.928 . S
C194 C195 1.503 . S
C194 O212 1.261 . S
C194 O213 1.243 . S
C195 C194 1.503 . S
C195 C196 1.394 . S
C195 C200 1.373 . S
C196 C195 1.394 . S
C196 C197 1.380 . S
C196 H224 0.930 . S
C197 C196 1.380 . S
C197 C198 1.376 . S
C197 H225 0.930 . S
C198 C197 1.376 . S
C198 C199 1.370 . S
C199 C198 1.370 . S
C199 C200 1.396 . S
C199 H226 0.929 . S
C200 C195 1.373 . S
C200 C199 1.396 . S
C200 H227 0.929 . S
C201 O214 1.240 . S
C201 O215 1.289 . S
C202 O216 1.258 . S
C202 O217 1.256 . S
C203 La193 2.928 . S
C203 C204 1.503 . S
C203 O218 1.261 . S
C203 O219 1.243 . S
C204 C203 1.503 . S
C204 C205 1.394 . S
C204 C209 1.373 . S
C205 C204 1.394 . S
C205 C206 1.380 . S
C205 H228 0.930 . S
C206 C205 1.380 . S
C206 C207 1.376 . S
C206 H229 0.930 . S
C207 C206 1.376 . S
C207 C208 1.370 . S
C208 C207 1.370 . S
C208 C209 1.396 . S
C208 H230 0.929 . S
C209 C204 1.373 . S
C209 C208 1.396 . S
C209 H231 0.929 . S
C210 O220 1.240 . S
C210 O221 1.289 . S
C211 O222 1.258 . S
C211 O223 1.256 . S
O212 La192 2.521 . S
O212 C194 1.261 . S
O213 La192 2.628 . S
O213 C194 1.243 . S
O214 La192 2.554 1_655 S
O214 C201 1.240 . S
O215 La192 2.757 1_655 S
O215 La193 2.482 1_554 S
O215 C201 1.289 . S
O216 La192 2.470 . S
O216 C202 1.258 . S
O217 La193 2.503 1_454 S
O217 C202 1.256 . S
O218 La193 2.521 . S
O218 C203 1.261 . S
O219 La193 2.628 . S
O219 C203 1.243 . S
O220 La193 2.554 1_455 S
O220 C210 1.240 . S
O221 La192 2.482 1_556 S
O221 La193 2.757 1_455 S
O221 C210 1.289 . S
O222 La193 2.470 . S
O222 C211 1.258 . S
O223 La192 2.503 1_656 S
O223 C211 1.256 . S
H224 C196 0.930 . S
H225 C197 0.930 . S
H226 C199 0.929 . S
H227 C200 0.929 . S
H228 C205 0.930 . S
H229 C206 0.930 . S
H230 C208 0.929 . S
H231 C209 0.929 . S
H232 C250 0.951 . S
H233 C252 0.951 . S
H234 C254 0.950 . S
H235 C255 0.950 . S
H236 C257 0.950 . S
H237 C260 0.950 . S
H238 C261 0.950 . S
H239 C263 0.950 . S
H240 C264 0.950 . S
H241 C265 0.951 . S
H242 C267 0.951 . S
H243 C269 0.950 . S
H244 C270 0.950 . S
H245 C272 0.950 . S
H246 C275 0.950 . S
H247 C276 0.950 . S
H248 C278 0.950 . S
H249 C279 0.950 . S
C250 H232 0.951 . S
C250 C251 1.366 . S
C250 C252 1.388 . S
C251 C250 1.366 . S
C251 C255 1.385 . S
C252 H233 0.951 . S
C252 C250 1.388 . S
C252 C253 1.366 . S
C253 C252 1.366 . S
C253 C254 1.414 . S
C253 C256 1.499 . S
C254 H234 0.950 . S
C254 C253 1.414 . S
C254 C255 1.374 . S
C255 H235 0.950 . S
C255 C251 1.385 . S
C255 C254 1.374 . S
C256 C253 1.499 . S
C256 C257 1.373 . S
C256 C258 1.389 . S
C257 H236 0.950 . S
C257 C256 1.373 . S
C257 C273 1.377 . S
C258 C256 1.389 . S
C258 C259 1.524 . S
C258 C272 1.377 . S
C259 C258 1.524 . S
C259 C260 1.397 . S
C259 C264 1.363 . S
C260 H237 0.950 . S
C260 C259 1.397 . S
C260 C261 1.334 . S
C261 H238 0.950 . S
C261 C260 1.334 . S
C261 C262 1.287 . S
C262 C261 1.287 . S
C262 C263 1.524 . S
C262 H281 0.913 . S
C263 H239 0.950 . S
C263 C262 1.524 . S
C263 C264 1.415 . S
C264 H240 0.950 . S
C264 C259 1.363 . S
C264 C263 1.415 . S
C265 H241 0.951 . S
C265 C266 1.366 . S
C265 C267 1.388 . S
C266 C265 1.366 . S
C266 C270 1.385 . S
C267 H242 0.951 . S
C267 C265 1.388 . S
C267 C268 1.366 . S
C268 C267 1.366 . S
C268 C269 1.414 . S
C268 C271 1.499 . S
C269 H243 0.950 . S
C269 C268 1.414 . S
C269 C270 1.374 . S
C270 H244 0.950 . S
C270 C266 1.385 . S
C270 C269 1.374 . S
C271 C268 1.499 . S
C271 C272 1.373 . S
C271 C273 1.389 . S
C272 H245 0.950 . S
C272 C258 1.377 . S
C272 C271 1.373 . S
C273 C257 1.377 . S
C273 C271 1.389 . S
C273 C274 1.524 . S
C274 C273 1.524 . S
C274 C275 1.397 . S
C274 C279 1.363 . S
C275 H246 0.950 . S
C275 C274 1.397 . S
C275 C276 1.334 . S
C276 H247 0.950 . S
C276 C275 1.334 . S
C276 C277 1.287 . S
C277 C276 1.287 . S
C277 C278 1.524 . S
C277 H280 0.999 . S
C278 H248 0.950 . S
C278 C277 1.524 . S
C278 C279 1.415 . S
C279 H249 0.950 . S
C279 C274 1.363 . S
C279 C278 1.415 . S
H280 C277 0.999 . S
H281 C262 0.913 . S
H282 C300 0.951 . S
H283 C302 0.951 . S
H284 C304 0.950 . S
H285 C305 0.950 . S
H286 C307 0.950 . S
H287 C310 0.950 . S
H288 C311 0.950 . S
H289 C313 0.950 . S
H290 C314 0.950 . S
H291 C315 0.951 . S
H292 C317 0.951 . S
H293 C319 0.950 . S
H294 C320 0.950 . S
H295 C322 0.950 . S
H296 C325 0.950 . S
H297 C326 0.950 . S
H298 C328 0.950 1_545 S
H299 C329 0.950 . S
C300 H282 0.951 . S
C300 C301 1.366 . S
C300 C302 1.388 . S
C301 C300 1.366 . S
C301 C305 1.385 . S
C302 H283 0.951 . S
C302 C300 1.388 . S
C302 C303 1.366 . S
C303 C302 1.366 . S
C303 C304 1.414 . S
C303 C306 1.499 . S
C304 H284 0.950 . S
C304 C303 1.414 . S
C304 C305 1.374 . S
C305 H285 0.950 . S
C305 C301 1.385 . S
C305 C304 1.374 . S
C306 C303 1.499 . S
C306 C307 1.373 . S
C306 C308 1.389 . S
C307 H286 0.950 . S
C307 C306 1.373 . S
C307 C323 1.377 . S
C308 C306 1.389 . S
C308 C309 1.524 . S
C308 C322 1.377 . S
C309 C308 1.524 . S
C309 C310 1.397 . S
C309 C314 1.363 . S
C310 H287 0.950 . S
C310 C309 1.397 . S
C310 C311 1.334 . S
C311 H288 0.950 . S
C311 C310 1.334 . S
C311 C312 1.287 . S
C312 C311 1.287 . S
C312 C313 1.524 . S
C312 H331 0.913 . S
C313 H289 0.950 . S
C313 C312 1.524 . S
C313 C314 1.415 . S
C314 H290 0.950 . S
C314 C309 1.363 . S
C314 C313 1.415 . S
C315 H291 0.951 . S
C315 C316 1.366 . S
C315 C317 1.388 . S
C316 C315 1.366 . S
C316 C320 1.385 . S
C317 H292 0.951 . S
C317 C315 1.388 . S
C317 C318 1.366 . S
C318 C317 1.366 . S
C318 C319 1.414 . S
C318 C321 1.499 . S
C319 H293 0.950 . S
C319 C318 1.414 . S
C319 C320 1.374 . S
C320 H294 0.950 . S
C320 C316 1.385 . S
C320 C319 1.374 . S
C321 C318 1.499 . S
C321 C322 1.373 . S
C321 C323 1.389 . S
C322 H295 0.950 . S
C322 C308 1.377 . S
C322 C321 1.373 . S
C323 C307 1.377 . S
C323 C321 1.389 . S
C323 C324 1.524 . S
C324 C323 1.524 . S
C324 C325 1.397 . S
C324 C329 1.363 . S
C325 H296 0.950 . S
C325 C324 1.397 . S
C325 C326 1.334 . S
C326 H297 0.950 . S
C326 C325 1.334 . S
C326 C327 1.287 . S
C327 C326 1.287 . S
C327 C328 1.524 . S
C327 H330 0.999 1_565 S
C328 H298 0.950 1_565 S
C328 C327 1.524 . S
C328 C329 1.415 . S
C329 H299 0.950 . S
C329 C324 1.363 . S
C329 C328 1.415 . S
H330 C327 0.999 1_545 S
H331 C312 0.913 . S
H332 C350 0.951 . S
H333 C352 0.951 . S
H334 C354 0.950 . S
H335 C355 0.950 . S
H336 C357 0.950 . S
H337 C360 0.950 . S
H338 C361 0.950 . S
H339 C363 0.950 . S
H340 C364 0.950 . S
H341 C365 0.951 . S
H342 C367 0.951 . S
H343 C369 0.950 . S
H344 C370 0.950 . S
H345 C372 0.950 . S
H346 C375 0.950 . S
H347 C376 0.950 . S
H348 C378 0.950 . S
H349 C379 0.950 . S
C350 H332 0.951 . S
C350 C351 1.366 . S
C350 C352 1.388 . S
C351 C350 1.366 . S
C351 C355 1.385 . S
C352 H333 0.951 . S
C352 C350 1.388 . S
C352 C353 1.366 . S
C353 C352 1.366 . S
C353 C354 1.414 . S
C353 C356 1.499 . S
C354 H334 0.950 . S
C354 C353 1.414 . S
C354 C355 1.374 . S
C355 H335 0.950 . S
C355 C351 1.385 . S
C355 C354 1.374 . S
C356 C353 1.499 . S
C356 C357 1.373 . S
C356 C358 1.389 . S
C357 H336 0.950 . S
C357 C356 1.373 . S
C357 C373 1.377 . S
C358 C356 1.389 . S
C358 C359 1.524 . S
C358 C372 1.377 . S
C359 C358 1.524 . S
C359 C360 1.397 . S
C359 C364 1.363 . S
C360 H337 0.950 . S
C360 C359 1.397 . S
C360 C361 1.334 . S
C361 H338 0.950 . S
C361 C360 1.334 . S
C361 C362 1.287 . S
C362 C361 1.287 . S
C362 C363 1.524 . S
C362 H381 0.913 . S
C363 H339 0.950 . S
C363 C362 1.524 . S
C363 C364 1.415 . S
C364 H340 0.950 . S
C364 C359 1.363 . S
C364 C363 1.415 . S
C365 H341 0.951 . S
C365 C366 1.366 . S
C365 C367 1.388 . S
C366 C365 1.366 . S
C366 C370 1.385 . S
C367 H342 0.951 . S
C367 C365 1.388 . S
C367 C368 1.366 . S
C368 C367 1.366 . S
C368 C369 1.414 . S
C368 C371 1.499 . S
C369 H343 0.950 . S
C369 C368 1.414 . S
C369 C370 1.374 . S
C370 H344 0.950 . S
C370 C366 1.385 . S
C370 C369 1.374 . S
C371 C368 1.499 . S
C371 C372 1.373 . S
C371 C373 1.389 . S
C372 H345 0.950 . S
C372 C358 1.377 . S
C372 C371 1.373 . S
C373 C357 1.377 . S
C373 C371 1.389 . S
C373 C374 1.524 . S
C374 C373 1.524 . S
C374 C375 1.397 . S
C374 C379 1.363 . S
C375 H346 0.950 . S
C375 C374 1.397 . S
C375 C376 1.334 . S
C376 H347 0.950 . S
C376 C375 1.334 . S
C376 C377 1.287 . S
C377 C376 1.287 . S
C377 C378 1.524 . S
C377 H380 0.999 . S
C378 H348 0.950 . S
C378 C377 1.524 . S
C378 C379 1.415 . S
C379 H349 0.950 . S
C379 C374 1.363 . S
C379 C378 1.415 . S
H380 C377 0.999 . S
H381 C362 0.913 . S
H382 C400 0.951 . S
H383 C402 0.951 . S
H384 C404 0.950 . S
H385 C405 0.950 . S
H386 C407 0.950 . S
H387 C410 0.950 . S
H388 C411 0.950 . S
H389 C413 0.950 . S
H390 C414 0.950 . S
H391 C415 0.951 . S
H392 C417 0.951 . S
H393 C419 0.950 . S
H394 C420 0.950 . S
H395 C422 0.950 . S
H396 C425 0.950 . S
H397 C426 0.950 . S
H398 C428 0.950 . S
H399 C429 0.950 . S
C400 H382 0.951 . S
C400 C401 1.366 . S
C400 C402 1.388 . S
C401 C400 1.366 . S
C401 C405 1.385 . S
C402 H383 0.951 . S
C402 C400 1.388 . S
C402 C403 1.366 . S
C403 C402 1.366 . S
C403 C404 1.414 . S
C403 C406 1.499 . S
C404 H384 0.950 . S
C404 C403 1.414 . S
C404 C405 1.374 . S
C405 H385 0.950 . S
C405 C401 1.385 . S
C405 C404 1.374 . S
C406 C403 1.499 . S
C406 C407 1.373 . S
C406 C408 1.389 . S
C407 H386 0.950 . S
C407 C406 1.373 . S
C407 C423 1.377 . S
C408 C406 1.389 . S
C408 C409 1.524 . S
C408 C422 1.377 . S
C409 C408 1.524 . S
C409 C410 1.397 . S
C409 C414 1.363 . S
C410 H387 0.950 . S
C410 C409 1.397 . S
C410 C411 1.334 . S
C411 H388 0.950 . S
C411 C410 1.334 . S
C411 C412 1.287 . S
C412 C411 1.287 . S
C412 C413 1.524 . S
C412 H431 0.913 . S
C413 H389 0.950 . S
C413 C412 1.524 . S
C413 C414 1.415 . S
C414 H390 0.950 . S
C414 C409 1.363 . S
C414 C413 1.415 . S
C415 H391 0.951 . S
C415 C416 1.366 . S
C415 C417 1.388 . S
C416 C415 1.366 . S
C416 C420 1.385 . S
C417 H392 0.951 . S
C417 C415 1.388 . S
C417 C418 1.366 . S
C418 C417 1.366 . S
C418 C419 1.414 . S
C418 C421 1.499 . S
C419 H393 0.950 . S
C419 C418 1.414 . S
C419 C420 1.374 . S
C420 H394 0.950 . S
C420 C416 1.385 . S
C420 C419 1.374 . S
C421 C418 1.499 . S
C421 C422 1.373 . S
C421 C423 1.389 . S
C422 H395 0.950 . S
C422 C408 1.377 . S
C422 C421 1.373 . S
C423 C407 1.377 . S
C423 C421 1.389 . S
C423 C424 1.524 . S
C424 C423 1.524 . S
C424 C425 1.397 . S
C424 C429 1.363 . S
C425 H396 0.950 . S
C425 C424 1.397 . S
C425 C426 1.334 . S
C426 H397 0.950 . S
C426 C425 1.334 . S
C426 C427 1.287 . S
C427 C426 1.287 . S
C427 C428 1.524 . S
C427 H430 0.999 . S
C428 H398 0.950 . S
C428 C427 1.524 . S
C428 C429 1.415 . S
C429 H399 0.950 . S
C429 C424 1.363 . S
C429 C428 1.415 . S
H430 C427 0.999 . S
H431 C412 0.913 . S
H432 C450 0.951 . S
H433 C452 0.951 . S
H434 C454 0.950 . S
H435 C455 0.950 . S
H436 C457 0.950 . S
H437 C460 0.950 . S
H438 C461 0.950 . S
H439 C463 0.950 . S
H440 C464 0.950 . S
H441 C465 0.951 . S
H442 C467 0.951 . S
H443 C469 0.950 . S
H444 C470 0.950 . S
H445 C472 0.950 . S
H446 C475 0.950 . S
H447 C476 0.950 . S
H448 C478 0.950 . S
H449 C479 0.950 . S
C450 H432 0.951 . S
C450 C451 1.366 . S
C450 C452 1.388 . S
C451 C450 1.366 . S
C451 C455 1.385 . S
C452 H433 0.951 . S
C452 C450 1.388 . S
C452 C453 1.366 . S
C453 C452 1.366 . S
C453 C454 1.414 . S
C453 C456 1.499 . S
C454 H434 0.950 . S
C454 C453 1.414 . S
C454 C455 1.374 . S
C455 H435 0.950 . S
C455 C451 1.385 . S
C455 C454 1.374 . S
C456 C453 1.499 . S
C456 C457 1.373 . S
C456 C458 1.389 . S
C457 H436 0.950 . S
C457 C456 1.373 . S
C457 C473 1.377 . S
C458 C456 1.389 . S
C458 C459 1.524 . S
C458 C472 1.377 . S
C459 C458 1.524 . S
C459 C460 1.397 . S
C459 C464 1.363 . S
C460 H437 0.950 . S
C460 C459 1.397 . S
C460 C461 1.334 . S
C461 H438 0.950 . S
C461 C460 1.334 . S
C461 C462 1.287 . S
C462 C461 1.287 . S
C462 C463 1.524 . S
C462 H481 0.913 . S
C463 H439 0.950 . S
C463 C462 1.524 . S
C463 C464 1.415 . S
C464 H440 0.950 . S
C464 C459 1.363 . S
C464 C463 1.415 . S
C465 H441 0.951 . S
C465 C466 1.366 . S
C465 C467 1.388 . S
C466 C465 1.366 . S
C466 C470 1.385 . S
C467 H442 0.951 . S
C467 C465 1.388 . S
C467 C468 1.366 . S
C468 C467 1.366 . S
C468 C469 1.414 . S
C468 C471 1.499 . S
C469 H443 0.950 . S
C469 C468 1.414 . S
C469 C470 1.374 . S
C470 H444 0.950 . S
C470 C466 1.385 . S
C470 C469 1.374 . S
C471 C468 1.499 . S
C471 C472 1.373 . S
C471 C473 1.389 . S
C472 H445 0.950 . S
C472 C458 1.377 . S
C472 C471 1.373 . S
C473 C457 1.377 . S
C473 C471 1.389 . S
C473 C474 1.524 . S
C474 C473 1.524 . S
C474 C475 1.397 . S
C474 C479 1.363 . S
C475 H446 0.950 . S
C475 C474 1.397 . S
C475 C476 1.334 . S
C476 H447 0.950 . S
C476 C475 1.334 . S
C476 C477 1.287 . S
C477 C476 1.287 . S
C477 C478 1.524 . S
C477 H480 0.999 . S
C478 H448 0.950 . S
C478 C477 1.524 . S
C478 C479 1.415 . S
C479 H449 0.950 . S
C479 C474 1.363 . S
C479 C478 1.415 . S
H480 C477 0.999 . S
H481 C462 0.913 . S
H482 C500 0.951 . S
H483 C502 0.951 . S
H484 C504 0.950 . S
H485 C505 0.950 . S
H486 C507 0.950 . S
H487 C510 0.950 . S
H488 C511 0.950 . S
H489 C513 0.950 . S
H490 C514 0.950 . S
H491 C515 0.951 . S
H492 C517 0.951 . S
H493 C519 0.950 . S
H494 C520 0.950 . S
H495 C522 0.950 . S
H496 C525 0.950 . S
H497 C526 0.950 . S
H498 C528 0.950 . S
H499 C529 0.950 . S
C500 H482 0.951 . S
C500 C501 1.366 . S
C500 C502 1.388 . S
C501 C500 1.366 . S
C501 C505 1.385 . S
C502 H483 0.951 . S
C502 C500 1.388 . S
C502 C503 1.366 . S
C503 C502 1.366 . S
C503 C504 1.414 . S
C503 C506 1.499 . S
C504 H484 0.950 . S
C504 C503 1.414 . S
C504 C505 1.374 . S
C505 H485 0.950 . S
C505 C501 1.385 . S
C505 C504 1.374 . S
C506 C503 1.499 . S
C506 C507 1.373 . S
C506 C508 1.389 . S
C507 H486 0.950 . S
C507 C506 1.373 . S
C507 C523 1.377 . S
C508 C506 1.389 . S
C508 C509 1.524 . S
C508 C522 1.377 . S
C509 C508 1.524 . S
C509 C510 1.397 . S
C509 C514 1.363 . S
C510 H487 0.950 . S
C510 C509 1.397 . S
C510 C511 1.334 . S
C511 H488 0.950 . S
C511 C510 1.334 . S
C511 C512 1.287 . S
C512 C511 1.287 . S
C512 C513 1.524 . S
C512 H531 0.913 . S
C513 H489 0.950 . S
C513 C512 1.524 . S
C513 C514 1.415 . S
C514 H490 0.950 . S
C514 C509 1.363 . S
C514 C513 1.415 . S
C515 H491 0.951 . S
C515 C516 1.366 . S
C515 C517 1.388 . S
C516 C515 1.366 . S
C516 C520 1.385 . S
C517 H492 0.951 . S
C517 C515 1.388 . S
C517 C518 1.366 . S
C518 C517 1.366 . S
C518 C519 1.414 . S
C518 C521 1.499 . S
C519 H493 0.950 . S
C519 C518 1.414 . S
C519 C520 1.374 . S
C520 H494 0.950 . S
C520 C516 1.385 . S
C520 C519 1.374 . S
C521 C518 1.499 . S
C521 C522 1.373 . S
C521 C523 1.389 . S
C522 H495 0.950 . S
C522 C508 1.377 . S
C522 C521 1.373 . S
C523 C507 1.377 . S
C523 C521 1.389 . S
C523 C524 1.524 . S
C524 C523 1.524 . S
C524 C525 1.397 . S
C524 C529 1.363 . S
C525 H496 0.950 . S
C525 C524 1.397 . S
C525 C526 1.334 . S
C526 H497 0.950 . S
C526 C525 1.334 . S
C526 C527 1.287 . S
C527 C526 1.287 . S
C527 C528 1.524 . S
C527 H530 0.999 . S
C528 H498 0.950 . S
C528 C527 1.524 . S
C528 C529 1.415 . S
C529 H499 0.950 . S
C529 C524 1.363 . S
C529 C528 1.415 . S
H530 C527 0.999 . S
H531 C512 0.913 . S
H532 C550 0.951 . S
H533 C552 0.951 . S
H534 C554 0.950 . S
H535 C555 0.950 . S
H536 C557 0.950 . S
H537 C560 0.950 . S
H538 C561 0.950 . S
H539 C563 0.950 . S
H540 C564 0.950 . S
H541 C565 0.951 . S
H542 C567 0.951 . S
H543 C569 0.950 . S
H544 C570 0.950 . S
H545 C572 0.950 . S
H546 C575 0.950 . S
H547 C576 0.950 . S
H548 C578 0.950 . S
H549 C579 0.950 . S
C550 H532 0.951 . S
C550 C551 1.366 . S
C550 C552 1.388 . S
C551 C550 1.366 . S
C551 C555 1.385 . S
C552 H533 0.951 . S
C552 C550 1.388 . S
C552 C553 1.366 . S
C553 C552 1.366 . S
C553 C554 1.414 . S
C553 C556 1.499 . S
C554 H534 0.950 . S
C554 C553 1.414 . S
C554 C555 1.374 . S
C555 H535 0.950 . S
C555 C551 1.385 . S
C555 C554 1.374 . S
C556 C553 1.499 . S
C556 C557 1.373 . S
C556 C558 1.389 . S
C557 H536 0.950 . S
C557 C556 1.373 . S
C557 C573 1.377 . S
C558 C556 1.389 . S
C558 C559 1.524 . S
C558 C572 1.377 . S
C559 C558 1.524 . S
C559 C560 1.397 . S
C559 C564 1.363 . S
C560 H537 0.950 . S
C560 C559 1.397 . S
C560 C561 1.334 . S
C561 H538 0.950 . S
C561 C560 1.334 . S
C561 C562 1.287 . S
C562 C561 1.287 . S
C562 C563 1.524 . S
C562 H581 0.913 . S
C563 H539 0.950 . S
C563 C562 1.524 . S
C563 C564 1.415 . S
C564 H540 0.950 . S
C564 C559 1.363 . S
C564 C563 1.415 . S
C565 H541 0.951 . S
C565 C566 1.366 . S
C565 C567 1.388 . S
C566 C565 1.366 . S
C566 C570 1.385 . S
C567 H542 0.951 . S
C567 C565 1.388 . S
C567 C568 1.366 . S
C568 C567 1.366 . S
C568 C569 1.414 . S
C568 C571 1.499 . S
C569 H543 0.950 . S
C569 C568 1.414 . S
C569 C570 1.374 . S
C570 H544 0.950 . S
C570 C566 1.385 . S
C570 C569 1.374 . S
C571 C568 1.499 . S
C571 C572 1.373 . S
C571 C573 1.389 . S
C572 H545 0.950 . S
C572 C558 1.377 . S
C572 C571 1.373 . S
C573 C557 1.377 . S
C573 C571 1.389 . S
C573 C574 1.524 . S
C574 C573 1.524 . S
C574 C575 1.397 . S
C574 C579 1.363 . S
C575 H546 0.950 . S
C575 C574 1.397 . S
C575 C576 1.334 . S
C576 H547 0.950 . S
C576 C575 1.334 . S
C576 C577 1.287 . S
C577 C576 1.287 . S
C577 C578 1.524 . S
C577 H580 0.999 . S
C578 H548 0.950 . S
C578 C577 1.524 . S
C578 C579 1.415 . S
C579 H549 0.950 . S
C579 C574 1.363 . S
C579 C578 1.415 . S
H580 C577 0.999 . S
H581 C562 0.913 . S
H582 C600 0.951 . S
H583 C602 0.951 . S
H584 C604 0.950 . S
H585 C605 0.950 . S
H586 C607 0.950 . S
H587 C610 0.950 . S
H588 C611 0.950 . S
H589 C613 0.950 . S
H590 C614 0.950 . S
H591 C615 0.951 . S
H592 C617 0.951 . S
H593 C619 0.950 . S
H594 C620 0.950 . S
H595 C622 0.950 . S
H596 C625 0.950 . S
H597 C626 0.950 . S
H598 C628 0.950 . S
H599 C629 0.950 . S
C600 H582 0.951 . S
C600 C601 1.366 . S
C600 C602 1.388 . S
C601 C600 1.366 . S
C601 C605 1.385 . S
C602 H583 0.951 . S
C602 C600 1.388 . S
C602 C603 1.366 . S
C603 C602 1.366 . S
C603 C604 1.414 . S
C603 C606 1.499 . S
C604 H584 0.950 . S
C604 C603 1.414 . S
C604 C605 1.374 . S
C605 H585 0.950 . S
C605 C601 1.385 . S
C605 C604 1.374 . S
C606 C603 1.499 . S
C606 C607 1.373 . S
C606 C608 1.389 . S
C607 H586 0.950 . S
C607 C606 1.373 . S
C607 C623 1.377 . S
C608 C606 1.389 . S
C608 C609 1.524 . S
C608 C622 1.377 . S
C609 C608 1.524 . S
C609 C610 1.397 . S
C609 C614 1.363 . S
C610 H587 0.950 . S
C610 C609 1.397 . S
C610 C611 1.334 . S
C611 H588 0.950 . S
C611 C610 1.334 . S
C611 C612 1.287 . S
C612 C611 1.287 . S
C612 C613 1.524 . S
C612 H631 0.913 . S
C613 H589 0.950 . S
C613 C612 1.524 . S
C613 C614 1.415 . S
C614 H590 0.950 . S
C614 C609 1.363 . S
C614 C613 1.415 . S
C615 H591 0.951 . S
C615 C616 1.366 . S
C615 C617 1.388 . S
C616 C615 1.366 . S
C616 C620 1.385 . S
C617 H592 0.951 . S
C617 C615 1.388 . S
C617 C618 1.366 . S
C618 C617 1.366 . S
C618 C619 1.414 . S
C618 C621 1.499 . S
C619 H593 0.950 . S
C619 C618 1.414 . S
C619 C620 1.374 . S
C620 H594 0.950 . S
C620 C616 1.385 . S
C620 C619 1.374 . S
C621 C618 1.499 . S
C621 C622 1.373 . S
C621 C623 1.389 . S
C622 H595 0.950 . S
C622 C608 1.377 . S
C622 C621 1.373 . S
C623 C607 1.377 . S
C623 C621 1.389 . S
C623 C624 1.524 . S
C624 C623 1.524 . S
C624 C625 1.397 . S
C624 C629 1.363 . S
C625 H596 0.950 . S
C625 C624 1.397 . S
C625 C626 1.334 . S
C626 H597 0.950 . S
C626 C625 1.334 . S
C626 C627 1.287 . S
C627 C626 1.287 . S
C627 C628 1.524 . S
C627 H630 0.999 . S
C628 H598 0.950 . S
C628 C627 1.524 . S
C628 C629 1.415 . S
C629 H599 0.950 . S
C629 C624 1.363 . S
C629 C628 1.415 . S
H630 C627 0.999 . S
H631 C612 0.913 . S
H632 C650 0.951 . S
H633 C652 0.951 . S
H634 C654 0.950 . S
H635 C655 0.950 . S
H636 C657 0.950 . S
H637 C660 0.950 . S
H638 C661 0.950 . S
H639 C663 0.950 . S
H640 C664 0.950 . S
H641 C665 0.951 . S
H642 C667 0.951 . S
H643 C669 0.950 . S
H644 C670 0.950 . S
H645 C672 0.950 . S
H646 C675 0.950 . S
H647 C676 0.950 . S
H648 C678 0.950 . S
H649 C679 0.950 . S
C650 H632 0.951 . S
C650 C651 1.366 . S
C650 C652 1.388 . S
C651 C650 1.366 . S
C651 C655 1.385 . S
C652 H633 0.951 . S
C652 C650 1.388 . S
C652 C653 1.366 . S
C653 C652 1.366 . S
C653 C654 1.414 . S
C653 C656 1.499 . S
C654 H634 0.950 . S
C654 C653 1.414 . S
C654 C655 1.374 . S
C655 H635 0.950 . S
C655 C651 1.385 . S
C655 C654 1.374 . S
C656 C653 1.499 . S
C656 C657 1.373 . S
C656 C658 1.389 . S
C657 H636 0.950 . S
C657 C656 1.373 . S
C657 C673 1.377 . S
C658 C656 1.389 . S
C658 C659 1.524 . S
C658 C672 1.377 . S
C659 C658 1.524 . S
C659 C660 1.397 . S
C659 C664 1.363 . S
C660 H637 0.950 . S
C660 C659 1.397 . S
C660 C661 1.334 . S
C661 H638 0.950 . S
C661 C660 1.334 . S
C661 C662 1.287 . S
C662 C661 1.287 . S
C662 C663 1.524 . S
C662 H681 0.913 . S
C663 H639 0.950 . S
C663 C662 1.524 . S
C663 C664 1.415 . S
C664 H640 0.950 . S
C664 C659 1.363 . S
C664 C663 1.415 . S
C665 H641 0.951 . S
C665 C666 1.366 . S
C665 C667 1.388 . S
C666 C665 1.366 . S
C666 C670 1.385 . S
C667 H642 0.951 . S
C667 C665 1.388 . S
C667 C668 1.366 . S
C668 C667 1.366 . S
C668 C669 1.414 . S
C668 C671 1.499 . S
C669 H643 0.950 . S
C669 C668 1.414 . S
C669 C670 1.374 . S
C670 H644 0.950 . S
C670 C666 1.385 . S
C670 C669 1.374 . S
C671 C668 1.499 . S
C671 C672 1.373 . S
C671 C673 1.389 . S
C672 H645 0.950 . S
C672 C658 1.377 . S
C672 C671 1.373 . S
C673 C657 1.377 . S
C673 C671 1.389 . S
C673 C674 1.524 . S
C674 C673 1.524 . S
C674 C675 1.397 . S
C674 C679 1.363 . S
C675 H646 0.950 . S
C675 C674 1.397 . S
C675 C676 1.334 . S
C676 H647 0.950 . S
C676 C675 1.334 . S
C676 C677 1.287 . S
C677 C676 1.287 . S
C677 C678 1.524 . S
C677 H680 0.999 . S
C678 H648 0.950 . S
C678 C677 1.524 . S
C678 C679 1.415 . S
C679 H649 0.950 . S
C679 C674 1.363 . S
C679 C678 1.415 . S
H680 C677 0.999 . S
H681 C662 0.913 . S
H682 C700 0.951 . S
H683 C702 0.951 . S
H684 C704 0.950 . S
H685 C705 0.950 . S
H686 C707 0.950 . S
H687 C710 0.950 . S
H688 C711 0.950 . S
H689 C713 0.950 . S
H690 C714 0.950 . S
H691 C715 0.951 . S
H692 C717 0.951 . S
H693 C719 0.950 . S
H694 C720 0.950 . S
H695 C722 0.950 . S
H696 C725 0.950 . S
H697 C726 0.950 . S
H698 C728 0.950 . S
H699 C729 0.950 . S
C700 H682 0.951 . S
C700 C701 1.366 . S
C700 C702 1.388 . S
C701 C700 1.366 . S
C701 C705 1.385 . S
C702 H683 0.951 . S
C702 C700 1.388 . S
C702 C703 1.366 . S
C703 C702 1.366 . S
C703 C704 1.414 . S
C703 C706 1.499 . S
C704 H684 0.950 . S
C704 C703 1.414 . S
C704 C705 1.374 . S
C705 H685 0.950 . S
C705 C701 1.385 . S
C705 C704 1.374 . S
C706 C703 1.499 . S
C706 C707 1.373 . S
C706 C708 1.389 . S
C707 H686 0.950 . S
C707 C706 1.373 . S
C707 C723 1.377 . S
C708 C706 1.389 . S
C708 C709 1.524 . S
C708 C722 1.377 . S
C709 C708 1.524 . S
C709 C710 1.397 . S
C709 C714 1.363 . S
C710 H687 0.950 . S
C710 C709 1.397 . S
C710 C711 1.334 . S
C711 H688 0.950 . S
C711 C710 1.334 . S
C711 C712 1.287 . S
C712 C711 1.287 . S
C712 C713 1.524 . S
C712 H731 0.913 . S
C713 H689 0.950 . S
C713 C712 1.524 . S
C713 C714 1.415 . S
C714 H690 0.950 . S
C714 C709 1.363 . S
C714 C713 1.415 . S
C715 H691 0.951 . S
C715 C716 1.366 . S
C715 C717 1.388 . S
C716 C715 1.366 . S
C716 C720 1.385 . S
C717 H692 0.951 . S
C717 C715 1.388 . S
C717 C718 1.366 . S
C718 C717 1.366 . S
C718 C719 1.414 . S
C718 C721 1.499 . S
C719 H693 0.950 . S
C719 C718 1.414 . S
C719 C720 1.374 . S
C720 H694 0.950 . S
C720 C716 1.385 . S
C720 C719 1.374 . S
C721 C718 1.499 . S
C721 C722 1.373 . S
C721 C723 1.389 . S
C722 H695 0.950 . S
C722 C708 1.377 . S
C722 C721 1.373 . S
C723 C707 1.377 . S
C723 C721 1.389 . S
C723 C724 1.524 . S
C724 C723 1.524 . S
C724 C725 1.397 . S
C724 C729 1.363 . S
C725 H696 0.950 . S
C725 C724 1.397 . S
C725 C726 1.334 . S
C726 H697 0.950 . S
C726 C725 1.334 . S
C726 C727 1.287 . S
C727 C726 1.287 . S
C727 C728 1.524 . S
C727 H730 0.999 . S
C728 H698 0.950 . S
C728 C727 1.524 . S
C728 C729 1.415 . S
C729 H699 0.950 . S
C729 C724 1.363 . S
C729 C728 1.415 . S
H730 C727 0.999 . S
H731 C712 0.913 . S
H732 C750 0.951 . S
H733 C752 0.951 . S
H734 C754 0.950 . S
H735 C755 0.950 . S
H736 C757 0.950 . S
H737 C760 0.950 . S
H738 C761 0.950 . S
H739 C763 0.950 . S
H740 C764 0.950 . S
H741 C765 0.951 . S
H742 C767 0.951 . S
H743 C769 0.950 . S
H744 C770 0.950 . S
H745 C772 0.950 . S
H746 C775 0.950 . S
H747 C776 0.950 . S
H748 C778 0.950 . S
H749 C779 0.950 . S
C750 H732 0.951 . S
C750 C751 1.366 . S
C750 C752 1.388 . S
C751 C750 1.366 . S
C751 C755 1.385 . S
C752 H733 0.951 . S
C752 C750 1.388 . S
C752 C753 1.366 . S
C753 C752 1.366 . S
C753 C754 1.414 . S
C753 C756 1.499 . S
C754 H734 0.950 . S
C754 C753 1.414 . S
C754 C755 1.374 . S
C755 H735 0.950 . S
C755 C751 1.385 . S
C755 C754 1.374 . S
C756 C753 1.499 . S
C756 C757 1.373 . S
C756 C758 1.389 . S
C757 H736 0.950 . S
C757 C756 1.373 . S
C757 C773 1.377 . S
C758 C756 1.389 . S
C758 C759 1.524 . S
C758 C772 1.377 . S
C759 C758 1.524 . S
C759 C760 1.397 . S
C759 C764 1.363 . S
C760 H737 0.950 . S
C760 C759 1.397 . S
C760 C761 1.334 . S
C761 H738 0.950 . S
C761 C760 1.334 . S
C761 C762 1.287 . S
C762 C761 1.287 . S
C762 C763 1.524 . S
C762 H781 0.913 . S
C763 H739 0.950 . S
C763 C762 1.524 . S
C763 C764 1.415 . S
C764 H740 0.950 . S
C764 C759 1.363 . S
C764 C763 1.415 . S
C765 H741 0.951 . S
C765 C766 1.366 . S
C765 C767 1.388 . S
C766 C765 1.366 . S
C766 C770 1.385 . S
C767 H742 0.951 . S
C767 C765 1.388 . S
C767 C768 1.366 . S
C768 C767 1.366 . S
C768 C769 1.414 . S
C768 C771 1.499 . S
C769 H743 0.950 . S
C769 C768 1.414 . S
C769 C770 1.374 . S
C770 H744 0.950 . S
C770 C766 1.385 . S
C770 C769 1.374 . S
C771 C768 1.499 . S
C771 C772 1.373 . S
C771 C773 1.389 . S
C772 H745 0.950 . S
C772 C758 1.377 . S
C772 C771 1.373 . S
C773 C757 1.377 . S
C773 C771 1.389 . S
C773 C774 1.524 . S
C774 C773 1.524 . S
C774 C775 1.397 . S
C774 C779 1.363 . S
C775 H746 0.950 . S
C775 C774 1.397 . S
C775 C776 1.334 . S
C776 H747 0.950 . S
C776 C775 1.334 . S
C776 C777 1.287 . S
C777 C776 1.287 . S
C777 C778 1.524 . S
C777 H780 0.999 . S
C778 H748 0.950 . S
C778 C777 1.524 . S
C778 C779 1.415 . S
C779 H749 0.950 . S
C779 C774 1.363 . S
C779 C778 1.415 . S
H780 C777 0.999 . S
H781 C762 0.913 . S
H782 C800 0.951 . S
H783 C802 0.951 . S
H784 C804 0.950 . S
H785 C805 0.950 . S
H786 C807 0.950 . S
H787 C810 0.950 . S
H788 C811 0.950 . S
H789 C813 0.950 . S
H790 C814 0.950 . S
H791 C815 0.951 . S
H792 C817 0.951 . S
H793 C819 0.950 . S
H794 C820 0.950 . S
H795 C822 0.950 . S
H796 C825 0.950 . S
H797 C826 0.950 . S
H798 C828 0.950 . S
H799 C829 0.950 . S
C800 H782 0.951 . S
C800 C801 1.366 . S
C800 C802 1.388 . S
C801 C800 1.366 . S
C801 C805 1.385 . S
C802 H783 0.951 . S
C802 C800 1.388 . S
C802 C803 1.366 . S
C803 C802 1.366 . S
C803 C804 1.414 . S
C803 C806 1.499 . S
C804 H784 0.950 . S
C804 C803 1.414 . S
C804 C805 1.374 . S
C805 H785 0.950 . S
C805 C801 1.385 . S
C805 C804 1.374 . S
C806 C803 1.499 . S
C806 C807 1.373 . S
C806 C808 1.389 . S
C807 H786 0.950 . S
C807 C806 1.373 . S
C807 C823 1.377 . S
C808 C806 1.389 . S
C808 C809 1.524 . S
C808 C822 1.377 . S
C809 C808 1.524 . S
C809 C810 1.397 . S
C809 C814 1.363 . S
C810 H787 0.950 . S
C810 C809 1.397 . S
C810 C811 1.334 . S
C811 H788 0.950 . S
C811 C810 1.334 . S
C811 C812 1.287 . S
C812 C811 1.287 . S
C812 C813 1.524 . S
C812 H831 0.913 . S
C813 H789 0.950 . S
C813 C812 1.524 . S
C813 C814 1.415 . S
C814 H790 0.950 . S
C814 C809 1.363 . S
C814 C813 1.415 . S
C815 H791 0.951 . S
C815 C816 1.366 . S
C815 C817 1.388 . S
C816 C815 1.366 . S
C816 C820 1.385 . S
C817 H792 0.951 . S
C817 C815 1.388 . S
C817 C818 1.366 . S
C818 C817 1.366 . S
C818 C819 1.414 . S
C818 C821 1.499 . S
C819 H793 0.950 . S
C819 C818 1.414 . S
C819 C820 1.374 . S
C820 H794 0.950 . S
C820 C816 1.385 . S
C820 C819 1.374 . S
C821 C818 1.499 . S
C821 C822 1.373 . S
C821 C823 1.389 . S
C822 H795 0.950 . S
C822 C808 1.377 . S
C822 C821 1.373 . S
C823 C807 1.377 . S
C823 C821 1.389 . S
C823 C824 1.524 . S
C824 C823 1.524 . S
C824 C825 1.397 . S
C824 C829 1.363 . S
C825 H796 0.950 . S
C825 C824 1.397 . S
C825 C826 1.334 . S
C826 H797 0.950 . S
C826 C825 1.334 . S
C826 C827 1.287 . S
C827 C826 1.287 . S
C827 C828 1.524 . S
C827 H830 0.999 . S
C828 H798 0.950 . S
C828 C827 1.524 . S
C828 C829 1.415 . S
C829 H799 0.950 . S
C829 C824 1.363 . S
C829 C828 1.415 . S
H830 C827 0.999 . S
H831 C812 0.913 . S
H832 C850 0.951 . S
H833 C852 0.951 . S
H834 C854 0.950 . S
H835 C855 0.950 . S
H836 C857 0.950 . S
H837 C860 0.950 . S
H838 C861 0.950 . S
H839 C863 0.950 . S
H840 C864 0.950 . S
H841 C865 0.951 . S
H842 C867 0.951 . S
H843 C869 0.950 . S
H844 C870 0.950 . S
H845 C872 0.950 . S
H846 C875 0.950 . S
H847 C876 0.950 . S
H848 C878 0.950 . S
H849 C879 0.950 . S
C850 H832 0.951 . S
C850 C851 1.366 . S
C850 C852 1.388 . S
C851 C850 1.366 . S
C851 C855 1.385 . S
C852 H833 0.951 . S
C852 C850 1.388 . S
C852 C853 1.366 . S
C853 C852 1.366 . S
C853 C854 1.414 . S
C853 C856 1.499 . S
C854 H834 0.950 . S
C854 C853 1.414 . S
C854 C855 1.374 . S
C855 H835 0.950 . S
C855 C851 1.385 . S
C855 C854 1.374 . S
C856 C853 1.499 . S
C856 C857 1.373 . S
C856 C858 1.389 . S
C857 H836 0.950 . S
C857 C856 1.373 . S
C857 C873 1.377 . S
C858 C856 1.389 . S
C858 C859 1.524 . S
C858 C872 1.377 . S
C859 C858 1.524 . S
C859 C860 1.397 . S
C859 C864 1.363 . S
C860 H837 0.950 . S
C860 C859 1.397 . S
C860 C861 1.334 . S
C861 H838 0.950 . S
C861 C860 1.334 . S
C861 C862 1.287 . S
C862 C861 1.287 . S
C862 C863 1.524 . S
C862 H881 0.913 . S
C863 H839 0.950 . S
C863 C862 1.524 . S
C863 C864 1.415 . S
C864 H840 0.950 . S
C864 C859 1.363 . S
C864 C863 1.415 . S
C865 H841 0.951 . S
C865 C866 1.366 . S
C865 C867 1.388 . S
C866 C865 1.366 . S
C866 C870 1.385 . S
C867 H842 0.951 . S
C867 C865 1.388 . S
C867 C868 1.366 . S
C868 C867 1.366 . S
C868 C869 1.414 . S
C868 C871 1.499 . S
C869 H843 0.950 . S
C869 C868 1.414 . S
C869 C870 1.374 . S
C870 H844 0.950 . S
C870 C866 1.385 . S
C870 C869 1.374 . S
C871 C868 1.499 . S
C871 C872 1.373 . S
C871 C873 1.389 . S
C872 H845 0.950 . S
C872 C858 1.377 . S
C872 C871 1.373 . S
C873 C857 1.377 . S
C873 C871 1.389 . S
C873 C874 1.524 . S
C874 C873 1.524 . S
C874 C875 1.397 . S
C874 C879 1.363 . S
C875 H846 0.950 . S
C875 C874 1.397 . S
C875 C876 1.334 . S
C876 H847 0.950 . S
C876 C875 1.334 . S
C876 C877 1.287 . S
C877 C876 1.287 . S
C877 C878 1.524 . S
C877 H880 0.999 . S
C878 H848 0.950 . S
C878 C877 1.524 . S
C878 C879 1.415 . S
C879 H849 0.950 . S
C879 C874 1.363 . S
C879 C878 1.415 . S
H880 C877 0.999 . S
H881 C862 0.913 . S
H882 C900 0.951 . S
H883 C902 0.951 . S
H884 C904 0.950 . S
H885 C905 0.950 . S
H886 C907 0.950 . S
H887 C910 0.950 . S
H888 C911 0.950 . S
H889 C913 0.950 . S
H890 C914 0.950 . S
H891 C915 0.951 . S
H892 C917 0.951 . S
H893 C919 0.950 . S
H894 C920 0.950 . S
H895 C922 0.950 . S
H896 C925 0.950 . S
H897 C926 0.950 . S
H898 C928 0.950 . S
H899 C929 0.950 . S
C900 H882 0.951 . S
C900 C901 1.366 . S
C900 C902 1.388 . S
C901 C900 1.366 . S
C901 C905 1.385 . S
C902 H883 0.951 . S
C902 C900 1.388 . S
C902 C903 1.366 . S
C903 C902 1.366 . S
C903 C904 1.414 . S
C903 C906 1.499 . S
C904 H884 0.950 . S
C904 C903 1.414 . S
C904 C905 1.374 . S
C905 H885 0.950 . S
C905 C901 1.385 . S
C905 C904 1.374 . S
C906 C903 1.499 . S
C906 C907 1.373 . S
C906 C908 1.389 . S
C907 H886 0.950 . S
C907 C906 1.373 . S
C907 C923 1.377 . S
C908 C906 1.389 . S
C908 C909 1.524 . S
C908 C922 1.377 . S
C909 C908 1.524 . S
C909 C910 1.397 . S
C909 C914 1.363 . S
C910 H887 0.950 . S
C910 C909 1.397 . S
C910 C911 1.334 . S
C911 H888 0.950 . S
C911 C910 1.334 . S
C911 C912 1.287 . S
C912 C911 1.287 . S
C912 C913 1.524 . S
C912 H931 0.913 . S
C913 H889 0.950 . S
C913 C912 1.524 . S
C913 C914 1.415 . S
C914 H890 0.950 . S
C914 C909 1.363 . S
C914 C913 1.415 . S
C915 H891 0.951 . S
C915 C916 1.366 . S
C915 C917 1.388 . S
C916 C915 1.366 . S
C916 C920 1.385 . S
C917 H892 0.951 . S
C917 C915 1.388 . S
C917 C918 1.366 . S
C918 C917 1.366 . S
C918 C919 1.414 . S
C918 C921 1.499 . S
C919 H893 0.950 . S
C919 C918 1.414 . S
C919 C920 1.374 . S
C920 H894 0.950 . S
C920 C916 1.385 . S
C920 C919 1.374 . S
C921 C918 1.499 . S
C921 C922 1.373 . S
C921 C923 1.389 . S
C922 H895 0.950 . S
C922 C908 1.377 . S
C922 C921 1.373 . S
C923 C907 1.377 . S
C923 C921 1.389 . S
C923 C924 1.524 . S
C924 C923 1.524 . S
C924 C925 1.397 . S
C924 C929 1.363 . S
C925 H896 0.950 . S
C925 C924 1.397 . S
C925 C926 1.334 . S
C926 H897 0.950 . S
C926 C925 1.334 . S
C926 C927 1.287 . S
C927 C926 1.287 . S
C927 C928 1.524 . S
C927 H930 0.999 . S
C928 H898 0.950 . S
C928 C927 1.524 . S
C928 C929 1.415 . S
C929 H899 0.950 . S
C929 C924 1.363 . S
C929 C928 1.415 . S
H930 C927 0.999 . S
H931 C912 0.913 . S
H932 C950 0.951 . S
H933 C952 0.951 . S
H934 C954 0.950 . S
H935 C955 0.950 . S
H936 C957 0.950 . S
H937 C960 0.950 . S
H938 C961 0.950 . S
H939 C963 0.950 . S
H940 C964 0.950 . S
H941 C965 0.951 . S
H942 C967 0.951 . S
H943 C969 0.950 . S
H944 C970 0.950 . S
H945 C972 0.950 . S
H946 C975 0.950 . S
H947 C976 0.950 . S
H948 C978 0.950 . S
H949 C979 0.950 . S
C950 H932 0.951 . S
C950 C951 1.366 . S
C950 C952 1.388 . S
C951 C950 1.366 . S
C951 C955 1.385 . S
C952 H933 0.951 . S
C952 C950 1.388 . S
C952 C953 1.366 . S
C953 C952 1.366 . S
C953 C954 1.414 . S
C953 C956 1.499 . S
C954 H934 0.950 . S
C954 C953 1.414 . S
C954 C955 1.374 . S
C955 H935 0.950 . S
C955 C951 1.385 . S
C955 C954 1.374 . S
C956 C953 1.499 . S
C956 C957 1.373 . S
C956 C958 1.389 . S
C957 H936 0.950 . S
C957 C956 1.373 . S
C957 C973 1.377 . S
C958 C956 1.389 . S
C958 C959 1.524 . S
C958 C972 1.377 . S
C959 C958 1.524 . S
C959 C960 1.397 . S
C959 C964 1.363 . S
C960 H937 0.950 . S
C960 C959 1.397 . S
C960 C961 1.334 . S
C961 H938 0.950 . S
C961 C960 1.334 . S
C961 C962 1.287 . S
C962 C961 1.287 . S
C962 C963 1.524 . S
C962 H981 0.913 . S
C963 H939 0.950 . S
C963 C962 1.524 . S
C963 C964 1.415 . S
C964 H940 0.950 . S
C964 C959 1.363 . S
C964 C963 1.415 . S
C965 H941 0.951 . S
C965 C966 1.366 . S
C965 C967 1.388 . S
C966 C965 1.366 . S
C966 C970 1.385 . S
C967 H942 0.951 . S
C967 C965 1.388 . S
C967 C968 1.366 . S
C968 C967 1.366 . S
C968 C969 1.414 . S
C968 C971 1.499 . S
C969 H943 0.950 . S
C969 C968 1.414 . S
C969 C970 1.374 . S
C970 H944 0.950 . S
C970 C966 1.385 . S
C970 C969 1.374 . S
C971 C968 1.499 . S
C971 C972 1.373 . S
C971 C973 1.389 . S
C972 H945 0.950 . S
C972 C958 1.377 . S
C972 C971 1.373 . S
C973 C957 1.377 . S
C973 C971 1.389 . S
C973 C974 1.524 . S
C974 C973 1.524 . S
C974 C975 1.397 . S
C974 C979 1.363 . S
C975 H946 0.950 . S
C975 C974 1.397 . S
C975 C976 1.334 . S
C976 H947 0.950 . S
C976 C975 1.334 . S
C976 C977 1.287 . S
C977 C976 1.287 . S
C977 C978 1.524 . S
C977 H980 0.999 . S
C978 H948 0.950 . S
C978 C977 1.524 . S
C978 C979 1.415 . S
C979 H949 0.950 . S
C979 C974 1.363 . S
C979 C978 1.415 . S
H980 C977 0.999 . S
H981 C962 0.913 . S
H982 C1000 0.951 . S
H983 C1002 0.951 . S
H984 C1004 0.950 . S
H985 C1005 0.950 . S
H986 C1007 0.950 . S
H987 C1010 0.950 . S
H988 C1011 0.950 . S
H989 C1013 0.950 . S
H990 C1014 0.950 . S
H991 C1015 0.951 . S
H992 C1017 0.951 . S
H993 C1019 0.950 . S
H994 C1020 0.950 . S
H995 C1022 0.950 . S
H996 C1025 0.950 . S
H997 C1026 0.950 . S
H998 C1028 0.950 . S
H999 C1029 0.950 . S
C1000 H982 0.951 . S
C1000 C1001 1.366 . S
C1000 C1002 1.388 . S
C1001 C1000 1.366 . S
C1001 C1005 1.385 . S
C1002 H983 0.951 . S
C1002 C1000 1.388 . S
C1002 C1003 1.366 . S
C1003 C1002 1.366 . S
C1003 C1004 1.414 . S
C1003 C1006 1.499 . S
C1004 H984 0.950 . S
C1004 C1003 1.414 . S
C1004 C1005 1.374 . S
C1005 H985 0.950 . S
C1005 C1001 1.385 . S
C1005 C1004 1.374 . S
C1006 C1003 1.499 . S
C1006 C1007 1.373 . S
C1006 C1008 1.389 . S
C1007 H986 0.950 . S
C1007 C1006 1.373 . S
C1007 C1023 1.377 . S
C1008 C1006 1.389 . S
C1008 C1009 1.524 . S
C1008 C1022 1.377 . S
C1009 C1008 1.524 . S
C1009 C1010 1.397 . S
C1009 C1014 1.363 . S
C1010 H987 0.950 . S
C1010 C1009 1.397 . S
C1010 C1011 1.334 . S
C1011 H988 0.950 . S
C1011 C1010 1.334 . S
C1011 C1012 1.287 . S
C1012 C1011 1.287 . S
C1012 C1013 1.524 . S
C1012 H1031 0.913 . S
C1013 H989 0.950 . S
C1013 C1012 1.524 . S
C1013 C1014 1.415 . S
C1014 H990 0.950 . S
C1014 C1009 1.363 . S
C1014 C1013 1.415 . S
C1015 H991 0.951 . S
C1015 C1016 1.366 . S
C1015 C1017 1.388 . S
C1016 C1015 1.366 . S
C1016 C1020 1.385 . S
C1017 H992 0.951 . S
C1017 C1015 1.388 . S
C1017 C1018 1.366 . S
C1018 C1017 1.366 . S
C1018 C1019 1.414 . S
C1018 C1021 1.499 . S
C1019 H993 0.950 . S
C1019 C1018 1.414 . S
C1019 C1020 1.374 . S
C1020 H994 0.950 . S
C1020 C1016 1.385 . S
C1020 C1019 1.374 . S
C1021 C1018 1.499 . S
C1021 C1022 1.373 . S
C1021 C1023 1.389 . S
C1022 H995 0.950 . S
C1022 C1008 1.377 . S
C1022 C1021 1.373 . S
C1023 C1007 1.377 . S
C1023 C1021 1.389 . S
C1023 C1024 1.524 . S
C1024 C1023 1.524 . S
C1024 C1025 1.397 . S
C1024 C1029 1.363 . S
C1025 H996 0.950 . S
C1025 C1024 1.397 . S
C1025 C1026 1.334 . S
C1026 H997 0.950 . S
C1026 C1025 1.334 . S
C1026 C1027 1.287 . S
C1027 C1026 1.287 . S
C1027 C1028 1.524 . S
C1027 H1030 0.999 . S
C1028 H998 0.950 . S
C1028 C1027 1.524 . S
C1028 C1029 1.415 . S
C1029 H999 0.950 . S
C1029 C1024 1.363 . S
C1029 C1028 1.415 . S
H1030 C1027 0.999 . S
H1031 C1012 0.913 . S
H1032 C1050 0.951 . S
H1033 C1052 0.951 . S
H1034 C1054 0.950 . S
H1035 C1055 0.950 . S
H1036 C1057 0.950 . S
H1037 C1060 0.950 . S
H1038 C1061 0.950 . S
H1039 C1063 0.950 . S
H1040 C1064 0.950 . S
H1041 C1065 0.951 . S
H1042 C1067 0.951 . S
H1043 C1069 0.950 . S
H1044 C1070 0.950 . S
H1045 C1072 0.950 . S
H1046 C1075 0.950 . S
H1047 C1076 0.950 . S
H1048 C1078 0.950 . S
H1049 C1079 0.950 . S
C1050 H1032 0.951 . S
C1050 C1051 1.366 . S
C1050 C1052 1.388 . S
C1051 C1050 1.366 . S
C1051 C1055 1.385 . S
C1052 H1033 0.951 . S
C1052 C1050 1.388 . S
C1052 C1053 1.366 . S
C1053 C1052 1.366 . S
C1053 C1054 1.414 . S
C1053 C1056 1.499 . S
C1054 H1034 0.950 . S
C1054 C1053 1.414 . S
C1054 C1055 1.374 . S
C1055 H1035 0.950 . S
C1055 C1051 1.385 . S
C1055 C1054 1.374 . S
C1056 C1053 1.499 . S
C1056 C1057 1.373 . S
C1056 C1058 1.389 . S
C1057 H1036 0.950 . S
C1057 C1056 1.373 . S
C1057 C1073 1.377 . S
C1058 C1056 1.389 . S
C1058 C1059 1.524 . S
C1058 C1072 1.377 . S
C1059 C1058 1.524 . S
C1059 C1060 1.397 . S
C1059 C1064 1.363 . S
C1060 H1037 0.950 . S
C1060 C1059 1.397 . S
C1060 C1061 1.334 . S
C1061 H1038 0.950 . S
C1061 C1060 1.334 . S
C1061 C1062 1.287 . S
C1062 C1061 1.287 . S
C1062 C1063 1.524 . S
C1062 H1081 0.913 . S
C1063 H1039 0.950 . S
C1063 C1062 1.524 . S
C1063 C1064 1.415 . S
C1064 H1040 0.950 . S
C1064 C1059 1.363 . S
C1064 C1063 1.415 . S
C1065 H1041 0.951 . S
C1065 C1066 1.366 . S
C1065 C1067 1.388 . S
C1066 C1065 1.366 . S
C1066 C1070 1.385 . S
C1067 H1042 0.951 . S
C1067 C1065 1.388 . S
C1067 C1068 1.366 . S
C1068 C1067 1.366 . S
C1068 C1069 1.414 . S
C1068 C1071 1.499 . S
C1069 H1043 0.950 . S
C1069 C1068 1.414 . S
C1069 C1070 1.374 . S
C1070 H1044 0.950 . S
C1070 C1066 1.385 . S
C1070 C1069 1.374 . S
C1071 C1068 1.499 . S
C1071 C1072 1.373 . S
C1071 C1073 1.389 . S
C1072 H1045 0.950 . S
C1072 C1058 1.377 . S
C1072 C1071 1.373 . S
C1073 C1057 1.377 . S
C1073 C1071 1.389 . S
C1073 C1074 1.524 . S
C1074 C1073 1.524 . S
C1074 C1075 1.397 . S
C1074 C1079 1.363 . S
C1075 H1046 0.950 . S
C1075 C1074 1.397 . S
C1075 C1076 1.334 . S
C1076 H1047 0.950 . S
C1076 C1075 1.334 . S
C1076 C1077 1.287 . S
C1077 C1076 1.287 . S
C1077 C1078 1.524 . S
C1077 H1080 0.999 1_556 S
C1078 H1048 0.950 . S
C1078 C1077 1.524 . S
C1078 C1079 1.415 . S
C1079 H1049 0.950 . S
C1079 C1074 1.363 . S
C1079 C1078 1.415 . S
H1080 C1077 0.999 1_554 S
H1081 C1062 0.913 . S
H1082 C1100 0.951 . S
H1083 C1102 0.951 . S
H1084 C1104 0.950 . S
H1085 C1105 0.950 . S
H1086 C1107 0.950 . S
H1087 C1110 0.950 . S
H1088 C1111 0.950 . S
H1089 C1113 0.950 . S
H1090 C1114 0.950 . S
H1091 C1115 0.951 . S
H1092 C1117 0.951 . S
H1093 C1119 0.950 . S
H1094 C1120 0.950 . S
H1095 C1122 0.950 . S
H1096 C1125 0.950 . S
H1097 C1126 0.950 . S
H1098 C1128 0.950 . S
H1099 C1129 0.950 . S
C1100 H1082 0.951 . S
C1100 C1101 1.366 . S
C1100 C1102 1.388 . S
C1101 C1100 1.366 . S
C1101 C1105 1.385 . S
C1102 H1083 0.951 . S
C1102 C1100 1.388 . S
C1102 C1103 1.366 . S
C1103 C1102 1.366 . S
C1103 C1104 1.414 . S
C1103 C1106 1.499 . S
C1104 H1084 0.950 . S
C1104 C1103 1.414 . S
C1104 C1105 1.374 . S
C1105 H1085 0.950 . S
C1105 C1101 1.385 . S
C1105 C1104 1.374 . S
C1106 C1103 1.499 . S
C1106 C1107 1.373 . S
C1106 C1108 1.389 . S
C1107 H1086 0.950 . S
C1107 C1106 1.373 . S
C1107 C1123 1.377 . S
C1108 C1106 1.389 . S
C1108 C1109 1.524 . S
C1108 C1122 1.377 . S
C1109 C1108 1.524 . S
C1109 C1110 1.397 . S
C1109 C1114 1.363 . S
C1110 H1087 0.950 . S
C1110 C1109 1.397 . S
C1110 C1111 1.334 . S
C1111 H1088 0.950 . S
C1111 C1110 1.334 . S
C1111 C1112 1.287 . S
C1112 C1111 1.287 . S
C1112 C1113 1.524 . S
C1112 H1131 0.913 . S
C1113 H1089 0.950 . S
C1113 C1112 1.524 . S
C1113 C1114 1.415 . S
C1114 H1090 0.950 . S
C1114 C1109 1.363 . S
C1114 C1113 1.415 . S
C1115 H1091 0.951 . S
C1115 C1116 1.366 . S
C1115 C1117 1.388 . S
C1116 C1115 1.366 . S
C1116 C1120 1.385 . S
C1117 H1092 0.951 . S
C1117 C1115 1.388 . S
C1117 C1118 1.366 . S
C1118 C1117 1.366 . S
C1118 C1119 1.414 . S
C1118 C1121 1.499 . S
C1119 H1093 0.950 . S
C1119 C1118 1.414 . S
C1119 C1120 1.374 . S
C1120 H1094 0.950 . S
C1120 C1116 1.385 . S
C1120 C1119 1.374 . S
C1121 C1118 1.499 . S
C1121 C1122 1.373 . S
C1121 C1123 1.389 . S
C1122 H1095 0.950 . S
C1122 C1108 1.377 . S
C1122 C1121 1.373 . S
C1123 C1107 1.377 . S
C1123 C1121 1.389 . S
C1123 C1124 1.524 . S
C1124 C1123 1.524 . S
C1124 C1125 1.397 . S
C1124 C1129 1.363 . S
C1125 H1096 0.950 . S
C1125 C1124 1.397 . S
C1125 C1126 1.334 . S
C1126 H1097 0.950 . S
C1126 C1125 1.334 . S
C1126 C1127 1.287 . S
C1127 C1126 1.287 . S
C1127 C1128 1.524 1_545 S
C1127 H1130 0.999 1_545 S
C1128 H1098 0.950 . S
C1128 C1127 1.524 1_565 S
C1128 C1129 1.415 1_565 S
C1129 H1099 0.950 . S
C1129 C1124 1.363 . S
C1129 C1128 1.415 1_545 S
H1130 C1127 0.999 1_565 S
H1131 C1112 0.913 . S
H1132 C1150 0.951 . S
H1133 C1152 0.951 . S
H1134 C1154 0.950 . S
H1135 C1155 0.950 . S
H1136 C1157 0.950 . S
H1137 C1160 0.950 . S
H1138 C1161 0.950 . S
H1139 C1163 0.950 . S
H1140 C1164 0.950 . S
H1141 C1165 0.951 . S
H1142 C1167 0.951 . S
H1143 C1169 0.950 . S
H1144 C1170 0.950 . S
H1145 C1172 0.950 . S
H1146 C1175 0.950 . S
H1147 C1176 0.950 . S
H1148 C1178 0.950 . S
H1149 C1179 0.950 . S
C1150 H1132 0.951 . S
C1150 C1151 1.366 . S
C1150 C1152 1.388 . S
C1151 C1150 1.366 . S
C1151 C1155 1.385 . S
C1152 H1133 0.951 . S
C1152 C1150 1.388 . S
C1152 C1153 1.366 . S
C1153 C1152 1.366 . S
C1153 C1154 1.414 . S
C1153 C1156 1.499 . S
C1154 H1134 0.950 . S
C1154 C1153 1.414 . S
C1154 C1155 1.374 . S
C1155 H1135 0.950 . S
C1155 C1151 1.385 . S
C1155 C1154 1.374 . S
C1156 C1153 1.499 . S
C1156 C1157 1.373 . S
C1156 C1158 1.389 . S
C1157 H1136 0.950 . S
C1157 C1156 1.373 . S
C1157 C1173 1.377 . S
C1158 C1156 1.389 . S
C1158 C1159 1.524 . S
C1158 C1172 1.377 . S
C1159 C1158 1.524 . S
C1159 C1160 1.397 . S
C1159 C1164 1.363 . S
C1160 H1137 0.950 . S
C1160 C1159 1.397 . S
C1160 C1161 1.334 . S
C1161 H1138 0.950 . S
C1161 C1160 1.334 . S
C1161 C1162 1.287 . S
C1162 C1161 1.287 . S
C1162 C1163 1.524 . S
C1162 H1181 0.913 . S
C1163 H1139 0.950 . S
C1163 C1162 1.524 . S
C1163 C1164 1.415 . S
C1164 H1140 0.950 . S
C1164 C1159 1.363 . S
C1164 C1163 1.415 . S
C1165 H1141 0.951 . S
C1165 C1166 1.366 . S
C1165 C1167 1.388 . S
C1166 C1165 1.366 . S
C1166 C1170 1.385 . S
C1167 H1142 0.951 . S
C1167 C1165 1.388 . S
C1167 C1168 1.366 . S
C1168 C1167 1.366 . S
C1168 C1169 1.414 . S
C1168 C1171 1.499 . S
C1169 H1143 0.950 . S
C1169 C1168 1.414 . S
C1169 C1170 1.374 . S
C1170 H1144 0.950 . S
C1170 C1166 1.385 . S
C1170 C1169 1.374 . S
C1171 C1168 1.499 . S
C1171 C1172 1.373 . S
C1171 C1173 1.389 . S
C1172 H1145 0.950 . S
C1172 C1158 1.377 . S
C1172 C1171 1.373 . S
C1173 C1157 1.377 . S
C1173 C1171 1.389 . S
C1173 C1174 1.524 . S
C1174 C1173 1.524 . S
C1174 C1175 1.397 . S
C1174 C1179 1.363 . S
C1175 H1146 0.950 . S
C1175 C1174 1.397 . S
C1175 C1176 1.334 . S
C1176 H1147 0.950 . S
C1176 C1175 1.334 . S
C1176 C1177 1.287 . S
C1177 C1176 1.287 . S
C1177 C1178 1.524 . S
C1177 H1180 0.999 . S
C1178 H1148 0.950 . S
C1178 C1177 1.524 . S
C1178 C1179 1.415 . S
C1179 H1149 0.950 . S
C1179 C1174 1.363 . S
C1179 C1178 1.415 . S
H1180 C1177 0.999 . S
H1181 C1162 0.913 . S
H1182 C1200 0.951 . S
H1183 C1202 0.951 . S
H1184 C1204 0.950 . S
H1185 C1205 0.950 . S
H1186 C1207 0.950 . S
H1187 C1210 0.950 . S
H1188 C1211 0.950 . S
H1189 C1213 0.950 . S
H1190 C1214 0.950 . S
H1191 C1215 0.951 . S
H1192 C1217 0.951 . S
H1193 C1219 0.950 . S
H1194 C1220 0.950 . S
H1195 C1222 0.950 . S
H1196 C1225 0.950 . S
H1197 C1226 0.950 . S
H1198 C1228 0.950 . S
H1199 C1229 0.950 . S
C1200 H1182 0.951 . S
C1200 C1201 1.366 . S
C1200 C1202 1.388 . S
C1201 C1200 1.366 . S
C1201 C1205 1.385 . S
C1202 H1183 0.951 . S
C1202 C1200 1.388 . S
C1202 C1203 1.366 . S
C1203 C1202 1.366 . S
C1203 C1204 1.414 . S
C1203 C1206 1.499 . S
C1204 H1184 0.950 . S
C1204 C1203 1.414 . S
C1204 C1205 1.374 . S
C1205 H1185 0.950 . S
C1205 C1201 1.385 . S
C1205 C1204 1.374 . S
C1206 C1203 1.499 . S
C1206 C1207 1.373 . S
C1206 C1208 1.389 . S
C1207 H1186 0.950 . S
C1207 C1206 1.373 . S
C1207 C1223 1.377 . S
C1208 C1206 1.389 . S
C1208 C1209 1.524 . S
C1208 C1222 1.377 . S
C1209 C1208 1.524 . S
C1209 C1210 1.397 . S
C1209 C1214 1.363 . S
C1210 H1187 0.950 . S
C1210 C1209 1.397 . S
C1210 C1211 1.334 . S
C1211 H1188 0.950 . S
C1211 C1210 1.334 . S
C1211 C1212 1.287 . S
C1212 C1211 1.287 . S
C1212 C1213 1.524 . S
C1212 H1231 0.913 . S
C1213 H1189 0.950 . S
C1213 C1212 1.524 . S
C1213 C1214 1.415 . S
C1214 H1190 0.950 . S
C1214 C1209 1.363 . S
C1214 C1213 1.415 . S
C1215 H1191 0.951 . S
C1215 C1216 1.366 . S
C1215 C1217 1.388 . S
C1216 C1215 1.366 . S
C1216 C1220 1.385 . S
C1217 H1192 0.951 . S
C1217 C1215 1.388 . S
C1217 C1218 1.366 . S
C1218 C1217 1.366 . S
C1218 C1219 1.414 . S
C1218 C1221 1.499 . S
C1219 H1193 0.950 . S
C1219 C1218 1.414 . S
C1219 C1220 1.374 . S
C1220 H1194 0.950 . S
C1220 C1216 1.385 . S
C1220 C1219 1.374 . S
C1221 C1218 1.499 . S
C1221 C1222 1.373 . S
C1221 C1223 1.389 . S
C1222 H1195 0.950 . S
C1222 C1208 1.377 . S
C1222 C1221 1.373 . S
C1223 C1207 1.377 . S
C1223 C1221 1.389 . S
C1223 C1224 1.524 . S
C1224 C1223 1.524 . S
C1224 C1225 1.397 . S
C1224 C1229 1.363 . S
C1225 H1196 0.950 . S
C1225 C1224 1.397 . S
C1225 C1226 1.334 . S
C1226 H1197 0.950 . S
C1226 C1225 1.334 . S
C1226 C1227 1.287 . S
C1227 C1226 1.287 . S
C1227 C1228 1.524 . S
C1227 H1230 0.999 . S
C1228 H1198 0.950 . S
C1228 C1227 1.524 . S
C1228 C1229 1.415 . S
C1229 H1199 0.950 . S
C1229 C1224 1.363 . S
C1229 C1228 1.415 . S
H1230 C1227 0.999 . S
H1231 C1212 0.913 . S
H1232 C1250 0.951 . S
H1233 C1252 0.951 . S
H1234 C1254 0.950 . S
H1235 C1255 0.950 . S
H1236 C1257 0.950 . S
H1237 C1260 0.950 . S
H1238 C1261 0.950 . S
H1239 C1263 0.950 . S
H1240 C1264 0.950 . S
H1241 C1265 0.951 . S
H1242 C1267 0.951 . S
H1243 C1269 0.950 . S
H1244 C1270 0.950 . S
H1245 C1272 0.950 . S
H1246 C1275 0.950 . S
H1247 C1276 0.950 . S
H1248 C1278 0.950 . S
H1249 C1279 0.950 . S
C1250 H1232 0.951 . S
C1250 C1251 1.366 . S
C1250 C1252 1.388 . S
C1251 C1250 1.366 . S
C1251 C1255 1.385 . S
C1252 H1233 0.951 . S
C1252 C1250 1.388 . S
C1252 C1253 1.366 . S
C1253 C1252 1.366 . S
C1253 C1254 1.414 . S
C1253 C1256 1.499 . S
C1254 H1234 0.950 . S
C1254 C1253 1.414 . S
C1254 C1255 1.374 . S
C1255 H1235 0.950 . S
C1255 C1251 1.385 . S
C1255 C1254 1.374 . S
C1256 C1253 1.499 . S
C1256 C1257 1.373 . S
C1256 C1258 1.389 . S
C1257 H1236 0.950 . S
C1257 C1256 1.373 . S
C1257 C1273 1.377 . S
C1258 C1256 1.389 . S
C1258 C1259 1.524 . S
C1258 C1272 1.377 . S
C1259 C1258 1.524 . S
C1259 C1260 1.397 . S
C1259 C1264 1.363 . S
C1260 H1237 0.950 . S
C1260 C1259 1.397 . S
C1260 C1261 1.334 . S
C1261 H1238 0.950 . S
C1261 C1260 1.334 . S
C1261 C1262 1.287 . S
C1262 C1261 1.287 . S
C1262 C1263 1.524 . S
C1262 H1281 0.913 . S
C1263 H1239 0.950 . S
C1263 C1262 1.524 . S
C1263 C1264 1.415 . S
C1264 H1240 0.950 . S
C1264 C1259 1.363 . S
C1264 C1263 1.415 . S
C1265 H1241 0.951 . S
C1265 C1266 1.366 . S
C1265 C1267 1.388 . S
C1266 C1265 1.366 . S
C1266 C1270 1.385 . S
C1267 H1242 0.951 . S
C1267 C1265 1.388 . S
C1267 C1268 1.366 . S
C1268 C1267 1.366 . S
C1268 C1269 1.414 . S
C1268 C1271 1.499 . S
C1269 H1243 0.950 . S
C1269 C1268 1.414 . S
C1269 C1270 1.374 . S
C1270 H1244 0.950 . S
C1270 C1266 1.385 . S
C1270 C1269 1.374 . S
C1271 C1268 1.499 . S
C1271 C1272 1.373 . S
C1271 C1273 1.389 . S
C1272 H1245 0.950 . S
C1272 C1258 1.377 . S
C1272 C1271 1.373 . S
C1273 C1257 1.377 . S
C1273 C1271 1.389 . S
C1273 C1274 1.524 . S
C1274 C1273 1.524 . S
C1274 C1275 1.397 . S
C1274 C1279 1.363 . S
C1275 H1246 0.950 . S
C1275 C1274 1.397 . S
C1275 C1276 1.334 . S
C1276 H1247 0.950 . S
C1276 C1275 1.334 . S
C1276 C1277 1.287 . S
C1277 C1276 1.287 . S
C1277 C1278 1.524 . S
C1277 H1280 0.999 . S
C1278 H1248 0.950 . S
C1278 C1277 1.524 . S
C1278 C1279 1.415 . S
C1279 H1249 0.950 . S
C1279 C1274 1.363 . S
C1279 C1278 1.415 . S
H1280 C1277 0.999 . S
H1281 C1262 0.913 . S
H1282 C1300 0.951 . S
H1283 C1302 0.951 . S
H1284 C1304 0.950 . S
H1285 C1305 0.950 . S
H1286 C1307 0.950 . S
H1287 C1310 0.950 . S
H1288 C1311 0.950 . S
H1289 C1313 0.950 . S
H1290 C1314 0.950 . S
H1291 C1315 0.951 . S
H1292 C1317 0.951 . S
H1293 C1319 0.950 . S
H1294 C1320 0.950 . S
H1295 C1322 0.950 . S
H1296 C1325 0.950 . S
H1297 C1326 0.950 . S
H1298 C1328 0.950 . S
H1299 C1329 0.950 . S
C1300 H1282 0.951 . S
C1300 C1301 1.366 . S
C1300 C1302 1.388 . S
C1301 C1300 1.366 . S
C1301 C1305 1.385 . S
C1302 H1283 0.951 . S
C1302 C1300 1.388 . S
C1302 C1303 1.366 . S
C1303 C1302 1.366 . S
C1303 C1304 1.414 . S
C1303 C1306 1.499 . S
C1304 H1284 0.950 . S
C1304 C1303 1.414 . S
C1304 C1305 1.374 . S
C1305 H1285 0.950 . S
C1305 C1301 1.385 . S
C1305 C1304 1.374 . S
C1306 C1303 1.499 . S
C1306 C1307 1.373 . S
C1306 C1308 1.389 . S
C1307 H1286 0.950 . S
C1307 C1306 1.373 . S
C1307 C1323 1.377 . S
C1308 C1306 1.389 . S
C1308 C1309 1.524 . S
C1308 C1322 1.377 . S
C1309 C1308 1.524 . S
C1309 C1310 1.397 . S
C1309 C1314 1.363 . S
C1310 H1287 0.950 . S
C1310 C1309 1.397 . S
C1310 C1311 1.334 . S
C1311 H1288 0.950 . S
C1311 C1310 1.334 . S
C1311 C1312 1.287 . S
C1312 C1311 1.287 . S
C1312 C1313 1.524 . S
C1312 H1331 0.913 . S
C1313 H1289 0.950 . S
C1313 C1312 1.524 . S
C1313 C1314 1.415 . S
C1314 H1290 0.950 . S
C1314 C1309 1.363 . S
C1314 C1313 1.415 . S
C1315 H1291 0.951 . S
C1315 C1316 1.366 . S
C1315 C1317 1.388 . S
C1316 C1315 1.366 . S
C1316 C1320 1.385 . S
C1317 H1292 0.951 . S
C1317 C1315 1.388 . S
C1317 C1318 1.366 . S
C1318 C1317 1.366 . S
C1318 C1319 1.414 . S
C1318 C1321 1.499 . S
C1319 H1293 0.950 . S
C1319 C1318 1.414 . S
C1319 C1320 1.374 . S
C1320 H1294 0.950 . S
C1320 C1316 1.385 . S
C1320 C1319 1.374 . S
C1321 C1318 1.499 . S
C1321 C1322 1.373 . S
C1321 C1323 1.389 . S
C1322 H1295 0.950 . S
C1322 C1308 1.377 . S
C1322 C1321 1.373 . S
C1323 C1307 1.377 . S
C1323 C1321 1.389 . S
C1323 C1324 1.524 . S
C1324 C1323 1.524 . S
C1324 C1325 1.397 . S
C1324 C1329 1.363 . S
C1325 H1296 0.950 . S
C1325 C1324 1.397 . S
C1325 C1326 1.334 . S
C1326 H1297 0.950 . S
C1326 C1325 1.334 . S
C1326 C1327 1.287 . S
C1327 C1326 1.287 . S
C1327 C1328 1.524 . S
C1327 H1330 0.999 . S
C1328 H1298 0.950 . S
C1328 C1327 1.524 . S
C1328 C1329 1.415 . S
C1329 H1299 0.950 . S
C1329 C1324 1.363 . S
C1329 C1328 1.415 . S
H1330 C1327 0.999 . S
H1331 C1312 0.913 . S
H1332 C1350 0.951 . S
H1333 C1352 0.951 . S
H1334 C1354 0.950 . S
H1335 C1355 0.950 . S
H1336 C1357 0.950 . S
H1337 C1360 0.950 . S
H1338 C1361 0.950 . S
H1339 C1363 0.950 . S
H1340 C1364 0.950 . S
H1341 C1365 0.951 . S
H1342 C1367 0.951 . S
H1343 C1369 0.950 . S
H1344 C1370 0.950 . S
H1345 C1372 0.950 . S
H1346 C1375 0.950 . S
H1347 C1376 0.950 . S
H1348 C1378 0.950 . S
H1349 C1379 0.950 . S
C1350 H1332 0.951 . S
C1350 C1351 1.366 . S
C1350 C1352 1.388 . S
C1351 C1350 1.366 . S
C1351 C1355 1.385 . S
C1352 H1333 0.951 . S
C1352 C1350 1.388 . S
C1352 C1353 1.366 . S
C1353 C1352 1.366 . S
C1353 C1354 1.414 . S
C1353 C1356 1.499 . S
C1354 H1334 0.950 . S
C1354 C1353 1.414 . S
C1354 C1355 1.374 . S
C1355 H1335 0.950 . S
C1355 C1351 1.385 . S
C1355 C1354 1.374 . S
C1356 C1353 1.499 . S
C1356 C1357 1.373 . S
C1356 C1358 1.389 . S
C1357 H1336 0.950 . S
C1357 C1356 1.373 . S
C1357 C1373 1.377 . S
C1358 C1356 1.389 . S
C1358 C1359 1.524 . S
C1358 C1372 1.377 . S
C1359 C1358 1.524 . S
C1359 C1360 1.397 . S
C1359 C1364 1.363 . S
C1360 H1337 0.950 . S
C1360 C1359 1.397 . S
C1360 C1361 1.334 . S
C1361 H1338 0.950 . S
C1361 C1360 1.334 . S
C1361 C1362 1.287 . S
C1362 C1361 1.287 . S
C1362 C1363 1.524 . S
C1362 H1381 0.913 . S
C1363 H1339 0.950 . S
C1363 C1362 1.524 . S
C1363 C1364 1.415 . S
C1364 H1340 0.950 . S
C1364 C1359 1.363 . S
C1364 C1363 1.415 . S
C1365 H1341 0.951 . S
C1365 C1366 1.366 . S
C1365 C1367 1.388 . S
C1366 C1365 1.366 . S
C1366 C1370 1.385 . S
C1367 H1342 0.951 . S
C1367 C1365 1.388 . S
C1367 C1368 1.366 . S
C1368 C1367 1.366 . S
C1368 C1369 1.414 . S
C1368 C1371 1.499 . S
C1369 H1343 0.950 . S
C1369 C1368 1.414 . S
C1369 C1370 1.374 . S
C1370 H1344 0.950 . S
C1370 C1366 1.385 . S
C1370 C1369 1.374 . S
C1371 C1368 1.499 . S
C1371 C1372 1.373 . S
C1371 C1373 1.389 . S
C1372 H1345 0.950 . S
C1372 C1358 1.377 . S
C1372 C1371 1.373 . S
C1373 C1357 1.377 . S
C1373 C1371 1.389 . S
C1373 C1374 1.524 . S
C1374 C1373 1.524 . S
C1374 C1375 1.397 . S
C1374 C1379 1.363 . S
C1375 H1346 0.950 . S
C1375 C1374 1.397 . S
C1375 C1376 1.334 . S
C1376 H1347 0.950 . S
C1376 C1375 1.334 . S
C1376 C1377 1.287 . S
C1377 C1376 1.287 . S
C1377 C1378 1.524 . S
C1377 H1380 0.999 . S
C1378 H1348 0.950 . S
C1378 C1377 1.524 . S
C1378 C1379 1.415 . S
C1379 H1349 0.950 . S
C1379 C1374 1.363 . S
C1379 C1378 1.415 . S
H1380 C1377 0.999 . S
H1381 C1362 0.913 . S
H1382 C1400 0.951 . S
H1383 C1402 0.951 . S
H1384 C1404 0.950 . S
H1385 C1405 0.950 . S
H1386 C1407 0.950 . S
H1387 C1410 0.950 . S
H1388 C1411 0.950 . S
H1389 C1413 0.950 . S
H1390 C1414 0.950 . S
H1391 C1415 0.951 . S
H1392 C1417 0.951 . S
H1393 C1419 0.950 . S
H1394 C1420 0.950 . S
H1395 C1422 0.950 . S
H1396 C1425 0.950 . S
H1397 C1426 0.950 . S
H1398 C1428 0.950 . S
H1399 C1429 0.950 . S
C1400 H1382 0.951 . S
C1400 C1401 1.366 . S
C1400 C1402 1.388 . S
C1401 C1400 1.366 . S
C1401 C1405 1.385 . S
C1402 H1383 0.951 . S
C1402 C1400 1.388 . S
C1402 C1403 1.366 . S
C1403 C1402 1.366 . S
C1403 C1404 1.414 . S
C1403 C1406 1.499 . S
C1404 H1384 0.950 . S
C1404 C1403 1.414 . S
C1404 C1405 1.374 . S
C1405 H1385 0.950 . S
C1405 C1401 1.385 . S
C1405 C1404 1.374 . S
C1406 C1403 1.499 . S
C1406 C1407 1.373 . S
C1406 C1408 1.389 . S
C1407 H1386 0.950 . S
C1407 C1406 1.373 . S
C1407 C1423 1.377 . S
C1408 C1406 1.389 . S
C1408 C1409 1.524 . S
C1408 C1422 1.377 . S
C1409 C1408 1.524 . S
C1409 C1410 1.397 . S
C1409 C1414 1.363 . S
C1410 H1387 0.950 . S
C1410 C1409 1.397 . S
C1410 C1411 1.334 . S
C1411 H1388 0.950 . S
C1411 C1410 1.334 . S
C1411 C1412 1.287 . S
C1412 C1411 1.287 . S
C1412 C1413 1.524 . S
C1412 H1431 0.913 . S
C1413 H1389 0.950 . S
C1413 C1412 1.524 . S
C1413 C1414 1.415 . S
C1414 H1390 0.950 . S
C1414 C1409 1.363 . S
C1414 C1413 1.415 . S
C1415 H1391 0.951 . S
C1415 C1416 1.366 . S
C1415 C1417 1.388 . S
C1416 C1415 1.366 . S
C1416 C1420 1.385 . S
C1417 H1392 0.951 . S
C1417 C1415 1.388 . S
C1417 C1418 1.366 . S
C1418 C1417 1.366 . S
C1418 C1419 1.414 . S
C1418 C1421 1.499 . S
C1419 H1393 0.950 . S
C1419 C1418 1.414 . S
C1419 C1420 1.374 . S
C1420 H1394 0.950 . S
C1420 C1416 1.385 . S
C1420 C1419 1.374 . S
C1421 C1418 1.499 . S
C1421 C1422 1.373 . S
C1421 C1423 1.389 . S
C1422 H1395 0.950 . S
C1422 C1408 1.377 . S
C1422 C1421 1.373 . S
C1423 C1407 1.377 . S
C1423 C1421 1.389 . S
C1423 C1424 1.524 . S
C1424 C1423 1.524 . S
C1424 C1425 1.397 . S
C1424 C1429 1.363 . S
C1425 H1396 0.950 . S
C1425 C1424 1.397 . S
C1425 C1426 1.334 . S
C1426 H1397 0.950 . S
C1426 C1425 1.334 . S
C1426 C1427 1.287 . S
C1427 C1426 1.287 . S
C1427 C1428 1.524 . S
C1427 H1430 0.999 . S
C1428 H1398 0.950 . S
C1428 C1427 1.524 . S
C1428 C1429 1.415 . S
C1429 H1399 0.950 . S
C1429 C1424 1.363 . S
C1429 C1428 1.415 . S
H1430 C1427 0.999 . S
H1431 C1412 0.913 . S
C251 C5 0.998 . S
C266 C78 1.008 . S
C301 C14 0.869 . S
C316 C127 0.869 . S
C366 C162 2.475 . S
C351 C25 2.529 . S
C401 C34 2.399 . S
C416 C201 2.340 . S
C466 C122 2.081 . S
C451 C7 2.034 . S
C516 C81 0.797 . S
C501 C13 0.807 . S
C566 C211 1.878 . S
C551 C23 1.930 . S
C616 C170 1.599 . S
C601 C31 1.635 . S
C651 C4 1.451 . S
C666 C198 1.477 . S
C716 C130 2.321 . S
C701 C22 2.405 . S
C751 C32 2.360 . S
C766 C91 2.340 . S
C801 C16 0.710 . S
C816 C167 0.708 . S
C866 C87 0.994 . S
C851 C41 0.982 . S
C901 C50 0.878 . S
C916 C118 0.877 . S
C951 C61 2.521 . S
C966 C171 2.468 . S
C1001 C67 2.411 . S
C1016 C210 2.351 . S
C1051 C40 2.058 . S
C1066 C131 2.104 . S
C1116 C90 0.771 . S
C1101 C52 0.773 . S
C1166 C202 1.888 . S
C1151 C59 1.941 . S
C1216 C161 1.596 . S
C1201 C70 1.631 . S
C1251 C43 1.445 . S
C1266 C207 1.474 . S
C1316 C121 2.334 . S
C1301 C58 2.419 . S
C1366 C82 2.317 . S
C1351 C68 2.336 . S
C1401 C49 0.715 . S
C1416 C158 0.714 . S
