# Generated by pormake.
# Topology dag, (6,3)-cn, num edge types: 1
# Building blocks:
#     Node 0, Type 0, BuildingBlock: MIDCAF_clean_sbu_0, # of connection points: 6
#     Node 1, Type 0, BuildingBlock: MIDCAF_clean_sbu_0, # of connection points: 6
#     Node 2, Type 0, BuildingBlock: MIDCAF_clean_sbu_0, # of connection points: 6
#     Node 3, Type 0, BuildingBlock: MIDCAF_clean_sbu_0, # of connection points: 6
#     Node 4, Type 1, BuildingBlock: KAKCAD_clean_linker_0, # of connection points: 3
#     Node 5, Type 1, BuildingBlock: KAKCAD_clean_linker_0, # of connection points: 3
#     Node 6, Type 1, BuildingBlock: KAKCAD_clean_linker_0, # of connection points: 3
#     Node 7, Type 1, BuildingBlock: KAKCAD_clean_linker_0, # of connection points: 3
#     Node 8, Type 1, BuildingBlock: KAKCAD_clean_linker_0, # of connection points: 3
#     Node 9, Type 1, BuildingBlock: KAKCAD_clean_linker_0, # of connection points: 3
#     Node 10, Type 1, BuildingBlock: KAKCAD_clean_linker_0, # of connection points: 3
#     Node 11, Type 1, BuildingBlock: KAKCAD_clean_linker_0, # of connection points: 3
#     Edge 12, Type (0, 1), BuildingBlock: XUDNAN_clean_linker_2, # of connection points: 2
#     Edge 13, Type (0, 1), BuildingBlock: XUDNAN_clean_linker_2, # of connection points: 2
#     Edge 14, Type (0, 1), BuildingBlock: XUDNAN_clean_linker_2, # of connection points: 2
#     Edge 15, Type (0, 1), BuildingBlock: XUDNAN_clean_linker_2, # of connection points: 2
#     Edge 16, Type (0, 1), BuildingBlock: XUDNAN_clean_linker_2, # of connection points: 2
#     Edge 17, Type (0, 1), BuildingBlock: XUDNAN_clean_linker_2, # of connection points: 2
#     Edge 18, Type (0, 1), BuildingBlock: XUDNAN_clean_linker_2, # of connection points: 2
#     Edge 19, Type (0, 1), BuildingBlock: XUDNAN_clean_linker_2, # of connection points: 2
#     Edge 20, Type (0, 1), BuildingBlock: XUDNAN_clean_linker_2, # of connection points: 2
#     Edge 21, Type (0, 1), BuildingBlock: XUDNAN_clean_linker_2, # of connection points: 2
#     Edge 22, Type (0, 1), BuildingBlock: XUDNAN_clean_linker_2, # of connection points: 2
#     Edge 23, Type (0, 1), BuildingBlock: XUDNAN_clean_linker_2, # of connection points: 2
#     Edge 24, Type (0, 1), BuildingBlock: XUDNAN_clean_linker_2, # of connection points: 2
#     Edge 25, Type (0, 1), BuildingBlock: XUDNAN_clean_linker_2, # of connection points: 2
#     Edge 26, Type (0, 1), BuildingBlock: XUDNAN_clean_linker_2, # of connection points: 2
#     Edge 27, Type (0, 1), BuildingBlock: XUDNAN_clean_linker_2, # of connection points: 2
#     Edge 28, Type (0, 1), BuildingBlock: XUDNAN_clean_linker_2, # of connection points: 2
#     Edge 29, Type (0, 1), BuildingBlock: XUDNAN_clean_linker_2, # of connection points: 2
#     Edge 30, Type (0, 1), BuildingBlock: XUDNAN_clean_linker_2, # of connection points: 2
#     Edge 31, Type (0, 1), BuildingBlock: XUDNAN_clean_linker_2, # of connection points: 2
#     Edge 32, Type (0, 1), BuildingBlock: XUDNAN_clean_linker_2, # of connection points: 2
#     Edge 33, Type (0, 1), BuildingBlock: XUDNAN_clean_linker_2, # of connection points: 2
#     Edge 34, Type (0, 1), BuildingBlock: XUDNAN_clean_linker_2, # of connection points: 2
#     Edge 35, Type (0, 1), BuildingBlock: XUDNAN_clean_linker_2, # of connection points: 2
# Relax obj value: 0.304
# Max RMSD: 0.191
# Mean RMSD: 0.180
data_MOF--net-dag--node1-MIDCAF_clean_sbu_0--node2-KAKCAD_clean_linker_0--edge1-XUDNAN_clean_linker_2
_symmetry_space_group_name_H-M    P1
_symmetry_Int_Tables_number       1
_symmetry_cell_setting            triclinic
loop_
_symmetry_equiv_pos_as_xyz
'x, y, z'
_cell_length_a     48.536431
_cell_length_b     49.694529
_cell_length_c     37.032097
_cell_angle_alpha  93.744448
_cell_angle_beta   90.171711
_cell_angle_gamma 90.062012
loop_
_atom_site_label
_atom_site_type_symbol
_atom_site_fract_x
_atom_site_fract_y
_atom_site_fract_z
_atom_type_partial_charge
Zn0 Zn 0.14908 0.83283 0.17372 0.0
Zn1 Zn 0.18101 0.84047 0.0017 0.0
Zn2 Zn 0.1742 0.83777 0.06692 0.0
C3 C 0.18131 0.89339 0.02731 0.0
C4 C 0.13025 0.81538 0.01208 0.0
O5 O 0.2024 0.8088 0.08969 0.0
O6 O 0.17571 0.82232 0.13309 0.0
C7 C 0.17859 0.87524 0.12661 0.0
O8 O 0.1833 0.88092 0.05669 0.0
O9 O 0.17766 0.88002 0.99753 0.0
O10 O 0.14845 0.81743 0.98813 0.0
O11 O 0.13479 0.82441 0.0448 0.0
O12 O 0.16811 0.8533 0.13526 0.0
O13 O 0.18474 0.8764 0.09334 0.0
O14 O 0.13008 0.82831 0.08555 0.0
O15 O 0.11436 0.82621 0.14352 0.0
C16 C 0.11064 0.82467 0.1091 0.0
O17 O 0.20793 0.80908 0.05257 0.0
O18 O 0.21818 0.82371 0.99919 0.0
C19 C 0.19555 0.80734 0.12269 0.0
C20 C 0.22366 0.80882 0.02461 0.0
Zn21 Zn 0.64538 0.65849 0.43996 0.0
Zn22 Zn 0.69131 0.6565 0.55779 0.0
Zn23 Zn 0.67071 0.66443 0.49721 0.0
C24 C 0.67045 0.60687 0.52526 0.0
C25 C 0.65019 0.69712 0.5673 0.0
O26 O 0.69681 0.68319 0.45671 0.0
O27 O 0.66101 0.69381 0.42375 0.0
C28 C 0.69544 0.62975 0.43962 0.0
O29 O 0.66135 0.62264 0.50218 0.0
O30 O 0.68458 0.61639 0.55191 0.0
O31 O 0.6646 0.68147 0.58531 0.0
O32 O 0.65092 0.69485 0.53263 0.0
O33 O 0.67026 0.62626 0.43115 0.0
O34 O 0.70243 0.65111 0.45914 0.0
O35 O 0.63353 0.68905 0.49824 0.0
O36 O 0.60887 0.65899 0.46602 0.0
C37 C 0.61002 0.67984 0.48743 0.0
O38 O 0.71343 0.67673 0.48831 0.0
O39 O 0.72824 0.67087 0.54392 0.0
C40 C 0.68612 0.6974 0.43225 0.0
C41 C 0.73268 0.67816 0.51236 0.0
Zn42 Zn 0.83232 0.17809 0.9157 0.0
Zn43 Zn 0.82205 0.12225 0.00191 0.0
Zn44 Zn 0.81662 0.15886 0.96824 0.0
C45 C 0.8655 0.15311 0.0208 0.0
C46 C 0.77705 0.11388 0.96269 0.0
O47 O 0.77733 0.17028 0.94496 0.0
O48 O 0.79544 0.17885 0.89249 0.0
C49 C 0.8464 0.21405 0.97713 0.0
O50 O 0.8463 0.16954 0.01217 0.0
O51 O 0.86377 0.12853 0.00923 0.0
O52 O 0.80004 0.10182 0.96222 0.0
O53 O 0.77671 0.13936 0.97096 0.0
O54 O 0.84544 0.21182 0.94289 0.0
O55 O 0.83631 0.19493 0.9951 0.0
O56 O 0.8419 0.12884 0.93967 0.0
O57 O 0.85961 0.15067 0.8958 0.0
C58 C 0.85756 0.12926 0.91218 0.0
O59 O 0.81603 0.17661 0.02468 0.0
O60 O 0.79923 0.13912 0.04408 0.0
C61 C 0.77446 0.17662 0.91219 0.0
C62 C 0.80281 0.16435 0.04904 0.0
Zn63 Zn 0.34859 0.3172 0.62487 0.0
Zn64 Zn 0.3161 0.32305 0.48435 0.0
Zn65 Zn 0.32936 0.31851 0.55609 0.0
C66 C 0.37008 0.30337 0.48749 0.0
C67 C 0.31864 0.375 0.51832 0.0
O68 O 0.29781 0.29561 0.58397 0.0
O69 O 0.31621 0.29569 0.6389 0.0
C70 C 0.38634 0.28925 0.58134 0.0
O71 O 0.3646 0.30528 0.52163 0.0
O72 O 0.35185 0.30843 0.46449 0.0
O73 O 0.3117 0.36319 0.48842 0.0
O74 O 0.3255 0.36134 0.54531 0.0
O75 O 0.38319 0.29712 0.61419 0.0
O76 O 0.36892 0.29628 0.55732 0.0
O77 O 0.32823 0.3589 0.58357 0.0
O78 O 0.34778 0.35702 0.63748 0.0
C79 C 0.33564 0.37035 0.61426 0.0
O80 O 0.29103 0.29525 0.54629 0.0
O81 O 0.28307 0.29972 0.48805 0.0
C82 C 0.2969 0.28913 0.61709 0.0
C83 C 0.27622 0.29036 0.51768 0.0
C84 C 0.00599 0.17403 0.24766 0.0
C85 C 0.99232 0.15412 0.22561 0.0
C86 C 0.02441 0.16675 0.27449 0.0
C87 C 0.0293 0.13941 0.27994 0.0
C88 C 0.01464 0.11962 0.25883 0.0
C89 C -0.00347 0.12688 0.23183 0.0
C90 C 0.05122 0.13132 0.30518 0.0
C91 C 0.05557 0.1453 0.33907 0.0
C92 C 0.07756 0.13822 0.36164 0.0
C93 C 0.09465 0.11647 0.35005 0.0
C94 C 0.09045 0.10248 0.31653 0.0
C95 C 0.06893 0.11005 0.29422 0.0
C96 C 0.10923 0.08055 0.30391 0.0
C97 C 0.12218 0.08131 0.27018 0.0
C98 C 0.11341 0.05829 0.32474 0.0
C99 C 0.12938 0.03653 0.31123 0.0
C100 C 0.1418 0.03703 0.27707 0.0
C101 C 0.08488 0.15492 0.39529 0.0
C102 C 0.08216 0.18314 0.3968 0.0
C103 C 0.09815 0.14318 0.42422 0.0
C104 C 0.11162 0.15922 0.45117 0.0
C105 C 0.11141 0.1875 0.45055 0.0
C106 C 0.0949 0.19919 0.42443 0.0
C107 C 0.13848 0.05981 0.25697 0.0
H108 H 0.00307 0.1952 0.24341 0.0
H109 H 0.03557 0.18248 0.29 0.0
H110 H 0.01745 0.0984 0.26283 0.0
H111 H 0.98575 0.11114 0.21581 0.0
H112 H 0.04192 0.16168 0.34771 0.0
H113 H 0.06633 0.09951 0.26786 0.0
H114 H 0.11233 0.11118 0.36604 0.0
H115 H 0.11935 0.0984 0.25382 0.0
H116 H 0.10354 0.05734 0.35083 0.0
H117 H 0.13167 0.01914 0.32716 0.0
H118 H 0.07192 0.19308 0.37537 0.0
H119 H 0.0997 0.12148 0.42491 0.0
H120 H 0.14757 0.06053 0.23036 0.0
H121 H 0.09317 0.22087 0.42386 0.0
H122 H 0.12382 0.14921 0.47077 0.0
C123 C 0.34248 0.58646 0.65012 0.0
C124 C 0.34328 0.56497 0.67294 0.0
C125 C 0.35007 0.61247 0.66337 0.0
C126 C 0.35809 0.61736 0.69973 0.0
C127 C 0.35825 0.5959 0.72258 0.0
C128 C 0.351 0.57 0.70931 0.0
C129 C 0.3673 0.64443 0.71397 0.0
C130 C 0.35781 0.65512 0.7476 0.0
C131 C 0.36836 0.67948 0.76345 0.0
C132 C 0.38902 0.69303 0.74507 0.0
C133 C 0.39918 0.68224 0.71164 0.0
C134 C 0.38763 0.65829 0.69587 0.0
C135 C 0.42401 0.69395 0.69533 0.0
C136 C 0.42721 0.72198 0.69333 0.0
C137 C 0.44553 0.67678 0.68325 0.0
C138 C 0.46986 0.6873 0.67025 0.0
C139 C 0.47339 0.71526 0.66903 0.0
C140 C 0.35868 0.68959 0.80002 0.0
C141 C 0.33103 0.686 0.81003 0.0
C142 C 0.37703 0.70178 0.82573 0.0
C143 C 0.36791 0.71006 0.86053 0.0
C144 C 0.34047 0.70576 0.87047 0.0
C145 C 0.32212 0.69373 0.84493 0.0
C146 C 0.45168 0.73256 0.67996 0.0
H147 H 0.33668 0.583 0.62191 0.0
H148 H 0.34974 0.62872 0.64526 0.0
H149 H 0.36465 0.59902 0.7506 0.0
H150 H 0.35156 0.5538 0.72751 0.0
H151 H 0.34268 0.64385 0.76192 0.0
H152 H 0.39549 0.64967 0.6703 0.0
H153 H 0.3979 0.71146 0.75729 0.0
H154 H 0.41089 0.73566 0.7023 0.0
H155 H 0.44393 0.65515 0.68487 0.0
H156 H 0.48616 0.6735 0.66152 0.0
H157 H 0.3161 0.67734 0.79082 0.0
H158 H 0.39855 0.70451 0.81929 0.0
H159 H 0.45396 0.7542 0.67914 0.0
H160 H 0.30067 0.69085 0.85174 0.0
H161 H 0.38233 0.71952 0.87982 0.0
C162 C 0.89122 0.8209 0.09465 0.0
C163 C 0.91045 0.84129 0.08857 0.0
C164 C 0.86379 0.8273 0.10265 0.0
C165 C 0.85486 0.85429 0.10531 0.0
C166 C 0.87382 0.87462 0.09793 0.0
C167 C 0.9012 0.86818 0.08947 0.0
C168 C 0.82632 0.86115 0.11755 0.0
C169 C 0.814 0.84679 0.14464 0.0
C170 C 0.78712 0.85263 0.15688 0.0
C171 C 0.77258 0.87385 0.14202 0.0
C172 C 0.78494 0.88903 0.11563 0.0
C173 C 0.81163 0.8824 0.10337 0.0
C174 C 0.7707 0.91248 0.10127 0.0
C175 C 0.74532 0.90948 0.08309 0.0
C176 C 0.78361 0.93783 0.10361 0.0
C177 C 0.77178 0.95963 0.08735 0.0
C178 C 0.74696 0.9565 0.06786 0.0
C179 C 0.77536 0.83698 0.18627 0.0
C180 C 0.78119 0.80928 0.18726 0.0
C181 C 0.76043 0.84976 0.21507 0.0
C182 C 0.75281 0.83544 0.24493 0.0
C183 C 0.76032 0.80826 0.24667 0.0
C184 C 0.77405 0.7952 0.21725 0.0
C185 C 0.73368 0.93126 0.06616 0.0
H186 H 0.89748 0.79999 0.09453 0.0
H187 H 0.84967 0.81102 0.10738 0.0
H188 H 0.8678 0.89563 0.09985 0.0
H189 H 0.91523 0.88442 0.08421 0.0
H190 H 0.82587 0.83149 0.15725 0.0
H191 H 0.82079 0.89375 0.08245 0.0
H192 H 0.75194 0.87886 0.15127 0.0
H193 H 0.73507 0.89007 0.0808 0.0
H194 H 0.80319 0.94062 0.11749 0.0
H195 H 0.78272 0.97868 0.08873 0.0
H196 H 0.79196 0.79855 0.16517 0.0
H197 H 0.7557 0.87106 0.21535 0.0
H198 H 0.71455 0.92828 0.05129 0.0
H199 H 0.77957 0.7741 0.21765 0.0
H200 H 0.74213 0.8459 0.26732 0.0
C201 C 0.5911 0.23339 0.56702 0.0
C202 C 0.57595 0.2409 0.53703 0.0
C203 C 0.61694 0.24454 0.5745 0.0
C204 C 0.62881 0.26283 0.55141 0.0
C205 C 0.61561 0.26619 0.51794 0.0
C206 C 0.58916 0.25572 0.5111 0.0
C207 C 0.65107 0.28179 0.56557 0.0
C208 C 0.66721 0.27558 0.59556 0.0
C209 C 0.68058 0.2959 0.61701 0.0
C210 C 0.68068 0.32241 0.60606 0.0
C211 C 0.6672 0.32868 0.57395 0.0
C212 C 0.65237 0.30828 0.55415 0.0
C213 C 0.66667 0.35688 0.56243 0.0
C214 C 0.6424 0.36768 0.54825 0.0
C215 C 0.69036 0.3732 0.56531 0.0
C216 C 0.68977 0.39963 0.55437 0.0
C217 C 0.66551 0.4103 0.54018 0.0
C218 C 0.68983 0.28966 0.65367 0.0
C219 C 0.6756 0.3007 0.68406 0.0
C220 C 0.70935 0.26937 0.65815 0.0
C221 C 0.71394 0.25967 0.69228 0.0
C222 C 0.69853 0.2695 0.72257 0.0
C223 C 0.67974 0.29062 0.71809 0.0
C224 C 0.6419 0.39398 0.53705 0.0
H225 H 0.58171 0.22121 0.58689 0.0
H226 H 0.62583 0.24068 0.60041 0.0
H227 H 0.62455 0.27865 0.49815 0.0
H228 H 0.57818 0.26134 0.48722 0.0
H229 H 0.66759 0.25527 0.60443 0.0
H230 H 0.64072 0.31364 0.53079 0.0
H231 H 0.69044 0.33821 0.62317 0.0
H232 H 0.62354 0.35602 0.54637 0.0
H233 H 0.70946 0.36545 0.57567 0.0
H234 H 0.70838 0.41168 0.55677 0.0
H235 H 0.66 0.31599 0.68109 0.0
H236 H 0.72042 0.26045 0.635 0.0
H237 H 0.62278 0.40178 0.52679 0.0
H238 H 0.66722 0.2986 0.74042 0.0
H239 H 0.72923 0.24404 0.69464 0.0
C240 C 0.71528 0.42682 0.37846 0.0
C241 C 0.71347 0.43831 0.4141 0.0
C242 C 0.70671 0.40037 0.36994 0.0
C243 C 0.69614 0.38455 0.39681 0.0
C244 C 0.69526 0.39558 0.43275 0.0
C245 C 0.70415 0.42209 0.44135 0.0
C246 C 0.68523 0.35709 0.38658 0.0
C247 C 0.69936 0.34007 0.36109 0.0
C248 C 0.6879 0.31545 0.34756 0.0
C249 C 0.66206 0.3077 0.36059 0.0
C250 C 0.64772 0.3242 0.38655 0.0
C251 C 0.65962 0.34876 0.39969 0.0
C252 C 0.61943 0.31662 0.39774 0.0
C253 C 0.60026 0.30686 0.37156 0.0
C254 C 0.61114 0.31948 0.43418 0.0
C255 C 0.5843 0.31255 0.44411 0.0
C256 C 0.56513 0.30272 0.4178 0.0
C257 C 0.70252 0.29829 0.31905 0.0
C258 C 0.71712 0.31002 0.29124 0.0
C259 C 0.70187 0.27001 0.31924 0.0
C260 C 0.7155 0.25395 0.29253 0.0
C261 C 0.73045 0.26566 0.26503 0.0
C262 C 0.73097 0.29394 0.26467 0.0
C263 C 0.57352 0.30008 0.38141 0.0
H264 H 0.72298 0.43843 0.35688 0.0
H265 H 0.70755 0.3926 0.34195 0.0
H266 H 0.68754 0.38379 0.45416 0.0
H267 H 0.70291 0.43013 0.46913 0.0
H268 H 0.71941 0.34614 0.3517 0.0
H269 H 0.64821 0.3621 0.41852 0.0
H270 H 0.65275 0.28899 0.34997 0.0
H271 H 0.60574 0.30498 0.34317 0.0
H272 H 0.6255 0.3268 0.45503 0.0
H273 H 0.57867 0.31466 0.47243 0.0
H274 H 0.71771 0.3317 0.28975 0.0
H275 H 0.69107 0.2602 0.34031 0.0
H276 H 0.55923 0.29331 0.36022 0.0
H277 H 0.7424 0.30373 0.24416 0.0
H278 H 0.71412 0.23226 0.29341 0.0
C279 C 0.04627 0.24819 0.96236 0.0
C280 C 0.03425 0.23916 0.99396 0.0
C281 C 0.07051 0.2367 0.94827 0.0
C282 C 0.08482 0.21685 0.96638 0.0
C283 C 0.07438 0.21017 0.00025 0.0
C284 C 0.04925 0.22056 0.01329 0.0
C285 C 0.10946 0.20242 0.94942 0.0
C286 C 0.12367 0.21277 0.92007 0.0
C287 C 0.14499 0.19824 0.90228 0.0
C288 C 0.15382 0.17387 0.91539 0.0
C289 C 0.14047 0.16312 0.94483 0.0
C290 C 0.11802 0.17718 0.96094 0.0
C291 C 0.14905 0.13665 0.958 0.0
C292 C 0.15667 0.11513 0.93352 0.0
C293 C 0.14903 0.1325 0.99522 0.0
C294 C 0.15588 0.10736 0.0076 0.0
C295 C 0.16313 0.08573 0.98309 0.0
C296 C 0.15665 0.20764 0.86833 0.0
C297 C 0.13909 0.21268 0.83936 0.0
C298 C 0.18514 0.21087 0.86418 0.0
C299 C 0.19587 0.21929 0.83172 0.0
C300 C 0.17837 0.22408 0.80232 0.0
C301 C 0.14981 0.22054 0.80666 0.0
C302 C 0.1637 0.09004 0.94591 0.0
H303 H 0.03655 0.26355 0.94735 0.0
H304 H 0.07703 0.24306 0.92234 0.0
H305 H 0.08502 0.19632 0.01673 0.0
H306 H 0.04127 0.21293 0.03787 0.0
H307 H 0.11843 0.23214 0.91035 0.0
H308 H 0.10669 0.16755 0.98158 0.0
H309 H 0.17069 0.16301 0.90205 0.0
H310 H 0.15667 0.11745 0.90465 0.0
H311 H 0.14362 0.1487 0.0149 0.0
H312 H 0.15491 0.10478 0.03637 0.0
H313 H 0.11703 0.20994 0.84175 0.0
H314 H 0.19908 0.20721 0.88624 0.0
H315 H 0.16957 0.074 0.92626 0.0
H316 H 0.13562 0.22342 0.78464 0.0
H317 H 0.21789 0.22233 0.82996 0.0
C318 C 0.397 0.7277 0.50733 0.0
C319 C 0.41801 0.7081 0.50616 0.0
C320 C 0.37014 0.72074 0.49594 0.0
C321 C 0.36399 0.69409 0.48358 0.0
C322 C 0.38504 0.67477 0.48189 0.0
C323 C 0.41166 0.68168 0.49281 0.0
C324 C 0.33585 0.68549 0.47264 0.0
C325 C 0.3224 0.69667 0.44362 0.0
C326 C 0.29864 0.68428 0.42814 0.0
C327 C 0.28813 0.66086 0.4428 0.0
C328 C 0.30114 0.64992 0.47252 0.0
C329 C 0.32469 0.66271 0.48744 0.0
C330 C 0.29342 0.62308 0.48499 0.0
C331 C 0.29536 0.61815 0.52193 0.0
C332 C 0.28901 0.60117 0.45968 0.0
C333 C 0.28906 0.57478 0.4707 0.0
C334 C 0.29367 0.56982 0.50717 0.0
C335 C 0.2868 0.69419 0.39438 0.0
C336 C 0.28306 0.72193 0.39076 0.0
C337 C 0.28084 0.67603 0.36465 0.0
C338 C 0.27202 0.68545 0.33177 0.0
C339 C 0.26872 0.71321 0.32795 0.0
C340 C 0.27396 0.73133 0.35797 0.0
C341 C 0.29571 0.59178 0.53287 0.0
H342 H 0.40126 0.74826 0.51724 0.0
H343 H 0.35416 0.73596 0.49734 0.0
H344 H 0.38093 0.65421 0.47171 0.0
H345 H 0.42739 0.66626 0.49002 0.0
H346 H 0.33167 0.71369 0.43131 0.0
H347 H 0.3358 0.65371 0.50906 0.0
H348 H 0.27022 0.65086 0.43062 0.0
H349 H 0.2983 0.63465 0.54217 0.0
H350 H 0.28771 0.6042 0.43102 0.0
H351 H 0.28754 0.55821 0.45027 0.0
H352 H 0.28743 0.73639 0.41322 0.0
H353 H 0.28383 0.65456 0.36644 0.0
H354 H 0.29882 0.58853 0.56125 0.0
H355 H 0.27179 0.75286 0.35581 0.0
H356 H 0.26789 0.67098 0.30924 0.0
C357 C 0.9781 0.78521 0.82091 0.0
C358 C 0.97197 0.79067 0.85775 0.0
C359 C 0.96048 0.79422 0.79419 0.0
C360 C 0.93651 0.80868 0.80407 0.0
C361 C 0.92932 0.81195 0.84086 0.0
C362 C 0.94696 0.8032 0.86742 0.0
C363 C 0.92089 0.82347 0.77715 0.0
C364 C 0.91319 0.8114 0.74328 0.0
C365 C 0.89795 0.82605 0.71874 0.0
C366 C 0.89089 0.85308 0.72819 0.0
C367 C 0.89895 0.86546 0.76174 0.0
C368 C 0.91407 0.85052 0.78572 0.0
C369 C 0.89242 0.8941 0.77223 0.0
C370 C 0.89612 0.91427 0.74782 0.0
C371 C 0.88482 0.90169 0.80805 0.0
C372 C 0.8827 0.9288 0.81986 0.0
C373 C 0.88768 0.94912 0.79601 0.0
C374 C 0.88831 0.81274 0.68396 0.0
C375 C 0.90649 0.79758 0.66133 0.0
C376 C 0.86051 0.81436 0.67387 0.0
C377 C 0.85082 0.80031 0.64247 0.0
C378 C 0.86881 0.78458 0.62002 0.0
C379 C 0.8969 0.78383 0.62955 0.0
C380 C 0.89371 0.94152 0.75957 0.0
H381 H -0.00265 0.77565 0.81282 0.0
H382 H 0.96653 0.79147 0.76607 0.0
H383 H 0.91067 0.82254 0.84921 0.0
H384 H 0.94164 0.8073 0.89564 0.0
H385 H 0.91825 0.79044 0.73653 0.0
H386 H 0.92123 0.86024 0.8111 0.0
H387 H 0.87907 0.8644 0.70948 0.0
H388 H 0.90202 0.90907 0.72005 0.0
H389 H 0.88134 0.8866 0.82739 0.0
H390 H 0.87824 0.93374 0.84814 0.0
H391 H 0.92812 0.79627 0.66832 0.0
H392 H 0.84599 0.82566 0.69105 0.0
H393 H 0.89711 0.95661 0.74025 0.0
H394 H 0.91148 0.77233 0.61273 0.0
H395 H 0.82896 0.80096 0.63674 0.0
H396 H 0.14342 0.89055 0.18109 0.0
H397 H 0.2202 0.91198 0.13096 0.0
H398 H 0.22221 0.95417 0.17028 0.0
H399 H 0.11476 0.95394 0.18623 0.0
H400 H 0.09829 0.9514 0.22945 0.0
H401 H 0.10497 0.92143 0.20102 0.0
H402 H 0.13226 0.90126 0.25311 0.0
H403 H 0.12564 0.93126 0.2818 0.0
H404 H 0.16054 0.91999 0.27408 0.0
H405 H 0.21261 0.99617 0.20884 0.0
H406 H 0.19226 0.03503 0.24443 0.0
H407 H 0.12252 0.98555 0.27097 0.0
C408 C 0.16095 0.90389 0.17911 0.0
C409 C 0.18138 0.8986 0.15266 0.0
C410 C 0.20394 0.91637 0.15039 0.0
C411 C 0.20545 0.94008 0.17294 0.0
C412 C 0.18445 0.9453 0.198 0.0
C413 C 0.16275 0.92758 0.20147 0.0
C414 C 0.14165 0.93898 0.22826 0.0
C415 C 0.11326 0.9416 0.21014 0.0
C416 C 0.13994 0.92185 0.26128 0.0
C417 C 0.15433 0.96629 0.23826 0.0
C418 C 0.1792 0.9694 0.22089 0.0
C419 C 0.19348 0.99381 0.22323 0.0
C420 C 0.18177 0.01575 0.24333 0.0
C421 C 0.15609 0.01305 0.26072 0.0
C422 C 0.14257 0.98786 0.25877 0.0
H423 H 0.62916 0.69142 0.63425 0.0
H424 H 0.62155 0.73948 0.54129 0.0
H425 H 0.57725 0.75767 0.56502 0.0
H426 H 0.56589 0.6692 0.6344 0.0
H427 H 0.56049 0.66987 0.68259 0.0
H428 H 0.59473 0.66694 0.66482 0.0
H429 H 0.61023 0.70939 0.70382 0.0
H430 H 0.57608 0.71228 0.72271 0.0
H431 H 0.59126 0.74041 0.70164 0.0
H432 H 0.52891 0.76041 0.58977 0.0
H433 H 0.48348 0.75056 0.61644 0.0
H434 H 0.52361 0.702 0.69398 0.0
C435 C 0.61884 0.7067 0.61967 0.0
C436 C 0.62854 0.7138 0.58572 0.0
C437 C 0.61421 0.73352 0.56717 0.0
C438 C 0.5891 0.74402 0.58052 0.0
C439 C 0.57893 0.73491 0.61272 0.0
C440 C 0.59378 0.7172 0.63255 0.0
C441 C 0.57706 0.70759 0.66358 0.0
C442 C 0.57438 0.67659 0.66115 0.0
C443 C 0.58939 0.71806 0.7001 0.0
C444 C 0.54985 0.72105 0.65661 0.0
C445 C 0.55134 0.73724 0.62768 0.0
C446 C 0.52773 0.74868 0.61334 0.0
C447 C 0.50202 0.743 0.62857 0.0
C448 C 0.50025 0.72574 0.65738 0.0
C449 C 0.52455 0.71551 0.67221 0.0
H450 H 0.7527 0.10761 0.02599 0.0
H451 H 0.75242 0.07851 0.91361 0.0
H452 H 0.73138 0.0358 0.92999 0.0
H453 H 0.78103 0.05483 0.05361 0.0
H454 H 0.76423 0.05278 0.0967 0.0
H455 H 0.76664 0.08459 0.07682 0.0
H456 H 0.71373 0.09039 0.07925 0.0
H457 H 0.711 0.05878 0.10032 0.0
H458 H 0.69169 0.06404 0.05972 0.0
H459 H 0.72384 0.99281 0.95898 0.0
H460 H 0.73125 0.95432 0.9968 0.0
H461 H 0.74119 0.00961 0.09128 0.0
C462 C 0.74604 0.09305 0.00472 0.0
C463 C 0.75304 0.09669 0.96844 0.0
C464 C 0.74605 0.07651 0.94132 0.0
C465 C 0.73435 0.05204 0.95056 0.0
C466 C 0.73013 0.04795 0.98711 0.0
C467 C 0.7355 0.06812 0.01385 0.0
C468 C 0.73585 0.05697 0.05105 0.0
C469 C 0.76358 0.06262 0.07062 0.0
C470 C 0.71162 0.06821 0.07393 0.0
C471 C 0.73201 0.02718 0.0409 0.0
C472 C 0.7276 0.02248 0.00411 0.0
C473 C 0.72649 0.99632 0.98793 0.0
C474 C 0.73071 0.97453 0.00963 0.0
C475 C 0.73664 0.97901 0.04698 0.0
C476 C 0.73642 0.00565 0.06285 0.0
H477 H 0.43349 0.28374 0.62042 0.0
H478 H 0.39394 0.25623 0.51971 0.0
H479 H 0.438 0.23634 0.49757 0.0
H480 H 0.49617 0.30174 0.59345 0.0
H481 H 0.5156 0.28685 0.62836 0.0
H482 H 0.48044 0.29651 0.63637 0.0
H483 H 0.46934 0.24786 0.65314 0.0
H484 H 0.50465 0.23823 0.64463 0.0
H485 H 0.4771 0.21978 0.62154 0.0
H486 H 0.48894 0.22935 0.48246 0.0
H487 H 0.54002 0.22683 0.48051 0.0
H488 H 0.54321 0.25279 0.59454 0.0
C489 C 0.43393 0.27316 0.59391 0.0
C490 C 0.41091 0.27315 0.57061 0.0
C491 C 0.41201 0.25821 0.53679 0.0
C492 C 0.43675 0.24638 0.52434 0.0
C493 C 0.45966 0.24834 0.54708 0.0
C494 C 0.45805 0.26032 0.5818 0.0
C495 C 0.48539 0.25951 0.6012 0.0
C496 C 0.49492 0.28782 0.61559 0.0
C497 C 0.48403 0.24019 0.63193 0.0
C498 C 0.50326 0.24802 0.57064 0.0
C499 C 0.48814 0.24122 0.53972 0.0
C500 C 0.5009 0.23339 0.50692 0.0
C501 C 0.52986 0.23219 0.50596 0.0
C502 C 0.54552 0.23868 0.53766 0.0
C503 C 0.53183 0.24644 0.57026 0.0
H504 H 0.69629 0.59312 0.38287 0.0
H505 H 0.73171 0.61139 0.48903 0.0
H506 H 0.74551 0.56361 0.4917 0.0
H507 H 0.66478 0.53719 0.40219 0.0
H508 H 0.66979 0.51789 0.35983 0.0
H509 H 0.66967 0.55406 0.3611 0.0
H510 H 0.71804 0.55472 0.33214 0.0
H511 H 0.71812 0.51836 0.32924 0.0
H512 H 0.74596 0.53672 0.35183 0.0
H513 H 0.74715 0.51224 0.48705 0.0
H514 H 0.73907 0.4633 0.47433 0.0
H515 H 0.70064 0.47977 0.37216 0.0
C516 C 0.70845 0.58735 0.40569 0.0
C517 C 0.71344 0.60593 0.43539 0.0
C518 C 0.72846 0.5976 0.46551 0.0
C519 C 0.73607 0.57041 0.4674 0.0
C520 C 0.72898 0.5521 0.43862 0.0
C521 C 0.71606 0.56044 0.40792 0.0
C522 C 0.70745 0.53674 0.3827 0.0
C523 C 0.67608 0.53647 0.37611 0.0
C524 C 0.72335 0.53663 0.34686 0.0
C525 C 0.7163 0.51368 0.40465 0.0
C526 C 0.72907 0.52277 0.43654 0.0
C527 C 0.73738 0.50493 0.46202 0.0
C528 C 0.73257 0.47717 0.45463 0.0
C529 C 0.71955 0.46753 0.42196 0.0
C530 C 0.71141 0.48624 0.39686 0.0
H531 H 0.87965 0.24733 0.94177 0.0
H532 H 0.85949 0.22562 0.04954 0.0
H533 H 0.90646 0.23927 0.0704 0.0
H534 H 0.93767 0.21738 0.9357 0.0
H535 H 0.95621 0.24113 0.9101 0.0
H536 H 0.91948 0.23967 0.90737 0.0
H537 H 0.91598 0.29046 0.92759 0.0
H538 H 0.95307 0.29233 0.92968 0.0
H539 H 0.93283 0.30326 0.96864 0.0
H540 H 0.95888 0.24343 0.07399 0.0
H541 H 0.0086 0.23991 0.06172 0.0
H542 H 0.99263 0.25474 0.94917 0.0
C543 C 0.88451 0.24658 0.97023 0.0
C544 C 0.86669 0.23364 0.99373 0.0
C545 C 0.87368 0.23374 0.03076 0.0
C546 C 0.90015 0.24192 0.0428 0.0
C547 C 0.91877 0.25101 0.01752 0.0
C548 C 0.91083 0.25417 0.98212 0.0
C549 C 0.93526 0.25935 0.95831 0.0
C550 C 0.93726 0.23811 0.92606 0.0
C551 C 0.93422 0.28806 0.9453 0.0
C552 C 0.95845 0.25649 0.98502 0.0
C553 C 0.94872 0.25271 0.01934 0.0
C554 C 0.96663 0.24693 0.04733 0.0
C555 C 0.99498 0.24449 0.03981 0.0
C556 C 0.00519 0.2468 0.00418 0.0
C557 C 0.98638 0.25363 0.97698 0.0
H558 H 0.28067 0.40948 0.49287 0.0
H559 H 0.35845 0.40713 0.55037 0.0
H560 H 0.35902 0.45706 0.55727 0.0
H561 H 0.29655 0.46694 0.44345 0.0
H562 H 0.26205 0.48031 0.4459 0.0
H563 H 0.26754 0.44455 0.44684 0.0
H564 H 0.24068 0.44447 0.50728 0.0
H565 H 0.23535 0.48032 0.50672 0.0
H566 H 0.25157 0.46652 0.54526 0.0
H567 H 0.35023 0.50708 0.55933 0.0
H568 H 0.33639 0.55373 0.5487 0.0
H569 H 0.26506 0.52332 0.48796 0.0
C570 C 0.29774 0.41956 0.50701 0.0
C571 C 0.31922 0.40467 0.52185 0.0
C572 C 0.34154 0.41835 0.53954 0.0
C573 C 0.34204 0.44662 0.54353 0.0
C574 C 0.32004 0.46076 0.52965 0.0
C575 C 0.2985 0.44771 0.51132 0.0
C576 C 0.27806 0.46761 0.49749 0.0
C577 C 0.27595 0.46468 0.45596 0.0
C578 C 0.24974 0.46454 0.51526 0.0
C579 C 0.29165 0.49393 0.51042 0.0
C580 C 0.31555 0.48953 0.52954 0.0
C581 C 0.33164 0.51077 0.54422 0.0
C582 C 0.32348 0.53718 0.53831 0.0
C583 C 0.29967 0.54209 0.51746 0.0
C584 C 0.28339 0.52013 0.50387 0.0
H585 H 0.0826 0.84244 0.00327 0.0
H586 H 0.11973 0.7633 0.99101 0.0
H587 H 0.07905 0.74607 0.95625 0.0
H588 H 0.00676 0.81975 0.0032 0.0
H589 H -0.00201 0.84838 0.97824 0.0
H590 H 0.02626 0.85061 0.01007 0.0
H591 H 0.05689 0.86568 0.95682 0.0
H592 H 0.0288 0.86095 0.92533 0.0
H593 H 0.06071 0.84314 0.91697 0.0
H594 H 0.03921 0.73994 0.91335 0.0
H595 H 0.00156 0.7448 0.86879 0.0
H596 H 0.99065 0.82804 0.90862 0.0
C597 C 0.08137 0.8212 0.99476 0.0
C598 C 0.10363 0.80386 0.00057 0.0
C599 C 0.10232 0.77653 0.98755 0.0
C600 C 0.07938 0.76665 0.96775 0.0
C601 C 0.0581 0.78449 0.96108 0.0
C602 C 0.05871 0.81115 0.97462 0.0
C603 C 0.03525 0.82705 0.95949 0.0
C604 C 0.0154 0.83709 0.98959 0.0
C605 C 0.04608 0.85057 0.9384 0.0
C606 C 0.02192 0.80547 0.93455 0.0
C607 C 0.0352 0.78099 0.936 0.0
C608 C 0.02815 0.7588 0.91271 0.0
C609 C 0.00692 0.76173 0.88741 0.0
C610 C 0.99297 0.7866 0.88588 0.0
C611 C 0.00046 0.80856 0.91002 0.0
H612 H 0.84044 0.07774 0.92057 0.0
H613 H 0.90152 0.12425 0.86616 0.0
H614 H 0.91726 0.0827 0.832 0.0
H615 H 0.88063 0.01506 0.92492 0.0
H616 H 0.85073 0.99413 0.91581 0.0
H617 H 0.84704 0.02682 0.93931 0.0
H618 H 0.81134 0.03996 0.89142 0.0
H619 H 0.81519 0.00752 0.86743 0.0
H620 H 0.82075 0.03783 0.84425 0.0
H621 H 0.92408 0.03663 0.80089 0.0
H622 H 0.92229 0.98939 0.77609 0.0
H623 H 0.85402 0.97422 0.84767 0.0
C624 C 0.85767 0.07908 0.9023 0.0
C625 C 0.87001 0.10413 0.89631 0.0
C626 C 0.89196 0.10518 0.87133 0.0
C627 C 0.901 0.08172 0.85179 0.0
C628 C 0.88771 0.05748 0.8574 0.0
C629 C 0.86659 0.05599 0.88216 0.0
C630 C 0.85424 0.02797 0.88107 0.0
C631 C 0.85842 0.01524 0.91744 0.0
C632 C 0.82358 0.02836 0.8704 0.0
C633 C 0.87152 0.01399 0.85155 0.0
C634 C 0.89087 0.03126 0.83847 0.0
C635 C 0.90902 0.02291 0.81093 0.0
C636 C 0.9076 0.99608 0.7967 0.0
C637 C 0.88795 0.97795 0.80975 0.0
C638 C 0.86957 0.98731 0.83736 0.0
H639 H 0.41758 0.32854 0.51013 0.0
H640 H 0.38577 0.26521 0.43543 0.0
H641 H 0.43314 0.25542 0.4134 0.0
H642 H 0.46519 0.3532 0.44679 0.0
H643 H 0.49119 0.36251 0.48015 0.0
H644 H 0.45543 0.36242 0.49289 0.0
H645 H 0.46598 0.32908 0.54292 0.0
H646 H 0.50185 0.33053 0.53051 0.0
H647 H 0.48455 0.29853 0.53034 0.0
H648 H 0.48394 0.25257 0.4 0.0
H649 H 0.53326 0.26076 0.38938 0.0
H650 H 0.53132 0.32925 0.4684 0.0
C651 C 0.42076 0.31236 0.48949 0.0
C652 C 0.3983 0.29716 0.47489 0.0
C653 C 0.40288 0.27679 0.4471 0.0
C654 C 0.42967 0.27107 0.43462 0.0
C655 C 0.45149 0.28635 0.44965 0.0
C656 C 0.44726 0.30693 0.47598 0.0
C657 C 0.47377 0.32219 0.48481 0.0
C658 C 0.47124 0.35183 0.4756 0.0
C659 C 0.48199 0.31998 0.52454 0.0
C660 C 0.49364 0.30682 0.45964 0.0
C661 C 0.48043 0.28596 0.44004 0.0
C662 C 0.49442 0.26901 0.41494 0.0
C663 C 0.52244 0.27394 0.40897 0.0
C664 C 0.53624 0.29592 0.4276 0.0
C665 C 0.5216 0.31217 0.45384 0.0
H666 H 0.16016 0.92494 0.97646 0.0
H667 H 0.20399 0.92927 0.07868 0.0
H668 H 0.20433 0.9791 0.07909 0.0
H669 H 0.19515 0.9795 0.93746 0.0
H670 H 0.16473 0.99136 0.91545 0.0
H671 H 0.16802 0.9562 0.92369 0.0
H672 H 0.12172 0.95802 0.95847 0.0
H673 H 0.11822 0.99316 0.95023 0.0
H674 H 0.11715 0.98267 0.99589 0.0
H675 H 0.20037 0.02879 0.06693 0.0
H676 H 0.19138 0.07377 0.04472 0.0
H677 H 0.14885 0.03615 0.95117 0.0
C678 C 0.16996 0.93633 0.99891 0.0
C679 C 0.18196 0.92322 0.02782 0.0
C680 C 0.19431 0.93891 0.05672 0.0
C681 C 0.19476 0.96721 0.05695 0.0
C682 C 0.18267 0.97946 0.028 0.0
C683 C 0.1704 0.96447 0.9996 0.0
C684 C 0.15846 0.98236 0.97197 0.0
C685 C 0.17243 0.97703 0.93496 0.0
C686 C 0.12703 0.97884 0.96899 0.0
C687 C 0.16606 0.00984 0.98908 0.0
C688 C 0.18007 0.0078 0.02132 0.0
C689 C 0.18928 0.03059 0.04181 0.0
C690 C 0.18392 0.05608 0.02904 0.0
C691 C 0.16935 0.05864 0.99616 0.0
C692 C 0.1604 0.03504 0.97609 0.0
H693 H 0.56823 0.65767 0.52346 0.0
H694 H 0.5942 0.73118 0.47705 0.0
H695 H 0.54836 0.75138 0.49022 0.0
H696 H 0.50505 0.65469 0.48597 0.0
H697 H 0.48725 0.64143 0.52362 0.0
H698 H 0.52345 0.63543 0.51786 0.0
H699 H 0.53219 0.65609 0.58248 0.0
H700 H 0.49603 0.66332 0.58866 0.0
H701 H 0.5211 0.68992 0.59494 0.0
H702 H 0.49781 0.75926 0.49597 0.0
H703 H 0.44734 0.75381 0.49271 0.0
H704 H 0.45457 0.67695 0.54109 0.0
C705 C 0.56441 0.67835 0.51732 0.0
C706 C 0.58449 0.69314 0.49976 0.0
C707 C 0.57895 0.71984 0.49104 0.0
C708 C 0.55308 0.73144 0.49858 0.0
C709 C 0.53335 0.71619 0.51547 0.0
C710 C 0.53887 0.69029 0.52516 0.0
C711 C 0.51322 0.67672 0.5383 0.0
C712 C 0.50688 0.65056 0.51503 0.0
C713 C 0.51578 0.6712 0.57849 0.0
C714 C 0.49208 0.69838 0.53248 0.0
C715 C 0.50408 0.72118 0.51984 0.0
C716 C 0.48821 0.74192 0.50694 0.0
C717 C 0.45947 0.7387 0.50529 0.0
C718 C 0.44697 0.71486 0.51643 0.0
C719 C 0.46351 0.69535 0.53217 0.0
H720 H 0.36926 0.40696 0.65017 0.0
H721 H 0.29026 0.39872 0.59569 0.0
H722 H 0.28326 0.44812 0.60404 0.0
H723 H 0.34883 0.46035 0.71668 0.0
H724 H 0.38178 0.47703 0.71555 0.0
H725 H 0.37958 0.44105 0.70639 0.0
H726 H 0.40395 0.44553 0.64474 0.0
H727 H 0.40599 0.48153 0.65372 0.0
H728 H 0.38963 0.46767 0.6129 0.0
H729 H 0.28698 0.49905 0.61442 0.0
H730 H 0.29843 0.54666 0.63304 0.0
H731 H 0.37444 0.5205 0.68151 0.0
C732 C 0.35035 0.41556 0.64047 0.0
C733 C 0.33043 0.3993 0.62195 0.0
C734 C 0.30586 0.41108 0.60963 0.0
C735 C 0.30171 0.43903 0.61431 0.0
C736 C 0.32231 0.45473 0.63146 0.0
C737 C 0.34596 0.44334 0.64479 0.0
C738 C 0.36501 0.46453 0.66206 0.0
C739 C 0.36902 0.4605 0.70257 0.0
C740 C 0.39278 0.46482 0.64215 0.0
C741 C 0.34852 0.48964 0.65623 0.0
C742 C 0.32407 0.48371 0.63822 0.0
C743 C 0.30587 0.5039 0.62904 0.0
C744 C 0.31259 0.53082 0.63943 0.0
C745 C 0.33709 0.53706 0.65908 0.0
C746 C 0.35535 0.51619 0.66702 0.0
H747 H 0.07129 0.8616 0.12388 0.0
H748 H 0.08519 0.7832 0.06912 0.0
H749 H 0.03524 0.77963 0.05422 0.0
H750 H 0.00899 0.84529 0.16528 0.0
H751 H 0.99344 0.87785 0.16094 0.0
H752 H 0.03031 0.87494 0.16388 0.0
H753 H 0.03551 0.89804 0.10345 0.0
H754 H -0.0014 0.90116 0.10049 0.0
H755 H 0.01747 0.88441 0.06374 0.0
H756 H 0.98291 0.78425 0.04891 0.0
H757 H 0.93362 0.79641 0.05252 0.0
H758 H 0.95503 0.87096 0.11401 0.0
C759 C 0.06379 0.8439 0.10821 0.0
C760 C 0.08186 0.8229 0.09682 0.0
C761 C 0.07154 0.79972 0.07717 0.0
C762 C 0.04327 0.7975 0.06891 0.0
C763 C 0.02583 0.81857 0.08091 0.0
C764 C 0.03581 0.84138 0.09998 0.0
C765 C 0.01292 0.86069 0.11132 0.0
C766 C 0.01133 0.86492 0.15281 0.0
C767 C 0.01634 0.88767 0.09368 0.0
C768 C 0.98831 0.84516 0.096 0.0
C769 C -0.00394 0.82097 0.07847 0.0
C770 C 0.97665 0.80312 0.06271 0.0
C771 C 0.94865 0.81017 0.06508 0.0
C772 C 0.94023 0.8347 0.08358 0.0
C773 C 0.96056 0.85235 0.09898 0.0
H774 H 0.68679 0.56884 0.57074 0.0
H775 H 0.64592 0.57785 0.46778 0.0
H776 H 0.64123 0.52818 0.45922 0.0
H777 H 0.72546 0.50903 0.54423 0.0
H778 H 0.72131 0.49497 0.58745 0.0
H779 H 0.72155 0.53102 0.58451 0.0
H780 H 0.67408 0.53393 0.61667 0.0
H781 H 0.67377 0.49788 0.61918 0.0
H782 H 0.64558 0.51435 0.59782 0.0
H783 H 0.64011 0.47724 0.46308 0.0
H784 H 0.64259 0.4297 0.47914 0.0
H785 H 0.68555 0.455 0.5785 0.0
C786 C 0.67683 0.56048 0.5463 0.0
C787 C 0.66648 0.5773 0.52009 0.0
C788 C 0.65372 0.56541 0.48846 0.0
C789 C 0.65118 0.53723 0.48321 0.0
C790 C 0.66171 0.52129 0.50966 0.0
C791 C 0.67429 0.53256 0.54056 0.0
C792 C 0.68335 0.51123 0.56539 0.0
C793 C 0.71478 0.5116 0.57068 0.0
C794 C 0.66829 0.51455 0.60191 0.0
C795 C 0.67401 0.48608 0.54362 0.0
C796 C 0.66144 0.49223 0.51163 0.0
C797 C 0.65004 0.47224 0.48796 0.0
C798 C 0.65139 0.44534 0.4974 0.0
C799 C 0.66448 0.43867 0.52991 0.0
C800 C 0.67597 0.4594 0.5531 0.0
H801 H 0.91716 0.13285 0.03401 0.0
H802 H 0.85504 0.18798 0.07834 0.0
H803 H 0.88409 0.19911 0.13144 0.0
H804 H 0.93099 0.10503 0.11571 0.0
H805 H 0.96746 0.1004 0.10866 0.0
H806 H 0.94454 0.10062 0.07043 0.0
H807 H 0.97292 0.13917 0.04467 0.0
H808 H -0.00394 0.13903 0.08284 0.0
H809 H 0.97901 0.16979 0.07238 0.0
H810 H 0.91744 0.20139 0.18233 0.0
H811 H 0.95137 0.19182 0.22971 0.0
H812 H 0.99068 0.13265 0.15555 0.0
C813 C 0.91018 0.14789 0.05442 0.0
C814 C 0.88456 0.16091 0.05088 0.0
C815 C 0.8754 0.17932 0.07907 0.0
C816 C 0.89165 0.18549 0.10971 0.0
C817 C 0.91687 0.17257 0.11232 0.0
C818 C 0.92607 0.15396 0.08564 0.0
C819 C 0.95238 0.14055 0.09732 0.0
C820 C 0.9486 0.10984 0.09808 0.0
C821 C 0.97653 0.14756 0.07285 0.0
C822 C 0.95582 0.1538 0.13514 0.0
C823 C 0.93547 0.17267 0.14287 0.0
C824 C 0.93368 0.18686 0.17652 0.0
C825 C 0.95302 0.18135 0.20323 0.0
C826 C 0.97354 0.16152 0.19626 0.0
C827 C 0.97511 0.14786 0.1616 0.0
H828 H 0.18795 0.80626 0.19559 0.0
H829 H 0.23516 0.76891 0.1066 0.0
H830 H 0.25837 0.73978 0.14912 0.0
H831 H 0.24238 0.80817 0.26061 0.0
H832 H 0.22019 0.80136 0.29789 0.0
H833 H 0.20674 0.81833 0.26014 0.0
H834 H 0.16866 0.78194 0.25073 0.0
H835 H 0.18196 0.76485 0.28849 0.0
H836 H 0.17824 0.74689 0.24487 0.0
H837 H 0.27625 0.71471 0.20206 0.0
H838 H 0.28883 0.69722 0.2609 0.0
H839 H 0.23044 0.75212 0.31496 0.0
C840 C 0.203 0.79182 0.18488 0.0
C841 C 0.20951 0.78961 0.14763 0.0
C842 C 0.22967 0.77076 0.13494 0.0
C843 C 0.24295 0.75416 0.15892 0.0
C844 C 0.23596 0.75686 0.19551 0.0
C845 C 0.21654 0.77535 0.20841 0.0
C846 C 0.21322 0.77493 0.24902 0.0
C847 C 0.22111 0.80232 0.26802 0.0
C848 C 0.18377 0.76665 0.25884 0.0
C849 C 0.23385 0.75331 0.2571 0.0
C850 C 0.24663 0.74298 0.22588 0.0
C851 C 0.26635 0.72266 0.22663 0.0
C852 C 0.27325 0.71276 0.26014 0.0
C853 C 0.26062 0.7233 0.29251 0.0
C854 C 0.24064 0.74383 0.29076 0.0
H855 H 0.74349 0.73073 0.50594 0.0
H856 H 0.78166 0.65243 0.50886 0.0
H857 H 0.82666 0.67403 0.52202 0.0
H858 H 0.80949 0.77003 0.476 0.0
H859 H 0.79944 0.79852 0.50564 0.0
H860 H 0.77352 0.77783 0.48241 0.0
H861 H 0.75049 0.77059 0.54395 0.0
H862 H 0.77652 0.79046 0.56745 0.0
H863 H 0.77038 0.75634 0.57923 0.0
H864 H 0.86209 0.70198 0.55304 0.0
H865 H 0.88556 0.73365 0.59645 0.0
H866 H 0.82586 0.79546 0.57419 0.0
C867 C 0.76182 0.71838 0.50681 0.0
C868 C 0.75958 0.69008 0.50534 0.0
C869 C 0.78338 0.67417 0.5088 0.0
C870 C 0.80897 0.68633 0.51639 0.0
C871 C 0.81031 0.71442 0.52052 0.0
C872 C 0.78744 0.73036 0.5151 0.0
C873 C 0.79283 0.75945 0.52824 0.0
C874 C 0.7939 0.77753 0.49616 0.0
C875 C 0.7713 0.76977 0.55638 0.0
C876 C 0.82109 0.75682 0.54517 0.0
C877 C 0.8312 0.73092 0.5393 0.0
C878 C 0.85493 0.72259 0.55668 0.0
C879 C 0.86821 0.74086 0.5814 0.0
C880 C 0.85771 0.76724 0.58885 0.0
C881 C 0.83445 0.77548 0.56926 0.0
H882 H 0.78177 0.21516 0.06569 0.0
H883 H 0.81016 0.14274 0.11345 0.0
H884 H 0.79802 0.16245 0.17411 0.0
H885 H 0.80225 0.26382 0.1409 0.0
H886 H 0.77169 0.28402 0.13704 0.0
H887 H 0.78555 0.2657 0.09759 0.0
H888 H 0.73841 0.24214 0.08604 0.0
H889 H 0.72444 0.26032 0.12544 0.0
H890 H 0.72295 0.224 0.12142 0.0
H891 H 0.78115 0.18856 0.22892 0.0
H892 H 0.75838 0.21873 0.27487 0.0
H893 H 0.7372 0.2733 0.19204 0.0
C894 C 0.78583 0.20377 0.08909 0.0
C895 C 0.79699 0.17752 0.08506 0.0
C896 C 0.80154 0.16287 0.11606 0.0
C897 C 0.79486 0.17394 0.15062 0.0
C898 C 0.78333 0.19961 0.15376 0.0
C899 C 0.77867 0.21436 0.12393 0.0
C900 C 0.76391 0.24055 0.13482 0.0
C901 C 0.78193 0.26497 0.12713 0.0
C902 C 0.73576 0.24181 0.1158 0.0
C903 C 0.76067 0.23793 0.17523 0.0
C904 C 0.77242 0.21433 0.18554 0.0
C905 C 0.77178 0.20709 0.22121 0.0
C906 C 0.75851 0.22429 0.24709 0.0
C907 C 0.74561 0.24834 0.23723 0.0
C908 C 0.74704 0.25527 0.20072 0.0
H909 H 0.29731 0.24786 0.66113 0.0
H910 H 0.24262 0.30229 0.60908 0.0
H911 H 0.20396 0.28766 0.64689 0.0
H912 H 0.24409 0.19348 0.6746 0.0
H913 H 0.25922 0.18647 0.71749 0.0
H914 H 0.28066 0.19756 0.68166 0.0
H915 H 0.29877 0.23673 0.72492 0.0
H916 H 0.27701 0.22625 0.76059 0.0
H917 H 0.27458 0.26017 0.74636 0.0
H918 H 0.17442 0.27379 0.69878 0.0
H919 H 0.15485 0.25833 0.75509 0.0
H920 H 0.22829 0.21043 0.77052 0.0
C921 C 0.2769 0.25585 0.65674 0.0
C922 C 0.27269 0.27586 0.63198 0.0
C923 C 0.246 0.28651 0.62744 0.0
C924 C 0.22403 0.27841 0.64893 0.0
C925 C 0.22916 0.25941 0.67433 0.0
C926 C 0.25483 0.24777 0.67762 0.0
C927 C 0.2557 0.22947 0.70874 0.0
C928 C 0.26017 0.2 0.69478 0.0
C929 C 0.27782 0.23873 0.73679 0.0
C930 C 0.22698 0.2337 0.72375 0.0
C931 C 0.21188 0.25086 0.70345 0.0
C932 C 0.18574 0.25967 0.71418 0.0
C933 C 0.17475 0.25065 0.74631 0.0
C934 C 0.18979 0.23284 0.76747 0.0
C935 C 0.21615 0.22411 0.75544 0.0
H936 H 0.6678 0.73568 0.38832 0.0
H937 H 0.74262 0.70009 0.42833 0.0
H938 H 0.77023 0.72763 0.38847 0.0
H939 H 0.68722 0.73594 0.29811 0.0
H940 H 0.67133 0.76775 0.28991 0.0
H941 H 0.65777 0.74752 0.32429 0.0
H942 H 0.66337 0.78762 0.3721 0.0
H943 H 0.67681 0.80809 0.33777 0.0
H944 H 0.69651 0.8037 0.3783 0.0
H945 H 0.78898 0.75482 0.33877 0.0
H946 H 0.79776 0.78188 0.2862 0.0
H947 H 0.71082 0.80087 0.28018 0.0
C948 C 0.69004 0.73395 0.38915 0.0
C949 C 0.70308 0.71573 0.41148 0.0
C950 C 0.7322 0.71406 0.41172 0.0
C951 C 0.74803 0.72958 0.38907 0.0
C952 C 0.73442 0.74686 0.36673 0.0
C953 C 0.70608 0.74939 0.36699 0.0
C954 C 0.69633 0.76849 0.33936 0.0
C955 C 0.67703 0.75405 0.31126 0.0
C956 C 0.68244 0.79346 0.358 0.0
C957 C 0.72353 0.77573 0.32263 0.0
C958 C 0.74527 0.76309 0.33886 0.0
C959 C 0.77218 0.76517 0.32632 0.0
C960 C 0.77695 0.78044 0.29641 0.0
C961 C 0.75498 0.79357 0.27949 0.0
C962 C 0.72801 0.79143 0.2931 0.0
H963 H 0.75103 0.15883 0.84919 0.0
H964 H 0.74237 0.21773 0.93958 0.0
H965 H 0.71432 0.24634 0.90157 0.0
H966 H 0.76497 0.20015 0.78827 0.0
H967 H 0.74645 0.18455 0.75016 0.0
H968 H 0.75746 0.16452 0.78609 0.0
H969 H 0.70755 0.1486 0.79663 0.0
H970 H 0.69628 0.1677 0.75956 0.0
H971 H 0.68041 0.17314 0.80337 0.0
H972 H 0.70021 0.27369 0.84977 0.0
H973 H 0.69425 0.29425 0.7915 0.0
H974 H 0.70966 0.21645 0.73483 0.0
C975 C 0.74146 0.17682 0.86157 0.0
C976 C 0.74825 0.18588 0.89739 0.0
C977 C 0.73661 0.21009 0.91253 0.0
C978 C 0.72095 0.22662 0.89091 0.0
C979 C 0.71665 0.21823 0.85457 0.0
C980 C 0.72571 0.19335 0.84036 0.0
C981 C 0.72182 0.19047 0.79966 0.0
C982 C 0.74931 0.1846 0.77994 0.0
C983 C 0.70022 0.16869 0.78919 0.0
C984 C 0.71117 0.21827 0.79281 0.0
C985 C 0.70796 0.23392 0.82475 0.0
C986 C 0.70162 0.26129 0.82471 0.0
C987 C 0.69829 0.27283 0.79131 0.0
C988 C 0.70131 0.25709 0.75817 0.0
C989 C 0.70739 0.22931 0.75936 0.0
H990 H 0.23322 0.29256 0.47123 0.0
H991 H 0.26133 0.25171 0.56436 0.0
H992 H 0.21774 0.22564 0.56376 0.0
H993 H 0.15928 0.29391 0.4909 0.0
H994 H 0.15025 0.28685 0.44399 0.0
H995 H 0.18137 0.30522 0.45587 0.0
H996 H 0.21009 0.27024 0.4169 0.0
H997 H 0.1791 0.25206 0.40461 0.0
H998 H 0.20729 0.23498 0.4251 0.0
H999 H 0.17185 0.20172 0.54922 0.0
H1000 H 0.13175 0.17917 0.51927 0.0
H1001 H 0.13791 0.23336 0.43215 0.0
C1002 C 0.23012 0.27843 0.49192 0.0
C1003 C 0.25027 0.27481 0.51869 0.0
C1004 C 0.24561 0.2557 0.54471 0.0
C1005 C 0.221 0.24067 0.54432 0.0
C1006 C 0.20151 0.24483 0.51742 0.0
C1007 C 0.20607 0.26311 0.49151 0.0
C1008 C 0.18376 0.26187 0.46296 0.0
C1009 C 0.16772 0.28855 0.46348 0.0
C1010 C 0.19578 0.25432 0.42519 0.0
C1011 C 0.16617 0.23948 0.47617 0.0
C1012 C 0.17626 0.23026 0.50803 0.0
C1013 C 0.16383 0.20885 0.52428 0.0
C1014 C 0.14112 0.19602 0.50684 0.0
C1015 C 0.13147 0.20422 0.47301 0.0
C1016 C 0.14395 0.22676 0.45828 0.0
H1017 H 0.27257 0.81873 0.99375 0.0
H1018 H 0.22554 0.75614 0.0414 0.0
H1019 H 0.25874 0.722 0.01683 0.0
H1020 H 0.28206 0.78752 0.91478 0.0
H1021 H 0.31669 0.79853 0.90618 0.0
H1022 H 0.29506 0.81857 0.93639 0.0
H1023 H 0.33138 0.81665 0.98753 0.0
H1024 H 0.35352 0.79682 0.95718 0.0
H1025 H 0.34402 0.78446 0.00012 0.0
H1026 H 0.28807 0.6946 0.97347 0.0
H1027 H 0.31324 0.67659 0.91917 0.0
H1028 H 0.34254 0.75682 0.90088 0.0
C1029 C 0.27015 0.79797 0.00047 0.0
C1030 C 0.24687 0.78996 0.01976 0.0
C1031 C 0.2437 0.76266 0.02744 0.0
C1032 C 0.26242 0.74317 0.01343 0.0
C1033 C 0.28438 0.75151 0.99253 0.0
C1034 C 0.28872 0.77843 0.98688 0.0
C1035 C 0.31114 0.78196 0.95925 0.0
C1036 C 0.30058 0.79753 0.92729 0.0
C1037 C 0.33653 0.79579 0.9771 0.0
C1038 C 0.31711 0.7528 0.94784 0.0
C1039 C 0.30194 0.73548 0.96789 0.0
C1040 C 0.30082 0.70785 0.95855 0.0
C1041 C 0.31501 0.69781 0.92761 0.0
C1042 C 0.33012 0.71535 0.90648 0.0
C1043 C 0.33188 0.74297 0.91743 0.0
loop_
_geom_bond_atom_site_label_1
_geom_bond_atom_site_label_2
_geom_bond_distance
_geom_bond_site_symmetry_2
_ccdc_geom_bond_type
Zn0 O6 1.920 . S
Zn0 O12 1.898 . S
Zn0 O15 1.905 . S
Zn1 O9 1.905 . S
Zn1 O10 1.898 . S
Zn1 O18 1.920 . S
Zn2 O5 2.080 . S
Zn2 O8 2.114 . S
Zn2 O11 2.120 . S
Zn2 O13 2.120 . S
Zn2 O14 2.114 . S
Zn2 O17 2.080 . S
C3 O8 1.166 . S
C3 O9 1.182 1_554 S
C4 O10 1.167 . S
C4 O11 1.299 1_556 S
O5 Zn2 2.080 . S
O5 C19 1.305 . S
O6 Zn0 1.920 . S
O6 C19 1.234 . S
C7 O12 1.167 . S
C7 O13 1.299 . S
O8 Zn2 2.114 . S
O8 C3 1.166 . S
O9 Zn1 1.905 . S
O9 C3 1.182 1_556 S
O10 Zn1 1.898 . S
O10 C4 1.167 . S
O11 Zn2 2.120 . S
O11 C4 1.299 1_554 S
O12 Zn0 1.898 . S
O12 C7 1.167 . S
O13 Zn2 2.120 . S
O13 C7 1.299 . S
O14 Zn2 2.114 . S
O14 C16 1.166 . S
O15 Zn0 1.905 . S
O15 C16 1.182 . S
C16 O14 1.166 . S
C16 O15 1.182 . S
O17 Zn2 2.080 . S
O17 C20 1.305 . S
O18 Zn1 1.920 . S
O18 C20 1.234 1_556 S
C19 O5 1.305 . S
C19 O6 1.234 . S
C20 O17 1.305 . S
C20 O18 1.234 1_554 S
Zn21 O27 1.920 . S
Zn21 O33 1.898 . S
Zn21 O36 1.905 . S
Zn22 O30 1.905 . S
Zn22 O31 1.898 . S
Zn22 O39 1.920 . S
Zn23 O26 2.080 . S
Zn23 O29 2.114 . S
Zn23 O32 2.120 . S
Zn23 O34 2.120 . S
Zn23 O35 2.114 . S
Zn23 O38 2.080 . S
C24 O29 1.166 . S
C24 O30 1.182 . S
C25 O31 1.167 . S
C25 O32 1.299 . S
O26 Zn23 2.080 . S
O26 C40 1.305 . S
O27 Zn21 1.920 . S
O27 C40 1.234 . S
C28 O33 1.167 . S
C28 O34 1.299 . S
O29 Zn23 2.114 . S
O29 C24 1.166 . S
O30 Zn22 1.905 . S
O30 C24 1.182 . S
O31 Zn22 1.898 . S
O31 C25 1.167 . S
O32 Zn23 2.120 . S
O32 C25 1.299 . S
O33 Zn21 1.898 . S
O33 C28 1.167 . S
O34 Zn23 2.120 . S
O34 C28 1.299 . S
O35 Zn23 2.114 . S
O35 C37 1.166 . S
O36 Zn21 1.905 . S
O36 C37 1.182 . S
C37 O35 1.166 . S
C37 O36 1.182 . S
O38 Zn23 2.080 . S
O38 C41 1.305 . S
O39 Zn22 1.920 . S
O39 C41 1.234 . S
C40 O26 1.305 . S
C40 O27 1.234 . S
C41 O38 1.305 . S
C41 O39 1.234 . S
Zn42 O48 1.920 . S
Zn42 O54 1.898 . S
Zn42 O57 1.905 . S
Zn43 O51 1.905 . S
Zn43 O52 1.898 . S
Zn43 O60 1.920 . S
Zn44 O47 2.080 1_554 S
Zn44 O50 2.114 . S
Zn44 O53 2.120 . S
Zn44 O55 2.120 1_554 S
Zn44 O56 2.114 1_554 S
Zn44 O59 2.080 . S
C45 O50 1.166 . S
C45 O51 1.182 . S
C46 O52 1.167 . S
C46 O53 1.299 . S
O47 Zn44 2.080 1_556 S
O47 C61 1.305 . S
O48 Zn42 1.920 . S
O48 C61 1.234 . S
C49 O54 1.167 . S
C49 O55 1.299 . S
O50 Zn44 2.114 . S
O50 C45 1.166 . S
O51 Zn43 1.905 . S
O51 C45 1.182 . S
O52 Zn43 1.898 . S
O52 C46 1.167 . S
O53 Zn44 2.120 . S
O53 C46 1.299 . S
O54 Zn42 1.898 . S
O54 C49 1.167 . S
O55 Zn44 2.120 1_556 S
O55 C49 1.299 . S
O56 Zn44 2.114 1_556 S
O56 C58 1.166 . S
O57 Zn42 1.905 . S
O57 C58 1.182 . S
C58 O56 1.166 . S
C58 O57 1.182 . S
O59 Zn44 2.080 . S
O59 C62 1.305 . S
O60 Zn43 1.920 . S
O60 C62 1.234 . S
C61 O47 1.305 . S
C61 O48 1.234 . S
C62 O59 1.305 . S
C62 O60 1.234 . S
Zn63 O69 1.920 . S
Zn63 O75 1.898 . S
Zn63 O78 1.905 . S
Zn64 O72 1.905 . S
Zn64 O73 1.898 . S
Zn64 O81 1.920 . S
Zn65 O68 2.080 . S
Zn65 O71 2.114 . S
Zn65 O74 2.120 . S
Zn65 O76 2.120 . S
Zn65 O77 2.114 . S
Zn65 O80 2.080 . S
C66 O71 1.166 . S
C66 O72 1.182 . S
C67 O73 1.167 . S
C67 O74 1.299 . S
O68 Zn65 2.080 . S
O68 C82 1.305 . S
O69 Zn63 1.920 . S
O69 C82 1.234 . S
C70 O75 1.167 . S
C70 O76 1.299 . S
O71 Zn65 2.114 . S
O71 C66 1.166 . S
O72 Zn64 1.905 . S
O72 C66 1.182 . S
O73 Zn64 1.898 . S
O73 C67 1.167 . S
O74 Zn65 2.120 . S
O74 C67 1.299 . S
O75 Zn63 1.898 . S
O75 C70 1.167 . S
O76 Zn65 2.120 . S
O76 C70 1.299 . S
O77 Zn65 2.114 . S
O77 C79 1.166 . S
O78 Zn63 1.905 . S
O78 C79 1.182 . S
C79 O77 1.166 . S
C79 O78 1.182 . S
O80 Zn65 2.080 . S
O80 C83 1.305 . S
O81 Zn64 1.920 . S
O81 C83 1.234 . S
C82 O68 1.305 . S
C82 O69 1.234 . S
C83 O80 1.305 . S
C83 O81 1.234 . S
C84 C85 1.386 . S
C84 C86 1.397 . S
C84 H108 0.931 . S
C85 C84 1.386 . S
C85 C89 1.397 . S
C86 C84 1.397 . S
C86 C87 1.384 . S
C86 H109 0.930 . S
C87 C86 1.384 . S
C87 C88 1.377 . S
C87 C90 1.481 . S
C88 C87 1.377 . S
C88 C89 1.389 . S
C88 H110 0.929 . S
C89 C85 1.397 . S
C89 C88 1.389 . S
C89 H111 0.931 . S
C90 C87 1.481 . S
C90 C91 1.387 . S
C90 C95 1.390 . S
C91 C90 1.387 . S
C91 C92 1.401 . S
C91 H112 0.930 . S
C92 C91 1.401 . S
C92 C93 1.376 . S
C92 C101 1.511 . S
C93 C92 1.376 . S
C93 C94 1.392 . S
C93 H114 0.931 . S
C94 C93 1.392 . S
C94 C95 1.361 . S
C94 C96 1.500 . S
C95 C90 1.390 . S
C95 C94 1.361 . S
C95 H113 0.931 . S
C96 C94 1.500 . S
C96 C97 1.371 . S
C96 C98 1.365 . S
C97 C96 1.371 . S
C97 C107 1.386 . S
C97 H115 0.931 . S
C98 C96 1.365 . S
C98 C99 1.409 . S
C98 H116 0.929 . S
C99 C98 1.409 . S
C99 C100 1.380 . S
C99 H117 0.930 1_545 S
C100 C99 1.380 . S
C100 C107 1.357 . S
C101 C92 1.511 . S
C101 C102 1.341 . S
C101 C103 1.371 . S
C102 C101 1.341 . S
C102 C106 1.394 . S
C102 H118 0.930 . S
C103 C101 1.371 . S
C103 C104 1.392 . S
C103 H119 0.931 . S
C104 C103 1.392 . S
C104 C105 1.331 . S
C104 H122 0.932 . S
C105 C104 1.331 . S
C105 C106 1.336 . S
C106 C102 1.394 . S
C106 C105 1.336 . S
C106 H121 0.929 . S
C107 C97 1.386 . S
C107 C100 1.357 . S
C107 H120 0.928 . S
H108 C84 0.931 . S
H109 C86 0.930 . S
H110 C88 0.929 . S
H111 C89 0.931 . S
H112 C91 0.930 . S
H113 C95 0.931 . S
H114 C93 0.931 . S
H115 C97 0.931 . S
H116 C98 0.929 . S
H117 C99 0.930 1_565 S
H118 C102 0.930 . S
H119 C103 0.931 . S
H120 C107 0.928 . S
H121 C106 0.929 . S
H122 C104 0.932 . S
C123 C124 1.386 . S
C123 C125 1.397 . S
C123 H147 0.931 . S
C124 C123 1.386 . S
C124 C128 1.397 . S
C125 C123 1.397 . S
C125 C126 1.384 . S
C125 H148 0.930 . S
C126 C125 1.384 . S
C126 C127 1.377 . S
C126 C129 1.481 . S
C127 C126 1.377 . S
C127 C128 1.389 . S
C127 H149 0.929 . S
C128 C124 1.397 . S
C128 C127 1.389 . S
C128 H150 0.931 . S
C129 C126 1.481 . S
C129 C130 1.387 . S
C129 C134 1.390 . S
C130 C129 1.387 . S
C130 C131 1.401 . S
C130 H151 0.930 . S
C131 C130 1.401 . S
C131 C132 1.376 . S
C131 C140 1.511 . S
C132 C131 1.376 . S
C132 C133 1.392 . S
C132 H153 0.931 . S
C133 C132 1.392 . S
C133 C134 1.361 . S
C133 C135 1.500 . S
C134 C129 1.390 . S
C134 C133 1.361 . S
C134 H152 0.931 . S
C135 C133 1.500 . S
C135 C136 1.371 . S
C135 C137 1.365 . S
C136 C135 1.371 . S
C136 C146 1.386 . S
C136 H154 0.931 . S
C137 C135 1.365 . S
C137 C138 1.409 . S
C137 H155 0.929 . S
C138 C137 1.409 . S
C138 C139 1.380 . S
C138 H156 0.930 . S
C139 C138 1.380 . S
C139 C146 1.357 . S
C140 C131 1.511 . S
C140 C141 1.341 . S
C140 C142 1.371 . S
C141 C140 1.341 . S
C141 C145 1.394 . S
C141 H157 0.930 . S
C142 C140 1.371 . S
C142 C143 1.392 . S
C142 H158 0.931 . S
C143 C142 1.392 . S
C143 C144 1.331 . S
C143 H161 0.932 . S
C144 C143 1.331 . S
C144 C145 1.336 . S
C145 C141 1.394 . S
C145 C144 1.336 . S
C145 H160 0.929 . S
C146 C136 1.386 . S
C146 C139 1.357 . S
C146 H159 0.928 . S
H147 C123 0.931 . S
H148 C125 0.930 . S
H149 C127 0.929 . S
H150 C128 0.931 . S
H151 C130 0.930 . S
H152 C134 0.931 . S
H153 C132 0.931 . S
H154 C136 0.931 . S
H155 C137 0.929 . S
H156 C138 0.930 . S
H157 C141 0.930 . S
H158 C142 0.931 . S
H159 C146 0.928 . S
H160 C145 0.929 . S
H161 C143 0.932 . S
C162 C163 1.386 . S
C162 C164 1.397 . S
C162 H186 0.931 . S
C163 C162 1.386 . S
C163 C167 1.397 . S
C164 C162 1.397 . S
C164 C165 1.384 . S
C164 H187 0.930 . S
C165 C164 1.384 . S
C165 C166 1.377 . S
C165 C168 1.481 . S
C166 C165 1.377 . S
C166 C167 1.389 . S
C166 H188 0.929 . S
C167 C163 1.397 . S
C167 C166 1.389 . S
C167 H189 0.931 . S
C168 C165 1.481 . S
C168 C169 1.387 . S
C168 C173 1.390 . S
C169 C168 1.387 . S
C169 C170 1.401 . S
C169 H190 0.930 . S
C170 C169 1.401 . S
C170 C171 1.376 . S
C170 C179 1.511 . S
C171 C170 1.376 . S
C171 C172 1.392 . S
C171 H192 0.931 . S
C172 C171 1.392 . S
C172 C173 1.361 . S
C172 C174 1.500 . S
C173 C168 1.390 . S
C173 C172 1.361 . S
C173 H191 0.931 . S
C174 C172 1.500 . S
C174 C175 1.371 . S
C174 C176 1.365 . S
C175 C174 1.371 . S
C175 C185 1.386 . S
C175 H193 0.931 . S
C176 C174 1.365 . S
C176 C177 1.409 . S
C176 H194 0.929 . S
C177 C176 1.409 . S
C177 C178 1.380 . S
C177 H195 0.930 . S
C178 C177 1.380 . S
C178 C185 1.357 . S
C179 C170 1.511 . S
C179 C180 1.341 . S
C179 C181 1.371 . S
C180 C179 1.341 . S
C180 C184 1.394 . S
C180 H196 0.930 . S
C181 C179 1.371 . S
C181 C182 1.392 . S
C181 H197 0.931 . S
C182 C181 1.392 . S
C182 C183 1.331 . S
C182 H200 0.932 . S
C183 C182 1.331 . S
C183 C184 1.336 . S
C184 C180 1.394 . S
C184 C183 1.336 . S
C184 H199 0.929 . S
C185 C175 1.386 . S
C185 C178 1.357 . S
C185 H198 0.928 . S
H186 C162 0.931 . S
H187 C164 0.930 . S
H188 C166 0.929 . S
H189 C167 0.931 . S
H190 C169 0.930 . S
H191 C173 0.931 . S
H192 C171 0.931 . S
H193 C175 0.931 . S
H194 C176 0.929 . S
H195 C177 0.930 . S
H196 C180 0.930 . S
H197 C181 0.931 . S
H198 C185 0.928 . S
H199 C184 0.929 . S
H200 C182 0.932 . S
C201 C202 1.386 . S
C201 C203 1.397 . S
C201 H225 0.931 . S
C202 C201 1.386 . S
C202 C206 1.397 . S
C203 C201 1.397 . S
C203 C204 1.384 . S
C203 H226 0.930 . S
C204 C203 1.384 . S
C204 C205 1.377 . S
C204 C207 1.481 . S
C205 C204 1.377 . S
C205 C206 1.389 . S
C205 H227 0.929 . S
C206 C202 1.397 . S
C206 C205 1.389 . S
C206 H228 0.931 . S
C207 C204 1.481 . S
C207 C208 1.387 . S
C207 C212 1.390 . S
C208 C207 1.387 . S
C208 C209 1.401 . S
C208 H229 0.930 . S
C209 C208 1.401 . S
C209 C210 1.376 . S
C209 C218 1.511 . S
C210 C209 1.376 . S
C210 C211 1.392 . S
C210 H231 0.931 . S
C211 C210 1.392 . S
C211 C212 1.361 . S
C211 C213 1.500 . S
C212 C207 1.390 . S
C212 C211 1.361 . S
C212 H230 0.931 . S
C213 C211 1.500 . S
C213 C214 1.371 . S
C213 C215 1.365 . S
C214 C213 1.371 . S
C214 C224 1.386 . S
C214 H232 0.931 . S
C215 C213 1.365 . S
C215 C216 1.409 . S
C215 H233 0.929 . S
C216 C215 1.409 . S
C216 C217 1.380 . S
C216 H234 0.930 . S
C217 C216 1.380 . S
C217 C224 1.357 . S
C218 C209 1.511 . S
C218 C219 1.341 . S
C218 C220 1.371 . S
C219 C218 1.341 . S
C219 C223 1.394 . S
C219 H235 0.930 . S
C220 C218 1.371 . S
C220 C221 1.392 . S
C220 H236 0.931 . S
C221 C220 1.392 . S
C221 C222 1.331 . S
C221 H239 0.932 . S
C222 C221 1.331 . S
C222 C223 1.336 . S
C223 C219 1.394 . S
C223 C222 1.336 . S
C223 H238 0.929 . S
C224 C214 1.386 . S
C224 C217 1.357 . S
C224 H237 0.928 . S
H225 C201 0.931 . S
H226 C203 0.930 . S
H227 C205 0.929 . S
H228 C206 0.931 . S
H229 C208 0.930 . S
H230 C212 0.931 . S
H231 C210 0.931 . S
H232 C214 0.931 . S
H233 C215 0.929 . S
H234 C216 0.930 . S
H235 C219 0.930 . S
H236 C220 0.931 . S
H237 C224 0.928 . S
H238 C223 0.929 . S
H239 C221 0.932 . S
C240 C241 1.386 . S
C240 C242 1.397 . S
C240 H264 0.931 . S
C241 C240 1.386 . S
C241 C245 1.397 . S
C242 C240 1.397 . S
C242 C243 1.384 . S
C242 H265 0.930 . S
C243 C242 1.384 . S
C243 C244 1.377 . S
C243 C246 1.481 . S
C244 C243 1.377 . S
C244 C245 1.389 . S
C244 H266 0.929 . S
C245 C241 1.397 . S
C245 C244 1.389 . S
C245 H267 0.931 . S
C246 C243 1.481 . S
C246 C247 1.387 . S
C246 C251 1.390 . S
C247 C246 1.387 . S
C247 C248 1.401 . S
C247 H268 0.930 . S
C248 C247 1.401 . S
C248 C249 1.376 . S
C248 C257 1.511 . S
C249 C248 1.376 . S
C249 C250 1.392 . S
C249 H270 0.931 . S
C250 C249 1.392 . S
C250 C251 1.361 . S
C250 C252 1.500 . S
C251 C246 1.390 . S
C251 C250 1.361 . S
C251 H269 0.931 . S
C252 C250 1.500 . S
C252 C253 1.371 . S
C252 C254 1.365 . S
C253 C252 1.371 . S
C253 C263 1.386 . S
C253 H271 0.931 . S
C254 C252 1.365 . S
C254 C255 1.409 . S
C254 H272 0.929 . S
C255 C254 1.409 . S
C255 C256 1.380 . S
C255 H273 0.930 . S
C256 C255 1.380 . S
C256 C263 1.357 . S
C257 C248 1.511 . S
C257 C258 1.341 . S
C257 C259 1.371 . S
C258 C257 1.341 . S
C258 C262 1.394 . S
C258 H274 0.930 . S
C259 C257 1.371 . S
C259 C260 1.392 . S
C259 H275 0.931 . S
C260 C259 1.392 . S
C260 C261 1.331 . S
C260 H278 0.932 . S
C261 C260 1.331 . S
C261 C262 1.336 . S
C262 C258 1.394 . S
C262 C261 1.336 . S
C262 H277 0.929 . S
C263 C253 1.386 . S
C263 C256 1.357 . S
C263 H276 0.928 . S
H264 C240 0.931 . S
H265 C242 0.930 . S
H266 C244 0.929 . S
H267 C245 0.931 . S
H268 C247 0.930 . S
H269 C251 0.931 . S
H270 C249 0.931 . S
H271 C253 0.931 . S
H272 C254 0.929 . S
H273 C255 0.930 . S
H274 C258 0.930 . S
H275 C259 0.931 . S
H276 C263 0.928 . S
H277 C262 0.929 . S
H278 C260 0.932 . S
C279 C280 1.386 . S
C279 C281 1.397 . S
C279 H303 0.931 . S
C280 C279 1.386 . S
C280 C284 1.397 . S
C281 C279 1.397 . S
C281 C282 1.384 . S
C281 H304 0.930 . S
C282 C281 1.384 . S
C282 C283 1.377 . S
C282 C285 1.481 . S
C283 C282 1.377 . S
C283 C284 1.389 . S
C283 H305 0.929 . S
C284 C280 1.397 . S
C284 C283 1.389 . S
C284 H306 0.931 1_556 S
C285 C282 1.481 . S
C285 C286 1.387 . S
C285 C290 1.390 . S
C286 C285 1.387 . S
C286 C287 1.401 . S
C286 H307 0.930 . S
C287 C286 1.401 . S
C287 C288 1.376 . S
C287 C296 1.511 . S
C288 C287 1.376 . S
C288 C289 1.392 . S
C288 H309 0.931 . S
C289 C288 1.392 . S
C289 C290 1.361 . S
C289 C291 1.500 . S
C290 C285 1.390 . S
C290 C289 1.361 . S
C290 H308 0.931 . S
C291 C289 1.500 . S
C291 C292 1.371 . S
C291 C293 1.365 . S
C292 C291 1.371 . S
C292 C302 1.386 . S
C292 H310 0.931 . S
C293 C291 1.365 . S
C293 C294 1.409 . S
C293 H311 0.938 . S
C294 C293 1.409 . S
C294 C295 1.380 . S
C294 H312 0.930 1_556 S
C295 C294 1.380 . S
C295 C302 1.357 . S
C296 C287 1.511 . S
C296 C297 1.341 . S
C296 C298 1.371 . S
C297 C296 1.341 . S
C297 C301 1.394 . S
C297 H313 0.930 . S
C298 C296 1.371 . S
C298 C299 1.392 . S
C298 H314 0.931 . S
C299 C298 1.392 . S
C299 C300 1.331 . S
C299 H317 0.932 . S
C300 C299 1.331 . S
C300 C301 1.336 . S
C301 C297 1.394 . S
C301 C300 1.336 . S
C301 H316 0.929 . S
C302 C292 1.386 . S
C302 C295 1.357 . S
C302 H315 0.928 . S
H303 C279 0.931 . S
H304 C281 0.930 . S
H305 C283 0.929 . S
H306 C284 0.931 1_554 S
H307 C286 0.930 . S
H308 C290 0.931 . S
H309 C288 0.931 . S
H310 C292 0.931 . S
H311 C293 0.938 . S
H312 C294 0.930 1_554 S
H313 C297 0.930 . S
H314 C298 0.931 . S
H315 C302 0.928 . S
H316 C301 0.929 . S
H317 C299 0.932 . S
C318 C319 1.386 . S
C318 C320 1.397 . S
C318 H342 0.931 . S
C319 C318 1.386 . S
C319 C323 1.397 . S
C320 C318 1.397 . S
C320 C321 1.384 . S
C320 H343 0.930 . S
C321 C320 1.384 . S
C321 C322 1.377 . S
C321 C324 1.481 . S
C322 C321 1.377 . S
C322 C323 1.389 . S
C322 H344 0.929 . S
C323 C319 1.397 . S
C323 C322 1.389 . S
C323 H345 0.931 . S
C324 C321 1.481 . S
C324 C325 1.387 . S
C324 C329 1.390 . S
C325 C324 1.387 . S
C325 C326 1.401 . S
C325 H346 0.930 . S
C326 C325 1.401 . S
C326 C327 1.376 . S
C326 C335 1.511 . S
C327 C326 1.376 . S
C327 C328 1.392 . S
C327 H348 0.931 . S
C328 C327 1.392 . S
C328 C329 1.361 . S
C328 C330 1.500 . S
C329 C324 1.390 . S
C329 C328 1.361 . S
C329 H347 0.931 . S
C330 C328 1.500 . S
C330 C331 1.371 . S
C330 C332 1.365 . S
C331 C330 1.371 . S
C331 C341 1.386 . S
C331 H349 0.931 . S
C332 C330 1.365 . S
C332 C333 1.409 . S
C332 H350 0.929 . S
C333 C332 1.409 . S
C333 C334 1.380 . S
C333 H351 0.930 . S
C334 C333 1.380 . S
C334 C341 1.357 . S
C335 C326 1.511 . S
C335 C336 1.341 . S
C335 C337 1.371 . S
C336 C335 1.341 . S
C336 C340 1.394 . S
C336 H352 0.930 . S
C337 C335 1.371 . S
C337 C338 1.392 . S
C337 H353 0.931 . S
C338 C337 1.392 . S
C338 C339 1.331 . S
C338 H356 0.932 . S
C339 C338 1.331 . S
C339 C340 1.336 . S
C340 C336 1.394 . S
C340 C339 1.336 . S
C340 H355 0.929 . S
C341 C331 1.386 . S
C341 C334 1.357 . S
C341 H354 0.928 . S
H342 C318 0.931 . S
H343 C320 0.930 . S
H344 C322 0.929 . S
H345 C323 0.931 . S
H346 C325 0.930 . S
H347 C329 0.931 . S
H348 C327 0.931 . S
H349 C331 0.931 . S
H350 C332 0.929 . S
H351 C333 0.930 . S
H352 C336 0.930 . S
H353 C337 0.931 . S
H354 C341 0.928 . S
H355 C340 0.929 . S
H356 C338 0.932 . S
C357 C358 1.386 . S
C357 C359 1.425 . S
C357 H381 0.931 . S
C358 C357 1.386 . S
C358 C362 1.397 . S
C359 C357 1.425 . S
C359 C360 1.363 1_455 S
C359 H382 0.924 1_455 S
C360 C359 1.363 1_655 S
C360 C361 1.377 . S
C360 C363 1.481 . S
C361 C360 1.377 . S
C361 C362 1.389 1_655 S
C361 H383 0.929 . S
C362 C358 1.397 . S
C362 C361 1.389 1_455 S
C362 H384 0.931 . S
C363 C360 1.481 . S
C363 C364 1.387 . S
C363 C368 1.390 . S
C364 C363 1.387 . S
C364 C365 1.401 . S
C364 H385 0.930 . S
C365 C364 1.401 . S
C365 C366 1.376 . S
C365 C374 1.511 . S
C366 C365 1.376 . S
C366 C367 1.392 . S
C366 H387 0.931 . S
C367 C366 1.392 . S
C367 C368 1.361 . S
C367 C369 1.500 . S
C368 C363 1.390 . S
C368 C367 1.361 . S
C368 H386 0.931 . S
C369 C367 1.500 . S
C369 C370 1.371 . S
C369 C371 1.365 . S
C370 C369 1.371 . S
C370 C380 1.386 . S
C370 H388 0.931 . S
C371 C369 1.365 . S
C371 C372 1.409 . S
C371 H389 0.929 . S
C372 C371 1.409 . S
C372 C373 1.380 . S
C372 H390 0.930 . S
C373 C372 1.380 . S
C373 C380 1.357 . S
C374 C365 1.511 . S
C374 C375 1.341 . S
C374 C376 1.371 . S
C375 C374 1.341 . S
C375 C379 1.394 . S
C375 H391 0.930 . S
C376 C374 1.371 . S
C376 C377 1.392 . S
C376 H392 0.931 . S
C377 C376 1.392 . S
C377 C378 1.331 . S
C377 H395 0.932 . S
C378 C377 1.331 . S
C378 C379 1.336 . S
C379 C375 1.394 . S
C379 C378 1.336 . S
C379 H394 0.929 . S
C380 C370 1.386 . S
C380 C373 1.357 . S
C380 H393 0.928 . S
H381 C357 0.931 . S
H382 C359 0.924 1_655 S
H383 C361 0.929 . S
H384 C362 0.931 . S
H385 C364 0.930 . S
H386 C368 0.931 . S
H387 C366 0.931 . S
H388 C370 0.931 . S
H389 C371 0.929 . S
H390 C372 0.930 . S
H391 C375 0.930 . S
H392 C376 0.931 . S
H393 C380 0.928 . S
H394 C379 0.929 . S
H395 C377 0.932 . S
H396 C408 0.930 . S
H397 C410 0.930 . S
H398 C411 0.930 . S
H399 C415 0.959 . S
H400 C415 0.959 . S
H401 C415 0.961 . S
H402 C416 0.960 . S
H403 C416 0.961 . S
H404 C416 0.959 . S
H405 C419 0.929 . S
H406 C420 0.931 . S
H407 C422 0.930 . S
C408 H396 0.930 . S
C408 C409 1.399 . S
C408 C413 1.399 . S
C409 C408 1.399 . S
C409 C410 1.376 . S
C410 H397 0.930 . S
C410 C409 1.376 . S
C410 C411 1.388 . S
C411 H398 0.930 . S
C411 C410 1.388 . S
C411 C412 1.390 . S
C412 C411 1.390 . S
C412 C413 1.394 . S
C412 C418 1.465 . S
C413 C408 1.399 . S
C413 C412 1.394 . S
C413 C414 1.516 . S
C414 C413 1.516 . S
C414 C415 1.502 . S
C414 C416 1.561 . S
C414 C417 1.526 . S
C415 H399 0.959 . S
C415 H400 0.959 . S
C415 H401 0.961 . S
C415 C414 1.502 . S
C416 H402 0.960 . S
C416 H403 0.961 . S
C416 H404 0.959 . S
C416 C414 1.561 . S
C417 C414 1.526 . S
C417 C418 1.396 . S
C417 C422 1.390 . S
C418 C412 1.465 . S
C418 C417 1.396 . S
C418 C419 1.399 . S
C419 H405 0.929 . S
C419 C418 1.399 . S
C419 C420 1.385 . S
C420 H406 0.931 . S
C420 C419 1.385 . S
C420 C421 1.389 . S
C421 C420 1.389 . S
C421 C422 1.387 . S
C422 H407 0.930 . S
C422 C417 1.390 . S
C422 C421 1.387 . S
H423 C435 0.930 . S
H424 C437 0.930 . S
H425 C438 0.930 . S
H426 C442 0.959 . S
H427 C442 0.959 . S
H428 C442 0.961 . S
H429 C443 0.960 . S
H430 C443 0.961 . S
H431 C443 0.959 . S
H432 C446 0.929 . S
H433 C447 0.931 . S
H434 C449 0.930 . S
C435 H423 0.930 . S
C435 C436 1.399 . S
C435 C440 1.399 . S
C436 C435 1.399 . S
C436 C437 1.376 . S
C437 H424 0.930 . S
C437 C436 1.376 . S
C437 C438 1.388 . S
C438 H425 0.930 . S
C438 C437 1.388 . S
C438 C439 1.390 . S
C439 C438 1.390 . S
C439 C440 1.394 . S
C439 C445 1.465 . S
C440 C435 1.399 . S
C440 C439 1.394 . S
C440 C441 1.516 . S
C441 C440 1.516 . S
C441 C442 1.502 . S
C441 C443 1.561 . S
C441 C444 1.526 . S
C442 H426 0.959 . S
C442 H427 0.959 . S
C442 H428 0.961 . S
C442 C441 1.502 . S
C443 H429 0.960 . S
C443 H430 0.961 . S
C443 H431 0.959 . S
C443 C441 1.561 . S
C444 C441 1.526 . S
C444 C445 1.396 . S
C444 C449 1.390 . S
C445 C439 1.465 . S
C445 C444 1.396 . S
C445 C446 1.399 . S
C446 H432 0.929 . S
C446 C445 1.399 . S
C446 C447 1.385 . S
C447 H433 0.931 . S
C447 C446 1.385 . S
C447 C448 1.389 . S
C448 C447 1.389 . S
C448 C449 1.387 . S
C449 H434 0.930 . S
C449 C444 1.390 . S
C449 C448 1.387 . S
H450 C462 0.930 . S
H451 C464 0.930 . S
H452 C465 0.930 . S
H453 C469 0.960 1_565 S
H454 C469 0.959 1_565 S
H455 C469 0.961 . S
H456 C470 0.960 . S
H457 C470 0.961 . S
H458 C470 0.959 . S
H459 C473 0.929 . S
H460 C474 0.930 1_565 S
H461 C476 0.930 . S
C462 H450 0.930 . S
C462 C463 1.399 . S
C462 C467 1.399 . S
C463 C462 1.399 . S
C463 C464 1.376 . S
C464 H451 0.930 . S
C464 C463 1.376 . S
C464 C465 1.388 . S
C465 H452 0.930 . S
C465 C464 1.388 . S
C465 C466 1.390 . S
C466 C465 1.390 . S
C466 C467 1.394 . S
C466 C472 1.465 . S
C467 C462 1.399 . S
C467 C466 1.394 . S
C467 C468 1.516 . S
C468 C467 1.516 . S
C468 C469 1.502 . S
C468 C470 1.561 . S
C468 C471 1.526 . S
C469 H453 0.960 1_545 S
C469 H454 0.959 1_545 S
C469 H455 0.961 . S
C469 C468 1.502 . S
C470 H456 0.960 . S
C470 H457 0.961 . S
C470 H458 0.959 . S
C470 C468 1.561 . S
C471 C468 1.526 . S
C471 C472 1.396 . S
C471 C476 1.390 1_545 S
C472 C466 1.465 . S
C472 C471 1.396 . S
C472 C473 1.399 . S
C473 H459 0.929 . S
C473 C472 1.399 . S
C473 C474 1.386 . S
C474 H460 0.930 1_545 S
C474 C473 1.386 . S
C474 C475 1.389 1_545 S
C475 C474 1.389 1_565 S
C475 C476 1.387 . S
C476 H461 0.930 . S
C476 C471 1.390 1_565 S
C476 C475 1.387 . S
H477 C489 0.930 . S
H478 C491 0.930 . S
H479 C492 0.930 . S
H480 C496 0.959 . S
H481 C496 0.959 . S
H482 C496 0.961 . S
H483 C497 0.960 . S
H484 C497 0.961 . S
H485 C497 0.959 . S
H486 C500 0.929 . S
H487 C501 0.931 . S
H488 C503 0.930 . S
C489 H477 0.930 . S
C489 C490 1.399 . S
C489 C494 1.399 . S
C490 C489 1.399 . S
C490 C491 1.376 . S
C491 H478 0.930 . S
C491 C490 1.376 . S
C491 C492 1.388 . S
C492 H479 0.930 . S
C492 C491 1.388 . S
C492 C493 1.390 . S
C493 C492 1.390 . S
C493 C494 1.394 . S
C493 C499 1.465 . S
C494 C489 1.399 . S
C494 C493 1.394 . S
C494 C495 1.516 . S
C495 C494 1.516 . S
C495 C496 1.502 . S
C495 C497 1.561 . S
C495 C498 1.526 . S
C496 H480 0.959 . S
C496 H481 0.959 . S
C496 H482 0.961 . S
C496 C495 1.502 . S
C497 H483 0.960 . S
C497 H484 0.961 . S
C497 H485 0.959 . S
C497 C495 1.561 . S
C498 C495 1.526 . S
C498 C499 1.396 . S
C498 C503 1.390 . S
C499 C493 1.465 . S
C499 C498 1.396 . S
C499 C500 1.399 . S
C500 H486 0.929 . S
C500 C499 1.399 . S
C500 C501 1.385 . S
C501 H487 0.931 . S
C501 C500 1.385 . S
C501 C502 1.389 . S
C502 C501 1.389 . S
C502 C503 1.387 . S
C503 H488 0.930 . S
C503 C498 1.390 . S
C503 C502 1.387 . S
H504 C516 0.930 . S
H505 C518 0.930 . S
H506 C519 0.930 . S
H507 C523 0.959 . S
H508 C523 0.959 . S
H509 C523 0.961 . S
H510 C524 0.960 . S
H511 C524 0.961 . S
H512 C524 0.959 . S
H513 C527 0.929 . S
H514 C528 0.931 . S
H515 C530 0.930 . S
C516 H504 0.930 . S
C516 C517 1.399 . S
C516 C521 1.399 . S
C517 C516 1.399 . S
C517 C518 1.376 . S
C518 H505 0.930 . S
C518 C517 1.376 . S
C518 C519 1.388 . S
C519 H506 0.930 . S
C519 C518 1.388 . S
C519 C520 1.390 . S
C520 C519 1.390 . S
C520 C521 1.394 . S
C520 C526 1.465 . S
C521 C516 1.399 . S
C521 C520 1.394 . S
C521 C522 1.516 . S
C522 C521 1.516 . S
C522 C523 1.502 . S
C522 C524 1.561 . S
C522 C525 1.526 . S
C523 H507 0.959 . S
C523 H508 0.959 . S
C523 H509 0.961 . S
C523 C522 1.502 . S
C524 H510 0.960 . S
C524 H511 0.961 . S
C524 H512 0.959 . S
C524 C522 1.561 . S
C525 C522 1.526 . S
C525 C526 1.396 . S
C525 C530 1.390 . S
C526 C520 1.465 . S
C526 C525 1.396 . S
C526 C527 1.399 . S
C527 H513 0.929 . S
C527 C526 1.399 . S
C527 C528 1.385 . S
C528 H514 0.931 . S
C528 C527 1.385 . S
C528 C529 1.389 . S
C529 C528 1.389 . S
C529 C530 1.387 . S
C530 H515 0.930 . S
C530 C525 1.390 . S
C530 C529 1.387 . S
H531 C543 0.930 . S
H532 C545 0.930 . S
H533 C546 0.930 . S
H534 C550 0.959 1_455 S
H535 C550 0.959 1_455 S
H536 C550 0.961 . S
H537 C551 0.960 . S
H538 C551 0.961 . S
H539 C551 0.959 . S
H540 C554 0.929 1_655 S
H541 C555 0.942 . S
H542 C557 0.930 . S
C543 H531 0.930 . S
C543 C544 1.399 . S
C543 C548 1.399 . S
C544 C543 1.399 . S
C544 C545 1.376 1_556 S
C545 H532 0.930 . S
C545 C544 1.376 1_554 S
C545 C546 1.388 . S
C546 H533 0.930 . S
C546 C545 1.388 . S
C546 C547 1.390 1_554 S
C547 C546 1.390 1_556 S
C547 C548 1.394 . S
C547 C553 1.465 . S
C548 C543 1.399 . S
C548 C547 1.394 . S
C548 C549 1.516 . S
C549 C548 1.516 . S
C549 C550 1.502 . S
C549 C551 1.561 . S
C549 C552 1.526 1_655 S
C550 H534 0.959 1_655 S
C550 H535 0.959 1_655 S
C550 H536 0.961 . S
C550 C549 1.502 . S
C551 H537 0.960 . S
C551 H538 0.961 . S
C551 H539 0.959 . S
C551 C549 1.561 . S
C552 C549 1.526 1_455 S
C552 C553 1.396 1_455 S
C552 C557 1.390 . S
C553 C547 1.465 . S
C553 C552 1.396 1_655 S
C553 C554 1.399 1_656 S
C554 H540 0.929 1_455 S
C554 C553 1.399 1_454 S
C554 C555 1.390 . S
C555 H541 0.942 . S
C555 C554 1.390 . S
C555 C556 1.374 1_554 S
C556 C555 1.374 1_556 S
C556 C557 1.387 . S
C557 H542 0.930 . S
C557 C552 1.390 . S
C557 C556 1.387 . S
H558 C570 0.930 . S
H559 C572 0.930 . S
H560 C573 0.930 . S
H561 C577 0.959 . S
H562 C577 0.959 . S
H563 C577 0.961 . S
H564 C578 0.960 . S
H565 C578 0.961 . S
H566 C578 0.959 . S
H567 C581 0.929 . S
H568 C582 0.931 . S
H569 C584 0.930 . S
C570 H558 0.930 . S
C570 C571 1.399 . S
C570 C575 1.399 . S
C571 C570 1.399 . S
C571 C572 1.376 . S
C572 H559 0.930 . S
C572 C571 1.376 . S
C572 C573 1.388 . S
C573 H560 0.930 . S
C573 C572 1.388 . S
C573 C574 1.390 . S
C574 C573 1.390 . S
C574 C575 1.394 . S
C574 C580 1.465 . S
C575 C570 1.399 . S
C575 C574 1.394 . S
C575 C576 1.516 . S
C576 C575 1.516 . S
C576 C577 1.502 . S
C576 C578 1.561 . S
C576 C579 1.526 . S
C577 H561 0.959 . S
C577 H562 0.959 . S
C577 H563 0.961 . S
C577 C576 1.502 . S
C578 H564 0.960 . S
C578 H565 0.961 . S
C578 H566 0.959 . S
C578 C576 1.561 . S
C579 C576 1.526 . S
C579 C580 1.396 . S
C579 C584 1.390 . S
C580 C574 1.465 . S
C580 C579 1.396 . S
C580 C581 1.399 . S
C581 H567 0.929 . S
C581 C580 1.399 . S
C581 C582 1.385 . S
C582 H568 0.931 . S
C582 C581 1.385 . S
C582 C583 1.389 . S
C583 C582 1.389 . S
C583 C584 1.387 . S
C584 H569 0.930 . S
C584 C579 1.390 . S
C584 C583 1.387 . S
H585 C597 0.930 . S
H586 C599 0.930 . S
H587 C600 0.930 . S
H588 C604 0.959 . S
H589 C604 0.959 . S
H590 C604 0.961 . S
H591 C605 0.960 . S
H592 C605 0.961 . S
H593 C605 0.959 . S
H594 C608 0.929 . S
H595 C609 0.931 . S
H596 C611 0.930 . S
C597 H585 0.930 . S
C597 C598 1.399 . S
C597 C602 1.399 . S
C598 C597 1.399 . S
C598 C599 1.376 . S
C599 H586 0.930 . S
C599 C598 1.376 . S
C599 C600 1.388 . S
C600 H587 0.930 . S
C600 C599 1.388 . S
C600 C601 1.390 . S
C601 C600 1.390 . S
C601 C602 1.394 . S
C601 C607 1.465 . S
C602 C597 1.399 . S
C602 C601 1.394 . S
C602 C603 1.516 . S
C603 C602 1.516 . S
C603 C604 1.502 . S
C603 C605 1.561 . S
C603 C606 1.526 . S
C604 H588 0.959 . S
C604 H589 0.959 . S
C604 H590 0.961 . S
C604 C603 1.502 . S
C605 H591 0.960 . S
C605 H592 0.961 . S
C605 H593 0.959 . S
C605 C603 1.561 . S
C606 C603 1.526 . S
C606 C607 1.396 . S
C606 C611 1.390 . S
C607 C601 1.465 . S
C607 C606 1.396 . S
C607 C608 1.399 . S
C608 H594 0.929 . S
C608 C607 1.399 . S
C608 C609 1.385 . S
C609 H595 0.931 . S
C609 C608 1.385 . S
C609 C610 1.389 . S
C610 C609 1.389 . S
C610 C611 1.387 . S
C611 H596 0.930 . S
C611 C606 1.390 . S
C611 C610 1.387 . S
H612 C624 0.930 . S
H613 C626 0.930 . S
H614 C627 0.930 . S
H615 C631 0.959 . S
H616 C631 0.959 . S
H617 C631 0.961 . S
H618 C632 0.961 . S
H619 C632 0.961 . S
H620 C632 0.959 1_545 S
H621 C635 0.929 . S
H622 C636 0.931 . S
H623 C638 0.930 . S
C624 H612 0.930 . S
C624 C625 1.399 . S
C624 C629 1.399 . S
C625 C624 1.399 . S
C625 C626 1.376 . S
C626 H613 0.930 . S
C626 C625 1.376 . S
C626 C627 1.388 . S
C627 H614 0.930 . S
C627 C626 1.388 . S
C627 C628 1.390 . S
C628 C627 1.390 . S
C628 C629 1.394 . S
C628 C634 1.465 . S
C629 C624 1.399 . S
C629 C628 1.394 . S
C629 C630 1.551 . S
C630 C629 1.551 . S
C630 C631 1.483 1_545 S
C630 C632 1.553 1_545 S
C630 C633 1.522 1_545 S
C631 H615 0.959 . S
C631 H616 0.959 . S
C631 H617 0.961 . S
C631 C630 1.483 1_565 S
C632 H618 0.961 . S
C632 H619 0.961 . S
C632 H620 0.959 1_565 S
C632 C630 1.553 1_565 S
C633 C630 1.522 1_565 S
C633 C634 1.396 1_565 S
C633 C638 1.390 . S
C634 C628 1.465 . S
C634 C633 1.396 1_545 S
C634 C635 1.399 . S
C635 H621 0.929 . S
C635 C634 1.399 . S
C635 C636 1.385 1_545 S
C636 H622 0.931 . S
C636 C635 1.385 1_565 S
C636 C637 1.389 . S
C637 C636 1.389 . S
C637 C638 1.387 . S
C638 H623 0.930 . S
C638 C633 1.390 . S
C638 C637 1.387 . S
H639 C651 0.930 . S
H640 C653 0.930 . S
H641 C654 0.930 . S
H642 C658 0.959 . S
H643 C658 0.959 . S
H644 C658 0.961 . S
H645 C659 0.960 . S
H646 C659 0.961 . S
H647 C659 0.959 . S
H648 C662 0.929 . S
H649 C663 0.931 . S
H650 C665 0.930 . S
C651 H639 0.930 . S
C651 C652 1.399 . S
C651 C656 1.399 . S
C652 C651 1.399 . S
C652 C653 1.376 . S
C653 H640 0.930 . S
C653 C652 1.376 . S
C653 C654 1.388 . S
C654 H641 0.930 . S
C654 C653 1.388 . S
C654 C655 1.390 . S
C655 C654 1.390 . S
C655 C656 1.394 . S
C655 C661 1.465 . S
C656 C651 1.399 . S
C656 C655 1.394 . S
C656 C657 1.516 . S
C657 C656 1.516 . S
C657 C658 1.502 . S
C657 C659 1.561 . S
C657 C660 1.526 . S
C658 H642 0.959 . S
C658 H643 0.959 . S
C658 H644 0.961 . S
C658 C657 1.502 . S
C659 H645 0.960 . S
C659 H646 0.961 . S
C659 H647 0.959 . S
C659 C657 1.561 . S
C660 C657 1.526 . S
C660 C661 1.396 . S
C660 C665 1.390 . S
C661 C655 1.465 . S
C661 C660 1.396 . S
C661 C662 1.399 . S
C662 H648 0.929 . S
C662 C661 1.399 . S
C662 C663 1.385 . S
C663 H649 0.931 . S
C663 C662 1.385 . S
C663 C664 1.389 . S
C664 C663 1.389 . S
C664 C665 1.387 . S
C665 H650 0.930 . S
C665 C660 1.390 . S
C665 C664 1.387 . S
H666 C678 0.930 . S
H667 C680 0.930 . S
H668 C681 0.930 . S
H669 C685 0.959 . S
H670 C685 0.959 . S
H671 C685 0.961 . S
H672 C686 0.960 . S
H673 C686 0.982 . S
H674 C686 0.959 . S
H675 C689 0.929 . S
H676 C690 0.931 . S
H677 C692 0.930 . S
C678 H666 0.930 . S
C678 C679 1.399 1_556 S
C678 C683 1.399 . S
C679 C678 1.399 1_554 S
C679 C680 1.376 . S
C680 H667 0.930 . S
C680 C679 1.376 . S
C680 C681 1.388 . S
C681 H668 0.930 . S
C681 C680 1.388 . S
C681 C682 1.390 . S
C682 C681 1.390 . S
C682 C683 1.394 1_554 S
C682 C688 1.465 1_565 S
C683 C678 1.399 . S
C683 C682 1.394 1_556 S
C683 C684 1.516 . S
C684 C683 1.516 . S
C684 C685 1.502 . S
C684 C686 1.561 . S
C684 C687 1.526 1_565 S
C685 H669 0.959 . S
C685 H670 0.959 . S
C685 H671 0.961 . S
C685 C684 1.502 . S
C686 H672 0.960 . S
C686 H673 0.982 . S
C686 H674 0.959 . S
C686 C684 1.561 . S
C687 C684 1.526 1_545 S
C687 C688 1.396 1_556 S
C687 C692 1.390 . S
C688 C682 1.465 1_545 S
C688 C687 1.396 1_554 S
C688 C689 1.399 . S
C689 H675 0.929 . S
C689 C688 1.399 . S
C689 C690 1.385 . S
C690 H676 0.931 . S
C690 C689 1.385 . S
C690 C691 1.389 1_554 S
C691 C690 1.389 1_556 S
C691 C692 1.387 . S
C692 H677 0.930 . S
C692 C687 1.390 . S
C692 C691 1.387 . S
H693 C705 0.930 . S
H694 C707 0.930 . S
H695 C708 0.930 . S
H696 C712 0.959 . S
H697 C712 0.959 . S
H698 C712 0.961 . S
H699 C713 0.960 . S
H700 C713 0.961 . S
H701 C713 0.959 . S
H702 C716 0.929 . S
H703 C717 0.931 . S
H704 C719 0.930 . S
C705 H693 0.930 . S
C705 C706 1.399 . S
C705 C710 1.399 . S
C706 C705 1.399 . S
C706 C707 1.376 . S
C707 H694 0.930 . S
C707 C706 1.376 . S
C707 C708 1.388 . S
C708 H695 0.930 . S
C708 C707 1.388 . S
C708 C709 1.390 . S
C709 C708 1.390 . S
C709 C710 1.394 . S
C709 C715 1.465 . S
C710 C705 1.399 . S
C710 C709 1.394 . S
C710 C711 1.516 . S
C711 C710 1.516 . S
C711 C712 1.502 . S
C711 C713 1.561 . S
C711 C714 1.526 . S
C712 H696 0.959 . S
C712 H697 0.959 . S
C712 H698 0.961 . S
C712 C711 1.502 . S
C713 H699 0.960 . S
C713 H700 0.961 . S
C713 H701 0.959 . S
C713 C711 1.561 . S
C714 C711 1.526 . S
C714 C715 1.396 . S
C714 C719 1.390 . S
C715 C709 1.465 . S
C715 C714 1.396 . S
C715 C716 1.399 . S
C716 H702 0.929 . S
C716 C715 1.399 . S
C716 C717 1.385 . S
C717 H703 0.931 . S
C717 C716 1.385 . S
C717 C718 1.389 . S
C718 C717 1.389 . S
C718 C719 1.387 . S
C719 H704 0.930 . S
C719 C714 1.390 . S
C719 C718 1.387 . S
H720 C732 0.930 . S
H721 C734 0.930 . S
H722 C735 0.930 . S
H723 C739 0.959 . S
H724 C739 0.959 . S
H725 C739 0.961 . S
H726 C740 0.960 . S
H727 C740 0.961 . S
H728 C740 0.959 . S
H729 C743 0.929 . S
H730 C744 0.931 . S
H731 C746 0.930 . S
C732 H720 0.930 . S
C732 C733 1.399 . S
C732 C737 1.399 . S
C733 C732 1.399 . S
C733 C734 1.376 . S
C734 H721 0.930 . S
C734 C733 1.376 . S
C734 C735 1.388 . S
C735 H722 0.930 . S
C735 C734 1.388 . S
C735 C736 1.390 . S
C736 C735 1.390 . S
C736 C737 1.394 . S
C736 C742 1.465 . S
C737 C732 1.399 . S
C737 C736 1.394 . S
C737 C738 1.516 . S
C738 C737 1.516 . S
C738 C739 1.502 . S
C738 C740 1.561 . S
C738 C741 1.526 . S
C739 H723 0.959 . S
C739 H724 0.959 . S
C739 H725 0.961 . S
C739 C738 1.502 . S
C740 H726 0.960 . S
C740 H727 0.961 . S
C740 H728 0.959 . S
C740 C738 1.561 . S
C741 C738 1.526 . S
C741 C742 1.396 . S
C741 C746 1.390 . S
C742 C736 1.465 . S
C742 C741 1.396 . S
C742 C743 1.399 . S
C743 H729 0.929 . S
C743 C742 1.399 . S
C743 C744 1.385 . S
C744 H730 0.931 . S
C744 C743 1.385 . S
C744 C745 1.389 . S
C745 C744 1.389 . S
C745 C746 1.387 . S
C746 H731 0.930 . S
C746 C741 1.390 . S
C746 C745 1.387 . S
H747 C759 0.930 . S
H748 C761 0.930 . S
H749 C762 0.930 . S
H750 C766 0.959 . S
H751 C766 0.959 . S
H752 C766 0.961 1_455 S
H753 C767 0.960 . S
H754 C767 0.961 . S
H755 C767 0.959 . S
H756 C770 0.929 . S
H757 C771 0.931 . S
H758 C773 0.930 . S
C759 H747 0.930 . S
C759 C760 1.399 . S
C759 C764 1.399 . S
C760 C759 1.399 . S
C760 C761 1.376 . S
C761 H748 0.930 . S
C761 C760 1.376 . S
C761 C762 1.388 . S
C762 H749 0.930 . S
C762 C761 1.388 . S
C762 C763 1.384 1_455 S
C763 C762 1.384 1_655 S
C763 C764 1.391 1_655 S
C763 C769 1.474 . S
C764 C759 1.399 . S
C764 C763 1.391 1_455 S
C764 C765 1.516 1_455 S
C765 C764 1.516 1_655 S
C765 C766 1.502 . S
C765 C767 1.561 . S
C765 C768 1.526 . S
C766 H750 0.959 . S
C766 H751 0.959 . S
C766 H752 0.961 1_655 S
C766 C765 1.502 . S
C767 H753 0.960 . S
C767 H754 0.961 . S
C767 H755 0.959 . S
C767 C765 1.561 . S
C768 C765 1.526 . S
C768 C769 1.396 . S
C768 C773 1.390 . S
C769 C763 1.474 . S
C769 C768 1.396 . S
C769 C770 1.399 . S
C770 H756 0.929 . S
C770 C769 1.399 . S
C770 C771 1.385 . S
C771 H757 0.931 . S
C771 C770 1.385 . S
C771 C772 1.389 . S
C772 C771 1.389 . S
C772 C773 1.387 . S
C773 H758 0.930 . S
C773 C768 1.390 . S
C773 C772 1.387 . S
H774 C786 0.930 . S
H775 C788 0.930 . S
H776 C789 0.930 . S
H777 C793 0.959 . S
H778 C793 0.959 . S
H779 C793 0.961 . S
H780 C794 0.960 . S
H781 C794 0.961 . S
H782 C794 0.959 . S
H783 C797 0.929 . S
H784 C798 0.931 . S
H785 C800 0.930 . S
C786 H774 0.930 . S
C786 C787 1.399 . S
C786 C791 1.399 . S
C787 C786 1.399 . S
C787 C788 1.376 . S
C788 H775 0.930 . S
C788 C787 1.376 . S
C788 C789 1.388 . S
C789 H776 0.930 . S
C789 C788 1.388 . S
C789 C790 1.390 . S
C790 C789 1.390 . S
C790 C791 1.394 . S
C790 C796 1.465 . S
C791 C786 1.399 . S
C791 C790 1.394 . S
C791 C792 1.516 . S
C792 C791 1.516 . S
C792 C793 1.502 . S
C792 C794 1.561 . S
C792 C795 1.526 . S
C793 H777 0.959 . S
C793 H778 0.959 . S
C793 H779 0.961 . S
C793 C792 1.502 . S
C794 H780 0.960 . S
C794 H781 0.961 . S
C794 H782 0.959 . S
C794 C792 1.561 . S
C795 C792 1.526 . S
C795 C796 1.396 . S
C795 C800 1.390 . S
C796 C790 1.465 . S
C796 C795 1.396 . S
C796 C797 1.399 . S
C797 H783 0.929 . S
C797 C796 1.399 . S
C797 C798 1.385 . S
C798 H784 0.931 . S
C798 C797 1.385 . S
C798 C799 1.389 . S
C799 C798 1.389 . S
C799 C800 1.387 . S
C800 H785 0.930 . S
C800 C795 1.390 . S
C800 C799 1.387 . S
H801 C813 0.930 . S
H802 C815 0.930 . S
H803 C816 0.930 . S
H804 C820 0.959 . S
H805 C820 0.959 . S
H806 C820 0.961 . S
H807 C821 0.960 . S
H808 C821 0.961 . S
H809 C821 0.959 . S
H810 C824 0.929 . S
H811 C825 0.931 1_455 S
H812 C827 0.930 . S
C813 H801 0.930 . S
C813 C814 1.399 . S
C813 C818 1.399 . S
C814 C813 1.399 . S
C814 C815 1.376 . S
C815 H802 0.930 . S
C815 C814 1.376 . S
C815 C816 1.388 . S
C816 H803 0.930 . S
C816 C815 1.388 . S
C816 C817 1.390 . S
C817 C816 1.390 . S
C817 C818 1.394 . S
C817 C823 1.465 . S
C818 C813 1.399 . S
C818 C817 1.394 . S
C818 C819 1.516 . S
C819 C818 1.516 . S
C819 C820 1.502 . S
C819 C821 1.561 . S
C819 C822 1.526 . S
C820 H804 0.959 . S
C820 H805 0.959 . S
C820 H806 0.961 . S
C820 C819 1.502 . S
C821 H807 0.960 . S
C821 H808 0.961 . S
C821 H809 0.959 . S
C821 C819 1.561 . S
C822 C819 1.526 . S
C822 C823 1.396 . S
C822 C827 1.390 . S
C823 C817 1.465 . S
C823 C822 1.396 . S
C823 C824 1.399 . S
C824 H810 0.929 . S
C824 C823 1.399 . S
C824 C825 1.385 . S
C825 H811 0.931 1_655 S
C825 C824 1.385 . S
C825 C826 1.388 1_655 S
C826 C825 1.388 1_455 S
C826 C827 1.381 1_455 S
C827 H812 0.930 . S
C827 C822 1.390 . S
C827 C826 1.381 1_655 S
H828 C840 0.930 . S
H829 C842 0.930 . S
H830 C843 0.930 . S
H831 C847 0.959 . S
H832 C847 0.959 . S
H833 C847 0.961 . S
H834 C848 0.960 . S
H835 C848 0.961 . S
H836 C848 0.959 . S
H837 C851 0.929 . S
H838 C852 0.931 . S
H839 C854 0.930 . S
C840 H828 0.930 . S
C840 C841 1.399 . S
C840 C845 1.399 . S
C841 C840 1.399 . S
C841 C842 1.376 . S
C842 H829 0.930 . S
C842 C841 1.376 . S
C842 C843 1.388 . S
C843 H830 0.930 . S
C843 C842 1.388 . S
C843 C844 1.390 . S
C844 C843 1.390 . S
C844 C845 1.394 . S
C844 C850 1.465 . S
C845 C840 1.399 . S
C845 C844 1.394 . S
C845 C846 1.516 . S
C846 C845 1.516 . S
C846 C847 1.502 . S
C846 C848 1.561 . S
C846 C849 1.526 . S
C847 H831 0.959 . S
C847 H832 0.959 . S
C847 H833 0.961 . S
C847 C846 1.502 . S
C848 H834 0.960 . S
C848 H835 0.961 . S
C848 H836 0.959 . S
C848 C846 1.561 . S
C849 C846 1.526 . S
C849 C850 1.396 . S
C849 C854 1.390 . S
C850 C844 1.465 . S
C850 C849 1.396 . S
C850 C851 1.399 . S
C851 H837 0.929 . S
C851 C850 1.399 . S
C851 C852 1.385 . S
C852 H838 0.931 . S
C852 C851 1.385 . S
C852 C853 1.389 . S
C853 C852 1.389 . S
C853 C854 1.387 . S
C854 H839 0.930 . S
C854 C849 1.390 . S
C854 C853 1.387 . S
H855 C867 0.930 . S
H856 C869 0.930 . S
H857 C870 0.930 . S
H858 C874 0.959 . S
H859 C874 0.959 . S
H860 C874 0.961 . S
H861 C875 0.960 . S
H862 C875 0.961 . S
H863 C875 0.959 . S
H864 C878 0.929 . S
H865 C879 0.931 . S
H866 C881 0.930 . S
C867 H855 0.930 . S
C867 C868 1.399 . S
C867 C872 1.399 . S
C868 C867 1.399 . S
C868 C869 1.376 . S
C869 H856 0.930 . S
C869 C868 1.376 . S
C869 C870 1.388 . S
C870 H857 0.930 . S
C870 C869 1.388 . S
C870 C871 1.390 . S
C871 C870 1.390 . S
C871 C872 1.394 . S
C871 C877 1.465 . S
C872 C867 1.399 . S
C872 C871 1.394 . S
C872 C873 1.516 . S
C873 C872 1.516 . S
C873 C874 1.502 . S
C873 C875 1.561 . S
C873 C876 1.526 . S
C874 H858 0.959 . S
C874 H859 0.959 . S
C874 H860 0.961 . S
C874 C873 1.502 . S
C875 H861 0.960 . S
C875 H862 0.961 . S
C875 H863 0.959 . S
C875 C873 1.561 . S
C876 C873 1.526 . S
C876 C877 1.396 . S
C876 C881 1.390 . S
C877 C871 1.465 . S
C877 C876 1.396 . S
C877 C878 1.399 . S
C878 H864 0.929 . S
C878 C877 1.399 . S
C878 C879 1.385 . S
C879 H865 0.931 . S
C879 C878 1.385 . S
C879 C880 1.389 . S
C880 C879 1.389 . S
C880 C881 1.387 . S
C881 H866 0.930 . S
C881 C876 1.390 . S
C881 C880 1.387 . S
H882 C894 0.930 . S
H883 C896 0.930 . S
H884 C897 0.930 . S
H885 C901 0.959 . S
H886 C901 0.959 . S
H887 C901 0.961 . S
H888 C902 0.960 . S
H889 C902 0.961 . S
H890 C902 0.959 . S
H891 C905 0.929 . S
H892 C906 0.931 . S
H893 C908 0.930 . S
C894 H882 0.930 . S
C894 C895 1.399 . S
C894 C899 1.399 . S
C895 C894 1.399 . S
C895 C896 1.376 . S
C896 H883 0.930 . S
C896 C895 1.376 . S
C896 C897 1.388 . S
C897 H884 0.930 . S
C897 C896 1.388 . S
C897 C898 1.390 . S
C898 C897 1.390 . S
C898 C899 1.394 . S
C898 C904 1.465 . S
C899 C894 1.399 . S
C899 C898 1.394 . S
C899 C900 1.516 . S
C900 C899 1.516 . S
C900 C901 1.502 . S
C900 C902 1.561 . S
C900 C903 1.526 . S
C901 H885 0.959 . S
C901 H886 0.959 . S
C901 H887 0.961 . S
C901 C900 1.502 . S
C902 H888 0.960 . S
C902 H889 0.961 . S
C902 H890 0.959 . S
C902 C900 1.561 . S
C903 C900 1.526 . S
C903 C904 1.396 . S
C903 C908 1.390 . S
C904 C898 1.465 . S
C904 C903 1.396 . S
C904 C905 1.399 . S
C905 H891 0.929 . S
C905 C904 1.399 . S
C905 C906 1.385 . S
C906 H892 0.931 . S
C906 C905 1.385 . S
C906 C907 1.389 . S
C907 C906 1.389 . S
C907 C908 1.387 . S
C908 H893 0.930 . S
C908 C903 1.390 . S
C908 C907 1.387 . S
H909 C921 0.930 . S
H910 C923 0.930 . S
H911 C924 0.930 . S
H912 C928 0.959 . S
H913 C928 0.959 . S
H914 C928 0.961 . S
H915 C929 0.960 . S
H916 C929 0.961 . S
H917 C929 0.959 . S
H918 C932 0.929 . S
H919 C933 0.931 . S
H920 C935 0.930 . S
C921 H909 0.930 . S
C921 C922 1.399 . S
C921 C926 1.399 . S
C922 C921 1.399 . S
C922 C923 1.376 . S
C923 H910 0.930 . S
C923 C922 1.376 . S
C923 C924 1.388 . S
C924 H911 0.930 . S
C924 C923 1.388 . S
C924 C925 1.390 . S
C925 C924 1.390 . S
C925 C926 1.394 . S
C925 C931 1.465 . S
C926 C921 1.399 . S
C926 C925 1.394 . S
C926 C927 1.516 . S
C927 C926 1.516 . S
C927 C928 1.502 . S
C927 C929 1.561 . S
C927 C930 1.526 . S
C928 H912 0.959 . S
C928 H913 0.959 . S
C928 H914 0.961 . S
C928 C927 1.502 . S
C929 H915 0.960 . S
C929 H916 0.961 . S
C929 H917 0.959 . S
C929 C927 1.561 . S
C930 C927 1.526 . S
C930 C931 1.396 . S
C930 C935 1.390 . S
C931 C925 1.465 . S
C931 C930 1.396 . S
C931 C932 1.399 . S
C932 H918 0.929 . S
C932 C931 1.399 . S
C932 C933 1.385 . S
C933 H919 0.931 . S
C933 C932 1.385 . S
C933 C934 1.389 . S
C934 C933 1.389 . S
C934 C935 1.387 . S
C935 H920 0.930 . S
C935 C930 1.390 . S
C935 C934 1.387 . S
H936 C948 0.930 . S
H937 C950 0.930 . S
H938 C951 0.930 . S
H939 C955 0.959 . S
H940 C955 0.959 . S
H941 C955 0.961 . S
H942 C956 0.960 . S
H943 C956 0.961 . S
H944 C956 0.959 . S
H945 C959 0.929 . S
H946 C960 0.931 . S
H947 C962 0.930 . S
C948 H936 0.930 . S
C948 C949 1.399 . S
C948 C953 1.399 . S
C949 C948 1.399 . S
C949 C950 1.376 . S
C950 H937 0.930 . S
C950 C949 1.376 . S
C950 C951 1.388 . S
C951 H938 0.930 . S
C951 C950 1.388 . S
C951 C952 1.390 . S
C952 C951 1.390 . S
C952 C953 1.394 . S
C952 C958 1.465 . S
C953 C948 1.399 . S
C953 C952 1.394 . S
C953 C954 1.516 . S
C954 C953 1.516 . S
C954 C955 1.502 . S
C954 C956 1.561 . S
C954 C957 1.526 . S
C955 H939 0.959 . S
C955 H940 0.959 . S
C955 H941 0.961 . S
C955 C954 1.502 . S
C956 H942 0.960 . S
C956 H943 0.961 . S
C956 H944 0.959 . S
C956 C954 1.561 . S
C957 C954 1.526 . S
C957 C958 1.396 . S
C957 C962 1.390 . S
C958 C952 1.465 . S
C958 C957 1.396 . S
C958 C959 1.399 . S
C959 H945 0.929 . S
C959 C958 1.399 . S
C959 C960 1.385 . S
C960 H946 0.931 . S
C960 C959 1.385 . S
C960 C961 1.389 . S
C961 C960 1.389 . S
C961 C962 1.387 . S
C962 H947 0.930 . S
C962 C957 1.390 . S
C962 C961 1.387 . S
H963 C975 0.930 . S
H964 C977 0.930 . S
H965 C978 0.930 . S
H966 C982 0.959 . S
H967 C982 0.959 . S
H968 C982 0.961 . S
H969 C983 0.960 . S
H970 C983 0.961 . S
H971 C983 0.959 . S
H972 C986 0.929 . S
H973 C987 0.931 . S
H974 C989 0.930 . S
C975 H963 0.930 . S
C975 C976 1.399 . S
C975 C980 1.399 . S
C976 C975 1.399 . S
C976 C977 1.376 . S
C977 H964 0.930 . S
C977 C976 1.376 . S
C977 C978 1.388 . S
C978 H965 0.930 . S
C978 C977 1.388 . S
C978 C979 1.390 . S
C979 C978 1.390 . S
C979 C980 1.394 . S
C979 C985 1.465 . S
C980 C975 1.399 . S
C980 C979 1.394 . S
C980 C981 1.516 . S
C981 C980 1.516 . S
C981 C982 1.502 . S
C981 C983 1.561 . S
C981 C984 1.526 . S
C982 H966 0.959 . S
C982 H967 0.959 . S
C982 H968 0.961 . S
C982 C981 1.502 . S
C983 H969 0.960 . S
C983 H970 0.961 . S
C983 H971 0.959 . S
C983 C981 1.561 . S
C984 C981 1.526 . S
C984 C985 1.396 . S
C984 C989 1.390 . S
C985 C979 1.465 . S
C985 C984 1.396 . S
C985 C986 1.399 . S
C986 H972 0.929 . S
C986 C985 1.399 . S
C986 C987 1.385 . S
C987 H973 0.931 . S
C987 C986 1.385 . S
C987 C988 1.389 . S
C988 C987 1.389 . S
C988 C989 1.387 . S
C989 H974 0.930 . S
C989 C984 1.390 . S
C989 C988 1.387 . S
H990 C1002 0.930 . S
H991 C1004 0.930 . S
H992 C1005 0.930 . S
H993 C1009 0.959 . S
H994 C1009 0.959 . S
H995 C1009 0.961 . S
H996 C1010 0.960 . S
H997 C1010 0.961 . S
H998 C1010 0.959 . S
H999 C1013 0.929 . S
H1000 C1014 0.931 . S
H1001 C1016 0.930 . S
C1002 H990 0.930 . S
C1002 C1003 1.399 . S
C1002 C1007 1.399 . S
C1003 C1002 1.399 . S
C1003 C1004 1.376 . S
C1004 H991 0.930 . S
C1004 C1003 1.376 . S
C1004 C1005 1.388 . S
C1005 H992 0.930 . S
C1005 C1004 1.388 . S
C1005 C1006 1.390 . S
C1006 C1005 1.390 . S
C1006 C1007 1.394 . S
C1006 C1012 1.465 . S
C1007 C1002 1.399 . S
C1007 C1006 1.394 . S
C1007 C1008 1.516 . S
C1008 C1007 1.516 . S
C1008 C1009 1.502 . S
C1008 C1010 1.561 . S
C1008 C1011 1.526 . S
C1009 H993 0.959 . S
C1009 H994 0.959 . S
C1009 H995 0.961 . S
C1009 C1008 1.502 . S
C1010 H996 0.960 . S
C1010 H997 0.961 . S
C1010 H998 0.959 . S
C1010 C1008 1.561 . S
C1011 C1008 1.526 . S
C1011 C1012 1.396 . S
C1011 C1016 1.390 . S
C1012 C1006 1.465 . S
C1012 C1011 1.396 . S
C1012 C1013 1.399 . S
C1013 H999 0.929 . S
C1013 C1012 1.399 . S
C1013 C1014 1.385 . S
C1014 H1000 0.931 . S
C1014 C1013 1.385 . S
C1014 C1015 1.389 . S
C1015 C1014 1.389 . S
C1015 C1016 1.387 . S
C1016 H1001 0.930 . S
C1016 C1011 1.390 . S
C1016 C1015 1.387 . S
H1017 C1029 0.930 . S
H1018 C1031 0.930 . S
H1019 C1032 0.930 . S
H1020 C1036 0.959 . S
H1021 C1036 0.959 . S
H1022 C1036 0.961 . S
H1023 C1037 0.960 . S
H1024 C1037 0.957 1_556 S
H1025 C1037 0.959 . S
H1026 C1040 0.929 . S
H1027 C1041 0.931 . S
H1028 C1043 0.930 . S
C1029 H1017 0.930 . S
C1029 C1030 1.399 . S
C1029 C1034 1.399 1_554 S
C1030 C1029 1.399 . S
C1030 C1031 1.376 . S
C1031 H1018 0.930 . S
C1031 C1030 1.376 . S
C1031 C1032 1.388 . S
C1032 H1019 0.930 . S
C1032 C1031 1.388 . S
C1032 C1033 1.397 . S
C1033 C1032 1.397 . S
C1033 C1034 1.391 1_554 S
C1033 C1039 1.459 1_554 S
C1034 C1029 1.399 1_556 S
C1034 C1033 1.391 1_556 S
C1034 C1035 1.516 . S
C1035 C1034 1.516 . S
C1035 C1036 1.502 . S
C1035 C1037 1.561 1_556 S
C1035 C1038 1.526 . S
C1036 H1020 0.959 . S
C1036 H1021 0.959 . S
C1036 H1022 0.961 . S
C1036 C1035 1.502 . S
C1037 H1023 0.960 . S
C1037 H1024 0.957 1_554 S
C1037 H1025 0.959 . S
C1037 C1035 1.561 1_554 S
C1038 C1035 1.526 . S
C1038 C1039 1.396 . S
C1038 C1043 1.390 . S
C1039 C1033 1.459 1_556 S
C1039 C1038 1.396 . S
C1039 C1040 1.399 . S
C1040 H1026 0.929 . S
C1040 C1039 1.399 . S
C1040 C1041 1.385 . S
C1041 H1027 0.931 . S
C1041 C1040 1.385 . S
C1041 C1042 1.389 . S
C1042 C1041 1.389 . S
C1042 C1043 1.387 . S
C1043 H1028 0.930 . S
C1043 C1038 1.390 . S
C1043 C1042 1.387 . S
C409 C7 0.840 . S
C421 C100 0.862 1_565 S
C436 C25 1.024 . S
C448 C139 0.921 . S
C463 C46 1.096 . S
C475 C178 1.169 . S
C502 C202 1.007 . S
C490 C70 1.010 . S
C529 C241 0.753 . S
C517 C28 0.908 . S
C544 C49 1.005 . S
C556 C280 1.019 . S
C571 C67 1.143 . S
C583 C334 1.137 . S
C598 C4 0.924 . S
C610 C358 1.075 . S
C625 C58 1.699 . S
C637 C373 1.901 . S
C664 C256 1.660 . S
C652 C66 1.609 . S
C691 C295 1.957 . S
C679 C3 2.009 . S
C706 C37 1.783 . S
C718 C319 1.887 . S
C745 C124 1.905 . S
C733 C79 1.718 . S
C760 C16 1.849 . S
C772 C163 1.905 . S
C799 C217 1.961 . S
C787 C24 1.933 . S
C826 C85 1.677 . S
C814 C45 1.608 . S
C853 C339 1.501 . S
C841 C19 1.342 . S
C880 C378 1.355 . S
C868 C41 1.205 . S
C895 C62 1.004 . S
C907 C261 1.104 . S
C934 C300 1.387 . S
C922 C82 1.096 . S
C961 C183 1.507 . S
C949 C40 1.312 . S
C976 C61 1.248 . S
C988 C222 1.302 . S
C1015 C105 1.162 . S
C1003 C83 1.147 . S
C1042 C144 1.332 . S
C1030 C20 1.307 . S
