# Generated by pormake.
# Topology pto, (3,4)-cn, num edge types: 1
# Building blocks:
#     Node 0, Type 0, BuildingBlock: ESEHIV_clean_linker_0, # of connection points: 3
#     Node 1, Type 0, BuildingBlock: ESEHIV_clean_linker_0, # of connection points: 3
#     Node 2, Type 0, BuildingBlock: ESEHIV_clean_linker_0, # of connection points: 3
#     Node 3, Type 0, BuildingBlock: ESEHIV_clean_linker_0, # of connection points: 3
#     Node 4, Type 0, BuildingBlock: ESEHIV_clean_linker_0, # of connection points: 3
#     Node 5, Type 0, BuildingBlock: ESEHIV_clean_linker_0, # of connection points: 3
#     Node 6, Type 0, BuildingBlock: ESEHIV_clean_linker_0, # of connection points: 3
#     Node 7, Type 0, BuildingBlock: ESEHIV_clean_linker_0, # of connection points: 3
#     Node 8, Type 1, BuildingBlock: NAWXER_clean_sbu_0, # of connection points: 4
#     Node 9, Type 1, BuildingBlock: NAWXER_clean_sbu_0, # of connection points: 4
#     Node 10, Type 1, BuildingBlock: NAWXER_clean_sbu_0, # of connection points: 4
#     Node 11, Type 1, BuildingBlock: NAWXER_clean_sbu_0, # of connection points: 4
#     Node 12, Type 1, BuildingBlock: NAWXER_clean_sbu_0, # of connection points: 4
#     Node 13, Type 1, BuildingBlock: NAWXER_clean_sbu_0, # of connection points: 4
#     Edge 14, Type (0, 1), BuildingBlock: TEMPAE_clean_linker_10, # of connection points: 2
#     Edge 15, Type (0, 1), BuildingBlock: TEMPAE_clean_linker_10, # of connection points: 2
#     Edge 16, Type (0, 1), BuildingBlock: TEMPAE_clean_linker_10, # of connection points: 2
#     Edge 17, Type (0, 1), BuildingBlock: TEMPAE_clean_linker_10, # of connection points: 2
#     Edge 18, Type (0, 1), BuildingBlock: TEMPAE_clean_linker_10, # of connection points: 2
#     Edge 19, Type (0, 1), BuildingBlock: TEMPAE_clean_linker_10, # of connection points: 2
#     Edge 20, Type (0, 1), BuildingBlock: TEMPAE_clean_linker_10, # of connection points: 2
#     Edge 21, Type (0, 1), BuildingBlock: TEMPAE_clean_linker_10, # of connection points: 2
#     Edge 22, Type (0, 1), BuildingBlock: TEMPAE_clean_linker_10, # of connection points: 2
#     Edge 23, Type (0, 1), BuildingBlock: TEMPAE_clean_linker_10, # of connection points: 2
#     Edge 24, Type (0, 1), BuildingBlock: TEMPAE_clean_linker_10, # of connection points: 2
#     Edge 25, Type (0, 1), BuildingBlock: TEMPAE_clean_linker_10, # of connection points: 2
#     Edge 26, Type (0, 1), BuildingBlock: TEMPAE_clean_linker_10, # of connection points: 2
#     Edge 27, Type (0, 1), BuildingBlock: TEMPAE_clean_linker_10, # of connection points: 2
#     Edge 28, Type (0, 1), BuildingBlock: TEMPAE_clean_linker_10, # of connection points: 2
#     Edge 29, Type (0, 1), BuildingBlock: TEMPAE_clean_linker_10, # of connection points: 2
#     Edge 30, Type (0, 1), BuildingBlock: TEMPAE_clean_linker_10, # of connection points: 2
#     Edge 31, Type (0, 1), BuildingBlock: TEMPAE_clean_linker_10, # of connection points: 2
#     Edge 32, Type (0, 1), BuildingBlock: TEMPAE_clean_linker_10, # of connection points: 2
#     Edge 33, Type (0, 1), BuildingBlock: TEMPAE_clean_linker_10, # of connection points: 2
#     Edge 34, Type (0, 1), BuildingBlock: TEMPAE_clean_linker_10, # of connection points: 2
#     Edge 35, Type (0, 1), BuildingBlock: TEMPAE_clean_linker_10, # of connection points: 2
#     Edge 36, Type (0, 1), BuildingBlock: TEMPAE_clean_linker_10, # of connection points: 2
#     Edge 37, Type (0, 1), BuildingBlock: TEMPAE_clean_linker_10, # of connection points: 2
# Relax obj value: 0.000
# Max RMSD: 0.005
# Mean RMSD: 0.003
data_MOF--net-pto--node1-NAWXER_clean_sbu_0--node2-ESEHIV_clean_linker_0--edge1-TEMPAE_clean_linker_10
_symmetry_space_group_name_H-M    P1
_symmetry_Int_Tables_number       1
_symmetry_cell_setting            triclinic
loop_
_symmetry_equiv_pos_as_xyz
'x, y, z'
_cell_length_a     41.499107
_cell_length_b     39.021959
_cell_length_c     36.49674
_cell_angle_alpha  90.4128
_cell_angle_beta   90.058488
_cell_angle_gamma 90.00559
loop_
_atom_site_label
_atom_site_type_symbol
_atom_site_fract_x
_atom_site_fract_y
_atom_site_fract_z
_atom_type_partial_charge
H0 H 0.24823 0.28525 0.15265 0.0
H1 H 0.28006 0.19934 0.21704 0.0
H2 H 0.19113 0.24982 0.24303 0.0
C3 C 0.24473 0.26759 0.17507 0.0
C4 C 0.21695 0.27058 0.19696 0.0
C5 C 0.26761 0.2416 0.18167 0.0
C6 C 0.2622 0.21867 0.21065 0.0
C7 C 0.23467 0.22148 0.23276 0.0
C8 C 0.21221 0.24739 0.22568 0.0
H9 H 0.23721 0.72555 0.8075 0.0
H10 H 0.26386 0.82764 0.77563 0.0
H11 H 0.18361 0.7775 0.72342 0.0
C12 C 0.2332 0.74786 0.79056 0.0
C13 C 0.20752 0.74823 0.76533 0.0
C14 C 0.25333 0.77663 0.79456 0.0
C15 C 0.24795 0.80571 0.773 0.0
C16 C 0.223 0.80596 0.74699 0.0
C17 C 0.20288 0.77727 0.74351 0.0
H18 H 0.73675 0.8045 0.21812 0.0
H19 H 0.82665 0.75648 0.24494 0.0
H20 H 0.76571 0.71264 0.161 0.0
C21 C 0.75425 0.78431 0.21333 0.0
C22 C 0.74815 0.75899 0.18676 0.0
C23 C 0.78257 0.78337 0.2342 0.0
C24 C 0.80512 0.75732 0.22809 0.0
C25 C 0.79935 0.7315 0.20184 0.0
C26 C 0.77052 0.73231 0.18141 0.0
H27 H 0.74305 0.19601 0.76084 0.0
H28 H 0.82291 0.24473 0.70758 0.0
H29 H 0.77147 0.29796 0.79314 0.0
C30 C 0.75885 0.21794 0.75788 0.0
C31 C 0.75413 0.24713 0.77998 0.0
C32 C 0.78366 0.21694 0.73181 0.0
C33 C 0.80386 0.24544 0.72788 0.0
C34 C 0.7998 0.27477 0.74989 0.0
C35 C 0.77482 0.27546 0.77598 0.0
H36 H 0.69031 0.74819 0.7474 0.0
H37 H 0.74327 0.67578 0.81225 0.0
H38 H 0.78919 0.72514 0.72119 0.0
C39 C 0.71229 0.73406 0.75277 0.0
C40 C 0.73952 0.73953 0.73068 0.0
C41 C 0.71337 0.71103 0.78216 0.0
C42 C 0.74219 0.6936 0.78961 0.0
C43 C 0.76948 0.69834 0.76759 0.0
C44 C 0.76793 0.72098 0.73781 0.0
H45 H 0.70215 0.23585 0.28594 0.0
H46 H 0.75474 0.32369 0.24801 0.0
H47 H 0.79552 0.25869 0.33094 0.0
C48 C 0.72305 0.25248 0.28741 0.0
C49 C 0.74839 0.24423 0.31125 0.0
C50 C 0.72536 0.28087 0.26409 0.0
C51 C 0.7529 0.30173 0.2659 0.0
C52 C 0.77833 0.29421 0.29006 0.0
C53 C 0.77608 0.26498 0.3123 0.0
H54 H 0.22212 0.27965 0.727 0.0
H55 H 0.32226 0.26202 0.75077 0.0
H56 H 0.26912 0.33684 0.81314 0.0
C57 C 0.2434 0.28533 0.74319 0.0
C58 C 0.24218 0.31079 0.7707 0.0
C59 C 0.27241 0.26805 0.73554 0.0
C60 C 0.30011 0.27594 0.75604 0.0
C61 C 0.29895 0.30035 0.78446 0.0
C62 C 0.27001 0.31779 0.79138 0.0
H63 H 0.22028 0.74548 0.33095 0.0
H64 H 0.26306 0.67793 0.25057 0.0
H65 H 0.31377 0.76782 0.28637 0.0
C66 C 0.24024 0.73831 0.3134 0.0
C67 C 0.26769 0.75955 0.31223 0.0
C68 C 0.23788 0.70891 0.29079 0.0
C69 C 0.2638 0.70092 0.26736 0.0
C70 C 0.29093 0.72223 0.26518 0.0
C71 C 0.29285 0.75126 0.28799 0.0
C72 C 0.96754 0.45615 0.27128 0.0
C73 C 0.05034 0.54487 0.27499 0.0
O74 O 0.98123 0.46959 0.29901 0.0
Zn75 Zn 0.00926 0.50035 0.2729 0.0
O76 O 0.97578 0.46583 0.23906 0.0
Zn77 Zn 0.00926 0.50196 0.21532 0.0
O78 O 0.03778 0.47297 0.18703 0.0
O79 O 0.04283 0.46596 0.24659 0.0
O80 O 0.04197 0.53756 0.24199 0.0
O81 O 0.03759 0.52912 0.30159 0.0
O82 O 0.97559 0.53626 0.24874 0.0
O83 O 0.98099 0.53191 0.18878 0.0
C84 C 0.05134 0.45814 0.21378 0.0
C85 C 0.96725 0.5455 0.21636 0.0
C86 C 0.96139 0.46715 0.7459 0.0
C87 C 0.04612 0.55522 0.75109 0.0
O88 O 0.97179 0.47462 0.77798 0.0
Zn89 Zn 1.00512 0.50698 0.80485 0.0
O90 O 0.97338 0.48222 0.71821 0.0
Zn91 Zn 1.00386 0.51133 0.74548 0.0
O92 O 0.03705 0.47483 0.76629 0.0
O93 O 0.03494 0.47395 0.82666 0.0
O94 O 0.03295 0.54379 0.7219 0.0
O95 O 0.03735 0.54342 0.78219 0.0
O96 O 0.97589 0.53552 0.8339 0.0
O97 O 0.9723 0.54493 0.77431 0.0
C98 C 0.04698 0.46272 0.7968 0.0
C99 C 0.96355 0.55174 0.80717 0.0
C100 C 0.22273 0.99251 0.55987 0.0
C101 C 0.22712 0.06662 0.45228 0.0
O102 O 0.19859 0.00515 0.5432 0.0
Zn103 Zn 0.22313 0.02969 0.50596 0.0
O104 O 0.2512 0.99913 0.5485 0.0
Zn105 Zn 0.27499 0.027 0.50702 0.0
O106 O 0.299 0.06032 0.53636 0.0
O107 O 0.2464 0.06905 0.53741 0.0
O108 O 0.25485 0.05757 0.46439 0.0
O109 O 0.20174 0.05597 0.46812 0.0
O110 O 0.24359 0.98855 0.47478 0.0
O111 O 0.29652 0.99016 0.47992 0.0
C112 C 0.27491 0.07787 0.54716 0.0
C113 C 0.27128 0.97596 0.46697 0.0
C114 C 0.53951 0.76443 0.04536 0.0
C115 C 0.44294 0.76564 0.96762 0.0
O116 O 0.52911 0.7345 0.03691 0.0
Zn117 Zn 0.48958 0.71166 0.00791 0.0
O118 O 0.52392 0.79083 0.03533 0.0
Zn119 Zn 0.4906 0.7666 0.00767 0.0
O120 O 0.46229 0.74461 0.05009 0.0
O121 O 0.46574 0.68832 0.04631 0.0
O122 O 0.45882 0.7915 0.97904 0.0
O123 O 0.45201 0.73542 0.97662 0.0
O124 O 0.51295 0.68574 0.97078 0.0
O125 O 0.5183 0.74181 0.96581 0.0
C126 C 0.45467 0.71495 0.06218 0.0
C127 C 0.52515 0.71147 0.95459 0.0
C128 C 0.74656 0.92802 0.54201 0.0
C129 C 0.74453 0.02995 0.46363 0.0
O130 O 0.72188 0.94146 0.52721 0.0
Zn131 Zn 0.74398 0.97796 0.50064 0.0
O132 O 0.7745 0.94025 0.53498 0.0
Zn133 Zn 0.79564 0.97997 0.50333 0.0
O134 O 0.81718 0.00664 0.54095 0.0
O135 O 0.76401 0.00905 0.54372 0.0
O136 O 0.77292 0.0205 0.47309 0.0
O137 O 0.72017 0.01216 0.47292 0.0
O138 O 0.76796 0.95178 0.45752 0.0
O139 O 0.8205 0.95515 0.46647 0.0
C140 C 0.7917 0.01813 0.5561 0.0
C141 C 0.79674 0.94482 0.44738 0.0
C142 C 0.55972 0.29138 0.0627 0.0
C143 C 0.48621 0.29841 0.95798 0.0
O144 O 0.55289 0.26219 0.04838 0.0
Zn145 Zn 0.525 0.24182 0.00428 0.0
O146 O 0.5476 0.3184 0.0491 0.0
Zn147 Zn 0.52323 0.29641 0.00993 0.0
O148 O 0.48638 0.26903 0.03885 0.0
O149 O 0.49325 0.21354 0.02877 0.0
O150 O 0.4971 0.32354 0.97669 0.0
O151 O 0.49515 0.26787 0.96574 0.0
O152 O 0.55753 0.22088 0.97323 0.0
O153 O 0.56008 0.27735 0.97389 0.0
C154 C 0.47754 0.23793 0.04358 0.0
C155 C 0.57069 0.24838 0.96224 0.0
C156 C 0.16009 0.29151 0.19249 0.0
C157 C 0.19322 0.29858 0.19132 0.0
C158 C 0.13727 0.31802 0.1924 0.0
C159 C 0.1478 0.3525 0.19115 0.0
C160 C 0.18114 0.35975 0.18805 0.0
C161 C 0.20349 0.33266 0.1881 0.0
C162 C 0.10196 0.30914 0.19544 0.0
C163 C 0.19332 0.39616 0.18663 0.0
C164 C 0.08475 0.42103 0.17193 0.0
C165 C 0.0767 0.43191 0.20752 0.0
C166 C 0.10824 0.3956 0.16604 0.0
C167 C 0.1241 0.38079 0.19643 0.0
C168 C 0.11645 0.39208 0.23233 0.0
C169 C 0.09286 0.41741 0.23743 0.0
C170 C 0.11572 0.38418 0.12737 0.0
C171 C 0.13285 0.37701 0.2655 0.0
H172 H 0.15205 0.26515 0.19446 0.0
H173 H 0.22906 0.33826 0.18743 0.0
H174 H 0.09261 0.318 0.22237 0.0
H175 H 0.08791 0.32245 0.17394 0.0
H176 H 0.09758 0.28113 0.19291 0.0
H177 H 0.2195 0.39741 0.18041 0.0
H178 H 0.17999 0.41089 0.16562 0.0
H179 H 0.18906 0.40895 0.21345 0.0
H180 H 0.07244 0.43211 0.14864 0.0
H181 H 0.08698 0.42572 0.26503 0.0
H182 H 0.10953 0.35669 0.12389 0.0
H183 H 0.1419 0.38679 0.1219 0.0
H184 H 0.10223 0.39918 0.10664 0.0
H185 H 0.12755 0.34919 0.26707 0.0
H186 H 0.12495 0.38941 0.29147 0.0
H187 H 0.15936 0.37982 0.26308 0.0
C188 C 0.19675 0.68507 0.75891 0.0
C189 C 0.1851 0.71873 0.76153 0.0
C190 C 0.1755 0.6573 0.75428 0.0
C191 C 0.14186 0.66338 0.75255 0.0
C192 C 0.13006 0.69734 0.75499 0.0
C193 C 0.15179 0.72454 0.75946 0.0
C194 C 0.18896 0.62143 0.75173 0.0
C195 C 0.09437 0.70491 0.75379 0.0
C196 C 0.08303 0.59561 0.71744 0.0
C197 C 0.07142 0.58211 0.7504 0.0
C198 C 0.10666 0.62153 0.71755 0.0
C199 C 0.11873 0.63424 0.75137 0.0
C200 C 0.1074 0.62034 0.7846 0.0
C201 C 0.08402 0.59451 0.7837 0.0
C202 C 0.11833 0.63571 0.68157 0.0
C203 C 0.11945 0.63328 0.82128 0.0
H204 H 0.22249 0.68052 0.76005 0.0
H205 H 0.14264 0.75048 0.76189 0.0
H206 H 0.18067 0.60622 0.77549 0.0
H207 H 0.1799 0.60844 0.72662 0.0
H208 H 0.21573 0.6212 0.75127 0.0
H209 H 0.08924 0.73285 0.75406 0.0
H210 H 0.08346 0.69344 0.7288 0.0
H211 H 0.08233 0.69316 0.77775 0.0
H212 H 0.07355 0.5861 0.69162 0.0
H213 H 0.07535 0.5843 0.80941 0.0
H214 H 0.14499 0.63415 0.68008 0.0
H215 H 0.11172 0.66318 0.6796 0.0
H216 H 0.10792 0.62182 0.65766 0.0
H217 H 0.14608 0.63121 0.82266 0.0
H218 H 0.10899 0.6189 0.84458 0.0
H219 H 0.11324 0.66077 0.82467 0.0
C220 C 0.85627 0.71079 0.19676 0.0
C221 C 0.82319 0.70335 0.19724 0.0
C222 C 0.87937 0.68456 0.19704 0.0
C223 C 0.86919 0.64995 0.19773 0.0
C224 C 0.83584 0.6422 0.19651 0.0
C225 C 0.81321 0.66901 0.19626 0.0
C226 C 0.91466 0.69396 0.1981 0.0
C227 C 0.82405 0.60561 0.19709 0.0
C228 C 0.93195 0.5816 0.17613 0.0
C229 C 0.9417 0.5717 0.21136 0.0
C230 C 0.90798 0.60661 0.1712 0.0
C231 C 0.89345 0.62214 0.20222 0.0
C232 C 0.90295 0.61202 0.23781 0.0
C233 C 0.92692 0.58695 0.24195 0.0
C234 C 0.89847 0.6167 0.13283 0.0
C235 C 0.88809 0.62801 0.27161 0.0
H236 H 0.86411 0.7373 0.19693 0.0
H237 H 0.7877 0.6631 0.19689 0.0
H238 H 0.92529 0.68584 0.22456 0.0
H239 H 0.92789 0.6803 0.176 0.0
H240 H 0.91862 0.72195 0.19499 0.0
H241 H 0.7976 0.60379 0.19279 0.0
H242 H 0.83635 0.59023 0.1756 0.0
H243 H 0.83002 0.59394 0.22389 0.0
H244 H 0.94314 0.56991 0.15231 0.0
H245 H 0.93419 0.57947 0.26927 0.0
H246 H 0.90395 0.64419 0.12846 0.0
H247 H 0.87212 0.61339 0.12899 0.0
H248 H 0.91123 0.60135 0.11159 0.0
H249 H 0.89307 0.65595 0.27216 0.0
H250 H 0.8975 0.61664 0.29731 0.0
H251 H 0.86154 0.62475 0.27098 0.0
C252 C 0.85538 0.29852 0.7425 0.0
C253 C 0.82212 0.30425 0.74562 0.0
C254 C 0.877 0.32585 0.73855 0.0
C255 C 0.86511 0.35983 0.73774 0.0
C256 C 0.8315 0.36579 0.74002 0.0
C257 C 0.81038 0.3379 0.7441 0.0
C258 C 0.91268 0.31839 0.73672 0.0
C259 C 0.81793 0.40166 0.73919 0.0
C260 C 0.92249 0.42698 0.77465 0.0
C261 C 0.9356 0.44095 0.74256 0.0
C262 C 0.89907 0.40126 0.77327 0.0
C263 C 0.88817 0.38903 0.7389 0.0
C264 C 0.90059 0.40347 0.70627 0.0
C265 C 0.92427 0.42932 0.70846 0.0
C266 C 0.8866 0.38655 0.80876 0.0
C267 C 0.88934 0.39111 0.66914 0.0
H268 H 0.86463 0.27259 0.74403 0.0
H269 H 0.78466 0.34241 0.74596 0.0
H270 H 0.9236 0.33132 0.71279 0.0
H271 H 0.9247 0.32866 0.76165 0.0
H272 H 0.9178 0.29049 0.73468 0.0
H273 H 0.79119 0.40179 0.73777 0.0
H274 H 0.82548 0.41586 0.76421 0.0
H275 H 0.82758 0.41577 0.71531 0.0
H276 H 0.93081 0.43586 0.80123 0.0
H277 H 0.93415 0.44004 0.68357 0.0
H278 H 0.89281 0.35894 0.81031 0.0
H279 H 0.85996 0.38856 0.80984 0.0
H280 H 0.89678 0.39976 0.83323 0.0
H281 H 0.89632 0.3639 0.66515 0.0
H282 H 0.89974 0.40641 0.64649 0.0
H283 H 0.86267 0.39237 0.66744 0.0
C284 C 0.23388 0.16276 0.26003 0.0
C285 C 0.22999 0.19823 0.2643 0.0
C286 C 0.23057 0.14068 0.28999 0.0
C287 C 0.22363 0.15451 0.3251 0.0
C288 C 0.21908 0.19027 0.32939 0.0
C289 C 0.22218 0.21168 0.29889 0.0
C290 C 0.23533 0.10266 0.28427 0.0
C291 C 0.21213 0.20606 0.36645 0.0
C292 C 0.1963 0.09548 0.40174 0.0
C293 C 0.22547 0.08941 0.42003 0.0
C294 C 0.19525 0.11653 0.37061 0.0
C295 C 0.22396 0.13201 0.35782 0.0
C296 C 0.25334 0.1262 0.37642 0.0
C297 C 0.25375 0.10493 0.40713 0.0
C298 C 0.16353 0.12203 0.35127 0.0
C299 C 0.28445 0.14249 0.3639 0.0
H300 H 0.23956 0.1523 0.2332 0.0
H301 H 0.21947 0.23915 0.30233 0.0
H302 H 0.25725 0.09417 0.29907 0.0
H303 H 0.21464 0.08828 0.29574 0.0
H304 H 0.23796 0.09573 0.25485 0.0
H305 H 0.20713 0.23397 0.36474 0.0
H306 H 0.19115 0.19329 0.37928 0.0
H307 H 0.23311 0.2022 0.38485 0.0
H308 H 0.17439 0.08351 0.41148 0.0
H309 H 0.2764 0.10058 0.42117 0.0
H310 H 0.16541 0.11335 0.32234 0.0
H311 H 0.15758 0.14974 0.35092 0.0
H312 H 0.14341 0.10803 0.36454 0.0
H313 H 0.28999 0.13426 0.33544 0.0
H314 H 0.30518 0.13568 0.38169 0.0
H315 H 0.28193 0.1708 0.36377 0.0
C316 C 0.30963 0.76045 0.81054 0.0
C317 C 0.28061 0.77612 0.82056 0.0
C318 C 0.3361 0.76039 0.83459 0.0
C319 C 0.33323 0.77599 0.86964 0.0
C320 C 0.30379 0.79186 0.87978 0.0
C321 C 0.27786 0.79195 0.85494 0.0
C322 C 0.3671 0.74352 0.82253 0.0
C323 C 0.29956 0.8083 0.91703 0.0
C324 C 0.39085 0.7436 0.94262 0.0
C325 C 0.41414 0.76966 0.94393 0.0
C326 C 0.36401 0.74584 0.91932 0.0
C327 C 0.36064 0.77451 0.8961 0.0
C328 C 0.38392 0.8011 0.8975 0.0
C329 C 0.41023 0.79853 0.92173 0.0
C330 C 0.33946 0.71726 0.91928 0.0
C331 C 0.38146 0.8318 0.87274 0.0
H332 H 0.31163 0.74845 0.78375 0.0
H333 H 0.25531 0.80413 0.86244 0.0
H334 H 0.38735 0.76198 0.82482 0.0
H335 H 0.37273 0.72168 0.84075 0.0
H336 H 0.36585 0.73388 0.79385 0.0
H337 H 0.27528 0.81985 0.92053 0.0
H338 H 0.30322 0.78889 0.93871 0.0
H339 H 0.31796 0.82856 0.92127 0.0
H340 H 0.39355 0.72135 0.95997 0.0
H341 H 0.42825 0.81864 0.92248 0.0
H342 H 0.339 0.70447 0.89204 0.0
H343 H 0.31502 0.72782 0.92429 0.0
H344 H 0.34467 0.69767 0.94041 0.0
H345 H 0.38245 0.82331 0.84368 0.0
H346 H 0.40112 0.8506 0.87769 0.0
H347 H 0.35799 0.84487 0.87684 0.0
C348 C 0.76908 0.80634 0.29584 0.0
C349 C 0.78781 0.80829 0.26412 0.0
C350 C 0.77421 0.82905 0.32519 0.0
C351 C 0.79816 0.85479 0.32225 0.0
C352 C 0.81716 0.85679 0.29011 0.0
C353 C 0.812 0.83313 0.26149 0.0
C354 C 0.75381 0.82569 0.35923 0.0
C355 C 0.84235 0.88434 0.28564 0.0
C356 C 0.78094 0.93107 0.38357 0.0
C357 C 0.80127 0.92482 0.41343 0.0
C358 C 0.78126 0.90965 0.35264 0.0
C359 C 0.80174 0.88067 0.35207 0.0
C360 C 0.8233 0.87501 0.38159 0.0
C361 C 0.8231 0.89752 0.41187 0.0
C362 C 0.7585 0.91714 0.32137 0.0
C363 C 0.84505 0.84403 0.38226 0.0
H364 H 0.75065 0.78673 0.29778 0.0
H365 H 0.82647 0.83433 0.23682 0.0
H366 H 0.76944 0.82384 0.38382 0.0
H367 H 0.73856 0.84882 0.36269 0.0
H368 H 0.73786 0.80283 0.35813 0.0
H369 H 0.85575 0.8817 0.25944 0.0
H370 H 0.83068 0.90992 0.28646 0.0
H371 H 0.85981 0.88351 0.30864 0.0
H372 H 0.76422 0.95241 0.38477 0.0
H373 H 0.8386 0.89261 0.43518 0.0
H374 H 0.73917 0.89751 0.32051 0.0
H375 H 0.77146 0.91585 0.29481 0.0
H376 H 0.74709 0.94278 0.32411 0.0
H377 H 0.8302 0.82054 0.38508 0.0
H378 H 0.86252 0.84508 0.40533 0.0
H379 H 0.85858 0.84165 0.35618 0.0
C380 C 0.73318 0.25698 0.84363 0.0
C381 C 0.72742 0.24778 0.80701 0.0
C382 C 0.70823 0.25637 0.86965 0.0
C383 C 0.67668 0.24691 0.85861 0.0
C384 C 0.67071 0.23799 0.82154 0.0
C385 C 0.6962 0.23829 0.79627 0.0
C386 C 0.71564 0.26565 0.90899 0.0
C387 C 0.63735 0.22839 0.80848 0.0
C388 C 0.61546 0.21745 0.92951 0.0
C389 C 0.59785 0.24759 0.93583 0.0
C390 C 0.64149 0.21694 0.90484 0.0
C391 C 0.64972 0.24712 0.88558 0.0
C392 C 0.63183 0.27751 0.89166 0.0
C393 C 0.60633 0.27744 0.91688 0.0
C394 C 0.66026 0.18416 0.89944 0.0
C395 C 0.63944 0.31006 0.87126 0.0
H396 H 0.75737 0.26399 0.85205 0.0
H397 H 0.69165 0.23146 0.76788 0.0
H398 H 0.70121 0.28826 0.91749 0.0
H399 H 0.70879 0.24419 0.92719 0.0
H400 H 0.74156 0.27157 0.91332 0.0
H401 H 0.63672 0.22225 0.77872 0.0
H402 H 0.62845 0.20585 0.8238 0.0
H403 H 0.62039 0.24981 0.81398 0.0
H404 H 0.60916 0.19436 0.94419 0.0
H405 H 0.59273 0.3008 0.92139 0.0
H406 H 0.68612 0.18866 0.90557 0.0
H407 H 0.65863 0.17567 0.87043 0.0
H408 H 0.65136 0.16317 0.91717 0.0
H409 H 0.6646 0.3181 0.87696 0.0
H410 H 0.62305 0.33145 0.87892 0.0
H411 H 0.63747 0.30547 0.84131 0.0
C412 C 0.2164 0.82941 0.68413 0.0
C413 C 0.21872 0.8353 0.72196 0.0
C414 C 0.21351 0.85669 0.65963 0.0
C415 C 0.21256 0.89071 0.67334 0.0
C416 C 0.21373 0.89676 0.71164 0.0
C417 C 0.21713 0.86893 0.73555 0.0
C418 C 0.21299 0.84914 0.61897 0.0
C419 C 0.21237 0.93265 0.72724 0.0
C420 C 0.24685 0.95617 0.60842 0.0
C421 C 0.21907 0.96904 0.59134 0.0
C422 C 0.24487 0.93162 0.63601 0.0
C423 C 0.21431 0.91973 0.64728 0.0
C424 C 0.18602 0.93366 0.63147 0.0
C425 C 0.18872 0.95813 0.60347 0.0
C426 C 0.27567 0.91728 0.65192 0.0
C427 C 0.15302 0.92187 0.64326 0.0
H428 H 0.21789 0.80341 0.6736 0.0
H429 H 0.21854 0.87341 0.76486 0.0
H430 H 0.1921 0.86191 0.60591 0.0
H431 H 0.23512 0.85954 0.60611 0.0
H432 H 0.21168 0.82123 0.61293 0.0
H433 H 0.20973 0.93277 0.75753 0.0
H434 H 0.23478 0.9466 0.72016 0.0
H435 H 0.19194 0.94699 0.7151 0.0
H436 H 0.27046 0.96458 0.59956 0.0
H437 H 0.16716 0.96808 0.59058 0.0
H438 H 0.27761 0.88961 0.64504 0.0
H439 H 0.27545 0.91959 0.68222 0.0
H440 H 0.29746 0.9305 0.64141 0.0
H441 H 0.14926 0.8949 0.63443 0.0
H442 H 0.13352 0.93783 0.63137 0.0
H443 H 0.15102 0.92262 0.67357 0.0
C444 C 0.71338 0.78719 0.14007 0.0
C445 C 0.71813 0.76055 0.16499 0.0
C446 C 0.68463 0.78965 0.11988 0.0
C447 C 0.65975 0.7654 0.1256 0.0
C448 C 0.66439 0.73869 0.15122 0.0
C449 C 0.69375 0.73634 0.17029 0.0
C450 C 0.68105 0.8179 0.09213 0.0
C451 C 0.63827 0.71273 0.15866 0.0
C452 C 0.57406 0.78768 0.09612 0.0
C453 C 0.57066 0.76735 0.06461 0.0
C454 C 0.60298 0.78739 0.11635 0.0
C455 C 0.6293 0.7672 0.10393 0.0
C456 C 0.62623 0.74782 0.07117 0.0
C457 C 0.59676 0.74764 0.05232 0.0
C458 C 0.60501 0.80766 0.15164 0.0
C459 C 0.65394 0.72688 0.05623 0.0
H460 H 0.73237 0.8059 0.13615 0.0
H461 H 0.69745 0.71599 0.18993 0.0
H462 H 0.67652 0.80666 0.06458 0.0
H463 H 0.65998 0.83416 0.09907 0.0
H464 H 0.70279 0.83445 0.0907 0.0
H465 H 0.64505 0.69466 0.18075 0.0
H466 H 0.61567 0.72602 0.16662 0.0
H467 H 0.63308 0.69772 0.13341 0.0
H468 H 0.55369 0.80262 0.10574 0.0
H469 H 0.5941 0.73207 0.02776 0.0
H470 H 0.62559 0.82576 0.1507 0.0
H471 H 0.60941 0.79002 0.17483 0.0
H472 H 0.58263 0.82241 0.15725 0.0
H473 H 0.67581 0.74307 0.05383 0.0
H474 H 0.64843 0.71553 0.02893 0.0
H475 H 0.65973 0.70581 0.07538 0.0
C476 C 0.78896 0.15347 0.72338 0.0
C477 C 0.78823 0.18634 0.70816 0.0
C478 C 0.79251 0.1243 0.70103 0.0
C479 C 0.79495 0.12819 0.6626 0.0
C480 C 0.79484 0.16139 0.6472 0.0
C481 C 0.79161 0.19008 0.67021 0.0
C482 C 0.79284 0.08931 0.71842 0.0
C483 C 0.79693 0.16657 0.60629 0.0
C484 C 0.82274 0.05614 0.59944 0.0
C485 C 0.79318 0.04384 0.58608 0.0
C486 C 0.82378 0.08284 0.6255 0.0
C487 C 0.79462 0.09764 0.6381 0.0
C488 C 0.76478 0.08457 0.62558 0.0
C489 C 0.76444 0.05777 0.59992 0.0
C490 C 0.85603 0.09594 0.63867 0.0
C491 C 0.73314 0.09978 0.63816 0.0
H492 H 0.78676 0.15061 0.7528 0.0
H493 H 0.7908 0.21548 0.65839 0.0
H494 H 0.77094 0.0749 0.71014 0.0
H495 H 0.81397 0.07441 0.7087 0.0
H496 H 0.79359 0.09083 0.74881 0.0
H497 H 0.79839 0.1941 0.5989 0.0
H498 H 0.81836 0.15318 0.59504 0.0
H499 H 0.77538 0.1553 0.5928 0.0
H500 H 0.84504 0.04545 0.58899 0.0
H501 H 0.74143 0.04843 0.58992 0.0
H502 H 0.85664 0.09689 0.66905 0.0
H503 H 0.85978 0.12246 0.6288 0.0
H504 H 0.8763 0.07974 0.6288 0.0
H505 H 0.7317 0.09966 0.6685 0.0
H506 H 0.71202 0.08567 0.62697 0.0
H507 H 0.73153 0.12688 0.62932 0.0
C508 C 0.3106 0.20664 0.15019 0.0
C509 C 0.29768 0.23888 0.15935 0.0
C510 C 0.33987 0.20365 0.13111 0.0
C511 C 0.35648 0.23358 0.12032 0.0
C512 C 0.34325 0.26618 0.12867 0.0
C513 C 0.31418 0.26844 0.14825 0.0
C514 C 0.35323 0.16843 0.12291 0.0
C515 C 0.36004 0.29876 0.11731 0.0
C516 C 0.44668 0.23231 0.10157 0.0
C517 C 0.44732 0.23152 0.06328 0.0
C518 C 0.41724 0.23164 0.12058 0.0
C519 C 0.38788 0.23095 0.10065 0.0
C520 C 0.38862 0.22944 0.06185 0.0
C521 C 0.41841 0.22965 0.04363 0.0
C522 C 0.41752 0.23287 0.16193 0.0
C523 C 0.35795 0.22918 0.03955 0.0
H524 H 0.29783 0.1836 0.158 0.0
H525 H 0.30478 0.29347 0.15558 0.0
H526 H 0.35637 0.165 0.09293 0.0
H527 H 0.37736 0.16568 0.13568 0.0
H528 H 0.33738 0.14767 0.13318 0.0
H529 H 0.34596 0.32204 0.12457 0.0
H530 H 0.38396 0.30047 0.1308 0.0
H531 H 0.36424 0.29852 0.08729 0.0
H532 H 0.46918 0.23435 0.11658 0.0
H533 H 0.41912 0.22979 0.01392 0.0
H534 H 0.40257 0.21182 0.1731 0.0
H535 H 0.40685 0.25737 0.17161 0.0
H536 H 0.44227 0.2307 0.17331 0.0
H537 H 0.34198 0.20805 0.04851 0.0
H538 H 0.36267 0.22616 0.00974 0.0
H539 H 0.34468 0.25352 0.04408 0.0
C540 C 0.81372 0.68311 0.81104 0.0
C541 C 0.79957 0.67967 0.77631 0.0
C542 C 0.84143 0.6644 0.82038 0.0
C543 C 0.85474 0.64104 0.79468 0.0
C544 C 0.8404 0.63749 0.75954 0.0
C545 C 0.81321 0.6572 0.75063 0.0
C546 C 0.85649 0.66965 0.85766 0.0
C547 C 0.85347 0.61242 0.73156 0.0
C548 C 0.94127 0.6098 0.7975 0.0
C549 C 0.93767 0.57705 0.81234 0.0
C550 C 0.91477 0.63187 0.79392 0.0
C551 C 0.88374 0.62033 0.80419 0.0
C552 C 0.88026 0.58772 0.82067 0.0
C553 C 0.90743 0.56655 0.82492 0.0
C554 C 0.91974 0.66676 0.77722 0.0
C555 C 0.84754 0.57414 0.8313 0.0
H556 H 0.80314 0.70064 0.83083 0.0
H557 H 0.80202 0.65437 0.72392 0.0
H558 H 0.85616 0.64528 0.87311 0.0
H559 H 0.8821 0.67731 0.85462 0.0
H560 H 0.84379 0.68957 0.87406 0.0
H561 H 0.83896 0.61198 0.70596 0.0
H562 H 0.87866 0.61919 0.72453 0.0
H563 H 0.85383 0.58622 0.74319 0.0
H564 H 0.96469 0.61763 0.78735 0.0
H565 H 0.90462 0.54085 0.83557 0.0
H566 H 0.90714 0.68672 0.79359 0.0
H567 H 0.90934 0.66709 0.74922 0.0
H568 H 0.94568 0.67361 0.77536 0.0
H569 H 0.83449 0.59313 0.84847 0.0
H570 H 0.84921 0.54965 0.84653 0.0
H571 H 0.83291 0.56975 0.80623 0.0
C572 C 0.80357 0.35258 0.29079 0.0
C573 C 0.80723 0.31683 0.29129 0.0
C574 C 0.83041 0.3744 0.28934 0.0
C575 C 0.8618 0.36022 0.28845 0.0
C576 C 0.86575 0.32419 0.29001 0.0
C577 C 0.83841 0.30291 0.29144 0.0
C578 C 0.82512 0.41267 0.28792 0.0
C579 C 0.89881 0.30808 0.28912 0.0
C580 C 0.92653 0.41565 0.24509 0.0
C581 C 0.94164 0.43023 0.2759 0.0
C582 C 0.90105 0.39226 0.24884 0.0
C583 C 0.8903 0.38316 0.28428 0.0
C584 C 0.90584 0.39721 0.31551 0.0
C585 C 0.93132 0.42056 0.31096 0.0
C586 C 0.88515 0.37786 0.21482 0.0
C587 C 0.8951 0.38812 0.35374 0.0
H588 H 0.77958 0.36354 0.29129 0.0
H589 H 0.84143 0.27532 0.29153 0.0
H590 H 0.83861 0.42555 0.31037 0.0
H591 H 0.83449 0.42283 0.26169 0.0
H592 H 0.79925 0.41966 0.2903 0.0
H593 H 0.89787 0.27985 0.29269 0.0
H594 H 0.9106 0.31365 0.26255 0.0
H595 H 0.91419 0.31927 0.31101 0.0
H596 H 0.93434 0.42283 0.21787 0.0
H597 H 0.94284 0.4316 0.33495 0.0
H598 H 0.85956 0.38607 0.21385 0.0
H599 H 0.88536 0.34944 0.21551 0.0
H600 H 0.89724 0.38635 0.18931 0.0
H601 H 0.86997 0.39691 0.35813 0.0
H602 H 0.91068 0.39992 0.37516 0.0
H603 H 0.8953 0.35991 0.35725 0.0
C604 C 0.1822 0.31469 0.78002 0.0
C605 C 0.21229 0.33088 0.77756 0.0
C606 C 0.15398 0.33378 0.78644 0.0
C607 C 0.1559 0.36991 0.79007 0.0
C608 C 0.18629 0.38627 0.78805 0.0
C609 C 0.21405 0.36659 0.78188 0.0
C610 C 0.12204 0.3154 0.78862 0.0
C611 C 0.1894 0.42475 0.79122 0.0
C612 C 0.08517 0.42528 0.76218 0.0
C613 C 0.07319 0.43677 0.79611 0.0
C614 C 0.11137 0.40276 0.76 0.0
C615 C 0.12607 0.39107 0.79256 0.0
C616 C 0.1135 0.40152 0.827 0.0
C617 C 0.08721 0.42436 0.8284 0.0
C618 C 0.12405 0.39247 0.7227 0.0
C619 C 0.12842 0.38933 0.8623 0.0
H620 H 0.18077 0.28707 0.77713 0.0
H621 H 0.23718 0.3793 0.77958 0.0
H622 H 0.10915 0.32295 0.81405 0.0
H623 H 0.10661 0.32292 0.76518 0.0
H624 H 0.1249 0.28709 0.78815 0.0
H625 H 0.21493 0.43331 0.7912 0.0
H626 H 0.17678 0.43706 0.76794 0.0
H627 H 0.17778 0.43405 0.81678 0.0
H628 H 0.07448 0.43446 0.73698 0.0
H629 H 0.07808 0.43297 0.85471 0.0
H630 H 0.12512 0.36415 0.7202 0.0
H631 H 0.14895 0.40229 0.71925 0.0
H632 H 0.10894 0.40251 0.70003 0.0
H633 H 0.13045 0.36098 0.86209 0.0
H634 H 0.11424 0.3974 0.88669 0.0
H635 H 0.15317 0.39981 0.86497 0.0
C636 C 0.19045 0.68127 0.32266 0.0
C637 C 0.20828 0.68691 0.29053 0.0
C638 C 0.16317 0.65981 0.32252 0.0
C639 C 0.15396 0.64275 0.28976 0.0
C640 C 0.17163 0.64849 0.25725 0.0
C641 C 0.19803 0.67093 0.25787 0.0
C642 C 0.14438 0.65513 0.35752 0.0
C643 C 0.16304 0.6304 0.22181 0.0
C644 C 0.10607 0.55974 0.29413 0.0
C645 C 0.07582 0.57035 0.28166 0.0
C646 C 0.13162 0.58318 0.29754 0.0
C647 C 0.12639 0.6182 0.28933 0.0
C648 C 0.09534 0.62917 0.27819 0.0
C649 C 0.07054 0.60493 0.2738 0.0
C650 C 0.16453 0.57019 0.30836 0.0
C651 C 0.08848 0.66637 0.27023 0.0
H652 H 0.19807 0.69313 0.34816 0.0
H653 H 0.21071 0.67583 0.23252 0.0
H654 H 0.11843 0.66033 0.35266 0.0
H655 H 0.14641 0.62821 0.36677 0.0
H656 H 0.15306 0.67225 0.37989 0.0
H657 H 0.17983 0.63684 0.1992 0.0
H658 H 0.16345 0.60224 0.22583 0.0
H659 H 0.13825 0.63739 0.21331 0.0
H660 H 0.11004 0.53283 0.29984 0.0
H661 H 0.047 0.61296 0.2642 0.0
H662 H 0.17361 0.58453 0.33259 0.0
H663 H 0.18179 0.57457 0.28566 0.0
H664 H 0.16436 0.54242 0.31484 0.0
H665 H 0.09697 0.68279 0.29325 0.0
H666 H 0.0624 0.67122 0.26574 0.0
H667 H 0.1018 0.67432 0.24538 0.0
C668 C 0.72651 0.79875 0.70926 0.0
C669 C 0.73855 0.76591 0.70146 0.0
C670 C 0.72612 0.82442 0.6825 0.0
C671 C 0.73769 0.81701 0.64682 0.0
C672 C 0.74923 0.78365 0.63853 0.0
C673 C 0.7498 0.75858 0.66605 0.0
C674 C 0.71423 0.85978 0.69275 0.0
C675 C 0.7614 0.7746 0.60072 0.0
C676 C 0.71555 0.8796 0.57083 0.0
C677 C 0.74378 0.89921 0.56823 0.0
C678 C 0.71335 0.8523 0.59578 0.0
C679 C 0.73979 0.84486 0.61906 0.0
C680 C 0.76823 0.86471 0.6166 0.0
C681 C 0.76995 0.89136 0.59111 0.0
C682 C 0.68278 0.83142 0.59727 0.0
C683 C 0.79678 0.85812 0.6413 0.0
H684 H 0.71813 0.80465 0.73672 0.0
H685 H 0.75886 0.73314 0.65984 0.0
H686 H 0.73418 0.87855 0.69013 0.0
H687 H 0.69482 0.86785 0.67377 0.0
H688 H 0.70486 0.86101 0.72124 0.0
H689 H 0.76742 0.74696 0.59797 0.0
H690 H 0.743 0.78118 0.57984 0.0
H691 H 0.78329 0.78982 0.59456 0.0
H692 H 0.69529 0.88539 0.55316 0.0
H693 H 0.79181 0.90648 0.58955 0.0
H694 H 0.67171 0.83379 0.62483 0.0
H695 H 0.68837 0.8039 0.59274 0.0
H696 H 0.66486 0.83963 0.57647 0.0
H697 H 0.78947 0.86095 0.6704 0.0
H698 H 0.81711 0.87592 0.63596 0.0
H699 H 0.80547 0.83146 0.63746 0.0
C700 C 0.70842 0.29477 0.20005 0.0
C701 C 0.69989 0.28755 0.23638 0.0
C702 C 0.68484 0.29863 0.17283 0.0
C703 C 0.65189 0.29528 0.18212 0.0
C704 C 0.64305 0.28925 0.21899 0.0
C705 C 0.66717 0.28532 0.24567 0.0
C706 C 0.6953 0.30473 0.13379 0.0
C707 C 0.60816 0.28574 0.23002 0.0
C708 C 0.58995 0.32409 0.11157 0.0
C709 C 0.58229 0.29292 0.09424 0.0
C710 C 0.61212 0.32529 0.14077 0.0
C711 C 0.62704 0.29466 0.15267 0.0
C712 C 0.61908 0.26314 0.13554 0.0
C713 C 0.5968 0.26266 0.1067 0.0
C714 C 0.61991 0.35933 0.15857 0.0
C715 C 0.63455 0.2299 0.14724 0.0
H716 H 0.73366 0.29611 0.19259 0.0
H717 H 0.66046 0.28017 0.27379 0.0
H718 H 0.6892 0.28202 0.11667 0.0
H719 H 0.68226 0.32697 0.12219 0.0
H720 H 0.72162 0.3095 0.1316 0.0
H721 H 0.60517 0.28436 0.26022 0.0
H722 H 0.59394 0.3077 0.21963 0.0
H723 H 0.5979 0.26212 0.21756 0.0
H724 H 0.5788 0.34756 0.1022 0.0
H725 H 0.5911 0.2384 0.09357 0.0
H726 H 0.64575 0.36547 0.15442 0.0
H727 H 0.61581 0.35796 0.18856 0.0
H728 H 0.60516 0.38055 0.1473 0.0
H729 H 0.66102 0.23135 0.14328 0.0
H730 H 0.62524 0.20748 0.13156 0.0
H731 H 0.63019 0.22552 0.17682 0.0
C732 C 0.254 0.21237 0.70844 0.0
C733 C 0.27393 0.24125 0.70659 0.0
C734 C 0.25626 0.18599 0.68214 0.0
C735 C 0.27839 0.18904 0.65276 0.0
C736 C 0.29827 0.21847 0.65057 0.0
C737 C 0.29611 0.24402 0.67782 0.0
C738 C 0.23509 0.15474 0.68592 0.0
C739 C 0.32149 0.2232 0.6192 0.0
C740 C 0.30132 0.10769 0.60035 0.0
C741 C 0.27877 0.10786 0.57178 0.0
C742 C 0.30183 0.13419 0.62674 0.0
C743 C 0.27988 0.1619 0.62377 0.0
C744 C 0.25819 0.16293 0.59383 0.0
C745 C 0.25757 0.13566 0.56857 0.0
C746 C 0.32483 0.13176 0.65868 0.0
C747 C 0.23504 0.19241 0.58896 0.0
H748 H 0.23712 0.21012 0.73095 0.0
H749 H 0.31146 0.26645 0.67643 0.0
H750 H 0.21862 0.15268 0.66206 0.0
H751 H 0.25014 0.13123 0.68616 0.0
H752 H 0.22038 0.15552 0.71133 0.0
H753 H 0.3351 0.24765 0.62139 0.0
H754 H 0.33895 0.20169 0.61831 0.0
H755 H 0.30815 0.22287 0.59284 0.0
H756 H 0.31747 0.08602 0.60309 0.0
H757 H 0.24021 0.13591 0.54634 0.0
H758 H 0.31096 0.12953 0.68454 0.0
H759 H 0.33959 0.15538 0.66087 0.0
H760 H 0.34122 0.10936 0.65626 0.0
H761 H 0.2172 0.19258 0.61157 0.0
H762 H 0.22181 0.19083 0.56252 0.0
H763 H 0.2482 0.21715 0.59019 0.0
C764 C 0.34901 0.71796 0.24627 0.0
C765 C 0.31623 0.7154 0.23728 0.0
C766 C 0.3729 0.71417 0.21928 0.0
C767 C 0.36373 0.70809 0.1824 0.0
C768 C 0.33072 0.70433 0.17343 0.0
C769 C 0.3074 0.70793 0.20098 0.0
C770 C 0.40786 0.71801 0.22999 0.0
C771 C 0.31989 0.69827 0.1344 0.0
C772 C 0.41755 0.74243 0.10733 0.0
C773 C 0.43233 0.71256 0.09378 0.0
C774 C 0.39555 0.74124 0.13636 0.0
C775 C 0.38821 0.7094 0.15264 0.0
C776 C 0.40338 0.67914 0.13962 0.0
C777 C 0.42519 0.68105 0.11017 0.0
C778 C 0.37973 0.77408 0.14916 0.0
C779 C 0.3963 0.64479 0.15655 0.0
H780 H 0.35594 0.72334 0.27438 0.0
H781 H 0.28209 0.70629 0.1938 0.0
H782 H 0.42225 0.69643 0.21869 0.0
H783 H 0.41767 0.74198 0.21823 0.0
H784 H 0.41117 0.71895 0.26019 0.0
H785 H 0.29362 0.69301 0.13246 0.0
H786 H 0.3254 0.7212 0.11773 0.0
H787 H 0.33315 0.67636 0.12211 0.0
H788 H 0.42279 0.76694 0.09488 0.0
H789 H 0.43656 0.65788 0.09996 0.0
H790 H 0.38448 0.7783 0.17876 0.0
H791 H 0.35322 0.77218 0.14563 0.0
H792 H 0.38843 0.79681 0.1339 0.0
H793 H 0.40081 0.6459 0.18651 0.0
H794 H 0.41118 0.62394 0.14445 0.0
H795 H 0.37049 0.63829 0.15264 0.0
C796 C 0.72191 0.21038 0.3607 0.0
C797 C 0.74613 0.2132 0.3342 0.0
C798 C 0.71939 0.18094 0.3825 0.0
C799 C 0.74105 0.15334 0.37684 0.0
C800 C 0.76514 0.15591 0.34947 0.0
C801 C 0.76766 0.18603 0.32882 0.0
C802 C 0.694 0.17966 0.41205 0.0
C803 C 0.78828 0.12683 0.34201 0.0
C804 C 0.7603 0.09034 0.45256 0.0
C805 C 0.74095 0.0622 0.44309 0.0
C806 C 0.7595 0.12062 0.43212 0.0
C807 C 0.73965 0.12243 0.40062 0.0
C808 C 0.71968 0.09418 0.39119 0.0
C809 C 0.72019 0.06451 0.41295 0.0
C810 C 0.78041 0.15043 0.44386 0.0
C811 C 0.69879 0.09479 0.35733 0.0
H812 H 0.70529 0.23151 0.36475 0.0
H813 H 0.78615 0.18819 0.30798 0.0
H814 H 0.67811 0.15713 0.40776 0.0
H815 H 0.7057 0.17662 0.43919 0.0
H816 H 0.67887 0.20314 0.41274 0.0
H817 H 0.80417 0.13198 0.31819 0.0
H818 H 0.80363 0.12246 0.36643 0.0
H819 H 0.77472 0.10279 0.33665 0.0
H820 H 0.7762 0.08861 0.47609 0.0
H821 H 0.70545 0.0426 0.40548 0.0
H822 H 0.7658 0.17418 0.44581 0.0
H823 H 0.79941 0.15487 0.42307 0.0
H824 H 0.79224 0.14598 0.47073 0.0
H825 H 0.68262 0.11741 0.35797 0.0
H826 H 0.68387 0.07128 0.35446 0.0
H827 H 0.71423 0.09717 0.33266 0.0
C828 C 0.35817 0.31066 0.79293 0.0
C829 C 0.32746 0.30637 0.80819 0.0
C830 C 0.38551 0.31398 0.81539 0.0
C831 C 0.38201 0.31248 0.85394 0.0
C832 C 0.35091 0.30934 0.86947 0.0
C833 C 0.32401 0.30645 0.8464 0.0
C834 C 0.41824 0.31767 0.79786 0.0
C835 C 0.34617 0.30715 0.91042 0.0
C836 C 0.44904 0.27431 0.91081 0.0
C837 C 0.46171 0.30321 0.92888 0.0
C838 C 0.42376 0.27723 0.88565 0.0
C839 C 0.41088 0.30994 0.87793 0.0
C840 C 0.42432 0.33945 0.89486 0.0
C841 C 0.44955 0.33574 0.92034 0.0
C842 C 0.41002 0.24505 0.8684 0.0
C843 C 0.4114 0.37477 0.88689 0.0
H844 H 0.36083 0.31103 0.76339 0.0
H845 H 0.30033 0.30282 0.85829 0.0
H846 H 0.43189 0.3389 0.81102 0.0
H847 H 0.43232 0.29383 0.80191 0.0
H848 H 0.41651 0.32263 0.76798 0.0
H849 H 0.3203 0.30764 0.9182 0.0
H850 H 0.35695 0.28301 0.92066 0.0
H851 H 0.35863 0.32868 0.92449 0.0
H852 H 0.45827 0.24903 0.91703 0.0
H853 H 0.45925 0.3582 0.93407 0.0
H854 H 0.4102 0.24711 0.83811 0.0
H855 H 0.38457 0.2418 0.877 0.0
H856 H 0.42365 0.22171 0.87623 0.0
H857 H 0.41023 0.37895 0.85688 0.0
H858 H 0.42639 0.39527 0.89952 0.0
H859 H 0.38649 0.37709 0.89763 0.0
C860 C 0.28007 0.82217 0.31991 0.0
C861 C 0.26976 0.79117 0.33526 0.0
C862 C 0.28215 0.85227 0.34113 0.0
C863 C 0.27387 0.85141 0.37874 0.0
C864 C 0.2638 0.8201 0.39452 0.0
C865 C 0.2617 0.79041 0.37255 0.0
C866 C 0.29254 0.88517 0.32309 0.0
C867 C 0.25492 0.81805 0.43455 0.0
C868 C 0.30119 0.92507 0.44091 0.0
C869 C 0.27296 0.94472 0.44349 0.0
C870 C 0.3019 0.89456 0.42002 0.0
C871 C 0.27385 0.88368 0.40098 0.0
C872 C 0.24551 0.90375 0.40305 0.0
C873 C 0.24538 0.93382 0.42433 0.0
C874 C 0.33252 0.87374 0.41864 0.0
C875 C 0.21519 0.89338 0.38289 0.0
H876 H 0.28595 0.82305 0.291 0.0
H877 H 0.25404 0.76646 0.38464 0.0
H878 H 0.27263 0.90412 0.32435 0.0
H879 H 0.31334 0.89646 0.33798 0.0
H880 H 0.29941 0.88126 0.29394 0.0
H881 H 0.24914 0.79147 0.44305 0.0
H882 H 0.27504 0.82779 0.45175 0.0
H883 H 0.2337 0.83455 0.44016 0.0
H884 H 0.32254 0.93319 0.45573 0.0
H885 H 0.22347 0.94887 0.42592 0.0
H886 H 0.34066 0.87074 0.38986 0.0
H887 H 0.32794 0.84765 0.42937 0.0
H888 H 0.35227 0.88567 0.43487 0.0
H889 H 0.22018 0.8909 0.35312 0.0
H890 H 0.19532 0.91213 0.38682 0.0
H891 H 0.20689 0.86797 0.39253 0.0
C892 C 0.68777 0.70676 0.844 0.0
C893 C 0.68467 0.70598 0.80575 0.0
C894 C 0.66066 0.70402 0.86672 0.0
C895 C 0.62971 0.70022 0.8508 0.0
C896 C 0.62656 0.69813 0.81222 0.0
C897 C 0.65408 0.70123 0.79013 0.0
C898 C 0.66501 0.70675 0.90774 0.0
C899 C 0.59402 0.69378 0.79425 0.0
C900 C 0.56211 0.67514 0.91582 0.0
C901 C 0.54923 0.70733 0.92491 0.0
C902 C 0.58764 0.67214 0.89064 0.0
C903 C 0.60057 0.70203 0.87443 0.0
C904 C 0.5868 0.73436 0.88246 0.0
C905 C 0.56129 0.73658 0.90742 0.0
C906 C 0.60154 0.6372 0.88239 0.0
C907 C 0.59986 0.76689 0.86584 0.0
H908 H 0.71133 0.7107 0.85618 0.0
H909 H 0.65168 0.70013 0.76056 0.0
H910 H 0.65344 0.7306 0.91798 0.0
H911 H 0.65305 0.68494 0.92152 0.0
H912 H 0.69082 0.70715 0.91586 0.0
H913 H 0.59601 0.68914 0.76427 0.0
H914 H 0.58082 0.67208 0.80674 0.0
H915 H 0.57936 0.71719 0.7988 0.0
H916 H 0.55294 0.65242 0.92917 0.0
H917 H 0.55141 0.76159 0.914 0.0
H918 H 0.62634 0.63557 0.89364 0.0
H919 H 0.60326 0.63305 0.85235 0.0
H920 H 0.58688 0.61627 0.89438 0.0
H921 H 0.62509 0.77097 0.87501 0.0
H922 H 0.58547 0.78981 0.87364 0.0
H923 H 0.60019 0.76472 0.83553 0.0
loop_
_geom_bond_atom_site_label_1
_geom_bond_atom_site_label_2
_geom_bond_distance
_geom_bond_site_symmetry_2
_ccdc_geom_bond_type
H0 C3 0.931 . S
H1 C6 0.928 . S
H2 C8 0.930 . S
C3 H0 0.931 . S
C3 C4 1.413 . S
C3 C5 1.360 . S
C4 C3 1.413 . S
C4 C8 1.429 . S
C5 C3 1.360 . S
C5 C6 1.372 . S
C6 H1 0.928 . S
C6 C5 1.372 . S
C6 C7 1.404 . S
C7 C6 1.404 . S
C7 C8 1.391 . S
C8 H2 0.930 . S
C8 C4 1.429 . S
C8 C7 1.391 . S
H9 C12 0.931 . S
H10 C15 0.928 . S
H11 C17 0.930 . S
C12 H9 0.931 . S
C12 C13 1.413 . S
C12 C14 1.360 . S
C13 C12 1.413 . S
C13 C17 1.429 . S
C14 C12 1.360 . S
C14 C15 1.372 . S
C15 H10 0.928 . S
C15 C14 1.372 . S
C15 C16 1.404 . S
C16 C15 1.404 . S
C16 C17 1.391 . S
C17 H11 0.930 . S
C17 C13 1.429 . S
C17 C16 1.391 . S
H18 C21 0.931 . S
H19 C24 0.928 . S
H20 C26 0.930 . S
C21 H18 0.931 . S
C21 C22 1.413 . S
C21 C23 1.360 . S
C22 C21 1.413 . S
C22 C26 1.429 . S
C23 C21 1.360 . S
C23 C24 1.372 . S
C24 H19 0.928 . S
C24 C23 1.372 . S
C24 C25 1.404 . S
C25 C24 1.404 . S
C25 C26 1.391 . S
C26 H20 0.930 . S
C26 C22 1.429 . S
C26 C25 1.391 . S
H27 C30 0.931 . S
H28 C33 0.928 . S
H29 C35 0.930 . S
C30 H27 0.931 . S
C30 C31 1.413 . S
C30 C32 1.360 . S
C31 C30 1.413 . S
C31 C35 1.429 . S
C32 C30 1.360 . S
C32 C33 1.372 . S
C33 H28 0.928 . S
C33 C32 1.372 . S
C33 C34 1.404 . S
C34 C33 1.404 . S
C34 C35 1.391 . S
C35 H29 0.930 . S
C35 C31 1.429 . S
C35 C34 1.391 . S
H36 C39 0.931 . S
H37 C42 0.928 . S
H38 C44 0.930 . S
C39 H36 0.931 . S
C39 C40 1.413 . S
C39 C41 1.360 . S
C40 C39 1.413 . S
C40 C44 1.429 . S
C41 C39 1.360 . S
C41 C42 1.372 . S
C42 H37 0.928 . S
C42 C41 1.372 . S
C42 C43 1.404 . S
C43 C42 1.404 . S
C43 C44 1.391 . S
C44 H38 0.930 . S
C44 C40 1.429 . S
C44 C43 1.391 . S
H45 C48 0.931 . S
H46 C51 0.928 . S
H47 C53 0.930 . S
C48 H45 0.931 . S
C48 C49 1.413 . S
C48 C50 1.360 . S
C49 C48 1.413 . S
C49 C53 1.429 . S
C50 C48 1.360 . S
C50 C51 1.372 . S
C51 H46 0.928 . S
C51 C50 1.372 . S
C51 C52 1.404 . S
C52 C51 1.404 . S
C52 C53 1.391 . S
C53 H47 0.930 . S
C53 C49 1.429 . S
C53 C52 1.391 . S
H54 C57 0.931 . S
H55 C60 0.928 . S
H56 C62 0.930 . S
C57 H54 0.931 . S
C57 C58 1.413 . S
C57 C59 1.360 . S
C58 C57 1.413 . S
C58 C62 1.429 . S
C59 C57 1.360 . S
C59 C60 1.372 . S
C60 H55 0.928 . S
C60 C59 1.372 . S
C60 C61 1.404 . S
C61 C60 1.404 . S
C61 C62 1.391 . S
C62 H56 0.930 . S
C62 C58 1.429 . S
C62 C61 1.391 . S
H63 C66 0.931 . S
H64 C69 0.928 . S
H65 C71 0.930 . S
C66 H63 0.931 . S
C66 C67 1.413 . S
C66 C68 1.360 . S
C67 C66 1.413 . S
C67 C71 1.429 . S
C68 C66 1.360 . S
C68 C69 1.372 . S
C69 H64 0.928 . S
C69 C68 1.372 . S
C69 C70 1.404 . S
C70 C69 1.404 . S
C70 C71 1.391 . S
C71 H65 0.930 . S
C71 C67 1.429 . S
C71 C70 1.391 . S
C72 O74 1.247 . S
C72 O76 1.258 . S
C73 O80 1.247 . S
C73 O81 1.258 . S
O74 C72 1.247 . S
O74 Zn75 2.028 1_655 S
Zn75 O74 2.028 1_455 S
Zn75 O79 2.035 . S
Zn75 O81 2.035 . S
Zn75 O82 2.028 1_455 S
O76 C72 1.258 . S
O76 Zn77 2.035 1_655 S
Zn77 O76 2.035 1_455 S
Zn77 O78 2.028 . S
Zn77 O80 2.028 . S
Zn77 O83 2.035 1_455 S
O78 Zn77 2.028 . S
O78 C84 1.247 . S
O79 Zn75 2.035 . S
O79 C84 1.258 . S
O80 C73 1.247 . S
O80 Zn77 2.028 . S
O81 C73 1.258 . S
O81 Zn75 2.035 . S
O82 Zn75 2.028 1_655 S
O82 C85 1.247 . S
O83 Zn77 2.035 1_655 S
O83 C85 1.258 . S
C84 O78 1.247 . S
C84 O79 1.258 . S
C85 O82 1.247 . S
C85 O83 1.258 . S
C86 O88 1.247 . S
C86 O90 1.258 . S
C87 O94 1.247 . S
C87 O95 1.258 . S
O88 C86 1.247 . S
O88 Zn89 2.028 1_655 S
Zn89 O88 2.028 1_455 S
Zn89 O93 2.035 . S
Zn89 O95 2.035 . S
Zn89 O96 2.028 1_455 S
O90 C86 1.258 . S
O90 Zn91 2.035 1_655 S
Zn91 O90 2.035 1_455 S
Zn91 O92 2.028 . S
Zn91 O94 2.028 . S
Zn91 O97 2.035 1_455 S
O92 Zn91 2.028 . S
O92 C98 1.247 . S
O93 Zn89 2.035 . S
O93 C98 1.258 . S
O94 C87 1.247 . S
O94 Zn91 2.028 . S
O95 C87 1.258 . S
O95 Zn89 2.035 . S
O96 Zn89 2.028 1_655 S
O96 C99 1.247 . S
O97 Zn91 2.035 1_655 S
O97 C99 1.258 . S
C98 O92 1.247 . S
C98 O93 1.258 . S
C99 O96 1.247 . S
C99 O97 1.258 . S
C100 O102 1.247 . S
C100 O104 1.258 . S
C101 O108 1.247 . S
C101 O109 1.258 . S
O102 C100 1.247 . S
O102 Zn103 2.024 1_565 S
Zn103 O102 2.024 1_545 S
Zn103 O107 2.039 . S
Zn103 O109 2.039 . S
Zn103 O110 2.024 1_545 S
O104 C100 1.258 . S
O104 Zn105 2.015 1_565 S
Zn105 O104 2.015 1_545 S
Zn105 O106 2.047 . S
Zn105 O108 2.048 . S
Zn105 O111 2.016 1_545 S
O106 Zn105 2.047 . S
O106 C112 1.247 . S
O107 Zn103 2.039 . S
O107 C112 1.258 . S
O108 C101 1.247 . S
O108 Zn105 2.048 . S
O109 C101 1.258 . S
O109 Zn103 2.039 . S
O110 Zn103 2.024 1_565 S
O110 C113 1.247 . S
O111 Zn105 2.016 1_565 S
O111 C113 1.258 . S
C112 O106 1.247 . S
C112 O107 1.258 . S
C113 O110 1.247 . S
C113 O111 1.258 . S
C114 O116 1.247 . S
C114 O118 1.258 . S
C115 O122 1.247 . S
C115 O123 1.258 . S
O116 C114 1.247 . S
O116 Zn117 2.026 . S
Zn117 O116 2.026 . S
Zn117 O121 2.033 . S
Zn117 O123 2.037 1_554 S
Zn117 O124 2.030 1_554 S
O118 C114 1.258 . S
O118 Zn119 2.047 . S
Zn119 O118 2.047 . S
Zn119 O120 2.040 . S
Zn119 O122 2.016 1_554 S
Zn119 O125 2.023 1_554 S
O120 Zn119 2.040 . S
O120 C126 1.247 . S
O121 Zn117 2.033 . S
O121 C126 1.258 . S
O122 C115 1.247 . S
O122 Zn119 2.016 1_556 S
O123 C115 1.258 . S
O123 Zn117 2.037 1_556 S
O124 Zn117 2.030 1_556 S
O124 C127 1.247 . S
O125 Zn119 2.023 1_556 S
O125 C127 1.258 . S
C126 O120 1.247 . S
C126 O121 1.258 . S
C127 O124 1.247 . S
C127 O125 1.258 . S
C128 O130 1.247 . S
C128 O132 1.258 . S
C129 O136 1.247 . S
C129 O137 1.258 . S
O130 C128 1.247 . S
O130 Zn131 2.027 . S
Zn131 O130 2.027 . S
Zn131 O135 2.036 1_565 S
Zn131 O137 2.036 1_565 S
Zn131 O138 2.027 . S
O132 C128 1.258 . S
O132 Zn133 2.024 1_565 S
Zn133 O132 2.024 1_545 S
Zn133 O134 2.039 . S
Zn133 O136 2.039 . S
Zn133 O139 2.024 1_545 S
O134 Zn133 2.039 . S
O134 C140 1.247 . S
O135 Zn131 2.036 1_545 S
O135 C140 1.258 . S
O136 C129 1.247 . S
O136 Zn133 2.039 . S
O137 C129 1.258 . S
O137 Zn131 2.036 1_545 S
O138 Zn131 2.027 . S
O138 C141 1.247 . S
O139 Zn133 2.024 1_565 S
O139 C141 1.258 . S
C140 O134 1.247 . S
C140 O135 1.258 . S
C141 O138 1.247 . S
C141 O139 1.258 . S
C142 O144 1.247 . S
C142 O146 1.258 . S
C143 O150 1.247 . S
C143 O151 1.258 . S
O144 C142 1.247 . S
O144 Zn145 2.028 . S
Zn145 O144 2.028 . S
Zn145 O149 2.035 . S
Zn145 O151 2.035 1_554 S
Zn145 O152 2.028 1_554 S
O146 C142 1.258 . S
O146 Zn147 2.035 . S
Zn147 O146 2.035 . S
Zn147 O148 2.028 . S
Zn147 O150 2.028 1_554 S
Zn147 O153 2.035 1_554 S
O148 Zn147 2.028 . S
O148 C154 1.247 . S
O149 Zn145 2.035 . S
O149 C154 1.258 . S
O150 C143 1.247 . S
O150 Zn147 2.028 1_556 S
O151 C143 1.258 . S
O151 Zn145 2.035 1_556 S
O152 Zn145 2.028 1_556 S
O152 C155 1.247 . S
O153 Zn147 2.035 1_556 S
O153 C155 1.258 . S
C154 O148 1.247 . S
C154 O149 1.258 . S
C155 O152 1.247 . S
C155 O153 1.258 . S
C156 C157 1.391 . S
C156 C158 1.394 . S
C156 H172 0.931 . S
C157 C156 1.391 . S
C157 C161 1.376 . S
C158 C156 1.394 . S
C158 C159 1.369 . S
C158 C162 1.531 . S
C159 C158 1.369 . S
C159 C160 1.410 . S
C159 C167 1.503 . S
C160 C159 1.410 . S
C160 C161 1.392 . S
C160 C163 1.511 . S
C161 C157 1.376 . S
C161 C160 1.392 . S
C161 H173 0.929 . S
C162 C158 1.531 . S
C162 H174 0.960 . S
C162 H175 0.962 . S
C162 H176 0.960 . S
C163 C160 1.511 . S
C163 H177 0.961 . S
C163 H178 0.961 . S
C163 H179 0.961 . S
C164 C165 1.370 . S
C164 C166 1.363 . S
C164 H180 0.931 . S
C165 C164 1.370 . S
C165 C169 1.408 . S
C166 C164 1.363 . S
C166 C167 1.370 . S
C166 C170 1.524 . S
C167 C159 1.503 . S
C167 C166 1.370 . S
C167 C168 1.403 . S
C168 C167 1.403 . S
C168 C169 1.404 . S
C168 C171 1.539 . S
C169 C165 1.408 . S
C169 C168 1.404 . S
C169 H181 0.930 . S
C170 C166 1.524 . S
C170 H182 0.956 . S
C170 H183 0.961 . S
C170 H184 0.961 . S
C171 C168 1.539 . S
C171 H185 0.958 . S
C171 H186 0.961 . S
C171 H187 0.960 . S
H172 C156 0.931 . S
H173 C161 0.929 . S
H174 C162 0.960 . S
H175 C162 0.962 . S
H176 C162 0.960 . S
H177 C163 0.961 . S
H178 C163 0.961 . S
H179 C163 0.961 . S
H180 C164 0.931 . S
H181 C169 0.930 . S
H182 C170 0.956 . S
H183 C170 0.961 . S
H184 C170 0.961 . S
H185 C171 0.958 . S
H186 C171 0.961 . S
H187 C171 0.960 . S
C188 C189 1.391 . S
C188 C190 1.394 . S
C188 H204 0.931 . S
C189 C188 1.391 . S
C189 C193 1.376 . S
C190 C188 1.394 . S
C190 C191 1.369 . S
C190 C194 1.531 . S
C191 C190 1.369 . S
C191 C192 1.410 . S
C191 C199 1.503 . S
C192 C191 1.410 . S
C192 C193 1.392 . S
C192 C195 1.511 . S
C193 C189 1.376 . S
C193 C192 1.392 . S
C193 H205 0.929 . S
C194 C190 1.531 . S
C194 H206 0.960 . S
C194 H207 0.962 . S
C194 H208 0.960 . S
C195 C192 1.511 . S
C195 H209 0.961 . S
C195 H210 0.961 . S
C195 H211 0.961 . S
C196 C197 1.370 . S
C196 C198 1.363 . S
C196 H212 0.931 . S
C197 C196 1.370 . S
C197 C201 1.408 . S
C198 C196 1.363 . S
C198 C199 1.370 . S
C198 C202 1.524 . S
C199 C191 1.503 . S
C199 C198 1.370 . S
C199 C200 1.403 . S
C200 C199 1.403 . S
C200 C201 1.404 . S
C200 C203 1.539 . S
C201 C197 1.408 . S
C201 C200 1.404 . S
C201 H213 0.930 . S
C202 C198 1.524 . S
C202 H214 0.956 . S
C202 H215 0.961 . S
C202 H216 0.961 . S
C203 C200 1.539 . S
C203 H217 0.958 . S
C203 H218 0.961 . S
C203 H219 0.960 . S
H204 C188 0.931 . S
H205 C193 0.929 . S
H206 C194 0.960 . S
H207 C194 0.962 . S
H208 C194 0.960 . S
H209 C195 0.961 . S
H210 C195 0.961 . S
H211 C195 0.961 . S
H212 C196 0.931 . S
H213 C201 0.930 . S
H214 C202 0.956 . S
H215 C202 0.961 . S
H216 C202 0.961 . S
H217 C203 0.958 . S
H218 C203 0.961 . S
H219 C203 0.960 . S
C220 C221 1.391 . S
C220 C222 1.394 . S
C220 H236 0.931 . S
C221 C220 1.391 . S
C221 C225 1.376 . S
C222 C220 1.394 . S
C222 C223 1.369 . S
C222 C226 1.531 . S
C223 C222 1.369 . S
C223 C224 1.410 . S
C223 C231 1.503 . S
C224 C223 1.410 . S
C224 C225 1.392 . S
C224 C227 1.511 . S
C225 C221 1.376 . S
C225 C224 1.392 . S
C225 H237 0.929 . S
C226 C222 1.531 . S
C226 H238 0.960 . S
C226 H239 0.962 . S
C226 H240 0.960 . S
C227 C224 1.511 . S
C227 H241 0.961 . S
C227 H242 0.961 . S
C227 H243 0.961 . S
C228 C229 1.370 . S
C228 C230 1.363 . S
C228 H244 0.931 . S
C229 C228 1.370 . S
C229 C233 1.408 . S
C230 C228 1.363 . S
C230 C231 1.370 . S
C230 C234 1.524 . S
C231 C223 1.503 . S
C231 C230 1.370 . S
C231 C232 1.403 . S
C232 C231 1.403 . S
C232 C233 1.404 . S
C232 C235 1.539 . S
C233 C229 1.408 . S
C233 C232 1.404 . S
C233 H245 0.930 . S
C234 C230 1.524 . S
C234 H246 0.956 . S
C234 H247 0.961 . S
C234 H248 0.961 . S
C235 C232 1.539 . S
C235 H249 0.958 . S
C235 H250 0.961 . S
C235 H251 0.960 . S
H236 C220 0.931 . S
H237 C225 0.929 . S
H238 C226 0.960 . S
H239 C226 0.962 . S
H240 C226 0.960 . S
H241 C227 0.961 . S
H242 C227 0.961 . S
H243 C227 0.961 . S
H244 C228 0.931 . S
H245 C233 0.930 . S
H246 C234 0.956 . S
H247 C234 0.961 . S
H248 C234 0.961 . S
H249 C235 0.958 . S
H250 C235 0.961 . S
H251 C235 0.960 . S
C252 C253 1.391 . S
C252 C254 1.394 . S
C252 H268 0.931 . S
C253 C252 1.391 . S
C253 C257 1.376 . S
C254 C252 1.394 . S
C254 C255 1.369 . S
C254 C258 1.531 . S
C255 C254 1.369 . S
C255 C256 1.410 . S
C255 C263 1.503 . S
C256 C255 1.410 . S
C256 C257 1.392 . S
C256 C259 1.511 . S
C257 C253 1.376 . S
C257 C256 1.392 . S
C257 H269 0.929 . S
C258 C254 1.531 . S
C258 H270 0.960 . S
C258 H271 0.962 . S
C258 H272 0.960 . S
C259 C256 1.511 . S
C259 H273 0.961 . S
C259 H274 0.961 . S
C259 H275 0.961 . S
C260 C261 1.370 . S
C260 C262 1.363 . S
C260 H276 0.931 . S
C261 C260 1.370 . S
C261 C265 1.408 . S
C262 C260 1.363 . S
C262 C263 1.370 . S
C262 C266 1.524 . S
C263 C255 1.503 . S
C263 C262 1.370 . S
C263 C264 1.403 . S
C264 C263 1.403 . S
C264 C265 1.404 . S
C264 C267 1.539 . S
C265 C261 1.408 . S
C265 C264 1.404 . S
C265 H277 0.930 . S
C266 C262 1.524 . S
C266 H278 0.956 . S
C266 H279 0.961 . S
C266 H280 0.961 . S
C267 C264 1.539 . S
C267 H281 0.958 . S
C267 H282 0.961 . S
C267 H283 0.960 . S
H268 C252 0.931 . S
H269 C257 0.929 . S
H270 C258 0.960 . S
H271 C258 0.962 . S
H272 C258 0.960 . S
H273 C259 0.961 . S
H274 C259 0.961 . S
H275 C259 0.961 . S
H276 C260 0.931 . S
H277 C265 0.930 . S
H278 C266 0.956 . S
H279 C266 0.961 . S
H280 C266 0.961 . S
H281 C267 0.958 . S
H282 C267 0.961 . S
H283 C267 0.960 . S
C284 C285 1.391 . S
C284 C286 1.394 . S
C284 H300 0.931 . S
C285 C284 1.391 . S
C285 C289 1.376 . S
C286 C284 1.394 . S
C286 C287 1.369 . S
C286 C290 1.531 . S
C287 C286 1.369 . S
C287 C288 1.410 . S
C287 C295 1.503 . S
C288 C287 1.410 . S
C288 C289 1.392 . S
C288 C291 1.511 . S
C289 C285 1.376 . S
C289 C288 1.392 . S
C289 H301 0.929 . S
C290 C286 1.531 . S
C290 H302 0.960 . S
C290 H303 0.962 . S
C290 H304 0.960 . S
C291 C288 1.511 . S
C291 H305 0.961 . S
C291 H306 0.961 . S
C291 H307 0.961 . S
C292 C293 1.370 . S
C292 C294 1.363 . S
C292 H308 0.931 . S
C293 C292 1.370 . S
C293 C297 1.408 . S
C294 C292 1.363 . S
C294 C295 1.370 . S
C294 C298 1.524 . S
C295 C287 1.503 . S
C295 C294 1.370 . S
C295 C296 1.403 . S
C296 C295 1.403 . S
C296 C297 1.404 . S
C296 C299 1.539 . S
C297 C293 1.408 . S
C297 C296 1.404 . S
C297 H309 0.930 . S
C298 C294 1.524 . S
C298 H310 0.956 . S
C298 H311 0.961 . S
C298 H312 0.961 . S
C299 C296 1.539 . S
C299 H313 0.958 . S
C299 H314 0.961 . S
C299 H315 0.960 . S
H300 C284 0.931 . S
H301 C289 0.929 . S
H302 C290 0.960 . S
H303 C290 0.962 . S
H304 C290 0.960 . S
H305 C291 0.961 . S
H306 C291 0.961 . S
H307 C291 0.961 . S
H308 C292 0.931 . S
H309 C297 0.930 . S
H310 C298 0.956 . S
H311 C298 0.961 . S
H312 C298 0.961 . S
H313 C299 0.958 . S
H314 C299 0.961 . S
H315 C299 0.960 . S
C316 C317 1.391 . S
C316 C318 1.394 . S
C316 H332 0.931 . S
C317 C316 1.391 . S
C317 C321 1.376 . S
C318 C316 1.394 . S
C318 C319 1.369 . S
C318 C322 1.531 . S
C319 C318 1.369 . S
C319 C320 1.410 . S
C319 C327 1.503 . S
C320 C319 1.410 . S
C320 C321 1.392 . S
C320 C323 1.511 . S
C321 C317 1.376 . S
C321 C320 1.392 . S
C321 H333 0.929 . S
C322 C318 1.531 . S
C322 H334 0.960 . S
C322 H335 0.962 . S
C322 H336 0.960 . S
C323 C320 1.511 . S
C323 H337 0.961 . S
C323 H338 0.961 . S
C323 H339 0.961 . S
C324 C325 1.370 . S
C324 C326 1.363 . S
C324 H340 0.931 . S
C325 C324 1.370 . S
C325 C329 1.408 . S
C326 C324 1.363 . S
C326 C327 1.370 . S
C326 C330 1.524 . S
C327 C319 1.503 . S
C327 C326 1.370 . S
C327 C328 1.403 . S
C328 C327 1.403 . S
C328 C329 1.404 . S
C328 C331 1.539 . S
C329 C325 1.408 . S
C329 C328 1.404 . S
C329 H341 0.930 . S
C330 C326 1.524 . S
C330 H342 0.956 . S
C330 H343 0.961 . S
C330 H344 0.961 . S
C331 C328 1.539 . S
C331 H345 0.958 . S
C331 H346 0.961 . S
C331 H347 0.960 . S
H332 C316 0.931 . S
H333 C321 0.929 . S
H334 C322 0.960 . S
H335 C322 0.962 . S
H336 C322 0.960 . S
H337 C323 0.961 . S
H338 C323 0.961 . S
H339 C323 0.961 . S
H340 C324 0.931 . S
H341 C329 0.930 . S
H342 C330 0.956 . S
H343 C330 0.961 . S
H344 C330 0.961 . S
H345 C331 0.958 . S
H346 C331 0.961 . S
H347 C331 0.960 . S
C348 C349 1.391 . S
C348 C350 1.394 . S
C348 H364 0.931 . S
C349 C348 1.391 . S
C349 C353 1.376 . S
C350 C348 1.394 . S
C350 C351 1.369 . S
C350 C354 1.531 . S
C351 C350 1.369 . S
C351 C352 1.410 . S
C351 C359 1.503 . S
C352 C351 1.410 . S
C352 C353 1.392 . S
C352 C355 1.511 . S
C353 C349 1.376 . S
C353 C352 1.392 . S
C353 H365 0.929 . S
C354 C350 1.531 . S
C354 H366 0.960 . S
C354 H367 0.962 . S
C354 H368 0.960 . S
C355 C352 1.511 . S
C355 H369 0.961 . S
C355 H370 0.961 . S
C355 H371 0.961 . S
C356 C357 1.370 . S
C356 C358 1.363 . S
C356 H372 0.931 . S
C357 C356 1.370 . S
C357 C361 1.408 . S
C358 C356 1.363 . S
C358 C359 1.370 . S
C358 C362 1.524 . S
C359 C351 1.503 . S
C359 C358 1.370 . S
C359 C360 1.403 . S
C360 C359 1.403 . S
C360 C361 1.404 . S
C360 C363 1.539 . S
C361 C357 1.408 . S
C361 C360 1.404 . S
C361 H373 0.930 . S
C362 C358 1.524 . S
C362 H374 0.956 . S
C362 H375 0.961 . S
C362 H376 0.961 . S
C363 C360 1.539 . S
C363 H377 0.958 . S
C363 H378 0.961 . S
C363 H379 0.960 . S
H364 C348 0.931 . S
H365 C353 0.929 . S
H366 C354 0.960 . S
H367 C354 0.962 . S
H368 C354 0.960 . S
H369 C355 0.961 . S
H370 C355 0.961 . S
H371 C355 0.961 . S
H372 C356 0.931 . S
H373 C361 0.930 . S
H374 C362 0.956 . S
H375 C362 0.961 . S
H376 C362 0.961 . S
H377 C363 0.958 . S
H378 C363 0.961 . S
H379 C363 0.960 . S
C380 C381 1.391 . S
C380 C382 1.394 . S
C380 H396 0.931 . S
C381 C380 1.391 . S
C381 C385 1.376 . S
C382 C380 1.394 . S
C382 C383 1.369 . S
C382 C386 1.531 . S
C383 C382 1.369 . S
C383 C384 1.410 . S
C383 C391 1.503 . S
C384 C383 1.410 . S
C384 C385 1.392 . S
C384 C387 1.511 . S
C385 C381 1.376 . S
C385 C384 1.392 . S
C385 H397 0.929 . S
C386 C382 1.531 . S
C386 H398 0.960 . S
C386 H399 0.962 . S
C386 H400 0.960 . S
C387 C384 1.511 . S
C387 H401 0.961 . S
C387 H402 0.961 . S
C387 H403 0.961 . S
C388 C389 1.370 . S
C388 C390 1.363 . S
C388 H404 0.931 . S
C389 C388 1.370 . S
C389 C393 1.408 . S
C390 C388 1.363 . S
C390 C391 1.370 . S
C390 C394 1.524 . S
C391 C383 1.503 . S
C391 C390 1.370 . S
C391 C392 1.403 . S
C392 C391 1.403 . S
C392 C393 1.404 . S
C392 C395 1.539 . S
C393 C389 1.408 . S
C393 C392 1.404 . S
C393 H405 0.930 . S
C394 C390 1.524 . S
C394 H406 0.956 . S
C394 H407 0.961 . S
C394 H408 0.961 . S
C395 C392 1.539 . S
C395 H409 0.958 . S
C395 H410 0.961 . S
C395 H411 0.960 . S
H396 C380 0.931 . S
H397 C385 0.929 . S
H398 C386 0.960 . S
H399 C386 0.962 . S
H400 C386 0.960 . S
H401 C387 0.961 . S
H402 C387 0.961 . S
H403 C387 0.961 . S
H404 C388 0.931 . S
H405 C393 0.930 . S
H406 C394 0.956 . S
H407 C394 0.961 . S
H408 C394 0.961 . S
H409 C395 0.958 . S
H410 C395 0.961 . S
H411 C395 0.960 . S
C412 C413 1.391 . S
C412 C414 1.394 . S
C412 H428 0.931 . S
C413 C412 1.391 . S
C413 C417 1.376 . S
C414 C412 1.394 . S
C414 C415 1.369 . S
C414 C418 1.531 . S
C415 C414 1.369 . S
C415 C416 1.410 . S
C415 C423 1.503 . S
C416 C415 1.410 . S
C416 C417 1.392 . S
C416 C419 1.511 . S
C417 C413 1.376 . S
C417 C416 1.392 . S
C417 H429 0.929 . S
C418 C414 1.531 . S
C418 H430 0.960 . S
C418 H431 0.962 . S
C418 H432 0.960 . S
C419 C416 1.511 . S
C419 H433 0.961 . S
C419 H434 0.961 . S
C419 H435 0.961 . S
C420 C421 1.370 . S
C420 C422 1.363 . S
C420 H436 0.931 . S
C421 C420 1.370 . S
C421 C425 1.408 . S
C422 C420 1.363 . S
C422 C423 1.370 . S
C422 C426 1.524 . S
C423 C415 1.503 . S
C423 C422 1.370 . S
C423 C424 1.403 . S
C424 C423 1.403 . S
C424 C425 1.404 . S
C424 C427 1.539 . S
C425 C421 1.408 . S
C425 C424 1.404 . S
C425 H437 0.930 . S
C426 C422 1.524 . S
C426 H438 0.956 . S
C426 H439 0.961 . S
C426 H440 0.961 . S
C427 C424 1.539 . S
C427 H441 0.958 . S
C427 H442 0.961 . S
C427 H443 0.960 . S
H428 C412 0.931 . S
H429 C417 0.929 . S
H430 C418 0.960 . S
H431 C418 0.962 . S
H432 C418 0.960 . S
H433 C419 0.961 . S
H434 C419 0.961 . S
H435 C419 0.961 . S
H436 C420 0.931 . S
H437 C425 0.930 . S
H438 C426 0.956 . S
H439 C426 0.961 . S
H440 C426 0.961 . S
H441 C427 0.958 . S
H442 C427 0.961 . S
H443 C427 0.960 . S
C444 C445 1.391 . S
C444 C446 1.394 . S
C444 H460 0.931 . S
C445 C444 1.391 . S
C445 C449 1.376 . S
C446 C444 1.394 . S
C446 C447 1.369 . S
C446 C450 1.531 . S
C447 C446 1.369 . S
C447 C448 1.410 . S
C447 C455 1.503 . S
C448 C447 1.410 . S
C448 C449 1.392 . S
C448 C451 1.511 . S
C449 C445 1.376 . S
C449 C448 1.392 . S
C449 H461 0.929 . S
C450 C446 1.531 . S
C450 H462 0.960 . S
C450 H463 0.962 . S
C450 H464 0.960 . S
C451 C448 1.511 . S
C451 H465 0.961 . S
C451 H466 0.961 . S
C451 H467 0.961 . S
C452 C453 1.370 . S
C452 C454 1.363 . S
C452 H468 0.931 . S
C453 C452 1.370 . S
C453 C457 1.408 . S
C454 C452 1.363 . S
C454 C455 1.370 . S
C454 C458 1.524 . S
C455 C447 1.503 . S
C455 C454 1.370 . S
C455 C456 1.403 . S
C456 C455 1.403 . S
C456 C457 1.404 . S
C456 C459 1.539 . S
C457 C453 1.408 . S
C457 C456 1.404 . S
C457 H469 0.930 . S
C458 C454 1.524 . S
C458 H470 0.956 . S
C458 H471 0.961 . S
C458 H472 0.961 . S
C459 C456 1.539 . S
C459 H473 0.958 . S
C459 H474 0.961 . S
C459 H475 0.960 . S
H460 C444 0.931 . S
H461 C449 0.929 . S
H462 C450 0.960 . S
H463 C450 0.962 . S
H464 C450 0.960 . S
H465 C451 0.961 . S
H466 C451 0.961 . S
H467 C451 0.961 . S
H468 C452 0.931 . S
H469 C457 0.930 . S
H470 C458 0.956 . S
H471 C458 0.961 . S
H472 C458 0.961 . S
H473 C459 0.958 . S
H474 C459 0.961 . S
H475 C459 0.960 . S
C476 C477 1.391 . S
C476 C478 1.394 . S
C476 H492 0.931 . S
C477 C476 1.391 . S
C477 C481 1.376 . S
C478 C476 1.394 . S
C478 C479 1.369 . S
C478 C482 1.531 . S
C479 C478 1.369 . S
C479 C480 1.410 . S
C479 C487 1.503 . S
C480 C479 1.410 . S
C480 C481 1.392 . S
C480 C483 1.511 . S
C481 C477 1.376 . S
C481 C480 1.392 . S
C481 H493 0.929 . S
C482 C478 1.531 . S
C482 H494 0.960 . S
C482 H495 0.962 . S
C482 H496 0.960 . S
C483 C480 1.511 . S
C483 H497 0.961 . S
C483 H498 0.961 . S
C483 H499 0.961 . S
C484 C485 1.370 . S
C484 C486 1.363 . S
C484 H500 0.931 . S
C485 C484 1.370 . S
C485 C489 1.408 . S
C486 C484 1.363 . S
C486 C487 1.370 . S
C486 C490 1.524 . S
C487 C479 1.503 . S
C487 C486 1.370 . S
C487 C488 1.403 . S
C488 C487 1.403 . S
C488 C489 1.404 . S
C488 C491 1.539 . S
C489 C485 1.408 . S
C489 C488 1.404 . S
C489 H501 0.930 . S
C490 C486 1.524 . S
C490 H502 0.956 . S
C490 H503 0.961 . S
C490 H504 0.961 . S
C491 C488 1.539 . S
C491 H505 0.958 . S
C491 H506 0.961 . S
C491 H507 0.960 . S
H492 C476 0.931 . S
H493 C481 0.929 . S
H494 C482 0.960 . S
H495 C482 0.962 . S
H496 C482 0.960 . S
H497 C483 0.961 . S
H498 C483 0.961 . S
H499 C483 0.961 . S
H500 C484 0.931 . S
H501 C489 0.930 . S
H502 C490 0.956 . S
H503 C490 0.961 . S
H504 C490 0.961 . S
H505 C491 0.958 . S
H506 C491 0.961 . S
H507 C491 0.960 . S
C508 C509 1.391 . S
C508 C510 1.394 . S
C508 H524 0.931 . S
C509 C508 1.391 . S
C509 C513 1.376 . S
C510 C508 1.394 . S
C510 C511 1.369 . S
C510 C514 1.531 . S
C511 C510 1.369 . S
C511 C512 1.410 . S
C511 C519 1.503 . S
C512 C511 1.410 . S
C512 C513 1.392 . S
C512 C515 1.511 . S
C513 C509 1.376 . S
C513 C512 1.392 . S
C513 H525 0.929 . S
C514 C510 1.531 . S
C514 H526 0.960 . S
C514 H527 0.962 . S
C514 H528 0.960 . S
C515 C512 1.511 . S
C515 H529 0.961 . S
C515 H530 0.961 . S
C515 H531 0.961 . S
C516 C517 1.370 . S
C516 C518 1.363 . S
C516 H532 0.931 . S
C517 C516 1.370 . S
C517 C521 1.408 . S
C518 C516 1.363 . S
C518 C519 1.370 . S
C518 C522 1.524 . S
C519 C511 1.503 . S
C519 C518 1.370 . S
C519 C520 1.403 . S
C520 C519 1.403 . S
C520 C521 1.404 . S
C520 C523 1.539 . S
C521 C517 1.408 . S
C521 C520 1.404 . S
C521 H533 0.930 . S
C522 C518 1.524 . S
C522 H534 0.956 . S
C522 H535 0.961 . S
C522 H536 0.961 . S
C523 C520 1.539 . S
C523 H537 0.958 . S
C523 H538 0.961 . S
C523 H539 0.960 . S
H524 C508 0.931 . S
H525 C513 0.929 . S
H526 C514 0.960 . S
H527 C514 0.962 . S
H528 C514 0.960 . S
H529 C515 0.961 . S
H530 C515 0.961 . S
H531 C515 0.961 . S
H532 C516 0.931 . S
H533 C521 0.930 . S
H534 C522 0.956 . S
H535 C522 0.961 . S
H536 C522 0.961 . S
H537 C523 0.958 . S
H538 C523 0.961 . S
H539 C523 0.960 . S
C540 C541 1.391 . S
C540 C542 1.394 . S
C540 H556 0.931 . S
C541 C540 1.391 . S
C541 C545 1.376 . S
C542 C540 1.394 . S
C542 C543 1.369 . S
C542 C546 1.531 . S
C543 C542 1.369 . S
C543 C544 1.410 . S
C543 C551 1.503 . S
C544 C543 1.410 . S
C544 C545 1.392 . S
C544 C547 1.511 . S
C545 C541 1.376 . S
C545 C544 1.392 . S
C545 H557 0.929 . S
C546 C542 1.531 . S
C546 H558 0.960 . S
C546 H559 0.962 . S
C546 H560 0.960 . S
C547 C544 1.511 . S
C547 H561 0.961 . S
C547 H562 0.961 . S
C547 H563 0.961 . S
C548 C549 1.370 . S
C548 C550 1.363 . S
C548 H564 0.931 . S
C549 C548 1.370 . S
C549 C553 1.408 . S
C550 C548 1.363 . S
C550 C551 1.370 . S
C550 C554 1.524 . S
C551 C543 1.503 . S
C551 C550 1.370 . S
C551 C552 1.403 . S
C552 C551 1.403 . S
C552 C553 1.404 . S
C552 C555 1.539 . S
C553 C549 1.408 . S
C553 C552 1.404 . S
C553 H565 0.930 . S
C554 C550 1.524 . S
C554 H566 0.956 . S
C554 H567 0.961 . S
C554 H568 0.961 . S
C555 C552 1.539 . S
C555 H569 0.958 . S
C555 H570 0.961 . S
C555 H571 0.960 . S
H556 C540 0.931 . S
H557 C545 0.929 . S
H558 C546 0.960 . S
H559 C546 0.962 . S
H560 C546 0.960 . S
H561 C547 0.961 . S
H562 C547 0.961 . S
H563 C547 0.961 . S
H564 C548 0.931 . S
H565 C553 0.930 . S
H566 C554 0.956 . S
H567 C554 0.961 . S
H568 C554 0.961 . S
H569 C555 0.958 . S
H570 C555 0.961 . S
H571 C555 0.960 . S
C572 C573 1.391 . S
C572 C574 1.394 . S
C572 H588 0.931 . S
C573 C572 1.391 . S
C573 C577 1.376 . S
C574 C572 1.394 . S
C574 C575 1.369 . S
C574 C578 1.531 . S
C575 C574 1.369 . S
C575 C576 1.410 . S
C575 C583 1.503 . S
C576 C575 1.410 . S
C576 C577 1.392 . S
C576 C579 1.511 . S
C577 C573 1.376 . S
C577 C576 1.392 . S
C577 H589 0.929 . S
C578 C574 1.531 . S
C578 H590 0.960 . S
C578 H591 0.962 . S
C578 H592 0.960 . S
C579 C576 1.511 . S
C579 H593 0.961 . S
C579 H594 0.961 . S
C579 H595 0.961 . S
C580 C581 1.370 . S
C580 C582 1.363 . S
C580 H596 0.931 . S
C581 C580 1.370 . S
C581 C585 1.408 . S
C582 C580 1.363 . S
C582 C583 1.370 . S
C582 C586 1.524 . S
C583 C575 1.503 . S
C583 C582 1.370 . S
C583 C584 1.403 . S
C584 C583 1.403 . S
C584 C585 1.404 . S
C584 C587 1.539 . S
C585 C581 1.408 . S
C585 C584 1.404 . S
C585 H597 0.930 . S
C586 C582 1.524 . S
C586 H598 0.956 . S
C586 H599 0.961 . S
C586 H600 0.961 . S
C587 C584 1.539 . S
C587 H601 0.958 . S
C587 H602 0.961 . S
C587 H603 0.960 . S
H588 C572 0.931 . S
H589 C577 0.929 . S
H590 C578 0.960 . S
H591 C578 0.962 . S
H592 C578 0.960 . S
H593 C579 0.961 . S
H594 C579 0.961 . S
H595 C579 0.961 . S
H596 C580 0.931 . S
H597 C585 0.930 . S
H598 C586 0.956 . S
H599 C586 0.961 . S
H600 C586 0.961 . S
H601 C587 0.958 . S
H602 C587 0.961 . S
H603 C587 0.960 . S
C604 C605 1.391 . S
C604 C606 1.394 . S
C604 H620 0.931 . S
C605 C604 1.391 . S
C605 C609 1.376 . S
C606 C604 1.394 . S
C606 C607 1.369 . S
C606 C610 1.531 . S
C607 C606 1.369 . S
C607 C608 1.410 . S
C607 C615 1.503 . S
C608 C607 1.410 . S
C608 C609 1.392 . S
C608 C611 1.511 . S
C609 C605 1.376 . S
C609 C608 1.392 . S
C609 H621 0.929 . S
C610 C606 1.531 . S
C610 H622 0.960 . S
C610 H623 0.962 . S
C610 H624 0.960 . S
C611 C608 1.511 . S
C611 H625 0.961 . S
C611 H626 0.961 . S
C611 H627 0.961 . S
C612 C613 1.370 . S
C612 C614 1.363 . S
C612 H628 0.931 . S
C613 C612 1.370 . S
C613 C617 1.408 . S
C614 C612 1.363 . S
C614 C615 1.370 . S
C614 C618 1.524 . S
C615 C607 1.503 . S
C615 C614 1.370 . S
C615 C616 1.403 . S
C616 C615 1.403 . S
C616 C617 1.404 . S
C616 C619 1.539 . S
C617 C613 1.408 . S
C617 C616 1.404 . S
C617 H629 0.930 . S
C618 C614 1.524 . S
C618 H630 0.956 . S
C618 H631 0.961 . S
C618 H632 0.961 . S
C619 C616 1.539 . S
C619 H633 0.958 . S
C619 H634 0.961 . S
C619 H635 0.960 . S
H620 C604 0.931 . S
H621 C609 0.929 . S
H622 C610 0.960 . S
H623 C610 0.962 . S
H624 C610 0.960 . S
H625 C611 0.961 . S
H626 C611 0.961 . S
H627 C611 0.961 . S
H628 C612 0.931 . S
H629 C617 0.930 . S
H630 C618 0.956 . S
H631 C618 0.961 . S
H632 C618 0.961 . S
H633 C619 0.958 . S
H634 C619 0.961 . S
H635 C619 0.960 . S
C636 C637 1.391 . S
C636 C638 1.394 . S
C636 H652 0.931 . S
C637 C636 1.391 . S
C637 C641 1.376 . S
C638 C636 1.394 . S
C638 C639 1.369 . S
C638 C642 1.531 . S
C639 C638 1.369 . S
C639 C640 1.410 . S
C639 C647 1.503 . S
C640 C639 1.410 . S
C640 C641 1.392 . S
C640 C643 1.511 . S
C641 C637 1.376 . S
C641 C640 1.392 . S
C641 H653 0.929 . S
C642 C638 1.531 . S
C642 H654 0.960 . S
C642 H655 0.962 . S
C642 H656 0.960 . S
C643 C640 1.511 . S
C643 H657 0.961 . S
C643 H658 0.961 . S
C643 H659 0.961 . S
C644 C645 1.370 . S
C644 C646 1.363 . S
C644 H660 0.931 . S
C645 C644 1.370 . S
C645 C649 1.408 . S
C646 C644 1.363 . S
C646 C647 1.370 . S
C646 C650 1.524 . S
C647 C639 1.503 . S
C647 C646 1.370 . S
C647 C648 1.403 . S
C648 C647 1.403 . S
C648 C649 1.404 . S
C648 C651 1.539 . S
C649 C645 1.408 . S
C649 C648 1.404 . S
C649 H661 0.930 . S
C650 C646 1.524 . S
C650 H662 0.956 . S
C650 H663 0.961 . S
C650 H664 0.961 . S
C651 C648 1.539 . S
C651 H665 0.958 . S
C651 H666 0.961 . S
C651 H667 0.960 . S
H652 C636 0.931 . S
H653 C641 0.929 . S
H654 C642 0.960 . S
H655 C642 0.962 . S
H656 C642 0.960 . S
H657 C643 0.961 . S
H658 C643 0.961 . S
H659 C643 0.961 . S
H660 C644 0.931 . S
H661 C649 0.930 . S
H662 C650 0.956 . S
H663 C650 0.961 . S
H664 C650 0.961 . S
H665 C651 0.958 . S
H666 C651 0.961 . S
H667 C651 0.960 . S
C668 C669 1.391 . S
C668 C670 1.394 . S
C668 H684 0.931 . S
C669 C668 1.391 . S
C669 C673 1.376 . S
C670 C668 1.394 . S
C670 C671 1.369 . S
C670 C674 1.531 . S
C671 C670 1.369 . S
C671 C672 1.410 . S
C671 C679 1.503 . S
C672 C671 1.410 . S
C672 C673 1.392 . S
C672 C675 1.511 . S
C673 C669 1.376 . S
C673 C672 1.392 . S
C673 H685 0.929 . S
C674 C670 1.531 . S
C674 H686 0.960 . S
C674 H687 0.962 . S
C674 H688 0.960 . S
C675 C672 1.511 . S
C675 H689 0.961 . S
C675 H690 0.961 . S
C675 H691 0.961 . S
C676 C677 1.370 . S
C676 C678 1.363 . S
C676 H692 0.931 . S
C677 C676 1.370 . S
C677 C681 1.408 . S
C678 C676 1.363 . S
C678 C679 1.370 . S
C678 C682 1.524 . S
C679 C671 1.503 . S
C679 C678 1.370 . S
C679 C680 1.403 . S
C680 C679 1.403 . S
C680 C681 1.404 . S
C680 C683 1.539 . S
C681 C677 1.408 . S
C681 C680 1.404 . S
C681 H693 0.930 . S
C682 C678 1.524 . S
C682 H694 0.956 . S
C682 H695 0.961 . S
C682 H696 0.961 . S
C683 C680 1.539 . S
C683 H697 0.958 . S
C683 H698 0.961 . S
C683 H699 0.960 . S
H684 C668 0.931 . S
H685 C673 0.929 . S
H686 C674 0.960 . S
H687 C674 0.962 . S
H688 C674 0.960 . S
H689 C675 0.961 . S
H690 C675 0.961 . S
H691 C675 0.961 . S
H692 C676 0.931 . S
H693 C681 0.930 . S
H694 C682 0.956 . S
H695 C682 0.961 . S
H696 C682 0.961 . S
H697 C683 0.958 . S
H698 C683 0.961 . S
H699 C683 0.960 . S
C700 C701 1.391 . S
C700 C702 1.394 . S
C700 H716 0.931 . S
C701 C700 1.391 . S
C701 C705 1.376 . S
C702 C700 1.394 . S
C702 C703 1.369 . S
C702 C706 1.531 . S
C703 C702 1.369 . S
C703 C704 1.410 . S
C703 C711 1.503 . S
C704 C703 1.410 . S
C704 C705 1.392 . S
C704 C707 1.511 . S
C705 C701 1.376 . S
C705 C704 1.392 . S
C705 H717 0.929 . S
C706 C702 1.531 . S
C706 H718 0.960 . S
C706 H719 0.962 . S
C706 H720 0.960 . S
C707 C704 1.511 . S
C707 H721 0.961 . S
C707 H722 0.961 . S
C707 H723 0.961 . S
C708 C709 1.370 . S
C708 C710 1.363 . S
C708 H724 0.931 . S
C709 C708 1.370 . S
C709 C713 1.408 . S
C710 C708 1.363 . S
C710 C711 1.370 . S
C710 C714 1.524 . S
C711 C703 1.503 . S
C711 C710 1.370 . S
C711 C712 1.403 . S
C712 C711 1.403 . S
C712 C713 1.404 . S
C712 C715 1.539 . S
C713 C709 1.408 . S
C713 C712 1.404 . S
C713 H725 0.930 . S
C714 C710 1.524 . S
C714 H726 0.956 . S
C714 H727 0.961 . S
C714 H728 0.961 . S
C715 C712 1.539 . S
C715 H729 0.958 . S
C715 H730 0.961 . S
C715 H731 0.960 . S
H716 C700 0.931 . S
H717 C705 0.929 . S
H718 C706 0.960 . S
H719 C706 0.962 . S
H720 C706 0.960 . S
H721 C707 0.961 . S
H722 C707 0.961 . S
H723 C707 0.961 . S
H724 C708 0.931 . S
H725 C713 0.930 . S
H726 C714 0.956 . S
H727 C714 0.961 . S
H728 C714 0.961 . S
H729 C715 0.958 . S
H730 C715 0.961 . S
H731 C715 0.960 . S
C732 C733 1.391 . S
C732 C734 1.394 . S
C732 H748 0.931 . S
C733 C732 1.391 . S
C733 C737 1.376 . S
C734 C732 1.394 . S
C734 C735 1.369 . S
C734 C738 1.531 . S
C735 C734 1.369 . S
C735 C736 1.410 . S
C735 C743 1.503 . S
C736 C735 1.410 . S
C736 C737 1.392 . S
C736 C739 1.511 . S
C737 C733 1.376 . S
C737 C736 1.392 . S
C737 H749 0.929 . S
C738 C734 1.531 . S
C738 H750 0.960 . S
C738 H751 0.962 . S
C738 H752 0.960 . S
C739 C736 1.511 . S
C739 H753 0.961 . S
C739 H754 0.961 . S
C739 H755 0.961 . S
C740 C741 1.370 . S
C740 C742 1.363 . S
C740 H756 0.931 . S
C741 C740 1.370 . S
C741 C745 1.408 . S
C742 C740 1.363 . S
C742 C743 1.370 . S
C742 C746 1.524 . S
C743 C735 1.503 . S
C743 C742 1.370 . S
C743 C744 1.403 . S
C744 C743 1.403 . S
C744 C745 1.404 . S
C744 C747 1.539 . S
C745 C741 1.408 . S
C745 C744 1.404 . S
C745 H757 0.930 . S
C746 C742 1.524 . S
C746 H758 0.956 . S
C746 H759 0.961 . S
C746 H760 0.961 . S
C747 C744 1.539 . S
C747 H761 0.958 . S
C747 H762 0.961 . S
C747 H763 0.960 . S
H748 C732 0.931 . S
H749 C737 0.929 . S
H750 C738 0.960 . S
H751 C738 0.962 . S
H752 C738 0.960 . S
H753 C739 0.961 . S
H754 C739 0.961 . S
H755 C739 0.961 . S
H756 C740 0.931 . S
H757 C745 0.930 . S
H758 C746 0.956 . S
H759 C746 0.961 . S
H760 C746 0.961 . S
H761 C747 0.958 . S
H762 C747 0.961 . S
H763 C747 0.960 . S
C764 C765 1.391 . S
C764 C766 1.394 . S
C764 H780 0.931 . S
C765 C764 1.391 . S
C765 C769 1.376 . S
C766 C764 1.394 . S
C766 C767 1.369 . S
C766 C770 1.531 . S
C767 C766 1.369 . S
C767 C768 1.410 . S
C767 C775 1.503 . S
C768 C767 1.410 . S
C768 C769 1.392 . S
C768 C771 1.511 . S
C769 C765 1.376 . S
C769 C768 1.392 . S
C769 H781 0.929 . S
C770 C766 1.531 . S
C770 H782 0.960 . S
C770 H783 0.962 . S
C770 H784 0.960 . S
C771 C768 1.511 . S
C771 H785 0.961 . S
C771 H786 0.961 . S
C771 H787 0.961 . S
C772 C773 1.370 . S
C772 C774 1.363 . S
C772 H788 0.931 . S
C773 C772 1.370 . S
C773 C777 1.408 . S
C774 C772 1.363 . S
C774 C775 1.370 . S
C774 C778 1.524 . S
C775 C767 1.503 . S
C775 C774 1.370 . S
C775 C776 1.403 . S
C776 C775 1.403 . S
C776 C777 1.404 . S
C776 C779 1.539 . S
C777 C773 1.408 . S
C777 C776 1.404 . S
C777 H789 0.930 . S
C778 C774 1.524 . S
C778 H790 0.956 . S
C778 H791 0.961 . S
C778 H792 0.961 . S
C779 C776 1.539 . S
C779 H793 0.958 . S
C779 H794 0.961 . S
C779 H795 0.960 . S
H780 C764 0.931 . S
H781 C769 0.929 . S
H782 C770 0.960 . S
H783 C770 0.962 . S
H784 C770 0.960 . S
H785 C771 0.961 . S
H786 C771 0.961 . S
H787 C771 0.961 . S
H788 C772 0.931 . S
H789 C777 0.930 . S
H790 C778 0.956 . S
H791 C778 0.961 . S
H792 C778 0.961 . S
H793 C779 0.958 . S
H794 C779 0.961 . S
H795 C779 0.960 . S
C796 C797 1.391 . S
C796 C798 1.394 . S
C796 H812 0.931 . S
C797 C796 1.391 . S
C797 C801 1.376 . S
C798 C796 1.394 . S
C798 C799 1.369 . S
C798 C802 1.531 . S
C799 C798 1.369 . S
C799 C800 1.410 . S
C799 C807 1.503 . S
C800 C799 1.410 . S
C800 C801 1.392 . S
C800 C803 1.511 . S
C801 C797 1.376 . S
C801 C800 1.392 . S
C801 H813 0.929 . S
C802 C798 1.531 . S
C802 H814 0.960 . S
C802 H815 0.962 . S
C802 H816 0.960 . S
C803 C800 1.511 . S
C803 H817 0.961 . S
C803 H818 0.961 . S
C803 H819 0.961 . S
C804 C805 1.370 . S
C804 C806 1.363 . S
C804 H820 0.931 . S
C805 C804 1.370 . S
C805 C809 1.408 . S
C806 C804 1.363 . S
C806 C807 1.370 . S
C806 C810 1.524 . S
C807 C799 1.503 . S
C807 C806 1.370 . S
C807 C808 1.403 . S
C808 C807 1.403 . S
C808 C809 1.404 . S
C808 C811 1.539 . S
C809 C805 1.408 . S
C809 C808 1.404 . S
C809 H821 0.930 . S
C810 C806 1.524 . S
C810 H822 0.956 . S
C810 H823 0.961 . S
C810 H824 0.961 . S
C811 C808 1.539 . S
C811 H825 0.958 . S
C811 H826 0.961 . S
C811 H827 0.960 . S
H812 C796 0.931 . S
H813 C801 0.929 . S
H814 C802 0.960 . S
H815 C802 0.962 . S
H816 C802 0.960 . S
H817 C803 0.961 . S
H818 C803 0.961 . S
H819 C803 0.961 . S
H820 C804 0.931 . S
H821 C809 0.930 . S
H822 C810 0.956 . S
H823 C810 0.961 . S
H824 C810 0.961 . S
H825 C811 0.958 . S
H826 C811 0.961 . S
H827 C811 0.960 . S
C828 C829 1.391 . S
C828 C830 1.394 . S
C828 H844 0.931 . S
C829 C828 1.391 . S
C829 C833 1.376 . S
C830 C828 1.394 . S
C830 C831 1.369 . S
C830 C834 1.531 . S
C831 C830 1.369 . S
C831 C832 1.410 . S
C831 C839 1.503 . S
C832 C831 1.410 . S
C832 C833 1.392 . S
C832 C835 1.511 . S
C833 C829 1.376 . S
C833 C832 1.392 . S
C833 H845 0.929 . S
C834 C830 1.531 . S
C834 H846 0.960 . S
C834 H847 0.962 . S
C834 H848 0.960 . S
C835 C832 1.511 . S
C835 H849 0.961 . S
C835 H850 0.961 . S
C835 H851 0.961 . S
C836 C837 1.370 . S
C836 C838 1.363 . S
C836 H852 0.931 . S
C837 C836 1.370 . S
C837 C841 1.408 . S
C838 C836 1.363 . S
C838 C839 1.370 . S
C838 C842 1.524 . S
C839 C831 1.503 . S
C839 C838 1.370 . S
C839 C840 1.403 . S
C840 C839 1.403 . S
C840 C841 1.404 . S
C840 C843 1.539 . S
C841 C837 1.408 . S
C841 C840 1.404 . S
C841 H853 0.930 . S
C842 C838 1.524 . S
C842 H854 0.956 . S
C842 H855 0.961 . S
C842 H856 0.961 . S
C843 C840 1.539 . S
C843 H857 0.958 . S
C843 H858 0.961 . S
C843 H859 0.960 . S
H844 C828 0.931 . S
H845 C833 0.929 . S
H846 C834 0.960 . S
H847 C834 0.962 . S
H848 C834 0.960 . S
H849 C835 0.961 . S
H850 C835 0.961 . S
H851 C835 0.961 . S
H852 C836 0.931 . S
H853 C841 0.930 . S
H854 C842 0.956 . S
H855 C842 0.961 . S
H856 C842 0.961 . S
H857 C843 0.958 . S
H858 C843 0.961 . S
H859 C843 0.960 . S
C860 C861 1.391 . S
C860 C862 1.394 . S
C860 H876 0.931 . S
C861 C860 1.391 . S
C861 C865 1.376 . S
C862 C860 1.394 . S
C862 C863 1.369 . S
C862 C866 1.531 . S
C863 C862 1.369 . S
C863 C864 1.410 . S
C863 C871 1.503 . S
C864 C863 1.410 . S
C864 C865 1.392 . S
C864 C867 1.511 . S
C865 C861 1.376 . S
C865 C864 1.392 . S
C865 H877 0.929 . S
C866 C862 1.531 . S
C866 H878 0.960 . S
C866 H879 0.962 . S
C866 H880 0.960 . S
C867 C864 1.511 . S
C867 H881 0.961 . S
C867 H882 0.961 . S
C867 H883 0.961 . S
C868 C869 1.370 . S
C868 C870 1.363 . S
C868 H884 0.931 . S
C869 C868 1.370 . S
C869 C873 1.408 . S
C870 C868 1.363 . S
C870 C871 1.370 . S
C870 C874 1.524 . S
C871 C863 1.503 . S
C871 C870 1.370 . S
C871 C872 1.403 . S
C872 C871 1.403 . S
C872 C873 1.404 . S
C872 C875 1.539 . S
C873 C869 1.408 . S
C873 C872 1.404 . S
C873 H885 0.930 . S
C874 C870 1.524 . S
C874 H886 0.956 . S
C874 H887 0.961 . S
C874 H888 0.961 . S
C875 C872 1.539 . S
C875 H889 0.958 . S
C875 H890 0.961 . S
C875 H891 0.960 . S
H876 C860 0.931 . S
H877 C865 0.929 . S
H878 C866 0.960 . S
H879 C866 0.962 . S
H880 C866 0.960 . S
H881 C867 0.961 . S
H882 C867 0.961 . S
H883 C867 0.961 . S
H884 C868 0.931 . S
H885 C873 0.930 . S
H886 C874 0.956 . S
H887 C874 0.961 . S
H888 C874 0.961 . S
H889 C875 0.958 . S
H890 C875 0.961 . S
H891 C875 0.960 . S
C892 C893 1.391 . S
C892 C894 1.394 . S
C892 H908 0.931 . S
C893 C892 1.391 . S
C893 C897 1.376 . S
C894 C892 1.394 . S
C894 C895 1.369 . S
C894 C898 1.531 . S
C895 C894 1.369 . S
C895 C896 1.410 . S
C895 C903 1.503 . S
C896 C895 1.410 . S
C896 C897 1.392 . S
C896 C899 1.511 . S
C897 C893 1.376 . S
C897 C896 1.392 . S
C897 H909 0.929 . S
C898 C894 1.531 . S
C898 H910 0.960 . S
C898 H911 0.962 . S
C898 H912 0.960 . S
C899 C896 1.511 . S
C899 H913 0.961 . S
C899 H914 0.961 . S
C899 H915 0.961 . S
C900 C901 1.370 . S
C900 C902 1.363 . S
C900 H916 0.931 . S
C901 C900 1.370 . S
C901 C905 1.408 . S
C902 C900 1.363 . S
C902 C903 1.370 . S
C902 C906 1.524 . S
C903 C895 1.503 . S
C903 C902 1.370 . S
C903 C904 1.403 . S
C904 C903 1.403 . S
C904 C905 1.404 . S
C904 C907 1.539 . S
C905 C901 1.408 . S
C905 C904 1.404 . S
C905 H917 0.930 . S
C906 C902 1.524 . S
C906 H918 0.956 . S
C906 H919 0.961 . S
C906 H920 0.961 . S
C907 C904 1.539 . S
C907 H921 0.958 . S
C907 H922 0.961 . S
C907 H923 0.960 . S
H908 C892 0.931 . S
H909 C897 0.929 . S
H910 C898 0.960 . S
H911 C898 0.962 . S
H912 C898 0.960 . S
H913 C899 0.961 . S
H914 C899 0.961 . S
H915 C899 0.961 . S
H916 C900 0.931 . S
H917 C905 0.930 . S
H918 C906 0.956 . S
H919 C906 0.961 . S
H920 C906 0.961 . S
H921 C907 0.958 . S
H922 C907 0.961 . S
H923 C907 0.960 . S
C165 C84 1.500 . S
C157 C4 1.498 . S
C197 C87 1.501 . S
C189 C13 1.496 . S
C229 C85 1.503 . S
C221 C25 1.504 . S
C261 C86 1.502 . S
C253 C34 1.502 . S
C293 C101 1.492 . S
C285 C7 1.490 . S
C325 C115 1.503 . S
C317 C14 1.506 . S
C349 C23 1.498 . S
C357 C141 1.503 . S
C389 C155 1.508 . S
C381 C31 1.506 . S
C421 C100 1.497 . S
C413 C16 1.494 . S
C445 C22 1.506 . S
C453 C114 1.511 . S
C485 C140 1.499 . S
C477 C32 1.498 . S
C517 C154 1.507 . S
C509 C5 1.501 . S
C541 C43 1.506 . S
C549 C99 1.506 . S
C581 C72 1.505 . S
C573 C52 1.508 . S
C605 C58 1.496 . S
C613 C98 1.503 . S
C637 C68 1.500 . S
C645 C73 1.502 . S
C677 C128 1.508 . S
C669 C40 1.502 . S
C709 C142 1.501 . S
C701 C50 1.500 . S
C741 C112 1.501 . S
C733 C59 1.502 . S
C765 C70 1.495 . S
C773 C126 1.500 . S
C805 C129 1.507 . S
C797 C49 1.502 . S
C837 C143 1.499 . S
C829 C61 1.496 . S
C869 C113 1.501 . S
C861 C67 1.498 . S
C893 C41 1.501 . S
C901 C127 1.502 . S
