# Generated by pormake.
# Topology cml, (3,6)-cn, num edge types: 1
# Building blocks:
#     Node 0, Type 0, BuildingBlock: ESEHIV_clean_linker_0, # of connection points: 3
#     Node 1, Type 0, BuildingBlock: ESEHIV_clean_linker_0, # of connection points: 3
#     Node 2, Type 0, BuildingBlock: ESEHIV_clean_linker_0, # of connection points: 3
#     Node 3, Type 0, BuildingBlock: ESEHIV_clean_linker_0, # of connection points: 3
#     Node 4, Type 0, BuildingBlock: ESEHIV_clean_linker_0, # of connection points: 3
#     Node 5, Type 0, BuildingBlock: ESEHIV_clean_linker_0, # of connection points: 3
#     Node 6, Type 0, BuildingBlock: ESEHIV_clean_linker_0, # of connection points: 3
#     Node 7, Type 0, BuildingBlock: ESEHIV_clean_linker_0, # of connection points: 3
#     Node 8, Type 1, BuildingBlock: IZENUY_clean_sbu_0, # of connection points: 6
#     Node 9, Type 1, BuildingBlock: IZENUY_clean_sbu_0, # of connection points: 6
#     Node 10, Type 1, BuildingBlock: IZENUY_clean_sbu_0, # of connection points: 6
#     Node 11, Type 1, BuildingBlock: IZENUY_clean_sbu_0, # of connection points: 6
#     Edge 12, Type (0, 1), BuildingBlock: OJICUG_clean_linker_0, # of connection points: 2
#     Edge 13, Type (0, 1), BuildingBlock: OJICUG_clean_linker_0, # of connection points: 2
#     Edge 14, Type (0, 1), BuildingBlock: OJICUG_clean_linker_0, # of connection points: 2
#     Edge 15, Type (0, 1), BuildingBlock: OJICUG_clean_linker_0, # of connection points: 2
#     Edge 16, Type (0, 1), BuildingBlock: OJICUG_clean_linker_0, # of connection points: 2
#     Edge 17, Type (0, 1), BuildingBlock: OJICUG_clean_linker_0, # of connection points: 2
#     Edge 18, Type (0, 1), BuildingBlock: OJICUG_clean_linker_0, # of connection points: 2
#     Edge 19, Type (0, 1), BuildingBlock: OJICUG_clean_linker_0, # of connection points: 2
#     Edge 20, Type (0, 1), BuildingBlock: OJICUG_clean_linker_0, # of connection points: 2
#     Edge 21, Type (0, 1), BuildingBlock: OJICUG_clean_linker_0, # of connection points: 2
#     Edge 22, Type (0, 1), BuildingBlock: OJICUG_clean_linker_0, # of connection points: 2
#     Edge 23, Type (0, 1), BuildingBlock: OJICUG_clean_linker_0, # of connection points: 2
#     Edge 24, Type (0, 1), BuildingBlock: OJICUG_clean_linker_0, # of connection points: 2
#     Edge 25, Type (0, 1), BuildingBlock: OJICUG_clean_linker_0, # of connection points: 2
#     Edge 26, Type (0, 1), BuildingBlock: OJICUG_clean_linker_0, # of connection points: 2
#     Edge 27, Type (0, 1), BuildingBlock: OJICUG_clean_linker_0, # of connection points: 2
#     Edge 28, Type (0, 1), BuildingBlock: OJICUG_clean_linker_0, # of connection points: 2
#     Edge 29, Type (0, 1), BuildingBlock: OJICUG_clean_linker_0, # of connection points: 2
#     Edge 30, Type (0, 1), BuildingBlock: OJICUG_clean_linker_0, # of connection points: 2
#     Edge 31, Type (0, 1), BuildingBlock: OJICUG_clean_linker_0, # of connection points: 2
#     Edge 32, Type (0, 1), BuildingBlock: OJICUG_clean_linker_0, # of connection points: 2
#     Edge 33, Type (0, 1), BuildingBlock: OJICUG_clean_linker_0, # of connection points: 2
#     Edge 34, Type (0, 1), BuildingBlock: OJICUG_clean_linker_0, # of connection points: 2
#     Edge 35, Type (0, 1), BuildingBlock: OJICUG_clean_linker_0, # of connection points: 2
# Relax obj value: 0.055
# Max RMSD: 0.070
# Mean RMSD: 0.067
data_MOF--net-cml--node1-IZENUY_clean_sbu_0--node2-ESEHIV_clean_linker_0--edge1-OJICUG_clean_linker_0
_symmetry_space_group_name_H-M    P1
_symmetry_Int_Tables_number       1
_symmetry_cell_setting            triclinic
loop_
_symmetry_equiv_pos_as_xyz
'x, y, z'
_cell_length_a     23.834354
_cell_length_b     27.654243
_cell_length_c     25.711324
_cell_angle_alpha  90.013623
_cell_angle_beta   89.925173
_cell_angle_gamma 90.05788
loop_
_atom_site_label
_atom_site_type_symbol
_atom_site_fract_x
_atom_site_fract_y
_atom_site_fract_z
_atom_type_partial_charge
H0 H 0.36367 0.43327 0.04573 0.0
H1 H 0.25451 0.39899 0.91847 0.0
H2 H 0.25903 0.30717 0.05423 0.0
C3 C 0.33164 0.41034 0.02874 0.0
C4 C 0.31249 0.36992 0.05654 0.0
C5 C 0.31119 0.421 0.97896 0.0
C6 C 0.27156 0.39006 0.95631 0.0
C7 C 0.25234 0.34879 0.98301 0.0
C8 C 0.27339 0.33878 0.03316 0.0
H9 H 0.66222 0.56377 0.55583 0.0
H10 H 0.76824 0.5994 0.42659 0.0
H11 H 0.7552 0.69608 0.55848 0.0
C12 C 0.69293 0.58747 0.5379 0.0
C13 C 0.70864 0.62995 0.5636 0.0
C14 C 0.71311 0.57687 0.48805 0.0
C15 C 0.75143 0.60876 0.46439 0.0
C16 C 0.76806 0.65199 0.48944 0.0
C17 C 0.74514 0.66252 0.53891 0.0
H18 H 0.66165 0.44656 0.05513 0.0
H19 H 0.76319 0.31877 0.05914 0.0
H20 H 0.75848 0.40736 0.92077 0.0
C21 C 0.69212 0.42308 0.03658 0.0
C22 C 0.70903 0.43264 0.98542 0.0
C23 C 0.71089 0.3819 0.06302 0.0
C24 C 0.7481 0.35009 0.0381 0.0
C25 C 0.76655 0.35916 0.9868 0.0
C26 C 0.74616 0.40047 0.96065 0.0
H27 H 0.36412 0.58019 0.54352 0.0
H28 H 0.25602 0.61343 0.4152 0.0
H29 H 0.25759 0.70487 0.55147 0.0
C30 C 0.33206 0.60282 0.52622 0.0
C31 C 0.31196 0.64288 0.55401 0.0
C32 C 0.31238 0.59204 0.47618 0.0
C33 C 0.27251 0.62252 0.45322 0.0
C34 C 0.25218 0.6634 0.47996 0.0
C35 C 0.27267 0.67357 0.53034 0.0
H36 H 0.86381 0.93237 0.04388 0.0
H37 H 0.75562 0.8987 0.9157 0.0
H38 H 0.75753 0.80732 0.05193 0.0
C39 C 0.83178 0.90961 0.02663 0.0
C40 C 0.8118 0.86949 0.05444 0.0
C41 C 0.81201 0.9203 0.97661 0.0
C42 C 0.77219 0.88968 0.9537 0.0
C43 C 0.752 0.84874 0.98044 0.0
C44 C 0.77254 0.83866 0.03081 0.0
H45 H 0.16202 0.06585 0.55561 0.0
H46 H 0.25922 0.10512 0.42151 0.0
H47 H 0.26366 0.19379 0.55987 0.0
C48 C 0.19257 0.08936 0.53716 0.0
C49 C 0.2113 0.13057 0.56366 0.0
C50 C 0.2096 0.07983 0.48603 0.0
C51 C 0.24683 0.11202 0.46137 0.0
C52 C 0.2672 0.15334 0.48756 0.0
C53 C 0.24862 0.16243 0.53882 0.0
H54 H 0.16177 0.94863 0.05531 0.0
H55 H 0.25472 0.81649 0.05787 0.0
H56 H 0.26751 0.91305 0.92588 0.0
C57 C 0.19243 0.92496 0.03732 0.0
C58 C 0.21251 0.93556 0.98744 0.0
C59 C 0.20818 0.88253 0.06301 0.0
C60 C 0.24464 0.85001 0.03829 0.0
C61 C 0.26751 0.86054 0.9888 0.0
C62 C 0.25078 0.90371 0.96371 0.0
H63 H 0.86362 0.07909 0.54572 0.0
H64 H 0.75459 0.11288 0.41827 0.0
H65 H 0.7587 0.20481 0.55401 0.0
C66 C 0.83156 0.10188 0.52866 0.0
C67 C 0.81226 0.14225 0.55641 0.0
C68 C 0.81123 0.0911 0.47885 0.0
C69 C 0.77154 0.12188 0.45613 0.0
C70 C 0.75217 0.16311 0.4828 0.0
C71 C 0.77314 0.17323 0.53297 0.0
Fe72 Fe 1.003 0.79908 0.30825 0.0
Fe73 Fe 1.0023 0.85693 0.41085 0.0
O74 O 1.00244 0.85538 0.34184 0.0
Fe75 Fe 1.00332 0.91042 0.30654 0.0
O76 O 0.96272 0.88709 0.25184 0.0
O77 O 0.9385 0.81297 0.27338 0.0
O78 O 0.95927 0.76755 0.35681 0.0
C79 C 0.92834 0.78309 0.39339 0.0
C80 C 0.07784 0.85744 0.24909 0.0
O81 O 0.937 0.82374 0.41414 0.0
C82 C 0.07632 0.93035 0.3906 0.0
O83 O 0.06795 0.78088 0.33995 0.0
O84 O 0.04305 0.80162 0.41908 0.0
O85 O 0.06918 0.89491 0.27583 0.0
O86 O 0.04639 0.8207 0.25371 0.0
C87 C 0.92937 0.93385 0.38334 0.0
O88 O 0.0682 0.89025 0.41282 0.0
O89 O 0.04415 0.94424 0.35457 0.0
C90 C 0.07562 0.77954 0.38848 0.0
O91 O 0.96096 0.91247 0.41547 0.0
O92 O 0.93753 0.93008 0.33504 0.0
C93 C 0.93104 0.85072 0.24668 0.0
Fe94 Fe 1.00222 0.15585 0.91088 0.0
Fe95 Fe 0.00632 0.10211 0.80678 0.0
O96 O 0.00464 0.15709 0.84201 0.0
Fe97 Fe 0.00642 0.21341 0.80867 0.0
O98 O 0.07113 0.2306 0.84123 0.0
O99 O 0.04251 0.21156 0.91974 0.0
O100 O 0.06828 0.12303 0.91475 0.0
C101 C 0.07794 0.0833 0.89218 0.0
C102 C 0.92921 0.22967 0.89158 0.0
O103 O 0.04683 0.06889 0.85547 0.0
C104 C 0.93457 0.16198 0.7467 0.0
O105 O 0.96146 0.09998 0.91501 0.0
O106 O 0.94017 0.08184 0.8343 0.0
O107 O 0.96278 0.24538 0.85709 0.0
O108 O 0.93621 0.18843 0.91154 0.0
C109 C 0.0816 0.15516 0.75003 0.0
O110 O 0.96616 0.12553 0.75184 0.0
O111 O 0.94218 0.19988 0.77324 0.0
C112 C 0.93096 0.07808 0.88241 0.0
O113 O 0.07262 0.1178 0.77682 0.0
O114 O 0.05003 0.19178 0.75429 0.0
C115 C 0.07717 0.23231 0.88995 0.0
Fe116 Fe 0.50678 0.29898 0.30866 0.0
Fe117 Fe 0.50287 0.35659 0.41087 0.0
O118 O 0.50525 0.35532 0.342 0.0
Fe119 Fe 0.50711 0.41027 0.30676 0.0
O120 O 0.46683 0.38686 0.25183 0.0
O121 O 0.44255 0.31257 0.2733 0.0
O122 O 0.46309 0.26707 0.35714 0.0
C123 C 0.42965 0.28281 0.3917 0.0
C124 C 0.58209 0.35715 0.24993 0.0
O125 O 0.43677 0.32409 0.41158 0.0
C126 C 0.57879 0.42907 0.39218 0.0
O127 O 0.57145 0.28173 0.34115 0.0
O128 O 0.54302 0.30086 0.4197 0.0
O129 O 0.57334 0.3945 0.27679 0.0
O130 O 0.5504 0.32056 0.25423 0.0
C131 C 0.43185 0.43442 0.38238 0.0
O132 O 0.56902 0.38935 0.41471 0.0
O133 O 0.54776 0.44349 0.35544 0.0
C134 C 0.57751 0.27999 0.38986 0.0
O135 O 0.46226 0.41252 0.41501 0.0
O136 O 0.44105 0.43062 0.33428 0.0
C137 C 0.43509 0.35044 0.24674 0.0
Fe138 Fe 0.50161 0.65553 0.9108 0.0
Fe139 Fe 0.50265 0.60201 0.80648 0.0
O140 O 0.50188 0.65706 0.84179 0.0
Fe141 Fe 0.50271 0.71336 0.80822 0.0
O142 O 0.56764 0.73151 0.84006 0.0
O143 O 0.54247 0.71081 0.91912 0.0
O144 O 0.56742 0.62216 0.91287 0.0
C145 C 0.5755 0.58207 0.89059 0.0
C146 C 0.42787 0.72941 0.89319 0.0
O147 O 0.54331 0.56818 0.85454 0.0
C148 C 0.4307 0.66174 0.7465 0.0
O149 O 0.46014 0.60001 0.91534 0.0
O150 O 0.43676 0.58237 0.8349 0.0
O151 O 0.45895 0.74491 0.85669 0.0
O152 O 0.43639 0.68876 0.91398 0.0
C153 C 0.57749 0.65495 0.74919 0.0
O154 O 0.46222 0.62534 0.75173 0.0
O155 O 0.43824 0.69951 0.7732 0.0
C156 C 0.42854 0.57862 0.88319 0.0
O157 O 0.56862 0.61747 0.77586 0.0
O158 O 0.54616 0.69172 0.75376 0.0
C159 C 0.57522 0.73281 0.88861 0.0
C160 C 0.20927 0.30746 0.90544 0.0
C161 C 0.20863 0.31752 0.95913 0.0
H162 H 0.1682 0.27288 0.8413 0.0
C163 C 0.16468 0.29896 0.98961 0.0
H164 H 0.24297 0.32063 0.88094 0.0
C165 C 0.12229 0.27126 0.96701 0.0
C166 C 0.12249 0.26174 0.91326 0.0
H167 H 0.16225 0.30668 0.03085 0.0
H168 H 0.08892 0.25783 0.99175 0.0
C169 C 0.16653 0.28001 0.8827 0.0
C170 C 0.84452 0.7153 0.49473 0.0
C171 C 0.80886 0.6861 0.46422 0.0
H172 H 0.90896 0.76935 0.4962 0.0
C173 C 0.81301 0.68984 0.40957 0.0
H174 H 0.84437 0.7129 0.53672 0.0
C175 C 0.85213 0.72101 0.38642 0.0
C176 C 0.88662 0.75041 0.41725 0.0
H177 H 0.78577 0.66915 0.38434 0.0
H178 H 0.85471 0.72279 0.34439 0.0
C179 C 0.88213 0.74756 0.47154 0.0
C180 C 0.84885 0.34356 0.92723 0.0
C181 C 0.80686 0.32559 0.96064 0.0
H182 H 0.9198 0.32765 0.87905 0.0
C183 C 0.80439 0.27536 0.96942 0.0
H184 H 0.85277 0.38199 0.92002 0.0
C185 C 0.84354 0.24421 0.94649 0.0
C186 C 0.88585 0.26236 0.91368 0.0
H187 H 0.77206 0.25991 0.99394 0.0
H188 H 0.84067 0.20585 0.9546 0.0
C189 C 0.88758 0.31235 0.90384 0.0
C190 C 0.20776 0.70405 0.40242 0.0
C191 C 0.20772 0.69397 0.45615 0.0
H192 H 0.16597 0.73874 0.33869 0.0
C193 C 0.16377 0.71209 0.48689 0.0
H194 H 0.24134 0.69115 0.37766 0.0
C195 C 0.12114 0.7397 0.4647 0.0
C196 C 0.12093 0.74958 0.41103 0.0
H197 H 0.1616 0.70425 0.52811 0.0
H198 H 0.08793 0.75289 0.48975 0.0
C199 C 0.16467 0.7314 0.38005 0.0
C200 C 0.70768 0.80801 0.90286 0.0
C201 C 0.7076 0.81805 0.95659 0.0
H202 H 0.66583 0.77347 0.83901 0.0
C203 C 0.66358 0.79991 0.98727 0.0
H204 H 0.74134 0.82091 0.87814 0.0
C205 C 0.62086 0.7724 0.96498 0.0
C206 C 0.62065 0.76263 0.91128 0.0
H207 H 0.6614 0.80771 0.0285 0.0
H208 H 0.58757 0.75922 0.98997 0.0
C209 C 0.66451 0.78076 0.88039 0.0
C210 C 0.30511 0.23715 0.47004 0.0
C211 C 0.30758 0.1869 0.46141 0.0
H212 H 0.34129 0.30669 0.45485 0.0
C213 C 0.34954 0.16889 0.42803 0.0
H214 H 0.27281 0.25261 0.49456 0.0
C215 C 0.38818 0.2001 0.40443 0.0
C216 C 0.38639 0.25013 0.41404 0.0
H217 H 0.35349 0.13045 0.42097 0.0
H218 H 0.42035 0.18478 0.37964 0.0
C219 C 0.34417 0.2683 0.4469 0.0
C220 C 0.31267 0.82268 0.90902 0.0
C221 C 0.3084 0.82649 0.96366 0.0
H222 H 0.35445 0.78962 0.84396 0.0
C223 C 0.34399 0.79739 0.99426 0.0
H224 H 0.28551 0.84332 0.88372 0.0
C225 C 0.38158 0.76509 0.97119 0.0
C226 C 0.38616 0.76213 0.91692 0.0
H227 H 0.34381 0.79988 0.03624 0.0
H228 H 0.40834 0.74336 0.99593 0.0
C229 C 0.35178 0.79148 0.88599 0.0
C230 C 0.70912 0.20436 0.4052 0.0
C231 C 0.70845 0.19428 0.45889 0.0
H232 H 0.66824 0.23912 0.34112 0.0
C233 C 0.66456 0.21289 0.48938 0.0
H234 H 0.74275 0.19114 0.38069 0.0
C235 C 0.62234 0.24073 0.46683 0.0
C236 C 0.62262 0.25035 0.41311 0.0
H237 H 0.66209 0.20515 0.53061 0.0
H238 H 0.58905 0.25423 0.49159 0.0
C239 C 0.66653 0.23195 0.38251 0.0
C240 C 0.34159 0.50755 0.97837 0.0
C241 C 0.3324 0.46428 0.95102 0.0
H242 H 0.37874 0.57788 0.97791 0.0
C243 C 0.34797 0.4617 0.8983 0.0
H244 H 0.32871 0.51114 0.01861 0.0
C245 C 0.37595 0.50043 0.87463 0.0
C246 C 0.38909 0.54208 0.9035 0.0
H247 H 0.34145 0.42881 0.87623 0.0
H248 H 0.39035 0.49651 0.83487 0.0
C249 C 0.36991 0.54589 0.95498 0.0
C250 C 0.67927 0.49078 0.48517 0.0
C251 C 0.68896 0.535 0.45955 0.0
H252 H 0.63717 0.42228 0.48396 0.0
C253 C 0.66799 0.54128 0.40903 0.0
H254 H 0.69549 0.48473 0.52397 0.0
C255 C 0.6345 0.50566 0.38621 0.0
C256 C 0.62135 0.46289 0.41333 0.0
H257 H 0.67441 0.575 0.38842 0.0
H258 H 0.61692 0.51264 0.34811 0.0
C259 C 0.64591 0.455 0.46224 0.0
C260 C 0.67597 0.51891 0.98242 0.0
C261 C 0.68346 0.4741 0.95732 0.0
H262 H 0.63644 0.58847 0.981 0.0
C263 C 0.66044 0.46749 0.90761 0.0
H264 H 0.69383 0.52525 0.02054 0.0
C265 C 0.62758 0.50362 0.88501 0.0
C266 C 0.61707 0.54727 0.91153 0.0
H267 H 0.66511 0.43335 0.88741 0.0
H268 H 0.6086 0.49651 0.84752 0.0
C269 C 0.64323 0.55517 0.95972 0.0
C270 C 0.34317 0.50563 0.47612 0.0
C271 C 0.33433 0.54882 0.44857 0.0
H272 H 0.38044 0.43541 0.47638 0.0
C273 C 0.35094 0.55138 0.39613 0.0
H274 H 0.32951 0.50204 0.51614 0.0
C275 C 0.37954 0.5127 0.37298 0.0
C276 C 0.39222 0.47112 0.40211 0.0
H277 H 0.34469 0.58421 0.37391 0.0
H278 H 0.39465 0.51659 0.33344 0.0
C279 C 0.37205 0.46735 0.45326 0.0
C280 C 0.85032 0.96092 0.89644 0.0
C281 C 0.83382 0.96353 0.94891 0.0
H282 H 0.89382 0.99574 0.83362 0.0
C283 C 0.84256 0.00682 0.97636 0.0
H284 H 0.84413 0.92803 0.8743 0.0
C285 C 0.87125 0.04516 0.95337 0.0
C286 C 0.89134 0.04136 0.90218 0.0
H287 H 0.82897 0.01042 0.0164 0.0
H288 H 0.87959 0.07718 0.97641 0.0
C289 C 0.87874 0.99967 0.87316 0.0
C290 C 0.16118 0.04504 0.40807 0.0
C291 C 0.18406 0.03838 0.45781 0.0
H292 H 0.10952 0.01603 0.34777 0.0
C293 C 0.17652 0.99353 0.48279 0.0
H294 H 0.16589 0.07923 0.38796 0.0
C295 C 0.14387 0.95724 0.45992 0.0
C296 C 0.11785 0.96518 0.41168 0.0
H297 H 0.19428 0.98716 0.52094 0.0
H298 H 0.13704 0.92389 0.4811 0.0
C299 C 0.12841 0.00889 0.38529 0.0
C300 C 0.17878 0.02164 0.98473 0.0
C301 C 0.18833 0.97743 0.95904 0.0
H302 H 0.13672 0.09009 0.98376 0.0
C303 C 0.16712 0.97115 0.9086 0.0
H304 H 0.19518 0.02769 0.02347 0.0
C305 C 0.13353 0.00675 0.88595 0.0
C306 C 0.12054 0.0495 0.91317 0.0
H307 H 0.17342 0.93745 0.88793 0.0
H308 H 0.11578 0.99977 0.84792 0.0
C309 C 0.14533 0.05739 0.96199 0.0
C310 C 0.84211 1.00471 0.47842 0.0
C311 C 0.83267 0.04787 0.45098 0.0
H312 H 0.87967 0.9346 0.47812 0.0
C313 C 0.84829 0.05044 0.39828 0.0
H314 H 0.8292 1.00111 0.51865 0.0
C315 C 0.87651 0.01182 0.3747 0.0
C316 C 0.88987 0.9703 0.40366 0.0
H317 H 0.8416 0.08324 0.37614 0.0
H318 H 0.89089 0.01573 0.33493 0.0
C319 C 0.87069 0.96649 0.45513 0.0
C320 C 0.3547 0.31589 0.12531 0.0
C321 C 0.33422 0.36141 0.10991 0.0
H322 H 0.40277 0.27632 0.18183 0.0
C323 C 0.33983 0.40074 0.14409 0.0
H324 H 0.35091 0.28494 0.09974 0.0
C325 C 0.36965 0.39595 0.19031 0.0
C326 C 0.39393 0.35153 0.20392 0.0
H327 H 0.32331 0.43598 0.13392 0.0
H328 H 0.37581 0.42766 0.21443 0.0
C329 C 0.38428 0.31094 0.17222 0.0
C330 C 0.68252 0.60434 0.65346 0.0
C331 C 0.68369 0.64051 0.61516 0.0
H332 H 0.6489 0.5808 0.72616 0.0
C333 C 0.6553 0.68417 0.62429 0.0
H334 H 0.70463 0.57055 0.64756 0.0
C335 C 0.62299 0.69009 0.66936 0.0
C336 C 0.61871 0.65247 0.70605 0.0
H337 H 0.65539 0.71253 0.59524 0.0
H338 H 0.59929 0.7232 0.67417 0.0
C339 C 0.65055 0.61027 0.69846 0.0
C340 C 0.661 0.32732 0.12573 0.0
C341 C 0.68783 0.37153 0.11542 0.0
H342 H 0.60632 0.28789 0.17661 0.0
C343 C 0.68564 0.4084 0.15292 0.0
H344 H 0.66184 0.29841 0.09729 0.0
C345 C 0.65401 0.40252 0.19819 0.0
C346 C 0.62343 0.35972 0.20681 0.0
H347 H 0.70641 0.44268 0.14607 0.0
H348 H 0.65139 0.43253 0.22517 0.0
C349 C 0.62895 0.32148 0.171 0.0
C350 C 0.33752 0.61175 0.64189 0.0
C351 C 0.33254 0.65123 0.60784 0.0
H352 H 0.37198 0.5846 0.71273 0.0
C353 C 0.35251 0.69675 0.62396 0.0
H354 H 0.32138 0.5765 0.63114 0.0
C355 C 0.38106 0.70157 0.67148 0.0
C356 C 0.39012 0.66086 0.70313 0.0
H357 H 0.34918 0.72781 0.59852 0.0
H358 H 0.39927 0.7362 0.68163 0.0
C359 C 0.36624 0.61643 0.68874 0.0
C360 C 0.85246 0.81567 0.1243 0.0
C361 C 0.83254 0.86118 0.10823 0.0
H362 H 0.89929 0.77625 0.18187 0.0
C363 C 0.83771 0.90068 0.14226 0.0
H364 H 0.84899 0.78459 0.09887 0.0
C365 C 0.86656 0.89602 0.18904 0.0
C366 C 0.89037 0.8516 0.20338 0.0
H367 H 0.8216 0.93592 0.13156 0.0
H368 H 0.87244 0.92786 0.21302 0.0
C369 C 0.88113 0.81088 0.17175 0.0
C370 C 0.16122 0.18512 0.62622 0.0
C371 C 0.18806 0.14093 0.61599 0.0
H372 H 0.1063 0.22446 0.67688 0.0
C373 C 0.18561 0.10405 0.65345 0.0
H374 H 0.16224 0.21403 0.59782 0.0
C375 C 0.15372 0.10986 0.69857 0.0
C376 C 0.12314 0.15262 0.70708 0.0
H377 H 0.20638 0.06978 0.64666 0.0
H378 H 0.15092 0.07983 0.7255 0.0
C379 C 0.12892 0.1909 0.67135 0.0
C380 C 0.18241 0.90818 0.15293 0.0
C381 C 0.18339 0.87199 0.11464 0.0
H382 H 0.14917 0.93169 0.22578 0.0
C383 C 0.15503 0.82829 0.12388 0.0
H384 H 0.20451 0.94199 0.14695 0.0
C385 C 0.12294 0.82233 0.16909 0.0
C386 C 0.11886 0.85996 0.2058 0.0
H387 H 0.15499 0.79991 0.09484 0.0
H388 H 0.09926 0.78919 0.17399 0.0
C389 C 0.15068 0.9022 0.19807 0.0
C390 C 0.85444 0.1964 0.62517 0.0
C391 C 0.83385 0.15086 0.60981 0.0
H392 H 0.90255 0.23604 0.68168 0.0
C393 C 0.83927 0.11159 0.64406 0.0
H394 H 0.8508 0.2273 0.59953 0.0
C395 C 0.86901 0.11645 0.69031 0.0
C396 C 0.89342 0.16088 0.70388 0.0
H397 H 0.82267 0.07634 0.63389 0.0
H398 H 0.87503 0.08478 0.71449 0.0
C399 C 0.88396 0.20142 0.67211 0.0
loop_
_geom_bond_atom_site_label_1
_geom_bond_atom_site_label_2
_geom_bond_distance
_geom_bond_site_symmetry_2
_ccdc_geom_bond_type
H0 C3 0.931 . S
H1 C6 0.928 . S
H2 C8 0.930 . S
C3 H0 0.931 . S
C3 C4 1.413 . S
C3 C5 1.360 1_554 S
C4 C3 1.413 . S
C4 C8 1.429 . S
C5 C3 1.360 1_556 S
C5 C6 1.372 . S
C6 H1 0.928 . S
C6 C5 1.372 . S
C6 C7 1.404 . S
C7 C6 1.404 . S
C7 C8 1.391 1_556 S
C8 H2 0.930 . S
C8 C4 1.429 . S
C8 C7 1.391 1_554 S
H9 C12 0.931 . S
H10 C15 0.928 . S
H11 C17 0.930 . S
C12 H9 0.931 . S
C12 C13 1.413 . S
C12 C14 1.360 . S
C13 C12 1.413 . S
C13 C17 1.429 . S
C14 C12 1.360 . S
C14 C15 1.372 . S
C15 H10 0.928 . S
C15 C14 1.372 . S
C15 C16 1.404 . S
C16 C15 1.404 . S
C16 C17 1.391 . S
C17 H11 0.930 . S
C17 C13 1.429 . S
C17 C16 1.391 . S
H18 C21 0.931 . S
H19 C24 0.928 . S
H20 C26 0.930 . S
C21 H18 0.931 . S
C21 C22 1.413 1_554 S
C21 C23 1.360 . S
C22 C21 1.413 1_556 S
C22 C26 1.429 . S
C23 C21 1.360 . S
C23 C24 1.372 . S
C24 H19 0.928 . S
C24 C23 1.372 . S
C24 C25 1.404 1_554 S
C25 C24 1.404 1_556 S
C25 C26 1.391 . S
C26 H20 0.930 . S
C26 C22 1.429 . S
C26 C25 1.391 . S
H27 C30 0.931 . S
H28 C33 0.928 . S
H29 C35 0.930 . S
C30 H27 0.931 . S
C30 C31 1.413 . S
C30 C32 1.360 . S
C31 C30 1.413 . S
C31 C35 1.429 . S
C32 C30 1.360 . S
C32 C33 1.372 . S
C33 H28 0.928 . S
C33 C32 1.372 . S
C33 C34 1.404 . S
C34 C33 1.404 . S
C34 C35 1.391 . S
C35 H29 0.930 . S
C35 C31 1.429 . S
C35 C34 1.391 . S
H36 C39 0.931 . S
H37 C42 0.928 . S
H38 C44 0.930 . S
C39 H36 0.931 . S
C39 C40 1.413 . S
C39 C41 1.360 1_554 S
C40 C39 1.413 . S
C40 C44 1.429 . S
C41 C39 1.360 1_556 S
C41 C42 1.372 . S
C42 H37 0.928 . S
C42 C41 1.372 . S
C42 C43 1.404 . S
C43 C42 1.404 . S
C43 C44 1.391 1_556 S
C44 H38 0.930 . S
C44 C40 1.429 . S
C44 C43 1.391 1_554 S
H45 C48 0.931 . S
H46 C51 0.928 . S
H47 C53 0.930 . S
C48 H45 0.931 . S
C48 C49 1.413 . S
C48 C50 1.360 . S
C49 C48 1.413 . S
C49 C53 1.429 . S
C50 C48 1.360 . S
C50 C51 1.372 . S
C51 H46 0.928 . S
C51 C50 1.372 . S
C51 C52 1.404 . S
C52 C51 1.404 . S
C52 C53 1.391 . S
C53 H47 0.930 . S
C53 C49 1.429 . S
C53 C52 1.391 . S
H54 C57 0.931 . S
H55 C60 0.928 . S
H56 C62 0.930 . S
C57 H54 0.931 . S
C57 C58 1.413 1_554 S
C57 C59 1.360 . S
C58 C57 1.413 1_556 S
C58 C62 1.429 . S
C59 C57 1.360 . S
C59 C60 1.372 . S
C60 H55 0.928 . S
C60 C59 1.372 . S
C60 C61 1.404 1_554 S
C61 C60 1.404 1_556 S
C61 C62 1.391 . S
C62 H56 0.930 . S
C62 C58 1.429 . S
C62 C61 1.391 . S
H63 C66 0.931 . S
H64 C69 0.928 . S
H65 C71 0.930 . S
C66 H63 0.931 . S
C66 C67 1.413 . S
C66 C68 1.360 . S
C67 C66 1.413 . S
C67 C71 1.429 . S
C68 C66 1.360 . S
C68 C69 1.372 . S
C69 H64 0.928 . S
C69 C68 1.372 . S
C69 C70 1.404 . S
C70 C69 1.404 . S
C70 C71 1.391 . S
C71 H65 0.930 . S
C71 C67 1.429 . S
C71 C70 1.391 . S
Fe72 O74 1.918 . S
Fe72 O77 1.997 1_455 S
Fe72 O78 2.002 1_455 S
Fe72 O83 1.976 . S
Fe72 O86 1.996 . S
Fe73 O74 1.918 . S
Fe73 O81 1.997 1_455 S
Fe73 O84 1.996 . S
Fe73 O88 1.976 . S
Fe73 O91 2.002 1_455 S
O74 Fe72 1.918 . S
O74 Fe73 1.918 . S
O74 Fe75 1.918 . S
Fe75 O74 1.918 . S
Fe75 O76 2.002 1_455 S
Fe75 O85 1.976 . S
Fe75 O89 1.996 . S
Fe75 O92 1.997 1_455 S
O76 Fe75 2.002 1_655 S
O76 C93 1.295 . S
O77 Fe72 1.997 1_655 S
O77 C93 1.235 . S
O78 Fe72 2.002 1_655 S
O78 C79 1.295 . S
C79 O78 1.295 . S
C79 O81 1.235 . S
C80 O85 1.287 . S
C80 O86 1.255 . S
O81 Fe73 1.997 1_655 S
O81 C79 1.235 . S
C82 O88 1.287 . S
C82 O89 1.255 . S
O83 Fe72 1.976 . S
O83 C90 1.287 . S
O84 Fe73 1.996 . S
O84 C90 1.255 . S
O85 Fe75 1.976 . S
O85 C80 1.287 . S
O86 Fe72 1.996 . S
O86 C80 1.255 . S
C87 O91 1.295 . S
C87 O92 1.235 . S
O88 Fe73 1.976 . S
O88 C82 1.287 . S
O89 Fe75 1.996 . S
O89 C82 1.255 . S
C90 O83 1.287 . S
C90 O84 1.255 . S
O91 Fe73 2.002 1_655 S
O91 C87 1.295 . S
O92 Fe75 1.997 1_655 S
O92 C87 1.235 . S
C93 O76 1.295 . S
C93 O77 1.235 . S
Fe94 O96 1.918 . S
Fe94 O99 1.997 1_655 S
Fe94 O100 2.002 1_655 S
Fe94 O105 1.976 . S
Fe94 O108 1.996 . S
Fe95 O96 1.918 . S
Fe95 O103 1.997 1_655 S
Fe95 O106 1.996 . S
Fe95 O110 1.976 . S
Fe95 O113 2.002 1_655 S
O96 Fe94 1.918 . S
O96 Fe95 1.918 . S
O96 Fe97 1.918 . S
Fe97 O96 1.918 . S
Fe97 O98 2.002 1_655 S
Fe97 O107 1.976 . S
Fe97 O111 1.996 . S
Fe97 O114 1.997 1_655 S
O98 Fe97 2.002 1_455 S
O98 C115 1.295 . S
O99 Fe94 1.997 1_455 S
O99 C115 1.235 . S
O100 Fe94 2.002 1_455 S
O100 C101 1.295 . S
C101 O100 1.295 . S
C101 O103 1.235 . S
C102 O107 1.287 . S
C102 O108 1.255 . S
O103 Fe95 1.997 1_455 S
O103 C101 1.235 . S
C104 O110 1.287 . S
C104 O111 1.255 . S
O105 Fe94 1.976 . S
O105 C112 1.287 . S
O106 Fe95 1.996 . S
O106 C112 1.255 . S
O107 Fe97 1.976 . S
O107 C102 1.287 . S
O108 Fe94 1.996 . S
O108 C102 1.255 . S
C109 O113 1.295 . S
C109 O114 1.235 . S
O110 Fe95 1.976 . S
O110 C104 1.287 . S
O111 Fe97 1.996 . S
O111 C104 1.255 . S
C112 O105 1.287 . S
C112 O106 1.255 . S
O113 Fe95 2.002 1_455 S
O113 C109 1.295 . S
O114 Fe97 1.997 1_455 S
O114 C109 1.235 . S
C115 O98 1.295 . S
C115 O99 1.235 . S
Fe116 O118 1.918 . S
Fe116 O121 1.997 . S
Fe116 O122 2.002 . S
Fe116 O127 1.976 . S
Fe116 O130 1.996 . S
Fe117 O118 1.918 . S
Fe117 O125 1.997 . S
Fe117 O128 1.996 . S
Fe117 O132 1.976 . S
Fe117 O135 2.002 . S
O118 Fe116 1.918 . S
O118 Fe117 1.918 . S
O118 Fe119 1.918 . S
Fe119 O118 1.918 . S
Fe119 O120 2.002 . S
Fe119 O129 1.976 . S
Fe119 O133 1.996 . S
Fe119 O136 1.997 . S
O120 Fe119 2.002 . S
O120 C137 1.295 . S
O121 Fe116 1.997 . S
O121 C137 1.235 . S
O122 Fe116 2.002 . S
O122 C123 1.295 . S
C123 O122 1.295 . S
C123 O125 1.235 . S
C124 O129 1.287 . S
C124 O130 1.255 . S
O125 Fe117 1.997 . S
O125 C123 1.235 . S
C126 O132 1.287 . S
C126 O133 1.255 . S
O127 Fe116 1.976 . S
O127 C134 1.287 . S
O128 Fe117 1.996 . S
O128 C134 1.255 . S
O129 Fe119 1.976 . S
O129 C124 1.287 . S
O130 Fe116 1.996 . S
O130 C124 1.255 . S
C131 O135 1.295 . S
C131 O136 1.235 . S
O132 Fe117 1.976 . S
O132 C126 1.287 . S
O133 Fe119 1.996 . S
O133 C126 1.255 . S
C134 O127 1.287 . S
C134 O128 1.255 . S
O135 Fe117 2.002 . S
O135 C131 1.295 . S
O136 Fe119 1.997 . S
O136 C131 1.235 . S
C137 O120 1.295 . S
C137 O121 1.235 . S
Fe138 O140 1.918 . S
Fe138 O143 1.997 . S
Fe138 O144 2.002 . S
Fe138 O149 1.976 . S
Fe138 O152 1.996 . S
Fe139 O140 1.918 . S
Fe139 O147 1.997 . S
Fe139 O150 1.996 . S
Fe139 O154 1.976 . S
Fe139 O157 2.002 . S
O140 Fe138 1.918 . S
O140 Fe139 1.918 . S
O140 Fe141 1.918 . S
Fe141 O140 1.918 . S
Fe141 O142 2.002 . S
Fe141 O151 1.976 . S
Fe141 O155 1.996 . S
Fe141 O158 1.997 . S
O142 Fe141 2.002 . S
O142 C159 1.295 . S
O143 Fe138 1.997 . S
O143 C159 1.235 . S
O144 Fe138 2.002 . S
O144 C145 1.295 . S
C145 O144 1.295 . S
C145 O147 1.235 . S
C146 O151 1.287 . S
C146 O152 1.255 . S
O147 Fe139 1.997 . S
O147 C145 1.235 . S
C148 O154 1.287 . S
C148 O155 1.255 . S
O149 Fe138 1.976 . S
O149 C156 1.287 . S
O150 Fe139 1.996 . S
O150 C156 1.255 . S
O151 Fe141 1.976 . S
O151 C146 1.287 . S
O152 Fe138 1.996 . S
O152 C146 1.255 . S
C153 O157 1.295 . S
C153 O158 1.235 . S
O154 Fe139 1.976 . S
O154 C148 1.287 . S
O155 Fe141 1.996 . S
O155 C148 1.255 . S
C156 O149 1.287 . S
C156 O150 1.255 . S
O157 Fe139 2.002 . S
O157 C153 1.295 . S
O158 Fe141 1.997 . S
O158 C153 1.235 . S
C159 O142 1.295 . S
C159 O143 1.235 . S
C160 C161 1.387 . S
C160 H164 0.950 . S
C160 C169 1.390 . S
C161 C160 1.387 . S
C161 C163 1.387 . S
H162 C169 0.950 . S
C163 C161 1.387 . S
C163 C165 1.390 . S
C163 H167 0.950 1_556 S
H164 C160 0.950 . S
C165 C163 1.390 . S
C165 C166 1.387 . S
C165 H168 0.950 . S
C166 C165 1.387 . S
C166 C169 1.387 . S
H167 C163 0.950 1_554 S
H168 C165 0.950 . S
C169 C160 1.390 . S
C169 H162 0.950 . S
C169 C166 1.387 . S
C170 C171 1.387 . S
C170 H174 0.950 . S
C170 C179 1.390 . S
C171 C170 1.387 . S
C171 C173 1.387 . S
H172 C179 0.950 . S
C173 C171 1.387 . S
C173 C175 1.390 . S
C173 H177 0.950 . S
H174 C170 0.950 . S
C175 C173 1.390 . S
C175 C176 1.387 . S
C175 H178 0.950 . S
C176 C175 1.387 . S
C176 C179 1.387 . S
H177 C173 0.950 . S
H178 C175 0.950 . S
C179 C170 1.390 . S
C179 H172 0.950 . S
C179 C176 1.387 . S
C180 C181 1.387 . S
C180 H184 0.950 . S
C180 C189 1.390 . S
C181 C180 1.387 . S
C181 C183 1.387 . S
H182 C189 0.950 . S
C183 C181 1.387 . S
C183 C185 1.390 . S
C183 H187 0.950 . S
H184 C180 0.950 . S
C185 C183 1.390 . S
C185 C186 1.387 . S
C185 H188 0.950 . S
C186 C185 1.387 . S
C186 C189 1.387 . S
H187 C183 0.950 . S
H188 C185 0.950 . S
C189 C180 1.390 . S
C189 H182 0.950 . S
C189 C186 1.387 . S
C190 C191 1.387 . S
C190 H194 0.950 . S
C190 C199 1.390 . S
C191 C190 1.387 . S
C191 C193 1.387 . S
H192 C199 0.950 . S
C193 C191 1.387 . S
C193 C195 1.390 . S
C193 H197 0.950 . S
H194 C190 0.950 . S
C195 C193 1.390 . S
C195 C196 1.387 . S
C195 H198 0.950 . S
C196 C195 1.387 . S
C196 C199 1.387 . S
H197 C193 0.950 . S
H198 C195 0.950 . S
C199 C190 1.390 . S
C199 H192 0.950 . S
C199 C196 1.387 . S
C200 C201 1.387 . S
C200 H204 0.950 . S
C200 C209 1.390 . S
C201 C200 1.387 . S
C201 C203 1.387 . S
H202 C209 0.950 . S
C203 C201 1.387 . S
C203 C205 1.390 . S
C203 H207 0.950 1_556 S
H204 C200 0.950 . S
C205 C203 1.390 . S
C205 C206 1.387 . S
C205 H208 0.950 . S
C206 C205 1.387 . S
C206 C209 1.387 . S
H207 C203 0.950 1_554 S
H208 C205 0.950 . S
C209 C200 1.390 . S
C209 H202 0.950 . S
C209 C206 1.387 . S
C210 C211 1.387 . S
C210 H214 0.950 . S
C210 C219 1.390 . S
C211 C210 1.387 . S
C211 C213 1.387 . S
H212 C219 0.950 . S
C213 C211 1.387 . S
C213 C215 1.390 . S
C213 H217 0.950 . S
H214 C210 0.950 . S
C215 C213 1.390 . S
C215 C216 1.387 . S
C215 H218 0.950 . S
C216 C215 1.387 . S
C216 C219 1.387 . S
H217 C213 0.950 . S
H218 C215 0.950 . S
C219 C210 1.390 . S
C219 H212 0.950 . S
C219 C216 1.387 . S
C220 C221 1.387 . S
C220 H224 0.950 . S
C220 C229 1.390 . S
C221 C220 1.387 . S
C221 C223 1.387 . S
H222 C229 0.950 . S
C223 C221 1.387 . S
C223 C225 1.390 . S
C223 H227 0.950 1_556 S
H224 C220 0.950 . S
C225 C223 1.390 . S
C225 C226 1.387 . S
C225 H228 0.950 . S
C226 C225 1.387 . S
C226 C229 1.387 . S
H227 C223 0.950 1_554 S
H228 C225 0.950 . S
C229 C220 1.390 . S
C229 H222 0.950 . S
C229 C226 1.387 . S
C230 C231 1.387 . S
C230 H234 0.950 . S
C230 C239 1.390 . S
C231 C230 1.387 . S
C231 C233 1.387 . S
H232 C239 0.950 . S
C233 C231 1.387 . S
C233 C235 1.390 . S
C233 H237 0.950 . S
H234 C230 0.950 . S
C235 C233 1.390 . S
C235 C236 1.387 . S
C235 H238 0.950 . S
C236 C235 1.387 . S
C236 C239 1.387 . S
H237 C233 0.950 . S
H238 C235 0.950 . S
C239 C230 1.390 . S
C239 H232 0.950 . S
C239 C236 1.387 . S
C240 C241 1.387 . S
C240 H244 0.950 1_556 S
C240 C249 1.390 . S
C241 C240 1.387 . S
C241 C243 1.387 . S
H242 C249 0.950 . S
C243 C241 1.387 . S
C243 C245 1.390 . S
C243 H247 0.950 . S
H244 C240 0.950 1_554 S
C245 C243 1.390 . S
C245 C246 1.387 . S
C245 H248 0.950 . S
C246 C245 1.387 . S
C246 C249 1.387 . S
H247 C243 0.950 . S
H248 C245 0.950 . S
C249 C240 1.390 . S
C249 H242 0.950 . S
C249 C246 1.387 . S
C250 C251 1.387 . S
C250 H254 0.950 . S
C250 C259 1.390 . S
C251 C250 1.387 . S
C251 C253 1.387 . S
H252 C259 0.950 . S
C253 C251 1.387 . S
C253 C255 1.390 . S
C253 H257 0.950 . S
H254 C250 0.950 . S
C255 C253 1.390 . S
C255 C256 1.387 . S
C255 H258 0.950 . S
C256 C255 1.387 . S
C256 C259 1.387 . S
H257 C253 0.950 . S
H258 C255 0.950 . S
C259 C250 1.390 . S
C259 H252 0.950 . S
C259 C256 1.387 . S
C260 C261 1.387 . S
C260 H264 0.950 1_556 S
C260 C269 1.390 . S
C261 C260 1.387 . S
C261 C263 1.387 . S
H262 C269 0.950 . S
C263 C261 1.387 . S
C263 C265 1.390 . S
C263 H267 0.950 . S
H264 C260 0.950 1_554 S
C265 C263 1.390 . S
C265 C266 1.387 . S
C265 H268 0.950 . S
C266 C265 1.387 . S
C266 C269 1.387 . S
H267 C263 0.950 . S
H268 C265 0.950 . S
C269 C260 1.390 . S
C269 H262 0.950 . S
C269 C266 1.387 . S
C270 C271 1.387 . S
C270 H274 0.950 . S
C270 C279 1.390 . S
C271 C270 1.387 . S
C271 C273 1.387 . S
H272 C279 0.950 . S
C273 C271 1.387 . S
C273 C275 1.390 . S
C273 H277 0.950 . S
H274 C270 0.950 . S
C275 C273 1.390 . S
C275 C276 1.387 . S
C275 H278 0.950 . S
C276 C275 1.387 . S
C276 C279 1.387 . S
H277 C273 0.950 . S
H278 C275 0.950 . S
C279 C270 1.390 . S
C279 H272 0.950 . S
C279 C276 1.387 . S
C280 C281 1.387 . S
C280 H284 0.950 . S
C280 C289 1.390 1_565 S
C281 C280 1.387 . S
C281 C283 1.387 1_565 S
H282 C289 0.949 1_565 S
C283 C281 1.387 1_545 S
C283 C285 1.390 . S
C283 H287 0.950 1_556 S
H284 C280 0.950 . S
C285 C283 1.390 . S
C285 C286 1.387 . S
C285 H288 0.950 . S
C286 C285 1.387 . S
C286 C289 1.387 . S
H287 C283 0.950 1_554 S
H288 C285 0.950 . S
C289 C280 1.390 1_545 S
C289 H282 0.949 1_545 S
C289 C286 1.387 . S
C290 C291 1.387 . S
C290 H294 0.950 . S
C290 C299 1.390 1_545 S
C291 C290 1.387 . S
C291 C293 1.387 1_545 S
H292 C299 0.950 1_545 S
C293 C291 1.387 1_565 S
C293 C295 1.390 . S
C293 H297 0.950 . S
H294 C290 0.950 . S
C295 C293 1.390 . S
C295 C296 1.387 . S
C295 H298 0.950 . S
C296 C295 1.387 . S
C296 C299 1.387 . S
H297 C293 0.950 . S
H298 C295 0.950 . S
C299 C290 1.390 1_565 S
C299 H292 0.950 1_565 S
C299 C296 1.387 . S
C300 C301 1.387 1_545 S
C300 H304 0.950 1_556 S
C300 C309 1.390 . S
C301 C300 1.387 1_565 S
C301 C303 1.387 . S
H302 C309 0.950 . S
C303 C301 1.387 . S
C303 C305 1.390 1_565 S
C303 H307 0.950 . S
H304 C300 0.950 1_554 S
C305 C303 1.390 1_545 S
C305 C306 1.387 . S
C305 H308 0.950 . S
C306 C305 1.387 . S
C306 C309 1.387 . S
H307 C303 0.950 . S
H308 C305 0.950 . S
C309 C300 1.390 . S
C309 H302 0.950 . S
C309 C306 1.387 . S
C310 C311 1.387 1_565 S
C310 H314 0.950 . S
C310 C319 1.390 . S
C311 C310 1.387 1_545 S
C311 C313 1.387 . S
H312 C319 0.950 . S
C313 C311 1.387 . S
C313 C315 1.390 1_545 S
C313 H317 0.950 . S
H314 C310 0.950 . S
C315 C313 1.390 1_565 S
C315 C316 1.387 . S
C315 H318 0.950 . S
C316 C315 1.387 . S
C316 C319 1.387 . S
H317 C313 0.950 . S
H318 C315 0.950 . S
C319 C310 1.390 . S
C319 H312 0.950 . S
C319 C316 1.387 . S
C320 C321 1.387 . S
C320 H324 0.950 . S
C320 C329 1.390 . S
C321 C320 1.387 . S
C321 C323 1.387 . S
H322 C329 0.950 . S
C323 C321 1.387 . S
C323 C325 1.390 . S
C323 H327 0.950 . S
H324 C320 0.950 . S
C325 C323 1.390 . S
C325 C326 1.387 . S
C325 H328 0.950 . S
C326 C325 1.387 . S
C326 C329 1.387 . S
H327 C323 0.950 . S
H328 C325 0.950 . S
C329 C320 1.390 . S
C329 H322 0.950 . S
C329 C326 1.387 . S
C330 C331 1.387 . S
C330 H334 0.950 . S
C330 C339 1.390 . S
C331 C330 1.387 . S
C331 C333 1.387 . S
H332 C339 0.950 . S
C333 C331 1.387 . S
C333 C335 1.390 . S
C333 H337 0.950 . S
H334 C330 0.950 . S
C335 C333 1.390 . S
C335 C336 1.387 . S
C335 H338 0.950 . S
C336 C335 1.387 . S
C336 C339 1.387 . S
H337 C333 0.950 . S
H338 C335 0.950 . S
C339 C330 1.390 . S
C339 H332 0.950 . S
C339 C336 1.387 . S
C340 C341 1.387 . S
C340 H344 0.950 . S
C340 C349 1.390 . S
C341 C340 1.387 . S
C341 C343 1.387 . S
H342 C349 0.950 . S
C343 C341 1.387 . S
C343 C345 1.390 . S
C343 H347 0.950 . S
H344 C340 0.950 . S
C345 C343 1.390 . S
C345 C346 1.387 . S
C345 H348 0.950 . S
C346 C345 1.387 . S
C346 C349 1.387 . S
H347 C343 0.950 . S
H348 C345 0.950 . S
C349 C340 1.390 . S
C349 H342 0.950 . S
C349 C346 1.387 . S
C350 C351 1.387 . S
C350 H354 0.950 . S
C350 C359 1.390 . S
C351 C350 1.387 . S
C351 C353 1.387 . S
H352 C359 0.950 . S
C353 C351 1.387 . S
C353 C355 1.390 . S
C353 H357 0.950 . S
H354 C350 0.950 . S
C355 C353 1.390 . S
C355 C356 1.387 . S
C355 H358 0.950 . S
C356 C355 1.387 . S
C356 C359 1.387 . S
H357 C353 0.950 . S
H358 C355 0.950 . S
C359 C350 1.390 . S
C359 H352 0.950 . S
C359 C356 1.387 . S
C360 C361 1.387 . S
C360 H364 0.950 . S
C360 C369 1.390 . S
C361 C360 1.387 . S
C361 C363 1.387 . S
H362 C369 0.950 . S
C363 C361 1.387 . S
C363 C365 1.390 . S
C363 H367 0.950 . S
H364 C360 0.950 . S
C365 C363 1.390 . S
C365 C366 1.387 . S
C365 H368 0.950 . S
C366 C365 1.387 . S
C366 C369 1.387 . S
H367 C363 0.950 . S
H368 C365 0.950 . S
C369 C360 1.390 . S
C369 H362 0.950 . S
C369 C366 1.387 . S
C370 C371 1.387 . S
C370 H374 0.950 . S
C370 C379 1.390 . S
C371 C370 1.387 . S
C371 C373 1.387 . S
H372 C379 0.950 . S
C373 C371 1.387 . S
C373 C375 1.390 . S
C373 H377 0.950 . S
H374 C370 0.950 . S
C375 C373 1.390 . S
C375 C376 1.387 . S
C375 H378 0.950 . S
C376 C375 1.387 . S
C376 C379 1.387 . S
H377 C373 0.950 . S
H378 C375 0.950 . S
C379 C370 1.390 . S
C379 H372 0.950 . S
C379 C376 1.387 . S
C380 C381 1.387 . S
C380 H384 0.950 . S
C380 C389 1.390 . S
C381 C380 1.387 . S
C381 C383 1.387 . S
H382 C389 0.950 . S
C383 C381 1.387 . S
C383 C385 1.390 . S
C383 H387 0.950 . S
H384 C380 0.950 . S
C385 C383 1.390 . S
C385 C386 1.387 . S
C385 H388 0.950 . S
C386 C385 1.387 . S
C386 C389 1.387 . S
H387 C383 0.950 . S
H388 C385 0.950 . S
C389 C380 1.390 . S
C389 H382 0.950 . S
C389 C386 1.387 . S
C390 C391 1.387 . S
C390 H394 0.950 . S
C390 C399 1.390 . S
C391 C390 1.387 . S
C391 C393 1.387 . S
H392 C399 0.950 . S
C393 C391 1.387 . S
C393 C395 1.390 . S
C393 H397 0.950 . S
H394 C390 0.950 . S
C395 C393 1.390 . S
C395 C396 1.387 . S
C395 H398 0.950 . S
C396 C395 1.387 . S
C396 C399 1.387 . S
H397 C393 0.950 . S
H398 C395 0.950 . S
C399 C390 1.390 . S
C399 H392 0.950 . S
C399 C396 1.387 . S
C161 C7 1.526 . S
C166 C115 1.512 . S
C176 C79 1.510 . S
C171 C16 1.525 . S
C186 C102 1.501 . S
C181 C25 1.507 . S
C196 C90 1.504 . S
C191 C34 1.505 . S
C206 C159 1.512 . S
C201 C43 1.526 . S
C216 C123 1.510 . S
C211 C52 1.525 . S
C221 C61 1.507 . S
C226 C146 1.501 . S
C236 C134 1.504 . S
C231 C70 1.505 . S
C241 C5 1.477 . S
C246 C156 1.482 . S
C256 C126 1.483 . S
C251 C14 1.477 . S
C261 C22 1.492 . S
C266 C145 1.490 . S
C271 C32 1.492 . S
C276 C131 1.493 . S
C286 C112 1.483 . S
C281 C41 1.476 . S
C291 C50 1.477 . S
C296 C82 1.483 . S
C306 C101 1.490 . S
C301 C58 1.492 . S
C316 C87 1.493 . S
C311 C68 1.492 . S
C326 C137 1.482 . S
C321 C4 1.495 . S
C336 C153 1.485 . S
C331 C13 1.494 . S
C341 C23 1.474 . S
C346 C124 1.479 . S
C356 C148 1.478 . S
C351 C31 1.472 . S
C366 C93 1.482 . S
C361 C40 1.495 . S
C371 C49 1.495 . S
C376 C109 1.482 . S
C381 C59 1.475 . S
C386 C80 1.478 . S
C391 C67 1.470 . S
C396 C104 1.479 . S
