# Generated by pormake.
# Topology apo, (3,6)-cn, num edge types: 1
# Building blocks:
#     Node 0, Type 0, BuildingBlock: QEWDON_clean_linker_0, # of connection points: 3
#     Node 1, Type 0, BuildingBlock: QEWDON_clean_linker_0, # of connection points: 3
#     Node 2, Type 0, BuildingBlock: QEWDON_clean_linker_0, # of connection points: 3
#     Node 3, Type 0, BuildingBlock: QEWDON_clean_linker_0, # of connection points: 3
#     Node 4, Type 0, BuildingBlock: QEWDON_clean_linker_0, # of connection points: 3
#     Node 5, Type 0, BuildingBlock: QEWDON_clean_linker_0, # of connection points: 3
#     Node 6, Type 0, BuildingBlock: QEWDON_clean_linker_0, # of connection points: 3
#     Node 7, Type 0, BuildingBlock: QEWDON_clean_linker_0, # of connection points: 3
#     Node 8, Type 1, BuildingBlock: KUMBOL_clean_sbu_1, # of connection points: 6
#     Node 9, Type 1, BuildingBlock: KUMBOL_clean_sbu_1, # of connection points: 6
#     Node 10, Type 1, BuildingBlock: KUMBOL_clean_sbu_1, # of connection points: 6
#     Node 11, Type 1, BuildingBlock: KUMBOL_clean_sbu_1, # of connection points: 6
#     Edge 12, Type (0, 1), BuildingBlock: EZIPEK_clean_linker_0, # of connection points: 2
#     Edge 13, Type (0, 1), BuildingBlock: EZIPEK_clean_linker_0, # of connection points: 2
#     Edge 14, Type (0, 1), BuildingBlock: EZIPEK_clean_linker_0, # of connection points: 2
#     Edge 15, Type (0, 1), BuildingBlock: EZIPEK_clean_linker_0, # of connection points: 2
#     Edge 16, Type (0, 1), BuildingBlock: EZIPEK_clean_linker_0, # of connection points: 2
#     Edge 17, Type (0, 1), BuildingBlock: EZIPEK_clean_linker_0, # of connection points: 2
#     Edge 18, Type (0, 1), BuildingBlock: EZIPEK_clean_linker_0, # of connection points: 2
#     Edge 19, Type (0, 1), BuildingBlock: EZIPEK_clean_linker_0, # of connection points: 2
#     Edge 20, Type (0, 1), BuildingBlock: EZIPEK_clean_linker_0, # of connection points: 2
#     Edge 21, Type (0, 1), BuildingBlock: EZIPEK_clean_linker_0, # of connection points: 2
#     Edge 22, Type (0, 1), BuildingBlock: EZIPEK_clean_linker_0, # of connection points: 2
#     Edge 23, Type (0, 1), BuildingBlock: EZIPEK_clean_linker_0, # of connection points: 2
#     Edge 24, Type (0, 1), BuildingBlock: EZIPEK_clean_linker_0, # of connection points: 2
#     Edge 25, Type (0, 1), BuildingBlock: EZIPEK_clean_linker_0, # of connection points: 2
#     Edge 26, Type (0, 1), BuildingBlock: EZIPEK_clean_linker_0, # of connection points: 2
#     Edge 27, Type (0, 1), BuildingBlock: EZIPEK_clean_linker_0, # of connection points: 2
#     Edge 28, Type (0, 1), BuildingBlock: EZIPEK_clean_linker_0, # of connection points: 2
#     Edge 29, Type (0, 1), BuildingBlock: EZIPEK_clean_linker_0, # of connection points: 2
#     Edge 30, Type (0, 1), BuildingBlock: EZIPEK_clean_linker_0, # of connection points: 2
#     Edge 31, Type (0, 1), BuildingBlock: EZIPEK_clean_linker_0, # of connection points: 2
#     Edge 32, Type (0, 1), BuildingBlock: EZIPEK_clean_linker_0, # of connection points: 2
#     Edge 33, Type (0, 1), BuildingBlock: EZIPEK_clean_linker_0, # of connection points: 2
#     Edge 34, Type (0, 1), BuildingBlock: EZIPEK_clean_linker_0, # of connection points: 2
#     Edge 35, Type (0, 1), BuildingBlock: EZIPEK_clean_linker_0, # of connection points: 2
# Relax obj value: 0.076
# Max RMSD: 0.276
# Mean RMSD: 0.217
data_MOF--net-apo--node1-KUMBOL_clean_sbu_1--node2-QEWDON_clean_linker_0--edge1-EZIPEK_clean_linker_0
_symmetry_space_group_name_H-M    P1
_symmetry_Int_Tables_number       1
_symmetry_cell_setting            triclinic
loop_
_symmetry_equiv_pos_as_xyz
'x, y, z'
_cell_length_a     22.638857
_cell_length_b     31.057962
_cell_length_c     40.047283
_cell_angle_alpha  89.696782
_cell_angle_beta   90.466303
_cell_angle_gamma 90.713123
loop_
_atom_site_label
_atom_site_type_symbol
_atom_site_fract_x
_atom_site_fract_y
_atom_site_fract_z
_atom_type_partial_charge
H0 H 0.27047 0.3917 0.36716 0.0
C1 C 0.28381 0.39946 0.39249 0.0
C2 C 0.32999 0.42932 0.39803 0.0
C3 C 0.25448 0.38043 0.41981 0.0
H4 H 0.38369 0.46121 0.43409 0.0
C5 C 0.34486 0.44123 0.43091 0.0
C6 C 0.30983 0.42843 0.45832 0.0
C7 C 0.27052 0.39352 0.4524 0.0
C8 C 0.20262 0.35062 0.41508 0.0
H9 H 0.25057 0.37673 0.47325 0.0
C10 C 0.2009 0.31838 0.39021 0.0
C11 C 0.15071 0.29112 0.38693 0.0
C12 C 0.15313 0.35509 0.43591 0.0
H13 H 0.15175 0.38011 0.45457 0.0
C14 C 0.10408 0.3279 0.43274 0.0
H15 H 0.23797 0.31441 0.37361 0.0
C16 C 0.10284 0.29608 0.40847 0.0
H17 H 0.064 0.27552 0.40616 0.0
H18 H 0.06659 0.3318 0.44901 0.0
H19 H 0.24035 0.14798 0.87117 0.0
C20 C 0.22263 0.14173 0.89579 0.0
C21 C 0.1782 0.10985 0.8999 0.0
C22 C 0.24622 0.16338 0.92396 0.0
H23 H 0.12723 0.07279 0.9354 0.0
C24 C 0.1587 0.09905 0.93202 0.0
C25 C 0.18138 0.12048 0.95996 0.0
C26 C 0.22255 0.15392 0.95565 0.0
C27 C 0.30009 0.19159 0.92197 0.0
H28 H 0.23934 0.17031 0.97766 0.0
C29 C 0.30961 0.22143 0.89568 0.0
C30 C 0.36046 0.24833 0.896 0.0
C31 C 0.34333 0.18829 0.94744 0.0
H32 H 0.33918 0.1646 0.96725 0.0
C33 C 0.39291 0.21514 0.9478 0.0
H34 H 0.27788 0.22404 0.8754 0.0
C35 C 0.40126 0.24518 0.92244 0.0
H36 H 0.44053 0.26551 0.923 0.0
H37 H 0.4253 0.21238 0.9677 0.0
H38 H 0.75545 0.13895 0.67674 0.0
C39 C 0.77427 0.13709 0.65199 0.0
C40 C 0.82406 0.1114 0.64666 0.0
C41 C 0.74643 0.15774 0.62492 0.0
H42 H 0.88459 0.08705 0.60995 0.0
C43 C 0.847 0.10751 0.61429 0.0
C44 C 0.81937 0.12819 0.58724 0.0
C45 C 0.76971 0.15343 0.59282 0.0
C46 C 0.68985 0.18042 0.62895 0.0
H47 H 0.74806 0.16893 0.57176 0.0
C48 C 0.68383 0.21375 0.6523 0.0
C49 C 0.63021 0.23596 0.65433 0.0
C50 C 0.6416 0.16932 0.60821 0.0
H51 H 0.64508 0.14356 0.59021 0.0
C52 C 0.58839 0.19115 0.61053 0.0
H53 H 0.72062 0.22276 0.66839 0.0
C54 C 0.58266 0.22438 0.63344 0.0
H55 H 0.54104 0.24109 0.63498 0.0
H56 H 0.55153 0.18232 0.59449 0.0
H57 H 0.76947 0.40406 0.17832 0.0
C58 C 0.7551 0.40504 0.15244 0.0
C59 C 0.70659 0.43063 0.14306 0.0
C60 C 0.78673 0.38253 0.12812 0.0
H61 H 0.65192 0.45233 0.10188 0.0
C62 C 0.68899 0.43259 0.10927 0.0
C63 C 0.72024 0.40999 0.08491 0.0
C64 C 0.76878 0.38516 0.09456 0.0
C65 C 0.84198 0.35944 0.13646 0.0
H66 H 0.79341 0.36828 0.07565 0.0
C67 C 0.84229 0.32322 0.15783 0.0
C68 C 0.8949 0.30004 0.16293 0.0
C69 C 0.89473 0.37246 0.12088 0.0
H70 H 0.89548 0.40011 0.10427 0.0
C71 C 0.94683 0.34988 0.12637 0.0
H72 H 0.80184 0.31254 0.16976 0.0
C73 C 0.94698 0.31378 0.14719 0.0
H74 H 0.98773 0.29643 0.15105 0.0
H75 H 0.98717 0.36024 0.11424 0.0
H76 H 0.67548 0.66342 0.67985 0.0
C77 C 0.68263 0.65392 0.6542 0.0
C78 C 0.66725 0.6119 0.6439 0.0
C79 C 0.70581 0.68415 0.63149 0.0
H80 H 0.66224 0.56892 0.60159 0.0
C81 C 0.67442 0.60094 0.61004 0.0
C82 C 0.69371 0.63179 0.58659 0.0
C83 C 0.71046 0.67314 0.59764 0.0
C84 C 0.71673 0.72907 0.64231 0.0
H85 H 0.72511 0.69717 0.57969 0.0
C86 C 0.7699 0.7418 0.65835 0.0
C87 C 0.77759 0.78464 0.66948 0.0
C88 C 0.67208 0.75934 0.6372 0.0
H89 H 0.63102 0.75009 0.62495 0.0
C90 C 0.67965 0.8016 0.64816 0.0
H91 H 0.80481 0.71869 0.66218 0.0
C92 C 0.73188 0.81418 0.66425 0.0
H93 H 0.7369 0.84721 0.67251 0.0
H94 H 0.64486 0.82471 0.64421 0.0
H95 H 0.83389 0.86888 0.17514 0.0
C96 C 0.82614 0.882 0.15038 0.0
C97 C 0.83937 0.92571 0.14373 0.0
C98 C 0.8057 0.85459 0.12477 0.0
H99 H 0.84132 0.97491 0.10522 0.0
C100 C 0.83095 0.94151 0.11092 0.0
C101 C 0.81442 0.9138 0.08477 0.0
C102 C 0.80107 0.87052 0.09193 0.0
C103 C 0.7962 0.80801 0.1313 0.0
H104 H 0.78876 0.84896 0.07177 0.0
C105 C 0.74901 0.79281 0.15113 0.0
C106 C 0.74081 0.74815 0.15657 0.0
C107 C 0.8347 0.77835 0.11701 0.0
H108 H 0.8711 0.7894 0.10164 0.0
C109 C 0.82696 0.73428 0.12263 0.0
H110 H 0.71864 0.81542 0.16196 0.0
C111 C 0.78043 0.71923 0.14229 0.0
H112 H 0.77504 0.68486 0.14627 0.0
H113 H 0.85709 0.71168 0.11164 0.0
H114 H 0.21866 0.86143 0.36739 0.0
C115 C 0.20863 0.87385 0.39147 0.0
C116 C 0.18279 0.91516 0.39573 0.0
C117 C 0.22028 0.84649 0.41911 0.0
H118 H 0.13606 0.95352 0.43244 0.0
C119 C 0.16169 0.92489 0.42814 0.0
C120 C 0.1731 0.89821 0.45561 0.0
C121 C 0.20511 0.86079 0.45111 0.0
C122 C 0.24619 0.80224 0.4157 0.0
H123 H 0.21642 0.84211 0.4731 0.0
C124 C 0.28587 0.79111 0.38993 0.0
C125 C 0.31166 0.74977 0.38956 0.0
C126 C 0.23114 0.77021 0.4395 0.0
H127 H 0.19786 0.77552 0.45821 0.0
C128 C 0.25844 0.73041 0.43983 0.0
H129 H 0.29666 0.81393 0.37032 0.0
C130 C 0.29909 0.72049 0.41545 0.0
H131 H 0.31856 0.68878 0.41572 0.0
H132 H 0.24712 0.70677 0.45876 0.0
H133 H 0.36285 0.6744 0.85631 0.0
C134 C 0.35253 0.66579 0.88191 0.0
C135 C 0.36312 0.62379 0.89356 0.0
C136 C 0.32815 0.6967 0.90291 0.0
H137 H 0.36129 0.58208 0.93692 0.0
C138 C 0.35211 0.61404 0.92736 0.0
C139 C 0.33228 0.64575 0.94939 0.0
C140 C 0.31798 0.68665 0.93662 0.0
C141 C 0.31829 0.74062 0.89005 0.0
H142 H 0.30168 0.7112 0.95321 0.0
C143 C 0.26244 0.75305 0.87801 0.0
C144 C 0.25455 0.79469 0.86479 0.0
C145 C 0.36592 0.76987 0.88873 0.0
H146 H 0.40925 0.76063 0.89772 0.0
C147 C 0.358 0.81121 0.87573 0.0
H148 H 0.22545 0.73058 0.87891 0.0
C149 C 0.30261 0.82364 0.86385 0.0
H150 H 0.29708 0.85593 0.85401 0.0
H151 H 0.39489 0.83368 0.87487 0.0
C152 C 0.82247 0.05108 0.30831 0.0
C153 C 0.82389 0.98892 0.34526 0.0
C154 C 0.85292 0.02455 0.33036 0.0
C155 C 0.76472 0.9797 0.33694 0.0
C156 C 0.76255 0.0425 0.30058 0.0
C157 C 0.73416 1.00638 0.31464 0.0
N158 N 0.85094 0.08583 0.295 0.0
C159 C 0.82102 0.11483 0.27571 0.0
C160 C 0.73255 0.07094 0.27939 0.0
C161 C 0.76178 0.10751 0.2672 0.0
Gd162 Gd 0.07459 0.09505 0.23692 0.0
Gd163 Gd 0.9503 0.09528 0.31081 0.0
N164 N 0.91044 0.03386 0.33764 0.0
C165 C 0.85489 0.96393 0.3685 0.0
C166 C 0.93974 1.0109 0.36173 0.0
C167 C 0.91283 0.9753 0.37707 0.0
H168 H 0.98395 0.02015 0.36946 0.0
H169 H 0.93663 0.95691 0.39572 0.0
H170 H 0.044 0.18872 0.19892 0.0
H171 H 0.84267 0.1436 0.26681 0.0
H172 H 0.09273 0.25923 0.18927 0.0
H173 H 0.83408 0.93639 0.38051 0.0
H174 H 0.74192 0.95231 0.34798 0.0
H175 H 0.18406 0.02632 0.25833 0.0
H176 H 0.68654 0.06545 0.27288 0.0
H177 H 0.73859 0.13025 0.25145 0.0
H178 H 0.28895 0.24106 0.23314 0.0
H179 H 0.68828 0.99917 0.30882 0.0
H180 H 0.34288 0.10059 0.27169 0.0
H181 H 0.28965 0.0306 0.27376 0.0
N182 N 0.17632 0.09388 0.24998 0.0
C183 C 0.20582 0.13198 0.24624 0.0
C184 C 0.20649 0.05728 0.25797 0.0
C185 C 0.29632 0.09903 0.26527 0.0
C186 C 0.26645 0.05947 0.26649 0.0
C187 C 0.26643 0.13574 0.25433 0.0
H188 H 0.34209 0.17912 0.25663 0.0
N189 N 0.11864 0.16155 0.22334 0.0
C190 C 0.17624 0.16675 0.23239 0.0
C191 C 0.17509 0.24012 0.21195 0.0
C192 C 0.20593 0.20636 0.22716 0.0
C193 C 0.0891 0.19365 0.20708 0.0
C194 C 0.11662 0.23356 0.20155 0.0
O195 O 0.91984 0.06494 0.26169 0.0
O196 O 0.00913 0.04028 0.245 0.0
O197 O 0.08189 0.10114 0.1822 0.0
O198 O 0.10432 0.04123 0.20808 0.0
O199 O 0.01403 0.03963 0.31297 0.0
O200 O 0.09973 0.06111 0.28545 0.0
O201 O 0.07279 0.15401 0.26893 0.0
O202 O 0.04307 0.12368 0.3183 0.0
O203 O 0.95517 0.10416 0.36463 0.0
O204 O 0.90344 0.14744 0.33418 0.0
O205 O 0.98609 0.12666 0.22526 0.0
O206 O 0.95614 0.15234 0.27596 0.0
C207 C 0.95161 0.04196 0.24113 0.0
C208 C 0.07108 0.03721 0.30748 0.0
C209 C 0.11355 0.04003 0.14815 0.0
C210 C 0.13188 0.04237 0.0883 0.0
C211 C 0.1239 0.9736 0.11699 0.0
C212 C 0.11475 0.99479 0.14709 0.0
C213 C 0.13233 0.99721 0.08769 0.0
C214 C 0.12232 0.0638 0.11859 0.0
C215 C 0.09986 0.06163 0.1798 0.0
C216 C 0.26549 0.21078 0.23673 0.0
C217 C 0.29571 0.17554 0.2502 0.0
H218 H 0.19634 0.27107 0.20758 0.0
C219 C 0.06858 0.15525 0.30143 0.0
C220 C 0.95349 0.1528 0.24324 0.0
C221 C 0.86708 0.12955 0.38795 0.0
C222 C 0.83249 0.12287 0.44528 0.0
C223 C 0.76221 0.12113 0.39917 0.0
C224 C 0.80828 0.12629 0.37652 0.0
C225 C 0.77413 0.11953 0.43338 0.0
C226 C 0.87898 0.12741 0.42244 0.0
C227 C 0.91636 0.13466 0.36435 0.0
H228 H 0.12432 0.93876 0.11637 0.0
H229 H 0.10742 0.97568 0.16942 0.0
H230 H 0.13988 0.98032 0.06454 0.0
H231 H 0.12191 0.09869 0.11904 0.0
H232 H 0.71709 0.11856 0.39018 0.0
H233 H 0.79774 0.12778 0.35015 0.0
H234 H 0.7378 0.11584 0.45065 0.0
H235 H 0.92414 0.1297 0.43155 0.0
C236 C 0.71268 0.45875 0.78966 0.0
C237 C 0.73269 0.5259 0.81854 0.0
C238 C 0.69386 0.49161 0.81018 0.0
C239 C 0.7897 0.5274 0.80503 0.0
C240 C 0.77064 0.45947 0.77692 0.0
C241 C 0.80859 0.49431 0.78422 0.0
N242 N 0.67521 0.42522 0.78326 0.0
C243 C 0.69467 0.38985 0.76672 0.0
C244 C 0.78931 0.42457 0.75795 0.0
C245 C 0.75141 0.38933 0.75325 0.0
Gd246 Gd 0.43854 0.43218 0.73878 0.0
Gd247 Gd 0.57995 0.43017 0.80575 0.0
N248 N 0.63821 0.48961 0.82263 0.0
C249 C 0.71332 0.55747 0.84054 0.0
C250 C 0.62019 0.51936 0.84528 0.0
C251 C 0.65703 0.5539 0.85424 0.0
H252 H 0.57759 0.51651 0.85682 0.0
H253 H 0.6421 0.57759 0.87191 0.0
H254 H 0.46958 0.34719 0.69099 0.0
H255 H 0.66732 0.36146 0.76438 0.0
H256 H 0.42863 0.27476 0.67955 0.0
H257 H 0.74183 0.58426 0.84757 0.0
H258 H 0.81985 0.5537 0.81093 0.0
H259 H 0.32653 0.48879 0.77278 0.0
H260 H 0.83346 0.42391 0.74774 0.0
H261 H 0.76614 0.36146 0.73966 0.0
H262 H 0.24425 0.27162 0.73795 0.0
H263 H 0.85309 0.49553 0.77446 0.0
H264 H 0.18284 0.40151 0.79055 0.0
H265 H 0.22723 0.47444 0.79482 0.0
N266 N 0.34103 0.42383 0.75842 0.0
C267 C 0.31575 0.38433 0.75375 0.0
C268 C 0.30882 0.45648 0.77162 0.0
C269 C 0.22701 0.40745 0.78123 0.0
C270 C 0.25195 0.44862 0.78375 0.0
C271 C 0.2584 0.37489 0.76549 0.0
H272 H 0.18981 0.32585 0.76948 0.0
N273 N 0.40045 0.36434 0.72372 0.0
C274 C 0.34615 0.35378 0.73571 0.0
C275 C 0.35126 0.28398 0.70957 0.0
C276 C 0.32045 0.31302 0.72936 0.0
C277 C 0.42888 0.33728 0.70267 0.0
C278 C 0.40527 0.29646 0.69571 0.0
O279 O 0.59813 0.46402 0.75627 0.0
O280 O 0.50504 0.48769 0.74178 0.0
O281 O 0.42753 0.43071 0.68398 0.0
O282 O 0.38853 0.48168 0.71377 0.0
O283 O 0.51963 0.48745 0.81042 0.0
O284 O 0.42755 0.47184 0.78587 0.0
O285 O 0.44281 0.37564 0.77458 0.0
O286 O 0.48693 0.4088 0.81917 0.0
O287 O 0.58231 0.42919 0.85995 0.0
O288 O 0.62403 0.37836 0.83253 0.0
O289 O 0.52595 0.40454 0.72324 0.0
O290 O 0.56274 0.37362 0.77148 0.0
C291 C 0.56271 0.48765 0.73751 0.0
C292 C 0.46228 0.49353 0.80671 0.0
C293 C 0.37296 0.48736 0.65402 0.0
C294 C 0.34777 0.48863 0.59451 0.0
C295 C 0.33047 0.55141 0.6288 0.0
C296 C 0.35269 0.52982 0.65666 0.0
C297 C 0.32783 0.53098 0.59797 0.0
C298 C 0.37094 0.46681 0.62262 0.0
C299 C 0.39707 0.46595 0.68419 0.0
C300 C 0.26451 0.30291 0.74232 0.0
C301 C 0.23354 0.33378 0.76032 0.0
H302 H 0.333 0.25236 0.7041 0.0
C303 C 0.45753 0.37621 0.80632 0.0
C304 C 0.55535 0.37414 0.73886 0.0
C305 C 0.66727 0.39952 0.8845 0.0
C306 C 0.70659 0.40684 0.94127 0.0
C307 C 0.77313 0.40583 0.89397 0.0
C308 C 0.72514 0.40129 0.87211 0.0
C309 C 0.76403 0.40854 0.92834 0.0
C310 C 0.65819 0.4026 0.91918 0.0
C311 C 0.6159 0.39567 0.86172 0.0
H312 H 0.31507 0.5841 0.63114 0.0
H313 H 0.35431 0.5466 0.6803 0.0
H314 H 0.30993 0.54823 0.57666 0.0
H315 H 0.38651 0.43415 0.62006 0.0
H316 H 0.81758 0.40723 0.88424 0.0
H317 H 0.73337 0.39923 0.84559 0.0
H318 H 0.80183 0.41193 0.94493 0.0
H319 H 0.6137 0.4016 0.929 0.0
C320 C 0.81238 0.88833 0.79418 0.0
C321 C 0.81847 0.81804 0.82052 0.0
C322 C 0.84389 0.85866 0.81305 0.0
C323 C 0.76229 0.80724 0.80773 0.0
C324 C 0.75551 0.87787 0.7818 0.0
C325 C 0.73109 0.83694 0.78821 0.0
N326 N 0.83682 0.92784 0.78855 0.0
C327 C 0.80499 0.95947 0.77332 0.0
C328 C 0.72426 0.90929 0.76403 0.0
C329 C 0.74882 0.95046 0.76019 0.0
Gd330 Gd 0.06391 0.94817 0.74101 0.0
Gd331 Gd 0.93147 0.93989 0.81075 0.0
N332 N 0.89838 0.86996 0.82501 0.0
C333 C 0.84998 0.78961 0.84094 0.0
C334 C 0.92802 0.84297 0.8462 0.0
C335 C 0.90473 0.80229 0.85404 0.0
H336 H 0.96898 0.85279 0.85795 0.0
H337 H 0.92872 0.78094 0.87057 0.0
H338 H 0.04263 0.04882 0.71545 0.0
H339 H 0.82268 0.99175 0.77126 0.0
H340 H 0.09007 0.12079 0.72201 0.0
H341 H 0.83199 0.75812 0.8472 0.0
H342 H 0.7424 0.77604 0.81297 0.0
H343 H 0.1686 0.87539 0.76152 0.0
H344 H 0.68054 0.90247 0.75404 0.0
H345 H 0.72429 0.97539 0.7474 0.0
H346 H 0.26924 0.09154 0.78283 0.0
H347 H 0.6876 0.82824 0.77875 0.0
H348 H 0.31665 0.94361 0.80318 0.0
H349 H 0.2664 0.87486 0.78891 0.0
N350 N 0.1601 0.94349 0.76377 0.0
C351 C 0.18878 0.98158 0.76917 0.0
C352 C 0.18861 0.90552 0.76912 0.0
C353 C 0.27306 0.94399 0.79182 0.0
C354 C 0.24473 0.90513 0.78396 0.0
C355 C 0.24576 0.9829 0.78371 0.0
H356 H 0.31719 0.02454 0.8009 0.0
N357 N 0.10791 1.01679 0.74419 0.0
C358 C 0.16202 0.01934 0.75894 0.0
C359 C 0.16395 0.09638 0.75037 0.0
C360 C 0.19106 0.05937 0.76307 0.0
C361 C 0.08353 0.05207 0.72932 0.0
C362 C 0.11046 0.09259 0.73286 0.0
O363 O 0.91695 0.90851 0.76016 0.0
O364 O 0.00815 0.8867 0.74091 0.0
O365 O 0.05109 0.96146 0.688 0.0
O366 O 0.12769 0.92689 0.70456 0.0
O367 O 0.01548 0.90432 0.82312 0.0
O368 O 0.06675 0.88916 0.77473 0.0
O369 O 0.04703 0.99943 0.77987 0.0
O370 O 0.02121 0.96412 0.82749 0.0
O371 O 0.89675 0.93382 0.86112 0.0
O372 O 0.89554 0.99629 0.83563 0.0
O373 O 0.97429 0.97326 0.72637 0.0
O374 O 0.93113 0.99762 0.7751 0.0
C375 C 0.95012 0.8827 0.74247 0.0
C376 C 0.05701 0.88378 0.80704 0.0
C377 C 0.08935 0.90981 0.65138 0.0
C378 C 0.09896 0.89232 0.59231 0.0
C379 C 0.06137 0.83871 0.63147 0.0
C380 C 0.06795 0.86796 0.65761 0.0
C381 C 0.07704 0.85067 0.59904 0.0
C382 C 0.10417 0.92211 0.6186 0.0
C383 C 0.09751 0.94046 0.67897 0.0
C384 C 0.24654 0.06102 0.779 0.0
C385 C 0.27385 0.02286 0.78927 0.0
H386 H 0.18478 0.12779 0.75306 0.0
C387 C 0.05329 0.9932 0.81205 0.0
C388 C 0.93831 0.99877 0.74232 0.0
C389 C 0.85638 0.99339 0.89267 0.0
C390 C 0.82842 0.98904 0.95169 0.0
C391 C 0.81272 0.0549 0.92001 0.0
C392 C 0.83647 0.03602 0.89162 0.0
C393 C 0.80886 0.03169 0.94987 0.0
C394 C 0.85183 0.96983 0.92288 0.0
C395 C 0.88359 0.97434 0.86267 0.0
H396 H 0.0446 0.80654 0.63642 0.0
H397 H 0.05641 0.85791 0.68268 0.0
H398 H 0.07244 0.82734 0.57914 0.0
H399 H 0.12085 0.95436 0.61363 0.0
H400 H 0.79762 0.08781 0.91892 0.0
H401 H 0.8395 0.05492 0.86887 0.0
H402 H 0.79087 0.04708 0.97171 0.0
H403 H 0.86732 0.93698 0.92429 0.0
C404 C 0.70598 0.63817 0.29601 0.0
C405 C 0.70352 0.70554 0.32633 0.0
C406 C 0.67512 0.66755 0.31503 0.0
C407 C 0.76212 0.71439 0.31704 0.0
C408 C 0.76507 0.64673 0.28698 0.0
C409 C 0.79266 0.68523 0.29722 0.0
N410 N 0.67868 0.60062 0.28717 0.0
C411 C 0.7089 0.56944 0.27086 0.0
C412 C 0.79518 0.61584 0.2686 0.0
C413 C 0.7671 0.57688 0.26076 0.0
Gd414 Gd 0.45088 0.59596 0.23399 0.0
Gd415 Gd 0.58127 0.59133 0.30568 0.0
N416 N 0.61799 0.65855 0.3232 0.0
C417 C 0.67234 0.73338 0.3469 0.0
C418 C 0.58873 0.68438 0.34485 0.0
C419 C 0.61494 0.72249 0.35649 0.0
H420 H 0.54563 0.6754 0.35397 0.0
H421 H 0.59111 0.74313 0.37325 0.0
H422 H 0.46547 0.49188 0.21914 0.0
H423 H 0.68876 0.53849 0.26602 0.0
H424 H 0.40767 0.42398 0.22613 0.0
H425 H 0.69259 0.76286 0.35608 0.0
H426 H 0.78437 0.74362 0.32522 0.0
H427 H 0.35664 0.67786 0.24301 0.0
H428 H 0.84055 0.62128 0.2611 0.0
H429 H 0.79054 0.55229 0.24736 0.0
H430 H 0.21717 0.47208 0.26171 0.0
H431 H 0.83799 0.69238 0.29045 0.0
H432 H 0.18677 0.6245 0.26706 0.0
H433 H 0.25143 0.68786 0.25656 0.0
N434 N 0.35165 0.60951 0.2464 0.0
C435 C 0.31636 0.57423 0.25099 0.0
C436 C 0.32881 0.64996 0.24763 0.0
C437 C 0.23286 0.61987 0.26115 0.0
C438 C 0.26921 0.65574 0.25517 0.0
C439 C 0.25613 0.57845 0.25879 0.0
H440 H 0.17463 0.54389 0.26951 0.0
N441 N 0.39785 0.53103 0.2377 0.0
C442 C 0.33999 0.53376 0.24615 0.0
C443 C 0.32987 0.4564 0.2432 0.0
C444 C 0.30458 0.49644 0.24962 0.0
C445 C 0.42149 0.49268 0.22905 0.0
C446 C 0.38836 0.45459 0.23234 0.0
O447 O 0.60285 0.62978 0.25882 0.0
O448 O 0.51461 0.6529 0.23548 0.0
O449 O 0.44768 0.57425 0.18197 0.0
O450 O 0.41249 0.63587 0.19514 0.0
O451 O 0.49487 0.62687 0.31681 0.0
O452 O 0.45473 0.65389 0.2676 0.0
O453 O 0.43393 0.55898 0.28343 0.0
O454 O 0.52269 0.53286 0.30151 0.0
O455 O 0.57515 0.5891 0.36018 0.0
O456 O 0.63979 0.55093 0.335 0.0
O457 O 0.53666 0.5635 0.21995 0.0
O458 O 0.58108 0.5363 0.26806 0.0
C459 C 0.57265 0.6538 0.23771 0.0
C460 C 0.45914 0.65322 0.30035 0.0
C461 C 0.36848 0.60188 0.14852 0.0
C462 C 0.32509 0.60918 0.09247 0.0
C463 C 0.26236 0.59441 0.14024 0.0
C464 C 0.31176 0.59414 0.16123 0.0
C465 C 0.26875 0.6026 0.10622 0.0
C466 C 0.37513 0.60833 0.11385 0.0
C467 C 0.41954 0.60812 0.17142 0.0
C468 C 0.2451 0.50039 0.25872 0.0
C469 C 0.22089 0.54131 0.26321 0.0
H470 H 0.30417 0.4269 0.2456 0.0
C471 C 0.46513 0.53322 0.30298 0.0
C472 C 0.57447 0.53796 0.23518 0.0
C473 C 0.66862 0.58134 0.38709 0.0
C474 C 0.70169 0.60155 0.44347 0.0
C475 C 0.76884 0.60812 0.3967 0.0
C476 C 0.7253 0.59202 0.37521 0.0
C477 C 0.75717 0.61301 0.43055 0.0
C478 C 0.65715 0.58584 0.42156 0.0
C479 C 0.62203 0.56553 0.36359 0.0
H480 H 0.21879 0.58905 0.15052 0.0
H481 H 0.30517 0.58902 0.18745 0.0
H482 H 0.22962 0.60361 0.09049 0.0
H483 H 0.41873 0.61428 0.10369 0.0
H484 H 0.81204 0.61654 0.38709 0.0
H485 H 0.73641 0.58775 0.34928 0.0
H486 H 0.79181 0.62528 0.44687 0.0
H487 H 0.6141 0.5771 0.43131 0.0
C488 C 0.1684 0.99252 0.37722 0.0
C489 C 0.17313 0.94867 0.36802 0.0
C490 C 0.12075 0.96545 0.3155 0.0
C491 C 0.10602 1.00652 0.3282 0.0
N492 N 0.11033 0.05688 0.37391 0.0
N493 N 0.19192 0.90848 0.31802 0.0
C494 C 0.12896 0.01971 0.35963 0.0
C495 C 0.1594 0.93829 0.33425 0.0
N496 N 0.20427 1.00856 0.40186 0.0
N497 N 0.09755 0.95211 0.28567 0.0
H498 H 0.23364 0.9002 0.3269 0.0
H499 H 0.18537 0.90043 0.29304 0.0
H500 H 0.07039 0.97145 0.2709 0.0
H501 H 0.10155 0.92071 0.277 0.0
H502 H 0.2068 0.04119 0.40775 0.0
H503 H 0.23634 0.98963 0.41347 0.0
H504 H 0.12146 0.0657 0.39826 0.0
H505 H 0.07891 0.07655 0.3628 0.0
C506 C 0.43571 0.56454 0.88163 0.0
C507 C 0.38797 0.59049 0.87079 0.0
C508 C 0.39458 0.55692 0.81563 0.0
C509 C 0.43484 0.52628 0.82859 0.0
N510 N 0.47466 0.49311 0.87857 0.0
N511 N 0.3109 0.60073 0.82914 0.0
C512 C 0.44983 0.52765 0.863 0.0
C513 C 0.36396 0.58366 0.83821 0.0
N514 N 0.46949 0.57569 0.90869 0.0
N515 N 0.38707 0.56202 0.78201 0.0
H516 H 0.28443 0.61741 0.84573 0.0
H517 H 0.29028 0.59364 0.8064 0.0
H518 H 0.41127 0.54495 0.76456 0.0
H519 H 0.36137 0.58647 0.77174 0.0
H520 H 0.50697 0.55851 0.91569 0.0
H521 H 0.46458 0.6047 0.9213 0.0
H522 H 0.48256 0.49225 0.90427 0.0
H523 H 0.48046 0.46389 0.86651 0.0
C524 C 0.66615 0.57309 0.70013 0.0
C525 C 0.64032 0.58022 0.6681 0.0
C526 C 0.56927 0.52212 0.68003 0.0
C527 C 0.58927 0.51975 0.71365 0.0
N528 N 0.64295 0.55645 0.75738 0.0
N529 N 0.55322 0.56978 0.63323 0.0
C530 C 0.63404 0.54897 0.72429 0.0
C531 C 0.58757 0.55724 0.65965 0.0
N532 N 0.72169 0.58794 0.70749 0.0
N533 N 0.53528 0.48995 0.66682 0.0
H534 H 0.56192 0.59759 0.61934 0.0
H535 H 0.51227 0.55547 0.62798 0.0
H536 H 0.52671 0.46176 0.68002 0.0
H537 H 0.52296 0.48904 0.64167 0.0
H538 H 0.74297 0.5806 0.72999 0.0
H539 H 0.74864 0.60305 0.68987 0.0
H540 H 0.67244 0.57995 0.76614 0.0
H541 H 0.61452 0.5437 0.7753 0.0
C542 C 0.84488 0.95817 0.20254 0.0
C543 C 0.86815 0.95408 0.16977 0.0
C544 C 0.93824 1.01231 0.18259 0.0
C545 C 0.92169 1.01196 0.21667 0.0
N546 N 0.87044 0.97309 0.26011 0.0
N547 N 0.95244 0.96812 0.1343 0.0
C548 C 0.87793 0.98167 0.22704 0.0
C549 C 0.91962 0.97831 0.16151 0.0
N550 N 0.79084 0.94111 0.21022 0.0
N551 N 0.96881 0.04619 0.16948 0.0
H552 H 0.94431 0.94056 0.1202 0.0
H553 H 0.99188 0.98404 0.12851 0.0
H554 H 0.97875 0.07329 0.18345 0.0
H555 H 0.97716 0.04934 0.14399 0.0
H556 H 0.77067 0.94639 0.23314 0.0
H557 H 0.76369 0.92595 0.1926 0.0
H558 H 0.84164 0.9492 0.26886 0.0
H559 H 0.8991 0.98576 0.2781 0.0
C560 C 0.82978 0.04055 0.67644 0.0
C561 C 0.84813 0.08422 0.67414 0.0
C562 C 0.91532 0.074 0.72192 0.0
C563 C 0.90273 0.02901 0.72139 0.0
N564 N 0.85009 0.96882 0.69666 0.0
N565 N 0.9101 0.14287 0.69294 0.0
C566 C 0.86036 1.01218 0.69829 0.0
C567 C 0.89091 0.10121 0.69668 0.0
N568 N 0.78212 0.0264 0.65814 0.0
N569 N 0.95119 0.09068 0.7463 0.0
H570 H 0.8921 0.16387 0.67528 0.0
H571 H 0.94615 0.15597 0.70577 0.0
H572 H 0.97321 0.07145 0.76352 0.0
H573 H 0.95684 0.1235 0.75058 0.0
H574 H 0.76211 0.99634 0.66146 0.0
H575 H 0.759 0.04611 0.64155 0.0
H576 H 0.82626 0.95394 0.67751 0.0
H577 H 0.86796 0.94716 0.71367 0.0
C578 C 0.69045 0.50153 0.17169 0.0
C579 C 0.67559 0.45726 0.16833 0.0
C580 C 0.60097 0.46429 0.21215 0.0
C581 C 0.61155 0.50957 0.2134 0.0
N582 N 0.66397 0.57189 0.19206 0.0
N583 N 0.61318 0.39683 0.18262 0.0
C584 C 0.65564 0.52829 0.19245 0.0
C585 C 0.63015 0.43867 0.188 0.0
N586 N 0.73912 0.51775 0.15571 0.0
N587 N 0.56276 0.44564 0.23409 0.0
H588 H 0.63434 0.37686 0.16574 0.0
H589 H 0.57572 0.38261 0.19305 0.0
H590 H 0.5376 0.46393 0.24994 0.0
H591 H 0.55822 0.41257 0.23778 0.0
H592 H 0.75673 0.54835 0.16001 0.0
H593 H 0.76512 0.49931 0.14 0.0
H594 H 0.68924 0.58827 0.17437 0.0
H595 H 0.64306 0.59216 0.2086 0.0
C596 C 0.40381 0.43309 0.35065 0.0
C597 C 0.35971 0.45294 0.37003 0.0
C598 C 0.39521 0.52355 0.35142 0.0
C599 C 0.43356 0.50461 0.32809 0.0
N600 N 0.47981 0.43993 0.30877 0.0
N601 N 0.3048 0.51683 0.38243 0.0
C602 C 0.43906 0.45883 0.32844 0.0
C603 C 0.35232 0.49802 0.36794 0.0
N604 N 0.41455 0.3902 0.35505 0.0
N605 N 0.40503 0.56476 0.36153 0.0
H606 H 0.27182 0.49903 0.39451 0.0
H607 H 0.29557 0.54945 0.37934 0.0
H608 H 0.44167 0.58231 0.35366 0.0
H609 H 0.38188 0.5789 0.38095 0.0
H610 H 0.45019 0.37439 0.34468 0.0
H611 H 0.38922 0.37054 0.37069 0.0
H612 H 0.47919 0.40737 0.30271 0.0
H613 H 0.51613 0.45703 0.30012 0.0
C614 C 0.10102 0.09728 0.8558 0.0
C615 C 0.15396 0.08409 0.8716 0.0
C616 C 0.1427 1.01206 0.84723 0.0
C617 C 0.08828 0.02463 0.83241 0.0
N618 N 0.00946 0.0758 0.82856 0.0
N619 N 0.2321 0.03296 0.87745 0.0
C620 C 0.06615 0.06662 0.83781 0.0
C621 C 0.17687 0.04259 0.86577 0.0
N622 N 0.08431 0.13929 0.85806 0.0
N623 N 0.16015 0.97025 0.84499 0.0
H624 H 0.25794 0.05487 0.89101 0.0
H625 H 0.25454 1.00506 0.87146 0.0
H626 H 0.13736 0.94753 0.83071 0.0
H627 H 0.1953 0.95727 0.85838 0.0
H628 H 0.04947 0.15239 0.84446 0.0
H629 H 0.10887 0.16219 0.87139 0.0
H630 H 0.98825 0.10427 0.83442 0.0
H631 H 0.98117 0.05292 0.81795 0.0
C632 C 0.21423 0.08151 1.01175 0.0
C633 C 0.16896 0.10352 0.99399 0.0
C634 C 0.09913 0.08688 0.03893 0.0
C635 C 0.14504 0.06664 0.05719 0.0
N636 N 0.24899 0.05363 0.06488 0.0
N637 N 0.06816 0.12951 0.99242 0.0
C638 C 0.20347 0.06676 0.04477 0.0
C639 C 0.11185 0.10717 1.00806 0.0
N640 N 0.26631 0.0723 0.99638 0.0
N641 N 0.04274 0.08672 0.05081 0.0
H642 H 0.07353 0.14611 0.96989 0.0
H643 H 0.07353 0.14611 0.96989 0.0
H644 H 0.03078 0.07179 0.0732 0.0
H645 H 0.00788 0.10107 0.03785 0.0
H646 H 0.29804 0.05217 1.0068 0.0
H647 H 0.27576 0.08119 0.97185 0.0
H648 H 0.29329 0.05741 0.05855 0.0
H649 H 0.2428 0.04281 0.08933 0.0
C650 C 0.27374 0.43961 0.51866 0.0
C651 C 0.31535 0.44908 0.49303 0.0
C652 C 0.37905 0.48414 0.53499 0.0
C653 C 0.34228 0.4685 0.5609 0.0
N654 N 0.25572 0.42815 0.57756 0.0
N655 N 0.37491 0.51154 0.4791 0.0
C656 C 0.29025 0.44488 0.55277 0.0
C657 C 0.36031 0.47976 0.50128 0.0
N658 N 0.21554 0.43384 0.51047 0.0
N659 N 0.43107 0.50466 0.54254 0.0
H660 H 0.34926 0.51722 0.45779 0.0
H661 H 0.40428 0.53661 0.48483 0.0
H662 H 0.44603 0.50862 0.56708 0.0
H663 H 0.46126 0.51391 0.52422 0.0
H664 H 0.18215 0.4307 0.5281 0.0
H665 H 0.1999 0.43919 0.48624 0.0
H666 H 0.22041 0.40713 0.57284 0.0
H667 H 0.26559 0.43221 0.60284 0.0
C668 C 0.68114 0.37546 0.03259 0.0
C669 C 0.7044 0.41261 0.04871 0.0
C670 C 0.71137 0.44937 0.99443 0.0
C671 C 0.69824 0.4099 0.97812 0.0
N672 N 0.67398 0.33412 0.98151 0.0
N673 N 0.74563 0.48451 0.04503 0.0
C674 C 0.68317 0.37268 0.99713 0.0
C675 C 0.71983 0.44975 0.0297 0.0
N676 N 0.6569 0.34295 0.0513 0.0
N677 N 0.71524 0.48654 0.97612 0.0
H678 H 0.75225 0.48628 0.07077 0.0
H679 H 0.76427 0.51036 0.03203 0.0
H680 H 0.70886 0.48727 0.95028 0.0
H681 H 0.71904 0.51698 0.98677 0.0
H682 H 0.63414 0.31678 0.04104 0.0
H683 H 0.65462 0.3443 0.0773 0.0
H684 H 0.66971 0.30493 0.99423 0.0
H685 H 0.67484 0.33068 0.95563 0.0
C686 C 0.82394 0.08407 0.53474 0.0
C687 C 0.83895 0.12237 0.55223 0.0
C688 C 0.85961 0.15956 0.49942 0.0
C689 C 0.84381 0.12144 0.4819 0.0
N690 N 0.82843 0.0446 0.4827 0.0
N691 N 0.88711 0.19179 0.55251 0.0
C692 C 0.83197 0.08267 0.4996 0.0
C693 C 0.86252 0.15847 0.53488 0.0
N694 N 0.79851 0.05005 0.55124 0.0
N695 N 0.8681 0.19739 0.48243 0.0
H696 H 0.88979 0.19151 0.57855 0.0
H697 H 0.9098 0.21742 0.54141 0.0
H698 H 0.86618 0.1997 0.45647 0.0
H699 H 0.8729 0.22711 0.49411 0.0
H700 H 0.78002 0.02347 0.53914 0.0
H701 H 0.79229 0.0495 0.57699 0.0
H702 H 0.82529 1.01471 0.49451 0.0
H703 H 0.83453 0.0427 0.45694 0.0
C704 C 0.87328 0.93489 0.03406 0.0
C705 C 0.81733 0.92929 0.04939 0.0
C706 C 0.76898 0.95406 0.99772 0.0
C707 C 0.82504 0.96537 0.98428 0.0
N708 N 0.93068 0.97208 0.99178 0.0
N709 N 0.71163 0.93679 0.04713 0.0
C710 C 0.87732 0.95707 1.00295 0.0
C711 C 0.76499 0.93957 0.03151 0.0
N712 N 0.92247 0.91789 0.0488 0.0
N713 N 0.7197 0.95624 0.97787 0.0
H714 H 0.70703 0.92563 0.07161 0.0
H715 H 0.67258 0.94839 0.03677 0.0
H716 H 0.72118 0.96621 0.95297 0.0
H717 H 0.6784 0.94451 0.98504 0.0
H718 H 0.96356 0.9173 0.03732 0.0
H719 H 0.92091 0.90036 0.07107 0.0
H720 H 0.96919 0.9714 1.00619 0.0
H721 H 0.93573 0.9886 0.96923 0.0
C722 C 0.7306 0.59036 0.5368 0.0
C723 C 0.69227 0.62168 0.55005 0.0
C724 C 0.65652 0.63843 0.49327 0.0
C725 C 0.69248 0.60546 0.48029 0.0
N726 N 0.75247 0.54316 0.49057 0.0
N727 N 0.60799 0.66753 0.54179 0.0
C728 C 0.72592 0.57922 0.50242 0.0
C729 C 0.65192 0.64331 0.52853 0.0
N730 N 0.77334 0.57261 0.55665 0.0
N731 N 0.62881 0.66638 0.47203 0.0
H732 H 0.60231 0.67117 0.56744 0.0
H733 H 0.57378 0.68046 0.52754 0.0
H734 H 0.63081 0.6639 0.44611 0.0
H735 H 0.6077 0.69402 0.48009 0.0
H736 H 0.80657 0.5531 0.54753 0.0
H737 H 0.7789 0.58043 0.58178 0.0
H738 H 0.77263 0.52044 0.50596 0.0
H739 H 0.74911 0.53373 0.46565 0.0
C740 C 0.36441 0.66228 1.00877 0.0
C741 C 0.33052 0.63663 0.98616 0.0
C742 C 0.30453 0.58835 0.03256 0.0
C743 C 0.33026 0.61776 0.05574 0.0
N744 N 0.37286 0.68852 0.0653 0.0
N745 N 0.25756 0.58006 0.97849 0.0
C746 C 0.35697 0.65642 0.04372 0.0
C747 C 0.29743 0.60099 0.99862 0.0
N748 N 0.40564 0.69101 0.99711 0.0
N749 N 0.28856 0.5478 0.04265 0.0
H750 H 0.24911 0.58952 0.9539 0.0
H751 H 0.22855 0.55638 0.98734 0.0
H752 H 0.29571 0.53657 0.06693 0.0
H753 H 0.27444 0.52399 0.02606 0.0
H754 H 0.43502 0.70745 1.01281 0.0
H755 H 0.41509 0.69479 0.97182 0.0
H756 H 0.38734 0.71879 0.05722 0.0
H757 H 0.3656 0.6867 0.09094 0.0
C758 C 0.19337 0.91653 0.51549 0.0
C759 C 0.1514 0.90806 0.48982 0.0
C760 C 0.07318 0.90403 0.53184 0.0
C761 C 0.11675 0.90378 0.55752 0.0
N762 N 0.21983 0.90639 0.57366 0.0
N763 N 0.05093 0.89092 0.47349 0.0
C764 C 0.17729 0.90984 0.54941 0.0
C765 C 0.09091 0.90174 0.49788 0.0
N766 N 0.24876 0.93072 0.50728 0.0
N767 N 0.01485 0.90664 0.54 0.0
H768 H 0.06181 0.889 0.44832 0.0
H769 H 0.00782 0.88086 0.4785 0.0
H770 H 1.00065 0.9088 0.56466 0.0
H771 H 0.98131 0.91099 0.52238 0.0
H772 H 0.27983 0.94118 0.52486 0.0
H773 H 0.26138 0.93612 0.48258 0.0
H774 H 0.26483 0.9056 0.56853 0.0
H775 H 0.21031 0.9008 0.59873 0.0
C776 C 0.15984 0.21461 0.36729 0.0
C777 C 0.14487 0.25794 0.36036 0.0
C778 C 0.0861 0.2349 0.31183 0.0
C779 C 0.09929 0.19117 0.31946 0.0
N780 N 0.16644 0.1419 0.34602 0.0
N781 N 0.10894 0.31056 0.32127 0.0
C782 C 0.1416 0.18171 0.3447 0.0
C783 C 0.11325 0.26841 0.33086 0.0
N784 N 0.18983 0.20473 0.39599 0.0
N785 N 0.04526 0.24455 0.28772 0.0
H786 H 0.12804 0.33566 0.33499 0.0
H787 H 0.09167 0.32035 0.29832 0.0
H788 H 0.02507 0.22152 0.27265 0.0
H789 H 0.02834 0.27522 0.28396 0.0
H790 H 0.19574 0.17328 0.40443 0.0
H791 H 0.20616 0.22829 0.41223 0.0
H792 H 0.20116 0.13409 0.36208 0.0
H793 H 0.15671 0.11814 0.32843 0.0
C794 C 0.35005 0.32001 0.8664 0.0
C795 C 0.37547 0.27849 0.86822 0.0
C796 C 0.45722 0.30303 0.83326 0.0
C797 C 0.42998 0.34351 0.82886 0.0
N798 N 0.34806 0.39024 0.83938 0.0
N799 N 0.44401 0.22747 0.8463 0.0
C800 C 0.37528 0.35179 0.84467 0.0
C801 C 0.42577 0.26906 0.84902 0.0
N802 N 0.30383 0.32965 0.88665 0.0
N803 N 0.51494 0.29783 0.82491 0.0
H804 H 0.42143 0.20176 0.85751 0.0
H805 H 0.47745 0.21827 0.83018 0.0
H806 H 0.54086 0.323 0.81581 0.0
H807 H 0.53865 0.27014 0.83055 0.0
H808 H 0.28751 0.36058 0.88952 0.0
H809 H 0.28351 0.3068 0.90206 0.0
H810 H 0.30511 0.39653 0.84686 0.0
H811 H 0.36778 0.41541 0.82608 0.0
C812 C 0.63485 0.31425 0.66984 0.0
C813 C 0.62182 0.27095 0.67877 0.0
C814 C 0.56535 0.29496 0.72667 0.0
C815 C 0.58028 0.33848 0.71888 0.0
N816 N 0.64027 0.38881 0.68734 0.0
N817 N 0.58823 0.2196 0.71982 0.0
C818 C 0.61839 0.34796 0.6917 0.0
C819 C 0.59194 0.26124 0.70874 0.0
N820 N 0.66126 0.32319 0.63999 0.0
N821 N 0.5219 0.28571 0.74909 0.0
H822 H 0.60672 0.19401 0.70693 0.0
H823 H 0.5721 0.2111 0.74327 0.0
H824 H 0.49755 0.30943 0.76056 0.0
H825 H 0.50497 0.25481 0.75318 0.0
H826 H 0.66537 0.35417 0.63014 0.0
H827 H 0.67608 0.2992 0.62407 0.0
H828 H 0.67284 0.39672 0.67008 0.0
H829 H 0.63012 0.41419 0.70312 0.0
C830 C 0.89378 0.21947 0.17075 0.0
C831 C 0.89675 0.26129 0.18493 0.0
C832 C 0.91172 0.22935 0.24037 0.0
C833 C 0.92088 0.18844 0.22536 0.0
N834 N 0.89108 0.14209 0.18033 0.0
N835 N 0.91237 0.30672 0.23288 0.0
C836 C 0.90331 0.18273 0.19154 0.0
C837 C 0.90627 0.26638 0.21967 0.0
N838 N 0.88404 0.21512 0.1372 0.0
N839 N 0.90279 0.23279 0.27392 0.0
H840 H 0.90663 0.3348 0.21889 0.0
H841 H 0.92754 0.31227 0.25713 0.0
H842 H 0.89535 0.2064 0.28936 0.0
H843 H 0.89228 0.2616 0.28552 0.0
H844 H 0.88851 0.18627 0.12443 0.0
H845 H 0.87407 0.24114 0.12164 0.0
H846 H 0.87425 0.13517 0.15669 0.0
H847 H 0.89092 0.11549 0.19636 0.0
C848 C 0.86813 0.83181 0.66834 0.0
C849 C 0.83358 0.80058 0.68553 0.0
C850 C 0.8945 0.81253 0.73574 0.0
C851 C 0.91897 0.8502 0.72093 0.0
N852 N 0.93209 0.8946 0.67198 0.0
N853 N 0.81464 0.75967 0.73573 0.0
C854 C 0.90747 0.85908 0.68667 0.0
C855 C 0.84772 0.78985 0.71913 0.0
N856 N 0.8633 0.83507 0.63438 0.0
N857 N 0.91688 0.79812 0.7654 0.0
H858 H 0.78003 0.74254 0.7245 0.0
H859 H 0.81954 0.75306 0.7611 0.0
H860 H 0.9506 0.81452 0.77805 0.0
H861 H 0.90591 0.76829 0.77578 0.0
H862 H 0.89103 0.8543 0.61981 0.0
H863 H 0.83519 0.81508 0.62045 0.0
H864 H 0.92009 0.90602 0.64843 0.0
H865 H 0.96267 0.91407 0.68429 0.0
C866 C 0.68914 0.73635 0.21169 0.0
C867 C 0.69054 0.73053 0.17663 0.0
C868 C 0.60812 0.67838 0.18058 0.0
C869 C 0.60688 0.68423 0.21577 0.0
N870 N 0.63079 0.73084 0.2617 0.0
N871 N 0.64102 0.70561 0.12679 0.0
C872 C 0.64279 0.71689 0.23037 0.0
C873 C 0.64656 0.70459 0.16079 0.0
N874 N 0.73349 0.75861 0.22755 0.0
N875 N 0.57468 0.64658 0.16612 0.0
H876 H 0.66792 0.72494 0.11171 0.0
H877 H 0.60637 0.69075 0.11383 0.0
H878 H 0.545 0.62754 0.17947 0.0
H879 H 0.57928 0.6371 0.14139 0.0
H880 H 0.73756 0.75991 0.25346 0.0
H881 H 0.76881 0.77298 0.215 0.0
H882 H 0.65071 0.75804 0.27224 0.0
H883 H 0.59642 0.71763 0.27554 0.0
C884 C 0.40432 0.74672 0.35384 0.0
C885 C 0.34566 0.73301 0.36068 0.0
C886 C 0.3606 0.6681 0.32786 0.0
C887 C 0.41889 0.68194 0.31976 0.0
N888 N 0.48663 0.74209 0.31579 0.0
N889 N 0.26239 0.68914 0.34397 0.0
C890 C 0.43785 0.72375 0.32985 0.0
C891 C 0.322 0.69663 0.34401 0.0
N892 N 0.42891 0.78037 0.37099 0.0
N893 N 0.34227 0.62711 0.32153 0.0
H894 H 0.23289 0.71017 0.3551 0.0
H895 H 0.24207 0.66489 0.32994 0.0
H896 H 0.36894 0.6053 0.30973 0.0
H897 H 0.30284 0.61394 0.33046 0.0
H898 H 0.47358 0.78865 0.36946 0.0
H899 H 0.40544 0.79807 0.38838 0.0
H900 H 0.50013 0.77375 0.32027 0.0
H901 H 0.5094 0.7268 0.29689 0.0
C902 C 0.16236 0.83627 0.87392 0.0
C903 C 0.19567 0.80949 0.85305 0.0
C904 C 0.12151 0.81814 0.80885 0.0
C905 C 0.09656 0.85336 0.82625 0.0
N906 N 0.09366 0.89408 0.8786 0.0
N907 N 0.20836 0.77506 0.79993 0.0
C908 C 0.11603 0.86141 0.85996 0.0
C909 C 0.17533 0.80005 0.82041 0.0
N910 N 0.17469 0.83728 0.90741 0.0
N911 N 0.09294 0.80113 0.78172 0.0
H912 H 0.24724 0.76031 0.80783 0.0
H913 H 0.19923 0.77147 0.77454 0.0
H914 H 0.05168 0.81174 0.77376 0.0
H915 H 0.10662 0.77331 0.76975 0.0
H916 H 0.14767 0.852 0.92479 0.0
H917 H 0.20868 0.81953 0.91831 0.0
H918 H 0.11471 0.90577 0.89999 0.0
H919 H 0.056 0.91128 0.8731 0.0
loop_
_geom_bond_atom_site_label_1
_geom_bond_atom_site_label_2
_geom_bond_distance
_geom_bond_site_symmetry_2
_ccdc_geom_bond_type
H0 C1 0.949 . S
C1 H0 0.949 . S
C1 C2 1.395 . S
C1 C3 1.391 . S
C2 C1 1.395 . S
C2 C5 1.390 . S
C3 C1 1.391 . S
C3 C7 1.387 . S
C3 C8 1.491 . S
H4 C5 0.950 . S
C5 C2 1.390 . S
C5 H4 0.950 . S
C5 C6 1.378 . S
C6 C5 1.378 . S
C6 C7 1.409 . S
C7 C3 1.387 . S
C7 C6 1.409 . S
C7 H9 0.951 . S
C8 C3 1.491 . S
C8 C10 1.382 . S
C8 C12 1.404 . S
H9 C7 0.951 . S
C10 C8 1.382 . S
C10 C11 1.390 . S
C10 H15 0.949 . S
C11 C10 1.390 . S
C11 C16 1.399 . S
C12 C8 1.404 . S
C12 H13 0.950 . S
C12 C14 1.375 . S
H13 C12 0.950 . S
C14 C12 1.375 . S
C14 C16 1.382 . S
C14 H18 0.950 . S
H15 C10 0.949 . S
C16 C11 1.399 . S
C16 C14 1.382 . S
C16 H17 0.952 . S
H17 C16 0.952 . S
H18 C14 0.950 . S
H19 C20 0.949 . S
C20 H19 0.949 . S
C20 C21 1.395 . S
C20 C22 1.391 . S
C21 C20 1.395 . S
C21 C24 1.390 . S
C22 C20 1.391 . S
C22 C26 1.387 . S
C22 C27 1.491 . S
H23 C24 0.950 . S
C24 C21 1.390 . S
C24 H23 0.950 . S
C24 C25 1.378 . S
C25 C24 1.378 . S
C25 C26 1.409 . S
C26 C22 1.387 . S
C26 C25 1.409 . S
C26 H28 0.951 . S
C27 C22 1.491 . S
C27 C29 1.382 . S
C27 C31 1.404 . S
H28 C26 0.951 . S
C29 C27 1.382 . S
C29 C30 1.390 . S
C29 H34 0.949 . S
C30 C29 1.390 . S
C30 C35 1.399 . S
C31 C27 1.404 . S
C31 H32 0.950 . S
C31 C33 1.375 . S
H32 C31 0.950 . S
C33 C31 1.375 . S
C33 C35 1.382 . S
C33 H37 0.950 . S
H34 C29 0.949 . S
C35 C30 1.399 . S
C35 C33 1.382 . S
C35 H36 0.952 . S
H36 C35 0.952 . S
H37 C33 0.950 . S
H38 C39 0.949 . S
C39 H38 0.949 . S
C39 C40 1.395 . S
C39 C41 1.391 . S
C40 C39 1.395 . S
C40 C43 1.390 . S
C41 C39 1.391 . S
C41 C45 1.387 . S
C41 C46 1.491 . S
H42 C43 0.950 . S
C43 C40 1.390 . S
C43 H42 0.950 . S
C43 C44 1.378 . S
C44 C43 1.378 . S
C44 C45 1.409 . S
C45 C41 1.387 . S
C45 C44 1.409 . S
C45 H47 0.951 . S
C46 C41 1.491 . S
C46 C48 1.382 . S
C46 C50 1.404 . S
H47 C45 0.951 . S
C48 C46 1.382 . S
C48 C49 1.390 . S
C48 H53 0.949 . S
C49 C48 1.390 . S
C49 C54 1.399 . S
C50 C46 1.404 . S
C50 H51 0.950 . S
C50 C52 1.375 . S
H51 C50 0.950 . S
C52 C50 1.375 . S
C52 C54 1.382 . S
C52 H56 0.950 . S
H53 C48 0.949 . S
C54 C49 1.399 . S
C54 C52 1.382 . S
C54 H55 0.952 . S
H55 C54 0.952 . S
H56 C52 0.950 . S
H57 C58 0.949 . S
C58 H57 0.949 . S
C58 C59 1.395 . S
C58 C60 1.391 . S
C59 C58 1.395 . S
C59 C62 1.390 . S
C60 C58 1.391 . S
C60 C64 1.387 . S
C60 C65 1.491 . S
H61 C62 0.950 . S
C62 C59 1.390 . S
C62 H61 0.950 . S
C62 C63 1.378 . S
C63 C62 1.378 . S
C63 C64 1.409 . S
C64 C60 1.387 . S
C64 C63 1.409 . S
C64 H66 0.951 . S
C65 C60 1.491 . S
C65 C67 1.382 . S
C65 C69 1.404 . S
H66 C64 0.951 . S
C67 C65 1.382 . S
C67 C68 1.390 . S
C67 H72 0.949 . S
C68 C67 1.390 . S
C68 C73 1.399 . S
C69 C65 1.404 . S
C69 H70 0.950 . S
C69 C71 1.375 . S
H70 C69 0.950 . S
C71 C69 1.375 . S
C71 C73 1.382 . S
C71 H75 0.950 . S
H72 C67 0.949 . S
C73 C68 1.399 . S
C73 C71 1.382 . S
C73 H74 0.952 . S
H74 C73 0.952 . S
H75 C71 0.950 . S
H76 C77 0.949 . S
C77 H76 0.949 . S
C77 C78 1.395 . S
C77 C79 1.391 . S
C78 C77 1.395 . S
C78 C81 1.390 . S
C79 C77 1.391 . S
C79 C83 1.387 . S
C79 C84 1.491 . S
H80 C81 0.950 . S
C81 C78 1.390 . S
C81 H80 0.950 . S
C81 C82 1.378 . S
C82 C81 1.378 . S
C82 C83 1.409 . S
C83 C79 1.387 . S
C83 C82 1.409 . S
C83 H85 0.951 . S
C84 C79 1.491 . S
C84 C86 1.382 . S
C84 C88 1.404 . S
H85 C83 0.951 . S
C86 C84 1.382 . S
C86 C87 1.390 . S
C86 H91 0.949 . S
C87 C86 1.390 . S
C87 C92 1.399 . S
C88 C84 1.404 . S
C88 H89 0.950 . S
C88 C90 1.375 . S
H89 C88 0.950 . S
C90 C88 1.375 . S
C90 C92 1.382 . S
C90 H94 0.950 . S
H91 C86 0.949 . S
C92 C87 1.399 . S
C92 C90 1.382 . S
C92 H93 0.952 . S
H93 C92 0.952 . S
H94 C90 0.950 . S
H95 C96 0.949 . S
C96 H95 0.949 . S
C96 C97 1.395 . S
C96 C98 1.391 . S
C97 C96 1.395 . S
C97 C100 1.390 . S
C98 C96 1.391 . S
C98 C102 1.387 . S
C98 C103 1.491 . S
H99 C100 0.950 . S
C100 C97 1.390 . S
C100 H99 0.950 . S
C100 C101 1.378 . S
C101 C100 1.378 . S
C101 C102 1.409 . S
C102 C98 1.387 . S
C102 C101 1.409 . S
C102 H104 0.951 . S
C103 C98 1.491 . S
C103 C105 1.382 . S
C103 C107 1.404 . S
H104 C102 0.951 . S
C105 C103 1.382 . S
C105 C106 1.390 . S
C105 H110 0.949 . S
C106 C105 1.390 . S
C106 C111 1.399 . S
C107 C103 1.404 . S
C107 H108 0.950 . S
C107 C109 1.375 . S
H108 C107 0.950 . S
C109 C107 1.375 . S
C109 C111 1.382 . S
C109 H113 0.950 . S
H110 C105 0.949 . S
C111 C106 1.399 . S
C111 C109 1.382 . S
C111 H112 0.952 . S
H112 C111 0.952 . S
H113 C109 0.950 . S
H114 C115 0.949 . S
C115 H114 0.949 . S
C115 C116 1.395 . S
C115 C117 1.391 . S
C116 C115 1.395 . S
C116 C119 1.390 . S
C117 C115 1.391 . S
C117 C121 1.387 . S
C117 C122 1.491 . S
H118 C119 0.950 . S
C119 C116 1.390 . S
C119 H118 0.950 . S
C119 C120 1.378 . S
C120 C119 1.378 . S
C120 C121 1.409 . S
C121 C117 1.387 . S
C121 C120 1.409 . S
C121 H123 0.951 . S
C122 C117 1.491 . S
C122 C124 1.382 . S
C122 C126 1.404 . S
H123 C121 0.951 . S
C124 C122 1.382 . S
C124 C125 1.390 . S
C124 H129 0.949 . S
C125 C124 1.390 . S
C125 C130 1.399 . S
C126 C122 1.404 . S
C126 H127 0.950 . S
C126 C128 1.375 . S
H127 C126 0.950 . S
C128 C126 1.375 . S
C128 C130 1.382 . S
C128 H132 0.950 . S
H129 C124 0.949 . S
C130 C125 1.399 . S
C130 C128 1.382 . S
C130 H131 0.952 . S
H131 C130 0.952 . S
H132 C128 0.950 . S
H133 C134 0.949 . S
C134 H133 0.949 . S
C134 C135 1.395 . S
C134 C136 1.391 . S
C135 C134 1.395 . S
C135 C138 1.390 . S
C136 C134 1.391 . S
C136 C140 1.387 . S
C136 C141 1.491 . S
H137 C138 0.950 . S
C138 C135 1.390 . S
C138 H137 0.950 . S
C138 C139 1.378 . S
C139 C138 1.378 . S
C139 C140 1.409 . S
C140 C136 1.387 . S
C140 C139 1.409 . S
C140 H142 0.951 . S
C141 C136 1.491 . S
C141 C143 1.382 . S
C141 C145 1.404 . S
H142 C140 0.951 . S
C143 C141 1.382 . S
C143 C144 1.390 . S
C143 H148 0.949 . S
C144 C143 1.390 . S
C144 C149 1.399 . S
C145 C141 1.404 . S
C145 H146 0.950 . S
C145 C147 1.375 . S
H146 C145 0.950 . S
C147 C145 1.375 . S
C147 C149 1.382 . S
C147 H151 0.950 . S
H148 C143 0.949 . S
C149 C144 1.399 . S
C149 C147 1.382 . S
C149 H150 0.952 . S
H150 C149 0.952 . S
H151 C147 0.950 . S
C152 C154 1.422 . S
C152 C156 1.415 . S
C152 N158 1.369 . S
C153 C154 1.421 1_565 S
C153 C155 1.417 . S
C153 C165 1.422 . S
C154 C152 1.422 . S
C154 C153 1.421 1_545 S
C154 N164 1.359 . S
C155 C153 1.417 . S
C155 C157 1.329 1_565 S
C155 H174 0.930 . S
C156 C152 1.415 . S
C156 C157 1.437 . S
C156 C160 1.413 . S
C157 C155 1.329 1_545 S
C157 C156 1.437 . S
C157 H179 0.929 . S
N158 C152 1.369 . S
N158 C159 1.338 . S
N158 Gd163 2.622 . S
C159 N158 1.338 . S
C159 C161 1.378 . S
C159 H171 0.929 . S
C160 C156 1.413 . S
C160 C161 1.348 . S
C160 H176 0.931 . S
C161 C159 1.378 . S
C161 C160 1.348 . S
C161 H177 0.930 . S
Gd162 N182 2.622 . S
Gd162 N189 2.570 . S
Gd162 O196 2.353 1_455 S
Gd162 O197 2.468 . S
Gd162 O198 2.427 . S
Gd162 O200 2.388 . S
Gd162 O201 2.386 . S
Gd162 O205 2.307 1_455 S
Gd162 C215 2.805 . S
Gd163 N158 2.622 . S
Gd163 N164 2.570 . S
Gd163 O195 2.386 . S
Gd163 O199 2.307 1_655 S
Gd163 O202 2.353 1_655 S
Gd163 O203 2.468 . S
Gd163 O204 2.427 . S
Gd163 O206 2.388 . S
Gd163 C227 2.805 . S
N164 C154 1.359 . S
N164 Gd163 2.570 . S
N164 C166 1.343 1_545 S
C165 C153 1.422 . S
C165 C167 1.321 . S
C165 H173 0.931 . S
C166 N164 1.343 1_565 S
C166 C167 1.390 . S
C166 H168 0.931 . S
C167 C165 1.321 . S
C167 C166 1.390 . S
C167 H169 0.930 . S
H168 C166 0.931 . S
H169 C167 0.930 . S
H170 C193 0.931 . S
H171 C159 0.929 . S
H172 C194 0.930 . S
H173 C165 0.931 . S
H174 C155 0.930 . S
H175 C184 0.929 . S
H176 C160 0.931 . S
H177 C161 0.930 . S
H178 C216 0.930 . S
H179 C157 0.929 . S
H180 C185 0.931 . S
H181 C186 0.930 . S
N182 Gd162 2.622 . S
N182 C183 1.369 . S
N182 C184 1.338 . S
C183 N182 1.369 . S
C183 C187 1.415 . S
C183 C190 1.422 . S
C184 H175 0.929 . S
C184 N182 1.338 . S
C184 C186 1.378 . S
C185 H180 0.931 . S
C185 C186 1.348 . S
C185 C187 1.413 . S
C186 H181 0.930 . S
C186 C184 1.378 . S
C186 C185 1.348 . S
C187 C183 1.415 . S
C187 C185 1.413 . S
C187 C217 1.437 . S
H188 C217 0.929 . S
N189 Gd162 2.570 . S
N189 C190 1.359 . S
N189 C193 1.343 . S
C190 C183 1.422 . S
C190 N189 1.359 . S
C190 C192 1.421 . S
C191 C192 1.422 . S
C191 C194 1.321 . S
C191 H218 0.931 . S
C192 C190 1.421 . S
C192 C191 1.422 . S
C192 C216 1.417 . S
C193 H170 0.931 . S
C193 N189 1.343 . S
C193 C194 1.390 . S
C194 H172 0.930 . S
C194 C191 1.321 . S
C194 C193 1.390 . S
O195 Gd163 2.386 . S
O195 C207 1.265 . S
O196 Gd162 2.353 1_655 S
O196 C207 1.242 . S
O197 Gd162 2.468 . S
O197 C215 1.263 . S
O198 Gd162 2.427 . S
O198 C215 1.252 . S
O199 Gd163 2.307 1_455 S
O199 C208 1.261 . S
O200 Gd162 2.388 . S
O200 C208 1.252 . S
O201 Gd162 2.386 . S
O201 C219 1.265 . S
O202 Gd163 2.353 1_455 S
O202 C219 1.242 . S
O203 Gd163 2.468 . S
O203 C227 1.263 . S
O204 Gd163 2.427 . S
O204 C227 1.252 . S
O205 Gd162 2.307 1_655 S
O205 C220 1.261 . S
O206 Gd163 2.388 . S
O206 C220 1.252 . S
C207 O195 1.265 . S
C207 O196 1.242 . S
C208 O199 1.261 . S
C208 O200 1.252 . S
C209 C212 1.394 . S
C209 C214 1.370 . S
C209 C215 1.500 . S
C210 C213 1.383 . S
C210 C214 1.395 . S
C211 C212 1.396 . S
C211 C213 1.365 . S
C211 H228 0.929 1_545 S
C212 C209 1.394 . S
C212 C211 1.396 . S
C212 H229 0.930 . S
C213 C210 1.383 . S
C213 C211 1.365 . S
C213 H230 0.931 . S
C214 C209 1.370 . S
C214 C210 1.395 . S
C214 H231 0.930 . S
C215 Gd162 2.805 . S
C215 O197 1.263 . S
C215 O198 1.252 . S
C215 C209 1.500 . S
C216 H178 0.930 . S
C216 C192 1.417 . S
C216 C217 1.329 . S
C217 C187 1.437 . S
C217 H188 0.929 . S
C217 C216 1.329 . S
H218 C191 0.931 . S
C219 O201 1.265 . S
C219 O202 1.242 . S
C220 O205 1.261 . S
C220 O206 1.252 . S
C221 C224 1.394 . S
C221 C226 1.370 . S
C221 C227 1.500 . S
C222 C225 1.383 . S
C222 C226 1.395 . S
C223 C224 1.396 . S
C223 C225 1.365 . S
C223 H232 0.929 . S
C224 C221 1.394 . S
C224 C223 1.396 . S
C224 H233 0.930 . S
C225 C222 1.383 . S
C225 C223 1.365 . S
C225 H234 0.931 . S
C226 C221 1.370 . S
C226 C222 1.395 . S
C226 H235 0.930 . S
C227 Gd163 2.805 . S
C227 O203 1.263 . S
C227 O204 1.252 . S
C227 C221 1.500 . S
H228 C211 0.929 1_565 S
H229 C212 0.930 . S
H230 C213 0.931 . S
H231 C214 0.930 . S
H232 C223 0.929 . S
H233 C224 0.930 . S
H234 C225 0.931 . S
H235 C226 0.930 . S
C236 C238 1.422 . S
C236 C240 1.415 . S
C236 N242 1.369 . S
C237 C238 1.421 . S
C237 C239 1.417 . S
C237 C249 1.422 . S
C238 C236 1.422 . S
C238 C237 1.421 . S
C238 N248 1.359 . S
C239 C237 1.417 . S
C239 C241 1.329 . S
C239 H258 0.930 . S
C240 C236 1.415 . S
C240 C241 1.437 . S
C240 C244 1.413 . S
C241 C239 1.329 . S
C241 C240 1.437 . S
C241 H263 0.929 . S
N242 C236 1.369 . S
N242 C243 1.338 . S
N242 Gd247 2.622 . S
C243 N242 1.338 . S
C243 C245 1.378 . S
C243 H255 0.929 . S
C244 C240 1.413 . S
C244 C245 1.348 . S
C244 H260 0.931 . S
C245 C243 1.378 . S
C245 C244 1.348 . S
C245 H261 0.930 . S
Gd246 N266 2.622 . S
Gd246 N273 2.570 . S
Gd246 O280 2.353 . S
Gd246 O281 2.468 . S
Gd246 O282 2.427 . S
Gd246 O284 2.388 . S
Gd246 O285 2.386 . S
Gd246 O289 2.307 . S
Gd246 C299 2.805 . S
Gd247 N242 2.622 . S
Gd247 N248 2.570 . S
Gd247 O279 2.386 . S
Gd247 O283 2.307 . S
Gd247 O286 2.353 . S
Gd247 O287 2.468 . S
Gd247 O288 2.427 . S
Gd247 O290 2.388 . S
Gd247 C311 2.805 . S
N248 C238 1.359 . S
N248 Gd247 2.570 . S
N248 C250 1.343 . S
C249 C237 1.422 . S
C249 C251 1.321 . S
C249 H257 0.931 . S
C250 N248 1.343 . S
C250 C251 1.390 . S
C250 H252 0.931 . S
C251 C249 1.321 . S
C251 C250 1.390 . S
C251 H253 0.930 . S
H252 C250 0.931 . S
H253 C251 0.930 . S
H254 C277 0.931 . S
H255 C243 0.929 . S
H256 C278 0.930 . S
H257 C249 0.931 . S
H258 C239 0.930 . S
H259 C268 0.929 . S
H260 C244 0.931 . S
H261 C245 0.930 . S
H262 C300 0.930 . S
H263 C241 0.929 . S
H264 C269 0.931 . S
H265 C270 0.930 . S
N266 Gd246 2.622 . S
N266 C267 1.369 . S
N266 C268 1.338 . S
C267 N266 1.369 . S
C267 C271 1.415 . S
C267 C274 1.422 . S
C268 H259 0.929 . S
C268 N266 1.338 . S
C268 C270 1.378 . S
C269 H264 0.931 . S
C269 C270 1.348 . S
C269 C271 1.413 . S
C270 H265 0.930 . S
C270 C268 1.378 . S
C270 C269 1.348 . S
C271 C267 1.415 . S
C271 C269 1.413 . S
C271 C301 1.437 . S
H272 C301 0.929 . S
N273 Gd246 2.570 . S
N273 C274 1.359 . S
N273 C277 1.343 . S
C274 C267 1.422 . S
C274 N273 1.359 . S
C274 C276 1.421 . S
C275 C276 1.422 . S
C275 C278 1.321 . S
C275 H302 0.931 . S
C276 C274 1.421 . S
C276 C275 1.422 . S
C276 C300 1.417 . S
C277 H254 0.931 . S
C277 N273 1.343 . S
C277 C278 1.390 . S
C278 H256 0.930 . S
C278 C275 1.321 . S
C278 C277 1.390 . S
O279 Gd247 2.386 . S
O279 C291 1.265 . S
O280 Gd246 2.353 . S
O280 C291 1.242 . S
O281 Gd246 2.468 . S
O281 C299 1.263 . S
O282 Gd246 2.427 . S
O282 C299 1.252 . S
O283 Gd247 2.307 . S
O283 C292 1.261 . S
O284 Gd246 2.388 . S
O284 C292 1.252 . S
O285 Gd246 2.386 . S
O285 C303 1.265 . S
O286 Gd247 2.353 . S
O286 C303 1.242 . S
O287 Gd247 2.468 . S
O287 C311 1.263 . S
O288 Gd247 2.427 . S
O288 C311 1.252 . S
O289 Gd246 2.307 . S
O289 C304 1.261 . S
O290 Gd247 2.388 . S
O290 C304 1.252 . S
C291 O279 1.265 . S
C291 O280 1.242 . S
C292 O283 1.261 . S
C292 O284 1.252 . S
C293 C296 1.394 . S
C293 C298 1.370 . S
C293 C299 1.500 . S
C294 C297 1.383 . S
C294 C298 1.395 . S
C295 C296 1.396 . S
C295 C297 1.365 . S
C295 H312 0.929 . S
C296 C293 1.394 . S
C296 C295 1.396 . S
C296 H313 0.930 . S
C297 C294 1.383 . S
C297 C295 1.365 . S
C297 H314 0.931 . S
C298 C293 1.370 . S
C298 C294 1.395 . S
C298 H315 0.930 . S
C299 Gd246 2.805 . S
C299 O281 1.263 . S
C299 O282 1.252 . S
C299 C293 1.500 . S
C300 H262 0.930 . S
C300 C276 1.417 . S
C300 C301 1.329 . S
C301 C271 1.437 . S
C301 H272 0.929 . S
C301 C300 1.329 . S
H302 C275 0.931 . S
C303 O285 1.265 . S
C303 O286 1.242 . S
C304 O289 1.261 . S
C304 O290 1.252 . S
C305 C308 1.394 . S
C305 C310 1.370 . S
C305 C311 1.500 . S
C306 C309 1.383 . S
C306 C310 1.395 . S
C307 C308 1.396 . S
C307 C309 1.365 . S
C307 H316 0.929 . S
C308 C305 1.394 . S
C308 C307 1.396 . S
C308 H317 0.930 . S
C309 C306 1.383 . S
C309 C307 1.365 . S
C309 H318 0.931 . S
C310 C305 1.370 . S
C310 C306 1.395 . S
C310 H319 0.930 . S
C311 Gd247 2.805 . S
C311 O287 1.263 . S
C311 O288 1.252 . S
C311 C305 1.500 . S
H312 C295 0.929 . S
H313 C296 0.930 . S
H314 C297 0.931 . S
H315 C298 0.930 . S
H316 C307 0.929 . S
H317 C308 0.930 . S
H318 C309 0.931 . S
H319 C310 0.930 . S
C320 C322 1.422 . S
C320 C324 1.415 . S
C320 N326 1.369 . S
C321 C322 1.421 . S
C321 C323 1.417 . S
C321 C333 1.422 . S
C322 C320 1.422 . S
C322 C321 1.421 . S
C322 N332 1.359 . S
C323 C321 1.417 . S
C323 C325 1.329 . S
C323 H342 0.930 . S
C324 C320 1.415 . S
C324 C325 1.437 . S
C324 C328 1.413 . S
C325 C323 1.329 . S
C325 C324 1.437 . S
C325 H347 0.929 . S
N326 C320 1.369 . S
N326 C327 1.338 . S
N326 Gd331 2.622 . S
C327 N326 1.338 . S
C327 C329 1.378 . S
C327 H339 0.929 . S
C328 C324 1.413 . S
C328 C329 1.348 . S
C328 H344 0.931 . S
C329 C327 1.378 . S
C329 C328 1.348 . S
C329 H345 0.930 . S
Gd330 N350 2.622 . S
Gd330 N357 2.570 . S
Gd330 O364 2.348 1_455 S
Gd330 O365 2.468 . S
Gd330 O366 2.427 . S
Gd330 O368 2.388 . S
Gd330 O369 2.386 . S
Gd330 O373 2.294 1_455 S
Gd330 C383 2.805 . S
Gd331 N326 2.622 . S
Gd331 N332 2.570 . S
Gd331 O363 2.386 . S
Gd331 O367 2.307 1_655 S
Gd331 O370 2.353 1_655 S
Gd331 O371 2.468 . S
Gd331 O372 2.427 . S
Gd331 O374 2.388 . S
Gd331 C395 2.805 . S
N332 C322 1.359 . S
N332 Gd331 2.570 . S
N332 C334 1.343 . S
C333 C321 1.422 . S
C333 C335 1.321 . S
C333 H341 0.931 . S
C334 N332 1.343 . S
C334 C335 1.390 . S
C334 H336 0.931 . S
C335 C333 1.321 . S
C335 C334 1.390 . S
C335 H337 0.930 . S
H336 C334 0.931 . S
H337 C335 0.930 . S
H338 C361 0.931 . S
H339 C327 0.929 . S
H340 C362 0.930 . S
H341 C333 0.931 . S
H342 C323 0.930 . S
H343 C352 0.929 . S
H344 C328 0.931 . S
H345 C329 0.930 . S
H346 C384 0.930 . S
H347 C325 0.929 . S
H348 C353 0.931 . S
H349 C354 0.930 . S
N350 Gd330 2.622 . S
N350 C351 1.369 . S
N350 C352 1.338 . S
C351 N350 1.369 . S
C351 C355 1.415 . S
C351 C358 1.422 . S
C352 H343 0.929 . S
C352 N350 1.338 . S
C352 C354 1.378 . S
C353 H348 0.931 . S
C353 C354 1.348 . S
C353 C355 1.413 . S
C354 H349 0.930 . S
C354 C352 1.378 . S
C354 C353 1.348 . S
C355 C351 1.415 . S
C355 C353 1.413 . S
C355 C385 1.437 . S
H356 C385 0.929 . S
N357 Gd330 2.570 . S
N357 C358 1.359 . S
N357 C361 1.343 1_565 S
C358 C351 1.422 . S
C358 N357 1.359 . S
C358 C360 1.421 1_565 S
C359 C360 1.422 . S
C359 C362 1.321 . S
C359 H386 0.931 . S
C360 C358 1.421 1_545 S
C360 C359 1.422 . S
C360 C384 1.417 . S
C361 H338 0.931 . S
C361 N357 1.343 1_545 S
C361 C362 1.390 . S
C362 H340 0.930 . S
C362 C359 1.321 . S
C362 C361 1.390 . S
O363 Gd331 2.386 . S
O363 C375 1.265 . S
O364 Gd330 2.348 1_655 S
O364 C375 1.248 . S
O365 Gd330 2.468 . S
O365 C383 1.263 . S
O366 Gd330 2.427 . S
O366 C383 1.252 . S
O367 Gd331 2.307 1_455 S
O367 C376 1.261 . S
O368 Gd330 2.388 . S
O368 C376 1.252 . S
O369 Gd330 2.386 . S
O369 C387 1.265 . S
O370 Gd331 2.353 1_455 S
O370 C387 1.242 . S
O371 Gd331 2.468 . S
O371 C395 1.263 . S
O372 Gd331 2.427 . S
O372 C395 1.252 . S
O373 Gd330 2.294 1_655 S
O373 C388 1.276 . S
O374 Gd331 2.388 . S
O374 C388 1.252 . S
C375 O363 1.265 . S
C375 O364 1.248 . S
C376 O367 1.261 . S
C376 O368 1.252 . S
C377 C380 1.394 . S
C377 C382 1.370 . S
C377 C383 1.500 . S
C378 C381 1.383 . S
C378 C382 1.395 . S
C379 C380 1.396 . S
C379 C381 1.365 . S
C379 H396 0.929 . S
C380 C377 1.394 . S
C380 C379 1.396 . S
C380 H397 0.930 . S
C381 C378 1.383 . S
C381 C379 1.365 . S
C381 H398 0.931 . S
C382 C377 1.370 . S
C382 C378 1.395 . S
C382 H399 0.930 . S
C383 Gd330 2.805 . S
C383 O365 1.263 . S
C383 O366 1.252 . S
C383 C377 1.500 . S
C384 H346 0.930 . S
C384 C360 1.417 . S
C384 C385 1.329 1_545 S
C385 C355 1.437 . S
C385 H356 0.929 . S
C385 C384 1.329 1_565 S
H386 C359 0.931 . S
C387 O369 1.265 . S
C387 O370 1.242 . S
C388 O373 1.276 . S
C388 O374 1.252 . S
C389 C392 1.394 . S
C389 C394 1.370 . S
C389 C395 1.500 . S
C390 C393 1.383 . S
C390 C394 1.395 . S
C391 C392 1.396 . S
C391 C393 1.365 . S
C391 H400 0.929 1_565 S
C392 C389 1.394 . S
C392 C391 1.396 . S
C392 H401 0.930 . S
C393 C390 1.383 . S
C393 C391 1.365 . S
C393 H402 0.931 . S
C394 C389 1.370 . S
C394 C390 1.395 . S
C394 H403 0.930 . S
C395 Gd331 2.805 . S
C395 O371 1.263 . S
C395 O372 1.252 . S
C395 C389 1.500 . S
H396 C379 0.929 . S
H397 C380 0.930 . S
H398 C381 0.931 . S
H399 C382 0.930 . S
H400 C391 0.929 1_545 S
H401 C392 0.930 . S
H402 C393 0.931 . S
H403 C394 0.930 . S
C404 C406 1.422 . S
C404 C408 1.415 . S
C404 N410 1.369 . S
C405 C406 1.421 . S
C405 C407 1.417 . S
C405 C417 1.422 . S
C406 C404 1.422 . S
C406 C405 1.421 . S
C406 N416 1.359 . S
C407 C405 1.417 . S
C407 C409 1.329 . S
C407 H426 0.930 . S
C408 C404 1.415 . S
C408 C409 1.437 . S
C408 C412 1.413 . S
C409 C407 1.329 . S
C409 C408 1.437 . S
C409 H431 0.929 . S
N410 C404 1.369 . S
N410 C411 1.338 . S
N410 Gd415 2.622 . S
C411 N410 1.338 . S
C411 C413 1.378 . S
C411 H423 0.929 . S
C412 C408 1.413 . S
C412 C413 1.348 . S
C412 H428 0.931 . S
C413 C411 1.378 . S
C413 C412 1.348 . S
C413 H429 0.930 . S
Gd414 N434 2.622 . S
Gd414 N441 2.570 . S
Gd414 O448 2.353 . S
Gd414 O449 2.468 . S
Gd414 O450 2.427 . S
Gd414 O452 2.388 . S
Gd414 O453 2.386 . S
Gd414 O457 2.307 . S
Gd414 C467 2.805 . S
Gd415 N410 2.622 . S
Gd415 N416 2.570 . S
Gd415 O447 2.386 . S
Gd415 O451 2.307 . S
Gd415 O454 2.353 . S
Gd415 O455 2.468 . S
Gd415 O456 2.427 . S
Gd415 O458 2.388 . S
Gd415 C479 2.805 . S
N416 C406 1.359 . S
N416 Gd415 2.570 . S
N416 C418 1.343 . S
C417 C405 1.422 . S
C417 C419 1.321 . S
C417 H425 0.931 . S
C418 N416 1.343 . S
C418 C419 1.390 . S
C418 H420 0.931 . S
C419 C417 1.321 . S
C419 C418 1.390 . S
C419 H421 0.930 . S
H420 C418 0.931 . S
H421 C419 0.930 . S
H422 C445 0.931 . S
H423 C411 0.929 . S
H424 C446 0.930 . S
H425 C417 0.931 . S
H426 C407 0.930 . S
H427 C436 0.929 . S
H428 C412 0.931 . S
H429 C413 0.930 . S
H430 C468 0.930 . S
H431 C409 0.929 . S
H432 C437 0.931 . S
H433 C438 0.930 . S
N434 Gd414 2.622 . S
N434 C435 1.369 . S
N434 C436 1.338 . S
C435 N434 1.369 . S
C435 C439 1.415 . S
C435 C442 1.422 . S
C436 H427 0.929 . S
C436 N434 1.338 . S
C436 C438 1.378 . S
C437 H432 0.931 . S
C437 C438 1.348 . S
C437 C439 1.413 . S
C438 H433 0.930 . S
C438 C436 1.378 . S
C438 C437 1.348 . S
C439 C435 1.415 . S
C439 C437 1.413 . S
C439 C469 1.437 . S
H440 C469 0.929 . S
N441 Gd414 2.570 . S
N441 C442 1.359 . S
N441 C445 1.343 . S
C442 C435 1.422 . S
C442 N441 1.359 . S
C442 C444 1.421 . S
C443 C444 1.422 . S
C443 C446 1.321 . S
C443 H470 0.931 . S
C444 C442 1.421 . S
C444 C443 1.422 . S
C444 C468 1.417 . S
C445 H422 0.931 . S
C445 N441 1.343 . S
C445 C446 1.390 . S
C446 H424 0.930 . S
C446 C443 1.321 . S
C446 C445 1.390 . S
O447 Gd415 2.386 . S
O447 C459 1.265 . S
O448 Gd414 2.353 . S
O448 C459 1.242 . S
O449 Gd414 2.468 . S
O449 C467 1.263 . S
O450 Gd414 2.427 . S
O450 C467 1.252 . S
O451 Gd415 2.307 . S
O451 C460 1.261 . S
O452 Gd414 2.388 . S
O452 C460 1.252 . S
O453 Gd414 2.386 . S
O453 C471 1.265 . S
O454 Gd415 2.353 . S
O454 C471 1.242 . S
O455 Gd415 2.468 . S
O455 C479 1.263 . S
O456 Gd415 2.427 . S
O456 C479 1.252 . S
O457 Gd414 2.307 . S
O457 C472 1.261 . S
O458 Gd415 2.388 . S
O458 C472 1.252 . S
C459 O447 1.265 . S
C459 O448 1.242 . S
C460 O451 1.261 . S
C460 O452 1.252 . S
C461 C464 1.394 . S
C461 C466 1.370 . S
C461 C467 1.500 . S
C462 C465 1.383 . S
C462 C466 1.395 . S
C463 C464 1.396 . S
C463 C465 1.365 . S
C463 H480 0.929 . S
C464 C461 1.394 . S
C464 C463 1.396 . S
C464 H481 0.930 . S
C465 C462 1.383 . S
C465 C463 1.365 . S
C465 H482 0.931 . S
C466 C461 1.370 . S
C466 C462 1.395 . S
C466 H483 0.930 . S
C467 Gd414 2.805 . S
C467 O449 1.263 . S
C467 O450 1.252 . S
C467 C461 1.500 . S
C468 H430 0.930 . S
C468 C444 1.417 . S
C468 C469 1.329 . S
C469 C439 1.437 . S
C469 H440 0.929 . S
C469 C468 1.329 . S
H470 C443 0.931 . S
C471 O453 1.265 . S
C471 O454 1.242 . S
C472 O457 1.261 . S
C472 O458 1.252 . S
C473 C476 1.394 . S
C473 C478 1.370 . S
C473 C479 1.500 . S
C474 C477 1.383 . S
C474 C478 1.395 . S
C475 C476 1.396 . S
C475 C477 1.365 . S
C475 H484 0.929 . S
C476 C473 1.394 . S
C476 C475 1.396 . S
C476 H485 0.930 . S
C477 C474 1.383 . S
C477 C475 1.365 . S
C477 H486 0.931 . S
C478 C473 1.370 . S
C478 C474 1.395 . S
C478 H487 0.930 . S
C479 Gd415 2.805 . S
C479 O455 1.263 . S
C479 O456 1.252 . S
C479 C473 1.500 . S
H480 C463 0.929 . S
H481 C464 0.930 . S
H482 C465 0.931 . S
H483 C466 0.930 . S
H484 C475 0.929 . S
H485 C476 0.930 . S
H486 C477 0.931 . S
H487 C478 0.930 . S
C488 C489 1.363 . S
C488 C494 1.379 . S
C488 N496 1.356 . S
C489 C488 1.363 . S
C489 C495 1.363 . S
C490 C491 1.363 . S
C490 C495 1.379 . S
C490 N497 1.356 . S
C491 C490 1.363 . S
C491 C494 1.363 . S
N492 C494 1.356 1_545 S
N492 H504 0.984 . S
N492 H505 0.985 . S
N493 C495 1.356 . S
N493 H498 0.984 . S
N493 H499 0.985 . S
C494 C488 1.379 . S
C494 C491 1.363 . S
C494 N492 1.356 1_565 S
C495 C489 1.363 . S
C495 C490 1.379 . S
C495 N493 1.356 . S
N496 C488 1.356 . S
N496 H502 0.984 . S
N496 H503 0.984 . S
N497 C490 1.356 . S
N497 H500 0.984 . S
N497 H501 0.985 . S
H498 N493 0.984 . S
H499 N493 0.985 . S
H500 N497 0.984 . S
H501 N497 0.985 . S
H502 N496 0.984 . S
H503 N496 0.984 . S
H504 N492 0.984 . S
H505 N492 0.985 . S
C506 C507 1.363 . S
C506 C512 1.379 . S
C506 N514 1.356 . S
C507 C506 1.363 . S
C507 C513 1.363 . S
C508 C509 1.363 . S
C508 C513 1.379 . S
C508 N515 1.356 . S
C509 C508 1.363 . S
C509 C512 1.363 . S
N510 C512 1.356 . S
N510 H522 0.984 . S
N510 H523 0.985 . S
N511 C513 1.356 . S
N511 H516 0.984 . S
N511 H517 0.985 . S
C512 C506 1.379 . S
C512 C509 1.363 . S
C512 N510 1.356 . S
C513 C507 1.363 . S
C513 C508 1.379 . S
C513 N511 1.356 . S
N514 C506 1.356 . S
N514 H520 0.984 . S
N514 H521 0.984 . S
N515 C508 1.356 . S
N515 H518 0.984 . S
N515 H519 0.985 . S
H516 N511 0.984 . S
H517 N511 0.985 . S
H518 N515 0.984 . S
H519 N515 0.985 . S
H520 N514 0.984 . S
H521 N514 0.984 . S
H522 N510 0.984 . S
H523 N510 0.985 . S
C524 C525 1.363 . S
C524 C530 1.379 . S
C524 N532 1.356 . S
C525 C524 1.363 . S
C525 C531 1.363 . S
C526 C527 1.363 . S
C526 C531 1.379 . S
C526 N533 1.356 . S
C527 C526 1.363 . S
C527 C530 1.363 . S
N528 C530 1.356 . S
N528 H540 0.984 . S
N528 H541 0.985 . S
N529 C531 1.356 . S
N529 H534 0.984 . S
N529 H535 0.985 . S
C530 C524 1.379 . S
C530 C527 1.363 . S
C530 N528 1.356 . S
C531 C525 1.363 . S
C531 C526 1.379 . S
C531 N529 1.356 . S
N532 C524 1.356 . S
N532 H538 0.984 . S
N532 H539 0.984 . S
N533 C526 1.356 . S
N533 H536 0.984 . S
N533 H537 0.985 . S
H534 N529 0.984 . S
H535 N529 0.985 . S
H536 N533 0.984 . S
H537 N533 0.985 . S
H538 N532 0.984 . S
H539 N532 0.984 . S
H540 N528 0.984 . S
H541 N528 0.985 . S
C542 C543 1.363 . S
C542 C548 1.379 . S
C542 N550 1.356 . S
C543 C542 1.363 . S
C543 C549 1.363 . S
C544 C545 1.363 . S
C544 C549 1.379 . S
C544 N551 1.356 1_565 S
C545 C544 1.363 . S
C545 C548 1.363 . S
N546 C548 1.356 . S
N546 H558 0.984 . S
N546 H559 0.985 . S
N547 C549 1.356 . S
N547 H552 0.984 . S
N547 H553 0.985 . S
C548 C542 1.379 . S
C548 C545 1.363 . S
C548 N546 1.356 . S
C549 C543 1.363 . S
C549 C544 1.379 . S
C549 N547 1.356 . S
N550 C542 1.356 . S
N550 H556 0.984 . S
N550 H557 0.984 . S
N551 C544 1.356 1_545 S
N551 H554 0.984 . S
N551 H555 0.985 . S
H552 N547 0.984 . S
H553 N547 0.985 . S
H554 N551 0.984 . S
H555 N551 0.985 . S
H556 N550 0.984 . S
H557 N550 0.984 . S
H558 N546 0.984 . S
H559 N546 0.985 . S
C560 C561 1.363 . S
C560 C566 1.379 . S
C560 N568 1.356 . S
C561 C560 1.363 . S
C561 C567 1.363 . S
C562 C563 1.363 . S
C562 C567 1.379 . S
C562 N569 1.356 . S
C563 C562 1.363 . S
C563 C566 1.363 . S
N564 C566 1.356 1_565 S
N564 H576 0.984 . S
N564 H577 0.985 . S
N565 C567 1.356 . S
N565 H570 0.984 . S
N565 H571 0.985 . S
C566 C560 1.379 . S
C566 C563 1.363 . S
C566 N564 1.356 1_545 S
C567 C561 1.363 . S
C567 C562 1.379 . S
C567 N565 1.356 . S
N568 C560 1.356 . S
N568 H574 0.984 . S
N568 H575 0.984 . S
N569 C562 1.356 . S
N569 H572 0.984 1_655 S
N569 H573 0.985 1_655 S
H570 N565 0.984 . S
H571 N565 0.985 . S
H572 N569 0.984 1_455 S
H573 N569 0.985 1_455 S
H574 N568 0.984 . S
H575 N568 0.984 . S
H576 N564 0.984 . S
H577 N564 0.985 . S
C578 C579 1.363 . S
C578 C584 1.379 . S
C578 N586 1.356 . S
C579 C578 1.363 . S
C579 C585 1.363 . S
C580 C581 1.363 . S
C580 C585 1.379 . S
C580 N587 1.356 . S
C581 C580 1.363 . S
C581 C584 1.363 . S
N582 C584 1.356 . S
N582 H594 0.984 . S
N582 H595 0.985 . S
N583 C585 1.356 . S
N583 H588 0.984 . S
N583 H589 0.985 . S
C584 C578 1.379 . S
C584 C581 1.363 . S
C584 N582 1.356 . S
C585 C579 1.363 . S
C585 C580 1.379 . S
C585 N583 1.356 . S
N586 C578 1.356 . S
N586 H592 0.984 . S
N586 H593 0.984 . S
N587 C580 1.356 . S
N587 H590 0.984 . S
N587 H591 0.985 . S
H588 N583 0.984 . S
H589 N583 0.985 . S
H590 N587 0.984 . S
H591 N587 0.985 . S
H592 N586 0.984 . S
H593 N586 0.984 . S
H594 N582 0.984 . S
H595 N582 0.985 . S
C596 C597 1.363 . S
C596 C602 1.379 . S
C596 N604 1.356 . S
C597 C596 1.363 . S
C597 C603 1.363 . S
C598 C599 1.363 . S
C598 C603 1.379 . S
C598 N605 1.356 . S
C599 C598 1.363 . S
C599 C602 1.363 . S
N600 C602 1.356 . S
N600 H612 0.984 . S
N600 H613 0.985 . S
N601 C603 1.356 . S
N601 H606 0.984 . S
N601 H607 0.985 . S
C602 C596 1.379 . S
C602 C599 1.363 . S
C602 N600 1.356 . S
C603 C597 1.363 . S
C603 C598 1.379 . S
C603 N601 1.356 . S
N604 C596 1.356 . S
N604 H610 0.984 . S
N604 H611 0.984 . S
N605 C598 1.356 . S
N605 H608 0.984 . S
N605 H609 0.985 . S
H606 N601 0.984 . S
H607 N601 0.985 . S
H608 N605 0.984 . S
H609 N605 0.985 . S
H610 N604 0.984 . S
H611 N604 0.984 . S
H612 N600 0.984 . S
H613 N600 0.985 . S
C614 C615 1.363 . S
C614 C620 1.379 . S
C614 N622 1.356 . S
C615 C614 1.363 . S
C615 C621 1.363 . S
C616 C617 1.363 . S
C616 C621 1.379 . S
C616 N623 1.356 1_545 S
C617 C616 1.363 . S
C617 C620 1.363 . S
N618 C620 1.356 . S
N618 H630 0.984 1_455 S
N618 H631 0.985 . S
N619 C621 1.356 . S
N619 H624 0.984 . S
N619 H625 0.985 . S
C620 C614 1.379 . S
C620 C617 1.363 . S
C620 N618 1.356 . S
C621 C615 1.363 . S
C621 C616 1.379 . S
C621 N619 1.356 . S
N622 C614 1.356 . S
N622 H628 0.984 . S
N622 H629 0.984 . S
N623 C616 1.356 1_565 S
N623 H626 0.984 . S
N623 H627 0.985 . S
H624 N619 0.984 . S
H625 N619 0.985 . S
H626 N623 0.984 . S
H627 N623 0.985 . S
H628 N622 0.984 . S
H629 N622 0.984 . S
H630 N618 0.984 1_655 S
H631 N618 0.985 . S
C632 C633 1.363 1_554 S
C632 C638 1.379 . S
C632 N640 1.356 1_554 S
C633 C632 1.363 1_556 S
C633 C639 1.363 . S
C634 C635 1.363 . S
C634 C639 1.379 1_554 S
C634 N641 1.356 . S
C635 C634 1.363 . S
C635 C638 1.363 . S
N636 C638 1.356 . S
N636 H648 0.984 . S
N636 H649 0.985 . S
N637 C639 1.356 . S
N637 H642 0.984 . S
N637 H643 0.985 . S
C638 C632 1.379 . S
C638 C635 1.363 . S
C638 N636 1.356 . S
C639 C633 1.363 . S
C639 C634 1.379 1_556 S
C639 N637 1.356 . S
N640 C632 1.356 1_556 S
N640 H646 0.984 1_556 S
N640 H647 0.984 . S
N641 C634 1.356 . S
N641 H644 0.984 . S
N641 H645 0.985 1_554 S
H642 N637 0.984 . S
H643 N637 0.985 . S
H644 N641 0.984 . S
H645 N641 0.985 1_556 S
H646 N640 0.984 1_554 S
H647 N640 0.984 . S
H648 N636 0.984 . S
H649 N636 0.985 . S
C650 C651 1.363 . S
C650 C656 1.379 . S
C650 N658 1.356 . S
C651 C650 1.363 . S
C651 C657 1.363 . S
C652 C653 1.363 . S
C652 C657 1.379 . S
C652 N659 1.356 . S
C653 C652 1.363 . S
C653 C656 1.363 . S
N654 C656 1.356 . S
N654 H666 0.984 . S
N654 H667 0.985 . S
N655 C657 1.356 . S
N655 H660 0.984 . S
N655 H661 0.985 . S
C656 C650 1.379 . S
C656 C653 1.363 . S
C656 N654 1.356 . S
C657 C651 1.363 . S
C657 C652 1.379 . S
C657 N655 1.356 . S
N658 C650 1.356 . S
N658 H664 0.984 . S
N658 H665 0.984 . S
N659 C652 1.356 . S
N659 H662 0.984 . S
N659 H663 0.985 . S
H660 N655 0.984 . S
H661 N655 0.985 . S
H662 N659 0.984 . S
H663 N659 0.985 . S
H664 N658 0.984 . S
H665 N658 0.984 . S
H666 N654 0.984 . S
H667 N654 0.985 . S
C668 C669 1.391 . S
C668 C674 1.350 1_554 S
C668 N676 1.368 . S
C669 C668 1.391 . S
C669 C675 1.363 . S
C670 C671 1.363 . S
C670 C675 1.379 1_556 S
C670 N677 1.356 . S
C671 C670 1.363 . S
C671 C674 1.363 . S
N672 C674 1.356 . S
N672 H684 0.984 . S
N672 H685 0.985 . S
N673 C675 1.356 . S
N673 H678 0.984 . S
N673 H679 0.985 . S
C674 C668 1.350 1_556 S
C674 C671 1.363 . S
C674 N672 1.356 . S
C675 C669 1.363 . S
C675 C670 1.379 1_554 S
C675 N673 1.356 . S
N676 C668 1.368 . S
N676 H682 0.984 1_554 S
N676 H683 0.984 . S
N677 C670 1.356 . S
N677 H680 0.984 . S
N677 H681 0.985 1_556 S
H678 N673 0.984 . S
H679 N673 0.985 . S
H680 N677 0.984 . S
H681 N677 0.985 1_554 S
H682 N676 0.984 1_556 S
H683 N676 0.984 . S
H684 N672 0.984 . S
H685 N672 0.985 . S
C686 C687 1.363 . S
C686 C692 1.379 . S
C686 N694 1.356 . S
C687 C686 1.363 . S
C687 C693 1.363 . S
C688 C689 1.363 . S
C688 C693 1.379 . S
C688 N695 1.356 . S
C689 C688 1.363 . S
C689 C692 1.363 . S
N690 C692 1.356 . S
N690 H702 0.984 1_545 S
N690 H703 0.985 . S
N691 C693 1.356 . S
N691 H696 0.984 . S
N691 H697 0.985 . S
C692 C686 1.379 . S
C692 C689 1.363 . S
C692 N690 1.356 . S
C693 C687 1.363 . S
C693 C688 1.379 . S
C693 N691 1.356 . S
N694 C686 1.356 . S
N694 H700 0.984 . S
N694 H701 0.984 . S
N695 C688 1.356 . S
N695 H698 0.984 . S
N695 H699 0.985 . S
H696 N691 0.984 . S
H697 N691 0.985 . S
H698 N695 0.984 . S
H699 N695 0.985 . S
H700 N694 0.984 . S
H701 N694 0.984 . S
H702 N690 0.984 1_565 S
H703 N690 0.985 . S
C704 C705 1.363 . S
C704 C710 1.379 1_554 S
C704 N712 1.356 . S
C705 C704 1.363 . S
C705 C711 1.346 1_554 S
C706 C707 1.363 . S
C706 C711 1.397 . S
C706 N713 1.356 . S
C707 C706 1.363 . S
C707 C710 1.363 . S
N708 C710 1.356 . S
N708 H720 0.984 1_655 S
N708 H721 0.985 . S
N709 C711 1.349 1_554 S
N709 H714 0.984 . S
N709 H715 0.985 1_554 S
C710 C704 1.379 1_556 S
C710 C707 1.363 . S
C710 N708 1.356 . S
C711 C705 1.346 1_556 S
C711 C706 1.397 . S
C711 N709 1.349 1_556 S
N712 C704 1.356 . S
N712 H718 0.984 . S
N712 H719 0.984 . S
N713 C706 1.356 . S
N713 H716 0.984 . S
N713 H717 0.985 . S
H714 N709 0.984 . S
H715 N709 0.985 1_556 S
H716 N713 0.984 . S
H717 N713 0.985 . S
H718 N712 0.984 . S
H719 N712 0.984 . S
H720 N708 0.984 1_455 S
H721 N708 0.985 . S
C722 C723 1.363 . S
C722 C728 1.379 . S
C722 N730 1.356 . S
C723 C722 1.363 . S
C723 C729 1.363 . S
C724 C725 1.363 . S
C724 C729 1.379 . S
C724 N731 1.356 . S
C725 C724 1.363 . S
C725 C728 1.363 . S
N726 C728 1.356 . S
N726 H738 0.984 . S
N726 H739 0.985 . S
N727 C729 1.356 . S
N727 H732 0.984 . S
N727 H733 0.985 . S
C728 C722 1.379 . S
C728 C725 1.363 . S
C728 N726 1.356 . S
C729 C723 1.363 . S
C729 C724 1.379 . S
C729 N727 1.356 . S
N730 C722 1.356 . S
N730 H736 0.984 . S
N730 H737 0.984 . S
N731 C724 1.356 . S
N731 H734 0.984 . S
N731 H735 0.985 . S
H732 N727 0.984 . S
H733 N727 0.985 . S
H734 N731 0.984 . S
H735 N731 0.985 . S
H736 N730 0.984 . S
H737 N730 0.984 . S
H738 N726 0.984 . S
H739 N726 0.985 . S
C740 C741 1.363 . S
C740 C746 1.379 1_556 S
C740 N748 1.356 . S
C741 C740 1.363 . S
C741 C747 1.363 . S
C742 C743 1.363 . S
C742 C747 1.379 1_554 S
C742 N749 1.356 . S
C743 C742 1.363 . S
C743 C746 1.363 . S
N744 C746 1.356 . S
N744 H756 0.984 . S
N744 H757 0.985 . S
N745 C747 1.356 . S
N745 H750 0.984 . S
N745 H751 0.985 . S
C746 C740 1.379 1_554 S
C746 C743 1.363 . S
C746 N744 1.356 . S
C747 C741 1.363 . S
C747 C742 1.379 1_556 S
C747 N745 1.356 . S
N748 C740 1.356 . S
N748 H754 0.984 . S
N748 H755 0.984 . S
N749 C742 1.356 . S
N749 H752 0.984 . S
N749 H753 0.985 . S
H750 N745 0.984 . S
H751 N745 0.985 . S
H752 N749 0.984 . S
H753 N749 0.985 . S
H754 N748 0.984 . S
H755 N748 0.984 . S
H756 N744 0.984 . S
H757 N744 0.985 . S
C758 C759 1.363 . S
C758 C764 1.379 . S
C758 N766 1.356 . S
C759 C758 1.363 . S
C759 C765 1.363 . S
C760 C761 1.363 . S
C760 C765 1.379 . S
C760 N767 1.356 . S
C761 C760 1.363 . S
C761 C764 1.363 . S
N762 C764 1.356 . S
N762 H774 0.984 . S
N762 H775 0.985 . S
N763 C765 1.356 . S
N763 H768 0.984 . S
N763 H769 0.985 . S
C764 C758 1.379 . S
C764 C761 1.363 . S
C764 N762 1.356 . S
C765 C759 1.363 . S
C765 C760 1.379 . S
C765 N763 1.356 . S
N766 C758 1.356 . S
N766 H772 0.984 . S
N766 H773 0.984 . S
N767 C760 1.356 . S
N767 H770 0.984 . S
N767 H771 0.985 . S
H768 N763 0.984 . S
H769 N763 0.985 . S
H770 N767 0.984 . S
H771 N767 0.985 . S
H772 N766 0.984 . S
H773 N766 0.984 . S
H774 N762 0.984 . S
H775 N762 0.985 . S
C776 C777 1.363 . S
C776 C782 1.379 . S
C776 N784 1.356 . S
C777 C776 1.363 . S
C777 C783 1.363 . S
C778 C779 1.363 . S
C778 C783 1.379 . S
C778 N785 1.356 . S
C779 C778 1.363 . S
C779 C782 1.363 . S
N780 C782 1.356 . S
N780 H792 0.984 . S
N780 H793 0.985 . S
N781 C783 1.356 . S
N781 H786 0.984 . S
N781 H787 0.985 . S
C782 C776 1.379 . S
C782 C779 1.363 . S
C782 N780 1.356 . S
C783 C777 1.363 . S
C783 C778 1.379 . S
C783 N781 1.356 . S
N784 C776 1.356 . S
N784 H790 0.984 . S
N784 H791 0.984 . S
N785 C778 1.356 . S
N785 H788 0.984 . S
N785 H789 0.985 . S
H786 N781 0.984 . S
H787 N781 0.985 . S
H788 N785 0.984 . S
H789 N785 0.985 . S
H790 N784 0.984 . S
H791 N784 0.984 . S
H792 N780 0.984 . S
H793 N780 0.985 . S
C794 C795 1.363 . S
C794 C800 1.379 . S
C794 N802 1.356 . S
C795 C794 1.363 . S
C795 C801 1.363 . S
C796 C797 1.363 . S
C796 C801 1.379 . S
C796 N803 1.356 . S
C797 C796 1.363 . S
C797 C800 1.363 . S
N798 C800 1.356 . S
N798 H810 0.984 . S
N798 H811 0.985 . S
N799 C801 1.356 . S
N799 H804 0.984 . S
N799 H805 0.985 . S
C800 C794 1.379 . S
C800 C797 1.363 . S
C800 N798 1.356 . S
C801 C795 1.363 . S
C801 C796 1.379 . S
C801 N799 1.356 . S
N802 C794 1.356 . S
N802 H808 0.984 . S
N802 H809 0.984 . S
N803 C796 1.356 . S
N803 H806 0.984 . S
N803 H807 0.985 . S
H804 N799 0.984 . S
H805 N799 0.985 . S
H806 N803 0.984 . S
H807 N803 0.985 . S
H808 N802 0.984 . S
H809 N802 0.984 . S
H810 N798 0.984 . S
H811 N798 0.985 . S
C812 C813 1.363 . S
C812 C818 1.379 . S
C812 N820 1.356 . S
C813 C812 1.363 . S
C813 C819 1.363 . S
C814 C815 1.363 . S
C814 C819 1.379 . S
C814 N821 1.356 . S
C815 C814 1.363 . S
C815 C818 1.363 . S
N816 C818 1.356 . S
N816 H828 0.984 . S
N816 H829 0.985 . S
N817 C819 1.356 . S
N817 H822 0.984 . S
N817 H823 0.985 . S
C818 C812 1.379 . S
C818 C815 1.363 . S
C818 N816 1.356 . S
C819 C813 1.363 . S
C819 C814 1.379 . S
C819 N817 1.356 . S
N820 C812 1.356 . S
N820 H826 0.984 . S
N820 H827 0.984 . S
N821 C814 1.356 . S
N821 H824 0.984 . S
N821 H825 0.985 . S
H822 N817 0.984 . S
H823 N817 0.985 . S
H824 N821 0.984 . S
H825 N821 0.985 . S
H826 N820 0.984 . S
H827 N820 0.984 . S
H828 N816 0.984 . S
H829 N816 0.985 . S
C830 C831 1.363 . S
C830 C836 1.379 . S
C830 N838 1.356 . S
C831 C830 1.363 . S
C831 C837 1.363 . S
C832 C833 1.363 . S
C832 C837 1.379 . S
C832 N839 1.356 . S
C833 C832 1.363 . S
C833 C836 1.363 . S
N834 C836 1.356 . S
N834 H846 0.984 . S
N834 H847 0.985 . S
N835 C837 1.356 . S
N835 H840 0.984 . S
N835 H841 0.985 . S
C836 C830 1.379 . S
C836 C833 1.363 . S
C836 N834 1.356 . S
C837 C831 1.363 . S
C837 C832 1.379 . S
C837 N835 1.356 . S
N838 C830 1.356 . S
N838 H844 0.984 . S
N838 H845 0.984 . S
N839 C832 1.356 . S
N839 H842 0.984 . S
N839 H843 0.985 . S
H840 N835 0.984 . S
H841 N835 0.985 . S
H842 N839 0.984 . S
H843 N839 0.985 . S
H844 N838 0.984 . S
H845 N838 0.984 . S
H846 N834 0.984 . S
H847 N834 0.985 . S
C848 C849 1.363 . S
C848 C854 1.379 . S
C848 N856 1.356 . S
C849 C848 1.363 . S
C849 C855 1.363 . S
C850 C851 1.363 . S
C850 C855 1.379 . S
C850 N857 1.356 . S
C851 C850 1.363 . S
C851 C854 1.363 . S
N852 C854 1.356 . S
N852 H864 0.984 1_655 S
N852 H865 0.983 1_655 S
N853 C855 1.356 . S
N853 H858 0.984 . S
N853 H859 0.985 . S
C854 C848 1.379 . S
C854 C851 1.363 . S
C854 N852 1.356 . S
C855 C849 1.363 . S
C855 C850 1.379 . S
C855 N853 1.356 . S
N856 C848 1.356 . S
N856 H862 0.984 . S
N856 H863 0.984 . S
N857 C850 1.356 . S
N857 H860 0.984 . S
N857 H861 0.985 . S
H858 N853 0.984 . S
H859 N853 0.985 . S
H860 N857 0.984 . S
H861 N857 0.985 . S
H862 N856 0.984 . S
H863 N856 0.984 . S
H864 N852 0.984 1_455 S
H865 N852 0.983 1_455 S
C866 C867 1.363 . S
C866 C872 1.379 . S
C866 N874 1.356 . S
C867 C866 1.363 . S
C867 C873 1.363 . S
C868 C869 1.363 . S
C868 C873 1.379 . S
C868 N875 1.356 . S
C869 C868 1.363 . S
C869 C872 1.363 . S
N870 C872 1.356 . S
N870 H882 0.984 . S
N870 H883 0.985 . S
N871 C873 1.356 . S
N871 H876 0.984 . S
N871 H877 0.985 . S
C872 C866 1.379 . S
C872 C869 1.363 . S
C872 N870 1.356 . S
C873 C867 1.363 . S
C873 C868 1.379 . S
C873 N871 1.356 . S
N874 C866 1.356 . S
N874 H880 0.984 . S
N874 H881 0.984 . S
N875 C868 1.356 . S
N875 H878 0.984 . S
N875 H879 0.985 . S
H876 N871 0.984 . S
H877 N871 0.985 . S
H878 N875 0.984 . S
H879 N875 0.985 . S
H880 N874 0.984 . S
H881 N874 0.984 . S
H882 N870 0.984 . S
H883 N870 0.985 . S
C884 C885 1.363 . S
C884 C890 1.379 . S
C884 N892 1.356 . S
C885 C884 1.363 . S
C885 C891 1.363 . S
C886 C887 1.363 . S
C886 C891 1.379 . S
C886 N893 1.356 . S
C887 C886 1.363 . S
C887 C890 1.363 . S
N888 C890 1.356 . S
N888 H900 0.984 . S
N888 H901 0.985 . S
N889 C891 1.356 . S
N889 H894 0.984 . S
N889 H895 0.985 . S
C890 C884 1.379 . S
C890 C887 1.363 . S
C890 N888 1.356 . S
C891 C885 1.363 . S
C891 C886 1.379 . S
C891 N889 1.356 . S
N892 C884 1.356 . S
N892 H898 0.984 . S
N892 H899 0.984 . S
N893 C886 1.356 . S
N893 H896 0.984 . S
N893 H897 0.985 . S
H894 N889 0.984 . S
H895 N889 0.985 . S
H896 N893 0.984 . S
H897 N893 0.985 . S
H898 N892 0.984 . S
H899 N892 0.984 . S
H900 N888 0.984 . S
H901 N888 0.985 . S
C902 C903 1.363 . S
C902 C908 1.379 . S
C902 N910 1.356 . S
C903 C902 1.363 . S
C903 C909 1.363 . S
C904 C905 1.363 . S
C904 C909 1.379 . S
C904 N911 1.356 . S
C905 C904 1.363 . S
C905 C908 1.363 . S
N906 C908 1.356 . S
N906 H918 0.984 . S
N906 H919 0.985 . S
N907 C909 1.356 . S
N907 H912 0.984 . S
N907 H913 0.985 . S
C908 C902 1.379 . S
C908 C905 1.363 . S
C908 N906 1.356 . S
C909 C903 1.363 . S
C909 C904 1.379 . S
C909 N907 1.356 . S
N910 C902 1.356 . S
N910 H916 0.984 . S
N910 H917 0.984 . S
N911 C904 1.356 . S
N911 H914 0.984 . S
N911 H915 0.985 . S
H912 N907 0.984 . S
H913 N907 0.985 . S
H914 N911 0.984 . S
H915 N911 0.985 . S
H916 N910 0.984 . S
H917 N910 0.984 . S
H918 N906 0.984 . S
H919 N906 0.985 . S
C489 C116 1.807 . S
C491 C208 1.807 1_565 S
C509 C292 1.807 . S
C507 C135 1.807 . S
C527 C291 1.800 . S
C525 C78 1.808 . S
C543 C97 1.808 . S
C545 C207 1.800 1_565 S
C563 C388 1.807 1_545 S
C561 C40 1.808 . S
C581 C472 1.807 . S
C579 C59 1.809 . S
C597 C2 1.809 . S
C599 C471 1.800 . S
C615 C21 1.809 . S
C617 C387 1.800 1_545 S
C635 C210 1.553 . S
C633 C25 1.729 . S
C653 C294 1.553 . S
C651 C6 1.729 . S
C671 C306 1.424 . S
C669 C63 1.722 . S
C689 C222 1.424 . S
C687 C44 1.722 . S
C707 C390 1.553 . S
C705 C101 1.727 . S
C723 C82 1.727 . S
C725 C474 1.553 . S
C743 C462 1.424 . S
C741 C139 1.720 . S
C759 C120 1.720 . S
C761 C378 1.424 . S
C779 C219 1.510 . S
C777 C11 1.439 . S
C797 C303 1.509 . S
C795 C30 1.439 . S
C813 C49 1.428 . S
C815 C304 1.470 . S
C833 C220 1.470 . S
C831 C68 1.428 . S
C851 C375 1.510 . S
C849 C87 1.375 . S
C867 C106 1.375 . S
C869 C459 1.510 . S
C885 C125 1.376 . S
C887 C460 1.470 . S
C903 C144 1.376 . S
C905 C376 1.470 . S
