# Generated by pormake.
# Topology anh, (6,3)-cn, num edge types: 1
# Building blocks:
#     Node 0, Type 0, BuildingBlock: BETDAH_clean_sbu_0, # of connection points: 6
#     Node 1, Type 0, BuildingBlock: BETDAH_clean_sbu_0, # of connection points: 6
#     Node 2, Type 0, BuildingBlock: BETDAH_clean_sbu_0, # of connection points: 6
#     Node 3, Type 1, BuildingBlock: MIDCAF_clean_linker_0, # of connection points: 3
#     Node 4, Type 1, BuildingBlock: MIDCAF_clean_linker_0, # of connection points: 3
#     Node 5, Type 1, BuildingBlock: MIDCAF_clean_linker_0, # of connection points: 3
#     Node 6, Type 1, BuildingBlock: MIDCAF_clean_linker_0, # of connection points: 3
#     Node 7, Type 1, BuildingBlock: MIDCAF_clean_linker_0, # of connection points: 3
#     Node 8, Type 1, BuildingBlock: MIDCAF_clean_linker_0, # of connection points: 3
#     Edge 9, Type (0, 1), BuildingBlock: AJUNOK_clean_linker_0, # of connection points: 2
#     Edge 10, Type (0, 1), BuildingBlock: AJUNOK_clean_linker_0, # of connection points: 2
#     Edge 11, Type (0, 1), BuildingBlock: AJUNOK_clean_linker_0, # of connection points: 2
#     Edge 12, Type (0, 1), BuildingBlock: AJUNOK_clean_linker_0, # of connection points: 2
#     Edge 13, Type (0, 1), BuildingBlock: AJUNOK_clean_linker_0, # of connection points: 2
#     Edge 14, Type (0, 1), BuildingBlock: AJUNOK_clean_linker_0, # of connection points: 2
#     Edge 15, Type (0, 1), BuildingBlock: AJUNOK_clean_linker_0, # of connection points: 2
#     Edge 16, Type (0, 1), BuildingBlock: AJUNOK_clean_linker_0, # of connection points: 2
#     Edge 17, Type (0, 1), BuildingBlock: AJUNOK_clean_linker_0, # of connection points: 2
#     Edge 18, Type (0, 1), BuildingBlock: AJUNOK_clean_linker_0, # of connection points: 2
#     Edge 19, Type (0, 1), BuildingBlock: AJUNOK_clean_linker_0, # of connection points: 2
#     Edge 20, Type (0, 1), BuildingBlock: AJUNOK_clean_linker_0, # of connection points: 2
#     Edge 21, Type (0, 1), BuildingBlock: AJUNOK_clean_linker_0, # of connection points: 2
#     Edge 22, Type (0, 1), BuildingBlock: AJUNOK_clean_linker_0, # of connection points: 2
#     Edge 23, Type (0, 1), BuildingBlock: AJUNOK_clean_linker_0, # of connection points: 2
#     Edge 24, Type (0, 1), BuildingBlock: AJUNOK_clean_linker_0, # of connection points: 2
#     Edge 25, Type (0, 1), BuildingBlock: AJUNOK_clean_linker_0, # of connection points: 2
#     Edge 26, Type (0, 1), BuildingBlock: AJUNOK_clean_linker_0, # of connection points: 2
# Relax obj value: 0.213
# Max RMSD: 0.227
# Mean RMSD: 0.165
data_MOF--net-anh--node1-BETDAH_clean_sbu_0--node2-MIDCAF_clean_linker_0--edge1-AJUNOK_clean_linker_0
_symmetry_space_group_name_H-M    P1
_symmetry_Int_Tables_number       1
_symmetry_cell_setting            triclinic
loop_
_symmetry_equiv_pos_as_xyz
'x, y, z'
_cell_length_a     29.279745
_cell_length_b     35.63458
_cell_length_c     52.326995
_cell_angle_alpha  92.287067
_cell_angle_beta   89.363613
_cell_angle_gamma 130.73945
loop_
_atom_site_label
_atom_site_type_symbol
_atom_site_fract_x
_atom_site_fract_y
_atom_site_fract_z
_atom_type_partial_charge
Ho0 Ho 0.13867 0.50702 0.15046 0.0
Ho1 Ho 1.07403 0.54195 0.15136 0.0
C2 C 0.21403 0.62633 0.15114 0.0
C3 C 0.22084 0.50319 0.14488 0.0
C4 C 0.28151 0.54269 0.1551 0.0
C5 C 0.32967 0.5695 0.13839 0.0
C6 C 0.38812 0.60128 0.14843 0.0
C7 C 0.3966 0.59884 0.17461 0.0
C8 C 0.35142 0.58774 0.19107 0.0
C9 C 0.29231 0.55681 0.18139 0.0
C10 C 0.09841 0.50446 0.19734 0.0
C11 C 0.99877 0.4236 0.14553 0.0
C12 C 1.0165 0.564 0.17318 0.0
C13 C 0.95495 0.52571 0.18084 0.0
C14 C 0.93943 0.52273 0.20652 0.0
C15 C 0.88005 0.4853 0.2136 0.0
C16 C 0.83598 0.45296 0.19463 0.0
C17 C 0.85473 0.45018 0.17024 0.0
C18 C 0.91361 0.48693 0.16328 0.0
C19 C 0.08285 0.52753 0.10097 0.0
O20 O 0.21515 0.59072 0.15584 0.0
O21 O 0.16299 0.61616 0.14696 0.0
O22 O 0.17909 0.47686 0.16186 0.0
O23 O 0.20477 0.51589 0.12618 0.0
O24 O 0.09437 0.46898 0.18673 0.0
O25 O 0.12361 0.53988 0.18215 0.0
O26 O 0.99869 0.45884 0.1546 0.0
O27 O 1.04936 0.43515 0.13764 0.0
O28 O 1.02515 0.56773 0.14848 0.0
O29 O 1.05481 0.5642 0.18575 0.0
O30 O 1.05573 0.54282 0.10976 0.0
O31 O 0.10347 0.51995 0.11922 0.0
H32 H 0.32233 0.5633 0.11785 0.0
H33 H 0.42429 0.61648 0.13502 0.0
H34 H 0.35851 0.59136 0.21161 0.0
H35 H 0.25563 0.5407 0.19464 0.0
H36 H 0.97246 0.55036 0.22075 0.0
H37 H 0.86704 0.48674 0.23283 0.0
H38 H 0.82304 0.42481 0.15508 0.0
H39 H 0.92574 0.48599 0.14375 0.0
Ho40 Ho 0.62706 0.01166 0.4761 0.0
Ho41 Ho 0.55228 0.03756 0.4697 0.0
C42 C 0.48105 0.92412 0.47147 0.0
C43 C 0.6686 0.96848 0.48605 0.0
C44 C 0.64156 0.91605 0.48464 0.0
C45 C 0.61153 0.88608 0.50569 0.0
C46 C 0.59077 0.83798 0.50508 0.0
C47 C 0.59939 0.81884 0.48337 0.0
C48 C 0.6262 0.84769 0.46179 0.0
C49 C 0.64722 0.89589 0.46243 0.0
C50 C 0.61625 0.02633 0.42721 0.0
C51 C 0.69843 0.12642 0.47696 0.0
C52 C 0.51347 0.0806 0.45501 0.0
C53 C 0.53444 0.13023 0.46143 0.0
C54 C 0.5377 0.15832 0.44229 0.0
C55 C 0.55566 0.20489 0.44849 0.0
C56 C 0.57059 0.22373 0.47391 0.0
C57 C 0.57052 0.19668 0.49274 0.0
C58 C 0.55286 0.15042 0.48655 0.0
C59 C 0.56484 0.0253 0.51914 0.0
O60 O 0.53207 0.93872 0.48124 0.0
O61 O 0.47954 0.95635 0.46102 0.0
O62 O 0.67643 0.98842 0.46429 0.0
O63 O 0.64861 0.98137 0.50363 0.0
O64 O 0.66596 0.04267 0.43808 0.0
O65 O 0.57349 1.00237 0.44278 0.0
O66 O 0.6465 0.11198 0.46863 0.0
O67 O 0.70216 0.09346 0.48445 0.0
O68 O 0.48921 0.04963 0.47357 0.0
O69 O 0.55078 0.07978 0.44167 0.0
O70 O 0.51653 0.01383 0.50934 0.0
O71 O 0.60617 0.04701 0.50295 0.0
H72 H 0.60601 0.90032 0.52303 0.0
H73 H 0.57135 0.81699 0.5222 0.0
H74 H 0.63324 0.8337 0.44483 0.0
H75 H 0.66965 0.91787 0.44579 0.0
H76 H 0.52508 0.14376 0.42269 0.0
H77 H 0.55537 0.22511 0.43367 0.0
H78 H 0.58289 0.21092 0.51241 0.0
H79 H 0.5527 0.13017 0.50151 0.0
Ho80 Ho 0.67756 0.60036 0.82977 0.0
Ho81 Ho 0.58946 0.49112 0.82938 0.0
C82 C 0.52913 0.5408 0.83465 0.0
C83 C 0.72935 0.69048 0.82027 0.0
C84 C 0.70471 0.7154 0.81911 0.0
C85 C 0.64604 0.68977 0.80948 0.0
C86 C 0.62307 0.71365 0.80811 0.0
C87 C 0.65921 0.76412 0.81538 0.0
C88 C 0.71658 0.78898 0.82637 0.0
C89 C 0.73904 0.76461 0.82835 0.0
C90 C 0.65601 0.56327 0.87554 0.0
C91 C 0.73788 0.55025 0.83169 0.0
C92 C 0.53395 0.39872 0.83519 0.0
C93 C 0.55175 0.3685 0.83115 0.0
C94 C 0.57062 0.35727 0.85189 0.0
C95 C 0.58748 0.32872 0.84796 0.0
C96 C 0.58631 0.31147 0.82321 0.0
C97 C 0.56743 0.32259 0.80252 0.0
C98 C 0.55029 0.35074 0.80642 0.0
C99 C 0.60988 0.5292 0.78302 0.0
O100 O 0.58484 0.58208 0.82939 0.0
O101 O 0.51985 0.49964 0.83855 0.0
O102 O 0.73009 0.6769 0.84295 0.0
O103 O 0.71057 0.65631 0.80229 0.0
O104 O 0.70883 0.60311 0.8692 0.0
O105 O 0.61687 0.54759 0.85843 0.0
O106 O 0.68071 0.50886 0.83451 0.0
O107 O 0.74902 0.59197 0.8268 0.0
O108 O 0.52829 0.41528 0.8147 0.0
O109 O 0.56091 0.43204 0.85405 0.0
O110 O 0.5574 0.49189 0.79107 0.0
O111 O 0.65001 0.54399 0.79968 0.0
H112 H 0.6184 0.65173 0.80229 0.0
H113 H 0.57804 0.69326 0.80023 0.0
H114 H 0.74524 0.82789 0.83222 0.0
H115 H 0.78386 0.78458 0.83636 0.0
H116 H 0.57224 0.37046 0.87116 0.0
H117 H 0.60165 0.32028 0.86418 0.0
H118 H 0.56479 0.30865 0.78332 0.0
H119 H 0.53562 0.3583 0.79 0.0
C120 C 0.4156 0.85274 0.1909 0.0
C121 C 0.4183 0.837 0.16654 0.0
C122 C 0.4647 0.87242 0.15018 0.0
C123 C 0.50969 0.92249 0.15886 0.0
H124 H 0.67214 0.09809 0.14514 0.0
H125 H 0.75506 0.18084 0.12882 0.0
H126 H 0.81955 0.23852 0.20608 0.0
H127 H 0.73997 0.15845 0.22218 0.0
H128 H 0.6772 0.1125 0.26908 0.0
H129 H 0.67679 0.11221 0.31575 0.0
H130 H 0.51297 0.95905 0.31269 0.0
H131 H 0.51263 0.95886 0.26607 0.0
H132 H 0.45427 0.91162 0.21845 0.0
H133 H 0.37973 0.82659 0.20368 0.0
H134 H 0.46707 0.86107 0.13105 0.0
H135 H 0.54626 0.94863 0.14638 0.0
N136 N 0.60326 0.02923 0.18318 0.0
N137 N 0.64257 0.07442 0.22278 0.0
N138 N 0.55637 0.99152 0.22194 0.0
C139 C 0.64635 0.07314 0.19686 0.0
C140 C 0.59799 0.03406 0.23545 0.0
C141 C 0.55753 0.98794 0.19609 0.0
C142 C 0.69795 0.12095 0.18508 0.0
C143 C 0.70432 0.12836 0.15856 0.0
C144 C 0.75185 0.17574 0.14922 0.0
C145 C 0.79341 0.21651 0.16625 0.0
C146 C 0.78788 0.20839 0.19246 0.0
C147 C 0.74158 0.16179 0.20165 0.0
C148 C 0.5954 0.03556 0.26374 0.0
C149 C 0.64066 0.07887 0.27827 0.0
C150 C 0.64043 0.0788 0.30497 0.0
C151 C 0.59497 0.03551 0.31767 0.0
C152 C 0.54823 0.99293 0.3033 0.0
C153 C 0.54848 0.99287 0.27659 0.0
C154 C 0.50809 0.93771 0.18389 0.0
C155 C 0.45899 0.90204 0.19929 0.0
C156 C 0.62211 0.40624 0.53931 0.0
C157 C 0.61204 0.39814 0.51275 0.0
C158 C 0.6102 0.42999 0.49883 0.0
C159 C 0.61639 0.46844 0.51154 0.0
H160 H 0.61626 0.58223 0.50041 0.0
H161 H 0.60258 0.63333 0.47782 0.0
H162 H 0.5896 0.68808 0.55008 0.0
H163 H 0.60372 0.63805 0.5728 0.0
H164 H 0.61602 0.6046 0.62412 0.0
H165 H 0.61816 0.60756 0.67083 0.0
H166 H 0.65768 0.51021 0.66998 0.0
H167 H 0.65581 0.50703 0.62328 0.0
H168 H 0.63476 0.44876 0.57254 0.0
H169 H 0.62416 0.38232 0.55041 0.0
H170 H 0.60194 0.42411 0.47834 0.0
H171 H 0.6134 0.49179 0.50043 0.0
N172 N 0.62011 0.54219 0.53954 0.0
N173 N 0.62455 0.57976 0.57838 0.0
N174 N 0.63193 0.51825 0.57827 0.0
C175 C 0.61921 0.57549 0.55243 0.0
C176 C 0.63115 0.55139 0.59146 0.0
C177 C 0.62648 0.51343 0.55233 0.0
C178 C 0.61098 0.60597 0.53846 0.0
C179 C 0.61033 0.60505 0.51151 0.0
C180 C 0.60244 0.63406 0.49854 0.0
C181 C 0.5941 0.6636 0.51235 0.0
C182 C 0.5948 0.66464 0.53914 0.0
C183 C 0.6033 0.63623 0.55209 0.0
C184 C 0.63544 0.55535 0.61984 0.0
C185 C 0.6257 0.5841 0.6338 0.0
C186 C 0.62683 0.58582 0.66056 0.0
C187 C 0.63803 0.55907 0.67393 0.0
C188 C 0.64946 0.5315 0.66009 0.0
C189 C 0.64792 0.52945 0.63334 0.0
C190 C 0.62451 0.4755 0.53834 0.0
C191 C 0.62828 0.44442 0.55196 0.0
C192 C 0.94301 0.52612 0.86873 0.0
C193 C 0.94136 0.54548 0.84613 0.0
C194 C 0.99022 0.56367 0.82926 0.0
C195 C 1.0371 0.56179 0.83489 0.0
H196 H 0.21534 0.54282 0.81855 0.0
H197 H 0.29845 0.54382 0.80831 0.0
H198 H 0.32616 0.54146 0.88889 0.0
H199 H 0.25079 0.54505 0.89866 0.0
H200 H 0.2098 0.56023 0.94266 0.0
H201 H 0.20185 0.55436 0.98926 0.0
H202 H 1.0226 0.5045 0.98431 0.0
H203 H 1.03042 0.51081 0.9379 0.0
H204 H 0.98339 0.50671 0.89175 0.0
H205 H 0.91013 0.51403 0.88338 0.0
H206 H 0.99245 0.57953 0.81159 0.0
H207 H 1.07368 0.57742 0.82168 0.0
N208 N 0.13188 0.54444 0.85553 0.0
N209 N 0.16682 0.54144 0.89539 0.0
N210 N 0.08734 0.54092 0.89451 0.0
C211 C 0.17223 0.54362 0.86951 0.0
C212 C 0.12543 0.53999 0.90803 0.0
C213 C 0.08828 0.54302 0.86859 0.0
C214 C 0.22359 0.5441 0.85971 0.0
C215 C 0.23972 0.54322 0.83411 0.0
C216 C 0.28815 0.54308 0.82823 0.0
C217 C 0.3227 0.543 0.84755 0.0
C218 C 0.30504 0.54315 0.87274 0.0
C219 C 0.25879 0.54439 0.87849 0.0
C220 C 0.12082 0.53615 0.93641 0.0
C221 C 0.16859 0.5479 0.95146 0.0
C222 C 0.16416 0.54464 0.97818 0.0
C223 C 0.1114 0.52854 0.99045 0.0
C224 C 1.06352 0.51639 0.9754 0.0
C225 C 1.06826 0.5204 0.94878 0.0
C226 C 1.03724 0.54135 0.85769 0.0
C227 C 0.98768 0.52302 0.8739 0.0
C228 C 0.26967 0.69817 0.43428 0.0
C229 C 0.27363 0.71298 0.45985 0.0
C230 C 0.23169 0.67676 0.4772 0.0
C231 C 0.18461 0.62701 0.46846 0.0
H232 H 1.0094 0.45614 0.48188 0.0
H233 H 0.92993 0.37343 0.4992 0.0
H234 H 0.90315 0.30484 0.42484 0.0
H235 H 0.98037 0.38522 0.40757 0.0
H236 H 0.98482 0.44696 0.35881 0.0
H237 H 0.98325 0.44525 0.31213 0.0
H238 H 0.16692 0.58408 0.31321 0.0
H239 H 0.16728 0.58717 0.35975 0.0
H240 H 0.22362 0.64081 0.40564 0.0
H241 H 0.30191 0.72476 0.42057 0.0
H242 H 0.23415 0.68722 0.49718 0.0
H243 H 0.15161 0.60019 0.48187 0.0
N244 N 0.08844 0.52079 0.44383 0.0
N245 N 1.03998 0.47617 0.40468 0.0
N246 N 0.12161 0.56061 0.40468 0.0
C247 C 1.04422 0.47668 0.43066 0.0
C248 C 0.07843 0.51788 0.39156 0.0
C249 C 0.12775 0.56323 0.43052 0.0
C250 C 1.00132 0.42789 0.4432 0.0
C251 C 0.98717 0.42337 0.46937 0.0
C252 C 0.94187 0.37615 0.47929 0.0
C253 C 0.91108 0.3329 0.4633 0.0
C254 C 0.92672 0.33746 0.4376 0.0
C255 C 0.97091 0.38397 0.42773 0.0
C256 C 1.07625 0.51693 0.36312 0.0
C257 C 1.02476 0.4772 0.34908 0.0
C258 C 1.02413 0.47609 0.32225 0.0
C259 C 1.07554 0.514 0.3087 0.0
C260 C 0.12644 0.5543 0.32284 0.0
C261 C 0.12669 0.55588 0.34963 0.0
C262 C 0.17947 0.61307 0.44233 0.0
C263 C 0.22408 0.64943 0.42576 0.0
C264 C 0.58864 0.15459 0.76453 0.0
C265 C 0.60368 0.16592 0.79065 0.0
C266 C 0.61163 0.13757 0.80453 0.0
C267 C 0.60776 0.10003 0.79198 0.0
H268 H 0.55891 0.94773 0.79506 0.0
H269 H 0.56604 0.88916 0.81343 0.0
H270 H 0.67934 0.91264 0.75122 0.0
H271 H 0.66975 0.96835 0.7324 0.0
H272 H 0.56192 0.94848 0.67573 0.0
H273 H 0.55679 0.95036 0.62908 0.0
H274 H 0.63964 0.10447 0.63635 0.0
H275 H 0.64201 0.10192 0.68264 0.0
H276 H 0.57406 0.1106 0.73178 0.0
H277 H 0.58034 0.17488 0.75361 0.0
H278 H 0.62236 0.14533 0.82483 0.0
H279 H 0.61586 0.0796 0.80286 0.0
N280 N 0.60073 0.02371 0.76315 0.0
N281 N 0.60419 0.99275 0.72322 0.0
N282 N 0.59691 0.05422 0.72509 0.0
C283 C 0.60459 0.99284 0.74924 0.0
C284 C 0.60032 0.02344 0.71105 0.0
C285 C 0.59677 0.05456 0.75104 0.0
C286 C 0.61242 0.9613 0.76197 0.0
C287 C 0.58518 0.94011 0.78542 0.0
C288 C 0.58935 0.90686 0.79592 0.0
C289 C 0.62139 0.89515 0.78319 0.0
C290 C 0.65209 0.91932 0.7608 0.0
C291 C 0.64686 0.95138 0.75009 0.0
C292 C 0.60133 0.02479 0.68283 0.0
C293 C 0.57907 0.9827 0.66727 0.0
C294 C 0.57631 0.98383 0.6406 0.0
C295 C 0.59639 0.02724 0.62906 0.0
C296 C 0.62166 0.06993 0.64466 0.0
C297 C 0.62337 0.06855 0.6712 0.0
C298 C 0.5955 0.0904 0.76545 0.0
C299 C 0.58473 0.11745 0.75209 0.0
C300 C 0.70911 0.47027 0.11779 0.0
C301 C 0.70158 0.47738 0.14358 0.0
C302 C 0.67025 0.49343 0.15007 0.0
C303 C 0.638 0.49404 0.13123 0.0
H304 H 0.44125 0.38728 0.13416 0.0
H305 H 0.4274 0.43227 0.16479 0.0
H306 H 0.41313 0.50036 0.10265 0.0
H307 H 0.42838 0.45627 0.07193 0.0
H308 H 0.47097 0.44363 0.01711 0.0
H309 H 0.49732 0.47101 0.97332 0.0
H310 H 0.64346 0.46952 0.97679 0.0
H311 H 0.61666 0.44116 0.02026 0.0
H312 H 0.67695 0.45928 0.07942 0.0
H313 H 0.7358 0.46009 0.11256 0.0
H314 H 0.66574 0.50056 0.16986 0.0
H315 H 0.60911 0.50183 0.13691 0.0
N316 N 0.53321 0.44112 0.10108 0.0
N317 N 0.48562 0.42181 0.06136 0.0
N318 N 0.58623 0.45496 0.06409 0.0
C319 C 0.48353 0.42272 0.08725 0.0
C320 C 0.53661 0.43659 0.04976 0.0
C321 C 0.58459 0.45794 0.0898 0.0
C322 C 0.43759 0.41965 0.10085 0.0
C323 C 0.43127 0.40941 0.12697 0.0
C324 C 0.42482 0.4359 0.14451 0.0
C325 C 0.42209 0.47097 0.13582 0.0
C326 C 0.41737 0.47445 0.10953 0.0
C327 C 0.42419 0.44813 0.09197 0.0
C328 C 0.54244 0.44108 0.02207 0.0
C329 C 0.50752 0.44768 0.00825 0.0
C330 C 0.52296 0.4639 0.98341 0.0
C331 C 0.5732 0.47341 0.97226 0.0
C332 C 0.6048 0.46271 0.98525 0.0
C333 C 0.58951 0.44661 0.01004 0.0
C334 C 0.6365 0.47785 0.10606 0.0
C335 C 0.67633 0.47045 0.0989 0.0
C336 C 0.47272 0.59121 0.1647 0.0
C337 C 0.42175 0.57436 0.17891 0.0
C338 C 0.47437 0.55724 0.15151 0.0
C339 C 0.42763 0.50606 0.15395 0.0
H340 H 0.50546 0.62982 0.15994 0.0
H341 H 0.50984 0.57082 0.13791 0.0
S342 S 0.29912 0.44409 0.19756 0.0
N343 N 0.33406 0.50362 0.20121 0.0
N344 N 0.33891 0.44063 0.17666 0.0
C345 C 0.38374 0.48945 0.17218 0.0
C346 C 0.38131 0.52373 0.18529 0.0
C347 C 0.81138 0.19717 0.47993 0.0
C348 C 0.7528 0.18056 0.47698 0.0
C349 C 0.86302 0.24735 0.47712 0.0
C350 C 0.85805 0.283 0.47181 0.0
H351 H 0.81754 0.17093 0.48335 0.0
H352 H 0.90711 0.25802 0.47814 0.0
S353 S 0.71646 0.26039 0.46317 0.0
N354 N 0.69397 0.20545 0.46913 0.0
N355 N 0.7908 0.29892 0.4642 0.0
C356 C 0.80021 0.26747 0.46976 0.0
C357 C 0.74771 0.21656 0.4723 0.0
C358 C 0.64787 0.82701 0.82567 0.0
C359 C 0.64093 0.79243 0.80822 0.0
C360 C 0.63844 0.85874 0.81789 0.0
C361 C 0.62211 0.85688 0.79241 0.0
H362 H 0.66236 0.83049 0.84524 0.0
H363 H 0.64667 0.88633 0.83154 0.0
S364 S 0.59377 0.7705 0.73987 0.0
N365 N 0.61461 0.75714 0.76461 0.0
N366 N 0.59395 0.81483 0.75044 0.0
C367 C 0.61176 0.82059 0.77523 0.0
C368 C 0.62195 0.78885 0.78301 0.0
C369 C 0.78484 0.48556 0.20005 0.0
C370 C 0.77874 0.44315 0.19523 0.0
C371 C 0.75702 0.49569 0.18387 0.0
C372 C 0.71999 0.46231 0.16366 0.0
H373 H 0.81928 0.51542 0.21312 0.0
H374 H 0.76894 0.53158 0.18573 0.0
S375 S 0.66799 0.3366 0.1511 0.0
N376 N 0.71744 0.36061 0.17499 0.0
N377 N 0.66348 0.37909 0.14465 0.0
C378 C 0.7031 0.41527 0.16241 0.0
C379 C 0.73139 0.40503 0.17896 0.0
C380 C 0.37691 0.8525 0.45481 0.0
C381 C 0.42552 0.87061 0.4714 0.0
C382 C 0.32622 0.80178 0.4526 0.0
C383 C 0.32141 0.7668 0.46703 0.0
H384 H 0.37886 0.87738 0.44264 0.0
H385 H 0.2913 0.7895 0.43868 0.0
S386 S 0.43291 0.79498 0.51523 0.0
N387 N 0.46321 0.84952 0.50413 0.0
N388 N 0.3677 0.75418 0.49977 0.0
C389 C 0.36796 0.78449 0.48471 0.0
C390 C 0.42008 0.8363 0.48688 0.0
C391 C 0.56939 0.23462 0.83127 0.0
C392 C 0.60126 0.27943 0.81868 0.0
C393 C 0.57372 0.19894 0.82341 0.0
C394 C 0.61012 0.2073 0.80279 0.0
H395 H 0.53796 0.22573 0.84612 0.0
H396 H 0.54545 0.16348 0.83234 0.0
S397 S 0.71089 0.3223 0.76685 0.0
N398 N 0.67637 0.3329 0.78708 0.0
N399 N 0.68488 0.2661 0.77242 0.0
C400 C 0.64608 0.25367 0.79161 0.0
C401 C 0.64152 0.28972 0.79952 0.0
C402 C 0.63792 0.77404 0.479 0.0
C403 C 0.59002 0.77291 0.48503 0.0
C404 C 0.63684 0.73602 0.48605 0.0
C405 C 0.58791 0.69589 0.49936 0.0
H406 H 0.6785 0.80623 0.47053 0.0
H407 H 0.6763 0.73986 0.48276 0.0
S408 S 0.44678 0.67055 0.51527 0.0
N409 N 0.48863 0.72457 0.5016 0.0
N410 N 0.48728 0.65337 0.51522 0.0
C411 C 0.53768 0.6921 0.50352 0.0
C412 C 0.53855 0.7306 0.49625 0.0
C413 C 0.84974 0.58706 0.82653 0.0
C414 C 0.78985 0.54903 0.83484 0.0
C415 C 0.89734 0.58543 0.82944 0.0
C416 C 0.88889 0.54596 0.84119 0.0
H417 H 0.86022 0.61866 0.81755 0.0
H418 H 0.94171 0.61621 0.82282 0.0
S419 S 0.74085 0.43622 0.86635 0.0
N420 N 0.72636 0.47048 0.85566 0.0
N421 N 0.81249 0.46659 0.86037 0.0
C422 C 0.82887 0.50763 0.84937 0.0
C423 C 0.78079 0.50935 0.84642 0.0
C424 C 0.31712 0.6968 0.16963 0.0
C425 C 0.27015 0.67939 0.15219 0.0
C426 C 0.36655 0.74787 0.17324 0.0
C427 C 0.37169 0.78332 0.15909 0.0
H428 H 0.31425 0.67109 0.18147 0.0
H429 H 0.40016 0.75993 0.18782 0.0
S430 S 0.26264 0.75693 0.11015 0.0
N431 N 0.23318 0.70178 0.11996 0.0
N432 N 0.32649 0.79728 0.12657 0.0
C433 C 0.32634 0.76626 0.14092 0.0
C434 C 0.27553 0.71446 0.13752 0.0
C435 C 0.54641 0.26604 0.50198 0.0
C436 C 0.58011 0.26871 0.48169 0.0
C437 C 0.5558 0.30789 0.51115 0.0
C438 C 0.59936 0.35413 0.50042 0.0
H439 H 0.51274 0.23126 0.51104 0.0
H440 H 0.52931 0.30417 0.52708 0.0
S441 S 0.69782 0.38065 0.44617 0.0
N442 N 0.65726 0.32081 0.45039 0.0
N443 N 0.67507 0.40016 0.4678 0.0
C444 C 0.63195 0.35719 0.47947 0.0
C445 C 0.62233 0.31428 0.47006 0.0
C446 C 0.46622 0.55615 0.86028 0.0
C447 C 0.47693 0.54148 0.83715 0.0
C448 C 0.41842 0.55726 0.863 0.0
C449 C 0.37623 0.543 0.84293 0.0
H450 H 0.49551 0.56728 0.87667 0.0
H451 H 0.41604 0.57057 0.88142 0.0
S452 S 0.38547 0.50223 0.77755 0.0
N453 N 0.44222 0.51367 0.79329 0.0
N454 N 0.35252 0.51387 0.79815 0.0
C455 C 0.38732 0.52848 0.81946 0.0
C456 C 0.43682 0.52799 0.81672 0.0
C457 C 0.89781 0.35747 0.16466 0.0
C458 C 0.94338 0.3702 0.14774 0.0
C459 C 0.84861 0.30779 0.16963 0.0
C460 C 0.84199 0.26824 0.15771 0.0
H461 H 0.90115 0.38616 0.175 0.0
H462 H 0.81597 0.30028 0.18345 0.0
S463 S 0.94667 0.28058 0.11091 0.0
N464 N 0.97719 0.33836 0.11831 0.0
N465 N 0.88442 0.24517 0.12761 0.0
C466 C 0.8859 0.28013 0.14008 0.0
C467 C 0.9366 0.33092 0.13517 0.0
C468 C 0.14309 0.56756 0.06154 0.0
C469 C 0.09334 0.52495 0.07339 0.0
C470 C 0.1499 0.56791 0.03481 0.0
C471 C 0.10667 0.52585 0.01893 0.0
H472 H 0.17612 0.60128 0.07295 0.0
H473 H 0.18807 0.60191 0.02643 0.0
S474 S 0.97092 0.40384 0.04093 0.0
N475 N 1.0023 0.43889 0.06752 0.0
N476 N 1.01461 0.43944 0.01741 0.0
C477 C 1.05779 0.48258 0.03074 0.0
C478 C 1.05122 0.48218 0.05793 0.0
C479 C 0.55804 0.01631 0.38856 0.0
C480 C 0.61003 0.02792 0.3993 0.0
C481 C 0.55306 0.01887 0.36206 0.0
C482 C 0.60002 0.0333 0.3456 0.0
H483 H 0.5213 1.0056 0.40068 0.0
H484 H 0.5126 1.00997 0.35442 0.0
S485 S 0.74234 0.06227 0.36368 0.0
N486 N 0.70745 0.05114 0.39096 0.0
N487 N 0.69758 0.05553 0.34152 0.0
C488 C 0.65133 0.0438 0.35604 0.0
C489 C 0.65648 0.04124 0.3828 0.0
C490 C 0.67438 0.56171 0.74403 0.0
C491 C 0.6203 0.54304 0.75599 0.0
C492 C 0.68057 0.56795 0.71746 0.0
C493 C 0.6334 0.55676 0.70219 0.0
H494 H 0.71105 0.56948 0.75502 0.0
H495 H 0.72209 0.58083 0.70873 0.0
S496 S 0.48445 0.50998 0.72469 0.0
N497 N 0.52006 0.51573 0.75079 0.0
N498 N 0.53198 0.52798 0.70116 0.0
C499 C 0.58025 0.54011 0.71417 0.0
C500 C 0.57367 0.53316 0.74101 0.0
C501 C 0.59913 1.00779 0.557 0.0
C502 C 0.57508 0.02782 0.54697 0.0
C503 C 0.60573 1.00744 0.58355 0.0
C504 C 0.5892 0.02776 0.60096 0.0
H505 H 0.61149 0.99112 0.54436 0.0
H506 H 0.62419 0.9914 0.59046 0.0
S507 S 0.5246 0.08528 0.58409 0.0
N508 N 0.53536 0.06887 0.55625 0.0
N509 N 0.54715 0.06812 0.60601 0.0
C510 C 0.56542 0.04819 0.59102 0.0
C511 C 0.55843 0.04818 0.56407 0.0
C512 C 0.62985 0.5002 0.90496 0.0
C513 C 0.6407 0.54397 0.90086 0.0
C514 C 0.60733 0.47715 0.92818 0.0
C515 C 0.59551 0.49763 0.94782 0.0
H516 H 0.63848 0.48361 0.89011 0.0
H517 H 0.59855 0.44292 0.93072 0.0
S518 S 0.62237 0.61469 0.94675 0.0
N519 N 0.64158 0.60866 0.91805 0.0
N520 N 0.60066 0.56615 0.96237 0.0
C521 C 0.60829 0.54249 0.94414 0.0
C522 C 0.63086 0.56567 0.92042 0.0
C523 C 0.10964 0.55049 0.23848 0.0
C524 C 0.08823 0.50626 0.22533 0.0
C525 C 0.10443 0.55261 0.26528 0.0
C526 C 1.07748 0.51058 0.28005 0.0
H527 H 0.13176 0.58398 0.22812 0.0
H528 H 0.12203 0.5876 0.27452 0.0
S529 S 1.01365 0.38558 0.25483 0.0
N530 N 1.03728 0.41901 0.22924 0.0
N531 N 1.02983 0.42358 0.27918 0.0
C532 C 1.05522 0.46607 0.267 0.0
C533 C 1.06001 0.4638 0.23983 0.0
loop_
_geom_bond_atom_site_label_1
_geom_bond_atom_site_label_2
_geom_bond_distance
_geom_bond_site_symmetry_2
_ccdc_geom_bond_type
Ho0 C3 2.811 . S
Ho0 O20 2.322 . S
Ho0 O22 2.378 . S
Ho0 O23 2.524 . S
Ho0 O24 2.381 . S
Ho0 O25 2.669 . S
Ho0 O27 2.346 1_455 S
Ho0 O31 2.305 . S
Ho1 C12 2.811 . S
Ho1 O21 2.346 1_655 S
Ho1 O25 2.305 1_655 S
Ho1 O26 2.322 . S
Ho1 O28 2.378 . S
Ho1 O29 2.524 . S
Ho1 O30 2.381 . S
Ho1 O31 2.669 1_655 S
C2 O20 1.259 . S
C2 O21 1.268 . S
C3 Ho0 2.811 . S
C3 C4 1.488 . S
C3 O22 1.215 . S
C3 O23 1.289 . S
C4 C3 1.488 . S
C4 C5 1.348 . S
C4 C9 1.413 . S
C5 C4 1.348 . S
C5 C6 1.442 . S
C5 H32 0.930 . S
C6 C5 1.442 . S
C6 C7 1.381 . S
C6 H33 0.931 . S
C7 C6 1.381 . S
C7 C8 1.321 . S
C8 C7 1.321 . S
C8 C9 1.403 . S
C8 H34 0.934 . S
C9 C4 1.413 . S
C9 C8 1.403 . S
C9 H35 0.930 . S
C10 O24 1.275 . S
C10 O25 1.256 . S
C11 O26 1.259 . S
C11 O27 1.268 . S
C12 Ho1 2.811 . S
C12 C13 1.488 . S
C12 O28 1.215 . S
C12 O29 1.289 . S
C13 C12 1.488 . S
C13 C14 1.348 . S
C13 C18 1.413 . S
C14 C13 1.348 . S
C14 C15 1.442 . S
C14 H36 0.930 . S
C15 C14 1.442 . S
C15 C16 1.381 . S
C15 H37 0.931 . S
C16 C15 1.381 . S
C16 C17 1.321 . S
C17 C16 1.321 . S
C17 C18 1.403 . S
C17 H38 0.934 . S
C18 C13 1.413 . S
C18 C17 1.403 . S
C18 H39 0.930 . S
C19 O30 1.275 1_455 S
C19 O31 1.256 . S
O20 Ho0 2.322 . S
O20 C2 1.259 . S
O21 Ho1 2.346 1_455 S
O21 C2 1.268 . S
O22 Ho0 2.378 . S
O22 C3 1.215 . S
O23 Ho0 2.524 . S
O23 C3 1.289 . S
O24 Ho0 2.381 . S
O24 C10 1.275 . S
O25 Ho0 2.669 . S
O25 Ho1 2.305 1_455 S
O25 C10 1.256 . S
O26 Ho1 2.322 . S
O26 C11 1.259 . S
O27 Ho0 2.346 1_655 S
O27 C11 1.268 . S
O28 Ho1 2.378 . S
O28 C12 1.215 . S
O29 Ho1 2.524 . S
O29 C12 1.289 . S
O30 Ho1 2.381 . S
O30 C19 1.275 1_655 S
O31 Ho0 2.305 . S
O31 Ho1 2.669 1_455 S
O31 C19 1.256 . S
H32 C5 0.930 . S
H33 C6 0.931 . S
H34 C8 0.934 . S
H35 C9 0.930 . S
H36 C14 0.930 . S
H37 C15 0.931 . S
H38 C17 0.934 . S
H39 C18 0.930 . S
Ho40 C43 2.811 . S
Ho40 O60 2.322 . S
Ho40 O62 2.378 . S
Ho40 O63 2.524 . S
Ho40 O64 2.381 . S
Ho40 O65 2.669 1_565 S
Ho40 O67 2.346 1_565 S
Ho40 O71 2.321 . S
Ho41 C52 2.811 . S
Ho41 O61 2.346 1_545 S
Ho41 O65 2.305 . S
Ho41 O66 2.322 . S
Ho41 O68 2.378 . S
Ho41 O69 2.524 . S
Ho41 O70 2.381 . S
Ho41 O71 2.644 1_545 S
C42 O60 1.259 . S
C42 O61 1.268 . S
C43 Ho40 2.811 . S
C43 C44 1.488 . S
C43 O62 1.215 . S
C43 O63 1.289 . S
C44 C43 1.488 . S
C44 C45 1.348 . S
C44 C49 1.413 . S
C45 C44 1.348 . S
C45 C46 1.442 . S
C45 H72 0.930 . S
C46 C45 1.442 . S
C46 C47 1.381 . S
C46 H73 0.931 . S
C47 C46 1.381 . S
C47 C48 1.321 . S
C48 C47 1.321 . S
C48 C49 1.403 . S
C48 H74 0.934 . S
C49 C44 1.413 . S
C49 C48 1.403 . S
C49 H75 0.930 . S
C50 O64 1.275 1_545 S
C50 O65 1.256 . S
C51 O66 1.259 . S
C51 O67 1.268 . S
C52 Ho41 2.811 . S
C52 C53 1.488 . S
C52 O68 1.215 . S
C52 O69 1.289 . S
C53 C52 1.488 . S
C53 C54 1.348 . S
C53 C58 1.413 . S
C54 C53 1.348 . S
C54 C55 1.442 . S
C54 H76 0.930 . S
C55 C54 1.442 . S
C55 C56 1.381 . S
C55 H77 0.931 . S
C56 C55 1.381 . S
C56 C57 1.321 . S
C57 C56 1.321 . S
C57 C58 1.403 . S
C57 H78 0.934 . S
C58 C53 1.413 . S
C58 C57 1.403 . S
C58 H79 0.930 . S
C59 O70 1.275 . S
C59 O71 1.242 1_545 S
O60 Ho40 2.322 . S
O60 C42 1.259 . S
O61 Ho41 2.346 1_565 S
O61 C42 1.268 . S
O62 Ho40 2.378 . S
O62 C43 1.215 . S
O63 Ho40 2.524 . S
O63 C43 1.289 . S
O64 Ho40 2.381 . S
O64 C50 1.275 1_565 S
O65 Ho40 2.669 1_545 S
O65 Ho41 2.305 . S
O65 C50 1.256 . S
O66 Ho41 2.322 . S
O66 C51 1.259 . S
O67 Ho40 2.346 1_545 S
O67 C51 1.268 . S
O68 Ho41 2.378 . S
O68 C52 1.215 . S
O69 Ho41 2.524 . S
O69 C52 1.289 . S
O70 Ho41 2.381 . S
O70 C59 1.275 . S
O71 Ho40 2.321 . S
O71 Ho41 2.644 1_565 S
O71 C59 1.242 1_565 S
H72 C45 0.930 . S
H73 C46 0.931 . S
H74 C48 0.934 . S
H75 C49 0.930 . S
H76 C54 0.930 . S
H77 C55 0.931 . S
H78 C57 0.934 . S
H79 C58 0.930 . S
Ho80 C83 2.811 . S
Ho80 O100 2.322 . S
Ho80 O102 2.378 . S
Ho80 O103 2.524 . S
Ho80 O104 2.381 . S
Ho80 O105 2.669 . S
Ho80 O107 2.346 . S
Ho80 O111 2.305 . S
Ho81 C92 2.811 . S
Ho81 O101 2.346 . S
Ho81 O105 2.305 . S
Ho81 O106 2.322 . S
Ho81 O108 2.378 . S
Ho81 O109 2.524 . S
Ho81 O110 2.381 . S
Ho81 O111 2.669 . S
C82 O100 1.259 . S
C82 O101 1.268 . S
C83 Ho80 2.811 . S
C83 C84 1.488 . S
C83 O102 1.215 . S
C83 O103 1.289 . S
C84 C83 1.488 . S
C84 C85 1.348 . S
C84 C89 1.413 . S
C85 C84 1.348 . S
C85 C86 1.442 . S
C85 H112 0.930 . S
C86 C85 1.442 . S
C86 C87 1.381 . S
C86 H113 0.931 . S
C87 C86 1.381 . S
C87 C88 1.321 . S
C88 C87 1.321 . S
C88 C89 1.403 . S
C88 H114 0.934 . S
C89 C84 1.413 . S
C89 C88 1.403 . S
C89 H115 0.930 . S
C90 O104 1.275 . S
C90 O105 1.256 . S
C91 O106 1.259 . S
C91 O107 1.268 . S
C92 Ho81 2.811 . S
C92 C93 1.488 . S
C92 O108 1.215 . S
C92 O109 1.289 . S
C93 C92 1.488 . S
C93 C94 1.348 . S
C93 C98 1.413 . S
C94 C93 1.348 . S
C94 C95 1.442 . S
C94 H116 0.930 . S
C95 C94 1.442 . S
C95 C96 1.381 . S
C95 H117 0.931 . S
C96 C95 1.381 . S
C96 C97 1.321 . S
C97 C96 1.321 . S
C97 C98 1.403 . S
C97 H118 0.934 . S
C98 C93 1.413 . S
C98 C97 1.403 . S
C98 H119 0.930 . S
C99 O110 1.275 . S
C99 O111 1.256 . S
O100 Ho80 2.322 . S
O100 C82 1.259 . S
O101 Ho81 2.346 . S
O101 C82 1.268 . S
O102 Ho80 2.378 . S
O102 C83 1.215 . S
O103 Ho80 2.524 . S
O103 C83 1.289 . S
O104 Ho80 2.381 . S
O104 C90 1.275 . S
O105 Ho80 2.669 . S
O105 Ho81 2.305 . S
O105 C90 1.256 . S
O106 Ho81 2.322 . S
O106 C91 1.259 . S
O107 Ho80 2.346 . S
O107 C91 1.268 . S
O108 Ho81 2.378 . S
O108 C92 1.215 . S
O109 Ho81 2.524 . S
O109 C92 1.289 . S
O110 Ho81 2.381 . S
O110 C99 1.275 . S
O111 Ho80 2.305 . S
O111 Ho81 2.669 . S
O111 C99 1.256 . S
H112 C85 0.930 . S
H113 C86 0.931 . S
H114 C88 0.934 . S
H115 C89 0.930 . S
H116 C94 0.930 . S
H117 C95 0.931 . S
H118 C97 0.934 . S
H119 C98 0.930 . S
C120 C121 1.384 . S
C120 H133 0.947 . S
C120 C155 1.382 . S
C121 C120 1.384 . S
C121 C122 1.378 . S
C122 C121 1.378 . S
C122 C123 1.378 . S
C122 H134 0.952 . S
C123 C122 1.378 . S
C123 H135 0.950 . S
C123 C154 1.383 . S
H124 C143 0.947 . S
H125 C144 0.946 . S
H126 C146 0.953 . S
H127 C147 0.945 . S
H128 C149 0.952 . S
H129 C150 0.949 . S
H130 C152 0.950 . S
H131 C153 0.948 . S
H132 C155 0.951 . S
H133 C120 0.947 . S
H134 C122 0.952 . S
H135 C123 0.950 . S
N136 C139 1.382 . S
N136 C141 1.363 1_545 S
N137 C139 1.371 . S
N137 C140 1.372 . S
N138 C140 1.361 1_565 S
N138 C141 1.377 . S
C139 N136 1.382 . S
C139 N137 1.371 . S
C139 C142 1.480 . S
C140 N137 1.372 . S
C140 N138 1.361 1_545 S
C140 C148 1.457 . S
C141 N136 1.363 1_565 S
C141 N138 1.377 . S
C141 C154 1.479 . S
C142 C139 1.480 . S
C142 C143 1.383 . S
C142 C147 1.385 . S
C143 H124 0.947 . S
C143 C142 1.383 . S
C143 C144 1.388 . S
C144 H125 0.946 . S
C144 C143 1.388 . S
C144 C145 1.384 . S
C145 C144 1.384 . S
C145 C146 1.377 . S
C146 H126 0.953 . S
C146 C145 1.377 . S
C146 C147 1.369 . S
C147 H127 0.945 . S
C147 C142 1.385 . S
C147 C146 1.369 . S
C148 C140 1.457 . S
C148 C149 1.372 . S
C148 C153 1.364 1_545 S
C149 H128 0.952 . S
C149 C148 1.372 . S
C149 C150 1.389 . S
C150 H129 0.949 . S
C150 C149 1.389 . S
C150 C151 1.387 . S
C151 C150 1.387 . S
C151 C152 1.372 1_545 S
C152 H130 0.950 . S
C152 C151 1.372 1_565 S
C152 C153 1.379 . S
C153 H131 0.948 . S
C153 C148 1.364 1_565 S
C153 C152 1.379 . S
C154 C123 1.383 . S
C154 C141 1.479 . S
C154 C155 1.398 . S
C155 C120 1.382 . S
C155 H132 0.951 . S
C155 C154 1.398 . S
C156 C157 1.384 . S
C156 H169 0.947 . S
C156 C191 1.382 . S
C157 C156 1.384 . S
C157 C158 1.378 . S
C158 C157 1.378 . S
C158 C159 1.378 . S
C158 H170 0.952 . S
C159 C158 1.378 . S
C159 H171 0.950 . S
C159 C190 1.383 . S
H160 C179 0.947 . S
H161 C180 0.946 . S
H162 C182 0.953 . S
H163 C183 0.945 . S
H164 C185 0.952 . S
H165 C186 0.949 . S
H166 C188 0.950 . S
H167 C189 0.948 . S
H168 C191 0.951 . S
H169 C156 0.947 . S
H170 C158 0.952 . S
H171 C159 0.950 . S
N172 C175 1.382 . S
N172 C177 1.363 . S
N173 C175 1.371 . S
N173 C176 1.372 . S
N174 C176 1.361 . S
N174 C177 1.377 . S
C175 N172 1.382 . S
C175 N173 1.371 . S
C175 C178 1.480 . S
C176 N173 1.372 . S
C176 N174 1.361 . S
C176 C184 1.457 . S
C177 N172 1.363 . S
C177 N174 1.377 . S
C177 C190 1.479 . S
C178 C175 1.480 . S
C178 C179 1.383 . S
C178 C183 1.385 . S
C179 H160 0.947 . S
C179 C178 1.383 . S
C179 C180 1.388 . S
C180 H161 0.946 . S
C180 C179 1.388 . S
C180 C181 1.384 . S
C181 C180 1.384 . S
C181 C182 1.377 . S
C182 H162 0.953 . S
C182 C181 1.377 . S
C182 C183 1.369 . S
C183 H163 0.945 . S
C183 C178 1.385 . S
C183 C182 1.369 . S
C184 C176 1.457 . S
C184 C185 1.372 . S
C184 C189 1.364 . S
C185 H164 0.952 . S
C185 C184 1.372 . S
C185 C186 1.389 . S
C186 H165 0.949 . S
C186 C185 1.389 . S
C186 C187 1.387 . S
C187 C186 1.387 . S
C187 C188 1.372 . S
C188 H166 0.950 . S
C188 C187 1.372 . S
C188 C189 1.379 . S
C189 H167 0.948 . S
C189 C184 1.364 . S
C189 C188 1.379 . S
C190 C159 1.383 . S
C190 C177 1.479 . S
C190 C191 1.398 . S
C191 C156 1.382 . S
C191 H168 0.951 . S
C191 C190 1.398 . S
C192 C193 1.384 . S
C192 H205 0.947 . S
C192 C227 1.382 . S
C193 C192 1.384 . S
C193 C194 1.378 . S
C194 C193 1.378 . S
C194 C195 1.378 . S
C194 H206 0.952 . S
C195 C194 1.378 . S
C195 H207 0.950 . S
C195 C226 1.383 . S
H196 C215 0.947 . S
H197 C216 0.946 . S
H198 C218 0.953 . S
H199 C219 0.945 . S
H200 C221 0.952 . S
H201 C222 0.949 . S
H202 C224 0.950 1_655 S
H203 C225 0.948 1_655 S
H204 C227 0.951 . S
H205 C192 0.947 . S
H206 C194 0.952 . S
H207 C195 0.950 . S
N208 C211 1.382 . S
N208 C213 1.363 . S
N209 C211 1.371 . S
N209 C212 1.372 . S
N210 C212 1.361 . S
N210 C213 1.377 . S
C211 N208 1.382 . S
C211 N209 1.371 . S
C211 C214 1.480 . S
C212 N209 1.372 . S
C212 N210 1.361 . S
C212 C220 1.457 . S
C213 N208 1.363 . S
C213 N210 1.377 . S
C213 C226 1.479 1_455 S
C214 C211 1.480 . S
C214 C215 1.383 . S
C214 C219 1.385 . S
C215 H196 0.947 . S
C215 C214 1.383 . S
C215 C216 1.388 . S
C216 H197 0.946 . S
C216 C215 1.388 . S
C216 C217 1.384 . S
C217 C216 1.384 . S
C217 C218 1.377 . S
C218 H198 0.953 . S
C218 C217 1.377 . S
C218 C219 1.369 . S
C219 H199 0.945 . S
C219 C214 1.385 . S
C219 C218 1.369 . S
C220 C212 1.457 . S
C220 C221 1.372 . S
C220 C225 1.364 . S
C221 H200 0.952 . S
C221 C220 1.372 . S
C221 C222 1.389 . S
C222 H201 0.949 . S
C222 C221 1.389 . S
C222 C223 1.387 . S
C223 C222 1.387 . S
C223 C224 1.372 . S
C224 H202 0.950 1_455 S
C224 C223 1.372 . S
C224 C225 1.379 . S
C225 H203 0.948 1_455 S
C225 C220 1.364 . S
C225 C224 1.379 . S
C226 C195 1.383 . S
C226 C213 1.479 1_655 S
C226 C227 1.398 . S
C227 C192 1.382 . S
C227 H204 0.951 . S
C227 C226 1.398 . S
C228 C229 1.384 . S
C228 H241 0.947 . S
C228 C263 1.382 . S
C229 C228 1.384 . S
C229 C230 1.378 . S
C230 C229 1.378 . S
C230 C231 1.378 . S
C230 H242 0.952 . S
C231 C230 1.378 . S
C231 H243 0.950 . S
C231 C262 1.383 . S
H232 C251 0.947 . S
H233 C252 0.946 . S
H234 C254 0.953 . S
H235 C255 0.945 . S
H236 C257 0.952 . S
H237 C258 0.949 . S
H238 C260 0.950 . S
H239 C261 0.948 . S
H240 C263 0.951 . S
H241 C228 0.947 . S
H242 C230 0.952 . S
H243 C231 0.950 . S
N244 C247 1.382 1_455 S
N244 C249 1.363 . S
N245 C247 1.371 . S
N245 C248 1.372 1_655 S
N246 C248 1.361 . S
N246 C249 1.377 . S
C247 N244 1.382 1_655 S
C247 N245 1.371 . S
C247 C250 1.480 . S
C248 N245 1.372 1_455 S
C248 N246 1.361 . S
C248 C256 1.457 . S
C249 N244 1.363 . S
C249 N246 1.377 . S
C249 C262 1.479 . S
C250 C247 1.480 . S
C250 C251 1.383 . S
C250 C255 1.385 . S
C251 H232 0.947 . S
C251 C250 1.383 . S
C251 C252 1.388 . S
C252 H233 0.946 . S
C252 C251 1.388 . S
C252 C253 1.384 . S
C253 C252 1.384 . S
C253 C254 1.377 . S
C254 H234 0.953 . S
C254 C253 1.377 . S
C254 C255 1.369 . S
C255 H235 0.945 . S
C255 C250 1.385 . S
C255 C254 1.369 . S
C256 C248 1.457 . S
C256 C257 1.372 1_455 S
C256 C261 1.364 . S
C257 H236 0.952 . S
C257 C256 1.372 1_655 S
C257 C258 1.389 . S
C258 H237 0.949 . S
C258 C257 1.389 . S
C258 C259 1.387 1_655 S
C259 C258 1.387 1_455 S
C259 C260 1.372 . S
C260 H238 0.950 . S
C260 C259 1.372 . S
C260 C261 1.379 . S
C261 H239 0.948 . S
C261 C256 1.364 . S
C261 C260 1.379 . S
C262 C231 1.383 . S
C262 C249 1.479 . S
C262 C263 1.398 . S
C263 C228 1.382 . S
C263 H240 0.951 . S
C263 C262 1.398 . S
C264 C265 1.384 . S
C264 H277 0.947 . S
C264 C299 1.382 . S
C265 C264 1.384 . S
C265 C266 1.378 . S
C266 C265 1.378 . S
C266 C267 1.378 . S
C266 H278 0.952 . S
C267 C266 1.378 . S
C267 H279 0.950 . S
C267 C298 1.383 . S
H268 C287 0.947 . S
H269 C288 0.946 . S
H270 C290 0.953 . S
H271 C291 0.945 . S
H272 C293 0.952 . S
H273 C294 0.949 . S
H274 C296 0.950 . S
H275 C297 0.948 . S
H276 C299 0.951 . S
H277 C264 0.947 . S
H278 C266 0.952 . S
H279 C267 0.950 . S
N280 C283 1.382 1_545 S
N280 C285 1.363 . S
N281 C283 1.371 . S
N281 C284 1.372 1_565 S
N282 C284 1.361 . S
N282 C285 1.377 . S
C283 N280 1.382 1_565 S
C283 N281 1.371 . S
C283 C286 1.480 . S
C284 N281 1.372 1_545 S
C284 N282 1.361 . S
C284 C292 1.457 . S
C285 N280 1.363 . S
C285 N282 1.377 . S
C285 C298 1.479 . S
C286 C283 1.480 . S
C286 C287 1.383 . S
C286 C291 1.385 . S
C287 H268 0.947 . S
C287 C286 1.383 . S
C287 C288 1.388 . S
C288 H269 0.946 . S
C288 C287 1.388 . S
C288 C289 1.384 . S
C289 C288 1.384 . S
C289 C290 1.377 . S
C290 H270 0.953 . S
C290 C289 1.377 . S
C290 C291 1.369 . S
C291 H271 0.945 . S
C291 C286 1.385 . S
C291 C290 1.369 . S
C292 C284 1.457 . S
C292 C293 1.372 1_545 S
C292 C297 1.364 . S
C293 H272 0.952 . S
C293 C292 1.372 1_565 S
C293 C294 1.389 . S
C294 H273 0.949 . S
C294 C293 1.389 . S
C294 C295 1.387 . S
C295 C294 1.387 . S
C295 C296 1.372 1_565 S
C296 H274 0.950 . S
C296 C295 1.372 1_545 S
C296 C297 1.379 . S
C297 H275 0.948 . S
C297 C292 1.364 . S
C297 C296 1.379 . S
C298 C267 1.383 . S
C298 C285 1.479 . S
C298 C299 1.398 . S
C299 C264 1.382 . S
C299 H276 0.951 . S
C299 C298 1.398 . S
C300 C301 1.384 . S
C300 H313 0.947 . S
C300 C335 1.382 . S
C301 C300 1.384 . S
C301 C302 1.378 . S
C302 C301 1.378 . S
C302 C303 1.378 . S
C302 H314 0.952 . S
C303 C302 1.378 . S
C303 H315 0.950 . S
C303 C334 1.383 . S
H304 C323 0.947 . S
H305 C324 0.946 . S
H306 C326 0.953 . S
H307 C327 0.945 . S
H308 C329 0.952 . S
H309 C330 0.949 . S
H310 C332 0.950 . S
H311 C333 0.948 . S
H312 C335 0.951 . S
H313 C300 0.947 . S
H314 C302 0.952 . S
H315 C303 0.950 . S
N316 C319 1.382 . S
N316 C321 1.363 . S
N317 C319 1.371 . S
N317 C320 1.372 . S
N318 C320 1.361 . S
N318 C321 1.377 . S
C319 N316 1.382 . S
C319 N317 1.371 . S
C319 C322 1.480 . S
C320 N317 1.372 . S
C320 N318 1.361 . S
C320 C328 1.457 . S
C321 N316 1.363 . S
C321 N318 1.377 . S
C321 C334 1.479 . S
C322 C319 1.480 . S
C322 C323 1.383 . S
C322 C327 1.385 . S
C323 H304 0.947 . S
C323 C322 1.383 . S
C323 C324 1.388 . S
C324 H305 0.946 . S
C324 C323 1.388 . S
C324 C325 1.384 . S
C325 C324 1.384 . S
C325 C326 1.377 . S
C326 H306 0.953 . S
C326 C325 1.377 . S
C326 C327 1.369 . S
C327 H307 0.945 . S
C327 C322 1.385 . S
C327 C326 1.369 . S
C328 C320 1.457 . S
C328 C329 1.372 . S
C328 C333 1.364 . S
C329 H308 0.952 . S
C329 C328 1.372 . S
C329 C330 1.389 1_554 S
C330 H309 0.949 . S
C330 C329 1.389 1_556 S
C330 C331 1.387 . S
C331 C330 1.387 . S
C331 C332 1.372 . S
C332 H310 0.950 . S
C332 C331 1.372 . S
C332 C333 1.379 1_556 S
C333 H311 0.948 . S
C333 C328 1.364 . S
C333 C332 1.379 1_554 S
C334 C303 1.383 . S
C334 C321 1.479 . S
C334 C335 1.398 . S
C335 C300 1.382 . S
C335 H312 0.951 . S
C335 C334 1.398 . S
C336 C337 1.369 . S
C336 C338 1.419 . S
C336 H340 0.930 . S
C337 C336 1.369 . S
C337 C346 1.429 . S
C338 C336 1.419 . S
C338 C339 1.363 . S
C338 H341 0.929 . S
C339 C338 1.363 . S
C339 C345 1.428 . S
H340 C336 0.930 . S
H341 C338 0.929 . S
S342 N343 1.613 . S
S342 N344 1.610 . S
N343 S342 1.613 . S
N343 C346 1.350 . S
N344 S342 1.610 . S
N344 C345 1.351 . S
C345 C339 1.428 . S
C345 N344 1.351 . S
C345 C346 1.434 . S
C346 C337 1.429 . S
C346 N343 1.350 . S
C346 C345 1.434 . S
C347 C348 1.369 . S
C347 C349 1.419 . S
C347 H351 0.930 . S
C348 C347 1.369 . S
C348 C357 1.429 . S
C349 C347 1.419 . S
C349 C350 1.363 . S
C349 H352 0.929 . S
C350 C349 1.363 . S
C350 C356 1.428 . S
H351 C347 0.930 . S
H352 C349 0.929 . S
S353 N354 1.613 . S
S353 N355 1.610 . S
N354 S353 1.613 . S
N354 C357 1.350 . S
N355 S353 1.610 . S
N355 C356 1.351 . S
C356 C350 1.428 . S
C356 N355 1.351 . S
C356 C357 1.434 . S
C357 C348 1.429 . S
C357 N354 1.350 . S
C357 C356 1.434 . S
C358 C359 1.369 . S
C358 C360 1.419 . S
C358 H362 0.930 . S
C359 C358 1.369 . S
C359 C368 1.429 . S
C360 C358 1.419 . S
C360 C361 1.363 . S
C360 H363 0.929 . S
C361 C360 1.363 . S
C361 C367 1.428 . S
H362 C358 0.930 . S
H363 C360 0.929 . S
S364 N365 1.613 . S
S364 N366 1.610 . S
N365 S364 1.613 . S
N365 C368 1.350 . S
N366 S364 1.610 . S
N366 C367 1.351 . S
C367 C361 1.428 . S
C367 N366 1.351 . S
C367 C368 1.434 . S
C368 C359 1.429 . S
C368 N365 1.350 . S
C368 C367 1.434 . S
C369 C370 1.369 . S
C369 C371 1.419 . S
C369 H373 0.930 . S
C370 C369 1.369 . S
C370 C379 1.429 . S
C371 C369 1.419 . S
C371 C372 1.363 . S
C371 H374 0.929 . S
C372 C371 1.363 . S
C372 C378 1.428 . S
H373 C369 0.930 . S
H374 C371 0.929 . S
S375 N376 1.613 . S
S375 N377 1.610 . S
N376 S375 1.613 . S
N376 C379 1.350 . S
N377 S375 1.610 . S
N377 C378 1.351 . S
C378 C372 1.428 . S
C378 N377 1.351 . S
C378 C379 1.434 . S
C379 C370 1.429 . S
C379 N376 1.350 . S
C379 C378 1.434 . S
C380 C381 1.369 . S
C380 C382 1.419 . S
C380 H384 0.930 . S
C381 C380 1.369 . S
C381 C390 1.429 . S
C382 C380 1.419 . S
C382 C383 1.363 . S
C382 H385 0.929 . S
C383 C382 1.363 . S
C383 C389 1.428 . S
H384 C380 0.930 . S
H385 C382 0.929 . S
S386 N387 1.613 . S
S386 N388 1.610 . S
N387 S386 1.613 . S
N387 C390 1.350 . S
N388 S386 1.610 . S
N388 C389 1.351 . S
C389 C383 1.428 . S
C389 N388 1.351 . S
C389 C390 1.434 . S
C390 C381 1.429 . S
C390 N387 1.350 . S
C390 C389 1.434 . S
C391 C392 1.369 . S
C391 C393 1.419 . S
C391 H395 0.930 . S
C392 C391 1.369 . S
C392 C401 1.429 . S
C393 C391 1.419 . S
C393 C394 1.363 . S
C393 H396 0.929 . S
C394 C393 1.363 . S
C394 C400 1.428 . S
H395 C391 0.930 . S
H396 C393 0.929 . S
S397 N398 1.613 . S
S397 N399 1.610 . S
N398 S397 1.613 . S
N398 C401 1.350 . S
N399 S397 1.610 . S
N399 C400 1.351 . S
C400 C394 1.428 . S
C400 N399 1.351 . S
C400 C401 1.434 . S
C401 C392 1.429 . S
C401 N398 1.350 . S
C401 C400 1.434 . S
C402 C403 1.369 . S
C402 C404 1.419 . S
C402 H406 0.930 . S
C403 C402 1.369 . S
C403 C412 1.429 . S
C404 C402 1.419 . S
C404 C405 1.363 . S
C404 H407 0.929 . S
C405 C404 1.363 . S
C405 C411 1.428 . S
H406 C402 0.930 . S
H407 C404 0.929 . S
S408 N409 1.613 . S
S408 N410 1.610 . S
N409 S408 1.613 . S
N409 C412 1.350 . S
N410 S408 1.610 . S
N410 C411 1.351 . S
C411 C405 1.428 . S
C411 N410 1.351 . S
C411 C412 1.434 . S
C412 C403 1.429 . S
C412 N409 1.350 . S
C412 C411 1.434 . S
C413 C414 1.369 . S
C413 C415 1.419 . S
C413 H417 0.930 . S
C414 C413 1.369 . S
C414 C423 1.429 . S
C415 C413 1.419 . S
C415 C416 1.363 . S
C415 H418 0.929 . S
C416 C415 1.363 . S
C416 C422 1.428 . S
H417 C413 0.930 . S
H418 C415 0.929 . S
S419 N420 1.613 . S
S419 N421 1.610 . S
N420 S419 1.613 . S
N420 C423 1.350 . S
N421 S419 1.610 . S
N421 C422 1.351 . S
C422 C416 1.428 . S
C422 N421 1.351 . S
C422 C423 1.434 . S
C423 C414 1.429 . S
C423 N420 1.350 . S
C423 C422 1.434 . S
C424 C425 1.369 . S
C424 C426 1.419 . S
C424 H428 0.930 . S
C425 C424 1.369 . S
C425 C434 1.429 . S
C426 C424 1.419 . S
C426 C427 1.363 . S
C426 H429 0.929 . S
C427 C426 1.363 . S
C427 C433 1.428 . S
H428 C424 0.930 . S
H429 C426 0.929 . S
S430 N431 1.613 . S
S430 N432 1.610 . S
N431 S430 1.613 . S
N431 C434 1.350 . S
N432 S430 1.610 . S
N432 C433 1.351 . S
C433 C427 1.428 . S
C433 N432 1.351 . S
C433 C434 1.434 . S
C434 C425 1.429 . S
C434 N431 1.350 . S
C434 C433 1.434 . S
C435 C436 1.369 . S
C435 C437 1.419 . S
C435 H439 0.930 . S
C436 C435 1.369 . S
C436 C445 1.429 . S
C437 C435 1.419 . S
C437 C438 1.363 . S
C437 H440 0.929 . S
C438 C437 1.363 . S
C438 C444 1.428 . S
H439 C435 0.930 . S
H440 C437 0.929 . S
S441 N442 1.613 . S
S441 N443 1.610 . S
N442 S441 1.613 . S
N442 C445 1.350 . S
N443 S441 1.610 . S
N443 C444 1.351 . S
C444 C438 1.428 . S
C444 N443 1.351 . S
C444 C445 1.434 . S
C445 C436 1.429 . S
C445 N442 1.350 . S
C445 C444 1.434 . S
C446 C447 1.369 . S
C446 C448 1.419 . S
C446 H450 0.930 . S
C447 C446 1.369 . S
C447 C456 1.429 . S
C448 C446 1.419 . S
C448 C449 1.363 . S
C448 H451 0.929 . S
C449 C448 1.363 . S
C449 C455 1.428 . S
H450 C446 0.930 . S
H451 C448 0.929 . S
S452 N453 1.613 . S
S452 N454 1.610 . S
N453 S452 1.613 . S
N453 C456 1.350 . S
N454 S452 1.610 . S
N454 C455 1.351 . S
C455 C449 1.428 . S
C455 N454 1.351 . S
C455 C456 1.434 . S
C456 C447 1.429 . S
C456 N453 1.350 . S
C456 C455 1.434 . S
C457 C458 1.369 . S
C457 C459 1.419 . S
C457 H461 0.930 . S
C458 C457 1.369 . S
C458 C467 1.429 . S
C459 C457 1.419 . S
C459 C460 1.363 . S
C459 H462 0.929 . S
C460 C459 1.363 . S
C460 C466 1.428 . S
H461 C457 0.930 . S
H462 C459 0.929 . S
S463 N464 1.613 . S
S463 N465 1.610 . S
N464 S463 1.613 . S
N464 C467 1.350 . S
N465 S463 1.610 . S
N465 C466 1.351 . S
C466 C460 1.428 . S
C466 N465 1.351 . S
C466 C467 1.434 . S
C467 C458 1.429 . S
C467 N464 1.350 . S
C467 C466 1.434 . S
C468 C469 1.369 . S
C468 C470 1.419 . S
C468 H472 0.930 . S
C469 C468 1.369 . S
C469 C478 1.429 1_455 S
C470 C468 1.419 . S
C470 C471 1.363 . S
C470 H473 0.929 . S
C471 C470 1.363 . S
C471 C477 1.428 1_455 S
H472 C468 0.930 . S
H473 C470 0.929 . S
S474 N475 1.613 . S
S474 N476 1.610 . S
N475 S474 1.613 . S
N475 C478 1.350 . S
N476 S474 1.610 . S
N476 C477 1.351 . S
C477 C471 1.428 1_655 S
C477 N476 1.351 . S
C477 C478 1.434 . S
C478 C469 1.429 1_655 S
C478 N475 1.350 . S
C478 C477 1.434 . S
C479 C480 1.369 . S
C479 C481 1.419 . S
C479 H483 0.930 . S
C480 C479 1.369 . S
C480 C489 1.429 . S
C481 C479 1.419 . S
C481 C482 1.363 . S
C481 H484 0.929 . S
C482 C481 1.363 . S
C482 C488 1.428 . S
H483 C479 0.930 . S
H484 C481 0.929 . S
S485 N486 1.613 . S
S485 N487 1.610 . S
N486 S485 1.613 . S
N486 C489 1.350 . S
N487 S485 1.610 . S
N487 C488 1.351 . S
C488 C482 1.428 . S
C488 N487 1.351 . S
C488 C489 1.434 . S
C489 C480 1.429 . S
C489 N486 1.350 . S
C489 C488 1.434 . S
C490 C491 1.369 . S
C490 C492 1.419 . S
C490 H494 0.930 . S
C491 C490 1.369 . S
C491 C500 1.429 . S
C492 C490 1.419 . S
C492 C493 1.363 . S
C492 H495 0.929 . S
C493 C492 1.363 . S
C493 C499 1.428 . S
H494 C490 0.930 . S
H495 C492 0.929 . S
S496 N497 1.613 . S
S496 N498 1.610 . S
N497 S496 1.613 . S
N497 C500 1.350 . S
N498 S496 1.610 . S
N498 C499 1.351 . S
C499 C493 1.428 . S
C499 N498 1.351 . S
C499 C500 1.434 . S
C500 C491 1.429 . S
C500 N497 1.350 . S
C500 C499 1.434 . S
C501 C502 1.369 1_565 S
C501 C503 1.419 . S
C501 H505 0.930 . S
C502 C501 1.369 1_545 S
C502 C511 1.429 . S
C503 C501 1.419 . S
C503 C504 1.363 . S
C503 H506 0.929 . S
C504 C503 1.363 . S
C504 C510 1.428 1_565 S
H505 C501 0.930 . S
H506 C503 0.929 . S
S507 N508 1.613 . S
S507 N509 1.610 . S
N508 S507 1.613 . S
N508 C511 1.350 . S
N509 S507 1.610 . S
N509 C510 1.351 . S
C510 C504 1.428 1_545 S
C510 N509 1.351 . S
C510 C511 1.434 . S
C511 C502 1.429 . S
C511 N508 1.350 . S
C511 C510 1.434 . S
C512 C513 1.369 . S
C512 C514 1.419 . S
C512 H516 0.930 . S
C513 C512 1.369 . S
C513 C522 1.429 . S
C514 C512 1.419 . S
C514 C515 1.363 . S
C514 H517 0.929 . S
C515 C514 1.363 . S
C515 C521 1.428 . S
H516 C512 0.930 . S
H517 C514 0.929 . S
S518 N519 1.613 . S
S518 N520 1.610 . S
N519 S518 1.613 . S
N519 C522 1.350 . S
N520 S518 1.610 . S
N520 C521 1.351 . S
C521 C515 1.428 . S
C521 N520 1.351 . S
C521 C522 1.434 . S
C522 C513 1.429 . S
C522 N519 1.350 . S
C522 C521 1.434 . S
C523 C524 1.369 . S
C523 C525 1.419 . S
C523 H527 0.930 . S
C524 C523 1.369 . S
C524 C533 1.429 1_455 S
C525 C523 1.419 . S
C525 C526 1.363 . S
C525 H528 0.929 . S
C526 C525 1.363 . S
C526 C532 1.428 1_455 S
H527 C523 0.930 . S
H528 C525 0.929 . S
S529 N530 1.613 . S
S529 N531 1.610 . S
N530 S529 1.613 . S
N530 C533 1.350 . S
N531 S529 1.610 . S
N531 C532 1.351 . S
C532 C526 1.428 1_655 S
C532 N531 1.351 . S
C532 C533 1.434 . S
C533 C524 1.429 1_655 S
C533 N530 1.350 . S
C533 C532 1.434 . S
C337 C7 0.914 . S
C339 C325 1.002 . S
C348 C51 2.022 . S
C350 C253 1.928 . S
C359 C87 1.358 . S
C361 C289 1.377 . S
C370 C16 0.658 . S
C372 C301 0.581 . S
C383 C229 2.073 . S
C381 C42 2.163 . S
C394 C265 1.390 . S
C392 C96 1.362 . S
C403 C47 1.291 . S
C405 C181 1.319 . S
C414 C91 3.188 . S
C416 C193 3.133 . S
C425 C2 2.194 . S
C427 C121 2.124 . S
C438 C157 1.394 . S
C436 C56 1.358 . S
C449 C217 3.023 . S
C447 C82 3.118 . S
C458 C11 2.015 . S
C460 C145 1.950 . S
C471 C223 1.784 1_554 S
C469 C19 1.733 . S
C480 C50 1.331 . S
C482 C151 1.363 . S
C491 C99 1.459 . S
C493 C187 1.505 . S
C504 C295 1.476 . S
C502 C59 1.452 . S
C515 C331 1.094 . S
C513 C90 1.091 . S
C524 C10 1.325 . S
C526 C259 1.349 . S
