# Generated by pormake.
# Topology zzz, (3,6)-cn, num edge types: 1
# Building blocks:
#     Node 0, Type 0, BuildingBlock: ESEHIV_clean_linker_0, # of connection points: 3
#     Node 1, Type 0, BuildingBlock: ESEHIV_clean_linker_0, # of connection points: 3
#     Node 2, Type 0, BuildingBlock: ESEHIV_clean_linker_0, # of connection points: 3
#     Node 3, Type 0, BuildingBlock: ESEHIV_clean_linker_0, # of connection points: 3
#     Node 4, Type 0, BuildingBlock: ESEHIV_clean_linker_0, # of connection points: 3
#     Node 5, Type 0, BuildingBlock: ESEHIV_clean_linker_0, # of connection points: 3
#     Node 6, Type 0, BuildingBlock: ESEHIV_clean_linker_0, # of connection points: 3
#     Node 7, Type 0, BuildingBlock: ESEHIV_clean_linker_0, # of connection points: 3
#     Node 8, Type 1, BuildingBlock: KUMBOL_clean_sbu_1, # of connection points: 6
#     Node 9, Type 1, BuildingBlock: KUMBOL_clean_sbu_1, # of connection points: 6
#     Node 10, Type 1, BuildingBlock: KUMBOL_clean_sbu_1, # of connection points: 6
#     Node 11, Type 1, BuildingBlock: KUMBOL_clean_sbu_1, # of connection points: 6
#     Edge 12, Type (0, 1), BuildingBlock: UVAHIK_clean_linker_0, # of connection points: 2
#     Edge 13, Type (0, 1), BuildingBlock: UVAHIK_clean_linker_0, # of connection points: 2
#     Edge 14, Type (0, 1), BuildingBlock: UVAHIK_clean_linker_0, # of connection points: 2
#     Edge 15, Type (0, 1), BuildingBlock: UVAHIK_clean_linker_0, # of connection points: 2
#     Edge 16, Type (0, 1), BuildingBlock: UVAHIK_clean_linker_0, # of connection points: 2
#     Edge 17, Type (0, 1), BuildingBlock: UVAHIK_clean_linker_0, # of connection points: 2
#     Edge 18, Type (0, 1), BuildingBlock: UVAHIK_clean_linker_0, # of connection points: 2
#     Edge 19, Type (0, 1), BuildingBlock: UVAHIK_clean_linker_0, # of connection points: 2
#     Edge 20, Type (0, 1), BuildingBlock: UVAHIK_clean_linker_0, # of connection points: 2
#     Edge 21, Type (0, 1), BuildingBlock: UVAHIK_clean_linker_0, # of connection points: 2
#     Edge 22, Type (0, 1), BuildingBlock: UVAHIK_clean_linker_0, # of connection points: 2
#     Edge 23, Type (0, 1), BuildingBlock: UVAHIK_clean_linker_0, # of connection points: 2
#     Edge 24, Type (0, 1), BuildingBlock: UVAHIK_clean_linker_0, # of connection points: 2
#     Edge 25, Type (0, 1), BuildingBlock: UVAHIK_clean_linker_0, # of connection points: 2
#     Edge 26, Type (0, 1), BuildingBlock: UVAHIK_clean_linker_0, # of connection points: 2
#     Edge 27, Type (0, 1), BuildingBlock: UVAHIK_clean_linker_0, # of connection points: 2
#     Edge 28, Type (0, 1), BuildingBlock: UVAHIK_clean_linker_0, # of connection points: 2
#     Edge 29, Type (0, 1), BuildingBlock: UVAHIK_clean_linker_0, # of connection points: 2
#     Edge 30, Type (0, 1), BuildingBlock: UVAHIK_clean_linker_0, # of connection points: 2
#     Edge 31, Type (0, 1), BuildingBlock: UVAHIK_clean_linker_0, # of connection points: 2
#     Edge 32, Type (0, 1), BuildingBlock: UVAHIK_clean_linker_0, # of connection points: 2
#     Edge 33, Type (0, 1), BuildingBlock: UVAHIK_clean_linker_0, # of connection points: 2
#     Edge 34, Type (0, 1), BuildingBlock: UVAHIK_clean_linker_0, # of connection points: 2
#     Edge 35, Type (0, 1), BuildingBlock: UVAHIK_clean_linker_0, # of connection points: 2
# Relax obj value: 0.312
# Max RMSD: 0.208
# Mean RMSD: 0.181
data_MOF--net-zzz--node1-KUMBOL_clean_sbu_1--node2-ESEHIV_clean_linker_0--edge1-UVAHIK_clean_linker_0
_symmetry_space_group_name_H-M    P1
_symmetry_Int_Tables_number       1
_symmetry_cell_setting            triclinic
loop_
_symmetry_equiv_pos_as_xyz
'x, y, z'
_cell_length_a     57.42838
_cell_length_b     57.496871
_cell_length_c     21.265068
_cell_angle_alpha  89.983892
_cell_angle_beta   89.96377
_cell_angle_gamma 90.431478
loop_
_atom_site_label
_atom_site_type_symbol
_atom_site_fract_x
_atom_site_fract_y
_atom_site_fract_z
_atom_type_partial_charge
H0 H 0.79952 0.57417 0.14659 0.0
H1 H 0.73365 0.5752 0.05159 0.0
H2 H 0.7383 0.54595 0.23749 0.0
C3 C 0.7809 0.5709 0.1467 0.0
C4 C 0.77047 0.56062 0.19994 0.0
C5 C 0.76787 0.57553 0.09239 0.0
C6 C 0.7439 0.57115 0.09299 0.0
C7 C 0.733 0.56034 0.14419 0.0
C8 C 0.74644 0.5546 0.19783 0.0
H9 H 0.95391 0.7997 0.17737 0.0
H10 H 0.95694 0.7359 0.07374 0.0
H11 H 0.98286 0.73841 0.26381 0.0
C12 C 0.95782 0.78128 0.17575 0.0
C13 C 0.9678 0.77053 0.22864 0.0
C14 C 0.95436 0.76905 0.11957 0.0
C15 C 0.95981 0.74544 0.11714 0.0
C16 C 0.9701 0.73415 0.16822 0.0
C17 C 0.97456 0.74684 0.22427 0.0
H18 H 0.72918 0.95386 0.22566 0.0
H19 H 0.78483 0.95103 0.09171 0.0
H20 H 0.79324 0.99082 0.26265 0.0
C21 C 0.74698 0.95814 0.21265 0.0
C22 C 0.76018 0.97259 0.25223 0.0
C23 C 0.75558 0.95059 0.15465 0.0
C24 C 0.77822 0.95681 0.13683 0.0
C25 C 0.79217 0.97101 0.17551 0.0
C26 C 0.78287 0.97947 0.233 0.0
H27 H 0.56938 0.73147 0.17407 0.0
H28 H 0.53537 0.79231 0.24714 0.0
H29 H 0.56864 0.79433 0.06548 0.0
C30 C 0.56509 0.74973 0.16971 0.0
C31 C 0.57046 0.76154 0.11379 0.0
C32 C 0.55298 0.76059 0.219 0.0
C33 C 0.54537 0.78383 0.21066 0.0
C34 C 0.55134 0.79613 0.15496 0.0
C35 C 0.56423 0.78491 0.1081 0.0
H36 H 0.228 0.45788 0.11737 0.0
H37 H 0.29326 0.45928 0.21516 0.0
H38 H 0.288 0.49018 0.03116 0.0
C39 C 0.24646 0.46193 0.11814 0.0
C40 C 0.25652 0.47322 0.06599 0.0
C41 C 0.25937 0.45727 0.17253 0.0
C42 C 0.28302 0.46316 0.17365 0.0
C43 C 0.29349 0.4753 0.12393 0.0
C44 C 0.28014 0.48064 0.06972 0.0
H45 H 0.0752 0.23493 0.10866 0.0
H46 H 0.07698 0.29925 0.21082 0.0
H47 H 0.03551 0.29344 0.04274 0.0
C48 C 0.07043 0.25308 0.11279 0.0
C49 C 0.05562 0.26283 0.0674 0.0
C50 C 0.07762 0.26586 0.16558 0.0
C51 C 0.0711 0.28917 0.17064 0.0
C52 C 0.05579 0.29933 0.12759 0.0
C53 C 0.04762 0.28594 0.07596 0.0
H54 H 0.28275 0.07535 0.07981 0.0
H55 H 0.21671 0.07937 0.17297 0.0
H56 H 0.22844 0.0263 0.03338 0.0
C57 C 0.26483 0.06954 0.08454 0.0
C58 C 0.25717 0.05045 0.04875 0.0
C59 C 0.25057 0.07974 0.13022 0.0
C60 C 0.22768 0.07171 0.13708 0.0
C61 C 0.21941 0.05249 0.10284 0.0
C62 C 0.2343 0.04166 0.05846 0.0
H63 H 0.45358 0.29793 0.12557 0.0
H64 H 0.49685 0.24341 0.05145 0.0
H65 H 0.4584 0.23275 0.22296 0.0
C66 C 0.45979 0.28019 0.12777 0.0
C67 C 0.45449 0.26645 0.18054 0.0
C68 C 0.47458 0.27202 0.07989 0.0
C69 C 0.48462 0.24963 0.08628 0.0
C70 C 0.47844 0.23531 0.13805 0.0
C71 C 0.46288 0.2437 0.1831 0.0
C72 C 0.06328 0.0441 0.77179 0.0
C73 C 0.0472 0.04677 0.8769 0.0
C74 C 0.0473 0.03659 0.81654 0.0
C75 C 0.06272 0.06509 0.89057 0.0
C76 C 0.07952 0.06182 0.78606 0.0
C77 C 0.0789 0.07254 0.84534 0.0
N78 N 0.06289 0.03406 0.71399 0.0
C79 C 0.0794 0.03943 0.67 0.0
C80 C 0.0959 0.06821 0.74021 0.0
C81 C 0.09599 0.05677 0.68219 0.0
Gd82 Gd 0.98224 0.03065 0.59506 0.0
Gd83 Gd 0.03461 1.0052 0.69739 0.0
N84 N 0.03258 0.01872 0.80198 0.0
C85 C 0.03195 0.0378 0.9223 0.0
C86 C 0.01915 0.0087 0.84777 0.0
C87 C 0.01818 0.01842 0.90798 0.0
H88 H 0.00946 0.99292 0.83881 0.0
H89 H 0.00708 0.0107 0.9436 0.0
H90 H 0.99987 0.01741 0.45047 0.0
H91 H 0.07942 0.03056 0.6252 0.0
H92 H 0.98687 0.99311 0.36067 0.0
H93 H 0.03131 0.04516 0.96918 0.0
H94 H 0.06271 0.07327 0.93647 0.0
H95 H 0.93551 0.03641 0.68874 0.0
H96 H 0.10867 0.08176 0.74936 0.0
H97 H 0.10879 0.06136 0.64683 0.0
H98 H 0.91273 0.96247 0.42748 0.0
H99 H 0.09102 0.08642 0.85692 0.0
H100 H 0.88208 0.99011 0.62348 0.0
H101 H 0.8966 0.01856 0.70183 0.0
N102 N 0.94387 0.01664 0.60747 0.0
C103 C 0.93571 1.00209 0.56224 0.0
C104 C 0.92977 0.0233 0.65582 0.0
C105 C 0.89939 0.99751 0.61836 0.0
C106 C 0.90753 0.01352 0.66273 0.0
C107 C 0.91332 0.99198 0.56654 0.0
H108 H 0.8883 0.96915 0.52092 0.0
N109 N 0.97044 0.00901 0.50684 0.0
C110 C 0.94934 0.99837 0.50979 0.0
C111 C 0.95507 0.98217 0.40621 0.0
C112 C 0.94115 0.9844 0.45994 0.0
C113 C 0.98351 0.00805 0.45321 0.0
C114 C 0.97621 0.99432 0.4025 0.0
O115 O 0.03163 0.04405 0.67438 0.0
O116 O 0.99289 0.04901 0.68406 0.0
O117 O 0.99117 0.05912 0.53342 0.0
O118 O 0.95713 0.05811 0.57663 0.0
O119 O 0.99819 0.99487 0.73132 0.0
O120 O 0.97661 0.02644 0.70043 0.0
O121 O 0.99362 0.99379 0.57216 0.0
O122 O 0.00802 0.97846 0.66452 0.0
O123 O 0.05347 0.98196 0.75941 0.0
O124 O 0.06312 0.9845 0.66152 0.0
O125 O 0.019 0.03574 0.55623 0.0
O126 O 0.04012 1.00463 0.5926 0.0
C127 C 0.01405 0.05685 0.69264 0.0
C128 C 0.97963 0.00812 0.73666 0.0
C129 C 0.97771 0.09427 0.57384 0.0
C130 C 1.00429 0.12763 0.57601 0.0
C131 C 0.97471 0.12319 0.65682 0.0
C132 C 0.96688 0.10256 0.62866 0.0
C133 C 0.99354 0.13554 0.63123 0.0
C134 C 0.99608 0.10715 0.54751 0.0
C135 C 0.9727 0.0709 0.54809 0.0
C136 C 0.91926 0.97348 0.46498 0.0
C137 C 0.90537 0.97726 0.51823 0.0
H138 H 0.94944 0.97156 0.36689 0.0
C139 C 0.99913 0.97598 0.60783 0.0
C140 C 0.0363 0.02092 0.5507 0.0
C141 C 0.06243 0.94736 0.70511 0.0
C142 C 0.03791 0.91262 0.71106 0.0
C143 C 0.07492 0.91149 0.6558 0.0
C144 C 0.07894 0.93488 0.67044 0.0
C145 C 0.05445 0.90038 0.67569 0.0
C146 C 0.04199 0.93611 0.72524 0.0
C147 C 0.06502 0.97262 0.71322 0.0
H148 H 0.96646 0.12937 0.69937 0.0
H149 H 0.95288 0.09284 0.6508 0.0
H150 H 0.9995 0.15132 0.6541 0.0
H151 H 1.00478 0.10057 0.50594 0.0
H152 H 0.08764 0.90196 0.62871 0.0
H153 H 0.09463 0.94339 0.65348 0.0
H154 H 0.05175 0.88219 0.66446 0.0
H155 H 0.02885 0.94578 0.75065 0.0
C156 C 0.517 0.94342 0.59615 0.0
C157 C 0.48925 0.92156 0.65925 0.0
C158 C 0.49696 0.94266 0.63241 0.0
C159 C 0.50291 0.90155 0.65279 0.0
C160 C 0.52997 0.92303 0.58613 0.0
C161 C 0.52327 0.90229 0.61638 0.0
N162 N 0.52256 0.96358 0.56612 0.0
C163 C 0.53934 0.96386 0.52058 0.0
C164 C 0.54861 0.92383 0.54371 0.0
C165 C 0.553 0.94421 0.50984 0.0
Gd166 Gd 0.52545 0.04317 0.71195 0.0
Gd167 Gd 0.50006 0.99608 0.59369 0.0
N168 N 0.48409 0.96223 0.63747 0.0
C169 C 0.46755 0.92102 0.68943 0.0
C170 C 0.46227 0.96153 0.663 0.0
C171 C 0.45378 0.94097 0.69008 0.0
H172 H 0.4517 0.97699 0.66358 0.0
H173 H 0.43672 0.94056 0.71168 0.0
H174 H 0.58384 0.0455 0.68865 0.0
H175 H 0.54223 0.97921 0.49231 0.0
H176 H 0.6121 0.06984 0.63103 0.0
H177 H 0.46096 0.90512 0.71049 0.0
H178 H 0.49747 0.88523 0.67385 0.0
H179 H 0.47757 0.07484 0.72802 0.0
H180 H 0.55902 0.90854 0.5347 0.0
H181 H 0.56671 0.94472 0.47489 0.0
H182 H 0.56758 0.13563 0.56418 0.0
H183 H 0.5332 0.88651 0.60988 0.0
H184 H 0.48837 0.14013 0.63451 0.0
H185 H 0.46304 0.11358 0.69621 0.0
N186 N 0.51039 0.07948 0.68345 0.0
C187 C 0.52506 0.0943 0.65296 0.0
C188 C 0.48866 0.08641 0.70114 0.0
C189 C 0.49482 0.12325 0.64859 0.0
C190 C 0.48045 0.10829 0.68332 0.0
C191 C 0.51751 0.11643 0.63346 0.0
H192 H 0.52729 0.14797 0.58396 0.0
N193 N 0.5547 0.06638 0.66483 0.0
C194 C 0.54773 0.0873 0.64204 0.0
C195 C 0.58672 0.0955 0.60501 0.0
C196 C 0.5635 0.10233 0.61097 0.0
C197 C 0.57774 0.06068 0.66408 0.0
C198 C 0.59396 0.07478 0.63277 0.0
O199 O 0.50087 0.98761 0.69822 0.0
O200 O 0.53406 1.00551 0.73359 0.0
O201 O 0.54776 0.05909 0.7826 0.0
O202 O 0.5122 0.05013 0.80543 0.0
O203 O 0.47274 0.01723 0.64597 0.0
O204 O 0.48958 0.02983 0.73892 0.0
O205 O 0.50454 0.0516 0.62361 0.0
O206 O 0.51901 0.02685 0.55185 0.0
O207 O 0.47579 0.01375 0.53386 0.0
O208 O 0.48391 0.97776 0.51482 0.0
O209 O 0.55282 0.01788 0.67459 0.0
O210 O 0.53791 1.0067 0.57813 0.0
C211 C 0.51885 0.98831 0.7364 0.0
C212 C 0.47117 0.02456 0.70462 0.0
C213 C 0.53937 0.04711 0.88641 0.0
C214 C 0.56007 0.01731 0.94511 0.0
C215 C 0.53658 0.04592 1.00006 0.0
C216 C 0.5307 0.05617 0.94283 0.0
C217 C 0.55119 0.02663 1.00137 0.0
C218 C 0.55391 0.02761 0.88758 0.0
C219 C 0.53212 0.05748 0.82669 0.0
C220 C 0.55578 0.12397 0.58875 0.0
C221 C 0.53286 0.13103 0.60015 0.0
H222 H 0.59937 0.10653 0.5814 0.0
C223 C 0.51268 0.04791 0.56683 0.0
C224 C 0.55568 0.01044 0.61628 0.0
C225 C 0.44544 0.99128 0.49286 0.0
C226 C 0.40746 0.00801 0.46899 0.0
C227 C 0.41098 0.96667 0.49219 0.0
C228 C 0.43502 0.9693 0.50027 0.0
C229 C 0.39725 0.98583 0.47644 0.0
C230 C 0.43155 0.01043 0.47781 0.0
C231 C 0.47058 0.99531 0.50135 0.0
H232 H 0.5299 0.05301 0.04356 0.0
H233 H 0.51927 0.07108 0.94252 0.0
H234 H 0.55592 0.01933 0.0465 0.0
H235 H 0.56027 0.02041 0.84377 0.0
H236 H 0.40296 0.9497 0.49772 0.0
H237 H 0.44532 0.95426 0.51243 0.0
H238 H 0.37878 0.98315 0.46903 0.0
H239 H 0.43968 0.02744 0.47374 0.0
C240 C 0.4609 0.49241 0.78624 0.0
C241 C 0.4797 0.49402 0.88811 0.0
C242 C 0.47777 0.50185 0.82547 0.0
C243 C 0.46534 0.47574 0.90934 0.0
C244 C 0.44554 0.47502 0.80839 0.0
C245 C 0.44825 0.46631 0.86962 0.0
N246 N 0.45904 0.5008 0.72676 0.0
C247 C 0.44095 0.49424 0.6889 0.0
C248 C 0.42768 0.46721 0.76861 0.0
C249 C 0.42517 0.47712 0.70895 0.0
Gd250 Gd 0.53664 0.50339 0.58848 0.0
Gd251 Gd 0.48628 0.5292 0.69667 0.0
N252 N 0.49107 0.51983 0.80386 0.0
C253 C 0.4953 0.50546 0.92831 0.0
C254 C 0.50447 0.53246 0.8447 0.0
C255 C 0.50736 0.52509 0.90685 0.0
H256 H 0.51276 0.54846 0.82993 0.0
H257 H 0.51856 0.53479 0.93844 0.0
H258 H 0.51718 0.50856 0.44254 0.0
H259 H 0.43908 0.50191 0.64278 0.0
H260 H 0.52515 0.53234 0.3475 0.0
H261 H 0.49732 0.49997 0.97674 0.0
H262 H 0.46679 0.46931 0.95707 0.0
H263 H 0.58524 0.50817 0.67808 0.0
H264 H 0.4155 0.45388 0.78393 0.0
H265 H 0.41115 0.47153 0.67838 0.0
H266 H 0.59049 0.58031 0.40711 0.0
H267 H 0.43686 0.45267 0.88721 0.0
H268 H 0.62678 0.564 0.60522 0.0
H269 H 0.61936 0.53414 0.68681 0.0
N270 N 0.57172 0.52494 0.5968 0.0
C271 C 0.57648 0.53999 0.54919 0.0
C272 C 0.58753 0.52189 0.64401 0.0
C273 C 0.61138 0.55306 0.60216 0.0
C274 C 0.60722 0.53627 0.64835 0.0
C275 C 0.59627 0.55464 0.55075 0.0
H276 H 0.61578 0.58124 0.50061 0.0
N277 N 0.54414 0.52442 0.49609 0.0
C278 C 0.56242 0.53945 0.49662 0.0
C279 C 0.55368 0.55114 0.39017 0.0
C280 C 0.5675 0.55354 0.44408 0.0
C281 C 0.53124 0.52116 0.44288 0.0
C282 C 0.53569 0.5346 0.38925 0.0
O283 O 0.48822 0.48994 0.67804 0.0
O284 O 0.52722 0.48445 0.67787 0.0
O285 O 0.53169 0.47319 0.52969 0.0
O286 O 0.56553 0.47991 0.5701 0.0
O287 O 0.52347 0.53943 0.72399 0.0
O288 O 0.54373 0.50708 0.69337 0.0
O289 O 0.51949 0.5375 0.56215 0.0
O290 O 0.5135 0.55424 0.65762 0.0
O291 O 0.46573 0.5513 0.75743 0.0
O292 O 0.46065 0.55267 0.65713 0.0
O293 O 0.49963 0.49492 0.55589 0.0
O294 O 0.47629 0.52438 0.59462 0.0
C295 C 0.50627 0.47693 0.69136 0.0
C296 C 0.54124 0.52526 0.73039 0.0
C297 C 0.55056 0.44118 0.57318 0.0
C298 C 0.52841 0.40497 0.58356 0.0
C299 C 0.5581 0.41487 0.66033 0.0
C300 C 0.56296 0.4356 0.62812 0.0
C301 C 0.54062 0.39977 0.63886 0.0
C302 C 0.53378 0.42548 0.55071 0.0
C303 C 0.55184 0.46452 0.54418 0.0
C304 C 0.58645 0.56909 0.44664 0.0
C305 C 0.60081 0.56966 0.49996 0.0
H306 H 0.55702 0.56162 0.34874 0.0
C307 C 0.51791 0.55618 0.59723 0.0
C308 C 0.48084 0.50804 0.55299 0.0
C309 C 0.45865 0.58765 0.71271 0.0
C310 C 0.48368 0.6217 0.72784 0.0
C311 C 0.44204 0.62613 0.70885 0.0
C312 C 0.43931 0.60202 0.70523 0.0
C313 C 0.46397 0.63595 0.72062 0.0
C314 C 0.48071 0.5975 0.72266 0.0
C315 C 0.45609 0.56231 0.71095 0.0
H316 H 0.56748 0.41082 0.70303 0.0
H317 H 0.57579 0.44751 0.64736 0.0
H318 H 0.53676 0.38404 0.66504 0.0
H319 H 0.52386 0.42991 0.50905 0.0
H320 H 0.42704 0.63725 0.70366 0.0
H321 H 0.42218 0.5946 0.69713 0.0
H322 H 0.46523 0.65464 0.72576 0.0
H323 H 0.49547 0.58608 0.72714 0.0
C324 C 0.02465 0.44988 0.75474 0.0
C325 C 0.0349 0.45928 0.86246 0.0
C326 C 0.0233 0.4646 0.80595 0.0
C327 C 0.0487 0.43926 0.86576 0.0
C328 C 0.03757 0.42917 0.75878 0.0
C329 C 0.05005 0.42423 0.81398 0.0
N330 N 0.01209 0.45507 0.70252 0.0
C331 C 0.00981 0.43906 0.65544 0.0
C332 C 0.03688 0.41367 0.70812 0.0
C333 C 0.02257 0.41844 0.65674 0.0
Gd334 Gd 0.02545 0.53968 0.59932 0.0
Gd335 Gd 0.99301 0.49133 0.70287 0.0
N336 N 0.01006 0.48393 0.8009 0.0
C337 C 0.03189 0.47403 0.9142 0.0
C338 C 0.00616 0.49783 0.8518 0.0
C339 C 0.0172 0.49323 0.90907 0.0
H340 H 0.99487 0.5127 0.8477 0.0
H341 H 0.01445 0.50451 0.94907 0.0
H342 H 0.04568 0.51285 0.46873 0.0
H343 H 0.99782 0.44181 0.61726 0.0
H344 H 0.03486 0.50914 0.35714 0.0
H345 H 0.04048 0.47054 0.95852 0.0
H346 H 0.05797 0.43497 0.90854 0.0
H347 H 1.00042 0.58785 0.6519 0.0
H348 H 0.04655 0.39756 0.70933 0.0
H349 H 0.02106 0.40607 0.61856 0.0
H350 H 0.97537 0.56635 0.32894 0.0
H351 H 0.06027 0.40853 0.81771 0.0
H352 H 0.95907 0.61655 0.50341 0.0
H353 H 0.97364 0.61826 0.61291 0.0
N354 N 1.00034 0.56915 0.56579 0.0
C355 C 0.99363 0.56861 0.50463 0.0
C356 C 0.99409 0.58712 0.60409 0.0
C357 C 0.97082 0.60327 0.52025 0.0
C358 C 0.979 0.60429 0.58212 0.0
C359 C 0.97831 0.58542 0.48042 0.0
H360 H 0.95931 0.59665 0.39791 0.0
N361 N 0.01872 0.53674 0.49021 0.0
C362 C 1.00272 0.55157 0.46598 0.0
C363 C 0.00775 0.53475 0.3628 0.0
C364 C 0.99665 0.55086 0.40174 0.0
C365 C 0.03107 0.52256 0.45121 0.0
C366 C 0.02537 0.52086 0.38744 0.0
O367 O 0.02805 0.50548 0.73583 0.0
O368 O 0.04671 0.51069 0.64242 0.0
O369 O 0.05361 0.55609 0.54673 0.0
O370 O 0.04733 0.56594 0.64305 0.0
O371 O 0.98659 0.52895 0.7325 0.0
O372 O 0.01967 0.54901 0.70133 0.0
O373 O 0.98565 0.54004 0.60852 0.0
O374 O 0.97784 0.50138 0.60918 0.0
O375 O 0.96072 0.49847 0.75111 0.0
O376 O 0.96758 0.46362 0.71888 0.0
O377 O 0.03323 0.50199 0.57265 0.0
O378 O 0.99929 0.48286 0.59935 0.0
C379 C 0.04741 0.50661 0.70314 0.0
C380 C 1.00157 0.54636 0.73874 0.0
C381 C 0.08632 0.5626 0.61288 0.0
C382 C 0.12116 0.53845 0.60609 0.0
C383 C 0.11824 0.5687 0.68586 0.0
C384 C 0.09625 0.57468 0.66364 0.0
C385 C 0.13052 0.55057 0.65794 0.0
C386 C 0.09908 0.5449 0.58346 0.0
C387 C 0.06178 0.56679 0.59605 0.0
C388 C 0.98043 0.5668 0.378 0.0
C389 C 0.97133 0.58409 0.41723 0.0
H390 H 1.00357 0.53362 0.31321 0.0
C391 C 0.97171 0.52255 0.59471 0.0
C392 C 0.01821 0.48478 0.56444 0.0
C393 C 0.92986 0.47893 0.70047 0.0
C394 C 0.8969 0.50164 0.6621 0.0
C395 C 0.90411 0.46306 0.62017 0.0
C396 C 0.92356 0.46083 0.65926 0.0
C397 C 0.89084 0.48335 0.62138 0.0
C398 C 0.91614 0.49902 0.70217 0.0
C399 C 0.95177 0.47825 0.73722 0.0
H400 H 0.12559 0.57781 0.72581 0.0
H401 H 0.08667 0.5883 0.68727 0.0
H402 H 0.14713 0.54583 0.67797 0.0
H403 H 0.09159 0.53591 0.54352 0.0
H404 H 0.89947 0.44911 0.5883 0.0
H405 H 0.93384 0.44515 0.65641 0.0
H406 H 0.87603 0.48483 0.59017 0.0
H407 H 0.9205 0.51279 0.73501 0.0
C408 C 0.17656 0.05719 0.11785 0.0
C409 C 0.1963 0.04296 0.12224 0.0
C410 C 0.15676 0.05276 0.15474 0.0
C411 C 0.12861 0.00993 0.26511 0.0
H412 H 0.1036 0.06568 0.34141 0.0
C413 C 0.071 0.00674 0.48941 0.0
C414 C 0.05268 0.02272 0.49609 0.0
C415 C 0.08672 0.00835 0.4391 0.0
C416 C 0.11003 0.04989 0.32002 0.0
H417 H 0.2103 0.01232 0.16686 0.0
H418 H 0.17576 1.00435 0.23096 0.0
H419 H 0.13325 0.06899 0.26015 0.0
H420 H 0.03661 0.0529 0.45371 0.0
H421 H 0.06391 0.05562 0.36565 0.0
H422 H 0.1056 0.99084 0.32596 0.0
C423 C 0.17534 0.01882 0.1984 0.0
C424 C 0.12712 0.05178 0.27303 0.0
C425 C 0.19514 0.02323 0.16115 0.0
C426 C 0.05049 0.04031 0.45044 0.0
C427 C 0.06627 0.04193 0.39998 0.0
C428 C 0.11149 0.00804 0.31217 0.0
C429 C 0.15622 0.0341 0.19771 0.0
C430 C 0.13684 0.03185 0.24505 0.0
C431 C 0.08469 0.02599 0.39358 0.0
C432 C 0.10208 0.02799 0.34084 0.0
H433 H 0.17709 0.07275 0.08912 0.0
H434 H 0.14226 0.06463 0.15155 0.0
H435 H 0.13536 0.99416 0.24437 0.0
H436 H 0.0734 0.99294 0.52343 0.0
H437 H 0.10079 0.99596 0.43673 0.0
C438 C 0.47488 0.19221 0.14757 0.0
C439 C 0.48891 0.21228 0.15211 0.0
C440 C 0.47975 0.17238 0.18362 0.0
C441 C 0.52326 0.14503 0.29285 0.0
H442 H 0.46779 0.11863 0.3695 0.0
C443 C 0.52624 0.06582 0.46496 0.0
C444 C 0.511 0.06599 0.51675 0.0
C445 C 0.52468 0.08279 0.41759 0.0
C446 C 0.48352 0.12585 0.34901 0.0
H447 H 0.51962 0.22683 0.19621 0.0
H448 H 0.52843 0.19225 0.25837 0.0
H449 H 0.4641 0.14855 0.28943 0.0
H450 H 0.48178 0.08386 0.55838 0.0
H451 H 0.47926 0.11366 0.47692 0.0
H452 H 0.54267 0.1227 0.35413 0.0
C453 C 0.51379 0.19157 0.22635 0.0
C454 C 0.4814 0.14285 0.30204 0.0
C455 C 0.50893 0.21139 0.19005 0.0
C456 C 0.49403 0.08343 0.5197 0.0
C457 C 0.49241 0.10037 0.47238 0.0
C458 C 0.52539 0.12794 0.33983 0.0
C459 C 0.49866 0.17213 0.2259 0.0
C460 C 0.50121 0.15284 0.27329 0.0
C461 C 0.50766 0.10031 0.42036 0.0
C462 C 0.50554 0.1182 0.36905 0.0
H463 H 0.459 0.19257 0.12009 0.0
H464 H 0.46794 0.15764 0.1807 0.0
H465 H 0.53896 0.15214 0.27186 0.0
H466 H 0.53951 0.05259 0.46122 0.0
H467 H 0.53657 0.08192 0.37816 0.0
C468 C 0.33594 0.46703 0.13353 0.0
C469 C 0.31784 0.48334 0.13506 0.0
C470 C 0.3566 0.47083 0.1675 0.0
C471 C 0.38936 0.51494 0.26566 0.0
H472 H 0.41113 0.46006 0.35311 0.0
C473 C 0.44573 0.52079 0.49119 0.0
C474 C 0.46405 0.50492 0.49969 0.0
C475 C 0.43004 0.51843 0.4411 0.0
C476 C 0.40555 0.47555 0.32857 0.0
H477 H 0.3076 0.51676 0.17183 0.0
H478 H 0.34344 0.5236 0.23055 0.0
H479 H 0.38102 0.45629 0.27312 0.0
H480 H 0.47994 0.47394 0.46117 0.0
H481 H 0.45236 0.46969 0.37395 0.0
H482 H 0.41345 0.53424 0.3228 0.0
C483 C 0.34211 0.50801 0.20226 0.0
C484 C 0.38823 0.4734 0.28221 0.0
C485 C 0.32153 0.50424 0.16791 0.0
C486 C 0.46609 0.4865 0.45643 0.0
C487 C 0.45019 0.48401 0.40642 0.0
C488 C 0.40655 0.5171 0.31232 0.0
C489 C 0.3596 0.49091 0.20483 0.0
C490 C 0.37962 0.49309 0.25038 0.0
C491 C 0.43196 0.50002 0.39787 0.0
C492 C 0.41472 0.49748 0.3451 0.0
H493 H 0.33335 0.45048 0.1101 0.0
H494 H 0.36975 0.45744 0.16684 0.0
H495 H 0.38363 0.53051 0.24178 0.0
H496 H 0.44347 0.53524 0.52322 0.0
H497 H 0.41609 0.5309 0.4369 0.0
C498 C 0.06471 0.34114 0.14874 0.0
C499 C 0.04789 0.32333 0.14305 0.0
C500 C 0.06041 0.36092 0.18538 0.0
C501 C 0.0153 0.39487 0.27106 0.0
H502 H 0.06578 0.40753 0.38739 0.0
C503 C 1.00268 0.45462 0.489 0.0
C504 C 0.02163 0.46776 0.51198 0.0
C505 C 0.00559 0.4384 0.44036 0.0
C506 C 0.05159 0.40469 0.35477 0.0
H507 H 0.01286 0.31308 0.16872 0.0
H508 H 1.00498 0.34802 0.23125 0.0
H509 H 0.07058 0.37831 0.30595 0.0
H510 H 0.05865 0.47396 0.50103 0.0
H511 H 0.06364 0.44652 0.41462 0.0
H512 H 0.99635 0.42141 0.31934 0.0
C513 C 0.02156 0.34668 0.20726 0.0
C514 C 0.05435 0.38777 0.30783 0.0
C515 C 0.02594 0.32674 0.17073 0.0
C516 C 0.0436 0.46431 0.48438 0.0
C517 C 0.04649 0.44827 0.4351 0.0
C518 C 0.01261 0.41204 0.31761 0.0
C519 C 0.03914 0.36353 0.21744 0.0
C520 C 0.03623 0.38249 0.26542 0.0
C521 C 0.02754 0.4349 0.41234 0.0
C522 C 0.03066 0.41715 0.36073 0.0
H523 H 0.08193 0.33883 0.12898 0.0
H524 H 0.07422 0.37368 0.19104 0.0
H525 H 1.00103 0.39145 0.23905 0.0
H526 H 0.98544 0.45679 0.50875 0.0
H527 H 0.99057 0.42833 0.42559 0.0
C528 C 0.83152 0.95853 0.13921 0.0
C529 C 0.81605 0.97674 0.15233 0.0
C530 C 0.85143 0.96232 0.10242 0.0
C531 C 0.88962 0.00799 0.02933 0.0
H532 H 0.90078 0.95981 0.90555 0.0
C533 C 0.94977 0.02292 0.81312 0.0
C534 C 0.96304 1.00431 0.78989 0.0
C535 C 0.93349 0.01954 0.86145 0.0
C536 C 0.89826 0.97332 0.94029 0.0
H537 H 0.80981 0.01343 0.13884 0.0
H538 H 0.84473 0.02024 0.07461 0.0
H539 H 0.87022 0.95451 0.98352 0.0
H540 H 0.97003 0.9676 0.80118 0.0
H541 H 0.94185 0.96167 0.88633 0.0
H542 H 0.91757 0.0269 0.9855 0.0
C543 C 0.84164 1.00299 0.09343 0.0
C544 C 0.88062 0.97028 0.98532 0.0
C545 C 0.82166 0.99917 0.13062 0.0
C546 C 0.96 0.98229 0.81761 0.0
C547 C 0.94368 0.97889 0.86618 0.0
C548 C 0.90732 0.01103 0.98428 0.0
C549 C 0.8564 0.98442 0.07699 0.0
C550 C 0.87592 0.98758 0.03047 0.0
C551 C 0.93001 0.99745 0.88858 0.0
C552 C 0.91184 0.9938 0.93872 0.0
H553 H 0.82753 0.94101 0.15485 0.0
H554 H 0.86257 0.94767 0.09228 0.0
H555 H 0.8868 0.0216 0.0636 0.0
H556 H 0.95191 0.04024 0.79385 0.0
H557 H 0.92326 0.03426 0.87658 0.0
C558 C 0.52142 0.8239 0.11501 0.0
C559 C 0.5437 0.82023 0.14025 0.0
C560 C 0.51669 0.84396 0.07949 0.0
C561 C 0.54074 0.90245 0.03145 0.0
H562 H 0.5061 0.89073 0.87815 0.0
C563 C 0.54201 0.96655 0.81869 0.0
C564 C 0.52089 0.97027 0.78681 0.0
C565 C 0.54375 0.94917 0.86505 0.0
C566 C 0.51561 0.89443 0.921 0.0
H567 H 0.57817 0.83515 0.15001 0.0
H568 H 0.56997 0.87019 0.0896 0.0
H569 H 0.5099 0.85995 0.95634 0.0
H570 H 0.48483 0.9592 0.78157 0.0
H571 H 0.48791 0.92886 0.86095 0.0
H572 H 0.54643 0.93687 0.9956 0.0
C573 C 0.55593 0.85785 0.09745 0.0
C574 C 0.51772 0.87674 0.96622 0.0
C575 C 0.56064 0.8378 0.13272 0.0
C576 C 0.50154 0.95641 0.80344 0.0
C577 C 0.50329 0.93902 0.84943 0.0
C578 C 0.53861 0.92011 0.98619 0.0
C579 C 0.53416 0.86085 0.06811 0.0
C580 C 0.53048 0.88038 0.02205 0.0
C581 C 0.52442 0.93509 0.88099 0.0
C582 C 0.52624 0.91633 0.92998 0.0
H583 H 0.50821 0.81041 0.11855 0.0
H584 H 0.49958 0.84575 0.05875 0.0
H585 H 0.5504 0.90617 0.07403 0.0
H586 H 0.55732 0.97681 0.80718 0.0
H587 H 0.56042 0.94643 0.88747 0.0
C588 C 0.69189 0.57189 0.12409 0.0
C589 C 0.70799 0.55404 0.13536 0.0
C590 C 0.67112 0.56747 0.0913 0.0
C591 C 0.6487 0.52599 0.97163 0.0
H592 H 0.59168 0.56116 0.98776 0.0
C593 C 0.57052 0.50913 0.80614 0.0
C594 C 0.55804 0.52836 0.78346 0.0
C595 C 0.58703 0.51168 0.85414 0.0
C596 C 0.60755 0.55133 0.98217 0.0
H597 H 0.71415 0.51724 0.12437 0.0
H598 H 0.6775 0.50917 0.06951 0.0
H599 H 0.62234 0.56551 0.0667 0.0
H600 H 0.553 0.56541 0.79473 0.0
H601 H 0.58196 0.56996 0.87867 0.0
H602 H 0.63417 0.51205 0.88687 0.0
C603 C 0.68108 0.52679 0.08486 0.0
C604 C 0.62518 0.55377 0.0277 0.0
C605 C 0.7019 0.53126 0.1177 0.0
C606 C 0.56222 0.55021 0.81119 0.0
C607 C 0.57881 0.55278 0.85951 0.0
C608 C 0.63112 0.52353 0.92632 0.0
C609 C 0.66589 0.54502 0.06854 0.0
C610 C 0.64613 0.54121 0.02303 0.0
C611 C 0.59168 0.53356 0.88124 0.0
C612 C 0.61027 0.5362 0.93061 0.0
H613 H 0.69636 0.58972 0.1357 0.0
H614 H 0.66012 0.58205 0.07965 0.0
H615 H 0.66469 0.51643 0.96504 0.0
H616 H 0.56757 0.49196 0.78662 0.0
H617 H 0.59612 0.49636 0.87021 0.0
C618 C 0.9993 0.70516 0.13215 0.0
C619 C 0.9771 0.70961 0.15698 0.0
C620 C 1.00342 0.68501 0.09653 0.0
C621 C 0.97825 0.62758 0.0447 0.0
H622 H 0.01109 0.64182 0.89005 0.0
C623 C 0.9786 0.5642 0.82872 0.0
C624 C 0.99883 0.56345 0.79136 0.0
C625 C 0.97642 0.58065 0.87747 0.0
C626 C 1.00219 0.63725 0.93326 0.0
H627 H 0.94217 0.69578 0.16645 0.0
H628 H 0.94938 0.6604 0.10609 0.0
H629 H 0.00791 0.67129 0.97115 0.0
H630 H 0.03292 0.57929 0.77795 0.0
H631 H 0.02937 0.60721 0.86256 0.0
H632 H 0.97247 0.59347 1.00635 0.0
C633 C 0.96376 0.67231 0.11426 0.0
C634 C 1.00039 0.65429 0.98015 0.0
C635 C 0.95965 0.69252 0.1496 0.0
C636 C 0.0169 0.57938 0.80486 0.0
C637 C 0.0148 0.59563 0.85357 0.0
C638 C 0.98018 0.61042 0.99778 0.0
C639 C 0.9854 0.66879 0.08464 0.0
C640 C 0.98837 0.6498 0.03665 0.0
C641 C 0.99446 0.59677 0.89045 0.0
C642 C 0.99219 0.61496 0.94115 0.0
H643 H 0.01291 0.71826 0.13546 0.0
H644 H 0.02043 0.68276 0.07553 0.0
H645 H 0.96893 0.62338 0.08756 0.0
H646 H 0.96431 0.55224 0.81989 0.0
H647 H 0.96037 0.581 0.90415 0.0
C648 C 0.08049 0.25897 0.28105 0.0
C649 C 0.08858 0.25406 0.22015 0.0
C650 C 0.08685 0.24515 0.33172 0.0
C651 C 0.09851 0.18402 0.35381 0.0
H652 H 0.08313 0.20301 0.52368 0.0
C653 C 0.02466 0.1431 0.48146 0.0
C654 C 0.02409 0.14032 0.54697 0.0
C655 C 0.04362 0.15369 0.4524 0.0
C656 C 0.0881 0.19715 0.47721 0.0
H657 H 0.11177 0.23224 0.16601 0.0
H658 H 0.12293 0.20781 0.25511 0.0
H659 H 0.10158 0.23067 0.45237 0.0
H660 H 0.04289 0.14668 0.63372 0.0
H661 H 0.07619 0.166 0.58241 0.0
H662 H 0.08437 0.15074 0.37808 0.0
C663 C 0.11132 0.22224 0.26329 0.0
C664 C 0.09847 0.21309 0.43598 0.0
C665 C 0.10486 0.23616 0.21217 0.0
C666 C 0.04284 0.14875 0.58311 0.0
C667 C 0.06195 0.15957 0.55379 0.0
C668 C 0.08865 0.16798 0.39535 0.0
C669 C 0.10141 0.22586 0.3231 0.0
C670 C 0.10155 0.20735 0.3721 0.0
C671 C 0.06257 0.16194 0.48797 0.0
C672 C 0.08132 0.17509 0.45536 0.0
H673 H 0.06766 0.27235 0.28916 0.0
H674 H 0.07844 0.24843 0.37638 0.0
H675 H 0.10098 0.17866 0.30549 0.0
H676 H 0.01026 0.13724 0.45246 0.0
H677 H 0.04306 0.15601 0.40187 0.0
C678 C 0.25781 0.08892 0.24292 0.0
C679 C 0.26139 0.09463 0.17935 0.0
C680 C 0.27393 0.09579 0.28827 0.0
C681 C 0.33597 0.0988 0.27918 0.0
H682 H 0.32964 0.09107 0.45944 0.0
C683 C 0.40301 0.04573 0.41062 0.0
C684 C 0.39342 0.02858 0.45043 0.0
C685 C 0.38979 0.06461 0.39105 0.0
C686 C 0.33177 0.09333 0.40919 0.0
H687 H 0.28192 0.11582 0.11552 0.0
H688 H 0.31015 0.12796 0.19504 0.0
H689 H 0.29871 0.11002 0.40004 0.0
H690 H 0.36256 0.01867 0.5032 0.0
H691 H 0.3389 0.05063 0.46519 0.0
H692 H 0.36787 0.08055 0.28667 0.0
C693 C 0.29528 0.11756 0.20948 0.0
C694 C 0.31414 0.10436 0.37526 0.0
C695 C 0.27915 0.11059 0.1639 0.0
C696 C 0.37039 0.03122 0.4715 0.0
C697 C 0.35697 0.04991 0.45079 0.0
C698 C 0.35347 0.08778 0.31289 0.0
C699 C 0.29397 0.10842 0.2708 0.0
C700 C 0.31538 0.10581 0.30929 0.0
C701 C 0.36636 0.06655 0.40914 0.0
C702 C 0.35095 0.08366 0.3777 0.0
H703 H 0.24426 0.07674 0.25676 0.0
H704 H 0.27215 0.08851 0.33501 0.0
H705 H 0.33761 0.09937 0.22847 0.0
H706 H 0.42056 0.04428 0.39254 0.0
H707 H 0.39772 0.07725 0.35977 0.0
C708 C 0.45296 0.27157 0.29698 0.0
C709 C 0.4437 0.27685 0.23752 0.0
C710 C 0.44661 0.28426 0.34976 0.0
C711 C 0.43282 0.34434 0.37846 0.0
H712 H 0.45231 0.32417 0.54422 0.0
C713 C 0.50877 0.3849 0.4948 0.0
C714 C 0.50961 0.38973 0.55936 0.0
C715 C 0.48984 0.37318 0.46913 0.0
C716 C 0.44615 0.33028 0.49904 0.0
H717 H 0.41847 0.29803 0.18844 0.0
H718 H 0.40744 0.32059 0.28124 0.0
H719 H 0.43315 0.29663 0.47363 0.0
H720 H 0.4917 0.38533 0.64843 0.0
H721 H 0.45847 0.36376 0.6031 0.0
H722 H 0.44683 0.37765 0.40283 0.0
C723 C 0.41991 0.30669 0.28658 0.0
C724 C 0.43537 0.31447 0.45824 0.0
C725 C 0.42631 0.29387 0.23332 0.0
C726 C 0.49147 0.38169 0.59845 0.0
C727 C 0.47242 0.36965 0.57257 0.0
C728 C 0.44318 0.36019 0.41954 0.0
C729 C 0.43093 0.30283 0.34481 0.0
C730 C 0.43084 0.32076 0.39534 0.0
C731 C 0.47125 0.36581 0.50735 0.0
C732 C 0.45192 0.35267 0.47771 0.0
H733 H 0.46666 0.25889 0.30235 0.0
H734 H 0.45588 0.28085 0.39306 0.0
H735 H 0.42925 0.3501 0.33099 0.0
H736 H 0.52271 0.3905 0.4638 0.0
H737 H 0.48987 0.36968 0.41907 0.0
C738 C 0.22822 0.43416 0.22897 0.0
C739 C 0.24744 0.44947 0.231 0.0
C740 C 0.21414 0.43101 0.28206 0.0
C741 C 0.17852 0.45121 0.37141 0.0
H742 H 0.19964 0.4606 0.54276 0.0
C743 C 0.15857 0.51904 0.57485 0.0
C744 C 0.13409 0.51884 0.57657 0.0
C745 C 0.17069 0.50116 0.54538 0.0
C746 C 0.19339 0.45772 0.49532 0.0
H747 H 0.2679 0.47196 0.29222 0.0
H748 H 0.24386 0.46625 0.38368 0.0
H749 H 0.22563 0.44275 0.466 0.0
H750 H 0.10335 0.49877 0.54941 0.0
H751 H 0.12456 0.46798 0.49769 0.0
H752 H 0.14695 0.46764 0.39928 0.0
C753 C 0.23962 0.45646 0.34165 0.0
C754 C 0.20821 0.44744 0.4515 0.0
C755 C 0.25349 0.45978 0.28873 0.0
C756 C 0.12214 0.4999 0.54899 0.0
C757 C 0.13429 0.48204 0.51945 0.0
C758 C 0.16369 0.46141 0.41524 0.0
C759 C 0.21919 0.44295 0.33815 0.0
C760 C 0.20143 0.44549 0.38819 0.0
C761 C 0.15867 0.48267 0.5165 0.0
C762 C 0.17153 0.46604 0.47656 0.0
H763 H 0.22338 0.42553 0.1856 0.0
H764 H 0.19862 0.42029 0.27825 0.0
H765 H 0.17277 0.45007 0.323 0.0
H766 H 0.1685 0.53345 0.59401 0.0
H767 H 0.18949 0.50247 0.5425 0.0
C768 C 0.96147 0.77756 1.00653 0.0
C769 C 0.94825 0.78151 0.06093 0.0
C770 C 0.95847 0.79126 0.95336 0.0
C771 C 0.94127 0.8507 0.91579 0.0
H772 H 0.96812 0.83115 0.75741 0.0
C773 C 0.01074 0.90389 0.79914 0.0
C774 C 0.01682 0.90091 0.73583 0.0
C775 C 0.99194 0.89181 0.82478 0.0
C776 C 0.95997 0.83717 0.80025 0.0
H777 H 0.9203 0.80181 0.10094 0.0
H778 H 0.91465 0.82575 1.00699 0.0
H779 H 0.95104 0.80243 0.82695 0.0
H780 H 0.00718 0.88409 0.64845 0.0
H781 H 0.97374 0.86322 0.69283 0.0
H782 H 0.94988 0.88547 0.8887 0.0
C783 C 0.9277 0.81228 1.00596 0.0
C784 C 0.95046 0.82054 0.84083 0.0
C785 C 0.93091 0.7986 0.05975 0.0
C786 C 1.00301 0.88642 0.69769 0.0
C787 C 0.98387 0.87451 0.7232 0.0
C788 C 0.95009 0.86741 0.87433 0.0
C789 C 0.94203 0.8093 0.95279 0.0
C790 C 0.94301 0.82691 0.90145 0.0
C791 C 0.97847 0.87657 0.7876 0.0
C792 C 0.96147 0.86061 0.81874 0.0
H793 H 0.97525 0.76479 1.00621 0.0
H794 H 0.97032 0.78865 0.91445 0.0
H795 H 0.93528 0.85648 0.96141 0.0
H796 H 0.02122 0.9148 0.82977 0.0
H797 H 0.98894 0.89352 0.8748 0.0
C798 C 0.72387 0.92186 0.13086 0.0
C799 C 0.7394 0.9392 0.10989 0.0
C800 C 0.70381 0.91668 0.0964 0.0
C801 C 0.66961 0.9335 0.95371 0.0
H802 H 0.623 0.9481 0.07913 0.0
C803 C 0.59662 0.99784 0.90917 0.0
C804 C 0.57655 0.9976 0.94696 0.0
C805 C 0.61366 0.98089 0.91667 0.0
C806 C 0.63534 0.94336 0.04293 0.0
H807 H 0.74785 0.96239 0.03275 0.0
H808 H 0.71283 0.95368 0.97316 0.0
H809 H 0.65995 0.93301 0.11198 0.0
H810 H 0.55762 0.97826 0.01817 0.0
H811 H 0.58709 0.94836 0.03048 0.0
H812 H 0.6451 0.94505 0.88481 0.0
C813 C 0.71604 0.94389 0.01576 0.0
C814 C 0.65673 0.9346 0.06199 0.0
C815 C 0.73616 0.94896 0.05006 0.0
C816 C 0.57317 0.97918 0.98942 0.0
C817 C 0.59007 0.96205 0.99637 0.0
C818 C 0.64801 0.94207 0.93446 0.0
C819 C 0.69889 0.92893 0.0408 0.0
C820 C 0.67456 0.93078 0.018 0.0
C821 C 0.61095 0.96316 0.96182 0.0
C822 C 0.6311 0.94834 0.97923 0.0
H823 H 0.72624 0.91377 0.17641 0.0
H824 H 0.69114 0.90468 0.11616 0.0
H825 H 0.68291 0.93037 0.91864 0.0
H826 H 0.59983 0.01191 0.87633 0.0
H827 H 0.6296 0.98267 0.88985 0.0
C828 C 0.5952 0.72992 0.06664 0.0
C829 C 0.57981 0.74863 0.0587 0.0
C830 C 0.59949 0.71458 0.01701 0.0
C831 C 0.57842 0.67682 0.93548 0.0
H832 H 0.57523 0.69088 0.75746 0.0
C833 C 0.52246 0.61933 0.7831 0.0
C834 C 0.50687 0.63179 0.7448 0.0
C835 C 0.54284 0.62975 0.80533 0.0
C836 C 0.57613 0.68657 0.80695 0.0
H837 H 0.55885 0.76712 0.99009 0.0
H838 H 0.56666 0.74088 0.90434 0.0
H839 H 0.59276 0.71902 0.82959 0.0
H840 H 0.50223 0.66431 0.69455 0.0
H841 H 0.53627 0.68319 0.73837 0.0
H842 H 0.55969 0.64578 0.91529 0.0
C843 C 0.57549 0.73799 0.94864 0.0
C844 C 0.58642 0.70259 0.84808 0.0
C845 C 0.57094 0.75309 0.99826 0.0
C846 C 0.51319 0.65442 0.72598 0.0
C847 C 0.53321 0.6651 0.74995 0.0
C848 C 0.56784 0.66101 0.89472 0.0
C849 C 0.58871 0.71788 0.95842 0.0
C850 C 0.58633 0.69844 0.91319 0.0
C851 C 0.5478 0.65322 0.7922 0.0
C852 C 0.56523 0.66634 0.83047 0.0
H853 H 0.60287 0.72634 0.1121 0.0
H854 H 0.60994 0.69929 0.0256 0.0
H855 H 0.57795 0.67312 0.98543 0.0
H856 H 0.51851 0.60188 0.79911 0.0
H857 H 0.554 0.61972 0.83596 0.0
C858 C 0.79816 0.59804 0.03043 0.0
C859 C 0.77939 0.58221 0.03234 0.0
C860 C 0.80997 0.60231 0.97382 0.0
C861 C 0.8078 0.58925 0.80083 0.0
H862 H 0.87356 0.57738 0.82301 0.0
C863 C 0.85827 0.52113 0.67148 0.0
C864 C 0.8826 0.52293 0.667 0.0
C865 C 0.84533 0.5398 0.69418 0.0
C866 C 0.85539 0.58143 0.81525 0.0
H867 H 0.75824 0.55868 0.97596 0.0
H868 H 0.77854 0.56599 0.87885 0.0
H869 H 0.85066 0.5902 0.91185 0.0
H870 H 0.912 0.54675 0.67293 0.0
H871 H 0.88941 0.57921 0.71359 0.0
H872 H 0.81229 0.57809 0.70544 0.0
C873 C 0.78387 0.57572 0.92005 0.0
C874 C 0.8422 0.58883 0.86649 0.0
C875 C 0.77222 0.57143 0.9762 0.0
C876 C 0.89332 0.54467 0.67763 0.0
C877 C 0.88041 0.5633 0.70059 0.0
C878 C 0.82097 0.58159 0.74969 0.0
C879 C 0.8032 0.59081 0.91821 0.0
C880 C 0.81798 0.59127 0.86083 0.0
C881 C 0.85653 0.56053 0.71287 0.0
C882 C 0.84458 0.57621 0.75757 0.0
H883 H 0.80396 0.60678 0.07279 0.0
H884 H 0.82479 0.61407 0.97391 0.0
H885 H 0.78926 0.59166 0.79459 0.0
H886 H 0.84948 0.50467 0.66343 0.0
H887 H 0.82695 0.53707 0.70324 0.0
C888 C 0.0258 0.23766 0.01236 0.0
C889 C 0.04825 0.24753 0.01405 0.0
C890 C 0.02073 0.21883 0.97211 0.0
C891 C 0.04253 0.18506 0.83327 0.0
H892 H 0.00906 0.13375 0.91052 0.0
C893 C 0.03789 0.09301 0.71697 0.0
C894 C 0.01766 0.0795 0.72585 0.0
C895 C 0.04102 0.11421 0.74913 0.0
C896 C 0.01811 0.14795 0.88742 0.0
H897 H 0.08276 0.24578 0.97365 0.0
H898 H 0.07388 0.21354 0.90248 0.0
H899 H 0.01435 0.16992 0.96824 0.0
H900 H 0.98448 0.07818 0.77428 0.0
H901 H 0.9895 0.1151 0.8286 0.0
H902 H 0.04619 0.16314 0.75226 0.0
C903 C 0.06006 0.22028 0.93179 0.0
C904 C 0.02116 0.16883 0.92083 0.0
C905 C 0.06516 0.23887 0.97246 0.0
C906 C 1.00042 0.08799 0.76665 0.0
C907 C 1.00343 0.10918 0.79845 0.0
C908 C 0.0393 0.16421 0.79955 0.0
C909 C 0.03796 0.20948 0.93223 0.0
C910 C 0.03353 0.18771 0.89454 0.0
C911 C 0.02385 0.12266 0.79069 0.0
C912 C 0.02713 0.1452 0.82615 0.0
H913 H 0.01255 0.24361 0.04475 0.0
H914 H 1.00345 0.21119 0.97343 0.0
H915 H 0.05197 0.19922 0.81105 0.0
H916 H 0.05131 0.08723 0.68494 0.0
H917 H 0.05709 0.12379 0.74194 0.0
C918 C 0.27328 0.04075 0.9412 0.0
C919 C 0.27477 0.03921 1.00702 0.0
C920 C 0.29277 0.03579 0.90319 0.0
C921 C 0.3539 0.01135 0.9095 0.0
H922 H 0.36428 0.05139 0.76539 0.0
C923 C 0.44549 0.02617 0.80083 0.0
C924 C 0.44764 0.02532 0.73491 0.0
C925 C 0.42351 0.02602 0.82977 0.0
C926 C 0.36157 0.03991 0.80516 0.0
H927 H 0.29755 0.03042 0.08426 0.0
H928 H 0.3312 0.02211 0.0194 0.0
H929 H 0.32737 0.05318 0.82228 0.0
H930 H 0.42799 0.02393 0.64789 0.0
H931 H 0.38962 0.02426 0.69852 0.0
H932 H 0.38854 0.99885 0.89373 0.0
C933 C 0.31513 0.02664 0.99601 0.0
C934 C 0.34026 0.04081 0.83779 0.0
C935 C 0.29573 0.03143 0.03361 0.0
C936 C 0.42708 0.02463 0.69874 0.0
C937 C 0.40505 0.02488 0.72776 0.0
C938 C 0.37528 0.01073 0.87751 0.0
C939 C 0.31429 0.02931 0.93015 0.0
C940 C 0.33614 0.02678 0.89121 0.0
C941 C 0.40296 0.02537 0.79375 0.0
C942 C 0.37957 0.0252 0.82537 0.0
H943 H 0.25751 0.04705 0.91936 0.0
H944 H 0.29111 0.03769 0.85276 0.0
H945 H 0.35144 0.99974 0.94906 0.0
H946 H 0.46084 0.02662 0.83041 0.0
H947 H 0.42262 0.02664 0.88062 0.0
C948 C 0.46145 0.29808 0.99219 0.0
C949 C 0.47987 0.28811 0.02626 0.0
C950 C 0.46542 0.31647 0.95002 0.0
C951 C 0.50635 0.36529 0.92165 0.0
H952 H 0.47277 0.37205 0.76471 0.0
C953 C 0.52237 0.44501 0.75918 0.0
C954 C 0.50353 0.45431 0.72549 0.0
C955 C 0.52017 0.42392 0.79196 0.0
C956 C 0.48209 0.3707 0.80877 0.0
H957 H 0.51708 0.28948 0.0415 0.0
H958 H 0.52415 0.32169 0.9677 0.0
H959 H 0.46824 0.3365 0.82649 0.0
H960 H 0.4678 0.44799 0.69806 0.0
H961 H 0.46348 0.41175 0.75731 0.0
H962 H 0.51967 0.39963 0.90539 0.0
C963 C 0.50654 0.31521 0.97364 0.0
C964 C 0.47957 0.35014 0.84417 0.0
C965 C 0.50257 0.29653 0.01535 0.0
C966 C 0.48249 0.44166 0.72468 0.0
C967 C 0.48018 0.4206 0.75802 0.0
C968 C 0.5087 0.38591 0.88664 0.0
C969 C 0.48794 0.32575 0.9412 0.0
C970 C 0.49161 0.34712 0.90131 0.0
C971 C 0.49898 0.41139 0.79258 0.0
C972 C 0.49657 0.38906 0.82958 0.0
H973 H 0.44372 0.29217 1.00003 0.0
H974 H 0.45061 0.32414 0.92659 0.0
H975 H 0.51559 0.36388 0.96585 0.0
H976 H 0.53895 0.45409 0.76051 0.0
H977 H 0.5353 0.41737 0.81635 0.0
C978 C 0.23593 0.50007 0.98962 0.0
C979 C 0.24102 0.47744 0.01057 0.0
C980 C 0.2168 0.50403 0.94944 0.0
C981 C 0.15924 0.47837 0.91638 0.0
H982 H 0.1569 0.51857 0.77023 0.0
C983 C 0.07187 0.50573 0.80181 0.0
C984 C 0.07031 0.50415 0.73591 0.0
C985 C 0.09331 0.50319 0.83266 0.0
C986 C 0.15729 0.50726 0.81093 0.0
H987 H 0.23102 0.44119 1.00202 0.0
H988 H 0.19801 0.44804 0.9326 0.0
H989 H 0.19399 0.51303 0.82584 0.0
H990 H 0.09018 0.49852 0.65139 0.0
H991 H 0.12786 0.49473 0.70468 0.0
H992 H 0.12266 0.47275 0.90236 0.0
C993 C 0.20848 0.46278 0.94757 0.0
C994 C 0.17851 0.50421 0.843 0.0
C995 C 0.22756 0.45883 0.98693 0.0
C996 C 0.09087 0.50021 0.70184 0.0
C997 C 0.11243 0.49801 0.73252 0.0
C998 C 0.13803 0.48174 0.88516 0.0
C999 C 0.20229 0.48547 0.92999 0.0
C1000 C 0.17981 0.48953 0.89586 0.0
C1001 C 0.11394 0.49935 0.79848 0.0
C1002 C 0.13672 0.49613 0.8318 0.0
H1003 H 0.24573 0.5148 1.00757 0.0
H1004 H 0.21254 0.52173 0.93673 0.0
H1005 H 0.15949 0.46713 0.95725 0.0
H1006 H 0.05653 0.50914 0.82973 0.0
H1007 H 0.09377 0.50453 0.88345 0.0
C1008 C 0.95248 0.79778 0.31032 0.0
C1009 C 0.97142 0.78531 0.28584 0.0
C1010 C 0.95591 0.81611 0.35276 0.0
C1011 C 0.99839 0.84588 0.45941 0.0
H1012 H 0.96167 0.90009 0.4183 0.0
C1013 C 0.01524 0.93759 0.57222 0.0
C1014 C 0.99605 0.95223 0.58128 0.0
C1015 C 0.01264 0.9161 0.54118 0.0
C1016 C 0.97184 0.88509 0.43155 0.0
H1017 H 0.00886 0.78175 0.28949 0.0
H1018 H 0.01497 0.81377 0.36459 0.0
H1019 H 0.95656 0.86456 0.35832 0.0
H1020 H 0.95894 0.95535 0.56784 0.0
H1021 H 0.95413 0.91802 0.51484 0.0
H1022 H 0.01368 0.8666 0.53291 0.0
C1023 C 0.99735 0.80923 0.35095 0.0
C1024 C 0.96892 0.86457 0.39676 0.0
C1025 C 0.99388 0.79075 0.30817 0.0
C1026 C 0.97411 0.94466 0.56038 0.0
C1027 C 0.97143 0.92318 0.52979 0.0
C1028 C 1.00124 0.86648 0.49467 0.0
C1029 C 0.97845 0.82273 0.37207 0.0
C1030 C 0.98201 0.84455 0.41019 0.0
C1031 C 0.99071 0.90867 0.51853 0.0
C1032 C 0.98791 0.88643 0.48148 0.0
H1033 H 0.93497 0.79407 0.29399 0.0
H1034 H 0.94085 0.82562 0.36895 0.0
H1035 H 0.00875 0.83086 0.47143 0.0
H1036 H 0.03243 0.94316 0.587 0.0
H1037 H 0.02799 0.90569 0.53326 0.0
C1038 C 0.73913 0.9639 0.3525 0.0
C1039 C 0.74853 0.98062 0.31113 0.0
C1040 C 0.72177 0.96978 0.39592 0.0
C1041 C 0.6751 0.01379 0.41647 0.0
H1042 H 0.66224 0.97833 0.56778 0.0
C1043 C 0.58275 0.0104 0.52346 0.0
C1044 C 0.57964 0.00855 0.58894 0.0
C1045 C 0.60489 0.00889 0.49624 0.0
C1046 C 0.66559 0.98867 0.52615 0.0
H1047 H 0.748 0.01701 0.28585 0.0
H1048 H 0.71838 0.02767 0.36353 0.0
H1049 H 0.69929 0.97358 0.51357 0.0
H1050 H 0.5978 1.0037 0.6771 0.0
H1051 H 0.6367 1.00156 0.62975 0.0
H1052 H 0.64164 0.0292 0.42955 0.0
C1053 C 0.72401 0.00977 0.36148 0.0
C1054 C 0.68686 0.98572 0.49437 0.0
C1055 C 0.7414 1.00381 0.31769 0.0
C1056 C 0.5995 1.00524 0.62654 0.0
C1057 C 0.62182 1.00384 0.59919 0.0
C1058 C 0.65394 0.01685 0.44842 0.0
C1059 C 0.71321 0.99264 0.39955 0.0
C1060 C 0.69181 0.99786 0.43816 0.0
C1061 C 0.62489 1.00569 0.53344 0.0
C1062 C 0.64854 1.00395 0.503 0.0
H1063 H 0.74398 0.9458 0.34789 0.0
H1064 H 0.71398 0.95592 0.42344 0.0
H1065 H 0.67789 0.02337 0.37327 0.0
H1066 H 0.56801 0.01327 0.49276 0.0
H1067 H 0.6062 0.00995 0.44553 0.0
C1068 C 0.56704 0.73412 0.30415 0.0
C1069 C 0.54844 0.74636 0.27689 0.0
C1070 C 0.563 0.71604 0.34695 0.0
C1071 C 0.52133 0.68729 0.4547 0.0
H1072 H 0.55275 0.63096 0.40267 0.0
C1073 C 0.52466 0.59989 0.60121 0.0
C1074 C 0.51975 0.57956 0.56661 0.0
C1075 C 0.52709 0.62157 0.57078 0.0
C1076 C 0.54385 0.64651 0.41799 0.0
H1077 H 0.51098 0.75008 0.27703 0.0
H1078 H 0.50387 0.71864 0.35376 0.0
H1079 H 0.55882 0.66691 0.34377 0.0
H1080 H 0.51253 0.56654 0.47301 0.0
H1081 H 0.51785 0.60373 0.42008 0.0
H1082 H 0.50657 0.66663 0.52962 0.0
C1083 C 0.52164 0.72309 0.34125 0.0
C1084 C 0.54743 0.6672 0.38439 0.0
C1085 C 0.5257 0.7412 0.29762 0.0
C1086 C 0.51698 0.58159 0.50112 0.0
C1087 C 0.51985 0.60302 0.47069 0.0
C1088 C 0.51809 0.66657 0.48928 0.0
C1089 C 0.54023 0.70968 0.36448 0.0
C1090 C 0.53618 0.68788 0.40193 0.0
C1091 C 0.52508 0.62332 0.50489 0.0
C1092 C 0.52915 0.64585 0.4709 0.0
H1093 H 0.58478 0.73768 0.28942 0.0
H1094 H 0.57776 0.7064 0.36462 0.0
H1095 H 0.51245 0.7029 0.4696 0.0
H1096 H 0.52718 0.59896 0.65155 0.0
H1097 H 0.53127 0.63683 0.59852 0.0
C1098 C 0.79805 0.57415 0.28401 0.0
C1099 C 0.78571 0.55577 0.25534 0.0
C1100 C 0.81588 0.5698 0.32748 0.0
C1101 C 0.85941 0.52527 0.36678 0.0
H1102 H 0.87066 0.56307 0.51476 0.0
C1103 C 0.93783 0.50727 0.53158 0.0
C1104 C 0.94937 0.52622 0.55999 0.0
C1105 C 0.91693 0.51033 0.49855 0.0
C1106 C 0.86805 0.55253 0.47315 0.0
H1107 H 0.78226 0.51835 0.25073 0.0
H1108 H 0.81352 0.5106 0.32667 0.0
H1109 H 0.83554 0.56909 0.45221 0.0
H1110 H 0.94719 0.56315 0.57771 0.0
H1111 H 0.91131 0.5688 0.51821 0.0
H1112 H 0.89213 0.50921 0.38598 0.0
C1113 C 0.8093 0.52847 0.31569 0.0
C1114 C 0.84774 0.5559 0.4374 0.0
C1115 C 0.79117 0.53287 0.27278 0.0
C1116 C 0.93917 0.54829 0.55511 0.0
C1117 C 0.91827 0.55141 0.52174 0.0
C1118 C 0.87981 0.52207 0.40204 0.0
C1119 C 0.82223 0.54689 0.34278 0.0
C1120 C 0.84314 0.54239 0.38347 0.0
C1121 C 0.90679 0.53247 0.49265 0.0
C1122 C 0.8846 0.5357 0.45574 0.0
H1123 H 0.79447 0.59198 0.27083 0.0
H1124 H 0.82548 0.58444 0.34668 0.0
H1125 H 0.85675 0.51478 0.32507 0.0
H1126 H 0.94495 0.48992 0.53471 0.0
H1127 H 0.90857 0.49514 0.4784 0.0
loop_
_geom_bond_atom_site_label_1
_geom_bond_atom_site_label_2
_geom_bond_distance
_geom_bond_site_symmetry_2
_ccdc_geom_bond_type
H0 C3 0.931 . S
H1 C6 0.928 . S
H2 C8 0.930 . S
C3 H0 0.931 . S
C3 C4 1.413 . S
C3 C5 1.360 . S
C4 C3 1.413 . S
C4 C8 1.429 . S
C5 C3 1.360 . S
C5 C6 1.372 . S
C6 H1 0.928 . S
C6 C5 1.372 . S
C6 C7 1.404 . S
C7 C6 1.404 . S
C7 C8 1.391 . S
C8 H2 0.930 . S
C8 C4 1.429 . S
C8 C7 1.391 . S
H9 C12 0.931 . S
H10 C15 0.928 . S
H11 C17 0.930 . S
C12 H9 0.931 . S
C12 C13 1.413 . S
C12 C14 1.360 . S
C13 C12 1.413 . S
C13 C17 1.429 . S
C14 C12 1.360 . S
C14 C15 1.372 . S
C15 H10 0.928 . S
C15 C14 1.372 . S
C15 C16 1.404 . S
C16 C15 1.404 . S
C16 C17 1.391 . S
C17 H11 0.930 . S
C17 C13 1.429 . S
C17 C16 1.391 . S
H18 C21 0.931 . S
H19 C24 0.928 . S
H20 C26 0.930 . S
C21 H18 0.931 . S
C21 C22 1.413 . S
C21 C23 1.360 . S
C22 C21 1.413 . S
C22 C26 1.429 . S
C23 C21 1.360 . S
C23 C24 1.372 . S
C24 H19 0.928 . S
C24 C23 1.372 . S
C24 C25 1.404 . S
C25 C24 1.404 . S
C25 C26 1.391 . S
C26 H20 0.930 . S
C26 C22 1.429 . S
C26 C25 1.391 . S
H27 C30 0.931 . S
H28 C33 0.928 . S
H29 C35 0.930 . S
C30 H27 0.931 . S
C30 C31 1.413 . S
C30 C32 1.360 . S
C31 C30 1.413 . S
C31 C35 1.429 . S
C32 C30 1.360 . S
C32 C33 1.372 . S
C33 H28 0.928 . S
C33 C32 1.372 . S
C33 C34 1.404 . S
C34 C33 1.404 . S
C34 C35 1.391 . S
C35 H29 0.930 . S
C35 C31 1.429 . S
C35 C34 1.391 . S
H36 C39 0.931 . S
H37 C42 0.928 . S
H38 C44 0.930 . S
C39 H36 0.931 . S
C39 C40 1.413 1_554 S
C39 C41 1.360 . S
C40 C39 1.413 1_556 S
C40 C44 1.429 . S
C41 C39 1.360 . S
C41 C42 1.372 . S
C42 H37 0.928 . S
C42 C41 1.372 . S
C42 C43 1.404 . S
C43 C42 1.404 . S
C43 C44 1.391 1_554 S
C44 H38 0.930 . S
C44 C40 1.429 . S
C44 C43 1.391 1_556 S
H45 C48 0.931 . S
H46 C51 0.928 . S
H47 C53 0.930 . S
C48 H45 0.931 . S
C48 C49 1.413 1_554 S
C48 C50 1.360 . S
C49 C48 1.413 1_556 S
C49 C53 1.429 . S
C50 C48 1.360 . S
C50 C51 1.372 . S
C51 H46 0.928 . S
C51 C50 1.372 . S
C51 C52 1.404 . S
C52 C51 1.404 . S
C52 C53 1.391 1_554 S
C53 H47 0.930 . S
C53 C49 1.429 . S
C53 C52 1.391 1_556 S
H54 C57 0.931 . S
H55 C60 0.928 . S
H56 C62 0.930 . S
C57 H54 0.931 . S
C57 C58 1.413 1_554 S
C57 C59 1.360 . S
C58 C57 1.413 1_556 S
C58 C62 1.429 . S
C59 C57 1.360 . S
C59 C60 1.372 . S
C60 H55 0.928 . S
C60 C59 1.372 . S
C60 C61 1.404 . S
C61 C60 1.404 . S
C61 C62 1.391 1_554 S
C62 H56 0.930 . S
C62 C58 1.429 . S
C62 C61 1.391 1_556 S
H63 C66 0.931 . S
H64 C69 0.928 . S
H65 C71 0.930 . S
C66 H63 0.931 . S
C66 C67 1.413 . S
C66 C68 1.360 1_554 S
C67 C66 1.413 . S
C67 C71 1.429 . S
C68 C66 1.360 1_556 S
C68 C69 1.372 . S
C69 H64 0.928 . S
C69 C68 1.372 . S
C69 C70 1.404 1_556 S
C70 C69 1.404 1_554 S
C70 C71 1.391 . S
C71 H65 0.930 . S
C71 C67 1.429 . S
C71 C70 1.391 . S
C72 C74 1.422 . S
C72 C76 1.415 . S
C72 N78 1.369 . S
C73 C74 1.421 . S
C73 C75 1.417 . S
C73 C85 1.422 . S
C74 C72 1.422 . S
C74 C73 1.421 . S
C74 N84 1.359 . S
C75 C73 1.417 . S
C75 C77 1.329 . S
C75 H94 0.930 . S
C76 C72 1.415 . S
C76 C77 1.437 . S
C76 C80 1.413 . S
C77 C75 1.329 . S
C77 C76 1.437 . S
C77 H99 0.929 . S
N78 C72 1.369 . S
N78 C79 1.339 . S
N78 Gd83 2.622 1_545 S
C79 N78 1.339 . S
C79 C81 1.383 . S
C79 H91 0.923 1_545 S
C80 C76 1.413 . S
C80 C81 1.348 . S
C80 H96 0.931 . S
C81 C79 1.383 . S
C81 C80 1.348 . S
C81 H97 0.930 . S
Gd82 N102 2.622 . S
Gd82 N109 2.570 . S
Gd82 O116 2.353 1_655 S
Gd82 O117 2.468 . S
Gd82 O118 2.427 . S
Gd82 O120 2.388 . S
Gd82 O121 2.386 1_545 S
Gd82 O125 2.307 1_655 S
Gd82 C135 2.805 . S
Gd83 N78 2.622 1_565 S
Gd83 N84 2.570 1_565 S
Gd83 O115 2.386 1_565 S
Gd83 O119 2.307 1_465 S
Gd83 O122 2.353 . S
Gd83 O123 2.468 . S
Gd83 O124 2.427 . S
Gd83 O126 2.388 . S
Gd83 C147 2.805 . S
N84 C74 1.359 . S
N84 Gd83 2.570 1_545 S
N84 C86 1.343 . S
C85 C73 1.422 . S
C85 C87 1.321 . S
C85 H93 0.931 . S
C86 N84 1.343 . S
C86 C87 1.390 . S
C86 H88 0.897 1_455 S
C87 C85 1.321 . S
C87 C86 1.390 . S
C87 H89 0.930 . S
H88 C86 0.897 1_655 S
H89 C87 0.930 . S
H90 C113 0.931 1_455 S
H91 C79 0.923 1_565 S
H92 C114 0.930 1_455 S
H93 C85 0.931 . S
H94 C75 0.930 . S
H95 C104 0.929 . S
H96 C80 0.931 . S
H97 C81 0.930 . S
H98 C136 0.930 . S
H99 C77 0.929 . S
H100 C105 0.944 . S
H101 C106 0.930 . S
N102 Gd82 2.622 . S
N102 C103 1.369 . S
N102 C104 1.338 . S
C103 N102 1.369 . S
C103 C107 1.415 1_545 S
C103 C110 1.422 . S
C104 H95 0.929 . S
C104 N102 1.338 . S
C104 C106 1.378 . S
C105 H100 0.944 . S
C105 C106 1.333 1_565 S
C105 C107 1.416 . S
C106 H101 0.930 . S
C106 C104 1.378 . S
C106 C105 1.333 1_545 S
C107 C103 1.415 1_565 S
C107 C105 1.416 . S
C107 C137 1.437 . S
H108 C137 0.929 . S
N109 Gd82 2.570 . S
N109 C110 1.359 . S
N109 C113 1.343 . S
C110 C103 1.422 . S
C110 N109 1.359 . S
C110 C112 1.421 1_545 S
C111 C112 1.422 . S
C111 C114 1.321 . S
C111 H138 0.931 . S
C112 C110 1.421 1_565 S
C112 C111 1.422 . S
C112 C136 1.417 . S
C113 H90 0.931 1_655 S
C113 N109 1.343 . S
C113 C114 1.390 1_545 S
C114 H92 0.930 1_655 S
C114 C111 1.321 . S
C114 C113 1.390 1_565 S
O115 Gd83 2.386 1_545 S
O115 C127 1.265 . S
O116 Gd82 2.353 1_455 S
O116 C127 1.242 . S
O117 Gd82 2.468 . S
O117 C135 1.263 . S
O118 Gd82 2.427 . S
O118 C135 1.252 . S
O119 Gd83 2.307 1_645 S
O119 C128 1.261 . S
O120 Gd82 2.388 . S
O120 C128 1.252 . S
O121 Gd82 2.386 1_565 S
O121 C139 1.265 . S
O122 Gd83 2.353 . S
O122 C139 1.242 1_455 S
O123 Gd83 2.468 . S
O123 C147 1.263 . S
O124 Gd83 2.427 . S
O124 C147 1.252 . S
O125 Gd82 2.307 1_455 S
O125 C140 1.261 . S
O126 Gd83 2.388 . S
O126 C140 1.252 1_565 S
C127 O115 1.265 . S
C127 O116 1.242 . S
C128 O119 1.261 . S
C128 O120 1.252 . S
C129 C132 1.394 . S
C129 C134 1.370 . S
C129 C135 1.500 . S
C130 C133 1.383 . S
C130 C134 1.395 . S
C131 C132 1.396 . S
C131 C133 1.365 . S
C131 H148 0.929 . S
C132 C129 1.394 . S
C132 C131 1.396 . S
C132 H149 0.930 . S
C133 C130 1.383 . S
C133 C131 1.365 . S
C133 H150 0.931 . S
C134 C129 1.370 . S
C134 C130 1.395 . S
C134 H151 0.930 1_655 S
C135 Gd82 2.805 . S
C135 O117 1.263 . S
C135 O118 1.252 . S
C135 C129 1.500 . S
C136 H98 0.930 . S
C136 C112 1.417 . S
C136 C137 1.329 . S
C137 C107 1.437 . S
C137 H108 0.929 . S
C137 C136 1.329 . S
H138 C111 0.931 . S
C139 O121 1.265 . S
C139 O122 1.242 1_655 S
C140 O125 1.261 . S
C140 O126 1.252 1_545 S
C141 C144 1.394 . S
C141 C146 1.370 . S
C141 C147 1.500 . S
C142 C145 1.383 . S
C142 C146 1.395 . S
C143 C144 1.396 . S
C143 C145 1.365 . S
C143 H152 0.929 . S
C144 C141 1.394 . S
C144 C143 1.396 . S
C144 H153 0.930 . S
C145 C142 1.383 . S
C145 C143 1.365 . S
C145 H154 0.931 . S
C146 C141 1.370 . S
C146 C142 1.395 . S
C146 H155 0.930 . S
C147 Gd83 2.805 . S
C147 O123 1.263 . S
C147 O124 1.252 . S
C147 C141 1.500 . S
H148 C131 0.929 . S
H149 C132 0.930 . S
H150 C133 0.931 . S
H151 C134 0.930 1_455 S
H152 C143 0.929 . S
H153 C144 0.930 . S
H154 C145 0.931 . S
H155 C146 0.930 . S
C156 C158 1.422 . S
C156 C160 1.415 . S
C156 N162 1.369 . S
C157 C158 1.421 . S
C157 C159 1.417 . S
C157 C169 1.422 . S
C158 C156 1.422 . S
C158 C157 1.421 . S
C158 N168 1.359 . S
C159 C157 1.417 . S
C159 C161 1.329 . S
C159 H178 0.930 . S
C160 C156 1.415 . S
C160 C161 1.437 . S
C160 C164 1.413 . S
C161 C159 1.329 . S
C161 C160 1.437 . S
C161 H183 0.929 . S
N162 C156 1.369 . S
N162 C163 1.338 . S
N162 Gd167 2.622 . S
C163 N162 1.338 . S
C163 C165 1.378 . S
C163 H175 0.929 . S
C164 C160 1.413 . S
C164 C165 1.348 . S
C164 H180 0.931 . S
C165 C163 1.378 . S
C165 C164 1.348 . S
C165 H181 0.930 . S
Gd166 N186 2.622 . S
Gd166 N193 2.570 . S
Gd166 O200 2.353 1_545 S
Gd166 O201 2.468 . S
Gd166 O202 2.427 . S
Gd166 O204 2.388 . S
Gd166 O205 2.386 . S
Gd166 O209 2.307 . S
Gd166 C219 2.805 . S
Gd167 N162 2.622 . S
Gd167 N168 2.570 . S
Gd167 O199 2.386 . S
Gd167 O203 2.307 1_565 S
Gd167 O206 2.353 1_565 S
Gd167 O207 2.468 . S
Gd167 O208 2.427 . S
Gd167 O210 2.388 . S
Gd167 C231 2.805 . S
N168 C158 1.359 . S
N168 Gd167 2.570 . S
N168 C170 1.343 . S
C169 C157 1.422 . S
C169 C171 1.321 . S
C169 H177 0.931 . S
C170 N168 1.343 . S
C170 C171 1.390 . S
C170 H172 0.931 . S
C171 C169 1.321 . S
C171 C170 1.390 . S
C171 H173 0.930 . S
H172 C170 0.931 . S
H173 C171 0.930 . S
H174 C197 0.931 . S
H175 C163 0.929 . S
H176 C198 0.930 . S
H177 C169 0.931 . S
H178 C159 0.930 . S
H179 C188 0.929 . S
H180 C164 0.931 . S
H181 C165 0.930 . S
H182 C220 0.930 . S
H183 C161 0.929 . S
H184 C189 0.931 . S
H185 C190 0.930 . S
N186 Gd166 2.622 . S
N186 C187 1.369 . S
N186 C188 1.338 . S
C187 N186 1.369 . S
C187 C191 1.415 . S
C187 C194 1.422 . S
C188 H179 0.929 . S
C188 N186 1.338 . S
C188 C190 1.378 . S
C189 H184 0.931 . S
C189 C190 1.348 . S
C189 C191 1.413 . S
C190 H185 0.930 . S
C190 C188 1.378 . S
C190 C189 1.348 . S
C191 C187 1.415 . S
C191 C189 1.413 . S
C191 C221 1.437 . S
H192 C221 0.929 . S
N193 Gd166 2.570 . S
N193 C194 1.359 . S
N193 C197 1.343 . S
C194 C187 1.422 . S
C194 N193 1.359 . S
C194 C196 1.421 . S
C195 C196 1.422 . S
C195 C198 1.321 . S
C195 H222 0.931 . S
C196 C194 1.421 . S
C196 C195 1.422 . S
C196 C220 1.417 . S
C197 H174 0.931 . S
C197 N193 1.343 . S
C197 C198 1.390 . S
C198 H176 0.930 . S
C198 C195 1.321 . S
C198 C197 1.390 . S
O199 Gd167 2.386 . S
O199 C211 1.265 . S
O200 Gd166 2.353 1_565 S
O200 C211 1.242 . S
O201 Gd166 2.468 . S
O201 C219 1.263 . S
O202 Gd166 2.427 . S
O202 C219 1.252 . S
O203 Gd167 2.307 1_545 S
O203 C212 1.261 . S
O204 Gd166 2.388 . S
O204 C212 1.252 . S
O205 Gd166 2.386 . S
O205 C223 1.265 . S
O206 Gd167 2.353 1_545 S
O206 C223 1.242 . S
O207 Gd167 2.468 . S
O207 C231 1.263 . S
O208 Gd167 2.427 . S
O208 C231 1.252 . S
O209 Gd166 2.307 . S
O209 C224 1.256 1_545 S
O210 Gd167 2.388 . S
O210 C224 1.255 . S
C211 O199 1.265 . S
C211 O200 1.242 . S
C212 O203 1.261 . S
C212 O204 1.252 . S
C213 C216 1.394 . S
C213 C218 1.370 . S
C213 C219 1.500 . S
C214 C217 1.383 . S
C214 C218 1.395 . S
C215 C216 1.396 . S
C215 C217 1.365 . S
C215 H232 0.929 . S
C216 C213 1.394 . S
C216 C215 1.396 . S
C216 H233 0.930 . S
C217 C214 1.383 . S
C217 C215 1.365 . S
C217 H234 0.931 . S
C218 C213 1.370 . S
C218 C214 1.395 . S
C218 H235 0.930 . S
C219 Gd166 2.805 . S
C219 O201 1.263 . S
C219 O202 1.252 . S
C219 C213 1.500 . S
C220 H182 0.930 . S
C220 C196 1.417 . S
C220 C221 1.329 . S
C221 C191 1.437 . S
C221 H192 0.929 . S
C221 C220 1.329 . S
H222 C195 0.931 . S
C223 O205 1.265 . S
C223 O206 1.242 . S
C224 O209 1.256 1_565 S
C224 O210 1.255 . S
C225 C228 1.394 . S
C225 C230 1.370 1_565 S
C225 C231 1.500 . S
C226 C229 1.383 1_545 S
C226 C230 1.395 . S
C227 C228 1.396 . S
C227 C229 1.365 . S
C227 H236 0.929 . S
C228 C225 1.394 . S
C228 C227 1.396 . S
C228 H237 0.930 . S
C229 C226 1.383 1_565 S
C229 C227 1.365 . S
C229 H238 0.931 . S
C230 C225 1.370 1_545 S
C230 C226 1.395 . S
C230 H239 0.930 . S
C231 Gd167 2.805 . S
C231 O207 1.263 . S
C231 O208 1.252 . S
C231 C225 1.500 . S
H232 C215 0.929 . S
H233 C216 0.930 . S
H234 C217 0.931 . S
H235 C218 0.930 . S
H236 C227 0.929 . S
H237 C228 0.930 . S
H238 C229 0.931 . S
H239 C230 0.930 . S
C240 C242 1.422 . S
C240 C244 1.415 . S
C240 N246 1.369 . S
C241 C242 1.421 . S
C241 C243 1.417 . S
C241 C253 1.422 . S
C242 C240 1.422 . S
C242 C241 1.421 . S
C242 N252 1.359 . S
C243 C241 1.417 . S
C243 C245 1.329 . S
C243 H262 0.930 . S
C244 C240 1.415 . S
C244 C245 1.437 . S
C244 C248 1.413 . S
C245 C243 1.329 . S
C245 C244 1.437 . S
C245 H267 0.929 . S
N246 C240 1.369 . S
N246 C247 1.338 . S
N246 Gd251 2.622 . S
C247 N246 1.338 . S
C247 C249 1.378 . S
C247 H259 0.929 . S
C248 C244 1.413 . S
C248 C249 1.348 . S
C248 H264 0.931 . S
C249 C247 1.378 . S
C249 C248 1.348 . S
C249 H265 0.930 . S
Gd250 N270 2.622 . S
Gd250 N277 2.570 . S
Gd250 O284 2.353 . S
Gd250 O285 2.468 . S
Gd250 O286 2.427 . S
Gd250 O288 2.388 . S
Gd250 O289 2.386 . S
Gd250 O293 2.307 . S
Gd250 C303 2.805 . S
Gd251 N246 2.622 . S
Gd251 N252 2.570 . S
Gd251 O283 2.386 . S
Gd251 O287 2.307 . S
Gd251 O290 2.353 . S
Gd251 O291 2.468 . S
Gd251 O292 2.427 . S
Gd251 O294 2.388 . S
Gd251 C315 2.805 . S
N252 C242 1.359 . S
N252 Gd251 2.570 . S
N252 C254 1.343 . S
C253 C241 1.422 . S
C253 C255 1.321 . S
C253 H261 0.931 . S
C254 N252 1.343 . S
C254 C255 1.390 . S
C254 H256 0.931 . S
C255 C253 1.321 . S
C255 C254 1.390 . S
C255 H257 0.930 . S
H256 C254 0.931 . S
H257 C255 0.930 . S
H258 C281 0.931 . S
H259 C247 0.929 . S
H260 C282 0.930 . S
H261 C253 0.931 . S
H262 C243 0.930 . S
H263 C272 0.929 . S
H264 C248 0.931 . S
H265 C249 0.930 . S
H266 C304 0.930 . S
H267 C245 0.929 . S
H268 C273 0.931 . S
H269 C274 0.930 . S
N270 Gd250 2.622 . S
N270 C271 1.369 . S
N270 C272 1.338 . S
C271 N270 1.369 . S
C271 C275 1.415 . S
C271 C278 1.422 . S
C272 H263 0.929 . S
C272 N270 1.338 . S
C272 C274 1.378 . S
C273 H268 0.931 . S
C273 C274 1.348 . S
C273 C275 1.413 . S
C274 H269 0.930 . S
C274 C272 1.378 . S
C274 C273 1.348 . S
C275 C271 1.415 . S
C275 C273 1.413 . S
C275 C305 1.437 . S
H276 C305 0.929 . S
N277 Gd250 2.570 . S
N277 C278 1.359 . S
N277 C281 1.343 . S
C278 C271 1.422 . S
C278 N277 1.359 . S
C278 C280 1.421 . S
C279 C280 1.422 . S
C279 C282 1.321 . S
C279 H306 0.931 . S
C280 C278 1.421 . S
C280 C279 1.422 . S
C280 C304 1.417 . S
C281 H258 0.931 . S
C281 N277 1.343 . S
C281 C282 1.390 . S
C282 H260 0.930 . S
C282 C279 1.321 . S
C282 C281 1.390 . S
O283 Gd251 2.386 . S
O283 C295 1.265 . S
O284 Gd250 2.353 . S
O284 C295 1.242 . S
O285 Gd250 2.468 . S
O285 C303 1.263 . S
O286 Gd250 2.427 . S
O286 C303 1.252 . S
O287 Gd251 2.307 . S
O287 C296 1.261 . S
O288 Gd250 2.388 . S
O288 C296 1.252 . S
O289 Gd250 2.386 . S
O289 C307 1.265 . S
O290 Gd251 2.353 . S
O290 C307 1.242 . S
O291 Gd251 2.468 . S
O291 C315 1.263 . S
O292 Gd251 2.427 . S
O292 C315 1.252 . S
O293 Gd250 2.307 . S
O293 C308 1.261 . S
O294 Gd251 2.388 . S
O294 C308 1.252 . S
C295 O283 1.265 . S
C295 O284 1.242 . S
C296 O287 1.261 . S
C296 O288 1.252 . S
C297 C300 1.394 . S
C297 C302 1.370 . S
C297 C303 1.500 . S
C298 C301 1.383 . S
C298 C302 1.395 . S
C299 C300 1.396 . S
C299 C301 1.365 . S
C299 H316 0.929 . S
C300 C297 1.394 . S
C300 C299 1.396 . S
C300 H317 0.930 . S
C301 C298 1.383 . S
C301 C299 1.365 . S
C301 H318 0.931 . S
C302 C297 1.370 . S
C302 C298 1.395 . S
C302 H319 0.930 . S
C303 Gd250 2.805 . S
C303 O285 1.263 . S
C303 O286 1.252 . S
C303 C297 1.500 . S
C304 H266 0.930 . S
C304 C280 1.417 . S
C304 C305 1.329 . S
C305 C275 1.437 . S
C305 H276 0.929 . S
C305 C304 1.329 . S
H306 C279 0.931 . S
C307 O289 1.265 . S
C307 O290 1.242 . S
C308 O293 1.261 . S
C308 O294 1.252 . S
C309 C312 1.394 . S
C309 C314 1.370 . S
C309 C315 1.500 . S
C310 C313 1.383 . S
C310 C314 1.395 . S
C311 C312 1.396 . S
C311 C313 1.365 . S
C311 H320 0.929 . S
C312 C309 1.394 . S
C312 C311 1.396 . S
C312 H321 0.930 . S
C313 C310 1.383 . S
C313 C311 1.365 . S
C313 H322 0.931 . S
C314 C309 1.370 . S
C314 C310 1.395 . S
C314 H323 0.930 . S
C315 Gd251 2.805 . S
C315 O291 1.263 . S
C315 O292 1.252 . S
C315 C309 1.500 . S
H316 C299 0.929 . S
H317 C300 0.930 . S
H318 C301 0.931 . S
H319 C302 0.930 . S
H320 C311 0.929 . S
H321 C312 0.930 . S
H322 C313 0.931 . S
H323 C314 0.930 . S
C324 C326 1.422 . S
C324 C328 1.415 . S
C324 N330 1.369 1_455 S
C325 C326 1.421 . S
C325 C327 1.417 . S
C325 C337 1.422 . S
C326 C324 1.422 . S
C326 C325 1.421 . S
C326 N336 1.359 . S
C327 C325 1.417 . S
C327 C329 1.329 . S
C327 H346 0.930 . S
C328 C324 1.415 . S
C328 C329 1.437 . S
C328 C332 1.413 . S
C329 C327 1.329 . S
C329 C328 1.437 . S
C329 H351 0.929 . S
N330 C324 1.369 1_655 S
N330 C331 1.338 . S
N330 Gd335 2.622 . S
C331 N330 1.338 . S
C331 C333 1.378 1_655 S
C331 H343 0.929 . S
C332 C328 1.413 . S
C332 C333 1.348 . S
C332 H348 0.931 . S
C333 C331 1.378 1_455 S
C333 C332 1.348 . S
C333 H349 0.928 1_455 S
Gd334 N354 2.622 . S
Gd334 N361 2.570 . S
Gd334 O368 2.353 . S
Gd334 O369 2.468 . S
Gd334 O370 2.427 . S
Gd334 O372 2.388 . S
Gd334 O373 2.386 1_455 S
Gd334 O377 2.307 . S
Gd334 C387 2.805 . S
Gd335 N330 2.622 . S
Gd335 N336 2.570 1_655 S
Gd335 O367 2.386 1_655 S
Gd335 O371 2.320 . S
Gd335 O374 2.353 . S
Gd335 O375 2.468 . S
Gd335 O376 2.427 . S
Gd335 O378 2.388 . S
Gd335 C399 2.805 . S
N336 C326 1.359 . S
N336 Gd335 2.570 1_455 S
N336 C338 1.343 . S
C337 C325 1.422 . S
C337 C339 1.321 . S
C337 H345 0.931 . S
C338 N336 1.343 . S
C338 C339 1.390 . S
C338 H340 0.931 1_455 S
C339 C337 1.321 . S
C339 C338 1.390 . S
C339 H341 0.930 . S
H340 C338 0.931 1_655 S
H341 C339 0.930 . S
H342 C365 0.931 . S
H343 C331 0.929 . S
H344 C366 0.930 . S
H345 C337 0.931 . S
H346 C327 0.930 . S
H347 C356 0.929 . S
H348 C332 0.931 . S
H349 C333 0.928 1_655 S
H350 C388 0.930 . S
H351 C329 0.929 . S
H352 C357 0.931 . S
H353 C358 0.930 . S
N354 Gd334 2.622 . S
N354 C355 1.369 . S
N354 C356 1.338 . S
C355 N354 1.369 . S
C355 C359 1.415 1_455 S
C355 C362 1.425 . S
C356 H347 0.929 . S
C356 N354 1.338 . S
C356 C358 1.378 . S
C357 H352 0.931 . S
C357 C358 1.348 1_655 S
C357 C359 1.413 . S
C358 H353 0.930 . S
C358 C356 1.378 . S
C358 C357 1.348 1_455 S
C359 C355 1.415 1_655 S
C359 C357 1.413 . S
C359 C389 1.437 . S
H360 C389 0.929 . S
N361 Gd334 2.570 . S
N361 C362 1.368 . S
N361 C365 1.343 . S
C362 C355 1.425 . S
C362 N361 1.368 . S
C362 C364 1.409 1_455 S
C363 C364 1.422 . S
C363 C366 1.321 . S
C363 H390 0.931 . S
C364 C362 1.409 1_655 S
C364 C363 1.422 . S
C364 C388 1.417 . S
C365 H342 0.931 . S
C365 N361 1.343 . S
C365 C366 1.390 1_455 S
C366 H344 0.930 . S
C366 C363 1.321 . S
C366 C365 1.390 1_655 S
O367 Gd335 2.386 1_455 S
O367 C379 1.265 . S
O368 Gd334 2.353 . S
O368 C379 1.242 . S
O369 Gd334 2.468 . S
O369 C387 1.263 . S
O370 Gd334 2.427 . S
O370 C387 1.252 . S
O371 Gd335 2.320 . S
O371 C380 1.252 1_655 S
O372 Gd334 2.388 . S
O372 C380 1.252 . S
O373 Gd334 2.386 1_655 S
O373 C391 1.265 . S
O374 Gd335 2.353 . S
O374 C391 1.242 . S
O375 Gd335 2.468 . S
O375 C399 1.263 . S
O376 Gd335 2.427 . S
O376 C399 1.252 . S
O377 Gd334 2.307 . S
O377 C392 1.261 . S
O378 Gd335 2.388 . S
O378 C392 1.252 1_655 S
C379 O367 1.265 . S
C379 O368 1.242 . S
C380 O371 1.252 1_455 S
C380 O372 1.252 . S
C381 C384 1.394 . S
C381 C386 1.370 . S
C381 C387 1.500 . S
C382 C385 1.383 . S
C382 C386 1.395 . S
C383 C384 1.396 . S
C383 C385 1.365 . S
C383 H400 0.929 . S
C384 C381 1.394 . S
C384 C383 1.396 . S
C384 H401 0.930 . S
C385 C382 1.383 . S
C385 C383 1.365 . S
C385 H402 0.931 . S
C386 C381 1.370 . S
C386 C382 1.395 . S
C386 H403 0.930 . S
C387 Gd334 2.805 . S
C387 O369 1.263 . S
C387 O370 1.252 . S
C387 C381 1.500 . S
C388 H350 0.930 . S
C388 C364 1.417 . S
C388 C389 1.329 . S
C389 C359 1.437 . S
C389 H360 0.929 . S
C389 C388 1.329 . S
H390 C363 0.931 . S
C391 O373 1.265 . S
C391 O374 1.242 . S
C392 O377 1.261 . S
C392 O378 1.252 1_455 S
C393 C396 1.394 . S
C393 C398 1.370 . S
C393 C399 1.500 . S
C394 C397 1.383 . S
C394 C398 1.395 . S
C395 C396 1.396 . S
C395 C397 1.365 . S
C395 H404 0.929 . S
C396 C393 1.394 . S
C396 C395 1.396 . S
C396 H405 0.930 . S
C397 C394 1.383 . S
C397 C395 1.365 . S
C397 H406 0.931 . S
C398 C393 1.370 . S
C398 C394 1.395 . S
C398 H407 0.930 . S
C399 Gd335 2.805 . S
C399 O375 1.263 . S
C399 O376 1.252 . S
C399 C393 1.500 . S
H400 C383 0.929 . S
H401 C384 0.930 . S
H402 C385 0.931 . S
H403 C386 0.930 . S
H404 C395 0.929 . S
H405 C396 0.930 . S
H406 C397 0.931 . S
H407 C398 0.930 . S
C408 C409 1.349 . S
C408 C410 1.327 . S
C408 H433 0.950 . S
C409 C408 1.349 . S
C409 C425 1.349 . S
C410 C408 1.327 . S
C410 C429 1.429 . S
C410 H434 0.950 . S
C411 C428 1.574 . S
C411 C430 1.368 . S
C411 H435 0.949 . S
H412 C416 0.949 . S
C413 C414 1.349 . S
C413 C415 1.327 . S
C413 H436 0.950 1_545 S
C414 C413 1.349 . S
C414 C426 1.349 . S
C415 C413 1.327 . S
C415 C431 1.429 . S
C415 H437 0.950 1_545 S
C416 H412 0.949 . S
C416 C424 1.574 . S
C416 C432 1.368 . S
H417 C425 0.950 . S
H418 C423 0.950 . S
H419 C424 0.949 . S
H420 C426 0.950 . S
H421 C427 0.950 . S
H422 C428 0.949 1_565 S
C423 H418 0.950 . S
C423 C425 1.327 . S
C423 C429 1.429 . S
C424 C416 1.574 . S
C424 H419 0.949 . S
C424 C430 1.368 . S
C425 C409 1.349 . S
C425 H417 0.950 . S
C425 C423 1.327 . S
C426 C414 1.349 . S
C426 H420 0.950 . S
C426 C427 1.327 . S
C427 H421 0.950 . S
C427 C426 1.327 . S
C427 C431 1.429 . S
C428 C411 1.574 . S
C428 H422 0.949 1_545 S
C428 C432 1.368 . S
C429 C410 1.429 . S
C429 C423 1.429 . S
C429 C430 1.523 . S
C430 C411 1.368 . S
C430 C424 1.368 . S
C430 C429 1.523 . S
C431 C415 1.429 . S
C431 C427 1.429 . S
C431 C432 1.523 . S
C432 C416 1.368 . S
C432 C428 1.368 . S
C432 C431 1.523 . S
H433 C408 0.950 . S
H434 C410 0.950 . S
H435 C411 0.949 . S
H436 C413 0.950 1_565 S
H437 C415 0.950 1_565 S
C438 C439 1.349 . S
C438 C440 1.327 . S
C438 H463 0.950 . S
C439 C438 1.349 . S
C439 C455 1.349 . S
C440 C438 1.327 . S
C440 C459 1.429 . S
C440 H464 0.950 . S
C441 C458 1.574 . S
C441 C460 1.368 . S
C441 H465 0.949 . S
H442 C446 0.949 . S
C443 C444 1.349 . S
C443 C445 1.327 . S
C443 H466 0.950 . S
C444 C443 1.349 . S
C444 C456 1.349 . S
C445 C443 1.327 . S
C445 C461 1.429 . S
C445 H467 0.950 . S
C446 H442 0.949 . S
C446 C454 1.574 . S
C446 C462 1.368 . S
H447 C455 0.950 . S
H448 C453 0.950 . S
H449 C454 0.949 . S
H450 C456 0.950 . S
H451 C457 0.950 . S
H452 C458 0.949 . S
C453 H448 0.950 . S
C453 C455 1.327 . S
C453 C459 1.429 . S
C454 C446 1.574 . S
C454 H449 0.949 . S
C454 C460 1.368 . S
C455 C439 1.349 . S
C455 H447 0.950 . S
C455 C453 1.327 . S
C456 C444 1.349 . S
C456 H450 0.950 . S
C456 C457 1.327 . S
C457 H451 0.950 . S
C457 C456 1.327 . S
C457 C461 1.429 . S
C458 C441 1.574 . S
C458 H452 0.949 . S
C458 C462 1.368 . S
C459 C440 1.429 . S
C459 C453 1.429 . S
C459 C460 1.523 . S
C460 C441 1.368 . S
C460 C454 1.368 . S
C460 C459 1.523 . S
C461 C445 1.429 . S
C461 C457 1.429 . S
C461 C462 1.523 . S
C462 C446 1.368 . S
C462 C458 1.368 . S
C462 C461 1.523 . S
H463 C438 0.950 . S
H464 C440 0.950 . S
H465 C441 0.949 . S
H466 C443 0.950 . S
H467 C445 0.950 . S
C468 C469 1.349 . S
C468 C470 1.327 . S
C468 H493 0.950 . S
C469 C468 1.349 . S
C469 C485 1.349 . S
C470 C468 1.327 . S
C470 C489 1.429 . S
C470 H494 0.950 . S
C471 C488 1.574 . S
C471 C490 1.368 . S
C471 H495 0.949 . S
H472 C476 0.949 . S
C473 C474 1.349 . S
C473 C475 1.327 . S
C473 H496 0.950 . S
C474 C473 1.349 . S
C474 C486 1.349 . S
C475 C473 1.327 . S
C475 C491 1.429 . S
C475 H497 0.950 . S
C476 H472 0.949 . S
C476 C484 1.574 . S
C476 C492 1.368 . S
H477 C485 0.950 . S
H478 C483 0.950 . S
H479 C484 0.949 . S
H480 C486 0.950 . S
H481 C487 0.950 . S
H482 C488 0.949 . S
C483 H478 0.950 . S
C483 C485 1.327 . S
C483 C489 1.429 . S
C484 C476 1.574 . S
C484 H479 0.949 . S
C484 C490 1.368 . S
C485 C469 1.349 . S
C485 H477 0.950 . S
C485 C483 1.327 . S
C486 C474 1.349 . S
C486 H480 0.950 . S
C486 C487 1.327 . S
C487 H481 0.950 . S
C487 C486 1.327 . S
C487 C491 1.429 . S
C488 C471 1.574 . S
C488 H482 0.949 . S
C488 C492 1.368 . S
C489 C470 1.429 . S
C489 C483 1.429 . S
C489 C490 1.523 . S
C490 C471 1.368 . S
C490 C484 1.368 . S
C490 C489 1.523 . S
C491 C475 1.429 . S
C491 C487 1.429 . S
C491 C492 1.523 . S
C492 C476 1.368 . S
C492 C488 1.368 . S
C492 C491 1.523 . S
H493 C468 0.950 . S
H494 C470 0.950 . S
H495 C471 0.949 . S
H496 C473 0.950 . S
H497 C475 0.950 . S
C498 C499 1.349 . S
C498 C500 1.327 . S
C498 H523 0.950 . S
C499 C498 1.349 . S
C499 C515 1.349 . S
C500 C498 1.327 . S
C500 C519 1.429 . S
C500 H524 0.950 . S
C501 C518 1.574 . S
C501 C520 1.368 . S
C501 H525 0.949 . S
H502 C506 0.949 . S
C503 C504 1.349 . S
C503 C505 1.327 . S
C503 H526 0.936 1_455 S
C504 C503 1.349 . S
C504 C516 1.349 . S
C505 C503 1.327 . S
C505 C521 1.429 . S
C505 H527 0.950 . S
C506 H502 0.949 . S
C506 C514 1.574 . S
C506 C522 1.368 . S
H507 C515 0.950 . S
H508 C513 0.950 . S
H509 C514 0.949 . S
H510 C516 0.950 . S
H511 C517 0.950 . S
H512 C518 0.949 . S
C513 H508 0.950 . S
C513 C515 1.327 . S
C513 C519 1.429 . S
C514 C506 1.574 . S
C514 H509 0.949 . S
C514 C520 1.368 . S
C515 C499 1.349 . S
C515 H507 0.950 . S
C515 C513 1.327 . S
C516 C504 1.349 . S
C516 H510 0.950 . S
C516 C517 1.327 . S
C517 H511 0.950 . S
C517 C516 1.327 . S
C517 C521 1.429 . S
C518 C501 1.574 . S
C518 H512 0.949 . S
C518 C522 1.368 . S
C519 C500 1.429 . S
C519 C513 1.429 . S
C519 C520 1.523 . S
C520 C501 1.368 . S
C520 C514 1.368 . S
C520 C519 1.523 . S
C521 C505 1.429 . S
C521 C517 1.429 . S
C521 C522 1.523 . S
C522 C506 1.368 . S
C522 C518 1.368 . S
C522 C521 1.523 . S
H523 C498 0.950 . S
H524 C500 0.950 . S
H525 C501 0.949 . S
H526 C503 0.936 1_655 S
H527 C505 0.950 . S
C528 C529 1.349 . S
C528 C530 1.327 . S
C528 H553 0.950 . S
C529 C528 1.349 . S
C529 C545 1.349 . S
C530 C528 1.327 . S
C530 C549 1.429 . S
C530 H554 0.950 . S
C531 C548 1.574 1_554 S
C531 C550 1.368 1_545 S
C531 H555 0.949 . S
H532 C536 0.949 . S
C533 C534 1.343 1_545 S
C533 C535 1.327 . S
C533 H556 0.950 . S
C534 C533 1.343 1_565 S
C534 C546 1.356 . S
C535 C533 1.327 . S
C535 C551 1.429 1_545 S
C535 H557 0.950 . S
C536 H532 0.949 . S
C536 C544 1.574 . S
C536 C552 1.368 . S
H537 C545 0.950 1_545 S
H538 C543 0.950 1_545 S
H539 C544 0.949 . S
H540 C546 0.950 . S
H541 C547 0.950 . S
H542 C548 0.949 . S
C543 H538 0.950 1_565 S
C543 C545 1.327 . S
C543 C549 1.429 . S
C544 C536 1.574 . S
C544 H539 0.949 . S
C544 C550 1.368 1_556 S
C545 C529 1.349 . S
C545 H537 0.950 1_565 S
C545 C543 1.327 . S
C546 C534 1.356 . S
C546 H540 0.950 . S
C546 C547 1.327 . S
C547 H541 0.950 . S
C547 C546 1.327 . S
C547 C551 1.429 . S
C548 C531 1.574 1_556 S
C548 H542 0.949 . S
C548 C552 1.368 1_545 S
C549 C530 1.429 . S
C549 C543 1.429 . S
C549 C550 1.523 . S
C550 C531 1.368 1_565 S
C550 C544 1.368 1_554 S
C550 C549 1.523 . S
C551 C535 1.429 1_565 S
C551 C547 1.429 . S
C551 C552 1.523 . S
C552 C536 1.368 . S
C552 C548 1.368 1_565 S
C552 C551 1.523 . S
H553 C528 0.950 . S
H554 C530 0.950 . S
H555 C531 0.949 . S
H556 C533 0.950 . S
H557 C535 0.950 . S
C558 C559 1.349 . S
C558 C560 1.327 . S
C558 H583 0.950 . S
C559 C558 1.349 . S
C559 C575 1.349 . S
C560 C558 1.327 . S
C560 C579 1.429 . S
C560 H584 0.950 . S
C561 C578 1.574 1_554 S
C561 C580 1.368 . S
C561 H585 0.949 . S
H562 C566 0.949 . S
C563 C564 1.349 . S
C563 C565 1.327 . S
C563 H586 0.950 . S
C564 C563 1.349 . S
C564 C576 1.349 . S
C565 C563 1.327 . S
C565 C581 1.429 . S
C565 H587 0.950 . S
C566 H562 0.949 . S
C566 C574 1.574 . S
C566 C582 1.368 . S
H567 C575 0.950 . S
H568 C573 0.950 . S
H569 C574 0.949 . S
H570 C576 0.950 . S
H571 C577 0.950 . S
H572 C578 0.949 . S
C573 H568 0.950 . S
C573 C575 1.327 . S
C573 C579 1.429 . S
C574 C566 1.574 . S
C574 H569 0.949 . S
C574 C580 1.368 1_556 S
C575 C559 1.349 . S
C575 H567 0.950 . S
C575 C573 1.327 . S
C576 C564 1.349 . S
C576 H570 0.950 . S
C576 C577 1.327 . S
C577 H571 0.950 . S
C577 C576 1.327 . S
C577 C581 1.429 . S
C578 C561 1.574 1_556 S
C578 H572 0.949 . S
C578 C582 1.368 . S
C579 C560 1.429 . S
C579 C573 1.429 . S
C579 C580 1.523 . S
C580 C561 1.368 . S
C580 C574 1.368 1_554 S
C580 C579 1.523 . S
C581 C565 1.429 . S
C581 C577 1.429 . S
C581 C582 1.523 . S
C582 C566 1.368 . S
C582 C578 1.368 . S
C582 C581 1.523 . S
H583 C558 0.950 . S
H584 C560 0.950 . S
H585 C561 0.949 . S
H586 C563 0.950 . S
H587 C565 0.950 . S
C588 C589 1.349 . S
C588 C590 1.327 . S
C588 H613 0.950 . S
C589 C588 1.349 . S
C589 C605 1.349 . S
C590 C588 1.327 . S
C590 C609 1.429 . S
C590 H614 0.950 . S
C591 C608 1.574 . S
C591 C610 1.368 1_556 S
C591 H615 0.949 . S
H592 C596 0.949 . S
C593 C594 1.349 . S
C593 C595 1.327 . S
C593 H616 0.950 . S
C594 C593 1.349 . S
C594 C606 1.349 . S
C595 C593 1.327 . S
C595 C611 1.429 . S
C595 H617 0.950 . S
C596 H592 0.949 . S
C596 C604 1.574 1_556 S
C596 C612 1.368 . S
H597 C605 0.950 . S
H598 C603 0.950 . S
H599 C604 0.949 . S
H600 C606 0.950 . S
H601 C607 0.950 . S
H602 C608 0.949 . S
C603 H598 0.950 . S
C603 C605 1.327 . S
C603 C609 1.429 . S
C604 C596 1.574 1_554 S
C604 H599 0.949 . S
C604 C610 1.368 . S
C605 C589 1.349 . S
C605 H597 0.950 . S
C605 C603 1.327 . S
C606 C594 1.349 . S
C606 H600 0.950 . S
C606 C607 1.327 . S
C607 H601 0.950 . S
C607 C606 1.327 . S
C607 C611 1.429 . S
C608 C591 1.574 . S
C608 H602 0.949 . S
C608 C612 1.368 . S
C609 C590 1.429 . S
C609 C603 1.429 . S
C609 C610 1.523 . S
C610 C591 1.368 1_554 S
C610 C604 1.368 . S
C610 C609 1.523 . S
C611 C595 1.429 . S
C611 C607 1.429 . S
C611 C612 1.523 . S
C612 C596 1.368 . S
C612 C608 1.368 . S
C612 C611 1.523 . S
H613 C588 0.950 . S
H614 C590 0.950 . S
H615 C591 0.949 . S
H616 C593 0.950 . S
H617 C595 0.950 . S
C618 C619 1.349 . S
C618 C620 1.327 . S
C618 H643 0.950 . S
C619 C618 1.349 . S
C619 C635 1.349 . S
C620 C618 1.327 . S
C620 C639 1.429 . S
C620 H644 0.925 1_655 S
C621 C638 1.574 1_554 S
C621 C640 1.368 . S
C621 H645 0.949 . S
H622 C626 0.962 . S
C623 C624 1.349 . S
C623 C625 1.327 . S
C623 H646 0.950 . S
C624 C623 1.349 . S
C624 C636 1.349 1_655 S
C625 C623 1.327 . S
C625 C641 1.429 . S
C625 H647 0.950 . S
C626 H622 0.962 . S
C626 C634 1.571 1_455 S
C626 C642 1.357 1_455 S
H627 C635 0.950 . S
H628 C633 0.950 . S
H629 C634 0.949 1_455 S
H630 C636 0.950 . S
H631 C637 0.950 . S
H632 C638 0.949 . S
C633 H628 0.950 . S
C633 C635 1.327 . S
C633 C639 1.429 . S
C634 C626 1.571 1_655 S
C634 H629 0.949 1_655 S
C634 C640 1.368 1_556 S
C635 C619 1.349 . S
C635 H627 0.950 . S
C635 C633 1.327 . S
C636 C624 1.349 1_455 S
C636 H630 0.950 . S
C636 C637 1.327 . S
C637 H631 0.950 . S
C637 C636 1.327 . S
C637 C641 1.429 1_455 S
C638 C621 1.574 1_556 S
C638 H632 0.949 . S
C638 C642 1.368 . S
C639 C620 1.429 . S
C639 C633 1.429 . S
C639 C640 1.523 . S
C640 C621 1.368 . S
C640 C634 1.368 1_554 S
C640 C639 1.523 . S
C641 C625 1.429 . S
C641 C637 1.429 1_655 S
C641 C642 1.523 . S
C642 C626 1.357 1_655 S
C642 C638 1.368 . S
C642 C641 1.523 . S
H643 C618 0.950 . S
H644 C620 0.925 1_455 S
H645 C621 0.949 . S
H646 C623 0.950 . S
H647 C625 0.950 . S
C648 C649 1.349 . S
C648 C650 1.327 . S
C648 H673 0.950 . S
C649 C648 1.349 . S
C649 C665 1.349 . S
C650 C648 1.327 . S
C650 C669 1.429 . S
C650 H674 0.950 . S
C651 C668 1.574 . S
C651 C670 1.368 . S
C651 H675 0.949 . S
H652 C656 0.949 . S
C653 C654 1.349 1_455 S
C653 C655 1.327 . S
C653 H676 0.950 . S
C654 C653 1.349 1_655 S
C654 C666 1.349 . S
C655 C653 1.327 . S
C655 C671 1.429 . S
C655 H677 0.950 . S
C656 H652 0.949 . S
C656 C664 1.574 . S
C656 C672 1.368 . S
H657 C665 0.950 . S
H658 C663 0.950 . S
H659 C664 0.949 . S
H660 C666 0.950 . S
H661 C667 0.950 . S
H662 C668 0.949 . S
C663 H658 0.950 . S
C663 C665 1.327 . S
C663 C669 1.429 . S
C664 C656 1.574 . S
C664 H659 0.949 . S
C664 C670 1.368 . S
C665 C649 1.349 . S
C665 H657 0.950 . S
C665 C663 1.327 . S
C666 C654 1.349 . S
C666 H660 0.950 . S
C666 C667 1.327 . S
C667 H661 0.950 . S
C667 C666 1.327 . S
C667 C671 1.429 1_655 S
C668 C651 1.574 . S
C668 H662 0.949 . S
C668 C672 1.368 . S
C669 C650 1.429 . S
C669 C663 1.429 . S
C669 C670 1.523 . S
C670 C651 1.368 . S
C670 C664 1.368 . S
C670 C669 1.523 . S
C671 C655 1.429 . S
C671 C667 1.429 1_455 S
C671 C672 1.523 . S
C672 C656 1.368 . S
C672 C668 1.368 . S
C672 C671 1.523 . S
H673 C648 0.950 . S
H674 C650 0.950 . S
H675 C651 0.949 . S
H676 C653 0.950 . S
H677 C655 0.950 . S
C678 C679 1.349 . S
C678 C680 1.327 . S
C678 H703 0.950 . S
C679 C678 1.349 . S
C679 C695 1.349 . S
C680 C678 1.327 . S
C680 C699 1.429 . S
C680 H704 0.950 . S
C681 C698 1.574 . S
C681 C700 1.368 . S
C681 H705 0.949 . S
H682 C686 0.946 1_565 S
C683 C684 1.349 . S
C683 C685 1.327 . S
C683 H706 0.950 . S
C684 C683 1.349 . S
C684 C696 1.349 1_545 S
C685 C683 1.327 . S
C685 C701 1.429 . S
C685 H707 0.950 . S
C686 H682 0.946 1_545 S
C686 C694 1.574 . S
C686 C702 1.368 . S
H687 C695 0.950 . S
H688 C693 0.950 . S
H689 C694 0.949 . S
H690 C696 0.950 . S
H691 C697 0.966 . S
H692 C698 0.949 . S
C693 H688 0.950 . S
C693 C695 1.327 . S
C693 C699 1.429 . S
C694 C686 1.574 . S
C694 H689 0.949 . S
C694 C700 1.368 . S
C695 C679 1.349 . S
C695 H687 0.950 . S
C695 C693 1.327 . S
C696 C684 1.349 1_565 S
C696 H690 0.950 . S
C696 C697 1.336 . S
C697 H691 0.966 . S
C697 C696 1.336 . S
C697 C701 1.404 1_565 S
C698 C681 1.574 . S
C698 H692 0.949 . S
C698 C702 1.368 . S
C699 C680 1.429 . S
C699 C693 1.429 . S
C699 C700 1.523 . S
C700 C681 1.368 . S
C700 C694 1.368 . S
C700 C699 1.523 . S
C701 C685 1.429 . S
C701 C697 1.404 1_545 S
C701 C702 1.523 . S
C702 C686 1.368 . S
C702 C698 1.368 . S
C702 C701 1.523 . S
H703 C678 0.950 . S
H704 C680 0.950 . S
H705 C681 0.949 . S
H706 C683 0.950 . S
H707 C685 0.950 . S
C708 C709 1.349 . S
C708 C710 1.327 . S
C708 H733 0.950 . S
C709 C708 1.349 . S
C709 C725 1.349 . S
C710 C708 1.327 . S
C710 C729 1.429 . S
C710 H734 0.950 . S
C711 C728 1.574 . S
C711 C730 1.368 . S
C711 H735 0.949 . S
H712 C716 0.949 . S
C713 C714 1.349 . S
C713 C715 1.327 . S
C713 H736 0.950 . S
C714 C713 1.349 . S
C714 C726 1.349 . S
C715 C713 1.327 . S
C715 C731 1.429 . S
C715 H737 0.950 . S
C716 H712 0.949 . S
C716 C724 1.574 . S
C716 C732 1.368 . S
H717 C725 0.950 . S
H718 C723 0.950 . S
H719 C724 0.949 . S
H720 C726 0.950 . S
H721 C727 0.950 . S
H722 C728 0.949 . S
C723 H718 0.950 . S
C723 C725 1.327 . S
C723 C729 1.429 . S
C724 C716 1.574 . S
C724 H719 0.949 . S
C724 C730 1.368 . S
C725 C709 1.349 . S
C725 H717 0.950 . S
C725 C723 1.327 . S
C726 C714 1.349 . S
C726 H720 0.950 . S
C726 C727 1.327 . S
C727 H721 0.950 . S
C727 C726 1.327 . S
C727 C731 1.429 . S
C728 C711 1.574 . S
C728 H722 0.949 . S
C728 C732 1.368 . S
C729 C710 1.429 . S
C729 C723 1.429 . S
C729 C730 1.523 . S
C730 C711 1.368 . S
C730 C724 1.368 . S
C730 C729 1.523 . S
C731 C715 1.429 . S
C731 C727 1.429 . S
C731 C732 1.523 . S
C732 C716 1.368 . S
C732 C728 1.368 . S
C732 C731 1.523 . S
H733 C708 0.950 . S
H734 C710 0.950 . S
H735 C711 0.949 . S
H736 C713 0.950 . S
H737 C715 0.950 . S
C738 C739 1.349 . S
C738 C740 1.327 . S
C738 H763 0.950 . S
C739 C738 1.349 . S
C739 C755 1.349 . S
C740 C738 1.327 . S
C740 C759 1.429 . S
C740 H764 0.950 . S
C741 C758 1.574 . S
C741 C760 1.368 . S
C741 H765 0.949 . S
H742 C746 0.949 . S
C743 C744 1.349 . S
C743 C745 1.327 . S
C743 H766 0.950 . S
C744 C743 1.349 . S
C744 C756 1.349 . S
C745 C743 1.327 . S
C745 C761 1.429 . S
C745 H767 0.950 . S
C746 H742 0.949 . S
C746 C754 1.574 . S
C746 C762 1.368 . S
H747 C755 0.950 . S
H748 C753 0.950 . S
H749 C754 0.949 . S
H750 C756 0.950 . S
H751 C757 0.950 . S
H752 C758 0.949 . S
C753 H748 0.950 . S
C753 C755 1.327 . S
C753 C759 1.429 . S
C754 C746 1.574 . S
C754 H749 0.949 . S
C754 C760 1.368 . S
C755 C739 1.349 . S
C755 H747 0.950 . S
C755 C753 1.327 . S
C756 C744 1.349 . S
C756 H750 0.950 . S
C756 C757 1.327 . S
C757 H751 0.950 . S
C757 C756 1.327 . S
C757 C761 1.429 . S
C758 C741 1.574 . S
C758 H752 0.949 . S
C758 C762 1.368 . S
C759 C740 1.429 . S
C759 C753 1.429 . S
C759 C760 1.523 . S
C760 C741 1.368 . S
C760 C754 1.368 . S
C760 C759 1.523 . S
C761 C745 1.429 . S
C761 C757 1.429 . S
C761 C762 1.523 . S
C762 C746 1.368 . S
C762 C758 1.368 . S
C762 C761 1.523 . S
H763 C738 0.950 . S
H764 C740 0.950 . S
H765 C741 0.949 . S
H766 C743 0.950 . S
H767 C745 0.950 . S
C768 C769 1.349 . S
C768 C770 1.327 . S
C768 H793 0.950 . S
C769 C768 1.349 . S
C769 C785 1.349 . S
C770 C768 1.327 . S
C770 C789 1.429 . S
C770 H794 0.950 . S
C771 C788 1.574 . S
C771 C790 1.368 . S
C771 H795 0.949 . S
H772 C776 0.949 . S
C773 C774 1.349 . S
C773 C775 1.327 . S
C773 H796 0.950 . S
C774 C773 1.349 . S
C774 C786 1.349 . S
C775 C773 1.327 . S
C775 C791 1.429 . S
C775 H797 0.948 1_456 S
C776 H772 0.949 . S
C776 C784 1.574 . S
C776 C792 1.368 . S
H777 C785 0.950 . S
H778 C783 0.950 . S
H779 C784 0.949 . S
H780 C786 0.950 . S
H781 C787 0.950 . S
H782 C788 0.949 . S
C783 H778 0.950 . S
C783 C785 1.327 . S
C783 C789 1.429 . S
C784 C776 1.574 . S
C784 H779 0.949 . S
C784 C790 1.368 1_556 S
C785 C769 1.349 . S
C785 H777 0.950 . S
C785 C783 1.327 . S
C786 C774 1.349 . S
C786 H780 0.950 . S
C786 C787 1.327 . S
C787 H781 0.950 . S
C787 C786 1.327 . S
C787 C791 1.429 . S
C788 C771 1.574 . S
C788 H782 0.949 . S
C788 C792 1.368 1_554 S
C789 C770 1.429 . S
C789 C783 1.429 . S
C789 C790 1.523 . S
C790 C771 1.368 . S
C790 C784 1.368 1_554 S
C790 C789 1.523 . S
C791 C775 1.429 . S
C791 C787 1.429 . S
C791 C792 1.522 1_455 S
C792 C776 1.368 . S
C792 C788 1.368 1_556 S
C792 C791 1.522 1_655 S
H793 C768 0.950 . S
H794 C770 0.950 . S
H795 C771 0.949 . S
H796 C773 0.950 . S
H797 C775 0.948 1_654 S
C798 C799 1.349 . S
C798 C800 1.327 . S
C798 H823 0.950 . S
C799 C798 1.349 . S
C799 C815 1.349 . S
C800 C798 1.327 . S
C800 C819 1.429 . S
C800 H824 0.950 . S
C801 C818 1.574 1_554 S
C801 C820 1.368 1_545 S
C801 H825 0.949 . S
H802 C806 0.949 . S
C803 C804 1.349 . S
C803 C805 1.327 . S
C803 H826 0.950 . S
C804 C803 1.349 . S
C804 C816 1.349 1_545 S
C805 C803 1.327 . S
C805 C821 1.429 . S
C805 H827 0.950 . S
C806 H802 0.949 . S
C806 C814 1.574 . S
C806 C822 1.368 1_554 S
H807 C815 0.950 . S
H808 C813 0.950 1_545 S
H809 C814 0.949 . S
H810 C816 0.950 . S
H811 C817 0.950 . S
H812 C818 0.949 . S
C813 H808 0.950 1_565 S
C813 C815 1.327 . S
C813 C819 1.429 . S
C814 C806 1.574 . S
C814 H809 0.949 . S
C814 C820 1.368 . S
C815 C799 1.349 . S
C815 H807 0.950 . S
C815 C813 1.327 . S
C816 C804 1.349 1_565 S
C816 H810 0.950 . S
C816 C817 1.327 . S
C817 H811 0.950 . S
C817 C816 1.327 . S
C817 C821 1.429 1_565 S
C818 C801 1.574 1_556 S
C818 H812 0.949 . S
C818 C822 1.368 1_545 S
C819 C800 1.429 . S
C819 C813 1.429 . S
C819 C820 1.523 . S
C820 C801 1.368 1_565 S
C820 C814 1.368 . S
C820 C819 1.523 . S
C821 C805 1.429 . S
C821 C817 1.429 1_545 S
C821 C822 1.523 1_545 S
C822 C806 1.368 1_556 S
C822 C818 1.368 1_565 S
C822 C821 1.523 1_565 S
H823 C798 0.950 . S
H824 C800 0.950 . S
H825 C801 0.949 . S
H826 C803 0.950 . S
H827 C805 0.950 . S
C828 C829 1.349 . S
C828 C830 1.327 . S
C828 H853 0.950 . S
C829 C828 1.349 . S
C829 C845 1.349 . S
C830 C828 1.327 . S
C830 C849 1.429 . S
C830 H854 0.950 . S
C831 C848 1.574 . S
C831 C850 1.368 . S
C831 H855 0.949 . S
H832 C836 0.949 . S
C833 C834 1.349 . S
C833 C835 1.327 . S
C833 H856 0.950 . S
C834 C833 1.349 . S
C834 C846 1.349 . S
C835 C833 1.327 . S
C835 C851 1.429 . S
C835 H857 0.950 . S
C836 H832 0.949 . S
C836 C844 1.574 1_556 S
C836 C852 1.368 . S
H837 C845 0.950 . S
H838 C843 0.950 . S
H839 C844 0.949 . S
H840 C846 0.950 . S
H841 C847 0.950 . S
H842 C848 0.949 . S
C843 H838 0.950 . S
C843 C845 1.327 . S
C843 C849 1.429 . S
C844 C836 1.574 1_554 S
C844 H839 0.949 . S
C844 C850 1.368 . S
C845 C829 1.349 . S
C845 H837 0.950 . S
C845 C843 1.327 . S
C846 C834 1.349 . S
C846 H840 0.950 . S
C846 C847 1.327 . S
C847 H841 0.950 . S
C847 C846 1.327 . S
C847 C851 1.429 . S
C848 C831 1.574 . S
C848 H842 0.949 . S
C848 C852 1.368 1_554 S
C849 C830 1.429 . S
C849 C843 1.429 . S
C849 C850 1.523 . S
C850 C831 1.368 . S
C850 C844 1.368 . S
C850 C849 1.523 . S
C851 C835 1.429 . S
C851 C847 1.429 . S
C851 C852 1.523 . S
C852 C836 1.368 . S
C852 C848 1.368 1_556 S
C852 C851 1.523 . S
H853 C828 0.950 . S
H854 C830 0.950 . S
H855 C831 0.949 . S
H856 C833 0.950 . S
H857 C835 0.950 . S
C858 C859 1.349 . S
C858 C860 1.327 . S
C858 H883 0.950 . S
C859 C858 1.349 . S
C859 C875 1.349 . S
C860 C858 1.327 . S
C860 C879 1.429 . S
C860 H884 0.950 . S
C861 C878 1.574 1_554 S
C861 C880 1.368 . S
C861 H885 0.949 . S
H862 C866 0.949 1_556 S
C863 C864 1.349 . S
C863 C865 1.327 . S
C863 H886 0.950 . S
C864 C863 1.349 . S
C864 C876 1.349 . S
C865 C863 1.327 . S
C865 C881 1.429 . S
C865 H887 0.950 . S
C866 H862 0.949 1_554 S
C866 C874 1.574 . S
C866 C882 1.368 1_554 S
H867 C875 0.950 . S
H868 C873 0.950 . S
H869 C874 0.949 . S
H870 C876 0.950 . S
H871 C877 0.950 . S
H872 C878 0.949 . S
C873 H868 0.950 . S
C873 C875 1.327 . S
C873 C879 1.429 . S
C874 C866 1.574 . S
C874 H869 0.949 . S
C874 C880 1.368 . S
C875 C859 1.349 . S
C875 H867 0.950 . S
C875 C873 1.327 . S
C876 C864 1.349 . S
C876 H870 0.950 . S
C876 C877 1.327 . S
C877 H871 0.950 . S
C877 C876 1.327 . S
C877 C881 1.429 . S
C878 C861 1.574 1_556 S
C878 H872 0.949 . S
C878 C882 1.368 . S
C879 C860 1.429 . S
C879 C873 1.429 . S
C879 C880 1.523 . S
C880 C861 1.368 . S
C880 C874 1.368 . S
C880 C879 1.523 . S
C881 C865 1.429 . S
C881 C877 1.429 . S
C881 C882 1.523 . S
C882 C866 1.368 1_556 S
C882 C878 1.368 . S
C882 C881 1.523 . S
H883 C858 0.950 . S
H884 C860 0.950 . S
H885 C861 0.949 . S
H886 C863 0.950 . S
H887 C865 0.950 . S
C888 C889 1.349 . S
C888 C890 1.327 . S
C888 H913 0.950 . S
C889 C888 1.349 . S
C889 C905 1.349 . S
C890 C888 1.327 . S
C890 C909 1.429 . S
C890 H914 0.950 . S
C891 C908 1.574 . S
C891 C910 1.368 . S
C891 H915 0.949 . S
H892 C896 0.949 . S
C893 C894 1.349 . S
C893 C895 1.327 . S
C893 H916 0.950 . S
C894 C893 1.349 . S
C894 C906 1.349 . S
C895 C893 1.327 . S
C895 C911 1.429 . S
C895 H917 0.950 . S
C896 H892 0.949 . S
C896 C904 1.574 . S
C896 C912 1.368 . S
H897 C905 0.950 . S
H898 C903 0.950 . S
H899 C904 0.949 . S
H900 C906 0.950 1_655 S
H901 C907 0.950 . S
H902 C908 0.949 . S
C903 H898 0.950 . S
C903 C905 1.327 . S
C903 C909 1.429 . S
C904 C896 1.574 . S
C904 H899 0.949 . S
C904 C910 1.368 . S
C905 C889 1.349 . S
C905 H897 0.950 . S
C905 C903 1.327 . S
C906 C894 1.349 . S
C906 H900 0.950 1_455 S
C906 C907 1.327 . S
C907 H901 0.950 . S
C907 C906 1.327 . S
C907 C911 1.429 . S
C908 C891 1.574 . S
C908 H902 0.949 . S
C908 C912 1.368 . S
C909 C890 1.429 . S
C909 C903 1.429 . S
C909 C910 1.523 . S
C910 C891 1.368 . S
C910 C904 1.368 . S
C910 C909 1.523 . S
C911 C895 1.429 . S
C911 C907 1.429 . S
C911 C912 1.523 . S
C912 C896 1.368 . S
C912 C908 1.368 . S
C912 C911 1.523 . S
H913 C888 0.950 . S
H914 C890 0.950 . S
H915 C891 0.949 . S
H916 C893 0.950 . S
H917 C895 0.950 . S
C918 C919 1.349 . S
C918 C920 1.327 . S
C918 H943 0.950 . S
C919 C918 1.349 . S
C919 C935 1.349 . S
C920 C918 1.327 . S
C920 C939 1.429 . S
C920 H944 0.950 . S
C921 C938 1.574 . S
C921 C940 1.368 . S
C921 H945 0.949 . S
H922 C926 0.949 . S
C923 C924 1.349 . S
C923 C925 1.327 . S
C923 H946 0.950 1_545 S
C924 C923 1.349 . S
C924 C936 1.349 . S
C925 C923 1.327 . S
C925 C941 1.429 . S
C925 H947 0.950 1_545 S
C926 H922 0.949 . S
C926 C934 1.574 . S
C926 C942 1.368 . S
H927 C935 0.950 . S
H928 C933 0.950 . S
H929 C934 0.949 . S
H930 C936 0.950 . S
H931 C937 0.950 . S
H932 C938 0.949 . S
C933 H928 0.950 . S
C933 C935 1.327 . S
C933 C939 1.429 . S
C934 C926 1.574 . S
C934 H929 0.949 . S
C934 C940 1.368 . S
C935 C919 1.349 . S
C935 H927 0.950 . S
C935 C933 1.327 . S
C936 C924 1.349 . S
C936 H930 0.950 . S
C936 C937 1.327 . S
C937 H931 0.950 . S
C937 C936 1.327 . S
C937 C941 1.429 . S
C938 C921 1.574 . S
C938 H932 0.949 . S
C938 C942 1.368 . S
C939 C920 1.429 . S
C939 C933 1.429 . S
C939 C940 1.523 . S
C940 C921 1.368 . S
C940 C934 1.368 . S
C940 C939 1.523 . S
C941 C925 1.429 . S
C941 C937 1.429 . S
C941 C942 1.523 . S
C942 C926 1.368 . S
C942 C938 1.368 . S
C942 C941 1.523 . S
H943 C918 0.950 . S
H944 C920 0.950 . S
H945 C921 0.949 . S
H946 C923 0.950 1_565 S
H947 C925 0.950 1_565 S
C948 C949 1.349 . S
C948 C950 1.327 . S
C948 H973 0.950 . S
C949 C948 1.349 . S
C949 C965 1.349 . S
C950 C948 1.327 . S
C950 C969 1.429 . S
C950 H974 0.950 . S
C951 C968 1.574 . S
C951 C970 1.368 . S
C951 H975 0.949 . S
H952 C956 0.949 . S
C953 C954 1.349 . S
C953 C955 1.327 . S
C953 H976 0.950 . S
C954 C953 1.349 . S
C954 C966 1.349 . S
C955 C953 1.327 . S
C955 C971 1.429 . S
C955 H977 0.950 . S
C956 H952 0.949 . S
C956 C964 1.574 . S
C956 C972 1.368 . S
H957 C965 0.950 . S
H958 C963 0.950 . S
H959 C964 0.949 . S
H960 C966 0.950 . S
H961 C967 0.950 . S
H962 C968 0.949 . S
C963 H958 0.950 . S
C963 C965 1.327 . S
C963 C969 1.429 . S
C964 C956 1.574 . S
C964 H959 0.949 . S
C964 C970 1.368 . S
C965 C949 1.349 . S
C965 H957 0.950 . S
C965 C963 1.327 . S
C966 C954 1.349 . S
C966 H960 0.950 . S
C966 C967 1.327 . S
C967 H961 0.950 . S
C967 C966 1.327 . S
C967 C971 1.429 . S
C968 C951 1.574 . S
C968 H962 0.949 . S
C968 C972 1.368 . S
C969 C950 1.429 . S
C969 C963 1.429 . S
C969 C970 1.523 . S
C970 C951 1.368 . S
C970 C964 1.368 . S
C970 C969 1.523 . S
C971 C955 1.429 . S
C971 C967 1.429 . S
C971 C972 1.523 . S
C972 C956 1.368 . S
C972 C968 1.368 . S
C972 C971 1.523 . S
H973 C948 0.950 . S
H974 C950 0.950 . S
H975 C951 0.949 . S
H976 C953 0.950 . S
H977 C955 0.950 . S
C978 C979 1.349 . S
C978 C980 1.327 . S
C978 H1003 0.950 . S
C979 C978 1.349 . S
C979 C995 1.349 . S
C980 C978 1.327 . S
C980 C999 1.429 . S
C980 H1004 0.950 . S
C981 C998 1.574 . S
C981 C1000 1.368 . S
C981 H1005 0.949 . S
H982 C986 0.949 . S
C983 C984 1.349 . S
C983 C985 1.327 . S
C983 H1006 0.950 . S
C984 C983 1.349 . S
C984 C996 1.349 . S
C985 C983 1.327 . S
C985 C1001 1.429 . S
C985 H1007 0.950 . S
C986 H982 0.949 . S
C986 C994 1.574 . S
C986 C1002 1.368 . S
H987 C995 0.950 . S
H988 C993 0.950 . S
H989 C994 0.949 . S
H990 C996 0.950 . S
H991 C997 0.950 . S
H992 C998 0.949 . S
C993 H988 0.950 . S
C993 C995 1.327 . S
C993 C999 1.429 . S
C994 C986 1.574 . S
C994 H989 0.949 . S
C994 C1000 1.368 . S
C995 C979 1.349 . S
C995 H987 0.950 . S
C995 C993 1.327 . S
C996 C984 1.349 . S
C996 H990 0.950 . S
C996 C997 1.327 . S
C997 H991 0.950 . S
C997 C996 1.327 . S
C997 C1001 1.429 . S
C998 C981 1.574 . S
C998 H992 0.949 . S
C998 C1002 1.368 . S
C999 C980 1.429 . S
C999 C993 1.429 . S
C999 C1000 1.523 . S
C1000 C981 1.368 . S
C1000 C994 1.368 . S
C1000 C999 1.523 . S
C1001 C985 1.429 . S
C1001 C997 1.429 . S
C1001 C1002 1.523 . S
C1002 C986 1.368 . S
C1002 C998 1.368 . S
C1002 C1001 1.523 . S
H1003 C978 0.950 . S
H1004 C980 0.950 . S
H1005 C981 0.949 . S
H1006 C983 0.950 . S
H1007 C985 0.950 . S
C1008 C1009 1.349 . S
C1008 C1010 1.327 . S
C1008 H1033 0.950 . S
C1009 C1008 1.349 . S
C1009 C1025 1.349 . S
C1010 C1008 1.327 . S
C1010 C1029 1.429 . S
C1010 H1034 0.950 . S
C1011 C1028 1.574 . S
C1011 C1030 1.368 . S
C1011 H1035 0.950 . S
H1012 C1016 0.949 . S
C1013 C1014 1.349 1_455 S
C1013 C1015 1.325 1_455 S
C1013 H1036 0.950 . S
C1014 C1013 1.349 1_655 S
C1014 C1026 1.349 . S
C1015 C1013 1.325 1_655 S
C1015 C1031 1.451 . S
C1015 H1037 0.930 1_655 S
C1016 H1012 0.949 . S
C1016 C1024 1.574 . S
C1016 C1032 1.368 . S
H1017 C1025 0.950 . S
H1018 C1023 0.950 . S
H1019 C1024 0.949 . S
H1020 C1026 0.950 . S
H1021 C1027 0.950 . S
H1022 C1028 0.949 1_455 S
C1023 H1018 0.950 . S
C1023 C1025 1.327 . S
C1023 C1029 1.429 . S
C1024 C1016 1.574 . S
C1024 H1019 0.949 . S
C1024 C1030 1.368 . S
C1025 C1009 1.349 . S
C1025 H1017 0.950 . S
C1025 C1023 1.327 . S
C1026 C1014 1.349 . S
C1026 H1020 0.950 . S
C1026 C1027 1.327 . S
C1027 H1021 0.950 . S
C1027 C1026 1.327 . S
C1027 C1031 1.429 . S
C1028 C1011 1.574 . S
C1028 H1022 0.949 1_655 S
C1028 C1032 1.368 . S
C1029 C1010 1.429 . S
C1029 C1023 1.429 . S
C1029 C1030 1.523 . S
C1030 C1011 1.368 . S
C1030 C1024 1.368 . S
C1030 C1029 1.523 . S
C1031 C1015 1.451 . S
C1031 C1027 1.429 . S
C1031 C1032 1.523 . S
C1032 C1016 1.368 . S
C1032 C1028 1.368 . S
C1032 C1031 1.523 . S
H1033 C1008 0.950 . S
H1034 C1010 0.950 . S
H1035 C1011 0.950 . S
H1036 C1013 0.950 . S
H1037 C1015 0.930 1_455 S
C1038 C1039 1.349 . S
C1038 C1040 1.327 . S
C1038 H1063 0.950 . S
C1039 C1038 1.349 . S
C1039 C1055 1.349 . S
C1040 C1038 1.327 . S
C1040 C1059 1.429 . S
C1040 H1064 0.950 . S
C1041 C1058 1.573 1_565 S
C1041 C1060 1.371 . S
C1041 H1065 0.947 1_565 S
H1042 C1046 0.949 . S
C1043 C1044 1.349 1_545 S
C1043 C1045 1.327 . S
C1043 H1066 0.950 . S
C1044 C1043 1.349 1_565 S
C1044 C1056 1.349 . S
C1045 C1043 1.327 . S
C1045 C1061 1.429 1_545 S
C1045 H1067 0.950 . S
C1046 H1042 0.949 . S
C1046 C1054 1.574 . S
C1046 C1062 1.368 . S
H1047 C1055 0.950 1_545 S
H1048 C1053 0.950 1_545 S
H1049 C1054 0.949 . S
H1050 C1056 0.950 . S
H1051 C1057 0.950 . S
H1052 C1058 0.949 . S
C1053 H1048 0.950 1_565 S
C1053 C1055 1.327 . S
C1053 C1059 1.429 . S
C1054 C1046 1.574 . S
C1054 H1049 0.949 . S
C1054 C1060 1.368 . S
C1055 C1039 1.349 . S
C1055 H1047 0.950 1_565 S
C1055 C1053 1.327 . S
C1056 C1044 1.349 . S
C1056 H1050 0.950 . S
C1056 C1057 1.327 . S
C1057 H1051 0.950 . S
C1057 C1056 1.327 . S
C1057 C1061 1.429 . S
C1058 C1041 1.573 1_545 S
C1058 H1052 0.949 . S
C1058 C1062 1.368 1_545 S
C1059 C1040 1.429 . S
C1059 C1053 1.429 . S
C1059 C1060 1.523 . S
C1060 C1041 1.371 . S
C1060 C1054 1.368 . S
C1060 C1059 1.523 . S
C1061 C1045 1.429 1_565 S
C1061 C1057 1.429 . S
C1061 C1062 1.523 . S
C1062 C1046 1.368 . S
C1062 C1058 1.368 1_565 S
C1062 C1061 1.523 . S
H1063 C1038 0.950 . S
H1064 C1040 0.950 . S
H1065 C1041 0.947 1_545 S
H1066 C1043 0.950 . S
H1067 C1045 0.950 . S
C1068 C1069 1.349 . S
C1068 C1070 1.327 . S
C1068 H1093 0.950 . S
C1069 C1068 1.349 . S
C1069 C1085 1.349 . S
C1070 C1068 1.327 . S
C1070 C1089 1.429 . S
C1070 H1094 0.950 . S
C1071 C1088 1.574 . S
C1071 C1090 1.368 . S
C1071 H1095 0.949 . S
H1072 C1076 0.949 . S
C1073 C1074 1.349 . S
C1073 C1075 1.327 . S
C1073 H1096 0.950 . S
C1074 C1073 1.349 . S
C1074 C1086 1.349 . S
C1075 C1073 1.327 . S
C1075 C1091 1.429 . S
C1075 H1097 0.950 . S
C1076 H1072 0.949 . S
C1076 C1084 1.574 . S
C1076 C1092 1.368 . S
H1077 C1085 0.950 . S
H1078 C1083 0.950 . S
H1079 C1084 0.949 . S
H1080 C1086 0.950 . S
H1081 C1087 0.950 . S
H1082 C1088 0.949 . S
C1083 H1078 0.950 . S
C1083 C1085 1.327 . S
C1083 C1089 1.429 . S
C1084 C1076 1.574 . S
C1084 H1079 0.949 . S
C1084 C1090 1.368 . S
C1085 C1069 1.349 . S
C1085 H1077 0.950 . S
C1085 C1083 1.327 . S
C1086 C1074 1.349 . S
C1086 H1080 0.950 . S
C1086 C1087 1.327 . S
C1087 H1081 0.950 . S
C1087 C1086 1.327 . S
C1087 C1091 1.429 . S
C1088 C1071 1.574 . S
C1088 H1082 0.949 . S
C1088 C1092 1.368 . S
C1089 C1070 1.429 . S
C1089 C1083 1.429 . S
C1089 C1090 1.523 . S
C1090 C1071 1.368 . S
C1090 C1084 1.368 . S
C1090 C1089 1.523 . S
C1091 C1075 1.429 . S
C1091 C1087 1.429 . S
C1091 C1092 1.523 . S
C1092 C1076 1.368 . S
C1092 C1088 1.368 . S
C1092 C1091 1.523 . S
H1093 C1068 0.950 . S
H1094 C1070 0.950 . S
H1095 C1071 0.949 . S
H1096 C1073 0.950 . S
H1097 C1075 0.950 . S
C1098 C1099 1.349 . S
C1098 C1100 1.327 . S
C1098 H1123 0.950 . S
C1099 C1098 1.349 . S
C1099 C1115 1.349 . S
C1100 C1098 1.327 . S
C1100 C1119 1.429 . S
C1100 H1124 0.950 . S
C1101 C1118 1.574 . S
C1101 C1120 1.368 . S
C1101 H1125 0.949 . S
H1102 C1106 0.949 . S
C1103 C1104 1.349 . S
C1103 C1105 1.327 . S
C1103 H1126 0.950 . S
C1104 C1103 1.349 . S
C1104 C1116 1.349 . S
C1105 C1103 1.327 . S
C1105 C1121 1.429 . S
C1105 H1127 0.950 . S
C1106 H1102 0.949 . S
C1106 C1114 1.574 . S
C1106 C1122 1.368 . S
H1107 C1115 0.950 . S
H1108 C1113 0.950 . S
H1109 C1114 0.949 . S
H1110 C1116 0.950 . S
H1111 C1117 0.950 . S
H1112 C1118 0.949 . S
C1113 H1108 0.950 . S
C1113 C1115 1.327 . S
C1113 C1119 1.429 . S
C1114 C1106 1.574 . S
C1114 H1109 0.949 . S
C1114 C1120 1.368 . S
C1115 C1099 1.349 . S
C1115 H1107 0.950 . S
C1115 C1113 1.327 . S
C1116 C1104 1.349 . S
C1116 H1110 0.950 . S
C1116 C1117 1.327 . S
C1117 H1111 0.950 . S
C1117 C1116 1.327 . S
C1117 C1121 1.429 . S
C1118 C1101 1.574 . S
C1118 H1112 0.949 . S
C1118 C1122 1.368 . S
C1119 C1100 1.429 . S
C1119 C1113 1.429 . S
C1119 C1120 1.523 . S
C1120 C1101 1.368 . S
C1120 C1114 1.368 . S
C1120 C1119 1.523 . S
C1121 C1105 1.429 . S
C1121 C1117 1.429 . S
C1121 C1122 1.523 . S
C1122 C1106 1.368 . S
C1122 C1118 1.368 . S
C1122 C1121 1.523 . S
H1123 C1098 0.950 . S
H1124 C1100 0.950 . S
H1125 C1101 0.949 . S
H1126 C1103 0.950 . S
H1127 C1105 0.950 . S
C409 C61 1.742 . S
C414 C140 1.826 . S
C444 C223 1.845 . S
C439 C70 1.761 . S
C474 C308 1.814 . S
C469 C43 1.729 . S
C504 C392 1.805 . S
C499 C52 1.721 . S
C534 C128 1.824 1_565 S
C529 C25 1.744 . S
C559 C34 1.759 . S
C564 C211 1.846 . S
C589 C7 1.731 . S
C594 C296 1.814 . S
C619 C16 1.723 . S
C624 C380 1.805 1_655 S
C654 C130 0.460 . S
C649 C50 0.338 . S
C684 C226 0.547 . S
C679 C59 0.309 . S
C714 C298 0.458 . S
C709 C67 0.334 . S
C739 C41 0.326 . S
C744 C382 0.452 . S
C769 C14 0.325 . S
C774 C142 0.460 . S
C804 C214 0.547 . S
C799 C23 0.293 . S
C834 C310 0.458 . S
C829 C31 0.341 . S
C859 C5 0.312 . S
C864 C394 0.452 . S
C889 C49 1.786 . S
C894 C127 1.952 . S
C919 C58 1.773 . S
C924 C212 1.923 . S
C954 C295 1.970 . S
C949 C68 1.802 . S
C984 C379 1.975 . S
C979 C40 1.808 . S
C1009 C13 1.788 . S
C1014 C139 1.952 . S
C1044 C224 1.925 . S
C1039 C22 1.776 . S
C1074 C307 1.970 . S
C1069 C32 1.799 . S
C1099 C4 1.810 . S
C1104 C391 1.976 . S
