# Generated by pormake.
# Topology nom, (4,4)-cn, num edge types: 1
# Building blocks:
#     Node 0, Type 0, BuildingBlock: AZAVOO_clean_linker_0, # of connection points: 4
#     Node 1, Type 0, BuildingBlock: AZAVOO_clean_linker_0, # of connection points: 4
#     Node 2, Type 0, BuildingBlock: AZAVOO_clean_linker_0, # of connection points: 4
#     Node 3, Type 0, BuildingBlock: AZAVOO_clean_linker_0, # of connection points: 4
#     Node 4, Type 0, BuildingBlock: AZAVOO_clean_linker_0, # of connection points: 4
#     Node 5, Type 0, BuildingBlock: AZAVOO_clean_linker_0, # of connection points: 4
#     Node 6, Type 1, BuildingBlock: GALJAG_clean_sbu_0, # of connection points: 4
#     Node 7, Type 1, BuildingBlock: GALJAG_clean_sbu_0, # of connection points: 4
#     Node 8, Type 1, BuildingBlock: GALJAG_clean_sbu_0, # of connection points: 4
#     Node 9, Type 1, BuildingBlock: GALJAG_clean_sbu_0, # of connection points: 4
#     Node 10, Type 1, BuildingBlock: GALJAG_clean_sbu_0, # of connection points: 4
#     Node 11, Type 1, BuildingBlock: GALJAG_clean_sbu_0, # of connection points: 4
#     Edge 12, Type (0, 1), BuildingBlock: MIFKUJ_clean_linker_0, # of connection points: 2
#     Edge 13, Type (0, 1), BuildingBlock: MIFKUJ_clean_linker_0, # of connection points: 2
#     Edge 14, Type (0, 1), BuildingBlock: MIFKUJ_clean_linker_0, # of connection points: 2
#     Edge 15, Type (0, 1), BuildingBlock: MIFKUJ_clean_linker_0, # of connection points: 2
#     Edge 16, Type (0, 1), BuildingBlock: MIFKUJ_clean_linker_0, # of connection points: 2
#     Edge 17, Type (0, 1), BuildingBlock: MIFKUJ_clean_linker_0, # of connection points: 2
#     Edge 18, Type (0, 1), BuildingBlock: MIFKUJ_clean_linker_0, # of connection points: 2
#     Edge 19, Type (0, 1), BuildingBlock: MIFKUJ_clean_linker_0, # of connection points: 2
#     Edge 20, Type (0, 1), BuildingBlock: MIFKUJ_clean_linker_0, # of connection points: 2
#     Edge 21, Type (0, 1), BuildingBlock: MIFKUJ_clean_linker_0, # of connection points: 2
#     Edge 22, Type (0, 1), BuildingBlock: MIFKUJ_clean_linker_0, # of connection points: 2
#     Edge 23, Type (0, 1), BuildingBlock: MIFKUJ_clean_linker_0, # of connection points: 2
#     Edge 24, Type (0, 1), BuildingBlock: MIFKUJ_clean_linker_0, # of connection points: 2
#     Edge 25, Type (0, 1), BuildingBlock: MIFKUJ_clean_linker_0, # of connection points: 2
#     Edge 26, Type (0, 1), BuildingBlock: MIFKUJ_clean_linker_0, # of connection points: 2
#     Edge 27, Type (0, 1), BuildingBlock: MIFKUJ_clean_linker_0, # of connection points: 2
#     Edge 28, Type (0, 1), BuildingBlock: MIFKUJ_clean_linker_0, # of connection points: 2
#     Edge 29, Type (0, 1), BuildingBlock: MIFKUJ_clean_linker_0, # of connection points: 2
#     Edge 30, Type (0, 1), BuildingBlock: MIFKUJ_clean_linker_0, # of connection points: 2
#     Edge 31, Type (0, 1), BuildingBlock: MIFKUJ_clean_linker_0, # of connection points: 2
#     Edge 32, Type (0, 1), BuildingBlock: MIFKUJ_clean_linker_0, # of connection points: 2
#     Edge 33, Type (0, 1), BuildingBlock: MIFKUJ_clean_linker_0, # of connection points: 2
#     Edge 34, Type (0, 1), BuildingBlock: MIFKUJ_clean_linker_0, # of connection points: 2
#     Edge 35, Type (0, 1), BuildingBlock: MIFKUJ_clean_linker_0, # of connection points: 2
# Relax obj value: 0.106
# Max RMSD: 0.222
# Mean RMSD: 0.142
data_MOF--net-nom--node1-GALJAG_clean_sbu_0--node2-AZAVOO_clean_linker_0--edge1-MIFKUJ_clean_linker_0
_symmetry_space_group_name_H-M    P1
_symmetry_Int_Tables_number       1
_symmetry_cell_setting            triclinic
loop_
_symmetry_equiv_pos_as_xyz
'x, y, z'
_cell_length_a     59.726124
_cell_length_b     61.191919
_cell_length_c     76.992471
_cell_angle_alpha  90.109988
_cell_angle_beta   89.886914
_cell_angle_gamma 121.4345
loop_
_atom_site_label
_atom_site_type_symbol
_atom_site_fract_x
_atom_site_fract_y
_atom_site_fract_z
_atom_type_partial_charge
H0 H 0.06489 0.54424 0.20996 0.0
H1 H 0.19014 0.69472 0.37962 0.0
H2 H 0.01079 0.52344 0.29788 0.0
H3 H 0.98142 0.49931 0.27388 0.0
H4 H 0.96027 0.5566 0.26899 0.0
H5 H 0.98983 0.58073 0.29312 0.0
H6 H 0.07026 0.55598 0.28555 0.0
H7 H 0.07195 0.54728 0.25468 0.0
H8 H 0.03823 0.5929 0.24187 0.0
H9 H 0.03703 0.60175 0.27275 0.0
H10 H 0.11513 0.59242 0.31557 0.0
H11 H 0.1594 0.61861 0.30378 0.0
H12 H 0.13392 0.66117 0.27341 0.0
H13 H 0.09044 0.63628 0.2864 0.0
H14 H 0.09001 0.58231 0.35247 0.0
H15 H 0.12782 0.60667 0.37161 0.0
H16 H 0.14267 0.67708 0.34794 0.0
H17 H 0.10457 0.65249 0.32905 0.0
H18 H 0.02689 0.54962 0.3585 0.0
H19 H 0.03267 0.55211 0.39001 0.0
H20 H 0.06624 0.63403 0.38779 0.0
H21 H 0.0593 0.63112 0.3564 0.0
H22 H 0.98075 0.52707 0.33162 0.0
H23 H 0.9375 0.51572 0.34301 0.0
H24 H 0.96427 0.59614 0.34752 0.0
H25 H 0.00693 0.60719 0.33586 0.0
O26 O 0.06454 0.54833 0.22206 0.0
O27 O 0.04745 0.57222 0.21619 0.0
O28 O 0.16703 0.64784 0.38362 0.0
O29 O 0.1753 0.68462 0.37207 0.0
C30 C 0.02561 0.57135 0.30787 0.0
C31 C 0.05082 0.58322 0.30018 0.0
C32 C 0.07339 0.59847 0.31035 0.0
C33 C 0.07081 0.60082 0.3284 0.0
C34 C 0.04554 0.5893 0.33601 0.0
C35 C 0.02293 0.57547 0.32558 0.0
C36 C 0.00248 0.55383 0.29715 0.0
C37 C -0.00089 0.53031 0.29203 0.0
C38 C 0.98256 0.51671 0.27823 0.0
C39 C 0.96896 0.52634 0.26941 0.0
C40 C 0.9705 0.54874 0.2756 0.0
C41 C 0.98725 0.56247 0.2894 0.0
C42 C 0.05344 0.5794 0.28137 0.0
C43 C 0.06351 0.56428 0.27604 0.0
C44 C 0.06433 0.55925 0.2584 0.0
C45 C 0.0551 0.56929 0.24581 0.0
C46 C 0.04542 0.58481 0.25123 0.0
C47 C 0.0447 0.58988 0.26885 0.0
C48 C 0.09964 0.61262 0.30199 0.0
C49 C 0.11921 0.60749 0.30642 0.0
C50 C 0.14444 0.62231 0.29948 0.0
C51 C 0.1504 0.64219 0.28768 0.0
C52 C 0.13032 0.64647 0.28275 0.0
C53 C 0.10531 0.63203 0.28998 0.0
C54 C 0.09456 0.61564 0.3394 0.0
C55 C 0.10149 0.60299 0.35143 0.0
C56 C 0.1231 0.61695 0.36233 0.0
C57 C 0.13826 0.64385 0.36132 0.0
C58 C 0.13141 0.65641 0.34907 0.0
C59 C 0.10973 0.64242 0.33823 0.0
C60 C 0.04303 0.59024 0.35515 0.0
C61 C 0.03462 0.56795 0.36491 0.0
C62 C 0.03824 0.56947 0.38288 0.0
C63 C 0.05044 0.59334 0.39136 0.0
C64 C 0.0567 0.61533 0.38171 0.0
C65 C 0.05287 0.61374 0.36375 0.0
C66 C 0.99687 0.56794 0.33284 0.0
C67 C 0.97715 0.54215 0.33504 0.0
C68 C 0.95259 0.53574 0.34164 0.0
C69 C 0.94745 0.55506 0.34605 0.0
C70 C 0.96745 0.58083 0.34398 0.0
C71 C 0.99188 0.58718 0.33744 0.0
C72 C 0.05544 0.56345 0.22712 0.0
C73 C 0.16105 0.65879 0.37301 0.0
H74 H 0.48345 0.10609 0.37147 0.0
H75 H 0.49274 0.20735 0.55392 0.0
H76 H 0.48582 0.05027 0.46033 0.0
H77 H 0.48354 0.0195 0.43918 0.0
H78 H 0.39885 0.9808 0.43943 0.0
H79 H 0.40146 0.01221 0.46064 0.0
H80 H 0.49801 0.10052 0.44608 0.0
H81 H 0.49991 0.10648 0.41457 0.0
H82 H 0.41531 0.06888 0.41315 0.0
H83 H 0.41376 0.06329 0.44471 0.0
H84 H 0.51258 0.13604 0.47182 0.0
H85 H 0.52894 0.17817 0.45853 0.0
H86 H 0.4495 0.16177 0.45456 0.0
H87 H 0.43321 0.11933 0.46748 0.0
H88 H 0.5076 0.11885 0.5139 0.0
H89 H 0.52447 0.15549 0.53366 0.0
H90 H 0.45553 0.15973 0.52398 0.0
H91 H 0.43882 0.12296 0.50435 0.0
H92 H 0.48145 0.05486 0.51919 0.0
H93 H 0.48966 0.05518 0.5502 0.0
H94 H 0.43749 0.08297 0.5604 0.0
H95 H 0.4277 0.0804 0.52946 0.0
H96 H 0.46227 0.01709 0.49224 0.0
H97 H 0.44031 0.97361 0.50419 0.0
H98 H 0.3747 0.98053 0.51979 0.0
H99 H 0.39681 0.02388 0.50788 0.0
O100 O 0.48226 0.10358 0.38391 0.0
O101 O 0.43872 0.08397 0.38387 0.0
O102 O 0.52291 0.19166 0.5492 0.0
O103 O 0.48664 0.193 0.54605 0.0
C104 C 0.44628 0.05369 0.47367 0.0
C105 C 0.45461 0.0781 0.46674 0.0
C106 C 0.46199 0.09902 0.47794 0.0
C107 C 0.4616 0.09568 0.49608 0.0
C108 C 0.45232 0.07099 0.50306 0.0
C109 C 0.44382 0.04982 0.4918 0.0
C110 C 0.44382 0.03339 0.46196 0.0
C111 C 0.46676 0.03495 0.45597 0.0
C112 C 0.46539 0.01725 0.44399 0.0
C113 C 0.441 0.99762 0.43771 0.0
C114 C 0.41791 0.99579 0.444 0.0
C115 C 0.41932 0.01357 0.45611 0.0
C116 C 0.45578 0.08172 0.44764 0.0
C117 C 0.47995 0.09377 0.43894 0.0
C118 C 0.48095 0.09706 0.42094 0.0
C119 C 0.45776 0.08821 0.41134 0.0
C120 C 0.43354 0.07597 0.42015 0.0
C121 C 0.43259 0.07275 0.43815 0.0
C122 C 0.47177 0.12477 0.47056 0.0
C123 C 0.49876 0.14158 0.46806 0.0
C124 C 0.50801 0.16547 0.46043 0.0
C125 C 0.49041 0.17304 0.4555 0.0
C126 C 0.4634 0.15632 0.45831 0.0
C127 C 0.45412 0.1322 0.46564 0.0
C128 C 0.47203 0.11831 0.50771 0.0
C129 C 0.49622 0.12777 0.51605 0.0
C130 C 0.5058 0.14869 0.52732 0.0
C131 C 0.49133 0.16054 0.5304 0.0
C132 C 0.46715 0.15106 0.52191 0.0
C133 C 0.4576 0.13013 0.51064 0.0
C134 C 0.45415 0.06783 0.52203 0.0
C135 C 0.47113 0.06021 0.52818 0.0
C136 C 0.4761 0.06077 0.54592 0.0
C137 C 0.46466 0.06957 0.55785 0.0
C138 C 0.44651 0.07586 0.55169 0.0
C139 C 0.4411 0.07471 0.53396 0.0
C140 C 0.431 0.02352 0.49904 0.0
C141 C 0.44308 0.0091 0.49812 0.0
C142 C 0.43051 0.9843 0.50496 0.0
C143 C 0.40575 0.97362 0.51294 0.0
C144 C 0.39389 0.9883 0.51394 0.0
C145 C 0.40641 0.013 0.50706 0.0
C146 C 0.4589 0.09174 0.39222 0.0
C147 C 0.50134 0.18267 0.54244 0.0
H148 H 0.51486 0.50697 0.76301 0.0
H149 H 0.5359 0.42824 0.57578 0.0
H150 H 0.51161 0.56766 0.67556 0.0
H151 H 0.50167 0.58585 0.70049 0.0
H152 H 0.42091 0.52323 0.69899 0.0
H153 H 0.43116 0.50517 0.67383 0.0
H154 H 0.53193 0.53092 0.68886 0.0
H155 H 0.5327 0.52589 0.72036 0.0
H156 H 0.44932 0.47026 0.71967 0.0
H157 H 0.44892 0.47533 0.68815 0.0
H158 H 0.55101 0.51044 0.65958 0.0
H159 H 0.56812 0.48488 0.67142 0.0
H160 H 0.48868 0.42146 0.67909 0.0
H161 H 0.4719 0.44749 0.66768 0.0
H162 H 0.54838 0.52641 0.62199 0.0
H163 H 0.56635 0.50958 0.60089 0.0
H164 H 0.49641 0.43442 0.60587 0.0
H165 H 0.47857 0.45162 0.6268 0.0
H166 H 0.52693 0.56002 0.61667 0.0
H167 H 0.5405 0.56677 0.58631 0.0
H168 H 0.47422 0.49178 0.57365 0.0
H169 H 0.46169 0.48482 0.60432 0.0
H170 H 0.49412 0.57587 0.64434 0.0
H171 H 0.46965 0.59513 0.6335 0.0
H172 H 0.40961 0.52138 0.61366 0.0
H173 H 0.43397 0.50232 0.62467 0.0
O174 O 0.51416 0.50852 0.75055 0.0
O175 O 0.47125 0.48018 0.7495 0.0
O176 O 0.56477 0.47443 0.58196 0.0
O177 O 0.52938 0.43534 0.58421 0.0
C178 C 0.47991 0.52186 0.66066 0.0
C179 C 0.4899 0.50711 0.66727 0.0
C180 C 0.49997 0.4963 0.65585 0.0
C181 C 0.50072 0.50082 0.63786 0.0
C182 C 0.49047 0.51538 0.63128 0.0
C183 C 0.47941 0.52534 0.6426 0.0
C184 C 0.47208 0.5352 0.67297 0.0
C185 C 0.49159 0.55837 0.68026 0.0
C186 C 0.48584 0.56874 0.69446 0.0
C187 C 0.46052 0.55589 0.7017 0.0
C188 C 0.4406 0.53343 0.69368 0.0
C189 C 0.44634 0.52319 0.67931 0.0
C190 C 0.49038 0.50351 0.68629 0.0
C191 C 0.5139 0.51757 0.69555 0.0
C192 C 0.51426 0.5147 0.71353 0.0
C193 C 0.49105 0.49771 0.72254 0.0
C194 C 0.46752 0.48353 0.71314 0.0
C195 C 0.46723 0.48638 0.69516 0.0
C196 C 0.51028 0.48072 0.66279 0.0
C197 C 0.53739 0.49101 0.66383 0.0
C198 C 0.54708 0.47635 0.67052 0.0
C199 C 0.52977 0.45111 0.67621 0.0
C200 C 0.50255 0.44094 0.67509 0.0
C201 C 0.49291 0.45567 0.66848 0.0
C202 C 0.51217 0.49023 0.62584 0.0
C203 C 0.53702 0.50632 0.61851 0.0
C204 C 0.54721 0.49665 0.60647 0.0
C205 C 0.53277 0.47065 0.60165 0.0
C206 C 0.50802 0.45453 0.60927 0.0
C207 C 0.49782 0.46426 0.62126 0.0
C208 C 0.49355 0.52187 0.61261 0.0
C209 C 0.5149 0.54543 0.60721 0.0
C210 C 0.52257 0.54924 0.58982 0.0
C211 C 0.50875 0.52959 0.57757 0.0
C212 C 0.48569 0.50702 0.58284 0.0
C213 C 0.47829 0.5031 0.60028 0.0
C214 C 0.46566 0.53766 0.63544 0.0
C215 C 0.47566 0.56392 0.6377 0.0
C216 C 0.4617 0.57486 0.63148 0.0
C217 C 0.43774 0.55974 0.62273 0.0
C218 C 0.42817 0.53358 0.62015 0.0
C219 C 0.44198 0.52264 0.62649 0.0
C220 C 0.49145 0.49486 0.74166 0.0
C221 C 0.54336 0.46036 0.58869 0.0
H222 H 0.07032 0.49375 0.93101 0.0
H223 H 0.17484 0.51 0.74602 0.0
H224 H 0.00751 0.48674 0.84476 0.0
H225 H 0.97867 0.47837 0.86951 0.0
H226 H 0.94968 0.3974 0.86519 0.0
H227 H 0.97934 0.40623 0.84054 0.0
H228 H 0.06728 0.50584 0.85586 0.0
H229 H 0.07273 0.50861 0.88744 0.0
H230 H 0.03171 0.42596 0.89029 0.0
H231 H 0.02675 0.42351 0.85868 0.0
H232 H 0.10853 0.51942 0.82457 0.0
H233 H 0.15163 0.53231 0.83638 0.0
H234 H 0.1213 0.45478 0.85424 0.0
H235 H 0.07882 0.44184 0.84136 0.0
H236 H 0.08128 0.51669 0.78872 0.0
H237 H 0.1172 0.53477 0.76764 0.0
H238 H 0.12904 0.47185 0.7771 0.0
H239 H 0.09267 0.45368 0.79793 0.0
H240 H 0.02257 0.49148 0.78175 0.0
H241 H 0.03179 0.50315 0.75111 0.0
H242 H 0.05361 0.44662 0.74417 0.0
H243 H 0.04367 0.43454 0.77481 0.0
H244 H 0.98265 0.47091 0.80305 0.0
H245 H 0.93757 0.447 0.79161 0.0
H246 H 0.93997 0.37766 0.79159 0.0
H247 H 0.98499 0.40169 0.80269 0.0
O248 O 0.06815 0.49223 0.91853 0.0
O249 O 0.04678 0.44968 0.9193 0.0
O250 O 0.1532 0.53484 0.74965 0.0
O251 O 0.16079 0.50344 0.75447 0.0
C252 C 0.01746 0.45343 0.82891 0.0
C253 C 0.04276 0.46292 0.83588 0.0
C254 C 0.06452 0.4716 0.82469 0.0
C255 C 0.06117 0.47207 0.80658 0.0
C256 C 0.03565 0.46158 0.79959 0.0
C257 C 0.01377 0.45175 0.81078 0.0
C258 C 0.99545 0.4471 0.84088 0.0
C259 C 0.99434 0.46712 0.84883 0.0
C260 C 0.9778 0.46226 0.86299 0.0
C261 C 0.96197 0.43721 0.86944 0.0
C262 C 0.96189 0.41694 0.86068 0.0
C263 C 0.97853 0.42186 0.84648 0.0
C264 C 0.04655 0.46449 0.85502 0.0
C265 C 0.05963 0.48838 0.86334 0.0
C266 C 0.06264 0.48989 0.88137 0.0
C267 C 0.05259 0.46749 0.8914 0.0
C268 C 0.03963 0.44357 0.88297 0.0
C269 C 0.03672 0.44211 0.86493 0.0
C270 C 0.09064 0.47969 0.83202 0.0
C271 C 0.11134 0.50522 0.83087 0.0
C272 C 0.13584 0.51257 0.83783 0.0
C273 C 0.13994 0.49459 0.84634 0.0
C274 C 0.119 0.46905 0.84756 0.0
C275 C 0.09464 0.46165 0.84036 0.0
C276 C 0.08435 0.48386 0.79482 0.0
C277 C 0.09172 0.50688 0.78626 0.0
C278 C 0.11224 0.51717 0.77423 0.0
C279 C 0.12596 0.50472 0.77066 0.0
C280 C 0.11886 0.4819 0.77954 0.0
C281 C 0.09819 0.47154 0.7915 0.0
C282 C 0.03254 0.46223 0.78051 0.0
C283 C 0.02796 0.48064 0.77343 0.0
C284 C 0.0334 0.4874 0.75594 0.0
C285 C 0.04373 0.47598 0.74538 0.0
C286 C 0.04585 0.45581 0.7521 0.0
C287 C 0.04002 0.44879 0.76953 0.0
C288 C 0.98695 0.43796 0.80358 0.0
C289 C 0.97344 0.45061 0.80041 0.0
C290 C 0.94784 0.437 0.79389 0.0
C291 C 0.93539 0.41053 0.79079 0.0
C292 C 0.94908 0.39801 0.79401 0.0
C293 C 0.97473 0.41167 0.80026 0.0
C294 C 0.05561 0.46915 0.91057 0.0
C295 C 0.14746 0.51533 0.75764 0.0
H296 H 0.47397 0.00245 0.87852 0.0
H297 H 0.51183 0.88253 0.04198 0.0
H298 H 0.51177 0.05761 0.96141 0.0
H299 H 0.52346 0.08845 0.93788 0.0
H300 H 0.6047 0.11036 0.94262 0.0
H301 H 0.5926 0.07875 0.96574 0.0
H302 H 0.48186 0.99611 0.95385 0.0
H303 H 0.47059 0.9942 0.92311 0.0
H304 H 0.55298 0.03335 0.90976 0.0
H305 H 0.56392 0.03475 0.94049 0.0
H306 H 0.47818 0.95091 0.98235 0.0
H307 H 0.46833 0.90898 0.97199 0.0
H308 H 0.54117 0.94566 0.94306 0.0
H309 H 0.55165 0.98703 0.95452 0.0
H310 H 0.49138 0.97639 0.02054 0.0
H311 H 0.48006 0.93879 0.03824 0.0
H312 H 0.54176 0.93322 0.01315 0.0
H313 H 0.5532 0.97112 0.99578 0.0
H314 H 0.51777 0.03395 0.02933 0.0
H315 H 0.52303 0.0325 0.06068 0.0
H316 H 0.58603 0.01843 0.05194 0.0
H317 H 0.57985 0.01901 0.02056 0.0
H318 H 0.53705 0.08151 0.00109 0.0
H319 H 0.56606 0.12474 0.0129 0.0
H320 H 0.62932 0.11001 0.01559 0.0
H321 H 0.60046 0.06727 0.00354 0.0
O322 O 0.4788 0.00276 0.89053 0.0
O323 O 0.52141 0.02292 0.88438 0.0
O324 O 0.4852 0.9018 0.04822 0.0
O325 O 0.51612 0.89762 0.03532 0.0
C326 C 0.54327 0.04301 0.97606 0.0
C327 C 0.53044 0.0185 0.96819 0.0
C328 C 0.52444 0.99672 0.97811 0.0
C329 C 0.52977 0.99922 0.99614 0.0
C330 C 0.54242 0.02369 0.00395 0.0
C331 C 0.54989 0.04563 0.99382 0.0
C332 C 0.55131 0.06589 0.96518 0.0
C333 C 0.53219 0.06961 0.95769 0.0
C334 C 0.53894 0.0873 0.94428 0.0
C335 C 0.56498 0.10162 0.93826 0.0
C336 C 0.58442 0.0993 0.94681 0.0
C337 C 0.57762 0.08151 0.96015 0.0
C338 C 0.52369 0.01574 0.9494 0.0
C339 C 0.49741 0.00403 0.94424 0.0
C340 C 0.49104 0.00307 0.92668 0.0
C341 C 0.51089 0.01379 0.91398 0.0
C342 C 0.53721 0.02502 0.9192 0.0
C343 C 0.54353 0.02587 0.93675 0.0
C344 C 0.51572 0.97197 0.96931 0.0
C345 C 0.49181 0.94982 0.97362 0.0
C346 C 0.48617 0.92592 0.96758 0.0
C347 C 0.50418 0.92391 0.95689 0.0
C348 C 0.52719 0.94642 0.95162 0.0
C349 C 0.53302 0.97016 0.95793 0.0
C350 C 0.523 0.97637 0.00683 0.0
C351 C 0.50247 0.96706 0.01894 0.0
C352 C 0.49602 0.94556 0.029 0.0
C353 C 0.50994 0.93293 0.02705 0.0
C354 C 0.5306 0.94244 0.01494 0.0
C355 C 0.53714 0.96404 0.00498 0.0
C356 C 0.54823 0.0263 0.02278 0.0
C357 C 0.53296 0.03096 0.03424 0.0
C358 C 0.53616 0.03032 0.05214 0.0
C359 C 0.55489 0.02521 0.05885 0.0
C360 C 0.57116 0.02199 0.04722 0.0
C361 C 0.56776 0.02242 0.02932 0.0
C362 C 0.56672 0.07137 0.00151 0.0
C363 C 0.55715 0.0877 0.0043 0.0
C364 C 0.57366 0.11222 0.01112 0.0
C365 C 0.59995 0.12072 0.0151 0.0
C366 C 0.60926 0.1041 0.01245 0.0
C367 C 0.59279 0.07966 0.0057 0.0
C368 C 0.50413 0.01344 0.8954 0.0
C369 C 0.50295 0.90989 0.03754 0.0
H370 H 0.62479 0.61514 0.03611 0.0
H371 H 0.74762 0.6053 0.20903 0.0
H372 H 0.59603 0.63473 0.12594 0.0
H373 H 0.57192 0.64283 0.10405 0.0
H374 H 0.63377 0.72266 0.10263 0.0
H375 H 0.658 0.71416 0.12476 0.0
H376 H 0.62784 0.61089 0.11187 0.0
H377 H 0.62218 0.60482 0.08042 0.0
H378 H 0.67586 0.68606 0.07296 0.0
H379 H 0.68165 0.69178 0.10445 0.0
H380 H 0.65247 0.5952 0.14033 0.0
H381 H 0.67312 0.57372 0.12709 0.0
H382 H 0.7345 0.64615 0.1063 0.0
H383 H 0.71403 0.6676 0.12011 0.0
H384 H 0.643 0.60462 0.17803 0.0
H385 H 0.66155 0.58554 0.19653 0.0
H386 H 0.7396 0.64409 0.18027 0.0
H387 H 0.72078 0.66325 0.16204 0.0
H388 H 0.61157 0.63405 0.1842 0.0
H389 H 0.60649 0.62291 0.21499 0.0
H390 H 0.69049 0.66906 0.2216 0.0
H391 H 0.69546 0.68119 0.19084 0.0
H392 H 0.59341 0.65455 0.15776 0.0
H393 H 0.57448 0.67813 0.17037 0.0
H394 H 0.65186 0.73864 0.18595 0.0
H395 H 0.67072 0.71515 0.17299 0.0
O396 O 0.62791 0.61787 0.04847 0.0
O397 O 0.65566 0.65976 0.04533 0.0
O398 O 0.69925 0.58304 0.20997 0.0
O399 O 0.73977 0.61241 0.20178 0.0
C400 C 0.64475 0.66724 0.1376 0.0
C401 C 0.65714 0.65553 0.12954 0.0
C402 C 0.66966 0.64593 0.13976 0.0
C403 C 0.66922 0.64744 0.15805 0.0
C404 C 0.65704 0.65947 0.16609 0.0
C405 C 0.64526 0.66983 0.15582 0.0
C406 C 0.62865 0.67386 0.12686 0.0
C407 C 0.604 0.65411 0.12128 0.0
C408 C 0.5902 0.65886 0.10887 0.0
C409 C 0.60091 0.68346 0.10172 0.0
C410 C 0.6251 0.70356 0.10797 0.0
C411 C 0.63886 0.6988 0.12059 0.0
C412 C 0.65525 0.65174 0.11041 0.0
C413 C 0.63864 0.62728 0.1034 0.0
C414 C 0.63534 0.6239 0.08544 0.0
C415 C 0.6485 0.64497 0.07417 0.0
C416 C 0.66541 0.66943 0.08126 0.0
C417 C 0.66878 0.67276 0.09923 0.0
C418 C 0.68192 0.63295 0.13129 0.0
C419 C 0.67042 0.6064 0.13296 0.0
C420 C 0.68211 0.59416 0.12524 0.0
C421 C 0.70542 0.60824 0.1156 0.0
C422 C 0.71671 0.63484 0.1138 0.0
C423 C 0.70501 0.64709 0.12157 0.0
C424 C 0.68057 0.6354 0.16879 0.0
C425 C 0.6641 0.61332 0.17852 0.0
C426 C 0.67475 0.60245 0.18905 0.0
C427 C 0.70208 0.61333 0.18991 0.0
C428 C 0.71849 0.63526 0.17994 0.0
C429 C 0.7078 0.6462 0.16948 0.0
C430 C 0.6539 0.65827 0.18525 0.0
C431 C 0.62879 0.64275 0.19243 0.0
C432 C 0.62591 0.63633 0.20999 0.0
C433 C 0.64813 0.645 0.22051 0.0
C434 C 0.67311 0.66213 0.21365 0.0
C435 C 0.67595 0.66903 0.19615 0.0
C436 C 0.63349 0.6834 0.16415 0.0
C437 C 0.60629 0.67301 0.16373 0.0
C438 C 0.59551 0.68643 0.17098 0.0
C439 C 0.61174 0.71026 0.17903 0.0
C440 C 0.6389 0.72025 0.1799 0.0
C441 C 0.64969 0.70694 0.17247 0.0
C442 C 0.64435 0.64142 0.05512 0.0
C443 C 0.7135 0.60194 0.20117 0.0
In444 In 0.64205 0.48567 0.39923 0.0
O445 O 0.6774 0.48299 0.40743 0.0
O446 O 0.68437 0.51351 0.39087 0.0
C447 C 0.62819 0.50495 0.4256 0.0
C448 C 0.62923 0.50244 0.37076 0.0
C449 C 0.61267 0.43416 0.40259 0.0
O450 O 0.65162 0.51047 0.42364 0.0
O451 O 0.61219 0.48977 0.41441 0.0
O452 O 0.62344 0.44479 0.38841 0.0
O453 O 0.61672 0.44942 0.41484 0.0
C454 C 0.69387 0.5022 0.39879 0.0
O455 O 0.63426 0.48482 0.36998 0.0
O456 O 0.6305 0.51123 0.38575 0.0
In457 In 0.22747 0.66148 0.57711 0.0
O458 O 0.24686 0.63918 0.5686 0.0
O459 O 0.25832 0.65908 0.59266 0.0
C460 C 0.19501 0.64837 0.54976 0.0
C461 C 0.19447 0.63838 0.60418 0.0
C462 C 0.25831 0.7122 0.57085 0.0
O463 O 0.20847 0.63822 0.5526 0.0
O464 O 0.19788 0.66498 0.56078 0.0
O465 O 0.2407 0.70349 0.58242 0.0
O466 O 0.2604 0.69544 0.56276 0.0
C467 C 0.26113 0.64509 0.58196 0.0
O468 O 0.21646 0.65877 0.60593 0.0
O469 O 0.18891 0.63007 0.58886 0.0
In470 In 0.61199 0.23569 0.73892 0.0
O471 O 0.65406 0.25421 0.72864 0.0
O472 O 0.64844 0.25512 0.75584 0.0
C473 C 0.58483 0.20001 0.71426 0.0
C474 C 0.59583 0.20847 0.76846 0.0
C475 C 0.60431 0.2746 0.73225 0.0
O476 O 0.60889 0.20889 0.71699 0.0
O477 O 0.57461 0.20904 0.72395 0.0
O478 O 0.59184 0.25821 0.74392 0.0
O479 O 0.62065 0.27141 0.72403 0.0
C480 C 0.66442 0.26102 0.74348 0.0
O481 O 0.59261 0.22694 0.76549 0.0
O482 O 0.60679 0.20345 0.75636 0.0
In483 In 0.4551 0.6298 0.91142 0.0
O484 O 0.41534 0.59207 0.91155 0.0
O485 O 0.4172 0.62618 0.90321 0.0
C486 C 0.47778 0.6215 0.93869 0.0
C487 C 0.46923 0.62329 0.87952 0.0
C488 C 0.46559 0.67631 0.92128 0.0
O489 O 0.45341 0.6125 0.93791 0.0
O490 O 0.49034 0.63327 0.92526 0.0
O491 O 0.48176 0.67332 0.91257 0.0
O492 O 0.44442 0.65595 0.92498 0.0
C493 C 0.40318 0.60241 0.90589 0.0
O494 O 0.47178 0.64414 0.88442 0.0
O495 O 0.46064 0.60607 0.89099 0.0
In496 In 0.83323 0.4252 0.06896 0.0
O497 O 0.8302 0.42367 0.09842 0.0
O498 O 0.86823 0.4396 0.08752 0.0
C499 C 0.79315 0.37648 0.06505 0.0
C500 C 0.81649 0.45832 0.06954 0.0
C501 C 0.86168 0.43148 0.03991 0.0
O502 O 0.81364 0.38197 0.07337 0.0
O503 O 0.79306 0.39544 0.05882 0.0
O504 O 0.85106 0.44426 0.04296 0.0
O505 O 0.85878 0.41609 0.05179 0.0
C506 C 0.85447 0.43414 0.1011 0.0
O507 O 0.84055 0.46574 0.07063 0.0
O508 O 0.80122 0.43445 0.06795 0.0
In509 In 0.4664 0.87106 0.24831 0.0
O510 O 0.49734 0.86055 0.25312 0.0
O511 O 0.47633 0.84913 0.22922 0.0
C512 C 0.4679 0.89284 0.27918 0.0
C513 C 0.48446 0.9086 0.22435 0.0
C514 C 0.41703 0.83013 0.24932 0.0
O515 O 0.48131 0.88272 0.27626 0.0
O516 O 0.45454 0.89254 0.26647 0.0
O517 O 0.42294 0.85059 0.24157 0.0
O518 O 0.43603 0.83018 0.25646 0.0
C519 C 0.49363 0.84927 0.23869 0.0
O520 O 0.46087 0.89046 0.22504 0.0
O521 O 0.4991 0.90812 0.23595 0.0
H522 H 0.18694 0.62921 0.27954 0.0
H523 H 0.23255 0.65794 0.27058 0.0
H524 H 0.22091 0.72176 0.27125 0.0
H525 H 0.1759 0.69372 0.2811 0.0
H526 H 0.24825 0.71748 0.24055 0.0
H527 H 0.2486 0.71701 0.30387 0.0
H528 H 0.23918 0.69557 0.33235 0.0
H529 H 0.28636 0.66393 0.31884 0.0
H530 H 0.29572 0.68488 0.29015 0.0
H531 H 0.37225 0.83028 0.24351 0.0
H532 H 0.32717 0.79486 0.24733 0.0
H533 H 0.35534 0.74494 0.26105 0.0
H534 H 0.40063 0.78084 0.25809 0.0
H535 H 0.31952 0.7373 0.28239 0.0
H536 H 0.32404 0.7408 0.22077 0.0
H537 H 0.33335 0.76045 0.19168 0.0
H538 H 0.27751 0.78347 0.20028 0.0
H539 H 0.26811 0.76427 0.22953 0.0
C540 C 0.19408 0.64938 0.27793 0.0
C541 C 0.17763 0.65908 0.28111 0.0
C542 C 0.22007 0.66568 0.27266 0.0
C543 C 0.22992 0.69186 0.27025 0.0
C544 C 0.21348 0.70152 0.2729 0.0
C545 C 0.18768 0.68537 0.27845 0.0
C546 C 0.25776 0.70959 0.26578 0.0
C547 C 0.26393 0.72198 0.24966 0.0
C548 C 0.27807 0.71466 0.27752 0.0
C549 C 0.27258 0.70223 0.29479 0.0
C550 C 0.25675 0.70527 0.30691 0.0
C551 C 0.25147 0.69325 0.3231 0.0
C552 C 0.26209 0.67832 0.32738 0.0
C553 C 0.27809 0.67545 0.31549 0.0
C554 C 0.2834 0.6874 0.29927 0.0
C555 C 0.3688 0.81169 0.24719 0.0
C556 C 0.38986 0.80824 0.2505 0.0
C557 C 0.34301 0.79138 0.24925 0.0
C558 C 0.33776 0.76703 0.25417 0.0
C559 C 0.35886 0.76351 0.25721 0.0
C560 C 0.3847 0.78398 0.25549 0.0
C561 C 0.31033 0.74577 0.25712 0.0
C562 C 0.3041 0.73264 0.27303 0.0
C563 C 0.29002 0.73975 0.24503 0.0
C564 C 0.2955 0.75123 0.2274 0.0
C565 C 0.31386 0.75019 0.21651 0.0
C566 C 0.31914 0.76123 0.19998 0.0
C567 C 0.30606 0.77324 0.19415 0.0
C568 C 0.28763 0.77417 0.20482 0.0
C569 C 0.28229 0.76318 0.22136 0.0
H570 H 0.31018 0.78178 0.18135 0.0
H571 H 0.25799 0.66904 0.33992 0.0
H572 H 0.5225 0.19316 0.42741 0.0
H573 H 0.54047 0.23589 0.4149 0.0
H574 H 0.49942 0.25303 0.45365 0.0
H575 H 0.48056 0.20987 0.46566 0.0
H576 H 0.49736 0.27253 0.42448 0.0
H577 H 0.56659 0.27364 0.45679 0.0
H578 H 0.59658 0.2591 0.46515 0.0
H579 H 0.62854 0.27407 0.41353 0.0
H580 H 0.59847 0.28838 0.40479 0.0
H581 H 0.5798 0.40802 0.42931 0.0
H582 H 0.55609 0.36187 0.43452 0.0
H583 H 0.58727 0.3509 0.38695 0.0
H584 H 0.61086 0.39724 0.38149 0.0
H585 H 0.59389 0.32759 0.41737 0.0
H586 H 0.52595 0.33151 0.38702 0.0
H587 H 0.49695 0.34809 0.38104 0.0
H588 H 0.46377 0.32601 0.43215 0.0
H589 H 0.49285 0.30963 0.43854 0.0
C590 C 0.51728 0.20609 0.43316 0.0
C591 C 0.50036 0.19843 0.44754 0.0
C592 C 0.52759 0.23049 0.42607 0.0
C593 C 0.52174 0.24791 0.43354 0.0
C594 C 0.50426 0.23997 0.44766 0.0
C595 C 0.49354 0.21538 0.45454 0.0
C596 C 0.53437 0.27461 0.42702 0.0
C597 C 0.51848 0.2846 0.42306 0.0
C598 C 0.56192 0.29031 0.42486 0.0
C599 C 0.58008 0.2818 0.43009 0.0
C600 C 0.57988 0.27365 0.44719 0.0
C601 C 0.59691 0.26548 0.452 0.0
C602 C 0.6144 0.26559 0.43987 0.0
C603 C 0.61494 0.27395 0.42291 0.0
C604 C 0.59792 0.2821 0.41802 0.0
C605 C 0.58142 0.39576 0.41987 0.0
C606 C 0.59718 0.40616 0.40501 0.0
C607 C 0.56779 0.36943 0.42283 0.0
C608 C 0.56986 0.35304 0.41107 0.0
C609 C 0.58539 0.3633 0.39612 0.0
C610 C 0.59877 0.38968 0.39301 0.0
C611 C 0.55689 0.32542 0.41503 0.0
C612 C 0.57274 0.31533 0.41857 0.0
C613 C 0.5294 0.30984 0.41715 0.0
C614 C 0.51173 0.3195 0.41329 0.0
C615 C 0.51261 0.33036 0.39703 0.0
C616 C 0.49613 0.3397 0.39356 0.0
C617 C 0.47857 0.33815 0.40622 0.0
C618 C 0.4774 0.32721 0.42236 0.0
C619 C 0.49385 0.31786 0.4259 0.0
H620 H 0.46583 0.34539 0.4035 0.0
H621 H 0.62757 0.25926 0.44362 0.0
H622 H 0.42699 0.59157 0.64088 0.0
H623 H 0.39799 0.60677 0.63234 0.0
H624 H 0.38349 0.56761 0.58323 0.0
H625 H 0.41281 0.55261 0.59159 0.0
H626 H 0.39032 0.61618 0.58006 0.0
H627 H 0.33959 0.53998 0.61385 0.0
H628 H 0.32975 0.51183 0.63921 0.0
H629 H 0.32905 0.56813 0.67219 0.0
H630 H 0.33929 0.59682 0.64705 0.0
H631 H 0.27399 0.61798 0.56 0.0
H632 H 0.30506 0.60397 0.56552 0.0
H633 H 0.32122 0.63887 0.61631 0.0
H634 H 0.29027 0.65278 0.61093 0.0
H635 H 0.3128 0.59089 0.6175 0.0
H636 H 0.36446 0.66749 0.58391 0.0
H637 H 0.37482 0.69596 0.55867 0.0
H638 H 0.37386 0.63911 0.52536 0.0
H639 H 0.36311 0.61013 0.55039 0.0
C640 C 0.41799 0.58657 0.62814 0.0
C641 C 0.42205 0.5708 0.61693 0.0
C642 C 0.4013 0.59511 0.62334 0.0
C643 C 0.38838 0.58804 0.60725 0.0
C644 C 0.39322 0.57318 0.59573 0.0
C645 C 0.4098 0.56451 0.60057 0.0
C646 C 0.36893 0.59522 0.60282 0.0
C647 C 0.37317 0.61038 0.58809 0.0
C648 C 0.34679 0.58792 0.61346 0.0
C649 C 0.34046 0.57065 0.62859 0.0
C650 C 0.33755 0.54645 0.62653 0.0
C651 C 0.33187 0.53038 0.64086 0.0
C652 C 0.32885 0.53821 0.65731 0.0
C653 C 0.33143 0.56211 0.65944 0.0
C654 C 0.33715 0.57827 0.64516 0.0
C655 C 0.2842 0.62265 0.57233 0.0
C656 C 0.27974 0.63648 0.58503 0.0
C657 C 0.30199 0.61474 0.57543 0.0
C658 C 0.31555 0.62054 0.59129 0.0
C659 C 0.31095 0.63419 0.604 0.0
C660 C 0.29331 0.64218 0.60088 0.0
C661 C 0.33431 0.61215 0.59485 0.0
C662 C 0.3299 0.59665 0.60942 0.0
C663 C 0.35626 0.61916 0.58405 0.0
C664 C 0.36268 0.63653 0.56899 0.0
C665 C 0.36621 0.66096 0.57118 0.0
C666 C 0.37221 0.67721 0.55691 0.0
C667 C 0.37492 0.66932 0.54041 0.0
C668 C 0.3717 0.64518 0.53815 0.0
C669 C 0.36568 0.62884 0.55237 0.0
H670 H 0.37957 0.68194 0.52939 0.0
H671 H 0.32444 0.52574 0.66838 0.0
H672 H 0.89512 0.36653 0.80437 0.0
H673 H 0.85006 0.34126 0.79377 0.0
H674 H 0.86904 0.39548 0.75219 0.0
H675 H 0.91407 0.42132 0.7632 0.0
H676 H 0.82349 0.38237 0.76458 0.0
H677 H 0.86202 0.33565 0.74527 0.0
H678 H 0.88711 0.31408 0.74735 0.0
H679 H 0.83095 0.2602 0.78375 0.0
H680 H 0.80571 0.28168 0.78209 0.0
H681 H 0.7031 0.29095 0.72031 0.0
H682 H 0.75055 0.31666 0.72597 0.0
H683 H 0.73728 0.2881 0.77847 0.0
H684 H 0.68993 0.26307 0.77311 0.0
H685 H 0.78082 0.28839 0.75672 0.0
H686 H 0.74581 0.34041 0.77724 0.0
H687 H 0.72106 0.36206 0.77322 0.0
H688 H 0.77199 0.40595 0.73113 0.0
H689 H 0.79679 0.38423 0.73475 0.0
C690 C 0.88964 0.37299 0.79294 0.0
C691 C 0.90802 0.39572 0.78451 0.0
C692 C 0.86395 0.3585 0.78683 0.0
C693 C 0.85629 0.36613 0.77193 0.0
C694 C 0.87453 0.38913 0.76365 0.0
C695 C 0.90019 0.40387 0.76994 0.0
C696 C 0.82907 0.35027 0.76526 0.0
C697 C 0.81439 0.36191 0.76257 0.0
C698 C 0.81702 0.3235 0.76265 0.0
C699 C 0.83207 0.31041 0.76365 0.0
C700 C 0.85511 0.31931 0.75382 0.0
C701 C 0.86935 0.30709 0.75491 0.0
C702 C 0.86065 0.28582 0.7657 0.0
C703 C 0.83767 0.27669 0.7754 0.0
C704 C 0.82337 0.28887 0.77437 0.0
C705 C 0.71039 0.29007 0.73301 0.0
C706 C 0.69297 0.27517 0.74631 0.0
C707 C 0.73738 0.30473 0.73621 0.0
C708 C 0.74722 0.30418 0.75262 0.0
C709 C 0.72994 0.28866 0.76573 0.0
C710 C 0.70297 0.27451 0.76267 0.0
C711 C 0.77548 0.32052 0.75645 0.0
C712 C 0.79023 0.30892 0.75856 0.0
C713 C 0.78771 0.34733 0.75821 0.0
C714 C 0.77291 0.36046 0.75611 0.0
C715 C 0.75154 0.35447 0.76701 0.0
C716 C 0.73755 0.3668 0.76484 0.0
C717 C 0.74488 0.3853 0.75189 0.0
C718 C 0.76629 0.39157 0.74113 0.0
C719 C 0.78032 0.37927 0.74324 0.0
H720 H 0.73403 0.39483 0.75023 0.0
H721 H 0.87171 0.27638 0.76653 0.0
H722 H 0.45801 0.87964 0.94852 0.0
H723 H 0.45162 0.83736 0.94277 0.0
H724 H 0.53463 0.86855 0.94896 0.0
H725 H 0.54115 0.91047 0.95536 0.0
H726 H 0.51216 0.83651 0.91931 0.0
H727 H 0.49752 0.83728 0.98102 0.0
H728 H 0.47631 0.84276 0.00679 0.0
H729 H 0.40106 0.78255 0.98873 0.0
H730 H 0.42179 0.77701 0.9627 0.0
H731 H 0.51259 0.72143 0.92362 0.0
H732 H 0.51973 0.76371 0.93049 0.0
H733 H 0.43607 0.73039 0.93572 0.0
H734 H 0.42904 0.68808 0.92974 0.0
H735 H 0.45906 0.76415 0.95955 0.0
H736 H 0.47161 0.76306 0.89797 0.0
H737 H 0.49102 0.75769 0.87121 0.0
H738 H 0.56743 0.81795 0.88744 0.0
H739 H 0.54852 0.82345 0.91442 0.0
C740 C 0.47488 0.87748 0.94875 0.0
C741 C 0.5001 0.8985 0.95234 0.0
C742 C 0.4712 0.85337 0.94538 0.0
C743 C 0.49268 0.84996 0.94549 0.0
C744 C 0.51788 0.87092 0.94871 0.0
C745 C 0.52154 0.89491 0.95225 0.0
C746 C 0.48893 0.82441 0.94267 0.0
C747 C 0.50078 0.82069 0.92817 0.0
C748 C 0.4736 0.80381 0.95407 0.0
C749 C 0.46118 0.80691 0.96983 0.0
C750 C 0.47642 0.82535 0.98248 0.0
C751 C 0.4645 0.82845 0.99714 0.0
C752 C 0.43735 0.81306 -0.00063 0.0
C753 C 0.42208 0.79449 0.98697 0.0
C754 C 0.43391 0.79135 0.97226 0.0
C755 C 0.4958 0.72321 0.92632 0.0
C756 C 0.47028 0.70164 0.92602 0.0
C757 C 0.49985 0.74734 0.93016 0.0
C758 C 0.47837 0.75031 0.93325 0.0
C759 C 0.45293 0.7286 0.93335 0.0
C760 C 0.44893 0.70445 0.92989 0.0
C761 C 0.48221 0.77602 0.93607 0.0
C762 C 0.47041 0.77985 0.95062 0.0
C763 C 0.4973 0.79666 0.92455 0.0
C764 C 0.50869 0.7935 0.90829 0.0
C765 C 0.49258 0.77505 0.89588 0.0
C766 C 0.50348 0.772 0.88067 0.0
C767 C 0.53045 0.78742 0.87764 0.0
C768 C 0.54655 0.80599 0.88981 0.0
C769 C 0.53575 0.8091 0.90505 0.0
H770 H 0.53885 0.78502 0.86586 0.0
H771 H 0.42815 0.81548 0.01073 0.0
H772 H 0.68183 0.56216 0.09877 0.0
H773 H 0.70231 0.53887 0.08842 0.0
H774 H 0.77814 0.60147 0.10437 0.0
H775 H 0.75775 0.62479 0.115 0.0
H776 H 0.77936 0.58049 0.07223 0.0
H777 H 0.74744 0.55223 0.1302 0.0
H778 H 0.71434 0.53555 0.15359 0.0
H779 H 0.66603 0.46694 0.12416 0.0
H780 H 0.69868 0.48341 0.10046 0.0
H781 H 0.8443 0.50963 0.07683 0.0
H782 H 0.82662 0.53734 0.08185 0.0
H783 H 0.7487 0.47414 0.07041 0.0
H784 H 0.76612 0.44635 0.06566 0.0
H785 H 0.74946 0.49658 0.10012 0.0
H786 H 0.78153 0.52424 0.04225 0.0
H787 H 0.81439 0.54089 0.01872 0.0
H788 H 0.86229 0.61016 0.0476 0.0
H789 H 0.82986 0.59377 0.07143 0.0
C790 C 0.70286 0.57098 0.10007 0.0
C791 C 0.71814 0.59518 0.10788 0.0
C792 C 0.71454 0.55772 0.09408 0.0
C793 C 0.74167 0.56837 0.09583 0.0
C794 C 0.75716 0.59298 0.1029 0.0
C795 C 0.74549 0.60627 0.10893 0.0
C796 C 0.75354 0.55312 0.09126 0.0
C797 C 0.77309 0.56227 0.07843 0.0
C798 C 0.74497 0.52919 0.0992 0.0
C799 C 0.72538 0.51917 0.11348 0.0
C800 C 0.72966 0.53368 0.12866 0.0
C801 C 0.711 0.52425 0.14198 0.0
C802 C 0.68807 0.50023 0.14034 0.0
C803 C 0.68379 0.48556 0.12539 0.0
C804 C 0.70237 0.49493 0.11202 0.0
C805 C 0.82346 0.50178 0.07518 0.0
C806 C 0.80656 0.47583 0.07095 0.0
C807 C 0.8134 0.51763 0.07799 0.0
C808 C 0.78635 0.5078 0.07644 0.0
C809 C 0.76961 0.48208 0.07171 0.0
C810 C 0.77961 0.46625 0.06898 0.0
C811 C 0.77512 0.52371 0.08088 0.0
C812 C 0.75574 0.51474 0.09381 0.0
C813 C 0.78386 0.54774 0.07301 0.0
C814 C 0.80339 0.55766 0.0587 0.0
C815 C 0.79918 0.54293 0.04365 0.0
C816 C 0.8177 0.55234 0.03025 0.0
C817 C 0.84045 0.57654 0.03169 0.0
C818 C 0.84468 0.59141 0.04652 0.0
C819 C 0.82622 0.58207 0.05997 0.0
H820 H 0.85477 0.5838 0.02129 0.0
H821 H 0.67364 0.49295 0.15067 0.0
H822 H 0.37858 0.9564 0.5435 0.0
H823 H 0.35424 0.91246 0.55439 0.0
H824 H 0.37803 0.88716 0.50951 0.0
H825 H 0.40177 0.93097 0.49827 0.0
H826 H 0.32659 0.8563 0.51573 0.0
H827 H 0.40573 0.89241 0.54911 0.0
H828 H 0.44051 0.92378 0.56854 0.0
H829 H 0.3835 0.90641 0.60861 0.0
H830 H 0.34829 0.87518 0.58932 0.0
H831 H 0.29311 0.73358 0.54425 0.0
H832 H 0.31848 0.77861 0.53581 0.0
H833 H 0.28582 0.79812 0.57885 0.0
H834 H 0.26014 0.75283 0.5874 0.0
H835 H 0.34069 0.83202 0.57436 0.0
H836 H 0.26169 0.79516 0.54076 0.0
H837 H 0.22741 0.76343 0.52122 0.0
H838 H 0.285 0.78213 0.48134 0.0
H839 H 0.31972 0.81371 0.50075 0.0
C840 C 0.37856 0.94147 0.53592 0.0
C841 C 0.39209 0.94717 0.52001 0.0
C842 C 0.36484 0.9164 0.54224 0.0
C843 C 0.3645 0.89656 0.53284 0.0
C844 C 0.37809 0.9022 0.517 0.0
C845 C 0.39183 0.92727 0.51066 0.0
C846 C 0.34933 0.86979 0.53926 0.0
C847 C 0.32993 0.85096 0.52846 0.0
C848 C 0.35321 0.86293 0.55606 0.0
C849 C 0.37434 0.88165 0.5677 0.0
C850 C 0.40057 0.89543 0.56201 0.0
C851 C 0.42037 0.91316 0.57301 0.0
C852 C 0.41421 0.91714 0.58978 0.0
C853 C 0.38824 0.90334 0.5956 0.0
C854 C 0.36836 0.88561 0.58465 0.0
C855 C 0.29139 0.74744 0.552 0.0
C856 C 0.27454 0.73968 0.56645 0.0
C857 C 0.30586 0.77314 0.54712 0.0
C858 C 0.30381 0.79161 0.55661 0.0
C859 C 0.2876 0.7841 0.57135 0.0
C860 C 0.27292 0.75827 0.57618 0.0
C861 C 0.3182 0.81863 0.55076 0.0
C862 C 0.33737 0.83746 0.56166 0.0
C863 C 0.3142 0.82551 0.53403 0.0
C864 C 0.29335 0.80663 0.52227 0.0
C865 C 0.26709 0.79236 0.52788 0.0
C866 C 0.24757 0.77443 0.51682 0.0
C867 C 0.25403 0.77072 0.50006 0.0
C868 C 0.28003 0.785 0.49432 0.0
C869 C 0.29963 0.80293 0.50535 0.0
H870 H 0.23889 0.75683 0.49152 0.0
H871 H 0.42956 0.93087 0.59827 0.0
H872 H 0.5111 0.41792 0.70373 0.0
H873 H 0.52665 0.39049 0.71413 0.0
H874 H 0.58771 0.42183 0.67525 0.0
H875 H 0.57145 0.44841 0.66421 0.0
H876 H 0.56429 0.37165 0.67601 0.0
H877 H 0.6009 0.43827 0.71877 0.0
H878 H 0.60048 0.46729 0.74085 0.0
H879 H 0.54671 0.40272 0.77198 0.0
H880 H 0.54652 0.37329 0.74996 0.0
H881 H 0.63093 0.31346 0.70909 0.0
H882 H 0.62135 0.34631 0.70085 0.0
H883 H 0.55705 0.31509 0.73735 0.0
H884 H 0.56688 0.28247 0.74592 0.0
H885 H 0.58439 0.36687 0.73789 0.0
H886 H 0.54616 0.30051 0.69431 0.0
H887 H 0.54667 0.27153 0.67222 0.0
H888 H 0.60393 0.33622 0.64263 0.0
H889 H 0.60402 0.36559 0.66468 0.0
C890 C 0.52773 0.41887 0.69731 0.0
C891 C 0.53999 0.43533 0.6831 0.0
C892 C 0.53682 0.40342 0.70342 0.0
C893 C 0.55857 0.40436 0.69562 0.0
C894 C 0.57097 0.42089 0.68152 0.0
C895 C 0.56179 0.43623 0.67532 0.0
C896 C 0.56764 0.38725 0.70165 0.0
C897 C 0.56913 0.37095 0.6895 0.0
C898 C 0.57336 0.3859 0.71932 0.0
C899 C 0.57353 0.40357 0.73263 0.0
C900 C 0.58883 0.43025 0.73026 0.0
C901 C 0.58873 0.44677 0.74278 0.0
C902 C 0.57353 0.43685 0.75779 0.0
C903 C 0.55845 0.41038 0.76033 0.0
C904 C 0.55847 0.39377 0.74785 0.0
C905 C 0.61486 0.31371 0.71545 0.0
C906 C 0.5995 0.2953 0.72804 0.0
C907 C 0.60938 0.33243 0.71069 0.0
C908 C 0.58824 0.33288 0.7183 0.0
C909 C 0.57342 0.31504 0.7313 0.0
C910 C 0.57899 0.29638 0.73614 0.0
C911 C 0.58096 0.35132 0.71225 0.0
C912 C 0.57974 0.36779 0.7244 0.0
C913 C 0.5755 0.35287 0.69457 0.0
C914 C 0.57528 0.33523 0.68123 0.0
C915 C 0.55899 0.30855 0.68315 0.0
C916 C 0.55915 0.29206 0.67063 0.0
C917 C 0.57537 0.30203 0.65605 0.0
C918 C 0.59141 0.32852 0.65394 0.0
C919 C 0.59134 0.3451 0.66644 0.0
H920 H 0.57548 0.28923 0.64637 0.0
H921 H 0.57347 0.44968 0.76747 0.0
H922 H 0.17404 0.53949 0.86296 0.0
H923 H 0.21794 0.55345 0.87369 0.0
H924 H 0.20842 0.4813 0.85834 0.0
H925 H 0.16486 0.46747 0.8468 0.0
H926 H 0.23153 0.50183 0.89374 0.0
H927 H 0.24194 0.52372 0.83296 0.0
H928 H 0.23506 0.54222 0.80655 0.0
H929 H 0.27283 0.6163 0.8308 0.0
H930 H 0.27954 0.59813 0.85746 0.0
H931 H 0.37021 0.55053 0.90226 0.0
H932 H 0.3241 0.52793 0.89306 0.0
H933 H 0.32665 0.59974 0.89205 0.0
H934 H 0.37258 0.62229 0.90067 0.0
H935 H 0.30648 0.57475 0.86324 0.0
H936 H 0.29415 0.55406 0.92424 0.0
H937 H 0.29998 0.53669 0.95158 0.0
H938 H 0.26554 0.46215 0.92832 0.0
H939 H 0.25982 0.47917 0.90074 0.0
C940 C 0.18129 0.52662 0.86169 0.0
C941 C 0.16598 0.50246 0.85383 0.0
C942 C 0.20626 0.53454 0.868 0.0
C943 C 0.21627 0.51837 0.86673 0.0
C944 C 0.20084 0.49392 0.85949 0.0
C945 C 0.17595 0.48608 0.85295 0.0
C946 C 0.2435 0.52782 0.87211 0.0
C947 C 0.24805 0.51749 0.88697 0.0
C948 C 0.26478 0.54847 0.86335 0.0
C949 C 0.26102 0.55951 0.84726 0.0
C950 C 0.24857 0.54391 0.83271 0.0
C951 C 0.24474 0.55434 0.81769 0.0
C952 C 0.25345 0.58041 0.81701 0.0
C953 C 0.26607 0.5961 0.83135 0.0
C954 C 0.26991 0.58575 0.84641 0.0
C955 C 0.36075 0.56136 0.90023 0.0
C956 C 0.37491 0.58812 0.90206 0.0
C957 C 0.33445 0.54846 0.89503 0.0
C958 C 0.32195 0.56218 0.89188 0.0
C959 C 0.33595 0.58881 0.89427 0.0
C960 C 0.36217 0.60166 0.89924 0.0
C961 C 0.29472 0.54931 0.88526 0.0
C962 C 0.29011 0.55893 0.87002 0.0
C963 C 0.27344 0.52821 0.89381 0.0
C964 C 0.27684 0.51795 0.91037 0.0
C965 C 0.28803 0.53401 0.92491 0.0
C966 C 0.29127 0.52422 0.94045 0.0
C967 C 0.28322 0.49835 0.94167 0.0
C968 C 0.27182 0.4822 0.92735 0.0
C969 C 0.26856 0.4919 0.91176 0.0
H970 H 0.28574 0.4908 0.95372 0.0
H971 H 0.25046 0.58845 0.80537 0.0
H972 H 0.59059 0.14673 0.04023 0.0
H973 H 0.62077 0.19053 0.05057 0.0
H974 H 0.68007 0.19746 0.01504 0.0
H975 H 0.64999 0.1541 0.00444 0.0
H976 H 0.66994 0.21259 0.06583 0.0
H977 H 0.71169 0.25736 0.99835 0.0
H978 H 0.69714 0.25108 0.96781 0.0
H979 H 0.61714 0.21751 0.98444 0.0
H980 H 0.63124 0.22393 0.01505 0.0
H981 H 0.79124 0.33185 0.07257 0.0
H982 H 0.75539 0.28817 0.06616 0.0
H983 H 0.7095 0.31794 0.04537 0.0
H984 H 0.74541 0.36151 0.05131 0.0
H985 H 0.70867 0.28474 0.02392 0.0
H986 H 0.69483 0.28657 0.08501 0.0
H987 H 0.70702 0.29311 0.11599 0.0
H988 H 0.72648 0.23482 0.1133 0.0
H989 H 0.71474 0.22816 0.08223 0.0
C990 C 0.61002 0.1577 0.03457 0.0
C991 C 0.61796 0.14706 0.02153 0.0
C992 C 0.62726 0.18257 0.04058 0.0
C993 C 0.65254 0.1972 0.03348 0.0
C994 C 0.66056 0.18652 0.02058 0.0
C995 C 0.64342 0.16171 0.01463 0.0
C996 C 0.67058 0.22385 0.03927 0.0
C997 C 0.67838 0.22844 0.05673 0.0
C998 C 0.68117 0.24447 0.02739 0.0
C999 C 0.67253 0.24093 0.009 0.0
C1000 C 0.69102 0.24876 0.99548 0.0
C1001 C 0.68284 0.24515 0.97816 0.0
C1002 C 0.65623 0.23384 0.97419 0.0
C1003 C 0.63774 0.22619 0.98753 0.0
C1004 C 0.64581 0.22978 0.00487 0.0
C1005 C 0.7734 0.32901 0.06677 0.0
C1006 C 0.77112 0.35003 0.06236 0.0
C1007 C 0.7529 0.30407 0.06319 0.0
C1008 C 0.72969 0.29979 0.05539 0.0
C1009 C 0.72724 0.32079 0.05135 0.0
C1010 C 0.74777 0.34567 0.05477 0.0
C1011 C 0.70851 0.27359 0.0505 0.0
C1012 C 0.70016 0.26902 0.03313 0.0
C1013 C 0.69712 0.25313 0.06255 0.0
C1014 C 0.7041 0.25702 0.08125 0.0
C1015 C 0.70189 0.27527 0.09099 0.0
C1016 C 0.70869 0.27898 0.10858 0.0
C1017 C 0.71757 0.26443 0.1166 0.0
C1018 C 0.71962 0.24609 0.10707 0.0
C1019 C 0.71286 0.24232 0.08947 0.0
H1020 H 0.72283 0.26733 0.13022 0.0
H1021 H 0.64994 0.23103 0.96077 0.0
H1022 H 0.6214 0.73419 0.21054 0.0
H1023 H 0.60318 0.75923 0.22181 0.0
H1024 H 0.55863 0.74463 0.17465 0.0
H1025 H 0.57685 0.71971 0.16329 0.0
H1026 H 0.58518 0.79584 0.18476 0.0
H1027 H 0.52809 0.71255 0.20968 0.0
H1028 H 0.51751 0.67401 0.22643 0.0
H1029 H 0.55236 0.72009 0.27195 0.0
H1030 H 0.5635 0.75899 0.25539 0.0
H1031 H 0.49076 0.82687 0.20756 0.0
H1032 H 0.5136 0.80523 0.19869 0.0
H1033 H 0.55168 0.82154 0.24864 0.0
H1034 H 0.52869 0.8432 0.25769 0.0
H1035 H 0.53162 0.77169 0.23859 0.0
H1036 H 0.58631 0.85478 0.21418 0.0
H1037 H 0.59669 0.89328 0.19746 0.0
H1038 H 0.56679 0.84798 0.1511 0.0
H1039 H 0.55585 0.80911 0.1676 0.0
C1040 C 0.60776 0.73639 0.20259 0.0
C1041 C 0.60045 0.72498 0.18608 0.0
C1042 C 0.5973 0.75056 0.20906 0.0
C1043 C 0.5795 0.75365 0.19907 0.0
C1044 C 0.57233 0.74242 0.18254 0.0
C1045 C 0.58258 0.72807 0.17614 0.0
C1046 C 0.56845 0.76875 0.20576 0.0
C1047 C 0.57326 0.79046 0.19644 0.0
C1048 C 0.55357 0.76206 0.22126 0.0
C1049 C 0.54692 0.73872 0.23124 0.0
C1050 C 0.53373 0.7145 0.22321 0.0
C1051 C 0.52758 0.69258 0.23268 0.0
C1052 C 0.53434 0.69461 0.25023 0.0
C1053 C 0.54719 0.71856 0.25835 0.0
C1054 C 0.55341 0.74054 0.24893 0.0
C1055 C 0.50407 0.82594 0.21665 0.0
C1056 C 0.508 0.83676 0.23331 0.0
C1057 C 0.51717 0.81366 0.21154 0.0
C1058 C 0.53452 0.81202 0.22295 0.0
C1059 C 0.53842 0.82268 0.23964 0.0
C1060 C 0.52535 0.8351 0.24475 0.0
C1061 C 0.54807 0.79864 0.21747 0.0
C1062 C 0.54375 0.77725 0.227 0.0
C1063 C 0.56346 0.80564 0.20217 0.0
C1064 C 0.57005 0.82899 0.19217 0.0
C1065 C 0.58174 0.85298 0.20045 0.0
C1066 C 0.58777 0.87489 0.19101 0.0
C1067 C 0.58235 0.87307 0.17324 0.0
C1068 C 0.57095 0.84935 0.16487 0.0
C1069 C 0.56486 0.82738 0.17426 0.0
H1070 H 0.58703 0.89005 0.16595 0.0
H1071 H 0.52954 0.67762 0.25754 0.0
H1072 H 0.91668 0.51894 0.37031 0.0
H1073 H 0.87437 0.50979 0.38188 0.0
H1074 H 0.87718 0.56756 0.34832 0.0
H1075 H 0.91932 0.57676 0.33675 0.0
H1076 H 0.86332 0.57199 0.3806 0.0
H1077 H 0.83785 0.5038 0.33916 0.0
H1078 H 0.8379 0.46696 0.32615 0.0
H1079 H 0.80956 0.42545 0.37404 0.0
H1080 H 0.80968 0.46219 0.38741 0.0
H1081 H 0.73148 0.54061 0.37887 0.0
H1082 H 0.77572 0.54974 0.37296 0.0
H1083 H 0.76307 0.48943 0.40807 0.0
H1084 H 0.71846 0.47985 0.41378 0.0
H1085 H 0.78288 0.48552 0.37806 0.0
H1086 H 0.80474 0.55295 0.41864 0.0
H1087 H 0.80425 0.58983 0.43113 0.0
H1088 H 0.83906 0.63298 0.38456 0.0
H1089 H 0.83943 0.59623 0.37168 0.0
C1090 C 0.90811 0.52948 0.36529 0.0
C1091 C 0.92135 0.54861 0.35266 0.0
C1092 C 0.884 0.52429 0.37193 0.0
C1093 C 0.87259 0.53795 0.36592 0.0
C1094 C 0.88571 0.55692 0.35323 0.0
C1095 C 0.90979 0.56216 0.34665 0.0
C1096 C 0.84705 0.53272 0.37283 0.0
C1097 C 0.84566 0.55313 0.37992 0.0
C1098 C 0.82421 0.50796 0.37238 0.0
C1099 C 0.82407 0.48585 0.36435 0.0
C1100 C 0.83184 0.48689 0.34696 0.0
C1101 C 0.83179 0.46602 0.33951 0.0
C1102 C 0.82381 0.44391 0.34927 0.0
C1103 C 0.81578 0.4426 0.3665 0.0
C1104 C 0.81582 0.46344 0.37402 0.0
C1105 C 0.73824 0.52953 0.38552 0.0
C1106 C 0.72153 0.50952 0.39679 0.0
C1107 C 0.76358 0.53483 0.38218 0.0
C1108 C 0.77281 0.52042 0.39019 0.0
C1109 C 0.75636 0.5008 0.40177 0.0
C1110 C 0.73094 0.49542 0.40507 0.0
C1111 C 0.79903 0.52488 0.38562 0.0
C1112 C 0.80056 0.50433 0.37895 0.0
C1113 C 0.822 0.54954 0.38641 0.0
C1114 C 0.82194 0.57175 0.39415 0.0
C1115 C 0.81212 0.57023 0.41101 0.0
C1116 C 0.81189 0.59113 0.41817 0.0
C1117 C 0.82157 0.61372 0.40863 0.0
C1118 C 0.83156 0.61547 0.39193 0.0
C1119 C 0.83182 0.59462 0.3847 0.0
H1120 H 0.82137 0.62987 0.4142 0.0
H1121 H 0.82379 0.42777 0.34348 0.0
H1122 H 0.04945 0.62376 0.41732 0.0
H1123 H 0.06969 0.63147 0.4461 0.0
H1124 H 0.09245 0.57652 0.43528 0.0
H1125 H 0.07264 0.56893 0.40657 0.0
H1126 H 0.0757 0.57264 0.46862 0.0
H1127 H 0.13524 0.63899 0.42937 0.0
H1128 H 0.14835 0.67391 0.40828 0.0
H1129 H 0.1348 0.717 0.44645 0.0
H1130 H 0.12117 0.68212 0.46771 0.0
H1131 H 0.18405 0.61205 0.52504 0.0
H1132 H 0.1552 0.60121 0.49984 0.0
H1133 H 0.13711 0.65814 0.51524 0.0
H1134 H 0.16609 0.66922 0.54038 0.0
H1135 H 0.14865 0.66123 0.48094 0.0
H1136 H 0.09252 0.59536 0.52108 0.0
H1137 H 0.08031 0.5602 0.54181 0.0
H1138 H 0.08856 0.51601 0.50172 0.0
H1139 H 0.10121 0.55107 0.4808 0.0
C1140 C 0.05859 0.61318 0.42114 0.0
C1141 C 0.05945 0.59576 0.40963 0.0
C1142 C 0.07009 0.61757 0.43758 0.0
C1143 C 0.08281 0.60475 0.44273 0.0
C1144 C 0.08265 0.58653 0.43159 0.0
C1145 C 0.07119 0.58214 0.41519 0.0
C1146 C 0.09781 0.61143 0.4592 0.0
C1147 C 0.09174 0.59197 0.47129 0.0
C1148 C 0.11848 0.63674 0.46277 0.0
C1149 C 0.12689 0.65782 0.45006 0.0
C1150 C 0.13485 0.65582 0.43322 0.0
C1151 C 0.14241 0.67561 0.42124 0.0
C1152 C 0.14234 0.69763 0.426 0.0
C1153 C 0.13479 0.69991 0.44277 0.0
C1154 C 0.12715 0.68014 0.45479 0.0
C1155 C 0.17385 0.62219 0.52308 0.0
C1156 C 0.17728 0.64145 0.53469 0.0
C1157 C 0.15729 0.6159 0.50874 0.0
C1158 C 0.1438 0.62869 0.50577 0.0
C1159 C 0.14729 0.648 0.51731 0.0
C1160 C 0.1638 0.65426 0.53168 0.0
C1161 C 0.12665 0.62241 0.49035 0.0
C1162 C 0.13239 0.64195 0.47841 0.0
C1163 C 0.1058 0.59714 0.48688 0.0
C1164 C 0.09803 0.57594 0.49941 0.0
C1165 C 0.09193 0.57822 0.51671 0.0
C1166 C 0.08489 0.5583 0.5285 0.0
C1167 C 0.08371 0.53591 0.5231 0.0
C1168 C 0.0895 0.53337 0.50589 0.0
C1169 C 0.09658 0.55326 0.49406 0.0
H1170 H 0.07827 0.52051 0.53224 0.0
H1171 H 0.1482 0.71293 0.41671 0.0
H1172 H 0.43562 0.06384 0.5872 0.0
H1173 H 0.45235 0.07921 0.61648 0.0
H1174 H 0.53032 0.10158 0.59962 0.0
H1175 H 0.51424 0.08753 0.57025 0.0
H1176 H 0.51633 0.07923 0.6342 0.0
H1177 H 0.5171 0.14456 0.59829 0.0
H1178 H 0.49634 0.16098 0.57897 0.0
H1179 H 0.44183 0.15045 0.6193 0.0
H1180 H 0.46195 0.1334 0.63876 0.0
H1181 H 0.60341 0.18098 0.6898 0.0
H1182 H 0.57897 0.152 0.66582 0.0
H1183 H 0.50811 0.14736 0.68375 0.0
H1184 H 0.53255 0.17675 0.70752 0.0
H1185 H 0.51416 0.15669 0.65029 0.0
H1186 H 0.51719 0.09631 0.68774 0.0
H1187 H 0.53751 0.07908 0.70676 0.0
H1188 H 0.58436 0.07973 0.66417 0.0
H1189 H 0.5646 0.09732 0.64493 0.0
C1190 C 0.4563 0.07189 0.58971 0.0
C1191 C 0.47358 0.07468 0.57624 0.0
C1192 C 0.46575 0.08041 0.60649 0.0
C1193 C 0.49255 0.09159 0.61011 0.0
C1194 C 0.50952 0.0928 0.59707 0.0
C1195 C 0.5002 0.08464 0.58026 0.0
C1196 C 0.50355 0.10488 0.62678 0.0
C1197 C 0.51598 0.0962 0.63777 0.0
C1198 C 0.50261 0.12673 0.63145 0.0
C1199 C 0.4908 0.13741 0.61989 0.0
C1200 C 0.50054 0.14553 0.60298 0.0
C1201 C 0.48891 0.15498 0.59201 0.0
C1202 C 0.46774 0.15671 0.59788 0.0
C1203 C 0.4582 0.14905 0.61476 0.0
C1204 C 0.46969 0.13948 0.62576 0.0
C1205 C 0.58258 0.17358 0.68871 0.0
C1206 C 0.56989 0.18117 0.70048 0.0
C1207 C 0.56859 0.1569 0.67507 0.0
C1208 C 0.54163 0.1473 0.67309 0.0
C1209 C 0.52887 0.15451 0.68504 0.0
C1210 C 0.54286 0.17128 0.69862 0.0
C1211 C 0.52717 0.13118 0.65789 0.0
C1212 C 0.51419 0.13945 0.64702 0.0
C1213 C 0.52761 0.10894 0.6534 0.0
C1214 C 0.53955 0.09834 0.66492 0.0
C1215 C 0.53198 0.09297 0.68245 0.0
C1216 C 0.54337 0.0831 0.69327 0.0
C1217 C 0.56226 0.07836 0.68669 0.0
C1218 C 0.56975 0.08343 0.66926 0.0
C1219 C 0.55843 0.09332 0.65838 0.0
H1220 H 0.57105 0.07072 0.69509 0.0
H1221 H 0.45877 0.16405 0.58936 0.0
H1222 H 0.43622 0.52587 0.72978 0.0
H1223 H 0.43626 0.53988 0.75943 0.0
H1224 H 0.47618 0.6185 0.74225 0.0
H1225 H 0.47633 0.6045 0.71243 0.0
H1226 H 0.50113 0.61335 0.76873 0.0
H1227 H 0.41267 0.58824 0.75716 0.0
H1228 H 0.36709 0.56026 0.74716 0.0
H1229 H 0.355 0.50398 0.78529 0.0
H1230 H 0.40064 0.53147 0.79537 0.0
H1231 H 0.48892 0.65767 0.85289 0.0
H1232 H 0.48775 0.64811 0.8219 0.0
H1233 H 0.4549 0.5682 0.83385 0.0
H1234 H 0.45608 0.5776 0.86484 0.0
H1235 H 0.42587 0.57698 0.8096 0.0
H1236 H 0.5158 0.60204 0.81974 0.0
H1237 H 0.56135 0.6308 0.82958 0.0
H1238 H 0.57012 0.68854 0.79382 0.0
H1239 H 0.52448 0.66024 0.78393 0.0
C1240 C 0.44423 0.54606 0.73221 0.0
C1241 C 0.45621 0.56411 0.71881 0.0
C1242 C 0.44433 0.55407 0.74918 0.0
C1243 C 0.45613 0.58024 0.75304 0.0
C1244 C 0.46702 0.59822 0.73954 0.0
C1245 C 0.46705 0.59023 0.72255 0.0
C1246 C 0.45916 0.58879 0.77134 0.0
C1247 C 0.48459 0.60579 0.77759 0.0
C1248 C 0.43766 0.5785 0.78297 0.0
C1249 C 0.41017 0.56186 0.77693 0.0
C1250 C 0.40037 0.56981 0.76333 0.0
C1251 C 0.3745 0.55405 0.75766 0.0
C1252 C 0.35818 0.53034 0.76556 0.0
C1253 C 0.36767 0.52235 0.77917 0.0
C1254 C 0.39354 0.53803 0.78488 0.0
C1255 C 0.48193 0.63815 0.84892 0.0
C1256 C 0.47252 0.61835 0.86124 0.0
C1257 C 0.48126 0.63273 0.83124 0.0
C1258 C 0.47113 0.60745 0.82565 0.0
C1259 C 0.46268 0.58782 0.83796 0.0
C1260 C 0.46353 0.59324 0.85564 0.0
C1261 C 0.4678 0.60118 0.80694 0.0
C1262 C 0.44232 0.58466 0.80066 0.0
C1263 C 0.48921 0.61206 0.79527 0.0
C1264 C 0.51662 0.62913 0.80124 0.0
C1265 C 0.52736 0.62097 0.8141 0.0
C1266 C 0.55321 0.63716 0.81965 0.0
C1267 C 0.56859 0.66151 0.81236 0.0
C1268 C 0.55817 0.66969 0.79947 0.0
C1269 C 0.53232 0.65357 0.79388 0.0
H1270 H 0.58861 0.67402 0.81668 0.0
H1271 H 0.33815 0.51817 0.76116 0.0
H1272 H 0.95758 0.40572 0.89612 0.0
H1273 H 0.93926 0.40284 0.92502 0.0
H1274 H 0.91731 0.457 0.90997 0.0
H1275 H 0.93501 0.45954 0.88087 0.0
H1276 H 0.94606 0.47038 0.9404 0.0
H1277 H 0.87094 0.39607 0.9158 0.0
H1278 H 0.84754 0.35445 0.90067 0.0
H1279 H 0.87006 0.32085 0.94065 0.0
H1280 H 0.89394 0.36239 0.9559 0.0
H1281 H 0.86857 0.46231 0.0124 0.0
H1282 H 0.88594 0.46205 0.98373 0.0
H1283 H 0.90072 0.40353 0.00063 0.0
H1284 H 0.88292 0.40342 0.02937 0.0
H1285 H 0.8768 0.39166 0.96966 0.0
H1286 H 0.95122 0.46482 0.99459 0.0
H1287 H 0.9756 0.50625 0.00989 0.0
H1288 H 0.95599 0.54185 0.96962 0.0
H1289 H 0.93117 0.50054 0.95418 0.0
C1290 C 0.9482 0.41648 0.89878 0.0
C1291 C 0.94778 0.43289 0.88617 0.0
C1292 C 0.93788 0.41492 0.91535 0.0
C1293 C 0.92698 0.42974 0.91963 0.0
C1294 C 0.92579 0.44552 0.90694 0.0
C1295 C 0.93594 0.44697 0.89034 0.0
C1296 C 0.91824 0.42996 0.93762 0.0
C1297 C 0.93066 0.45325 0.94673 0.0
C1298 C 0.89883 0.40742 0.94604 0.0
C1299 C 0.88447 0.38242 0.93689 0.0
C1300 C 0.87111 0.37987 0.92128 0.0
C1301 C 0.85772 0.35628 0.9127 0.0
C1302 C 0.85737 0.33504 0.91966 0.0
C1303 C 0.87038 0.33733 0.93525 0.0
C1304 C 0.88383 0.36089 0.94388 0.0
C1305 C 0.87579 0.44958 0.01009 0.0
C1306 C 0.87446 0.43293 0.02314 0.0
C1307 C 0.88577 0.44949 0.9937 0.0
C1308 C 0.89482 0.43291 0.99007 0.0
C1309 C 0.89384 0.41648 0.00316 0.0
C1310 C 0.88382 0.41654 0.01958 0.0
C1311 C 0.90442 0.43217 0.97241 0.0
C1312 C 0.89225 0.4088 0.96336 0.0
C1313 C 0.92422 0.45462 0.96407 0.0
C1314 C 0.93912 0.47952 0.97331 0.0
C1315 C 0.95192 0.48143 0.98907 0.0
C1316 C 0.96585 0.50491 0.99775 0.0
C1317 C 0.96729 0.52665 0.99075 0.0
C1318 C 0.95483 0.52498 0.97503 0.0
C1319 C 0.94085 0.50155 0.9663 0.0
H1320 H 0.97809 0.54481 0.99749 0.0
H1321 H 0.84698 0.31679 0.913 0.0
H1322 H 0.56112 0.98853 0.07417 0.0
H1323 H 0.55462 0.97602 0.10459 0.0
H1324 H 0.5414 0.03723 0.11672 0.0
H1325 H 0.54913 0.05076 0.08627 0.0
H1326 H 0.5666 0.02779 0.14368 0.0
H1327 H 0.49029 0.98161 0.10783 0.0
H1328 H 0.46611 0.95683 0.08192 0.0
H1329 H 0.4807 0.89743 0.09581 0.0
H1330 H 0.50536 0.92208 0.12168 0.0
H1331 H 0.4557 0.91902 0.20238 0.0
H1332 H 0.47115 0.94633 0.17668 0.0
H1333 H 0.55065 0.9671 0.18803 0.0
H1334 H 0.53532 0.94046 0.21416 0.0
H1335 H 0.49104 0.93871 0.14965 0.0
H1336 H 0.59436 0.02383 0.1687 0.0
H1337 H 0.61685 0.05075 0.19427 0.0
H1338 H 0.54303 0.03516 0.21478 0.0
H1339 H 0.52013 0.00844 0.18923 0.0
C1340 C 0.55779 -2e-05 0.08334 0.0
C1341 C 0.55535 0.0205 0.07772 0.0
C1342 C 0.55388 0.99265 0.10073 0.0
C1343 C 0.54706 0.00542 0.1128 0.0
C1344 C 0.54653 0.02707 0.10756 0.0
C1345 C 0.55064 0.03457 0.09013 0.0
C1346 C 0.53727 0.99412 0.13017 0.0
C1347 C 0.55011 0.00833 0.14508 0.0
C1348 C 0.51526 0.96901 0.1319 0.0
C1349 C 0.49983 0.95378 0.11662 0.0
C1350 C 0.48844 0.96331 0.10532 0.0
C1351 C 0.47466 0.9493 0.09064 0.0
C1352 C 0.4719 0.92559 0.08721 0.0
C1353 C 0.48286 0.91581 0.09848 0.0
C1354 C 0.49673 0.92978 0.11317 0.0
C1355 C 0.47654 0.92981 0.19957 0.0
C1356 C 0.49432 0.92755 0.21018 0.0
C1357 C 0.48535 0.94537 0.18487 0.0
C1358 C 0.51206 0.95879 0.18039 0.0
C1359 C 0.53 0.95729 0.19135 0.0
C1360 C 0.52122 0.94197 0.20623 0.0
C1361 C 0.5206 0.97215 0.16342 0.0
C1362 C 0.50748 0.95824 0.14844 0.0
C1363 C 0.54191 0.99772 0.16175 0.0
C1364 C 0.55551 0.01392 0.17712 0.0
C1365 C 0.58294 0.02622 0.17863 0.0
C1366 C 0.59576 0.04144 0.19313 0.0
C1367 C 0.58137 0.0446 0.20617 0.0
C1368 C 0.55414 0.03261 0.20471 0.0
C1369 C 0.54122 0.01739 0.19023 0.0
H1370 H 0.59133 0.05638 0.21738 0.0
H1371 H 0.46121 0.91477 0.07584 0.0
H1372 H 0.61704 0.64146 0.24783 0.0
H1373 H 0.60907 0.61657 0.27467 0.0
H1374 H 0.6636 0.59493 0.25743 0.0
H1375 H 0.67208 0.62013 0.23092 0.0
H1376 H 0.6079 0.55308 0.26847 0.0
H1377 H 0.68618 0.6341 0.28571 0.0
H1378 H 0.71055 0.6808 0.29056 0.0
H1379 H 0.65093 0.6724 0.32598 0.0
H1380 H 0.62601 0.62565 0.32113 0.0
H1381 H 0.63825 0.4967 0.33679 0.0
H1382 H 0.63538 0.51977 0.31186 0.0
H1383 H 0.60558 0.55582 0.34512 0.0
H1384 H 0.60938 0.53351 0.37016 0.0
H1385 H 0.64251 0.59037 0.32662 0.0
H1386 H 0.56664 0.51068 0.31361 0.0
H1387 H 0.53886 0.46405 0.30908 0.0
H1388 H 0.58753 0.46886 0.26635 0.0
H1389 H 0.61586 0.51549 0.27077 0.0
C1390 C 0.62761 0.63172 0.25 0.0
C1391 C 0.6454 0.63288 0.23753 0.0
C1392 C 0.62299 0.61751 0.2652 0.0
C1393 C 0.63571 0.60395 0.26786 0.0
C1394 C 0.65364 0.60532 0.25551 0.0
C1395 C 0.65865 0.61988 0.24052 0.0
C1396 C 0.63001 0.58775 0.28333 0.0
C1397 C 0.61552 0.56109 0.28121 0.0
C1398 C 0.63906 0.5984 0.29995 0.0
C1399 C 0.65408 0.62645 0.30288 0.0
C1400 C 0.67813 0.64225 0.29439 0.0
C1401 C 0.69208 0.66871 0.29717 0.0
C1402 C 0.68225 0.67957 0.30852 0.0
C1403 C 0.65849 0.66397 0.31716 0.0
C1404 C 0.64446 0.63749 0.3144 0.0
C1405 C 0.63069 0.50922 0.3387 0.0
C1406 C 0.62417 0.51345 0.35537 0.0
C1407 C 0.62892 0.52231 0.32445 0.0
C1408 C 0.62008 0.53943 0.32659 0.0
C1409 C 0.61254 0.5428 0.34316 0.0
C1410 C 0.61465 0.53 0.35744 0.0
C1411 C 0.62087 0.55536 0.31183 0.0
C1412 C 0.63442 0.58208 0.31402 0.0
C1413 C 0.6104 0.54467 0.29533 0.0
C1414 C 0.59351 0.51659 0.29262 0.0
C1415 C 0.57156 0.50178 0.30334 0.0
C1416 C 0.55569 0.47534 0.30077 0.0
C1417 C 0.56146 0.46349 0.28746 0.0
C1418 C 0.5831 0.47806 0.27666 0.0
C1419 C 0.59905 0.50451 0.27918 0.0
H1420 H 0.54914 0.44303 0.28549 0.0
H1421 H 0.69308 0.70006 0.31066 0.0
H1422 H 0.41096 0.98251 0.40836 0.0
H1423 H 0.41436 0.95958 0.38347 0.0
H1424 H 0.47314 0.95179 0.41035 0.0
H1425 H 0.46968 0.97456 0.43537 0.0
H1426 H 0.48951 0.97171 0.37854 0.0
H1427 H 0.41337 0.89962 0.40259 0.0
H1428 H 0.36888 0.87532 0.41512 0.0
H1429 H 0.33676 0.88538 0.3681 0.0
H1430 H 0.38111 0.91008 0.35536 0.0
H1431 H 0.49496 0.89625 0.30877 0.0
H1432 H 0.48999 0.91042 0.33759 0.0
H1433 H 0.43212 0.9254 0.31709 0.0
H1434 H 0.43693 0.91131 0.28839 0.0
H1435 H 0.4161 0.89813 0.34752 0.0
H1436 H 0.49273 0.97387 0.32495 0.0
H1437 H 0.53728 0.99863 0.31252 0.0
H1438 H 0.56836 0.98146 0.35717 0.0
H1439 H 0.5239 0.95629 0.36975 0.0
C1440 C 0.42408 0.9753 0.40916 0.0
C1441 C 0.44015 0.98044 0.42378 0.0
C1442 C 0.42606 0.96225 0.39491 0.0
C1443 C 0.44399 0.95396 0.39508 0.0
C1444 C 0.45927 0.95813 0.40994 0.0
C1445 C 0.45729 0.97116 0.42419 0.0
C1446 C 0.44828 0.94286 0.37922 0.0
C1447 C 0.47356 0.95527 0.37194 0.0
C1448 C 0.42737 0.92175 0.37047 0.0
C1449 C 0.40062 0.90689 0.37807 0.0
C1450 C 0.39685 0.89684 0.39497 0.0
C1451 C 0.37165 0.88296 0.4021 0.0
C1452 C 0.35001 0.87885 0.39243 0.0
C1453 C 0.35354 0.88859 0.37558 0.0
C1454 C 0.37871 0.90251 0.36839 0.0
C1455 C 0.48133 0.90274 0.31042 0.0
C1456 C 0.46637 0.90273 0.29635 0.0
C1457 C 0.47851 0.9108 0.32686 0.0
C1458 C 0.46068 0.91893 0.32943 0.0
C1459 C 0.44588 0.91907 0.31537 0.0
C1460 C 0.44878 0.91116 0.29897 0.0
C1461 C 0.45719 0.92725 0.34676 0.0
C1462 C 0.43208 0.91433 0.35428 0.0
C1463 C 0.47824 0.94788 0.35576 0.0
C1464 C 0.50496 0.96293 0.34818 0.0
C1465 C 0.50903 0.97517 0.33203 0.0
C1466 C 0.53427 0.98932 0.32498 0.0
C1467 C 0.55563 0.99154 0.33402 0.0
C1468 C 0.55179 0.97967 0.35016 0.0
C1469 C 0.52658 0.96547 0.35726 0.0
H1470 H 0.57516 0.00251 0.32854 0.0
H1471 H 0.33051 0.86809 0.39797 0.0
H1472 H 0.53569 0.57166 0.55623 0.0
H1473 H 0.56014 0.57481 0.52984 0.0
H1474 H 0.53213 0.49414 0.53321 0.0
H1475 H 0.50925 0.49118 0.55998 0.0
H1476 H 0.58226 0.51948 0.52791 0.0
H1477 H 0.508 0.52012 0.50311 0.0
H1478 H 0.47863 0.53679 0.49907 0.0
H1479 H 0.54396 0.6092 0.48257 0.0
H1480 H 0.57378 0.59303 0.48671 0.0
H1481 H 0.57911 0.49549 0.43128 0.0
H1482 H 0.56335 0.50812 0.45623 0.0
H1483 H 0.64178 0.54966 0.47729 0.0
H1484 H 0.65771 0.53656 0.45231 0.0
H1485 H 0.57252 0.55145 0.47099 0.0
H1486 H 0.6362 0.53982 0.52132 0.0
H1487 H 0.66115 0.5182 0.52473 0.0
H1488 H 0.60917 0.45943 0.48911 0.0
H1489 H 0.58377 0.48054 0.48567 0.0
C1490 C 0.53471 0.5546 0.55131 0.0
C1491 C 0.52039 0.53115 0.56022 0.0
C1492 C 0.54854 0.5564 0.53616 0.0
C1493 C 0.54794 0.5347 0.52955 0.0
C1494 C 0.53296 0.51116 0.53811 0.0
C1495 C 0.51948 0.50942 0.5533 0.0
C1496 C 0.56352 0.53628 0.51409 0.0
C1497 C 0.58027 0.52669 0.5155 0.0
C1498 C 0.56106 0.54578 0.49793 0.0
C1499 C 0.54315 0.55547 0.49542 0.0
C1500 C 0.51612 0.53966 0.49875 0.0
C1501 C 0.49939 0.54901 0.49642 0.0
C1502 C 0.50943 0.57407 0.49062 0.0
C1503 C 0.53622 0.58981 0.48709 0.0
C1504 C 0.55304 0.58056 0.48942 0.0
C1505 C 0.5931 0.5075 0.44113 0.0
C1506 C 0.61958 0.51475 0.44 0.0
C1507 C 0.58408 0.51489 0.45532 0.0
C1508 C 0.60134 0.52965 0.46866 0.0
C1509 C 0.6281 0.53804 0.46718 0.0
C1510 C 0.63716 0.53054 0.45295 0.0
C1511 C 0.59051 0.53389 0.48475 0.0
C1512 C 0.57488 0.54477 0.4835 0.0
C1513 C 0.59339 0.52492 0.501 0.0
C1514 C 0.60836 0.51195 0.50307 0.0
C1515 C 0.63011 0.52227 0.51424 0.0
C1516 C 0.64431 0.5101 0.51618 0.0
C1517 C 0.63681 0.48752 0.50708 0.0
C1518 C 0.61502 0.47698 0.49609 0.0
C1519 C 0.60074 0.48905 0.49413 0.0
H1520 H 0.64784 0.47814 0.50859 0.0
H1521 H 0.49645 0.58127 0.48882 0.0
H1522 H 0.09293 0.49062 0.73483 0.0
H1523 H 0.11649 0.51679 0.70956 0.0
H1524 H 0.04685 0.51555 0.69316 0.0
H1525 H 0.02313 0.48949 0.71865 0.0
H1526 H 0.08078 0.50902 0.6655 0.0
H1527 H 0.08389 0.56368 0.71323 0.0
H1528 H 0.09215 0.57645 0.74407 0.0
H1529 H 0.17166 0.59463 0.73883 0.0
H1530 H 0.16372 0.58154 0.70803 0.0
H1531 H 0.14124 0.6088 0.60476 0.0
H1532 H 0.11353 0.58118 0.62837 0.0
H1533 H 0.18251 0.6057 0.65982 0.0
H1534 H 0.2099 0.63483 0.6367 0.0
H1535 H 0.14737 0.59923 0.6801 0.0
H1536 H 0.14869 0.54621 0.63513 0.0
H1537 H 0.14385 0.52898 0.60548 0.0
H1538 H 0.06188 0.50349 0.60601 0.0
H1539 H 0.06631 0.52087 0.6356 0.0
C1540 C 0.08241 0.49531 0.72558 0.0
C1541 C 0.05617 0.48796 0.72861 0.0
C1542 C 0.09593 0.51034 0.71123 0.0
C1543 C 0.08336 0.51808 0.69959 0.0
C1544 C 0.05677 0.50963 0.70201 0.0
C1545 C 0.04331 0.49487 0.71655 0.0
C1546 C 0.09874 0.53692 0.68589 0.0
C1547 C 0.09508 0.52887 0.66855 0.0
C1548 C 0.11804 0.56244 0.6901 0.0
C1549 C 0.12316 0.57151 0.70837 0.0
C1550 C 0.1031 0.57033 0.71868 0.0
C1551 C 0.10772 0.57761 0.73615 0.0
C1552 C 0.13241 0.58631 0.74341 0.0
C1553 C 0.15256 0.58789 0.73319 0.0
C1554 C 0.14802 0.58058 0.71572 0.0
C1555 C 0.15034 0.60854 0.61686 0.0
C1556 C 0.17762 0.62382 0.61897 0.0
C1557 C 0.13456 0.59254 0.63028 0.0
C1558 C 0.14591 0.59063 0.64575 0.0
C1559 C 0.17318 0.60665 0.64804 0.0
C1560 C 0.18886 0.62332 0.63483 0.0
C1561 C 0.12955 0.57158 0.65935 0.0
C1562 C 0.13302 0.57951 0.6768 0.0
C1563 C 0.11068 0.54566 0.65526 0.0
C1564 C 0.1079 0.53508 0.6375 0.0
C1565 C 0.12967 0.53708 0.62888 0.0
C1566 C 0.127 0.52727 0.61209 0.0
C1567 C 0.10259 0.51521 0.60385 0.0
C1568 C 0.08078 0.51287 0.6124 0.0
C1569 C 0.08336 0.52268 0.62918 0.0
H1570 H 0.10056 0.50764 0.59085 0.0
H1571 H 0.13592 0.59185 0.75695 0.0
H1572 H 0.54727 0.13278 0.92773 0.0
H1573 H 0.55279 0.15221 0.89905 0.0
H1574 H 0.6015 0.12288 0.88314 0.0
H1575 H 0.59587 0.10322 0.9116 0.0
H1576 H 0.62054 0.17116 0.87114 0.0
H1577 H 0.53887 0.09122 0.87224 0.0
H1578 H 0.49533 0.05915 0.88377 0.0
H1579 H 0.46864 0.11143 0.87622 0.0
H1580 H 0.51222 0.14401 0.86491 0.0
H1581 H 0.60943 0.17487 0.77996 0.0
H1582 H 0.60354 0.15716 0.80923 0.0
H1583 H 0.5626 0.19497 0.82452 0.0
H1584 H 0.56857 0.21295 0.79528 0.0
H1585 H 0.53958 0.1432 0.83691 0.0
H1586 H 0.62325 0.22288 0.83466 0.0
H1587 H 0.66685 0.25263 0.82211 0.0
H1588 H 0.68972 0.19765 0.83075 0.0
H1589 H 0.64607 0.16738 0.84309 0.0
C1590 C 0.55933 0.13068 0.91816 0.0
C1591 C 0.57109 0.11644 0.92192 0.0
C1592 C 0.56248 0.14178 0.90181 0.0
C1593 C 0.57729 0.13868 0.88894 0.0
C1594 C 0.59005 0.12553 0.89291 0.0
C1595 C 0.58691 0.11443 0.90923 0.0
C1596 C 0.57832 0.14788 0.87103 0.0
C1597 C 0.60286 0.16491 0.86361 0.0
C1598 C 0.5552 0.13977 0.86127 0.0
C1599 C 0.5289 0.12016 0.86791 0.0
C1600 C 0.52379 0.09596 0.87317 0.0
C1601 C 0.49909 0.07768 0.87965 0.0
C1602 C 0.47925 0.08328 0.88077 0.0
C1603 C 0.48405 0.10714 0.87537 0.0
C1604 C 0.50874 0.12552 0.86892 0.0
C1605 C 0.59886 0.17913 0.78948 0.0
C1606 C 0.5896 0.19541 0.78541 0.0
C1607 C 0.59559 0.16907 0.80618 0.0
C1608 C 0.58289 0.17503 0.81901 0.0
C1609 C 0.57249 0.19024 0.81476 0.0
C1610 C 0.57597 0.20052 0.7981 0.0
C1611 C 0.58176 0.16652 0.8371 0.0
C1612 C 0.55721 0.14957 0.84451 0.0
C1613 C 0.60488 0.1744 0.84676 0.0
C1614 C 0.63131 0.19277 0.83965 0.0
C1615 C 0.63751 0.21706 0.83377 0.0
C1616 C 0.66224 0.23403 0.82671 0.0
C1617 C 0.68102 0.22701 0.82559 0.0
C1618 C 0.67514 0.20304 0.8316 0.0
C1619 C 0.65042 0.18598 0.83864 0.0
H1620 H 0.70015 0.24016 0.82011 0.0
H1621 H 0.46014 0.0691 0.88578 0.0
H1622 H 0.54888 0.66533 0.09652 0.0
H1623 H 0.52754 0.65839 0.06827 0.0
H1624 H 0.60321 0.70123 0.04342 0.0
H1625 H 0.62473 0.70778 0.07155 0.0
H1626 H 0.55927 0.70437 0.02709 0.0
H1627 H 0.58425 0.64475 0.04696 0.0
H1628 H 0.58594 0.61694 0.06937 0.0
H1629 H 0.50178 0.57134 0.07042 0.0
H1630 H 0.49957 0.59937 0.04834 0.0
H1631 H 0.53034 0.64771 0.94479 0.0
H1632 H 0.55161 0.65953 0.97319 0.0
H1633 H 0.47679 0.61148 0.99818 0.0
H1634 H 0.45525 0.59964 0.96977 0.0
H1635 H 0.51991 0.61166 0.01456 0.0
H1636 H 0.49467 0.66965 0.99356 0.0
H1637 H 0.4926 0.6979 0.97167 0.0
H1638 H 0.57653 0.74657 0.97277 0.0
H1639 H 0.57915 0.71826 0.9944 0.0
C1640 C 0.56095 0.67398 0.0851 0.0
C1641 C 0.58843 0.68666 0.08615 0.0
C1642 C 0.54875 0.6701 0.06902 0.0
C1643 C 0.56389 0.67897 0.05384 0.0
C1644 C 0.59128 0.6943 0.05505 0.0
C1645 C 0.60353 0.69807 0.07115 0.0
C1646 C 0.55158 0.66817 0.0369 0.0
C1647 C 0.55086 0.68419 0.02424 0.0
C1648 C 0.54044 0.64176 0.03338 0.0
C1649 C 0.54173 0.62431 0.04614 0.0
C1650 C 0.5661 0.62891 0.05206 0.0
C1651 C 0.56717 0.61311 0.06469 0.0
C1652 C 0.544 0.59241 0.07132 0.0
C1653 C 0.51971 0.58741 0.06528 0.0
C1654 C 0.51853 0.60326 0.05272 0.0
C1655 C 0.5185 0.63906 0.95629 0.0
C1656 C 0.4911 0.62302 0.95512 0.0
C1657 C 0.53067 0.64593 0.97249 0.0
C1658 C 0.51563 0.63675 0.98769 0.0
C1659 C 0.48863 0.61885 0.98653 0.0
C1660 C 0.47639 0.6121 0.97032 0.0
C1661 C 0.52759 0.64784 0.00467 0.0
C1662 C 0.52828 0.63184 0.01736 0.0
C1663 C 0.53867 0.67426 0.00818 0.0
C1664 C 0.53713 0.69167 0.99547 0.0
C1665 C 0.51271 0.68626 0.98904 0.0
C1666 C 0.51142 0.70229 0.97668 0.0
C1667 C 0.53442 0.72398 0.9708 0.0
C1668 C 0.55873 0.72973 0.97732 0.0
C1669 C 0.56013 0.7137 0.98963 0.0
H1670 H 0.53338 0.73637 0.96123 0.0
H1671 H 0.54487 0.58021 0.08112 0.0
H1672 H 0.98874 0.51313 0.24237 0.0
H1673 H 0.96835 0.49561 0.21423 0.0
H1674 H 0.89957 0.49648 0.23027 0.0
H1675 H 0.91993 0.51397 0.25866 0.0
H1676 H 0.88883 0.4504 0.21302 0.0
H1677 H 0.94068 0.54198 0.20493 0.0
H1678 H 0.98135 0.58441 0.20667 0.0
H1679 H 0.02063 0.55828 0.17355 0.0
H1680 H 0.98027 0.51555 0.17181 0.0
H1681 H 0.82989 0.43424 0.13082 0.0
H1682 H 0.84893 0.4482 0.15965 0.0
H1683 H 0.92344 0.46292 0.14028 0.0
H1684 H 0.90464 0.44996 0.11111 0.0
H1685 H 0.93155 0.50058 0.15969 0.0
H1686 H 0.88155 0.4098 0.16708 0.0
H1687 H 0.84249 0.36619 0.16589 0.0
H1688 H 0.80159 0.38868 0.20052 0.0
H1689 H 0.8403 0.43254 0.20174 0.0
C1690 C 0.96911 0.50923 0.24001 0.0
C1691 C 0.95578 0.51469 0.25273 0.0
C1692 C 0.95759 0.49942 0.22389 0.0
C1693 C 0.93254 0.49489 0.22017 0.0
C1694 C 0.91893 0.49985 0.23294 0.0
C1695 C 0.93058 0.50992 0.24907 0.0
C1696 C 0.92094 0.48555 0.20276 0.0
C1697 C 0.89789 0.46145 0.20134 0.0
C1698 C 0.93336 0.4997 0.18756 0.0
C1699 C 0.95751 0.52551 0.18835 0.0
C1700 C 0.95804 0.54523 0.1981 0.0
C1701 C 0.98102 0.56934 0.19908 0.0
C1702 C 0.00356 0.57403 0.19023 0.0
C1703 C 0.00314 0.55462 0.18038 0.0
C1704 C 0.98021 0.53046 0.17938 0.0
C1705 C 0.85028 0.44023 0.13273 0.0
C1706 C 0.86578 0.44092 0.11874 0.0
C1707 C 0.86113 0.4481 0.14926 0.0
C1708 C 0.88755 0.45624 0.15227 0.0
C1709 C 0.903 0.45669 0.13831 0.0
C1710 C 0.89224 0.4492 0.12167 0.0
C1711 C 0.89924 0.46524 0.1698 0.0
C1712 C 0.92237 0.48936 0.17129 0.0
C1713 C 0.88707 0.45091 0.18505 0.0
C1714 C 0.86376 0.42453 0.18437 0.0
C1715 C 0.86416 0.4055 0.17434 0.0
C1716 C 0.8421 0.38072 0.17368 0.0
C1717 C 0.81955 0.37468 0.18309 0.0
C1718 C 0.81906 0.39339 0.19322 0.0
C1719 C 0.84107 0.41821 0.19392 0.0
H1720 H 0.80249 0.35548 0.18256 0.0
H1721 H 0.02134 0.5927 0.19101 0.0
loop_
_geom_bond_atom_site_label_1
_geom_bond_atom_site_label_2
_geom_bond_distance
_geom_bond_site_symmetry_2
_ccdc_geom_bond_type
H0 O26 0.856 . S
H1 O29 0.854 . S
H2 C37 0.930 . S
H3 C38 0.930 . S
H4 C40 0.930 . S
H5 C41 0.930 . S
H6 C43 0.931 . S
H7 C44 0.930 . S
H8 C46 0.930 . S
H9 C47 0.929 . S
H10 C49 0.930 . S
H11 C50 0.931 . S
H12 C52 0.930 . S
H13 C53 0.929 . S
H14 C55 0.931 . S
H15 C56 0.930 . S
H16 C58 0.930 . S
H17 C59 0.932 . S
H18 C61 0.930 . S
H19 C62 0.929 . S
H20 C64 0.931 . S
H21 C65 0.930 . S
H22 C67 0.929 . S
H23 C68 0.931 . S
H24 C70 0.930 . S
H25 C71 0.929 . S
O26 H0 0.856 . S
O26 C72 1.300 . S
O27 C72 1.209 . S
O28 C73 1.199 . S
O29 H1 0.854 . S
O29 C73 1.297 . S
C30 C31 1.404 . S
C30 C35 1.397 . S
C30 C36 1.492 . S
C31 C30 1.404 . S
C31 C32 1.396 . S
C31 C42 1.492 . S
C32 C31 1.396 . S
C32 C33 1.397 . S
C32 C48 1.509 . S
C33 C32 1.397 . S
C33 C34 1.412 . S
C33 C54 1.485 . S
C34 C33 1.412 . S
C34 C35 1.388 . S
C34 C60 1.490 . S
C35 C30 1.397 . S
C35 C34 1.388 . S
C35 C66 1.519 . S
C36 C30 1.492 . S
C36 C37 1.363 . S
C36 C41 1.390 . S
C37 H2 0.930 . S
C37 C36 1.363 . S
C37 C38 1.372 1_455 S
C38 H3 0.930 . S
C38 C37 1.372 1_655 S
C38 C39 1.383 . S
C39 C38 1.383 . S
C39 C40 1.395 . S
C40 H4 0.930 . S
C40 C39 1.395 . S
C40 C41 1.362 1_655 S
C41 H5 0.930 . S
C41 C36 1.390 . S
C41 C40 1.362 1_455 S
C42 C31 1.492 . S
C42 C43 1.377 . S
C42 C47 1.397 . S
C43 H6 0.931 . S
C43 C42 1.377 . S
C43 C44 1.376 . S
C44 H7 0.930 . S
C44 C43 1.376 . S
C44 C45 1.376 . S
C45 C44 1.376 . S
C45 C46 1.378 . S
C45 C72 1.486 . S
C46 H8 0.930 . S
C46 C45 1.378 . S
C46 C47 1.376 . S
C47 H9 0.929 . S
C47 C42 1.397 . S
C47 C46 1.376 . S
C48 C32 1.509 . S
C48 C49 1.391 . S
C48 C53 1.386 . S
C49 H10 0.930 . S
C49 C48 1.391 . S
C49 C50 1.375 . S
C50 H11 0.931 . S
C50 C49 1.375 . S
C50 C51 1.375 . S
C51 C50 1.375 . S
C51 C52 1.361 . S
C52 H12 0.930 . S
C52 C51 1.361 . S
C52 C53 1.399 . S
C53 H13 0.929 . S
C53 C48 1.386 . S
C53 C52 1.399 . S
C54 C33 1.485 . S
C54 C55 1.394 . S
C54 C59 1.360 . S
C55 H14 0.931 . S
C55 C54 1.394 . S
C55 C56 1.372 . S
C56 H15 0.930 . S
C56 C55 1.372 . S
C56 C57 1.397 . S
C57 C56 1.397 . S
C57 C58 1.390 . S
C57 C73 1.476 . S
C58 H16 0.930 . S
C58 C57 1.390 . S
C58 C59 1.366 . S
C59 H17 0.932 . S
C59 C54 1.360 . S
C59 C58 1.366 . S
C60 C34 1.490 . S
C60 C61 1.380 . S
C60 C65 1.386 . S
C61 H18 0.930 . S
C61 C60 1.380 . S
C61 C62 1.381 . S
C62 H19 0.929 . S
C62 C61 1.381 . S
C62 C63 1.371 . S
C63 C62 1.371 . S
C63 C64 1.380 . S
C64 H20 0.931 . S
C64 C63 1.380 . S
C64 C65 1.387 . S
C65 H21 0.930 . S
C65 C60 1.386 . S
C65 C64 1.387 . S
C66 C35 1.519 . S
C66 C67 1.377 1_455 S
C66 C71 1.361 . S
C67 H22 0.929 . S
C67 C66 1.377 1_655 S
C67 C68 1.386 . S
C68 H23 0.931 . S
C68 C67 1.386 . S
C68 C69 1.363 . S
C69 C68 1.363 . S
C69 C70 1.385 . S
C70 H24 0.930 . S
C70 C69 1.385 . S
C70 C71 1.396 1_655 S
C71 H25 0.929 . S
C71 C66 1.361 . S
C71 C70 1.396 1_455 S
C72 O26 1.300 . S
C72 O27 1.209 . S
C72 C45 1.486 . S
C73 O28 1.199 . S
C73 O29 1.297 . S
C73 C57 1.476 . S
H74 O100 0.856 . S
H75 O103 0.854 . S
H76 C111 0.930 . S
H77 C112 0.930 . S
H78 C114 0.927 1_565 S
H79 C115 0.930 . S
H80 C117 0.931 . S
H81 C118 0.930 . S
H82 C120 0.930 . S
H83 C121 0.929 . S
H84 C123 0.930 . S
H85 C124 0.931 . S
H86 C126 0.930 . S
H87 C127 0.929 . S
H88 C129 0.931 . S
H89 C130 0.930 . S
H90 C132 0.930 . S
H91 C133 0.932 . S
H92 C135 0.930 . S
H93 C136 0.929 . S
H94 C138 0.931 . S
H95 C139 0.930 . S
H96 C141 0.929 . S
H97 C142 0.931 1_565 S
H98 C144 0.931 1_565 S
H99 C145 0.929 . S
O100 H74 0.856 . S
O100 C146 1.300 . S
O101 C146 1.209 . S
O102 C147 1.199 . S
O103 H75 0.854 . S
O103 C147 1.297 . S
C104 C105 1.404 . S
C104 C109 1.397 . S
C104 C110 1.492 . S
C105 C104 1.404 . S
C105 C106 1.396 . S
C105 C116 1.492 . S
C106 C105 1.396 . S
C106 C107 1.397 . S
C106 C122 1.509 . S
C107 C106 1.397 . S
C107 C108 1.412 . S
C107 C128 1.485 . S
C108 C107 1.412 . S
C108 C109 1.388 . S
C108 C134 1.490 . S
C109 C104 1.397 . S
C109 C108 1.388 . S
C109 C140 1.519 . S
C110 C104 1.492 . S
C110 C111 1.363 . S
C110 C115 1.390 . S
C111 H76 0.930 . S
C111 C110 1.363 . S
C111 C112 1.372 . S
C112 H77 0.930 . S
C112 C111 1.372 . S
C112 C113 1.383 . S
C113 C112 1.383 . S
C113 C114 1.395 . S
C114 H78 0.927 1_545 S
C114 C113 1.395 . S
C114 C115 1.362 . S
C115 H79 0.930 . S
C115 C110 1.390 . S
C115 C114 1.362 . S
C116 C105 1.492 . S
C116 C117 1.377 . S
C116 C121 1.397 . S
C117 H80 0.931 . S
C117 C116 1.377 . S
C117 C118 1.376 . S
C118 H81 0.930 . S
C118 C117 1.376 . S
C118 C119 1.376 . S
C119 C118 1.376 . S
C119 C120 1.378 . S
C119 C146 1.486 . S
C120 H82 0.930 . S
C120 C119 1.378 . S
C120 C121 1.376 . S
C121 H83 0.929 . S
C121 C116 1.397 . S
C121 C120 1.376 . S
C122 C106 1.509 . S
C122 C123 1.391 . S
C122 C127 1.386 . S
C123 H84 0.930 . S
C123 C122 1.391 . S
C123 C124 1.375 . S
C124 H85 0.931 . S
C124 C123 1.375 . S
C124 C125 1.375 . S
C125 C124 1.375 . S
C125 C126 1.361 . S
C126 H86 0.930 . S
C126 C125 1.361 . S
C126 C127 1.399 . S
C127 H87 0.929 . S
C127 C122 1.386 . S
C127 C126 1.399 . S
C128 C107 1.485 . S
C128 C129 1.394 . S
C128 C133 1.360 . S
C129 H88 0.931 . S
C129 C128 1.394 . S
C129 C130 1.372 . S
C130 H89 0.930 . S
C130 C129 1.372 . S
C130 C131 1.397 . S
C131 C130 1.397 . S
C131 C132 1.390 . S
C131 C147 1.476 . S
C132 H90 0.930 . S
C132 C131 1.390 . S
C132 C133 1.366 . S
C133 H91 0.932 . S
C133 C128 1.360 . S
C133 C132 1.366 . S
C134 C108 1.490 . S
C134 C135 1.380 . S
C134 C139 1.386 . S
C135 H92 0.930 . S
C135 C134 1.380 . S
C135 C136 1.381 . S
C136 H93 0.929 . S
C136 C135 1.381 . S
C136 C137 1.371 . S
C137 C136 1.371 . S
C137 C138 1.380 . S
C138 H94 0.931 . S
C138 C137 1.380 . S
C138 C139 1.387 . S
C139 H95 0.930 . S
C139 C134 1.386 . S
C139 C138 1.387 . S
C140 C109 1.519 . S
C140 C141 1.377 . S
C140 C145 1.361 . S
C141 H96 0.929 . S
C141 C140 1.377 . S
C141 C142 1.386 . S
C142 H97 0.931 1_545 S
C142 C141 1.386 . S
C142 C143 1.363 1_545 S
C143 C142 1.363 1_565 S
C143 C144 1.385 1_565 S
C144 H98 0.931 1_545 S
C144 C143 1.385 1_545 S
C144 C145 1.396 . S
C145 H99 0.929 . S
C145 C140 1.361 . S
C145 C144 1.396 . S
C146 O100 1.300 . S
C146 O101 1.209 . S
C146 C119 1.486 . S
C147 O102 1.199 . S
C147 O103 1.297 . S
C147 C131 1.476 . S
H148 O174 0.856 . S
H149 O177 0.854 . S
H150 C185 0.930 . S
H151 C186 0.930 . S
H152 C188 0.930 . S
H153 C189 0.930 . S
H154 C191 0.931 . S
H155 C192 0.930 . S
H156 C194 0.930 . S
H157 C195 0.929 . S
H158 C197 0.930 . S
H159 C198 0.931 . S
H160 C200 0.930 . S
H161 C201 0.929 . S
H162 C203 0.931 . S
H163 C204 0.930 . S
H164 C206 0.930 . S
H165 C207 0.932 . S
H166 C209 0.930 . S
H167 C210 0.929 . S
H168 C212 0.931 . S
H169 C213 0.930 . S
H170 C215 0.929 . S
H171 C216 0.931 . S
H172 C218 0.930 . S
H173 C219 0.929 . S
O174 H148 0.856 . S
O174 C220 1.300 . S
O175 C220 1.209 . S
O176 C221 1.199 . S
O177 H149 0.854 . S
O177 C221 1.297 . S
C178 C179 1.404 . S
C178 C183 1.397 . S
C178 C184 1.492 . S
C179 C178 1.404 . S
C179 C180 1.396 . S
C179 C190 1.492 . S
C180 C179 1.396 . S
C180 C181 1.397 . S
C180 C196 1.509 . S
C181 C180 1.397 . S
C181 C182 1.412 . S
C181 C202 1.485 . S
C182 C181 1.412 . S
C182 C183 1.388 . S
C182 C208 1.490 . S
C183 C178 1.397 . S
C183 C182 1.388 . S
C183 C214 1.519 . S
C184 C178 1.492 . S
C184 C185 1.363 . S
C184 C189 1.390 . S
C185 H150 0.930 . S
C185 C184 1.363 . S
C185 C186 1.372 . S
C186 H151 0.930 . S
C186 C185 1.372 . S
C186 C187 1.383 . S
C187 C186 1.383 . S
C187 C188 1.395 . S
C188 H152 0.930 . S
C188 C187 1.395 . S
C188 C189 1.362 . S
C189 H153 0.930 . S
C189 C184 1.390 . S
C189 C188 1.362 . S
C190 C179 1.492 . S
C190 C191 1.377 . S
C190 C195 1.397 . S
C191 H154 0.931 . S
C191 C190 1.377 . S
C191 C192 1.376 . S
C192 H155 0.930 . S
C192 C191 1.376 . S
C192 C193 1.376 . S
C193 C192 1.376 . S
C193 C194 1.378 . S
C193 C220 1.486 . S
C194 H156 0.930 . S
C194 C193 1.378 . S
C194 C195 1.376 . S
C195 H157 0.929 . S
C195 C190 1.397 . S
C195 C194 1.376 . S
C196 C180 1.509 . S
C196 C197 1.391 . S
C196 C201 1.386 . S
C197 H158 0.930 . S
C197 C196 1.391 . S
C197 C198 1.375 . S
C198 H159 0.931 . S
C198 C197 1.375 . S
C198 C199 1.375 . S
C199 C198 1.375 . S
C199 C200 1.361 . S
C200 H160 0.930 . S
C200 C199 1.361 . S
C200 C201 1.399 . S
C201 H161 0.929 . S
C201 C196 1.386 . S
C201 C200 1.399 . S
C202 C181 1.485 . S
C202 C203 1.394 . S
C202 C207 1.360 . S
C203 H162 0.931 . S
C203 C202 1.394 . S
C203 C204 1.372 . S
C204 H163 0.930 . S
C204 C203 1.372 . S
C204 C205 1.397 . S
C205 C204 1.397 . S
C205 C206 1.390 . S
C205 C221 1.476 . S
C206 H164 0.930 . S
C206 C205 1.390 . S
C206 C207 1.366 . S
C207 H165 0.932 . S
C207 C202 1.360 . S
C207 C206 1.366 . S
C208 C182 1.490 . S
C208 C209 1.380 . S
C208 C213 1.386 . S
C209 H166 0.930 . S
C209 C208 1.380 . S
C209 C210 1.381 . S
C210 H167 0.929 . S
C210 C209 1.381 . S
C210 C211 1.371 . S
C211 C210 1.371 . S
C211 C212 1.380 . S
C212 H168 0.931 . S
C212 C211 1.380 . S
C212 C213 1.387 . S
C213 H169 0.930 . S
C213 C208 1.386 . S
C213 C212 1.387 . S
C214 C183 1.519 . S
C214 C215 1.377 . S
C214 C219 1.361 . S
C215 H170 0.929 . S
C215 C214 1.377 . S
C215 C216 1.386 . S
C216 H171 0.931 . S
C216 C215 1.386 . S
C216 C217 1.363 . S
C217 C216 1.363 . S
C217 C218 1.385 . S
C218 H172 0.930 . S
C218 C217 1.385 . S
C218 C219 1.396 . S
C219 H173 0.929 . S
C219 C214 1.361 . S
C219 C218 1.396 . S
C220 O174 1.300 . S
C220 O175 1.209 . S
C220 C193 1.486 . S
C221 O176 1.199 . S
C221 O177 1.297 . S
C221 C205 1.476 . S
H222 O248 0.856 . S
H223 O251 0.854 . S
H224 C259 0.930 . S
H225 C260 0.930 . S
H226 C262 0.930 . S
H227 C263 0.930 . S
H228 C265 0.931 . S
H229 C266 0.930 . S
H230 C268 0.930 . S
H231 C269 0.929 . S
H232 C271 0.930 . S
H233 C272 0.931 . S
H234 C274 0.930 . S
H235 C275 0.929 . S
H236 C277 0.931 . S
H237 C278 0.930 . S
H238 C280 0.930 . S
H239 C281 0.932 . S
H240 C283 0.930 . S
H241 C284 0.929 . S
H242 C286 0.931 . S
H243 C287 0.930 . S
H244 C289 0.929 . S
H245 C290 0.931 . S
H246 C292 0.930 . S
H247 C293 0.929 1_455 S
O248 H222 0.856 . S
O248 C294 1.300 . S
O249 C294 1.209 . S
O250 C295 1.199 . S
O251 H223 0.854 . S
O251 C295 1.297 . S
C252 C253 1.404 . S
C252 C257 1.397 . S
C252 C258 1.492 . S
C253 C252 1.404 . S
C253 C254 1.396 . S
C253 C264 1.492 . S
C254 C253 1.396 . S
C254 C255 1.397 . S
C254 C270 1.509 . S
C255 C254 1.397 . S
C255 C256 1.412 . S
C255 C276 1.485 . S
C256 C255 1.412 . S
C256 C257 1.388 . S
C256 C282 1.490 . S
C257 C252 1.397 . S
C257 C256 1.388 . S
C257 C288 1.519 . S
C258 C252 1.492 . S
C258 C259 1.363 . S
C258 C263 1.390 1_455 S
C259 H224 0.930 . S
C259 C258 1.363 . S
C259 C260 1.372 1_455 S
C260 H225 0.930 . S
C260 C259 1.372 1_655 S
C260 C261 1.383 . S
C261 C260 1.383 . S
C261 C262 1.395 . S
C262 H226 0.930 . S
C262 C261 1.395 . S
C262 C263 1.362 . S
C263 H227 0.930 . S
C263 C258 1.390 1_655 S
C263 C262 1.362 . S
C264 C253 1.492 . S
C264 C265 1.377 . S
C264 C269 1.397 . S
C265 H228 0.931 . S
C265 C264 1.377 . S
C265 C266 1.376 . S
C266 H229 0.930 . S
C266 C265 1.376 . S
C266 C267 1.376 . S
C267 C266 1.376 . S
C267 C268 1.378 . S
C267 C294 1.486 . S
C268 H230 0.930 . S
C268 C267 1.378 . S
C268 C269 1.376 . S
C269 H231 0.929 . S
C269 C264 1.397 . S
C269 C268 1.376 . S
C270 C254 1.509 . S
C270 C271 1.391 . S
C270 C275 1.386 . S
C271 H232 0.930 . S
C271 C270 1.391 . S
C271 C272 1.375 . S
C272 H233 0.931 . S
C272 C271 1.375 . S
C272 C273 1.375 . S
C273 C272 1.375 . S
C273 C274 1.361 . S
C274 H234 0.930 . S
C274 C273 1.361 . S
C274 C275 1.399 . S
C275 H235 0.929 . S
C275 C270 1.386 . S
C275 C274 1.399 . S
C276 C255 1.485 . S
C276 C277 1.394 . S
C276 C281 1.360 . S
C277 H236 0.931 . S
C277 C276 1.394 . S
C277 C278 1.372 . S
C278 H237 0.930 . S
C278 C277 1.372 . S
C278 C279 1.397 . S
C279 C278 1.397 . S
C279 C280 1.390 . S
C279 C295 1.476 . S
C280 H238 0.930 . S
C280 C279 1.390 . S
C280 C281 1.366 . S
C281 H239 0.932 . S
C281 C276 1.360 . S
C281 C280 1.366 . S
C282 C256 1.490 . S
C282 C283 1.380 . S
C282 C287 1.386 . S
C283 H240 0.930 . S
C283 C282 1.380 . S
C283 C284 1.381 . S
C284 H241 0.929 . S
C284 C283 1.381 . S
C284 C285 1.371 . S
C285 C284 1.371 . S
C285 C286 1.380 . S
C286 H242 0.931 . S
C286 C285 1.380 . S
C286 C287 1.387 . S
C287 H243 0.930 . S
C287 C282 1.386 . S
C287 C286 1.387 . S
C288 C257 1.519 . S
C288 C289 1.377 1_455 S
C288 C293 1.361 1_455 S
C289 H244 0.929 . S
C289 C288 1.377 1_655 S
C289 C290 1.386 . S
C290 H245 0.931 . S
C290 C289 1.386 . S
C290 C291 1.363 . S
C291 C290 1.363 . S
C291 C292 1.385 . S
C292 H246 0.930 . S
C292 C291 1.385 . S
C292 C293 1.396 . S
C293 H247 0.929 1_655 S
C293 C288 1.361 1_655 S
C293 C292 1.396 . S
C294 O248 1.300 . S
C294 O249 1.209 . S
C294 C267 1.486 . S
C295 O250 1.199 . S
C295 O251 1.297 . S
C295 C279 1.476 . S
H296 O322 0.856 . S
H297 O325 0.854 . S
H298 C333 0.930 . S
H299 C334 0.930 . S
H300 C336 0.930 . S
H301 C337 0.930 . S
H302 C339 0.931 . S
H303 C340 0.930 . S
H304 C342 0.930 . S
H305 C343 0.929 . S
H306 C345 0.930 . S
H307 C346 0.931 . S
H308 C348 0.930 . S
H309 C349 0.929 . S
H310 C351 0.931 . S
H311 C352 0.930 . S
H312 C354 0.930 . S
H313 C355 0.932 . S
H314 C357 0.930 . S
H315 C358 0.929 . S
H316 C360 0.931 . S
H317 C361 0.930 . S
H318 C363 0.929 . S
H319 C364 0.931 . S
H320 C366 0.930 . S
H321 C367 0.929 . S
O322 H296 0.856 . S
O322 C368 1.300 . S
O323 C368 1.209 1_545 S
O324 C369 1.199 . S
O325 H297 0.854 . S
O325 C369 1.297 . S
C326 C327 1.404 . S
C326 C331 1.397 . S
C326 C332 1.492 . S
C327 C326 1.404 . S
C327 C328 1.396 1_545 S
C327 C338 1.492 . S
C328 C327 1.396 1_565 S
C328 C329 1.397 . S
C328 C344 1.509 . S
C329 C328 1.397 . S
C329 C330 1.412 1_566 S
C329 C350 1.485 1_556 S
C330 C329 1.412 1_544 S
C330 C331 1.388 1_554 S
C330 C356 1.490 . S
C331 C326 1.397 . S
C331 C330 1.388 1_556 S
C331 C362 1.519 . S
C332 C326 1.492 . S
C332 C333 1.363 . S
C332 C337 1.390 . S
C333 H298 0.930 . S
C333 C332 1.363 . S
C333 C334 1.372 . S
C334 H299 0.930 . S
C334 C333 1.372 . S
C334 C335 1.383 . S
C335 C334 1.383 . S
C335 C336 1.395 . S
C336 H300 0.930 . S
C336 C335 1.395 . S
C336 C337 1.362 . S
C337 H301 0.930 . S
C337 C332 1.390 . S
C337 C336 1.362 . S
C338 C327 1.492 . S
C338 C339 1.377 1_545 S
C338 C343 1.397 . S
C339 H302 0.931 . S
C339 C338 1.377 1_565 S
C339 C340 1.376 . S
C340 H303 0.930 . S
C340 C339 1.376 . S
C340 C341 1.376 . S
C341 C340 1.376 . S
C341 C342 1.378 1_565 S
C341 C368 1.486 . S
C342 H304 0.930 . S
C342 C341 1.378 1_545 S
C342 C343 1.376 . S
C343 H305 0.929 . S
C343 C338 1.397 . S
C343 C342 1.376 . S
C344 C328 1.509 . S
C344 C345 1.391 . S
C344 C349 1.386 . S
C345 H306 0.930 . S
C345 C344 1.391 . S
C345 C346 1.375 . S
C346 H307 0.931 . S
C346 C345 1.375 . S
C346 C347 1.375 . S
C347 C346 1.375 . S
C347 C348 1.361 . S
C348 H308 0.930 . S
C348 C347 1.361 . S
C348 C349 1.399 . S
C349 H309 0.929 . S
C349 C344 1.386 . S
C349 C348 1.399 . S
C350 C329 1.485 1_554 S
C350 C351 1.394 . S
C350 C355 1.360 . S
C351 H310 0.931 . S
C351 C350 1.394 . S
C351 C352 1.372 . S
C352 H311 0.930 . S
C352 C351 1.372 . S
C352 C353 1.397 . S
C353 C352 1.397 . S
C353 C354 1.390 . S
C353 C369 1.476 . S
C354 H312 0.930 . S
C354 C353 1.390 . S
C354 C355 1.366 . S
C355 H313 0.932 . S
C355 C350 1.360 . S
C355 C354 1.366 . S
C356 C330 1.490 . S
C356 C357 1.380 . S
C356 C361 1.386 . S
C357 H314 0.930 . S
C357 C356 1.380 . S
C357 C358 1.381 . S
C358 H315 0.929 . S
C358 C357 1.381 . S
C358 C359 1.371 . S
C359 C358 1.371 . S
C359 C360 1.380 . S
C360 H316 0.931 . S
C360 C359 1.380 . S
C360 C361 1.387 . S
C361 H317 0.930 . S
C361 C356 1.386 . S
C361 C360 1.387 . S
C362 C331 1.519 . S
C362 C363 1.377 . S
C362 C367 1.361 1_556 S
C363 H318 0.929 . S
C363 C362 1.377 . S
C363 C364 1.386 1_556 S
C364 H319 0.931 . S
C364 C363 1.386 1_554 S
C364 C365 1.363 . S
C365 C364 1.363 . S
C365 C366 1.385 . S
C366 H320 0.930 . S
C366 C365 1.385 . S
C366 C367 1.396 . S
C367 H321 0.929 . S
C367 C362 1.361 1_554 S
C367 C366 1.396 . S
C368 O322 1.300 . S
C368 O323 1.209 1_565 S
C368 C341 1.486 . S
C369 O324 1.199 . S
C369 O325 1.297 . S
C369 C353 1.476 . S
H370 O396 0.856 . S
H371 O399 0.854 . S
H372 C407 0.930 . S
H373 C408 0.930 . S
H374 C410 0.930 . S
H375 C411 0.930 . S
H376 C413 0.931 . S
H377 C414 0.930 . S
H378 C416 0.930 . S
H379 C417 0.929 . S
H380 C419 0.930 . S
H381 C420 0.931 . S
H382 C422 0.930 . S
H383 C423 0.929 . S
H384 C425 0.931 . S
H385 C426 0.930 . S
H386 C428 0.930 . S
H387 C429 0.932 . S
H388 C431 0.930 . S
H389 C432 0.929 . S
H390 C434 0.931 . S
H391 C435 0.930 . S
H392 C437 0.929 . S
H393 C438 0.931 . S
H394 C440 0.930 . S
H395 C441 0.929 . S
O396 H370 0.856 . S
O396 C442 1.300 . S
O397 C442 1.209 . S
O398 C443 1.199 . S
O399 H371 0.854 . S
O399 C443 1.297 . S
C400 C401 1.404 . S
C400 C405 1.397 . S
C400 C406 1.492 . S
C401 C400 1.404 . S
C401 C402 1.396 . S
C401 C412 1.492 . S
C402 C401 1.396 . S
C402 C403 1.397 . S
C402 C418 1.509 . S
C403 C402 1.397 . S
C403 C404 1.412 . S
C403 C424 1.485 . S
C404 C403 1.412 . S
C404 C405 1.388 . S
C404 C430 1.490 . S
C405 C400 1.397 . S
C405 C404 1.388 . S
C405 C436 1.519 . S
C406 C400 1.492 . S
C406 C407 1.363 . S
C406 C411 1.390 . S
C407 H372 0.930 . S
C407 C406 1.363 . S
C407 C408 1.372 . S
C408 H373 0.930 . S
C408 C407 1.372 . S
C408 C409 1.383 . S
C409 C408 1.383 . S
C409 C410 1.395 . S
C410 H374 0.930 . S
C410 C409 1.395 . S
C410 C411 1.362 . S
C411 H375 0.930 . S
C411 C406 1.390 . S
C411 C410 1.362 . S
C412 C401 1.492 . S
C412 C413 1.377 . S
C412 C417 1.397 . S
C413 H376 0.931 . S
C413 C412 1.377 . S
C413 C414 1.376 . S
C414 H377 0.930 . S
C414 C413 1.376 . S
C414 C415 1.376 . S
C415 C414 1.376 . S
C415 C416 1.378 . S
C415 C442 1.486 . S
C416 H378 0.930 . S
C416 C415 1.378 . S
C416 C417 1.376 . S
C417 H379 0.929 . S
C417 C412 1.397 . S
C417 C416 1.376 . S
C418 C402 1.509 . S
C418 C419 1.391 . S
C418 C423 1.386 . S
C419 H380 0.930 . S
C419 C418 1.391 . S
C419 C420 1.375 . S
C420 H381 0.931 . S
C420 C419 1.375 . S
C420 C421 1.375 . S
C421 C420 1.375 . S
C421 C422 1.361 . S
C422 H382 0.930 . S
C422 C421 1.361 . S
C422 C423 1.399 . S
C423 H383 0.929 . S
C423 C418 1.386 . S
C423 C422 1.399 . S
C424 C403 1.485 . S
C424 C425 1.394 . S
C424 C429 1.360 . S
C425 H384 0.931 . S
C425 C424 1.394 . S
C425 C426 1.372 . S
C426 H385 0.930 . S
C426 C425 1.372 . S
C426 C427 1.397 . S
C427 C426 1.397 . S
C427 C428 1.390 . S
C427 C443 1.476 . S
C428 H386 0.930 . S
C428 C427 1.390 . S
C428 C429 1.366 . S
C429 H387 0.932 . S
C429 C424 1.360 . S
C429 C428 1.366 . S
C430 C404 1.490 . S
C430 C431 1.380 . S
C430 C435 1.386 . S
C431 H388 0.930 . S
C431 C430 1.380 . S
C431 C432 1.381 . S
C432 H389 0.929 . S
C432 C431 1.381 . S
C432 C433 1.371 . S
C433 C432 1.371 . S
C433 C434 1.380 . S
C434 H390 0.931 . S
C434 C433 1.380 . S
C434 C435 1.387 . S
C435 H391 0.930 . S
C435 C430 1.386 . S
C435 C434 1.387 . S
C436 C405 1.519 . S
C436 C437 1.377 . S
C436 C441 1.361 . S
C437 H392 0.929 . S
C437 C436 1.377 . S
C437 C438 1.386 . S
C438 H393 0.931 . S
C438 C437 1.386 . S
C438 C439 1.363 . S
C439 C438 1.363 . S
C439 C440 1.385 . S
C440 H394 0.930 . S
C440 C439 1.385 . S
C440 C441 1.396 . S
C441 H395 0.929 . S
C441 C436 1.361 . S
C441 C440 1.396 . S
C442 O396 1.300 . S
C442 O397 1.209 . S
C442 C415 1.486 . S
C443 O398 1.199 . S
C443 O399 1.297 . S
C443 C427 1.476 . S
In444 O445 2.294 . S
In444 O446 2.326 . S
In444 O450 2.266 . S
In444 O451 2.326 . S
In444 O452 2.266 . S
In444 O453 2.326 . S
In444 O455 2.294 . S
In444 O456 2.326 . S
O445 In444 2.294 . S
O445 C454 1.240 . S
O446 In444 2.326 . S
O446 C454 1.252 . S
C447 O450 1.252 . S
C447 O451 1.260 . S
C448 O455 1.240 . S
C448 O456 1.252 . S
C449 O452 1.252 . S
C449 O453 1.260 . S
O450 In444 2.266 . S
O450 C447 1.252 . S
O451 In444 2.326 . S
O451 C447 1.260 . S
O452 In444 2.266 . S
O452 C449 1.252 . S
O453 In444 2.326 . S
O453 C449 1.260 . S
C454 O445 1.240 . S
C454 O446 1.252 . S
O455 In444 2.294 . S
O455 C448 1.240 . S
O456 In444 2.326 . S
O456 C448 1.252 . S
In457 O458 2.294 . S
In457 O459 2.326 . S
In457 O463 2.266 . S
In457 O464 2.326 . S
In457 O465 2.266 . S
In457 O466 2.326 . S
In457 O468 2.294 . S
In457 O469 2.326 . S
O458 In457 2.294 . S
O458 C467 1.240 . S
O459 In457 2.326 . S
O459 C467 1.252 . S
C460 O463 1.252 . S
C460 O464 1.260 . S
C461 O468 1.240 . S
C461 O469 1.252 . S
C462 O465 1.252 . S
C462 O466 1.260 . S
O463 In457 2.266 . S
O463 C460 1.252 . S
O464 In457 2.326 . S
O464 C460 1.260 . S
O465 In457 2.266 . S
O465 C462 1.252 . S
O466 In457 2.326 . S
O466 C462 1.260 . S
C467 O458 1.240 . S
C467 O459 1.252 . S
O468 In457 2.294 . S
O468 C461 1.240 . S
O469 In457 2.326 . S
O469 C461 1.252 . S
In470 O471 2.294 . S
In470 O472 2.326 . S
In470 O476 2.266 . S
In470 O477 2.326 . S
In470 O478 2.266 . S
In470 O479 2.326 . S
In470 O481 2.294 . S
In470 O482 2.326 . S
O471 In470 2.294 . S
O471 C480 1.240 . S
O472 In470 2.326 . S
O472 C480 1.252 . S
C473 O476 1.252 . S
C473 O477 1.260 . S
C474 O481 1.240 . S
C474 O482 1.252 . S
C475 O478 1.252 . S
C475 O479 1.260 . S
O476 In470 2.266 . S
O476 C473 1.252 . S
O477 In470 2.326 . S
O477 C473 1.260 . S
O478 In470 2.266 . S
O478 C475 1.252 . S
O479 In470 2.326 . S
O479 C475 1.260 . S
C480 O471 1.240 . S
C480 O472 1.252 . S
O481 In470 2.294 . S
O481 C474 1.240 . S
O482 In470 2.326 . S
O482 C474 1.252 . S
In483 O484 2.294 . S
In483 O485 2.326 . S
In483 O489 2.266 . S
In483 O490 2.326 . S
In483 O491 2.266 . S
In483 O492 2.326 . S
In483 O494 2.294 . S
In483 O495 2.326 . S
O484 In483 2.294 . S
O484 C493 1.240 . S
O485 In483 2.326 . S
O485 C493 1.252 . S
C486 O489 1.252 . S
C486 O490 1.260 . S
C487 O494 1.240 . S
C487 O495 1.252 . S
C488 O491 1.252 . S
C488 O492 1.260 . S
O489 In483 2.266 . S
O489 C486 1.252 . S
O490 In483 2.326 . S
O490 C486 1.260 . S
O491 In483 2.266 . S
O491 C488 1.252 . S
O492 In483 2.326 . S
O492 C488 1.260 . S
C493 O484 1.240 . S
C493 O485 1.252 . S
O494 In483 2.294 . S
O494 C487 1.240 . S
O495 In483 2.326 . S
O495 C487 1.252 . S
In496 O497 2.294 . S
In496 O498 2.326 . S
In496 O502 2.266 . S
In496 O503 2.326 . S
In496 O504 2.266 . S
In496 O505 2.326 . S
In496 O507 2.294 . S
In496 O508 2.326 . S
O497 In496 2.294 . S
O497 C506 1.240 . S
O498 In496 2.326 . S
O498 C506 1.252 . S
C499 O502 1.252 . S
C499 O503 1.260 . S
C500 O507 1.240 . S
C500 O508 1.252 . S
C501 O504 1.252 . S
C501 O505 1.260 . S
O502 In496 2.266 . S
O502 C499 1.252 . S
O503 In496 2.326 . S
O503 C499 1.260 . S
O504 In496 2.266 . S
O504 C501 1.252 . S
O505 In496 2.326 . S
O505 C501 1.260 . S
C506 O497 1.240 . S
C506 O498 1.252 . S
O507 In496 2.294 . S
O507 C500 1.240 . S
O508 In496 2.326 . S
O508 C500 1.252 . S
In509 O510 2.294 . S
In509 O511 2.326 . S
In509 O515 2.266 . S
In509 O516 2.326 . S
In509 O517 2.266 . S
In509 O518 2.326 . S
In509 O520 2.294 . S
In509 O521 2.326 . S
O510 In509 2.294 . S
O510 C519 1.240 . S
O511 In509 2.326 . S
O511 C519 1.252 . S
C512 O515 1.252 . S
C512 O516 1.260 . S
C513 O520 1.240 . S
C513 O521 1.252 . S
C514 O517 1.252 . S
C514 O518 1.260 . S
O515 In509 2.266 . S
O515 C512 1.252 . S
O516 In509 2.326 . S
O516 C512 1.260 . S
O517 In509 2.266 . S
O517 C514 1.252 . S
O518 In509 2.326 . S
O518 C514 1.260 . S
C519 O510 1.240 . S
C519 O511 1.252 . S
O520 In509 2.294 . S
O520 C513 1.240 . S
O521 In509 2.326 . S
O521 C513 1.252 . S
H522 C540 0.951 . S
H523 C542 0.951 . S
H524 C544 0.950 . S
H525 C545 0.950 . S
H526 C547 0.950 . S
H527 C550 0.950 . S
H528 C551 0.950 . S
H529 C553 0.950 . S
H530 C554 0.950 . S
H531 C555 0.951 . S
H532 C557 0.951 . S
H533 C559 0.950 . S
H534 C560 0.950 . S
H535 C562 0.950 . S
H536 C565 0.950 . S
H537 C566 0.950 . S
H538 C568 0.950 . S
H539 C569 0.950 . S
C540 H522 0.951 . S
C540 C541 1.366 . S
C540 C542 1.388 . S
C541 C540 1.366 . S
C541 C545 1.385 . S
C542 H523 0.951 . S
C542 C540 1.388 . S
C542 C543 1.366 . S
C543 C542 1.366 . S
C543 C544 1.414 . S
C543 C546 1.499 . S
C544 H524 0.950 . S
C544 C543 1.414 . S
C544 C545 1.374 . S
C545 H525 0.950 . S
C545 C541 1.385 . S
C545 C544 1.374 . S
C546 C543 1.499 . S
C546 C547 1.373 . S
C546 C548 1.389 . S
C547 H526 0.950 . S
C547 C546 1.373 . S
C547 C563 1.377 . S
C548 C546 1.389 . S
C548 C549 1.524 . S
C548 C562 1.377 . S
C549 C548 1.524 . S
C549 C550 1.397 . S
C549 C554 1.363 . S
C550 H527 0.950 . S
C550 C549 1.397 . S
C550 C551 1.334 . S
C551 H528 0.950 . S
C551 C550 1.334 . S
C551 C552 1.287 . S
C552 C551 1.287 . S
C552 C553 1.524 . S
C552 H571 0.913 . S
C553 H529 0.950 . S
C553 C552 1.524 . S
C553 C554 1.415 . S
C554 H530 0.950 . S
C554 C549 1.363 . S
C554 C553 1.415 . S
C555 H531 0.951 . S
C555 C556 1.366 . S
C555 C557 1.388 . S
C556 C555 1.366 . S
C556 C560 1.385 . S
C557 H532 0.951 . S
C557 C555 1.388 . S
C557 C558 1.366 . S
C558 C557 1.366 . S
C558 C559 1.414 . S
C558 C561 1.499 . S
C559 H533 0.950 . S
C559 C558 1.414 . S
C559 C560 1.374 . S
C560 H534 0.950 . S
C560 C556 1.385 . S
C560 C559 1.374 . S
C561 C558 1.499 . S
C561 C562 1.373 . S
C561 C563 1.389 . S
C562 H535 0.950 . S
C562 C548 1.377 . S
C562 C561 1.373 . S
C563 C547 1.377 . S
C563 C561 1.389 . S
C563 C564 1.524 . S
C564 C563 1.524 . S
C564 C565 1.397 . S
C564 C569 1.363 . S
C565 H536 0.950 . S
C565 C564 1.397 . S
C565 C566 1.334 . S
C566 H537 0.950 . S
C566 C565 1.334 . S
C566 C567 1.287 . S
C567 C566 1.287 . S
C567 C568 1.524 . S
C567 H570 0.999 . S
C568 H538 0.950 . S
C568 C567 1.524 . S
C568 C569 1.415 . S
C569 H539 0.950 . S
C569 C564 1.363 . S
C569 C568 1.415 . S
H570 C567 0.999 . S
H571 C552 0.913 . S
H572 C590 0.951 . S
H573 C592 0.951 . S
H574 C594 0.950 . S
H575 C595 0.950 . S
H576 C597 0.950 . S
H577 C600 0.950 . S
H578 C601 0.950 . S
H579 C603 0.950 . S
H580 C604 0.950 . S
H581 C605 0.951 . S
H582 C607 0.951 . S
H583 C609 0.950 . S
H584 C610 0.950 . S
H585 C612 0.950 . S
H586 C615 0.950 . S
H587 C616 0.950 . S
H588 C618 0.950 . S
H589 C619 0.950 . S
C590 H572 0.951 . S
C590 C591 1.366 . S
C590 C592 1.388 . S
C591 C590 1.366 . S
C591 C595 1.385 . S
C592 H573 0.951 . S
C592 C590 1.388 . S
C592 C593 1.366 . S
C593 C592 1.366 . S
C593 C594 1.414 . S
C593 C596 1.499 . S
C594 H574 0.950 . S
C594 C593 1.414 . S
C594 C595 1.374 . S
C595 H575 0.950 . S
C595 C591 1.385 . S
C595 C594 1.374 . S
C596 C593 1.499 . S
C596 C597 1.373 . S
C596 C598 1.389 . S
C597 H576 0.950 . S
C597 C596 1.373 . S
C597 C613 1.377 . S
C598 C596 1.389 . S
C598 C599 1.524 . S
C598 C612 1.377 . S
C599 C598 1.524 . S
C599 C600 1.397 . S
C599 C604 1.363 . S
C600 H577 0.950 . S
C600 C599 1.397 . S
C600 C601 1.334 . S
C601 H578 0.950 . S
C601 C600 1.334 . S
C601 C602 1.287 . S
C602 C601 1.287 . S
C602 C603 1.524 . S
C602 H621 0.913 . S
C603 H579 0.950 . S
C603 C602 1.524 . S
C603 C604 1.415 . S
C604 H580 0.950 . S
C604 C599 1.363 . S
C604 C603 1.415 . S
C605 H581 0.951 . S
C605 C606 1.366 . S
C605 C607 1.388 . S
C606 C605 1.366 . S
C606 C610 1.385 . S
C607 H582 0.951 . S
C607 C605 1.388 . S
C607 C608 1.366 . S
C608 C607 1.366 . S
C608 C609 1.414 . S
C608 C611 1.499 . S
C609 H583 0.950 . S
C609 C608 1.414 . S
C609 C610 1.374 . S
C610 H584 0.950 . S
C610 C606 1.385 . S
C610 C609 1.374 . S
C611 C608 1.499 . S
C611 C612 1.373 . S
C611 C613 1.389 . S
C612 H585 0.950 . S
C612 C598 1.377 . S
C612 C611 1.373 . S
C613 C597 1.377 . S
C613 C611 1.389 . S
C613 C614 1.524 . S
C614 C613 1.524 . S
C614 C615 1.397 . S
C614 C619 1.363 . S
C615 H586 0.950 . S
C615 C614 1.397 . S
C615 C616 1.334 . S
C616 H587 0.950 . S
C616 C615 1.334 . S
C616 C617 1.287 . S
C617 C616 1.287 . S
C617 C618 1.524 . S
C617 H620 0.999 . S
C618 H588 0.950 . S
C618 C617 1.524 . S
C618 C619 1.415 . S
C619 H589 0.950 . S
C619 C614 1.363 . S
C619 C618 1.415 . S
H620 C617 0.999 . S
H621 C602 0.913 . S
H622 C640 0.951 . S
H623 C642 0.951 . S
H624 C644 0.950 . S
H625 C645 0.950 . S
H626 C647 0.950 . S
H627 C650 0.950 . S
H628 C651 0.950 . S
H629 C653 0.950 . S
H630 C654 0.950 . S
H631 C655 0.951 . S
H632 C657 0.951 . S
H633 C659 0.950 . S
H634 C660 0.950 . S
H635 C662 0.950 . S
H636 C665 0.950 . S
H637 C666 0.950 . S
H638 C668 0.950 . S
H639 C669 0.950 . S
C640 H622 0.951 . S
C640 C641 1.366 . S
C640 C642 1.388 . S
C641 C640 1.366 . S
C641 C645 1.385 . S
C642 H623 0.951 . S
C642 C640 1.388 . S
C642 C643 1.366 . S
C643 C642 1.366 . S
C643 C644 1.414 . S
C643 C646 1.499 . S
C644 H624 0.950 . S
C644 C643 1.414 . S
C644 C645 1.374 . S
C645 H625 0.950 . S
C645 C641 1.385 . S
C645 C644 1.374 . S
C646 C643 1.499 . S
C646 C647 1.373 . S
C646 C648 1.389 . S
C647 H626 0.950 . S
C647 C646 1.373 . S
C647 C663 1.377 . S
C648 C646 1.389 . S
C648 C649 1.524 . S
C648 C662 1.377 . S
C649 C648 1.524 . S
C649 C650 1.397 . S
C649 C654 1.363 . S
C650 H627 0.950 . S
C650 C649 1.397 . S
C650 C651 1.334 . S
C651 H628 0.950 . S
C651 C650 1.334 . S
C651 C652 1.287 . S
C652 C651 1.287 . S
C652 C653 1.524 . S
C652 H671 0.913 . S
C653 H629 0.950 . S
C653 C652 1.524 . S
C653 C654 1.415 . S
C654 H630 0.950 . S
C654 C649 1.363 . S
C654 C653 1.415 . S
C655 H631 0.951 . S
C655 C656 1.366 . S
C655 C657 1.388 . S
C656 C655 1.366 . S
C656 C660 1.385 . S
C657 H632 0.951 . S
C657 C655 1.388 . S
C657 C658 1.366 . S
C658 C657 1.366 . S
C658 C659 1.414 . S
C658 C661 1.499 . S
C659 H633 0.950 . S
C659 C658 1.414 . S
C659 C660 1.374 . S
C660 H634 0.950 . S
C660 C656 1.385 . S
C660 C659 1.374 . S
C661 C658 1.499 . S
C661 C662 1.373 . S
C661 C663 1.389 . S
C662 H635 0.950 . S
C662 C648 1.377 . S
C662 C661 1.373 . S
C663 C647 1.377 . S
C663 C661 1.389 . S
C663 C664 1.524 . S
C664 C663 1.524 . S
C664 C665 1.397 . S
C664 C669 1.363 . S
C665 H636 0.950 . S
C665 C664 1.397 . S
C665 C666 1.334 . S
C666 H637 0.950 . S
C666 C665 1.334 . S
C666 C667 1.287 . S
C667 C666 1.287 . S
C667 C668 1.524 . S
C667 H670 0.999 . S
C668 H638 0.950 . S
C668 C667 1.524 . S
C668 C669 1.415 . S
C669 H639 0.950 . S
C669 C664 1.363 . S
C669 C668 1.415 . S
H670 C667 0.999 . S
H671 C652 0.913 . S
H672 C690 0.951 . S
H673 C692 0.951 . S
H674 C694 0.950 . S
H675 C695 0.950 . S
H676 C697 0.950 . S
H677 C700 0.950 . S
H678 C701 0.950 . S
H679 C703 0.950 . S
H680 C704 0.950 . S
H681 C705 0.951 . S
H682 C707 0.951 . S
H683 C709 0.950 . S
H684 C710 0.950 . S
H685 C712 0.950 . S
H686 C715 0.950 . S
H687 C716 0.950 . S
H688 C718 0.950 . S
H689 C719 0.950 . S
C690 H672 0.951 . S
C690 C691 1.366 . S
C690 C692 1.388 . S
C691 C690 1.366 . S
C691 C695 1.385 . S
C692 H673 0.951 . S
C692 C690 1.388 . S
C692 C693 1.366 . S
C693 C692 1.366 . S
C693 C694 1.414 . S
C693 C696 1.499 . S
C694 H674 0.950 . S
C694 C693 1.414 . S
C694 C695 1.374 . S
C695 H675 0.950 . S
C695 C691 1.385 . S
C695 C694 1.374 . S
C696 C693 1.499 . S
C696 C697 1.373 . S
C696 C698 1.389 . S
C697 H676 0.950 . S
C697 C696 1.373 . S
C697 C713 1.377 . S
C698 C696 1.389 . S
C698 C699 1.524 . S
C698 C712 1.377 . S
C699 C698 1.524 . S
C699 C700 1.397 . S
C699 C704 1.363 . S
C700 H677 0.950 . S
C700 C699 1.397 . S
C700 C701 1.334 . S
C701 H678 0.950 . S
C701 C700 1.334 . S
C701 C702 1.287 . S
C702 C701 1.287 . S
C702 C703 1.524 . S
C702 H721 0.913 . S
C703 H679 0.950 . S
C703 C702 1.524 . S
C703 C704 1.415 . S
C704 H680 0.950 . S
C704 C699 1.363 . S
C704 C703 1.415 . S
C705 H681 0.951 . S
C705 C706 1.366 . S
C705 C707 1.388 . S
C706 C705 1.366 . S
C706 C710 1.385 . S
C707 H682 0.951 . S
C707 C705 1.388 . S
C707 C708 1.366 . S
C708 C707 1.366 . S
C708 C709 1.414 . S
C708 C711 1.499 . S
C709 H683 0.950 . S
C709 C708 1.414 . S
C709 C710 1.374 . S
C710 H684 0.950 . S
C710 C706 1.385 . S
C710 C709 1.374 . S
C711 C708 1.499 . S
C711 C712 1.373 . S
C711 C713 1.389 . S
C712 H685 0.950 . S
C712 C698 1.377 . S
C712 C711 1.373 . S
C713 C697 1.377 . S
C713 C711 1.389 . S
C713 C714 1.524 . S
C714 C713 1.524 . S
C714 C715 1.397 . S
C714 C719 1.363 . S
C715 H686 0.950 . S
C715 C714 1.397 . S
C715 C716 1.334 . S
C716 H687 0.950 . S
C716 C715 1.334 . S
C716 C717 1.287 . S
C717 C716 1.287 . S
C717 C718 1.524 . S
C717 H720 0.999 . S
C718 H688 0.950 . S
C718 C717 1.524 . S
C718 C719 1.415 . S
C719 H689 0.950 . S
C719 C714 1.363 . S
C719 C718 1.415 . S
H720 C717 0.999 . S
H721 C702 0.913 . S
H722 C740 0.951 . S
H723 C742 0.951 . S
H724 C744 0.950 . S
H725 C745 0.950 . S
H726 C747 0.950 . S
H727 C750 0.950 . S
H728 C751 0.950 . S
H729 C753 0.950 . S
H730 C754 0.950 . S
H731 C755 0.951 . S
H732 C757 0.951 . S
H733 C759 0.950 . S
H734 C760 0.950 . S
H735 C762 0.950 . S
H736 C765 0.950 . S
H737 C766 0.950 . S
H738 C768 0.950 . S
H739 C769 0.950 . S
C740 H722 0.951 . S
C740 C741 1.366 . S
C740 C742 1.388 . S
C741 C740 1.366 . S
C741 C745 1.385 . S
C742 H723 0.951 . S
C742 C740 1.388 . S
C742 C743 1.366 . S
C743 C742 1.366 . S
C743 C744 1.414 . S
C743 C746 1.499 . S
C744 H724 0.950 . S
C744 C743 1.414 . S
C744 C745 1.374 . S
C745 H725 0.950 . S
C745 C741 1.385 . S
C745 C744 1.374 . S
C746 C743 1.499 . S
C746 C747 1.373 . S
C746 C748 1.389 . S
C747 H726 0.950 . S
C747 C746 1.373 . S
C747 C763 1.377 . S
C748 C746 1.389 . S
C748 C749 1.524 . S
C748 C762 1.377 . S
C749 C748 1.524 . S
C749 C750 1.397 . S
C749 C754 1.363 . S
C750 H727 0.950 . S
C750 C749 1.397 . S
C750 C751 1.334 . S
C751 H728 0.950 . S
C751 C750 1.334 . S
C751 C752 1.287 . S
C752 C751 1.287 . S
C752 C753 1.524 . S
C752 H771 0.913 . S
C753 H729 0.950 . S
C753 C752 1.524 . S
C753 C754 1.415 . S
C754 H730 0.950 . S
C754 C749 1.363 . S
C754 C753 1.415 . S
C755 H731 0.951 . S
C755 C756 1.366 . S
C755 C757 1.388 . S
C756 C755 1.366 . S
C756 C760 1.385 . S
C757 H732 0.951 . S
C757 C755 1.388 . S
C757 C758 1.366 . S
C758 C757 1.366 . S
C758 C759 1.414 . S
C758 C761 1.499 . S
C759 H733 0.950 . S
C759 C758 1.414 . S
C759 C760 1.374 . S
C760 H734 0.950 . S
C760 C756 1.385 . S
C760 C759 1.374 . S
C761 C758 1.499 . S
C761 C762 1.373 . S
C761 C763 1.389 . S
C762 H735 0.950 . S
C762 C748 1.377 . S
C762 C761 1.373 . S
C763 C747 1.377 . S
C763 C761 1.389 . S
C763 C764 1.524 . S
C764 C763 1.524 . S
C764 C765 1.397 . S
C764 C769 1.363 . S
C765 H736 0.950 . S
C765 C764 1.397 . S
C765 C766 1.334 . S
C766 H737 0.950 . S
C766 C765 1.334 . S
C766 C767 1.287 . S
C767 C766 1.287 . S
C767 C768 1.524 . S
C767 H770 0.999 . S
C768 H738 0.950 . S
C768 C767 1.524 . S
C768 C769 1.415 . S
C769 H739 0.950 . S
C769 C764 1.363 . S
C769 C768 1.415 . S
H770 C767 0.999 . S
H771 C752 0.913 . S
H772 C790 0.951 . S
H773 C792 0.951 . S
H774 C794 0.950 . S
H775 C795 0.950 . S
H776 C797 0.950 . S
H777 C800 0.950 . S
H778 C801 0.950 . S
H779 C803 0.950 . S
H780 C804 0.950 . S
H781 C805 0.951 . S
H782 C807 0.951 . S
H783 C809 0.950 . S
H784 C810 0.950 . S
H785 C812 0.950 . S
H786 C815 0.950 . S
H787 C816 0.950 . S
H788 C818 0.950 . S
H789 C819 0.950 . S
C790 H772 0.951 . S
C790 C791 1.366 . S
C790 C792 1.388 . S
C791 C790 1.366 . S
C791 C795 1.385 . S
C792 H773 0.951 . S
C792 C790 1.388 . S
C792 C793 1.366 . S
C793 C792 1.366 . S
C793 C794 1.414 . S
C793 C796 1.499 . S
C794 H774 0.950 . S
C794 C793 1.414 . S
C794 C795 1.374 . S
C795 H775 0.950 . S
C795 C791 1.385 . S
C795 C794 1.374 . S
C796 C793 1.499 . S
C796 C797 1.373 . S
C796 C798 1.389 . S
C797 H776 0.950 . S
C797 C796 1.373 . S
C797 C813 1.377 . S
C798 C796 1.389 . S
C798 C799 1.524 . S
C798 C812 1.377 . S
C799 C798 1.524 . S
C799 C800 1.397 . S
C799 C804 1.363 . S
C800 H777 0.950 . S
C800 C799 1.397 . S
C800 C801 1.334 . S
C801 H778 0.950 . S
C801 C800 1.334 . S
C801 C802 1.287 . S
C802 C801 1.287 . S
C802 C803 1.524 . S
C802 H821 0.913 . S
C803 H779 0.950 . S
C803 C802 1.524 . S
C803 C804 1.415 . S
C804 H780 0.950 . S
C804 C799 1.363 . S
C804 C803 1.415 . S
C805 H781 0.951 . S
C805 C806 1.366 . S
C805 C807 1.388 . S
C806 C805 1.366 . S
C806 C810 1.385 . S
C807 H782 0.951 . S
C807 C805 1.388 . S
C807 C808 1.366 . S
C808 C807 1.366 . S
C808 C809 1.414 . S
C808 C811 1.499 . S
C809 H783 0.950 . S
C809 C808 1.414 . S
C809 C810 1.374 . S
C810 H784 0.950 . S
C810 C806 1.385 . S
C810 C809 1.374 . S
C811 C808 1.499 . S
C811 C812 1.373 . S
C811 C813 1.389 . S
C812 H785 0.950 . S
C812 C798 1.377 . S
C812 C811 1.373 . S
C813 C797 1.377 . S
C813 C811 1.389 . S
C813 C814 1.524 . S
C814 C813 1.524 . S
C814 C815 1.397 . S
C814 C819 1.363 . S
C815 H786 0.950 . S
C815 C814 1.397 . S
C815 C816 1.334 . S
C816 H787 0.950 . S
C816 C815 1.334 . S
C816 C817 1.287 . S
C817 C816 1.287 . S
C817 C818 1.524 . S
C817 H820 0.999 . S
C818 H788 0.950 . S
C818 C817 1.524 . S
C818 C819 1.415 . S
C819 H789 0.950 . S
C819 C814 1.363 . S
C819 C818 1.415 . S
H820 C817 0.999 . S
H821 C802 0.913 . S
H822 C840 0.951 . S
H823 C842 0.951 . S
H824 C844 0.950 . S
H825 C845 0.950 . S
H826 C847 0.950 . S
H827 C850 0.950 . S
H828 C851 0.950 . S
H829 C853 0.950 . S
H830 C854 0.950 . S
H831 C855 0.951 . S
H832 C857 0.951 . S
H833 C859 0.950 . S
H834 C860 0.950 . S
H835 C862 0.950 . S
H836 C865 0.950 . S
H837 C866 0.950 . S
H838 C868 0.950 . S
H839 C869 0.950 . S
C840 H822 0.951 . S
C840 C841 1.366 . S
C840 C842 1.388 . S
C841 C840 1.366 . S
C841 C845 1.385 . S
C842 H823 0.951 . S
C842 C840 1.388 . S
C842 C843 1.366 . S
C843 C842 1.366 . S
C843 C844 1.414 . S
C843 C846 1.499 . S
C844 H824 0.950 . S
C844 C843 1.414 . S
C844 C845 1.374 . S
C845 H825 0.950 . S
C845 C841 1.385 . S
C845 C844 1.374 . S
C846 C843 1.499 . S
C846 C847 1.373 . S
C846 C848 1.389 . S
C847 H826 0.950 . S
C847 C846 1.373 . S
C847 C863 1.377 . S
C848 C846 1.389 . S
C848 C849 1.524 . S
C848 C862 1.377 . S
C849 C848 1.524 . S
C849 C850 1.397 . S
C849 C854 1.363 . S
C850 H827 0.950 . S
C850 C849 1.397 . S
C850 C851 1.334 . S
C851 H828 0.950 . S
C851 C850 1.334 . S
C851 C852 1.287 . S
C852 C851 1.287 . S
C852 C853 1.524 . S
C852 H871 0.913 . S
C853 H829 0.950 . S
C853 C852 1.524 . S
C853 C854 1.415 . S
C854 H830 0.950 . S
C854 C849 1.363 . S
C854 C853 1.415 . S
C855 H831 0.951 . S
C855 C856 1.366 . S
C855 C857 1.388 . S
C856 C855 1.366 . S
C856 C860 1.385 . S
C857 H832 0.951 . S
C857 C855 1.388 . S
C857 C858 1.366 . S
C858 C857 1.366 . S
C858 C859 1.414 . S
C858 C861 1.499 . S
C859 H833 0.950 . S
C859 C858 1.414 . S
C859 C860 1.374 . S
C860 H834 0.950 . S
C860 C856 1.385 . S
C860 C859 1.374 . S
C861 C858 1.499 . S
C861 C862 1.373 . S
C861 C863 1.389 . S
C862 H835 0.950 . S
C862 C848 1.377 . S
C862 C861 1.373 . S
C863 C847 1.377 . S
C863 C861 1.389 . S
C863 C864 1.524 . S
C864 C863 1.524 . S
C864 C865 1.397 . S
C864 C869 1.363 . S
C865 H836 0.950 . S
C865 C864 1.397 . S
C865 C866 1.334 . S
C866 H837 0.950 . S
C866 C865 1.334 . S
C866 C867 1.287 . S
C867 C866 1.287 . S
C867 C868 1.524 . S
C867 H870 0.999 . S
C868 H838 0.950 . S
C868 C867 1.524 . S
C868 C869 1.415 . S
C869 H839 0.950 . S
C869 C864 1.363 . S
C869 C868 1.415 . S
H870 C867 0.999 . S
H871 C852 0.913 . S
H872 C890 0.951 . S
H873 C892 0.951 . S
H874 C894 0.950 . S
H875 C895 0.950 . S
H876 C897 0.950 . S
H877 C900 0.950 . S
H878 C901 0.950 . S
H879 C903 0.950 . S
H880 C904 0.950 . S
H881 C905 0.951 . S
H882 C907 0.951 . S
H883 C909 0.950 . S
H884 C910 0.950 . S
H885 C912 0.950 . S
H886 C915 0.950 . S
H887 C916 0.950 . S
H888 C918 0.950 . S
H889 C919 0.950 . S
C890 H872 0.951 . S
C890 C891 1.366 . S
C890 C892 1.388 . S
C891 C890 1.366 . S
C891 C895 1.385 . S
C892 H873 0.951 . S
C892 C890 1.388 . S
C892 C893 1.366 . S
C893 C892 1.366 . S
C893 C894 1.414 . S
C893 C896 1.499 . S
C894 H874 0.950 . S
C894 C893 1.414 . S
C894 C895 1.374 . S
C895 H875 0.950 . S
C895 C891 1.385 . S
C895 C894 1.374 . S
C896 C893 1.499 . S
C896 C897 1.373 . S
C896 C898 1.389 . S
C897 H876 0.950 . S
C897 C896 1.373 . S
C897 C913 1.377 . S
C898 C896 1.389 . S
C898 C899 1.524 . S
C898 C912 1.377 . S
C899 C898 1.524 . S
C899 C900 1.397 . S
C899 C904 1.363 . S
C900 H877 0.950 . S
C900 C899 1.397 . S
C900 C901 1.334 . S
C901 H878 0.950 . S
C901 C900 1.334 . S
C901 C902 1.287 . S
C902 C901 1.287 . S
C902 C903 1.524 . S
C902 H921 0.913 . S
C903 H879 0.950 . S
C903 C902 1.524 . S
C903 C904 1.415 . S
C904 H880 0.950 . S
C904 C899 1.363 . S
C904 C903 1.415 . S
C905 H881 0.951 . S
C905 C906 1.366 . S
C905 C907 1.388 . S
C906 C905 1.366 . S
C906 C910 1.385 . S
C907 H882 0.951 . S
C907 C905 1.388 . S
C907 C908 1.366 . S
C908 C907 1.366 . S
C908 C909 1.414 . S
C908 C911 1.499 . S
C909 H883 0.950 . S
C909 C908 1.414 . S
C909 C910 1.374 . S
C910 H884 0.950 . S
C910 C906 1.385 . S
C910 C909 1.374 . S
C911 C908 1.499 . S
C911 C912 1.373 . S
C911 C913 1.389 . S
C912 H885 0.950 . S
C912 C898 1.377 . S
C912 C911 1.373 . S
C913 C897 1.377 . S
C913 C911 1.389 . S
C913 C914 1.524 . S
C914 C913 1.524 . S
C914 C915 1.397 . S
C914 C919 1.363 . S
C915 H886 0.950 . S
C915 C914 1.397 . S
C915 C916 1.334 . S
C916 H887 0.950 . S
C916 C915 1.334 . S
C916 C917 1.287 . S
C917 C916 1.287 . S
C917 C918 1.524 . S
C917 H920 0.999 . S
C918 H888 0.950 . S
C918 C917 1.524 . S
C918 C919 1.415 . S
C919 H889 0.950 . S
C919 C914 1.363 . S
C919 C918 1.415 . S
H920 C917 0.999 . S
H921 C902 0.913 . S
H922 C940 0.951 . S
H923 C942 0.951 . S
H924 C944 0.950 . S
H925 C945 0.950 . S
H926 C947 0.950 . S
H927 C950 0.950 . S
H928 C951 0.950 . S
H929 C953 0.950 . S
H930 C954 0.950 . S
H931 C955 0.951 . S
H932 C957 0.951 . S
H933 C959 0.950 . S
H934 C960 0.950 . S
H935 C962 0.950 . S
H936 C965 0.950 . S
H937 C966 0.950 . S
H938 C968 0.950 . S
H939 C969 0.950 . S
C940 H922 0.951 . S
C940 C941 1.366 . S
C940 C942 1.388 . S
C941 C940 1.366 . S
C941 C945 1.385 . S
C942 H923 0.951 . S
C942 C940 1.388 . S
C942 C943 1.366 . S
C943 C942 1.366 . S
C943 C944 1.414 . S
C943 C946 1.499 . S
C944 H924 0.950 . S
C944 C943 1.414 . S
C944 C945 1.374 . S
C945 H925 0.950 . S
C945 C941 1.385 . S
C945 C944 1.374 . S
C946 C943 1.499 . S
C946 C947 1.373 . S
C946 C948 1.389 . S
C947 H926 0.950 . S
C947 C946 1.373 . S
C947 C963 1.377 . S
C948 C946 1.389 . S
C948 C949 1.524 . S
C948 C962 1.377 . S
C949 C948 1.524 . S
C949 C950 1.397 . S
C949 C954 1.363 . S
C950 H927 0.950 . S
C950 C949 1.397 . S
C950 C951 1.334 . S
C951 H928 0.950 . S
C951 C950 1.334 . S
C951 C952 1.287 . S
C952 C951 1.287 . S
C952 C953 1.524 . S
C952 H971 0.913 . S
C953 H929 0.950 . S
C953 C952 1.524 . S
C953 C954 1.415 . S
C954 H930 0.950 . S
C954 C949 1.363 . S
C954 C953 1.415 . S
C955 H931 0.951 . S
C955 C956 1.366 . S
C955 C957 1.388 . S
C956 C955 1.366 . S
C956 C960 1.385 . S
C957 H932 0.951 . S
C957 C955 1.388 . S
C957 C958 1.366 . S
C958 C957 1.366 . S
C958 C959 1.414 . S
C958 C961 1.499 . S
C959 H933 0.950 . S
C959 C958 1.414 . S
C959 C960 1.374 . S
C960 H934 0.950 . S
C960 C956 1.385 . S
C960 C959 1.374 . S
C961 C958 1.499 . S
C961 C962 1.373 . S
C961 C963 1.389 . S
C962 H935 0.950 . S
C962 C948 1.377 . S
C962 C961 1.373 . S
C963 C947 1.377 . S
C963 C961 1.389 . S
C963 C964 1.524 . S
C964 C963 1.524 . S
C964 C965 1.397 . S
C964 C969 1.363 . S
C965 H936 0.950 . S
C965 C964 1.397 . S
C965 C966 1.334 . S
C966 H937 0.950 . S
C966 C965 1.334 . S
C966 C967 1.287 . S
C967 C966 1.287 . S
C967 C968 1.524 . S
C967 H970 0.999 . S
C968 H938 0.950 . S
C968 C967 1.524 . S
C968 C969 1.415 . S
C969 H939 0.950 . S
C969 C964 1.363 . S
C969 C968 1.415 . S
H970 C967 0.999 . S
H971 C952 0.913 . S
H972 C990 0.951 . S
H973 C992 0.951 . S
H974 C994 0.950 . S
H975 C995 0.950 . S
H976 C997 0.950 . S
H977 C1000 0.950 . S
H978 C1001 0.950 . S
H979 C1003 0.950 . S
H980 C1004 0.950 1_554 S
H981 C1005 0.951 . S
H982 C1007 0.951 . S
H983 C1009 0.950 . S
H984 C1010 0.950 . S
H985 C1012 0.950 . S
H986 C1015 0.950 . S
H987 C1016 0.950 . S
H988 C1018 0.950 . S
H989 C1019 0.950 . S
C990 H972 0.951 . S
C990 C991 1.366 . S
C990 C992 1.388 . S
C991 C990 1.366 . S
C991 C995 1.385 . S
C992 H973 0.951 . S
C992 C990 1.388 . S
C992 C993 1.366 . S
C993 C992 1.366 . S
C993 C994 1.414 . S
C993 C996 1.499 . S
C994 H974 0.950 . S
C994 C993 1.414 . S
C994 C995 1.374 . S
C995 H975 0.950 . S
C995 C991 1.385 . S
C995 C994 1.374 . S
C996 C993 1.499 . S
C996 C997 1.373 . S
C996 C998 1.389 . S
C997 H976 0.950 . S
C997 C996 1.373 . S
C997 C1013 1.377 . S
C998 C996 1.389 . S
C998 C999 1.524 . S
C998 C1012 1.377 . S
C999 C998 1.524 . S
C999 C1000 1.397 1_554 S
C999 C1004 1.363 1_554 S
C1000 H977 0.950 . S
C1000 C999 1.397 1_556 S
C1000 C1001 1.334 . S
C1001 H978 0.950 . S
C1001 C1000 1.334 . S
C1001 C1002 1.287 . S
C1002 C1001 1.287 . S
C1002 C1003 1.524 . S
C1002 H1021 0.913 . S
C1003 H979 0.950 . S
C1003 C1002 1.524 . S
C1003 C1004 1.415 . S
C1004 H980 0.950 1_556 S
C1004 C999 1.363 1_556 S
C1004 C1003 1.415 . S
C1005 H981 0.951 . S
C1005 C1006 1.366 . S
C1005 C1007 1.388 . S
C1006 C1005 1.366 . S
C1006 C1010 1.385 . S
C1007 H982 0.951 . S
C1007 C1005 1.388 . S
C1007 C1008 1.366 . S
C1008 C1007 1.366 . S
C1008 C1009 1.414 . S
C1008 C1011 1.499 . S
C1009 H983 0.950 . S
C1009 C1008 1.414 . S
C1009 C1010 1.374 . S
C1010 H984 0.950 . S
C1010 C1006 1.385 . S
C1010 C1009 1.374 . S
C1011 C1008 1.499 . S
C1011 C1012 1.373 . S
C1011 C1013 1.389 . S
C1012 H985 0.950 . S
C1012 C998 1.377 . S
C1012 C1011 1.373 . S
C1013 C997 1.377 . S
C1013 C1011 1.389 . S
C1013 C1014 1.524 . S
C1014 C1013 1.524 . S
C1014 C1015 1.397 . S
C1014 C1019 1.363 . S
C1015 H986 0.950 . S
C1015 C1014 1.397 . S
C1015 C1016 1.334 . S
C1016 H987 0.950 . S
C1016 C1015 1.334 . S
C1016 C1017 1.287 . S
C1017 C1016 1.287 . S
C1017 C1018 1.524 . S
C1017 H1020 0.999 . S
C1018 H988 0.950 . S
C1018 C1017 1.524 . S
C1018 C1019 1.415 . S
C1019 H989 0.950 . S
C1019 C1014 1.363 . S
C1019 C1018 1.415 . S
H1020 C1017 0.999 . S
H1021 C1002 0.913 . S
H1022 C1040 0.951 . S
H1023 C1042 0.951 . S
H1024 C1044 0.950 . S
H1025 C1045 0.950 . S
H1026 C1047 0.950 . S
H1027 C1050 0.950 . S
H1028 C1051 0.950 . S
H1029 C1053 0.950 . S
H1030 C1054 0.950 . S
H1031 C1055 0.951 . S
H1032 C1057 0.951 . S
H1033 C1059 0.950 . S
H1034 C1060 0.950 . S
H1035 C1062 0.950 . S
H1036 C1065 0.950 . S
H1037 C1066 0.950 . S
H1038 C1068 0.950 . S
H1039 C1069 0.950 . S
C1040 H1022 0.951 . S
C1040 C1041 1.366 . S
C1040 C1042 1.388 . S
C1041 C1040 1.366 . S
C1041 C1045 1.385 . S
C1042 H1023 0.951 . S
C1042 C1040 1.388 . S
C1042 C1043 1.366 . S
C1043 C1042 1.366 . S
C1043 C1044 1.414 . S
C1043 C1046 1.499 . S
C1044 H1024 0.950 . S
C1044 C1043 1.414 . S
C1044 C1045 1.374 . S
C1045 H1025 0.950 . S
C1045 C1041 1.385 . S
C1045 C1044 1.374 . S
C1046 C1043 1.499 . S
C1046 C1047 1.373 . S
C1046 C1048 1.389 . S
C1047 H1026 0.950 . S
C1047 C1046 1.373 . S
C1047 C1063 1.377 . S
C1048 C1046 1.389 . S
C1048 C1049 1.524 . S
C1048 C1062 1.377 . S
C1049 C1048 1.524 . S
C1049 C1050 1.397 . S
C1049 C1054 1.363 . S
C1050 H1027 0.950 . S
C1050 C1049 1.397 . S
C1050 C1051 1.334 . S
C1051 H1028 0.950 . S
C1051 C1050 1.334 . S
C1051 C1052 1.287 . S
C1052 C1051 1.287 . S
C1052 C1053 1.524 . S
C1052 H1071 0.913 . S
C1053 H1029 0.950 . S
C1053 C1052 1.524 . S
C1053 C1054 1.415 . S
C1054 H1030 0.950 . S
C1054 C1049 1.363 . S
C1054 C1053 1.415 . S
C1055 H1031 0.951 . S
C1055 C1056 1.366 . S
C1055 C1057 1.388 . S
C1056 C1055 1.366 . S
C1056 C1060 1.385 . S
C1057 H1032 0.951 . S
C1057 C1055 1.388 . S
C1057 C1058 1.366 . S
C1058 C1057 1.366 . S
C1058 C1059 1.414 . S
C1058 C1061 1.499 . S
C1059 H1033 0.950 . S
C1059 C1058 1.414 . S
C1059 C1060 1.374 . S
C1060 H1034 0.950 . S
C1060 C1056 1.385 . S
C1060 C1059 1.374 . S
C1061 C1058 1.499 . S
C1061 C1062 1.373 . S
C1061 C1063 1.389 . S
C1062 H1035 0.950 . S
C1062 C1048 1.377 . S
C1062 C1061 1.373 . S
C1063 C1047 1.377 . S
C1063 C1061 1.389 . S
C1063 C1064 1.524 . S
C1064 C1063 1.524 . S
C1064 C1065 1.397 . S
C1064 C1069 1.363 . S
C1065 H1036 0.950 . S
C1065 C1064 1.397 . S
C1065 C1066 1.334 . S
C1066 H1037 0.950 . S
C1066 C1065 1.334 . S
C1066 C1067 1.287 . S
C1067 C1066 1.287 . S
C1067 C1068 1.524 . S
C1067 H1070 0.999 . S
C1068 H1038 0.950 . S
C1068 C1067 1.524 . S
C1068 C1069 1.415 . S
C1069 H1039 0.950 . S
C1069 C1064 1.363 . S
C1069 C1068 1.415 . S
H1070 C1067 0.999 . S
H1071 C1052 0.913 . S
H1072 C1090 0.951 . S
H1073 C1092 0.951 . S
H1074 C1094 0.950 . S
H1075 C1095 0.950 . S
H1076 C1097 0.950 . S
H1077 C1100 0.950 . S
H1078 C1101 0.950 . S
H1079 C1103 0.950 . S
H1080 C1104 0.950 . S
H1081 C1105 0.951 . S
H1082 C1107 0.951 . S
H1083 C1109 0.950 . S
H1084 C1110 0.950 . S
H1085 C1112 0.950 . S
H1086 C1115 0.950 . S
H1087 C1116 0.950 . S
H1088 C1118 0.950 . S
H1089 C1119 0.950 . S
C1090 H1072 0.951 . S
C1090 C1091 1.366 . S
C1090 C1092 1.388 . S
C1091 C1090 1.366 . S
C1091 C1095 1.385 . S
C1092 H1073 0.951 . S
C1092 C1090 1.388 . S
C1092 C1093 1.366 . S
C1093 C1092 1.366 . S
C1093 C1094 1.414 . S
C1093 C1096 1.499 . S
C1094 H1074 0.950 . S
C1094 C1093 1.414 . S
C1094 C1095 1.374 . S
C1095 H1075 0.950 . S
C1095 C1091 1.385 . S
C1095 C1094 1.374 . S
C1096 C1093 1.499 . S
C1096 C1097 1.373 . S
C1096 C1098 1.389 . S
C1097 H1076 0.950 . S
C1097 C1096 1.373 . S
C1097 C1113 1.377 . S
C1098 C1096 1.389 . S
C1098 C1099 1.524 . S
C1098 C1112 1.377 . S
C1099 C1098 1.524 . S
C1099 C1100 1.397 . S
C1099 C1104 1.363 . S
C1100 H1077 0.950 . S
C1100 C1099 1.397 . S
C1100 C1101 1.334 . S
C1101 H1078 0.950 . S
C1101 C1100 1.334 . S
C1101 C1102 1.287 . S
C1102 C1101 1.287 . S
C1102 C1103 1.524 . S
C1102 H1121 0.913 . S
C1103 H1079 0.950 . S
C1103 C1102 1.524 . S
C1103 C1104 1.415 . S
C1104 H1080 0.950 . S
C1104 C1099 1.363 . S
C1104 C1103 1.415 . S
C1105 H1081 0.951 . S
C1105 C1106 1.366 . S
C1105 C1107 1.388 . S
C1106 C1105 1.366 . S
C1106 C1110 1.385 . S
C1107 H1082 0.951 . S
C1107 C1105 1.388 . S
C1107 C1108 1.366 . S
C1108 C1107 1.366 . S
C1108 C1109 1.414 . S
C1108 C1111 1.499 . S
C1109 H1083 0.950 . S
C1109 C1108 1.414 . S
C1109 C1110 1.374 . S
C1110 H1084 0.950 . S
C1110 C1106 1.385 . S
C1110 C1109 1.374 . S
C1111 C1108 1.499 . S
C1111 C1112 1.373 . S
C1111 C1113 1.389 . S
C1112 H1085 0.950 . S
C1112 C1098 1.377 . S
C1112 C1111 1.373 . S
C1113 C1097 1.377 . S
C1113 C1111 1.389 . S
C1113 C1114 1.524 . S
C1114 C1113 1.524 . S
C1114 C1115 1.397 . S
C1114 C1119 1.363 . S
C1115 H1086 0.950 . S
C1115 C1114 1.397 . S
C1115 C1116 1.334 . S
C1116 H1087 0.950 . S
C1116 C1115 1.334 . S
C1116 C1117 1.287 . S
C1117 C1116 1.287 . S
C1117 C1118 1.524 . S
C1117 H1120 0.999 . S
C1118 H1088 0.950 . S
C1118 C1117 1.524 . S
C1118 C1119 1.415 . S
C1119 H1089 0.950 . S
C1119 C1114 1.363 . S
C1119 C1118 1.415 . S
H1120 C1117 0.999 . S
H1121 C1102 0.913 . S
H1122 C1140 0.951 . S
H1123 C1142 0.951 . S
H1124 C1144 0.950 . S
H1125 C1145 0.950 . S
H1126 C1147 0.950 . S
H1127 C1150 0.950 . S
H1128 C1151 0.950 . S
H1129 C1153 0.950 . S
H1130 C1154 0.950 . S
H1131 C1155 0.951 . S
H1132 C1157 0.951 . S
H1133 C1159 0.950 . S
H1134 C1160 0.950 . S
H1135 C1162 0.950 . S
H1136 C1165 0.950 . S
H1137 C1166 0.950 . S
H1138 C1168 0.950 . S
H1139 C1169 0.950 . S
C1140 H1122 0.951 . S
C1140 C1141 1.366 . S
C1140 C1142 1.388 . S
C1141 C1140 1.366 . S
C1141 C1145 1.385 . S
C1142 H1123 0.951 . S
C1142 C1140 1.388 . S
C1142 C1143 1.366 . S
C1143 C1142 1.366 . S
C1143 C1144 1.414 . S
C1143 C1146 1.499 . S
C1144 H1124 0.950 . S
C1144 C1143 1.414 . S
C1144 C1145 1.374 . S
C1145 H1125 0.950 . S
C1145 C1141 1.385 . S
C1145 C1144 1.374 . S
C1146 C1143 1.499 . S
C1146 C1147 1.373 . S
C1146 C1148 1.389 . S
C1147 H1126 0.950 . S
C1147 C1146 1.373 . S
C1147 C1163 1.377 . S
C1148 C1146 1.389 . S
C1148 C1149 1.524 . S
C1148 C1162 1.377 . S
C1149 C1148 1.524 . S
C1149 C1150 1.397 . S
C1149 C1154 1.363 . S
C1150 H1127 0.950 . S
C1150 C1149 1.397 . S
C1150 C1151 1.334 . S
C1151 H1128 0.950 . S
C1151 C1150 1.334 . S
C1151 C1152 1.287 . S
C1152 C1151 1.287 . S
C1152 C1153 1.524 . S
C1152 H1171 0.913 . S
C1153 H1129 0.950 . S
C1153 C1152 1.524 . S
C1153 C1154 1.415 . S
C1154 H1130 0.950 . S
C1154 C1149 1.363 . S
C1154 C1153 1.415 . S
C1155 H1131 0.951 . S
C1155 C1156 1.366 . S
C1155 C1157 1.388 . S
C1156 C1155 1.366 . S
C1156 C1160 1.385 . S
C1157 H1132 0.951 . S
C1157 C1155 1.388 . S
C1157 C1158 1.366 . S
C1158 C1157 1.366 . S
C1158 C1159 1.414 . S
C1158 C1161 1.499 . S
C1159 H1133 0.950 . S
C1159 C1158 1.414 . S
C1159 C1160 1.374 . S
C1160 H1134 0.950 . S
C1160 C1156 1.385 . S
C1160 C1159 1.374 . S
C1161 C1158 1.499 . S
C1161 C1162 1.373 . S
C1161 C1163 1.389 . S
C1162 H1135 0.950 . S
C1162 C1148 1.377 . S
C1162 C1161 1.373 . S
C1163 C1147 1.377 . S
C1163 C1161 1.389 . S
C1163 C1164 1.524 . S
C1164 C1163 1.524 . S
C1164 C1165 1.397 . S
C1164 C1169 1.363 . S
C1165 H1136 0.950 . S
C1165 C1164 1.397 . S
C1165 C1166 1.334 . S
C1166 H1137 0.950 . S
C1166 C1165 1.334 . S
C1166 C1167 1.287 . S
C1167 C1166 1.287 . S
C1167 C1168 1.524 . S
C1167 H1170 0.999 . S
C1168 H1138 0.950 . S
C1168 C1167 1.524 . S
C1168 C1169 1.415 . S
C1169 H1139 0.950 . S
C1169 C1164 1.363 . S
C1169 C1168 1.415 . S
H1170 C1167 0.999 . S
H1171 C1152 0.913 . S
H1172 C1190 0.951 . S
H1173 C1192 0.951 . S
H1174 C1194 0.950 . S
H1175 C1195 0.950 . S
H1176 C1197 0.950 . S
H1177 C1200 0.950 . S
H1178 C1201 0.950 . S
H1179 C1203 0.950 . S
H1180 C1204 0.950 . S
H1181 C1205 0.951 . S
H1182 C1207 0.951 . S
H1183 C1209 0.950 . S
H1184 C1210 0.950 . S
H1185 C1212 0.950 . S
H1186 C1215 0.950 . S
H1187 C1216 0.950 . S
H1188 C1218 0.950 . S
H1189 C1219 0.950 . S
C1190 H1172 0.951 . S
C1190 C1191 1.366 . S
C1190 C1192 1.388 . S
C1191 C1190 1.366 . S
C1191 C1195 1.385 . S
C1192 H1173 0.951 . S
C1192 C1190 1.388 . S
C1192 C1193 1.366 . S
C1193 C1192 1.366 . S
C1193 C1194 1.414 . S
C1193 C1196 1.499 . S
C1194 H1174 0.950 . S
C1194 C1193 1.414 . S
C1194 C1195 1.374 . S
C1195 H1175 0.950 . S
C1195 C1191 1.385 . S
C1195 C1194 1.374 . S
C1196 C1193 1.499 . S
C1196 C1197 1.373 . S
C1196 C1198 1.389 . S
C1197 H1176 0.950 . S
C1197 C1196 1.373 . S
C1197 C1213 1.377 . S
C1198 C1196 1.389 . S
C1198 C1199 1.524 . S
C1198 C1212 1.377 . S
C1199 C1198 1.524 . S
C1199 C1200 1.397 . S
C1199 C1204 1.363 . S
C1200 H1177 0.950 . S
C1200 C1199 1.397 . S
C1200 C1201 1.334 . S
C1201 H1178 0.950 . S
C1201 C1200 1.334 . S
C1201 C1202 1.287 . S
C1202 C1201 1.287 . S
C1202 C1203 1.524 . S
C1202 H1221 0.913 . S
C1203 H1179 0.950 . S
C1203 C1202 1.524 . S
C1203 C1204 1.415 . S
C1204 H1180 0.950 . S
C1204 C1199 1.363 . S
C1204 C1203 1.415 . S
C1205 H1181 0.951 . S
C1205 C1206 1.366 . S
C1205 C1207 1.388 . S
C1206 C1205 1.366 . S
C1206 C1210 1.385 . S
C1207 H1182 0.951 . S
C1207 C1205 1.388 . S
C1207 C1208 1.366 . S
C1208 C1207 1.366 . S
C1208 C1209 1.414 . S
C1208 C1211 1.499 . S
C1209 H1183 0.950 . S
C1209 C1208 1.414 . S
C1209 C1210 1.374 . S
C1210 H1184 0.950 . S
C1210 C1206 1.385 . S
C1210 C1209 1.374 . S
C1211 C1208 1.499 . S
C1211 C1212 1.373 . S
C1211 C1213 1.389 . S
C1212 H1185 0.950 . S
C1212 C1198 1.377 . S
C1212 C1211 1.373 . S
C1213 C1197 1.377 . S
C1213 C1211 1.389 . S
C1213 C1214 1.524 . S
C1214 C1213 1.524 . S
C1214 C1215 1.397 . S
C1214 C1219 1.363 . S
C1215 H1186 0.950 . S
C1215 C1214 1.397 . S
C1215 C1216 1.334 . S
C1216 H1187 0.950 . S
C1216 C1215 1.334 . S
C1216 C1217 1.287 . S
C1217 C1216 1.287 . S
C1217 C1218 1.524 . S
C1217 H1220 0.999 . S
C1218 H1188 0.950 . S
C1218 C1217 1.524 . S
C1218 C1219 1.415 . S
C1219 H1189 0.950 . S
C1219 C1214 1.363 . S
C1219 C1218 1.415 . S
H1220 C1217 0.999 . S
H1221 C1202 0.913 . S
H1222 C1240 0.951 . S
H1223 C1242 0.951 . S
H1224 C1244 0.950 . S
H1225 C1245 0.950 . S
H1226 C1247 0.950 . S
H1227 C1250 0.950 . S
H1228 C1251 0.950 . S
H1229 C1253 0.950 . S
H1230 C1254 0.950 . S
H1231 C1255 0.951 . S
H1232 C1257 0.951 . S
H1233 C1259 0.950 . S
H1234 C1260 0.950 . S
H1235 C1262 0.950 . S
H1236 C1265 0.950 . S
H1237 C1266 0.950 . S
H1238 C1268 0.950 . S
H1239 C1269 0.950 . S
C1240 H1222 0.951 . S
C1240 C1241 1.366 . S
C1240 C1242 1.388 . S
C1241 C1240 1.366 . S
C1241 C1245 1.385 . S
C1242 H1223 0.951 . S
C1242 C1240 1.388 . S
C1242 C1243 1.366 . S
C1243 C1242 1.366 . S
C1243 C1244 1.414 . S
C1243 C1246 1.499 . S
C1244 H1224 0.950 . S
C1244 C1243 1.414 . S
C1244 C1245 1.374 . S
C1245 H1225 0.950 . S
C1245 C1241 1.385 . S
C1245 C1244 1.374 . S
C1246 C1243 1.499 . S
C1246 C1247 1.373 . S
C1246 C1248 1.389 . S
C1247 H1226 0.950 . S
C1247 C1246 1.373 . S
C1247 C1263 1.377 . S
C1248 C1246 1.389 . S
C1248 C1249 1.524 . S
C1248 C1262 1.377 . S
C1249 C1248 1.524 . S
C1249 C1250 1.397 . S
C1249 C1254 1.363 . S
C1250 H1227 0.950 . S
C1250 C1249 1.397 . S
C1250 C1251 1.334 . S
C1251 H1228 0.950 . S
C1251 C1250 1.334 . S
C1251 C1252 1.287 . S
C1252 C1251 1.287 . S
C1252 C1253 1.524 . S
C1252 H1271 0.913 . S
C1253 H1229 0.950 . S
C1253 C1252 1.524 . S
C1253 C1254 1.415 . S
C1254 H1230 0.950 . S
C1254 C1249 1.363 . S
C1254 C1253 1.415 . S
C1255 H1231 0.951 . S
C1255 C1256 1.366 . S
C1255 C1257 1.388 . S
C1256 C1255 1.366 . S
C1256 C1260 1.385 . S
C1257 H1232 0.951 . S
C1257 C1255 1.388 . S
C1257 C1258 1.366 . S
C1258 C1257 1.366 . S
C1258 C1259 1.414 . S
C1258 C1261 1.499 . S
C1259 H1233 0.950 . S
C1259 C1258 1.414 . S
C1259 C1260 1.374 . S
C1260 H1234 0.950 . S
C1260 C1256 1.385 . S
C1260 C1259 1.374 . S
C1261 C1258 1.499 . S
C1261 C1262 1.373 . S
C1261 C1263 1.389 . S
C1262 H1235 0.950 . S
C1262 C1248 1.377 . S
C1262 C1261 1.373 . S
C1263 C1247 1.377 . S
C1263 C1261 1.389 . S
C1263 C1264 1.524 . S
C1264 C1263 1.524 . S
C1264 C1265 1.397 . S
C1264 C1269 1.363 . S
C1265 H1236 0.950 . S
C1265 C1264 1.397 . S
C1265 C1266 1.334 . S
C1266 H1237 0.950 . S
C1266 C1265 1.334 . S
C1266 C1267 1.287 . S
C1267 C1266 1.287 . S
C1267 C1268 1.524 . S
C1267 H1270 0.999 . S
C1268 H1238 0.950 . S
C1268 C1267 1.524 . S
C1268 C1269 1.415 . S
C1269 H1239 0.950 . S
C1269 C1264 1.363 . S
C1269 C1268 1.415 . S
H1270 C1267 0.999 . S
H1271 C1252 0.913 . S
H1272 C1290 0.951 . S
H1273 C1292 0.951 . S
H1274 C1294 0.950 . S
H1275 C1295 0.950 . S
H1276 C1297 0.950 . S
H1277 C1300 0.950 . S
H1278 C1301 0.950 . S
H1279 C1303 0.950 . S
H1280 C1304 0.950 . S
H1281 C1305 0.951 . S
H1282 C1307 0.951 . S
H1283 C1309 0.958 . S
H1284 C1310 0.950 . S
H1285 C1312 0.950 . S
H1286 C1315 0.966 . S
H1287 C1316 0.950 . S
H1288 C1318 0.950 . S
H1289 C1319 0.950 . S
C1290 H1272 0.951 . S
C1290 C1291 1.366 . S
C1290 C1292 1.388 . S
C1291 C1290 1.366 . S
C1291 C1295 1.385 . S
C1292 H1273 0.951 . S
C1292 C1290 1.388 . S
C1292 C1293 1.366 . S
C1293 C1292 1.366 . S
C1293 C1294 1.414 . S
C1293 C1296 1.499 . S
C1294 H1274 0.950 . S
C1294 C1293 1.414 . S
C1294 C1295 1.374 . S
C1295 H1275 0.950 . S
C1295 C1291 1.385 . S
C1295 C1294 1.374 . S
C1296 C1293 1.499 . S
C1296 C1297 1.373 . S
C1296 C1298 1.389 . S
C1297 H1276 0.950 . S
C1297 C1296 1.373 . S
C1297 C1313 1.377 . S
C1298 C1296 1.389 . S
C1298 C1299 1.524 . S
C1298 C1312 1.377 . S
C1299 C1298 1.524 . S
C1299 C1300 1.397 . S
C1299 C1304 1.363 . S
C1300 H1277 0.950 . S
C1300 C1299 1.397 . S
C1300 C1301 1.334 . S
C1301 H1278 0.950 . S
C1301 C1300 1.334 . S
C1301 C1302 1.287 . S
C1302 C1301 1.287 . S
C1302 C1303 1.524 . S
C1302 H1321 0.913 . S
C1303 H1279 0.950 . S
C1303 C1302 1.524 . S
C1303 C1304 1.415 . S
C1304 H1280 0.950 . S
C1304 C1299 1.363 . S
C1304 C1303 1.415 . S
C1305 H1281 0.951 . S
C1305 C1306 1.366 . S
C1305 C1307 1.388 1_554 S
C1306 C1305 1.366 . S
C1306 C1310 1.385 . S
C1307 H1282 0.951 . S
C1307 C1305 1.388 1_556 S
C1307 C1308 1.366 . S
C1308 C1307 1.366 . S
C1308 C1309 1.414 1_556 S
C1308 C1311 1.499 . S
C1309 H1283 0.958 . S
C1309 C1308 1.414 1_554 S
C1309 C1310 1.374 . S
C1310 H1284 0.950 . S
C1310 C1306 1.385 . S
C1310 C1309 1.374 . S
C1311 C1308 1.499 . S
C1311 C1312 1.373 . S
C1311 C1313 1.389 . S
C1312 H1285 0.950 . S
C1312 C1298 1.377 . S
C1312 C1311 1.373 . S
C1313 C1297 1.377 . S
C1313 C1311 1.389 . S
C1313 C1314 1.524 . S
C1314 C1313 1.524 . S
C1314 C1315 1.397 . S
C1314 C1319 1.363 . S
C1315 H1286 0.966 . S
C1315 C1314 1.397 . S
C1315 C1316 1.334 1_556 S
C1316 H1287 0.950 . S
C1316 C1315 1.334 1_554 S
C1316 C1317 1.303 . S
C1317 C1316 1.303 . S
C1317 C1318 1.484 1_554 S
C1317 H1320 1.026 . S
C1318 H1288 0.950 . S
C1318 C1317 1.484 1_556 S
C1318 C1319 1.415 . S
C1319 H1289 0.950 . S
C1319 C1314 1.363 . S
C1319 C1318 1.415 . S
H1320 C1317 1.026 . S
H1321 C1302 0.913 . S
H1322 C1340 0.951 1_565 S
H1323 C1342 0.951 . S
H1324 C1344 0.950 . S
H1325 C1345 0.950 . S
H1326 C1347 0.950 1_545 S
H1327 C1350 0.950 . S
H1328 C1351 0.950 . S
H1329 C1353 0.950 . S
H1330 C1354 0.950 . S
H1331 C1355 0.951 . S
H1332 C1357 0.951 . S
H1333 C1359 0.950 . S
H1334 C1360 0.950 . S
H1335 C1362 0.950 . S
H1336 C1365 0.950 . S
H1337 C1366 0.950 . S
H1338 C1368 0.950 . S
H1339 C1369 0.950 . S
C1340 H1322 0.951 1_545 S
C1340 C1341 1.366 . S
C1340 C1342 1.388 1_545 S
C1341 C1340 1.366 . S
C1341 C1345 1.385 . S
C1342 H1323 0.951 . S
C1342 C1340 1.388 1_565 S
C1342 C1343 1.366 . S
C1343 C1342 1.366 . S
C1343 C1344 1.414 1_565 S
C1343 C1346 1.499 . S
C1344 H1324 0.950 . S
C1344 C1343 1.414 1_545 S
C1344 C1345 1.374 . S
C1345 H1325 0.950 . S
C1345 C1341 1.385 . S
C1345 C1344 1.374 . S
C1346 C1343 1.499 . S
C1346 C1347 1.373 . S
C1346 C1348 1.389 . S
C1347 H1326 0.950 1_565 S
C1347 C1346 1.373 . S
C1347 C1363 1.377 . S
C1348 C1346 1.389 . S
C1348 C1349 1.524 . S
C1348 C1362 1.377 . S
C1349 C1348 1.524 . S
C1349 C1350 1.397 . S
C1349 C1354 1.363 . S
C1350 H1327 0.950 . S
C1350 C1349 1.397 . S
C1350 C1351 1.334 . S
C1351 H1328 0.950 . S
C1351 C1350 1.334 . S
C1351 C1352 1.287 . S
C1352 C1351 1.287 . S
C1352 C1353 1.524 . S
C1352 H1371 0.913 . S
C1353 H1329 0.950 . S
C1353 C1352 1.524 . S
C1353 C1354 1.415 . S
C1354 H1330 0.950 . S
C1354 C1349 1.363 . S
C1354 C1353 1.415 . S
C1355 H1331 0.951 . S
C1355 C1356 1.366 . S
C1355 C1357 1.388 . S
C1356 C1355 1.366 . S
C1356 C1360 1.385 . S
C1357 H1332 0.951 . S
C1357 C1355 1.388 . S
C1357 C1358 1.366 . S
C1358 C1357 1.366 . S
C1358 C1359 1.414 . S
C1358 C1361 1.499 . S
C1359 H1333 0.950 . S
C1359 C1358 1.414 . S
C1359 C1360 1.374 . S
C1360 H1334 0.950 . S
C1360 C1356 1.385 . S
C1360 C1359 1.374 . S
C1361 C1358 1.499 . S
C1361 C1362 1.373 . S
C1361 C1363 1.389 . S
C1362 H1335 0.950 . S
C1362 C1348 1.377 . S
C1362 C1361 1.373 . S
C1363 C1347 1.377 . S
C1363 C1361 1.389 . S
C1363 C1364 1.524 1_565 S
C1364 C1363 1.524 1_545 S
C1364 C1365 1.397 1_545 S
C1364 C1369 1.363 . S
C1365 H1336 0.950 . S
C1365 C1364 1.397 1_565 S
C1365 C1366 1.334 1_565 S
C1366 H1337 0.950 . S
C1366 C1365 1.334 1_545 S
C1366 C1367 1.287 . S
C1367 C1366 1.287 . S
C1367 C1368 1.524 . S
C1367 H1370 0.999 . S
C1368 H1338 0.950 . S
C1368 C1367 1.524 . S
C1368 C1369 1.415 . S
C1369 H1339 0.950 . S
C1369 C1364 1.363 . S
C1369 C1368 1.415 . S
H1370 C1367 0.999 . S
H1371 C1352 0.913 . S
H1372 C1390 0.951 . S
H1373 C1392 0.951 . S
H1374 C1394 0.950 . S
H1375 C1395 0.950 . S
H1376 C1397 0.950 . S
H1377 C1400 0.950 . S
H1378 C1401 0.950 . S
H1379 C1403 0.950 . S
H1380 C1404 0.950 . S
H1381 C1405 0.951 . S
H1382 C1407 0.951 . S
H1383 C1409 0.950 . S
H1384 C1410 0.950 . S
H1385 C1412 0.950 . S
H1386 C1415 0.950 . S
H1387 C1416 0.950 . S
H1388 C1418 0.950 . S
H1389 C1419 0.950 . S
C1390 H1372 0.951 . S
C1390 C1391 1.366 . S
C1390 C1392 1.388 . S
C1391 C1390 1.366 . S
C1391 C1395 1.385 . S
C1392 H1373 0.951 . S
C1392 C1390 1.388 . S
C1392 C1393 1.366 . S
C1393 C1392 1.366 . S
C1393 C1394 1.414 . S
C1393 C1396 1.499 . S
C1394 H1374 0.950 . S
C1394 C1393 1.414 . S
C1394 C1395 1.374 . S
C1395 H1375 0.950 . S
C1395 C1391 1.385 . S
C1395 C1394 1.374 . S
C1396 C1393 1.499 . S
C1396 C1397 1.373 . S
C1396 C1398 1.389 . S
C1397 H1376 0.950 . S
C1397 C1396 1.373 . S
C1397 C1413 1.377 . S
C1398 C1396 1.389 . S
C1398 C1399 1.524 . S
C1398 C1412 1.377 . S
C1399 C1398 1.524 . S
C1399 C1400 1.397 . S
C1399 C1404 1.363 . S
C1400 H1377 0.950 . S
C1400 C1399 1.397 . S
C1400 C1401 1.334 . S
C1401 H1378 0.950 . S
C1401 C1400 1.334 . S
C1401 C1402 1.287 . S
C1402 C1401 1.287 . S
C1402 C1403 1.524 . S
C1402 H1421 0.913 . S
C1403 H1379 0.950 . S
C1403 C1402 1.524 . S
C1403 C1404 1.415 . S
C1404 H1380 0.950 . S
C1404 C1399 1.363 . S
C1404 C1403 1.415 . S
C1405 H1381 0.951 . S
C1405 C1406 1.366 . S
C1405 C1407 1.388 . S
C1406 C1405 1.366 . S
C1406 C1410 1.385 . S
C1407 H1382 0.951 . S
C1407 C1405 1.388 . S
C1407 C1408 1.366 . S
C1408 C1407 1.366 . S
C1408 C1409 1.414 . S
C1408 C1411 1.499 . S
C1409 H1383 0.950 . S
C1409 C1408 1.414 . S
C1409 C1410 1.374 . S
C1410 H1384 0.950 . S
C1410 C1406 1.385 . S
C1410 C1409 1.374 . S
C1411 C1408 1.499 . S
C1411 C1412 1.373 . S
C1411 C1413 1.389 . S
C1412 H1385 0.950 . S
C1412 C1398 1.377 . S
C1412 C1411 1.373 . S
C1413 C1397 1.377 . S
C1413 C1411 1.389 . S
C1413 C1414 1.524 . S
C1414 C1413 1.524 . S
C1414 C1415 1.397 . S
C1414 C1419 1.363 . S
C1415 H1386 0.950 . S
C1415 C1414 1.397 . S
C1415 C1416 1.334 . S
C1416 H1387 0.950 . S
C1416 C1415 1.334 . S
C1416 C1417 1.287 . S
C1417 C1416 1.287 . S
C1417 C1418 1.524 . S
C1417 H1420 0.999 . S
C1418 H1388 0.950 . S
C1418 C1417 1.524 . S
C1418 C1419 1.415 . S
C1419 H1389 0.950 . S
C1419 C1414 1.363 . S
C1419 C1418 1.415 . S
H1420 C1417 0.999 . S
H1421 C1402 0.913 . S
H1422 C1440 0.951 . S
H1423 C1442 0.951 . S
H1424 C1444 0.950 . S
H1425 C1445 0.950 1_545 S
H1426 C1447 0.950 . S
H1427 C1450 0.950 . S
H1428 C1451 0.950 . S
H1429 C1453 0.950 . S
H1430 C1454 0.950 . S
H1431 C1455 0.951 . S
H1432 C1457 0.951 . S
H1433 C1459 0.950 . S
H1434 C1460 0.950 . S
H1435 C1462 0.950 . S
H1436 C1465 0.954 1_565 S
H1437 C1466 0.950 . S
H1438 C1468 0.950 . S
H1439 C1469 0.953 . S
C1440 H1422 0.951 . S
C1440 C1441 1.366 . S
C1440 C1442 1.388 . S
C1441 C1440 1.366 . S
C1441 C1445 1.385 . S
C1442 H1423 0.951 . S
C1442 C1440 1.388 . S
C1442 C1443 1.366 . S
C1443 C1442 1.366 . S
C1443 C1444 1.414 . S
C1443 C1446 1.499 . S
C1444 H1424 0.950 . S
C1444 C1443 1.414 . S
C1444 C1445 1.374 . S
C1445 H1425 0.950 1_565 S
C1445 C1441 1.385 . S
C1445 C1444 1.374 . S
C1446 C1443 1.499 . S
C1446 C1447 1.373 . S
C1446 C1448 1.389 . S
C1447 H1426 0.950 . S
C1447 C1446 1.373 . S
C1447 C1463 1.377 . S
C1448 C1446 1.389 . S
C1448 C1449 1.524 . S
C1448 C1462 1.377 . S
C1449 C1448 1.524 . S
C1449 C1450 1.397 . S
C1449 C1454 1.363 . S
C1450 H1427 0.950 . S
C1450 C1449 1.397 . S
C1450 C1451 1.334 . S
C1451 H1428 0.950 . S
C1451 C1450 1.334 . S
C1451 C1452 1.287 . S
C1452 C1451 1.287 . S
C1452 C1453 1.524 . S
C1452 H1471 0.913 . S
C1453 H1429 0.950 . S
C1453 C1452 1.524 . S
C1453 C1454 1.415 . S
C1454 H1430 0.950 . S
C1454 C1449 1.363 . S
C1454 C1453 1.415 . S
C1455 H1431 0.951 . S
C1455 C1456 1.366 . S
C1455 C1457 1.388 . S
C1456 C1455 1.366 . S
C1456 C1460 1.385 . S
C1457 H1432 0.951 . S
C1457 C1455 1.388 . S
C1457 C1458 1.366 . S
C1458 C1457 1.366 . S
C1458 C1459 1.414 . S
C1458 C1461 1.499 . S
C1459 H1433 0.950 . S
C1459 C1458 1.414 . S
C1459 C1460 1.374 . S
C1460 H1434 0.950 . S
C1460 C1456 1.385 . S
C1460 C1459 1.374 . S
C1461 C1458 1.499 . S
C1461 C1462 1.373 . S
C1461 C1463 1.389 . S
C1462 H1435 0.950 . S
C1462 C1448 1.377 . S
C1462 C1461 1.373 . S
C1463 C1447 1.377 . S
C1463 C1461 1.389 . S
C1463 C1464 1.524 . S
C1464 C1463 1.524 . S
C1464 C1465 1.377 1_565 S
C1464 C1469 1.363 1_565 S
C1465 H1436 0.954 1_545 S
C1465 C1464 1.377 1_545 S
C1465 C1466 1.352 . S
C1466 H1437 0.950 . S
C1466 C1465 1.352 . S
C1466 C1467 1.287 . S
C1467 C1466 1.287 . S
C1467 C1468 1.524 . S
C1467 H1470 0.999 . S
C1468 H1438 0.950 . S
C1468 C1467 1.524 . S
C1468 C1469 1.415 . S
C1469 H1439 0.953 . S
C1469 C1464 1.363 1_545 S
C1469 C1468 1.415 . S
H1470 C1467 0.999 . S
H1471 C1452 0.913 . S
H1472 C1490 0.951 . S
H1473 C1492 0.951 . S
H1474 C1494 0.950 . S
H1475 C1495 0.950 . S
H1476 C1497 0.950 . S
H1477 C1500 0.950 . S
H1478 C1501 0.950 . S
H1479 C1503 0.950 . S
H1480 C1504 0.950 . S
H1481 C1505 0.951 . S
H1482 C1507 0.951 . S
H1483 C1509 0.950 . S
H1484 C1510 0.950 . S
H1485 C1512 0.950 . S
H1486 C1515 0.950 . S
H1487 C1516 0.950 . S
H1488 C1518 0.950 . S
H1489 C1519 0.950 . S
C1490 H1472 0.951 . S
C1490 C1491 1.366 . S
C1490 C1492 1.388 . S
C1491 C1490 1.366 . S
C1491 C1495 1.385 . S
C1492 H1473 0.951 . S
C1492 C1490 1.388 . S
C1492 C1493 1.366 . S
C1493 C1492 1.366 . S
C1493 C1494 1.414 . S
C1493 C1496 1.499 . S
C1494 H1474 0.950 . S
C1494 C1493 1.414 . S
C1494 C1495 1.374 . S
C1495 H1475 0.950 . S
C1495 C1491 1.385 . S
C1495 C1494 1.374 . S
C1496 C1493 1.499 . S
C1496 C1497 1.373 . S
C1496 C1498 1.389 . S
C1497 H1476 0.950 . S
C1497 C1496 1.373 . S
C1497 C1513 1.377 . S
C1498 C1496 1.389 . S
C1498 C1499 1.524 . S
C1498 C1512 1.377 . S
C1499 C1498 1.524 . S
C1499 C1500 1.397 . S
C1499 C1504 1.363 . S
C1500 H1477 0.950 . S
C1500 C1499 1.397 . S
C1500 C1501 1.334 . S
C1501 H1478 0.950 . S
C1501 C1500 1.334 . S
C1501 C1502 1.287 . S
C1502 C1501 1.287 . S
C1502 C1503 1.524 . S
C1502 H1521 0.913 . S
C1503 H1479 0.950 . S
C1503 C1502 1.524 . S
C1503 C1504 1.415 . S
C1504 H1480 0.950 . S
C1504 C1499 1.363 . S
C1504 C1503 1.415 . S
C1505 H1481 0.951 . S
C1505 C1506 1.366 . S
C1505 C1507 1.388 . S
C1506 C1505 1.366 . S
C1506 C1510 1.385 . S
C1507 H1482 0.951 . S
C1507 C1505 1.388 . S
C1507 C1508 1.366 . S
C1508 C1507 1.366 . S
C1508 C1509 1.414 . S
C1508 C1511 1.499 . S
C1509 H1483 0.950 . S
C1509 C1508 1.414 . S
C1509 C1510 1.374 . S
C1510 H1484 0.950 . S
C1510 C1506 1.385 . S
C1510 C1509 1.374 . S
C1511 C1508 1.499 . S
C1511 C1512 1.373 . S
C1511 C1513 1.389 . S
C1512 H1485 0.950 . S
C1512 C1498 1.377 . S
C1512 C1511 1.373 . S
C1513 C1497 1.377 . S
C1513 C1511 1.389 . S
C1513 C1514 1.524 . S
C1514 C1513 1.524 . S
C1514 C1515 1.397 . S
C1514 C1519 1.363 . S
C1515 H1486 0.950 . S
C1515 C1514 1.397 . S
C1515 C1516 1.334 . S
C1516 H1487 0.950 . S
C1516 C1515 1.334 . S
C1516 C1517 1.287 . S
C1517 C1516 1.287 . S
C1517 C1518 1.524 . S
C1517 H1520 0.999 . S
C1518 H1488 0.950 . S
C1518 C1517 1.524 . S
C1518 C1519 1.415 . S
C1519 H1489 0.950 . S
C1519 C1514 1.363 . S
C1519 C1518 1.415 . S
H1520 C1517 0.999 . S
H1521 C1502 0.913 . S
H1522 C1540 0.951 . S
H1523 C1542 0.951 . S
H1524 C1544 0.950 . S
H1525 C1545 0.950 . S
H1526 C1547 0.950 . S
H1527 C1550 0.950 . S
H1528 C1551 0.950 . S
H1529 C1553 0.950 . S
H1530 C1554 0.950 . S
H1531 C1555 0.951 . S
H1532 C1557 0.951 . S
H1533 C1559 0.950 . S
H1534 C1560 0.950 . S
H1535 C1562 0.950 . S
H1536 C1565 0.950 . S
H1537 C1566 0.950 . S
H1538 C1568 0.950 . S
H1539 C1569 0.950 . S
C1540 H1522 0.951 . S
C1540 C1541 1.366 . S
C1540 C1542 1.388 . S
C1541 C1540 1.366 . S
C1541 C1545 1.385 . S
C1542 H1523 0.951 . S
C1542 C1540 1.388 . S
C1542 C1543 1.366 . S
C1543 C1542 1.366 . S
C1543 C1544 1.414 . S
C1543 C1546 1.499 . S
C1544 H1524 0.950 . S
C1544 C1543 1.414 . S
C1544 C1545 1.374 . S
C1545 H1525 0.950 . S
C1545 C1541 1.385 . S
C1545 C1544 1.374 . S
C1546 C1543 1.499 . S
C1546 C1547 1.373 . S
C1546 C1548 1.389 . S
C1547 H1526 0.950 . S
C1547 C1546 1.373 . S
C1547 C1563 1.377 . S
C1548 C1546 1.389 . S
C1548 C1549 1.524 . S
C1548 C1562 1.377 . S
C1549 C1548 1.524 . S
C1549 C1550 1.397 . S
C1549 C1554 1.363 . S
C1550 H1527 0.950 . S
C1550 C1549 1.397 . S
C1550 C1551 1.334 . S
C1551 H1528 0.950 . S
C1551 C1550 1.334 . S
C1551 C1552 1.287 . S
C1552 C1551 1.287 . S
C1552 C1553 1.524 . S
C1552 H1571 0.913 . S
C1553 H1529 0.950 . S
C1553 C1552 1.524 . S
C1553 C1554 1.415 . S
C1554 H1530 0.950 . S
C1554 C1549 1.363 . S
C1554 C1553 1.415 . S
C1555 H1531 0.951 . S
C1555 C1556 1.366 . S
C1555 C1557 1.388 . S
C1556 C1555 1.366 . S
C1556 C1560 1.385 . S
C1557 H1532 0.951 . S
C1557 C1555 1.388 . S
C1557 C1558 1.366 . S
C1558 C1557 1.366 . S
C1558 C1559 1.414 . S
C1558 C1561 1.499 . S
C1559 H1533 0.950 . S
C1559 C1558 1.414 . S
C1559 C1560 1.374 . S
C1560 H1534 0.950 . S
C1560 C1556 1.385 . S
C1560 C1559 1.374 . S
C1561 C1558 1.499 . S
C1561 C1562 1.373 . S
C1561 C1563 1.389 . S
C1562 H1535 0.950 . S
C1562 C1548 1.377 . S
C1562 C1561 1.373 . S
C1563 C1547 1.377 . S
C1563 C1561 1.389 . S
C1563 C1564 1.524 . S
C1564 C1563 1.524 . S
C1564 C1565 1.397 . S
C1564 C1569 1.363 . S
C1565 H1536 0.950 . S
C1565 C1564 1.397 . S
C1565 C1566 1.334 . S
C1566 H1537 0.950 . S
C1566 C1565 1.334 . S
C1566 C1567 1.287 . S
C1567 C1566 1.287 . S
C1567 C1568 1.524 . S
C1567 H1570 0.999 . S
C1568 H1538 0.950 . S
C1568 C1567 1.524 . S
C1568 C1569 1.415 . S
C1569 H1539 0.950 . S
C1569 C1564 1.363 . S
C1569 C1568 1.415 . S
H1570 C1567 0.999 . S
H1571 C1552 0.913 . S
H1572 C1590 0.951 . S
H1573 C1592 0.951 . S
H1574 C1594 0.950 . S
H1575 C1595 0.950 . S
H1576 C1597 0.950 . S
H1577 C1600 0.950 . S
H1578 C1601 0.950 . S
H1579 C1603 0.950 . S
H1580 C1604 0.950 . S
H1581 C1605 0.951 . S
H1582 C1607 0.951 . S
H1583 C1609 0.950 . S
H1584 C1610 0.950 . S
H1585 C1612 0.950 . S
H1586 C1615 0.950 . S
H1587 C1616 0.950 . S
H1588 C1618 0.950 . S
H1589 C1619 0.950 . S
C1590 H1572 0.951 . S
C1590 C1591 1.366 . S
C1590 C1592 1.388 . S
C1591 C1590 1.366 . S
C1591 C1595 1.385 . S
C1592 H1573 0.951 . S
C1592 C1590 1.388 . S
C1592 C1593 1.366 . S
C1593 C1592 1.366 . S
C1593 C1594 1.414 . S
C1593 C1596 1.499 . S
C1594 H1574 0.950 . S
C1594 C1593 1.414 . S
C1594 C1595 1.374 . S
C1595 H1575 0.950 . S
C1595 C1591 1.385 . S
C1595 C1594 1.374 . S
C1596 C1593 1.499 . S
C1596 C1597 1.373 . S
C1596 C1598 1.389 . S
C1597 H1576 0.950 . S
C1597 C1596 1.373 . S
C1597 C1613 1.377 . S
C1598 C1596 1.389 . S
C1598 C1599 1.524 . S
C1598 C1612 1.377 . S
C1599 C1598 1.524 . S
C1599 C1600 1.397 . S
C1599 C1604 1.363 . S
C1600 H1577 0.950 . S
C1600 C1599 1.397 . S
C1600 C1601 1.334 . S
C1601 H1578 0.950 . S
C1601 C1600 1.334 . S
C1601 C1602 1.287 . S
C1602 C1601 1.287 . S
C1602 C1603 1.524 . S
C1602 H1621 0.913 . S
C1603 H1579 0.950 . S
C1603 C1602 1.524 . S
C1603 C1604 1.415 . S
C1604 H1580 0.950 . S
C1604 C1599 1.363 . S
C1604 C1603 1.415 . S
C1605 H1581 0.951 . S
C1605 C1606 1.366 . S
C1605 C1607 1.388 . S
C1606 C1605 1.366 . S
C1606 C1610 1.385 . S
C1607 H1582 0.951 . S
C1607 C1605 1.388 . S
C1607 C1608 1.366 . S
C1608 C1607 1.366 . S
C1608 C1609 1.414 . S
C1608 C1611 1.499 . S
C1609 H1583 0.950 . S
C1609 C1608 1.414 . S
C1609 C1610 1.374 . S
C1610 H1584 0.950 . S
C1610 C1606 1.385 . S
C1610 C1609 1.374 . S
C1611 C1608 1.499 . S
C1611 C1612 1.373 . S
C1611 C1613 1.389 . S
C1612 H1585 0.950 . S
C1612 C1598 1.377 . S
C1612 C1611 1.373 . S
C1613 C1597 1.377 . S
C1613 C1611 1.389 . S
C1613 C1614 1.524 . S
C1614 C1613 1.524 . S
C1614 C1615 1.397 . S
C1614 C1619 1.363 . S
C1615 H1586 0.950 . S
C1615 C1614 1.397 . S
C1615 C1616 1.334 . S
C1616 H1587 0.950 . S
C1616 C1615 1.334 . S
C1616 C1617 1.287 . S
C1617 C1616 1.287 . S
C1617 C1618 1.524 . S
C1617 H1620 0.999 . S
C1618 H1588 0.950 . S
C1618 C1617 1.524 . S
C1618 C1619 1.415 . S
C1619 H1589 0.950 . S
C1619 C1614 1.363 . S
C1619 C1618 1.415 . S
H1620 C1617 0.999 . S
H1621 C1602 0.913 . S
H1622 C1640 0.951 . S
H1623 C1642 0.951 . S
H1624 C1644 0.950 . S
H1625 C1645 0.950 . S
H1626 C1647 0.950 . S
H1627 C1650 0.950 . S
H1628 C1651 0.950 . S
H1629 C1653 0.950 . S
H1630 C1654 0.950 . S
H1631 C1655 0.951 . S
H1632 C1657 0.951 . S
H1633 C1659 0.950 . S
H1634 C1660 0.950 . S
H1635 C1662 0.972 . S
H1636 C1665 0.950 . S
H1637 C1666 0.954 . S
H1638 C1668 0.950 . S
H1639 C1669 0.950 . S
C1640 H1622 0.951 . S
C1640 C1641 1.366 . S
C1640 C1642 1.388 . S
C1641 C1640 1.366 . S
C1641 C1645 1.385 . S
C1642 H1623 0.951 . S
C1642 C1640 1.388 . S
C1642 C1643 1.366 . S
C1643 C1642 1.366 . S
C1643 C1644 1.414 . S
C1643 C1646 1.499 . S
C1644 H1624 0.950 . S
C1644 C1643 1.414 . S
C1644 C1645 1.374 . S
C1645 H1625 0.950 . S
C1645 C1641 1.385 . S
C1645 C1644 1.374 . S
C1646 C1643 1.499 . S
C1646 C1647 1.373 . S
C1646 C1648 1.389 . S
C1647 H1626 0.950 . S
C1647 C1646 1.373 . S
C1647 C1663 1.377 . S
C1648 C1646 1.389 . S
C1648 C1649 1.524 . S
C1648 C1662 1.377 . S
C1649 C1648 1.524 . S
C1649 C1650 1.397 . S
C1649 C1654 1.363 . S
C1650 H1627 0.950 . S
C1650 C1649 1.397 . S
C1650 C1651 1.334 . S
C1651 H1628 0.950 . S
C1651 C1650 1.334 . S
C1651 C1652 1.287 . S
C1652 C1651 1.287 . S
C1652 C1653 1.524 . S
C1652 H1671 0.913 . S
C1653 H1629 0.950 . S
C1653 C1652 1.524 . S
C1653 C1654 1.415 . S
C1654 H1630 0.950 . S
C1654 C1649 1.363 . S
C1654 C1653 1.415 . S
C1655 H1631 0.951 . S
C1655 C1656 1.366 . S
C1655 C1657 1.388 . S
C1656 C1655 1.366 . S
C1656 C1660 1.385 . S
C1657 H1632 0.951 . S
C1657 C1655 1.388 . S
C1657 C1658 1.366 . S
C1658 C1657 1.366 . S
C1658 C1659 1.414 . S
C1658 C1661 1.438 1_556 S
C1659 H1633 0.950 . S
C1659 C1658 1.414 . S
C1659 C1660 1.374 . S
C1660 H1634 0.950 . S
C1660 C1656 1.385 . S
C1660 C1659 1.374 . S
C1661 C1658 1.438 1_554 S
C1661 C1662 1.398 . S
C1661 C1663 1.427 . S
C1662 H1635 0.972 . S
C1662 C1648 1.377 . S
C1662 C1661 1.398 . S
C1663 C1647 1.377 . S
C1663 C1661 1.427 . S
C1663 C1664 1.524 . S
C1664 C1663 1.524 . S
C1664 C1665 1.397 . S
C1664 C1669 1.363 . S
C1665 H1636 0.950 . S
C1665 C1664 1.397 . S
C1665 C1666 1.331 1_554 S
C1666 H1637 0.954 . S
C1666 C1665 1.331 1_556 S
C1666 C1667 1.287 . S
C1667 C1666 1.287 . S
C1667 C1668 1.525 1_556 S
C1667 H1670 0.998 . S
C1668 H1638 0.950 . S
C1668 C1667 1.525 1_554 S
C1668 C1669 1.415 . S
C1669 H1639 0.950 . S
C1669 C1664 1.363 . S
C1669 C1668 1.415 . S
H1670 C1667 0.998 . S
H1671 C1652 0.913 . S
H1672 C1690 0.951 . S
H1673 C1692 0.951 . S
H1674 C1694 0.950 . S
H1675 C1695 0.950 . S
H1676 C1697 0.950 . S
H1677 C1700 0.950 . S
H1678 C1701 0.950 . S
H1679 C1703 0.950 . S
H1680 C1704 0.950 . S
H1681 C1705 0.951 . S
H1682 C1707 0.951 . S
H1683 C1709 0.950 . S
H1684 C1710 0.950 . S
H1685 C1712 0.950 . S
H1686 C1715 0.950 . S
H1687 C1716 0.950 . S
H1688 C1718 0.950 . S
H1689 C1719 0.950 . S
C1690 H1672 0.951 . S
C1690 C1691 1.366 . S
C1690 C1692 1.388 . S
C1691 C1690 1.366 . S
C1691 C1695 1.385 . S
C1692 H1673 0.951 . S
C1692 C1690 1.388 . S
C1692 C1693 1.366 . S
C1693 C1692 1.366 . S
C1693 C1694 1.414 . S
C1693 C1696 1.499 . S
C1694 H1674 0.950 . S
C1694 C1693 1.414 . S
C1694 C1695 1.374 . S
C1695 H1675 0.950 . S
C1695 C1691 1.385 . S
C1695 C1694 1.374 . S
C1696 C1693 1.499 . S
C1696 C1697 1.373 . S
C1696 C1698 1.389 . S
C1697 H1676 0.950 . S
C1697 C1696 1.373 . S
C1697 C1713 1.377 . S
C1698 C1696 1.389 . S
C1698 C1699 1.524 . S
C1698 C1712 1.377 . S
C1699 C1698 1.524 . S
C1699 C1700 1.397 . S
C1699 C1704 1.363 . S
C1700 H1677 0.950 . S
C1700 C1699 1.397 . S
C1700 C1701 1.334 . S
C1701 H1678 0.950 . S
C1701 C1700 1.334 . S
C1701 C1702 1.287 1_655 S
C1702 C1701 1.287 1_455 S
C1702 C1703 1.524 . S
C1702 H1721 0.913 . S
C1703 H1679 0.950 . S
C1703 C1702 1.524 . S
C1703 C1704 1.415 1_455 S
C1704 H1680 0.950 . S
C1704 C1699 1.363 . S
C1704 C1703 1.415 1_655 S
C1705 H1681 0.951 . S
C1705 C1706 1.366 . S
C1705 C1707 1.388 . S
C1706 C1705 1.366 . S
C1706 C1710 1.385 . S
C1707 H1682 0.951 . S
C1707 C1705 1.388 . S
C1707 C1708 1.366 . S
C1708 C1707 1.366 . S
C1708 C1709 1.414 . S
C1708 C1711 1.499 . S
C1709 H1683 0.950 . S
C1709 C1708 1.414 . S
C1709 C1710 1.374 . S
C1710 H1684 0.950 . S
C1710 C1706 1.385 . S
C1710 C1709 1.374 . S
C1711 C1708 1.499 . S
C1711 C1712 1.373 . S
C1711 C1713 1.389 . S
C1712 H1685 0.950 . S
C1712 C1698 1.377 . S
C1712 C1711 1.373 . S
C1713 C1697 1.377 . S
C1713 C1711 1.389 . S
C1713 C1714 1.524 . S
C1714 C1713 1.524 . S
C1714 C1715 1.397 . S
C1714 C1719 1.363 . S
C1715 H1686 0.950 . S
C1715 C1714 1.397 . S
C1715 C1716 1.334 . S
C1716 H1687 0.950 . S
C1716 C1715 1.334 . S
C1716 C1717 1.287 . S
C1717 C1716 1.287 . S
C1717 C1718 1.524 . S
C1717 H1720 0.999 . S
C1718 H1688 0.950 . S
C1718 C1717 1.524 . S
C1718 C1719 1.415 . S
C1719 H1689 0.950 . S
C1719 C1714 1.363 . S
C1719 C1718 1.415 . S
H1720 C1717 0.999 . S
H1721 C1702 0.913 . S
C556 C514 1.198 . S
C541 C51 1.189 . S
C591 C125 1.517 . S
C606 C449 1.519 . S
C641 C217 2.649 . S
C656 C467 2.662 . S
C691 C291 1.651 . S
C706 C480 1.653 . S
C756 C488 0.570 . S
C741 C347 0.575 . S
C791 C421 0.876 . S
C806 C500 0.877 . S
C841 C143 2.492 . S
C856 C462 2.491 . S
C891 C199 1.366 . S
C906 C475 1.371 . S
C941 C273 0.471 . S
C956 C493 0.461 . S
C1006 C499 1.527 . S
C991 C365 1.520 . S
C1056 C519 1.912 . S
C1041 C439 1.913 . S
C1106 C454 2.462 . S
C1091 C69 2.447 . S
C1141 C63 1.359 . S
C1156 C460 1.423 . S
C1191 C137 1.611 . S
C1206 C473 1.675 . S
C1256 C487 1.346 . S
C1241 C187 1.316 . S
C1291 C261 1.614 . S
C1306 C501 1.653 . S
C1356 C513 1.239 . S
C1341 C359 1.187 . S
C1406 C448 1.158 . S
C1391 C433 1.123 . S
C1456 C512 1.791 . S
C1441 C113 1.758 1_565 S
C1491 C211 1.236 . S
C1506 C447 1.279 . S
C1556 C461 1.597 . S
C1541 C285 1.528 . S
C1591 C335 1.210 . S
C1606 C474 1.238 . S
C1641 C409 1.467 . S
C1656 C486 1.506 . S
C1691 C39 1.681 . S
C1706 C506 1.710 . S
