# Generated by pormake.
# Topology eea, (3,6)-cn, num edge types: 1
# Building blocks:
#     Node 0, Type 0, BuildingBlock: ESEHIV_clean_linker_0, # of connection points: 3
#     Node 1, Type 0, BuildingBlock: ESEHIV_clean_linker_0, # of connection points: 3
#     Node 2, Type 0, BuildingBlock: ESEHIV_clean_linker_0, # of connection points: 3
#     Node 3, Type 0, BuildingBlock: ESEHIV_clean_linker_0, # of connection points: 3
#     Node 4, Type 0, BuildingBlock: ESEHIV_clean_linker_0, # of connection points: 3
#     Node 5, Type 0, BuildingBlock: ESEHIV_clean_linker_0, # of connection points: 3
#     Node 6, Type 0, BuildingBlock: ESEHIV_clean_linker_0, # of connection points: 3
#     Node 7, Type 0, BuildingBlock: ESEHIV_clean_linker_0, # of connection points: 3
#     Node 8, Type 0, BuildingBlock: ESEHIV_clean_linker_0, # of connection points: 3
#     Node 9, Type 0, BuildingBlock: ESEHIV_clean_linker_0, # of connection points: 3
#     Node 10, Type 0, BuildingBlock: ESEHIV_clean_linker_0, # of connection points: 3
#     Node 11, Type 0, BuildingBlock: ESEHIV_clean_linker_0, # of connection points: 3
#     Node 12, Type 0, BuildingBlock: ESEHIV_clean_linker_0, # of connection points: 3
#     Node 13, Type 0, BuildingBlock: ESEHIV_clean_linker_0, # of connection points: 3
#     Node 14, Type 0, BuildingBlock: ESEHIV_clean_linker_0, # of connection points: 3
#     Node 15, Type 0, BuildingBlock: ESEHIV_clean_linker_0, # of connection points: 3
#     Node 16, Type 0, BuildingBlock: ESEHIV_clean_linker_0, # of connection points: 3
#     Node 17, Type 0, BuildingBlock: ESEHIV_clean_linker_0, # of connection points: 3
#     Node 18, Type 1, BuildingBlock: KUMBOL_clean_sbu_0, # of connection points: 6
#     Node 19, Type 1, BuildingBlock: KUMBOL_clean_sbu_0, # of connection points: 6
#     Node 20, Type 1, BuildingBlock: KUMBOL_clean_sbu_0, # of connection points: 6
#     Node 21, Type 1, BuildingBlock: KUMBOL_clean_sbu_0, # of connection points: 6
#     Node 22, Type 1, BuildingBlock: KUMBOL_clean_sbu_0, # of connection points: 6
#     Node 23, Type 1, BuildingBlock: KUMBOL_clean_sbu_0, # of connection points: 6
#     Node 24, Type 1, BuildingBlock: KUMBOL_clean_sbu_0, # of connection points: 6
#     Node 25, Type 1, BuildingBlock: KUMBOL_clean_sbu_0, # of connection points: 6
#     Node 26, Type 1, BuildingBlock: KUMBOL_clean_sbu_0, # of connection points: 6
#     Edge 27, Type (0, 1), None
#     Edge 28, Type (0, 1), None
#     Edge 29, Type (0, 1), None
#     Edge 30, Type (0, 1), None
#     Edge 31, Type (0, 1), None
#     Edge 32, Type (0, 1), None
#     Edge 33, Type (0, 1), None
#     Edge 34, Type (0, 1), None
#     Edge 35, Type (0, 1), None
#     Edge 36, Type (0, 1), None
#     Edge 37, Type (0, 1), None
#     Edge 38, Type (0, 1), None
#     Edge 39, Type (0, 1), None
#     Edge 40, Type (0, 1), None
#     Edge 41, Type (0, 1), None
#     Edge 42, Type (0, 1), None
#     Edge 43, Type (0, 1), None
#     Edge 44, Type (0, 1), None
#     Edge 45, Type (0, 1), None
#     Edge 46, Type (0, 1), None
#     Edge 47, Type (0, 1), None
#     Edge 48, Type (0, 1), None
#     Edge 49, Type (0, 1), None
#     Edge 50, Type (0, 1), None
#     Edge 51, Type (0, 1), None
#     Edge 52, Type (0, 1), None
#     Edge 53, Type (0, 1), None
#     Edge 54, Type (0, 1), None
#     Edge 55, Type (0, 1), None
#     Edge 56, Type (0, 1), None
#     Edge 57, Type (0, 1), None
#     Edge 58, Type (0, 1), None
#     Edge 59, Type (0, 1), None
#     Edge 60, Type (0, 1), None
#     Edge 61, Type (0, 1), None
#     Edge 62, Type (0, 1), None
#     Edge 63, Type (0, 1), None
#     Edge 64, Type (0, 1), None
#     Edge 65, Type (0, 1), None
#     Edge 66, Type (0, 1), None
#     Edge 67, Type (0, 1), None
#     Edge 68, Type (0, 1), None
#     Edge 69, Type (0, 1), None
#     Edge 70, Type (0, 1), None
#     Edge 71, Type (0, 1), None
#     Edge 72, Type (0, 1), None
#     Edge 73, Type (0, 1), None
#     Edge 74, Type (0, 1), None
#     Edge 75, Type (0, 1), None
#     Edge 76, Type (0, 1), None
#     Edge 77, Type (0, 1), None
#     Edge 78, Type (0, 1), None
#     Edge 79, Type (0, 1), None
#     Edge 80, Type (0, 1), None
# Relax obj value: 0.004
# Max RMSD: 0.191
# Mean RMSD: 0.141
data_MOF--net-eea--node1-KUMBOL_clean_sbu_0--node2-ESEHIV_clean_linker_0--edge1-none
_symmetry_space_group_name_H-M    P1
_symmetry_Int_Tables_number       1
_symmetry_cell_setting            triclinic
loop_
_symmetry_equiv_pos_as_xyz
'x, y, z'
_cell_length_a     18.47046
_cell_length_b     19.727084
_cell_length_c     36.737988
_cell_angle_alpha  91.318173
_cell_angle_beta   91.692461
_cell_angle_gamma 119.52055
loop_
_atom_site_label
_atom_site_type_symbol
_atom_site_fract_x
_atom_site_fract_y
_atom_site_fract_z
_atom_type_partial_charge
H0 H 0.28221 0.22903 0.43877 0.0
H1 H 0.30265 0.02431 0.43478 0.0
H2 H 0.19548 0.07905 0.34232 0.0
C3 C 0.26661 0.17532 0.4241 0.0
C4 C 0.2298 0.15984 0.38874 0.0
C5 C 0.29447 0.12873 0.44038 0.0
C6 C 0.2799 0.05968 0.42207 0.0
C7 C 0.239 0.03819 0.38695 0.0
C8 C 0.21755 0.09073 0.37008 0.0
H9 H 0.81713 0.05528 0.43987 0.0
H10 H 0.94019 0.29714 0.41686 0.0
H11 H 0.93368 0.12871 0.34025 0.0
C12 C 0.84224 0.10144 0.42096 0.0
C13 C 0.84781 0.08353 0.38384 0.0
C14 C 0.87182 0.17891 0.43355 0.0
C15 C 0.91758 0.23697 0.40917 0.0
C16 C 0.9527 0.2217 0.37908 0.0
C17 C 0.91343 0.14339 0.36479 0.0
H18 H 0.77744 0.74022 0.4486 0.0
H19 H 0.94351 0.65945 0.42831 0.0
H20 H 0.93193 0.82366 0.35577 0.0
C21 C 0.82772 0.74547 0.43277 0.0
C22 C 0.84181 0.78043 0.3987 0.0
C23 C 0.86657 0.70451 0.44411 0.0
C24 C 0.92452 0.70172 0.42183 0.0
C25 C 0.9567 0.75038 0.39175 0.0
C26 C 0.91372 0.79057 0.38 0.0
H27 H 0.96831 0.11686 0.59792 0.0
H28 H 0.22368 0.18878 0.58852 0.0
H29 H 0.14134 0.21991 0.69043 0.0
C30 C 0.02852 0.13988 0.61143 0.0
C31 C 0.04115 0.16878 0.64816 0.0
C32 C 0.09697 0.16186 0.58885 0.0
C33 C 0.17225 0.17646 0.60564 0.0
C34 C 0.18609 0.18911 0.64372 0.0
C35 C 0.12288 0.19277 0.664 0.0
H36 H 0.78225 0.95331 0.59656 0.0
H37 H 0.94696 0.85966 0.59226 0.0
H38 H 0.92722 0.95953 0.69262 0.0
C39 C 0.83076 0.94475 0.60918 0.0
C40 C 0.85357 0.96427 0.6464 0.0
C41 C 0.86509 0.90749 0.58908 0.0
C42 C 0.92546 0.89409 0.60707 0.0
C43 C 0.93594 0.90113 0.64599 0.0
C44 C 0.91135 0.94749 0.66374 0.0
H45 H 0.0104 0.74233 0.60872 0.0
H46 H 0.23992 0.95005 0.60008 0.0
H47 H 0.12601 0.88252 0.70469 0.0
C48 C 0.06379 0.78987 0.62227 0.0
C49 C 0.06405 0.79755 0.66 0.0
C50 C 0.12977 0.83771 0.60099 0.0
C51 C 0.19103 0.90991 0.61684 0.0
C52 C 0.18768 0.931 0.65402 0.0
C53 C 0.12581 0.87165 0.67601 0.0
H54 H 0.94888 0.56237 0.7721 0.0
H55 H 0.96932 0.35764 0.76811 0.0
H56 H 0.86215 0.41239 0.67566 0.0
C57 C 0.93328 0.50865 0.75743 0.0
C58 C 0.89647 0.49317 0.72207 0.0
C59 C 0.96114 0.46206 0.77372 0.0
C60 C 0.94657 0.39301 0.7554 0.0
C61 C 0.90566 0.37153 0.72029 0.0
C62 C 0.88422 0.42407 0.70341 0.0
H63 H 0.48379 0.38861 0.77321 0.0
H64 H 0.60686 0.63047 0.75019 0.0
H65 H 0.60035 0.46204 0.67358 0.0
C66 C 0.50891 0.43477 0.7543 0.0
C67 C 0.51447 0.41686 0.71718 0.0
C68 C 0.53849 0.51224 0.76688 0.0
C69 C 0.58425 0.57031 0.7425 0.0
C70 C 0.61937 0.55503 0.71241 0.0
C71 C 0.5801 0.47672 0.69812 0.0
H72 H 0.44411 0.07356 0.78193 0.0
H73 H 0.61018 -0.00721 0.76164 0.0
H74 H 0.5986 0.15699 0.6891 0.0
C75 C 0.49439 0.07881 0.7661 0.0
C76 C 0.50847 0.11376 0.73203 0.0
C77 C 0.53324 0.03785 0.77744 0.0
C78 C 0.59119 0.03506 0.75516 0.0
C79 C 0.62337 0.08372 0.72508 0.0
C80 C 0.58039 0.12391 0.71334 0.0
H81 H 0.63498 0.4502 0.93126 0.0
H82 H 0.89034 0.52212 0.92186 0.0
H83 H 0.80801 0.55325 0.02377 0.0
C84 C 0.69519 0.47322 0.94477 0.0
C85 C 0.70782 0.50211 0.98149 0.0
C86 C 0.76364 0.49519 0.92219 0.0
C87 C 0.83892 0.5098 0.93897 0.0
C88 C 0.85276 0.52245 0.97706 0.0
C89 C 0.78955 0.5261 0.99734 0.0
H90 H 0.44892 0.28664 0.92989 0.0
H91 H 0.61363 0.193 0.92559 0.0
H92 H 0.59388 0.29287 0.02595 0.0
C93 C 0.49743 0.27808 0.94251 0.0
C94 C 0.52024 0.29761 0.97973 0.0
C95 C 0.53176 0.24083 0.92241 0.0
C96 C 0.59213 0.22743 0.9404 0.0
C97 C 0.60261 0.23447 0.97932 0.0
C98 C 0.57802 0.28083 0.99708 0.0
H99 H 0.67707 0.07566 0.94205 0.0
H100 H 0.90659 0.28339 0.93342 0.0
H101 H 0.79268 0.21585 0.03802 0.0
C102 C 0.73046 0.12321 0.9556 0.0
C103 C 0.73072 0.13089 0.99334 0.0
C104 C 0.79644 0.17104 0.93433 0.0
C105 C 0.8577 0.24324 0.95017 0.0
C106 C 0.85435 0.26433 0.98735 0.0
C107 C 0.79248 0.20499 1.00934 0.0
H108 H 0.61554 0.8957 0.10544 0.0
H109 H 0.63599 0.69097 0.10145 0.0
H110 H 0.52882 0.74572 1.00899 0.0
C111 C 0.59995 0.84199 0.09076 0.0
C112 C 0.56314 0.82651 0.05541 0.0
C113 C 0.6278 0.7954 0.10705 0.0
C114 C 0.61323 0.72635 0.08873 0.0
C115 C 0.57233 0.70486 0.05362 0.0
C116 C 0.55089 0.7574 0.03674 0.0
H117 H 0.15046 0.72195 0.10654 0.0
H118 H 0.27353 0.96381 0.08352 0.0
H119 H 0.26702 0.79538 1.00691 0.0
C120 C 0.17558 0.76811 0.08763 0.0
C121 C 0.18114 0.7502 0.05051 0.0
C122 C 0.20516 0.84558 0.10021 0.0
C123 C 0.25092 0.90364 0.07583 0.0
C124 C 0.28604 0.88837 0.04574 0.0
C125 C 0.24677 0.81006 0.03146 0.0
H126 H 0.11078 0.40689 0.11527 0.0
H127 H 0.27684 0.32612 0.09497 0.0
H128 H 0.26527 0.49033 1.02244 0.0
C129 C 0.16106 0.41214 0.09943 0.0
C130 C 0.17514 0.4471 0.06537 0.0
C131 C 0.19991 0.37118 0.11078 0.0
C132 C 0.25785 0.36839 0.0885 0.0
C133 C 0.29004 0.41705 0.05842 0.0
C134 C 0.24706 0.45724 0.04667 0.0
H135 H 0.30165 0.78353 0.26459 0.0
H136 H 0.55701 0.85545 0.25519 0.0
H137 H 0.47467 0.88658 0.3571 0.0
C138 C 0.36185 0.80655 0.2781 0.0
C139 C 0.37448 0.83544 0.31483 0.0
C140 C 0.4303 0.82853 0.25552 0.0
C141 C 0.50558 0.84313 0.2723 0.0
C142 C 0.51942 0.85578 0.31039 0.0
C143 C 0.45621 0.85943 0.33067 0.0
H144 H 0.11558 0.61997 0.26323 0.0
H145 H 0.2803 0.52633 0.25892 0.0
H146 H 0.26055 0.6262 0.35928 0.0
C147 C 0.16409 0.61141 0.27584 0.0
C148 C 0.18691 0.63094 0.31306 0.0
C149 C 0.19842 0.57416 0.25574 0.0
C150 C 0.25879 0.56076 0.27374 0.0
C151 C 0.26927 0.5678 0.31265 0.0
C152 C 0.24469 0.61416 0.33041 0.0
H153 H 0.34373 0.40899 0.27539 0.0
H154 H 0.57325 0.61672 0.26675 0.0
H155 H 0.45935 0.54918 0.37135 0.0
C156 C 0.39712 0.45654 0.28893 0.0
C157 C 0.39738 0.46422 0.32667 0.0
C158 C 0.4631 0.50438 0.26766 0.0
C159 C 0.52436 0.57657 0.28351 0.0
C160 C 0.52101 0.59766 0.32068 0.0
C161 C 0.45914 0.53832 0.34267 0.0
Gd162 Gd 0.52699 0.03677 0.07182 0.0
Gd163 Gd 0.49682 0.97684 0.97812 0.0
C164 C 0.26294 0.0078 0.95407 0.0
C165 C 0.16039 0.87767 0.93345 0.0
C166 C 0.30227 0.9082 0.95019 0.0
C167 C 0.32349 0.98358 0.95872 0.0
C168 C 0.21988 0.85388 0.93788 0.0
C169 C 0.18252 0.95515 0.94027 0.0
C170 C 0.28151 0.0815 0.967 0.0
C171 C 0.35321 0.12433 0.98852 0.0
N172 N 0.39935 0.03012 0.97569 0.0
C173 C 0.4087 0.09627 0.9938 0.0
H174 H 0.45199 0.12404 1.01599 0.0
C175 C 0.34296 0.81451 0.94328 0.0
N176 N 0.36051 0.88619 0.95558 0.0
C177 C 0.26241 0.75777 0.93226 0.0
C178 C 0.19951 0.77684 0.93082 0.0
H179 H 0.39254 0.80343 0.93977 0.0
H180 H 0.13545 0.97251 0.93711 0.0
H181 H 0.71655 0.06637 0.09762 0.0
H182 H 0.2369 0.1019 0.96409 0.0
H183 H 0.36296 0.17643 1.00328 0.0
H184 H 0.09673 0.83657 0.92561 0.0
H185 H 0.49994 0.21372 0.06362 0.0
H186 H 0.72385 0.08212 0.2137 0.0
H187 H 0.78877 0.07728 0.15719 0.0
H188 H 0.5451 0.18057 0.24477 0.0
H189 H 0.24974 0.70013 0.92431 0.0
H190 H 0.13645 0.73268 0.92312 0.0
H191 H 0.62575 0.1134 0.24549 0.0
H192 H 0.46783 0.32547 0.14631 0.0
N193 N 0.62548 0.08734 0.12119 0.0
C194 C 0.69689 0.08633 0.18815 0.0
C195 C 0.73266 0.08102 0.15601 0.0
C196 C 0.63104 0.10243 0.18695 0.0
C197 C 0.59771 0.10428 0.15229 0.0
C198 C 0.69439 0.07893 0.12242 0.0
N199 N 0.52948 0.14596 0.10682 0.0
C200 C 0.54488 0.1336 0.14795 0.0
C201 C 0.48021 0.27836 0.14549 0.0
C202 C 0.49656 0.24446 0.18658 0.0
C203 C 0.50604 0.20924 0.09279 0.0
C204 C 0.52895 0.17601 0.18644 0.0
H205 H 0.49104 0.26967 0.21209 0.0
O206 O 0.42221 0.95278 0.10187 0.0
O207 O 0.43258 0.94749 0.03016 0.0
O208 O 0.55604 0.10353 0.97501 0.0
O209 O 0.5857 0.15319 0.03549 0.0
O210 O 0.39963 0.01832 0.0577 0.0
O211 O 0.53877 0.9604 0.1121 0.0
O212 O 0.5181 0.91474 0.93275 0.0
O213 O 0.59428 0.05368 1.02063 0.0
O214 O 0.57914 0.95591 0.0592 0.0
O215 O 0.49995 0.87727 1.00913 0.0
O216 O 0.62932 -0.00444 0.98985 0.0
O217 O 0.53361 0.02842 0.92555 0.0
C218 C 0.37003 0.95519 0.03671 0.0
C219 C 0.55587 0.15941 0.2192 0.0
C220 C 0.60383 0.12177 0.21928 0.0
C221 C 0.46224 0.92727 0.12174 0.0
C222 C 0.44592 0.92359 0.16188 0.0
C223 C 0.41988 0.97427 0.17468 0.0
C224 C 0.45149 0.87239 0.18756 0.0
C225 C 0.43633 0.88027 0.2252 0.0
C226 C 0.41978 -0.00942 0.21132 0.0
C227 C 0.4292 0.94505 0.23643 0.0
C228 C 0.58815 0.16352 0.99839 0.0
C229 C 0.66232 0.05791 1.01138 0.0
C230 C 0.53291 0.96888 0.90973 0.0
C231 C 0.49692 0.94791 0.87146 0.0
C232 C 0.4334 0.87224 0.86128 0.0
C233 C 0.52902 0.00365 0.84409 0.0
C234 C 0.49848 0.98277 0.80742 0.0
C235 C 0.40109 0.85248 0.8254 0.0
C236 C 0.43353 0.90715 0.79862 0.0
C237 C 0.54444 0.88773 0.0403 0.0
H238 H 0.4008 0.00213 0.15545 0.0
H239 H 0.46502 0.82734 0.17856 0.0
H240 H 0.40745 0.03624 0.22038 0.0
H241 H 0.42611 0.95838 0.26492 0.0
H242 H 0.40905 0.82766 0.88071 0.0
H243 H 0.57839 0.06248 0.85114 0.0
H244 H 0.35146 0.79402 0.81816 0.0
H245 H 0.40847 0.89018 0.7708 0.0
Gd246 Gd 0.9842 0.49752 0.06457 0.0
Gd247 Gd 0.07341 0.51867 0.9787 0.0
C248 C 0.26721 0.44523 0.89519 0.0
C249 C 0.405 0.57948 0.89508 0.0
C250 C 0.25265 0.57761 0.95333 0.0
C251 C 0.2048 0.4919 0.93653 0.0
C252 C 0.34798 0.63504 0.94323 0.0
C253 C 0.35187 0.49577 0.87916 0.0
C254 C 0.25613 0.36381 0.90682 0.0
C255 C 0.17551 0.32303 0.96356 0.0
N256 N 0.14912 0.4475 0.96488 0.0
C257 C 0.13795 0.37407 0.98012 0.0
H258 H 0.09607 0.34883 1.00191 0.0
C259 C 0.27117 0.63463 1.0115 0.0
N260 N 0.21995 0.58916 0.98315 0.0
C261 C 0.35096 0.69214 1.00531 0.0
C262 C 0.38542 0.6969 0.9716 0.0
H263 H 0.24759 0.63325 0.03822 0.0
H264 H 0.37865 0.47111 0.8615 0.0
H265 H 0.02542 0.67919 0.10051 0.0
H266 H 0.28836 0.33983 0.89089 0.0
H267 H 0.15884 0.27257 0.98042 0.0
H268 H 0.45625 0.60846 0.87875 0.0
H269 H 0.91042 0.33264 0.09224 0.0
H270 H 0.77654 0.59668 0.14984 0.0
H271 H 0.97269 0.74524 0.14792 0.0
H272 H 0.62154 0.37061 0.18317 0.0
H273 H 0.3859 0.73523 0.02692 0.0
H274 H 0.44559 0.74797 0.96992 0.0
H275 H 0.65771 0.50424 0.18783 0.0
H276 H 0.78549 0.21934 0.10349 0.0
N277 N 0.90702 0.56123 0.08288 0.0
C278 C 0.82809 0.64657 0.1555 0.0
C279 C 0.92848 0.68695 0.13889 0.0
C280 C 0.74706 0.55059 0.13798 0.0
C281 C 0.8094 0.49999 0.08761 0.0
C282 C 0.96218 0.64501 0.105 0.0
N283 N 0.85259 0.39998 0.07933 0.0
C284 C 0.78661 0.41216 0.08576 0.0
C285 C 0.7845 0.27299 0.10015 0.0
C286 C 0.71385 0.27775 0.10304 0.0
C287 C 0.85489 0.33705 0.09231 0.0
C288 C 0.71681 0.35146 0.1122 0.0
H289 H 0.66695 0.22224 0.10777 0.0
O290 O 0.96689 0.48685 0.12219 0.0
O291 O 0.09907 0.51104 0.03752 0.0
O292 O 0.98435 0.3876 0.98223 0.0
O293 O 0.90026 0.38248 0.02891 0.0
O294 O 0.03145 0.41272 0.06542 0.0
O295 O 0.09146 0.55389 0.1045 0.0
O296 O 0.0887 0.58695 0.93211 0.0
O297 O 0.95751 0.49831 1.00672 0.0
O298 O 0.05307 0.62573 0.05155 0.0
O299 O 0.13886 0.64248 1.00425 0.0
O300 O 0.00189 0.58564 0.97264 0.0
O301 O 0.01673 0.46203 0.92408 0.0
C302 C 0.10072 0.45206 0.04965 0.0
C303 C 0.65772 0.398 0.15976 0.0
C304 C 0.67894 0.4856 0.16452 0.0
C305 C 0.04487 0.52857 0.13239 0.0
C306 C 0.07256 0.50037 0.1639 0.0
C307 C 0.03344 0.41987 0.16915 0.0
C308 C 0.12986 0.55313 0.1913 0.0
C309 C 0.14941 0.52439 0.22287 0.0
C310 C 0.05288 0.39176 0.19993 0.0
C311 C 0.1098 0.44357 0.22631 0.0
C312 C 0.91692 0.34778 1.00124 0.0
C313 C 0.93933 0.54584 0.99242 0.0
C314 C 0.04177 0.52922 0.90941 0.0
C315 C 0.05509 0.54236 0.86954 0.0
C316 C 0.12134 0.61354 0.85873 0.0
C317 C 0.00285 0.48671 0.84178 0.0
C318 C 0.02312 0.50034 0.80467 0.0
C319 C 0.14422 0.62432 0.8227 0.0
C320 C 0.09678 0.56747 0.79604 0.0
C321 C 0.12285 0.66851 0.03477 0.0
H322 H 0.98734 0.37836 0.14943 0.0
H323 H 0.15665 0.61545 0.18864 0.0
H324 H 0.02203 0.32963 0.20389 0.0
H325 H 0.11939 0.42076 0.2508 0.0
H326 H 0.15955 0.65945 0.87818 0.0
H327 H 0.94633 0.43512 0.84881 0.0
H328 H 0.19881 0.67734 0.81542 0.0
H329 H 0.11359 0.57915 0.76792 0.0
Gd330 Gd 0.47624 0.48764 0.97424 0.0
Gd331 Gd 0.52754 0.46101 0.06533 0.0
C332 C 0.79067 0.46243 0.14601 0.0
C333 C 0.68194 0.29366 0.16992 0.0
C334 C 0.58624 0.34512 0.10425 0.0
C335 C 0.67265 0.43655 0.10266 0.0
C336 C 0.58929 0.26646 0.13984 0.0
C337 C 0.77548 0.38442 0.17256 0.0
C338 C 0.86537 0.54982 0.14187 0.0
C339 C 0.82496 0.61705 0.09311 0.0
N340 N 0.66946 0.49514 0.07974 0.0
C341 C 0.73603 0.5749 0.07351 0.0
H342 H 0.72371 0.61086 0.05574 0.0
C343 C 0.41093 0.26044 0.08578 0.0
N344 N 0.50289 0.33173 0.08617 0.0
C345 C 0.36824 0.17717 0.10804 0.0
C346 C 0.42852 0.15316 0.1383 0.0
H347 H 0.36406 0.25912 0.06746 0.0
H348 H 0.82525 0.3921 0.19145 0.0
H349 H 0.31745 0.26436 0.95687 0.0
H350 H 0.92106 0.56926 0.15984 0.0
H351 H 0.86001 0.67589 0.0826 0.0
H352 H 0.68573 0.25423 0.18817 0.0
H353 H 0.55655 0.69903 0.94959 0.0
H354 H 0.11599 0.31489 0.90707 0.0
H355 H 0.17149 0.17417 0.91817 0.0
H356 H 0.18136 0.52373 0.84442 0.0
H357 H 0.3911 0.15686 0.12475 0.0
H358 H 0.39991 0.10151 0.15963 0.0
H359 H 0.07412 0.38506 0.86172 0.0
H360 H 0.50348 0.77055 0.89839 0.0
N361 N 0.32271 0.3859 0.96372 0.0
C362 C 0.1163 0.2634 0.90632 0.0
C363 C 0.18714 0.23388 0.9243 0.0
C364 C 0.1393 0.36423 0.91425 0.0
C365 C 0.28161 0.438 0.956 0.0
C366 C 0.28235 0.29356 0.95123 0.0
N367 N 0.43404 0.58024 0.95618 0.0
C368 C 0.34089 0.52182 0.94419 0.0
C369 C 0.45806 0.71289 0.9062 0.0
C370 C 0.35792 0.66621 0.88181 0.0
C371 C 0.49148 0.66739 0.94068 0.0
C372 C 0.28166 0.5692 0.89161 0.0
H373 H 0.34499 0.69518 0.8601 0.0
O374 O 0.5674 0.52227 0.93396 0.0
O375 O 0.57436 0.47882 1.00921 0.0
O376 O 0.58778 0.58921 0.05061 0.0
O377 O 0.49862 0.59655 1.00722 0.0
O378 O 0.62031 0.5615 0.97463 0.0
O379 O 0.44351 0.44116 0.91672 0.0
O380 O 0.46843 0.50903 0.10091 0.0
O381 O 0.43083 0.4753 0.03115 0.0
O382 O 0.4412 0.36288 0.98488 0.0
O383 O 0.52456 0.3649 0.03321 0.0
O384 O 0.39217 0.37877 0.05952 0.0
O385 O 0.57027 0.49898 0.1214 0.0
C386 C 0.64481 0.52566 0.99672 0.0
C387 C 0.19197 0.50799 0.87086 0.0
C388 C 0.12535 0.41775 0.88138 0.0
C389 C 0.51969 0.48183 0.90645 0.0
C390 C 0.53954 0.52601 0.87232 0.0
C391 C 0.57995 0.60766 0.87587 0.0
C392 C 0.52293 0.49083 0.83656 0.0
C393 C 0.53383 0.53712 0.8057 0.0
C394 C 0.58238 0.65136 0.8465 0.0
C395 C 0.55151 0.61476 0.81266 0.0
C396 C 0.55278 0.62757 0.03571 0.0
C397 C 0.36471 0.41689 0.04153 0.0
C398 C 0.51423 0.51683 0.12977 0.0
C399 C 0.46937 0.48164 0.16292 0.0
C400 C 0.40525 0.40453 0.1591 0.0
C401 C 0.49371 0.51851 0.1984 0.0
C402 C 0.46044 0.47287 0.22932 0.0
C403 C 0.3807 0.35816 0.1889 0.0
C404 C 0.41426 0.39078 0.22312 0.0
C405 C 0.48512 0.33551 1.00151 0.0
H406 H 0.59971 0.63782 0.90231 0.0
H407 H 0.50265 0.42933 0.83322 0.0
H408 H 0.60206 0.7126 0.8508 0.0
H409 H 0.54606 0.64984 0.79178 0.0
H410 H 0.38441 0.37644 0.13249 0.0
H411 H 0.53709 0.58045 0.20164 0.0
H412 H 0.33893 0.29595 0.18515 0.0
H413 H 0.39785 0.35112 0.24521 0.0
Gd414 Gd 0.19366 0.3701 0.40515 0.0
Gd415 Gd 0.16349 0.31016 0.31145 0.0
C416 C 0.9296 0.34113 0.28741 0.0
C417 C 0.82705 0.211 0.26678 0.0
C418 C 0.96893 0.24153 0.28353 0.0
C419 C 0.99015 0.31691 0.29206 0.0
C420 C 0.88654 0.18721 0.27122 0.0
C421 C 0.84918 0.28848 0.27361 0.0
C422 C 0.94817 0.41483 0.30033 0.0
C423 C 0.01987 0.45766 0.32185 0.0
N424 N 0.06601 0.36345 0.30902 0.0
C425 C 0.07537 0.4296 0.32713 0.0
H426 H 0.11866 0.45737 0.34932 0.0
C427 C 0.00962 0.14784 0.27662 0.0
N428 N 0.02717 0.21952 0.28892 0.0
C429 C 0.92907 0.0911 0.26559 0.0
C430 C 0.86617 0.11017 0.26415 0.0
H431 H 0.05921 0.13676 0.2731 0.0
H432 H 0.80211 0.30583 0.27045 0.0
H433 H 0.38321 0.3997 0.43096 0.0
H434 H 0.90356 0.43522 0.29743 0.0
H435 H 0.02962 0.50976 0.33661 0.0
H436 H 0.76339 0.1699 0.25895 0.0
H437 H 0.1666 0.54705 0.39695 0.0
H438 H 0.39052 0.41545 0.54703 0.0
H439 H 0.45544 0.41061 0.49053 0.0
H440 H 0.21176 0.5139 0.5781 0.0
H441 H 0.91641 0.03346 0.25764 0.0
H442 H 0.80311 0.066 0.25646 0.0
H443 H 0.29241 0.44673 0.57883 0.0
H444 H 0.1345 0.6588 0.47964 0.0
N445 N 0.29215 0.42067 0.45453 0.0
C446 C 0.36355 0.41966 0.52148 0.0
C447 C 0.39932 0.41435 0.48934 0.0
C448 C 0.2977 0.43576 0.52029 0.0
C449 C 0.26437 0.43761 0.48562 0.0
C450 C 0.36105 0.41225 0.45575 0.0
N451 N 0.19614 0.47929 0.44015 0.0
C452 C 0.21154 0.46693 0.48128 0.0
C453 C 0.14687 0.61169 0.47882 0.0
C454 C 0.16323 0.57779 0.51991 0.0
C455 C 0.1727 0.54257 0.42612 0.0
C456 C 0.19562 0.50934 0.51978 0.0
H457 H 0.15771 0.603 0.54542 0.0
O458 O 0.08888 0.2861 0.43521 0.0
O459 O 0.09925 0.28082 0.36349 0.0
O460 O 0.22271 0.43686 0.30835 0.0
O461 O 0.25237 0.48652 0.36882 0.0
O462 O 0.06629 0.35165 0.39104 0.0
O463 O 0.20544 0.29373 0.44543 0.0
O464 O 0.18476 0.24807 0.26609 0.0
O465 O 0.26094 0.38701 0.35396 0.0
O466 O 0.24581 0.28924 0.39253 0.0
O467 O 0.16662 0.2106 0.34247 0.0
O468 O 0.29599 0.32889 0.32318 0.0
O469 O 0.20027 0.36175 0.25888 0.0
C470 C 0.03669 0.28852 0.37004 0.0
C471 C 0.22253 0.49274 0.55253 0.0
C472 C 0.27049 0.45509 0.55261 0.0
C473 C 0.12891 0.2606 0.45507 0.0
C474 C 0.11258 0.25692 0.49522 0.0
C475 C 0.08654 0.3076 0.50801 0.0
C476 C 0.11816 0.20572 0.52089 0.0
C477 C 0.103 0.2136 0.55853 0.0
C478 C 0.08645 0.32391 0.54465 0.0
C479 C 0.09586 0.27838 0.56977 0.0
C480 C 0.25481 0.49685 0.33172 0.0
C481 C 0.32899 0.39124 0.34471 0.0
C482 C 0.19957 0.30221 0.24307 0.0
C483 C 0.16358 0.28124 0.2048 0.0
C484 C 0.10006 0.20557 0.19461 0.0
C485 C 0.19569 0.33698 0.17742 0.0
C486 C 0.16514 0.3161 0.14076 0.0
C487 C 0.06776 0.18581 0.15873 0.0
C488 C 0.1002 0.24048 0.13195 0.0
C489 C 0.2111 0.22106 0.37363 0.0
H490 H 0.06746 0.33546 0.48878 0.0
H491 H 0.13168 0.16067 0.5119 0.0
H492 H 0.07412 0.36957 0.55371 0.0
H493 H 0.09277 0.29171 0.59826 0.0
H494 H 0.07571 0.16099 0.21404 0.0
H495 H 0.24505 0.39581 0.18447 0.0
H496 H 0.01813 0.12735 0.15149 0.0
H497 H 0.07514 0.22351 0.10413 0.0
Gd498 Gd 0.65087 0.83085 0.3979 0.0
Gd499 Gd 0.74008 0.852 0.31204 0.0
C500 C 0.93387 0.77856 0.22853 0.0
C501 C 0.07167 0.91281 0.22841 0.0
C502 C 0.91932 0.91094 0.28666 0.0
C503 C 0.87147 0.82523 0.26986 0.0
C504 C 0.01464 0.96837 0.27657 0.0
C505 C 0.01854 0.8291 0.21249 0.0
C506 C 0.92279 0.69714 0.24015 0.0
C507 C 0.84217 0.65636 0.2969 0.0
N508 N 0.81578 0.78083 0.29821 0.0
C509 C 0.80461 0.7074 0.31345 0.0
H510 H 0.76274 0.68216 0.33525 0.0
C511 C 0.93783 0.96796 0.34484 0.0
N512 N 0.88661 0.92249 0.31648 0.0
C513 C 0.01763 0.02547 0.33864 0.0
C514 C 0.05209 0.03023 0.30493 0.0
H515 H 0.91426 0.96658 0.37155 0.0
H516 H 0.04531 0.80444 0.19484 0.0
H517 H 0.69208 0.01252 0.43385 0.0
H518 H 0.95502 0.67316 0.22422 0.0
H519 H 0.82551 0.6059 0.31375 0.0
H520 H 0.12292 0.94179 0.21208 0.0
H521 H 0.57708 0.66596 0.42557 0.0
H522 H 0.44321 0.93001 0.48317 0.0
H523 H 0.63936 0.07857 0.48125 0.0
H524 H 0.2882 0.70394 0.51651 0.0
H525 H 0.05256 0.06856 0.36025 0.0
H526 H 0.11226 0.0813 0.30325 0.0
H527 H 0.32437 0.83757 0.52116 0.0
H528 H 0.45215 0.55267 0.43683 0.0
N529 N 0.57368 0.89456 0.41621 0.0
C530 C 0.49475 0.9799 0.48883 0.0
C531 C 0.59515 0.02028 0.47222 0.0
C532 C 0.41373 0.88392 0.47131 0.0
C533 C 0.47606 0.83332 0.42094 0.0
C534 C 0.62884 0.97834 0.43833 0.0
N535 N 0.51925 0.73331 0.41266 0.0
C536 C 0.45327 0.74549 0.41909 0.0
C537 C 0.45116 0.60632 0.43348 0.0
C538 C 0.38051 0.61108 0.43637 0.0
C539 C 0.52155 0.67038 0.42564 0.0
C540 C 0.38347 0.68479 0.44553 0.0
H541 H 0.33361 0.55557 0.4411 0.0
O542 O 0.63355 0.82018 0.45553 0.0
O543 O 0.76574 0.84437 0.37085 0.0
O544 O 0.65101 0.72093 0.31556 0.0
O545 O 0.56692 0.71581 0.36224 0.0
O546 O 0.69812 0.74605 0.39875 0.0
O547 O 0.75812 0.88722 0.43783 0.0
O548 O 0.75537 0.92028 0.26544 0.0
O549 O 0.62417 0.83164 0.34006 0.0
O550 O 0.71974 0.95906 0.38488 0.0
O551 O 0.80553 0.97581 0.33758 0.0
O552 O 0.66855 0.91897 0.30598 0.0
O553 O 0.6834 0.79536 0.25741 0.0
C554 C 0.76739 0.78539 0.38298 0.0
C555 C 0.32439 0.73133 0.49309 0.0
C556 C 0.34561 0.81893 0.49785 0.0
C557 C 0.71153 0.8619 0.46573 0.0
C558 C 0.73922 0.8337 0.49723 0.0
C559 C 0.7001 0.7532 0.50248 0.0
C560 C 0.79652 0.88646 0.52463 0.0
C561 C 0.81607 0.85772 0.5562 0.0
C562 C 0.71955 0.72509 0.53327 0.0
C563 C 0.77647 0.7769 0.55965 0.0
C564 C 0.58359 0.68111 0.33457 0.0
C565 C 0.60599 0.87917 0.32575 0.0
C566 C 0.70843 0.86255 0.24274 0.0
C567 C 0.72175 0.87569 0.20287 0.0
C568 C 0.78801 0.94687 0.19206 0.0
C569 C 0.66952 0.82005 0.17512 0.0
C570 C 0.68979 0.83368 0.138 0.0
C571 C 0.81088 0.95765 0.15604 0.0
C572 C 0.76344 0.9008 0.12937 0.0
C573 C 0.78952 0.00184 0.36811 0.0
H574 H 0.65401 0.71169 0.48277 0.0
H575 H 0.82331 0.94878 0.52197 0.0
H576 H 0.6887 0.66296 0.53723 0.0
H577 H 0.78605 0.75409 0.58413 0.0
H578 H 0.82621 -0.00722 0.21151 0.0
H579 H 0.61299 0.76845 0.18214 0.0
H580 H 0.86548 0.01067 0.14876 0.0
H581 H 0.78025 0.91249 0.10125 0.0
Gd582 Gd 0.14291 0.82097 0.30758 0.0
Gd583 Gd 0.1942 0.79434 0.39866 0.0
C584 C 0.45733 0.79576 0.47934 0.0
C585 C 0.34861 0.62699 0.50325 0.0
C586 C 0.2529 0.67844 0.43758 0.0
C587 C 0.33932 0.76988 0.436 0.0
C588 C 0.25595 0.59979 0.47318 0.0
C589 C 0.44215 0.71774 0.5059 0.0
C590 C 0.53204 0.88315 0.4752 0.0
C591 C 0.49163 0.95038 0.42644 0.0
N592 N 0.33613 0.82847 0.41307 0.0
C593 C 0.4027 0.90823 0.40685 0.0
H594 H 0.39038 0.94419 0.38907 0.0
C595 C 0.07759 0.59377 0.41912 0.0
N596 N 0.16956 0.66506 0.4195 0.0
C597 C 0.0349 0.5105 0.44137 0.0
C598 C 0.09519 0.48649 0.47163 0.0
H599 H 0.03073 0.59245 0.4008 0.0
H600 H 0.49191 0.72542 0.52479 0.0
H601 H 0.98412 0.59769 0.29021 0.0
H602 H 0.58772 0.90259 0.49317 0.0
H603 H 0.52667 0.00922 0.41593 0.0
H604 H 0.35239 0.58755 0.5215 0.0
H605 H 0.22321 0.03236 0.28293 0.0
H606 H 0.78265 0.64822 0.2404 0.0
H607 H 0.83815 0.5075 0.25151 0.0
H608 H 0.84803 0.85706 0.17775 0.0
H609 H 0.05777 0.49018 0.45809 0.0
H610 H 0.06657 0.43484 0.49297 0.0
H611 H 0.74078 0.71839 0.19505 0.0
H612 H 0.17014 0.10388 0.23172 0.0
N613 N 0.98937 0.71923 0.29705 0.0
C614 C 0.78297 0.59673 0.23965 0.0
C615 C 0.85381 0.56721 0.25763 0.0
C616 C 0.80596 0.69756 0.24758 0.0
C617 C 0.94827 0.77133 0.28934 0.0
C618 C 0.94902 0.62689 0.28456 0.0
N619 N 0.1007 0.91357 0.28952 0.0
C620 C 0.00756 0.85515 0.27753 0.0
C621 C 0.12473 0.04622 0.23954 0.0
C622 C 0.02458 -0.00046 0.21514 0.0
C623 C 0.15814 0.00072 0.27402 0.0
C624 C 0.94833 0.90252 0.22494 0.0
H625 H 0.01165 0.02851 0.19344 0.0
O626 O 0.23407 0.8556 0.2673 0.0
O627 O 0.24103 0.81215 0.34255 0.0
O628 O 0.25445 0.92254 0.38394 0.0
O629 O 0.16529 0.92988 0.34055 0.0
O630 O 0.28698 0.89483 0.30796 0.0
O631 O 0.11018 0.77449 0.25005 0.0
O632 O 0.13509 0.84235 0.43424 0.0
O633 O 0.09749 0.80863 0.36448 0.0
O634 O 0.10786 0.69621 0.31821 0.0
O635 O 0.19123 0.69823 0.36654 0.0
O636 O 0.05883 0.7121 0.39286 0.0
O637 O 0.23693 0.83231 0.45474 0.0
C638 C 0.31147 0.85899 0.33005 0.0
C639 C 0.85863 0.84132 0.20419 0.0
C640 C 0.79201 0.75107 0.21472 0.0
C641 C 0.18635 0.81516 0.23979 0.0
C642 C 0.20621 0.85934 0.20565 0.0
C643 C 0.24662 0.941 0.2092 0.0
C644 C 0.1896 0.82416 0.1699 0.0
C645 C 0.2005 0.87046 0.13903 0.0
C646 C 0.24905 0.98469 0.17983 0.0
C647 C 0.21818 0.9481 0.14599 0.0
C648 C 0.21945 0.9609 0.36905 0.0
C649 C 0.03137 0.75022 0.37486 0.0
C650 C 0.18089 0.85016 0.46311 0.0
C651 C 0.13603 0.81497 0.49625 0.0
C652 C 0.07192 0.73786 0.49244 0.0
C653 C 0.16038 0.85184 0.53173 0.0
C654 C 0.12711 0.8062 0.56266 0.0
C655 C 0.04737 0.69149 0.52223 0.0
C656 C 0.08093 0.72411 0.55645 0.0
C657 C 0.15179 0.66884 0.33485 0.0
H658 H 0.26638 0.97115 0.23565 0.0
H659 H 0.16931 0.76267 0.16655 0.0
H660 H 0.26873 0.04593 0.18413 0.0
H661 H 0.21273 0.98318 0.12511 0.0
H662 H 0.05107 0.70977 0.46583 0.0
H663 H 0.20376 0.91378 0.53497 0.0
H664 H 0.0056 0.62928 0.51849 0.0
H665 H 0.06452 0.68445 0.57855 0.0
Gd666 Gd 0.86033 0.70343 0.73848 0.0
Gd667 Gd 0.83015 0.6435 0.64478 0.0
C668 C 0.59627 0.67446 0.62074 0.0
C669 C 0.49372 0.54434 0.60012 0.0
C670 C 0.6356 0.57487 0.61686 0.0
C671 C 0.65682 0.65024 0.62539 0.0
C672 C 0.55321 0.52054 0.60455 0.0
C673 C 0.51585 0.62181 0.60694 0.0
C674 C 0.61484 0.74817 0.63367 0.0
C675 C 0.68654 0.79099 0.65519 0.0
N676 N 0.73268 0.69678 0.64236 0.0
C677 C 0.74203 0.76293 0.66046 0.0
H678 H 0.78533 0.7907 0.68266 0.0
C679 C 0.67629 0.48117 0.60995 0.0
N680 N 0.69384 0.55286 0.62225 0.0
C681 C 0.59574 0.42443 0.59893 0.0
C682 C 0.53284 0.4435 0.59748 0.0
H683 H 0.72587 0.47009 0.60644 0.0
H684 H 0.46878 0.63917 0.60378 0.0
H685 H 0.04988 0.73304 0.76429 0.0
H686 H 0.57023 0.76856 0.63076 0.0
H687 H 0.69629 0.8431 0.66994 0.0
H688 H 0.43006 0.50323 0.59228 0.0
H689 H 0.83327 0.88039 0.73029 0.0
H690 H 0.05719 0.74879 0.88037 0.0
H691 H 0.1221 0.74395 0.82386 0.0
H692 H 0.87843 0.84723 0.91143 0.0
H693 H 0.58307 0.36679 0.59098 0.0
H694 H 0.46978 0.39934 0.58979 0.0
H695 H 0.95908 0.78007 0.91216 0.0
H696 H 0.80117 -0.00787 0.81298 0.0
N697 N 0.95882 0.75401 0.78786 0.0
C698 C 0.03022 0.75299 0.85481 0.0
C699 C 0.06599 0.74768 0.82267 0.0
C700 C 0.96437 0.7691 0.85362 0.0
C701 C 0.93104 0.77095 0.81895 0.0
C702 C 0.02772 0.74559 0.78908 0.0
N703 N 0.86281 0.81262 0.77349 0.0
C704 C 0.87821 0.80026 0.81461 0.0
C705 C 0.81354 0.94503 0.81215 0.0
C706 C 0.82989 0.91112 0.85324 0.0
C707 C 0.83937 0.8759 0.75946 0.0
C708 C 0.86228 0.84267 0.85311 0.0
H709 H 0.82437 0.93633 0.87875 0.0
O710 O 0.75554 0.61944 0.76854 0.0
O711 O 0.76591 0.61415 0.69682 0.0
O712 O 0.88937 0.7702 0.64168 0.0
O713 O 0.91903 0.81986 0.70216 0.0
O714 O 0.73296 0.68499 0.72437 0.0
O715 O 0.87211 0.62706 0.77877 0.0
O716 O 0.85143 0.5814 0.59942 0.0
O717 O 0.92761 0.72034 0.6873 0.0
O718 O 0.91247 0.62257 0.72587 0.0
O719 O 0.83328 0.54394 0.6758 0.0
O720 O 0.96265 0.66222 0.65652 0.0
O721 O 0.86694 0.69509 0.59222 0.0
C722 C 0.70336 0.62185 0.70337 0.0
C723 C 0.8892 0.82607 0.88586 0.0
C724 C 0.93716 0.78843 0.88594 0.0
C725 C 0.79557 0.59394 0.7884 0.0
C726 C 0.77925 0.59025 0.82855 0.0
C727 C 0.75321 0.64094 0.84134 0.0
C728 C 0.78483 0.53905 0.85422 0.0
C729 C 0.76966 0.54694 0.89187 0.0
C730 C 0.75311 0.65724 0.87798 0.0
C731 C 0.76253 0.61172 0.9031 0.0
C732 C 0.92148 0.83018 0.66506 0.0
C733 C 0.99565 0.72458 0.67804 0.0
C734 C 0.86624 0.63555 0.5764 0.0
C735 C 0.83025 0.61457 0.53813 0.0
C736 C 0.76673 0.5389 0.52794 0.0
C737 C 0.86235 0.67031 0.51076 0.0
C738 C 0.83181 0.64944 0.47409 0.0
C739 C 0.73443 0.51914 0.49207 0.0
C740 C 0.76686 0.57381 0.46528 0.0
C741 C 0.87777 0.55439 0.70696 0.0
H742 H 0.73413 0.66879 0.82211 0.0
H743 H 0.79835 0.494 0.84523 0.0
H744 H 0.74078 0.7029 0.88704 0.0
H745 H 0.75944 0.62505 0.93159 0.0
H746 H 0.74238 0.49432 0.54738 0.0
H747 H 0.91172 0.72914 0.5178 0.0
H748 H 0.6848 0.46069 0.48483 0.0
H749 H 0.7418 0.55684 0.43746 0.0
Gd750 Gd 0.31754 0.16418 0.73123 0.0
Gd751 Gd 0.40674 0.18534 0.64537 0.0
C752 C 0.60054 0.11189 0.56186 0.0
C753 C 0.73833 0.24614 0.56174 0.0
C754 C 0.58598 0.24428 0.62 0.0
C755 C 0.53813 0.15856 0.6032 0.0
C756 C 0.68131 0.3017 0.6099 0.0
C757 C 0.6852 0.16243 0.54583 0.0
C758 C 0.58946 0.03047 0.57348 0.0
C759 C 0.50884 -0.01031 0.63023 0.0
N760 N 0.48245 0.11416 0.63154 0.0
C761 C 0.47128 0.04073 0.64679 0.0
H762 H 0.42941 0.01549 0.66858 0.0
C763 C 0.6045 0.3013 0.67817 0.0
N764 N 0.55328 0.25583 0.64981 0.0
C765 C 0.68429 0.35881 0.67197 0.0
C766 C 0.71876 0.36356 0.63827 0.0
H767 H 0.58093 0.29991 0.70488 0.0
H768 H 0.71198 0.13777 0.52817 0.0
H769 H 0.35875 0.34585 0.76718 0.0
H770 H 0.62169 0.00649 0.55756 0.0
H771 H 0.49217 0.93924 0.64709 0.0
H772 H 0.78958 0.27512 0.54542 0.0
H773 H 0.24375 -0.0007 0.75891 0.0
H774 H 0.10987 0.26335 0.81651 0.0
H775 H 0.30602 0.4119 0.81459 0.0
H776 H 0.95487 0.03727 0.84984 0.0
H777 H 0.71923 0.4019 0.69359 0.0
H778 H 0.77892 0.41463 0.63658 0.0
H779 H 0.99104 0.1709 0.8545 0.0
H780 H 0.11882 0.88601 0.77016 0.0
N781 N 0.24035 0.2279 0.74955 0.0
C782 C 0.16142 0.31324 0.82216 0.0
C783 C 0.26182 0.35361 0.80556 0.0
C784 C 0.0804 0.21725 0.80464 0.0
C785 C 0.14273 0.16665 0.75428 0.0
C786 C 0.29551 0.31168 0.77166 0.0
N787 N 0.18592 0.06664 0.746 0.0
C788 C 0.11994 0.07882 0.75243 0.0
C789 C 0.11783 0.93965 0.76682 0.0
C790 C 0.04718 0.94441 0.7697 0.0
C791 C 0.18822 0.00371 0.75898 0.0
C792 C 0.05014 0.01813 0.77886 0.0
H793 H 1.00028 0.8889 0.77444 0.0
O794 O 0.30022 0.15351 0.78886 0.0
O795 O 0.4324 0.1777 0.70419 0.0
O796 O 0.31768 0.05426 0.6489 0.0
O797 O 0.23359 0.04915 0.69558 0.0
O798 O 0.36479 0.07938 0.73209 0.0
O799 O 0.42479 0.22056 0.77116 0.0
O800 O 0.42203 0.25361 0.59877 0.0
O801 O 0.29084 0.16498 0.67339 0.0
O802 O 0.3864 0.29239 0.71821 0.0
O803 O 0.47219 0.30914 0.67092 0.0
O804 O 0.33522 0.2523 0.63931 0.0
O805 O 0.35006 0.12869 0.59075 0.0
C806 C 0.43405 0.11872 0.71632 0.0
C807 C 0.99105 0.06466 0.82643 0.0
C808 C 0.01228 0.15226 0.83119 0.0
C809 C 0.3782 0.19523 0.79906 0.0
C810 C 0.40589 0.16704 0.83056 0.0
C811 C 0.36677 0.08654 0.83581 0.0
C812 C 0.46319 0.2198 0.85797 0.0
C813 C 0.48274 0.19105 0.88954 0.0
C814 C 0.38622 0.05843 0.8666 0.0
C815 C 0.44314 0.11024 0.89298 0.0
C816 C 0.25026 0.01444 0.6679 0.0
C817 C 0.27266 0.2125 0.65908 0.0
C818 C 0.3751 0.19588 0.57608 0.0
C819 C 0.38842 0.20902 0.53621 0.0
C820 C 0.45467 0.2802 0.5254 0.0
C821 C 0.33618 0.15338 0.50845 0.0
C822 C 0.35646 0.16701 0.47133 0.0
C823 C 0.47755 0.29099 0.48937 0.0
C824 C 0.43011 0.23413 0.46271 0.0
C825 C 0.45618 0.33517 0.70144 0.0
H826 H 0.32068 0.04503 0.8161 0.0
H827 H 0.48998 0.28211 0.8553 0.0
H828 H 0.35536 -0.0037 0.87056 0.0
H829 H 0.45272 0.08743 0.91747 0.0
H830 H 0.49288 0.32612 0.54485 0.0
H831 H 0.27966 0.10178 0.51547 0.0
H832 H 0.53214 0.344 0.48209 0.0
H833 H 0.44692 0.24582 0.43459 0.0
Gd834 Gd 0.80957 0.1543 0.64091 0.0
Gd835 Gd 0.86087 0.12767 0.732 0.0
C836 C 0.124 0.12909 0.81268 0.0
C837 C 0.01527 0.96032 0.83659 0.0
C838 C 0.91957 0.01178 0.77092 0.0
C839 C 0.00598 0.10322 0.76933 0.0
C840 C 0.92262 0.93312 0.80651 0.0
C841 C 0.10882 0.05108 0.83923 0.0
C842 C 0.1987 0.21648 0.80854 0.0
C843 C 0.15829 0.28371 0.75977 0.0
N844 N 0.00279 0.1618 0.7464 0.0
C845 C 0.06937 0.24157 0.74018 0.0
H846 H 0.05704 0.27752 0.7224 0.0
C847 C 0.74426 0.92711 0.75245 0.0
N848 N 0.83623 -0.00161 0.75283 0.0
C849 C 0.70157 0.84384 0.7747 0.0
C850 C 0.76185 0.81982 0.80496 0.0
H851 H 0.6974 0.92579 0.73413 0.0
H852 H 0.15858 0.05876 0.85812 0.0
H853 H 0.65078 0.93102 0.62354 0.0
H854 H 0.25439 0.23592 0.8265 0.0
H855 H 0.19334 0.34255 0.74926 0.0
H856 H 0.01906 0.92089 0.85484 0.0
H857 H 0.88988 0.3657 0.61626 0.0
H858 H 0.44932 0.98155 0.57373 0.0
H859 H 0.50482 0.84084 0.58484 0.0
H860 H 0.51469 0.1904 0.51109 0.0
H861 H 0.72443 0.82352 0.79142 0.0
H862 H 0.73324 0.76818 0.8263 0.0
H863 H 0.40745 0.05172 0.52838 0.0
H864 H 0.83681 0.43722 0.56505 0.0
N865 N 0.65604 0.05256 0.63038 0.0
C866 C 0.44963 0.93006 0.57299 0.0
C867 C 0.52047 0.90054 0.59096 0.0
C868 C 0.47263 0.03089 0.58092 0.0
C869 C 0.61494 0.10466 0.62267 0.0
C870 C 0.61569 0.96022 0.61789 0.0
N871 N 0.76737 0.24691 0.62285 0.0
C872 C 0.67423 0.18848 0.61086 0.0
C873 C 0.79139 0.37955 0.57287 0.0
C874 C 0.69125 0.33287 0.54848 0.0
C875 C 0.82481 0.33405 0.60735 0.0
C876 C 0.61499 0.23586 0.55828 0.0
H877 H 0.67832 0.36184 0.52677 0.0
O878 O 0.90074 0.18894 0.60063 0.0
O879 O 0.90769 0.14548 0.67588 0.0
O880 O 0.92111 0.25587 0.71728 0.0
O881 O 0.83195 0.26321 0.67389 0.0
O882 O 0.95364 0.22816 0.6413 0.0
O883 O 0.77685 0.10783 0.58338 0.0
O884 O 0.80176 0.17569 0.76758 0.0
O885 O 0.76416 0.14197 0.69782 0.0
O886 O 0.77453 0.02954 0.65155 0.0
O887 O 0.85789 0.03157 0.69988 0.0
O888 O 0.7255 0.04543 0.72619 0.0
O889 O 0.9036 0.16565 0.78807 0.0
C890 C 0.97814 0.19233 0.66338 0.0
C891 C 0.5253 0.17465 0.53753 0.0
C892 C 0.45868 0.08441 0.54805 0.0
C893 C 0.85302 0.14849 0.57312 0.0
C894 C 0.87287 0.19267 0.53899 0.0
C895 C 0.91329 0.27433 0.54254 0.0
C896 C 0.85627 0.15749 0.50323 0.0
C897 C 0.86716 0.20379 0.47236 0.0
C898 C 0.91571 0.31802 0.51316 0.0
C899 C 0.88484 0.28143 0.47933 0.0
C900 C 0.88611 0.29423 0.70238 0.0
C901 C 0.69804 0.08355 0.7082 0.0
C902 C 0.84756 0.18349 0.79644 0.0
C903 C 0.8027 0.14831 0.82959 0.0
C904 C 0.73859 0.0712 0.82577 0.0
C905 C 0.82705 0.18517 0.86506 0.0
C906 C 0.79378 0.13954 0.89599 0.0
C907 C 0.71404 0.02483 0.85557 0.0
C908 C 0.7476 0.05745 0.88978 0.0
C909 C 0.81845 0.00217 0.66818 0.0
H910 H 0.93304 0.30448 0.56898 0.0
H911 H 0.83598 0.096 0.49988 0.0
H912 H 0.93539 0.37926 0.51746 0.0
H913 H 0.8794 0.31651 0.45845 0.0
H914 H 0.71774 0.0431 0.79916 0.0
H915 H 0.87042 0.24711 0.86831 0.0
H916 H 0.67227 0.96262 0.85182 0.0
H917 H 0.73119 0.01779 0.91188 0.0
loop_
_geom_bond_atom_site_label_1
_geom_bond_atom_site_label_2
_geom_bond_distance
_geom_bond_site_symmetry_2
_ccdc_geom_bond_type
H0 C3 0.931 . S
H1 C6 0.928 . S
H2 C8 0.930 . S
C3 H0 0.931 . S
C3 C4 1.413 . S
C3 C5 1.360 . S
C4 C3 1.413 . S
C4 C8 1.429 . S
C5 C3 1.360 . S
C5 C6 1.372 . S
C6 H1 0.928 . S
C6 C5 1.372 . S
C6 C7 1.404 . S
C7 C6 1.404 . S
C7 C8 1.391 . S
C8 H2 0.930 . S
C8 C4 1.429 . S
C8 C7 1.391 . S
H9 C12 0.931 . S
H10 C15 0.928 . S
H11 C17 0.930 . S
C12 H9 0.931 . S
C12 C13 1.413 . S
C12 C14 1.360 . S
C13 C12 1.413 . S
C13 C17 1.429 . S
C14 C12 1.360 . S
C14 C15 1.372 . S
C15 H10 0.928 . S
C15 C14 1.372 . S
C15 C16 1.404 . S
C16 C15 1.404 . S
C16 C17 1.391 . S
C17 H11 0.930 . S
C17 C13 1.429 . S
C17 C16 1.391 . S
H18 C21 0.931 . S
H19 C24 0.928 . S
H20 C26 0.930 . S
C21 H18 0.931 . S
C21 C22 1.413 . S
C21 C23 1.360 . S
C22 C21 1.413 . S
C22 C26 1.429 . S
C23 C21 1.360 . S
C23 C24 1.372 . S
C24 H19 0.928 . S
C24 C23 1.372 . S
C24 C25 1.404 . S
C25 C24 1.404 . S
C25 C26 1.391 . S
C26 H20 0.930 . S
C26 C22 1.429 . S
C26 C25 1.391 . S
H27 C30 0.931 . S
H28 C33 0.928 . S
H29 C35 0.930 . S
C30 H27 0.931 . S
C30 C31 1.413 . S
C30 C32 1.360 . S
C31 C30 1.413 . S
C31 C35 1.429 . S
C32 C30 1.360 . S
C32 C33 1.372 . S
C33 H28 0.928 . S
C33 C32 1.372 . S
C33 C34 1.404 . S
C34 C33 1.404 . S
C34 C35 1.391 . S
C35 H29 0.930 . S
C35 C31 1.429 . S
C35 C34 1.391 . S
H36 C39 0.931 . S
H37 C42 0.928 . S
H38 C44 0.930 . S
C39 H36 0.931 . S
C39 C40 1.413 . S
C39 C41 1.360 . S
C40 C39 1.413 . S
C40 C44 1.429 . S
C41 C39 1.360 . S
C41 C42 1.372 . S
C42 H37 0.928 . S
C42 C41 1.372 . S
C42 C43 1.404 . S
C43 C42 1.404 . S
C43 C44 1.391 . S
C44 H38 0.930 . S
C44 C40 1.429 . S
C44 C43 1.391 . S
H45 C48 0.931 . S
H46 C51 0.928 . S
H47 C53 0.930 . S
C48 H45 0.931 . S
C48 C49 1.413 . S
C48 C50 1.360 . S
C49 C48 1.413 . S
C49 C53 1.429 . S
C50 C48 1.360 . S
C50 C51 1.372 . S
C51 H46 0.928 . S
C51 C50 1.372 . S
C51 C52 1.404 . S
C52 C51 1.404 . S
C52 C53 1.391 . S
C53 H47 0.930 . S
C53 C49 1.429 . S
C53 C52 1.391 . S
H54 C57 0.931 . S
H55 C60 0.928 . S
H56 C62 0.930 . S
C57 H54 0.931 . S
C57 C58 1.413 . S
C57 C59 1.360 . S
C58 C57 1.413 . S
C58 C62 1.429 . S
C59 C57 1.360 . S
C59 C60 1.372 . S
C60 H55 0.928 . S
C60 C59 1.372 . S
C60 C61 1.404 . S
C61 C60 1.404 . S
C61 C62 1.391 . S
C62 H56 0.930 . S
C62 C58 1.429 . S
C62 C61 1.391 . S
H63 C66 0.931 . S
H64 C69 0.928 . S
H65 C71 0.930 . S
C66 H63 0.931 . S
C66 C67 1.413 . S
C66 C68 1.360 . S
C67 C66 1.413 . S
C67 C71 1.429 . S
C68 C66 1.360 . S
C68 C69 1.372 . S
C69 H64 0.928 . S
C69 C68 1.372 . S
C69 C70 1.404 . S
C70 C69 1.404 . S
C70 C71 1.391 . S
C71 H65 0.930 . S
C71 C67 1.429 . S
C71 C70 1.391 . S
H72 C75 0.931 . S
H73 C78 0.928 . S
H74 C80 0.930 . S
C75 H72 0.931 . S
C75 C76 1.413 . S
C75 C77 1.360 . S
C76 C75 1.413 . S
C76 C80 1.429 . S
C77 C75 1.360 . S
C77 C78 1.372 . S
C78 H73 0.928 . S
C78 C77 1.372 . S
C78 C79 1.404 . S
C79 C78 1.404 . S
C79 C80 1.391 . S
C80 H74 0.930 . S
C80 C76 1.429 . S
C80 C79 1.391 . S
H81 C84 0.931 . S
H82 C87 0.928 . S
H83 C89 0.930 1_554 S
C84 H81 0.931 . S
C84 C85 1.413 . S
C84 C86 1.360 . S
C85 C84 1.413 . S
C85 C89 1.429 . S
C86 C84 1.360 . S
C86 C87 1.372 . S
C87 H82 0.928 . S
C87 C86 1.372 . S
C87 C88 1.404 . S
C88 C87 1.404 . S
C88 C89 1.391 . S
C89 H83 0.930 1_556 S
C89 C85 1.429 . S
C89 C88 1.391 . S
H90 C93 0.931 . S
H91 C96 0.928 . S
H92 C98 0.930 1_554 S
C93 H90 0.931 . S
C93 C94 1.413 . S
C93 C95 1.360 . S
C94 C93 1.413 . S
C94 C98 1.429 . S
C95 C93 1.360 . S
C95 C96 1.372 . S
C96 H91 0.928 . S
C96 C95 1.372 . S
C96 C97 1.404 . S
C97 C96 1.404 . S
C97 C98 1.391 . S
C98 H92 0.930 1_556 S
C98 C94 1.429 . S
C98 C97 1.391 . S
H99 C102 0.931 . S
H100 C105 0.928 . S
H101 C107 0.930 1_554 S
C102 H99 0.931 . S
C102 C103 1.413 . S
C102 C104 1.360 . S
C103 C102 1.413 . S
C103 C107 1.429 . S
C104 C102 1.360 . S
C104 C105 1.372 . S
C105 H100 0.928 . S
C105 C104 1.372 . S
C105 C106 1.404 . S
C106 C105 1.404 . S
C106 C107 1.391 . S
C107 H101 0.930 1_556 S
C107 C103 1.429 . S
C107 C106 1.391 . S
H108 C111 0.931 . S
H109 C114 0.928 . S
H110 C116 0.930 . S
C111 H108 0.931 . S
C111 C112 1.413 . S
C111 C113 1.360 . S
C112 C111 1.413 . S
C112 C116 1.429 . S
C113 C111 1.360 . S
C113 C114 1.372 . S
C114 H109 0.928 . S
C114 C113 1.372 . S
C114 C115 1.404 . S
C115 C114 1.404 . S
C115 C116 1.391 . S
C116 H110 0.930 . S
C116 C112 1.429 . S
C116 C115 1.391 . S
H117 C120 0.931 . S
H118 C123 0.928 . S
H119 C125 0.930 . S
C120 H117 0.931 . S
C120 C121 1.413 . S
C120 C122 1.360 . S
C121 C120 1.413 . S
C121 C125 1.429 . S
C122 C120 1.360 . S
C122 C123 1.372 . S
C123 H118 0.928 . S
C123 C122 1.372 . S
C123 C124 1.404 . S
C124 C123 1.404 . S
C124 C125 1.391 . S
C125 H119 0.930 . S
C125 C121 1.429 . S
C125 C124 1.391 . S
H126 C129 0.931 . S
H127 C132 0.928 . S
H128 C134 0.930 . S
C129 H126 0.931 . S
C129 C130 1.413 . S
C129 C131 1.360 . S
C130 C129 1.413 . S
C130 C134 1.429 . S
C131 C129 1.360 . S
C131 C132 1.372 . S
C132 H127 0.928 . S
C132 C131 1.372 . S
C132 C133 1.404 . S
C133 C132 1.404 . S
C133 C134 1.391 . S
C134 H128 0.930 . S
C134 C130 1.429 . S
C134 C133 1.391 . S
H135 C138 0.931 . S
H136 C141 0.928 . S
H137 C143 0.930 . S
C138 H135 0.931 . S
C138 C139 1.413 . S
C138 C140 1.360 . S
C139 C138 1.413 . S
C139 C143 1.429 . S
C140 C138 1.360 . S
C140 C141 1.372 . S
C141 H136 0.928 . S
C141 C140 1.372 . S
C141 C142 1.404 . S
C142 C141 1.404 . S
C142 C143 1.391 . S
C143 H137 0.930 . S
C143 C139 1.429 . S
C143 C142 1.391 . S
H144 C147 0.931 . S
H145 C150 0.928 . S
H146 C152 0.930 . S
C147 H144 0.931 . S
C147 C148 1.413 . S
C147 C149 1.360 . S
C148 C147 1.413 . S
C148 C152 1.429 . S
C149 C147 1.360 . S
C149 C150 1.372 . S
C150 H145 0.928 . S
C150 C149 1.372 . S
C150 C151 1.404 . S
C151 C150 1.404 . S
C151 C152 1.391 . S
C152 H146 0.930 . S
C152 C148 1.429 . S
C152 C151 1.391 . S
H153 C156 0.931 . S
H154 C159 0.928 . S
H155 C161 0.930 . S
C156 H153 0.931 . S
C156 C157 1.413 . S
C156 C158 1.360 . S
C157 C156 1.413 . S
C157 C161 1.429 . S
C158 C156 1.360 . S
C158 C159 1.372 . S
C159 H154 0.928 . S
C159 C158 1.372 . S
C159 C160 1.404 . S
C160 C159 1.404 . S
C160 C161 1.391 . S
C161 H155 0.930 . S
C161 C157 1.429 . S
C161 C160 1.391 . S
Gd162 N193 2.661 . S
Gd162 N199 2.601 . S
Gd162 O206 2.545 . S
Gd162 O207 2.606 1_545 S
Gd162 O209 2.429 . S
Gd162 O210 2.545 1_545 S
Gd162 O211 2.412 . S
Gd162 O213 2.362 1_554 S
Gd162 O214 2.324 1_545 S
Gd162 C221 2.828 . S
Gd163 N172 2.661 . S
Gd163 N176 2.601 . S
Gd163 O207 2.362 1_556 S
Gd163 O208 2.324 1_565 S
Gd163 O212 2.545 . S
Gd163 O213 2.606 1_565 S
Gd163 O215 2.429 . S
Gd163 O216 2.545 1_565 S
Gd163 O217 2.412 . S
Gd163 C230 2.828 . S
C164 C167 1.417 . S
C164 C169 1.431 . S
C164 C170 1.412 . S
C165 C168 1.437 . S
C165 C169 1.317 . S
C165 H184 0.929 . S
C166 C167 1.426 . S
C166 C168 1.413 . S
C166 N176 1.359 . S
C167 C164 1.417 . S
C167 C166 1.426 . S
C167 N172 1.350 . S
C168 C165 1.437 . S
C168 C166 1.413 . S
C168 C178 1.391 . S
C169 C164 1.431 . S
C169 C165 1.317 . S
C169 H180 0.930 . S
C170 C164 1.412 . S
C170 C171 1.355 . S
C170 H182 0.930 . S
C171 C170 1.355 . S
C171 C173 1.402 . S
C171 H183 0.930 . S
N172 Gd163 2.661 . S
N172 C167 1.350 . S
N172 C173 1.307 . S
C173 C171 1.402 . S
C173 N172 1.307 . S
C173 H174 0.930 . S
H174 C173 0.930 . S
C175 N176 1.334 . S
C175 C177 1.394 . S
C175 H179 0.930 . S
N176 Gd163 2.601 . S
N176 C166 1.359 . S
N176 C175 1.334 . S
C177 C175 1.394 . S
C177 C178 1.359 . S
C177 H189 0.930 . S
C178 C168 1.391 . S
C178 C177 1.359 . S
C178 H190 0.929 . S
H179 C175 0.930 . S
H180 C169 0.930 . S
H181 C198 0.930 . S
H182 C170 0.930 . S
H183 C171 0.930 . S
H184 C165 0.929 . S
H185 C203 0.930 . S
H186 C194 0.930 . S
H187 C195 0.930 . S
H188 C219 0.929 . S
H189 C177 0.930 . S
H190 C178 0.929 . S
H191 C220 0.930 . S
H192 C201 0.930 . S
N193 Gd162 2.661 . S
N193 C197 1.350 . S
N193 C198 1.307 . S
C194 H186 0.930 . S
C194 C195 1.355 . S
C194 C196 1.412 . S
C195 H187 0.930 . S
C195 C194 1.355 . S
C195 C198 1.402 . S
C196 C194 1.412 . S
C196 C197 1.417 . S
C196 C220 1.431 . S
C197 N193 1.350 . S
C197 C196 1.417 . S
C197 C200 1.426 . S
C198 H181 0.930 . S
C198 N193 1.307 . S
C198 C195 1.402 . S
N199 Gd162 2.601 . S
N199 C200 1.359 . S
N199 C203 1.334 . S
C200 C197 1.426 . S
C200 N199 1.359 . S
C200 C204 1.413 . S
C201 H192 0.930 . S
C201 C202 1.359 . S
C201 C203 1.394 . S
C202 C201 1.359 . S
C202 C204 1.391 . S
C202 H205 0.929 . S
C203 H185 0.930 . S
C203 N199 1.334 . S
C203 C201 1.394 . S
C204 C200 1.413 . S
C204 C202 1.391 . S
C204 C219 1.437 . S
H205 C202 0.929 . S
O206 Gd162 2.545 . S
O206 C221 1.258 . S
O207 Gd162 2.606 1_565 S
O207 Gd163 2.362 1_554 S
O207 C218 1.284 . S
O208 Gd163 2.324 1_545 S
O208 C228 1.254 . S
O209 Gd162 2.429 . S
O209 C228 1.268 1_554 S
O210 Gd162 2.545 1_565 S
O210 C218 1.250 . S
O211 Gd162 2.412 . S
O211 C221 1.252 . S
O212 Gd163 2.545 . S
O212 C230 1.258 . S
O213 Gd162 2.362 1_556 S
O213 Gd163 2.606 1_545 S
O213 C229 1.284 . S
O214 Gd162 2.324 1_565 S
O214 C237 1.254 . S
O215 Gd163 2.429 . S
O215 C237 1.268 1_556 S
O216 Gd163 2.545 1_545 S
O216 C229 1.250 . S
O217 Gd163 2.412 . S
O217 C230 1.252 . S
C218 O207 1.284 . S
C218 O210 1.250 . S
C219 H188 0.929 . S
C219 C204 1.437 . S
C219 C220 1.317 . S
C220 H191 0.930 . S
C220 C196 1.431 . S
C220 C219 1.317 . S
C221 Gd162 2.828 . S
C221 O206 1.258 . S
C221 O211 1.252 . S
C221 C222 1.497 . S
C222 C221 1.497 . S
C222 C223 1.395 . S
C222 C224 1.380 1_545 S
C223 C222 1.395 . S
C223 C226 1.398 . S
C223 H238 0.930 . S
C224 C222 1.380 1_565 S
C224 C225 1.391 . S
C224 H239 0.930 . S
C225 C224 1.391 . S
C225 C227 1.387 1_565 S
C226 C223 1.398 . S
C226 C227 1.380 . S
C226 H240 0.930 . S
C227 C225 1.387 1_545 S
C227 C226 1.380 . S
C227 H241 0.930 . S
C228 O208 1.254 . S
C228 O209 1.268 1_556 S
C229 O213 1.284 . S
C229 O216 1.250 . S
C230 Gd163 2.828 . S
C230 O212 1.258 . S
C230 O217 1.252 . S
C230 C231 1.497 . S
C231 C230 1.497 . S
C231 C232 1.395 . S
C231 C233 1.380 1_565 S
C232 C231 1.395 . S
C232 C235 1.398 . S
C232 H242 0.930 . S
C233 C231 1.380 1_545 S
C233 C234 1.391 . S
C233 H243 0.930 . S
C234 C233 1.391 . S
C234 C236 1.387 1_545 S
C235 C232 1.398 . S
C235 C236 1.380 . S
C235 H244 0.930 . S
C236 C234 1.387 1_565 S
C236 C235 1.380 . S
C236 H245 0.930 . S
C237 O214 1.254 . S
C237 O215 1.268 1_554 S
H238 C223 0.930 . S
H239 C224 0.930 . S
H240 C226 0.930 . S
H241 C227 0.930 . S
H242 C232 0.930 . S
H243 C233 0.930 . S
H244 C235 0.930 . S
H245 C236 0.930 . S
Gd246 N277 2.661 . S
Gd246 N283 2.601 . S
Gd246 O290 2.545 . S
Gd246 O291 2.606 1_655 S
Gd246 O293 2.429 . S
Gd246 O294 2.545 1_655 S
Gd246 O295 2.412 . S
Gd246 O297 2.362 1_554 S
Gd246 O298 2.324 1_655 S
Gd246 C305 2.828 . S
Gd247 N256 2.661 . S
Gd247 N260 2.601 . S
Gd247 O291 2.362 1_556 S
Gd247 O292 2.324 1_455 S
Gd247 O296 2.545 . S
Gd247 O297 2.606 1_455 S
Gd247 O299 2.429 . S
Gd247 O300 2.545 1_455 S
Gd247 O301 2.412 . S
Gd247 C314 2.828 . S
C248 C251 1.417 . S
C248 C253 1.431 . S
C248 C254 1.412 . S
C249 C252 1.437 . S
C249 C253 1.317 . S
C249 H268 0.929 . S
C250 C251 1.426 . S
C250 C252 1.413 . S
C250 N260 1.359 . S
C251 C248 1.417 . S
C251 C250 1.426 . S
C251 N256 1.350 . S
C252 C249 1.437 . S
C252 C250 1.413 . S
C252 C262 1.391 . S
C253 C248 1.431 . S
C253 C249 1.317 . S
C253 H264 0.930 . S
C254 C248 1.412 . S
C254 C255 1.355 . S
C254 H266 0.930 . S
C255 C254 1.355 . S
C255 C257 1.402 . S
C255 H267 0.930 . S
N256 Gd247 2.661 . S
N256 C251 1.350 . S
N256 C257 1.307 . S
C257 C255 1.402 . S
C257 N256 1.307 . S
C257 H258 0.930 . S
H258 C257 0.930 . S
C259 N260 1.334 . S
C259 C261 1.394 . S
C259 H263 0.930 . S
N260 Gd247 2.601 . S
N260 C250 1.359 . S
N260 C259 1.334 . S
C261 C259 1.394 . S
C261 C262 1.359 . S
C261 H273 0.930 . S
C262 C252 1.391 . S
C262 C261 1.359 . S
C262 H274 0.929 . S
H263 C259 0.930 . S
H264 C253 0.930 . S
H265 C282 0.930 . S
H266 C254 0.930 . S
H267 C255 0.930 . S
H268 C249 0.929 . S
H269 C287 0.930 . S
H270 C278 0.930 . S
H271 C279 0.930 . S
H272 C303 0.929 . S
H273 C261 0.930 . S
H274 C262 0.929 . S
H275 C304 0.930 . S
H276 C285 0.930 . S
N277 Gd246 2.661 . S
N277 C281 1.350 . S
N277 C282 1.307 . S
C278 H270 0.930 . S
C278 C279 1.355 . S
C278 C280 1.412 . S
C279 H271 0.930 . S
C279 C278 1.355 . S
C279 C282 1.402 . S
C280 C278 1.412 . S
C280 C281 1.417 . S
C280 C304 1.431 . S
C281 N277 1.350 . S
C281 C280 1.417 . S
C281 C284 1.426 . S
C282 H265 0.930 . S
C282 N277 1.307 . S
C282 C279 1.402 . S
N283 Gd246 2.601 . S
N283 C284 1.359 . S
N283 C287 1.334 . S
C284 C281 1.426 . S
C284 N283 1.359 . S
C284 C288 1.413 . S
C285 H276 0.930 . S
C285 C286 1.359 . S
C285 C287 1.394 . S
C286 C285 1.359 . S
C286 C288 1.391 . S
C286 H289 0.929 . S
C287 H269 0.930 . S
C287 N283 1.334 . S
C287 C285 1.394 . S
C288 C284 1.413 . S
C288 C286 1.391 . S
C288 C303 1.437 . S
H289 C286 0.929 . S
O290 Gd246 2.545 . S
O290 C305 1.258 . S
O291 Gd246 2.606 1_455 S
O291 Gd247 2.362 1_554 S
O291 C302 1.284 . S
O292 Gd247 2.324 1_655 S
O292 C312 1.254 . S
O293 Gd246 2.429 . S
O293 C312 1.268 1_554 S
O294 Gd246 2.545 1_455 S
O294 C302 1.250 . S
O295 Gd246 2.412 . S
O295 C305 1.252 . S
O296 Gd247 2.545 . S
O296 C314 1.258 . S
O297 Gd246 2.362 1_556 S
O297 Gd247 2.606 1_655 S
O297 C313 1.284 . S
O298 Gd246 2.324 1_455 S
O298 C321 1.254 . S
O299 Gd247 2.429 . S
O299 C321 1.268 1_556 S
O300 Gd247 2.545 1_655 S
O300 C313 1.250 . S
O301 Gd247 2.412 . S
O301 C314 1.252 . S
C302 O291 1.284 . S
C302 O294 1.250 . S
C303 H272 0.929 . S
C303 C288 1.437 . S
C303 C304 1.317 . S
C304 H275 0.930 . S
C304 C280 1.431 . S
C304 C303 1.317 . S
C305 Gd246 2.828 . S
C305 O290 1.258 . S
C305 O295 1.252 . S
C305 C306 1.497 . S
C306 C305 1.497 . S
C306 C307 1.395 . S
C306 C308 1.385 . S
C307 C306 1.395 . S
C307 C310 1.398 . S
C307 H322 0.930 . S
C308 C306 1.385 . S
C308 C309 1.390 1_655 S
C308 H323 0.927 1_655 S
C309 C308 1.390 1_455 S
C309 C311 1.387 1_455 S
C310 C307 1.398 . S
C310 C311 1.380 . S
C310 H324 0.930 . S
C311 C309 1.387 1_655 S
C311 C310 1.380 . S
C311 H325 0.930 . S
C312 O292 1.254 . S
C312 O293 1.268 1_556 S
C313 O297 1.284 . S
C313 O300 1.250 . S
C314 Gd247 2.828 . S
C314 O296 1.258 . S
C314 O301 1.252 . S
C314 C315 1.497 . S
C315 C314 1.497 . S
C315 C316 1.395 . S
C315 C317 1.380 . S
C316 C315 1.395 . S
C316 C319 1.398 . S
C316 H326 0.930 . S
C317 C315 1.380 . S
C317 C318 1.391 1_455 S
C317 H327 0.930 1_455 S
C318 C317 1.391 1_655 S
C318 C320 1.387 1_655 S
C319 C316 1.398 . S
C319 C320 1.380 . S
C319 H328 0.930 . S
C320 C318 1.387 1_455 S
C320 C319 1.380 . S
C320 H329 0.930 . S
C321 O298 1.254 . S
C321 O299 1.268 1_554 S
H322 C307 0.930 . S
H323 C308 0.927 1_455 S
H324 C310 0.930 . S
H325 C311 0.930 . S
H326 C316 0.930 . S
H327 C317 0.930 1_655 S
H328 C319 0.930 . S
H329 C320 0.930 . S
Gd330 N361 2.661 . S
Gd330 N367 2.601 . S
Gd330 O374 2.545 . S
Gd330 O375 2.606 . S
Gd330 O377 2.429 . S
Gd330 O378 2.545 . S
Gd330 O379 2.412 . S
Gd330 O381 2.362 1_556 S
Gd330 O382 2.324 . S
Gd330 C389 2.828 . S
Gd331 N340 2.661 . S
Gd331 N344 2.601 . S
Gd331 O375 2.362 1_554 S
Gd331 O376 2.324 . S
Gd331 O380 2.545 . S
Gd331 O381 2.606 . S
Gd331 O383 2.429 . S
Gd331 O384 2.545 . S
Gd331 O385 2.412 . S
Gd331 C398 2.828 . S
C332 C335 1.417 . S
C332 C337 1.431 . S
C332 C338 1.412 . S
C333 C336 1.437 . S
C333 C337 1.317 . S
C333 H352 0.929 . S
C334 C335 1.426 . S
C334 C336 1.413 . S
C334 N344 1.359 . S
C335 C332 1.417 . S
C335 C334 1.426 . S
C335 N340 1.350 . S
C336 C333 1.437 . S
C336 C334 1.413 . S
C336 C346 1.391 . S
C337 C332 1.431 . S
C337 C333 1.317 . S
C337 H348 0.930 . S
C338 C332 1.412 . S
C338 C339 1.355 . S
C338 H350 0.930 . S
C339 C338 1.355 . S
C339 C341 1.402 . S
C339 H351 0.930 . S
N340 Gd331 2.661 . S
N340 C335 1.350 . S
N340 C341 1.307 . S
C341 C339 1.402 . S
C341 N340 1.307 . S
C341 H342 0.930 . S
H342 C341 0.930 . S
C343 N344 1.334 . S
C343 C345 1.394 . S
C343 H347 0.930 . S
N344 Gd331 2.601 . S
N344 C334 1.359 . S
N344 C343 1.334 . S
C345 C343 1.394 . S
C345 C346 1.359 . S
C345 H357 0.930 . S
C346 C336 1.391 . S
C346 C345 1.359 . S
C346 H358 0.929 . S
H347 C343 0.930 . S
H348 C337 0.930 . S
H349 C366 0.930 . S
H350 C338 0.930 . S
H351 C339 0.930 . S
H352 C333 0.929 . S
H353 C371 0.930 . S
H354 C362 0.930 . S
H355 C363 0.930 . S
H356 C387 0.929 . S
H357 C345 0.930 . S
H358 C346 0.929 . S
H359 C388 0.930 . S
H360 C369 0.930 . S
N361 Gd330 2.661 . S
N361 C365 1.350 . S
N361 C366 1.307 . S
C362 H354 0.930 . S
C362 C363 1.355 . S
C362 C364 1.412 . S
C363 H355 0.930 . S
C363 C362 1.355 . S
C363 C366 1.402 . S
C364 C362 1.412 . S
C364 C365 1.417 . S
C364 C388 1.431 . S
C365 N361 1.350 . S
C365 C364 1.417 . S
C365 C368 1.426 . S
C366 H349 0.930 . S
C366 N361 1.307 . S
C366 C363 1.402 . S
N367 Gd330 2.601 . S
N367 C368 1.359 . S
N367 C371 1.334 . S
C368 C365 1.426 . S
C368 N367 1.359 . S
C368 C372 1.413 . S
C369 H360 0.930 . S
C369 C370 1.359 . S
C369 C371 1.394 . S
C370 C369 1.359 . S
C370 C372 1.391 . S
C370 H373 0.929 . S
C371 H353 0.930 . S
C371 N367 1.334 . S
C371 C369 1.394 . S
C372 C368 1.413 . S
C372 C370 1.391 . S
C372 C387 1.437 . S
H373 C370 0.929 . S
O374 Gd330 2.545 . S
O374 C389 1.258 . S
O375 Gd330 2.606 . S
O375 Gd331 2.362 1_556 S
O375 C386 1.284 . S
O376 Gd331 2.324 . S
O376 C396 1.254 . S
O377 Gd330 2.429 . S
O377 C396 1.268 1_556 S
O378 Gd330 2.545 . S
O378 C386 1.250 . S
O379 Gd330 2.412 . S
O379 C389 1.252 . S
O380 Gd331 2.545 . S
O380 C398 1.258 . S
O381 Gd330 2.362 1_554 S
O381 Gd331 2.606 . S
O381 C397 1.284 . S
O382 Gd330 2.324 . S
O382 C405 1.254 . S
O383 Gd331 2.429 . S
O383 C405 1.268 1_554 S
O384 Gd331 2.545 . S
O384 C397 1.250 . S
O385 Gd331 2.412 . S
O385 C398 1.252 . S
C386 O375 1.284 . S
C386 O378 1.250 . S
C387 H356 0.929 . S
C387 C372 1.437 . S
C387 C388 1.317 . S
C388 H359 0.930 . S
C388 C364 1.431 . S
C388 C387 1.317 . S
C389 Gd330 2.828 . S
C389 O374 1.258 . S
C389 O379 1.252 . S
C389 C390 1.497 . S
C390 C389 1.497 . S
C390 C391 1.395 . S
C390 C392 1.380 . S
C391 C390 1.395 . S
C391 C394 1.398 . S
C391 H406 0.930 . S
C392 C390 1.380 . S
C392 C393 1.391 . S
C392 H407 0.930 . S
C393 C392 1.391 . S
C393 C395 1.387 . S
C394 C391 1.398 . S
C394 C395 1.380 . S
C394 H408 0.930 . S
C395 C393 1.387 . S
C395 C394 1.380 . S
C395 H409 0.930 . S
C396 O376 1.254 . S
C396 O377 1.268 1_554 S
C397 O381 1.284 . S
C397 O384 1.250 . S
C398 Gd331 2.828 . S
C398 O380 1.258 . S
C398 O385 1.252 . S
C398 C399 1.497 . S
C399 C398 1.497 . S
C399 C400 1.395 . S
C399 C401 1.380 . S
C400 C399 1.395 . S
C400 C403 1.398 . S
C400 H410 0.930 . S
C401 C399 1.380 . S
C401 C402 1.391 . S
C401 H411 0.930 . S
C402 C401 1.391 . S
C402 C404 1.387 . S
C403 C400 1.398 . S
C403 C404 1.380 . S
C403 H412 0.930 . S
C404 C402 1.387 . S
C404 C403 1.380 . S
C404 H413 0.930 . S
C405 O382 1.254 . S
C405 O383 1.268 1_556 S
H406 C391 0.930 . S
H407 C392 0.930 . S
H408 C394 0.930 . S
H409 C395 0.930 . S
H410 C400 0.930 . S
H411 C401 0.930 . S
H412 C403 0.930 . S
H413 C404 0.930 . S
Gd414 N445 2.661 . S
Gd414 N451 2.601 . S
Gd414 O458 2.545 . S
Gd414 O459 2.606 . S
Gd414 O461 2.429 . S
Gd414 O462 2.545 . S
Gd414 O463 2.412 . S
Gd414 O465 2.362 . S
Gd414 O466 2.324 . S
Gd414 C473 2.828 . S
Gd415 N424 2.661 1_455 S
Gd415 N428 2.601 . S
Gd415 O459 2.362 . S
Gd415 O460 2.324 . S
Gd415 O464 2.545 . S
Gd415 O465 2.606 . S
Gd415 O467 2.429 . S
Gd415 O468 2.545 . S
Gd415 O469 2.412 . S
Gd415 C482 2.828 . S
C416 C419 1.417 . S
C416 C421 1.431 1_545 S
C416 C422 1.412 . S
C417 C420 1.437 1_565 S
C417 C421 1.317 . S
C417 H436 0.929 . S
C418 C419 1.426 . S
C418 C420 1.427 . S
C418 N428 1.359 1_655 S
C419 C416 1.417 . S
C419 C418 1.426 . S
C419 N424 1.350 . S
C420 C417 1.437 1_545 S
C420 C418 1.427 . S
C420 C430 1.377 1_545 S
C421 C416 1.431 1_565 S
C421 C417 1.317 . S
C421 H432 0.930 . S
C422 C416 1.412 . S
C422 C423 1.355 . S
C422 H434 0.930 . S
C423 C422 1.355 . S
C423 C425 1.402 . S
C423 H435 0.930 . S
N424 Gd415 2.661 1_655 S
N424 C419 1.350 . S
N424 C425 1.307 . S
C425 C423 1.402 . S
C425 N424 1.307 . S
C425 H426 0.930 . S
H426 C425 0.930 . S
C427 N428 1.334 . S
C427 C429 1.394 . S
C427 H431 0.930 . S
N428 Gd415 2.601 . S
N428 C418 1.359 1_455 S
N428 C427 1.334 . S
C429 C427 1.394 . S
C429 C430 1.359 1_445 S
C429 H441 0.930 1_545 S
C430 C420 1.377 1_565 S
C430 C429 1.359 1_665 S
C430 H442 0.929 . S
H431 C427 0.930 . S
H432 C421 0.930 . S
H433 C450 0.930 . S
H434 C422 0.930 . S
H435 C423 0.930 . S
H436 C417 0.929 . S
H437 C455 0.930 . S
H438 C446 0.930 . S
H439 C447 0.930 . S
H440 C471 0.929 . S
H441 C429 0.930 1_565 S
H442 C430 0.929 . S
H443 C472 0.930 . S
H444 C453 0.930 . S
N445 Gd414 2.661 . S
N445 C449 1.350 . S
N445 C450 1.307 . S
C446 H438 0.930 . S
C446 C447 1.355 . S
C446 C448 1.412 . S
C447 H439 0.930 . S
C447 C446 1.355 . S
C447 C450 1.402 . S
C448 C446 1.412 . S
C448 C449 1.417 . S
C448 C472 1.431 . S
C449 N445 1.350 . S
C449 C448 1.417 . S
C449 C452 1.426 . S
C450 H433 0.930 . S
C450 N445 1.307 . S
C450 C447 1.402 . S
N451 Gd414 2.601 . S
N451 C452 1.359 . S
N451 C455 1.334 . S
C452 C449 1.426 . S
C452 N451 1.359 . S
C452 C456 1.413 . S
C453 H444 0.930 . S
C453 C454 1.359 . S
C453 C455 1.394 . S
C454 C453 1.359 . S
C454 C456 1.391 . S
C454 H457 0.929 . S
C455 H437 0.930 . S
C455 N451 1.334 . S
C455 C453 1.394 . S
C456 C452 1.413 . S
C456 C454 1.391 . S
C456 C471 1.437 . S
H457 C454 0.929 . S
O458 Gd414 2.545 . S
O458 C473 1.258 . S
O459 Gd414 2.606 . S
O459 Gd415 2.362 . S
O459 C470 1.284 . S
O460 Gd415 2.324 . S
O460 C480 1.254 . S
O461 Gd414 2.429 . S
O461 C480 1.268 . S
O462 Gd414 2.545 . S
O462 C470 1.250 . S
O463 Gd414 2.412 . S
O463 C473 1.252 . S
O464 Gd415 2.545 . S
O464 C482 1.258 . S
O465 Gd414 2.362 . S
O465 Gd415 2.606 . S
O465 C481 1.284 . S
O466 Gd414 2.324 . S
O466 C489 1.254 . S
O467 Gd415 2.429 . S
O467 C489 1.268 . S
O468 Gd415 2.545 . S
O468 C481 1.250 . S
O469 Gd415 2.412 . S
O469 C482 1.252 . S
C470 O459 1.284 . S
C470 O462 1.250 . S
C471 H440 0.929 . S
C471 C456 1.437 . S
C471 C472 1.317 . S
C472 H443 0.930 . S
C472 C448 1.431 . S
C472 C471 1.317 . S
C473 Gd414 2.828 . S
C473 O458 1.258 . S
C473 O463 1.252 . S
C473 C474 1.497 . S
C474 C473 1.497 . S
C474 C475 1.395 . S
C474 C476 1.380 . S
C475 C474 1.395 . S
C475 C478 1.398 . S
C475 H490 0.930 . S
C476 C474 1.380 . S
C476 C477 1.391 . S
C476 H491 0.930 . S
C477 C476 1.391 . S
C477 C479 1.387 . S
C478 C475 1.398 . S
C478 C479 1.380 . S
C478 H492 0.930 . S
C479 C477 1.387 . S
C479 C478 1.380 . S
C479 H493 0.930 . S
C480 O460 1.254 . S
C480 O461 1.268 . S
C481 O465 1.284 . S
C481 O468 1.250 . S
C482 Gd415 2.828 . S
C482 O464 1.258 . S
C482 O469 1.252 . S
C482 C483 1.497 . S
C483 C482 1.497 . S
C483 C484 1.395 . S
C483 C485 1.380 . S
C484 C483 1.395 . S
C484 C487 1.398 . S
C484 H494 0.930 . S
C485 C483 1.380 . S
C485 C486 1.391 . S
C485 H495 0.930 . S
C486 C485 1.391 . S
C486 C488 1.387 . S
C487 C484 1.398 . S
C487 C488 1.380 . S
C487 H496 0.930 . S
C488 C486 1.387 . S
C488 C487 1.380 . S
C488 H497 0.930 . S
C489 O466 1.254 . S
C489 O467 1.268 . S
H490 C475 0.930 . S
H491 C476 0.930 . S
H492 C478 0.930 . S
H493 C479 0.930 . S
H494 C484 0.930 . S
H495 C485 0.930 . S
H496 C487 0.930 . S
H497 C488 0.930 . S
Gd498 N529 2.661 . S
Gd498 N535 2.601 . S
Gd498 O542 2.545 . S
Gd498 O543 2.606 . S
Gd498 O545 2.429 . S
Gd498 O546 2.545 . S
Gd498 O547 2.412 . S
Gd498 O549 2.362 . S
Gd498 O550 2.324 . S
Gd498 C557 2.828 . S
Gd499 N508 2.661 . S
Gd499 N512 2.601 . S
Gd499 O543 2.362 . S
Gd499 O544 2.324 . S
Gd499 O548 2.545 . S
Gd499 O549 2.606 . S
Gd499 O551 2.429 . S
Gd499 O552 2.545 . S
Gd499 O553 2.412 . S
Gd499 C566 2.828 . S
C500 C503 1.417 . S
C500 C505 1.431 1_655 S
C500 C506 1.412 . S
C501 C504 1.437 . S
C501 C505 1.317 . S
C501 H520 0.929 . S
C502 C503 1.426 . S
C502 C504 1.413 1_655 S
C502 N512 1.359 . S
C503 C500 1.417 . S
C503 C502 1.426 . S
C503 N508 1.350 . S
C504 C501 1.437 . S
C504 C502 1.413 1_455 S
C504 C514 1.391 1_565 S
C505 C500 1.431 1_455 S
C505 C501 1.317 . S
C505 H516 0.930 . S
C506 C500 1.412 . S
C506 C507 1.355 . S
C506 H518 0.930 . S
C507 C506 1.355 . S
C507 C509 1.402 . S
C507 H519 0.930 . S
N508 Gd499 2.661 . S
N508 C503 1.350 . S
N508 C509 1.307 . S
C509 C507 1.402 . S
C509 N508 1.307 . S
C509 H510 0.930 . S
H510 C509 0.930 . S
C511 N512 1.334 1_545 S
C511 C513 1.394 1_655 S
C511 H515 0.930 . S
N512 Gd499 2.601 . S
N512 C502 1.359 . S
N512 C511 1.334 1_565 S
C513 C511 1.394 1_455 S
C513 C514 1.359 . S
C513 H525 0.930 . S
C514 C504 1.391 1_545 S
C514 C513 1.359 . S
C514 H526 0.929 . S
H515 C511 0.930 . S
H516 C505 0.930 . S
H517 C534 0.930 . S
H518 C506 0.930 . S
H519 C507 0.930 . S
H520 C501 0.929 . S
H521 C539 0.930 . S
H522 C530 0.930 1_545 S
H523 C531 0.930 . S
H524 C555 0.929 . S
H525 C513 0.930 . S
H526 C514 0.929 . S
H527 C556 0.930 . S
H528 C537 0.930 . S
N529 Gd498 2.661 . S
N529 C533 1.350 . S
N529 C534 1.307 . S
C530 H522 0.930 1_565 S
C530 C531 1.355 1_565 S
C530 C532 1.412 . S
C531 H523 0.930 . S
C531 C530 1.355 1_545 S
C531 C534 1.402 1_545 S
C532 C530 1.412 . S
C532 C533 1.417 . S
C532 C556 1.431 . S
C533 N529 1.350 . S
C533 C532 1.417 . S
C533 C536 1.426 . S
C534 H517 0.930 . S
C534 N529 1.307 . S
C534 C531 1.402 1_565 S
N535 Gd498 2.601 . S
N535 C536 1.359 . S
N535 C539 1.334 . S
C536 C533 1.426 . S
C536 N535 1.359 . S
C536 C540 1.413 . S
C537 H528 0.930 . S
C537 C538 1.359 . S
C537 C539 1.394 . S
C538 C537 1.359 . S
C538 C540 1.391 . S
C538 H541 0.929 . S
C539 H521 0.930 . S
C539 N535 1.334 . S
C539 C537 1.394 . S
C540 C536 1.413 . S
C540 C538 1.391 . S
C540 C555 1.437 . S
H541 C538 0.929 . S
O542 Gd498 2.545 . S
O542 C557 1.258 . S
O543 Gd498 2.606 . S
O543 Gd499 2.362 . S
O543 C554 1.284 . S
O544 Gd499 2.324 . S
O544 C564 1.254 . S
O545 Gd498 2.429 . S
O545 C564 1.268 . S
O546 Gd498 2.545 . S
O546 C554 1.250 . S
O547 Gd498 2.412 . S
O547 C557 1.252 . S
O548 Gd499 2.545 . S
O548 C566 1.258 . S
O549 Gd498 2.362 . S
O549 Gd499 2.606 . S
O549 C565 1.284 . S
O550 Gd498 2.324 . S
O550 C573 1.254 . S
O551 Gd499 2.429 . S
O551 C573 1.268 . S
O552 Gd499 2.545 . S
O552 C565 1.250 . S
O553 Gd499 2.412 . S
O553 C566 1.252 . S
C554 O543 1.284 . S
C554 O546 1.250 . S
C555 H524 0.929 . S
C555 C540 1.437 . S
C555 C556 1.317 . S
C556 H527 0.930 . S
C556 C532 1.431 . S
C556 C555 1.317 . S
C557 Gd498 2.828 . S
C557 O542 1.258 . S
C557 O547 1.252 . S
C557 C558 1.497 . S
C558 C557 1.497 . S
C558 C559 1.395 . S
C558 C560 1.380 . S
C559 C558 1.395 . S
C559 C562 1.398 . S
C559 H574 0.930 . S
C560 C558 1.380 . S
C560 C561 1.391 . S
C560 H575 0.930 . S
C561 C560 1.391 . S
C561 C563 1.387 . S
C562 C559 1.398 . S
C562 C563 1.380 . S
C562 H576 0.930 . S
C563 C561 1.387 . S
C563 C562 1.380 . S
C563 H577 0.930 . S
C564 O544 1.254 . S
C564 O545 1.268 . S
C565 O549 1.284 . S
C565 O552 1.250 . S
C566 Gd499 2.828 . S
C566 O548 1.258 . S
C566 O553 1.252 . S
C566 C567 1.497 . S
C567 C566 1.497 . S
C567 C568 1.395 . S
C567 C569 1.380 . S
C568 C567 1.395 . S
C568 C571 1.398 . S
C568 H578 0.930 1_565 S
C569 C567 1.380 . S
C569 C570 1.391 . S
C569 H579 0.930 . S
C570 C569 1.391 . S
C570 C572 1.387 . S
C571 C568 1.398 . S
C571 C572 1.380 . S
C571 H580 0.930 1_565 S
C572 C570 1.387 . S
C572 C571 1.380 . S
C572 H581 0.930 . S
C573 O550 1.254 . S
C573 O551 1.268 . S
H574 C559 0.930 . S
H575 C560 0.930 . S
H576 C562 0.930 . S
H577 C563 0.930 . S
H578 C568 0.930 1_545 S
H579 C569 0.930 . S
H580 C571 0.930 1_545 S
H581 C572 0.930 . S
Gd582 N613 2.661 1_455 S
Gd582 N619 2.601 . S
Gd582 O626 2.545 . S
Gd582 O627 2.606 . S
Gd582 O629 2.429 . S
Gd582 O630 2.545 . S
Gd582 O631 2.412 . S
Gd582 O633 2.362 . S
Gd582 O634 2.324 . S
Gd582 C641 2.828 . S
Gd583 N592 2.661 . S
Gd583 N596 2.601 . S
Gd583 O627 2.362 . S
Gd583 O628 2.324 . S
Gd583 O632 2.545 . S
Gd583 O633 2.606 . S
Gd583 O635 2.429 . S
Gd583 O636 2.545 . S
Gd583 O637 2.412 . S
Gd583 C650 2.828 . S
C584 C587 1.417 . S
C584 C589 1.431 . S
C584 C590 1.412 . S
C585 C588 1.437 . S
C585 C589 1.317 . S
C585 H604 0.929 . S
C586 C587 1.426 . S
C586 C588 1.413 . S
C586 N596 1.359 . S
C587 C584 1.417 . S
C587 C586 1.426 . S
C587 N592 1.350 . S
C588 C585 1.437 . S
C588 C586 1.413 . S
C588 C598 1.391 . S
C589 C584 1.431 . S
C589 C585 1.317 . S
C589 H600 0.930 . S
C590 C584 1.412 . S
C590 C591 1.355 1_565 S
C590 H602 0.930 1_565 S
C591 C590 1.355 1_545 S
C591 C593 1.402 1_545 S
C591 H603 0.930 . S
N592 Gd583 2.661 . S
N592 C587 1.350 . S
N592 C593 1.307 . S
C593 C591 1.402 1_565 S
C593 N592 1.307 . S
C593 H594 0.930 . S
H594 C593 0.930 . S
C595 N596 1.334 . S
C595 C597 1.394 . S
C595 H599 0.930 . S
N596 Gd583 2.601 . S
N596 C586 1.359 . S
N596 C595 1.334 . S
C597 C595 1.394 . S
C597 C598 1.359 . S
C597 H609 0.930 . S
C598 C588 1.391 . S
C598 C597 1.359 . S
C598 H610 0.929 . S
H599 C595 0.930 . S
H600 C589 0.930 . S
H601 C618 0.930 . S
H602 C590 0.930 1_545 S
H603 C591 0.930 . S
H604 C585 0.929 . S
H605 C623 0.930 . S
H606 C614 0.930 . S
H607 C615 0.930 . S
H608 C639 0.929 . S
H609 C597 0.930 . S
H610 C598 0.929 . S
H611 C640 0.930 . S
H612 C621 0.930 . S
N613 Gd582 2.661 1_655 S
N613 C617 1.350 . S
N613 C618 1.307 . S
C614 H606 0.930 . S
C614 C615 1.355 . S
C614 C616 1.412 . S
C615 H607 0.930 . S
C615 C614 1.355 . S
C615 C618 1.402 . S
C616 C614 1.412 . S
C616 C617 1.417 . S
C616 C640 1.431 . S
C617 N613 1.350 . S
C617 C616 1.417 . S
C617 C620 1.426 . S
C618 H601 0.930 . S
C618 N613 1.307 . S
C618 C615 1.402 . S
N619 Gd582 2.601 . S
N619 C620 1.359 1_455 S
N619 C623 1.334 1_565 S
C620 C617 1.426 . S
C620 N619 1.359 1_655 S
C620 C624 1.413 . S
C621 H612 0.930 . S
C621 C622 1.359 1_455 S
C621 C623 1.394 . S
C622 C621 1.359 1_655 S
C622 C624 1.391 1_545 S
C622 H625 0.929 . S
C623 H605 0.930 . S
C623 N619 1.334 1_545 S
C623 C621 1.394 . S
C624 C620 1.413 . S
C624 C622 1.391 1_565 S
C624 C639 1.437 . S
H625 C622 0.929 . S
O626 Gd582 2.545 . S
O626 C641 1.258 . S
O627 Gd582 2.606 . S
O627 Gd583 2.362 . S
O627 C638 1.284 . S
O628 Gd583 2.324 . S
O628 C648 1.254 . S
O629 Gd582 2.429 . S
O629 C648 1.268 . S
O630 Gd582 2.545 . S
O630 C638 1.250 . S
O631 Gd582 2.412 . S
O631 C641 1.252 . S
O632 Gd583 2.545 . S
O632 C650 1.258 . S
O633 Gd582 2.362 . S
O633 Gd583 2.606 . S
O633 C649 1.284 . S
O634 Gd582 2.324 . S
O634 C657 1.254 . S
O635 Gd583 2.429 . S
O635 C657 1.268 . S
O636 Gd583 2.545 . S
O636 C649 1.250 . S
O637 Gd583 2.412 . S
O637 C650 1.252 . S
C638 O627 1.284 . S
C638 O630 1.250 . S
C639 H608 0.929 . S
C639 C624 1.437 . S
C639 C640 1.317 . S
C640 H611 0.930 . S
C640 C616 1.431 . S
C640 C639 1.317 . S
C641 Gd582 2.828 . S
C641 O626 1.258 . S
C641 O631 1.252 . S
C641 C642 1.497 . S
C642 C641 1.497 . S
C642 C643 1.395 . S
C642 C644 1.380 . S
C643 C642 1.395 . S
C643 C646 1.398 . S
C643 H658 0.939 . S
C644 C642 1.380 . S
C644 C645 1.391 . S
C644 H659 0.930 . S
C645 C644 1.391 . S
C645 C647 1.387 . S
C646 C643 1.398 . S
C646 C647 1.380 . S
C646 H660 0.930 1_565 S
C647 C645 1.387 . S
C647 C646 1.380 . S
C647 H661 0.930 . S
C648 O628 1.254 . S
C648 O629 1.268 . S
C649 O633 1.284 . S
C649 O636 1.250 . S
C650 Gd583 2.828 . S
C650 O632 1.258 . S
C650 O637 1.252 . S
C650 C651 1.497 . S
C651 C650 1.497 . S
C651 C652 1.395 . S
C651 C653 1.380 . S
C652 C651 1.395 . S
C652 C655 1.398 . S
C652 H662 0.930 . S
C653 C651 1.380 . S
C653 C654 1.391 . S
C653 H663 0.930 . S
C654 C653 1.391 . S
C654 C656 1.387 . S
C655 C652 1.398 . S
C655 C656 1.380 . S
C655 H664 0.930 . S
C656 C654 1.387 . S
C656 C655 1.380 . S
C656 H665 0.930 . S
C657 O634 1.254 . S
C657 O635 1.268 . S
H658 C643 0.939 . S
H659 C644 0.930 . S
H660 C646 0.930 1_545 S
H661 C647 0.930 . S
H662 C652 0.930 . S
H663 C653 0.930 . S
H664 C655 0.930 . S
H665 C656 0.930 . S
Gd666 N697 2.661 1_655 S
Gd666 N703 2.601 . S
Gd666 O710 2.545 . S
Gd666 O711 2.606 . S
Gd666 O713 2.429 . S
Gd666 O714 2.545 . S
Gd666 O715 2.412 . S
Gd666 O717 2.362 . S
Gd666 O718 2.324 . S
Gd666 C725 2.828 . S
Gd667 N676 2.661 . S
Gd667 N680 2.601 . S
Gd667 O711 2.362 . S
Gd667 O712 2.324 . S
Gd667 O716 2.545 . S
Gd667 O717 2.606 . S
Gd667 O719 2.429 . S
Gd667 O720 2.545 . S
Gd667 O721 2.412 . S
Gd667 C734 2.828 . S
C668 C671 1.417 . S
C668 C673 1.431 . S
C668 C674 1.412 . S
C669 C672 1.437 . S
C669 C673 1.317 . S
C669 H688 0.929 . S
C670 C671 1.426 . S
C670 C672 1.413 . S
C670 N680 1.359 . S
C671 C668 1.417 . S
C671 C670 1.426 . S
C671 N676 1.350 . S
C672 C669 1.437 . S
C672 C670 1.413 . S
C672 C682 1.391 . S
C673 C668 1.431 . S
C673 C669 1.317 . S
C673 H684 0.930 . S
C674 C668 1.412 . S
C674 C675 1.355 . S
C674 H686 0.930 . S
C675 C674 1.355 . S
C675 C677 1.402 . S
C675 H687 0.930 . S
N676 Gd667 2.661 . S
N676 C671 1.350 . S
N676 C677 1.307 . S
C677 C675 1.402 . S
C677 N676 1.307 . S
C677 H678 0.930 . S
H678 C677 0.930 . S
C679 N680 1.334 . S
C679 C681 1.394 . S
C679 H683 0.930 . S
N680 Gd667 2.601 . S
N680 C670 1.359 . S
N680 C679 1.334 . S
C681 C679 1.394 . S
C681 C682 1.359 . S
C681 H693 0.930 . S
C682 C672 1.391 . S
C682 C681 1.359 . S
C682 H694 0.929 . S
H683 C679 0.930 . S
H684 C673 0.930 . S
H685 C702 0.930 . S
H686 C674 0.930 . S
H687 C675 0.930 . S
H688 C669 0.929 . S
H689 C707 0.930 . S
H690 C698 0.930 . S
H691 C699 0.930 . S
H692 C723 0.929 . S
H693 C681 0.930 . S
H694 C682 0.929 . S
H695 C724 0.930 . S
H696 C705 0.930 1_545 S
N697 Gd666 2.661 1_455 S
N697 C701 1.350 . S
N697 C702 1.307 . S
C698 H690 0.930 . S
C698 C699 1.355 . S
C698 C700 1.412 . S
C699 H691 0.930 . S
C699 C698 1.355 . S
C699 C702 1.402 . S
C700 C698 1.412 . S
C700 C701 1.417 . S
C700 C724 1.431 1_565 S
C701 N697 1.350 . S
C701 C700 1.417 . S
C701 C704 1.426 . S
C702 H685 0.930 . S
C702 N697 1.307 . S
C702 C699 1.402 . S
N703 Gd666 2.601 . S
N703 C704 1.359 1_655 S
N703 C707 1.334 . S
C704 C701 1.426 . S
C704 N703 1.359 1_455 S
C704 C708 1.413 . S
C705 H696 0.930 1_565 S
C705 C706 1.359 1_665 S
C705 C707 1.394 . S
C706 C705 1.359 1_445 S
C706 C708 1.391 1_545 S
C706 H709 0.929 . S
C707 H689 0.930 . S
C707 N703 1.334 . S
C707 C705 1.394 . S
C708 C704 1.413 . S
C708 C706 1.391 1_565 S
C708 C723 1.437 1_565 S
H709 C706 0.929 . S
O710 Gd666 2.545 . S
O710 C725 1.258 . S
O711 Gd666 2.606 . S
O711 Gd667 2.362 . S
O711 C722 1.284 . S
O712 Gd667 2.324 . S
O712 C732 1.254 . S
O713 Gd666 2.429 . S
O713 C732 1.268 . S
O714 Gd666 2.545 . S
O714 C722 1.250 . S
O715 Gd666 2.412 . S
O715 C725 1.252 . S
O716 Gd667 2.545 . S
O716 C734 1.258 . S
O717 Gd666 2.362 . S
O717 Gd667 2.606 . S
O717 C733 1.284 . S
O718 Gd666 2.324 . S
O718 C741 1.254 . S
O719 Gd667 2.429 . S
O719 C741 1.268 . S
O720 Gd667 2.545 . S
O720 C733 1.250 . S
O721 Gd667 2.412 . S
O721 C734 1.252 . S
C722 O711 1.284 . S
C722 O714 1.250 . S
C723 H692 0.929 . S
C723 C708 1.437 1_545 S
C723 C724 1.317 . S
C724 H695 0.930 . S
C724 C700 1.431 1_545 S
C724 C723 1.317 . S
C725 Gd666 2.828 . S
C725 O710 1.258 . S
C725 O715 1.252 . S
C725 C726 1.497 . S
C726 C725 1.497 . S
C726 C727 1.395 . S
C726 C728 1.380 . S
C727 C726 1.395 . S
C727 C730 1.398 . S
C727 H742 0.930 . S
C728 C726 1.380 . S
C728 C729 1.391 . S
C728 H743 0.930 . S
C729 C728 1.391 . S
C729 C731 1.387 . S
C730 C727 1.398 . S
C730 C731 1.380 . S
C730 H744 0.930 . S
C731 C729 1.387 . S
C731 C730 1.380 . S
C731 H745 0.930 . S
C732 O712 1.254 . S
C732 O713 1.268 . S
C733 O717 1.284 . S
C733 O720 1.250 . S
C734 Gd667 2.828 . S
C734 O716 1.258 . S
C734 O721 1.252 . S
C734 C735 1.497 . S
C735 C734 1.497 . S
C735 C736 1.395 . S
C735 C737 1.380 . S
C736 C735 1.395 . S
C736 C739 1.398 . S
C736 H746 0.930 . S
C737 C735 1.380 . S
C737 C738 1.391 . S
C737 H747 0.930 . S
C738 C737 1.391 . S
C738 C740 1.387 . S
C739 C736 1.398 . S
C739 C740 1.380 . S
C739 H748 0.930 . S
C740 C738 1.387 . S
C740 C739 1.380 . S
C740 H749 0.930 . S
C741 O718 1.254 . S
C741 O719 1.268 . S
H742 C727 0.930 . S
H743 C728 0.930 . S
H744 C730 0.930 . S
H745 C731 0.930 . S
H746 C736 0.930 . S
H747 C737 0.930 . S
H748 C739 0.930 . S
H749 C740 0.930 . S
Gd750 N781 2.661 . S
Gd750 N787 2.601 . S
Gd750 O794 2.545 . S
Gd750 O795 2.606 . S
Gd750 O797 2.429 . S
Gd750 O798 2.545 . S
Gd750 O799 2.412 . S
Gd750 O801 2.362 . S
Gd750 O802 2.324 . S
Gd750 C809 2.828 . S
Gd751 N760 2.661 . S
Gd751 N764 2.601 . S
Gd751 O795 2.362 . S
Gd751 O796 2.324 . S
Gd751 O800 2.545 . S
Gd751 O801 2.606 . S
Gd751 O803 2.429 . S
Gd751 O804 2.545 . S
Gd751 O805 2.412 . S
Gd751 C818 2.828 . S
C752 C755 1.417 . S
C752 C757 1.431 . S
C752 C758 1.412 . S
C753 C756 1.437 . S
C753 C757 1.317 . S
C753 H772 0.929 . S
C754 C755 1.426 . S
C754 C756 1.413 . S
C754 N764 1.359 . S
C755 C752 1.417 . S
C755 C754 1.426 . S
C755 N760 1.350 . S
C756 C753 1.437 . S
C756 C754 1.413 . S
C756 C766 1.391 . S
C757 C752 1.431 . S
C757 C753 1.317 . S
C757 H768 0.930 . S
C758 C752 1.412 . S
C758 C759 1.355 1_545 S
C758 H770 0.930 1_545 S
C759 C758 1.355 1_565 S
C759 C761 1.402 1_565 S
C759 H771 0.930 . S
N760 Gd751 2.661 . S
N760 C755 1.350 . S
N760 C761 1.307 . S
C761 C759 1.402 1_545 S
C761 N760 1.307 . S
C761 H762 0.930 . S
H762 C761 0.930 . S
C763 N764 1.334 . S
C763 C765 1.394 . S
C763 H767 0.930 . S
N764 Gd751 2.601 . S
N764 C754 1.359 . S
N764 C763 1.334 . S
C765 C763 1.394 . S
C765 C766 1.359 . S
C765 H777 0.930 . S
C766 C756 1.391 . S
C766 C765 1.359 . S
C766 H778 0.929 . S
H767 C763 0.930 . S
H768 C757 0.930 . S
H769 C786 0.930 . S
H770 C758 0.930 1_565 S
H771 C759 0.930 . S
H772 C753 0.929 . S
H773 C791 0.930 . S
H774 C782 0.930 . S
H775 C783 0.930 . S
H776 C807 0.929 . S
H777 C765 0.930 . S
H778 C766 0.929 . S
H779 C808 0.930 . S
H780 C789 0.930 . S
N781 Gd750 2.661 . S
N781 C785 1.350 . S
N781 C786 1.307 . S
C782 H774 0.930 . S
C782 C783 1.355 . S
C782 C784 1.412 . S
C783 H775 0.930 . S
C783 C782 1.355 . S
C783 C786 1.402 . S
C784 C782 1.412 . S
C784 C785 1.417 . S
C784 C808 1.431 1_455 S
C785 N781 1.350 . S
C785 C784 1.417 . S
C785 C788 1.426 . S
C786 H769 0.930 . S
C786 N781 1.307 . S
C786 C783 1.402 . S
N787 Gd750 2.601 . S
N787 C788 1.359 . S
N787 C791 1.334 1_545 S
C788 C785 1.426 . S
C788 N787 1.359 . S
C788 C792 1.413 1_455 S
C789 H780 0.930 . S
C789 C790 1.359 . S
C789 C791 1.394 1_655 S
C790 C789 1.359 . S
C790 C792 1.391 1_565 S
C790 H793 0.929 . S
C791 H773 0.930 . S
C791 N787 1.334 1_565 S
C791 C789 1.394 1_455 S
C792 C788 1.413 1_655 S
C792 C790 1.391 1_545 S
C792 C807 1.437 . S
H793 C790 0.929 . S
O794 Gd750 2.545 . S
O794 C809 1.258 . S
O795 Gd750 2.606 . S
O795 Gd751 2.362 . S
O795 C806 1.284 . S
O796 Gd751 2.324 . S
O796 C816 1.254 . S
O797 Gd750 2.429 . S
O797 C816 1.268 . S
O798 Gd750 2.545 . S
O798 C806 1.250 . S
O799 Gd750 2.412 . S
O799 C809 1.252 . S
O800 Gd751 2.545 . S
O800 C818 1.258 . S
O801 Gd750 2.362 . S
O801 Gd751 2.606 . S
O801 C817 1.284 . S
O802 Gd750 2.324 . S
O802 C825 1.254 . S
O803 Gd751 2.429 . S
O803 C825 1.268 . S
O804 Gd751 2.545 . S
O804 C817 1.250 . S
O805 Gd751 2.412 . S
O805 C818 1.252 . S
C806 O795 1.284 . S
C806 O798 1.250 . S
C807 H776 0.929 . S
C807 C792 1.437 . S
C807 C808 1.317 . S
C808 H779 0.930 . S
C808 C784 1.431 1_655 S
C808 C807 1.317 . S
C809 Gd750 2.828 . S
C809 O794 1.258 . S
C809 O799 1.252 . S
C809 C810 1.497 . S
C810 C809 1.497 . S
C810 C811 1.395 . S
C810 C812 1.380 . S
C811 C810 1.395 . S
C811 C814 1.398 . S
C811 H826 0.930 1_545 S
C812 C810 1.380 . S
C812 C813 1.391 . S
C812 H827 0.930 . S
C813 C812 1.391 . S
C813 C815 1.387 . S
C814 C811 1.398 . S
C814 C815 1.380 . S
C814 H828 0.930 1_545 S
C815 C813 1.387 . S
C815 C814 1.380 . S
C815 H829 0.930 . S
C816 O796 1.254 . S
C816 O797 1.268 . S
C817 O801 1.284 . S
C817 O804 1.250 . S
C818 Gd751 2.828 . S
C818 O800 1.258 . S
C818 O805 1.252 . S
C818 C819 1.497 . S
C819 C818 1.497 . S
C819 C820 1.395 . S
C819 C821 1.380 . S
C820 C819 1.395 . S
C820 C823 1.398 . S
C820 H830 0.930 . S
C821 C819 1.380 . S
C821 C822 1.391 . S
C821 H831 0.930 . S
C822 C821 1.391 . S
C822 C824 1.387 . S
C823 C820 1.398 . S
C823 C824 1.380 . S
C823 H832 0.930 . S
C824 C822 1.387 . S
C824 C823 1.380 . S
C824 H833 0.930 . S
C825 O802 1.254 . S
C825 O803 1.268 . S
H826 C811 0.930 1_565 S
H827 C812 0.930 . S
H828 C814 0.930 1_565 S
H829 C815 0.930 . S
H830 C820 0.930 . S
H831 C821 0.930 . S
H832 C823 0.930 . S
H833 C824 0.930 . S
Gd834 N865 2.661 . S
Gd834 N871 2.601 . S
Gd834 O878 2.545 . S
Gd834 O879 2.606 . S
Gd834 O881 2.429 . S
Gd834 O882 2.545 . S
Gd834 O883 2.412 . S
Gd834 O885 2.362 . S
Gd834 O886 2.324 . S
Gd834 C893 2.828 . S
Gd835 N844 2.661 1_655 S
Gd835 N848 2.601 . S
Gd835 O879 2.362 . S
Gd835 O880 2.324 . S
Gd835 O884 2.545 . S
Gd835 O885 2.606 . S
Gd835 O887 2.429 . S
Gd835 O888 2.545 . S
Gd835 O889 2.412 . S
Gd835 C902 2.828 . S
C836 C839 1.417 . S
C836 C841 1.431 . S
C836 C842 1.412 . S
C837 C840 1.437 . S
C837 C841 1.317 . S
C837 H856 0.929 . S
C838 C839 1.426 . S
C838 C840 1.413 . S
C838 N848 1.359 1_455 S
C839 C836 1.417 . S
C839 C838 1.426 . S
C839 N844 1.350 . S
C840 C837 1.437 . S
C840 C838 1.413 . S
C840 C850 1.391 1_545 S
C841 C836 1.431 . S
C841 C837 1.317 . S
C841 H852 0.930 . S
C842 C836 1.412 . S
C842 C843 1.355 . S
C842 H854 0.930 . S
C843 C842 1.355 . S
C843 C845 1.402 . S
C843 H855 0.930 . S
N844 Gd835 2.661 1_455 S
N844 C839 1.350 . S
N844 C845 1.307 . S
C845 C843 1.402 . S
C845 N844 1.307 . S
C845 H846 0.930 . S
H846 C845 0.930 . S
C847 N848 1.334 1_565 S
C847 C849 1.394 . S
C847 H851 0.930 . S
N848 Gd835 2.601 . S
N848 C838 1.359 1_655 S
N848 C847 1.334 1_545 S
C849 C847 1.394 . S
C849 C850 1.359 1_655 S
C849 H861 0.930 . S
C850 C840 1.391 1_565 S
C850 C849 1.359 1_455 S
C850 H862 0.929 . S
H851 C847 0.930 . S
H852 C841 0.930 . S
H853 C870 0.930 . S
H854 C842 0.930 . S
H855 C843 0.930 . S
H856 C837 0.929 . S
H857 C875 0.930 . S
H858 C866 0.930 1_565 S
H859 C867 0.930 . S
H860 C891 0.929 . S
H861 C849 0.930 . S
H862 C850 0.929 . S
H863 C892 0.930 . S
H864 C873 0.930 . S
N865 Gd834 2.661 . S
N865 C869 1.350 . S
N865 C870 1.307 . S
C866 H858 0.930 1_545 S
C866 C867 1.355 1_545 S
C866 C868 1.412 . S
C867 H859 0.930 . S
C867 C866 1.355 1_565 S
C867 C870 1.402 1_565 S
C868 C866 1.412 . S
C868 C869 1.417 . S
C868 C892 1.431 . S
C869 N865 1.350 . S
C869 C868 1.417 . S
C869 C872 1.426 . S
C870 H853 0.930 . S
C870 N865 1.307 . S
C870 C867 1.402 1_545 S
N871 Gd834 2.601 . S
N871 C872 1.359 . S
N871 C875 1.334 . S
C872 C869 1.426 . S
C872 N871 1.359 . S
C872 C876 1.413 . S
C873 H864 0.930 . S
C873 C874 1.359 . S
C873 C875 1.394 . S
C874 C873 1.359 . S
C874 C876 1.391 . S
C874 H877 0.929 . S
C875 H857 0.930 . S
C875 N871 1.334 . S
C875 C873 1.394 . S
C876 C872 1.413 . S
C876 C874 1.391 . S
C876 C891 1.437 . S
H877 C874 0.929 . S
O878 Gd834 2.545 . S
O878 C893 1.258 . S
O879 Gd834 2.606 . S
O879 Gd835 2.362 . S
O879 C890 1.284 . S
O880 Gd835 2.324 . S
O880 C900 1.254 . S
O881 Gd834 2.429 . S
O881 C900 1.268 . S
O882 Gd834 2.545 . S
O882 C890 1.250 . S
O883 Gd834 2.412 . S
O883 C893 1.252 . S
O884 Gd835 2.545 . S
O884 C902 1.258 . S
O885 Gd834 2.362 . S
O885 Gd835 2.606 . S
O885 C901 1.284 . S
O886 Gd834 2.324 . S
O886 C909 1.254 . S
O887 Gd835 2.429 . S
O887 C909 1.268 . S
O888 Gd835 2.545 . S
O888 C901 1.250 . S
O889 Gd835 2.412 . S
O889 C902 1.252 . S
C890 O879 1.284 . S
C890 O882 1.250 . S
C891 H860 0.929 . S
C891 C876 1.437 . S
C891 C892 1.317 . S
C892 H863 0.930 . S
C892 C868 1.431 . S
C892 C891 1.317 . S
C893 Gd834 2.828 . S
C893 O878 1.258 . S
C893 O883 1.252 . S
C893 C894 1.497 . S
C894 C893 1.497 . S
C894 C895 1.395 . S
C894 C896 1.380 . S
C895 C894 1.395 . S
C895 C898 1.398 . S
C895 H910 0.930 . S
C896 C894 1.380 . S
C896 C897 1.391 . S
C896 H911 0.930 . S
C897 C896 1.391 . S
C897 C899 1.387 . S
C898 C895 1.398 . S
C898 C899 1.380 . S
C898 H912 0.930 . S
C899 C897 1.387 . S
C899 C898 1.380 . S
C899 H913 0.930 . S
C900 O880 1.254 . S
C900 O881 1.268 . S
C901 O885 1.284 . S
C901 O888 1.250 . S
C902 Gd835 2.828 . S
C902 O884 1.258 . S
C902 O889 1.252 . S
C902 C903 1.497 . S
C903 C902 1.497 . S
C903 C904 1.395 . S
C903 C905 1.380 . S
C904 C903 1.395 . S
C904 C907 1.398 . S
C904 H914 0.929 1_545 S
C905 C903 1.380 . S
C905 C906 1.391 . S
C905 H915 0.930 . S
C906 C905 1.391 . S
C906 C908 1.387 . S
C907 C904 1.398 . S
C907 C908 1.380 . S
C907 H916 0.930 1_545 S
C908 C906 1.387 . S
C908 C907 1.380 . S
C908 H917 0.930 . S
C909 O886 1.254 . S
C909 O887 1.268 . S
H910 C895 0.930 . S
H911 C896 0.930 . S
H912 C898 0.930 . S
H913 C899 0.930 . S
H914 C904 0.929 1_565 S
H915 C905 0.930 . S
H916 C907 0.930 1_565 S
H917 C908 0.930 . S
C124 C218 1.390 . S
C130 C302 1.462 . S
C115 C396 1.445 . S
C106 C312 1.415 . S
C386 C85 1.381 . S
C97 C228 1.370 . S
C229 C103 1.421 . S
C313 C88 1.422 . S
C94 C405 1.440 . S
C121 C321 1.410 . S
C133 C397 1.340 . S
C237 C112 1.399 . S
C470 C16 1.390 1_455 S
C22 C554 1.462 . S
C7 C648 1.446 1_545 S
C160 C564 1.415 . S
C139 C638 1.382 . S
C151 C480 1.370 . S
C157 C481 1.420 . S
C142 C565 1.422 . S
C657 C148 1.440 . S
C13 C573 1.410 1_545 S
C649 C25 1.340 1_455 S
C4 C489 1.399 . S
C722 C70 1.390 . S
C76 C806 1.462 . S
C900 C61 1.446 . S
C816 C52 1.415 1_545 S
C890 C31 1.381 1_655 S
C43 C732 1.370 . S
C49 C733 1.421 1_455 S
C34 C817 1.422 . S
C909 C40 1.440 1_545 S
C67 C825 1.410 . S
C79 C901 1.341 . S
C58 C741 1.399 . S
C140 C225 1.661 . S
C309 C149 1.489 . S
C158 C402 1.550 . S
C59 C318 1.505 . S
C68 C393 1.540 . S
C234 C77 1.665 . S
C32 C477 1.662 . S
C41 C561 1.489 . S
C50 C654 1.550 . S
C113 C570 1.505 . S
C645 C122 1.540 . S
C131 C486 1.666 . S
C86 C729 1.662 . S
C95 C813 1.489 . S
C906 C104 1.550 . S
C5 C822 1.505 . S
C14 C897 1.540 . S
C23 C738 1.666 . S
