# Generated by pormake.
# Topology eea, (3,6)-cn, num edge types: 1
# Building blocks:
#     Node 0, Type 0, BuildingBlock: QEWDON_clean_linker_0, # of connection points: 3
#     Node 1, Type 0, BuildingBlock: QEWDON_clean_linker_0, # of connection points: 3
#     Node 2, Type 0, BuildingBlock: QEWDON_clean_linker_0, # of connection points: 3
#     Node 3, Type 0, BuildingBlock: QEWDON_clean_linker_0, # of connection points: 3
#     Node 4, Type 0, BuildingBlock: QEWDON_clean_linker_0, # of connection points: 3
#     Node 5, Type 0, BuildingBlock: QEWDON_clean_linker_0, # of connection points: 3
#     Node 6, Type 0, BuildingBlock: QEWDON_clean_linker_0, # of connection points: 3
#     Node 7, Type 0, BuildingBlock: QEWDON_clean_linker_0, # of connection points: 3
#     Node 8, Type 0, BuildingBlock: QEWDON_clean_linker_0, # of connection points: 3
#     Node 9, Type 0, BuildingBlock: QEWDON_clean_linker_0, # of connection points: 3
#     Node 10, Type 0, BuildingBlock: QEWDON_clean_linker_0, # of connection points: 3
#     Node 11, Type 0, BuildingBlock: QEWDON_clean_linker_0, # of connection points: 3
#     Node 12, Type 0, BuildingBlock: QEWDON_clean_linker_0, # of connection points: 3
#     Node 13, Type 0, BuildingBlock: QEWDON_clean_linker_0, # of connection points: 3
#     Node 14, Type 0, BuildingBlock: QEWDON_clean_linker_0, # of connection points: 3
#     Node 15, Type 0, BuildingBlock: QEWDON_clean_linker_0, # of connection points: 3
#     Node 16, Type 0, BuildingBlock: QEWDON_clean_linker_0, # of connection points: 3
#     Node 17, Type 0, BuildingBlock: QEWDON_clean_linker_0, # of connection points: 3
#     Node 18, Type 1, BuildingBlock: HISSIN_clean_sbu_0, # of connection points: 6
#     Node 19, Type 1, BuildingBlock: HISSIN_clean_sbu_0, # of connection points: 6
#     Node 20, Type 1, BuildingBlock: HISSIN_clean_sbu_0, # of connection points: 6
#     Node 21, Type 1, BuildingBlock: HISSIN_clean_sbu_0, # of connection points: 6
#     Node 22, Type 1, BuildingBlock: HISSIN_clean_sbu_0, # of connection points: 6
#     Node 23, Type 1, BuildingBlock: HISSIN_clean_sbu_0, # of connection points: 6
#     Node 24, Type 1, BuildingBlock: HISSIN_clean_sbu_0, # of connection points: 6
#     Node 25, Type 1, BuildingBlock: HISSIN_clean_sbu_0, # of connection points: 6
#     Node 26, Type 1, BuildingBlock: HISSIN_clean_sbu_0, # of connection points: 6
#     Edge 27, Type (0, 1), BuildingBlock: TEMPAE_clean_linker_10, # of connection points: 2
#     Edge 28, Type (0, 1), BuildingBlock: TEMPAE_clean_linker_10, # of connection points: 2
#     Edge 29, Type (0, 1), BuildingBlock: TEMPAE_clean_linker_10, # of connection points: 2
#     Edge 30, Type (0, 1), BuildingBlock: TEMPAE_clean_linker_10, # of connection points: 2
#     Edge 31, Type (0, 1), BuildingBlock: TEMPAE_clean_linker_10, # of connection points: 2
#     Edge 32, Type (0, 1), BuildingBlock: TEMPAE_clean_linker_10, # of connection points: 2
#     Edge 33, Type (0, 1), BuildingBlock: TEMPAE_clean_linker_10, # of connection points: 2
#     Edge 34, Type (0, 1), BuildingBlock: TEMPAE_clean_linker_10, # of connection points: 2
#     Edge 35, Type (0, 1), BuildingBlock: TEMPAE_clean_linker_10, # of connection points: 2
#     Edge 36, Type (0, 1), BuildingBlock: TEMPAE_clean_linker_10, # of connection points: 2
#     Edge 37, Type (0, 1), BuildingBlock: TEMPAE_clean_linker_10, # of connection points: 2
#     Edge 38, Type (0, 1), BuildingBlock: TEMPAE_clean_linker_10, # of connection points: 2
#     Edge 39, Type (0, 1), BuildingBlock: TEMPAE_clean_linker_10, # of connection points: 2
#     Edge 40, Type (0, 1), BuildingBlock: TEMPAE_clean_linker_10, # of connection points: 2
#     Edge 41, Type (0, 1), BuildingBlock: TEMPAE_clean_linker_10, # of connection points: 2
#     Edge 42, Type (0, 1), BuildingBlock: TEMPAE_clean_linker_10, # of connection points: 2
#     Edge 43, Type (0, 1), BuildingBlock: TEMPAE_clean_linker_10, # of connection points: 2
#     Edge 44, Type (0, 1), BuildingBlock: TEMPAE_clean_linker_10, # of connection points: 2
#     Edge 45, Type (0, 1), BuildingBlock: TEMPAE_clean_linker_10, # of connection points: 2
#     Edge 46, Type (0, 1), BuildingBlock: TEMPAE_clean_linker_10, # of connection points: 2
#     Edge 47, Type (0, 1), BuildingBlock: TEMPAE_clean_linker_10, # of connection points: 2
#     Edge 48, Type (0, 1), BuildingBlock: TEMPAE_clean_linker_10, # of connection points: 2
#     Edge 49, Type (0, 1), BuildingBlock: TEMPAE_clean_linker_10, # of connection points: 2
#     Edge 50, Type (0, 1), BuildingBlock: TEMPAE_clean_linker_10, # of connection points: 2
#     Edge 51, Type (0, 1), BuildingBlock: TEMPAE_clean_linker_10, # of connection points: 2
#     Edge 52, Type (0, 1), BuildingBlock: TEMPAE_clean_linker_10, # of connection points: 2
#     Edge 53, Type (0, 1), BuildingBlock: TEMPAE_clean_linker_10, # of connection points: 2
#     Edge 54, Type (0, 1), BuildingBlock: TEMPAE_clean_linker_10, # of connection points: 2
#     Edge 55, Type (0, 1), BuildingBlock: TEMPAE_clean_linker_10, # of connection points: 2
#     Edge 56, Type (0, 1), BuildingBlock: TEMPAE_clean_linker_10, # of connection points: 2
#     Edge 57, Type (0, 1), BuildingBlock: TEMPAE_clean_linker_10, # of connection points: 2
#     Edge 58, Type (0, 1), BuildingBlock: TEMPAE_clean_linker_10, # of connection points: 2
#     Edge 59, Type (0, 1), BuildingBlock: TEMPAE_clean_linker_10, # of connection points: 2
#     Edge 60, Type (0, 1), BuildingBlock: TEMPAE_clean_linker_10, # of connection points: 2
#     Edge 61, Type (0, 1), BuildingBlock: TEMPAE_clean_linker_10, # of connection points: 2
#     Edge 62, Type (0, 1), BuildingBlock: TEMPAE_clean_linker_10, # of connection points: 2
#     Edge 63, Type (0, 1), BuildingBlock: TEMPAE_clean_linker_10, # of connection points: 2
#     Edge 64, Type (0, 1), BuildingBlock: TEMPAE_clean_linker_10, # of connection points: 2
#     Edge 65, Type (0, 1), BuildingBlock: TEMPAE_clean_linker_10, # of connection points: 2
#     Edge 66, Type (0, 1), BuildingBlock: TEMPAE_clean_linker_10, # of connection points: 2
#     Edge 67, Type (0, 1), BuildingBlock: TEMPAE_clean_linker_10, # of connection points: 2
#     Edge 68, Type (0, 1), BuildingBlock: TEMPAE_clean_linker_10, # of connection points: 2
#     Edge 69, Type (0, 1), BuildingBlock: TEMPAE_clean_linker_10, # of connection points: 2
#     Edge 70, Type (0, 1), BuildingBlock: TEMPAE_clean_linker_10, # of connection points: 2
#     Edge 71, Type (0, 1), BuildingBlock: TEMPAE_clean_linker_10, # of connection points: 2
#     Edge 72, Type (0, 1), BuildingBlock: TEMPAE_clean_linker_10, # of connection points: 2
#     Edge 73, Type (0, 1), BuildingBlock: TEMPAE_clean_linker_10, # of connection points: 2
#     Edge 74, Type (0, 1), BuildingBlock: TEMPAE_clean_linker_10, # of connection points: 2
#     Edge 75, Type (0, 1), BuildingBlock: TEMPAE_clean_linker_10, # of connection points: 2
#     Edge 76, Type (0, 1), BuildingBlock: TEMPAE_clean_linker_10, # of connection points: 2
#     Edge 77, Type (0, 1), BuildingBlock: TEMPAE_clean_linker_10, # of connection points: 2
#     Edge 78, Type (0, 1), BuildingBlock: TEMPAE_clean_linker_10, # of connection points: 2
#     Edge 79, Type (0, 1), BuildingBlock: TEMPAE_clean_linker_10, # of connection points: 2
#     Edge 80, Type (0, 1), BuildingBlock: TEMPAE_clean_linker_10, # of connection points: 2
# Relax obj value: 0.087
# Max RMSD: 0.261
# Mean RMSD: 0.181
data_MOF--net-eea--node1-HISSIN_clean_sbu_0--node2-QEWDON_clean_linker_0--edge1-TEMPAE_clean_linker_10
_symmetry_space_group_name_H-M    P1
_symmetry_Int_Tables_number       1
_symmetry_cell_setting            triclinic
loop_
_symmetry_equiv_pos_as_xyz
'x, y, z'
_cell_length_a     58.982123
_cell_length_b     59.309575
_cell_length_c     68.257444
_cell_angle_alpha  93.310983
_cell_angle_beta   93.463028
_cell_angle_gamma 119.80127
loop_
_atom_site_label
_atom_site_type_symbol
_atom_site_fract_x
_atom_site_fract_y
_atom_site_fract_z
_atom_type_partial_charge
H0 H 0.1856 0.11083 0.43351 0.0
C1 C 0.18684 0.09507 0.42575 0.0
C2 C 0.20439 0.08748 0.43351 0.0
C3 C 0.16982 0.08134 0.40857 0.0
H4 H 0.21908 0.06086 0.42932 0.0
C5 C 0.20552 0.06676 0.42349 0.0
C6 C 0.18873 0.05301 0.40636 0.0
C7 C 0.17086 0.06028 0.39904 0.0
C8 C 0.15035 0.08828 0.40072 0.0
H9 H 0.15791 0.04968 0.38573 0.0
C10 C 0.15798 0.11427 0.39773 0.0
C11 C 0.13979 0.12052 0.38899 0.0
C12 C 0.12413 0.0686 0.39544 0.0
H13 H 0.11772 0.04847 0.39776 0.0
C14 C 0.10594 0.07468 0.38708 0.0
H15 H 0.17817 0.12948 0.4019 0.0
C16 C 0.11368 0.10037 0.38372 0.0
H17 H 0.09928 0.10431 0.37662 0.0
H18 H 0.08582 0.05936 0.38294 0.0
H19 H 0.90782 0.10146 0.43372 0.0
C20 C 0.92236 0.11729 0.42638 0.0
C21 C 0.93069 0.14337 0.43328 0.0
C22 C 0.93365 0.11146 0.41073 0.0
H23 H 0.95721 0.1839 0.42921 0.0
C24 C 0.95053 0.16373 0.42412 0.0
C25 C 0.9623 0.15823 0.40866 0.0
C26 C 0.95355 0.13213 0.40197 0.0
C27 C 0.92563 0.08393 0.40395 0.0
H28 H 0.96227 0.12796 0.38975 0.0
C29 C 0.899 0.06391 0.40186 0.0
C30 C 0.89165 0.03809 0.39471 0.0
C31 C 0.94485 0.07765 0.39923 0.0
H32 H 0.9655 0.09236 0.40108 0.0
C33 C 0.93775 0.0523 0.39211 0.0
H34 H 0.88409 0.0685 0.40565 0.0
C35 C 0.91144 0.03274 0.38969 0.0
H36 H 0.90664 0.01345 0.38358 0.0
H37 H 0.95273 0.04781 0.38832 0.0
H38 H 0.92015 0.79731 0.44018 0.0
C39 C 0.90315 0.7962 0.43215 0.0
C40 C 0.87823 0.7824 0.43923 0.0
C41 C 0.90652 0.81047 0.41569 0.0
H42 H 0.83741 0.77191 0.43448 0.0
C43 C 0.85657 0.78225 0.42911 0.0
C44 C 0.85961 0.79637 0.41271 0.0
C45 C 0.88455 0.81013 0.40603 0.0
C46 C 0.93316 0.82915 0.4102 0.0
H47 H 0.88705 0.82133 0.39351 0.0
C48 C 0.95173 0.82162 0.40559 0.0
C49 C 0.97624 0.84008 0.39943 0.0
C50 C 0.93963 0.85523 0.40904 0.0
H51 H 0.92598 0.86165 0.41274 0.0
C52 C 0.96354 0.87332 0.40297 0.0
H53 H 0.947 0.80161 0.40658 0.0
C54 C 0.98153 0.86584 0.39802 0.0
H55 H 0.99958 0.88034 0.39277 0.0
H56 H 0.96805 0.89324 0.4019 0.0
H57 H 0.11399 0.21215 0.58171 0.0
C58 C 0.09812 0.21321 0.58807 0.0
C59 C 0.08708 0.22703 0.57921 0.0
C60 C 0.08818 0.20002 0.60478 0.0
H61 H 0.05637 0.23694 0.58038 0.0
C62 C 0.06574 0.22729 0.58736 0.0
C63 C 0.05611 0.21488 0.60436 0.0
C64 C 0.0678 0.20183 0.61313 0.0
C65 C 0.09671 0.18201 0.6125 0.0
H66 H 0.06013 0.19203 0.62612 0.0
C67 C 0.12339 0.18847 0.61491 0.0
C68 C 0.13036 0.17073 0.62251 0.0
C69 C 0.07734 0.15752 0.61743 0.0
H70 H 0.0567 0.15154 0.61525 0.0
C71 C 0.08414 0.14027 0.62514 0.0
H72 H 0.13852 0.20709 0.61095 0.0
C73 C 0.11032 0.14683 0.62783 0.0
H74 H 0.11486 0.1331 0.6343 0.0
H75 H 0.06899 0.12167 0.6291 0.0
H76 H 0.81335 0.91824 0.59134 0.0
C77 C 0.81179 0.90162 0.59832 0.0
C78 C 0.79349 0.87616 0.58998 0.0
C79 C 0.82856 0.90575 0.61532 0.0
H80 H 0.77841 0.83503 0.59237 0.0
C81 C 0.79199 0.85477 0.59891 0.0
C82 C 0.80843 0.85872 0.61602 0.0
C83 C 0.82655 0.88418 0.62422 0.0
C84 C 0.84907 0.93253 0.62323 0.0
H85 H 0.83951 0.88718 0.63729 0.0
C86 C 0.84274 0.95229 0.62638 0.0
C87 C 0.86233 0.97795 0.63344 0.0
C88 C 0.87519 0.93851 0.62735 0.0
H89 H 0.88057 0.92365 0.62489 0.0
C90 C 0.89473 0.96389 0.63424 0.0
H91 H 0.82245 0.94744 0.62371 0.0
C92 C 0.88844 0.98353 0.63719 0.0
H93 H 0.90413 0.00316 0.64217 0.0
H94 H 0.91487 0.96842 0.63716 0.0
H95 H 0.09543 0.87991 0.57972 0.0
C96 C 0.11153 0.89619 0.58893 0.0
C97 C 0.13724 0.90742 0.58334 0.0
C98 C 0.10614 0.90732 0.60545 0.0
H99 H 0.17745 0.93829 0.59072 0.0
C100 C 0.15763 0.92936 0.59499 0.0
C101 C 0.15245 0.94086 0.61139 0.0
C102 C 0.12661 0.92969 0.61652 0.0
C103 C 0.0787 0.89888 0.60893 0.0
H104 H 0.12224 0.9389 0.62877 0.0
C105 C 0.06394 0.87758 0.61973 0.0
C106 C 0.03808 0.87083 0.62337 0.0
C107 C 0.06747 0.91311 0.60161 0.0
H108 H 0.07859 0.92956 0.59331 0.0
C109 C 0.04186 0.90628 0.60487 0.0
H110 H 0.07272 0.86675 0.62557 0.0
C111 C 0.02726 0.88534 0.61563 0.0
H112 H 0.00728 0.88032 0.61769 0.0
H113 H 0.03328 0.91725 0.59903 0.0
H114 H 0.8661 0.4542 0.76398 0.0
C115 C 0.86682 0.43832 0.7559 0.0
C116 C 0.8842 0.4302 0.76305 0.0
C117 C 0.84898 0.42468 0.73913 0.0
H118 H 0.8978 0.40282 0.75807 0.0
C119 C 0.88447 0.40921 0.75265 0.0
C120 C 0.86684 0.3956 0.73585 0.0
C121 C 0.84901 0.40331 0.72925 0.0
C122 C 0.82897 0.43142 0.73262 0.0
H123 H 0.83508 0.39264 0.7164 0.0
C124 C 0.83639 0.45632 0.72686 0.0
C125 C 0.81718 0.46237 0.72008 0.0
C126 C 0.80224 0.41255 0.73173 0.0
H127 H 0.79618 0.39324 0.73611 0.0
C128 C 0.78312 0.41854 0.72539 0.0
H129 H 0.85707 0.4706 0.72712 0.0
C130 C 0.79046 0.44325 0.71963 0.0
H131 H 0.77517 0.44743 0.71501 0.0
H132 H 0.76253 0.40399 0.72494 0.0
H133 H 0.57952 0.43736 0.76551 0.0
C134 C 0.59395 0.45417 0.75895 0.0
C135 C 0.60324 0.47945 0.76833 0.0
C136 C 0.60398 0.45038 0.74167 0.0
H137 H 0.63068 0.52064 0.76735 0.0
C138 C 0.62328 0.50104 0.76037 0.0
C139 C 0.63339 0.4976 0.74306 0.0
C140 C 0.62334 0.47235 0.73367 0.0
C141 C 0.59525 0.42356 0.73239 0.0
H142 H 0.6311 0.46983 0.72024 0.0
C143 C 0.56876 0.40336 0.73127 0.0
C144 C 0.56082 0.37815 0.72226 0.0
C145 C 0.61373 0.41803 0.72462 0.0
H146 H 0.63433 0.43279 0.72568 0.0
C147 C 0.60597 0.39331 0.71554 0.0
H148 H 0.55437 0.40727 0.73734 0.0
C149 C 0.57978 0.37358 0.71422 0.0
H150 H 0.57438 0.35477 0.70668 0.0
H151 H 0.62036 0.38942 0.70945 0.0
H152 H 0.57868 0.12104 0.77472 0.0
C153 C 0.563 0.12135 0.76582 0.0
C154 C 0.53709 0.1078 0.77108 0.0
C155 C 0.5692 0.13718 0.75017 0.0
H156 H 0.49732 0.09953 0.76396 0.0
C157 C 0.51727 0.10969 0.75997 0.0
C158 C 0.52318 0.12568 0.74443 0.0
C159 C 0.54925 0.13935 0.73964 0.0
C160 C 0.59702 0.15586 0.74772 0.0
H161 H 0.55424 0.15245 0.72816 0.0
C162 C 0.61212 0.1494 0.73572 0.0
C163 C 0.63835 0.16844 0.73337 0.0
C164 C 0.60834 0.18107 0.75749 0.0
H165 H 0.59704 0.18635 0.76674 0.0
C166 C 0.63422 0.19969 0.75549 0.0
H167 H 0.60339 0.13 0.72804 0.0
C168 C 0.64911 0.19349 0.74357 0.0
H169 H 0.66928 0.20836 0.7425 0.0
H170 H 0.64281 0.21904 0.7632 0.0
H171 H 0.78704 0.54626 0.9118 0.0
C172 C 0.77098 0.54622 0.91873 0.0
C173 C 0.76026 0.56132 0.91189 0.0
C174 C 0.76031 0.5301 0.93389 0.0
H175 H 0.7301 0.57148 0.91552 0.0
C176 C 0.73908 0.56066 0.921 0.0
C177 C 0.7283 0.5448 0.93632 0.0
C178 C 0.73921 0.52981 0.9427 0.0
C179 C 0.76887 0.51118 0.93908 0.0
H180 H 0.73098 0.51753 0.95447 0.0
C181 C 0.79568 0.51853 0.9427 0.0
C182 C 0.80281 0.49977 0.94733 0.0
C183 C 0.74954 0.485 0.94007 0.0
H184 H 0.72887 0.47865 0.93706 0.0
C185 C 0.7565 0.46655 0.94468 0.0
H186 H 0.8108 0.53862 0.94195 0.0
C187 C 0.78284 0.47382 0.94832 0.0
H188 H 0.78757 0.45907 0.95221 0.0
H189 H 0.74139 0.4465 0.94546 0.0
H190 H 0.4977 0.25461 0.9204 0.0
C191 C 0.49565 0.23817 0.92789 0.0
C192 C 0.47587 0.21264 0.92074 0.0
C193 C 0.51351 0.24261 0.94425 0.0
H194 H 0.45863 0.17178 0.92535 0.0
C195 C 0.47392 0.19156 0.93047 0.0
C196 C 0.49192 0.19575 0.9466 0.0
C197 C 0.51167 0.22124 0.95337 0.0
C198 C 0.53387 0.26952 0.95213 0.0
H199 H 0.52524 0.22446 0.96609 0.0
C200 C 0.52714 0.28899 0.95527 0.0
C201 C 0.54588 0.31413 0.96404 0.0
C202 C 0.55983 0.27557 0.95737 0.0
H203 H 0.56557 0.26097 0.95496 0.0
C204 C 0.57863 0.30055 0.96577 0.0
H205 H 0.50715 0.28438 0.95116 0.0
C206 C 0.57174 0.31968 0.96922 0.0
H207 H 0.58656 0.33865 0.9763 0.0
H208 H 0.59855 0.30501 0.96985 0.0
H209 H 0.74978 0.20761 0.91394 0.0
C210 C 0.76706 0.22389 0.92214 0.0
C211 C 0.79195 0.2331 0.9152 0.0
C212 C 0.76431 0.23647 0.93918 0.0
H213 H 0.83292 0.26295 0.91994 0.0
C214 C 0.81399 0.25489 0.92572 0.0
C215 C 0.81158 0.26754 0.94282 0.0
C216 C 0.7867 0.25789 0.94955 0.0
C217 C 0.73802 0.22981 0.9451 0.0
H218 H 0.78457 0.26751 0.96273 0.0
C219 C 0.7194 0.20437 0.94913 0.0
C220 C 0.69525 0.19934 0.95595 0.0
C221 C 0.73202 0.2499 0.94746 0.0
H222 H 0.74586 0.26953 0.94429 0.0
C223 C 0.7083 0.24505 0.95405 0.0
H224 H 0.72388 0.18879 0.94722 0.0
C225 C 0.69019 0.22013 0.95844 0.0
H226 H 0.67234 0.21733 0.96416 0.0
H227 H 0.70406 0.26078 0.95601 0.0
H228 H 0.52453 0.77734 0.09479 0.0
C229 C 0.52718 0.76234 0.08725 0.0
C230 C 0.54354 0.75428 0.09652 0.0
C231 C 0.51298 0.74989 0.06881 0.0
H232 H 0.55875 0.7279 0.09392 0.0
C233 C 0.54607 0.73416 0.08695 0.0
C234 C 0.53239 0.72197 0.06847 0.0
C235 C 0.51609 0.73005 0.0594 0.0
C236 C 0.49358 0.75618 0.05975 0.0
H237 H 0.50518 0.7203 0.04522 0.0
C238 C 0.50012 0.7822 0.05803 0.0
C239 C 0.48189 0.78785 0.04852 0.0
C240 C 0.4684 0.73584 0.0523 0.0
H241 H 0.46274 0.71565 0.05367 0.0
C242 C 0.45023 0.7413 0.04305 0.0
H243 H 0.51945 0.79794 0.06388 0.0
C244 C 0.45692 0.76706 0.04102 0.0
H245 H 0.44263 0.77065 0.03326 0.0
H246 H 0.43096 0.72549 0.03724 0.0
H247 H 0.23614 0.76881 0.10163 0.0
C248 C 0.25068 0.78405 0.09386 0.0
C249 C 0.25911 0.81041 0.09977 0.0
C250 C 0.26202 0.77721 0.07881 0.0
H251 H 0.28576 0.85039 0.09454 0.0
C252 C 0.27898 0.83002 0.09012 0.0
C253 C 0.29074 0.82352 0.07516 0.0
C254 C 0.28203 0.7971 0.06955 0.0
C255 C 0.25419 0.7494 0.07362 0.0
H256 H 0.29086 0.79204 0.05787 0.0
C257 C 0.22754 0.72949 0.07149 0.0
C258 C 0.22045 0.70316 0.06686 0.0
C259 C 0.27361 0.74264 0.07108 0.0
H260 H 0.29424 0.75741 0.07293 0.0
C261 C 0.2667 0.71667 0.06647 0.0
H262 H 0.2124 0.73446 0.07342 0.0
C263 C 0.24038 0.69708 0.06433 0.0
H264 H 0.2356 0.67714 0.06038 0.0
H265 H 0.28183 0.71171 0.0645 0.0
H266 H 0.25348 0.45476 0.10395 0.0
C267 C 0.23649 0.4539 0.09611 0.0
C268 C 0.21144 0.43942 0.10288 0.0
C269 C 0.23985 0.46829 0.07975 0.0
H270 H 0.17084 0.42967 0.09859 0.0
C271 C 0.18981 0.43949 0.09289 0.0
C272 C 0.19276 0.45358 0.07644 0.0
C273 C 0.21775 0.46739 0.06981 0.0
C274 C 0.26648 0.48733 0.07443 0.0
H275 H 0.22025 0.47826 0.0571 0.0
C276 C 0.28581 0.48049 0.07077 0.0
C277 C 0.31031 0.49924 0.06477 0.0
C278 C 0.2722 0.51307 0.07253 0.0
H279 H 0.25801 0.51903 0.07556 0.0
C280 C 0.29608 0.53143 0.06659 0.0
H281 H 0.28168 0.46078 0.07237 0.0
C282 C 0.3148 0.52458 0.06254 0.0
H283 H 0.33279 0.53924 0.05733 0.0
H284 H 0.3 0.55105 0.06492 0.0
H285 H 0.44911 0.87863 0.24653 0.0
C286 C 0.43293 0.87867 0.25324 0.0
C287 C 0.42261 0.89407 0.24637 0.0
C288 C 0.42157 0.86211 0.26801 0.0
H289 H 0.39284 0.90483 0.24998 0.0
C290 C 0.40143 0.89361 0.25535 0.0
C291 C 0.39002 0.87731 0.27033 0.0
C292 C 0.40019 0.8616 0.27646 0.0
C293 C 0.42933 0.84256 0.27264 0.0
H294 H 0.39121 0.84858 0.28769 0.0
C295 C 0.45531 0.84979 0.27974 0.0
C296 C 0.46173 0.83044 0.28413 0.0
C297 C 0.41009 0.81599 0.26962 0.0
H298 H 0.3901 0.80997 0.26402 0.0
C299 C 0.41645 0.79688 0.27338 0.0
H300 H 0.47013 0.87029 0.28234 0.0
C301 C 0.44198 0.80397 0.28049 0.0
H302 H 0.44627 0.78855 0.28301 0.0
H303 H 0.40152 0.77645 0.27073 0.0
H304 H 0.15637 0.58675 0.25586 0.0
C305 C 0.15615 0.57066 0.2628 0.0
C306 C 0.13747 0.54478 0.25558 0.0
C307 C 0.17508 0.57599 0.27857 0.0
H308 H 0.12339 0.50413 0.25939 0.0
C309 C 0.13731 0.52421 0.26496 0.0
C310 C 0.15601 0.52932 0.28087 0.0
C311 C 0.17499 0.55522 0.28746 0.0
C312 C 0.19544 0.60328 0.28534 0.0
H313 H 0.18948 0.55923 0.29972 0.0
C314 C 0.18836 0.62234 0.28933 0.0
C315 C 0.20766 0.64853 0.29518 0.0
C316 C 0.22207 0.61045 0.28748 0.0
H317 H 0.228 0.59611 0.28438 0.0
C318 C 0.24134 0.63635 0.29318 0.0
H319 H 0.16774 0.61655 0.28825 0.0
C320 C 0.23427 0.65531 0.29691 0.0
H321 H 0.24972 0.67534 0.30091 0.0
H322 H 0.26186 0.64181 0.29455 0.0
H323 H 0.4193 0.54339 0.24809 0.0
C324 C 0.4364 0.5599 0.25627 0.0
C325 C 0.46149 0.56872 0.24984 0.0
C326 C 0.43324 0.5732 0.27269 0.0
H327 H 0.5026 0.59817 0.255 0.0
C328 C 0.48341 0.59066 0.26028 0.0
C329 C 0.48047 0.6043 0.27648 0.0
C330 C 0.45541 0.5953 0.28267 0.0
C331 C 0.40677 0.56623 0.27836 0.0
H332 H 0.45307 0.6059 0.29514 0.0
C333 C 0.38864 0.54086 0.28287 0.0
C334 C 0.36427 0.53545 0.28945 0.0
C335 C 0.40006 0.58587 0.28001 0.0
H336 H 0.41352 0.60543 0.27646 0.0
C337 C 0.37611 0.58064 0.28635 0.0
H338 H 0.39367 0.52562 0.28152 0.0
C339 C 0.35847 0.5558 0.2912 0.0
H340 H 0.3404 0.55272 0.2967 0.0
H341 H 0.37131 0.59603 0.28775 0.0
Eu342 Eu 0.48913 0.98958 0.9865 0.0
Eu343 Eu 0.5059 0.01393 0.03456 0.0
C344 C 0.48842 0.0412 1.0026 0.0
C345 C 0.48312 0.9886 0.93045 0.0
C346 C 0.49287 0.01563 0.93137 0.0
C347 C 0.48519 0.98741 0.89494 0.0
C348 C 0.49867 0.02845 0.91417 0.0
C349 C 0.47931 0.97462 0.91212 0.0
C350 C 0.495 0.01453 0.89569 0.0
C351 C 0.4779 0.975 0.94852 0.0
O352 O 0.46191 0.98817 0.02968 0.0
O353 O 0.45686 0.96016 0.00293 0.0
C354 C 0.4484 0.96553 0.01896 0.0
O355 O 0.50642 0.96701 0.99988 0.0
O356 O 0.49783 0.03056 0.06078 0.0
O357 O 0.52924 0.02161 0.06281 0.0
O358 O 0.50388 0.97504 0.0329 0.0
C359 C 0.50721 0.96191 0.01831 0.0
O360 O 0.52855 0.02604 0.98768 0.0
O361 O 0.54412 0.03483 0.02075 0.0
O362 O 0.50443 0.04515 0.0183 0.0
O363 O 0.49844 0.97732 0.95881 0.0
O364 O 0.4619 0.97744 0.95971 0.0
O365 O 0.47563 0.01858 0.99183 0.0
C366 C 0.50498 0.01507 0.09031 0.0
C367 C 0.48521 0.98868 0.08872 0.0
C368 C 0.50636 0.01612 0.12606 0.0
C369 C 0.47598 0.97612 0.10569 0.0
C370 C 0.51545 0.02868 0.10908 0.0
C371 C 0.48652 0.98966 0.12461 0.0
C372 C 0.51484 0.02844 0.07252 0.0
C373 C 0.54752 0.03867 1.00206 0.0
H374 H 0.49613 0.02683 0.94541 0.0
H375 H 0.48249 0.97608 0.88109 0.0
H376 H 0.50587 0.04926 0.91535 0.0
H377 H 0.47206 0.9538 0.91113 0.0
H378 H 0.47703 0.97777 0.07435 0.0
H379 H 0.5147 0.02723 0.14035 0.0
H380 H 0.46092 0.95568 0.10399 0.0
H381 H 0.53069 0.04906 0.11062 0.0
Eu382 Eu 0.01633 0.49572 0.98866 0.0
Eu383 Eu 0.99628 0.48886 0.03321 0.0
C384 C 0.96662 0.44227 0.99783 0.0
C385 C 0.01645 0.49804 0.93336 0.0
C386 C 0.98905 0.48223 0.93013 0.0
C387 C 0.01753 0.50779 0.89927 0.0
C388 C 0.97599 0.47894 0.91151 0.0
C389 C 0.0306 0.51093 0.91789 0.0
C390 C 0.99007 0.49161 0.89582 0.0
C391 C 0.03028 0.5015 0.95289 0.0
O392 O 0.03404 0.4881 0.03628 0.0
O393 O 0.03558 0.47567 0.00415 0.0
C394 C 0.04338 0.47878 0.02311 0.0
O395 O 0.04939 0.52849 0.00843 0.0
O396 O 0.98379 0.46591 0.05823 0.0
O397 O 0.98555 0.5033 0.05922 0.0
O398 O 0.0261 0.53184 0.03294 0.0
C399 C 0.04742 0.54162 0.02369 0.0
O400 O 0.98969 0.51307 0.98989 0.0
O401 O 0.96497 0.49094 0.01422 0.0
O402 O 0.97505 0.44837 0.01672 0.0
O403 O 0.03271 0.52059 0.965 0.0
O404 O 0.02349 0.48024 0.96148 0.0
O405 O 0.97666 0.45946 0.98504 0.0
C406 C 0.99744 0.4913 0.08875 0.0
C407 C 0.02397 0.49816 0.09067 0.0
C408 C 0.99879 0.49662 0.12442 0.0
C409 C 0.03772 0.50381 0.10933 0.0
C410 C 0.98497 0.49075 0.1057 0.0
C411 C 0.02523 0.50293 0.12641 0.0
C412 C 0.98267 0.48404 0.06914 0.0
C413 C 0.96833 0.50454 0.99905 0.0
H414 H 0.97777 0.47225 0.94197 0.0
H415 H 0.02893 0.5181 0.8876 0.0
H416 H 0.9549 0.46604 0.90934 0.0
H417 H 0.05175 0.52343 0.92022 0.0
H418 H 0.03397 0.49888 0.07772 0.0
H419 H 0.98865 0.49566 0.13733 0.0
H420 H 0.05817 0.50898 0.11041 0.0
H421 H 0.96448 0.48548 0.10445 0.0
Eu422 Eu 0.52587 0.50975 0.02832 0.0
Eu423 Eu 0.50385 0.50781 0.98152 0.0
C424 C 0.52354 0.55765 0.01193 0.0
C425 C 0.52986 0.51752 0.08445 0.0
C426 C 0.54769 0.53458 0.10022 0.0
C427 C 0.49381 0.50901 0.10415 0.0
C428 C 0.53869 0.53886 0.11779 0.0
C429 C 0.5028 0.50492 0.08651 0.0
C430 C 0.51165 0.52601 0.12 0.0
C431 C 0.53972 0.51311 0.06603 0.0
O432 O 0.54811 0.52705 0.983 0.0
O433 O 0.5587 0.51298 0.01104 0.0
C434 C 0.56439 0.52262 0.99394 0.0
O435 O 0.51144 0.46862 0.01539 0.0
O436 O 0.50711 0.52957 0.95614 0.0
O437 O 0.47951 0.48792 0.95379 0.0
O438 O 0.50916 0.47293 0.98212 0.0
C439 C 0.50941 0.45983 0.99689 0.0
O440 O 0.48491 0.50332 0.02931 0.0
O441 O 0.46679 0.48964 0.99693 0.0
O442 O 0.50426 0.54136 0.99884 0.0
O443 O 0.52451 0.49114 0.05517 0.0
O444 O 0.5505 0.53274 0.05544 0.0
O445 O 0.539 0.55071 0.02095 0.0
C446 C 0.50219 0.50544 0.9257 0.0
C447 C 0.49724 0.48082 0.91773 0.0
C448 C 0.52919 0.52508 0.8991 0.0
C449 C 0.50826 0.4784 0.90071 0.0
C450 C 0.51805 0.52748 0.91606 0.0
C451 C 0.52454 0.50053 0.89124 0.0
C452 C 0.49168 0.50854 0.94426 0.0
C453 C 0.46461 0.49303 0.01582 0.0
H454 H 0.56862 0.54454 0.09896 0.0
H455 H 0.47286 0.49909 0.1053 0.0
H456 H 0.55293 0.55193 0.12979 0.0
H457 H 0.48855 0.49188 0.07451 0.0
H458 H 0.485 0.46338 0.92469 0.0
H459 H 0.54184 0.54259 0.89236 0.0
H460 H 0.50386 0.45912 0.89489 0.0
H461 H 0.52219 0.54671 0.9218 0.0
Eu462 Eu 0.16003 0.32514 0.32002 0.0
Eu463 Eu 0.17583 0.34926 0.36826 0.0
C464 C 0.15968 0.37719 0.33593 0.0
C465 C 0.15627 0.32483 0.26396 0.0
C466 C 0.16563 0.35179 0.26474 0.0
C467 C 0.1613 0.32402 0.22884 0.0
C468 C 0.17267 0.36475 0.24765 0.0
C469 C 0.15413 0.31108 0.24589 0.0
C470 C 0.17075 0.35105 0.22948 0.0
C471 C 0.14986 0.31107 0.28196 0.0
O472 O 0.13184 0.32425 0.36256 0.0
O473 O 0.12691 0.29603 0.33602 0.0
C474 C 0.11837 0.30154 0.35195 0.0
O475 O 0.17465 0.30056 0.33372 0.0
O476 O 0.16666 0.3648 0.39451 0.0
O477 O 0.19866 0.35672 0.39671 0.0
O478 O 0.17353 0.31024 0.36676 0.0
C479 C 0.17559 0.29602 0.35228 0.0
O480 O 0.20019 0.36079 0.32179 0.0
O481 O 0.21445 0.37093 0.35513 0.0
O482 O 0.17497 0.38083 0.35203 0.0
O483 O 0.16969 0.31249 0.29265 0.0
O484 O 0.13384 0.31411 0.29276 0.0
O485 O 0.14717 0.35471 0.32495 0.0
C486 C 0.17325 0.34824 0.42367 0.0
C487 C 0.15443 0.32149 0.42131 0.0
C488 C 0.17295 0.34759 0.45926 0.0
C489 C 0.14484 0.30791 0.43781 0.0
C490 C 0.18239 0.36117 0.44275 0.0
C491 C 0.15406 0.32076 0.45704 0.0
C492 C 0.18355 0.36264 0.40635 0.0
C493 C 0.21855 0.37412 0.33646 0.0
H494 H 0.16777 0.36286 0.2786 0.0
H495 H 0.15924 0.31278 0.21509 0.0
H496 H 0.1801 0.3856 0.24874 0.0
H497 H 0.14707 0.2903 0.24499 0.0
H498 H 0.14729 0.31109 0.40669 0.0
H499 H 0.18024 0.3582 0.4738 0.0
H500 H 0.13053 0.28724 0.43551 0.0
H501 H 0.19688 0.38181 0.44489 0.0
Eu502 Eu 0.68207 0.83438 0.32115 0.0
Eu503 Eu 0.66136 0.82867 0.3657 0.0
C504 C 0.63343 0.78011 0.33141 0.0
C505 C 0.68034 0.83236 0.26573 0.0
C506 C 0.65325 0.81454 0.26379 0.0
C507 C 0.67797 0.83738 0.23078 0.0
C508 C 0.63858 0.80819 0.24544 0.0
C509 C 0.69263 0.84369 0.24916 0.0
C510 C 0.65074 0.81966 0.22873 0.0
C511 C 0.69541 0.84049 0.28522 0.0
O512 O 0.69054 0.81445 0.36711 0.0
O513 O 0.71231 0.82979 0.3396 0.0
C514 C 0.71013 0.8195 0.35645 0.0
O515 O 0.70419 0.87467 0.33761 0.0
O516 O 0.64511 0.80562 0.39031 0.0
O517 O 0.65205 0.84517 0.39123 0.0
O518 O 0.70139 0.86465 0.36963 0.0
C519 C 0.71258 0.88096 0.35646 0.0
O520 O 0.64225 0.83105 0.31776 0.0
O521 O 0.64264 0.84799 0.34874 0.0
O522 O 0.63058 0.79226 0.34696 0.0
O523 O 0.69264 0.85756 0.29615 0.0
O524 O 0.69437 0.82188 0.29514 0.0
O525 O 0.65395 0.79138 0.32142 0.0
C526 C 0.65949 0.83064 0.42144 0.0
C527 C 0.67726 0.85636 0.42965 0.0
C528 C 0.6677 0.81459 0.45151 0.0
C529 C 0.69018 0.86109 0.44855 0.0
C530 C 0.65461 0.80986 0.43266 0.0
C531 C 0.68571 0.84025 0.45959 0.0
C532 C 0.64639 0.82516 0.40116 0.0
C533 C 0.63313 0.84159 0.3301 0.0
H534 H 0.64342 0.80577 0.27652 0.0
H535 H 0.68785 0.84675 0.21826 0.0
H536 H 0.61773 0.79419 0.24432 0.0
H537 H 0.71349 0.85772 0.25049 0.0
H538 H 0.6815 0.87285 0.42141 0.0
H539 H 0.66369 0.79818 0.45979 0.0
H540 H 0.70414 0.88104 0.45436 0.0
H541 H 0.64086 0.78988 0.42676 0.0
Eu542 Eu 0.18539 0.83841 0.36035 0.0
Eu543 Eu 0.16782 0.84526 0.31442 0.0
C544 C 0.18542 0.89103 0.34961 0.0
C545 C 0.1913 0.84077 0.41613 0.0
C546 C 0.18138 0.85788 0.41774 0.0
C547 C 0.18827 0.83586 0.45113 0.0
C548 C 0.17498 0.86398 0.43595 0.0
C549 C 0.19472 0.82984 0.43291 0.0
C550 C 0.17823 0.85296 0.45288 0.0
C551 C 0.19687 0.83329 0.39685 0.0
O552 O 0.21204 0.86461 0.31757 0.0
O553 O 0.21895 0.84398 0.34284 0.0
C554 C 0.22676 0.85731 0.32743 0.0
O555 O 0.16623 0.7986 0.34333 0.0
O556 O 0.1733 0.86884 0.28981 0.0
O557 O 0.14322 0.82785 0.28649 0.0
O558 O 0.17523 0.81159 0.31249 0.0
C559 C 0.16988 0.7942 0.32507 0.0
O560 O 0.14645 0.83635 0.36185 0.0
O561 O 0.12993 0.8268 0.32908 0.0
O562 O 0.17076 0.87926 0.33292 0.0
O563 O 0.17645 0.81537 0.38551 0.0
O564 O 0.21275 0.85235 0.38714 0.0
O565 O 0.19637 0.8806 0.36035 0.0
C566 C 0.16639 0.84538 0.25866 0.0
C567 C 0.16302 0.82108 0.25148 0.0
C568 C 0.19004 0.86431 0.23044 0.0
C569 C 0.17305 0.81845 0.23399 0.0
C570 C 0.17984 0.86689 0.24788 0.0
C571 C 0.18685 0.84006 0.22329 0.0
C572 C 0.1567 0.84876 0.27753 0.0
C573 C 0.12696 0.8287 0.34798 0.0
H574 H 0.17844 0.8664 0.40489 0.0
H575 H 0.19069 0.82674 0.46376 0.0
H576 H 0.16765 0.87749 0.43678 0.0
H577 H 0.2021 0.81638 0.43189 0.0
H578 H 0.15275 0.80406 0.2594 0.0
H579 H 0.20082 0.88145 0.22276 0.0
H580 H 0.1698 0.79938 0.22878 0.0
H581 H 0.18276 0.88585 0.25308 0.0
Eu582 Eu 0.83106 0.66598 0.65568 0.0
Eu583 Eu 0.84595 0.6894 0.7033 0.0
C584 C 0.82602 0.71496 0.67199 0.0
C585 C 0.82828 0.6655 0.59957 0.0
C586 C 0.83876 0.69264 0.60048 0.0
C587 C 0.83067 0.66417 0.56408 0.0
C588 C 0.84511 0.70546 0.58328 0.0
C589 C 0.82429 0.6514 0.58126 0.0
C590 C 0.8412 0.6914 0.56482 0.0
C591 C 0.82256 0.65187 0.61763 0.0
O592 O 0.80178 0.66378 0.69753 0.0
O593 O 0.79859 0.63578 0.67141 0.0
C594 C 0.78899 0.64108 0.68677 0.0
O595 O 0.85001 0.64515 0.67004 0.0
O596 O 0.83779 0.70576 0.72963 0.0
O597 O 0.86899 0.69649 0.73158 0.0
O598 O 0.84025 0.6491 0.70158 0.0
C599 C 0.84631 0.63734 0.68779 0.0
O600 O 0.8678 0.70506 0.65776 0.0
O601 O 0.88469 0.70879 0.68971 0.0
O602 O 0.84332 0.72003 0.68707 0.0
O603 O 0.84296 0.65514 0.62872 0.0
O604 O 0.80532 0.65325 0.62802 0.0
O605 O 0.81421 0.69235 0.66113 0.0
C606 C 0.84397 0.68878 0.75868 0.0
C607 C 0.82374 0.66254 0.75632 0.0
C608 C 0.8451 0.68767 0.79429 0.0
C609 C 0.81426 0.64895 0.77283 0.0
C610 C 0.85452 0.70124 0.77776 0.0
C611 C 0.8249 0.6613 0.79206 0.0
C612 C 0.85442 0.70304 0.74135 0.0
C613 C 0.88754 0.71581 0.67164 0.0
H614 H 0.84213 0.70393 0.6145 0.0
H615 H 0.82775 0.65271 0.55025 0.0
H616 H 0.85286 0.72636 0.58445 0.0
H617 H 0.81649 0.63048 0.58028 0.0
H618 H 0.8154 0.65252 0.74168 0.0
H619 H 0.85352 0.69792 0.80883 0.0
H620 H 0.79893 0.62863 0.77051 0.0
H621 H 0.87011 0.72147 0.7799 0.0
Eu622 Eu 0.35054 0.17336 0.65524 0.0
Eu623 Eu 0.33122 0.16716 0.70054 0.0
C624 C 0.3012 0.11919 0.66599 0.0
C625 C 0.34832 0.17074 0.5998 0.0
C626 C 0.32129 0.15271 0.59801 0.0
C627 C 0.34542 0.17575 0.56487 0.0
C628 C 0.3064 0.14621 0.57975 0.0
C629 C 0.36032 0.18219 0.58316 0.0
C630 C 0.31826 0.15777 0.56298 0.0
C631 C 0.36361 0.17882 0.6192 0.0
O632 O 0.35919 0.15153 0.7002 0.0
O633 O 0.38136 0.16922 0.67338 0.0
C634 C 0.37902 0.15765 0.68962 0.0
O635 O 0.37221 0.21368 0.67146 0.0
O636 O 0.31739 0.14465 0.72581 0.0
O637 O 0.32315 0.18378 0.72666 0.0
O638 O 0.37102 0.20356 0.7034 0.0
C639 C 0.38133 0.22003 0.69016 0.0
O640 O 0.31206 0.17282 0.65218 0.0
O641 O 0.30929 0.18398 0.6844 0.0
O642 O 0.29959 0.13087 0.68236 0.0
O643 O 0.3615 0.19633 0.6301 0.0
O644 O 0.36214 0.16011 0.6292 0.0
O645 O 0.32089 0.13063 0.6552 0.0
C646 C 0.33352 0.17057 0.75646 0.0
C647 C 0.35511 0.1956 0.76235 0.0
C648 C 0.34082 0.15639 0.78775 0.0
C649 C 0.36937 0.20096 0.78078 0.0
C650 C 0.32641 0.15111 0.76938 0.0
C651 C 0.36258 0.18136 0.79364 0.0
C652 C 0.31884 0.16421 0.73674 0.0
C653 C 0.30158 0.18067 0.66544 0.0
H654 H 0.31167 0.14383 0.61078 0.0
H655 H 0.35508 0.1852 0.55229 0.0
H656 H 0.28563 0.132 0.57875 0.0
H657 H 0.38112 0.19638 0.58438 0.0
H658 H 0.36116 0.21104 0.75269 0.0
H659 H 0.33525 0.14072 0.79713 0.0
H660 H 0.38574 0.2205 0.78493 0.0
H661 H 0.30991 0.13165 0.76512 0.0
Eu662 Eu 0.84848 0.17421 0.69143 0.0
Eu663 Eu 0.83351 0.18164 0.64542 0.0
C664 C 0.85302 0.22832 0.67983 0.0
C665 C 0.85044 0.17473 0.74726 0.0
C666 C 0.8416 0.19274 0.74888 0.0
C667 C 0.84384 0.16743 0.78164 0.0
C668 C 0.83398 0.1981 0.7668 0.0
C669 C 0.85156 0.16218 0.76375 0.0
C670 C 0.83485 0.18537 0.78338 0.0
C671 C 0.85696 0.1677 0.7282 0.0
O672 O 0.8778 0.20066 0.65027 0.0
O673 O 0.8816 0.17713 0.67453 0.0
C674 C 0.89115 0.19176 0.66 0.0
O675 O 0.82681 0.13434 0.67434 0.0
O676 O 0.84086 0.20505 0.62046 0.0
O677 O 0.80966 0.16454 0.61715 0.0
O678 O 0.83994 0.14738 0.64429 0.0
C679 C 0.83199 0.12958 0.65669 0.0
O680 O 0.812 0.17707 0.69187 0.0
O681 O 0.79497 0.16345 0.65952 0.0
O682 O 0.8375 0.21648 0.66347 0.0
O683 O 0.83694 0.15049 0.71616 0.0
O684 O 0.87402 0.18688 0.71916 0.0
O685 O 0.86317 0.21717 0.69057 0.0
C686 C 0.83419 0.18084 0.58969 0.0
C687 C 0.83096 0.15632 0.5834 0.0
C688 C 0.85831 0.19839 0.56137 0.0
C689 C 0.84126 0.15289 0.56628 0.0
C690 C 0.84783 0.20177 0.57842 0.0
C691 C 0.85524 0.17391 0.55508 0.0
C692 C 0.82416 0.18509 0.60814 0.0
C693 C 0.7922 0.16804 0.67811 0.0
H694 H 0.84026 0.20239 0.73621 0.0
H695 H 0.84507 0.15753 0.79417 0.0
H696 H 0.8269 0.2118 0.76757 0.0
H697 H 0.85817 0.1481 0.76274 0.0
H698 H 0.82057 0.13974 0.59172 0.0
H699 H 0.86924 0.21513 0.55331 0.0
H700 H 0.83809 0.13365 0.56175 0.0
H701 H 0.85068 0.22089 0.58296 0.0
C702 C 0.31122 0.865 0.05864 0.0
C703 C 0.31298 0.84426 0.06596 0.0
C704 C 0.33224 0.88468 0.04997 0.0
C705 C 0.35575 0.88384 0.04894 0.0
C706 C 0.3576 0.86293 0.05635 0.0
C707 C 0.33614 0.84332 0.06463 0.0
C708 C 0.32935 0.90643 0.04199 0.0
C709 C 0.38246 0.86154 0.05592 0.0
C710 C 0.40544 0.92307 0.01359 0.0
C711 C 0.42381 0.94519 0.02605 0.0
C712 C 0.38281 0.90324 0.02068 0.0
C713 C 0.3788 0.90531 0.04083 0.0
C714 C 0.39728 0.92763 0.05345 0.0
C715 C 0.41932 0.9474 0.04586 0.0
C716 C 0.36334 0.87995 0.00669 0.0
C717 C 0.39416 0.93039 0.07512 0.0
H718 H 0.29327 0.86566 0.05951 0.0
H719 H 0.33767 0.82745 0.07047 0.0
H720 H 0.34392 0.9254 0.05027 0.0
H721 H 0.33342 0.90772 0.02631 0.0
H722 H 0.3094 0.9036 0.04305 0.0
H723 H 0.38063 0.84385 0.06208 0.0
H724 H 0.38759 0.86152 0.04055 0.0
H725 H 0.39904 0.87906 0.06454 0.0
H726 H 0.40872 0.92123 0.99827 0.0
H727 H 0.43345 0.96431 0.05568 0.0
H728 H 0.34339 0.87733 0.00704 0.0
H729 H 0.36244 0.86196 0.01142 0.0
H730 H 0.36853 0.88194 0.99126 0.0
H731 H 0.3753 0.92974 0.07697 0.0
H732 H 0.4104 0.9489 0.08298 0.0
H733 H 0.39358 0.91381 0.08228 0.0
C734 C 0.17426 0.47979 0.06182 0.0
C735 C 0.17029 0.45565 0.06717 0.0
C736 C 0.15332 0.48247 0.05378 0.0
C737 C 0.12759 0.46053 0.05105 0.0
C738 C 0.12343 0.43603 0.05619 0.0
C739 C 0.14479 0.43388 0.06417 0.0
C740 C 0.15867 0.50899 0.04862 0.0
C741 C 0.09633 0.41217 0.05354 0.0
C742 C 0.07159 0.47516 0.05034 0.0
C743 C 0.06404 0.47271 0.03004 0.0
C744 C 0.09179 0.47073 0.05733 0.0
C745 C 0.10496 0.46365 0.04375 0.0
C746 C 0.09718 0.46066 0.02326 0.0
C747 C 0.07682 0.4652 0.01665 0.0
C748 C 0.09937 0.47412 0.07929 0.0
C749 C 0.11072 0.45318 0.00829 0.0
H750 H 0.19372 0.49687 0.0644 0.0
H751 H 0.14152 0.41511 0.06807 0.0
H752 H 0.15117 0.50769 0.03305 0.0
H753 H 0.14814 0.51586 0.058 0.0
H754 H 0.17994 0.5238 0.05071 0.0
H755 H 0.0965 0.39434 0.0575 0.0
H756 H 0.08324 0.41535 0.06289 0.0
H757 H 0.08773 0.40875 0.038 0.0
H758 H 0.06187 0.48082 0.06089 0.0
H759 H 0.0712 0.46323 1.00096 0.0
H760 H 0.11999 0.49015 0.08288 0.0
H761 H 0.09824 0.45607 0.08409 0.0
H762 H 0.08655 0.47873 0.08794 0.0
H763 H 0.13171 0.46857 0.00914 0.0
H764 H 0.10163 0.45049 0.99298 0.0
H765 H 0.1101 0.4348 0.01162 0.0
C766 C 0.53907 0.69868 0.03965 0.0
C767 C 0.53361 0.69948 0.05929 0.0
C768 C 0.53919 0.67686 0.03066 0.0
C769 C 0.53317 0.65525 0.0415 0.0
C770 C 0.52781 0.6561 0.06139 0.0
C771 C 0.52831 0.67833 0.07009 0.0
C772 C 0.5455 0.6768 0.00956 0.0
C773 C 0.5209 0.63328 0.07334 0.0
C774 C 0.5054 0.58753 0.01505 0.0
C775 C 0.52682 0.58352 0.0177 0.0
C776 C 0.50741 0.61113 0.02227 0.0
C777 C 0.53158 0.63131 0.032 0.0
C778 C 0.55362 0.6278 0.03389 0.0
C779 C 0.5509 0.60379 0.0269 0.0
C780 C 0.48334 0.61399 0.02028 0.0
C781 C 0.57984 0.6491 0.04383 0.0
H782 H 0.54331 0.71517 0.03138 0.0
H783 H 0.5238 0.6789 0.08522 0.0
H784 H 0.56177 0.67261 0.0085 0.0
H785 H 0.52818 0.66109 1.00014 0.0
H786 H 0.5512 0.69572 0.00356 0.0
H787 H 0.51746 0.63719 0.08866 0.0
H788 H 0.50292 0.61571 0.06613 0.0
H789 H 0.53693 0.6286 0.07396 0.0
H790 H 0.4867 0.57183 0.00805 0.0
H791 H 0.56756 0.60079 0.02882 0.0
H792 H 0.48771 0.63191 0.01323 0.0
H793 H 0.47751 0.61606 0.03515 0.0
H794 H 0.46641 0.59697 0.01146 0.0
H795 H 0.58562 0.66778 0.03747 0.0
H796 H 0.59562 0.64424 0.04234 0.0
H797 H 0.57832 0.65226 0.05976 0.0
C798 C 0.8596 0.29463 0.95517 0.0
C799 C 0.83459 0.29207 0.95269 0.0
C800 C 0.88164 0.31823 0.96341 0.0
C801 C 0.87863 0.33979 0.96935 0.0
C802 C 0.85338 0.33716 0.96728 0.0
C803 C 0.83173 0.31341 0.95894 0.0
C804 C 0.90824 0.32026 0.96536 0.0
C805 C 0.84931 0.35968 0.97339 0.0
C806 C 0.93176 0.39709 0.00391 0.0
C807 C 0.94477 0.4156 0.99067 0.0
C808 C 0.91046 0.37217 0.99718 0.0
C809 C 0.90202 0.36557 0.97674 0.0
C810 C 0.91536 0.384 0.9633 0.0
C811 C 0.9365 0.40873 0.97041 0.0
C812 C 0.89669 0.35307 0.01196 0.0
C813 C 0.90704 0.37775 0.94138 0.0
H814 H 0.86195 0.27817 0.95058 0.0
H815 H 0.81262 0.31183 0.95678 0.0
H816 H 0.92146 0.33506 0.956 0.0
H817 H 0.91735 0.3269 0.98082 0.0
H818 H 0.9071 0.30138 0.96092 0.0
H819 H 0.82823 0.35401 0.97188 0.0
H820 H 0.85748 0.36735 0.98894 0.0
H821 H 0.85997 0.37585 0.96415 0.0
H822 H 0.93796 0.40216 0.01958 0.0
H823 H 0.94642 0.42278 0.96001 0.0
H824 H 0.89638 0.33449 0.00808 0.0
H825 H 0.87596 0.34842 0.01156 0.0
H826 H 0.90626 0.3608 0.02725 0.0
H827 H 0.9072 0.35984 0.93596 0.0
H828 H 0.92001 0.39391 0.93283 0.0
H829 H 0.88663 0.37381 0.93836 0.0
C830 C 0.70332 0.56487 0.95093 0.0
C831 C 0.70466 0.54256 0.94497 0.0
C832 C 0.68125 0.56281 0.95944 0.0
C833 C 0.65977 0.53782 0.96177 0.0
C834 C 0.66094 0.51523 0.95557 0.0
C835 C 0.68336 0.51788 0.94738 0.0
C836 C 0.68097 0.58739 0.96603 0.0
C837 C 0.63836 0.48819 0.95741 0.0
C838 C 0.61024 0.52947 0.99841 0.0
C839 C 0.58941 0.5278 0.9861 0.0
C840 C 0.63349 0.53338 0.9908 0.0
C841 C 0.63584 0.53516 0.97031 0.0
C842 C 0.61488 0.53354 0.95783 0.0
C843 C 0.59211 0.53011 0.96588 0.0
C844 C 0.65546 0.53534 0.00466 0.0
C845 C 0.61624 0.53481 0.93586 0.0
H846 H 0.71976 0.58399 0.94924 0.0
H847 H 0.68407 0.50052 0.94256 0.0
H848 H 0.66424 0.58759 0.95785 0.0
H849 H 0.6781 0.58788 0.98194 0.0
H850 H 0.69942 0.60534 0.96365 0.0
H851 H 0.64228 0.4726 0.95186 0.0
H852 H 0.63438 0.48592 0.97307 0.0
H853 H 0.62026 0.4853 0.94901 0.0
H854 H 0.60841 0.52775 0.01403 0.0
H855 H 0.57608 0.52857 0.95615 0.0
H856 H 0.67399 0.55369 0.00325 0.0
H857 H 0.65882 0.51891 1.00068 0.0
H858 H 0.65117 0.5349 0.0203 0.0
H859 H 0.63362 0.55333 0.93291 0.0
H860 H 0.59839 0.53348 0.9282 0.0
H861 H 0.6186 0.51859 0.92939 0.0
C862 C 0.51277 0.17062 0.95825 0.0
C863 C 0.49056 0.17342 0.95612 0.0
C864 C 0.51168 0.14914 0.96665 0.0
C865 C 0.4879 0.13032 0.97339 0.0
C866 C 0.46557 0.1334 0.97168 0.0
C867 C 0.46709 0.15483 0.96285 0.0
C868 C 0.53576 0.14624 0.96786 0.0
C869 C 0.44004 0.11394 0.97901 0.0
C870 C 0.47799 0.06244 0.97588 0.0
C871 C 0.4862 0.06326 0.99576 0.0
C872 C 0.47817 0.08405 0.96848 0.0
C873 C 0.48617 0.10682 0.98137 0.0
C874 C 0.49356 0.10746 1.00162 0.0
C875 C 0.49379 0.08573 0.00854 0.0
C876 C 0.47067 0.08279 0.94671 0.0
C877 C 0.50174 0.13128 0.01585 0.0
H878 H 0.53084 0.18496 0.95288 0.0
H879 H 0.45001 0.1572 0.96133 0.0
H880 H 0.54142 0.1449 0.98336 0.0
H881 H 0.53136 0.12787 0.95917 0.0
H882 H 0.5528 0.16281 0.9622 0.0
H883 H 0.425 0.11999 0.97763 0.0
H884 H 0.43209 0.09458 0.97051 0.0
H885 H 0.44346 0.11149 0.99471 0.0
H886 H 0.47229 0.04521 0.96587 0.0
H887 H 0.50007 0.0864 0.02393 0.0
H888 H 0.48755 0.09805 0.93995 0.0
H889 H 0.45427 0.08681 0.94452 0.0
H890 H 0.46465 0.06348 0.93873 0.0
H891 H 0.52016 0.14793 0.01185 0.0
H892 H 0.50502 0.12793 0.03135 0.0
H893 H 0.4865 0.13706 0.01489 0.0
C894 C 0.68307 0.1575 0.97132 0.0
C895 C 0.67541 0.17301 0.96124 0.0
C896 C 0.6643 0.13409 0.97824 0.0
C897 C 0.63728 0.12624 0.97531 0.0
C898 C 0.62941 0.14141 0.96465 0.0
C899 C 0.64847 0.16426 0.9575 0.0
C900 C 0.6734 0.11808 0.98908 0.0
C901 C 0.60085 0.13391 0.96124 0.0
C902 C 0.58107 0.0574 0.97815 0.0
C903 C 0.57298 0.0596 0.99673 0.0
C904 C 0.60311 0.0784 0.97153 0.0
C905 C 0.61701 0.10247 0.98355 0.0
C906 C 0.60958 0.10447 1.00268 0.0
C907 C 0.58781 0.08288 0.00913 0.0
C908 C 0.61069 0.07518 0.95127 0.0
C909 C 0.62351 0.12991 0.01581 0.0
H910 H 0.70377 0.16404 0.97441 0.0
H911 H 0.6422 0.17563 0.94926 0.0
H912 H 0.6693 0.11831 0.00472 0.0
H913 H 0.6624 0.09743 0.98258 0.0
H914 H 0.69476 0.12558 0.98867 0.0
H915 H 0.59802 0.14802 0.95289 0.0
H916 H 0.58927 0.11428 0.95294 0.0
H917 H 0.59267 0.13287 0.9756 0.0
H918 H 0.56974 0.03936 0.96855 0.0
H919 H 0.58149 0.08475 0.02342 0.0
H920 H 0.6322 0.0831 0.95179 0.0
H921 H 0.60564 0.08633 0.94112 0.0
H922 H 0.60041 0.0544 0.945 0.0
H923 H 0.64504 0.13781 0.01718 0.0
H924 H 0.61682 0.12771 0.03082 0.0
H925 H 0.61979 0.14452 0.0091 0.0
C926 C 0.84811 0.52785 0.96535 0.0
C927 C 0.83072 0.50655 0.95177 0.0
C928 C 0.87276 0.53132 0.97231 0.0
C929 C 0.88012 0.51301 0.96558 0.0
C930 C 0.86334 0.49251 0.9509 0.0
C931 C 0.839 0.48964 0.94413 0.0
C932 C 0.89023 0.55368 0.98771 0.0
C933 C 0.87029 0.47255 0.94321 0.0
C934 C 0.94937 0.52354 0.97539 0.0
C935 C 0.94671 0.50888 0.99143 0.0
C936 C 0.92825 0.52604 0.96729 0.0
C937 C 0.90377 0.51335 0.97526 0.0
C938 C 0.90122 0.49913 0.99176 0.0
C939 C 0.92266 0.49717 0.99966 0.0
C940 C 0.93191 0.5416 0.94984 0.0
C941 C 0.87547 0.48509 1.00067 0.0
H942 H 0.84187 0.54097 0.97136 0.0
H943 H 0.82587 0.4734 0.93337 0.0
H944 H 0.89013 0.54602 1.00217 0.0
H945 H 0.91081 0.5637 0.98394 0.0
H946 H 0.88362 0.5682 0.98929 0.0
H947 H 0.85625 0.45918 0.93064 0.0
H948 H 0.89033 0.48236 0.93839 0.0
H949 H 0.87025 0.46068 0.95521 0.0
H950 H 0.96783 0.53275 0.96891 0.0
H951 H 0.92026 0.48579 0.01204 0.0
H952 H 0.92488 0.55563 0.95246 0.0
H953 H 0.92002 0.52827 0.93654 0.0
H954 H 0.95277 0.55256 0.94672 0.0
H955 H 0.86856 0.49888 0.00471 0.0
H956 H 0.87703 0.47589 0.01403 0.0
H957 H 0.86029 0.46963 0.98965 0.0
C958 C 0.51391 0.32735 0.97508 0.0
C959 C 0.53834 0.33428 0.96829 0.0
C960 C 0.50678 0.34623 0.97952 0.0
C961 C 0.52468 0.37275 0.97748 0.0
C962 C 0.54931 0.37991 0.97059 0.0
C963 C 0.55574 0.36057 0.96592 0.0
C964 C 0.48021 0.33785 0.98661 0.0
C965 C 0.56901 0.40807 0.96837 0.0
C966 C 0.50282 0.42272 0.97335 0.0
C967 C 0.51016 0.43552 0.99252 0.0
C968 C 0.50642 0.4015 0.96842 0.0
C969 C 0.51801 0.3932 0.98295 0.0
C970 C 0.52463 0.40547 1.00249 0.0
C971 C 0.52042 0.42636 0.00709 0.0
C972 C 0.49863 0.38854 0.94752 0.0
C973 C 0.53731 0.39734 0.01834 0.0
H974 H 0.50049 0.30719 0.9773 0.0
H975 H 0.57444 0.36608 0.96037 0.0
H976 H 0.48272 0.34676 1.0019 0.0
H977 H 0.46943 0.34487 0.97724 0.0
H978 H 0.46801 0.3163 0.98638 0.0
H979 H 0.58737 0.4104 0.96295 0.0
H980 H 0.56035 0.41605 0.95791 0.0
H981 H 0.57411 0.42002 0.98277 0.0
H982 H 0.49471 0.4296 0.96205 0.0
H983 H 0.5263 0.43626 0.02191 0.0
H984 H 0.48614 0.36707 0.94748 0.0
H985 H 0.51644 0.39229 0.94042 0.0
H986 H 0.48778 0.39581 0.93846 0.0
H987 H 0.52528 0.37606 0.01944 0.0
H988 H 0.53995 0.4079 0.03303 0.0
H989 H 0.55685 0.4013 0.01439 0.0
C990 C 0.17355 0.68482 0.0527 0.0
C991 C 0.19244 0.68189 0.06399 0.0
C992 C 0.14797 0.66359 0.04765 0.0
C993 C 0.14117 0.63886 0.05398 0.0
C994 C 0.15967 0.63625 0.06639 0.0
C995 C 0.185 0.65778 0.07129 0.0
C996 C 0.12875 0.66726 0.03455 0.0
C997 C 0.15328 0.61029 0.07353 0.0
C998 C 0.07069 0.58174 0.04821 0.0
C999 C 0.07052 0.56749 0.03099 0.0
C1000 C 0.09327 0.60547 0.05564 0.0
C1001 C 0.1162 0.61507 0.04566 0.0
C1002 C 0.11588 0.60108 0.02803 0.0
C1003 C 0.09311 0.57759 0.02092 0.0
C1004 C 0.09281 0.61995 0.0744 0.0
C1005 C 0.13989 0.61052 0.01692 0.0
H1006 H 0.17913 0.70334 0.04696 0.0
H1007 H 0.19932 0.65551 0.08038 0.0
H1008 H 0.12617 0.65749 0.01955 0.0
H1009 H 0.10922 0.65811 0.04026 0.0
H1010 H 0.13558 0.68822 0.03329 0.0
H1011 H 0.16877 0.6121 0.08467 0.0
H1012 H 0.13431 0.60148 0.08007 0.0
H1013 H 0.15117 0.59658 0.06083 0.0
H1014 H 0.05335 0.57415 0.0561 0.0
H1015 H 0.09326 0.56689 0.00756 0.0
H1016 H 0.09965 0.64066 0.07217 0.0
H1017 H 0.10651 0.61987 0.08623 0.0
H1018 H 0.0729 0.61109 0.07949 0.0
H1019 H 0.14669 0.63072 0.0132 0.0
H1020 H 0.13611 0.59787 0.00306 0.0
H1021 H 0.15613 0.61097 0.02636 0.0
C1022 C 0.32527 0.4694 0.04956 0.0
C1023 C 0.3313 0.49309 0.06009 0.0
C1024 C 0.34527 0.46544 0.04268 0.0
C1025 C 0.37186 0.48585 0.04601 0.0
C1026 C 0.37808 0.5093 0.05737 0.0
C1027 C 0.35789 0.51236 0.06457 0.0
C1028 C 0.33788 0.43977 0.0313 0.0
C1029 C 0.40603 0.53177 0.06116 0.0
C1030 C 0.43204 0.47878 0.04085 0.0
C1031 C 0.43885 0.4874 0.02224 0.0
C1032 C 0.4092 0.47631 0.04819 0.0
C1033 C 0.39326 0.48357 0.03698 0.0
C1034 C 0.39967 0.49155 0.0179 0.0
C1035 C 0.42215 0.49297 0.01065 0.0
C1036 C 0.40274 0.46692 0.06829 0.0
C1037 C 0.38377 0.50023 0.00566 0.0
H1038 H 0.3049 0.45432 0.04598 0.0
H1039 H 0.36296 0.53041 0.07326 0.0
H1040 H 0.34081 0.44264 0.01554 0.0
H1041 H 0.3507 0.43231 0.0369 0.0
H1042 H 0.31706 0.42476 0.03225 0.0
H1043 H 0.40757 0.54875 0.07021 0.0
H1044 H 0.41867 0.52543 0.06888 0.0
H1045 H 0.41398 0.53827 0.04692 0.0
H1046 H 0.44482 0.47431 0.04982 0.0
H1047 H 0.4275 0.49992 0.99636 0.0
H1048 H 0.38157 0.45219 0.0679 0.0
H1049 H 0.40679 0.48354 0.07905 0.0
H1050 H 0.41453 0.45821 0.0737 0.0
H1051 H 0.36268 0.48507 0.00409 0.0
H1052 H 0.39034 0.50438 0.9907 0.0
H1053 H 0.38558 0.51821 0.01323 0.0
C1054 C 0.51385 0.83315 0.04061 0.0
C1055 C 0.48892 0.81519 0.04579 0.0
C1056 C 0.51998 0.85845 0.0367 0.0
C1057 C 0.50059 0.86578 0.0377 0.0
C1058 C 0.47561 0.84797 0.04334 0.0
C1059 C 0.47018 0.82301 0.04749 0.0
C1060 C 0.54696 0.87709 0.03103 0.0
C1061 C 0.45435 0.85505 0.04452 0.0
C1062 C 0.51607 0.93609 0.0421 0.0
C1063 C 0.50916 0.93879 0.0227 0.0
C1064 C 0.51476 0.91287 0.04702 0.0
C1065 C 0.50589 0.89172 0.03225 0.0
C1066 C 0.49995 0.89471 0.01249 0.0
C1067 C 0.50187 0.91832 0.00792 0.0
C1068 C 0.52177 0.91059 0.06817 0.0
C1069 C 0.49014 0.87248 0.99637 0.0
H1070 H 0.52837 0.82723 0.03906 0.0
H1071 H 0.45107 0.80948 0.05189 0.0
H1072 H 0.5454 0.88133 0.01555 0.0
H1073 H 0.55576 0.89593 0.04045 0.0
H1074 H 0.56043 0.86912 0.03242 0.0
H1075 H 0.43604 0.83901 0.04929 0.0
H1076 H 0.46134 0.87269 0.05505 0.0
H1077 H 0.44962 0.85978 0.02989 0.0
H1078 H 0.52195 0.95195 0.05357 0.0
H1079 H 0.49638 0.92022 0.99292 0.0
H1080 H 0.53531 0.90269 0.0689 0.0
H1081 H 0.50375 0.89675 0.07466 0.0
H1082 H 0.53114 0.92968 0.07736 0.0
H1083 H 0.50365 0.86455 0.99614 0.0
H1084 H 0.48816 0.87854 0.98155 0.0
H1085 H 0.47066 0.85639 0.99932 0.0
C1086 C 0.98238 0.20033 0.39293 0.0
C1087 C 0.98447 0.17958 0.39986 0.0
C1088 C 1.00315 0.22026 0.38423 0.0
C1089 C 0.02674 0.21969 0.38282 0.0
C1090 C 0.029 0.19887 0.38998 0.0
C1091 C 0.00776 0.17898 0.39824 0.0
C1092 C 0.99984 0.24191 0.37652 0.0
C1093 C 0.05399 0.19778 0.38917 0.0
C1094 C 0.07541 0.25903 0.34688 0.0
C1095 C 0.0939 0.28125 0.35921 0.0
C1096 C 0.05303 0.23917 0.35421 0.0
C1097 C 0.04943 0.24126 0.37446 0.0
C1098 C 0.06804 0.26367 0.38693 0.0
C1099 C 0.08978 0.28349 0.37911 0.0
C1100 C 0.03341 0.21578 0.34037 0.0
C1101 C 0.06542 0.26643 0.40871 0.0
H1102 H 0.96431 0.20071 0.39403 0.0
H1103 H 0.00951 0.16307 0.40377 0.0
H1104 H 0.01455 0.26093 0.38466 0.0
H1105 H 1.0034 0.24316 0.36074 0.0
H1106 H 0.97992 0.23897 0.37801 0.0
H1107 H 0.05258 0.18028 0.3954 0.0
H1108 H 0.05869 0.19758 0.37369 0.0
H1109 H 0.07066 0.21549 0.39753 0.0
H1110 H 0.07843 0.25715 0.3315 0.0
H1111 H 0.10403 0.30046 0.38882 0.0
H1112 H 0.01341 0.21292 0.34109 0.0
H1113 H 0.0329 0.1979 0.34494 0.0
H1114 H 0.03817 0.21782 0.32484 0.0
H1115 H 0.04645 0.26537 0.41089 0.0
H1116 H 0.0816 0.28511 0.41639 0.0
H1117 H 0.06544 0.25006 0.41579 0.0
C1118 C 0.84066 0.82335 0.4008 0.0
C1119 C 0.83729 0.79866 0.40363 0.0
C1120 C 0.81969 0.82615 0.39295 0.0
C1121 C 0.79475 0.80367 0.38748 0.0
C1122 C 0.79131 0.77864 0.39007 0.0
C1123 C 0.81254 0.77646 0.39829 0.0
C1124 C 0.82416 0.85322 0.39081 0.0
C1125 C 0.76519 0.75417 0.38414 0.0
C1126 C 0.73481 0.8124 0.38441 0.0
C1127 C 0.73106 0.8143 0.36419 0.0
C1128 C 0.7553 0.80879 0.39214 0.0
C1129 C 0.77224 0.80649 0.37934 0.0
C1130 C 0.76818 0.80778 0.35885 0.0
C1131 C 0.74785 0.81194 0.35156 0.0
C1132 C 0.75919 0.80804 0.41412 0.0
C1133 C 0.78548 0.80499 0.34463 0.0
H1134 H 0.85964 0.84062 0.40517 0.0
H1135 H 0.80988 0.75734 0.40038 0.0
H1136 H 0.81966 0.85508 0.37517 0.0
H1137 H 0.81068 0.85666 0.39953 0.0
H1138 H 0.84468 0.86871 0.39583 0.0
H1139 H 0.76594 0.73616 0.38649 0.0
H1140 H 0.74997 0.7544 0.39279 0.0
H1141 H 0.7589 0.75339 0.36834 0.0
H1142 H 0.72211 0.81442 0.39433 0.0
H1143 H 0.74503 0.81323 0.33591 0.0
H1144 H 0.77892 0.82422 0.42016 0.0
H1145 H 0.75837 0.7895 0.41721 0.0
H1146 H 0.74416 0.8098 0.42206 0.0
H1147 H 0.806 0.82124 0.34811 0.0
H1148 H 0.77891 0.80504 0.32904 0.0
H1149 H 0.78559 0.78653 0.3462 0.0
C1150 C 0.21283 0.03244 0.39188 0.0
C1151 C 0.18912 0.03027 0.3967 0.0
C1152 C 0.21356 0.01071 0.38344 0.0
C1153 C 0.19008 0.98621 0.38011 0.0
C1154 C 0.16605 0.98398 0.38487 0.0
C1155 C 0.16584 0.00614 0.39297 0.0
C1156 C 0.23944 0.01389 0.37823 0.0
C1157 C 0.14068 0.95809 0.38183 0.0
C1158 C 0.18441 0.93186 0.34435 0.0
C1159 C 0.18851 0.91632 0.35719 0.0
C1160 C 0.18568 0.95513 0.35155 0.0
C1161 C 0.19064 0.96271 0.3721 0.0
C1162 C 0.19513 0.94727 0.38512 0.0
C1163 C 0.19425 0.92437 0.37747 0.0
C1164 C 0.18126 0.97137 0.33721 0.0
C1165 C 0.20006 0.9545 0.40716 0.0
H1166 H 0.23079 0.0512 0.39468 0.0
H1167 H 0.14756 0.00446 0.39691 0.0
H1168 H 0.24469 0.00173 0.38709 0.0
H1169 H 0.23775 0.00697 0.36247 0.0
H1170 H 0.25567 0.0345 0.38092 0.0
H1171 H 0.12367 0.95974 0.38618 0.0
H1172 H 0.13657 0.95009 0.36611 0.0
H1173 H 0.14247 0.94379 0.39062 0.0
H1174 H 0.18012 0.92578 0.32864 0.0
H1175 H 0.19721 0.91231 0.38749 0.0
H1176 H 0.1978 0.99183 0.33943 0.0
H1177 H 0.16313 0.97181 0.33995 0.0
H1178 H 0.17932 0.96364 0.32161 0.0
H1179 H 0.21728 0.97441 0.41074 0.0
H1180 H 0.20363 0.94063 0.41522 0.0
H1181 H 0.18287 0.95481 0.41266 0.0
C1182 C 0.52714 0.63098 0.29182 0.0
C1183 C 0.50316 0.62929 0.28577 0.0
C1184 C 0.54888 0.65482 0.30005 0.0
C1185 C 0.54672 0.67759 0.30186 0.0
C1186 C 0.52251 0.67594 0.29574 0.0
C1187 C 0.50099 0.65178 0.28793 0.0
C1188 C 0.5742 0.65569 0.30672 0.0
C1189 C 0.51949 0.6998 0.29705 0.0
C1190 C 0.59461 0.73722 0.33695 0.0
C1191 C 0.61207 0.75336 0.32415 0.0
C1192 C 0.57373 0.71218 0.33002 0.0
C1193 C 0.56985 0.70331 0.30972 0.0
C1194 C 0.58752 0.71951 0.29675 0.0
C1195 C 0.60856 0.7442 0.30416 0.0
C1196 C 0.55563 0.69532 0.34439 0.0
C1197 C 0.58378 0.71106 0.27494 0.0
H1198 H 0.5288 0.61358 0.29022 0.0
H1199 H 0.48257 0.6506 0.283 0.0
H1200 H 0.59001 0.6688 0.29798 0.0
H1201 H 0.58044 0.66383 0.32241 0.0
H1202 H 0.57233 0.63607 0.30511 0.0
H1203 H 0.49935 0.6952 0.29168 0.0
H1204 H 0.52404 0.70873 0.31254 0.0
H1205 H 0.53366 0.71466 0.28819 0.0
H1206 H 0.59732 0.74414 0.35243 0.0
H1207 H 0.62183 0.75667 0.29413 0.0
H1208 H 0.5544 0.67599 0.3434 0.0
H1209 H 0.53551 0.6918 0.34054 0.0
H1210 H 0.56225 0.70439 0.35987 0.0
H1211 H 0.58366 0.69234 0.27253 0.0
H1212 H 0.59942 0.72581 0.26687 0.0
H1213 H 0.56449 0.70765 0.26846 0.0
C1214 C 0.36617 0.89791 0.28595 0.0
C1215 C 0.36646 0.87539 0.27884 0.0
C1216 C 0.34423 0.89616 0.29446 0.0
C1217 C 0.3218 0.87133 0.29552 0.0
C1218 C 0.32189 0.84856 0.28809 0.0
C1219 C 0.34425 0.85086 0.28002 0.0
C1220 C 0.34513 0.92088 0.30244 0.0
C1221 C 0.29825 0.82173 0.28851 0.0
C1222 C 0.27159 0.86179 0.33183 0.0
C1223 C 0.25184 0.86245 0.31978 0.0
C1224 C 0.29476 0.86537 0.32428 0.0
C1225 C 0.29804 0.86907 0.30408 0.0
C1226 C 0.27814 0.86977 0.29187 0.0
C1227 C 0.25549 0.86673 0.29989 0.0
C1228 C 0.31563 0.8649 0.33789 0.0
C1229 C 0.28044 0.87303 0.27017 0.0
H1230 H 0.38334 0.91689 0.28519 0.0
H1231 H 0.34424 0.83341 0.27433 0.0
H1232 H 0.32924 0.92273 0.29452 0.0
H1233 H 0.34169 0.92007 0.31826 0.0
H1234 H 0.36424 0.93862 0.30097 0.0
H1235 H 0.3013 0.806 0.2819 0.0
H1236 H 0.29371 0.81806 0.30393 0.0
H1237 H 0.2808 0.82056 0.28033 0.0
H1238 H 0.26897 0.85851 0.34719 0.0
H1239 H 0.24022 0.86692 0.29036 0.0
H1240 H 0.33483 0.8829 0.33734 0.0
H1241 H 0.31798 0.84809 0.33296 0.0
H1242 H 0.31083 0.86333 0.35342 0.0
H1243 H 0.29859 0.89144 0.26815 0.0
H1244 H 0.26335 0.87336 0.2627 0.0
H1245 H 0.28197 0.85676 0.26275 0.0
C1246 C 0.17939 0.50631 0.29228 0.0
C1247 C 0.15626 0.50754 0.29021 0.0
C1248 C 0.17976 0.48537 0.30054 0.0
C1249 C 0.15653 0.46548 0.3072 0.0
C1250 C 0.13326 0.46696 0.30554 0.0
C1251 C 0.13334 0.48788 0.29687 0.0
C1252 C 0.2048 0.48419 0.30168 0.0
C1253 C 0.10824 0.44632 0.31275 0.0
C1254 C 0.14969 0.39869 0.30916 0.0
C1255 C 0.15752 0.39931 0.3291 0.0
C1256 C 0.14926 0.42009 0.30188 0.0
C1257 C 0.15626 0.44246 0.31495 0.0
C1258 C 0.16356 0.44301 0.3352 0.0
C1259 C 0.1644 0.4215 0.34201 0.0
C1260 C 0.1419 0.41895 0.2801 0.0
C1261 C 0.17072 0.46639 0.3496 0.0
H1262 H 0.19705 0.52145 0.28697 0.0
H1263 H 0.11553 0.48901 0.2954 0.0
H1264 H 0.21067 0.48285 0.31712 0.0
H1265 H 0.20152 0.46638 0.29276 0.0
H1266 H 0.22129 0.5015 0.29622 0.0
H1267 H 0.09233 0.45119 0.31148 0.0
H1268 H 0.10132 0.42726 0.30407 0.0
H1269 H 0.11196 0.44388 0.3284 0.0
H1270 H 0.14458 0.38172 0.29904 0.0
H1271 H 0.1704 0.42204 0.35744 0.0
H1272 H 0.15831 0.43511 0.2736 0.0
H1273 H 0.12461 0.42157 0.27788 0.0
H1274 H 0.13723 0.40016 0.27191 0.0
H1275 H 0.18847 0.48375 0.34553 0.0
H1276 H 0.17465 0.4632 0.36502 0.0
H1277 H 0.15459 0.47095 0.34894 0.0
C1278 C 0.35319 0.49455 0.30589 0.0
C1279 C 0.34494 0.50919 0.29519 0.0
C1280 C 0.33484 0.47116 0.31309 0.0
C1281 C 0.30764 0.46241 0.30979 0.0
C1282 C 0.2992 0.47671 0.29855 0.0
C1283 C 0.31786 0.49959 0.29118 0.0
C1284 C 0.34458 0.45613 0.3246 0.0
C1285 C 0.27042 0.46822 0.29472 0.0
C1286 C 0.25286 0.39297 0.3131 0.0
C1287 C 0.24407 0.39526 0.33136 0.0
C1288 C 0.27472 0.41419 0.30649 0.0
C1289 C 0.28775 0.43855 0.3182 0.0
C1290 C 0.27969 0.44064 0.33706 0.0
C1291 C 0.25811 0.41886 0.34351 0.0
C1292 C 0.28298 0.41088 0.28651 0.0
C1293 C 0.29271 0.46633 0.34986 0.0
H1294 H 0.374 0.50177 0.30921 0.0
H1295 H 0.31116 0.51028 0.2825 0.0
H1296 H 0.34007 0.45651 0.34012 0.0
H1297 H 0.33433 0.43536 0.31837 0.0
H1298 H 0.36609 0.46432 0.32453 0.0
H1299 H 0.26712 0.48171 0.28592 0.0
H1300 H 0.25949 0.44837 0.2867 0.0
H1301 H 0.26192 0.46724 0.30893 0.0
H1302 H 0.24216 0.3747 0.30369 0.0
H1303 H 0.25125 0.42081 0.35755 0.0
H1304 H 0.3046 0.41947 0.28736 0.0
H1305 H 0.27757 0.42138 0.27594 0.0
H1306 H 0.27341 0.39002 0.28056 0.0
H1307 H 0.31435 0.47497 0.35145 0.0
H1308 H 0.28579 0.46422 0.36478 0.0
H1309 H 0.28837 0.48031 0.34273 0.0
C1310 C 0.51135 0.85696 0.28566 0.0
C1311 C 0.48863 0.83711 0.29252 0.0
C1312 C 0.53645 0.86111 0.29208 0.0
C1313 C 0.53887 0.84483 0.30548 0.0
C1314 C 0.51612 0.82552 0.31304 0.0
C1315 C 0.49146 0.82216 0.30669 0.0
C1316 C 0.56027 0.88229 0.284 0.0
C1317 C 0.51764 0.80759 0.32725 0.0
C1318 C 0.59512 0.83067 0.30532 0.0
C1319 C 0.6104 0.84448 0.32307 0.0
C1320 C 0.57233 0.83134 0.29912 0.0
C1321 C 0.56474 0.84658 0.31074 0.0
C1322 C 0.58072 0.8615 0.32823 0.0
C1323 C 0.60319 0.86006 0.3343 0.0
C1324 C 0.55571 0.81476 0.28055 0.0
C1325 C 0.57369 0.87844 0.34083 0.0
H1326 H 0.50948 0.86863 0.27472 0.0
H1327 H 0.47419 0.80728 0.31257 0.0
H1328 H 0.57584 0.89439 0.29616 0.0
H1329 H 0.56843 0.87333 0.27402 0.0
H1330 H 0.55555 0.89521 0.27563 0.0
H1331 H 0.49822 0.79407 0.33221 0.0
H1332 H 0.52527 0.79579 0.32009 0.0
H1333 H 0.53149 0.81916 0.34042 0.0
H1334 H 0.60044 0.81851 0.29653 0.0
H1335 H 0.61498 0.87098 0.34794 0.0
H1336 H 0.55204 0.82683 0.27044 0.0
H1337 H 0.53634 0.79939 0.28435 0.0
H1338 H 0.56505 0.80517 0.27259 0.0
H1339 H 0.56951 0.89099 0.33159 0.0
H1340 H 0.5896 0.89108 0.35266 0.0
H1341 H 0.5556 0.86593 0.3478 0.0
C1342 C 0.17891 0.66793 0.28825 0.0
C1343 C 0.2001 0.66869 0.29946 0.0
C1344 C 0.17173 0.68693 0.29208 0.0
C1345 C 0.18645 0.70752 0.30719 0.0
C1346 C 0.20781 0.70844 0.31857 0.0
C1347 C 0.21417 0.68887 0.31472 0.0
C1348 C 0.14861 0.68515 0.27981 0.0
C1349 C 0.22422 0.73033 0.33463 0.0
C1350 C 0.18748 0.77165 0.30444 0.0
C1351 C 0.17178 0.77086 0.31932 0.0
C1352 C 0.1921 0.75099 0.30015 0.0
C1353 C 0.18021 0.72872 0.31068 0.0
C1354 C 0.16347 0.72733 0.32516 0.0
C1355 C 0.15972 0.74862 0.3295 0.0
C1356 C 0.21057 0.75349 0.28492 0.0
C1357 C 0.15002 0.70365 0.33638 0.0
H1358 H 0.16812 0.65272 0.27622 0.0
H1359 H 0.2302 0.6894 0.32376 0.0
H1360 H 0.13451 0.68582 0.28954 0.0
H1361 H 0.15541 0.70213 0.27105 0.0
H1362 H 0.13813 0.66697 0.26954 0.0
H1363 H 0.24024 0.72823 0.3421 0.0
H1364 H 0.23309 0.74936 0.3283 0.0
H1365 H 0.21166 0.73092 0.34586 0.0
H1366 H 0.19713 0.78895 0.29668 0.0
H1367 H 0.14751 0.74794 0.34097 0.0
H1368 H 0.20075 0.73659 0.27346 0.0
H1369 H 0.22792 0.75337 0.29205 0.0
H1370 H 0.21754 0.77174 0.27761 0.0
H1371 H 0.13923 0.68568 0.32595 0.0
H1372 H 0.13601 0.70477 0.34601 0.0
H1373 H 0.16492 0.70173 0.34571 0.0
C1374 C 0.85689 0.99101 0.39502 0.0
C1375 C 0.86354 0.0167 0.39188 0.0
C1376 C 0.83123 0.97005 0.39019 0.0
C1377 C 0.81133 0.97486 0.3826 0.0
C1378 C 0.81743 0.00085 0.38054 0.0
C1379 C 0.8435 0.02143 0.38497 0.0
C1380 C 0.82569 0.94262 0.39242 0.0
C1381 C 0.79661 0.00685 0.373 0.0
C1382 C 0.75517 0.91876 0.34948 0.0
C1383 C 0.73655 0.90643 0.36279 0.0
C1384 C 0.77931 0.9414 0.35565 0.0
C1385 C 0.78474 0.95241 0.37553 0.0
C1386 C 0.76548 0.94076 0.38882 0.0
C1387 C 0.74176 0.91767 0.38237 0.0
C1388 C 0.79949 0.95282 0.3411 0.0
C1389 C 0.77021 0.9523 0.40997 0.0
H1390 H 0.87193 0.98712 0.40092 0.0
H1391 H 0.84827 0.04108 0.38235 0.0
H1392 H 0.80953 0.93277 0.40186 0.0
H1393 H 0.8192 0.93104 0.37776 0.0
H1394 H 0.84319 0.94224 0.39898 0.0
H1395 H 0.80369 0.02813 0.37465 0.0
H1396 H 0.79053 0.99958 0.35716 0.0
H1397 H 0.77891 0.9967 0.38099 0.0
H1398 H 0.75137 0.91005 0.33437 0.0
H1399 H 0.72735 0.90832 0.39269 0.0
H1400 H 0.81712 0.95169 0.34611 0.0
H1401 H 0.80589 0.97374 0.34033 0.0
H1402 H 0.79189 0.94245 0.32603 0.0
H1403 H 0.78584 0.95017 0.418 0.0
H1404 H 0.75224 0.94266 0.41778 0.0
H1405 H 0.7771 0.9735 0.41059 0.0
C1406 C 0.98941 0.80977 0.3824 0.0
C1407 C 0.99644 0.83324 0.39377 0.0
C1408 C 0.00871 0.80523 0.3748 0.0
C1409 C 0.03562 0.8248 0.3783 0.0
C1410 C 0.04282 0.84802 0.3904 0.0
C1411 C 0.0233 0.85168 0.39823 0.0
C1412 C 1.00025 0.77983 0.36254 0.0
C1413 C 0.07118 0.86957 0.39448 0.0
C1414 C 0.09364 0.81437 0.37243 0.0
C1415 C 0.10134 0.82393 0.35419 0.0
C1416 C 0.07116 0.81273 0.3798 0.0
C1417 C 0.05644 0.82171 0.36901 0.0
C1418 C 0.06363 0.83055 0.35026 0.0
C1419 C 0.08577 0.8312 0.34296 0.0
C1420 C 0.06387 0.80245 0.39955 0.0
C1421 C 0.04896 0.84092 0.33846 0.0
H1422 H 0.96882 0.79536 0.3788 0.0
H1423 H 0.02912 0.86955 0.40749 0.0
H1424 H 0.00381 0.78353 0.34697 0.0
H1425 H 0.01202 0.77106 0.36779 0.0
H1426 H 0.97909 0.7655 0.36301 0.0
H1427 H 0.07349 0.88656 0.40402 0.0
H1428 H 0.08308 0.86212 0.4018 0.0
H1429 H 0.07938 0.87642 0.38038 0.0
H1430 H 0.10552 0.80855 0.38113 0.0
H1431 H 0.09176 0.83884 0.32895 0.0
H1432 H 0.04245 0.7885 0.39883 0.0
H1433 H 0.06857 0.81884 0.41078 0.0
H1434 H 0.07463 0.79253 0.40456 0.0
H1435 H 0.02759 0.82664 0.33671 0.0
H1436 H 0.05576 0.84532 0.3236 0.0
H1437 H 0.0518 0.8591 0.34649 0.0
C1438 C 0.17246 0.16349 0.37771 0.0
C1439 C 0.14802 0.14772 0.38468 0.0
C1440 C 0.17981 0.18866 0.37262 0.0
C1441 C 0.16212 0.19812 0.37421 0.0
C1442 C 0.13759 0.18248 0.38146 0.0
C1443 C 0.13097 0.15762 0.38679 0.0
C1444 C 0.2063 0.20496 0.36524 0.0
C1445 C 0.11811 0.19183 0.38328 0.0
C1446 C 0.18365 0.27008 0.3764 0.0
C1447 C 0.17586 0.27217 0.35708 0.0
C1448 C 0.18053 0.24637 0.38195 0.0
C1449 C 0.16887 0.22413 0.36793 0.0
C1450 C 0.16191 0.22636 0.34821 0.0
C1451 C 0.16571 0.25045 0.34297 0.0
C1452 C 0.1887 0.24489 0.40301 0.0
C1453 C 0.14908 0.20298 0.33291 0.0
H1454 H 0.18565 0.15596 0.37575 0.0
H1455 H 0.11229 0.14584 0.39253 0.0
H1456 H 0.20366 0.20845 0.34969 0.0
H1457 H 0.21721 0.22433 0.37401 0.0
H1458 H 0.21842 0.19544 0.36604 0.0
H1459 H 0.09982 0.17722 0.3891 0.0
H1460 H 0.12704 0.21024 0.39322 0.0
H1461 H 0.11281 0.19611 0.36863 0.0
H1462 H 0.19166 0.28686 0.38734 0.0
H1463 H 0.15944 0.25188 0.32807 0.0
H1464 H 0.20088 0.23543 0.4034 0.0
H1465 H 0.17101 0.23273 0.41052 0.0
H1466 H 0.19999 0.26448 0.41149 0.0
H1467 H 0.16098 0.19326 0.3323 0.0
H1468 H 0.14646 0.20835 0.31796 0.0
H1469 H 0.12952 0.18852 0.33707 0.0
C1470 C 0.65284 0.5242 0.71508 0.0
C1471 C 0.65511 0.52016 0.73496 0.0
C1472 C 0.67387 0.54438 0.70685 0.0
C1473 C 0.69795 0.56054 0.71868 0.0
C1474 C 0.70025 0.55668 0.73884 0.0
C1475 C 0.67869 0.53668 0.74679 0.0
C1476 C 0.67041 0.54822 0.68543 0.0
C1477 C 0.72573 0.57317 0.75187 0.0
C1478 C 0.75972 0.59451 0.69229 0.0
C1479 C 0.76471 0.62027 0.69359 0.0
C1480 C 0.73824 0.57494 0.70059 0.0
C1481 C 0.72087 0.58114 0.70984 0.0
C1482 C 0.7255 0.60704 0.71073 0.0
C1483 C 0.74764 0.62639 0.70288 0.0
C1484 C 0.73454 0.54781 0.69988 0.0
C1485 C 0.70717 0.61433 0.72007 0.0
H1486 H 0.63455 0.51149 0.70596 0.0
H1487 H 0.68053 0.53336 0.76211 0.0
H1488 H 0.67542 0.5687 0.68403 0.0
H1489 H 0.68403 0.54464 0.67702 0.0
H1490 H 0.65003 0.53494 0.67855 0.0
H1491 H 0.72419 0.56791 0.76729 0.0
H1492 H 0.74152 0.57073 0.74584 0.0
H1493 H 0.73181 0.59414 0.75207 0.0
H1494 H 0.77323 0.58986 0.68546 0.0
H1495 H 0.75157 0.64636 0.70396 0.0
H1496 H 0.71521 0.5335 0.69184 0.0
H1497 H 0.73463 0.54211 0.71508 0.0
H1498 H 0.75016 0.54636 0.69256 0.0
H1499 H 0.68679 0.60158 0.71304 0.0
H1500 H 0.71285 0.63502 0.71875 0.0
H1501 H 0.70707 0.61121 0.73594 0.0
C1502 C 0.50722 0.1553 0.73288 0.0
C1503 C 0.50253 0.12989 0.73452 0.0
C1504 C 0.48734 0.15972 0.72498 0.0
C1505 C 0.46218 0.1382 0.71825 0.0
C1506 C 0.45755 0.11247 0.71939 0.0
C1507 C 0.47767 0.10864 0.72768 0.0
C1508 C 0.49305 0.18745 0.72437 0.0
C1509 C 0.4312 0.08898 0.7121 0.0
C1510 C 0.40318 0.14843 0.71663 0.0
C1511 C 0.39992 0.15204 0.69672 0.0
C1512 C 0.42335 0.14401 0.7238 0.0
C1513 C 0.44049 0.14264 0.71071 0.0
C1514 C 0.43706 0.14586 0.69053 0.0
C1515 C 0.41702 0.15079 0.68383 0.0
C1516 C 0.42656 0.14118 0.74548 0.0
C1517 C 0.45457 0.14411 0.67601 0.0
H1518 H 0.52627 0.17181 0.7384 0.0
H1519 H 0.47398 0.08896 0.72883 0.0
H1520 H 0.48891 0.19084 0.70909 0.0
H1521 H 0.47997 0.19081 0.73363 0.0
H1522 H 0.51376 0.20203 0.72974 0.0
H1523 H 0.43121 0.07034 0.71296 0.0
H1524 H 0.41591 0.08859 0.72101 0.0
H1525 H 0.42555 0.09026 0.69658 0.0
H1526 H 0.39026 0.1496 0.72676 0.0
H1527 H 0.4146 0.15343 0.66842 0.0
H1528 H 0.44649 0.15635 0.75208 0.0
H1529 H 0.42468 0.12191 0.74743 0.0
H1530 H 0.41181 0.14301 0.75376 0.0
H1531 H 0.47524 0.1596 0.68036 0.0
H1532 H 0.44882 0.14619 0.66071 0.0
H1533 H 0.45383 0.12506 0.67619 0.0
C1534 C 0.88887 0.37318 0.7207 0.0
C1535 C 0.86586 0.3722 0.72606 0.0
C1536 C 0.88827 0.35075 0.71221 0.0
C1537 C 0.86418 0.32679 0.70941 0.0
C1538 C 0.84087 0.32578 0.71468 0.0
C1539 C 0.84197 0.34858 0.72282 0.0
C1540 C 0.91342 0.35261 0.70646 0.0
C1541 C 0.81487 0.3005 0.71217 0.0
C1542 C 0.8544 0.27019 0.67412 0.0
C1543 C 0.85788 0.25442 0.68709 0.0
C1544 C 0.85733 0.2943 0.68109 0.0
C1545 C 0.86335 0.30251 0.70155 0.0
C1546 C 0.86731 0.28686 0.71467 0.0
C1547 C 0.86475 0.26309 0.70725 0.0
C1548 C 0.85342 0.31071 0.66664 0.0
C1549 C 0.87334 0.29479 0.73663 0.0
H1550 H 0.90731 0.39153 0.72312 0.0
H1551 H 0.82425 0.3478 0.72721 0.0
H1552 H 0.91836 0.34028 0.71536 0.0
H1553 H 0.91086 0.34508 0.69074 0.0
H1554 H 0.93023 0.37297 0.70867 0.0
H1555 H 0.79852 0.30314 0.71679 0.0
H1556 H 0.81002 0.29209 0.69653 0.0
H1557 H 0.81622 0.28604 0.72107 0.0
H1558 H 0.84926 0.26362 0.6585 0.0
H1559 H 0.86724 0.25087 0.71737 0.0
H1560 H 0.87054 0.33086 0.66848 0.0
H1561 H 0.83587 0.31213 0.66961 0.0
H1562 H 0.85073 0.30245 0.65108 0.0
H1563 H 0.89112 0.31441 0.7397 0.0
H1564 H 0.87657 0.28075 0.74475 0.0
H1565 H 0.85684 0.29608 0.74249 0.0
C1566 C 0.16978 0.98747 0.62425 0.0
C1567 C 0.17364 0.96603 0.62175 0.0
C1568 C 0.19036 0.01213 0.63224 0.0
C1569 C 0.21532 0.01535 0.63815 0.0
C1570 C 0.21907 0.99354 0.63626 0.0
C1571 C 0.19825 0.96919 0.62791 0.0
C1572 C 0.18563 0.03494 0.63371 0.0
C1573 C 0.24524 0.99604 0.64269 0.0
C1574 C 0.27531 0.08305 0.63903 0.0
C1575 C 0.27964 0.09239 0.65905 0.0
C1576 C 0.25444 0.05806 0.63206 0.0
C1577 C 0.23776 0.04176 0.64547 0.0
C1578 C 0.24229 0.0509 0.66576 0.0
C1579 C 0.26301 0.07621 0.67227 0.0
C1580 C 0.25002 0.04927 0.61027 0.0
C1581 C 0.22523 0.03396 0.68056 0.0
H1582 H 0.15088 0.98518 0.61924 0.0
H1583 H 0.20124 0.9526 0.62605 0.0
H1584 H 0.19082 0.04437 0.64908 0.0
H1585 H 0.19845 0.04985 0.62425 0.0
H1586 H 0.16488 0.02902 0.62909 0.0
H1587 H 0.24444 0.97689 0.64148 0.0
H1588 H 0.26029 0.00919 0.63344 0.0
H1589 H 0.25181 0.00493 0.65819 0.0
H1590 H 0.28792 0.09552 0.62869 0.0
H1591 H 0.26632 0.08323 0.68777 0.0
H1592 H 0.23004 0.0445 0.60431 0.0
H1593 H 0.25118 0.03123 0.60783 0.0
H1594 H 0.2646 0.06438 0.60176 0.0
H1595 H 0.20463 0.02912 0.67691 0.0
H1596 H 0.2319 0.04359 0.6959 0.0
H1597 H 0.22529 0.01525 0.6799 0.0
C1598 C 0.00905 0.20407 0.60046 0.0
C1599 C 0.03279 0.21395 0.61248 0.0
C1600 C 0.98618 0.20077 0.60835 0.0
C1601 C 0.98718 0.20807 0.62868 0.0
C1602 C 0.01134 0.21875 0.64075 0.0
C1603 C 0.03373 0.22126 0.63256 0.0
C1604 C 0.96079 0.18884 0.59502 0.0
C1605 C 0.01349 0.22734 0.66236 0.0
C1606 C 0.93251 0.2196 0.64462 0.0
C1607 C 0.9165 0.19664 0.65318 0.0
C1608 C 0.95582 0.22382 0.63701 0.0
C1609 C 0.96293 0.20425 0.63738 0.0
C1610 C 0.94669 0.18093 0.64591 0.0
C1611 C 0.92391 0.17758 0.65395 0.0
C1612 C 0.97277 0.24919 0.62848 0.0
C1613 C 0.95305 0.15923 0.64613 0.0
H1614 H 0.00816 0.19807 0.585 0.0
H1615 H 0.05206 0.22894 0.64188 0.0
H1616 H 0.94586 0.17062 0.60062 0.0
H1617 H 0.95294 0.20239 0.59503 0.0
H1618 H 0.96325 0.18417 0.57957 0.0
H1619 H 0.03393 0.23644 0.6695 0.0
H1620 H 0.00659 0.2416 0.66419 0.0
H1621 H 1.00067 0.21032 0.67021 0.0
H1622 H 0.92685 0.23438 0.64397 0.0
H1623 H 0.91136 0.15958 0.66022 0.0
H1624 H 0.97384 0.2453 0.61257 0.0
H1625 H 0.99311 0.25883 0.63587 0.0
H1626 H 0.96517 0.26291 0.63013 0.0
H1627 H 0.95427 0.15276 0.63084 0.0
H1628 H 0.93811 0.14207 0.65286 0.0
H1629 H 0.9725 0.16642 0.65449 0.0
C1630 C 0.81428 0.82001 0.61355 0.0
C1631 C 0.80801 0.83634 0.62466 0.0
C1632 C 0.81607 0.79988 0.62197 0.0
C1633 C 0.81083 0.79572 0.64183 0.0
C1634 C 0.80362 0.81168 0.6529 0.0
C1635 C 0.80266 0.83212 0.64424 0.0
C1636 C 0.82435 0.78361 0.60982 0.0
C1637 C 0.79727 0.80738 0.67394 0.0
C1638 C 0.79694 0.72959 0.65627 0.0
C1639 C 0.82125 0.7358 0.66597 0.0
C1640 C 0.79287 0.74912 0.64908 0.0
C1641 C 0.8139 0.77526 0.65113 0.0
C1642 C 0.83838 0.78165 0.66118 0.0
C1643 C 0.84165 0.76184 0.66872 0.0
C1644 C 0.7663 0.74171 0.63891 0.0
C1645 C 0.86146 0.80919 0.66323 0.0
H1646 H 0.81864 0.82357 0.59845 0.0
H1647 H 0.79775 0.84483 0.65273 0.0
H1648 H 0.84282 0.78577 0.617 0.0
H1649 H 0.80919 0.76264 0.60899 0.0
H1650 H 0.82758 0.78931 0.59457 0.0
H1651 H 0.79022 0.82031 0.68002 0.0
H1652 H 0.78198 0.78676 0.67481 0.0
H1653 H 0.81499 0.81114 0.6834 0.0
H1654 H 0.78113 0.70943 0.65424 0.0
H1655 H 0.86056 0.76659 0.67601 0.0
H1656 H 0.76789 0.74466 0.62304 0.0
H1657 H 0.75926 0.75445 0.64532 0.0
H1658 H 0.75141 0.72101 0.64015 0.0
H1659 H 0.86684 0.8155 0.64839 0.0
H1660 H 0.87897 0.81099 0.67185 0.0
H1661 H 0.85612 0.82283 0.67056 0.0
C1662 C 0.02007 0.82424 0.63109 0.0
C1663 C 0.02172 0.84855 0.6348 0.0
C1664 C 1.00128 0.8021 0.63936 0.0
C1665 C 0.98367 0.80433 0.6515 0.0
C1666 C 0.98659 0.82922 0.65642 0.0
C1667 C 0.00564 0.85098 0.64813 0.0
C1668 C 0.99911 0.77602 0.63399 0.0
C1669 C 0.96827 0.83259 0.66923 0.0
C1670 C 0.91365 0.74789 0.64844 0.0
C1671 C 0.91285 0.73768 0.66662 0.0
C1672 C 0.93667 0.76911 0.64329 0.0
C1673 C 0.95983 0.78049 0.65653 0.0
C1674 C 0.95949 0.76998 0.67473 0.0
C1675 C 0.93592 0.74878 0.67964 0.0
C1676 C 0.93593 0.77979 0.62383 0.0
C1677 C 0.98388 0.78136 0.6891 0.0
H1678 H 0.0324 0.82215 0.62084 0.0
H1679 H 0.00723 0.86984 0.65147 0.0
H1680 H 0.99637 0.76517 0.64717 0.0
H1681 H 0.98165 0.76404 0.62316 0.0
H1682 H 0.01673 0.77816 0.62735 0.0
H1683 H 0.97501 0.85349 0.67354 0.0
H1684 H 0.94839 0.82346 0.66108 0.0
H1685 H 0.96641 0.82265 0.68281 0.0
H1686 H 0.89601 0.73964 0.63821 0.0
H1687 H 0.93557 0.74098 0.69366 0.0
H1688 H 0.95114 0.77991 0.61498 0.0
H1689 H 0.94037 0.80029 0.62651 0.0
H1690 H 0.91651 0.76826 0.61497 0.0
H1691 H 1.00046 0.78236 0.68157 0.0
H1692 H 0.98097 0.76977 0.70189 0.0
H1693 H 0.98964 0.80162 0.69468 0.0
C1694 C 0.17868 0.20113 0.63364 0.0
C1695 C 0.15818 0.17651 0.62551 0.0
C1696 C 0.20399 0.20519 0.63916 0.0
C1697 C 0.20879 0.18404 0.63683 0.0
C1698 C 0.18852 0.15956 0.62776 0.0
C1699 C 0.16375 0.15627 0.62193 0.0
C1700 C 0.2253 0.23183 0.64818 0.0
C1701 C 0.19254 0.13636 0.62507 0.0
C1702 C 0.27644 0.19027 0.63948 0.0
C1703 C 0.27932 0.18441 0.65879 0.0
C1704 C 0.25438 0.19187 0.6325 0.0
C1705 C 0.23426 0.18669 0.6449 0.0
C1706 C 0.23741 0.1814 0.66458 0.0
C1707 C 0.26003 0.18068 0.67134 0.0
C1708 C 0.25223 0.1983 0.61163 0.0
C1709 C 0.21624 0.17513 0.67819 0.0
H1710 H 0.1747 0.21694 0.63647 0.0
H1711 H 0.14834 0.13737 0.61512 0.0
H1712 H 0.2295 0.23118 0.66414 0.0
H1713 H 0.24375 0.23774 0.64127 0.0
H1714 H 0.21962 0.24695 0.64653 0.0
H1715 H 0.17494 0.11878 0.6174 0.0
H1716 H 0.20943 0.14109 0.61645 0.0
H1717 H 0.1972 0.13151 0.63968 0.0
H1718 H 0.29137 0.19342 0.62973 0.0
H1719 H 0.26203 0.17598 0.68624 0.0
H1720 H 0.24646 0.21347 0.61131 0.0
H1721 H 0.23673 0.18065 0.60242 0.0
H1722 H 0.27097 0.20533 0.60486 0.0
H1723 H 0.21121 0.19083 0.67914 0.0
H1724 H 0.22219 0.17268 0.69331 0.0
H1725 H 0.19815 0.1568 0.67215 0.0
C1726 C 0.83674 0.9999 0.62393 0.0
C1727 C 0.85562 0.99889 0.63683 0.0
C1728 C 0.83065 0.01982 0.6268 0.0
C1729 C 0.84412 0.03951 0.64271 0.0
C1730 C 0.86304 0.03856 0.65585 0.0
C1731 C 0.86835 0.01812 0.65288 0.0
C1732 C 0.81011 0.02006 0.61262 0.0
C1733 C 0.87807 0.05942 0.67286 0.0
C1734 C 0.85067 0.10591 0.63884 0.0
C1735 C 0.83306 0.10559 0.65188 0.0
C1736 C 0.85423 0.0844 0.63555 0.0
C1737 C 0.83932 0.06178 0.64518 0.0
C1738 C 0.82079 0.06098 0.6578 0.0
C1739 C 0.81813 0.08309 0.66122 0.0
C1740 C 0.87467 0.08629 0.62239 0.0
C1741 C 0.80419 0.037 0.668 0.0
H1742 H 0.82704 0.98539 0.61132 0.0
H1743 H 0.88254 0.01725 0.66318 0.0
H1744 H 0.79513 0.02145 0.62086 0.0
H1745 H 0.8194 0.03749 0.60433 0.0
H1746 H 0.80009 0.00233 0.60187 0.0
H1747 H 0.89206 0.05574 0.6818 0.0
H1748 H 0.88925 0.07876 0.66718 0.0
H1749 H 0.86424 0.06054 0.68264 0.0
H1750 H 0.86255 0.12343 0.6318 0.0
H1751 H 0.80448 0.08283 0.67128 0.0
H1752 H 0.86564 0.07001 0.6104 0.0
H1753 H 0.89013 0.08449 0.63107 0.0
H1754 H 0.88417 0.10506 0.61566 0.0
H1755 H 0.7939 0.01952 0.65705 0.0
H1756 H 0.78936 0.03883 0.67616 0.0
H1757 H 0.81694 0.03359 0.67858 0.0
C1758 C 0.51205 0.36119 0.71661 0.0
C1759 C 0.5329 0.35653 0.72078 0.0
C1760 C 0.48592 0.34045 0.71336 0.0
C1761 C 0.48054 0.31442 0.71388 0.0
C1762 C 0.50135 0.30968 0.71883 0.0
C1763 C 0.52713 0.33076 0.72248 0.0
C1764 C 0.46419 0.34634 0.7086 0.0
C1765 C 0.49656 0.28223 0.7194 0.0
C1766 C 0.4123 0.25603 0.71598 0.0
C1767 C 0.40526 0.24568 0.69612 0.0
C1768 C 0.43617 0.27921 0.7219 0.0
C1769 C 0.45366 0.29195 0.70769 0.0
C1770 C 0.44631 0.28194 0.68757 0.0
C1771 C 0.42211 0.25911 0.68201 0.0
C1772 C 0.44299 0.28962 0.74343 0.0
C1773 C 0.46456 0.2946 0.67198 0.0
H1774 H 0.51618 0.38094 0.71517 0.0
H1775 H 0.54293 0.32693 0.72627 0.0
H1776 H 0.45642 0.33989 0.69285 0.0
H1777 H 0.44767 0.33541 0.71754 0.0
H1778 H 0.47106 0.36751 0.71133 0.0
H1779 H 0.51473 0.28191 0.72419 0.0
H1780 H 0.48163 0.27159 0.72958 0.0
H1781 H 0.48873 0.27139 0.70451 0.0
H1782 H 0.39929 0.24584 0.72696 0.0
H1783 H 0.41692 0.25119 0.66665 0.0
H1784 H 0.44958 0.31077 0.7451 0.0
H1785 H 0.45949 0.2874 0.74968 0.0
H1786 H 0.42611 0.27924 0.7522 0.0
H1787 H 0.47046 0.31554 0.67236 0.0
H1788 H 0.45548 0.28502 0.65689 0.0
H1789 H 0.48273 0.29362 0.67503 0.0
C1790 C 0.65767 0.14075 0.72229 0.0
C1791 C 0.65526 0.16297 0.72074 0.0
C1792 C 0.67724 0.13817 0.71318 0.0
C1793 C 0.69484 0.15831 0.70233 0.0
C1794 C 0.6912 0.17983 0.69959 0.0
C1795 C 0.67144 0.1818 0.7087 0.0
C1796 C 0.68013 0.11471 0.71625 0.0
C1797 C 0.7094 0.20181 0.68822 0.0
C1798 C 0.76562 0.17349 0.70324 0.0
C1799 C 0.76668 0.16425 0.68408 0.0
C1800 C 0.7423 0.17109 0.70938 0.0
C1801 C 0.71907 0.15888 0.69615 0.0
C1802 C 0.71973 0.14893 0.67691 0.0
C1803 C 0.74355 0.15188 0.67105 0.0
C1804 C 0.74276 0.18231 0.72995 0.0
C1805 C 0.69536 0.13551 0.66245 0.0
H1806 H 0.64529 0.12611 0.73155 0.0
H1807 H 0.66938 0.19879 0.70707 0.0
H1808 H 0.6832 0.10674 0.70218 0.0
H1809 H 0.69765 0.12064 0.72681 0.0
H1810 H 0.66268 0.099 0.72221 0.0
H1811 H 0.7023 0.21569 0.68564 0.0
H1812 H 0.72918 0.21277 0.69658 0.0
H1813 H 0.71163 0.194 0.67376 0.0
H1814 H 0.78326 0.18314 0.71351 0.0
H1815 H 0.74405 0.14453 0.65626 0.0
H1816 H 0.72769 0.16702 0.738 0.0
H1817 H 0.7379 0.19808 0.7291 0.0
H1818 H 0.7622 0.19046 0.73865 0.0
H1819 H 0.679 0.11965 0.66922 0.0
H1820 H 0.69855 0.1271 0.64863 0.0
H1821 H 0.68908 0.14965 0.65864 0.0
C1822 C 0.84578 0.51125 0.72376 0.0
C1823 C 0.82478 0.48849 0.71352 0.0
C1824 C 0.85189 0.53604 0.7185 0.0
C1825 C 0.83641 0.53812 0.70281 0.0
C1826 C 0.81581 0.51525 0.69197 0.0
C1827 C 0.8104 0.49073 0.69735 0.0
C1828 C 0.87416 0.56002 0.7303 0.0
C1829 C 0.79868 0.51664 0.67527 0.0
C1830 C 0.82902 0.59798 0.70595 0.0
C1831 C 0.84499 0.61255 0.69178 0.0
C1832 C 0.82607 0.57375 0.70959 0.0
C1833 C 0.8399 0.56403 0.6991 0.0
C1834 C 0.85638 0.57877 0.68494 0.0
C1835 C 0.85849 0.60281 0.68125 0.0
C1836 C 0.80773 0.55837 0.72442 0.0
C1837 C 0.87164 0.5691 0.67368 0.0
H1838 H 0.8569 0.50978 0.73636 0.0
H1839 H 0.79457 0.47326 0.68903 0.0
H1840 H 0.88712 0.57393 0.72031 0.0
H1841 H 0.86611 0.57015 0.73919 0.0
H1842 H 0.88619 0.55515 0.74044 0.0
H1843 H 0.78474 0.49712 0.6674 0.0
H1844 H 0.78721 0.52525 0.68116 0.0
H1845 H 0.81095 0.52954 0.66449 0.0
H1846 H 0.81815 0.60519 0.71391 0.0
H1847 H 0.87081 0.61404 0.67028 0.0
H1848 H 0.81864 0.55452 0.73632 0.0
H1849 H 0.79205 0.53916 0.71715 0.0
H1850 H 0.7983 0.56869 0.7312 0.0
H1851 H 0.88422 0.5653 0.68413 0.0
H1852 H 0.88427 0.58329 0.66367 0.0
H1853 H 0.85792 0.55034 0.66477 0.0
C1854 C 0.43502 0.93366 0.22783 0.0
C1855 C 0.43258 0.90896 0.22886 0.0
C1856 C 0.4436 0.94734 0.21112 0.0
C1857 C 0.45006 0.93619 0.195 0.0
C1858 C 0.44776 0.91136 0.19597 0.0
C1859 C 0.43895 0.89804 0.21277 0.0
C1860 C 0.44569 0.97372 0.21067 0.0
C1861 C 0.45447 0.89874 0.17918 0.0
C1862 C 0.45019 0.95919 0.14389 0.0
C1863 C 0.47707 0.97622 0.14275 0.0
C1864 C 0.4411 0.94634 0.16087 0.0
C1865 C 0.45931 0.95044 0.17713 0.0
C1866 C 0.48645 0.96765 0.17609 0.0
C1867 C 0.49497 0.98034 0.15898 0.0
C1868 C 0.412 0.92829 0.16137 0.0
C1869 C 0.50656 0.97239 0.19297 0.0
H1870 H 0.43039 0.94242 0.24019 0.0
H1871 H 0.4366 0.87876 0.2131 0.0
H1872 H 0.46622 0.98878 0.20899 0.0
H1873 H 0.43317 0.97344 0.19775 0.0
H1874 H 0.43965 0.97958 0.22426 0.0
H1875 H 0.45212 0.87957 0.18236 0.0
H1876 H 0.44166 0.89577 0.16555 0.0
H1877 H 0.47505 0.91175 0.17612 0.0
H1878 H 0.43617 0.95611 0.13155 0.0
H1879 H 0.51579 0.99317 0.15817 0.0
H1880 H 0.40514 0.93475 0.17417 0.0
H1881 H 0.40796 0.90823 0.16332 0.0
H1882 H 0.40035 0.92758 0.1477 0.0
H1883 H 0.50205 0.97968 0.20668 0.0
H1884 H 0.52686 0.98675 0.19004 0.0
H1885 H 0.50575 0.95376 0.19572 0.0
C1886 C 0.12846 0.55394 0.22147 0.0
C1887 C 0.11929 0.53925 0.23755 0.0
C1888 C 0.11208 0.54825 0.20395 0.0
C1889 C 0.08594 0.52713 0.20233 0.0
C1890 C 0.07638 0.51243 0.21857 0.0
C1891 C 0.09314 0.51872 0.23601 0.0
C1892 C 0.12299 0.56445 0.18698 0.0
C1893 C 0.04863 0.48972 0.21736 0.0
C1894 C 0.0386 0.52504 0.16095 0.0
C1895 C 0.03978 0.50829 0.14621 0.0
C1896 C 0.05317 0.53103 0.17945 0.0
C1897 C 0.06909 0.51981 0.18331 0.0
C1898 C 0.06984 0.50239 0.16863 0.0
C1899 C 0.05525 0.49693 0.15024 0.0
C1900 C 0.05206 0.54987 0.19467 0.0
C1901 C 0.08636 0.48982 0.17224 0.0
H1902 H 0.14873 0.56953 0.22234 0.0
H1903 H 0.08579 0.50748 0.24844 0.0
H1904 H 0.12334 0.55205 0.17433 0.0
H1905 H 0.11018 0.57218 0.18193 0.0
H1906 H 0.14323 0.58113 0.19101 0.0
H1907 H 0.04393 0.48084 0.23152 0.0
H1908 H 0.03444 0.49618 0.21321 0.0
H1909 H 0.04578 0.47447 0.20568 0.0
H1910 H 0.0268 0.53401 0.15782 0.0
H1911 H 0.0559 0.48366 0.13897 0.0
H1912 H 0.07178 0.56754 0.19792 0.0
H1913 H 0.04649 0.54086 0.20868 0.0
H1914 H 0.03782 0.55598 0.1897 0.0
H1915 H 0.10742 0.50509 0.1749 0.0
H1916 H 0.08388 0.47584 0.1596 0.0
H1917 H 0.0811 0.47928 0.18564 0.0
C1918 C 0.48557 0.55186 0.23029 0.0
C1919 C 0.46493 0.55714 0.23112 0.0
C1920 C 0.49156 0.54462 0.21221 0.0
C1921 C 0.47676 0.5429 0.19448 0.0
C1922 C 0.45522 0.54716 0.19532 0.0
C1923 C 0.44948 0.55411 0.21364 0.0
C1924 C 0.51442 0.53984 0.21204 0.0
C1925 C 0.43906 0.54572 0.17677 0.0
C1926 C 0.5123 0.55561 0.14809 0.0
C1927 C 0.50215 0.53028 0.13882 0.0
C1928 C 0.50386 0.55996 0.16601 0.0
C1929 C 0.485 0.53844 0.17504 0.0
C1930 C 0.47458 0.51282 0.1657 0.0
C1931 C 0.48316 0.50906 0.14765 0.0
C1932 C 0.51523 0.58763 0.17532 0.0
C1933 C 0.45469 0.48935 0.17494 0.0
H1934 H 0.49746 0.55404 0.24379 0.0
H1935 H 0.43373 0.55849 0.21417 0.0
H1936 H 0.50835 0.52092 0.20344 0.0
H1937 H 0.53036 0.55537 0.20471 0.0
H1938 H 0.52244 0.53968 0.22714 0.0
H1939 H 0.42173 0.54747 0.18001 0.0
H1940 H 0.45142 0.56172 0.16789 0.0
H1941 H 0.43216 0.52702 0.16757 0.0
H1942 H 0.52672 0.57211 0.14122 0.0
H1943 H 0.47542 0.48942 0.14064 0.0
H1944 H 0.52584 0.59006 0.18997 0.0
H1945 H 0.49921 0.59185 0.17773 0.0
H1946 H 0.52906 0.60225 0.16611 0.0
H1947 H 0.46333 0.4883 0.18951 0.0
H1948 H 0.44805 0.47077 0.16559 0.0
H1949 H 0.4373 0.49125 0.17753 0.0
C1950 C 0.91547 0.469 0.78683 0.0
C1951 C 0.90039 0.44186 0.78228 0.0
C1952 C 0.93104 0.47986 0.805 0.0
C1953 C 0.93119 0.46311 0.81893 0.0
C1954 C 0.91566 0.43571 0.81447 0.0
C1955 C 0.90051 0.42545 0.79621 0.0
C1956 C 0.94751 0.50916 0.80921 0.0
C1957 C 0.91504 0.41716 0.82899 0.0
C1958 C 0.98706 0.48358 0.85901 0.0
C1959 C 0.97617 0.48716 0.87582 0.0
C1960 C 0.97318 0.47712 0.84021 0.0
C1961 C 0.94769 0.47392 0.83817 0.0
C1962 C 0.93701 0.47853 0.85494 0.0
C1963 C 0.95142 0.48519 0.87354 0.0
C1964 C 0.98529 0.47248 0.82266 0.0
C1965 C 0.90986 0.47525 0.85337 0.0
H1966 H 0.91543 0.48171 0.77604 0.0
H1967 H 0.88846 0.40445 0.79289 0.0
H1968 H 0.94233 0.51572 0.82292 0.0
H1969 H 0.96858 0.51505 0.81168 0.0
H1970 H 0.9449 0.51947 0.79696 0.0
H1971 H 0.9016 0.39637 0.82334 0.0
H1972 H 0.93505 0.42017 0.83236 0.0
H1973 H 0.90862 0.42119 0.84307 0.0
H1974 H 0.00604 0.48479 0.86061 0.0
H1975 H 0.94309 0.48845 0.88639 0.0
H1976 H 0.98381 0.48333 0.8104 0.0
H1977 H 0.97438 0.45142 0.81724 0.0
H1978 H 0.00627 0.47852 0.82635 0.0
H1979 H 0.90783 0.48648 0.84163 0.0
H1980 H 0.90534 0.48175 0.86746 0.0
H1981 H 0.89501 0.45439 0.84921 0.0
C1982 C 0.56502 0.46806 0.78809 0.0
C1983 C 0.59208 0.48313 0.78648 0.0
C1984 C 0.55418 0.471 0.80515 0.0
C1985 C 0.57071 0.48966 0.82097 0.0
C1986 C 0.59799 0.50511 0.81942 0.0
C1987 C 0.60835 0.50159 0.80225 0.0
C1988 C 0.52501 0.45408 0.80624 0.0
C1989 C 0.61624 0.52531 0.83593 0.0
C1990 C 0.53853 0.51281 0.85753 0.0
C1991 C 0.53669 0.498 0.87331 0.0
C1992 C 0.54986 0.51055 0.84054 0.0
C1993 C 0.55941 0.49289 0.83917 0.0
C1994 C 0.55772 0.47796 0.85504 0.0
C1995 C 0.5465 0.48077 0.87193 0.0
C1996 C 0.55141 0.52692 0.82397 0.0
C1997 C 0.56762 0.45886 0.85414 0.0
H1998 H 0.5522 0.45406 0.77589 0.0
H1999 H 0.62931 0.51308 0.8013 0.0
H2000 H 0.52144 0.44264 0.81916 0.0
H2001 H 0.51602 0.4665 0.80835 0.0
H2002 H 0.5149 0.4403 0.79275 0.0
H2003 H 0.63688 0.53611 0.83226 0.0
H2004 H 0.60967 0.53956 0.83928 0.0
H2005 H 0.61569 0.51576 0.84953 0.0
H2006 H 0.53072 0.52593 0.85831 0.0
H2007 H 0.54563 0.46958 0.88416 0.0
H2008 H 0.53984 0.51405 0.8104 0.0
H2009 H 0.57206 0.53868 0.82059 0.0
H2010 H 0.54388 0.54034 0.82759 0.0
H2011 H 0.55706 0.44392 0.84136 0.0
H2012 H 0.56495 0.44878 0.86776 0.0
H2013 H 0.58879 0.46918 0.85192 0.0
C2014 C 0.54167 0.07772 0.79367 0.0
C2015 C 0.53109 0.09365 0.78921 0.0
C2016 C 0.53629 0.06465 0.81087 0.0
C2017 C 0.52007 0.06767 0.82404 0.0
C2018 C 0.50949 0.08386 0.81967 0.0
C2019 C 0.51511 0.09659 0.80237 0.0
C2020 C 0.54786 0.04749 0.81491 0.0
C2021 C 0.49231 0.08785 0.83334 0.0
C2022 C 0.48549 0.0163 0.85946 0.0
C2023 C 0.50153 0.02817 0.87731 0.0
C2024 C 0.49146 0.02876 0.84202 0.0
C2025 C 0.51399 0.05385 0.84234 0.0
C2026 C 0.53029 0.06596 0.86028 0.0
C2027 C 0.52391 0.053 0.87748 0.0
C2028 C 0.4735 0.01515 0.82326 0.0
C2029 C 0.55445 0.09269 0.86131 0.0
H2030 H 0.55393 0.07524 0.78357 0.0
H2031 H 0.50728 0.10928 0.79931 0.0
H2032 H 0.5601 0.0544 0.82933 0.0
H2033 H 0.53189 0.02719 0.81588 0.0
H2034 H 0.56017 0.04725 0.80329 0.0
H2035 H 0.48562 0.10106 0.82784 0.0
H2036 H 0.47478 0.06879 0.83513 0.0
H2037 H 0.50321 0.09623 0.84817 0.0
H2038 H 0.46795 0.99733 0.85914 0.0
H2039 H 0.53669 0.06223 0.89106 0.0
H2040 H 0.48484 0.0133 0.81151 0.0
H2041 H 0.46497 0.02696 0.818 0.0
H2042 H 0.4572 0.99538 0.82531 0.0
H2043 H 0.56798 0.09249 0.85078 0.0
H2044 H 0.56519 0.09939 0.87633 0.0
H2045 H 0.54884 0.10712 0.85691 0.0
C2046 C 0.10463 0.22917 0.54606 0.0
C2047 C 0.09718 0.24054 0.56113 0.0
C2048 C 0.11385 0.2416 0.52893 0.0
C2049 C 0.11555 0.26598 0.52665 0.0
C2050 C 0.10802 0.27754 0.54175 0.0
C2051 C 0.09907 0.26478 0.55878 0.0
C2052 C 0.12174 0.22861 0.51324 0.0
C2053 C 0.10946 0.30346 0.53995 0.0
C2054 C 0.16155 0.31077 0.49141 0.0
C2055 C 0.14418 0.30631 0.47471 0.0
C2056 C 0.15255 0.29761 0.50827 0.0
C2057 C 0.12545 0.27956 0.50858 0.0
C2058 C 0.10782 0.27482 0.49174 0.0
C2059 C 0.11738 0.28817 0.47503 0.0
C2060 C 0.17209 0.3031 0.52579 0.0
C2061 C 0.07876 0.25589 0.49146 0.0
H2062 H 0.10288 0.21028 0.54748 0.0
H2063 H 0.09377 0.274 0.57039 0.0
H2064 H 0.10953 0.22485 0.4991 0.0
H2065 H 0.14249 0.24176 0.51064 0.0
H2066 H 0.11956 0.20981 0.51731 0.0
H2067 H 0.1024 0.30962 0.5528 0.0
H2068 H 0.13002 0.31878 0.53866 0.0
H2069 H 0.09746 0.30229 0.52635 0.0
H2070 H 0.18233 0.32441 0.49123 0.0
H2071 H 0.10374 0.28476 0.46231 0.0
H2072 H 0.17123 0.2847 0.52939 0.0
H2073 H 0.16701 0.31093 0.53891 0.0
H2074 H 0.19254 0.31734 0.52311 0.0
H2075 H 0.07538 0.23632 0.49446 0.0
H2076 H 0.0677 0.25397 0.47711 0.0
H2077 H 0.07066 0.26249 0.50331 0.0
C2078 C 0.788 0.88548 0.5553 0.0
C2079 C 0.77682 0.87179 0.57142 0.0
C2080 C 0.77276 0.88063 0.53731 0.0
C2081 C 0.74565 0.86179 0.53548 0.0
C2082 C 0.73414 0.84827 0.55184 0.0
C2083 C 0.74991 0.85334 0.5696 0.0
C2084 C 0.78579 0.89525 0.52013 0.0
C2085 C 0.70525 0.82825 0.5505 0.0
C2086 C 0.70274 0.86489 0.49316 0.0
C2087 C 0.70032 0.84525 0.47928 0.0
C2088 C 0.7171 0.87023 0.51166 0.0
C2089 C 0.72953 0.85574 0.51626 0.0
C2090 C 0.72703 0.83579 0.50234 0.0
C2091 C 0.71235 0.83071 0.48404 0.0
C2092 C 0.71911 0.89146 0.52622 0.0
C2093 C 0.74021 0.82009 0.50665 0.0
H2094 H 0.80887 0.89951 0.55659 0.0
H2095 H 0.74119 0.84291 0.58212 0.0
H2096 H 0.78396 0.88125 0.50778 0.0
H2097 H 0.77581 0.90568 0.51466 0.0
H2098 H 0.80695 0.90967 0.52411 0.0
H2099 H 0.69915 0.8202 0.56479 0.0
H2100 H 0.69337 0.83711 0.5457 0.0
H2101 H 0.70059 0.81189 0.53925 0.0
H2102 H 0.69324 0.87598 0.48957 0.0
H2103 H 0.71077 0.81572 0.47324 0.0
H2104 H 0.73996 0.90703 0.5296 0.0
H2105 H 0.71191 0.88341 0.54028 0.0
H2106 H 0.70765 0.90039 0.52057 0.0
H2107 H 0.76179 0.83329 0.50941 0.0
H2108 H 0.73607 0.80506 0.49432 0.0
H2109 H 0.7335 0.81024 0.5202 0.0
C2110 C 0.13172 0.87134 0.55864 0.0
C2111 C 0.14251 0.89808 0.56435 0.0
C2112 C 0.13669 0.86261 0.54066 0.0
C2113 C 0.15266 0.88106 0.52803 0.0
C2114 C 0.16338 0.90805 0.53366 0.0
C2115 C 0.15818 0.9162 0.5517 0.0
C2116 C 0.12499 0.83368 0.5352 0.0
C2117 C 0.18031 0.92837 0.52058 0.0
C2118 C 0.18715 0.8635 0.48974 0.0
C2119 C 0.17115 0.85924 0.47226 0.0
C2120 C 0.181 0.86995 0.50804 0.0
C2121 C 0.15835 0.87234 0.50893 0.0
C2122 C 0.1419 0.86771 0.4914 0.0
C2123 C 0.14846 0.86118 0.47331 0.0
C2124 C 0.19908 0.87478 0.52638 0.0
C2125 C 0.11758 0.87007 0.49169 0.0
H2126 H 0.11967 0.85726 0.56837 0.0
H2127 H 0.16612 0.93688 0.55578 0.0
H2128 H 0.11255 0.82766 0.52091 0.0
H2129 H 0.14089 0.82913 0.53327 0.0
H2130 H 0.11287 0.82185 0.54655 0.0
H2131 H 0.18712 0.94858 0.5271 0.0
H2132 H 0.19776 0.92661 0.51793 0.0
H2133 H 0.16916 0.9251 0.50601 0.0
H2134 H 0.20487 0.86236 0.48909 0.0
H2135 H 0.13572 0.85749 0.45995 0.0
H2136 H 0.1878 0.86232 0.53775 0.0
H2137 H 0.20801 0.89541 0.5327 0.0
H2138 H 0.21511 0.87076 0.52337 0.0
H2139 H 0.10453 0.85712 0.50212 0.0
H2140 H 0.10636 0.86493 0.4769 0.0
H2141 H 0.12316 0.89037 0.49699 0.0
C2142 C 0.55658 0.74939 0.13075 0.0
C2143 C 0.55729 0.76581 0.11653 0.0
C2144 C 0.57122 0.75964 0.1492 0.0
C2145 C 0.58699 0.78703 0.15358 0.0
C2146 C 0.58709 0.80379 0.13956 0.0
C2147 C 0.57214 0.79295 0.12116 0.0
C2148 C 0.57039 0.74109 0.16379 0.0
C2149 C 0.60367 0.83309 0.14374 0.0
C2150 C 0.61009 0.8106 0.2078 0.0
C2151 C 0.63505 0.813 0.20925 0.0
C2152 C 0.59455 0.80306 0.18963 0.0
C2153 C 0.60422 0.79783 0.1725 0.0
C2154 C 0.62971 0.80099 0.17376 0.0
C2155 C 0.64479 0.8085 0.19211 0.0
C2156 C 0.56749 0.79996 0.18886 0.0
C2157 C 0.6407 0.79555 0.15582 0.0
H2158 H 0.54473 0.72839 0.12732 0.0
H2159 H 0.57278 0.80567 0.11016 0.0
H2160 H 0.59017 0.74336 0.16667 0.0
H2161 H 0.56487 0.74578 0.17807 0.0
H2162 H 0.55622 0.72036 0.15842 0.0
H2163 H 0.60014 0.8434 0.1319 0.0
H2164 H 0.59955 0.83966 0.15795 0.0
H2165 H 0.62477 0.83895 0.14516 0.0
H2166 H 0.60263 0.81451 0.22092 0.0
H2167 H 0.66395 0.81007 0.19314 0.0
H2168 H 0.55242 0.77914 0.18482 0.0
H2169 H 0.56508 0.81124 0.17732 0.0
H2170 H 0.56362 0.80654 0.2032 0.0
H2171 H 0.6289 0.77451 0.1504 0.0
H2172 H 0.66151 0.80073 0.159 0.0
H2173 H 0.63938 0.8067 0.14372 0.0
C2174 C 0.22147 0.8021 0.11944 0.0
C2175 C 0.24822 0.81723 0.11683 0.0
C2176 C 0.21138 0.80676 0.13635 0.0
C2177 C 0.22836 0.82725 0.15096 0.0
C2178 C 0.25517 0.84322 0.14811 0.0
C2179 C 0.2648 0.83794 0.13115 0.0
C2180 C 0.18268 0.78924 0.13884 0.0
C2181 C 0.27387 0.86541 0.16326 0.0
C2182 C 0.19718 0.85037 0.18852 0.0
C2183 C 0.19797 0.83728 0.20483 0.0
C2184 C 0.20732 0.84761 0.171 0.0
C2185 C 0.2183 0.83116 0.16963 0.0
C2186 C 0.2193 0.81801 0.18604 0.0
C2187 C 0.20929 0.82135 0.20344 0.0
C2188 C 0.2061 0.86213 0.15388 0.0
C2189 C 0.23077 0.80023 0.18519 0.0
H2190 H 0.2084 0.78634 0.10832 0.0
H2191 H 0.28555 0.84954 0.12946 0.0
H2192 H 0.18078 0.77854 0.15203 0.0
H2193 H 0.17315 0.80109 0.14135 0.0
H2194 H 0.17189 0.77476 0.12581 0.0
H2195 H 0.29363 0.87718 0.15818 0.0
H2196 H 0.26591 0.87848 0.16673 0.0
H2197 H 0.27603 0.85754 0.17716 0.0
H2198 H 0.18821 0.86247 0.18931 0.0
H2199 H 0.2105 0.81155 0.21605 0.0
H2200 H 0.19378 0.84802 0.14104 0.0
H2201 H 0.22605 0.87432 0.14928 0.0
H2202 H 0.19786 0.87492 0.15755 0.0
H2203 H 0.21985 0.78427 0.17309 0.0
H2204 H 0.23006 0.79141 0.19922 0.0
H2205 H 0.25151 0.81128 0.18188 0.0
C2206 C 0.22588 0.43754 0.13806 0.0
C2207 C 0.20776 0.42572 0.12119 0.0
C2208 C 0.22133 0.4258 0.15587 0.0
C2209 C 0.19801 0.4017 0.15694 0.0
C2210 C 0.17997 0.38939 0.13985 0.0
C2211 C 0.1851 0.40144 0.12223 0.0
C2212 C 0.24116 0.43953 0.17369 0.0
C2213 C 0.15491 0.36368 0.14027 0.0
C2214 C 0.19295 0.35908 0.19816 0.0
C2215 C 0.17857 0.36478 0.21125 0.0
C2216 C 0.19985 0.37129 0.18067 0.0
C2217 C 0.19208 0.3896 0.176 0.0
C2218 C 0.17786 0.39569 0.18927 0.0
C2219 C 0.17136 0.3833 0.20673 0.0
C2220 C 0.21525 0.36441 0.16708 0.0
C2221 C 0.16902 0.41495 0.18484 0.0
H2222 H 0.24327 0.45642 0.13756 0.0
H2223 H 0.17115 0.39192 0.10923 0.0
H2224 H 0.23216 0.4452 0.18539 0.0
H2225 H 0.24719 0.42616 0.17983 0.0
H2226 H 0.25898 0.45735 0.17018 0.0
H2227 H 0.14316 0.35636 0.12563 0.0
H2228 H 0.15948 0.34873 0.14514 0.0
H2229 H 0.14269 0.36595 0.15108 0.0
H2230 H 0.19899 0.34512 0.20166 0.0
H2231 H 0.16005 0.38767 0.21662 0.0
H2232 H 0.2335 0.38234 0.16442 0.0
H2233 H 0.20354 0.35552 0.15257 0.0
H2234 H 0.22062 0.35051 0.17315 0.0
H2235 H 0.18616 0.43399 0.18244 0.0
H2236 H 0.15881 0.41816 0.19691 0.0
H2237 H 0.15549 0.40774 0.17103 0.0
C2238 C 0.77646 0.56581 0.87819 0.0
C2239 C 0.77003 0.5764 0.89444 0.0
C2240 C 0.78524 0.57946 0.86152 0.0
C2241 C 0.78751 0.60433 0.86089 0.0
C2242 C 0.78095 0.61511 0.87717 0.0
C2243 C 0.77238 0.60109 0.89372 0.0
C2244 C 0.79202 0.56721 0.84453 0.0
C2245 C 0.78304 0.64153 0.87711 0.0
C2246 C 0.83293 0.65005 0.82585 0.0
C2247 C 0.81522 0.64674 0.80972 0.0
C2248 C 0.82418 0.63648 0.84256 0.0
C2249 C 0.797 0.61912 0.84329 0.0
C2250 C 0.779 0.61566 0.82708 0.0
C2251 C 0.7883 0.62946 0.81052 0.0
C2252 C 0.84409 0.64058 0.8594 0.0
C2253 C 0.74986 0.59743 0.82724 0.0
H2254 H 0.77422 0.54654 0.87832 0.0
H2255 H 0.76772 0.60961 0.90622 0.0
H2256 H 0.77942 0.56472 0.83091 0.0
H2257 H 0.81269 0.58024 0.84169 0.0
H2258 H 0.78946 0.54786 0.84737 0.0
H2259 H 0.77679 0.64703 0.89074 0.0
H2260 H 0.80361 0.65669 0.87567 0.0
H2261 H 0.77069 0.64157 0.8642 0.0
H2262 H 0.85378 0.663 0.82529 0.0
H2263 H 0.7744 0.62695 0.79828 0.0
H2264 H 0.84307 0.62176 0.86179 0.0
H2265 H 0.83954 0.64755 0.87324 0.0
H2266 H 0.86448 0.65495 0.85667 0.0
H2267 H 0.74587 0.57737 0.82913 0.0
H2268 H 0.73844 0.59679 0.81345 0.0
H2269 H 0.74269 0.60369 0.83994 0.0
C2270 C 0.44808 0.22471 0.89937 0.0
C2271 C 0.45792 0.20789 0.90274 0.0
C2272 C 0.43196 0.22092 0.88205 0.0
C2273 C 0.42527 0.19963 0.86788 0.0
C2274 C 0.43471 0.18231 0.87134 0.0
C2275 C 0.45105 0.18675 0.88864 0.0
C2276 C 0.42239 0.2399 0.8788 0.0
C2277 C 0.42787 0.15927 0.85663 0.0
C2278 C 0.36641 0.17603 0.82976 0.0
C2279 C 0.37852 0.18676 0.8129 0.0
C2280 C 0.38134 0.18026 0.84782 0.0
C2281 C 0.40904 0.19583 0.84911 0.0
C2282 C 0.42137 0.20712 0.83228 0.0
C2283 C 0.40599 0.2023 0.81437 0.0
C2284 C 0.36752 0.16774 0.86543 0.0
C2285 C 0.45086 0.22396 0.83311 0.0
H2286 H 0.45295 0.24087 0.91029 0.0
H2287 H 0.4589 0.17391 0.8909 0.0
H2288 H 0.42968 0.24952 0.86525 0.0
H2289 H 0.40062 0.22933 0.87653 0.0
H2290 H 0.42903 0.25523 0.89139 0.0
H2291 H 0.43579 0.14695 0.86197 0.0
H2292 H 0.40623 0.14695 0.85347 0.0
H2293 H 0.43586 0.16626 0.84251 0.0
H2294 H 0.34519 0.16433 0.82887 0.0
H2295 H 0.4156 0.21033 0.80139 0.0
H2296 H 0.37268 0.1829 0.87786 0.0
H2297 H 0.37415 0.15431 0.87047 0.0
H2298 H 0.34582 0.15654 0.86207 0.0
H2299 H 0.45819 0.24022 0.84503 0.0
H2300 H 0.45729 0.23234 0.81897 0.0
H2301 H 0.46022 0.21224 0.83662 0.0
C2302 C 0.7775 0.21605 0.87934 0.0
C2303 C 0.7951 0.22176 0.89615 0.0
C2304 C 0.78215 0.20844 0.86078 0.0
C2305 C 0.80501 0.20662 0.85895 0.0
C2306 C 0.8223 0.2114 0.87599 0.0
C2307 C 0.81709 0.21879 0.89435 0.0
C2308 C 0.76311 0.20332 0.84301 0.0
C2309 C 0.84684 0.20961 0.87475 0.0
C2310 C 0.8109 0.17017 0.81348 0.0
C2311 C 0.82642 0.19071 0.80243 0.0
C2312 C 0.80333 0.17497 0.8317 0.0
C2313 C 0.8116 0.20097 0.83914 0.0
C2314 C 0.827 0.22176 0.82794 0.0
C2315 C 0.83414 0.21637 0.80973 0.0
C2316 C 0.7867 0.15225 0.84306 0.0
C2317 C 0.83638 0.24977 0.83539 0.0
H2318 H 0.76062 0.21855 0.8805 0.0
H2319 H 0.83059 0.22279 0.9073 0.0
H2320 H 0.77283 0.21849 0.83281 0.0
H2321 H 0.7571 0.18417 0.83482 0.0
H2322 H 0.74523 0.20344 0.84712 0.0
H2323 H 0.85764 0.21277 0.88948 0.0
H2324 H 0.84179 0.19018 0.86761 0.0
H2325 H 0.86015 0.22446 0.86546 0.0
H2326 H 0.80451 0.15025 0.80782 0.0
H2327 H 0.84634 0.23237 0.80139 0.0
H2328 H 0.76856 0.15241 0.84627 0.0
H2329 H 0.7976 0.15407 0.85744 0.0
H2330 H 0.78107 0.13315 0.83492 0.0
H2331 H 0.8194 0.25215 0.83847 0.0
H2332 H 0.84759 0.26363 0.82468 0.0
H2333 H 0.84915 0.25512 0.84947 0.0
C2334 C 0.23527 0.12719 0.45662 0.0
C2335 C 0.22057 0.09994 0.45265 0.0
C2336 C 0.25155 0.13886 0.47441 0.0
C2337 C 0.25292 0.12285 0.48852 0.0
C2338 C 0.23762 0.09535 0.48472 0.0
C2339 C 0.22165 0.08426 0.46686 0.0
C2340 C 0.26766 0.16826 0.47796 0.0
C2341 C 0.23832 0.07758 0.49945 0.0
C2342 C 0.31192 0.14652 0.52633 0.0
C2343 C 0.3023 0.15087 0.54359 0.0
C2344 C 0.29643 0.13847 0.50811 0.0
C2345 C 0.27066 0.13457 0.50715 0.0
C2346 C 0.26115 0.13975 0.52438 0.0
C2347 C 0.2771 0.14788 0.54239 0.0
C2348 C 0.30728 0.13315 0.49005 0.0
C2349 C 0.23379 0.13584 0.52394 0.0
H2350 H 0.23452 0.13934 0.44562 0.0
H2351 H 0.20993 0.06318 0.46397 0.0
H2352 H 0.26352 0.17512 0.49204 0.0
H2353 H 0.28888 0.17457 0.47935 0.0
H2354 H 0.26365 0.17793 0.46586 0.0
H2355 H 0.22478 0.0566 0.4944 0.0
H2356 H 0.25854 0.08086 0.50204 0.0
H2357 H 0.23288 0.08213 0.51381 0.0
H2358 H 0.33128 0.14856 0.52715 0.0
H2359 H 0.26973 0.15171 0.55559 0.0
H2360 H 0.3049 0.14352 0.47778 0.0
H2361 H 0.29613 0.11195 0.48505 0.0
H2362 H 0.3284 0.13927 0.49292 0.0
H2363 H 0.23055 0.14646 0.51225 0.0
H2364 H 0.23008 0.14261 0.53828 0.0
H2365 H 0.21912 0.1148 0.52034 0.0
C2366 C 0.89265 0.13371 0.45297 0.0
C2367 C 0.91945 0.14921 0.45061 0.0
C2368 C 0.88209 0.13808 0.46973 0.0
C2369 C 0.89861 0.15866 0.48444 0.0
C2370 C 0.92553 0.17476 0.48197 0.0
C2371 C 0.93564 0.16975 0.46518 0.0
C2372 C 0.85331 0.12039 0.47184 0.0
C2373 C 0.94377 0.19703 0.49723 0.0
C2374 C 0.86629 0.18279 0.52022 0.0
C2375 C 0.86664 0.17029 0.537 0.0
C2376 C 0.87686 0.17943 0.50311 0.0
C2377 C 0.88783 0.16294 0.50263 0.0
C2378 C 0.88831 0.15029 0.51949 0.0
C2379 C 0.87788 0.15424 0.53647 0.0
C2380 C 0.87618 0.19344 0.4855 0.0
C2381 C 0.89975 0.13248 0.51959 0.0
H2382 H 0.87985 0.11807 0.4417 0.0
H2383 H 0.95643 0.18161 0.46372 0.0
H2384 H 0.85109 0.11028 0.48538 0.0
H2385 H 0.84345 0.13208 0.47346 0.0
H2386 H 0.84304 0.10543 0.45899 0.0
H2387 H 0.96389 0.20851 0.49267 0.0
H2388 H 0.9359 0.21034 0.49995 0.0
H2389 H 0.94507 0.18932 0.51142 0.0
H2390 H 0.85738 0.19496 0.52032 0.0
H2391 H 0.87875 0.14487 0.54944 0.0
H2392 H 0.86437 0.17902 0.47268 0.0
H2393 H 0.89634 0.20562 0.48126 0.0
H2394 H 0.86766 0.20618 0.48842 0.0
H2395 H 0.88925 0.11632 0.50758 0.0
H2396 H 0.89845 0.12394 0.53383 0.0
H2397 H 0.92068 0.14341 0.51673 0.0
C2398 C 0.86007 0.77337 0.47203 0.0
C2399 C 0.87488 0.76989 0.45805 0.0
C2400 C 0.8557 0.76112 0.48954 0.0
C2401 C 0.86638 0.74487 0.49331 0.0
C2402 C 0.88182 0.74166 0.47947 0.0
C2403 C 0.88598 0.75428 0.46205 0.0
C2404 C 0.83935 0.76535 0.50391 0.0
C2405 C 0.89352 0.72447 0.48289 0.0
C2406 C 0.87076 0.72953 0.54653 0.0
C2407 C 0.84803 0.70497 0.54641 0.0
C2408 C 0.87723 0.74253 0.52933 0.0
C2409 C 0.86066 0.73073 0.51147 0.0
C2410 C 0.83787 0.70584 0.51119 0.0
C2411 C 0.83182 0.69334 0.5286 0.0
C2412 C 0.90169 0.76903 0.53032 0.0
C2413 C 0.81958 0.69257 0.49253 0.0
H2414 H 0.85189 0.78585 0.4693 0.0
H2415 H 0.89739 0.75144 0.45133 0.0
H2416 H 0.82158 0.74644 0.50562 0.0
H2417 H 0.85067 0.77311 0.51865 0.0
H2418 H 0.83305 0.77913 0.49907 0.0
H2419 H 0.90583 0.72473 0.47111 0.0
H2420 H 0.90575 0.7309 0.4973 0.0
H2421 H 0.87758 0.70405 0.4835 0.0
H2422 H 0.88368 0.73857 0.56008 0.0
H2423 H 0.81402 0.67458 0.52833 0.0
H2424 H 0.89631 0.78384 0.52656 0.0
H2425 H 0.91468 0.76879 0.51932 0.0
H2426 H 0.91291 0.77526 0.54517 0.0
H2427 H 0.81099 0.70453 0.48771 0.0
H2428 H 0.8033 0.67275 0.49451 0.0
H2429 H 0.83064 0.69089 0.48049 0.0
loop_
_geom_bond_atom_site_label_1
_geom_bond_atom_site_label_2
_geom_bond_distance
_geom_bond_site_symmetry_2
_ccdc_geom_bond_type
H0 C1 0.949 . S
C1 H0 0.949 . S
C1 C2 1.395 . S
C1 C3 1.391 . S
C2 C1 1.395 . S
C2 C5 1.390 . S
C3 C1 1.391 . S
C3 C7 1.387 . S
C3 C8 1.491 . S
H4 C5 0.950 . S
C5 C2 1.390 . S
C5 H4 0.950 . S
C5 C6 1.378 . S
C6 C5 1.378 . S
C6 C7 1.409 . S
C7 C3 1.387 . S
C7 C6 1.409 . S
C7 H9 0.951 . S
C8 C3 1.491 . S
C8 C10 1.382 . S
C8 C12 1.404 . S
H9 C7 0.951 . S
C10 C8 1.382 . S
C10 C11 1.390 . S
C10 H15 0.949 . S
C11 C10 1.390 . S
C11 C16 1.399 . S
C12 C8 1.404 . S
C12 H13 0.950 . S
C12 C14 1.375 . S
H13 C12 0.950 . S
C14 C12 1.375 . S
C14 C16 1.382 . S
C14 H18 0.950 . S
H15 C10 0.949 . S
C16 C11 1.399 . S
C16 C14 1.382 . S
C16 H17 0.952 . S
H17 C16 0.952 . S
H18 C14 0.950 . S
H19 C20 0.949 . S
C20 H19 0.949 . S
C20 C21 1.395 . S
C20 C22 1.391 . S
C21 C20 1.395 . S
C21 C24 1.390 . S
C22 C20 1.391 . S
C22 C26 1.387 . S
C22 C27 1.491 . S
H23 C24 0.950 . S
C24 C21 1.390 . S
C24 H23 0.950 . S
C24 C25 1.378 . S
C25 C24 1.378 . S
C25 C26 1.409 . S
C26 C22 1.387 . S
C26 C25 1.409 . S
C26 H28 0.951 . S
C27 C22 1.491 . S
C27 C29 1.382 . S
C27 C31 1.404 . S
H28 C26 0.951 . S
C29 C27 1.382 . S
C29 C30 1.390 . S
C29 H34 0.949 . S
C30 C29 1.390 . S
C30 C35 1.399 . S
C31 C27 1.404 . S
C31 H32 0.950 . S
C31 C33 1.375 . S
H32 C31 0.950 . S
C33 C31 1.375 . S
C33 C35 1.382 . S
C33 H37 0.950 . S
H34 C29 0.949 . S
C35 C30 1.399 . S
C35 C33 1.382 . S
C35 H36 0.952 . S
H36 C35 0.952 . S
H37 C33 0.950 . S
H38 C39 0.949 . S
C39 H38 0.949 . S
C39 C40 1.395 . S
C39 C41 1.391 . S
C40 C39 1.395 . S
C40 C43 1.390 . S
C41 C39 1.391 . S
C41 C45 1.387 . S
C41 C46 1.491 . S
H42 C43 0.950 . S
C43 C40 1.390 . S
C43 H42 0.950 . S
C43 C44 1.378 . S
C44 C43 1.378 . S
C44 C45 1.409 . S
C45 C41 1.387 . S
C45 C44 1.409 . S
C45 H47 0.951 . S
C46 C41 1.491 . S
C46 C48 1.382 . S
C46 C50 1.404 . S
H47 C45 0.951 . S
C48 C46 1.382 . S
C48 C49 1.390 . S
C48 H53 0.949 . S
C49 C48 1.390 . S
C49 C54 1.399 . S
C50 C46 1.404 . S
C50 H51 0.950 . S
C50 C52 1.375 . S
H51 C50 0.950 . S
C52 C50 1.375 . S
C52 C54 1.382 . S
C52 H56 0.950 . S
H53 C48 0.949 . S
C54 C49 1.399 . S
C54 C52 1.382 . S
C54 H55 0.952 1_655 S
H55 C54 0.952 1_455 S
H56 C52 0.950 . S
H57 C58 0.949 . S
C58 H57 0.949 . S
C58 C59 1.395 . S
C58 C60 1.391 . S
C59 C58 1.395 . S
C59 C62 1.390 . S
C60 C58 1.391 . S
C60 C64 1.387 . S
C60 C65 1.491 . S
H61 C62 0.950 . S
C62 C59 1.390 . S
C62 H61 0.950 . S
C62 C63 1.378 . S
C63 C62 1.378 . S
C63 C64 1.409 . S
C64 C60 1.387 . S
C64 C63 1.409 . S
C64 H66 0.951 . S
C65 C60 1.491 . S
C65 C67 1.382 . S
C65 C69 1.404 . S
H66 C64 0.951 . S
C67 C65 1.382 . S
C67 C68 1.390 . S
C67 H72 0.949 . S
C68 C67 1.390 . S
C68 C73 1.399 . S
C69 C65 1.404 . S
C69 H70 0.950 . S
C69 C71 1.375 . S
H70 C69 0.950 . S
C71 C69 1.375 . S
C71 C73 1.382 . S
C71 H75 0.950 . S
H72 C67 0.949 . S
C73 C68 1.399 . S
C73 C71 1.382 . S
C73 H74 0.952 . S
H74 C73 0.952 . S
H75 C71 0.950 . S
H76 C77 0.949 . S
C77 H76 0.949 . S
C77 C78 1.395 . S
C77 C79 1.391 . S
C78 C77 1.395 . S
C78 C81 1.390 . S
C79 C77 1.391 . S
C79 C83 1.387 . S
C79 C84 1.491 . S
H80 C81 0.950 . S
C81 C78 1.390 . S
C81 H80 0.950 . S
C81 C82 1.378 . S
C82 C81 1.378 . S
C82 C83 1.409 . S
C83 C79 1.387 . S
C83 C82 1.409 . S
C83 H85 0.951 . S
C84 C79 1.491 . S
C84 C86 1.382 . S
C84 C88 1.404 . S
H85 C83 0.951 . S
C86 C84 1.382 . S
C86 C87 1.390 . S
C86 H91 0.949 . S
C87 C86 1.390 . S
C87 C92 1.399 . S
C88 C84 1.404 . S
C88 H89 0.950 . S
C88 C90 1.375 . S
H89 C88 0.950 . S
C90 C88 1.375 . S
C90 C92 1.382 . S
C90 H94 0.950 . S
H91 C86 0.949 . S
C92 C87 1.399 . S
C92 C90 1.382 . S
C92 H93 0.952 . S
H93 C92 0.952 . S
H94 C90 0.950 . S
H95 C96 0.949 . S
C96 H95 0.949 . S
C96 C97 1.395 . S
C96 C98 1.391 . S
C97 C96 1.395 . S
C97 C100 1.390 . S
C98 C96 1.391 . S
C98 C102 1.387 . S
C98 C103 1.491 . S
H99 C100 0.950 . S
C100 C97 1.390 . S
C100 H99 0.950 . S
C100 C101 1.378 . S
C101 C100 1.378 . S
C101 C102 1.409 . S
C102 C98 1.387 . S
C102 C101 1.409 . S
C102 H104 0.951 . S
C103 C98 1.491 . S
C103 C105 1.382 . S
C103 C107 1.404 . S
H104 C102 0.951 . S
C105 C103 1.382 . S
C105 C106 1.390 . S
C105 H110 0.949 . S
C106 C105 1.390 . S
C106 C111 1.399 . S
C107 C103 1.404 . S
C107 H108 0.950 . S
C107 C109 1.375 . S
H108 C107 0.950 . S
C109 C107 1.375 . S
C109 C111 1.382 . S
C109 H113 0.950 . S
H110 C105 0.949 . S
C111 C106 1.399 . S
C111 C109 1.382 . S
C111 H112 0.952 . S
H112 C111 0.952 . S
H113 C109 0.950 . S
H114 C115 0.949 . S
C115 H114 0.949 . S
C115 C116 1.395 . S
C115 C117 1.391 . S
C116 C115 1.395 . S
C116 C119 1.390 . S
C117 C115 1.391 . S
C117 C121 1.387 . S
C117 C122 1.491 . S
H118 C119 0.950 . S
C119 C116 1.390 . S
C119 H118 0.950 . S
C119 C120 1.378 . S
C120 C119 1.378 . S
C120 C121 1.409 . S
C121 C117 1.387 . S
C121 C120 1.409 . S
C121 H123 0.951 . S
C122 C117 1.491 . S
C122 C124 1.382 . S
C122 C126 1.404 . S
H123 C121 0.951 . S
C124 C122 1.382 . S
C124 C125 1.390 . S
C124 H129 0.949 . S
C125 C124 1.390 . S
C125 C130 1.399 . S
C126 C122 1.404 . S
C126 H127 0.950 . S
C126 C128 1.375 . S
H127 C126 0.950 . S
C128 C126 1.375 . S
C128 C130 1.382 . S
C128 H132 0.950 . S
H129 C124 0.949 . S
C130 C125 1.399 . S
C130 C128 1.382 . S
C130 H131 0.952 . S
H131 C130 0.952 . S
H132 C128 0.950 . S
H133 C134 0.949 . S
C134 H133 0.949 . S
C134 C135 1.395 . S
C134 C136 1.391 . S
C135 C134 1.395 . S
C135 C138 1.390 . S
C136 C134 1.391 . S
C136 C140 1.387 . S
C136 C141 1.491 . S
H137 C138 0.950 . S
C138 C135 1.390 . S
C138 H137 0.950 . S
C138 C139 1.378 . S
C139 C138 1.378 . S
C139 C140 1.409 . S
C140 C136 1.387 . S
C140 C139 1.409 . S
C140 H142 0.951 . S
C141 C136 1.491 . S
C141 C143 1.382 . S
C141 C145 1.404 . S
H142 C140 0.951 . S
C143 C141 1.382 . S
C143 C144 1.390 . S
C143 H148 0.949 . S
C144 C143 1.390 . S
C144 C149 1.399 . S
C145 C141 1.404 . S
C145 H146 0.950 . S
C145 C147 1.375 . S
H146 C145 0.950 . S
C147 C145 1.375 . S
C147 C149 1.382 . S
C147 H151 0.950 . S
H148 C143 0.949 . S
C149 C144 1.399 . S
C149 C147 1.382 . S
C149 H150 0.952 . S
H150 C149 0.952 . S
H151 C147 0.950 . S
H152 C153 0.949 . S
C153 H152 0.949 . S
C153 C154 1.395 . S
C153 C155 1.391 . S
C154 C153 1.395 . S
C154 C157 1.390 . S
C155 C153 1.391 . S
C155 C159 1.387 . S
C155 C160 1.491 . S
H156 C157 0.950 . S
C157 C154 1.390 . S
C157 H156 0.950 . S
C157 C158 1.378 . S
C158 C157 1.378 . S
C158 C159 1.409 . S
C159 C155 1.387 . S
C159 C158 1.409 . S
C159 H161 0.951 . S
C160 C155 1.491 . S
C160 C162 1.382 . S
C160 C164 1.404 . S
H161 C159 0.951 . S
C162 C160 1.382 . S
C162 C163 1.390 . S
C162 H167 0.949 . S
C163 C162 1.390 . S
C163 C168 1.399 . S
C164 C160 1.404 . S
C164 H165 0.950 . S
C164 C166 1.375 . S
H165 C164 0.950 . S
C166 C164 1.375 . S
C166 C168 1.382 . S
C166 H170 0.950 . S
H167 C162 0.949 . S
C168 C163 1.399 . S
C168 C166 1.382 . S
C168 H169 0.952 . S
H169 C168 0.952 . S
H170 C166 0.950 . S
H171 C172 0.949 . S
C172 H171 0.949 . S
C172 C173 1.395 . S
C172 C174 1.391 . S
C173 C172 1.395 . S
C173 C176 1.390 . S
C174 C172 1.391 . S
C174 C178 1.387 . S
C174 C179 1.491 . S
H175 C176 0.950 . S
C176 C173 1.390 . S
C176 H175 0.950 . S
C176 C177 1.378 . S
C177 C176 1.378 . S
C177 C178 1.409 . S
C178 C174 1.387 . S
C178 C177 1.409 . S
C178 H180 0.951 . S
C179 C174 1.491 . S
C179 C181 1.382 . S
C179 C183 1.404 . S
H180 C178 0.951 . S
C181 C179 1.382 . S
C181 C182 1.390 . S
C181 H186 0.949 . S
C182 C181 1.390 . S
C182 C187 1.399 . S
C183 C179 1.404 . S
C183 H184 0.950 . S
C183 C185 1.375 . S
H184 C183 0.950 . S
C185 C183 1.375 . S
C185 C187 1.382 . S
C185 H189 0.950 . S
H186 C181 0.949 . S
C187 C182 1.399 . S
C187 C185 1.382 . S
C187 H188 0.952 . S
H188 C187 0.952 . S
H189 C185 0.950 . S
H190 C191 0.949 . S
C191 H190 0.949 . S
C191 C192 1.395 . S
C191 C193 1.391 . S
C192 C191 1.395 . S
C192 C195 1.390 . S
C193 C191 1.391 . S
C193 C197 1.387 . S
C193 C198 1.491 . S
H194 C195 0.950 . S
C195 C192 1.390 . S
C195 H194 0.950 . S
C195 C196 1.378 . S
C196 C195 1.378 . S
C196 C197 1.409 . S
C197 C193 1.387 . S
C197 C196 1.409 . S
C197 H199 0.951 1_556 S
C198 C193 1.491 . S
C198 C200 1.382 . S
C198 C202 1.404 1_556 S
H199 C197 0.951 1_554 S
C200 C198 1.382 . S
C200 C201 1.390 1_556 S
C200 H205 0.949 . S
C201 C200 1.390 1_554 S
C201 C206 1.399 . S
C202 C198 1.404 1_554 S
C202 H203 0.950 . S
C202 C204 1.375 . S
H203 C202 0.950 . S
C204 C202 1.375 . S
C204 C206 1.382 . S
C204 H208 0.950 . S
H205 C200 0.949 . S
C206 C201 1.399 . S
C206 C204 1.382 . S
C206 H207 0.952 . S
H207 C206 0.952 . S
H208 C204 0.950 . S
H209 C210 0.949 . S
C210 H209 0.949 . S
C210 C211 1.395 . S
C210 C212 1.391 . S
C211 C210 1.395 . S
C211 C214 1.390 . S
C212 C210 1.391 . S
C212 C216 1.387 . S
C212 C217 1.491 . S
H213 C214 0.950 . S
C214 C211 1.390 . S
C214 H213 0.950 . S
C214 C215 1.378 . S
C215 C214 1.378 . S
C215 C216 1.409 . S
C216 C212 1.387 . S
C216 C215 1.409 . S
C216 H218 0.951 . S
C217 C212 1.491 . S
C217 C219 1.382 . S
C217 C221 1.404 . S
H218 C216 0.951 . S
C219 C217 1.382 . S
C219 C220 1.390 . S
C219 H224 0.949 . S
C220 C219 1.390 . S
C220 C225 1.399 . S
C221 C217 1.404 . S
C221 H222 0.950 . S
C221 C223 1.375 . S
H222 C221 0.950 . S
C223 C221 1.375 . S
C223 C225 1.382 . S
C223 H227 0.950 . S
H224 C219 0.949 . S
C225 C220 1.399 . S
C225 C223 1.382 . S
C225 H226 0.952 . S
H226 C225 0.952 . S
H227 C223 0.950 . S
H228 C229 0.949 . S
C229 H228 0.949 . S
C229 C230 1.395 . S
C229 C231 1.391 . S
C230 C229 1.395 . S
C230 C233 1.390 . S
C231 C229 1.391 . S
C231 C235 1.387 . S
C231 C236 1.491 . S
H232 C233 0.950 . S
C233 C230 1.390 . S
C233 H232 0.950 . S
C233 C234 1.378 . S
C234 C233 1.378 . S
C234 C235 1.409 . S
C235 C231 1.387 . S
C235 C234 1.409 . S
C235 H237 0.951 . S
C236 C231 1.491 . S
C236 C238 1.382 . S
C236 C240 1.404 . S
H237 C235 0.951 . S
C238 C236 1.382 . S
C238 C239 1.390 . S
C238 H243 0.949 . S
C239 C238 1.390 . S
C239 C244 1.399 . S
C240 C236 1.404 . S
C240 H241 0.950 . S
C240 C242 1.391 . S
H241 C240 0.950 . S
C242 C240 1.391 . S
C242 C244 1.384 . S
C242 H246 0.933 1_554 S
H243 C238 0.949 . S
C244 C239 1.399 . S
C244 C242 1.384 . S
C244 H245 0.952 1_554 S
H245 C244 0.952 1_556 S
H246 C242 0.933 1_556 S
H247 C248 0.949 . S
C248 H247 0.949 . S
C248 C249 1.395 . S
C248 C250 1.391 . S
C249 C248 1.395 . S
C249 C252 1.390 . S
C250 C248 1.391 . S
C250 C254 1.387 . S
C250 C255 1.491 . S
H251 C252 0.950 . S
C252 C249 1.390 . S
C252 H251 0.950 . S
C252 C253 1.378 . S
C253 C252 1.378 . S
C253 C254 1.409 . S
C254 C250 1.387 . S
C254 C253 1.409 . S
C254 H256 0.951 . S
C255 C250 1.491 . S
C255 C257 1.382 . S
C255 C259 1.404 . S
H256 C254 0.951 . S
C257 C255 1.382 . S
C257 C258 1.390 . S
C257 H262 0.949 . S
C258 C257 1.390 . S
C258 C263 1.399 . S
C259 C255 1.404 . S
C259 H260 0.950 . S
C259 C261 1.375 . S
H260 C259 0.950 . S
C261 C259 1.375 . S
C261 C263 1.382 . S
C261 H265 0.950 . S
H262 C257 0.949 . S
C263 C258 1.399 . S
C263 C261 1.382 . S
C263 H264 0.952 . S
H264 C263 0.952 . S
H265 C261 0.950 . S
H266 C267 0.949 . S
C267 H266 0.949 . S
C267 C268 1.395 . S
C267 C269 1.391 . S
C268 C267 1.395 . S
C268 C271 1.390 . S
C269 C267 1.391 . S
C269 C273 1.387 . S
C269 C274 1.491 . S
H270 C271 0.950 . S
C271 C268 1.390 . S
C271 H270 0.950 . S
C271 C272 1.378 . S
C272 C271 1.378 . S
C272 C273 1.409 . S
C273 C269 1.387 . S
C273 C272 1.409 . S
C273 H275 0.951 . S
C274 C269 1.491 . S
C274 C276 1.382 . S
C274 C278 1.404 . S
H275 C273 0.951 . S
C276 C274 1.382 . S
C276 C277 1.390 . S
C276 H281 0.949 . S
C277 C276 1.390 . S
C277 C282 1.399 . S
C278 C274 1.404 . S
C278 H279 0.950 . S
C278 C280 1.375 . S
H279 C278 0.950 . S
C280 C278 1.375 . S
C280 C282 1.382 . S
C280 H284 0.950 . S
H281 C276 0.949 . S
C282 C277 1.399 . S
C282 C280 1.382 . S
C282 H283 0.952 . S
H283 C282 0.952 . S
H284 C280 0.950 . S
H285 C286 0.949 . S
C286 H285 0.949 . S
C286 C287 1.395 . S
C286 C288 1.391 . S
C287 C286 1.395 . S
C287 C290 1.390 . S
C288 C286 1.391 . S
C288 C292 1.387 . S
C288 C293 1.491 . S
H289 C290 0.950 . S
C290 C287 1.390 . S
C290 H289 0.950 . S
C290 C291 1.378 . S
C291 C290 1.378 . S
C291 C292 1.409 . S
C292 C288 1.387 . S
C292 C291 1.409 . S
C292 H294 0.951 . S
C293 C288 1.491 . S
C293 C295 1.382 . S
C293 C297 1.404 . S
H294 C292 0.951 . S
C295 C293 1.382 . S
C295 C296 1.390 . S
C295 H300 0.949 . S
C296 C295 1.390 . S
C296 C301 1.399 . S
C297 C293 1.404 . S
C297 H298 0.950 . S
C297 C299 1.375 . S
H298 C297 0.950 . S
C299 C297 1.375 . S
C299 C301 1.382 . S
C299 H303 0.950 . S
H300 C295 0.949 . S
C301 C296 1.399 . S
C301 C299 1.382 . S
C301 H302 0.952 . S
H302 C301 0.952 . S
H303 C299 0.950 . S
H304 C305 0.949 . S
C305 H304 0.949 . S
C305 C306 1.395 . S
C305 C307 1.391 . S
C306 C305 1.395 . S
C306 C309 1.390 . S
C307 C305 1.391 . S
C307 C311 1.387 . S
C307 C312 1.491 . S
H308 C309 0.950 . S
C309 C306 1.390 . S
C309 H308 0.950 . S
C309 C310 1.378 . S
C310 C309 1.378 . S
C310 C311 1.409 . S
C311 C307 1.387 . S
C311 C310 1.409 . S
C311 H313 0.951 . S
C312 C307 1.491 . S
C312 C314 1.382 . S
C312 C316 1.404 . S
H313 C311 0.951 . S
C314 C312 1.382 . S
C314 C315 1.390 . S
C314 H319 0.949 . S
C315 C314 1.390 . S
C315 C320 1.399 . S
C316 C312 1.404 . S
C316 H317 0.950 . S
C316 C318 1.375 . S
H317 C316 0.950 . S
C318 C316 1.375 . S
C318 C320 1.382 . S
C318 H322 0.950 . S
H319 C314 0.949 . S
C320 C315 1.399 . S
C320 C318 1.382 . S
C320 H321 0.952 . S
H321 C320 0.952 . S
H322 C318 0.950 . S
H323 C324 0.949 . S
C324 H323 0.949 . S
C324 C325 1.395 . S
C324 C326 1.391 . S
C325 C324 1.395 . S
C325 C328 1.390 . S
C326 C324 1.391 . S
C326 C330 1.387 . S
C326 C331 1.491 . S
H327 C328 0.950 . S
C328 C325 1.390 . S
C328 H327 0.950 . S
C328 C329 1.378 . S
C329 C328 1.378 . S
C329 C330 1.409 . S
C330 C326 1.387 . S
C330 C329 1.409 . S
C330 H332 0.951 . S
C331 C326 1.491 . S
C331 C333 1.382 . S
C331 C335 1.404 . S
H332 C330 0.951 . S
C333 C331 1.382 . S
C333 C334 1.390 . S
C333 H338 0.949 . S
C334 C333 1.390 . S
C334 C339 1.399 . S
C335 C331 1.404 . S
C335 H336 0.950 . S
C335 C337 1.375 . S
H336 C335 0.950 . S
C337 C335 1.375 . S
C337 C339 1.382 . S
C337 H341 0.950 . S
H338 C333 0.949 . S
C339 C334 1.399 . S
C339 C337 1.382 . S
C339 H340 0.952 . S
H340 C339 0.952 . S
H341 C337 0.950 . S
Eu342 C351 2.828 1_565 S
Eu342 O353 2.392 . S
Eu342 O355 2.418 . S
Eu342 O360 2.373 1_565 S
Eu342 O363 2.488 . S
Eu342 O364 2.471 1_565 S
Eu342 O365 2.349 1_565 S
Eu343 O352 2.373 1_545 S
Eu343 O356 2.488 . S
Eu343 O357 2.471 1_545 S
Eu343 O358 2.349 1_545 S
Eu343 O361 2.392 . S
Eu343 O362 2.418 . S
Eu343 C372 2.828 1_545 S
C344 O362 1.244 . S
C344 O365 1.265 1_554 S
C345 C346 1.379 . S
C345 C349 1.373 . S
C345 C351 1.505 . S
C346 C345 1.379 . S
C346 C348 1.369 . S
C346 H374 0.930 . S
C347 C349 1.383 . S
C347 C350 1.382 . S
C347 H375 0.930 . S
C348 C346 1.369 . S
C348 C350 1.392 . S
C348 H376 0.930 . S
C349 C345 1.373 . S
C349 C347 1.383 . S
C349 H377 0.931 1_545 S
C350 C347 1.382 . S
C350 C348 1.392 . S
C351 Eu342 2.828 1_545 S
C351 C345 1.505 . S
C351 O363 1.249 1_545 S
C351 O364 1.244 . S
O352 Eu343 2.373 1_565 S
O352 C354 1.258 . S
O353 Eu342 2.392 . S
O353 C354 1.242 1_556 S
C354 O352 1.258 . S
C354 O353 1.242 1_554 S
O355 Eu342 2.418 . S
O355 C359 1.200 1_556 S
O356 Eu343 2.488 . S
O356 C372 1.249 1_545 S
O357 Eu343 2.471 1_565 S
O357 C372 1.244 . S
O358 Eu343 2.349 1_565 S
O358 C359 1.289 . S
C359 O355 1.200 1_554 S
C359 O358 1.289 . S
O360 Eu342 2.373 1_545 S
O360 C373 1.258 . S
O361 Eu343 2.392 . S
O361 C373 1.242 1_554 S
O362 Eu343 2.418 . S
O362 C344 1.244 . S
O363 Eu342 2.488 . S
O363 C351 1.249 1_565 S
O364 Eu342 2.471 1_545 S
O364 C351 1.244 . S
O365 Eu342 2.349 1_545 S
O365 C344 1.265 1_556 S
C366 C367 1.379 . S
C366 C370 1.373 1_565 S
C366 C372 1.505 . S
C367 C366 1.379 . S
C367 C369 1.369 . S
C367 H378 0.930 . S
C368 C370 1.383 1_565 S
C368 C371 1.382 . S
C368 H379 0.930 1_565 S
C369 C367 1.369 . S
C369 C371 1.392 . S
C369 H380 0.930 . S
C370 C366 1.373 1_545 S
C370 C368 1.383 1_545 S
C370 H381 0.931 . S
C371 C368 1.382 . S
C371 C369 1.392 . S
C372 Eu343 2.828 1_565 S
C372 O356 1.249 1_565 S
C372 O357 1.244 . S
C372 C366 1.505 . S
C373 O360 1.258 . S
C373 O361 1.242 1_556 S
H374 C346 0.930 . S
H375 C347 0.930 . S
H376 C348 0.930 . S
H377 C349 0.931 1_565 S
H378 C367 0.930 . S
H379 C368 0.930 1_545 S
H380 C369 0.930 . S
H381 C370 0.931 . S
Eu382 C391 2.828 1_455 S
Eu382 O393 2.392 1_556 S
Eu382 O395 2.418 . S
Eu382 O400 2.373 1_455 S
Eu382 O403 2.488 . S
Eu382 O404 2.471 1_455 S
Eu382 O405 2.349 1_455 S
Eu383 O392 2.373 1_655 S
Eu383 O396 2.488 . S
Eu383 O397 2.471 1_655 S
Eu383 O398 2.349 1_655 S
Eu383 O401 2.392 . S
Eu383 O402 2.418 . S
Eu383 C412 2.828 1_655 S
C384 O402 1.244 . S
C384 O405 1.265 1_554 S
C385 C386 1.379 . S
C385 C389 1.373 . S
C385 C391 1.505 . S
C386 C385 1.379 . S
C386 C388 1.369 . S
C386 H414 0.930 . S
C387 C389 1.383 . S
C387 C390 1.382 . S
C387 H415 0.930 . S
C388 C386 1.369 . S
C388 C390 1.392 . S
C388 H416 0.930 . S
C389 C385 1.373 . S
C389 C387 1.383 . S
C389 H417 0.931 1_655 S
C390 C387 1.382 . S
C390 C388 1.392 . S
C391 Eu382 2.828 1_655 S
C391 C385 1.505 . S
C391 O403 1.249 1_655 S
C391 O404 1.244 . S
O392 Eu383 2.373 1_455 S
O392 C394 1.258 . S
O393 Eu382 2.392 1_554 S
O393 C394 1.242 . S
C394 O392 1.258 . S
C394 O393 1.242 . S
O395 Eu382 2.418 . S
O395 C399 1.244 1_556 S
O396 Eu383 2.488 . S
O396 C412 1.249 1_655 S
O397 Eu383 2.471 1_455 S
O397 C412 1.244 . S
O398 Eu383 2.349 1_455 S
O398 C399 1.265 . S
C399 O395 1.244 1_554 S
C399 O398 1.265 . S
O400 Eu382 2.373 1_655 S
O400 C413 1.258 . S
O401 Eu383 2.392 . S
O401 C413 1.242 1_554 S
O402 Eu383 2.418 . S
O402 C384 1.244 . S
O403 Eu382 2.488 . S
O403 C391 1.249 1_455 S
O404 Eu382 2.471 1_655 S
O404 C391 1.244 . S
O405 Eu382 2.349 1_655 S
O405 C384 1.265 1_556 S
C406 C407 1.379 . S
C406 C410 1.373 . S
C406 C412 1.505 . S
C407 C406 1.379 . S
C407 C409 1.369 . S
C407 H418 0.930 . S
C408 C410 1.383 . S
C408 C411 1.382 . S
C408 H419 0.930 . S
C409 C407 1.369 . S
C409 C411 1.392 . S
C409 H420 0.930 . S
C410 C406 1.373 . S
C410 C408 1.383 . S
C410 H421 0.931 1_455 S
C411 C408 1.382 . S
C411 C409 1.392 . S
C412 Eu383 2.828 1_455 S
C412 O396 1.249 1_455 S
C412 O397 1.244 . S
C412 C406 1.505 . S
C413 O400 1.258 . S
C413 O401 1.242 1_556 S
H414 C386 0.930 . S
H415 C387 0.930 . S
H416 C388 0.930 . S
H417 C389 0.931 1_455 S
H418 C407 0.930 . S
H419 C408 0.930 . S
H420 C409 0.930 . S
H421 C410 0.931 1_655 S
Eu422 C431 2.828 . S
Eu422 O433 2.392 . S
Eu422 O435 2.418 . S
Eu422 O440 2.373 . S
Eu422 O443 2.488 . S
Eu422 O444 2.471 . S
Eu422 O445 2.349 . S
Eu423 O432 2.373 . S
Eu423 O436 2.488 . S
Eu423 O437 2.471 . S
Eu423 O438 2.349 1_556 S
Eu423 O441 2.392 1_556 S
Eu423 O442 2.418 . S
Eu423 C452 2.828 . S
C424 O442 1.244 1_554 S
C424 O445 1.265 . S
C425 C426 1.379 . S
C425 C429 1.373 . S
C425 C431 1.505 . S
C426 C425 1.379 . S
C426 C428 1.369 . S
C426 H454 0.930 . S
C427 C429 1.383 . S
C427 C430 1.382 . S
C427 H455 0.930 . S
C428 C426 1.369 . S
C428 C430 1.392 . S
C428 H456 0.930 . S
C429 C425 1.373 . S
C429 C427 1.383 . S
C429 H457 0.931 . S
C430 C427 1.382 . S
C430 C428 1.392 . S
C431 Eu422 2.828 . S
C431 C425 1.505 . S
C431 O443 1.249 . S
C431 O444 1.244 . S
O432 Eu423 2.373 . S
O432 C434 1.258 . S
O433 Eu422 2.392 . S
O433 C434 1.242 1_554 S
C434 O432 1.258 . S
C434 O433 1.242 1_556 S
O435 Eu422 2.418 . S
O435 C439 1.244 . S
O436 Eu423 2.488 . S
O436 C452 1.249 . S
O437 Eu423 2.471 . S
O437 C452 1.244 . S
O438 Eu423 2.349 1_554 S
O438 C439 1.265 . S
C439 O435 1.244 . S
C439 O438 1.265 . S
O440 Eu422 2.373 . S
O440 C453 1.258 . S
O441 Eu423 2.392 1_554 S
O441 C453 1.242 . S
O442 Eu423 2.418 . S
O442 C424 1.244 1_556 S
O443 Eu422 2.488 . S
O443 C431 1.249 . S
O444 Eu422 2.471 . S
O444 C431 1.244 . S
O445 Eu422 2.349 . S
O445 C424 1.265 . S
C446 C447 1.379 . S
C446 C450 1.373 . S
C446 C452 1.505 . S
C447 C446 1.379 . S
C447 C449 1.369 . S
C447 H458 0.930 . S
C448 C450 1.383 . S
C448 C451 1.382 . S
C448 H459 0.930 . S
C449 C447 1.369 . S
C449 C451 1.392 . S
C449 H460 0.930 . S
C450 C446 1.373 . S
C450 C448 1.383 . S
C450 H461 0.931 . S
C451 C448 1.382 . S
C451 C449 1.392 . S
C452 Eu423 2.828 . S
C452 O436 1.249 . S
C452 O437 1.244 . S
C452 C446 1.505 . S
C453 O440 1.258 . S
C453 O441 1.242 . S
H454 C426 0.930 . S
H455 C427 0.930 . S
H456 C428 0.930 . S
H457 C429 0.931 . S
H458 C447 0.930 . S
H459 C448 0.930 . S
H460 C449 0.930 . S
H461 C450 0.931 . S
Eu462 C471 2.828 . S
Eu462 O473 2.392 . S
Eu462 O475 2.418 . S
Eu462 O480 2.373 . S
Eu462 O483 2.488 . S
Eu462 O484 2.471 . S
Eu462 O485 2.349 . S
Eu463 O472 2.373 . S
Eu463 O476 2.488 . S
Eu463 O477 2.471 . S
Eu463 O478 2.349 . S
Eu463 O481 2.392 . S
Eu463 O482 2.418 . S
Eu463 C492 2.828 . S
C464 O482 1.244 . S
C464 O485 1.265 . S
C465 C466 1.379 . S
C465 C469 1.373 . S
C465 C471 1.505 . S
C466 C465 1.379 . S
C466 C468 1.369 . S
C466 H494 0.930 . S
C467 C469 1.383 . S
C467 C470 1.382 . S
C467 H495 0.930 . S
C468 C466 1.369 . S
C468 C470 1.392 . S
C468 H496 0.930 . S
C469 C465 1.373 . S
C469 C467 1.383 . S
C469 H497 0.931 . S
C470 C467 1.382 . S
C470 C468 1.392 . S
C471 Eu462 2.828 . S
C471 C465 1.505 . S
C471 O483 1.249 . S
C471 O484 1.244 . S
O472 Eu463 2.373 . S
O472 C474 1.258 . S
O473 Eu462 2.392 . S
O473 C474 1.242 . S
C474 O472 1.258 . S
C474 O473 1.242 . S
O475 Eu462 2.418 . S
O475 C479 1.244 . S
O476 Eu463 2.488 . S
O476 C492 1.249 . S
O477 Eu463 2.471 . S
O477 C492 1.244 . S
O478 Eu463 2.349 . S
O478 C479 1.265 . S
C479 O475 1.244 . S
C479 O478 1.265 . S
O480 Eu462 2.373 . S
O480 C493 1.258 . S
O481 Eu463 2.392 . S
O481 C493 1.242 . S
O482 Eu463 2.418 . S
O482 C464 1.244 . S
O483 Eu462 2.488 . S
O483 C471 1.249 . S
O484 Eu462 2.471 . S
O484 C471 1.244 . S
O485 Eu462 2.349 . S
O485 C464 1.265 . S
C486 C487 1.379 . S
C486 C490 1.373 . S
C486 C492 1.505 . S
C487 C486 1.379 . S
C487 C489 1.369 . S
C487 H498 0.930 . S
C488 C490 1.383 . S
C488 C491 1.382 . S
C488 H499 0.930 . S
C489 C487 1.369 . S
C489 C491 1.392 . S
C489 H500 0.930 . S
C490 C486 1.373 . S
C490 C488 1.383 . S
C490 H501 0.931 . S
C491 C488 1.382 . S
C491 C489 1.392 . S
C492 Eu463 2.828 . S
C492 O476 1.249 . S
C492 O477 1.244 . S
C492 C486 1.505 . S
C493 O480 1.258 . S
C493 O481 1.242 . S
H494 C466 0.930 . S
H495 C467 0.930 . S
H496 C468 0.930 . S
H497 C469 0.931 . S
H498 C487 0.930 . S
H499 C488 0.930 . S
H500 C489 0.930 . S
H501 C490 0.931 . S
Eu502 C511 2.828 . S
Eu502 O513 2.392 . S
Eu502 O515 2.418 . S
Eu502 O520 2.373 . S
Eu502 O523 2.488 . S
Eu502 O524 2.471 . S
Eu502 O525 2.349 . S
Eu503 O512 2.373 . S
Eu503 O516 2.488 . S
Eu503 O517 2.471 . S
Eu503 O518 2.349 . S
Eu503 O521 2.392 . S
Eu503 O522 2.418 . S
Eu503 C532 2.828 . S
C504 O522 1.244 . S
C504 O525 1.265 . S
C505 C506 1.379 . S
C505 C509 1.373 . S
C505 C511 1.505 . S
C506 C505 1.379 . S
C506 C508 1.369 . S
C506 H534 0.930 . S
C507 C509 1.383 . S
C507 C510 1.382 . S
C507 H535 0.930 . S
C508 C506 1.369 . S
C508 C510 1.392 . S
C508 H536 0.930 . S
C509 C505 1.373 . S
C509 C507 1.383 . S
C509 H537 0.931 . S
C510 C507 1.382 . S
C510 C508 1.392 . S
C511 Eu502 2.828 . S
C511 C505 1.505 . S
C511 O523 1.249 . S
C511 O524 1.244 . S
O512 Eu503 2.373 . S
O512 C514 1.258 . S
O513 Eu502 2.392 . S
O513 C514 1.242 . S
C514 O512 1.258 . S
C514 O513 1.242 . S
O515 Eu502 2.418 . S
O515 C519 1.244 . S
O516 Eu503 2.488 . S
O516 C532 1.249 . S
O517 Eu503 2.471 . S
O517 C532 1.244 . S
O518 Eu503 2.349 . S
O518 C519 1.265 . S
C519 O515 1.244 . S
C519 O518 1.265 . S
O520 Eu502 2.373 . S
O520 C533 1.258 . S
O521 Eu503 2.392 . S
O521 C533 1.242 . S
O522 Eu503 2.418 . S
O522 C504 1.244 . S
O523 Eu502 2.488 . S
O523 C511 1.249 . S
O524 Eu502 2.471 . S
O524 C511 1.244 . S
O525 Eu502 2.349 . S
O525 C504 1.265 . S
C526 C527 1.379 . S
C526 C530 1.373 . S
C526 C532 1.505 . S
C527 C526 1.379 . S
C527 C529 1.369 . S
C527 H538 0.930 . S
C528 C530 1.383 . S
C528 C531 1.382 . S
C528 H539 0.930 . S
C529 C527 1.369 . S
C529 C531 1.392 . S
C529 H540 0.930 . S
C530 C526 1.373 . S
C530 C528 1.383 . S
C530 H541 0.931 . S
C531 C528 1.382 . S
C531 C529 1.392 . S
C532 Eu503 2.828 . S
C532 O516 1.249 . S
C532 O517 1.244 . S
C532 C526 1.505 . S
C533 O520 1.258 . S
C533 O521 1.242 . S
H534 C506 0.930 . S
H535 C507 0.930 . S
H536 C508 0.930 . S
H537 C509 0.931 . S
H538 C527 0.930 . S
H539 C528 0.930 . S
H540 C529 0.930 . S
H541 C530 0.931 . S
Eu542 C551 2.828 . S
Eu542 O553 2.392 . S
Eu542 O555 2.418 . S
Eu542 O560 2.373 . S
Eu542 O563 2.488 . S
Eu542 O564 2.471 . S
Eu542 O565 2.349 . S
Eu543 O552 2.373 . S
Eu543 O556 2.488 . S
Eu543 O557 2.471 . S
Eu543 O558 2.349 . S
Eu543 O561 2.392 . S
Eu543 O562 2.418 . S
Eu543 C572 2.828 . S
C544 O562 1.244 . S
C544 O565 1.265 . S
C545 C546 1.379 . S
C545 C549 1.373 . S
C545 C551 1.505 . S
C546 C545 1.379 . S
C546 C548 1.369 . S
C546 H574 0.930 . S
C547 C549 1.383 . S
C547 C550 1.382 . S
C547 H575 0.930 . S
C548 C546 1.369 . S
C548 C550 1.392 . S
C548 H576 0.930 . S
C549 C545 1.373 . S
C549 C547 1.383 . S
C549 H577 0.931 . S
C550 C547 1.382 . S
C550 C548 1.392 . S
C551 Eu542 2.828 . S
C551 C545 1.505 . S
C551 O563 1.249 . S
C551 O564 1.244 . S
O552 Eu543 2.373 . S
O552 C554 1.258 . S
O553 Eu542 2.392 . S
O553 C554 1.242 . S
C554 O552 1.258 . S
C554 O553 1.242 . S
O555 Eu542 2.418 . S
O555 C559 1.244 . S
O556 Eu543 2.488 . S
O556 C572 1.249 . S
O557 Eu543 2.471 . S
O557 C572 1.244 . S
O558 Eu543 2.349 . S
O558 C559 1.265 . S
C559 O555 1.244 . S
C559 O558 1.265 . S
O560 Eu542 2.373 . S
O560 C573 1.258 . S
O561 Eu543 2.392 . S
O561 C573 1.242 . S
O562 Eu543 2.418 . S
O562 C544 1.244 . S
O563 Eu542 2.488 . S
O563 C551 1.249 . S
O564 Eu542 2.471 . S
O564 C551 1.244 . S
O565 Eu542 2.349 . S
O565 C544 1.265 . S
C566 C567 1.379 . S
C566 C570 1.373 . S
C566 C572 1.505 . S
C567 C566 1.379 . S
C567 C569 1.369 . S
C567 H578 0.930 . S
C568 C570 1.383 . S
C568 C571 1.382 . S
C568 H579 0.930 . S
C569 C567 1.369 . S
C569 C571 1.392 . S
C569 H580 0.930 . S
C570 C566 1.373 . S
C570 C568 1.383 . S
C570 H581 0.931 . S
C571 C568 1.382 . S
C571 C569 1.392 . S
C572 Eu543 2.828 . S
C572 O556 1.249 . S
C572 O557 1.244 . S
C572 C566 1.505 . S
C573 O560 1.258 . S
C573 O561 1.242 . S
H574 C546 0.930 . S
H575 C547 0.930 . S
H576 C548 0.930 . S
H577 C549 0.931 . S
H578 C567 0.930 . S
H579 C568 0.930 . S
H580 C569 0.930 . S
H581 C570 0.931 . S
Eu582 C591 2.828 . S
Eu582 O593 2.392 . S
Eu582 O595 2.418 . S
Eu582 O600 2.373 . S
Eu582 O603 2.488 . S
Eu582 O604 2.471 . S
Eu582 O605 2.349 . S
Eu583 O592 2.373 . S
Eu583 O596 2.488 . S
Eu583 O597 2.471 . S
Eu583 O598 2.349 . S
Eu583 O601 2.392 . S
Eu583 O602 2.418 . S
Eu583 C612 2.828 . S
C584 O602 1.244 . S
C584 O605 1.265 . S
C585 C586 1.379 . S
C585 C589 1.373 . S
C585 C591 1.505 . S
C586 C585 1.379 . S
C586 C588 1.369 . S
C586 H614 0.930 . S
C587 C589 1.383 . S
C587 C590 1.382 . S
C587 H615 0.930 . S
C588 C586 1.369 . S
C588 C590 1.392 . S
C588 H616 0.930 . S
C589 C585 1.373 . S
C589 C587 1.383 . S
C589 H617 0.931 . S
C590 C587 1.382 . S
C590 C588 1.392 . S
C591 Eu582 2.828 . S
C591 C585 1.505 . S
C591 O603 1.249 . S
C591 O604 1.244 . S
O592 Eu583 2.373 . S
O592 C594 1.258 . S
O593 Eu582 2.392 . S
O593 C594 1.242 . S
C594 O592 1.258 . S
C594 O593 1.242 . S
O595 Eu582 2.418 . S
O595 C599 1.244 . S
O596 Eu583 2.488 . S
O596 C612 1.249 . S
O597 Eu583 2.471 . S
O597 C612 1.244 . S
O598 Eu583 2.349 . S
O598 C599 1.265 . S
C599 O595 1.244 . S
C599 O598 1.265 . S
O600 Eu582 2.373 . S
O600 C613 1.258 . S
O601 Eu583 2.392 . S
O601 C613 1.242 . S
O602 Eu583 2.418 . S
O602 C584 1.244 . S
O603 Eu582 2.488 . S
O603 C591 1.249 . S
O604 Eu582 2.471 . S
O604 C591 1.244 . S
O605 Eu582 2.349 . S
O605 C584 1.265 . S
C606 C607 1.379 . S
C606 C610 1.373 . S
C606 C612 1.505 . S
C607 C606 1.379 . S
C607 C609 1.369 . S
C607 H618 0.930 . S
C608 C610 1.383 . S
C608 C611 1.382 . S
C608 H619 0.930 . S
C609 C607 1.369 . S
C609 C611 1.392 . S
C609 H620 0.930 . S
C610 C606 1.373 . S
C610 C608 1.383 . S
C610 H621 0.931 . S
C611 C608 1.382 . S
C611 C609 1.392 . S
C612 Eu583 2.828 . S
C612 O596 1.249 . S
C612 O597 1.244 . S
C612 C606 1.505 . S
C613 O600 1.258 . S
C613 O601 1.242 . S
H614 C586 0.930 . S
H615 C587 0.930 . S
H616 C588 0.930 . S
H617 C589 0.931 . S
H618 C607 0.930 . S
H619 C608 0.930 . S
H620 C609 0.930 . S
H621 C610 0.931 . S
Eu622 C631 2.828 . S
Eu622 O633 2.392 . S
Eu622 O635 2.418 . S
Eu622 O640 2.373 . S
Eu622 O643 2.488 . S
Eu622 O644 2.471 . S
Eu622 O645 2.349 . S
Eu623 O632 2.373 . S
Eu623 O636 2.488 . S
Eu623 O637 2.471 . S
Eu623 O638 2.349 . S
Eu623 O641 2.392 . S
Eu623 O642 2.418 . S
Eu623 C652 2.828 . S
C624 O642 1.244 . S
C624 O645 1.265 . S
C625 C626 1.379 . S
C625 C629 1.373 . S
C625 C631 1.505 . S
C626 C625 1.379 . S
C626 C628 1.369 . S
C626 H654 0.930 . S
C627 C629 1.383 . S
C627 C630 1.382 . S
C627 H655 0.930 . S
C628 C626 1.369 . S
C628 C630 1.392 . S
C628 H656 0.930 . S
C629 C625 1.373 . S
C629 C627 1.383 . S
C629 H657 0.931 . S
C630 C627 1.382 . S
C630 C628 1.392 . S
C631 Eu622 2.828 . S
C631 C625 1.505 . S
C631 O643 1.249 . S
C631 O644 1.244 . S
O632 Eu623 2.373 . S
O632 C634 1.258 . S
O633 Eu622 2.392 . S
O633 C634 1.242 . S
C634 O632 1.258 . S
C634 O633 1.242 . S
O635 Eu622 2.418 . S
O635 C639 1.244 . S
O636 Eu623 2.488 . S
O636 C652 1.249 . S
O637 Eu623 2.471 . S
O637 C652 1.244 . S
O638 Eu623 2.349 . S
O638 C639 1.265 . S
C639 O635 1.244 . S
C639 O638 1.265 . S
O640 Eu622 2.373 . S
O640 C653 1.258 . S
O641 Eu623 2.392 . S
O641 C653 1.242 . S
O642 Eu623 2.418 . S
O642 C624 1.244 . S
O643 Eu622 2.488 . S
O643 C631 1.249 . S
O644 Eu622 2.471 . S
O644 C631 1.244 . S
O645 Eu622 2.349 . S
O645 C624 1.265 . S
C646 C647 1.379 . S
C646 C650 1.373 . S
C646 C652 1.505 . S
C647 C646 1.379 . S
C647 C649 1.369 . S
C647 H658 0.930 . S
C648 C650 1.383 . S
C648 C651 1.382 . S
C648 H659 0.930 . S
C649 C647 1.369 . S
C649 C651 1.392 . S
C649 H660 0.930 . S
C650 C646 1.373 . S
C650 C648 1.383 . S
C650 H661 0.931 . S
C651 C648 1.382 . S
C651 C649 1.392 . S
C652 Eu623 2.828 . S
C652 O636 1.249 . S
C652 O637 1.244 . S
C652 C646 1.505 . S
C653 O640 1.258 . S
C653 O641 1.242 . S
H654 C626 0.930 . S
H655 C627 0.930 . S
H656 C628 0.930 . S
H657 C629 0.931 . S
H658 C647 0.930 . S
H659 C648 0.930 . S
H660 C649 0.930 . S
H661 C650 0.931 . S
Eu662 C671 2.828 . S
Eu662 O673 2.392 . S
Eu662 O675 2.418 . S
Eu662 O680 2.373 . S
Eu662 O683 2.488 . S
Eu662 O684 2.471 . S
Eu662 O685 2.349 . S
Eu663 O672 2.373 . S
Eu663 O676 2.488 . S
Eu663 O677 2.471 . S
Eu663 O678 2.349 . S
Eu663 O681 2.392 . S
Eu663 O682 2.418 . S
Eu663 C692 2.828 . S
C664 O682 1.244 . S
C664 O685 1.265 . S
C665 C666 1.379 . S
C665 C669 1.373 . S
C665 C671 1.505 . S
C666 C665 1.379 . S
C666 C668 1.369 . S
C666 H694 0.930 . S
C667 C669 1.383 . S
C667 C670 1.382 . S
C667 H695 0.930 . S
C668 C666 1.369 . S
C668 C670 1.392 . S
C668 H696 0.930 . S
C669 C665 1.373 . S
C669 C667 1.383 . S
C669 H697 0.931 . S
C670 C667 1.382 . S
C670 C668 1.392 . S
C671 Eu662 2.828 . S
C671 C665 1.505 . S
C671 O683 1.249 . S
C671 O684 1.244 . S
O672 Eu663 2.373 . S
O672 C674 1.258 . S
O673 Eu662 2.392 . S
O673 C674 1.242 . S
C674 O672 1.258 . S
C674 O673 1.242 . S
O675 Eu662 2.418 . S
O675 C679 1.244 . S
O676 Eu663 2.488 . S
O676 C692 1.249 . S
O677 Eu663 2.471 . S
O677 C692 1.244 . S
O678 Eu663 2.349 . S
O678 C679 1.265 . S
C679 O675 1.244 . S
C679 O678 1.265 . S
O680 Eu662 2.373 . S
O680 C693 1.258 . S
O681 Eu663 2.392 . S
O681 C693 1.242 . S
O682 Eu663 2.418 . S
O682 C664 1.244 . S
O683 Eu662 2.488 . S
O683 C671 1.249 . S
O684 Eu662 2.471 . S
O684 C671 1.244 . S
O685 Eu662 2.349 . S
O685 C664 1.265 . S
C686 C687 1.379 . S
C686 C690 1.373 . S
C686 C692 1.505 . S
C687 C686 1.379 . S
C687 C689 1.369 . S
C687 H698 0.930 . S
C688 C690 1.383 . S
C688 C691 1.382 . S
C688 H699 0.930 . S
C689 C687 1.369 . S
C689 C691 1.392 . S
C689 H700 0.930 . S
C690 C686 1.373 . S
C690 C688 1.383 . S
C690 H701 0.931 . S
C691 C688 1.382 . S
C691 C689 1.392 . S
C692 Eu663 2.828 . S
C692 O676 1.249 . S
C692 O677 1.244 . S
C692 C686 1.505 . S
C693 O680 1.258 . S
C693 O681 1.242 . S
H694 C666 0.930 . S
H695 C667 0.930 . S
H696 C668 0.930 . S
H697 C669 0.931 . S
H698 C687 0.930 . S
H699 C688 0.930 . S
H700 C689 0.930 . S
H701 C690 0.931 . S
C702 C703 1.391 . S
C702 C704 1.394 . S
C702 H718 0.931 . S
C703 C702 1.391 . S
C703 C707 1.376 . S
C704 C702 1.394 . S
C704 C705 1.369 . S
C704 C708 1.531 . S
C705 C704 1.369 . S
C705 C706 1.410 . S
C705 C713 1.503 . S
C706 C705 1.410 . S
C706 C707 1.392 . S
C706 C709 1.511 . S
C707 C703 1.376 . S
C707 C706 1.392 . S
C707 H719 0.929 . S
C708 C704 1.531 . S
C708 H720 0.960 . S
C708 H721 0.962 . S
C708 H722 0.960 . S
C709 C706 1.511 . S
C709 H723 0.961 . S
C709 H724 0.961 . S
C709 H725 0.961 . S
C710 C711 1.370 . S
C710 C712 1.363 . S
C710 H726 0.931 1_554 S
C711 C710 1.370 . S
C711 C715 1.408 . S
C712 C710 1.363 . S
C712 C713 1.370 . S
C712 C716 1.524 1_554 S
C713 C705 1.503 . S
C713 C712 1.370 . S
C713 C714 1.403 . S
C714 C713 1.403 . S
C714 C715 1.404 . S
C714 C717 1.539 . S
C715 C711 1.408 . S
C715 C714 1.404 . S
C715 H727 0.930 . S
C716 C712 1.524 1_556 S
C716 H728 0.956 . S
C716 H729 0.961 . S
C716 H730 0.961 . S
C717 C714 1.539 . S
C717 H731 0.958 . S
C717 H732 0.961 . S
C717 H733 0.960 . S
H718 C702 0.931 . S
H719 C707 0.929 . S
H720 C708 0.960 . S
H721 C708 0.962 . S
H722 C708 0.960 . S
H723 C709 0.961 . S
H724 C709 0.961 . S
H725 C709 0.961 . S
H726 C710 0.931 1_556 S
H727 C715 0.930 . S
H728 C716 0.956 . S
H729 C716 0.961 . S
H730 C716 0.961 . S
H731 C717 0.958 . S
H732 C717 0.961 . S
H733 C717 0.960 . S
C734 C735 1.391 . S
C734 C736 1.394 . S
C734 H750 0.931 . S
C735 C734 1.391 . S
C735 C739 1.376 . S
C736 C734 1.394 . S
C736 C737 1.369 . S
C736 C740 1.531 . S
C737 C736 1.369 . S
C737 C738 1.410 . S
C737 C745 1.503 . S
C738 C737 1.410 . S
C738 C739 1.392 . S
C738 C741 1.511 . S
C739 C735 1.376 . S
C739 C738 1.392 . S
C739 H751 0.929 . S
C740 C736 1.531 . S
C740 H752 0.960 . S
C740 H753 0.962 . S
C740 H754 0.960 . S
C741 C738 1.511 . S
C741 H755 0.961 . S
C741 H756 0.961 . S
C741 H757 0.961 . S
C742 C743 1.370 . S
C742 C744 1.363 . S
C742 H758 0.931 . S
C743 C742 1.370 . S
C743 C747 1.408 . S
C744 C742 1.363 . S
C744 C745 1.370 . S
C744 C748 1.524 . S
C745 C737 1.503 . S
C745 C744 1.370 . S
C745 C746 1.403 . S
C746 C745 1.403 . S
C746 C747 1.404 . S
C746 C749 1.552 . S
C747 C743 1.408 . S
C747 C746 1.404 . S
C747 H759 0.930 1_554 S
C748 C744 1.524 . S
C748 H760 0.956 . S
C748 H761 0.961 . S
C748 H762 0.961 . S
C749 C746 1.552 . S
C749 H763 0.950 1_554 S
C749 H764 0.951 1_554 S
C749 H765 0.966 . S
H750 C734 0.931 . S
H751 C739 0.929 . S
H752 C740 0.960 . S
H753 C740 0.962 . S
H754 C740 0.960 . S
H755 C741 0.961 . S
H756 C741 0.961 . S
H757 C741 0.961 . S
H758 C742 0.931 . S
H759 C747 0.930 1_556 S
H760 C748 0.956 . S
H761 C748 0.961 . S
H762 C748 0.961 . S
H763 C749 0.950 1_556 S
H764 C749 0.951 1_556 S
H765 C749 0.966 . S
C766 C767 1.391 . S
C766 C768 1.394 . S
C766 H782 0.931 1_554 S
C767 C766 1.391 . S
C767 C771 1.376 . S
C768 C766 1.394 . S
C768 C769 1.369 . S
C768 C772 1.531 1_554 S
C769 C768 1.369 . S
C769 C770 1.410 . S
C769 C777 1.503 . S
C770 C769 1.410 . S
C770 C771 1.392 . S
C770 C773 1.511 . S
C771 C767 1.376 . S
C771 C770 1.392 . S
C771 H783 0.929 . S
C772 C768 1.531 1_556 S
C772 H784 0.960 . S
C772 H785 0.962 . S
C772 H786 0.960 . S
C773 C770 1.511 . S
C773 H787 0.961 . S
C773 H788 0.961 . S
C773 H789 0.961 . S
C774 C775 1.370 . S
C774 C776 1.363 . S
C774 H790 0.931 . S
C775 C774 1.370 . S
C775 C779 1.408 . S
C776 C774 1.363 . S
C776 C777 1.370 . S
C776 C780 1.524 . S
C777 C769 1.503 . S
C777 C776 1.370 . S
C777 C778 1.403 . S
C778 C777 1.403 . S
C778 C779 1.404 . S
C778 C781 1.539 . S
C779 C775 1.408 . S
C779 C778 1.404 . S
C779 H791 0.930 . S
C780 C776 1.524 . S
C780 H792 0.956 . S
C780 H793 0.961 . S
C780 H794 0.961 . S
C781 C778 1.539 . S
C781 H795 0.958 1_554 S
C781 H796 0.961 . S
C781 H797 0.960 . S
H782 C766 0.931 1_556 S
H783 C771 0.929 . S
H784 C772 0.960 . S
H785 C772 0.962 . S
H786 C772 0.960 . S
H787 C773 0.961 . S
H788 C773 0.961 . S
H789 C773 0.961 . S
H790 C774 0.931 . S
H791 C779 0.930 . S
H792 C780 0.956 . S
H793 C780 0.961 . S
H794 C780 0.961 . S
H795 C781 0.958 1_556 S
H796 C781 0.961 . S
H797 C781 0.960 . S
C798 C799 1.391 . S
C798 C800 1.394 . S
C798 H814 0.931 . S
C799 C798 1.391 . S
C799 C803 1.376 . S
C800 C798 1.394 . S
C800 C801 1.369 . S
C800 C804 1.531 . S
C801 C800 1.369 . S
C801 C802 1.410 . S
C801 C809 1.503 . S
C802 C801 1.410 . S
C802 C803 1.392 . S
C802 C805 1.511 . S
C803 C799 1.376 . S
C803 C802 1.392 . S
C803 H815 0.929 . S
C804 C800 1.531 . S
C804 H816 0.960 . S
C804 H817 0.962 . S
C804 H818 0.960 . S
C805 C802 1.511 . S
C805 H819 0.961 1_556 S
C805 H820 0.961 1_556 S
C805 H821 0.961 . S
C806 C807 1.370 1_554 S
C806 C808 1.361 1_554 S
C806 H822 0.931 . S
C807 C806 1.370 1_556 S
C807 C811 1.408 . S
C808 C806 1.361 1_556 S
C808 C809 1.389 . S
C808 C812 1.508 1_556 S
C809 C801 1.503 . S
C809 C808 1.389 . S
C809 C810 1.403 . S
C810 C809 1.403 . S
C810 C811 1.404 . S
C810 C813 1.539 . S
C811 C807 1.408 . S
C811 C810 1.404 . S
C811 H823 0.930 . S
C812 C808 1.508 1_554 S
C812 H824 0.956 . S
C812 H825 0.961 . S
C812 H826 0.961 . S
C813 C810 1.539 . S
C813 H827 0.958 . S
C813 H828 0.961 . S
C813 H829 0.960 . S
H814 C798 0.931 . S
H815 C803 0.929 . S
H816 C804 0.960 . S
H817 C804 0.962 . S
H818 C804 0.960 . S
H819 C805 0.961 1_554 S
H820 C805 0.961 1_554 S
H821 C805 0.961 . S
H822 C806 0.931 . S
H823 C811 0.930 . S
H824 C812 0.956 . S
H825 C812 0.961 . S
H826 C812 0.961 . S
H827 C813 0.958 . S
H828 C813 0.961 . S
H829 C813 0.960 . S
C830 C831 1.391 . S
C830 C832 1.394 . S
C830 H846 0.931 . S
C831 C830 1.391 . S
C831 C835 1.376 . S
C832 C830 1.394 . S
C832 C833 1.369 . S
C832 C836 1.531 . S
C833 C832 1.369 . S
C833 C834 1.410 . S
C833 C841 1.503 . S
C834 C833 1.410 . S
C834 C835 1.392 . S
C834 C837 1.511 . S
C835 C831 1.376 . S
C835 C834 1.392 . S
C835 H847 0.929 . S
C836 C832 1.531 . S
C836 H848 0.960 . S
C836 H849 0.962 . S
C836 H850 0.960 . S
C837 C834 1.511 . S
C837 H851 0.961 1_556 S
C837 H852 0.947 1_556 S
C837 H853 0.961 . S
C838 C839 1.370 . S
C838 C840 1.363 . S
C838 H854 0.931 1_556 S
C839 C838 1.370 . S
C839 C843 1.408 . S
C840 C838 1.363 . S
C840 C841 1.370 . S
C840 C844 1.524 . S
C841 C833 1.503 . S
C841 C840 1.370 . S
C841 C842 1.403 . S
C842 C841 1.403 . S
C842 C843 1.404 . S
C842 C845 1.539 . S
C843 C839 1.408 . S
C843 C842 1.404 . S
C843 H855 0.930 . S
C844 C840 1.524 . S
C844 H856 0.956 . S
C844 H857 0.961 . S
C844 H858 0.961 1_556 S
C845 C842 1.539 . S
C845 H859 0.958 . S
C845 H860 0.961 . S
C845 H861 0.960 . S
H846 C830 0.931 . S
H847 C835 0.929 . S
H848 C836 0.960 . S
H849 C836 0.962 . S
H850 C836 0.960 . S
H851 C837 0.961 1_554 S
H852 C837 0.947 1_554 S
H853 C837 0.961 . S
H854 C838 0.931 1_554 S
H855 C843 0.930 . S
H856 C844 0.956 . S
H857 C844 0.961 . S
H858 C844 0.961 1_554 S
H859 C845 0.958 . S
H860 C845 0.961 . S
H861 C845 0.960 . S
C862 C863 1.391 . S
C862 C864 1.386 1_556 S
C862 H878 0.929 1_556 S
C863 C862 1.391 . S
C863 C867 1.376 . S
C864 C862 1.386 1_554 S
C864 C865 1.365 1_554 S
C864 C868 1.543 . S
C865 C864 1.365 1_556 S
C865 C866 1.410 . S
C865 C873 1.503 . S
C866 C865 1.410 . S
C866 C867 1.392 . S
C866 C869 1.511 . S
C867 C863 1.376 . S
C867 C866 1.392 . S
C867 H879 0.929 . S
C868 C864 1.543 . S
C868 H880 0.960 . S
C868 H881 0.976 . S
C868 H882 0.960 . S
C869 C866 1.511 . S
C869 H883 0.961 . S
C869 H884 0.961 . S
C869 H885 0.961 . S
C870 C871 1.359 1_556 S
C870 C872 1.363 . S
C870 H886 0.931 . S
C871 C870 1.359 1_554 S
C871 C875 1.419 . S
C872 C870 1.363 . S
C872 C873 1.370 . S
C872 C876 1.524 . S
C873 C865 1.503 . S
C873 C872 1.370 . S
C873 C874 1.403 1_556 S
C874 C873 1.403 1_554 S
C874 C875 1.404 . S
C874 C877 1.539 . S
C875 C871 1.419 . S
C875 C874 1.404 . S
C875 H887 0.930 . S
C876 C872 1.524 . S
C876 H888 0.956 . S
C876 H889 0.961 . S
C876 H890 0.961 . S
C877 C874 1.539 . S
C877 H891 0.958 . S
C877 H892 0.961 . S
C877 H893 0.960 . S
H878 C862 0.929 1_554 S
H879 C867 0.929 . S
H880 C868 0.960 . S
H881 C868 0.976 . S
H882 C868 0.960 . S
H883 C869 0.961 . S
H884 C869 0.961 . S
H885 C869 0.961 . S
H886 C870 0.931 . S
H887 C875 0.930 . S
H888 C876 0.956 . S
H889 C876 0.961 . S
H890 C876 0.961 . S
H891 C877 0.958 . S
H892 C877 0.961 . S
H893 C877 0.960 . S
C894 C895 1.391 . S
C894 C896 1.395 . S
C894 H910 0.931 1_556 S
C895 C894 1.391 . S
C895 C899 1.376 . S
C896 C894 1.395 . S
C896 C897 1.372 . S
C896 C900 1.527 1_556 S
C897 C896 1.372 . S
C897 C898 1.410 . S
C897 C905 1.503 . S
C898 C897 1.410 . S
C898 C899 1.392 . S
C898 C901 1.511 . S
C899 C895 1.376 . S
C899 C898 1.392 . S
C899 H911 0.929 . S
C900 C896 1.527 1_554 S
C900 H912 0.960 . S
C900 H913 0.962 . S
C900 H914 0.960 . S
C901 C898 1.511 . S
C901 H915 0.961 . S
C901 H916 0.961 . S
C901 H917 0.961 . S
C902 C903 1.370 . S
C902 C904 1.363 . S
C902 H918 0.931 . S
C903 C902 1.370 . S
C903 C907 1.408 . S
C904 C902 1.363 . S
C904 C905 1.370 . S
C904 C908 1.524 . S
C905 C897 1.503 . S
C905 C904 1.370 . S
C905 C906 1.403 . S
C906 C905 1.403 . S
C906 C907 1.404 . S
C906 C909 1.539 . S
C907 C903 1.408 . S
C907 C906 1.404 . S
C907 H919 0.931 1_556 S
C908 C904 1.524 . S
C908 H920 0.956 . S
C908 H921 0.961 . S
C908 H922 0.961 . S
C909 C906 1.539 . S
C909 H923 0.958 1_556 S
C909 H924 0.961 . S
C909 H925 0.960 . S
H910 C894 0.931 1_554 S
H911 C899 0.929 . S
H912 C900 0.960 . S
H913 C900 0.962 . S
H914 C900 0.960 . S
H915 C901 0.961 . S
H916 C901 0.961 . S
H917 C901 0.961 . S
H918 C902 0.931 . S
H919 C907 0.931 1_554 S
H920 C908 0.956 . S
H921 C908 0.961 . S
H922 C908 0.961 . S
H923 C909 0.958 1_554 S
H924 C909 0.961 . S
H925 C909 0.960 . S
C926 C927 1.391 . S
C926 C928 1.394 . S
C926 H942 0.931 . S
C927 C926 1.391 . S
C927 C931 1.376 . S
C928 C926 1.394 . S
C928 C929 1.369 . S
C928 C932 1.531 . S
C929 C928 1.369 . S
C929 C930 1.410 . S
C929 C937 1.503 . S
C930 C929 1.410 . S
C930 C931 1.392 . S
C930 C933 1.511 . S
C931 C927 1.376 . S
C931 C930 1.392 . S
C931 H943 0.929 . S
C932 C928 1.531 . S
C932 H944 0.960 1_556 S
C932 H945 0.962 . S
C932 H946 0.960 1_556 S
C933 C930 1.511 . S
C933 H947 0.961 . S
C933 H948 0.961 . S
C933 H949 0.961 . S
C934 C935 1.370 . S
C934 C936 1.363 . S
C934 H950 0.931 . S
C935 C934 1.370 . S
C935 C939 1.408 . S
C936 C934 1.363 . S
C936 C937 1.370 . S
C936 C940 1.524 . S
C937 C929 1.503 . S
C937 C936 1.370 . S
C937 C938 1.403 . S
C938 C937 1.403 . S
C938 C939 1.404 . S
C938 C941 1.539 1_556 S
C939 C935 1.408 . S
C939 C938 1.404 . S
C939 H951 0.930 1_556 S
C940 C936 1.524 . S
C940 H952 0.956 . S
C940 H953 0.961 . S
C940 H954 0.961 . S
C941 C938 1.539 1_554 S
C941 H955 0.958 . S
C941 H956 0.961 . S
C941 H957 0.960 . S
H942 C926 0.931 . S
H943 C931 0.929 . S
H944 C932 0.960 1_554 S
H945 C932 0.962 . S
H946 C932 0.960 1_554 S
H947 C933 0.961 . S
H948 C933 0.961 . S
H949 C933 0.961 . S
H950 C934 0.931 . S
H951 C939 0.930 1_554 S
H952 C940 0.956 . S
H953 C940 0.961 . S
H954 C940 0.961 . S
H955 C941 0.958 . S
H956 C941 0.961 . S
H957 C941 0.960 . S
C958 C959 1.391 . S
C958 C960 1.394 . S
C958 H974 0.931 . S
C959 C958 1.391 . S
C959 C963 1.376 1_554 S
C960 C958 1.394 . S
C960 C961 1.369 . S
C960 C964 1.531 . S
C961 C960 1.369 . S
C961 C962 1.410 1_554 S
C961 C969 1.503 . S
C962 C961 1.410 1_556 S
C962 C963 1.392 . S
C962 C965 1.511 . S
C963 C959 1.376 1_556 S
C963 C962 1.392 . S
C963 H975 0.929 . S
C964 C960 1.531 . S
C964 H976 0.960 . S
C964 H977 0.962 . S
C964 H978 0.960 . S
C965 C962 1.511 . S
C965 H979 0.961 . S
C965 H980 0.961 . S
C965 H981 0.961 . S
C966 C967 1.370 1_556 S
C966 C968 1.363 . S
C966 H982 0.931 . S
C967 C966 1.370 1_554 S
C967 C971 1.408 . S
C968 C966 1.363 . S
C968 C969 1.370 1_556 S
C968 C972 1.524 . S
C969 C961 1.503 . S
C969 C968 1.370 1_554 S
C969 C970 1.403 . S
C970 C969 1.403 . S
C970 C971 1.404 . S
C970 C973 1.539 . S
C971 C967 1.408 . S
C971 C970 1.404 . S
C971 H983 0.930 . S
C972 C968 1.524 . S
C972 H984 0.956 . S
C972 H985 0.961 . S
C972 H986 0.961 . S
C973 C970 1.539 . S
C973 H987 0.958 . S
C973 H988 0.961 . S
C973 H989 0.960 . S
H974 C958 0.931 . S
H975 C963 0.929 . S
H976 C964 0.960 . S
H977 C964 0.962 . S
H978 C964 0.960 . S
H979 C965 0.961 . S
H980 C965 0.961 . S
H981 C965 0.961 . S
H982 C966 0.931 . S
H983 C971 0.930 . S
H984 C972 0.956 . S
H985 C972 0.961 . S
H986 C972 0.961 . S
H987 C973 0.958 . S
H988 C973 0.961 . S
H989 C973 0.960 . S
C990 C991 1.391 . S
C990 C992 1.394 . S
C990 H1006 0.931 1_554 S
C991 C990 1.391 . S
C991 C995 1.376 . S
C992 C990 1.394 . S
C992 C993 1.369 . S
C992 C996 1.531 1_554 S
C993 C992 1.369 . S
C993 C994 1.410 . S
C993 C1001 1.503 . S
C994 C993 1.410 . S
C994 C995 1.392 . S
C994 C997 1.511 . S
C995 C991 1.376 . S
C995 C994 1.392 . S
C995 H1007 0.929 . S
C996 C992 1.531 1_556 S
C996 H1008 0.960 . S
C996 H1009 0.962 . S
C996 H1010 0.960 . S
C997 C994 1.511 . S
C997 H1011 0.961 . S
C997 H1012 0.961 . S
C997 H1013 0.961 . S
C998 C999 1.370 . S
C998 C1000 1.363 . S
C998 H1014 0.931 . S
C999 C998 1.370 . S
C999 C1003 1.408 . S
C1000 C998 1.363 . S
C1000 C1001 1.370 . S
C1000 C1004 1.524 . S
C1001 C993 1.503 . S
C1001 C1000 1.370 . S
C1001 C1002 1.403 . S
C1002 C1001 1.403 . S
C1002 C1003 1.404 . S
C1002 C1005 1.539 . S
C1003 C999 1.408 . S
C1003 C1002 1.404 . S
C1003 H1015 0.930 . S
C1004 C1000 1.524 . S
C1004 H1016 0.956 . S
C1004 H1017 0.961 . S
C1004 H1018 0.961 . S
C1005 C1002 1.539 . S
C1005 H1019 0.958 1_554 S
C1005 H1020 0.961 . S
C1005 H1021 0.960 . S
H1006 C990 0.931 1_556 S
H1007 C995 0.929 . S
H1008 C996 0.960 . S
H1009 C996 0.962 . S
H1010 C996 0.960 . S
H1011 C997 0.961 . S
H1012 C997 0.961 . S
H1013 C997 0.961 . S
H1014 C998 0.931 . S
H1015 C1003 0.930 . S
H1016 C1004 0.956 . S
H1017 C1004 0.961 . S
H1018 C1004 0.961 . S
H1019 C1005 0.958 1_556 S
H1020 C1005 0.961 . S
H1021 C1005 0.960 . S
C1022 C1023 1.391 . S
C1022 C1024 1.394 . S
C1022 H1038 0.931 . S
C1023 C1022 1.391 . S
C1023 C1027 1.376 . S
C1024 C1022 1.394 . S
C1024 C1025 1.369 . S
C1024 C1028 1.531 . S
C1025 C1024 1.369 . S
C1025 C1026 1.410 . S
C1025 C1033 1.503 . S
C1026 C1025 1.410 . S
C1026 C1027 1.392 . S
C1026 C1029 1.511 . S
C1027 C1023 1.376 . S
C1027 C1026 1.392 . S
C1027 H1039 0.929 . S
C1028 C1024 1.531 . S
C1028 H1040 0.960 . S
C1028 H1041 0.962 . S
C1028 H1042 0.960 . S
C1029 C1026 1.511 . S
C1029 H1043 0.961 . S
C1029 H1044 0.961 . S
C1029 H1045 0.961 . S
C1030 C1031 1.370 . S
C1030 C1032 1.363 . S
C1030 H1046 0.931 . S
C1031 C1030 1.370 . S
C1031 C1035 1.408 . S
C1032 C1030 1.363 . S
C1032 C1033 1.370 . S
C1032 C1036 1.524 . S
C1033 C1025 1.503 . S
C1033 C1032 1.370 . S
C1033 C1034 1.403 . S
C1034 C1033 1.403 . S
C1034 C1035 1.404 . S
C1034 C1037 1.542 1_554 S
C1035 C1031 1.408 . S
C1035 C1034 1.404 . S
C1035 H1047 0.979 . S
C1036 C1032 1.524 . S
C1036 H1048 0.956 . S
C1036 H1049 0.961 . S
C1036 H1050 0.961 . S
C1037 C1034 1.542 1_556 S
C1037 H1051 0.956 . S
C1037 H1052 0.959 . S
C1037 H1053 0.961 1_556 S
H1038 C1022 0.931 . S
H1039 C1027 0.929 . S
H1040 C1028 0.960 . S
H1041 C1028 0.962 . S
H1042 C1028 0.960 . S
H1043 C1029 0.961 . S
H1044 C1029 0.961 . S
H1045 C1029 0.961 . S
H1046 C1030 0.931 . S
H1047 C1035 0.979 . S
H1048 C1036 0.956 . S
H1049 C1036 0.961 . S
H1050 C1036 0.961 . S
H1051 C1037 0.956 . S
H1052 C1037 0.959 . S
H1053 C1037 0.961 1_554 S
C1054 C1055 1.391 . S
C1054 C1056 1.394 . S
C1054 H1070 0.931 . S
C1055 C1054 1.391 . S
C1055 C1059 1.376 . S
C1056 C1054 1.394 . S
C1056 C1057 1.369 . S
C1056 C1060 1.531 . S
C1057 C1056 1.369 . S
C1057 C1058 1.410 . S
C1057 C1065 1.503 . S
C1058 C1057 1.410 . S
C1058 C1059 1.392 . S
C1058 C1061 1.511 . S
C1059 C1055 1.376 . S
C1059 C1058 1.392 . S
C1059 H1071 0.929 . S
C1060 C1056 1.531 . S
C1060 H1072 0.960 . S
C1060 H1073 0.962 . S
C1060 H1074 0.960 . S
C1061 C1058 1.511 . S
C1061 H1075 0.961 . S
C1061 H1076 0.961 . S
C1061 H1077 0.961 1_554 S
C1062 C1063 1.370 . S
C1062 C1064 1.363 . S
C1062 H1078 0.931 . S
C1063 C1062 1.370 . S
C1063 C1067 1.408 1_554 S
C1064 C1062 1.363 . S
C1064 C1065 1.370 . S
C1064 C1068 1.524 . S
C1065 C1057 1.503 . S
C1065 C1064 1.370 . S
C1065 C1066 1.403 1_554 S
C1066 C1065 1.403 1_556 S
C1066 C1067 1.404 . S
C1066 C1069 1.539 . S
C1067 C1063 1.408 1_556 S
C1067 C1066 1.404 . S
C1067 H1079 0.930 . S
C1068 C1064 1.524 . S
C1068 H1080 0.956 . S
C1068 H1081 0.961 . S
C1068 H1082 0.961 . S
C1069 C1066 1.539 . S
C1069 H1083 0.958 . S
C1069 H1084 0.961 . S
C1069 H1085 0.960 . S
H1070 C1054 0.931 . S
H1071 C1059 0.929 . S
H1072 C1060 0.960 . S
H1073 C1060 0.962 . S
H1074 C1060 0.960 . S
H1075 C1061 0.961 . S
H1076 C1061 0.961 . S
H1077 C1061 0.961 1_556 S
H1078 C1062 0.931 . S
H1079 C1067 0.930 . S
H1080 C1068 0.956 . S
H1081 C1068 0.961 . S
H1082 C1068 0.961 . S
H1083 C1069 0.958 . S
H1084 C1069 0.961 . S
H1085 C1069 0.960 . S
C1086 C1087 1.391 . S
C1086 C1088 1.394 . S
C1086 H1102 0.931 . S
C1087 C1086 1.391 . S
C1087 C1091 1.376 . S
C1088 C1086 1.394 . S
C1088 C1089 1.369 . S
C1088 C1092 1.531 . S
C1089 C1088 1.369 . S
C1089 C1090 1.410 . S
C1089 C1097 1.503 1_655 S
C1090 C1089 1.410 . S
C1090 C1091 1.392 . S
C1090 C1093 1.511 . S
C1091 C1087 1.376 . S
C1091 C1090 1.392 . S
C1091 H1103 0.929 . S
C1092 C1088 1.531 . S
C1092 H1104 0.960 . S
C1092 H1105 0.962 . S
C1092 H1106 0.960 . S
C1093 C1090 1.511 . S
C1093 H1107 0.961 . S
C1093 H1108 0.961 1_655 S
C1093 H1109 0.961 1_655 S
C1094 C1095 1.370 . S
C1094 C1096 1.363 . S
C1094 H1110 0.931 . S
C1095 C1094 1.370 . S
C1095 C1099 1.408 . S
C1096 C1094 1.363 . S
C1096 C1097 1.370 . S
C1096 C1100 1.524 1_455 S
C1097 C1089 1.503 1_455 S
C1097 C1096 1.370 . S
C1097 C1098 1.403 . S
C1098 C1097 1.403 . S
C1098 C1099 1.404 . S
C1098 C1101 1.539 . S
C1099 C1095 1.408 . S
C1099 C1098 1.404 . S
C1099 H1111 0.930 . S
C1100 C1096 1.524 1_655 S
C1100 H1112 0.956 . S
C1100 H1113 0.961 . S
C1100 H1114 0.961 . S
C1101 C1098 1.539 . S
C1101 H1115 0.958 . S
C1101 H1116 0.961 . S
C1101 H1117 0.960 . S
H1102 C1086 0.931 . S
H1103 C1091 0.929 . S
H1104 C1092 0.960 . S
H1105 C1092 0.962 . S
H1106 C1092 0.960 . S
H1107 C1093 0.961 . S
H1108 C1093 0.961 1_455 S
H1109 C1093 0.961 1_455 S
H1110 C1094 0.931 . S
H1111 C1099 0.930 . S
H1112 C1100 0.956 . S
H1113 C1100 0.961 . S
H1114 C1100 0.961 . S
H1115 C1101 0.958 . S
H1116 C1101 0.961 . S
H1117 C1101 0.960 . S
C1118 C1119 1.391 . S
C1118 C1120 1.394 . S
C1118 H1134 0.931 . S
C1119 C1118 1.391 . S
C1119 C1123 1.376 . S
C1120 C1118 1.394 . S
C1120 C1121 1.369 . S
C1120 C1124 1.531 . S
C1121 C1120 1.369 . S
C1121 C1122 1.410 . S
C1121 C1129 1.503 . S
C1122 C1121 1.410 . S
C1122 C1123 1.392 . S
C1122 C1125 1.511 . S
C1123 C1119 1.376 . S
C1123 C1122 1.392 . S
C1123 H1135 0.929 . S
C1124 C1120 1.531 . S
C1124 H1136 0.960 . S
C1124 H1137 0.962 . S
C1124 H1138 0.960 . S
C1125 C1122 1.511 . S
C1125 H1139 0.961 . S
C1125 H1140 0.961 . S
C1125 H1141 0.961 . S
C1126 C1127 1.370 . S
C1126 C1128 1.363 . S
C1126 H1142 0.931 . S
C1127 C1126 1.370 . S
C1127 C1131 1.408 . S
C1128 C1126 1.363 . S
C1128 C1129 1.370 . S
C1128 C1132 1.524 . S
C1129 C1121 1.503 . S
C1129 C1128 1.370 . S
C1129 C1130 1.403 . S
C1130 C1129 1.403 . S
C1130 C1131 1.404 . S
C1130 C1133 1.539 . S
C1131 C1127 1.408 . S
C1131 C1130 1.404 . S
C1131 H1143 0.930 . S
C1132 C1128 1.524 . S
C1132 H1144 0.956 . S
C1132 H1145 0.961 . S
C1132 H1146 0.961 . S
C1133 C1130 1.539 . S
C1133 H1147 0.958 . S
C1133 H1148 0.961 . S
C1133 H1149 0.960 . S
H1134 C1118 0.931 . S
H1135 C1123 0.929 . S
H1136 C1124 0.960 . S
H1137 C1124 0.962 . S
H1138 C1124 0.960 . S
H1139 C1125 0.961 . S
H1140 C1125 0.961 . S
H1141 C1125 0.961 . S
H1142 C1126 0.931 . S
H1143 C1131 0.930 . S
H1144 C1132 0.956 . S
H1145 C1132 0.961 . S
H1146 C1132 0.961 . S
H1147 C1133 0.958 . S
H1148 C1133 0.961 . S
H1149 C1133 0.960 . S
C1150 C1151 1.391 . S
C1150 C1152 1.394 . S
C1150 H1166 0.931 . S
C1151 C1150 1.391 . S
C1151 C1155 1.376 . S
C1152 C1150 1.394 . S
C1152 C1153 1.369 . S
C1152 C1156 1.531 . S
C1153 C1152 1.369 . S
C1153 C1154 1.410 . S
C1153 C1161 1.503 . S
C1154 C1153 1.410 . S
C1154 C1155 1.392 . S
C1154 C1157 1.511 . S
C1155 C1151 1.376 . S
C1155 C1154 1.392 . S
C1155 H1167 0.929 . S
C1156 C1152 1.531 . S
C1156 H1168 0.960 . S
C1156 H1169 0.962 . S
C1156 H1170 0.960 . S
C1157 C1154 1.511 . S
C1157 H1171 0.961 . S
C1157 H1172 0.961 . S
C1157 H1173 0.961 . S
C1158 C1159 1.370 . S
C1158 C1160 1.363 1_565 S
C1158 H1174 0.931 . S
C1159 C1158 1.370 . S
C1159 C1163 1.408 . S
C1160 C1158 1.363 1_545 S
C1160 C1161 1.370 . S
C1160 C1164 1.524 . S
C1161 C1153 1.503 . S
C1161 C1160 1.370 . S
C1161 C1162 1.403 1_545 S
C1162 C1161 1.403 1_565 S
C1162 C1163 1.404 . S
C1162 C1165 1.539 . S
C1163 C1159 1.408 . S
C1163 C1162 1.404 . S
C1163 H1175 0.930 . S
C1164 C1160 1.524 . S
C1164 H1176 0.956 . S
C1164 H1177 0.961 . S
C1164 H1178 0.961 . S
C1165 C1162 1.539 . S
C1165 H1179 0.958 1_565 S
C1165 H1180 0.961 . S
C1165 H1181 0.960 1_565 S
H1166 C1150 0.931 . S
H1167 C1155 0.929 . S
H1168 C1156 0.960 . S
H1169 C1156 0.962 . S
H1170 C1156 0.960 . S
H1171 C1157 0.961 . S
H1172 C1157 0.961 . S
H1173 C1157 0.961 . S
H1174 C1158 0.931 . S
H1175 C1163 0.930 . S
H1176 C1164 0.956 . S
H1177 C1164 0.961 . S
H1178 C1164 0.961 . S
H1179 C1165 0.958 1_545 S
H1180 C1165 0.961 . S
H1181 C1165 0.960 1_545 S
C1182 C1183 1.391 . S
C1182 C1184 1.394 . S
C1182 H1198 0.931 . S
C1183 C1182 1.391 . S
C1183 C1187 1.376 . S
C1184 C1182 1.394 . S
C1184 C1185 1.369 . S
C1184 C1188 1.531 . S
C1185 C1184 1.369 . S
C1185 C1186 1.410 . S
C1185 C1193 1.503 . S
C1186 C1185 1.410 . S
C1186 C1187 1.392 . S
C1186 C1189 1.511 . S
C1187 C1183 1.376 . S
C1187 C1186 1.392 . S
C1187 H1199 0.929 . S
C1188 C1184 1.531 . S
C1188 H1200 0.960 . S
C1188 H1201 0.962 . S
C1188 H1202 0.960 . S
C1189 C1186 1.511 . S
C1189 H1203 0.961 . S
C1189 H1204 0.961 . S
C1189 H1205 0.961 . S
C1190 C1191 1.370 . S
C1190 C1192 1.363 . S
C1190 H1206 0.931 . S
C1191 C1190 1.370 . S
C1191 C1195 1.408 . S
C1192 C1190 1.363 . S
C1192 C1193 1.370 . S
C1192 C1196 1.524 . S
C1193 C1185 1.503 . S
C1193 C1192 1.370 . S
C1193 C1194 1.403 . S
C1194 C1193 1.403 . S
C1194 C1195 1.404 . S
C1194 C1197 1.539 . S
C1195 C1191 1.408 . S
C1195 C1194 1.404 . S
C1195 H1207 0.930 . S
C1196 C1192 1.524 . S
C1196 H1208 0.956 . S
C1196 H1209 0.961 . S
C1196 H1210 0.961 . S
C1197 C1194 1.539 . S
C1197 H1211 0.958 . S
C1197 H1212 0.961 . S
C1197 H1213 0.960 . S
H1198 C1182 0.931 . S
H1199 C1187 0.929 . S
H1200 C1188 0.960 . S
H1201 C1188 0.962 . S
H1202 C1188 0.960 . S
H1203 C1189 0.961 . S
H1204 C1189 0.961 . S
H1205 C1189 0.961 . S
H1206 C1190 0.931 . S
H1207 C1195 0.930 . S
H1208 C1196 0.956 . S
H1209 C1196 0.961 . S
H1210 C1196 0.961 . S
H1211 C1197 0.958 . S
H1212 C1197 0.961 . S
H1213 C1197 0.960 . S
C1214 C1215 1.391 . S
C1214 C1216 1.394 . S
C1214 H1230 0.931 . S
C1215 C1214 1.391 . S
C1215 C1219 1.376 . S
C1216 C1214 1.394 . S
C1216 C1217 1.369 . S
C1216 C1220 1.531 . S
C1217 C1216 1.369 . S
C1217 C1218 1.410 . S
C1217 C1225 1.503 . S
C1218 C1217 1.410 . S
C1218 C1219 1.392 . S
C1218 C1221 1.511 . S
C1219 C1215 1.376 . S
C1219 C1218 1.392 . S
C1219 H1231 0.929 . S
C1220 C1216 1.531 . S
C1220 H1232 0.960 . S
C1220 H1233 0.962 . S
C1220 H1234 0.960 . S
C1221 C1218 1.511 . S
C1221 H1235 0.961 . S
C1221 H1236 0.961 . S
C1221 H1237 0.961 . S
C1222 C1223 1.370 . S
C1222 C1224 1.363 . S
C1222 H1238 0.931 . S
C1223 C1222 1.370 . S
C1223 C1227 1.408 . S
C1224 C1222 1.363 . S
C1224 C1225 1.370 . S
C1224 C1228 1.524 . S
C1225 C1217 1.503 . S
C1225 C1224 1.370 . S
C1225 C1226 1.403 . S
C1226 C1225 1.403 . S
C1226 C1227 1.404 . S
C1226 C1229 1.539 . S
C1227 C1223 1.408 . S
C1227 C1226 1.404 . S
C1227 H1239 0.930 . S
C1228 C1224 1.524 . S
C1228 H1240 0.956 . S
C1228 H1241 0.961 . S
C1228 H1242 0.961 . S
C1229 C1226 1.539 . S
C1229 H1243 0.958 . S
C1229 H1244 0.961 . S
C1229 H1245 0.960 . S
H1230 C1214 0.931 . S
H1231 C1219 0.929 . S
H1232 C1220 0.960 . S
H1233 C1220 0.962 . S
H1234 C1220 0.960 . S
H1235 C1221 0.961 . S
H1236 C1221 0.961 . S
H1237 C1221 0.961 . S
H1238 C1222 0.931 . S
H1239 C1227 0.930 . S
H1240 C1228 0.956 . S
H1241 C1228 0.961 . S
H1242 C1228 0.961 . S
H1243 C1229 0.958 . S
H1244 C1229 0.961 . S
H1245 C1229 0.960 . S
C1246 C1247 1.391 . S
C1246 C1248 1.394 . S
C1246 H1262 0.931 . S
C1247 C1246 1.391 . S
C1247 C1251 1.376 . S
C1248 C1246 1.394 . S
C1248 C1249 1.369 . S
C1248 C1252 1.531 . S
C1249 C1248 1.369 . S
C1249 C1250 1.410 . S
C1249 C1257 1.503 . S
C1250 C1249 1.410 . S
C1250 C1251 1.392 . S
C1250 C1253 1.511 . S
C1251 C1247 1.376 . S
C1251 C1250 1.392 . S
C1251 H1263 0.929 . S
C1252 C1248 1.531 . S
C1252 H1264 0.960 . S
C1252 H1265 0.962 . S
C1252 H1266 0.960 . S
C1253 C1250 1.511 . S
C1253 H1267 0.961 . S
C1253 H1268 0.961 . S
C1253 H1269 0.961 . S
C1254 C1255 1.370 . S
C1254 C1256 1.363 . S
C1254 H1270 0.931 . S
C1255 C1254 1.370 . S
C1255 C1259 1.408 . S
C1256 C1254 1.363 . S
C1256 C1257 1.370 . S
C1256 C1260 1.524 . S
C1257 C1249 1.503 . S
C1257 C1256 1.370 . S
C1257 C1258 1.403 . S
C1258 C1257 1.403 . S
C1258 C1259 1.404 . S
C1258 C1261 1.539 . S
C1259 C1255 1.408 . S
C1259 C1258 1.404 . S
C1259 H1271 0.930 . S
C1260 C1256 1.524 . S
C1260 H1272 0.956 . S
C1260 H1273 0.961 . S
C1260 H1274 0.961 . S
C1261 C1258 1.539 . S
C1261 H1275 0.958 . S
C1261 H1276 0.961 . S
C1261 H1277 0.960 . S
H1262 C1246 0.931 . S
H1263 C1251 0.929 . S
H1264 C1252 0.960 . S
H1265 C1252 0.962 . S
H1266 C1252 0.960 . S
H1267 C1253 0.961 . S
H1268 C1253 0.961 . S
H1269 C1253 0.961 . S
H1270 C1254 0.931 . S
H1271 C1259 0.930 . S
H1272 C1260 0.956 . S
H1273 C1260 0.961 . S
H1274 C1260 0.961 . S
H1275 C1261 0.958 . S
H1276 C1261 0.961 . S
H1277 C1261 0.960 . S
C1278 C1279 1.391 . S
C1278 C1280 1.394 . S
C1278 H1294 0.931 . S
C1279 C1278 1.391 . S
C1279 C1283 1.376 . S
C1280 C1278 1.394 . S
C1280 C1281 1.369 . S
C1280 C1284 1.531 . S
C1281 C1280 1.369 . S
C1281 C1282 1.410 . S
C1281 C1289 1.503 . S
C1282 C1281 1.410 . S
C1282 C1283 1.392 . S
C1282 C1285 1.511 . S
C1283 C1279 1.376 . S
C1283 C1282 1.392 . S
C1283 H1295 0.929 . S
C1284 C1280 1.531 . S
C1284 H1296 0.960 . S
C1284 H1297 0.962 . S
C1284 H1298 0.960 . S
C1285 C1282 1.511 . S
C1285 H1299 0.961 . S
C1285 H1300 0.961 . S
C1285 H1301 0.961 . S
C1286 C1287 1.370 . S
C1286 C1288 1.363 . S
C1286 H1302 0.931 . S
C1287 C1286 1.370 . S
C1287 C1291 1.408 . S
C1288 C1286 1.363 . S
C1288 C1289 1.370 . S
C1288 C1292 1.524 . S
C1289 C1281 1.503 . S
C1289 C1288 1.370 . S
C1289 C1290 1.403 . S
C1290 C1289 1.403 . S
C1290 C1291 1.404 . S
C1290 C1293 1.539 . S
C1291 C1287 1.408 . S
C1291 C1290 1.404 . S
C1291 H1303 0.930 . S
C1292 C1288 1.524 . S
C1292 H1304 0.956 . S
C1292 H1305 0.961 . S
C1292 H1306 0.961 . S
C1293 C1290 1.539 . S
C1293 H1307 0.958 . S
C1293 H1308 0.961 . S
C1293 H1309 0.960 . S
H1294 C1278 0.931 . S
H1295 C1283 0.929 . S
H1296 C1284 0.960 . S
H1297 C1284 0.962 . S
H1298 C1284 0.960 . S
H1299 C1285 0.961 . S
H1300 C1285 0.961 . S
H1301 C1285 0.961 . S
H1302 C1286 0.931 . S
H1303 C1291 0.930 . S
H1304 C1292 0.956 . S
H1305 C1292 0.961 . S
H1306 C1292 0.961 . S
H1307 C1293 0.958 . S
H1308 C1293 0.961 . S
H1309 C1293 0.960 . S
C1310 C1311 1.391 . S
C1310 C1312 1.394 . S
C1310 H1326 0.931 . S
C1311 C1310 1.391 . S
C1311 C1315 1.376 . S
C1312 C1310 1.394 . S
C1312 C1313 1.369 . S
C1312 C1316 1.531 . S
C1313 C1312 1.369 . S
C1313 C1314 1.410 . S
C1313 C1321 1.503 . S
C1314 C1313 1.410 . S
C1314 C1315 1.392 . S
C1314 C1317 1.511 . S
C1315 C1311 1.376 . S
C1315 C1314 1.392 . S
C1315 H1327 0.929 . S
C1316 C1312 1.531 . S
C1316 H1328 0.960 . S
C1316 H1329 0.962 . S
C1316 H1330 0.960 . S
C1317 C1314 1.511 . S
C1317 H1331 0.961 . S
C1317 H1332 0.961 . S
C1317 H1333 0.961 . S
C1318 C1319 1.370 . S
C1318 C1320 1.363 . S
C1318 H1334 0.931 . S
C1319 C1318 1.370 . S
C1319 C1323 1.408 . S
C1320 C1318 1.363 . S
C1320 C1321 1.370 . S
C1320 C1324 1.524 . S
C1321 C1313 1.503 . S
C1321 C1320 1.370 . S
C1321 C1322 1.403 . S
C1322 C1321 1.403 . S
C1322 C1323 1.404 . S
C1322 C1325 1.539 . S
C1323 C1319 1.408 . S
C1323 C1322 1.404 . S
C1323 H1335 0.930 . S
C1324 C1320 1.524 . S
C1324 H1336 0.956 . S
C1324 H1337 0.961 . S
C1324 H1338 0.961 . S
C1325 C1322 1.539 . S
C1325 H1339 0.958 . S
C1325 H1340 0.961 . S
C1325 H1341 0.960 . S
H1326 C1310 0.931 . S
H1327 C1315 0.929 . S
H1328 C1316 0.960 . S
H1329 C1316 0.962 . S
H1330 C1316 0.960 . S
H1331 C1317 0.961 . S
H1332 C1317 0.961 . S
H1333 C1317 0.961 . S
H1334 C1318 0.931 . S
H1335 C1323 0.930 . S
H1336 C1324 0.956 . S
H1337 C1324 0.961 . S
H1338 C1324 0.961 . S
H1339 C1325 0.958 . S
H1340 C1325 0.961 . S
H1341 C1325 0.960 . S
C1342 C1343 1.391 . S
C1342 C1344 1.394 . S
C1342 H1358 0.931 . S
C1343 C1342 1.391 . S
C1343 C1347 1.376 . S
C1344 C1342 1.394 . S
C1344 C1345 1.369 . S
C1344 C1348 1.531 . S
C1345 C1344 1.369 . S
C1345 C1346 1.410 . S
C1345 C1353 1.503 . S
C1346 C1345 1.410 . S
C1346 C1347 1.392 . S
C1346 C1349 1.511 . S
C1347 C1343 1.376 . S
C1347 C1346 1.392 . S
C1347 H1359 0.929 . S
C1348 C1344 1.531 . S
C1348 H1360 0.960 . S
C1348 H1361 0.962 . S
C1348 H1362 0.960 . S
C1349 C1346 1.511 . S
C1349 H1363 0.961 . S
C1349 H1364 0.961 . S
C1349 H1365 0.961 . S
C1350 C1351 1.370 . S
C1350 C1352 1.363 . S
C1350 H1366 0.931 . S
C1351 C1350 1.370 . S
C1351 C1355 1.408 . S
C1352 C1350 1.363 . S
C1352 C1353 1.370 . S
C1352 C1356 1.524 . S
C1353 C1345 1.503 . S
C1353 C1352 1.370 . S
C1353 C1354 1.403 . S
C1354 C1353 1.403 . S
C1354 C1355 1.404 . S
C1354 C1357 1.539 . S
C1355 C1351 1.408 . S
C1355 C1354 1.404 . S
C1355 H1367 0.930 . S
C1356 C1352 1.524 . S
C1356 H1368 0.956 . S
C1356 H1369 0.961 . S
C1356 H1370 0.961 . S
C1357 C1354 1.539 . S
C1357 H1371 0.958 . S
C1357 H1372 0.961 . S
C1357 H1373 0.960 . S
H1358 C1342 0.931 . S
H1359 C1347 0.929 . S
H1360 C1348 0.960 . S
H1361 C1348 0.962 . S
H1362 C1348 0.960 . S
H1363 C1349 0.961 . S
H1364 C1349 0.961 . S
H1365 C1349 0.961 . S
H1366 C1350 0.931 . S
H1367 C1355 0.930 . S
H1368 C1356 0.956 . S
H1369 C1356 0.961 . S
H1370 C1356 0.961 . S
H1371 C1357 0.958 . S
H1372 C1357 0.961 . S
H1373 C1357 0.960 . S
C1374 C1375 1.391 1_565 S
C1374 C1376 1.394 . S
C1374 H1390 0.931 1_565 S
C1375 C1374 1.391 1_545 S
C1375 C1379 1.379 1_545 S
C1376 C1374 1.394 . S
C1376 C1377 1.369 . S
C1376 C1380 1.531 . S
C1377 C1376 1.369 . S
C1377 C1378 1.410 . S
C1377 C1385 1.503 . S
C1378 C1377 1.410 . S
C1378 C1379 1.433 . S
C1378 C1381 1.511 . S
C1379 C1375 1.379 1_565 S
C1379 C1378 1.433 . S
C1379 H1391 0.886 1_565 S
C1380 C1376 1.531 . S
C1380 H1392 0.960 . S
C1380 H1393 0.962 . S
C1380 H1394 0.960 . S
C1381 C1378 1.511 . S
C1381 H1395 0.961 . S
C1381 H1396 0.961 . S
C1381 H1397 0.961 . S
C1382 C1383 1.370 . S
C1382 C1384 1.363 . S
C1382 H1398 0.931 . S
C1383 C1382 1.370 . S
C1383 C1387 1.408 . S
C1384 C1382 1.363 . S
C1384 C1385 1.370 . S
C1384 C1388 1.524 . S
C1385 C1377 1.503 . S
C1385 C1384 1.370 . S
C1385 C1386 1.403 . S
C1386 C1385 1.403 . S
C1386 C1387 1.404 . S
C1386 C1389 1.539 . S
C1387 C1383 1.408 . S
C1387 C1386 1.404 . S
C1387 H1399 0.930 . S
C1388 C1384 1.524 . S
C1388 H1400 0.956 . S
C1388 H1401 0.961 . S
C1388 H1402 0.961 . S
C1389 C1386 1.539 . S
C1389 H1403 0.958 . S
C1389 H1404 0.961 . S
C1389 H1405 0.960 . S
H1390 C1374 0.931 1_545 S
H1391 C1379 0.886 1_545 S
H1392 C1380 0.960 . S
H1393 C1380 0.962 . S
H1394 C1380 0.960 . S
H1395 C1381 0.961 . S
H1396 C1381 0.961 . S
H1397 C1381 0.961 . S
H1398 C1382 0.931 . S
H1399 C1387 0.930 . S
H1400 C1388 0.956 . S
H1401 C1388 0.961 . S
H1402 C1388 0.961 . S
H1403 C1389 0.958 . S
H1404 C1389 0.961 . S
H1405 C1389 0.960 . S
C1406 C1407 1.391 . S
C1406 C1408 1.394 . S
C1406 H1422 0.931 . S
C1407 C1406 1.391 . S
C1407 C1411 1.376 . S
C1408 C1406 1.394 . S
C1408 C1409 1.369 . S
C1408 C1412 1.531 . S
C1409 C1408 1.369 . S
C1409 C1410 1.410 . S
C1409 C1417 1.503 . S
C1410 C1409 1.410 . S
C1410 C1411 1.392 . S
C1410 C1413 1.511 . S
C1411 C1407 1.376 . S
C1411 C1410 1.392 . S
C1411 H1423 0.929 . S
C1412 C1408 1.531 . S
C1412 H1424 0.960 . S
C1412 H1425 0.962 . S
C1412 H1426 0.960 . S
C1413 C1410 1.511 . S
C1413 H1427 0.961 . S
C1413 H1428 0.961 . S
C1413 H1429 0.961 . S
C1414 C1415 1.370 . S
C1414 C1416 1.363 . S
C1414 H1430 0.931 . S
C1415 C1414 1.370 . S
C1415 C1419 1.408 . S
C1416 C1414 1.363 . S
C1416 C1417 1.370 . S
C1416 C1420 1.524 . S
C1417 C1409 1.503 . S
C1417 C1416 1.370 . S
C1417 C1418 1.403 . S
C1418 C1417 1.403 . S
C1418 C1419 1.404 . S
C1418 C1421 1.539 . S
C1419 C1415 1.408 . S
C1419 C1418 1.404 . S
C1419 H1431 0.930 . S
C1420 C1416 1.524 . S
C1420 H1432 0.956 . S
C1420 H1433 0.961 . S
C1420 H1434 0.961 . S
C1421 C1418 1.539 . S
C1421 H1435 0.958 . S
C1421 H1436 0.961 . S
C1421 H1437 0.960 . S
H1422 C1406 0.931 . S
H1423 C1411 0.929 . S
H1424 C1412 0.960 . S
H1425 C1412 0.962 . S
H1426 C1412 0.960 . S
H1427 C1413 0.961 . S
H1428 C1413 0.961 . S
H1429 C1413 0.961 . S
H1430 C1414 0.931 . S
H1431 C1419 0.930 . S
H1432 C1420 0.956 . S
H1433 C1420 0.961 . S
H1434 C1420 0.961 . S
H1435 C1421 0.958 . S
H1436 C1421 0.961 . S
H1437 C1421 0.960 . S
C1438 C1439 1.391 . S
C1438 C1440 1.394 . S
C1438 H1454 0.931 . S
C1439 C1438 1.391 . S
C1439 C1443 1.376 . S
C1440 C1438 1.394 . S
C1440 C1441 1.369 . S
C1440 C1444 1.531 . S
C1441 C1440 1.369 . S
C1441 C1442 1.410 . S
C1441 C1449 1.503 . S
C1442 C1441 1.410 . S
C1442 C1443 1.392 . S
C1442 C1445 1.511 . S
C1443 C1439 1.376 . S
C1443 C1442 1.392 . S
C1443 H1455 0.929 . S
C1444 C1440 1.531 . S
C1444 H1456 0.960 . S
C1444 H1457 0.962 . S
C1444 H1458 0.960 . S
C1445 C1442 1.511 . S
C1445 H1459 0.961 . S
C1445 H1460 0.961 . S
C1445 H1461 0.961 . S
C1446 C1447 1.370 . S
C1446 C1448 1.363 . S
C1446 H1462 0.931 . S
C1447 C1446 1.370 . S
C1447 C1451 1.408 . S
C1448 C1446 1.363 . S
C1448 C1449 1.370 . S
C1448 C1452 1.524 . S
C1449 C1441 1.503 . S
C1449 C1448 1.370 . S
C1449 C1450 1.403 . S
C1450 C1449 1.403 . S
C1450 C1451 1.404 . S
C1450 C1453 1.539 . S
C1451 C1447 1.408 . S
C1451 C1450 1.404 . S
C1451 H1463 0.930 . S
C1452 C1448 1.524 . S
C1452 H1464 0.956 . S
C1452 H1465 0.961 . S
C1452 H1466 0.961 . S
C1453 C1450 1.539 . S
C1453 H1467 0.958 . S
C1453 H1468 0.961 . S
C1453 H1469 0.960 . S
H1454 C1438 0.931 . S
H1455 C1443 0.929 . S
H1456 C1444 0.960 . S
H1457 C1444 0.962 . S
H1458 C1444 0.960 . S
H1459 C1445 0.961 . S
H1460 C1445 0.961 . S
H1461 C1445 0.961 . S
H1462 C1446 0.931 . S
H1463 C1451 0.930 . S
H1464 C1452 0.956 . S
H1465 C1452 0.961 . S
H1466 C1452 0.961 . S
H1467 C1453 0.958 . S
H1468 C1453 0.961 . S
H1469 C1453 0.960 . S
C1470 C1471 1.391 . S
C1470 C1472 1.394 . S
C1470 H1486 0.931 . S
C1471 C1470 1.391 . S
C1471 C1475 1.376 . S
C1472 C1470 1.394 . S
C1472 C1473 1.369 . S
C1472 C1476 1.531 . S
C1473 C1472 1.369 . S
C1473 C1474 1.410 . S
C1473 C1481 1.503 . S
C1474 C1473 1.410 . S
C1474 C1475 1.392 . S
C1474 C1477 1.511 . S
C1475 C1471 1.376 . S
C1475 C1474 1.392 . S
C1475 H1487 0.929 . S
C1476 C1472 1.531 . S
C1476 H1488 0.960 . S
C1476 H1489 0.962 . S
C1476 H1490 0.960 . S
C1477 C1474 1.511 . S
C1477 H1491 0.961 . S
C1477 H1492 0.961 . S
C1477 H1493 0.961 . S
C1478 C1479 1.370 . S
C1478 C1480 1.363 . S
C1478 H1494 0.931 . S
C1479 C1478 1.370 . S
C1479 C1483 1.408 . S
C1480 C1478 1.363 . S
C1480 C1481 1.370 . S
C1480 C1484 1.524 . S
C1481 C1473 1.503 . S
C1481 C1480 1.370 . S
C1481 C1482 1.403 . S
C1482 C1481 1.403 . S
C1482 C1483 1.404 . S
C1482 C1485 1.539 . S
C1483 C1479 1.408 . S
C1483 C1482 1.404 . S
C1483 H1495 0.930 . S
C1484 C1480 1.524 . S
C1484 H1496 0.956 . S
C1484 H1497 0.961 . S
C1484 H1498 0.961 . S
C1485 C1482 1.539 . S
C1485 H1499 0.958 . S
C1485 H1500 0.961 . S
C1485 H1501 0.960 . S
H1486 C1470 0.931 . S
H1487 C1475 0.929 . S
H1488 C1476 0.960 . S
H1489 C1476 0.962 . S
H1490 C1476 0.960 . S
H1491 C1477 0.961 . S
H1492 C1477 0.961 . S
H1493 C1477 0.961 . S
H1494 C1478 0.931 . S
H1495 C1483 0.930 . S
H1496 C1484 0.956 . S
H1497 C1484 0.961 . S
H1498 C1484 0.961 . S
H1499 C1485 0.958 . S
H1500 C1485 0.961 . S
H1501 C1485 0.960 . S
C1502 C1503 1.391 . S
C1502 C1504 1.394 . S
C1502 H1518 0.931 . S
C1503 C1502 1.391 . S
C1503 C1507 1.376 . S
C1504 C1502 1.394 . S
C1504 C1505 1.369 . S
C1504 C1508 1.531 . S
C1505 C1504 1.369 . S
C1505 C1506 1.410 . S
C1505 C1513 1.503 . S
C1506 C1505 1.410 . S
C1506 C1507 1.392 . S
C1506 C1509 1.511 . S
C1507 C1503 1.376 . S
C1507 C1506 1.392 . S
C1507 H1519 0.929 . S
C1508 C1504 1.531 . S
C1508 H1520 0.960 . S
C1508 H1521 0.962 . S
C1508 H1522 0.960 . S
C1509 C1506 1.511 . S
C1509 H1523 0.961 . S
C1509 H1524 0.961 . S
C1509 H1525 0.961 . S
C1510 C1511 1.370 . S
C1510 C1512 1.363 . S
C1510 H1526 0.931 . S
C1511 C1510 1.370 . S
C1511 C1515 1.408 . S
C1512 C1510 1.363 . S
C1512 C1513 1.370 . S
C1512 C1516 1.524 . S
C1513 C1505 1.503 . S
C1513 C1512 1.370 . S
C1513 C1514 1.403 . S
C1514 C1513 1.403 . S
C1514 C1515 1.404 . S
C1514 C1517 1.539 . S
C1515 C1511 1.408 . S
C1515 C1514 1.404 . S
C1515 H1527 0.930 . S
C1516 C1512 1.524 . S
C1516 H1528 0.956 . S
C1516 H1529 0.961 . S
C1516 H1530 0.961 . S
C1517 C1514 1.539 . S
C1517 H1531 0.958 . S
C1517 H1532 0.961 . S
C1517 H1533 0.960 . S
H1518 C1502 0.931 . S
H1519 C1507 0.929 . S
H1520 C1508 0.960 . S
H1521 C1508 0.962 . S
H1522 C1508 0.960 . S
H1523 C1509 0.961 . S
H1524 C1509 0.961 . S
H1525 C1509 0.961 . S
H1526 C1510 0.931 . S
H1527 C1515 0.930 . S
H1528 C1516 0.956 . S
H1529 C1516 0.961 . S
H1530 C1516 0.961 . S
H1531 C1517 0.958 . S
H1532 C1517 0.961 . S
H1533 C1517 0.960 . S
C1534 C1535 1.391 . S
C1534 C1536 1.394 . S
C1534 H1550 0.931 . S
C1535 C1534 1.391 . S
C1535 C1539 1.376 . S
C1536 C1534 1.394 . S
C1536 C1537 1.369 . S
C1536 C1540 1.531 . S
C1537 C1536 1.369 . S
C1537 C1538 1.410 . S
C1537 C1545 1.503 . S
C1538 C1537 1.410 . S
C1538 C1539 1.392 . S
C1538 C1541 1.511 . S
C1539 C1535 1.376 . S
C1539 C1538 1.392 . S
C1539 H1551 0.929 . S
C1540 C1536 1.531 . S
C1540 H1552 0.960 . S
C1540 H1553 0.962 . S
C1540 H1554 0.960 . S
C1541 C1538 1.511 . S
C1541 H1555 0.961 . S
C1541 H1556 0.961 . S
C1541 H1557 0.961 . S
C1542 C1543 1.370 . S
C1542 C1544 1.363 . S
C1542 H1558 0.931 . S
C1543 C1542 1.370 . S
C1543 C1547 1.408 . S
C1544 C1542 1.363 . S
C1544 C1545 1.370 . S
C1544 C1548 1.524 . S
C1545 C1537 1.503 . S
C1545 C1544 1.370 . S
C1545 C1546 1.403 . S
C1546 C1545 1.403 . S
C1546 C1547 1.404 . S
C1546 C1549 1.539 . S
C1547 C1543 1.408 . S
C1547 C1546 1.404 . S
C1547 H1559 0.930 . S
C1548 C1544 1.524 . S
C1548 H1560 0.956 . S
C1548 H1561 0.961 . S
C1548 H1562 0.961 . S
C1549 C1546 1.539 . S
C1549 H1563 0.958 . S
C1549 H1564 0.961 . S
C1549 H1565 0.960 . S
H1550 C1534 0.931 . S
H1551 C1539 0.929 . S
H1552 C1540 0.960 . S
H1553 C1540 0.962 . S
H1554 C1540 0.960 . S
H1555 C1541 0.961 . S
H1556 C1541 0.961 . S
H1557 C1541 0.961 . S
H1558 C1542 0.931 . S
H1559 C1547 0.930 . S
H1560 C1548 0.956 . S
H1561 C1548 0.961 . S
H1562 C1548 0.961 . S
H1563 C1549 0.958 . S
H1564 C1549 0.961 . S
H1565 C1549 0.960 . S
C1566 C1567 1.391 . S
C1566 C1568 1.394 . S
C1566 H1582 0.931 . S
C1567 C1566 1.391 . S
C1567 C1571 1.376 . S
C1568 C1566 1.394 . S
C1568 C1569 1.369 . S
C1568 C1572 1.531 . S
C1569 C1568 1.369 . S
C1569 C1570 1.410 . S
C1569 C1577 1.503 1_565 S
C1570 C1569 1.410 . S
C1570 C1571 1.392 . S
C1570 C1573 1.511 . S
C1571 C1567 1.376 . S
C1571 C1570 1.392 . S
C1571 H1583 0.929 . S
C1572 C1568 1.531 . S
C1572 H1584 0.960 1_565 S
C1572 H1585 0.962 1_565 S
C1572 H1586 0.960 . S
C1573 C1570 1.511 . S
C1573 H1587 0.961 . S
C1573 H1588 0.961 . S
C1573 H1589 0.961 . S
C1574 C1575 1.370 . S
C1574 C1576 1.363 . S
C1574 H1590 0.931 . S
C1575 C1574 1.370 . S
C1575 C1579 1.408 . S
C1576 C1574 1.363 . S
C1576 C1577 1.370 . S
C1576 C1580 1.524 . S
C1577 C1569 1.503 1_545 S
C1577 C1576 1.370 . S
C1577 C1578 1.403 . S
C1578 C1577 1.403 . S
C1578 C1579 1.404 . S
C1578 C1581 1.539 1_545 S
C1579 C1575 1.408 . S
C1579 C1578 1.404 . S
C1579 H1591 0.930 . S
C1580 C1576 1.524 . S
C1580 H1592 0.956 . S
C1580 H1593 0.961 1_545 S
C1580 H1594 0.961 . S
C1581 C1578 1.539 1_565 S
C1581 H1595 0.958 . S
C1581 H1596 0.961 . S
C1581 H1597 0.960 . S
H1582 C1566 0.931 . S
H1583 C1571 0.929 . S
H1584 C1572 0.960 1_545 S
H1585 C1572 0.962 1_545 S
H1586 C1572 0.960 . S
H1587 C1573 0.961 . S
H1588 C1573 0.961 . S
H1589 C1573 0.961 . S
H1590 C1574 0.931 . S
H1591 C1579 0.930 . S
H1592 C1580 0.956 . S
H1593 C1580 0.961 1_565 S
H1594 C1580 0.961 . S
H1595 C1581 0.958 . S
H1596 C1581 0.961 . S
H1597 C1581 0.960 . S
C1598 C1599 1.391 . S
C1598 C1600 1.394 . S
C1598 H1614 0.931 . S
C1599 C1598 1.391 . S
C1599 C1603 1.376 . S
C1600 C1598 1.394 . S
C1600 C1601 1.369 . S
C1600 C1604 1.531 1_455 S
C1601 C1600 1.369 . S
C1601 C1602 1.410 . S
C1601 C1609 1.503 1_455 S
C1602 C1601 1.410 . S
C1602 C1603 1.392 . S
C1602 C1605 1.511 . S
C1603 C1599 1.376 . S
C1603 C1602 1.392 . S
C1603 H1615 0.929 . S
C1604 C1600 1.531 1_655 S
C1604 H1616 0.960 . S
C1604 H1617 0.962 . S
C1604 H1618 0.960 . S
C1605 C1602 1.511 . S
C1605 H1619 0.961 . S
C1605 H1620 0.961 . S
C1605 H1621 0.961 . S
C1606 C1607 1.370 . S
C1606 C1608 1.363 . S
C1606 H1622 0.931 . S
C1607 C1606 1.370 . S
C1607 C1611 1.408 . S
C1608 C1606 1.363 . S
C1608 C1609 1.370 . S
C1608 C1612 1.524 1_655 S
C1609 C1601 1.503 1_655 S
C1609 C1608 1.370 . S
C1609 C1610 1.403 . S
C1610 C1609 1.403 . S
C1610 C1611 1.404 . S
C1610 C1613 1.539 . S
C1611 C1607 1.408 . S
C1611 C1610 1.404 . S
C1611 H1623 0.930 . S
C1612 C1608 1.524 1_455 S
C1612 H1624 0.956 . S
C1612 H1625 0.961 . S
C1612 H1626 0.961 . S
C1613 C1610 1.539 . S
C1613 H1627 0.958 . S
C1613 H1628 0.961 . S
C1613 H1629 0.960 . S
H1614 C1598 0.931 . S
H1615 C1603 0.929 . S
H1616 C1604 0.960 . S
H1617 C1604 0.962 . S
H1618 C1604 0.960 . S
H1619 C1605 0.961 . S
H1620 C1605 0.961 . S
H1621 C1605 0.961 . S
H1622 C1606 0.931 . S
H1623 C1611 0.930 . S
H1624 C1612 0.956 . S
H1625 C1612 0.961 . S
H1626 C1612 0.961 . S
H1627 C1613 0.958 . S
H1628 C1613 0.961 . S
H1629 C1613 0.960 . S
C1630 C1631 1.391 . S
C1630 C1632 1.394 . S
C1630 H1646 0.931 . S
C1631 C1630 1.391 . S
C1631 C1635 1.376 . S
C1632 C1630 1.394 . S
C1632 C1633 1.369 . S
C1632 C1636 1.531 . S
C1633 C1632 1.369 . S
C1633 C1634 1.410 . S
C1633 C1641 1.503 . S
C1634 C1633 1.410 . S
C1634 C1635 1.392 . S
C1634 C1637 1.511 . S
C1635 C1631 1.376 . S
C1635 C1634 1.392 . S
C1635 H1647 0.929 . S
C1636 C1632 1.531 . S
C1636 H1648 0.960 . S
C1636 H1649 0.962 . S
C1636 H1650 0.960 . S
C1637 C1634 1.511 . S
C1637 H1651 0.961 . S
C1637 H1652 0.961 . S
C1637 H1653 0.961 . S
C1638 C1639 1.370 . S
C1638 C1640 1.363 . S
C1638 H1654 0.931 . S
C1639 C1638 1.370 . S
C1639 C1643 1.408 . S
C1640 C1638 1.363 . S
C1640 C1641 1.370 . S
C1640 C1644 1.524 . S
C1641 C1633 1.503 . S
C1641 C1640 1.370 . S
C1641 C1642 1.403 . S
C1642 C1641 1.403 . S
C1642 C1643 1.404 . S
C1642 C1645 1.539 . S
C1643 C1639 1.408 . S
C1643 C1642 1.404 . S
C1643 H1655 0.930 . S
C1644 C1640 1.524 . S
C1644 H1656 0.956 . S
C1644 H1657 0.961 . S
C1644 H1658 0.961 . S
C1645 C1642 1.539 . S
C1645 H1659 0.958 . S
C1645 H1660 0.961 . S
C1645 H1661 0.960 . S
H1646 C1630 0.931 . S
H1647 C1635 0.929 . S
H1648 C1636 0.960 . S
H1649 C1636 0.962 . S
H1650 C1636 0.960 . S
H1651 C1637 0.961 . S
H1652 C1637 0.961 . S
H1653 C1637 0.961 . S
H1654 C1638 0.931 . S
H1655 C1643 0.930 . S
H1656 C1644 0.956 . S
H1657 C1644 0.961 . S
H1658 C1644 0.961 . S
H1659 C1645 0.958 . S
H1660 C1645 0.961 . S
H1661 C1645 0.960 . S
C1662 C1663 1.391 1_655 S
C1662 C1664 1.394 . S
C1662 H1678 0.931 . S
C1663 C1662 1.391 1_455 S
C1663 C1667 1.376 . S
C1664 C1662 1.394 . S
C1664 C1665 1.369 . S
C1664 C1668 1.531 . S
C1665 C1664 1.369 . S
C1665 C1666 1.410 . S
C1665 C1673 1.503 . S
C1666 C1665 1.410 . S
C1666 C1667 1.392 1_655 S
C1666 C1669 1.511 . S
C1667 C1663 1.376 . S
C1667 C1666 1.392 1_455 S
C1667 H1679 0.929 . S
C1668 C1664 1.531 . S
C1668 H1680 0.960 . S
C1668 H1681 0.962 . S
C1668 H1682 0.960 . S
C1669 C1666 1.511 . S
C1669 H1683 0.961 . S
C1669 H1684 0.961 . S
C1669 H1685 0.961 . S
C1670 C1671 1.370 . S
C1670 C1672 1.363 . S
C1670 H1686 0.931 . S
C1671 C1670 1.370 . S
C1671 C1675 1.408 . S
C1672 C1670 1.363 . S
C1672 C1673 1.370 . S
C1672 C1676 1.524 . S
C1673 C1665 1.503 . S
C1673 C1672 1.370 . S
C1673 C1674 1.403 . S
C1674 C1673 1.403 . S
C1674 C1675 1.404 . S
C1674 C1677 1.539 . S
C1675 C1671 1.408 . S
C1675 C1674 1.404 . S
C1675 H1687 0.930 . S
C1676 C1672 1.524 . S
C1676 H1688 0.956 . S
C1676 H1689 0.961 . S
C1676 H1690 0.961 . S
C1677 C1674 1.539 . S
C1677 H1691 0.958 . S
C1677 H1692 0.961 . S
C1677 H1693 0.960 . S
H1678 C1662 0.931 . S
H1679 C1667 0.929 . S
H1680 C1668 0.960 . S
H1681 C1668 0.962 . S
H1682 C1668 0.960 . S
H1683 C1669 0.961 . S
H1684 C1669 0.961 . S
H1685 C1669 0.961 . S
H1686 C1670 0.931 . S
H1687 C1675 0.930 . S
H1688 C1676 0.956 . S
H1689 C1676 0.961 . S
H1690 C1676 0.961 . S
H1691 C1677 0.958 . S
H1692 C1677 0.961 . S
H1693 C1677 0.960 . S
C1694 C1695 1.391 . S
C1694 C1696 1.394 . S
C1694 H1710 0.931 . S
C1695 C1694 1.391 . S
C1695 C1699 1.376 . S
C1696 C1694 1.394 . S
C1696 C1697 1.369 . S
C1696 C1700 1.531 . S
C1697 C1696 1.369 . S
C1697 C1698 1.410 . S
C1697 C1705 1.503 . S
C1698 C1697 1.410 . S
C1698 C1699 1.392 . S
C1698 C1701 1.511 . S
C1699 C1695 1.376 . S
C1699 C1698 1.392 . S
C1699 H1711 0.929 . S
C1700 C1696 1.531 . S
C1700 H1712 0.960 . S
C1700 H1713 0.962 . S
C1700 H1714 0.960 . S
C1701 C1698 1.511 . S
C1701 H1715 0.961 . S
C1701 H1716 0.961 . S
C1701 H1717 0.961 . S
C1702 C1703 1.370 . S
C1702 C1704 1.363 . S
C1702 H1718 0.931 . S
C1703 C1702 1.370 . S
C1703 C1707 1.408 . S
C1704 C1702 1.363 . S
C1704 C1705 1.370 . S
C1704 C1708 1.524 . S
C1705 C1697 1.503 . S
C1705 C1704 1.370 . S
C1705 C1706 1.403 . S
C1706 C1705 1.403 . S
C1706 C1707 1.404 . S
C1706 C1709 1.539 . S
C1707 C1703 1.408 . S
C1707 C1706 1.404 . S
C1707 H1719 0.930 . S
C1708 C1704 1.524 . S
C1708 H1720 0.956 . S
C1708 H1721 0.961 . S
C1708 H1722 0.961 . S
C1709 C1706 1.539 . S
C1709 H1723 0.958 . S
C1709 H1724 0.961 . S
C1709 H1725 0.960 . S
H1710 C1694 0.931 . S
H1711 C1699 0.929 . S
H1712 C1700 0.960 . S
H1713 C1700 0.962 . S
H1714 C1700 0.960 . S
H1715 C1701 0.961 . S
H1716 C1701 0.961 . S
H1717 C1701 0.961 . S
H1718 C1702 0.931 . S
H1719 C1707 0.930 . S
H1720 C1708 0.956 . S
H1721 C1708 0.961 . S
H1722 C1708 0.961 . S
H1723 C1709 0.958 . S
H1724 C1709 0.961 . S
H1725 C1709 0.960 . S
C1726 C1727 1.391 1_545 S
C1726 C1728 1.394 . S
C1726 H1742 0.931 1_545 S
C1727 C1726 1.391 1_565 S
C1727 C1731 1.376 1_565 S
C1728 C1726 1.394 . S
C1728 C1729 1.369 . S
C1728 C1732 1.531 . S
C1729 C1728 1.369 . S
C1729 C1730 1.410 . S
C1729 C1737 1.503 . S
C1730 C1729 1.410 . S
C1730 C1731 1.392 . S
C1730 C1733 1.511 . S
C1731 C1727 1.376 1_545 S
C1731 C1730 1.392 . S
C1731 H1743 0.928 . S
C1732 C1728 1.531 . S
C1732 H1744 0.960 . S
C1732 H1745 0.962 . S
C1732 H1746 0.960 . S
C1733 C1730 1.511 . S
C1733 H1747 0.961 . S
C1733 H1748 0.961 . S
C1733 H1749 0.961 . S
C1734 C1735 1.370 . S
C1734 C1736 1.363 . S
C1734 H1750 0.931 . S
C1735 C1734 1.370 . S
C1735 C1739 1.408 . S
C1736 C1734 1.363 . S
C1736 C1737 1.370 . S
C1736 C1740 1.524 . S
C1737 C1729 1.503 . S
C1737 C1736 1.370 . S
C1737 C1738 1.403 . S
C1738 C1737 1.403 . S
C1738 C1739 1.404 . S
C1738 C1741 1.539 . S
C1739 C1735 1.408 . S
C1739 C1738 1.404 . S
C1739 H1751 0.930 . S
C1740 C1736 1.524 . S
C1740 H1752 0.956 . S
C1740 H1753 0.961 . S
C1740 H1754 0.961 . S
C1741 C1738 1.539 . S
C1741 H1755 0.958 . S
C1741 H1756 0.961 . S
C1741 H1757 0.960 . S
H1742 C1726 0.931 1_565 S
H1743 C1731 0.928 . S
H1744 C1732 0.960 . S
H1745 C1732 0.962 . S
H1746 C1732 0.960 . S
H1747 C1733 0.961 . S
H1748 C1733 0.961 . S
H1749 C1733 0.961 . S
H1750 C1734 0.931 . S
H1751 C1739 0.930 . S
H1752 C1740 0.956 . S
H1753 C1740 0.961 . S
H1754 C1740 0.961 . S
H1755 C1741 0.958 . S
H1756 C1741 0.961 . S
H1757 C1741 0.960 . S
C1758 C1759 1.391 . S
C1758 C1760 1.394 . S
C1758 H1774 0.931 . S
C1759 C1758 1.391 . S
C1759 C1763 1.376 . S
C1760 C1758 1.394 . S
C1760 C1761 1.369 . S
C1760 C1764 1.531 . S
C1761 C1760 1.369 . S
C1761 C1762 1.410 . S
C1761 C1769 1.503 . S
C1762 C1761 1.410 . S
C1762 C1763 1.392 . S
C1762 C1765 1.511 . S
C1763 C1759 1.376 . S
C1763 C1762 1.392 . S
C1763 H1775 0.929 . S
C1764 C1760 1.531 . S
C1764 H1776 0.960 . S
C1764 H1777 0.962 . S
C1764 H1778 0.960 . S
C1765 C1762 1.511 . S
C1765 H1779 0.961 . S
C1765 H1780 0.961 . S
C1765 H1781 0.961 . S
C1766 C1767 1.370 . S
C1766 C1768 1.363 . S
C1766 H1782 0.931 . S
C1767 C1766 1.370 . S
C1767 C1771 1.408 . S
C1768 C1766 1.363 . S
C1768 C1769 1.370 . S
C1768 C1772 1.524 . S
C1769 C1761 1.503 . S
C1769 C1768 1.370 . S
C1769 C1770 1.403 . S
C1770 C1769 1.403 . S
C1770 C1771 1.404 . S
C1770 C1773 1.539 . S
C1771 C1767 1.408 . S
C1771 C1770 1.404 . S
C1771 H1783 0.930 . S
C1772 C1768 1.524 . S
C1772 H1784 0.956 . S
C1772 H1785 0.961 . S
C1772 H1786 0.961 . S
C1773 C1770 1.539 . S
C1773 H1787 0.958 . S
C1773 H1788 0.961 . S
C1773 H1789 0.960 . S
H1774 C1758 0.931 . S
H1775 C1763 0.929 . S
H1776 C1764 0.960 . S
H1777 C1764 0.962 . S
H1778 C1764 0.960 . S
H1779 C1765 0.961 . S
H1780 C1765 0.961 . S
H1781 C1765 0.961 . S
H1782 C1766 0.931 . S
H1783 C1771 0.930 . S
H1784 C1772 0.956 . S
H1785 C1772 0.961 . S
H1786 C1772 0.961 . S
H1787 C1773 0.958 . S
H1788 C1773 0.961 . S
H1789 C1773 0.960 . S
C1790 C1791 1.391 . S
C1790 C1792 1.394 . S
C1790 H1806 0.931 . S
C1791 C1790 1.391 . S
C1791 C1795 1.376 . S
C1792 C1790 1.394 . S
C1792 C1793 1.369 . S
C1792 C1796 1.531 . S
C1793 C1792 1.369 . S
C1793 C1794 1.410 . S
C1793 C1801 1.503 . S
C1794 C1793 1.410 . S
C1794 C1795 1.392 . S
C1794 C1797 1.511 . S
C1795 C1791 1.376 . S
C1795 C1794 1.392 . S
C1795 H1807 0.929 . S
C1796 C1792 1.531 . S
C1796 H1808 0.960 . S
C1796 H1809 0.962 . S
C1796 H1810 0.960 . S
C1797 C1794 1.511 . S
C1797 H1811 0.961 . S
C1797 H1812 0.961 . S
C1797 H1813 0.961 . S
C1798 C1799 1.370 . S
C1798 C1800 1.363 . S
C1798 H1814 0.931 . S
C1799 C1798 1.370 . S
C1799 C1803 1.408 . S
C1800 C1798 1.363 . S
C1800 C1801 1.370 . S
C1800 C1804 1.524 . S
C1801 C1793 1.503 . S
C1801 C1800 1.370 . S
C1801 C1802 1.403 . S
C1802 C1801 1.403 . S
C1802 C1803 1.404 . S
C1802 C1805 1.539 . S
C1803 C1799 1.408 . S
C1803 C1802 1.404 . S
C1803 H1815 0.930 . S
C1804 C1800 1.524 . S
C1804 H1816 0.956 . S
C1804 H1817 0.961 . S
C1804 H1818 0.961 . S
C1805 C1802 1.539 . S
C1805 H1819 0.958 . S
C1805 H1820 0.961 . S
C1805 H1821 0.960 . S
H1806 C1790 0.931 . S
H1807 C1795 0.929 . S
H1808 C1796 0.960 . S
H1809 C1796 0.962 . S
H1810 C1796 0.960 . S
H1811 C1797 0.961 . S
H1812 C1797 0.961 . S
H1813 C1797 0.961 . S
H1814 C1798 0.931 . S
H1815 C1803 0.930 . S
H1816 C1804 0.956 . S
H1817 C1804 0.961 . S
H1818 C1804 0.961 . S
H1819 C1805 0.958 . S
H1820 C1805 0.961 . S
H1821 C1805 0.960 . S
C1822 C1823 1.391 . S
C1822 C1824 1.394 . S
C1822 H1838 0.931 . S
C1823 C1822 1.391 . S
C1823 C1827 1.376 . S
C1824 C1822 1.394 . S
C1824 C1825 1.369 . S
C1824 C1828 1.531 . S
C1825 C1824 1.369 . S
C1825 C1826 1.410 . S
C1825 C1833 1.503 . S
C1826 C1825 1.410 . S
C1826 C1827 1.392 . S
C1826 C1829 1.511 . S
C1827 C1823 1.376 . S
C1827 C1826 1.392 . S
C1827 H1839 0.929 . S
C1828 C1824 1.531 . S
C1828 H1840 0.960 . S
C1828 H1841 0.962 . S
C1828 H1842 0.960 . S
C1829 C1826 1.511 . S
C1829 H1843 0.961 . S
C1829 H1844 0.961 . S
C1829 H1845 0.961 . S
C1830 C1831 1.370 . S
C1830 C1832 1.363 . S
C1830 H1846 0.931 . S
C1831 C1830 1.370 . S
C1831 C1835 1.408 . S
C1832 C1830 1.363 . S
C1832 C1833 1.370 . S
C1832 C1836 1.524 . S
C1833 C1825 1.503 . S
C1833 C1832 1.370 . S
C1833 C1834 1.403 . S
C1834 C1833 1.403 . S
C1834 C1835 1.404 . S
C1834 C1837 1.539 . S
C1835 C1831 1.408 . S
C1835 C1834 1.404 . S
C1835 H1847 0.930 . S
C1836 C1832 1.524 . S
C1836 H1848 0.956 . S
C1836 H1849 0.961 . S
C1836 H1850 0.961 . S
C1837 C1834 1.539 . S
C1837 H1851 0.958 . S
C1837 H1852 0.961 . S
C1837 H1853 0.960 . S
H1838 C1822 0.931 . S
H1839 C1827 0.929 . S
H1840 C1828 0.960 . S
H1841 C1828 0.962 . S
H1842 C1828 0.960 . S
H1843 C1829 0.961 . S
H1844 C1829 0.961 . S
H1845 C1829 0.961 . S
H1846 C1830 0.931 . S
H1847 C1835 0.930 . S
H1848 C1836 0.956 . S
H1849 C1836 0.961 . S
H1850 C1836 0.961 . S
H1851 C1837 0.958 . S
H1852 C1837 0.961 . S
H1853 C1837 0.960 . S
C1854 C1855 1.391 . S
C1854 C1856 1.394 . S
C1854 H1870 0.931 . S
C1855 C1854 1.391 . S
C1855 C1859 1.376 . S
C1856 C1854 1.394 . S
C1856 C1857 1.369 . S
C1856 C1860 1.531 . S
C1857 C1856 1.369 . S
C1857 C1858 1.410 . S
C1857 C1865 1.503 . S
C1858 C1857 1.410 . S
C1858 C1859 1.392 . S
C1858 C1861 1.511 . S
C1859 C1855 1.376 . S
C1859 C1858 1.392 . S
C1859 H1871 0.929 . S
C1860 C1856 1.531 . S
C1860 H1872 0.960 . S
C1860 H1873 0.962 . S
C1860 H1874 0.960 . S
C1861 C1858 1.511 . S
C1861 H1875 0.961 . S
C1861 H1876 0.961 . S
C1861 H1877 0.961 . S
C1862 C1863 1.370 . S
C1862 C1864 1.363 . S
C1862 H1878 0.931 . S
C1863 C1862 1.370 . S
C1863 C1867 1.408 . S
C1864 C1862 1.363 . S
C1864 C1865 1.370 . S
C1864 C1868 1.524 . S
C1865 C1857 1.503 . S
C1865 C1864 1.370 . S
C1865 C1866 1.403 . S
C1866 C1865 1.403 . S
C1866 C1867 1.404 . S
C1866 C1869 1.539 . S
C1867 C1863 1.408 . S
C1867 C1866 1.404 . S
C1867 H1879 0.930 . S
C1868 C1864 1.524 . S
C1868 H1880 0.956 . S
C1868 H1881 0.961 . S
C1868 H1882 0.961 . S
C1869 C1866 1.539 . S
C1869 H1883 0.958 . S
C1869 H1884 0.961 . S
C1869 H1885 0.960 . S
H1870 C1854 0.931 . S
H1871 C1859 0.929 . S
H1872 C1860 0.960 . S
H1873 C1860 0.962 . S
H1874 C1860 0.960 . S
H1875 C1861 0.961 . S
H1876 C1861 0.961 . S
H1877 C1861 0.961 . S
H1878 C1862 0.931 . S
H1879 C1867 0.930 . S
H1880 C1868 0.956 . S
H1881 C1868 0.961 . S
H1882 C1868 0.961 . S
H1883 C1869 0.958 . S
H1884 C1869 0.961 . S
H1885 C1869 0.960 . S
C1886 C1887 1.391 . S
C1886 C1888 1.394 . S
C1886 H1902 0.931 . S
C1887 C1886 1.391 . S
C1887 C1891 1.376 . S
C1888 C1886 1.394 . S
C1888 C1889 1.369 . S
C1888 C1892 1.531 . S
C1889 C1888 1.369 . S
C1889 C1890 1.410 . S
C1889 C1897 1.503 . S
C1890 C1889 1.410 . S
C1890 C1891 1.392 . S
C1890 C1893 1.511 . S
C1891 C1887 1.376 . S
C1891 C1890 1.392 . S
C1891 H1903 0.929 . S
C1892 C1888 1.531 . S
C1892 H1904 0.960 . S
C1892 H1905 0.962 . S
C1892 H1906 0.960 . S
C1893 C1890 1.511 . S
C1893 H1907 0.961 . S
C1893 H1908 0.961 . S
C1893 H1909 0.961 . S
C1894 C1895 1.370 . S
C1894 C1896 1.363 . S
C1894 H1910 0.931 . S
C1895 C1894 1.370 . S
C1895 C1899 1.408 . S
C1896 C1894 1.363 . S
C1896 C1897 1.370 . S
C1896 C1900 1.524 . S
C1897 C1889 1.503 . S
C1897 C1896 1.370 . S
C1897 C1898 1.403 . S
C1898 C1897 1.403 . S
C1898 C1899 1.404 . S
C1898 C1901 1.539 . S
C1899 C1895 1.408 . S
C1899 C1898 1.404 . S
C1899 H1911 0.930 . S
C1900 C1896 1.524 . S
C1900 H1912 0.956 . S
C1900 H1913 0.961 . S
C1900 H1914 0.989 . S
C1901 C1898 1.539 . S
C1901 H1915 0.958 . S
C1901 H1916 0.961 . S
C1901 H1917 0.960 . S
H1902 C1886 0.931 . S
H1903 C1891 0.929 . S
H1904 C1892 0.960 . S
H1905 C1892 0.962 . S
H1906 C1892 0.960 . S
H1907 C1893 0.961 . S
H1908 C1893 0.961 . S
H1909 C1893 0.961 . S
H1910 C1894 0.931 . S
H1911 C1899 0.930 . S
H1912 C1900 0.956 . S
H1913 C1900 0.961 . S
H1914 C1900 0.989 . S
H1915 C1901 0.958 . S
H1916 C1901 0.961 . S
H1917 C1901 0.960 . S
C1918 C1919 1.391 . S
C1918 C1920 1.394 . S
C1918 H1934 0.931 . S
C1919 C1918 1.391 . S
C1919 C1923 1.376 . S
C1920 C1918 1.394 . S
C1920 C1921 1.369 . S
C1920 C1924 1.531 . S
C1921 C1920 1.369 . S
C1921 C1922 1.410 . S
C1921 C1929 1.503 . S
C1922 C1921 1.410 . S
C1922 C1923 1.392 . S
C1922 C1925 1.511 . S
C1923 C1919 1.376 . S
C1923 C1922 1.392 . S
C1923 H1935 0.929 . S
C1924 C1920 1.531 . S
C1924 H1936 0.960 . S
C1924 H1937 0.962 . S
C1924 H1938 0.960 . S
C1925 C1922 1.511 . S
C1925 H1939 0.961 . S
C1925 H1940 0.961 . S
C1925 H1941 0.961 . S
C1926 C1927 1.370 . S
C1926 C1928 1.363 . S
C1926 H1942 0.931 . S
C1927 C1926 1.370 . S
C1927 C1931 1.408 . S
C1928 C1926 1.363 . S
C1928 C1929 1.370 . S
C1928 C1932 1.524 . S
C1929 C1921 1.503 . S
C1929 C1928 1.370 . S
C1929 C1930 1.403 . S
C1930 C1929 1.403 . S
C1930 C1931 1.404 . S
C1930 C1933 1.539 . S
C1931 C1927 1.408 . S
C1931 C1930 1.404 . S
C1931 H1943 0.930 . S
C1932 C1928 1.524 . S
C1932 H1944 0.956 . S
C1932 H1945 0.961 . S
C1932 H1946 0.961 . S
C1933 C1930 1.539 . S
C1933 H1947 0.958 . S
C1933 H1948 0.961 . S
C1933 H1949 0.960 . S
H1934 C1918 0.931 . S
H1935 C1923 0.929 . S
H1936 C1924 0.960 . S
H1937 C1924 0.962 . S
H1938 C1924 0.960 . S
H1939 C1925 0.961 . S
H1940 C1925 0.961 . S
H1941 C1925 0.961 . S
H1942 C1926 0.931 . S
H1943 C1931 0.930 . S
H1944 C1932 0.956 . S
H1945 C1932 0.961 . S
H1946 C1932 0.961 . S
H1947 C1933 0.958 . S
H1948 C1933 0.961 . S
H1949 C1933 0.960 . S
C1950 C1951 1.391 . S
C1950 C1952 1.394 . S
C1950 H1966 0.931 . S
C1951 C1950 1.391 . S
C1951 C1955 1.376 . S
C1952 C1950 1.394 . S
C1952 C1953 1.369 . S
C1952 C1956 1.531 . S
C1953 C1952 1.369 . S
C1953 C1954 1.410 . S
C1953 C1961 1.503 . S
C1954 C1953 1.410 . S
C1954 C1955 1.392 . S
C1954 C1957 1.511 . S
C1955 C1951 1.376 . S
C1955 C1954 1.392 . S
C1955 H1967 0.929 . S
C1956 C1952 1.531 . S
C1956 H1968 0.960 . S
C1956 H1969 0.964 . S
C1956 H1970 0.960 . S
C1957 C1954 1.511 . S
C1957 H1971 0.961 . S
C1957 H1972 0.961 . S
C1957 H1973 0.961 . S
C1958 C1959 1.370 . S
C1958 C1960 1.363 . S
C1958 H1974 0.931 . S
C1959 C1958 1.370 . S
C1959 C1963 1.408 . S
C1960 C1958 1.363 . S
C1960 C1961 1.370 . S
C1960 C1964 1.524 . S
C1961 C1953 1.503 . S
C1961 C1960 1.370 . S
C1961 C1962 1.403 . S
C1962 C1961 1.403 . S
C1962 C1963 1.404 . S
C1962 C1965 1.539 . S
C1963 C1959 1.408 . S
C1963 C1962 1.404 . S
C1963 H1975 0.930 . S
C1964 C1960 1.524 . S
C1964 H1976 0.956 . S
C1964 H1977 0.961 . S
C1964 H1978 0.961 . S
C1965 C1962 1.539 . S
C1965 H1979 0.958 . S
C1965 H1980 0.961 . S
C1965 H1981 0.960 . S
H1966 C1950 0.931 . S
H1967 C1955 0.929 . S
H1968 C1956 0.960 . S
H1969 C1956 0.964 . S
H1970 C1956 0.960 . S
H1971 C1957 0.961 . S
H1972 C1957 0.961 . S
H1973 C1957 0.961 . S
H1974 C1958 0.931 . S
H1975 C1963 0.930 . S
H1976 C1964 0.956 . S
H1977 C1964 0.961 . S
H1978 C1964 0.961 . S
H1979 C1965 0.958 . S
H1980 C1965 0.961 . S
H1981 C1965 0.960 . S
C1982 C1983 1.391 . S
C1982 C1984 1.394 . S
C1982 H1998 0.931 . S
C1983 C1982 1.391 . S
C1983 C1987 1.376 . S
C1984 C1982 1.394 . S
C1984 C1985 1.369 . S
C1984 C1988 1.531 . S
C1985 C1984 1.369 . S
C1985 C1986 1.410 . S
C1985 C1993 1.503 . S
C1986 C1985 1.410 . S
C1986 C1987 1.392 . S
C1986 C1989 1.511 . S
C1987 C1983 1.376 . S
C1987 C1986 1.392 . S
C1987 H1999 0.929 . S
C1988 C1984 1.531 . S
C1988 H2000 0.960 . S
C1988 H2001 0.962 . S
C1988 H2002 0.960 . S
C1989 C1986 1.511 . S
C1989 H2003 0.961 . S
C1989 H2004 0.961 . S
C1989 H2005 0.961 . S
C1990 C1991 1.370 . S
C1990 C1992 1.363 . S
C1990 H2006 0.931 . S
C1991 C1990 1.370 . S
C1991 C1995 1.408 . S
C1992 C1990 1.363 . S
C1992 C1993 1.370 . S
C1992 C1996 1.524 . S
C1993 C1985 1.503 . S
C1993 C1992 1.370 . S
C1993 C1994 1.403 . S
C1994 C1993 1.403 . S
C1994 C1995 1.404 . S
C1994 C1997 1.539 . S
C1995 C1991 1.408 . S
C1995 C1994 1.404 . S
C1995 H2007 0.930 . S
C1996 C1992 1.524 . S
C1996 H2008 0.956 . S
C1996 H2009 0.961 . S
C1996 H2010 0.961 . S
C1997 C1994 1.539 . S
C1997 H2011 0.958 . S
C1997 H2012 0.961 . S
C1997 H2013 0.960 . S
H1998 C1982 0.931 . S
H1999 C1987 0.929 . S
H2000 C1988 0.960 . S
H2001 C1988 0.962 . S
H2002 C1988 0.960 . S
H2003 C1989 0.961 . S
H2004 C1989 0.961 . S
H2005 C1989 0.961 . S
H2006 C1990 0.931 . S
H2007 C1995 0.930 . S
H2008 C1996 0.956 . S
H2009 C1996 0.961 . S
H2010 C1996 0.961 . S
H2011 C1997 0.958 . S
H2012 C1997 0.961 . S
H2013 C1997 0.960 . S
C2014 C2015 1.391 . S
C2014 C2016 1.394 . S
C2014 H2030 0.931 . S
C2015 C2014 1.391 . S
C2015 C2019 1.376 . S
C2016 C2014 1.394 . S
C2016 C2017 1.369 . S
C2016 C2020 1.531 . S
C2017 C2016 1.369 . S
C2017 C2018 1.410 . S
C2017 C2025 1.503 . S
C2018 C2017 1.410 . S
C2018 C2019 1.392 . S
C2018 C2021 1.511 . S
C2019 C2015 1.376 . S
C2019 C2018 1.392 . S
C2019 H2031 0.929 . S
C2020 C2016 1.531 . S
C2020 H2032 0.960 . S
C2020 H2033 0.962 . S
C2020 H2034 0.960 . S
C2021 C2018 1.511 . S
C2021 H2035 0.961 . S
C2021 H2036 0.961 . S
C2021 H2037 0.961 . S
C2022 C2023 1.370 . S
C2022 C2024 1.363 . S
C2022 H2038 0.931 . S
C2023 C2022 1.370 . S
C2023 C2027 1.408 . S
C2024 C2022 1.363 . S
C2024 C2025 1.370 . S
C2024 C2028 1.524 . S
C2025 C2017 1.503 . S
C2025 C2024 1.370 . S
C2025 C2026 1.403 . S
C2026 C2025 1.403 . S
C2026 C2027 1.404 . S
C2026 C2029 1.539 . S
C2027 C2023 1.408 . S
C2027 C2026 1.404 . S
C2027 H2039 0.930 . S
C2028 C2024 1.524 . S
C2028 H2040 0.956 . S
C2028 H2041 0.961 . S
C2028 H2042 0.961 . S
C2029 C2026 1.539 . S
C2029 H2043 0.958 . S
C2029 H2044 0.961 . S
C2029 H2045 0.960 . S
H2030 C2014 0.931 . S
H2031 C2019 0.929 . S
H2032 C2020 0.960 . S
H2033 C2020 0.962 . S
H2034 C2020 0.960 . S
H2035 C2021 0.961 . S
H2036 C2021 0.961 . S
H2037 C2021 0.961 . S
H2038 C2022 0.931 . S
H2039 C2027 0.930 . S
H2040 C2028 0.956 . S
H2041 C2028 0.961 . S
H2042 C2028 0.961 . S
H2043 C2029 0.958 . S
H2044 C2029 0.961 . S
H2045 C2029 0.960 . S
C2046 C2047 1.391 . S
C2046 C2048 1.394 . S
C2046 H2062 0.931 . S
C2047 C2046 1.391 . S
C2047 C2051 1.376 . S
C2048 C2046 1.394 . S
C2048 C2049 1.369 . S
C2048 C2052 1.531 . S
C2049 C2048 1.369 . S
C2049 C2050 1.410 . S
C2049 C2057 1.503 . S
C2050 C2049 1.410 . S
C2050 C2051 1.392 . S
C2050 C2053 1.511 . S
C2051 C2047 1.376 . S
C2051 C2050 1.392 . S
C2051 H2063 0.929 . S
C2052 C2048 1.531 . S
C2052 H2064 0.960 . S
C2052 H2065 0.962 . S
C2052 H2066 0.960 . S
C2053 C2050 1.511 . S
C2053 H2067 0.961 . S
C2053 H2068 0.961 . S
C2053 H2069 0.961 . S
C2054 C2055 1.370 . S
C2054 C2056 1.363 . S
C2054 H2070 0.931 . S
C2055 C2054 1.370 . S
C2055 C2059 1.408 . S
C2056 C2054 1.363 . S
C2056 C2057 1.370 . S
C2056 C2060 1.524 . S
C2057 C2049 1.503 . S
C2057 C2056 1.370 . S
C2057 C2058 1.403 . S
C2058 C2057 1.403 . S
C2058 C2059 1.404 . S
C2058 C2061 1.539 . S
C2059 C2055 1.408 . S
C2059 C2058 1.404 . S
C2059 H2071 0.930 . S
C2060 C2056 1.524 . S
C2060 H2072 0.956 . S
C2060 H2073 0.961 . S
C2060 H2074 0.961 . S
C2061 C2058 1.539 . S
C2061 H2075 0.958 . S
C2061 H2076 0.961 . S
C2061 H2077 0.960 . S
H2062 C2046 0.931 . S
H2063 C2051 0.929 . S
H2064 C2052 0.960 . S
H2065 C2052 0.962 . S
H2066 C2052 0.960 . S
H2067 C2053 0.961 . S
H2068 C2053 0.961 . S
H2069 C2053 0.961 . S
H2070 C2054 0.931 . S
H2071 C2059 0.930 . S
H2072 C2060 0.956 . S
H2073 C2060 0.961 . S
H2074 C2060 0.961 . S
H2075 C2061 0.958 . S
H2076 C2061 0.961 . S
H2077 C2061 0.960 . S
C2078 C2079 1.391 . S
C2078 C2080 1.394 . S
C2078 H2094 0.931 . S
C2079 C2078 1.391 . S
C2079 C2083 1.376 . S
C2080 C2078 1.394 . S
C2080 C2081 1.369 . S
C2080 C2084 1.531 . S
C2081 C2080 1.369 . S
C2081 C2082 1.410 . S
C2081 C2089 1.503 . S
C2082 C2081 1.410 . S
C2082 C2083 1.392 . S
C2082 C2085 1.511 . S
C2083 C2079 1.376 . S
C2083 C2082 1.392 . S
C2083 H2095 0.929 . S
C2084 C2080 1.531 . S
C2084 H2096 0.960 . S
C2084 H2097 0.962 . S
C2084 H2098 0.960 . S
C2085 C2082 1.511 . S
C2085 H2099 0.961 . S
C2085 H2100 0.961 . S
C2085 H2101 0.961 . S
C2086 C2087 1.370 . S
C2086 C2088 1.363 . S
C2086 H2102 0.931 . S
C2087 C2086 1.370 . S
C2087 C2091 1.408 . S
C2088 C2086 1.363 . S
C2088 C2089 1.370 . S
C2088 C2092 1.524 . S
C2089 C2081 1.503 . S
C2089 C2088 1.370 . S
C2089 C2090 1.403 . S
C2090 C2089 1.403 . S
C2090 C2091 1.404 . S
C2090 C2093 1.539 . S
C2091 C2087 1.408 . S
C2091 C2090 1.404 . S
C2091 H2103 0.930 . S
C2092 C2088 1.524 . S
C2092 H2104 0.956 . S
C2092 H2105 0.961 . S
C2092 H2106 0.961 . S
C2093 C2090 1.539 . S
C2093 H2107 0.958 . S
C2093 H2108 0.961 . S
C2093 H2109 0.960 . S
H2094 C2078 0.931 . S
H2095 C2083 0.929 . S
H2096 C2084 0.960 . S
H2097 C2084 0.962 . S
H2098 C2084 0.960 . S
H2099 C2085 0.961 . S
H2100 C2085 0.961 . S
H2101 C2085 0.961 . S
H2102 C2086 0.931 . S
H2103 C2091 0.930 . S
H2104 C2092 0.956 . S
H2105 C2092 0.961 . S
H2106 C2092 0.961 . S
H2107 C2093 0.958 . S
H2108 C2093 0.961 . S
H2109 C2093 0.960 . S
C2110 C2111 1.391 . S
C2110 C2112 1.394 . S
C2110 H2126 0.931 . S
C2111 C2110 1.391 . S
C2111 C2115 1.376 . S
C2112 C2110 1.394 . S
C2112 C2113 1.369 . S
C2112 C2116 1.531 . S
C2113 C2112 1.369 . S
C2113 C2114 1.410 . S
C2113 C2121 1.503 . S
C2114 C2113 1.410 . S
C2114 C2115 1.392 . S
C2114 C2117 1.511 . S
C2115 C2111 1.376 . S
C2115 C2114 1.392 . S
C2115 H2127 0.929 . S
C2116 C2112 1.531 . S
C2116 H2128 0.960 . S
C2116 H2129 0.962 . S
C2116 H2130 0.960 . S
C2117 C2114 1.511 . S
C2117 H2131 0.961 . S
C2117 H2132 0.961 . S
C2117 H2133 0.961 . S
C2118 C2119 1.370 . S
C2118 C2120 1.363 . S
C2118 H2134 0.931 . S
C2119 C2118 1.370 . S
C2119 C2123 1.408 . S
C2120 C2118 1.363 . S
C2120 C2121 1.370 . S
C2120 C2124 1.524 . S
C2121 C2113 1.503 . S
C2121 C2120 1.370 . S
C2121 C2122 1.403 . S
C2122 C2121 1.403 . S
C2122 C2123 1.404 . S
C2122 C2125 1.539 . S
C2123 C2119 1.408 . S
C2123 C2122 1.404 . S
C2123 H2135 0.930 . S
C2124 C2120 1.524 . S
C2124 H2136 0.956 . S
C2124 H2137 0.961 . S
C2124 H2138 0.961 . S
C2125 C2122 1.539 . S
C2125 H2139 0.958 . S
C2125 H2140 0.961 . S
C2125 H2141 0.960 . S
H2126 C2110 0.931 . S
H2127 C2115 0.929 . S
H2128 C2116 0.960 . S
H2129 C2116 0.962 . S
H2130 C2116 0.960 . S
H2131 C2117 0.961 . S
H2132 C2117 0.961 . S
H2133 C2117 0.961 . S
H2134 C2118 0.931 . S
H2135 C2123 0.930 . S
H2136 C2124 0.956 . S
H2137 C2124 0.961 . S
H2138 C2124 0.961 . S
H2139 C2125 0.958 . S
H2140 C2125 0.961 . S
H2141 C2125 0.960 . S
C2142 C2143 1.391 . S
C2142 C2144 1.394 . S
C2142 H2158 0.931 . S
C2143 C2142 1.391 . S
C2143 C2147 1.376 . S
C2144 C2142 1.394 . S
C2144 C2145 1.369 . S
C2144 C2148 1.531 . S
C2145 C2144 1.369 . S
C2145 C2146 1.410 . S
C2145 C2153 1.503 . S
C2146 C2145 1.410 . S
C2146 C2147 1.392 . S
C2146 C2149 1.511 . S
C2147 C2143 1.376 . S
C2147 C2146 1.392 . S
C2147 H2159 0.929 . S
C2148 C2144 1.531 . S
C2148 H2160 0.960 . S
C2148 H2161 0.962 . S
C2148 H2162 0.960 . S
C2149 C2146 1.511 . S
C2149 H2163 0.961 . S
C2149 H2164 0.961 . S
C2149 H2165 0.961 . S
C2150 C2151 1.370 . S
C2150 C2152 1.363 . S
C2150 H2166 0.931 . S
C2151 C2150 1.370 . S
C2151 C2155 1.408 . S
C2152 C2150 1.363 . S
C2152 C2153 1.370 . S
C2152 C2156 1.524 . S
C2153 C2145 1.503 . S
C2153 C2152 1.370 . S
C2153 C2154 1.403 . S
C2154 C2153 1.403 . S
C2154 C2155 1.404 . S
C2154 C2157 1.539 . S
C2155 C2151 1.408 . S
C2155 C2154 1.404 . S
C2155 H2167 0.930 . S
C2156 C2152 1.524 . S
C2156 H2168 0.956 . S
C2156 H2169 0.961 . S
C2156 H2170 0.961 . S
C2157 C2154 1.539 . S
C2157 H2171 0.958 . S
C2157 H2172 0.961 . S
C2157 H2173 0.960 . S
H2158 C2142 0.931 . S
H2159 C2147 0.929 . S
H2160 C2148 0.960 . S
H2161 C2148 0.962 . S
H2162 C2148 0.960 . S
H2163 C2149 0.961 . S
H2164 C2149 0.961 . S
H2165 C2149 0.961 . S
H2166 C2150 0.931 . S
H2167 C2155 0.930 . S
H2168 C2156 0.956 . S
H2169 C2156 0.961 . S
H2170 C2156 0.961 . S
H2171 C2157 0.958 . S
H2172 C2157 0.961 . S
H2173 C2157 0.960 . S
C2174 C2175 1.391 . S
C2174 C2176 1.394 . S
C2174 H2190 0.931 . S
C2175 C2174 1.391 . S
C2175 C2179 1.376 . S
C2176 C2174 1.394 . S
C2176 C2177 1.369 . S
C2176 C2180 1.531 . S
C2177 C2176 1.369 . S
C2177 C2178 1.410 . S
C2177 C2185 1.503 . S
C2178 C2177 1.410 . S
C2178 C2179 1.392 . S
C2178 C2181 1.511 . S
C2179 C2175 1.376 . S
C2179 C2178 1.392 . S
C2179 H2191 0.929 . S
C2180 C2176 1.531 . S
C2180 H2192 0.960 . S
C2180 H2193 0.962 . S
C2180 H2194 0.960 . S
C2181 C2178 1.511 . S
C2181 H2195 0.961 . S
C2181 H2196 0.961 . S
C2181 H2197 0.961 . S
C2182 C2183 1.370 . S
C2182 C2184 1.363 . S
C2182 H2198 0.931 . S
C2183 C2182 1.370 . S
C2183 C2187 1.408 . S
C2184 C2182 1.363 . S
C2184 C2185 1.370 . S
C2184 C2188 1.524 . S
C2185 C2177 1.503 . S
C2185 C2184 1.370 . S
C2185 C2186 1.403 . S
C2186 C2185 1.403 . S
C2186 C2187 1.404 . S
C2186 C2189 1.539 . S
C2187 C2183 1.408 . S
C2187 C2186 1.404 . S
C2187 H2199 0.930 . S
C2188 C2184 1.524 . S
C2188 H2200 0.956 . S
C2188 H2201 0.961 . S
C2188 H2202 0.961 . S
C2189 C2186 1.539 . S
C2189 H2203 0.958 . S
C2189 H2204 0.961 . S
C2189 H2205 0.960 . S
H2190 C2174 0.931 . S
H2191 C2179 0.929 . S
H2192 C2180 0.960 . S
H2193 C2180 0.962 . S
H2194 C2180 0.960 . S
H2195 C2181 0.961 . S
H2196 C2181 0.961 . S
H2197 C2181 0.961 . S
H2198 C2182 0.931 . S
H2199 C2187 0.930 . S
H2200 C2188 0.956 . S
H2201 C2188 0.961 . S
H2202 C2188 0.961 . S
H2203 C2189 0.958 . S
H2204 C2189 0.961 . S
H2205 C2189 0.960 . S
C2206 C2207 1.391 . S
C2206 C2208 1.394 . S
C2206 H2222 0.931 . S
C2207 C2206 1.391 . S
C2207 C2211 1.376 . S
C2208 C2206 1.394 . S
C2208 C2209 1.369 . S
C2208 C2212 1.531 . S
C2209 C2208 1.369 . S
C2209 C2210 1.410 . S
C2209 C2217 1.503 . S
C2210 C2209 1.410 . S
C2210 C2211 1.392 . S
C2210 C2213 1.511 . S
C2211 C2207 1.376 . S
C2211 C2210 1.392 . S
C2211 H2223 0.929 . S
C2212 C2208 1.531 . S
C2212 H2224 0.960 . S
C2212 H2225 0.962 . S
C2212 H2226 0.960 . S
C2213 C2210 1.511 . S
C2213 H2227 0.961 . S
C2213 H2228 0.961 . S
C2213 H2229 0.961 . S
C2214 C2215 1.370 . S
C2214 C2216 1.363 . S
C2214 H2230 0.931 . S
C2215 C2214 1.370 . S
C2215 C2219 1.408 . S
C2216 C2214 1.363 . S
C2216 C2217 1.370 . S
C2216 C2220 1.524 . S
C2217 C2209 1.503 . S
C2217 C2216 1.370 . S
C2217 C2218 1.403 . S
C2218 C2217 1.403 . S
C2218 C2219 1.404 . S
C2218 C2221 1.539 . S
C2219 C2215 1.408 . S
C2219 C2218 1.404 . S
C2219 H2231 0.930 . S
C2220 C2216 1.524 . S
C2220 H2232 0.956 . S
C2220 H2233 0.961 . S
C2220 H2234 0.961 . S
C2221 C2218 1.539 . S
C2221 H2235 0.958 . S
C2221 H2236 0.961 . S
C2221 H2237 0.960 . S
H2222 C2206 0.931 . S
H2223 C2211 0.929 . S
H2224 C2212 0.960 . S
H2225 C2212 0.962 . S
H2226 C2212 0.960 . S
H2227 C2213 0.961 . S
H2228 C2213 0.961 . S
H2229 C2213 0.961 . S
H2230 C2214 0.931 . S
H2231 C2219 0.930 . S
H2232 C2220 0.956 . S
H2233 C2220 0.961 . S
H2234 C2220 0.961 . S
H2235 C2221 0.958 . S
H2236 C2221 0.961 . S
H2237 C2221 0.960 . S
C2238 C2239 1.391 . S
C2238 C2240 1.394 . S
C2238 H2254 0.931 . S
C2239 C2238 1.391 . S
C2239 C2243 1.376 . S
C2240 C2238 1.394 . S
C2240 C2241 1.369 . S
C2240 C2244 1.531 . S
C2241 C2240 1.369 . S
C2241 C2242 1.410 . S
C2241 C2249 1.503 . S
C2242 C2241 1.410 . S
C2242 C2243 1.392 . S
C2242 C2245 1.511 . S
C2243 C2239 1.376 . S
C2243 C2242 1.392 . S
C2243 H2255 0.929 . S
C2244 C2240 1.531 . S
C2244 H2256 0.960 . S
C2244 H2257 0.962 . S
C2244 H2258 0.960 . S
C2245 C2242 1.511 . S
C2245 H2259 0.961 . S
C2245 H2260 0.961 . S
C2245 H2261 0.961 . S
C2246 C2247 1.370 . S
C2246 C2248 1.363 . S
C2246 H2262 0.931 . S
C2247 C2246 1.370 . S
C2247 C2251 1.408 . S
C2248 C2246 1.363 . S
C2248 C2249 1.370 . S
C2248 C2252 1.524 . S
C2249 C2241 1.503 . S
C2249 C2248 1.370 . S
C2249 C2250 1.403 . S
C2250 C2249 1.403 . S
C2250 C2251 1.404 . S
C2250 C2253 1.539 . S
C2251 C2247 1.408 . S
C2251 C2250 1.404 . S
C2251 H2263 0.930 . S
C2252 C2248 1.524 . S
C2252 H2264 0.956 . S
C2252 H2265 0.961 . S
C2252 H2266 0.961 . S
C2253 C2250 1.539 . S
C2253 H2267 0.958 . S
C2253 H2268 0.961 . S
C2253 H2269 0.960 . S
H2254 C2238 0.931 . S
H2255 C2243 0.929 . S
H2256 C2244 0.960 . S
H2257 C2244 0.962 . S
H2258 C2244 0.960 . S
H2259 C2245 0.961 . S
H2260 C2245 0.961 . S
H2261 C2245 0.961 . S
H2262 C2246 0.931 . S
H2263 C2251 0.930 . S
H2264 C2252 0.956 . S
H2265 C2252 0.961 . S
H2266 C2252 0.961 . S
H2267 C2253 0.958 . S
H2268 C2253 0.961 . S
H2269 C2253 0.960 . S
C2270 C2271 1.391 . S
C2270 C2272 1.394 . S
C2270 H2286 0.931 . S
C2271 C2270 1.391 . S
C2271 C2275 1.376 . S
C2272 C2270 1.394 . S
C2272 C2273 1.369 . S
C2272 C2276 1.531 . S
C2273 C2272 1.369 . S
C2273 C2274 1.410 . S
C2273 C2281 1.503 . S
C2274 C2273 1.410 . S
C2274 C2275 1.392 . S
C2274 C2277 1.511 . S
C2275 C2271 1.376 . S
C2275 C2274 1.392 . S
C2275 H2287 0.929 . S
C2276 C2272 1.531 . S
C2276 H2288 0.960 . S
C2276 H2289 0.962 . S
C2276 H2290 0.960 . S
C2277 C2274 1.511 . S
C2277 H2291 0.961 . S
C2277 H2292 0.961 . S
C2277 H2293 0.961 . S
C2278 C2279 1.370 . S
C2278 C2280 1.363 . S
C2278 H2294 0.931 . S
C2279 C2278 1.370 . S
C2279 C2283 1.408 . S
C2280 C2278 1.363 . S
C2280 C2281 1.370 . S
C2280 C2284 1.524 . S
C2281 C2273 1.503 . S
C2281 C2280 1.370 . S
C2281 C2282 1.403 . S
C2282 C2281 1.403 . S
C2282 C2283 1.404 . S
C2282 C2285 1.539 . S
C2283 C2279 1.408 . S
C2283 C2282 1.404 . S
C2283 H2295 0.930 . S
C2284 C2280 1.524 . S
C2284 H2296 0.956 . S
C2284 H2297 0.961 . S
C2284 H2298 0.961 . S
C2285 C2282 1.539 . S
C2285 H2299 0.958 . S
C2285 H2300 0.961 . S
C2285 H2301 0.960 . S
H2286 C2270 0.931 . S
H2287 C2275 0.929 . S
H2288 C2276 0.960 . S
H2289 C2276 0.962 . S
H2290 C2276 0.960 . S
H2291 C2277 0.961 . S
H2292 C2277 0.961 . S
H2293 C2277 0.961 . S
H2294 C2278 0.931 . S
H2295 C2283 0.930 . S
H2296 C2284 0.956 . S
H2297 C2284 0.961 . S
H2298 C2284 0.961 . S
H2299 C2285 0.958 . S
H2300 C2285 0.961 . S
H2301 C2285 0.960 . S
C2302 C2303 1.391 . S
C2302 C2304 1.394 . S
C2302 H2318 0.931 . S
C2303 C2302 1.391 . S
C2303 C2307 1.376 . S
C2304 C2302 1.394 . S
C2304 C2305 1.369 . S
C2304 C2308 1.531 . S
C2305 C2304 1.369 . S
C2305 C2306 1.410 . S
C2305 C2313 1.503 . S
C2306 C2305 1.410 . S
C2306 C2307 1.392 . S
C2306 C2309 1.511 . S
C2307 C2303 1.376 . S
C2307 C2306 1.392 . S
C2307 H2319 0.929 . S
C2308 C2304 1.531 . S
C2308 H2320 0.960 . S
C2308 H2321 0.962 . S
C2308 H2322 0.960 . S
C2309 C2306 1.511 . S
C2309 H2323 0.961 . S
C2309 H2324 0.961 . S
C2309 H2325 0.961 . S
C2310 C2311 1.370 . S
C2310 C2312 1.363 . S
C2310 H2326 0.931 . S
C2311 C2310 1.370 . S
C2311 C2315 1.408 . S
C2312 C2310 1.363 . S
C2312 C2313 1.370 . S
C2312 C2316 1.524 . S
C2313 C2305 1.503 . S
C2313 C2312 1.370 . S
C2313 C2314 1.403 . S
C2314 C2313 1.403 . S
C2314 C2315 1.404 . S
C2314 C2317 1.539 . S
C2315 C2311 1.408 . S
C2315 C2314 1.404 . S
C2315 H2327 0.930 . S
C2316 C2312 1.524 . S
C2316 H2328 0.956 . S
C2316 H2329 0.961 . S
C2316 H2330 0.961 . S
C2317 C2314 1.539 . S
C2317 H2331 0.958 . S
C2317 H2332 0.961 . S
C2317 H2333 0.960 . S
H2318 C2302 0.931 . S
H2319 C2307 0.929 . S
H2320 C2308 0.960 . S
H2321 C2308 0.962 . S
H2322 C2308 0.960 . S
H2323 C2309 0.961 . S
H2324 C2309 0.961 . S
H2325 C2309 0.961 . S
H2326 C2310 0.931 . S
H2327 C2315 0.930 . S
H2328 C2316 0.956 . S
H2329 C2316 0.961 . S
H2330 C2316 0.961 . S
H2331 C2317 0.958 . S
H2332 C2317 0.961 . S
H2333 C2317 0.960 . S
C2334 C2335 1.391 . S
C2334 C2336 1.394 . S
C2334 H2350 0.931 . S
C2335 C2334 1.391 . S
C2335 C2339 1.376 . S
C2336 C2334 1.394 . S
C2336 C2337 1.369 . S
C2336 C2340 1.531 . S
C2337 C2336 1.369 . S
C2337 C2338 1.410 . S
C2337 C2345 1.503 . S
C2338 C2337 1.410 . S
C2338 C2339 1.392 . S
C2338 C2341 1.511 . S
C2339 C2335 1.376 . S
C2339 C2338 1.392 . S
C2339 H2351 0.929 . S
C2340 C2336 1.531 . S
C2340 H2352 0.960 . S
C2340 H2353 0.962 . S
C2340 H2354 0.960 . S
C2341 C2338 1.511 . S
C2341 H2355 0.961 . S
C2341 H2356 0.961 . S
C2341 H2357 0.961 . S
C2342 C2343 1.370 . S
C2342 C2344 1.363 . S
C2342 H2358 0.931 . S
C2343 C2342 1.370 . S
C2343 C2347 1.408 . S
C2344 C2342 1.363 . S
C2344 C2345 1.370 . S
C2344 C2348 1.524 . S
C2345 C2337 1.503 . S
C2345 C2344 1.370 . S
C2345 C2346 1.403 . S
C2346 C2345 1.403 . S
C2346 C2347 1.404 . S
C2346 C2349 1.539 . S
C2347 C2343 1.408 . S
C2347 C2346 1.404 . S
C2347 H2359 0.930 . S
C2348 C2344 1.524 . S
C2348 H2360 0.956 . S
C2348 H2361 0.961 . S
C2348 H2362 0.961 . S
C2349 C2346 1.539 . S
C2349 H2363 0.958 . S
C2349 H2364 0.961 . S
C2349 H2365 0.960 . S
H2350 C2334 0.931 . S
H2351 C2339 0.929 . S
H2352 C2340 0.960 . S
H2353 C2340 0.962 . S
H2354 C2340 0.960 . S
H2355 C2341 0.961 . S
H2356 C2341 0.961 . S
H2357 C2341 0.961 . S
H2358 C2342 0.931 . S
H2359 C2347 0.930 . S
H2360 C2348 0.956 . S
H2361 C2348 0.961 . S
H2362 C2348 0.961 . S
H2363 C2349 0.958 . S
H2364 C2349 0.961 . S
H2365 C2349 0.960 . S
C2366 C2367 1.391 . S
C2366 C2368 1.394 . S
C2366 H2382 0.931 . S
C2367 C2366 1.391 . S
C2367 C2371 1.376 . S
C2368 C2366 1.394 . S
C2368 C2369 1.369 . S
C2368 C2372 1.531 . S
C2369 C2368 1.369 . S
C2369 C2370 1.410 . S
C2369 C2377 1.503 . S
C2370 C2369 1.410 . S
C2370 C2371 1.392 . S
C2370 C2373 1.511 . S
C2371 C2367 1.376 . S
C2371 C2370 1.392 . S
C2371 H2383 0.929 . S
C2372 C2368 1.531 . S
C2372 H2384 0.960 . S
C2372 H2385 0.962 . S
C2372 H2386 0.960 . S
C2373 C2370 1.511 . S
C2373 H2387 0.961 . S
C2373 H2388 0.961 . S
C2373 H2389 0.961 . S
C2374 C2375 1.370 . S
C2374 C2376 1.363 . S
C2374 H2390 0.931 . S
C2375 C2374 1.370 . S
C2375 C2379 1.408 . S
C2376 C2374 1.363 . S
C2376 C2377 1.370 . S
C2376 C2380 1.524 . S
C2377 C2369 1.503 . S
C2377 C2376 1.370 . S
C2377 C2378 1.403 . S
C2378 C2377 1.403 . S
C2378 C2379 1.404 . S
C2378 C2381 1.539 . S
C2379 C2375 1.408 . S
C2379 C2378 1.404 . S
C2379 H2391 0.930 . S
C2380 C2376 1.524 . S
C2380 H2392 0.956 . S
C2380 H2393 0.961 . S
C2380 H2394 0.961 . S
C2381 C2378 1.539 . S
C2381 H2395 0.958 . S
C2381 H2396 0.961 . S
C2381 H2397 0.960 . S
H2382 C2366 0.931 . S
H2383 C2371 0.929 . S
H2384 C2372 0.960 . S
H2385 C2372 0.962 . S
H2386 C2372 0.960 . S
H2387 C2373 0.961 . S
H2388 C2373 0.961 . S
H2389 C2373 0.961 . S
H2390 C2374 0.931 . S
H2391 C2379 0.930 . S
H2392 C2380 0.956 . S
H2393 C2380 0.961 . S
H2394 C2380 0.961 . S
H2395 C2381 0.958 . S
H2396 C2381 0.961 . S
H2397 C2381 0.960 . S
C2398 C2399 1.391 . S
C2398 C2400 1.394 . S
C2398 H2414 0.931 . S
C2399 C2398 1.391 . S
C2399 C2403 1.376 . S
C2400 C2398 1.394 . S
C2400 C2401 1.369 . S
C2400 C2404 1.531 . S
C2401 C2400 1.369 . S
C2401 C2402 1.410 . S
C2401 C2409 1.503 . S
C2402 C2401 1.410 . S
C2402 C2403 1.392 . S
C2402 C2405 1.511 . S
C2403 C2399 1.376 . S
C2403 C2402 1.392 . S
C2403 H2415 0.929 . S
C2404 C2400 1.531 . S
C2404 H2416 0.960 . S
C2404 H2417 0.962 . S
C2404 H2418 0.960 . S
C2405 C2402 1.511 . S
C2405 H2419 0.961 . S
C2405 H2420 0.961 . S
C2405 H2421 0.961 . S
C2406 C2407 1.370 . S
C2406 C2408 1.363 . S
C2406 H2422 0.931 . S
C2407 C2406 1.370 . S
C2407 C2411 1.408 . S
C2408 C2406 1.363 . S
C2408 C2409 1.370 . S
C2408 C2412 1.524 . S
C2409 C2401 1.503 . S
C2409 C2408 1.370 . S
C2409 C2410 1.403 . S
C2410 C2409 1.403 . S
C2410 C2411 1.404 . S
C2410 C2413 1.539 . S
C2411 C2407 1.408 . S
C2411 C2410 1.404 . S
C2411 H2423 0.930 . S
C2412 C2408 1.524 . S
C2412 H2424 0.956 . S
C2412 H2425 0.961 . S
C2412 H2426 0.961 . S
C2413 C2410 1.539 . S
C2413 H2427 0.958 . S
C2413 H2428 0.961 . S
C2413 H2429 0.960 . S
H2414 C2398 0.931 . S
H2415 C2403 0.929 . S
H2416 C2404 0.960 . S
H2417 C2404 0.962 . S
H2418 C2404 0.960 . S
H2419 C2405 0.961 . S
H2420 C2405 0.961 . S
H2421 C2405 0.961 . S
H2422 C2406 0.931 . S
H2423 C2411 0.930 . S
H2424 C2412 0.956 . S
H2425 C2412 0.961 . S
H2426 C2412 0.961 . S
H2427 C2413 0.958 . S
H2428 C2413 0.961 . S
H2429 C2413 0.960 . S
C703 C253 1.714 . S
C711 C354 1.742 . S
C735 C272 1.850 . S
C743 C394 1.839 . S
C767 C234 1.625 . S
C775 C424 1.603 . S
C799 C215 1.458 . S
C807 C384 1.455 1_556 S
C839 C434 1.552 . S
C831 C177 1.557 . S
C863 C196 1.411 . S
C871 C344 1.386 . S
C903 C373 1.711 . S
C895 C220 1.490 . S
C935 C413 1.658 . S
C927 C182 1.524 . S
C959 C201 1.586 . S
C967 C439 1.736 . S
C991 C258 1.390 . S
C999 C399 1.538 . S
C1023 C277 1.299 . S
C1031 C453 1.459 . S
C1063 C359 1.539 . S
C1055 C239 1.390 . S
C1095 C474 1.741 . S
C1087 C25 1.712 . S
C1119 C44 1.846 . S
C1127 C514 1.836 . S
C1151 C6 1.588 . S
C1159 C544 1.602 . S
C1183 C329 1.458 . S
C1191 C504 1.457 . S
C1215 C291 1.556 . S
C1223 C554 1.553 . S
C1247 C310 1.411 . S
C1255 C464 1.383 . S
C1279 C334 1.530 . S
C1287 C493 1.703 . S
C1311 C296 1.585 . S
C1319 C533 1.656 . S
C1351 C559 1.735 . S
C1343 C315 1.666 . S
C1375 C30 1.443 . S
C1383 C519 1.550 . S
C1415 C573 1.461 . S
C1407 C49 1.279 1_455 S
C1439 C11 1.376 . S
C1447 C479 1.529 . S
C1479 C594 1.742 . S
C1471 C139 1.735 . S
C1503 C158 1.848 . S
C1511 C634 1.842 . S
C1543 C664 1.599 . S
C1535 C120 1.589 . S
C1575 C624 1.449 . S
C1567 C101 1.495 . S
C1607 C674 1.553 . S
C1599 C63 1.559 . S
C1631 C82 1.394 . S
C1639 C584 1.377 . S
C1663 C106 1.570 . S
C1671 C613 1.700 . S
C1695 C68 1.549 . S
C1703 C653 1.655 . S
C1735 C679 1.739 . S
C1727 C87 1.666 . S
C1759 C144 1.410 . S
C1767 C639 1.530 . S
C1791 C163 1.371 . S
C1799 C693 1.455 . S
C1823 C125 1.428 . S
C1831 C599 1.527 . S
C1855 C287 1.597 . S
C1863 C371 1.548 . S
C1895 C411 2.058 . S
C1887 C306 2.064 . S
C1919 C325 1.639 . S
C1927 C430 1.656 . S
C1951 C116 1.859 . S
C1959 C390 1.873 . S
C1983 C135 1.802 . S
C1991 C451 1.789 . S
C2023 C350 1.344 . S
C2015 C154 1.311 . S
C2047 C59 1.574 . S
C2055 C491 1.568 . S
C2079 C78 2.060 . S
C2087 C531 2.058 . S
C2111 C97 1.620 . S
C2119 C550 1.668 . S
C2143 C230 1.864 . S
C2151 C510 1.863 . S
C2183 C571 1.790 . S
C2175 C249 1.802 . S
C2207 C268 1.295 . S
C2215 C470 1.344 . S
C2239 C173 1.570 . S
C2247 C611 1.569 . S
C2271 C192 2.075 . S
C2279 C651 2.054 . S
C2311 C670 1.666 . S
C2303 C211 1.601 . S
C2335 C2 1.833 . S
C2343 C630 1.876 . S
C2367 C21 1.800 . S
C2375 C691 1.791 . S
C2399 C40 1.320 . S
C2407 C590 1.337 . S
