# Generated by pormake.
# Topology dag, (6,3)-cn, num edge types: 1
# Building blocks:
#     Node 0, Type 0, BuildingBlock: IZENUY_clean_sbu_0, # of connection points: 6
#     Node 1, Type 0, BuildingBlock: IZENUY_clean_sbu_0, # of connection points: 6
#     Node 2, Type 0, BuildingBlock: IZENUY_clean_sbu_0, # of connection points: 6
#     Node 3, Type 0, BuildingBlock: IZENUY_clean_sbu_0, # of connection points: 6
#     Node 4, Type 1, BuildingBlock: KAKCAD_clean_linker_0, # of connection points: 3
#     Node 5, Type 1, BuildingBlock: KAKCAD_clean_linker_0, # of connection points: 3
#     Node 6, Type 1, BuildingBlock: KAKCAD_clean_linker_0, # of connection points: 3
#     Node 7, Type 1, BuildingBlock: KAKCAD_clean_linker_0, # of connection points: 3
#     Node 8, Type 1, BuildingBlock: KAKCAD_clean_linker_0, # of connection points: 3
#     Node 9, Type 1, BuildingBlock: KAKCAD_clean_linker_0, # of connection points: 3
#     Node 10, Type 1, BuildingBlock: KAKCAD_clean_linker_0, # of connection points: 3
#     Node 11, Type 1, BuildingBlock: KAKCAD_clean_linker_0, # of connection points: 3
#     Edge 12, Type (0, 1), BuildingBlock: XUDNAN_clean_linker_2, # of connection points: 2
#     Edge 13, Type (0, 1), BuildingBlock: XUDNAN_clean_linker_2, # of connection points: 2
#     Edge 14, Type (0, 1), BuildingBlock: XUDNAN_clean_linker_2, # of connection points: 2
#     Edge 15, Type (0, 1), BuildingBlock: XUDNAN_clean_linker_2, # of connection points: 2
#     Edge 16, Type (0, 1), BuildingBlock: XUDNAN_clean_linker_2, # of connection points: 2
#     Edge 17, Type (0, 1), BuildingBlock: XUDNAN_clean_linker_2, # of connection points: 2
#     Edge 18, Type (0, 1), BuildingBlock: XUDNAN_clean_linker_2, # of connection points: 2
#     Edge 19, Type (0, 1), BuildingBlock: XUDNAN_clean_linker_2, # of connection points: 2
#     Edge 20, Type (0, 1), BuildingBlock: XUDNAN_clean_linker_2, # of connection points: 2
#     Edge 21, Type (0, 1), BuildingBlock: XUDNAN_clean_linker_2, # of connection points: 2
#     Edge 22, Type (0, 1), BuildingBlock: XUDNAN_clean_linker_2, # of connection points: 2
#     Edge 23, Type (0, 1), BuildingBlock: XUDNAN_clean_linker_2, # of connection points: 2
#     Edge 24, Type (0, 1), BuildingBlock: XUDNAN_clean_linker_2, # of connection points: 2
#     Edge 25, Type (0, 1), BuildingBlock: XUDNAN_clean_linker_2, # of connection points: 2
#     Edge 26, Type (0, 1), BuildingBlock: XUDNAN_clean_linker_2, # of connection points: 2
#     Edge 27, Type (0, 1), BuildingBlock: XUDNAN_clean_linker_2, # of connection points: 2
#     Edge 28, Type (0, 1), BuildingBlock: XUDNAN_clean_linker_2, # of connection points: 2
#     Edge 29, Type (0, 1), BuildingBlock: XUDNAN_clean_linker_2, # of connection points: 2
#     Edge 30, Type (0, 1), BuildingBlock: XUDNAN_clean_linker_2, # of connection points: 2
#     Edge 31, Type (0, 1), BuildingBlock: XUDNAN_clean_linker_2, # of connection points: 2
#     Edge 32, Type (0, 1), BuildingBlock: XUDNAN_clean_linker_2, # of connection points: 2
#     Edge 33, Type (0, 1), BuildingBlock: XUDNAN_clean_linker_2, # of connection points: 2
#     Edge 34, Type (0, 1), BuildingBlock: XUDNAN_clean_linker_2, # of connection points: 2
#     Edge 35, Type (0, 1), BuildingBlock: XUDNAN_clean_linker_2, # of connection points: 2
# Relax obj value: 0.253
# Max RMSD: 0.193
# Mean RMSD: 0.160
data_MOF--net-dag--node1-IZENUY_clean_sbu_0--node2-KAKCAD_clean_linker_0--edge1-XUDNAN_clean_linker_2
_symmetry_space_group_name_H-M    P1
_symmetry_Int_Tables_number       1
_symmetry_cell_setting            triclinic
loop_
_symmetry_equiv_pos_as_xyz
'x, y, z'
_cell_length_a     46.745232
_cell_length_b     48.730915
_cell_length_c     41.169982
_cell_angle_alpha  95.09751
_cell_angle_beta   90.251249
_cell_angle_gamma 90.088705
loop_
_atom_site_label
_atom_site_type_symbol
_atom_site_fract_x
_atom_site_fract_y
_atom_site_fract_z
_atom_type_partial_charge
Fe0 Fe 0.19928 0.84448 0.09703 0.0
Fe1 Fe 0.14459 0.85359 0.05858 0.0
O2 O 0.16999 0.83099 0.07324 0.0
Fe3 Fe 0.16582 0.79495 0.06463 0.0
O4 O 0.18155 0.78626 0.10363 0.0
O5 O 0.18767 0.82663 0.13117 0.0
O6 O 0.17982 0.87471 0.11574 0.0
C7 C 0.15317 0.87757 0.12017 0.0
C8 C 0.22339 0.80006 0.05716 0.0
O9 O 0.13547 0.86684 0.09969 0.0
C10 C 0.14947 0.81666 0.00538 0.0
O11 O 0.21234 0.86351 0.06426 0.0
O12 O 0.17045 0.88135 0.05379 0.0
O13 O 0.19993 0.79246 0.0441 0.0
O14 O 0.22405 0.81657 0.08278 0.0
C15 C 0.1105 0.80995 0.07761 0.0
O16 O 0.15216 0.84138 0.01687 0.0
O17 O 0.14926 0.79733 0.02414 0.0
C18 C 0.19742 0.88082 0.05071 0.0
O19 O 0.11415 0.82998 0.06048 0.0
O20 O 0.13135 0.79524 0.08476 0.0
C21 C 0.18345 0.80107 0.13049 0.0
Fe22 Fe 0.69564 0.659 0.49229 0.0
Fe23 Fe 0.65789 0.70404 0.52773 0.0
O24 O 0.66475 0.66893 0.51527 0.0
Fe25 Fe 0.64039 0.6434 0.52561 0.0
O26 O 0.66751 0.62787 0.54922 0.0
O27 O 0.70028 0.62602 0.51085 0.0
O28 O 0.71923 0.67427 0.52368 0.0
C29 C 0.71802 0.69881 0.53609 0.0
C30 C 0.65672 0.62402 0.46183 0.0
O31 O 0.69582 0.7134 0.53355 0.0
C32 C 0.60332 0.68252 0.50809 0.0
O33 O 0.69658 0.69008 0.47018 0.0
O34 O 0.65777 0.71289 0.48595 0.0
O35 O 0.64743 0.61941 0.48961 0.0
O36 O 0.67417 0.64327 0.45884 0.0
C37 C 0.64106 0.68056 0.58222 0.0
O38 O 0.6187 0.70062 0.52398 0.0
O39 O 0.612 0.65802 0.50263 0.0
C40 C 0.67746 0.70771 0.46551 0.0
O41 O 0.65738 0.69778 0.57061 0.0
O42 O 0.6287 0.66212 0.56369 0.0
C43 C 0.69109 0.61905 0.53793 0.0
Fe44 Fe 0.84025 0.20585 0.01763 0.0
Fe45 Fe 0.85019 0.14363 0.01584 0.0
O46 O 0.82872 0.17162 0.0064 0.0
Fe47 Fe 0.79602 0.16508 0.98525 0.0
O48 O 0.79764 0.19604 0.96311 0.0
O49 O 0.83982 0.21407 0.9755 0.0
O50 O 0.8787 0.19815 0.01204 0.0
C51 C 0.89052 0.1784 0.99498 0.0
C52 C 0.78039 0.20713 0.02959 0.0
O53 O 0.87897 0.15495 0.99112 0.0
C54 C 0.79775 0.12415 0.03019 0.0
O55 O 0.84165 0.20003 0.06056 0.0
O56 O 0.8654 0.1612 0.05322 0.0
O57 O 0.77587 0.18272 0.01798 0.0
O58 O 0.80382 0.21933 0.02498 0.0
C59 C 0.82975 0.12647 0.95281 0.0
O60 O 0.82232 0.13093 0.04085 0.0
O61 O 0.78846 0.13276 0.00391 0.0
C62 C 0.85629 0.18133 0.07185 0.0
O63 O 0.83914 0.1206 0.98021 0.0
O64 O 0.81421 0.14728 0.95071 0.0
C65 C 0.81873 0.21078 0.95635 0.0
Fe66 Fe 0.35594 0.35447 0.5563 0.0
Fe67 Fe 0.30591 0.33959 0.59867 0.0
O68 O 0.33512 0.32915 0.57305 0.0
Fe69 Fe 0.34278 0.29361 0.56413 0.0
O70 O 0.38191 0.29832 0.56197 0.0
O71 O 0.38824 0.34279 0.57468 0.0
O72 O 0.35269 0.37936 0.59227 0.0
C73 C 0.34741 0.37545 0.62172 0.0
C74 C 0.35157 0.31248 0.50414 0.0
O75 O 0.32969 0.35727 0.62878 0.0
C76 C 0.28292 0.29769 0.55842 0.0
O77 O 0.32502 0.36771 0.53615 0.0
O78 O 0.29859 0.37176 0.57995 0.0
O79 O 0.33896 0.29538 0.52039 0.0
O80 O 0.36312 0.33391 0.51801 0.0
C81 C 0.32825 0.29418 0.62807 0.0
O82 O 0.28144 0.3227 0.56926 0.0
O83 O 0.30467 0.28316 0.56403 0.0
C84 C 0.30318 0.37699 0.55095 0.0
O85 O 0.3073 0.30941 0.62227 0.0
O86 O 0.34752 0.28911 0.60716 0.0
C87 C 0.39795 0.31866 0.57081 0.0
C88 C 0.98541 0.18613 0.28302 0.0
C89 C 0.96207 0.16854 0.275 0.0
C90 C 0.00791 0.17758 0.30225 0.0
C91 C 0.00747 0.1513 0.31385 0.0
C92 C 0.98317 0.13457 0.30773 0.0
C93 C 0.96075 0.14307 0.28849 0.0
C94 C 0.03352 0.14008 0.32872 0.0
C95 C 0.05023 0.15627 0.35147 0.0
C96 C 0.07667 0.14657 0.36257 0.0
C97 C 0.08545 0.1197 0.35133 0.0
C98 C 0.06857 0.10294 0.32923 0.0
C99 C 0.04286 0.11354 0.31787 0.0
C100 C 0.07808 0.07485 0.31646 0.0
C101 C 0.10697 0.0693 0.3091 0.0
C102 C 0.05787 0.05368 0.30978 0.0
C103 C 0.066 0.0282 0.29456 0.0
C104 C 0.09473 0.02282 0.28623 0.0
C105 C 0.09586 0.16498 0.38413 0.0
C106 C 0.09588 0.19365 0.382 0.0
C107 C 0.11532 0.15413 0.40588 0.0
C108 C 0.13512 0.17119 0.42353 0.0
C109 C 0.13554 0.19977 0.42072 0.0
C110 C 0.11498 0.21076 0.40043 0.0
C111 C 0.11522 0.04354 0.2944 0.0
H112 H 0.98715 0.20579 0.27281 0.0
H113 H 0.02642 0.19087 0.30632 0.0
H114 H 0.98199 0.11441 0.31682 0.0
H115 H 0.9428 0.12929 0.28322 0.0
H116 H 0.04253 0.1765 0.36026 0.0
H117 H 0.03063 0.10152 0.29923 0.0
H118 H 0.10573 0.11188 0.3592 0.0
H119 H 0.12317 0.08509 0.31365 0.0
H120 H 0.03551 0.05695 0.3157 0.0
H121 H 0.0494 0.0131 0.28837 0.0
H122 H 0.08172 0.20308 0.36539 0.0
H123 H 0.11564 0.13235 0.40913 0.0
H124 H 0.13764 0.04008 0.28902 0.0
H125 H 0.1137 0.23269 0.39825 0.0
H126 H 0.15055 0.1617 0.43866 0.0
C127 C 0.3915 0.53796 0.79325 0.0
C128 C 0.41223 0.51699 0.79002 0.0
C129 C 0.39763 0.56318 0.81099 0.0
C130 C 0.42463 0.56788 0.82558 0.0
C131 C 0.44451 0.54627 0.82434 0.0
C132 C 0.43831 0.52105 0.80696 0.0
C133 C 0.43343 0.59604 0.83828 0.0
C134 C 0.41647 0.61215 0.86059 0.0
C135 C 0.42426 0.63955 0.8708 0.0
C136 C 0.44919 0.65066 0.85788 0.0
C137 C 0.46643 0.63467 0.83574 0.0
C138 C 0.45843 0.60736 0.82628 0.0
C139 C 0.49192 0.64663 0.82076 0.0
C140 C 0.49046 0.67258 0.8084 0.0
C141 C 0.51712 0.6311 0.81623 0.0
C142 C 0.53964 0.64049 0.79798 0.0
C143 C 0.53748 0.66563 0.78387 0.0
C144 C 0.40629 0.65676 0.89448 0.0
C145 C 0.37629 0.6544 0.89382 0.0
C146 C 0.41898 0.676 0.91771 0.0
C147 C 0.40216 0.69275 0.93927 0.0
C148 C 0.37216 0.69042 0.9386 0.0
C149 C 0.35949 0.67084 0.91574 0.0
C150 C 0.51305 0.682 0.79013 0.0
H151 H 0.37127 0.53559 0.78039 0.0
H152 H 0.38199 0.57959 0.81147 0.0
H153 H 0.46535 0.54929 0.83575 0.0
H154 H 0.45448 0.5051 0.80564 0.0
H155 H 0.39746 0.60312 0.87022 0.0
H156 H 0.47102 0.5952 0.80824 0.0
H157 H 0.45511 0.67189 0.86473 0.0
H158 H 0.47125 0.68494 0.81128 0.0
H159 H 0.51908 0.61127 0.826 0.0
H160 H 0.5584 0.62763 0.794 0.0
H161 H 0.36565 0.64011 0.87607 0.0
H162 H 0.44201 0.67815 0.9194 0.0
H163 H 0.51064 0.70134 0.77933 0.0
H164 H 0.33651 0.66804 0.91478 0.0
H165 H 0.41277 0.70779 0.95616 0.0
C166 C 0.88844 0.79635 0.14864 0.0
C167 C 0.91077 0.81566 0.1479 0.0
C168 C 0.86064 0.80504 0.15696 0.0
C169 C 0.85477 0.83316 0.16468 0.0
C170 C 0.87737 0.85222 0.16497 0.0
C171 C 0.90497 0.8436 0.15667 0.0
C172 C 0.82527 0.84307 0.17198 0.0
C173 C 0.80755 0.82985 0.19319 0.0
C174 C 0.78058 0.84085 0.20217 0.0
C175 C 0.77145 0.86527 0.18945 0.0
C176 C 0.78898 0.87873 0.16823 0.0
C177 C 0.8155 0.86707 0.15912 0.0
C178 C 0.78067 0.90574 0.15687 0.0
C179 C 0.75244 0.91104 0.14727 0.0
C180 C 0.8014 0.92648 0.15524 0.0
C181 C 0.79443 0.95148 0.14331 0.0
C182 C 0.76637 0.95674 0.13314 0.0
C183 C 0.7629 0.82783 0.22651 0.0
C184 C 0.76063 0.799 0.22572 0.0
C185 C 0.74902 0.84418 0.25152 0.0
C186 C 0.73364 0.83201 0.27546 0.0
C187 C 0.73187 0.8032 0.27504 0.0
C188 C 0.74532 0.78682 0.24976 0.0
C189 C 0.74536 0.9363 0.13552 0.0
H190 H 0.8923 0.77469 0.14194 0.0
H191 H 0.84363 0.78989 0.15652 0.0
H192 H 0.87371 0.87394 0.17166 0.0
H193 H 0.92185 0.85889 0.15716 0.0
H194 H 0.81535 0.81177 0.20395 0.0
H195 H 0.82884 0.8769 0.14205 0.0
H196 H 0.75097 0.87417 0.19669 0.0
H197 H 0.73597 0.89547 0.14815 0.0
H198 H 0.82322 0.92337 0.16306 0.0
H199 H 0.81138 0.9664 0.14131 0.0
H200 H 0.77076 0.78584 0.20654 0.0
H201 H 0.75076 0.86643 0.25322 0.0
H202 H 0.72348 0.93973 0.12817 0.0
H203 H 0.74403 0.76455 0.24859 0.0
H204 H 0.72392 0.84519 0.29491 0.0
C205 C 0.61152 0.30922 0.63164 0.0
C206 C 0.60547 0.30681 0.59798 0.0
C207 C 0.63961 0.31346 0.6429 0.0
C208 C 0.66206 0.31563 0.62073 0.0
C209 C 0.65634 0.31155 0.58719 0.0
C210 C 0.6284 0.30691 0.57593 0.0
C211 C 0.69068 0.32518 0.63237 0.0
C212 C 0.70512 0.31225 0.65667 0.0
C213 C 0.73141 0.32265 0.6691 0.0
C214 C 0.74324 0.34615 0.65673 0.0
C215 C 0.72854 0.35997 0.63312 0.0
C216 C 0.70242 0.34894 0.62083 0.0
C217 C 0.73831 0.38749 0.62407 0.0
C218 C 0.75122 0.40645 0.64747 0.0
C219 C 0.73198 0.39622 0.59315 0.0
C220 C 0.73571 0.42374 0.58695 0.0
C221 C 0.7466 0.44315 0.61125 0.0
C222 C 0.74533 0.31045 0.69692 0.0
C223 C 0.72885 0.30372 0.72355 0.0
C224 C 0.77511 0.30662 0.69785 0.0
C225 C 0.78814 0.29643 0.72498 0.0
C226 C 0.77164 0.28996 0.75175 0.0
C227 C 0.74184 0.29365 0.75064 0.0
C228 C 0.75567 0.43377 0.64096 0.0
H229 H 0.59443 0.30948 0.64934 0.0
H230 H 0.64352 0.31672 0.66892 0.0
H231 H 0.67341 0.31285 0.56966 0.0
H232 H 0.62464 0.30441 0.54986 0.0
H233 H 0.69575 0.29417 0.666 0.0
H234 H 0.69006 0.35974 0.60366 0.0
H235 H 0.76333 0.35432 0.66661 0.0
H236 H 0.75642 0.4008 0.67163 0.0
H237 H 0.72287 0.38209 0.57407 0.0
H238 H 0.72843 0.42994 0.56372 0.0
H239 H 0.70593 0.30698 0.72388 0.0
H240 H 0.78833 0.31143 0.67756 0.0
H241 H 0.76505 0.44782 0.65993 0.0
H242 H 0.72853 0.28942 0.77108 0.0
H243 H 0.8111 0.2935 0.7249 0.0
C244 C 0.60184 0.46023 0.27678 0.0
C245 C 0.59731 0.46762 0.3102 0.0
C246 C 0.59177 0.43503 0.26205 0.0
C247 C 0.57735 0.41636 0.28048 0.0
C248 C 0.57288 0.42386 0.31386 0.0
C249 C 0.58228 0.44922 0.32833 0.0
C250 C 0.56765 0.38885 0.26559 0.0
C251 C 0.58364 0.37412 0.24106 0.0
C252 C 0.57579 0.34721 0.22922 0.0
C253 C 0.55201 0.33461 0.24253 0.0
C254 C 0.53574 0.34905 0.26698 0.0
C255 C 0.54317 0.37637 0.27743 0.0
C256 C 0.5119 0.33565 0.28332 0.0
C257 C 0.49108 0.3196 0.26554 0.0
C258 C 0.5093 0.34005 0.31737 0.0
C259 C 0.48567 0.33018 0.3331 0.0
C260 C 0.46418 0.31538 0.31528 0.0
C261 C 0.59339 0.33206 0.20384 0.0
C262 C 0.60041 0.34433 0.17533 0.0
C263 C 0.60423 0.30583 0.20853 0.0
C264 C 0.6223 0.29235 0.18533 0.0
C265 C 0.62939 0.30469 0.15686 0.0
C266 C 0.61807 0.33068 0.15192 0.0
C267 C 0.46732 0.30946 0.2815 0.0
H268 H 0.61353 0.47368 0.26199 0.0
H269 H 0.59534 0.43023 0.23621 0.0
H270 H 0.56249 0.40999 0.32923 0.0
H271 H 0.57764 0.45427 0.35389 0.0
H272 H 0.60295 0.38303 0.23198 0.0
H273 H 0.52985 0.38784 0.2953 0.0
H274 H 0.54648 0.31354 0.23422 0.0
H275 H 0.4926 0.31583 0.23929 0.0
H276 H 0.52535 0.35164 0.33188 0.0
H277 H 0.48385 0.33459 0.35929 0.0
H278 H 0.59224 0.36453 0.17119 0.0
H279 H 0.59928 0.29607 0.23047 0.0
H280 H 0.45094 0.29799 0.26739 0.0
H281 H 0.62337 0.34068 0.13025 0.0
H282 H 0.63065 0.27224 0.18956 0.0
C283 C 0.10888 0.20371 0.91967 0.0
C284 C 0.09414 0.19812 0.94798 0.0
C285 C 0.1383 0.19933 0.91724 0.0
C286 C 0.15371 0.18934 0.94313 0.0
C287 C 0.13936 0.18611 0.97254 0.0
C288 C 0.10981 0.19047 0.97494 0.0
C289 C 0.18312 0.17834 0.93722 0.0
C290 C 0.20203 0.19127 0.91706 0.0
C291 C 0.22641 0.17752 0.90392 0.0
C292 C 0.23267 0.15103 0.91322 0.0
C293 C 0.21486 0.13835 0.93498 0.0
C294 C 0.19034 0.15242 0.9471 0.0
C295 C 0.22039 0.1096 0.94311 0.0
C296 C 0.19742 0.09147 0.94675 0.0
C297 C 0.24839 0.1 0.9475 0.0
C298 C 0.25319 0.07314 0.9559 0.0
C299 C 0.23008 0.05534 0.96054 0.0
C300 C 0.24337 0.18963 0.87798 0.0
C301 C 0.22975 0.20586 0.85592 0.0
C302 C 0.27281 0.18427 0.87397 0.0
C303 C 0.28792 0.19426 0.84813 0.0
C304 C 0.27407 0.21028 0.82598 0.0
C305 C 0.24493 0.21641 0.83081 0.0
C306 C 0.20215 0.06498 0.9558 0.0
H307 H 0.09739 0.21003 0.89868 0.0
H308 H 0.14847 0.20188 0.89411 0.0
H309 H 0.15068 0.17883 0.99311 0.0
H310 H 0.09901 0.18603 0.99711 0.0
H311 H 0.19693 0.21176 0.9106 0.0
H312 H 0.17598 0.14254 0.96303 0.0
H313 H 0.25046 0.13957 0.90212 0.0
H314 H 0.17556 0.09767 0.94268 0.0
H315 H 0.26663 0.11336 0.94499 0.0
H316 H 0.27504 0.06643 0.95883 0.0
H317 H 0.20705 0.21006 0.85736 0.0
H318 H 0.28425 0.17221 0.89064 0.0
H319 H 0.18365 0.05234 0.95971 0.0
H320 H 0.23354 0.22933 0.81504 0.0
H321 H 0.31028 0.18891 0.84522 0.0
C322 C 0.37832 0.6986 0.44962 0.0
C323 C 0.39862 0.67825 0.45526 0.0
C324 C 0.35002 0.69137 0.4416 0.0
C325 C 0.34138 0.66359 0.43867 0.0
C326 C 0.36171 0.64329 0.44435 0.0
C327 C 0.38982 0.65052 0.4528 0.0
C328 C 0.31158 0.65558 0.42885 0.0
C329 C 0.29686 0.66951 0.40541 0.0
C330 C 0.26954 0.66079 0.3943 0.0
C331 C 0.25717 0.63746 0.40632 0.0
C332 C 0.27144 0.62362 0.42996 0.0
C333 C 0.29826 0.63301 0.44156 0.0
C334 C 0.25978 0.59784 0.44068 0.0
C335 C 0.25369 0.59563 0.47363 0.0
C336 C 0.25781 0.57446 0.41841 0.0
C337 C 0.25162 0.54879 0.42926 0.0
C338 C 0.24676 0.54608 0.46258 0.0
C339 C 0.25425 0.67593 0.36981 0.0
C340 C 0.25416 0.70486 0.3727 0.0
C341 C 0.23993 0.66171 0.34329 0.0
C342 C 0.22611 0.67619 0.31995 0.0
C343 C 0.22621 0.70514 0.32277 0.0
C344 C 0.24032 0.7193 0.34946 0.0
C345 C 0.2468 0.57006 0.48443 0.0
H346 H 0.38431 0.72014 0.45095 0.0
H347 H 0.33492 0.70761 0.43778 0.0
H348 H 0.35609 0.62164 0.44178 0.0
H349 H 0.40462 0.63427 0.45756 0.0
H350 H 0.30707 0.68655 0.39478 0.0
H351 H 0.30905 0.62209 0.45987 0.0
H352 H 0.23634 0.63018 0.39762 0.0
H353 H 0.25502 0.61357 0.49113 0.0
H354 H 0.26275 0.57578 0.3929 0.0
H355 H 0.25233 0.53094 0.41166 0.0
H356 H 0.26476 0.71639 0.39304 0.0
H357 H 0.23985 0.63941 0.34027 0.0
H358 H 0.24247 0.569 0.51009 0.0
H359 H 0.24116 0.7416 0.3521 0.0
H360 H 0.21528 0.66472 0.29975 0.0
C361 C 0.0308 0.82042 0.78209 0.0
C362 C 0.0361 0.83091 0.81445 0.0
C363 C 0.00766 0.8303 0.76472 0.0
C364 C 0.98932 0.85054 0.77965 0.0
C365 C 0.99432 0.86017 0.81241 0.0
C366 C 0.01749 0.85066 0.82945 0.0
C367 C 0.96483 0.86177 0.76178 0.0
C368 C 0.94735 0.84456 0.74092 0.0
C369 C 0.92267 0.85495 0.72646 0.0
C370 C 0.9152 0.88278 0.73434 0.0
C371 C 0.93195 0.90004 0.75599 0.0
C372 C 0.95753 0.88966 0.76791 0.0
C373 C 0.92135 0.92766 0.76926 0.0
C374 C 0.90445 0.94426 0.75047 0.0
C375 C 0.92663 0.9368 0.80214 0.0
C376 C 0.91514 0.96142 0.81593 0.0
C377 C 0.89723 0.97741 0.79768 0.0
C378 C 0.9041 0.83651 0.70433 0.0
C379 C 0.91595 0.81458 0.68425 0.0
C380 C 0.87434 0.8407 0.70288 0.0
C381 C 0.85715 0.82409 0.68138 0.0
C382 C 0.86895 0.80206 0.66142 0.0
C383 C 0.8986 0.79738 0.66353 0.0
C384 C 0.8924 0.9688 0.76457 0.0
H385 H 0.04483 0.80504 0.77013 0.0
H386 H 0.0044 0.82244 0.73954 0.0
H387 H 0.98014 0.875 0.82514 0.0
H388 H 0.02067 0.85855 0.85466 0.0
H389 H 0.95235 0.82283 0.73712 0.0
H390 H 0.97146 0.90322 0.78309 0.0
H391 H 0.89589 0.89089 0.72433 0.0
H392 H 0.90021 0.93819 0.72497 0.0
H393 H 0.93896 0.92455 0.81782 0.0
H394 H 0.9201 0.96769 0.84123 0.0
H395 H 0.93874 0.81073 0.68419 0.0
H396 H 0.86403 0.85676 0.71844 0.0
H397 H 0.8787 0.98058 0.74974 0.0
H398 H 0.90863 0.78034 0.64929 0.0
H399 H 0.83461 0.82893 0.68032 0.0
H400 H 0.17171 0.92884 0.14337 0.0
H401 H 0.11038 0.86495 0.16045 0.0
H402 H 0.09188 0.89358 0.20849 0.0
H403 H 0.18549 0.95421 0.22828 0.0
H404 H 0.18653 0.98982 0.21962 0.0
H405 H 0.19712 0.96317 0.18888 0.0
H406 H 0.16004 0.98077 0.14862 0.0
H407 H 0.14953 0.00756 0.17912 0.0
H408 H 0.12308 0.98407 0.16066 0.0
H409 H 0.08018 0.92914 0.25432 0.0
H410 H 0.07126 0.97125 0.29036 0.0
H411 H 0.13644 0.01408 0.23911 0.0
C412 C 0.15467 0.92084 0.15761 0.0
C413 C 0.1426 0.8947 0.14874 0.0
C414 C 0.11985 0.88498 0.16716 0.0
C415 C 0.10939 0.90098 0.19451 0.0
C416 C 0.12163 0.92679 0.20264 0.0
C417 C 0.14344 0.93687 0.18443 0.0
C418 C 0.15085 0.96632 0.19643 0.0
C419 C 0.18184 0.96849 0.20906 0.0
C420 C 0.14554 0.98582 0.16962 0.0
C421 C 0.12967 0.97127 0.22406 0.0
C422 C 0.11348 0.94803 0.22767 0.0
C423 C 0.09252 0.94758 0.25152 0.0
C424 C 0.08746 0.97176 0.27171 0.0
C425 C 0.10277 0.99635 0.26746 0.0
C426 C 0.12451 0.99575 0.24354 0.0
H427 H 0.62055 0.64054 0.61738 0.0
H428 H 0.64276 0.72731 0.6252 0.0
H429 H 0.62277 0.73248 0.68112 0.0
H430 H 0.55492 0.64714 0.65436 0.0
H431 H 0.55739 0.61616 0.67508 0.0
H432 H 0.5768 0.61883 0.63792 0.0
H433 H 0.62422 0.60818 0.66717 0.0
H434 H 0.60489 0.6053 0.7045 0.0
H435 H 0.63456 0.6289 0.7038 0.0
H436 H 0.59401 0.72891 0.73322 0.0
H437 H 0.56198 0.7164 0.77748 0.0
H438 H 0.56022 0.63187 0.73459 0.0
C439 C 0.62171 0.66055 0.63107 0.0
C440 C 0.63305 0.68355 0.61701 0.0
C441 C 0.63427 0.70939 0.63565 0.0
C442 C 0.62294 0.7125 0.66738 0.0
C443 C 0.61104 0.68946 0.68014 0.0
C444 C 0.61082 0.6639 0.66263 0.0
C445 C 0.59538 0.64267 0.68065 0.0
C446 C 0.5696 0.63051 0.66082 0.0
C447 C 0.616 0.61992 0.68956 0.0
C448 C 0.58596 0.6604 0.71061 0.0
C449 C 0.59528 0.6873 0.71014 0.0
C450 C 0.5871 0.70778 0.73414 0.0
C451 C 0.56881 0.70055 0.75905 0.0
C452 C 0.55899 0.67309 0.75973 0.0
C453 C 0.56806 0.65284 0.73533 0.0
H454 H 0.80779 0.10578 0.08992 0.0
H455 H 0.75373 0.09186 0.00406 0.0
H456 H 0.73372 0.05031 0.0258 0.0
H457 H 0.82735 0.0395 0.09488 0.0
H458 H 0.82714 0.04017 0.13873 0.0
H459 H 0.83313 0.07144 0.11971 0.0
H460 H 0.79063 0.09464 0.15149 0.0
H461 H 0.78458 0.06345 0.17098 0.0
H462 H 0.75591 0.0784 0.14907 0.0
H463 H 0.72633 0.00621 0.05196 0.0
H464 H 0.73111 0.9643 0.081 0.0
H465 H 0.78786 0.00832 0.15141 0.0
C466 C 0.79116 0.09443 0.07608 0.0
C467 C 0.78235 0.10203 0.04529 0.0
C468 C 0.76069 0.08653 0.02782 0.0
C469 C 0.74917 0.06291 0.03999 0.0
C470 C 0.75913 0.0554 0.06992 0.0
C471 C 0.77932 0.071 0.08799 0.0
C472 C 0.78847 0.05726 0.11788 0.0
C473 C 0.82093 0.05177 0.11775 0.0
C474 C 0.77934 0.07447 0.14921 0.0
C475 C 0.77148 0.03077 0.11287 0.0
C476 C 0.75436 0.03021 0.08538 0.0
C477 C 0.73904 0.00669 0.07403 0.0
C478 C 0.74181 0.98297 0.09081 0.0
C479 C 0.75984 0.98292 0.11858 0.0
C480 C 0.77403 0.00753 0.13018 0.0
H481 H 0.43504 0.28856 0.60606 0.0
H482 H 0.43065 0.34329 0.52873 0.0
H483 H 0.4832 0.34234 0.52397 0.0
H484 H 0.49559 0.32004 0.64497 0.0
H485 H 0.51166 0.2887 0.65647 0.0
H486 H 0.47348 0.29067 0.65138 0.0
H487 H 0.47469 0.24783 0.60939 0.0
H488 H 0.51294 0.24568 0.61442 0.0
H489 H 0.49775 0.2478 0.5744 0.0
H490 H 0.53527 0.33883 0.53007 0.0
H491 H 0.58506 0.33424 0.54779 0.0
H492 H 0.5575 0.28179 0.62183 0.0
C493 C 0.4453 0.29981 0.58778 0.0
C494 C 0.42908 0.31585 0.56754 0.0
C495 C 0.44294 0.33089 0.54434 0.0
C496 C 0.47269 0.33037 0.54137 0.0
C497 C 0.48827 0.31481 0.56195 0.0
C498 C 0.47523 0.29982 0.58478 0.0
C499 C 0.49742 0.28671 0.60553 0.0
C500 C 0.49435 0.29717 0.64173 0.0
C501 C 0.49559 0.25513 0.60063 0.0
C502 C 0.5248 0.29722 0.59119 0.0
C503 C 0.51888 0.31304 0.5658 0.0
C504 C 0.54029 0.32609 0.54955 0.0
C505 C 0.56861 0.32316 0.5597 0.0
C506 C 0.57542 0.3073 0.58593 0.0
C507 C 0.55309 0.29398 0.60165 0.0
H508 H 0.64807 0.5689 0.46186 0.0
H509 H 0.65024 0.63513 0.39821 0.0
H510 H 0.63669 0.6021 0.35127 0.0
H511 H 0.67873 0.517 0.40316 0.0
H512 H 0.65719 0.48968 0.41706 0.0
H513 H 0.66728 0.51864 0.44504 0.0
H514 H 0.61387 0.5277 0.45882 0.0
H515 H 0.60359 0.49889 0.43079 0.0
H516 H 0.58885 0.53252 0.42637 0.0
H517 H 0.61902 0.56195 0.31251 0.0
H518 H 0.60227 0.51795 0.28445 0.0
H519 H 0.61714 0.47782 0.37316 0.0
C520 C 0.64571 0.57643 0.43801 0.0
C521 C 0.64987 0.60449 0.43352 0.0
C522 C 0.64709 0.61361 0.40198 0.0
C523 C 0.63938 0.59505 0.37529 0.0
C524 C 0.6352 0.56745 0.3806 0.0
C525 C 0.63872 0.55815 0.41113 0.0
C526 C 0.63344 0.52752 0.41048 0.0
C527 C 0.66079 0.51232 0.41946 0.0
C528 C 0.60845 0.52131 0.43294 0.0
C529 C 0.62564 0.52107 0.37496 0.0
C530 C 0.62663 0.54431 0.35809 0.0
C531 C 0.61867 0.54351 0.32535 0.0
C532 C 0.60935 0.51832 0.30955 0.0
C533 C 0.60831 0.49417 0.32642 0.0
C534 C 0.61709 0.49577 0.35946 0.0
H535 H 0.93621 0.20742 0.02265 0.0
H536 H 0.90909 0.15651 0.93619 0.0
H537 H 0.95742 0.1599 0.91291 0.0
H538 H 0.98671 0.25187 0.98274 0.0
H539 H 0.01247 0.25227 0.01549 0.0
H540 H 0.97489 0.24875 0.02388 0.0
H541 H 0.98514 0.20375 0.05096 0.0
H542 H 0.02269 0.20711 0.04263 0.0
H543 H 0.00388 0.17604 0.02824 0.0
H544 H 0.00842 0.16672 0.90007 0.0
H545 H 0.06058 0.17351 0.89981 0.0
H546 H 0.05628 0.21807 0.99578 0.0
C547 C 0.94042 0.1975 0.99856 0.0
C548 C 0.91901 0.18198 0.98093 0.0
C549 C 0.92531 0.16857 0.94991 0.0
C550 C 0.95259 0.17049 0.93646 0.0
C551 C 0.9734 0.18563 0.95455 0.0
C552 C 0.96781 0.19872 0.98503 0.0
C553 C 0.99479 0.21147 0.00049 0.0
C554 C 0.99204 0.24296 0.00597 0.0
C555 C 0.00205 0.19883 0.03247 0.0
C556 C 0.01642 0.20314 0.9741 0.0
C557 C 0.00342 0.18869 0.94763 0.0
C558 C 0.01884 0.17823 0.9205 0.0
C559 C 0.04845 0.18235 0.92052 0.0
C560 C 0.06245 0.19658 0.94762 0.0
C561 C 0.04612 0.20723 0.97468 0.0
H562 H 0.29849 0.43066 0.57344 0.0
H563 H 0.27202 0.37089 0.49497 0.0
H564 H 0.24709 0.40761 0.46796 0.0
H565 H 0.23572 0.47793 0.57298 0.0
H566 H 0.25806 0.50811 0.57958 0.0
H567 H 0.26852 0.4765 0.59597 0.0
H568 H 0.31718 0.47782 0.56613 0.0
H569 H 0.30694 0.50941 0.54988 0.0
H570 H 0.31757 0.48021 0.52267 0.0
H571 H 0.22844 0.45132 0.44773 0.0
H572 H 0.22299 0.4986 0.43186 0.0
H573 H 0.26712 0.52993 0.52069 0.0
C574 C 0.2866 0.42532 0.55111 0.0
C575 C 0.2863 0.3981 0.53652 0.0
C576 C 0.27182 0.3917 0.50662 0.0
C577 C 0.25757 0.41236 0.49128 0.0
C578 C 0.25852 0.43925 0.50602 0.0
C579 C 0.27299 0.44582 0.53509 0.0
C580 C 0.27462 0.47666 0.54328 0.0
C581 C 0.25825 0.4853 0.57483 0.0
C582 C 0.30593 0.48659 0.5456 0.0
C583 C 0.25954 0.48646 0.51386 0.0
C584 C 0.24966 0.46461 0.49316 0.0
C585 C 0.23608 0.4686 0.46377 0.0
C586 C 0.23334 0.49558 0.45483 0.0
C587 C 0.24487 0.51822 0.47476 0.0
C588 C 0.25747 0.51341 0.50505 0.0
H589 H 0.14257 0.85436 0.96083 0.0
H590 H 0.13587 0.76684 0.97189 0.0
H591 H 0.11369 0.7596 0.91718 0.0
H592 H 0.07674 0.8613 0.93007 0.0
H593 H 0.08568 0.88646 0.90218 0.0
H594 H 0.10714 0.88378 0.93799 0.0
H595 H 0.15245 0.87629 0.90236 0.0
H596 H 0.13112 0.8791 0.86621 0.0
H597 H 0.153 0.84907 0.86971 0.0
H598 H 0.08457 0.76328 0.86599 0.0
H599 H 0.05029 0.77783 0.82477 0.0
H600 H 0.07556 0.86282 0.84835 0.0
C601 C 0.13733 0.83349 0.95142 0.0
C602 C 0.141 0.81116 0.97069 0.0
C603 C 0.1334 0.78427 0.95754 0.0
C604 C 0.12087 0.77995 0.92641 0.0
C605 C 0.11638 0.80267 0.90865 0.0
C606 C 0.12465 0.82891 0.92067 0.0
C607 C 0.11401 0.85043 0.89927 0.0
C608 C 0.09475 0.87171 0.91853 0.0
C609 C 0.13915 0.86454 0.88344 0.0
C610 C 0.09713 0.83243 0.87426 0.0
C611 C 0.0993 0.80485 0.87946 0.0
C612 C 0.08325 0.78472 0.86123 0.0
C613 C 0.06389 0.79311 0.83784 0.0
C614 C 0.06051 0.82138 0.83344 0.0
C615 C 0.07803 0.84105 0.85112 0.0
H616 H 0.84006 0.07144 0.95071 0.0
H617 H 0.83263 0.13894 0.8893 0.0
H618 H 0.84621 0.10748 0.84118 0.0
H619 H 0.90016 0.04015 0.91413 0.0
H620 H 0.88825 0.00534 0.91762 0.0
H621 H 0.87611 0.03276 0.94636 0.0
H622 H 0.82337 0.01989 0.9323 0.0
H623 H 0.83535 0.99226 0.90362 0.0
H624 H 0.81147 0.01813 0.89046 0.0
H625 H 0.86562 0.06908 0.80104 0.0
H626 H 0.88627 0.02703 0.77225 0.0
H627 H 0.87657 0.98462 0.86 0.0
C628 C 0.84101 0.07955 0.92707 0.0
C629 C 0.83545 0.10756 0.92361 0.0
C630 C 0.83671 0.11743 0.89232 0.0
C631 C 0.84444 0.09976 0.86494 0.0
C632 C 0.85023 0.07224 0.8693 0.0
C633 C 0.84812 0.06216 0.89956 0.0
C634 C 0.85586 0.03201 0.89811 0.0
C635 C 0.88163 0.02731 0.92037 0.0
C636 C 0.82997 0.01455 0.90662 0.0
C637 C 0.86358 0.02683 0.86252 0.0
C638 C 0.86022 0.05017 0.84617 0.0
C639 C 0.86785 0.05055 0.81349 0.0
C640 C 0.87946 0.02651 0.79729 0.0
C641 C 0.88325 0.00244 0.81381 0.0
C642 C 0.87452 0.00269 0.84666 0.0
H643 H 0.3612 0.34912 0.45996 0.0
H644 H 0.35571 0.2615 0.46977 0.0
H645 H 0.37578 0.25198 0.41432 0.0
H646 H 0.34887 0.34565 0.36809 0.0
H647 H 0.37438 0.37304 0.36485 0.0
H648 H 0.35281 0.37239 0.40099 0.0
H649 H 0.39882 0.37455 0.43653 0.0
H650 H 0.42044 0.37497 0.40074 0.0
H651 H 0.42612 0.34877 0.42835 0.0
H652 H 0.40635 0.25272 0.36368 0.0
H653 H 0.44328 0.26382 0.32365 0.0
H654 H 0.42804 0.35077 0.34758 0.0
C655 C 0.36322 0.3279 0.44993 0.0
C656 C 0.35693 0.30605 0.46899 0.0
C657 C 0.36011 0.27854 0.45533 0.0
C658 C 0.3715 0.27297 0.42387 0.0
C659 C 0.37897 0.29514 0.4063 0.0
C660 C 0.37443 0.3221 0.41876 0.0
C661 C 0.38772 0.34241 0.39759 0.0
C662 C 0.36456 0.35936 0.38194 0.0
C663 C 0.40956 0.36124 0.41696 0.0
C664 C 0.40215 0.32278 0.37239 0.0
C665 C 0.39638 0.29556 0.37716 0.0
C666 C 0.41031 0.27392 0.35912 0.0
C667 C 0.43119 0.28033 0.33644 0.0
C668 C 0.43804 0.30809 0.33253 0.0
C669 C 0.42263 0.3294 0.34985 0.0
H670 H 0.17681 0.90801 0.00078 0.0
H671 H 0.24918 0.90494 0.06657 0.0
H672 H 0.26903 0.94707 0.04569 0.0
H673 H 0.21787 0.93505 0.93231 0.0
H674 H 0.18807 0.95585 0.9214 0.0
H675 H 0.18176 0.92367 0.93866 0.0
H676 H 0.15105 0.94913 0.98404 0.0
H677 H 0.15742 0.98136 0.96722 0.0
H678 H 0.16635 0.97764 0.00924 0.0
H679 H 0.27619 0.99356 0.02437 0.0
H680 H 0.27214 0.03846 0.00164 0.0
H681 H 0.19778 0.00849 0.94539 0.0
C682 C 0.19717 0.9159 0.01023 0.0
C683 C 0.21149 0.90339 0.03527 0.0
C684 C 0.23803 0.91418 0.04717 0.0
C685 C 0.24942 0.93808 0.03548 0.0
C686 C 0.23434 0.95041 0.01136 0.0
C687 C 0.20909 0.93932 0.99837 0.0
C688 C 0.19621 0.95719 0.97392 0.0
C689 C 0.19598 0.94204 0.93953 0.0
C690 C 0.16598 0.9669 0.98425 0.0
C691 C 0.21736 0.98082 0.97639 0.0
C692 C 0.23928 0.97652 0.99794 0.0
C693 C 0.2596 0.99683 0.00671 0.0
C694 C 0.25718 0.02231 0.99348 0.0
C695 C 0.23466 0.02728 0.97153 0.0
C696 C 0.2151 0.00576 0.96231 0.0
H697 H 0.56618 0.65137 0.46841 0.0
H698 H 0.57248 0.72819 0.53014 0.0
H699 H 0.52125 0.73697 0.52071 0.0
H700 H 0.51506 0.67632 0.40948 0.0
H701 H 0.49642 0.6438 0.4044 0.0
H702 H 0.53406 0.64472 0.4141 0.0
H703 H 0.5243 0.6179 0.46453 0.0
H704 H 0.48666 0.61709 0.45518 0.0
H705 H 0.49892 0.63141 0.49468 0.0
H706 H 0.46834 0.73502 0.50893 0.0
H707 H 0.4184 0.72369 0.49343 0.0
H708 H 0.44745 0.64952 0.43684 0.0
C709 C 0.55691 0.67022 0.47964 0.0
C710 C 0.57334 0.68904 0.5001 0.0
C711 C 0.56036 0.71349 0.51428 0.0
C712 C 0.53126 0.71865 0.50911 0.0
C713 C 0.51555 0.69938 0.48934 0.0
C714 C 0.528 0.67582 0.4745 0.0
C715 C 0.50624 0.65799 0.45519 0.0
C716 C 0.51338 0.65558 0.41862 0.0
C717 C 0.5039 0.62942 0.46819 0.0
C718 C 0.47945 0.67481 0.46223 0.0
C719 C 0.48524 0.69864 0.48188 0.0
C720 C 0.4636 0.71667 0.49304 0.0
C721 C 0.43528 0.7101 0.48394 0.0
C722 C 0.42881 0.68574 0.46376 0.0
C723 C 0.45143 0.66815 0.45256 0.0
H724 H 0.32522 0.4014 0.67852 0.0
H725 H 0.40303 0.38964 0.62201 0.0
H726 H 0.42877 0.42131 0.66203 0.0
H727 H 0.33484 0.47297 0.69713 0.0
H728 H 0.32047 0.47425 0.73779 0.0
H729 H 0.30867 0.44791 0.70723 0.0
H730 H 0.32323 0.41023 0.74468 0.0
H731 H 0.33501 0.4365 0.77545 0.0
H732 H 0.35926 0.40963 0.7604 0.0
H733 H 0.4454 0.45592 0.70504 0.0
H734 H 0.45189 0.49388 0.74779 0.0
H735 H 0.3633 0.48551 0.77694 0.0
C736 C 0.3478 0.40514 0.67512 0.0
C737 C 0.36232 0.39296 0.64746 0.0
C738 C 0.39164 0.39878 0.64314 0.0
C739 C 0.40646 0.41662 0.66579 0.0
C740 C 0.39156 0.42872 0.6925 0.0
C741 C 0.36289 0.42344 0.69731 0.0
C742 C 0.3516 0.44122 0.72663 0.0
C743 C 0.32747 0.46021 0.71658 0.0
C744 C 0.34169 0.42332 0.75338 0.0
C745 C 0.37831 0.45754 0.73707 0.0
C746 C 0.40114 0.44959 0.71725 0.0
C747 C 0.42783 0.46211 0.72106 0.0
C748 C 0.43133 0.48358 0.74563 0.0
C749 C 0.40825 0.49251 0.76613 0.0
C750 C 0.3814 0.47912 0.7618 0.0
H751 H 0.06146 0.83811 0.06672 0.0
H752 H 0.09335 0.76764 0.1133 0.0
H753 H 0.04461 0.75905 0.13343 0.0
H754 H 0.01549 0.86246 0.12958 0.0
H755 H 0.98807 0.87368 0.10285 0.0
H756 H 0.02479 0.87262 0.08992 0.0
H757 H 0.01074 0.84101 0.03829 0.0
H758 H 0.9739 0.84204 0.05101 0.0
H759 H 0.99165 0.80938 0.04264 0.0
H760 H 0.99232 0.76008 0.15103 0.0
H761 H 0.94204 0.77146 0.16554 0.0
H762 H 0.94567 0.84105 0.10689 0.0
C763 C 0.05825 0.82059 0.08075 0.0
C764 C 0.08123 0.80344 0.08824 0.0
C765 C 0.07603 0.78098 0.10707 0.0
C766 C 0.04842 0.77591 0.11857 0.0
C767 C 0.0263 0.79346 0.11095 0.0
C768 C 0.03099 0.81531 0.09241 0.0
C769 C 0.00417 0.83208 0.08895 0.0
C770 C 0.00839 0.86197 0.10372 0.0
C771 C 0.99455 0.83105 0.05309 0.0
C772 C 0.98367 0.81657 0.10892 0.0
C773 C 0.99663 0.7942 0.12122 0.0
C774 C 0.98192 0.77742 0.1413 0.0
C775 C 0.95338 0.78396 0.14931 0.0
C776 C 0.94004 0.8072 0.13747 0.0
C777 C 0.95538 0.82332 0.11661 0.0
H778 H 0.71972 0.57334 0.5112 0.0
H779 H 0.69412 0.61642 0.60315 0.0
H780 H 0.71272 0.57827 0.63257 0.0
H781 H 0.6969 0.50947 0.52943 0.0
H782 H 0.72536 0.48978 0.50932 0.0
H783 H 0.71541 0.52249 0.49566 0.0
H784 H 0.76759 0.53987 0.50364 0.0
H785 H 0.7778 0.50706 0.51716 0.0
H786 H 0.78494 0.53836 0.54264 0.0
H787 H 0.72697 0.53377 0.65117 0.0
H788 H 0.73531 0.48511 0.65828 0.0
H789 H 0.75306 0.46963 0.55466 0.0
C790 C 0.71903 0.57506 0.53759 0.0
C791 C 0.70589 0.59788 0.55505 0.0
C792 C 0.70431 0.59912 0.58946 0.0
C793 C 0.71493 0.57764 0.60636 0.0
C794 C 0.72701 0.55501 0.58848 0.0
C795 C 0.72923 0.55352 0.55488 0.0
C796 C 0.73997 0.52542 0.54142 0.0
C797 C 0.7181 0.51095 0.51756 0.0
C798 C 0.76933 0.52783 0.52527 0.0
C799 C 0.74233 0.51112 0.57259 0.0
C800 C 0.73522 0.52879 0.59942 0.0
C801 C 0.73335 0.51988 0.6305 0.0
C802 C 0.73839 0.49207 0.6343 0.0
C803 C 0.74532 0.47326 0.60716 0.0
C804 C 0.74788 0.48327 0.576 0.0
H805 H 0.88071 0.14188 0.10584 0.0
H806 H 0.85456 0.22763 0.11541 0.0
H807 H 0.87537 0.23305 0.17103 0.0
H808 H 0.86814 0.12858 0.19123 0.0
H809 H 0.89885 0.10632 0.19203 0.0
H810 H 0.8795 0.10884 0.15446 0.0
H811 H 0.92641 0.12217 0.12631 0.0
H812 H 0.94585 0.11977 0.16372 0.0
H813 H 0.94698 0.1512 0.14374 0.0
H814 H 0.90384 0.23001 0.22344 0.0
H815 H 0.93556 0.21825 0.26854 0.0
H816 H 0.94183 0.13444 0.22397 0.0
C817 C 0.87899 0.16175 0.11974 0.0
C818 C 0.86612 0.18437 0.10622 0.0
C819 C 0.86427 0.20998 0.12529 0.0
C820 C 0.87602 0.21325 0.1569 0.0
C821 C 0.88915 0.19061 0.16918 0.0
C822 C 0.89037 0.16529 0.15124 0.0
C823 C 0.90672 0.14448 0.16914 0.0
C824 C 0.88713 0.12065 0.17719 0.0
C825 C 0.93305 0.1338 0.14956 0.0
C826 C 0.91531 0.16223 0.19961 0.0
C827 C 0.90489 0.18874 0.19938 0.0
C828 C 0.91173 0.2092 0.22409 0.0
C829 C 0.92985 0.20239 0.2495 0.0
C830 C 0.94085 0.17536 0.24999 0.0
C831 C 0.93314 0.15508 0.22481 0.0
H832 H 0.20241 0.74976 0.14309 0.0
H833 H 0.16385 0.82452 0.18825 0.0
H834 H 0.16573 0.80552 0.2418 0.0
H835 H 0.16922 0.70101 0.19639 0.0
H836 H 0.20135 0.68073 0.19778 0.0
H837 H 0.19334 0.69844 0.16221 0.0
H838 H 0.24256 0.72302 0.16748 0.0
H839 H 0.2507 0.70543 0.20299 0.0
H840 H 0.25203 0.74252 0.20529 0.0
H841 H 0.17518 0.7805 0.29065 0.0
H842 H 0.19368 0.75178 0.33242 0.0
H843 H 0.22825 0.69405 0.25625 0.0
C844 C 0.19377 0.76178 0.16418 0.0
C845 C 0.18282 0.78847 0.16167 0.0
C846 C 0.17235 0.804 0.18981 0.0
C847 C 0.17315 0.79333 0.22024 0.0
C848 C 0.18461 0.76717 0.22212 0.0
C849 C 0.19482 0.75158 0.19491 0.0
C850 C 0.20861 0.72526 0.20422 0.0
C851 C 0.19214 0.69985 0.18926 0.0
C852 C 0.24035 0.72401 0.19442 0.0
C853 C 0.20517 0.72887 0.24093 0.0
C854 C 0.19084 0.75296 0.25064 0.0
C855 C 0.18626 0.76147 0.28338 0.0
C856 C 0.19702 0.74513 0.30691 0.0
C857 C 0.21246 0.72072 0.2976 0.0
C858 C 0.21611 0.71233 0.26412 0.0
H859 H 0.72296 0.73208 0.5928 0.0
H860 H 0.77178 0.69407 0.51161 0.0
H861 H 0.81586 0.71648 0.5346 0.0
H862 H 0.76033 0.79635 0.60325 0.0
H863 H 0.7595 0.79872 0.64718 0.0
H864 H 0.73169 0.78033 0.62391 0.0
H865 H 0.74213 0.7367 0.65366 0.0
H866 H 0.76987 0.755 0.67714 0.0
H867 H 0.77795 0.72303 0.65355 0.0
H868 H 0.85362 0.74553 0.56452 0.0
H869 H 0.88384 0.77507 0.60199 0.0
H870 H 0.81158 0.78894 0.6677 0.0
C871 C 0.74298 0.72861 0.57994 0.0
C872 C 0.74417 0.71165 0.5504 0.0
C873 C 0.77064 0.70705 0.53434 0.0
C874 C 0.79568 0.71973 0.54712 0.0
C875 C 0.79387 0.73641 0.57633 0.0
C876 C 0.76832 0.74047 0.59286 0.0
C877 C 0.77252 0.75832 0.62453 0.0
C878 C 0.75497 0.78501 0.62471 0.0
C879 C 0.76519 0.7423 0.65396 0.0
C880 C 0.80431 0.76408 0.62289 0.0
C881 C 0.81612 0.75152 0.59474 0.0
C882 C 0.84477 0.75501 0.58703 0.0
C883 C 0.86187 0.7717 0.60878 0.0
C884 C 0.8505 0.7843 0.63838 0.0
C885 C 0.82122 0.78012 0.64534 0.0
H886 H 0.77161 0.22698 0.09284 0.0
H887 H 0.73425 0.22222 0.99602 0.0
H888 H 0.69165 0.24764 0.01788 0.0
H889 H 0.70599 0.21521 0.13421 0.0
H890 H 0.71446 0.23823 0.16966 0.0
H891 H 0.74277 0.22126 0.14616 0.0
H892 H 0.76605 0.26852 0.13843 0.0
H893 H 0.73789 0.28565 0.16204 0.0
H894 H 0.74513 0.29486 0.12143 0.0
H895 H 0.65348 0.27339 0.05009 0.0
H896 H 0.62084 0.29621 0.09116 0.0
H897 H 0.68174 0.28204 0.16766 0.0
C898 C 0.75451 0.23164 0.07638 0.0
C899 C 0.75598 0.22311 0.04285 0.0
C900 C 0.73324 0.22889 0.02181 0.0
C901 C 0.7091 0.24326 0.03398 0.0
C902 C 0.70802 0.25129 0.06728 0.0
C903 C 0.73 0.24556 0.08826 0.0
C904 C 0.72282 0.25538 0.1232 0.0
C905 C 0.72142 0.23107 0.14456 0.0
C906 C 0.74425 0.27742 0.13708 0.0
C907 C 0.69347 0.2676 0.11854 0.0
C908 C 0.68546 0.26521 0.08606 0.0
C909 C 0.65945 0.27533 0.07561 0.0
C910 C 0.64112 0.28829 0.09903 0.0
C911 C 0.64878 0.2907 0.13245 0.0
C912 C 0.67526 0.28014 0.14227 0.0
H913 H 0.28251 0.26896 0.6524 0.0
H914 H 0.37254 0.28594 0.66979 0.0
H915 H 0.36977 0.26401 0.72194 0.0
H916 H 0.25833 0.28159 0.73225 0.0
H917 H 0.23277 0.25374 0.72985 0.0
H918 H 0.2425 0.2695 0.69358 0.0
H919 H 0.25737 0.2219 0.66565 0.0
H920 H 0.24744 0.20591 0.70178 0.0
H921 H 0.28299 0.20127 0.68545 0.0
H922 H 0.35488 0.24468 0.7752 0.0
H923 H 0.3308 0.22624 0.82195 0.0
H924 H 0.25219 0.21731 0.76521 0.0
C925 C 0.30168 0.2678 0.6671 0.0
C926 C 0.32767 0.27921 0.6575 0.0
C927 C 0.35246 0.27717 0.67695 0.0
C928 C 0.35104 0.26484 0.70652 0.0
C929 C 0.32485 0.2541 0.7156 0.0
C930 C 0.30079 0.25498 0.69603 0.0
C931 C 0.27522 0.24202 0.71098 0.0
C932 C 0.25078 0.26297 0.71702 0.0
C933 C 0.26518 0.21624 0.6897 0.0
C934 C 0.28829 0.23454 0.74261 0.0
C935 C 0.31686 0.24169 0.74503 0.0
C936 C 0.33266 0.23846 0.77325 0.0
C937 C 0.31879 0.2278 0.79966 0.0
C938 C 0.28944 0.22027 0.79757 0.0
C939 C 0.27442 0.22326 0.76821 0.0
H940 H 0.71897 0.70459 0.41846 0.0
H941 H 0.64033 0.74725 0.44735 0.0
H942 H 0.64427 0.77467 0.39994 0.0
H943 H 0.75563 0.76252 0.39313 0.0
H944 H 0.77317 0.74361 0.35927 0.0
H945 H 0.76327 0.72638 0.39445 0.0
H946 H 0.73436 0.69039 0.35747 0.0
H947 H 0.74412 0.70757 0.32213 0.0
H948 H 0.70694 0.7019 0.33093 0.0
H949 H 0.65794 0.79885 0.35069 0.0
H950 H 0.68059 0.81814 0.30353 0.0
H951 H 0.75026 0.75974 0.30743 0.0
C952 C 0.70244 0.71956 0.41477 0.0
C953 C 0.67936 0.72378 0.43671 0.0
C954 C 0.65826 0.74366 0.43095 0.0
C955 C 0.66025 0.75929 0.40403 0.0
C956 C 0.68339 0.75472 0.38305 0.0
C957 C 0.70408 0.73531 0.38809 0.0
C958 C 0.7273 0.735 0.36256 0.0
C959 C 0.75656 0.74232 0.3783 0.0
C960 C 0.72822 0.70705 0.34206 0.0
C961 C 0.71666 0.75756 0.34262 0.0
C962 C 0.69122 0.76858 0.3547 0.0
C963 C 0.67779 0.79029 0.34092 0.0
C964 C 0.69087 0.80119 0.31428 0.0
C965 C 0.71713 0.79039 0.30177 0.0
C966 C 0.72994 0.76811 0.31604 0.0
H967 H 0.77837 0.20524 0.90801 0.0
H968 H 0.85698 0.24879 0.9363 0.0
H969 H 0.85478 0.2726 0.88572 0.0
H970 H 0.79332 0.19549 0.8218 0.0
H971 H 0.75656 0.20031 0.81022 0.0
H972 H 0.76485 0.18641 0.84826 0.0
H973 H 0.73509 0.22508 0.8794 0.0
H974 H 0.72668 0.23908 0.84149 0.0
H975 H 0.74324 0.2606 0.8742 0.0
H976 H 0.84276 0.29276 0.83255 0.0
H977 H 0.82179 0.3078 0.78183 0.0
H978 H 0.75209 0.24961 0.78843 0.0
C979 C 0.79518 0.21978 0.90369 0.0
C980 C 0.81777 0.22526 0.92625 0.0
C981 C 0.8394 0.24431 0.91943 0.0
C982 C 0.83836 0.25789 0.89074 0.0
C983 C 0.81569 0.25202 0.86909 0.0
C984 C 0.79456 0.23335 0.87525 0.0
C985 C 0.77228 0.23084 0.84842 0.0
C986 C 0.77174 0.20152 0.83115 0.0
C987 C 0.74258 0.23942 0.86168 0.0
C988 C 0.78389 0.25136 0.82636 0.0
C989 C 0.80901 0.26329 0.83855 0.0
C990 C 0.82322 0.28338 0.82266 0.0
C991 C 0.81124 0.29167 0.79376 0.0
C992 C 0.78529 0.2799 0.78112 0.0
C993 C 0.77177 0.25925 0.79759 0.0
H994 H 0.25204 0.24928 0.55862 0.0
H995 H 0.26454 0.32153 0.50598 0.0
H996 H 0.22896 0.30395 0.4648 0.0
H997 H 0.24074 0.1999 0.48928 0.0
H998 H 0.21263 0.18148 0.50792 0.0
H999 H 0.23985 0.19909 0.53297 0.0
H1000 H 0.20084 0.22664 0.56629 0.0
H1001 H 0.1735 0.20901 0.54145 0.0
H1002 H 0.17493 0.24612 0.54537 0.0
H1003 H 0.19482 0.27766 0.42794 0.0
H1004 H 0.15947 0.2468 0.39994 0.0
H1005 H 0.16351 0.1939 0.47968 0.0
C1006 C 0.24716 0.26124 0.53836 0.0
C1007 C 0.2609 0.28669 0.53521 0.0
C1008 C 0.25397 0.30208 0.50873 0.0
C1009 C 0.23396 0.29221 0.4852 0.0
C1010 C 0.22066 0.26712 0.48888 0.0
C1011 C 0.22651 0.25201 0.515 0.0
C1012 C 0.20795 0.22634 0.51369 0.0
C1013 C 0.2264 0.20015 0.51079 0.0
C1014 C 0.18813 0.22708 0.54347 0.0
C1015 C 0.19114 0.22931 0.48255 0.0
C1016 C 0.19917 0.25281 0.46854 0.0
C1017 C 0.18781 0.25949 0.43901 0.0
C1018 C 0.16737 0.24185 0.42346 0.0
C1019 C 0.15779 0.218 0.43773 0.0
C1020 C 0.17012 0.21176 0.46778 0.0
H1021 H 0.2326 0.77525 0.99601 0.0
H1022 H 0.2741 0.79477 0.08975 0.0
H1023 H 0.31731 0.76966 0.06936 0.0
H1024 H 0.25937 0.70778 0.98024 0.0
H1025 H 0.26433 0.71006 0.93717 0.0
H1026 H 0.23719 0.73046 0.95871 0.0
H1027 H 0.25921 0.77494 0.93913 0.0
H1028 H 0.2863 0.75466 0.91728 0.0
H1029 H 0.29651 0.78248 0.94686 0.0
H1030 H 0.35444 0.73935 0.03982 0.0
H1031 H 0.38405 0.70916 0.00241 0.0
H1032 H 0.31922 0.71246 0.92686 0.0
C1033 C 0.25084 0.77439 0.01221 0.0
C1034 C 0.24999 0.78682 0.04451 0.0
C1035 C 0.27436 0.78546 0.06487 0.0
C1036 C 0.29893 0.77118 0.05354 0.0
C1037 C 0.29889 0.75879 0.02168 0.0
C1038 C 0.27562 0.7606 0.00118 0.0
C1039 C 0.28095 0.74552 0.96804 0.0
C1040 C 0.25917 0.72207 0.96063 0.0
C1041 C 0.28074 0.7656 0.94125 0.0
C1042 C 0.31065 0.73442 0.97328 0.0
C1043 C 0.32062 0.74223 0.00437 0.0
C1044 C 0.34706 0.73349 0.01523 0.0
C1045 C 0.36381 0.71644 0.99366 0.0
C1046 C 0.3542 0.70846 0.96144 0.0
C1047 C 0.32723 0.71779 0.95132 0.0
loop_
_geom_bond_atom_site_label_1
_geom_bond_atom_site_label_2
_geom_bond_distance
_geom_bond_site_symmetry_2
_ccdc_geom_bond_type
Fe0 O2 1.918 . S
Fe0 O5 1.997 . S
Fe0 O6 2.002 . S
Fe0 O11 1.976 . S
Fe0 O14 1.996 . S
Fe1 O2 1.918 . S
Fe1 O9 1.997 . S
Fe1 O12 1.996 . S
Fe1 O16 1.976 . S
Fe1 O19 2.002 . S
O2 Fe0 1.918 . S
O2 Fe1 1.918 . S
O2 Fe3 1.918 . S
Fe3 O2 1.918 . S
Fe3 O4 2.002 . S
Fe3 O13 1.976 . S
Fe3 O17 1.996 . S
Fe3 O20 1.997 . S
O4 Fe3 2.002 . S
O4 C21 1.295 . S
O5 Fe0 1.997 . S
O5 C21 1.235 . S
O6 Fe0 2.002 . S
O6 C7 1.295 . S
C7 O6 1.295 . S
C7 O9 1.235 . S
C8 O13 1.287 . S
C8 O14 1.255 . S
O9 Fe1 1.997 . S
O9 C7 1.235 . S
C10 O16 1.287 . S
C10 O17 1.255 . S
O11 Fe0 1.976 . S
O11 C18 1.287 . S
O12 Fe1 1.996 . S
O12 C18 1.255 . S
O13 Fe3 1.976 . S
O13 C8 1.287 . S
O14 Fe0 1.996 . S
O14 C8 1.255 . S
C15 O19 1.295 . S
C15 O20 1.235 . S
O16 Fe1 1.976 . S
O16 C10 1.287 . S
O17 Fe3 1.996 . S
O17 C10 1.255 . S
C18 O11 1.287 . S
C18 O12 1.255 . S
O19 Fe1 2.002 . S
O19 C15 1.295 . S
O20 Fe3 1.997 . S
O20 C15 1.235 . S
C21 O4 1.295 . S
C21 O5 1.235 . S
Fe22 O24 1.918 . S
Fe22 O27 1.997 . S
Fe22 O28 2.002 . S
Fe22 O33 1.976 . S
Fe22 O36 1.996 . S
Fe23 O24 1.918 . S
Fe23 O31 1.997 . S
Fe23 O34 1.996 . S
Fe23 O38 1.976 . S
Fe23 O41 2.002 . S
O24 Fe22 1.918 . S
O24 Fe23 1.918 . S
O24 Fe25 1.918 . S
Fe25 O24 1.918 . S
Fe25 O26 2.002 . S
Fe25 O35 1.976 . S
Fe25 O39 1.996 . S
Fe25 O42 1.997 . S
O26 Fe25 2.002 . S
O26 C43 1.295 . S
O27 Fe22 1.997 . S
O27 C43 1.235 . S
O28 Fe22 2.002 . S
O28 C29 1.295 . S
C29 O28 1.295 . S
C29 O31 1.235 . S
C30 O35 1.287 . S
C30 O36 1.255 . S
O31 Fe23 1.997 . S
O31 C29 1.235 . S
C32 O38 1.287 . S
C32 O39 1.255 . S
O33 Fe22 1.976 . S
O33 C40 1.287 . S
O34 Fe23 1.996 . S
O34 C40 1.255 . S
O35 Fe25 1.976 . S
O35 C30 1.287 . S
O36 Fe22 1.996 . S
O36 C30 1.255 . S
C37 O41 1.295 . S
C37 O42 1.235 . S
O38 Fe23 1.976 . S
O38 C32 1.287 . S
O39 Fe25 1.996 . S
O39 C32 1.255 . S
C40 O33 1.287 . S
C40 O34 1.255 . S
O41 Fe23 2.002 . S
O41 C37 1.295 . S
O42 Fe25 1.997 . S
O42 C37 1.235 . S
C43 O26 1.295 . S
C43 O27 1.235 . S
Fe44 O46 1.918 . S
Fe44 O49 1.997 1_554 S
Fe44 O50 2.002 . S
Fe44 O55 1.976 . S
Fe44 O58 1.996 . S
Fe45 O46 1.918 . S
Fe45 O53 1.997 . S
Fe45 O56 1.996 . S
Fe45 O60 1.976 . S
Fe45 O63 2.002 1_554 S
O46 Fe44 1.918 . S
O46 Fe45 1.918 . S
O46 Fe47 1.918 1_554 S
Fe47 O46 1.918 1_556 S
Fe47 O48 2.002 . S
Fe47 O57 1.976 1_556 S
Fe47 O61 1.996 1_556 S
Fe47 O64 1.997 . S
O48 Fe47 2.002 . S
O48 C65 1.295 . S
O49 Fe44 1.997 1_556 S
O49 C65 1.235 . S
O50 Fe44 2.002 . S
O50 C51 1.295 1_554 S
C51 O50 1.295 1_556 S
C51 O53 1.235 1_556 S
C52 O57 1.287 . S
C52 O58 1.255 . S
O53 Fe45 1.997 . S
O53 C51 1.235 1_554 S
C54 O60 1.287 . S
C54 O61 1.255 . S
O55 Fe44 1.976 . S
O55 C62 1.287 . S
O56 Fe45 1.996 . S
O56 C62 1.255 . S
O57 Fe47 1.976 1_554 S
O57 C52 1.287 . S
O58 Fe44 1.996 . S
O58 C52 1.255 . S
C59 O63 1.295 . S
C59 O64 1.235 . S
O60 Fe45 1.976 . S
O60 C54 1.287 . S
O61 Fe47 1.996 1_554 S
O61 C54 1.255 . S
C62 O55 1.287 . S
C62 O56 1.255 . S
O63 Fe45 2.002 1_556 S
O63 C59 1.295 . S
O64 Fe47 1.997 . S
O64 C59 1.235 . S
C65 O48 1.295 . S
C65 O49 1.235 . S
Fe66 O68 1.918 . S
Fe66 O71 1.997 . S
Fe66 O72 2.002 . S
Fe66 O77 1.976 . S
Fe66 O80 1.996 . S
Fe67 O68 1.918 . S
Fe67 O75 1.997 . S
Fe67 O78 1.996 . S
Fe67 O82 1.976 . S
Fe67 O85 2.002 . S
O68 Fe66 1.918 . S
O68 Fe67 1.918 . S
O68 Fe69 1.918 . S
Fe69 O68 1.918 . S
Fe69 O70 2.002 . S
Fe69 O79 1.976 . S
Fe69 O83 1.996 . S
Fe69 O86 1.997 . S
O70 Fe69 2.002 . S
O70 C87 1.295 . S
O71 Fe66 1.997 . S
O71 C87 1.235 . S
O72 Fe66 2.002 . S
O72 C73 1.295 . S
C73 O72 1.295 . S
C73 O75 1.235 . S
C74 O79 1.287 . S
C74 O80 1.255 . S
O75 Fe67 1.997 . S
O75 C73 1.235 . S
C76 O82 1.287 . S
C76 O83 1.255 . S
O77 Fe66 1.976 . S
O77 C84 1.287 . S
O78 Fe67 1.996 . S
O78 C84 1.255 . S
O79 Fe69 1.976 . S
O79 C74 1.287 . S
O80 Fe66 1.996 . S
O80 C74 1.255 . S
C81 O85 1.295 . S
C81 O86 1.235 . S
O82 Fe67 1.976 . S
O82 C76 1.287 . S
O83 Fe69 1.996 . S
O83 C76 1.255 . S
C84 O77 1.287 . S
C84 O78 1.255 . S
O85 Fe67 2.002 . S
O85 C81 1.295 . S
O86 Fe69 1.997 . S
O86 C81 1.235 . S
C87 O70 1.295 . S
C87 O71 1.235 . S
C88 C89 1.411 . S
C88 C90 1.372 1_655 S
C88 H112 0.931 . S
C89 C88 1.411 . S
C89 C93 1.397 . S
C90 C88 1.372 1_455 S
C90 C91 1.384 . S
C90 H113 0.930 . S
C91 C90 1.384 . S
C91 C92 1.362 1_455 S
C91 C94 1.481 . S
C92 C91 1.362 1_655 S
C92 C93 1.403 . S
C92 H114 0.929 . S
C93 C89 1.397 . S
C93 C92 1.403 . S
C93 H115 0.931 . S
C94 C91 1.481 . S
C94 C95 1.387 . S
C94 C99 1.390 . S
C95 C94 1.387 . S
C95 C96 1.401 . S
C95 H116 0.930 . S
C96 C95 1.401 . S
C96 C97 1.376 . S
C96 C105 1.511 . S
C97 C96 1.376 . S
C97 C98 1.392 . S
C97 H118 0.931 . S
C98 C97 1.392 . S
C98 C99 1.361 . S
C98 C100 1.500 . S
C99 C94 1.390 . S
C99 C98 1.361 . S
C99 H117 0.931 . S
C100 C98 1.500 . S
C100 C101 1.371 . S
C100 C102 1.365 . S
C101 C100 1.371 . S
C101 C111 1.386 . S
C101 H119 0.931 . S
C102 C100 1.365 . S
C102 C103 1.409 . S
C102 H120 0.929 . S
C103 C102 1.409 . S
C103 C104 1.380 . S
C103 H121 0.930 . S
C104 C103 1.380 . S
C104 C111 1.357 . S
C105 C96 1.511 . S
C105 C106 1.341 . S
C105 C107 1.371 . S
C106 C105 1.341 . S
C106 C110 1.394 . S
C106 H122 0.930 . S
C107 C105 1.371 . S
C107 C108 1.392 . S
C107 H123 0.931 . S
C108 C107 1.392 . S
C108 C109 1.331 . S
C108 H126 0.932 . S
C109 C108 1.331 . S
C109 C110 1.336 . S
C110 C106 1.394 . S
C110 C109 1.336 . S
C110 H125 0.929 . S
C111 C101 1.386 . S
C111 C104 1.357 . S
C111 H124 0.928 . S
H112 C88 0.931 . S
H113 C90 0.930 . S
H114 C92 0.929 . S
H115 C93 0.931 . S
H116 C95 0.930 . S
H117 C99 0.931 . S
H118 C97 0.931 . S
H119 C101 0.931 . S
H120 C102 0.929 . S
H121 C103 0.930 . S
H122 C106 0.930 . S
H123 C107 0.931 . S
H124 C111 0.928 . S
H125 C110 0.929 . S
H126 C108 0.932 . S
C127 C128 1.386 . S
C127 C129 1.397 . S
C127 H151 0.931 . S
C128 C127 1.386 . S
C128 C132 1.397 . S
C129 C127 1.397 . S
C129 C130 1.384 . S
C129 H152 0.930 . S
C130 C129 1.384 . S
C130 C131 1.377 . S
C130 C133 1.481 . S
C131 C130 1.377 . S
C131 C132 1.389 . S
C131 H153 0.929 . S
C132 C128 1.397 . S
C132 C131 1.389 . S
C132 H154 0.931 . S
C133 C130 1.481 . S
C133 C134 1.387 . S
C133 C138 1.390 . S
C134 C133 1.387 . S
C134 C135 1.401 . S
C134 H155 0.930 . S
C135 C134 1.401 . S
C135 C136 1.376 . S
C135 C144 1.511 . S
C136 C135 1.376 . S
C136 C137 1.392 . S
C136 H157 0.931 . S
C137 C136 1.392 . S
C137 C138 1.361 . S
C137 C139 1.500 . S
C138 C133 1.390 . S
C138 C137 1.361 . S
C138 H156 0.931 . S
C139 C137 1.500 . S
C139 C140 1.371 . S
C139 C141 1.365 . S
C140 C139 1.371 . S
C140 C150 1.386 . S
C140 H158 0.931 . S
C141 C139 1.365 . S
C141 C142 1.409 . S
C141 H159 0.929 . S
C142 C141 1.409 . S
C142 C143 1.380 . S
C142 H160 0.930 . S
C143 C142 1.380 . S
C143 C150 1.357 . S
C144 C135 1.511 . S
C144 C145 1.341 . S
C144 C146 1.371 . S
C145 C144 1.341 . S
C145 C149 1.394 . S
C145 H161 0.930 . S
C146 C144 1.371 . S
C146 C147 1.392 . S
C146 H162 0.931 . S
C147 C146 1.392 . S
C147 C148 1.331 . S
C147 H165 0.932 . S
C148 C147 1.331 . S
C148 C149 1.336 . S
C149 C145 1.394 . S
C149 C148 1.336 . S
C149 H164 0.929 . S
C150 C140 1.386 . S
C150 C143 1.357 . S
C150 H163 0.928 . S
H151 C127 0.931 . S
H152 C129 0.930 . S
H153 C131 0.929 . S
H154 C132 0.931 . S
H155 C134 0.930 . S
H156 C138 0.931 . S
H157 C136 0.931 . S
H158 C140 0.931 . S
H159 C141 0.929 . S
H160 C142 0.930 . S
H161 C145 0.930 . S
H162 C146 0.931 . S
H163 C150 0.928 . S
H164 C149 0.929 . S
H165 C147 0.932 . S
C166 C167 1.386 . S
C166 C168 1.397 . S
C166 H190 0.931 . S
C167 C166 1.386 . S
C167 C171 1.397 . S
C168 C166 1.397 . S
C168 C169 1.384 . S
C168 H191 0.930 . S
C169 C168 1.384 . S
C169 C170 1.377 . S
C169 C172 1.481 . S
C170 C169 1.377 . S
C170 C171 1.389 . S
C170 H192 0.929 . S
C171 C167 1.397 . S
C171 C170 1.389 . S
C171 H193 0.931 . S
C172 C169 1.481 . S
C172 C173 1.387 . S
C172 C177 1.390 . S
C173 C172 1.387 . S
C173 C174 1.401 . S
C173 H194 0.930 . S
C174 C173 1.401 . S
C174 C175 1.376 . S
C174 C183 1.511 . S
C175 C174 1.376 . S
C175 C176 1.392 . S
C175 H196 0.931 . S
C176 C175 1.392 . S
C176 C177 1.361 . S
C176 C178 1.500 . S
C177 C172 1.390 . S
C177 C176 1.361 . S
C177 H195 0.931 . S
C178 C176 1.500 . S
C178 C179 1.371 . S
C178 C180 1.365 . S
C179 C178 1.371 . S
C179 C189 1.386 . S
C179 H197 0.931 . S
C180 C178 1.365 . S
C180 C181 1.409 . S
C180 H198 0.929 . S
C181 C180 1.409 . S
C181 C182 1.380 . S
C181 H199 0.930 . S
C182 C181 1.380 . S
C182 C189 1.357 . S
C183 C174 1.511 . S
C183 C184 1.341 . S
C183 C185 1.371 . S
C184 C183 1.341 . S
C184 C188 1.394 . S
C184 H200 0.930 . S
C185 C183 1.371 . S
C185 C186 1.392 . S
C185 H201 0.931 . S
C186 C185 1.392 . S
C186 C187 1.331 . S
C186 H204 0.932 . S
C187 C186 1.331 . S
C187 C188 1.336 . S
C188 C184 1.394 . S
C188 C187 1.336 . S
C188 H203 0.929 . S
C189 C179 1.386 . S
C189 C182 1.357 . S
C189 H202 0.928 . S
H190 C166 0.931 . S
H191 C168 0.930 . S
H192 C170 0.929 . S
H193 C171 0.931 . S
H194 C173 0.930 . S
H195 C177 0.931 . S
H196 C175 0.931 . S
H197 C179 0.931 . S
H198 C180 0.929 . S
H199 C181 0.930 . S
H200 C184 0.930 . S
H201 C185 0.931 . S
H202 C189 0.928 . S
H203 C188 0.929 . S
H204 C186 0.932 . S
C205 C206 1.386 . S
C205 C207 1.397 . S
C205 H229 0.931 . S
C206 C205 1.386 . S
C206 C210 1.397 . S
C207 C205 1.397 . S
C207 C208 1.384 . S
C207 H230 0.930 . S
C208 C207 1.384 . S
C208 C209 1.377 . S
C208 C211 1.481 . S
C209 C208 1.377 . S
C209 C210 1.389 . S
C209 H231 0.929 . S
C210 C206 1.397 . S
C210 C209 1.389 . S
C210 H232 0.931 . S
C211 C208 1.481 . S
C211 C212 1.387 . S
C211 C216 1.390 . S
C212 C211 1.387 . S
C212 C213 1.401 . S
C212 H233 0.930 . S
C213 C212 1.401 . S
C213 C214 1.376 . S
C213 C222 1.511 . S
C214 C213 1.376 . S
C214 C215 1.392 . S
C214 H235 0.931 . S
C215 C214 1.392 . S
C215 C216 1.361 . S
C215 C217 1.500 . S
C216 C211 1.390 . S
C216 C215 1.361 . S
C216 H234 0.931 . S
C217 C215 1.500 . S
C217 C218 1.371 . S
C217 C219 1.365 . S
C218 C217 1.371 . S
C218 C228 1.386 . S
C218 H236 0.931 . S
C219 C217 1.365 . S
C219 C220 1.409 . S
C219 H237 0.929 . S
C220 C219 1.409 . S
C220 C221 1.380 . S
C220 H238 0.930 . S
C221 C220 1.380 . S
C221 C228 1.357 . S
C222 C213 1.511 . S
C222 C223 1.341 . S
C222 C224 1.371 . S
C223 C222 1.341 . S
C223 C227 1.394 . S
C223 H239 0.930 . S
C224 C222 1.371 . S
C224 C225 1.392 . S
C224 H240 0.931 . S
C225 C224 1.392 . S
C225 C226 1.331 . S
C225 H243 0.932 . S
C226 C225 1.331 . S
C226 C227 1.336 . S
C227 C223 1.394 . S
C227 C226 1.336 . S
C227 H242 0.929 . S
C228 C218 1.386 . S
C228 C221 1.357 . S
C228 H241 0.928 . S
H229 C205 0.931 . S
H230 C207 0.930 . S
H231 C209 0.929 . S
H232 C210 0.931 . S
H233 C212 0.930 . S
H234 C216 0.931 . S
H235 C214 0.931 . S
H236 C218 0.931 . S
H237 C219 0.929 . S
H238 C220 0.930 . S
H239 C223 0.930 . S
H240 C224 0.931 . S
H241 C228 0.928 . S
H242 C227 0.929 . S
H243 C225 0.932 . S
C244 C245 1.386 . S
C244 C246 1.397 . S
C244 H268 0.931 . S
C245 C244 1.386 . S
C245 C249 1.397 . S
C246 C244 1.397 . S
C246 C247 1.384 . S
C246 H269 0.930 . S
C247 C246 1.384 . S
C247 C248 1.377 . S
C247 C250 1.481 . S
C248 C247 1.377 . S
C248 C249 1.389 . S
C248 H270 0.929 . S
C249 C245 1.397 . S
C249 C248 1.389 . S
C249 H271 0.931 . S
C250 C247 1.481 . S
C250 C251 1.387 . S
C250 C255 1.390 . S
C251 C250 1.387 . S
C251 C252 1.401 . S
C251 H272 0.930 . S
C252 C251 1.401 . S
C252 C253 1.376 . S
C252 C261 1.511 . S
C253 C252 1.376 . S
C253 C254 1.392 . S
C253 H274 0.931 . S
C254 C253 1.392 . S
C254 C255 1.361 . S
C254 C256 1.500 . S
C255 C250 1.390 . S
C255 C254 1.361 . S
C255 H273 0.931 . S
C256 C254 1.500 . S
C256 C257 1.371 . S
C256 C258 1.365 . S
C257 C256 1.371 . S
C257 C267 1.386 . S
C257 H275 0.931 . S
C258 C256 1.365 . S
C258 C259 1.409 . S
C258 H276 0.929 . S
C259 C258 1.409 . S
C259 C260 1.380 . S
C259 H277 0.930 . S
C260 C259 1.380 . S
C260 C267 1.357 . S
C261 C252 1.511 . S
C261 C262 1.341 . S
C261 C263 1.371 . S
C262 C261 1.341 . S
C262 C266 1.394 . S
C262 H278 0.930 . S
C263 C261 1.371 . S
C263 C264 1.392 . S
C263 H279 0.931 . S
C264 C263 1.392 . S
C264 C265 1.331 . S
C264 H282 0.932 . S
C265 C264 1.331 . S
C265 C266 1.336 . S
C266 C262 1.394 . S
C266 C265 1.336 . S
C266 H281 0.929 . S
C267 C257 1.386 . S
C267 C260 1.357 . S
C267 H280 0.928 . S
H268 C244 0.931 . S
H269 C246 0.930 . S
H270 C248 0.929 . S
H271 C249 0.931 . S
H272 C251 0.930 . S
H273 C255 0.931 . S
H274 C253 0.931 . S
H275 C257 0.931 . S
H276 C258 0.929 . S
H277 C259 0.930 . S
H278 C262 0.930 . S
H279 C263 0.931 . S
H280 C267 0.928 . S
H281 C266 0.929 . S
H282 C264 0.932 . S
C283 C284 1.386 . S
C283 C285 1.397 . S
C283 H307 0.931 . S
C284 C283 1.386 . S
C284 C288 1.397 . S
C285 C283 1.397 . S
C285 C286 1.384 . S
C285 H308 0.930 . S
C286 C285 1.384 . S
C286 C287 1.377 . S
C286 C289 1.481 . S
C287 C286 1.377 . S
C287 C288 1.389 . S
C287 H309 0.929 . S
C288 C284 1.397 . S
C288 C287 1.389 . S
C288 H310 0.931 1_556 S
C289 C286 1.481 . S
C289 C290 1.387 . S
C289 C294 1.390 . S
C290 C289 1.387 . S
C290 C291 1.401 . S
C290 H311 0.930 . S
C291 C290 1.401 . S
C291 C292 1.376 . S
C291 C300 1.511 . S
C292 C291 1.376 . S
C292 C293 1.392 . S
C292 H313 0.931 . S
C293 C292 1.392 . S
C293 C294 1.361 . S
C293 C295 1.500 . S
C294 C289 1.390 . S
C294 C293 1.361 . S
C294 H312 0.931 . S
C295 C293 1.500 . S
C295 C296 1.371 . S
C295 C297 1.365 . S
C296 C295 1.371 . S
C296 C306 1.386 . S
C296 H314 0.931 . S
C297 C295 1.365 . S
C297 C298 1.409 . S
C297 H315 0.929 . S
C298 C297 1.409 . S
C298 C299 1.380 . S
C298 H316 0.930 1_556 S
C299 C298 1.380 . S
C299 C306 1.357 . S
C300 C291 1.511 . S
C300 C301 1.341 . S
C300 C302 1.371 . S
C301 C300 1.341 . S
C301 C305 1.394 . S
C301 H317 0.930 . S
C302 C300 1.371 . S
C302 C303 1.392 . S
C302 H318 0.931 . S
C303 C302 1.392 . S
C303 C304 1.331 . S
C303 H321 0.932 . S
C304 C303 1.331 . S
C304 C305 1.336 . S
C305 C301 1.394 . S
C305 C304 1.336 . S
C305 H320 0.929 . S
C306 C296 1.386 . S
C306 C299 1.357 . S
C306 H319 0.928 . S
H307 C283 0.931 . S
H308 C285 0.930 . S
H309 C287 0.929 . S
H310 C288 0.931 1_554 S
H311 C290 0.930 . S
H312 C294 0.931 . S
H313 C292 0.931 . S
H314 C296 0.931 . S
H315 C297 0.929 . S
H316 C298 0.930 1_554 S
H317 C301 0.930 . S
H318 C302 0.931 . S
H319 C306 0.928 . S
H320 C305 0.929 . S
H321 C303 0.932 . S
C322 C323 1.386 . S
C322 C324 1.397 . S
C322 H346 0.931 . S
C323 C322 1.386 . S
C323 C327 1.397 . S
C324 C322 1.397 . S
C324 C325 1.384 . S
C324 H347 0.930 . S
C325 C324 1.384 . S
C325 C326 1.377 . S
C325 C328 1.481 . S
C326 C325 1.377 . S
C326 C327 1.389 . S
C326 H348 0.929 . S
C327 C323 1.397 . S
C327 C326 1.389 . S
C327 H349 0.931 . S
C328 C325 1.481 . S
C328 C329 1.387 . S
C328 C333 1.390 . S
C329 C328 1.387 . S
C329 C330 1.401 . S
C329 H350 0.930 . S
C330 C329 1.401 . S
C330 C331 1.376 . S
C330 C339 1.511 . S
C331 C330 1.376 . S
C331 C332 1.392 . S
C331 H352 0.931 . S
C332 C331 1.392 . S
C332 C333 1.361 . S
C332 C334 1.500 . S
C333 C328 1.390 . S
C333 C332 1.361 . S
C333 H351 0.931 . S
C334 C332 1.500 . S
C334 C335 1.371 . S
C334 C336 1.365 . S
C335 C334 1.371 . S
C335 C345 1.386 . S
C335 H353 0.931 . S
C336 C334 1.365 . S
C336 C337 1.409 . S
C336 H354 0.929 . S
C337 C336 1.409 . S
C337 C338 1.380 . S
C337 H355 0.930 . S
C338 C337 1.380 . S
C338 C345 1.357 . S
C339 C330 1.511 . S
C339 C340 1.341 . S
C339 C341 1.371 . S
C340 C339 1.341 . S
C340 C344 1.394 . S
C340 H356 0.930 . S
C341 C339 1.371 . S
C341 C342 1.392 . S
C341 H357 0.931 . S
C342 C341 1.392 . S
C342 C343 1.331 . S
C342 H360 0.932 . S
C343 C342 1.331 . S
C343 C344 1.336 . S
C344 C340 1.394 . S
C344 C343 1.336 . S
C344 H359 0.929 . S
C345 C335 1.386 . S
C345 C338 1.357 . S
C345 H358 0.928 . S
H346 C322 0.931 . S
H347 C324 0.930 . S
H348 C326 0.929 . S
H349 C327 0.931 . S
H350 C329 0.930 . S
H351 C333 0.931 . S
H352 C331 0.931 . S
H353 C335 0.931 . S
H354 C336 0.929 . S
H355 C337 0.930 . S
H356 C340 0.930 . S
H357 C341 0.931 . S
H358 C345 0.928 . S
H359 C344 0.929 . S
H360 C342 0.932 . S
C361 C362 1.386 . S
C361 C363 1.397 1_455 S
C361 H385 0.931 . S
C362 C361 1.386 . S
C362 C366 1.397 . S
C363 C361 1.397 1_655 S
C363 C364 1.384 . S
C363 H386 0.930 . S
C364 C363 1.384 . S
C364 C365 1.377 . S
C364 C367 1.481 . S
C365 C364 1.377 . S
C365 C366 1.389 1_655 S
C365 H387 0.929 . S
C366 C362 1.397 . S
C366 C365 1.389 1_455 S
C366 H388 0.931 . S
C367 C364 1.481 . S
C367 C368 1.387 . S
C367 C372 1.390 . S
C368 C367 1.387 . S
C368 C369 1.401 . S
C368 H389 0.930 . S
C369 C368 1.401 . S
C369 C370 1.376 . S
C369 C378 1.511 . S
C370 C369 1.376 . S
C370 C371 1.392 . S
C370 H391 0.931 . S
C371 C370 1.392 . S
C371 C372 1.361 . S
C371 C373 1.500 . S
C372 C367 1.390 . S
C372 C371 1.361 . S
C372 H390 0.931 . S
C373 C371 1.500 . S
C373 C374 1.371 . S
C373 C375 1.365 . S
C374 C373 1.371 . S
C374 C384 1.386 . S
C374 H392 0.931 . S
C375 C373 1.365 . S
C375 C376 1.409 . S
C375 H393 0.929 . S
C376 C375 1.409 . S
C376 C377 1.380 . S
C376 H394 0.930 . S
C377 C376 1.380 . S
C377 C384 1.357 . S
C378 C369 1.511 . S
C378 C379 1.341 . S
C378 C380 1.371 . S
C379 C378 1.341 . S
C379 C383 1.394 . S
C379 H395 0.930 . S
C380 C378 1.371 . S
C380 C381 1.392 . S
C380 H396 0.931 . S
C381 C380 1.392 . S
C381 C382 1.331 . S
C381 H399 0.932 . S
C382 C381 1.331 . S
C382 C383 1.336 . S
C383 C379 1.394 . S
C383 C382 1.336 . S
C383 H398 0.929 . S
C384 C374 1.386 . S
C384 C377 1.357 . S
C384 H397 0.928 . S
H385 C361 0.931 . S
H386 C363 0.930 . S
H387 C365 0.929 . S
H388 C366 0.931 . S
H389 C368 0.930 . S
H390 C372 0.931 . S
H391 C370 0.931 . S
H392 C374 0.931 . S
H393 C375 0.929 . S
H394 C376 0.930 . S
H395 C379 0.930 . S
H396 C380 0.931 . S
H397 C384 0.928 . S
H398 C383 0.929 . S
H399 C381 0.932 . S
H400 C412 0.930 . S
H401 C414 0.930 . S
H402 C415 0.930 . S
H403 C419 0.959 . S
H404 C419 0.959 1_545 S
H405 C419 0.961 . S
H406 C420 0.960 . S
H407 C420 0.961 1_545 S
H408 C420 0.959 . S
H409 C423 0.929 . S
H410 C424 0.931 . S
H411 C426 0.934 . S
C412 H400 0.930 . S
C412 C413 1.399 . S
C412 C417 1.399 . S
C413 C412 1.399 . S
C413 C414 1.376 . S
C414 H401 0.930 . S
C414 C413 1.376 . S
C414 C415 1.388 . S
C415 H402 0.930 . S
C415 C414 1.388 . S
C415 C416 1.390 . S
C416 C415 1.390 . S
C416 C417 1.394 . S
C416 C422 1.465 . S
C417 C412 1.399 . S
C417 C416 1.394 . S
C417 C418 1.516 . S
C418 C417 1.516 . S
C418 C419 1.502 . S
C418 C420 1.561 . S
C418 C421 1.526 . S
C419 H403 0.959 . S
C419 H404 0.959 1_565 S
C419 H405 0.961 . S
C419 C418 1.502 . S
C420 H406 0.960 . S
C420 H407 0.961 1_565 S
C420 H408 0.959 . S
C420 C418 1.561 . S
C421 C418 1.526 . S
C421 C422 1.396 . S
C421 C426 1.387 1_565 S
C422 C416 1.465 . S
C422 C421 1.396 . S
C422 C423 1.399 . S
C423 H409 0.929 . S
C423 C422 1.399 . S
C423 C424 1.385 . S
C424 H410 0.931 . S
C424 C423 1.385 . S
C424 C425 1.389 . S
C425 C424 1.389 . S
C425 C426 1.386 1_565 S
C426 H411 0.934 . S
C426 C421 1.387 1_545 S
C426 C425 1.386 1_545 S
H427 C439 0.930 . S
H428 C441 0.930 . S
H429 C442 0.930 . S
H430 C446 0.959 . S
H431 C446 0.959 . S
H432 C446 0.961 . S
H433 C447 0.960 . S
H434 C447 0.961 . S
H435 C447 0.959 . S
H436 C450 0.929 . S
H437 C451 0.931 . S
H438 C453 0.930 . S
C439 H427 0.930 . S
C439 C440 1.399 . S
C439 C444 1.399 . S
C440 C439 1.399 . S
C440 C441 1.376 . S
C441 H428 0.930 . S
C441 C440 1.376 . S
C441 C442 1.388 . S
C442 H429 0.930 . S
C442 C441 1.388 . S
C442 C443 1.390 . S
C443 C442 1.390 . S
C443 C444 1.394 . S
C443 C449 1.465 . S
C444 C439 1.399 . S
C444 C443 1.394 . S
C444 C445 1.516 . S
C445 C444 1.516 . S
C445 C446 1.502 . S
C445 C447 1.561 . S
C445 C448 1.526 . S
C446 H430 0.959 . S
C446 H431 0.959 . S
C446 H432 0.961 . S
C446 C445 1.502 . S
C447 H433 0.960 . S
C447 H434 0.961 . S
C447 H435 0.959 . S
C447 C445 1.561 . S
C448 C445 1.526 . S
C448 C449 1.396 . S
C448 C453 1.390 . S
C449 C443 1.465 . S
C449 C448 1.396 . S
C449 C450 1.399 . S
C450 H436 0.929 . S
C450 C449 1.399 . S
C450 C451 1.385 . S
C451 H437 0.931 . S
C451 C450 1.385 . S
C451 C452 1.389 . S
C452 C451 1.389 . S
C452 C453 1.387 . S
C453 H438 0.930 . S
C453 C448 1.390 . S
C453 C452 1.387 . S
H454 C466 0.930 . S
H455 C468 0.930 . S
H456 C469 0.930 . S
H457 C473 0.959 . S
H458 C473 0.959 . S
H459 C473 0.961 . S
H460 C474 0.960 . S
H461 C474 0.961 . S
H462 C474 0.959 . S
H463 C477 0.929 . S
H464 C478 0.931 . S
H465 C480 0.930 . S
C466 H454 0.930 . S
C466 C467 1.399 . S
C466 C471 1.399 . S
C467 C466 1.399 . S
C467 C468 1.376 . S
C468 H455 0.930 . S
C468 C467 1.376 . S
C468 C469 1.388 . S
C469 H456 0.930 . S
C469 C468 1.388 . S
C469 C470 1.390 . S
C470 C469 1.390 . S
C470 C471 1.394 . S
C470 C476 1.465 . S
C471 C466 1.399 . S
C471 C470 1.394 . S
C471 C472 1.516 . S
C472 C471 1.516 . S
C472 C473 1.502 . S
C472 C474 1.561 . S
C472 C475 1.526 . S
C473 H457 0.959 . S
C473 H458 0.959 . S
C473 H459 0.961 . S
C473 C472 1.502 . S
C474 H460 0.960 . S
C474 H461 0.961 . S
C474 H462 0.959 . S
C474 C472 1.561 . S
C475 C472 1.526 . S
C475 C476 1.396 . S
C475 C480 1.390 1_545 S
C476 C470 1.465 . S
C476 C475 1.396 . S
C476 C477 1.399 1_545 S
C477 H463 0.929 . S
C477 C476 1.399 1_565 S
C477 C478 1.385 . S
C478 H464 0.931 . S
C478 C477 1.385 . S
C478 C479 1.389 . S
C479 C478 1.389 . S
C479 C480 1.387 . S
C480 H465 0.930 . S
C480 C475 1.390 1_565 S
C480 C479 1.387 . S
H481 C493 0.930 . S
H482 C495 0.930 . S
H483 C496 0.930 . S
H484 C500 0.959 . S
H485 C500 0.959 . S
H486 C500 0.961 . S
H487 C501 0.960 . S
H488 C501 0.961 . S
H489 C501 0.959 . S
H490 C504 0.929 . S
H491 C505 0.931 . S
H492 C507 0.930 . S
C493 H481 0.930 . S
C493 C494 1.399 . S
C493 C498 1.399 . S
C494 C493 1.399 . S
C494 C495 1.376 . S
C495 H482 0.930 . S
C495 C494 1.376 . S
C495 C496 1.388 . S
C496 H483 0.930 . S
C496 C495 1.388 . S
C496 C497 1.390 . S
C497 C496 1.390 . S
C497 C498 1.394 . S
C497 C503 1.465 . S
C498 C493 1.399 . S
C498 C497 1.394 . S
C498 C499 1.516 . S
C499 C498 1.516 . S
C499 C500 1.502 . S
C499 C501 1.561 . S
C499 C502 1.526 . S
C500 H484 0.959 . S
C500 H485 0.959 . S
C500 H486 0.961 . S
C500 C499 1.502 . S
C501 H487 0.960 . S
C501 H488 0.961 . S
C501 H489 0.959 . S
C501 C499 1.561 . S
C502 C499 1.526 . S
C502 C503 1.396 . S
C502 C507 1.390 . S
C503 C497 1.465 . S
C503 C502 1.396 . S
C503 C504 1.399 . S
C504 H490 0.929 . S
C504 C503 1.399 . S
C504 C505 1.385 . S
C505 H491 0.931 . S
C505 C504 1.385 . S
C505 C506 1.389 . S
C506 C505 1.389 . S
C506 C507 1.387 . S
C507 H492 0.930 . S
C507 C502 1.390 . S
C507 C506 1.387 . S
H508 C520 0.930 . S
H509 C522 0.930 . S
H510 C523 0.930 . S
H511 C527 0.959 . S
H512 C527 0.959 . S
H513 C527 0.961 . S
H514 C528 0.960 . S
H515 C528 0.961 . S
H516 C528 0.959 . S
H517 C531 0.929 . S
H518 C532 0.931 . S
H519 C534 0.930 . S
C520 H508 0.930 . S
C520 C521 1.399 . S
C520 C525 1.399 . S
C521 C520 1.399 . S
C521 C522 1.376 . S
C522 H509 0.930 . S
C522 C521 1.376 . S
C522 C523 1.388 . S
C523 H510 0.930 . S
C523 C522 1.388 . S
C523 C524 1.390 . S
C524 C523 1.390 . S
C524 C525 1.394 . S
C524 C530 1.465 . S
C525 C520 1.399 . S
C525 C524 1.394 . S
C525 C526 1.516 . S
C526 C525 1.516 . S
C526 C527 1.502 . S
C526 C528 1.561 . S
C526 C529 1.526 . S
C527 H511 0.959 . S
C527 H512 0.959 . S
C527 H513 0.961 . S
C527 C526 1.502 . S
C528 H514 0.960 . S
C528 H515 0.961 . S
C528 H516 0.959 . S
C528 C526 1.561 . S
C529 C526 1.526 . S
C529 C530 1.396 . S
C529 C534 1.390 . S
C530 C524 1.465 . S
C530 C529 1.396 . S
C530 C531 1.399 . S
C531 H517 0.929 . S
C531 C530 1.399 . S
C531 C532 1.385 . S
C532 H518 0.931 . S
C532 C531 1.385 . S
C532 C533 1.389 . S
C533 C532 1.389 . S
C533 C534 1.387 . S
C534 H519 0.930 . S
C534 C529 1.390 . S
C534 C533 1.387 . S
H535 C547 0.930 . S
H536 C549 0.930 . S
H537 C550 0.930 . S
H538 C554 0.959 1_556 S
H539 C554 0.959 . S
H540 C554 0.961 1_655 S
H541 C555 0.960 . S
H542 C555 0.961 . S
H543 C555 0.959 . S
H544 C558 0.929 . S
H545 C559 0.931 . S
H546 C561 0.930 1_554 S
C547 H535 0.930 . S
C547 C548 1.399 1_554 S
C547 C552 1.399 1_554 S
C548 C547 1.399 1_556 S
C548 C549 1.376 . S
C549 H536 0.930 . S
C549 C548 1.376 . S
C549 C550 1.388 . S
C550 H537 0.930 . S
C550 C549 1.388 . S
C550 C551 1.398 . S
C551 C550 1.398 . S
C551 C552 1.399 . S
C551 C557 1.452 1_655 S
C552 C547 1.399 1_556 S
C552 C551 1.399 . S
C552 C553 1.516 1_656 S
C553 C552 1.516 1_454 S
C553 C554 1.502 . S
C553 C555 1.561 . S
C553 C556 1.526 1_554 S
C554 H538 0.959 1_554 S
C554 H539 0.959 . S
C554 H540 0.961 1_455 S
C554 C553 1.502 . S
C555 H541 0.960 . S
C555 H542 0.961 . S
C555 H543 0.959 . S
C555 C553 1.561 . S
C556 C553 1.526 1_556 S
C556 C557 1.396 . S
C556 C561 1.390 . S
C557 C551 1.452 1_455 S
C557 C556 1.396 . S
C557 C558 1.399 . S
C558 H544 0.929 . S
C558 C557 1.399 . S
C558 C559 1.385 . S
C559 H545 0.931 . S
C559 C558 1.385 . S
C559 C560 1.389 . S
C560 C559 1.389 . S
C560 C561 1.387 . S
C561 H546 0.930 1_556 S
C561 C556 1.390 . S
C561 C560 1.387 . S
H562 C574 0.930 . S
H563 C576 0.930 . S
H564 C577 0.930 . S
H565 C581 0.959 . S
H566 C581 0.959 . S
H567 C581 0.961 . S
H568 C582 0.960 . S
H569 C582 0.961 . S
H570 C582 0.959 . S
H571 C585 0.929 . S
H572 C586 0.931 . S
H573 C588 0.930 . S
C574 H562 0.930 . S
C574 C575 1.399 . S
C574 C579 1.399 . S
C575 C574 1.399 . S
C575 C576 1.376 . S
C576 H563 0.930 . S
C576 C575 1.376 . S
C576 C577 1.388 . S
C577 H564 0.930 . S
C577 C576 1.388 . S
C577 C578 1.390 . S
C578 C577 1.390 . S
C578 C579 1.394 . S
C578 C584 1.465 . S
C579 C574 1.399 . S
C579 C578 1.394 . S
C579 C580 1.516 . S
C580 C579 1.516 . S
C580 C581 1.502 . S
C580 C582 1.561 . S
C580 C583 1.526 . S
C581 H565 0.959 . S
C581 H566 0.959 . S
C581 H567 0.961 . S
C581 C580 1.502 . S
C582 H568 0.960 . S
C582 H569 0.961 . S
C582 H570 0.959 . S
C582 C580 1.561 . S
C583 C580 1.526 . S
C583 C584 1.396 . S
C583 C588 1.390 . S
C584 C578 1.465 . S
C584 C583 1.396 . S
C584 C585 1.399 . S
C585 H571 0.929 . S
C585 C584 1.399 . S
C585 C586 1.385 . S
C586 H572 0.931 . S
C586 C585 1.385 . S
C586 C587 1.389 . S
C587 C586 1.389 . S
C587 C588 1.387 . S
C588 H573 0.930 . S
C588 C583 1.390 . S
C588 C587 1.387 . S
H589 C601 0.930 . S
H590 C603 0.930 . S
H591 C604 0.930 . S
H592 C608 0.959 . S
H593 C608 0.959 . S
H594 C608 0.961 . S
H595 C609 0.960 . S
H596 C609 0.961 . S
H597 C609 0.959 . S
H598 C612 0.929 . S
H599 C613 0.931 . S
H600 C615 0.930 . S
C601 H589 0.930 . S
C601 C602 1.399 . S
C601 C606 1.399 . S
C602 C601 1.399 . S
C602 C603 1.376 . S
C603 H590 0.930 . S
C603 C602 1.376 . S
C603 C604 1.388 . S
C604 H591 0.930 . S
C604 C603 1.388 . S
C604 C605 1.390 . S
C605 C604 1.390 . S
C605 C606 1.394 . S
C605 C611 1.465 . S
C606 C601 1.399 . S
C606 C605 1.394 . S
C606 C607 1.516 . S
C607 C606 1.516 . S
C607 C608 1.502 . S
C607 C609 1.561 . S
C607 C610 1.526 . S
C608 H592 0.959 . S
C608 H593 0.959 . S
C608 H594 0.961 . S
C608 C607 1.502 . S
C609 H595 0.960 . S
C609 H596 0.961 . S
C609 H597 0.959 . S
C609 C607 1.561 . S
C610 C607 1.526 . S
C610 C611 1.396 . S
C610 C615 1.390 . S
C611 C605 1.465 . S
C611 C610 1.396 . S
C611 C612 1.399 . S
C612 H598 0.929 . S
C612 C611 1.399 . S
C612 C613 1.385 . S
C613 H599 0.931 . S
C613 C612 1.385 . S
C613 C614 1.389 . S
C614 C613 1.389 . S
C614 C615 1.387 . S
C615 H600 0.930 . S
C615 C610 1.390 . S
C615 C614 1.387 . S
H616 C628 0.930 . S
H617 C630 0.930 . S
H618 C631 0.930 . S
H619 C635 0.959 . S
H620 C635 0.959 1_565 S
H621 C635 0.961 . S
H622 C636 0.960 . S
H623 C636 0.961 1_565 S
H624 C636 0.959 . S
H625 C639 0.929 . S
H626 C640 0.931 . S
H627 C642 0.930 . S
C628 H616 0.930 . S
C628 C629 1.399 . S
C628 C633 1.399 . S
C629 C628 1.399 . S
C629 C630 1.376 . S
C630 H617 0.930 . S
C630 C629 1.376 . S
C630 C631 1.388 . S
C631 H618 0.930 . S
C631 C630 1.388 . S
C631 C632 1.390 . S
C632 C631 1.390 . S
C632 C633 1.394 . S
C632 C638 1.465 . S
C633 C628 1.399 . S
C633 C632 1.394 . S
C633 C634 1.516 . S
C634 C633 1.516 . S
C634 C635 1.502 . S
C634 C636 1.561 . S
C634 C637 1.526 . S
C635 H619 0.959 . S
C635 H620 0.959 1_545 S
C635 H621 0.961 . S
C635 C634 1.502 . S
C636 H622 0.960 . S
C636 H623 0.961 1_545 S
C636 H624 0.959 . S
C636 C634 1.561 . S
C637 C634 1.526 . S
C637 C638 1.396 . S
C637 C642 1.390 1_545 S
C638 C632 1.465 . S
C638 C637 1.396 . S
C638 C639 1.399 . S
C639 H625 0.929 . S
C639 C638 1.399 . S
C639 C640 1.385 . S
C640 H626 0.931 . S
C640 C639 1.385 . S
C640 C641 1.389 . S
C641 C640 1.389 . S
C641 C642 1.387 1_545 S
C642 H627 0.930 . S
C642 C637 1.390 1_565 S
C642 C641 1.387 1_565 S
H643 C655 0.930 . S
H644 C657 0.930 . S
H645 C658 0.930 . S
H646 C662 0.959 . S
H647 C662 0.959 . S
H648 C662 0.961 . S
H649 C663 0.960 . S
H650 C663 0.961 . S
H651 C663 0.959 . S
H652 C666 0.929 . S
H653 C667 0.931 . S
H654 C669 0.930 . S
C655 H643 0.930 . S
C655 C656 1.399 . S
C655 C660 1.399 . S
C656 C655 1.399 . S
C656 C657 1.376 . S
C657 H644 0.930 . S
C657 C656 1.376 . S
C657 C658 1.388 . S
C658 H645 0.930 . S
C658 C657 1.388 . S
C658 C659 1.390 . S
C659 C658 1.390 . S
C659 C660 1.394 . S
C659 C665 1.465 . S
C660 C655 1.399 . S
C660 C659 1.394 . S
C660 C661 1.516 . S
C661 C660 1.516 . S
C661 C662 1.502 . S
C661 C663 1.561 . S
C661 C664 1.526 . S
C662 H646 0.959 . S
C662 H647 0.959 . S
C662 H648 0.961 . S
C662 C661 1.502 . S
C663 H649 0.960 . S
C663 H650 0.961 . S
C663 H651 0.959 . S
C663 C661 1.561 . S
C664 C661 1.526 . S
C664 C665 1.396 . S
C664 C669 1.390 . S
C665 C659 1.465 . S
C665 C664 1.396 . S
C665 C666 1.399 . S
C666 H652 0.929 . S
C666 C665 1.399 . S
C666 C667 1.385 . S
C667 H653 0.931 . S
C667 C666 1.385 . S
C667 C668 1.389 . S
C668 C667 1.389 . S
C668 C669 1.387 . S
C669 H654 0.930 . S
C669 C664 1.390 . S
C669 C668 1.387 . S
H670 C682 0.922 1_556 S
H671 C684 0.930 . S
H672 C685 0.930 . S
H673 C689 0.959 1_554 S
H674 C689 0.959 . S
H675 C689 0.961 . S
H676 C690 0.960 . S
H677 C690 0.961 . S
H678 C690 0.959 . S
H679 C693 0.929 . S
H680 C694 0.931 . S
H681 C696 0.930 . S
C682 H670 0.922 1_554 S
C682 C683 1.399 . S
C682 C687 1.399 . S
C683 C682 1.399 . S
C683 C684 1.376 . S
C684 H671 0.930 . S
C684 C683 1.376 . S
C684 C685 1.388 . S
C685 H672 0.930 . S
C685 C684 1.388 . S
C685 C686 1.390 . S
C686 C685 1.390 . S
C686 C687 1.394 . S
C686 C692 1.431 1_565 S
C687 C682 1.399 . S
C687 C686 1.394 . S
C687 C688 1.516 1_554 S
C688 C687 1.516 1_556 S
C688 C689 1.502 . S
C688 C690 1.561 . S
C688 C691 1.526 . S
C689 H673 0.959 1_556 S
C689 H674 0.959 . S
C689 H675 0.961 . S
C689 C688 1.502 . S
C690 H676 0.960 . S
C690 H677 0.961 . S
C690 H678 0.959 . S
C690 C688 1.561 . S
C691 C688 1.526 . S
C691 C692 1.389 1_566 S
C691 C696 1.390 1_565 S
C692 C686 1.431 1_545 S
C692 C691 1.389 1_544 S
C692 C693 1.436 . S
C693 H679 0.929 . S
C693 C692 1.436 . S
C693 C694 1.385 . S
C694 H680 0.931 . S
C694 C693 1.385 . S
C694 C695 1.389 1_554 S
C695 C694 1.389 1_556 S
C695 C696 1.387 . S
C696 H681 0.930 . S
C696 C691 1.390 1_545 S
C696 C695 1.387 . S
H697 C709 0.930 . S
H698 C711 0.930 . S
H699 C712 0.930 . S
H700 C716 0.959 . S
H701 C716 0.959 . S
H702 C716 0.961 . S
H703 C717 0.960 . S
H704 C717 0.961 . S
H705 C717 0.959 . S
H706 C720 0.929 . S
H707 C721 0.931 . S
H708 C723 0.930 . S
C709 H697 0.930 . S
C709 C710 1.399 . S
C709 C714 1.399 . S
C710 C709 1.399 . S
C710 C711 1.376 . S
C711 H698 0.930 . S
C711 C710 1.376 . S
C711 C712 1.388 . S
C712 H699 0.930 . S
C712 C711 1.388 . S
C712 C713 1.390 . S
C713 C712 1.390 . S
C713 C714 1.394 . S
C713 C719 1.465 . S
C714 C709 1.399 . S
C714 C713 1.394 . S
C714 C715 1.516 . S
C715 C714 1.516 . S
C715 C716 1.502 . S
C715 C717 1.561 . S
C715 C718 1.526 . S
C716 H700 0.959 . S
C716 H701 0.959 . S
C716 H702 0.961 . S
C716 C715 1.502 . S
C717 H703 0.960 . S
C717 H704 0.961 . S
C717 H705 0.959 . S
C717 C715 1.561 . S
C718 C715 1.526 . S
C718 C719 1.396 . S
C718 C723 1.390 . S
C719 C713 1.465 . S
C719 C718 1.396 . S
C719 C720 1.399 . S
C720 H706 0.929 . S
C720 C719 1.399 . S
C720 C721 1.385 . S
C721 H707 0.931 . S
C721 C720 1.385 . S
C721 C722 1.389 . S
C722 C721 1.389 . S
C722 C723 1.387 . S
C723 H708 0.930 . S
C723 C718 1.390 . S
C723 C722 1.387 . S
H724 C736 0.930 . S
H725 C738 0.930 . S
H726 C739 0.930 . S
H727 C743 0.959 . S
H728 C743 0.959 . S
H729 C743 0.961 . S
H730 C744 0.960 . S
H731 C744 0.961 . S
H732 C744 0.959 . S
H733 C747 0.929 . S
H734 C748 0.931 . S
H735 C750 0.930 . S
C736 H724 0.930 . S
C736 C737 1.399 . S
C736 C741 1.399 . S
C737 C736 1.399 . S
C737 C738 1.376 . S
C738 H725 0.930 . S
C738 C737 1.376 . S
C738 C739 1.388 . S
C739 H726 0.930 . S
C739 C738 1.388 . S
C739 C740 1.390 . S
C740 C739 1.390 . S
C740 C741 1.394 . S
C740 C746 1.465 . S
C741 C736 1.399 . S
C741 C740 1.394 . S
C741 C742 1.516 . S
C742 C741 1.516 . S
C742 C743 1.502 . S
C742 C744 1.561 . S
C742 C745 1.526 . S
C743 H727 0.959 . S
C743 H728 0.959 . S
C743 H729 0.961 . S
C743 C742 1.502 . S
C744 H730 0.960 . S
C744 H731 0.961 . S
C744 H732 0.959 . S
C744 C742 1.561 . S
C745 C742 1.526 . S
C745 C746 1.396 . S
C745 C750 1.390 . S
C746 C740 1.465 . S
C746 C745 1.396 . S
C746 C747 1.399 . S
C747 H733 0.929 . S
C747 C746 1.399 . S
C747 C748 1.385 . S
C748 H734 0.931 . S
C748 C747 1.385 . S
C748 C749 1.389 . S
C749 C748 1.389 . S
C749 C750 1.387 . S
C750 H735 0.930 . S
C750 C745 1.390 . S
C750 C749 1.387 . S
H751 C763 0.930 . S
H752 C765 0.930 . S
H753 C766 0.930 . S
H754 C770 0.959 . S
H755 C770 0.959 . S
H756 C770 0.961 . S
H757 C771 0.960 1_455 S
H758 C771 0.961 . S
H759 C771 0.959 . S
H760 C774 0.929 . S
H761 C775 0.931 . S
H762 C777 0.930 . S
C763 H751 0.930 . S
C763 C764 1.399 . S
C763 C768 1.399 . S
C764 C763 1.399 . S
C764 C765 1.376 . S
C765 H752 0.930 . S
C765 C764 1.376 . S
C765 C766 1.388 . S
C766 H753 0.930 . S
C766 C765 1.388 . S
C766 C767 1.390 . S
C767 C766 1.390 . S
C767 C768 1.394 . S
C767 C773 1.465 1_455 S
C768 C763 1.399 . S
C768 C767 1.394 . S
C768 C769 1.516 1_455 S
C769 C768 1.516 1_655 S
C769 C770 1.502 . S
C769 C771 1.561 . S
C769 C772 1.526 . S
C770 H754 0.959 . S
C770 H755 0.959 . S
C770 H756 0.961 . S
C770 C769 1.502 . S
C771 H757 0.960 1_655 S
C771 H758 0.961 . S
C771 H759 0.959 . S
C771 C769 1.561 . S
C772 C769 1.526 . S
C772 C773 1.396 . S
C772 C777 1.390 . S
C773 C767 1.465 1_655 S
C773 C772 1.396 . S
C773 C774 1.399 . S
C774 H760 0.929 . S
C774 C773 1.399 . S
C774 C775 1.385 . S
C775 H761 0.931 . S
C775 C774 1.385 . S
C775 C776 1.389 . S
C776 C775 1.389 . S
C776 C777 1.387 . S
C777 H762 0.930 . S
C777 C772 1.390 . S
C777 C776 1.387 . S
H778 C790 0.930 . S
H779 C792 0.930 . S
H780 C793 0.930 . S
H781 C797 0.959 . S
H782 C797 0.959 . S
H783 C797 0.961 . S
H784 C798 0.960 . S
H785 C798 0.961 . S
H786 C798 0.959 . S
H787 C801 0.929 . S
H788 C802 0.931 . S
H789 C804 0.930 . S
C790 H778 0.930 . S
C790 C791 1.399 . S
C790 C795 1.399 . S
C791 C790 1.399 . S
C791 C792 1.376 . S
C792 H779 0.930 . S
C792 C791 1.376 . S
C792 C793 1.388 . S
C793 H780 0.930 . S
C793 C792 1.388 . S
C793 C794 1.390 . S
C794 C793 1.390 . S
C794 C795 1.394 . S
C794 C800 1.465 . S
C795 C790 1.399 . S
C795 C794 1.394 . S
C795 C796 1.516 . S
C796 C795 1.516 . S
C796 C797 1.502 . S
C796 C798 1.561 . S
C796 C799 1.526 . S
C797 H781 0.959 . S
C797 H782 0.959 . S
C797 H783 0.961 . S
C797 C796 1.502 . S
C798 H784 0.960 . S
C798 H785 0.961 . S
C798 H786 0.959 . S
C798 C796 1.561 . S
C799 C796 1.526 . S
C799 C800 1.396 . S
C799 C804 1.390 . S
C800 C794 1.465 . S
C800 C799 1.396 . S
C800 C801 1.399 . S
C801 H787 0.929 . S
C801 C800 1.399 . S
C801 C802 1.385 . S
C802 H788 0.931 . S
C802 C801 1.385 . S
C802 C803 1.389 . S
C803 C802 1.389 . S
C803 C804 1.387 . S
C804 H789 0.930 . S
C804 C799 1.390 . S
C804 C803 1.387 . S
H805 C817 0.930 . S
H806 C819 0.930 . S
H807 C820 0.930 . S
H808 C824 0.959 . S
H809 C824 0.959 . S
H810 C824 0.961 . S
H811 C825 0.960 . S
H812 C825 0.961 . S
H813 C825 0.959 . S
H814 C828 0.929 . S
H815 C829 0.931 . S
H816 C831 0.930 . S
C817 H805 0.930 . S
C817 C818 1.399 . S
C817 C822 1.399 . S
C818 C817 1.399 . S
C818 C819 1.376 . S
C819 H806 0.930 . S
C819 C818 1.376 . S
C819 C820 1.388 . S
C820 H807 0.930 . S
C820 C819 1.388 . S
C820 C821 1.390 . S
C821 C820 1.390 . S
C821 C822 1.394 . S
C821 C827 1.465 . S
C822 C817 1.399 . S
C822 C821 1.394 . S
C822 C823 1.516 . S
C823 C822 1.516 . S
C823 C824 1.502 . S
C823 C825 1.561 . S
C823 C826 1.526 . S
C824 H808 0.959 . S
C824 H809 0.959 . S
C824 H810 0.961 . S
C824 C823 1.502 . S
C825 H811 0.960 . S
C825 H812 0.961 . S
C825 H813 0.959 . S
C825 C823 1.561 . S
C826 C823 1.526 . S
C826 C827 1.396 . S
C826 C831 1.390 . S
C827 C821 1.465 . S
C827 C826 1.396 . S
C827 C828 1.399 . S
C828 H814 0.929 . S
C828 C827 1.399 . S
C828 C829 1.385 . S
C829 H815 0.931 . S
C829 C828 1.385 . S
C829 C830 1.389 . S
C830 C829 1.389 . S
C830 C831 1.387 . S
C831 H816 0.930 . S
C831 C826 1.390 . S
C831 C830 1.387 . S
H832 C844 0.930 . S
H833 C846 0.930 . S
H834 C847 0.930 . S
H835 C851 0.959 . S
H836 C851 0.959 . S
H837 C851 0.961 . S
H838 C852 0.960 . S
H839 C852 0.961 . S
H840 C852 0.959 . S
H841 C855 0.929 . S
H842 C856 0.931 . S
H843 C858 0.930 . S
C844 H832 0.930 . S
C844 C845 1.399 . S
C844 C849 1.399 . S
C845 C844 1.399 . S
C845 C846 1.376 . S
C846 H833 0.930 . S
C846 C845 1.376 . S
C846 C847 1.388 . S
C847 H834 0.930 . S
C847 C846 1.388 . S
C847 C848 1.390 . S
C848 C847 1.390 . S
C848 C849 1.394 . S
C848 C854 1.465 . S
C849 C844 1.399 . S
C849 C848 1.394 . S
C849 C850 1.516 . S
C850 C849 1.516 . S
C850 C851 1.502 . S
C850 C852 1.561 . S
C850 C853 1.526 . S
C851 H835 0.959 . S
C851 H836 0.959 . S
C851 H837 0.961 . S
C851 C850 1.502 . S
C852 H838 0.960 . S
C852 H839 0.961 . S
C852 H840 0.959 . S
C852 C850 1.561 . S
C853 C850 1.526 . S
C853 C854 1.396 . S
C853 C858 1.390 . S
C854 C848 1.465 . S
C854 C853 1.396 . S
C854 C855 1.399 . S
C855 H841 0.929 . S
C855 C854 1.399 . S
C855 C856 1.385 . S
C856 H842 0.931 . S
C856 C855 1.385 . S
C856 C857 1.389 . S
C857 C856 1.389 . S
C857 C858 1.387 . S
C858 H843 0.930 . S
C858 C853 1.390 . S
C858 C857 1.387 . S
H859 C871 0.930 . S
H860 C873 0.930 . S
H861 C874 0.930 . S
H862 C878 0.959 . S
H863 C878 0.959 . S
H864 C878 0.961 . S
H865 C879 0.960 . S
H866 C879 0.961 . S
H867 C879 0.959 . S
H868 C882 0.929 . S
H869 C883 0.931 . S
H870 C885 0.930 . S
C871 H859 0.930 . S
C871 C872 1.399 . S
C871 C876 1.399 . S
C872 C871 1.399 . S
C872 C873 1.376 . S
C873 H860 0.930 . S
C873 C872 1.376 . S
C873 C874 1.388 . S
C874 H861 0.930 . S
C874 C873 1.388 . S
C874 C875 1.390 . S
C875 C874 1.390 . S
C875 C876 1.394 . S
C875 C881 1.465 . S
C876 C871 1.399 . S
C876 C875 1.394 . S
C876 C877 1.516 . S
C877 C876 1.516 . S
C877 C878 1.502 . S
C877 C879 1.561 . S
C877 C880 1.526 . S
C878 H862 0.959 . S
C878 H863 0.959 . S
C878 H864 0.961 . S
C878 C877 1.502 . S
C879 H865 0.960 . S
C879 H866 0.961 . S
C879 H867 0.959 . S
C879 C877 1.561 . S
C880 C877 1.526 . S
C880 C881 1.396 . S
C880 C885 1.390 . S
C881 C875 1.465 . S
C881 C880 1.396 . S
C881 C882 1.399 . S
C882 H868 0.929 . S
C882 C881 1.399 . S
C882 C883 1.385 . S
C883 H869 0.931 . S
C883 C882 1.385 . S
C883 C884 1.389 . S
C884 C883 1.389 . S
C884 C885 1.387 . S
C885 H870 0.930 . S
C885 C880 1.390 . S
C885 C884 1.387 . S
H886 C898 0.930 . S
H887 C900 0.930 . S
H888 C901 0.930 . S
H889 C905 0.959 . S
H890 C905 0.959 . S
H891 C905 0.961 . S
H892 C906 0.960 . S
H893 C906 0.961 . S
H894 C906 0.959 . S
H895 C909 0.929 . S
H896 C910 0.931 . S
H897 C912 0.930 . S
C898 H886 0.930 . S
C898 C899 1.399 . S
C898 C903 1.399 . S
C899 C898 1.399 . S
C899 C900 1.376 . S
C900 H887 0.930 . S
C900 C899 1.376 . S
C900 C901 1.388 . S
C901 H888 0.930 . S
C901 C900 1.388 . S
C901 C902 1.390 . S
C902 C901 1.390 . S
C902 C903 1.394 . S
C902 C908 1.465 . S
C903 C898 1.399 . S
C903 C902 1.394 . S
C903 C904 1.516 . S
C904 C903 1.516 . S
C904 C905 1.502 . S
C904 C906 1.561 . S
C904 C907 1.526 . S
C905 H889 0.959 . S
C905 H890 0.959 . S
C905 H891 0.961 . S
C905 C904 1.502 . S
C906 H892 0.960 . S
C906 H893 0.961 . S
C906 H894 0.959 . S
C906 C904 1.561 . S
C907 C904 1.526 . S
C907 C908 1.396 . S
C907 C912 1.390 . S
C908 C902 1.465 . S
C908 C907 1.396 . S
C908 C909 1.399 . S
C909 H895 0.929 . S
C909 C908 1.399 . S
C909 C910 1.385 . S
C910 H896 0.931 . S
C910 C909 1.385 . S
C910 C911 1.389 . S
C911 C910 1.389 . S
C911 C912 1.387 . S
C912 H897 0.930 . S
C912 C907 1.390 . S
C912 C911 1.387 . S
H913 C925 0.930 . S
H914 C927 0.930 . S
H915 C928 0.930 . S
H916 C932 0.959 . S
H917 C932 0.959 . S
H918 C932 0.961 . S
H919 C933 0.960 . S
H920 C933 0.961 . S
H921 C933 0.959 . S
H922 C936 0.929 . S
H923 C937 0.931 . S
H924 C939 0.930 . S
C925 H913 0.930 . S
C925 C926 1.399 . S
C925 C930 1.399 . S
C926 C925 1.399 . S
C926 C927 1.376 . S
C927 H914 0.930 . S
C927 C926 1.376 . S
C927 C928 1.388 . S
C928 H915 0.930 . S
C928 C927 1.388 . S
C928 C929 1.390 . S
C929 C928 1.390 . S
C929 C930 1.394 . S
C929 C935 1.465 . S
C930 C925 1.399 . S
C930 C929 1.394 . S
C930 C931 1.516 . S
C931 C930 1.516 . S
C931 C932 1.502 . S
C931 C933 1.561 . S
C931 C934 1.526 . S
C932 H916 0.959 . S
C932 H917 0.959 . S
C932 H918 0.961 . S
C932 C931 1.502 . S
C933 H919 0.960 . S
C933 H920 0.961 . S
C933 H921 0.959 . S
C933 C931 1.561 . S
C934 C931 1.526 . S
C934 C935 1.396 . S
C934 C939 1.390 . S
C935 C929 1.465 . S
C935 C934 1.396 . S
C935 C936 1.399 . S
C936 H922 0.929 . S
C936 C935 1.399 . S
C936 C937 1.385 . S
C937 H923 0.931 . S
C937 C936 1.385 . S
C937 C938 1.389 . S
C938 C937 1.389 . S
C938 C939 1.387 . S
C939 H924 0.930 . S
C939 C934 1.390 . S
C939 C938 1.387 . S
H940 C952 0.930 . S
H941 C954 0.930 . S
H942 C955 0.930 . S
H943 C959 0.959 . S
H944 C959 0.959 . S
H945 C959 0.961 . S
H946 C960 0.960 . S
H947 C960 0.961 . S
H948 C960 0.959 . S
H949 C963 0.929 . S
H950 C964 0.931 . S
H951 C966 0.930 . S
C952 H940 0.930 . S
C952 C953 1.399 . S
C952 C957 1.399 . S
C953 C952 1.399 . S
C953 C954 1.376 . S
C954 H941 0.930 . S
C954 C953 1.376 . S
C954 C955 1.388 . S
C955 H942 0.930 . S
C955 C954 1.388 . S
C955 C956 1.390 . S
C956 C955 1.390 . S
C956 C957 1.394 . S
C956 C962 1.465 . S
C957 C952 1.399 . S
C957 C956 1.394 . S
C957 C958 1.516 . S
C958 C957 1.516 . S
C958 C959 1.502 . S
C958 C960 1.561 . S
C958 C961 1.526 . S
C959 H943 0.959 . S
C959 H944 0.959 . S
C959 H945 0.961 . S
C959 C958 1.502 . S
C960 H946 0.960 . S
C960 H947 0.961 . S
C960 H948 0.959 . S
C960 C958 1.561 . S
C961 C958 1.526 . S
C961 C962 1.396 . S
C961 C966 1.390 . S
C962 C956 1.465 . S
C962 C961 1.396 . S
C962 C963 1.399 . S
C963 H949 0.929 . S
C963 C962 1.399 . S
C963 C964 1.385 . S
C964 H950 0.931 . S
C964 C963 1.385 . S
C964 C965 1.389 . S
C965 C964 1.389 . S
C965 C966 1.387 . S
C966 H951 0.930 . S
C966 C961 1.390 . S
C966 C965 1.387 . S
H967 C979 0.930 . S
H968 C981 0.930 . S
H969 C982 0.930 . S
H970 C986 0.959 . S
H971 C986 0.959 . S
H972 C986 0.961 . S
H973 C987 0.960 . S
H974 C987 0.961 . S
H975 C987 0.959 . S
H976 C990 0.929 . S
H977 C991 0.931 . S
H978 C993 0.930 . S
C979 H967 0.930 . S
C979 C980 1.399 . S
C979 C984 1.399 . S
C980 C979 1.399 . S
C980 C981 1.376 . S
C981 H968 0.930 . S
C981 C980 1.376 . S
C981 C982 1.388 . S
C982 H969 0.930 . S
C982 C981 1.388 . S
C982 C983 1.390 . S
C983 C982 1.390 . S
C983 C984 1.394 . S
C983 C989 1.465 . S
C984 C979 1.399 . S
C984 C983 1.394 . S
C984 C985 1.516 . S
C985 C984 1.516 . S
C985 C986 1.502 . S
C985 C987 1.561 . S
C985 C988 1.526 . S
C986 H970 0.959 . S
C986 H971 0.959 . S
C986 H972 0.961 . S
C986 C985 1.502 . S
C987 H973 0.960 . S
C987 H974 0.961 . S
C987 H975 0.959 . S
C987 C985 1.561 . S
C988 C985 1.526 . S
C988 C989 1.396 . S
C988 C993 1.390 . S
C989 C983 1.465 . S
C989 C988 1.396 . S
C989 C990 1.399 . S
C990 H976 0.929 . S
C990 C989 1.399 . S
C990 C991 1.385 . S
C991 H977 0.931 . S
C991 C990 1.385 . S
C991 C992 1.389 . S
C992 C991 1.389 . S
C992 C993 1.387 . S
C993 H978 0.930 . S
C993 C988 1.390 . S
C993 C992 1.387 . S
H994 C1006 0.930 . S
H995 C1008 0.930 . S
H996 C1009 0.930 . S
H997 C1013 0.959 . S
H998 C1013 0.959 . S
H999 C1013 0.961 . S
H1000 C1014 0.960 . S
H1001 C1014 0.961 . S
H1002 C1014 0.959 . S
H1003 C1017 0.929 . S
H1004 C1018 0.931 . S
H1005 C1020 0.930 . S
C1006 H994 0.930 . S
C1006 C1007 1.399 . S
C1006 C1011 1.399 . S
C1007 C1006 1.399 . S
C1007 C1008 1.376 . S
C1008 H995 0.930 . S
C1008 C1007 1.376 . S
C1008 C1009 1.388 . S
C1009 H996 0.930 . S
C1009 C1008 1.388 . S
C1009 C1010 1.390 . S
C1010 C1009 1.390 . S
C1010 C1011 1.394 . S
C1010 C1016 1.465 . S
C1011 C1006 1.399 . S
C1011 C1010 1.394 . S
C1011 C1012 1.516 . S
C1012 C1011 1.516 . S
C1012 C1013 1.502 . S
C1012 C1014 1.561 . S
C1012 C1015 1.526 . S
C1013 H997 0.959 . S
C1013 H998 0.959 . S
C1013 H999 0.961 . S
C1013 C1012 1.502 . S
C1014 H1000 0.960 . S
C1014 H1001 0.961 . S
C1014 H1002 0.959 . S
C1014 C1012 1.561 . S
C1015 C1012 1.526 . S
C1015 C1016 1.396 . S
C1015 C1020 1.390 . S
C1016 C1010 1.465 . S
C1016 C1015 1.396 . S
C1016 C1017 1.399 . S
C1017 H1003 0.929 . S
C1017 C1016 1.399 . S
C1017 C1018 1.385 . S
C1018 H1004 0.931 . S
C1018 C1017 1.385 . S
C1018 C1019 1.389 . S
C1019 C1018 1.389 . S
C1019 C1020 1.387 . S
C1020 H1005 0.930 . S
C1020 C1015 1.390 . S
C1020 C1019 1.387 . S
H1021 C1033 0.930 . S
H1022 C1035 0.930 . S
H1023 C1036 0.930 . S
H1024 C1040 0.959 . S
H1025 C1040 0.959 . S
H1026 C1040 0.961 . S
H1027 C1041 0.960 . S
H1028 C1041 0.961 . S
H1029 C1041 0.959 . S
H1030 C1044 0.929 . S
H1031 C1045 0.924 1_554 S
H1032 C1047 0.930 . S
C1033 H1021 0.930 . S
C1033 C1034 1.399 1_556 S
C1033 C1038 1.399 . S
C1034 C1033 1.399 1_554 S
C1034 C1035 1.376 . S
C1035 H1022 0.930 . S
C1035 C1034 1.376 . S
C1035 C1036 1.388 . S
C1036 H1023 0.930 . S
C1036 C1035 1.388 . S
C1036 C1037 1.390 . S
C1037 C1036 1.390 . S
C1037 C1038 1.394 1_554 S
C1037 C1043 1.465 . S
C1038 C1033 1.399 . S
C1038 C1037 1.394 1_556 S
C1038 C1039 1.516 . S
C1039 C1038 1.516 . S
C1039 C1040 1.502 . S
C1039 C1041 1.561 . S
C1039 C1042 1.526 . S
C1040 H1024 0.959 . S
C1040 H1025 0.959 . S
C1040 H1026 0.961 . S
C1040 C1039 1.502 . S
C1041 H1027 0.960 . S
C1041 H1028 0.961 . S
C1041 H1029 0.959 . S
C1041 C1039 1.561 . S
C1042 C1039 1.526 . S
C1042 C1043 1.396 1_556 S
C1042 C1047 1.390 . S
C1043 C1037 1.465 . S
C1043 C1042 1.396 1_554 S
C1043 C1044 1.399 . S
C1044 H1030 0.929 . S
C1044 C1043 1.399 . S
C1044 C1045 1.377 1_554 S
C1045 H1031 0.924 1_556 S
C1045 C1044 1.377 1_556 S
C1045 C1046 1.404 . S
C1046 C1045 1.404 . S
C1046 C1047 1.387 . S
C1047 H1032 0.930 . S
C1047 C1042 1.390 . S
C1047 C1046 1.387 . S
C413 C7 1.581 . S
C425 C104 1.540 1_565 S
C440 C37 1.530 . S
C452 C143 1.465 . S
C467 C54 1.694 . S
C479 C182 1.611 . S
C506 C206 1.464 . S
C494 C87 1.471 . S
C533 C245 1.499 . S
C521 C30 1.523 . S
C548 C51 1.536 . S
C560 C284 1.465 . S
C575 C84 1.777 . S
C587 C338 1.627 . S
C602 C10 1.476 1_556 S
C614 C362 1.424 . S
C629 C59 1.602 . S
C641 C377 1.566 1_545 S
C668 C260 1.377 . S
C656 C74 1.486 . S
C695 C299 1.603 . S
C683 C18 1.756 . S
C710 C32 1.483 . S
C722 C323 1.492 . S
C749 C128 1.510 . S
C737 C73 1.581 . S
C764 C15 1.536 . S
C776 C167 1.487 . S
C803 C221 1.672 . S
C791 C43 1.792 . S
C830 C89 1.397 . S
C818 C62 1.489 . S
C857 C343 1.554 . S
C845 C21 1.568 . S
C884 C382 1.369 . S
C872 C29 1.326 . S
C899 C52 1.306 . S
C911 C265 1.325 . S
C938 C304 1.537 . S
C926 C81 1.552 . S
C965 C187 1.494 . S
C953 C40 1.524 . S
C980 C65 1.557 . S
C992 C226 1.483 . S
C1019 C109 1.293 . S
C1007 C76 1.337 . S
C1046 C148 1.361 . S
C1034 C8 1.351 . S
