# Generated by pormake.
# Topology zzz, (3,6)-cn, num edge types: 1
# Building blocks:
#     Node 0, Type 0, BuildingBlock: KAKCAD_clean_linker_0, # of connection points: 3
#     Node 1, Type 0, BuildingBlock: KAKCAD_clean_linker_0, # of connection points: 3
#     Node 2, Type 0, BuildingBlock: KAKCAD_clean_linker_0, # of connection points: 3
#     Node 3, Type 0, BuildingBlock: KAKCAD_clean_linker_0, # of connection points: 3
#     Node 4, Type 0, BuildingBlock: KAKCAD_clean_linker_0, # of connection points: 3
#     Node 5, Type 0, BuildingBlock: KAKCAD_clean_linker_0, # of connection points: 3
#     Node 6, Type 0, BuildingBlock: KAKCAD_clean_linker_0, # of connection points: 3
#     Node 7, Type 0, BuildingBlock: KAKCAD_clean_linker_0, # of connection points: 3
#     Node 8, Type 1, BuildingBlock: NUHQIS_clean_sbu_0, # of connection points: 6
#     Node 9, Type 1, BuildingBlock: NUHQIS_clean_sbu_0, # of connection points: 6
#     Node 10, Type 1, BuildingBlock: NUHQIS_clean_sbu_0, # of connection points: 6
#     Node 11, Type 1, BuildingBlock: NUHQIS_clean_sbu_0, # of connection points: 6
#     Edge 12, Type (0, 1), BuildingBlock: OJICUG_clean_linker_0, # of connection points: 2
#     Edge 13, Type (0, 1), BuildingBlock: OJICUG_clean_linker_0, # of connection points: 2
#     Edge 14, Type (0, 1), BuildingBlock: OJICUG_clean_linker_0, # of connection points: 2
#     Edge 15, Type (0, 1), BuildingBlock: OJICUG_clean_linker_0, # of connection points: 2
#     Edge 16, Type (0, 1), BuildingBlock: OJICUG_clean_linker_0, # of connection points: 2
#     Edge 17, Type (0, 1), BuildingBlock: OJICUG_clean_linker_0, # of connection points: 2
#     Edge 18, Type (0, 1), BuildingBlock: OJICUG_clean_linker_0, # of connection points: 2
#     Edge 19, Type (0, 1), BuildingBlock: OJICUG_clean_linker_0, # of connection points: 2
#     Edge 20, Type (0, 1), BuildingBlock: OJICUG_clean_linker_0, # of connection points: 2
#     Edge 21, Type (0, 1), BuildingBlock: OJICUG_clean_linker_0, # of connection points: 2
#     Edge 22, Type (0, 1), BuildingBlock: OJICUG_clean_linker_0, # of connection points: 2
#     Edge 23, Type (0, 1), BuildingBlock: OJICUG_clean_linker_0, # of connection points: 2
#     Edge 24, Type (0, 1), BuildingBlock: OJICUG_clean_linker_0, # of connection points: 2
#     Edge 25, Type (0, 1), BuildingBlock: OJICUG_clean_linker_0, # of connection points: 2
#     Edge 26, Type (0, 1), BuildingBlock: OJICUG_clean_linker_0, # of connection points: 2
#     Edge 27, Type (0, 1), BuildingBlock: OJICUG_clean_linker_0, # of connection points: 2
#     Edge 28, Type (0, 1), BuildingBlock: OJICUG_clean_linker_0, # of connection points: 2
#     Edge 29, Type (0, 1), BuildingBlock: OJICUG_clean_linker_0, # of connection points: 2
#     Edge 30, Type (0, 1), BuildingBlock: OJICUG_clean_linker_0, # of connection points: 2
#     Edge 31, Type (0, 1), BuildingBlock: OJICUG_clean_linker_0, # of connection points: 2
#     Edge 32, Type (0, 1), BuildingBlock: OJICUG_clean_linker_0, # of connection points: 2
#     Edge 33, Type (0, 1), BuildingBlock: OJICUG_clean_linker_0, # of connection points: 2
#     Edge 34, Type (0, 1), BuildingBlock: OJICUG_clean_linker_0, # of connection points: 2
#     Edge 35, Type (0, 1), BuildingBlock: OJICUG_clean_linker_0, # of connection points: 2
# Relax obj value: 0.472
# Max RMSD: 0.250
# Mean RMSD: 0.233
data_MOF--net-zzz--node1-NUHQIS_clean_sbu_0--node2-KAKCAD_clean_linker_0--edge1-OJICUG_clean_linker_0
_symmetry_space_group_name_H-M    P1
_symmetry_Int_Tables_number       1
_symmetry_cell_setting            triclinic
loop_
_symmetry_equiv_pos_as_xyz
'x, y, z'
_cell_length_a     45.252715
_cell_length_b     45.477509
_cell_length_c     14.932787
_cell_angle_alpha  89.490669
_cell_angle_beta   89.817872
_cell_angle_gamma 90.091747
loop_
_atom_site_label
_atom_site_type_symbol
_atom_site_fract_x
_atom_site_fract_y
_atom_site_fract_z
_atom_type_partial_charge
C0 C 0.80658 0.41044 0.1204 0.0
C1 C 0.82434 0.391 0.17056 0.0
C2 C 0.78398 0.42613 0.16187 0.0
C3 C 0.77887 0.4227 0.25408 0.0
C4 C 0.79329 0.3999 0.30054 0.0
C5 C 0.8158 0.38402 0.25888 0.0
C6 C 0.76524 0.44725 0.30379 0.0
C7 C 0.73948 0.4609 0.2733 0.0
C8 C 0.73035 0.48805 0.30814 0.0
C9 C 0.74773 0.50183 0.37462 0.0
C10 C 0.77322 0.48754 0.40843 0.0
C11 C 0.78143 0.46036 0.37238 0.0
C12 C 0.79365 0.50063 0.47576 0.0
C13 C 0.80718 0.52803 0.46046 0.0
C14 C 0.80469 0.48264 0.54509 0.0
C15 C 0.83033 0.4903 0.59145 0.0
C16 C 0.84558 0.5166 0.57149 0.0
C17 C 0.70316 0.50144 0.2696 0.0
C18 C 0.70444 0.52755 0.21883 0.0
C19 C 0.677 0.48481 0.26847 0.0
C20 C 0.65326 0.49299 0.21406 0.0
C21 C 0.65506 0.51806 0.1583 0.0
C22 C 0.68066 0.53576 0.16357 0.0
C23 C 0.83271 0.53602 0.50817 0.0
H24 H 0.81231 0.41639 0.05215 0.0
H25 H 0.77316 0.44348 0.1242 0.0
H26 H 0.78927 0.39644 0.37142 0.0
H27 H 0.82846 0.3685 0.29854 0.0
H28 H 0.72713 0.4509 0.21934 0.0
H29 H 0.80205 0.45034 0.39334 0.0
H30 H 0.74132 0.52309 0.40035 0.0
H31 H 0.79932 0.54236 0.40736 0.0
H32 H 0.79473 0.46137 0.55872 0.0
H33 H 0.83912 0.4744 0.63857 0.0
H34 H 0.7245 0.54058 0.21743 0.0
H35 H 0.67573 0.46439 0.30584 0.0
H36 H 0.843 0.55693 0.49241 0.0
H37 H 0.68273 0.55546 0.12276 0.0
H38 H 0.63425 0.47854 0.2117 0.0
C39 C 0.13041 0.7992 0.13666 0.0
C40 C 0.14888 0.81705 0.18904 0.0
C41 C 0.11363 0.77688 0.17653 0.0
C42 C 0.11493 0.77213 0.26943 0.0
C43 C 0.13686 0.78662 0.31887 0.0
C44 C 0.15384 0.80885 0.27882 0.0
C45 C 0.08889 0.75908 0.31539 0.0
C46 C 0.075 0.73391 0.28223 0.0
C47 C 0.04625 0.72621 0.30976 0.0
C48 C 0.03118 0.74428 0.37182 0.0
C49 C 0.04567 0.76897 0.40868 0.0
C50 C 0.07447 0.77572 0.38072 0.0
C51 C 0.03129 0.79044 0.46956 0.0
C52 C 1.01287 0.81241 0.43382 0.0
C53 C 0.04275 0.7943 0.55605 0.0
C54 C 0.03743 0.82026 0.60351 0.0
C55 C 1.02081 0.84333 0.5653 0.0
C56 C 0.0323 0.70049 0.26567 0.0
C57 C 1.0127 0.70479 0.19406 0.0
C58 C 0.04375 0.67219 0.28083 0.0
C59 C 0.03696 0.64895 0.22313 0.0
C60 C 1.01895 0.65365 0.14768 0.0
C61 C 1.00616 0.68166 0.13559 0.0
C62 C 1.00764 0.83851 0.4811 0.0
H63 H 0.126 0.80461 0.06724 0.0
H64 H 0.09701 0.76604 0.13645 0.0
H65 H 0.13872 0.7829 0.39039 0.0
H66 H 0.16863 0.82153 0.32037 0.0
H67 H 0.08597 0.72112 0.23096 0.0
H68 H 0.08471 0.79575 0.40472 0.0
H69 H 1.0086 0.73926 0.39086 0.0
H70 H 1.0045 0.81045 0.36624 0.0
H71 H 0.05754 0.77803 0.58447 0.0
H72 H 0.04745 0.82272 0.66876 0.0
H73 H 1.00407 0.72653 0.1797 0.0
H74 H 0.05939 0.66856 0.33443 0.0
H75 H 0.99493 0.85569 0.44871 0.0
H76 H 0.99202 0.68602 0.07863 0.0
H77 H 0.04746 0.62785 0.23418 0.0
C78 C 0.74568 0.11258 0.07062 0.0
C79 C 0.73243 0.13864 0.1019 0.0
C80 C 0.76523 0.09676 0.12434 0.0
C81 C 0.77164 0.10627 0.21102 0.0
C82 C 0.76107 0.13363 0.23931 0.0
C83 C 0.74212 0.15 0.18441 0.0
C84 C 0.78464 0.0852 0.27533 0.0
C85 C 0.81124 0.07115 0.25592 0.0
C86 C 0.82105 0.0473 0.30812 0.0
C87 C 0.8033 0.0369 0.37996 0.0
C88 C 0.77658 0.05151 0.40131 0.0
C89 C 0.76786 0.07579 0.34895 0.0
C90 C 0.75561 0.04103 0.47203 0.0
C91 C 0.7432 1.01275 0.46806 0.0
C92 C 0.74323 0.0614 0.53179 0.0
C93 C 0.71763 0.05458 0.5807 0.0
C94 C 0.70361 0.02715 0.57119 0.0
C95 C 0.84997 0.03432 0.28332 0.0
C96 C 0.85137 1.00866 0.23168 0.0
C97 C 0.87524 0.05208 0.28955 0.0
C98 C 0.90058 0.04583 0.23955 0.0
C99 C 0.9012 0.02169 0.18141 0.0
C100 C 0.87689 1.0023 0.18135 0.0
C101 C 0.71748 1.00589 0.51705 0.0
H102 H 0.73903 0.10261 1.00838 0.0
H103 H 0.77309 0.07563 0.10127 0.0
H104 H 0.76614 0.14152 0.30577 0.0
H105 H 0.73353 0.17051 0.2097 0.0
H106 H 0.82409 0.0784 0.19832 0.0
H107 H 0.7467 0.08617 0.36165 0.0
H108 H 0.81032 1.01801 0.41914 0.0
H109 H 0.75205 0.99668 0.42213 0.0
H110 H 0.75226 0.08342 0.53607 0.0
H111 H 0.70774 0.07163 0.62102 0.0
H112 H 0.83193 0.995 0.22402 0.0
H113 H 0.87433 0.07232 0.32694 0.0
H114 H 0.70772 0.98431 0.50933 0.0
H115 H 0.87661 0.98367 0.13669 0.0
H116 H 0.91896 0.0611 0.24147 0.0
C117 C 0.47862 0.71084 0.57428 0.0
C118 C 0.5074 0.69943 0.56696 0.0
C119 C 0.46989 0.73515 0.52276 0.0
C120 C 0.48955 0.74871 0.46181 0.0
C121 C 0.51896 0.73888 0.45948 0.0
C122 C 0.52779 0.71456 0.51149 0.0
C123 C 0.47794 0.76918 0.39144 0.0
C124 C 0.49319 0.79488 0.36329 0.0
C125 C 0.48198 0.81221 0.29212 0.0
C126 C 0.45634 0.80318 0.24753 0.0
C127 C 0.44178 0.77726 0.27231 0.0
C128 C 0.45217 0.76089 0.34552 0.0
C129 C 0.41973 0.76396 0.21195 0.0
C130 C 0.39363 0.75137 0.24583 0.0
C131 C 0.42757 0.75907 0.12248 0.0
C132 C 0.41192 0.73886 0.07151 0.0
C133 C 0.38775 0.7233 0.10857 0.0
C134 C 0.49699 0.83899 0.25749 0.0
C135 C 0.48188 0.86586 0.25986 0.0
C136 C 0.52232 0.83668 0.20356 0.0
C137 C 0.53118 0.86033 0.14853 0.0
C138 C 0.51487 0.88673 0.14667 0.0
C139 C 0.49076 0.88952 0.20574 0.0
C140 C 0.37742 0.73164 0.19389 0.0
H141 H 0.46215 0.69994 0.61555 0.0
H142 H 0.44712 0.74236 0.52691 0.0
H143 H 0.53466 0.74874 0.41324 0.0
H144 H 0.55035 0.70694 0.50548 0.0
H145 H 0.51343 0.80136 0.39631 0.0
H146 H 0.44149 0.74017 0.36207 0.0
H147 H 0.4485 0.81566 0.19008 0.0
H148 H 0.38688 0.75528 0.31437 0.0
H149 H 0.44765 0.76849 0.09469 0.0
H150 H 0.42097 0.73343 1.00664 0.0
H151 H 0.4619 0.86779 0.29907 0.0
H152 H 0.53399 0.81596 0.19916 0.0
H153 H 0.35819 0.72124 0.22365 0.0
H154 H 0.4774 0.90925 0.20576 0.0
H155 H 0.55008 0.85751 0.10479 0.0
C156 C 0.24489 0.66003 0.27805 0.0
C157 C 0.23487 0.65139 0.36387 0.0
C158 C 0.26417 0.64205 0.22979 0.0
C159 C 0.27462 0.61574 0.26779 0.0
C160 C 0.26807 0.60928 0.35754 0.0
C161 C 0.24828 0.62675 0.40491 0.0
C162 C 0.28711 0.59236 0.21103 0.0
C163 C 0.31271 0.57745 0.23657 0.0
C164 C 0.32159 0.55173 0.19266 0.0
C165 C 0.30389 0.54044 0.12277 0.0
C166 C 0.27829 0.55591 0.09485 0.0
C167 C 0.27051 0.58191 0.13919 0.0
C168 C 0.25749 0.54497 0.02509 0.0
C169 C 0.24673 0.56464 0.95961 0.0
C170 C 0.24374 0.5174 0.03431 0.0
C171 C 0.21835 0.51068 0.98432 0.0
C172 C 0.20608 0.5314 0.92401 0.0
C173 C 0.34949 0.53779 0.22365 0.0
C174 C 0.37568 0.55425 0.2176 0.0
C175 C 0.34905 0.51253 0.27865 0.0
C176 C 0.37373 0.50532 0.33173 0.0
C177 C 0.39898 0.52346 0.33102 0.0
C178 C 0.4001 0.54728 0.27067 0.0
C179 C 0.22141 0.558 0.90995 0.0
H180 H 0.23617 0.67945 0.2452 0.0
H181 H 0.26937 0.64767 0.16086 0.0
H182 H 0.27583 0.58906 0.3883 0.0
H183 H 0.24144 0.61891 0.47035 0.0
H184 H 0.32545 0.58553 0.29271 0.0
H185 H 0.25008 0.59301 0.1218 0.0
H186 H 0.31016 0.52024 0.08989 0.0
H187 H 0.25682 0.58611 0.95101 0.0
H188 H 0.25133 0.50186 0.08457 0.0
H189 H 0.20764 0.48967 0.99574 0.0
H190 H 0.37628 0.57402 0.1771 0.0
H191 H 0.32891 0.49984 0.28615 0.0
H192 H 0.21283 0.57468 0.86493 0.0
H193 H 0.41922 0.56165 0.26878 0.0
H194 H 0.37219 0.487 0.37836 0.0
C195 C 0.88182 0.23798 0.2997 0.0
C196 C 0.89069 0.22875 0.38596 0.0
C197 C 0.89968 0.25699 0.24894 0.0
C198 C 0.926 0.26804 0.28491 0.0
C199 C 0.93255 0.26239 0.37503 0.0
C200 C 0.91525 0.24283 0.42487 0.0
C201 C 0.94941 0.28025 0.22618 0.0
C202 C 0.96426 0.306 0.24935 0.0
C203 C 0.9905 0.31433 0.20564 0.0
C204 C 1.00223 0.2961 0.13773 0.0
C205 C 0.98672 0.27046 0.11146 0.0
C206 C 0.96028 0.26312 0.15605 0.0
C207 C 0.99805 0.24929 0.04328 0.0
C208 C 0.97852 0.23775 0.97927 0.0
C209 C 0.02615 0.23647 0.05154 0.0
C210 C 0.03366 0.21143 1.00156 0.0
C211 C 1.01324 0.19858 0.94201 0.0
C212 C 1.00524 0.34151 0.23762 0.0
C213 C 0.99042 0.36849 0.22918 0.0
C214 C 0.0296 0.33968 0.29538 0.0
C215 C 0.03778 0.36387 0.34787 0.0
C216 C 1.02165 0.3904 0.34412 0.0
C217 C 0.9985 0.39262 0.28145 0.0
C218 C 0.98594 0.21282 0.92962 0.0
H219 H 0.8624 0.22876 0.26844 0.0
H220 H 0.89397 0.26151 0.17977 0.0
H221 H 0.95278 0.27065 0.40429 0.0
H222 H 0.92323 0.23666 0.49057 0.0
H223 H 0.95595 0.31905 0.30445 0.0
H224 H 0.94918 0.24263 0.14055 0.0
H225 H 1.02292 0.30191 0.10541 0.0
H226 H 0.95666 0.24709 0.97121 0.0
H227 H 0.04163 0.24463 0.10063 0.0
H228 H 0.05516 0.20158 1.01189 0.0
H229 H 0.97125 0.37028 0.18627 0.0
H230 H 0.04105 0.31897 0.30446 0.0
H231 H 0.96941 0.20376 0.88542 0.0
H232 H 0.98524 0.41236 0.27659 0.0
H233 H 0.05607 0.36138 0.39384 0.0
C234 C 0.3047 0.87756 0.31098 0.0
C235 C 0.31479 0.8875 0.39477 0.0
C236 C 0.2856 0.8949 0.25944 0.0
C237 C 0.27522 0.92174 0.29254 0.0
C238 C 0.28152 0.9294 0.38103 0.0
C239 C 0.30124 0.91263 0.43146 0.0
C240 C 0.26333 0.94447 0.23147 0.0
C241 C 0.23723 0.95921 0.25227 0.0
C242 C 0.22909 0.98484 0.20554 0.0
C243 C 0.24785 0.99607 0.13724 0.0
C244 C 0.2739 0.9807 0.11365 0.0
C245 C 0.28111 0.95488 0.16124 0.0
C246 C 0.29542 0.99151 0.04456 0.0
C247 C 0.30837 0.97131 0.98548 0.0
C248 C 0.30675 1.0203 0.04632 0.0
C249 C 0.33173 0.02801 0.99467 0.0
C250 C 0.34602 1.00707 0.94024 0.0
C251 C 0.20171 0.99981 0.2353 0.0
C252 C 0.17478 0.98447 0.23211 0.0
C253 C 0.20339 0.02553 0.28625 0.0
C254 C 0.1792 0.0345 0.33838 0.0
C255 C 0.15286 1.01786 0.34069 0.0
C256 C 0.15063 0.99339 0.28387 0.0
C257 C 0.33332 0.97885 0.93483 0.0
H258 H 0.31339 0.85767 0.28172 0.0
H259 H 0.28057 0.88838 0.19156 0.0
H260 H 0.27374 0.95006 0.40797 0.0
H261 H 0.308 0.92143 0.49524 0.0
H262 H 0.22377 0.95137 0.30787 0.0
H263 H 0.3019 0.94389 0.14789 0.0
H264 H 0.2421 1.01628 0.10256 0.0
H265 H 0.3001 0.94898 0.98204 0.0
H266 H 0.2974 0.03636 0.09138 0.0
H267 H 0.34029 0.05017 0.99951 0.0
H268 H 0.17312 0.96432 0.19432 0.0
H269 H 0.22406 0.03747 0.29094 0.0
H270 H 0.34349 0.9618 0.89523 0.0
H271 H 0.13097 0.97979 0.28391 0.0
H272 H 0.18159 0.05376 0.37985 0.0
C273 C 0.51137 0.33611 1.00659 0.0
C274 C 0.52253 0.34124 0.91957 0.0
C275 C 0.51784 0.30991 0.05282 0.0
C276 C 0.53552 0.28824 1.01315 0.0
C277 C 0.54455 0.29222 0.9238 0.0
C278 C 0.53795 0.31829 0.87731 0.0
C279 C 0.5524 0.26781 0.07159 0.0
C280 C 0.54069 0.24148 0.1081 0.0
C281 C 0.55775 0.22452 0.16889 0.0
C282 C 0.58568 0.23507 0.19522 0.0
C283 C 0.5969 0.2616 0.16133 0.0
C284 C 0.5805 0.27725 0.09765 0.0
C285 C 0.62229 0.2764 0.2043 0.0
C286 C 0.62192 0.2802 0.29747 0.0
C287 C 0.64259 0.29266 0.15239 0.0
C288 C 0.65886 0.31536 0.19105 0.0
C289 C 0.65474 0.3223 0.28186 0.0
C290 C 0.5467 0.19683 0.21176 0.0
C291 C 0.51908 0.19558 0.25525 0.0
C292 C 0.56609 0.1729 0.2218 0.0
C293 C 0.55935 0.14959 0.27979 0.0
C294 C 0.53282 0.14938 0.32864 0.0
C295 C 0.51215 0.17194 0.31316 0.0
C296 C 0.63798 0.30298 0.33597 0.0
H297 H 0.49964 0.35321 0.0419 0.0
H298 H 0.51137 0.30779 0.1225 0.0
H299 H 0.55876 0.27615 0.89235 0.0
H300 H 0.54638 0.32108 0.80982 0.0
H301 H 0.51872 0.23434 0.08955 0.0
H302 H 0.58858 0.29834 0.07326 0.0
H303 H 0.5982 0.22332 0.24593 0.0
H304 H 0.60653 0.26799 0.33932 0.0
H305 H 0.64372 0.28972 0.08054 0.0
H306 H 0.67232 0.32929 0.14806 0.0
H307 H 0.50374 0.21374 0.2494 0.0
H308 H 0.58735 0.17309 0.18856 0.0
H309 H 0.63425 0.30747 0.40618 0.0
H310 H 0.49152 0.17227 0.35011 0.0
H311 H 0.57551 0.1323 0.28947 0.0
Tb312 Tb 0.05054 1.01504 0.81555 0.0
Eu313 Eu 0.99529 0.02831 0.68009 0.0
C314 C 0.06154 0.02802 0.61381 0.0
C315 C 0.02572 0.08058 0.79388 0.0
C316 C 0.1094 0.98019 0.96103 0.0
C317 C 0.15008 0.94534 0.97153 0.0
C318 C 0.13645 0.96923 0.92911 0.0
C319 C 0.09688 0.96768 0.03863 0.0
C320 C 0.11054 0.94391 0.08119 0.0
C321 C 0.13703 0.93215 0.04731 0.0
C322 C 0.09504 1.00496 0.91367 0.0
O323 O 1.01036 1.00149 0.88833 0.0
O324 O 0.97923 0.03436 0.82093 0.0
O325 O 0.99607 0.97894 0.69606 0.0
O326 O 0.04354 0.97304 0.7474 0.0
C327 C 0.98599 1.01732 0.88902 0.0
O328 O 0.94838 0.02501 0.64735 0.0
O329 O 0.97915 0.04463 0.55208 0.0
O330 O 0.03525 1.01753 0.59681 0.0
O331 O 0.06793 0.03668 0.69509 0.0
O332 O 0.03885 0.06059 0.84414 0.0
O333 O 1.01177 0.07355 0.71961 0.0
C334 C 1.01925 0.9623 0.71149 0.0
O335 O 0.09542 1.00402 0.82658 0.0
O336 O 0.0696 1.01409 0.94376 0.0
C337 C 0.9307 0.06309 0.5508 0.0
C338 C 0.8962 0.11288 0.50846 0.0
C339 C 0.89555 0.10071 0.59546 0.0
C340 C 0.91279 0.07605 0.61664 0.0
C341 C 0.93024 0.07434 0.46336 0.0
C342 C 0.91355 0.0991 0.44267 0.0
C343 C 0.95151 0.03916 0.5714 0.0
H344 H 0.1706 0.93697 0.94441 0.0
H345 H 0.14688 0.9789 0.87041 0.0
H346 H 0.07626 0.97583 0.06569 0.0
H347 H 0.09966 0.93402 0.13875 0.0
H348 H 0.88245 0.11075 0.64771 0.0
H349 H 0.91275 0.06774 0.68483 0.0
H350 H 0.94387 0.06468 0.41157 0.0
H351 H 0.91545 0.10819 0.37562 0.0
Tb352 Tb 0.52951 0.04403 0.81453 0.0
Eu353 Eu 0.51564 0.99397 0.66286 0.0
C354 C 0.52111 0.06215 0.61311 0.0
C355 C 0.46393 1.01986 0.78677 0.0
C356 C 0.56411 0.10487 0.94321 0.0
C357 C 0.60509 0.1349 0.88962 0.0
C358 C 0.57968 0.1183 0.87235 0.0
C359 C 0.57327 0.10943 0.03129 0.0
C360 C 0.59883 0.12547 0.04848 0.0
C361 C 0.61563 0.13778 0.97782 0.0
C362 C 0.54032 0.08357 0.92736 0.0
O363 O 0.5191 1.00441 0.8913 0.0
O364 O 0.53056 0.96958 0.78716 0.0
O365 O 0.56237 1.00847 0.63738 0.0
O366 O 0.57335 0.02753 0.77542 0.0
C367 C 0.5255 0.97717 0.87045 0.0
O368 O 0.52276 0.95008 0.60845 0.0
O369 O 0.49469 0.98102 0.53815 0.0
O370 O 0.50516 0.0384 0.60128 0.0
O371 O 0.53723 0.06522 0.68525 0.0
O372 O 0.48114 0.04247 0.80489 0.0
O373 O 0.47375 0.99683 0.74344 0.0
C374 C 0.58168 1.01771 0.69628 0.0
O375 O 0.52394 0.08765 0.85661 0.0
O376 O 0.54782 0.05608 0.9376 0.0
C377 C 0.48184 0.93127 0.52798 0.0
C378 C 0.43246 0.89472 0.499 0.0
C379 C 0.44535 0.89637 0.58452 0.0
C380 C 0.46974 0.91471 0.59908 0.0
C381 C 0.47021 0.9283 0.44196 0.0
C382 C 0.44564 0.91052 0.42773 0.0
C383 C 0.50428 0.95406 0.54267 0.0
H384 H 0.61713 0.14435 0.83358 0.0
H385 H 0.57295 0.11501 0.8036 0.0
H386 H 0.56157 0.09913 0.08677 0.0
H387 H 0.60637 0.12632 0.1171 0.0
H388 H 0.43587 0.88449 0.64084 0.0
H389 H 0.47835 0.91682 0.66634 0.0
H390 H 0.47912 0.94105 0.38642 0.0
H391 H 0.43593 0.91074 0.36157 0.0
Tb392 Tb 0.49945 0.52697 0.81862 0.0
Eu393 Eu 0.55363 0.51586 0.67692 0.0
C394 C 0.48657 0.51729 0.61459 0.0
C395 C 0.52261 0.46205 0.78519 0.0
C396 C 0.43675 0.55956 0.94804 0.0
C397 C 0.40084 0.59636 0.90117 0.0
C398 C 0.41892 0.57228 0.88121 0.0
C399 C 0.43556 0.57059 0.03511 0.0
C400 C 0.41804 0.59482 0.05456 0.0
C401 C 0.40058 0.60823 0.98792 0.0
C402 C 0.45816 0.5361 0.92885 0.0
O403 O 0.53896 0.51649 0.89612 0.0
O404 O 0.57212 0.53722 0.80056 0.0
O405 O 0.53987 0.5626 0.65235 0.0
O406 O 0.51325 0.57177 0.78078 0.0
C407 C 0.5651 0.52807 0.88128 0.0
O408 O 0.6001 0.50505 0.65727 0.0
O409 O 0.57296 0.51625 0.54281 0.0
O410 O 0.51124 0.50218 0.60751 0.0
O411 O 0.48151 0.5337 0.68493 0.0
O412 O 0.49997 0.47922 0.80288 0.0
O413 O 0.54686 0.47228 0.74739 0.0
C414 C 0.52619 0.58083 0.70606 0.0
O415 O 0.45486 0.52135 0.855 0.0
O416 O 0.48575 0.54284 0.94327 0.0
C417 C 0.6127 0.48268 0.52026 0.0
C418 C 0.63943 0.43524 0.43083 0.0
C419 C 0.65406 0.44908 0.50176 0.0
C420 C 0.64086 0.4727 0.54572 0.0
C421 C 0.59845 0.46939 0.4477 0.0
C422 C 0.61169 0.44593 0.4035 0.0
C423 C 0.59866 0.50681 0.57022 0.0
H424 H 0.38773 0.60616 0.84825 0.0
H425 H 0.41951 0.56417 0.81324 0.0
H426 H 0.44918 0.56116 0.08757 0.0
H427 H 0.41932 0.60383 0.12133 0.0
H428 H 0.67557 0.44152 0.52354 0.0
H429 H 0.65249 0.48291 0.60066 0.0
H430 H 0.57685 0.47669 0.42595 0.0
H431 H 0.59969 0.43552 0.34971 0.0
Tb432 Tb 1.0208 0.4978 0.80901 0.0
Eu433 Eu 0.03354 0.55088 0.66206 0.0
C434 C 0.03156 0.48423 0.6069 0.0
C435 C 0.08601 0.52289 0.78342 0.0
C436 C 0.98784 0.43788 0.95583 0.0
C437 C 0.95379 0.39636 0.96001 0.0
C438 C 0.97751 0.41126 0.92017 0.0
C439 C 0.97498 0.44852 0.03481 0.0
C440 C 0.95136 0.43358 0.07479 0.0
C441 C 0.94014 0.40762 0.03691 0.0
C442 C 1.01237 0.45374 0.9111 0.0
O443 O 1.00781 0.53806 0.87936 0.0
O444 O 0.03526 0.57156 0.79806 0.0
O445 O 0.98393 0.54796 0.66906 0.0
O446 O 0.97717 0.50472 0.74908 0.0
C447 C 1.01991 0.56435 0.86979 0.0
O448 O 0.02902 0.59649 0.61738 0.0
O449 O 0.05173 0.5649 0.53354 0.0
O450 O 1.02147 0.51026 0.5857 0.0
O451 O 0.04102 0.47912 0.6886 0.0
O452 O 0.06596 0.51124 0.8369 0.0
O453 O 0.0789 0.53506 0.706 0.0
C454 C 0.96692 0.52669 0.69998 0.0
O455 O 1.01292 0.45261 0.82408 0.0
O456 O 1.01915 0.47991 0.93947 0.0
C457 C 0.06803 0.61387 0.52356 0.0
C458 C 0.11777 0.64876 0.48062 0.0
C459 C 0.10597 0.6487 0.56804 0.0
C460 C 0.08138 0.63123 0.58952 0.0
C461 C 0.0786 0.61528 0.43558 0.0
C462 C 0.10324 0.63232 0.41436 0.0
C463 C 0.04465 0.59243 0.54488 0.0
H464 H 0.94587 0.37625 0.92993 0.0
H465 H 0.98749 0.40217 0.8605 0.0
H466 H 0.98274 0.46868 0.0649 0.0
H467 H 0.94113 0.44307 0.13345 0.0
H468 H 0.11637 0.66123 0.62059 0.0
H469 H 0.07353 0.63052 0.65811 0.0
H470 H 0.06857 0.60206 0.38377 0.0
H471 H 0.1118 0.63112 0.34672 0.0
C472 C 0.13615 0.03243 0.49577 0.0
C473 C 0.129 0.024 0.40783 0.0
H474 H 0.12069 0.04039 0.62928 0.0
C475 C 0.09906 1.01906 0.38726 0.0
H476 H 0.15892 0.03601 0.51491 0.0
C477 C 0.07714 0.02124 0.4534 0.0
C478 C 0.08448 0.02857 0.54196 0.0
H479 H 0.09255 1.013 0.32018 0.0
H480 H 0.05447 1.01658 0.4353 0.0
C481 C 0.11419 0.03475 0.56183 0.0
C482 C 0.55023 0.12497 0.46921 0.0
C483 C 0.52866 0.12745 0.40214 0.0
H484 H 0.56454 0.10289 0.58834 0.0
C485 C 0.50392 0.10874 0.4058 0.0
H486 H 0.56942 0.13925 0.46839 0.0
C487 C 0.5013 0.0874 0.47414 0.0
C488 C 0.52302 0.08492 0.54116 0.0
H489 H 0.48699 0.11022 0.35485 0.0
H490 H 0.48226 0.07294 0.47469 0.0
C491 C 0.54733 0.10419 0.53819 0.0
C492 C 0.42569 0.5445 0.46128 0.0
C493 C 0.42181 0.52096 0.40226 0.0
H494 H 0.44877 0.56159 0.57408 0.0
C495 C 0.43963 0.49584 0.41263 0.0
H496 H 0.41217 0.56405 0.45511 0.0
C497 C 0.46126 0.49461 0.48032 0.0
C498 C 0.46477 0.51814 0.54012 0.0
H499 H 0.43706 0.47741 0.36791 0.0
H500 H 0.47481 0.47511 0.48689 0.0
C501 C 0.44663 0.543 0.52968 0.0
C502 C 0.03465 0.40846 0.4994 0.0
C503 C 0.02715 0.41474 0.40961 0.0
H504 H 0.04201 0.42517 0.63152 0.0
C505 C 1.02294 0.44441 0.38488 0.0
H506 H 0.03764 0.38598 0.52191 0.0
C507 C 0.02505 0.46688 0.44832 0.0
C508 C 0.03169 0.46047 0.53844 0.0
H509 H 1.01767 0.45036 0.3164 0.0
H510 H 1.02108 0.48932 0.42672 0.0
C511 C 0.03698 0.431 0.56277 0.0
C512 C 0.93988 0.99376 0.09226 0.0
C513 C 0.92463 1.01998 0.11107 0.0
H514 H 0.97212 0.97236 1.00841 0.0
C515 C 0.93074 0.04507 0.05858 0.0
H516 H 0.93555 0.97406 0.13146 0.0
C517 C 0.95099 0.04396 0.98806 0.0
C518 C 0.96617 1.01786 0.96851 0.0
H519 H 0.91914 0.0655 0.07035 0.0
H520 H 0.95464 0.06368 0.94824 0.0
C521 C 0.96085 0.99282 0.02228 0.0
C522 C 0.51758 0.94007 0.09882 0.0
C523 C 0.52087 0.91014 0.07793 0.0
H524 H 0.51658 0.98453 0.05061 0.0
C525 C 0.52742 0.90264 0.98875 0.0
H526 H 0.51287 0.94674 0.16683 0.0
C527 C 0.52963 0.92437 0.92186 0.0
C528 C 0.52534 0.95421 0.94231 0.0
H529 H 0.52968 0.87983 0.96969 0.0
H530 H 0.53394 0.91765 0.85367 0.0
C531 C 0.51979 0.96179 0.03199 0.0
C532 C 0.63882 0.53366 1.00297 0.0
C533 C 0.63144 0.52395 0.0901 0.0
H534 H 0.62394 0.54262 0.86929 0.0
C535 C 0.60156 0.5176 0.10895 0.0
H536 H 0.66156 0.5384 0.98515 0.0
C537 C 0.57999 0.51969 0.04196 0.0
C538 C 0.58759 0.52836 0.95416 0.0
H539 H 0.59483 0.51053 0.1754 0.0
H540 H 0.55739 0.51398 0.05879 0.0
C541 C 0.61721 0.53589 0.93604 0.0
C542 C 1.01196 0.60066 0.09873 0.0
C543 C 1.01634 0.6306 0.07693 0.0
H544 H 1.00897 0.55624 0.05065 0.0
C545 C 1.0203 0.63835 0.98631 0.0
H546 H 1.0088 0.59391 0.16783 0.0
C547 C 1.02078 0.61686 0.91977 0.0
C548 C 1.01691 0.5869 0.94135 0.0
H549 H 0.02415 0.66105 0.96689 0.0
H550 H 0.02459 0.62379 0.85109 0.0
C551 C 1.01192 0.57909 0.03157 0.0
C552 C 0.87157 0.17717 0.36954 0.0
C553 C 0.87946 0.20057 0.426 0.0
H554 H 0.86902 0.13064 0.35336 0.0
C555 C 0.88331 0.19437 0.51788 0.0
H556 H 0.8677 0.18056 0.29879 0.0
C557 C 0.8855 0.16528 0.5482 0.0
C558 C 0.88273 0.14195 0.48768 0.0
H559 H 0.88767 0.2118 0.56492 0.0
H560 H 0.89241 0.16137 0.61662 0.0
C561 C 0.87278 0.1482 0.40057 0.0
C562 C 0.36615 0.86757 0.37503 0.0
C563 C 0.34338 0.87673 0.43302 0.0
H564 H 0.41258 0.86439 0.35267 0.0
C565 C 0.35072 0.88225 0.52298 0.0
H566 H 0.36193 0.86231 0.30578 0.0
C567 C 0.38029 0.88491 0.54852 0.0
C568 C 0.403 0.88088 0.48534 0.0
H569 H 0.33381 0.88757 0.5716 0.0
H570 H 0.38503 0.89312 0.61477 0.0
C571 C 0.39561 0.86923 0.40153 0.0
C572 C 0.65344 0.37668 0.25935 0.0
C573 C 0.6608 0.35251 0.31443 0.0
H574 H 0.64126 0.422 0.25308 0.0
C575 C 0.66717 0.35756 0.40516 0.0
H576 H 0.64826 0.37381 0.18924 0.0
C577 C 0.66261 0.38533 0.44213 0.0
C578 C 0.65173 0.4085 0.38879 0.0
H579 H 0.67341 0.33954 0.44905 0.0
H580 H 0.66521 0.38793 0.51369 0.0
C581 C 0.64895 0.40435 0.2962 0.0
C582 C 0.19997 0.65973 0.49328 0.0
C583 C 0.20664 0.66319 0.40157 0.0
H584 H 0.16634 0.65165 0.59081 0.0
C585 C 0.18356 0.67149 0.34345 0.0
H586 H 0.2172 0.65508 0.54147 0.0
C587 C 0.15429 0.67112 0.3731 0.0
C588 C 0.14741 0.66151 0.46042 0.0
H589 H 0.18736 0.67512 0.27269 0.0
H590 H 0.13694 0.67533 0.32484 0.0
C591 C 0.1706 0.65831 0.52221 0.0
C592 C 0.1612 0.85295 0.06517 0.0
C593 C 0.15619 0.84726 0.15672 0.0
H594 H 0.15881 0.88445 0.95825 0.0
C595 C 0.1514 0.87124 0.214 0.0
H596 H 0.16557 0.83511 0.01946 0.0
C597 C 0.14791 0.89956 0.17908 0.0
C598 C 0.14904 0.90452 0.08623 0.0
H599 H 0.14739 0.86793 0.28488 0.0
H600 H 0.14215 0.91717 0.22426 0.0
C601 C 0.15752 0.88132 0.03013 0.0
C602 C 0.68172 0.16102 0.11142 0.0
C603 C 0.70481 0.14973 0.05841 0.0
H604 H 0.63538 0.16805 0.12494 0.0
C605 C 0.69865 0.14325 0.96828 0.0
H606 H 0.68513 0.16699 0.18054 0.0
C607 C 0.66948 0.14227 0.938 0.0
C608 C 0.64599 0.14896 0.99625 0.0
H609 H 0.71598 0.1362 0.92324 0.0
H610 H 0.66547 0.13348 0.87204 0.0
C611 C 0.65274 0.16112 0.07995 0.0
C612 C 0.3715 0.67069 0.12437 0.0
C613 C 0.37862 0.69472 0.06811 0.0
H614 H 0.37136 0.62412 0.14131 0.0
C615 C 0.38382 0.68914 0.97669 0.0
H616 H 0.36668 0.67355 0.19473 0.0
C617 C 0.38793 0.66035 0.94706 0.0
C618 C 0.38577 0.63663 1.00772 0.0
H619 H 0.38771 0.70699 0.92969 0.0
H620 H 0.3957 0.6571 0.87922 0.0
C621 C 0.37468 0.64198 0.09401 0.0
C622 C 0.87865 0.38897 0.19823 0.0
C623 C 0.85489 0.38479 0.13902 0.0
H624 H 0.92452 0.39908 0.21227 0.0
C625 C 0.86101 0.38163 0.04723 0.0
H626 H 0.87496 0.39158 0.26938 0.0
C627 C 0.88956 0.38651 1.01431 0.0
C628 C 0.91249 0.3944 0.07277 0.0
H629 H 0.84331 0.37783 1.00004 0.0
H630 H 0.89299 0.38664 0.9425 0.0
C631 C 0.90714 0.39373 0.16539 0.0
C632 C 0.03427 0.14702 0.94596 0.0
C633 C 1.01909 0.16931 0.89899 0.0
H634 H 0.04837 0.10216 0.95022 0.0
C635 C 1.0077 0.16246 0.81374 0.0
H636 H 0.04298 0.151 1.0122 0.0
C637 C 1.01048 0.13404 0.77828 0.0
C638 C 0.02488 0.1116 0.82676 0.0
H639 H 0.99626 0.17899 0.77451 0.0
H640 H 1.00083 0.12954 0.71355 0.0
C641 C 0.03717 0.11872 0.91042 0.0
C642 C 0.38297 0.99912 0.81459 0.0
C643 C 0.37506 1.01351 0.89449 0.0
H644 H 0.41695 0.98962 0.71876 0.0
C645 C 0.39622 0.03217 0.93383 0.0
H646 H 0.3673 0.98525 0.78023 0.0
C647 C 0.42461 0.03532 0.8966 0.0
C648 C 0.43284 1.01954 0.81991 0.0
H649 H 0.39141 0.0434 0.99576 0.0
H650 H 0.44056 0.04908 0.93041 0.0
C651 C 0.4115 1.0018 0.77861 0.0
C652 C 0.54555 0.38278 0.83024 0.0
C653 C 0.52106 0.37131 0.87759 0.0
H654 H 0.56524 0.41989 0.76403 0.0
C655 C 0.49634 0.38964 0.8897 0.0
H656 H 0.56526 0.36969 0.82077 0.0
C657 C 0.49645 0.41876 0.85758 0.0
C658 C 0.5213 0.4304 0.81255 0.0
H659 H 0.47695 0.3816 0.92492 0.0
H660 H 0.47722 0.43232 0.86977 0.0
C661 C 0.54565 0.41182 0.79815 0.0
C662 C 0.15346 0.513 0.93274 0.0
C663 C 0.17613 0.52678 0.88302 0.0
H664 H 0.10789 0.50092 0.94095 0.0
C665 C 0.16908 0.53805 0.79732 0.0
H666 H 0.1576 0.50451 0.99948 0.0
C667 C 0.14011 0.53633 0.76376 0.0
C668 C 0.11738 0.52323 0.81487 0.0
H669 H 0.1859 0.54851 0.75627 0.0
H670 H 0.13548 0.54571 0.6984 0.0
C671 C 0.12465 0.5112 0.89922 0.0
C672 C 0.99394 0.89068 0.60329 0.0
C673 C 1.01938 0.87297 0.60923 0.0
H674 H 0.97373 0.93223 0.63122 0.0
C675 C 0.04422 0.88455 0.6537 0.0
H676 H 0.97424 0.88258 0.57068 0.0
C677 C 0.04388 0.91304 0.68913 0.0
C678 C 1.0187 0.93099 0.68116 0.0
H679 H 0.06447 0.87199 0.65859 0.0
H680 H 0.06371 0.92124 0.72081 0.0
C681 C 0.9936 0.91921 0.63871 0.0
C682 C 0.65173 1.00743 0.55849 0.0
C683 C 0.67324 0.02214 0.6092 0.0
H684 H 0.60656 0.99447 0.54578 0.0
C685 C 0.6646 0.03403 0.69223 0.0
H686 H 0.65718 0.99842 0.49365 0.0
C687 C 0.63515 0.03197 0.72218 0.0
C688 C 0.61355 1.01807 0.66973 0.0
H689 H 0.68052 0.04529 0.73369 0.0
H690 H 0.62921 0.04191 0.78537 0.0
C691 C 0.62243 1.00544 0.5882 0.0
C692 C 0.53277 0.65014 0.56303 0.0
C693 C 0.51497 0.67034 0.6093 0.0
H694 H 0.5504 0.6067 0.55704 0.0
C695 C 0.50258 0.66135 0.69201 0.0
H696 H 0.54232 0.6558 0.49859 0.0
C697 C 0.50693 0.63269 0.72541 0.0
C698 C 0.52386 0.61226 0.67712 0.0
H699 H 0.48907 0.67631 0.73043 0.0
H700 H 0.49639 0.62634 0.78789 0.0
C701 C 0.53719 0.62166 0.59644 0.0
C702 C 0.89748 0.53768 0.56068 0.0
C703 C 0.87585 0.5221 0.61017 0.0
H704 H 0.94263 0.55158 0.55037 0.0
C705 C 0.88438 0.50975 0.69335 0.0
H706 H 0.89244 0.54709 0.49574 0.0
C707 C 0.91373 0.51153 0.72331 0.0
C708 C 0.93527 0.52646 0.67242 0.0
H709 H 0.86855 0.49825 0.73534 0.0
H710 H 0.91957 0.50108 0.78626 0.0
C711 C 0.92658 0.54008 0.59178 0.0
loop_
_geom_bond_atom_site_label_1
_geom_bond_atom_site_label_2
_geom_bond_distance
_geom_bond_site_symmetry_2
_ccdc_geom_bond_type
C0 C1 1.386 . S
C0 C2 1.397 . S
C0 H24 0.931 . S
C1 C0 1.386 . S
C1 C5 1.397 . S
C2 C0 1.397 . S
C2 C3 1.384 . S
C2 H25 0.930 . S
C3 C2 1.384 . S
C3 C4 1.377 . S
C3 C6 1.481 . S
C4 C3 1.377 . S
C4 C5 1.389 . S
C4 H26 0.929 . S
C5 C1 1.397 . S
C5 C4 1.389 . S
C5 H27 0.931 . S
C6 C3 1.481 . S
C6 C7 1.387 . S
C6 C11 1.390 . S
C7 C6 1.387 . S
C7 C8 1.401 . S
C7 H28 0.930 . S
C8 C7 1.401 . S
C8 C9 1.376 . S
C8 C17 1.511 . S
C9 C8 1.376 . S
C9 C10 1.392 . S
C9 H30 0.931 . S
C10 C9 1.392 . S
C10 C11 1.361 . S
C10 C12 1.500 . S
C11 C6 1.390 . S
C11 C10 1.361 . S
C11 H29 0.931 . S
C12 C10 1.500 . S
C12 C13 1.371 . S
C12 C14 1.365 . S
C13 C12 1.371 . S
C13 C23 1.386 . S
C13 H31 0.931 . S
C14 C12 1.365 . S
C14 C15 1.409 . S
C14 H32 0.929 . S
C15 C14 1.409 . S
C15 C16 1.380 . S
C15 H33 0.930 . S
C16 C15 1.380 . S
C16 C23 1.357 . S
C17 C8 1.511 . S
C17 C18 1.341 . S
C17 C19 1.371 . S
C18 C17 1.341 . S
C18 C22 1.394 . S
C18 H34 0.930 . S
C19 C17 1.371 . S
C19 C20 1.392 . S
C19 H35 0.931 . S
C20 C19 1.392 . S
C20 C21 1.331 . S
C20 H38 0.932 . S
C21 C20 1.331 . S
C21 C22 1.336 . S
C22 C18 1.394 . S
C22 C21 1.336 . S
C22 H37 0.929 . S
C23 C13 1.386 . S
C23 C16 1.357 . S
C23 H36 0.928 . S
H24 C0 0.931 . S
H25 C2 0.930 . S
H26 C4 0.929 . S
H27 C5 0.931 . S
H28 C7 0.930 . S
H29 C11 0.931 . S
H30 C9 0.931 . S
H31 C13 0.931 . S
H32 C14 0.929 . S
H33 C15 0.930 . S
H34 C18 0.930 . S
H35 C19 0.931 . S
H36 C23 0.928 . S
H37 C22 0.929 . S
H38 C20 0.932 . S
C39 C40 1.394 . S
C39 C41 1.397 . S
C39 H63 0.931 . S
C40 C39 1.394 . S
C40 C44 1.389 1_655 S
C41 C39 1.397 . S
C41 C42 1.389 . S
C41 H64 0.930 . S
C42 C41 1.389 . S
C42 C43 1.373 1_655 S
C42 C45 1.480 . S
C43 C42 1.373 1_455 S
C43 C44 1.389 . S
C43 H65 0.929 . S
C44 C40 1.389 1_455 S
C44 C43 1.389 . S
C44 H66 0.931 . S
C45 C42 1.480 . S
C45 C46 1.388 . S
C45 C50 1.390 . S
C46 C45 1.388 . S
C46 C47 1.402 . S
C46 H67 0.930 . S
C47 C46 1.402 . S
C47 C48 1.377 . S
C47 C56 1.513 . S
C48 C47 1.377 . S
C48 C49 1.392 . S
C48 H69 0.931 . S
C49 C48 1.392 . S
C49 C50 1.361 . S
C49 C51 1.499 1_655 S
C50 C45 1.390 . S
C50 C49 1.361 . S
C50 H68 0.931 . S
C51 C49 1.499 1_455 S
C51 C52 1.361 1_455 S
C51 C53 1.376 . S
C52 C51 1.361 1_655 S
C52 C62 1.386 . S
C52 H70 0.931 . S
C53 C51 1.376 . S
C53 C54 1.409 . S
C53 H71 0.929 . S
C54 C53 1.409 . S
C54 C55 1.380 . S
C54 H72 0.930 . S
C55 C54 1.380 . S
C55 C62 1.357 1_455 S
C56 C47 1.513 . S
C56 C57 1.341 . S
C56 C58 1.371 1_655 S
C57 C56 1.341 . S
C57 C61 1.394 . S
C57 H73 0.930 . S
C58 C56 1.371 1_455 S
C58 C59 1.392 . S
C58 H74 0.931 . S
C59 C58 1.392 . S
C59 C60 1.322 1_455 S
C59 H77 0.932 . S
C60 C59 1.322 1_655 S
C60 C61 1.345 . S
C61 C57 1.394 . S
C61 C60 1.345 . S
C61 H76 0.929 . S
C62 C52 1.386 . S
C62 C55 1.357 1_655 S
C62 H75 0.928 . S
H63 C39 0.931 . S
H64 C41 0.930 . S
H65 C43 0.929 . S
H66 C44 0.931 . S
H67 C46 0.930 . S
H68 C50 0.931 . S
H69 C48 0.931 . S
H70 C52 0.931 . S
H71 C53 0.929 . S
H72 C54 0.930 . S
H73 C57 0.930 . S
H74 C58 0.931 . S
H75 C62 0.928 . S
H76 C61 0.929 . S
H77 C59 0.932 . S
C78 C79 1.394 . S
C78 C80 1.397 . S
C78 H102 0.931 . S
C79 C78 1.394 . S
C79 C83 1.389 1_565 S
C80 C78 1.397 . S
C80 C81 1.389 . S
C80 H103 0.930 . S
C81 C80 1.389 . S
C81 C82 1.373 1_565 S
C81 C84 1.481 . S
C82 C81 1.373 1_545 S
C82 C83 1.389 . S
C82 H104 0.929 . S
C83 C79 1.389 1_545 S
C83 C82 1.389 . S
C83 H105 0.931 . S
C84 C81 1.481 . S
C84 C85 1.389 . S
C84 C89 1.390 . S
C85 C84 1.389 . S
C85 C86 1.403 . S
C85 H106 0.930 . S
C86 C85 1.403 . S
C86 C87 1.377 . S
C86 C95 1.513 . S
C87 C86 1.377 . S
C87 C88 1.392 . S
C87 H108 0.931 . S
C88 C87 1.392 . S
C88 C89 1.361 . S
C88 C90 1.499 1_565 S
C89 C84 1.390 . S
C89 C88 1.361 . S
C89 H107 0.931 . S
C90 C88 1.499 1_545 S
C90 C91 1.361 1_545 S
C90 C92 1.376 . S
C91 C90 1.361 1_565 S
C91 C101 1.386 . S
C91 H109 0.931 . S
C92 C90 1.376 . S
C92 C93 1.409 . S
C92 H110 0.929 . S
C93 C92 1.409 . S
C93 C94 1.380 . S
C93 H111 0.930 . S
C94 C93 1.380 . S
C94 C101 1.357 1_545 S
C95 C86 1.513 . S
C95 C96 1.341 . S
C95 C97 1.371 1_565 S
C96 C95 1.341 . S
C96 C100 1.394 . S
C96 H112 0.930 . S
C97 C95 1.371 1_545 S
C97 C98 1.392 . S
C97 H113 0.931 . S
C98 C97 1.392 . S
C98 C99 1.322 1_545 S
C98 H116 0.932 . S
C99 C98 1.322 1_565 S
C99 C100 1.345 . S
C100 C96 1.394 . S
C100 C99 1.345 . S
C100 H115 0.929 . S
C101 C91 1.386 . S
C101 C94 1.357 1_565 S
C101 H114 0.928 . S
H102 C78 0.931 . S
H103 C80 0.930 . S
H104 C82 0.929 . S
H105 C83 0.931 . S
H106 C85 0.930 . S
H107 C89 0.931 . S
H108 C87 0.931 . S
H109 C91 0.931 . S
H110 C92 0.929 . S
H111 C93 0.930 . S
H112 C96 0.930 . S
H113 C97 0.931 . S
H114 C101 0.928 . S
H115 C100 0.929 . S
H116 C98 0.932 . S
C117 C118 1.386 . S
C117 C119 1.397 . S
C117 H141 0.931 . S
C118 C117 1.386 . S
C118 C122 1.397 . S
C119 C117 1.397 . S
C119 C120 1.384 . S
C119 H142 0.930 . S
C120 C119 1.384 . S
C120 C121 1.377 . S
C120 C123 1.481 . S
C121 C120 1.377 . S
C121 C122 1.389 . S
C121 H143 0.929 . S
C122 C118 1.397 . S
C122 C121 1.389 . S
C122 H144 0.931 . S
C123 C120 1.481 . S
C123 C124 1.387 . S
C123 C128 1.390 . S
C124 C123 1.387 . S
C124 C125 1.401 . S
C124 H145 0.930 . S
C125 C124 1.401 . S
C125 C126 1.376 . S
C125 C134 1.511 . S
C126 C125 1.376 . S
C126 C127 1.392 . S
C126 H147 0.931 . S
C127 C126 1.392 . S
C127 C128 1.361 . S
C127 C129 1.500 . S
C128 C123 1.390 . S
C128 C127 1.361 . S
C128 H146 0.931 . S
C129 C127 1.500 . S
C129 C130 1.371 . S
C129 C131 1.365 . S
C130 C129 1.371 . S
C130 C140 1.386 . S
C130 H148 0.931 . S
C131 C129 1.365 . S
C131 C132 1.409 . S
C131 H149 0.929 . S
C132 C131 1.409 . S
C132 C133 1.380 . S
C132 H150 0.930 . S
C133 C132 1.380 . S
C133 C140 1.357 . S
C134 C125 1.511 . S
C134 C135 1.341 . S
C134 C136 1.371 . S
C135 C134 1.341 . S
C135 C139 1.394 . S
C135 H151 0.930 . S
C136 C134 1.371 . S
C136 C137 1.392 . S
C136 H152 0.931 . S
C137 C136 1.392 . S
C137 C138 1.331 . S
C137 H155 0.932 . S
C138 C137 1.331 . S
C138 C139 1.336 . S
C139 C135 1.394 . S
C139 C138 1.336 . S
C139 H154 0.929 . S
C140 C130 1.386 . S
C140 C133 1.357 . S
C140 H153 0.928 . S
H141 C117 0.931 . S
H142 C119 0.930 . S
H143 C121 0.929 . S
H144 C122 0.931 . S
H145 C124 0.930 . S
H146 C128 0.931 . S
H147 C126 0.931 . S
H148 C130 0.931 . S
H149 C131 0.929 . S
H150 C132 0.930 . S
H151 C135 0.930 . S
H152 C136 0.931 . S
H153 C140 0.928 . S
H154 C139 0.929 . S
H155 C137 0.932 . S
C156 C157 1.386 . S
C156 C158 1.397 . S
C156 H180 0.931 . S
C157 C156 1.386 . S
C157 C161 1.397 . S
C158 C156 1.397 . S
C158 C159 1.384 . S
C158 H181 0.930 . S
C159 C158 1.384 . S
C159 C160 1.377 . S
C159 C162 1.481 . S
C160 C159 1.377 . S
C160 C161 1.389 . S
C160 H182 0.929 . S
C161 C157 1.397 . S
C161 C160 1.389 . S
C161 H183 0.931 . S
C162 C159 1.481 . S
C162 C163 1.387 . S
C162 C167 1.390 . S
C163 C162 1.387 . S
C163 C164 1.401 . S
C163 H184 0.930 . S
C164 C163 1.401 . S
C164 C165 1.376 1_554 S
C164 C173 1.511 . S
C165 C164 1.376 1_556 S
C165 C166 1.392 . S
C165 H186 0.931 . S
C166 C165 1.392 . S
C166 C167 1.361 1_556 S
C166 C168 1.500 . S
C167 C162 1.390 . S
C167 C166 1.361 1_554 S
C167 H185 0.931 . S
C168 C166 1.500 . S
C168 C169 1.371 . S
C168 C170 1.365 . S
C169 C168 1.371 . S
C169 C179 1.386 . S
C169 H187 0.931 . S
C170 C168 1.365 . S
C170 C171 1.409 . S
C170 H188 0.929 . S
C171 C170 1.409 . S
C171 C172 1.380 . S
C171 H189 0.930 . S
C172 C171 1.380 . S
C172 C179 1.357 . S
C173 C164 1.511 . S
C173 C174 1.341 . S
C173 C175 1.371 . S
C174 C173 1.341 . S
C174 C178 1.394 . S
C174 H190 0.930 . S
C175 C173 1.371 . S
C175 C176 1.392 . S
C175 H191 0.931 1_554 S
C176 C175 1.392 . S
C176 C177 1.331 . S
C176 H194 0.932 . S
C177 C176 1.331 . S
C177 C178 1.336 . S
C178 C174 1.394 . S
C178 C177 1.336 . S
C178 H193 0.929 . S
C179 C169 1.386 . S
C179 C172 1.357 . S
C179 H192 0.928 . S
H180 C156 0.931 . S
H181 C158 0.930 . S
H182 C160 0.929 . S
H183 C161 0.931 . S
H184 C163 0.930 . S
H185 C167 0.931 . S
H186 C165 0.931 . S
H187 C169 0.931 . S
H188 C170 0.929 . S
H189 C171 0.930 . S
H190 C174 0.930 . S
H191 C175 0.931 1_556 S
H192 C179 0.928 . S
H193 C178 0.929 . S
H194 C176 0.932 . S
C195 C196 1.389 . S
C195 C197 1.397 . S
C195 H219 0.931 . S
C196 C195 1.389 . S
C196 C200 1.394 1_655 S
C197 C195 1.397 . S
C197 C198 1.383 . S
C197 H220 0.930 . S
C198 C197 1.383 . S
C198 C199 1.378 1_655 S
C198 C201 1.480 . S
C199 C198 1.378 1_455 S
C199 C200 1.389 . S
C199 H221 0.929 . S
C200 C196 1.394 1_455 S
C200 C199 1.389 . S
C200 H222 0.931 . S
C201 C198 1.480 . S
C201 C202 1.388 . S
C201 C206 1.390 . S
C202 C201 1.388 . S
C202 C203 1.402 . S
C202 H223 0.930 . S
C203 C202 1.402 . S
C203 C204 1.376 1_554 S
C203 C212 1.512 . S
C204 C203 1.376 1_556 S
C204 C205 1.392 1_655 S
C204 H225 0.934 . S
C205 C204 1.392 1_455 S
C205 C206 1.361 1_456 S
C205 C207 1.499 . S
C206 C201 1.390 . S
C206 C205 1.361 1_654 S
C206 H224 0.931 . S
C207 C205 1.499 . S
C207 C208 1.357 1_455 S
C207 C209 1.380 . S
C208 C207 1.357 1_655 S
C208 C218 1.386 . S
C208 H226 0.931 . S
C209 C207 1.380 . S
C209 C210 1.409 . S
C209 H227 0.929 . S
C210 C209 1.409 . S
C210 C211 1.384 . S
C210 H228 0.930 . S
C211 C210 1.384 . S
C211 C218 1.353 1_455 S
C212 C203 1.512 . S
C212 C213 1.341 . S
C212 C214 1.371 1_655 S
C213 C212 1.341 . S
C213 C217 1.394 . S
C213 H229 0.930 . S
C214 C212 1.371 1_455 S
C214 C215 1.392 . S
C214 H230 0.931 1_554 S
C215 C214 1.392 . S
C215 C216 1.325 1_455 S
C215 H233 0.932 . S
C216 C215 1.325 1_655 S
C216 C217 1.342 . S
C217 C213 1.394 . S
C217 C216 1.342 . S
C217 H232 0.929 . S
C218 C208 1.386 . S
C218 C211 1.353 1_655 S
C218 H231 0.928 . S
H219 C195 0.931 . S
H220 C197 0.930 . S
H221 C199 0.929 . S
H222 C200 0.931 . S
H223 C202 0.930 . S
H224 C206 0.931 . S
H225 C204 0.934 . S
H226 C208 0.931 . S
H227 C209 0.929 . S
H228 C210 0.930 . S
H229 C213 0.930 . S
H230 C214 0.931 1_556 S
H231 C218 0.928 . S
H232 C217 0.929 . S
H233 C215 0.932 . S
C234 C235 1.389 . S
C234 C236 1.397 . S
C234 H258 0.931 . S
C235 C234 1.389 . S
C235 C239 1.394 1_565 S
C236 C234 1.397 . S
C236 C237 1.383 . S
C236 H259 0.930 . S
C237 C236 1.383 . S
C237 C238 1.378 1_565 S
C237 C240 1.480 . S
C238 C237 1.378 1_545 S
C238 C239 1.389 . S
C238 H260 0.929 . S
C239 C235 1.394 1_545 S
C239 C238 1.389 . S
C239 H261 0.931 . S
C240 C237 1.480 . S
C240 C241 1.388 . S
C240 C245 1.390 . S
C241 C240 1.388 . S
C241 C242 1.402 . S
C241 H262 0.930 . S
C242 C241 1.402 . S
C242 C243 1.376 1_554 S
C242 C251 1.512 . S
C243 C242 1.376 1_556 S
C243 C244 1.392 1_565 S
C243 H264 0.934 . S
C244 C243 1.392 1_545 S
C244 C245 1.361 1_546 S
C244 C246 1.499 . S
C245 C240 1.390 . S
C245 C244 1.361 1_564 S
C245 H263 0.931 . S
C246 C244 1.499 . S
C246 C247 1.357 1_545 S
C246 C248 1.380 . S
C247 C246 1.357 1_565 S
C247 C257 1.386 . S
C247 H265 0.931 . S
C248 C246 1.380 . S
C248 C249 1.409 . S
C248 H266 0.929 . S
C249 C248 1.409 . S
C249 C250 1.384 . S
C249 H267 0.930 . S
C250 C249 1.384 . S
C250 C257 1.353 1_545 S
C251 C242 1.512 . S
C251 C252 1.341 . S
C251 C253 1.371 1_565 S
C252 C251 1.341 . S
C252 C256 1.394 . S
C252 H268 0.930 . S
C253 C251 1.371 1_545 S
C253 C254 1.392 . S
C253 H269 0.931 1_554 S
C254 C253 1.392 . S
C254 C255 1.325 1_545 S
C254 H272 0.932 . S
C255 C254 1.325 1_565 S
C255 C256 1.342 . S
C256 C252 1.394 . S
C256 C255 1.342 . S
C256 H271 0.929 . S
C257 C247 1.386 . S
C257 C250 1.353 1_565 S
C257 H270 0.928 . S
H258 C234 0.931 . S
H259 C236 0.930 . S
H260 C238 0.929 . S
H261 C239 0.931 . S
H262 C241 0.930 . S
H263 C245 0.931 . S
H264 C243 0.934 . S
H265 C247 0.931 . S
H266 C248 0.929 . S
H267 C249 0.930 . S
H268 C252 0.930 . S
H269 C253 0.931 1_556 S
H270 C257 0.928 . S
H271 C256 0.929 . S
H272 C254 0.932 . S
C273 C274 1.386 . S
C273 C275 1.397 . S
C273 H297 0.931 . S
C274 C273 1.386 . S
C274 C278 1.397 . S
C275 C273 1.397 . S
C275 C276 1.384 . S
C275 H298 0.930 . S
C276 C275 1.384 . S
C276 C277 1.377 . S
C276 C279 1.481 . S
C277 C276 1.377 . S
C277 C278 1.389 . S
C277 H299 0.929 . S
C278 C274 1.397 . S
C278 C277 1.389 . S
C278 H300 0.931 . S
C279 C276 1.481 . S
C279 C280 1.387 . S
C279 C284 1.390 1_556 S
C280 C279 1.387 . S
C280 C281 1.401 1_556 S
C280 H301 0.930 . S
C281 C280 1.401 1_554 S
C281 C282 1.376 . S
C281 C290 1.511 . S
C282 C281 1.376 . S
C282 C283 1.392 . S
C282 H303 0.931 . S
C283 C282 1.392 . S
C283 C284 1.361 . S
C283 C285 1.500 . S
C284 C279 1.390 1_554 S
C284 C283 1.361 . S
C284 H302 0.931 . S
C285 C283 1.500 . S
C285 C286 1.371 . S
C285 C287 1.365 . S
C286 C285 1.371 . S
C286 C296 1.386 . S
C286 H304 0.931 . S
C287 C285 1.365 . S
C287 C288 1.409 . S
C287 H305 0.929 . S
C288 C287 1.409 . S
C288 C289 1.380 . S
C288 H306 0.930 . S
C289 C288 1.380 . S
C289 C296 1.357 . S
C290 C281 1.511 . S
C290 C291 1.341 . S
C290 C292 1.371 . S
C291 C290 1.341 . S
C291 C295 1.394 . S
C291 H307 0.930 1_554 S
C292 C290 1.371 . S
C292 C293 1.392 . S
C292 H308 0.931 . S
C293 C292 1.392 . S
C293 C294 1.331 . S
C293 H311 0.932 . S
C294 C293 1.331 . S
C294 C295 1.336 . S
C295 C291 1.394 . S
C295 C294 1.336 . S
C295 H310 0.929 . S
C296 C286 1.386 . S
C296 C289 1.357 . S
C296 H309 0.928 . S
H297 C273 0.931 . S
H298 C275 0.930 . S
H299 C277 0.929 . S
H300 C278 0.931 . S
H301 C280 0.930 . S
H302 C284 0.931 . S
H303 C282 0.931 . S
H304 C286 0.931 . S
H305 C287 0.929 . S
H306 C288 0.930 . S
H307 C291 0.930 1_556 S
H308 C292 0.931 . S
H309 C296 0.928 . S
H310 C295 0.929 . S
H311 C293 0.932 . S
Tb312 C322 2.825 . S
Tb312 O323 2.347 1_455 S
Tb312 O326 2.366 . S
Tb312 O331 2.418 . S
Tb312 O332 2.384 1_565 S
Tb312 O335 2.479 . S
Tb312 O336 2.471 . S
Eu313 O324 2.418 . S
Eu313 O325 2.384 1_545 S
Eu313 O328 2.479 . S
Eu313 O329 2.471 . S
Eu313 O330 2.347 1_655 S
Eu313 O333 2.366 . S
Eu313 C343 2.825 . S
C314 O330 1.259 1_565 S
C314 O331 1.265 . S
C315 O332 1.255 . S
C315 O333 1.265 1_455 S
C316 C318 1.380 . S
C316 C319 1.374 . S
C316 C322 1.507 . S
C317 C318 1.384 1_554 S
C317 C321 1.387 . S
C317 H344 0.930 . S
C318 C316 1.380 . S
C318 C317 1.384 1_556 S
C318 H345 0.931 . S
C319 C316 1.374 . S
C319 C320 1.390 1_556 S
C319 H346 0.930 1_455 S
C320 C319 1.390 1_554 S
C320 C321 1.391 . S
C320 H347 0.930 1_455 S
C321 C317 1.387 . S
C321 C320 1.391 . S
C322 Tb312 2.825 . S
C322 C316 1.507 . S
C322 O335 1.238 . S
C322 O336 1.247 . S
O323 Tb312 2.347 1_655 S
O323 C327 1.259 1_565 S
O324 Eu313 2.418 . S
O324 C327 1.265 . S
O325 Eu313 2.384 1_565 S
O325 C334 1.255 . S
O326 Tb312 2.366 . S
O326 C334 1.265 1_455 S
C327 O323 1.259 1_545 S
C327 O324 1.265 . S
O328 Eu313 2.479 . S
O328 C343 1.238 . S
O329 Eu313 2.471 . S
O329 C343 1.247 . S
O330 Eu313 2.347 1_455 S
O330 C314 1.259 1_545 S
O331 Tb312 2.418 . S
O331 C314 1.265 . S
O332 Tb312 2.384 1_545 S
O332 C315 1.255 . S
O333 Eu313 2.366 . S
O333 C315 1.265 1_655 S
C334 O325 1.255 . S
C334 O326 1.265 1_655 S
O335 Tb312 2.479 . S
O335 C322 1.238 . S
O336 Tb312 2.471 . S
O336 C322 1.247 . S
C337 C340 1.380 . S
C337 C341 1.374 . S
C337 C343 1.507 . S
C338 C339 1.387 . S
C338 C342 1.391 . S
C339 C338 1.387 . S
C339 C340 1.384 . S
C339 H348 0.930 . S
C340 C337 1.380 . S
C340 C339 1.384 . S
C340 H349 0.931 . S
C341 C337 1.374 . S
C341 C342 1.390 . S
C341 H350 0.930 1_655 S
C342 C338 1.391 . S
C342 C341 1.390 . S
C342 H351 0.930 1_655 S
C343 Eu313 2.825 . S
C343 O328 1.238 . S
C343 O329 1.247 . S
C343 C337 1.507 . S
H344 C317 0.930 . S
H345 C318 0.931 . S
H346 C319 0.930 1_655 S
H347 C320 0.930 1_655 S
H348 C339 0.930 . S
H349 C340 0.931 . S
H350 C341 0.930 1_455 S
H351 C342 0.930 1_455 S
Tb352 C362 2.825 . S
Tb352 O363 2.347 1_545 S
Tb352 O366 2.366 . S
Tb352 O371 2.418 . S
Tb352 O372 2.384 . S
Tb352 O375 2.479 . S
Tb352 O376 2.471 . S
Eu353 O364 2.418 . S
Eu353 O365 2.384 . S
Eu353 O368 2.479 . S
Eu353 O369 2.471 . S
Eu353 O370 2.347 1_565 S
Eu353 O373 2.366 . S
Eu353 C383 2.825 . S
C354 O370 1.259 . S
C354 O371 1.265 . S
C355 O372 1.255 . S
C355 O373 1.265 1_545 S
C356 C358 1.380 . S
C356 C359 1.374 . S
C356 C362 1.507 . S
C357 C358 1.384 1_554 S
C357 C361 1.387 . S
C357 H384 0.930 . S
C358 C356 1.380 . S
C358 C357 1.384 1_556 S
C358 H385 0.931 . S
C359 C356 1.374 . S
C359 C360 1.390 1_556 S
C359 H386 0.930 1_545 S
C360 C359 1.390 1_554 S
C360 C361 1.391 . S
C360 H387 0.930 1_545 S
C361 C357 1.387 . S
C361 C360 1.391 . S
C362 Tb352 2.825 . S
C362 C356 1.507 . S
C362 O375 1.238 . S
C362 O376 1.247 . S
O363 Tb352 2.347 1_565 S
O363 C367 1.259 . S
O364 Eu353 2.418 . S
O364 C367 1.265 . S
O365 Eu353 2.384 . S
O365 C374 1.255 . S
O366 Tb352 2.366 . S
O366 C374 1.265 1_545 S
C367 O363 1.259 . S
C367 O364 1.265 . S
O368 Eu353 2.479 . S
O368 C383 1.238 . S
O369 Eu353 2.471 . S
O369 C383 1.247 . S
O370 Eu353 2.347 1_545 S
O370 C354 1.259 . S
O371 Tb352 2.418 . S
O371 C354 1.265 . S
O372 Tb352 2.384 . S
O372 C355 1.255 . S
O373 Eu353 2.366 . S
O373 C355 1.265 1_565 S
C374 O365 1.255 . S
C374 O366 1.265 1_565 S
O375 Tb352 2.479 . S
O375 C362 1.238 . S
O376 Tb352 2.471 . S
O376 C362 1.247 . S
C377 C380 1.380 . S
C377 C381 1.374 . S
C377 C383 1.507 . S
C378 C379 1.387 . S
C378 C382 1.391 . S
C379 C378 1.387 . S
C379 C380 1.384 . S
C379 H388 0.930 . S
C380 C377 1.380 . S
C380 C379 1.384 . S
C380 H389 0.931 . S
C381 C377 1.374 . S
C381 C382 1.390 . S
C381 H390 0.930 1_565 S
C382 C378 1.391 . S
C382 C381 1.390 . S
C382 H391 0.930 1_565 S
C383 Eu353 2.825 . S
C383 O368 1.238 . S
C383 O369 1.247 . S
C383 C377 1.507 . S
H384 C357 0.930 . S
H385 C358 0.931 . S
H386 C359 0.930 1_565 S
H387 C360 0.930 1_565 S
H388 C379 0.930 . S
H389 C380 0.931 . S
H390 C381 0.930 1_545 S
H391 C382 0.930 1_545 S
Tb392 C402 2.825 . S
Tb392 O403 2.347 . S
Tb392 O406 2.366 . S
Tb392 O411 2.418 . S
Tb392 O412 2.384 . S
Tb392 O415 2.479 . S
Tb392 O416 2.471 . S
Eu393 O404 2.418 . S
Eu393 O405 2.384 . S
Eu393 O408 2.479 . S
Eu393 O409 2.471 . S
Eu393 O410 2.347 . S
Eu393 O413 2.366 . S
Eu393 C423 2.825 . S
C394 O410 1.259 . S
C394 O411 1.265 . S
C395 O412 1.255 . S
C395 O413 1.265 . S
C396 C398 1.380 . S
C396 C399 1.374 . S
C396 C402 1.507 . S
C397 C398 1.384 1_554 S
C397 C401 1.387 . S
C397 H424 0.930 . S
C398 C396 1.380 . S
C398 C397 1.384 1_556 S
C398 H425 0.931 . S
C399 C396 1.374 . S
C399 C400 1.390 1_556 S
C399 H426 0.930 . S
C400 C399 1.390 1_554 S
C400 C401 1.391 . S
C400 H427 0.930 . S
C401 C397 1.387 . S
C401 C400 1.391 . S
C402 Tb392 2.825 . S
C402 C396 1.507 . S
C402 O415 1.238 . S
C402 O416 1.247 . S
O403 Tb392 2.347 . S
O403 C407 1.259 . S
O404 Eu393 2.418 . S
O404 C407 1.265 . S
O405 Eu393 2.384 . S
O405 C414 1.255 . S
O406 Tb392 2.366 . S
O406 C414 1.265 . S
C407 O403 1.259 . S
C407 O404 1.265 . S
O408 Eu393 2.479 . S
O408 C423 1.238 . S
O409 Eu393 2.471 . S
O409 C423 1.247 . S
O410 Eu393 2.347 . S
O410 C394 1.259 . S
O411 Tb392 2.418 . S
O411 C394 1.265 . S
O412 Tb392 2.384 . S
O412 C395 1.255 . S
O413 Eu393 2.366 . S
O413 C395 1.265 . S
C414 O405 1.255 . S
C414 O406 1.265 . S
O415 Tb392 2.479 . S
O415 C402 1.238 . S
O416 Tb392 2.471 . S
O416 C402 1.247 . S
C417 C420 1.380 . S
C417 C421 1.374 . S
C417 C423 1.507 . S
C418 C419 1.387 . S
C418 C422 1.391 . S
C419 C418 1.387 . S
C419 C420 1.384 . S
C419 H428 0.930 . S
C420 C417 1.380 . S
C420 C419 1.384 . S
C420 H429 0.931 . S
C421 C417 1.374 . S
C421 C422 1.390 . S
C421 H430 0.930 . S
C422 C418 1.391 . S
C422 C421 1.390 . S
C422 H431 0.930 . S
C423 Eu393 2.825 . S
C423 O408 1.238 . S
C423 O409 1.247 . S
C423 C417 1.507 . S
H424 C397 0.930 . S
H425 C398 0.931 . S
H426 C399 0.930 . S
H427 C400 0.930 . S
H428 C419 0.930 . S
H429 C420 0.931 . S
H430 C421 0.930 . S
H431 C422 0.930 . S
Tb432 C442 2.825 . S
Tb432 O443 2.347 . S
Tb432 O446 2.366 . S
Tb432 O451 2.418 . S
Tb432 O452 2.384 1_655 S
Tb432 O455 2.479 . S
Tb432 O456 2.471 . S
Eu433 O444 2.418 . S
Eu433 O445 2.384 1_455 S
Eu433 O448 2.479 . S
Eu433 O449 2.471 . S
Eu433 O450 2.347 . S
Eu433 O453 2.366 . S
Eu433 C463 2.825 . S
C434 O450 1.259 1_655 S
C434 O451 1.265 . S
C435 O452 1.255 . S
C435 O453 1.265 . S
C436 C438 1.380 . S
C436 C439 1.374 . S
C436 C442 1.507 . S
C437 C438 1.384 1_554 S
C437 C441 1.387 . S
C437 H464 0.930 . S
C438 C436 1.380 . S
C438 C437 1.384 1_556 S
C438 H465 0.931 . S
C439 C436 1.374 . S
C439 C440 1.390 1_556 S
C439 H466 0.930 . S
C440 C439 1.390 1_554 S
C440 C441 1.391 . S
C440 H467 0.930 . S
C441 C437 1.387 . S
C441 C440 1.391 . S
C442 Tb432 2.825 . S
C442 C436 1.507 . S
C442 O455 1.238 . S
C442 O456 1.247 . S
O443 Tb432 2.347 . S
O443 C447 1.259 1_655 S
O444 Eu433 2.418 . S
O444 C447 1.265 . S
O445 Eu433 2.384 1_655 S
O445 C454 1.255 . S
O446 Tb432 2.366 . S
O446 C454 1.265 . S
C447 O443 1.259 1_455 S
C447 O444 1.265 . S
O448 Eu433 2.479 . S
O448 C463 1.238 . S
O449 Eu433 2.471 . S
O449 C463 1.247 . S
O450 Eu433 2.347 . S
O450 C434 1.259 1_455 S
O451 Tb432 2.418 . S
O451 C434 1.265 . S
O452 Tb432 2.384 1_455 S
O452 C435 1.255 . S
O453 Eu433 2.366 . S
O453 C435 1.265 . S
C454 O445 1.255 . S
C454 O446 1.265 . S
O455 Tb432 2.479 . S
O455 C442 1.238 . S
O456 Tb432 2.471 . S
O456 C442 1.247 . S
C457 C460 1.380 . S
C457 C461 1.374 . S
C457 C463 1.507 . S
C458 C459 1.387 . S
C458 C462 1.391 . S
C459 C458 1.387 . S
C459 C460 1.384 . S
C459 H468 0.930 . S
C460 C457 1.380 . S
C460 C459 1.384 . S
C460 H469 0.931 . S
C461 C457 1.374 . S
C461 C462 1.390 . S
C461 H470 0.930 . S
C462 C458 1.391 . S
C462 C461 1.390 . S
C462 H471 0.930 . S
C463 Eu433 2.825 . S
C463 O448 1.238 . S
C463 O449 1.247 . S
C463 C457 1.507 . S
H464 C437 0.930 . S
H465 C438 0.931 . S
H466 C439 0.930 . S
H467 C440 0.930 . S
H468 C459 0.930 . S
H469 C460 0.931 . S
H470 C461 0.930 . S
H471 C462 0.930 . S
C472 C473 1.387 . S
C472 H476 0.950 . S
C472 C481 1.390 . S
C473 C472 1.387 . S
C473 C475 1.388 1_545 S
H474 C481 0.950 . S
C475 C473 1.388 1_565 S
C475 C477 1.390 . S
C475 H479 0.950 . S
H476 C472 0.950 . S
C477 C475 1.390 . S
C477 C478 1.387 1_565 S
C477 H480 0.950 . S
C478 C477 1.387 1_545 S
C478 C481 1.388 . S
H479 C475 0.950 . S
H480 C477 0.950 . S
C481 C472 1.390 . S
C481 H474 0.950 . S
C481 C478 1.388 . S
C482 C483 1.387 . S
C482 H486 0.950 . S
C482 C491 1.390 . S
C483 C482 1.387 . S
C483 C485 1.387 . S
H484 C491 0.950 . S
C485 C483 1.387 . S
C485 C487 1.390 . S
C485 H489 0.950 . S
H486 C482 0.950 . S
C487 C485 1.390 . S
C487 C488 1.387 . S
C487 H490 0.950 . S
C488 C487 1.387 . S
C488 C491 1.387 . S
H489 C485 0.950 . S
H490 C487 0.950 . S
C491 C482 1.390 . S
C491 H484 0.950 . S
C491 C488 1.387 . S
C492 C493 1.387 . S
C492 H496 0.950 . S
C492 C501 1.390 . S
C493 C492 1.387 . S
C493 C495 1.387 . S
H494 C501 0.950 . S
C495 C493 1.387 . S
C495 C497 1.390 . S
C495 H499 0.950 . S
H496 C492 0.950 . S
C497 C495 1.390 . S
C497 C498 1.387 . S
C497 H500 0.950 . S
C498 C497 1.387 . S
C498 C501 1.387 . S
H499 C495 0.950 . S
H500 C497 0.950 . S
C501 C492 1.390 . S
C501 H494 0.950 . S
C501 C498 1.387 . S
C502 C503 1.406 . S
C502 H506 0.950 . S
C502 C511 1.390 . S
C503 C502 1.406 . S
C503 C505 1.370 1_455 S
H504 C511 0.950 . S
C505 C503 1.370 1_655 S
C505 C507 1.390 . S
C505 H509 0.950 . S
H506 C502 0.950 . S
C507 C505 1.390 . S
C507 C508 1.387 1_655 S
C507 H510 0.950 . S
C508 C507 1.387 1_455 S
C508 C511 1.387 . S
H509 C505 0.950 . S
H510 C507 0.950 . S
C511 C502 1.390 . S
C511 H504 0.950 . S
C511 C508 1.387 . S
C512 C513 1.388 1_565 S
C512 H516 0.950 . S
C512 C521 1.390 . S
C513 C512 1.388 1_545 S
C513 C515 1.387 . S
H514 C521 0.950 . S
C515 C513 1.387 . S
C515 C517 1.390 . S
C515 H519 0.950 . S
H516 C512 0.950 . S
C517 C515 1.390 . S
C517 C518 1.381 1_554 S
C517 H520 0.950 . S
C518 C517 1.381 1_556 S
C518 C521 1.383 1_546 S
H519 C515 0.950 . S
H520 C517 0.950 . S
C521 C512 1.390 . S
C521 H514 0.950 . S
C521 C518 1.383 1_564 S
C522 C523 1.387 . S
C522 H526 0.950 . S
C522 C531 1.390 . S
C523 C522 1.387 . S
C523 C525 1.387 . S
H524 C531 0.950 . S
C525 C523 1.387 . S
C525 C527 1.390 . S
C525 H529 0.950 . S
H526 C522 0.950 . S
C527 C525 1.390 . S
C527 C528 1.387 . S
C527 H530 0.950 . S
C528 C527 1.387 . S
C528 C531 1.387 . S
H529 C525 0.950 . S
H530 C527 0.950 . S
C531 C522 1.390 . S
C531 H524 0.950 . S
C531 C528 1.387 . S
C532 C533 1.387 . S
C532 H536 0.950 . S
C532 C541 1.390 . S
C533 C532 1.387 . S
C533 C535 1.387 . S
H534 C541 0.950 . S
C535 C533 1.387 . S
C535 C537 1.390 . S
C535 H539 0.950 . S
H536 C532 0.950 . S
C537 C535 1.390 . S
C537 C538 1.391 . S
C537 H540 0.950 . S
C538 C537 1.391 . S
C538 C541 1.392 . S
H539 C535 0.950 . S
H540 C537 0.950 . S
C541 C532 1.390 . S
C541 H534 0.950 . S
C541 C538 1.392 . S
C542 C543 1.370 1_455 S
C542 H546 0.950 . S
C542 C551 1.390 . S
C543 C542 1.370 1_655 S
C543 C545 1.405 . S
H544 C551 0.950 . S
C545 C543 1.405 . S
C545 C547 1.390 . S
C545 H549 0.950 . S
H546 C542 0.950 . S
C547 C545 1.390 . S
C547 C548 1.387 1_554 S
C547 H550 0.950 . S
C548 C547 1.387 1_556 S
C548 C551 1.387 1_656 S
H549 C545 0.950 . S
H550 C547 0.950 . S
C551 C542 1.390 . S
C551 H544 0.950 . S
C551 C548 1.387 1_454 S
C552 C553 1.386 1_655 S
C552 H556 0.950 . S
C552 C561 1.390 . S
C553 C552 1.386 1_455 S
C553 C555 1.387 1_455 S
H554 C561 0.950 . S
C555 C553 1.387 1_655 S
C555 C557 1.390 . S
C555 H559 0.950 1_655 S
H556 C552 0.950 . S
C557 C555 1.390 . S
C557 C558 1.387 . S
C557 H560 0.950 . S
C558 C557 1.387 . S
C558 C561 1.387 . S
H559 C555 0.950 1_455 S
H560 C557 0.950 . S
C561 C552 1.390 . S
C561 H554 0.950 . S
C561 C558 1.387 . S
C562 C563 1.383 1_565 S
C562 H566 0.950 . S
C562 C571 1.390 . S
C563 C562 1.383 1_545 S
C563 C565 1.387 1_545 S
H564 C571 0.950 . S
C565 C563 1.387 1_565 S
C565 C567 1.390 . S
C565 H569 0.950 1_565 S
H566 C562 0.950 . S
C567 C565 1.390 . S
C567 C568 1.387 . S
C567 H570 0.950 . S
C568 C567 1.387 . S
C568 C571 1.387 . S
H569 C565 0.950 1_545 S
H570 C567 0.950 . S
C571 C562 1.390 . S
C571 H564 0.950 . S
C571 C568 1.387 . S
C572 C573 1.387 . S
C572 H576 0.950 . S
C572 C581 1.390 . S
C573 C572 1.387 . S
C573 C575 1.387 . S
H574 C581 0.950 . S
C575 C573 1.387 . S
C575 C577 1.390 . S
C575 H579 0.950 . S
H576 C572 0.950 . S
C577 C575 1.390 . S
C577 C578 1.387 . S
C577 H580 0.950 . S
C578 C577 1.387 . S
C578 C581 1.387 . S
H579 C575 0.950 . S
H580 C577 0.950 . S
C581 C572 1.390 . S
C581 H574 0.950 . S
C581 C578 1.387 . S
C582 C583 1.387 . S
C582 H586 0.950 . S
C582 C591 1.390 . S
C583 C582 1.387 . S
C583 C585 1.387 . S
H584 C591 0.950 . S
C585 C583 1.387 . S
C585 C587 1.390 . S
C585 H589 0.950 . S
H586 C582 0.950 . S
C587 C585 1.390 . S
C587 C588 1.387 . S
C587 H590 0.950 . S
C588 C587 1.387 . S
C588 C591 1.387 . S
H589 C585 0.950 . S
H590 C587 0.950 . S
C591 C582 1.390 . S
C591 H584 0.950 . S
C591 C588 1.387 . S
C592 C593 1.387 1_455 S
C592 H596 0.950 1_454 S
C592 C601 1.390 1_554 S
C593 C592 1.387 1_655 S
C593 C595 1.386 1_655 S
H594 C601 0.950 . S
C595 C593 1.386 1_455 S
C595 C597 1.390 . S
C595 H599 0.950 . S
H596 C592 0.950 1_656 S
C597 C595 1.390 . S
C597 C598 1.387 . S
C597 H600 0.950 . S
C598 C597 1.387 . S
C598 C601 1.387 1_554 S
H599 C595 0.950 . S
H600 C597 0.950 . S
C601 C592 1.390 1_556 S
C601 H594 0.950 . S
C601 C598 1.387 1_556 S
C602 C603 1.383 1_545 S
C602 H606 0.950 . S
C602 C611 1.390 . S
C603 C602 1.383 1_565 S
C603 C605 1.388 . S
H604 C611 0.950 . S
C605 C603 1.388 . S
C605 C607 1.389 1_565 S
C605 H609 0.951 1_554 S
H606 C602 0.950 . S
C607 C605 1.389 1_545 S
C607 C608 1.387 . S
C607 H610 0.950 1_554 S
C608 C607 1.387 . S
C608 C611 1.387 . S
H609 C605 0.951 1_556 S
H610 C607 0.950 1_556 S
C611 C602 1.390 . S
C611 H604 0.950 . S
C611 C608 1.387 . S
C612 C613 1.387 . S
C612 H616 0.950 . S
C612 C621 1.390 . S
C613 C612 1.387 . S
C613 C615 1.387 . S
H614 C621 0.950 . S
C615 C613 1.387 . S
C615 C617 1.390 . S
C615 H619 0.950 1_554 S
H616 C612 0.950 . S
C617 C615 1.390 . S
C617 C618 1.387 . S
C617 H620 0.950 1_554 S
C618 C617 1.387 . S
C618 C621 1.387 . S
H619 C615 0.950 1_556 S
H620 C617 0.950 1_556 S
C621 C612 1.390 . S
C621 H614 0.950 . S
C621 C618 1.387 . S
C622 C623 1.387 . S
C622 H626 0.950 . S
C622 C631 1.390 . S
C623 C622 1.387 . S
C623 C625 1.387 . S
H624 C631 0.950 . S
C625 C623 1.387 . S
C625 C627 1.390 . S
C625 H629 0.950 1_554 S
H626 C622 0.950 . S
C627 C625 1.390 . S
C627 C628 1.387 . S
C627 H630 0.950 1_554 S
C628 C627 1.387 . S
C628 C631 1.387 . S
H629 C625 0.950 1_556 S
H630 C627 0.950 1_556 S
C631 C622 1.390 . S
C631 H624 0.950 . S
C631 C628 1.387 . S
C632 C633 1.387 . S
C632 H636 0.950 . S
C632 C641 1.390 . S
C633 C632 1.387 . S
C633 C635 1.387 . S
H634 C641 0.950 . S
C635 C633 1.387 . S
C635 C637 1.390 . S
C635 H639 0.951 1_455 S
H636 C632 0.950 . S
C637 C635 1.390 . S
C637 C638 1.387 . S
C637 H640 0.950 1_455 S
C638 C637 1.387 . S
C638 C641 1.387 . S
H639 C635 0.951 1_655 S
H640 C637 0.950 1_655 S
C641 C632 1.390 . S
C641 H634 0.950 . S
C641 C638 1.387 . S
C642 C643 1.387 1_565 S
C642 H646 0.950 . S
C642 C651 1.390 . S
C643 C642 1.387 1_545 S
C643 C645 1.387 . S
H644 C651 0.950 . S
C645 C643 1.387 . S
C645 C647 1.390 . S
C645 H649 0.950 . S
H646 C642 0.950 . S
C647 C645 1.390 . S
C647 C648 1.387 . S
C647 H650 0.950 . S
C648 C647 1.387 . S
C648 C651 1.387 1_545 S
H649 C645 0.950 . S
H650 C647 0.950 . S
C651 C642 1.390 . S
C651 H644 0.950 . S
C651 C648 1.387 1_565 S
C652 C653 1.387 . S
C652 H656 0.950 . S
C652 C661 1.390 . S
C653 C652 1.387 . S
C653 C655 1.387 . S
H654 C661 0.950 . S
C655 C653 1.387 . S
C655 C657 1.390 . S
C655 H659 0.950 . S
H656 C652 0.950 . S
C657 C655 1.390 . S
C657 C658 1.387 . S
C657 H660 0.950 . S
C658 C657 1.387 . S
C658 C661 1.387 . S
H659 C655 0.950 . S
H660 C657 0.950 . S
C661 C652 1.390 . S
C661 H654 0.950 . S
C661 C658 1.387 . S
C662 C663 1.387 . S
C662 H666 0.950 . S
C662 C671 1.390 . S
C663 C662 1.387 . S
C663 C665 1.387 . S
H664 C671 0.950 . S
C665 C663 1.387 . S
C665 C667 1.390 . S
C665 H669 0.950 . S
H666 C662 0.950 . S
C667 C665 1.390 . S
C667 C668 1.387 . S
C667 H670 0.950 . S
C668 C667 1.387 . S
C668 C671 1.387 . S
H669 C665 0.950 . S
H670 C667 0.950 . S
C671 C662 1.390 . S
C671 H664 0.950 . S
C671 C668 1.387 . S
C672 C673 1.387 . S
C672 H676 0.950 . S
C672 C681 1.390 . S
C673 C672 1.387 . S
C673 C675 1.387 1_655 S
H674 C681 0.950 . S
C675 C673 1.387 1_455 S
C675 C677 1.390 . S
C675 H679 0.950 . S
H676 C672 0.950 . S
C677 C675 1.390 . S
C677 C678 1.387 1_455 S
C677 H680 0.950 . S
C678 C677 1.387 1_655 S
C678 C681 1.387 . S
H679 C675 0.950 . S
H680 C677 0.950 . S
C681 C672 1.390 . S
C681 H674 0.950 . S
C681 C678 1.387 . S
C682 C683 1.387 . S
C682 H686 0.950 . S
C682 C691 1.390 . S
C683 C682 1.387 . S
C683 C685 1.387 1_565 S
H684 C691 0.950 . S
C685 C683 1.387 1_545 S
C685 C687 1.390 . S
C685 H689 0.950 . S
H686 C682 0.950 . S
C687 C685 1.390 . S
C687 C688 1.387 1_545 S
C687 H690 0.950 . S
C688 C687 1.387 1_565 S
C688 C691 1.387 . S
H689 C685 0.950 . S
H690 C687 0.950 . S
C691 C682 1.390 . S
C691 H684 0.950 . S
C691 C688 1.387 . S
C692 C693 1.387 . S
C692 H696 0.950 . S
C692 C701 1.390 . S
C693 C692 1.387 . S
C693 C695 1.387 . S
H694 C701 0.950 . S
C695 C693 1.387 . S
C695 C697 1.390 . S
C695 H699 0.950 . S
H696 C692 0.950 . S
C697 C695 1.390 . S
C697 C698 1.387 . S
C697 H700 0.950 . S
C698 C697 1.387 . S
C698 C701 1.387 . S
H699 C695 0.950 . S
H700 C697 0.950 . S
C701 C692 1.390 . S
C701 H694 0.950 . S
C701 C698 1.387 . S
C702 C703 1.387 . S
C702 H706 0.950 . S
C702 C711 1.390 . S
C703 C702 1.387 . S
C703 C705 1.387 . S
H704 C711 0.950 . S
C705 C703 1.387 . S
C705 C707 1.390 . S
C705 H709 0.950 . S
H706 C702 0.950 . S
C707 C705 1.390 . S
C707 C708 1.387 . S
C707 H710 0.950 . S
C708 C707 1.387 . S
C708 C711 1.387 . S
H709 C705 0.950 . S
H710 C707 0.950 . S
C711 C702 1.390 . S
C711 H704 0.950 . S
C711 C708 1.387 . S
C473 C255 2.541 1_545 S
C478 C314 2.861 1_545 S
C488 C354 2.895 . S
C483 C294 2.538 . S
C498 C394 2.887 . S
C493 C177 2.577 . S
C508 C434 2.871 1_455 S
C503 C216 2.554 1_455 S
C518 C327 2.874 . S
C513 C99 2.547 1_545 S
C523 C138 2.543 . S
C528 C367 2.896 1_554 S
C533 C21 2.573 . S
C538 C407 2.879 1_554 S
C543 C60 2.554 . S
C548 C447 2.872 1_655 S
C558 C338 0.740 . S
C553 C196 0.738 1_455 S
C568 C378 0.735 . S
C563 C235 0.737 1_545 S
C578 C418 0.690 . S
C573 C289 0.693 . S
C583 C157 0.706 . S
C588 C458 0.703 . S
C593 C40 0.741 . S
C598 C321 0.743 . S
C608 C361 0.743 . S
C603 C79 0.741 . S
C618 C401 0.698 . S
C613 C133 0.698 . S
C623 C1 0.705 . S
C628 C441 0.711 . S
C633 C211 3.211 . S
C638 C315 3.716 . S
C643 C250 3.167 . S
C648 C355 3.681 . S
C658 C395 3.678 . S
C653 C274 3.168 . S
C668 C435 3.708 . S
C663 C172 3.191 . S
C673 C55 3.211 1_655 S
C678 C334 3.724 . S
C688 C374 3.681 . S
C683 C94 3.167 1_565 S
C698 C414 3.679 . S
C693 C118 3.173 . S
C703 C16 3.195 . S
C708 C454 3.712 . S
