# Generated by pormake.
# Topology anh, (6,3)-cn, num edge types: 1
# Building blocks:
#     Node 0, Type 0, BuildingBlock: BETFAJ_clean_sbu_0, # of connection points: 6
#     Node 1, Type 0, BuildingBlock: BETFAJ_clean_sbu_0, # of connection points: 6
#     Node 2, Type 0, BuildingBlock: BETFAJ_clean_sbu_0, # of connection points: 6
#     Node 3, Type 1, BuildingBlock: QEWDON_clean_linker_0, # of connection points: 3
#     Node 4, Type 1, BuildingBlock: QEWDON_clean_linker_0, # of connection points: 3
#     Node 5, Type 1, BuildingBlock: QEWDON_clean_linker_0, # of connection points: 3
#     Node 6, Type 1, BuildingBlock: QEWDON_clean_linker_0, # of connection points: 3
#     Node 7, Type 1, BuildingBlock: QEWDON_clean_linker_0, # of connection points: 3
#     Node 8, Type 1, BuildingBlock: QEWDON_clean_linker_0, # of connection points: 3
#     Edge 9, Type (0, 1), BuildingBlock: KIFKEQ_clean_linker_1, # of connection points: 2
#     Edge 10, Type (0, 1), BuildingBlock: KIFKEQ_clean_linker_1, # of connection points: 2
#     Edge 11, Type (0, 1), BuildingBlock: KIFKEQ_clean_linker_1, # of connection points: 2
#     Edge 12, Type (0, 1), BuildingBlock: KIFKEQ_clean_linker_1, # of connection points: 2
#     Edge 13, Type (0, 1), BuildingBlock: KIFKEQ_clean_linker_1, # of connection points: 2
#     Edge 14, Type (0, 1), BuildingBlock: KIFKEQ_clean_linker_1, # of connection points: 2
#     Edge 15, Type (0, 1), BuildingBlock: KIFKEQ_clean_linker_1, # of connection points: 2
#     Edge 16, Type (0, 1), BuildingBlock: KIFKEQ_clean_linker_1, # of connection points: 2
#     Edge 17, Type (0, 1), BuildingBlock: KIFKEQ_clean_linker_1, # of connection points: 2
#     Edge 18, Type (0, 1), BuildingBlock: KIFKEQ_clean_linker_1, # of connection points: 2
#     Edge 19, Type (0, 1), BuildingBlock: KIFKEQ_clean_linker_1, # of connection points: 2
#     Edge 20, Type (0, 1), BuildingBlock: KIFKEQ_clean_linker_1, # of connection points: 2
#     Edge 21, Type (0, 1), BuildingBlock: KIFKEQ_clean_linker_1, # of connection points: 2
#     Edge 22, Type (0, 1), BuildingBlock: KIFKEQ_clean_linker_1, # of connection points: 2
#     Edge 23, Type (0, 1), BuildingBlock: KIFKEQ_clean_linker_1, # of connection points: 2
#     Edge 24, Type (0, 1), BuildingBlock: KIFKEQ_clean_linker_1, # of connection points: 2
#     Edge 25, Type (0, 1), BuildingBlock: KIFKEQ_clean_linker_1, # of connection points: 2
#     Edge 26, Type (0, 1), BuildingBlock: KIFKEQ_clean_linker_1, # of connection points: 2
# Relax obj value: 0.135
# Max RMSD: 0.174
# Mean RMSD: 0.127
data_MOF--net-anh--node1-BETFAJ_clean_sbu_0--node2-QEWDON_clean_linker_0--edge1-KIFKEQ_clean_linker_1
_symmetry_space_group_name_H-M    P1
_symmetry_Int_Tables_number       1
_symmetry_cell_setting            triclinic
loop_
_symmetry_equiv_pos_as_xyz
'x, y, z'
_cell_length_a     33.056039
_cell_length_b     40.286989
_cell_length_c     48.959586
_cell_angle_alpha  94.808733
_cell_angle_beta   91.0685
_cell_angle_gamma 129.91182
loop_
_atom_site_label
_atom_site_type_symbol
_atom_site_fract_x
_atom_site_fract_y
_atom_site_fract_z
_atom_type_partial_charge
Sm0 Sm 0.15334 0.53497 0.14397 0.0
Sm1 Sm 0.08915 0.55948 0.1655 0.0
C2 C 0.22202 0.53352 0.11887 0.0
C3 C 0.27839 0.57018 0.11651 0.0
C4 C 0.29863 0.57826 0.09074 0.0
C5 C 0.35166 0.61442 0.08858 0.0
C6 C 0.38523 0.64302 0.11221 0.0
C7 C 0.36433 0.63503 0.13786 0.0
C8 C 0.31159 0.59927 0.13997 0.0
C9 C 0.14414 0.53379 0.19961 0.0
C10 C 0.21398 0.64012 0.15868 0.0
C11 C 1.04189 0.58115 0.19537 0.0
C12 C 0.98695 0.55977 0.20046 0.0
C13 C 0.94852 0.51411 0.19853 0.0
C14 C 0.89557 0.49403 0.20153 0.0
C15 C 0.88017 0.51929 0.2062 0.0
C16 C 0.91942 0.56513 0.20911 0.0
C17 C 0.9723 0.58512 0.20632 0.0
C18 C 1.07452 0.53786 0.10907 0.0
C19 C 1.0309 0.45639 0.15136 0.0
O20 O 0.18815 0.53443 0.10557 0.0
O21 O 0.20954 0.52249 0.14362 0.0
O22 O 0.15271 0.56237 0.18578 0.0
O23 O 0.14107 0.50428 0.18417 0.0
O24 O 0.21845 0.61027 0.15145 0.0
O25 O 0.16824 0.62912 0.16472 0.0
O26 O 1.06087 0.56382 0.20504 0.0
O27 O 1.05486 0.59213 0.17058 0.0
O28 O 0.11783 0.56033 0.12391 0.0
O29 O 1.03646 0.52714 0.12396 0.0
O30 O 1.03498 0.48563 0.16867 0.0
O31 O 1.06864 0.46846 0.13505 0.0
H32 H 0.27344 0.55669 0.07233 0.0
H33 H 0.36645 0.61978 0.06848 0.0
H34 H 0.38906 0.65567 0.15659 0.0
H35 H 0.29696 0.59448 0.16011 0.0
H36 H 0.9592 0.49395 0.19404 0.0
H37 H 0.86652 0.45876 0.19934 0.0
H38 H 0.90909 0.58574 0.21204 0.0
H39 H 1.00149 0.62037 0.20782 0.0
Sm40 Sm 0.69142 0.05972 0.48251 0.0
Sm41 Sm 0.61496 0.08048 0.46668 0.0
C42 C 0.73356 0.02885 0.50434 0.0
C43 C 0.71608 0.98495 0.50594 0.0
C44 C 0.73133 0.9764 0.52945 0.0
C45 C 0.71475 0.9348 0.53122 0.0
C46 C 0.68265 0.90087 0.50941 0.0
C47 C 0.66742 0.90975 0.48589 0.0
C48 C 0.68366 0.95119 0.48425 0.0
C49 C 0.67894 0.06531 0.42799 0.0
C50 C 0.56019 0.97808 0.46978 0.0
C51 C 0.56781 0.10496 0.44199 0.0
C52 C 0.56579 0.14041 0.44896 0.0
C53 C 0.58757 0.17384 0.43213 0.0
C54 C 0.58977 0.20935 0.43968 0.0
C55 C 0.5701 0.21216 0.46424 0.0
C56 C 0.54689 0.17794 0.4806 0.0
C57 C 0.54491 0.14264 0.47314 0.0
C58 C 0.63738 0.09315 0.52333 0.0
C59 C 0.74587 0.16026 0.47813 0.0
O60 O 0.70875 0.03886 0.51848 0.0
O61 O 0.74237 0.04189 0.4799 0.0
O62 O 0.64276 0.04824 0.4441 0.0
O63 O 0.72262 0.07725 0.44001 0.0
O64 O 0.60741 0.99167 0.47867 0.0
O65 O 0.55321 1.00511 0.46222 0.0
O66 O 0.61379 0.11731 0.43576 0.0
O67 O 0.54346 0.0731 0.45742 0.0
O68 O 0.65324 0.08157 0.50491 0.0
O69 O 0.60775 0.09955 0.51168 0.0
O70 O 0.70046 0.14466 0.46475 0.0
O71 O 0.75094 0.13505 0.4908 0.0
H72 H 0.75595 1.0019 0.54653 0.0
H73 H 0.72656 0.92916 0.54986 0.0
H74 H 0.64345 0.88484 0.46848 0.0
H75 H 0.67099 0.95686 0.46594 0.0
H76 H 0.60401 0.17299 0.41341 0.0
H77 H 0.60825 0.23519 0.42666 0.0
H78 H 0.53032 0.17846 0.49935 0.0
H79 H 0.52775 0.11748 0.48662 0.0
Sm80 Sm 0.64792 0.59575 0.82653 0.0
Sm81 Sm 0.57437 0.50296 0.83599 0.0
C82 C 0.69192 0.67098 0.80738 0.0
C83 C 0.67936 0.69984 0.80511 0.0
C84 C 0.69958 0.72742 0.78446 0.0
C85 C 0.68763 0.75473 0.78187 0.0
C86 C 0.65522 0.75507 0.79997 0.0
C87 C 0.63509 0.72725 0.8207 0.0
C88 C 0.64685 0.69981 0.82316 0.0
C89 C 0.64782 0.58416 0.88069 0.0
C90 C 0.52027 0.54825 0.8366 0.0
C91 C 0.53113 0.42545 0.85088 0.0
C92 C 0.53879 0.39347 0.84361 0.0
C93 C 0.54752 0.37621 0.86441 0.0
C94 C 0.55683 0.34721 0.85779 0.0
C95 C 0.55745 0.3347 0.83015 0.0
C96 C 0.54834 0.35194 0.80937 0.0
C97 C 0.53944 0.38111 0.81601 0.0
C98 C 0.57723 0.5153 0.78144 0.0
C99 C 0.70391 0.55214 0.83106 0.0
O100 O 0.66115 0.63327 0.79191 0.0
O101 O 0.70375 0.66814 0.83223 0.0
O102 O 0.60673 0.56358 0.86409 0.0
O103 O 0.69038 0.61318 0.8693 0.0
O104 O 0.56515 0.58012 0.82656 0.0
O105 O 0.51568 0.51566 0.84526 0.0
O106 O 0.57064 0.46205 0.86555 0.0
O107 O 0.5093 0.43123 0.8314 0.0
O108 O 0.61713 0.53535 0.79874 0.0
O109 O 0.53417 0.48638 0.7924 0.0
O110 O 0.65684 0.51873 0.83828 0.0
O111 O 0.71046 0.58583 0.82285 0.0
H112 H 0.72443 0.72767 0.7702 0.0
H113 H 0.70312 0.77504 0.76538 0.0
H114 H 0.61061 0.72691 0.83526 0.0
H115 H 0.63061 0.67861 0.8392 0.0
H116 H 0.5477 0.38554 0.88585 0.0
H117 H 0.56441 0.3352 0.8744 0.0
H118 H 0.54758 0.34263 0.78785 0.0
H119 H 0.53326 0.39408 0.79946 0.0
H120 H 0.6446 0.08645 0.21287 0.0
C121 C 0.61543 0.05215 0.20505 0.0
C122 C 0.59649 0.02103 0.22337 0.0
C123 C 0.59628 0.03919 0.17697 0.0
H124 H 0.54198 0.95289 0.22827 0.0
C125 C 0.55757 0.97657 0.21376 0.0
C126 C 0.53651 0.96249 0.18612 0.0
C127 C 0.55642 0.99398 0.16778 0.0
C128 C 0.61595 0.07282 0.15766 0.0
H129 H 0.54107 0.98302 0.1463 0.0
C130 C 0.66914 0.11276 0.16043 0.0
C131 C 0.68648 0.14414 0.14213 0.0
C132 C 0.58068 0.06541 0.13647 0.0
H133 H 0.53942 0.03614 0.13408 0.0
C134 C 0.59761 0.09613 0.11841 0.0
H135 H 0.69728 0.11916 0.17638 0.0
C136 C 0.64985 0.13504 0.12114 0.0
H137 H 0.66128 0.15853 0.10707 0.0
H138 H 0.56982 0.08995 0.10233 0.0
H139 H 0.57418 0.54905 0.56822 0.0
C140 C 0.57952 0.52693 0.55879 0.0
C141 C 0.58773 0.50481 0.57565 0.0
C142 C 0.57366 0.51779 0.5299 0.0
H143 H 0.59882 0.45782 0.57647 0.0
C144 C 0.59178 0.47441 0.56341 0.0
C145 C 0.58549 0.46427 0.5347 0.0
C146 C 0.57747 0.48676 0.51807 0.0
C147 C 0.55726 0.53659 0.51231 0.0
H148 H 0.57203 0.47881 0.4959 0.0
C149 C 0.57844 0.58033 0.51808 0.0
C150 C 0.55911 0.59624 0.50251 0.0
C151 C 0.51739 0.50959 0.4904 0.0
H152 H 0.49933 0.47566 0.48573 0.0
C153 C 0.49887 0.52552 0.47476 0.0
H154 H 0.60913 0.6017 0.53485 0.0
C155 C 0.51927 0.56841 0.48083 0.0
H156 H 0.50404 0.57998 0.46847 0.0
H157 H 0.46802 0.50432 0.45806 0.0
H158 H 0.12991 0.55554 0.89632 0.0
C159 C 0.09733 0.55165 0.88649 0.0
C160 C 1.05981 0.54683 0.90309 0.0
C161 C 0.09493 0.55373 0.85793 0.0
H162 H 0.98978 0.53999 0.90387 0.0
C163 C 1.01859 0.54404 0.89099 0.0
C164 C 1.01352 0.54662 0.86285 0.0
C165 C 1.05214 0.55139 0.84637 0.0
C166 C 0.13903 0.56115 0.8412 0.0
H167 H 1.04764 0.55224 0.82459 0.0
C168 C 0.17428 0.55308 0.8498 0.0
C169 C 0.21708 0.56398 0.83401 0.0
C170 C 0.14831 0.57938 0.8164 0.0
H171 H 0.12532 0.58777 0.80893 0.0
C172 C 0.18877 0.58892 0.80084 0.0
H173 H 0.1693 0.53904 0.86861 0.0
C174 C 0.22256 0.5816 0.80948 0.0
H175 H 0.25382 0.59016 0.7968 0.0
H176 H 0.19464 0.603 0.78191 0.0
H177 H 0.11167 0.53564 0.4174 0.0
C178 C 0.14891 0.56755 0.42475 0.0
C179 C 0.18537 0.59215 0.40567 0.0
C180 C 0.15969 0.58438 0.45279 0.0
H181 H 0.25952 0.65379 0.39929 0.0
C182 C 0.2327 0.63442 0.41441 0.0
C183 C 0.24403 0.65294 0.44195 0.0
C184 C 0.20784 0.62742 0.4611 0.0
C185 C 0.1193 0.55834 0.47286 0.0
H186 H 0.21765 0.64136 0.48247 0.0
C187 C 0.08318 0.51187 0.46954 0.0
C188 C 1.04322 0.48833 0.48766 0.0
C189 C 0.11492 0.58021 0.49504 0.0
H190 H 0.14 0.61538 0.49802 0.0
C191 C 1.07691 0.55711 0.51345 0.0
H192 H 0.08521 0.49391 0.45271 0.0
C193 C 1.04136 0.51173 0.50981 0.0
H194 H 1.01195 0.4948 0.52436 0.0
H195 H 1.07435 0.57456 0.53041 0.0
H196 H 0.60044 0.02372 0.73027 0.0
C197 C 0.60207 0.04953 0.74045 0.0
C198 C 0.6196 0.08541 0.72662 0.0
C199 C 0.58422 0.04571 0.76681 0.0
H200 H 0.63107 0.14481 0.72904 0.0
C201 C 0.62019 0.11813 0.7399 0.0
C202 C 0.60321 0.11529 0.76631 0.0
C203 C 0.58576 0.0792 0.77968 0.0
C204 C 0.55904 1.00493 0.77974 0.0
H205 H 0.57275 0.07698 0.8001 0.0
C206 C 0.57888 0.98251 0.77793 0.0
C207 C 0.55212 0.94251 0.78878 0.0
C208 C 0.51267 0.98694 0.79295 0.0
H209 H 0.49553 1.00255 0.79421 0.0
C210 C 0.48674 0.94783 0.80405 0.0
H211 H 0.61447 0.99571 0.76783 0.0
C212 C 0.50609 0.92566 0.80192 0.0
H213 H 0.48511 0.89527 0.81068 0.0
H214 H 0.45109 0.93438 0.81411 0.0
H215 H 0.69228 0.6543 0.09276 0.0
C216 C 0.68474 0.62802 0.10273 0.0
C217 C 0.66566 0.58929 0.0866 0.0
C218 C 0.69559 0.63375 0.13139 0.0
H219 H 0.64241 0.52575 0.08716 0.0
C220 C 0.65625 0.55544 0.09955 0.0
C221 C 0.66807 0.56079 0.12814 0.0
C222 C 0.68715 0.59993 0.14394 0.0
C223 C 0.71651 0.67551 0.14781 0.0
H224 H 0.69701 0.60466 0.16591 0.0
C225 C 0.69671 0.69617 0.1411 0.0
C226 C 0.7159 0.73587 0.15576 0.0
C227 C 0.75613 0.69525 0.16987 0.0
H228 H 0.77292 0.68059 0.17539 0.0
C229 C 0.77498 0.73465 0.18483 0.0
H230 H 0.66473 0.68055 0.12487 0.0
C231 C 0.75473 0.75485 0.17796 0.0
H232 H 0.76919 0.78503 0.18989 0.0
H233 H 0.8053 0.74952 0.20183 0.0
H234 H 0.45049 0.64001 0.08095 0.0
H235 H 0.45128 0.72521 0.14127 0.0
H236 H 0.54587 0.68745 0.08837 0.0
H237 H 0.54764 0.7725 0.1493 0.0
H238 H 0.66409 0.75175 0.1892 0.0
H239 H 0.59286 0.75051 0.17335 0.0
H240 H 0.63699 0.75725 0.09021 0.0
H241 H 0.70784 0.75779 0.1062 0.0
C242 C 0.4711 0.66979 0.095 0.0
C243 C 0.44306 0.67811 0.11105 0.0
C244 C 0.52613 0.69723 0.09927 0.0
C245 C 0.55429 0.73343 0.11979 0.0
C246 C 0.52687 0.74448 0.13366 0.0
C247 C 0.47171 0.7172 0.12917 0.0
C248 C 0.66033 0.75537 0.16784 0.0
C249 C 0.69042 0.75394 0.14878 0.0
C250 C 0.6195 0.75469 0.15868 0.0
C251 C 0.60847 0.75256 0.13036 0.0
C252 C 0.64399 0.758 0.11204 0.0
C253 C 0.68461 0.7585 0.12119 0.0
H254 H 0.74824 0.21982 0.45355 0.0
H255 H 0.8486 0.20889 0.50239 0.0
H256 H 0.82111 0.29703 0.45363 0.0
H257 H 0.92218 0.28737 0.50277 0.0
H258 H 1.0546 0.42621 0.477 0.0
H259 H 0.985 0.34642 0.47377 0.0
H260 H 0.86838 0.36148 0.48651 0.0
H261 H 0.93695 0.44009 0.48912 0.0
C262 C 0.78585 0.23378 0.46441 0.0
C263 C 0.79204 0.20774 0.47817 0.0
C264 C 0.82784 0.27841 0.46451 0.0
C265 C 0.87765 0.29882 0.47841 0.0
C266 C 0.8845 0.27278 0.4917 0.0
C267 C 0.84217 0.22779 0.49165 0.0
C268 C 1.01394 0.41227 0.47873 0.0
C269 C 1.00145 0.43962 0.4834 0.0
C270 C 0.97414 0.36661 0.4772 0.0
C271 C 0.92088 0.3473 0.47989 0.0
C272 C 0.90864 0.37486 0.48402 0.0
C273 C 0.94817 0.42014 0.48574 0.0
H274 H 0.7191 0.83866 0.78589 0.0
H275 H 0.56095 0.73681 0.80735 0.0
H276 H 0.69629 0.88463 0.78023 0.0
H277 H 0.53928 0.78356 0.80336 0.0
H278 H 0.49455 0.85683 0.76956 0.0
H279 H 0.52108 0.8128 0.77039 0.0
H280 H 0.67814 0.92698 0.80489 0.0
H281 H 0.65156 0.97128 0.8031 0.0
C282 C 0.67945 0.82598 0.78939 0.0
C283 C 0.64189 0.78382 0.79704 0.0
C284 C 0.66657 0.85264 0.78648 0.0
C285 C 0.61582 0.83792 0.7912 0.0
C286 C 0.57848 0.79588 0.79904 0.0
C287 C 0.59122 0.7692 0.80178 0.0
C288 C 0.5349 0.87255 0.77708 0.0
C289 C 0.57089 0.9174 0.78646 0.0
C290 C 0.55007 0.84727 0.77778 0.0
C291 C 0.60154 0.86602 0.7882 0.0
C292 C 0.63826 0.91136 0.79658 0.0
C293 C 0.62312 0.93682 0.79559 0.0
H294 H 0.79914 0.44799 0.171 0.0
H295 H 0.83194 0.54392 0.23601 0.0
H296 H 0.71727 0.43198 0.15611 0.0
H297 H 0.75228 0.53034 0.21983 0.0
H298 H 0.70038 0.51771 0.10626 0.0
H299 H 0.7246 0.48257 0.13047 0.0
H300 H 0.66352 0.4968 0.20379 0.0
H301 H 0.63845 0.53228 0.179 0.0
C302 C 0.78811 0.46461 0.18282 0.0
C303 C 0.82337 0.49879 0.20391 0.0
C304 C 0.74118 0.45562 0.17408 0.0
C305 C 0.72954 0.48139 0.18583 0.0
C306 C 0.76024 0.51027 0.20987 0.0
C307 C 0.80662 0.51867 0.21893 0.0
C308 C 0.68972 0.51173 0.12713 0.0
C309 C 0.66865 0.52888 0.14086 0.0
C310 C 0.70357 0.49121 0.14116 0.0
C311 C 0.69708 0.48758 0.16937 0.0
C312 C 0.67013 0.49998 0.18223 0.0
C313 C 0.65605 0.5205 0.16809 0.0
H314 H 0.56071 0.9113 0.47619 0.0
H315 H 0.45429 0.93606 0.45837 0.0
H316 H 0.48573 0.83333 0.47209 0.0
H317 H 0.37915 0.85776 0.45416 0.0
H318 H 0.2512 0.71687 0.47297 0.0
H319 H 0.32731 0.79512 0.48129 0.0
H320 H 0.42102 0.77358 0.43605 0.0
H321 H 0.34529 0.69556 0.42804 0.0
C322 C 0.52135 0.90025 0.47143 0.0
C323 C 0.51385 0.9303 0.46754 0.0
C324 C 0.47825 0.85533 0.46896 0.0
C325 C 0.4262 0.83903 0.46277 0.0
C326 C 0.41855 0.86908 0.45924 0.0
C327 C 0.46178 0.91405 0.46146 0.0
C328 C 0.28834 0.72877 0.46524 0.0
C329 C 0.29204 0.69983 0.44984 0.0
C330 C 0.33182 0.77373 0.46971 0.0
C331 C 0.38038 0.79089 0.45921 0.0
C332 C 0.3845 0.76167 0.44462 0.0
C333 C 0.34093 0.71688 0.4399 0.0
H334 H 0.52425 0.26302 0.85491 0.0
H335 H 0.61367 0.33633 0.78887 0.0
H336 H 0.53934 0.2122 0.84239 0.0
H337 H 0.6258 0.28407 0.77527 0.0
H338 H 0.67774 0.20422 0.76924 0.0
H339 H 0.66986 0.25817 0.78682 0.0
H340 H 0.51216 0.15479 0.80819 0.0
H341 H 0.5209 0.10122 0.79131 0.0
C342 C 0.54728 0.26847 0.83777 0.0
C343 C 0.56748 0.30386 0.82288 0.0
C344 C 0.55535 0.23888 0.83033 0.0
C345 C 0.58362 0.24368 0.80768 0.0
C346 C 0.60438 0.27941 0.79303 0.0
C347 C 0.59665 0.30913 0.80059 0.0
C348 C 0.64155 0.19314 0.77786 0.0
C349 C 0.59997 0.14845 0.77887 0.0
C350 C 0.63685 0.22404 0.78782 0.0
C351 C 0.59017 0.21103 0.79881 0.0
C352 C 0.54903 0.16629 0.80031 0.0
C353 C 0.55397 0.13545 0.79058 0.0
H354 H 0.73795 0.87905 0.53299 0.0
H355 H 0.58715 0.82152 0.48965 0.0
H356 H 0.70897 0.80655 0.53535 0.0
H357 H 0.55981 0.7496 0.49021 0.0
H358 H 0.50173 0.62172 0.5131 0.0
H359 H 0.5321 0.69544 0.51794 0.0
H360 H 0.69219 0.74661 0.50863 0.0
H361 H 0.66153 0.67253 0.50511 0.0
C362 C 0.69857 0.85103 0.52401 0.0
C363 C 0.66503 0.85644 0.51109 0.0
C364 C 0.68219 0.80934 0.52502 0.0
C365 C 0.63193 0.77187 0.51299 0.0
C366 C 0.59843 0.77739 0.50016 0.0
C367 C 0.61456 0.81894 0.49939 0.0
C368 C 0.54352 0.64889 0.51247 0.0
C369 C 0.57928 0.64152 0.50862 0.0
C370 C 0.56097 0.69118 0.51497 0.0
C371 C 0.61458 0.72726 0.51318 0.0
C372 C 0.65071 0.71987 0.51035 0.0
C373 C 0.63326 0.67743 0.50827 0.0
H374 H 0.81264 0.61843 0.82687 0.0
H375 H 0.70029 0.483 0.83887 0.0
H376 H 0.88486 0.61624 0.83163 0.0
H377 H 0.77114 0.47994 0.84242 0.0
H378 H 0.9091 0.48969 0.87429 0.0
H379 H 0.83868 0.49204 0.86625 0.0
H380 H 0.93867 0.60001 0.81934 0.0
H381 H 1.01099 0.59873 0.82888 0.0
C382 C 0.80294 0.58792 0.83027 0.0
C383 C 0.74958 0.55102 0.83261 0.0
C384 C 0.84489 0.58649 0.8329 0.0
C385 C 0.83571 0.54797 0.83782 0.0
C386 C 0.78191 0.51093 0.83948 0.0
C387 C 0.7403 0.51251 0.83715 0.0
C388 C 0.91651 0.51398 0.86205 0.0
C389 C 0.96704 0.54406 0.85246 0.0
C390 C 0.87511 0.51516 0.85712 0.0
C391 C 0.8811 0.54629 0.84196 0.0
C392 C 0.93125 0.57566 0.83146 0.0
C393 C 0.97311 0.57453 0.83656 0.0
H394 H 0.31645 0.67607 0.15117 0.0
H395 H 0.2204 0.71152 0.16961 0.0
H396 H 0.39483 0.75302 0.15428 0.0
H397 H 0.29892 0.78852 0.17296 0.0
H398 H 0.44297 0.92395 0.1551 0.0
H399 H 0.3657 0.8461 0.14606 0.0
H400 H 0.45138 0.81587 0.1894 0.0
H401 H 0.52853 0.89334 0.19797 0.0
C402 C 0.31192 0.70018 0.15589 0.0
C403 C 0.26186 0.68729 0.16027 0.0
C404 C 0.35705 0.74446 0.15776 0.0
C405 C 0.35344 0.77722 0.16389 0.0
C406 C 0.30325 0.76432 0.16787 0.0
C407 C 0.25816 0.72003 0.16616 0.0
C408 C 0.4456 0.90059 0.1622 0.0
C409 C 0.49194 0.91496 0.17734 0.0
C410 C 0.40108 0.85596 0.15732 0.0
C411 C 0.40195 0.82453 0.1672 0.0
C412 C 0.44916 0.83892 0.18132 0.0
C413 C 0.49339 0.88345 0.18639 0.0
H414 H 0.59461 0.254 0.51645 0.0
H415 H 0.5572 0.25881 0.4326 0.0
H416 H 0.5989 0.3152 0.53194 0.0
H417 H 0.56234 0.32085 0.44823 0.0
H418 H 0.62836 0.45944 0.48821 0.0
H419 H 0.62586 0.39952 0.46985 0.0
H420 H 0.53428 0.32671 0.53547 0.0
H421 H 0.536 0.38566 0.55344 0.0
C422 C 0.5869 0.26786 0.5013 0.0
C423 C 0.5748 0.25092 0.47329 0.0
C424 C 0.58955 0.30312 0.5102 0.0
C425 C 0.58046 0.32266 0.49136 0.0
C426 C 0.56986 0.30668 0.46324 0.0
C427 C 0.56694 0.27112 0.4543 0.0
C428 C 0.60737 0.43047 0.49854 0.0
C429 C 0.5832 0.42777 0.52259 0.0
C430 C 0.60595 0.39618 0.48804 0.0
C431 C 0.5805 0.35861 0.50143 0.0
C432 C 0.55531 0.3556 0.52503 0.0
C433 C 0.55647 0.38955 0.53539 0.0
H434 H 0.42003 0.48862 0.85515 0.0
H435 H 0.51582 0.61115 0.82186 0.0
H436 H 0.34818 0.49131 0.85777 0.0
H437 H 0.44414 0.6136 0.82385 0.0
H438 H 0.32427 0.62952 0.84605 0.0
H439 H 0.39478 0.62557 0.84803 0.0
H440 H 0.27775 0.48506 0.83777 0.0
H441 H 0.207 0.4896 0.83644 0.0
C442 C 0.42609 0.51627 0.84829 0.0
C443 C 0.47492 0.54969 0.83832 0.0
C444 C 0.38418 0.51774 0.84965 0.0
C445 C 0.38883 0.55283 0.84122 0.0
C446 C 0.43785 0.58616 0.8312 0.0
C447 C 0.47958 0.58463 0.82981 0.0
C448 C 0.31328 0.59764 0.84499 0.0
C449 C 0.25899 0.55999 0.84179 0.0
C450 C 0.35428 0.59523 0.84558 0.0
C451 C 0.34359 0.55491 0.84263 0.0
C452 C 0.28904 0.51706 0.84036 0.0
C453 C 0.2478 0.51955 0.83983 0.0
H454 H 0.94669 0.42073 0.18234 0.0
H455 H 1.00655 0.38505 0.11927 0.0
H456 H 0.86789 0.34458 0.18119 0.0
H457 H 0.92782 0.3084 0.11851 0.0
H458 H 0.75044 0.18558 0.10101 0.0
H459 H 0.83488 0.25944 0.10402 0.0
H460 H 0.83368 0.27412 0.19234 0.0
H461 H 0.74787 0.20031 0.18912 0.0
C462 C 0.94332 0.39665 0.16831 0.0
C463 C 0.9832 0.40934 0.1508 0.0
C464 C 0.89809 0.3527 0.16784 0.0
C465 C 0.89116 0.31995 0.14983 0.0
C466 C 0.9313 0.3326 0.13246 0.0
C467 C 0.97668 0.37665 0.13296 0.0
C468 C 0.76824 0.20445 0.12113 0.0
C469 C 0.74187 0.18699 0.1448 0.0
C470 C 0.8171 0.24684 0.12289 0.0
C471 C 0.84129 0.27324 0.1484 0.0
C472 C 0.81598 0.25514 0.17225 0.0
C473 C 0.76702 0.21255 0.17048 0.0
H474 H 0.98968 0.50951 0.07402 0.0
H475 H 0.15171 0.5617 0.07528 0.0
H476 H 0.98645 0.51072 0.02407 0.0
H477 H 0.14781 0.56144 0.02534 0.0
H478 H 0.0908 0.50834 0.93084 0.0
H479 H 0.09418 0.5043 0.98034 0.0
H480 H 1.03849 0.57561 -0.0063 0.0
H481 H 1.03785 0.58202 0.94475 0.0
C482 C 1.02431 0.52063 0.06362 0.0
C483 C 1.07086 0.53527 0.0786 0.0
C484 C 1.02252 0.52145 0.03506 0.0
C485 C 1.06688 0.53613 0.02084 0.0
C486 C 0.11289 0.54958 0.03572 0.0
C487 C 0.11504 0.54962 0.06431 0.0
C488 C 1.08008 0.52382 0.9443 0.0
C489 C 1.06355 0.54517 0.93347 0.0
C490 C 0.08167 0.52118 0.97265 0.0
C491 C 1.06591 0.53913 0.99079 0.0
C492 C 1.04986 0.56072 0.98013 0.0
C493 C 1.04928 0.56415 0.95196 0.0
H494 H 0.74681 0.08463 0.38939 0.0
H495 H 0.59243 0.04534 0.39948 0.0
H496 H 0.73123 0.07916 0.33962 0.0
H497 H 0.57724 0.04059 0.34955 0.0
H498 H 0.59397 0.07492 0.25956 0.0
H499 H 0.61681 0.09047 0.30964 0.0
H500 H 0.66365 0.01194 0.30365 0.0
H501 H 0.64008 0.99596 0.25386 0.0
C502 C 0.70978 0.07528 0.38098 0.0
C503 C 0.67066 0.06512 0.39823 0.0
C504 C 0.70088 0.07209 0.35252 0.0
C505 C 0.65302 0.05936 0.34078 0.0
C506 C 0.61463 0.05077 0.35812 0.0
C507 C 0.62321 0.0533 0.38662 0.0
C508 C 0.60986 0.06159 0.26901 0.0
C509 C 0.61548 0.03438 0.253 0.0
C510 C 0.6225 0.07017 0.29758 0.0
C511 C 0.64195 0.05237 0.31044 0.0
C512 C 0.64913 0.02634 0.29422 0.0
C513 C 0.63557 0.01712 0.26582 0.0
H514 H 0.66479 0.56913 0.75368 0.0
H515 H 0.49448 0.46896 0.74194 0.0
H516 H 0.66767 0.57008 0.70369 0.0
H517 H 0.49726 0.47016 0.69233 0.0
H518 H 0.64117 0.58033 0.61167 0.0
H519 H 0.6392 0.58672 0.66193 0.0
H520 H 0.52984 0.44627 0.65769 0.0
H521 H 0.5312 0.43999 0.60798 0.0
C522 C 0.62802 0.54765 0.74043 0.0
C523 C 0.57947 0.51858 0.75161 0.0
C524 C 0.62963 0.54838 0.71188 0.0
C525 C 0.58273 0.51989 0.69409 0.0
C526 C 0.53414 0.49199 0.70547 0.0
C527 C 0.53253 0.49138 0.73389 0.0
C528 C 0.61658 0.55096 0.62159 0.0
C529 C 0.58667 0.50969 0.60597 0.0
C530 C 0.61571 0.55459 0.65029 0.0
C531 C 0.58424 0.51698 0.66373 0.0
C532 C 0.55401 0.47585 0.64796 0.0
C533 C 0.55523 0.47226 0.61949 0.0
H534 H 0.6525 0.04536 0.55127 0.0
H535 H 0.63963 0.14546 0.5628 0.0
H536 H 0.65697 0.04462 0.60132 0.0
H537 H 0.64467 0.1452 0.61264 0.0
H538 H 0.69684 0.15729 0.70207 0.0
H539 H 0.70934 0.16136 0.65311 0.0
H540 H 0.58609 0.02178 0.63605 0.0
H541 H 0.57166 0.01757 0.6847 0.0
C542 C 0.65213 0.06798 0.56456 0.0
C543 C 0.64633 0.09579 0.55331 0.0
C544 C 0.65414 0.06728 0.59311 0.0
C545 C 0.6514 0.095 0.61083 0.0
C546 C 0.64752 0.12387 0.59951 0.0
C547 C 0.64442 0.1239 0.57102 0.0
C548 C 0.67235 0.12738 0.68795 0.0
C549 C 0.63275 0.08716 0.69746 0.0
C550 C 0.6798 0.12977 0.65993 0.0
C551 C 0.64856 0.09192 0.64082 0.0
C552 C 0.61111 0.05143 0.6504 0.0
C553 C 0.60303 0.04907 0.67836 0.0
H554 H 0.73252 0.61747 0.91639 0.0
H555 H 0.56292 0.54103 0.91136 0.0
H556 H 0.73468 0.61481 0.96577 0.0
H557 H 0.56512 0.53971 0.96126 0.0
H558 H 0.58698 0.51875 0.04977 0.0
H559 H 0.58113 0.5135 -0.00052 0.0
H560 H 0.72523 0.64782 0.00469 0.0
H561 H 0.73271 0.65219 0.05436 0.0
C562 C 0.69568 0.60019 0.92594 0.0
C563 C 0.64767 0.57994 0.91023 0.0
C564 C 0.6969 0.59885 0.95426 0.0
C565 C 0.65019 0.57771 0.96757 0.0
C566 C 0.60176 0.5561 0.95163 0.0
C567 C 0.6005 0.55705 0.92313 0.0
C568 C 0.61757 0.54696 0.04008 0.0
C569 C 0.66016 0.58594 0.0561 0.0
C570 C 0.61394 0.5441 0.01131 0.0
C571 C 0.65287 0.58016 -0.00195 0.0
C572 C 0.69503 0.61915 0.01416 0.0
C573 C 0.69883 0.62191 0.04275 0.0
H574 H 0.14321 0.48316 0.23401 0.0
H575 H 0.1483 0.59296 0.23371 0.0
H576 H 0.14864 0.49167 0.28456 0.0
H577 H 0.15128 0.60005 0.28387 0.0
H578 H 0.10141 0.56709 0.37198 0.0
H579 H 0.08664 0.54815 0.32176 0.0
H580 H 0.22657 0.56081 0.32255 0.0
H581 H 0.2421 0.5809 0.37267 0.0
C582 C 0.14473 0.50865 0.24469 0.0
C583 C 0.14482 0.53714 0.22993 0.0
C584 C 0.14786 0.51349 0.27353 0.0
C585 C 0.14987 0.54624 0.28796 0.0
C586 C 0.149 0.57416 0.27316 0.0
C587 C 0.14719 0.57002 0.24447 0.0
C588 C 0.12841 0.56508 0.3614 0.0
C589 C 0.17281 0.57534 0.37603 0.0
C590 C 0.12012 0.55447 0.33278 0.0
C591 C 0.15547 0.55301 0.31843 0.0
C592 C 0.19857 0.56139 0.33322 0.0
C593 C 0.20752 0.57297 0.36177 0.0
loop_
_geom_bond_atom_site_label_1
_geom_bond_atom_site_label_2
_geom_bond_distance
_geom_bond_site_symmetry_2
_ccdc_geom_bond_type
Sm0 C2 2.846 . S
Sm0 O20 2.543 . S
Sm0 O21 2.450 . S
Sm0 O22 2.681 . S
Sm0 O23 2.464 . S
Sm0 O24 2.396 . S
Sm0 O28 2.386 . S
Sm0 O31 2.408 1_455 S
Sm1 C11 2.846 1_455 S
Sm1 O22 2.386 . S
Sm1 O25 2.408 . S
Sm1 O26 2.543 1_455 S
Sm1 O27 2.450 1_455 S
Sm1 O28 2.681 . S
Sm1 O29 2.464 . S
Sm1 O30 2.396 1_455 S
C2 Sm0 2.846 . S
C2 C3 1.506 . S
C2 O20 1.261 . S
C2 O21 1.242 . S
C3 C2 1.506 . S
C3 C4 1.358 . S
C3 C8 1.382 . S
C4 C3 1.358 . S
C4 C5 1.385 . S
C4 H32 0.930 . S
C5 C4 1.385 . S
C5 C6 1.395 . S
C5 H33 0.929 . S
C6 C5 1.395 . S
C6 C7 1.335 . S
C7 C6 1.335 . S
C7 C8 1.398 . S
C7 H34 0.930 . S
C8 C3 1.382 . S
C8 C7 1.398 . S
C8 H35 0.929 . S
C9 O22 1.271 . S
C9 O23 1.251 . S
C10 O24 1.252 . S
C10 O25 1.272 . S
C11 Sm1 2.846 1_655 S
C11 C12 1.506 . S
C11 O26 1.261 . S
C11 O27 1.242 . S
C12 C11 1.506 . S
C12 C13 1.358 . S
C12 C17 1.382 . S
C13 C12 1.358 . S
C13 C14 1.385 . S
C13 H36 0.930 . S
C14 C13 1.385 . S
C14 C15 1.395 . S
C14 H37 0.929 . S
C15 C14 1.395 . S
C15 C16 1.335 . S
C16 C15 1.335 . S
C16 C17 1.398 . S
C16 H38 0.930 . S
C17 C12 1.382 . S
C17 C16 1.398 . S
C17 H39 0.929 . S
C18 O28 1.271 . S
C18 O29 1.251 . S
C19 O30 1.252 . S
C19 O31 1.272 . S
O20 Sm0 2.543 . S
O20 C2 1.261 . S
O21 Sm0 2.450 . S
O21 C2 1.242 . S
O22 Sm0 2.681 . S
O22 Sm1 2.386 . S
O22 C9 1.271 . S
O23 Sm0 2.464 . S
O23 C9 1.251 . S
O24 Sm0 2.396 . S
O24 C10 1.252 . S
O25 Sm1 2.408 . S
O25 C10 1.272 . S
O26 Sm1 2.543 1_655 S
O26 C11 1.261 . S
O27 Sm1 2.450 1_655 S
O27 C11 1.242 . S
O28 Sm0 2.386 . S
O28 Sm1 2.681 . S
O28 C18 1.271 . S
O29 Sm1 2.464 . S
O29 C18 1.251 . S
O30 Sm1 2.396 1_655 S
O30 C19 1.252 . S
O31 Sm0 2.408 1_655 S
O31 C19 1.272 . S
H32 C4 0.930 . S
H33 C5 0.929 . S
H34 C7 0.930 . S
H35 C8 0.929 . S
H36 C13 0.930 . S
H37 C14 0.929 . S
H38 C16 0.930 . S
H39 C17 0.929 . S
Sm40 C42 2.846 1_545 S
Sm40 O60 2.543 1_545 S
Sm40 O61 2.450 1_545 S
Sm40 O62 2.681 . S
Sm40 O63 2.464 . S
Sm40 O64 2.396 1_545 S
Sm40 O68 2.386 . S
Sm40 O71 2.408 . S
Sm41 C51 2.846 . S
Sm41 O62 2.386 . S
Sm41 O65 2.408 1_545 S
Sm41 O66 2.543 . S
Sm41 O67 2.450 . S
Sm41 O68 2.681 . S
Sm41 O69 2.464 . S
Sm41 O70 2.396 . S
C42 Sm40 2.846 1_565 S
C42 C43 1.506 . S
C42 O60 1.261 . S
C42 O61 1.242 . S
C43 C42 1.506 . S
C43 C44 1.358 . S
C43 C48 1.382 . S
C44 C43 1.358 . S
C44 C45 1.385 . S
C44 H72 0.930 . S
C45 C44 1.385 . S
C45 C46 1.395 . S
C45 H73 0.929 . S
C46 C45 1.395 . S
C46 C47 1.335 . S
C47 C46 1.335 . S
C47 C48 1.398 . S
C47 H74 0.930 . S
C48 C43 1.382 . S
C48 C47 1.398 . S
C48 H75 0.929 . S
C49 O62 1.271 . S
C49 O63 1.251 . S
C50 O64 1.252 . S
C50 O65 1.272 . S
C51 Sm41 2.846 . S
C51 C52 1.506 . S
C51 O66 1.261 . S
C51 O67 1.242 . S
C52 C51 1.506 . S
C52 C53 1.358 . S
C52 C57 1.382 . S
C53 C52 1.358 . S
C53 C54 1.385 . S
C53 H76 0.930 . S
C54 C53 1.385 . S
C54 C55 1.395 . S
C54 H77 0.929 . S
C55 C54 1.395 . S
C55 C56 1.335 . S
C56 C55 1.335 . S
C56 C57 1.398 . S
C56 H78 0.930 . S
C57 C52 1.382 . S
C57 C56 1.398 . S
C57 H79 0.929 . S
C58 O68 1.271 . S
C58 O69 1.251 . S
C59 O70 1.252 . S
C59 O71 1.272 . S
O60 Sm40 2.543 1_565 S
O60 C42 1.261 . S
O61 Sm40 2.450 1_565 S
O61 C42 1.242 . S
O62 Sm40 2.681 . S
O62 Sm41 2.386 . S
O62 C49 1.271 . S
O63 Sm40 2.464 . S
O63 C49 1.251 . S
O64 Sm40 2.396 1_565 S
O64 C50 1.252 . S
O65 Sm41 2.408 1_565 S
O65 C50 1.272 . S
O66 Sm41 2.543 . S
O66 C51 1.261 . S
O67 Sm41 2.450 . S
O67 C51 1.242 . S
O68 Sm40 2.386 . S
O68 Sm41 2.681 . S
O68 C58 1.271 . S
O69 Sm41 2.464 . S
O69 C58 1.251 . S
O70 Sm41 2.396 . S
O70 C59 1.252 . S
O71 Sm40 2.408 . S
O71 C59 1.272 . S
H72 C44 0.930 . S
H73 C45 0.929 . S
H74 C47 0.930 . S
H75 C48 0.929 . S
H76 C53 0.930 . S
H77 C54 0.929 . S
H78 C56 0.930 . S
H79 C57 0.929 . S
Sm80 C82 2.846 . S
Sm80 O100 2.543 . S
Sm80 O101 2.450 . S
Sm80 O102 2.681 . S
Sm80 O103 2.464 . S
Sm80 O104 2.396 . S
Sm80 O108 2.386 . S
Sm80 O111 2.408 . S
Sm81 C91 2.846 . S
Sm81 O102 2.386 . S
Sm81 O105 2.408 . S
Sm81 O106 2.543 . S
Sm81 O107 2.450 . S
Sm81 O108 2.681 . S
Sm81 O109 2.464 . S
Sm81 O110 2.396 . S
C82 Sm80 2.846 . S
C82 C83 1.506 . S
C82 O100 1.261 . S
C82 O101 1.242 . S
C83 C82 1.506 . S
C83 C84 1.358 . S
C83 C88 1.382 . S
C84 C83 1.358 . S
C84 C85 1.385 . S
C84 H112 0.930 . S
C85 C84 1.385 . S
C85 C86 1.395 . S
C85 H113 0.929 . S
C86 C85 1.395 . S
C86 C87 1.335 . S
C87 C86 1.335 . S
C87 C88 1.398 . S
C87 H114 0.930 . S
C88 C83 1.382 . S
C88 C87 1.398 . S
C88 H115 0.929 . S
C89 O102 1.271 . S
C89 O103 1.251 . S
C90 O104 1.252 . S
C90 O105 1.272 . S
C91 Sm81 2.846 . S
C91 C92 1.506 . S
C91 O106 1.261 . S
C91 O107 1.242 . S
C92 C91 1.506 . S
C92 C93 1.358 . S
C92 C97 1.382 . S
C93 C92 1.358 . S
C93 C94 1.385 . S
C93 H116 0.930 . S
C94 C93 1.385 . S
C94 C95 1.395 . S
C94 H117 0.929 . S
C95 C94 1.395 . S
C95 C96 1.335 . S
C96 C95 1.335 . S
C96 C97 1.398 . S
C96 H118 0.930 . S
C97 C92 1.382 . S
C97 C96 1.398 . S
C97 H119 0.929 . S
C98 O108 1.271 . S
C98 O109 1.251 . S
C99 O110 1.252 . S
C99 O111 1.272 . S
O100 Sm80 2.543 . S
O100 C82 1.261 . S
O101 Sm80 2.450 . S
O101 C82 1.242 . S
O102 Sm80 2.681 . S
O102 Sm81 2.386 . S
O102 C89 1.271 . S
O103 Sm80 2.464 . S
O103 C89 1.251 . S
O104 Sm80 2.396 . S
O104 C90 1.252 . S
O105 Sm81 2.408 . S
O105 C90 1.272 . S
O106 Sm81 2.543 . S
O106 C91 1.261 . S
O107 Sm81 2.450 . S
O107 C91 1.242 . S
O108 Sm80 2.386 . S
O108 Sm81 2.681 . S
O108 C98 1.271 . S
O109 Sm81 2.464 . S
O109 C98 1.251 . S
O110 Sm81 2.396 . S
O110 C99 1.252 . S
O111 Sm80 2.408 . S
O111 C99 1.272 . S
H112 C84 0.930 . S
H113 C85 0.929 . S
H114 C87 0.930 . S
H115 C88 0.929 . S
H116 C93 0.930 . S
H117 C94 0.929 . S
H118 C96 0.930 . S
H119 C97 0.929 . S
H120 C121 0.949 . S
C121 H120 0.949 . S
C121 C122 1.395 . S
C121 C123 1.391 . S
C122 C121 1.395 . S
C122 C125 1.402 . S
C123 C121 1.391 . S
C123 C127 1.387 . S
C123 C128 1.491 . S
H124 C125 0.938 1_565 S
C125 C122 1.402 . S
C125 H124 0.938 1_545 S
C125 C126 1.378 1_545 S
C126 C125 1.378 1_565 S
C126 C127 1.409 1_565 S
C127 C123 1.387 . S
C127 C126 1.409 1_545 S
C127 H129 0.951 . S
C128 C123 1.491 . S
C128 C130 1.382 . S
C128 C132 1.404 . S
H129 C127 0.951 . S
C130 C128 1.382 . S
C130 C131 1.390 . S
C130 H135 0.949 . S
C131 C130 1.390 . S
C131 C136 1.399 . S
C132 C128 1.404 . S
C132 H133 0.950 . S
C132 C134 1.375 . S
H133 C132 0.950 . S
C134 C132 1.375 . S
C134 C136 1.382 . S
C134 H138 0.950 . S
H135 C130 0.949 . S
C136 C131 1.399 . S
C136 C134 1.382 . S
C136 H137 0.952 . S
H137 C136 0.952 . S
H138 C134 0.950 . S
H139 C140 0.949 . S
C140 H139 0.949 . S
C140 C141 1.395 . S
C140 C142 1.391 . S
C141 C140 1.395 . S
C141 C144 1.390 . S
C142 C140 1.391 . S
C142 C146 1.387 . S
C142 C147 1.491 . S
H143 C144 0.950 . S
C144 C141 1.390 . S
C144 H143 0.950 . S
C144 C145 1.378 . S
C145 C144 1.378 . S
C145 C146 1.409 . S
C146 C142 1.387 . S
C146 C145 1.409 . S
C146 H148 0.951 . S
C147 C142 1.491 . S
C147 C149 1.382 . S
C147 C151 1.404 . S
H148 C146 0.951 . S
C149 C147 1.382 . S
C149 C150 1.390 . S
C149 H154 0.949 . S
C150 C149 1.390 . S
C150 C155 1.399 . S
C151 C147 1.404 . S
C151 H152 0.950 . S
C151 C153 1.375 . S
H152 C151 0.950 . S
C153 C151 1.375 . S
C153 C155 1.382 . S
C153 H157 0.950 . S
H154 C149 0.949 . S
C155 C150 1.399 . S
C155 C153 1.382 . S
C155 H156 0.952 . S
H156 C155 0.952 . S
H157 C153 0.950 . S
H158 C159 0.949 . S
C159 H158 0.949 . S
C159 C160 1.395 . S
C159 C161 1.391 . S
C160 C159 1.395 . S
C160 C163 1.390 . S
C161 C159 1.391 . S
C161 C165 1.387 . S
C161 C166 1.491 . S
H162 C163 0.950 1_655 S
C163 C160 1.390 . S
C163 H162 0.950 1_455 S
C163 C164 1.378 . S
C164 C163 1.378 . S
C164 C165 1.409 . S
C165 C161 1.387 . S
C165 C164 1.409 . S
C165 H167 0.951 . S
C166 C161 1.491 . S
C166 C168 1.382 . S
C166 C170 1.404 . S
H167 C165 0.951 . S
C168 C166 1.382 . S
C168 C169 1.390 . S
C168 H173 0.949 . S
C169 C168 1.390 . S
C169 C174 1.399 . S
C170 C166 1.404 . S
C170 H171 0.950 . S
C170 C172 1.375 . S
H171 C170 0.950 . S
C172 C170 1.375 . S
C172 C174 1.382 . S
C172 H176 0.950 . S
H173 C168 0.949 . S
C174 C169 1.399 . S
C174 C172 1.382 . S
C174 H175 0.952 . S
H175 C174 0.952 . S
H176 C172 0.950 . S
H177 C178 0.949 . S
C178 H177 0.949 . S
C178 C179 1.395 1_655 S
C178 C180 1.391 1_655 S
C179 C178 1.395 1_455 S
C179 C182 1.390 . S
C180 C178 1.391 1_455 S
C180 C184 1.387 . S
C180 C185 1.491 1_455 S
H181 C182 0.950 . S
C182 C179 1.390 . S
C182 H181 0.950 . S
C182 C183 1.378 . S
C183 C182 1.378 . S
C183 C184 1.409 . S
C184 C180 1.387 . S
C184 C183 1.409 . S
C184 H186 0.951 . S
C185 C180 1.491 1_655 S
C185 C187 1.382 . S
C185 C189 1.404 . S
H186 C184 0.951 . S
C187 C185 1.382 . S
C187 C188 1.390 . S
C187 H192 0.949 . S
C188 C187 1.390 . S
C188 C193 1.399 . S
C189 C185 1.404 . S
C189 H190 0.950 . S
C189 C191 1.375 . S
H190 C189 0.950 . S
C191 C189 1.375 . S
C191 C193 1.382 . S
C191 H195 0.950 . S
H192 C187 0.949 . S
C193 C188 1.399 . S
C193 C191 1.382 . S
C193 H194 0.952 . S
H194 C193 0.952 . S
H195 C191 0.950 . S
H196 C197 0.949 . S
C197 H196 0.949 . S
C197 C198 1.395 . S
C197 C199 1.391 . S
C198 C197 1.395 . S
C198 C201 1.390 . S
C199 C197 1.391 . S
C199 C203 1.387 . S
C199 C204 1.491 . S
H200 C201 0.950 . S
C201 C198 1.390 . S
C201 H200 0.950 . S
C201 C202 1.378 . S
C202 C201 1.378 . S
C202 C203 1.409 . S
C203 C199 1.387 . S
C203 C202 1.409 . S
C203 H205 0.951 . S
C204 C199 1.491 . S
C204 C206 1.382 1_545 S
C204 C208 1.404 1_545 S
H205 C203 0.951 . S
C206 C204 1.382 1_565 S
C206 C207 1.390 . S
C206 H211 0.949 . S
C207 C206 1.390 . S
C207 C212 1.399 . S
C208 C204 1.404 1_565 S
C208 H209 0.950 1_565 S
C208 C210 1.375 . S
H209 C208 0.950 1_545 S
C210 C208 1.375 . S
C210 C212 1.382 . S
C210 H214 0.950 . S
H211 C206 0.949 . S
C212 C207 1.399 . S
C212 C210 1.382 . S
C212 H213 0.952 . S
H213 C212 0.952 . S
H214 C210 0.950 . S
H215 C216 0.949 . S
C216 H215 0.949 . S
C216 C217 1.395 . S
C216 C218 1.391 . S
C217 C216 1.395 . S
C217 C220 1.390 . S
C218 C216 1.391 . S
C218 C222 1.387 . S
C218 C223 1.491 . S
H219 C220 0.950 . S
C220 C217 1.390 . S
C220 H219 0.950 . S
C220 C221 1.378 . S
C221 C220 1.378 . S
C221 C222 1.409 . S
C222 C218 1.387 . S
C222 C221 1.409 . S
C222 H224 0.951 . S
C223 C218 1.491 . S
C223 C225 1.382 . S
C223 C227 1.404 . S
H224 C222 0.951 . S
C225 C223 1.382 . S
C225 C226 1.390 . S
C225 H230 0.949 . S
C226 C225 1.390 . S
C226 C231 1.399 . S
C227 C223 1.404 . S
C227 H228 0.950 . S
C227 C229 1.375 . S
H228 C227 0.950 . S
C229 C227 1.375 . S
C229 C231 1.382 . S
C229 H233 0.950 . S
H230 C225 0.949 . S
C231 C226 1.399 . S
C231 C229 1.382 . S
C231 H232 0.952 . S
H232 C231 0.952 . S
H233 C229 0.950 . S
H234 C242 0.950 . S
H235 C247 0.950 . S
H236 C244 0.950 . S
H237 C246 0.950 . S
H238 C248 0.950 . S
H239 C250 0.950 . S
H240 C252 0.950 . S
H241 C253 0.950 . S
C242 H234 0.950 . S
C242 C243 1.386 . S
C242 C244 1.391 . S
C243 C242 1.386 . S
C243 C247 1.393 . S
C244 H236 0.950 . S
C244 C242 1.391 . S
C244 C245 1.400 . S
C245 C244 1.400 . S
C245 C246 1.398 . S
C245 C251 1.491 . S
C246 H237 0.950 . S
C246 C245 1.398 . S
C246 C247 1.391 . S
C247 H235 0.950 . S
C247 C243 1.393 . S
C247 C246 1.391 . S
C248 H238 0.950 . S
C248 C249 1.386 . S
C248 C250 1.391 . S
C249 C248 1.386 . S
C249 C253 1.393 . S
C250 H239 0.950 . S
C250 C248 1.391 . S
C250 C251 1.400 . S
C251 C245 1.491 . S
C251 C250 1.400 . S
C251 C252 1.398 . S
C252 H240 0.950 . S
C252 C251 1.398 . S
C252 C253 1.391 . S
C253 H241 0.950 . S
C253 C249 1.393 . S
C253 C252 1.391 . S
H254 C262 0.950 . S
H255 C267 0.950 . S
H256 C264 0.950 . S
H257 C266 0.950 . S
H258 C268 0.950 . S
H259 C270 0.950 . S
H260 C272 0.950 . S
H261 C273 0.950 . S
C262 H254 0.950 . S
C262 C263 1.386 . S
C262 C264 1.391 . S
C263 C262 1.386 . S
C263 C267 1.393 . S
C264 H256 0.950 . S
C264 C262 1.391 . S
C264 C265 1.400 . S
C265 C264 1.400 . S
C265 C266 1.398 . S
C265 C271 1.491 . S
C266 H257 0.950 . S
C266 C265 1.398 . S
C266 C267 1.391 . S
C267 H255 0.950 . S
C267 C263 1.393 . S
C267 C266 1.391 . S
C268 H258 0.950 . S
C268 C269 1.386 . S
C268 C270 1.391 . S
C269 C268 1.386 . S
C269 C273 1.393 . S
C270 H259 0.950 . S
C270 C268 1.391 . S
C270 C271 1.400 . S
C271 C265 1.491 . S
C271 C270 1.400 . S
C271 C272 1.398 . S
C272 H260 0.950 . S
C272 C271 1.398 . S
C272 C273 1.391 . S
C273 H261 0.950 . S
C273 C269 1.393 . S
C273 C272 1.391 . S
H274 C282 0.950 . S
H275 C287 0.950 . S
H276 C284 0.950 . S
H277 C286 0.950 . S
H278 C288 0.950 . S
H279 C290 0.950 . S
H280 C292 0.950 . S
H281 C293 0.950 . S
C282 H274 0.950 . S
C282 C283 1.386 . S
C282 C284 1.391 . S
C283 C282 1.386 . S
C283 C287 1.393 . S
C284 H276 0.950 . S
C284 C282 1.391 . S
C284 C285 1.400 . S
C285 C284 1.400 . S
C285 C286 1.398 . S
C285 C291 1.491 . S
C286 H277 0.950 . S
C286 C285 1.398 . S
C286 C287 1.391 . S
C287 H275 0.950 . S
C287 C283 1.393 . S
C287 C286 1.391 . S
C288 H278 0.950 . S
C288 C289 1.386 . S
C288 C290 1.391 . S
C289 C288 1.386 . S
C289 C293 1.393 . S
C290 H279 0.950 . S
C290 C288 1.391 . S
C290 C291 1.400 . S
C291 C285 1.491 . S
C291 C290 1.400 . S
C291 C292 1.398 . S
C292 H280 0.950 . S
C292 C291 1.398 . S
C292 C293 1.391 . S
C293 H281 0.950 . S
C293 C289 1.393 . S
C293 C292 1.391 . S
H294 C302 0.950 . S
H295 C307 0.950 . S
H296 C304 0.950 . S
H297 C306 0.950 . S
H298 C308 0.950 . S
H299 C310 0.950 . S
H300 C312 0.950 . S
H301 C313 0.950 . S
C302 H294 0.950 . S
C302 C303 1.386 . S
C302 C304 1.391 . S
C303 C302 1.386 . S
C303 C307 1.393 . S
C304 H296 0.950 . S
C304 C302 1.391 . S
C304 C305 1.400 . S
C305 C304 1.400 . S
C305 C306 1.398 . S
C305 C311 1.491 . S
C306 H297 0.950 . S
C306 C305 1.398 . S
C306 C307 1.391 . S
C307 H295 0.950 . S
C307 C303 1.393 . S
C307 C306 1.391 . S
C308 H298 0.950 . S
C308 C309 1.386 . S
C308 C310 1.391 . S
C309 C308 1.386 . S
C309 C313 1.393 . S
C310 H299 0.950 . S
C310 C308 1.391 . S
C310 C311 1.400 . S
C311 C305 1.491 . S
C311 C310 1.400 . S
C311 C312 1.398 . S
C312 H300 0.950 . S
C312 C311 1.398 . S
C312 C313 1.391 . S
C313 H301 0.950 . S
C313 C309 1.393 . S
C313 C312 1.391 . S
H314 C322 0.950 . S
H315 C327 0.950 . S
H316 C324 0.950 . S
H317 C326 0.950 . S
H318 C328 0.950 . S
H319 C330 0.950 . S
H320 C332 0.950 . S
H321 C333 0.950 . S
C322 H314 0.950 . S
C322 C323 1.386 . S
C322 C324 1.391 . S
C323 C322 1.386 . S
C323 C327 1.393 . S
C324 H316 0.950 . S
C324 C322 1.391 . S
C324 C325 1.400 . S
C325 C324 1.400 . S
C325 C326 1.398 . S
C325 C331 1.491 . S
C326 H317 0.950 . S
C326 C325 1.398 . S
C326 C327 1.391 . S
C327 H315 0.950 . S
C327 C323 1.393 . S
C327 C326 1.391 . S
C328 H318 0.950 . S
C328 C329 1.386 . S
C328 C330 1.391 . S
C329 C328 1.386 . S
C329 C333 1.393 . S
C330 H319 0.950 . S
C330 C328 1.391 . S
C330 C331 1.400 . S
C331 C325 1.491 . S
C331 C330 1.400 . S
C331 C332 1.398 . S
C332 H320 0.950 . S
C332 C331 1.398 . S
C332 C333 1.391 . S
C333 H321 0.950 . S
C333 C329 1.393 . S
C333 C332 1.391 . S
H334 C342 0.950 . S
H335 C347 0.950 . S
H336 C344 0.950 . S
H337 C346 0.950 . S
H338 C348 0.950 . S
H339 C350 0.950 . S
H340 C352 0.950 . S
H341 C353 0.950 . S
C342 H334 0.950 . S
C342 C343 1.386 . S
C342 C344 1.391 . S
C343 C342 1.386 . S
C343 C347 1.393 . S
C344 H336 0.950 . S
C344 C342 1.391 . S
C344 C345 1.400 . S
C345 C344 1.400 . S
C345 C346 1.398 . S
C345 C351 1.491 . S
C346 H337 0.950 . S
C346 C345 1.398 . S
C346 C347 1.391 . S
C347 H335 0.950 . S
C347 C343 1.393 . S
C347 C346 1.391 . S
C348 H338 0.950 . S
C348 C349 1.386 . S
C348 C350 1.391 . S
C349 C348 1.386 . S
C349 C353 1.393 . S
C350 H339 0.950 . S
C350 C348 1.391 . S
C350 C351 1.400 . S
C351 C345 1.491 . S
C351 C350 1.400 . S
C351 C352 1.398 . S
C352 H340 0.950 . S
C352 C351 1.398 . S
C352 C353 1.391 . S
C353 H341 0.950 . S
C353 C349 1.393 . S
C353 C352 1.391 . S
H354 C362 0.950 . S
H355 C367 0.950 . S
H356 C364 0.950 . S
H357 C366 0.950 . S
H358 C368 0.950 . S
H359 C370 0.950 . S
H360 C372 0.950 . S
H361 C373 0.950 . S
C362 H354 0.950 . S
C362 C363 1.386 . S
C362 C364 1.391 . S
C363 C362 1.386 . S
C363 C367 1.393 . S
C364 H356 0.950 . S
C364 C362 1.391 . S
C364 C365 1.400 . S
C365 C364 1.400 . S
C365 C366 1.398 . S
C365 C371 1.491 . S
C366 H357 0.950 . S
C366 C365 1.398 . S
C366 C367 1.391 . S
C367 H355 0.950 . S
C367 C363 1.393 . S
C367 C366 1.391 . S
C368 H358 0.950 . S
C368 C369 1.386 . S
C368 C370 1.391 . S
C369 C368 1.386 . S
C369 C373 1.393 . S
C370 H359 0.950 . S
C370 C368 1.391 . S
C370 C371 1.400 . S
C371 C365 1.491 . S
C371 C370 1.400 . S
C371 C372 1.398 . S
C372 H360 0.950 . S
C372 C371 1.398 . S
C372 C373 1.391 . S
C373 H361 0.950 . S
C373 C369 1.393 . S
C373 C372 1.391 . S
H374 C382 0.950 . S
H375 C387 0.950 . S
H376 C384 0.950 . S
H377 C386 0.950 . S
H378 C388 0.950 . S
H379 C390 0.950 . S
H380 C392 0.950 . S
H381 C393 0.950 . S
C382 H374 0.950 . S
C382 C383 1.386 . S
C382 C384 1.391 . S
C383 C382 1.386 . S
C383 C387 1.393 . S
C384 H376 0.950 . S
C384 C382 1.391 . S
C384 C385 1.400 . S
C385 C384 1.400 . S
C385 C386 1.398 . S
C385 C391 1.491 . S
C386 H377 0.950 . S
C386 C385 1.398 . S
C386 C387 1.391 . S
C387 H375 0.950 . S
C387 C383 1.393 . S
C387 C386 1.391 . S
C388 H378 0.950 . S
C388 C389 1.386 . S
C388 C390 1.391 . S
C389 C388 1.386 . S
C389 C393 1.393 . S
C390 H379 0.950 . S
C390 C388 1.391 . S
C390 C391 1.400 . S
C391 C385 1.491 . S
C391 C390 1.400 . S
C391 C392 1.398 . S
C392 H380 0.950 . S
C392 C391 1.398 . S
C392 C393 1.391 . S
C393 H381 0.950 . S
C393 C389 1.393 . S
C393 C392 1.391 . S
H394 C402 0.950 . S
H395 C407 0.950 . S
H396 C404 0.950 . S
H397 C406 0.950 . S
H398 C408 0.950 . S
H399 C410 0.950 . S
H400 C412 0.950 . S
H401 C413 0.950 . S
C402 H394 0.950 . S
C402 C403 1.386 . S
C402 C404 1.391 . S
C403 C402 1.386 . S
C403 C407 1.393 . S
C404 H396 0.950 . S
C404 C402 1.391 . S
C404 C405 1.400 . S
C405 C404 1.400 . S
C405 C406 1.398 . S
C405 C411 1.491 . S
C406 H397 0.950 . S
C406 C405 1.398 . S
C406 C407 1.391 . S
C407 H395 0.950 . S
C407 C403 1.393 . S
C407 C406 1.391 . S
C408 H398 0.950 . S
C408 C409 1.386 . S
C408 C410 1.391 . S
C409 C408 1.386 . S
C409 C413 1.393 . S
C410 H399 0.950 . S
C410 C408 1.391 . S
C410 C411 1.400 . S
C411 C405 1.491 . S
C411 C410 1.400 . S
C411 C412 1.398 . S
C412 H400 0.950 . S
C412 C411 1.398 . S
C412 C413 1.391 . S
C413 H401 0.950 . S
C413 C409 1.393 . S
C413 C412 1.391 . S
H414 C422 0.950 . S
H415 C427 0.950 . S
H416 C424 0.950 . S
H417 C426 0.950 . S
H418 C428 0.950 . S
H419 C430 0.950 . S
H420 C432 0.950 . S
H421 C433 0.950 . S
C422 H414 0.950 . S
C422 C423 1.386 . S
C422 C424 1.391 . S
C423 C422 1.386 . S
C423 C427 1.393 . S
C424 H416 0.950 . S
C424 C422 1.391 . S
C424 C425 1.400 . S
C425 C424 1.400 . S
C425 C426 1.398 . S
C425 C431 1.491 . S
C426 H417 0.950 . S
C426 C425 1.398 . S
C426 C427 1.391 . S
C427 H415 0.950 . S
C427 C423 1.393 . S
C427 C426 1.391 . S
C428 H418 0.950 . S
C428 C429 1.386 . S
C428 C430 1.391 . S
C429 C428 1.386 . S
C429 C433 1.393 . S
C430 H419 0.950 . S
C430 C428 1.391 . S
C430 C431 1.400 . S
C431 C425 1.491 . S
C431 C430 1.400 . S
C431 C432 1.398 . S
C432 H420 0.950 . S
C432 C431 1.398 . S
C432 C433 1.391 . S
C433 H421 0.950 . S
C433 C429 1.393 . S
C433 C432 1.391 . S
H434 C442 0.950 . S
H435 C447 0.950 . S
H436 C444 0.950 . S
H437 C446 0.950 . S
H438 C448 0.950 . S
H439 C450 0.950 . S
H440 C452 0.950 . S
H441 C453 0.950 . S
C442 H434 0.950 . S
C442 C443 1.386 . S
C442 C444 1.391 . S
C443 C442 1.386 . S
C443 C447 1.393 . S
C444 H436 0.950 . S
C444 C442 1.391 . S
C444 C445 1.400 . S
C445 C444 1.400 . S
C445 C446 1.398 . S
C445 C451 1.491 . S
C446 H437 0.950 . S
C446 C445 1.398 . S
C446 C447 1.391 . S
C447 H435 0.950 . S
C447 C443 1.393 . S
C447 C446 1.391 . S
C448 H438 0.950 . S
C448 C449 1.386 . S
C448 C450 1.391 . S
C449 C448 1.386 . S
C449 C453 1.393 . S
C450 H439 0.950 . S
C450 C448 1.391 . S
C450 C451 1.400 . S
C451 C445 1.491 . S
C451 C450 1.400 . S
C451 C452 1.398 . S
C452 H440 0.950 . S
C452 C451 1.398 . S
C452 C453 1.391 . S
C453 H441 0.950 . S
C453 C449 1.393 . S
C453 C452 1.391 . S
H454 C462 0.950 . S
H455 C467 0.950 . S
H456 C464 0.950 . S
H457 C466 0.950 . S
H458 C468 0.950 . S
H459 C470 0.950 . S
H460 C472 0.950 . S
H461 C473 0.950 . S
C462 H454 0.950 . S
C462 C463 1.386 . S
C462 C464 1.391 . S
C463 C462 1.386 . S
C463 C467 1.393 . S
C464 H456 0.950 . S
C464 C462 1.391 . S
C464 C465 1.400 . S
C465 C464 1.400 . S
C465 C466 1.398 . S
C465 C471 1.491 . S
C466 H457 0.950 . S
C466 C465 1.398 . S
C466 C467 1.391 . S
C467 H455 0.950 . S
C467 C463 1.393 . S
C467 C466 1.391 . S
C468 H458 0.950 . S
C468 C469 1.386 . S
C468 C470 1.391 . S
C469 C468 1.386 . S
C469 C473 1.393 . S
C470 H459 0.950 . S
C470 C468 1.391 . S
C470 C471 1.400 . S
C471 C465 1.491 . S
C471 C470 1.400 . S
C471 C472 1.398 . S
C472 H460 0.950 . S
C472 C471 1.398 . S
C472 C473 1.391 . S
C473 H461 0.950 . S
C473 C469 1.393 . S
C473 C472 1.391 . S
H474 C482 0.950 . S
H475 C487 0.950 . S
H476 C484 0.950 . S
H477 C486 0.950 . S
H478 C488 0.950 . S
H479 C490 0.950 . S
H480 C492 0.950 . S
H481 C493 0.950 . S
C482 H474 0.950 . S
C482 C483 1.386 . S
C482 C484 1.391 . S
C483 C482 1.386 . S
C483 C487 1.393 . S
C484 H476 0.950 . S
C484 C482 1.391 . S
C484 C485 1.400 . S
C485 C484 1.400 . S
C485 C486 1.398 . S
C485 C491 1.491 1_554 S
C486 H477 0.950 . S
C486 C485 1.398 . S
C486 C487 1.391 . S
C487 H475 0.950 . S
C487 C483 1.393 . S
C487 C486 1.391 . S
C488 H478 0.950 . S
C488 C489 1.386 . S
C488 C490 1.391 . S
C489 C488 1.386 . S
C489 C493 1.393 . S
C490 H479 0.950 . S
C490 C488 1.391 . S
C490 C491 1.400 . S
C491 C485 1.491 1_556 S
C491 C490 1.400 . S
C491 C492 1.398 . S
C492 H480 0.950 . S
C492 C491 1.398 . S
C492 C493 1.391 . S
C493 H481 0.950 . S
C493 C489 1.393 . S
C493 C492 1.391 . S
H494 C502 0.950 . S
H495 C507 0.950 . S
H496 C504 0.950 . S
H497 C506 0.950 . S
H498 C508 0.950 . S
H499 C510 0.950 . S
H500 C512 0.950 . S
H501 C513 0.950 . S
C502 H494 0.950 . S
C502 C503 1.386 . S
C502 C504 1.391 . S
C503 C502 1.386 . S
C503 C507 1.393 . S
C504 H496 0.950 . S
C504 C502 1.391 . S
C504 C505 1.400 . S
C505 C504 1.400 . S
C505 C506 1.398 . S
C505 C511 1.491 . S
C506 H497 0.950 . S
C506 C505 1.398 . S
C506 C507 1.391 . S
C507 H495 0.950 . S
C507 C503 1.393 . S
C507 C506 1.391 . S
C508 H498 0.950 . S
C508 C509 1.386 . S
C508 C510 1.391 . S
C509 C508 1.386 . S
C509 C513 1.393 . S
C510 H499 0.950 . S
C510 C508 1.391 . S
C510 C511 1.400 . S
C511 C505 1.491 . S
C511 C510 1.400 . S
C511 C512 1.398 . S
C512 H500 0.950 . S
C512 C511 1.398 . S
C512 C513 1.391 . S
C513 H501 0.950 . S
C513 C509 1.393 . S
C513 C512 1.391 . S
H514 C522 0.950 . S
H515 C527 0.950 . S
H516 C524 0.950 . S
H517 C526 0.950 . S
H518 C528 0.950 . S
H519 C530 0.950 . S
H520 C532 0.950 . S
H521 C533 0.950 . S
C522 H514 0.950 . S
C522 C523 1.386 . S
C522 C524 1.391 . S
C523 C522 1.386 . S
C523 C527 1.393 . S
C524 H516 0.950 . S
C524 C522 1.391 . S
C524 C525 1.400 . S
C525 C524 1.400 . S
C525 C526 1.398 . S
C525 C531 1.491 . S
C526 H517 0.950 . S
C526 C525 1.398 . S
C526 C527 1.391 . S
C527 H515 0.950 . S
C527 C523 1.393 . S
C527 C526 1.391 . S
C528 H518 0.950 . S
C528 C529 1.386 . S
C528 C530 1.391 . S
C529 C528 1.386 . S
C529 C533 1.393 . S
C530 H519 0.950 . S
C530 C528 1.391 . S
C530 C531 1.400 . S
C531 C525 1.491 . S
C531 C530 1.400 . S
C531 C532 1.398 . S
C532 H520 0.950 . S
C532 C531 1.398 . S
C532 C533 1.391 . S
C533 H521 0.950 . S
C533 C529 1.393 . S
C533 C532 1.391 . S
H534 C542 0.950 1_565 S
H535 C547 0.950 . S
H536 C544 0.950 1_565 S
H537 C546 0.950 . S
H538 C548 0.950 . S
H539 C550 0.950 . S
H540 C552 0.950 1_565 S
H541 C553 0.950 1_565 S
C542 H534 0.950 1_545 S
C542 C543 1.386 . S
C542 C544 1.391 . S
C543 C542 1.386 . S
C543 C547 1.393 . S
C544 H536 0.950 1_545 S
C544 C542 1.391 . S
C544 C545 1.400 . S
C545 C544 1.400 . S
C545 C546 1.398 . S
C545 C551 1.491 . S
C546 H537 0.950 . S
C546 C545 1.398 . S
C546 C547 1.391 . S
C547 H535 0.950 . S
C547 C543 1.393 . S
C547 C546 1.391 . S
C548 H538 0.950 . S
C548 C549 1.386 . S
C548 C550 1.391 . S
C549 C548 1.386 . S
C549 C553 1.393 . S
C550 H539 0.950 . S
C550 C548 1.391 . S
C550 C551 1.400 . S
C551 C545 1.491 . S
C551 C550 1.400 . S
C551 C552 1.398 . S
C552 H540 0.950 1_545 S
C552 C551 1.398 . S
C552 C553 1.391 . S
C553 H541 0.950 1_545 S
C553 C549 1.393 . S
C553 C552 1.391 . S
H554 C562 0.950 . S
H555 C567 0.950 . S
H556 C564 0.950 . S
H557 C566 0.950 . S
H558 C568 0.950 . S
H559 C570 0.950 1_556 S
H560 C572 0.950 . S
H561 C573 0.950 . S
C562 H554 0.950 . S
C562 C563 1.386 . S
C562 C564 1.391 . S
C563 C562 1.386 . S
C563 C567 1.393 . S
C564 H556 0.950 . S
C564 C562 1.391 . S
C564 C565 1.400 . S
C565 C564 1.400 . S
C565 C566 1.398 . S
C565 C571 1.491 . S
C566 H557 0.950 . S
C566 C565 1.398 . S
C566 C567 1.391 . S
C567 H555 0.950 . S
C567 C563 1.393 . S
C567 C566 1.391 . S
C568 H558 0.950 . S
C568 C569 1.386 . S
C568 C570 1.391 . S
C569 C568 1.386 . S
C569 C573 1.393 . S
C570 H559 0.950 1_554 S
C570 C568 1.391 . S
C570 C571 1.400 1_554 S
C571 C565 1.491 . S
C571 C570 1.400 1_556 S
C571 C572 1.398 1_556 S
C572 H560 0.950 . S
C572 C571 1.398 1_554 S
C572 C573 1.391 . S
C573 H561 0.950 . S
C573 C569 1.393 . S
C573 C572 1.391 . S
H574 C582 0.950 . S
H575 C587 0.950 . S
H576 C584 0.950 . S
H577 C586 0.950 . S
H578 C588 0.950 . S
H579 C590 0.950 . S
H580 C592 0.950 . S
H581 C593 0.950 . S
C582 H574 0.950 . S
C582 C583 1.386 . S
C582 C584 1.391 . S
C583 C582 1.386 . S
C583 C587 1.393 . S
C584 H576 0.950 . S
C584 C582 1.391 . S
C584 C585 1.400 . S
C585 C584 1.400 . S
C585 C586 1.398 . S
C585 C591 1.491 . S
C586 H577 0.950 . S
C586 C585 1.398 . S
C586 C587 1.391 . S
C587 H575 0.950 . S
C587 C583 1.393 . S
C587 C586 1.391 . S
C588 H578 0.950 . S
C588 C589 1.386 . S
C588 C590 1.391 . S
C589 C588 1.386 . S
C589 C593 1.393 . S
C590 H579 0.950 . S
C590 C588 1.391 . S
C590 C591 1.400 . S
C591 C585 1.491 . S
C591 C590 1.400 . S
C591 C592 1.398 . S
C592 H580 0.950 . S
C592 C591 1.398 . S
C592 C593 1.391 . S
C593 H581 0.950 . S
C593 C589 1.393 . S
C593 C592 1.391 . S
C243 C6 0.790 . S
C249 C226 0.797 . S
C263 C59 1.999 . S
C269 C188 1.944 . S
C283 C86 1.292 . S
C289 C207 1.242 . S
C303 C15 0.308 . S
C309 C221 0.140 . S
C329 C183 1.858 . S
C323 C50 1.892 . S
C349 C202 1.125 . S
C343 C95 1.123 . S
C363 C46 1.346 . S
C369 C150 1.265 . S
C383 C99 3.054 . S
C389 C164 3.023 1_655 S
C403 C10 1.909 . S
C409 C126 1.881 . S
C429 C145 1.099 . S
C423 C55 1.109 . S
C449 C169 3.047 . S
C443 C90 3.102 . S
C463 C19 2.002 . S
C469 C131 1.952 . S
C489 C160 1.715 . S
C483 C18 1.698 . S
C503 C49 1.464 . S
C509 C122 1.536 . S
C523 C98 1.543 . S
C529 C141 1.568 . S
C549 C198 1.554 . S
C543 C58 1.568 . S
C569 C217 1.370 . S
C563 C89 1.332 . S
C583 C9 1.432 . S
C589 C179 1.492 . S
