# Generated by pormake.
# Topology zzz, (3,6)-cn, num edge types: 1
# Building blocks:
#     Node 0, Type 0, BuildingBlock: QEWDON_clean_linker_0, # of connection points: 3
#     Node 1, Type 0, BuildingBlock: QEWDON_clean_linker_0, # of connection points: 3
#     Node 2, Type 0, BuildingBlock: QEWDON_clean_linker_0, # of connection points: 3
#     Node 3, Type 0, BuildingBlock: QEWDON_clean_linker_0, # of connection points: 3
#     Node 4, Type 0, BuildingBlock: QEWDON_clean_linker_0, # of connection points: 3
#     Node 5, Type 0, BuildingBlock: QEWDON_clean_linker_0, # of connection points: 3
#     Node 6, Type 0, BuildingBlock: QEWDON_clean_linker_0, # of connection points: 3
#     Node 7, Type 0, BuildingBlock: QEWDON_clean_linker_0, # of connection points: 3
#     Node 8, Type 1, BuildingBlock: FUNLAD_clean_sbu_0, # of connection points: 6
#     Node 9, Type 1, BuildingBlock: FUNLAD_clean_sbu_0, # of connection points: 6
#     Node 10, Type 1, BuildingBlock: FUNLAD_clean_sbu_0, # of connection points: 6
#     Node 11, Type 1, BuildingBlock: FUNLAD_clean_sbu_0, # of connection points: 6
#     Edge 12, Type (0, 1), None
#     Edge 13, Type (0, 1), None
#     Edge 14, Type (0, 1), None
#     Edge 15, Type (0, 1), None
#     Edge 16, Type (0, 1), None
#     Edge 17, Type (0, 1), None
#     Edge 18, Type (0, 1), None
#     Edge 19, Type (0, 1), None
#     Edge 20, Type (0, 1), None
#     Edge 21, Type (0, 1), None
#     Edge 22, Type (0, 1), None
#     Edge 23, Type (0, 1), None
#     Edge 24, Type (0, 1), None
#     Edge 25, Type (0, 1), None
#     Edge 26, Type (0, 1), None
#     Edge 27, Type (0, 1), None
#     Edge 28, Type (0, 1), None
#     Edge 29, Type (0, 1), None
#     Edge 30, Type (0, 1), None
#     Edge 31, Type (0, 1), None
#     Edge 32, Type (0, 1), None
#     Edge 33, Type (0, 1), None
#     Edge 34, Type (0, 1), None
#     Edge 35, Type (0, 1), None
# Relax obj value: 0.096
# Max RMSD: 0.199
# Mean RMSD: 0.076
data_MOF--net-zzz--node1-FUNLAD_clean_sbu_0--node2-QEWDON_clean_linker_0--edge1-none
_symmetry_space_group_name_H-M    P1
_symmetry_Int_Tables_number       1
_symmetry_cell_setting            triclinic
loop_
_symmetry_equiv_pos_as_xyz
'x, y, z'
_cell_length_a     25.19935
_cell_length_b     31.076493
_cell_length_c     8.8225728
_cell_angle_alpha  80.81897
_cell_angle_beta   80.043178
_cell_angle_gamma 86.299451
loop_
_atom_site_label
_atom_site_type_symbol
_atom_site_fract_x
_atom_site_fract_y
_atom_site_fract_z
_atom_type_partial_charge
H0 H 0.86431 0.52496 0.26216 0.0
C1 C 0.87476 0.5162 0.3775 0.0
C2 C 0.92362 0.49379 0.38852 0.0
C3 C 0.84217 0.53054 0.5071 0.0
H4 H 0.98162 0.4705 0.53652 0.0
C5 C 0.94204 0.48587 0.53096 0.0
C6 C 0.91306 0.50283 0.6609 0.0
C7 C 0.86266 0.52497 0.64958 0.0
C8 C 0.79038 0.5549 0.48108 0.0
H9 H 0.84035 0.5379 0.7498 0.0
C10 C 0.76467 0.54681 0.35828 0.0
C11 C 0.72513 0.57585 0.302 0.0
C12 C 0.77012 0.58966 0.5613 0.0
H13 H 0.78838 0.59724 0.65572 0.0
C14 C 0.72734 0.61661 0.51464 0.0
H15 H 0.77775 0.5191 0.29924 0.0
C16 C 0.7057 0.61038 0.38432 0.0
H17 H 0.67368 0.6325 0.34829 0.0
H18 H 0.71218 0.6435 0.57625 0.0
H19 H 0.08474 0.86305 0.95445 0.0
C20 C 0.0757 0.86097 0.07929 0.0
C21 C 0.08737 0.89616 0.14966 0.0
C22 C 1.04379 0.82691 0.16422 0.0
H23 H 0.08398 0.92038 0.36181 0.0
C24 C 0.07594 0.89277 0.30886 0.0
C25 C 1.04466 0.85883 0.3973 0.0
C26 C 1.02771 0.8261 0.32544 0.0
C27 C 1.01536 0.80143 0.07639 0.0
H28 H 0.99969 0.80229 0.39171 0.0
C29 C 1.02807 0.75699 0.06623 0.0
C30 C 1.00224 0.73502 -0.02837 0.0
C31 C 0.97649 0.82358 -0.00676 0.0
H32 H 0.96647 0.85783 -0.00158 0.0
C33 C 0.95054 0.80208 0.90177 0.0
H34 H 0.05876 0.74012 0.12813 0.0
C35 C 0.96317 0.75827 0.89086 0.0
H36 H 0.94152 0.74242 0.82067 0.0
H37 H 0.92053 0.81951 0.83867 0.0
H38 H 0.7496 0.03518 0.01914 0.0
C39 C 0.72884 0.04244 0.13089 0.0
C40 C 0.67478 0.05901 0.14534 0.0
C41 C 0.75463 0.03272 0.26352 0.0
H42 H 0.60474 0.07636 0.30411 0.0
C43 C 0.64677 0.06552 0.29214 0.0
C44 C 0.67036 0.05392 0.42568 0.0
C45 C 0.72436 0.03892 0.41051 0.0
C46 C 0.80999 1.01077 0.25771 0.0
H47 H 0.74233 0.03114 0.51511 0.0
C48 C 0.85514 1.02254 0.13921 0.0
C49 C 0.90716 1.00269 0.15233 0.0
C50 C 0.81779 0.97731 0.38043 0.0
H51 H 0.78441 0.96557 0.46905 0.0
C52 C 0.86844 0.95838 0.39321 0.0
H53 H 0.85029 0.04744 0.04117 0.0
C54 C 0.9129 0.97119 0.28167 0.0
H55 H 0.95194 0.9555 0.29393 0.0
H56 H 0.8726 0.93357 0.4913 0.0
H57 H 0.55192 0.70618 0.04437 0.0
C58 C 0.54568 0.69184 0.16624 0.0
C59 C 0.51785 0.65303 0.21304 0.0
C60 C 0.57076 0.70956 0.27132 0.0
H61 H 0.49246 0.60277 0.40522 0.0
C62 C 0.51249 0.63343 0.36969 0.0
C63 C 0.53913 0.6498 0.4753 0.0
C64 C 0.56869 0.68767 0.42482 0.0
C65 C 0.60456 0.74789 0.21406 0.0
H66 H 0.59025 0.69993 0.50426 0.0
C67 C 0.58242 0.78768 0.14627 0.0
C68 C 0.61543 0.82345 0.08872 0.0
C69 C 0.65986 0.74422 0.22234 0.0
H70 H 0.67777 0.71385 0.27273 0.0
C71 C 0.69272 0.77952 0.16291 0.0
H72 H 0.53964 0.79104 0.14136 0.0
C73 C 0.67068 0.81897 0.09673 0.0
H74 H 0.69656 0.84635 0.05436 0.0
H75 H 0.73535 0.77639 0.16921 0.0
H76 H 0.18588 0.53616 0.60085 0.0
C77 C 0.17585 0.52197 0.50526 0.0
C78 C 0.12795 0.50059 0.52977 0.0
C79 C 0.21001 0.5261 0.36085 0.0
H80 H 0.07306 0.46905 0.42602 0.0
C81 C 0.11186 0.48386 0.40751 0.0
C82 C 0.14186 0.49175 0.25657 0.0
C83 C 0.19155 0.51269 0.23335 0.0
C84 C 0.26213 0.54758 0.34947 0.0
H85 H 0.21468 0.51923 0.11723 0.0
C86 C 0.28793 0.54214 0.48178 0.0
C87 C 0.32809 0.56997 0.49345 0.0
C88 C 0.28213 0.57796 0.21984 0.0
H89 H 0.26332 0.58326 0.11665 0.0
C90 C 0.32493 0.60381 0.22636 0.0
H91 H 0.27407 0.51798 0.5812 0.0
C92 C 0.34715 0.60049 0.36281 0.0
H93 H 0.37916 0.6218 0.36611 0.0
H94 H 0.33957 0.62778 0.1274 0.0
H95 H 0.99779 0.16115 0.71557 0.0
C96 C 1.02345 0.16029 0.60388 0.0
C97 C 1.03982 0.11998 0.55407 0.0
C98 C 1.03886 0.19946 0.50605 0.0
H99 H 0.08854 0.08728 0.38348 0.0
C100 C 0.07521 0.11888 0.4171 0.0
C101 C 0.09174 0.15708 0.31894 0.0
C102 C 0.07238 0.19763 0.36126 0.0
C103 C 1.01357 0.24162 0.54348 0.0
H104 H 0.08127 0.22723 0.27955 0.0
C105 C 1.02378 0.25993 0.67183 0.0
C106 C 0.99777 0.2998 0.7049 0.0
C107 C 0.97785 0.2635 0.44882 0.0
H108 H 0.96961 0.24996 0.34978 0.0
C109 C 0.95193 0.30266 0.48189 0.0
H110 H 0.05189 0.24353 0.74417 0.0
C111 C 0.96163 0.32066 0.60891 0.0
H112 H 0.94187 0.35169 0.62975 0.0
H113 H 0.92448 0.31931 0.40811 0.0
H114 H 0.37384 1.02516 0.69589 0.0
C115 C 0.39307 0.03641 0.57778 0.0
C116 C 0.44525 0.05324 0.55049 0.0
C117 C 0.36728 0.03188 0.4512 0.0
H118 H 0.51174 0.07754 0.37662 0.0
C119 C 0.47104 0.06611 0.39709 0.0
C120 C 0.4476 0.05995 0.27012 0.0
C121 C 0.39562 0.04342 0.29768 0.0
C122 C 0.31537 1.00851 0.47449 0.0
H123 H 0.37808 0.03786 0.19891 0.0
C124 C 0.26746 1.01949 0.57551 0.0
C125 C 0.21881 0.99771 0.58146 0.0
C126 C 0.31404 0.97453 0.38738 0.0
H127 H 0.34992 0.96443 0.31263 0.0
C128 C 0.26687 0.95305 0.39424 0.0
H129 H 0.26766 0.04536 0.64436 0.0
C130 C 0.21982 0.96467 0.48854 0.0
H131 H 0.18404 0.94697 0.4898 0.0
H132 H 0.26673 0.92718 0.32536 0.0
H133 H 0.58222 0.41648 0.68365 0.0
C134 C 0.56466 0.43168 0.58342 0.0
C135 C 0.54181 0.47407 0.57933 0.0
C136 C 0.56654 0.40951 0.45556 0.0
H137 H 0.50325 0.52701 0.44357 0.0
C138 C 0.51935 0.49376 0.44842 0.0
C139 C 0.52292 0.47284 0.31705 0.0
C140 C 0.54694 0.43067 0.32138 0.0
C141 C 0.59558 0.36668 0.4534 0.0
H142 H 0.55258 0.41506 0.21792 0.0
C143 C 0.57492 0.3288 0.55037 0.0
C144 C 0.60248 0.28817 0.54021 0.0
C145 C 0.64435 0.36375 0.35044 0.0
H146 H 0.66086 0.39256 0.27565 0.0
C147 C 0.67225 0.32372 0.34331 0.0
H148 H 0.53683 0.33066 0.6283 0.0
C149 C 0.65134 0.28611 0.43668 0.0
H150 H 0.67297 0.25513 0.42667 0.0
H151 H 0.70984 0.32172 0.26357 0.0
C152 C 0.08911 0.94034 0.05927 0.0
N153 N 1.02715 0.94135 0.68018 0.0
C154 C 0.0676 0.90992 0.68707 0.0
C155 C 0.06331 0.86977 0.64204 0.0
C156 C 1.02296 0.86572 0.55655 0.0
C157 C 0.97765 0.89449 0.57113 0.0
C158 C 0.98066 0.93301 0.63334 0.0
Zn159 Zn 1.04208 0.99377 0.78082 0.0
C160 C 0.95647 1.01139 0.0332 0.0
N161 N 0.09912 0.07697 0.03606 0.0
C162 C 0.14772 0.08231 0.07659 0.0
C163 C 0.06129 0.11046 0.03182 0.0
C164 C 0.07023 0.14975 0.07666 0.0
C165 C 0.11267 0.15087 0.15819 0.0
C166 C 0.15591 0.12002 0.13698 0.0
Zn167 Zn 0.08107 1.02624 0.93549 0.0
O168 O 0.06314 0.94579 0.94817 0.0
C169 C 0.16604 1.00727 0.68106 0.0
O170 O 0.10537 0.97377 0.10266 0.0
H171 H 1.02305 0.10671 -0.00319 0.0
H172 H 0.10458 0.91581 0.72505 0.0
H173 H 0.17867 0.05657 0.0703 0.0
O174 O 0.12315 0.99318 0.65162 0.0
O175 O 0.16257 1.02573 0.80114 0.0
H176 H 0.9475 0.95692 0.63654 0.0
O177 O 0.05785 0.07526 0.77115 0.0
O178 O 1.02029 0.04428 0.61258 0.0
O179 O 0.99835 1.02509 0.07181 0.0
O180 O 0.96183 0.99514 0.90784 0.0
C181 C 1.03344 0.07864 0.65706 0.0
H182 H 0.09831 0.8475 0.63717 0.0
H183 H 0.94456 0.89032 0.51261 0.0
H184 H 1.03718 0.1739 0.08423 0.0
H185 H 0.19069 0.12082 0.19331 0.0
C186 C 0.47753 0.05303 0.67573 0.0
N187 N 0.55718 0.16126 0.76054 0.0
C188 C 0.55208 0.17475 0.6088 0.0
C189 C 0.56294 0.21738 0.53863 0.0
C190 C 0.57924 0.24679 0.62455 0.0
C191 C 0.58119 0.23326 0.78324 0.0
C192 C 0.56999 0.18989 0.84955 0.0
Zn193 Zn 0.5578 0.0942 0.82828 0.0
C194 C 0.48224 0.06183 0.11515 0.0
N195 N 0.56679 0.95394 0.9323 0.0
C196 C 0.57924 0.92578 0.82654 0.0
C197 C 0.56466 0.93954 0.08746 0.0
C198 C 0.57707 0.89602 0.14108 0.0
C199 C 0.59239 0.86692 0.03441 0.0
C200 C 0.59257 0.88179 0.87553 0.0
Zn201 Zn 0.56141 1.02089 0.86815 0.0
O202 O 0.49412 0.08902 0.69796 0.0
C203 C 0.63623 0.05374 0.58037 0.0
O204 O 0.49896 1.01731 0.73392 0.0
H205 H 0.5563 0.96229 0.17004 0.0
H206 H 0.54327 0.15169 0.53783 0.0
H207 H 0.58145 0.93781 0.7037 0.0
O208 O 0.61592 0.08941 0.62131 0.0
O209 O 0.62151 1.0179 0.66425 0.0
H210 H 0.57468 0.17856 -0.03089 0.0
O211 O 0.62392 1.02526 4e-05 0.0
O212 O 0.6216 0.09675 0.96157 0.0
O213 O 0.50077 1.02617 0.06937 0.0
O214 O 0.49945 0.09787 0.03736 0.0
C215 C 0.64214 0.06069 0.02021 0.0
H216 H 0.56172 0.22659 0.41547 0.0
H217 H 0.5945 0.25506 0.85221 0.0
H218 H 0.57754 0.8857 0.26413 0.0
H219 H 0.6051 0.86012 0.79009 0.0
C220 C 0.54271 0.49957 0.70617 0.0
N221 N 0.40371 0.56468 0.89136 0.0
C222 C 0.38657 0.52697 0.85943 0.0
C223 C 0.35944 0.52787 0.73327 0.0
C224 C 0.34836 0.56805 0.64363 0.0
C225 C 0.35834 0.60651 0.69703 0.0
C226 C 0.38542 0.60405 0.82382 0.0
Zn227 Zn 0.48298 0.56335 0.921 0.0
C228 C 0.51791 0.49979 0.16564 0.0
N229 N 0.65238 0.56263 0.91105 0.0
C230 C 0.6681 0.60269 0.92551 0.0
C231 C 0.67154 0.52601 -0.00561 0.0
C232 C 0.69736 0.52937 0.12006 0.0
C233 C 0.70573 0.57081 0.15503 0.0
C234 C 0.69417 0.60761 0.04904 0.0
Zn235 Zn 0.57312 0.56168 0.87999 0.0
O236 O 0.49821 0.51488 0.77098 0.0
C237 C 0.5397 0.62428 0.63194 0.0
O238 O 0.58678 0.51228 0.73334 0.0
H239 H 0.65928 0.49433 -0.01952 0.0
H240 H 0.40142 0.49595 0.91427 0.0
H241 H 0.65278 0.63154 0.85823 0.0
O242 O 0.49552 0.61106 0.71309 0.0
O243 O 0.58382 0.61017 0.67682 0.0
H244 H 0.39929 0.63373 0.85079 0.0
O245 O 0.55745 0.61037 0.02576 0.0
O246 O 0.46915 0.61249 0.07226 0.0
O247 O 0.56116 0.5135 0.08122 0.0
O248 O 0.4728 0.51468 0.12847 0.0
C249 C 0.51362 0.62565 0.09394 0.0
H250 H 0.3517 0.49732 0.69836 0.0
H251 H 0.34849 0.63823 0.63536 0.0
H252 H 0.70623 0.49986 0.19626 0.0
H253 H 0.70195 0.64014 0.067 0.0
C254 C 0.09302 0.49999 0.6804 0.0
N255 N 1.02671 0.39181 -0.02145 0.0
C256 C 0.07 0.37156 0.89959 0.0
C257 C 0.06257 0.33664 0.82331 0.0
C258 C 1.01024 0.32271 0.82952 0.0
C259 C 0.96787 0.33989 0.93082 0.0
C260 C 0.97705 0.37458 0.00492 0.0
Zn261 Zn 1.02747 0.45831 -0.01917 0.0
C262 C 0.11259 0.48954 0.12665 0.0
N263 N 1.02471 0.5985 0.94204 0.0
C264 C 1.01864 0.62717 0.81205 0.0
C265 C 1.0277 0.61301 0.07822 0.0
C266 C 1.02244 0.65755 0.08912 0.0
C267 C 1.01415 0.68785 0.95856 0.0
C268 C 1.01354 0.67207 0.81756 0.0
Zn269 Zn 1.02632 0.53169 0.9437 0.0
O270 O 0.07939 0.46391 0.76269 0.0
C271 C 0.94148 0.50196 0.79497 0.0
O272 O 0.07843 0.53567 0.73136 0.0
H273 H 1.03275 0.58989 0.18061 0.0
H274 H 0.10914 0.38578 0.87885 0.0
H275 H 1.01669 0.61517 0.70466 0.0
O276 O 0.96165 0.46568 0.85226 0.0
O277 O 0.95941 0.53715 0.81943 0.0
H278 H 0.94296 0.39131 0.06586 0.0
O279 O 0.9743 0.52575 0.15581 0.0
O280 O 0.97491 0.45397 0.19854 0.0
O281 O 0.09283 0.52536 0.06486 0.0
O282 O 0.09383 0.45368 0.10962 0.0
C283 C 0.96019 0.49045 0.24292 0.0
H284 H 0.09624 0.32432 0.74595 0.0
H285 H 0.92696 0.32986 0.93903 0.0
H286 H 1.02275 0.66788 0.20052 0.0
H287 H 1.00836 0.69415 0.71263 0.0
loop_
_geom_bond_atom_site_label_1
_geom_bond_atom_site_label_2
_geom_bond_distance
_geom_bond_site_symmetry_2
_ccdc_geom_bond_type
H0 C1 0.949 . S
C1 H0 0.949 . S
C1 C2 1.395 . S
C1 C3 1.391 . S
C2 C1 1.395 . S
C2 C5 1.390 . S
C3 C1 1.391 . S
C3 C7 1.387 . S
C3 C8 1.491 . S
H4 C5 0.950 . S
C5 C2 1.390 . S
C5 H4 0.950 . S
C5 C6 1.378 . S
C6 C5 1.378 . S
C6 C7 1.409 . S
C7 C3 1.387 . S
C7 C6 1.409 . S
C7 H9 0.951 . S
C8 C3 1.491 . S
C8 C10 1.382 . S
C8 C12 1.404 . S
H9 C7 0.951 . S
C10 C8 1.382 . S
C10 C11 1.390 . S
C10 H15 0.949 . S
C11 C10 1.390 . S
C11 C16 1.399 . S
C12 C8 1.404 . S
C12 H13 0.950 . S
C12 C14 1.375 . S
H13 C12 0.950 . S
C14 C12 1.375 . S
C14 C16 1.382 . S
C14 H18 0.950 . S
H15 C10 0.949 . S
C16 C11 1.399 . S
C16 C14 1.382 . S
C16 H17 0.952 . S
H17 C16 0.952 . S
H18 C14 0.950 . S
H19 C20 0.949 . S
C20 H19 0.949 . S
C20 C21 1.395 . S
C20 C22 1.391 1_556 S
C21 C20 1.395 . S
C21 C24 1.390 1_656 S
C22 C20 1.391 1_554 S
C22 C26 1.387 . S
C22 C27 1.491 . S
H23 C24 0.950 . S
C24 C21 1.390 1_454 S
C24 H23 0.950 . S
C24 C25 1.378 1_455 S
C25 C24 1.378 1_655 S
C25 C26 1.409 . S
C26 C22 1.387 . S
C26 C25 1.409 . S
C26 H28 0.951 . S
C27 C22 1.491 . S
C27 C29 1.382 1_554 S
C27 C31 1.404 . S
H28 C26 0.951 . S
C29 C27 1.382 1_556 S
C29 C30 1.390 . S
C29 H34 0.949 1_655 S
C30 C29 1.390 . S
C30 C35 1.399 1_556 S
C31 C27 1.404 . S
C31 H32 0.950 . S
C31 C33 1.375 . S
H32 C31 0.950 . S
C33 C31 1.375 . S
C33 C35 1.382 . S
C33 H37 0.950 . S
H34 C29 0.949 1_455 S
C35 C30 1.399 1_554 S
C35 C33 1.382 . S
C35 H36 0.952 . S
H36 C35 0.952 . S
H37 C33 0.950 . S
H38 C39 0.949 . S
C39 H38 0.949 . S
C39 C40 1.395 . S
C39 C41 1.391 . S
C40 C39 1.395 . S
C40 C43 1.390 . S
C41 C39 1.391 . S
C41 C45 1.387 . S
C41 C46 1.491 . S
H42 C43 0.950 . S
C43 C40 1.390 . S
C43 H42 0.950 . S
C43 C44 1.378 . S
C44 C43 1.378 . S
C44 C45 1.409 . S
C45 C41 1.387 . S
C45 C44 1.409 . S
C45 H47 0.951 . S
C46 C41 1.491 . S
C46 C48 1.382 . S
C46 C50 1.404 . S
H47 C45 0.951 . S
C48 C46 1.382 . S
C48 C49 1.390 . S
C48 H53 0.949 1_565 S
C49 C48 1.390 . S
C49 C54 1.399 . S
C50 C46 1.404 . S
C50 H51 0.950 . S
C50 C52 1.375 . S
H51 C50 0.950 . S
C52 C50 1.375 . S
C52 C54 1.382 . S
C52 H56 0.950 . S
H53 C48 0.949 1_545 S
C54 C49 1.399 . S
C54 C52 1.382 . S
C54 H55 0.952 . S
H55 C54 0.952 . S
H56 C52 0.950 . S
H57 C58 0.949 . S
C58 H57 0.949 . S
C58 C59 1.395 . S
C58 C60 1.391 . S
C59 C58 1.395 . S
C59 C62 1.390 . S
C60 C58 1.391 . S
C60 C64 1.387 . S
C60 C65 1.491 . S
H61 C62 0.950 . S
C62 C59 1.390 . S
C62 H61 0.950 . S
C62 C63 1.378 . S
C63 C62 1.378 . S
C63 C64 1.409 . S
C64 C60 1.387 . S
C64 C63 1.409 . S
C64 H66 0.951 . S
C65 C60 1.491 . S
C65 C67 1.382 . S
C65 C69 1.404 . S
H66 C64 0.951 . S
C67 C65 1.382 . S
C67 C68 1.390 . S
C67 H72 0.949 . S
C68 C67 1.390 . S
C68 C73 1.399 . S
C69 C65 1.404 . S
C69 H70 0.950 . S
C69 C71 1.375 . S
H70 C69 0.950 . S
C71 C69 1.375 . S
C71 C73 1.382 . S
C71 H75 0.950 . S
H72 C67 0.949 . S
C73 C68 1.399 . S
C73 C71 1.382 . S
C73 H74 0.952 . S
H74 C73 0.952 . S
H75 C71 0.950 . S
H76 C77 0.949 . S
C77 H76 0.949 . S
C77 C78 1.395 . S
C77 C79 1.391 . S
C78 C77 1.395 . S
C78 C81 1.390 . S
C79 C77 1.391 . S
C79 C83 1.387 . S
C79 C84 1.491 . S
H80 C81 0.950 . S
C81 C78 1.390 . S
C81 H80 0.950 . S
C81 C82 1.378 . S
C82 C81 1.378 . S
C82 C83 1.409 . S
C83 C79 1.387 . S
C83 C82 1.409 . S
C83 H85 0.951 . S
C84 C79 1.491 . S
C84 C86 1.382 . S
C84 C88 1.404 . S
H85 C83 0.951 . S
C86 C84 1.382 . S
C86 C87 1.390 . S
C86 H91 0.949 . S
C87 C86 1.390 . S
C87 C92 1.399 . S
C88 C84 1.404 . S
C88 H89 0.950 . S
C88 C90 1.375 . S
H89 C88 0.950 . S
C90 C88 1.375 . S
C90 C92 1.382 . S
C90 H94 0.950 . S
H91 C86 0.949 . S
C92 C87 1.399 . S
C92 C90 1.382 . S
C92 H93 0.952 . S
H93 C92 0.952 . S
H94 C90 0.950 . S
H95 C96 0.947 . S
C96 H95 0.947 . S
C96 C97 1.393 1_655 S
C96 C98 1.395 . S
C97 C96 1.393 1_455 S
C97 C100 1.390 . S
C98 C96 1.395 . S
C98 C102 1.387 . S
C98 C103 1.491 . S
H99 C100 0.950 . S
C100 C97 1.390 . S
C100 H99 0.950 . S
C100 C101 1.378 . S
C101 C100 1.378 . S
C101 C102 1.409 1_455 S
C102 C98 1.387 . S
C102 C101 1.409 1_655 S
C102 H104 0.951 . S
C103 C98 1.491 . S
C103 C105 1.382 1_655 S
C103 C107 1.404 . S
H104 C102 0.951 . S
C105 C103 1.382 1_455 S
C105 C106 1.390 1_455 S
C105 H110 0.949 . S
C106 C105 1.390 1_655 S
C106 C111 1.399 . S
C107 C103 1.404 . S
C107 H108 0.950 . S
C107 C109 1.375 . S
H108 C107 0.950 . S
C109 C107 1.375 . S
C109 C111 1.382 . S
C109 H113 0.950 . S
H110 C105 0.949 . S
C111 C106 1.399 . S
C111 C109 1.382 . S
C111 H112 0.952 . S
H112 C111 0.952 . S
H113 C109 0.950 . S
H114 C115 0.949 . S
C115 H114 0.949 . S
C115 C116 1.395 . S
C115 C117 1.391 . S
C116 C115 1.395 . S
C116 C119 1.390 . S
C117 C115 1.391 . S
C117 C121 1.387 . S
C117 C122 1.491 1_545 S
H118 C119 0.950 . S
C119 C116 1.390 . S
C119 H118 0.950 . S
C119 C120 1.378 . S
C120 C119 1.378 . S
C120 C121 1.409 . S
C121 C117 1.387 . S
C121 C120 1.409 . S
C121 H123 0.951 . S
C122 C117 1.491 1_565 S
C122 C124 1.382 1_565 S
C122 C126 1.404 . S
H123 C121 0.951 . S
C124 C122 1.382 1_545 S
C124 C125 1.390 . S
C124 H129 0.949 . S
C125 C124 1.390 . S
C125 C130 1.399 1_545 S
C126 C122 1.404 . S
C126 H127 0.950 . S
C126 C128 1.375 . S
H127 C126 0.950 . S
C128 C126 1.375 . S
C128 C130 1.382 . S
C128 H132 0.950 . S
H129 C124 0.949 . S
C130 C125 1.399 1_565 S
C130 C128 1.382 . S
C130 H131 0.952 . S
H131 C130 0.952 . S
H132 C128 0.950 . S
H133 C134 0.949 . S
C134 H133 0.949 . S
C134 C135 1.395 . S
C134 C136 1.391 . S
C135 C134 1.395 . S
C135 C138 1.390 . S
C136 C134 1.391 . S
C136 C140 1.387 . S
C136 C141 1.491 . S
H137 C138 0.950 . S
C138 C135 1.390 . S
C138 H137 0.950 . S
C138 C139 1.378 . S
C139 C138 1.378 . S
C139 C140 1.409 . S
C140 C136 1.387 . S
C140 C139 1.409 . S
C140 H142 0.951 . S
C141 C136 1.491 . S
C141 C143 1.382 . S
C141 C145 1.404 . S
H142 C140 0.951 . S
C143 C141 1.382 . S
C143 C144 1.390 . S
C143 H148 0.949 . S
C144 C143 1.390 . S
C144 C149 1.399 . S
C145 C141 1.404 . S
C145 H146 0.950 . S
C145 C147 1.375 . S
H146 C145 0.950 . S
C147 C145 1.375 . S
C147 C149 1.382 . S
C147 H151 0.950 . S
H148 C143 0.949 . S
C149 C144 1.399 . S
C149 C147 1.382 . S
C149 H150 0.952 . S
H150 C149 0.952 . S
H151 C147 0.950 . S
C152 O168 1.251 1_554 S
C152 O170 1.254 . S
N153 C154 1.333 1_655 S
N153 C158 1.307 . S
N153 Zn159 2.020 . S
C154 N153 1.333 1_455 S
C154 C155 1.379 . S
C154 H172 0.952 . S
C155 C154 1.379 . S
C155 C156 1.390 1_455 S
C155 H182 0.949 . S
C156 C155 1.390 1_655 S
C156 C157 1.357 . S
C157 C156 1.357 . S
C157 C158 1.370 . S
C157 H183 0.950 1_565 S
C158 N153 1.307 . S
C158 C157 1.370 . S
C158 H176 0.948 1_565 S
Zn159 N153 2.020 . S
Zn159 O168 2.039 1_655 S
Zn159 O174 2.034 1_655 S
Zn159 O178 2.025 1_565 S
Zn159 O180 2.024 . S
C160 O179 1.246 1_556 S
C160 O180 1.249 1_545 S
N161 C162 1.307 . S
N161 C163 1.333 1_455 S
N161 Zn167 2.020 . S
C162 N161 1.307 . S
C162 C166 1.370 . S
C162 H173 0.948 1_545 S
C163 N161 1.333 1_655 S
C163 C164 1.379 . S
C163 H171 0.952 . S
C164 C163 1.379 . S
C164 C165 1.390 1_655 S
C164 H184 0.949 . S
C165 C164 1.390 1_455 S
C165 C166 1.357 . S
C166 C162 1.370 . S
C166 C165 1.357 . S
C166 H185 0.950 . S
Zn167 N161 2.020 . S
Zn167 O170 2.025 1_545 S
Zn167 O175 2.024 1_554 S
Zn167 O177 2.039 1_554 S
Zn167 O179 2.034 1_455 S
O168 C152 1.251 1_556 S
O168 Zn159 2.039 1_455 S
C169 O174 1.246 1_545 S
C169 O175 1.249 . S
O170 C152 1.254 . S
O170 Zn167 2.025 1_565 S
H171 C163 0.952 . S
H172 C154 0.952 . S
H173 C162 0.948 1_565 S
O174 Zn159 2.034 1_455 S
O174 C169 1.246 1_565 S
O175 Zn167 2.024 1_556 S
O175 C169 1.249 . S
H176 C158 0.948 1_545 S
O177 Zn167 2.039 1_556 S
O177 C181 1.252 . S
O178 Zn159 2.025 1_545 S
O178 C181 1.253 1_655 S
O179 C160 1.246 1_554 S
O179 Zn167 2.034 1_655 S
O180 Zn159 2.024 . S
O180 C160 1.249 1_565 S
C181 O177 1.252 . S
C181 O178 1.253 1_455 S
H182 C155 0.949 . S
H183 C157 0.950 1_545 S
H184 C164 0.949 . S
H185 C166 0.950 . S
C186 O202 1.251 . S
C186 O204 1.254 1_545 S
N187 C188 1.333 . S
N187 C192 1.307 . S
N187 Zn193 2.020 . S
C188 N187 1.333 . S
C188 C189 1.379 . S
C188 H206 0.952 . S
C189 C188 1.379 . S
C189 C190 1.390 . S
C189 H216 0.949 . S
C190 C189 1.390 . S
C190 C191 1.357 . S
C191 C190 1.357 . S
C191 C192 1.370 . S
C191 H217 0.950 . S
C192 N187 1.307 . S
C192 C191 1.370 . S
C192 H210 0.948 1_556 S
Zn193 N187 2.020 . S
Zn193 O202 2.039 . S
Zn193 O208 2.034 . S
Zn193 O212 2.025 1_556 S
Zn193 O214 2.024 1_556 S
C194 O213 1.246 1_545 S
C194 O214 1.249 . S
N195 C196 1.307 . S
N195 C197 1.333 1_556 S
N195 Zn201 2.020 . S
C196 N195 1.307 . S
C196 C200 1.370 . S
C196 H207 0.948 . S
C197 N195 1.333 1_554 S
C197 C198 1.379 . S
C197 H205 0.952 . S
C198 C197 1.379 . S
C198 C199 1.390 . S
C198 H218 0.949 . S
C199 C198 1.390 . S
C199 C200 1.357 1_554 S
C200 C196 1.370 . S
C200 C199 1.357 1_556 S
C200 H219 0.950 . S
Zn201 N195 2.020 . S
Zn201 O204 2.025 . S
Zn201 O209 2.024 . S
Zn201 O211 2.039 1_556 S
Zn201 O213 2.034 1_556 S
O202 C186 1.251 . S
O202 Zn193 2.039 . S
C203 O208 1.246 1_565 S
C203 O209 1.249 . S
O204 C186 1.254 1_565 S
O204 Zn201 2.025 . S
H205 C197 0.952 . S
H206 C188 0.952 . S
H207 C196 0.948 . S
O208 Zn193 2.034 . S
O208 C203 1.246 1_545 S
O209 Zn201 2.024 . S
O209 C203 1.249 . S
H210 C192 0.948 1_554 S
O211 Zn201 2.039 1_554 S
O211 C215 1.276 . S
O212 Zn193 2.025 1_554 S
O212 C215 1.230 1_545 S
O213 C194 1.246 1_565 S
O213 Zn201 2.034 1_554 S
O214 Zn193 2.024 1_554 S
O214 C194 1.249 . S
C215 O211 1.276 . S
C215 O212 1.230 1_565 S
H216 C189 0.949 . S
H217 C191 0.950 . S
H218 C198 0.949 . S
H219 C200 0.950 . S
C220 O236 1.251 . S
C220 O238 1.254 . S
N221 C222 1.333 . S
N221 C226 1.307 . S
N221 Zn227 2.020 . S
C222 N221 1.333 . S
C222 C223 1.379 . S
C222 H240 0.952 . S
C223 C222 1.379 . S
C223 C224 1.390 . S
C223 H250 0.949 . S
C224 C223 1.390 . S
C224 C225 1.357 . S
C225 C224 1.357 . S
C225 C226 1.370 . S
C225 H251 0.950 1_556 S
C226 N221 1.307 . S
C226 C225 1.370 . S
C226 H244 0.948 1_556 S
Zn227 N221 2.020 . S
Zn227 O236 2.039 . S
Zn227 O242 2.034 . S
Zn227 O246 2.025 1_556 S
Zn227 O248 2.024 1_556 S
C228 O247 1.246 . S
C228 O248 1.249 . S
N229 C230 1.307 . S
N229 C231 1.333 1_556 S
N229 Zn235 2.020 . S
C230 N229 1.307 . S
C230 C234 1.370 . S
C230 H241 0.948 . S
C231 N229 1.333 1_554 S
C231 C232 1.379 . S
C231 H239 0.952 . S
C232 C231 1.379 . S
C232 C233 1.390 1_554 S
C232 H252 0.949 . S
C233 C232 1.390 1_556 S
C233 C234 1.357 . S
C234 C230 1.370 . S
C234 C233 1.357 . S
C234 H253 0.950 . S
Zn235 N229 2.020 . S
Zn235 O238 2.025 . S
Zn235 O243 2.024 . S
Zn235 O245 2.039 1_556 S
Zn235 O247 2.034 1_556 S
O236 C220 1.251 . S
O236 Zn227 2.039 . S
C237 O242 1.246 . S
C237 O243 1.249 . S
O238 C220 1.254 . S
O238 Zn235 2.025 . S
H239 C231 0.952 . S
H240 C222 0.952 . S
H241 C230 0.948 . S
O242 Zn227 2.034 . S
O242 C237 1.246 . S
O243 Zn235 2.024 . S
O243 C237 1.249 . S
H244 C226 0.948 1_554 S
O245 Zn235 2.039 1_554 S
O245 C249 1.251 . S
O246 Zn227 2.025 1_554 S
O246 C249 1.254 . S
O247 C228 1.246 . S
O247 Zn235 2.034 1_554 S
O248 Zn227 2.024 1_554 S
O248 C228 1.249 . S
C249 O245 1.251 . S
C249 O246 1.254 . S
H250 C223 0.949 . S
H251 C225 0.950 1_554 S
H252 C232 0.949 . S
H253 C234 0.950 . S
C254 O270 1.251 . S
C254 O272 1.254 . S
N255 C256 1.333 1_655 S
N255 C260 1.307 1_556 S
N255 Zn261 2.020 . S
C256 N255 1.333 1_455 S
C256 C257 1.379 . S
C256 H274 0.952 . S
C257 C256 1.379 . S
C257 C258 1.390 1_455 S
C257 H284 0.949 . S
C258 C257 1.390 1_655 S
C258 C259 1.357 1_556 S
C259 C258 1.357 1_554 S
C259 C260 1.370 . S
C259 H285 0.950 . S
C260 N255 1.307 1_554 S
C260 C259 1.370 . S
C260 H278 0.948 . S
Zn261 N255 2.020 . S
Zn261 O270 2.039 1_655 S
Zn261 O276 2.034 . S
Zn261 O280 2.025 1_556 S
Zn261 O282 2.024 1_656 S
C262 O281 1.246 . S
C262 O282 1.249 . S
N263 C264 1.307 . S
N263 C265 1.333 1_456 S
N263 Zn269 2.020 . S
C264 N263 1.307 . S
C264 C268 1.370 . S
C264 H275 0.948 . S
C265 N263 1.333 1_654 S
C265 C266 1.379 . S
C265 H273 0.952 . S
C266 C265 1.379 . S
C266 C267 1.390 1_654 S
C266 H286 0.949 . S
C267 C266 1.390 1_456 S
C267 C268 1.357 . S
C268 C264 1.370 . S
C268 C267 1.357 . S
C268 H287 0.950 . S
Zn269 N263 2.020 . S
Zn269 O272 2.025 . S
Zn269 O277 2.024 1_455 S
Zn269 O279 2.039 1_456 S
Zn269 O281 2.034 1_556 S
O270 C254 1.251 . S
O270 Zn261 2.039 1_455 S
C271 O276 1.246 . S
C271 O277 1.249 . S
O272 C254 1.254 . S
O272 Zn269 2.025 . S
H273 C265 0.952 . S
H274 C256 0.952 . S
H275 C264 0.948 . S
O276 Zn261 2.034 . S
O276 C271 1.246 . S
O277 Zn269 2.024 1_655 S
O277 C271 1.249 . S
H278 C260 0.948 . S
O279 Zn269 2.039 1_654 S
O279 C283 1.251 . S
O280 Zn261 2.025 1_554 S
O280 C283 1.254 . S
O281 C262 1.246 . S
O281 Zn269 2.034 1_554 S
O282 Zn261 2.024 1_454 S
O282 C262 1.249 . S
C283 O279 1.251 . S
C283 O280 1.254 . S
H284 C257 0.949 . S
H285 C259 0.950 . S
H286 C266 0.949 . S
H287 C268 0.950 . S
C125 C169 2.043 . S
C190 C144 1.413 . S
C224 C87 2.091 . S
C258 C106 1.416 . S
C160 C49 2.188 1_546 S
C68 C199 1.368 . S
C11 C233 2.270 1_554 S
C30 C267 1.658 1_655 S
C181 C97 1.241 . S
C186 C116 1.777 . S
C220 C135 1.591 . S
C78 C254 1.101 . S
C21 C152 1.240 1_656 S
C215 C40 1.779 . S
C249 C59 1.592 . S
C2 C283 1.108 . S
C101 C165 1.712 . S
C120 C194 1.991 . S
C228 C139 1.663 . S
C262 C82 1.844 . S
C25 C156 1.708 . S
C203 C44 1.996 . S
C237 C63 1.651 . S
C6 C271 1.851 . S
