# Generated by pormake.
# Topology dag, (6,3)-cn, num edge types: 1
# Building blocks:
#     Node 0, Type 0, BuildingBlock: OJICUG_clean_sbu_0, # of connection points: 6
#     Node 1, Type 0, BuildingBlock: OJICUG_clean_sbu_0, # of connection points: 6
#     Node 2, Type 0, BuildingBlock: OJICUG_clean_sbu_0, # of connection points: 6
#     Node 3, Type 0, BuildingBlock: OJICUG_clean_sbu_0, # of connection points: 6
#     Node 4, Type 1, BuildingBlock: INOVEN_clean_linker_0, # of connection points: 3
#     Node 5, Type 1, BuildingBlock: INOVEN_clean_linker_0, # of connection points: 3
#     Node 6, Type 1, BuildingBlock: INOVEN_clean_linker_0, # of connection points: 3
#     Node 7, Type 1, BuildingBlock: INOVEN_clean_linker_0, # of connection points: 3
#     Node 8, Type 1, BuildingBlock: INOVEN_clean_linker_0, # of connection points: 3
#     Node 9, Type 1, BuildingBlock: INOVEN_clean_linker_0, # of connection points: 3
#     Node 10, Type 1, BuildingBlock: INOVEN_clean_linker_0, # of connection points: 3
#     Node 11, Type 1, BuildingBlock: INOVEN_clean_linker_0, # of connection points: 3
#     Edge 12, Type (0, 1), BuildingBlock: KIFKEQ_clean_linker_1, # of connection points: 2
#     Edge 13, Type (0, 1), BuildingBlock: KIFKEQ_clean_linker_1, # of connection points: 2
#     Edge 14, Type (0, 1), BuildingBlock: KIFKEQ_clean_linker_1, # of connection points: 2
#     Edge 15, Type (0, 1), BuildingBlock: KIFKEQ_clean_linker_1, # of connection points: 2
#     Edge 16, Type (0, 1), BuildingBlock: KIFKEQ_clean_linker_1, # of connection points: 2
#     Edge 17, Type (0, 1), BuildingBlock: KIFKEQ_clean_linker_1, # of connection points: 2
#     Edge 18, Type (0, 1), BuildingBlock: KIFKEQ_clean_linker_1, # of connection points: 2
#     Edge 19, Type (0, 1), BuildingBlock: KIFKEQ_clean_linker_1, # of connection points: 2
#     Edge 20, Type (0, 1), BuildingBlock: KIFKEQ_clean_linker_1, # of connection points: 2
#     Edge 21, Type (0, 1), BuildingBlock: KIFKEQ_clean_linker_1, # of connection points: 2
#     Edge 22, Type (0, 1), BuildingBlock: KIFKEQ_clean_linker_1, # of connection points: 2
#     Edge 23, Type (0, 1), BuildingBlock: KIFKEQ_clean_linker_1, # of connection points: 2
#     Edge 24, Type (0, 1), BuildingBlock: KIFKEQ_clean_linker_1, # of connection points: 2
#     Edge 25, Type (0, 1), BuildingBlock: KIFKEQ_clean_linker_1, # of connection points: 2
#     Edge 26, Type (0, 1), BuildingBlock: KIFKEQ_clean_linker_1, # of connection points: 2
#     Edge 27, Type (0, 1), BuildingBlock: KIFKEQ_clean_linker_1, # of connection points: 2
#     Edge 28, Type (0, 1), BuildingBlock: KIFKEQ_clean_linker_1, # of connection points: 2
#     Edge 29, Type (0, 1), BuildingBlock: KIFKEQ_clean_linker_1, # of connection points: 2
#     Edge 30, Type (0, 1), BuildingBlock: KIFKEQ_clean_linker_1, # of connection points: 2
#     Edge 31, Type (0, 1), BuildingBlock: KIFKEQ_clean_linker_1, # of connection points: 2
#     Edge 32, Type (0, 1), BuildingBlock: KIFKEQ_clean_linker_1, # of connection points: 2
#     Edge 33, Type (0, 1), BuildingBlock: KIFKEQ_clean_linker_1, # of connection points: 2
#     Edge 34, Type (0, 1), BuildingBlock: KIFKEQ_clean_linker_1, # of connection points: 2
#     Edge 35, Type (0, 1), BuildingBlock: KIFKEQ_clean_linker_1, # of connection points: 2
# Relax obj value: 0.100
# Max RMSD: 0.115
# Mean RMSD: 0.096
data_MOF--net-dag--node1-OJICUG_clean_sbu_0--node2-INOVEN_clean_linker_0--edge1-KIFKEQ_clean_linker_1
_symmetry_space_group_name_H-M    P1
_symmetry_Int_Tables_number       1
_symmetry_cell_setting            triclinic
loop_
_symmetry_equiv_pos_as_xyz
'x, y, z'
_cell_length_a     36.932432
_cell_length_b     39.852628
_cell_length_c     39.3381
_cell_angle_alpha  93.947762
_cell_angle_beta   90.060962
_cell_angle_gamma 89.996427
loop_
_atom_site_label
_atom_site_type_symbol
_atom_site_fract_x
_atom_site_fract_y
_atom_site_fract_z
_atom_type_partial_charge
Sc0 Sc 0.10872 0.87829 0.03696 0.0
Sc1 Sc 0.12411 0.79192 0.04414 0.0
Sc2 Sc 0.18916 0.85236 0.07463 0.0
O3 O 0.14064 0.84078 0.05201 0.0
C4 C 0.1867 0.90686 0.01927 0.0
C5 C 0.09865 0.82359 0.97511 0.0
C6 C 0.20804 0.78907 0.02335 0.0
C7 C 0.05005 0.82775 0.06542 0.0
C8 C 0.13652 0.90795 0.11006 0.0
C9 C 0.16312 0.79087 0.11666 0.0
O10 O 0.15262 0.90518 0.01546 0.0
O11 O 0.10491 0.79852 0.99268 0.0
O12 O 0.21697 0.8157 0.04117 0.0
O13 O 0.06033 0.85597 0.05566 0.0
O14 O 0.16524 0.89019 0.11002 0.0
O15 O 0.14074 0.77874 0.09447 0.0
O16 O 0.11403 0.90626 0.08546 0.0
O17 O 0.07057 0.80205 0.06463 0.0
O18 O 0.18186 0.81691 0.11239 0.0
O19 O 0.10053 0.85383 0.98745 0.0
O20 O 0.2037 0.8896 0.03999 0.0
O21 O 0.1759 0.77741 0.02242 0.0
Sc22 Sc 0.6882 0.64324 0.474 0.0
Sc23 Sc 0.62325 0.70401 0.50375 0.0
Sc24 Sc 0.60826 0.61788 0.51278 0.0
O25 O 0.63987 0.65512 0.49673 0.0
C26 C 0.63543 0.58685 0.44006 0.0
C27 C 0.6614 0.70361 0.43081 0.0
C28 C 0.5491 0.6676 0.48365 0.0
C29 C 0.70735 0.70748 0.52394 0.0
C30 C 0.6866 0.59021 0.53079 0.0
C31 C 0.59877 0.67369 0.57366 0.0
O32 O 0.66412 0.60459 0.43961 0.0
O33 O 0.63938 0.71621 0.45303 0.0
O34 O 0.55959 0.63966 0.49396 0.0
O35 O 0.7162 0.68065 0.50644 0.0
O36 O 0.65251 0.59165 0.53456 0.0
O37 O 0.60462 0.6984 0.55551 0.0
O38 O 0.70332 0.60707 0.50958 0.0
O39 O 0.67517 0.71904 0.52494 0.0
O40 O 0.6006 0.64326 0.56191 0.0
O41 O 0.68022 0.6777 0.43541 0.0
O42 O 0.61313 0.589 0.46476 0.0
O43 O 0.56953 0.69332 0.48375 0.0
Sc44 Sc 0.87762 0.21182 0.00786 0.0
Sc45 Sc 0.81102 0.15213 0.97863 0.0
Sc46 Sc 0.89203 0.12518 0.01434 0.0
O47 O 0.86018 0.16314 0.00025 0.0
C48 C 0.95066 0.17433 0.98492 0.0
C49 C 0.84085 0.21063 0.93441 0.0
C50 C 0.86075 0.09401 0.94353 0.0
C51 C 0.79357 0.21823 0.02645 0.0
C52 C 0.90206 0.18022 0.07649 0.0
C53 C 0.81388 0.09977 0.03613 0.0
O54 O 0.93169 0.20081 0.98975 0.0
O55 O 0.82057 0.18571 0.93942 0.0
O56 O 0.88415 0.096 0.96723 0.0
O57 O 0.82605 0.2287 0.02712 0.0
O58 O 0.90291 0.15043 0.06286 0.0
O59 O 0.79629 0.11676 0.01547 0.0
O60 O 0.89386 0.20562 0.06011 0.0
O61 O 0.78394 0.19083 0.01042 0.0
O62 O 0.84818 0.10049 0.03834 0.0
O63 O 0.86298 0.22331 0.95658 0.0
O64 O 0.93963 0.14545 0.99201 0.0
O65 O 0.83253 0.11236 0.94401 0.0
Sc66 Sc 0.3914 0.37091 0.53238 0.0
Sc67 Sc 0.31244 0.34399 0.5717 0.0
Sc68 Sc 0.3791 0.28463 0.54231 0.0
O69 O 0.36097 0.33309 0.54887 0.0
C70 C 0.39931 0.31489 0.47148 0.0
C71 C 0.31176 0.39571 0.51385 0.0
C72 C 0.29479 0.27679 0.52539 0.0
C73 C 0.36366 0.40274 0.60407 0.0
C74 C 0.45275 0.32291 0.56015 0.0
C75 C 0.34428 0.28688 0.61657 0.0
O76 O 0.39807 0.34526 0.48347 0.0
O77 O 0.2951 0.37787 0.53432 0.0
O78 O 0.32752 0.26702 0.52363 0.0
O79 O 0.38686 0.39989 0.58019 0.0
O80 O 0.43303 0.29681 0.56022 0.0
O81 O 0.32412 0.31196 0.61185 0.0
O82 O 0.44132 0.35069 0.55029 0.0
O83 O 0.33492 0.38505 0.60409 0.0
O84 O 0.36526 0.27358 0.59382 0.0
O85 O 0.34601 0.39597 0.51136 0.0
O86 O 0.3948 0.29 0.48969 0.0
O87 O 0.28505 0.30393 0.54184 0.0
H88 H 0.05109 0.18671 0.31543 0.0
H89 H 0.03226 0.10075 0.24588 0.0
H90 H 0.1165 0.09769 0.3212 0.0
N91 N 0.10432 0.16092 0.34949 0.0
N92 N 0.12703 0.14655 0.36691 0.0
C93 C 0.05733 0.16097 0.30666 0.0
C94 C 0.03793 0.14525 0.27952 0.0
C95 C 0.08508 0.14376 0.32237 0.0
C96 C 0.09426 0.11079 0.30995 0.0
C97 C 0.07511 0.09498 0.28241 0.0
C98 C 0.04655 0.11225 0.26781 0.0
H99 H 0.37357 0.59699 0.80984 0.0
H100 H 0.45956 0.60434 0.7371 0.0
H101 H 0.4358 0.68838 0.80768 0.0
N102 N 0.38074 0.65744 0.83974 0.0
N103 N 0.38362 0.68708 0.85182 0.0
C104 C 0.39545 0.61106 0.7992 0.0
C105 C 0.41596 0.59646 0.77209 0.0
C106 C 0.40264 0.64393 0.81254 0.0
C107 C 0.43046 0.66269 0.79822 0.0
C108 C 0.45126 0.64808 0.77131 0.0
C109 C 0.44413 0.61503 0.75867 0.0
H110 H 0.71229 0.89671 0.18371 0.0
H111 H 0.79846 0.88932 0.11032 0.0
H112 H 0.78363 0.81092 0.17863 0.0
N113 N 0.72557 0.83896 0.21105 0.0
N114 N 0.72646 0.80841 0.21603 0.0
C115 C 0.73471 0.88285 0.17181 0.0
C116 C 0.75339 0.89592 0.14465 0.0
C117 C 0.74475 0.8517 0.18348 0.0
C118 C 0.77484 0.83434 0.16885 0.0
C119 C 0.79438 0.84776 0.14239 0.0
C120 C 0.78291 0.87818 0.13004 0.0
H121 H 0.79489 0.38785 0.67612 0.0
H122 H 0.70942 0.3834 0.60183 0.0
H123 H 0.71763 0.30661 0.67266 0.0
N124 N 0.77628 0.33286 0.70608 0.0
N125 N 0.76377 0.30809 0.71981 0.0
C126 C 0.77193 0.37485 0.66415 0.0
C127 C 0.75447 0.38823 0.63644 0.0
C128 C 0.75909 0.3452 0.67713 0.0
C129 C 0.72821 0.32916 0.66242 0.0
C130 C 0.71023 0.34265 0.63506 0.0
C131 C 0.72402 0.37184 0.62191 0.0
H132 H 0.54783 0.30842 0.23345 0.0
H133 H 0.52916 0.39339 0.30422 0.0
H134 H 0.61329 0.39753 0.22905 0.0
N135 N 0.60134 0.33445 0.20022 0.0
N136 N 0.62467 0.34872 0.18348 0.0
C137 C 0.55402 0.33409 0.24252 0.0
C138 C 0.53472 0.34941 0.26987 0.0
C139 C 0.58184 0.35147 0.22719 0.0
C140 C 0.59102 0.38431 0.24005 0.0
C141 C 0.57189 0.39976 0.26777 0.0
C142 C 0.54337 0.38225 0.2821 0.0
H143 H 0.29557 0.1111 0.87698 0.0
H144 H 0.20567 0.11642 0.94669 0.0
H145 H 0.21579 0.1897 0.87268 0.0
N146 N 0.27774 0.16492 0.84425 0.0
N147 N 0.26637 0.19012 0.83045 0.0
C148 C 0.27166 0.12391 0.88721 0.0
C149 C 0.2528 0.11106 0.91447 0.0
C150 C 0.25903 0.15277 0.87246 0.0
C151 C 0.22674 0.16819 0.88464 0.0
C152 C 0.20763 0.1553 0.91152 0.0
C153 C 0.22129 0.12731 0.92686 0.0
H154 H 0.20978 0.59801 0.36584 0.0
H155 H 0.29608 0.60483 0.43931 0.0
H156 H 0.28296 0.68243 0.36982 0.0
N157 N 0.22445 0.65505 0.33755 0.0
N158 N 0.2264 0.68542 0.33196 0.0
C159 C 0.23248 0.6116 0.37759 0.0
C160 C 0.25084 0.59858 0.40503 0.0
C161 C 0.24324 0.64234 0.36543 0.0
C162 C 0.27367 0.65932 0.37991 0.0
C163 C 0.2929 0.64595 0.40662 0.0
C164 C 0.28076 0.61597 0.41941 0.0
H165 H 0.87077 0.89954 0.73769 0.0
H166 H 0.95644 0.894 0.81116 0.0
H167 H 0.93424 0.80901 0.74113 0.0
N168 N 0.87907 0.83917 0.70821 0.0
N169 N 0.88228 0.80954 0.69621 0.0
C170 C 0.89275 0.88583 0.74865 0.0
C171 C 0.9129 0.9009 0.77576 0.0
C172 C 0.9005 0.85299 0.73564 0.0
C173 C 0.92847 0.83468 0.75038 0.0
C174 C 0.94892 0.84979 0.77735 0.0
C175 C 0.94125 0.88286 0.7896 0.0
H176 H 0.17904 0.92423 0.1665 0.0
H177 H 0.07566 0.94591 0.12115 0.0
H178 H 0.16549 0.96485 0.21433 0.0
H179 H 0.06266 0.98646 0.16816 0.0
H180 H 0.03252 0.04066 0.26506 0.0
H181 H 0.04855 0.99123 0.22812 0.0
H182 H 0.15915 0.02617 0.22476 0.0
H183 H 0.1431 0.0753 0.26237 0.0
C184 C 0.15344 0.9375 0.16672 0.0
C185 C 0.12853 0.9318 0.13982 0.0
C186 C 0.14574 0.96084 0.19409 0.0
C187 C 0.11288 0.97875 0.19523 0.0
C188 C 0.08791 0.97266 0.16853 0.0
C189 C 0.09559 0.94955 0.14128 0.0
C190 C 0.0604 0.03735 0.25699 0.0
C191 C 0.08648 0.06193 0.26627 0.0
C192 C 0.06957 0.00917 0.23568 0.0
C193 C 0.10497 0.0051 0.2229 0.0
C194 C 0.13168 0.02846 0.23423 0.0
C195 C 0.12251 0.0566 0.2558 0.0
H196 H 0.56654 0.73031 0.60418 0.0
H197 H 0.60355 0.63071 0.62408 0.0
H198 H 0.53739 0.73543 0.66023 0.0
H199 H 0.57416 0.63541 0.67907 0.0
H200 H 0.43988 0.69315 0.7241 0.0
H201 H 0.48359 0.70886 0.68152 0.0
H202 H 0.56855 0.66018 0.73564 0.0
H203 H 0.52417 0.64343 0.77732 0.0
C204 C 0.56915 0.70986 0.62078 0.0
C205 C 0.58685 0.67991 0.60949 0.0
C206 C 0.55229 0.7127 0.65278 0.0
C207 C 0.55317 0.68577 0.67415 0.0
C208 C 0.57319 0.65689 0.66367 0.0
C209 C 0.58977 0.654 0.63182 0.0
C210 C 0.4682 0.68714 0.72755 0.0
C211 C 0.47887 0.6672 0.75379 0.0
C212 C 0.49333 0.69611 0.70318 0.0
C213 C 0.52952 0.68521 0.70476 0.0
C214 C 0.54075 0.66836 0.73327 0.0
C215 C 0.51553 0.65909 0.75736 0.0
H216 H 0.83643 0.0756 0.09562 0.0
H217 H 0.74698 0.07135 0.02456 0.0
H218 H 0.80903 0.03097 0.12596 0.0
H219 H 0.71942 0.02638 0.05516 0.0
H220 H 0.7376 0.91147 0.08023 0.0
H221 H 0.7416 0.96696 0.05797 0.0
H222 H 0.75678 0.01164 0.16018 0.0
H223 H 0.75279 0.95579 0.18238 0.0
C224 C 0.81055 0.06553 0.08684 0.0
C225 C 0.79415 0.07662 0.05739 0.0
C226 C 0.79462 0.04019 0.10448 0.0
C227 C 0.76209 0.02511 0.09289 0.0
C228 C 0.74458 0.03749 0.06457 0.0
C229 C 0.76033 0.06324 0.04712 0.0
C230 C 0.74043 0.93334 0.09798 0.0
C231 C 0.74513 0.92951 0.13291 0.0
C232 C 0.7426 0.96513 0.0853 0.0
C233 C 0.74993 0.99359 0.10732 0.0
C234 C 0.75142 0.99006 0.14263 0.0
C235 C 0.74886 0.95821 0.15537 0.0
H236 H 0.50736 0.36554 0.54595 0.0
H237 H 0.48514 0.27555 0.59776 0.0
H238 H 0.57065 0.3626 0.56236 0.0
H239 H 0.54906 0.27287 0.61445 0.0
H240 H 0.65337 0.32164 0.67283 0.0
H241 H 0.59142 0.31082 0.6533 0.0
H242 H 0.62452 0.32373 0.54983 0.0
H243 H 0.68664 0.3339 0.56913 0.0
C244 C 0.51595 0.34511 0.56089 0.0
C245 C 0.49114 0.32083 0.57065 0.0
C246 C 0.55232 0.34326 0.56998 0.0
C247 C 0.56477 0.31731 0.58936 0.0
C248 C 0.54009 0.29307 0.59941 0.0
C249 C 0.50361 0.29462 0.58984 0.0
C250 C 0.64773 0.32103 0.64577 0.0
C251 C 0.67481 0.3291 0.62256 0.0
C252 C 0.61221 0.31493 0.63464 0.0
C253 C 0.60317 0.317 0.60017 0.0
C254 C 0.63073 0.32257 0.57665 0.0
C255 C 0.66622 0.32841 0.5877 0.0
H256 H 0.57491 0.54808 0.43038 0.0
H257 H 0.67695 0.57047 0.38309 0.0
H258 H 0.56126 0.5073 0.38368 0.0
H259 H 0.66274 0.52961 0.33562 0.0
H260 H 0.64011 0.41941 0.28731 0.0
H261 H 0.65662 0.46824 0.32517 0.0
H262 H 0.54575 0.50278 0.3239 0.0
H263 H 0.52929 0.45369 0.28663 0.0
C264 C 0.59441 0.54452 0.4099 0.0
C265 C 0.62715 0.56258 0.41069 0.0
C266 C 0.58635 0.52128 0.38285 0.0
C267 C 0.61074 0.51536 0.3557 0.0
C268 C 0.64344 0.5335 0.35622 0.0
C269 C 0.65152 0.55696 0.38339 0.0
C270 C 0.61954 0.43796 0.29441 0.0
C271 C 0.58335 0.43261 0.28438 0.0
C272 C 0.62896 0.46592 0.31613 0.0
C273 C 0.60236 0.48908 0.32808 0.0
C274 C 0.56672 0.48497 0.31584 0.0
C275 C 0.5573 0.45699 0.29436 0.0
H276 H 0.99809 0.22669 0.99509 0.0
H277 H 0.98639 0.12784 0.9439 0.0
H278 H 0.0612 0.22871 0.97563 0.0
H279 H 0.04886 0.13038 0.92381 0.0
H280 H 0.15085 0.16153 0.86867 0.0
H281 H 0.08742 0.17154 0.88427 0.0
H282 H 0.118 0.18595 0.99016 0.0
H283 H 0.18152 0.17523 0.97464 0.0
C284 C 0.00884 0.20571 0.97925 0.0
C285 C 0.98753 0.17704 0.97106 0.0
C286 C 0.04481 0.20686 0.96827 0.0
C287 C 0.05956 0.17977 0.94818 0.0
C288 C 0.03787 0.15167 0.93905 0.0
C289 C 0.0023 0.15016 0.95069 0.0
C290 C 0.14411 0.16774 0.89516 0.0
C291 C 0.17091 0.16766 0.92051 0.0
C292 C 0.10792 0.17327 0.90404 0.0
C293 C 0.09809 0.17944 0.93834 0.0
C294 C 0.12511 0.18148 0.96352 0.0
C295 C 0.16127 0.17528 0.9547 0.0
H296 H 0.33173 0.41849 0.45314 0.0
H297 H 0.2455 0.42474 0.52741 0.0
H298 H 0.30352 0.46291 0.42311 0.0
H299 H 0.21705 0.46961 0.49711 0.0
H300 H 0.23615 0.58392 0.46998 0.0
H301 H 0.2395 0.5286 0.49267 0.0
H302 H 0.25064 0.48275 0.39048 0.0
H303 H 0.24744 0.53842 0.36785 0.0
C304 C 0.30632 0.42895 0.46268 0.0
C305 C 0.2911 0.4185 0.49292 0.0
C306 C 0.28991 0.45418 0.44523 0.0
C307 C 0.25808 0.46983 0.45779 0.0
C308 C 0.24165 0.45805 0.48694 0.0
C309 C 0.25787 0.43236 0.50421 0.0
C310 C 0.23797 0.56186 0.45235 0.0
C311 C 0.24188 0.56531 0.41726 0.0
C312 C 0.23973 0.53016 0.46529 0.0
C313 C 0.24582 0.50137 0.44337 0.0
C314 C 0.2463 0.50457 0.40797 0.0
C315 C 0.24419 0.53634 0.39499 0.0
H316 H 0.06657 0.76723 0.94378 0.0
H317 H 0.10182 0.8678 0.92567 0.0
H318 H 0.03666 0.76292 0.88801 0.0
H319 H 0.07168 0.86388 0.87096 0.0
H320 H 0.02171 0.85614 0.77221 0.0
H321 H 0.0663 0.83993 0.81403 0.0
H322 H 0.98229 0.7891 0.86713 0.0
H323 H 0.93836 0.80431 0.82439 0.0
C324 C 0.06861 0.78809 0.92764 0.0
C325 C 0.08612 0.81803 0.93935 0.0
C326 C 0.0513 0.78571 0.89579 0.0
C327 C 0.05153 0.8131 0.87499 0.0
C328 C 0.07123 0.84206 0.88591 0.0
C329 C 0.08825 0.84448 0.9176 0.0
C330 C 0.01334 0.84018 0.79199 0.0
C331 C 0.97686 0.83126 0.79518 0.0
C332 C 0.03868 0.83121 0.81617 0.0
C333 C 0.02776 0.81383 0.84441 0.0
C334 C 0.99179 0.80227 0.84568 0.0
C335 C 0.96655 0.81094 0.82122 0.0
H336 H 0.81651 0.07742 0.88833 0.0
H337 H 0.92008 0.05418 0.93249 0.0
H338 H 0.82794 0.03513 0.84139 0.0
H339 H 0.9309 0.01205 0.88653 0.0
H340 H 0.95769 0.95404 0.79121 0.0
H341 H 0.9438 0.00511 0.82656 0.0
H342 H 0.83222 0.97351 0.83304 0.0
H343 H 0.8461 0.92281 0.79689 0.0
C344 C 0.84167 0.06344 0.88804 0.0
C345 C 0.86726 0.06916 0.91433 0.0
C346 C 0.84816 0.03919 0.8612 0.0
C347 C 0.88045 0.0204 0.86006 0.0
C348 C 0.90609 0.02652 0.88614 0.0
C349 C 0.89964 0.05054 0.91282 0.0
C350 C 0.93007 0.9584 0.79968 0.0
C351 C 0.90305 0.93439 0.7917 0.0
C352 C 0.92212 0.98752 0.82002 0.0
C353 C 0.88705 0.99304 0.83318 0.0
C354 C 0.85945 0.97011 0.82321 0.0
C355 C 0.86738 0.94106 0.80255 0.0
H356 H 0.4312 0.25949 0.43818 0.0
H357 H 0.38763 0.35778 0.42222 0.0
H358 H 0.4563 0.25631 0.38041 0.0
H359 H 0.41328 0.35525 0.36578 0.0
H360 H 0.46147 0.35419 0.26742 0.0
H361 H 0.4189 0.33389 0.30895 0.0
H362 H 0.50717 0.28471 0.35813 0.0
H363 H 0.54884 0.30359 0.31544 0.0
C364 C 0.42629 0.28002 0.4221 0.0
C365 C 0.40821 0.3092 0.43494 0.0
C366 C 0.44081 0.27831 0.38912 0.0
C367 C 0.43728 0.30569 0.3685 0.0
C368 C 0.41638 0.33348 0.38054 0.0
C369 C 0.40202 0.33517 0.41327 0.0
C370 C 0.47121 0.33788 0.28637 0.0
C371 C 0.50814 0.33043 0.28861 0.0
C372 C 0.44704 0.32646 0.31029 0.0
C373 C 0.45971 0.30831 0.33741 0.0
C374 C 0.49628 0.29837 0.33757 0.0
C375 C 0.52028 0.30932 0.31327 0.0
H376 H 0.16653 0.93322 0.96005 0.0
H377 H 0.25264 0.9355 0.03465 0.0
H378 H 0.196 0.97824 0.93171 0.0
H379 H 0.28208 0.98094 0.00621 0.0
H380 H 0.25778 0.05118 0.87751 0.0
H381 H 0.25216 0.99565 0.89998 0.0
H382 H 0.25985 0.0413 0.00252 0.0
H383 H 0.26534 0.09664 0.98 0.0
C384 C 0.19204 0.94301 0.97009 0.0
C385 C 0.20703 0.93111 -0.00019 0.0
C386 C 0.20915 0.96854 0.95363 0.0
C387 C 0.24138 0.98303 0.96674 0.0
C388 C 0.25726 0.97018 0.9956 0.0
C389 C 0.2404 0.9442 0.01182 0.0
C390 C 0.2599 0.04908 0.90476 0.0
C391 C 0.2618 0.07803 0.92712 0.0
C392 C 0.25635 0.01741 0.91761 0.0
C393 C 0.25507 0.01428 0.95297 0.0
C394 C 0.26094 0.04291 0.97516 0.0
C395 C 0.26404 0.07458 0.96233 0.0
H396 H 0.49372 0.62593 0.49768 0.0
H397 H 0.51772 0.715 0.44501 0.0
H398 H 0.43086 0.6291 0.48047 0.0
H399 H 0.45395 0.71796 0.42748 0.0
H400 H 0.34922 0.66818 0.36893 0.0
H401 H 0.41099 0.68013 0.38872 0.0
H402 H 0.37741 0.66791 0.49221 0.0
H403 H 0.31569 0.6563 0.47256 0.0
C404 C 0.48562 0.64624 0.48238 0.0
C405 C 0.51086 0.67016 0.47263 0.0
C406 C 0.44942 0.64823 0.47282 0.0
C407 C 0.43743 0.67399 0.45298 0.0
C408 C 0.46253 0.6979 0.44289 0.0
C409 C 0.49892 0.69621 0.45295 0.0
C410 C 0.35476 0.66919 0.39602 0.0
C411 C 0.32775 0.66078 0.41916 0.0
C412 C 0.39015 0.67597 0.40732 0.0
C413 C 0.39906 0.67434 0.4419 0.0
C414 C 0.37138 0.66873 0.46531 0.0
C415 C 0.33609 0.66209 0.45408 0.0
H416 H 0.42261 0.44361 0.61339 0.0
H417 H 0.3209 0.41906 0.66013 0.0
H418 H 0.43394 0.48619 0.65902 0.0
H419 H 0.33281 0.46168 0.70654 0.0
H420 H 0.46171 0.54439 0.75489 0.0
H421 H 0.44831 0.49365 0.71883 0.0
H422 H 0.33587 0.52315 0.71471 0.0
H423 H 0.34929 0.57358 0.75139 0.0
C424 C 0.40272 0.44705 0.63355 0.0
C425 C 0.3707 0.42792 0.63289 0.0
C426 C 0.40944 0.47134 0.65999 0.0
C427 C 0.38442 0.4772 0.68661 0.0
C428 C 0.35253 0.45789 0.68628 0.0
C429 C 0.34577 0.43343 0.65973 0.0
C430 C 0.43404 0.53967 0.74673 0.0
C431 C 0.40661 0.56303 0.7556 0.0
C432 C 0.42636 0.51073 0.72597 0.0
C433 C 0.39114 0.50467 0.71337 0.0
C434 C 0.36324 0.52696 0.72411 0.0
C435 C 0.3709 0.55585 0.74511 0.0
H436 H 0.01921 0.77943 0.10321 0.0
H437 H 0.99433 0.8694 0.0523 0.0
H438 H 0.95551 0.7757 0.12066 0.0
H439 H 0.93153 0.86544 0.06938 0.0
H440 H 0.8168 0.83747 0.07643 0.0
H441 H 0.87849 0.82599 0.05673 0.0
H442 H 0.91226 0.813 0.16007 0.0
H443 H 0.85049 0.82478 0.17992 0.0
C444 C 0.00023 0.79826 0.09565 0.0
C445 C 0.0119 0.82478 0.07648 0.0
C446 C 0.96388 0.79612 0.10564 0.0
C447 C 0.93857 0.82004 0.09599 0.0
C448 C 0.95029 0.84629 0.07668 0.0
C449 C 0.98644 0.84873 0.0672 0.0
C450 C 0.83723 0.83147 0.09485 0.0
C451 C 0.82897 0.83258 0.12976 0.0
C452 C 0.87249 0.82492 0.08359 0.0
C453 C 0.90022 0.81922 0.10698 0.0
C454 C 0.89137 0.81725 0.14151 0.0
C455 C 0.85599 0.82393 0.15283 0.0
H456 H 0.75421 0.56403 0.51777 0.0
H457 H 0.66575 0.56346 0.58959 0.0
H458 H 0.78461 0.52001 0.54751 0.0
H459 H 0.69604 0.51975 0.61909 0.0
H460 H 0.75605 0.4476 0.67464 0.0
H461 H 0.75041 0.50337 0.65271 0.0
H462 H 0.76567 0.45943 0.55027 0.0
H463 H 0.77134 0.40394 0.57227 0.0
C464 C 0.74159 0.555 0.54025 0.0
C465 C 0.7073 0.56683 0.55104 0.0
C466 C 0.75902 0.52984 0.55724 0.0
C467 C 0.74274 0.51649 0.58561 0.0
C468 C 0.70954 0.52984 0.59758 0.0
C469 C 0.69194 0.55461 0.5804 0.0
C470 C 0.75988 0.4502 0.64764 0.0
C471 C 0.76386 0.42164 0.62503 0.0
C472 C 0.75632 0.482 0.63507 0.0
C473 C 0.75701 0.48561 0.59976 0.0
C474 C 0.76517 0.45748 0.57759 0.0
C475 C 0.76838 0.42571 0.59013 0.0
H476 H 0.93138 0.23581 0.1119 0.0
H477 H 0.89503 0.13419 0.12334 0.0
H478 H 0.9567 0.23801 0.16972 0.0
H479 H 0.92069 0.13591 0.17981 0.0
H480 H 0.96503 0.13722 0.27972 0.0
H481 H 0.92263 0.15652 0.23747 0.0
H482 H 0.00934 0.21126 0.19237 0.0
H483 H 0.05087 0.19325 0.23581 0.0
C484 C 0.92815 0.21428 0.12699 0.0
C485 C 0.9119 0.18461 0.11293 0.0
C486 C 0.94277 0.21544 0.15998 0.0
C487 C 0.94099 0.18707 0.17941 0.0
C488 C 0.92226 0.15845 0.16601 0.0
C489 C 0.90792 0.15726 0.13327 0.0
C490 C 0.97441 0.1545 0.26154 0.0
C491 C 0.01095 0.16375 0.26065 0.0
C492 C 0.95035 0.16536 0.23721 0.0
C493 C 0.96276 0.18478 0.21099 0.0
C494 C 0.99871 0.19653 0.21222 0.0
C495 C 0.02261 0.18613 0.23697 0.0
H496 H 0.21358 0.80633 0.16567 0.0
H497 H 0.12534 0.73758 0.14082 0.0
H498 H 0.22388 0.77988 0.21816 0.0
H499 H 0.13532 0.71131 0.19462 0.0
H500 H 0.19929 0.65123 0.27499 0.0
H501 H 0.17965 0.67659 0.22305 0.0
H502 H 0.19693 0.7755 0.27266 0.0
H503 H 0.21782 0.7499 0.32379 0.0
C504 C 0.19604 0.78572 0.1715 0.0
C505 C 0.16847 0.77423 0.14891 0.0
C506 C 0.20184 0.77066 0.20191 0.0
C507 C 0.18011 0.74377 0.21093 0.0
C508 C 0.1526 0.73195 0.18836 0.0
C509 C 0.14681 0.74706 0.15762 0.0
C510 C 0.19833 0.67837 0.2748 0.0
C511 C 0.21021 0.69888 0.30317 0.0
C512 C 0.18696 0.69291 0.24515 0.0
C513 C 0.18721 0.72808 0.24351 0.0
C514 C 0.1972 0.74833 0.27273 0.0
C515 C 0.20888 0.73382 0.30207 0.0
H516 H 0.69807 0.76134 0.5701 0.0
H517 H 0.7798 0.69277 0.52804 0.0
H518 H 0.74227 0.78663 0.60972 0.0
H519 H 0.82436 0.71883 0.56726 0.0
H520 H 0.83525 0.84441 0.65866 0.0
H521 H 0.79543 0.8209 0.61382 0.0
H522 H 0.83817 0.72173 0.62747 0.0
H523 H 0.87897 0.74579 0.67191 0.0
C524 C 0.72559 0.75195 0.5689 0.0
C525 C 0.73525 0.7249 0.54586 0.0
C526 C 0.75105 0.76661 0.59159 0.0
C527 C 0.7869 0.75474 0.59175 0.0
C528 C 0.79685 0.72825 0.56816 0.0
C529 C 0.77132 0.71348 0.54549 0.0
C530 C 0.83629 0.81762 0.65197 0.0
C531 C 0.85997 0.79667 0.66889 0.0
C532 C 0.81333 0.80411 0.62636 0.0
C533 C 0.81332 0.76937 0.61721 0.0
C534 C 0.83771 0.74863 0.63361 0.0
C535 C 0.86088 0.76225 0.65914 0.0
H536 H 0.80514 0.2754 0.06726 0.0
H537 H 0.72016 0.20759 0.03035 0.0
H538 H 0.76161 0.30763 0.10197 0.0
H539 H 0.67618 0.24069 0.06468 0.0
H540 H 0.67239 0.37523 0.14286 0.0
H541 H 0.7109 0.34506 0.10027 0.0
H542 H 0.66156 0.25119 0.12428 0.0
H543 H 0.62264 0.2815 0.16577 0.0
C544 C 0.77706 0.26754 0.06618 0.0
C545 C 0.76624 0.23871 0.04607 0.0
C546 C 0.752 0.28627 0.08596 0.0
C547 C 0.71537 0.27683 0.08606 0.0
C548 C 0.7043 0.24841 0.06545 0.0
C549 C 0.72948 0.22952 0.04568 0.0
C550 C 0.66969 0.34821 0.13854 0.0
C551 C 0.64484 0.33077 0.15751 0.0
C552 C 0.69174 0.33089 0.11441 0.0
C553 C 0.68946 0.29566 0.10903 0.0
C554 C 0.66372 0.27833 0.12744 0.0
C555 C 0.64158 0.29568 0.15141 0.0
H556 H 0.35242 0.22101 0.63123 0.0
H557 H 0.33091 0.32045 0.6774 0.0
H558 H 0.33848 0.19695 0.68537 0.0
H559 H 0.31845 0.29682 0.73148 0.0
H560 H 0.24283 0.2422 0.79999 0.0
H561 H 0.26756 0.26569 0.74943 0.0
H562 H 0.35288 0.19119 0.74575 0.0
H563 H 0.32708 0.16721 0.79626 0.0
C564 C 0.34559 0.23773 0.65316 0.0
C565 C 0.34201 0.27247 0.65004 0.0
C566 C 0.33773 0.22401 0.68417 0.0
C567 C 0.32661 0.24493 0.71253 0.0
C568 C 0.32587 0.27991 0.70987 0.0
C569 C 0.33315 0.29348 0.67893 0.0
C570 C 0.26699 0.23111 0.78836 0.0
C571 C 0.28305 0.20323 0.80182 0.0
C572 C 0.28138 0.24461 0.75962 0.0
C573 C 0.31251 0.23057 0.74375 0.0
C574 C 0.32882 0.20249 0.75734 0.0
C575 C 0.31421 0.18887 0.78626 0.0
H576 H 0.70949 0.68571 0.38043 0.0
H577 H 0.62505 0.75797 0.40715 0.0
H578 H 0.71988 0.71185 0.32782 0.0
H579 H 0.63502 0.78389 0.35322 0.0
H580 H 0.70092 0.84257 0.27355 0.0
H581 H 0.68032 0.81709 0.32499 0.0
H582 H 0.69317 0.71832 0.2737 0.0
H583 H 0.71514 0.74403 0.22304 0.0
C584 C 0.69277 0.70702 0.37497 0.0
C585 C 0.66635 0.71966 0.39819 0.0
C586 C 0.69858 0.72189 0.34448 0.0
C587 C 0.678 0.74975 0.33601 0.0
C588 C 0.65144 0.76252 0.35907 0.0
C589 C 0.64565 0.7476 0.38989 0.0
C590 C 0.69878 0.81546 0.27325 0.0
C591 C 0.70976 0.79498 0.24455 0.0
C592 C 0.68684 0.80085 0.30262 0.0
C593 C 0.68556 0.76564 0.30365 0.0
C594 C 0.69462 0.74549 0.27409 0.0
C595 C 0.70691 0.76007 0.24502 0.0
H596 H 0.85015 0.27641 0.91961 0.0
H597 H 0.82427 0.17762 0.87405 0.0
H598 H 0.83543 0.30083 0.86576 0.0
H599 H 0.81093 0.20157 0.82034 0.0
H600 H 0.73747 0.25778 0.7515 0.0
H601 H 0.76101 0.23437 0.8027 0.0
H602 H 0.84952 0.30554 0.80515 0.0
H603 H 0.82497 0.32948 0.75412 0.0
C604 C 0.84211 0.2599 0.89789 0.0
C605 C 0.83765 0.22526 0.90111 0.0
C606 C 0.83378 0.27382 0.86707 0.0
C607 C 0.82128 0.25319 0.83899 0.0
C608 C 0.81942 0.21828 0.84175 0.0
C609 C 0.82721 0.20453 0.87249 0.0
C610 C 0.76202 0.26819 0.76305 0.0
C611 C 0.77939 0.29511 0.74905 0.0
C612 C 0.77571 0.25475 0.79215 0.0
C613 C 0.80744 0.26784 0.80781 0.0
C614 C 0.82496 0.29502 0.79376 0.0
C615 C 0.81106 0.30859 0.76452 0.0
H616 H 0.22145 0.28777 0.52084 0.0
H617 H 0.30599 0.21852 0.48619 0.0
H618 H 0.17753 0.25471 0.48629 0.0
H619 H 0.26255 0.18634 0.45127 0.0
H620 H 0.17324 0.11975 0.40883 0.0
H621 H 0.21114 0.14967 0.45216 0.0
H622 H 0.16412 0.24398 0.42633 0.0
H623 H 0.12577 0.21392 0.38406 0.0
C624 C 0.23067 0.26549 0.50604 0.0
C625 C 0.26733 0.25596 0.50623 0.0
C626 C 0.20553 0.24664 0.48611 0.0
C627 C 0.21653 0.2179 0.46598 0.0
C628 C 0.25299 0.20799 0.46686 0.0
C629 C 0.27802 0.2267 0.48676 0.0
C630 C 0.17091 0.14683 0.4129 0.0
C631 C 0.14689 0.16446 0.39318 0.0
C632 C 0.19261 0.16399 0.43747 0.0
C633 C 0.19081 0.19926 0.44257 0.0
C634 C 0.16587 0.21681 0.4234 0.0
C635 C 0.14408 0.1996 0.39897 0.0
H636 H 0.19842 0.73592 0.97638 0.0
H637 H 0.28057 0.80348 0.01958 0.0
H638 H 0.24259 0.71063 0.93681 0.0
H639 H 0.32509 0.77741 0.98042 0.0
H640 H 0.3805 0.75068 0.8764 0.0
H641 H 0.33938 0.77481 0.92042 0.0
H642 H 0.2954 0.67586 0.93282 0.0
H643 H 0.3356 0.65229 0.88834 0.0
C644 C 0.22602 0.7451 0.97782 0.0
C645 C 0.23582 0.77186 0.00119 0.0
C646 C 0.25146 0.73043 0.95516 0.0
C647 C 0.28743 0.74199 0.95537 0.0
C648 C 0.29749 0.76823 0.97923 0.0
C649 C 0.27198 0.78302 0.00186 0.0
C650 C 0.36206 0.73429 0.8888 0.0
C651 C 0.36096 0.69991 0.87883 0.0
C652 C 0.3387 0.74794 0.91409 0.0
C653 C 0.31391 0.72728 0.93005 0.0
C654 C 0.31363 0.69259 0.92063 0.0
C655 C 0.33681 0.67904 0.89525 0.0
loop_
_geom_bond_atom_site_label_1
_geom_bond_atom_site_label_2
_geom_bond_distance
_geom_bond_site_symmetry_2
_ccdc_geom_bond_type
Sc0 O3 2.025 . S
Sc0 O10 2.105 . S
Sc0 O13 2.105 . S
Sc0 O16 2.105 . S
Sc0 O19 2.105 1_554 S
Sc1 O3 2.025 . S
Sc1 O11 2.105 1_554 S
Sc1 O15 2.105 . S
Sc1 O17 2.105 . S
Sc1 O21 2.105 . S
Sc2 O3 2.025 . S
Sc2 O12 2.105 . S
Sc2 O14 2.105 . S
Sc2 O18 2.105 . S
Sc2 O20 2.105 . S
O3 Sc0 2.025 . S
O3 Sc1 2.025 . S
O3 Sc2 2.025 . S
C4 O10 1.268 . S
C4 O20 1.268 . S
C5 O11 1.268 . S
C5 O19 1.268 . S
C6 O12 1.268 . S
C6 O21 1.268 . S
C7 O13 1.268 . S
C7 O17 1.268 . S
C8 O14 1.268 . S
C8 O16 1.268 . S
C9 O15 1.268 . S
C9 O18 1.268 . S
O10 Sc0 2.105 . S
O10 C4 1.268 . S
O11 Sc1 2.105 1_556 S
O11 C5 1.268 . S
O12 Sc2 2.105 . S
O12 C6 1.268 . S
O13 Sc0 2.105 . S
O13 C7 1.268 . S
O14 Sc2 2.105 . S
O14 C8 1.268 . S
O15 Sc1 2.105 . S
O15 C9 1.268 . S
O16 Sc0 2.105 . S
O16 C8 1.268 . S
O17 Sc1 2.105 . S
O17 C7 1.268 . S
O18 Sc2 2.105 . S
O18 C9 1.268 . S
O19 Sc0 2.105 1_556 S
O19 C5 1.268 . S
O20 Sc2 2.105 . S
O20 C4 1.268 . S
O21 Sc1 2.105 . S
O21 C6 1.268 . S
Sc22 O25 2.025 . S
Sc22 O32 2.105 . S
Sc22 O35 2.105 . S
Sc22 O38 2.105 . S
Sc22 O41 2.105 . S
Sc23 O25 2.025 . S
Sc23 O33 2.105 . S
Sc23 O37 2.105 . S
Sc23 O39 2.105 . S
Sc23 O43 2.105 . S
Sc24 O25 2.025 . S
Sc24 O34 2.105 . S
Sc24 O36 2.105 . S
Sc24 O40 2.105 . S
Sc24 O42 2.105 . S
O25 Sc22 2.025 . S
O25 Sc23 2.025 . S
O25 Sc24 2.025 . S
C26 O32 1.268 . S
C26 O42 1.268 . S
C27 O33 1.268 . S
C27 O41 1.268 . S
C28 O34 1.268 . S
C28 O43 1.268 . S
C29 O35 1.268 . S
C29 O39 1.268 . S
C30 O36 1.268 . S
C30 O38 1.268 . S
C31 O37 1.268 . S
C31 O40 1.268 . S
O32 Sc22 2.105 . S
O32 C26 1.268 . S
O33 Sc23 2.105 . S
O33 C27 1.268 . S
O34 Sc24 2.105 . S
O34 C28 1.268 . S
O35 Sc22 2.105 . S
O35 C29 1.268 . S
O36 Sc24 2.105 . S
O36 C30 1.268 . S
O37 Sc23 2.105 . S
O37 C31 1.268 . S
O38 Sc22 2.105 . S
O38 C30 1.268 . S
O39 Sc23 2.105 . S
O39 C29 1.268 . S
O40 Sc24 2.105 . S
O40 C31 1.268 . S
O41 Sc22 2.105 . S
O41 C27 1.268 . S
O42 Sc24 2.105 . S
O42 C26 1.268 . S
O43 Sc23 2.105 . S
O43 C28 1.268 . S
Sc44 O47 2.025 . S
Sc44 O54 2.105 1_554 S
Sc44 O57 2.105 . S
Sc44 O60 2.105 . S
Sc44 O63 2.105 1_554 S
Sc45 O47 2.025 1_556 S
Sc45 O55 2.105 . S
Sc45 O59 2.105 1_556 S
Sc45 O61 2.105 1_556 S
Sc45 O65 2.105 . S
Sc46 O47 2.025 . S
Sc46 O56 2.105 1_554 S
Sc46 O58 2.105 . S
Sc46 O62 2.105 . S
Sc46 O64 2.105 1_554 S
O47 Sc44 2.025 . S
O47 Sc45 2.025 1_554 S
O47 Sc46 2.025 . S
C48 O54 1.268 . S
C48 O64 1.268 . S
C49 O55 1.268 . S
C49 O63 1.268 . S
C50 O56 1.268 . S
C50 O65 1.268 . S
C51 O57 1.268 . S
C51 O61 1.268 . S
C52 O58 1.268 . S
C52 O60 1.268 . S
C53 O59 1.268 . S
C53 O62 1.268 . S
O54 Sc44 2.105 1_556 S
O54 C48 1.268 . S
O55 Sc45 2.105 . S
O55 C49 1.268 . S
O56 Sc46 2.105 1_556 S
O56 C50 1.268 . S
O57 Sc44 2.105 . S
O57 C51 1.268 . S
O58 Sc46 2.105 . S
O58 C52 1.268 . S
O59 Sc45 2.105 1_554 S
O59 C53 1.268 . S
O60 Sc44 2.105 . S
O60 C52 1.268 . S
O61 Sc45 2.105 1_554 S
O61 C51 1.268 . S
O62 Sc46 2.105 . S
O62 C53 1.268 . S
O63 Sc44 2.105 1_556 S
O63 C49 1.268 . S
O64 Sc46 2.105 1_556 S
O64 C48 1.268 . S
O65 Sc45 2.105 . S
O65 C50 1.268 . S
Sc66 O69 2.025 . S
Sc66 O76 2.105 . S
Sc66 O79 2.105 . S
Sc66 O82 2.105 . S
Sc66 O85 2.105 . S
Sc67 O69 2.025 . S
Sc67 O77 2.105 . S
Sc67 O81 2.105 . S
Sc67 O83 2.105 . S
Sc67 O87 2.105 . S
Sc68 O69 2.025 . S
Sc68 O78 2.105 . S
Sc68 O80 2.105 . S
Sc68 O84 2.105 . S
Sc68 O86 2.105 . S
O69 Sc66 2.025 . S
O69 Sc67 2.025 . S
O69 Sc68 2.025 . S
C70 O76 1.268 . S
C70 O86 1.268 . S
C71 O77 1.268 . S
C71 O85 1.268 . S
C72 O78 1.268 . S
C72 O87 1.268 . S
C73 O79 1.268 . S
C73 O83 1.268 . S
C74 O80 1.268 . S
C74 O82 1.268 . S
C75 O81 1.268 . S
C75 O84 1.268 . S
O76 Sc66 2.105 . S
O76 C70 1.268 . S
O77 Sc67 2.105 . S
O77 C71 1.268 . S
O78 Sc68 2.105 . S
O78 C72 1.268 . S
O79 Sc66 2.105 . S
O79 C73 1.268 . S
O80 Sc68 2.105 . S
O80 C74 1.268 . S
O81 Sc67 2.105 . S
O81 C75 1.268 . S
O82 Sc66 2.105 . S
O82 C74 1.268 . S
O83 Sc67 2.105 . S
O83 C73 1.268 . S
O84 Sc68 2.105 . S
O84 C75 1.268 . S
O85 Sc66 2.105 . S
O85 C71 1.268 . S
O86 Sc68 2.105 . S
O86 C70 1.268 . S
O87 Sc67 2.105 . S
O87 C72 1.268 . S
H88 C93 0.929 . S
H89 C98 0.931 . S
H90 C96 0.930 . S
N91 N92 1.234 . S
N91 C95 1.453 . S
N92 N91 1.234 . S
C93 H88 0.929 . S
C93 C94 1.373 . S
C93 C95 1.368 . S
C94 C93 1.373 . S
C94 C98 1.397 . S
C95 N91 1.453 . S
C95 C93 1.368 . S
C95 C96 1.373 . S
C96 H90 0.930 . S
C96 C95 1.373 . S
C96 C97 1.371 . S
C97 C96 1.371 . S
C97 C98 1.383 . S
C98 H89 0.931 . S
C98 C94 1.397 . S
C98 C97 1.383 . S
H99 C104 0.929 . S
H100 C109 0.931 . S
H101 C107 0.930 . S
N102 N103 1.234 . S
N102 C106 1.453 . S
N103 N102 1.234 . S
C104 H99 0.929 . S
C104 C105 1.373 . S
C104 C106 1.368 . S
C105 C104 1.373 . S
C105 C109 1.397 . S
C106 N102 1.453 . S
C106 C104 1.368 . S
C106 C107 1.373 . S
C107 H101 0.930 . S
C107 C106 1.373 . S
C107 C108 1.371 . S
C108 C107 1.371 . S
C108 C109 1.383 . S
C109 H100 0.931 . S
C109 C105 1.397 . S
C109 C108 1.383 . S
H110 C115 0.929 . S
H111 C120 0.931 . S
H112 C118 0.930 . S
N113 N114 1.234 . S
N113 C117 1.453 . S
N114 N113 1.234 . S
C115 H110 0.929 . S
C115 C116 1.373 . S
C115 C117 1.368 . S
C116 C115 1.373 . S
C116 C120 1.397 . S
C117 N113 1.453 . S
C117 C115 1.368 . S
C117 C118 1.373 . S
C118 H112 0.930 . S
C118 C117 1.373 . S
C118 C119 1.371 . S
C119 C118 1.371 . S
C119 C120 1.383 . S
C120 H111 0.931 . S
C120 C116 1.397 . S
C120 C119 1.383 . S
H121 C126 0.929 . S
H122 C131 0.931 . S
H123 C129 0.930 . S
N124 N125 1.234 . S
N124 C128 1.453 . S
N125 N124 1.234 . S
C126 H121 0.929 . S
C126 C127 1.373 . S
C126 C128 1.368 . S
C127 C126 1.373 . S
C127 C131 1.397 . S
C128 N124 1.453 . S
C128 C126 1.368 . S
C128 C129 1.373 . S
C129 H123 0.930 . S
C129 C128 1.373 . S
C129 C130 1.371 . S
C130 C129 1.371 . S
C130 C131 1.383 . S
C131 H122 0.931 . S
C131 C127 1.397 . S
C131 C130 1.383 . S
H132 C137 0.929 . S
H133 C142 0.931 . S
H134 C140 0.930 . S
N135 N136 1.234 . S
N135 C139 1.453 . S
N136 N135 1.234 . S
C137 H132 0.929 . S
C137 C138 1.373 . S
C137 C139 1.368 . S
C138 C137 1.373 . S
C138 C142 1.397 . S
C139 N135 1.453 . S
C139 C137 1.368 . S
C139 C140 1.373 . S
C140 H134 0.930 . S
C140 C139 1.373 . S
C140 C141 1.371 . S
C141 C140 1.371 . S
C141 C142 1.383 . S
C142 H133 0.931 . S
C142 C138 1.397 . S
C142 C141 1.383 . S
H143 C148 0.929 . S
H144 C153 0.931 . S
H145 C151 0.930 . S
N146 N147 1.234 . S
N146 C150 1.453 . S
N147 N146 1.234 . S
C148 H143 0.929 . S
C148 C149 1.373 . S
C148 C150 1.368 . S
C149 C148 1.373 . S
C149 C153 1.397 . S
C150 N146 1.453 . S
C150 C148 1.368 . S
C150 C151 1.373 . S
C151 H145 0.930 . S
C151 C150 1.373 . S
C151 C152 1.371 . S
C152 C151 1.371 . S
C152 C153 1.383 . S
C153 H144 0.931 . S
C153 C149 1.397 . S
C153 C152 1.383 . S
H154 C159 0.929 . S
H155 C164 0.931 . S
H156 C162 0.930 . S
N157 N158 1.234 . S
N157 C161 1.453 . S
N158 N157 1.234 . S
C159 H154 0.929 . S
C159 C160 1.373 . S
C159 C161 1.368 . S
C160 C159 1.373 . S
C160 C164 1.397 . S
C161 N157 1.453 . S
C161 C159 1.368 . S
C161 C162 1.373 . S
C162 H156 0.930 . S
C162 C161 1.373 . S
C162 C163 1.371 . S
C163 C162 1.371 . S
C163 C164 1.383 . S
C164 H155 0.931 . S
C164 C160 1.397 . S
C164 C163 1.383 . S
H165 C170 0.929 . S
H166 C175 0.931 . S
H167 C173 0.930 . S
N168 N169 1.234 . S
N168 C172 1.453 . S
N169 N168 1.234 . S
C170 H165 0.929 . S
C170 C171 1.373 . S
C170 C172 1.368 . S
C171 C170 1.373 . S
C171 C175 1.397 . S
C172 N168 1.453 . S
C172 C170 1.368 . S
C172 C173 1.373 . S
C173 H167 0.930 . S
C173 C172 1.373 . S
C173 C174 1.371 . S
C174 C173 1.371 . S
C174 C175 1.383 . S
C175 H166 0.931 . S
C175 C171 1.397 . S
C175 C174 1.383 . S
H176 C184 0.950 . S
H177 C189 0.950 . S
H178 C186 0.950 1_545 S
H179 C188 0.950 . S
H180 C190 0.950 . S
H181 C192 0.950 . S
H182 C194 0.950 . S
H183 C195 0.950 . S
C184 H176 0.950 . S
C184 C185 1.386 . S
C184 C186 1.391 . S
C185 C184 1.386 . S
C185 C189 1.393 . S
C186 H178 0.950 1_565 S
C186 C184 1.391 . S
C186 C187 1.400 . S
C187 C186 1.400 . S
C187 C188 1.398 . S
C187 C193 1.491 1_565 S
C188 H179 0.950 . S
C188 C187 1.398 . S
C188 C189 1.391 . S
C189 H177 0.950 . S
C189 C185 1.393 . S
C189 C188 1.391 . S
C190 H180 0.950 . S
C190 C191 1.386 . S
C190 C192 1.391 . S
C191 C190 1.386 . S
C191 C195 1.393 . S
C192 H181 0.950 . S
C192 C190 1.391 . S
C192 C193 1.400 . S
C193 C187 1.491 1_545 S
C193 C192 1.400 . S
C193 C194 1.398 . S
C194 H182 0.950 . S
C194 C193 1.398 . S
C194 C195 1.391 . S
C195 H183 0.950 . S
C195 C191 1.393 . S
C195 C194 1.391 . S
H196 C204 0.950 . S
H197 C209 0.950 . S
H198 C206 0.950 . S
H199 C208 0.950 . S
H200 C210 0.950 . S
H201 C212 0.950 . S
H202 C214 0.950 . S
H203 C215 0.950 . S
C204 H196 0.950 . S
C204 C205 1.386 . S
C204 C206 1.391 . S
C205 C204 1.386 . S
C205 C209 1.393 . S
C206 H198 0.950 . S
C206 C204 1.391 . S
C206 C207 1.400 . S
C207 C206 1.400 . S
C207 C208 1.398 . S
C207 C213 1.491 . S
C208 H199 0.950 . S
C208 C207 1.398 . S
C208 C209 1.391 . S
C209 H197 0.950 . S
C209 C205 1.393 . S
C209 C208 1.391 . S
C210 H200 0.950 . S
C210 C211 1.386 . S
C210 C212 1.391 . S
C211 C210 1.386 . S
C211 C215 1.393 . S
C212 H201 0.950 . S
C212 C210 1.391 . S
C212 C213 1.400 . S
C213 C207 1.491 . S
C213 C212 1.400 . S
C213 C214 1.398 . S
C214 H202 0.950 . S
C214 C213 1.398 . S
C214 C215 1.391 . S
C215 H203 0.950 . S
C215 C211 1.393 . S
C215 C214 1.391 . S
H216 C224 0.950 . S
H217 C229 0.950 . S
H218 C226 0.950 . S
H219 C228 0.950 . S
H220 C230 0.950 . S
H221 C232 0.950 . S
H222 C234 0.950 . S
H223 C235 0.950 . S
C224 H216 0.950 . S
C224 C225 1.386 . S
C224 C226 1.391 . S
C225 C224 1.386 . S
C225 C229 1.393 . S
C226 H218 0.950 . S
C226 C224 1.391 . S
C226 C227 1.400 . S
C227 C226 1.400 . S
C227 C228 1.398 . S
C227 C233 1.491 1_545 S
C228 H219 0.950 . S
C228 C227 1.398 . S
C228 C229 1.391 . S
C229 H217 0.950 . S
C229 C225 1.393 . S
C229 C228 1.391 . S
C230 H220 0.950 . S
C230 C231 1.386 . S
C230 C232 1.391 . S
C231 C230 1.386 . S
C231 C235 1.393 . S
C232 H221 0.950 . S
C232 C230 1.391 . S
C232 C233 1.400 . S
C233 C227 1.491 1_565 S
C233 C232 1.400 . S
C233 C234 1.398 . S
C234 H222 0.950 . S
C234 C233 1.398 . S
C234 C235 1.391 . S
C235 H223 0.950 . S
C235 C231 1.393 . S
C235 C234 1.391 . S
H236 C244 0.950 . S
H237 C249 0.950 . S
H238 C246 0.950 . S
H239 C248 0.950 . S
H240 C250 0.950 . S
H241 C252 0.950 . S
H242 C254 0.950 . S
H243 C255 0.950 . S
C244 H236 0.950 . S
C244 C245 1.386 . S
C244 C246 1.391 . S
C245 C244 1.386 . S
C245 C249 1.393 . S
C246 H238 0.950 . S
C246 C244 1.391 . S
C246 C247 1.400 . S
C247 C246 1.400 . S
C247 C248 1.398 . S
C247 C253 1.491 . S
C248 H239 0.950 . S
C248 C247 1.398 . S
C248 C249 1.391 . S
C249 H237 0.950 . S
C249 C245 1.393 . S
C249 C248 1.391 . S
C250 H240 0.950 . S
C250 C251 1.386 . S
C250 C252 1.391 . S
C251 C250 1.386 . S
C251 C255 1.393 . S
C252 H241 0.950 . S
C252 C250 1.391 . S
C252 C253 1.400 . S
C253 C247 1.491 . S
C253 C252 1.400 . S
C253 C254 1.398 . S
C254 H242 0.950 . S
C254 C253 1.398 . S
C254 C255 1.391 . S
C255 H243 0.950 . S
C255 C251 1.393 . S
C255 C254 1.391 . S
H256 C264 0.950 . S
H257 C269 0.950 . S
H258 C266 0.950 . S
H259 C268 0.950 . S
H260 C270 0.950 . S
H261 C272 0.950 . S
H262 C274 0.950 . S
H263 C275 0.950 . S
C264 H256 0.950 . S
C264 C265 1.386 . S
C264 C266 1.391 . S
C265 C264 1.386 . S
C265 C269 1.393 . S
C266 H258 0.950 . S
C266 C264 1.391 . S
C266 C267 1.400 . S
C267 C266 1.400 . S
C267 C268 1.398 . S
C267 C273 1.491 . S
C268 H259 0.950 . S
C268 C267 1.398 . S
C268 C269 1.391 . S
C269 H257 0.950 . S
C269 C265 1.393 . S
C269 C268 1.391 . S
C270 H260 0.950 . S
C270 C271 1.386 . S
C270 C272 1.391 . S
C271 C270 1.386 . S
C271 C275 1.393 . S
C272 H261 0.950 . S
C272 C270 1.391 . S
C272 C273 1.400 . S
C273 C267 1.491 . S
C273 C272 1.400 . S
C273 C274 1.398 . S
C274 H262 0.950 . S
C274 C273 1.398 . S
C274 C275 1.391 . S
C275 H263 0.950 . S
C275 C271 1.393 . S
C275 C274 1.391 . S
H276 C284 0.950 . S
H277 C289 0.950 1_655 S
H278 C286 0.950 . S
H279 C288 0.950 . S
H280 C290 0.950 . S
H281 C292 0.950 . S
H282 C294 0.950 . S
H283 C295 0.950 . S
C284 H276 0.950 . S
C284 C285 1.386 . S
C284 C286 1.391 1_655 S
C285 C284 1.386 . S
C285 C289 1.393 1_655 S
C286 H278 0.950 . S
C286 C284 1.391 1_455 S
C286 C287 1.400 . S
C287 C286 1.400 . S
C287 C288 1.398 . S
C287 C293 1.491 . S
C288 H279 0.950 . S
C288 C287 1.398 . S
C288 C289 1.391 . S
C289 H277 0.950 1_455 S
C289 C285 1.393 1_455 S
C289 C288 1.391 . S
C290 H280 0.950 . S
C290 C291 1.386 . S
C290 C292 1.391 . S
C291 C290 1.386 . S
C291 C295 1.393 . S
C292 H281 0.950 . S
C292 C290 1.391 . S
C292 C293 1.400 . S
C293 C287 1.491 . S
C293 C292 1.400 . S
C293 C294 1.398 . S
C294 H282 0.950 . S
C294 C293 1.398 . S
C294 C295 1.391 . S
C295 H283 0.950 . S
C295 C291 1.393 . S
C295 C294 1.391 . S
H296 C304 0.950 . S
H297 C309 0.950 . S
H298 C306 0.950 . S
H299 C308 0.950 . S
H300 C310 0.950 . S
H301 C312 0.950 . S
H302 C314 0.950 . S
H303 C315 0.950 . S
C304 H296 0.950 . S
C304 C305 1.386 . S
C304 C306 1.391 . S
C305 C304 1.386 . S
C305 C309 1.393 . S
C306 H298 0.950 . S
C306 C304 1.391 . S
C306 C307 1.400 . S
C307 C306 1.400 . S
C307 C308 1.398 . S
C307 C313 1.491 . S
C308 H299 0.950 . S
C308 C307 1.398 . S
C308 C309 1.391 . S
C309 H297 0.950 . S
C309 C305 1.393 . S
C309 C308 1.391 . S
C310 H300 0.950 . S
C310 C311 1.386 . S
C310 C312 1.391 . S
C311 C310 1.386 . S
C311 C315 1.393 . S
C312 H301 0.950 . S
C312 C310 1.391 . S
C312 C313 1.400 . S
C313 C307 1.491 . S
C313 C312 1.400 . S
C313 C314 1.398 . S
C314 H302 0.950 . S
C314 C313 1.398 . S
C314 C315 1.391 . S
C315 H303 0.950 . S
C315 C311 1.393 . S
C315 C314 1.391 . S
H316 C324 0.950 . S
H317 C329 0.950 . S
H318 C326 0.950 1_655 S
H319 C328 0.950 . S
H320 C330 0.950 1_455 S
H321 C332 0.950 . S
H322 C334 0.950 . S
H323 C335 0.950 . S
C324 H316 0.950 . S
C324 C325 1.386 . S
C324 C326 1.391 . S
C325 C324 1.386 . S
C325 C329 1.393 . S
C326 H318 0.950 1_455 S
C326 C324 1.391 . S
C326 C327 1.400 . S
C327 C326 1.400 . S
C327 C328 1.398 . S
C327 C333 1.491 . S
C328 H319 0.950 . S
C328 C327 1.398 . S
C328 C329 1.391 . S
C329 H317 0.950 . S
C329 C325 1.393 . S
C329 C328 1.391 . S
C330 H320 0.950 1_655 S
C330 C331 1.386 . S
C330 C332 1.391 1_655 S
C331 C330 1.386 . S
C331 C335 1.393 . S
C332 H321 0.950 . S
C332 C330 1.391 1_455 S
C332 C333 1.400 . S
C333 C327 1.491 . S
C333 C332 1.400 . S
C333 C334 1.398 1_455 S
C334 H322 0.950 . S
C334 C333 1.398 1_655 S
C334 C335 1.391 . S
C335 H323 0.950 . S
C335 C331 1.393 . S
C335 C334 1.391 . S
H336 C344 0.950 . S
H337 C349 0.950 . S
H338 C346 0.950 1_565 S
H339 C348 0.950 . S
H340 C350 0.950 . S
H341 C352 0.950 1_545 S
H342 C354 0.950 . S
H343 C355 0.950 . S
C344 H336 0.950 . S
C344 C345 1.386 . S
C344 C346 1.391 . S
C345 C344 1.386 . S
C345 C349 1.393 . S
C346 H338 0.950 1_545 S
C346 C344 1.391 . S
C346 C347 1.400 . S
C347 C346 1.400 . S
C347 C348 1.398 . S
C347 C353 1.491 1_545 S
C348 H339 0.950 . S
C348 C347 1.398 . S
C348 C349 1.391 . S
C349 H337 0.950 . S
C349 C345 1.393 . S
C349 C348 1.391 . S
C350 H340 0.950 . S
C350 C351 1.386 . S
C350 C352 1.391 . S
C351 C350 1.386 . S
C351 C355 1.393 . S
C352 H341 0.950 1_565 S
C352 C350 1.391 . S
C352 C353 1.400 . S
C353 C347 1.491 1_565 S
C353 C352 1.400 . S
C353 C354 1.398 . S
C354 H342 0.950 . S
C354 C353 1.398 . S
C354 C355 1.391 . S
C355 H343 0.950 . S
C355 C351 1.393 . S
C355 C354 1.391 . S
H356 C364 0.950 . S
H357 C369 0.950 . S
H358 C366 0.950 . S
H359 C368 0.950 . S
H360 C370 0.950 . S
H361 C372 0.950 . S
H362 C374 0.950 . S
H363 C375 0.950 . S
C364 H356 0.950 . S
C364 C365 1.386 . S
C364 C366 1.391 . S
C365 C364 1.386 . S
C365 C369 1.393 . S
C366 H358 0.950 . S
C366 C364 1.391 . S
C366 C367 1.400 . S
C367 C366 1.400 . S
C367 C368 1.398 . S
C367 C373 1.491 . S
C368 H359 0.950 . S
C368 C367 1.398 . S
C368 C369 1.391 . S
C369 H357 0.950 . S
C369 C365 1.393 . S
C369 C368 1.391 . S
C370 H360 0.950 . S
C370 C371 1.386 . S
C370 C372 1.391 . S
C371 C370 1.386 . S
C371 C375 1.393 . S
C372 H361 0.950 . S
C372 C370 1.391 . S
C372 C373 1.400 . S
C373 C367 1.491 . S
C373 C372 1.400 . S
C373 C374 1.398 . S
C374 H362 0.950 . S
C374 C373 1.398 . S
C374 C375 1.391 . S
C375 H363 0.950 . S
C375 C371 1.393 . S
C375 C374 1.391 . S
H376 C384 0.950 1_554 S
H377 C389 0.950 . S
H378 C386 0.950 . S
H379 C388 0.950 . S
H380 C390 0.950 . S
H381 C392 0.950 . S
H382 C394 0.950 . S
H383 C395 0.950 . S
C384 H376 0.950 1_556 S
C384 C385 1.386 . S
C384 C386 1.391 1_565 S
C385 C384 1.386 . S
C385 C389 1.393 . S
C386 H378 0.950 . S
C386 C384 1.391 1_545 S
C386 C387 1.400 1_545 S
C387 C386 1.400 1_565 S
C387 C388 1.404 . S
C387 C393 1.485 1_565 S
C388 H379 0.950 . S
C388 C387 1.404 . S
C388 C389 1.391 . S
C389 H377 0.950 . S
C389 C385 1.393 . S
C389 C388 1.391 . S
C390 H380 0.950 . S
C390 C391 1.386 . S
C390 C392 1.391 . S
C391 C390 1.386 . S
C391 C395 1.393 . S
C392 H381 0.950 . S
C392 C390 1.391 . S
C392 C393 1.400 . S
C393 C387 1.485 1_545 S
C393 C392 1.400 . S
C393 C394 1.398 . S
C394 H382 0.950 . S
C394 C393 1.398 . S
C394 C395 1.391 . S
C395 H383 0.950 . S
C395 C391 1.393 . S
C395 C394 1.391 . S
H396 C404 0.950 . S
H397 C409 0.950 . S
H398 C406 0.950 . S
H399 C408 0.950 . S
H400 C410 0.950 . S
H401 C412 0.950 . S
H402 C414 0.950 . S
H403 C415 0.950 . S
C404 H396 0.950 . S
C404 C405 1.386 . S
C404 C406 1.391 . S
C405 C404 1.386 . S
C405 C409 1.393 . S
C406 H398 0.950 . S
C406 C404 1.391 . S
C406 C407 1.400 . S
C407 C406 1.400 . S
C407 C408 1.398 . S
C407 C413 1.491 . S
C408 H399 0.950 . S
C408 C407 1.398 . S
C408 C409 1.391 . S
C409 H397 0.950 . S
C409 C405 1.393 . S
C409 C408 1.391 . S
C410 H400 0.950 . S
C410 C411 1.386 . S
C410 C412 1.391 . S
C411 C410 1.386 . S
C411 C415 1.393 . S
C412 H401 0.950 . S
C412 C410 1.391 . S
C412 C413 1.400 . S
C413 C407 1.491 . S
C413 C412 1.400 . S
C413 C414 1.398 . S
C414 H402 0.950 . S
C414 C413 1.398 . S
C414 C415 1.391 . S
C415 H403 0.950 . S
C415 C411 1.393 . S
C415 C414 1.391 . S
H416 C424 0.950 . S
H417 C429 0.950 . S
H418 C426 0.950 . S
H419 C428 0.950 . S
H420 C430 0.950 . S
H421 C432 0.950 . S
H422 C434 0.950 . S
H423 C435 0.950 . S
C424 H416 0.950 . S
C424 C425 1.386 . S
C424 C426 1.391 . S
C425 C424 1.386 . S
C425 C429 1.393 . S
C426 H418 0.950 . S
C426 C424 1.391 . S
C426 C427 1.400 . S
C427 C426 1.400 . S
C427 C428 1.398 . S
C427 C433 1.491 . S
C428 H419 0.950 . S
C428 C427 1.398 . S
C428 C429 1.391 . S
C429 H417 0.950 . S
C429 C425 1.393 . S
C429 C428 1.391 . S
C430 H420 0.950 . S
C430 C431 1.386 . S
C430 C432 1.391 . S
C431 C430 1.386 . S
C431 C435 1.393 . S
C432 H421 0.950 . S
C432 C430 1.391 . S
C432 C433 1.400 . S
C433 C427 1.491 . S
C433 C432 1.400 . S
C433 C434 1.398 . S
C434 H422 0.950 . S
C434 C433 1.398 . S
C434 C435 1.391 . S
C435 H423 0.950 . S
C435 C431 1.393 . S
C435 C434 1.391 . S
H436 C444 0.950 . S
H437 C449 0.950 . S
H438 C446 0.950 . S
H439 C448 0.950 . S
H440 C450 0.950 . S
H441 C452 0.950 . S
H442 C454 0.950 . S
H443 C455 0.950 . S
C444 H436 0.950 . S
C444 C445 1.386 . S
C444 C446 1.391 1_455 S
C445 C444 1.386 . S
C445 C449 1.393 1_455 S
C446 H438 0.950 . S
C446 C444 1.391 1_655 S
C446 C447 1.400 . S
C447 C446 1.400 . S
C447 C448 1.398 . S
C447 C453 1.491 . S
C448 H439 0.950 . S
C448 C447 1.398 . S
C448 C449 1.391 . S
C449 H437 0.950 . S
C449 C445 1.393 1_655 S
C449 C448 1.391 . S
C450 H440 0.950 . S
C450 C451 1.386 . S
C450 C452 1.391 . S
C451 C450 1.386 . S
C451 C455 1.393 . S
C452 H441 0.950 . S
C452 C450 1.391 . S
C452 C453 1.400 . S
C453 C447 1.491 . S
C453 C452 1.400 . S
C453 C454 1.398 . S
C454 H442 0.950 . S
C454 C453 1.398 . S
C454 C455 1.391 . S
C455 H443 0.950 . S
C455 C451 1.393 . S
C455 C454 1.391 . S
H456 C464 0.950 . S
H457 C469 0.950 . S
H458 C466 0.950 . S
H459 C468 0.950 . S
H460 C470 0.950 . S
H461 C472 0.950 . S
H462 C474 0.950 . S
H463 C475 0.950 . S
C464 H456 0.950 . S
C464 C465 1.386 . S
C464 C466 1.391 . S
C465 C464 1.386 . S
C465 C469 1.393 . S
C466 H458 0.950 . S
C466 C464 1.391 . S
C466 C467 1.400 . S
C467 C466 1.400 . S
C467 C468 1.398 . S
C467 C473 1.491 . S
C468 H459 0.950 . S
C468 C467 1.398 . S
C468 C469 1.391 . S
C469 H457 0.950 . S
C469 C465 1.393 . S
C469 C468 1.391 . S
C470 H460 0.950 . S
C470 C471 1.386 . S
C470 C472 1.391 . S
C471 C470 1.386 . S
C471 C475 1.393 . S
C472 H461 0.950 . S
C472 C470 1.391 . S
C472 C473 1.400 . S
C473 C467 1.491 . S
C473 C472 1.400 . S
C473 C474 1.398 . S
C474 H462 0.950 . S
C474 C473 1.398 . S
C474 C475 1.391 . S
C475 H463 0.950 . S
C475 C471 1.393 . S
C475 C474 1.391 . S
H476 C484 0.950 . S
H477 C489 0.950 . S
H478 C486 0.950 . S
H479 C488 0.950 . S
H480 C490 0.950 . S
H481 C492 0.950 1_655 S
H482 C494 0.956 . S
H483 C495 0.950 . S
C484 H476 0.950 . S
C484 C485 1.386 . S
C484 C486 1.391 . S
C485 C484 1.386 . S
C485 C489 1.393 . S
C486 H478 0.950 . S
C486 C484 1.391 . S
C486 C487 1.400 . S
C487 C486 1.400 . S
C487 C488 1.398 . S
C487 C493 1.491 . S
C488 H479 0.950 . S
C488 C487 1.398 . S
C488 C489 1.391 . S
C489 H477 0.950 . S
C489 C485 1.393 . S
C489 C488 1.391 . S
C490 H480 0.950 . S
C490 C491 1.386 . S
C490 C492 1.391 . S
C491 C490 1.386 . S
C491 C495 1.393 . S
C492 H481 0.950 1_455 S
C492 C490 1.391 . S
C492 C493 1.400 1_455 S
C493 C487 1.491 . S
C493 C492 1.400 1_655 S
C493 C494 1.398 1_655 S
C494 H482 0.956 . S
C494 C493 1.398 1_455 S
C494 C495 1.391 . S
C495 H483 0.950 . S
C495 C491 1.393 . S
C495 C494 1.391 . S
H496 C504 0.950 . S
H497 C509 0.950 . S
H498 C506 0.950 . S
H499 C508 0.950 . S
H500 C510 0.950 . S
H501 C512 0.950 . S
H502 C514 0.950 . S
H503 C515 0.950 . S
C504 H496 0.950 . S
C504 C505 1.386 . S
C504 C506 1.391 . S
C505 C504 1.386 . S
C505 C509 1.393 . S
C506 H498 0.950 . S
C506 C504 1.391 . S
C506 C507 1.400 . S
C507 C506 1.400 . S
C507 C508 1.398 . S
C507 C513 1.491 . S
C508 H499 0.950 . S
C508 C507 1.398 . S
C508 C509 1.391 . S
C509 H497 0.950 . S
C509 C505 1.393 . S
C509 C508 1.391 . S
C510 H500 0.950 . S
C510 C511 1.386 . S
C510 C512 1.391 . S
C511 C510 1.386 . S
C511 C515 1.393 . S
C512 H501 0.950 . S
C512 C510 1.391 . S
C512 C513 1.400 . S
C513 C507 1.491 . S
C513 C512 1.400 . S
C513 C514 1.398 . S
C514 H502 0.950 . S
C514 C513 1.398 . S
C514 C515 1.391 . S
C515 H503 0.950 . S
C515 C511 1.393 . S
C515 C514 1.391 . S
H516 C524 0.950 . S
H517 C529 0.950 . S
H518 C526 0.950 . S
H519 C528 0.950 . S
H520 C530 0.950 . S
H521 C532 0.950 . S
H522 C534 0.950 . S
H523 C535 0.950 . S
C524 H516 0.950 . S
C524 C525 1.386 . S
C524 C526 1.391 . S
C525 C524 1.386 . S
C525 C529 1.393 . S
C526 H518 0.950 . S
C526 C524 1.391 . S
C526 C527 1.400 . S
C527 C526 1.400 . S
C527 C528 1.398 . S
C527 C533 1.491 . S
C528 H519 0.950 . S
C528 C527 1.398 . S
C528 C529 1.391 . S
C529 H517 0.950 . S
C529 C525 1.393 . S
C529 C528 1.391 . S
C530 H520 0.950 . S
C530 C531 1.386 . S
C530 C532 1.391 . S
C531 C530 1.386 . S
C531 C535 1.393 . S
C532 H521 0.950 . S
C532 C530 1.391 . S
C532 C533 1.400 . S
C533 C527 1.491 . S
C533 C532 1.400 . S
C533 C534 1.398 . S
C534 H522 0.950 . S
C534 C533 1.398 . S
C534 C535 1.391 . S
C535 H523 0.950 . S
C535 C531 1.393 . S
C535 C534 1.391 . S
H536 C544 0.950 . S
H537 C549 0.950 . S
H538 C546 0.950 . S
H539 C548 0.950 . S
H540 C550 0.950 . S
H541 C552 0.950 . S
H542 C554 0.950 . S
H543 C555 0.950 . S
C544 H536 0.950 . S
C544 C545 1.386 . S
C544 C546 1.391 . S
C545 C544 1.386 . S
C545 C549 1.393 . S
C546 H538 0.950 . S
C546 C544 1.391 . S
C546 C547 1.400 . S
C547 C546 1.400 . S
C547 C548 1.398 . S
C547 C553 1.491 . S
C548 H539 0.950 . S
C548 C547 1.398 . S
C548 C549 1.391 . S
C549 H537 0.950 . S
C549 C545 1.393 . S
C549 C548 1.391 . S
C550 H540 0.950 . S
C550 C551 1.386 . S
C550 C552 1.391 . S
C551 C550 1.386 . S
C551 C555 1.393 . S
C552 H541 0.950 . S
C552 C550 1.391 . S
C552 C553 1.400 . S
C553 C547 1.491 . S
C553 C552 1.400 . S
C553 C554 1.398 . S
C554 H542 0.950 . S
C554 C553 1.398 . S
C554 C555 1.391 . S
C555 H543 0.950 . S
C555 C551 1.393 . S
C555 C554 1.391 . S
H556 C564 0.950 . S
H557 C569 0.950 . S
H558 C566 0.950 . S
H559 C568 0.950 . S
H560 C570 0.950 . S
H561 C572 0.950 . S
H562 C574 0.950 . S
H563 C575 0.950 . S
C564 H556 0.950 . S
C564 C565 1.386 . S
C564 C566 1.391 . S
C565 C564 1.386 . S
C565 C569 1.393 . S
C566 H558 0.950 . S
C566 C564 1.391 . S
C566 C567 1.400 . S
C567 C566 1.400 . S
C567 C568 1.398 . S
C567 C573 1.491 . S
C568 H559 0.950 . S
C568 C567 1.398 . S
C568 C569 1.391 . S
C569 H557 0.950 . S
C569 C565 1.393 . S
C569 C568 1.391 . S
C570 H560 0.950 . S
C570 C571 1.386 . S
C570 C572 1.391 . S
C571 C570 1.386 . S
C571 C575 1.393 . S
C572 H561 0.950 . S
C572 C570 1.391 . S
C572 C573 1.400 . S
C573 C567 1.491 . S
C573 C572 1.400 . S
C573 C574 1.398 . S
C574 H562 0.950 . S
C574 C573 1.398 . S
C574 C575 1.391 . S
C575 H563 0.950 . S
C575 C571 1.393 . S
C575 C574 1.391 . S
H576 C584 0.950 . S
H577 C589 0.950 . S
H578 C586 0.950 . S
H579 C588 0.950 . S
H580 C590 0.950 . S
H581 C592 0.950 . S
H582 C594 0.950 . S
H583 C595 0.950 . S
C584 H576 0.950 . S
C584 C585 1.386 . S
C584 C586 1.391 . S
C585 C584 1.386 . S
C585 C589 1.393 . S
C586 H578 0.950 . S
C586 C584 1.391 . S
C586 C587 1.400 . S
C587 C586 1.400 . S
C587 C588 1.398 . S
C587 C593 1.491 . S
C588 H579 0.950 . S
C588 C587 1.398 . S
C588 C589 1.391 . S
C589 H577 0.950 . S
C589 C585 1.393 . S
C589 C588 1.391 . S
C590 H580 0.950 . S
C590 C591 1.386 . S
C590 C592 1.391 . S
C591 C590 1.386 . S
C591 C595 1.393 . S
C592 H581 0.950 . S
C592 C590 1.391 . S
C592 C593 1.400 . S
C593 C587 1.491 . S
C593 C592 1.400 . S
C593 C594 1.398 . S
C594 H582 0.950 . S
C594 C593 1.398 . S
C594 C595 1.391 . S
C595 H583 0.950 . S
C595 C591 1.393 . S
C595 C594 1.391 . S
H596 C604 0.950 . S
H597 C609 0.950 . S
H598 C606 0.950 . S
H599 C608 0.950 . S
H600 C610 0.950 . S
H601 C612 0.950 . S
H602 C614 0.950 . S
H603 C615 0.950 . S
C604 H596 0.950 . S
C604 C605 1.386 . S
C604 C606 1.391 . S
C605 C604 1.386 . S
C605 C609 1.393 . S
C606 H598 0.950 . S
C606 C604 1.391 . S
C606 C607 1.400 . S
C607 C606 1.400 . S
C607 C608 1.398 . S
C607 C613 1.491 . S
C608 H599 0.950 . S
C608 C607 1.398 . S
C608 C609 1.391 . S
C609 H597 0.950 . S
C609 C605 1.393 . S
C609 C608 1.391 . S
C610 H600 0.950 . S
C610 C611 1.386 . S
C610 C612 1.391 . S
C611 C610 1.386 . S
C611 C615 1.393 . S
C612 H601 0.950 . S
C612 C610 1.391 . S
C612 C613 1.400 . S
C613 C607 1.491 . S
C613 C612 1.400 . S
C613 C614 1.398 . S
C614 H602 0.950 . S
C614 C613 1.398 . S
C614 C615 1.391 . S
C615 H603 0.950 . S
C615 C611 1.393 . S
C615 C614 1.391 . S
H616 C624 0.950 . S
H617 C629 0.950 . S
H618 C626 0.950 . S
H619 C628 0.950 . S
H620 C630 0.950 . S
H621 C632 0.950 . S
H622 C634 0.950 . S
H623 C635 0.950 . S
C624 H616 0.950 . S
C624 C625 1.386 . S
C624 C626 1.391 . S
C625 C624 1.386 . S
C625 C629 1.393 . S
C626 H618 0.950 . S
C626 C624 1.391 . S
C626 C627 1.400 . S
C627 C626 1.400 . S
C627 C628 1.398 . S
C627 C633 1.491 . S
C628 H619 0.950 . S
C628 C627 1.398 . S
C628 C629 1.391 . S
C629 H617 0.950 . S
C629 C625 1.393 . S
C629 C628 1.391 . S
C630 H620 0.950 . S
C630 C631 1.386 . S
C630 C632 1.391 . S
C631 C630 1.386 . S
C631 C635 1.393 . S
C632 H621 0.950 . S
C632 C630 1.391 . S
C632 C633 1.400 . S
C633 C627 1.491 . S
C633 C632 1.400 . S
C633 C634 1.398 . S
C634 H622 0.950 . S
C634 C633 1.398 . S
C634 C635 1.391 . S
C635 H623 0.950 . S
C635 C631 1.393 . S
C635 C634 1.391 . S
H636 C644 0.950 . S
H637 C649 0.950 . S
H638 C646 0.950 . S
H639 C648 0.950 . S
H640 C650 0.950 . S
H641 C652 0.950 . S
H642 C654 0.950 . S
H643 C655 0.950 . S
C644 H636 0.950 . S
C644 C645 1.386 . S
C644 C646 1.391 . S
C645 C644 1.386 . S
C645 C649 1.393 . S
C646 H638 0.950 . S
C646 C644 1.391 . S
C646 C647 1.400 . S
C647 C646 1.400 . S
C647 C648 1.398 . S
C647 C653 1.491 . S
C648 H639 0.950 . S
C648 C647 1.398 . S
C648 C649 1.391 . S
C649 H637 0.950 . S
C649 C645 1.393 . S
C649 C648 1.391 . S
C650 H640 0.950 . S
C650 C651 1.386 . S
C650 C652 1.391 . S
C651 C650 1.386 . S
C651 C655 1.393 . S
C652 H641 0.950 . S
C652 C650 1.391 . S
C652 C653 1.400 . S
C653 C647 1.491 . S
C653 C652 1.400 . S
C653 C654 1.398 . S
C654 H642 0.950 . S
C654 C653 1.398 . S
C654 C655 1.391 . S
C655 H643 0.950 . S
C655 C651 1.393 . S
C655 C654 1.391 . S
C185 C8 1.433 . S
C191 C97 1.404 . S
C205 C31 1.386 . S
C211 C108 1.301 . S
C225 C53 1.383 . S
C231 C116 1.329 . S
C251 C130 1.366 . S
C245 C74 1.362 . S
C271 C141 1.374 . S
C265 C26 1.447 . S
C285 C48 1.351 . S
C291 C152 1.358 . S
C305 C71 1.380 . S
C311 C160 1.321 . S
C325 C5 1.378 . S
C331 C174 1.330 . S
C345 C50 1.300 . S
C351 C171 1.260 . S
C371 C138 1.146 . S
C365 C70 1.199 . S
C391 C149 1.295 . S
C385 C4 1.327 1_556 S
C405 C28 1.372 . S
C411 C163 1.349 . S
C431 C105 1.272 . S
C425 C73 1.291 . S
C445 C7 1.375 . S
C451 C119 1.373 . S
C471 C127 1.300 . S
C465 C30 1.341 . S
C491 C94 1.148 . S
C485 C52 1.198 . S
C511 N158 1.420 . S
C505 C9 1.457 . S
C531 N169 1.430 . S
C525 C29 1.420 . S
C545 C51 1.362 . S
C551 N136 1.374 . S
C571 N147 1.363 . S
C565 C75 1.406 . S
C591 N114 1.417 . S
C585 C27 1.454 . S
C605 C49 1.404 . S
C611 N125 1.370 . S
C631 N92 1.375 . S
C625 C72 1.371 . S
C651 N103 1.435 . S
C645 C6 1.428 1_556 S
