# Generated by pormake.
# Topology eea, (3,6)-cn, num edge types: 1
# Building blocks:
#     Node 0, Type 0, BuildingBlock: ESEHIV_clean_linker_0, # of connection points: 3
#     Node 1, Type 0, BuildingBlock: ESEHIV_clean_linker_0, # of connection points: 3
#     Node 2, Type 0, BuildingBlock: ESEHIV_clean_linker_0, # of connection points: 3
#     Node 3, Type 0, BuildingBlock: ESEHIV_clean_linker_0, # of connection points: 3
#     Node 4, Type 0, BuildingBlock: ESEHIV_clean_linker_0, # of connection points: 3
#     Node 5, Type 0, BuildingBlock: ESEHIV_clean_linker_0, # of connection points: 3
#     Node 6, Type 0, BuildingBlock: ESEHIV_clean_linker_0, # of connection points: 3
#     Node 7, Type 0, BuildingBlock: ESEHIV_clean_linker_0, # of connection points: 3
#     Node 8, Type 0, BuildingBlock: ESEHIV_clean_linker_0, # of connection points: 3
#     Node 9, Type 0, BuildingBlock: ESEHIV_clean_linker_0, # of connection points: 3
#     Node 10, Type 0, BuildingBlock: ESEHIV_clean_linker_0, # of connection points: 3
#     Node 11, Type 0, BuildingBlock: ESEHIV_clean_linker_0, # of connection points: 3
#     Node 12, Type 0, BuildingBlock: ESEHIV_clean_linker_0, # of connection points: 3
#     Node 13, Type 0, BuildingBlock: ESEHIV_clean_linker_0, # of connection points: 3
#     Node 14, Type 0, BuildingBlock: ESEHIV_clean_linker_0, # of connection points: 3
#     Node 15, Type 0, BuildingBlock: ESEHIV_clean_linker_0, # of connection points: 3
#     Node 16, Type 0, BuildingBlock: ESEHIV_clean_linker_0, # of connection points: 3
#     Node 17, Type 0, BuildingBlock: ESEHIV_clean_linker_0, # of connection points: 3
#     Node 18, Type 1, BuildingBlock: LEVNOQ01_clean_sbu_1, # of connection points: 6
#     Node 19, Type 1, BuildingBlock: LEVNOQ01_clean_sbu_1, # of connection points: 6
#     Node 20, Type 1, BuildingBlock: LEVNOQ01_clean_sbu_1, # of connection points: 6
#     Node 21, Type 1, BuildingBlock: LEVNOQ01_clean_sbu_1, # of connection points: 6
#     Node 22, Type 1, BuildingBlock: LEVNOQ01_clean_sbu_1, # of connection points: 6
#     Node 23, Type 1, BuildingBlock: LEVNOQ01_clean_sbu_1, # of connection points: 6
#     Node 24, Type 1, BuildingBlock: LEVNOQ01_clean_sbu_1, # of connection points: 6
#     Node 25, Type 1, BuildingBlock: LEVNOQ01_clean_sbu_1, # of connection points: 6
#     Node 26, Type 1, BuildingBlock: LEVNOQ01_clean_sbu_1, # of connection points: 6
#     Edge 27, Type (0, 1), BuildingBlock: AJUNOK_clean_linker_0, # of connection points: 2
#     Edge 28, Type (0, 1), BuildingBlock: AJUNOK_clean_linker_0, # of connection points: 2
#     Edge 29, Type (0, 1), BuildingBlock: AJUNOK_clean_linker_0, # of connection points: 2
#     Edge 30, Type (0, 1), BuildingBlock: AJUNOK_clean_linker_0, # of connection points: 2
#     Edge 31, Type (0, 1), BuildingBlock: AJUNOK_clean_linker_0, # of connection points: 2
#     Edge 32, Type (0, 1), BuildingBlock: AJUNOK_clean_linker_0, # of connection points: 2
#     Edge 33, Type (0, 1), BuildingBlock: AJUNOK_clean_linker_0, # of connection points: 2
#     Edge 34, Type (0, 1), BuildingBlock: AJUNOK_clean_linker_0, # of connection points: 2
#     Edge 35, Type (0, 1), BuildingBlock: AJUNOK_clean_linker_0, # of connection points: 2
#     Edge 36, Type (0, 1), BuildingBlock: AJUNOK_clean_linker_0, # of connection points: 2
#     Edge 37, Type (0, 1), BuildingBlock: AJUNOK_clean_linker_0, # of connection points: 2
#     Edge 38, Type (0, 1), BuildingBlock: AJUNOK_clean_linker_0, # of connection points: 2
#     Edge 39, Type (0, 1), BuildingBlock: AJUNOK_clean_linker_0, # of connection points: 2
#     Edge 40, Type (0, 1), BuildingBlock: AJUNOK_clean_linker_0, # of connection points: 2
#     Edge 41, Type (0, 1), BuildingBlock: AJUNOK_clean_linker_0, # of connection points: 2
#     Edge 42, Type (0, 1), BuildingBlock: AJUNOK_clean_linker_0, # of connection points: 2
#     Edge 43, Type (0, 1), BuildingBlock: AJUNOK_clean_linker_0, # of connection points: 2
#     Edge 44, Type (0, 1), BuildingBlock: AJUNOK_clean_linker_0, # of connection points: 2
#     Edge 45, Type (0, 1), BuildingBlock: AJUNOK_clean_linker_0, # of connection points: 2
#     Edge 46, Type (0, 1), BuildingBlock: AJUNOK_clean_linker_0, # of connection points: 2
#     Edge 47, Type (0, 1), BuildingBlock: AJUNOK_clean_linker_0, # of connection points: 2
#     Edge 48, Type (0, 1), BuildingBlock: AJUNOK_clean_linker_0, # of connection points: 2
#     Edge 49, Type (0, 1), BuildingBlock: AJUNOK_clean_linker_0, # of connection points: 2
#     Edge 50, Type (0, 1), BuildingBlock: AJUNOK_clean_linker_0, # of connection points: 2
#     Edge 51, Type (0, 1), BuildingBlock: AJUNOK_clean_linker_0, # of connection points: 2
#     Edge 52, Type (0, 1), BuildingBlock: AJUNOK_clean_linker_0, # of connection points: 2
#     Edge 53, Type (0, 1), BuildingBlock: AJUNOK_clean_linker_0, # of connection points: 2
#     Edge 54, Type (0, 1), BuildingBlock: AJUNOK_clean_linker_0, # of connection points: 2
#     Edge 55, Type (0, 1), BuildingBlock: AJUNOK_clean_linker_0, # of connection points: 2
#     Edge 56, Type (0, 1), BuildingBlock: AJUNOK_clean_linker_0, # of connection points: 2
#     Edge 57, Type (0, 1), BuildingBlock: AJUNOK_clean_linker_0, # of connection points: 2
#     Edge 58, Type (0, 1), BuildingBlock: AJUNOK_clean_linker_0, # of connection points: 2
#     Edge 59, Type (0, 1), BuildingBlock: AJUNOK_clean_linker_0, # of connection points: 2
#     Edge 60, Type (0, 1), BuildingBlock: AJUNOK_clean_linker_0, # of connection points: 2
#     Edge 61, Type (0, 1), BuildingBlock: AJUNOK_clean_linker_0, # of connection points: 2
#     Edge 62, Type (0, 1), BuildingBlock: AJUNOK_clean_linker_0, # of connection points: 2
#     Edge 63, Type (0, 1), BuildingBlock: AJUNOK_clean_linker_0, # of connection points: 2
#     Edge 64, Type (0, 1), BuildingBlock: AJUNOK_clean_linker_0, # of connection points: 2
#     Edge 65, Type (0, 1), BuildingBlock: AJUNOK_clean_linker_0, # of connection points: 2
#     Edge 66, Type (0, 1), BuildingBlock: AJUNOK_clean_linker_0, # of connection points: 2
#     Edge 67, Type (0, 1), BuildingBlock: AJUNOK_clean_linker_0, # of connection points: 2
#     Edge 68, Type (0, 1), BuildingBlock: AJUNOK_clean_linker_0, # of connection points: 2
#     Edge 69, Type (0, 1), BuildingBlock: AJUNOK_clean_linker_0, # of connection points: 2
#     Edge 70, Type (0, 1), BuildingBlock: AJUNOK_clean_linker_0, # of connection points: 2
#     Edge 71, Type (0, 1), BuildingBlock: AJUNOK_clean_linker_0, # of connection points: 2
#     Edge 72, Type (0, 1), BuildingBlock: AJUNOK_clean_linker_0, # of connection points: 2
#     Edge 73, Type (0, 1), BuildingBlock: AJUNOK_clean_linker_0, # of connection points: 2
#     Edge 74, Type (0, 1), BuildingBlock: AJUNOK_clean_linker_0, # of connection points: 2
#     Edge 75, Type (0, 1), BuildingBlock: AJUNOK_clean_linker_0, # of connection points: 2
#     Edge 76, Type (0, 1), BuildingBlock: AJUNOK_clean_linker_0, # of connection points: 2
#     Edge 77, Type (0, 1), BuildingBlock: AJUNOK_clean_linker_0, # of connection points: 2
#     Edge 78, Type (0, 1), BuildingBlock: AJUNOK_clean_linker_0, # of connection points: 2
#     Edge 79, Type (0, 1), BuildingBlock: AJUNOK_clean_linker_0, # of connection points: 2
#     Edge 80, Type (0, 1), BuildingBlock: AJUNOK_clean_linker_0, # of connection points: 2
# Relax obj value: 0.095
# Max RMSD: 0.180
# Mean RMSD: 0.091
data_MOF--net-eea--node1-LEVNOQ01_clean_sbu_1--node2-ESEHIV_clean_linker_0--edge1-AJUNOK_clean_linker_0
_symmetry_space_group_name_H-M    P1
_symmetry_Int_Tables_number       1
_symmetry_cell_setting            triclinic
loop_
_symmetry_equiv_pos_as_xyz
'x, y, z'
_cell_length_a     36.838351
_cell_length_b     36.415006
_cell_length_c     37.86132
_cell_angle_alpha  90.071043
_cell_angle_beta   90.19261
_cell_angle_gamma 119.81023
loop_
_atom_site_label
_atom_site_type_symbol
_atom_site_fract_x
_atom_site_fract_y
_atom_site_fract_z
_atom_type_partial_charge
H0 H 0.22228 0.16351 0.45556 0.0
H1 H 0.22814 0.05019 0.43504 0.0
H2 H 0.16967 0.09256 0.35995 0.0
C3 C 0.21489 0.1363 0.43908 0.0
C4 C 0.19283 0.13047 0.40743 0.0
C5 C 0.22711 0.10692 0.44944 0.0
C6 C 0.21874 0.07292 0.42725 0.0
C7 C 0.19833 0.06795 0.39501 0.0
C8 C 0.18537 0.09658 0.38513 0.0
H9 H 0.8153 0.04627 0.45282 0.0
H10 H 0.91098 0.1774 0.45052 0.0
H11 H 0.90129 0.09398 0.36607 0.0
C12 C 0.84288 0.07182 0.44058 0.0
C13 C 0.8567 0.06551 0.40804 0.0
C14 C 0.86256 0.11207 0.45593 0.0
C15 C 0.89627 0.14601 0.43886 0.0
C16 C 0.91068 0.13929 0.40658 0.0
C17 C 0.8913 0.09889 0.39173 0.0
H18 H 0.79736 0.72269 0.42013 0.0
H19 H 0.90648 0.71723 0.45096 0.0
H20 H 0.90463 0.77458 0.35175 0.0
C21 C 0.82935 0.73037 0.41501 0.0
C22 C 0.84917 0.75104 0.3837 0.0
C23 C 0.84977 0.71769 0.43887 0.0
C24 C 0.89064 0.72675 0.43197 0.0
C25 C 0.91071 0.74696 0.40051 0.0
C26 C 0.88992 0.75963 0.37643 0.0
H27 H 0.08226 0.28293 0.55546 0.0
H28 H 0.19869 0.28419 0.56349 0.0
H29 H 0.11247 0.23899 0.65066 0.0
C30 C 0.10406 0.27767 0.57099 0.0
C31 C 0.09255 0.25969 0.60477 0.0
C32 C 0.14182 0.28569 0.55574 0.0
C33 C 0.1701 0.2795 0.57572 0.0
C34 C 0.16012 0.26355 0.61024 0.0
C35 C 0.12114 0.25339 0.62477 0.0
H36 H 0.73918 0.93251 0.56733 0.0
H37 H 0.76338 0.83085 0.55474 0.0
H38 H 0.84795 0.93736 0.61662 0.0
C39 C 0.76038 0.92085 0.57235 0.0
C40 C 0.79458 0.94102 0.59602 0.0
C41 C 0.75137 0.883 0.55544 0.0
C42 C 0.77298 0.86204 0.56535 0.0
C43 C 0.8058 0.88048 0.5898 0.0
C44 C 0.81952 0.92196 0.6011 0.0
H45 H 0.09357 0.81173 0.55365 0.0
H46 H 0.19078 0.93585 0.58281 0.0
H47 H 0.08086 0.8722 0.64729 0.0
C48 C 0.10556 0.83826 0.57183 0.0
C49 C 0.08177 0.83732 0.60119 0.0
C50 C 0.14459 0.8739 0.56518 0.0
C51 C 0.16079 0.90809 0.58836 0.0
C52 C 0.13799 0.90721 0.61809 0.0
C53 C 0.09871 0.8719 0.6247 0.0
H54 H 0.89885 0.50479 0.8022 0.0
H55 H 0.89757 0.39083 0.76993 0.0
H56 H 0.82076 0.42996 0.71567 0.0
C57 C 0.88604 0.47663 0.78582 0.0
C58 C 0.85681 0.47043 0.7593 0.0
C59 C 0.90081 0.44786 0.78978 0.0
C60 C 0.88477 0.41195 0.76833 0.0
C61 C 0.85528 0.40528 0.7423 0.0
C62 C 0.84143 0.43429 0.7377 0.0
H63 H 0.48989 0.363 0.78899 0.0
H64 H 0.58118 0.49444 0.77917 0.0
H65 H 0.55906 0.40875 0.6927 0.0
C66 C 0.51368 0.3886 0.77363 0.0
C67 C 0.5225 0.38089 0.73952 0.0
C68 C 0.53388 0.42942 0.7875 0.0
C69 C 0.5652 0.4628 0.76801 0.0
C70 C 0.57567 0.45517 0.73409 0.0
C71 C 0.55354 0.41422 0.7198 0.0
H72 H 0.46249 0.05981 0.7752 0.0
H73 H 0.57242 0.0478 0.7774 0.0
H74 H 0.55601 0.11978 0.69488 0.0
C75 C 0.49201 0.06629 0.76364 0.0
C76 C 0.50699 0.09192 0.73368 0.0
C77 C 0.51496 0.04957 0.7791 0.0
C78 C 0.55329 0.0586 0.76419 0.0
C79 C 0.56812 0.08324 0.73343 0.0
C80 C 0.5447 0.10003 0.71817 0.0
H81 H 0.75245 0.60631 0.8926 0.0
H82 H 0.87176 0.61288 0.88797 0.0
H83 H 0.79198 0.55588 0.97786 0.0
C84 C 0.77629 0.60137 0.90492 0.0
C85 C 0.76865 0.58184 0.93819 0.0
C86 C 0.81347 0.61278 0.88675 0.0
C87 C 0.84301 0.6044 0.90201 0.0
C88 C 0.83525 0.5835 0.93449 0.0
C89 C 0.79815 0.57237 0.95287 0.0
H90 H 0.41736 0.26363 0.8977 0.0
H91 H 0.432 0.16161 0.85577 0.0
H92 H 0.49552 0.22569 0.95111 0.0
C93 C 0.43235 0.24452 0.89798 0.0
C94 C 0.45935 0.24958 0.92588 0.0
C95 C 0.42317 0.21387 0.87176 0.0
C96 C 0.43957 0.18625 0.87517 0.0
C97 C 0.4648 0.18946 0.90425 0.0
C98 C 0.47579 0.22241 0.92867 0.0
H99 H 0.74504 0.16178 0.89364 0.0
H100 H 0.84597 0.29017 0.90199 0.0
H101 H 0.75624 0.23574 0.98588 0.0
C102 C 0.76118 0.19153 0.90794 0.0
C103 C 0.74643 0.19525 0.94111 0.0
C104 C 0.79742 0.22572 0.89377 0.0
C105 C 0.81784 0.26381 0.91269 0.0
C106 C 0.80292 0.26776 0.94574 0.0
C107 C 0.7674 0.23321 0.96002 0.0
H108 H 0.56021 0.82354 0.1177 0.0
H109 H 0.56591 0.70828 0.12081 0.0
H110 H 0.48396 0.72027 0.04746 0.0
C111 C 0.54844 0.79116 0.10909 0.0
C112 C 0.5184 0.77413 0.08184 0.0
C113 C 0.56558 0.7675 0.12361 0.0
C114 C 0.55246 0.72671 0.1106 0.0
C115 C 0.52354 0.7102 0.08302 0.0
C116 C 0.50545 0.73309 0.06964 0.0
H117 H 0.14968 0.70635 0.12434 0.0
H118 H 0.24042 0.83855 0.12751 0.0
H119 H 0.23384 0.76396 0.03706 0.0
C120 C 0.17447 0.73396 0.1114 0.0
C121 C 0.18883 0.73037 0.07824 0.0
C122 C 0.19182 0.77307 0.12821 0.0
C123 C 0.22591 0.80868 0.11333 0.0
C124 C 0.24226 0.80508 0.08091 0.0
C125 C 0.22276 0.76614 0.06303 0.0
H126 H 0.13583 0.40071 0.08292 0.0
H127 H 0.24211 0.3939 0.12091 0.0
H128 H 0.24481 0.44512 0.01757 0.0
C129 C 0.16762 0.40702 0.07926 0.0
C130 C 0.1889 0.42542 0.04785 0.0
C131 C 0.18676 0.39557 0.10546 0.0
C132 C 0.22747 0.4028 0.10032 0.0
C133 C 0.24871 0.42026 0.06848 0.0
C134 C 0.22933 0.43224 0.04251 0.0
H135 H 0.42611 0.94918 0.22683 0.0
H136 H 0.54394 0.95442 0.24033 0.0
H137 H 0.44588 0.88806 0.31623 0.0
C138 C 0.44638 0.94183 0.24249 0.0
C139 C 0.43125 0.9178 0.27339 0.0
C140 C 0.48691 0.95509 0.23064 0.0
C141 C 0.5132 0.9457 0.25047 0.0
C142 C 0.49875 0.92206 0.28174 0.0
C143 C 0.45761 0.90784 0.29299 0.0
H144 H 0.13158 0.63637 0.20059 0.0
H145 H 0.11096 0.50914 0.20784 0.0
H146 H 0.16152 0.59255 0.29625 0.0
C147 C 0.13312 0.61169 0.21534 0.0
C148 C 0.14801 0.61921 0.2504 0.0
C149 C 0.12107 0.57233 0.19934 0.0
C150 C 0.12214 0.54033 0.2192 0.0
C151 C 0.13794 0.5482 0.25353 0.0
C152 C 0.15093 0.58746 0.26898 0.0
H153 H 0.41634 0.47993 0.20633 0.0
H154 H 0.51275 0.60741 0.2272 0.0
H155 H 0.39914 0.55213 0.2878 0.0
C156 C 0.42768 0.50917 0.22112 0.0
C157 C 0.4033 0.51188 0.24824 0.0
C158 C 0.46698 0.54385 0.21327 0.0
C159 C 0.48137 0.58161 0.23209 0.0
C160 C 0.45681 0.58487 0.25894 0.0
C161 C 0.41759 0.5501 0.26643 0.0
O162 O 0.52516 0.97288 0.92135 0.0
Mg163 Mg 0.54321 0.96759 0.9723 0.0
O164 O 0.47774 0.98615 0.94329 0.0
Mg165 Mg 0.49395 0.99243 0.00346 0.0
O166 O 0.50024 0.92978 0.00885 0.0
O167 O 0.53924 0.91164 0.97511 0.0
O168 O 0.50838 -0.00108 0.06343 0.0
O169 O 0.42438 0.94798 0.01708 0.0
Mg170 Mg 0.46128 0.04527 0.0501 0.0
O171 O 0.48421 0.04892 0.00088 0.0
O172 O 0.50648 0.05277 0.08848 0.0
O173 O 0.40449 0.9855 0.05038 0.0
O174 O 0.46688 0.09553 0.02006 0.0
C175 C 0.59971 0.04689 0.99117 0.0
C176 C 0.4953 0.97998 0.91681 0.0
C177 C 0.51273 0.90304 0.00025 0.0
C178 C 0.51441 0.02274 0.09013 0.0
C179 C 0.39686 0.95095 0.0355 0.0
C180 C 0.47994 0.08139 0.99478 0.0
O181 O 0.60219 0.0137 0.98986 0.0
O182 O 0.56384 0.04401 0.99227 0.0
O183 O 0.06202 0.54028 0.88898 0.0
Mg184 Mg 0.06441 0.58829 0.92158 0.0
O185 O 0.01224 0.49144 0.92234 0.0
Mg186 Mg 0.02413 0.51009 0.9812 0.0
O187 O 0.07727 0.57301 0.96856 0.0
O188 O 0.12067 0.63455 0.94553 0.0
O189 O 0.0366 0.52994 0.03995 0.0
O190 O 0.07727 0.49142 0.98179 0.0
Mg191 Mg 0.01225 0.44326 0.00832 0.0
O192 O 0.96089 0.44442 0.99222 0.0
O193 O 0.04852 0.47813 0.05228 0.0
O194 O 0.03979 0.42512 0.96853 0.0
O195 O 0.9603 0.39359 0.02633 0.0
C196 C 0.97692 0.56244 0.95637 0.0
C197 C 0.03009 0.5039 0.89243 0.0
C198 C 0.11003 0.60925 0.97203 0.0
C199 C 0.05099 0.51287 0.06073 0.0
C200 C 0.07551 0.45708 0.97213 0.0
C201 C 0.94049 0.40778 0.00781 0.0
O202 O 0.00458 0.58356 0.9331 0.0
O203 O 0.97923 0.53587 0.97683 0.0
O204 O 0.53936 0.47193 0.09476 0.0
Mg205 Mg 0.48485 0.42554 0.06961 0.0
O206 O 0.51772 0.50926 0.06645 0.0
Mg207 Mg 0.50505 0.48241 0.00859 0.0
O208 O 0.49498 0.41485 0.01934 0.0
O209 O 0.48099 0.36848 0.06302 0.0
O210 O 0.49431 0.45726 0.95038 0.0
O211 O 0.57608 0.50825 -0.00054 0.0
Mg212 Mg 0.52685 0.54208 0.94699 0.0
O213 O 0.51249 0.54797 -0.00278 0.0
O214 O 0.47687 0.49535 0.9177 0.0
O215 O 0.58564 0.54451 0.94961 0.0
O216 O 0.52638 0.59671 0.95557 0.0
C217 C 0.41299 0.43947 0.04533 0.0
C218 C 0.53443 0.5037 0.09393 0.0
C219 C 0.48859 0.37819 0.03008 0.0
C220 C 0.48172 0.46364 0.92085 0.0
C221 C 0.59935 0.53063 0.97406 0.0
C222 C 0.5172 0.58431 0.98788 0.0
O223 O 0.42744 0.42698 0.07029 0.0
O224 O 0.43488 0.45801 0.01812 0.0
O225 O 0.13238 0.27369 0.23488 0.0
Mg226 Mg 0.17819 0.27589 0.26949 0.0
O227 O 0.13721 0.32853 0.26352 0.0
Mg228 Mg 0.1525 0.32751 0.32329 0.0
O229 O 0.15909 0.2689 0.32007 0.0
O230 O 0.17189 0.22221 0.29337 0.0
O231 O 0.17053 0.32805 0.38288 0.0
O232 O 0.08164 0.27795 0.33461 0.0
Mg233 Mg 0.10502 0.34996 0.35769 0.0
O234 O 0.14896 0.39114 0.32458 0.0
O235 O 0.11466 0.32654 0.40467 0.0
O236 O 0.04783 0.31289 0.33306 0.0
O237 O 0.11591 0.4084 0.36606 0.0
C238 C 0.24697 0.36668 0.28838 0.0
C239 C 0.12892 0.30657 0.23527 0.0
C240 C 0.16232 0.23524 0.32163 0.0
C241 C 0.14674 0.3231 0.40888 0.0
C242 C 0.047 0.27796 0.33423 0.0
C243 C 0.13893 0.41779 0.33825 0.0
O244 O 0.23658 0.3333 0.2704 0.0
O245 O 0.22161 0.37024 0.30917 0.0
O246 O 0.70361 0.83691 0.25167 0.0
Mg247 Mg 0.69262 0.87162 0.29058 0.0
O248 O 0.64378 0.80077 0.27802 0.0
Mg249 Mg 0.65953 0.81586 0.33872 0.0
O250 O 0.71969 0.88489 0.33859 0.0
O251 O 0.74231 0.92851 0.2915 0.0
O252 O 0.66943 0.82821 0.39992 0.0
O253 O 0.70913 0.79442 0.33446 0.0
Mg254 Mg 0.63677 0.7384 0.37739 0.0
O255 O 0.6 0.74801 0.34223 0.0
O256 O 0.64707 0.76717 0.42661 0.0
O257 O 0.68371 0.7297 0.35464 0.0
O258 O 0.57933 0.68875 0.37393 0.0
C259 C 0.61252 0.8651 0.31575 0.0
C260 C 0.66554 0.80942 0.25002 0.0
C261 C 0.74575 0.92102 0.32425 0.0
C262 C 0.66207 0.80668 0.42825 0.0
C263 C 0.71262 0.7618 0.33952 0.0
C264 C 0.57164 0.70938 0.35016 0.0
O265 O 0.63845 0.87797 0.29048 0.0
O266 O 0.61429 0.84197 0.3401 0.0
O267 O 0.19714 0.81274 0.43673 0.0
Mg268 Mg 0.14928 0.75866 0.41106 0.0
O269 O 0.18738 0.85682 0.40296 0.0
Mg270 Mg 0.17251 0.82966 0.34557 0.0
O271 O 0.16883 0.7695 0.36156 0.0
O272 O 0.15885 0.71137 0.38714 0.0
O273 O 0.15756 0.79708 0.29063 0.0
O274 O 0.24206 0.85675 0.33377 0.0
Mg275 Mg 0.18172 0.87234 0.28262 0.0
O276 O 0.17641 0.89433 0.33037 0.0
O277 O 0.12553 0.82349 0.26123 0.0
O278 O 0.23933 0.87189 0.27757 0.0
O279 O 0.18676 0.92948 0.27901 0.0
C280 C 0.07863 0.77569 0.38174 0.0
C281 C 0.19804 0.84776 0.43248 0.0
C282 C 0.16746 0.73382 0.35897 0.0
C283 C 0.1371 0.79636 0.26334 0.0
C284 C 0.25907 0.86789 0.30352 0.0
C285 C 0.18101 0.92712 0.31272 0.0
O286 O 0.09061 0.75753 0.40404 0.0
O287 O 0.10304 0.80155 0.3585 0.0
O288 O 0.80335 0.59549 0.57056 0.0
Mg289 Mg 0.84986 0.60068 0.60614 0.0
O290 O 0.8055 0.65111 0.59591 0.0
Mg291 Mg 0.81908 0.65432 0.65621 0.0
O292 O 0.82858 0.59883 0.65536 0.0
O293 O 0.8447 0.55113 0.63808 0.0
O294 O 0.83402 0.65817 0.71669 0.0
O295 O 0.74807 0.60235 0.66665 0.0
Mg296 Mg 0.76847 0.67677 0.68556 0.0
O297 O 0.81548 0.71786 0.65361 0.0
O298 O 0.78214 0.66584 0.73655 0.0
O299 O 0.71062 0.63342 0.66409 0.0
O300 O 0.77402 0.73377 0.68613 0.0
C301 C 0.91528 0.6948 0.62343 0.0
C302 C 0.79845 0.62752 0.56881 0.0
C303 C 0.83323 0.56716 0.66303 0.0
C304 C 0.81324 0.66102 0.74237 0.0
C305 C 0.71222 0.59975 0.66585 0.0
C306 C 0.80347 0.74448 0.66333 0.0
O307 O 0.90586 0.66132 0.60581 0.0
O308 O 0.88941 0.69785 0.64403 0.0
O309 O 0.35466 0.17482 0.57151 0.0
Mg310 Mg 0.3646 0.22841 0.60047 0.0
O311 O 0.30506 0.13357 0.6088 0.0
Mg312 Mg 0.32247 0.1589 0.66576 0.0
O313 O 0.37949 0.21817 0.64856 0.0
O314 O 0.42469 0.27315 0.61771 0.0
O315 O 0.3426 0.19008 0.72238 0.0
O316 O 0.36517 0.13125 0.67116 0.0
Mg317 Mg 0.29316 0.1157 0.72497 0.0
O318 O 0.26251 0.09226 0.67878 0.0
O319 O 0.28236 0.16183 0.74821 0.0
O320 O 0.354 0.12136 0.72842 0.0
O321 O 0.24551 0.05667 0.73043 0.0
C322 C 0.28313 0.21713 0.63766 0.0
C323 C 0.32079 0.14118 0.57792 0.0
C324 C 0.41501 0.2523 0.64685 0.0
C325 C 0.3207 0.18891 0.74878 0.0
C326 C 0.37582 0.12492 0.70141 0.0
C327 C 0.23831 0.05863 0.69729 0.0
O328 O 0.31116 0.23463 0.61392 0.0
O329 O 0.28177 0.18917 0.65875 0.0
O330 O 0.86171 0.16807 0.76195 0.0
Mg331 Mg 0.81042 0.1176 0.73599 0.0
O332 O 0.83903 0.20266 0.73048 0.0
Mg333 Mg 0.83197 0.17745 0.67232 0.0
O334 O 0.82371 0.11197 0.6855 0.0
O335 O 0.81244 0.06333 0.72633 0.0
O336 O 0.82479 0.15129 0.61461 0.0
O337 O 0.90355 0.20445 0.66608 0.0
Mg338 Mg 0.8524 0.23197 0.61039 0.0
O339 O 0.83759 0.24254 0.6591 0.0
O340 O 0.80224 0.18484 0.58177 0.0
O341 O 0.90965 0.231 0.61214 0.0
O342 O 0.85379 0.28793 0.61398 0.0
C343 C 0.738 0.12823 0.70482 0.0
C344 C 0.85431 0.19819 0.75937 0.0
C345 C 0.81895 0.07534 0.69381 0.0
C346 C 0.81033 0.15524 0.58514 0.0
C347 C 0.92469 0.22057 0.638 0.0
C348 C 0.84245 0.27786 0.6464 0.0
O349 O 0.75161 0.1157 0.73046 0.0
O350 O 0.76122 0.14963 0.67909 0.0
C351 C 0.28417 0.88138 0.06367 0.0
C352 C 0.2807 0.84127 0.06644 0.0
C353 C 0.32138 0.91644 0.05214 0.0
C354 C 0.35637 0.91261 0.04292 0.0
H355 H 0.25812 0.88575 0.07084 0.0
H356 H 0.32298 0.94695 0.05105 0.0
S357 S 0.36356 0.8146 0.04695 0.0
N358 N 0.31544 0.79978 0.0598 0.0
N359 N 0.38521 0.86551 0.03787 0.0
C360 C 0.35296 0.87246 0.04497 0.0
C361 C 0.31517 0.83685 0.05684 0.0
C362 C 0.17547 0.47622 0.01463 0.0
C363 C 0.16706 0.43464 0.01988 0.0
C364 C 0.14803 0.48416 0.99472 0.0
C365 C 0.11131 0.4506 0.97985 0.0
H366 H 0.20148 0.50228 0.02821 0.0
H367 H 0.15368 0.51633 0.99382 0.0
S368 S 0.08102 0.33685 0.9806 0.0
N369 N 0.12398 0.36045 0.00488 0.0
N370 N 0.07262 0.37494 0.96666 0.0
C371 C 0.10569 0.40941 0.98152 0.0
C372 C 0.1334 0.40147 0.00206 0.0
C373 C 0.54891 0.6879 0.03241 0.0
C374 C 0.52191 0.67621 0.06137 0.0
C375 C 0.54706 0.65754 0.00908 0.0
C376 C 0.51838 0.61441 0.01414 0.0
H377 H 0.57117 0.72095 0.02747 0.0
H378 H 0.56834 0.66802 0.98687 0.0
S379 S 0.44116 0.56787 0.08644 0.0
N380 N 0.46587 0.61936 0.09444 0.0
N381 N 0.46285 0.56132 0.05057 0.0
C382 C 0.49188 0.60211 0.04361 0.0
C383 C 0.49347 0.63336 0.06729 0.0
C384 C 0.84289 0.30297 5e-05 0.0
C385 C 0.82788 0.30637 0.96685 0.0
C386 C 0.87644 0.33818 0.01587 0.0
C387 C 0.8964 0.3777 -0.00131 0.0
H388 H 0.83136 0.2723 0.01233 0.0
H389 H 0.8893 0.33327 0.04001 0.0
S390 S 0.8592 0.4048 0.91697 0.0
N391 N 0.8279 0.35337 0.92154 0.0
N392 N 0.89188 0.42 0.95086 0.0
C393 C 0.87755 0.38262 0.96805 0.0
C394 C 0.84313 0.34666 0.95208 0.0
C395 C 0.69959 0.52708 0.96299 0.0
C396 C 0.72845 0.56983 0.95579 0.0
C397 C 0.65786 0.51432 0.97175 0.0
C398 C 0.64414 0.54405 0.97335 0.0
H399 H 0.70853 0.50312 0.95948 0.0
H400 H 0.6357 0.48091 0.97487 0.0
S401 S 0.70894 0.66013 0.96205 0.0
N402 N 0.74154 0.64211 0.95513 0.0
N403 N 0.66333 0.61815 0.97099 0.0
C404 C 0.67345 0.58704 0.96876 0.0
C405 C 0.71563 0.59996 0.96017 0.0
C406 C 0.51352 0.16675 0.929 0.0
C407 C 0.47457 0.15552 0.91327 0.0
C408 C 0.51768 0.13917 0.95229 0.0
C409 C 0.48347 0.09913 0.95946 0.0
H410 H 0.53939 0.19883 0.92675 0.0
H411 H 0.54621 0.151 0.96768 0.0
S412 S 0.37889 0.04982 0.91746 0.0
N413 N 0.4039 0.09817 0.90107 0.0
N414 N 0.41269 0.04605 0.94381 0.0
C415 C 0.44683 0.08498 0.93946 0.0
C416 C 0.44218 0.11322 0.9163 0.0
C417 C 0.66936 0.15009 0.94545 0.0
C418 C 0.70936 0.15915 0.95644 0.0
C419 C 0.63361 0.11498 0.95883 0.0
C420 C 0.637 0.08756 0.98307 0.0
H421 H 0.6658 0.16989 0.926 0.0
H422 H 0.60328 0.10811 0.94879 0.0
S423 S 0.73494 0.09977 0.02175 0.0
N424 N 0.75065 0.14019 0.99444 0.0
N425 N 0.68333 0.07315 0.01893 0.0
C426 C 0.67689 0.09712 0.99498 0.0
C427 C 0.71319 0.13326 0.98179 0.0
C428 C 0.89394 0.59247 0.97346 0.0
C429 C 0.86519 0.57044 0.94619 0.0
C430 C 0.92976 0.58855 0.97795 0.0
C431 C 0.93754 0.56292 0.955 0.0
H432 H 0.89006 0.6147 0.98982 0.0
H433 H 0.95237 0.6071 -0.00177 0.0
S434 S 0.87101 0.49803 0.88069 0.0
N435 N 0.84569 0.5207 0.89747 0.0
N436 N 0.9134 0.51424 0.90532 0.0
C437 C 0.90812 0.53946 0.92882 0.0
C438 C 0.87169 0.54292 0.92461 0.0
C439 C 0.48149 0.32391 0.94294 0.0
C440 C 0.46861 0.28214 0.9531 0.0
C441 C 0.48899 0.35497 0.96817 0.0
C442 C 0.48422 0.34558 0.00441 0.0
H443 H 0.48546 0.33257 0.91526 0.0
H444 H 0.49762 0.38633 0.95914 0.0
S445 S 0.44903 0.23992 0.04434 0.0
N446 N 0.44955 0.23216 0.00145 0.0
N447 N 0.46495 0.29076 0.0491 0.0
C448 C 0.47156 0.30377 0.0149 0.0
C449 C 0.46348 0.27202 0.98916 0.0
C450 C 0.19021 0.67719 0.03763 0.0
C451 C 0.16695 0.69021 0.05834 0.0
C452 C 0.17068 0.64618 0.01161 0.0
C453 C 0.12735 0.62647 0.00655 0.0
H454 H 0.22401 0.69328 0.03971 0.0
H455 H 0.18984 0.64003 0.99358 0.0
S456 S 0.05147 0.6442 0.05685 0.0
N457 N 0.09748 0.67766 0.07412 0.0
N458 N 0.06101 0.6179 0.02622 0.0
C459 C 0.10318 0.63542 0.02967 0.0
C460 C 0.12298 0.66775 0.05549 0.0
C461 C 0.32247 0.46109 0.04615 0.0
C462 C 0.29011 0.42407 0.06153 0.0
C463 C 0.36181 0.4653 0.03958 0.0
C464 C 0.37037 0.43302 0.04885 0.0
H465 H 0.31759 0.48729 0.03968 0.0
H466 H 0.386 0.49447 0.02816 0.0
S467 S 0.29515 0.32779 0.0852 0.0
N468 N 0.26813 0.35268 0.08191 0.0
N469 N 0.3427 0.36164 0.0713 0.0
C470 C 0.33809 0.39547 0.06324 0.0
C471 C 0.29784 0.39077 0.06921 0.0
C472 C 0.50965 0.80211 0.02448 0.0
C473 C 0.50675 0.80157 0.0615 0.0
C474 C 0.50654 0.83256 0.00457 0.0
C475 C 0.50127 0.86436 0.0208 0.0
H476 H 0.51726 0.7807 0.01076 0.0
H477 H 0.5115 0.83302 0.97633 0.0
S478 S 0.48325 0.8714 0.11615 0.0
N479 N 0.49118 0.83073 0.11315 0.0
N480 N 0.48682 0.88955 0.07557 0.0
C481 C 0.49427 0.86183 0.0574 0.0
C482 C 0.49703 0.83027 0.07781 0.0
C483 C 0.97852 0.17114 0.37495 0.0
C484 C 0.94405 0.17434 0.3866 0.0
C485 C 0.01035 0.20357 0.3554 0.0
C486 C 0.00871 0.24029 0.34672 0.0
H487 H 0.98134 0.14376 0.38174 0.0
H488 H 0.03724 0.20053 0.3484 0.0
S489 S 0.92143 0.26054 0.36676 0.0
N490 N 0.90748 0.21435 0.38517 0.0
N491 N 0.96716 0.27563 0.34815 0.0
C492 C 0.9729 0.24251 0.35638 0.0
C493 C 0.94071 0.20957 0.37658 0.0
C494 C 0.82406 0.79806 0.36102 0.0
C495 C 0.82453 0.75989 0.35816 0.0
C496 C 0.7891 0.80056 0.3497 0.0
C497 C 0.7536 0.76457 0.3361 0.0
H498 H 0.84859 0.82447 0.37553 0.0
H499 H 0.78792 0.82905 0.35574 0.0
S500 S 0.74418 0.66066 0.31608 0.0
N501 N 0.79069 0.68834 0.33485 0.0
N502 N 0.72438 0.69257 0.3143 0.0
C503 C 0.75623 0.72818 0.32895 0.0
C504 C 0.792 0.72594 0.33989 0.0
C505 C 0.16944 0.9911 0.38547 0.0
C506 C 0.19067 0.03237 0.37198 0.0
C507 C 0.16527 0.95698 0.36552 0.0
C508 C 0.18251 0.96312 0.3316 0.0
H509 H 0.15651 0.98538 0.41184 0.0
H510 H 0.14877 0.92562 0.37679 0.0
S511 S 0.24063 0.06559 0.28431 0.0
N512 N 0.22843 0.07795 0.32274 0.0
N513 N 0.22088 0.01376 0.28492 0.0
C514 C 0.20285 0.00428 0.31737 0.0
C515 C 0.20691 0.039 0.33771 0.0
C516 C 0.47402 0.61452 0.3197 0.0
C517 C 0.47545 0.62154 0.28315 0.0
C518 C 0.50202 0.64617 0.34239 0.0
C519 C 0.53302 0.68544 0.32917 0.0
H520 H 0.45417 0.5833 0.33058 0.0
H521 H 0.50213 0.63814 0.36993 0.0
S522 S 0.53944 0.72283 0.23737 0.0
N523 N 0.50167 0.67316 0.23614 0.0
N524 N 0.55632 0.7328 0.27864 0.0
C525 C 0.5304 0.69482 0.2936 0.0
C526 C 0.50118 0.66262 0.27057 0.0
C527 C 0.35588 0.88321 0.25695 0.0
C528 C 0.38697 0.90117 0.28326 0.0
C529 C 0.31448 0.87179 0.26408 0.0
C530 C 0.30228 0.87686 0.29802 0.0
H531 H 0.36379 0.87885 0.23031 0.0
H532 H 0.29197 0.85947 0.24262 0.0
S533 S 0.37122 0.92073 0.37658 0.0
N534 N 0.40273 0.92278 0.34476 0.0
N535 N 0.32412 0.89956 0.35862 0.0
C536 C 0.33257 0.89292 0.32506 0.0
C537 C 0.3751 0.90538 0.31759 0.0
C538 C 0.17677 0.5182 0.28531 0.0
C539 C 0.13856 0.51447 0.27419 0.0
C540 C 0.17748 0.48637 0.30568 0.0
C541 C 0.13991 0.45087 0.31592 0.0
H542 H 0.2061 0.54578 0.27813 0.0
H543 H 0.20721 0.48987 0.31398 0.0
S544 S 0.03212 0.42648 0.29324 0.0
N545 N 0.06275 0.47258 0.27437 0.0
N546 N 0.06385 0.41312 0.31303 0.0
C547 C 0.10168 0.44686 0.30475 0.0
C548 C 0.10103 0.47868 0.28376 0.0
C549 C 0.3282 0.47799 0.26523 0.0
C550 C 0.36397 0.47439 0.25928 0.0
C551 C 0.29081 0.44325 0.27643 0.0
C552 C 0.28789 0.40372 0.28158 0.0
H553 H 0.32894 0.50772 0.26066 0.0
H554 H 0.26359 0.44697 0.27976 0.0
S555 S 0.37339 0.37862 0.27324 0.0
N556 N 0.3951 0.4291 0.26248 0.0
N557 N 0.324 0.36318 0.28217 0.0
C558 C 0.32352 0.3998 0.27654 0.0
C559 C 0.36179 0.43531 0.26566 0.0
C560 C 0.51122 0.86486 0.30425 0.0
C561 C 0.52554 0.90833 0.29973 0.0
C562 C 0.5392 0.8506 0.31279 0.0
C563 C 0.582 0.87954 0.31686 0.0
H564 H 0.47894 0.84165 0.29851 0.0
H565 H 0.52791 0.81687 0.31346 0.0
S566 S 0.63364 -0.00355 0.31395 0.0
N567 N 0.58398 0.98009 0.30498 0.0
N568 N 0.63666 0.95318 0.32025 0.0
C569 C 0.59597 0.923 0.31539 0.0
C570 C 0.56763 0.93748 0.30705 0.0
C571 C 0.19491 0.67812 0.29026 0.0
C572 C 0.15807 0.65838 0.26972 0.0
C573 C 0.19947 0.70576 0.31774 0.0
C574 C 0.16774 0.71517 0.32494 0.0
H575 H 0.21896 0.66957 0.28677 0.0
H576 H 0.22678 0.71784 0.33472 0.0
S577 S 0.06717 0.67531 0.27714 0.0
N578 N 0.0908 0.65283 0.25684 0.0
N579 N 0.09969 0.70533 0.30854 0.0
C580 C 0.13225 0.6984 0.30304 0.0
C581 C 0.12745 0.67004 0.27513 0.0
C582 C 0.81585 0.03241 0.35447 0.0
C583 C 0.83029 0.02739 0.38738 0.0
C584 C 0.78947 -0.00246 0.33409 0.0
C585 C 0.77622 0.95626 0.34597 0.0
H586 H 0.82434 0.06362 0.34467 0.0
H587 H 0.7785 0.00323 0.30921 0.0
S588 S 0.80778 0.92668 0.42951 0.0
N589 N 0.83146 0.97891 0.43073 0.0
N590 N 0.781 0.91222 0.39206 0.0
C591 C 0.79082 0.95067 0.37875 0.0
C592 C 0.81804 0.98659 0.39961 0.0
C593 C 0.98531 0.7928 0.38213 0.0
C594 C 0.95263 0.75299 0.39261 0.0
C595 C 0.026 0.79971 0.37754 0.0
C596 C 0.03521 0.7671 0.3836 0.0
H597 H 0.97968 0.81907 0.37856 0.0
H598 H 0.05064 0.83113 0.37047 0.0
S599 S 0.95962 0.65584 0.40667 0.0
N600 N 0.9313 0.67947 0.40507 0.0
N601 N 0.00794 0.69286 0.39752 0.0
C602 C 0.00252 0.72683 0.39273 0.0
C603 C 0.96116 0.71966 0.39693 0.0
C604 C 0.2092 0.20399 0.39325 0.0
C605 C 0.17947 0.16076 0.39609 0.0
C606 C 0.20062 0.23093 0.37291 0.0
C607 C 0.16228 0.21519 0.35495 0.0
H608 H 0.24051 0.21611 0.40375 0.0
H609 H 0.22577 0.26282 0.3679 0.0
S610 S 0.07097 0.10739 0.36128 0.0
N611 N 0.10754 0.10572 0.38545 0.0
N612 N 0.09218 0.15627 0.34614 0.0
C613 C 0.13073 0.1736 0.36125 0.0
C614 C 0.13919 0.1463 0.38217 0.0
C615 C 0.60858 0.52853 0.70976 0.0
C616 C 0.60854 0.49011 0.71302 0.0
C617 C 0.6407 0.56284 0.69187 0.0
C618 C 0.67441 0.56028 0.67695 0.0
H619 H 0.58393 0.53235 0.72163 0.0
H620 H 0.64005 0.59225 0.69139 0.0
S621 S 0.68578 0.46465 0.67429 0.0
N622 N 0.64266 0.44997 0.69712 0.0
N623 N 0.70326 0.5146 0.66348 0.0
C624 C 0.67342 0.52121 0.67827 0.0
C625 C 0.64047 0.48612 0.69631 0.0
C626 C 0.45797 0.09318 0.6894 0.0
C627 C 0.48236 0.11026 0.71996 0.0
C628 C 0.42454 0.10011 0.68214 0.0
C629 C 0.41458 0.12359 0.7057 0.0
H630 H 0.46279 0.07191 0.67256 0.0
H631 H 0.40477 0.0847 0.65942 0.0
S632 S 0.47461 0.18183 0.78518 0.0
N633 N 0.4987 0.15677 0.77073 0.0
N634 N 0.43551 0.16944 0.75739 0.0
C635 C 0.44111 0.14386 0.73454 0.0
C636 C 0.47526 0.1373 0.74159 0.0
C637 C 0.86396 0.38301 0.68294 0.0
C638 C 0.84506 0.37197 0.71619 0.0
C639 C 0.86123 0.35188 0.65983 0.0
C640 C 0.83969 0.30887 0.66944 0.0
H641 H 0.88266 0.41598 0.67552 0.0
H642 H 0.87781 0.36191 0.63499 0.0
S643 S 0.7785 0.26439 0.75126 0.0
N644 N 0.80021 0.3161 0.75626 0.0
N645 N 0.79437 0.25677 0.71257 0.0
C646 C 0.81839 0.29745 0.70182 0.0
C647 C 0.8213 0.32931 0.72532 0.0
C648 C 0.17074 0.94293 0.67462 0.0
C649 C 0.15545 0.94455 0.64111 0.0
C650 C 0.19556 0.98018 0.69367 0.0
C651 C 0.20602 0.02006 0.67954 0.0
H652 H 0.16557 0.91307 0.68519 0.0
H653 H 0.20864 0.97777 0.71865 0.0
S654 S 0.16707 0.0392 0.59517 0.0
N655 N 0.14752 0.98748 0.59631 0.0
N656 N 0.19456 0.058 0.63193 0.0
C657 C 0.18833 0.02152 0.64705 0.0
C658 C 0.16288 0.98355 0.62786 0.0
C659 C 0.03981 0.25546 0.6493 0.0
C660 C 0.04887 0.2435 0.61654 0.0
C661 C -0.00131 0.24567 0.65757 0.0
C662 C 0.96597 0.22421 0.63307 0.0
H663 H 0.06484 0.27425 0.66774 0.0
H664 H 0.99297 0.25707 0.6822 0.0
S665 S 0.97251 0.18044 0.54636 0.0
N666 N 0.02069 0.20367 0.56208 0.0
N667 N 0.94451 0.18768 0.57662 0.0
C668 C 0.97436 0.20987 0.60139 0.0
C669 C 0.01556 0.21884 0.59341 0.0
C670 C 0.82416 0.82249 0.5909 0.0
C671 C 0.81908 0.85349 0.60899 0.0
C672 C 0.82439 0.78908 0.6092 0.0
C673 C 0.81933 0.78574 0.64602 0.0
H674 H 0.82492 0.82236 0.5623 0.0
H675 H 0.82455 0.76385 0.59418 0.0
S676 S 0.81243 0.86205 0.70645 0.0
N677 N 0.81399 0.88084 0.66654 0.0
N678 N 0.81619 0.81921 0.70047 0.0
C679 C 0.81923 0.81896 0.66466 0.0
C680 C 0.81856 0.85258 0.64625 0.0
C681 C 0.02527 0.78428 0.64054 0.0
C682 C 0.03873 0.80125 0.60651 0.0
C683 C 0.98477 0.75032 0.64617 0.0
C684 C 0.95676 0.73183 0.61786 0.0
H685 H 0.04635 0.79694 0.66293 0.0
H686 H 0.97567 0.73779 0.67261 0.0
S687 S 0.97452 0.76607 0.52441 0.0
N688 N 0.01887 0.79869 0.54465 0.0
N689 N 0.94375 0.73349 0.5552 0.0
C690 C 0.96938 0.74853 0.5839 0.0
C691 C 0.01015 0.78358 0.57821 0.0
C692 C 0.23177 0.28341 0.62945 0.0
C693 C 0.18912 0.25273 0.62807 0.0
C694 C 0.26214 0.27175 0.63483 0.0
C695 C 0.25074 0.22918 0.63971 0.0
H696 H 0.24183 0.3162 0.6235 0.0
H697 H 0.29482 0.29594 0.63337 0.0
S698 S 0.14317 0.13747 0.64285 0.0
N699 N 0.13675 0.1785 0.63492 0.0
N700 N 0.19416 0.15677 0.64669 0.0
C701 C 0.20815 0.19867 0.64185 0.0
C702 C 0.17714 0.21045 0.63568 0.0
C703 C 0.82332 0.98457 0.65152 0.0
C704 C 0.80217 0.9783 0.61878 0.0
C705 C 0.83038 0.01737 0.67444 0.0
C706 C 0.81531 0.04482 0.66677 0.0
H707 H 0.83361 0.96333 0.66097 0.0
H708 H 0.84672 0.02037 0.69909 0.0
S709 S 0.75078 0.03937 0.58957 0.0
N710 N 0.76415 0.00316 0.58161 0.0
N711 N 0.77255 0.06064 0.6279 0.0
C712 C 0.79205 0.03828 0.63571 0.0
C713 C 0.7865 0.00601 0.61109 0.0
C714 C 0.45125 0.32465 0.72302 0.0
C715 C 0.49459 0.33994 0.72253 0.0
C716 C 0.42414 0.29085 0.70161 0.0
C717 C 0.43986 0.27248 0.67816 0.0
H718 H 0.4386 0.34127 0.73764 0.0
H719 H 0.39146 0.28235 0.70051 0.0
S720 S 0.54958 0.29663 0.67028 0.0
N721 N 0.55115 0.33022 0.70045 0.0
N722 N 0.50005 0.26813 0.65803 0.0
C723 C 0.48249 0.28518 0.67914 0.0
C724 C 0.51003 0.31883 0.70178 0.0
C725 C 0.64006 0.13598 0.71276 0.0
C726 C 0.60954 0.09358 0.71929 0.0
C727 C 0.68163 0.14709 0.7056 0.0
C728 C 0.6937 0.11611 0.70513 0.0
H729 H 0.63234 0.16096 0.7152 0.0
H730 H 0.70484 0.18021 0.70258 0.0
S731 S 0.62482 0.0004 0.71474 0.0
N732 N 0.59339 0.02017 0.71992 0.0
N733 N 0.67179 0.04138 0.70777 0.0
C734 C 0.66313 0.07355 0.70931 0.0
C735 C 0.62091 0.06216 0.71603 0.0
C736 C 0.80705 0.4926 0.73702 0.0
C737 C 0.84768 0.50427 0.74889 0.0
C738 C 0.80073 0.51711 0.71199 0.0
C739 C 0.8345 0.55457 0.69937 0.0
H740 H 0.78096 0.46175 0.74349 0.0
H741 H 0.77039 0.50431 0.69958 0.0
S742 S 0.94436 0.60569 0.72997 0.0
N743 N 0.92058 0.56049 0.75169 0.0
N744 N 0.9077 0.60727 0.70592 0.0
C745 C 0.87365 0.57026 0.71562 0.0
C746 C 0.8805 0.54497 0.74043 0.0
C747 C 0.47557 0.94757 0.16619 0.0
C748 C 0.49883 0.97271 0.19488 0.0
C749 C 0.48325 0.96371 0.13199 0.0
C750 C 0.51427 0.00567 0.12524 0.0
H751 H 0.45046 0.91544 0.17038 0.0
H752 H 0.46299 0.94385 0.11091 0.0
S753 S 0.58399 0.08431 0.19146 0.0
N754 N 0.5548 0.04111 0.21471 0.0
N755 N 0.56855 0.07214 0.14992 0.0
C756 C 0.53826 0.03108 0.15362 0.0
C757 C 0.53084 0.01432 0.1886 0.0
C758 C 0.07617 0.57095 0.14855 0.0
C759 C 0.10772 0.5636 0.16191 0.0
C760 C 0.05889 0.55626 0.1148 0.0
C761 C 0.07242 0.53345 0.09389 0.0
H762 H 0.06343 0.58626 0.16486 0.0
H763 H 0.03349 0.56088 0.10583 0.0
S764 S 0.15877 0.51211 0.11456 0.0
N765 N 0.15553 0.53726 0.14963 0.0
N766 N 0.12231 0.5086 0.0871 0.0
C767 C 0.10566 0.52834 0.10614 0.0
C768 C 0.12354 0.54373 0.13994 0.0
C769 C 0.50636 0.5659 0.15654 0.0
C770 C 0.49355 0.53965 0.18637 0.0
C771 C 0.52419 0.55679 0.12756 0.0
C772 C 0.53015 0.52147 0.12783 0.0
H773 H 0.49993 0.5918 0.15462 0.0
H774 H 0.53066 0.57575 0.10393 0.0
S775 S 0.51083 0.44948 0.20388 0.0
N776 N 0.4944 0.48182 0.21735 0.0
N777 N 0.52869 0.4649 0.16352 0.0
C778 C 0.5221 0.49824 0.15947 0.0
C779 C 0.50337 0.50717 0.18858 0.0
C780 C 0.97256 0.49862 0.8101 0.0
C781 C 0.93699 0.45836 0.81275 0.0
C782 C 0.00591 0.51135 0.83352 0.0
C783 C 0.0044 0.48445 0.86084 0.0
H784 H 0.97398 0.52102 0.79056 0.0
H785 H 0.03119 0.54382 0.83199 0.0
S786 S 0.92342 0.37219 0.87298 0.0
N787 N 0.90571 0.38872 0.84003 0.0
N788 N 0.96856 0.41329 0.88491 0.0
C789 C 0.97118 0.44259 0.86131 0.0
C790 C 0.9373 0.42937 0.83708 0.0
C791 C 0.48486 0.44167 0.82385 0.0
C792 C 0.52016 0.4366 0.82186 0.0
C793 C 0.47054 0.44734 0.85651 0.0
C794 C 0.4908 0.44756 0.88818 0.0
H795 H 0.46869 0.44189 0.79996 0.0
H796 H 0.44431 0.453 0.85693 0.0
S797 S 0.58419 0.43407 0.89613 0.0
N798 N 0.57407 0.43032 0.85335 0.0
N799 N 0.54827 0.44199 0.9149 0.0
C800 C 0.52554 0.44119 0.88627 0.0
C801 C 0.54 0.43552 0.853 0.0
C802 C 0.4892 0.04258 0.84104 0.0
C803 C 0.50066 0.02568 0.81249 0.0
C804 C 0.48256 0.02444 0.87465 0.0
C805 C 0.48744 0.98909 0.88069 0.0
H806 H 0.48818 0.07164 0.83799 0.0
H807 H 0.47735 0.04042 0.8965 0.0
S808 S 0.50836 0.92806 0.81328 0.0
N809 N 0.50976 0.96782 0.79119 0.0
N810 N 0.49802 0.9341 0.85461 0.0
C811 C 0.49491 0.96965 0.85171 0.0
C812 C 0.50149 0.98796 0.81753 0.0
C813 C 0.1161 0.26563 0.49433 0.0
C814 C 0.148 0.29339 0.51735 0.0
C815 C 0.11834 0.27365 0.45822 0.0
C816 C 0.15264 0.30954 0.44375 0.0
H817 H 0.08845 0.23822 0.5045 0.0
H818 H 0.09184 0.25287 0.44172 0.0
S819 S 0.24643 0.38951 0.49193 0.0
N820 N 0.21673 0.35615 0.52284 0.0
N821 N 0.22071 0.3713 0.45427 0.0
C822 C 0.18619 0.33598 0.46587 0.0
C823 C 0.18392 0.32784 0.50294 0.0
C824 C 0.72629 0.89018 0.49621 0.0
C825 C 0.72026 0.86564 0.52655 0.0
C826 C 0.70439 0.87157 0.4649 0.0
C827 C 0.67599 0.82784 0.46304 0.0
H828 H 0.75031 0.92325 0.49587 0.0
H829 H 0.71199 0.89102 0.44148 0.0
S830 S 0.64097 0.75277 0.53845 0.0
N831 N 0.67817 0.79782 0.55516 0.0
N832 N 0.63665 0.76252 0.49653 0.0
C833 C 0.66611 0.80419 0.49455 0.0
C834 C 0.68846 0.82317 0.52629 0.0
C835 C 0.19675 0.86541 0.52971 0.0
C836 C 0.16603 0.87729 0.53179 0.0
C837 C 0.21181 0.8615 0.49682 0.0
C838 C 0.19621 0.86898 0.46517 0.0
H839 H 0.20719 0.85662 0.55337 0.0
H840 H 0.23304 0.84898 0.49604 0.0
S841 S 0.11994 0.90724 0.45821 0.0
N842 N 0.12438 0.90176 0.501 0.0
N843 N 0.15213 0.89421 0.43898 0.0
C844 C 0.16859 0.88512 0.46756 0.0
C845 C 0.15334 0.88899 0.50101 0.0
C846 C 0.58845 0.80357 0.18182 0.0
C847 C 0.59649 0.78471 0.15282 0.0
C848 C 0.61202 0.81242 0.21279 0.0
C849 C 0.64406 0.80228 0.21595 0.0
H850 H 0.56212 0.80906 0.18152 0.0
H851 H 0.6037 0.82547 0.235 0.0
S852 S 0.68544 0.76436 0.14448 0.0
N853 N 0.64476 0.76494 0.12656 0.0
N854 N 0.68842 0.78081 0.18564 0.0
C855 C 0.6555 0.78783 0.18609 0.0
C856 C 0.63167 0.77901 0.15431 0.0
C857 C 0.1403 0.77986 0.16561 0.0
C858 C 0.17578 0.77533 0.16279 0.0
C859 C 0.12522 0.78258 0.19879 0.0
C860 C 0.14528 0.78082 0.22997 0.0
H861 H 0.1249 0.78243 0.14207 0.0
H862 H 0.09907 0.78833 0.2 0.0
S863 S 0.23716 0.7643 0.23497 0.0
N864 N 0.22828 0.76508 0.19236 0.0
N865 N 0.20111 0.77091 0.25504 0.0
C866 C 0.17943 0.77353 0.22698 0.0
C867 C 0.19454 0.77082 0.19322 0.0
C868 C 0.16421 0.39351 0.16786 0.0
C869 C 0.16296 0.37203 0.13672 0.0
C870 C 0.14803 0.37126 0.19945 0.0
C871 C 0.13063 0.32688 0.20085 0.0
H872 H 0.17989 0.42777 0.16822 0.0
H873 H 0.15249 0.38942 0.22336 0.0
S874 S 0.11364 0.25621 0.12422 0.0
N875 N 0.13824 0.30442 0.10755 0.0
N876 N 0.10751 0.2622 0.16664 0.0
C877 C 0.12558 0.30502 0.16883 0.0
C878 C 0.1421 0.32774 0.13683 0.0
C879 C 0.8316 0.61201 0.82317 0.0
C880 C 0.81997 0.63027 0.8506 0.0
C881 C 0.83281 0.62451 0.78798 0.0
C882 C 0.82217 0.65544 0.77925 0.0
H883 H 0.83769 0.58636 0.82868 0.0
H884 H 0.83936 0.60794 0.76742 0.0
S885 S 0.79651 0.71768 0.84181 0.0
N886 N 0.80305 0.68449 0.86709 0.0
N887 N 0.80463 0.70757 0.80098 0.0
C888 C 0.81338 0.67591 0.80667 0.0
C889 C 0.81235 0.66337 0.84236 0.0
C890 C 0.36516 0.16813 0.83027 0.0
C891 C 0.39448 0.20899 0.84208 0.0
C892 C 0.33937 0.16224 0.80128 0.0
C893 C 0.34168 0.1969 0.78307 0.0
H894 H 0.36226 0.1403 0.84324 0.0
H895 H 0.31856 0.13021 0.7922 0.0
S896 S 0.40574 0.3096 0.80721 0.0
N897 N 0.42031 0.28478 0.83537 0.0
N898 N 0.37022 0.27265 0.78128 0.0
C899 C 0.36842 0.23766 0.79567 0.0
C900 C 0.39512 0.24396 0.82518 0.0
C901 C 0.78707 0.20664 0.82985 0.0
C902 C 0.81393 0.22171 0.85923 0.0
C903 C 0.8014 0.20144 0.79711 0.0
C904 C 0.8432 0.21156 0.79236 0.0
H905 H 0.75456 0.1983 0.83228 0.0
H906 H 0.77903 0.18767 0.77567 0.0
S907 S 0.92558 0.24984 0.86131 0.0
N908 N 0.88407 0.24532 0.88191 0.0
N909 N 0.91087 0.23552 0.81993 0.0
C910 C 0.87041 0.22646 0.82147 0.0
C911 C 0.85588 0.23182 0.85495 0.0
C912 C 0.28435 0.10693 0.48504 0.0
C913 C 0.24834 0.1111 0.4835 0.0
C914 C 0.30624 0.11315 0.51677 0.0
C915 C 0.29236 0.12306 0.54788 0.0
H916 H 0.29671 0.10066 0.46129 0.0
H917 H 0.33519 0.11223 0.51666 0.0
S918 S 0.20056 0.13849 0.5575 0.0
N919 N 0.1994 0.12478 0.51581 0.0
N920 N 0.24141 0.13813 0.57514 0.0
C921 C 0.25584 0.12619 0.54686 0.0
C922 C 0.23363 0.11987 0.51468 0.0
C923 C 0.82209 0.139 0.48821 0.0
C924 C 0.84618 0.11901 0.48888 0.0
C925 C 0.80778 0.14759 0.51958 0.0
C926 C 0.81808 0.13745 0.55269 0.0
H927 H 0.81481 0.14857 0.4633 0.0
H928 H 0.79008 0.164 0.51784 0.0
S929 S 0.87865 0.08188 0.56725 0.0
N930 N 0.87696 0.08586 0.52393 0.0
N931 N 0.85332 0.10487 0.58343 0.0
C932 C 0.84142 0.11626 0.55328 0.0
C933 C 0.85471 0.10636 0.52119 0.0
C934 C 0.82011 0.70982 0.4993 0.0
C935 C 0.82746 0.69158 0.46954 0.0
C936 C 0.80573 0.68688 0.53077 0.0
C937 C 0.79854 0.6451 0.53342 0.0
H938 H 0.82793 0.74271 0.49889 0.0
H939 H 0.80334 0.70316 0.55382 0.0
S940 S 0.80517 0.5812 0.45966 0.0
N941 N 0.82088 0.62829 0.44234 0.0
N942 N 0.79323 0.58456 0.5011 0.0
C943 C 0.8016 0.62536 0.50237 0.0
C944 C 0.81652 0.64889 0.47056 0.0
loop_
_geom_bond_atom_site_label_1
_geom_bond_atom_site_label_2
_geom_bond_distance
_geom_bond_site_symmetry_2
_ccdc_geom_bond_type
H0 C3 0.931 . S
H1 C6 0.928 . S
H2 C8 0.930 . S
C3 H0 0.931 . S
C3 C4 1.413 . S
C3 C5 1.360 . S
C4 C3 1.413 . S
C4 C8 1.429 . S
C5 C3 1.360 . S
C5 C6 1.372 . S
C6 H1 0.928 . S
C6 C5 1.372 . S
C6 C7 1.404 . S
C7 C6 1.404 . S
C7 C8 1.391 . S
C8 H2 0.930 . S
C8 C4 1.429 . S
C8 C7 1.391 . S
H9 C12 0.931 . S
H10 C15 0.928 . S
H11 C17 0.930 . S
C12 H9 0.931 . S
C12 C13 1.413 . S
C12 C14 1.360 . S
C13 C12 1.413 . S
C13 C17 1.429 . S
C14 C12 1.360 . S
C14 C15 1.372 . S
C15 H10 0.928 . S
C15 C14 1.372 . S
C15 C16 1.404 . S
C16 C15 1.404 . S
C16 C17 1.391 . S
C17 H11 0.930 . S
C17 C13 1.429 . S
C17 C16 1.391 . S
H18 C21 0.931 . S
H19 C24 0.928 . S
H20 C26 0.930 . S
C21 H18 0.931 . S
C21 C22 1.413 . S
C21 C23 1.360 . S
C22 C21 1.413 . S
C22 C26 1.429 . S
C23 C21 1.360 . S
C23 C24 1.372 . S
C24 H19 0.928 . S
C24 C23 1.372 . S
C24 C25 1.404 . S
C25 C24 1.404 . S
C25 C26 1.391 . S
C26 H20 0.930 . S
C26 C22 1.429 . S
C26 C25 1.391 . S
H27 C30 0.931 . S
H28 C33 0.928 . S
H29 C35 0.930 . S
C30 H27 0.931 . S
C30 C31 1.413 . S
C30 C32 1.360 . S
C31 C30 1.413 . S
C31 C35 1.429 . S
C32 C30 1.360 . S
C32 C33 1.372 . S
C33 H28 0.928 . S
C33 C32 1.372 . S
C33 C34 1.404 . S
C34 C33 1.404 . S
C34 C35 1.391 . S
C35 H29 0.930 . S
C35 C31 1.429 . S
C35 C34 1.391 . S
H36 C39 0.931 . S
H37 C42 0.928 . S
H38 C44 0.930 . S
C39 H36 0.931 . S
C39 C40 1.413 . S
C39 C41 1.360 . S
C40 C39 1.413 . S
C40 C44 1.429 . S
C41 C39 1.360 . S
C41 C42 1.372 . S
C42 H37 0.928 . S
C42 C41 1.372 . S
C42 C43 1.404 . S
C43 C42 1.404 . S
C43 C44 1.391 . S
C44 H38 0.930 . S
C44 C40 1.429 . S
C44 C43 1.391 . S
H45 C48 0.931 . S
H46 C51 0.928 . S
H47 C53 0.930 . S
C48 H45 0.931 . S
C48 C49 1.413 . S
C48 C50 1.360 . S
C49 C48 1.413 . S
C49 C53 1.429 . S
C50 C48 1.360 . S
C50 C51 1.372 . S
C51 H46 0.928 . S
C51 C50 1.372 . S
C51 C52 1.404 . S
C52 C51 1.404 . S
C52 C53 1.391 . S
C53 H47 0.930 . S
C53 C49 1.429 . S
C53 C52 1.391 . S
H54 C57 0.931 . S
H55 C60 0.928 . S
H56 C62 0.930 . S
C57 H54 0.931 . S
C57 C58 1.413 . S
C57 C59 1.360 . S
C58 C57 1.413 . S
C58 C62 1.429 . S
C59 C57 1.360 . S
C59 C60 1.372 . S
C60 H55 0.928 . S
C60 C59 1.372 . S
C60 C61 1.404 . S
C61 C60 1.404 . S
C61 C62 1.391 . S
C62 H56 0.930 . S
C62 C58 1.429 . S
C62 C61 1.391 . S
H63 C66 0.931 . S
H64 C69 0.928 . S
H65 C71 0.930 . S
C66 H63 0.931 . S
C66 C67 1.413 . S
C66 C68 1.360 . S
C67 C66 1.413 . S
C67 C71 1.429 . S
C68 C66 1.360 . S
C68 C69 1.372 . S
C69 H64 0.928 . S
C69 C68 1.372 . S
C69 C70 1.404 . S
C70 C69 1.404 . S
C70 C71 1.391 . S
C71 H65 0.930 . S
C71 C67 1.429 . S
C71 C70 1.391 . S
H72 C75 0.931 . S
H73 C78 0.928 . S
H74 C80 0.930 . S
C75 H72 0.931 . S
C75 C76 1.413 . S
C75 C77 1.360 . S
C76 C75 1.413 . S
C76 C80 1.429 . S
C77 C75 1.360 . S
C77 C78 1.372 . S
C78 H73 0.928 . S
C78 C77 1.372 . S
C78 C79 1.404 . S
C79 C78 1.404 . S
C79 C80 1.391 . S
C80 H74 0.930 . S
C80 C76 1.429 . S
C80 C79 1.391 . S
H81 C84 0.931 . S
H82 C87 0.928 . S
H83 C89 0.930 . S
C84 H81 0.931 . S
C84 C85 1.413 . S
C84 C86 1.360 . S
C85 C84 1.413 . S
C85 C89 1.429 . S
C86 C84 1.360 . S
C86 C87 1.372 . S
C87 H82 0.928 . S
C87 C86 1.372 . S
C87 C88 1.404 . S
C88 C87 1.404 . S
C88 C89 1.391 . S
C89 H83 0.930 . S
C89 C85 1.429 . S
C89 C88 1.391 . S
H90 C93 0.931 . S
H91 C96 0.928 . S
H92 C98 0.930 . S
C93 H90 0.931 . S
C93 C94 1.413 . S
C93 C95 1.360 . S
C94 C93 1.413 . S
C94 C98 1.429 . S
C95 C93 1.360 . S
C95 C96 1.372 . S
C96 H91 0.928 . S
C96 C95 1.372 . S
C96 C97 1.404 . S
C97 C96 1.404 . S
C97 C98 1.391 . S
C98 H92 0.930 . S
C98 C94 1.429 . S
C98 C97 1.391 . S
H99 C102 0.931 . S
H100 C105 0.928 . S
H101 C107 0.930 . S
C102 H99 0.931 . S
C102 C103 1.413 . S
C102 C104 1.360 . S
C103 C102 1.413 . S
C103 C107 1.429 . S
C104 C102 1.360 . S
C104 C105 1.372 . S
C105 H100 0.928 . S
C105 C104 1.372 . S
C105 C106 1.404 . S
C106 C105 1.404 . S
C106 C107 1.391 . S
C107 H101 0.930 . S
C107 C103 1.429 . S
C107 C106 1.391 . S
H108 C111 0.931 . S
H109 C114 0.928 . S
H110 C116 0.930 . S
C111 H108 0.931 . S
C111 C112 1.413 . S
C111 C113 1.360 . S
C112 C111 1.413 . S
C112 C116 1.429 . S
C113 C111 1.360 . S
C113 C114 1.372 . S
C114 H109 0.928 . S
C114 C113 1.372 . S
C114 C115 1.404 . S
C115 C114 1.404 . S
C115 C116 1.391 . S
C116 H110 0.930 . S
C116 C112 1.429 . S
C116 C115 1.391 . S
H117 C120 0.931 . S
H118 C123 0.928 . S
H119 C125 0.930 . S
C120 H117 0.931 . S
C120 C121 1.413 . S
C120 C122 1.360 . S
C121 C120 1.413 . S
C121 C125 1.429 . S
C122 C120 1.360 . S
C122 C123 1.372 . S
C123 H118 0.928 . S
C123 C122 1.372 . S
C123 C124 1.404 . S
C124 C123 1.404 . S
C124 C125 1.391 . S
C125 H119 0.930 . S
C125 C121 1.429 . S
C125 C124 1.391 . S
H126 C129 0.931 . S
H127 C132 0.928 . S
H128 C134 0.930 . S
C129 H126 0.931 . S
C129 C130 1.413 . S
C129 C131 1.360 . S
C130 C129 1.413 . S
C130 C134 1.429 . S
C131 C129 1.360 . S
C131 C132 1.372 . S
C132 H127 0.928 . S
C132 C131 1.372 . S
C132 C133 1.404 . S
C133 C132 1.404 . S
C133 C134 1.391 . S
C134 H128 0.930 . S
C134 C130 1.429 . S
C134 C133 1.391 . S
H135 C138 0.931 . S
H136 C141 0.928 . S
H137 C143 0.930 . S
C138 H135 0.931 . S
C138 C139 1.413 . S
C138 C140 1.360 . S
C139 C138 1.413 . S
C139 C143 1.429 . S
C140 C138 1.360 . S
C140 C141 1.372 . S
C141 H136 0.928 . S
C141 C140 1.372 . S
C141 C142 1.404 . S
C142 C141 1.404 . S
C142 C143 1.391 . S
C143 H137 0.930 . S
C143 C139 1.429 . S
C143 C142 1.391 . S
H144 C147 0.931 . S
H145 C150 0.928 . S
H146 C152 0.930 . S
C147 H144 0.931 . S
C147 C148 1.413 . S
C147 C149 1.360 . S
C148 C147 1.413 . S
C148 C152 1.429 . S
C149 C147 1.360 . S
C149 C150 1.372 . S
C150 H145 0.928 . S
C150 C149 1.372 . S
C150 C151 1.404 . S
C151 C150 1.404 . S
C151 C152 1.391 . S
C152 H146 0.930 . S
C152 C148 1.429 . S
C152 C151 1.391 . S
H153 C156 0.931 . S
H154 C159 0.928 . S
H155 C161 0.930 . S
C156 H153 0.931 . S
C156 C157 1.413 . S
C156 C158 1.360 . S
C157 C156 1.413 . S
C157 C161 1.429 . S
C158 C156 1.360 . S
C158 C159 1.372 . S
C159 H154 0.928 . S
C159 C158 1.372 . S
C159 C160 1.404 . S
C160 C159 1.404 . S
C160 C161 1.391 . S
C161 H155 0.930 . S
C161 C157 1.429 . S
C161 C160 1.391 . S
O162 Mg163 1.990 . S
O162 C176 1.246 1_565 S
Mg163 O162 1.990 . S
Mg163 O166 2.180 1_556 S
Mg163 O167 2.117 . S
Mg163 O181 2.030 1_565 S
O164 Mg165 2.072 1_556 S
O164 C176 1.264 . S
Mg165 O164 2.072 1_554 S
Mg165 O166 2.099 1_545 S
Mg165 O168 2.079 . S
Mg165 O169 2.072 1_545 S
Mg165 O171 2.099 . S
Mg165 O182 2.079 . S
O166 Mg163 2.180 1_554 S
O166 Mg165 2.099 1_565 S
O166 C177 1.277 1_554 S
O167 Mg163 2.117 . S
O167 C177 1.266 . S
O168 Mg165 2.079 . S
O168 C178 1.264 . S
O169 Mg165 2.072 1_565 S
O169 C179 1.260 . S
Mg170 O171 2.180 . S
Mg170 O172 2.030 . S
Mg170 O173 1.990 1_545 S
Mg170 O174 2.117 . S
O171 Mg165 2.099 . S
O171 Mg170 2.180 . S
O171 C180 1.276 1_554 S
O172 Mg170 2.030 . S
O172 C178 1.248 . S
O173 Mg170 1.990 1_565 S
O173 C179 1.253 . S
O174 Mg170 2.117 . S
O174 C180 1.248 1_554 S
C175 O181 1.248 . S
C175 O182 1.264 1_556 S
C176 O162 1.246 1_545 S
C176 O164 1.264 . S
C177 O166 1.277 1_556 S
C177 O167 1.266 . S
C178 O168 1.264 . S
C178 O172 1.248 . S
C179 O169 1.260 . S
C179 O173 1.253 . S
C180 O171 1.276 1_556 S
C180 O174 1.248 1_556 S
O181 Mg163 2.030 1_545 S
O181 C175 1.248 . S
O182 Mg165 2.079 . S
O182 C175 1.264 1_554 S
O183 Mg184 1.990 . S
O183 C197 1.253 . S
Mg184 O183 1.990 . S
Mg184 O187 2.180 1_556 S
Mg184 O188 2.117 . S
Mg184 O202 2.030 1_455 S
O185 Mg186 2.071 1_556 S
O185 C197 1.260 1_655 S
Mg186 O185 2.071 1_554 S
Mg186 O187 2.096 1_655 S
Mg186 O189 2.082 . S
Mg186 O190 2.040 1_655 S
Mg186 O192 2.103 . S
Mg186 O203 2.111 . S
O187 Mg184 2.180 1_554 S
O187 Mg186 2.096 1_455 S
O187 C198 1.282 . S
O188 Mg184 2.117 . S
O188 C198 1.234 1_556 S
O189 Mg186 2.082 . S
O189 C199 1.264 1_655 S
O190 Mg186 2.040 1_455 S
O190 C200 1.260 . S
Mg191 O192 2.180 . S
Mg191 O193 2.030 1_655 S
Mg191 O194 1.990 1_655 S
Mg191 O195 2.117 . S
O192 Mg186 2.103 . S
O192 Mg191 2.180 . S
O192 C201 1.275 1_554 S
O193 Mg191 2.030 1_455 S
O193 C199 1.248 . S
O194 Mg191 1.990 1_455 S
O194 C200 1.253 . S
O195 Mg191 2.117 . S
O195 C201 1.248 1_554 S
C196 O202 1.248 . S
C196 O203 1.264 1_556 S
C197 O183 1.253 . S
C197 O185 1.260 1_455 S
C198 O187 1.282 . S
C198 O188 1.234 1_554 S
C199 O189 1.264 1_455 S
C199 O193 1.248 . S
C200 O190 1.260 . S
C200 O194 1.253 . S
C201 O192 1.275 1_556 S
C201 O195 1.248 1_556 S
O202 Mg184 2.030 1_655 S
O202 C196 1.248 . S
O203 Mg186 2.111 . S
O203 C196 1.264 1_554 S
O204 Mg205 1.990 . S
O204 C218 1.253 . S
Mg205 O204 1.990 . S
Mg205 O208 2.180 . S
Mg205 O209 2.117 . S
Mg205 O223 2.030 . S
O206 Mg207 2.058 1_554 S
O206 C218 1.260 . S
Mg207 O206 2.058 1_556 S
Mg207 O208 2.097 1_556 S
Mg207 O210 2.093 . S
Mg207 O211 2.073 . S
Mg207 O213 2.101 . S
Mg207 O224 2.078 1_556 S
O208 Mg205 2.180 . S
O208 Mg207 2.097 1_554 S
O208 C219 1.279 . S
O209 Mg205 2.117 . S
O209 C219 1.250 . S
O210 Mg207 2.093 . S
O210 C220 1.264 . S
O211 Mg207 2.073 . S
O211 C221 1.260 . S
Mg212 O213 2.180 . S
Mg212 O214 2.030 . S
Mg212 O215 1.990 . S
Mg212 O216 2.131 . S
O213 Mg207 2.101 . S
O213 Mg212 2.180 . S
O213 C222 1.279 1_556 S
O214 Mg212 2.030 . S
O214 C220 1.248 . S
O215 Mg212 1.990 . S
O215 C221 1.253 . S
O216 Mg212 2.131 . S
O216 C222 1.245 1_556 S
C217 O223 1.248 . S
C217 O224 1.264 . S
C218 O204 1.253 . S
C218 O206 1.260 . S
C219 O208 1.279 . S
C219 O209 1.250 . S
C220 O210 1.264 . S
C220 O214 1.248 . S
C221 O211 1.260 . S
C221 O215 1.253 . S
C222 O213 1.279 1_554 S
C222 O216 1.245 1_554 S
O223 Mg205 2.030 . S
O223 C217 1.248 . S
O224 Mg207 2.078 1_554 S
O224 C217 1.264 . S
O225 Mg226 1.990 . S
O225 C239 1.253 . S
Mg226 O225 1.990 . S
Mg226 O229 2.180 . S
Mg226 O230 2.117 . S
Mg226 O244 2.030 . S
O227 Mg228 2.072 . S
O227 C239 1.260 . S
Mg228 O227 2.072 . S
Mg228 O229 2.099 . S
Mg228 O231 2.079 . S
Mg228 O232 2.072 . S
Mg228 O234 2.099 . S
Mg228 O245 2.079 . S
O229 Mg226 2.180 . S
O229 Mg228 2.099 . S
O229 C240 1.279 . S
O230 Mg226 2.117 . S
O230 C240 1.250 . S
O231 Mg228 2.079 . S
O231 C241 1.264 . S
O232 Mg228 2.072 . S
O232 C242 1.260 . S
Mg233 O234 2.180 . S
Mg233 O235 2.030 . S
Mg233 O236 1.990 . S
Mg233 O237 2.117 . S
O234 Mg228 2.099 . S
O234 Mg233 2.180 . S
O234 C243 1.279 . S
O235 Mg233 2.030 . S
O235 C241 1.248 . S
O236 Mg233 1.990 . S
O236 C242 1.253 . S
O237 Mg233 2.117 . S
O237 C243 1.250 . S
C238 O244 1.248 . S
C238 O245 1.264 . S
C239 O225 1.253 . S
C239 O227 1.260 . S
C240 O229 1.279 . S
C240 O230 1.250 . S
C241 O231 1.264 . S
C241 O235 1.248 . S
C242 O232 1.260 . S
C242 O236 1.253 . S
C243 O234 1.279 . S
C243 O237 1.250 . S
O244 Mg226 2.030 . S
O244 C238 1.248 . S
O245 Mg228 2.079 . S
O245 C238 1.264 . S
O246 Mg247 1.990 . S
O246 C260 1.253 . S
Mg247 O246 1.990 . S
Mg247 O250 2.180 . S
Mg247 O251 2.117 . S
Mg247 O265 2.030 . S
O248 Mg249 2.072 . S
O248 C260 1.260 . S
Mg249 O248 2.072 . S
Mg249 O250 2.099 . S
Mg249 O252 2.079 . S
Mg249 O253 2.072 . S
Mg249 O255 2.099 . S
Mg249 O266 2.079 . S
O250 Mg247 2.180 . S
O250 Mg249 2.099 . S
O250 C261 1.279 . S
O251 Mg247 2.117 . S
O251 C261 1.250 . S
O252 Mg249 2.079 . S
O252 C262 1.264 . S
O253 Mg249 2.072 . S
O253 C263 1.260 . S
Mg254 O255 2.180 . S
Mg254 O256 2.030 . S
Mg254 O257 1.990 . S
Mg254 O258 2.117 . S
O255 Mg249 2.099 . S
O255 Mg254 2.180 . S
O255 C264 1.279 . S
O256 Mg254 2.030 . S
O256 C262 1.248 . S
O257 Mg254 1.990 . S
O257 C263 1.253 . S
O258 Mg254 2.117 . S
O258 C264 1.250 . S
C259 O265 1.248 . S
C259 O266 1.264 . S
C260 O246 1.253 . S
C260 O248 1.260 . S
C261 O250 1.279 . S
C261 O251 1.250 . S
C262 O252 1.264 . S
C262 O256 1.248 . S
C263 O253 1.260 . S
C263 O257 1.253 . S
C264 O255 1.279 . S
C264 O258 1.250 . S
O265 Mg247 2.030 . S
O265 C259 1.248 . S
O266 Mg249 2.079 . S
O266 C259 1.264 . S
O267 Mg268 1.990 . S
O267 C281 1.253 . S
Mg268 O267 1.990 . S
Mg268 O271 2.180 . S
Mg268 O272 2.117 . S
Mg268 O286 2.030 . S
O269 Mg270 2.072 . S
O269 C281 1.260 . S
Mg270 O269 2.072 . S
Mg270 O271 2.099 . S
Mg270 O273 2.079 . S
Mg270 O274 2.072 . S
Mg270 O276 2.099 . S
Mg270 O287 2.079 . S
O271 Mg268 2.180 . S
O271 Mg270 2.099 . S
O271 C282 1.279 . S
O272 Mg268 2.117 . S
O272 C282 1.250 . S
O273 Mg270 2.079 . S
O273 C283 1.264 . S
O274 Mg270 2.072 . S
O274 C284 1.260 . S
Mg275 O276 2.180 . S
Mg275 O277 2.030 . S
Mg275 O278 1.990 . S
Mg275 O279 2.117 . S
O276 Mg270 2.099 . S
O276 Mg275 2.180 . S
O276 C285 1.279 . S
O277 Mg275 2.030 . S
O277 C283 1.248 . S
O278 Mg275 1.990 . S
O278 C284 1.253 . S
O279 Mg275 2.117 . S
O279 C285 1.250 . S
C280 O286 1.248 . S
C280 O287 1.264 . S
C281 O267 1.253 . S
C281 O269 1.260 . S
C282 O271 1.279 . S
C282 O272 1.250 . S
C283 O273 1.264 . S
C283 O277 1.248 . S
C284 O274 1.260 . S
C284 O278 1.253 . S
C285 O276 1.279 . S
C285 O279 1.250 . S
O286 Mg268 2.030 . S
O286 C280 1.248 . S
O287 Mg270 2.079 . S
O287 C280 1.264 . S
O288 Mg289 1.990 . S
O288 C302 1.253 . S
Mg289 O288 1.990 . S
Mg289 O292 2.180 . S
Mg289 O293 2.117 . S
Mg289 O307 2.030 . S
O290 Mg291 2.072 . S
O290 C302 1.260 . S
Mg291 O290 2.072 . S
Mg291 O292 2.099 . S
Mg291 O294 2.079 . S
Mg291 O295 2.072 . S
Mg291 O297 2.099 . S
Mg291 O308 2.079 . S
O292 Mg289 2.180 . S
O292 Mg291 2.099 . S
O292 C303 1.279 . S
O293 Mg289 2.117 . S
O293 C303 1.250 . S
O294 Mg291 2.079 . S
O294 C304 1.264 . S
O295 Mg291 2.072 . S
O295 C305 1.260 . S
Mg296 O297 2.180 . S
Mg296 O298 2.030 . S
Mg296 O299 1.990 . S
Mg296 O300 2.117 . S
O297 Mg291 2.099 . S
O297 Mg296 2.180 . S
O297 C306 1.279 . S
O298 Mg296 2.030 . S
O298 C304 1.248 . S
O299 Mg296 1.990 . S
O299 C305 1.253 . S
O300 Mg296 2.117 . S
O300 C306 1.250 . S
C301 O307 1.248 . S
C301 O308 1.264 . S
C302 O288 1.253 . S
C302 O290 1.260 . S
C303 O292 1.279 . S
C303 O293 1.250 . S
C304 O294 1.264 . S
C304 O298 1.248 . S
C305 O295 1.260 . S
C305 O299 1.253 . S
C306 O297 1.279 . S
C306 O300 1.250 . S
O307 Mg289 2.030 . S
O307 C301 1.248 . S
O308 Mg291 2.079 . S
O308 C301 1.264 . S
O309 Mg310 1.990 . S
O309 C323 1.253 . S
Mg310 O309 1.990 . S
Mg310 O313 2.180 . S
Mg310 O314 2.117 . S
Mg310 O328 2.030 . S
O311 Mg312 2.072 . S
O311 C323 1.260 . S
Mg312 O311 2.072 . S
Mg312 O313 2.099 . S
Mg312 O315 2.079 . S
Mg312 O316 2.072 . S
Mg312 O318 2.099 . S
Mg312 O329 2.079 . S
O313 Mg310 2.180 . S
O313 Mg312 2.099 . S
O313 C324 1.279 . S
O314 Mg310 2.117 . S
O314 C324 1.250 . S
O315 Mg312 2.079 . S
O315 C325 1.264 . S
O316 Mg312 2.072 . S
O316 C326 1.260 . S
Mg317 O318 2.180 . S
Mg317 O319 2.030 . S
Mg317 O320 1.990 . S
Mg317 O321 2.117 . S
O318 Mg312 2.099 . S
O318 Mg317 2.180 . S
O318 C327 1.279 . S
O319 Mg317 2.030 . S
O319 C325 1.248 . S
O320 Mg317 1.990 . S
O320 C326 1.253 . S
O321 Mg317 2.117 . S
O321 C327 1.250 . S
C322 O328 1.248 . S
C322 O329 1.264 . S
C323 O309 1.253 . S
C323 O311 1.260 . S
C324 O313 1.279 . S
C324 O314 1.250 . S
C325 O315 1.264 . S
C325 O319 1.248 . S
C326 O316 1.260 . S
C326 O320 1.253 . S
C327 O318 1.279 . S
C327 O321 1.250 . S
O328 Mg310 2.030 . S
O328 C322 1.248 . S
O329 Mg312 2.079 . S
O329 C322 1.264 . S
O330 Mg331 1.990 . S
O330 C344 1.253 . S
Mg331 O330 1.990 . S
Mg331 O334 2.180 . S
Mg331 O335 2.117 . S
Mg331 O349 2.030 . S
O332 Mg333 2.072 . S
O332 C344 1.260 . S
Mg333 O332 2.072 . S
Mg333 O334 2.099 . S
Mg333 O336 2.079 . S
Mg333 O337 2.072 . S
Mg333 O339 2.099 . S
Mg333 O350 2.079 . S
O334 Mg331 2.180 . S
O334 Mg333 2.099 . S
O334 C345 1.279 . S
O335 Mg331 2.117 . S
O335 C345 1.250 . S
O336 Mg333 2.079 . S
O336 C346 1.264 . S
O337 Mg333 2.072 . S
O337 C347 1.260 . S
Mg338 O339 2.180 . S
Mg338 O340 2.030 . S
Mg338 O341 1.990 . S
Mg338 O342 2.117 . S
O339 Mg333 2.099 . S
O339 Mg338 2.180 . S
O339 C348 1.279 . S
O340 Mg338 2.030 . S
O340 C346 1.248 . S
O341 Mg338 1.990 . S
O341 C347 1.253 . S
O342 Mg338 2.117 . S
O342 C348 1.250 . S
C343 O349 1.248 . S
C343 O350 1.264 . S
C344 O330 1.253 . S
C344 O332 1.260 . S
C345 O334 1.279 . S
C345 O335 1.250 . S
C346 O336 1.264 . S
C346 O340 1.248 . S
C347 O337 1.260 . S
C347 O341 1.253 . S
C348 O339 1.279 . S
C348 O342 1.250 . S
O349 Mg331 2.030 . S
O349 C343 1.248 . S
O350 Mg333 2.079 . S
O350 C343 1.264 . S
C351 C352 1.369 . S
C351 C353 1.419 . S
C351 H355 0.930 . S
C352 C351 1.369 . S
C352 C361 1.429 . S
C353 C351 1.419 . S
C353 C354 1.363 . S
C353 H356 0.929 1_554 S
C354 C353 1.363 . S
C354 C360 1.428 . S
H355 C351 0.930 . S
H356 C353 0.929 1_556 S
S357 N358 1.613 . S
S357 N359 1.610 . S
N358 S357 1.613 . S
N358 C361 1.350 . S
N359 S357 1.610 . S
N359 C360 1.351 . S
C360 C354 1.428 . S
C360 N359 1.351 . S
C360 C361 1.434 . S
C361 C352 1.429 . S
C361 N358 1.350 . S
C361 C360 1.434 . S
C362 C363 1.369 . S
C362 C364 1.419 . S
C362 H366 0.930 . S
C363 C362 1.369 . S
C363 C372 1.429 . S
C364 C362 1.419 . S
C364 C365 1.363 . S
C364 H367 0.929 1_554 S
C365 C364 1.363 . S
C365 C371 1.428 . S
H366 C362 0.930 . S
H367 C364 0.929 1_556 S
S368 N369 1.613 . S
S368 N370 1.610 . S
N369 S368 1.613 . S
N369 C372 1.350 . S
N370 S368 1.610 . S
N370 C371 1.351 . S
C371 C365 1.428 . S
C371 N370 1.351 . S
C371 C372 1.434 . S
C372 C363 1.429 . S
C372 N369 1.350 . S
C372 C371 1.434 . S
C373 C374 1.369 . S
C373 C375 1.419 . S
C373 H377 0.930 1_554 S
C374 C373 1.369 . S
C374 C383 1.429 . S
C375 C373 1.419 . S
C375 C376 1.363 . S
C375 H378 0.929 1_554 S
C376 C375 1.363 . S
C376 C382 1.428 . S
H377 C373 0.930 1_556 S
H378 C375 0.929 1_556 S
S379 N380 1.613 . S
S379 N381 1.610 . S
N380 S379 1.613 . S
N380 C383 1.350 . S
N381 S379 1.610 . S
N381 C382 1.351 . S
C382 C376 1.428 . S
C382 N381 1.351 . S
C382 C383 1.434 . S
C383 C374 1.429 . S
C383 N380 1.350 . S
C383 C382 1.434 . S
C384 C385 1.369 . S
C384 C386 1.419 . S
C384 H388 0.936 . S
C385 C384 1.369 . S
C385 C394 1.429 . S
C386 C384 1.419 . S
C386 C387 1.363 . S
C386 H389 0.929 1_556 S
C387 C386 1.363 . S
C387 C393 1.428 . S
H388 C384 0.936 . S
H389 C386 0.929 1_554 S
S390 N391 1.613 . S
S390 N392 1.610 . S
N391 S390 1.613 . S
N391 C394 1.350 . S
N392 S390 1.610 . S
N392 C393 1.351 . S
C393 C387 1.428 . S
C393 N392 1.351 . S
C393 C394 1.434 . S
C394 C385 1.429 . S
C394 N391 1.350 . S
C394 C393 1.434 . S
C395 C396 1.369 . S
C395 C397 1.419 . S
C395 H399 0.930 . S
C396 C395 1.369 . S
C396 C405 1.429 . S
C397 C395 1.419 . S
C397 C398 1.363 . S
C397 H400 0.929 . S
C398 C397 1.363 . S
C398 C404 1.428 . S
H399 C395 0.930 . S
H400 C397 0.929 . S
S401 N402 1.613 . S
S401 N403 1.610 . S
N402 S401 1.613 . S
N402 C405 1.350 . S
N403 S401 1.610 . S
N403 C404 1.351 . S
C404 C398 1.428 . S
C404 N403 1.351 . S
C404 C405 1.434 . S
C405 C396 1.429 . S
C405 N402 1.350 . S
C405 C404 1.434 . S
C406 C407 1.369 . S
C406 C408 1.419 . S
C406 H410 0.930 . S
C407 C406 1.369 . S
C407 C416 1.429 . S
C408 C406 1.419 . S
C408 C409 1.363 . S
C408 H411 0.929 1_556 S
C409 C408 1.363 . S
C409 C415 1.428 . S
H410 C406 0.930 . S
H411 C408 0.929 1_554 S
S412 N413 1.613 . S
S412 N414 1.610 . S
N413 S412 1.613 . S
N413 C416 1.350 . S
N414 S412 1.610 . S
N414 C415 1.351 . S
C415 C409 1.428 . S
C415 N414 1.351 . S
C415 C416 1.434 . S
C416 C407 1.429 . S
C416 N413 1.350 . S
C416 C415 1.434 . S
C417 C418 1.369 . S
C417 C419 1.419 . S
C417 H421 0.930 . S
C418 C417 1.369 . S
C418 C427 1.408 1_556 S
C419 C417 1.419 . S
C419 C420 1.363 . S
C419 H422 0.929 . S
C420 C419 1.363 . S
C420 C426 1.428 1_556 S
H421 C417 0.930 . S
H422 C419 0.929 . S
S423 N424 1.613 . S
S423 N425 1.610 . S
N424 S423 1.613 . S
N424 C427 1.367 . S
N425 S423 1.610 . S
N425 C426 1.351 . S
C426 C420 1.428 1_554 S
C426 N425 1.351 . S
C426 C427 1.440 . S
C427 C418 1.408 1_554 S
C427 N424 1.367 . S
C427 C426 1.440 . S
C428 C429 1.341 1_554 S
C428 C430 1.426 . S
C428 H432 0.952 . S
C429 C428 1.341 1_556 S
C429 C438 1.429 . S
C430 C428 1.426 . S
C430 C431 1.363 1_554 S
C430 H433 0.929 . S
C431 C430 1.363 1_556 S
C431 C437 1.428 . S
H432 C428 0.952 . S
H433 C430 0.929 . S
S434 N435 1.613 . S
S434 N436 1.610 . S
N435 S434 1.613 . S
N435 C438 1.350 . S
N436 S434 1.610 . S
N436 C437 1.351 . S
C437 C431 1.428 . S
C437 N436 1.351 . S
C437 C438 1.434 . S
C438 C429 1.429 . S
C438 N435 1.350 . S
C438 C437 1.434 . S
C439 C440 1.369 . S
C439 C441 1.419 . S
C439 H443 0.930 . S
C440 C439 1.369 . S
C440 C449 1.429 1_556 S
C441 C439 1.419 . S
C441 C442 1.363 . S
C441 H444 0.929 . S
C442 C441 1.363 . S
C442 C448 1.428 1_556 S
H443 C439 0.930 . S
H444 C441 0.929 . S
S445 N446 1.613 . S
S445 N447 1.610 . S
N446 S445 1.613 . S
N446 C449 1.350 . S
N447 S445 1.610 . S
N447 C448 1.351 . S
C448 C442 1.428 1_554 S
C448 N447 1.351 . S
C448 C449 1.434 . S
C449 C440 1.429 1_554 S
C449 N446 1.350 . S
C449 C448 1.434 . S
C450 C451 1.369 . S
C450 C452 1.419 . S
C450 H454 0.930 . S
C451 C450 1.369 . S
C451 C460 1.429 . S
C452 C450 1.419 . S
C452 C453 1.363 . S
C452 H455 0.929 . S
C453 C452 1.363 . S
C453 C459 1.428 . S
H454 C450 0.930 . S
H455 C452 0.929 . S
S456 N457 1.613 . S
S456 N458 1.610 . S
N457 S456 1.613 . S
N457 C460 1.350 . S
N458 S456 1.610 . S
N458 C459 1.351 . S
C459 C453 1.428 . S
C459 N458 1.351 . S
C459 C460 1.434 . S
C460 C451 1.429 . S
C460 N457 1.350 . S
C460 C459 1.434 . S
C461 C462 1.369 . S
C461 C463 1.419 . S
C461 H465 0.930 . S
C462 C461 1.369 . S
C462 C471 1.429 . S
C463 C461 1.419 . S
C463 C464 1.363 . S
C463 H466 0.929 . S
C464 C463 1.363 . S
C464 C470 1.428 . S
H465 C461 0.930 . S
H466 C463 0.929 . S
S467 N468 1.613 . S
S467 N469 1.610 . S
N468 S467 1.613 . S
N468 C471 1.350 . S
N469 S467 1.610 . S
N469 C470 1.351 . S
C470 C464 1.428 . S
C470 N469 1.351 . S
C470 C471 1.434 . S
C471 C462 1.429 . S
C471 N468 1.350 . S
C471 C470 1.434 . S
C472 C473 1.369 . S
C472 C474 1.419 1_554 S
C472 H476 0.930 1_554 S
C473 C472 1.369 . S
C473 C482 1.429 . S
C474 C472 1.419 1_556 S
C474 C475 1.363 1_556 S
C474 H477 0.929 . S
C475 C474 1.363 1_554 S
C475 C481 1.428 . S
H476 C472 0.930 1_556 S
H477 C474 0.929 . S
S478 N479 1.613 . S
S478 N480 1.610 . S
N479 S478 1.613 . S
N479 C482 1.350 . S
N480 S478 1.610 . S
N480 C481 1.351 . S
C481 C475 1.428 . S
C481 N480 1.351 . S
C481 C482 1.434 . S
C482 C473 1.429 . S
C482 N479 1.350 . S
C482 C481 1.434 . S
C483 C484 1.369 . S
C483 C485 1.419 1_655 S
C483 H487 0.930 . S
C484 C483 1.369 . S
C484 C493 1.429 . S
C485 C483 1.419 1_455 S
C485 C486 1.363 . S
C485 H488 0.929 . S
C486 C485 1.363 . S
C486 C492 1.428 . S
H487 C483 0.930 . S
H488 C485 0.929 . S
S489 N490 1.613 1_455 S
S489 N491 1.610 . S
N490 S489 1.613 1_655 S
N490 C493 1.350 . S
N491 S489 1.610 . S
N491 C492 1.351 . S
C492 C486 1.428 . S
C492 N491 1.351 . S
C492 C493 1.434 1_455 S
C493 C484 1.429 . S
C493 N490 1.350 . S
C493 C492 1.434 1_655 S
C494 C495 1.369 . S
C494 C496 1.419 . S
C494 H498 0.930 . S
C495 C494 1.369 . S
C495 C504 1.429 . S
C496 C494 1.419 . S
C496 C497 1.363 . S
C496 H499 0.929 . S
C497 C496 1.363 . S
C497 C503 1.428 . S
H498 C494 0.930 . S
H499 C496 0.929 . S
S500 N501 1.613 . S
S500 N502 1.610 . S
N501 S500 1.613 . S
N501 C504 1.350 . S
N502 S500 1.610 . S
N502 C503 1.351 . S
C503 C497 1.428 . S
C503 N502 1.351 . S
C503 C504 1.434 . S
C504 C495 1.429 . S
C504 N501 1.350 . S
C504 C503 1.434 . S
C505 C506 1.369 . S
C505 C507 1.419 1_545 S
C505 H509 0.930 . S
C506 C505 1.369 . S
C506 C515 1.429 . S
C507 C505 1.419 1_565 S
C507 C508 1.363 . S
C507 H510 0.929 . S
C508 C507 1.363 . S
C508 C514 1.428 . S
H509 C505 0.930 . S
H510 C507 0.929 . S
S511 N512 1.613 . S
S511 N513 1.610 1_545 S
N512 S511 1.613 . S
N512 C515 1.350 . S
N513 S511 1.610 1_565 S
N513 C514 1.351 . S
C514 C508 1.428 . S
C514 N513 1.351 . S
C514 C515 1.434 1_565 S
C515 C506 1.429 . S
C515 N512 1.350 . S
C515 C514 1.434 1_545 S
C516 C517 1.369 . S
C516 C518 1.419 . S
C516 H520 0.930 . S
C517 C516 1.369 . S
C517 C526 1.429 . S
C518 C516 1.419 . S
C518 C519 1.363 . S
C518 H521 0.929 . S
C519 C518 1.363 . S
C519 C525 1.428 . S
H520 C516 0.930 . S
H521 C518 0.929 . S
S522 N523 1.613 . S
S522 N524 1.610 . S
N523 S522 1.613 . S
N523 C526 1.350 . S
N524 S522 1.610 . S
N524 C525 1.351 . S
C525 C519 1.428 . S
C525 N524 1.351 . S
C525 C526 1.434 . S
C526 C517 1.429 . S
C526 N523 1.350 . S
C526 C525 1.434 . S
C527 C528 1.369 . S
C527 C529 1.419 . S
C527 H531 0.930 . S
C528 C527 1.369 . S
C528 C537 1.429 . S
C529 C527 1.419 . S
C529 C530 1.363 . S
C529 H532 0.929 . S
C530 C529 1.363 . S
C530 C536 1.428 . S
H531 C527 0.930 . S
H532 C529 0.929 . S
S533 N534 1.613 . S
S533 N535 1.610 . S
N534 S533 1.613 . S
N534 C537 1.350 . S
N535 S533 1.610 . S
N535 C536 1.351 . S
C536 C530 1.428 . S
C536 N535 1.351 . S
C536 C537 1.434 . S
C537 C528 1.429 . S
C537 N534 1.350 . S
C537 C536 1.434 . S
C538 C539 1.369 . S
C538 C540 1.419 . S
C538 H542 0.930 . S
C539 C538 1.369 . S
C539 C548 1.429 . S
C540 C538 1.419 . S
C540 C541 1.363 . S
C540 H543 0.929 . S
C541 C540 1.363 . S
C541 C547 1.428 . S
H542 C538 0.930 . S
H543 C540 0.929 . S
S544 N545 1.613 . S
S544 N546 1.610 . S
N545 S544 1.613 . S
N545 C548 1.350 . S
N546 S544 1.610 . S
N546 C547 1.351 . S
C547 C541 1.428 . S
C547 N546 1.351 . S
C547 C548 1.434 . S
C548 C539 1.429 . S
C548 N545 1.350 . S
C548 C547 1.434 . S
C549 C550 1.369 . S
C549 C551 1.419 . S
C549 H553 0.930 . S
C550 C549 1.369 . S
C550 C559 1.429 . S
C551 C549 1.419 . S
C551 C552 1.363 . S
C551 H554 0.929 . S
C552 C551 1.363 . S
C552 C558 1.428 . S
H553 C549 0.930 . S
H554 C551 0.929 . S
S555 N556 1.613 . S
S555 N557 1.610 . S
N556 S555 1.613 . S
N556 C559 1.350 . S
N557 S555 1.610 . S
N557 C558 1.351 . S
C558 C552 1.428 . S
C558 N557 1.351 . S
C558 C559 1.434 . S
C559 C550 1.429 . S
C559 N556 1.350 . S
C559 C558 1.434 . S
C560 C561 1.369 . S
C560 C562 1.419 . S
C560 H564 0.930 . S
C561 C560 1.369 . S
C561 C570 1.429 . S
C562 C560 1.419 . S
C562 C563 1.363 . S
C562 H565 0.929 . S
C563 C562 1.363 . S
C563 C569 1.428 . S
H564 C560 0.930 . S
H565 C562 0.929 . S
S566 N567 1.613 . S
S566 N568 1.610 . S
N567 S566 1.613 . S
N567 C570 1.350 . S
N568 S566 1.610 . S
N568 C569 1.351 . S
C569 C563 1.428 . S
C569 N568 1.351 . S
C569 C570 1.434 . S
C570 C561 1.429 . S
C570 N567 1.350 . S
C570 C569 1.434 . S
C571 C572 1.369 . S
C571 C573 1.419 . S
C571 H575 0.930 . S
C572 C571 1.369 . S
C572 C581 1.429 . S
C573 C571 1.419 . S
C573 C574 1.363 . S
C573 H576 0.929 . S
C574 C573 1.363 . S
C574 C580 1.428 . S
H575 C571 0.930 . S
H576 C573 0.929 . S
S577 N578 1.613 . S
S577 N579 1.610 . S
N578 S577 1.613 . S
N578 C581 1.350 . S
N579 S577 1.610 . S
N579 C580 1.351 . S
C580 C574 1.428 . S
C580 N579 1.351 . S
C580 C581 1.434 . S
C581 C572 1.429 . S
C581 N578 1.350 . S
C581 C580 1.434 . S
C582 C583 1.369 . S
C582 C584 1.419 1_545 S
C582 H586 0.930 . S
C583 C582 1.369 . S
C583 C592 1.429 . S
C584 C582 1.419 1_565 S
C584 C585 1.363 . S
C584 H587 0.929 . S
C585 C584 1.363 . S
C585 C591 1.428 . S
H586 C582 0.930 . S
H587 C584 0.929 . S
S588 N589 1.613 1_565 S
S588 N590 1.610 . S
N589 S588 1.613 1_545 S
N589 C592 1.350 . S
N590 S588 1.610 . S
N590 C591 1.351 . S
C591 C585 1.428 . S
C591 N590 1.351 . S
C591 C592 1.434 1_565 S
C592 C583 1.429 . S
C592 N589 1.350 . S
C592 C591 1.434 1_545 S
C593 C594 1.369 . S
C593 C595 1.419 1_655 S
C593 H597 0.930 . S
C594 C593 1.369 . S
C594 C603 1.429 . S
C595 C593 1.419 1_455 S
C595 C596 1.363 . S
C595 H598 0.929 . S
C596 C595 1.363 . S
C596 C602 1.428 . S
H597 C593 0.930 . S
H598 C595 0.929 . S
S599 N600 1.613 1_455 S
S599 N601 1.610 . S
N600 S599 1.613 1_655 S
N600 C603 1.350 . S
N601 S599 1.610 . S
N601 C602 1.351 . S
C602 C596 1.428 . S
C602 N601 1.351 . S
C602 C603 1.434 1_455 S
C603 C594 1.429 . S
C603 N600 1.350 . S
C603 C602 1.434 1_655 S
C604 C605 1.369 . S
C604 C606 1.419 . S
C604 H608 0.930 . S
C605 C604 1.369 . S
C605 C614 1.429 . S
C606 C604 1.419 . S
C606 C607 1.363 . S
C606 H609 0.929 . S
C607 C606 1.363 . S
C607 C613 1.428 . S
H608 C604 0.930 . S
H609 C606 0.929 . S
S610 N611 1.613 . S
S610 N612 1.610 . S
N611 S610 1.613 . S
N611 C614 1.350 . S
N612 S610 1.610 . S
N612 C613 1.351 . S
C613 C607 1.428 . S
C613 N612 1.351 . S
C613 C614 1.434 . S
C614 C605 1.429 . S
C614 N611 1.350 . S
C614 C613 1.434 . S
C615 C616 1.369 . S
C615 C617 1.419 . S
C615 H619 0.930 . S
C616 C615 1.369 . S
C616 C625 1.429 . S
C617 C615 1.419 . S
C617 C618 1.363 . S
C617 H620 0.929 . S
C618 C617 1.363 . S
C618 C624 1.428 . S
H619 C615 0.930 . S
H620 C617 0.929 . S
S621 N622 1.613 . S
S621 N623 1.610 . S
N622 S621 1.613 . S
N622 C625 1.350 . S
N623 S621 1.610 . S
N623 C624 1.351 . S
C624 C618 1.428 . S
C624 N623 1.351 . S
C624 C625 1.434 . S
C625 C616 1.429 . S
C625 N622 1.350 . S
C625 C624 1.434 . S
C626 C627 1.369 . S
C626 C628 1.419 . S
C626 H630 0.930 . S
C627 C626 1.369 . S
C627 C636 1.429 . S
C628 C626 1.419 . S
C628 C629 1.363 . S
C628 H631 0.929 . S
C629 C628 1.363 . S
C629 C635 1.428 . S
H630 C626 0.930 . S
H631 C628 0.929 . S
S632 N633 1.613 . S
S632 N634 1.610 . S
N633 S632 1.613 . S
N633 C636 1.350 . S
N634 S632 1.610 . S
N634 C635 1.351 . S
C635 C629 1.428 . S
C635 N634 1.351 . S
C635 C636 1.434 . S
C636 C627 1.429 . S
C636 N633 1.350 . S
C636 C635 1.434 . S
C637 C638 1.369 . S
C637 C639 1.419 . S
C637 H641 0.930 . S
C638 C637 1.369 . S
C638 C647 1.429 . S
C639 C637 1.419 . S
C639 C640 1.363 . S
C639 H642 0.929 . S
C640 C639 1.363 . S
C640 C646 1.428 . S
H641 C637 0.930 . S
H642 C639 0.929 . S
S643 N644 1.613 . S
S643 N645 1.610 . S
N644 S643 1.613 . S
N644 C647 1.350 . S
N645 S643 1.610 . S
N645 C646 1.351 . S
C646 C640 1.428 . S
C646 N645 1.351 . S
C646 C647 1.434 . S
C647 C638 1.429 . S
C647 N644 1.350 . S
C647 C646 1.434 . S
C648 C649 1.369 . S
C648 C650 1.419 1_565 S
C648 H652 0.930 . S
C649 C648 1.369 . S
C649 C658 1.429 . S
C650 C648 1.419 1_545 S
C650 C651 1.363 . S
C650 H653 0.929 . S
C651 C650 1.363 . S
C651 C657 1.428 . S
H652 C648 0.930 . S
H653 C650 0.929 . S
S654 N655 1.613 1_545 S
S654 N656 1.610 . S
N655 S654 1.613 1_565 S
N655 C658 1.350 . S
N656 S654 1.610 . S
N656 C657 1.351 . S
C657 C651 1.428 . S
C657 N656 1.351 . S
C657 C658 1.434 1_545 S
C658 C649 1.429 . S
C658 N655 1.350 . S
C658 C657 1.434 1_565 S
C659 C660 1.369 . S
C659 C661 1.419 1_455 S
C659 H663 0.930 . S
C660 C659 1.369 . S
C660 C669 1.429 . S
C661 C659 1.419 1_655 S
C661 C662 1.363 . S
C661 H664 0.929 . S
C662 C661 1.363 . S
C662 C668 1.428 . S
H663 C659 0.930 . S
H664 C661 0.929 . S
S665 N666 1.613 1_655 S
S665 N667 1.610 . S
N666 S665 1.613 1_455 S
N666 C669 1.350 . S
N667 S665 1.610 . S
N667 C668 1.351 . S
C668 C662 1.428 . S
C668 N667 1.351 . S
C668 C669 1.434 1_655 S
C669 C660 1.429 . S
C669 N666 1.350 . S
C669 C668 1.434 1_455 S
C670 C671 1.369 . S
C670 C672 1.419 . S
C670 H674 0.930 . S
C671 C670 1.369 . S
C671 C680 1.429 . S
C672 C670 1.419 . S
C672 C673 1.363 . S
C672 H675 0.929 . S
C673 C672 1.363 . S
C673 C679 1.428 . S
H674 C670 0.930 . S
H675 C672 0.929 . S
S676 N677 1.613 . S
S676 N678 1.610 . S
N677 S676 1.613 . S
N677 C680 1.350 . S
N678 S676 1.610 . S
N678 C679 1.351 . S
C679 C673 1.428 . S
C679 N678 1.351 . S
C679 C680 1.434 . S
C680 C671 1.429 . S
C680 N677 1.350 . S
C680 C679 1.434 . S
C681 C682 1.369 . S
C681 C683 1.419 . S
C681 H685 0.930 . S
C682 C681 1.369 . S
C682 C691 1.429 . S
C683 C681 1.419 . S
C683 C684 1.363 1_455 S
C683 H686 0.929 1_455 S
C684 C683 1.363 1_655 S
C684 C690 1.428 . S
H685 C681 0.930 . S
H686 C683 0.929 1_655 S
S687 N688 1.613 1_655 S
S687 N689 1.610 . S
N688 S687 1.613 1_455 S
N688 C691 1.350 . S
N689 S687 1.610 . S
N689 C690 1.351 . S
C690 C684 1.428 . S
C690 N689 1.351 . S
C690 C691 1.434 1_655 S
C691 C682 1.429 . S
C691 N688 1.350 . S
C691 C690 1.434 1_455 S
C692 C693 1.369 . S
C692 C694 1.419 . S
C692 H696 0.930 . S
C693 C692 1.369 . S
C693 C702 1.429 . S
C694 C692 1.419 . S
C694 C695 1.363 . S
C694 H697 0.929 . S
C695 C694 1.363 . S
C695 C701 1.428 . S
H696 C692 0.930 . S
H697 C694 0.929 . S
S698 N699 1.613 . S
S698 N700 1.610 . S
N699 S698 1.613 . S
N699 C702 1.350 . S
N700 S698 1.610 . S
N700 C701 1.351 . S
C701 C695 1.428 . S
C701 N700 1.351 . S
C701 C702 1.434 . S
C702 C693 1.429 . S
C702 N699 1.350 . S
C702 C701 1.434 . S
C703 C704 1.369 . S
C703 C705 1.419 1_565 S
C703 H707 0.930 . S
C704 C703 1.369 . S
C704 C713 1.429 . S
C705 C703 1.419 1_545 S
C705 C706 1.363 . S
C705 H708 0.929 . S
C706 C705 1.363 . S
C706 C712 1.428 . S
H707 C703 0.930 . S
H708 C705 0.929 . S
S709 N710 1.613 1_545 S
S709 N711 1.610 . S
N710 S709 1.613 1_565 S
N710 C713 1.350 . S
N711 S709 1.610 . S
N711 C712 1.351 . S
C712 C706 1.428 . S
C712 N711 1.351 . S
C712 C713 1.434 1_545 S
C713 C704 1.429 . S
C713 N710 1.350 . S
C713 C712 1.434 1_565 S
C714 C715 1.369 . S
C714 C716 1.419 . S
C714 H718 0.930 . S
C715 C714 1.369 . S
C715 C724 1.429 . S
C716 C714 1.419 . S
C716 C717 1.363 . S
C716 H719 0.929 . S
C717 C716 1.363 . S
C717 C723 1.428 . S
H718 C714 0.930 . S
H719 C716 0.929 . S
S720 N721 1.613 . S
S720 N722 1.610 . S
N721 S720 1.613 . S
N721 C724 1.350 . S
N722 S720 1.610 . S
N722 C723 1.351 . S
C723 C717 1.428 . S
C723 N722 1.351 . S
C723 C724 1.434 . S
C724 C715 1.429 . S
C724 N721 1.350 . S
C724 C723 1.434 . S
C725 C726 1.369 . S
C725 C727 1.419 . S
C725 H729 0.930 . S
C726 C725 1.369 . S
C726 C735 1.429 . S
C727 C725 1.419 . S
C727 C728 1.363 . S
C727 H730 0.929 . S
C728 C727 1.363 . S
C728 C734 1.428 . S
H729 C725 0.930 . S
H730 C727 0.929 . S
S731 N732 1.613 . S
S731 N733 1.610 . S
N732 S731 1.613 . S
N732 C735 1.350 . S
N733 S731 1.610 . S
N733 C734 1.351 . S
C734 C728 1.428 . S
C734 N733 1.351 . S
C734 C735 1.434 . S
C735 C726 1.429 . S
C735 N732 1.350 . S
C735 C734 1.434 . S
C736 C737 1.369 . S
C736 C738 1.419 . S
C736 H740 0.930 . S
C737 C736 1.369 . S
C737 C746 1.429 . S
C738 C736 1.419 . S
C738 C739 1.363 . S
C738 H741 0.929 . S
C739 C738 1.363 . S
C739 C745 1.428 . S
H740 C736 0.930 . S
H741 C738 0.929 . S
S742 N743 1.613 . S
S742 N744 1.610 . S
N743 S742 1.613 . S
N743 C746 1.350 . S
N744 S742 1.610 . S
N744 C745 1.351 . S
C745 C739 1.428 . S
C745 N744 1.351 . S
C745 C746 1.434 . S
C746 C737 1.429 . S
C746 N743 1.350 . S
C746 C745 1.434 . S
C747 C748 1.369 . S
C747 C749 1.419 . S
C747 H751 0.930 . S
C748 C747 1.369 . S
C748 C757 1.429 1_565 S
C749 C747 1.419 . S
C749 C750 1.363 . S
C749 H752 0.929 . S
C750 C749 1.363 . S
C750 C756 1.428 1_565 S
H751 C747 0.930 . S
H752 C749 0.929 . S
S753 N754 1.613 . S
S753 N755 1.610 . S
N754 S753 1.613 . S
N754 C757 1.350 . S
N755 S753 1.610 . S
N755 C756 1.351 . S
C756 C750 1.428 1_545 S
C756 N755 1.351 . S
C756 C757 1.434 . S
C757 C748 1.429 1_545 S
C757 N754 1.350 . S
C757 C756 1.434 . S
C758 C759 1.369 . S
C758 C760 1.419 . S
C758 H762 0.930 . S
C759 C758 1.369 . S
C759 C768 1.429 . S
C760 C758 1.419 . S
C760 C761 1.363 . S
C760 H763 0.929 1_455 S
C761 C760 1.363 . S
C761 C767 1.428 . S
H762 C758 0.930 . S
H763 C760 0.929 1_655 S
S764 N765 1.613 . S
S764 N766 1.610 . S
N765 S764 1.613 . S
N765 C768 1.350 . S
N766 S764 1.610 . S
N766 C767 1.351 . S
C767 C761 1.428 . S
C767 N766 1.351 . S
C767 C768 1.434 . S
C768 C759 1.429 . S
C768 N765 1.350 . S
C768 C767 1.434 . S
C769 C770 1.369 . S
C769 C771 1.419 . S
C769 H773 0.930 . S
C770 C769 1.369 . S
C770 C779 1.429 . S
C771 C769 1.419 . S
C771 C772 1.363 . S
C771 H774 0.929 . S
C772 C771 1.363 . S
C772 C778 1.428 . S
H773 C769 0.930 . S
H774 C771 0.929 . S
S775 N776 1.613 . S
S775 N777 1.610 . S
N776 S775 1.613 . S
N776 C779 1.350 . S
N777 S775 1.610 . S
N777 C778 1.351 . S
C778 C772 1.428 . S
C778 N777 1.351 . S
C778 C779 1.434 . S
C779 C770 1.429 . S
C779 N776 1.350 . S
C779 C778 1.434 . S
C780 C781 1.369 1_455 S
C780 C782 1.419 . S
C780 H784 0.930 . S
C781 C780 1.369 1_655 S
C781 C790 1.429 . S
C782 C780 1.419 . S
C782 C783 1.363 1_455 S
C782 H785 0.929 . S
C783 C782 1.363 1_655 S
C783 C789 1.428 . S
H784 C780 0.930 . S
H785 C782 0.929 . S
S786 N787 1.613 . S
S786 N788 1.610 . S
N787 S786 1.613 . S
N787 C790 1.350 . S
N788 S786 1.610 . S
N788 C789 1.351 . S
C789 C783 1.428 . S
C789 N788 1.351 . S
C789 C790 1.434 . S
C790 C781 1.429 . S
C790 N787 1.350 . S
C790 C789 1.434 . S
C791 C792 1.369 . S
C791 C793 1.419 . S
C791 H795 0.930 . S
C792 C791 1.369 . S
C792 C801 1.429 . S
C793 C791 1.419 . S
C793 C794 1.363 . S
C793 H796 0.929 . S
C794 C793 1.363 . S
C794 C800 1.428 . S
H795 C791 0.930 . S
H796 C793 0.929 . S
S797 N798 1.613 . S
S797 N799 1.610 . S
N798 S797 1.613 . S
N798 C801 1.350 . S
N799 S797 1.610 . S
N799 C800 1.351 . S
C800 C794 1.428 . S
C800 N799 1.351 . S
C800 C801 1.434 . S
C801 C792 1.429 . S
C801 N798 1.350 . S
C801 C800 1.434 . S
C802 C803 1.369 . S
C802 C804 1.419 . S
C802 H806 0.930 . S
C803 C802 1.369 . S
C803 C812 1.429 . S
C804 C802 1.419 . S
C804 C805 1.363 . S
C804 H807 0.929 . S
C805 C804 1.363 . S
C805 C811 1.427 . S
H806 C802 0.930 . S
H807 C804 0.929 . S
S808 N809 1.613 . S
S808 N810 1.610 . S
N809 S808 1.613 . S
N809 C812 1.350 1_565 S
N810 S808 1.610 . S
N810 C811 1.352 1_565 S
C811 C805 1.427 . S
C811 N810 1.352 1_545 S
C811 C812 1.434 . S
C812 C803 1.429 . S
C812 N809 1.350 1_545 S
C812 C811 1.434 . S
C813 C814 1.369 . S
C813 C815 1.419 . S
C813 H817 0.930 . S
C814 C813 1.369 . S
C814 C823 1.429 . S
C815 C813 1.419 . S
C815 C816 1.363 . S
C815 H818 0.929 . S
C816 C815 1.363 . S
C816 C822 1.428 . S
H817 C813 0.930 . S
H818 C815 0.929 . S
S819 N820 1.613 . S
S819 N821 1.610 . S
N820 S819 1.613 . S
N820 C823 1.350 . S
N821 S819 1.610 . S
N821 C822 1.351 . S
C822 C816 1.428 . S
C822 N821 1.351 . S
C822 C823 1.434 . S
C823 C814 1.429 . S
C823 N820 1.350 . S
C823 C822 1.434 . S
C824 C825 1.369 . S
C824 C826 1.419 . S
C824 H828 0.930 . S
C825 C824 1.369 . S
C825 C834 1.429 . S
C826 C824 1.419 . S
C826 C827 1.363 . S
C826 H829 0.929 . S
C827 C826 1.363 . S
C827 C833 1.428 . S
H828 C824 0.930 . S
H829 C826 0.929 . S
S830 N831 1.613 . S
S830 N832 1.610 . S
N831 S830 1.613 . S
N831 C834 1.350 . S
N832 S830 1.610 . S
N832 C833 1.351 . S
C833 C827 1.428 . S
C833 N832 1.351 . S
C833 C834 1.434 . S
C834 C825 1.429 . S
C834 N831 1.350 . S
C834 C833 1.434 . S
C835 C836 1.369 . S
C835 C837 1.419 . S
C835 H839 0.930 . S
C836 C835 1.369 . S
C836 C845 1.429 . S
C837 C835 1.419 . S
C837 C838 1.363 . S
C837 H840 0.929 . S
C838 C837 1.363 . S
C838 C844 1.428 . S
H839 C835 0.930 . S
H840 C837 0.929 . S
S841 N842 1.613 . S
S841 N843 1.610 . S
N842 S841 1.613 . S
N842 C845 1.350 . S
N843 S841 1.610 . S
N843 C844 1.351 . S
C844 C838 1.428 . S
C844 N843 1.351 . S
C844 C845 1.434 . S
C845 C836 1.429 . S
C845 N842 1.350 . S
C845 C844 1.434 . S
C846 C847 1.369 . S
C846 C848 1.419 . S
C846 H850 0.930 . S
C847 C846 1.369 . S
C847 C856 1.429 . S
C848 C846 1.419 . S
C848 C849 1.363 . S
C848 H851 0.929 . S
C849 C848 1.363 . S
C849 C855 1.428 . S
H850 C846 0.930 . S
H851 C848 0.929 . S
S852 N853 1.613 . S
S852 N854 1.610 . S
N853 S852 1.613 . S
N853 C856 1.350 . S
N854 S852 1.610 . S
N854 C855 1.351 . S
C855 C849 1.428 . S
C855 N854 1.351 . S
C855 C856 1.434 . S
C856 C847 1.429 . S
C856 N853 1.350 . S
C856 C855 1.434 . S
C857 C858 1.369 . S
C857 C859 1.419 . S
C857 H861 0.930 . S
C858 C857 1.369 . S
C858 C867 1.429 . S
C859 C857 1.419 . S
C859 C860 1.363 . S
C859 H862 0.929 . S
C860 C859 1.363 . S
C860 C866 1.428 . S
H861 C857 0.930 . S
H862 C859 0.929 . S
S863 N864 1.613 . S
S863 N865 1.610 . S
N864 S863 1.613 . S
N864 C867 1.350 . S
N865 S863 1.610 . S
N865 C866 1.351 . S
C866 C860 1.428 . S
C866 N865 1.351 . S
C866 C867 1.434 . S
C867 C858 1.429 . S
C867 N864 1.350 . S
C867 C866 1.434 . S
C868 C869 1.369 . S
C868 C870 1.419 . S
C868 H872 0.930 . S
C869 C868 1.369 . S
C869 C878 1.429 . S
C870 C868 1.419 . S
C870 C871 1.363 . S
C870 H873 0.929 . S
C871 C870 1.363 . S
C871 C877 1.428 . S
H872 C868 0.930 . S
H873 C870 0.929 . S
S874 N875 1.613 . S
S874 N876 1.610 . S
N875 S874 1.613 . S
N875 C878 1.350 . S
N876 S874 1.610 . S
N876 C877 1.351 . S
C877 C871 1.428 . S
C877 N876 1.351 . S
C877 C878 1.434 . S
C878 C869 1.429 . S
C878 N875 1.350 . S
C878 C877 1.434 . S
C879 C880 1.369 . S
C879 C881 1.419 . S
C879 H883 0.930 . S
C880 C879 1.369 . S
C880 C889 1.429 . S
C881 C879 1.419 . S
C881 C882 1.363 . S
C881 H884 0.929 . S
C882 C881 1.363 . S
C882 C888 1.428 . S
H883 C879 0.930 . S
H884 C881 0.929 . S
S885 N886 1.613 . S
S885 N887 1.610 . S
N886 S885 1.613 . S
N886 C889 1.350 . S
N887 S885 1.610 . S
N887 C888 1.351 . S
C888 C882 1.428 . S
C888 N887 1.351 . S
C888 C889 1.434 . S
C889 C880 1.429 . S
C889 N886 1.350 . S
C889 C888 1.434 . S
C890 C891 1.369 . S
C890 C892 1.419 . S
C890 H894 0.930 . S
C891 C890 1.369 . S
C891 C900 1.429 . S
C892 C890 1.419 . S
C892 C893 1.363 . S
C892 H895 0.929 . S
C893 C892 1.363 . S
C893 C899 1.428 . S
H894 C890 0.930 . S
H895 C892 0.929 . S
S896 N897 1.613 . S
S896 N898 1.610 . S
N897 S896 1.613 . S
N897 C900 1.350 . S
N898 S896 1.610 . S
N898 C899 1.351 . S
C899 C893 1.428 . S
C899 N898 1.351 . S
C899 C900 1.434 . S
C900 C891 1.429 . S
C900 N897 1.350 . S
C900 C899 1.434 . S
C901 C902 1.369 . S
C901 C903 1.419 . S
C901 H905 0.930 . S
C902 C901 1.369 . S
C902 C911 1.429 . S
C903 C901 1.419 . S
C903 C904 1.363 . S
C903 H906 0.929 . S
C904 C903 1.363 . S
C904 C910 1.428 . S
H905 C901 0.930 . S
H906 C903 0.929 . S
S907 N908 1.613 . S
S907 N909 1.610 . S
N908 S907 1.613 . S
N908 C911 1.350 . S
N909 S907 1.610 . S
N909 C910 1.351 . S
C910 C904 1.428 . S
C910 N909 1.351 . S
C910 C911 1.434 . S
C911 C902 1.429 . S
C911 N908 1.350 . S
C911 C910 1.434 . S
C912 C913 1.369 . S
C912 C914 1.419 . S
C912 H916 0.930 . S
C913 C912 1.369 . S
C913 C922 1.429 . S
C914 C912 1.419 . S
C914 C915 1.363 . S
C914 H917 0.929 . S
C915 C914 1.363 . S
C915 C921 1.428 . S
H916 C912 0.930 . S
H917 C914 0.929 . S
S918 N919 1.613 . S
S918 N920 1.610 . S
N919 S918 1.613 . S
N919 C922 1.350 . S
N920 S918 1.610 . S
N920 C921 1.351 . S
C921 C915 1.428 . S
C921 N920 1.351 . S
C921 C922 1.434 . S
C922 C913 1.429 . S
C922 N919 1.350 . S
C922 C921 1.434 . S
C923 C924 1.369 . S
C923 C925 1.419 . S
C923 H927 0.930 . S
C924 C923 1.369 . S
C924 C933 1.429 . S
C925 C923 1.419 . S
C925 C926 1.363 . S
C925 H928 0.929 . S
C926 C925 1.363 . S
C926 C932 1.428 . S
H927 C923 0.930 . S
H928 C925 0.929 . S
S929 N930 1.613 . S
S929 N931 1.610 . S
N930 S929 1.613 . S
N930 C933 1.350 . S
N931 S929 1.610 . S
N931 C932 1.351 . S
C932 C926 1.428 . S
C932 N931 1.351 . S
C932 C933 1.434 . S
C933 C924 1.429 . S
C933 N930 1.350 . S
C933 C932 1.434 . S
C934 C935 1.369 . S
C934 C936 1.419 . S
C934 H938 0.930 . S
C935 C934 1.369 . S
C935 C944 1.429 . S
C936 C934 1.419 . S
C936 C937 1.363 . S
C936 H939 0.929 . S
C937 C936 1.363 . S
C937 C943 1.428 . S
H938 C934 0.930 . S
H939 C936 0.929 . S
S940 N941 1.613 . S
S940 N942 1.610 . S
N941 S940 1.613 . S
N941 C944 1.350 . S
N942 S940 1.610 . S
N942 C943 1.351 . S
C943 C937 1.428 . S
C943 N942 1.351 . S
C943 C944 1.434 . S
C944 C935 1.429 . S
C944 N941 1.350 . S
C944 C943 1.434 . S
C352 C124 1.438 . S
C354 C179 1.346 . S
C363 C130 1.461 . S
C365 C200 1.350 . S
C374 C115 1.394 . S
C376 C222 1.198 . S
C385 C106 1.402 . S
C387 C201 1.204 . S
C398 C221 1.353 . S
C396 C85 1.468 . S
C407 C97 1.395 . S
C409 C180 1.180 . S
C420 C175 1.338 . S
C418 C103 1.448 . S
C431 C196 1.308 . S
C429 C88 1.389 . S
C440 C94 1.468 . S
C442 C219 1.229 1_556 S
C451 C121 1.438 . S
C453 C198 1.230 . S
C462 C133 1.403 . S
C464 C217 1.304 . S
C475 C177 1.259 1_554 S
C473 C112 1.487 . S
C486 C242 1.338 . S
C484 C16 1.442 . S
C495 C22 1.463 . S
C497 C263 1.354 . S
C506 C7 1.400 . S
C508 C285 1.188 . S
C517 C160 1.405 . S
C519 C264 1.190 . S
C528 C139 1.467 . S
C530 C284 1.356 . S
C539 C151 1.395 . S
C541 C243 1.175 . S
C550 C157 1.445 . S
C552 C238 1.331 . S
C561 C142 1.391 . S
C563 C259 1.303 . S
C574 C282 1.237 . S
C572 C148 1.465 . S
C583 C13 1.435 . S
C585 C261 1.227 . S
C596 C280 1.306 . S
C594 C25 1.401 . S
C605 C4 1.488 . S
C607 C240 1.267 . S
C618 C305 1.349 . S
C616 C70 1.440 . S
C627 C76 1.459 . S
C629 C326 1.352 . S
C640 C348 1.200 . S
C638 C61 1.394 . S
C651 C327 1.199 . S
C649 C52 1.402 . S
C662 C347 1.356 . S
C660 C31 1.463 . S
C671 C43 1.395 . S
C673 C306 1.179 . S
C682 C49 1.444 . S
C684 C301 1.333 . S
C693 C34 1.389 . S
C695 C322 1.311 . S
C706 C345 1.241 . S
C704 C40 1.463 . S
C715 C67 1.438 . S
C717 C324 1.219 . S
C726 C79 1.401 . S
C728 C343 1.305 . S
C737 C58 1.491 . S
C739 C303 1.262 . S
C748 C140 1.454 . S
C750 C178 1.402 1_565 S
C761 C199 1.422 . S
C759 C149 1.475 . S
C770 C158 1.506 . S
C772 C218 1.468 . S
C781 C59 1.552 . S
C783 C197 1.515 1_655 S
C792 C68 1.500 . S
C794 C220 1.442 . S
C805 C176 1.487 . S
C803 C77 1.516 . S
C814 C32 1.454 . S
C816 C241 1.403 . S
C825 C41 1.476 . S
C827 C262 1.423 . S
C836 C50 1.504 . S
C838 C281 1.470 . S
C847 C113 1.553 . S
C849 C260 1.518 . S
C860 C283 1.445 . S
C858 C122 1.500 . S
C869 C131 1.517 . S
C871 C239 1.485 . S
C880 C86 1.454 . S
C882 C304 1.398 . S
C891 C95 1.476 . S
C893 C325 1.429 . S
C904 C344 1.473 . S
C902 C104 1.505 . S
C913 C5 1.553 . S
C915 C323 1.514 . S
C924 C14 1.500 . S
C926 C346 1.442 . S
C935 C23 1.516 . S
C937 C302 1.484 . S
