# Generated by pormake.
# Topology ssa, (4,4)-cn, num edge types: 1
# Building blocks:
#     Node 0, Type 0, BuildingBlock: ESEHIV_clean_sbu_0, # of connection points: 4
#     Node 1, Type 0, BuildingBlock: ESEHIV_clean_sbu_0, # of connection points: 4
#     Node 2, Type 0, BuildingBlock: ESEHIV_clean_sbu_0, # of connection points: 4
#     Node 3, Type 0, BuildingBlock: ESEHIV_clean_sbu_0, # of connection points: 4
#     Node 4, Type 0, BuildingBlock: ESEHIV_clean_sbu_0, # of connection points: 4
#     Node 5, Type 0, BuildingBlock: ESEHIV_clean_sbu_0, # of connection points: 4
#     Node 6, Type 1, BuildingBlock: MIFKUJ_clean_linker_1, # of connection points: 4
#     Node 7, Type 1, BuildingBlock: MIFKUJ_clean_linker_1, # of connection points: 4
#     Node 8, Type 1, BuildingBlock: MIFKUJ_clean_linker_1, # of connection points: 4
#     Node 9, Type 1, BuildingBlock: MIFKUJ_clean_linker_1, # of connection points: 4
#     Node 10, Type 1, BuildingBlock: MIFKUJ_clean_linker_1, # of connection points: 4
#     Node 11, Type 1, BuildingBlock: MIFKUJ_clean_linker_1, # of connection points: 4
#     Edge 12, Type (0, 1), BuildingBlock: MIFKUJ_clean_linker_0, # of connection points: 2
#     Edge 13, Type (0, 1), BuildingBlock: MIFKUJ_clean_linker_0, # of connection points: 2
#     Edge 14, Type (0, 1), BuildingBlock: MIFKUJ_clean_linker_0, # of connection points: 2
#     Edge 15, Type (0, 1), BuildingBlock: MIFKUJ_clean_linker_0, # of connection points: 2
#     Edge 16, Type (0, 1), BuildingBlock: MIFKUJ_clean_linker_0, # of connection points: 2
#     Edge 17, Type (0, 1), BuildingBlock: MIFKUJ_clean_linker_0, # of connection points: 2
#     Edge 18, Type (0, 1), BuildingBlock: MIFKUJ_clean_linker_0, # of connection points: 2
#     Edge 19, Type (0, 1), BuildingBlock: MIFKUJ_clean_linker_0, # of connection points: 2
#     Edge 20, Type (0, 1), BuildingBlock: MIFKUJ_clean_linker_0, # of connection points: 2
#     Edge 21, Type (0, 1), BuildingBlock: MIFKUJ_clean_linker_0, # of connection points: 2
#     Edge 22, Type (0, 1), BuildingBlock: MIFKUJ_clean_linker_0, # of connection points: 2
#     Edge 23, Type (0, 1), BuildingBlock: MIFKUJ_clean_linker_0, # of connection points: 2
#     Edge 24, Type (0, 1), BuildingBlock: MIFKUJ_clean_linker_0, # of connection points: 2
#     Edge 25, Type (0, 1), BuildingBlock: MIFKUJ_clean_linker_0, # of connection points: 2
#     Edge 26, Type (0, 1), BuildingBlock: MIFKUJ_clean_linker_0, # of connection points: 2
#     Edge 27, Type (0, 1), BuildingBlock: MIFKUJ_clean_linker_0, # of connection points: 2
#     Edge 28, Type (0, 1), BuildingBlock: MIFKUJ_clean_linker_0, # of connection points: 2
#     Edge 29, Type (0, 1), BuildingBlock: MIFKUJ_clean_linker_0, # of connection points: 2
#     Edge 30, Type (0, 1), BuildingBlock: MIFKUJ_clean_linker_0, # of connection points: 2
#     Edge 31, Type (0, 1), BuildingBlock: MIFKUJ_clean_linker_0, # of connection points: 2
#     Edge 32, Type (0, 1), BuildingBlock: MIFKUJ_clean_linker_0, # of connection points: 2
#     Edge 33, Type (0, 1), BuildingBlock: MIFKUJ_clean_linker_0, # of connection points: 2
#     Edge 34, Type (0, 1), BuildingBlock: MIFKUJ_clean_linker_0, # of connection points: 2
#     Edge 35, Type (0, 1), BuildingBlock: MIFKUJ_clean_linker_0, # of connection points: 2
# Relax obj value: 0.006
# Max RMSD: 0.106
# Mean RMSD: 0.056
data_MOF--net-ssa--node1-ESEHIV_clean_sbu_0--node2-MIFKUJ_clean_linker_1--edge1-MIFKUJ_clean_linker_0
_symmetry_space_group_name_H-M    P1
_symmetry_Int_Tables_number       1
_symmetry_cell_setting            triclinic
loop_
_symmetry_equiv_pos_as_xyz
'x, y, z'
_cell_length_a     75.209584
_cell_length_b     78.921786
_cell_length_c     49.4951
_cell_angle_alpha  88.674827
_cell_angle_beta   90.743798
_cell_angle_gamma 121.53393
loop_
_atom_site_label
_atom_site_type_symbol
_atom_site_fract_x
_atom_site_fract_y
_atom_site_fract_z
_atom_type_partial_charge
Cu0 Cu 1.00234 0.51833 0.01516 0.0
N1 N 0.98474 0.49077 0.01554 0.0
N2 N 0.96287 0.45993 1.0014 0.0
C3 C 0.97417 0.47939 0.9944 0.0
C4 C 0.96635 0.45903 0.02807 0.0
C5 C 0.97992 0.47812 0.03672 0.0
O6 O 0.99292 0.52971 0.98726 0.0
C7 C 0.03746 0.51364 0.00995 0.0
O8 O 0.02406 0.49598 1.00052 0.0
H9 H 0.97449 0.48525 0.97436 0.0
H10 H 0.98592 0.4825 0.05698 0.0
N11 N 0.99993 0.5279 0.04798 0.0
N12 N 0.01079 0.54467 0.08639 0.0
C13 C 0.01502 0.53572 0.06679 0.0
C14 C 0.98542 0.53179 0.05598 0.0
C15 C 0.99212 0.54222 0.07973 0.0
C16 C 0.99284 0.52747 0.96186 0.0
O17 O 1.00205 0.51864 0.95211 0.0
H18 H 0.02956 0.53613 0.06504 0.0
H19 H 0.97158 0.52829 0.04457 0.0
O20 O 0.03153 0.52584 0.01384 0.0
H21 H 0.95981 0.44556 0.04033 0.0
H22 H 0.98431 0.54824 0.09059 0.0
Cu23 Cu 0.5156 0.00712 0.50143 0.0
N24 N 0.52619 0.00458 0.4689 0.0
N25 N 0.53345 0.98963 0.43682 0.0
C26 C 0.52609 0.98814 0.46203 0.0
C27 C 0.53841 0.0078 0.42744 0.0
C28 C 0.53399 0.01704 0.44737 0.0
O29 O 0.49165 0.98083 0.50913 0.0
C30 C 0.55289 0.03338 0.52488 0.0
O31 O 0.55376 0.04302 0.50244 0.0
H32 H 0.52008 0.97507 0.47503 0.0
H33 H 0.53608 0.03167 0.44609 0.0
N34 N 0.50791 0.02612 0.49896 0.0
N35 N 0.50148 0.04928 0.51252 0.0
C36 C 0.5073 0.03629 0.52 0.0
C37 C 0.5022 0.03274 0.47727 0.0
C38 C 0.49825 0.04705 0.48555 0.0
C39 C 0.47299 0.977 0.50972 0.0
O40 O 0.46963 0.99174 0.50986 0.0
H41 H 0.51085 0.0339 0.54046 0.0
H42 H 0.50099 0.02755 0.45691 0.0
O43 O 0.5371 0.01602 0.5289 0.0
H44 H 0.5448 0.01396 0.40766 0.0
H45 H 0.49358 0.05525 0.47255 0.0
Cu46 Cu 0.51211 0.49434 0.03443 0.0
N47 N 0.50884 0.46915 0.03495 0.0
N48 N 0.50513 0.44124 0.01869 0.0
C49 C 0.50653 0.45869 0.01271 0.0
C50 C 0.50666 0.44078 0.0459 0.0
C51 C 0.50895 0.45802 0.05587 0.0
O52 O 0.53008 0.50872 0.00387 0.0
C53 C 0.47231 0.48098 0.05122 0.0
O54 O 0.47765 0.47118 0.06786 0.0
H55 H 0.50639 0.46409 0.99246 0.0
H56 H 0.5106 0.46213 0.07685 0.0
N57 N 0.52456 0.5087 0.06574 0.0
N58 N 0.5336 0.53238 0.09632 0.0
C59 C 0.52253 0.52379 0.0737 0.0
C60 C 0.53725 0.50747 0.084 0.0
C61 C 0.54286 0.52206 0.10291 0.0
C62 C 0.54823 0.51127 0.00559 0.0
O63 O 0.55309 0.50484 0.02751 0.0
H64 H 0.51303 0.52829 0.0629 0.0
H65 H 0.5424 0.49701 0.08336 0.0
O66 O 0.48501 0.49179 0.03264 0.0
H67 H 0.50603 0.42882 0.05783 0.0
H68 H 0.55338 0.52511 0.11973 0.0
Cu69 Cu 0.01737 0.50203 0.54535 0.0
N70 N 0.04103 0.5001 0.54383 0.0
N71 N 0.06742 0.5 0.52384 0.0
C72 C 0.04891 0.49864 0.52039 0.0
C73 C 0.07136 0.50238 0.55061 0.0
C74 C 0.05495 0.50235 0.56296 0.0
O75 O 0.02089 0.52002 0.5153 0.0
C76 C 0.99172 0.46231 0.5596 0.0
O77 O 0.00871 0.46651 0.57296 0.0
H78 H 0.04172 0.49771 0.50095 0.0
H79 H 0.05361 0.50438 0.58419 0.0
N80 N 0.01521 0.513 0.57728 0.0
N81 N 0.99977 0.52199 0.6073 0.0
C82 C 0.99735 0.51148 0.58494 0.0
C83 C 0.02957 0.52471 0.59556 0.0
C84 C 0.0201 0.53029 0.61411 0.0
C85 C 0.03627 0.53774 0.51818 0.0
O86 O 0.04692 0.54219 0.54085 0.0
H87 H 0.98297 0.503 0.57377 0.0
H88 H 0.04592 0.52955 0.59489 0.0
O89 O 0.99215 0.47566 0.54413 0.0
H90 H 0.08524 0.50435 0.56046 0.0
H91 H 0.02787 0.54032 0.63062 0.0
Cu92 Cu 0.48439 0.98203 0.99447 0.0
N93 N 0.4653 0.98198 0.96997 0.0
N94 N 0.45038 0.99463 0.94396 0.0
C95 C 0.46296 0.99753 0.9653 0.0
C96 C 0.44432 0.97629 0.93515 0.0
C97 C 0.4536 0.96853 0.95124 0.0
O98 O 0.51045 0.00787 0.9906 0.0
C99 C 0.4531 0.96065 0.03161 0.0
O100 O 0.44412 0.95149 0.00912 0.0
H101 H 0.47173 0.01132 0.97608 0.0
H102 H 0.45264 0.9545 0.94872 0.0
N103 N 0.48998 0.96234 0.98649 0.0
N104 N 0.49553 0.93758 0.99463 0.0
C105 C 0.48665 0.94744 0.0035 0.0
C106 C 0.50129 0.96183 0.966 0.0
C107 C 0.50486 0.94658 0.97107 0.0
C108 C 0.51572 0.0148 0.96653 0.0
O109 O 0.50394 0.00436 0.94626 0.0
H110 H 0.47932 0.94487 0.02307 0.0
H111 H 0.50756 0.97248 0.9494 0.0
O112 O 0.47173 0.97562 0.03047 0.0
H113 H 0.43454 0.96923 0.91775 0.0
H114 H 0.5143 0.94294 0.95907 0.0
Cu115 Cu 0.50543 0.49761 0.48912 0.0
N116 N 0.52324 0.51316 0.46121 0.0
N117 N 0.53619 0.53616 0.42811 0.0
C118 C 0.52197 0.52753 0.44804 0.0
C119 C 0.54704 0.52688 0.4289 0.0
C120 C 0.53891 0.51258 0.44935 0.0
O121 O 0.47879 0.49537 0.48165 0.0
C122 C 0.53565 0.52377 0.52755 0.0
O123 O 0.54365 0.53667 0.50737 0.0
H124 H 0.51096 0.53177 0.45332 0.0
H125 H 0.54395 0.50242 0.45506 0.0
N126 N 0.50116 0.47226 0.48844 0.0
N127 N 0.49746 0.44404 0.50494 0.0
C128 C 0.50149 0.46234 0.51063 0.0
C129 C 0.49684 0.45994 0.46774 0.0
C130 C 0.49459 0.44245 0.47788 0.0
C131 C 0.47476 0.50899 0.48481 0.0
O132 O 0.48808 0.52503 0.49799 0.0
H133 H 0.50481 0.46861 0.53057 0.0
H134 H 0.49529 0.46338 0.44688 0.0
O135 O 0.51818 0.50768 0.52434 0.0
H136 H 0.55969 0.52999 0.4155 0.0
H137 H 0.49077 0.42951 0.46629 0.0
H138 H 0.2149 0.48584 0.19624 0.0
H139 H 0.18829 0.48618 0.16785 0.0
H140 H 0.2105 0.5464 0.19197 0.0
H141 H 0.23649 0.54556 0.22109 0.0
H142 H 0.25725 0.50979 0.19241 0.0
H143 H 0.20628 0.49105 0.26233 0.0
H144 H 0.18148 0.49129 0.29333 0.0
H145 H 0.22754 0.55184 0.31423 0.0
H146 H 0.25254 0.55101 0.28408 0.0
H147 H 0.30856 0.54779 0.28556 0.0
H148 H 0.33521 0.54761 0.31404 0.0
H149 H 0.31158 0.48656 0.29275 0.0
H150 H 0.28556 0.48724 0.26347 0.0
H151 H 0.26563 0.52352 0.29048 0.0
H152 H 0.31814 0.53851 0.22453 0.0
H153 H 0.34275 0.53456 0.19772 0.0
H154 H 0.292 0.47856 0.16872 0.0
H155 H 0.26745 0.48256 0.19565 0.0
C156 C 0.22763 0.51561 0.21095 0.0
C157 C 0.21391 0.49905 0.19555 0.0
C158 C 0.19877 0.49936 0.17912 0.0
C159 C 0.1972 0.51638 0.17732 0.0
C160 C 0.21091 0.53289 0.19305 0.0
C161 C 0.22588 0.53248 0.20971 0.0
C162 C 0.24451 0.5157 0.22713 0.0
C163 C 0.25892 0.5125 0.21394 0.0
C164 C 0.24702 0.51971 0.25506 0.0
C165 C 0.23122 0.52101 0.27092 0.0
C166 C 0.21089 0.50447 0.2733 0.0
C167 C 0.19668 0.50469 0.29101 0.0
C168 C 0.20246 0.52156 0.30654 0.0
C169 C 0.22263 0.53842 0.30312 0.0
C170 C 0.23691 0.53807 0.2857 0.0
C171 C 0.29513 0.51759 0.27224 0.0
C172 C 0.30924 0.53442 0.28692 0.0
C173 C 0.3244 0.53421 0.30339 0.0
C174 C 0.32561 0.51702 0.30599 0.0
C175 C 0.31147 0.5002 0.29104 0.0
C176 C 0.29646 0.50052 0.27431 0.0
C177 C 0.2784 0.51759 0.25581 0.0
C178 C 0.26404 0.52086 0.26893 0.0
C179 C 0.27584 0.51342 0.22786 0.0
C180 C 0.29095 0.51073 0.21237 0.0
C181 C 0.31234 0.52524 0.21272 0.0
C182 C 0.3264 0.52298 0.19733 0.0
C183 C 0.31933 0.50625 0.18106 0.0
C184 C 0.29791 0.49174 0.18075 0.0
C185 C 0.28387 0.49397 0.19622 0.0
H186 H 0.71551 0.223 0.81148 0.0
H187 H 0.68712 0.19775 0.83987 0.0
H188 H 0.70741 0.15678 0.82467 0.0
H189 H 0.73583 0.18215 0.79631 0.0
H190 H 0.75859 0.23981 0.81782 0.0
H191 H 0.70659 0.20542 0.74675 0.0
H192 H 0.68077 0.17642 0.72127 0.0
H193 H 0.72579 0.15886 0.71086 0.0
H194 H 0.75174 0.18814 0.73597 0.0
H195 H 0.80517 0.24906 0.71884 0.0
H196 H 0.83062 0.27549 0.68879 0.0
H197 H 0.81196 0.31508 0.71805 0.0
H198 H 0.78608 0.2884 0.74731 0.0
H199 H 0.76428 0.2301 0.72038 0.0
H200 H 0.81871 0.26998 0.78176 0.0
H201 H 0.84441 0.29829 0.80815 0.0
H202 H 0.79517 0.30463 0.84049 0.0
H203 H 0.76955 0.27654 0.81378 0.0
C204 C 0.72768 0.20441 0.80163 0.0
C205 C 0.71384 0.20858 0.81427 0.0
C206 C 0.69759 0.19412 0.83038 0.0
C207 C 0.69504 0.17528 0.83449 0.0
C208 C 0.70908 0.17121 0.82205 0.0
C209 C 0.72521 0.18562 0.80568 0.0
C210 C 0.74493 0.21989 0.78462 0.0
C211 C 0.75976 0.23786 0.79642 0.0
C212 C 0.74687 0.21699 0.75704 0.0
C213 C 0.73101 0.19885 0.74315 0.0
C214 C 0.71082 0.19523 0.73914 0.0
C215 C 0.69615 0.17874 0.7246 0.0
C216 C 0.70136 0.16548 0.71419 0.0
C217 C 0.72139 0.16881 0.7189 0.0
C218 C 0.7362 0.18552 0.73304 0.0
C219 C 0.79382 0.26674 0.73561 0.0
C220 C 0.80653 0.26342 0.71874 0.0
C221 C 0.8212 0.27862 0.7017 0.0
C222 C 0.82341 0.29748 0.701 0.0
C223 C 0.81057 0.30071 0.71783 0.0
C224 C 0.79591 0.28551 0.73485 0.0
C225 C 0.77795 0.25044 0.7534 0.0
C226 C 0.76335 0.2322 0.74178 0.0
C227 C 0.77636 0.25311 0.7813 0.0
C228 C 0.79218 0.27118 0.79566 0.0
C229 C 0.81348 0.2777 0.7941 0.0
C230 C 0.82815 0.29385 0.80922 0.0
C231 C 0.82175 0.30357 0.82647 0.0
C232 C 0.8005 0.29724 0.82764 0.0
C233 C 0.78587 0.28123 0.81235 0.0
H234 H 0.56862 0.81137 0.30361 0.0
H235 H 0.56667 0.83793 0.32519 0.0
H236 H 0.50705 0.8176 0.28695 0.0
H237 H 0.50894 0.79091 0.2657 0.0
H238 H 0.54455 0.77163 0.30731 0.0
H239 H 0.56298 0.82103 0.23452 0.0
H240 H 0.55723 0.84249 0.20376 0.0
H241 H 0.50085 0.79092 0.1746 0.0
H242 H 0.50634 0.76973 0.20589 0.0
H243 H 0.51196 0.722 0.21503 0.0
H244 H 0.51189 0.69326 0.19736 0.0
H245 H 0.57363 0.7157 0.23024 0.0
H246 H 0.57352 0.74432 0.24788 0.0
H247 H 0.53765 0.76296 0.20789 0.0
H248 H 0.5125 0.71591 0.28134 0.0
H249 H 0.51479 0.689 0.30269 0.0
H250 H 0.57804 0.73115 0.32759 0.0
H251 H 0.57571 0.7581 0.30539 0.0
C252 C 0.53909 0.79928 0.28268 0.0
C253 C 0.55508 0.81256 0.29997 0.0
C254 C 0.55392 0.82772 0.31233 0.0
C255 C 0.53674 0.82993 0.30769 0.0
C256 C 0.52064 0.8165 0.2906 0.0
C257 C 0.52173 0.80124 0.27842 0.0
C258 C 0.54056 0.78334 0.26935 0.0
C259 C 0.54342 0.77006 0.28553 0.0
C260 C 0.53829 0.78061 0.241 0.0
C261 C 0.535 0.79381 0.22262 0.0
C262 C 0.54929 0.81441 0.22167 0.0
C263 C 0.54607 0.82662 0.20395 0.0
C264 C 0.52854 0.8184 0.18682 0.0
C265 C 0.51432 0.79776 0.18783 0.0
C266 C 0.51754 0.7856 0.20551 0.0
C267 C 0.54268 0.73523 0.23292 0.0
C268 C 0.52557 0.72084 0.21812 0.0
C269 C 0.52556 0.7044 0.20807 0.0
C270 C 0.54271 0.70208 0.21255 0.0
C271 C 0.56002 0.71681 0.22685 0.0
C272 C 0.56003 0.73324 0.23682 0.0
C273 C 0.54187 0.75167 0.24578 0.0
C274 C 0.53906 0.76486 0.22961 0.0
C275 C 0.54363 0.75407 0.27408 0.0
C276 C 0.54395 0.73891 0.29178 0.0
C277 C 0.52669 0.7194 0.29193 0.0
C278 C 0.52803 0.70405 0.30419 0.0
C279 C 0.54665 0.70793 0.31671 0.0
C280 C 0.56359 0.72769 0.31779 0.0
C281 C 0.56221 0.74311 0.30547 0.0
H282 H 0.70594 0.51049 0.7517 0.0
H283 H 0.67686 0.50888 0.72693 0.0
H284 H 0.72052 0.55781 0.6754 0.0
H285 H 0.74946 0.56011 0.70138 0.0
H286 H 0.76416 0.5372 0.70962 0.0
H287 H 0.72504 0.51501 0.81568 0.0
H288 H 0.69829 0.51665 0.84095 0.0
H289 H 0.70879 0.56686 0.79145 0.0
H290 H 0.73577 0.56533 0.7664 0.0
H291 H 0.80903 0.56633 0.80959 0.0
H292 H 0.83833 0.56663 0.83225 0.0
H293 H 0.81947 0.50986 0.79748 0.0
H294 H 0.79051 0.50989 0.77465 0.0
H295 H 0.76527 0.53969 0.80984 0.0
H296 H 0.82117 0.56956 0.74591 0.0
H297 H 0.8515 0.57047 0.72698 0.0
H298 H 0.81108 0.51187 0.6947 0.0
H299 H 0.78075 0.5113 0.71329 0.0
C300 C 0.72998 0.53566 0.72879 0.0
C301 C 0.70926 0.52103 0.73525 0.0
C302 C 0.6926 0.51996 0.72079 0.0
C303 C 0.69621 0.53329 0.69914 0.0
C304 C 0.71702 0.54756 0.69225 0.0
C305 C 0.73367 0.54874 0.70692 0.0
C306 C 0.74776 0.53746 0.74498 0.0
C307 C 0.76428 0.53775 0.7315 0.0
C308 C 0.74842 0.5387 0.77359 0.0
C309 C 0.73232 0.53994 0.78901 0.0
C310 C 0.72169 0.52645 0.81036 0.0
C311 C 0.70641 0.52741 0.82478 0.0
C312 C 0.70143 0.54187 0.81815 0.0
C313 C 0.7121 0.5554 0.79679 0.0
C314 C 0.72753 0.55455 0.7825 0.0
C315 C 0.79764 0.53815 0.79031 0.0
C316 C 0.81111 0.55386 0.80712 0.0
C317 C 0.82787 0.55399 0.82005 0.0
C318 C 0.83144 0.53833 0.81657 0.0
C319 C 0.81754 0.52238 0.80022 0.0
C320 C 0.80084 0.52228 0.7873 0.0
C321 C 0.78103 0.53881 0.77446 0.0
C322 C 0.76493 0.53911 0.78795 0.0
C323 C 0.78101 0.53876 0.7459 0.0
C324 C 0.79878 0.54033 0.73105 0.0
C325 C 0.81886 0.55706 0.73437 0.0
C326 C 0.83618 0.55746 0.72378 0.0
C327 C 0.83376 0.54114 0.70962 0.0
C328 C 0.81349 0.52475 0.70531 0.0
C329 C 0.79613 0.5244 0.71587 0.0
H330 H 0.26429 0.80118 0.24364 0.0
H331 H 0.2918 0.82933 0.21805 0.0
H332 H 0.33718 0.81684 0.25166 0.0
H333 H 0.3095 0.78883 0.27766 0.0
H334 H 0.25101 0.76176 0.24123 0.0
H335 H 0.28307 0.81368 0.30781 0.0
H336 H 0.31099 0.83824 0.33641 0.0
H337 H 0.31803 0.79184 0.37321 0.0
H338 H 0.29088 0.76759 0.34355 0.0
H339 H 0.23533 0.71852 0.345 0.0
H340 H 0.20585 0.69058 0.36893 0.0
H341 H 0.16302 0.70005 0.32186 0.0
H342 H 0.19243 0.72863 0.29903 0.0
H343 H 0.25089 0.75603 0.34125 0.0
H344 H 0.22253 0.70474 0.27648 0.0
H345 H 0.19302 0.67758 0.25273 0.0
H346 H 0.1799 0.71963 0.21441 0.0
H347 H 0.20945 0.74677 0.23835 0.0
C348 C 0.28479 0.7929 0.26266 0.0
C349 C 0.28016 0.8045 0.24551 0.0
C350 C 0.29595 0.82057 0.23079 0.0
C351 C 0.31677 0.82536 0.23261 0.0
C352 C 0.3214 0.81378 0.24998 0.0
C353 C 0.30557 0.7977 0.2648 0.0
C354 C 0.2677 0.77562 0.2778 0.0
C355 C 0.25093 0.76062 0.26312 0.0
C356 C 0.26788 0.77368 0.30632 0.0
C357 C 0.28505 0.78882 0.32327 0.0
C358 C 0.29088 0.80886 0.3217 0.0
C359 C 0.30668 0.82286 0.33834 0.0
C360 C 0.31678 0.81704 0.35717 0.0
C361 C 0.31086 0.79693 0.35867 0.0
C362 C 0.29519 0.783 0.3419 0.0
C363 C 0.21621 0.72557 0.31978 0.0
C364 C 0.21963 0.71476 0.33999 0.0
C365 C 0.2028 0.69876 0.35358 0.0
C366 C 0.1822 0.69306 0.34696 0.0
C367 C 0.17875 0.70395 0.32701 0.0
C368 C 0.19557 0.72024 0.3139 0.0
C369 C 0.23415 0.74225 0.30473 0.0
C370 C 0.25106 0.7571 0.31935 0.0
C371 C 0.23443 0.74381 0.27613 0.0
C372 C 0.21799 0.72773 0.25947 0.0
C373 C 0.21335 0.70811 0.26287 0.0
C374 C 0.19644 0.69261 0.24939 0.0
C375 C 0.184 0.69646 0.23197 0.0
C376 C 0.18926 0.71623 0.22762 0.0
C377 C 0.20613 0.73174 0.24125 0.0
H378 H 0.51456 0.27424 0.81312 0.0
H379 H 0.51735 0.29941 0.84354 0.0
H380 H 0.46004 0.29169 0.81076 0.0
H381 H 0.45769 0.26682 0.77987 0.0
H382 H 0.48332 0.23496 0.8103 0.0
H383 H 0.51225 0.29407 0.75201 0.0
H384 H 0.51508 0.32124 0.72344 0.0
H385 H 0.45932 0.27922 0.68068 0.0
H386 H 0.45597 0.25227 0.70976 0.0
H387 H 0.45299 0.20034 0.7052 0.0
H388 H 0.45349 0.17626 0.67556 0.0
H389 H 0.51076 0.1875 0.7134 0.0
H390 H 0.50962 0.21094 0.74356 0.0
H391 H 0.4818 0.23999 0.71036 0.0
H392 H 0.44899 0.18273 0.76561 0.0
H393 H 0.44356 0.15235 0.78744 0.0
H394 H 0.50025 0.18697 0.83343 0.0
H395 H 0.50563 0.21743 0.8114 0.0
C396 C 0.48599 0.26871 0.79411 0.0
C397 C 0.50263 0.27802 0.81244 0.0
C398 C 0.50413 0.29235 0.82996 0.0
C399 C 0.48887 0.29757 0.82979 0.0
C400 C 0.47224 0.28828 0.81124 0.0
C401 C 0.47083 0.274 0.79359 0.0
C402 C 0.48427 0.25301 0.77631 0.0
C403 C 0.48325 0.23623 0.78843 0.0
C404 C 0.48313 0.25413 0.74778 0.0
C405 C 0.48383 0.2711 0.73313 0.0
C406 C 0.50028 0.29077 0.73705 0.0
C407 C 0.50198 0.30626 0.72066 0.0
C408 C 0.48751 0.30218 0.69982 0.0
C409 C 0.47075 0.28265 0.69649 0.0
C410 C 0.46885 0.26729 0.7131 0.0
C411 C 0.48119 0.20734 0.72668 0.0
C412 C 0.46559 0.19752 0.70713 0.0
C413 C 0.46599 0.18383 0.69008 0.0
C414 C 0.4822 0.17989 0.69194 0.0
C415 C 0.49781 0.18981 0.71163 0.0
C416 C 0.49726 0.20333 0.72885 0.0
C417 C 0.48107 0.22225 0.74433 0.0
C418 C 0.48178 0.2388 0.73225 0.0
C419 C 0.4812 0.22065 0.77282 0.0
C420 C 0.47788 0.20233 0.78659 0.0
C421 C 0.46037 0.18378 0.7802 0.0
C422 C 0.45729 0.16642 0.79267 0.0
C423 C 0.47156 0.16724 0.812 0.0
C424 C 0.48891 0.18587 0.81874 0.0
C425 C 0.49203 0.20327 0.80616 0.0
H426 H 0.05766 0.49384 1.00063 0.0
H427 H 0.08699 0.49627 0.02602 0.0
H428 H 0.09068 0.54327 0.07333 0.0
H429 H 0.0623 0.54173 0.04691 0.0
H430 H 0.12752 0.55077 0.06805 0.0
H431 H 0.06401 0.49207 0.09494 0.0
H432 H 0.03098 0.4601 0.08903 0.0
H433 H 0.06449 0.43458 0.05725 0.0
H434 H 0.09771 0.4665 0.06263 0.0
H435 H 0.17506 0.53485 0.18486 0.0
H436 H 0.15025 0.53632 0.15399 0.0
H437 H 0.15854 0.50043 0.09723 0.0
H438 H 0.18397 0.49948 0.12736 0.0
H439 H 0.1163 0.4875 0.10733 0.0
H440 H 0.18077 0.5485 0.08415 0.0
H441 H 0.2124 0.5807 0.09448 0.0
H442 H 0.17461 0.60185 0.1256 0.0
H443 H 0.14276 0.56973 0.11567 0.0
C444 C 0.06501 0.50497 0.01607 0.0
C445 C 0.05742 0.51741 0.02192 0.0
C446 C 0.08166 0.50621 0.03082 0.0
C447 C 0.09069 0.51949 0.05232 0.0
C448 C 0.08395 0.53275 0.05707 0.0
C449 C 0.06762 0.53183 0.04191 0.0
C450 C 0.10644 0.519 0.07058 0.0
C451 C 0.1249 0.53692 0.0768 0.0
C452 C 0.10325 0.50097 0.08211 0.0
C453 C 0.08332 0.48173 0.07892 0.0
C454 C 0.06431 0.47968 0.08652 0.0
C455 C 0.04556 0.46156 0.08328 0.0
C456 C 0.04563 0.44534 0.0727 0.0
C457 C 0.06446 0.44718 0.0654 0.0
C458 C 0.08325 0.46527 0.06855 0.0
C459 C 0.1719 0.52748 0.16567 0.0
C460 C 0.18167 0.51704 0.15876 0.0
C461 C 0.15759 0.52828 0.14808 0.0
C462 C 0.15261 0.51857 0.12323 0.0
C463 C 0.1621 0.50798 0.11634 0.0
C464 C 0.17657 0.50735 0.13376 0.0
C465 C 0.13726 0.51919 0.10455 0.0
C466 C 0.11887 0.50129 0.09839 0.0
C467 C 0.14027 0.53725 0.0937 0.0
C468 C 0.1594 0.55665 0.09938 0.0
C469 C 0.17922 0.55998 0.09335 0.0
C470 C 0.19718 0.57824 0.09908 0.0
C471 C 0.19552 0.59332 0.11071 0.0
C472 C 0.17588 0.59018 0.11656 0.0
C473 C 0.15787 0.57196 0.11085 0.0
H474 H 0.20944 0.60744 0.11516 0.0
H475 H 0.03109 0.43132 0.07021 0.0
H476 H 0.58366 0.07229 0.52522 0.0
H477 H 0.60972 0.08986 0.55983 0.0
H478 H 0.58578 0.03533 0.60642 0.0
H479 H 0.55886 0.01757 0.57187 0.0
H480 H 0.59335 0.06425 0.63863 0.0
H481 H 0.63343 0.05668 0.57301 0.0
H482 H 0.64686 0.05676 0.52781 0.0
H483 H 0.6735 0.11983 0.52027 0.0
H484 H 0.65997 0.12011 0.56526 0.0
H485 H 0.68782 0.12594 0.71978 0.0
H486 H 0.66316 0.09882 0.6903 0.0
H487 H 0.65726 0.14104 0.64015 0.0
H488 H 0.68138 0.16798 0.66975 0.0
H489 H 0.66698 0.1125 0.61336 0.0
H490 H 0.62035 0.11673 0.67771 0.0
H491 H 0.60753 0.11528 0.72382 0.0
H492 H 0.59487 0.05583 0.73477 0.0
H493 H 0.60793 0.05705 0.68882 0.0
C494 C 0.58396 0.06391 0.54267 0.0
C495 C 0.56925 0.04348 0.54569 0.0
C496 C 0.59901 0.074 0.56244 0.0
C497 C 0.60007 0.06387 0.5855 0.0
C498 C 0.58538 0.04343 0.58869 0.0
C499 C 0.57005 0.0333 0.56893 0.0
C500 C 0.61606 0.07512 0.6065 0.0
C501 C 0.60955 0.07443 0.6332 0.0
C502 C 0.63727 0.0884 0.59958 0.0
C503 C 0.64559 0.08839 0.57251 0.0
C504 C 0.64205 0.07055 0.56166 0.0
C505 C 0.64969 0.07054 0.53607 0.0
C506 C 0.66101 0.08828 0.52117 0.0
C507 C 0.66474 0.10609 0.53185 0.0
C508 C 0.65712 0.1062 0.55742 0.0
C509 C 0.68115 0.12933 0.70249 0.0
C510 C 0.68634 0.14896 0.69701 0.0
C511 C 0.66712 0.11389 0.68577 0.0
C512 C 0.65848 0.11802 0.66314 0.0
C513 C 0.66381 0.13762 0.65756 0.0
C514 C 0.67745 0.15294 0.6745 0.0
C515 C 0.64398 0.10209 0.64486 0.0
C516 C 0.65086 0.10193 0.61876 0.0
C517 C 0.62329 0.08781 0.65248 0.0
C518 C 0.61538 0.08708 0.68 0.0
C519 C 0.61505 0.10343 0.69006 0.0
C520 C 0.60769 0.10263 0.71614 0.0
C521 C 0.60046 0.0855 0.73226 0.0
C522 C 0.60052 0.06911 0.72229 0.0
C523 C 0.60789 0.06984 0.69623 0.0
H524 H 0.59476 0.08491 0.75244 0.0
H525 H 0.66691 0.08824 0.50136 0.0
H526 H 0.52543 0.55978 0.07521 0.0
H527 H 0.52871 0.58827 0.09747 0.0
H528 H 0.55061 0.57344 0.16988 0.0
H529 H 0.54649 0.54413 0.148 0.0
H530 H 0.52541 0.58454 0.18387 0.0
H531 H 0.58407 0.61303 0.12541 0.0
H532 H 0.60336 0.61919 0.08281 0.0
H533 H 0.56837 0.6425 0.04587 0.0
H534 H 0.54866 0.63624 0.08814 0.0
H535 H 0.55677 0.68003 0.23816 0.0
H536 H 0.55706 0.65137 0.22084 0.0
H537 H 0.52799 0.65502 0.14704 0.0
H538 H 0.52833 0.68406 0.16378 0.0
H539 H 0.56016 0.65034 0.13691 0.0
H540 H 0.50029 0.61917 0.19787 0.0
H541 H 0.48342 0.61378 0.2423 0.0
H542 H 0.52494 0.59723 0.27697 0.0
H543 H 0.54209 0.60259 0.23284 0.0
C544 C 0.53072 0.56228 0.09595 0.0
C545 C 0.53568 0.54945 0.10969 0.0
C546 C 0.53283 0.57885 0.10863 0.0
C547 C 0.54021 0.58328 0.13528 0.0
C548 C 0.54497 0.57044 0.14925 0.0
C549 C 0.54277 0.55373 0.13659 0.0
C550 C 0.54262 0.60118 0.14845 0.0
C551 C 0.53332 0.59899 0.17376 0.0
C552 C 0.55288 0.62011 0.13536 0.0
C553 C 0.56479 0.62403 0.10991 0.0
C554 C 0.5804 0.61936 0.10815 0.0
C555 C 0.59142 0.62288 0.08407 0.0
C556 C 0.58707 0.6312 0.06164 0.0
C557 C 0.57172 0.63605 0.06326 0.0
C558 C 0.56064 0.63255 0.08729 0.0
C559 C 0.55058 0.67483 0.21815 0.0
C560 C 0.54254 0.68438 0.20235 0.0
C561 C 0.55055 0.6583 0.2084 0.0
C562 C 0.54234 0.65089 0.18274 0.0
C563 C 0.53434 0.66042 0.16694 0.0
C564 C 0.5344 0.67693 0.17663 0.0
C565 C 0.54247 0.63354 0.17187 0.0
C566 C 0.55236 0.63589 0.14702 0.0
C567 C 0.53313 0.61491 0.18567 0.0
C568 C 0.52258 0.61144 0.2121 0.0
C569 C 0.50587 0.61446 0.21501 0.0
C570 C 0.49623 0.61137 0.24014 0.0
C571 C 0.5031 0.60517 0.26248 0.0
C572 C 0.51959 0.60198 0.25969 0.0
C573 C 0.52925 0.60501 0.23461 0.0
H574 H 0.49565 0.60282 0.28192 0.0
H575 H 0.59561 0.63391 0.04301 0.0
H576 H 0.96233 0.51342 0.58615 0.0
H577 H 0.93659 0.51861 0.60654 0.0
H578 H 0.97577 0.54332 0.67671 0.0
H579 H 1.00147 0.53717 0.65701 0.0
H580 H 0.93618 0.51999 0.69164 0.0
H581 H 0.97222 0.57362 0.62873 0.0
H582 H 0.98783 0.59005 0.58504 0.0
H583 H 0.92751 0.55857 0.54737 0.0
H584 H 0.91156 0.54173 0.59075 0.0
H585 H 0.87074 0.5544 0.73635 0.0
H586 H 0.9012 0.55388 0.72113 0.0
H587 H 0.86903 0.526 0.64732 0.0
H588 H 0.83887 0.52734 0.66182 0.0
H589 H 0.90851 0.5549 0.63744 0.0
H590 H 0.87371 0.49923 0.70143 0.0
H591 H 0.85891 0.48457 0.74621 0.0
H592 H 0.91853 0.52261 0.7832 0.0
H593 H 0.93366 0.53762 0.73864 0.0
C594 C 0.96559 0.5197 0.60605 0.0
C595 C 0.98426 0.5249 0.61975 0.0
C596 C 0.95082 0.52291 0.61759 0.0
C597 C 0.95441 0.53176 0.64291 0.0
C598 C 0.97275 0.53662 0.65702 0.0
C599 C 0.98753 0.53323 0.64557 0.0
C600 C 0.93887 0.53583 0.65435 0.0
C601 C 0.93039 0.52792 0.67997 0.0
C602 C 0.93122 0.54612 0.63913 0.0
C603 C 0.94072 0.5563 0.61299 0.0
C604 C 0.9623 0.5701 0.6111 0.0
C605 C 0.9712 0.5795 0.58639 0.0
C606 C 0.95867 0.57533 0.56343 0.0
C607 C 0.9372 0.56178 0.56516 0.0
C608 C 0.92821 0.55232 0.58982 0.0
C609 C 0.87024 0.54843 0.71669 0.0
C610 C 0.85235 0.54094 0.70027 0.0
C611 C 0.88759 0.54792 0.70817 0.0
C612 C 0.8873 0.53966 0.68324 0.0
C613 C 0.86958 0.53238 0.66668 0.0
C614 C 0.85227 0.533 0.6751 0.0
C615 C 0.90539 0.53852 0.67426 0.0
C616 C 0.91443 0.54709 0.64915 0.0
C617 C 0.91369 0.52907 0.69009 0.0
C618 C 0.90476 0.51964 0.71675 0.0
C619 C 0.88364 0.5045 0.71913 0.0
C620 C 0.8752 0.49613 0.74446 0.0
C621 C 0.88777 0.50268 0.76754 0.0
C622 C 0.90883 0.51755 0.76531 0.0
C623 C 0.91735 0.52597 0.74001 0.0
H624 H 0.88119 0.49621 0.78713 0.0
H625 H 0.9656 0.58262 0.54432 0.0
H626 H 0.41153 0.93583 0.03793 0.0
H627 H 0.39251 0.91842 0.07867 0.0
H628 H 0.44954 0.94829 0.12488 0.0
H629 H 0.46901 0.96578 0.08349 0.0
H630 H 0.42723 0.90819 0.13546 0.0
H631 H 0.41267 0.9596 0.13529 0.0
H632 H 0.40292 0.98281 0.11637 0.0
H633 H 0.34233 0.9337 0.09561 0.0
H634 H 0.3518 0.91016 0.11403 0.0
H635 H 0.35739 0.85279 0.24686 0.0
H636 H 0.38421 0.88026 0.2191 0.0
H637 H 0.34051 0.86326 0.15307 0.0
H638 H 0.31387 0.83573 0.18032 0.0
H639 H 0.36102 0.90299 0.16118 0.0
H640 H 0.37909 0.85225 0.15431 0.0
H641 H 0.3897 0.82939 0.17218 0.0
H642 H 0.44466 0.8785 0.20698 0.0
H643 H 0.43422 0.90161 0.1896 0.0
C644 C 0.42009 0.93894 0.05676 0.0
C645 C 0.4418 0.95223 0.05745 0.0
C646 C 0.40913 0.92902 0.08014 0.0
C647 C 0.41951 0.93216 0.10496 0.0
C648 C 0.44119 0.94569 0.10596 0.0
C649 C 0.45226 0.95578 0.08238 0.0
C650 C 0.40752 0.92018 0.12909 0.0
C651 C 0.41306 0.90744 0.14163 0.0
C652 C 0.38888 0.91901 0.13698 0.0
C653 C 0.383 0.9331 0.12598 0.0
C654 C 0.39731 0.95373 0.12654 0.0
C655 C 0.39182 0.96695 0.11592 0.0
C656 C 0.37203 0.95973 0.10477 0.0
C657 C 0.35766 0.93927 0.10427 0.0
C658 C 0.36306 0.92598 0.11484 0.0
C659 C 0.35355 0.85478 0.22633 0.0
C660 C 0.33337 0.84205 0.21592 0.0
C661 C 0.3689 0.87054 0.21052 0.0
C662 C 0.3644 0.87385 0.18397 0.0
C663 C 0.34432 0.86114 0.17357 0.0
C664 C 0.32905 0.84541 0.18926 0.0
C665 C 0.38033 0.89049 0.16671 0.0
C666 C 0.37549 0.90411 0.15551 0.0
C667 C 0.39966 0.89254 0.16023 0.0
C668 C 0.40573 0.8786 0.171 0.0
C669 C 0.39332 0.85814 0.16603 0.0
C670 C 0.39933 0.84514 0.176 0.0
C671 C 0.4178 0.85248 0.19079 0.0
C672 C 0.43032 0.87283 0.19561 0.0
C673 C 0.42435 0.88587 0.18573 0.0
H674 H 0.42244 0.8424 0.19845 0.0
H675 H 0.36781 0.96999 0.09655 0.0
H676 H 0.4897 0.44169 0.55876 0.0
H677 H 0.4896 0.41824 0.59158 0.0
H678 H 0.5019 0.38925 0.5281 0.0
H679 H 0.50258 0.41309 0.49492 0.0
H680 H 0.46968 0.36308 0.56404 0.0
H681 H 0.54067 0.41918 0.56836 0.0
H682 H 0.56717 0.45476 0.57341 0.0
H683 H 0.54362 0.45364 0.65243 0.0
H684 H 0.51686 0.41813 0.64773 0.0
H685 H 0.49056 0.30184 0.64546 0.0
H686 H 0.49376 0.32679 0.61246 0.0
H687 H 0.4935 0.36246 0.67713 0.0
H688 H 0.49124 0.33776 0.71034 0.0
H689 H 0.51986 0.3858 0.6405 0.0
H690 H 0.44911 0.33213 0.63814 0.0
H691 H 0.42003 0.29735 0.63475 0.0
H692 H 0.43955 0.29455 0.55469 0.0
H693 H 0.46894 0.32925 0.55774 0.0
C694 C 0.49268 0.43055 0.55166 0.0
C695 C 0.49643 0.4295 0.52412 0.0
C696 C 0.49252 0.41708 0.57052 0.0
C697 C 0.49604 0.40222 0.5623 0.0
C698 C 0.49924 0.40071 0.53481 0.0
C699 C 0.49953 0.41429 0.51587 0.0
C700 C 0.49613 0.38816 0.58249 0.0
C701 C 0.48086 0.36795 0.58052 0.0
C702 C 0.51021 0.39475 0.60454 0.0
C703 C 0.52666 0.41601 0.60761 0.0
C704 C 0.54109 0.42655 0.58676 0.0
C705 C 0.55618 0.44671 0.58957 0.0
C706 C 0.55709 0.45648 0.61321 0.0
C707 C 0.54295 0.44608 0.63413 0.0
C708 C 0.52783 0.42592 0.63143 0.0
C709 C 0.49127 0.31507 0.65257 0.0
C710 C 0.49042 0.31787 0.68031 0.0
C711 C 0.49301 0.32926 0.63374 0.0
C712 C 0.49334 0.34628 0.64224 0.0
C713 C 0.49315 0.3494 0.67007 0.0
C714 C 0.49182 0.33532 0.689 0.0
C715 C 0.49348 0.36054 0.62198 0.0
C716 C 0.50873 0.38083 0.62398 0.0
C717 C 0.47906 0.3541 0.60024 0.0
C718 C 0.46135 0.33323 0.59827 0.0
C719 C 0.44729 0.32405 0.61988 0.0
C720 C 0.43074 0.30436 0.61802 0.0
C721 C 0.42797 0.29373 0.59455 0.0
C722 C 0.44173 0.3028 0.57287 0.0
C723 C 0.45833 0.32248 0.57465 0.0
H724 H 0.41514 0.27848 0.59314 0.0
H725 H 0.56876 0.47209 0.61532 0.0
H726 H 0.54063 0.96209 0.4589 0.0
H727 H 0.54143 0.93553 0.43553 0.0
H728 H 0.53009 0.9562 0.35961 0.0
H729 H 0.52912 0.98278 0.38299 0.0
H730 H 0.50449 0.91493 0.36809 0.0
H731 H 0.57736 0.96534 0.37221 0.0
H732 H 0.61001 0.98989 0.39475 0.0
H733 H 0.60742 0.94362 0.44513 0.0
H734 H 0.57458 0.91882 0.42314 0.0
H735 H 0.52499 0.85451 0.28465 0.0
H736 H 0.52405 0.88177 0.30573 0.0
H737 H 0.54493 0.86933 0.38104 0.0
H738 H 0.54613 0.84224 0.35997 0.0
H739 H 0.56592 0.90734 0.37168 0.0
H740 H 0.49342 0.85701 0.36976 0.0
H741 H 0.45948 0.83197 0.35049 0.0
H742 H 0.45984 0.87683 0.29931 0.0
H743 H 0.49395 0.9021 0.31798 0.0
C744 C 0.53827 0.96097 0.43724 0.0
C745 C 0.5348 0.97453 0.42279 0.0
C746 C 0.53887 0.94586 0.42389 0.0
C747 C 0.53593 0.94396 0.39581 0.0
C748 C 0.53244 0.95744 0.38128 0.0
C749 C 0.53205 0.9727 0.39462 0.0
C750 C 0.53615 0.92764 0.3818 0.0
C751 C 0.51802 0.9134 0.36843 0.0
C752 C 0.55359 0.92537 0.38304 0.0
C753 C 0.57341 0.94025 0.39618 0.0
C754 C 0.58366 0.96042 0.38824 0.0
C755 C 0.60222 0.97437 0.40089 0.0
C756 C 0.61075 0.96832 0.4214 0.0
C757 C 0.60078 0.94829 0.42926 0.0
C758 C 0.5822 0.93427 0.41669 0.0
C759 C 0.52917 0.85747 0.30578 0.0
C760 C 0.53564 0.84621 0.32063 0.0
C761 C 0.5286 0.87305 0.31784 0.0
C762 C 0.53421 0.87753 0.3451 0.0
C763 C 0.54058 0.86623 0.35997 0.0
C764 C 0.54131 0.85076 0.34788 0.0
C765 C 0.53416 0.89441 0.35794 0.0
C766 C 0.55236 0.90881 0.37114 0.0
C767 C 0.51666 0.89668 0.35679 0.0
C768 C 0.4964 0.8814 0.34502 0.0
C769 C 0.48639 0.8615 0.35416 0.0
C770 C 0.46709 0.84727 0.3434 0.0
C771 C 0.45754 0.85279 0.32362 0.0
C772 C 0.46728 0.87256 0.31457 0.0
C773 C 0.4866 0.88684 0.32524 0.0
H774 H 0.44257 0.84177 0.31538 0.0
H775 H 0.62512 0.97915 0.43117 0.0
H776 H 0.58869 0.5215 0.00675 0.0
H777 H 0.61312 0.53259 0.96948 0.0
H778 H 0.56701 0.53164 0.91571 0.0
H779 H 0.54199 0.52004 0.95333 0.0
H780 H 0.58516 0.51364 0.8936 0.0
H781 H 0.61002 0.57609 0.93244 0.0
H782 H 0.62087 0.60074 0.96837 0.0
H783 H 0.67151 0.59265 0.98968 0.0
H784 H 0.66079 0.56772 0.95415 0.0
H785 H 0.66992 0.54665 0.79889 0.0
H786 H 0.64284 0.54733 0.82519 0.0
H787 H 0.66961 0.54 0.89884 0.0
H788 H 0.69676 0.53963 0.87284 0.0
H789 H 0.65893 0.56842 0.90289 0.0
H790 H 0.62769 0.50054 0.86947 0.0
H791 H 0.61658 0.47633 0.83282 0.0
H792 H 0.57769 0.4966 0.79976 0.0
H793 H 0.58877 0.52108 0.83606 0.0
C794 C 0.5837 0.52382 0.98711 0.0
C795 C 0.56335 0.51987 0.98303 0.0
C796 C 0.5978 0.53033 0.96579 0.0
C797 C 0.59205 0.53326 0.93983 0.0
C798 C 0.57182 0.52961 0.93563 0.0
C799 C 0.55759 0.52307 0.95713 0.0
C800 C 0.60699 0.53881 0.91718 0.0
C801 C 0.60116 0.52596 0.89524 0.0
C802 C 0.62789 0.55487 0.91926 0.0
C803 C 0.63454 0.56996 0.94063 0.0
C804 C 0.6234 0.57947 0.94488 0.0
C805 C 0.62954 0.59351 0.96518 0.0
C806 C 0.64686 0.59825 0.98131 0.0
C807 C 0.6581 0.58897 0.97715 0.0
C808 C 0.65202 0.57491 0.95689 0.0
C809 C 0.67012 0.5454 0.82071 0.0
C810 C 0.68537 0.54295 0.83382 0.0
C811 C 0.6546 0.54569 0.83567 0.0
C812 C 0.65416 0.5436 0.86395 0.0
C813 C 0.66967 0.54164 0.87704 0.0
C814 C 0.68506 0.54125 0.86215 0.0
C815 C 0.63727 0.54272 0.88023 0.0
C816 C 0.64279 0.55648 0.9009 0.0
C817 C 0.61607 0.52767 0.8768 0.0
C818 C 0.60923 0.51277 0.85526 0.0
C819 C 0.61687 0.4999 0.85427 0.0
C820 C 0.61057 0.48613 0.83359 0.0
C821 C 0.5965 0.48497 0.81391 0.0
C822 C 0.58863 0.49754 0.81496 0.0
C823 C 0.5949 0.51135 0.83559 0.0
H824 H 0.59165 0.47432 0.7979 0.0
H825 H 0.65158 0.60912 0.99701 0.0
H826 H 0.06114 0.57753 0.52313 0.0
H827 H 0.07962 0.60226 0.48772 0.0
H828 H 0.04843 0.55735 0.4273 0.0
H829 H 0.02998 0.53212 0.46322 0.0
H830 H 0.08866 0.57768 0.41835 0.0
H831 H 0.03968 0.59646 0.43213 0.0
H832 H 0.0171 0.60468 0.45707 0.0
H833 H 0.07106 0.65544 0.4908 0.0
H834 H 0.09399 0.64738 0.46639 0.0
H835 H 0.14861 0.66057 0.32459 0.0
H836 H 0.11896 0.6324 0.34832 0.0
H837 H 0.14571 0.65933 0.42479 0.0
H838 H 0.17558 0.68718 0.40123 0.0
H839 H 0.10168 0.64608 0.41671 0.0
H840 H 0.15008 0.62403 0.41036 0.0
H841 H 0.17278 0.61423 0.38929 0.0
H842 H 0.1205 0.5688 0.34539 0.0
H843 H 0.09753 0.57862 0.3658 0.0
C844 C 0.05784 0.5729 0.5023 0.0
C845 C 0.04411 0.55284 0.49599 0.0
C846 C 0.06834 0.58716 0.48197 0.0
C847 C 0.06529 0.58182 0.45471 0.0
C848 C 0.05094 0.56188 0.44818 0.0
C849 C 0.04031 0.5475 0.46868 0.0
C850 C 0.07891 0.59679 0.4338 0.0
C851 C 0.09126 0.59253 0.41771 0.0
C852 C 0.08229 0.61623 0.43277 0.0
C853 C 0.06858 0.62124 0.44747 0.0
C854 C 0.04675 0.6093 0.445 0.0
C855 C 0.03388 0.61395 0.45903 0.0
C856 C 0.04264 0.63056 0.47553 0.0
C857 C 0.06429 0.64258 0.47799 0.0
C858 C 0.07724 0.638 0.46401 0.0
C859 C 0.14812 0.66039 0.34647 0.0
C860 C 0.16435 0.67598 0.36114 0.0
C861 C 0.13126 0.64432 0.35996 0.0
C862 C 0.13018 0.64381 0.38828 0.0
C863 C 0.14627 0.65947 0.40292 0.0
C864 C 0.16334 0.67529 0.38949 0.0
C865 C 0.11218 0.62713 0.40283 0.0
C866 C 0.09894 0.63114 0.41737 0.0
C867 C 0.10813 0.6075 0.4027 0.0
C868 C 0.12216 0.60239 0.38913 0.0
C869 C 0.1435 0.61228 0.39572 0.0
C870 C 0.1564 0.60663 0.38403 0.0
C871 C 0.14811 0.59098 0.36589 0.0
C872 C 0.12692 0.58098 0.35935 0.0
C873 C 0.11396 0.58661 0.37094 0.0
H874 H 0.1581 0.58653 0.35701 0.0
H875 H 0.03264 0.63412 0.48638 0.0
H876 H 0.4399 0.99599 0.89138 0.0
H877 H 0.43962 0.02347 0.86831 0.0
H878 H 0.45503 0.05519 0.94313 0.0
H879 H 0.45412 0.02731 0.96668 0.0
H880 H 0.42893 0.06143 0.91472 0.0
H881 H 0.49341 0.06369 0.89591 0.0
H882 H 0.51316 0.04881 0.8801 0.0
H883 H 0.48493 0.04034 0.8017 0.0
H884 H 0.46493 0.05507 0.81706 0.0
H885 H 0.47629 0.16071 0.86544 0.0
H886 H 0.47009 0.12988 0.88702 0.0
H887 H 0.45259 0.10093 0.80999 0.0
H888 H 0.45931 0.13186 0.78816 0.0
H889 H 0.4781 0.09225 0.83774 0.0
H890 H 0.41559 0.09222 0.85557 0.0
H891 H 0.39487 0.106 0.87155 0.0
H892 H 0.41885 0.10986 0.95185 0.0
H893 H 0.43995 0.09636 0.93626 0.0
C894 C 0.44274 0.00855 0.90313 0.0
C895 C 0.44745 0.00954 0.93087 0.0
C896 C 0.4428 0.02439 0.8898 0.0
C897 C 0.44789 0.04163 0.90384 0.0
C898 C 0.4513 0.04214 0.9318 0.0
C899 C 0.451 0.02624 0.9452 0.0
C900 C 0.45087 0.05958 0.88931 0.0
C901 C 0.43982 0.06828 0.89805 0.0
C902 C 0.46479 0.06831 0.86723 0.0
C903 C 0.47753 0.06029 0.8577 0.0
C904 C 0.49141 0.05864 0.87531 0.0
C905 C 0.50264 0.05022 0.86644 0.0
C906 C 0.50017 0.04351 0.83998 0.0
C907 C 0.48675 0.04549 0.82221 0.0
C908 C 0.47551 0.05391 0.83096 0.0
C909 C 0.47132 0.14783 0.85306 0.0
C910 C 0.46821 0.14869 0.82511 0.0
C911 C 0.46759 0.13018 0.86545 0.0
C912 C 0.46061 0.11305 0.85015 0.0
C913 C 0.45786 0.11395 0.82218 0.0
C914 C 0.46156 0.13159 0.80979 0.0
C915 C 0.45629 0.09421 0.86331 0.0
C916 C 0.46714 0.08537 0.85433 0.0
C917 C 0.44223 0.0854 0.88522 0.0
C918 C 0.4295 0.09345 0.89468 0.0
C919 C 0.41657 0.09616 0.87659 0.0
C920 C 0.40474 0.10389 0.88559 0.0
C921 C 0.40558 0.10885 0.91269 0.0
C922 C 0.41823 0.10604 0.93086 0.0
C923 C 0.43012 0.09833 0.92196 0.0
H924 H 0.39641 0.11483 0.91962 0.0
H925 H 0.5086 0.03673 0.83323 0.0
H926 H 0.45871 0.53307 0.48948 0.0
H927 H 0.43273 0.53413 0.46017 0.0
H928 H 0.4264 0.48536 0.41466 0.0
H929 H 0.45199 0.48394 0.44399 0.0
H930 H 0.43335 0.51873 0.38239 0.0
H931 H 0.38864 0.47612 0.45447 0.0
H932 H 0.37733 0.46723 0.5019 0.0
H933 H 0.37078 0.51794 0.50717 0.0
H934 H 0.38235 0.52729 0.45984 0.0
H935 H 0.34683 0.49753 0.29957 0.0
H936 H 0.37128 0.4959 0.33074 0.0
H937 H 0.36534 0.53456 0.38519 0.0
H938 H 0.33977 0.53514 0.35508 0.0
H939 H 0.36536 0.50713 0.41349 0.0
H940 H 0.40953 0.55034 0.34265 0.0
H941 H 0.42187 0.56087 0.29583 0.0
H942 H 0.4312 0.51194 0.28868 0.0
H943 H 0.41868 0.50097 0.33536 0.0
C944 C 0.45157 0.52238 0.47348 0.0
C945 C 0.45741 0.50838 0.4692 0.0
C946 C 0.43675 0.52303 0.45672 0.0
C947 C 0.42767 0.50985 0.43517 0.0
C948 C 0.43324 0.49569 0.43111 0.0
C949 C 0.44779 0.49483 0.44806 0.0
C950 C 0.41279 0.51113 0.41637 0.0
C951 C 0.41836 0.51597 0.38907 0.0
C952 C 0.39355 0.50814 0.42528 0.0
C953 C 0.38658 0.50253 0.45371 0.0
C954 C 0.38498 0.48548 0.46582 0.0
C955 C 0.37848 0.48034 0.49267 0.0
C956 C 0.3734 0.49205 0.50757 0.0
C957 C 0.37476 0.5089 0.49562 0.0
C958 C 0.38127 0.51412 0.46878 0.0
C959 C 0.35049 0.50553 0.3183 0.0
C960 C 0.34122 0.51652 0.3246 0.0
C961 C 0.36479 0.50482 0.336 0.0
C962 C 0.37055 0.5154 0.36023 0.0
C963 C 0.36131 0.52633 0.36661 0.0
C964 C 0.34681 0.52684 0.34911 0.0
C965 C 0.38579 0.5147 0.37924 0.0
C966 C 0.38034 0.50998 0.40665 0.0
C967 C 0.40531 0.5181 0.37048 0.0
C968 C 0.41292 0.5247 0.34241 0.0
C969 C 0.41405 0.54173 0.33102 0.0
C970 C 0.42109 0.54779 0.30451 0.0
C971 C 0.4272 0.53702 0.28924 0.0
C972 C 0.42637 0.52022 0.30049 0.0
C973 C 0.41934 0.51409 0.32699 0.0
H974 H 0.4327 0.54176 0.26874 0.0
H975 H 0.36836 0.48804 0.52835 0.0
H976 H 0.92784 0.4251 0.01506 0.0
H977 H 0.90501 0.39816 0.98474 0.0
H978 H 0.94556 0.43099 0.9177 0.0
H979 H 0.96827 0.458 0.94787 0.0
H980 H 0.90666 0.41664 0.9035 0.0
H981 H 0.94427 0.39008 0.94662 0.0
H982 H 0.95854 0.38016 0.98471 0.0
H983 H 0.89651 0.33875 0.01315 0.0
H984 H 0.88186 0.34863 0.97542 0.0
H985 H 0.86017 0.33529 0.81259 0.0
H986 H 0.88538 0.3618 0.84204 0.0
H987 H 0.84302 0.33473 0.90926 0.0
H988 H 0.8179 0.30814 0.88006 0.0
H989 H 0.88389 0.34609 0.92218 0.0
H990 H 0.84693 0.37407 0.87848 0.0
H991 H 0.83358 0.38392 0.83923 0.0
H992 H 0.89613 0.42271 0.81046 0.0
H993 H 0.90984 0.41287 0.84937 0.0
C994 C 0.93199 0.42646 0.99393 0.0
C995 C 0.94982 0.44369 0.98385 0.0
C996 C 0.91895 0.41106 0.97661 0.0
C997 C 0.92367 0.41247 0.94896 0.0
C998 C 0.94156 0.4296 0.93892 0.0
C999 C 0.9545 0.44504 0.95618 0.0
C1000 C 0.90965 0.39636 0.93035 0.0
C1001 C 0.90195 0.40126 0.90739 0.0
C1002 C 0.90323 0.37623 0.9356 0.0
C1003 C 0.91198 0.37024 0.95833 0.0
C1004 C 0.93367 0.37898 0.96112 0.0
C1005 C 0.94183 0.37334 0.98262 0.0
C1006 C 0.92845 0.35887 1.00138 0.0
C1007 C 0.90686 0.34997 0.99862 0.0
C1008 C 0.89862 0.35557 0.97717 0.0
C1009 C 0.85631 0.33498 0.83368 0.0
C1010 C 0.83704 0.31974 0.84402 0.0
C1011 C 0.87064 0.35015 0.85041 0.0
C1012 C 0.86597 0.35026 0.87776 0.0
C1013 C 0.84689 0.33491 0.8882 0.0
C1014 C 0.8325 0.31985 0.87145 0.0
C1015 C 0.88089 0.36642 0.89555 0.0
C1016 C 0.88872 0.36151 0.91831 0.0
C1017 C 0.8876 0.38655 0.88998 0.0
C1018 C 0.87939 0.39257 0.86668 0.0
C1019 C 0.85782 0.38458 0.86367 0.0
C1020 C 0.8502 0.39018 0.8415 0.0
C1021 C 0.86399 0.40388 0.82232 0.0
C1022 C 0.88546 0.41207 0.82531 0.0
C1023 C 0.89317 0.4065 0.84742 0.0
H1024 H 0.85806 0.4082 0.80517 0.0
H1025 H 0.93479 0.35452 0.01801 0.0
H1026 H 0.98271 0.51835 0.90842 0.0
H1027 H 0.95716 0.5218 0.88161 0.0
H1028 H 0.9471 0.54983 0.94855 0.0
H1029 H 0.97233 0.54619 0.97556 0.0
H1030 H 0.91097 0.52075 0.92951 0.0
H1031 H 0.97338 0.576 0.89014 0.0
H1032 H 0.00749 0.59235 0.86719 0.0
H1033 H 0.9795 0.5543 0.79921 0.0
H1034 H 0.94528 0.53752 0.82195 0.0
H1035 H 0.8473 0.55114 0.86738 0.0
H1036 H 0.87638 0.55096 0.88948 0.0
H1037 H 0.8852 0.52513 0.81891 0.0
H1038 H 0.85673 0.52615 0.7961 0.0
H1039 H 0.92184 0.55203 0.83833 0.0
H1040 H 0.86013 0.49673 0.87621 0.0
H1041 H 0.82564 0.4792 0.89825 0.0
H1042 H 0.85187 0.51553 0.96812 0.0
H1043 H 0.88647 0.53348 0.94634 0.0
C1044 C 0.97533 0.52556 0.9173 0.0
C1045 C 0.97958 0.53194 0.94421 0.0
C1046 C 0.96071 0.52755 0.9019 0.0
C1047 C 0.95018 0.53612 0.91299 0.0
C1048 C 0.95493 0.5431 0.93954 0.0
C1049 C 0.96946 0.54107 0.95494 0.0
C1050 C 0.93327 0.53674 0.89775 0.0
C1051 C 0.91348 0.52788 0.90974 0.0
C1052 C 0.93622 0.54533 0.87149 0.0
C1053 C 0.95681 0.55538 0.85786 0.0
C1054 C 0.97453 0.57101 0.87041 0.0
C1055 C 0.99388 0.58037 0.85742 0.0
C1056 C 0.99567 0.57434 0.83179 0.0
C1057 C 0.9781 0.55895 0.81908 0.0
C1058 C 0.95872 0.54951 0.832 0.0
C1059 C 0.85556 0.54566 0.85635 0.0
C1060 C 0.84947 0.53852 0.82997 0.0
C1061 C 0.87208 0.54535 0.86918 0.0
C1062 C 0.88278 0.53766 0.85612 0.0
C1063 C 0.87711 0.53098 0.82954 0.0
C1064 C 0.86065 0.53138 0.81662 0.0
C1065 C 0.89968 0.5364 0.87036 0.0
C1066 C 0.91938 0.54498 0.85813 0.0
C1067 C 0.89663 0.52736 0.89633 0.0
C1068 C 0.87585 0.51657 0.90953 0.0
C1069 C 0.85851 0.50108 0.89619 0.0
C1070 C 0.83895 0.49105 0.90865 0.0
C1071 C 0.83656 0.49628 0.93454 0.0
C1072 C 0.85374 0.51152 0.94805 0.0
C1073 C 0.87334 0.52161 0.93567 0.0
H1074 H 0.8214 0.4885 0.94415 0.0
H1075 H 0.01066 0.58162 0.82177 0.0
H1076 H 0.43183 0.96446 0.50289 0.0
H1077 H 0.40493 0.93343 0.48309 0.0
H1078 H 0.4476 0.91242 0.48246 0.0
H1079 H 0.47484 0.94371 0.50175 0.0
H1080 H 0.43154 0.90952 0.43425 0.0
H1081 H 0.40332 0.88981 0.52273 0.0
H1082 H 0.39089 0.89292 0.56711 0.0
H1083 H 0.34281 0.89863 0.52839 0.0
H1084 H 0.35512 0.89583 0.48373 0.0
H1085 H 0.35304 0.81954 0.37383 0.0
H1086 H 0.37914 0.84314 0.40522 0.0
H1087 H 0.34399 0.87188 0.41287 0.0
H1088 H 0.3173 0.84774 0.38265 0.0
H1089 H 0.35719 0.86758 0.46084 0.0
H1090 H 0.38837 0.89072 0.37219 0.0
H1091 H 0.40143 0.88797 0.32806 0.0
H1092 H 0.44468 0.87576 0.36799 0.0
H1093 H 0.43164 0.87813 0.41238 0.0
C1094 C 0.43539 0.95308 0.49918 0.0
C1095 C 0.45557 0.95668 0.50366 0.0
C1096 C 0.41992 0.93526 0.48793 0.0
C1097 C 0.42422 0.92055 0.48127 0.0
C1098 C 0.44395 0.92358 0.48734 0.0
C1099 C 0.45948 0.94145 0.4985 0.0
C1100 C 0.40893 0.90316 0.46531 0.0
C1101 C 0.41537 0.90005 0.44037 0.0
C1102 C 0.38775 0.89107 0.473 0.0
C1103 C 0.38025 0.89274 0.49984 0.0
C1104 C 0.39019 0.89187 0.52365 0.0
C1105 C 0.38315 0.89356 0.54887 0.0
C1106 C 0.36609 0.89601 0.55056 0.0
C1107 C 0.35602 0.89674 0.52704 0.0
C1108 C 0.36301 0.89507 0.50177 0.0
C1109 C 0.35074 0.83075 0.3824 0.0
C1110 C 0.33306 0.83175 0.37561 0.0
C1111 C 0.3658 0.84437 0.40014 0.0
C1112 C 0.36366 0.85944 0.41117 0.0
C1113 C 0.346 0.86041 0.40456 0.0
C1114 C 0.33087 0.84672 0.387 0.0
C1115 C 0.37974 0.87427 0.42959 0.0
C1116 C 0.37343 0.87688 0.45496 0.0
C1117 C 0.40108 0.88588 0.42233 0.0
C1118 C 0.40883 0.88435 0.39561 0.0
C1119 C 0.40052 0.88726 0.37156 0.0
C1120 C 0.40795 0.8858 0.3465 0.0
C1121 C 0.42382 0.88162 0.34522 0.0
C1122 C 0.43234 0.87894 0.36901 0.0
C1123 C 0.42494 0.88034 0.39412 0.0
H1124 H 0.42955 0.88051 0.3258 0.0
H1125 H 0.36067 0.89731 0.57011 0.0
H1126 H 0.51635 0.41383 0.02636 0.0
H1127 H 0.51309 0.38939 0.99412 0.0
H1128 H 0.4863 0.41104 0.93557 0.0
H1129 H 0.48881 0.43503 0.968 0.0
H1130 H 0.46545 0.37155 0.93592 0.0
H1131 H 0.53719 0.42359 0.93065 0.0
H1132 H 0.57236 0.44741 0.94798 0.0
H1133 H 0.57794 0.39912 0.97899 0.0
H1134 H 0.54266 0.375 0.96216 0.0
H1135 H 0.47921 0.3264 0.82088 0.0
H1136 H 0.48137 0.35055 0.85293 0.0
H1137 H 0.50404 0.32688 0.91441 0.0
H1138 H 0.50148 0.3024 0.88279 0.0
H1139 H 0.52707 0.36772 0.91182 0.0
H1140 H 0.45462 0.31576 0.91635 0.0
H1141 H 0.41971 0.29258 0.89773 0.0
H1142 H 0.41596 0.3418 0.86637 0.0
H1143 H 0.45099 0.36528 0.88449 0.0
C1144 C 0.50957 0.41329 0.00676 0.0
C1145 C 0.50296 0.42654 0.99982 0.0
C1146 C 0.50791 0.39942 0.9882 0.0
C1147 C 0.49972 0.39854 0.96224 0.0
C1148 C 0.49277 0.41148 0.95542 0.0
C1149 C 0.4944 0.42534 0.97395 0.0
C1150 C 0.4984 0.38414 0.9422 0.0
C1151 C 0.479 0.37091 0.9304 0.0
C1152 C 0.51598 0.38304 0.93524 0.0
C1153 C 0.5372 0.3975 0.94538 0.0
C1154 C 0.54585 0.41805 0.94136 0.0
C1155 C 0.56581 0.43161 0.95106 0.0
C1156 C 0.57735 0.42479 0.96464 0.0
C1157 C 0.56897 0.40439 0.9685 0.0
C1158 C 0.549 0.39077 0.95887 0.0
C1159 C 0.48442 0.32614 0.8413 0.0
C1160 C 0.49017 0.3124 0.84918 0.0
C1161 C 0.48572 0.34003 0.85958 0.0
C1162 C 0.49277 0.34046 0.88612 0.0
C1163 C 0.49865 0.32688 0.894 0.0
C1164 C 0.49726 0.31294 0.87581 0.0
C1165 C 0.49413 0.35511 0.90569 0.0
C1166 C 0.51355 0.3684 0.91737 0.0
C1167 C 0.47661 0.35636 0.91236 0.0
C1168 C 0.45552 0.34227 0.90154 0.0
C1169 C 0.44643 0.32164 0.90529 0.0
C1170 C 0.4266 0.30844 0.89487 0.0
C1171 C 0.41565 0.31571 0.88081 0.0
C1172 C 0.42448 0.33619 0.87722 0.0
C1173 C 0.44431 0.34945 0.88758 0.0
H1174 H 0.4003 0.30547 0.87276 0.0
H1175 H 0.59281 0.4353 0.97213 0.0
H1176 H 0.10967 0.5221 0.52256 0.0
H1177 H 0.13212 0.52594 0.48448 0.0
H1178 H 0.07797 0.48411 0.43894 0.0
H1179 H 0.05553 0.48019 0.47696 0.0
H1180 H 0.11036 0.47794 0.43362 0.0
H1181 H 0.09827 0.53092 0.42944 0.0
H1182 H 0.0972 0.55928 0.44669 0.0
H1183 H 0.16408 0.59368 0.45064 0.0
H1184 H 0.16554 0.56488 0.43549 0.0
H1185 H 0.15964 0.503 0.30427 0.0
H1186 H 0.13602 0.49959 0.34038 0.0
H1187 H 0.18866 0.53598 0.39175 0.0
H1188 H 0.21239 0.53876 0.35642 0.0
H1189 H 0.15578 0.54497 0.39217 0.0
H1190 H 0.16605 0.48927 0.40134 0.0
H1191 H 0.16582 0.45995 0.38469 0.0
H1192 H 0.10037 0.4315 0.36719 0.0
H1193 H 0.1003 0.46082 0.38338 0.0
C1194 C 0.10262 0.5135 0.50459 0.0
C1195 C 0.08085 0.50092 0.50264 0.0
C1196 C 0.11542 0.51581 0.4828 0.0
C1197 C 0.10667 0.50548 0.45878 0.0
C1198 C 0.08503 0.49228 0.45724 0.0
C1199 C 0.07223 0.49014 0.47888 0.0
C1200 C 0.11998 0.50885 0.43494 0.0
C1201 C 0.12012 0.49257 0.42442 0.0
C1202 C 0.13273 0.52799 0.42294 0.0
C1203 C 0.13199 0.54552 0.43176 0.0
C1204 C 0.11278 0.54437 0.43443 0.0
C1205 C 0.11209 0.56058 0.4438 0.0
C1206 C 0.13056 0.57835 0.44957 0.0
C1207 C 0.14977 0.57987 0.44624 0.0
C1208 C 0.15052 0.56353 0.43748 0.0
C1209 C 0.16625 0.51023 0.32326 0.0
C1210 C 0.18801 0.52106 0.32736 0.0
C1211 C 0.15271 0.50838 0.34379 0.0
C1212 C 0.16063 0.51748 0.36872 0.0
C1213 C 0.18226 0.52895 0.37257 0.0
C1214 C 0.19582 0.5306 0.35221 0.0
C1215 C 0.1464 0.51414 0.39137 0.0
C1216 C 0.14601 0.5304 0.40152 0.0
C1217 C 0.13321 0.49498 0.40286 0.0
C1218 C 0.13323 0.47732 0.39328 0.0
C1219 C 0.15166 0.47684 0.39372 0.0
C1220 C 0.15157 0.46021 0.38441 0.0
C1221 C 0.13311 0.4439 0.37481 0.0
C1222 C 0.11467 0.44416 0.37458 0.0
C1223 C 0.11468 0.46078 0.38383 0.0
H1224 H 0.13307 0.43103 0.36762 0.0
H1225 H 0.12999 0.59095 0.45657 0.0
H1226 H 0.51886 0.04268 0.93123 0.0
H1227 H 0.55067 0.0716 0.91352 0.0
H1228 H 0.58746 0.05884 0.96837 0.0
H1229 H 0.55526 0.03015 0.98702 0.0
H1230 H 0.60576 0.09799 0.9612 0.0
H1231 H 0.57797 0.04272 0.90291 0.0
H1232 H 0.55192 0.0153 0.8749 0.0
H1233 H 0.54715 0.05711 0.82298 0.0
H1234 H 0.57257 0.08469 0.85122 0.0
H1235 H 0.69638 0.15107 0.87405 0.0
H1236 H 0.66721 0.12521 0.90106 0.0
H1237 H 0.62518 0.13879 0.85978 0.0
H1238 H 0.65418 0.16459 0.83281 0.0
H1239 H 0.61155 0.09826 0.86141 0.0
H1240 H 0.63904 0.15341 0.92244 0.0
H1241 H 0.66661 0.1802 0.94981 0.0
H1242 H 0.67426 0.1374 0.9952 0.0
H1243 H 0.64692 0.11036 0.96782 0.0
C1244 C 0.53373 0.04633 0.93993 0.0
C1245 C 0.53469 0.03418 0.96034 0.0
C1246 C 0.55192 0.06278 0.92968 0.0
C1247 C 0.57155 0.06707 0.93898 0.0
C1248 C 0.57251 0.05573 0.96069 0.0
C1249 C 0.55415 0.0394 0.9714 0.0
C1250 C 0.59081 0.08247 0.92466 0.0
C1251 C 0.60712 0.09788 0.93942 0.0
C1252 C 0.59268 0.08244 0.89616 0.0
C1253 C 0.57705 0.06578 0.87938 0.0
C1254 C 0.57116 0.04605 0.88573 0.0
C1255 C 0.55648 0.03046 0.86982 0.0
C1256 C 0.5478 0.03444 0.84725 0.0
C1257 C 0.55378 0.05401 0.84056 0.0
C1258 C 0.56828 0.06963 0.85656 0.0
C1259 C 0.68091 0.14852 0.87078 0.0
C1260 C 0.67756 0.15986 0.85132 0.0
C1261 C 0.66431 0.13386 0.88634 0.0
C1262 C 0.64406 0.13018 0.88254 0.0
C1263 C 0.6407 0.14146 0.86311 0.0
C1264 C 0.65729 0.15624 0.8478 0.0
C1265 C 0.6261 0.11397 0.89783 0.0
C1266 C 0.61012 0.09831 0.88319 0.0
C1267 C 0.62473 0.11366 0.92635 0.0
C1268 C 0.64109 0.12989 0.94288 0.0
C1269 C 0.64673 0.14973 0.93809 0.0
C1270 C 0.66229 0.16495 0.95365 0.0
C1271 C 0.67223 0.16051 0.97418 0.0
C1272 C 0.66658 0.14082 0.97926 0.0
C1273 C 0.65104 0.12554 0.96375 0.0
H1274 H 0.68427 0.17232 0.9862 0.0
H1275 H 0.53649 0.02236 0.8349 0.0
H1276 H 0.50711 0.54518 0.41429 0.0
H1277 H 0.5126 0.5743 0.38944 0.0
H1278 H 0.57668 0.59234 0.37499 0.0
H1279 H 0.57158 0.56357 0.40168 0.0
H1280 H 0.57516 0.62256 0.3913 0.0
H1281 H 0.53856 0.5751 0.32271 0.0
H1282 H 0.51082 0.54397 0.30255 0.0
H1283 H 0.46522 0.55867 0.32302 0.0
H1284 H 0.4926 0.58977 0.34338 0.0
H1285 H 0.57973 0.7028 0.31126 0.0
H1286 H 0.5815 0.67368 0.32499 0.0
H1287 H 0.51944 0.64582 0.35809 0.0
H1288 H 0.51771 0.67494 0.34502 0.0
H1289 H 0.52479 0.6212 0.32435 0.0
H1290 H 0.56035 0.6653 0.39917 0.0
H1291 H 0.58772 0.69651 0.41959 0.0
H1292 H 0.635 0.68781 0.38718 0.0
H1293 H 0.60788 0.65666 0.36624 0.0
C1294 C 0.52243 0.5553 0.40599 0.0
C1295 C 0.53901 0.55215 0.41042 0.0
C1296 C 0.52546 0.57184 0.39127 0.0
C1297 C 0.54498 0.58541 0.37991 0.0
C1298 C 0.56144 0.582 0.38345 0.0
C1299 C 0.55847 0.56549 0.39854 0.0
C1300 C 0.54837 0.60389 0.36648 0.0
C1301 C 0.56445 0.62225 0.37613 0.0
C1302 C 0.53423 0.60354 0.34697 0.0
C1303 C 0.51767 0.58476 0.3347 0.0
C1304 C 0.52259 0.57163 0.32306 0.0
C1305 C 0.50692 0.554 0.31151 0.0
C1306 C 0.48626 0.54934 0.31146 0.0
C1307 C 0.48122 0.5623 0.32294 0.0
C1308 C 0.49683 0.57997 0.33443 0.0
C1309 C 0.56663 0.69063 0.32195 0.0
C1310 C 0.54856 0.69116 0.32706 0.0
C1311 C 0.56762 0.67397 0.32958 0.0
C1312 C 0.55056 0.65761 0.34243 0.0
C1313 C 0.53269 0.65825 0.34796 0.0
C1314 C 0.53173 0.67489 0.34048 0.0
C1315 C 0.55102 0.63959 0.34996 0.0
C1316 C 0.53573 0.62142 0.33907 0.0
C1317 C 0.56584 0.6401 0.36829 0.0
C1318 C 0.58212 0.65881 0.38085 0.0
C1319 C 0.57659 0.67015 0.39618 0.0
C1320 C 0.59205 0.6878 0.40789 0.0
C1321 C 0.61309 0.69417 0.4046 0.0
C1322 C 0.6187 0.68288 0.38965 0.0
C1323 C 0.6033 0.66522 0.37787 0.0
H1324 H 0.62503 0.70784 0.4137 0.0
H1325 H 0.47415 0.53567 0.30255 0.0
H1326 H 0.51708 0.06068 0.56337 0.0
H1327 H 0.51224 0.08214 0.59292 0.0
H1328 H 0.47662 0.09053 0.53097 0.0
H1329 H 0.48075 0.06851 0.50134 0.0
H1330 H 0.50727 0.12617 0.55586 0.0
H1331 H 0.45114 0.06071 0.58144 0.0
H1332 H 0.43564 0.02565 0.59584 0.0
H1333 H 0.47274 0.04388 0.66813 0.0
H1334 H 0.4887 0.07906 0.65396 0.0
H1335 H 0.47109 0.17396 0.63827 0.0
H1336 H 0.47288 0.1512 0.60757 0.0
H1337 H 0.49828 0.132 0.67149 0.0
H1338 H 0.49522 0.15373 0.70286 0.0
H1339 H 0.47176 0.10134 0.64443 0.0
H1340 H 0.52911 0.16596 0.61959 0.0
H1341 H 0.54643 0.20132 0.6058 0.0
H1342 H 0.50964 0.18538 0.53325 0.0
H1343 H 0.4919 0.14992 0.54679 0.0
C1344 C 0.50796 0.06678 0.55595 0.0
C1345 C 0.49915 0.06255 0.52983 0.0
C1346 C 0.50531 0.07919 0.57294 0.0
C1347 C 0.49392 0.08778 0.56423 0.0
C1348 C 0.48547 0.08402 0.53808 0.0
C1349 C 0.48793 0.07144 0.52111 0.0
C1350 C 0.49089 0.1007 0.58252 0.0
C1351 C 0.49923 0.12071 0.57506 0.0
C1352 C 0.48092 0.09366 0.60787 0.0
C1353 C 0.47126 0.07252 0.61651 0.0
C1354 C 0.45612 0.05724 0.6003 0.0
C1355 C 0.44723 0.03735 0.60844 0.0
C1356 C 0.45324 0.03254 0.63285 0.0
C1357 C 0.46812 0.04762 0.64921 0.0
C1358 C 0.47708 0.06754 0.64114 0.0
C1359 C 0.47675 0.16468 0.64601 0.0
C1360 C 0.48309 0.16582 0.67315 0.0
C1361 C 0.47805 0.15185 0.62825 0.0
C1362 C 0.48611 0.14012 0.637 0.0
C1363 C 0.49213 0.14096 0.66415 0.0
C1364 C 0.49059 0.1536 0.68203 0.0
C1365 C 0.48827 0.12697 0.61793 0.0
C1366 C 0.47976 0.10687 0.62523 0.0
C1367 C 0.49835 0.13401 0.59257 0.0
C1368 C 0.50903 0.15531 0.58434 0.0
C1369 C 0.5246 0.17001 0.60079 0.0
C1370 C 0.53451 0.19006 0.59301 0.0
C1371 C 0.5291 0.19559 0.5687 0.0
C1372 C 0.5138 0.18107 0.5521 0.0
C1373 C 0.50382 0.161 0.5598 0.0
H1374 H 0.53679 0.21113 0.56271 0.0
H1375 H 0.44634 0.01713 0.63912 0.0
H1376 H 0.46089 0.50649 0.03 0.0
H1377 H 0.43265 0.51063 0.04598 0.0
H1378 H 0.41384 0.46196 0.10292 0.0
H1379 H 0.44145 0.45746 0.08674 0.0
H1380 H 0.38064 0.46063 0.08341 0.0
H1381 H 0.44721 0.51139 0.12022 0.0
H1382 H 0.48339 0.54008 0.11805 0.0
H1383 H 0.46244 0.57458 0.07565 0.0
H1384 H 0.4262 0.54601 0.07724 0.0
H1385 H 0.358 0.51372 0.19547 0.0
H1386 H 0.38228 0.50955 0.16821 0.0
H1387 H 0.33877 0.48963 0.10164 0.0
H1388 H 0.31439 0.49375 0.12882 0.0
H1389 H 0.40222 0.52612 0.12208 0.0
H1390 H 0.34269 0.4544 0.06736 0.0
H1391 H 0.30742 0.42499 0.0744 0.0
H1392 H 0.31587 0.43088 0.16037 0.0
H1393 H 0.35127 0.46014 0.15383 0.0
C1394 C 0.45043 0.49642 0.0455 0.0
C1395 C 0.45353 0.48177 0.05728 0.0
C1396 C 0.4344 0.49889 0.05475 0.0
C1397 C 0.42134 0.48683 0.07599 0.0
C1398 C 0.42371 0.47148 0.08658 0.0
C1399 C 0.43961 0.46898 0.07734 0.0
C1400 C 0.40609 0.49077 0.08867 0.0
C1401 C 0.38532 0.47502 0.09159 0.0
C1402 C 0.41221 0.50945 0.09977 0.0
C1403 C 0.43404 0.5265 0.09857 0.0
C1404 C 0.45036 0.52504 0.11022 0.0
C1405 C 0.47087 0.54128 0.10913 0.0
C1406 C 0.47519 0.55911 0.09666 0.0
C1407 C 0.45905 0.56074 0.08525 0.0
C1408 C 0.43854 0.54454 0.08623 0.0
C1409 C 0.35367 0.50861 0.17495 0.0
C1410 C 0.33422 0.50398 0.16436 0.0
C1411 C 0.36755 0.50622 0.15939 0.0
C1412 C 0.36229 0.49913 0.13295 0.0
C1413 C 0.34304 0.49482 0.12213 0.0
C1414 C 0.3291 0.49713 0.13772 0.0
C1415 C 0.37685 0.49594 0.117 0.0
C1416 C 0.39746 0.51183 0.11346 0.0
C1417 C 0.37071 0.47728 0.10588 0.0
C1418 C 0.34952 0.45959 0.11007 0.0
C1419 C 0.33703 0.44938 0.08775 0.0
C1420 C 0.31702 0.43274 0.09166 0.0
C1421 C 0.30938 0.42612 0.11781 0.0
C1422 C 0.32177 0.43607 0.14012 0.0
C1423 C 0.3418 0.4527 0.13633 0.0
H1424 H 0.29388 0.41325 0.12079 0.0
H1425 H 0.49101 0.5717 0.09591 0.0
H1426 H 0.9876 0.42865 0.58176 0.0
H1427 H 0.95601 0.3995 0.59935 0.0
H1428 H 0.91957 0.42408 0.57078 0.0
H1429 H 0.9514 0.45355 0.55308 0.0
H1430 H 0.91176 0.41217 0.62387 0.0
H1431 H 0.91377 0.38323 0.54152 0.0
H1432 H 0.9295 0.37435 0.50535 0.0
H1433 H 0.94274 0.34053 0.56236 0.0
H1434 H 0.92735 0.34944 0.59898 0.0
H1435 H 0.81894 0.32462 0.67069 0.0
H1436 H 0.84483 0.35151 0.64156 0.0
H1437 H 0.88907 0.3339 0.66076 0.0
H1438 H 0.86333 0.30707 0.69003 0.0
H1439 H 0.88975 0.34203 0.60768 0.0
H1440 H 0.89173 0.37397 0.69039 0.0
H1441 H 0.87702 0.38332 0.72734 0.0
H1442 H 0.85715 0.41184 0.6701 0.0
H1443 H 0.87151 0.40242 0.63275 0.0
C1444 C 0.97282 0.42773 0.57873 0.0
C1445 C 0.97201 0.44342 0.566 0.0
C1446 C 0.95473 0.41099 0.58874 0.0
C1447 C 0.93536 0.40951 0.5863 0.0
C1448 C 0.93435 0.42487 0.57283 0.0
C1449 C 0.9525 0.44163 0.56255 0.0
C1450 C 0.91666 0.39262 0.59971 0.0
C1451 C 0.90662 0.39681 0.61988 0.0
C1452 C 0.91029 0.37258 0.59503 0.0
C1453 C 0.91952 0.36712 0.57305 0.0
C1454 C 0.92017 0.37402 0.5464 0.0
C1455 C 0.929 0.36896 0.5258 0.0
C1456 C 0.93715 0.35691 0.53156 0.0
C1457 C 0.93643 0.34987 0.55793 0.0
C1458 C 0.92762 0.3549 0.57861 0.0
C1459 C 0.83423 0.32655 0.6689 0.0
C1460 C 0.83905 0.31369 0.68285 0.0
C1461 C 0.84901 0.34191 0.65215 0.0
C1462 C 0.86899 0.34487 0.64911 0.0
C1463 C 0.87374 0.33189 0.66268 0.0
C1464 C 0.85898 0.31652 0.67939 0.0
C1465 C 0.88509 0.36161 0.63211 0.0
C1466 C 0.89467 0.35738 0.61135 0.0
C1467 C 0.89112 0.38162 0.63633 0.0
C1468 C 0.88247 0.38728 0.65875 0.0
C1469 C 0.88406 0.38209 0.68566 0.0
C1470 C 0.87582 0.38743 0.70668 0.0
C1471 C 0.8661 0.39811 0.70106 0.0
C1472 C 0.86465 0.40353 0.67441 0.0
C1473 C 0.87284 0.3982 0.65331 0.0
H1474 H 0.85974 0.40224 0.71736 0.0
H1475 H 0.94398 0.35301 0.51559 0.0
H1476 H 0.46586 0.90709 0.02427 0.0
H1477 H 0.47071 0.88529 0.05549 0.0
H1478 H 0.53558 0.91492 0.03257 0.0
H1479 H 0.53041 0.93607 1.00049 0.0
H1480 H 0.52125 0.8773 0.03999 0.0
H1481 H 0.51767 0.9268 0.09122 0.0
H1482 H 0.50161 0.94534 0.1064 0.0
H1483 H 0.44864 0.8911 0.13649 0.0
H1484 H 0.46427 0.87223 0.12129 0.0
H1485 H 0.55759 0.84912 0.15505 0.0
H1486 H 0.55163 0.86896 0.12164 0.0
H1487 H 0.48599 0.83588 0.14083 0.0
H1488 H 0.49194 0.81645 0.1749 0.0
H1489 H 0.50048 0.87489 0.13542 0.0
H1490 H 0.50414 0.82553 0.08481 0.0
H1491 H 0.5201 0.80686 0.0699 0.0
H1492 H 0.57294 0.86083 0.03891 0.0
H1493 H 0.55741 0.87988 0.05398 0.0
C1494 C 0.48103 0.90865 0.02569 0.0
C1495 C 0.49778 0.92322 0.01015 0.0
C1496 C 0.48385 0.89635 0.04363 0.0
C1497 C 0.50366 0.89884 0.04695 0.0
C1498 C 0.52018 0.91279 0.03048 0.0
C1499 C 0.51723 0.92481 0.0121 0.0
C1500 C 0.50736 0.88744 0.0682 0.0
C1501 C 0.51694 0.87699 0.06091 0.0
C1502 C 0.50136 0.88667 0.09545 0.0
C1503 C 0.49207 0.89809 0.10491 0.0
C1504 C 0.50255 0.91883 0.10097 0.0
C1505 C 0.49353 0.9294 0.1096 0.0
C1506 C 0.47411 0.91941 0.12241 0.0
C1507 C 0.46368 0.89884 0.12663 0.0
C1508 C 0.47263 0.8882 0.11803 0.0
C1509 C 0.54194 0.84627 0.15243 0.0
C1510 C 0.5252 0.83113 0.16749 0.0
C1511 C 0.53852 0.85747 0.13314 0.0
C1512 C 0.51831 0.85366 0.12846 0.0
C1513 C 0.50169 0.83897 0.14401 0.0
C1514 C 0.50509 0.82778 0.1633 0.0
C1515 C 0.5144 0.86485 0.10718 0.0
C1516 C 0.50479 0.87524 0.11449 0.0
C1517 C 0.52041 0.8656 0.07999 0.0
C1518 C 0.5297 0.85415 0.07075 0.0
C1519 C 0.51923 0.83344 0.07499 0.0
C1520 C 0.52819 0.82278 0.06648 0.0
C1521 C 0.54754 0.83266 0.05353 0.0
C1522 C 0.55796 0.8532 0.04898 0.0
C1523 C 0.54908 0.86393 0.05748 0.0
H1524 H 0.55445 0.82438 0.04696 0.0
H1525 H 0.46719 0.92763 0.12913 0.0
H1526 H 0.57113 0.55722 0.54457 0.0
H1527 H 0.5965 0.55914 0.57765 0.0
H1528 H 0.55668 0.49644 0.5956 0.0
H1529 H 0.53088 0.49459 0.56334 0.0
H1530 H 0.57596 0.51448 0.63998 0.0
H1531 H 0.59768 0.51449 0.54987 0.0
H1532 H 0.60609 0.52558 0.50228 0.0
H1533 H 0.65495 0.58327 0.52755 0.0
H1534 H 0.64662 0.5726 0.57534 0.0
H1535 H 0.6585 0.50019 0.6856 0.0
H1536 H 0.62964 0.49893 0.66048 0.0
H1537 H 0.66476 0.56282 0.65212 0.0
H1538 H 0.69342 0.56434 0.67798 0.0
H1539 H 0.64753 0.54351 0.60359 0.0
H1540 H 0.62516 0.54113 0.69543 0.0
H1541 H 0.61651 0.52749 0.74201 0.0
H1542 H 0.5687 0.47098 0.71185 0.0
H1543 H 0.57732 0.48423 0.66509 0.0
C1544 C 0.56756 0.54392 0.55597 0.0
C1545 C 0.54904 0.52573 0.55107 0.0
C1546 C 0.58216 0.545 0.57476 0.0
C1547 C 0.57884 0.52781 0.58861 0.0
C1548 C 0.55974 0.50989 0.58507 0.0
C1549 C 0.54496 0.50887 0.56658 0.0
C1550 C 0.5958 0.52829 0.60526 0.0
C1551 C 0.59155 0.52068 0.63191 0.0
C1552 C 0.61623 0.53636 0.59488 0.0
C1553 C 0.62138 0.54281 0.56617 0.0
C1554 C 0.61012 0.52958 0.54528 0.0
C1555 C 0.61488 0.53579 0.51827 0.0
C1556 C 0.63101 0.55514 0.51189 0.0
C1557 C 0.64244 0.5683 0.53252 0.0
C1558 C 0.63771 0.56218 0.55957 0.0
C1559 C 0.66002 0.51403 0.67884 0.0
C1560 C 0.67843 0.53238 0.68389 0.0
C1561 C 0.64349 0.51325 0.66437 0.0
C1562 C 0.64499 0.53078 0.65452 0.0
C1563 C 0.66328 0.5491 0.65945 0.0
C1564 C 0.67974 0.54991 0.67411 0.0
C1565 C 0.62778 0.53005 0.63836 0.0
C1566 C 0.63197 0.53747 0.61169 0.0
C1567 C 0.60728 0.52148 0.64859 0.0
C1568 C 0.60197 0.51361 0.67674 0.0
C1569 C 0.6129 0.52575 0.69873 0.0
C1570 C 0.608 0.51811 0.72517 0.0
C1571 C 0.5921 0.49837 0.72988 0.0
C1572 C 0.58102 0.48626 0.70818 0.0
C1573 C 0.58589 0.49384 0.68171 0.0
H1574 H 0.58834 0.49247 0.75034 0.0
H1575 H 0.63467 0.55991 0.49097 0.0
H1576 H 0.03988 0.53988 0.11184 0.0
H1577 H 0.06782 0.56366 0.14121 0.0
H1578 H 0.0429 0.602 0.13584 0.0
H1579 H 0.01487 0.57819 0.10657 0.0
H1580 H 0.0974 0.59996 0.12783 0.0
H1581 H 0.05648 0.63043 0.19194 0.0
H1582 H 0.02215 0.61842 0.21271 0.0
H1583 H 0.01029 0.55896 0.21627 0.0
H1584 H 0.04465 0.57065 0.19587 0.0
H1585 H 0.17102 0.69431 0.17956 0.0
H1586 H 0.14011 0.66674 0.15833 0.0
H1587 H 0.12399 0.63342 0.23366 0.0
H1588 H 0.1546 0.6611 0.25515 0.0
H1589 H 0.09006 0.63085 0.20976 0.0
H1590 H 0.14619 0.62246 0.18459 0.0
H1591 H 0.18067 0.63261 0.16587 0.0
H1592 H 0.16219 0.64392 0.0884 0.0
H1593 H 0.12769 0.63414 0.10677 0.0
C1594 C 0.04022 0.55327 0.11721 0.0
C1595 C 0.02524 0.55721 0.10679 0.0
C1596 C 0.05618 0.56684 0.13398 0.0
C1597 C 0.05747 0.58462 0.14073 0.0
C1598 C 0.04206 0.58825 0.13123 0.0
C1599 C 0.02601 0.57461 0.11454 0.0
C1600 C 0.07577 0.59997 0.15597 0.0
C1601 C 0.09577 0.60666 0.14579 0.0
C1602 C 0.07368 0.60856 0.17958 0.0
C1603 C 0.05307 0.60141 0.19214 0.0
C1604 C 0.04658 0.61481 0.19726 0.0
C1605 C 0.02711 0.60805 0.20895 0.0
C1606 C 0.01402 0.58793 0.21573 0.0
C1607 C 0.02041 0.57453 0.21091 0.0
C1608 C 0.03987 0.58121 0.19925 0.0
C1609 C 0.1608 0.68117 0.19162 0.0
C1610 C 0.1653 0.67981 0.21896 0.0
C1611 C 0.14324 0.66538 0.17945 0.0
C1612 C 0.12988 0.64797 0.19437 0.0
C1613 C 0.13414 0.64671 0.22177 0.0
C1614 C 0.15172 0.66245 0.23394 0.0
C1615 C 0.11158 0.63099 0.18131 0.0
C1616 C 0.09163 0.62407 0.19184 0.0
C1617 C 0.1137 0.62191 0.15828 0.0
C1618 C 0.13443 0.62777 0.14715 0.0
C1619 C 0.14954 0.62729 0.16363 0.0
C1620 C 0.16908 0.63296 0.15308 0.0
C1621 C 0.17365 0.639 0.126 0.0
C1622 C 0.15865 0.6393 0.10939 0.0
C1623 C 0.13909 0.63368 0.11986 0.0
H1624 H 0.18877 0.64334 0.11786 0.0
H1625 H 0.99895 0.58273 0.22476 0.0
loop_
_geom_bond_atom_site_label_1
_geom_bond_atom_site_label_2
_geom_bond_distance
_geom_bond_site_symmetry_2
_ccdc_geom_bond_type
Cu0 N1 1.999 1_454 S
Cu0 O6 1.974 1_454 S
Cu0 N11 1.985 . S
Cu0 O20 1.959 . S
N1 Cu0 1.999 1_656 S
N1 C3 1.263 . S
N1 C5 1.389 1_556 S
N2 C3 1.358 . S
N2 C4 1.400 . S
C3 N1 1.263 . S
C3 N2 1.358 . S
C3 H9 0.930 . S
C4 N2 1.400 . S
C4 C5 1.351 1_556 S
C4 H21 0.930 . S
C5 N1 1.389 1_554 S
C5 C4 1.351 1_554 S
C5 H10 0.930 . S
O6 Cu0 1.974 1_656 S
O6 C16 1.282 . S
C7 O8 1.261 1_554 S
C7 O20 1.251 . S
O8 C7 1.261 1_556 S
H9 C3 0.930 . S
H10 C5 0.930 . S
N11 Cu0 1.985 . S
N11 C13 1.335 . S
N11 C14 1.390 . S
N12 C13 1.345 . S
N12 C15 1.336 . S
C13 N11 1.335 . S
C13 N12 1.345 . S
C13 H18 0.930 . S
C14 N11 1.390 . S
C14 C15 1.346 . S
C14 H19 0.930 1_554 S
C15 N12 1.336 . S
C15 C14 1.346 . S
C15 H22 0.929 . S
C16 O6 1.282 . S
C16 O17 1.216 1_655 S
O17 C16 1.216 1_455 S
H18 C13 0.930 . S
H19 C14 0.930 1_556 S
O20 Cu0 1.959 . S
O20 C7 1.251 . S
H21 C4 0.930 . S
H22 C15 0.929 . S
Cu23 N24 1.999 . S
Cu23 O29 1.974 . S
Cu23 N34 1.985 1_565 S
Cu23 O43 1.959 1_565 S
N24 Cu23 1.999 . S
N24 C26 1.263 . S
N24 C28 1.389 . S
N25 C26 1.358 . S
N25 C27 1.400 . S
C26 N24 1.263 . S
C26 N25 1.358 . S
C26 H32 0.930 . S
C27 N25 1.400 . S
C27 C28 1.351 . S
C27 H44 0.930 . S
C28 N24 1.389 . S
C28 C27 1.351 . S
C28 H33 0.930 . S
O29 Cu23 1.974 . S
O29 C39 1.282 . S
C30 O31 1.261 . S
C30 O43 1.251 . S
O31 C30 1.261 . S
H32 C26 0.930 . S
H33 C28 0.930 . S
N34 Cu23 1.985 1_545 S
N34 C36 1.335 . S
N34 C37 1.390 . S
N35 C36 1.345 . S
N35 C38 1.336 . S
C36 N34 1.335 . S
C36 N35 1.345 . S
C36 H41 0.930 . S
C37 N34 1.390 . S
C37 C38 1.346 . S
C37 H42 0.930 . S
C38 N35 1.336 . S
C38 C37 1.346 . S
C38 H45 0.929 . S
C39 O29 1.282 . S
C39 O40 1.216 . S
O40 C39 1.216 . S
H41 C36 0.930 . S
H42 C37 0.930 . S
O43 Cu23 1.959 1_545 S
O43 C30 1.251 . S
H44 C27 0.930 . S
H45 C38 0.929 . S
Cu46 N47 1.999 1_554 S
Cu46 O52 1.974 1_554 S
Cu46 N57 1.985 . S
Cu46 O66 1.959 . S
N47 Cu46 1.999 1_556 S
N47 C49 1.263 . S
N47 C51 1.389 . S
N48 C49 1.358 . S
N48 C50 1.400 . S
C49 N47 1.263 . S
C49 N48 1.358 . S
C49 H55 0.930 . S
C50 N48 1.400 . S
C50 C51 1.351 . S
C50 H67 0.930 . S
C51 N47 1.389 . S
C51 C50 1.351 . S
C51 H56 0.930 . S
O52 Cu46 1.974 1_556 S
O52 C62 1.282 . S
C53 O54 1.261 . S
C53 O66 1.251 . S
O54 C53 1.261 . S
H55 C49 0.930 . S
H56 C51 0.930 . S
N57 Cu46 1.985 . S
N57 C59 1.335 . S
N57 C60 1.390 . S
N58 C59 1.345 . S
N58 C61 1.336 . S
C59 N57 1.335 . S
C59 N58 1.345 . S
C59 H64 0.930 . S
C60 N57 1.390 . S
C60 C61 1.346 . S
C60 H65 0.930 . S
C61 N58 1.336 . S
C61 C60 1.346 . S
C61 H68 0.929 . S
C62 O52 1.282 . S
C62 O63 1.216 1_556 S
O63 C62 1.216 1_554 S
H64 C59 0.930 . S
H65 C60 0.930 . S
O66 Cu46 1.959 . S
O66 C53 1.251 . S
H67 C50 0.930 . S
H68 C61 0.929 . S
Cu69 N70 1.999 1_655 S
Cu69 O75 1.974 1_655 S
Cu69 N80 1.985 . S
Cu69 O89 1.959 . S
N70 Cu69 1.999 1_455 S
N70 C72 1.263 . S
N70 C74 1.389 1_455 S
N71 C72 1.358 . S
N71 C73 1.400 . S
C72 N70 1.263 . S
C72 N71 1.358 . S
C72 H78 0.930 . S
C73 N71 1.400 . S
C73 C74 1.351 1_455 S
C73 H90 0.930 . S
C74 N70 1.389 1_655 S
C74 C73 1.351 1_655 S
C74 H79 0.930 . S
O75 Cu69 1.974 1_455 S
O75 C85 1.282 . S
C76 O77 1.261 . S
C76 O89 1.251 . S
O77 C76 1.261 . S
H78 C72 0.930 . S
H79 C74 0.930 . S
N80 Cu69 1.985 . S
N80 C82 1.335 . S
N80 C83 1.390 . S
N81 C82 1.345 . S
N81 C84 1.336 . S
C82 N80 1.335 . S
C82 N81 1.345 . S
C82 H87 0.930 . S
C83 N80 1.390 . S
C83 C84 1.346 . S
C83 H88 0.930 1_655 S
C84 N81 1.336 . S
C84 C83 1.346 . S
C84 H91 0.929 . S
C85 O75 1.282 . S
C85 O86 1.216 . S
O86 C85 1.216 . S
H87 C82 0.930 . S
H88 C83 0.930 1_455 S
O89 Cu69 1.959 . S
O89 C76 1.251 . S
H90 C73 0.930 . S
H91 C84 0.929 . S
Cu92 N93 1.999 . S
Cu92 O98 1.974 . S
Cu92 N103 1.985 1_545 S
Cu92 O112 1.959 1_545 S
N93 Cu92 1.999 . S
N93 C95 1.263 1_554 S
N93 C97 1.389 . S
N94 C95 1.358 . S
N94 C96 1.400 1_556 S
C95 N93 1.263 1_556 S
C95 N94 1.358 . S
C95 H101 0.930 . S
C96 N94 1.400 1_554 S
C96 C97 1.351 . S
C96 H113 0.930 . S
C97 N93 1.389 . S
C97 C96 1.351 . S
C97 H102 0.930 . S
O98 Cu92 1.974 . S
O98 C108 1.282 1_554 S
C99 O100 1.261 . S
C99 O112 1.251 . S
O100 C99 1.261 . S
H101 C95 0.930 . S
H102 C97 0.930 . S
N103 Cu92 1.985 1_565 S
N103 C105 1.335 . S
N103 C106 1.390 . S
N104 C105 1.345 . S
N104 C107 1.336 . S
C105 N103 1.335 . S
C105 N104 1.345 . S
C105 H110 0.930 . S
C106 N103 1.390 . S
C106 C107 1.346 . S
C106 H111 0.930 1_565 S
C107 N104 1.336 . S
C107 C106 1.346 . S
C107 H114 0.929 . S
C108 O98 1.282 1_556 S
C108 O109 1.216 . S
O109 C108 1.216 . S
H110 C105 0.930 . S
H111 C106 0.930 1_545 S
O112 Cu92 1.959 1_565 S
O112 C99 1.251 . S
H113 C96 0.930 . S
H114 C107 0.929 . S
Cu115 N116 1.999 . S
Cu115 O121 1.974 . S
Cu115 N126 1.985 . S
Cu115 O135 1.959 . S
N116 Cu115 1.999 . S
N116 C118 1.263 . S
N116 C120 1.389 . S
N117 C118 1.358 . S
N117 C119 1.400 . S
C118 N116 1.263 . S
C118 N117 1.358 . S
C118 H124 0.930 . S
C119 N117 1.400 . S
C119 C120 1.351 . S
C119 H136 0.930 . S
C120 N116 1.389 . S
C120 C119 1.351 . S
C120 H125 0.930 . S
O121 Cu115 1.974 . S
O121 C131 1.282 . S
C122 O123 1.261 . S
C122 O135 1.251 . S
O123 C122 1.261 . S
H124 C118 0.930 . S
H125 C120 0.930 . S
N126 Cu115 1.985 . S
N126 C128 1.335 . S
N126 C129 1.390 . S
N127 C128 1.345 . S
N127 C130 1.336 . S
C128 N126 1.335 . S
C128 N127 1.345 . S
C128 H133 0.930 . S
C129 N126 1.390 . S
C129 C130 1.346 . S
C129 H134 0.930 . S
C130 N127 1.336 . S
C130 C129 1.346 . S
C130 H137 0.929 . S
C131 O121 1.282 . S
C131 O132 1.216 . S
O132 C131 1.216 . S
H133 C128 0.930 . S
H134 C129 0.930 . S
O135 Cu115 1.959 . S
O135 C122 1.251 . S
H136 C119 0.930 . S
H137 C130 0.929 . S
H138 C157 0.949 . S
H139 C158 0.950 . S
H140 C160 0.950 . S
H141 C161 0.950 . S
H142 C163 0.950 . S
H143 C166 0.950 . S
H144 C167 0.950 . S
H145 C169 0.951 . S
H146 C170 0.949 . S
H147 C172 0.949 . S
H148 C173 0.950 . S
H149 C175 0.950 . S
H150 C176 0.950 . S
H151 C178 0.950 . S
H152 C181 0.950 . S
H153 C182 0.950 . S
H154 C184 0.951 . S
H155 C185 0.949 . S
C156 C157 1.376 . S
C156 C161 1.386 . S
C156 C162 1.483 . S
C157 H138 0.949 . S
C157 C156 1.376 . S
C157 C158 1.397 . S
C158 H139 0.950 . S
C158 C157 1.397 . S
C158 C159 1.391 . S
C159 C158 1.391 . S
C159 C160 1.405 . S
C160 H140 0.950 . S
C160 C159 1.405 . S
C160 C161 1.367 . S
C161 H141 0.950 . S
C161 C156 1.386 . S
C161 C160 1.367 . S
C162 C156 1.483 . S
C162 C163 1.382 . S
C162 C164 1.403 . S
C163 H142 0.950 . S
C163 C162 1.382 . S
C163 C179 1.411 . S
C164 C162 1.403 . S
C164 C165 1.489 . S
C164 C178 1.411 . S
C165 C164 1.489 . S
C165 C166 1.383 . S
C165 C170 1.382 . S
C166 H143 0.950 . S
C166 C165 1.383 . S
C166 C167 1.395 . S
C167 H144 0.950 . S
C167 C166 1.395 . S
C167 C168 1.288 . S
C168 C167 1.288 . S
C168 C169 1.392 . S
C169 H145 0.951 . S
C169 C168 1.392 . S
C169 C170 1.392 . S
C170 H146 0.949 . S
C170 C165 1.382 . S
C170 C169 1.392 . S
C171 C172 1.376 . S
C171 C176 1.386 . S
C171 C177 1.483 . S
C172 H147 0.949 . S
C172 C171 1.376 . S
C172 C173 1.397 . S
C173 H148 0.950 . S
C173 C172 1.397 . S
C173 C174 1.391 . S
C174 C173 1.391 . S
C174 C175 1.405 . S
C175 H149 0.950 . S
C175 C174 1.405 . S
C175 C176 1.367 . S
C176 H150 0.950 . S
C176 C171 1.386 . S
C176 C175 1.367 . S
C177 C171 1.483 . S
C177 C178 1.382 . S
C177 C179 1.403 . S
C178 H151 0.950 . S
C178 C164 1.411 . S
C178 C177 1.382 . S
C179 C163 1.411 . S
C179 C177 1.403 . S
C179 C180 1.489 . S
C180 C179 1.489 . S
C180 C181 1.383 . S
C180 C185 1.382 . S
C181 H152 0.950 . S
C181 C180 1.383 . S
C181 C182 1.395 . S
C182 H153 0.950 . S
C182 C181 1.395 . S
C182 C183 1.288 . S
C183 C182 1.288 . S
C183 C184 1.392 . S
C184 H154 0.951 . S
C184 C183 1.392 . S
C184 C185 1.392 . S
C185 H155 0.949 . S
C185 C180 1.382 . S
C185 C184 1.392 . S
H186 C205 0.949 . S
H187 C206 0.950 . S
H188 C208 0.950 . S
H189 C209 0.950 . S
H190 C211 0.950 . S
H191 C214 0.950 . S
H192 C215 0.950 . S
H193 C217 0.951 . S
H194 C218 0.949 . S
H195 C220 0.949 . S
H196 C221 0.950 . S
H197 C223 0.950 . S
H198 C224 0.950 . S
H199 C226 0.950 . S
H200 C229 0.950 . S
H201 C230 0.950 . S
H202 C232 0.951 . S
H203 C233 0.949 . S
C204 C205 1.376 . S
C204 C209 1.386 . S
C204 C210 1.483 . S
C205 H186 0.949 . S
C205 C204 1.376 . S
C205 C206 1.397 . S
C206 H187 0.950 . S
C206 C205 1.397 . S
C206 C207 1.391 . S
C207 C206 1.391 . S
C207 C208 1.405 . S
C208 H188 0.950 . S
C208 C207 1.405 . S
C208 C209 1.367 . S
C209 H189 0.950 . S
C209 C204 1.386 . S
C209 C208 1.367 . S
C210 C204 1.483 . S
C210 C211 1.382 . S
C210 C212 1.403 . S
C211 H190 0.950 . S
C211 C210 1.382 . S
C211 C227 1.411 . S
C212 C210 1.403 . S
C212 C213 1.489 . S
C212 C226 1.411 . S
C213 C212 1.489 . S
C213 C214 1.383 . S
C213 C218 1.382 . S
C214 H191 0.950 . S
C214 C213 1.383 . S
C214 C215 1.395 . S
C215 H192 0.950 . S
C215 C214 1.395 . S
C215 C216 1.288 . S
C216 C215 1.288 . S
C216 C217 1.392 . S
C217 H193 0.951 . S
C217 C216 1.392 . S
C217 C218 1.392 . S
C218 H194 0.949 . S
C218 C213 1.382 . S
C218 C217 1.392 . S
C219 C220 1.376 . S
C219 C224 1.386 . S
C219 C225 1.483 . S
C220 H195 0.949 . S
C220 C219 1.376 . S
C220 C221 1.397 . S
C221 H196 0.950 . S
C221 C220 1.397 . S
C221 C222 1.391 . S
C222 C221 1.391 . S
C222 C223 1.405 . S
C223 H197 0.950 . S
C223 C222 1.405 . S
C223 C224 1.367 . S
C224 H198 0.950 . S
C224 C219 1.386 . S
C224 C223 1.367 . S
C225 C219 1.483 . S
C225 C226 1.382 . S
C225 C227 1.403 . S
C226 H199 0.950 . S
C226 C212 1.411 . S
C226 C225 1.382 . S
C227 C211 1.411 . S
C227 C225 1.403 . S
C227 C228 1.489 . S
C228 C227 1.489 . S
C228 C229 1.383 . S
C228 C233 1.382 . S
C229 H200 0.950 . S
C229 C228 1.383 . S
C229 C230 1.395 . S
C230 H201 0.950 . S
C230 C229 1.395 . S
C230 C231 1.288 . S
C231 C230 1.288 . S
C231 C232 1.392 . S
C232 H202 0.951 . S
C232 C231 1.392 . S
C232 C233 1.392 . S
C233 H203 0.949 . S
C233 C228 1.382 . S
C233 C232 1.392 . S
H234 C253 0.949 . S
H235 C254 0.950 . S
H236 C256 0.950 . S
H237 C257 0.950 . S
H238 C259 0.950 . S
H239 C262 0.950 . S
H240 C263 0.950 . S
H241 C265 0.951 . S
H242 C266 0.949 . S
H243 C268 0.949 . S
H244 C269 0.950 . S
H245 C271 0.950 . S
H246 C272 0.950 . S
H247 C274 0.950 . S
H248 C277 0.950 . S
H249 C278 0.950 . S
H250 C280 0.951 . S
H251 C281 0.949 . S
C252 C253 1.376 . S
C252 C257 1.386 . S
C252 C258 1.483 . S
C253 H234 0.949 . S
C253 C252 1.376 . S
C253 C254 1.397 . S
C254 H235 0.950 . S
C254 C253 1.397 . S
C254 C255 1.391 . S
C255 C254 1.391 . S
C255 C256 1.405 . S
C256 H236 0.950 . S
C256 C255 1.405 . S
C256 C257 1.367 . S
C257 H237 0.950 . S
C257 C252 1.386 . S
C257 C256 1.367 . S
C258 C252 1.483 . S
C258 C259 1.382 . S
C258 C260 1.403 . S
C259 H238 0.950 . S
C259 C258 1.382 . S
C259 C275 1.411 . S
C260 C258 1.403 . S
C260 C261 1.489 . S
C260 C274 1.411 . S
C261 C260 1.489 . S
C261 C262 1.383 . S
C261 C266 1.382 . S
C262 H239 0.950 . S
C262 C261 1.383 . S
C262 C263 1.395 . S
C263 H240 0.950 . S
C263 C262 1.395 . S
C263 C264 1.288 . S
C264 C263 1.288 . S
C264 C265 1.392 . S
C265 H241 0.951 . S
C265 C264 1.392 . S
C265 C266 1.392 . S
C266 H242 0.949 . S
C266 C261 1.382 . S
C266 C265 1.392 . S
C267 C268 1.376 . S
C267 C272 1.386 . S
C267 C273 1.483 . S
C268 H243 0.949 . S
C268 C267 1.376 . S
C268 C269 1.397 . S
C269 H244 0.950 . S
C269 C268 1.397 . S
C269 C270 1.391 . S
C270 C269 1.391 . S
C270 C271 1.405 . S
C271 H245 0.950 . S
C271 C270 1.405 . S
C271 C272 1.367 . S
C272 H246 0.950 . S
C272 C267 1.386 . S
C272 C271 1.367 . S
C273 C267 1.483 . S
C273 C274 1.382 . S
C273 C275 1.403 . S
C274 H247 0.950 . S
C274 C260 1.411 . S
C274 C273 1.382 . S
C275 C259 1.411 . S
C275 C273 1.403 . S
C275 C276 1.489 . S
C276 C275 1.489 . S
C276 C277 1.383 . S
C276 C281 1.382 . S
C277 H248 0.950 . S
C277 C276 1.383 . S
C277 C278 1.395 . S
C278 H249 0.950 . S
C278 C277 1.395 . S
C278 C279 1.288 . S
C279 C278 1.288 . S
C279 C280 1.392 . S
C280 H250 0.951 . S
C280 C279 1.392 . S
C280 C281 1.392 . S
C281 H251 0.949 . S
C281 C276 1.382 . S
C281 C280 1.392 . S
H282 C301 0.949 . S
H283 C302 0.950 . S
H284 C304 0.950 . S
H285 C305 0.950 . S
H286 C307 0.950 . S
H287 C310 0.950 . S
H288 C311 0.950 . S
H289 C313 0.951 . S
H290 C314 0.949 . S
H291 C316 0.949 . S
H292 C317 0.950 . S
H293 C319 0.950 . S
H294 C320 0.950 . S
H295 C322 0.950 . S
H296 C325 0.950 . S
H297 C326 0.950 . S
H298 C328 0.951 . S
H299 C329 0.949 . S
C300 C301 1.376 . S
C300 C305 1.386 . S
C300 C306 1.483 . S
C301 H282 0.949 . S
C301 C300 1.376 . S
C301 C302 1.397 . S
C302 H283 0.950 . S
C302 C301 1.397 . S
C302 C303 1.391 . S
C303 C302 1.391 . S
C303 C304 1.405 . S
C304 H284 0.950 . S
C304 C303 1.405 . S
C304 C305 1.367 . S
C305 H285 0.950 . S
C305 C300 1.386 . S
C305 C304 1.367 . S
C306 C300 1.483 . S
C306 C307 1.382 . S
C306 C308 1.403 . S
C307 H286 0.950 . S
C307 C306 1.382 . S
C307 C323 1.411 . S
C308 C306 1.403 . S
C308 C309 1.489 . S
C308 C322 1.411 . S
C309 C308 1.489 . S
C309 C310 1.383 . S
C309 C314 1.382 . S
C310 H287 0.950 . S
C310 C309 1.383 . S
C310 C311 1.395 . S
C311 H288 0.950 . S
C311 C310 1.395 . S
C311 C312 1.288 . S
C312 C311 1.288 . S
C312 C313 1.392 . S
C313 H289 0.951 . S
C313 C312 1.392 . S
C313 C314 1.392 . S
C314 H290 0.949 . S
C314 C309 1.382 . S
C314 C313 1.392 . S
C315 C316 1.376 . S
C315 C320 1.386 . S
C315 C321 1.483 . S
C316 H291 0.949 . S
C316 C315 1.376 . S
C316 C317 1.397 . S
C317 H292 0.950 . S
C317 C316 1.397 . S
C317 C318 1.391 . S
C318 C317 1.391 . S
C318 C319 1.405 . S
C319 H293 0.950 . S
C319 C318 1.405 . S
C319 C320 1.367 . S
C320 H294 0.950 . S
C320 C315 1.386 . S
C320 C319 1.367 . S
C321 C315 1.483 . S
C321 C322 1.382 . S
C321 C323 1.403 . S
C322 H295 0.950 . S
C322 C308 1.411 . S
C322 C321 1.382 . S
C323 C307 1.411 . S
C323 C321 1.403 . S
C323 C324 1.489 . S
C324 C323 1.489 . S
C324 C325 1.383 . S
C324 C329 1.382 . S
C325 H296 0.950 . S
C325 C324 1.383 . S
C325 C326 1.395 . S
C326 H297 0.950 . S
C326 C325 1.395 . S
C326 C327 1.288 . S
C327 C326 1.288 . S
C327 C328 1.392 . S
C328 H298 0.951 . S
C328 C327 1.392 . S
C328 C329 1.392 . S
C329 H299 0.949 . S
C329 C324 1.382 . S
C329 C328 1.392 . S
H330 C349 0.949 . S
H331 C350 0.950 . S
H332 C352 0.950 . S
H333 C353 0.950 . S
H334 C355 0.950 . S
H335 C358 0.950 . S
H336 C359 0.950 . S
H337 C361 0.951 . S
H338 C362 0.949 . S
H339 C364 0.949 . S
H340 C365 0.950 . S
H341 C367 0.950 . S
H342 C368 0.950 . S
H343 C370 0.950 . S
H344 C373 0.950 . S
H345 C374 0.950 . S
H346 C376 0.951 . S
H347 C377 0.949 . S
C348 C349 1.376 . S
C348 C353 1.386 . S
C348 C354 1.483 . S
C349 H330 0.949 . S
C349 C348 1.376 . S
C349 C350 1.397 . S
C350 H331 0.950 . S
C350 C349 1.397 . S
C350 C351 1.391 . S
C351 C350 1.391 . S
C351 C352 1.405 . S
C352 H332 0.950 . S
C352 C351 1.405 . S
C352 C353 1.367 . S
C353 H333 0.950 . S
C353 C348 1.386 . S
C353 C352 1.367 . S
C354 C348 1.483 . S
C354 C355 1.382 . S
C354 C356 1.403 . S
C355 H334 0.950 . S
C355 C354 1.382 . S
C355 C371 1.411 . S
C356 C354 1.403 . S
C356 C357 1.489 . S
C356 C370 1.411 . S
C357 C356 1.489 . S
C357 C358 1.383 . S
C357 C362 1.382 . S
C358 H335 0.950 . S
C358 C357 1.383 . S
C358 C359 1.395 . S
C359 H336 0.950 . S
C359 C358 1.395 . S
C359 C360 1.288 . S
C360 C359 1.288 . S
C360 C361 1.392 . S
C361 H337 0.951 . S
C361 C360 1.392 . S
C361 C362 1.392 . S
C362 H338 0.949 . S
C362 C357 1.382 . S
C362 C361 1.392 . S
C363 C364 1.376 . S
C363 C368 1.386 . S
C363 C369 1.483 . S
C364 H339 0.949 . S
C364 C363 1.376 . S
C364 C365 1.397 . S
C365 H340 0.950 . S
C365 C364 1.397 . S
C365 C366 1.391 . S
C366 C365 1.391 . S
C366 C367 1.405 . S
C367 H341 0.950 . S
C367 C366 1.405 . S
C367 C368 1.367 . S
C368 H342 0.950 . S
C368 C363 1.386 . S
C368 C367 1.367 . S
C369 C363 1.483 . S
C369 C370 1.382 . S
C369 C371 1.403 . S
C370 H343 0.950 . S
C370 C356 1.411 . S
C370 C369 1.382 . S
C371 C355 1.411 . S
C371 C369 1.403 . S
C371 C372 1.489 . S
C372 C371 1.489 . S
C372 C373 1.383 . S
C372 C377 1.382 . S
C373 H344 0.950 . S
C373 C372 1.383 . S
C373 C374 1.395 . S
C374 H345 0.950 . S
C374 C373 1.395 . S
C374 C375 1.288 . S
C375 C374 1.288 . S
C375 C376 1.392 . S
C376 H346 0.951 . S
C376 C375 1.392 . S
C376 C377 1.392 . S
C377 H347 0.949 . S
C377 C372 1.382 . S
C377 C376 1.392 . S
H378 C397 0.949 . S
H379 C398 0.950 . S
H380 C400 0.950 . S
H381 C401 0.950 . S
H382 C403 0.950 . S
H383 C406 0.950 . S
H384 C407 0.950 . S
H385 C409 0.951 . S
H386 C410 0.949 . S
H387 C412 0.949 . S
H388 C413 0.950 . S
H389 C415 0.950 . S
H390 C416 0.950 . S
H391 C418 0.950 . S
H392 C421 0.950 . S
H393 C422 0.950 . S
H394 C424 0.951 . S
H395 C425 0.949 . S
C396 C397 1.376 . S
C396 C401 1.386 . S
C396 C402 1.483 . S
C397 H378 0.949 . S
C397 C396 1.376 . S
C397 C398 1.397 . S
C398 H379 0.950 . S
C398 C397 1.397 . S
C398 C399 1.391 . S
C399 C398 1.391 . S
C399 C400 1.405 . S
C400 H380 0.950 . S
C400 C399 1.405 . S
C400 C401 1.367 . S
C401 H381 0.950 . S
C401 C396 1.386 . S
C401 C400 1.367 . S
C402 C396 1.483 . S
C402 C403 1.382 . S
C402 C404 1.403 . S
C403 H382 0.950 . S
C403 C402 1.382 . S
C403 C419 1.411 . S
C404 C402 1.403 . S
C404 C405 1.489 . S
C404 C418 1.411 . S
C405 C404 1.489 . S
C405 C406 1.383 . S
C405 C410 1.382 . S
C406 H383 0.950 . S
C406 C405 1.383 . S
C406 C407 1.395 . S
C407 H384 0.950 . S
C407 C406 1.395 . S
C407 C408 1.288 . S
C408 C407 1.288 . S
C408 C409 1.392 . S
C409 H385 0.951 . S
C409 C408 1.392 . S
C409 C410 1.392 . S
C410 H386 0.949 . S
C410 C405 1.382 . S
C410 C409 1.392 . S
C411 C412 1.376 . S
C411 C416 1.386 . S
C411 C417 1.483 . S
C412 H387 0.949 . S
C412 C411 1.376 . S
C412 C413 1.397 . S
C413 H388 0.950 . S
C413 C412 1.397 . S
C413 C414 1.391 . S
C414 C413 1.391 . S
C414 C415 1.405 . S
C415 H389 0.950 . S
C415 C414 1.405 . S
C415 C416 1.367 . S
C416 H390 0.950 . S
C416 C411 1.386 . S
C416 C415 1.367 . S
C417 C411 1.483 . S
C417 C418 1.382 . S
C417 C419 1.403 . S
C418 H391 0.950 . S
C418 C404 1.411 . S
C418 C417 1.382 . S
C419 C403 1.411 . S
C419 C417 1.403 . S
C419 C420 1.489 . S
C420 C419 1.489 . S
C420 C421 1.383 . S
C420 C425 1.382 . S
C421 H392 0.950 . S
C421 C420 1.383 . S
C421 C422 1.395 . S
C422 H393 0.950 . S
C422 C421 1.395 . S
C422 C423 1.288 . S
C423 C422 1.288 . S
C423 C424 1.392 . S
C424 H394 0.951 . S
C424 C423 1.392 . S
C424 C425 1.392 . S
C425 H395 0.949 . S
C425 C420 1.382 . S
C425 C424 1.392 . S
H426 C444 0.951 . S
H427 C446 0.951 . S
H428 C448 0.950 . S
H429 C449 0.950 . S
H430 C451 0.950 . S
H431 C454 0.950 . S
H432 C455 0.950 . S
H433 C457 0.950 . S
H434 C458 0.950 . S
H435 C459 0.951 . S
H436 C461 0.951 . S
H437 C463 0.950 . S
H438 C464 0.950 . S
H439 C466 0.950 . S
H440 C469 0.950 . S
H441 C470 0.950 . S
H442 C472 0.950 . S
H443 C473 0.950 . S
C444 H426 0.951 . S
C444 C445 1.366 . S
C444 C446 1.388 . S
C445 C444 1.366 . S
C445 C449 1.385 . S
C446 H427 0.951 . S
C446 C444 1.388 . S
C446 C447 1.366 . S
C447 C446 1.366 . S
C447 C448 1.414 . S
C447 C450 1.499 . S
C448 H428 0.950 . S
C448 C447 1.414 . S
C448 C449 1.374 . S
C449 H429 0.950 . S
C449 C445 1.385 . S
C449 C448 1.374 . S
C450 C447 1.499 . S
C450 C451 1.373 . S
C450 C452 1.389 . S
C451 H430 0.950 . S
C451 C450 1.373 . S
C451 C467 1.377 . S
C452 C450 1.389 . S
C452 C453 1.524 . S
C452 C466 1.377 . S
C453 C452 1.524 . S
C453 C454 1.397 . S
C453 C458 1.363 . S
C454 H431 0.950 . S
C454 C453 1.397 . S
C454 C455 1.334 . S
C455 H432 0.950 . S
C455 C454 1.334 . S
C455 C456 1.287 . S
C456 C455 1.287 . S
C456 C457 1.524 . S
C456 H475 0.913 . S
C457 H433 0.950 . S
C457 C456 1.524 . S
C457 C458 1.415 . S
C458 H434 0.950 . S
C458 C453 1.363 . S
C458 C457 1.415 . S
C459 H435 0.951 . S
C459 C460 1.366 . S
C459 C461 1.388 . S
C460 C459 1.366 . S
C460 C464 1.385 . S
C461 H436 0.951 . S
C461 C459 1.388 . S
C461 C462 1.366 . S
C462 C461 1.366 . S
C462 C463 1.414 . S
C462 C465 1.499 . S
C463 H437 0.950 . S
C463 C462 1.414 . S
C463 C464 1.374 . S
C464 H438 0.950 . S
C464 C460 1.385 . S
C464 C463 1.374 . S
C465 C462 1.499 . S
C465 C466 1.373 . S
C465 C467 1.389 . S
C466 H439 0.950 . S
C466 C452 1.377 . S
C466 C465 1.373 . S
C467 C451 1.377 . S
C467 C465 1.389 . S
C467 C468 1.524 . S
C468 C467 1.524 . S
C468 C469 1.397 . S
C468 C473 1.363 . S
C469 H440 0.950 . S
C469 C468 1.397 . S
C469 C470 1.334 . S
C470 H441 0.950 . S
C470 C469 1.334 . S
C470 C471 1.287 . S
C471 C470 1.287 . S
C471 C472 1.524 . S
C471 H474 0.999 . S
C472 H442 0.950 . S
C472 C471 1.524 . S
C472 C473 1.415 . S
C473 H443 0.950 . S
C473 C468 1.363 . S
C473 C472 1.415 . S
H474 C471 0.999 . S
H475 C456 0.913 . S
H476 C494 0.951 . S
H477 C496 0.951 . S
H478 C498 0.950 . S
H479 C499 0.950 . S
H480 C501 0.950 . S
H481 C504 0.950 . S
H482 C505 0.950 . S
H483 C507 0.950 . S
H484 C508 0.950 . S
H485 C509 0.951 . S
H486 C511 0.951 . S
H487 C513 0.950 . S
H488 C514 0.950 . S
H489 C516 0.950 . S
H490 C519 0.950 . S
H491 C520 0.950 . S
H492 C522 0.950 . S
H493 C523 0.950 . S
C494 H476 0.951 . S
C494 C495 1.366 . S
C494 C496 1.388 . S
C495 C494 1.366 . S
C495 C499 1.385 . S
C496 H477 0.951 . S
C496 C494 1.388 . S
C496 C497 1.366 . S
C497 C496 1.366 . S
C497 C498 1.414 . S
C497 C500 1.499 . S
C498 H478 0.950 . S
C498 C497 1.414 . S
C498 C499 1.374 . S
C499 H479 0.950 . S
C499 C495 1.385 . S
C499 C498 1.374 . S
C500 C497 1.499 . S
C500 C501 1.373 . S
C500 C502 1.389 . S
C501 H480 0.950 . S
C501 C500 1.373 . S
C501 C517 1.377 . S
C502 C500 1.389 . S
C502 C503 1.524 . S
C502 C516 1.377 . S
C503 C502 1.524 . S
C503 C504 1.397 . S
C503 C508 1.363 . S
C504 H481 0.950 . S
C504 C503 1.397 . S
C504 C505 1.334 . S
C505 H482 0.950 . S
C505 C504 1.334 . S
C505 C506 1.287 . S
C506 C505 1.287 . S
C506 C507 1.524 . S
C506 H525 0.913 . S
C507 H483 0.950 . S
C507 C506 1.524 . S
C507 C508 1.415 . S
C508 H484 0.950 . S
C508 C503 1.363 . S
C508 C507 1.415 . S
C509 H485 0.951 . S
C509 C510 1.366 . S
C509 C511 1.388 . S
C510 C509 1.366 . S
C510 C514 1.385 . S
C511 H486 0.951 . S
C511 C509 1.388 . S
C511 C512 1.366 . S
C512 C511 1.366 . S
C512 C513 1.414 . S
C512 C515 1.499 . S
C513 H487 0.950 . S
C513 C512 1.414 . S
C513 C514 1.374 . S
C514 H488 0.950 . S
C514 C510 1.385 . S
C514 C513 1.374 . S
C515 C512 1.499 . S
C515 C516 1.373 . S
C515 C517 1.389 . S
C516 H489 0.950 . S
C516 C502 1.377 . S
C516 C515 1.373 . S
C517 C501 1.377 . S
C517 C515 1.389 . S
C517 C518 1.524 . S
C518 C517 1.524 . S
C518 C519 1.397 . S
C518 C523 1.363 . S
C519 H490 0.950 . S
C519 C518 1.397 . S
C519 C520 1.334 . S
C520 H491 0.950 . S
C520 C519 1.334 . S
C520 C521 1.287 . S
C521 C520 1.287 . S
C521 C522 1.524 . S
C521 H524 0.999 . S
C522 H492 0.950 . S
C522 C521 1.524 . S
C522 C523 1.415 . S
C523 H493 0.950 . S
C523 C518 1.363 . S
C523 C522 1.415 . S
H524 C521 0.999 . S
H525 C506 0.913 . S
H526 C544 0.951 . S
H527 C546 0.951 . S
H528 C548 0.950 . S
H529 C549 0.950 . S
H530 C551 0.950 . S
H531 C554 0.950 . S
H532 C555 0.950 . S
H533 C557 0.950 . S
H534 C558 0.950 . S
H535 C559 0.951 . S
H536 C561 0.951 . S
H537 C563 0.950 . S
H538 C564 0.950 . S
H539 C566 0.950 . S
H540 C569 0.950 . S
H541 C570 0.950 . S
H542 C572 0.950 . S
H543 C573 0.950 . S
C544 H526 0.951 . S
C544 C545 1.366 . S
C544 C546 1.388 . S
C545 C544 1.366 . S
C545 C549 1.385 . S
C546 H527 0.951 . S
C546 C544 1.388 . S
C546 C547 1.366 . S
C547 C546 1.366 . S
C547 C548 1.414 . S
C547 C550 1.499 . S
C548 H528 0.950 . S
C548 C547 1.414 . S
C548 C549 1.374 . S
C549 H529 0.950 . S
C549 C545 1.385 . S
C549 C548 1.374 . S
C550 C547 1.499 . S
C550 C551 1.373 . S
C550 C552 1.389 . S
C551 H530 0.950 . S
C551 C550 1.373 . S
C551 C567 1.377 . S
C552 C550 1.389 . S
C552 C553 1.524 . S
C552 C566 1.377 . S
C553 C552 1.524 . S
C553 C554 1.397 . S
C553 C558 1.363 . S
C554 H531 0.950 . S
C554 C553 1.397 . S
C554 C555 1.334 . S
C555 H532 0.950 . S
C555 C554 1.334 . S
C555 C556 1.287 . S
C556 C555 1.287 . S
C556 C557 1.524 . S
C556 H575 0.913 . S
C557 H533 0.950 . S
C557 C556 1.524 . S
C557 C558 1.415 . S
C558 H534 0.950 . S
C558 C553 1.363 . S
C558 C557 1.415 . S
C559 H535 0.951 . S
C559 C560 1.366 . S
C559 C561 1.388 . S
C560 C559 1.366 . S
C560 C564 1.385 . S
C561 H536 0.951 . S
C561 C559 1.388 . S
C561 C562 1.366 . S
C562 C561 1.366 . S
C562 C563 1.414 . S
C562 C565 1.499 . S
C563 H537 0.950 . S
C563 C562 1.414 . S
C563 C564 1.374 . S
C564 H538 0.950 . S
C564 C560 1.385 . S
C564 C563 1.374 . S
C565 C562 1.499 . S
C565 C566 1.373 . S
C565 C567 1.389 . S
C566 H539 0.950 . S
C566 C552 1.377 . S
C566 C565 1.373 . S
C567 C551 1.377 . S
C567 C565 1.389 . S
C567 C568 1.524 . S
C568 C567 1.524 . S
C568 C569 1.397 . S
C568 C573 1.363 . S
C569 H540 0.950 . S
C569 C568 1.397 . S
C569 C570 1.334 . S
C570 H541 0.950 . S
C570 C569 1.334 . S
C570 C571 1.287 . S
C571 C570 1.287 . S
C571 C572 1.524 . S
C571 H574 0.999 . S
C572 H542 0.950 . S
C572 C571 1.524 . S
C572 C573 1.415 . S
C573 H543 0.950 . S
C573 C568 1.363 . S
C573 C572 1.415 . S
H574 C571 0.999 . S
H575 C556 0.913 . S
H576 C594 0.951 . S
H577 C596 0.951 . S
H578 C598 0.950 . S
H579 C599 0.950 . S
H580 C601 0.950 . S
H581 C604 0.950 . S
H582 C605 0.950 . S
H583 C607 0.950 . S
H584 C608 0.950 . S
H585 C609 0.951 . S
H586 C611 0.951 . S
H587 C613 0.950 . S
H588 C614 0.950 . S
H589 C616 0.950 . S
H590 C619 0.950 . S
H591 C620 0.950 . S
H592 C622 0.950 . S
H593 C623 0.950 . S
C594 H576 0.951 . S
C594 C595 1.366 . S
C594 C596 1.388 . S
C595 C594 1.366 . S
C595 C599 1.385 . S
C596 H577 0.951 . S
C596 C594 1.388 . S
C596 C597 1.366 . S
C597 C596 1.366 . S
C597 C598 1.414 . S
C597 C600 1.499 . S
C598 H578 0.950 . S
C598 C597 1.414 . S
C598 C599 1.374 . S
C599 H579 0.950 . S
C599 C595 1.385 . S
C599 C598 1.374 . S
C600 C597 1.499 . S
C600 C601 1.373 . S
C600 C602 1.389 . S
C601 H580 0.950 . S
C601 C600 1.373 . S
C601 C617 1.377 . S
C602 C600 1.389 . S
C602 C603 1.524 . S
C602 C616 1.377 . S
C603 C602 1.524 . S
C603 C604 1.397 . S
C603 C608 1.363 . S
C604 H581 0.950 . S
C604 C603 1.397 . S
C604 C605 1.334 . S
C605 H582 0.950 . S
C605 C604 1.334 . S
C605 C606 1.287 . S
C606 C605 1.287 . S
C606 C607 1.524 . S
C606 H625 0.913 . S
C607 H583 0.950 . S
C607 C606 1.524 . S
C607 C608 1.415 . S
C608 H584 0.950 . S
C608 C603 1.363 . S
C608 C607 1.415 . S
C609 H585 0.951 . S
C609 C610 1.366 . S
C609 C611 1.388 . S
C610 C609 1.366 . S
C610 C614 1.385 . S
C611 H586 0.951 . S
C611 C609 1.388 . S
C611 C612 1.366 . S
C612 C611 1.366 . S
C612 C613 1.414 . S
C612 C615 1.499 . S
C613 H587 0.950 . S
C613 C612 1.414 . S
C613 C614 1.374 . S
C614 H588 0.950 . S
C614 C610 1.385 . S
C614 C613 1.374 . S
C615 C612 1.499 . S
C615 C616 1.373 . S
C615 C617 1.389 . S
C616 H589 0.950 . S
C616 C602 1.377 . S
C616 C615 1.373 . S
C617 C601 1.377 . S
C617 C615 1.389 . S
C617 C618 1.524 . S
C618 C617 1.524 . S
C618 C619 1.397 . S
C618 C623 1.363 . S
C619 H590 0.950 . S
C619 C618 1.397 . S
C619 C620 1.334 . S
C620 H591 0.950 . S
C620 C619 1.334 . S
C620 C621 1.287 . S
C621 C620 1.287 . S
C621 C622 1.524 . S
C621 H624 0.999 . S
C622 H592 0.950 . S
C622 C621 1.524 . S
C622 C623 1.415 . S
C623 H593 0.950 . S
C623 C618 1.363 . S
C623 C622 1.415 . S
H624 C621 0.999 . S
H625 C606 0.913 . S
H626 C644 0.951 . S
H627 C646 0.951 . S
H628 C648 0.950 . S
H629 C649 0.950 . S
H630 C651 0.950 . S
H631 C654 0.950 . S
H632 C655 0.950 . S
H633 C657 0.950 . S
H634 C658 0.950 . S
H635 C659 0.951 . S
H636 C661 0.951 . S
H637 C663 0.950 . S
H638 C664 0.950 . S
H639 C666 0.950 . S
H640 C669 0.950 . S
H641 C670 0.950 . S
H642 C672 0.950 . S
H643 C673 0.950 . S
C644 H626 0.951 . S
C644 C645 1.366 . S
C644 C646 1.388 . S
C645 C644 1.366 . S
C645 C649 1.385 . S
C646 H627 0.951 . S
C646 C644 1.388 . S
C646 C647 1.366 . S
C647 C646 1.366 . S
C647 C648 1.414 . S
C647 C650 1.499 . S
C648 H628 0.950 . S
C648 C647 1.414 . S
C648 C649 1.374 . S
C649 H629 0.950 . S
C649 C645 1.385 . S
C649 C648 1.374 . S
C650 C647 1.499 . S
C650 C651 1.373 . S
C650 C652 1.389 . S
C651 H630 0.950 . S
C651 C650 1.373 . S
C651 C667 1.377 . S
C652 C650 1.389 . S
C652 C653 1.524 . S
C652 C666 1.377 . S
C653 C652 1.524 . S
C653 C654 1.397 . S
C653 C658 1.363 . S
C654 H631 0.950 . S
C654 C653 1.397 . S
C654 C655 1.334 . S
C655 H632 0.950 . S
C655 C654 1.334 . S
C655 C656 1.287 . S
C656 C655 1.287 . S
C656 C657 1.524 . S
C656 H675 0.913 . S
C657 H633 0.950 . S
C657 C656 1.524 . S
C657 C658 1.415 . S
C658 H634 0.950 . S
C658 C653 1.363 . S
C658 C657 1.415 . S
C659 H635 0.951 . S
C659 C660 1.366 . S
C659 C661 1.388 . S
C660 C659 1.366 . S
C660 C664 1.385 . S
C661 H636 0.951 . S
C661 C659 1.388 . S
C661 C662 1.366 . S
C662 C661 1.366 . S
C662 C663 1.414 . S
C662 C665 1.499 . S
C663 H637 0.950 . S
C663 C662 1.414 . S
C663 C664 1.374 . S
C664 H638 0.950 . S
C664 C660 1.385 . S
C664 C663 1.374 . S
C665 C662 1.499 . S
C665 C666 1.373 . S
C665 C667 1.389 . S
C666 H639 0.950 . S
C666 C652 1.377 . S
C666 C665 1.373 . S
C667 C651 1.377 . S
C667 C665 1.389 . S
C667 C668 1.524 . S
C668 C667 1.524 . S
C668 C669 1.397 . S
C668 C673 1.363 . S
C669 H640 0.950 . S
C669 C668 1.397 . S
C669 C670 1.334 . S
C670 H641 0.950 . S
C670 C669 1.334 . S
C670 C671 1.287 . S
C671 C670 1.287 . S
C671 C672 1.524 . S
C671 H674 0.999 . S
C672 H642 0.950 . S
C672 C671 1.524 . S
C672 C673 1.415 . S
C673 H643 0.950 . S
C673 C668 1.363 . S
C673 C672 1.415 . S
H674 C671 0.999 . S
H675 C656 0.913 . S
H676 C694 0.951 . S
H677 C696 0.951 . S
H678 C698 0.950 . S
H679 C699 0.950 . S
H680 C701 0.950 . S
H681 C704 0.950 . S
H682 C705 0.950 . S
H683 C707 0.950 . S
H684 C708 0.950 . S
H685 C709 0.951 . S
H686 C711 0.951 . S
H687 C713 0.950 . S
H688 C714 0.950 . S
H689 C716 0.950 . S
H690 C719 0.950 . S
H691 C720 0.950 . S
H692 C722 0.950 . S
H693 C723 0.950 . S
C694 H676 0.951 . S
C694 C695 1.366 . S
C694 C696 1.388 . S
C695 C694 1.366 . S
C695 C699 1.385 . S
C696 H677 0.951 . S
C696 C694 1.388 . S
C696 C697 1.366 . S
C697 C696 1.366 . S
C697 C698 1.414 . S
C697 C700 1.499 . S
C698 H678 0.950 . S
C698 C697 1.414 . S
C698 C699 1.374 . S
C699 H679 0.950 . S
C699 C695 1.385 . S
C699 C698 1.374 . S
C700 C697 1.499 . S
C700 C701 1.373 . S
C700 C702 1.389 . S
C701 H680 0.950 . S
C701 C700 1.373 . S
C701 C717 1.377 . S
C702 C700 1.389 . S
C702 C703 1.524 . S
C702 C716 1.377 . S
C703 C702 1.524 . S
C703 C704 1.397 . S
C703 C708 1.363 . S
C704 H681 0.950 . S
C704 C703 1.397 . S
C704 C705 1.334 . S
C705 H682 0.950 . S
C705 C704 1.334 . S
C705 C706 1.287 . S
C706 C705 1.287 . S
C706 C707 1.524 . S
C706 H725 0.913 . S
C707 H683 0.950 . S
C707 C706 1.524 . S
C707 C708 1.415 . S
C708 H684 0.950 . S
C708 C703 1.363 . S
C708 C707 1.415 . S
C709 H685 0.951 . S
C709 C710 1.366 . S
C709 C711 1.388 . S
C710 C709 1.366 . S
C710 C714 1.385 . S
C711 H686 0.951 . S
C711 C709 1.388 . S
C711 C712 1.366 . S
C712 C711 1.366 . S
C712 C713 1.414 . S
C712 C715 1.499 . S
C713 H687 0.950 . S
C713 C712 1.414 . S
C713 C714 1.374 . S
C714 H688 0.950 . S
C714 C710 1.385 . S
C714 C713 1.374 . S
C715 C712 1.499 . S
C715 C716 1.373 . S
C715 C717 1.389 . S
C716 H689 0.950 . S
C716 C702 1.377 . S
C716 C715 1.373 . S
C717 C701 1.377 . S
C717 C715 1.389 . S
C717 C718 1.524 . S
C718 C717 1.524 . S
C718 C719 1.397 . S
C718 C723 1.363 . S
C719 H690 0.950 . S
C719 C718 1.397 . S
C719 C720 1.334 . S
C720 H691 0.950 . S
C720 C719 1.334 . S
C720 C721 1.287 . S
C721 C720 1.287 . S
C721 C722 1.524 . S
C721 H724 0.999 . S
C722 H692 0.950 . S
C722 C721 1.524 . S
C722 C723 1.415 . S
C723 H693 0.950 . S
C723 C718 1.363 . S
C723 C722 1.415 . S
H724 C721 0.999 . S
H725 C706 0.913 . S
H726 C744 0.951 . S
H727 C746 0.951 . S
H728 C748 0.950 . S
H729 C749 0.950 . S
H730 C751 0.950 . S
H731 C754 0.950 . S
H732 C755 0.950 . S
H733 C757 0.950 . S
H734 C758 0.950 . S
H735 C759 0.951 . S
H736 C761 0.951 . S
H737 C763 0.950 . S
H738 C764 0.950 . S
H739 C766 0.950 . S
H740 C769 0.950 . S
H741 C770 0.950 . S
H742 C772 0.950 . S
H743 C773 0.950 . S
C744 H726 0.951 . S
C744 C745 1.366 . S
C744 C746 1.388 . S
C745 C744 1.366 . S
C745 C749 1.385 . S
C746 H727 0.951 . S
C746 C744 1.388 . S
C746 C747 1.366 . S
C747 C746 1.366 . S
C747 C748 1.414 . S
C747 C750 1.499 . S
C748 H728 0.950 . S
C748 C747 1.414 . S
C748 C749 1.374 . S
C749 H729 0.950 . S
C749 C745 1.385 . S
C749 C748 1.374 . S
C750 C747 1.499 . S
C750 C751 1.373 . S
C750 C752 1.389 . S
C751 H730 0.950 . S
C751 C750 1.373 . S
C751 C767 1.377 . S
C752 C750 1.389 . S
C752 C753 1.524 . S
C752 C766 1.377 . S
C753 C752 1.524 . S
C753 C754 1.397 . S
C753 C758 1.363 . S
C754 H731 0.950 . S
C754 C753 1.397 . S
C754 C755 1.334 . S
C755 H732 0.950 . S
C755 C754 1.334 . S
C755 C756 1.287 . S
C756 C755 1.287 . S
C756 C757 1.524 . S
C756 H775 0.913 . S
C757 H733 0.950 . S
C757 C756 1.524 . S
C757 C758 1.415 . S
C758 H734 0.950 . S
C758 C753 1.363 . S
C758 C757 1.415 . S
C759 H735 0.951 . S
C759 C760 1.366 . S
C759 C761 1.388 . S
C760 C759 1.366 . S
C760 C764 1.385 . S
C761 H736 0.951 . S
C761 C759 1.388 . S
C761 C762 1.366 . S
C762 C761 1.366 . S
C762 C763 1.414 . S
C762 C765 1.499 . S
C763 H737 0.950 . S
C763 C762 1.414 . S
C763 C764 1.374 . S
C764 H738 0.950 . S
C764 C760 1.385 . S
C764 C763 1.374 . S
C765 C762 1.499 . S
C765 C766 1.373 . S
C765 C767 1.389 . S
C766 H739 0.950 . S
C766 C752 1.377 . S
C766 C765 1.373 . S
C767 C751 1.377 . S
C767 C765 1.389 . S
C767 C768 1.524 . S
C768 C767 1.524 . S
C768 C769 1.397 . S
C768 C773 1.363 . S
C769 H740 0.950 . S
C769 C768 1.397 . S
C769 C770 1.334 . S
C770 H741 0.950 . S
C770 C769 1.334 . S
C770 C771 1.287 . S
C771 C770 1.287 . S
C771 C772 1.524 . S
C771 H774 0.999 . S
C772 H742 0.950 . S
C772 C771 1.524 . S
C772 C773 1.415 . S
C773 H743 0.950 . S
C773 C768 1.363 . S
C773 C772 1.415 . S
H774 C771 0.999 . S
H775 C756 0.913 . S
H776 C794 0.985 . S
H777 C796 0.951 . S
H778 C798 0.950 . S
H779 C799 0.950 . S
H780 C801 0.950 . S
H781 C804 0.950 . S
H782 C805 0.950 . S
H783 C807 0.950 . S
H784 C808 0.950 . S
H785 C809 0.951 . S
H786 C811 0.951 . S
H787 C813 0.950 . S
H788 C814 0.950 . S
H789 C816 0.950 . S
H790 C819 0.950 . S
H791 C820 0.950 . S
H792 C822 0.950 . S
H793 C823 0.950 . S
C794 H776 0.985 . S
C794 C795 1.366 . S
C794 C796 1.388 . S
C795 C794 1.366 . S
C795 C799 1.385 . S
C796 H777 0.951 . S
C796 C794 1.388 . S
C796 C797 1.366 . S
C797 C796 1.366 . S
C797 C798 1.414 . S
C797 C800 1.499 . S
C798 H778 0.950 . S
C798 C797 1.414 . S
C798 C799 1.374 . S
C799 H779 0.950 . S
C799 C795 1.385 . S
C799 C798 1.374 . S
C800 C797 1.499 . S
C800 C801 1.373 . S
C800 C802 1.389 . S
C801 H780 0.950 . S
C801 C800 1.373 . S
C801 C817 1.377 . S
C802 C800 1.389 . S
C802 C803 1.524 . S
C802 C816 1.377 . S
C803 C802 1.524 . S
C803 C804 1.397 . S
C803 C808 1.363 . S
C804 H781 0.950 . S
C804 C803 1.397 . S
C804 C805 1.334 1_556 S
C805 H782 0.950 . S
C805 C804 1.334 1_554 S
C805 C806 1.287 . S
C806 C805 1.287 . S
C806 C807 1.524 . S
C806 H825 0.913 . S
C807 H783 0.950 . S
C807 C806 1.524 . S
C807 C808 1.415 1_554 S
C808 H784 0.950 . S
C808 C803 1.363 . S
C808 C807 1.415 1_556 S
C809 H785 0.951 . S
C809 C810 1.366 . S
C809 C811 1.388 . S
C810 C809 1.366 . S
C810 C814 1.385 . S
C811 H786 0.951 . S
C811 C809 1.388 . S
C811 C812 1.366 . S
C812 C811 1.366 . S
C812 C813 1.414 . S
C812 C815 1.499 . S
C813 H787 0.950 . S
C813 C812 1.414 . S
C813 C814 1.374 . S
C814 H788 0.950 . S
C814 C810 1.385 . S
C814 C813 1.374 . S
C815 C812 1.499 . S
C815 C816 1.373 . S
C815 C817 1.389 . S
C816 H789 0.950 . S
C816 C802 1.377 . S
C816 C815 1.373 . S
C817 C801 1.377 . S
C817 C815 1.389 . S
C817 C818 1.524 . S
C818 C817 1.524 . S
C818 C819 1.397 . S
C818 C823 1.363 . S
C819 H790 0.950 . S
C819 C818 1.397 . S
C819 C820 1.334 . S
C820 H791 0.950 . S
C820 C819 1.334 . S
C820 C821 1.287 . S
C821 C820 1.287 . S
C821 C822 1.524 . S
C821 H824 0.999 . S
C822 H792 0.950 . S
C822 C821 1.524 . S
C822 C823 1.415 . S
C823 H793 0.950 . S
C823 C818 1.363 . S
C823 C822 1.415 . S
H824 C821 0.999 . S
H825 C806 0.913 . S
H826 C844 0.951 . S
H827 C846 0.951 . S
H828 C848 0.950 . S
H829 C849 0.950 . S
H830 C851 0.950 . S
H831 C854 0.950 . S
H832 C855 0.950 . S
H833 C857 0.950 . S
H834 C858 0.950 . S
H835 C859 0.951 . S
H836 C861 0.951 . S
H837 C863 0.950 . S
H838 C864 0.950 . S
H839 C866 0.950 . S
H840 C869 0.950 . S
H841 C870 0.950 . S
H842 C872 0.950 . S
H843 C873 0.950 . S
C844 H826 0.951 . S
C844 C845 1.366 . S
C844 C846 1.388 . S
C845 C844 1.366 . S
C845 C849 1.385 . S
C846 H827 0.951 . S
C846 C844 1.388 . S
C846 C847 1.366 . S
C847 C846 1.366 . S
C847 C848 1.414 . S
C847 C850 1.499 . S
C848 H828 0.950 . S
C848 C847 1.414 . S
C848 C849 1.374 . S
C849 H829 0.950 . S
C849 C845 1.385 . S
C849 C848 1.374 . S
C850 C847 1.499 . S
C850 C851 1.373 . S
C850 C852 1.389 . S
C851 H830 0.950 . S
C851 C850 1.373 . S
C851 C867 1.377 . S
C852 C850 1.389 . S
C852 C853 1.524 . S
C852 C866 1.377 . S
C853 C852 1.524 . S
C853 C854 1.397 . S
C853 C858 1.363 . S
C854 H831 0.950 . S
C854 C853 1.397 . S
C854 C855 1.334 . S
C855 H832 0.950 . S
C855 C854 1.334 . S
C855 C856 1.287 . S
C856 C855 1.287 . S
C856 C857 1.524 . S
C856 H875 0.913 . S
C857 H833 0.950 . S
C857 C856 1.524 . S
C857 C858 1.415 . S
C858 H834 0.950 . S
C858 C853 1.363 . S
C858 C857 1.415 . S
C859 H835 0.951 . S
C859 C860 1.366 . S
C859 C861 1.388 . S
C860 C859 1.366 . S
C860 C864 1.385 . S
C861 H836 0.951 . S
C861 C859 1.388 . S
C861 C862 1.366 . S
C862 C861 1.366 . S
C862 C863 1.414 . S
C862 C865 1.499 . S
C863 H837 0.950 . S
C863 C862 1.414 . S
C863 C864 1.374 . S
C864 H838 0.950 . S
C864 C860 1.385 . S
C864 C863 1.374 . S
C865 C862 1.499 . S
C865 C866 1.373 . S
C865 C867 1.389 . S
C866 H839 0.950 . S
C866 C852 1.377 . S
C866 C865 1.373 . S
C867 C851 1.377 . S
C867 C865 1.389 . S
C867 C868 1.524 . S
C868 C867 1.524 . S
C868 C869 1.397 . S
C868 C873 1.363 . S
C869 H840 0.950 . S
C869 C868 1.397 . S
C869 C870 1.334 . S
C870 H841 0.950 . S
C870 C869 1.334 . S
C870 C871 1.287 . S
C871 C870 1.287 . S
C871 C872 1.524 . S
C871 H874 0.999 . S
C872 H842 0.950 . S
C872 C871 1.524 . S
C872 C873 1.415 . S
C873 H843 0.950 . S
C873 C868 1.363 . S
C873 C872 1.415 . S
H874 C871 0.999 . S
H875 C856 0.913 . S
H876 C894 0.951 . S
H877 C896 0.951 . S
H878 C898 0.950 . S
H879 C899 0.950 . S
H880 C901 0.950 . S
H881 C904 0.950 . S
H882 C905 0.950 . S
H883 C907 0.950 . S
H884 C908 0.950 . S
H885 C909 0.951 . S
H886 C911 0.951 . S
H887 C913 0.950 . S
H888 C914 0.950 . S
H889 C916 0.950 . S
H890 C919 0.950 . S
H891 C920 0.950 . S
H892 C922 0.950 . S
H893 C923 0.950 . S
C894 H876 0.951 . S
C894 C895 1.366 . S
C894 C896 1.388 . S
C895 C894 1.366 . S
C895 C899 1.385 . S
C896 H877 0.951 . S
C896 C894 1.388 . S
C896 C897 1.366 . S
C897 C896 1.366 . S
C897 C898 1.414 . S
C897 C900 1.499 . S
C898 H878 0.950 . S
C898 C897 1.414 . S
C898 C899 1.374 . S
C899 H879 0.950 . S
C899 C895 1.385 . S
C899 C898 1.374 . S
C900 C897 1.499 . S
C900 C901 1.373 . S
C900 C902 1.389 . S
C901 H880 0.950 . S
C901 C900 1.373 . S
C901 C917 1.377 . S
C902 C900 1.389 . S
C902 C903 1.524 . S
C902 C916 1.377 . S
C903 C902 1.524 . S
C903 C904 1.397 . S
C903 C908 1.363 . S
C904 H881 0.950 . S
C904 C903 1.397 . S
C904 C905 1.334 . S
C905 H882 0.950 . S
C905 C904 1.334 . S
C905 C906 1.287 . S
C906 C905 1.287 . S
C906 C907 1.524 . S
C906 H925 0.913 . S
C907 H883 0.950 . S
C907 C906 1.524 . S
C907 C908 1.415 . S
C908 H884 0.950 . S
C908 C903 1.363 . S
C908 C907 1.415 . S
C909 H885 0.951 . S
C909 C910 1.366 . S
C909 C911 1.388 . S
C910 C909 1.366 . S
C910 C914 1.385 . S
C911 H886 0.951 . S
C911 C909 1.388 . S
C911 C912 1.366 . S
C912 C911 1.366 . S
C912 C913 1.414 . S
C912 C915 1.499 . S
C913 H887 0.950 . S
C913 C912 1.414 . S
C913 C914 1.374 . S
C914 H888 0.950 . S
C914 C910 1.385 . S
C914 C913 1.374 . S
C915 C912 1.499 . S
C915 C916 1.373 . S
C915 C917 1.389 . S
C916 H889 0.950 . S
C916 C902 1.377 . S
C916 C915 1.373 . S
C917 C901 1.377 . S
C917 C915 1.389 . S
C917 C918 1.524 . S
C918 C917 1.524 . S
C918 C919 1.397 . S
C918 C923 1.363 . S
C919 H890 0.950 . S
C919 C918 1.397 . S
C919 C920 1.334 . S
C920 H891 0.950 . S
C920 C919 1.334 . S
C920 C921 1.287 . S
C921 C920 1.287 . S
C921 C922 1.524 . S
C921 H924 0.999 . S
C922 H892 0.950 . S
C922 C921 1.524 . S
C922 C923 1.415 . S
C923 H893 0.950 . S
C923 C918 1.363 . S
C923 C922 1.415 . S
H924 C921 0.999 . S
H925 C906 0.913 . S
H926 C944 0.951 . S
H927 C946 0.951 . S
H928 C948 0.950 . S
H929 C949 0.950 . S
H930 C951 0.950 . S
H931 C954 0.950 . S
H932 C955 0.950 . S
H933 C957 0.950 . S
H934 C958 0.950 . S
H935 C959 0.951 . S
H936 C961 0.951 . S
H937 C963 0.950 . S
H938 C964 0.950 . S
H939 C966 0.950 . S
H940 C969 0.950 . S
H941 C970 0.950 . S
H942 C972 0.950 . S
H943 C973 0.950 . S
C944 H926 0.951 . S
C944 C945 1.366 . S
C944 C946 1.388 . S
C945 C944 1.366 . S
C945 C949 1.385 . S
C946 H927 0.951 . S
C946 C944 1.388 . S
C946 C947 1.366 . S
C947 C946 1.366 . S
C947 C948 1.414 . S
C947 C950 1.499 . S
C948 H928 0.950 . S
C948 C947 1.414 . S
C948 C949 1.374 . S
C949 H929 0.950 . S
C949 C945 1.385 . S
C949 C948 1.374 . S
C950 C947 1.499 . S
C950 C951 1.373 . S
C950 C952 1.389 . S
C951 H930 0.950 . S
C951 C950 1.373 . S
C951 C967 1.377 . S
C952 C950 1.389 . S
C952 C953 1.524 . S
C952 C966 1.377 . S
C953 C952 1.524 . S
C953 C954 1.397 . S
C953 C958 1.363 . S
C954 H931 0.950 . S
C954 C953 1.397 . S
C954 C955 1.334 . S
C955 H932 0.950 . S
C955 C954 1.334 . S
C955 C956 1.287 . S
C956 C955 1.287 . S
C956 C957 1.524 . S
C956 H975 0.913 . S
C957 H933 0.950 . S
C957 C956 1.524 . S
C957 C958 1.415 . S
C958 H934 0.950 . S
C958 C953 1.363 . S
C958 C957 1.415 . S
C959 H935 0.951 . S
C959 C960 1.366 . S
C959 C961 1.388 . S
C960 C959 1.366 . S
C960 C964 1.385 . S
C961 H936 0.951 . S
C961 C959 1.388 . S
C961 C962 1.366 . S
C962 C961 1.366 . S
C962 C963 1.414 . S
C962 C965 1.499 . S
C963 H937 0.950 . S
C963 C962 1.414 . S
C963 C964 1.374 . S
C964 H938 0.950 . S
C964 C960 1.385 . S
C964 C963 1.374 . S
C965 C962 1.499 . S
C965 C966 1.373 . S
C965 C967 1.389 . S
C966 H939 0.950 . S
C966 C952 1.377 . S
C966 C965 1.373 . S
C967 C951 1.377 . S
C967 C965 1.389 . S
C967 C968 1.524 . S
C968 C967 1.524 . S
C968 C969 1.397 . S
C968 C973 1.363 . S
C969 H940 0.950 . S
C969 C968 1.397 . S
C969 C970 1.334 . S
C970 H941 0.950 . S
C970 C969 1.334 . S
C970 C971 1.287 . S
C971 C970 1.287 . S
C971 C972 1.524 . S
C971 H974 0.999 . S
C972 H942 0.950 . S
C972 C971 1.524 . S
C972 C973 1.415 . S
C973 H943 0.950 . S
C973 C968 1.363 . S
C973 C972 1.415 . S
H974 C971 0.999 . S
H975 C956 0.913 . S
H976 C994 0.951 . S
H977 C996 0.951 . S
H978 C998 0.950 . S
H979 C999 0.950 . S
H980 C1001 0.950 . S
H981 C1004 0.950 . S
H982 C1005 0.950 . S
H983 C1007 0.950 . S
H984 C1008 0.950 . S
H985 C1009 0.951 . S
H986 C1011 0.951 . S
H987 C1013 0.950 . S
H988 C1014 0.950 . S
H989 C1016 0.950 . S
H990 C1019 0.950 . S
H991 C1020 0.950 . S
H992 C1022 0.950 . S
H993 C1023 0.950 . S
C994 H976 0.951 . S
C994 C995 1.366 . S
C994 C996 1.388 . S
C995 C994 1.366 . S
C995 C999 1.385 . S
C996 H977 0.951 . S
C996 C994 1.388 . S
C996 C997 1.366 . S
C997 C996 1.366 . S
C997 C998 1.414 . S
C997 C1000 1.499 . S
C998 H978 0.950 . S
C998 C997 1.414 . S
C998 C999 1.374 . S
C999 H979 0.950 . S
C999 C995 1.385 . S
C999 C998 1.374 . S
C1000 C997 1.499 . S
C1000 C1001 1.373 . S
C1000 C1002 1.389 . S
C1001 H980 0.950 . S
C1001 C1000 1.373 . S
C1001 C1017 1.377 . S
C1002 C1000 1.389 . S
C1002 C1003 1.524 . S
C1002 C1016 1.377 . S
C1003 C1002 1.524 . S
C1003 C1004 1.397 . S
C1003 C1008 1.363 . S
C1004 H981 0.950 . S
C1004 C1003 1.397 . S
C1004 C1005 1.334 . S
C1005 H982 0.950 . S
C1005 C1004 1.334 . S
C1005 C1006 1.287 . S
C1006 C1005 1.287 . S
C1006 C1007 1.524 . S
C1006 H1025 0.913 . S
C1007 H983 0.950 . S
C1007 C1006 1.524 . S
C1007 C1008 1.415 . S
C1008 H984 0.950 . S
C1008 C1003 1.363 . S
C1008 C1007 1.415 . S
C1009 H985 0.951 . S
C1009 C1010 1.366 . S
C1009 C1011 1.388 . S
C1010 C1009 1.366 . S
C1010 C1014 1.385 . S
C1011 H986 0.951 . S
C1011 C1009 1.388 . S
C1011 C1012 1.366 . S
C1012 C1011 1.366 . S
C1012 C1013 1.414 . S
C1012 C1015 1.499 . S
C1013 H987 0.950 . S
C1013 C1012 1.414 . S
C1013 C1014 1.374 . S
C1014 H988 0.950 . S
C1014 C1010 1.385 . S
C1014 C1013 1.374 . S
C1015 C1012 1.499 . S
C1015 C1016 1.373 . S
C1015 C1017 1.389 . S
C1016 H989 0.950 . S
C1016 C1002 1.377 . S
C1016 C1015 1.373 . S
C1017 C1001 1.377 . S
C1017 C1015 1.389 . S
C1017 C1018 1.524 . S
C1018 C1017 1.524 . S
C1018 C1019 1.397 . S
C1018 C1023 1.363 . S
C1019 H990 0.950 . S
C1019 C1018 1.397 . S
C1019 C1020 1.334 . S
C1020 H991 0.950 . S
C1020 C1019 1.334 . S
C1020 C1021 1.287 . S
C1021 C1020 1.287 . S
C1021 C1022 1.524 . S
C1021 H1024 0.999 . S
C1022 H992 0.950 . S
C1022 C1021 1.524 . S
C1022 C1023 1.415 . S
C1023 H993 0.950 . S
C1023 C1018 1.363 . S
C1023 C1022 1.415 . S
H1024 C1021 0.999 . S
H1025 C1006 0.913 . S
H1026 C1044 0.951 . S
H1027 C1046 0.951 . S
H1028 C1048 0.950 . S
H1029 C1049 0.950 . S
H1030 C1051 0.950 . S
H1031 C1054 0.950 . S
H1032 C1055 0.950 1_455 S
H1033 C1057 0.950 . S
H1034 C1058 0.950 . S
H1035 C1059 0.951 . S
H1036 C1061 0.951 . S
H1037 C1063 0.950 . S
H1038 C1064 0.950 . S
H1039 C1066 0.950 . S
H1040 C1069 0.950 . S
H1041 C1070 0.950 . S
H1042 C1072 0.950 . S
H1043 C1073 0.950 . S
C1044 H1026 0.951 . S
C1044 C1045 1.366 . S
C1044 C1046 1.388 . S
C1045 C1044 1.366 . S
C1045 C1049 1.385 . S
C1046 H1027 0.951 . S
C1046 C1044 1.388 . S
C1046 C1047 1.366 . S
C1047 C1046 1.366 . S
C1047 C1048 1.414 . S
C1047 C1050 1.499 . S
C1048 H1028 0.950 . S
C1048 C1047 1.414 . S
C1048 C1049 1.374 . S
C1049 H1029 0.950 . S
C1049 C1045 1.385 . S
C1049 C1048 1.374 . S
C1050 C1047 1.499 . S
C1050 C1051 1.373 . S
C1050 C1052 1.389 . S
C1051 H1030 0.950 . S
C1051 C1050 1.373 . S
C1051 C1067 1.377 . S
C1052 C1050 1.389 . S
C1052 C1053 1.524 . S
C1052 C1066 1.377 . S
C1053 C1052 1.524 . S
C1053 C1054 1.397 . S
C1053 C1058 1.363 . S
C1054 H1031 0.950 . S
C1054 C1053 1.397 . S
C1054 C1055 1.334 . S
C1055 H1032 0.950 1_655 S
C1055 C1054 1.334 . S
C1055 C1056 1.287 . S
C1056 C1055 1.287 . S
C1056 C1057 1.524 . S
C1056 H1075 0.913 . S
C1057 H1033 0.950 . S
C1057 C1056 1.524 . S
C1057 C1058 1.415 . S
C1058 H1034 0.950 . S
C1058 C1053 1.363 . S
C1058 C1057 1.415 . S
C1059 H1035 0.951 . S
C1059 C1060 1.366 . S
C1059 C1061 1.388 . S
C1060 C1059 1.366 . S
C1060 C1064 1.385 . S
C1061 H1036 0.951 . S
C1061 C1059 1.388 . S
C1061 C1062 1.366 . S
C1062 C1061 1.366 . S
C1062 C1063 1.414 . S
C1062 C1065 1.499 . S
C1063 H1037 0.950 . S
C1063 C1062 1.414 . S
C1063 C1064 1.374 . S
C1064 H1038 0.950 . S
C1064 C1060 1.385 . S
C1064 C1063 1.374 . S
C1065 C1062 1.499 . S
C1065 C1066 1.373 . S
C1065 C1067 1.389 . S
C1066 H1039 0.950 . S
C1066 C1052 1.377 . S
C1066 C1065 1.373 . S
C1067 C1051 1.377 . S
C1067 C1065 1.389 . S
C1067 C1068 1.524 . S
C1068 C1067 1.524 . S
C1068 C1069 1.397 . S
C1068 C1073 1.363 . S
C1069 H1040 0.950 . S
C1069 C1068 1.397 . S
C1069 C1070 1.334 . S
C1070 H1041 0.950 . S
C1070 C1069 1.334 . S
C1070 C1071 1.287 . S
C1071 C1070 1.287 . S
C1071 C1072 1.524 . S
C1071 H1074 0.999 . S
C1072 H1042 0.950 . S
C1072 C1071 1.524 . S
C1072 C1073 1.415 . S
C1073 H1043 0.950 . S
C1073 C1068 1.363 . S
C1073 C1072 1.415 . S
H1074 C1071 0.999 . S
H1075 C1056 0.913 . S
H1076 C1094 0.951 . S
H1077 C1096 0.951 . S
H1078 C1098 0.950 . S
H1079 C1099 0.950 . S
H1080 C1101 0.950 . S
H1081 C1104 0.950 . S
H1082 C1105 0.950 . S
H1083 C1107 0.950 . S
H1084 C1108 0.950 . S
H1085 C1109 0.951 . S
H1086 C1111 0.951 . S
H1087 C1113 0.950 . S
H1088 C1114 0.950 . S
H1089 C1116 0.950 . S
H1090 C1119 0.950 . S
H1091 C1120 0.950 . S
H1092 C1122 0.950 . S
H1093 C1123 0.950 . S
C1094 H1076 0.951 . S
C1094 C1095 1.366 . S
C1094 C1096 1.388 . S
C1095 C1094 1.366 . S
C1095 C1099 1.385 . S
C1096 H1077 0.951 . S
C1096 C1094 1.388 . S
C1096 C1097 1.366 . S
C1097 C1096 1.366 . S
C1097 C1098 1.414 . S
C1097 C1100 1.499 . S
C1098 H1078 0.950 . S
C1098 C1097 1.414 . S
C1098 C1099 1.374 . S
C1099 H1079 0.950 . S
C1099 C1095 1.385 . S
C1099 C1098 1.374 . S
C1100 C1097 1.499 . S
C1100 C1101 1.373 . S
C1100 C1102 1.389 . S
C1101 H1080 0.950 . S
C1101 C1100 1.373 . S
C1101 C1117 1.377 . S
C1102 C1100 1.389 . S
C1102 C1103 1.524 . S
C1102 C1116 1.377 . S
C1103 C1102 1.524 . S
C1103 C1104 1.397 . S
C1103 C1108 1.363 . S
C1104 H1081 0.950 . S
C1104 C1103 1.397 . S
C1104 C1105 1.334 . S
C1105 H1082 0.950 . S
C1105 C1104 1.334 . S
C1105 C1106 1.287 . S
C1106 C1105 1.287 . S
C1106 C1107 1.524 . S
C1106 H1125 0.913 . S
C1107 H1083 0.950 . S
C1107 C1106 1.524 . S
C1107 C1108 1.415 . S
C1108 H1084 0.950 . S
C1108 C1103 1.363 . S
C1108 C1107 1.415 . S
C1109 H1085 0.951 . S
C1109 C1110 1.366 . S
C1109 C1111 1.388 . S
C1110 C1109 1.366 . S
C1110 C1114 1.385 . S
C1111 H1086 0.951 . S
C1111 C1109 1.388 . S
C1111 C1112 1.366 . S
C1112 C1111 1.366 . S
C1112 C1113 1.414 . S
C1112 C1115 1.499 . S
C1113 H1087 0.950 . S
C1113 C1112 1.414 . S
C1113 C1114 1.374 . S
C1114 H1088 0.950 . S
C1114 C1110 1.385 . S
C1114 C1113 1.374 . S
C1115 C1112 1.499 . S
C1115 C1116 1.373 . S
C1115 C1117 1.389 . S
C1116 H1089 0.950 . S
C1116 C1102 1.377 . S
C1116 C1115 1.373 . S
C1117 C1101 1.377 . S
C1117 C1115 1.389 . S
C1117 C1118 1.524 . S
C1118 C1117 1.524 . S
C1118 C1119 1.397 . S
C1118 C1123 1.363 . S
C1119 H1090 0.950 . S
C1119 C1118 1.397 . S
C1119 C1120 1.334 . S
C1120 H1091 0.950 . S
C1120 C1119 1.334 . S
C1120 C1121 1.287 . S
C1121 C1120 1.287 . S
C1121 C1122 1.524 . S
C1121 H1124 0.999 . S
C1122 H1092 0.950 . S
C1122 C1121 1.524 . S
C1122 C1123 1.415 . S
C1123 H1093 0.950 . S
C1123 C1118 1.363 . S
C1123 C1122 1.415 . S
H1124 C1121 0.999 . S
H1125 C1106 0.913 . S
H1126 C1144 0.951 . S
H1127 C1146 0.951 . S
H1128 C1148 0.950 . S
H1129 C1149 0.950 . S
H1130 C1151 0.950 . S
H1131 C1154 0.950 . S
H1132 C1155 0.950 . S
H1133 C1157 0.950 . S
H1134 C1158 0.950 . S
H1135 C1159 0.951 . S
H1136 C1161 0.951 . S
H1137 C1163 0.950 . S
H1138 C1164 0.950 . S
H1139 C1166 0.950 . S
H1140 C1169 0.950 . S
H1141 C1170 0.950 . S
H1142 C1172 0.950 . S
H1143 C1173 0.950 . S
C1144 H1126 0.951 . S
C1144 C1145 1.366 . S
C1144 C1146 1.388 . S
C1145 C1144 1.366 . S
C1145 C1149 1.385 . S
C1146 H1127 0.951 . S
C1146 C1144 1.388 . S
C1146 C1147 1.366 . S
C1147 C1146 1.366 . S
C1147 C1148 1.414 . S
C1147 C1150 1.499 . S
C1148 H1128 0.950 . S
C1148 C1147 1.414 . S
C1148 C1149 1.374 . S
C1149 H1129 0.950 . S
C1149 C1145 1.385 . S
C1149 C1148 1.374 . S
C1150 C1147 1.499 . S
C1150 C1151 1.373 . S
C1150 C1152 1.389 . S
C1151 H1130 0.950 . S
C1151 C1150 1.373 . S
C1151 C1167 1.377 . S
C1152 C1150 1.389 . S
C1152 C1153 1.524 . S
C1152 C1166 1.377 . S
C1153 C1152 1.524 . S
C1153 C1154 1.397 . S
C1153 C1158 1.363 . S
C1154 H1131 0.950 . S
C1154 C1153 1.397 . S
C1154 C1155 1.334 . S
C1155 H1132 0.950 . S
C1155 C1154 1.334 . S
C1155 C1156 1.287 . S
C1156 C1155 1.287 . S
C1156 C1157 1.524 . S
C1156 H1175 0.913 . S
C1157 H1133 0.950 . S
C1157 C1156 1.524 . S
C1157 C1158 1.415 . S
C1158 H1134 0.950 . S
C1158 C1153 1.363 . S
C1158 C1157 1.415 . S
C1159 H1135 0.951 . S
C1159 C1160 1.366 . S
C1159 C1161 1.388 . S
C1160 C1159 1.366 . S
C1160 C1164 1.385 . S
C1161 H1136 0.951 . S
C1161 C1159 1.388 . S
C1161 C1162 1.366 . S
C1162 C1161 1.366 . S
C1162 C1163 1.414 . S
C1162 C1165 1.499 . S
C1163 H1137 0.950 . S
C1163 C1162 1.414 . S
C1163 C1164 1.374 . S
C1164 H1138 0.950 . S
C1164 C1160 1.385 . S
C1164 C1163 1.374 . S
C1165 C1162 1.499 . S
C1165 C1166 1.373 . S
C1165 C1167 1.389 . S
C1166 H1139 0.950 . S
C1166 C1152 1.377 . S
C1166 C1165 1.373 . S
C1167 C1151 1.377 . S
C1167 C1165 1.389 . S
C1167 C1168 1.524 . S
C1168 C1167 1.524 . S
C1168 C1169 1.397 . S
C1168 C1173 1.363 . S
C1169 H1140 0.950 . S
C1169 C1168 1.397 . S
C1169 C1170 1.334 . S
C1170 H1141 0.950 . S
C1170 C1169 1.334 . S
C1170 C1171 1.287 . S
C1171 C1170 1.287 . S
C1171 C1172 1.524 . S
C1171 H1174 0.999 . S
C1172 H1142 0.950 . S
C1172 C1171 1.524 . S
C1172 C1173 1.415 . S
C1173 H1143 0.950 . S
C1173 C1168 1.363 . S
C1173 C1172 1.415 . S
H1174 C1171 0.999 . S
H1175 C1156 0.913 . S
H1176 C1194 0.951 . S
H1177 C1196 0.951 . S
H1178 C1198 0.950 . S
H1179 C1199 0.950 . S
H1180 C1201 0.950 . S
H1181 C1204 0.950 . S
H1182 C1205 0.950 . S
H1183 C1207 0.950 . S
H1184 C1208 0.950 . S
H1185 C1209 0.951 . S
H1186 C1211 0.951 . S
H1187 C1213 0.950 . S
H1188 C1214 0.950 . S
H1189 C1216 0.950 . S
H1190 C1219 0.950 . S
H1191 C1220 0.950 . S
H1192 C1222 0.950 . S
H1193 C1223 0.950 . S
C1194 H1176 0.951 . S
C1194 C1195 1.366 . S
C1194 C1196 1.388 . S
C1195 C1194 1.366 . S
C1195 C1199 1.385 . S
C1196 H1177 0.951 . S
C1196 C1194 1.388 . S
C1196 C1197 1.366 . S
C1197 C1196 1.366 . S
C1197 C1198 1.414 . S
C1197 C1200 1.499 . S
C1198 H1178 0.950 . S
C1198 C1197 1.414 . S
C1198 C1199 1.374 . S
C1199 H1179 0.950 . S
C1199 C1195 1.385 . S
C1199 C1198 1.374 . S
C1200 C1197 1.499 . S
C1200 C1201 1.373 . S
C1200 C1202 1.389 . S
C1201 H1180 0.950 . S
C1201 C1200 1.373 . S
C1201 C1217 1.377 . S
C1202 C1200 1.389 . S
C1202 C1203 1.524 . S
C1202 C1216 1.377 . S
C1203 C1202 1.524 . S
C1203 C1204 1.397 . S
C1203 C1208 1.363 . S
C1204 H1181 0.950 . S
C1204 C1203 1.397 . S
C1204 C1205 1.334 . S
C1205 H1182 0.950 . S
C1205 C1204 1.334 . S
C1205 C1206 1.287 . S
C1206 C1205 1.287 . S
C1206 C1207 1.524 . S
C1206 H1225 0.913 . S
C1207 H1183 0.950 . S
C1207 C1206 1.524 . S
C1207 C1208 1.415 . S
C1208 H1184 0.950 . S
C1208 C1203 1.363 . S
C1208 C1207 1.415 . S
C1209 H1185 0.951 . S
C1209 C1210 1.366 . S
C1209 C1211 1.388 . S
C1210 C1209 1.366 . S
C1210 C1214 1.385 . S
C1211 H1186 0.951 . S
C1211 C1209 1.388 . S
C1211 C1212 1.366 . S
C1212 C1211 1.366 . S
C1212 C1213 1.414 . S
C1212 C1215 1.499 . S
C1213 H1187 0.950 . S
C1213 C1212 1.414 . S
C1213 C1214 1.374 . S
C1214 H1188 0.950 . S
C1214 C1210 1.385 . S
C1214 C1213 1.374 . S
C1215 C1212 1.499 . S
C1215 C1216 1.373 . S
C1215 C1217 1.389 . S
C1216 H1189 0.950 . S
C1216 C1202 1.377 . S
C1216 C1215 1.373 . S
C1217 C1201 1.377 . S
C1217 C1215 1.389 . S
C1217 C1218 1.524 . S
C1218 C1217 1.524 . S
C1218 C1219 1.397 . S
C1218 C1223 1.363 . S
C1219 H1190 0.950 . S
C1219 C1218 1.397 . S
C1219 C1220 1.334 . S
C1220 H1191 0.950 . S
C1220 C1219 1.334 . S
C1220 C1221 1.287 . S
C1221 C1220 1.287 . S
C1221 C1222 1.524 . S
C1221 H1224 0.999 . S
C1222 H1192 0.950 . S
C1222 C1221 1.524 . S
C1222 C1223 1.415 . S
C1223 H1193 0.950 . S
C1223 C1218 1.363 . S
C1223 C1222 1.415 . S
H1224 C1221 0.999 . S
H1225 C1206 0.913 . S
H1226 C1244 0.951 . S
H1227 C1246 0.951 . S
H1228 C1248 0.950 . S
H1229 C1249 0.950 . S
H1230 C1251 0.950 . S
H1231 C1254 0.950 . S
H1232 C1255 0.950 . S
H1233 C1257 0.950 . S
H1234 C1258 0.950 . S
H1235 C1259 0.951 . S
H1236 C1261 0.951 . S
H1237 C1263 0.950 . S
H1238 C1264 0.950 . S
H1239 C1266 0.950 . S
H1240 C1269 0.950 . S
H1241 C1270 0.950 . S
H1242 C1272 0.950 . S
H1243 C1273 0.950 . S
C1244 H1226 0.951 . S
C1244 C1245 1.366 . S
C1244 C1246 1.388 . S
C1245 C1244 1.366 . S
C1245 C1249 1.385 . S
C1246 H1227 0.951 . S
C1246 C1244 1.388 . S
C1246 C1247 1.366 . S
C1247 C1246 1.366 . S
C1247 C1248 1.414 . S
C1247 C1250 1.499 . S
C1248 H1228 0.950 . S
C1248 C1247 1.414 . S
C1248 C1249 1.374 . S
C1249 H1229 0.950 . S
C1249 C1245 1.385 . S
C1249 C1248 1.374 . S
C1250 C1247 1.499 . S
C1250 C1251 1.373 . S
C1250 C1252 1.389 . S
C1251 H1230 0.950 . S
C1251 C1250 1.373 . S
C1251 C1267 1.377 . S
C1252 C1250 1.389 . S
C1252 C1253 1.524 . S
C1252 C1266 1.377 . S
C1253 C1252 1.524 . S
C1253 C1254 1.397 . S
C1253 C1258 1.363 . S
C1254 H1231 0.950 . S
C1254 C1253 1.397 . S
C1254 C1255 1.334 . S
C1255 H1232 0.950 . S
C1255 C1254 1.334 . S
C1255 C1256 1.287 . S
C1256 C1255 1.287 . S
C1256 C1257 1.524 . S
C1256 H1275 0.913 . S
C1257 H1233 0.950 . S
C1257 C1256 1.524 . S
C1257 C1258 1.415 . S
C1258 H1234 0.950 . S
C1258 C1253 1.363 . S
C1258 C1257 1.415 . S
C1259 H1235 0.951 . S
C1259 C1260 1.366 . S
C1259 C1261 1.388 . S
C1260 C1259 1.366 . S
C1260 C1264 1.385 . S
C1261 H1236 0.951 . S
C1261 C1259 1.388 . S
C1261 C1262 1.366 . S
C1262 C1261 1.366 . S
C1262 C1263 1.414 . S
C1262 C1265 1.499 . S
C1263 H1237 0.950 . S
C1263 C1262 1.414 . S
C1263 C1264 1.374 . S
C1264 H1238 0.950 . S
C1264 C1260 1.385 . S
C1264 C1263 1.374 . S
C1265 C1262 1.499 . S
C1265 C1266 1.373 . S
C1265 C1267 1.389 . S
C1266 H1239 0.950 . S
C1266 C1252 1.377 . S
C1266 C1265 1.373 . S
C1267 C1251 1.377 . S
C1267 C1265 1.389 . S
C1267 C1268 1.524 . S
C1268 C1267 1.524 . S
C1268 C1269 1.397 . S
C1268 C1273 1.363 . S
C1269 H1240 0.950 . S
C1269 C1268 1.397 . S
C1269 C1270 1.334 . S
C1270 H1241 0.950 . S
C1270 C1269 1.334 . S
C1270 C1271 1.287 . S
C1271 C1270 1.287 . S
C1271 C1272 1.524 . S
C1271 H1274 0.999 . S
C1272 H1242 0.950 . S
C1272 C1271 1.524 . S
C1272 C1273 1.415 . S
C1273 H1243 0.950 . S
C1273 C1268 1.363 . S
C1273 C1272 1.415 . S
H1274 C1271 0.999 . S
H1275 C1256 0.913 . S
H1276 C1294 0.951 . S
H1277 C1296 0.951 . S
H1278 C1298 0.950 . S
H1279 C1299 0.950 . S
H1280 C1301 0.950 . S
H1281 C1304 0.950 . S
H1282 C1305 0.950 . S
H1283 C1307 0.950 . S
H1284 C1308 0.950 . S
H1285 C1309 0.951 . S
H1286 C1311 0.951 . S
H1287 C1313 0.950 . S
H1288 C1314 0.950 . S
H1289 C1316 0.950 . S
H1290 C1319 0.950 . S
H1291 C1320 0.950 . S
H1292 C1322 0.950 . S
H1293 C1323 0.950 . S
C1294 H1276 0.951 . S
C1294 C1295 1.366 . S
C1294 C1296 1.388 . S
C1295 C1294 1.366 . S
C1295 C1299 1.385 . S
C1296 H1277 0.951 . S
C1296 C1294 1.388 . S
C1296 C1297 1.366 . S
C1297 C1296 1.366 . S
C1297 C1298 1.414 . S
C1297 C1300 1.499 . S
C1298 H1278 0.950 . S
C1298 C1297 1.414 . S
C1298 C1299 1.374 . S
C1299 H1279 0.950 . S
C1299 C1295 1.385 . S
C1299 C1298 1.374 . S
C1300 C1297 1.499 . S
C1300 C1301 1.373 . S
C1300 C1302 1.389 . S
C1301 H1280 0.950 . S
C1301 C1300 1.373 . S
C1301 C1317 1.377 . S
C1302 C1300 1.389 . S
C1302 C1303 1.524 . S
C1302 C1316 1.377 . S
C1303 C1302 1.524 . S
C1303 C1304 1.397 . S
C1303 C1308 1.363 . S
C1304 H1281 0.950 . S
C1304 C1303 1.397 . S
C1304 C1305 1.334 . S
C1305 H1282 0.950 . S
C1305 C1304 1.334 . S
C1305 C1306 1.287 . S
C1306 C1305 1.287 . S
C1306 C1307 1.524 . S
C1306 H1325 0.913 . S
C1307 H1283 0.950 . S
C1307 C1306 1.524 . S
C1307 C1308 1.415 . S
C1308 H1284 0.950 . S
C1308 C1303 1.363 . S
C1308 C1307 1.415 . S
C1309 H1285 0.951 . S
C1309 C1310 1.366 . S
C1309 C1311 1.388 . S
C1310 C1309 1.366 . S
C1310 C1314 1.385 . S
C1311 H1286 0.951 . S
C1311 C1309 1.388 . S
C1311 C1312 1.366 . S
C1312 C1311 1.366 . S
C1312 C1313 1.414 . S
C1312 C1315 1.499 . S
C1313 H1287 0.950 . S
C1313 C1312 1.414 . S
C1313 C1314 1.374 . S
C1314 H1288 0.950 . S
C1314 C1310 1.385 . S
C1314 C1313 1.374 . S
C1315 C1312 1.499 . S
C1315 C1316 1.373 . S
C1315 C1317 1.389 . S
C1316 H1289 0.950 . S
C1316 C1302 1.377 . S
C1316 C1315 1.373 . S
C1317 C1301 1.377 . S
C1317 C1315 1.389 . S
C1317 C1318 1.524 . S
C1318 C1317 1.524 . S
C1318 C1319 1.397 . S
C1318 C1323 1.363 . S
C1319 H1290 0.950 . S
C1319 C1318 1.397 . S
C1319 C1320 1.334 . S
C1320 H1291 0.950 . S
C1320 C1319 1.334 . S
C1320 C1321 1.287 . S
C1321 C1320 1.287 . S
C1321 C1322 1.524 . S
C1321 H1324 0.999 . S
C1322 H1292 0.950 . S
C1322 C1321 1.524 . S
C1322 C1323 1.415 . S
C1323 H1293 0.950 . S
C1323 C1318 1.363 . S
C1323 C1322 1.415 . S
H1324 C1321 0.999 . S
H1325 C1306 0.913 . S
H1326 C1344 0.951 . S
H1327 C1346 0.951 . S
H1328 C1348 0.950 . S
H1329 C1349 0.950 . S
H1330 C1351 0.950 . S
H1331 C1354 0.950 . S
H1332 C1355 0.950 . S
H1333 C1357 0.950 . S
H1334 C1358 0.950 . S
H1335 C1359 0.951 . S
H1336 C1361 0.951 . S
H1337 C1363 0.950 . S
H1338 C1364 0.950 . S
H1339 C1366 0.950 . S
H1340 C1369 0.950 . S
H1341 C1370 0.950 . S
H1342 C1372 0.950 . S
H1343 C1373 0.950 . S
C1344 H1326 0.951 . S
C1344 C1345 1.366 . S
C1344 C1346 1.388 . S
C1345 C1344 1.366 . S
C1345 C1349 1.385 . S
C1346 H1327 0.951 . S
C1346 C1344 1.388 . S
C1346 C1347 1.366 . S
C1347 C1346 1.366 . S
C1347 C1348 1.414 . S
C1347 C1350 1.499 . S
C1348 H1328 0.950 . S
C1348 C1347 1.414 . S
C1348 C1349 1.374 . S
C1349 H1329 0.950 . S
C1349 C1345 1.385 . S
C1349 C1348 1.374 . S
C1350 C1347 1.499 . S
C1350 C1351 1.373 . S
C1350 C1352 1.389 . S
C1351 H1330 0.950 . S
C1351 C1350 1.373 . S
C1351 C1367 1.377 . S
C1352 C1350 1.389 . S
C1352 C1353 1.524 . S
C1352 C1366 1.377 . S
C1353 C1352 1.524 . S
C1353 C1354 1.397 . S
C1353 C1358 1.363 . S
C1354 H1331 0.950 . S
C1354 C1353 1.397 . S
C1354 C1355 1.334 . S
C1355 H1332 0.950 . S
C1355 C1354 1.334 . S
C1355 C1356 1.287 . S
C1356 C1355 1.287 . S
C1356 C1357 1.524 . S
C1356 H1375 0.913 . S
C1357 H1333 0.950 . S
C1357 C1356 1.524 . S
C1357 C1358 1.415 . S
C1358 H1334 0.950 . S
C1358 C1353 1.363 . S
C1358 C1357 1.415 . S
C1359 H1335 0.951 . S
C1359 C1360 1.366 . S
C1359 C1361 1.388 . S
C1360 C1359 1.366 . S
C1360 C1364 1.385 . S
C1361 H1336 0.951 . S
C1361 C1359 1.388 . S
C1361 C1362 1.366 . S
C1362 C1361 1.366 . S
C1362 C1363 1.414 . S
C1362 C1365 1.499 . S
C1363 H1337 0.950 . S
C1363 C1362 1.414 . S
C1363 C1364 1.374 . S
C1364 H1338 0.950 . S
C1364 C1360 1.385 . S
C1364 C1363 1.374 . S
C1365 C1362 1.499 . S
C1365 C1366 1.373 . S
C1365 C1367 1.389 . S
C1366 H1339 0.950 . S
C1366 C1352 1.377 . S
C1366 C1365 1.373 . S
C1367 C1351 1.377 . S
C1367 C1365 1.389 . S
C1367 C1368 1.524 . S
C1368 C1367 1.524 . S
C1368 C1369 1.397 . S
C1368 C1373 1.363 . S
C1369 H1340 0.950 . S
C1369 C1368 1.397 . S
C1369 C1370 1.334 . S
C1370 H1341 0.950 . S
C1370 C1369 1.334 . S
C1370 C1371 1.287 . S
C1371 C1370 1.287 . S
C1371 C1372 1.524 . S
C1371 H1374 0.999 . S
C1372 H1342 0.950 . S
C1372 C1371 1.524 . S
C1372 C1373 1.415 . S
C1373 H1343 0.950 . S
C1373 C1368 1.363 . S
C1373 C1372 1.415 . S
H1374 C1371 0.999 . S
H1375 C1356 0.913 . S
H1376 C1394 0.951 . S
H1377 C1396 0.951 . S
H1378 C1398 0.950 . S
H1379 C1399 0.950 . S
H1380 C1401 0.950 . S
H1381 C1404 0.950 . S
H1382 C1405 0.950 . S
H1383 C1407 0.950 . S
H1384 C1408 0.950 . S
H1385 C1409 0.951 . S
H1386 C1411 0.951 . S
H1387 C1413 0.950 . S
H1388 C1414 0.950 . S
H1389 C1416 0.950 . S
H1390 C1419 0.950 . S
H1391 C1420 0.950 . S
H1392 C1422 0.950 . S
H1393 C1423 0.950 . S
C1394 H1376 0.951 . S
C1394 C1395 1.366 . S
C1394 C1396 1.388 . S
C1395 C1394 1.366 . S
C1395 C1399 1.385 . S
C1396 H1377 0.951 . S
C1396 C1394 1.388 . S
C1396 C1397 1.366 . S
C1397 C1396 1.366 . S
C1397 C1398 1.414 . S
C1397 C1400 1.499 . S
C1398 H1378 0.950 . S
C1398 C1397 1.414 . S
C1398 C1399 1.374 . S
C1399 H1379 0.950 . S
C1399 C1395 1.385 . S
C1399 C1398 1.374 . S
C1400 C1397 1.499 . S
C1400 C1401 1.373 . S
C1400 C1402 1.389 . S
C1401 H1380 0.950 . S
C1401 C1400 1.373 . S
C1401 C1417 1.377 . S
C1402 C1400 1.389 . S
C1402 C1403 1.524 . S
C1402 C1416 1.377 . S
C1403 C1402 1.524 . S
C1403 C1404 1.397 . S
C1403 C1408 1.363 . S
C1404 H1381 0.950 . S
C1404 C1403 1.397 . S
C1404 C1405 1.334 . S
C1405 H1382 0.950 . S
C1405 C1404 1.334 . S
C1405 C1406 1.287 . S
C1406 C1405 1.287 . S
C1406 C1407 1.524 . S
C1406 H1425 0.913 . S
C1407 H1383 0.950 . S
C1407 C1406 1.524 . S
C1407 C1408 1.415 . S
C1408 H1384 0.950 . S
C1408 C1403 1.363 . S
C1408 C1407 1.415 . S
C1409 H1385 0.951 . S
C1409 C1410 1.366 . S
C1409 C1411 1.388 . S
C1410 C1409 1.366 . S
C1410 C1414 1.385 . S
C1411 H1386 0.951 . S
C1411 C1409 1.388 . S
C1411 C1412 1.366 . S
C1412 C1411 1.366 . S
C1412 C1413 1.414 . S
C1412 C1415 1.499 . S
C1413 H1387 0.950 . S
C1413 C1412 1.414 . S
C1413 C1414 1.374 . S
C1414 H1388 0.950 . S
C1414 C1410 1.385 . S
C1414 C1413 1.374 . S
C1415 C1412 1.499 . S
C1415 C1416 1.373 . S
C1415 C1417 1.389 . S
C1416 H1389 0.950 . S
C1416 C1402 1.377 . S
C1416 C1415 1.373 . S
C1417 C1401 1.377 . S
C1417 C1415 1.389 . S
C1417 C1418 1.524 . S
C1418 C1417 1.524 . S
C1418 C1419 1.397 . S
C1418 C1423 1.363 . S
C1419 H1390 0.950 . S
C1419 C1418 1.397 . S
C1419 C1420 1.334 . S
C1420 H1391 0.950 . S
C1420 C1419 1.334 . S
C1420 C1421 1.287 . S
C1421 C1420 1.287 . S
C1421 C1422 1.524 . S
C1421 H1424 0.999 . S
C1422 H1392 0.950 . S
C1422 C1421 1.524 . S
C1422 C1423 1.415 . S
C1423 H1393 0.950 . S
C1423 C1418 1.363 . S
C1423 C1422 1.415 . S
H1424 C1421 0.999 . S
H1425 C1406 0.913 . S
H1426 C1444 0.951 . S
H1427 C1446 0.951 . S
H1428 C1448 0.950 . S
H1429 C1449 0.950 . S
H1430 C1451 0.950 . S
H1431 C1454 0.950 . S
H1432 C1455 0.950 . S
H1433 C1457 0.957 . S
H1434 C1458 0.950 . S
H1435 C1459 0.951 . S
H1436 C1461 0.951 . S
H1437 C1463 0.950 . S
H1438 C1464 0.950 . S
H1439 C1466 0.950 . S
H1440 C1469 0.950 . S
H1441 C1470 0.950 . S
H1442 C1472 0.950 . S
H1443 C1473 0.950 . S
C1444 H1426 0.951 . S
C1444 C1445 1.366 . S
C1444 C1446 1.388 . S
C1445 C1444 1.366 . S
C1445 C1449 1.385 . S
C1446 H1427 0.951 . S
C1446 C1444 1.388 . S
C1446 C1447 1.366 . S
C1447 C1446 1.366 . S
C1447 C1448 1.414 . S
C1447 C1450 1.499 . S
C1448 H1428 0.950 . S
C1448 C1447 1.414 . S
C1448 C1449 1.374 . S
C1449 H1429 0.950 . S
C1449 C1445 1.385 . S
C1449 C1448 1.374 . S
C1450 C1447 1.499 . S
C1450 C1451 1.373 . S
C1450 C1452 1.389 . S
C1451 H1430 0.950 . S
C1451 C1450 1.373 . S
C1451 C1467 1.377 . S
C1452 C1450 1.389 . S
C1452 C1453 1.524 . S
C1452 C1466 1.377 . S
C1453 C1452 1.524 . S
C1453 C1454 1.397 . S
C1453 C1458 1.363 . S
C1454 H1431 0.950 . S
C1454 C1453 1.397 . S
C1454 C1455 1.334 . S
C1455 H1432 0.950 . S
C1455 C1454 1.334 . S
C1455 C1456 1.287 . S
C1456 C1455 1.287 . S
C1456 C1457 1.524 . S
C1456 H1475 0.913 1_655 S
C1457 H1433 0.957 . S
C1457 C1456 1.524 . S
C1457 C1458 1.415 . S
C1458 H1434 0.950 . S
C1458 C1453 1.363 . S
C1458 C1457 1.415 . S
C1459 H1435 0.951 . S
C1459 C1460 1.366 . S
C1459 C1461 1.388 . S
C1460 C1459 1.366 . S
C1460 C1464 1.385 . S
C1461 H1436 0.951 . S
C1461 C1459 1.388 . S
C1461 C1462 1.366 . S
C1462 C1461 1.366 . S
C1462 C1463 1.414 . S
C1462 C1465 1.499 . S
C1463 H1437 0.950 . S
C1463 C1462 1.414 . S
C1463 C1464 1.374 . S
C1464 H1438 0.950 . S
C1464 C1460 1.385 . S
C1464 C1463 1.374 . S
C1465 C1462 1.499 . S
C1465 C1466 1.373 . S
C1465 C1467 1.389 . S
C1466 H1439 0.950 . S
C1466 C1452 1.377 . S
C1466 C1465 1.373 . S
C1467 C1451 1.377 . S
C1467 C1465 1.389 . S
C1467 C1468 1.524 . S
C1468 C1467 1.524 . S
C1468 C1469 1.397 . S
C1468 C1473 1.363 . S
C1469 H1440 0.950 . S
C1469 C1468 1.397 . S
C1469 C1470 1.334 . S
C1470 H1441 0.950 . S
C1470 C1469 1.334 . S
C1470 C1471 1.287 . S
C1471 C1470 1.287 . S
C1471 C1472 1.524 . S
C1471 H1474 0.999 . S
C1472 H1442 0.950 . S
C1472 C1471 1.524 . S
C1472 C1473 1.415 . S
C1473 H1443 0.950 . S
C1473 C1468 1.363 . S
C1473 C1472 1.415 . S
H1474 C1471 0.999 . S
H1475 C1456 0.913 1_455 S
H1476 C1494 0.951 . S
H1477 C1496 0.951 . S
H1478 C1498 0.950 . S
H1479 C1499 0.950 . S
H1480 C1501 0.950 . S
H1481 C1504 0.950 . S
H1482 C1505 0.950 . S
H1483 C1507 0.950 . S
H1484 C1508 0.950 . S
H1485 C1509 0.951 . S
H1486 C1511 0.951 . S
H1487 C1513 0.950 . S
H1488 C1514 0.950 . S
H1489 C1516 0.950 . S
H1490 C1519 0.950 . S
H1491 C1520 0.950 . S
H1492 C1522 0.950 . S
H1493 C1523 0.950 . S
C1494 H1476 0.951 . S
C1494 C1495 1.366 . S
C1494 C1496 1.388 . S
C1495 C1494 1.366 . S
C1495 C1499 1.385 . S
C1496 H1477 0.951 . S
C1496 C1494 1.388 . S
C1496 C1497 1.366 . S
C1497 C1496 1.366 . S
C1497 C1498 1.414 . S
C1497 C1500 1.499 . S
C1498 H1478 0.950 . S
C1498 C1497 1.414 . S
C1498 C1499 1.374 . S
C1499 H1479 0.950 . S
C1499 C1495 1.385 . S
C1499 C1498 1.374 . S
C1500 C1497 1.499 . S
C1500 C1501 1.373 . S
C1500 C1502 1.389 . S
C1501 H1480 0.950 . S
C1501 C1500 1.373 . S
C1501 C1517 1.377 . S
C1502 C1500 1.389 . S
C1502 C1503 1.524 . S
C1502 C1516 1.377 . S
C1503 C1502 1.524 . S
C1503 C1504 1.397 . S
C1503 C1508 1.363 . S
C1504 H1481 0.950 . S
C1504 C1503 1.397 . S
C1504 C1505 1.334 . S
C1505 H1482 0.950 . S
C1505 C1504 1.334 . S
C1505 C1506 1.287 . S
C1506 C1505 1.287 . S
C1506 C1507 1.524 . S
C1506 H1525 0.913 . S
C1507 H1483 0.950 . S
C1507 C1506 1.524 . S
C1507 C1508 1.415 . S
C1508 H1484 0.950 . S
C1508 C1503 1.363 . S
C1508 C1507 1.415 . S
C1509 H1485 0.951 . S
C1509 C1510 1.366 . S
C1509 C1511 1.388 . S
C1510 C1509 1.366 . S
C1510 C1514 1.385 . S
C1511 H1486 0.951 . S
C1511 C1509 1.388 . S
C1511 C1512 1.366 . S
C1512 C1511 1.366 . S
C1512 C1513 1.414 . S
C1512 C1515 1.499 . S
C1513 H1487 0.950 . S
C1513 C1512 1.414 . S
C1513 C1514 1.374 . S
C1514 H1488 0.950 . S
C1514 C1510 1.385 . S
C1514 C1513 1.374 . S
C1515 C1512 1.499 . S
C1515 C1516 1.373 . S
C1515 C1517 1.389 . S
C1516 H1489 0.950 . S
C1516 C1502 1.377 . S
C1516 C1515 1.373 . S
C1517 C1501 1.377 . S
C1517 C1515 1.389 . S
C1517 C1518 1.524 . S
C1518 C1517 1.524 . S
C1518 C1519 1.397 . S
C1518 C1523 1.363 . S
C1519 H1490 0.950 . S
C1519 C1518 1.397 . S
C1519 C1520 1.334 . S
C1520 H1491 0.950 . S
C1520 C1519 1.334 . S
C1520 C1521 1.287 . S
C1521 C1520 1.287 . S
C1521 C1522 1.524 . S
C1521 H1524 0.999 . S
C1522 H1492 0.950 . S
C1522 C1521 1.524 . S
C1522 C1523 1.415 . S
C1523 H1493 0.950 . S
C1523 C1518 1.363 . S
C1523 C1522 1.415 . S
H1524 C1521 0.999 . S
H1525 C1506 0.913 . S
H1526 C1544 0.951 . S
H1527 C1546 0.951 . S
H1528 C1548 0.950 . S
H1529 C1549 0.950 . S
H1530 C1551 0.950 . S
H1531 C1554 0.950 . S
H1532 C1555 0.950 . S
H1533 C1557 0.950 . S
H1534 C1558 0.950 . S
H1535 C1559 0.951 . S
H1536 C1561 0.951 . S
H1537 C1563 0.950 . S
H1538 C1564 0.950 . S
H1539 C1566 0.950 . S
H1540 C1569 0.950 . S
H1541 C1570 0.950 . S
H1542 C1572 0.950 . S
H1543 C1573 0.950 . S
C1544 H1526 0.951 . S
C1544 C1545 1.366 . S
C1544 C1546 1.388 . S
C1545 C1544 1.366 . S
C1545 C1549 1.385 . S
C1546 H1527 0.951 . S
C1546 C1544 1.388 . S
C1546 C1547 1.366 . S
C1547 C1546 1.366 . S
C1547 C1548 1.414 . S
C1547 C1550 1.499 . S
C1548 H1528 0.950 . S
C1548 C1547 1.414 . S
C1548 C1549 1.374 . S
C1549 H1529 0.950 . S
C1549 C1545 1.385 . S
C1549 C1548 1.374 . S
C1550 C1547 1.499 . S
C1550 C1551 1.373 . S
C1550 C1552 1.389 . S
C1551 H1530 0.950 . S
C1551 C1550 1.373 . S
C1551 C1567 1.377 . S
C1552 C1550 1.389 . S
C1552 C1553 1.524 . S
C1552 C1566 1.377 . S
C1553 C1552 1.524 . S
C1553 C1554 1.397 . S
C1553 C1558 1.363 . S
C1554 H1531 0.950 . S
C1554 C1553 1.397 . S
C1554 C1555 1.334 . S
C1555 H1532 0.950 . S
C1555 C1554 1.334 . S
C1555 C1556 1.287 . S
C1556 C1555 1.287 . S
C1556 C1557 1.524 . S
C1556 H1575 0.913 . S
C1557 H1533 0.950 . S
C1557 C1556 1.524 . S
C1557 C1558 1.415 . S
C1558 H1534 0.950 . S
C1558 C1553 1.363 . S
C1558 C1557 1.415 . S
C1559 H1535 0.951 . S
C1559 C1560 1.366 . S
C1559 C1561 1.388 . S
C1560 C1559 1.366 . S
C1560 C1564 1.385 . S
C1561 H1536 0.951 . S
C1561 C1559 1.388 . S
C1561 C1562 1.366 . S
C1562 C1561 1.366 . S
C1562 C1563 1.414 . S
C1562 C1565 1.499 . S
C1563 H1537 0.950 . S
C1563 C1562 1.414 . S
C1563 C1564 1.374 . S
C1564 H1538 0.950 . S
C1564 C1560 1.385 . S
C1564 C1563 1.374 . S
C1565 C1562 1.499 . S
C1565 C1566 1.373 . S
C1565 C1567 1.389 . S
C1566 H1539 0.950 . S
C1566 C1552 1.377 . S
C1566 C1565 1.373 . S
C1567 C1551 1.377 . S
C1567 C1565 1.389 . S
C1567 C1568 1.524 . S
C1568 C1567 1.524 . S
C1568 C1569 1.397 . S
C1568 C1573 1.363 . S
C1569 H1540 0.950 . S
C1569 C1568 1.397 . S
C1569 C1570 1.334 . S
C1570 H1541 0.950 . S
C1570 C1569 1.334 . S
C1570 C1571 1.287 . S
C1571 C1570 1.287 . S
C1571 C1572 1.524 . S
C1571 H1574 0.999 . S
C1572 H1542 0.950 . S
C1572 C1571 1.524 . S
C1572 C1573 1.415 . S
C1573 H1543 0.950 . S
C1573 C1568 1.363 . S
C1573 C1572 1.415 . S
H1574 C1571 0.999 . S
H1575 C1556 0.913 . S
H1576 C1594 0.951 . S
H1577 C1596 0.951 . S
H1578 C1598 0.950 . S
H1579 C1599 0.950 . S
H1580 C1601 0.950 . S
H1581 C1604 0.950 . S
H1582 C1605 0.950 . S
H1583 C1607 0.950 . S
H1584 C1608 0.950 . S
H1585 C1609 0.951 . S
H1586 C1611 0.951 . S
H1587 C1613 0.950 . S
H1588 C1614 0.950 . S
H1589 C1616 0.950 . S
H1590 C1619 0.950 . S
H1591 C1620 0.950 . S
H1592 C1622 0.950 . S
H1593 C1623 0.950 . S
C1594 H1576 0.951 . S
C1594 C1595 1.366 . S
C1594 C1596 1.388 . S
C1595 C1594 1.366 . S
C1595 C1599 1.385 . S
C1596 H1577 0.951 . S
C1596 C1594 1.388 . S
C1596 C1597 1.366 . S
C1597 C1596 1.366 . S
C1597 C1598 1.414 . S
C1597 C1600 1.499 . S
C1598 H1578 0.950 . S
C1598 C1597 1.414 . S
C1598 C1599 1.374 . S
C1599 H1579 0.950 . S
C1599 C1595 1.385 . S
C1599 C1598 1.374 . S
C1600 C1597 1.499 . S
C1600 C1601 1.373 . S
C1600 C1602 1.389 . S
C1601 H1580 0.950 . S
C1601 C1600 1.373 . S
C1601 C1617 1.377 . S
C1602 C1600 1.389 . S
C1602 C1603 1.524 . S
C1602 C1616 1.377 . S
C1603 C1602 1.524 . S
C1603 C1604 1.397 . S
C1603 C1608 1.363 . S
C1604 H1581 0.950 . S
C1604 C1603 1.397 . S
C1604 C1605 1.334 . S
C1605 H1582 0.950 . S
C1605 C1604 1.334 . S
C1605 C1606 1.287 . S
C1606 C1605 1.287 . S
C1606 C1607 1.524 . S
C1606 H1625 0.913 . S
C1607 H1583 0.950 . S
C1607 C1606 1.524 . S
C1607 C1608 1.415 . S
C1608 H1584 0.950 . S
C1608 C1603 1.363 . S
C1608 C1607 1.415 . S
C1609 H1585 0.951 . S
C1609 C1610 1.366 . S
C1609 C1611 1.388 . S
C1610 C1609 1.366 . S
C1610 C1614 1.385 . S
C1611 H1586 0.951 . S
C1611 C1609 1.388 . S
C1611 C1612 1.366 . S
C1612 C1611 1.366 . S
C1612 C1613 1.414 . S
C1612 C1615 1.499 . S
C1613 H1587 0.950 . S
C1613 C1612 1.414 . S
C1613 C1614 1.374 . S
C1614 H1588 0.950 . S
C1614 C1610 1.385 . S
C1614 C1613 1.374 . S
C1615 C1612 1.499 . S
C1615 C1616 1.373 . S
C1615 C1617 1.389 . S
C1616 H1589 0.950 . S
C1616 C1602 1.377 . S
C1616 C1615 1.373 . S
C1617 C1601 1.377 . S
C1617 C1615 1.389 . S
C1617 C1618 1.524 . S
C1618 C1617 1.524 . S
C1618 C1619 1.397 . S
C1618 C1623 1.363 . S
C1619 H1590 0.950 . S
C1619 C1618 1.397 . S
C1619 C1620 1.334 . S
C1620 H1591 0.950 . S
C1620 C1619 1.334 . S
C1620 C1621 1.287 . S
C1621 C1620 1.287 . S
C1621 C1622 1.524 . S
C1621 H1624 0.999 . S
C1622 H1592 0.950 . S
C1622 C1621 1.524 . S
C1622 C1623 1.415 . S
C1623 H1593 0.950 . S
C1623 C1618 1.363 . S
C1623 C1622 1.415 . S
H1624 C1621 0.999 . S
H1625 C1606 0.913 . S
C445 C7 1.858 . S
C460 C159 1.847 . S
C495 C30 1.619 . S
C510 C216 1.620 . S
C560 C270 1.722 . S
C545 N58 1.701 . S
C610 C327 1.454 . S
C595 N81 1.449 . S
C660 C351 1.747 . S
C645 C99 1.754 . S
C710 C408 1.526 . S
C695 N127 1.481 . S
C745 N25 1.705 . S
C760 C255 1.734 . S
C795 C62 1.603 . S
C810 C312 1.606 . S
C860 C366 1.779 . S
C845 C85 1.797 . S
C910 C423 1.487 . S
C895 N94 1.495 . S
C945 C131 1.793 . S
C960 C174 1.770 . S
C1010 C231 1.460 . S
C995 N2 1.459 . S
C1060 C318 1.797 . S
C1045 C16 1.804 . S
C1095 C39 1.578 . S
C1110 C360 1.549 . S
C1160 C399 1.708 . S
C1145 N48 1.690 . S
C1195 N71 1.449 . S
C1210 C168 1.452 . S
C1245 C108 1.762 . S
C1260 C207 1.748 . S
C1295 N117 1.476 . S
C1310 C279 1.523 . S
C1345 N35 1.695 . S
C1360 C414 1.729 . S
C1410 C183 1.620 . S
C1395 C53 1.618 . S
C1445 C76 1.840 . S
C1460 C222 1.830 . S
C1495 N104 1.476 . S
C1510 C264 1.475 . S
C1545 C122 1.749 . S
C1560 C303 1.727 . S
C1595 N12 1.429 . S
C1610 C375 1.471 . S
