# Generated by pormake.
# Topology pyr, (3,6)-cn, num edge types: 1
# Building blocks:
#     Node 0, Type 0, BuildingBlock: QEWDON_clean_linker_0, # of connection points: 3
#     Node 1, Type 0, BuildingBlock: QEWDON_clean_linker_0, # of connection points: 3
#     Node 2, Type 0, BuildingBlock: QEWDON_clean_linker_0, # of connection points: 3
#     Node 3, Type 0, BuildingBlock: QEWDON_clean_linker_0, # of connection points: 3
#     Node 4, Type 0, BuildingBlock: QEWDON_clean_linker_0, # of connection points: 3
#     Node 5, Type 0, BuildingBlock: QEWDON_clean_linker_0, # of connection points: 3
#     Node 6, Type 0, BuildingBlock: QEWDON_clean_linker_0, # of connection points: 3
#     Node 7, Type 0, BuildingBlock: QEWDON_clean_linker_0, # of connection points: 3
#     Node 8, Type 1, BuildingBlock: BETDIP_clean_sbu_0, # of connection points: 6
#     Node 9, Type 1, BuildingBlock: BETDIP_clean_sbu_0, # of connection points: 6
#     Node 10, Type 1, BuildingBlock: BETDIP_clean_sbu_0, # of connection points: 6
#     Node 11, Type 1, BuildingBlock: BETDIP_clean_sbu_0, # of connection points: 6
#     Edge 12, Type (0, 1), BuildingBlock: XIVTED_clean_linker_0, # of connection points: 2
#     Edge 13, Type (0, 1), BuildingBlock: XIVTED_clean_linker_0, # of connection points: 2
#     Edge 14, Type (0, 1), BuildingBlock: XIVTED_clean_linker_0, # of connection points: 2
#     Edge 15, Type (0, 1), BuildingBlock: XIVTED_clean_linker_0, # of connection points: 2
#     Edge 16, Type (0, 1), BuildingBlock: XIVTED_clean_linker_0, # of connection points: 2
#     Edge 17, Type (0, 1), BuildingBlock: XIVTED_clean_linker_0, # of connection points: 2
#     Edge 18, Type (0, 1), BuildingBlock: XIVTED_clean_linker_0, # of connection points: 2
#     Edge 19, Type (0, 1), BuildingBlock: XIVTED_clean_linker_0, # of connection points: 2
#     Edge 20, Type (0, 1), BuildingBlock: XIVTED_clean_linker_0, # of connection points: 2
#     Edge 21, Type (0, 1), BuildingBlock: XIVTED_clean_linker_0, # of connection points: 2
#     Edge 22, Type (0, 1), BuildingBlock: XIVTED_clean_linker_0, # of connection points: 2
#     Edge 23, Type (0, 1), BuildingBlock: XIVTED_clean_linker_0, # of connection points: 2
#     Edge 24, Type (0, 1), BuildingBlock: XIVTED_clean_linker_0, # of connection points: 2
#     Edge 25, Type (0, 1), BuildingBlock: XIVTED_clean_linker_0, # of connection points: 2
#     Edge 26, Type (0, 1), BuildingBlock: XIVTED_clean_linker_0, # of connection points: 2
#     Edge 27, Type (0, 1), BuildingBlock: XIVTED_clean_linker_0, # of connection points: 2
#     Edge 28, Type (0, 1), BuildingBlock: XIVTED_clean_linker_0, # of connection points: 2
#     Edge 29, Type (0, 1), BuildingBlock: XIVTED_clean_linker_0, # of connection points: 2
#     Edge 30, Type (0, 1), BuildingBlock: XIVTED_clean_linker_0, # of connection points: 2
#     Edge 31, Type (0, 1), BuildingBlock: XIVTED_clean_linker_0, # of connection points: 2
#     Edge 32, Type (0, 1), BuildingBlock: XIVTED_clean_linker_0, # of connection points: 2
#     Edge 33, Type (0, 1), BuildingBlock: XIVTED_clean_linker_0, # of connection points: 2
#     Edge 34, Type (0, 1), BuildingBlock: XIVTED_clean_linker_0, # of connection points: 2
#     Edge 35, Type (0, 1), BuildingBlock: XIVTED_clean_linker_0, # of connection points: 2
# Relax obj value: 0.167
# Max RMSD: 0.272
# Mean RMSD: 0.185
data_MOF--net-pyr--node1-BETDIP_clean_sbu_0--node2-QEWDON_clean_linker_0--edge1-XIVTED_clean_linker_0
_symmetry_space_group_name_H-M    P1
_symmetry_Int_Tables_number       1
_symmetry_cell_setting            triclinic
loop_
_symmetry_equiv_pos_as_xyz
'x, y, z'
_cell_length_a     36.239235
_cell_length_b     40.726525
_cell_length_c     41.380539
_cell_angle_alpha  88.675564
_cell_angle_beta   93.421057
_cell_angle_gamma 114.76691
loop_
_atom_site_label
_atom_site_type_symbol
_atom_site_fract_x
_atom_site_fract_y
_atom_site_fract_z
_atom_type_partial_charge
H0 H 0.43514 0.33345 0.21161 0.0
C1 C 0.4182 0.32518 0.2333 0.0
C2 C 0.41136 0.29159 0.24748 0.0
C3 C 0.40153 0.34739 0.24599 0.0
H4 H 0.38378 0.2553 0.28657 0.0
C5 C 0.38829 0.28075 0.27498 0.0
C6 C 0.37129 0.30249 0.28792 0.0
C7 C 0.37814 0.33588 0.27335 0.0
C8 C 0.40764 0.38213 0.23003 0.0
H9 H 0.36494 0.35276 0.2831 0.0
C10 C 0.37446 0.39104 0.22308 0.0
C11 C 0.38003 0.42385 0.20774 0.0
C12 C 0.44659 0.40637 0.22134 0.0
H13 H 0.47265 0.40019 0.2265 0.0
C14 C 0.45234 0.43907 0.2063 0.0
H15 H 0.34427 0.37238 0.22957 0.0
C16 C 0.41935 0.44786 0.19957 0.0
H17 H 0.4245 0.47319 0.18754 0.0
H18 H 0.48248 0.45764 0.19977 0.0
H19 H 0.15872 0.82074 0.77796 0.0
C20 C 0.1784 0.80982 0.76825 0.0
C21 C 0.2126 0.81112 0.7869 0.0
C22 C 0.16926 0.7943 0.7372 0.0
H23 H 0.26506 0.79888 0.78798 0.0
C24 C 0.23799 0.79711 0.77405 0.0
C25 C 0.22949 0.78189 0.74291 0.0
C26 C 0.19462 0.77992 0.72482 0.0
C27 C 0.13451 0.79498 0.71702 0.0
H28 H 0.18841 0.76894 0.70046 0.0
C29 C 0.12967 0.82736 0.71334 0.0
C30 C 0.09709 0.82857 0.69398 0.0
C31 C 0.10647 0.76363 0.70105 0.0
H32 H 0.10964 0.73839 0.70356 0.0
C33 C 0.07378 0.76457 0.68204 0.0
H34 H 0.15144 0.85169 0.72543 0.0
C35 C 0.06899 0.79679 0.67853 0.0
H36 H 0.04376 0.79699 0.66324 0.0
H37 H 0.05217 0.74029 0.66988 0.0
H38 H 0.69195 0.46094 0.90948 0.0
C39 C 0.67691 0.43278 0.91636 0.0
C40 C 0.69736 0.41731 0.93745 0.0
C41 C 0.63619 0.41237 0.90541 0.0
H42 H 0.69103 0.36926 0.96428 0.0
C43 C 0.67651 0.38091 0.9468 0.0
C44 C 0.63606 0.36001 0.9359 0.0
C45 C 0.61619 0.37604 0.91515 0.0
C46 C 0.61197 0.4299 0.88823 0.0
H47 H 0.58468 0.36051 0.90707 0.0
C48 C 0.6201 0.44465 0.85675 0.0
C49 C 0.59387 0.45833 0.84074 0.0
C50 C 0.57864 0.43029 0.90364 0.0
H51 H 0.57196 0.41932 0.92779 0.0
C52 C 0.55348 0.44457 0.88815 0.0
H53 H 0.64543 0.44417 0.84444 0.0
C54 C 0.5608 0.45823 0.85688 0.0
H55 H 0.54044 0.46871 0.84513 0.0
H56 H 0.52788 0.44465 0.90029 0.0
H57 H 0.92498 0.81417 0.37857 0.0
C58 C 0.90061 0.79479 0.39216 0.0
C59 C 0.89448 0.80364 0.42364 0.0
C60 C 0.87387 0.76179 0.37722 0.0
H61 H 0.8548 0.78562 0.46337 0.0
C62 C 0.86106 0.77877 0.43979 0.0
C63 C 0.8335 0.74624 0.42522 0.0
C64 C 0.84057 0.73754 0.39414 0.0
C65 C 0.87342 0.75779 0.34148 0.0
H66 H 0.8183 0.71348 0.38201 0.0
C67 C 0.89345 0.73942 0.32612 0.0
C68 C 0.89174 0.73734 0.29173 0.0
C69 C 0.85146 0.77313 0.32239 0.0
H70 H 0.83584 0.78714 0.33361 0.0
C71 C 0.84914 0.77055 0.28883 0.0
H72 H 0.91062 0.72759 0.34062 0.0
C73 C 0.86897 0.7529 0.27365 0.0
H74 H 0.86625 0.75124 0.24746 0.0
H75 H 0.83186 0.78236 0.27445 0.0
H76 H 0.69316 0.79838 0.96864 0.0
C77 C 0.70529 0.81547 0.94789 0.0
C78 C 0.74464 0.82272 0.93861 0.0
C79 C 0.68165 0.83066 0.93078 0.0
H80 H 0.78923 0.84913 0.90332 0.0
C81 C 0.75969 0.8448 0.91154 0.0
C82 C 0.73598 0.85955 0.89382 0.0
C83 C 0.69719 0.8528 0.90395 0.0
C84 C 0.63993 0.82232 0.93994 0.0
H85 H 0.67864 0.86413 0.89055 0.0
C86 C 0.629 0.85031 0.94784 0.0
C87 C 0.5888 0.84269 0.95538 0.0
C88 C 0.61062 0.78642 0.93977 0.0
H89 H 0.61852 0.76454 0.93362 0.0
C90 C 0.57061 0.77863 0.94666 0.0
H91 H 0.65223 0.87782 0.94882 0.0
C92 C 0.55963 0.80646 0.95419 0.0
H93 H 0.52816 0.79947 0.9589 0.0
H94 H 0.54793 0.75091 0.94597 0.0
H95 H 0.8972 0.30327 0.4774 0.0
C96 C 0.88079 0.30054 0.45422 0.0
C97 C 0.88746 0.28036 0.43006 0.0
C98 C 0.85184 0.31518 0.44916 0.0
H99 H 0.87319 0.26198 0.38072 0.0
C100 C 0.86801 0.2776 0.39938 0.0
C101 C 0.84075 0.29352 0.39297 0.0
C102 C 0.83199 0.31133 0.4181 0.0
C103 C 0.84075 0.33232 0.47662 0.0
H104 H 0.80913 0.32155 0.41317 0.0
C105 C 0.82157 0.35597 0.47079 0.0
C106 C 0.80832 0.36958 0.49642 0.0
C107 C 0.8473 0.32374 0.50916 0.0
H108 H 0.85996 0.30455 0.51544 0.0
C109 C 0.83622 0.33892 0.53465 0.0
H110 H 0.81631 0.36389 0.44646 0.0
C111 C 0.81671 0.3616 0.52841 0.0
H112 H 0.80655 0.37159 0.54855 0.0
H113 H 0.84154 0.33203 0.55939 0.0
H114 H 0.45502 0.81087 0.27461 0.0
C115 C 0.42404 0.79349 0.26646 0.0
C116 C 0.40227 0.80733 0.24533 0.0
C117 C 0.40683 0.75703 0.27638 0.0
H118 H 0.34678 0.79433 0.21662 0.0
C119 C 0.3626 0.78424 0.23443 0.0
C120 C 0.34429 0.74776 0.24409 0.0
C121 C 0.36672 0.73432 0.26536 0.0
C122 C 0.43363 0.74228 0.294 0.0
H123 H 0.35375 0.70609 0.27231 0.0
C124 C 0.42551 0.72604 0.32497 0.0
C125 C 0.4543 0.71576 0.34167 0.0
C126 C 0.46961 0.74653 0.27973 0.0
H127 H 0.47638 0.7586 0.25596 0.0
C128 C 0.49738 0.73564 0.29588 0.0
H129 H 0.39805 0.72276 0.33639 0.0
C130 C 0.49001 0.72067 0.32669 0.0
H131 H 0.5123 0.71273 0.3389 0.0
H132 H 0.52499 0.73917 0.2846 0.0
H133 H 0.21099 0.44486 0.79761 0.0
C134 C 0.19152 0.42149 0.78317 0.0
C135 C 0.20338 0.41641 0.75247 0.0
C136 C 0.15673 0.39442 0.79646 0.0
H137 H 0.19038 0.38048 0.71206 0.0
C138 C 0.17979 0.3847 0.73488 0.0
C139 C 0.14489 0.35745 0.74725 0.0
C140 C 0.13325 0.363 0.77784 0.0
C141 C 0.14928 0.39451 0.83175 0.0
H142 H 0.10671 0.34205 0.788 0.0
C143 C 0.14607 0.42371 0.8478 0.0
C144 C 0.13925 0.42149 0.88151 0.0
C145 C 0.14587 0.36382 0.84989 0.0
H146 H 0.14887 0.34135 0.83864 0.0
C147 C 0.13896 0.36156 0.88269 0.0
H148 H 0.14881 0.44766 0.83432 0.0
C149 C 0.13556 0.38991 0.89831 0.0
H150 H 0.12955 0.38688 0.9238 0.0
H151 H 0.1362 0.33759 0.89613 0.0
Tb152 Tb 0.97868 0.06099 0.59041 0.0
Tb153 Tb 0.07242 0.10462 0.57149 0.0
C154 C 0.90682 0.01591 0.59617 0.0
C155 C 0.88252 1.00262 0.62478 0.0
C156 C 0.85535 0.96611 0.62679 0.0
C157 C 0.83564 0.95239 0.65538 0.0
C158 C 0.84305 0.97498 0.68248 0.0
C159 C 0.86933 1.0118 0.67996 0.0
C160 C 0.88892 0.02546 0.65143 0.0
C161 C 0.02102 0.11841 0.62877 0.0
C162 C 0.04816 0.0417 0.62366 0.0
C163 C 0.14376 0.15152 0.567 0.0
C164 C 0.16621 0.16949 0.53865 0.0
C165 C 0.20768 0.19268 0.54194 0.0
C166 C 0.22905 0.20889 0.51457 0.0
C167 C 0.20919 0.20194 0.48354 0.0
C168 C 0.1674 0.17905 0.48057 0.0
C169 C 0.14614 0.16295 0.50786 0.0
C170 C 0.02987 0.04754 0.53291 0.0
C171 C 1.00242 0.12046 0.53513 0.0
O172 O 0.93742 1.00682 0.59495 0.0
O173 O 0.91673 0.04993 0.58844 0.0
O174 O 0.03215 0.10605 0.60567 0.0
O175 O 0.9833 0.09653 0.63196 0.0
O176 O 0.00889 0.03135 0.61586 0.0
O177 O 0.07735 0.07179 0.61272 0.0
O178 O 0.11308 0.15926 0.57272 0.0
O179 O 0.13438 0.11676 0.56914 0.0
O180 O 0.01902 0.05957 0.5564 0.0
O181 O 0.06748 0.06977 0.52922 0.0
O182 O 0.04168 0.13277 0.54397 0.0
O183 O 0.97415 0.09014 0.54651 0.0
H184 H 0.85031 0.94801 0.60658 0.0
H185 H 0.81587 0.92382 0.65668 0.0
H186 H 0.87519 0.03001 0.70022 0.0
H187 H 0.90978 0.05374 0.65055 0.0
H188 H 0.22358 0.19794 0.56558 0.0
H189 H 0.26129 0.22612 0.51761 0.0
H190 H 0.15106 0.17358 0.45711 0.0
H191 H 0.11402 0.14519 0.50494 0.0
Tb192 Tb 0.55452 0.10276 0.09094 0.0
Tb193 Tb 0.46506 0.0607 0.08182 0.0
C194 C 0.6247 0.15303 0.09747 0.0
C195 C 0.646 0.17633 0.12522 0.0
C196 C 0.68397 0.20534 0.12203 0.0
C197 C 0.70512 0.22611 0.14912 0.0
C198 C 0.68853 0.21803 0.17977 0.0
C199 C 0.64985 0.18943 0.1825 0.0
C200 C 0.62878 0.16884 0.15547 0.0
C201 C 0.52475 0.04448 0.12758 0.0
C202 C 0.49394 0.12189 0.13194 0.0
C203 C 0.39388 1.0121 0.07474 0.0
C204 C 0.37047 0.99062 0.04661 0.0
C205 C 0.3369 0.95763 0.05089 0.0
C206 C 0.31494 0.93698 1.02399 0.0
C207 C 0.3262 0.94928 0.9925 0.0
C208 C 0.35998 0.98236 0.98841 0.0
C209 C 0.38208 1.00275 1.01524 0.0
C210 C 0.49612 0.11891 0.04483 0.0
C211 C 0.52521 0.03902 0.04296 0.0
O212 O 0.59327 0.15754 0.0847 0.0
O213 O 0.61686 0.11887 0.10157 0.0
O214 O 0.50824 0.06566 0.12063 0.0
O215 O 0.56078 0.05771 0.11668 0.0
O216 O 0.52971 0.13366 0.1189 0.0
O217 O 0.46546 0.08928 0.12529 0.0
O218 O 0.42506 1.00584 0.0853 0.0
O219 O 0.40283 0.04668 0.07295 0.0
O220 O 0.51153 0.09707 0.05203 0.0
O221 O 0.46043 0.10683 0.05624 0.0
O222 O 0.48915 0.02882 0.05517 0.0
O223 O 0.55471 0.07139 0.04918 0.0
H224 H 0.69751 0.21155 0.09875 0.0
H225 H 0.73461 0.24822 0.14613 0.0
H226 H 0.63642 0.18202 0.20574 0.0
H227 H 0.59946 0.14642 0.15834 0.0
H228 H 0.32775 0.94784 0.075 0.0
H229 H 0.28897 0.91161 1.02777 0.0
H230 H 0.36976 0.99217 0.96444 0.0
H231 H 0.40831 0.02798 1.01153 0.0
Tb232 Tb 0.52745 0.61723 0.60491 0.0
Tb233 Tb 0.51072 0.54149 0.57616 0.0
C234 C 0.52362 0.67435 0.62192 0.0
C235 C 0.49171 0.68448 0.63209 0.0
C236 C 0.45128 0.66661 0.61978 0.0
C237 C 0.42138 0.67657 0.63012 0.0
C238 C 0.43139 0.70434 0.65312 0.0
C239 C 0.47194 0.72177 0.66558 0.0
C240 C 0.5018 0.71198 0.65507 0.0
C241 C 0.56158 0.579 0.63684 0.0
C242 C 0.44553 0.54769 0.62021 0.0
C243 C 0.51765 0.48351 0.56905 0.0
C244 C 0.53846 0.47108 0.5462 0.0
C245 C 0.53754 0.43649 0.54966 0.0
C246 C 0.56365 0.42695 0.53251 0.0
C247 C 0.5914 0.45212 0.51202 0.0
C248 C 0.59043 0.486 0.50712 0.0
C249 C 0.56389 0.49531 0.52393 0.0
C250 C 0.4839 0.57894 0.53492 0.0
C251 C 0.58827 0.61259 0.55607 0.0
O252 O 0.52085 0.66442 0.59164 0.0
O253 O 0.53324 0.6535 0.64201 0.0
O254 O 0.52699 0.56741 0.6223 0.0
O255 O 0.57812 0.61406 0.63483 0.0
O256 O 0.46495 0.58356 0.61898 0.0
O257 O 0.45954 0.52599 0.60708 0.0
O258 O 0.54232 0.50994 0.588 0.0
O259 O 0.48596 0.48866 0.55741 0.0
O260 O 0.50146 0.58752 0.56251 0.0
O261 O 0.47988 0.5463 0.52955 0.0
O262 O 0.57083 0.57675 0.55852 0.0
O263 O 0.57428 0.6337 0.57009 0.0
H264 H 0.44284 0.64505 0.60217 0.0
H265 H 0.39057 0.6628 0.61981 0.0
H266 H 0.4806 0.7427 0.68383 0.0
H267 H 0.53279 0.72575 0.66506 0.0
H268 H 0.51823 0.41758 0.56691 0.0
H269 H 0.56405 0.40078 0.53697 0.0
H270 H 0.61133 0.50578 0.49131 0.0
H271 H 0.56475 0.52208 0.52083 0.0
Tb272 Tb 0.02639 0.61324 0.06526 0.0
Tb273 Tb 0.02105 0.55318 0.11083 0.0
C274 C 0.0103 0.65636 0.02886 0.0
C275 C 0.98042 0.67248 1.02679 0.0
C276 C 0.94624 0.65809 1.00499 0.0
C277 C 0.91897 0.67418 1.00131 0.0
C278 C 0.92541 0.70526 1.01913 0.0
C279 C 0.95932 0.71942 0.04126 0.0
C280 C 0.98656 0.70321 0.04506 0.0
C281 C 0.09511 0.62387 0.09868 0.0
C282 C 0.98993 0.60875 0.13499 0.0
C283 C 0.03736 0.51029 0.1473 0.0
C284 C 0.07114 0.49913 0.15169 0.0
C285 C 0.0853 0.48687 0.12567 0.0
C286 C 0.11851 0.4779 0.1305 0.0
C287 C 0.13834 0.48137 0.16133 0.0
C288 C 0.12388 0.49338 0.1873 0.0
C289 C 0.09054 0.50204 0.18252 0.0
C290 C 0.95231 0.54244 0.07728 0.0
C291 C 0.05855 0.55876 0.0414 0.0
O292 O 0.99583 0.62154 1.02355 0.0
O293 O 0.03812 0.6668 0.05275 0.0
O294 O 0.05965 0.60915 0.10854 0.0
O295 O 0.093 0.63638 0.06985 0.0
O296 O 0.99174 0.62028 0.10459 0.0
O297 O 0.0028 0.58379 0.14403 0.0
O298 O 0.04649 0.54389 0.15494 0.0
O299 O 0.01411 0.50017 0.12064 0.0
O300 O 0.98785 0.55721 0.06764 0.0
O301 O 0.9544 0.52935 0.10584 0.0
O302 O 0.05838 0.5485 0.07216 0.0
O303 O 0.04334 0.582 0.032 0.0
H304 H 0.9409 0.6347 0.99028 0.0
H305 H 0.89355 0.66293 0.98367 0.0
H306 H 0.96493 0.74317 0.05554 0.0
H307 H 0.01267 0.7151 0.06198 0.0
H308 H 0.07105 0.48458 0.10156 0.0
H309 H 0.12922 0.469 0.11 0.0
H310 H 0.13822 0.49589 0.2114 0.0
H311 H 0.08012 0.51141 0.20292 0.0
H312 H 0.37246 0.34051 0.3423 0.0
H313 H 0.20278 0.16835 0.42574 0.0
H314 H 0.31186 0.23508 0.29791 0.0
H315 H 0.2677 0.27085 0.47451 0.0
H316 H 0.24018 0.19389 0.37762 0.0
H317 H 0.33185 0.31716 0.38979 0.0
C318 C 0.35041 0.31255 0.34246 0.0
C319 C 0.34575 0.28961 0.31626 0.0
C320 C 0.24627 0.2109 0.39879 0.0
C321 C 0.29948 0.26271 0.37042 0.0
C322 C 0.22472 0.19636 0.42625 0.0
C323 C 0.232 0.21752 0.4542 0.0
C324 C 0.27545 0.24694 0.39912 0.0
C325 C 0.26139 0.25347 0.4536 0.0
C326 C 0.32743 0.29919 0.36961 0.0
C327 C 0.31694 0.25355 0.3178 0.0
N328 N 0.28204 0.26708 0.42647 0.0
N329 N 0.29501 0.24124 0.34441 0.0
H330 H 0.23639 0.78667 0.84293 0.0
H331 H 0.3001 0.97262 0.93703 0.0
H332 H 0.21353 0.87595 0.80385 0.0
H333 H 0.30104 0.87668 0.98275 0.0
H334 H 0.2674 0.93733 0.88823 0.0
H335 H 0.25924 0.8187 0.89468 0.0
C336 C 0.23602 0.81296 0.84534 0.0
C337 C 0.22325 0.82879 0.81909 0.0
C338 C 0.27441 0.92388 0.90901 0.0
C339 C 0.24938 0.86559 0.87807 0.0
C340 C 0.29325 0.94406 0.93678 0.0
C341 C 0.3035 0.92755 0.96383 0.0
C342 C 0.26616 0.887 0.90813 0.0
C343 C 0.29347 0.89038 0.96244 0.0
C344 C 0.24886 0.83114 0.87489 0.0
C345 C 0.22289 0.86269 0.82356 0.0
N346 N 0.27569 0.8714 0.93491 0.0
N347 N 0.23615 0.88012 0.85241 0.0
H348 H 0.65434 0.51935 0.81654 0.0
H349 H 0.52077 0.50759 0.65182 0.0
H350 H 0.54227 0.42867 0.78863 0.0
H351 H 0.62775 0.60302 0.68058 0.0
H352 H 0.53483 0.4752 0.69784 0.0
H353 H 0.65204 0.54709 0.76331 0.0
C354 C 0.62994 0.50485 0.79882 0.0
C355 C 0.59857 0.47162 0.80681 0.0
C356 C 0.55558 0.50311 0.694 0.0
C357 C 0.59515 0.50334 0.74632 0.0
C358 C 0.54763 0.52161 0.66756 0.0
C359 C 0.57305 0.55813 0.66234 0.0
C360 C 0.5891 0.52122 0.71575 0.0
C361 C 0.60728 0.5749 0.68374 0.0
C362 C 0.62837 0.5208 0.76859 0.0
C363 C 0.56714 0.45426 0.7833 0.0
N364 N 0.61411 0.55644 0.70966 0.0
N365 N 0.56608 0.47038 0.75433 0.0
H366 H 0.93891 0.76473 0.24028 0.0
H367 H 0.97013 0.58717 0.19798 0.0
H368 H 0.89275 0.6697 0.30032 0.0
H369 H 0.9771 0.67049 0.12914 0.0
H370 H 0.94967 0.61841 0.23881 0.0
H371 H 0.96308 0.73302 0.20359 0.0
C372 C 0.93421 0.73721 0.24597 0.0
C373 C 0.91322 0.71981 0.27336 0.0
C374 C 0.9556 0.62972 0.21474 0.0
C375 C 0.94104 0.68292 0.2309 0.0
C376 C 0.96727 0.61191 0.19134 0.0
C377 C 0.97531 0.62604 0.15984 0.0
C378 C 0.9526 0.66231 0.20685 0.0
C379 C 0.97109 0.65829 0.15288 0.0
C380 C 0.9479 0.71901 0.22484 0.0
C381 C 0.90877 0.68425 0.27959 0.0
N382 N 0.96035 0.67529 0.17612 0.0
N383 N 0.92227 0.66687 0.25842 0.0
H384 H 0.4857 0.30847 0.22212 0.0
H385 H 0.42639 0.10486 0.16639 0.0
H386 H 0.37128 0.21841 0.23926 0.0
H387 H 0.54081 0.19348 0.14623 0.0
H388 H 0.40854 0.14588 0.19703 0.0
H389 H 0.50869 0.26684 0.19707 0.0
C390 C 0.46543 0.27999 0.22061 0.0
C391 C 0.42652 0.26692 0.23286 0.0
C392 C 0.43768 0.1564 0.18609 0.0
C393 C 0.45271 0.21919 0.20454 0.0
C394 C 0.44796 0.13292 0.16861 0.0
C395 C 0.48503 0.1458 0.15347 0.0
C396 C 0.46452 0.19317 0.18838 0.0
C397 C 0.51182 0.18242 0.15739 0.0
C398 C 0.47865 0.25623 0.2065 0.0
C399 C 0.40173 0.22968 0.23061 0.0
N400 N 0.50089 0.20493 0.17426 0.0
N401 N 0.4152 0.20722 0.21667 0.0
H402 H 0.15658 0.89569 0.68159 0.0
H403 H 0.99915 0.98632 0.66094 0.0
H404 H 0.02808 0.83995 0.69612 0.0
H405 H 0.1223 0.03795 0.63021 0.0
H406 H 0.01351 0.93708 0.68384 0.0
H407 H 0.14817 0.95175 0.67165 0.0
C408 C 0.12668 0.89535 0.68303 0.0
C409 C 0.09287 0.86307 0.68944 0.0
C410 C 0.03758 0.95933 0.67241 0.0
C411 C 0.08308 0.92699 0.67807 0.0
C412 C 0.02946 0.98759 0.65939 0.0
C413 C 0.05941 0.01607 0.64315 0.0
C414 C 0.07587 0.95934 0.66907 0.0
C415 C 0.09826 0.01645 0.64237 0.0
C416 C 0.1219 0.92731 0.67724 0.0
C417 C 0.0548 0.86409 0.69075 0.0
N418 N 0.10523 0.98818 0.65474 0.0
N419 N 0.05093 0.89549 0.68501 0.0
H420 H 0.75922 0.39605 0.95102 0.0
H421 H 0.91944 0.57759 0.03557 0.0
H422 H 0.73099 0.48856 0.95828 0.0
H423 H 0.9028 0.47138 0.06836 0.0
H424 H 0.8594 0.54964 0.99763 0.0
H425 H 0.8222 0.42809 0.98362 0.0
C426 C 0.76625 0.42317 0.95927 0.0
C427 C 0.73903 0.43919 0.95235 0.0
C428 C 0.86904 0.53257 1.01314 0.0
C429 C 0.81198 0.47641 0.98921 0.0
C430 C 0.90326 0.54844 0.03459 0.0
C431 C 0.91589 0.52666 0.05498 0.0
C432 C 0.84821 0.49471 1.01161 0.0
C433 C 0.89379 0.48906 0.05315 0.0
C434 C 0.80232 0.44144 0.97785 0.0
C435 C 0.75084 0.475 0.9629 0.0
N436 N 0.86127 0.47426 0.03166 0.0
N437 N 0.78635 0.49236 0.98096 0.0
H438 H 0.7821 0.77066 0.45044 0.0
H439 H 0.63093 0.58127 0.52452 0.0
H440 H 0.79684 0.67232 0.43659 0.0
H441 H 0.62766 0.68428 0.54115 0.0
H442 H 0.68909 0.61184 0.49049 0.0
H443 H 0.72254 0.73721 0.48104 0.0
C444 C 0.77277 0.74189 0.45391 0.0
C445 C 0.79497 0.72441 0.44136 0.0
C446 C 0.67555 0.62763 0.50164 0.0
C447 C 0.726 0.68546 0.4766 0.0
C448 C 0.64233 0.61022 0.52111 0.0
C449 C 0.6242 0.63014 0.53592 0.0
C450 C 0.69063 0.6652 0.49682 0.0
C451 C 0.64047 0.66762 0.5305 0.0
C452 C 0.73859 0.7227 0.4714 0.0
C453 C 0.7807 0.68687 0.44596 0.0
N454 N 0.6725 0.68375 0.51149 0.0
N455 N 0.74725 0.66863 0.46345 0.0
H456 H 0.37555 0.48832 0.21726 0.0
H457 H 0.14843 0.42283 0.13924 0.0
H458 H 0.30465 0.38021 0.18092 0.0
H459 H 0.21006 0.5208 0.19521 0.0
H460 H 0.20769 0.40895 0.14948 0.0
H461 H 0.31732 0.50288 0.20465 0.0
C462 C 0.34776 0.4677 0.20648 0.0
C463 C 0.34489 0.43299 0.20019 0.0
C464 C 0.20821 0.43347 0.15952 0.0
C465 C 0.2781 0.44941 0.18574 0.0
C466 C 0.17453 0.4415 0.15351 0.0
C467 C 0.17429 0.47292 0.16653 0.0
C468 C 0.24202 0.45723 0.17838 0.0
C469 C 0.20877 0.49604 0.18508 0.0
C470 C 0.31447 0.47596 0.19945 0.0
C471 C 0.308 0.40719 0.1865 0.0
N472 N 0.24124 0.48777 0.1904 0.0
N473 N 0.27606 0.41595 0.17965 0.0
H474 H 0.66421 0.30715 0.94466 0.0
H475 H 0.46591 0.16896 0.03108 0.0
H476 H 0.5579 0.32722 0.95624 0.0
H477 H 0.57005 0.14656 1.01702 0.0
H478 H 0.49843 0.22618 1.00224 0.0
H479 H 0.62971 0.24764 0.96945 0.0
C480 C 0.63355 0.29902 0.9523 0.0
C481 C 0.61405 0.32242 0.94837 0.0
C482 C 0.51421 0.20878 1.00534 0.0
C483 C 0.57422 0.25405 0.97684 0.0
C484 C 0.49563 0.17607 1.02181 0.0
C485 C 0.51539 0.15306 1.02655 0.0
C486 C 0.55299 0.21871 0.99349 0.0
C487 C 0.55385 0.16362 1.01402 0.0
C488 C 0.61382 0.26496 0.96639 0.0
C489 C 0.57407 0.31009 0.9584 0.0
N490 N 0.57146 0.19572 0.99817 0.0
N491 N 0.55565 0.27694 0.9723 0.0
H492 H 0.91799 0.81971 0.48808 0.0
H493 H 0.03786 0.03285 0.47057 0.0
H494 H 0.9278 0.87123 0.39463 0.0
H495 H 0.97355 0.98311 0.55534 0.0
H496 H 0.0068 0.97395 0.44283 0.0
H497 H 0.94859 0.87919 0.51373 0.0
C498 C 0.92659 0.84342 0.47281 0.0
C499 C 0.91941 0.84001 0.43895 0.0
C500 C 0.99912 0.97602 0.46736 0.0
C501 C 0.95565 0.90874 0.46857 0.0
C502 C 0.01672 1.00958 0.48317 0.0
C503 C 0.00759 0.01296 0.5151 0.0
C504 C 0.97316 0.94532 0.48395 0.0
C505 C 0.98053 0.98189 0.53049 0.0
C506 C 0.94412 0.87745 0.48761 0.0
C507 C 0.93273 0.87215 0.4207 0.0
N508 N 0.96464 0.94932 0.51493 0.0
N509 N 0.95013 0.90509 0.43571 0.0
H510 H 0.31153 0.81977 0.74146 0.0
H511 H 0.35158 0.66088 0.66495 0.0
H512 H 0.21363 0.71837 0.71159 0.0
H513 H 0.43918 0.77256 0.66667 0.0
H514 H 0.30118 0.67956 0.68508 0.0
H515 H 0.35987 0.80088 0.71812 0.0
C516 C 0.3003 0.79341 0.73009 0.0
C517 C 0.25865 0.77045 0.72859 0.0
C518 C 0.33142 0.69992 0.68089 0.0
C519 C 0.31368 0.74871 0.70171 0.0
C520 C 0.36018 0.68933 0.66926 0.0
C521 C 0.39986 0.71515 0.66427 0.0
C522 C 0.34254 0.73651 0.68787 0.0
C523 C 0.40931 0.75158 0.67079 0.0
C524 C 0.32782 0.78275 0.71657 0.0
C525 C 0.24555 0.73683 0.71314 0.0
N526 N 0.38096 0.76111 0.68242 0.0
N527 N 0.27306 0.72681 0.70045 0.0
H528 H 0.81208 0.91192 0.88341 0.0
H529 H 0.76527 0.92557 0.69326 0.0
H530 H 0.69386 0.85338 0.83546 0.0
H531 H 0.88061 0.98991 0.74305 0.0
H532 H 0.73793 0.89962 0.74521 0.0
H533 H 0.8372 0.94199 0.83232 0.0
C534 C 0.79139 0.9055 0.86213 0.0
C535 C 0.75087 0.88006 0.86366 0.0
C536 C 0.76915 0.91958 0.74478 0.0
C537 C 0.77935 0.9143 0.80508 0.0
C538 C 0.78481 0.93424 0.71511 0.0
C539 C 0.82527 0.95995 0.7138 0.0
C540 C 0.79422 0.93051 0.77332 0.0
C541 C 0.8491 0.97052 0.74294 0.0
C542 C 0.80569 0.92274 0.83299 0.0
C543 C 0.72523 0.87307 0.83544 0.0
N544 N 0.83328 0.95565 0.77144 0.0
N545 N 0.73997 0.88991 0.80726 0.0
H546 H 0.87415 0.30085 0.33426 0.0
H547 H 0.66119 0.2392 0.23257 0.0
H548 H 0.76018 0.27732 0.37733 0.0
H549 H 0.77023 0.24061 0.19448 0.0
H550 H 0.69943 0.2636 0.28368 0.0
H551 H 0.83869 0.28913 0.28083 0.0
C552 C 0.84167 0.29334 0.33246 0.0
C553 C 0.82003 0.28968 0.36034 0.0
C554 C 0.71503 0.25888 0.264 0.0
C555 C 0.77932 0.27655 0.29923 0.0
C556 C 0.69321 0.24484 0.23485 0.0
C557 C 0.71237 0.23739 0.20926 0.0
C558 C 0.75634 0.26564 0.26759 0.0
C559 C 0.75417 0.24607 0.21339 0.0
C560 C 0.82149 0.2868 0.30195 0.0
C561 C 0.77814 0.28065 0.35651 0.0
N562 N 0.77465 0.25944 0.24208 0.0
N563 N 0.75908 0.27412 0.32652 0.0
H564 H 0.50123 0.74487 0.39637 0.0
H565 H 0.42641 0.55477 0.48565 0.0
H566 H 0.3974 0.65031 0.36155 0.0
H567 H 0.51528 0.65326 0.52932 0.0
H568 H 0.41183 0.59011 0.44226 0.0
H569 H 0.5029 0.71359 0.44736 0.0
C570 C 0.47807 0.71778 0.3999 0.0
C571 C 0.44893 0.70021 0.37485 0.0
C572 C 0.43406 0.60417 0.46156 0.0
C573 C 0.45142 0.66367 0.43279 0.0
C574 C 0.44242 0.58398 0.48636 0.0
C575 C 0.47188 0.60114 0.5113 0.0
C576 C 0.45588 0.64194 0.46119 0.0
C577 C 0.49184 0.63901 0.51093 0.0
C578 C 0.47918 0.69983 0.42893 0.0
C579 C 0.42003 0.66494 0.3804 0.0
N580 N 0.48386 0.65811 0.48605 0.0
N581 N 0.42237 0.64765 0.40857 0.0
H582 H 0.09092 0.45832 0.86719 0.0
H583 H 0.10687 0.52183 0.05118 0.0
H584 H 0.1766 0.44987 0.94003 0.0
H585 H 0.04758 0.55923 0.97493 0.0
H586 H 0.13098 0.49404 1.01036 0.0
H587 H 0.07423 0.49553 0.90492 0.0
C588 C 0.10691 0.46496 0.89075 0.0
C589 C 0.13499 0.45061 0.90044 0.0
C590 C 0.1129 0.50851 1.00247 0.0
C591 C 0.11523 0.49231 0.94413 0.0
C592 C 0.09896 0.52431 1.02588 0.0
C593 C 0.07506 0.54299 1.01666 0.0
C594 C 0.1025 0.51076 0.9694 0.0
C595 C 0.06603 0.54528 0.98329 0.0
C596 C 0.09709 0.48591 0.91244 0.0
C597 C 0.15436 0.45986 0.93155 0.0
N598 N 0.07939 0.52914 0.96098 0.0
N599 N 0.14377 0.47954 0.95226 0.0
H600 H 0.53344 0.83932 0.99938 0.0
H601 H 0.59313 0.04879 1.01016 0.0
H602 H 0.61867 0.91382 0.93459 0.0
H603 H 0.47497 0.96782 0.03353 0.0
H604 H 0.60739 1.00134 0.9854 0.0
H605 H 0.51588 0.88757 1.01598 0.0
C606 C 0.54818 0.86561 0.98825 0.0
C607 C 0.57752 0.87216 0.96529 0.0
C608 C 0.57821 0.99423 0.99564 0.0
C609 C 0.55824 0.92811 0.98523 0.0
C610 C 0.57004 0.02123 1.00976 0.0
C611 C 0.53291 1.01228 1.02414 0.0
C612 C 0.54933 0.95811 0.99653 0.0
C613 C 0.5041 0.97608 1.0229 0.0
C614 C 0.53824 0.89327 0.99796 0.0
C615 C 0.59637 0.90742 0.95271 0.0
N616 N 0.51314 0.95032 1.00977 0.0
N617 N 0.58665 0.93415 0.96303 0.0
H618 H 0.96233 0.30156 0.46227 0.0
H619 H 0.92949 0.10039 0.50046 0.0
H620 H 0.86424 0.20901 0.41732 0.0
H621 H 0.04517 0.19148 0.5192 0.0
H622 H 0.9057 0.13974 0.46871 0.0
H623 H 0.99443 0.26213 0.48231 0.0
C624 C 0.94791 0.27304 0.45627 0.0
C625 C 0.91058 0.25846 0.43824 0.0
C626 C 0.93648 0.15101 0.47942 0.0
C627 C 0.94665 0.21325 0.4613 0.0
C628 C 0.95002 0.12857 0.49765 0.0
C629 C 0.98923 0.14273 0.51276 0.0
C630 C 0.96207 0.18797 0.47676 0.0
C631 C 0.01465 0.17942 0.50805 0.0
C632 C 0.96623 0.25058 0.4676 0.0
C633 C 0.89319 0.22138 0.43096 0.0
N634 N 1.00041 0.20091 0.49085 0.0
N635 N 0.91108 0.19995 0.4429 0.0
H636 H 0.31574 0.67684 0.22277 0.0
H637 H 0.14968 0.69401 0.10281 0.0
H638 H 0.27911 0.76441 0.23042 0.0
H639 H 0.12335 0.58934 0.14496 0.0
H640 H 0.20763 0.72097 0.14216 0.0
H641 H 0.25308 0.64346 0.18915 0.0
C642 C 0.29436 0.68884 0.21799 0.0
C643 C 0.30334 0.72395 0.22903 0.0
C644 C 0.18918 0.69208 0.14274 0.0
C645 C 0.23267 0.68642 0.18973 0.0
C646 C 0.1564 0.67668 0.12019 0.0
C647 C 0.13172 0.63949 0.12085 0.0
C648 C 0.19804 0.67002 0.16559 0.0
C649 C 0.14152 0.61821 0.14399 0.0
C650 C 0.25881 0.66984 0.1986 0.0
C651 C 0.27436 0.73801 0.2217 0.0
N652 N 0.17429 0.63372 0.16537 0.0
N653 N 0.24092 0.71961 0.20202 0.0
H654 H 0.26682 0.39994 0.74349 0.0
H655 H 0.40074 0.57989 0.64738 0.0
H656 H 0.22932 0.48696 0.73084 0.0
H657 H 0.40778 0.4772 0.63913 0.0
H658 H 0.34389 0.55128 0.68318 0.0
H659 H 0.32636 0.43382 0.71258 0.0
C660 C 0.27168 0.42663 0.73467 0.0
C661 C 0.24321 0.44072 0.73974 0.0
C662 C 0.35791 0.53514 0.67337 0.0
C663 C 0.31107 0.47957 0.7035 0.0
C664 C 0.3903 0.55138 0.65288 0.0
C665 C 0.40916 0.53095 0.64 0.0
C666 C 0.34478 0.49839 0.68146 0.0
C667 C 0.39429 0.49414 0.64816 0.0
C668 C 0.30546 0.44584 0.71673 0.0
C669 C 0.25079 0.47534 0.72763 0.0
N670 N 0.36335 0.47925 0.66839 0.0
N671 N 0.28393 0.49357 0.70981 0.0
H672 H 0.72008 0.753 0.96041 0.0
H673 H 0.94632 0.778 1.01379 0.0
H674 H 0.82605 0.85457 0.95632 0.0
H675 H 0.84208 0.67475 1.01057 0.0
H676 H 0.90139 0.80762 0.99925 0.0
H677 H 0.76292 0.72512 0.98514 0.0
C678 C 0.75227 0.76955 0.9651 0.0
C679 C 0.76957 0.80611 0.95605 0.0
C680 C 0.88827 0.7785 1.00194 0.0
C681 C 0.81887 0.77428 0.98402 0.0
C682 C 0.9139 0.76158 1.01048 0.0
C683 C 0.89799 0.72378 1.0132 0.0
C684 C 0.84637 0.75751 0.99606 0.0
C685 C 0.85575 0.70389 1.00821 0.0
C686 C 0.77676 0.75356 0.97903 0.0
C687 C 0.81155 0.82615 0.96241 0.0
N688 N 0.83145 0.72097 0.99972 0.0
N689 N 0.83477 0.80994 0.97584 0.0
H690 H 0.3687 0.8563 0.23503 0.0
H691 H 0.56018 0.99909 0.14453 0.0
H692 H 0.47986 0.8437 0.22476 0.0
H693 H 0.45034 0.01375 0.1549 0.0
H694 H 0.5319 0.94329 0.1758 0.0
H695 H 0.39869 0.91504 0.20807 0.0
C696 C 0.3995 0.86595 0.22726 0.0
C697 C 0.42169 0.84483 0.23213 0.0
C698 C 0.51392 0.95867 0.17139 0.0
C699 C 0.45628 0.91227 0.20117 0.0
C700 C 0.53007 0.99057 0.1535 0.0
C701 C 0.50754 1.01105 0.14709 0.0
C702 C 0.47478 0.94693 0.18299 0.0
C703 C 0.46869 0.9987 0.15927 0.0
C704 C 0.41663 0.89956 0.21191 0.0
C705 C 0.46168 0.85906 0.2219 0.0
N706 N 0.45347 0.96738 0.17657 0.0
N707 N 0.47753 0.89168 0.20676 0.0
H708 H 0.13196 0.34524 0.6812 0.0
H709 H 0.01455 0.13035 0.69182 0.0
H710 H 0.1101 0.28819 0.77232 0.0
H711 H 0.07452 0.18474 0.6068 0.0
H712 H 0.04382 0.18815 0.72101 0.0
H713 H 0.10492 0.28725 0.65281 0.0
C714 C 0.1215 0.32065 0.69537 0.0
C715 C 0.1238 0.32205 0.72946 0.0
C716 C 0.05111 0.18744 0.69611 0.0
C717 C 0.09196 0.25508 0.69667 0.0
C718 C 0.03454 0.15444 0.67947 0.0
C719 C 0.04305 0.15261 0.6471 0.0
C720 C 0.07558 0.2192 0.68002 0.0
C721 C 0.06843 0.18473 0.63204 0.0
C722 C 0.10601 0.28747 0.67902 0.0
C723 C 0.10864 0.28887 0.74614 0.0
N724 N 0.08351 0.21676 0.64852 0.0
N725 N 0.09343 0.25691 0.72963 0.0
H726 H 0.81515 0.43292 0.52312 0.0
H727 H 0.58564 0.39107 0.48136 0.0
H728 H 0.74038 0.34866 0.45594 0.0
H729 H 0.67253 0.49585 0.51543 0.0
H730 H 0.64208 0.37578 0.46968 0.0
H731 H 0.76424 0.45793 0.51888 0.0
C732 C 0.7883 0.4201 0.50707 0.0
C733 C 0.78176 0.38866 0.48998 0.0
C734 C 0.6488 0.40238 0.47911 0.0
C735 C 0.72321 0.41655 0.48542 0.0
C736 C 0.61663 0.41103 0.48584 0.0
C737 C 0.62452 0.44466 0.4995 0.0
C738 C 0.68902 0.42726 0.4868 0.0
C739 C 0.66517 0.46968 0.50475 0.0
C740 C 0.75933 0.43438 0.50457 0.0
C741 C 0.74658 0.37307 0.46941 0.0
N742 N 0.69593 0.46024 0.49893 0.0
N743 N 0.71823 0.38679 0.46814 0.0
loop_
_geom_bond_atom_site_label_1
_geom_bond_atom_site_label_2
_geom_bond_distance
_geom_bond_site_symmetry_2
_ccdc_geom_bond_type
H0 C1 0.949 . S
C1 H0 0.949 . S
C1 C2 1.395 . S
C1 C3 1.391 . S
C2 C1 1.395 . S
C2 C5 1.390 . S
C3 C1 1.391 . S
C3 C7 1.387 . S
C3 C8 1.491 . S
H4 C5 0.950 . S
C5 C2 1.390 . S
C5 H4 0.950 . S
C5 C6 1.378 . S
C6 C5 1.378 . S
C6 C7 1.409 . S
C7 C3 1.387 . S
C7 C6 1.409 . S
C7 H9 0.951 . S
C8 C3 1.491 . S
C8 C10 1.382 . S
C8 C12 1.404 . S
H9 C7 0.951 . S
C10 C8 1.382 . S
C10 C11 1.390 . S
C10 H15 0.949 . S
C11 C10 1.390 . S
C11 C16 1.399 . S
C12 C8 1.404 . S
C12 H13 0.950 . S
C12 C14 1.375 . S
H13 C12 0.950 . S
C14 C12 1.375 . S
C14 C16 1.382 . S
C14 H18 0.950 . S
H15 C10 0.949 . S
C16 C11 1.399 . S
C16 C14 1.382 . S
C16 H17 0.952 . S
H17 C16 0.952 . S
H18 C14 0.950 . S
H19 C20 0.949 . S
C20 H19 0.949 . S
C20 C21 1.395 . S
C20 C22 1.391 . S
C21 C20 1.395 . S
C21 C24 1.390 . S
C22 C20 1.391 . S
C22 C26 1.387 . S
C22 C27 1.491 . S
H23 C24 0.950 . S
C24 C21 1.390 . S
C24 H23 0.950 . S
C24 C25 1.378 . S
C25 C24 1.378 . S
C25 C26 1.409 . S
C26 C22 1.387 . S
C26 C25 1.409 . S
C26 H28 0.951 . S
C27 C22 1.491 . S
C27 C29 1.382 . S
C27 C31 1.404 . S
H28 C26 0.951 . S
C29 C27 1.382 . S
C29 C30 1.390 . S
C29 H34 0.949 . S
C30 C29 1.390 . S
C30 C35 1.406 . S
C31 C27 1.404 . S
C31 H32 0.950 . S
C31 C33 1.375 . S
H32 C31 0.950 . S
C33 C31 1.375 . S
C33 C35 1.393 . S
C33 H37 0.950 1_455 S
H34 C29 0.949 . S
C35 C30 1.406 . S
C35 C33 1.393 . S
C35 H36 0.935 1_455 S
H36 C35 0.935 1_655 S
H37 C33 0.950 1_655 S
H38 C39 0.949 . S
C39 H38 0.949 . S
C39 C40 1.395 . S
C39 C41 1.391 . S
C40 C39 1.395 . S
C40 C43 1.390 . S
C41 C39 1.391 . S
C41 C45 1.387 . S
C41 C46 1.491 . S
H42 C43 0.950 . S
C43 C40 1.390 . S
C43 H42 0.950 . S
C43 C44 1.378 . S
C44 C43 1.378 . S
C44 C45 1.409 . S
C45 C41 1.387 . S
C45 C44 1.409 . S
C45 H47 0.951 . S
C46 C41 1.491 . S
C46 C48 1.382 . S
C46 C50 1.404 . S
H47 C45 0.951 . S
C48 C46 1.382 . S
C48 C49 1.390 . S
C48 H53 0.949 . S
C49 C48 1.390 . S
C49 C54 1.399 . S
C50 C46 1.404 . S
C50 H51 0.950 . S
C50 C52 1.375 . S
H51 C50 0.950 . S
C52 C50 1.375 . S
C52 C54 1.382 . S
C52 H56 0.950 . S
H53 C48 0.949 . S
C54 C49 1.399 . S
C54 C52 1.382 . S
C54 H55 0.952 . S
H55 C54 0.952 . S
H56 C52 0.950 . S
H57 C58 0.949 . S
C58 H57 0.949 . S
C58 C59 1.395 . S
C58 C60 1.391 . S
C59 C58 1.395 . S
C59 C62 1.390 . S
C60 C58 1.391 . S
C60 C64 1.387 . S
C60 C65 1.491 . S
H61 C62 0.950 . S
C62 C59 1.390 . S
C62 H61 0.950 . S
C62 C63 1.378 . S
C63 C62 1.378 . S
C63 C64 1.409 . S
C64 C60 1.387 . S
C64 C63 1.409 . S
C64 H66 0.951 . S
C65 C60 1.491 . S
C65 C67 1.382 . S
C65 C69 1.404 . S
H66 C64 0.951 . S
C67 C65 1.382 . S
C67 C68 1.390 . S
C67 H72 0.949 . S
C68 C67 1.390 . S
C68 C73 1.399 . S
C69 C65 1.404 . S
C69 H70 0.950 . S
C69 C71 1.375 . S
H70 C69 0.950 . S
C71 C69 1.375 . S
C71 C73 1.382 . S
C71 H75 0.950 . S
H72 C67 0.949 . S
C73 C68 1.399 . S
C73 C71 1.382 . S
C73 H74 0.952 . S
H74 C73 0.952 . S
H75 C71 0.950 . S
H76 C77 0.949 . S
C77 H76 0.949 . S
C77 C78 1.395 . S
C77 C79 1.391 . S
C78 C77 1.395 . S
C78 C81 1.390 . S
C79 C77 1.391 . S
C79 C83 1.387 . S
C79 C84 1.491 . S
H80 C81 0.950 . S
C81 C78 1.390 . S
C81 H80 0.950 . S
C81 C82 1.378 . S
C82 C81 1.378 . S
C82 C83 1.409 . S
C83 C79 1.387 . S
C83 C82 1.409 . S
C83 H85 0.951 . S
C84 C79 1.491 . S
C84 C86 1.382 . S
C84 C88 1.404 . S
H85 C83 0.951 . S
C86 C84 1.382 . S
C86 C87 1.390 . S
C86 H91 0.949 . S
C87 C86 1.390 . S
C87 C92 1.399 . S
C88 C84 1.404 . S
C88 H89 0.950 . S
C88 C90 1.375 . S
H89 C88 0.950 . S
C90 C88 1.375 . S
C90 C92 1.382 . S
C90 H94 0.950 . S
H91 C86 0.949 . S
C92 C87 1.399 . S
C92 C90 1.382 . S
C92 H93 0.952 . S
H93 C92 0.952 . S
H94 C90 0.950 . S
H95 C96 0.949 . S
C96 H95 0.949 . S
C96 C97 1.395 . S
C96 C98 1.391 . S
C97 C96 1.395 . S
C97 C100 1.390 . S
C98 C96 1.391 . S
C98 C102 1.387 . S
C98 C103 1.491 . S
H99 C100 0.950 . S
C100 C97 1.390 . S
C100 H99 0.950 . S
C100 C101 1.378 . S
C101 C100 1.378 . S
C101 C102 1.409 . S
C102 C98 1.387 . S
C102 C101 1.409 . S
C102 H104 0.951 . S
C103 C98 1.491 . S
C103 C105 1.382 . S
C103 C107 1.404 . S
H104 C102 0.951 . S
C105 C103 1.382 . S
C105 C106 1.390 . S
C105 H110 0.949 . S
C106 C105 1.390 . S
C106 C111 1.399 . S
C107 C103 1.404 . S
C107 H108 0.950 . S
C107 C109 1.375 . S
H108 C107 0.950 . S
C109 C107 1.375 . S
C109 C111 1.382 . S
C109 H113 0.950 . S
H110 C105 0.949 . S
C111 C106 1.399 . S
C111 C109 1.382 . S
C111 H112 0.952 . S
H112 C111 0.952 . S
H113 C109 0.950 . S
H114 C115 0.949 . S
C115 H114 0.949 . S
C115 C116 1.395 . S
C115 C117 1.391 . S
C116 C115 1.395 . S
C116 C119 1.390 . S
C117 C115 1.391 . S
C117 C121 1.387 . S
C117 C122 1.491 . S
H118 C119 0.950 . S
C119 C116 1.390 . S
C119 H118 0.950 . S
C119 C120 1.378 . S
C120 C119 1.378 . S
C120 C121 1.409 . S
C121 C117 1.387 . S
C121 C120 1.409 . S
C121 H123 0.951 . S
C122 C117 1.491 . S
C122 C124 1.382 . S
C122 C126 1.404 . S
H123 C121 0.951 . S
C124 C122 1.382 . S
C124 C125 1.390 . S
C124 H129 0.949 . S
C125 C124 1.390 . S
C125 C130 1.399 . S
C126 C122 1.404 . S
C126 H127 0.950 . S
C126 C128 1.375 . S
H127 C126 0.950 . S
C128 C126 1.375 . S
C128 C130 1.382 . S
C128 H132 0.950 . S
H129 C124 0.949 . S
C130 C125 1.399 . S
C130 C128 1.382 . S
C130 H131 0.952 . S
H131 C130 0.952 . S
H132 C128 0.950 . S
H133 C134 0.949 . S
C134 H133 0.949 . S
C134 C135 1.395 . S
C134 C136 1.391 . S
C135 C134 1.395 . S
C135 C138 1.390 . S
C136 C134 1.391 . S
C136 C140 1.387 . S
C136 C141 1.491 . S
H137 C138 0.950 . S
C138 C135 1.390 . S
C138 H137 0.950 . S
C138 C139 1.378 . S
C139 C138 1.378 . S
C139 C140 1.409 . S
C140 C136 1.387 . S
C140 C139 1.409 . S
C140 H142 0.951 . S
C141 C136 1.491 . S
C141 C143 1.382 . S
C141 C145 1.404 . S
H142 C140 0.951 . S
C143 C141 1.382 . S
C143 C144 1.390 . S
C143 H148 0.949 . S
C144 C143 1.390 . S
C144 C149 1.399 . S
C145 C141 1.404 . S
C145 H146 0.950 . S
C145 C147 1.375 . S
H146 C145 0.950 . S
C147 C145 1.375 . S
C147 C149 1.382 . S
C147 H151 0.950 . S
H148 C143 0.949 . S
C149 C144 1.399 . S
C149 C147 1.382 . S
C149 H150 0.952 . S
H150 C149 0.952 . S
H151 C147 0.950 . S
Tb152 C154 2.809 1_545 S
Tb152 O172 2.484 1_545 S
Tb152 O173 2.440 . S
Tb152 O174 2.658 1_655 S
Tb152 O175 2.409 1_655 S
Tb152 O176 2.378 1_655 S
Tb152 O180 2.325 . S
Tb152 O183 2.341 . S
Tb153 C163 2.809 . S
Tb153 O174 2.325 . S
Tb153 O177 2.341 . S
Tb153 O178 2.484 . S
Tb153 O179 2.440 . S
Tb153 O180 2.658 1_455 S
Tb153 O181 2.409 . S
Tb153 O182 2.378 . S
C154 Tb152 2.809 1_565 S
C154 C155 1.514 . S
C154 O172 1.248 . S
C154 O173 1.266 1_565 S
C155 C154 1.514 . S
C155 C156 1.359 . S
C155 C160 1.348 . S
C156 C155 1.359 . S
C156 C157 1.380 . S
C156 H184 0.929 . S
C157 C156 1.380 . S
C157 C158 1.347 . S
C157 H185 0.931 . S
C158 C157 1.347 . S
C158 C159 1.369 . S
C159 C158 1.369 . S
C159 C160 1.408 . S
C159 H186 0.930 . S
C160 C155 1.348 . S
C160 C159 1.408 . S
C160 H187 0.930 . S
C161 O174 1.281 . S
C161 O175 1.254 . S
C162 O176 1.236 . S
C162 O177 1.266 . S
C163 Tb153 2.809 . S
C163 C164 1.514 . S
C163 O178 1.248 . S
C163 O179 1.266 . S
C164 C163 1.514 . S
C164 C165 1.359 . S
C164 C169 1.348 . S
C165 C164 1.359 . S
C165 C166 1.380 . S
C165 H188 0.929 . S
C166 C165 1.380 . S
C166 C167 1.347 . S
C166 H189 0.931 . S
C167 C166 1.347 . S
C167 C168 1.369 . S
C168 C167 1.369 . S
C168 C169 1.408 . S
C168 H190 0.930 . S
C169 C164 1.348 . S
C169 C168 1.408 . S
C169 H191 0.930 . S
C170 O180 1.281 1_565 S
C170 O181 1.254 1_665 S
C171 O182 1.236 1_655 S
C171 O183 1.266 . S
O172 Tb152 2.484 1_565 S
O172 C154 1.248 . S
O173 Tb152 2.440 . S
O173 C154 1.266 1_545 S
O174 Tb152 2.658 1_455 S
O174 Tb153 2.325 . S
O174 C161 1.281 . S
O175 Tb152 2.409 1_455 S
O175 C161 1.254 . S
O176 Tb152 2.378 1_455 S
O176 C162 1.236 . S
O177 Tb153 2.341 . S
O177 C162 1.266 . S
O178 Tb153 2.484 . S
O178 C163 1.248 . S
O179 Tb153 2.440 . S
O179 C163 1.266 . S
O180 Tb152 2.325 . S
O180 Tb153 2.658 1_655 S
O180 C170 1.281 1_545 S
O181 Tb153 2.409 . S
O181 C170 1.254 1_445 S
O182 Tb153 2.378 . S
O182 C171 1.236 1_455 S
O183 Tb152 2.341 . S
O183 C171 1.266 . S
H184 C156 0.929 . S
H185 C157 0.931 . S
H186 C159 0.930 . S
H187 C160 0.930 . S
H188 C165 0.929 . S
H189 C166 0.931 . S
H190 C168 0.930 . S
H191 C169 0.930 . S
Tb192 C194 2.809 . S
Tb192 O212 2.484 . S
Tb192 O213 2.440 . S
Tb192 O214 2.659 1_545 S
Tb192 O215 2.409 1_545 S
Tb192 O216 2.378 . S
Tb192 O220 2.325 . S
Tb192 O223 2.341 . S
Tb193 C203 2.809 1_545 S
Tb193 O214 2.326 1_545 S
Tb193 O217 2.341 . S
Tb193 O218 2.484 1_545 S
Tb193 O219 2.440 . S
Tb193 O220 2.658 . S
Tb193 O221 2.409 . S
Tb193 O222 2.378 . S
C194 Tb192 2.809 . S
C194 C195 1.514 . S
C194 O212 1.248 . S
C194 O213 1.266 . S
C195 C194 1.514 . S
C195 C196 1.359 . S
C195 C200 1.348 . S
C196 C195 1.359 . S
C196 C197 1.380 . S
C196 H224 0.929 . S
C197 C196 1.380 . S
C197 C198 1.347 . S
C197 H225 0.931 . S
C198 C197 1.347 . S
C198 C199 1.369 . S
C199 C198 1.369 . S
C199 C200 1.408 . S
C199 H226 0.930 . S
C200 C195 1.348 . S
C200 C199 1.408 . S
C200 H227 0.930 . S
C201 O214 1.280 . S
C201 O215 1.254 . S
C202 O216 1.236 . S
C202 O217 1.266 . S
C203 Tb193 2.809 1_565 S
C203 C204 1.514 1_554 S
C203 O218 1.248 . S
C203 O219 1.266 1_565 S
C204 C203 1.514 1_556 S
C204 C205 1.359 . S
C204 C209 1.348 . S
C205 C204 1.359 . S
C205 C206 1.380 . S
C205 H228 0.929 1_556 S
C206 C205 1.380 . S
C206 C207 1.347 . S
C206 H229 0.931 . S
C207 C206 1.347 . S
C207 C208 1.369 . S
C208 C207 1.369 . S
C208 C209 1.408 . S
C208 H230 0.930 . S
C209 C204 1.348 . S
C209 C208 1.408 . S
C209 H231 0.930 . S
C210 O220 1.281 . S
C210 O221 1.254 . S
C211 O222 1.236 1_565 S
C211 O223 1.266 1_565 S
O212 Tb192 2.484 . S
O212 C194 1.248 . S
O213 Tb192 2.440 . S
O213 C194 1.266 . S
O214 Tb192 2.659 1_565 S
O214 Tb193 2.326 1_565 S
O214 C201 1.280 . S
O215 Tb192 2.409 1_565 S
O215 C201 1.254 . S
O216 Tb192 2.378 . S
O216 C202 1.236 . S
O217 Tb193 2.341 . S
O217 C202 1.266 . S
O218 Tb193 2.484 1_565 S
O218 C203 1.248 . S
O219 Tb193 2.440 . S
O219 C203 1.266 1_545 S
O220 Tb192 2.325 . S
O220 Tb193 2.658 . S
O220 C210 1.281 . S
O221 Tb193 2.409 . S
O221 C210 1.254 . S
O222 Tb193 2.378 . S
O222 C211 1.236 1_545 S
O223 Tb192 2.341 . S
O223 C211 1.266 1_545 S
H224 C196 0.929 . S
H225 C197 0.931 . S
H226 C199 0.930 . S
H227 C200 0.930 . S
H228 C205 0.929 1_554 S
H229 C206 0.931 . S
H230 C208 0.930 . S
H231 C209 0.930 . S
Tb232 C234 2.809 . S
Tb232 O252 2.484 . S
Tb232 O253 2.440 . S
Tb232 O254 2.658 . S
Tb232 O255 2.409 . S
Tb232 O256 2.378 . S
Tb232 O260 2.325 . S
Tb232 O263 2.341 . S
Tb233 C243 2.809 . S
Tb233 O254 2.325 . S
Tb233 O257 2.341 . S
Tb233 O258 2.484 . S
Tb233 O259 2.440 . S
Tb233 O260 2.658 . S
Tb233 O261 2.409 . S
Tb233 O262 2.378 . S
C234 Tb232 2.809 . S
C234 C235 1.514 . S
C234 O252 1.248 . S
C234 O253 1.266 . S
C235 C234 1.514 . S
C235 C236 1.359 . S
C235 C240 1.348 . S
C236 C235 1.359 . S
C236 C237 1.380 . S
C236 H264 0.929 . S
C237 C236 1.380 . S
C237 C238 1.347 . S
C237 H265 0.931 . S
C238 C237 1.347 . S
C238 C239 1.369 . S
C239 C238 1.369 . S
C239 C240 1.408 . S
C239 H266 0.930 . S
C240 C235 1.348 . S
C240 C239 1.408 . S
C240 H267 0.930 . S
C241 O254 1.281 . S
C241 O255 1.254 . S
C242 O256 1.236 . S
C242 O257 1.266 . S
C243 Tb233 2.809 . S
C243 C244 1.514 . S
C243 O258 1.248 . S
C243 O259 1.266 . S
C244 C243 1.514 . S
C244 C245 1.359 . S
C244 C249 1.348 . S
C245 C244 1.359 . S
C245 C246 1.380 . S
C245 H268 0.929 . S
C246 C245 1.380 . S
C246 C247 1.347 . S
C246 H269 0.931 . S
C247 C246 1.347 . S
C247 C248 1.369 . S
C248 C247 1.369 . S
C248 C249 1.408 . S
C248 H270 0.930 . S
C249 C244 1.348 . S
C249 C248 1.408 . S
C249 H271 0.930 . S
C250 O260 1.281 . S
C250 O261 1.254 . S
C251 O262 1.236 . S
C251 O263 1.266 . S
O252 Tb232 2.484 . S
O252 C234 1.248 . S
O253 Tb232 2.440 . S
O253 C234 1.266 . S
O254 Tb232 2.658 . S
O254 Tb233 2.325 . S
O254 C241 1.281 . S
O255 Tb232 2.409 . S
O255 C241 1.254 . S
O256 Tb232 2.378 . S
O256 C242 1.236 . S
O257 Tb233 2.341 . S
O257 C242 1.266 . S
O258 Tb233 2.484 . S
O258 C243 1.248 . S
O259 Tb233 2.440 . S
O259 C243 1.266 . S
O260 Tb232 2.325 . S
O260 Tb233 2.658 . S
O260 C250 1.281 . S
O261 Tb233 2.409 . S
O261 C250 1.254 . S
O262 Tb233 2.378 . S
O262 C251 1.236 . S
O263 Tb232 2.341 . S
O263 C251 1.266 . S
H264 C236 0.929 . S
H265 C237 0.931 . S
H266 C239 0.930 . S
H267 C240 0.930 . S
H268 C245 0.929 . S
H269 C246 0.931 . S
H270 C248 0.930 . S
H271 C249 0.930 . S
Tb272 C274 2.809 . S
Tb272 O292 2.484 1_455 S
Tb272 O293 2.440 . S
Tb272 O294 2.658 1_556 S
Tb272 O295 2.409 1_556 S
Tb272 O296 2.378 1_556 S
Tb272 O300 2.325 1_556 S
Tb272 O303 2.341 . S
Tb273 C283 2.809 . S
Tb273 O294 2.325 . S
Tb273 O297 2.341 . S
Tb273 O298 2.484 . S
Tb273 O299 2.440 . S
Tb273 O300 2.658 . S
Tb273 O301 2.409 1_455 S
Tb273 O302 2.378 1_554 S
C274 Tb272 2.809 . S
C274 C275 1.514 1_455 S
C274 O292 1.248 1_455 S
C274 O293 1.266 . S
C275 C274 1.514 1_655 S
C275 C276 1.359 . S
C275 C280 1.348 1_655 S
C276 C275 1.359 . S
C276 C277 1.380 . S
C276 H304 0.929 . S
C277 C276 1.380 . S
C277 C278 1.347 . S
C277 H305 0.931 . S
C278 C277 1.347 . S
C278 C279 1.369 . S
C279 C278 1.369 . S
C279 C280 1.408 1_655 S
C279 H306 0.930 1_655 S
C280 C275 1.348 1_455 S
C280 C279 1.408 1_455 S
C280 H307 0.930 . S
C281 O294 1.281 . S
C281 O295 1.254 . S
C282 O296 1.236 . S
C282 O297 1.266 . S
C283 Tb273 2.809 . S
C283 C284 1.514 . S
C283 O298 1.248 . S
C283 O299 1.266 . S
C284 C283 1.514 . S
C284 C285 1.359 . S
C284 C289 1.348 . S
C285 C284 1.359 . S
C285 C286 1.380 . S
C285 H308 0.929 . S
C286 C285 1.380 . S
C286 C287 1.347 . S
C286 H309 0.931 . S
C287 C286 1.347 . S
C287 C288 1.369 . S
C288 C287 1.369 . S
C288 C289 1.408 . S
C288 H310 0.930 . S
C289 C284 1.348 . S
C289 C288 1.408 . S
C289 H311 0.930 . S
C290 O300 1.281 1_656 S
C290 O301 1.254 1_556 S
C291 O302 1.236 . S
C291 O303 1.266 . S
O292 Tb272 2.484 1_655 S
O292 C274 1.248 1_655 S
O293 Tb272 2.440 . S
O293 C274 1.266 . S
O294 Tb272 2.658 1_554 S
O294 Tb273 2.325 . S
O294 C281 1.281 . S
O295 Tb272 2.409 1_554 S
O295 C281 1.254 . S
O296 Tb272 2.378 1_554 S
O296 C282 1.236 . S
O297 Tb273 2.341 . S
O297 C282 1.266 . S
O298 Tb273 2.484 . S
O298 C283 1.248 . S
O299 Tb273 2.440 . S
O299 C283 1.266 . S
O300 Tb272 2.325 1_554 S
O300 Tb273 2.658 . S
O300 C290 1.281 1_454 S
O301 Tb273 2.409 1_655 S
O301 C290 1.254 1_554 S
O302 Tb273 2.378 1_556 S
O302 C291 1.236 . S
O303 Tb272 2.341 . S
O303 C291 1.266 . S
H304 C276 0.929 . S
H305 C277 0.931 . S
H306 C279 0.930 1_455 S
H307 C280 0.930 . S
H308 C285 0.929 . S
H309 C286 0.931 . S
H310 C288 0.930 . S
H311 C289 0.930 . S
H312 C318 0.930 . S
H313 C322 0.930 . S
H314 C327 0.929 . S
H315 C325 0.929 . S
H316 C320 0.929 . S
H317 C326 0.929 . S
C318 H312 0.930 . S
C318 C319 1.367 . S
C318 C326 1.378 . S
C319 C318 1.367 . S
C319 C327 1.433 . S
C320 H316 0.929 . S
C320 C322 1.378 . S
C320 C324 1.350 . S
C321 C324 1.463 . S
C321 C326 1.350 . S
C321 N329 1.427 . S
C322 H313 0.930 . S
C322 C320 1.378 . S
C322 C323 1.367 . S
C323 C322 1.367 . S
C323 C325 1.433 . S
C324 C320 1.350 . S
C324 C321 1.463 . S
C324 N328 1.427 . S
C325 H315 0.929 . S
C325 C323 1.433 . S
C325 N328 1.384 . S
C326 H317 0.929 . S
C326 C318 1.378 . S
C326 C321 1.350 . S
C327 H314 0.929 . S
C327 C319 1.433 . S
C327 N329 1.384 . S
N328 C324 1.427 . S
N328 C325 1.384 . S
N329 C321 1.427 . S
N329 C327 1.384 . S
H330 C336 0.930 . S
H331 C340 0.930 . S
H332 C345 0.929 . S
H333 C343 0.929 . S
H334 C338 0.929 . S
H335 C344 0.929 . S
C336 H330 0.930 . S
C336 C337 1.367 . S
C336 C344 1.378 . S
C337 C336 1.367 . S
C337 C345 1.433 . S
C338 H334 0.929 . S
C338 C340 1.378 . S
C338 C342 1.350 . S
C339 C342 1.463 . S
C339 C344 1.350 . S
C339 N347 1.427 . S
C340 H331 0.930 . S
C340 C338 1.378 . S
C340 C341 1.367 . S
C341 C340 1.367 . S
C341 C343 1.433 . S
C342 C338 1.350 . S
C342 C339 1.463 . S
C342 N346 1.427 . S
C343 H333 0.929 . S
C343 C341 1.433 . S
C343 N346 1.384 . S
C344 H335 0.929 . S
C344 C336 1.378 . S
C344 C339 1.350 . S
C345 H332 0.929 . S
C345 C337 1.433 . S
C345 N347 1.384 . S
N346 C342 1.427 . S
N346 C343 1.384 . S
N347 C339 1.427 . S
N347 C345 1.384 . S
H348 C354 0.930 . S
H349 C358 0.930 . S
H350 C363 0.929 . S
H351 C361 0.929 . S
H352 C356 0.929 . S
H353 C362 0.929 . S
C354 H348 0.930 . S
C354 C355 1.367 . S
C354 C362 1.378 . S
C355 C354 1.367 . S
C355 C363 1.433 . S
C356 H352 0.929 . S
C356 C358 1.378 . S
C356 C360 1.350 . S
C357 C360 1.463 . S
C357 C362 1.350 . S
C357 N365 1.427 . S
C358 H349 0.930 . S
C358 C356 1.378 . S
C358 C359 1.367 . S
C359 C358 1.367 . S
C359 C361 1.433 . S
C360 C356 1.350 . S
C360 C357 1.463 . S
C360 N364 1.427 . S
C361 H351 0.929 . S
C361 C359 1.433 . S
C361 N364 1.384 . S
C362 H353 0.929 . S
C362 C354 1.378 . S
C362 C357 1.350 . S
C363 H350 0.929 . S
C363 C355 1.433 . S
C363 N365 1.384 . S
N364 C360 1.427 . S
N364 C361 1.384 . S
N365 C357 1.427 . S
N365 C363 1.384 . S
H366 C372 0.930 . S
H367 C376 0.930 1_455 S
H368 C381 0.929 . S
H369 C379 0.929 . S
H370 C374 0.929 . S
H371 C380 0.929 . S
C372 H366 0.930 . S
C372 C373 1.367 . S
C372 C380 1.378 . S
C373 C372 1.367 . S
C373 C381 1.433 . S
C374 H370 0.929 . S
C374 C376 1.378 . S
C374 C378 1.350 . S
C375 C378 1.463 . S
C375 C380 1.350 . S
C375 N383 1.427 . S
C376 H367 0.930 1_655 S
C376 C374 1.378 . S
C376 C377 1.367 . S
C377 C376 1.367 . S
C377 C379 1.433 . S
C378 C374 1.350 . S
C378 C375 1.463 . S
C378 N382 1.427 . S
C379 H369 0.929 . S
C379 C377 1.433 . S
C379 N382 1.384 . S
C380 H371 0.929 . S
C380 C372 1.378 . S
C380 C375 1.350 . S
C381 H368 0.929 . S
C381 C373 1.433 . S
C381 N383 1.384 . S
N382 C378 1.427 . S
N382 C379 1.384 . S
N383 C375 1.427 . S
N383 C381 1.384 . S
H384 C390 0.930 . S
H385 C394 0.930 . S
H386 C399 0.929 . S
H387 C397 0.929 . S
H388 C392 0.929 . S
H389 C398 0.929 . S
C390 H384 0.930 . S
C390 C391 1.367 . S
C390 C398 1.378 . S
C391 C390 1.367 . S
C391 C399 1.433 . S
C392 H388 0.929 . S
C392 C394 1.378 . S
C392 C396 1.350 . S
C393 C396 1.463 . S
C393 C398 1.350 . S
C393 N401 1.427 . S
C394 H385 0.930 . S
C394 C392 1.378 . S
C394 C395 1.367 . S
C395 C394 1.367 . S
C395 C397 1.433 . S
C396 C392 1.350 . S
C396 C393 1.463 . S
C396 N400 1.427 . S
C397 H387 0.929 . S
C397 C395 1.433 . S
C397 N400 1.384 . S
C398 H389 0.929 . S
C398 C390 1.378 . S
C398 C393 1.350 . S
C399 H386 0.929 . S
C399 C391 1.433 . S
C399 N401 1.384 . S
N400 C396 1.427 . S
N400 C397 1.384 . S
N401 C393 1.427 . S
N401 C399 1.384 . S
H402 C408 0.930 . S
H403 C412 0.930 . S
H404 C417 0.929 . S
H405 C415 0.929 . S
H406 C410 0.929 . S
H407 C416 0.929 . S
C408 H402 0.930 . S
C408 C409 1.367 . S
C408 C416 1.378 . S
C409 C408 1.367 . S
C409 C417 1.433 . S
C410 H406 0.929 . S
C410 C412 1.378 . S
C410 C414 1.350 . S
C411 C414 1.463 . S
C411 C416 1.350 . S
C411 N419 1.427 . S
C412 H403 0.930 . S
C412 C410 1.378 . S
C412 C413 1.367 . S
C413 C412 1.367 . S
C413 C415 1.433 . S
C414 C410 1.350 . S
C414 C411 1.463 . S
C414 N418 1.427 . S
C415 H405 0.929 . S
C415 C413 1.433 . S
C415 N418 1.384 . S
C416 H407 0.929 . S
C416 C408 1.378 . S
C416 C411 1.350 . S
C417 H404 0.929 . S
C417 C409 1.433 . S
C417 N419 1.384 . S
N418 C414 1.427 . S
N418 C415 1.384 . S
N419 C411 1.427 . S
N419 C417 1.384 . S
H420 C426 0.930 . S
H421 C430 0.930 . S
H422 C435 0.929 . S
H423 C433 0.929 1_554 S
H424 C428 0.929 . S
H425 C434 0.929 . S
C426 H420 0.930 . S
C426 C427 1.367 . S
C426 C434 1.378 . S
C427 C426 1.367 . S
C427 C435 1.433 . S
C428 H424 0.929 . S
C428 C430 1.378 . S
C428 C432 1.350 . S
C429 C432 1.463 . S
C429 C434 1.350 . S
C429 N437 1.427 . S
C430 H421 0.930 . S
C430 C428 1.378 . S
C430 C431 1.367 . S
C431 C430 1.367 . S
C431 C433 1.433 . S
C432 C428 1.350 . S
C432 C429 1.463 . S
C432 N436 1.427 . S
C433 H423 0.929 1_556 S
C433 C431 1.433 . S
C433 N436 1.384 . S
C434 H425 0.929 . S
C434 C426 1.378 . S
C434 C429 1.350 . S
C435 H422 0.929 . S
C435 C427 1.433 . S
C435 N437 1.384 . S
N436 C432 1.427 . S
N436 C433 1.384 . S
N437 C429 1.427 . S
N437 C435 1.384 . S
H438 C444 0.930 . S
H439 C448 0.930 . S
H440 C453 0.929 . S
H441 C451 0.929 . S
H442 C446 0.929 . S
H443 C452 0.929 . S
C444 H438 0.930 . S
C444 C445 1.367 . S
C444 C452 1.378 . S
C445 C444 1.367 . S
C445 C453 1.433 . S
C446 H442 0.929 . S
C446 C448 1.378 . S
C446 C450 1.350 . S
C447 C450 1.463 . S
C447 C452 1.350 . S
C447 N455 1.427 . S
C448 H439 0.930 . S
C448 C446 1.378 . S
C448 C449 1.367 . S
C449 C448 1.367 . S
C449 C451 1.433 . S
C450 C446 1.350 . S
C450 C447 1.463 . S
C450 N454 1.427 . S
C451 H441 0.929 . S
C451 C449 1.433 . S
C451 N454 1.384 . S
C452 H443 0.929 . S
C452 C444 1.378 . S
C452 C447 1.350 . S
C453 H440 0.929 . S
C453 C445 1.433 . S
C453 N455 1.384 . S
N454 C450 1.427 . S
N454 C451 1.384 . S
N455 C447 1.427 . S
N455 C453 1.384 . S
H456 C462 0.930 . S
H457 C466 0.930 . S
H458 C471 0.929 . S
H459 C469 0.929 . S
H460 C464 0.929 . S
H461 C470 0.929 . S
C462 H456 0.930 . S
C462 C463 1.367 . S
C462 C470 1.378 . S
C463 C462 1.367 . S
C463 C471 1.433 . S
C464 H460 0.929 . S
C464 C466 1.378 . S
C464 C468 1.350 . S
C465 C468 1.463 . S
C465 C470 1.350 . S
C465 N473 1.427 . S
C466 H457 0.930 . S
C466 C464 1.378 . S
C466 C467 1.367 . S
C467 C466 1.367 . S
C467 C469 1.433 . S
C468 C464 1.350 . S
C468 C465 1.463 . S
C468 N472 1.427 . S
C469 H459 0.929 . S
C469 C467 1.433 . S
C469 N472 1.384 . S
C470 H461 0.929 . S
C470 C462 1.378 . S
C470 C465 1.350 . S
C471 H458 0.929 . S
C471 C463 1.433 . S
C471 N473 1.384 . S
N472 C468 1.427 . S
N472 C469 1.384 . S
N473 C465 1.427 . S
N473 C471 1.384 . S
H474 C480 0.930 . S
H475 C484 0.930 . S
H476 C489 0.929 . S
H477 C487 0.929 . S
H478 C482 0.925 1_554 S
H479 C488 0.929 . S
C480 H474 0.930 . S
C480 C481 1.367 . S
C480 C488 1.378 . S
C481 C480 1.367 . S
C481 C489 1.433 . S
C482 H478 0.925 1_556 S
C482 C484 1.364 1_556 S
C482 C486 1.367 . S
C483 C486 1.463 . S
C483 C488 1.350 . S
C483 N491 1.427 . S
C484 H475 0.930 . S
C484 C482 1.364 1_554 S
C484 C485 1.367 . S
C485 C484 1.367 . S
C485 C487 1.433 1_554 S
C486 C482 1.367 . S
C486 C483 1.463 . S
C486 N490 1.427 . S
C487 H477 0.929 . S
C487 C485 1.433 1_556 S
C487 N490 1.384 . S
C488 H479 0.929 . S
C488 C480 1.378 . S
C488 C483 1.350 . S
C489 H476 0.929 . S
C489 C481 1.433 . S
C489 N491 1.384 . S
N490 C486 1.427 . S
N490 C487 1.384 . S
N491 C483 1.427 . S
N491 C489 1.384 . S
H492 C498 0.930 . S
H493 C502 0.930 . S
H494 C507 0.929 . S
H495 C505 0.929 . S
H496 C500 0.929 . S
H497 C506 0.929 . S
C498 H492 0.930 . S
C498 C499 1.367 . S
C498 C506 1.378 . S
C499 C498 1.367 . S
C499 C507 1.433 . S
C500 H496 0.929 . S
C500 C502 1.378 . S
C500 C504 1.350 . S
C501 C504 1.463 . S
C501 C506 1.350 . S
C501 N509 1.427 . S
C502 H493 0.930 . S
C502 C500 1.378 . S
C502 C503 1.367 . S
C503 C502 1.367 . S
C503 C505 1.433 . S
C504 C500 1.350 . S
C504 C501 1.463 . S
C504 N508 1.427 . S
C505 H495 0.929 . S
C505 C503 1.433 . S
C505 N508 1.384 . S
C506 H497 0.929 . S
C506 C498 1.378 . S
C506 C501 1.350 . S
C507 H494 0.929 . S
C507 C499 1.433 . S
C507 N509 1.384 . S
N508 C504 1.427 . S
N508 C505 1.384 . S
N509 C501 1.427 . S
N509 C507 1.384 . S
H510 C516 0.930 . S
H511 C520 0.930 . S
H512 C525 0.929 . S
H513 C523 0.929 . S
H514 C518 0.929 . S
H515 C524 0.929 . S
C516 H510 0.930 . S
C516 C517 1.367 . S
C516 C524 1.378 . S
C517 C516 1.367 . S
C517 C525 1.433 . S
C518 H514 0.929 . S
C518 C520 1.378 . S
C518 C522 1.350 . S
C519 C522 1.463 . S
C519 C524 1.350 . S
C519 N527 1.427 . S
C520 H511 0.930 . S
C520 C518 1.378 . S
C520 C521 1.367 . S
C521 C520 1.367 . S
C521 C523 1.433 . S
C522 C518 1.350 . S
C522 C519 1.463 . S
C522 N526 1.427 . S
C523 H513 0.929 . S
C523 C521 1.433 . S
C523 N526 1.384 . S
C524 H515 0.929 . S
C524 C516 1.378 . S
C524 C519 1.350 . S
C525 H512 0.929 . S
C525 C517 1.433 . S
C525 N527 1.384 . S
N526 C522 1.427 . S
N526 C523 1.384 . S
N527 C519 1.427 . S
N527 C525 1.384 . S
H528 C534 0.930 . S
H529 C538 0.930 . S
H530 C543 0.929 . S
H531 C541 0.929 . S
H532 C536 0.929 . S
H533 C542 0.929 . S
C534 H528 0.930 . S
C534 C535 1.367 . S
C534 C542 1.378 . S
C535 C534 1.367 . S
C535 C543 1.433 . S
C536 H532 0.929 . S
C536 C538 1.378 . S
C536 C540 1.350 . S
C537 C540 1.463 . S
C537 C542 1.350 . S
C537 N545 1.427 . S
C538 H529 0.930 . S
C538 C536 1.378 . S
C538 C539 1.367 . S
C539 C538 1.367 . S
C539 C541 1.433 . S
C540 C536 1.350 . S
C540 C537 1.463 . S
C540 N544 1.427 . S
C541 H531 0.929 . S
C541 C539 1.433 . S
C541 N544 1.384 . S
C542 H533 0.929 . S
C542 C534 1.378 . S
C542 C537 1.350 . S
C543 H530 0.929 . S
C543 C535 1.433 . S
C543 N545 1.384 . S
N544 C540 1.427 . S
N544 C541 1.384 . S
N545 C537 1.427 . S
N545 C543 1.384 . S
H546 C552 0.930 . S
H547 C556 0.930 . S
H548 C561 0.929 . S
H549 C559 0.929 . S
H550 C554 0.929 . S
H551 C560 0.929 . S
C552 H546 0.930 . S
C552 C553 1.367 . S
C552 C560 1.378 . S
C553 C552 1.367 . S
C553 C561 1.433 . S
C554 H550 0.929 . S
C554 C556 1.378 . S
C554 C558 1.350 . S
C555 C558 1.463 . S
C555 C560 1.350 . S
C555 N563 1.427 . S
C556 H547 0.930 . S
C556 C554 1.378 . S
C556 C557 1.367 . S
C557 C556 1.367 . S
C557 C559 1.433 . S
C558 C554 1.350 . S
C558 C555 1.463 . S
C558 N562 1.427 . S
C559 H549 0.929 . S
C559 C557 1.433 . S
C559 N562 1.384 . S
C560 H551 0.929 . S
C560 C552 1.378 . S
C560 C555 1.350 . S
C561 H548 0.929 . S
C561 C553 1.433 . S
C561 N563 1.384 . S
N562 C558 1.427 . S
N562 C559 1.384 . S
N563 C555 1.427 . S
N563 C561 1.384 . S
H564 C570 0.930 . S
H565 C574 0.930 . S
H566 C579 0.929 . S
H567 C577 0.929 . S
H568 C572 0.929 . S
H569 C578 0.929 . S
C570 H564 0.930 . S
C570 C571 1.367 . S
C570 C578 1.378 . S
C571 C570 1.367 . S
C571 C579 1.433 . S
C572 H568 0.929 . S
C572 C574 1.378 . S
C572 C576 1.350 . S
C573 C576 1.463 . S
C573 C578 1.350 . S
C573 N581 1.427 . S
C574 H565 0.930 . S
C574 C572 1.378 . S
C574 C575 1.367 . S
C575 C574 1.367 . S
C575 C577 1.433 . S
C576 C572 1.350 . S
C576 C573 1.463 . S
C576 N580 1.427 . S
C577 H567 0.929 . S
C577 C575 1.433 . S
C577 N580 1.384 . S
C578 H569 0.929 . S
C578 C570 1.378 . S
C578 C573 1.350 . S
C579 H566 0.929 . S
C579 C571 1.433 . S
C579 N581 1.384 . S
N580 C576 1.427 . S
N580 C577 1.384 . S
N581 C573 1.427 . S
N581 C579 1.384 . S
H582 C588 0.930 . S
H583 C592 0.930 . S
H584 C597 0.929 . S
H585 C595 0.929 . S
H586 C590 0.929 . S
H587 C596 0.929 . S
C588 H582 0.930 . S
C588 C589 1.367 . S
C588 C596 1.378 . S
C589 C588 1.367 . S
C589 C597 1.433 . S
C590 H586 0.929 . S
C590 C592 1.378 . S
C590 C594 1.350 . S
C591 C594 1.463 . S
C591 C596 1.350 . S
C591 N599 1.427 . S
C592 H583 0.930 . S
C592 C590 1.378 . S
C592 C593 1.367 . S
C593 C592 1.367 . S
C593 C595 1.433 . S
C594 C590 1.350 . S
C594 C591 1.463 . S
C594 N598 1.427 . S
C595 H585 0.929 . S
C595 C593 1.433 . S
C595 N598 1.384 . S
C596 H587 0.929 . S
C596 C588 1.378 . S
C596 C591 1.350 . S
C597 H584 0.929 . S
C597 C589 1.433 . S
C597 N599 1.384 . S
N598 C594 1.427 . S
N598 C595 1.384 . S
N599 C591 1.427 . S
N599 C597 1.384 . S
H600 C606 0.930 . S
H601 C610 0.930 . S
H602 C615 0.929 . S
H603 C613 0.929 . S
H604 C608 0.929 . S
H605 C614 0.929 . S
C606 H600 0.930 . S
C606 C607 1.367 . S
C606 C614 1.378 . S
C607 C606 1.367 . S
C607 C615 1.433 . S
C608 H604 0.929 . S
C608 C610 1.378 . S
C608 C612 1.330 1_554 S
C609 C612 1.481 . S
C609 C614 1.350 . S
C609 N617 1.427 . S
C610 H601 0.930 . S
C610 C608 1.378 . S
C610 C611 1.367 . S
C611 C610 1.367 . S
C611 C613 1.433 . S
C612 C608 1.330 1_556 S
C612 C609 1.481 . S
C612 N616 1.431 . S
C613 H603 0.929 . S
C613 C611 1.433 . S
C613 N616 1.384 1_554 S
C614 H605 0.929 . S
C614 C606 1.378 . S
C614 C609 1.350 . S
C615 H602 0.929 . S
C615 C607 1.433 . S
C615 N617 1.384 . S
N616 C612 1.431 . S
N616 C613 1.384 1_556 S
N617 C609 1.427 . S
N617 C615 1.384 . S
H618 C624 0.930 . S
H619 C628 0.930 . S
H620 C633 0.929 . S
H621 C631 0.913 1_455 S
H622 C626 0.929 . S
H623 C632 0.929 . S
C624 H618 0.930 . S
C624 C625 1.367 . S
C624 C632 1.378 . S
C625 C624 1.367 . S
C625 C633 1.433 . S
C626 H622 0.929 . S
C626 C628 1.378 . S
C626 C630 1.350 . S
C627 C630 1.463 . S
C627 C632 1.350 . S
C627 N635 1.427 . S
C628 H619 0.930 . S
C628 C626 1.378 . S
C628 C629 1.367 . S
C629 C628 1.367 . S
C629 C631 1.435 . S
C630 C626 1.350 . S
C630 C627 1.463 . S
C630 N634 1.427 . S
C631 H621 0.913 1_655 S
C631 C629 1.435 . S
C631 N634 1.399 . S
C632 H623 0.929 . S
C632 C624 1.378 . S
C632 C627 1.350 . S
C633 H620 0.929 . S
C633 C625 1.433 . S
C633 N635 1.384 . S
N634 C630 1.427 . S
N634 C631 1.399 . S
N635 C627 1.427 . S
N635 C633 1.384 . S
H636 C642 0.930 . S
H637 C646 0.930 . S
H638 C651 0.929 . S
H639 C649 0.929 . S
H640 C644 0.929 . S
H641 C650 0.929 . S
C642 H636 0.930 . S
C642 C643 1.367 . S
C642 C650 1.378 . S
C643 C642 1.367 . S
C643 C651 1.433 . S
C644 H640 0.929 . S
C644 C646 1.378 . S
C644 C648 1.350 . S
C645 C648 1.463 . S
C645 C650 1.350 . S
C645 N653 1.427 . S
C646 H637 0.930 . S
C646 C644 1.378 . S
C646 C647 1.367 . S
C647 C646 1.367 . S
C647 C649 1.433 . S
C648 C644 1.350 . S
C648 C645 1.463 . S
C648 N652 1.427 . S
C649 H639 0.929 . S
C649 C647 1.433 . S
C649 N652 1.384 . S
C650 H641 0.929 . S
C650 C642 1.378 . S
C650 C645 1.350 . S
C651 H638 0.929 . S
C651 C643 1.433 . S
C651 N653 1.384 . S
N652 C648 1.427 . S
N652 C649 1.384 . S
N653 C645 1.427 . S
N653 C651 1.384 . S
H654 C660 0.930 . S
H655 C664 0.930 . S
H656 C669 0.929 . S
H657 C667 0.929 . S
H658 C662 0.929 . S
H659 C668 0.929 . S
C660 H654 0.930 . S
C660 C661 1.367 . S
C660 C668 1.378 . S
C661 C660 1.367 . S
C661 C669 1.433 . S
C662 H658 0.929 . S
C662 C664 1.378 . S
C662 C666 1.350 . S
C663 C666 1.463 . S
C663 C668 1.350 . S
C663 N671 1.427 . S
C664 H655 0.930 . S
C664 C662 1.378 . S
C664 C665 1.367 . S
C665 C664 1.367 . S
C665 C667 1.433 . S
C666 C662 1.350 . S
C666 C663 1.463 . S
C666 N670 1.427 . S
C667 H657 0.929 . S
C667 C665 1.433 . S
C667 N670 1.384 . S
C668 H659 0.929 . S
C668 C660 1.378 . S
C668 C663 1.350 . S
C669 H656 0.929 . S
C669 C661 1.433 . S
C669 N671 1.384 . S
N670 C666 1.427 . S
N670 C667 1.384 . S
N671 C663 1.427 . S
N671 C669 1.384 . S
H672 C678 0.930 . S
H673 C682 0.930 . S
H674 C687 0.929 . S
H675 C685 0.925 1_554 S
H676 C680 0.929 . S
H677 C686 0.929 . S
C678 H672 0.930 . S
C678 C679 1.367 . S
C678 C686 1.378 . S
C679 C678 1.367 . S
C679 C687 1.433 . S
C680 H676 0.929 . S
C680 C682 1.378 . S
C680 C684 1.350 . S
C681 C684 1.463 . S
C681 C686 1.350 . S
C681 N689 1.427 . S
C682 H673 0.930 . S
C682 C680 1.378 . S
C682 C683 1.367 . S
C683 C682 1.367 . S
C683 C685 1.433 . S
C684 C680 1.350 . S
C684 C681 1.463 . S
C684 N688 1.427 . S
C685 H675 0.925 1_556 S
C685 C683 1.433 . S
C685 N688 1.384 . S
C686 H677 0.929 . S
C686 C678 1.378 . S
C686 C681 1.350 . S
C687 H674 0.929 . S
C687 C679 1.433 . S
C687 N689 1.384 . S
N688 C684 1.427 . S
N688 C685 1.384 . S
N689 C681 1.427 . S
N689 C687 1.384 . S
H690 C696 0.930 . S
H691 C700 0.930 . S
H692 C705 0.929 . S
H693 C703 0.929 . S
H694 C698 0.929 . S
H695 C704 0.929 . S
C696 H690 0.930 . S
C696 C697 1.367 . S
C696 C704 1.378 . S
C697 C696 1.367 . S
C697 C705 1.433 . S
C698 H694 0.929 . S
C698 C700 1.378 . S
C698 C702 1.350 . S
C699 C702 1.463 . S
C699 C704 1.350 . S
C699 N707 1.427 . S
C700 H691 0.930 . S
C700 C698 1.378 . S
C700 C701 1.367 . S
C701 C700 1.367 . S
C701 C703 1.433 . S
C702 C698 1.350 . S
C702 C699 1.463 . S
C702 N706 1.427 . S
C703 H693 0.929 . S
C703 C701 1.433 . S
C703 N706 1.384 . S
C704 H695 0.929 . S
C704 C696 1.378 . S
C704 C699 1.350 . S
C705 H692 0.929 . S
C705 C697 1.433 . S
C705 N707 1.384 . S
N706 C702 1.427 . S
N706 C703 1.384 . S
N707 C699 1.427 . S
N707 C705 1.384 . S
H708 C714 0.930 . S
H709 C718 0.930 . S
H710 C723 0.929 . S
H711 C721 0.929 . S
H712 C716 0.929 . S
H713 C722 0.929 . S
C714 H708 0.930 . S
C714 C715 1.367 . S
C714 C722 1.378 . S
C715 C714 1.367 . S
C715 C723 1.433 . S
C716 H712 0.929 . S
C716 C718 1.378 . S
C716 C720 1.350 . S
C717 C720 1.463 . S
C717 C722 1.350 . S
C717 N725 1.427 . S
C718 H709 0.930 . S
C718 C716 1.378 . S
C718 C719 1.367 . S
C719 C718 1.367 . S
C719 C721 1.433 . S
C720 C716 1.350 . S
C720 C717 1.463 . S
C720 N724 1.427 . S
C721 H711 0.929 . S
C721 C719 1.433 . S
C721 N724 1.384 . S
C722 H713 0.929 . S
C722 C714 1.378 . S
C722 C717 1.350 . S
C723 H710 0.929 . S
C723 C715 1.433 . S
C723 N725 1.384 . S
N724 C720 1.427 . S
N724 C721 1.384 . S
N725 C717 1.427 . S
N725 C723 1.384 . S
H726 C732 0.930 . S
H727 C736 0.930 . S
H728 C741 0.929 . S
H729 C739 0.929 . S
H730 C734 0.929 . S
H731 C740 0.929 . S
C732 H726 0.930 . S
C732 C733 1.367 . S
C732 C740 1.378 . S
C733 C732 1.367 . S
C733 C741 1.433 . S
C734 H730 0.929 . S
C734 C736 1.378 . S
C734 C738 1.350 . S
C735 C738 1.463 . S
C735 C740 1.350 . S
C735 N743 1.427 . S
C736 H727 0.930 . S
C736 C734 1.378 . S
C736 C737 1.367 . S
C737 C736 1.367 . S
C737 C739 1.433 . S
C738 C734 1.350 . S
C738 C735 1.463 . S
C738 N742 1.427 . S
C739 H729 0.929 . S
C739 C737 1.433 . S
C739 N742 1.384 . S
C740 H731 0.929 . S
C740 C732 1.378 . S
C740 C735 1.350 . S
C741 H728 0.929 . S
C741 C733 1.433 . S
C741 N743 1.384 . S
N742 C738 1.427 . S
N742 C739 1.384 . S
N743 C735 1.427 . S
N743 C741 1.384 . S
C319 C6 1.419 . S
C323 C167 1.429 . S
C337 C21 1.399 . S
C341 C207 1.450 . S
C359 C241 1.800 . S
C355 C49 1.709 . S
C373 C68 2.395 . S
C377 C282 2.453 1_655 S
C395 C202 2.291 . S
C391 C2 2.219 . S
C413 C162 1.779 1_565 S
C409 C30 1.722 . S
C431 C290 1.457 . S
C427 C40 1.511 . S
C449 C251 1.737 . S
C445 C63 1.830 . S
C463 C11 1.198 . S
C467 C287 1.287 . S
C485 C210 2.278 . S
C481 C44 2.348 . S
C499 C59 1.961 . S
C503 C170 1.933 . S
C517 C25 2.038 . S
C521 C238 2.060 . S
C539 C158 1.604 . S
C535 C82 1.605 . S
C553 C101 1.104 . S
C557 C198 1.127 . S
C571 C125 1.923 . S
C575 C250 2.057 . S
C589 C144 2.120 . S
C593 C291 2.084 . S
C607 C87 1.196 . S
C611 C211 1.278 . S
C629 C171 2.753 . S
C625 C97 2.640 . S
C647 C281 1.525 . S
C643 C120 1.495 . S
C665 C242 1.697 . S
C661 C135 1.727 . S
C679 C78 1.932 . S
C683 C278 1.969 . S
C701 C201 1.536 . S
C697 C116 1.553 . S
C719 C161 2.567 . S
C715 C139 2.664 . S
C733 C106 1.201 . S
C737 C247 1.501 . S
