# Generated by pormake.
# Topology pth, (4,4)-cn, num edge types: 1
# Building blocks:
#     Node 0, Type 0, BuildingBlock: UXUYUI_clean_sbu_0, # of connection points: 4
#     Node 1, Type 0, BuildingBlock: UXUYUI_clean_sbu_0, # of connection points: 4
#     Node 2, Type 0, BuildingBlock: UXUYUI_clean_sbu_0, # of connection points: 4
#     Node 3, Type 1, BuildingBlock: NAWXER_clean_linker_0, # of connection points: 4
#     Node 4, Type 1, BuildingBlock: NAWXER_clean_linker_0, # of connection points: 4
#     Node 5, Type 1, BuildingBlock: NAWXER_clean_linker_0, # of connection points: 4
#     Edge 6, Type (0, 1), BuildingBlock: MIFKUJ_clean_linker_0, # of connection points: 2
#     Edge 7, Type (0, 1), BuildingBlock: MIFKUJ_clean_linker_0, # of connection points: 2
#     Edge 8, Type (0, 1), BuildingBlock: MIFKUJ_clean_linker_0, # of connection points: 2
#     Edge 9, Type (0, 1), BuildingBlock: MIFKUJ_clean_linker_0, # of connection points: 2
#     Edge 10, Type (0, 1), BuildingBlock: MIFKUJ_clean_linker_0, # of connection points: 2
#     Edge 11, Type (0, 1), BuildingBlock: MIFKUJ_clean_linker_0, # of connection points: 2
#     Edge 12, Type (0, 1), BuildingBlock: MIFKUJ_clean_linker_0, # of connection points: 2
#     Edge 13, Type (0, 1), BuildingBlock: MIFKUJ_clean_linker_0, # of connection points: 2
#     Edge 14, Type (0, 1), BuildingBlock: MIFKUJ_clean_linker_0, # of connection points: 2
#     Edge 15, Type (0, 1), BuildingBlock: MIFKUJ_clean_linker_0, # of connection points: 2
#     Edge 16, Type (0, 1), BuildingBlock: MIFKUJ_clean_linker_0, # of connection points: 2
#     Edge 17, Type (0, 1), BuildingBlock: MIFKUJ_clean_linker_0, # of connection points: 2
# Relax obj value: 0.074
# Max RMSD: 0.209
# Mean RMSD: 0.112
data_MOF--net-pth--node1-UXUYUI_clean_sbu_0--node2-NAWXER_clean_linker_0--edge1-MIFKUJ_clean_linker_0
_symmetry_space_group_name_H-M    P1
_symmetry_Int_Tables_number       1
_symmetry_cell_setting            triclinic
loop_
_symmetry_equiv_pos_as_xyz
'x, y, z'
_cell_length_a     41.611343
_cell_length_b     41.610986
_cell_length_c     94.13384
_cell_angle_alpha  90.0439
_cell_angle_beta   89.994117
_cell_angle_gamma 120.02771
loop_
_atom_site_label
_atom_site_type_symbol
_atom_site_fract_x
_atom_site_fract_y
_atom_site_fract_z
_atom_type_partial_charge
Li0 Li 0.02855 0.02326 0.0433 0.0
Li1 Li 0.98628 0.02043 0.06183 0.0
Li2 Li 0.0069 0.97501 0.06091 0.0
Li3 Li 0.96344 0.9747 0.04345 0.0
C4 C 0.07231 0.05797 0.06508 0.0
N5 N 0.14352 0.11822 0.06588 0.0
C6 C 0.0782 0.09314 0.06865 0.0
C7 C 0.10266 0.05341 0.06201 0.0
C8 C 0.11441 0.12325 0.06898 0.0
C9 C 0.13843 0.08423 0.06243 0.0
C10 C 0.96439 0.02982 0.03008 0.0
C11 C 0.90677 0.01941 0.01987 0.0
N12 N 0.92291 0.02779 0.00681 0.0
C13 C 0.98044 0.03843 0.01656 0.0
C14 C 0.9273 0.02037 0.03177 0.0
C15 C 0.959 0.03724 0.00493 0.0
C16 C 0.08284 0.04197 0.02182 0.0
N17 N 0.06843 0.05576 0.03141 0.0
C18 C 0.10889 0.1176 0.02337 0.0
C19 C 0.08048 0.09268 0.03223 0.0
C20 C 0.12422 0.10418 0.01333 0.0
C21 C 0.11088 0.06587 0.01256 0.0
H22 H 0.07212 0.01239 0.02119 0.0
H23 H 0.06761 0.10268 0.03963 0.0
C24 C 0.98984 0.05439 0.08787 0.0
N25 N 0.97613 0.04976 0.07446 0.0
C26 C 0.9855 0.07762 0.09739 0.0
C27 C 0.95215 0.09015 0.07922 0.0
C28 C 0.95735 0.06681 0.07002 0.0
C29 C 0.9668 0.09624 0.09306 0.0
H30 H 0.005 0.04071 0.09103 0.0
H31 H 0.94695 0.06279 0.05927 0.0
C32 C 0.01487 0.94158 0.03851 0.0
N33 N 0.02861 0.88325 0.03675 0.0
C34 C 0.98587 0.90568 0.03568 0.0
C35 C 0.0509 0.94785 0.04035 0.0
C36 C 0.99339 0.87656 0.03484 0.0
C37 C 0.05726 0.91798 0.03946 0.0
C38 C 0.93613 0.96382 0.07579 0.0
C39 C 0.9474 0.95817 0.08909 0.0
C40 C 0.90569 0.96928 0.07479 0.0
C41 C 0.92804 0.95823 0.10121 0.0
C42 C 0.88711 0.96923 0.08716 0.0
N43 N 0.89858 0.96375 0.10001 0.0
C44 C 0.04845 0.95814 0.08052 0.0
C45 C 0.99294 0.90691 0.07178 0.0
C46 C 0.05485 0.93471 0.08921 0.0
N47 N 0.01792 0.94386 0.07204 0.0
C48 C -0.00152 0.88248 0.08013 0.0
C49 C 0.02964 0.89636 0.08905 0.0
H50 H 0.06743 0.98774 0.08073 0.0
H51 H 0.96835 0.89654 0.06525 0.0
C52 C 0.93117 0.94145 0.01756 0.0
N53 N 0.92329 0.9433 0.03144 0.0
C54 C 0.90343 0.91699 0.00835 0.0
C55 C 0.85987 0.89704 0.02788 0.0
C56 C 0.88852 0.92192 0.03673 0.0
C57 C 0.86727 0.89407 0.01352 0.0
H58 H 0.95929 0.95839 0.01375 0.0
H59 H 0.88318 0.92367 0.04785 0.0
O60 O 0.03704 0.02822 0.06449 0.0
O61 O 0.98468 0.03007 0.04155 0.0
O62 O 0.008 0.97038 0.03962 0.0
O63 O 0.95527 0.96477 0.06384 0.0
H64 H 0.05507 0.09728 0.07094 0.0
H65 H 0.09861 0.02643 0.0592 0.0
H66 H 0.11936 0.15065 0.07165 0.0
H67 H 0.16215 0.08114 0.05999 0.0
H68 H 0.87796 0.01186 0.02101 0.0
H69 H 0.00903 0.04564 0.01503 0.0
H70 H 0.9143 0.0132 0.04212 0.0
H71 H 0.97102 0.04369 0.99441 0.0
H72 H 0.11803 0.14693 0.02407 0.0
H73 H 0.12203 0.05459 0.00489 0.0
H74 H -0.00219 0.0819 0.10785 0.0
H75 H 0.93714 0.10352 0.07548 0.0
H76 H 0.95777 0.90023 0.03432 0.0
H77 H 0.07365 0.97544 0.04255 0.0
H78 H 0.97118 0.8486 0.03273 0.0
H79 H 0.08497 0.9224 0.04094 0.0
H80 H 0.97105 0.95416 0.09008 0.0
H81 H 0.89686 0.97412 0.0646 0.0
H82 H 0.93654 0.95405 0.11158 0.0
H83 H 0.86367 0.97369 0.08656 0.0
H84 H 0.07913 0.9464 0.096 0.0
H85 H 0.97801 0.85317 0.07994 0.0
H86 H 0.91056 0.91519 0.99743 0.0
H87 H 0.83232 0.88011 0.03227 0.0
Li88 Li 0.99031 0.96703 0.37781 0.0
Li89 Li 0.03457 0.01374 0.39391 0.0
Li90 Li 0.96787 0.98978 0.3975 0.0
Li91 Li 0.00086 0.03101 0.37806 0.0
C92 C 0.97208 0.92665 0.40306 0.0
N93 N 0.92467 0.85522 0.41238 0.0
C94 C 0.98282 0.91164 0.41411 0.0
C95 C 0.93725 0.90534 0.39673 0.0
C96 C 0.95845 0.87546 0.41868 0.0
C97 C 0.91368 0.86929 0.40161 0.0
C98 C 0.07192 0.02599 0.36958 0.0
C99 C 0.13413 0.07581 0.36494 0.0
N100 N 0.14556 0.05059 0.36338 0.0
C101 C 0.08419 0.00054 0.36772 0.0
C102 C 0.09698 0.06391 0.36801 0.0
C103 C 0.12156 0.01352 0.36467 0.0
C104 C 0.96475 0.92101 0.35357 0.0
N105 N 0.98217 0.92635 0.36628 0.0
C106 C 0.99422 0.87697 0.3616 0.0
C107 C 0.99644 0.90481 0.3705 0.0
C108 C 0.977 0.87122 0.34828 0.0
C109 C 0.96157 0.8932 0.34438 0.0
H110 H 0.95435 0.93907 0.3504 0.0
H111 H 0.01056 0.91003 0.38061 0.0
C112 C 0.0969 0.05779 0.41187 0.0
N113 N 0.07935 0.02688 0.40363 0.0
C114 C 0.12791 0.06452 0.41989 0.0
C115 C 0.12233 0.0077 0.41063 0.0
C116 C 0.09128 0.00191 0.40293 0.0
C117 C 0.1408 0.03913 0.41937 0.0
H118 H 0.08625 0.07666 0.41256 0.0
H119 H 0.07598 0.97693 0.39668 0.0
C120 C 0.92415 0.98964 0.37387 0.0
N121 N 0.86752 0.00333 0.36698 0.0
C122 C 0.91666 0.01235 0.38255 0.0
C123 C 0.90275 0.97381 0.36169 0.0
C124 C 0.88795 0.01896 0.37889 0.0
C125 C 0.87427 0.98108 0.35838 0.0
C126 C 0.01853 0.07779 0.40064 0.0
C127 C 0.99438 0.08656 0.40774 0.0
C128 C 0.05225 0.10632 0.39544 0.0
C129 C 0.00418 0.12376 0.40931 0.0
C130 C 0.06103 0.14317 0.39721 0.0
N131 N 0.037 0.15106 0.40404 0.0
C132 C 0.9433 0.9938 0.42448 0.0
C133 C 0.89447 0.95322 0.40916 0.0
C134 C 0.91799 0.98913 0.4351 0.0
N135 N 0.93113 0.97671 0.41172 0.0
C136 C 0.86812 0.9476 0.41952 0.0
C137 C 0.87981 0.9664 0.43257 0.0
H138 H 0.9727 0.01204 0.42623 0.0
H139 H 0.88559 0.93986 0.39891 0.0
C140 C 0.0194 0.07233 0.35289 0.0
N141 N 0.00305 0.06854 0.36576 0.0
C142 C 0.0206 0.09796 0.34304 0.0
C143 C 0.98784 0.11518 0.35981 0.0
C144 C 0.98741 0.08934 0.36935 0.0
C145 C 0.00444 0.11961 0.34643 0.0
H146 H 0.03103 0.05499 0.35019 0.0
H147 H 0.97417 0.0857 0.37953 0.0
O148 O 0.99573 0.96205 0.39852 0.0
O149 O 0.03548 0.0138 0.37271 0.0
O150 O 0.95224 0.98287 0.37722 0.0
O151 O 0.0093 0.04149 0.39891 0.0
H152 H 0.00973 0.92781 0.41909 0.0
H153 H 0.92848 0.91642 0.38814 0.0
H154 H 0.96638 0.86348 0.42722 0.0
H155 H 0.88664 0.8525 0.39682 0.0
H156 H 0.15384 0.1051 0.36376 0.0
H157 H 0.06517 0.97109 0.36877 0.0
H158 H 0.08784 0.08396 0.36903 0.0
H159 H 0.13147 0.99413 0.36334 0.0
H160 H 0.00626 0.86042 0.365 0.0
H161 H 0.94848 0.88989 0.33411 0.0
H162 H 0.14137 0.08899 0.42655 0.0
H163 H 0.13088 0.98704 0.41019 0.0
H164 H 0.933 0.02496 0.39196 0.0
H165 H 0.90803 0.95606 0.35485 0.0
H166 H 0.88197 0.03659 0.38552 0.0
H167 H 0.85752 0.96903 0.34898 0.0
H168 H 0.96823 0.06495 0.41192 0.0
H169 H 0.07144 0.10008 0.39011 0.0
H170 H 0.98566 0.13092 0.41471 0.0
H171 H 0.08698 0.1655 0.39317 0.0
H172 H 0.92813 0.00368 0.4451 0.0
H173 H 0.83892 0.93002 0.41713 0.0
H174 H 0.03323 0.10016 0.33276 0.0
H175 H 0.97534 0.13155 0.3629 0.0
Li176 Li 0.02095 0.9873 0.70903 0.0
Li177 Li 0.02025 0.02962 0.72675 0.0
Li178 Li 0.97374 0.96326 0.72752 0.0
Li179 Li 0.97079 0.0027 0.70926 0.0
C180 C 0.03752 0.96052 0.73331 0.0
N181 N 0.05532 0.90692 0.74045 0.0
C182 C 0.06212 0.96671 0.74446 0.0
C183 C 0.02199 0.9271 0.72578 0.0
C184 C 0.07077 0.93926 0.74791 0.0
C185 C 0.03133 0.90034 0.72956 0.0
C186 C 0.04612 0.07159 0.70175 0.0
C187 C 0.05434 0.13191 0.69635 0.0
N188 N 0.09073 0.14452 0.69341 0.0
C189 C 0.08343 0.08497 0.69842 0.0
C190 C 0.0313 0.09507 0.7005 0.0
C191 C 0.1056 0.12199 0.69433 0.0
C192 C 0.04031 0.96004 0.685 0.0
N193 N 0.05302 0.97914 0.69736 0.0
C194 C 0.11447 0.9916 0.69246 0.0
C195 C 0.08914 0.99449 0.70131 0.0
C196 C 0.10241 0.97259 0.67946 0.0
C197 C 0.06463 0.95625 0.67586 0.0
H198 H 0.01143 0.94836 0.68214 0.0
H199 H 0.09842 0.00983 0.71117 0.0
C200 C 0.03812 0.07951 0.74987 0.0
N201 N 0.05184 0.07107 0.73824 0.0
C202 C 0.0619 0.10803 0.759 0.0
C203 C 0.1135 0.11837 0.74407 0.0
C204 C 0.08876 0.08952 0.7353 0.0
C205 C 0.10016 0.12776 0.75616 0.0
H206 H 0.00887 0.06346 0.75231 0.0
H207 H 0.09916 0.081 0.72642 0.0
C208 C 0.93042 0.92711 0.70348 0.0
N209 N 0.85772 0.87576 0.69681 0.0
C210 C 0.9013 0.92503 0.71159 0.0
C211 C 0.92255 0.903 0.69199 0.0
C212 C 0.86475 0.89891 0.70805 0.0
C213 C 0.88562 0.87725 0.68879 0.0
C214 C 0.94579 0.02209 0.73389 0.0
C215 C 0.91146 0.00093 0.74059 0.0
C216 C 0.95891 0.0596 0.73109 0.0
C217 C 0.89054 0.01756 0.74415 0.0
C218 C 0.93718 0.07522 0.73482 0.0
N219 N 0.90371 0.05404 0.7412 0.0
C220 C 0.94087 0.93373 0.7535 0.0
C221 C 0.92898 0.88761 0.7362 0.0
C222 C 0.9176 0.90676 0.76319 0.0
N223 N 0.94549 0.9238 0.74025 0.0
C224 C 0.90525 0.85969 0.74553 0.0
C225 C 0.89889 0.86923 0.75915 0.0
H226 H 0.95446 0.96278 0.75639 0.0
H227 H 0.93344 0.88048 0.72562 0.0
C228 C 0.95134 0.02128 0.68346 0.0
N229 N 0.93911 0.01059 0.69697 0.0
C230 C 0.92863 0.02488 0.67343 0.0
C231 C 0.8812 0.00658 0.69143 0.0
C232 C 0.9048 0.00331 0.70109 0.0
C233 C 0.89292 0.01721 0.67736 0.0
H234 H 0.97858 0.0264 0.68043 0.0
H235 H 0.89514 0.99382 0.71173 0.0
O236 O 0.02885 0.98722 0.72986 0.0
O237 O 0.02398 0.03533 0.7057 0.0
O238 O 0.96648 0.95262 0.70668 0.0
O239 O 0.96647 0.00611 0.73023 0.0
H240 H 0.07439 0.99248 0.75038 0.0
H241 H 0.00297 0.9218 0.7171 0.0
H242 H 0.08977 0.94366 0.75652 0.0
H243 H 0.0195 0.87434 0.72382 0.0
H244 H 0.04325 0.15042 0.69541 0.0
H245 H 0.09523 0.06703 0.69911 0.0
H246 H 0.00222 0.08491 0.70255 0.0
H247 H 0.13461 0.1328 0.69186 0.0
H248 H 0.14338 0.00516 0.69559 0.0
H249 H 0.05401 0.94094 0.66604 0.0
H250 H 0.05055 0.11432 0.76825 0.0
H251 H 0.14291 0.13223 0.74172 0.0
H252 H 0.90684 0.9433 0.72054 0.0
H253 H 0.94473 0.90416 0.68561 0.0
H254 H 0.84199 0.89706 0.71425 0.0
H255 H 0.87913 0.85844 0.67992 0.0
H256 H 0.90094 0.9719 0.74293 0.0
H257 H 0.98578 0.07657 0.72626 0.0
H258 H 0.86384 0.00146 0.74926 0.0
H259 H 0.947 0.10422 0.73269 0.0
H260 H 0.91316 0.91532 0.77353 0.0
H261 H 0.89164 0.83101 0.74208 0.0
H262 H 0.93882 0.03335 0.66272 0.0
H263 H 0.8536 -0.00037 0.69484 0.0
C264 C 0.96775 0.37699 0.24182 0.0
C265 C 0.99698 0.38576 0.25137 0.0
C266 C 0.96746 0.40475 0.23356 0.0
C267 C 0.99645 0.44166 0.23471 0.0
C268 C 0.0256 0.42285 0.25265 0.0
C269 C 0.02517 0.45058 0.24447 0.0
C270 C 0.99691 0.47136 0.226 0.0
C271 C 0.01205 0.39518 0.19621 0.0
C272 C 0.98546 0.38034 0.18531 0.0
C273 C 0.01526 0.42438 0.2046 0.0
C274 C 0.99129 0.43859 0.20245 0.0
C275 C 0.96202 0.39507 0.183 0.0
C276 C 0.96495 0.42393 0.19149 0.0
C277 C 0.99435 0.46983 0.21103 0.0
C278 C 0.03489 0.62565 0.19579 0.0
C279 C 0.0115 0.61837 0.18399 0.0
C280 C 0.03039 0.59676 0.20465 0.0
C281 C 0.0021 0.56015 0.20199 0.0
C282 C 0.98327 0.58167 0.18135 0.0
C283 C 0.97876 0.55285 0.19023 0.0
C284 C -0.00179 0.52899 0.21081 0.0
C285 C 0.97049 0.59731 0.23969 0.0
C286 C 0.99323 0.61187 0.25175 0.0
C287 C 0.97255 0.5709 0.23118 0.0
C288 C -0.00206 0.55902 0.23438 0.0
C289 C 0.01832 0.59958 0.25502 0.0
C290 C 0.02056 0.57337 0.24644 0.0
C291 C -0.00079 0.5298 0.22582 0.0
H292 H 0.94536 0.34863 0.24061 0.0
H293 H 0.94467 0.39742 0.22627 0.0
H294 H 0.04814 0.43048 0.2601 0.0
H295 H 0.04757 0.47898 0.24561 0.0
H296 H 0.0309 0.38476 0.19804 0.0
H297 H 0.03679 0.43612 0.21262 0.0
H298 H 0.94119 0.38403 0.17471 0.0
H299 H 0.9464 0.43467 0.18954 0.0
H300 H 0.05727 0.65352 0.19795 0.0
H301 H 0.04952 0.60297 0.2134 0.0
H302 H 0.96455 0.57523 0.17244 0.0
H303 H 0.95693 0.52479 0.18791 0.0
H304 H 0.95103 0.6063 0.2368 0.0
H305 H 0.95384 0.55938 0.22223 0.0
H306 H 0.03574 0.60964 0.26438 0.0
H307 H 0.03992 0.56418 0.24926 0.0
N308 N -0.00086 0.50121 0.23281 0.0
N309 N 0.99523 0.49879 0.20404 0.0
C310 C 0.61769 0.01173 0.53001 0.0
C311 C 0.60666 0.98316 0.51991 0.0
C312 C 0.59125 0.01623 0.5375 0.0
C313 C 0.55321 0.99172 0.5353 0.0
C314 C 0.56853 0.95943 0.51741 0.0
C315 C 0.54211 0.96373 0.52502 0.0
C316 C 0.52477 0.99536 0.54342 0.0
C317 C 0.59029 0.97067 0.57522 0.0
C318 C 0.61098 0.00066 0.58448 0.0
C319 C 0.56229 0.96982 0.56676 0.0
C320 C 0.55465 -0.00095 0.56735 0.0
C321 C 0.60282 0.02962 0.58513 0.0
C322 C 0.57473 0.02864 0.57672 0.0
C323 C 0.52562 -0.00097 0.55834 0.0
C324 C 0.37427 0.97544 0.57151 0.0
C325 C 0.38323 0.9982 0.58359 0.0
C326 C 0.40232 0.97712 0.56283 0.0
C327 C 0.43982 0.00217 0.5659 0.0
C328 C 0.4207 0.02329 0.58663 0.0
C329 C 0.4487 0.0252 0.57788 0.0
C330 C 0.46997 0.00213 0.55756 0.0
C331 C 0.41198 0.03754 0.52641 0.0
C332 C 0.39558 0.0135 0.5148 0.0
C333 C 0.4357 0.03288 0.53559 0.0
C334 C 0.44311 0.0038 0.53344 0.0
C335 C 0.4031 0.98445 0.51267 0.0
C336 C 0.4268 0.97979 0.52186 0.0
C337 C 0.46985 -0.00015 0.54257 0.0
H338 H 0.64678 0.03042 0.53226 0.0
H339 H 0.60058 0.03882 0.54504 0.0
H340 H 0.55904 0.93768 0.50949 0.0
H341 H 0.51291 0.94488 0.52298 0.0
H342 H 0.59538 0.9476 0.57466 0.0
H343 H 0.54655 0.94634 0.55978 0.0
H344 H 0.61851 0.05337 0.59198 0.0
H345 H 0.56915 0.0514 0.57734 0.0
H346 H 0.34564 0.95541 0.56905 0.0
H347 H 0.39465 0.95801 0.55399 0.0
H348 H 0.42836 0.04134 0.59582 0.0
H349 H 0.4774 0.0445 0.58055 0.0
H350 H 0.40727 0.06058 0.52819 0.0
H351 H 0.44889 0.05252 0.54418 0.0
H352 H 0.39059 0.96522 0.50391 0.0
H353 H 0.43235 0.95735 0.51993 0.0
N354 N 0.49694 0.99599 0.53611 0.0
N355 N 0.4982 0.00219 0.56483 0.0
C356 C 0.39583 0.37941 0.86058 0.0
C357 C 0.37871 0.39131 0.85067 0.0
C358 C 0.42435 0.4051 0.86931 0.0
C359 C 0.43568 0.44302 0.86846 0.0
C360 C 0.39046 0.4293 0.84973 0.0
C361 C 0.41872 0.45489 0.85851 0.0
C362 C 0.46635 0.47094 0.8773 0.0
C363 C 0.37671 0.39558 0.90797 0.0
C364 C 0.38841 0.37885 0.91812 0.0
C365 C 0.40266 0.42437 0.89943 0.0
C366 C 0.44066 0.43627 0.90067 0.0
C367 C 0.42643 0.39106 0.91943 0.0
C368 C 0.45228 0.41951 0.9108 0.0
C369 C 0.4689 0.46755 0.89215 0.0
C370 C 0.58935 0.6198 0.90861 0.0
C371 C 0.60766 0.61112 0.91918 0.0
C372 C 0.56308 0.59207 0.89982 0.0
C373 C 0.55477 0.55513 0.90134 0.0
C374 C 0.59921 0.57405 0.92069 0.0
C375 C 0.57282 0.5463 0.91192 0.0
C376 C 0.52575 0.52537 0.89251 0.0
C377 C 0.61913 0.59346 0.86263 0.0
C378 C 0.61085 0.61194 0.852 0.0
C379 C 0.59097 0.56657 0.87109 0.0
C380 C 0.554 0.55783 0.86918 0.0
C381 C 0.57376 0.60304 0.85009 0.0
C382 C 0.54558 0.57606 0.85855 0.0
C383 C 0.52384 0.52813 0.87764 0.0
H384 H 0.38774 0.35036 0.86136 0.0
H385 H 0.43782 0.39538 0.87657 0.0
H386 H 0.37758 0.43923 0.84226 0.0
H387 H 0.42722 0.48404 0.8576 0.0
H388 H 0.3476 0.38708 0.90691 0.0
H389 H 0.39306 0.43769 0.89204 0.0
H390 H 0.43617 0.37849 0.92712 0.0
H391 H 0.48146 0.42844 0.91204 0.0
H392 H 0.5946 0.64789 0.90736 0.0
H393 H 0.5487 0.59939 0.89202 0.0
H394 H 0.6131 0.56648 0.92862 0.0
H395 H 0.56662 0.51792 0.91333 0.0
H396 H 0.64727 0.59906 0.86417 0.0
H397 H 0.59803 0.55203 0.87891 0.0
H398 H 0.56651 0.61699 0.84208 0.0
H399 H 0.51719 0.56952 0.85682 0.0
N400 N 0.494 0.50108 0.87064 0.0
N401 N 0.49849 0.49499 0.89916 0.0
H402 H 0.95517 0.0909 0.12188 0.0
H403 H 0.95657 0.13788 0.13784 0.0
H404 H 0.97309 0.20918 0.10201 0.0
H405 H 0.9737 0.16325 0.08609 0.0
H406 H 0.01971 0.2472 0.12226 0.0
H407 H 0.88884 0.16213 0.11993 0.0
H408 H 0.83135 0.10142 0.12154 0.0
H409 H 0.85282 0.09371 0.16566 0.0
H410 H 0.91074 0.15418 0.16426 0.0
H411 H 0.9812 0.37618 0.15643 0.0
H412 H 0.97637 0.32617 0.14124 0.0
H413 H 0.97836 0.26625 0.17829 0.0
H414 H 0.98313 0.31628 0.19358 0.0
H415 H 0.92246 0.22211 0.15809 0.0
H416 H 0.05358 0.30861 0.15995 0.0
H417 H 0.10994 0.37011 0.15794 0.0
H418 H 0.08609 0.37564 0.11392 0.0
H419 H 0.02925 0.31437 0.11573 0.0
C420 C 0.95922 0.11663 0.11739 0.0
C421 C 0.96438 0.12329 0.10269 0.0
C422 C 0.95958 0.1433 0.12652 0.0
C423 C 0.96459 0.17694 0.12111 0.0
C424 C 0.96911 0.18339 0.10642 0.0
C425 C 0.96903 0.15689 0.09731 0.0
C426 C 0.96681 0.20614 0.13079 0.0
C427 C -0.00185 0.24178 0.12994 0.0
C428 C 0.93915 0.19888 0.14108 0.0
C429 C 0.90433 0.16251 0.14195 0.0
C430 C 0.88147 0.14735 0.12995 0.0
C431 C 0.84877 0.11301 0.13083 0.0
C432 C 0.83849 0.09367 0.14368 0.0
C433 C 0.86085 0.10869 0.1557 0.0
C434 C 0.8936 0.14301 0.15487 0.0
C435 C 0.98041 0.35224 0.16133 0.0
C436 C 0.98257 0.35005 0.17616 0.0
C437 C 0.97783 0.32384 0.15266 0.0
C438 C 0.9772 0.29269 0.15867 0.0
C439 C 0.97885 0.29014 0.17348 0.0
C440 C 0.98182 0.31877 0.18217 0.0
C441 C 0.97512 0.26298 0.14942 0.0
C442 C 0.94392 0.22734 0.15038 0.0
C443 C 0.00272 0.27026 0.13915 0.0
C444 C 0.03696 0.30706 0.13802 0.0
C445 C 0.06017 0.32308 0.14988 0.0
C446 C 0.09224 0.35787 0.14877 0.0
C447 C 0.10154 0.37682 0.13582 0.0
C448 C 0.07882 0.36096 0.12395 0.0
C449 C 0.04669 0.32618 0.12501 0.0
H450 H 0.12638 0.40374 0.13498 0.0
H451 H 0.81316 0.06709 0.14435 0.0
H452 H 0.81615 0.90476 0.44157 0.0
H453 H 0.76951 0.90259 0.45805 0.0
H454 H 0.83465 0.02138 0.46347 0.0
H455 H 0.88138 0.02361 0.44721 0.0
H456 H 0.80746 0.98945 0.48817 0.0
H457 H 0.75912 0.98045 0.44089 0.0
H458 H 0.73946 0.9535 0.41696 0.0
H459 H 0.65795 0.84987 0.43526 0.0
H460 H 0.67749 0.87608 0.45933 0.0
H461 H 0.67342 0.03725 0.50938 0.0
H462 H 0.71963 0.02913 0.49638 0.0
H463 H 0.64961 0.91025 0.49892 0.0
H464 H 0.6036 0.91801 0.51234 0.0
H465 H 0.67737 0.93602 0.47162 0.0
H466 H 0.72287 0.94936 0.51924 0.0
H467 H 0.74227 0.97917 0.54275 0.0
H468 H 0.82923 0.07782 0.52332 0.0
H469 H 0.81 0.04883 0.49966 0.0
C470 C 0.82049 0.93034 0.44632 0.0
C471 C 0.85236 0.96434 0.4431 0.0
C472 C 0.79387 0.92909 0.45572 0.0
C473 C 0.7984 0.9619 0.46187 0.0
C474 C 0.83063 0.99571 0.45891 0.0
C475 C 0.85734 0.99693 0.44962 0.0
C476 C 0.76916 0.96149 0.47101 0.0
C477 C 0.77908 0.97797 0.48451 0.0
C478 C 0.73192 0.94584 0.46636 0.0
C479 C 0.72006 0.93008 0.4519 0.0
C480 C 0.7372 0.95182 0.43981 0.0
C481 C 0.72605 0.9367 0.42622 0.0
C482 C 0.69755 0.89996 0.42459 0.0
C483 C 0.68007 0.8783 0.43654 0.0
C484 C 0.69116 0.89327 0.45016 0.0
C485 C 0.66802 0.00935 0.50739 0.0
C486 C 0.63479 0.97828 0.51195 0.0
C487 C 0.69441 0.00478 0.4999 0.0
C488 C 0.68809 0.9691 0.49681 0.0
C489 C 0.65493 0.93801 0.50122 0.0
C490 C 0.6286 0.94254 0.50881 0.0
C491 C 0.71587 0.96444 0.48864 0.0
C492 C 0.70565 0.94704 0.47533 0.0
C493 C 0.75289 0.9796 0.49341 0.0
C494 C 0.76479 0.997 0.50765 0.0
C495 C 0.74596 0.97751 0.51996 0.0
C496 C 0.75695 0.99425 0.53332 0.0
C497 C 0.78691 0.03039 0.53452 0.0
C498 C 0.80601 0.04983 0.52237 0.0
C499 C 0.7951 0.03325 0.50898 0.0
H500 H 0.79535 0.0433 0.54486 0.0
H501 H 0.68895 0.8883 0.41406 0.0
H502 H 0.82972 0.81289 0.75236 0.0
H503 H 0.78201 0.76888 0.76854 0.0
H504 H 0.85714 0.81763 0.80388 0.0
H505 H 0.90531 0.86146 0.78771 0.0
H506 H 0.81714 0.74061 0.80499 0.0
H507 H 0.79398 0.84146 0.79868 0.0
H508 H 0.78379 0.8861 0.78501 0.0
H509 H 0.68606 0.7963 0.76614 0.0
H510 H 0.69601 0.75106 0.77954 0.0
H511 H 0.68117 0.66531 0.8596 0.0
H512 H 0.73109 0.70877 0.84402 0.0
H513 H 0.658 0.66478 0.80786 0.0
H514 H 0.60809 0.6209 0.82332 0.0
H515 H 0.69791 0.74044 0.80762 0.0
H516 H 0.72163 0.63954 0.81376 0.0
H517 H 0.73198 0.59503 0.82745 0.0
H518 H 0.82869 0.6851 0.84675 0.0
H519 H 0.8186 0.7302 0.83332 0.0
C520 C 0.83631 0.81382 0.76354 0.0
C521 C 0.8712 0.84066 0.76879 0.0
C522 C 0.80894 0.78889 0.77277 0.0
C523 C 0.81596 0.79037 0.78741 0.0
C524 C 0.85119 0.81619 0.79262 0.0
C525 C 0.87854 0.84129 0.7834 0.0
C526 C 0.78609 0.76571 0.7973 0.0
C527 C 0.79125 0.74087 0.80572 0.0
C528 C 0.75213 0.76573 0.79803 0.0
C529 C 0.74596 0.79286 0.79 0.0
C530 C 0.77049 0.83121 0.79152 0.0
C531 C 0.76473 0.85663 0.78384 0.0
C532 C 0.73435 0.84404 0.77468 0.0
C533 C 0.70962 0.806 0.77322 0.0
C534 C 0.71529 0.78046 0.78086 0.0
C535 C 0.67578 0.66473 0.84832 0.0
C536 C 0.6407 0.63952 0.84269 0.0
C537 C 0.7043 0.68963 0.83945 0.0
C538 C 0.69831 0.68969 0.82478 0.0
C539 C 0.66314 0.66518 0.81916 0.0
C540 C 0.63462 0.64023 0.82802 0.0
C541 C 0.72881 0.71511 0.81525 0.0
C542 C 0.7238 0.74017 0.80691 0.0
C543 C 0.7629 0.7153 0.8146 0.0
C544 C 0.76913 0.68825 0.82264 0.0
C545 C 0.74493 0.64987 0.82101 0.0
C546 C 0.75078 0.62453 0.82871 0.0
C547 C 0.78091 0.63723 0.838 0.0
C548 C 0.80533 0.6753 0.83957 0.0
C549 C 0.79957 0.70076 0.83191 0.0
H550 H 0.7854 0.61757 0.84395 0.0
H551 H 0.72993 0.86376 0.76874 0.0
H552 H 0.0241 0.83012 0.08222 0.0
H553 H 0.02606 0.78518 0.09842 0.0
H554 H 0.04711 0.85974 0.1336 0.0
H555 H 0.04594 0.90512 0.11736 0.0
H556 H 0.08678 0.82577 0.13636 0.0
H557 H 0.95955 0.78812 0.12669 0.0
H558 H 0.90517 0.77193 0.11155 0.0
H559 H 0.91292 0.68117 0.09357 0.0
H560 H 0.96772 0.69717 0.10847 0.0
H561 H 0.02612 0.6883 0.19103 0.0
H562 H 0.03393 0.73782 0.1749 0.0
H563 H 0.01684 0.66656 0.13897 0.0
H564 H 0.00918 0.61707 0.155 0.0
H565 H 0.97572 0.69966 0.13693 0.0
H566 H 0.10315 0.73758 0.14735 0.0
H567 H 0.15684 0.75424 0.16296 0.0
H568 H 0.14742 0.84466 0.1803 0.0
H569 H 0.09334 0.82822 0.16491 0.0
C570 C 0.02942 0.83698 0.0934 0.0
C571 C 0.03455 0.87089 0.09858 0.0
C572 C 0.03049 0.81132 0.10264 0.0
C573 C 0.03597 0.81882 0.11726 0.0
C574 C 0.04274 0.85336 0.12236 0.0
C575 C 0.04209 0.87925 0.11309 0.0
C576 C 0.03284 0.78992 0.12728 0.0
C577 C 0.06234 0.79832 0.13661 0.0
C578 C 0.00111 0.75397 0.12748 0.0
C579 C 0.96794 0.74406 0.1186 0.0
C580 C 0.9498 0.76486 0.11944 0.0
C581 C 0.91889 0.7557 0.11091 0.0
C582 C 0.90565 0.72559 0.10158 0.0
C583 C 0.92324 0.70451 0.10079 0.0
C584 C 0.95421 0.7136 0.10929 0.0
C585 C 0.02444 0.68335 0.17969 0.0
C586 C 0.01692 0.64875 0.17428 0.0
C587 C 0.02891 0.71165 0.17049 0.0
C588 C 0.02624 0.70593 0.15574 0.0
C589 C 0.0189 0.6715 0.15032 0.0
C590 C 0.01437 0.64321 0.1595 0.0
C591 C 0.02981 0.73533 0.14591 0.0
C592 C 0.00023 0.72707 0.13666 0.0
C593 C 0.06133 0.77141 0.14588 0.0
C594 C 0.09398 0.78145 0.15507 0.0
C595 C 0.11235 0.76084 0.15457 0.0
C596 C 0.14289 0.77028 0.16336 0.0
C597 C 0.15547 0.80043 0.17264 0.0
C598 C 0.13761 0.82128 0.17312 0.0
C599 C 0.10704 0.81194 0.16435 0.0
H600 H 0.17911 0.80768 0.17944 0.0
H601 H 0.88172 0.71854 0.09498 0.0
H602 H 0.19983 0.03099 0.41205 0.0
H603 H 0.24683 0.03177 0.42789 0.0
H604 H 0.19776 0.05737 0.46337 0.0
H605 H 0.15107 0.05718 0.44752 0.0
H606 H 0.27179 0.09484 0.46539 0.0
H607 H 0.17737 0.96839 0.45677 0.0
H608 H 0.13688 0.91392 0.442 0.0
H609 H 0.2326 0.91616 0.42378 0.0
H610 H 0.27369 0.97102 0.4383 0.0
H611 H 0.3419 0.03102 0.52107 0.0
H612 H 0.30203 0.04018 0.50443 0.0
H613 H 0.35448 0.01778 0.46928 0.0
H614 H 0.39458 0.00883 0.48582 0.0
H615 H 0.27998 0.97993 0.46689 0.0
H616 H 0.37438 0.10582 0.4766 0.0
H617 H 0.41376 0.15963 0.49184 0.0
H618 H 0.31681 0.15742 0.50872 0.0
H619 H 0.2768 0.10324 0.49372 0.0
C620 C 0.19931 0.03709 0.42321 0.0
C621 C 0.17167 0.04374 0.42859 0.0
C622 C 0.2261 0.03749 0.43224 0.0
C623 C 0.22534 0.04392 0.44685 0.0
C624 C 0.19882 0.05228 0.45213 0.0
C625 C 0.17221 0.05223 0.44307 0.0
C626 C 0.25089 0.03998 0.45674 0.0
C627 C 0.27335 0.0696 0.46582 0.0
C628 C 0.25326 0.00722 0.45716 0.0
C629 C 0.2286 0.97403 0.44851 0.0
C630 C 0.18979 0.95742 0.44954 0.0
C631 C 0.16673 0.92646 0.44123 0.0
C632 C 0.18216 0.91165 0.43194 0.0
C633 C 0.22069 0.9277 0.43097 0.0
C634 C 0.24387 0.95872 0.43924 0.0
C635 C 0.3452 0.02843 0.50979 0.0
C636 C 0.37137 0.01917 0.50476 0.0
C637 C 0.3224 0.03366 0.5003 0.0
C638 C 0.32556 0.03 0.48561 0.0
C639 C 0.35158 0.02068 0.48057 0.0
C640 C 0.37433 0.01541 0.49005 0.0
C641 C 0.30103 0.03484 0.4755 0.0
C642 C 0.27861 0.00528 0.46641 0.0
C643 C 0.29856 0.06754 0.47516 0.0
C644 C 0.32258 0.10025 0.48413 0.0
C645 C 0.36144 0.11663 0.48364 0.0
C646 C 0.38388 0.14723 0.49222 0.0
C647 C 0.36779 0.16188 0.50127 0.0
C648 C 0.32923 0.14602 0.50172 0.0
C649 C 0.30666 0.11539 0.49317 0.0
H650 H 0.38521 0.18557 0.5079 0.0
H651 H 0.16426 0.88767 0.42551 0.0
H652 H 0.15904 0.19587 0.74966 0.0
H653 H 0.20484 0.24147 0.76603 0.0
H654 H 0.14666 0.17006 0.80145 0.0
H655 H 0.10059 0.12453 0.78514 0.0
H656 H 0.16952 0.2407 0.80793 0.0
H657 H 0.2243 0.17361 0.78776 0.0
H658 H 0.2445 0.14766 0.76846 0.0
H659 H 0.31762 0.25744 0.75265 0.0
H660 H 0.29743 0.28403 0.77175 0.0
H661 H 0.31914 0.32393 0.85762 0.0
H662 H 0.27029 0.2797 0.84173 0.0
H663 H 0.32267 0.35382 0.8064 0.0
H664 H 0.37178 0.39785 0.82217 0.0
H665 H 0.3025 0.28151 0.80017 0.0
H666 H 0.24723 0.34809 0.82097 0.0
H667 H 0.22696 0.37284 0.84068 0.0
H668 H 0.15496 0.26219 0.85593 0.0
H669 H 0.1752 0.2368 0.83642 0.0
C670 C 0.15601 0.18996 0.76094 0.0
C671 C 0.12638 0.15657 0.76612 0.0
C672 C 0.18217 0.21599 0.77027 0.0
C673 C 0.17949 0.20887 0.78493 0.0
C674 C 0.14927 0.1761 0.79017 0.0
C675 C 0.12294 0.15016 0.78085 0.0
C676 C 0.20878 0.23509 0.79475 0.0
C677 C 0.19855 0.24928 0.80634 0.0
C678 C 0.24671 0.24667 0.79255 0.0
C679 C 0.25908 0.23078 0.78111 0.0
C680 C 0.24448 0.1922 0.78011 0.0
C681 C 0.25596 0.17738 0.76922 0.0
C682 C 0.28226 0.20088 0.75932 0.0
C683 C 0.29721 0.23926 0.76032 0.0
C684 C 0.28578 0.25423 0.77118 0.0
C685 C 0.3203 0.33065 0.84645 0.0
C686 C 0.34916 0.36436 0.84113 0.0
C687 C 0.29228 0.30554 0.83742 0.0
C688 C 0.29275 0.3137 0.82293 0.0
C689 C 0.32177 0.3471 0.81757 0.0
C690 C 0.34963 0.3723 0.82659 0.0
C691 C 0.26325 0.28724 0.81328 0.0
C692 C 0.27346 0.27294 0.80175 0.0
C693 C 0.22533 0.27538 0.8156 0.0
C694 C 0.21302 0.29058 0.82732 0.0
C695 C 0.22731 0.32905 0.8286 0.0
C696 C 0.21578 0.34319 0.83972 0.0
C697 C 0.18976 0.31911 0.84958 0.0
C698 C 0.17515 0.28082 0.8483 0.0
C699 C 0.18662 0.26654 0.83721 0.0
H700 H 0.18087 0.33011 0.85818 0.0
H701 H 0.29111 0.18934 0.75089 0.0
H702 H 0.84631 0.04511 0.68088 0.0
H703 H 0.80029 0.04252 0.66409 0.0
H704 H 0.8354 0.98999 0.63311 0.0
H705 H 0.88139 0.99224 0.64989 0.0
H706 H 0.82231 0.04243 0.62104 0.0
H707 H 0.75951 0.93788 0.65208 0.0
H708 H 0.74062 0.90597 0.67521 0.0
H709 H 0.68734 0.96833 0.68601 0.0
H710 H 0.70641 0.00105 0.66303 0.0
H711 H 0.66186 0.97975 0.57736 0.0
H712 H 0.71093 0.98191 0.59231 0.0
H713 H 0.67779 0.02784 0.62664 0.0
H714 H 0.62756 0.02394 0.61205 0.0
H715 H 0.69045 0.97599 0.63627 0.0
H716 H 0.7552 0.08199 0.60527 0.0
H717 H 0.77418 0.11343 0.58205 0.0
H718 H 0.8235 0.04756 0.57095 0.0
H719 H 0.80437 0.01539 0.59405 0.0
C720 C 0.84425 0.03301 0.6705 0.0
C721 C 0.86726 0.01859 0.66676 0.0
C722 C 0.81803 0.03164 0.6609 0.0
C723 C 0.81412 0.01557 0.64744 0.0
C724 C 0.838 0.00247 0.64345 0.0
C725 C 0.86431 0.00388 0.65304 0.0
C726 C 0.78409 0.01114 0.63778 0.0
C727 C 0.79341 0.02752 0.62428 0.0
C728 C 0.74648 0.99201 0.6421 0.0
C729 C 0.73468 0.97215 0.65588 0.0
C730 C 0.74399 0.94499 0.65943 0.0
C731 C 0.73323 0.92673 0.67251 0.0
C732 C 0.71287 0.93518 0.68209 0.0
C733 C 0.70315 0.96185 0.67859 0.0
C734 C 0.7139 0.98023 0.66553 0.0
C735 C 0.66473 0.98989 0.58815 0.0
C736 C 0.64084 0.00181 0.59349 0.0
C737 C 0.69309 0.99153 0.59663 0.0
C738 C 0.69839 0.00557 0.61052 0.0
C739 C 0.67434 0.01708 0.61592 0.0
C740 C 0.64585 0.01518 0.60751 0.0
C741 C 0.72863 0.00792 0.6196 0.0
C742 C 0.71932 0.99092 0.633 0.0
C743 C 0.76619 0.02643 0.61515 0.0
C744 C 0.77804 0.04604 0.60133 0.0
C745 C 0.76987 0.07405 0.59784 0.0
C746 C 0.78069 0.09202 0.58471 0.0
C747 C 0.79994 0.08242 0.57501 0.0
C748 C 0.80853 0.05492 0.57846 0.0
C749 C 0.79775 0.03684 0.59157 0.0
H750 H 0.80827 0.09636 0.56485 0.0
H751 H 0.70456 0.92102 0.69221 0.0
H752 H 0.85348 0.90196 0.98565 0.0
H753 H 0.8084 0.85421 0.96976 0.0
H754 H 0.76947 0.77528 0.0042 0.0
H755 H 0.81543 0.82246 0.02002 0.0
H756 H 0.78065 0.74593 0.98092 0.0
H757 H 0.71816 0.81319 0.992 0.0
H758 H 0.71133 0.8685 0.99434 0.0
H759 H 0.72966 0.88888 0.94954 0.0
H760 H 0.73711 0.83396 0.94696 0.0
H761 H 0.61628 0.60634 0.94779 0.0
H762 H 0.66029 0.65493 0.96367 0.0
H763 H 0.70362 0.73117 0.92844 0.0
H764 H 0.66015 0.6825 0.9124 0.0
H765 H 0.68999 0.76195 0.95198 0.0
H766 H 0.75252 0.69442 0.94108 0.0
H767 H 0.75878 0.63876 0.93887 0.0
H768 H 0.73963 0.61856 0.98364 0.0
H769 H 0.73272 0.67384 0.98608 0.0
C770 C 0.83536 0.87442 0.98984 0.0
C771 C 0.83805 0.86601 0.00411 0.0
C772 C 0.80937 0.84726 0.98078 0.0
C773 C 0.78536 0.81127 0.98583 0.0
C774 C 0.78768 0.80291 0.0001 0.0
C775 C 0.81371 0.83002 0.00916 0.0
C776 C 0.75878 0.78194 0.97611 0.0
C777 C 0.76045 0.74921 0.97475 0.0
C778 C 0.73308 0.78664 0.9678 0.0
C779 C 0.72856 0.81966 0.96931 0.0
C780 C 0.72104 0.82964 0.98266 0.0
C781 C 0.717 0.86089 0.98403 0.0
C782 C 0.72015 0.88225 0.9721 0.0
C783 C 0.72727 0.87234 0.95878 0.0
C784 C 0.73137 0.84113 0.95735 0.0
C785 C 0.63551 0.63327 0.94337 0.0
C786 C 0.63478 0.64049 0.92881 0.0
C787 C 0.66052 0.66105 0.95247 0.0
C788 C 0.68533 0.69654 0.9472 0.0
C789 C 0.6846 0.70396 0.93271 0.0
C790 C 0.65967 0.67615 0.92358 0.0
C791 C 0.71184 0.726 0.95686 0.0
C792 C 0.71019 0.75872 0.95818 0.0
C793 C 0.73749 0.72127 0.96517 0.0
C794 C 0.74173 0.68807 0.96373 0.0
C795 C 0.74933 0.67794 0.95043 0.0
C796 C 0.75306 0.64649 0.94914 0.0
C797 C 0.74951 0.62508 0.9611 0.0
C798 C 0.74232 0.63514 0.97438 0.0
C799 C 0.73853 0.66654 0.97573 0.0
H800 H 0.75241 0.60075 0.96007 0.0
H801 H 0.71701 0.90643 0.97318 0.0
H802 H 0.9189 0.8195 0.33244 0.0
H803 H 0.91964 0.77514 0.31543 0.0
H804 H 0.03565 0.81726 0.32431 0.0
H805 H 0.03512 0.86161 0.34127 0.0
H806 H 0.01835 0.80988 0.29512 0.0
H807 H 0.97524 0.73829 0.3384 0.0
H808 H 0.93372 0.71156 0.35905 0.0
H809 H 0.84042 0.65258 0.33118 0.0
H810 H 0.88134 0.67942 0.31035 0.0
H811 H 0.04949 0.67273 0.265 0.0
H812 H 0.04434 0.71633 0.28086 0.0
H813 H 0.92555 0.65758 0.27499 0.0
H814 H 0.93025 0.61266 0.25971 0.0
H815 H 0.94123 0.6737 0.30189 0.0
H816 H 0.98245 0.74188 0.25864 0.0
H817 H 0.02213 0.76876 0.23753 0.0
H818 H 0.11612 0.83456 0.26435 0.0
H819 H 0.0771 0.80766 0.28563 0.0
C820 C 0.94452 0.81926 0.33074 0.0
C821 C 0.9769 0.8438 0.33821 0.0
C822 C 0.94487 0.79388 0.32109 0.0
C823 C 0.97767 0.79291 0.31869 0.0
C824 C 0.01008 0.81761 0.32604 0.0
C825 C 0.00965 0.84267 0.33579 0.0
C826 C 0.97839 0.76621 0.3085 0.0
C827 C 0.00181 0.78009 0.29664 0.0
C828 C 0.95588 0.72743 0.31031 0.0
C829 C 0.93128 0.71119 0.32282 0.0
C830 C 0.94582 0.71989 0.33668 0.0
C831 C 0.92241 0.70466 0.34841 0.0
C832 C 0.88444 0.68047 0.34643 0.0
C833 C 0.86982 0.67138 0.3327 0.0
C834 C 0.89312 0.68657 0.32092 0.0
C835 C 0.02221 0.66885 0.26717 0.0
C836 C 0.99029 0.63918 0.26105 0.0
C837 C 0.01936 0.6941 0.27611 0.0
C838 C 0.9846 0.69057 0.27895 0.0
C839 C 0.95268 0.66097 0.27289 0.0
C840 C 0.95547 0.63552 0.26404 0.0
C841 C 0.98155 0.71729 0.28851 0.0
C842 C 0.95765 0.70346 0.30026 0.0
C843 C 0.00333 0.75615 0.28651 0.0
C844 C 0.0269 0.77249 0.27373 0.0
C845 C 0.01164 0.76187 0.26004 0.0
C846 C 0.03401 0.77715 0.24804 0.0
C847 C 0.07164 0.80329 0.2496 0.0
C848 C 0.08697 0.81427 0.26316 0.0
C849 C 0.06473 0.79905 0.27519 0.0
H850 H 0.08891 0.81508 0.2403 0.0
H851 H 0.86636 0.6687 0.35553 0.0
H852 H 0.10434 0.9788 0.65046 0.0
H853 H 0.15053 0.97985 0.63418 0.0
H854 H 0.20863 0.96606 0.66946 0.0
H855 H 0.16202 0.964 0.68583 0.0
H856 H 0.25466 0.02369 0.65155 0.0
H857 H 0.16061 0.89522 0.64774 0.0
H858 H 0.09731 0.84291 0.64373 0.0
H859 H 0.09805 0.88189 0.60145 0.0
H860 H 0.1612 0.93477 0.60527 0.0
H861 H 0.38192 0.99343 0.61246 0.0
H862 H 0.33311 0.98717 0.62858 0.0
H863 H 0.26905 0.98893 0.59284 0.0
H864 H 0.31767 0.99453 0.57662 0.0
H865 H 0.22553 0.93704 0.61103 0.0
H866 H 0.31797 0.06561 0.61451 0.0
H867 H 0.38071 0.11919 0.61819 0.0
H868 H 0.38237 0.08212 0.6606 0.0
H869 H 0.31981 0.028 0.65711 0.0
C870 C 0.12649 0.97522 0.65476 0.0
C871 C 0.12942 0.97128 0.66948 0.0
C872 C 0.15296 0.97601 0.64543 0.0
C873 C 0.18287 0.97289 0.65062 0.0
C874 C 0.18577 0.96862 0.66526 0.0
C875 C 0.15919 0.96761 0.6746 0.0
C876 C 0.21189 0.97549 0.64082 0.0
C877 C 0.24845 0.00443 0.64281 0.0
C878 C 0.20343 0.95101 0.62919 0.0
C879 C 0.1655 0.91916 0.62685 0.0
C880 C 0.14716 0.89282 0.63763 0.0
C881 C 0.11133 0.86303 0.63538 0.0
C882 C 0.09363 0.85913 0.62236 0.0
C883 C 0.11178 0.88497 0.61154 0.0
C884 C 0.1476 0.91484 0.61373 0.0
C885 C 0.35756 0.99279 0.60806 0.0
C886 C 0.35368 0.99477 0.59331 0.0
C887 C 0.32968 0.98921 0.61727 0.0
C888 C 0.29767 0.98816 0.61194 0.0
C889 C 0.29354 0.98972 0.59719 0.0
C890 C 0.32129 0.99293 0.58795 0.0
C891 C 0.26845 0.98525 0.62176 0.0
C892 C 0.23182 0.95631 0.61977 0.0
C893 C 0.27677 0.00995 0.63334 0.0
C894 C 0.31434 0.04256 0.6355 0.0
C895 C 0.33182 0.06873 0.62459 0.0
C896 C 0.36733 0.09922 0.62664 0.0
C897 C 0.38555 0.10401 0.63961 0.0
C898 C 0.36824 0.07835 0.65056 0.0
C899 C 0.33275 0.04778 0.64855 0.0
H900 H 0.41304 0.12764 0.64118 0.0
H901 H 0.06589 0.83605 0.62064 0.0
H902 H 0.18802 0.16796 0.0198 0.0
H903 H 0.23373 0.21291 0.00325 0.0
H904 H 0.17004 0.14443 0.96791 0.0
H905 H 0.12501 0.09877 0.9845 0.0
H906 H 0.24032 0.17195 0.96263 0.0
H907 H 0.16589 0.2228 0.9786 0.0
H908 H 0.13577 0.24317 0.99616 0.0
H909 H 0.2424 0.32344 0.01273 0.0
H910 H 0.27316 0.30318 0.99539 0.0
H911 H 0.32248 0.31771 0.91087 0.0
H912 H 0.27777 0.26923 0.92678 0.0
H913 H 0.34844 0.32548 0.96262 0.0
H914 H 0.39308 0.37399 0.94681 0.0
H915 H 0.27368 0.30395 0.96699 0.0
H916 H 0.34712 0.25137 0.95016 0.0
H917 H 0.3752 0.23081 0.93181 0.0
H918 H 0.26693 0.1537 0.91563 0.0
H919 H 0.23822 0.1742 0.93378 0.0
C920 C 0.18398 0.1625 0.00849 0.0
C921 C 0.15299 0.13012 0.00338 0.0
C922 C 0.20996 0.18821 -0.00095 0.0
C923 C 0.20489 0.18246 0.98432 0.0
C924 C 0.17448 0.14953 0.97922 0.0
C925 C 0.14881 0.12349 0.98869 0.0
C926 C 0.23086 0.21115 0.97424 0.0
C927 C 0.2472 0.20071 0.96347 0.0
C928 C 0.2402 0.2488 0.97541 0.0
C929 C 0.2218 0.26124 0.98578 0.0
C930 C 0.1829 0.24463 0.98605 0.0
C931 C 0.16572 0.25617 0.99596 0.0
C932 C 0.18715 0.28452 0.00557 0.0
C933 C 0.22583 0.30145 0.00528 0.0
C934 C 0.24316 0.28998 0.99541 0.0
C935 C 0.32834 0.31972 0.92215 0.0
C936 C 0.36124 0.34948 0.92762 0.0
C937 C 0.30296 0.29197 0.93119 0.0
C938 C 0.31001 0.29374 0.94584 0.0
C939 C 0.34261 0.32363 0.95133 0.0
C940 C 0.36813 0.35114 0.9423 0.0
C941 C 0.2832 0.26472 0.95552 0.0
C942 C 0.26666 0.27514 0.96616 0.0
C943 C 0.27332 0.22704 0.95411 0.0
C944 C 0.29055 0.2146 0.94323 0.0
C945 C 0.32932 0.23026 0.94262 0.0
C946 C 0.34534 0.21858 0.93226 0.0
C947 C 0.32287 0.19104 0.92253 0.0
C948 C 0.28431 0.17507 0.92316 0.0
C949 C 0.26814 0.18669 0.93348 0.0
H950 H 0.33533 0.18203 0.91453 0.0
H951 H 0.1738 0.29341 0.01324 0.0
H952 H 0.94696 0.131 0.33992 0.0
H953 H 0.94665 0.17506 0.32284 0.0
H954 H 0.06059 0.21162 0.31204 0.0
H955 H 0.06136 0.16809 0.32936 0.0
H956 H 0.04838 0.26965 0.31626 0.0
H957 H 0.99266 0.15602 0.28973 0.0
H958 H 0.94819 0.08983 0.28533 0.0
H959 H 0.85747 0.11103 0.28824 0.0
H960 H 0.90138 0.1773 0.29288 0.0
H961 H 0.05563 0.37508 0.25618 0.0
H962 H 0.05736 0.32841 0.27142 0.0
H963 H 0.94163 0.28398 0.28163 0.0
H964 H 0.93966 0.33037 0.26625 0.0
H965 H 0.95617 0.22934 0.27717 0.0
H966 H 0.01076 0.34181 0.30465 0.0
H967 H 0.05449 0.40798 0.30946 0.0
H968 H 0.14641 0.38897 0.30527 0.0
H969 H 0.10322 0.32275 0.30023 0.0
C970 C 0.97204 0.1486 0.33398 0.0
C971 C 0.00421 0.14613 0.33598 0.0
C972 C 0.9717 0.1735 0.32413 0.0
C973 C 0.00348 0.1963 0.31608 0.0
C974 C 0.03574 0.19413 0.31812 0.0
C975 C 0.03606 0.16912 0.32794 0.0
C976 C 0.00319 0.22293 0.30573 0.0
C977 C 0.02862 0.26083 0.30757 0.0
C978 C 0.97678 0.21138 0.29463 0.0
C979 C 0.95031 0.17157 0.29178 0.0
C980 C 0.96321 0.14652 0.28955 0.0
C981 C 0.93811 0.109 0.28699 0.0
C982 C 0.90002 0.09622 0.28654 0.0
C983 C 0.88697 0.12096 0.28861 0.0
C984 C 0.91196 0.15852 0.29119 0.0
C985 C 0.0306 0.35539 0.26171 0.0
C986 C -0.00242 0.35649 0.26013 0.0
C987 C 0.03161 0.32876 0.2704 0.0
C988 C -0.00022 0.30309 0.27784 0.0
C989 C 0.96653 0.30355 0.276 0.0
C990 C 0.96542 0.33001 0.26721 0.0
C991 C 0.00127 0.27614 0.28773 0.0
C992 C 0.97604 0.23818 0.28582 0.0
C993 C 0.02776 0.28764 0.29882 0.0
C994 C 0.05377 0.32741 0.30192 0.0
C995 C 0.04031 0.3518 0.30465 0.0
C996 C 0.06499 0.3893 0.30743 0.0
C997 C 0.10321 0.40269 0.30763 0.0
C998 C 0.1168 0.37857 0.30509 0.0
C999 C 0.09224 0.34105 0.30228 0.0
H1000 H 0.12227 0.43173 0.30979 0.0
H1001 H 0.88063 0.06716 0.28456 0.0
loop_
_geom_bond_atom_site_label_1
_geom_bond_atom_site_label_2
_geom_bond_distance
_geom_bond_site_symmetry_2
_ccdc_geom_bond_type
Li0 N17 1.990 . S
Li0 O60 1.956 . S
Li0 O61 1.970 1_455 S
Li0 O62 1.961 1_545 S
Li1 N25 1.990 . S
Li1 O60 1.970 1_655 S
Li1 O61 1.956 . S
Li1 O63 1.961 1_545 S
Li2 N47 1.990 . S
Li2 O60 1.961 1_565 S
Li2 O62 1.956 . S
Li2 O63 1.970 1_455 S
Li3 N53 1.990 . S
Li3 O61 1.961 1_565 S
Li3 O62 1.970 1_655 S
Li3 O63 1.956 . S
C4 C6 1.348 . S
C4 C7 1.356 . S
C4 O60 1.325 . S
N5 C8 1.314 . S
N5 C9 1.279 . S
C6 C4 1.348 . S
C6 C8 1.353 . S
C6 H64 0.929 . S
C7 C4 1.356 . S
C7 C9 1.358 . S
C7 H65 0.930 . S
C8 N5 1.314 . S
C8 C6 1.353 . S
C8 H66 0.930 . S
C9 N5 1.279 . S
C9 C7 1.358 . S
C9 H67 0.930 . S
C10 C13 1.348 1_655 S
C10 C14 1.356 . S
C10 O61 1.325 . S
C11 N12 1.279 . S
C11 C14 1.358 . S
C11 H68 0.930 . S
N12 C11 1.279 . S
N12 C15 1.314 . S
C13 C10 1.348 1_455 S
C13 C15 1.353 1_455 S
C13 H69 0.929 . S
C14 C10 1.356 . S
C14 C11 1.358 . S
C14 H70 0.930 . S
C15 N12 1.314 . S
C15 C13 1.353 1_655 S
C15 H71 0.930 1_655 S
C16 N17 1.314 . S
C16 C21 1.353 . S
C16 H22 0.930 . S
N17 Li0 1.990 . S
N17 C16 1.314 . S
N17 C19 1.279 . S
C18 C19 1.358 . S
C18 C20 1.356 . S
C18 H72 0.930 . S
C19 N17 1.279 . S
C19 C18 1.358 . S
C19 H23 0.930 . S
C20 C18 1.356 . S
C20 C21 1.348 . S
C21 C16 1.353 . S
C21 C20 1.348 . S
C21 H73 0.925 1_554 S
H22 C16 0.930 . S
H23 C19 0.930 . S
C24 N25 1.314 . S
C24 C26 1.353 . S
C24 H30 0.930 . S
N25 Li1 1.990 . S
N25 C24 1.314 . S
N25 C28 1.279 . S
C26 C24 1.353 . S
C26 C29 1.348 . S
C26 H74 0.929 . S
C27 C28 1.358 . S
C27 C29 1.356 . S
C27 H75 0.930 . S
C28 N25 1.279 . S
C28 C27 1.358 . S
C28 H31 0.930 . S
C29 C26 1.348 . S
C29 C27 1.356 . S
H30 C24 0.930 . S
H31 C28 0.930 . S
C32 C34 1.348 1_455 S
C32 C35 1.356 . S
C32 O62 1.325 . S
N33 C36 1.314 . S
N33 C37 1.279 . S
C34 C32 1.348 1_655 S
C34 C36 1.353 1_655 S
C34 H76 0.929 . S
C35 C32 1.356 . S
C35 C37 1.358 . S
C35 H77 0.930 . S
C36 N33 1.314 . S
C36 C34 1.353 1_455 S
C36 H78 0.930 1_455 S
C37 N33 1.279 . S
C37 C35 1.358 . S
C37 H79 0.930 . S
C38 C39 1.348 . S
C38 C40 1.356 . S
C38 O63 1.325 . S
C39 C38 1.348 . S
C39 C41 1.353 . S
C39 H80 0.929 . S
C40 C38 1.356 . S
C40 C42 1.358 . S
C40 H81 0.930 . S
C41 C39 1.353 . S
C41 N43 1.314 . S
C41 H82 0.930 . S
C42 C40 1.358 . S
C42 N43 1.279 . S
C42 H83 0.930 . S
N43 C41 1.314 . S
N43 C42 1.279 . S
C44 C46 1.353 . S
C44 N47 1.314 . S
C44 H50 0.930 . S
C45 N47 1.279 . S
C45 C48 1.358 . S
C45 H51 0.930 . S
C46 C44 1.353 . S
C46 C49 1.348 . S
C46 H84 0.929 . S
N47 Li2 1.990 . S
N47 C44 1.314 . S
N47 C45 1.279 . S
C48 C45 1.358 . S
C48 C49 1.356 . S
C48 H85 0.930 . S
C49 C46 1.348 . S
C49 C48 1.356 . S
H50 C44 0.930 . S
H51 C45 0.930 . S
C52 N53 1.314 . S
C52 C54 1.353 . S
C52 H58 0.930 . S
N53 Li3 1.990 . S
N53 C52 1.314 . S
N53 C56 1.279 . S
C54 C52 1.353 . S
C54 C57 1.348 . S
C54 H86 0.925 1_554 S
C55 C56 1.358 . S
C55 C57 1.356 . S
C55 H87 0.930 . S
C56 N53 1.279 . S
C56 C55 1.358 . S
C56 H59 0.930 . S
C57 C54 1.348 . S
C57 C55 1.356 . S
H58 C52 0.930 . S
H59 C56 0.930 . S
O60 Li0 1.956 . S
O60 Li1 1.970 1_455 S
O60 Li2 1.961 1_545 S
O60 C4 1.325 . S
O61 Li0 1.970 1_655 S
O61 Li1 1.956 . S
O61 Li3 1.961 1_545 S
O61 C10 1.325 . S
O62 Li0 1.961 1_565 S
O62 Li2 1.956 . S
O62 Li3 1.970 1_455 S
O62 C32 1.325 . S
O63 Li1 1.961 1_565 S
O63 Li2 1.970 1_655 S
O63 Li3 1.956 . S
O63 C38 1.325 . S
H64 C6 0.929 . S
H65 C7 0.930 . S
H66 C8 0.930 . S
H67 C9 0.930 . S
H68 C11 0.930 . S
H69 C13 0.929 . S
H70 C14 0.930 . S
H71 C15 0.930 1_455 S
H72 C18 0.930 . S
H73 C21 0.925 1_556 S
H74 C26 0.929 . S
H75 C27 0.930 . S
H76 C34 0.929 . S
H77 C35 0.930 . S
H78 C36 0.930 1_655 S
H79 C37 0.930 . S
H80 C39 0.929 . S
H81 C40 0.930 . S
H82 C41 0.930 . S
H83 C42 0.930 . S
H84 C46 0.929 . S
H85 C48 0.930 . S
H86 C54 0.925 1_556 S
H87 C55 0.930 . S
Li88 N105 1.990 . S
Li88 O148 1.956 . S
Li88 O149 1.970 1_665 S
Li88 O150 1.961 . S
Li89 N113 1.990 . S
Li89 O148 1.970 1_445 S
Li89 O149 1.956 . S
Li89 O151 1.961 . S
Li90 N135 1.990 . S
Li90 O148 1.961 . S
Li90 O150 1.956 . S
Li90 O151 1.970 1_665 S
Li91 N141 1.990 . S
Li91 O149 1.961 . S
Li91 O150 1.970 1_445 S
Li91 O151 1.956 . S
C92 C94 1.348 1_655 S
C92 C95 1.356 . S
C92 O148 1.325 . S
N93 C96 1.314 . S
N93 C97 1.279 . S
C94 C92 1.348 1_455 S
C94 C96 1.353 1_455 S
C94 H152 0.929 . S
C95 C92 1.356 . S
C95 C97 1.358 . S
C95 H153 0.930 . S
C96 N93 1.314 . S
C96 C94 1.353 1_655 S
C96 H154 0.930 1_655 S
C97 N93 1.279 . S
C97 C95 1.358 . S
C97 H155 0.930 . S
C98 C101 1.348 1_545 S
C98 C102 1.356 . S
C98 O149 1.325 . S
C99 N100 1.279 . S
C99 C102 1.358 . S
C99 H156 0.930 . S
N100 C99 1.279 . S
N100 C103 1.314 . S
C101 C98 1.348 1_565 S
C101 C103 1.353 1_565 S
C101 H157 0.929 . S
C102 C98 1.356 . S
C102 C99 1.358 . S
C102 H158 0.930 . S
C103 N100 1.314 . S
C103 C101 1.353 1_545 S
C103 H159 0.930 1_545 S
C104 N105 1.314 . S
C104 C109 1.353 . S
C104 H110 0.930 . S
N105 Li88 1.990 . S
N105 C104 1.314 . S
N105 C107 1.279 . S
C106 C107 1.358 . S
C106 C108 1.356 . S
C106 H160 0.930 . S
C107 N105 1.279 . S
C107 C106 1.358 . S
C107 H111 0.930 . S
C108 C106 1.356 . S
C108 C109 1.348 . S
C109 C104 1.353 . S
C109 C108 1.348 . S
C109 H161 0.929 . S
H110 C104 0.930 . S
H111 C107 0.930 . S
C112 N113 1.314 . S
C112 C114 1.353 . S
C112 H118 0.930 . S
N113 Li89 1.990 . S
N113 C112 1.314 . S
N113 C116 1.279 . S
C114 C112 1.353 . S
C114 C117 1.348 . S
C114 H162 0.929 . S
C115 C116 1.358 . S
C115 C117 1.356 . S
C115 H163 0.930 . S
C116 N113 1.279 . S
C116 C115 1.358 . S
C116 H119 0.930 . S
C117 C114 1.348 . S
C117 C115 1.356 . S
H118 C112 0.930 . S
H119 C116 0.930 . S
C120 C122 1.348 1_565 S
C120 C123 1.356 . S
C120 O150 1.325 . S
N121 C124 1.314 . S
N121 C125 1.279 . S
C122 C120 1.348 1_545 S
C122 C124 1.353 1_545 S
C122 H164 0.929 . S
C123 C120 1.356 . S
C123 C125 1.358 . S
C123 H165 0.930 . S
C124 N121 1.314 . S
C124 C122 1.353 1_565 S
C124 H166 0.930 1_565 S
C125 N121 1.279 . S
C125 C123 1.358 . S
C125 H167 0.930 . S
C126 C127 1.348 1_455 S
C126 C128 1.356 . S
C126 O151 1.325 . S
C127 C126 1.348 1_655 S
C127 C129 1.353 1_655 S
C127 H168 0.929 . S
C128 C126 1.356 . S
C128 C130 1.358 . S
C128 H169 0.930 . S
C129 C127 1.353 1_455 S
C129 N131 1.314 . S
C129 H170 0.930 1_455 S
C130 C128 1.358 . S
C130 N131 1.279 . S
C130 H171 0.930 . S
N131 C129 1.314 . S
N131 C130 1.279 . S
C132 C134 1.353 . S
C132 N135 1.314 . S
C132 H138 0.930 . S
C133 N135 1.279 . S
C133 C136 1.358 . S
C133 H139 0.930 . S
C134 C132 1.353 . S
C134 C137 1.348 . S
C134 H172 0.929 . S
N135 Li90 1.990 . S
N135 C132 1.314 . S
N135 C133 1.279 . S
C136 C133 1.358 . S
C136 C137 1.356 . S
C136 H173 0.930 . S
C137 C134 1.348 . S
C137 C136 1.356 . S
H138 C132 0.930 . S
H139 C133 0.930 . S
C140 N141 1.314 . S
C140 C142 1.353 . S
C140 H146 0.930 . S
N141 Li91 1.990 . S
N141 C140 1.314 . S
N141 C144 1.279 . S
C142 C140 1.353 . S
C142 C145 1.348 . S
C142 H174 0.929 . S
C143 C144 1.358 . S
C143 C145 1.356 . S
C143 H175 0.930 . S
C144 N141 1.279 . S
C144 C143 1.358 . S
C144 H147 0.930 . S
C145 C142 1.348 . S
C145 C143 1.356 . S
H146 C140 0.930 . S
H147 C144 0.930 . S
O148 Li88 1.956 . S
O148 Li89 1.970 1_665 S
O148 Li90 1.961 . S
O148 C92 1.325 . S
O149 Li88 1.970 1_445 S
O149 Li89 1.956 . S
O149 Li91 1.961 . S
O149 C98 1.325 . S
O150 Li88 1.961 . S
O150 Li90 1.956 . S
O150 Li91 1.970 1_665 S
O150 C120 1.325 . S
O151 Li89 1.961 . S
O151 Li90 1.970 1_445 S
O151 Li91 1.956 . S
O151 C126 1.325 . S
H152 C94 0.929 . S
H153 C95 0.930 . S
H154 C96 0.930 1_455 S
H155 C97 0.930 . S
H156 C99 0.930 . S
H157 C101 0.929 . S
H158 C102 0.930 . S
H159 C103 0.930 1_565 S
H160 C106 0.930 . S
H161 C109 0.929 . S
H162 C114 0.929 . S
H163 C115 0.930 . S
H164 C122 0.929 . S
H165 C123 0.930 . S
H166 C124 0.930 1_545 S
H167 C125 0.930 . S
H168 C127 0.929 . S
H169 C128 0.930 . S
H170 C129 0.930 1_655 S
H171 C130 0.930 . S
H172 C134 0.929 . S
H173 C136 0.930 . S
H174 C142 0.929 . S
H175 C143 0.930 . S
Li176 N193 1.990 . S
Li176 O236 1.956 . S
Li176 O237 1.970 1_565 S
Li176 O238 1.961 1_455 S
Li177 N201 1.990 . S
Li177 O236 1.970 1_545 S
Li177 O237 1.956 . S
Li177 O239 1.961 1_455 S
Li178 N223 1.990 . S
Li178 O236 1.961 1_655 S
Li178 O238 1.956 . S
Li178 O239 1.970 1_565 S
Li179 N229 1.990 . S
Li179 O237 1.961 1_655 S
Li179 O238 1.970 1_545 S
Li179 O239 1.956 . S
C180 C182 1.348 1_565 S
C180 C183 1.356 . S
C180 O236 1.325 . S
N181 C184 1.314 . S
N181 C185 1.279 . S
C182 C180 1.348 1_545 S
C182 C184 1.353 1_545 S
C182 H240 0.929 . S
C183 C180 1.356 . S
C183 C185 1.358 . S
C183 H241 0.930 . S
C184 N181 1.314 . S
C184 C182 1.353 1_565 S
C184 H242 0.930 1_565 S
C185 N181 1.279 . S
C185 C183 1.358 . S
C185 H243 0.930 . S
C186 C189 1.348 . S
C186 C190 1.356 . S
C186 O237 1.325 . S
C187 N188 1.279 . S
C187 C190 1.358 . S
C187 H244 0.930 . S
N188 C187 1.279 . S
N188 C191 1.314 . S
C189 C186 1.348 . S
C189 C191 1.353 . S
C189 H245 0.929 . S
C190 C186 1.356 . S
C190 C187 1.358 . S
C190 H246 0.930 . S
C191 N188 1.314 . S
C191 C189 1.353 . S
C191 H247 0.930 . S
C192 N193 1.314 . S
C192 C197 1.353 . S
C192 H198 0.930 . S
N193 Li176 1.990 . S
N193 C192 1.314 . S
N193 C195 1.279 . S
C194 C195 1.358 . S
C194 C196 1.356 . S
C194 H248 0.930 . S
C195 N193 1.279 . S
C195 C194 1.358 . S
C195 H199 0.930 . S
C196 C194 1.356 . S
C196 C197 1.348 . S
C197 C192 1.353 . S
C197 C196 1.348 . S
C197 H249 0.929 . S
H198 C192 0.930 . S
H199 C195 0.930 . S
C200 N201 1.314 . S
C200 C202 1.353 . S
C200 H206 0.930 . S
N201 Li177 1.990 . S
N201 C200 1.314 . S
N201 C204 1.279 . S
C202 C200 1.353 . S
C202 C205 1.348 . S
C202 H250 0.929 . S
C203 C204 1.358 . S
C203 C205 1.356 . S
C203 H251 0.930 . S
C204 N201 1.279 . S
C204 C203 1.358 . S
C204 H207 0.930 . S
C205 C202 1.348 . S
C205 C203 1.356 . S
H206 C200 0.930 . S
H207 C204 0.930 . S
C208 C210 1.348 . S
C208 C211 1.356 . S
C208 O238 1.325 . S
N209 C212 1.314 . S
N209 C213 1.279 . S
C210 C208 1.348 . S
C210 C212 1.353 . S
C210 H252 0.929 . S
C211 C208 1.356 . S
C211 C213 1.358 . S
C211 H253 0.930 . S
C212 N209 1.314 . S
C212 C210 1.353 . S
C212 H254 0.930 . S
C213 N209 1.279 . S
C213 C211 1.358 . S
C213 H255 0.930 . S
C214 C215 1.348 1_545 S
C214 C216 1.356 . S
C214 O239 1.325 . S
C215 C214 1.348 1_565 S
C215 C217 1.353 1_565 S
C215 H256 0.929 . S
C216 C214 1.356 . S
C216 C218 1.358 . S
C216 H257 0.930 . S
C217 C215 1.353 1_545 S
C217 N219 1.314 . S
C217 H258 0.930 1_545 S
C218 C216 1.358 . S
C218 N219 1.279 . S
C218 H259 0.930 . S
N219 C217 1.314 . S
N219 C218 1.279 . S
C220 C222 1.353 . S
C220 N223 1.314 . S
C220 H226 0.930 . S
C221 N223 1.279 . S
C221 C224 1.358 . S
C221 H227 0.930 . S
C222 C220 1.353 . S
C222 C225 1.348 . S
C222 H260 0.929 . S
N223 Li178 1.990 . S
N223 C220 1.314 . S
N223 C221 1.279 . S
C224 C221 1.358 . S
C224 C225 1.356 . S
C224 H261 0.930 . S
C225 C222 1.348 . S
C225 C224 1.356 . S
H226 C220 0.930 . S
H227 C221 0.930 . S
C228 N229 1.314 . S
C228 C230 1.353 . S
C228 H234 0.930 . S
N229 Li179 1.990 . S
N229 C228 1.314 . S
N229 C232 1.279 . S
C230 C228 1.353 . S
C230 C233 1.348 . S
C230 H262 0.929 . S
C231 C232 1.358 . S
C231 C233 1.356 . S
C231 H263 0.930 . S
C232 N229 1.279 . S
C232 C231 1.358 . S
C232 H235 0.930 . S
C233 C230 1.348 . S
C233 C231 1.356 . S
H234 C228 0.930 . S
H235 C232 0.930 . S
O236 Li176 1.956 . S
O236 Li177 1.970 1_565 S
O236 Li178 1.961 1_455 S
O236 C180 1.325 . S
O237 Li176 1.970 1_545 S
O237 Li177 1.956 . S
O237 Li179 1.961 1_455 S
O237 C186 1.325 . S
O238 Li176 1.961 1_655 S
O238 Li178 1.956 . S
O238 Li179 1.970 1_565 S
O238 C208 1.325 . S
O239 Li177 1.961 1_655 S
O239 Li178 1.970 1_545 S
O239 Li179 1.956 . S
O239 C214 1.325 . S
H240 C182 0.929 . S
H241 C183 0.930 . S
H242 C184 0.930 1_545 S
H243 C185 0.930 . S
H244 C187 0.930 . S
H245 C189 0.929 . S
H246 C190 0.930 . S
H247 C191 0.930 . S
H248 C194 0.930 . S
H249 C197 0.929 . S
H250 C202 0.929 . S
H251 C203 0.930 . S
H252 C210 0.929 . S
H253 C211 0.930 . S
H254 C212 0.930 . S
H255 C213 0.930 . S
H256 C215 0.929 . S
H257 C216 0.930 . S
H258 C217 0.930 1_565 S
H259 C218 0.930 . S
H260 C222 0.929 . S
H261 C224 0.930 . S
H262 C230 0.929 . S
H263 C231 0.930 . S
C264 C265 1.384 1_655 S
C264 C266 1.384 . S
C264 H292 0.931 . S
C265 C264 1.384 1_455 S
C265 C268 1.382 . S
C266 C264 1.384 . S
C266 C267 1.381 1_655 S
C266 H293 0.930 . S
C267 C266 1.381 1_455 S
C267 C269 1.381 . S
C267 C270 1.487 . S
C268 C265 1.382 . S
C268 C269 1.387 . S
C268 H294 0.930 . S
C269 C267 1.381 . S
C269 C268 1.387 . S
C269 H295 0.931 . S
C270 C267 1.487 . S
C270 C277 1.399 1_455 S
C270 N308 1.343 . S
C271 C272 1.367 1_455 S
C271 C273 1.384 . S
C271 H296 0.931 . S
C272 C271 1.367 1_655 S
C272 C275 1.413 . S
C273 C271 1.384 . S
C273 C274 1.381 1_455 S
C273 H297 0.930 . S
C274 C273 1.381 1_655 S
C274 C276 1.381 . S
C274 C277 1.487 . S
C275 C272 1.413 . S
C275 C276 1.387 . S
C275 H298 0.930 . S
C276 C274 1.381 . S
C276 C275 1.387 . S
C276 H299 0.931 . S
C277 C270 1.399 1_655 S
C277 C274 1.487 . S
C277 N309 1.343 . S
C278 C279 1.365 1_455 S
C278 C280 1.384 . S
C278 H300 0.931 . S
C279 C278 1.365 1_655 S
C279 C282 1.390 . S
C280 C278 1.384 . S
C280 C281 1.381 1_455 S
C280 H301 0.930 . S
C281 C280 1.381 1_655 S
C281 C283 1.381 . S
C281 C284 1.487 . S
C282 C279 1.390 . S
C282 C283 1.387 . S
C282 H302 0.930 . S
C283 C281 1.381 . S
C283 C282 1.387 . S
C283 H303 0.931 . S
C284 C281 1.487 . S
C284 C291 1.399 1_655 S
C284 N309 1.343 . S
C285 C286 1.384 1_655 S
C285 C287 1.384 . S
C285 H304 0.931 . S
C286 C285 1.384 1_455 S
C286 C289 1.382 . S
C287 C285 1.384 . S
C287 C288 1.381 1_655 S
C287 H305 0.930 . S
C288 C287 1.381 1_455 S
C288 C290 1.381 . S
C288 C291 1.487 . S
C289 C286 1.382 . S
C289 C290 1.387 . S
C289 H306 0.930 . S
C290 C288 1.381 . S
C290 C289 1.387 . S
C290 H307 0.931 . S
C291 C284 1.399 1_455 S
C291 C288 1.487 . S
C291 N308 1.343 . S
H292 C264 0.931 . S
H293 C266 0.930 . S
H294 C268 0.930 . S
H295 C269 0.931 . S
H296 C271 0.931 . S
H297 C273 0.930 . S
H298 C275 0.930 . S
H299 C276 0.931 . S
H300 C278 0.931 . S
H301 C280 0.930 . S
H302 C282 0.930 . S
H303 C283 0.931 . S
H304 C285 0.931 . S
H305 C287 0.930 . S
H306 C289 0.930 . S
H307 C290 0.931 . S
N308 C270 1.343 . S
N308 C291 1.343 . S
N309 C277 1.343 . S
N309 C284 1.343 . S
C310 C311 1.365 1_545 S
C310 C312 1.384 . S
C310 H338 0.931 . S
C311 C310 1.365 1_565 S
C311 C314 1.390 . S
C312 C310 1.384 . S
C312 C313 1.381 1_545 S
C312 H339 0.930 . S
C313 C312 1.381 1_565 S
C313 C315 1.381 . S
C313 C316 1.487 . S
C314 C311 1.390 . S
C314 C315 1.387 . S
C314 H340 0.930 . S
C315 C313 1.381 . S
C315 C314 1.387 . S
C315 H341 0.931 . S
C316 C313 1.487 . S
C316 C323 1.399 1_565 S
C316 N354 1.343 . S
C317 C318 1.384 1_565 S
C317 C319 1.384 . S
C317 H342 0.931 . S
C318 C317 1.384 1_545 S
C318 C321 1.382 . S
C319 C317 1.384 . S
C319 C320 1.381 1_565 S
C319 H343 0.930 . S
C320 C319 1.381 1_545 S
C320 C322 1.381 . S
C320 C323 1.487 . S
C321 C318 1.382 . S
C321 C322 1.387 . S
C321 H344 0.930 . S
C322 C320 1.381 . S
C322 C321 1.387 . S
C322 H345 0.931 . S
C323 C316 1.399 1_545 S
C323 C320 1.487 . S
C323 N355 1.343 . S
C324 C325 1.384 1_565 S
C324 C326 1.384 . S
C324 H346 0.931 . S
C325 C324 1.384 1_545 S
C325 C328 1.382 . S
C326 C324 1.384 . S
C326 C327 1.381 1_565 S
C326 H347 0.930 . S
C327 C326 1.381 1_545 S
C327 C329 1.381 . S
C327 C330 1.487 . S
C328 C325 1.382 . S
C328 C329 1.387 . S
C328 H348 0.930 . S
C329 C327 1.381 . S
C329 C328 1.387 . S
C329 H349 0.931 . S
C330 C327 1.487 . S
C330 C337 1.399 1_545 S
C330 N355 1.343 . S
C331 C332 1.367 1_545 S
C331 C333 1.384 . S
C331 H350 0.931 . S
C332 C331 1.367 1_565 S
C332 C335 1.413 . S
C333 C331 1.384 . S
C333 C334 1.381 1_545 S
C333 H351 0.930 . S
C334 C333 1.381 1_565 S
C334 C336 1.381 . S
C334 C337 1.487 . S
C335 C332 1.413 . S
C335 C336 1.387 . S
C335 H352 0.930 . S
C336 C334 1.381 . S
C336 C335 1.387 . S
C336 H353 0.931 . S
C337 C330 1.399 1_565 S
C337 C334 1.487 . S
C337 N354 1.343 . S
H338 C310 0.931 . S
H339 C312 0.930 . S
H340 C314 0.930 . S
H341 C315 0.931 . S
H342 C317 0.931 . S
H343 C319 0.930 . S
H344 C321 0.930 . S
H345 C322 0.931 . S
H346 C324 0.931 . S
H347 C326 0.930 . S
H348 C328 0.930 . S
H349 C329 0.931 . S
H350 C331 0.931 . S
H351 C333 0.930 . S
H352 C335 0.930 . S
H353 C336 0.931 . S
N354 C316 1.343 . S
N354 C337 1.343 . S
N355 C323 1.343 . S
N355 C330 1.343 . S
C356 C357 1.384 . S
C356 C358 1.384 . S
C356 H384 0.931 . S
C357 C356 1.384 . S
C357 C360 1.382 . S
C358 C356 1.384 . S
C358 C359 1.381 . S
C358 H385 0.930 . S
C359 C358 1.381 . S
C359 C361 1.381 . S
C359 C362 1.487 . S
C360 C357 1.382 . S
C360 C361 1.387 . S
C360 H386 0.930 . S
C361 C359 1.381 . S
C361 C360 1.387 . S
C361 H387 0.931 . S
C362 C359 1.487 . S
C362 C369 1.399 . S
C362 N400 1.343 . S
C363 C364 1.384 . S
C363 C365 1.384 . S
C363 H388 0.931 . S
C364 C363 1.384 . S
C364 C367 1.382 . S
C365 C363 1.384 . S
C365 C366 1.381 . S
C365 H389 0.930 . S
C366 C365 1.381 . S
C366 C368 1.381 . S
C366 C369 1.487 . S
C367 C364 1.382 . S
C367 C368 1.387 . S
C367 H390 0.930 . S
C368 C366 1.381 . S
C368 C367 1.387 . S
C368 H391 0.931 . S
C369 C362 1.399 . S
C369 C366 1.487 . S
C369 N401 1.343 . S
C370 C371 1.384 . S
C370 C372 1.384 . S
C370 H392 0.931 . S
C371 C370 1.384 . S
C371 C374 1.382 . S
C372 C370 1.384 . S
C372 C373 1.381 . S
C372 H393 0.930 . S
C373 C372 1.381 . S
C373 C375 1.381 . S
C373 C376 1.487 . S
C374 C371 1.382 . S
C374 C375 1.387 . S
C374 H394 0.930 . S
C375 C373 1.381 . S
C375 C374 1.387 . S
C375 H395 0.931 . S
C376 C373 1.487 . S
C376 C383 1.399 . S
C376 N401 1.343 . S
C377 C378 1.384 . S
C377 C379 1.384 . S
C377 H396 0.931 . S
C378 C377 1.384 . S
C378 C381 1.382 . S
C379 C377 1.384 . S
C379 C380 1.381 . S
C379 H397 0.930 . S
C380 C379 1.381 . S
C380 C382 1.381 . S
C380 C383 1.487 . S
C381 C378 1.382 . S
C381 C382 1.387 . S
C381 H398 0.930 . S
C382 C380 1.381 . S
C382 C381 1.387 . S
C382 H399 0.931 . S
C383 C376 1.399 . S
C383 C380 1.487 . S
C383 N400 1.343 . S
H384 C356 0.931 . S
H385 C358 0.930 . S
H386 C360 0.930 . S
H387 C361 0.931 . S
H388 C363 0.931 . S
H389 C365 0.930 . S
H390 C367 0.930 . S
H391 C368 0.931 . S
H392 C370 0.931 . S
H393 C372 0.930 . S
H394 C374 0.930 . S
H395 C375 0.931 . S
H396 C377 0.931 . S
H397 C379 0.930 . S
H398 C381 0.930 . S
H399 C382 0.931 . S
N400 C362 1.343 . S
N400 C383 1.343 . S
N401 C369 1.343 . S
N401 C376 1.343 . S
H402 C420 0.951 . S
H403 C422 0.951 . S
H404 C424 0.951 . S
H405 C425 0.950 . S
H406 C427 0.950 . S
H407 C430 0.950 . S
H408 C431 0.950 . S
H409 C433 0.950 . S
H410 C434 0.950 . S
H411 C435 0.951 . S
H412 C437 0.951 . S
H413 C439 0.950 . S
H414 C440 0.950 . S
H415 C442 0.950 . S
H416 C445 0.950 . S
H417 C446 0.950 . S
H418 C448 0.950 . S
H419 C449 0.950 . S
C420 H402 0.951 . S
C420 C421 1.366 . S
C420 C422 1.388 . S
C421 C420 1.366 . S
C421 C425 1.385 . S
C422 H403 0.951 . S
C422 C420 1.388 . S
C422 C423 1.366 . S
C423 C422 1.366 . S
C423 C424 1.414 . S
C423 C426 1.499 . S
C424 H404 0.951 . S
C424 C423 1.414 . S
C424 C425 1.374 . S
C425 H405 0.950 . S
C425 C421 1.385 . S
C425 C424 1.374 . S
C426 C423 1.499 . S
C426 C427 1.373 1_655 S
C426 C428 1.389 . S
C427 H406 0.950 . S
C427 C426 1.373 1_455 S
C427 C443 1.377 . S
C428 C426 1.389 . S
C428 C429 1.524 . S
C428 C442 1.377 . S
C429 C428 1.524 . S
C429 C430 1.397 . S
C429 C434 1.363 . S
C430 H407 0.950 . S
C430 C429 1.397 . S
C430 C431 1.334 . S
C431 H408 0.950 . S
C431 C430 1.334 . S
C431 C432 1.287 . S
C432 C431 1.287 . S
C432 C433 1.524 . S
C432 H451 0.913 . S
C433 H409 0.950 . S
C433 C432 1.524 . S
C433 C434 1.415 . S
C434 H410 0.950 . S
C434 C429 1.363 . S
C434 C433 1.415 . S
C435 H411 0.951 . S
C435 C436 1.366 1_455 S
C435 C437 1.388 . S
C436 C435 1.366 1_655 S
C436 C440 1.385 . S
C437 H412 0.951 . S
C437 C435 1.388 . S
C437 C438 1.366 1_455 S
C438 C437 1.366 1_655 S
C438 C439 1.414 . S
C438 C441 1.499 . S
C439 H413 0.950 . S
C439 C438 1.414 . S
C439 C440 1.374 . S
C440 H414 0.950 . S
C440 C436 1.385 . S
C440 C439 1.374 . S
C441 C438 1.499 . S
C441 C442 1.373 . S
C441 C443 1.389 1_655 S
C442 H415 0.950 . S
C442 C428 1.377 . S
C442 C441 1.373 . S
C443 C427 1.377 . S
C443 C441 1.389 1_455 S
C443 C444 1.524 . S
C444 C443 1.524 . S
C444 C445 1.397 . S
C444 C449 1.363 . S
C445 H416 0.950 . S
C445 C444 1.397 . S
C445 C446 1.334 . S
C446 H417 0.950 . S
C446 C445 1.334 . S
C446 C447 1.287 . S
C447 C446 1.287 . S
C447 C448 1.524 . S
C447 H450 0.999 . S
C448 H418 0.950 . S
C448 C447 1.524 . S
C448 C449 1.415 . S
C449 H419 0.950 . S
C449 C444 1.363 . S
C449 C448 1.415 . S
H450 C447 0.999 . S
H451 C432 0.913 . S
H452 C470 0.951 . S
H453 C472 0.951 . S
H454 C474 0.950 1_545 S
H455 C475 0.950 1_545 S
H456 C477 0.950 . S
H457 C480 0.950 . S
H458 C481 0.950 . S
H459 C483 0.950 . S
H460 C484 0.950 . S
H461 C485 0.951 . S
H462 C487 0.951 . S
H463 C489 0.950 . S
H464 C490 0.950 . S
H465 C492 0.950 . S
H466 C495 0.950 . S
H467 C496 0.950 . S
H468 C498 0.950 . S
H469 C499 0.950 . S
C470 H452 0.951 . S
C470 C471 1.366 . S
C470 C472 1.388 . S
C471 C470 1.366 . S
C471 C475 1.385 . S
C472 H453 0.951 . S
C472 C470 1.388 . S
C472 C473 1.366 . S
C473 C472 1.366 . S
C473 C474 1.414 . S
C473 C476 1.499 . S
C474 H454 0.950 1_565 S
C474 C473 1.414 . S
C474 C475 1.374 . S
C475 H455 0.950 1_565 S
C475 C471 1.385 . S
C475 C474 1.374 . S
C476 C473 1.499 . S
C476 C477 1.373 . S
C476 C478 1.389 . S
C477 H456 0.950 . S
C477 C476 1.373 . S
C477 C493 1.377 . S
C478 C476 1.389 . S
C478 C479 1.524 . S
C478 C492 1.377 . S
C479 C478 1.524 . S
C479 C480 1.397 1_565 S
C479 C484 1.363 . S
C480 H457 0.950 . S
C480 C479 1.397 1_545 S
C480 C481 1.334 . S
C481 H458 0.950 . S
C481 C480 1.334 . S
C481 C482 1.287 1_545 S
C482 C481 1.287 1_565 S
C482 C483 1.524 . S
C482 H501 0.913 . S
C483 H459 0.950 . S
C483 C482 1.524 . S
C483 C484 1.415 . S
C484 H460 0.950 . S
C484 C479 1.363 . S
C484 C483 1.415 . S
C485 H461 0.951 . S
C485 C486 1.366 1_545 S
C485 C487 1.388 . S
C486 C485 1.366 1_565 S
C486 C490 1.385 . S
C487 H462 0.951 . S
C487 C485 1.388 . S
C487 C488 1.366 1_545 S
C488 C487 1.366 1_565 S
C488 C489 1.414 . S
C488 C491 1.499 . S
C489 H463 0.950 . S
C489 C488 1.414 . S
C489 C490 1.374 . S
C490 H464 0.950 . S
C490 C486 1.385 . S
C490 C489 1.374 . S
C491 C488 1.499 . S
C491 C492 1.373 . S
C491 C493 1.389 . S
C492 H465 0.950 . S
C492 C478 1.377 . S
C492 C491 1.373 . S
C493 C477 1.377 . S
C493 C491 1.389 . S
C493 C494 1.524 . S
C494 C493 1.524 . S
C494 C495 1.397 . S
C494 C499 1.363 1_565 S
C495 H466 0.950 . S
C495 C494 1.397 . S
C495 C496 1.334 . S
C496 H467 0.950 . S
C496 C495 1.334 . S
C496 C497 1.287 . S
C497 C496 1.287 . S
C497 C498 1.524 1_565 S
C497 H500 0.999 . S
C498 H468 0.950 . S
C498 C497 1.524 1_545 S
C498 C499 1.415 . S
C499 H469 0.950 . S
C499 C494 1.363 1_545 S
C499 C498 1.415 . S
H500 C497 0.999 . S
H501 C482 0.913 . S
H502 C520 0.951 . S
H503 C522 0.951 . S
H504 C524 0.950 . S
H505 C525 0.950 . S
H506 C527 0.950 . S
H507 C530 0.950 . S
H508 C531 0.950 . S
H509 C533 0.950 . S
H510 C534 0.950 . S
H511 C535 0.951 . S
H512 C537 0.951 . S
H513 C539 0.950 . S
H514 C540 0.950 . S
H515 C542 0.950 . S
H516 C545 0.950 . S
H517 C546 0.950 . S
H518 C548 0.950 . S
H519 C549 0.950 . S
C520 H502 0.951 . S
C520 C521 1.366 . S
C520 C522 1.388 . S
C521 C520 1.366 . S
C521 C525 1.385 . S
C522 H503 0.951 . S
C522 C520 1.388 . S
C522 C523 1.366 . S
C523 C522 1.366 . S
C523 C524 1.414 . S
C523 C526 1.499 . S
C524 H504 0.950 . S
C524 C523 1.414 . S
C524 C525 1.374 . S
C525 H505 0.950 . S
C525 C521 1.385 . S
C525 C524 1.374 . S
C526 C523 1.499 . S
C526 C527 1.373 . S
C526 C528 1.389 . S
C527 H506 0.950 . S
C527 C526 1.373 . S
C527 C543 1.377 . S
C528 C526 1.389 . S
C528 C529 1.524 . S
C528 C542 1.377 . S
C529 C528 1.524 . S
C529 C530 1.397 . S
C529 C534 1.363 . S
C530 H507 0.950 . S
C530 C529 1.397 . S
C530 C531 1.334 . S
C531 H508 0.950 . S
C531 C530 1.334 . S
C531 C532 1.287 . S
C532 C531 1.287 . S
C532 C533 1.524 . S
C532 H551 0.913 . S
C533 H509 0.950 . S
C533 C532 1.524 . S
C533 C534 1.415 . S
C534 H510 0.950 . S
C534 C529 1.363 . S
C534 C533 1.415 . S
C535 H511 0.951 . S
C535 C536 1.366 . S
C535 C537 1.388 . S
C536 C535 1.366 . S
C536 C540 1.385 . S
C537 H512 0.951 . S
C537 C535 1.388 . S
C537 C538 1.366 . S
C538 C537 1.366 . S
C538 C539 1.414 . S
C538 C541 1.499 . S
C539 H513 0.950 . S
C539 C538 1.414 . S
C539 C540 1.374 . S
C540 H514 0.950 . S
C540 C536 1.385 . S
C540 C539 1.374 . S
C541 C538 1.499 . S
C541 C542 1.373 . S
C541 C543 1.389 . S
C542 H515 0.950 . S
C542 C528 1.377 . S
C542 C541 1.373 . S
C543 C527 1.377 . S
C543 C541 1.389 . S
C543 C544 1.524 . S
C544 C543 1.524 . S
C544 C545 1.397 . S
C544 C549 1.363 . S
C545 H516 0.950 . S
C545 C544 1.397 . S
C545 C546 1.334 . S
C546 H517 0.950 . S
C546 C545 1.334 . S
C546 C547 1.287 . S
C547 C546 1.287 . S
C547 C548 1.524 . S
C547 H550 0.999 . S
C548 H518 0.950 . S
C548 C547 1.524 . S
C548 C549 1.415 . S
C549 H519 0.950 . S
C549 C544 1.363 . S
C549 C548 1.415 . S
H550 C547 0.999 . S
H551 C532 0.913 . S
H552 C570 0.951 . S
H553 C572 0.951 . S
H554 C574 0.951 1_655 S
H555 C575 0.950 . S
H556 C577 0.950 . S
H557 C580 0.950 . S
H558 C581 0.950 . S
H559 C583 0.973 . S
H560 C584 0.950 . S
H561 C585 0.951 . S
H562 C587 0.951 . S
H563 C589 0.950 . S
H564 C590 0.950 . S
H565 C592 0.950 . S
H566 C595 0.950 . S
H567 C596 0.950 . S
H568 C598 0.950 . S
H569 C599 0.950 . S
C570 H552 0.951 . S
C570 C571 1.366 . S
C570 C572 1.388 . S
C571 C570 1.366 . S
C571 C575 1.385 . S
C572 H553 0.951 . S
C572 C570 1.388 . S
C572 C573 1.366 . S
C573 C572 1.366 . S
C573 C574 1.414 . S
C573 C576 1.499 . S
C574 H554 0.951 1_455 S
C574 C573 1.414 . S
C574 C575 1.374 . S
C575 H555 0.950 . S
C575 C571 1.385 . S
C575 C574 1.374 . S
C576 C573 1.499 . S
C576 C577 1.373 . S
C576 C578 1.389 . S
C577 H556 0.950 . S
C577 C576 1.373 . S
C577 C593 1.377 . S
C578 C576 1.389 . S
C578 C579 1.524 . S
C578 C592 1.377 . S
C579 C578 1.524 . S
C579 C580 1.398 1_455 S
C579 C584 1.362 . S
C580 H557 0.950 . S
C580 C579 1.398 1_655 S
C580 C581 1.334 . S
C581 H558 0.950 . S
C581 C580 1.334 . S
C581 C582 1.287 . S
C582 C581 1.287 . S
C582 C583 1.491 1_655 S
C582 H601 0.913 . S
C583 H559 0.973 . S
C583 C582 1.491 1_455 S
C583 C584 1.422 . S
C584 H560 0.950 . S
C584 C579 1.362 . S
C584 C583 1.422 . S
C585 H561 0.951 . S
C585 C586 1.366 1_655 S
C585 C587 1.388 . S
C586 C585 1.366 1_455 S
C586 C590 1.385 . S
C587 H562 0.951 . S
C587 C585 1.388 . S
C587 C588 1.366 1_655 S
C588 C587 1.366 1_455 S
C588 C589 1.414 . S
C588 C591 1.499 . S
C589 H563 0.950 . S
C589 C588 1.414 . S
C589 C590 1.374 . S
C590 H564 0.950 . S
C590 C586 1.385 . S
C590 C589 1.374 . S
C591 C588 1.499 . S
C591 C592 1.373 . S
C591 C593 1.389 . S
C592 H565 0.950 . S
C592 C578 1.377 . S
C592 C591 1.373 . S
C593 C577 1.377 . S
C593 C591 1.389 . S
C593 C594 1.524 . S
C594 C593 1.524 . S
C594 C595 1.397 . S
C594 C599 1.363 . S
C595 H566 0.950 . S
C595 C594 1.397 . S
C595 C596 1.334 . S
C596 H567 0.950 . S
C596 C595 1.334 . S
C596 C597 1.287 . S
C597 C596 1.287 . S
C597 C598 1.524 . S
C597 H600 0.999 . S
C598 H568 0.950 . S
C598 C597 1.524 . S
C598 C599 1.415 . S
C599 H569 0.950 . S
C599 C594 1.363 . S
C599 C598 1.415 . S
H600 C597 0.999 . S
H601 C582 0.913 . S
H602 C620 0.951 . S
H603 C622 0.951 . S
H604 C624 0.950 . S
H605 C625 0.950 . S
H606 C627 0.950 . S
H607 C630 0.950 . S
H608 C631 0.950 . S
H609 C633 0.950 . S
H610 C634 0.950 1_545 S
H611 C635 0.951 . S
H612 C637 0.957 1_565 S
H613 C639 0.950 . S
H614 C640 0.950 . S
H615 C642 0.950 1_565 S
H616 C645 0.950 . S
H617 C646 0.950 . S
H618 C648 0.950 . S
H619 C649 0.950 . S
C620 H602 0.951 . S
C620 C621 1.366 . S
C620 C622 1.388 . S
C621 C620 1.366 . S
C621 C625 1.385 . S
C622 H603 0.951 . S
C622 C620 1.388 . S
C622 C623 1.366 . S
C623 C622 1.366 . S
C623 C624 1.414 . S
C623 C626 1.499 . S
C624 H604 0.950 . S
C624 C623 1.414 . S
C624 C625 1.374 . S
C625 H605 0.950 . S
C625 C621 1.385 . S
C625 C624 1.374 . S
C626 C623 1.499 . S
C626 C627 1.373 . S
C626 C628 1.389 . S
C627 H606 0.950 . S
C627 C626 1.373 . S
C627 C643 1.377 . S
C628 C626 1.389 . S
C628 C629 1.524 1_545 S
C628 C642 1.377 . S
C629 C628 1.524 1_565 S
C629 C630 1.397 . S
C629 C634 1.363 . S
C630 H607 0.950 . S
C630 C629 1.397 . S
C630 C631 1.334 . S
C631 H608 0.950 . S
C631 C630 1.334 . S
C631 C632 1.287 . S
C632 C631 1.287 . S
C632 C633 1.524 . S
C632 H651 0.913 . S
C633 H609 0.950 . S
C633 C632 1.524 . S
C633 C634 1.415 . S
C634 H610 0.950 1_565 S
C634 C629 1.363 . S
C634 C633 1.415 . S
C635 H611 0.951 . S
C635 C636 1.366 1_565 S
C635 C637 1.378 1_565 S
C636 C635 1.366 1_545 S
C636 C640 1.385 . S
C637 H612 0.957 1_545 S
C637 C635 1.378 1_545 S
C637 C638 1.370 . S
C638 C637 1.370 . S
C638 C639 1.414 . S
C638 C641 1.499 . S
C639 H613 0.950 . S
C639 C638 1.414 . S
C639 C640 1.374 . S
C640 H614 0.950 . S
C640 C636 1.385 . S
C640 C639 1.374 . S
C641 C638 1.499 . S
C641 C642 1.373 . S
C641 C643 1.389 . S
C642 H615 0.950 1_545 S
C642 C628 1.377 . S
C642 C641 1.373 . S
C643 C627 1.377 . S
C643 C641 1.389 . S
C643 C644 1.524 . S
C644 C643 1.524 . S
C644 C645 1.397 . S
C644 C649 1.363 . S
C645 H616 0.950 . S
C645 C644 1.397 . S
C645 C646 1.334 . S
C646 H617 0.950 . S
C646 C645 1.334 . S
C646 C647 1.287 . S
C647 C646 1.287 . S
C647 C648 1.524 . S
C647 H650 0.999 . S
C648 H618 0.950 . S
C648 C647 1.524 . S
C648 C649 1.415 . S
C649 H619 0.950 . S
C649 C644 1.363 . S
C649 C648 1.415 . S
H650 C647 0.999 . S
H651 C632 0.913 . S
H652 C670 0.951 . S
H653 C672 0.951 . S
H654 C674 0.950 . S
H655 C675 0.950 . S
H656 C677 0.950 . S
H657 C680 0.950 . S
H658 C681 0.950 . S
H659 C683 0.950 . S
H660 C684 0.950 . S
H661 C685 0.951 . S
H662 C687 0.951 . S
H663 C689 0.950 . S
H664 C690 0.950 . S
H665 C692 0.950 . S
H666 C695 0.950 . S
H667 C696 0.950 . S
H668 C698 0.950 . S
H669 C699 0.950 . S
C670 H652 0.951 . S
C670 C671 1.366 . S
C670 C672 1.388 . S
C671 C670 1.366 . S
C671 C675 1.385 . S
C672 H653 0.951 . S
C672 C670 1.388 . S
C672 C673 1.366 . S
C673 C672 1.366 . S
C673 C674 1.414 . S
C673 C676 1.499 . S
C674 H654 0.950 . S
C674 C673 1.414 . S
C674 C675 1.374 . S
C675 H655 0.950 . S
C675 C671 1.385 . S
C675 C674 1.374 . S
C676 C673 1.499 . S
C676 C677 1.373 . S
C676 C678 1.389 . S
C677 H656 0.950 . S
C677 C676 1.373 . S
C677 C693 1.377 . S
C678 C676 1.389 . S
C678 C679 1.524 . S
C678 C692 1.377 . S
C679 C678 1.524 . S
C679 C680 1.397 . S
C679 C684 1.363 . S
C680 H657 0.950 . S
C680 C679 1.397 . S
C680 C681 1.334 . S
C681 H658 0.950 . S
C681 C680 1.334 . S
C681 C682 1.287 . S
C682 C681 1.287 . S
C682 C683 1.524 . S
C682 H701 0.913 . S
C683 H659 0.950 . S
C683 C682 1.524 . S
C683 C684 1.415 . S
C684 H660 0.950 . S
C684 C679 1.363 . S
C684 C683 1.415 . S
C685 H661 0.951 . S
C685 C686 1.366 . S
C685 C687 1.388 . S
C686 C685 1.366 . S
C686 C690 1.385 . S
C687 H662 0.951 . S
C687 C685 1.388 . S
C687 C688 1.366 . S
C688 C687 1.366 . S
C688 C689 1.414 . S
C688 C691 1.499 . S
C689 H663 0.950 . S
C689 C688 1.414 . S
C689 C690 1.374 . S
C690 H664 0.950 . S
C690 C686 1.385 . S
C690 C689 1.374 . S
C691 C688 1.499 . S
C691 C692 1.373 . S
C691 C693 1.389 . S
C692 H665 0.950 . S
C692 C678 1.377 . S
C692 C691 1.373 . S
C693 C677 1.377 . S
C693 C691 1.389 . S
C693 C694 1.524 . S
C694 C693 1.524 . S
C694 C695 1.397 . S
C694 C699 1.363 . S
C695 H666 0.950 . S
C695 C694 1.397 . S
C695 C696 1.334 . S
C696 H667 0.950 . S
C696 C695 1.334 . S
C696 C697 1.287 . S
C697 C696 1.287 . S
C697 C698 1.524 . S
C697 H700 0.999 . S
C698 H668 0.950 . S
C698 C697 1.524 . S
C698 C699 1.415 . S
C699 H669 0.950 . S
C699 C694 1.363 . S
C699 C698 1.415 . S
H700 C697 0.999 . S
H701 C682 0.913 . S
H702 C720 0.951 . S
H703 C722 0.951 . S
H704 C724 0.950 . S
H705 C725 0.950 . S
H706 C727 0.950 . S
H707 C730 0.950 . S
H708 C731 0.950 . S
H709 C733 0.950 1_545 S
H710 C734 0.950 . S
H711 C735 0.951 . S
H712 C737 0.951 . S
H713 C739 0.950 . S
H714 C740 0.950 . S
H715 C742 0.950 . S
H716 C745 0.950 . S
H717 C746 0.950 . S
H718 C748 0.950 . S
H719 C749 0.950 . S
C720 H702 0.951 . S
C720 C721 1.366 . S
C720 C722 1.388 . S
C721 C720 1.366 . S
C721 C725 1.385 . S
C722 H703 0.951 . S
C722 C720 1.388 . S
C722 C723 1.366 . S
C723 C722 1.366 . S
C723 C724 1.414 . S
C723 C726 1.499 . S
C724 H704 0.950 . S
C724 C723 1.414 . S
C724 C725 1.374 . S
C725 H705 0.950 . S
C725 C721 1.385 . S
C725 C724 1.374 . S
C726 C723 1.499 . S
C726 C727 1.373 . S
C726 C728 1.389 . S
C727 H706 0.950 . S
C727 C726 1.373 . S
C727 C743 1.377 . S
C728 C726 1.389 . S
C728 C729 1.524 1_545 S
C728 C742 1.377 . S
C729 C728 1.524 1_565 S
C729 C730 1.397 . S
C729 C734 1.363 1_565 S
C730 H707 0.950 . S
C730 C729 1.397 . S
C730 C731 1.334 . S
C731 H708 0.950 . S
C731 C730 1.334 . S
C731 C732 1.287 . S
C732 C731 1.287 . S
C732 C733 1.524 . S
C732 H751 0.913 . S
C733 H709 0.950 1_565 S
C733 C732 1.524 . S
C733 C734 1.415 1_565 S
C734 H710 0.950 . S
C734 C729 1.363 1_545 S
C734 C733 1.415 1_545 S
C735 H711 0.951 . S
C735 C736 1.366 1_565 S
C735 C737 1.388 . S
C736 C735 1.366 1_545 S
C736 C740 1.385 . S
C737 H712 0.951 . S
C737 C735 1.388 . S
C737 C738 1.366 1_565 S
C738 C737 1.366 1_545 S
C738 C739 1.414 . S
C738 C741 1.499 . S
C739 H713 0.950 . S
C739 C738 1.414 . S
C739 C740 1.374 . S
C740 H714 0.950 . S
C740 C736 1.385 . S
C740 C739 1.374 . S
C741 C738 1.499 . S
C741 C742 1.373 . S
C741 C743 1.389 . S
C742 H715 0.950 . S
C742 C728 1.377 . S
C742 C741 1.373 . S
C743 C727 1.377 . S
C743 C741 1.389 . S
C743 C744 1.524 . S
C744 C743 1.524 . S
C744 C745 1.397 . S
C744 C749 1.363 . S
C745 H716 0.950 . S
C745 C744 1.397 . S
C745 C746 1.334 . S
C746 H717 0.950 . S
C746 C745 1.334 . S
C746 C747 1.287 . S
C747 C746 1.287 . S
C747 C748 1.524 . S
C747 H750 0.999 . S
C748 H718 0.950 . S
C748 C747 1.524 . S
C748 C749 1.415 . S
C749 H719 0.950 . S
C749 C744 1.363 . S
C749 C748 1.415 . S
H750 C747 0.999 . S
H751 C732 0.913 . S
H752 C770 0.951 . S
H753 C772 0.951 . S
H754 C774 0.939 1_554 S
H755 C775 0.950 . S
H756 C777 0.950 . S
H757 C780 0.950 . S
H758 C781 0.950 1_554 S
H759 C783 0.950 . S
H760 C784 0.950 . S
H761 C785 0.951 . S
H762 C787 0.951 . S
H763 C789 0.950 . S
H764 C790 0.950 . S
H765 C792 0.950 . S
H766 C795 0.950 . S
H767 C796 0.950 . S
H768 C798 0.950 . S
H769 C799 0.950 . S
C770 H752 0.951 . S
C770 C771 1.366 1_556 S
C770 C772 1.388 . S
C771 C770 1.366 1_554 S
C771 C775 1.385 . S
C772 H753 0.951 . S
C772 C770 1.388 . S
C772 C773 1.366 . S
C773 C772 1.366 . S
C773 C774 1.469 . S
C773 C776 1.499 . S
C774 H754 0.939 1_556 S
C774 C773 1.469 . S
C774 C775 1.334 1_556 S
C775 H755 0.950 . S
C775 C771 1.385 . S
C775 C774 1.334 1_554 S
C776 C773 1.499 . S
C776 C777 1.373 . S
C776 C778 1.389 . S
C777 H756 0.950 . S
C777 C776 1.373 . S
C777 C793 1.377 . S
C778 C776 1.389 . S
C778 C779 1.524 . S
C778 C792 1.377 . S
C779 C778 1.524 . S
C779 C780 1.397 . S
C779 C784 1.363 . S
C780 H757 0.950 . S
C780 C779 1.397 . S
C780 C781 1.334 . S
C781 H758 0.950 1_556 S
C781 C780 1.334 . S
C781 C782 1.287 . S
C782 C781 1.287 . S
C782 C783 1.524 . S
C782 H801 0.913 . S
C783 H759 0.950 . S
C783 C782 1.524 . S
C783 C784 1.415 . S
C784 H760 0.950 . S
C784 C779 1.363 . S
C784 C783 1.415 . S
C785 H761 0.951 . S
C785 C786 1.366 . S
C785 C787 1.388 . S
C786 C785 1.366 . S
C786 C790 1.385 . S
C787 H762 0.951 . S
C787 C785 1.388 . S
C787 C788 1.366 . S
C788 C787 1.366 . S
C788 C789 1.414 . S
C788 C791 1.499 . S
C789 H763 0.950 . S
C789 C788 1.414 . S
C789 C790 1.374 . S
C790 H764 0.950 . S
C790 C786 1.385 . S
C790 C789 1.374 . S
C791 C788 1.499 . S
C791 C792 1.373 . S
C791 C793 1.389 . S
C792 H765 0.950 . S
C792 C778 1.377 . S
C792 C791 1.373 . S
C793 C777 1.377 . S
C793 C791 1.389 . S
C793 C794 1.524 . S
C794 C793 1.524 . S
C794 C795 1.397 . S
C794 C799 1.363 . S
C795 H766 0.950 . S
C795 C794 1.397 . S
C795 C796 1.334 . S
C796 H767 0.950 . S
C796 C795 1.334 . S
C796 C797 1.287 . S
C797 C796 1.287 . S
C797 C798 1.524 . S
C797 H800 0.999 . S
C798 H768 0.950 . S
C798 C797 1.524 . S
C798 C799 1.415 . S
C799 H769 0.950 . S
C799 C794 1.363 . S
C799 C798 1.415 . S
H800 C797 0.999 . S
H801 C782 0.913 . S
H802 C820 0.951 . S
H803 C822 0.951 . S
H804 C824 0.963 . S
H805 C825 0.950 1_455 S
H806 C827 0.950 . S
H807 C830 0.950 . S
H808 C831 0.950 . S
H809 C833 0.950 . S
H810 C834 0.950 . S
H811 C835 0.951 . S
H812 C837 0.951 . S
H813 C839 0.950 . S
H814 C840 0.950 . S
H815 C842 0.950 . S
H816 C845 0.950 1_655 S
H817 C846 0.950 . S
H818 C848 0.950 . S
H819 C849 0.950 . S
C820 H802 0.951 . S
C820 C821 1.366 . S
C820 C822 1.388 . S
C821 C820 1.366 . S
C821 C825 1.385 . S
C822 H803 0.951 . S
C822 C820 1.388 . S
C822 C823 1.366 . S
C823 C822 1.366 . S
C823 C824 1.408 1_655 S
C823 C826 1.499 . S
C824 H804 0.963 . S
C824 C823 1.408 1_455 S
C824 C825 1.367 1_455 S
C825 H805 0.950 1_655 S
C825 C821 1.385 . S
C825 C824 1.367 1_655 S
C826 C823 1.499 . S
C826 C827 1.373 1_655 S
C826 C828 1.389 . S
C827 H806 0.950 . S
C827 C826 1.373 1_455 S
C827 C843 1.377 . S
C828 C826 1.389 . S
C828 C829 1.524 . S
C828 C842 1.377 . S
C829 C828 1.524 . S
C829 C830 1.397 . S
C829 C834 1.363 . S
C830 H807 0.950 . S
C830 C829 1.397 . S
C830 C831 1.334 . S
C831 H808 0.950 . S
C831 C830 1.334 . S
C831 C832 1.287 . S
C832 C831 1.287 . S
C832 C833 1.524 . S
C832 H851 0.913 . S
C833 H809 0.950 . S
C833 C832 1.524 . S
C833 C834 1.415 . S
C834 H810 0.950 . S
C834 C829 1.363 . S
C834 C833 1.415 . S
C835 H811 0.951 . S
C835 C836 1.366 1_455 S
C835 C837 1.388 . S
C836 C835 1.366 1_655 S
C836 C840 1.385 . S
C837 H812 0.951 . S
C837 C835 1.388 . S
C837 C838 1.366 1_455 S
C838 C837 1.366 1_655 S
C838 C839 1.414 . S
C838 C841 1.499 . S
C839 H813 0.950 . S
C839 C838 1.414 . S
C839 C840 1.374 . S
C840 H814 0.950 . S
C840 C836 1.385 . S
C840 C839 1.374 . S
C841 C838 1.499 . S
C841 C842 1.373 . S
C841 C843 1.389 1_655 S
C842 H815 0.950 . S
C842 C828 1.377 . S
C842 C841 1.373 . S
C843 C827 1.377 . S
C843 C841 1.389 1_455 S
C843 C844 1.524 . S
C844 C843 1.524 . S
C844 C845 1.397 . S
C844 C849 1.363 . S
C845 H816 0.950 1_455 S
C845 C844 1.397 . S
C845 C846 1.334 . S
C846 H817 0.950 . S
C846 C845 1.334 . S
C846 C847 1.287 . S
C847 C846 1.287 . S
C847 C848 1.524 . S
C847 H850 0.999 . S
C848 H818 0.950 . S
C848 C847 1.524 . S
C848 C849 1.415 . S
C849 H819 0.950 . S
C849 C844 1.363 . S
C849 C848 1.415 . S
H850 C847 0.999 . S
H851 C832 0.913 . S
H852 C870 0.951 . S
H853 C872 0.951 . S
H854 C874 0.950 . S
H855 C875 0.950 . S
H856 C877 0.950 1_545 S
H857 C880 0.950 . S
H858 C881 0.950 . S
H859 C883 0.950 . S
H860 C884 0.950 . S
H861 C885 0.951 . S
H862 C887 0.951 . S
H863 C889 0.950 . S
H864 C890 0.950 1_545 S
H865 C892 0.950 . S
H866 C895 0.950 . S
H867 C896 0.950 . S
H868 C898 0.950 . S
H869 C899 0.950 . S
C870 H852 0.951 . S
C870 C871 1.366 . S
C870 C872 1.388 . S
C871 C870 1.366 . S
C871 C875 1.385 . S
C872 H853 0.951 . S
C872 C870 1.388 . S
C872 C873 1.366 . S
C873 C872 1.366 . S
C873 C874 1.414 . S
C873 C876 1.499 . S
C874 H854 0.950 . S
C874 C873 1.414 . S
C874 C875 1.374 . S
C875 H855 0.950 . S
C875 C871 1.385 . S
C875 C874 1.374 . S
C876 C873 1.499 . S
C876 C877 1.373 . S
C876 C878 1.389 . S
C877 H856 0.950 1_565 S
C877 C876 1.373 . S
C877 C893 1.377 1_565 S
C878 C876 1.389 . S
C878 C879 1.524 . S
C878 C892 1.377 . S
C879 C878 1.524 . S
C879 C880 1.397 . S
C879 C884 1.363 . S
C880 H857 0.950 . S
C880 C879 1.397 . S
C880 C881 1.334 . S
C881 H858 0.950 . S
C881 C880 1.334 . S
C881 C882 1.287 . S
C882 C881 1.287 . S
C882 C883 1.524 . S
C882 H901 0.913 . S
C883 H859 0.950 . S
C883 C882 1.524 . S
C883 C884 1.415 . S
C884 H860 0.950 . S
C884 C879 1.363 . S
C884 C883 1.415 . S
C885 H861 0.951 . S
C885 C886 1.366 . S
C885 C887 1.388 . S
C886 C885 1.366 . S
C886 C890 1.385 . S
C887 H862 0.951 . S
C887 C885 1.388 . S
C887 C888 1.366 . S
C888 C887 1.366 . S
C888 C889 1.414 . S
C888 C891 1.499 . S
C889 H863 0.950 . S
C889 C888 1.414 . S
C889 C890 1.374 . S
C890 H864 0.950 1_565 S
C890 C886 1.385 . S
C890 C889 1.374 . S
C891 C888 1.499 . S
C891 C892 1.373 . S
C891 C893 1.389 1_565 S
C892 H865 0.950 . S
C892 C878 1.377 . S
C892 C891 1.373 . S
C893 C877 1.377 1_545 S
C893 C891 1.389 1_545 S
C893 C894 1.524 . S
C894 C893 1.524 . S
C894 C895 1.397 . S
C894 C899 1.363 . S
C895 H866 0.950 . S
C895 C894 1.397 . S
C895 C896 1.334 . S
C896 H867 0.950 . S
C896 C895 1.334 . S
C896 C897 1.287 . S
C897 C896 1.287 . S
C897 C898 1.524 . S
C897 H900 0.999 . S
C898 H868 0.950 . S
C898 C897 1.524 . S
C898 C899 1.415 . S
C899 H869 0.950 . S
C899 C894 1.363 . S
C899 C898 1.415 . S
H900 C897 0.999 . S
H901 C882 0.913 . S
H902 C920 0.951 . S
H903 C922 0.948 . S
H904 C924 0.950 . S
H905 C925 0.950 . S
H906 C927 0.950 . S
H907 C930 0.980 . S
H908 C931 0.950 . S
H909 C933 0.950 . S
H910 C934 0.950 . S
H911 C935 0.951 . S
H912 C937 0.951 . S
H913 C939 0.950 . S
H914 C940 0.950 . S
H915 C942 0.950 . S
H916 C945 0.950 . S
H917 C946 0.950 . S
H918 C948 0.950 . S
H919 C949 0.950 . S
C920 H902 0.951 . S
C920 C921 1.366 . S
C920 C922 1.383 . S
C921 C920 1.366 . S
C921 C925 1.385 1_554 S
C922 H903 0.948 . S
C922 C920 1.383 . S
C922 C923 1.372 1_554 S
C923 C922 1.372 1_556 S
C923 C924 1.414 . S
C923 C926 1.499 . S
C924 H904 0.950 . S
C924 C923 1.414 . S
C924 C925 1.374 . S
C925 H905 0.950 . S
C925 C921 1.385 1_556 S
C925 C924 1.374 . S
C926 C923 1.499 . S
C926 C927 1.373 . S
C926 C928 1.389 . S
C927 H906 0.950 . S
C927 C926 1.373 . S
C927 C943 1.377 . S
C928 C926 1.389 . S
C928 C929 1.524 . S
C928 C942 1.377 . S
C929 C928 1.524 . S
C929 C930 1.408 . S
C929 C934 1.363 1_556 S
C930 H907 0.980 . S
C930 C929 1.408 . S
C930 C931 1.294 1_556 S
C931 H908 0.950 . S
C931 C930 1.294 1_554 S
C931 C932 1.287 . S
C932 C931 1.287 . S
C932 C933 1.524 . S
C932 H951 0.913 . S
C933 H909 0.950 . S
C933 C932 1.524 . S
C933 C934 1.415 . S
C934 H910 0.950 . S
C934 C929 1.363 1_554 S
C934 C933 1.415 . S
C935 H911 0.951 . S
C935 C936 1.366 . S
C935 C937 1.388 . S
C936 C935 1.366 . S
C936 C940 1.385 . S
C937 H912 0.951 . S
C937 C935 1.388 . S
C937 C938 1.366 . S
C938 C937 1.366 . S
C938 C939 1.414 . S
C938 C941 1.499 . S
C939 H913 0.950 . S
C939 C938 1.414 . S
C939 C940 1.374 . S
C940 H914 0.950 . S
C940 C936 1.385 . S
C940 C939 1.374 . S
C941 C938 1.499 . S
C941 C942 1.373 . S
C941 C943 1.389 . S
C942 H915 0.950 . S
C942 C928 1.377 . S
C942 C941 1.373 . S
C943 C927 1.377 . S
C943 C941 1.389 . S
C943 C944 1.524 . S
C944 C943 1.524 . S
C944 C945 1.397 . S
C944 C949 1.363 . S
C945 H916 0.950 . S
C945 C944 1.397 . S
C945 C946 1.334 . S
C946 H917 0.950 . S
C946 C945 1.334 . S
C946 C947 1.287 . S
C947 C946 1.287 . S
C947 C948 1.524 . S
C947 H950 0.999 . S
C948 H918 0.950 . S
C948 C947 1.524 . S
C948 C949 1.415 . S
C949 H919 0.950 . S
C949 C944 1.363 . S
C949 C948 1.415 . S
H950 C947 0.999 . S
H951 C932 0.913 . S
H952 C970 0.951 1_655 S
H953 C972 0.951 1_655 S
H954 C974 0.950 . S
H955 C975 0.950 . S
H956 C977 0.950 . S
H957 C980 0.950 . S
H958 C981 0.950 . S
H959 C983 0.950 . S
H960 C984 0.950 . S
H961 C985 0.951 . S
H962 C987 0.951 . S
H963 C989 0.950 . S
H964 C990 0.950 . S
H965 C992 0.950 . S
H966 C995 0.950 . S
H967 C996 0.950 . S
H968 C998 0.950 . S
H969 C999 0.950 . S
C970 H952 0.951 1_455 S
C970 C971 1.366 . S
C970 C972 1.388 . S
C971 C970 1.366 . S
C971 C975 1.385 . S
C972 H953 0.951 1_455 S
C972 C970 1.388 . S
C972 C973 1.366 . S
C973 C972 1.366 . S
C973 C974 1.414 . S
C973 C976 1.499 . S
C974 H954 0.950 . S
C974 C973 1.414 . S
C974 C975 1.374 . S
C975 H955 0.950 . S
C975 C971 1.385 . S
C975 C974 1.374 . S
C976 C973 1.499 . S
C976 C977 1.373 . S
C976 C978 1.389 1_455 S
C977 H956 0.950 . S
C977 C976 1.373 . S
C977 C993 1.377 . S
C978 C976 1.389 1_655 S
C978 C979 1.524 . S
C978 C992 1.377 . S
C979 C978 1.524 . S
C979 C980 1.397 . S
C979 C984 1.363 . S
C980 H957 0.950 . S
C980 C979 1.397 . S
C980 C981 1.334 . S
C981 H958 0.950 . S
C981 C980 1.334 . S
C981 C982 1.287 . S
C982 C981 1.287 . S
C982 C983 1.524 . S
C982 H1001 0.913 . S
C983 H959 0.950 . S
C983 C982 1.524 . S
C983 C984 1.415 . S
C984 H960 0.950 . S
C984 C979 1.363 . S
C984 C983 1.415 . S
C985 H961 0.951 . S
C985 C986 1.366 . S
C985 C987 1.388 . S
C986 C985 1.366 . S
C986 C990 1.385 1_455 S
C987 H962 0.951 . S
C987 C985 1.388 . S
C987 C988 1.366 . S
C988 C987 1.366 . S
C988 C989 1.414 1_455 S
C988 C991 1.499 . S
C989 H963 0.950 . S
C989 C988 1.414 1_655 S
C989 C990 1.374 . S
C990 H964 0.950 . S
C990 C986 1.385 1_655 S
C990 C989 1.374 . S
C991 C988 1.499 . S
C991 C992 1.373 1_455 S
C991 C993 1.389 . S
C992 H965 0.950 . S
C992 C978 1.377 . S
C992 C991 1.373 1_655 S
C993 C977 1.377 . S
C993 C991 1.389 . S
C993 C994 1.524 . S
C994 C993 1.524 . S
C994 C995 1.397 . S
C994 C999 1.363 . S
C995 H966 0.950 . S
C995 C994 1.397 . S
C995 C996 1.334 . S
C996 H967 0.950 . S
C996 C995 1.334 . S
C996 C997 1.287 . S
C997 C996 1.287 . S
C997 C998 1.524 . S
C997 H1000 0.999 . S
C998 H968 0.950 . S
C998 C997 1.524 . S
C998 C999 1.415 . S
C999 H969 0.950 . S
C999 C994 1.363 . S
C999 C998 1.415 . S
H1000 C997 0.999 . S
H1001 C982 0.913 . S
C436 C272 1.386 . S
C421 C29 1.384 . S
C471 C137 1.387 . S
C486 C311 1.415 . S
C521 C225 1.387 . S
C536 C378 1.405 . S
C571 C49 1.387 . S
C586 C279 1.416 1_455 S
C636 C332 1.387 1_545 S
C621 C117 1.384 . S
C671 C205 1.387 . S
C686 C357 1.395 . S
C736 C318 1.398 . S
C721 C233 1.391 . S
C771 C57 1.387 . S
C786 C371 1.405 . S
C836 C286 1.402 1_655 S
C821 C108 1.390 . S
C886 C325 1.402 1_565 S
C871 C196 1.383 . S
C936 C364 1.398 . S
C921 C20 1.384 . S
C971 C145 1.387 . S
C986 C265 1.395 . S
