# Generated by pormake.
# Topology tsx, (6,3)-cn, num edge types: 1
# Building blocks:
#     Node 0, Type 0, BuildingBlock: VOLQOD_clean_sbu_1, # of connection points: 6
#     Node 1, Type 0, BuildingBlock: VOLQOD_clean_sbu_1, # of connection points: 6
#     Node 2, Type 1, BuildingBlock: PAMTOO_clean_linker_0, # of connection points: 3
#     Node 3, Type 1, BuildingBlock: PAMTOO_clean_linker_0, # of connection points: 3
#     Node 4, Type 1, BuildingBlock: PAMTOO_clean_linker_0, # of connection points: 3
#     Node 5, Type 1, BuildingBlock: PAMTOO_clean_linker_0, # of connection points: 3
#     Edge 6, Type (0, 1), BuildingBlock: TEMPAE_clean_linker_10, # of connection points: 2
#     Edge 7, Type (0, 1), BuildingBlock: TEMPAE_clean_linker_10, # of connection points: 2
#     Edge 8, Type (0, 1), BuildingBlock: TEMPAE_clean_linker_10, # of connection points: 2
#     Edge 9, Type (0, 1), BuildingBlock: TEMPAE_clean_linker_10, # of connection points: 2
#     Edge 10, Type (0, 1), BuildingBlock: TEMPAE_clean_linker_10, # of connection points: 2
#     Edge 11, Type (0, 1), BuildingBlock: TEMPAE_clean_linker_10, # of connection points: 2
#     Edge 12, Type (0, 1), BuildingBlock: TEMPAE_clean_linker_10, # of connection points: 2
#     Edge 13, Type (0, 1), BuildingBlock: TEMPAE_clean_linker_10, # of connection points: 2
#     Edge 14, Type (0, 1), BuildingBlock: TEMPAE_clean_linker_10, # of connection points: 2
#     Edge 15, Type (0, 1), BuildingBlock: TEMPAE_clean_linker_10, # of connection points: 2
#     Edge 16, Type (0, 1), BuildingBlock: TEMPAE_clean_linker_10, # of connection points: 2
#     Edge 17, Type (0, 1), BuildingBlock: TEMPAE_clean_linker_10, # of connection points: 2
# Relax obj value: 0.055
# Max RMSD: 0.113
# Mean RMSD: 0.101
data_MOF--net-tsx--node1-VOLQOD_clean_sbu_1--node2-PAMTOO_clean_linker_0--edge1-TEMPAE_clean_linker_10
_symmetry_space_group_name_H-M    P1
_symmetry_Int_Tables_number       1
_symmetry_cell_setting            triclinic
loop_
_symmetry_equiv_pos_as_xyz
'x, y, z'
_cell_length_a     21.42972
_cell_length_b     22.116624
_cell_length_c     37.901391
_cell_angle_alpha  82.160446
_cell_angle_beta   89.881159
_cell_angle_gamma 89.991739
loop_
_atom_site_label
_atom_site_type_symbol
_atom_site_fract_x
_atom_site_fract_y
_atom_site_fract_z
_atom_type_partial_charge
O0 O 0.06858 0.99589 0.08714 0.0
Zn1 Zn 0.09727 0.00244 0.03597 0.0
O2 O 0.02564 0.00783 0.00359 0.0
Zn3 Zn 0.0236 0.93631 0.97906 0.0
Zn4 Zn 0.94825 0.01154 0.03062 0.0
Zn5 Zn 0.0331 0.08015 0.96791 0.0
O6 O 0.01952 0.95934 0.92615 0.0
O7 O 0.03642 0.05914 0.91764 0.0
O8 O 0.15326 0.93054 0.02958 0.0
O9 O 0.1021 0.88856 0.98802 0.0
O10 O 0.94965 0.88253 0.9936 0.0
O11 O 0.891 0.94199 0.02312 0.0
O12 O 0.90206 0.08973 0.0154 0.0
O13 O 0.14885 0.07947 0.0265 0.0
O14 O 0.95922 0.13477 0.97047 0.0
O15 O 0.10754 0.13054 0.9776 0.0
C16 C 0.01544 0.0 0.10183 0.0
C17 C 0.02758 0.00897 0.90539 0.0
C18 C 0.89908 0.89326 0.00926 0.0
C19 C 0.14875 0.89053 0.00851 0.0
C20 C 0.91176 0.13388 0.99076 0.0
C21 C 0.14805 0.12565 0.00237 0.0
O22 O 0.9657 0.00685 0.08333 0.0
O23 O 0.56706 0.49007 0.58681 0.0
Zn24 Zn 0.59451 0.49616 0.53557 0.0
O25 O 0.52192 0.50024 0.50417 0.0
Zn26 Zn 0.523 0.42919 0.4787 0.0
Zn27 Zn 0.44435 0.50006 0.53162 0.0
Zn28 Zn 0.52601 0.57548 0.47059 0.0
O29 O 0.52262 0.45535 0.42603 0.0
O30 O 0.52486 0.55698 0.42005 0.0
O31 O 0.65201 0.42625 0.52848 0.0
O32 O 0.60026 0.37873 0.48965 0.0
O33 O 0.44837 0.37521 0.4908 0.0
O34 O 0.39303 0.42536 0.52695 0.0
O35 O 0.39127 0.57466 0.51596 0.0
O36 O 0.64608 0.57225 0.52561 0.0
O37 O 0.45302 0.62966 0.47676 0.0
O38 O 0.60198 0.62527 0.4783 0.0
C39 C 0.51409 0.49393 0.60173 0.0
C40 C 0.52342 0.50714 0.4068 0.0
C41 C 0.40037 0.37983 0.51008 0.0
C42 C 0.64759 0.3834 0.50933 0.0
C43 C 0.4028 0.62319 0.4948 0.0
C44 C 0.64449 0.61886 0.5019 0.0
O45 O 0.46385 0.49915 0.58364 0.0
H46 H 0.09602 0.92942 0.36559 0.0
H47 H 0.98829 0.09064 0.37459 0.0
H48 H 0.10778 0.01689 0.46031 0.0
H49 H 0.00701 0.06137 0.49091 0.0
C50 C 0.98082 0.08167 0.46698 0.0
O51 O 0.02341 0.09877 0.44006 0.0
H52 H 0.94809 0.0465 0.45938 0.0
C53 C 0.08257 0.96546 0.38073 0.0
C54 C 0.10743 0.96674 0.41496 0.0
C55 C 0.041 0.01069 0.3654 0.0
C56 C 0.02169 0.05631 0.38546 0.0
C57 C 0.0452 0.05754 0.41982 0.0
C58 C 0.08919 0.01409 0.43403 0.0
H59 H 0.12418 0.06598 0.63603 0.0
H60 H 0.97182 0.93962 0.63449 0.0
H61 H 0.06683 0.00721 0.53738 0.0
H62 H 0.935 0.99625 0.5256 0.0
C63 C 0.92222 0.96466 0.54978 0.0
O64 O 0.97546 0.93878 0.56563 0.0
H65 H 0.89709 0.99146 0.56823 0.0
C66 C 0.09467 0.03803 0.62158 0.0
C67 C 0.10149 0.04097 0.58452 0.0
C68 C 0.04848 0.00137 0.64004 0.0
C69 C 0.00803 0.96804 0.62086 0.0
C70 C 0.01465 0.97061 0.58391 0.0
C71 C 0.06169 0.00631 0.56587 0.0
H72 H 0.59759 0.42641 0.8663 0.0
H73 H 0.46677 0.57134 0.87511 0.0
H74 H 0.57307 0.4953 0.96628 0.0
H75 H 0.45865 0.52811 0.98987 0.0
C76 C 0.4394 0.55353 0.96503 0.0
O77 O 0.488 0.57473 0.94281 0.0
H78 H 0.40971 0.52164 0.95196 0.0
C79 C 0.5744 0.45692 0.88222 0.0
C80 C 0.59004 0.45487 0.9183 0.0
C81 C 0.53026 0.49877 0.86622 0.0
C82 C 0.50174 0.53931 0.88675 0.0
C83 C 0.51759 0.53789 0.92269 0.0
C84 C 0.56222 0.49649 0.93827 0.0
H85 H 0.59894 0.60182 0.13559 0.0
H86 H 0.45154 0.4704 0.13443 0.0
H87 H 0.51927 0.5667 0.03616 0.0
H88 H 0.37953 0.53417 0.03862 0.0
C89 C 0.38335 0.4939 0.05923 0.0
O90 O 0.44531 0.47969 0.06558 0.0
H91 H 0.36107 0.50547 0.08403 0.0
C92 C 0.56489 0.57899 0.12097 0.0
C93 C 0.563 0.59164 0.0836 0.0
C94 C 0.52383 0.53692 0.13986 0.0
C95 C 0.48362 0.50347 0.1207 0.0
C96 C 0.48296 0.51366 0.08347 0.0
C97 C 0.5217 0.55824 0.06492 0.0
C98 C 0.18393 0.23268 0.98231 0.0
C99 C 0.19089 0.17749 0.00514 0.0
C100 C 0.21811 0.28476 0.98769 0.0
C101 C 0.26047 0.28152 0.01646 0.0
C102 C 0.27025 0.2252 0.03839 0.0
C103 C 0.23528 0.17389 0.03251 0.0
C104 C 0.20647 0.34399 0.96369 0.0
C105 C 0.31556 0.21982 0.06912 0.0
C106 C 0.37863 0.40807 0.02163 0.0
C107 C 0.35052 0.4405 0.04676 0.0
C108 C 0.34958 0.35661 0.01104 0.0
C109 C 0.29064 0.3379 0.02554 0.0
C110 C 0.26092 0.37214 0.04974 0.0
C111 C 0.29122 0.42314 0.05999 0.0
C112 C 0.38262 0.32147 0.98507 0.0
C113 C 0.19761 0.3542 0.06536 0.0
H114 H 0.14995 0.23602 0.96099 0.0
H115 H 0.24138 0.13143 0.05015 0.0
H116 H 0.18271 0.37663 0.97902 0.0
H117 H 0.25125 0.36516 0.95384 0.0
H118 H 0.17693 0.33754 0.94044 0.0
H119 H 0.32179 0.17182 0.08169 0.0
H120 H 0.36175 0.23857 0.05999 0.0
H121 H 0.29836 0.24704 0.08967 0.0
H122 H 0.42405 0.42215 0.01088 0.0
H123 H 0.26892 0.44897 0.07884 0.0
H124 H 0.35166 0.31603 0.9623 0.0
H125 H 0.39417 0.27501 -0.00161 0.0
H126 H 0.42642 0.34419 0.97462 0.0
H127 H 0.16338 0.35131 0.04374 0.0
H128 H 0.17985 0.38706 0.08271 0.0
H129 H 0.2003 0.30835 0.08135 0.0
C130 C 0.2206 0.83791 0.97177 0.0
C131 C 0.19989 0.84721 0.00565 0.0
C132 C 0.26518 0.79326 0.96756 0.0
C133 C 0.28803 0.75564 0.99798 0.0
C134 C 0.2686 0.766 0.03244 0.0
C135 C 0.22518 0.81255 0.0359 0.0
C136 C 0.28594 0.78479 0.93043 0.0
C137 C 0.29087 0.72582 0.0654 0.0
C138 C 0.33586 0.60003 0.97675 0.0
C139 C 0.40082 0.60586 0.97434 0.0
C140 C 0.29891 0.64738 0.98637 0.0
C141 C 0.32763 0.70233 0.99308 0.0
C142 C 0.39346 0.70773 0.99184 0.0
C143 C 0.42942 0.65888 0.98303 0.0
C144 C 0.22898 0.63909 0.9885 0.0
C145 C 0.42575 0.76578 -0.00156 0.0
H146 H 0.20128 0.86534 0.94843 0.0
H147 H 0.20868 0.81978 0.06206 0.0
H148 H 0.33762 0.78321 0.92896 0.0
H149 H 0.26801 0.74071 0.92372 0.0
H150 H 0.26889 0.82194 0.91002 0.0
H151 H 0.27652 0.74365 0.09022 0.0
H152 H 0.27117 0.67931 0.06585 0.0
H153 H 0.3424 0.72137 0.06517 0.0
H154 H 0.31396 0.55813 0.97123 0.0
H155 H 0.47988 0.66255 0.98226 0.0
H156 H 0.20642 0.66987 0.96665 0.0
H157 H 0.21098 0.65154 0.01402 0.0
H158 H 0.21474 0.59144 0.98633 0.0
H159 H 0.41434 0.80277 0.97658 0.0
H160 H 0.4773 0.7605 -0.00015 0.0
H161 H 0.40894 0.78056 0.0236 0.0
C162 C 0.78923 0.86395 -0.00073 0.0
C163 C 0.84893 0.84768 0.01212 0.0
C164 C 0.7399 0.82187 0.00397 0.0
C165 C 0.75022 0.76344 0.02346 0.0
C166 C 0.81114 0.7464 0.03552 0.0
C167 C 0.86014 0.78852 0.02905 0.0
C168 C 0.67634 0.8407 0.98926 0.0
C169 C 0.82379 0.68524 0.0573 0.0
C170 C 0.61886 0.69138 0.08114 0.0
C171 C 0.6048 0.63959 0.06496 0.0
C172 C 0.6653 0.73245 0.06748 0.0
C173 C 0.69643 0.72356 0.03566 0.0
C174 C 0.67871 0.67458 0.01732 0.0
C175 C 0.63376 0.63247 0.03251 0.0
C176 C 0.68321 0.78353 0.08824 0.0
C177 C 0.7088 0.6652 0.98245 0.0
H178 H 0.78113 0.9097 0.98572 0.0
H179 H 0.90657 0.77634 0.03892 0.0
H180 H 0.65508 0.80354 0.97637 0.0
H181 H 0.64494 0.8496 0.01127 0.0
H182 H 0.67863 0.88271 0.96955 0.0
H183 H 0.87421 0.67798 0.06318 0.0
H184 H 0.79794 0.68203 0.0829 0.0
H185 H 0.80688 0.64781 0.0431 0.0
H186 H 0.59488 0.6989 0.10537 0.0
H187 H 0.62315 0.59293 0.01957 0.0
H188 H 0.67738 0.82833 0.07151 0.0
H189 H 0.73313 0.77917 0.09594 0.0
H190 H 0.65482 0.7835 0.11281 0.0
H191 H 0.71404 0.70933 0.96485 0.0
H192 H 0.68134 0.63346 0.96821 0.0
H193 H 0.75611 0.64567 0.98752 0.0
C194 C 0.87183 0.22898 0.95487 0.0
C195 C 0.8663 0.18456 0.98488 0.0
C196 C 0.82716 0.27514 0.94758 0.0
C197 C 0.77594 0.2772 0.97099 0.0
C198 C 0.77129 0.23408 0.00208 0.0
C199 C 0.81644 0.18801 0.0086 0.0
C200 C 0.83345 0.3202 0.91401 0.0
C201 C 0.71757 0.23542 0.02781 0.0
C202 C 0.68218 0.42392 0.95727 0.0
C203 C 0.63459 0.40831 0.93484 0.0
C204 C 0.72735 0.38087 0.97062 0.0
C205 C 0.72474 0.32123 0.96107 0.0
C206 C 0.6753 0.30465 0.93965 0.0
C207 C 0.63065 0.34832 0.92697 0.0
C208 C 0.77912 0.39985 0.99372 0.0
C209 C 0.67089 0.24144 0.92893 0.0
H210 H 0.91029 0.22687 0.93646 0.0
H211 H 0.81214 0.15421 0.03203 0.0
H212 H 0.79423 0.31406 0.89575 0.0
H213 H 0.83087 0.36761 0.92039 0.0
H214 H 0.878 0.31461 0.89976 0.0
H215 H 0.72407 0.20259 0.05244 0.0
H216 H 0.71191 0.28191 0.03526 0.0
H217 H 0.67358 0.22391 0.01485 0.0
H218 H 0.68538 0.4703 0.96337 0.0
H219 H 0.59301 0.33575 0.91033 0.0
H220 H 0.82395 0.40122 0.97895 0.0
H221 H 0.78442 0.36606 0.018 0.0
H222 H 0.77066 0.44556 0.00185 0.0
H223 H 0.71175 0.23306 0.91222 0.0
H224 H 0.62772 0.23507 0.91367 0.0
H225 H 0.67187 0.20646 0.95286 0.0
C226 C 0.74267 0.65864 0.52575 0.0
C227 C 0.69036 0.66839 0.50351 0.0
C228 C 0.78303 0.7067 0.53052 0.0
C229 C 0.77042 0.76601 0.51288 0.0
C230 C 0.71918 0.77574 0.4893 0.0
C231 C 0.67988 0.72669 0.48475 0.0
C232 C 0.83774 0.69446 0.55554 0.0
C233 C 0.7042 0.83847 0.47016 0.0
C234 C 0.8279 0.89679 0.55913 0.0
C235 C 0.8813 0.91523 0.53924 0.0
C236 C 0.79072 0.84898 0.55032 0.0
C237 C 0.80807 0.81849 0.52125 0.0
C238 C 0.86207 0.83708 0.50106 0.0
C239 C 0.89814 0.88539 0.51034 0.0
C240 C 0.73331 0.83058 0.57239 0.0
C241 C 0.88225 0.80532 0.47011 0.0
H242 H 0.75144 0.61361 0.54008 0.0
H243 H 0.63954 0.73464 0.46753 0.0
H244 H 0.88134 0.71274 0.54231 0.0
H245 H 0.8305 0.71819 0.57919 0.0
H246 H 0.84415 0.64498 0.56477 0.0
H247 H 0.66571 0.83751 0.45065 0.0
H248 H 0.69033 0.86883 0.48985 0.0
H249 H 0.74603 0.85895 0.45595 0.0
H250 H 0.81543 0.91964 0.5817 0.0
H251 H 0.93997 0.8996 0.4953 0.0
H252 H 0.73815 0.78279 0.58547 0.0
H253 H 0.69156 0.83246 0.55501 0.0
H254 H 0.72516 0.86039 0.59328 0.0
H255 H 0.89257 0.75667 0.47961 0.0
H256 H 0.92436 0.82662 0.45649 0.0
H257 H 0.84394 0.8063 0.45039 0.0
C258 C 0.76161 0.359 0.51262 0.0
C259 C 0.7 0.34032 0.50787 0.0
C260 C 0.81214 0.32065 0.50744 0.0
C261 C 0.80056 0.2618 0.49815 0.0
C262 C 0.73831 0.24187 0.49479 0.0
C263 C 0.68884 0.28168 0.49922 0.0
C264 C 0.87786 0.34388 0.51058 0.0
C265 C 0.72392 0.17885 0.48584 0.0
C266 C 0.91761 0.1768 0.44793 0.0
C267 C 0.94238 0.13488 0.47536 0.0
C268 C 0.87399 0.2208 0.45529 0.0
C269 C 0.85317 0.22142 0.49076 0.0
C270 C 0.87918 0.18004 0.51864 0.0
C271 C 0.92377 0.13753 0.5106 0.0
C272 C 0.84818 0.26488 0.4249 0.0
C273 C 0.85745 0.17832 0.55669 0.0
H274 H 0.77043 0.40457 0.51897 0.0
H275 H 0.64124 0.26698 0.49574 0.0
H276 H 0.90496 0.31178 0.52975 0.0
H277 H 0.90173 0.34653 0.48441 0.0
H278 H 0.87897 0.38977 0.51939 0.0
H279 H 0.67307 0.16896 0.48658 0.0
H280 H 0.74174 0.17438 0.45882 0.0
H281 H 0.74782 0.14378 0.50483 0.0
H282 H 0.93106 0.17407 0.4206 0.0
H283 H 0.94245 0.10474 0.53181 0.0
H284 H 0.8501 0.31226 0.43142 0.0
H285 H 0.79848 0.25402 0.42056 0.0
H286 H 0.8741 0.26295 0.39966 0.0
H287 H 0.8598 0.2245 0.5649 0.0
H288 H 0.88561 0.14649 0.57554 0.0
H289 H 0.80795 0.1635 0.55888 0.0
C290 C 0.35968 0.27979 0.49549 0.0
C291 C 0.3534 0.33016 0.51415 0.0
C292 C 0.31805 0.23039 0.50127 0.0
C293 C 0.26937 0.23128 0.52645 0.0
C294 C 0.26126 0.283 0.54426 0.0
C295 C 0.30325 0.33183 0.53783 0.0
C296 C 0.32761 0.17629 0.48149 0.0
C297 C 0.2098 0.28567 0.57131 0.0
C298 C 0.13103 0.12338 0.53538 0.0
C299 C 0.1481 0.08302 0.56561 0.0
C300 C 0.17168 0.16996 0.52074 0.0
C301 C 0.23038 0.17625 0.53695 0.0
C302 C 0.24931 0.13309 0.56601 0.0
C303 C 0.20796 0.08688 0.57991 0.0
C304 C 0.1501 0.21457 0.48944 0.0
C305 C 0.3117 0.13791 0.5839 0.0
H306 H 0.39793 0.27826 0.47688 0.0
H307 H 0.29767 0.37063 0.55221 0.0
H308 H 0.34356 0.1365 0.50034 0.0
H309 H 0.283 0.16324 0.46979 0.0
H310 H 0.36282 0.18564 0.45988 0.0
H311 H 0.20741 0.33071 0.58113 0.0
H312 H 0.16401 0.27629 0.55959 0.0
H313 H 0.21758 0.24994 0.59443 0.0
H314 H 0.08464 0.12071 0.52435 0.0
H315 H 0.22161 0.05496 0.6029 0.0
H316 H 0.18793 0.22394 0.46942 0.0
H317 H 0.13772 0.2585 0.49871 0.0
H318 H 0.10851 0.19753 0.47634 0.0
H319 H 0.34982 0.14233 0.56388 0.0
H320 H 0.32147 0.09775 0.60411 0.0
H321 H 0.31252 0.17951 0.59729 0.0
C322 C 0.37741 0.73366 0.48902 0.0
C323 C 0.35703 0.67324 0.49035 0.0
C324 C 0.33567 0.7825 0.48147 0.0
C325 C 0.27269 0.77052 0.47361 0.0
C326 C 0.25151 0.70936 0.47597 0.0
C327 C 0.29389 0.66128 0.48497 0.0
C328 C 0.35956 0.84693 0.48053 0.0
C329 C 0.1852 0.69472 0.46677 0.0
C330 C 0.15055 0.89644 0.46727 0.0
C331 C 0.15152 0.91814 0.43063 0.0
C332 C 0.19061 0.84931 0.48189 0.0
C333 C 0.23102 0.82171 0.45919 0.0
C334 C 0.23225 0.84324 0.42229 0.0
C335 C 0.19365 0.89193 0.40865 0.0
C336 C 0.18953 0.82895 0.52156 0.0
C337 C 0.27395 0.81442 0.39702 0.0
H338 H 0.42627 0.74268 0.49357 0.0
H339 H 0.27843 0.61443 0.48582 0.0
H340 H 0.3614 0.86964 0.45259 0.0
H341 H 0.32751 0.87388 0.49535 0.0
H342 H 0.40703 0.84817 0.49214 0.0
H343 H 0.17501 0.64508 0.47236 0.0
H344 H 0.15178 0.71955 0.48193 0.0
H345 H 0.17694 0.7101 0.43804 0.0
H346 H 0.11782 0.91553 0.48457 0.0
H347 H 0.19655 0.90931 0.38057 0.0
H348 H 0.23742 0.8299 0.53256 0.0
H349 H 0.17267 0.78119 0.5271 0.0
H350 H 0.1589 0.85817 0.53584 0.0
H351 H 0.3236 0.82084 0.40379 0.0
H352 H 0.26654 0.83415 0.36878 0.0
H353 H 0.26518 0.76454 0.39968 0.0
C354 C 0.95501 0.01016 0.15764 0.0
C355 C 0.01188 -0.00052 0.14103 0.0
C356 C 0.95186 0.01276 0.19446 0.0
C357 C 0.00681 0.00434 0.21519 0.0
C358 C 0.06412 0.99268 0.19871 0.0
C359 C 0.06597 0.99045 0.1619 0.0
C360 C 0.88993 0.02525 0.2111 0.0
C361 C 0.12376 0.98311 0.21992 0.0
C362 C 0.0256 0.06496 0.30361 0.0
C363 C 0.0212 0.01119 0.3278 0.0
C364 C 0.01773 0.06401 0.2669 0.0
C365 C 0.00513 0.00796 0.25414 0.0
C366 C 0.99669 0.95429 0.27866 0.0
C367 C 0.00475 0.95659 0.31519 0.0
C368 C 0.02668 0.12231 0.24163 0.0
C369 C 0.98272 0.89372 0.26621 0.0
H370 H 0.91293 0.01731 0.14181 0.0
H371 H 0.11013 0.98207 0.14945 0.0
H372 H 0.87858 0.98811 0.2329 0.0
H373 H 0.89272 0.06821 0.2231 0.0
H374 H 0.85123 0.02935 0.19146 0.0
H375 H 0.16431 0.97375 0.20318 0.0
H376 H 0.1342 0.02423 0.23268 0.0
H377 H 0.11822 0.94426 0.24154 0.0
H378 H 0.03865 0.10721 0.31316 0.0
H379 H 0.00026 0.91508 0.33386 0.0
H380 H 0.98783 0.12887 0.22219 0.0
H381 H 0.07048 0.11941 0.22629 0.0
H382 H 0.02942 0.16297 0.25585 0.0
H383 H 0.94333 0.89829 0.2471 0.0
H384 H 0.971 0.85779 0.28868 0.0
H385 H 0.02401 0.87848 0.25207 0.0
C386 C 0.03378 0.06171 0.84249 0.0
C387 C 0.02718 0.00771 0.86636 0.0
C388 C 0.03465 0.06057 0.80554 0.0
C389 C 0.02896 0.0041 0.79215 0.0
C390 C 0.02152 0.94958 0.81603 0.0
C391 C 0.02065 0.95203 0.8528 0.0
C392 C 0.04258 0.11967 0.78083 0.0
C393 C 0.01551 0.88847 0.80275 0.0
C394 C 0.98417 0.00503 0.69507 0.0
C395 C 0.04261 -0.00084 0.67919 0.0
C396 C 0.97889 0.00651 0.73189 0.0
C397 C 0.03332 0.00172 0.75322 0.0
C398 C 0.09227 0.9947 0.73739 0.0
C399 C 0.09618 0.99354 0.70058 0.0
C400 C 0.91526 0.01413 0.74787 0.0
C401 C 0.15132 0.98889 0.75928 0.0
H402 H 0.03864 0.10496 0.85266 0.0
H403 H 0.01544 0.91001 0.87094 0.0
H404 H 0.0865 0.11835 0.7654 0.0
H405 H 0.0037 0.12566 0.76139 0.0
H406 H 0.04398 0.15996 0.7954 0.0
H407 H 0.00798 0.85054 0.82476 0.0
H408 H 0.97598 0.88932 0.78384 0.0
H409 H 0.05841 0.87879 0.78806 0.0
H410 H 0.94275 0.00999 0.67856 0.0
H411 H 0.14135 0.9882 0.68844 0.0
H412 H 0.91406 0.05668 0.76035 0.0
H413 H 0.90561 0.97568 0.76919 0.0
H414 H 0.87746 0.01615 0.72773 0.0
H415 H 0.15772 0.03016 0.77256 0.0
H416 H 0.19339 0.98303 0.74291 0.0
H417 H 0.14776 0.94923 0.78053 0.0
C418 C 0.566 0.49082 0.66105 0.0
C419 C 0.51109 0.49441 0.64078 0.0
C420 C 0.56417 0.49292 0.69784 0.0
C421 C 0.50602 0.4987 0.71485 0.0
C422 C 0.45037 0.50222 0.69466 0.0
C423 C 0.45355 0.50003 0.65786 0.0
C424 C 0.62456 0.48889 0.71853 0.0
C425 C 0.38755 0.50828 0.71196 0.0
C426 C 0.50626 0.445 0.81405 0.0
C427 C 0.51547 0.4999 0.82796 0.0
C428 C 0.50044 0.44422 0.77731 0.0
C429 C 0.50386 0.49975 0.75393 0.0
C430 C 0.50992 0.55566 0.76793 0.0
C431 C 0.51558 0.55508 0.80488 0.0
C432 C 0.49352 0.38371 0.76344 0.0
C433 C 0.51354 0.61579 0.7438 0.0
H434 H 0.61069 0.4866 0.64817 0.0
H435 H 0.41083 0.50295 0.64247 0.0
H436 H 0.63014 0.52984 0.73219 0.0
H437 H 0.6236 0.44853 0.73942 0.0
H438 H 0.66593 0.48521 0.70124 0.0
H439 H 0.34869 0.51101 0.69245 0.0
H440 H 0.37929 0.46864 0.73273 0.0
H441 H 0.38668 0.54981 0.72539 0.0
H442 H 0.50515 0.40234 0.83194 0.0
H443 H 0.523 0.59755 0.81555 0.0
H444 H 0.53599 0.37438 0.74829 0.0
H445 H 0.45345 0.38512 0.74487 0.0
H446 H 0.48651 0.34529 0.78523 0.0
H447 H 0.55746 0.61777 0.72812 0.0
H448 H 0.51241 0.6554 0.75893 0.0
H449 H 0.47431 0.62004 0.72457 0.0
C450 C 0.46687 0.5224 0.34946 0.0
C451 C 0.52243 0.50919 0.36814 0.0
C452 C 0.46502 0.52363 0.3124 0.0
C453 C 0.52047 0.51265 0.29389 0.0
C454 C 0.57674 0.49917 0.3129 0.0
C455 C 0.57684 0.49696 0.35003 0.0
C456 C 0.404 0.53707 0.29306 0.0
C457 C 0.63699 0.4885 0.29396 0.0
C458 C 0.51207 0.47279 0.19971 0.0
C459 C 0.52212 0.52997 0.17944 0.0
C460 C 0.51038 0.46651 0.23706 0.0
C461 C 0.52037 0.51837 0.25447 0.0
C462 C 0.53066 0.57606 0.23424 0.0
C463 C 0.53041 0.58131 0.19704 0.0
C464 C 0.49806 0.40447 0.25789 0.0
C465 C 0.54234 0.6323 0.25188 0.0
H466 H 0.42487 0.53129 0.36392 0.0
H467 H 0.61959 0.48664 0.36491 0.0
H468 H 0.4077 0.58048 0.2747 0.0
H469 H 0.39328 0.50053 0.27663 0.0
H470 H 0.36448 0.54086 0.31165 0.0
H471 H 0.67638 0.47755 0.31277 0.0
H472 H 0.63132 0.45045 0.27797 0.0
H473 H 0.64928 0.52983 0.27522 0.0
H474 H 0.50621 0.43276 0.18646 0.0
H475 H 0.53646 0.626 0.18172 0.0
H476 H 0.45745 0.40685 0.27587 0.0
H477 H 0.53885 0.38974 0.27489 0.0
H478 H 0.48861 0.36926 0.2403 0.0
H479 H 0.50136 0.64158 0.26824 0.0
H480 H 0.5516 0.6734 0.23225 0.0
H481 H 0.58293 0.62467 0.27008 0.0
loop_
_geom_bond_atom_site_label_1
_geom_bond_atom_site_label_2
_geom_bond_distance
_geom_bond_site_symmetry_2
_ccdc_geom_bond_type
O0 Zn1 1.953 . S
O0 C16 1.220 1_565 S
Zn1 O0 1.953 . S
Zn1 O2 1.949 1_565 S
Zn1 O8 1.919 . S
Zn1 O13 1.924 1_565 S
O2 Zn1 1.949 1_545 S
O2 Zn3 1.923 1_544 S
O2 Zn4 1.950 1_455 S
O2 Zn5 1.945 1_554 S
Zn3 O2 1.923 1_566 S
Zn3 O6 1.933 . S
Zn3 O9 1.941 . S
Zn3 O10 1.965 1_455 S
Zn4 O2 1.950 1_655 S
Zn4 O11 1.938 1_545 S
Zn4 O12 1.906 . S
Zn4 O22 1.953 . S
Zn5 O2 1.945 1_556 S
Zn5 O7 1.932 . S
Zn5 O14 1.977 1_455 S
Zn5 O15 1.910 . S
O6 Zn3 1.933 . S
O6 C17 1.226 1_565 S
O7 Zn5 1.932 . S
O7 C17 1.307 . S
O8 Zn1 1.919 . S
O8 C19 1.253 . S
O9 Zn3 1.941 . S
O9 C19 1.283 1_556 S
O10 Zn3 1.965 1_655 S
O10 C18 1.303 1_556 S
O11 Zn4 1.938 1_565 S
O11 C18 1.247 . S
O12 Zn4 1.906 . S
O12 C20 1.304 1_554 S
O13 Zn1 1.924 1_545 S
O13 C21 1.311 . S
O14 Zn5 1.977 1_655 S
O14 C20 1.272 . S
O15 Zn5 1.910 . S
O15 C21 1.231 1_556 S
C16 O0 1.220 1_545 S
C16 O22 1.303 1_455 S
C17 O6 1.226 1_545 S
C17 O7 1.307 . S
C18 O10 1.303 1_554 S
C18 O11 1.247 . S
C19 O8 1.253 . S
C19 O9 1.283 1_554 S
C20 O12 1.304 1_556 S
C20 O14 1.272 . S
C21 O13 1.311 . S
C21 O15 1.231 1_554 S
O22 Zn4 1.953 . S
O22 C16 1.303 1_655 S
O23 Zn24 1.953 . S
O23 C39 1.225 . S
Zn24 O23 1.953 . S
Zn24 O25 1.949 . S
Zn24 O31 1.919 . S
Zn24 O36 1.924 . S
O25 Zn24 1.949 . S
O25 Zn26 1.923 . S
O25 Zn27 1.950 . S
O25 Zn28 1.945 . S
Zn26 O25 1.923 . S
Zn26 O29 1.933 . S
Zn26 O32 1.941 . S
Zn26 O33 1.965 . S
Zn27 O25 1.950 . S
Zn27 O34 1.938 . S
Zn27 O35 1.906 . S
Zn27 O45 1.953 . S
Zn28 O25 1.945 . S
Zn28 O30 1.932 . S
Zn28 O37 1.977 . S
Zn28 O38 1.910 . S
O29 Zn26 1.933 . S
O29 C40 1.226 . S
O30 Zn28 1.932 . S
O30 C40 1.307 . S
O31 Zn24 1.919 . S
O31 C42 1.253 . S
O32 Zn26 1.941 . S
O32 C42 1.283 . S
O33 Zn26 1.965 . S
O33 C41 1.303 . S
O34 Zn27 1.938 . S
O34 C41 1.247 . S
O35 Zn27 1.906 . S
O35 C43 1.304 . S
O36 Zn24 1.924 . S
O36 C44 1.311 . S
O37 Zn28 1.977 . S
O37 C43 1.272 . S
O38 Zn28 1.910 . S
O38 C44 1.231 . S
C39 O23 1.225 . S
C39 O45 1.298 . S
C40 O29 1.226 . S
C40 O30 1.307 . S
C41 O33 1.303 . S
C41 O34 1.247 . S
C42 O31 1.253 . S
C42 O32 1.283 . S
C43 O35 1.304 . S
C43 O37 1.272 . S
C44 O36 1.311 . S
C44 O38 1.231 . S
O45 Zn27 1.953 . S
O45 C39 1.298 . S
H46 C53 0.929 . S
H47 C56 0.930 . S
H48 C58 0.929 . S
H49 C50 0.969 . S
C50 H49 0.969 . S
C50 O51 1.550 . S
C50 H52 0.973 . S
O51 C50 1.550 . S
O51 C57 1.412 . S
H52 C50 0.973 . S
C53 H46 0.929 . S
C53 C54 1.400 . S
C53 C55 1.364 . S
C54 C53 1.400 . S
C54 C58 1.377 . S
C55 C53 1.364 . S
C55 C56 1.374 1_465 S
C56 H47 0.930 . S
C56 C55 1.374 1_645 S
C56 C57 1.383 . S
C57 O51 1.412 . S
C57 C56 1.383 . S
C57 C58 1.394 1_645 S
C58 H48 0.929 . S
C58 C54 1.377 . S
C58 C57 1.394 1_465 S
H59 C66 0.929 . S
H60 C69 0.930 1_655 S
H61 C71 0.929 . S
H62 C63 0.969 . S
C63 H62 0.969 . S
C63 O64 1.550 . S
C63 H65 0.973 . S
O64 C63 1.550 . S
O64 C70 1.412 1_665 S
H65 C63 0.973 . S
C66 H59 0.929 . S
C66 C67 1.400 . S
C66 C68 1.364 . S
C67 C66 1.400 . S
C67 C71 1.377 . S
C68 C66 1.364 . S
C68 C69 1.374 1_545 S
C69 H60 0.930 1_455 S
C69 C68 1.374 1_565 S
C69 C70 1.383 1_565 S
C70 O64 1.412 1_445 S
C70 C69 1.383 1_545 S
C70 C71 1.394 . S
C71 H61 0.929 . S
C71 C67 1.377 . S
C71 C70 1.394 . S
H72 C79 0.929 . S
H73 C82 0.930 . S
H74 C84 0.929 . S
H75 C76 0.969 . S
C76 H75 0.969 . S
C76 O77 1.550 . S
C76 H78 0.973 . S
O77 C76 1.550 . S
O77 C83 1.412 . S
H78 C76 0.973 . S
C79 H72 0.929 . S
C79 C80 1.400 . S
C79 C81 1.364 . S
C80 C79 1.400 . S
C80 C84 1.377 . S
C81 C79 1.364 . S
C81 C82 1.374 . S
C82 H73 0.930 . S
C82 C81 1.374 . S
C82 C83 1.383 . S
C83 O77 1.412 . S
C83 C82 1.383 . S
C83 C84 1.394 . S
C84 H74 0.929 . S
C84 C80 1.377 . S
C84 C83 1.394 . S
H85 C92 0.929 . S
H86 C95 0.930 . S
H87 C97 0.929 . S
H88 C89 0.969 . S
C89 H88 0.969 . S
C89 O90 1.550 . S
C89 H91 0.973 . S
O90 C89 1.550 . S
O90 C96 1.412 . S
H91 C89 0.973 . S
C92 H85 0.929 . S
C92 C93 1.400 . S
C92 C94 1.364 . S
C93 C92 1.400 . S
C93 C97 1.377 . S
C94 C92 1.364 . S
C94 C95 1.374 . S
C95 H86 0.930 . S
C95 C94 1.374 . S
C95 C96 1.383 . S
C96 O90 1.412 . S
C96 C95 1.383 . S
C96 C97 1.394 . S
C97 H87 0.929 . S
C97 C93 1.377 . S
C97 C96 1.394 . S
C98 C99 1.391 . S
C98 C100 1.394 . S
C98 H114 0.931 1_554 S
C99 C98 1.391 . S
C99 C103 1.376 . S
C100 C98 1.394 . S
C100 C101 1.369 . S
C100 C104 1.531 1_554 S
C101 C100 1.369 . S
C101 C102 1.410 . S
C101 C109 1.503 . S
C102 C101 1.410 . S
C102 C103 1.392 . S
C102 C105 1.511 . S
C103 C99 1.376 . S
C103 C102 1.392 . S
C103 H115 0.929 . S
C104 C100 1.531 1_556 S
C104 H116 0.960 . S
C104 H117 0.962 . S
C104 H118 0.960 . S
C105 C102 1.511 . S
C105 H119 0.961 . S
C105 H120 0.961 . S
C105 H121 0.961 . S
C106 C107 1.370 . S
C106 C108 1.363 . S
C106 H122 0.931 . S
C107 C106 1.370 . S
C107 C111 1.408 . S
C108 C106 1.363 . S
C108 C109 1.370 . S
C108 C112 1.524 . S
C109 C101 1.503 . S
C109 C108 1.370 . S
C109 C110 1.403 . S
C110 C109 1.403 . S
C110 C111 1.404 . S
C110 C113 1.539 . S
C111 C107 1.408 . S
C111 C110 1.404 . S
C111 H123 0.930 . S
C112 C108 1.524 . S
C112 H124 0.956 . S
C112 H125 0.961 . S
C112 H126 0.961 . S
C113 C110 1.539 . S
C113 H127 0.958 1_554 S
C113 H128 0.961 . S
C113 H129 0.960 . S
H114 C98 0.931 1_556 S
H115 C103 0.929 . S
H116 C104 0.960 . S
H117 C104 0.962 . S
H118 C104 0.960 . S
H119 C105 0.961 . S
H120 C105 0.961 . S
H121 C105 0.961 . S
H122 C106 0.931 . S
H123 C111 0.930 . S
H124 C112 0.956 . S
H125 C112 0.961 . S
H126 C112 0.961 . S
H127 C113 0.958 1_556 S
H128 C113 0.961 . S
H129 C113 0.960 . S
C130 C131 1.391 . S
C130 C132 1.394 . S
C130 H146 0.931 . S
C131 C130 1.391 . S
C131 C135 1.376 1_556 S
C132 C130 1.394 . S
C132 C133 1.369 . S
C132 C136 1.531 . S
C133 C132 1.369 . S
C133 C134 1.410 1_556 S
C133 C141 1.503 . S
C134 C133 1.410 1_554 S
C134 C135 1.392 . S
C134 C137 1.511 . S
C135 C131 1.376 1_554 S
C135 C134 1.392 . S
C135 H147 0.929 . S
C136 C132 1.531 . S
C136 H148 0.960 . S
C136 H149 0.962 . S
C136 H150 0.960 . S
C137 C134 1.511 . S
C137 H151 0.961 . S
C137 H152 0.961 . S
C137 H153 0.961 . S
C138 C139 1.370 . S
C138 C140 1.363 . S
C138 H154 0.931 . S
C139 C138 1.370 . S
C139 C143 1.408 . S
C140 C138 1.363 . S
C140 C141 1.370 . S
C140 C144 1.524 . S
C141 C133 1.503 . S
C141 C140 1.370 . S
C141 C142 1.403 . S
C142 C141 1.403 . S
C142 C143 1.404 . S
C142 C145 1.539 . S
C143 C139 1.408 . S
C143 C142 1.404 . S
C143 H155 0.930 . S
C144 C140 1.524 . S
C144 H156 0.956 . S
C144 H157 0.961 . S
C144 H158 0.961 . S
C145 C142 1.539 . S
C145 H159 0.958 . S
C145 H160 0.961 . S
C145 H161 0.960 . S
H146 C130 0.931 . S
H147 C135 0.929 . S
H148 C136 0.960 . S
H149 C136 0.962 . S
H150 C136 0.960 . S
H151 C137 0.961 . S
H152 C137 0.961 . S
H153 C137 0.961 . S
H154 C138 0.931 . S
H155 C143 0.930 . S
H156 C144 0.956 . S
H157 C144 0.961 . S
H158 C144 0.961 . S
H159 C145 0.958 . S
H160 C145 0.961 . S
H161 C145 0.960 . S
C162 C163 1.391 . S
C162 C164 1.394 . S
C162 H178 0.931 . S
C163 C162 1.391 . S
C163 C167 1.376 . S
C164 C162 1.394 . S
C164 C165 1.369 . S
C164 C168 1.531 . S
C165 C164 1.369 . S
C165 C166 1.410 . S
C165 C173 1.503 . S
C166 C165 1.410 . S
C166 C167 1.392 . S
C166 C169 1.511 . S
C167 C163 1.376 . S
C167 C166 1.392 . S
C167 H179 0.929 . S
C168 C164 1.531 . S
C168 H180 0.960 . S
C168 H181 0.962 . S
C168 H182 0.960 . S
C169 C166 1.511 . S
C169 H183 0.961 . S
C169 H184 0.961 . S
C169 H185 0.961 . S
C170 C171 1.370 . S
C170 C172 1.363 . S
C170 H186 0.931 . S
C171 C170 1.370 . S
C171 C175 1.408 . S
C172 C170 1.363 . S
C172 C173 1.370 . S
C172 C176 1.524 . S
C173 C165 1.503 . S
C173 C172 1.370 . S
C173 C174 1.403 . S
C174 C173 1.403 . S
C174 C175 1.404 . S
C174 C177 1.539 1_554 S
C175 C171 1.408 . S
C175 C174 1.404 . S
C175 H187 0.930 . S
C176 C172 1.524 . S
C176 H188 0.956 . S
C176 H189 0.961 . S
C176 H190 0.961 . S
C177 C174 1.539 1_556 S
C177 H191 0.958 . S
C177 H192 0.961 . S
C177 H193 0.960 . S
H178 C162 0.931 . S
H179 C167 0.929 . S
H180 C168 0.960 . S
H181 C168 0.962 . S
H182 C168 0.960 . S
H183 C169 0.961 . S
H184 C169 0.961 . S
H185 C169 0.961 . S
H186 C170 0.931 . S
H187 C175 0.930 . S
H188 C176 0.956 . S
H189 C176 0.961 . S
H190 C176 0.961 . S
H191 C177 0.958 . S
H192 C177 0.961 . S
H193 C177 0.960 . S
C194 C195 1.391 . S
C194 C196 1.394 . S
C194 H210 0.931 . S
C195 C194 1.391 . S
C195 C199 1.376 . S
C196 C194 1.394 . S
C196 C197 1.369 . S
C196 C200 1.531 . S
C197 C196 1.369 . S
C197 C198 1.410 . S
C197 C205 1.503 . S
C198 C197 1.410 . S
C198 C199 1.392 . S
C198 C201 1.511 . S
C199 C195 1.376 . S
C199 C198 1.392 . S
C199 H211 0.929 1_556 S
C200 C196 1.531 . S
C200 H212 0.960 . S
C200 H213 0.962 . S
C200 H214 0.960 . S
C201 C198 1.511 . S
C201 H215 0.961 1_556 S
C201 H216 0.966 . S
C201 H217 0.961 . S
C202 C203 1.370 . S
C202 C204 1.363 . S
C202 H218 0.931 . S
C203 C202 1.370 . S
C203 C207 1.408 . S
C204 C202 1.363 . S
C204 C205 1.370 . S
C204 C208 1.524 . S
C205 C197 1.503 . S
C205 C204 1.370 . S
C205 C206 1.403 . S
C206 C205 1.403 . S
C206 C207 1.404 . S
C206 C209 1.539 . S
C207 C203 1.408 . S
C207 C206 1.404 . S
C207 H219 0.930 . S
C208 C204 1.524 . S
C208 H220 0.956 . S
C208 H221 0.961 1_556 S
C208 H222 0.961 1_556 S
C209 C206 1.539 . S
C209 H223 0.958 . S
C209 H224 0.961 . S
C209 H225 0.960 . S
H210 C194 0.931 . S
H211 C199 0.929 1_554 S
H212 C200 0.960 . S
H213 C200 0.962 . S
H214 C200 0.960 . S
H215 C201 0.961 1_554 S
H216 C201 0.966 . S
H217 C201 0.961 . S
H218 C202 0.931 . S
H219 C207 0.930 . S
H220 C208 0.956 . S
H221 C208 0.961 1_554 S
H222 C208 0.961 1_554 S
H223 C209 0.958 . S
H224 C209 0.961 . S
H225 C209 0.960 . S
C226 C227 1.391 . S
C226 C228 1.394 . S
C226 H242 0.931 . S
C227 C226 1.391 . S
C227 C231 1.376 . S
C228 C226 1.394 . S
C228 C229 1.369 . S
C228 C232 1.531 . S
C229 C228 1.369 . S
C229 C230 1.410 . S
C229 C237 1.503 . S
C230 C229 1.410 . S
C230 C231 1.392 . S
C230 C233 1.511 . S
C231 C227 1.376 . S
C231 C230 1.392 . S
C231 H243 0.929 . S
C232 C228 1.531 . S
C232 H244 0.960 . S
C232 H245 0.962 . S
C232 H246 0.960 . S
C233 C230 1.511 . S
C233 H247 0.961 . S
C233 H248 0.961 . S
C233 H249 0.961 . S
C234 C235 1.370 . S
C234 C236 1.363 . S
C234 H250 0.931 . S
C235 C234 1.370 . S
C235 C239 1.408 . S
C236 C234 1.363 . S
C236 C237 1.370 . S
C236 C240 1.524 . S
C237 C229 1.503 . S
C237 C236 1.370 . S
C237 C238 1.403 . S
C238 C237 1.403 . S
C238 C239 1.404 . S
C238 C241 1.539 . S
C239 C235 1.408 . S
C239 C238 1.404 . S
C239 H251 0.930 . S
C240 C236 1.524 . S
C240 H252 0.956 . S
C240 H253 0.961 . S
C240 H254 0.961 . S
C241 C238 1.539 . S
C241 H255 0.958 . S
C241 H256 0.961 . S
C241 H257 0.960 . S
H242 C226 0.931 . S
H243 C231 0.929 . S
H244 C232 0.960 . S
H245 C232 0.962 . S
H246 C232 0.960 . S
H247 C233 0.961 . S
H248 C233 0.961 . S
H249 C233 0.961 . S
H250 C234 0.931 . S
H251 C239 0.930 . S
H252 C240 0.956 . S
H253 C240 0.961 . S
H254 C240 0.961 . S
H255 C241 0.958 . S
H256 C241 0.961 . S
H257 C241 0.960 . S
C258 C259 1.391 . S
C258 C260 1.394 . S
C258 H274 0.931 . S
C259 C258 1.391 . S
C259 C263 1.376 . S
C260 C258 1.394 . S
C260 C261 1.369 . S
C260 C264 1.531 . S
C261 C260 1.369 . S
C261 C262 1.410 . S
C261 C269 1.503 . S
C262 C261 1.410 . S
C262 C263 1.392 . S
C262 C265 1.511 . S
C263 C259 1.376 . S
C263 C262 1.392 . S
C263 H275 0.929 . S
C264 C260 1.531 . S
C264 H276 0.960 . S
C264 H277 0.962 . S
C264 H278 0.960 . S
C265 C262 1.511 . S
C265 H279 0.961 . S
C265 H280 0.961 . S
C265 H281 0.961 . S
C266 C267 1.370 . S
C266 C268 1.363 . S
C266 H282 0.931 . S
C267 C266 1.370 . S
C267 C271 1.408 . S
C268 C266 1.363 . S
C268 C269 1.370 . S
C268 C272 1.524 . S
C269 C261 1.503 . S
C269 C268 1.370 . S
C269 C270 1.403 . S
C270 C269 1.403 . S
C270 C271 1.404 . S
C270 C273 1.539 . S
C271 C267 1.408 . S
C271 C270 1.404 . S
C271 H283 0.930 . S
C272 C268 1.524 . S
C272 H284 0.956 . S
C272 H285 0.961 . S
C272 H286 0.961 . S
C273 C270 1.539 . S
C273 H287 0.958 . S
C273 H288 0.961 . S
C273 H289 0.960 . S
H274 C258 0.931 . S
H275 C263 0.929 . S
H276 C264 0.960 . S
H277 C264 0.962 . S
H278 C264 0.960 . S
H279 C265 0.961 . S
H280 C265 0.961 . S
H281 C265 0.961 . S
H282 C266 0.931 . S
H283 C271 0.930 . S
H284 C272 0.956 . S
H285 C272 0.961 . S
H286 C272 0.961 . S
H287 C273 0.958 . S
H288 C273 0.961 . S
H289 C273 0.960 . S
C290 C291 1.391 . S
C290 C292 1.394 . S
C290 H306 0.931 . S
C291 C290 1.391 . S
C291 C295 1.376 . S
C292 C290 1.394 . S
C292 C293 1.369 . S
C292 C296 1.531 . S
C293 C292 1.369 . S
C293 C294 1.410 . S
C293 C301 1.503 . S
C294 C293 1.410 . S
C294 C295 1.392 . S
C294 C297 1.511 . S
C295 C291 1.376 . S
C295 C294 1.392 . S
C295 H307 0.929 . S
C296 C292 1.531 . S
C296 H308 0.960 . S
C296 H309 0.962 . S
C296 H310 0.960 . S
C297 C294 1.511 . S
C297 H311 0.961 . S
C297 H312 0.961 . S
C297 H313 0.961 . S
C298 C299 1.370 . S
C298 C300 1.363 . S
C298 H314 0.931 . S
C299 C298 1.370 . S
C299 C303 1.408 . S
C300 C298 1.363 . S
C300 C301 1.370 . S
C300 C304 1.524 . S
C301 C293 1.503 . S
C301 C300 1.370 . S
C301 C302 1.403 . S
C302 C301 1.403 . S
C302 C303 1.404 . S
C302 C305 1.539 . S
C303 C299 1.408 . S
C303 C302 1.404 . S
C303 H315 0.930 . S
C304 C300 1.524 . S
C304 H316 0.956 . S
C304 H317 0.961 . S
C304 H318 0.961 . S
C305 C302 1.539 . S
C305 H319 0.958 . S
C305 H320 0.961 . S
C305 H321 0.960 . S
H306 C290 0.931 . S
H307 C295 0.929 . S
H308 C296 0.960 . S
H309 C296 0.962 . S
H310 C296 0.960 . S
H311 C297 0.961 . S
H312 C297 0.961 . S
H313 C297 0.961 . S
H314 C298 0.931 . S
H315 C303 0.930 . S
H316 C304 0.956 . S
H317 C304 0.961 . S
H318 C304 0.961 . S
H319 C305 0.958 . S
H320 C305 0.961 . S
H321 C305 0.960 . S
C322 C323 1.391 . S
C322 C324 1.394 . S
C322 H338 0.931 . S
C323 C322 1.391 . S
C323 C327 1.376 . S
C324 C322 1.394 . S
C324 C325 1.369 . S
C324 C328 1.531 . S
C325 C324 1.369 . S
C325 C326 1.410 . S
C325 C333 1.503 . S
C326 C325 1.410 . S
C326 C327 1.392 . S
C326 C329 1.511 . S
C327 C323 1.376 . S
C327 C326 1.392 . S
C327 H339 0.929 . S
C328 C324 1.531 . S
C328 H340 0.960 . S
C328 H341 0.962 . S
C328 H342 0.960 . S
C329 C326 1.511 . S
C329 H343 0.961 . S
C329 H344 0.961 . S
C329 H345 0.961 . S
C330 C331 1.370 . S
C330 C332 1.363 . S
C330 H346 0.931 . S
C331 C330 1.370 . S
C331 C335 1.408 . S
C332 C330 1.363 . S
C332 C333 1.370 . S
C332 C336 1.524 . S
C333 C325 1.503 . S
C333 C332 1.370 . S
C333 C334 1.403 . S
C334 C333 1.403 . S
C334 C335 1.404 . S
C334 C337 1.539 . S
C335 C331 1.408 . S
C335 C334 1.404 . S
C335 H347 0.930 . S
C336 C332 1.524 . S
C336 H348 0.956 . S
C336 H349 0.961 . S
C336 H350 0.961 . S
C337 C334 1.539 . S
C337 H351 0.958 . S
C337 H352 0.961 . S
C337 H353 0.960 . S
H338 C322 0.931 . S
H339 C327 0.929 . S
H340 C328 0.960 . S
H341 C328 0.962 . S
H342 C328 0.960 . S
H343 C329 0.961 . S
H344 C329 0.961 . S
H345 C329 0.961 . S
H346 C330 0.931 . S
H347 C335 0.930 . S
H348 C336 0.956 . S
H349 C336 0.961 . S
H350 C336 0.961 . S
H351 C337 0.958 . S
H352 C337 0.961 . S
H353 C337 0.960 . S
C354 C355 1.391 1_655 S
C354 C356 1.394 . S
C354 H370 0.931 . S
C355 C354 1.391 1_455 S
C355 C359 1.376 . S
C356 C354 1.394 . S
C356 C357 1.369 1_655 S
C356 C360 1.531 . S
C357 C356 1.369 1_455 S
C357 C358 1.410 . S
C357 C365 1.503 . S
C358 C357 1.410 . S
C358 C359 1.392 . S
C358 C361 1.511 . S
C359 C355 1.376 . S
C359 C358 1.392 . S
C359 H371 0.928 1_565 S
C360 C356 1.531 . S
C360 H372 0.960 . S
C360 H373 0.962 1_565 S
C360 H374 0.960 . S
C361 C358 1.511 . S
C361 H375 0.961 1_565 S
C361 H376 0.961 1_565 S
C361 H377 0.961 . S
C362 C363 1.370 1_545 S
C362 C364 1.363 . S
C362 H378 0.931 . S
C363 C362 1.370 1_565 S
C363 C367 1.408 . S
C364 C362 1.363 . S
C364 C365 1.370 1_545 S
C364 C368 1.524 . S
C365 C357 1.503 . S
C365 C364 1.370 1_565 S
C365 C366 1.403 . S
C366 C365 1.403 . S
C366 C367 1.404 . S
C366 C369 1.539 . S
C367 C363 1.408 . S
C367 C366 1.404 . S
C367 H379 0.930 . S
C368 C364 1.524 . S
C368 H380 0.956 1_455 S
C368 H381 0.961 . S
C368 H382 0.961 . S
C369 C366 1.539 . S
C369 H383 0.972 . S
C369 H384 0.961 . S
C369 H385 0.960 . S
H370 C354 0.931 . S
H371 C359 0.928 1_545 S
H372 C360 0.960 . S
H373 C360 0.962 1_545 S
H374 C360 0.960 . S
H375 C361 0.961 1_545 S
H376 C361 0.961 1_545 S
H377 C361 0.961 . S
H378 C362 0.931 . S
H379 C367 0.930 . S
H380 C368 0.956 1_655 S
H381 C368 0.961 . S
H382 C368 0.961 . S
H383 C369 0.972 . S
H384 C369 0.961 . S
H385 C369 0.960 . S
C386 C387 1.391 . S
C386 C388 1.394 . S
C386 H402 0.931 . S
C387 C386 1.391 . S
C387 C391 1.376 1_545 S
C388 C386 1.394 . S
C388 C389 1.369 . S
C388 C392 1.531 . S
C389 C388 1.369 . S
C389 C390 1.410 1_545 S
C389 C397 1.503 . S
C390 C389 1.410 1_565 S
C390 C391 1.392 . S
C390 C393 1.511 . S
C391 C387 1.376 1_565 S
C391 C390 1.392 . S
C391 H403 0.929 . S
C392 C388 1.531 . S
C392 H404 0.960 . S
C392 H405 0.962 . S
C392 H406 0.960 . S
C393 C390 1.511 . S
C393 H407 0.961 . S
C393 H408 0.961 . S
C393 H409 0.961 . S
C394 C395 1.370 1_655 S
C394 C396 1.363 . S
C394 H410 0.931 . S
C395 C394 1.370 1_455 S
C395 C399 1.408 . S
C396 C394 1.363 . S
C396 C397 1.370 1_655 S
C396 C400 1.524 . S
C397 C389 1.503 . S
C397 C396 1.370 1_455 S
C397 C398 1.403 . S
C398 C397 1.403 . S
C398 C399 1.404 . S
C398 C401 1.539 . S
C399 C395 1.408 . S
C399 C398 1.404 . S
C399 H411 0.930 . S
C400 C396 1.524 . S
C400 H412 0.956 . S
C400 H413 0.961 . S
C400 H414 0.961 . S
C401 C398 1.539 . S
C401 H415 0.958 . S
C401 H416 0.961 1_545 S
C401 H417 0.960 1_545 S
H402 C386 0.931 . S
H403 C391 0.929 . S
H404 C392 0.960 . S
H405 C392 0.962 . S
H406 C392 0.960 . S
H407 C393 0.961 . S
H408 C393 0.961 . S
H409 C393 0.961 . S
H410 C394 0.931 . S
H411 C399 0.930 . S
H412 C400 0.956 . S
H413 C400 0.961 . S
H414 C400 0.961 . S
H415 C401 0.958 . S
H416 C401 0.961 1_565 S
H417 C401 0.960 1_565 S
C418 C419 1.391 . S
C418 C420 1.394 . S
C418 H434 0.931 . S
C419 C418 1.391 . S
C419 C423 1.376 . S
C420 C418 1.394 . S
C420 C421 1.369 . S
C420 C424 1.531 . S
C421 C420 1.369 . S
C421 C422 1.410 . S
C421 C429 1.503 . S
C422 C421 1.410 . S
C422 C423 1.392 . S
C422 C425 1.511 . S
C423 C419 1.376 . S
C423 C422 1.392 . S
C423 H435 0.929 . S
C424 C420 1.531 . S
C424 H436 0.960 . S
C424 H437 0.962 . S
C424 H438 0.960 . S
C425 C422 1.511 . S
C425 H439 0.961 . S
C425 H440 0.961 . S
C425 H441 0.961 . S
C426 C427 1.370 . S
C426 C428 1.363 . S
C426 H442 0.931 . S
C427 C426 1.370 . S
C427 C431 1.408 . S
C428 C426 1.363 . S
C428 C429 1.370 . S
C428 C432 1.524 . S
C429 C421 1.503 . S
C429 C428 1.370 . S
C429 C430 1.403 . S
C430 C429 1.403 . S
C430 C431 1.404 . S
C430 C433 1.539 . S
C431 C427 1.408 . S
C431 C430 1.404 . S
C431 H443 0.930 . S
C432 C428 1.524 . S
C432 H444 0.956 . S
C432 H445 0.961 . S
C432 H446 0.961 . S
C433 C430 1.539 . S
C433 H447 0.958 . S
C433 H448 0.961 . S
C433 H449 0.960 . S
H434 C418 0.931 . S
H435 C423 0.929 . S
H436 C424 0.960 . S
H437 C424 0.962 . S
H438 C424 0.960 . S
H439 C425 0.961 . S
H440 C425 0.961 . S
H441 C425 0.961 . S
H442 C426 0.931 . S
H443 C431 0.930 . S
H444 C432 0.956 . S
H445 C432 0.961 . S
H446 C432 0.961 . S
H447 C433 0.958 . S
H448 C433 0.961 . S
H449 C433 0.960 . S
C450 C451 1.391 . S
C450 C452 1.394 . S
C450 H466 0.931 . S
C451 C450 1.391 . S
C451 C455 1.376 . S
C452 C450 1.394 . S
C452 C453 1.369 . S
C452 C456 1.531 . S
C453 C452 1.369 . S
C453 C454 1.410 . S
C453 C461 1.503 . S
C454 C453 1.410 . S
C454 C455 1.392 . S
C454 C457 1.511 . S
C455 C451 1.376 . S
C455 C454 1.392 . S
C455 H467 0.929 . S
C456 C452 1.531 . S
C456 H468 0.960 . S
C456 H469 0.962 . S
C456 H470 0.960 . S
C457 C454 1.511 . S
C457 H471 0.961 . S
C457 H472 0.961 . S
C457 H473 0.961 . S
C458 C459 1.370 . S
C458 C460 1.363 . S
C458 H474 0.931 . S
C459 C458 1.370 . S
C459 C463 1.408 . S
C460 C458 1.363 . S
C460 C461 1.370 . S
C460 C464 1.524 . S
C461 C453 1.503 . S
C461 C460 1.370 . S
C461 C462 1.403 . S
C462 C461 1.403 . S
C462 C463 1.404 . S
C462 C465 1.539 . S
C463 C459 1.408 . S
C463 C462 1.404 . S
C463 H475 0.930 . S
C464 C460 1.524 . S
C464 H476 0.956 . S
C464 H477 0.961 . S
C464 H478 0.961 . S
C465 C462 1.539 . S
C465 H479 0.958 . S
C465 H480 0.961 . S
C465 H481 0.960 . S
H466 C450 0.931 . S
H467 C455 0.929 . S
H468 C456 0.960 . S
H469 C456 0.962 . S
H470 C456 0.960 . S
H471 C457 0.961 . S
H472 C457 0.961 . S
H473 C457 0.961 . S
H474 C458 0.931 . S
H475 C463 0.930 . S
H476 C464 0.956 . S
H477 C464 0.961 . S
H478 C464 0.961 . S
H479 C465 0.958 . S
H480 C465 0.961 . S
H481 C465 0.960 . S
C107 C89 1.327 . S
C99 C21 1.409 . S
C131 C19 1.418 1_556 S
C139 C76 1.342 . S
C163 C18 1.470 . S
C171 C93 1.505 . S
C195 C20 1.521 . S
C203 C80 1.507 . S
C227 C44 1.401 . S
C235 C63 1.340 . S
C259 C42 1.393 . S
C267 C50 1.347 . S
C299 C67 1.498 . S
C291 C41 1.499 . S
C331 C54 1.505 . S
C323 C43 1.517 . S
C355 C16 1.526 1_565 S
C363 C55 1.520 . S
C387 C17 1.494 . S
C395 C68 1.491 . S
C427 C81 1.526 . S
C419 C39 1.521 . S
C451 C40 1.497 . S
C459 C94 1.488 . S
