# Generated by pormake.
# Topology bwt, (3,3)-cn, num edge types: 1
# Building blocks:
#     Node 0, Type 0, BuildingBlock: OLANEW_clean_sbu_2, # of connection points: 3
#     Node 1, Type 0, BuildingBlock: OLANEW_clean_sbu_2, # of connection points: 3
#     Node 2, Type 0, BuildingBlock: OLANEW_clean_sbu_2, # of connection points: 3
#     Node 3, Type 0, BuildingBlock: OLANEW_clean_sbu_2, # of connection points: 3
#     Node 4, Type 0, BuildingBlock: OLANEW_clean_sbu_2, # of connection points: 3
#     Node 5, Type 0, BuildingBlock: OLANEW_clean_sbu_2, # of connection points: 3
#     Node 6, Type 0, BuildingBlock: OLANEW_clean_sbu_2, # of connection points: 3
#     Node 7, Type 0, BuildingBlock: OLANEW_clean_sbu_2, # of connection points: 3
#     Node 8, Type 0, BuildingBlock: OLANEW_clean_sbu_2, # of connection points: 3
#     Node 9, Type 0, BuildingBlock: OLANEW_clean_sbu_2, # of connection points: 3
#     Node 10, Type 0, BuildingBlock: OLANEW_clean_sbu_2, # of connection points: 3
#     Node 11, Type 0, BuildingBlock: OLANEW_clean_sbu_2, # of connection points: 3
#     Node 12, Type 0, BuildingBlock: OLANEW_clean_sbu_2, # of connection points: 3
#     Node 13, Type 0, BuildingBlock: OLANEW_clean_sbu_2, # of connection points: 3
#     Node 14, Type 0, BuildingBlock: OLANEW_clean_sbu_2, # of connection points: 3
#     Node 15, Type 0, BuildingBlock: OLANEW_clean_sbu_2, # of connection points: 3
#     Node 16, Type 0, BuildingBlock: OLANEW_clean_sbu_2, # of connection points: 3
#     Node 17, Type 0, BuildingBlock: OLANEW_clean_sbu_2, # of connection points: 3
#     Node 18, Type 0, BuildingBlock: OLANEW_clean_sbu_2, # of connection points: 3
#     Node 19, Type 0, BuildingBlock: OLANEW_clean_sbu_2, # of connection points: 3
#     Node 20, Type 0, BuildingBlock: OLANEW_clean_sbu_2, # of connection points: 3
#     Node 21, Type 0, BuildingBlock: OLANEW_clean_sbu_2, # of connection points: 3
#     Node 22, Type 0, BuildingBlock: OLANEW_clean_sbu_2, # of connection points: 3
#     Node 23, Type 0, BuildingBlock: OLANEW_clean_sbu_2, # of connection points: 3
#     Node 24, Type 1, BuildingBlock: ESEHIV_clean_linker_0, # of connection points: 3
#     Node 25, Type 1, BuildingBlock: ESEHIV_clean_linker_0, # of connection points: 3
#     Node 26, Type 1, BuildingBlock: ESEHIV_clean_linker_0, # of connection points: 3
#     Node 27, Type 1, BuildingBlock: ESEHIV_clean_linker_0, # of connection points: 3
#     Node 28, Type 1, BuildingBlock: ESEHIV_clean_linker_0, # of connection points: 3
#     Node 29, Type 1, BuildingBlock: ESEHIV_clean_linker_0, # of connection points: 3
#     Node 30, Type 1, BuildingBlock: ESEHIV_clean_linker_0, # of connection points: 3
#     Node 31, Type 1, BuildingBlock: ESEHIV_clean_linker_0, # of connection points: 3
#     Node 32, Type 1, BuildingBlock: ESEHIV_clean_linker_0, # of connection points: 3
#     Node 33, Type 1, BuildingBlock: ESEHIV_clean_linker_0, # of connection points: 3
#     Node 34, Type 1, BuildingBlock: ESEHIV_clean_linker_0, # of connection points: 3
#     Node 35, Type 1, BuildingBlock: ESEHIV_clean_linker_0, # of connection points: 3
#     Node 36, Type 1, BuildingBlock: ESEHIV_clean_linker_0, # of connection points: 3
#     Node 37, Type 1, BuildingBlock: ESEHIV_clean_linker_0, # of connection points: 3
#     Node 38, Type 1, BuildingBlock: ESEHIV_clean_linker_0, # of connection points: 3
#     Node 39, Type 1, BuildingBlock: ESEHIV_clean_linker_0, # of connection points: 3
#     Node 40, Type 1, BuildingBlock: ESEHIV_clean_linker_0, # of connection points: 3
#     Node 41, Type 1, BuildingBlock: ESEHIV_clean_linker_0, # of connection points: 3
#     Node 42, Type 1, BuildingBlock: ESEHIV_clean_linker_0, # of connection points: 3
#     Node 43, Type 1, BuildingBlock: ESEHIV_clean_linker_0, # of connection points: 3
#     Node 44, Type 1, BuildingBlock: ESEHIV_clean_linker_0, # of connection points: 3
#     Node 45, Type 1, BuildingBlock: ESEHIV_clean_linker_0, # of connection points: 3
#     Node 46, Type 1, BuildingBlock: ESEHIV_clean_linker_0, # of connection points: 3
#     Node 47, Type 1, BuildingBlock: ESEHIV_clean_linker_0, # of connection points: 3
#     Edge 48, Type (0, 1), None
#     Edge 49, Type (0, 1), None
#     Edge 50, Type (0, 1), None
#     Edge 51, Type (0, 1), None
#     Edge 52, Type (0, 1), None
#     Edge 53, Type (0, 1), None
#     Edge 54, Type (0, 1), None
#     Edge 55, Type (0, 1), None
#     Edge 56, Type (0, 1), None
#     Edge 57, Type (0, 1), None
#     Edge 58, Type (0, 1), None
#     Edge 59, Type (0, 1), None
#     Edge 60, Type (0, 1), None
#     Edge 61, Type (0, 1), None
#     Edge 62, Type (0, 1), None
#     Edge 63, Type (0, 1), None
#     Edge 64, Type (0, 1), None
#     Edge 65, Type (0, 1), None
#     Edge 66, Type (0, 1), None
#     Edge 67, Type (0, 1), None
#     Edge 68, Type (0, 1), None
#     Edge 69, Type (0, 1), None
#     Edge 70, Type (0, 1), None
#     Edge 71, Type (0, 1), None
#     Edge 72, Type (0, 1), None
#     Edge 73, Type (0, 1), None
#     Edge 74, Type (0, 1), None
#     Edge 75, Type (0, 1), None
#     Edge 76, Type (0, 1), None
#     Edge 77, Type (0, 1), None
#     Edge 78, Type (0, 1), None
#     Edge 79, Type (0, 1), None
#     Edge 80, Type (0, 1), None
#     Edge 81, Type (0, 1), None
#     Edge 82, Type (0, 1), None
#     Edge 83, Type (0, 1), None
#     Edge 84, Type (0, 1), None
#     Edge 85, Type (0, 1), None
#     Edge 86, Type (0, 1), None
#     Edge 87, Type (0, 1), None
#     Edge 88, Type (0, 1), None
#     Edge 89, Type (0, 1), None
#     Edge 90, Type (0, 1), None
#     Edge 91, Type (0, 1), None
#     Edge 92, Type (0, 1), None
#     Edge 93, Type (0, 1), None
#     Edge 94, Type (0, 1), None
#     Edge 95, Type (0, 1), None
#     Edge 96, Type (0, 1), None
#     Edge 97, Type (0, 1), None
#     Edge 98, Type (0, 1), None
#     Edge 99, Type (0, 1), None
#     Edge 100, Type (0, 1), None
#     Edge 101, Type (0, 1), None
#     Edge 102, Type (0, 1), None
#     Edge 103, Type (0, 1), None
#     Edge 104, Type (0, 1), None
#     Edge 105, Type (0, 1), None
#     Edge 106, Type (0, 1), None
#     Edge 107, Type (0, 1), None
#     Edge 108, Type (0, 1), None
#     Edge 109, Type (0, 1), None
#     Edge 110, Type (0, 1), None
#     Edge 111, Type (0, 1), None
#     Edge 112, Type (0, 1), None
#     Edge 113, Type (0, 1), None
#     Edge 114, Type (0, 1), None
#     Edge 115, Type (0, 1), None
#     Edge 116, Type (0, 1), None
#     Edge 117, Type (0, 1), None
#     Edge 118, Type (0, 1), None
#     Edge 119, Type (0, 1), None
# Relax obj value: 0.104
# Max RMSD: 0.151
# Mean RMSD: 0.113
data_MOF--net-bwt--node1-OLANEW_clean_sbu_2--node2-ESEHIV_clean_linker_0--edge1-none
_symmetry_space_group_name_H-M    P1
_symmetry_Int_Tables_number       1
_symmetry_cell_setting            triclinic
loop_
_symmetry_equiv_pos_as_xyz
'x, y, z'
_cell_length_a     24.30642
_cell_length_b     24.306406
_cell_length_c     24.306511
_cell_angle_alpha  93.194685
_cell_angle_beta   93.194913
_cell_angle_gamma 93.194748
loop_
_atom_site_label
_atom_site_type_symbol
_atom_site_fract_x
_atom_site_fract_y
_atom_site_fract_z
_atom_type_partial_charge
O0 O 0.27753 0.48608 0.31804 0.0
Cd1 Cd 0.28386 0.46488 0.21975 0.0
O2 O 0.30287 0.57372 0.31307 0.0
Cd3 Cd 0.34202 0.55132 0.23712 0.0
O4 O 0.41164 0.4985 0.23574 0.0
C5 C 0.46012 0.51718 0.22743 0.0
O6 O 0.46756 0.56753 0.21135 0.0
C7 C 0.28378 0.53469 0.34053 0.0
C8 C 0.1773 0.4645 0.17143 0.0
O9 O 0.20854 0.50896 0.17626 0.0
O10 O 0.19711 0.42017 0.18815 0.0
O11 O 0.20146 0.37349 0.75975 0.0
Cd12 Cd 0.20463 0.40115 0.66516 0.0
O13 O 0.19865 0.46044 0.78865 0.0
Cd14 Cd 0.16359 0.48493 0.71013 0.0
O15 O 0.08342 0.51974 0.70274 0.0
C16 C 0.04021 0.48872 0.70714 0.0
O17 O 0.04458 0.43513 0.70781 0.0
C18 C 0.20445 0.41042 0.79912 0.0
C19 C 0.30768 0.45545 0.65703 0.0
O20 O 0.26597 0.48239 0.66981 0.0
O21 O 0.30043 0.40316 0.64707 0.0
O22 O 0.78282 -0.00735 0.67835 0.0
Cd23 Cd 0.80127 0.0082 0.77726 0.0
O24 O 0.79788 0.90441 0.67453 0.0
Cd25 Cd 0.84767 0.923 0.75135 0.0
O26 O 0.92139 0.979 0.75973 0.0
C27 C 0.96868 0.96054 0.76872 0.0
O28 O 0.9718 0.90858 0.78016 0.0
C29 C 0.78027 0.94618 0.6514 0.0
C30 C 0.70542 0.05143 0.81334 0.0
O31 O 0.71092 -0.00076 0.81135 0.0
O32 O 0.74623 0.08296 0.80062 0.0
O33 O 0.69262 0.00928 0.15221 0.0
Cd34 Cd 0.65366 0.987 0.23901 0.0
O35 O 0.64442 0.08144 0.13792 0.0
Cd36 Cd 0.58271 0.05063 0.19311 0.0
O37 O 0.51567 -0.01019 0.20846 0.0
C38 C 0.46516 0.00077 0.21017 0.0
O39 O 0.45156 0.0519 0.20589 0.0
C40 C 0.68324 0.05114 0.12488 0.0
C41 C 0.74103 0.95214 0.3046 0.0
O42 O 0.72749 0.00233 0.30914 0.0
O43 O 0.71182 0.91839 0.27094 0.0
O44 O 0.31788 0.27764 0.48614 0.0
Cd45 Cd 0.21958 0.28397 0.46494 0.0
O46 O 0.3129 0.30297 0.57378 0.0
Cd47 Cd 0.23696 0.34213 0.55138 0.0
O48 O 0.23558 0.41174 0.49856 0.0
C49 C 0.22727 0.46023 0.51724 0.0
O50 O 0.21119 0.46767 0.56759 0.0
C51 C 0.34037 0.28388 0.53475 0.0
C52 C 0.17127 0.1774 0.46456 0.0
O53 O 0.17609 0.20865 0.50902 0.0
O54 O 0.18799 0.19721 0.42023 0.0
O55 O 0.15204 0.69272 0.00934 0.0
Cd56 Cd 0.23885 0.65375 0.98706 0.0
O57 O 0.13775 0.64452 0.0815 0.0
Cd58 Cd 0.19295 0.58281 0.05069 0.0
O59 O 0.2083 0.51577 -0.01013 0.0
C60 C 0.21001 0.46526 0.00084 0.0
O61 O 0.20572 0.45166 0.05196 0.0
C62 C 0.12472 0.68334 0.0512 0.0
C63 C 0.30444 0.74113 0.9522 0.0
O64 O 0.30898 0.72759 0.00239 0.0
O65 O 0.27078 0.71191 0.91845 0.0
O66 O 0.75958 0.20157 0.37356 0.0
Cd67 Cd 0.66499 0.20473 0.40122 0.0
O68 O 0.78848 0.19876 0.4605 0.0
Cd69 Cd 0.70997 0.16369 0.485 0.0
O70 O 0.70257 0.08352 0.5198 0.0
C71 C 0.70698 0.04032 0.48878 0.0
O72 O 0.70765 0.04469 0.43519 0.0
C73 C 0.79896 0.20456 0.41049 0.0
C74 C 0.65687 0.30779 0.45551 0.0
O75 O 0.66964 0.26608 0.48245 0.0
O76 O 0.6469 0.30054 0.40322 0.0
O77 O 0.67819 0.78293 -0.00729 0.0
Cd78 Cd 0.77709 0.80137 0.00826 0.0
O79 O 0.67437 0.79799 0.90447 0.0
Cd80 Cd 0.75119 0.84778 0.92306 0.0
O81 O 0.75957 0.9215 0.97906 0.0
C82 C 0.76856 0.96879 0.9606 0.0
O83 O 0.78 0.97191 0.90864 0.0
C84 C 0.65124 0.78038 0.94624 0.0
C85 C 0.81318 0.70553 0.05149 0.0
O86 O 0.81119 0.71103 -0.0007 0.0
O87 O 0.80045 0.74634 0.08302 0.0
O88 O 0.48598 0.31799 0.2777 0.0
Cd89 Cd 0.46478 0.21969 0.28403 0.0
O90 O 0.57362 0.31301 0.30304 0.0
Cd91 Cd 0.55121 0.23706 0.34219 0.0
O92 O 0.4984 0.23568 0.41181 0.0
C93 C 0.51707 0.22738 0.46029 0.0
O94 O 0.56743 0.2113 0.46773 0.0
C95 C 0.53459 0.34047 0.28394 0.0
C96 C 0.46439 0.17137 0.17747 0.0
O97 O 0.50886 0.1762 0.20871 0.0
O98 O 0.42006 0.18809 0.19728 0.0
O99 O 0.00917 0.15215 0.69278 0.0
Cd100 Cd 0.98689 0.23896 0.65382 0.0
O101 O 0.08133 0.13786 0.64459 0.0
Cd102 Cd 0.05053 0.19305 0.58288 0.0
O103 O -0.0103 0.2084 0.51584 0.0
C104 C 0.00067 0.21011 0.46532 0.0
O105 O 0.0518 0.20582 0.45173 0.0
C106 C 0.05103 0.12482 0.6834 0.0
C107 C 0.95204 0.30454 0.74119 0.0
O108 O 0.00223 0.30908 0.72765 0.0
O109 O 0.91828 0.27088 0.71198 0.0
O110 O 0.37339 0.75969 0.20162 0.0
Cd111 Cd 0.40105 0.6651 0.20478 0.0
O112 O 0.46034 0.78859 0.19881 0.0
Cd113 Cd 0.48483 0.71007 0.16375 0.0
O114 O 0.51964 0.70268 0.08358 0.0
C115 C 0.48861 0.70708 0.04037 0.0
O116 O 0.43503 0.70775 0.04474 0.0
C117 C 0.41032 0.79906 0.20461 0.0
C118 C 0.45535 0.65697 0.30784 0.0
O119 O 0.48229 0.66974 0.26613 0.0
O120 O 0.40306 0.64701 0.30059 0.0
O121 O -0.00745 0.67829 0.78299 0.0
Cd122 Cd 0.00811 0.7772 0.80143 0.0
O123 O 0.90431 0.67448 0.79805 0.0
Cd124 Cd 0.9229 0.7513 0.84783 0.0
O125 O 0.9789 0.75968 0.92155 0.0
C126 C 0.96044 0.76866 0.96885 0.0
O127 O 0.90848 0.7801 0.97197 0.0
C128 C 0.94608 0.65134 0.78044 0.0
C129 C 0.05133 0.81328 0.70559 0.0
O130 O -0.00085 0.81129 0.71109 0.0
O131 O 0.08287 0.80055 0.7464 0.0
O132 O 0.70994 0.3936 0.6496 0.0
Cd133 Cd 0.74292 0.40322 0.74587 0.0
O134 O 0.66114 0.46654 0.65817 0.0
Cd135 Cd 0.59476 0.51704 0.63014 0.0
O136 O 0.55812 0.45898 0.68475 0.0
C137 C 0.50832 0.44819 0.69547 0.0
O138 O 0.49779 0.41033 0.7305 0.0
C139 C 0.67837 0.42744 0.62812 0.0
C140 C 0.84058 0.46825 0.74798 0.0
O141 O 0.84028 0.41571 0.73972 0.0
O142 O 0.79481 0.48979 0.75732 0.0
O143 O 0.79029 0.59693 0.23436 0.0
Cd144 Cd 0.75952 0.5693 0.32198 0.0
O145 O 0.87564 0.56956 0.2403 0.0
Cd146 Cd 0.95006 0.56328 0.19319 0.0
O147 O 0.98531 0.58823 0.11643 0.0
C148 C 0.02075 0.56331 0.08955 0.0
O149 O 0.03622 0.58229 0.04299 0.0
C150 C 0.83596 0.5895 0.21311 0.0
C151 C 0.65765 0.51318 0.29526 0.0
O152 O 0.66123 0.56538 0.3069 0.0
O153 O 0.70204 0.48714 0.29783 0.0
O154 O 0.14967 0.00363 0.32747 0.0
Cd155 Cd 0.15624 0.95879 0.23635 0.0
O156 O 0.06921 0.96705 0.34928 0.0
Cd157 Cd -0.00023 0.96628 0.40377 0.0
O158 O 0.9403 -0.00975 0.46425 0.0
C159 C 0.88822 0.98137 0.45733 0.0
O160 O 0.85643 0.00261 0.49393 0.0
C161 C 0.11201 -0.00102 0.36141 0.0
C162 C 0.26639 0.93647 0.22429 0.0
O163 O 0.24904 0.98376 0.21365 0.0
O164 O 0.23149 0.89968 0.2395 0.0
O165 O 0.29103 0.85823 0.78231 0.0
Cd166 Cd 0.25494 0.90257 0.70161 0.0
O167 O 0.33294 0.9376 0.80808 0.0
Cd168 Cd 0.38507 -0.00042 0.85661 0.0
O169 O 0.46211 0.04854 0.866 0.0
C170 C 0.50836 0.02688 0.86311 0.0
O171 O 0.50974 0.97289 0.85796 0.0
C172 C 0.32238 0.88728 0.81738 0.0
C173 C 0.16567 0.9657 0.7249 0.0
O174 O 0.16291 0.91312 0.72502 0.0
O175 O 0.21196 -0.01002 0.71514 0.0
O176 O 0.64944 0.71005 0.39364 0.0
Cd177 Cd 0.74571 0.74303 0.40327 0.0
O178 O 0.65801 0.66125 0.46658 0.0
Cd179 Cd 0.62999 0.59487 0.51708 0.0
O180 O 0.6846 0.55822 0.45904 0.0
C181 C 0.69532 0.50843 0.44824 0.0
O182 O 0.73035 0.49789 0.41039 0.0
C183 C 0.62796 0.67847 0.42749 0.0
C184 C 0.74781 0.84069 0.4683 0.0
O185 O 0.73956 0.84039 0.41576 0.0
O186 O 0.75716 0.79492 0.48983 0.0
O187 O 0.78214 0.29114 0.85829 0.0
Cd188 Cd 0.70144 0.25504 0.90264 0.0
O189 O 0.80792 0.33305 0.93766 0.0
Cd190 Cd 0.85645 0.38518 -0.00035 0.0
O191 O 0.86583 0.46222 0.0486 0.0
C192 C 0.86294 0.50846 0.02694 0.0
O193 O 0.85779 0.50984 0.97295 0.0
C194 C 0.81722 0.32249 0.88735 0.0
C195 C 0.72473 0.16578 0.96576 0.0
O196 O 0.72485 0.16302 0.91318 0.0
O197 O 0.71498 0.21206 -0.00996 0.0
O198 O 0.23421 0.79039 0.59699 0.0
Cd199 Cd 0.32182 0.75962 0.56935 0.0
O200 O 0.24014 0.87574 0.56962 0.0
Cd201 Cd 0.19303 0.95017 0.56334 0.0
O202 O 0.11627 0.98541 0.58829 0.0
C203 C 0.08939 0.02085 0.56337 0.0
O204 O 0.04283 0.03632 0.58235 0.0
C205 C 0.21295 0.83606 0.58955 0.0
C206 C 0.29511 0.65776 0.51324 0.0
O207 O 0.30674 0.66134 0.56544 0.0
O208 O 0.29767 0.70214 0.4872 0.0
O209 O 0.3273 0.14977 0.0037 0.0
Cd210 Cd 0.23618 0.15634 0.95885 0.0
O211 O 0.34911 0.06931 0.96712 0.0
Cd212 Cd 0.40361 -0.00013 0.96634 0.0
O213 O 0.46409 0.94039 -0.00968 0.0
C214 C 0.45717 0.88832 0.98144 0.0
O215 O 0.49376 0.85653 0.00267 0.0
C216 C 0.36124 0.11211 -0.00096 0.0
C217 C 0.22412 0.2665 0.93653 0.0
O218 O 0.21348 0.24914 0.98382 0.0
O219 O 0.23934 0.23159 0.89974 0.0
O220 O 0.39348 0.64955 0.71011 0.0
Cd221 Cd 0.40311 0.74581 0.74308 0.0
O222 O 0.46642 0.65812 0.6613 0.0
Cd223 Cd 0.51692 0.6301 0.59492 0.0
O224 O 0.45888 0.68471 0.55827 0.0
C225 C 0.44808 0.69543 0.50848 0.0
O226 O 0.41023 0.73047 0.49794 0.0
C227 C 0.42733 0.62807 0.67853 0.0
C228 C 0.46814 0.74792 0.84074 0.0
O229 O 0.4156 0.73966 0.84045 0.0
O230 O 0.48967 0.75726 0.79498 0.0
O231 O 0.85813 0.78225 0.2912 0.0
Cd232 Cd 0.90247 0.70155 0.2551 0.0
O233 O 0.9375 0.80802 0.33311 0.0
Cd234 Cd -0.00052 0.85655 0.38524 0.0
O235 O 0.04844 0.86593 0.46227 0.0
C236 C 0.02678 0.86305 0.50852 0.0
O237 O 0.9728 0.8579 0.5099 0.0
C238 C 0.88718 0.81732 0.32254 0.0
C239 C 0.9656 0.72483 0.16584 0.0
O240 O 0.91302 0.72496 0.16307 0.0
O241 O -0.01013 0.71508 0.21212 0.0
O242 O 0.59682 0.2343 0.79046 0.0
Cd243 Cd 0.56918 0.32192 0.75969 0.0
O244 O 0.56946 0.24024 0.87581 0.0
Cd245 Cd 0.56317 0.19312 0.95023 0.0
O246 O 0.58813 0.11637 0.98547 0.0
C247 C 0.5632 0.08948 0.02092 0.0
O248 O 0.58218 0.04293 0.03638 0.0
C249 C 0.58939 0.21305 0.83613 0.0
C250 C 0.51307 0.2952 0.65782 0.0
O251 O 0.56528 0.30684 0.6614 0.0
O252 O 0.48703 0.29777 0.7022 0.0
O253 O 0.00353 0.32741 0.14984 0.0
Cd254 Cd 0.95868 0.23628 0.15641 0.0
O255 O 0.96695 0.34922 0.06938 0.0
Cd256 Cd 0.96618 0.40371 -7e-05 0.0
O257 O -0.00985 0.46419 0.94046 0.0
C258 C 0.98127 0.45727 0.88838 0.0
O259 O 0.0025 0.49387 0.85659 0.0
C260 C -0.00113 0.36135 0.11218 0.0
C261 C 0.93636 0.22423 0.26656 0.0
O262 O 0.98366 0.21359 0.2492 0.0
O263 O 0.89957 0.23944 0.23165 0.0
H264 H 0.30198 0.63013 0.40462 0.0
H265 H 0.24141 0.46058 0.40807 0.0
H266 H 0.2539 0.56535 0.55706 0.0
C267 C 0.28515 0.5963 0.42695 0.0
C268 C 0.27891 0.60398 0.48392 0.0
C269 C 0.27211 0.54455 0.39925 0.0
C270 C 0.25118 0.50081 0.42893 0.0
C271 C 0.24406 0.50801 0.48568 0.0
C272 C 0.25809 0.55975 0.51296 0.0
H273 H 0.21727 0.30863 0.83636 0.0
H274 H 0.20674 0.47875 0.89113 0.0
H275 H 0.21918 0.35464 0.00997 0.0
C276 C 0.21659 0.34018 0.86959 0.0
C277 C 0.21927 0.3251 0.92454 0.0
C278 C 0.21157 0.39539 0.85715 0.0
C279 C 0.21074 0.43604 0.90051 0.0
C280 C 0.21343 0.42193 0.95582 0.0
C281 C 0.21729 0.36613 0.96749 0.0
H282 H 0.77792 0.85756 0.57729 0.0
H283 H 0.73636 0.0269 0.59521 0.0
H284 H 0.71233 0.93873 0.43694 0.0
C285 C 0.7617 0.89373 0.55963 0.0
C286 C 0.74491 0.89205 0.50323 0.0
C287 C 0.75888 0.94233 0.59305 0.0
C288 C 0.738 -0.01095 0.56975 0.0
C289 C 0.72173 -0.01159 0.51346 0.0
C290 C 0.72498 0.93958 0.48045 0.0
H291 H 0.69269 0.14498 0.06861 0.0
H292 H 0.73422 0.97504 0.06491 0.0
H293 H 0.76883 0.07327 0.92825 0.0
C294 C 0.7118 0.11052 0.04872 0.0
C295 C 0.73239 0.11561 -0.00378 0.0
C296 C 0.7125 0.05984 0.07392 0.0
C297 C 0.73534 0.01469 0.04657 0.0
C298 C 0.75509 0.01891 -0.00634 0.0
C299 C 0.75448 0.06985 0.96942 0.0
H300 H 0.40445 0.30207 0.63019 0.0
H301 H 0.40791 0.24152 0.46064 0.0
H302 H 0.5569 0.254 0.56541 0.0
C303 C 0.42678 0.28525 0.59637 0.0
C304 C 0.48375 0.27901 0.60404 0.0
C305 C 0.39909 0.27221 0.54461 0.0
C306 C 0.42876 0.25128 0.50087 0.0
C307 C 0.48552 0.24416 0.50807 0.0
C308 C 0.5128 0.25819 0.55982 0.0
H309 H 0.06845 0.69279 0.14504 0.0
H310 H 0.06475 0.73433 0.9751 0.0
H311 H 0.92809 0.76894 0.07333 0.0
C312 C 0.04856 0.71191 0.11057 0.0
C313 C -0.00394 0.73249 0.11566 0.0
C314 C 0.07375 0.7126 0.0599 0.0
C315 C 0.04641 0.73544 0.01475 0.0
C316 C -0.0065 0.7552 0.01897 0.0
C317 C 0.96925 0.75458 0.06991 0.0
H318 H 0.83619 0.21737 0.30869 0.0
H319 H 0.89097 0.20685 0.47881 0.0
H320 H 0.0098 0.21928 0.3547 0.0
C321 C 0.86943 0.21669 0.34025 0.0
C322 C 0.92437 0.21938 0.32517 0.0
C323 C 0.85698 0.21167 0.39545 0.0
C324 C 0.90035 0.21085 0.4361 0.0
C325 C 0.95565 0.21353 0.422 0.0
C326 C 0.96733 0.21739 0.3662 0.0
H327 H 0.57713 0.77803 0.85761 0.0
H328 H 0.59505 0.73646 0.02695 0.0
H329 H 0.43678 0.71243 0.93878 0.0
C330 C 0.55947 0.76181 0.89379 0.0
C331 C 0.50307 0.74501 0.8921 0.0
C332 C 0.59288 0.75898 0.94239 0.0
C333 C 0.56959 0.73811 -0.0109 0.0
C334 C 0.51329 0.72183 -0.01153 0.0
C335 C 0.48029 0.72508 0.93964 0.0
H336 H 0.63003 0.40456 0.30213 0.0
H337 H 0.46048 0.40801 0.24157 0.0
H338 H 0.56525 0.55701 0.25405 0.0
C339 C 0.5962 0.42689 0.28531 0.0
C340 C 0.60388 0.48386 0.27907 0.0
C341 C 0.54444 0.39919 0.27227 0.0
C342 C 0.50071 0.42887 0.25134 0.0
C343 C 0.5079 0.48563 0.24422 0.0
C344 C 0.55965 0.5129 0.25825 0.0
H345 H 0.14488 0.06855 0.69285 0.0
H346 H 0.97493 0.06485 0.73439 0.0
H347 H 0.07316 0.92819 0.769 0.0
C348 C 0.11041 0.04866 0.71197 0.0
C349 C 0.1155 -0.00384 0.73256 0.0
C350 C 0.05974 0.07386 0.71266 0.0
C351 C 0.01458 0.04651 0.7355 0.0
C352 C 0.0188 -0.0064 0.75526 0.0
C353 C 0.06974 0.96936 0.75464 0.0
H354 H 0.30853 0.8363 0.21743 0.0
H355 H 0.47865 0.89107 0.2069 0.0
H356 H 0.35454 0.00991 0.21934 0.0
C357 C 0.34008 0.86953 0.21675 0.0
C358 C 0.325 0.92447 0.21943 0.0
C359 C 0.39529 0.85709 0.21173 0.0
C360 C 0.43594 0.90045 0.2109 0.0
C361 C 0.42183 0.95576 0.21359 0.0
C362 C 0.36603 0.96743 0.21745 0.0
H363 H 0.85745 0.57724 0.77809 0.0
H364 H 0.02679 0.59515 0.73653 0.0
H365 H 0.93862 0.43688 0.7125 0.0
C366 C 0.89363 0.55958 0.76187 0.0
C367 C 0.89194 0.50318 0.74508 0.0
C368 C 0.94223 0.59299 0.75904 0.0
C369 C -0.01106 0.56969 0.73817 0.0
C370 C -0.0117 0.5134 0.7219 0.0
C371 C 0.93948 0.48039 0.72515 0.0
H372 H 0.65476 0.33359 0.56536 0.0
H373 H 0.6807 0.50937 0.55807 0.0
H374 H 0.66744 0.40536 0.40857 0.0
C375 C 0.65774 0.36971 0.54119 0.0
C376 C 0.65737 0.3633 0.48345 0.0
C377 C 0.66502 0.42237 0.56825 0.0
C378 C 0.67121 0.46911 0.53715 0.0
C379 C 0.67333 0.46287 0.47959 0.0
C380 C 0.66466 0.41016 0.45295 0.0
H381 H 0.81024 0.67904 0.15831 0.0
H382 H 0.86508 0.5155 0.13782 0.0
H383 H 0.8444 0.61276 -0.00376 0.0
C384 C 0.82442 0.64628 0.13148 0.0
C385 C 0.82816 0.65313 0.07474 0.0
C386 C 0.84036 0.59773 0.15428 0.0
C387 C 0.85574 0.55403 0.11989 0.0
C388 C 0.85587 0.55838 0.06269 0.0
C389 C 0.8437 0.60876 0.04038 0.0
H390 H 0.15319 0.10387 0.37655 0.0
H391 H 0.08622 0.96844 0.46307 0.0
H392 H 0.13437 0.12279 0.55165 0.0
C393 C 0.14077 0.08716 0.4147 0.0
C394 C 0.14702 0.12015 0.46421 0.0
C395 C 0.11783 0.0328 0.41376 0.0
C396 C 0.10255 0.01075 0.46309 0.0
C397 C 0.10849 0.04319 0.51265 0.0
C398 C 0.13014 0.09791 0.51312 0.0
H399 H 0.28116 0.79571 0.86126 0.0
H400 H 0.41406 0.92039 0.88544 0.0
H401 H 0.39405 0.79845 0.0042 0.0
C402 C 0.31699 0.8143 0.88535 0.0
C403 C 0.33488 0.79064 0.93412 0.0
C404 C 0.34376 0.86256 0.86819 0.0
C405 C 0.39018 0.88606 0.89981 0.0
C406 C 0.40813 0.86339 0.949 0.0
C407 C 0.38027 0.8158 0.96609 0.0
H408 H 0.5652 0.65486 0.33364 0.0
H409 H 0.55791 0.68081 0.50942 0.0
H410 H 0.40841 0.66755 0.40541 0.0
C411 C 0.54102 0.65785 0.36976 0.0
C412 C 0.48329 0.65748 0.36335 0.0
C413 C 0.56809 0.66512 0.42241 0.0
C414 C 0.53698 0.67131 0.46916 0.0
C415 C 0.47943 0.67344 0.46292 0.0
C416 C 0.45279 0.66476 0.41021 0.0
H417 H 0.86109 0.28127 0.79578 0.0
H418 H 0.88527 0.41417 0.92045 0.0
H419 H 0.00404 0.39415 0.79851 0.0
C420 C 0.88518 0.3171 0.81436 0.0
C421 C 0.93396 0.33498 0.7907 0.0
C422 C 0.86802 0.34387 0.86263 0.0
C423 C 0.89965 0.39028 0.88612 0.0
C424 C 0.94883 0.40824 0.86346 0.0
C425 C 0.96592 0.38038 0.81586 0.0
H426 H 0.15815 0.81035 0.6791 0.0
H427 H 0.13766 0.86518 0.51556 0.0
H428 H -0.00391 0.84451 0.61282 0.0
C429 C 0.13133 0.82453 0.64634 0.0
C430 C 0.07458 0.82826 0.65319 0.0
C431 C 0.15412 0.84047 0.59779 0.0
C432 C 0.11973 0.85584 0.55409 0.0
C433 C 0.06253 0.85597 0.55844 0.0
C434 C 0.04022 0.8438 0.60882 0.0
H435 H 0.37638 0.15329 0.10393 0.0
H436 H 0.4629 0.08632 0.9685 0.0
H437 H 0.55149 0.13447 0.12286 0.0
C438 C 0.41453 0.14087 0.08722 0.0
C439 C 0.46404 0.14712 0.12021 0.0
C440 C 0.4136 0.11793 0.03287 0.0
C441 C 0.46293 0.10265 0.01081 0.0
C442 C 0.51248 0.10859 0.04325 0.0
C443 C 0.51296 0.13025 0.09797 0.0
H444 H 0.33347 0.5653 0.65492 0.0
H445 H 0.50926 0.55802 0.68086 0.0
H446 H 0.40525 0.40851 0.6676 0.0
C447 C 0.36959 0.54113 0.6579 0.0
C448 C 0.36319 0.48339 0.65753 0.0
C449 C 0.42225 0.56819 0.66518 0.0
C450 C 0.469 0.53709 0.67136 0.0
C451 C 0.46276 0.47953 0.67348 0.0
C452 C 0.41005 0.45289 0.66481 0.0
H453 H 0.79562 0.8612 0.28133 0.0
H454 H 0.92029 0.88537 0.41423 0.0
H455 H 0.79835 0.00414 0.39421 0.0
C456 C 0.8142 0.88529 0.31715 0.0
C457 C 0.79054 0.93406 0.33504 0.0
C458 C 0.86246 0.86813 0.34393 0.0
C459 C 0.88596 0.89975 0.39034 0.0
C460 C 0.8633 0.94894 0.4083 0.0
C461 C 0.8157 0.96603 0.38044 0.0
H462 H 0.67893 0.15825 0.81041 0.0
H463 H 0.51539 0.13776 0.86525 0.0
H464 H 0.61265 -0.00382 0.84457 0.0
C465 C 0.64617 0.13142 0.82459 0.0
C466 C 0.65303 0.07468 0.82832 0.0
C467 C 0.59762 0.15422 0.84053 0.0
C468 C 0.55392 0.11983 0.85591 0.0
C469 C 0.55828 0.06263 0.85604 0.0
C470 C 0.60865 0.04032 0.84387 0.0
H471 H 0.10377 0.37649 0.15336 0.0
H472 H 0.96833 0.463 0.08638 0.0
H473 H 0.12269 0.55159 0.13453 0.0
C474 C 0.08705 0.41463 0.14094 0.0
C475 C 0.12005 0.46415 0.14718 0.0
C476 C 0.0327 0.4137 0.118 0.0
C477 C 0.01065 0.46303 0.10271 0.0
C478 C 0.04309 0.51259 0.10865 0.0
C479 C 0.0978 0.51306 0.13031 0.0
loop_
_geom_bond_atom_site_label_1
_geom_bond_atom_site_label_2
_geom_bond_distance
_geom_bond_site_symmetry_2
_ccdc_geom_bond_type
O0 Cd1 2.300 . S
O0 C7 1.275 . S
Cd1 O0 2.300 . S
Cd1 O9 2.381 . S
Cd1 O10 2.378 . S
O2 Cd3 2.385 . S
O2 C7 1.255 . S
Cd3 O2 2.385 . S
Cd3 O4 2.317 . S
O4 Cd3 2.317 . S
O4 C5 1.232 . S
C5 O4 1.232 . S
C5 O6 1.218 . S
O6 C5 1.218 . S
C7 O0 1.275 . S
C7 O2 1.255 . S
C8 O9 1.258 . S
C8 O10 1.256 . S
O9 Cd1 2.381 . S
O9 C8 1.258 . S
O10 Cd1 2.378 . S
O10 C8 1.256 . S
O11 Cd12 2.300 . S
O11 C18 1.275 . S
Cd12 O11 2.300 . S
Cd12 O20 2.381 . S
Cd12 O21 2.378 . S
O13 Cd14 2.385 . S
O13 C18 1.255 . S
Cd14 O13 2.385 . S
Cd14 O15 2.317 . S
O15 Cd14 2.317 . S
O15 C16 1.232 . S
C16 O15 1.232 . S
C16 O17 1.218 . S
O17 C16 1.218 . S
C18 O11 1.275 . S
C18 O13 1.255 . S
C19 O20 1.258 . S
C19 O21 1.256 . S
O20 Cd12 2.381 . S
O20 C19 1.258 . S
O21 Cd12 2.378 . S
O21 C19 1.256 . S
O22 Cd23 2.300 . S
O22 C29 1.275 . S
Cd23 O22 2.300 . S
Cd23 O31 2.381 1_565 S
Cd23 O32 2.378 . S
O24 Cd25 2.385 . S
O24 C29 1.255 . S
Cd25 O24 2.385 . S
Cd25 O26 2.317 . S
O26 Cd25 2.317 . S
O26 C27 1.232 . S
C27 O26 1.232 . S
C27 O28 1.218 . S
O28 C27 1.218 . S
C29 O22 1.275 . S
C29 O24 1.255 . S
C30 O31 1.258 . S
C30 O32 1.256 1_545 S
O31 Cd23 2.381 1_545 S
O31 C30 1.258 . S
O32 Cd23 2.378 . S
O32 C30 1.256 1_565 S
O33 Cd34 2.300 . S
O33 C40 1.275 . S
Cd34 O33 2.300 . S
Cd34 O42 2.381 1_545 S
Cd34 O43 2.378 . S
O35 Cd36 2.385 . S
O35 C40 1.255 . S
Cd36 O35 2.385 . S
Cd36 O37 2.317 . S
O37 Cd36 2.317 . S
O37 C38 1.232 1_545 S
C38 O37 1.232 1_565 S
C38 O39 1.218 1_565 S
O39 C38 1.218 1_545 S
C40 O33 1.275 . S
C40 O35 1.255 . S
C41 O42 1.258 . S
C41 O43 1.256 1_565 S
O42 Cd34 2.381 1_565 S
O42 C41 1.258 . S
O43 Cd34 2.378 . S
O43 C41 1.256 1_545 S
O44 Cd45 2.300 . S
O44 C51 1.275 . S
Cd45 O44 2.300 . S
Cd45 O53 2.381 . S
Cd45 O54 2.378 . S
O46 Cd47 2.385 . S
O46 C51 1.255 . S
Cd47 O46 2.385 . S
Cd47 O48 2.317 . S
O48 Cd47 2.317 . S
O48 C49 1.232 . S
C49 O48 1.232 . S
C49 O50 1.218 . S
O50 C49 1.218 . S
C51 O44 1.275 . S
C51 O46 1.255 . S
C52 O53 1.258 . S
C52 O54 1.256 . S
O53 Cd45 2.381 . S
O53 C52 1.258 . S
O54 Cd45 2.378 . S
O54 C52 1.256 . S
O55 Cd56 2.300 . S
O55 C62 1.275 . S
Cd56 O55 2.300 . S
Cd56 O64 2.381 1_554 S
Cd56 O65 2.378 . S
O57 Cd58 2.385 . S
O57 C62 1.255 . S
Cd58 O57 2.385 . S
Cd58 O59 2.317 . S
O59 Cd58 2.317 . S
O59 C60 1.232 1_554 S
C60 O59 1.232 1_556 S
C60 O61 1.218 1_556 S
O61 C60 1.218 1_554 S
C62 O55 1.275 . S
C62 O57 1.255 . S
C63 O64 1.258 . S
C63 O65 1.256 1_556 S
O64 Cd56 2.381 1_556 S
O64 C63 1.258 . S
O65 Cd56 2.378 . S
O65 C63 1.256 1_554 S
O66 Cd67 2.300 . S
O66 C73 1.275 . S
Cd67 O66 2.300 . S
Cd67 O75 2.381 . S
Cd67 O76 2.378 . S
O68 Cd69 2.385 . S
O68 C73 1.255 . S
Cd69 O68 2.385 . S
Cd69 O70 2.317 . S
O70 Cd69 2.317 . S
O70 C71 1.232 . S
C71 O70 1.232 . S
C71 O72 1.218 . S
O72 C71 1.218 . S
C73 O66 1.275 . S
C73 O68 1.255 . S
C74 O75 1.258 . S
C74 O76 1.256 . S
O75 Cd67 2.381 . S
O75 C74 1.258 . S
O76 Cd67 2.378 . S
O76 C74 1.256 . S
O77 Cd78 2.300 . S
O77 C84 1.275 . S
Cd78 O77 2.300 . S
Cd78 O86 2.381 1_556 S
Cd78 O87 2.378 . S
O79 Cd80 2.385 . S
O79 C84 1.255 . S
Cd80 O79 2.385 . S
Cd80 O81 2.317 . S
O81 Cd80 2.317 . S
O81 C82 1.232 . S
C82 O81 1.232 . S
C82 O83 1.218 . S
O83 C82 1.218 . S
C84 O77 1.275 . S
C84 O79 1.255 . S
C85 O86 1.258 . S
C85 O87 1.256 1_554 S
O86 Cd78 2.381 1_554 S
O86 C85 1.258 . S
O87 Cd78 2.378 . S
O87 C85 1.256 1_556 S
O88 Cd89 2.300 . S
O88 C95 1.275 . S
Cd89 O88 2.300 . S
Cd89 O97 2.381 . S
Cd89 O98 2.378 . S
O90 Cd91 2.385 . S
O90 C95 1.255 . S
Cd91 O90 2.385 . S
Cd91 O92 2.317 . S
O92 Cd91 2.317 . S
O92 C93 1.232 . S
C93 O92 1.232 . S
C93 O94 1.218 . S
O94 C93 1.218 . S
C95 O88 1.275 . S
C95 O90 1.255 . S
C96 O97 1.258 . S
C96 O98 1.256 . S
O97 Cd89 2.381 . S
O97 C96 1.258 . S
O98 Cd89 2.378 . S
O98 C96 1.256 . S
O99 Cd100 2.300 . S
O99 C106 1.275 . S
Cd100 O99 2.300 . S
Cd100 O108 2.381 1_455 S
Cd100 O109 2.378 . S
O101 Cd102 2.385 . S
O101 C106 1.255 . S
Cd102 O101 2.385 . S
Cd102 O103 2.317 . S
O103 Cd102 2.317 . S
O103 C104 1.232 1_455 S
C104 O103 1.232 1_655 S
C104 O105 1.218 1_655 S
O105 C104 1.218 1_455 S
C106 O99 1.275 . S
C106 O101 1.255 . S
C107 O108 1.258 . S
C107 O109 1.256 1_655 S
O108 Cd100 2.381 1_655 S
O108 C107 1.258 . S
O109 Cd100 2.378 . S
O109 C107 1.256 1_455 S
O110 Cd111 2.300 . S
O110 C117 1.275 . S
Cd111 O110 2.300 . S
Cd111 O119 2.381 . S
Cd111 O120 2.378 . S
O112 Cd113 2.385 . S
O112 C117 1.255 . S
Cd113 O112 2.385 . S
Cd113 O114 2.317 . S
O114 Cd113 2.317 . S
O114 C115 1.232 . S
C115 O114 1.232 . S
C115 O116 1.218 . S
O116 C115 1.218 . S
C117 O110 1.275 . S
C117 O112 1.255 . S
C118 O119 1.258 . S
C118 O120 1.256 . S
O119 Cd111 2.381 . S
O119 C118 1.258 . S
O120 Cd111 2.378 . S
O120 C118 1.256 . S
O121 Cd122 2.300 . S
O121 C128 1.275 . S
Cd122 O121 2.300 . S
Cd122 O130 2.381 1_655 S
Cd122 O131 2.378 . S
O123 Cd124 2.385 . S
O123 C128 1.255 . S
Cd124 O123 2.385 . S
Cd124 O125 2.317 . S
O125 Cd124 2.317 . S
O125 C126 1.232 . S
C126 O125 1.232 . S
C126 O127 1.218 . S
O127 C126 1.218 . S
C128 O121 1.275 . S
C128 O123 1.255 . S
C129 O130 1.258 . S
C129 O131 1.256 1_455 S
O130 Cd122 2.381 1_455 S
O130 C129 1.258 . S
O131 Cd122 2.378 . S
O131 C129 1.256 1_655 S
O132 Cd133 2.300 . S
O132 C139 1.275 . S
Cd133 O132 2.300 . S
Cd133 O141 2.381 . S
Cd133 O142 2.378 . S
O134 Cd135 2.385 . S
O134 C139 1.255 . S
Cd135 O134 2.385 . S
Cd135 O136 2.317 . S
O136 Cd135 2.317 . S
O136 C137 1.232 . S
C137 O136 1.232 . S
C137 O138 1.218 . S
O138 C137 1.218 . S
C139 O132 1.275 . S
C139 O134 1.255 . S
C140 O141 1.258 . S
C140 O142 1.256 . S
O141 Cd133 2.381 . S
O141 C140 1.258 . S
O142 Cd133 2.378 . S
O142 C140 1.256 . S
O143 Cd144 2.300 . S
O143 C150 1.275 . S
Cd144 O143 2.300 . S
Cd144 O152 2.381 . S
Cd144 O153 2.378 . S
O145 Cd146 2.385 . S
O145 C150 1.255 . S
Cd146 O145 2.385 . S
Cd146 O147 2.317 . S
O147 Cd146 2.317 . S
O147 C148 1.232 . S
C148 O147 1.232 . S
C148 O149 1.218 . S
O149 C148 1.218 . S
C150 O143 1.275 . S
C150 O145 1.255 . S
C151 O152 1.258 . S
C151 O153 1.256 . S
O152 Cd144 2.381 . S
O152 C151 1.258 . S
O153 Cd144 2.378 . S
O153 C151 1.256 . S
O154 Cd155 2.300 1_545 S
O154 C161 1.275 . S
Cd155 O154 2.300 1_565 S
Cd155 O163 2.381 1_565 S
Cd155 O164 2.378 . S
O156 Cd157 2.385 . S
O156 C161 1.255 1_565 S
Cd157 O156 2.385 . S
Cd157 O158 2.317 . S
O158 Cd157 2.317 . S
O158 C159 1.232 . S
C159 O158 1.232 . S
C159 O160 1.218 . S
O160 C159 1.218 . S
C161 O154 1.275 . S
C161 O156 1.255 1_545 S
C162 O163 1.258 1_565 S
C162 O164 1.256 . S
O163 Cd155 2.381 1_545 S
O163 C162 1.258 1_545 S
O164 Cd155 2.378 . S
O164 C162 1.256 . S
O165 Cd166 2.300 1_565 S
O165 C172 1.275 . S
Cd166 O165 2.300 1_545 S
Cd166 O174 2.381 1_545 S
Cd166 O175 2.378 . S
O167 Cd168 2.385 . S
O167 C172 1.255 1_545 S
Cd168 O167 2.385 . S
Cd168 O169 2.317 . S
O169 Cd168 2.317 . S
O169 C170 1.232 . S
C170 O169 1.232 . S
C170 O171 1.218 . S
O171 C170 1.218 . S
C172 O165 1.275 . S
C172 O167 1.255 1_565 S
C173 O174 1.258 1_545 S
C173 O175 1.256 . S
O174 Cd166 2.381 1_565 S
O174 C173 1.258 1_565 S
O175 Cd166 2.378 . S
O175 C173 1.256 . S
O176 Cd177 2.300 . S
O176 C183 1.275 . S
Cd177 O176 2.300 . S
Cd177 O185 2.381 . S
Cd177 O186 2.378 . S
O178 Cd179 2.385 . S
O178 C183 1.255 . S
Cd179 O178 2.385 . S
Cd179 O180 2.317 . S
O180 Cd179 2.317 . S
O180 C181 1.232 . S
C181 O180 1.232 . S
C181 O182 1.218 . S
O182 C181 1.218 . S
C183 O176 1.275 . S
C183 O178 1.255 . S
C184 O185 1.258 . S
C184 O186 1.256 . S
O185 Cd177 2.381 . S
O185 C184 1.258 . S
O186 Cd177 2.378 . S
O186 C184 1.256 . S
O187 Cd188 2.300 1_556 S
O187 C194 1.275 . S
Cd188 O187 2.300 1_554 S
Cd188 O196 2.381 1_554 S
Cd188 O197 2.378 . S
O189 Cd190 2.385 . S
O189 C194 1.255 1_554 S
Cd190 O189 2.385 . S
Cd190 O191 2.317 . S
O191 Cd190 2.317 . S
O191 C192 1.232 . S
C192 O191 1.232 . S
C192 O193 1.218 . S
O193 C192 1.218 . S
C194 O187 1.275 . S
C194 O189 1.255 1_556 S
C195 O196 1.258 1_554 S
C195 O197 1.256 . S
O196 Cd188 2.381 1_556 S
O196 C195 1.258 1_556 S
O197 Cd188 2.378 . S
O197 C195 1.256 . S
O198 Cd199 2.300 . S
O198 C205 1.275 . S
Cd199 O198 2.300 . S
Cd199 O207 2.381 . S
Cd199 O208 2.378 . S
O200 Cd201 2.385 . S
O200 C205 1.255 . S
Cd201 O200 2.385 . S
Cd201 O202 2.317 . S
O202 Cd201 2.317 . S
O202 C203 1.232 . S
C203 O202 1.232 . S
C203 O204 1.218 . S
O204 C203 1.218 . S
C205 O198 1.275 . S
C205 O200 1.255 . S
C206 O207 1.258 . S
C206 O208 1.256 . S
O207 Cd199 2.381 . S
O207 C206 1.258 . S
O208 Cd199 2.378 . S
O208 C206 1.256 . S
O209 Cd210 2.300 1_554 S
O209 C216 1.275 . S
Cd210 O209 2.300 1_556 S
Cd210 O218 2.381 1_556 S
Cd210 O219 2.378 . S
O211 Cd212 2.385 . S
O211 C216 1.255 1_556 S
Cd212 O211 2.385 . S
Cd212 O213 2.317 . S
O213 Cd212 2.317 . S
O213 C214 1.232 . S
C214 O213 1.232 . S
C214 O215 1.218 . S
O215 C214 1.218 . S
C216 O209 1.275 . S
C216 O211 1.255 1_554 S
C217 O218 1.258 1_556 S
C217 O219 1.256 . S
O218 Cd210 2.381 1_554 S
O218 C217 1.258 1_554 S
O219 Cd210 2.378 . S
O219 C217 1.256 . S
O220 Cd221 2.300 . S
O220 C227 1.275 . S
Cd221 O220 2.300 . S
Cd221 O229 2.381 . S
Cd221 O230 2.378 . S
O222 Cd223 2.385 . S
O222 C227 1.255 . S
Cd223 O222 2.385 . S
Cd223 O224 2.317 . S
O224 Cd223 2.317 . S
O224 C225 1.232 . S
C225 O224 1.232 . S
C225 O226 1.218 . S
O226 C225 1.218 . S
C227 O220 1.275 . S
C227 O222 1.255 . S
C228 O229 1.258 . S
C228 O230 1.256 . S
O229 Cd221 2.381 . S
O229 C228 1.258 . S
O230 Cd221 2.378 . S
O230 C228 1.256 . S
O231 Cd232 2.300 1_655 S
O231 C238 1.275 . S
Cd232 O231 2.300 1_455 S
Cd232 O240 2.381 1_455 S
Cd232 O241 2.378 . S
O233 Cd234 2.385 . S
O233 C238 1.255 1_455 S
Cd234 O233 2.385 . S
Cd234 O235 2.317 . S
O235 Cd234 2.317 . S
O235 C236 1.232 . S
C236 O235 1.232 . S
C236 O237 1.218 . S
O237 C236 1.218 . S
C238 O231 1.275 . S
C238 O233 1.255 1_655 S
C239 O240 1.258 1_455 S
C239 O241 1.256 . S
O240 Cd232 2.381 1_655 S
O240 C239 1.258 1_655 S
O241 Cd232 2.378 . S
O241 C239 1.256 . S
O242 Cd243 2.300 . S
O242 C249 1.275 . S
Cd243 O242 2.300 . S
Cd243 O251 2.381 . S
Cd243 O252 2.378 . S
O244 Cd245 2.385 . S
O244 C249 1.255 . S
Cd245 O244 2.385 . S
Cd245 O246 2.317 . S
O246 Cd245 2.317 . S
O246 C247 1.232 . S
C247 O246 1.232 . S
C247 O248 1.218 . S
O248 C247 1.218 . S
C249 O242 1.275 . S
C249 O244 1.255 . S
C250 O251 1.258 . S
C250 O252 1.256 . S
O251 Cd243 2.381 . S
O251 C250 1.258 . S
O252 Cd243 2.378 . S
O252 C250 1.256 . S
O253 Cd254 2.300 1_455 S
O253 C260 1.275 . S
Cd254 O253 2.300 1_655 S
Cd254 O262 2.381 1_655 S
Cd254 O263 2.378 . S
O255 Cd256 2.385 . S
O255 C260 1.255 1_655 S
Cd256 O255 2.385 . S
Cd256 O257 2.317 . S
O257 Cd256 2.317 . S
O257 C258 1.232 . S
C258 O257 1.232 . S
C258 O259 1.218 . S
O259 C258 1.218 . S
C260 O253 1.275 . S
C260 O255 1.255 1_455 S
C261 O262 1.258 1_655 S
C261 O263 1.256 . S
O262 Cd254 2.381 1_455 S
O262 C261 1.258 1_455 S
O263 Cd254 2.378 . S
O263 C261 1.256 . S
H264 C267 0.931 . S
H265 C270 0.928 . S
H266 C272 0.930 . S
C267 H264 0.931 . S
C267 C268 1.413 . S
C267 C269 1.360 . S
C268 C267 1.413 . S
C268 C272 1.429 . S
C269 C267 1.360 . S
C269 C270 1.372 . S
C270 H265 0.928 . S
C270 C269 1.372 . S
C270 C271 1.404 . S
C271 C270 1.404 . S
C271 C272 1.391 . S
C272 H266 0.930 . S
C272 C268 1.429 . S
C272 C271 1.391 . S
H273 C276 0.931 . S
H274 C279 0.928 . S
H275 C281 0.930 1_554 S
C276 H273 0.931 . S
C276 C277 1.413 . S
C276 C278 1.360 . S
C277 C276 1.413 . S
C277 C281 1.429 . S
C278 C276 1.360 . S
C278 C279 1.372 . S
C279 H274 0.928 . S
C279 C278 1.372 . S
C279 C280 1.404 . S
C280 C279 1.404 . S
C280 C281 1.391 . S
C281 H275 0.930 1_556 S
C281 C277 1.429 . S
C281 C280 1.391 . S
H282 C285 0.931 . S
H283 C288 0.928 . S
H284 C290 0.930 . S
C285 H282 0.931 . S
C285 C286 1.413 . S
C285 C287 1.360 1_565 S
C286 C285 1.413 . S
C286 C290 1.429 . S
C287 C285 1.360 1_545 S
C287 C288 1.372 . S
C288 H283 0.928 . S
C288 C287 1.372 . S
C288 C289 1.404 . S
C289 C288 1.404 . S
C289 C290 1.391 1_545 S
C290 H284 0.930 . S
C290 C286 1.429 . S
C290 C289 1.391 1_565 S
H291 C294 0.931 . S
H292 C297 0.928 . S
H293 C299 0.930 1_556 S
C294 H291 0.931 . S
C294 C295 1.413 . S
C294 C296 1.374 . S
C295 C294 1.413 . S
C295 C299 1.429 1_545 S
C296 C294 1.374 . S
C296 C297 1.358 1_545 S
C297 H292 0.928 . S
C297 C296 1.358 1_565 S
C297 C298 1.404 . S
C298 C297 1.404 . S
C298 C299 1.391 . S
C299 H293 0.930 1_554 S
C299 C295 1.429 1_565 S
C299 C298 1.391 . S
H300 C303 0.931 . S
H301 C306 0.928 . S
H302 C308 0.930 . S
C303 H300 0.931 . S
C303 C304 1.413 . S
C303 C305 1.360 . S
C304 C303 1.413 . S
C304 C308 1.429 . S
C305 C303 1.360 . S
C305 C306 1.372 . S
C306 H301 0.928 . S
C306 C305 1.372 . S
C306 C307 1.404 . S
C307 C306 1.404 . S
C307 C308 1.391 . S
C308 H302 0.930 . S
C308 C304 1.429 . S
C308 C307 1.391 . S
H309 C312 0.931 . S
H310 C315 0.928 . S
H311 C317 0.930 1_655 S
C312 H309 0.931 . S
C312 C313 1.413 . S
C312 C314 1.374 . S
C313 C312 1.413 . S
C313 C317 1.429 1_554 S
C314 C312 1.374 . S
C314 C315 1.358 1_554 S
C315 H310 0.928 . S
C315 C314 1.358 1_556 S
C315 C316 1.404 . S
C316 C315 1.404 . S
C316 C317 1.391 . S
C317 H311 0.930 1_455 S
C317 C313 1.429 1_556 S
C317 C316 1.391 . S
H318 C321 0.931 . S
H319 C324 0.928 . S
H320 C326 0.930 1_455 S
C321 H318 0.931 . S
C321 C322 1.413 . S
C321 C323 1.360 . S
C322 C321 1.413 . S
C322 C326 1.429 . S
C323 C321 1.360 . S
C323 C324 1.372 . S
C324 H319 0.928 . S
C324 C323 1.372 . S
C324 C325 1.404 . S
C325 C324 1.404 . S
C325 C326 1.391 . S
C326 H320 0.930 1_655 S
C326 C322 1.429 . S
C326 C325 1.391 . S
H327 C330 0.931 . S
H328 C333 0.928 . S
H329 C335 0.930 . S
C330 H327 0.931 . S
C330 C331 1.413 . S
C330 C332 1.360 1_556 S
C331 C330 1.413 . S
C331 C335 1.429 . S
C332 C330 1.360 1_554 S
C332 C333 1.372 . S
C333 H328 0.928 . S
C333 C332 1.372 . S
C333 C334 1.404 . S
C334 C333 1.404 . S
C334 C335 1.391 1_554 S
C335 H329 0.930 . S
C335 C331 1.429 . S
C335 C334 1.391 1_556 S
H336 C339 0.931 . S
H337 C342 0.928 . S
H338 C344 0.930 . S
C339 H336 0.931 . S
C339 C340 1.413 . S
C339 C341 1.360 . S
C340 C339 1.413 . S
C340 C344 1.429 . S
C341 C339 1.360 . S
C341 C342 1.372 . S
C342 H337 0.928 . S
C342 C341 1.372 . S
C342 C343 1.404 . S
C343 C342 1.404 . S
C343 C344 1.391 . S
C344 H338 0.930 . S
C344 C340 1.429 . S
C344 C343 1.391 . S
H345 C348 0.931 . S
H346 C351 0.928 . S
H347 C353 0.930 1_565 S
C348 H345 0.931 . S
C348 C349 1.413 . S
C348 C350 1.374 . S
C349 C348 1.413 . S
C349 C353 1.429 1_455 S
C350 C348 1.374 . S
C350 C351 1.358 1_455 S
C351 H346 0.928 . S
C351 C350 1.358 1_655 S
C351 C352 1.404 . S
C352 C351 1.404 . S
C352 C353 1.391 . S
C353 H347 0.930 1_545 S
C353 C349 1.429 1_655 S
C353 C352 1.391 . S
H354 C357 0.931 . S
H355 C360 0.928 . S
H356 C362 0.930 1_545 S
C357 H354 0.931 . S
C357 C358 1.413 . S
C357 C359 1.360 . S
C358 C357 1.413 . S
C358 C362 1.429 . S
C359 C357 1.360 . S
C359 C360 1.372 . S
C360 H355 0.928 . S
C360 C359 1.372 . S
C360 C361 1.404 . S
C361 C360 1.404 . S
C361 C362 1.391 . S
C362 H356 0.930 1_565 S
C362 C358 1.429 . S
C362 C361 1.391 . S
H363 C366 0.931 . S
H364 C369 0.928 . S
H365 C371 0.930 . S
C366 H363 0.931 . S
C366 C367 1.413 . S
C366 C368 1.360 1_655 S
C367 C366 1.413 . S
C367 C371 1.429 . S
C368 C366 1.360 1_455 S
C368 C369 1.372 . S
C369 H364 0.928 . S
C369 C368 1.372 . S
C369 C370 1.404 . S
C370 C369 1.404 . S
C370 C371 1.391 1_455 S
C371 H365 0.930 . S
C371 C367 1.429 . S
C371 C370 1.391 1_655 S
H372 C375 0.931 . S
H373 C378 0.928 . S
H374 C380 0.930 . S
C375 H372 0.931 . S
C375 C376 1.413 . S
C375 C377 1.360 . S
C376 C375 1.413 . S
C376 C380 1.429 . S
C377 C375 1.360 . S
C377 C378 1.372 . S
C378 H373 0.928 . S
C378 C377 1.372 . S
C378 C379 1.404 . S
C379 C378 1.404 . S
C379 C380 1.391 . S
C380 H374 0.930 . S
C380 C376 1.429 . S
C380 C379 1.391 . S
H381 C384 0.931 . S
H382 C387 0.928 . S
H383 C389 0.930 1_556 S
C384 H381 0.931 . S
C384 C385 1.413 . S
C384 C386 1.360 . S
C385 C384 1.413 . S
C385 C389 1.429 . S
C386 C384 1.360 . S
C386 C387 1.372 . S
C387 H382 0.928 . S
C387 C386 1.372 . S
C387 C388 1.404 . S
C388 C387 1.404 . S
C388 C389 1.391 . S
C389 H383 0.930 1_554 S
C389 C385 1.429 . S
C389 C388 1.391 . S
H390 C393 0.931 . S
H391 C396 0.928 . S
H392 C398 0.930 . S
C393 H390 0.931 . S
C393 C394 1.413 . S
C393 C395 1.360 1_545 S
C394 C393 1.413 . S
C394 C398 1.429 . S
C395 C393 1.360 1_565 S
C395 C396 1.372 . S
C396 H391 0.928 . S
C396 C395 1.372 . S
C396 C397 1.404 . S
C397 C396 1.404 . S
C397 C398 1.391 1_565 S
C398 H392 0.930 . S
C398 C394 1.429 . S
C398 C397 1.391 1_545 S
H399 C402 0.931 . S
H400 C405 0.928 . S
H401 C407 0.930 1_554 S
C402 H399 0.931 . S
C402 C403 1.413 . S
C402 C404 1.371 . S
C403 C402 1.413 . S
C403 C407 1.429 1_565 S
C404 C402 1.371 . S
C404 C405 1.361 1_565 S
C405 H400 0.928 . S
C405 C404 1.361 1_545 S
C405 C406 1.404 . S
C406 C405 1.404 . S
C406 C407 1.391 . S
C407 H401 0.930 1_556 S
C407 C403 1.429 1_545 S
C407 C406 1.391 . S
H408 C411 0.931 . S
H409 C414 0.928 . S
H410 C416 0.930 . S
C411 H408 0.931 . S
C411 C412 1.413 . S
C411 C413 1.360 . S
C412 C411 1.413 . S
C412 C416 1.429 . S
C413 C411 1.360 . S
C413 C414 1.372 . S
C414 H409 0.928 . S
C414 C413 1.372 . S
C414 C415 1.404 . S
C415 C414 1.404 . S
C415 C416 1.391 . S
C416 H410 0.930 . S
C416 C412 1.429 . S
C416 C415 1.391 . S
H417 C420 0.931 . S
H418 C423 0.928 . S
H419 C425 0.930 1_455 S
C420 H417 0.931 . S
C420 C421 1.413 . S
C420 C422 1.371 . S
C421 C420 1.413 . S
C421 C425 1.429 1_556 S
C422 C420 1.371 . S
C422 C423 1.361 1_556 S
C423 H418 0.928 . S
C423 C422 1.361 1_554 S
C423 C424 1.404 . S
C424 C423 1.404 . S
C424 C425 1.391 . S
C425 H419 0.930 1_655 S
C425 C421 1.429 1_554 S
C425 C424 1.391 . S
H426 C429 0.931 . S
H427 C432 0.928 . S
H428 C434 0.930 1_655 S
C429 H426 0.931 . S
C429 C430 1.413 . S
C429 C431 1.360 . S
C430 C429 1.413 . S
C430 C434 1.429 . S
C431 C429 1.360 . S
C431 C432 1.372 . S
C432 H427 0.928 . S
C432 C431 1.372 . S
C432 C433 1.404 . S
C433 C432 1.404 . S
C433 C434 1.391 . S
C434 H428 0.930 1_455 S
C434 C430 1.429 . S
C434 C433 1.391 . S
H435 C438 0.931 . S
H436 C441 0.928 . S
H437 C443 0.930 . S
C438 H435 0.931 . S
C438 C439 1.413 . S
C438 C440 1.360 1_554 S
C439 C438 1.413 . S
C439 C443 1.429 . S
C440 C438 1.360 1_556 S
C440 C441 1.372 . S
C441 H436 0.928 . S
C441 C440 1.372 . S
C441 C442 1.404 . S
C442 C441 1.404 . S
C442 C443 1.391 1_556 S
C443 H437 0.930 . S
C443 C439 1.429 . S
C443 C442 1.391 1_554 S
H444 C447 0.931 . S
H445 C450 0.928 . S
H446 C452 0.930 . S
C447 H444 0.931 . S
C447 C448 1.413 . S
C447 C449 1.360 . S
C448 C447 1.413 . S
C448 C452 1.429 . S
C449 C447 1.360 . S
C449 C450 1.372 . S
C450 H445 0.928 . S
C450 C449 1.372 . S
C450 C451 1.404 . S
C451 C450 1.404 . S
C451 C452 1.391 . S
C452 H446 0.930 . S
C452 C448 1.429 . S
C452 C451 1.391 . S
H453 C456 0.931 . S
H454 C459 0.928 . S
H455 C461 0.930 1_545 S
C456 H453 0.931 . S
C456 C457 1.413 . S
C456 C458 1.371 . S
C457 C456 1.413 . S
C457 C461 1.429 1_655 S
C458 C456 1.371 . S
C458 C459 1.361 1_655 S
C459 H454 0.928 . S
C459 C458 1.361 1_455 S
C459 C460 1.404 . S
C460 C459 1.404 . S
C460 C461 1.391 . S
C461 H455 0.930 1_565 S
C461 C457 1.429 1_455 S
C461 C460 1.391 . S
H462 C465 0.931 . S
H463 C468 0.928 . S
H464 C470 0.930 1_565 S
C465 H462 0.931 . S
C465 C466 1.413 . S
C465 C467 1.360 . S
C466 C465 1.413 . S
C466 C470 1.429 . S
C467 C465 1.360 . S
C467 C468 1.372 . S
C468 H463 0.928 . S
C468 C467 1.372 . S
C468 C469 1.404 . S
C469 C468 1.404 . S
C469 C470 1.391 . S
C470 H464 0.930 1_545 S
C470 C466 1.429 . S
C470 C469 1.391 . S
H471 C474 0.931 . S
H472 C477 0.928 . S
H473 C479 0.930 . S
C474 H471 0.931 . S
C474 C475 1.413 . S
C474 C476 1.360 1_455 S
C475 C474 1.413 . S
C475 C479 1.429 . S
C476 C474 1.360 1_655 S
C476 C477 1.372 . S
C477 H472 0.928 . S
C477 C476 1.372 . S
C477 C478 1.404 . S
C478 C477 1.404 . S
C478 C479 1.391 1_655 S
C479 H473 0.930 . S
C479 C475 1.429 . S
C479 C478 1.391 1_455 S
C475 C8 2.156 . S
C448 C19 2.122 . S
C466 C30 1.924 . S
C457 C41 2.220 . S
C394 C52 2.156 . S
C63 C403 2.220 . S
C376 C74 2.122 . S
C85 C385 1.924 . S
C439 C96 2.156 . S
C107 C421 2.221 . S
C118 C412 2.122 . S
C430 C129 1.924 . S
C367 C140 1.994 . S
C151 C340 1.904 . S
C358 C162 1.727 . S
C173 C349 2.032 . S
C286 C184 1.994 . S
C295 C195 2.032 . S
C206 C268 1.904 . S
C217 C277 1.727 . S
C228 C331 1.994 . S
C239 C313 2.032 . S
C304 C250 1.904 . S
C261 C322 1.727 . S
C269 C7 1.875 . S
C278 C18 2.081 . S
C29 C287 1.941 1_565 S
C40 C296 1.839 . S
C305 C51 1.875 . S
C62 C314 1.839 . S
C323 C73 2.081 . S
C332 C84 1.941 1_554 S
C341 C95 1.875 . S
C106 C350 1.839 . S
C117 C359 2.081 . S
C128 C368 1.941 1_655 S
C139 C377 1.501 . S
C150 C386 1.663 . S
C161 C395 1.551 1_545 S
C172 C404 1.459 . S
C183 C413 1.501 . S
C422 C194 1.459 . S
C431 C205 1.663 . S
C440 C216 1.551 1_556 S
C449 C227 1.501 . S
C238 C458 1.459 . S
C249 C467 1.663 . S
C260 C476 1.551 1_455 S
C5 C343 2.410 . S
C370 C16 2.529 . S
C27 C352 2.203 1_565 S
C361 C38 2.538 . S
C49 C271 2.410 . S
C60 C280 2.538 . S
C71 C289 2.529 . S
C82 C298 2.203 1_556 S
C307 C93 2.410 . S
C325 C104 2.538 . S
C115 C334 2.529 . S
C126 C316 2.203 1_655 S
C451 C137 1.724 . S
C478 C148 1.623 . S
C159 C460 1.382 . S
C469 C170 1.737 . S
C181 C379 1.724 . S
C192 C388 1.737 . S
C203 C397 1.623 . S
C406 C214 1.382 . S
C415 C225 1.724 . S
C433 C236 1.737 . S
C247 C442 1.623 . S
C424 C258 1.382 . S
