# Generated by pormake.
# Topology cml, (3,6)-cn, num edge types: 1
# Building blocks:
#     Node 0, Type 0, BuildingBlock: ESEHIV_clean_linker_0, # of connection points: 3
#     Node 1, Type 0, BuildingBlock: ESEHIV_clean_linker_0, # of connection points: 3
#     Node 2, Type 0, BuildingBlock: ESEHIV_clean_linker_0, # of connection points: 3
#     Node 3, Type 0, BuildingBlock: ESEHIV_clean_linker_0, # of connection points: 3
#     Node 4, Type 0, BuildingBlock: ESEHIV_clean_linker_0, # of connection points: 3
#     Node 5, Type 0, BuildingBlock: ESEHIV_clean_linker_0, # of connection points: 3
#     Node 6, Type 0, BuildingBlock: ESEHIV_clean_linker_0, # of connection points: 3
#     Node 7, Type 0, BuildingBlock: ESEHIV_clean_linker_0, # of connection points: 3
#     Node 8, Type 1, BuildingBlock: OJICUG_clean_sbu_0, # of connection points: 6
#     Node 9, Type 1, BuildingBlock: OJICUG_clean_sbu_0, # of connection points: 6
#     Node 10, Type 1, BuildingBlock: OJICUG_clean_sbu_0, # of connection points: 6
#     Node 11, Type 1, BuildingBlock: OJICUG_clean_sbu_0, # of connection points: 6
#     Edge 12, Type (0, 1), BuildingBlock: EZIPEK_clean_linker_0, # of connection points: 2
#     Edge 13, Type (0, 1), BuildingBlock: EZIPEK_clean_linker_0, # of connection points: 2
#     Edge 14, Type (0, 1), BuildingBlock: EZIPEK_clean_linker_0, # of connection points: 2
#     Edge 15, Type (0, 1), BuildingBlock: EZIPEK_clean_linker_0, # of connection points: 2
#     Edge 16, Type (0, 1), BuildingBlock: EZIPEK_clean_linker_0, # of connection points: 2
#     Edge 17, Type (0, 1), BuildingBlock: EZIPEK_clean_linker_0, # of connection points: 2
#     Edge 18, Type (0, 1), BuildingBlock: EZIPEK_clean_linker_0, # of connection points: 2
#     Edge 19, Type (0, 1), BuildingBlock: EZIPEK_clean_linker_0, # of connection points: 2
#     Edge 20, Type (0, 1), BuildingBlock: EZIPEK_clean_linker_0, # of connection points: 2
#     Edge 21, Type (0, 1), BuildingBlock: EZIPEK_clean_linker_0, # of connection points: 2
#     Edge 22, Type (0, 1), BuildingBlock: EZIPEK_clean_linker_0, # of connection points: 2
#     Edge 23, Type (0, 1), BuildingBlock: EZIPEK_clean_linker_0, # of connection points: 2
#     Edge 24, Type (0, 1), BuildingBlock: EZIPEK_clean_linker_0, # of connection points: 2
#     Edge 25, Type (0, 1), BuildingBlock: EZIPEK_clean_linker_0, # of connection points: 2
#     Edge 26, Type (0, 1), BuildingBlock: EZIPEK_clean_linker_0, # of connection points: 2
#     Edge 27, Type (0, 1), BuildingBlock: EZIPEK_clean_linker_0, # of connection points: 2
#     Edge 28, Type (0, 1), BuildingBlock: EZIPEK_clean_linker_0, # of connection points: 2
#     Edge 29, Type (0, 1), BuildingBlock: EZIPEK_clean_linker_0, # of connection points: 2
#     Edge 30, Type (0, 1), BuildingBlock: EZIPEK_clean_linker_0, # of connection points: 2
#     Edge 31, Type (0, 1), BuildingBlock: EZIPEK_clean_linker_0, # of connection points: 2
#     Edge 32, Type (0, 1), BuildingBlock: EZIPEK_clean_linker_0, # of connection points: 2
#     Edge 33, Type (0, 1), BuildingBlock: EZIPEK_clean_linker_0, # of connection points: 2
#     Edge 34, Type (0, 1), BuildingBlock: EZIPEK_clean_linker_0, # of connection points: 2
#     Edge 35, Type (0, 1), BuildingBlock: EZIPEK_clean_linker_0, # of connection points: 2
# Relax obj value: 0.072
# Max RMSD: 0.084
# Mean RMSD: 0.080
data_MOF--net-cml--node1-OJICUG_clean_sbu_0--node2-ESEHIV_clean_linker_0--edge1-EZIPEK_clean_linker_0
_symmetry_space_group_name_H-M    P1
_symmetry_Int_Tables_number       1
_symmetry_cell_setting            triclinic
loop_
_symmetry_equiv_pos_as_xyz
'x, y, z'
_cell_length_a     26.575596
_cell_length_b     26.735567
_cell_length_c     25.218575
_cell_angle_alpha  90.105398
_cell_angle_beta   90.073903
_cell_angle_gamma 90.035588
loop_
_atom_site_label
_atom_site_type_symbol
_atom_site_fract_x
_atom_site_fract_y
_atom_site_fract_z
_atom_type_partial_charge
H0 H 0.3405 0.43616 0.06801 0.0
H1 H 0.23718 0.44414 0.93704 0.0
H2 H 0.22717 0.32293 0.04856 0.0
C3 C 0.30718 0.42239 0.04781 0.0
C4 C 0.28451 0.3779 0.06473 0.0
C5 C 0.29014 0.44645 0.00186 0.0
C6 C 0.24904 0.42691 0.97388 0.0
C7 C 0.22605 0.38263 0.99102 0.0
C8 C 0.24353 0.35834 0.03667 0.0
H9 H 0.64074 0.55023 0.52942 0.0
H10 H 0.75816 0.57756 0.41922 0.0
H11 H 0.75021 0.66615 0.55999 0.0
C12 C 0.67606 0.56882 0.52183 0.0
C13 C 0.6969 0.60367 0.55825 0.0
C14 C 0.69875 0.55846 0.47308 0.0
C15 C 0.74109 0.58504 0.45748 0.0
C16 C 0.75941 0.62349 0.48952 0.0
C17 C 0.73697 0.63361 0.53892 0.0
H18 H 0.63228 0.42109 0.03289 0.0
H19 H 0.75333 0.31492 0.02775 0.0
H20 H 0.75674 0.44433 0.92654 0.0
C21 C 0.66826 0.4094 0.01683 0.0
C22 C 0.69173 0.43813 0.97744 0.0
C23 C 0.69117 0.36601 0.03619 0.0
C24 C 0.73647 0.34955 0.0142 0.0
C25 C 0.75954 0.37748 0.97407 0.0
C26 C 0.73833 0.42267 0.95723 0.0
H27 H 0.351 0.55833 0.5416 0.0
H28 H 0.24676 0.56209 0.41127 0.0
H29 H 0.23297 0.66821 0.53921 0.0
C30 C 0.31739 0.57363 0.52336 0.0
C31 C 0.29313 0.61449 0.54687 0.0
C32 C 0.30077 0.55461 0.4746 0.0
C33 C 0.25869 0.5757 0.44982 0.0
C34 C 0.23379 0.61629 0.47331 0.0
C35 C 0.25097 0.63565 0.52199 0.0
H36 H 0.84788 0.93601 0.04549 0.0
H37 H 0.74105 0.93486 0.91744 0.0
H38 H 0.73285 0.82278 0.03965 0.0
C39 C 0.81453 0.92032 0.027 0.0
C40 C 0.7916 0.87794 0.04897 0.0
C41 C 0.79617 0.94101 0.97982 0.0
C42 C 0.75424 0.91971 0.95482 0.0
C43 C 0.73125 0.87707 0.97616 0.0
C44 C 0.7498 0.85638 0.02359 0.0
H45 H 0.14229 0.06415 0.53033 0.0
H46 H 0.26333 0.06968 0.41953 0.0
H47 H 0.25933 0.17401 0.548 0.0
C48 C 0.17858 0.0795 0.51974 0.0
C49 C 0.20277 0.11488 0.55292 0.0
C50 C 0.20073 0.06165 0.47303 0.0
C51 C 0.24546 0.08324 0.45541 0.0
C52 C 0.26551 0.12434 0.48259 0.0
C53 C 0.24401 0.14058 0.53052 0.0
H54 H 0.14009 0.93531 0.0537 0.0
H55 H 0.25139 0.8192 0.04316 0.0
H56 H 0.24197 0.93185 0.92156 0.0
C57 C 0.17244 0.919 0.03394 0.0
C58 C 0.18898 0.93909 0.98581 0.0
C59 C 0.19403 0.87538 0.0542 0.0
C60 C 0.23492 0.85338 0.02795 0.0
C61 C 0.25294 0.87452 0.98063 0.0
C62 C 0.22957 0.917 0.95933 0.0
H63 H 0.85415 0.07429 0.55954 0.0
H64 H 0.74933 0.05743 0.42973 0.0
H65 H 0.74521 0.18663 0.53013 0.0
C66 C 0.82077 0.08447 0.53798 0.0
C67 C 0.80047 0.13121 0.55034 0.0
C68 C 0.80029 0.05377 0.49766 0.0
C69 C 0.76251 0.07563 0.46541 0.0
C70 C 0.74212 0.12281 0.47764 0.0
C71 C 0.76063 0.15013 0.52073 0.0
Sc72 Sc 0.98889 0.75517 0.29205 0.0
Sc73 Sc 0.98799 0.88715 0.29834 0.0
Sc74 Sc 0.00443 0.81735 0.41329 0.0
O75 O 0.99316 0.81953 0.33433 0.0
C76 C 0.92285 0.73329 0.39577 0.0
C77 C 0.91272 0.82173 0.2264 0.0
C78 C 0.92516 0.90742 0.40009 0.0
C79 C 0.06095 0.82632 0.22298 0.0
C80 C 0.07125 0.72493 0.37745 0.0
C81 C 0.07202 0.90852 0.38622 0.0
O82 O 0.93683 0.72262 0.34867 0.0
O83 O 0.9337 0.86245 0.24016 0.0
O84 O 0.95329 0.87847 0.42696 0.0
O85 O 0.04096 0.78392 0.23316 0.0
O86 O 0.05607 0.75627 0.41143 0.0
O87 O 0.04146 0.92335 0.35079 0.0
O88 O 0.05286 0.72137 0.33113 0.0
O89 O 0.0482 0.86706 0.24558 0.0
O90 O 0.06867 0.86554 0.40698 0.0
O91 O 0.9245 0.77982 0.24651 0.0
O92 O 0.94219 0.76784 0.42378 0.0
O93 O 0.92785 0.91104 0.34982 0.0
Sc94 Sc 0.00184 0.24615 0.78843 0.0
Sc95 Sc 0.9934 0.11682 0.79542 0.0
Sc96 Sc -0.00437 0.18488 0.91123 0.0
O97 O -0.00326 0.18292 0.8317 0.0
C98 C 0.07364 0.27165 0.88146 0.0
C99 C 0.07268 0.16971 0.7255 0.0
C100 C 0.0641 0.09329 0.89525 0.0
C101 C 0.92644 0.18628 0.71975 0.0
C102 C 0.9264 0.27406 0.88283 0.0
C103 C 0.91879 0.09513 0.88489 0.0
O104 O 0.06704 0.26972 0.83163 0.0
O105 O 0.06163 0.13337 0.75552 0.0
O106 O 0.05886 0.13555 0.91755 0.0
O107 O 0.93672 0.22724 0.74271 0.0
O108 O 0.93282 0.23403 0.90894 0.0
O109 O 0.92525 0.09722 0.83513 0.0
O110 O 0.95276 0.28647 0.84268 0.0
O111 O 0.94799 0.14511 0.7308 0.0
O112 O 0.94451 0.12127 0.91751 0.0
O113 O 0.05044 0.21195 0.72823 0.0
O114 O 0.04685 0.24775 0.91469 0.0
O115 O 0.03828 0.07972 0.85519 0.0
Sc116 Sc 0.49848 0.24764 0.2871 0.0
Sc117 Sc 0.50037 0.37922 0.27903 0.0
Sc118 Sc 0.5091 0.32131 0.40341 0.0
O119 O 0.50276 0.31594 0.32319 0.0
C120 C 0.43265 0.23026 0.39041 0.0
C121 C 0.41819 0.31149 0.22181 0.0
C122 C 0.43297 0.40915 0.37934 0.0
C123 C 0.56716 0.30799 0.20638 0.0
C124 C 0.58183 0.22998 0.37631 0.0
C125 C 0.57974 0.41172 0.36544 0.0
O126 O 0.44409 0.22017 0.34274 0.0
O127 O 0.43687 0.35355 0.23448 0.0
O128 O 0.44933 0.37496 0.40962 0.0
O129 O 0.5527 0.267 0.22672 0.0
O130 O 0.56931 0.26721 0.40494 0.0
O131 O 0.56437 0.41146 0.3179 0.0
O132 O 0.55971 0.21796 0.33341 0.0
O133 O 0.55121 0.35045 0.22106 0.0
O134 O 0.56338 0.38151 0.40036 0.0
O135 O 0.43596 0.26999 0.2377 0.0
O136 O 0.45367 0.26448 0.41735 0.0
O137 O 0.44908 0.41626 0.33249 0.0
Sc138 Sc 0.49084 0.73864 0.78679 0.0
Sc139 Sc 0.48475 0.6089 0.80592 0.0
Sc140 Sc 0.4942 0.68701 0.91543 0.0
O141 O 0.48954 0.67852 0.83581 0.0
C142 C 0.56762 0.77331 0.87522 0.0
C143 C 0.56158 0.65919 0.72699 0.0
C144 C 0.56432 0.59552 0.90033 0.0
C145 C 0.41357 0.66942 0.72602 0.0
C146 C 0.41758 0.77066 0.88283 0.0
C147 C 0.41688 0.59534 0.90473 0.0
O148 O 0.55522 0.77092 0.82662 0.0
O149 O 0.54711 0.62267 0.75523 0.0
O150 O 0.55841 0.63872 0.92017 0.0
O151 O 0.42743 0.7128 0.74073 0.0
O152 O 0.43132 0.73639 0.91448 0.0
O153 O 0.42238 0.58967 0.85516 0.0
O154 O 0.43783 0.77865 0.83765 0.0
O155 O 0.43243 0.62941 0.74439 0.0
O156 O 0.44337 0.62542 0.9322 0.0
O157 O 0.54284 0.70306 0.73087 0.0
O158 O 0.5459 0.74853 0.91135 0.0
O159 O 0.53694 0.57876 0.86292 0.0
C160 C 0.1368 0.37356 0.96071 0.0
C161 C 0.18767 0.35809 0.95759 0.0
C162 C 0.1645 0.28829 0.89957 0.0
C163 C 0.11371 0.30402 0.90248 0.0
N164 N 0.05308 0.36808 0.92287 0.0
N165 N 0.25212 0.309 0.91482 0.0
C166 C 0.1003 0.34874 0.92914 0.0
C167 C 0.20224 0.31797 0.92402 0.0
N168 N 0.12324 0.41079 0.99507 0.0
N169 N 0.17635 0.24412 0.87518 0.0
H170 H 0.28077 0.33031 0.93187 0.0
H171 H 0.26513 0.28349 0.88678 0.0
H172 H 0.14989 0.22236 0.85506 0.0
H173 H 0.21169 0.22747 0.87745 0.0
H174 H 0.086 0.41984 0.00354 0.0
H175 H 0.14925 0.43057 0.01796 0.0
H176 H 0.04217 0.40286 0.93749 0.0
H177 H 0.02614 0.35142 0.89842 0.0
C178 C 0.85161 0.64051 0.48117 0.0
C179 C 0.80136 0.65431 0.46925 0.0
C180 C 0.83092 0.71725 0.406 0.0
C181 C 0.8812 0.70485 0.41959 0.0
N182 N 0.94043 0.66052 0.47476 0.0
N183 N 0.7421 0.70965 0.4271 0.0
C184 C 0.89186 0.66822 0.45868 0.0
C185 C 0.79069 0.69389 0.43358 0.0
N186 N 0.8607 0.59985 0.51261 0.0
N187 N 0.8218 0.751 0.36638 0.0
H188 H 0.71174 0.69302 0.44646 0.0
H189 H 0.73193 0.74141 0.40587 0.0
H190 H 0.85032 0.77032 0.34673 0.0
H191 H 0.78632 0.75786 0.35051 0.0
H192 H 0.89614 0.58403 0.51775 0.0
H193 H 0.83216 0.57977 0.53136 0.0
H194 H 0.9503 0.63857 0.50717 0.0
H195 H 0.97112 0.67869 0.45769 0.0
C196 C 0.85213 0.36308 0.96944 0.0
C197 C 0.80385 0.35694 0.94664 0.0
C198 C 0.83935 0.30707 0.8744 0.0
C199 C 0.88628 0.30764 0.90108 0.0
N200 N 0.9377 0.33249 0.9756 0.0
N201 N 0.74936 0.31993 0.88069 0.0
C202 C 0.89295 0.33498 0.9489 0.0
C203 C 0.79687 0.32856 0.89959 0.0
N204 N 0.85879 0.39596 0.01046 0.0
N205 N 0.8353 0.28535 0.82543 0.0
H206 H 0.71716 0.33505 0.89801 0.0
H207 H 0.74125 0.29482 0.85027 0.0
H208 H 0.86523 0.26744 0.8067 0.0
H209 H 0.8035 0.28833 0.80151 0.0
H210 H 0.89392 0.40595 0.02541 0.0
H211 H 0.82928 0.41653 0.02685 0.0
H212 H 0.94314 0.34685 0.01357 0.0
H213 H 0.96886 0.31315 0.96115 0.0
C214 C 0.1433 0.62141 0.44503 0.0
C215 C 0.19269 0.6416 0.44407 0.0
C216 C 0.16327 0.71345 0.3925 0.0
C217 C 0.11402 0.69303 0.39303 0.0
N218 N 0.05822 0.62393 0.40964 0.0
N219 N 0.25238 0.70027 0.40783 0.0
C220 C 0.10444 0.64563 0.41595 0.0
C221 C 0.20351 0.68567 0.41494 0.0
N222 N 0.1333 0.58024 0.47536 0.0
N223 N 0.17115 0.76011 0.37195 0.0
H224 H 0.28286 0.68099 0.42398 0.0
H225 H 0.26317 0.72902 0.3825 0.0
H226 H 0.14303 0.78039 0.35271 0.0
H227 H 0.20467 0.77988 0.37628 0.0
H228 H 0.09721 0.56676 0.48248 0.0
H229 H 0.16104 0.56121 0.49657 0.0
H230 H 0.04983 0.58755 0.42129 0.0
H231 H 0.02915 0.64098 0.38852 0.0
C232 C 0.64285 0.87569 0.94034 0.0
C233 C 0.69031 0.85191 0.94609 0.0
C234 C 0.65891 0.77845 0.89803 0.0
C235 C 0.61203 0.80288 0.89126 0.0
N236 N 0.56367 0.87875 0.89242 0.0
N237 N 0.74758 0.78669 0.91878 0.0
C238 C 0.60542 0.85292 0.90807 0.0
C239 C 0.69961 0.805 0.92143 0.0
N240 N 0.63282 0.91885 0.96748 0.0
N241 N 0.66413 0.72951 0.88318 0.0
H242 H 0.77856 0.80555 0.9345 0.0
H243 H 0.7574 0.75518 0.89678 0.0
H244 H 0.63601 0.70977 0.86315 0.0
H245 H 0.6952 0.70774 0.89316 0.0
H246 H 0.59723 0.93505 0.96912 0.0
H247 H 0.65903 0.93628 0.99218 0.0
H248 H 0.55842 0.91673 0.89974 0.0
H249 H 0.53687 0.8632 0.867 0.0
C250 C 0.35799 0.14081 0.47679 0.0
C251 C 0.30844 0.15179 0.45956 0.0
C252 C 0.34057 0.21256 0.39549 0.0
C253 C 0.39004 0.20338 0.41455 0.0
N254 N 0.44591 0.16502 0.47811 0.0
N255 N 0.25075 0.20212 0.4087 0.0
C256 C 0.39879 0.1694 0.45675 0.0
C257 C 0.2992 0.18874 0.4205 0.0
N258 N 0.36603 0.10207 0.51114 0.0
N259 N 0.33322 0.24411 0.3535 0.0
H260 H 0.21943 0.18488 0.4256 0.0
H261 H 0.24124 0.23259 0.38512 0.0
H262 H 0.36193 0.2653 0.33659 0.0
H263 H 0.29918 0.24765 0.33342 0.0
H264 H 0.40153 0.08835 0.52068 0.0
H265 H 0.33687 0.081 0.52746 0.0
H266 H 0.45372 0.14512 0.51258 0.0
H267 H 0.47706 0.18426 0.46356 0.0
C268 C 0.28449 0.81032 0.91639 0.0
C269 C 0.29481 0.85061 0.95148 0.0
C270 C 0.38468 0.84546 0.93066 0.0
C271 C 0.37497 0.80192 0.90017 0.0
N272 N 0.31726 0.74053 0.86533 0.0
N273 N 0.35365 0.9059 0.99475 0.0
C274 C 0.32521 0.7839 0.89301 0.0
C275 C 0.34461 0.86838 0.95899 0.0
N276 N 0.2357 0.79802 0.90486 0.0
N277 N 0.43233 0.86465 0.9324 0.0
H278 H 0.32506 0.9242 0.0154 0.0
H279 H 0.38943 0.91716 0.00653 0.0
H280 H 0.46255 0.84759 0.91333 0.0
H281 H 0.44153 0.89897 0.94935 0.0
H282 H 0.22541 0.77254 0.87555 0.0
H283 H 0.20494 0.81601 0.92206 0.0
H284 H 0.28295 0.72176 0.86418 0.0
H285 H 0.34595 0.72161 0.84543 0.0
C286 C 0.71365 0.18559 0.41067 0.0
C287 C 0.70182 0.14502 0.44462 0.0
C288 C 0.61257 0.15305 0.42208 0.0
C289 C 0.62361 0.19814 0.39494 0.0
N290 N 0.68365 0.25799 0.36214 0.0
N291 N 0.64034 0.09149 0.48615 0.0
C292 C 0.67399 0.21447 0.38859 0.0
C293 C 0.6514 0.12863 0.4508 0.0
N294 N 0.76285 0.19573 0.39899 0.0
N295 N 0.56505 0.1335 0.42012 0.0
H296 H 0.66779 0.07219 0.50746 0.0
H297 H 0.60384 0.08203 0.49722 0.0
H298 H 0.53563 0.15055 0.39962 0.0
H299 H 0.55574 0.09829 0.4347 0.0
H300 H 0.77413 0.22187 0.37088 0.0
H301 H 0.79268 0.17487 0.41431 0.0
H302 H 0.7187 0.27534 0.36138 0.0
H303 H 0.65561 0.27822 0.34276 0.0
C304 C 0.36693 0.47115 0.952 0.0
C305 C 0.32172 0.48571 0.97742 0.0
C306 C 0.33764 0.57333 0.95403 0.0
C307 C 0.38469 0.55884 0.93244 0.0
N308 N 0.44941 0.49619 0.92241 0.0
N309 N 0.26608 0.55036 0.00884 0.0
C310 C 0.40086 0.50838 0.93478 0.0
C311 C 0.30756 0.53682 0.98025 0.0
N312 N 0.37677 0.42168 0.94268 0.0
N313 N 0.32131 0.62147 0.94815 0.0
H314 H 0.24297 0.52431 0.02766 0.0
H315 H 0.25646 0.58732 0.01694 0.0
H316 H 0.34305 0.64913 0.93011 0.0
H317 H 0.28521 0.63333 0.95801 0.0
H318 H 0.40641 0.40938 0.91903 0.0
H319 H 0.35271 0.3929 0.95421 0.0
H320 H 0.46479 0.46092 0.92904 0.0
H321 H 0.47593 0.52261 0.9108 0.0
C322 C 0.63573 0.53812 0.40296 0.0
C323 C 0.67515 0.52189 0.43663 0.0
C324 C 0.6601 0.43475 0.41111 0.0
C325 C 0.6169 0.45019 0.38232 0.0
N326 N 0.57093 0.51751 0.33926 0.0
N327 N 0.72597 0.45628 0.47398 0.0
C328 C 0.60713 0.50215 0.37428 0.0
C329 C 0.68821 0.47065 0.44038 0.0
N330 N 0.62351 0.58787 0.40142 0.0
N331 N 0.6752 0.38592 0.40839 0.0
H332 H 0.74858 0.48183 0.49435 0.0
H333 H 0.73354 0.41928 0.48385 0.0
H334 H 0.65635 0.35941 0.3854 0.0
H335 H 0.70865 0.3725 0.4244 0.0
H336 H 0.59072 0.60195 0.38459 0.0
H337 H 0.6451 0.61558 0.41971 0.0
H338 H 0.56725 0.55419 0.32615 0.0
H339 H 0.54566 0.49392 0.32023 0.0
C340 C 0.64902 0.52051 0.99299 0.0
C341 C 0.66622 0.48358 0.95685 0.0
C342 C 0.63186 0.53288 0.88409 0.0
C343 C 0.6044 0.56227 0.92084 0.0
N344 N 0.58144 0.57753 0.0127 0.0
N345 N 0.66451 0.45057 0.86714 0.0
C346 C 0.61182 0.55496 0.97614 0.0
C347 C 0.65556 0.48873 0.90194 0.0
N348 N 0.66818 0.52279 0.04322 0.0
N349 N 0.63562 0.54721 0.83229 0.0
H350 H 0.6779 0.41569 0.87871 0.0
H351 H 0.65301 0.45181 0.82761 0.0
H352 H 0.62107 0.58105 0.81856 0.0
H353 H 0.65837 0.52855 0.805 0.0
H354 H 0.65953 0.55165 0.06953 0.0
H355 H 0.69683 0.49911 0.05624 0.0
H356 H 0.58302 0.56902 0.053 0.0
H357 H 0.55119 0.6004 0.00284 0.0
C358 C 0.31651 0.46665 0.44257 0.0
C359 C 0.33209 0.51731 0.44641 0.0
C360 C 0.41432 0.49583 0.40992 0.0
C361 C 0.39762 0.44603 0.40187 0.0
N362 N 0.33092 0.3849 0.40319 0.0
N363 N 0.3908 0.58234 0.42229 0.0
C364 C 0.34804 0.4316 0.41604 0.0
C365 C 0.37944 0.53259 0.42638 0.0
N366 N 0.27255 0.4518 0.46582 0.0
N367 N 0.46418 0.50742 0.40491 0.0
H368 H 0.36587 0.61061 0.43336 0.0
H369 H 0.42282 0.59554 0.40305 0.0
H370 H 0.4914 0.48073 0.39583 0.0
H371 H 0.47924 0.54203 0.41547 0.0
H372 H 0.26177 0.41451 0.4694 0.0
H373 H 0.24834 0.47664 0.48497 0.0
H374 H 0.29359 0.37381 0.40752 0.0
H375 H 0.35333 0.35826 0.38431 0.0
C376 C 0.81762 0.03187 0.96784 0.0
C377 C 0.82489 0.98117 0.95311 0.0
C378 C 0.89309 0.00507 0.89315 0.0
C379 C 0.88447 0.05627 0.90601 0.0
N380 N 0.83271 0.11928 0.94717 0.0
N381 N 0.86318 0.91955 0.89595 0.0
C382 C 0.84507 0.06995 0.9411 0.0
C383 C 0.86047 0.96789 0.91373 0.0
N384 N 0.78504 0.04343 0.00794 0.0
N385 N 0.93429 0.99139 0.86401 0.0
H386 H 0.84244 0.89028 0.91227 0.0
H387 H 0.88328 0.9089 0.86237 0.0
H388 H 0.96005 0.01666 0.84837 0.0
H389 H 0.94607 0.95451 0.85943 0.0
H390 H 0.78222 0.07889 0.02479 0.0
H391 H 0.76281 0.01666 0.02679 0.0
H392 H 0.80131 0.13159 0.96807 0.0
H393 H 0.85136 0.14799 0.92725 0.0
C394 C 0.16604 0.97521 0.47612 0.0
C395 C 0.17715 0.01815 0.44561 0.0
C396 C 0.13329 0.97941 0.37087 0.0
C397 C 0.11133 0.9438 0.40585 0.0
N398 N 0.09956 0.91828 0.49777 0.0
N399 N 0.16493 0.06387 0.3638 0.0
C400 C 0.126 0.94395 0.46016 0.0
C401 C 0.15943 0.02105 0.39262 0.0
N402 N 0.19303 0.96485 0.52082 0.0
N403 N 0.13068 0.973 0.31721 0.0
H404 H 0.18202 0.09603 0.37871 0.0
H405 H 0.14819 0.06869 0.32674 0.0
H406 H 0.11547 0.941 0.29973 0.0
H407 H 0.1494 0.99635 0.29067 0.0
H408 H 0.18793 0.93203 0.54247 0.0
H409 H 0.22409 0.98627 0.53223 0.0
H410 H 0.10781 0.92111 0.53811 0.0
H411 H 0.06553 0.90028 0.49034 0.0
C412 C 0.17958 0.02731 0.95144 0.0
C413 C 0.15891 0.97906 0.96037 0.0
C414 C 0.07574 0.00956 0.93596 0.0
C415 C 0.09711 0.05568 0.92019 0.0
N416 N 0.17088 0.10647 0.90549 0.0
N417 N 0.08991 0.92127 0.94725 0.0
C418 C 0.14956 0.06418 0.92588 0.0
C419 C 0.10775 0.96923 0.9483 0.0
N420 N 0.22698 0.03843 0.96888 0.0
N421 N 0.02488 0.00496 0.94186 0.0
H422 H 0.11279 0.89017 0.95369 0.0
H423 H 0.05378 0.91226 0.93417 0.0
H424 H 0.00039 0.03504 0.93696 0.0
H425 H 0.00789 0.9732 0.95777 0.0
H426 H 0.24194 0.07445 0.96818 0.0
H427 H 0.24983 0.0125 0.98819 0.0
H428 H 0.20961 0.11222 0.90381 0.0
H429 H 0.14999 0.13397 0.88619 0.0
C430 C 0.86901 0.98794 0.50807 0.0
C431 C 0.82307 0.0029 0.48489 0.0
C432 C 0.83643 0.93847 0.41678 0.0
C433 C 0.88866 0.93864 0.42989 0.0
N434 N 0.95482 0.96822 0.48897 0.0
N435 N 0.75202 0.96568 0.44132 0.0
C436 C 0.90508 0.96447 0.47598 0.0
C437 C 0.80299 0.97061 0.44542 0.0
N438 N 0.87486 0.98808 0.56172 0.0
N439 N 0.81893 0.90677 0.37851 0.0
H440 H 0.72791 0.983 0.46838 0.0
H441 H 0.73391 0.94113 0.41558 0.0
H442 H 0.84098 0.87807 0.36301 0.0
H443 H 0.7829 0.90853 0.36245 0.0
H444 H 0.90683 0.97352 0.58018 0.0
H445 H 0.84489 0.99671 0.58691 0.0
H446 H 0.96694 0.98925 0.52151 0.0
H447 H 0.98373 0.95524 0.46467 0.0
C448 C 0.34802 0.31449 0.09319 0.0
C449 C 0.30913 0.34842 0.107 0.0
C450 C 0.3321 0.34269 0.20062 0.0
C451 C 0.3739 0.31252 0.18616 0.0
N452 N 0.41149 0.25589 0.12285 0.0
N453 N 0.25524 0.38481 0.17303 0.0
C454 C 0.37828 0.29349 0.13384 0.0
C455 C 0.29802 0.35893 0.16071 0.0
N456 N 0.35784 0.30467 0.04097 0.0
N457 N 0.32643 0.357 0.25235 0.0
H458 H 0.23002 0.39712 0.14412 0.0
H459 H 0.24269 0.39105 0.21152 0.0
H460 H 0.34903 0.34279 0.28265 0.0
H461 H 0.30044 0.38336 0.26536 0.0
H462 H 0.38991 0.28614 0.02777 0.0
H463 H 0.33508 0.31741 0.01018 0.0
H464 H 0.41319 0.23752 0.08647 0.0
H465 H 0.43402 0.23914 0.15148 0.0
C466 C 0.63144 0.58105 0.6277 0.0
C467 C 0.67182 0.61198 0.61207 0.0
C468 C 0.64618 0.67177 0.6815 0.0
C469 C 0.59893 0.6468 0.68508 0.0
N470 N 0.54463 0.58036 0.65277 0.0
N471 N 0.73355 0.66352 0.65542 0.0
C472 C 0.59103 0.6022 0.65563 0.0
C473 C 0.68419 0.65191 0.64715 0.0
N474 N 0.63466 0.53041 0.62219 0.0
N475 N 0.65533 0.71345 0.71136 0.0
H476 H 0.76225 0.64095 0.64039 0.0
H477 H 0.74592 0.68947 0.68337 0.0
H478 H 0.63032 0.72684 0.73981 0.0
H479 H 0.68665 0.73627 0.70573 0.0
H480 H 0.60747 0.50613 0.63726 0.0
H481 H 0.66744 0.5133 0.60828 0.0
H482 H 0.53768 0.5492 0.62885 0.0
H483 H 0.51246 0.59655 0.66913 0.0
C484 C 0.6823 0.34854 0.13308 0.0
C485 C 0.66709 0.33858 0.08019 0.0
C486 C 0.59157 0.2955 0.11147 0.0
C487 C 0.60546 0.30782 0.16419 0.0
N488 N 0.66899 0.33282 0.2268 0.0
N489 N 0.61593 0.29205 0.0187 0.0
C490 C 0.6528 0.32975 0.17543 0.0
C491 C 0.6246 0.3082 0.06935 0.0
N492 N 0.72314 0.3784 0.14265 0.0
N493 N 0.54555 0.27462 0.10156 0.0
H494 H 0.63967 0.30116 0.98721 0.0
H495 H 0.58805 0.26637 0.00862 0.0
H496 H 0.52131 0.2634 0.13173 0.0
H497 H 0.53036 0.27045 0.06375 0.0
H498 H 0.73259 0.39208 0.18002 0.0
H499 H 0.7464 0.39186 0.11261 0.0
H500 H 0.70496 0.34437 0.23774 0.0
H501 H 0.64761 0.31941 0.2584 0.0
C502 C 0.30198 0.62324 0.64585 0.0
C503 C 0.31661 0.63806 0.59417 0.0
C504 C 0.39177 0.67918 0.62981 0.0
C505 C 0.37722 0.66455 0.68172 0.0
N506 N 0.3139 0.63276 0.74094 0.0
N507 N 0.36739 0.69039 0.53793 0.0
C508 C 0.33068 0.63982 0.69029 0.0
C509 C 0.35877 0.66971 0.58663 0.0
N510 N 0.26193 0.59172 0.65212 0.0
N511 N 0.43858 0.69881 0.62107 0.0
H512 H 0.34419 0.68369 0.50528 0.0
H513 H 0.39453 0.71774 0.53111 0.0
H514 H 0.46436 0.70612 0.65127 0.0
H515 H 0.45359 0.7042 0.58339 0.0
H516 H 0.25276 0.57472 0.68792 0.0
H517 H 0.23916 0.58049 0.62052 0.0
H518 H 0.27832 0.61898 0.75008 0.0
H519 H 0.33412 0.64484 0.7741 0.0
C520 C 0.85472 0.81945 0.08914 0.0
C521 C 0.81488 0.8541 0.09619 0.0
C522 C 0.83145 0.85696 0.19178 0.0
C523 C 0.87324 0.82451 0.18438 0.0
N524 N 0.91505 0.76317 0.1293 0.0
N525 N 0.75782 0.8977 0.1539 0.0
C526 C 0.88158 0.8017 0.13418 0.0
C527 C 0.80068 0.87005 0.14762 0.0
N528 N 0.86857 0.80551 0.03901 0.0
N529 N 0.82198 0.87573 0.24116 0.0
H530 H 0.73502 0.9081 0.12207 0.0
H531 H 0.74273 0.90756 0.19048 0.0
H532 H 0.8411 0.863 0.27459 0.0
H533 H 0.79629 0.90407 0.24917 0.0
H534 H 0.90149 0.78606 0.03044 0.0
H535 H 0.8486 0.81606 0.0052 0.0
H536 H 0.91883 0.74175 0.09504 0.0
H537 H 0.93616 0.74928 0.16072 0.0
C538 C 0.1448 0.09218 0.62827 0.0
C539 C 0.18081 0.12559 0.60759 0.0
C540 C 0.15278 0.18775 0.6734 0.0
C541 C 0.10888 0.15833 0.68234 0.0
N542 N 0.0596 0.08543 0.65745 0.0
N543 N 0.23899 0.18621 0.64247 0.0
C544 C 0.10393 0.11131 0.65672 0.0
C545 C 0.19077 0.16929 0.63816 0.0
N546 N 0.15202 0.04182 0.62466 0.0
N547 N 0.15901 0.23225 0.69923 0.0
H548 H 0.26919 0.16415 0.63018 0.0
H549 H 0.24978 0.21611 0.66642 0.0
H550 H 0.13451 0.24501 0.72848 0.0
H551 H 0.18714 0.25777 0.68947 0.0
H552 H 0.12806 0.016 0.64265 0.0
H553 H 0.18527 0.02706 0.60918 0.0
H554 H 0.0546 0.05228 0.63615 0.0
H555 H 0.0266 0.09998 0.67367 0.0
C556 C 0.12401 0.8228 0.08769 0.0
C557 C 0.16823 0.85042 0.09895 0.0
C558 C 0.14817 0.84864 0.19364 0.0
C559 C 0.09981 0.82927 0.18107 0.0
N560 N 0.03926 0.80295 0.11507 0.0
N561 N 0.22342 0.89041 0.16168 0.0
C562 C 0.0873 0.81674 0.12791 0.0
C563 C 0.18103 0.86298 0.15183 0.0
N564 N 0.11679 0.80334 0.0381 0.0
N565 N 0.1627 0.85274 0.24548 0.0
H566 H 0.2492 0.89948 0.13201 0.0
H567 H 0.23181 0.90611 0.19846 0.0
H568 H 0.13952 0.84216 0.27689 0.0
H569 H 0.19897 0.86247 0.25727 0.0
H570 H 0.08751 0.77895 0.02871 0.0
H571 H 0.14295 0.80769 0.00765 0.0
H572 H 0.02655 0.79894 0.07621 0.0
H573 H 0.01059 0.79998 0.14295 0.0
C574 C 0.86838 0.18764 0.58339 0.0
C575 C 0.82374 0.16036 0.59383 0.0
C576 C 0.84049 0.16264 0.68914 0.0
C577 C 0.88744 0.18561 0.67824 0.0
N578 N 0.94167 0.23084 0.61865 0.0
N579 N 0.7604 0.13235 0.65488 0.0
C580 C 0.89968 0.20218 0.62646 0.0
C581 C 0.80734 0.1517 0.64641 0.0
N582 N 0.8819 0.19691 0.53202 0.0
N583 N 0.82876 0.14989 0.74018 0.0
H584 H 0.73571 0.12404 0.62389 0.0
H585 H 0.74431 0.12773 0.69211 0.0
H586 H 0.85116 0.16013 0.77247 0.0
H587 H 0.79778 0.12842 0.75086 0.0
H588 H 0.91659 0.21131 0.52064 0.0
H589 H 0.85838 0.18871 0.49999 0.0
H590 H 0.95083 0.24763 0.58277 0.0
H591 H 0.96609 0.24083 0.64928 0.0
loop_
_geom_bond_atom_site_label_1
_geom_bond_atom_site_label_2
_geom_bond_distance
_geom_bond_site_symmetry_2
_ccdc_geom_bond_type
H0 C3 0.931 . S
H1 C6 0.928 . S
H2 C8 0.930 . S
C3 H0 0.931 . S
C3 C4 1.413 . S
C3 C5 1.360 1_554 S
C4 C3 1.413 . S
C4 C8 1.429 . S
C5 C3 1.360 1_556 S
C5 C6 1.372 . S
C6 H1 0.928 . S
C6 C5 1.372 . S
C6 C7 1.404 . S
C7 C6 1.404 . S
C7 C8 1.391 1_556 S
C8 H2 0.930 . S
C8 C4 1.429 . S
C8 C7 1.391 1_554 S
H9 C12 0.931 . S
H10 C15 0.928 . S
H11 C17 0.930 . S
C12 H9 0.931 . S
C12 C13 1.413 . S
C12 C14 1.360 . S
C13 C12 1.413 . S
C13 C17 1.429 . S
C14 C12 1.360 . S
C14 C15 1.372 . S
C15 H10 0.928 . S
C15 C14 1.372 . S
C15 C16 1.404 . S
C16 C15 1.404 . S
C16 C17 1.391 . S
C17 H11 0.930 . S
C17 C13 1.429 . S
C17 C16 1.391 . S
H18 C21 0.931 . S
H19 C24 0.928 . S
H20 C26 0.930 . S
C21 H18 0.931 . S
C21 C22 1.413 1_554 S
C21 C23 1.360 . S
C22 C21 1.413 1_556 S
C22 C26 1.429 . S
C23 C21 1.360 . S
C23 C24 1.372 . S
C24 H19 0.928 . S
C24 C23 1.372 . S
C24 C25 1.404 1_554 S
C25 C24 1.404 1_556 S
C25 C26 1.391 . S
C26 H20 0.930 . S
C26 C22 1.429 . S
C26 C25 1.391 . S
H27 C30 0.931 . S
H28 C33 0.928 . S
H29 C35 0.930 . S
C30 H27 0.931 . S
C30 C31 1.413 . S
C30 C32 1.360 . S
C31 C30 1.413 . S
C31 C35 1.429 . S
C32 C30 1.360 . S
C32 C33 1.372 . S
C33 H28 0.928 . S
C33 C32 1.372 . S
C33 C34 1.404 . S
C34 C33 1.404 . S
C34 C35 1.391 . S
C35 H29 0.930 . S
C35 C31 1.429 . S
C35 C34 1.391 . S
H36 C39 0.931 . S
H37 C42 0.928 . S
H38 C44 0.930 . S
C39 H36 0.931 . S
C39 C40 1.413 . S
C39 C41 1.360 1_554 S
C40 C39 1.413 . S
C40 C44 1.429 . S
C41 C39 1.360 1_556 S
C41 C42 1.372 . S
C42 H37 0.928 . S
C42 C41 1.372 . S
C42 C43 1.404 . S
C43 C42 1.404 . S
C43 C44 1.391 1_556 S
C44 H38 0.930 . S
C44 C40 1.429 . S
C44 C43 1.391 1_554 S
H45 C48 0.931 . S
H46 C51 0.928 . S
H47 C53 0.930 . S
C48 H45 0.931 . S
C48 C49 1.413 . S
C48 C50 1.360 . S
C49 C48 1.413 . S
C49 C53 1.429 . S
C50 C48 1.360 . S
C50 C51 1.372 . S
C51 H46 0.928 . S
C51 C50 1.372 . S
C51 C52 1.404 . S
C52 C51 1.404 . S
C52 C53 1.391 . S
C53 H47 0.930 . S
C53 C49 1.429 . S
C53 C52 1.391 . S
H54 C57 0.931 . S
H55 C60 0.928 . S
H56 C62 0.930 . S
C57 H54 0.931 . S
C57 C58 1.413 1_554 S
C57 C59 1.360 . S
C58 C57 1.413 1_556 S
C58 C62 1.429 . S
C59 C57 1.360 . S
C59 C60 1.372 . S
C60 H55 0.928 . S
C60 C59 1.372 . S
C60 C61 1.404 1_554 S
C61 C60 1.404 1_556 S
C61 C62 1.391 . S
C62 H56 0.930 . S
C62 C58 1.429 . S
C62 C61 1.391 . S
H63 C66 0.931 . S
H64 C69 0.928 . S
H65 C71 0.930 . S
C66 H63 0.931 . S
C66 C67 1.413 . S
C66 C68 1.360 . S
C67 C66 1.413 . S
C67 C71 1.429 . S
C68 C66 1.360 . S
C68 C69 1.372 . S
C69 H64 0.928 . S
C69 C68 1.372 . S
C69 C70 1.404 . S
C70 C69 1.404 . S
C70 C71 1.391 . S
C71 H65 0.930 . S
C71 C67 1.429 . S
C71 C70 1.391 . S
Sc72 O75 2.025 . S
Sc72 O82 2.091 1_455 S
Sc72 O85 2.119 . S
Sc72 O88 2.119 . S
Sc72 O91 2.091 1_455 S
Sc73 O75 2.025 . S
Sc73 O83 2.091 1_455 S
Sc73 O87 2.119 . S
Sc73 O89 2.119 . S
Sc73 O93 2.091 1_455 S
Sc74 O75 2.025 . S
Sc74 O84 2.091 1_455 S
Sc74 O86 2.119 . S
Sc74 O90 2.119 . S
Sc74 O92 2.091 1_455 S
O75 Sc72 2.025 . S
O75 Sc73 2.025 . S
O75 Sc74 2.025 . S
C76 O82 1.268 . S
C76 O92 1.268 . S
C77 O83 1.268 . S
C77 O91 1.268 . S
C78 O84 1.268 . S
C78 O93 1.268 . S
C79 O85 1.268 . S
C79 O89 1.268 . S
C80 O86 1.268 . S
C80 O88 1.268 . S
C81 O87 1.268 . S
C81 O90 1.268 . S
O82 Sc72 2.091 1_655 S
O82 C76 1.268 . S
O83 Sc73 2.091 1_655 S
O83 C77 1.268 . S
O84 Sc74 2.091 1_655 S
O84 C78 1.268 . S
O85 Sc72 2.119 . S
O85 C79 1.268 . S
O86 Sc74 2.119 . S
O86 C80 1.268 . S
O87 Sc73 2.119 . S
O87 C81 1.268 . S
O88 Sc72 2.119 . S
O88 C80 1.268 . S
O89 Sc73 2.119 . S
O89 C79 1.268 . S
O90 Sc74 2.119 . S
O90 C81 1.268 . S
O91 Sc72 2.091 1_655 S
O91 C77 1.268 . S
O92 Sc74 2.091 1_655 S
O92 C76 1.268 . S
O93 Sc73 2.091 1_655 S
O93 C78 1.268 . S
Sc94 O97 2.025 . S
Sc94 O104 2.115 . S
Sc94 O107 2.094 1_455 S
Sc94 O110 2.094 1_455 S
Sc94 O113 2.115 . S
Sc95 O97 2.025 . S
Sc95 O105 2.115 . S
Sc95 O109 2.095 1_455 S
Sc95 O111 2.095 1_455 S
Sc95 O115 2.115 . S
Sc96 O97 2.025 . S
Sc96 O106 2.114 . S
Sc96 O108 2.096 1_455 S
Sc96 O112 2.096 1_455 S
Sc96 O114 2.114 . S
O97 Sc94 2.025 . S
O97 Sc95 2.025 . S
O97 Sc96 2.025 . S
C98 O104 1.268 . S
C98 O114 1.268 . S
C99 O105 1.268 . S
C99 O113 1.268 . S
C100 O106 1.268 . S
C100 O115 1.268 . S
C101 O107 1.268 . S
C101 O111 1.268 . S
C102 O108 1.268 . S
C102 O110 1.268 . S
C103 O109 1.268 . S
C103 O112 1.268 . S
O104 Sc94 2.115 . S
O104 C98 1.268 . S
O105 Sc95 2.115 . S
O105 C99 1.268 . S
O106 Sc96 2.114 . S
O106 C100 1.268 . S
O107 Sc94 2.094 1_655 S
O107 C101 1.268 . S
O108 Sc96 2.096 1_655 S
O108 C102 1.268 . S
O109 Sc95 2.095 1_655 S
O109 C103 1.268 . S
O110 Sc94 2.094 1_655 S
O110 C102 1.268 . S
O111 Sc95 2.095 1_655 S
O111 C101 1.268 . S
O112 Sc96 2.096 1_655 S
O112 C103 1.268 . S
O113 Sc94 2.115 . S
O113 C99 1.268 . S
O114 Sc96 2.114 . S
O114 C98 1.268 . S
O115 Sc95 2.115 . S
O115 C100 1.268 . S
Sc116 O119 2.025 . S
Sc116 O126 2.105 . S
Sc116 O129 2.105 . S
Sc116 O132 2.105 . S
Sc116 O135 2.105 . S
Sc117 O119 2.025 . S
Sc117 O127 2.105 . S
Sc117 O131 2.105 . S
Sc117 O133 2.105 . S
Sc117 O137 2.105 . S
Sc118 O119 2.025 . S
Sc118 O128 2.105 . S
Sc118 O130 2.105 . S
Sc118 O134 2.105 . S
Sc118 O136 2.105 . S
O119 Sc116 2.025 . S
O119 Sc117 2.025 . S
O119 Sc118 2.025 . S
C120 O126 1.268 . S
C120 O136 1.268 . S
C121 O127 1.268 . S
C121 O135 1.268 . S
C122 O128 1.268 . S
C122 O137 1.268 . S
C123 O129 1.268 . S
C123 O133 1.268 . S
C124 O130 1.268 . S
C124 O132 1.268 . S
C125 O131 1.268 . S
C125 O134 1.268 . S
O126 Sc116 2.105 . S
O126 C120 1.268 . S
O127 Sc117 2.105 . S
O127 C121 1.268 . S
O128 Sc118 2.105 . S
O128 C122 1.268 . S
O129 Sc116 2.105 . S
O129 C123 1.268 . S
O130 Sc118 2.105 . S
O130 C124 1.268 . S
O131 Sc117 2.105 . S
O131 C125 1.268 . S
O132 Sc116 2.105 . S
O132 C124 1.268 . S
O133 Sc117 2.105 . S
O133 C123 1.268 . S
O134 Sc118 2.105 . S
O134 C125 1.268 . S
O135 Sc116 2.105 . S
O135 C121 1.268 . S
O136 Sc118 2.105 . S
O136 C120 1.268 . S
O137 Sc117 2.105 . S
O137 C122 1.268 . S
Sc138 O141 2.025 . S
Sc138 O148 2.105 . S
Sc138 O151 2.105 . S
Sc138 O154 2.105 . S
Sc138 O157 2.105 . S
Sc139 O141 2.025 . S
Sc139 O149 2.105 . S
Sc139 O153 2.105 . S
Sc139 O155 2.105 . S
Sc139 O159 2.105 . S
Sc140 O141 2.025 . S
Sc140 O150 2.105 . S
Sc140 O152 2.105 . S
Sc140 O156 2.105 . S
Sc140 O158 2.105 . S
O141 Sc138 2.025 . S
O141 Sc139 2.025 . S
O141 Sc140 2.025 . S
C142 O148 1.268 . S
C142 O158 1.268 . S
C143 O149 1.268 . S
C143 O157 1.268 . S
C144 O150 1.268 . S
C144 O159 1.268 . S
C145 O151 1.268 . S
C145 O155 1.268 . S
C146 O152 1.268 . S
C146 O154 1.268 . S
C147 O153 1.268 . S
C147 O156 1.268 . S
O148 Sc138 2.105 . S
O148 C142 1.268 . S
O149 Sc139 2.105 . S
O149 C143 1.268 . S
O150 Sc140 2.105 . S
O150 C144 1.268 . S
O151 Sc138 2.105 . S
O151 C145 1.268 . S
O152 Sc140 2.105 . S
O152 C146 1.268 . S
O153 Sc139 2.105 . S
O153 C147 1.268 . S
O154 Sc138 2.105 . S
O154 C146 1.268 . S
O155 Sc139 2.105 . S
O155 C145 1.268 . S
O156 Sc140 2.105 . S
O156 C147 1.268 . S
O157 Sc138 2.105 . S
O157 C143 1.268 . S
O158 Sc140 2.105 . S
O158 C142 1.268 . S
O159 Sc139 2.105 . S
O159 C144 1.268 . S
C160 C161 1.363 . S
C160 C166 1.379 . S
C160 N168 1.356 . S
C161 C160 1.363 . S
C161 C167 1.363 . S
C162 C163 1.363 . S
C162 C167 1.379 . S
C162 N169 1.356 . S
C163 C162 1.363 . S
C163 C166 1.363 . S
N164 C166 1.356 . S
N164 H176 0.984 . S
N164 H177 0.985 . S
N165 C167 1.356 1_554 S
N165 H170 0.984 . S
N165 H171 0.985 . S
C166 C160 1.379 . S
C166 C163 1.363 . S
C166 N164 1.356 . S
C167 C161 1.363 . S
C167 C162 1.379 . S
C167 N165 1.356 1_556 S
N168 C160 1.356 . S
N168 H174 0.984 . S
N168 H175 0.984 . S
N169 C162 1.356 . S
N169 H172 0.984 . S
N169 H173 0.985 . S
H170 N165 0.984 . S
H171 N165 0.985 . S
H172 N169 0.984 . S
H173 N169 0.985 . S
H174 N168 0.984 . S
H175 N168 0.984 . S
H176 N164 0.984 . S
H177 N164 0.985 . S
C178 C179 1.363 . S
C178 C184 1.379 . S
C178 N186 1.356 . S
C179 C178 1.363 . S
C179 C185 1.363 . S
C180 C181 1.363 . S
C180 C185 1.379 . S
C180 N187 1.356 . S
C181 C180 1.363 . S
C181 C184 1.363 . S
N182 C184 1.356 . S
N182 H194 0.984 . S
N182 H195 0.985 . S
N183 C185 1.356 . S
N183 H188 0.984 . S
N183 H189 0.985 . S
C184 C178 1.379 . S
C184 C181 1.363 . S
C184 N182 1.356 . S
C185 C179 1.363 . S
C185 C180 1.379 . S
C185 N183 1.356 . S
N186 C178 1.356 . S
N186 H192 0.984 . S
N186 H193 0.984 . S
N187 C180 1.356 . S
N187 H190 0.984 . S
N187 H191 0.985 . S
H188 N183 0.984 . S
H189 N183 0.985 . S
H190 N187 0.984 . S
H191 N187 0.985 . S
H192 N186 0.984 . S
H193 N186 0.984 . S
H194 N182 0.984 . S
H195 N182 0.985 . S
C196 C197 1.363 . S
C196 C202 1.379 . S
C196 N204 1.356 1_556 S
C197 C196 1.363 . S
C197 C203 1.363 . S
C198 C199 1.363 . S
C198 C203 1.379 . S
C198 N205 1.356 . S
C199 C198 1.363 . S
C199 C202 1.363 . S
N200 C202 1.356 . S
N200 H212 0.984 . S
N200 H213 0.985 . S
N201 C203 1.356 . S
N201 H206 0.984 . S
N201 H207 0.985 . S
C202 C196 1.379 . S
C202 C199 1.363 . S
C202 N200 1.356 . S
C203 C197 1.363 . S
C203 C198 1.379 . S
C203 N201 1.356 . S
N204 C196 1.356 1_554 S
N204 H210 0.984 . S
N204 H211 0.984 . S
N205 C198 1.356 . S
N205 H208 0.984 . S
N205 H209 0.985 . S
H206 N201 0.984 . S
H207 N201 0.985 . S
H208 N205 0.984 . S
H209 N205 0.985 . S
H210 N204 0.984 . S
H211 N204 0.984 . S
H212 N200 0.984 . S
H213 N200 0.985 . S
C214 C215 1.363 . S
C214 C220 1.379 . S
C214 N222 1.356 . S
C215 C214 1.363 . S
C215 C221 1.363 . S
C216 C217 1.363 . S
C216 C221 1.379 . S
C216 N223 1.356 . S
C217 C216 1.363 . S
C217 C220 1.363 . S
N218 C220 1.356 . S
N218 H230 0.984 . S
N218 H231 0.985 . S
N219 C221 1.356 . S
N219 H224 0.984 . S
N219 H225 0.985 . S
C220 C214 1.379 . S
C220 C217 1.363 . S
C220 N218 1.356 . S
C221 C215 1.363 . S
C221 C216 1.379 . S
C221 N219 1.356 . S
N222 C214 1.356 . S
N222 H228 0.984 . S
N222 H229 0.984 . S
N223 C216 1.356 . S
N223 H226 0.984 . S
N223 H227 0.985 . S
H224 N219 0.984 . S
H225 N219 0.985 . S
H226 N223 0.984 . S
H227 N223 0.985 . S
H228 N222 0.984 . S
H229 N222 0.984 . S
H230 N218 0.984 . S
H231 N218 0.985 . S
C232 C233 1.363 . S
C232 C238 1.379 . S
C232 N240 1.356 . S
C233 C232 1.363 . S
C233 C239 1.363 . S
C234 C235 1.363 . S
C234 C239 1.379 . S
C234 N241 1.356 . S
C235 C234 1.363 . S
C235 C238 1.363 . S
N236 C238 1.356 . S
N236 H248 0.984 . S
N236 H249 0.985 . S
N237 C239 1.356 1_554 S
N237 H242 0.984 . S
N237 H243 0.985 . S
C238 C232 1.379 . S
C238 C235 1.363 . S
C238 N236 1.356 . S
C239 C233 1.363 . S
C239 C234 1.379 . S
C239 N237 1.356 1_556 S
N240 C232 1.356 . S
N240 H246 0.984 . S
N240 H247 0.984 . S
N241 C234 1.356 . S
N241 H244 0.984 . S
N241 H245 0.985 . S
H242 N237 0.984 . S
H243 N237 0.985 . S
H244 N241 0.984 . S
H245 N241 0.985 . S
H246 N240 0.984 . S
H247 N240 0.984 . S
H248 N236 0.984 . S
H249 N236 0.985 . S
C250 C251 1.363 . S
C250 C256 1.379 . S
C250 N258 1.356 . S
C251 C250 1.363 . S
C251 C257 1.363 . S
C252 C253 1.363 . S
C252 C257 1.379 . S
C252 N259 1.356 . S
C253 C252 1.363 . S
C253 C256 1.363 . S
N254 C256 1.356 . S
N254 H266 0.984 . S
N254 H267 0.985 . S
N255 C257 1.356 . S
N255 H260 0.984 . S
N255 H261 0.985 . S
C256 C250 1.379 . S
C256 C253 1.363 . S
C256 N254 1.356 . S
C257 C251 1.363 . S
C257 C252 1.379 . S
C257 N255 1.356 . S
N258 C250 1.356 . S
N258 H264 0.984 . S
N258 H265 0.984 . S
N259 C252 1.356 . S
N259 H262 0.984 . S
N259 H263 0.985 . S
H260 N255 0.984 . S
H261 N255 0.985 . S
H262 N259 0.984 . S
H263 N259 0.985 . S
H264 N258 0.984 . S
H265 N258 0.984 . S
H266 N254 0.984 . S
H267 N254 0.985 . S
C268 C269 1.363 . S
C268 C274 1.379 . S
C268 N276 1.356 1_556 S
C269 C268 1.363 . S
C269 C275 1.363 . S
C270 C271 1.363 . S
C270 C275 1.379 . S
C270 N277 1.356 . S
C271 C270 1.363 . S
C271 C274 1.363 . S
N272 C274 1.356 . S
N272 H284 0.984 . S
N272 H285 0.985 . S
N273 C275 1.356 . S
N273 H278 0.984 . S
N273 H279 0.985 . S
C274 C268 1.379 . S
C274 C271 1.363 . S
C274 N272 1.356 . S
C275 C269 1.363 . S
C275 C270 1.379 . S
C275 N273 1.356 . S
N276 C268 1.356 1_554 S
N276 H282 0.984 . S
N276 H283 0.984 . S
N277 C270 1.356 . S
N277 H280 0.984 . S
N277 H281 0.985 . S
H278 N273 0.984 . S
H279 N273 0.985 . S
H280 N277 0.984 . S
H281 N277 0.985 . S
H282 N276 0.984 . S
H283 N276 0.984 . S
H284 N272 0.984 . S
H285 N272 0.985 . S
C286 C287 1.363 . S
C286 C292 1.379 . S
C286 N294 1.356 . S
C287 C286 1.363 . S
C287 C293 1.363 . S
C288 C289 1.363 . S
C288 C293 1.379 . S
C288 N295 1.356 . S
C289 C288 1.363 . S
C289 C292 1.363 . S
N290 C292 1.356 . S
N290 H302 0.984 . S
N290 H303 0.985 . S
N291 C293 1.356 . S
N291 H296 0.984 . S
N291 H297 0.985 . S
C292 C286 1.379 . S
C292 C289 1.363 . S
C292 N290 1.356 . S
C293 C287 1.363 . S
C293 C288 1.379 . S
C293 N291 1.356 . S
N294 C286 1.356 . S
N294 H300 0.984 . S
N294 H301 0.984 . S
N295 C288 1.356 . S
N295 H298 0.984 . S
N295 H299 0.985 . S
H296 N291 0.984 . S
H297 N291 0.985 . S
H298 N295 0.984 . S
H299 N295 0.985 . S
H300 N294 0.984 . S
H301 N294 0.984 . S
H302 N290 0.984 . S
H303 N290 0.985 . S
C304 C305 1.363 . S
C304 C310 1.379 . S
C304 N312 1.356 . S
C305 C304 1.363 . S
C305 C311 1.363 . S
C306 C307 1.363 . S
C306 C311 1.379 . S
C306 N313 1.356 . S
C307 C306 1.363 . S
C307 C310 1.363 . S
N308 C310 1.356 . S
N308 H320 0.984 . S
N308 H321 0.985 . S
N309 C311 1.356 1_554 S
N309 H314 0.984 . S
N309 H315 0.985 . S
C310 C304 1.379 . S
C310 C307 1.363 . S
C310 N308 1.356 . S
C311 C305 1.363 . S
C311 C306 1.379 . S
C311 N309 1.356 1_556 S
N312 C304 1.356 . S
N312 H318 0.984 . S
N312 H319 0.984 . S
N313 C306 1.356 . S
N313 H316 0.984 . S
N313 H317 0.985 . S
H314 N309 0.984 . S
H315 N309 0.985 . S
H316 N313 0.984 . S
H317 N313 0.985 . S
H318 N312 0.984 . S
H319 N312 0.984 . S
H320 N308 0.984 . S
H321 N308 0.985 . S
C322 C323 1.363 . S
C322 C328 1.379 . S
C322 N330 1.356 . S
C323 C322 1.363 . S
C323 C329 1.363 . S
C324 C325 1.363 . S
C324 C329 1.379 . S
C324 N331 1.356 . S
C325 C324 1.363 . S
C325 C328 1.363 . S
N326 C328 1.356 . S
N326 H338 0.984 . S
N326 H339 0.985 . S
N327 C329 1.356 . S
N327 H332 0.984 . S
N327 H333 0.985 . S
C328 C322 1.379 . S
C328 C325 1.363 . S
C328 N326 1.356 . S
C329 C323 1.363 . S
C329 C324 1.379 . S
C329 N327 1.356 . S
N330 C322 1.356 . S
N330 H336 0.984 . S
N330 H337 0.984 . S
N331 C324 1.356 . S
N331 H334 0.984 . S
N331 H335 0.985 . S
H332 N327 0.984 . S
H333 N327 0.985 . S
H334 N331 0.984 . S
H335 N331 0.985 . S
H336 N330 0.984 . S
H337 N330 0.984 . S
H338 N326 0.984 . S
H339 N326 0.985 . S
C340 C341 1.363 . S
C340 C346 1.379 . S
C340 N348 1.356 1_556 S
C341 C340 1.363 . S
C341 C347 1.363 . S
C342 C343 1.363 . S
C342 C347 1.379 . S
C342 N349 1.356 . S
C343 C342 1.363 . S
C343 C346 1.363 . S
N344 C346 1.356 . S
N344 H356 0.984 1_556 S
N344 H357 0.985 . S
N345 C347 1.356 . S
N345 H350 0.984 . S
N345 H351 0.985 . S
C346 C340 1.379 . S
C346 C343 1.363 . S
C346 N344 1.356 . S
C347 C341 1.363 . S
C347 C342 1.379 . S
C347 N345 1.356 . S
N348 C340 1.356 1_554 S
N348 H354 0.984 . S
N348 H355 0.984 . S
N349 C342 1.356 . S
N349 H352 0.984 . S
N349 H353 0.985 . S
H350 N345 0.984 . S
H351 N345 0.985 . S
H352 N349 0.984 . S
H353 N349 0.985 . S
H354 N348 0.984 . S
H355 N348 0.984 . S
H356 N344 0.984 1_554 S
H357 N344 0.985 . S
C358 C359 1.363 . S
C358 C364 1.379 . S
C358 N366 1.356 . S
C359 C358 1.363 . S
C359 C365 1.363 . S
C360 C361 1.363 . S
C360 C365 1.379 . S
C360 N367 1.356 . S
C361 C360 1.363 . S
C361 C364 1.363 . S
N362 C364 1.356 . S
N362 H374 0.984 . S
N362 H375 0.985 . S
N363 C365 1.356 . S
N363 H368 0.984 . S
N363 H369 0.985 . S
C364 C358 1.379 . S
C364 C361 1.363 . S
C364 N362 1.356 . S
C365 C359 1.363 . S
C365 C360 1.379 . S
C365 N363 1.356 . S
N366 C358 1.356 . S
N366 H372 0.984 . S
N366 H373 0.984 . S
N367 C360 1.356 . S
N367 H370 0.984 . S
N367 H371 0.985 . S
H368 N363 0.984 . S
H369 N363 0.985 . S
H370 N367 0.984 . S
H371 N367 0.985 . S
H372 N366 0.984 . S
H373 N366 0.984 . S
H374 N362 0.984 . S
H375 N362 0.985 . S
C376 C377 1.363 1_545 S
C376 C382 1.379 . S
C376 N384 1.368 . S
C377 C376 1.363 1_565 S
C377 C383 1.363 . S
C378 C379 1.363 . S
C378 C383 1.379 1_545 S
C378 N385 1.356 . S
C379 C378 1.363 . S
C379 C382 1.363 . S
N380 C382 1.356 . S
N380 H392 0.984 . S
N380 H393 0.985 . S
N381 C383 1.356 . S
N381 H386 0.984 . S
N381 H387 0.985 . S
C382 C376 1.379 . S
C382 C379 1.363 . S
C382 N380 1.356 . S
C383 C377 1.363 . S
C383 C378 1.379 1_565 S
C383 N381 1.356 . S
N384 C376 1.368 . S
N384 H390 0.978 1_556 S
N384 H391 0.980 1_556 S
N385 C378 1.356 . S
N385 H388 0.984 . S
N385 H389 0.985 1_545 S
H386 N381 0.984 . S
H387 N381 0.985 . S
H388 N385 0.984 . S
H389 N385 0.985 1_565 S
H390 N384 0.978 1_554 S
H391 N384 0.980 1_554 S
H392 N380 0.984 . S
H393 N380 0.985 . S
C394 C395 1.363 1_565 S
C394 C400 1.379 . S
C394 N402 1.356 . S
C395 C394 1.363 1_545 S
C395 C401 1.363 . S
C396 C397 1.363 . S
C396 C401 1.379 1_565 S
C396 N403 1.356 . S
C397 C396 1.363 . S
C397 C400 1.363 . S
N398 C400 1.356 . S
N398 H410 0.984 . S
N398 H411 0.985 . S
N399 C401 1.356 . S
N399 H404 0.984 . S
N399 H405 0.985 . S
C400 C394 1.379 . S
C400 C397 1.363 . S
C400 N398 1.356 . S
C401 C395 1.363 . S
C401 C396 1.379 1_545 S
C401 N399 1.356 . S
N402 C394 1.356 . S
N402 H408 0.984 . S
N402 H409 0.984 1_565 S
N403 C396 1.356 . S
N403 H406 0.984 . S
N403 H407 0.985 . S
H404 N399 0.984 . S
H405 N399 0.985 . S
H406 N403 0.984 . S
H407 N403 0.985 . S
H408 N402 0.984 . S
H409 N402 0.984 1_545 S
H410 N398 0.984 . S
H411 N398 0.985 . S
C412 C413 1.363 1_545 S
C412 C418 1.379 . S
C412 N420 1.356 1_545 S
C413 C412 1.363 1_565 S
C413 C419 1.357 1_565 S
C414 C415 1.363 . S
C414 C419 1.393 . S
C414 N421 1.356 . S
C415 C414 1.363 . S
C415 C418 1.363 . S
N416 C418 1.356 . S
N416 H428 0.984 . S
N416 H429 0.985 . S
N417 C419 1.345 1_564 S
N417 H422 0.984 . S
N417 H423 0.985 . S
C418 C412 1.379 . S
C418 C415 1.363 . S
C418 N416 1.356 . S
C419 C413 1.357 1_545 S
C419 C414 1.393 . S
C419 N417 1.345 1_546 S
N420 C412 1.356 1_565 S
N420 H426 0.984 . S
N420 H427 0.984 . S
N421 C414 1.356 . S
N421 H424 0.984 . S
N421 H425 0.985 1_556 S
H422 N417 0.984 . S
H423 N417 0.985 . S
H424 N421 0.984 . S
H425 N421 0.985 1_554 S
H426 N420 0.984 . S
H427 N420 0.984 . S
H428 N416 0.984 . S
H429 N416 0.985 . S
C430 C431 1.363 1_565 S
C430 C436 1.379 . S
C430 N438 1.356 1_565 S
C431 C430 1.363 1_545 S
C431 C437 1.363 1_545 S
C432 C433 1.363 . S
C432 C437 1.379 . S
C432 N439 1.356 . S
C433 C432 1.363 . S
C433 C436 1.363 . S
N434 C436 1.356 . S
N434 H446 0.984 . S
N434 H447 0.985 . S
N435 C437 1.356 1_545 S
N435 H440 0.984 . S
N435 H441 0.985 . S
C436 C430 1.379 . S
C436 C433 1.363 . S
C436 N434 1.356 . S
C437 C431 1.363 1_565 S
C437 C432 1.379 . S
C437 N435 1.356 1_565 S
N438 C430 1.356 1_545 S
N438 H444 0.984 . S
N438 H445 0.984 . S
N439 C432 1.356 . S
N439 H442 0.984 . S
N439 H443 0.985 . S
H440 N435 0.984 . S
H441 N435 0.985 . S
H442 N439 0.984 . S
H443 N439 0.985 . S
H444 N438 0.984 . S
H445 N438 0.984 . S
H446 N434 0.984 . S
H447 N434 0.985 . S
C448 C449 1.363 . S
C448 C454 1.379 . S
C448 N456 1.356 . S
C449 C448 1.363 . S
C449 C455 1.363 . S
C450 C451 1.363 . S
C450 C455 1.379 . S
C450 N457 1.356 . S
C451 C450 1.363 . S
C451 C454 1.363 . S
N452 C454 1.356 . S
N452 H464 0.984 . S
N452 H465 0.985 . S
N453 C455 1.356 . S
N453 H458 0.984 . S
N453 H459 0.985 . S
C454 C448 1.379 . S
C454 C451 1.363 . S
C454 N452 1.356 . S
C455 C449 1.363 . S
C455 C450 1.379 . S
C455 N453 1.356 . S
N456 C448 1.356 . S
N456 H462 0.984 . S
N456 H463 0.984 . S
N457 C450 1.356 . S
N457 H460 0.984 . S
N457 H461 0.985 . S
H458 N453 0.984 . S
H459 N453 0.985 . S
H460 N457 0.984 . S
H461 N457 0.985 . S
H462 N456 0.984 . S
H463 N456 0.984 . S
H464 N452 0.984 . S
H465 N452 0.985 . S
C466 C467 1.363 . S
C466 C472 1.379 . S
C466 N474 1.356 . S
C467 C466 1.363 . S
C467 C473 1.363 . S
C468 C469 1.363 . S
C468 C473 1.379 . S
C468 N475 1.356 . S
C469 C468 1.363 . S
C469 C472 1.363 . S
N470 C472 1.356 . S
N470 H482 0.984 . S
N470 H483 0.985 . S
N471 C473 1.356 . S
N471 H476 0.984 . S
N471 H477 0.985 . S
C472 C466 1.379 . S
C472 C469 1.363 . S
C472 N470 1.356 . S
C473 C467 1.363 . S
C473 C468 1.379 . S
C473 N471 1.356 . S
N474 C466 1.356 . S
N474 H480 0.984 . S
N474 H481 0.984 . S
N475 C468 1.356 . S
N475 H478 0.984 . S
N475 H479 0.985 . S
H476 N471 0.984 . S
H477 N471 0.985 . S
H478 N475 0.984 . S
H479 N475 0.985 . S
H480 N474 0.984 . S
H481 N474 0.984 . S
H482 N470 0.984 . S
H483 N470 0.985 . S
C484 C485 1.363 . S
C484 C490 1.379 . S
C484 N492 1.356 . S
C485 C484 1.363 . S
C485 C491 1.363 . S
C486 C487 1.363 . S
C486 C491 1.379 . S
C486 N493 1.356 . S
C487 C486 1.363 . S
C487 C490 1.363 . S
N488 C490 1.356 . S
N488 H500 0.984 . S
N488 H501 0.985 . S
N489 C491 1.356 . S
N489 H494 0.984 . S
N489 H495 0.985 . S
C490 C484 1.379 . S
C490 C487 1.363 . S
C490 N488 1.356 . S
C491 C485 1.363 . S
C491 C486 1.379 . S
C491 N489 1.356 . S
N492 C484 1.356 . S
N492 H498 0.984 . S
N492 H499 0.984 . S
N493 C486 1.356 . S
N493 H496 0.984 . S
N493 H497 0.985 . S
H494 N489 0.984 . S
H495 N489 0.985 . S
H496 N493 0.984 . S
H497 N493 0.985 . S
H498 N492 0.984 . S
H499 N492 0.984 . S
H500 N488 0.984 . S
H501 N488 0.985 . S
C502 C503 1.363 . S
C502 C508 1.379 . S
C502 N510 1.356 . S
C503 C502 1.363 . S
C503 C509 1.363 . S
C504 C505 1.363 . S
C504 C509 1.379 . S
C504 N511 1.356 . S
C505 C504 1.363 . S
C505 C508 1.363 . S
N506 C508 1.356 . S
N506 H518 0.984 . S
N506 H519 0.985 . S
N507 C509 1.356 . S
N507 H512 0.984 . S
N507 H513 0.985 . S
C508 C502 1.379 . S
C508 C505 1.363 . S
C508 N506 1.356 . S
C509 C503 1.363 . S
C509 C504 1.379 . S
C509 N507 1.356 . S
N510 C502 1.356 . S
N510 H516 0.984 . S
N510 H517 0.984 . S
N511 C504 1.356 . S
N511 H514 0.984 . S
N511 H515 0.985 . S
H512 N507 0.984 . S
H513 N507 0.985 . S
H514 N511 0.984 . S
H515 N511 0.985 . S
H516 N510 0.984 . S
H517 N510 0.984 . S
H518 N506 0.984 . S
H519 N506 0.985 . S
C520 C521 1.363 . S
C520 C526 1.379 . S
C520 N528 1.356 . S
C521 C520 1.363 . S
C521 C527 1.363 . S
C522 C523 1.363 . S
C522 C527 1.379 . S
C522 N529 1.356 . S
C523 C522 1.363 . S
C523 C526 1.363 . S
N524 C526 1.356 . S
N524 H536 0.984 . S
N524 H537 0.985 . S
N525 C527 1.356 . S
N525 H530 0.984 . S
N525 H531 0.985 . S
C526 C520 1.379 . S
C526 C523 1.363 . S
C526 N524 1.356 . S
C527 C521 1.363 . S
C527 C522 1.379 . S
C527 N525 1.356 . S
N528 C520 1.356 . S
N528 H534 0.984 . S
N528 H535 0.984 . S
N529 C522 1.356 . S
N529 H532 0.984 . S
N529 H533 0.985 . S
H530 N525 0.984 . S
H531 N525 0.985 . S
H532 N529 0.984 . S
H533 N529 0.985 . S
H534 N528 0.984 . S
H535 N528 0.984 . S
H536 N524 0.984 . S
H537 N524 0.985 . S
C538 C539 1.363 . S
C538 C544 1.379 . S
C538 N546 1.356 . S
C539 C538 1.363 . S
C539 C545 1.363 . S
C540 C541 1.363 . S
C540 C545 1.379 . S
C540 N547 1.356 . S
C541 C540 1.363 . S
C541 C544 1.363 . S
N542 C544 1.356 . S
N542 H554 0.984 . S
N542 H555 0.985 . S
N543 C545 1.356 . S
N543 H548 0.984 . S
N543 H549 0.985 . S
C544 C538 1.379 . S
C544 C541 1.363 . S
C544 N542 1.356 . S
C545 C539 1.363 . S
C545 C540 1.379 . S
C545 N543 1.356 . S
N546 C538 1.356 . S
N546 H552 0.984 . S
N546 H553 0.984 . S
N547 C540 1.356 . S
N547 H550 0.984 . S
N547 H551 0.985 . S
H548 N543 0.984 . S
H549 N543 0.985 . S
H550 N547 0.984 . S
H551 N547 0.985 . S
H552 N546 0.984 . S
H553 N546 0.984 . S
H554 N542 0.984 . S
H555 N542 0.985 . S
C556 C557 1.363 . S
C556 C562 1.379 . S
C556 N564 1.356 . S
C557 C556 1.363 . S
C557 C563 1.363 . S
C558 C559 1.363 . S
C558 C563 1.379 . S
C558 N565 1.356 . S
C559 C558 1.363 . S
C559 C562 1.363 . S
N560 C562 1.356 . S
N560 H572 0.984 . S
N560 H573 0.985 . S
N561 C563 1.356 . S
N561 H566 0.984 . S
N561 H567 0.985 . S
C562 C556 1.379 . S
C562 C559 1.363 . S
C562 N560 1.356 . S
C563 C557 1.363 . S
C563 C558 1.379 . S
C563 N561 1.356 . S
N564 C556 1.356 . S
N564 H570 0.984 . S
N564 H571 0.984 . S
N565 C558 1.356 . S
N565 H568 0.984 . S
N565 H569 0.985 . S
H566 N561 0.984 . S
H567 N561 0.985 . S
H568 N565 0.984 . S
H569 N565 0.985 . S
H570 N564 0.984 . S
H571 N564 0.984 . S
H572 N560 0.984 . S
H573 N560 0.985 . S
C574 C575 1.363 . S
C574 C580 1.379 . S
C574 N582 1.356 . S
C575 C574 1.363 . S
C575 C581 1.363 . S
C576 C577 1.363 . S
C576 C581 1.379 . S
C576 N583 1.356 . S
C577 C576 1.363 . S
C577 C580 1.363 . S
N578 C580 1.356 . S
N578 H590 0.984 . S
N578 H591 0.985 . S
N579 C581 1.356 . S
N579 H584 0.984 . S
N579 H585 0.985 . S
C580 C574 1.379 . S
C580 C577 1.363 . S
C580 N578 1.356 . S
C581 C575 1.363 . S
C581 C576 1.379 . S
C581 N579 1.356 . S
N582 C574 1.356 . S
N582 H588 0.984 . S
N582 H589 0.984 . S
N583 C576 1.356 . S
N583 H586 0.984 . S
N583 H587 0.985 . S
H584 N579 0.984 . S
H585 N579 0.985 . S
H586 N583 0.984 . S
H587 N583 0.985 . S
H588 N582 0.984 . S
H589 N582 0.984 . S
H590 N578 0.984 . S
H591 N578 0.985 . S
C161 C7 1.523 . S
C163 C98 1.495 . S
C181 C76 1.495 . S
C179 C16 1.523 . S
C199 C102 1.494 . S
C197 C25 1.523 . S
C217 C80 1.497 . S
C215 C34 1.521 . S
C235 C142 1.495 . S
C233 C43 1.523 . S
C253 C120 1.495 . S
C251 C52 1.523 . S
C269 C61 1.523 . S
C271 C146 1.494 . S
C289 C124 1.497 . S
C287 C70 1.521 . S
C305 C5 1.493 . S
C307 C147 1.480 . S
C325 C125 1.480 . S
C323 C14 1.493 . S
C341 C22 1.490 . S
C343 C144 1.478 . S
C359 C32 1.491 . S
C361 C122 1.481 . S
C379 C103 1.480 . S
C377 C41 1.493 . S
C395 C50 1.493 . S
C397 C81 1.480 . S
C415 C100 1.478 . S
C413 C58 1.490 . S
C433 C78 1.481 . S
C431 C68 1.491 . S
C451 C121 1.476 . S
C449 C4 1.493 . S
C469 C143 1.476 . S
C467 C13 1.494 . S
C485 C23 1.495 . S
C487 C123 1.476 . S
C505 C145 1.476 . S
C503 C31 1.491 . S
C523 C77 1.476 . S
C521 C40 1.493 . S
C539 C49 1.494 . S
C541 C99 1.476 . S
C557 C59 1.495 . S
C559 C79 1.476 . S
C575 C67 1.491 . S
C577 C101 1.476 . S
