# Generated by pormake.
# Topology ctn, (3,4)-cn, num edge types: 1
# Building blocks:
#     Node 0, Type 0, BuildingBlock: BETDAH_clean_linker_0, # of connection points: 3
#     Node 1, Type 0, BuildingBlock: BETDAH_clean_linker_0, # of connection points: 3
#     Node 2, Type 0, BuildingBlock: BETDAH_clean_linker_0, # of connection points: 3
#     Node 3, Type 0, BuildingBlock: BETDAH_clean_linker_0, # of connection points: 3
#     Node 4, Type 0, BuildingBlock: BETDAH_clean_linker_0, # of connection points: 3
#     Node 5, Type 0, BuildingBlock: BETDAH_clean_linker_0, # of connection points: 3
#     Node 6, Type 0, BuildingBlock: BETDAH_clean_linker_0, # of connection points: 3
#     Node 7, Type 0, BuildingBlock: BETDAH_clean_linker_0, # of connection points: 3
#     Node 8, Type 0, BuildingBlock: BETDAH_clean_linker_0, # of connection points: 3
#     Node 9, Type 0, BuildingBlock: BETDAH_clean_linker_0, # of connection points: 3
#     Node 10, Type 0, BuildingBlock: BETDAH_clean_linker_0, # of connection points: 3
#     Node 11, Type 0, BuildingBlock: BETDAH_clean_linker_0, # of connection points: 3
#     Node 12, Type 0, BuildingBlock: BETDAH_clean_linker_0, # of connection points: 3
#     Node 13, Type 0, BuildingBlock: BETDAH_clean_linker_0, # of connection points: 3
#     Node 14, Type 0, BuildingBlock: BETDAH_clean_linker_0, # of connection points: 3
#     Node 15, Type 0, BuildingBlock: BETDAH_clean_linker_0, # of connection points: 3
#     Node 16, Type 1, BuildingBlock: KUFVIS_clean_sbu_0, # of connection points: 4
#     Node 17, Type 1, BuildingBlock: KUFVIS_clean_sbu_0, # of connection points: 4
#     Node 18, Type 1, BuildingBlock: KUFVIS_clean_sbu_0, # of connection points: 4
#     Node 19, Type 1, BuildingBlock: KUFVIS_clean_sbu_0, # of connection points: 4
#     Node 20, Type 1, BuildingBlock: KUFVIS_clean_sbu_0, # of connection points: 4
#     Node 21, Type 1, BuildingBlock: KUFVIS_clean_sbu_0, # of connection points: 4
#     Node 22, Type 1, BuildingBlock: KUFVIS_clean_sbu_0, # of connection points: 4
#     Node 23, Type 1, BuildingBlock: KUFVIS_clean_sbu_0, # of connection points: 4
#     Node 24, Type 1, BuildingBlock: KUFVIS_clean_sbu_0, # of connection points: 4
#     Node 25, Type 1, BuildingBlock: KUFVIS_clean_sbu_0, # of connection points: 4
#     Node 26, Type 1, BuildingBlock: KUFVIS_clean_sbu_0, # of connection points: 4
#     Node 27, Type 1, BuildingBlock: KUFVIS_clean_sbu_0, # of connection points: 4
#     Edge 28, Type (0, 1), BuildingBlock: CIFDUS_clean_linker_0, # of connection points: 2
#     Edge 29, Type (0, 1), BuildingBlock: CIFDUS_clean_linker_0, # of connection points: 2
#     Edge 30, Type (0, 1), BuildingBlock: CIFDUS_clean_linker_0, # of connection points: 2
#     Edge 31, Type (0, 1), BuildingBlock: CIFDUS_clean_linker_0, # of connection points: 2
#     Edge 32, Type (0, 1), BuildingBlock: CIFDUS_clean_linker_0, # of connection points: 2
#     Edge 33, Type (0, 1), BuildingBlock: CIFDUS_clean_linker_0, # of connection points: 2
#     Edge 34, Type (0, 1), BuildingBlock: CIFDUS_clean_linker_0, # of connection points: 2
#     Edge 35, Type (0, 1), BuildingBlock: CIFDUS_clean_linker_0, # of connection points: 2
#     Edge 36, Type (0, 1), BuildingBlock: CIFDUS_clean_linker_0, # of connection points: 2
#     Edge 37, Type (0, 1), BuildingBlock: CIFDUS_clean_linker_0, # of connection points: 2
#     Edge 38, Type (0, 1), BuildingBlock: CIFDUS_clean_linker_0, # of connection points: 2
#     Edge 39, Type (0, 1), BuildingBlock: CIFDUS_clean_linker_0, # of connection points: 2
#     Edge 40, Type (0, 1), BuildingBlock: CIFDUS_clean_linker_0, # of connection points: 2
#     Edge 41, Type (0, 1), BuildingBlock: CIFDUS_clean_linker_0, # of connection points: 2
#     Edge 42, Type (0, 1), BuildingBlock: CIFDUS_clean_linker_0, # of connection points: 2
#     Edge 43, Type (0, 1), BuildingBlock: CIFDUS_clean_linker_0, # of connection points: 2
#     Edge 44, Type (0, 1), BuildingBlock: CIFDUS_clean_linker_0, # of connection points: 2
#     Edge 45, Type (0, 1), BuildingBlock: CIFDUS_clean_linker_0, # of connection points: 2
#     Edge 46, Type (0, 1), BuildingBlock: CIFDUS_clean_linker_0, # of connection points: 2
#     Edge 47, Type (0, 1), BuildingBlock: CIFDUS_clean_linker_0, # of connection points: 2
#     Edge 48, Type (0, 1), BuildingBlock: CIFDUS_clean_linker_0, # of connection points: 2
#     Edge 49, Type (0, 1), BuildingBlock: CIFDUS_clean_linker_0, # of connection points: 2
#     Edge 50, Type (0, 1), BuildingBlock: CIFDUS_clean_linker_0, # of connection points: 2
#     Edge 51, Type (0, 1), BuildingBlock: CIFDUS_clean_linker_0, # of connection points: 2
#     Edge 52, Type (0, 1), BuildingBlock: CIFDUS_clean_linker_0, # of connection points: 2
#     Edge 53, Type (0, 1), BuildingBlock: CIFDUS_clean_linker_0, # of connection points: 2
#     Edge 54, Type (0, 1), BuildingBlock: CIFDUS_clean_linker_0, # of connection points: 2
#     Edge 55, Type (0, 1), BuildingBlock: CIFDUS_clean_linker_0, # of connection points: 2
#     Edge 56, Type (0, 1), BuildingBlock: CIFDUS_clean_linker_0, # of connection points: 2
#     Edge 57, Type (0, 1), BuildingBlock: CIFDUS_clean_linker_0, # of connection points: 2
#     Edge 58, Type (0, 1), BuildingBlock: CIFDUS_clean_linker_0, # of connection points: 2
#     Edge 59, Type (0, 1), BuildingBlock: CIFDUS_clean_linker_0, # of connection points: 2
#     Edge 60, Type (0, 1), BuildingBlock: CIFDUS_clean_linker_0, # of connection points: 2
#     Edge 61, Type (0, 1), BuildingBlock: CIFDUS_clean_linker_0, # of connection points: 2
#     Edge 62, Type (0, 1), BuildingBlock: CIFDUS_clean_linker_0, # of connection points: 2
#     Edge 63, Type (0, 1), BuildingBlock: CIFDUS_clean_linker_0, # of connection points: 2
#     Edge 64, Type (0, 1), BuildingBlock: CIFDUS_clean_linker_0, # of connection points: 2
#     Edge 65, Type (0, 1), BuildingBlock: CIFDUS_clean_linker_0, # of connection points: 2
#     Edge 66, Type (0, 1), BuildingBlock: CIFDUS_clean_linker_0, # of connection points: 2
#     Edge 67, Type (0, 1), BuildingBlock: CIFDUS_clean_linker_0, # of connection points: 2
#     Edge 68, Type (0, 1), BuildingBlock: CIFDUS_clean_linker_0, # of connection points: 2
#     Edge 69, Type (0, 1), BuildingBlock: CIFDUS_clean_linker_0, # of connection points: 2
#     Edge 70, Type (0, 1), BuildingBlock: CIFDUS_clean_linker_0, # of connection points: 2
#     Edge 71, Type (0, 1), BuildingBlock: CIFDUS_clean_linker_0, # of connection points: 2
#     Edge 72, Type (0, 1), BuildingBlock: CIFDUS_clean_linker_0, # of connection points: 2
#     Edge 73, Type (0, 1), BuildingBlock: CIFDUS_clean_linker_0, # of connection points: 2
#     Edge 74, Type (0, 1), BuildingBlock: CIFDUS_clean_linker_0, # of connection points: 2
#     Edge 75, Type (0, 1), BuildingBlock: CIFDUS_clean_linker_0, # of connection points: 2
# Relax obj value: 0.060
# Max RMSD: 0.157
# Mean RMSD: 0.105
data_MOF--net-ctn--node1-KUFVIS_clean_sbu_0--node2-BETDAH_clean_linker_0--edge1-CIFDUS_clean_linker_0
_symmetry_space_group_name_H-M    P1
_symmetry_Int_Tables_number       1
_symmetry_cell_setting            triclinic
loop_
_symmetry_equiv_pos_as_xyz
'x, y, z'
_cell_length_a     46.172607
_cell_length_b     45.875389
_cell_length_c     46.66854
_cell_angle_alpha  99.873366
_cell_angle_beta   90.467682
_cell_angle_gamma 96.354865
loop_
_atom_site_label
_atom_site_type_symbol
_atom_site_fract_x
_atom_site_fract_y
_atom_site_fract_z
_atom_type_partial_charge
H0 H 0.08425 1.00189 0.10894 0.0
H1 H 0.09334 0.02534 0.0238 0.0
H2 H 0.02607 0.05821 0.07843 0.0
C3 C 0.07737 0.01369 0.09235 0.0
C4 C 0.0535 0.03056 0.09744 0.0
C5 C 0.09195 1.01128 0.06579 0.0
C6 C 0.08253 0.02652 0.04441 0.0
C7 C 0.05932 0.04373 0.04904 0.0
C8 C 0.0449 0.04598 0.07559 0.0
N9 N 0.04908 0.05541 0.02509 0.0
C10 C 0.03994 0.08346 0.02624 0.0
H11 H 0.37689 0.70132 0.27336 0.0
H12 H 0.42405 0.76303 0.22667 0.0
H13 H 0.33679 0.72604 0.19839 0.0
C14 C 0.37769 0.71376 0.25558 0.0
C15 C 0.35339 0.71138 0.23651 0.0
C16 C 0.40292 0.73267 0.25248 0.0
C17 C 0.40447 0.74846 0.22934 0.0
C18 C 0.381 0.74603 0.20965 0.0
C19 C 0.35522 0.72758 0.21328 0.0
N20 N 0.38466 0.76267 0.18669 0.0
C21 C 0.36309 0.76724 0.16757 0.0
H22 H 0.04984 0.45274 0.07315 0.0
H23 H 0.04381 0.54673 0.08001 0.0
H24 H 0.99569 0.48474 0.01249 0.0
C25 C 0.04111 0.4711 0.06551 0.0
C26 C 0.02212 0.46516 0.041 0.0
C27 C 0.04882 0.50039 0.08019 0.0
C28 C 0.03719 0.52385 0.0699 0.0
C29 C 0.01757 0.5182 0.04604 0.0
C30 C 1.00985 0.48885 0.03173 0.0
N31 N 1.00885 0.54252 0.03441 0.0
C32 C 0.98029 0.54942 0.03475 0.0
H33 H 0.78575 0.83861 0.18105 0.0
H34 H 0.69937 0.79228 0.17935 0.0
H35 H 0.72356 0.86933 0.24456 0.0
C36 C 0.76423 0.83634 0.19008 0.0
C37 C 0.75718 0.8571 0.21417 0.0
C38 C 0.74353 0.81286 0.17732 0.0
C39 C 0.71562 0.81029 0.18891 0.0
C40 C 0.70856 0.83004 0.21341 0.0
C41 C 0.72938 0.85342 0.22618 0.0
N42 N 0.67984 0.82631 0.22372 0.0
C43 C 0.67212 0.83437 0.25246 0.0
H44 H 0.08449 0.02829 0.45073 0.0
H45 H 0.09369 0.01215 0.53864 0.0
H46 H 0.0142 0.98064 0.48975 0.0
C47 C 0.07596 0.01876 0.46906 0.0
C48 C 0.04763 1.00359 0.46681 0.0
C49 C 0.09322 0.02174 0.49471 0.0
C50 C 0.0812 1.00987 0.51848 0.0
C51 C 0.05291 0.99493 0.51663 0.0
C52 C 0.03632 0.99157 0.49076 0.0
N53 N 0.0399 0.98724 0.5421 0.0
C54 C 0.03611 0.95833 0.5479 0.0
H55 H 0.27667 0.69108 0.87026 0.0
H56 H 0.20001 0.71209 0.82775 0.0
H57 H 0.24569 0.63958 0.78805 0.0
C58 C 0.2612 0.68714 0.85205 0.0
C59 C 0.26405 0.66364 0.82906 0.0
C60 C 0.23788 0.70468 0.85209 0.0
C61 C 0.21766 0.69849 0.82835 0.0
C62 C 0.22056 0.67502 0.80518 0.0
C63 C 0.24362 0.65775 0.80586 0.0
N64 N 0.20095 0.66791 0.78071 0.0
C65 C 0.17625 0.68173 0.77664 0.0
H66 H 0.97907 0.56882 0.54051 0.0
H67 H 0.05349 0.57339 0.4857 0.0
H68 H 0.99846 0.49086 0.48195 0.0
C69 C 0.99245 0.55829 0.52377 0.0
C70 C 0.98564 0.5279 0.51241 0.0
C71 C 0.01715 0.57481 0.51462 0.0
C72 C 0.03453 0.56081 0.49296 0.0
C73 C 0.02759 0.53048 0.48107 0.0
C74 C 1.0036 0.51421 0.49128 0.0
N75 N 0.0444 0.51531 0.45923 0.0
C76 C 0.0623 0.52894 0.4404 0.0
H77 H 0.86222 0.75952 0.82722 0.0
H78 H 0.8627 0.85172 0.81845 0.0
H79 H 0.82455 0.82034 0.89288 0.0
C80 C 0.85693 0.78183 0.83538 0.0
C81 C 0.84247 0.78719 0.86173 0.0
C82 C 0.86493 0.80508 0.81978 0.0
C83 C 0.85726 0.83372 0.83046 0.0
C84 C 0.84253 0.83912 0.85677 0.0
C85 C 0.83599 0.81606 0.87266 0.0
N86 N 0.8344 0.86768 0.8679 0.0
C87 C 0.81773 0.8829 0.85181 0.0
H88 H 0.38103 0.28545 0.35695 0.0
H89 H 0.34693 0.34374 0.30433 0.0
H90 H 0.29767 0.31671 0.37429 0.0
C91 C 0.36441 0.29879 0.35189 0.0
C92 C 0.33976 0.30037 0.3694 0.0
C93 C 0.36746 0.31421 0.328 0.0
C94 C 0.34504 0.33121 0.322 0.0
C95 C 0.31986 0.33176 0.33872 0.0
C96 C 0.31746 0.31629 0.36194 0.0
N97 N 0.29584 0.34684 0.33285 0.0
C98 C 0.2951 0.36746 0.31434 0.0
H99 H 0.53419 0.95242 0.59413 0.0
H100 H 0.52537 0.04524 0.59409 0.0
H101 H 0.4959 0.9794 0.52009 0.0
C102 C 0.52741 0.97 0.58368 0.0
C103 C 0.51466 0.96251 0.55563 0.0
C104 C 0.53122 0.99978 0.59822 0.0
C105 C 0.52168 0.02199 0.58406 0.0
C106 C 0.50855 0.01453 0.55616 0.0
C107 C 0.5051 0.98487 0.54206 0.0
N108 N 0.50228 0.03715 0.5407 0.0
C109 C 0.47599 0.04934 0.54311 0.0
H110 H 0.27854 0.34977 0.68128 0.0
H111 H 0.18766 0.32329 0.69514 0.0
H112 H 0.23268 0.40066 0.74845 0.0
C113 C 0.25874 0.35293 0.69318 0.0
C114 C 0.25891 0.37687 0.71638 0.0
C115 C 0.23314 0.33331 0.68516 0.0
C116 C 0.20762 0.33799 0.70095 0.0
C117 C 0.20763 0.36234 0.72375 0.0
C118 C 0.23309 0.38167 0.73112 0.0
N119 N 0.18177 0.36946 0.73803 0.0
C120 C 0.16428 0.34981 0.75183 0.0
H121 H 0.85047 0.19212 0.77965 0.0
H122 H 0.89669 0.23902 0.71885 0.0
H123 H 0.80913 0.19837 0.69797 0.0
C124 C 0.85066 0.20036 0.75921 0.0
C125 C 0.82611 0.1937 0.74023 0.0
C126 C 0.87594 0.21698 0.7519 0.0
C127 C 0.87689 0.22697 0.72512 0.0
C128 C 0.85281 0.22023 0.70575 0.0
C129 C 0.82743 0.20379 0.71335 0.0
N130 N 0.8558 0.22601 0.67706 0.0
C131 C 0.84668 0.25103 0.66828 0.0
H132 H 0.5933 0.49794 0.60466 0.0
H133 H 0.60976 0.5174 0.51899 0.0
H134 H 0.54198 0.55664 0.56795 0.0
C135 C 0.58842 0.50962 0.58727 0.0
C136 C 0.56478 0.52708 0.58952 0.0
C137 C 0.60563 0.50685 0.56232 0.0
C138 C 0.59801 0.52056 0.5391 0.0
C139 C 0.57554 0.53865 0.54121 0.0
C140 C 0.55933 0.54245 0.56659 0.0
N141 N 0.56901 0.55127 0.51655 0.0
C142 C 0.55709 0.57788 0.51726 0.0
H143 H 0.58503 0.52634 0.95309 0.0
H144 H 0.58644 0.49101 0.03277 0.0
H145 H 0.50507 0.49119 0.98741 0.0
C146 C 0.57363 0.51553 0.96929 0.0
C147 C 0.54317 0.50927 0.96694 0.0
C148 C 0.58947 0.50928 0.99294 0.0
C149 C 0.57452 0.49574 0.01432 0.0
C150 C 0.54397 0.48912 0.01214 0.0
C151 C 0.52856 0.4964 0.9888 0.0
N152 N 0.52767 0.4767 0.0337 0.0
C153 C 0.53675 0.456 0.04944 0.0
H154 H 0.79781 0.21242 0.36011 0.0
H155 H 0.72935 0.24942 0.31958 0.0
H156 H 0.77829 0.18586 0.2686 0.0
C157 C 0.78479 0.2138 0.34106 0.0
C158 C 0.7907 0.19688 0.31418 0.0
C159 C 0.76291 0.2332 0.34327 0.0
C160 C 0.74595 0.23434 0.31829 0.0
C161 C 0.75147 0.21711 0.29135 0.0
C162 C 0.77398 0.19885 0.2895 0.0
N163 N 0.73566 0.21807 0.26535 0.0
C164 C 0.71046 0.23178 0.2635 0.0
H165 H 0.44151 0.0682 0.04804 0.0
H166 H 0.52207 0.07369 1.00186 0.0
H167 H 0.47057 0.98929 0.99894 0.0
C168 C 0.45728 0.05775 0.03384 0.0
C169 C 0.45284 0.02688 0.02409 0.0
C170 C 0.48247 0.07489 0.02639 0.0
C171 C 0.50276 0.06078 1.00801 0.0
C172 C 0.49836 0.02983 0.99812 0.0
C173 C 0.47381 0.01311 1.00674 0.0
N174 N 0.51842 0.01447 0.98013 0.0
C175 C 0.53628 0.02676 0.96042 0.0
Mn176 Mn 0.26381 0.87549 0.02692 0.0
Mn177 Mn 0.26416 0.8971 0.96129 0.0
C178 C 0.24929 0.84164 0.98499 0.0
C179 C 0.28501 0.85603 0.064 0.0
C180 C 0.21875 0.91241 1.00606 0.0
O181 O 0.29217 0.91364 0.03404 0.0
O182 O 0.29012 0.92631 0.98934 0.0
C183 C 0.32554 0.88972 0.94672 0.0
N184 N 0.29653 0.88287 0.94008 0.0
C185 C 0.30625 0.8501 0.89603 0.0
C186 C 0.33623 0.85695 0.90232 0.0
C187 C 0.3459 0.87681 0.9278 0.0
C188 C 0.28699 0.86379 0.91561 0.0
H189 H 0.33311 0.90486 0.96634 0.0
C190 C 0.29972 0.93078 0.01579 0.0
O191 O 0.26388 0.87248 0.06896 0.0
O192 O 0.29454 0.85168 0.03769 0.0
N193 N 0.24035 0.87022 0.93224 0.0
C194 C 0.21075 0.86439 0.93036 0.0
C195 C 0.19755 0.84426 0.90654 0.0
C196 C 0.21489 0.83035 0.88492 0.0
C197 C 0.24531 0.83671 0.88731 0.0
C198 C 0.25723 0.85717 0.9114 0.0
H199 H 0.19733 0.87479 0.94706 0.0
O200 O 0.23946 0.83707 1.01003 0.0
O201 O 0.26602 0.86631 0.98531 0.0
O202 O 0.22924 0.89977 0.02543 0.0
O203 O 0.22969 0.91227 0.98101 0.0
C204 C 0.26429 0.82304 0.86707 0.0
C205 C 0.29474 0.82972 0.87143 0.0
H206 H 0.352 0.84688 0.88788 0.0
H207 H 0.369 0.88209 0.93288 0.0
H208 H 0.17406 0.83932 0.90496 0.0
H209 H 0.20465 0.81456 0.86676 0.0
H210 H 0.2557 0.80701 0.84831 0.0
H211 H 0.3091 0.81874 0.85595 0.0
Mn212 Mn 0.20109 0.54052 0.25666 0.0
Mn213 Mn 0.17422 0.6068 0.27189 0.0
C214 C 0.22519 0.58153 0.24109 0.0
C215 C 0.22903 0.50569 0.27081 0.0
C216 C 0.14894 0.55645 0.22428 0.0
O217 O 0.17197 0.53483 0.28829 0.0
O218 O 0.1587 0.58109 0.29998 0.0
C219 C 0.20283 0.62994 0.32954 0.0
N220 N 0.19761 0.6331 0.30154 0.0
C221 C 0.22635 0.68096 0.30878 0.0
C222 C 0.23189 0.67831 0.33776 0.0
C223 C 0.22014 0.65265 0.34815 0.0
C224 C 0.20883 0.65768 0.2913 0.0
H225 H 0.19387 0.61023 0.3376 0.0
C226 C 0.1582 0.55407 0.304 0.0
O227 O 0.20814 0.49779 0.25129 0.0
O228 O 0.23351 0.53372 0.28217 0.0
N229 N 0.18772 0.63398 0.24673 0.0
C230 C 0.18214 0.63205 0.2177 0.0
C231 C 0.19354 0.65529 0.20356 0.0
C232 C 0.21036 0.68034 0.21943 0.0
C233 C 0.21559 0.68195 0.24932 0.0
C234 C 0.20357 0.65816 0.26227 0.0
H235 H 0.16927 0.61284 0.20538 0.0
O236 O 0.22972 0.55483 0.229 0.0
O237 O 0.20715 0.58344 0.26248 0.0
O238 O 0.16777 0.53865 0.22691 0.0
O239 O 0.14886 0.58179 0.24067 0.0
C240 C 0.23278 0.70593 0.26666 0.0
C241 C 0.2381 0.70547 0.29638 0.0
H242 H 0.24539 0.69568 0.35212 0.0
H243 H 0.22445 0.65037 0.37044 0.0
H244 H 0.18945 0.65386 0.18047 0.0
H245 H 0.21931 0.69811 0.20839 0.0
H246 H 0.24241 0.72461 0.25724 0.0
H247 H 0.25176 0.72379 0.30936 0.0
Mn248 Mn 0.78688 0.63578 0.01388 0.0
Mn249 Mn 0.72671 0.6507 0.97974 0.0
C250 C 0.74281 0.60694 0.01689 0.0
C251 C 0.82964 0.61263 0.01261 0.0
C252 C 0.75168 0.68707 0.03696 0.0
O253 O 0.80331 0.66372 0.98677 0.0
O254 O 0.76228 0.66779 0.96206 0.0
C255 C 0.73371 0.6137 0.92224 0.0
N256 N 0.71724 0.62121 0.94585 0.0
C257 C 0.67637 0.58715 0.92434 0.0
C258 C 0.69284 0.57912 0.8997 0.0
C259 C 0.72169 0.59232 0.89873 0.0
C260 C 0.68967 0.60824 0.94725 0.0
H261 H 0.75581 0.624 0.92135 0.0
C262 C 0.78988 0.67314 0.96678 0.0
O263 O 0.82627 0.63601 0.03178 0.0
O264 O 0.80837 0.60301 0.99382 0.0
N265 N 0.69019 0.63597 0.99397 0.0
C266 C 0.67741 0.64582 0.01951 0.0
C267 C 0.64859 0.63461 0.02409 0.0
C268 C 0.63297 0.61391 1.00216 0.0
C269 C 0.64635 0.6046 0.97582 0.0
C270 C 0.67518 0.6164 0.97257 0.0
H271 H 0.68912 0.66206 0.03629 0.0
O272 O 0.764 0.60725 0.03539 0.0
O273 O 0.74831 0.62267 0.99642 0.0
O274 O 0.77205 0.67117 0.04034 0.0
O275 O 0.7343 0.68181 0.01474 0.0
C276 C 0.63223 0.58404 0.9527 0.0
C277 C 0.64729 0.5751 0.92707 0.0
H278 H 0.68358 0.56281 0.88144 0.0
H279 H 0.73456 0.58619 0.87983 0.0
H280 H 0.63838 0.64202 0.04444 0.0
H281 H 0.61076 0.60528 1.00578 0.0
H282 H 0.60986 0.57481 0.95452 0.0
H283 H 0.63633 0.55891 0.90963 0.0
Mn284 Mn 0.91732 0.02792 0.27852 0.0
Mn285 Mn 0.93106 0.95626 0.27228 0.0
C286 C 0.88523 0.98988 0.25256 0.0
C287 C 0.89582 0.06914 0.30192 0.0
C288 C 0.962 1.00003 0.23727 0.0
O289 O 0.94781 0.02983 0.31131 0.0
O290 O 0.95251 0.98083 0.30672 0.0
C291 C 0.90268 0.94181 0.32562 0.0
N292 N 0.90556 0.93577 0.29624 0.0
C293 C 0.86991 0.8927 0.29193 0.0
C294 C 0.86679 0.89828 0.32217 0.0
C295 C 0.88314 0.92303 0.33906 0.0
C296 C 0.88965 0.91224 0.27974 0.0
H297 H 0.91513 0.96085 0.33867 0.0
C298 C 0.95812 1.00784 0.31983 0.0
O299 O 0.91745 0.07208 0.28465 0.0
O300 O 0.88794 0.04252 0.30702 0.0
N301 N 0.9113 0.92971 0.24015 0.0
C302 C 0.91573 0.92831 0.21113 0.0
C303 C 0.90024 0.9054 0.19114 0.0
C304 C 0.88063 0.88398 0.20118 0.0
C305 C 0.87673 0.88563 0.23115 0.0
C306 C 0.89282 0.90892 0.25005 0.0
H307 H 0.93084 0.94462 0.20325 0.0
O308 O 0.88559 0.01692 0.24773 0.0
O309 O 0.90355 0.98585 0.27236 0.0
O310 O 0.9484 0.02216 0.24737 0.0
O311 O 0.9578 0.975 0.24601 0.0
C312 C 0.8572 0.86531 0.24298 0.0
C313 C 0.85381 0.86883 0.27336 0.0
H314 H 0.85169 0.88389 0.33262 0.0
H315 H 0.8807 0.92761 0.36239 0.0
H316 H 0.9034 0.90428 0.16804 0.0
H317 H 0.86858 0.86647 0.18569 0.0
H318 H 0.84435 0.84717 0.22889 0.0
H319 H 0.83837 0.85336 0.28216 0.0
Mn320 Mn 0.29107 0.1501 0.52367 0.0
Mn321 Mn 0.23208 0.17416 0.49534 0.0
C322 C 0.24504 0.12507 0.5266 0.0
C323 C 0.33124 0.12295 0.52111 0.0
C324 C 0.2605 0.20334 0.55322 0.0
O325 O 0.30948 0.17695 0.49646 0.0
O326 O 0.2686 0.19176 0.47958 0.0
C327 C 0.23742 0.14363 0.43465 0.0
N328 N 0.22132 0.14902 0.45891 0.0
C329 C 0.17971 0.11766 0.43521 0.0
C330 C 0.1958 0.1119 0.40991 0.0
C331 C 0.22481 0.12485 0.40968 0.0
C332 C 0.19351 0.13635 0.45949 0.0
H333 H 0.25971 0.15359 0.43435 0.0
C334 C 0.29632 0.19179 0.48072 0.0
O335 O 0.32977 0.14649 0.5406 0.0
O336 O 0.30947 0.11532 0.50248 0.0
N337 N 0.19487 0.1593 0.50806 0.0
C338 C 0.18239 0.16696 0.53425 0.0
C339 C 0.15338 0.15582 0.53813 0.0
C340 C 0.13734 0.13734 0.51493 0.0
C341 C 0.1504 0.13033 0.48799 0.0
C342 C 0.17936 0.14217 0.48539 0.0
H343 H 0.19451 0.18136 0.5521 0.0
O344 O 0.2659 0.12275 0.5446 0.0
O345 O 0.25165 0.14173 0.50712 0.0
O346 O 0.2806 0.18628 0.55218 0.0
O347 O 0.24099 0.20086 0.53314 0.0
C348 C 0.1359 0.11187 0.46367 0.0
C349 C 0.15059 0.10543 0.43734 0.0
H350 H 0.18613 0.09749 0.39058 0.0
H351 H 0.2374 0.12044 0.39027 0.0
H352 H 0.14341 0.16145 0.55896 0.0
H353 H 0.11503 0.12862 0.51806 0.0
H354 H 0.11357 0.10221 0.46509 0.0
H355 H 0.13934 0.09089 0.41891 0.0
Mn356 Mn 0.42703 0.53557 0.7744 0.0
Mn357 Mn 0.44647 0.46565 0.7636 0.0
C358 C 0.39863 0.49704 0.74498 0.0
C359 C 0.40094 0.57272 0.79922 0.0
C360 C 0.47528 0.51426 0.73362 0.0
O361 O 0.45606 0.5372 0.80831 0.0
O362 O 0.46708 0.48972 0.79871 0.0
C363 C 0.41962 0.44627 0.81562 0.0
N364 N 0.42219 0.44232 0.7862 0.0
C365 C 0.38679 0.39891 0.77953 0.0
C366 C 0.38391 0.4024 0.80978 0.0
C367 C 0.40036 0.42622 0.82789 0.0
C368 C 0.40642 0.41952 0.76856 0.0
H369 H 0.4321 0.46462 0.82962 0.0
C370 C 0.46967 0.51593 0.81399 0.0
O371 O 0.42337 0.57925 0.78393 0.0
O372 O 0.39499 0.54497 0.8016 0.0
N373 N 0.42771 0.43998 0.73041 0.0
C374 C 0.43181 0.44075 0.70165 0.0
C375 C 0.4163 0.41895 0.68059 0.0
C376 C 0.39685 0.39653 0.6893 0.0
C377 C 0.39319 0.39605 0.71902 0.0
C378 C 0.40945 0.41819 0.73902 0.0
H379 H 0.44665 0.458 0.69485 0.0
O380 O 0.39726 0.52438 0.74176 0.0
O381 O 0.4168 0.49314 0.76496 0.0
O382 O 0.46014 0.53472 0.74501 0.0
O383 O 0.47212 0.48779 0.73909 0.0
C384 C 0.37366 0.37478 0.72958 0.0
C385 C 0.37047 0.3762 0.75981 0.0
H386 H 0.36893 0.38711 0.81931 0.0
H387 H 0.39813 0.42916 0.85124 0.0
H388 H 0.41921 0.4195 0.6577 0.0
H389 H 0.3847 0.37994 0.673 0.0
H390 H 0.36067 0.35749 0.71463 0.0
H391 H 0.35505 0.36001 0.76765 0.0
Mn392 Mn 0.79157 0.38685 0.53099 0.0
Mn393 Mn 0.79144 0.41333 0.46787 0.0
C394 C 0.77506 0.3559 0.48781 0.0
C395 C 0.8145 0.36369 0.56435 0.0
C396 C 0.74884 0.42865 0.51601 0.0
O397 O 0.82068 0.42473 0.53948 0.0
O398 O 0.82137 0.43812 0.49492 0.0
C399 C 0.84969 0.40005 0.44693 0.0
N400 N 0.82019 0.39671 0.44282 0.0
C401 C 0.8234 0.36521 0.39634 0.0
C402 C 0.85383 0.36846 0.4 0.0
C403 C 0.86701 0.38591 0.42542 0.0
C404 C 0.80727 0.37993 0.41846 0.0
H405 H 0.8599 0.41333 0.4665 0.0
C406 C 0.8304 0.44138 0.52145 0.0
O407 O 0.79345 0.37971 0.572 0.0
O408 O 0.82289 0.36214 0.53773 0.0
N409 N 0.76347 0.39048 0.43996 0.0
C410 C 0.73382 0.38798 0.4407 0.0
C411 C 0.71725 0.37053 0.41727 0.0
C412 C 0.73133 0.35591 0.39331 0.0
C413 C 0.76187 0.35885 0.39301 0.0
C414 C 0.77723 0.37672 0.41689 0.0
H415 H 0.72289 0.39912 0.45908 0.0
O416 O 0.76641 0.3494 0.51258 0.0
O417 O 0.79205 0.38055 0.48937 0.0
O418 O 0.75687 0.41157 0.5327 0.0
O419 O 0.76082 0.43136 0.49188 0.0
C420 C 0.77767 0.34421 0.37028 0.0
C421 C 0.80841 0.34736 0.37196 0.0
H422 H 0.86726 0.35742 0.38356 0.0
H423 H 0.89047 0.38839 0.42848 0.0
H424 H 0.69369 0.36825 0.41771 0.0
H425 H 0.71848 0.34221 0.37542 0.0
H426 H 0.76638 0.33005 0.35165 0.0
H427 H 0.82029 0.3356 0.35457 0.0
Mn428 Mn 0.68394 0.02285 0.78207 0.0
Mn429 Mn 0.652 0.08619 0.78588 0.0
C430 C 0.70637 0.0618 0.76207 0.0
C431 C 0.7141 0.99412 0.80318 0.0
C432 C 0.63304 0.02994 0.74234 0.0
O433 O 0.65328 0.01921 0.8127 0.0
O434 O 0.63601 0.06369 0.81633 0.0
C435 C 0.6757 0.11755 0.84346 0.0
N436 N 0.67202 0.11687 0.81436 0.0
C437 C 0.69789 0.16591 0.81783 0.0
C438 C 0.70178 0.16722 0.84787 0.0
C439 C 0.6907 0.1429 0.86072 0.0
C440 C 0.68266 0.14011 0.80176 0.0
H441 H 0.66728 0.09888 0.85341 0.0
C442 C 0.63709 0.03851 0.82447 0.0
O443 O 0.69454 0.98191 0.78327 0.0
O444 O 0.71558 0.02275 0.81117 0.0
N445 N 0.66556 0.11044 0.75808 0.0
C446 C 0.6616 0.10487 0.72858 0.0
C447 C 0.67247 0.1265 0.71227 0.0
C448 C 0.68703 0.15373 0.72644 0.0
C449 C 0.69052 0.15911 0.75683 0.0
C450 C 0.67911 0.13677 0.77196 0.0
H451 H 0.65044 0.08399 0.71755 0.0
O452 O 0.7133 0.03501 0.75416 0.0
O453 O 0.68703 0.06523 0.78219 0.0
O454 O 0.65235 0.01444 0.74958 0.0
O455 O 0.63038 0.05635 0.75535 0.0
C456 C 0.70539 0.18552 0.77264 0.0
C457 C 0.70905 0.18893 0.80312 0.0
H458 H 0.71348 0.18666 0.86123 0.0
H459 H 0.69375 0.14369 0.88387 0.0
H460 H 0.66971 0.12217 0.68882 0.0
H461 H 0.69561 0.17025 0.71375 0.0
H462 H 0.71452 0.20316 0.76152 0.0
H463 H 0.72095 0.20914 0.81497 0.0
Mn464 Mn 0.03926 0.25635 0.89921 0.0
Mn465 Mn 0.97186 0.25007 0.92626 0.0
C466 C 1.00118 0.22731 0.87194 0.0
C467 C 0.07411 0.27995 0.87237 0.0
C468 C 0.02145 0.21907 0.94607 0.0
O469 O 0.04101 0.29197 0.93226 0.0
O470 O 0.99426 0.28773 0.94644 0.0
C471 C 0.94963 0.30091 0.90504 0.0
N472 N 0.9472 0.27126 0.90614 0.0
C473 C 0.90472 0.26184 0.87422 0.0
C474 C 0.90658 0.29233 0.87306 0.0
C475 C 0.92918 0.31192 0.88848 0.0
C476 C 0.92564 0.25218 0.89123 0.0
H477 H 0.96718 0.31602 0.9165 0.0
C478 C 0.02013 0.30153 0.94772 0.0
O479 O 0.08166 0.26437 0.8914 0.0
O480 O 0.04665 0.28287 0.87001 0.0
N481 N 0.94806 0.21491 0.90771 0.0
C482 C 0.95054 0.18592 0.90942 0.0
C483 C 0.93008 0.16338 0.89449 0.0
C484 C 0.90733 0.17085 0.87796 0.0
C485 C 0.90519 0.20082 0.87656 0.0
C486 C 0.926 0.22235 0.89219 0.0
H487 H 0.96805 0.18 0.92195 0.0
O488 O 0.02786 0.2223 0.86647 0.0
O489 O 0.99796 0.2484 0.89357 0.0
O490 O 0.04008 0.22801 0.9285 0.0
O491 O 0.99555 0.2266 0.94762 0.0
C492 C 0.88363 0.2101 0.85972 0.0
C493 C 0.88344 0.24058 0.8585 0.0
H494 H 0.89102 0.30086 0.86007 0.0
H495 H 0.93094 0.33543 0.88744 0.0
H496 H 0.93195 0.14029 0.89559 0.0
H497 H 0.8918 0.15337 0.86621 0.0
H498 H 0.8674 0.19393 0.84722 0.0
H499 H 0.8671 0.24738 0.84502 0.0
Mn500 Mn 0.55591 0.76521 0.41034 0.0
Mn501 Mn 0.48645 0.75207 0.4307 0.0
C502 C 0.52106 0.73686 0.37813 0.0
C503 C 0.5922 0.79335 0.38909 0.0
C504 C 0.53608 0.72156 0.4509 0.0
O505 O 0.55357 0.79742 0.44602 0.0
O506 O 0.50574 0.78882 0.4555 0.0
C507 C 0.46342 0.80434 0.41311 0.0
N508 N 0.4622 0.77428 0.41131 0.0
C509 C 0.4219 0.76605 0.37671 0.0
C510 C 0.42248 0.79693 0.37854 0.0
C511 C 0.4434 0.81615 0.39674 0.0
C512 C 0.44232 0.75558 0.39365 0.0
H513 H 0.4797 0.81921 0.42673 0.0
C514 C 0.5309 0.80404 0.4602 0.0
O515 O 0.59864 0.77584 0.40674 0.0
O516 O 0.56477 0.79569 0.38515 0.0
N517 N 0.46551 0.71748 0.40759 0.0
C518 C 0.46921 0.68828 0.40665 0.0
C519 C 0.45063 0.66615 0.3887 0.0
C520 C 0.42844 0.67426 0.37191 0.0
C521 C 0.42501 0.70444 0.37324 0.0
C522 C 0.44398 0.7255 0.39178 0.0
H523 H 0.4863 0.68189 0.41939 0.0
O524 O 0.54847 0.73397 0.37438 0.0
O525 O 0.51521 0.75559 0.40082 0.0
O526 O 0.55567 0.73353 0.43612 0.0
O527 O 0.50962 0.7274 0.45107 0.0
C528 C 0.40393 0.71447 0.35642 0.0
C529 C 0.40242 0.74526 0.3581 0.0
H530 H 0.40726 0.80612 0.36574 0.0
H531 H 0.44421 0.84 0.39801 0.0
H532 H 0.45349 0.64291 0.3877 0.0
H533 H 0.41436 0.65714 0.35785 0.0
H534 H 0.38911 0.69872 0.34173 0.0
H535 H 0.38651 0.7527 0.34462 0.0
Mn536 Mn 0.02608 0.77614 0.65037 0.0
Mn537 Mn 0.9917 0.71126 0.66474 0.0
C538 C 0.02558 0.7324 0.61649 0.0
C539 C 0.02762 0.82126 0.63289 0.0
C540 C 0.05058 0.73891 0.69164 0.0
O541 O 0.99949 0.79014 0.68398 0.0
O542 O 0.97604 0.74551 0.6887 0.0
C543 C 0.93307 0.71648 0.64126 0.0
N544 N 0.95628 0.70071 0.64208 0.0
C545 C 0.93204 0.6591 0.60885 0.0
C546 C 0.90769 0.67472 0.60795 0.0
C547 C 0.90831 0.70363 0.62407 0.0
C548 C 0.95617 0.67317 0.62617 0.0
H549 H 0.93349 0.73871 0.65358 0.0
C550 C 0.97995 0.77394 0.69531 0.0
O551 O 0.04612 0.81705 0.65238 0.0
O552 O 1.00741 0.79943 0.62395 0.0
N553 N 1.00414 0.67575 0.643 0.0
C554 C 0.02987 0.66422 0.64522 0.0
C555 C 0.03313 0.63568 0.62988 0.0
C556 C 1.00974 0.61906 0.61286 0.0
C557 C 0.98334 0.63121 0.61125 0.0
C558 C 0.98141 0.65978 0.62694 0.0
H559 H 0.04778 0.67668 0.65862 0.0
O560 O 0.04549 0.75457 0.61582 0.0
O561 O 1.00659 0.73643 0.63672 0.0
O562 O 0.0529 0.76098 0.67824 0.0
O563 O 0.02823 0.71947 0.68883 0.0
C564 C 0.95893 0.6162 0.59448 0.0
C565 C 0.9334 0.63024 0.59305 0.0
H566 H 0.88852 0.66484 0.59478 0.0
H567 H 0.8897 0.71593 0.6233 0.0
H568 H 0.05358 0.62646 0.63124 0.0
H569 H 0.01237 0.59712 0.60094 0.0
H570 H 0.95961 0.59396 0.58243 0.0
H571 H 0.91498 0.61866 0.57966 0.0
Mn572 Mn 0.52564 0.27713 0.1568 0.0
Mn573 Mn 0.49544 0.2144 0.17921 0.0
C574 C 0.52729 0.23098 0.12765 0.0
C575 C 0.52201 0.31766 0.13288 0.0
C576 C 0.55397 0.24722 0.20225 0.0
O577 O 0.49901 0.29312 0.18935 0.0
O578 O 0.47874 0.24959 0.20069 0.0
C579 C 0.4352 0.21389 0.15671 0.0
N580 N 0.45963 0.20001 0.15805 0.0
C581 C 0.43685 0.15536 0.1279 0.0
C582 C 0.41138 0.16913 0.1263 0.0
C583 C 0.41061 0.19857 0.14065 0.0
C584 C 0.46076 0.17186 0.14396 0.0
H585 H 0.43448 0.23647 0.16783 0.0
C586 C 0.48145 0.27801 0.20377 0.0
O587 O 0.54234 0.3183 0.15243 0.0
O588 O 0.50339 0.29391 0.12791 0.0
N589 N 0.50913 0.17821 0.16044 0.0
C590 C 0.5356 0.16841 0.16354 0.0
C591 C 0.54015 0.13951 0.15012 0.0
C592 C 0.51732 0.12082 0.13408 0.0
C593 C 0.49011 0.13117 0.13167 0.0
C594 C 0.48687 0.16019 0.1455 0.0
H595 H 0.55314 0.18253 0.17611 0.0
O596 O 0.54564 0.25357 0.12418 0.0
O597 O 0.50835 0.23604 0.14784 0.0
O598 O 0.55476 0.26757 0.18659 0.0
O599 O 0.53249 0.22697 0.20158 0.0
C600 C 0.46614 0.11392 0.11591 0.0
C601 C 0.43955 0.12604 0.11396 0.0
H602 H 0.39235 0.15736 0.11401 0.0
H603 H 0.39107 0.20939 0.13944 0.0
H604 H 0.56118 0.13164 0.15218 0.0
H605 H 0.52096 0.0986 0.12365 0.0
H606 H 0.46804 0.09146 0.10486 0.0
H607 H 0.42142 0.11272 0.10139 0.0
H608 H 0.28083 0.7436 0.88232 0.0
H609 H 0.18746 0.72109 0.87799 0.0
H610 H 0.18237 0.76097 0.91906 0.0
H611 H 0.20473 0.80254 0.95675 0.0
H612 H 0.29813 0.82357 0.96077 0.0
H613 H 0.30299 0.78334 0.92018 0.0
C614 C 0.25935 0.74704 0.89056 0.0
C615 C 0.23462 0.72919 0.877 0.0
C616 C 0.2566 0.76965 0.91444 0.0
C617 C 0.20692 0.73465 0.88767 0.0
C618 C 0.20398 0.75731 0.91138 0.0
C619 C 0.22604 0.7981 0.94868 0.0
C620 C 0.25098 0.81632 0.96112 0.0
C621 C 0.22868 0.77496 0.92501 0.0
C622 C 0.27859 0.81019 0.95097 0.0
C623 C 0.2814 0.78716 0.92783 0.0
H624 H 0.09019 0.4947 0.40046 0.0
H625 H 0.07358 0.58532 0.43007 0.0
H626 H 0.10204 0.60139 0.39011 0.0
H627 H 0.13094 0.5892 0.3464 0.0
H628 H 0.14721 0.49803 0.31704 0.0
H629 H 0.1196 0.48263 0.35722 0.0
C630 C 0.09304 0.51798 0.39815 0.0
C631 C 0.08014 0.53894 0.41796 0.0
C632 C 0.10921 0.52687 0.37514 0.0
C633 C 0.08359 0.56897 0.41496 0.0
C634 C 0.09975 0.57807 0.39213 0.0
C635 C 0.12843 0.56593 0.34869 0.0
C636 C 0.14114 0.54484 0.32849 0.0
C637 C 0.11253 0.55716 0.37198 0.0
C638 C 0.13772 0.51482 0.3321 0.0
C639 C 0.12191 0.50594 0.35512 0.0
H640 H 0.86087 0.77654 0.91418 0.0
H641 H 0.80057 0.74211 0.8423 0.0
H642 H 0.77996 0.70246 0.86771 0.0
H643 H 0.7772 0.6795 0.91152 0.0
H644 H 0.83889 0.71205 0.98278 0.0
H645 H 0.86127 0.75013 0.95635 0.0
C646 C 0.84339 0.76013 0.90413 0.0
C647 C 0.83199 0.76218 0.87661 0.0
C648 C 0.832 0.73709 0.9187 0.0
C649 C 0.80955 0.74081 0.86351 0.0
C650 C 0.79778 0.71823 0.87803 0.0
C651 C 0.79577 0.69472 0.92114 0.0
C652 C 0.80622 0.69309 0.94917 0.0
C653 C 0.80856 0.7164 0.90579 0.0
C654 C 0.8305 0.71274 0.96119 0.0
C655 C 0.84316 0.73467 0.94618 0.0
H656 H 0.03765 0.04647 0.43483 0.0
H657 H 0.01778 0.95283 0.43735 0.0
H658 H 0.98904 0.9461 0.39208 0.0
H659 H 0.96975 0.96644 0.35199 0.0
H660 H 0.98719 0.06036 0.34946 0.0
H661 H 0.01685 0.06736 0.39451 0.0
C662 C 0.02709 0.0246 0.42534 0.0
C663 C 0.02989 1.00013 0.43942 0.0
C664 C 1.01025 0.02095 0.39936 0.0
C665 C 0.01579 0.97201 0.4271 0.0
C666 C 0.99946 0.96814 0.40115 0.0
C667 C 0.98007 0.98852 0.3611 0.0
C668 C 0.97635 0.01282 0.34709 0.0
C669 C 0.99657 0.99241 0.38712 0.0
C670 C 0.98967 0.04125 0.35966 0.0
C671 C 1.00665 0.04524 0.38542 0.0
H672 H 0.27506 0.29642 0.67061 0.0
H673 H 0.19099 0.31523 0.64221 0.0
H674 H 0.19191 0.27678 0.59904 0.0
H675 H 0.21719 0.23869 0.56867 0.0
H676 H 0.30164 0.22058 0.5971 0.0
H677 H 0.30011 0.25824 0.64056 0.0
C678 C 0.257 0.29225 0.6549 0.0
C679 C 0.23303 0.30879 0.65968 0.0
C680 C 0.25781 0.27036 0.62996 0.0
C681 C 0.20957 0.30263 0.63932 0.0
C682 C 0.21018 0.2808 0.61448 0.0
C683 C 0.23533 0.243 0.58429 0.0
C684 C 0.25953 0.22676 0.57941 0.0
C685 C 0.23429 0.26466 0.60945 0.0
C686 C 0.2827 0.23263 0.60014 0.0
C687 C 0.28187 0.25419 0.62508 0.0
H688 H 0.57814 0.52455 0.64676 0.0
H689 H 0.50585 0.53122 0.58964 0.0
H690 H 0.47295 0.53182 0.62993 0.0
H691 H 0.46349 0.52696 0.68081 0.0
H692 H 0.53396 0.51366 0.73636 0.0
H693 H 0.56855 0.51863 0.69736 0.0
C694 C 0.55519 0.52586 0.6429 0.0
C695 C 0.54489 0.52813 0.61488 0.0
C696 C 0.53588 0.52492 0.66604 0.0
C697 C 0.51493 0.53029 0.61087 0.0
C698 C 0.49585 0.5303 0.63393 0.0
C699 C 0.48654 0.5257 0.6844 0.0
C700 C 0.49642 0.52054 0.71139 0.0
C701 C 0.50598 0.52735 0.66153 0.0
C702 C 0.52608 0.51803 0.71575 0.0
C703 C 0.54577 0.52073 0.69344 0.0
H704 H 0.8742 0.27233 0.62511 0.0
H705 H 0.80155 0.28348 0.6816 0.0
H706 H 0.78637 0.32199 0.65584 0.0
H707 H 0.79212 0.34978 0.6149 0.0
H708 H 0.86404 0.33657 0.5574 0.0
H709 H 0.88143 0.3019 0.58601 0.0
C710 C 0.85525 0.28353 0.63189 0.0
C711 C 0.83894 0.27541 0.65505 0.0
C712 C 0.84656 0.30518 0.61675 0.0
C713 C 0.81436 0.28967 0.66378 0.0
C714 C 0.80571 0.31156 0.64903 0.0
C715 C 0.81184 0.33966 0.60892 0.0
C716 C 0.82673 0.34571 0.584 0.0
C717 C 0.8214 0.31918 0.62517 0.0
C718 C 0.85212 0.33223 0.5764 0.0
C719 C 0.86206 0.31233 0.59272 0.0
H720 H 0.57637 0.97458 0.61896 0.0
H721 H 0.51966 0.04299 0.64382 0.0
H722 H 0.54532 0.05745 0.69084 0.0
H723 H 0.5847 0.05172 0.72436 0.0
H724 H 0.63984 0.98178 0.70032 0.0
H725 H 0.61303 0.96619 0.65396 0.0
C726 C 0.5691 0.99226 0.63478 0.0
C727 C 0.54608 1.00772 0.62753 0.0
C728 C 0.58355 1.0001 0.66209 0.0
C729 C 0.53762 0.03102 0.64836 0.0
C730 C 0.55214 0.03917 0.67543 0.0
C731 C 0.59073 0.03286 0.70914 0.0
C732 C 0.61442 0.01808 0.71589 0.0
C733 C 0.57529 0.02404 0.68243 0.0
C734 C 0.62169 0.99356 0.69587 0.0
C735 C 0.60648 0.98473 0.66922 0.0
H736 H 0.90377 0.17713 0.77524 0.0
H737 H 0.90458 0.27104 0.77431 0.0
H738 H 0.94395 0.28224 0.81133 0.0
H739 H 0.97642 0.26543 0.84531 0.0
H740 H 0.97771 0.17173 0.84532 0.0
H741 H 0.9392 0.16001 0.80699 0.0
C742 C 0.91281 0.19999 0.78307 0.0
C743 C 0.90139 0.22332 0.7723 0.0
C744 C 0.93557 0.20617 0.8041 0.0
C745 C 0.91326 0.25283 0.78226 0.0
C746 C 0.93563 0.2592 0.80343 0.0
C747 C 0.96817 0.24245 0.83685 0.0
C748 C 0.97892 0.2194 0.84848 0.0
C749 C 0.94664 0.23609 0.81471 0.0
C750 C 0.9691 0.1897 0.83689 0.0
C751 C 0.94722 0.18309 0.81505 0.0
H752 H 0.55882 0.92858 0.54317 0.0
H753 H 0.46593 0.92767 0.53231 0.0
H754 H 0.46258 0.87725 0.50392 0.0
H755 H 0.48629 0.83482 0.48043 0.0
H756 H 0.57984 0.83696 0.48744 0.0
H757 H 0.58275 0.88547 0.51947 0.0
C758 C 0.53787 0.9171 0.53478 0.0
C759 C 0.5126 0.93153 0.53981 0.0
C760 C 0.53629 0.8885 0.51784 0.0
C761 C 0.48559 0.91684 0.52859 0.0
C762 C 0.4837 0.88809 0.51243 0.0
C763 C 0.50736 0.84568 0.48911 0.0
C764 C 0.53283 0.8322 0.48151 0.0
C765 C 0.50895 0.87388 0.50666 0.0
C766 C 0.55991 0.84684 0.49287 0.0
C767 C 0.56159 0.87459 0.51115 0.0
H768 H 0.17826 0.32903 0.79995 0.0
H769 H 0.10654 0.3367 0.74316 0.0
H770 H 0.07195 0.31595 0.77598 0.0
H771 H 0.06215 0.29762 0.82164 0.0
H772 H 0.13365 0.28874 0.87841 0.0
H773 H 0.16842 0.30813 0.84495 0.0
C774 C 0.15507 0.32563 0.79469 0.0
C775 C 0.14471 0.33396 0.76926 0.0
C776 C 0.13538 0.31392 0.8138 0.0
C777 C 0.11477 0.33001 0.76257 0.0
C778 C 0.09507 0.31839 0.7814 0.0
C779 C 0.08534 0.30004 0.82679 0.0
C780 C 0.09532 0.29212 0.85264 0.0
C781 C 0.10511 0.31068 0.80726 0.0
C782 C 0.12545 0.29488 0.85872 0.0
C783 C 0.14531 0.30588 0.83957 0.0
H784 H 0.59227 0.62403 0.50598 0.0
H785 H 0.502 0.59262 0.51479 0.0
H786 H 0.48715 0.63638 0.49712 0.0
H787 H 0.50015 0.68104 0.47484 0.0
H788 H 0.59098 0.71061 0.46433 0.0
H789 H 0.60532 0.67032 0.48712 0.0
C790 C 0.56939 0.62723 0.50459 0.0
C791 C 0.54818 0.60561 0.5118 0.0
C792 C 0.56116 0.65191 0.49378 0.0
C793 C 0.51859 0.60938 0.50958 0.0
C794 C 0.51016 0.63424 0.4993 0.0
C795 C 0.52308 0.67892 0.47786 0.0
C796 C 0.5444 0.69875 0.46754 0.0
C797 C 0.53128 0.6553 0.49067 0.0
C798 C 0.57403 0.69556 0.4717 0.0
C799 C 0.58232 0.67251 0.48479 0.0
H800 H 0.91398 0.83674 0.80316 0.0
H801 H 0.85206 0.75926 0.77489 0.0
H802 H 0.8813 0.74447 0.73279 0.0
H803 H 0.92594 0.75091 0.70653 0.0
H804 H 0.98909 0.82757 0.73344 0.0
H805 H 0.95762 0.84568 0.77335 0.0
C806 C 0.90671 0.81693 0.78747 0.0
C807 C 0.88108 0.79886 0.79237 0.0
C808 C 0.92389 0.80834 0.76326 0.0
C809 C 0.87193 0.77322 0.7719 0.0
C810 C 0.8886 0.76478 0.74779 0.0
C811 C 0.93287 0.77176 0.72092 0.0
C812 C 0.96006 0.78766 0.71722 0.0
C813 C 0.91492 0.78173 0.7437 0.0
C814 C 0.96831 0.81486 0.73584 0.0
C815 C 0.95038 0.8251 0.75873 0.0
H816 H 0.05993 0.94715 0.59647 0.0
H817 H 1.00233 0.90771 0.52384 0.0
H818 H 0.9934 0.8616 0.54423 0.0
H819 H 1.00222 0.83262 0.58316 0.0
H820 H 0.06058 0.87294 0.65531 0.0
H821 H 0.06876 0.91852 0.63494 0.0
C822 C 0.04559 0.92831 0.58509 0.0
C823 C 0.03195 0.93045 0.55871 0.0
C824 C 0.04053 0.90213 0.59702 0.0
C825 C 0.0132 0.90624 0.54413 0.0
C826 C 1.00803 0.88 0.55585 0.0
C827 C 0.01653 0.85148 0.59449 0.0
C828 C 0.03069 0.84933 0.6208 0.0
C829 C 0.02151 0.87771 0.58239 0.0
C830 C 0.0494 0.87391 0.63506 0.0
C831 C 0.05417 0.90003 0.6234 0.0
H832 H 0.1718 0.72991 0.75198 0.0
H833 H 0.12177 0.65537 0.77977 0.0
H834 H 0.07746 0.66752 0.75732 0.0
H835 H 0.05399 0.6969 0.72634 0.0
H836 H 0.1044 0.77141 0.69815 0.0
H837 H 0.14729 0.7619 0.72429 0.0
C838 C 0.15101 0.7168 0.75356 0.0
C839 C 0.14974 0.69198 0.76755 0.0
C840 C 0.12577 0.72372 0.74026 0.0
C841 C 0.12298 0.67477 0.76927 0.0
C842 C 0.09775 0.6816 0.75629 0.0
C843 C 0.07425 0.71127 0.7261 0.0
C844 C 0.07583 0.7347 0.70998 0.0
C845 C 0.09901 0.70564 0.74116 0.0
C846 C 0.10237 0.75314 0.7102 0.0
C847 C 0.12704 0.74771 0.72514 0.0
H848 H 0.9824 0.61934 0.52435 0.0
H849 H 0.07031 0.60019 0.53776 0.0
H850 H 0.0821 0.64932 0.56799 0.0
H851 H 0.06549 0.69535 0.59543 0.0
H852 H 0.9771 0.71331 0.58296 0.0
H853 H 0.96757 0.66762 0.54698 0.0
C854 C 1.00426 0.62616 0.53355 0.0
C855 C 0.02538 0.60613 0.52908 0.0
C856 C 1.01077 0.65428 0.55108 0.0
C857 C 0.05371 0.61529 0.54084 0.0
C858 C 0.06042 0.64332 0.55823 0.0
C859 C 0.04434 0.68932 0.58444 0.0
C860 C 0.02166 0.70684 0.59241 0.0
C861 C 0.03887 0.66265 0.56422 0.0
C862 C 0.99453 0.69947 0.57769 0.0
C863 C 0.98913 0.67345 0.55708 0.0
H864 H 0.79114 0.89278 0.18398 0.0
H865 H 0.77122 0.87962 0.27136 0.0
H866 H 0.80793 0.92099 0.29096 0.0
H867 H 0.84789 0.95878 0.28306 0.0
H868 H 0.86787 0.97198 0.19593 0.0
H869 H 0.82893 0.93261 0.17624 0.0
C870 C 0.79495 0.89886 0.20731 0.0
C871 C 0.7787 0.88292 0.22618 0.0
C872 C 0.81616 0.92252 0.21839 0.0
C873 C 0.78334 0.89159 0.25638 0.0
C874 C 0.80435 0.91519 0.26759 0.0
C875 C 0.84366 0.95286 0.25977 0.0
C876 C 0.8612 0.96718 0.24075 0.0
C877 C 0.82123 0.93043 0.24878 0.0
C878 C 0.85493 0.96054 0.21076 0.0
C879 C 0.83274 0.93811 0.19959 0.0
H880 H 0.80043 0.15384 0.3457 0.0
H881 H 0.8349 0.19697 0.27613 0.0
H882 H 0.87281 0.16343 0.26857 0.0
H883 H 0.8938 0.11946 0.27913 0.0
H884 H 0.8573 0.07371 0.34619 0.0
H885 H 0.82297 0.11079 0.3577 0.0
C886 C 0.8165 0.15605 0.32916 0.0
C887 C 0.81482 0.17772 0.31139 0.0
C888 C 0.83788 0.13619 0.32449 0.0
C889 C 0.83561 0.18025 0.28986 0.0
C890 C 0.85732 0.16113 0.28559 0.0
C891 C 0.87872 0.11791 0.29665 0.0
C892 C 0.8782 0.09391 0.31186 0.0
C893 C 0.85836 0.13869 0.30242 0.0
C894 C 0.85819 0.092 0.33419 0.0
C895 C 0.83845 0.11313 0.34069 0.0
H896 H 0.39704 0.03721 0.01552 0.0
H897 H 0.4484 0.97589 0.04717 0.0
H898 H 0.40417 0.94265 0.05227 0.0
H899 H 0.3516 0.92827 0.04198 0.0
H900 H 0.30122 0.98736 1.00555 0.0
H901 H 0.34397 0.02452 1.00865 0.0
C902 C 0.3984 0.01686 0.02411 0.0
C903 C 0.42585 1.00891 0.03089 0.0
C904 C 0.37298 0.99745 0.02606 0.0
C905 C 0.42746 0.98231 0.04163 0.0
C906 C 0.4022 0.96334 0.04455 0.0
C907 C 0.34987 0.94968 0.03559 0.0
C908 C 0.32334 0.95532 0.02387 0.0
C909 C 0.37491 0.97028 0.03607 0.0
C910 C 0.32144 0.98274 0.01486 0.0
C911 C 0.34591 1.00386 0.01643 0.0
H912 H 0.30381 0.42621 0.33283 0.0
H913 H 0.2668 0.35885 0.2624 0.0
H914 H 0.24375 0.39637 0.24144 0.0
H915 H 0.23046 0.44756 0.24597 0.0
H916 H 0.26725 0.51472 0.31706 0.0
H917 H 0.29405 0.47822 0.33495 0.0
C918 C 0.29134 0.42004 0.31246 0.0
C919 C 0.28718 0.39013 0.29883 0.0
C920 C 0.27771 0.4416 0.301 0.0
C921 C 0.27056 0.38197 0.27287 0.0
C922 C 0.25717 0.40334 0.2611 0.0
C923 C 0.24449 0.45423 0.26526 0.0
C924 C 0.24657 0.48375 0.28033 0.0
C925 C 0.25995 0.4331 0.27542 0.0
C926 C 0.26511 0.49212 0.30512 0.0
C927 C 0.28048 0.47126 0.31539 0.0
H928 H 0.12132 0.05795 0.54202 0.0
H929 H 0.13375 0.02117 0.45193 0.0
H930 H 0.18195 0.0492 0.45413 0.0
H931 H 0.21987 0.08606 0.48096 0.0
H932 H 0.209 0.12019 0.57159 0.0
H933 H 0.1613 0.09043 0.57018 0.0
C934 C 0.13467 0.05549 0.52296 0.0
C935 C 0.12346 0.03763 0.49672 0.0
C936 C 0.16275 0.07117 0.5245 0.0
C937 C 0.14127 0.03525 0.47225 0.0
C938 C 0.16907 0.05103 0.47354 0.0
C939 C 0.20695 0.08688 0.50034 0.0
C940 C 0.21712 0.10603 0.52605 0.0
C941 C 0.17982 0.06945 0.49938 0.0
C942 C 0.20104 0.10608 0.55141 0.0
C943 C 0.17385 0.0891 0.55057 0.0
H944 H 0.79207 0.14939 0.70443 0.0
H945 H 0.80211 0.19435 0.79377 0.0
H946 H 0.76567 0.15753 0.80833 0.0
H947 H 0.73368 0.1104 0.79632 0.0
H948 H 0.72107 0.06712 0.70699 0.0
H949 H 0.75569 0.1056 0.69165 0.0
C950 C 0.78577 0.15169 0.72696 0.0
C951 C 0.80034 0.17436 0.748 0.0
C952 C 0.76441 0.13067 0.7352 0.0
C953 C 0.79192 0.17667 0.77717 0.0
C954 C 0.771 0.15568 0.78556 0.0
C955 C 0.73788 0.11003 0.77343 0.0
C956 C 0.72428 0.08673 0.75264 0.0
C957 C 0.75755 0.13227 0.76487 0.0
C958 C 0.73094 0.08537 0.72321 0.0
C959 C 0.7507 0.10729 0.71449 0.0
H960 H 0.43216 0.03895 0.50309 0.0
H961 H 0.46202 0.09291 0.58499 0.0
H962 H 0.41954 0.12064 0.58542 0.0
H963 H 0.37475 0.13024 0.5619 0.0
H964 H 0.3442 0.07623 0.48003 0.0
H965 H 0.38608 0.04778 0.48005 0.0
C966 C 0.42907 0.05664 0.52108 0.0
C967 C 0.44983 0.06399 0.54407 0.0
C968 C 0.40466 0.07251 0.52103 0.0
C969 C 0.44604 0.08693 0.56722 0.0
C970 C 0.42187 0.1028 0.56738 0.0
C971 C 0.37722 0.11227 0.54401 0.0
C972 C 0.35644 0.10549 0.5209 0.0
C973 C 0.40118 0.09594 0.5443 0.0
C974 C 0.3599 0.08196 0.49804 0.0
C975 C 0.38384 0.06567 0.49806 0.0
H976 H 0.65723 0.52139 0.53804 0.0
H977 H 0.61263 0.45376 0.58077 0.0
H978 H 0.65394 0.42441 0.57222 0.0
H979 H 0.7016 0.41641 0.54928 0.0
H980 H 0.74283 0.4829 0.50297 0.0
H981 H 0.70368 0.51377 0.51562 0.0
C982 C 0.65626 0.50008 0.54529 0.0
C983 C 0.63152 0.48972 0.55968 0.0
C984 C 0.67948 0.48289 0.53935 0.0
C985 C 0.63134 0.46248 0.56975 0.0
C986 C 0.65489 0.44552 0.56462 0.0
C987 C 0.70202 0.43774 0.54216 0.0
C988 C 0.72508 0.44725 0.52507 0.0
C989 C 0.67891 0.45527 0.54898 0.0
C990 C 0.72524 0.47487 0.51586 0.0
C991 C 0.7029 0.49263 0.52317 0.0
H992 H 0.80574 0.26451 0.37955 0.0
H993 H 0.71211 0.24877 0.36915 0.0
H994 H 0.70707 0.28433 0.41394 0.0
H995 H 0.72977 0.32123 0.45575 0.0
H996 H 0.82347 0.3367 0.46419 0.0
H997 H 0.828 0.29916 0.4212 0.0
C998 C 0.78417 0.26832 0.38734 0.0
C999 C 0.75937 0.25375 0.3711 0.0
C1000 C 0.78147 0.28867 0.41296 0.0
C1001 C 0.73161 0.25977 0.38114 0.0
C1002 C 0.72871 0.27997 0.40685 0.0
C1003 C 0.75105 0.3161 0.44812 0.0
C1004 C 0.77627 0.33199 0.46257 0.0
C1005 C 0.75351 0.29474 0.42289 0.0
C1006 C 0.8038 0.32506 0.45293 0.0
C1007 C 0.80641 0.30358 0.42843 0.0
H1008 H 0.56748 0.99028 0.92627 0.0
H1009 H 0.54518 0.0802 0.9427 0.0
H1010 H 0.57451 0.09195 0.90155 0.0
H1011 H 0.60595 0.07613 0.86067 0.0
H1012 H 0.62799 0.98572 0.84463 0.0
H1013 H 0.59927 0.97464 0.88581 0.0
C1014 C 0.56927 0.01247 0.92084 0.0
C1015 C 0.55454 0.03447 0.93728 0.0
C1016 C 0.58596 0.01887 0.89719 0.0
C1017 C 0.55662 0.06309 0.93022 0.0
C1018 C 0.57327 0.06971 0.90672 0.0
C1019 C 0.60443 0.05395 0.86606 0.0
C1020 C 0.61912 0.03179 0.84935 0.0
C1021 C 0.58792 0.0477 0.88994 0.0
C1022 C 0.61698 1.00326 0.85696 0.0
C1023 C 0.60055 0.99686 0.88057 0.0
H1024 H 0.35273 0.24451 0.37583 0.0
H1025 H 0.31938 0.32311 0.42209 0.0
H1026 H 0.30517 0.29705 0.46185 0.0
H1027 H 0.29698 0.25041 0.48103 0.0
H1028 H 0.33216 0.17223 0.43716 0.0
H1029 H 0.35141 0.19966 0.39927 0.0
C1030 C 0.34298 0.25613 0.39489 0.0
C1031 C 0.33636 0.28551 0.39546 0.0
C1032 C 0.33505 0.24103 0.41809 0.0
C1033 C 0.32387 0.30022 0.42054 0.0
C1034 C 0.31583 0.28539 0.44343 0.0
C1035 C 0.30949 0.23967 0.4635 0.0
C1036 C 0.31322 0.2095 0.46172 0.0
C1037 C 0.32045 0.25556 0.44202 0.0
C1038 C 0.32935 0.19561 0.43901 0.0
C1039 C 0.3401 0.21122 0.41726 0.0
H1040 H 0.55915 0.50166 0.91039 0.0
H1041 H 0.49042 0.53181 0.96611 0.0
H1042 H 0.46288 0.54025 0.92388 0.0
H1043 H 0.45686 0.53567 0.87034 0.0
H1044 H 0.52539 0.50409 0.81538 0.0
H1045 H 0.55497 0.50077 0.85809 0.0
C1046 C 0.53841 0.51063 0.91347 0.0
C1047 C 0.52688 0.51589 0.94148 0.0
C1048 C 0.52275 0.51548 0.88914 0.0
C1049 C 0.49965 0.527 0.9448 0.0
C1050 C 0.48397 0.53209 0.92065 0.0
C1051 C 0.47861 0.52892 0.86791 0.0
C1052 C 0.48919 0.52049 0.8399 0.0
C1053 C 0.49511 0.52602 0.89263 0.0
C1054 C 0.51704 0.51096 0.83683 0.0
C1055 C 0.53382 0.50882 0.8612 0.0
H1056 H 0.7112 0.7923 0.12776 0.0
H1057 H 0.7923 0.7838 0.17036 0.0
H1058 H 0.80255 0.74466 0.13031 0.0
H1059 H 0.78723 0.71125 0.08426 0.0
H1060 H 0.70587 0.72034 0.04202 0.0
H1061 H 0.69696 0.76063 0.08095 0.0
C1062 C 0.73111 0.78184 0.12827 0.0
C1063 C 0.75084 0.79075 0.15206 0.0
C1064 C 0.73675 0.75932 0.10532 0.0
C1065 C 0.77682 0.77743 0.15219 0.0
C1066 C 0.7826 0.75492 0.1294 0.0
C1067 C 0.76757 0.72206 0.08351 0.0
C1068 C 0.7472 0.71249 0.06024 0.0
C1069 C 0.76253 0.74543 0.106 0.0
C1070 C 0.72198 0.72706 0.05959 0.0
C1071 C 0.71679 0.75015 0.0819 0.0
H1072 H 0.04073 0.98436 0.12694 0.0
H1073 H 0.02787 0.07657 0.12962 0.0
H1074 H 0.99918 0.07569 0.17333 0.0
H1075 H 0.97696 0.04835 0.21048 0.0
H1076 H 0.9921 0.95666 0.20804 0.0
H1077 H 0.02139 0.95824 0.1652 0.0
C1078 C 0.03225 1.00455 0.13729 0.0
C1079 C 0.0367 0.03053 0.12478 0.0
C1080 C 0.01619 1.00407 0.1627 0.0
C1081 C 0.02461 0.0561 0.13835 0.0
C1082 C 1.00833 0.05568 0.16354 0.0
C1083 C 0.98687 0.02878 0.20077 0.0
C1084 C 0.98209 1.00241 0.21268 0.0
C1085 C 1.00384 0.02973 0.17586 0.0
C1086 C 0.99523 0.97733 0.1996 0.0
C1087 C 0.01198 0.97812 0.17492 0.0
H1088 H 0.32854 0.81103 0.17583 0.0
H1089 H 0.36137 0.74584 0.11029 0.0
H1090 H 0.34004 0.7678 0.07186 0.0
H1091 H 0.31463 0.80749 0.05707 0.0
H1092 H 0.28101 0.87232 0.12267 0.0
H1093 H 0.30015 0.8488 0.16095 0.0
C1094 C 0.33037 0.80134 0.1531 0.0
C1095 C 0.34603 0.77677 0.14563 0.0
C1096 C 0.31838 0.81436 0.13123 0.0
C1097 C 0.34892 0.76455 0.1163 0.0
C1098 C 0.33699 0.77726 0.0944 0.0
C1099 C 0.31158 0.81649 0.07975 0.0
C1100 C 0.29678 0.84182 0.08706 0.0
C1101 C 0.32219 0.80254 0.10161 0.0
C1102 C 0.29249 0.85294 0.11651 0.0
C1103 C 0.30336 0.83947 0.13841 0.0
H1104 H 0.04669 0.54071 0.13018 0.0
H1105 H 0.09818 0.47392 0.08727 0.0
H1106 H 0.13255 0.48402 0.12867 0.0
H1107 H 0.14902 0.51299 0.17637 0.0
H1108 H 0.09873 0.58147 0.21815 0.0
H1109 H 0.06318 0.56972 0.17776 0.0
C1110 C 0.06555 0.52852 0.12974 0.0
C1111 C 0.06971 0.50653 0.10559 0.0
C1112 C 0.08555 0.53477 0.15344 0.0
C1113 C 0.09409 0.49064 0.1057 0.0
C1114 C 0.11392 0.49654 0.12932 0.0
C1115 C 0.13017 0.5252 0.17679 0.0
C1116 C 0.12663 0.54807 0.20035 0.0
C1117 C 0.10994 0.51864 0.15326 0.0
C1118 C 0.10214 0.56381 0.2003 0.0
C1119 C 0.08175 0.55712 0.17719 0.0
H1120 H 0.43126 0.69108 0.2732 0.0
H1121 H 0.42737 0.78572 0.2819 0.0
H1122 H 0.46434 0.79503 0.32103 0.0
H1123 H 0.49601 0.77638 0.35404 0.0
H1124 H 0.5021 0.68234 0.34542 0.0
H1125 H 0.46612 0.67242 0.30467 0.0
C1126 C 0.43874 0.71369 0.28362 0.0
C1127 C 0.42674 0.73773 0.27476 0.0
C1128 C 0.46021 0.71889 0.306 0.0
C1129 C 0.43658 0.76695 0.2882 0.0
C1130 C 0.4576 0.77228 0.31059 0.0
C1131 C 0.4894 0.75372 0.34316 0.0
C1132 C 0.50072 0.72998 0.35298 0.0
C1133 C 0.46927 0.74844 0.31983 0.0
C1134 C 0.49303 0.70079 0.33834 0.0
C1135 C 0.47256 0.69521 0.31515 0.0
H1136 H 0.06224 0.42766 0.02274 0.0
H1137 H 0.96977 0.43401 0.02139 0.0
H1138 H 0.96096 0.38329 0.99367 0.0
H1139 H 0.97965 0.33763 0.9694 0.0
H1140 H 0.07243 0.33224 0.96861 0.0
H1141 H 0.081 0.38204 0.99803 0.0
C1142 C 0.04014 0.4178 0.01657 0.0
C1143 C 0.01664 0.43442 0.02423 0.0
C1144 C 0.03533 0.38885 1.00037 0.0
C1145 C 0.98818 0.42166 0.01564 0.0
C1146 C 0.98316 0.39266 0.99991 0.0
C1147 C 1.00177 0.3472 0.97579 0.0
C1148 C 0.02537 0.33109 0.96685 0.0
C1149 C 1.00658 0.37609 0.99212 0.0
C1150 C 0.05387 0.34409 0.97515 0.0
C1151 C 0.05879 0.37258 0.99195 0.0
H1152 H 0.68937 0.81306 0.29911 0.0
H1153 H 0.62459 0.86136 0.26754 0.0
H1154 H 0.59535 0.85671 0.31042 0.0
H1155 H 0.58505 0.83242 0.35272 0.0
H1156 H 0.64914 0.78265 0.38371 0.0
H1157 H 0.68212 0.79486 0.34573 0.0
C1158 C 0.66927 0.82329 0.30221 0.0
C1159 C 0.65898 0.83759 0.28056 0.0
C1160 C 0.65235 0.81994 0.32662 0.0
C1161 C 0.63285 0.85047 0.28426 0.0
C1162 C 0.61608 0.84762 0.30862 0.0
C1163 C 0.60648 0.82478 0.35158 0.0
C1164 C 0.61443 0.80628 0.37074 0.0
C1165 C 0.62511 0.83143 0.32936 0.0
C1166 C 0.6424 0.7968 0.36914 0.0
C1167 C 0.66122 0.80362 0.34729 0.0
H1168 H 0.07633 0.12398 1.00633 0.0
H1169 H 0.98698 0.1039 0.02872 0.0
H1170 H 0.97338 0.14625 1.00771 0.0
H1171 H 0.98643 0.18586 0.97869 0.0
H1172 H 0.07601 0.204 0.95483 0.0
H1173 H 0.08999 0.16578 0.98075 0.0
C1174 C 0.05403 0.12943 1.0072 0.0
C1175 C 0.03269 0.11134 0.01926 0.0
C1176 C 0.04638 0.15321 0.99443 0.0
C1177 C 1.00377 0.11797 0.01986 0.0
C1178 C 0.99601 0.14198 1.00763 0.0
C1179 C 1.00908 0.18175 0.97945 0.0
C1180 C 0.03003 0.19774 0.96447 0.0
C1181 C 0.01703 0.15932 0.99419 0.0
C1182 C 0.05928 0.19196 0.96581 0.0
C1183 C 0.06738 0.17007 0.98069 0.0
H1184 H 0.37058 0.31569 0.26931 0.0
H1185 H 0.42386 0.3076 0.34356 0.0
H1186 H 0.46457 0.29787 0.31198 0.0
H1187 H 0.48408 0.28764 0.26254 0.0
H1188 H 0.43237 0.29969 0.18921 0.0
H1189 H 0.39244 0.31314 0.22135 0.0
C1190 C 0.3912 0.31263 0.27895 0.0
C1191 C 0.39351 0.31175 0.309 0.0
C1192 C 0.41504 0.30799 0.26076 0.0
C1193 C 0.4207 0.30733 0.32051 0.0
C1194 C 0.44428 0.30209 0.30247 0.0
C1195 C 0.46437 0.29414 0.25386 0.0
C1196 C 0.46116 0.29315 0.22374 0.0
C1197 C 0.44153 0.30177 0.27249 0.0
C1198 C 0.43542 0.30096 0.21246 0.0
C1199 C 0.41251 0.30828 0.23079 0.0
H1200 H 0.49814 0.40871 0.05023 0.0
H1201 H 0.58141 0.45136 0.08617 0.0
H1202 H 0.58412 0.4124 0.11606 0.0
H1203 H 0.56223 0.36618 0.13206 0.0
H1204 H 0.47876 0.32402 0.0953 0.0
H1205 H 0.47657 0.36278 0.06582 0.0
C1206 C 0.51694 0.40927 0.06451 0.0
C1207 C 0.53964 0.43252 0.06603 0.0
C1208 C 0.51816 0.38699 0.0816 0.0
C1209 C 0.56382 0.4334 0.08464 0.0
C1210 C 0.56527 0.41122 0.10175 0.0
C1211 C 0.54351 0.36558 0.1177 0.0
C1212 C 0.52064 0.3422 0.11602 0.0
C1213 C 0.54248 0.38793 0.10051 0.0
C1214 C 0.49665 0.34169 0.09711 0.0
C1215 C 0.49538 0.36385 0.08017 0.0
H1216 H 0.65617 0.2093 0.27331 0.0
H1217 H 0.7055 0.27806 0.23602 0.0
H1218 H 0.66054 0.29131 0.21572 0.0
H1219 H 0.60783 0.27961 0.20443 0.0
H1220 H 0.55898 0.20959 0.24106 0.0
H1221 H 0.60285 0.20082 0.26591 0.0
C1222 C 0.65685 0.22761 0.26129 0.0
C1223 C 0.68379 0.24288 0.2562 0.0
C1224 C 0.63101 0.23465 0.24928 0.0
C1225 C 0.68477 0.26627 0.24032 0.0
C1226 C 0.65913 0.27368 0.22859 0.0
C1227 C 0.60664 0.26276 0.2182 0.0
C1228 C 0.58003 0.24512 0.22048 0.0
C1229 C 0.63217 0.25749 0.23229 0.0
C1230 C 0.57908 0.2234 0.23856 0.0
C1231 C 0.60423 0.21828 0.25283 0.0
H1232 H 0.53353 0.10583 0.04968 0.0
H1233 H 0.44365 0.11626 0.03234 0.0
H1234 H 0.45033 0.16663 0.06054 0.0
H1235 H 0.48014 0.2054 0.09475 0.0
H1236 H 0.57015 0.19589 0.11134 0.0
H1237 H 0.56526 0.14766 0.0784 0.0
C1238 C 0.5156 0.11937 0.05146 0.0
C1239 C 0.48799 0.10707 0.0393 0.0
C1240 C 0.51956 0.14832 0.06785 0.0
C1241 C 0.46497 0.12495 0.04194 0.0
C1242 C 0.46879 0.15381 0.05796 0.0
C1243 C 0.49865 0.19272 0.09095 0.0
C1244 C 0.5251 0.20325 0.10619 0.0
C1245 C 0.49567 0.16528 0.07188 0.0
C1246 C 0.54938 0.18757 0.10031 0.0
C1247 C 0.54658 0.1601 0.0815 0.0
H1248 H 0.29567 0.40582 0.68233 0.0
H1249 H 0.28207 0.39351 0.77101 0.0
H1250 H 0.32441 0.42949 0.78742 0.0
H1251 H 0.36426 0.46542 0.7769 0.0
H1252 H 0.37799 0.4794 0.68892 0.0
H1253 H 0.33644 0.44195 0.67169 0.0
C1254 C 0.30226 0.41084 0.70516 0.0
C1255 C 0.28582 0.39717 0.72548 0.0
C1256 C 0.32642 0.43189 0.7145 0.0
C1257 C 0.29428 0.40403 0.75507 0.0
C1258 C 0.31841 0.42458 0.76445 0.0
C1259 C 0.35831 0.4599 0.7539 0.0
C1260 C 0.37446 0.47419 0.73397 0.0
C1261 C 0.33446 0.43877 0.74442 0.0
C1262 C 0.36603 0.46804 0.70443 0.0
C1263 C 0.34237 0.4467 0.69467 0.0
H1264 H 0.32227 0.67838 0.82355 0.0
H1265 H 0.25833 0.60547 0.83411 0.0
H1266 H 0.29599 0.57149 0.82932 0.0
H1267 H 0.34603 0.56167 0.81791 0.0
H1268 H 0.40969 0.63344 0.80332 0.0
H1269 H 0.37352 0.66876 0.81421 0.0
C1270 C 0.31684 0.65513 0.82524 0.0
C1271 C 0.28771 0.64432 0.82928 0.0
C1272 C 0.33854 0.63554 0.82159 0.0
C1273 C 0.28067 0.61415 0.83106 0.0
C1274 C 0.30217 0.59476 0.82826 0.0
C1275 C 0.3522 0.58512 0.8176 0.0
C1276 C 0.38059 0.59488 0.80985 0.0
C1277 C 0.33105 0.60507 0.82294 0.0
C1278 C 0.38802 0.62532 0.80925 0.0
C1279 C 0.36729 0.64552 0.81536 0.0
H1280 H 0.93051 0.54354 0.51799 0.0
H1281 H 0.98204 0.47282 0.52777 0.0
H1282 H 0.93814 0.4413 0.53717 0.0
H1283 H 0.88453 0.43157 0.53618 0.0
H1284 H 0.83295 0.50071 0.52207 0.0
H1285 H 0.8772 0.53542 0.52171 0.0
C1286 C 0.93217 0.52146 0.52279 0.0
C1287 C 0.95945 0.51041 0.52186 0.0
C1288 C 0.90672 0.5032 0.52751 0.0
C1289 C 0.96123 0.48165 0.52789 0.0
C1290 C 0.93614 0.46365 0.53337 0.0
C1291 C 0.88308 0.45458 0.53415 0.0
C1292 C 0.85567 0.46388 0.52974 0.0
C1293 C 0.90868 0.47386 0.53241 0.0
C1294 C 0.8539 0.49336 0.52604 0.0
C1295 C 0.87919 0.51305 0.52549 0.0
H1296 H 0.80931 0.93973 0.8695 0.0
H1297 H 0.78247 0.86271 0.80445 0.0
H1298 H 0.74713 0.89014 0.78361 0.0
H1299 H 0.72352 0.93615 0.78454 0.0
H1300 H 0.75118 0.01313 0.84983 0.0
H1301 H 0.78633 0.9857 0.87003 0.0
C1302 C 0.79583 0.92916 0.8506 0.0
C1303 C 0.7984 0.89952 0.83825 0.0
C1304 C 0.77557 0.945 0.83898 0.0
C1305 C 0.78083 0.8857 0.81402 0.0
C1306 C 0.7606 0.90132 0.80225 0.0
C1307 C 0.73715 0.94685 0.80326 0.0
C1308 C 0.7346 0.97664 0.8157 0.0
C1309 C 0.75765 0.93097 0.81466 0.0
C1310 C 0.75263 0.99024 0.83982 0.0
C1311 C 0.77281 0.97459 0.85139 0.0
H1312 H 0.61991 0.54236 0.03983 0.0
H1313 H 0.63008 0.49913 0.95149 0.0
H1314 H 0.67969 0.52406 0.95175 0.0
H1315 H 0.71778 0.56308 0.97498 0.0
H1316 H 0.70792 0.60635 0.0632 0.0
H1317 H 0.66082 0.57642 0.06535 0.0
C1318 C 0.63331 0.53778 0.02097 0.0
C1319 C 0.62129 0.51915 0.9956 0.0
C1320 C 0.66167 0.55266 0.02109 0.0
C1321 C 0.63882 0.51358 0.9712 0.0
C1322 C 0.66716 0.52786 0.97131 0.0
C1323 C 0.70523 0.56578 0.99463 0.0
C1324 C 0.71539 0.58764 0.01846 0.0
C1325 C 0.67836 0.54835 0.99571 0.0
C1326 C 0.69988 0.59017 0.04433 0.0
C1327 C 0.67306 0.57303 0.04557 0.0
H1328 H 0.31676 0.67432 0.19597 0.0
H1329 H 0.3293 0.70467 0.28856 0.0
H1330 H 0.2909 0.66711 0.29797 0.0
H1331 H 0.25612 0.62333 0.28025 0.0
H1332 H 0.24024 0.59478 0.1882 0.0
H1333 H 0.27744 0.634 0.17813 0.0
C1334 C 0.31065 0.67321 0.21817 0.0
C1335 C 0.32658 0.69183 0.24149 0.0
C1336 C 0.28796 0.65184 0.22354 0.0
C1337 C 0.31821 0.68998 0.27015 0.0
C1338 C 0.29611 0.66859 0.27562 0.0
C1339 C 0.26018 0.62639 0.25803 0.0
C1340 C 0.24492 0.60705 0.235 0.0
C1341 C 0.28124 0.64906 0.25254 0.0
C1342 C 0.2514 0.61 0.20624 0.0
C1343 C 0.27264 0.63235 0.20052 0.0
H1344 H 0.93729 0.53755 0.99355 0.0
H1345 H 0.96203 0.5886 0.07816 0.0
H1346 H 0.91739 0.61303 0.07893 0.0
H1347 H 0.87214 0.62098 0.05481 0.0
H1348 H 0.84675 0.56947 0.97035 0.0
H1349 H 0.89069 0.54417 0.97012 0.0
C1350 C 0.93258 0.55377 0.01222 0.0
C1351 C 0.95254 0.56129 0.03587 0.0
C1352 C 0.90693 0.5678 0.01239 0.0
C1353 C 0.94666 0.58245 0.05988 0.0
C1354 C 0.92126 0.59648 0.06024 0.0
C1355 C 0.87623 0.60425 0.03633 0.0
C1356 C 0.85628 0.59729 0.01255 0.0
C1357 C 0.90139 0.58957 0.03649 0.0
C1358 C 0.86178 0.57531 0.98891 0.0
C1359 C 0.8869 0.5608 0.98877 0.0
H1360 H 0.1052 0.97793 0.01405 0.0
H1361 H 0.13427 1.0017 0.10412 0.0
H1362 H 0.17452 0.97153 0.09404 0.0
H1363 H 0.20294 0.94007 0.05916 0.0
H1364 H 0.17652 0.92128 0.96835 0.0
H1365 H 0.13428 0.94849 0.97916 0.0
C1366 C 0.12052 0.97708 0.03152 0.0
C1367 C 0.11647 0.99239 0.05986 0.0
C1368 C 0.14431 0.96061 0.02539 0.0
C1369 C 0.13632 0.98994 0.08218 0.0
C1370 C 0.1596 0.97286 0.07639 0.0
C1371 C 0.18781 0.94178 0.04179 0.0
C1372 C 0.1928 0.92844 0.013 0.0
C1373 C 0.16394 0.95826 0.04803 0.0
C1374 C 0.17323 0.93127 0.99068 0.0
C1375 C 0.14904 0.94683 0.99685 0.0
loop_
_geom_bond_atom_site_label_1
_geom_bond_atom_site_label_2
_geom_bond_distance
_geom_bond_site_symmetry_2
_ccdc_geom_bond_type
H0 C3 0.929 . S
H1 C6 0.929 . S
H2 C8 0.930 . S
C3 H0 0.929 . S
C3 C4 1.398 . S
C3 C5 1.396 . S
C4 C3 1.398 . S
C4 C8 1.407 . S
C5 C3 1.396 . S
C5 C6 1.394 . S
C6 H1 0.929 . S
C6 C5 1.394 . S
C6 C7 1.382 . S
C7 C6 1.382 . S
C7 C8 1.392 . S
C7 N9 1.420 . S
C8 H2 0.930 . S
C8 C4 1.407 . S
C8 C7 1.392 . S
N9 C7 1.420 . S
N9 C10 1.244 . S
C10 N9 1.244 . S
H11 C14 0.929 . S
H12 C17 0.929 . S
H13 C19 0.930 . S
C14 H11 0.929 . S
C14 C15 1.398 . S
C14 C16 1.396 . S
C15 C14 1.398 . S
C15 C19 1.407 . S
C16 C14 1.396 . S
C16 C17 1.394 . S
C17 H12 0.929 . S
C17 C16 1.394 . S
C17 C18 1.382 . S
C18 C17 1.382 . S
C18 C19 1.392 . S
C18 N20 1.420 . S
C19 H13 0.930 . S
C19 C15 1.407 . S
C19 C18 1.392 . S
N20 C18 1.420 . S
N20 C21 1.244 . S
C21 N20 1.244 . S
H22 C25 0.929 . S
H23 C28 0.929 . S
H24 C30 0.930 1_556 S
C25 H22 0.929 . S
C25 C26 1.398 . S
C25 C27 1.396 . S
C26 C25 1.398 . S
C26 C30 1.407 1_455 S
C27 C25 1.396 . S
C27 C28 1.394 1_455 S
C28 H23 0.929 . S
C28 C27 1.394 1_655 S
C28 C29 1.382 . S
C29 C28 1.382 . S
C29 C30 1.392 . S
C29 N31 1.420 . S
C30 H24 0.930 1_554 S
C30 C26 1.407 1_655 S
C30 C29 1.392 . S
N31 C29 1.420 . S
N31 C32 1.244 . S
C32 N31 1.244 . S
H33 C36 0.929 . S
H34 C39 0.929 . S
H35 C41 0.930 . S
C36 H33 0.929 . S
C36 C37 1.398 . S
C36 C38 1.396 . S
C37 C36 1.398 . S
C37 C41 1.407 . S
C38 C36 1.396 . S
C38 C39 1.394 . S
C39 H34 0.929 . S
C39 C38 1.394 . S
C39 C40 1.382 . S
C40 C39 1.382 . S
C40 C41 1.392 . S
C40 N42 1.420 . S
C41 H35 0.930 . S
C41 C37 1.407 . S
C41 C40 1.392 . S
N42 C40 1.420 . S
N42 C43 1.244 . S
C43 N42 1.244 . S
H44 C47 0.929 . S
H45 C50 0.929 . S
H46 C52 0.930 . S
C47 H44 0.929 . S
C47 C48 1.398 1_545 S
C47 C49 1.396 . S
C48 C47 1.398 1_565 S
C48 C52 1.407 . S
C49 C47 1.396 . S
C49 C50 1.394 1_545 S
C50 H45 0.929 . S
C50 C49 1.394 1_565 S
C50 C51 1.382 . S
C51 C50 1.382 . S
C51 C52 1.392 . S
C51 N53 1.420 . S
C52 H46 0.930 . S
C52 C48 1.407 . S
C52 C51 1.392 . S
N53 C51 1.420 . S
N53 C54 1.244 . S
C54 N53 1.244 . S
H55 C58 0.929 . S
H56 C61 0.929 . S
H57 C63 0.930 . S
C58 H55 0.929 . S
C58 C59 1.398 . S
C58 C60 1.396 . S
C59 C58 1.398 . S
C59 C63 1.407 . S
C60 C58 1.396 . S
C60 C61 1.394 . S
C61 H56 0.929 . S
C61 C60 1.394 . S
C61 C62 1.382 . S
C62 C61 1.382 . S
C62 C63 1.392 . S
C62 N64 1.420 . S
C63 H57 0.930 . S
C63 C59 1.407 . S
C63 C62 1.392 . S
N64 C62 1.420 . S
N64 C65 1.244 . S
C65 N64 1.244 . S
H66 C69 0.929 . S
H67 C72 0.929 . S
H68 C74 0.930 . S
C69 H66 0.929 . S
C69 C70 1.398 . S
C69 C71 1.396 . S
C70 C69 1.398 . S
C70 C74 1.407 . S
C71 C69 1.396 . S
C71 C72 1.394 1_655 S
C72 H67 0.929 . S
C72 C71 1.394 1_455 S
C72 C73 1.382 . S
C73 C72 1.382 . S
C73 C74 1.392 1_455 S
C73 N75 1.420 . S
C74 H68 0.930 . S
C74 C70 1.407 . S
C74 C73 1.392 1_655 S
N75 C73 1.420 . S
N75 C76 1.244 . S
C76 N75 1.244 . S
H77 C80 0.929 . S
H78 C83 0.929 . S
H79 C85 0.930 . S
C80 H77 0.929 . S
C80 C81 1.398 . S
C80 C82 1.396 . S
C81 C80 1.398 . S
C81 C85 1.407 . S
C82 C80 1.396 . S
C82 C83 1.394 . S
C83 H78 0.929 . S
C83 C82 1.394 . S
C83 C84 1.382 . S
C84 C83 1.382 . S
C84 C85 1.392 . S
C84 N86 1.420 . S
C85 H79 0.930 . S
C85 C81 1.407 . S
C85 C84 1.392 . S
N86 C84 1.420 . S
N86 C87 1.244 . S
C87 N86 1.244 . S
H88 C91 0.929 . S
H89 C94 0.929 . S
H90 C96 0.930 . S
C91 H88 0.929 . S
C91 C92 1.398 . S
C91 C93 1.396 . S
C92 C91 1.398 . S
C92 C96 1.407 . S
C93 C91 1.396 . S
C93 C94 1.394 . S
C94 H89 0.929 . S
C94 C93 1.394 . S
C94 C95 1.382 . S
C95 C94 1.382 . S
C95 C96 1.392 . S
C95 N97 1.420 . S
C96 H90 0.930 . S
C96 C92 1.407 . S
C96 C95 1.392 . S
N97 C95 1.420 . S
N97 C98 1.244 . S
C98 N97 1.244 . S
H99 C102 0.929 . S
H100 C105 0.929 . S
H101 C107 0.930 . S
C102 H99 0.929 . S
C102 C103 1.398 . S
C102 C104 1.396 . S
C103 C102 1.398 . S
C103 C107 1.407 . S
C104 C102 1.396 . S
C104 C105 1.394 1_565 S
C105 H100 0.929 . S
C105 C104 1.394 1_545 S
C105 C106 1.382 1_545 S
C106 C105 1.382 1_565 S
C106 C107 1.392 . S
C106 N108 1.420 1_565 S
C107 H101 0.930 . S
C107 C103 1.407 . S
C107 C106 1.392 . S
N108 C106 1.420 1_545 S
N108 C109 1.244 . S
C109 N108 1.244 . S
H110 C113 0.929 . S
H111 C116 0.929 . S
H112 C118 0.930 . S
C113 H110 0.929 . S
C113 C114 1.398 . S
C113 C115 1.396 . S
C114 C113 1.398 . S
C114 C118 1.407 . S
C115 C113 1.396 . S
C115 C116 1.394 . S
C116 H111 0.929 . S
C116 C115 1.394 . S
C116 C117 1.382 . S
C117 C116 1.382 . S
C117 C118 1.392 . S
C117 N119 1.420 . S
C118 H112 0.930 . S
C118 C114 1.407 . S
C118 C117 1.392 . S
N119 C117 1.420 . S
N119 C120 1.244 . S
C120 N119 1.244 . S
H121 C124 0.929 . S
H122 C127 0.929 . S
H123 C129 0.930 . S
C124 H121 0.929 . S
C124 C125 1.398 . S
C124 C126 1.396 . S
C125 C124 1.398 . S
C125 C129 1.407 . S
C126 C124 1.396 . S
C126 C127 1.394 . S
C127 H122 0.929 . S
C127 C126 1.394 . S
C127 C128 1.382 . S
C128 C127 1.382 . S
C128 C129 1.392 . S
C128 N130 1.420 . S
C129 H123 0.930 . S
C129 C125 1.407 . S
C129 C128 1.392 . S
N130 C128 1.420 . S
N130 C131 1.244 . S
C131 N130 1.244 . S
H132 C135 0.929 . S
H133 C138 0.929 . S
H134 C140 0.930 . S
C135 H132 0.929 . S
C135 C136 1.398 . S
C135 C137 1.396 . S
C136 C135 1.398 . S
C136 C140 1.407 . S
C137 C135 1.396 . S
C137 C138 1.394 . S
C138 H133 0.929 . S
C138 C137 1.394 . S
C138 C139 1.382 . S
C139 C138 1.382 . S
C139 C140 1.392 . S
C139 N141 1.420 . S
C140 H134 0.930 . S
C140 C136 1.407 . S
C140 C139 1.392 . S
N141 C139 1.420 . S
N141 C142 1.244 . S
C142 N141 1.244 . S
H143 C146 0.929 . S
H144 C149 0.929 . S
H145 C151 0.930 . S
C146 H143 0.929 . S
C146 C147 1.398 . S
C146 C148 1.396 . S
C147 C146 1.398 . S
C147 C151 1.407 . S
C148 C146 1.396 . S
C148 C149 1.394 1_556 S
C149 H144 0.929 . S
C149 C148 1.394 1_554 S
C149 C150 1.383 . S
C150 C149 1.383 . S
C150 C151 1.381 1_554 S
C150 N152 1.430 . S
C151 H145 0.930 . S
C151 C147 1.407 . S
C151 C150 1.381 1_556 S
N152 C150 1.430 . S
N152 C153 1.244 . S
C153 N152 1.244 . S
H154 C157 0.929 . S
H155 C160 0.929 . S
H156 C162 0.930 . S
C157 H154 0.929 . S
C157 C158 1.398 . S
C157 C159 1.396 . S
C158 C157 1.398 . S
C158 C162 1.407 . S
C159 C157 1.396 . S
C159 C160 1.394 . S
C160 H155 0.929 . S
C160 C159 1.394 . S
C160 C161 1.382 . S
C161 C160 1.382 . S
C161 C162 1.392 . S
C161 N163 1.420 . S
C162 H156 0.930 . S
C162 C158 1.407 . S
C162 C161 1.392 . S
N163 C161 1.420 . S
N163 C164 1.244 . S
C164 N163 1.244 . S
H165 C168 0.929 . S
H166 C171 0.929 . S
H167 C173 0.930 1_565 S
C168 H165 0.929 . S
C168 C169 1.398 1_554 S
C168 C170 1.396 . S
C169 C168 1.398 1_556 S
C169 C173 1.407 . S
C170 C168 1.396 . S
C170 C171 1.394 1_554 S
C171 H166 0.929 . S
C171 C170 1.394 1_556 S
C171 C172 1.382 . S
C172 C171 1.382 . S
C172 C173 1.392 . S
C172 N174 1.420 . S
C173 H167 0.930 1_545 S
C173 C169 1.407 . S
C173 C172 1.392 . S
N174 C172 1.420 . S
N174 C175 1.244 . S
C175 N174 1.244 . S
Mn176 O181 2.095 . S
Mn176 O191 2.162 . S
Mn176 O192 2.297 . S
Mn176 O200 2.385 . S
Mn176 O201 2.209 . S
Mn176 O202 2.094 . S
Mn177 O182 2.121 1_556 S
Mn177 N184 2.257 . S
Mn177 N193 2.282 . S
Mn177 O201 2.215 1_556 S
Mn177 O203 2.117 1_556 S
C178 O200 1.234 . S
C178 O201 1.283 . S
C179 O191 1.281 . S
C179 O192 1.236 . S
C180 O202 1.240 . S
C180 O203 1.264 . S
O181 Mn176 2.095 . S
O181 C190 1.250 . S
O182 Mn177 2.121 1_554 S
O182 C190 1.258 . S
C183 N184 1.326 . S
C183 C187 1.460 . S
C183 H189 0.929 . S
N184 Mn177 2.257 . S
N184 C183 1.326 . S
N184 C188 1.362 . S
C185 C186 1.258 . S
C185 C188 1.431 . S
C185 C205 1.449 . S
C186 C185 1.258 . S
C186 C187 1.477 . S
C186 H206 0.931 . S
C187 C183 1.460 . S
C187 C186 1.477 . S
C187 H207 0.930 . S
C188 N184 1.362 . S
C188 C185 1.431 . S
C188 C198 1.476 . S
H189 C183 0.929 . S
C190 O181 1.250 . S
C190 O182 1.258 . S
O191 Mn176 2.162 . S
O191 C179 1.281 . S
O192 Mn176 2.297 . S
O192 C179 1.236 . S
N193 Mn177 2.282 . S
N193 C194 1.328 . S
N193 C198 1.318 . S
C194 N193 1.328 . S
C194 C195 1.457 . S
C194 H199 0.929 . S
C195 C194 1.457 . S
C195 C196 1.291 . S
C195 H208 0.931 . S
C196 C195 1.291 . S
C196 C197 1.373 . S
C196 H209 0.929 . S
C197 C196 1.373 . S
C197 C198 1.396 . S
C197 C204 1.403 . S
C198 C188 1.476 . S
C198 N193 1.318 . S
C198 C197 1.396 . S
H199 C194 0.929 . S
O200 Mn176 2.385 . S
O200 C178 1.234 . S
O201 Mn176 2.209 . S
O201 Mn177 2.215 1_554 S
O201 C178 1.283 . S
O202 Mn176 2.094 . S
O202 C180 1.240 . S
O203 Mn177 2.117 1_554 S
O203 C180 1.264 . S
C204 C197 1.403 . S
C204 C205 1.399 . S
C204 H210 0.929 . S
C205 C185 1.449 . S
C205 C204 1.399 . S
C205 H211 0.930 . S
H206 C186 0.931 . S
H207 C187 0.930 . S
H208 C195 0.931 . S
H209 C196 0.929 . S
H210 C204 0.929 . S
H211 C205 0.930 . S
Mn212 O217 2.095 . S
Mn212 O227 2.162 . S
Mn212 O228 2.297 . S
Mn212 O236 2.385 . S
Mn212 O237 2.209 . S
Mn212 O238 2.094 . S
Mn213 O218 2.121 . S
Mn213 N220 2.257 . S
Mn213 N229 2.282 . S
Mn213 O237 2.215 . S
Mn213 O239 2.117 . S
C214 O236 1.234 . S
C214 O237 1.283 . S
C215 O227 1.281 . S
C215 O228 1.236 . S
C216 O238 1.240 . S
C216 O239 1.264 . S
O217 Mn212 2.095 . S
O217 C226 1.250 . S
O218 Mn213 2.121 . S
O218 C226 1.258 . S
C219 N220 1.326 . S
C219 C223 1.460 . S
C219 H225 0.929 . S
N220 Mn213 2.257 . S
N220 C219 1.326 . S
N220 C224 1.362 . S
C221 C222 1.258 . S
C221 C224 1.431 . S
C221 C241 1.449 . S
C222 C221 1.258 . S
C222 C223 1.477 . S
C222 H242 0.931 . S
C223 C219 1.460 . S
C223 C222 1.477 . S
C223 H243 0.930 . S
C224 N220 1.362 . S
C224 C221 1.431 . S
C224 C234 1.476 . S
H225 C219 0.929 . S
C226 O217 1.250 . S
C226 O218 1.258 . S
O227 Mn212 2.162 . S
O227 C215 1.281 . S
O228 Mn212 2.297 . S
O228 C215 1.236 . S
N229 Mn213 2.282 . S
N229 C230 1.328 . S
N229 C234 1.318 . S
C230 N229 1.328 . S
C230 C231 1.457 . S
C230 H235 0.929 . S
C231 C230 1.457 . S
C231 C232 1.291 . S
C231 H244 0.931 . S
C232 C231 1.291 . S
C232 C233 1.373 . S
C232 H245 0.929 . S
C233 C232 1.373 . S
C233 C234 1.396 . S
C233 C240 1.403 . S
C234 C224 1.476 . S
C234 N229 1.318 . S
C234 C233 1.396 . S
H235 C230 0.929 . S
O236 Mn212 2.385 . S
O236 C214 1.234 . S
O237 Mn212 2.209 . S
O237 Mn213 2.215 . S
O237 C214 1.283 . S
O238 Mn212 2.094 . S
O238 C216 1.240 . S
O239 Mn213 2.117 . S
O239 C216 1.264 . S
C240 C233 1.403 . S
C240 C241 1.399 . S
C240 H246 0.929 . S
C241 C221 1.449 . S
C241 C240 1.399 . S
C241 H247 0.930 . S
H242 C222 0.931 . S
H243 C223 0.930 . S
H244 C231 0.931 . S
H245 C232 0.929 . S
H246 C240 0.929 . S
H247 C241 0.930 . S
Mn248 O253 2.095 1_554 S
Mn248 O263 2.162 . S
Mn248 O264 2.297 1_554 S
Mn248 O272 2.385 . S
Mn248 O273 2.209 1_554 S
Mn248 O274 2.094 . S
Mn249 O254 2.121 . S
Mn249 N256 2.257 . S
Mn249 N265 2.282 1_556 S
Mn249 O273 2.215 . S
Mn249 O275 2.117 1_556 S
C250 O272 1.233 1_556 S
C250 O273 1.284 . S
C251 O263 1.299 . S
C251 O264 1.217 1_554 S
C252 O274 1.240 . S
C252 O275 1.264 . S
O253 Mn248 2.095 1_556 S
O253 C262 1.250 . S
O254 Mn249 2.121 . S
O254 C262 1.258 . S
C255 N256 1.326 . S
C255 C259 1.460 . S
C255 H261 0.929 . S
N256 Mn249 2.257 . S
N256 C255 1.326 . S
N256 C260 1.362 . S
C257 C258 1.258 . S
C257 C260 1.431 . S
C257 C277 1.449 . S
C258 C257 1.258 . S
C258 C259 1.477 . S
C258 H278 0.931 . S
C259 C255 1.460 . S
C259 C258 1.477 . S
C259 H279 0.930 . S
C260 N256 1.362 . S
C260 C257 1.431 . S
C260 C270 1.476 . S
H261 C255 0.929 . S
C262 O253 1.250 . S
C262 O254 1.258 . S
O263 Mn248 2.162 . S
O263 C251 1.299 . S
O264 Mn248 2.297 1_556 S
O264 C251 1.217 1_556 S
N265 Mn249 2.282 1_554 S
N265 C266 1.328 . S
N265 C270 1.318 1_554 S
C266 N265 1.328 . S
C266 C267 1.457 . S
C266 H271 0.929 . S
C267 C266 1.457 . S
C267 C268 1.291 . S
C267 H280 0.931 . S
C268 C267 1.291 . S
C268 C269 1.373 1_554 S
C268 H281 0.929 . S
C269 C268 1.373 1_556 S
C269 C270 1.396 . S
C269 C276 1.403 . S
C270 C260 1.476 . S
C270 N265 1.318 1_556 S
C270 C269 1.396 . S
H271 C266 0.929 . S
O272 Mn248 2.385 . S
O272 C250 1.233 1_554 S
O273 Mn248 2.209 1_556 S
O273 Mn249 2.215 . S
O273 C250 1.284 . S
O274 Mn248 2.094 . S
O274 C252 1.240 . S
O275 Mn249 2.117 1_554 S
O275 C252 1.264 . S
C276 C269 1.403 . S
C276 C277 1.399 . S
C276 H282 0.929 . S
C277 C257 1.449 . S
C277 C276 1.399 . S
C277 H283 0.930 . S
H278 C258 0.931 . S
H279 C259 0.930 . S
H280 C267 0.931 . S
H281 C268 0.929 . S
H282 C276 0.929 . S
H283 C277 0.930 . S
Mn284 O289 2.095 . S
Mn284 O299 2.162 . S
Mn284 O300 2.297 . S
Mn284 O308 2.385 . S
Mn284 O309 2.209 1_545 S
Mn284 O310 2.094 . S
Mn285 O290 2.121 . S
Mn285 N292 2.257 . S
Mn285 N301 2.282 . S
Mn285 O309 2.215 . S
Mn285 O311 2.117 1_565 S
C286 O308 1.234 1_565 S
C286 O309 1.283 . S
C287 O299 1.281 . S
C287 O300 1.236 . S
C288 O310 1.240 . S
C288 O311 1.264 . S
O289 Mn284 2.095 . S
O289 C298 1.250 . S
O290 Mn285 2.121 . S
O290 C298 1.258 1_565 S
C291 N292 1.326 . S
C291 C295 1.460 . S
C291 H297 0.929 . S
N292 Mn285 2.257 . S
N292 C291 1.326 . S
N292 C296 1.362 . S
C293 C294 1.258 . S
C293 C296 1.431 . S
C293 C313 1.449 . S
C294 C293 1.258 . S
C294 C295 1.477 . S
C294 H314 0.931 . S
C295 C291 1.460 . S
C295 C294 1.477 . S
C295 H315 0.930 . S
C296 N292 1.362 . S
C296 C293 1.431 . S
C296 C306 1.476 . S
H297 C291 0.929 . S
C298 O289 1.250 . S
C298 O290 1.258 1_545 S
O299 Mn284 2.162 . S
O299 C287 1.281 . S
O300 Mn284 2.297 . S
O300 C287 1.236 . S
N301 Mn285 2.282 . S
N301 C302 1.328 . S
N301 C306 1.318 . S
C302 N301 1.328 . S
C302 C303 1.457 . S
C302 H307 0.929 . S
C303 C302 1.457 . S
C303 C304 1.291 . S
C303 H316 0.931 . S
C304 C303 1.291 . S
C304 C305 1.373 . S
C304 H317 0.929 . S
C305 C304 1.373 . S
C305 C306 1.396 . S
C305 C312 1.403 . S
C306 C296 1.476 . S
C306 N301 1.318 . S
C306 C305 1.396 . S
H307 C302 0.929 . S
O308 Mn284 2.385 . S
O308 C286 1.234 1_545 S
O309 Mn284 2.209 1_565 S
O309 Mn285 2.215 . S
O309 C286 1.283 . S
O310 Mn284 2.094 . S
O310 C288 1.240 . S
O311 Mn285 2.117 1_545 S
O311 C288 1.264 . S
C312 C305 1.403 . S
C312 C313 1.399 . S
C312 H318 0.929 . S
C313 C293 1.449 . S
C313 C312 1.399 . S
C313 H319 0.930 . S
H314 C294 0.931 . S
H315 C295 0.930 . S
H316 C303 0.931 . S
H317 C304 0.929 . S
H318 C312 0.929 . S
H319 C313 0.930 . S
Mn320 O325 2.095 . S
Mn320 O335 2.162 . S
Mn320 O336 2.297 . S
Mn320 O344 2.385 . S
Mn320 O345 2.209 . S
Mn320 O346 2.094 . S
Mn321 O326 2.121 . S
Mn321 N328 2.257 . S
Mn321 N337 2.282 . S
Mn321 O345 2.215 . S
Mn321 O347 2.117 . S
C322 O344 1.234 . S
C322 O345 1.283 . S
C323 O335 1.281 . S
C323 O336 1.236 . S
C324 O346 1.240 . S
C324 O347 1.264 . S
O325 Mn320 2.095 . S
O325 C334 1.250 . S
O326 Mn321 2.121 . S
O326 C334 1.258 . S
C327 N328 1.326 . S
C327 C331 1.460 . S
C327 H333 0.929 . S
N328 Mn321 2.257 . S
N328 C327 1.326 . S
N328 C332 1.362 . S
C329 C330 1.258 . S
C329 C332 1.431 . S
C329 C349 1.449 . S
C330 C329 1.258 . S
C330 C331 1.477 . S
C330 H350 0.931 . S
C331 C327 1.460 . S
C331 C330 1.477 . S
C331 H351 0.930 . S
C332 N328 1.362 . S
C332 C329 1.431 . S
C332 C342 1.476 . S
H333 C327 0.929 . S
C334 O325 1.250 . S
C334 O326 1.258 . S
O335 Mn320 2.162 . S
O335 C323 1.281 . S
O336 Mn320 2.297 . S
O336 C323 1.236 . S
N337 Mn321 2.282 . S
N337 C338 1.328 . S
N337 C342 1.318 . S
C338 N337 1.328 . S
C338 C339 1.457 . S
C338 H343 0.929 . S
C339 C338 1.457 . S
C339 C340 1.291 . S
C339 H352 0.931 . S
C340 C339 1.291 . S
C340 C341 1.373 . S
C340 H353 0.929 . S
C341 C340 1.373 . S
C341 C342 1.396 . S
C341 C348 1.403 . S
C342 C332 1.476 . S
C342 N337 1.318 . S
C342 C341 1.396 . S
H343 C338 0.929 . S
O344 Mn320 2.385 . S
O344 C322 1.234 . S
O345 Mn320 2.209 . S
O345 Mn321 2.215 . S
O345 C322 1.283 . S
O346 Mn320 2.094 . S
O346 C324 1.240 . S
O347 Mn321 2.117 . S
O347 C324 1.264 . S
C348 C341 1.403 . S
C348 C349 1.399 . S
C348 H354 0.929 . S
C349 C329 1.449 . S
C349 C348 1.399 . S
C349 H355 0.930 . S
H350 C330 0.931 . S
H351 C331 0.930 . S
H352 C339 0.931 . S
H353 C340 0.929 . S
H354 C348 0.929 . S
H355 C349 0.930 . S
Mn356 O361 2.095 . S
Mn356 O371 2.162 . S
Mn356 O372 2.297 . S
Mn356 O380 2.385 . S
Mn356 O381 2.209 . S
Mn356 O382 2.094 . S
Mn357 O362 2.121 . S
Mn357 N364 2.257 . S
Mn357 N373 2.282 . S
Mn357 O381 2.215 . S
Mn357 O383 2.117 . S
C358 O380 1.234 . S
C358 O381 1.283 . S
C359 O371 1.281 . S
C359 O372 1.236 . S
C360 O382 1.240 . S
C360 O383 1.264 . S
O361 Mn356 2.095 . S
O361 C370 1.250 . S
O362 Mn357 2.121 . S
O362 C370 1.258 . S
C363 N364 1.326 . S
C363 C367 1.460 . S
C363 H369 0.929 . S
N364 Mn357 2.257 . S
N364 C363 1.326 . S
N364 C368 1.362 . S
C365 C366 1.258 . S
C365 C368 1.431 . S
C365 C385 1.449 . S
C366 C365 1.258 . S
C366 C367 1.477 . S
C366 H386 0.931 . S
C367 C363 1.460 . S
C367 C366 1.477 . S
C367 H387 0.930 . S
C368 N364 1.362 . S
C368 C365 1.431 . S
C368 C378 1.476 . S
H369 C363 0.929 . S
C370 O361 1.250 . S
C370 O362 1.258 . S
O371 Mn356 2.162 . S
O371 C359 1.281 . S
O372 Mn356 2.297 . S
O372 C359 1.236 . S
N373 Mn357 2.282 . S
N373 C374 1.328 . S
N373 C378 1.318 . S
C374 N373 1.328 . S
C374 C375 1.457 . S
C374 H379 0.929 . S
C375 C374 1.457 . S
C375 C376 1.291 . S
C375 H388 0.931 . S
C376 C375 1.291 . S
C376 C377 1.373 . S
C376 H389 0.929 . S
C377 C376 1.373 . S
C377 C378 1.396 . S
C377 C384 1.403 . S
C378 C368 1.476 . S
C378 N373 1.318 . S
C378 C377 1.396 . S
H379 C374 0.929 . S
O380 Mn356 2.385 . S
O380 C358 1.234 . S
O381 Mn356 2.209 . S
O381 Mn357 2.215 . S
O381 C358 1.283 . S
O382 Mn356 2.094 . S
O382 C360 1.240 . S
O383 Mn357 2.117 . S
O383 C360 1.264 . S
C384 C377 1.403 . S
C384 C385 1.399 . S
C384 H390 0.929 . S
C385 C365 1.449 . S
C385 C384 1.399 . S
C385 H391 0.930 . S
H386 C366 0.931 . S
H387 C367 0.930 . S
H388 C375 0.931 . S
H389 C376 0.929 . S
H390 C384 0.929 . S
H391 C385 0.930 . S
Mn392 O397 2.095 . S
Mn392 O407 2.162 . S
Mn392 O408 2.297 . S
Mn392 O416 2.385 . S
Mn392 O417 2.209 . S
Mn392 O418 2.094 . S
Mn393 O398 2.121 . S
Mn393 N400 2.257 . S
Mn393 N409 2.282 . S
Mn393 O417 2.215 . S
Mn393 O419 2.117 . S
C394 O416 1.234 . S
C394 O417 1.283 . S
C395 O407 1.281 . S
C395 O408 1.236 . S
C396 O418 1.240 . S
C396 O419 1.264 . S
O397 Mn392 2.095 . S
O397 C406 1.250 . S
O398 Mn393 2.121 . S
O398 C406 1.258 . S
C399 N400 1.326 . S
C399 C403 1.460 . S
C399 H405 0.929 . S
N400 Mn393 2.257 . S
N400 C399 1.326 . S
N400 C404 1.362 . S
C401 C402 1.258 . S
C401 C404 1.431 . S
C401 C421 1.449 . S
C402 C401 1.258 . S
C402 C403 1.477 . S
C402 H422 0.931 . S
C403 C399 1.460 . S
C403 C402 1.477 . S
C403 H423 0.930 . S
C404 N400 1.362 . S
C404 C401 1.431 . S
C404 C414 1.476 . S
H405 C399 0.929 . S
C406 O397 1.250 . S
C406 O398 1.258 . S
O407 Mn392 2.162 . S
O407 C395 1.281 . S
O408 Mn392 2.297 . S
O408 C395 1.236 . S
N409 Mn393 2.282 . S
N409 C410 1.328 . S
N409 C414 1.318 . S
C410 N409 1.328 . S
C410 C411 1.457 . S
C410 H415 0.929 . S
C411 C410 1.457 . S
C411 C412 1.291 . S
C411 H424 0.931 . S
C412 C411 1.291 . S
C412 C413 1.373 . S
C412 H425 0.929 . S
C413 C412 1.373 . S
C413 C414 1.396 . S
C413 C420 1.403 . S
C414 C404 1.476 . S
C414 N409 1.318 . S
C414 C413 1.396 . S
H415 C410 0.929 . S
O416 Mn392 2.385 . S
O416 C394 1.234 . S
O417 Mn392 2.209 . S
O417 Mn393 2.215 . S
O417 C394 1.283 . S
O418 Mn392 2.094 . S
O418 C396 1.240 . S
O419 Mn393 2.117 . S
O419 C396 1.264 . S
C420 C413 1.403 . S
C420 C421 1.399 . S
C420 H426 0.929 . S
C421 C401 1.449 . S
C421 C420 1.399 . S
C421 H427 0.930 . S
H422 C402 0.931 . S
H423 C403 0.930 . S
H424 C411 0.931 . S
H425 C412 0.929 . S
H426 C420 0.929 . S
H427 C421 0.930 . S
Mn428 O433 2.095 . S
Mn428 O443 2.162 . S
Mn428 O444 2.297 . S
Mn428 O452 2.385 1_565 S
Mn428 O453 2.209 1_565 S
Mn428 O454 2.094 . S
Mn429 O434 2.121 . S
Mn429 N436 2.257 . S
Mn429 N445 2.282 . S
Mn429 O453 2.215 . S
Mn429 O455 2.117 . S
C430 O452 1.234 . S
C430 O453 1.283 . S
C431 O443 1.281 . S
C431 O444 1.236 . S
C432 O454 1.240 . S
C432 O455 1.264 1_565 S
O433 Mn428 2.095 . S
O433 C442 1.250 1_565 S
O434 Mn429 2.121 . S
O434 C442 1.258 . S
C435 N436 1.326 . S
C435 C439 1.460 . S
C435 H441 0.929 . S
N436 Mn429 2.257 . S
N436 C435 1.326 . S
N436 C440 1.362 . S
C437 C438 1.258 . S
C437 C440 1.431 . S
C437 C457 1.449 . S
C438 C437 1.258 . S
C438 C439 1.477 . S
C438 H458 0.931 . S
C439 C435 1.460 . S
C439 C438 1.477 . S
C439 H459 0.930 . S
C440 N436 1.362 . S
C440 C437 1.431 . S
C440 C450 1.476 . S
H441 C435 0.929 . S
C442 O433 1.250 1_545 S
C442 O434 1.258 . S
O443 Mn428 2.162 . S
O443 C431 1.281 . S
O444 Mn428 2.297 . S
O444 C431 1.236 . S
N445 Mn429 2.282 . S
N445 C446 1.328 . S
N445 C450 1.318 . S
C446 N445 1.328 . S
C446 C447 1.457 . S
C446 H451 0.929 . S
C447 C446 1.457 . S
C447 C448 1.291 . S
C447 H460 0.931 . S
C448 C447 1.291 . S
C448 C449 1.373 . S
C448 H461 0.929 . S
C449 C448 1.373 . S
C449 C450 1.396 . S
C449 C456 1.403 . S
C450 C440 1.476 . S
C450 N445 1.318 . S
C450 C449 1.396 . S
H451 C446 0.929 . S
O452 Mn428 2.385 1_545 S
O452 C430 1.234 . S
O453 Mn428 2.209 1_545 S
O453 Mn429 2.215 . S
O453 C430 1.283 . S
O454 Mn428 2.094 . S
O454 C432 1.240 . S
O455 Mn429 2.117 . S
O455 C432 1.264 1_545 S
C456 C449 1.403 . S
C456 C457 1.399 . S
C456 H462 0.929 . S
C457 C437 1.449 . S
C457 C456 1.399 . S
C457 H463 0.930 . S
H458 C438 0.931 . S
H459 C439 0.930 . S
H460 C447 0.931 . S
H461 C448 0.929 . S
H462 C456 0.929 . S
H463 C457 0.930 . S
Mn464 O469 2.095 . S
Mn464 O479 2.162 . S
Mn464 O480 2.297 . S
Mn464 O488 2.385 . S
Mn464 O489 2.209 1_455 S
Mn464 O490 2.094 . S
Mn465 O470 2.121 . S
Mn465 N472 2.257 . S
Mn465 N481 2.282 . S
Mn465 O489 2.215 . S
Mn465 O491 2.117 . S
C466 O488 1.234 1_655 S
C466 O489 1.283 . S
C467 O479 1.281 . S
C467 O480 1.236 . S
C468 O490 1.240 . S
C468 O491 1.264 1_455 S
O469 Mn464 2.095 . S
O469 C478 1.250 . S
O470 Mn465 2.121 . S
O470 C478 1.258 1_655 S
C471 N472 1.326 . S
C471 C475 1.460 . S
C471 H477 0.929 . S
N472 Mn465 2.257 . S
N472 C471 1.326 . S
N472 C476 1.362 . S
C473 C474 1.258 . S
C473 C476 1.431 . S
C473 C493 1.449 . S
C474 C473 1.258 . S
C474 C475 1.477 . S
C474 H494 0.931 . S
C475 C471 1.460 . S
C475 C474 1.477 . S
C475 H495 0.930 . S
C476 N472 1.362 . S
C476 C473 1.431 . S
C476 C486 1.476 . S
H477 C471 0.929 . S
C478 O469 1.250 . S
C478 O470 1.258 1_455 S
O479 Mn464 2.162 . S
O479 C467 1.281 . S
O480 Mn464 2.297 . S
O480 C467 1.236 . S
N481 Mn465 2.282 . S
N481 C482 1.328 . S
N481 C486 1.318 . S
C482 N481 1.328 . S
C482 C483 1.457 . S
C482 H487 0.929 . S
C483 C482 1.457 . S
C483 C484 1.291 . S
C483 H496 0.931 . S
C484 C483 1.291 . S
C484 C485 1.373 . S
C484 H497 0.929 . S
C485 C484 1.373 . S
C485 C486 1.396 . S
C485 C492 1.403 . S
C486 C476 1.476 . S
C486 N481 1.318 . S
C486 C485 1.396 . S
H487 C482 0.929 . S
O488 Mn464 2.385 . S
O488 C466 1.234 1_455 S
O489 Mn464 2.209 1_655 S
O489 Mn465 2.215 . S
O489 C466 1.283 . S
O490 Mn464 2.094 . S
O490 C468 1.240 . S
O491 Mn465 2.117 . S
O491 C468 1.264 1_655 S
C492 C485 1.403 . S
C492 C493 1.399 . S
C492 H498 0.929 . S
C493 C473 1.449 . S
C493 C492 1.399 . S
C493 H499 0.930 . S
H494 C474 0.931 . S
H495 C475 0.930 . S
H496 C483 0.931 . S
H497 C484 0.929 . S
H498 C492 0.929 . S
H499 C493 0.930 . S
Mn500 O505 2.095 . S
Mn500 O515 2.162 . S
Mn500 O516 2.297 . S
Mn500 O524 2.385 . S
Mn500 O525 2.209 . S
Mn500 O526 2.094 . S
Mn501 O506 2.121 . S
Mn501 N508 2.257 . S
Mn501 N517 2.282 . S
Mn501 O525 2.215 . S
Mn501 O527 2.117 . S
C502 O524 1.234 . S
C502 O525 1.283 . S
C503 O515 1.281 . S
C503 O516 1.236 . S
C504 O526 1.240 . S
C504 O527 1.264 . S
O505 Mn500 2.095 . S
O505 C514 1.250 . S
O506 Mn501 2.121 . S
O506 C514 1.258 . S
C507 N508 1.326 . S
C507 C511 1.460 . S
C507 H513 0.929 . S
N508 Mn501 2.257 . S
N508 C507 1.326 . S
N508 C512 1.362 . S
C509 C510 1.258 . S
C509 C512 1.431 . S
C509 C529 1.449 . S
C510 C509 1.258 . S
C510 C511 1.477 . S
C510 H530 0.931 . S
C511 C507 1.460 . S
C511 C510 1.477 . S
C511 H531 0.930 . S
C512 N508 1.362 . S
C512 C509 1.431 . S
C512 C522 1.476 . S
H513 C507 0.929 . S
C514 O505 1.250 . S
C514 O506 1.258 . S
O515 Mn500 2.162 . S
O515 C503 1.281 . S
O516 Mn500 2.297 . S
O516 C503 1.236 . S
N517 Mn501 2.282 . S
N517 C518 1.328 . S
N517 C522 1.318 . S
C518 N517 1.328 . S
C518 C519 1.457 . S
C518 H523 0.929 . S
C519 C518 1.457 . S
C519 C520 1.291 . S
C519 H532 0.931 . S
C520 C519 1.291 . S
C520 C521 1.373 . S
C520 H533 0.929 . S
C521 C520 1.373 . S
C521 C522 1.396 . S
C521 C528 1.403 . S
C522 C512 1.476 . S
C522 N517 1.318 . S
C522 C521 1.396 . S
H523 C518 0.929 . S
O524 Mn500 2.385 . S
O524 C502 1.234 . S
O525 Mn500 2.209 . S
O525 Mn501 2.215 . S
O525 C502 1.283 . S
O526 Mn500 2.094 . S
O526 C504 1.240 . S
O527 Mn501 2.117 . S
O527 C504 1.264 . S
C528 C521 1.403 . S
C528 C529 1.399 . S
C528 H534 0.929 . S
C529 C509 1.449 . S
C529 C528 1.399 . S
C529 H535 0.930 . S
H530 C510 0.931 . S
H531 C511 0.930 . S
H532 C519 0.931 . S
H533 C520 0.929 . S
H534 C528 0.929 . S
H535 C529 0.930 . S
Mn536 O541 2.095 1_455 S
Mn536 O551 2.162 . S
Mn536 O552 2.313 . S
Mn536 O560 2.385 . S
Mn536 O561 2.209 1_455 S
Mn536 O562 2.094 . S
Mn537 O542 2.121 . S
Mn537 N544 2.257 . S
Mn537 N553 2.282 1_655 S
Mn537 O561 2.215 . S
Mn537 O563 2.117 1_655 S
C538 O560 1.234 . S
C538 O561 1.283 1_455 S
C539 O551 1.281 . S
C539 O552 1.259 . S
C540 O562 1.240 . S
C540 O563 1.264 . S
O541 Mn536 2.095 1_655 S
O541 C550 1.250 . S
O542 Mn537 2.121 . S
O542 C550 1.258 . S
C543 N544 1.326 . S
C543 C547 1.460 . S
C543 H549 0.929 . S
N544 Mn537 2.257 . S
N544 C543 1.326 . S
N544 C548 1.362 . S
C545 C546 1.258 . S
C545 C548 1.431 . S
C545 C565 1.449 . S
C546 C545 1.258 . S
C546 C547 1.477 . S
C546 H566 0.931 . S
C547 C543 1.460 . S
C547 C546 1.477 . S
C547 H567 0.930 . S
C548 N544 1.362 . S
C548 C545 1.431 . S
C548 C558 1.476 . S
H549 C543 0.929 . S
C550 O541 1.250 . S
C550 O542 1.258 . S
O551 Mn536 2.162 . S
O551 C539 1.281 . S
O552 Mn536 2.313 . S
O552 C539 1.259 . S
N553 Mn537 2.282 1_455 S
N553 C554 1.328 . S
N553 C558 1.318 1_455 S
C554 N553 1.328 . S
C554 C555 1.457 . S
C554 H559 0.929 . S
C555 C554 1.457 . S
C555 C556 1.291 . S
C555 H568 0.931 . S
C556 C555 1.291 . S
C556 C557 1.373 1_455 S
C556 H569 0.929 . S
C557 C556 1.373 1_655 S
C557 C558 1.396 . S
C557 C564 1.403 . S
C558 C548 1.476 . S
C558 N553 1.318 1_655 S
C558 C557 1.396 . S
H559 C554 0.929 . S
O560 Mn536 2.385 . S
O560 C538 1.234 . S
O561 Mn536 2.209 1_655 S
O561 Mn537 2.215 . S
O561 C538 1.283 1_655 S
O562 Mn536 2.094 . S
O562 C540 1.240 . S
O563 Mn537 2.117 1_455 S
O563 C540 1.264 . S
C564 C557 1.403 . S
C564 C565 1.399 . S
C564 H570 0.929 . S
C565 C545 1.449 . S
C565 C564 1.399 . S
C565 H571 0.930 . S
H566 C546 0.931 . S
H567 C547 0.930 . S
H568 C555 0.931 . S
H569 C556 0.929 . S
H570 C564 0.929 . S
H571 C565 0.930 . S
Mn572 O577 2.095 . S
Mn572 O587 2.162 . S
Mn572 O588 2.297 . S
Mn572 O596 2.385 . S
Mn572 O597 2.209 . S
Mn572 O598 2.094 . S
Mn573 O578 2.121 . S
Mn573 N580 2.257 . S
Mn573 N589 2.282 . S
Mn573 O597 2.215 . S
Mn573 O599 2.117 . S
C574 O596 1.234 . S
C574 O597 1.283 . S
C575 O587 1.281 . S
C575 O588 1.236 . S
C576 O598 1.240 . S
C576 O599 1.264 . S
O577 Mn572 2.095 . S
O577 C586 1.250 . S
O578 Mn573 2.121 . S
O578 C586 1.258 . S
C579 N580 1.326 . S
C579 C583 1.460 . S
C579 H585 0.929 . S
N580 Mn573 2.257 . S
N580 C579 1.326 . S
N580 C584 1.362 . S
C581 C582 1.258 . S
C581 C584 1.431 . S
C581 C601 1.449 . S
C582 C581 1.258 . S
C582 C583 1.477 . S
C582 H602 0.931 . S
C583 C579 1.460 . S
C583 C582 1.477 . S
C583 H603 0.930 . S
C584 N580 1.362 . S
C584 C581 1.431 . S
C584 C594 1.476 . S
H585 C579 0.929 . S
C586 O577 1.250 . S
C586 O578 1.258 . S
O587 Mn572 2.162 . S
O587 C575 1.281 . S
O588 Mn572 2.297 . S
O588 C575 1.236 . S
N589 Mn573 2.282 . S
N589 C590 1.328 . S
N589 C594 1.318 . S
C590 N589 1.328 . S
C590 C591 1.457 . S
C590 H595 0.929 . S
C591 C590 1.457 . S
C591 C592 1.291 . S
C591 H604 0.931 . S
C592 C591 1.291 . S
C592 C593 1.373 . S
C592 H605 0.929 . S
C593 C592 1.373 . S
C593 C594 1.396 . S
C593 C600 1.403 . S
C594 C584 1.476 . S
C594 N589 1.318 . S
C594 C593 1.396 . S
H595 C590 0.929 . S
O596 Mn572 2.385 . S
O596 C574 1.234 . S
O597 Mn572 2.209 . S
O597 Mn573 2.215 . S
O597 C574 1.283 . S
O598 Mn572 2.094 . S
O598 C576 1.240 . S
O599 Mn573 2.117 . S
O599 C576 1.264 . S
C600 C593 1.403 . S
C600 C601 1.399 . S
C600 H606 0.929 . S
C601 C581 1.449 . S
C601 C600 1.399 . S
C601 H607 0.930 . S
H602 C582 0.931 . S
H603 C583 0.930 . S
H604 C591 0.931 . S
H605 C592 0.929 . S
H606 C600 0.929 . S
H607 C601 0.930 . S
H608 C614 0.930 . S
H609 C617 0.930 . S
H610 C618 0.930 . S
H611 C619 0.930 . S
H612 C622 0.930 . S
H613 C623 0.930 . S
C614 H608 0.930 . S
C614 C615 1.355 . S
C614 C616 1.415 . S
C615 C614 1.355 . S
C615 C617 1.419 . S
C616 C614 1.415 . S
C616 C621 1.425 . S
C616 C623 1.409 . S
C617 H609 0.930 . S
C617 C615 1.419 . S
C617 C618 1.362 . S
C618 H610 0.930 . S
C618 C617 1.362 . S
C618 C621 1.409 . S
C619 H611 0.930 . S
C619 C620 1.355 . S
C619 C621 1.415 . S
C620 C619 1.355 . S
C620 C622 1.419 . S
C621 C616 1.425 . S
C621 C618 1.409 . S
C621 C619 1.415 . S
C622 H612 0.930 . S
C622 C620 1.419 . S
C622 C623 1.362 . S
C623 H613 0.930 . S
C623 C616 1.409 . S
C623 C622 1.362 . S
H624 C630 0.930 . S
H625 C633 0.930 . S
H626 C634 0.930 . S
H627 C635 0.930 . S
H628 C638 0.930 . S
H629 C639 0.930 . S
C630 H624 0.930 . S
C630 C631 1.355 . S
C630 C632 1.415 . S
C631 C630 1.355 . S
C631 C633 1.419 . S
C632 C630 1.415 . S
C632 C637 1.425 . S
C632 C639 1.409 . S
C633 H625 0.930 . S
C633 C631 1.419 . S
C633 C634 1.362 . S
C634 H626 0.930 . S
C634 C633 1.362 . S
C634 C637 1.409 . S
C635 H627 0.930 . S
C635 C636 1.355 . S
C635 C637 1.415 . S
C636 C635 1.355 . S
C636 C638 1.419 . S
C637 C632 1.425 . S
C637 C634 1.409 . S
C637 C635 1.415 . S
C638 H628 0.930 . S
C638 C636 1.419 . S
C638 C639 1.362 . S
C639 H629 0.930 . S
C639 C632 1.409 . S
C639 C638 1.362 . S
H640 C646 0.930 . S
H641 C649 0.930 . S
H642 C650 0.930 . S
H643 C651 0.930 . S
H644 C654 0.930 . S
H645 C655 0.930 . S
C646 H640 0.930 . S
C646 C647 1.355 . S
C646 C648 1.415 . S
C647 C646 1.355 . S
C647 C649 1.419 . S
C648 C646 1.415 . S
C648 C653 1.425 . S
C648 C655 1.409 . S
C649 H641 0.930 . S
C649 C647 1.419 . S
C649 C650 1.362 . S
C650 H642 0.930 . S
C650 C649 1.362 . S
C650 C653 1.409 . S
C651 H643 0.930 . S
C651 C652 1.355 . S
C651 C653 1.415 . S
C652 C651 1.355 . S
C652 C654 1.419 . S
C653 C648 1.425 . S
C653 C650 1.409 . S
C653 C651 1.415 . S
C654 H644 0.930 . S
C654 C652 1.419 . S
C654 C655 1.362 . S
C655 H645 0.930 . S
C655 C648 1.409 . S
C655 C654 1.362 . S
H656 C662 0.930 . S
H657 C665 0.930 . S
H658 C666 0.930 . S
H659 C667 0.921 1_465 S
H660 C670 0.930 . S
H661 C671 0.930 . S
C662 H656 0.930 . S
C662 C663 1.355 1_545 S
C662 C664 1.402 1_455 S
C663 C662 1.355 1_565 S
C663 C665 1.419 . S
C664 C662 1.402 1_655 S
C664 C669 1.416 1_645 S
C664 C671 1.433 . S
C665 H657 0.930 . S
C665 C663 1.419 . S
C665 C666 1.362 . S
C666 H658 0.930 . S
C666 C665 1.362 . S
C666 C669 1.406 . S
C667 H659 0.921 1_645 S
C667 C668 1.355 . S
C667 C669 1.416 1_645 S
C668 C667 1.355 . S
C668 C670 1.419 . S
C669 C664 1.416 1_465 S
C669 C666 1.406 . S
C669 C667 1.416 1_465 S
C670 H660 0.930 . S
C670 C668 1.419 . S
C670 C671 1.362 . S
C671 H661 0.930 . S
C671 C664 1.433 . S
C671 C670 1.362 . S
H672 C678 0.930 . S
H673 C681 0.930 . S
H674 C682 0.930 . S
H675 C683 0.930 . S
H676 C686 0.930 . S
H677 C687 0.930 . S
C678 H672 0.930 . S
C678 C679 1.355 . S
C678 C680 1.415 . S
C679 C678 1.355 . S
C679 C681 1.419 . S
C680 C678 1.415 . S
C680 C685 1.425 . S
C680 C687 1.409 . S
C681 H673 0.930 . S
C681 C679 1.419 . S
C681 C682 1.362 . S
C682 H674 0.930 . S
C682 C681 1.362 . S
C682 C685 1.409 . S
C683 H675 0.930 . S
C683 C684 1.355 . S
C683 C685 1.415 . S
C684 C683 1.355 . S
C684 C686 1.419 . S
C685 C680 1.425 . S
C685 C682 1.409 . S
C685 C683 1.415 . S
C686 H676 0.930 . S
C686 C684 1.419 . S
C686 C687 1.362 . S
C687 H677 0.930 . S
C687 C680 1.409 . S
C687 C686 1.362 . S
H688 C694 0.930 . S
H689 C697 0.930 . S
H690 C698 0.930 . S
H691 C699 0.930 . S
H692 C702 0.930 . S
H693 C703 0.930 . S
C694 H688 0.930 . S
C694 C695 1.355 . S
C694 C696 1.415 . S
C695 C694 1.355 . S
C695 C697 1.419 . S
C696 C694 1.415 . S
C696 C701 1.425 . S
C696 C703 1.409 . S
C697 H689 0.930 . S
C697 C695 1.419 . S
C697 C698 1.362 . S
C698 H690 0.930 . S
C698 C697 1.362 . S
C698 C701 1.409 . S
C699 H691 0.930 . S
C699 C700 1.355 . S
C699 C701 1.415 . S
C700 C699 1.355 . S
C700 C702 1.419 . S
C701 C696 1.425 . S
C701 C698 1.409 . S
C701 C699 1.415 . S
C702 H692 0.930 . S
C702 C700 1.419 . S
C702 C703 1.362 . S
C703 H693 0.930 . S
C703 C696 1.409 . S
C703 C702 1.362 . S
H704 C710 0.930 . S
H705 C713 0.930 . S
H706 C714 0.930 . S
H707 C715 0.930 . S
H708 C718 0.930 . S
H709 C719 0.930 . S
C710 H704 0.930 . S
C710 C711 1.355 . S
C710 C712 1.415 . S
C711 C710 1.355 . S
C711 C713 1.419 . S
C712 C710 1.415 . S
C712 C717 1.425 . S
C712 C719 1.409 . S
C713 H705 0.930 . S
C713 C711 1.419 . S
C713 C714 1.362 . S
C714 H706 0.930 . S
C714 C713 1.362 . S
C714 C717 1.409 . S
C715 H707 0.930 . S
C715 C716 1.355 . S
C715 C717 1.415 . S
C716 C715 1.355 . S
C716 C718 1.419 . S
C717 C712 1.425 . S
C717 C714 1.409 . S
C717 C715 1.415 . S
C718 H708 0.930 . S
C718 C716 1.419 . S
C718 C719 1.362 . S
C719 H709 0.930 . S
C719 C712 1.409 . S
C719 C718 1.362 . S
H720 C726 0.930 . S
H721 C729 0.930 . S
H722 C730 0.930 . S
H723 C731 0.930 . S
H724 C734 0.930 . S
H725 C735 0.930 . S
C726 H720 0.930 . S
C726 C727 1.355 . S
C726 C728 1.415 . S
C727 C726 1.355 . S
C727 C729 1.419 1_565 S
C728 C726 1.415 . S
C728 C733 1.425 1_565 S
C728 C735 1.409 . S
C729 H721 0.930 . S
C729 C727 1.419 1_545 S
C729 C730 1.362 . S
C730 H722 0.930 . S
C730 C729 1.362 . S
C730 C733 1.409 . S
C731 H723 0.930 . S
C731 C732 1.355 1_545 S
C731 C733 1.415 . S
C732 C731 1.355 1_565 S
C732 C734 1.419 . S
C733 C728 1.425 1_545 S
C733 C730 1.409 . S
C733 C731 1.415 . S
C734 H724 0.930 . S
C734 C732 1.419 . S
C734 C735 1.362 . S
C735 H725 0.930 . S
C735 C728 1.409 . S
C735 C734 1.362 . S
H736 C742 0.930 . S
H737 C745 0.930 . S
H738 C746 0.930 . S
H739 C747 0.930 . S
H740 C750 0.930 . S
H741 C751 0.930 . S
C742 H736 0.930 . S
C742 C743 1.355 . S
C742 C744 1.415 . S
C743 C742 1.355 . S
C743 C745 1.419 . S
C744 C742 1.415 . S
C744 C749 1.425 . S
C744 C751 1.409 . S
C745 H737 0.930 . S
C745 C743 1.419 . S
C745 C746 1.362 . S
C746 H738 0.930 . S
C746 C745 1.362 . S
C746 C749 1.409 . S
C747 H739 0.930 . S
C747 C748 1.355 . S
C747 C749 1.415 . S
C748 C747 1.355 . S
C748 C750 1.419 . S
C749 C744 1.425 . S
C749 C746 1.409 . S
C749 C747 1.415 . S
C750 H740 0.930 . S
C750 C748 1.419 . S
C750 C751 1.362 . S
C751 H741 0.930 . S
C751 C744 1.409 . S
C751 C750 1.362 . S
H752 C758 0.930 . S
H753 C761 0.930 . S
H754 C762 0.930 . S
H755 C763 0.930 . S
H756 C766 0.930 . S
H757 C767 0.930 . S
C758 H752 0.930 . S
C758 C759 1.355 . S
C758 C760 1.415 . S
C759 C758 1.355 . S
C759 C761 1.419 . S
C760 C758 1.415 . S
C760 C765 1.425 . S
C760 C767 1.409 . S
C761 H753 0.930 . S
C761 C759 1.419 . S
C761 C762 1.362 . S
C762 H754 0.930 . S
C762 C761 1.362 . S
C762 C765 1.409 . S
C763 H755 0.930 . S
C763 C764 1.355 . S
C763 C765 1.415 . S
C764 C763 1.355 . S
C764 C766 1.419 . S
C765 C760 1.425 . S
C765 C762 1.409 . S
C765 C763 1.415 . S
C766 H756 0.930 . S
C766 C764 1.419 . S
C766 C767 1.362 . S
C767 H757 0.930 . S
C767 C760 1.409 . S
C767 C766 1.362 . S
H768 C774 0.930 . S
H769 C777 0.930 . S
H770 C778 0.930 . S
H771 C779 0.930 . S
H772 C782 0.930 . S
H773 C783 0.930 . S
C774 H768 0.930 . S
C774 C775 1.355 . S
C774 C776 1.415 . S
C775 C774 1.355 . S
C775 C777 1.419 . S
C776 C774 1.415 . S
C776 C781 1.425 . S
C776 C783 1.409 . S
C777 H769 0.930 . S
C777 C775 1.419 . S
C777 C778 1.362 . S
C778 H770 0.930 . S
C778 C777 1.362 . S
C778 C781 1.409 . S
C779 H771 0.930 . S
C779 C780 1.355 . S
C779 C781 1.415 . S
C780 C779 1.355 . S
C780 C782 1.419 . S
C781 C776 1.425 . S
C781 C778 1.409 . S
C781 C779 1.415 . S
C782 H772 0.930 . S
C782 C780 1.419 . S
C782 C783 1.362 . S
C783 H773 0.930 . S
C783 C776 1.409 . S
C783 C782 1.362 . S
H784 C790 0.930 . S
H785 C793 0.930 . S
H786 C794 0.930 . S
H787 C795 0.930 . S
H788 C798 0.930 . S
H789 C799 0.930 . S
C790 H784 0.930 . S
C790 C791 1.355 . S
C790 C792 1.415 . S
C791 C790 1.355 . S
C791 C793 1.419 . S
C792 C790 1.415 . S
C792 C797 1.425 . S
C792 C799 1.409 . S
C793 H785 0.930 . S
C793 C791 1.419 . S
C793 C794 1.362 . S
C794 H786 0.930 . S
C794 C793 1.362 . S
C794 C797 1.409 . S
C795 H787 0.930 . S
C795 C796 1.355 . S
C795 C797 1.415 . S
C796 C795 1.355 . S
C796 C798 1.419 . S
C797 C792 1.425 . S
C797 C794 1.409 . S
C797 C795 1.415 . S
C798 H788 0.930 . S
C798 C796 1.419 . S
C798 C799 1.362 . S
C799 H789 0.930 . S
C799 C792 1.409 . S
C799 C798 1.362 . S
H800 C806 0.930 . S
H801 C809 0.930 . S
H802 C810 0.930 . S
H803 C811 0.930 . S
H804 C814 0.930 . S
H805 C815 0.930 . S
C806 H800 0.930 . S
C806 C807 1.355 . S
C806 C808 1.415 . S
C807 C806 1.355 . S
C807 C809 1.419 . S
C808 C806 1.415 . S
C808 C813 1.425 . S
C808 C815 1.409 . S
C809 H801 0.930 . S
C809 C807 1.419 . S
C809 C810 1.362 . S
C810 H802 0.930 . S
C810 C809 1.362 . S
C810 C813 1.409 . S
C811 H803 0.930 . S
C811 C812 1.355 . S
C811 C813 1.415 . S
C812 C811 1.355 . S
C812 C814 1.419 . S
C813 C808 1.425 . S
C813 C810 1.409 . S
C813 C811 1.415 . S
C814 H804 0.930 . S
C814 C812 1.419 . S
C814 C815 1.362 . S
C815 H805 0.930 . S
C815 C808 1.409 . S
C815 C814 1.362 . S
H816 C822 0.930 . S
H817 C825 0.930 . S
H818 C826 0.937 . S
H819 C827 0.930 . S
H820 C830 0.930 . S
H821 C831 0.930 . S
C822 H816 0.930 . S
C822 C823 1.355 . S
C822 C824 1.415 . S
C823 C822 1.355 . S
C823 C825 1.419 . S
C824 C822 1.415 . S
C824 C829 1.425 . S
C824 C831 1.409 . S
C825 H817 0.930 . S
C825 C823 1.419 . S
C825 C826 1.362 . S
C826 H818 0.937 . S
C826 C825 1.362 . S
C826 C829 1.409 . S
C827 H819 0.930 . S
C827 C828 1.355 . S
C827 C829 1.415 . S
C828 C827 1.355 . S
C828 C830 1.419 . S
C829 C824 1.425 . S
C829 C826 1.409 . S
C829 C827 1.415 . S
C830 H820 0.930 . S
C830 C828 1.419 . S
C830 C831 1.362 . S
C831 H821 0.930 . S
C831 C824 1.409 . S
C831 C830 1.362 . S
H832 C838 0.930 . S
H833 C841 0.930 . S
H834 C842 0.930 . S
H835 C843 0.930 . S
H836 C846 0.930 . S
H837 C847 0.930 . S
C838 H832 0.930 . S
C838 C839 1.355 . S
C838 C840 1.415 . S
C839 C838 1.355 . S
C839 C841 1.419 . S
C840 C838 1.415 . S
C840 C845 1.425 . S
C840 C847 1.409 . S
C841 H833 0.930 . S
C841 C839 1.419 . S
C841 C842 1.362 . S
C842 H834 0.930 . S
C842 C841 1.362 . S
C842 C845 1.409 . S
C843 H835 0.930 . S
C843 C844 1.355 . S
C843 C845 1.415 . S
C844 C843 1.355 . S
C844 C846 1.419 . S
C845 C840 1.425 . S
C845 C842 1.409 . S
C845 C843 1.415 . S
C846 H836 0.930 . S
C846 C844 1.419 . S
C846 C847 1.362 . S
C847 H837 0.930 . S
C847 C840 1.409 . S
C847 C846 1.362 . S
H848 C854 0.930 . S
H849 C857 0.930 . S
H850 C858 0.930 . S
H851 C859 0.930 . S
H852 C862 0.930 . S
H853 C863 0.930 . S
C854 H848 0.930 . S
C854 C855 1.355 1_655 S
C854 C856 1.415 . S
C855 C854 1.355 1_455 S
C855 C857 1.419 . S
C856 C854 1.415 . S
C856 C861 1.425 1_655 S
C856 C863 1.409 . S
C857 H849 0.930 . S
C857 C855 1.419 . S
C857 C858 1.362 . S
C858 H850 0.930 . S
C858 C857 1.362 . S
C858 C861 1.409 . S
C859 H851 0.930 . S
C859 C860 1.355 . S
C859 C861 1.415 . S
C860 C859 1.355 . S
C860 C862 1.419 1_455 S
C861 C856 1.425 1_455 S
C861 C858 1.409 . S
C861 C859 1.415 . S
C862 H852 0.930 . S
C862 C860 1.419 1_655 S
C862 C863 1.362 . S
C863 H853 0.930 . S
C863 C856 1.409 . S
C863 C862 1.362 . S
H864 C870 0.930 . S
H865 C873 0.930 . S
H866 C874 0.930 . S
H867 C875 0.930 . S
H868 C878 0.930 . S
H869 C879 0.930 . S
C870 H864 0.930 . S
C870 C871 1.355 . S
C870 C872 1.415 . S
C871 C870 1.355 . S
C871 C873 1.419 . S
C872 C870 1.415 . S
C872 C877 1.425 . S
C872 C879 1.409 . S
C873 H865 0.930 . S
C873 C871 1.419 . S
C873 C874 1.362 . S
C874 H866 0.930 . S
C874 C873 1.362 . S
C874 C877 1.409 . S
C875 H867 0.930 . S
C875 C876 1.355 . S
C875 C877 1.415 . S
C876 C875 1.355 . S
C876 C878 1.419 . S
C877 C872 1.425 . S
C877 C874 1.409 . S
C877 C875 1.415 . S
C878 H868 0.930 . S
C878 C876 1.419 . S
C878 C879 1.362 . S
C879 H869 0.930 . S
C879 C872 1.409 . S
C879 C878 1.362 . S
H880 C886 0.930 . S
H881 C889 0.930 . S
H882 C890 0.930 . S
H883 C891 0.930 . S
H884 C894 0.930 . S
H885 C895 0.930 . S
C886 H880 0.930 . S
C886 C887 1.355 . S
C886 C888 1.415 . S
C887 C886 1.355 . S
C887 C889 1.419 . S
C888 C886 1.415 . S
C888 C893 1.425 . S
C888 C895 1.409 . S
C889 H881 0.930 . S
C889 C887 1.419 . S
C889 C890 1.362 . S
C890 H882 0.930 . S
C890 C889 1.362 . S
C890 C893 1.409 . S
C891 H883 0.930 . S
C891 C892 1.355 . S
C891 C893 1.415 . S
C892 C891 1.355 . S
C892 C894 1.419 . S
C893 C888 1.425 . S
C893 C890 1.409 . S
C893 C891 1.415 . S
C894 H884 0.930 . S
C894 C892 1.419 . S
C894 C895 1.362 . S
C895 H885 0.930 . S
C895 C888 1.409 . S
C895 C894 1.362 . S
H896 C902 0.928 1_556 S
H897 C905 0.930 . S
H898 C906 0.930 . S
H899 C907 0.930 . S
H900 C910 0.930 . S
H901 C911 0.930 1_545 S
C902 H896 0.928 1_554 S
C902 C903 1.343 1_544 S
C902 C904 1.417 1_545 S
C903 C902 1.343 1_566 S
C903 C905 1.455 1_556 S
C904 C902 1.417 1_565 S
C904 C909 1.425 . S
C904 C911 1.409 . S
C905 H897 0.930 . S
C905 C903 1.455 1_554 S
C905 C906 1.362 . S
C906 H898 0.930 . S
C906 C905 1.362 . S
C906 C909 1.409 . S
C907 H899 0.930 . S
C907 C908 1.355 . S
C907 C909 1.415 . S
C908 C907 1.355 . S
C908 C910 1.419 . S
C909 C904 1.425 . S
C909 C906 1.409 . S
C909 C907 1.415 . S
C910 H900 0.930 . S
C910 C908 1.419 . S
C910 C911 1.362 . S
C911 H901 0.930 1_565 S
C911 C904 1.409 . S
C911 C910 1.362 . S
H912 C918 0.930 . S
H913 C921 0.930 . S
H914 C922 0.930 . S
H915 C923 0.930 . S
H916 C926 0.930 . S
H917 C927 0.930 . S
C918 H912 0.930 . S
C918 C919 1.355 . S
C918 C920 1.415 . S
C919 C918 1.355 . S
C919 C921 1.419 . S
C920 C918 1.415 . S
C920 C925 1.425 . S
C920 C927 1.409 . S
C921 H913 0.930 . S
C921 C919 1.419 . S
C921 C922 1.362 . S
C922 H914 0.930 . S
C922 C921 1.362 . S
C922 C925 1.409 . S
C923 H915 0.930 . S
C923 C924 1.355 . S
C923 C925 1.415 . S
C924 C923 1.355 . S
C924 C926 1.419 . S
C925 C920 1.425 . S
C925 C922 1.409 . S
C925 C923 1.415 . S
C926 H916 0.930 . S
C926 C924 1.419 . S
C926 C927 1.362 . S
C927 H917 0.930 . S
C927 C920 1.409 . S
C927 C926 1.362 . S
H928 C934 0.930 . S
H929 C937 0.930 . S
H930 C938 0.930 . S
H931 C939 0.930 . S
H932 C942 0.930 . S
H933 C943 0.930 . S
C934 H928 0.930 . S
C934 C935 1.355 . S
C934 C936 1.415 . S
C935 C934 1.355 . S
C935 C937 1.419 . S
C936 C934 1.415 . S
C936 C941 1.425 . S
C936 C943 1.409 . S
C937 H929 0.930 . S
C937 C935 1.419 . S
C937 C938 1.362 . S
C938 H930 0.930 . S
C938 C937 1.362 . S
C938 C941 1.409 . S
C939 H931 0.930 . S
C939 C940 1.355 . S
C939 C941 1.415 . S
C940 C939 1.355 . S
C940 C942 1.419 . S
C941 C936 1.425 . S
C941 C938 1.409 . S
C941 C939 1.415 . S
C942 H932 0.930 . S
C942 C940 1.419 . S
C942 C943 1.362 . S
C943 H933 0.930 . S
C943 C936 1.409 . S
C943 C942 1.362 . S
H944 C950 0.930 . S
H945 C953 0.930 . S
H946 C954 0.930 . S
H947 C955 0.930 . S
H948 C958 0.930 . S
H949 C959 0.930 . S
C950 H944 0.930 . S
C950 C951 1.355 . S
C950 C952 1.415 . S
C951 C950 1.355 . S
C951 C953 1.419 . S
C952 C950 1.415 . S
C952 C957 1.425 . S
C952 C959 1.409 . S
C953 H945 0.930 . S
C953 C951 1.419 . S
C953 C954 1.362 . S
C954 H946 0.930 . S
C954 C953 1.362 . S
C954 C957 1.409 . S
C955 H947 0.930 . S
C955 C956 1.355 . S
C955 C957 1.415 . S
C956 C955 1.355 . S
C956 C958 1.419 . S
C957 C952 1.425 . S
C957 C954 1.409 . S
C957 C955 1.415 . S
C958 H948 0.930 . S
C958 C956 1.419 . S
C958 C959 1.362 . S
C959 H949 0.930 . S
C959 C952 1.409 . S
C959 C958 1.362 . S
H960 C966 0.930 . S
H961 C969 0.930 . S
H962 C970 0.930 . S
H963 C971 0.930 . S
H964 C974 0.930 . S
H965 C975 0.930 . S
C966 H960 0.930 . S
C966 C967 1.355 . S
C966 C968 1.415 . S
C967 C966 1.355 . S
C967 C969 1.419 . S
C968 C966 1.415 . S
C968 C973 1.425 . S
C968 C975 1.409 . S
C969 H961 0.930 . S
C969 C967 1.419 . S
C969 C970 1.362 . S
C970 H962 0.930 . S
C970 C969 1.362 . S
C970 C973 1.409 . S
C971 H963 0.930 . S
C971 C972 1.355 . S
C971 C973 1.415 . S
C972 C971 1.355 . S
C972 C974 1.419 . S
C973 C968 1.425 . S
C973 C970 1.409 . S
C973 C971 1.415 . S
C974 H964 0.930 . S
C974 C972 1.419 . S
C974 C975 1.362 . S
C975 H965 0.930 . S
C975 C968 1.409 . S
C975 C974 1.362 . S
H976 C982 0.930 . S
H977 C985 0.930 . S
H978 C986 0.930 . S
H979 C987 0.930 . S
H980 C990 0.930 . S
H981 C991 0.930 . S
C982 H976 0.930 . S
C982 C983 1.355 . S
C982 C984 1.415 . S
C983 C982 1.355 . S
C983 C985 1.419 . S
C984 C982 1.415 . S
C984 C989 1.425 . S
C984 C991 1.409 . S
C985 H977 0.930 . S
C985 C983 1.419 . S
C985 C986 1.362 . S
C986 H978 0.930 . S
C986 C985 1.362 . S
C986 C989 1.409 . S
C987 H979 0.930 . S
C987 C988 1.355 . S
C987 C989 1.415 . S
C988 C987 1.355 . S
C988 C990 1.419 . S
C989 C984 1.425 . S
C989 C986 1.409 . S
C989 C987 1.415 . S
C990 H980 0.930 . S
C990 C988 1.419 . S
C990 C991 1.362 . S
C991 H981 0.930 . S
C991 C984 1.409 . S
C991 C990 1.362 . S
H992 C998 0.930 . S
H993 C1001 0.930 . S
H994 C1002 0.930 . S
H995 C1003 0.930 . S
H996 C1006 0.930 . S
H997 C1007 0.930 . S
C998 H992 0.930 . S
C998 C999 1.355 . S
C998 C1000 1.415 . S
C999 C998 1.355 . S
C999 C1001 1.419 . S
C1000 C998 1.415 . S
C1000 C1005 1.425 . S
C1000 C1007 1.409 . S
C1001 H993 0.930 . S
C1001 C999 1.419 . S
C1001 C1002 1.362 . S
C1002 H994 0.930 . S
C1002 C1001 1.362 . S
C1002 C1005 1.409 . S
C1003 H995 0.930 . S
C1003 C1004 1.355 . S
C1003 C1005 1.415 . S
C1004 C1003 1.355 . S
C1004 C1006 1.419 . S
C1005 C1000 1.425 . S
C1005 C1002 1.409 . S
C1005 C1003 1.415 . S
C1006 H996 0.930 . S
C1006 C1004 1.419 . S
C1006 C1007 1.362 . S
C1007 H997 0.930 . S
C1007 C1000 1.409 . S
C1007 C1006 1.362 . S
H1008 C1014 0.930 . S
H1009 C1017 0.930 . S
H1010 C1018 0.930 . S
H1011 C1019 0.930 . S
H1012 C1022 0.930 . S
H1013 C1023 0.930 . S
C1014 H1008 0.930 . S
C1014 C1015 1.355 . S
C1014 C1016 1.415 . S
C1015 C1014 1.355 . S
C1015 C1017 1.419 . S
C1016 C1014 1.415 . S
C1016 C1021 1.425 . S
C1016 C1023 1.409 . S
C1017 H1009 0.930 . S
C1017 C1015 1.419 . S
C1017 C1018 1.362 . S
C1018 H1010 0.930 . S
C1018 C1017 1.362 . S
C1018 C1021 1.409 . S
C1019 H1011 0.930 . S
C1019 C1020 1.355 . S
C1019 C1021 1.415 . S
C1020 C1019 1.355 . S
C1020 C1022 1.419 . S
C1021 C1016 1.425 . S
C1021 C1018 1.409 . S
C1021 C1019 1.415 . S
C1022 H1012 0.930 . S
C1022 C1020 1.419 . S
C1022 C1023 1.362 . S
C1023 H1013 0.930 . S
C1023 C1016 1.409 . S
C1023 C1022 1.362 . S
H1024 C1030 0.930 . S
H1025 C1033 0.930 . S
H1026 C1034 0.930 . S
H1027 C1035 0.930 . S
H1028 C1038 0.930 . S
H1029 C1039 0.930 . S
C1030 H1024 0.930 . S
C1030 C1031 1.355 . S
C1030 C1032 1.415 . S
C1031 C1030 1.355 . S
C1031 C1033 1.419 . S
C1032 C1030 1.415 . S
C1032 C1037 1.425 . S
C1032 C1039 1.409 . S
C1033 H1025 0.930 . S
C1033 C1031 1.419 . S
C1033 C1034 1.362 . S
C1034 H1026 0.930 . S
C1034 C1033 1.362 . S
C1034 C1037 1.409 . S
C1035 H1027 0.930 . S
C1035 C1036 1.355 . S
C1035 C1037 1.415 . S
C1036 C1035 1.355 . S
C1036 C1038 1.419 . S
C1037 C1032 1.425 . S
C1037 C1034 1.409 . S
C1037 C1035 1.415 . S
C1038 H1028 0.930 . S
C1038 C1036 1.419 . S
C1038 C1039 1.362 . S
C1039 H1029 0.930 . S
C1039 C1032 1.409 . S
C1039 C1038 1.362 . S
H1040 C1046 0.930 . S
H1041 C1049 0.930 . S
H1042 C1050 0.930 . S
H1043 C1051 0.930 . S
H1044 C1054 0.930 . S
H1045 C1055 0.930 . S
C1046 H1040 0.930 . S
C1046 C1047 1.355 . S
C1046 C1048 1.415 . S
C1047 C1046 1.355 . S
C1047 C1049 1.419 . S
C1048 C1046 1.415 . S
C1048 C1053 1.425 . S
C1048 C1055 1.409 . S
C1049 H1041 0.930 . S
C1049 C1047 1.419 . S
C1049 C1050 1.362 . S
C1050 H1042 0.930 . S
C1050 C1049 1.362 . S
C1050 C1053 1.409 . S
C1051 H1043 0.930 . S
C1051 C1052 1.355 . S
C1051 C1053 1.415 . S
C1052 C1051 1.355 . S
C1052 C1054 1.419 . S
C1053 C1048 1.425 . S
C1053 C1050 1.409 . S
C1053 C1051 1.415 . S
C1054 H1044 0.930 . S
C1054 C1052 1.419 . S
C1054 C1055 1.362 . S
C1055 H1045 0.930 . S
C1055 C1048 1.409 . S
C1055 C1054 1.362 . S
H1056 C1062 0.930 . S
H1057 C1065 0.930 . S
H1058 C1066 0.930 . S
H1059 C1067 0.930 . S
H1060 C1070 0.930 . S
H1061 C1071 0.930 . S
C1062 H1056 0.930 . S
C1062 C1063 1.355 . S
C1062 C1064 1.415 . S
C1063 C1062 1.355 . S
C1063 C1065 1.419 . S
C1064 C1062 1.415 . S
C1064 C1069 1.425 . S
C1064 C1071 1.409 . S
C1065 H1057 0.930 . S
C1065 C1063 1.419 . S
C1065 C1066 1.362 . S
C1066 H1058 0.930 . S
C1066 C1065 1.362 . S
C1066 C1069 1.409 . S
C1067 H1059 0.930 . S
C1067 C1068 1.355 . S
C1067 C1069 1.415 . S
C1068 C1067 1.355 . S
C1068 C1070 1.419 . S
C1069 C1064 1.425 . S
C1069 C1066 1.409 . S
C1069 C1067 1.415 . S
C1070 H1060 0.930 . S
C1070 C1068 1.419 . S
C1070 C1071 1.362 . S
C1071 H1061 0.930 . S
C1071 C1064 1.409 . S
C1071 C1070 1.362 . S
H1072 C1078 0.930 1_565 S
H1073 C1081 0.930 . S
H1074 C1082 0.930 . S
H1075 C1083 0.930 . S
H1076 C1086 0.941 . S
H1077 C1087 0.930 1_455 S
C1078 H1072 0.930 1_545 S
C1078 C1079 1.355 . S
C1078 C1080 1.415 . S
C1079 C1078 1.355 . S
C1079 C1081 1.419 . S
C1080 C1078 1.415 . S
C1080 C1085 1.425 . S
C1080 C1087 1.409 1_445 S
C1081 H1073 0.930 . S
C1081 C1079 1.419 . S
C1081 C1082 1.362 . S
C1082 H1074 0.930 . S
C1082 C1081 1.362 . S
C1082 C1085 1.409 . S
C1083 H1075 0.930 . S
C1083 C1084 1.355 . S
C1083 C1085 1.415 1_655 S
C1084 C1083 1.355 . S
C1084 C1086 1.408 1_545 S
C1085 C1080 1.425 . S
C1085 C1082 1.409 . S
C1085 C1083 1.415 1_455 S
C1086 H1076 0.941 . S
C1086 C1084 1.408 1_565 S
C1086 C1087 1.363 . S
C1087 H1077 0.930 1_655 S
C1087 C1080 1.409 1_665 S
C1087 C1086 1.363 . S
H1088 C1094 0.930 . S
H1089 C1097 0.930 . S
H1090 C1098 0.930 . S
H1091 C1099 0.930 . S
H1092 C1102 0.930 . S
H1093 C1103 0.930 . S
C1094 H1088 0.930 . S
C1094 C1095 1.355 . S
C1094 C1096 1.415 . S
C1095 C1094 1.355 . S
C1095 C1097 1.419 . S
C1096 C1094 1.415 . S
C1096 C1101 1.425 . S
C1096 C1103 1.409 . S
C1097 H1089 0.930 . S
C1097 C1095 1.419 . S
C1097 C1098 1.362 . S
C1098 H1090 0.930 . S
C1098 C1097 1.362 . S
C1098 C1101 1.409 . S
C1099 H1091 0.930 . S
C1099 C1100 1.355 . S
C1099 C1101 1.415 . S
C1100 C1099 1.355 . S
C1100 C1102 1.419 . S
C1101 C1096 1.425 . S
C1101 C1098 1.409 . S
C1101 C1099 1.415 . S
C1102 H1092 0.930 . S
C1102 C1100 1.419 . S
C1102 C1103 1.362 . S
C1103 H1093 0.930 . S
C1103 C1096 1.409 . S
C1103 C1102 1.362 . S
H1104 C1110 0.930 . S
H1105 C1113 0.930 . S
H1106 C1114 0.930 . S
H1107 C1115 0.930 . S
H1108 C1118 0.930 . S
H1109 C1119 0.930 . S
C1110 H1104 0.930 . S
C1110 C1111 1.355 . S
C1110 C1112 1.415 . S
C1111 C1110 1.355 . S
C1111 C1113 1.419 . S
C1112 C1110 1.415 . S
C1112 C1117 1.425 . S
C1112 C1119 1.409 . S
C1113 H1105 0.930 . S
C1113 C1111 1.419 . S
C1113 C1114 1.362 . S
C1114 H1106 0.930 . S
C1114 C1113 1.362 . S
C1114 C1117 1.409 . S
C1115 H1107 0.930 . S
C1115 C1116 1.355 . S
C1115 C1117 1.415 . S
C1116 C1115 1.355 . S
C1116 C1118 1.419 . S
C1117 C1112 1.425 . S
C1117 C1114 1.409 . S
C1117 C1115 1.415 . S
C1118 H1108 0.930 . S
C1118 C1116 1.419 . S
C1118 C1119 1.362 . S
C1119 H1109 0.930 . S
C1119 C1112 1.409 . S
C1119 C1118 1.362 . S
H1120 C1126 0.930 . S
H1121 C1129 0.930 . S
H1122 C1130 0.930 . S
H1123 C1131 0.930 . S
H1124 C1134 0.930 . S
H1125 C1135 0.930 . S
C1126 H1120 0.930 . S
C1126 C1127 1.355 . S
C1126 C1128 1.415 . S
C1127 C1126 1.355 . S
C1127 C1129 1.419 . S
C1128 C1126 1.415 . S
C1128 C1133 1.425 . S
C1128 C1135 1.409 . S
C1129 H1121 0.930 . S
C1129 C1127 1.419 . S
C1129 C1130 1.362 . S
C1130 H1122 0.930 . S
C1130 C1129 1.362 . S
C1130 C1133 1.409 . S
C1131 H1123 0.930 . S
C1131 C1132 1.355 . S
C1131 C1133 1.415 . S
C1132 C1131 1.355 . S
C1132 C1134 1.419 . S
C1133 C1128 1.425 . S
C1133 C1130 1.409 . S
C1133 C1131 1.415 . S
C1134 H1124 0.930 . S
C1134 C1132 1.419 . S
C1134 C1135 1.362 . S
C1135 H1125 0.930 . S
C1135 C1128 1.409 . S
C1135 C1134 1.362 . S
H1136 C1142 0.930 . S
H1137 C1145 0.930 . S
H1138 C1146 0.930 . S
H1139 C1147 0.930 1_655 S
H1140 C1150 0.930 . S
H1141 C1151 0.930 . S
C1142 H1136 0.930 . S
C1142 C1143 1.355 . S
C1142 C1144 1.415 . S
C1143 C1142 1.355 . S
C1143 C1145 1.419 1_456 S
C1144 C1142 1.415 . S
C1144 C1149 1.425 . S
C1144 C1151 1.409 . S
C1145 H1137 0.930 . S
C1145 C1143 1.419 1_654 S
C1145 C1146 1.362 1_554 S
C1146 H1138 0.930 . S
C1146 C1145 1.362 1_556 S
C1146 C1149 1.409 1_655 S
C1147 H1139 0.930 1_455 S
C1147 C1148 1.355 . S
C1147 C1149 1.415 . S
C1148 C1147 1.355 . S
C1148 C1150 1.419 . S
C1149 C1144 1.425 . S
C1149 C1146 1.409 1_455 S
C1149 C1147 1.415 . S
C1150 H1140 0.930 . S
C1150 C1148 1.419 . S
C1150 C1151 1.362 . S
C1151 H1141 0.930 . S
C1151 C1144 1.409 . S
C1151 C1150 1.362 . S
H1152 C1158 0.930 . S
H1153 C1161 0.930 . S
H1154 C1162 0.930 . S
H1155 C1163 0.930 . S
H1156 C1166 0.930 . S
H1157 C1167 0.930 . S
C1158 H1152 0.930 . S
C1158 C1159 1.355 . S
C1158 C1160 1.415 . S
C1159 C1158 1.355 . S
C1159 C1161 1.419 . S
C1160 C1158 1.415 . S
C1160 C1165 1.425 . S
C1160 C1167 1.409 . S
C1161 H1153 0.930 . S
C1161 C1159 1.419 . S
C1161 C1162 1.362 . S
C1162 H1154 0.930 . S
C1162 C1161 1.362 . S
C1162 C1165 1.409 . S
C1163 H1155 0.930 . S
C1163 C1164 1.355 . S
C1163 C1165 1.415 . S
C1164 C1163 1.355 . S
C1164 C1166 1.419 . S
C1165 C1160 1.425 . S
C1165 C1162 1.409 . S
C1165 C1163 1.415 . S
C1166 H1156 0.930 . S
C1166 C1164 1.419 . S
C1166 C1167 1.362 . S
C1167 H1157 0.930 . S
C1167 C1160 1.409 . S
C1167 C1166 1.362 . S
H1168 C1174 0.930 . S
H1169 C1177 0.930 1_554 S
H1170 C1178 0.930 1_655 S
H1171 C1179 0.930 1_655 S
H1172 C1182 0.930 . S
H1173 C1183 0.930 . S
C1174 H1168 0.930 . S
C1174 C1175 1.355 . S
C1174 C1176 1.415 . S
C1175 C1174 1.355 . S
C1175 C1177 1.419 . S
C1176 C1174 1.415 . S
C1176 C1181 1.425 . S
C1176 C1183 1.409 . S
C1177 H1169 0.930 1_556 S
C1177 C1175 1.419 . S
C1177 C1178 1.362 . S
C1178 H1170 0.930 1_455 S
C1178 C1177 1.362 . S
C1178 C1181 1.409 . S
C1179 H1171 0.930 1_455 S
C1179 C1180 1.355 . S
C1179 C1181 1.415 . S
C1180 C1179 1.355 . S
C1180 C1182 1.419 . S
C1181 C1176 1.425 . S
C1181 C1178 1.409 . S
C1181 C1179 1.415 . S
C1182 H1172 0.930 . S
C1182 C1180 1.419 . S
C1182 C1183 1.362 . S
C1183 H1173 0.930 . S
C1183 C1176 1.409 . S
C1183 C1182 1.362 . S
H1184 C1190 0.930 . S
H1185 C1193 0.930 . S
H1186 C1194 0.930 . S
H1187 C1195 0.930 . S
H1188 C1198 0.930 . S
H1189 C1199 0.930 . S
C1190 H1184 0.930 . S
C1190 C1191 1.355 . S
C1190 C1192 1.415 . S
C1191 C1190 1.355 . S
C1191 C1193 1.419 . S
C1192 C1190 1.415 . S
C1192 C1197 1.425 . S
C1192 C1199 1.409 . S
C1193 H1185 0.930 . S
C1193 C1191 1.419 . S
C1193 C1194 1.362 . S
C1194 H1186 0.930 . S
C1194 C1193 1.362 . S
C1194 C1197 1.409 . S
C1195 H1187 0.930 . S
C1195 C1196 1.355 . S
C1195 C1197 1.415 . S
C1196 C1195 1.355 . S
C1196 C1198 1.419 . S
C1197 C1192 1.425 . S
C1197 C1194 1.409 . S
C1197 C1195 1.415 . S
C1198 H1188 0.930 . S
C1198 C1196 1.419 . S
C1198 C1199 1.362 . S
C1199 H1189 0.930 . S
C1199 C1192 1.409 . S
C1199 C1198 1.362 . S
H1200 C1206 0.930 . S
H1201 C1209 0.930 . S
H1202 C1210 0.930 . S
H1203 C1211 0.930 . S
H1204 C1214 0.930 . S
H1205 C1215 0.930 . S
C1206 H1200 0.930 . S
C1206 C1207 1.355 . S
C1206 C1208 1.415 . S
C1207 C1206 1.355 . S
C1207 C1209 1.419 . S
C1208 C1206 1.415 . S
C1208 C1213 1.425 . S
C1208 C1215 1.409 . S
C1209 H1201 0.930 . S
C1209 C1207 1.419 . S
C1209 C1210 1.362 . S
C1210 H1202 0.930 . S
C1210 C1209 1.362 . S
C1210 C1213 1.409 . S
C1211 H1203 0.930 . S
C1211 C1212 1.355 . S
C1211 C1213 1.415 . S
C1212 C1211 1.355 . S
C1212 C1214 1.419 . S
C1213 C1208 1.425 . S
C1213 C1210 1.409 . S
C1213 C1211 1.415 . S
C1214 H1204 0.930 . S
C1214 C1212 1.419 . S
C1214 C1215 1.362 . S
C1215 H1205 0.930 . S
C1215 C1208 1.409 . S
C1215 C1214 1.362 . S
H1216 C1222 0.930 . S
H1217 C1225 0.930 . S
H1218 C1226 0.930 . S
H1219 C1227 0.930 . S
H1220 C1230 0.930 . S
H1221 C1231 0.930 . S
C1222 H1216 0.930 . S
C1222 C1223 1.355 . S
C1222 C1224 1.415 . S
C1223 C1222 1.355 . S
C1223 C1225 1.419 . S
C1224 C1222 1.415 . S
C1224 C1229 1.425 . S
C1224 C1231 1.409 . S
C1225 H1217 0.930 . S
C1225 C1223 1.419 . S
C1225 C1226 1.362 . S
C1226 H1218 0.930 . S
C1226 C1225 1.362 . S
C1226 C1229 1.409 . S
C1227 H1219 0.930 . S
C1227 C1228 1.355 . S
C1227 C1229 1.415 . S
C1228 C1227 1.355 . S
C1228 C1230 1.419 . S
C1229 C1224 1.425 . S
C1229 C1226 1.409 . S
C1229 C1227 1.415 . S
C1230 H1220 0.930 . S
C1230 C1228 1.419 . S
C1230 C1231 1.362 . S
C1231 H1221 0.930 . S
C1231 C1224 1.409 . S
C1231 C1230 1.362 . S
H1232 C1238 0.930 . S
H1233 C1241 0.930 1_556 S
H1234 C1242 0.930 . S
H1235 C1243 0.930 . S
H1236 C1246 0.930 . S
H1237 C1247 0.930 . S
C1238 H1232 0.930 . S
C1238 C1239 1.355 . S
C1238 C1240 1.415 . S
C1239 C1238 1.355 . S
C1239 C1241 1.419 . S
C1240 C1238 1.415 . S
C1240 C1245 1.425 . S
C1240 C1247 1.409 . S
C1241 H1233 0.930 1_554 S
C1241 C1239 1.419 . S
C1241 C1242 1.362 . S
C1242 H1234 0.930 . S
C1242 C1241 1.362 . S
C1242 C1245 1.409 . S
C1243 H1235 0.930 . S
C1243 C1244 1.355 . S
C1243 C1245 1.415 . S
C1244 C1243 1.355 . S
C1244 C1246 1.419 . S
C1245 C1240 1.425 . S
C1245 C1242 1.409 . S
C1245 C1243 1.415 . S
C1246 H1236 0.930 . S
C1246 C1244 1.419 . S
C1246 C1247 1.362 . S
C1247 H1237 0.930 . S
C1247 C1240 1.409 . S
C1247 C1246 1.362 . S
H1248 C1254 0.930 . S
H1249 C1257 0.930 . S
H1250 C1258 0.930 . S
H1251 C1259 0.930 . S
H1252 C1262 0.930 . S
H1253 C1263 0.930 . S
C1254 H1248 0.930 . S
C1254 C1255 1.355 . S
C1254 C1256 1.415 . S
C1255 C1254 1.355 . S
C1255 C1257 1.419 . S
C1256 C1254 1.415 . S
C1256 C1261 1.425 . S
C1256 C1263 1.409 . S
C1257 H1249 0.930 . S
C1257 C1255 1.419 . S
C1257 C1258 1.362 . S
C1258 H1250 0.930 . S
C1258 C1257 1.362 . S
C1258 C1261 1.409 . S
C1259 H1251 0.930 . S
C1259 C1260 1.355 . S
C1259 C1261 1.415 . S
C1260 C1259 1.355 . S
C1260 C1262 1.419 . S
C1261 C1256 1.425 . S
C1261 C1258 1.409 . S
C1261 C1259 1.415 . S
C1262 H1252 0.930 . S
C1262 C1260 1.419 . S
C1262 C1263 1.362 . S
C1263 H1253 0.930 . S
C1263 C1256 1.409 . S
C1263 C1262 1.362 . S
H1264 C1270 0.930 . S
H1265 C1273 0.930 . S
H1266 C1274 0.930 . S
H1267 C1275 0.930 . S
H1268 C1278 0.930 . S
H1269 C1279 0.930 . S
C1270 H1264 0.930 . S
C1270 C1271 1.355 . S
C1270 C1272 1.415 . S
C1271 C1270 1.355 . S
C1271 C1273 1.419 . S
C1272 C1270 1.415 . S
C1272 C1277 1.425 . S
C1272 C1279 1.409 . S
C1273 H1265 0.930 . S
C1273 C1271 1.419 . S
C1273 C1274 1.362 . S
C1274 H1266 0.930 . S
C1274 C1273 1.362 . S
C1274 C1277 1.409 . S
C1275 H1267 0.930 . S
C1275 C1276 1.355 . S
C1275 C1277 1.415 . S
C1276 C1275 1.355 . S
C1276 C1278 1.419 . S
C1277 C1272 1.425 . S
C1277 C1274 1.409 . S
C1277 C1275 1.415 . S
C1278 H1268 0.930 . S
C1278 C1276 1.419 . S
C1278 C1279 1.362 . S
C1279 H1269 0.930 . S
C1279 C1272 1.409 . S
C1279 C1278 1.362 . S
H1280 C1286 0.930 . S
H1281 C1289 0.930 . S
H1282 C1290 0.930 . S
H1283 C1291 0.930 . S
H1284 C1294 0.930 . S
H1285 C1295 0.930 . S
C1286 H1280 0.930 . S
C1286 C1287 1.355 . S
C1286 C1288 1.415 . S
C1287 C1286 1.355 . S
C1287 C1289 1.419 . S
C1288 C1286 1.415 . S
C1288 C1293 1.425 . S
C1288 C1295 1.409 . S
C1289 H1281 0.930 . S
C1289 C1287 1.419 . S
C1289 C1290 1.362 . S
C1290 H1282 0.930 . S
C1290 C1289 1.362 . S
C1290 C1293 1.409 . S
C1291 H1283 0.930 . S
C1291 C1292 1.355 . S
C1291 C1293 1.415 . S
C1292 C1291 1.355 . S
C1292 C1294 1.419 . S
C1293 C1288 1.425 . S
C1293 C1290 1.409 . S
C1293 C1291 1.415 . S
C1294 H1284 0.930 . S
C1294 C1292 1.419 . S
C1294 C1295 1.362 . S
C1295 H1285 0.930 . S
C1295 C1288 1.409 . S
C1295 C1294 1.362 . S
H1296 C1302 0.930 . S
H1297 C1305 0.930 . S
H1298 C1306 0.930 . S
H1299 C1307 0.930 . S
H1300 C1310 0.930 . S
H1301 C1311 0.930 . S
C1302 H1296 0.930 . S
C1302 C1303 1.355 . S
C1302 C1304 1.415 . S
C1303 C1302 1.355 . S
C1303 C1305 1.419 . S
C1304 C1302 1.415 . S
C1304 C1309 1.425 . S
C1304 C1311 1.409 . S
C1305 H1297 0.930 . S
C1305 C1303 1.419 . S
C1305 C1306 1.362 . S
C1306 H1298 0.930 . S
C1306 C1305 1.362 . S
C1306 C1309 1.409 . S
C1307 H1299 0.930 . S
C1307 C1308 1.355 . S
C1307 C1309 1.415 . S
C1308 C1307 1.355 . S
C1308 C1310 1.419 . S
C1309 C1304 1.425 . S
C1309 C1306 1.409 . S
C1309 C1307 1.415 . S
C1310 H1300 0.930 . S
C1310 C1308 1.419 . S
C1310 C1311 1.362 . S
C1311 H1301 0.930 . S
C1311 C1304 1.409 . S
C1311 C1310 1.362 . S
H1312 C1318 0.929 1_554 S
H1313 C1321 0.930 . S
H1314 C1322 0.930 . S
H1315 C1323 0.930 . S
H1316 C1326 0.930 . S
H1317 C1327 0.930 . S
C1318 H1312 0.929 1_556 S
C1318 C1319 1.355 . S
C1318 C1320 1.415 . S
C1319 C1318 1.355 . S
C1319 C1321 1.419 . S
C1320 C1318 1.415 . S
C1320 C1325 1.425 . S
C1320 C1327 1.409 1_556 S
C1321 H1313 0.930 . S
C1321 C1319 1.419 . S
C1321 C1322 1.362 . S
C1322 H1314 0.930 . S
C1322 C1321 1.362 . S
C1322 C1325 1.409 . S
C1323 H1315 0.930 . S
C1323 C1324 1.355 . S
C1323 C1325 1.415 . S
C1324 C1323 1.355 . S
C1324 C1326 1.419 1_556 S
C1325 C1320 1.425 . S
C1325 C1322 1.409 . S
C1325 C1323 1.415 . S
C1326 H1316 0.930 . S
C1326 C1324 1.419 1_554 S
C1326 C1327 1.362 . S
C1327 H1317 0.930 . S
C1327 C1320 1.409 1_554 S
C1327 C1326 1.362 . S
H1328 C1334 0.930 . S
H1329 C1337 0.930 . S
H1330 C1338 0.930 . S
H1331 C1339 0.930 . S
H1332 C1342 0.930 . S
H1333 C1343 0.930 . S
C1334 H1328 0.930 . S
C1334 C1335 1.355 . S
C1334 C1336 1.415 . S
C1335 C1334 1.355 . S
C1335 C1337 1.419 . S
C1336 C1334 1.415 . S
C1336 C1341 1.425 . S
C1336 C1343 1.409 . S
C1337 H1329 0.930 . S
C1337 C1335 1.419 . S
C1337 C1338 1.362 . S
C1338 H1330 0.930 . S
C1338 C1337 1.362 . S
C1338 C1341 1.409 . S
C1339 H1331 0.930 . S
C1339 C1340 1.355 . S
C1339 C1341 1.415 . S
C1340 C1339 1.355 . S
C1340 C1342 1.419 . S
C1341 C1336 1.425 . S
C1341 C1338 1.409 . S
C1341 C1339 1.415 . S
C1342 H1332 0.930 . S
C1342 C1340 1.419 . S
C1342 C1343 1.362 . S
C1343 H1333 0.930 . S
C1343 C1336 1.409 . S
C1343 C1342 1.362 . S
H1344 C1350 0.930 1_556 S
H1345 C1353 0.930 . S
H1346 C1354 0.930 . S
H1347 C1355 0.930 . S
H1348 C1358 0.930 . S
H1349 C1359 0.930 . S
C1350 H1344 0.930 1_554 S
C1350 C1351 1.355 . S
C1350 C1352 1.415 . S
C1351 C1350 1.355 . S
C1351 C1353 1.419 . S
C1352 C1350 1.415 . S
C1352 C1357 1.425 . S
C1352 C1359 1.409 1_554 S
C1353 H1345 0.930 . S
C1353 C1351 1.419 . S
C1353 C1354 1.362 . S
C1354 H1346 0.930 . S
C1354 C1353 1.362 . S
C1354 C1357 1.409 . S
C1355 H1347 0.930 . S
C1355 C1356 1.382 . S
C1355 C1357 1.415 . S
C1356 C1355 1.382 . S
C1356 C1358 1.398 1_554 S
C1357 C1352 1.425 . S
C1357 C1354 1.409 . S
C1357 C1355 1.415 . S
C1358 H1348 0.930 . S
C1358 C1356 1.398 1_556 S
C1358 C1359 1.362 . S
C1359 H1349 0.930 . S
C1359 C1352 1.409 1_556 S
C1359 C1358 1.362 . S
H1360 C1366 0.930 . S
H1361 C1369 0.930 . S
H1362 C1370 0.930 1_545 S
H1363 C1371 0.930 . S
H1364 C1374 0.930 . S
H1365 C1375 0.930 1_556 S
C1366 H1360 0.930 . S
C1366 C1367 1.355 1_565 S
C1366 C1368 1.415 . S
C1367 C1366 1.355 1_545 S
C1367 C1369 1.419 . S
C1368 C1366 1.415 . S
C1368 C1373 1.425 . S
C1368 C1375 1.409 . S
C1369 H1361 0.930 . S
C1369 C1367 1.419 . S
C1369 C1370 1.362 1_545 S
C1370 H1362 0.930 1_565 S
C1370 C1369 1.362 1_565 S
C1370 C1373 1.409 . S
C1371 H1363 0.930 . S
C1371 C1372 1.355 . S
C1371 C1373 1.415 . S
C1372 C1371 1.355 . S
C1372 C1374 1.419 . S
C1373 C1368 1.425 . S
C1373 C1370 1.409 . S
C1373 C1371 1.415 . S
C1374 H1364 0.930 . S
C1374 C1372 1.419 . S
C1374 C1375 1.362 . S
C1375 H1365 0.930 1_554 S
C1375 C1368 1.409 . S
C1375 C1374 1.362 . S
C620 C178 1.542 1_556 S
C615 C60 1.542 . S
C636 C226 1.441 . S
C631 C76 1.449 . S
C647 C81 1.557 . S
C652 C262 1.453 . S
C668 C298 1.636 . S
C663 C48 1.678 . S
C684 C324 1.452 . S
C679 C115 1.451 . S
C700 C360 1.687 . S
C695 C136 1.690 . S
C711 C131 1.394 . S
C716 C395 1.413 . S
C732 C432 1.541 . S
C727 C104 1.550 . S
C743 C126 1.454 . S
C748 C466 1.456 . S
C764 C514 1.492 . S
C759 C103 1.515 . S
C775 C120 1.385 . S
C780 C467 1.389 . S
C796 C504 1.552 . S
C791 C142 1.555 . S
C807 C82 1.410 . S
C812 C550 1.335 . S
C823 C54 1.805 . S
C828 C539 1.793 . S
C839 C65 1.458 . S
C844 C540 1.465 . S
C855 C71 1.398 1_455 S
C860 C538 1.400 . S
C871 C37 1.470 . S
C876 C286 1.468 . S
C887 C158 1.834 . S
C892 C287 1.848 . S
C908 C190 1.430 . S
C903 C169 1.520 1_565 S
C924 C215 1.236 . S
C919 C98 1.239 . S
C935 C49 1.758 . S
C940 C322 1.763 . S
C956 C430 1.417 . S
C951 C125 1.426 . S
C972 C323 1.443 . S
C967 C109 1.452 . S
C988 C396 1.814 . S
C983 C137 1.815 . S
C1004 C394 1.524 . S
C999 C159 1.531 . S
C1015 C175 1.448 . S
C1020 C442 1.443 . S
C1031 C92 1.562 . S
C1036 C334 1.506 . S
C1052 C370 1.576 . S
C1047 C147 1.674 . S
C1063 C38 1.422 . S
C1068 C252 1.437 . S
C1084 C288 1.664 . S
C1079 C4 1.684 . S
C1100 C179 1.441 . S
C1095 C21 1.431 . S
C1116 C216 1.547 . S
C1111 C27 1.537 . S
C1127 C16 1.450 . S
C1132 C502 1.453 . S
C1143 C26 1.510 1_556 S
C1148 C478 1.505 . S
C1159 C43 1.358 . S
C1164 C503 1.381 . S
C1175 C10 1.551 1_556 S
C1180 C468 1.551 . S
C1196 C586 1.350 . S
C1191 C93 1.424 . S
C1212 C575 1.804 . S
C1207 C153 1.797 . S
C1228 C576 1.460 . S
C1223 C164 1.462 . S
C1239 C170 1.379 . S
C1244 C574 1.372 . S
C1255 C114 1.496 . S
C1260 C358 1.497 . S
C1276 C359 1.872 . S
C1271 C59 1.852 . S
C1292 C406 1.432 . S
C1287 C70 1.543 . S
C1308 C431 1.232 . S
C1303 C87 1.221 . S
C1319 C148 1.765 . S
C1324 C250 1.755 . S
C1340 C214 1.430 . S
C1335 C15 1.445 . S
C1351 C32 1.447 . S
C1356 C251 1.453 . S
C1372 C180 1.791 . S
C1367 C5 1.803 . S
