# Generated by pormake.
# Topology anh, (6,3)-cn, num edge types: 1
# Building blocks:
#     Node 0, Type 0, BuildingBlock: MIFKUJ_clean_sbu_0, # of connection points: 6
#     Node 1, Type 0, BuildingBlock: MIFKUJ_clean_sbu_0, # of connection points: 6
#     Node 2, Type 0, BuildingBlock: MIFKUJ_clean_sbu_0, # of connection points: 6
#     Node 3, Type 1, BuildingBlock: BETDAH_clean_linker_0, # of connection points: 3
#     Node 4, Type 1, BuildingBlock: BETDAH_clean_linker_0, # of connection points: 3
#     Node 5, Type 1, BuildingBlock: BETDAH_clean_linker_0, # of connection points: 3
#     Node 6, Type 1, BuildingBlock: BETDAH_clean_linker_0, # of connection points: 3
#     Node 7, Type 1, BuildingBlock: BETDAH_clean_linker_0, # of connection points: 3
#     Node 8, Type 1, BuildingBlock: BETDAH_clean_linker_0, # of connection points: 3
#     Edge 9, Type (0, 1), BuildingBlock: FUNLAD_clean_linker_0, # of connection points: 2
#     Edge 10, Type (0, 1), BuildingBlock: FUNLAD_clean_linker_0, # of connection points: 2
#     Edge 11, Type (0, 1), BuildingBlock: FUNLAD_clean_linker_0, # of connection points: 2
#     Edge 12, Type (0, 1), BuildingBlock: FUNLAD_clean_linker_0, # of connection points: 2
#     Edge 13, Type (0, 1), BuildingBlock: FUNLAD_clean_linker_0, # of connection points: 2
#     Edge 14, Type (0, 1), BuildingBlock: FUNLAD_clean_linker_0, # of connection points: 2
#     Edge 15, Type (0, 1), BuildingBlock: FUNLAD_clean_linker_0, # of connection points: 2
#     Edge 16, Type (0, 1), BuildingBlock: FUNLAD_clean_linker_0, # of connection points: 2
#     Edge 17, Type (0, 1), BuildingBlock: FUNLAD_clean_linker_0, # of connection points: 2
#     Edge 18, Type (0, 1), BuildingBlock: FUNLAD_clean_linker_0, # of connection points: 2
#     Edge 19, Type (0, 1), BuildingBlock: FUNLAD_clean_linker_0, # of connection points: 2
#     Edge 20, Type (0, 1), BuildingBlock: FUNLAD_clean_linker_0, # of connection points: 2
#     Edge 21, Type (0, 1), BuildingBlock: FUNLAD_clean_linker_0, # of connection points: 2
#     Edge 22, Type (0, 1), BuildingBlock: FUNLAD_clean_linker_0, # of connection points: 2
#     Edge 23, Type (0, 1), BuildingBlock: FUNLAD_clean_linker_0, # of connection points: 2
#     Edge 24, Type (0, 1), BuildingBlock: FUNLAD_clean_linker_0, # of connection points: 2
#     Edge 25, Type (0, 1), BuildingBlock: FUNLAD_clean_linker_0, # of connection points: 2
#     Edge 26, Type (0, 1), BuildingBlock: FUNLAD_clean_linker_0, # of connection points: 2
# Relax obj value: 0.069
# Max RMSD: 0.135
# Mean RMSD: 0.095
data_MOF--net-anh--node1-MIFKUJ_clean_sbu_0--node2-BETDAH_clean_linker_0--edge1-FUNLAD_clean_linker_0
_symmetry_space_group_name_H-M    P1
_symmetry_Int_Tables_number       1
_symmetry_cell_setting            triclinic
loop_
_symmetry_equiv_pos_as_xyz
'x, y, z'
_cell_length_a     36.384883
_cell_length_b     36.511109
_cell_length_c     54.822875
_cell_angle_alpha  96.498102
_cell_angle_beta   93.172137
_cell_angle_gamma 119.81818
loop_
_atom_site_label
_atom_site_type_symbol
_atom_site_fract_x
_atom_site_fract_y
_atom_site_fract_z
_atom_type_partial_charge
Zn0 Zn 0.05297 0.59155 0.16413 0.0
Zn1 Zn 0.96536 0.49701 0.16096 0.0
C2 C 0.12976 0.58923 0.17583 0.0
O3 O 0.1365 0.62159 0.19242 0.0
C4 C 0.89418 0.50581 0.14656 0.0
O5 O 0.889 0.47489 0.12936 0.0
O6 O 0.09125 0.65492 0.16648 0.0
O7 O 0.01426 0.5721 0.13182 0.0
O8 O 0.99021 0.50297 0.12868 0.0
C9 C 0.11132 0.66983 0.14845 0.0
O10 O 0.1041 0.64354 0.12794 0.0
O11 O 0.0941 0.5685 0.16185 0.0
C12 C 0.9046 0.42587 0.17961 0.0
O13 O 0.91054 0.4575 0.19652 0.0
O14 O 0.92531 0.4345 0.16111 0.0
O15 O 0.00483 0.51521 0.19261 0.0
O16 O 0.02743 0.58384 0.19626 0.0
O17 O 0.92721 0.52339 0.16267 0.0
C18 C 1.00142 0.53601 0.11859 0.0
C19 C 0.01635 0.55062 0.20609 0.0
Zn20 Zn 0.56839 0.09148 0.49561 0.0
Zn21 Zn 0.56142 0.98568 0.49742 0.0
C22 C 0.65228 0.16219 0.50812 0.0
O23 O 0.63447 0.16592 0.52773 0.0
C24 C 0.48959 0.9042 0.47579 0.0
O25 O 0.51985 0.9013 0.4653 0.0
O26 O 0.54161 0.12774 0.49476 0.0
O27 O 0.53836 0.04254 0.46726 0.0
O28 O 0.58012 0.01506 0.46746 0.0
C29 C 0.54557 0.14871 0.47716 0.0
O30 O 0.56476 0.14379 0.45852 0.0
O31 O 0.63019 0.1306 0.49084 0.0
C32 C 0.58781 0.93545 0.52025 0.0
O33 O 0.55989 0.9347 0.5347 0.0
O34 O 0.59471 0.95615 0.50226 0.0
O35 O 0.56873 0.01897 0.53098 0.0
O36 O 0.56684 0.07853 0.53022 0.0
O37 O 0.49929 0.93869 0.48993 0.0
C38 C 0.56137 0.03088 0.45608 0.0
C39 C 0.56897 0.05157 0.54205 0.0
Zn40 Zn 0.59423 0.56994 0.83933 0.0
Zn41 Zn 0.49682 0.57396 0.83329 0.0
C42 C 0.5766 0.48659 0.84381 0.0
O43 O 0.59647 0.50779 0.86593 0.0
C44 C 0.50152 0.64398 0.81179 0.0
O45 O 0.47748 0.61243 0.79361 0.0
O46 O 0.65723 0.5925 0.84303 0.0
O47 O 0.58191 0.59716 0.81245 0.0
O48 O 0.51349 0.54995 0.80364 0.0
C49 C 0.67304 0.58651 0.82393 0.0
O50 O 0.64823 0.56903 0.80264 0.0
O51 O 0.56917 0.50621 0.82822 0.0
C52 C 0.41476 0.54946 0.84693 0.0
O53 O 0.43863 0.57806 0.86639 0.0
O54 O 0.43274 0.5419 0.82943 0.0
O55 O 0.51476 0.57078 0.86819 0.0
O56 O 0.57923 0.57856 0.87328 0.0
O57 O 0.51505 0.63568 0.83111 0.0
C58 C 0.54962 0.57256 0.79653 0.0
C59 C 0.54618 0.57488 0.88204 0.0
H60 H 0.46144 0.97523 0.23174 0.0
H61 H 0.59449 0.04552 0.22188 0.0
H62 H 0.50061 0.96197 0.16026 0.0
C63 C 0.48635 0.98448 0.2198 0.0
C64 C 0.47562 0.96581 0.19472 0.0
C65 C 0.52918 0.01293 0.2299 0.0
C66 C 0.56137 0.02362 0.21435 0.0
C67 C 0.55083 0.00506 0.18921 0.0
C68 C 0.50825 0.97598 0.17968 0.0
N69 N 0.58236 0.01396 0.17312 0.0
C70 C 0.61943 0.05343 0.17519 0.0
H71 H 0.59386 0.48577 0.57473 0.0
H72 H 0.65882 0.62199 0.57613 0.0
H73 H 0.649 0.53923 0.51086 0.0
C74 C 0.61049 0.51328 0.56551 0.0
C75 C 0.61901 0.50735 0.54114 0.0
C76 C 0.62515 0.55459 0.57844 0.0
C77 C 0.6476 0.59005 0.56642 0.0
C78 C 0.65617 0.58437 0.54202 0.0
C79 C 0.6424 0.54322 0.52971 0.0
N80 N 0.67868 0.61945 0.5294 0.0
C81 C 0.67771 0.65703 0.53438 0.0
H82 H 0.94469 0.51616 0.89269 0.0
H83 H 0.01094 0.4468 0.88131 0.0
H84 H 0.94804 0.4644 0.81888 0.0
C85 C 0.95559 0.49931 0.88029 0.0
C86 C 0.94405 0.49298 0.85465 0.0
C87 C 0.97936 0.48245 0.89014 0.0
C88 C 0.9924 0.45974 0.87392 0.0
C89 C 0.98123 0.45344 0.84818 0.0
C90 C 0.9564 0.46929 0.83874 0.0
N91 N 0.99509 0.43178 0.8314 0.0
C92 C 0.03433 0.43456 0.83616 0.0
H93 H 0.10638 0.61153 0.42177 0.0
H94 H 0.00258 0.49757 0.44063 0.0
H95 H 0.11605 0.57597 0.49298 0.0
C96 C 0.09264 0.59005 0.43506 0.0
C97 C 0.11653 0.59829 0.45805 0.0
C98 C 0.05174 0.55381 0.4286 0.0
C99 C 0.03404 0.52567 0.44567 0.0
C100 C 0.05702 0.53405 0.46914 0.0
C101 C 0.09811 0.57031 0.47515 0.0
N102 N 0.04028 0.50646 0.48699 0.0
C103 C 1.0004 0.46923 0.48348 0.0
H104 H 0.56227 0.14421 0.76264 0.0
H105 H 0.56377 0.03319 0.78019 0.0
H106 H 0.55573 0.11867 0.83751 0.0
C107 C 0.5623 0.12491 0.77627 0.0
C108 C 0.55921 0.13659 0.80104 0.0
C109 C 0.56422 0.08791 0.76862 0.0
C110 C 0.56217 0.06166 0.78601 0.0
C111 C 0.55888 0.07271 0.8109 0.0
C112 C 0.55753 0.11009 0.81823 0.0
N113 N 0.55722 0.04736 0.82917 0.0
C114 C 0.55834 0.00964 0.82471 0.0
H115 H 0.57668 0.53734 0.09444 0.0
H116 H 0.47613 0.55808 0.11687 0.0
H117 H 0.55856 0.54632 0.17112 0.0
C118 C 0.55901 0.54115 0.10884 0.0
C119 C 0.5715 0.54059 0.13336 0.0
C120 C 0.52485 0.54755 0.10268 0.0
C121 C 0.50271 0.55348 0.12154 0.0
C122 C 0.51467 0.55282 0.14632 0.0
C123 C 0.54946 0.54699 0.15209 0.0
N124 N 0.49243 0.55743 0.16592 0.0
C125 C 0.45546 0.56006 0.16334 0.0
C126 C 0.20498 0.60605 0.18678 0.0
C127 C 0.16496 0.58017 0.17227 0.0
C128 C 0.23933 0.59992 0.18278 0.0
C129 C 0.23463 0.56725 0.16426 0.0
C130 C 0.19456 0.54131 0.14976 0.0
C131 C 0.16011 0.54757 0.15373 0.0
C132 C 0.27109 0.56055 0.15898 0.0
C133 C 0.3061 0.57445 0.17557 0.0
C134 C 0.34367 0.56929 0.17114 0.0
C135 C 0.37318 0.57779 0.19173 0.0
C136 C 0.40959 0.57477 0.18892 0.0
C137 C 0.41761 0.56337 0.16543 0.0
H138 H 0.33071 0.55191 0.13097 0.0
C139 C 0.38862 0.55491 0.14465 0.0
C140 C 0.35192 0.55792 0.14743 0.0
H141 H 0.39437 0.54613 0.12632 0.0
H142 H 0.2102 0.63185 0.20104 0.0
H143 H 0.26972 0.62177 0.1939 0.0
H144 H 0.18989 0.51614 0.1352 0.0
H145 H 0.12987 0.52723 0.14206 0.0
H146 H 0.26808 0.54249 0.14111 0.0
H147 H 0.30715 0.58953 0.19402 0.0
H148 H 0.3681 0.58685 0.2102 0.0
H149 H 0.43155 0.58139 0.20522 0.0
C150 C 0.71295 0.19913 0.48317 0.0
C151 C 0.69657 0.19567 0.50598 0.0
C152 C 0.75406 0.23258 0.48126 0.0
C153 C 0.77964 0.26303 0.50222 0.0
C154 C 0.76356 0.25871 0.52506 0.0
C155 C 0.72247 0.22572 0.5269 0.0
C156 C 0.82345 0.29924 0.50136 0.0
C157 C 0.83686 0.31718 0.481 0.0
C158 C 0.8799 0.35554 0.48129 0.0
C159 C 0.88556 0.38366 0.4644 0.0
C160 C 0.92519 0.42087 0.46488 0.0
C161 C 0.95985 0.43019 0.48205 0.0
H162 H 0.91276 0.34314 0.51076 0.0
C163 C 0.95483 0.40173 0.49843 0.0
C164 C 0.9153 0.36464 0.49803 0.0
H165 H 0.98145 0.4083 0.51168 0.0
H166 H 0.6938 0.1764 0.46672 0.0
H167 H 0.76577 0.23418 0.46347 0.0
H168 H 0.78263 0.2814 0.54155 0.0
H169 H 0.71099 0.22389 0.54479 0.0
H170 H 0.84435 0.31363 0.51882 0.0
H171 H 0.81472 0.30556 0.46407 0.0
H172 H 0.85904 0.37731 0.45116 0.0
H173 H 0.92857 0.4425 0.45203 0.0
C174 C 0.53413 0.72169 0.83005 0.0
C175 C 0.51033 0.68792 0.81027 0.0
C176 C 0.54022 0.7625 0.82902 0.0
C177 C 0.52276 0.77053 0.80807 0.0
C178 C 0.49941 0.73681 0.78826 0.0
C179 C 0.49341 0.69612 0.78927 0.0
C180 C 0.52577 0.81252 0.80665 0.0
C181 C 0.55558 0.84994 0.82056 0.0
C182 C 0.55687 0.89144 0.82029 0.0
C183 C 0.58003 0.92449 0.84051 0.0
C184 C 0.58102 0.96345 0.84168 0.0
C185 C 0.55918 0.97028 0.82254 0.0
H186 H 0.51878 0.87521 0.78442 0.0
C187 C 0.53695 0.93811 0.80195 0.0
C188 C 0.53588 0.89902 0.80074 0.0
H189 H 0.52012 0.94305 0.78692 0.0
H190 H 0.54738 0.71643 0.84657 0.0
H191 H 0.55744 0.78706 0.84502 0.0
H192 H 0.48537 0.74183 0.77195 0.0
H193 H 0.47487 0.67091 0.77369 0.0
H194 H 0.50186 0.81198 0.79366 0.0
H195 H 0.57958 0.85036 0.83343 0.0
H196 H 0.5968 0.9199 0.85574 0.0
H197 H 0.59841 0.98803 0.85772 0.0
C198 C 0.82396 0.49634 0.12992 0.0
C199 C 0.86005 0.51692 0.148 0.0
C200 C 0.79023 0.50419 0.13166 0.0
C201 C 0.79137 0.53269 0.15169 0.0
C202 C 0.82807 0.55439 0.16936 0.0
C203 C 0.86196 0.54644 0.16764 0.0
C204 C 0.75543 0.54127 0.15398 0.0
C205 C 0.71457 0.51199 0.14457 0.0
C206 C 0.67776 0.51957 0.14386 0.0
C207 C 0.64096 0.49078 0.12728 0.0
C208 C 0.60621 0.49707 0.12458 0.0
C209 C 0.60691 0.53207 0.13864 0.0
H210 H 0.70528 0.57644 0.17204 0.0
C211 C 0.6428 0.56004 0.1561 0.0
C212 C 0.67806 0.55401 0.15863 0.0
H213 H 0.64418 0.58732 0.16717 0.0
H214 H 0.8215 0.4738 0.11436 0.0
H215 H 0.76356 0.48815 0.11703 0.0
H216 H 0.83023 0.57703 0.18477 0.0
H217 H 0.88933 0.56299 0.18185 0.0
H218 H 0.76319 0.57243 0.16352 0.0
H219 H 0.70754 0.4806 0.13583 0.0
H220 H 0.63942 0.46374 0.1158 0.0
H221 H 0.57885 0.47477 0.11112 0.0
C222 C 0.413 0.86857 0.48417 0.0
C223 C 0.4456 0.86672 0.47246 0.0
C224 C 0.37196 0.83244 0.48161 0.0
C225 C 0.36276 0.79352 0.46737 0.0
C226 C 0.39532 0.79207 0.45546 0.0
C227 C 0.43617 0.82808 0.45798 0.0
C228 C 0.31966 0.7541 0.46352 0.0
C229 C 0.28782 0.74756 0.47722 0.0
C230 C 0.24466 0.70806 0.47228 0.0
C231 C 0.21794 0.69776 0.49105 0.0
C232 C 0.17667 0.66173 0.48675 0.0
C233 C 0.16109 0.63536 0.46347 0.0
H234 H 0.24755 0.68849 0.43371 0.0
C235 C 0.188 0.64544 0.44482 0.0
C236 C 0.22896 0.68142 0.44904 0.0
H237 H 0.17732 0.62557 0.42674 0.0
H238 H 0.41917 0.89793 0.49538 0.0
H239 H 0.34772 0.83554 0.49059 0.0
H240 H 0.38923 0.76278 0.44418 0.0
H241 H 0.46043 0.82543 0.44866 0.0
H242 H 0.31478 0.72872 0.44903 0.0
H243 H 0.29351 0.77122 0.49307 0.0
H244 H 0.22891 0.71781 0.50907 0.0
H245 H 0.15665 0.65515 0.50145 0.0
C246 C 0.57338 0.42037 0.85471 0.0
C247 C 0.56753 0.44217 0.83668 0.0
C248 C 0.56913 0.38021 0.84799 0.0
C249 C 0.55882 0.36074 0.823 0.0
C250 C 0.55218 0.38217 0.80503 0.0
C251 C 0.55618 0.4223 0.81178 0.0
C252 C 0.55802 0.31993 0.8149 0.0
C253 C 0.55111 0.29058 0.82971 0.0
C254 C 0.55324 0.25132 0.82189 0.0
C255 C 0.52944 0.21487 0.83283 0.0
C256 C 0.53138 0.17773 0.8262 0.0
C257 C 0.55773 0.17638 0.8087 0.0
H258 H 0.60019 0.2782 0.79653 0.0
C259 C 0.58235 0.21333 0.79822 0.0
C260 C 0.5801 0.25027 0.80468 0.0
H261 H 0.60392 0.214 0.7852 0.0
H262 H 0.58234 0.43481 0.87406 0.0
H263 H 0.57563 0.36547 0.86238 0.0
H264 H 0.54451 0.36813 0.78563 0.0
H265 H 0.55171 0.4383 0.79741 0.0
H266 H 0.5627 0.3137 0.79581 0.0
H267 H 0.54228 0.29453 0.848 0.0
H268 H 0.50884 0.21493 0.84635 0.0
H269 H 0.51167 0.14987 0.83452 0.0
C270 C 0.60215 0.88887 0.54449 0.0
C271 C 0.60915 0.91077 0.52419 0.0
C272 C 0.62025 0.86349 0.54752 0.0
C273 C 0.64544 0.85916 0.53013 0.0
C274 C 0.65386 0.88248 0.51043 0.0
C275 C 0.6358 0.90792 0.50741 0.0
C276 C 0.66266 0.83002 0.53155 0.0
C277 C 0.64361 0.79465 0.54222 0.0
C278 C 0.65686 0.76206 0.54131 0.0
C279 C 0.64112 0.73208 0.55759 0.0
C280 C 0.64924 0.69836 0.5559 0.0
C281 C 0.67321 0.69413 0.53788 0.0
H282 H 0.69347 0.77934 0.5101 0.0
C283 C 0.68979 0.7242 0.52189 0.0
C284 C 0.68167 0.75793 0.52351 0.0
H285 H 0.7079 0.72086 0.50763 0.0
H286 H 0.58234 0.89097 0.55797 0.0
H287 H 0.61436 0.84745 0.56351 0.0
H288 H 0.67351 0.88008 0.49691 0.0
H289 H 0.64208 0.92466 0.49166 0.0
H290 H 0.69031 0.83687 0.52216 0.0
H291 H 0.61575 0.78795 0.55139 0.0
H292 H 0.62167 0.73421 0.57133 0.0
H293 H 0.63581 0.67502 0.56822 0.0
C294 C 0.73254 0.5823 0.8056 0.0
C295 C 0.71647 0.59261 0.82637 0.0
C296 C 0.7706 0.58167 0.80841 0.0
C297 C 0.79316 0.59104 0.8321 0.0
C298 C 0.77874 0.60446 0.85256 0.0
C299 C 0.7407 0.60511 0.84977 0.0
C300 C 0.83011 0.58472 0.8365 0.0
C301 C 0.83474 0.55536 0.82189 0.0
C302 C 0.86585 0.54202 0.82889 0.0
C303 C 0.90274 0.56819 0.84606 0.0
C304 C 0.92862 0.55252 0.85398 0.0
C305 C 0.91854 0.51066 0.84472 0.0
H306 H 0.82908 0.48024 0.80534 0.0
C307 C 0.88306 0.48538 0.8266 0.0
C308 C 0.85705 0.50097 0.81875 0.0
H309 H 0.87449 0.45298 0.81914 0.0
H310 H 0.71499 0.57325 0.78725 0.0
H311 H 0.78165 0.57292 0.79205 0.0
H312 H 0.79583 0.61246 0.87098 0.0
H313 H 0.72944 0.61365 0.86612 0.0
H314 H 0.8507 0.60078 0.85395 0.0
H315 H 0.81169 0.53665 0.80558 0.0
H316 H 0.9117 0.60063 0.85359 0.0
H317 H 0.95645 0.57309 0.86751 0.0
C318 C 0.17191 0.73024 0.13282 0.0
C319 C 0.14706 0.71457 0.15197 0.0
C320 C 0.20954 0.77008 0.13729 0.0
C321 C 0.2232 0.79484 0.16109 0.0
C322 C 0.19665 0.78061 0.17966 0.0
C323 C 0.15902 0.74081 0.1752 0.0
C324 C 0.26595 0.83404 0.16769 0.0
C325 C 0.3 0.83918 0.15663 0.0
C326 C 0.34467 0.8735 0.16584 0.0
C327 C 0.37789 0.86683 0.15929 0.0
C328 C 0.4203 0.89686 0.16852 0.0
C329 C 0.43055 0.93453 0.18441 0.0
H330 H 0.3305 0.91886 0.1861 0.0
C331 C 0.39748 0.94187 0.19051 0.0
C332 C 0.35495 0.91178 0.18123 0.0
H333 H 0.40453 0.97104 0.20232 0.0
H334 H 0.16316 0.71113 0.11459 0.0
H335 H 0.22825 0.78083 0.12221 0.0
H336 H 0.2061 0.79934 0.19805 0.0
H337 H 0.14033 0.72989 0.19029 0.0
H338 H 0.27033 0.85626 0.18404 0.0
H339 H 0.29581 0.81468 0.14168 0.0
H340 H 0.37097 0.83774 0.14741 0.0
H341 H 0.44499 0.89008 0.16364 0.0
C342 C 0.54656 0.21175 0.46265 0.0
C343 C 0.53559 0.18346 0.4799 0.0
C344 C 0.54416 0.24886 0.46751 0.0
C345 C 0.53099 0.25844 0.48981 0.0
C346 C 0.51654 0.22831 0.50596 0.0
C347 C 0.51895 0.19126 0.50113 0.0
C348 C 0.53499 0.30063 0.49781 0.0
C349 C 0.56588 0.33695 0.49134 0.0
C350 C 0.57722 0.38053 0.50321 0.0
C351 C 0.61824 0.4147 0.50184 0.0
C352 C 0.63166 0.45581 0.51401 0.0
C353 C 0.60424 0.46379 0.52776 0.0
H354 H 0.51689 0.36374 0.51726 0.0
C355 C 0.56275 0.42995 0.52863 0.0
C356 C 0.54923 0.38875 0.51637 0.0
H357 H 0.54063 0.4354 0.53866 0.0
H358 H 0.55876 0.20625 0.44589 0.0
H359 H 0.55382 0.27048 0.4541 0.0
H360 H 0.5056 0.23456 0.52308 0.0
H361 H 0.50965 0.16979 0.51465 0.0
H362 H 0.5159 0.30223 0.51196 0.0
H363 H 0.58713 0.3351 0.47875 0.0
H364 H 0.64045 0.40941 0.49179 0.0
H365 H 0.66391 0.48119 0.5131 0.0
C366 C 0.34821 0.53224 0.86583 0.0
C367 C 0.3677 0.52688 0.84539 0.0
C368 C 0.3038 0.51203 0.86429 0.0
C369 C 0.27784 0.4864 0.84211 0.0
C370 C 0.29733 0.47996 0.82196 0.0
C371 C 0.3418 0.50004 0.82354 0.0
C372 C 0.23057 0.46634 0.83914 0.0
C373 C 0.21023 0.48216 0.85262 0.0
C374 C 0.16348 0.46539 0.84854 0.0
C375 C 0.14487 0.47746 0.86725 0.0
C376 C 0.10196 0.46594 0.86349 0.0
C377 C 0.07699 0.44219 0.84093 0.0
H378 H 0.15089 0.43168 0.81083 0.0
C379 C 0.09484 0.42921 0.82233 0.0
C380 C 0.13782 0.44074 0.82603 0.0
H381 H 0.07595 0.41134 0.80465 0.0
H382 H 0.36726 0.5521 0.88308 0.0
H383 H 0.29017 0.51648 0.88061 0.0
H384 H 0.27814 0.46004 0.80475 0.0
H385 H 0.35585 0.49502 0.80751 0.0
H386 H 0.21253 0.43901 0.82456 0.0
H387 H 0.22856 0.50973 0.86704 0.0
H388 H 0.16384 0.49667 0.88467 0.0
H389 H 0.08871 0.47664 0.87795 0.0
C390 C 0.86866 0.3469 0.16482 0.0
C391 C 0.87396 0.38116 0.18212 0.0
C392 C 0.83912 0.30473 0.16711 0.0
C393 C 0.81389 0.29601 0.18664 0.0
C394 C 0.82002 0.33028 0.20421 0.0
C395 C 0.84962 0.37238 0.20197 0.0
C396 C 0.7809 0.25189 0.1894 0.0
C397 C 0.76196 0.2191 0.17037 0.0
C398 C 0.72618 0.17592 0.17245 0.0
C399 C 0.69914 0.1496 0.1508 0.0
C400 C 0.66434 0.10928 0.15182 0.0
C401 C 0.65622 0.09448 0.17447 0.0
H402 H 0.73912 0.17898 0.21216 0.0
C403 C 0.68339 0.11992 0.19613 0.0
C404 C 0.71835 0.16037 0.19516 0.0
H405 H 0.67755 0.10861 0.21375 0.0
H406 H 0.88737 0.3526 0.14951 0.0
H407 H 0.83659 0.27927 0.15365 0.0
H408 H 0.80136 0.32455 0.21956 0.0
H409 H 0.8531 0.39803 0.21572 0.0
H410 H 0.76973 0.24737 0.20737 0.0
H411 H 0.77056 0.22465 0.15194 0.0
H412 H 0.70452 0.16053 0.13306 0.0
H413 H 0.64357 0.08981 0.13491 0.0
C414 C 0.98904 0.49395 0.07641 0.0
C415 C 1.00009 0.53279 0.09135 0.0
C416 C 0.98855 0.49126 0.05073 0.0
C417 C 0.99919 0.52747 0.03944 0.0
C418 C 0.00962 0.56603 0.05436 0.0
C419 C 0.01033 0.56879 0.08001 0.0
C420 C 0.99799 0.52601 0.0122 0.0
C421 C 0.00291 0.49757 0.99688 0.0
C422 C 1.00002 0.4955 0.96953 0.0
C423 C 0.98871 0.45671 0.95451 0.0
C424 C 0.98321 0.45272 0.9287 0.0
C425 C 0.98914 0.4876 0.91739 0.0
H426 H 0.01863 0.56201 0.96893 0.0
C427 C 1.00238 0.52697 0.93237 0.0
C428 C 0.00798 0.531 0.95814 0.0
H429 H 0.00821 0.5547 0.92415 0.0
H430 H 0.98072 0.46554 0.08453 0.0
H431 H 0.97898 0.46058 0.03985 0.0
H432 H 0.01753 0.5943 0.04615 0.0
H433 H 0.01887 0.5992 0.09092 0.0
H434 H 0.99295 0.54964 0.00469 0.0
H435 H 0.00782 0.47385 0.0044 0.0
H436 H 0.98289 0.42899 0.96276 0.0
H437 H 0.97287 0.42192 0.91765 0.0
C438 C 0.54226 0.04906 0.4163 0.0
C439 C 0.56447 0.03352 0.42941 0.0
C440 C 0.54405 0.05028 0.39096 0.0
C441 C 0.56843 0.03619 0.37813 0.0
C442 C 0.5909 0.02106 0.39136 0.0
C443 C 0.58908 0.01983 0.41667 0.0
C444 C 0.56928 0.03409 0.35086 0.0
C445 C 0.55638 0.05459 0.33673 0.0
C446 C 0.55314 0.0479 0.30924 0.0
C447 C 0.52196 0.05197 0.29556 0.0
C448 C 0.51521 0.04218 0.26973 0.0
C449 C 0.53996 0.02867 0.25698 0.0
H450 H 0.60485 0.03458 0.30627 0.0
C451 C 0.57288 0.02704 0.27057 0.0
C452 C 0.57945 0.03657 0.29643 0.0
H453 H 0.59249 0.01675 0.26128 0.0
H454 H 0.52283 0.0597 0.4255 0.0
H455 H 0.52526 0.06116 0.38158 0.0
H456 H 0.60972 0.00974 0.38202 0.0
H457 H 0.60664 0.00769 0.42617 0.0
H458 H 0.57992 0.01347 0.34205 0.0
H459 H 0.54515 0.07489 0.34517 0.0
H460 H 0.50166 0.06124 0.30491 0.0
H461 H 0.49002 0.04436 0.25973 0.0
C462 C 0.59362 0.597 0.76182 0.0
C463 C 0.55425 0.57012 0.76981 0.0
C464 C 0.59824 0.59463 0.73665 0.0
C465 C 0.56358 0.56494 0.71881 0.0
C466 C 0.52408 0.5386 0.72682 0.0
C467 C 0.51944 0.54106 0.75201 0.0
C468 C 0.56689 0.56083 0.69177 0.0
C469 C 0.60419 0.57491 0.6823 0.0
C470 C 0.60755 0.57004 0.65533 0.0
C471 C 0.64657 0.59735 0.6472 0.0
C472 C 0.65196 0.5929 0.62222 0.0
C473 C 0.6185 0.56068 0.60476 0.0
H474 H 0.54367 0.51537 0.6433 0.0
C475 C 0.57934 0.53336 0.61282 0.0
C476 C 0.57389 0.53789 0.63782 0.0
H477 H 0.55291 0.50829 0.5998 0.0
H478 H 0.62097 0.62014 0.77502 0.0
H479 H 0.62888 0.61667 0.73144 0.0
H480 H 0.49671 0.5157 0.71355 0.0
H481 H 0.48859 0.52002 0.7575 0.0
H482 H 0.53713 0.5449 0.67934 0.0
H483 H 0.63402 0.59094 0.69463 0.0
H484 H 0.67318 0.62212 0.66027 0.0
H485 H 0.68276 0.61403 0.6167 0.0
C486 C 0.57402 0.02901 0.58318 0.0
C487 C 0.57156 0.0582 0.56944 0.0
C488 C 0.57641 0.03533 0.609 0.0
C489 C 0.57615 0.07095 0.62166 0.0
C490 C 0.57419 0.10029 0.60793 0.0
C491 C 0.57179 0.09398 0.58216 0.0
C492 C 0.57909 0.07958 0.64909 0.0
C493 C 0.5694 0.04971 0.66389 0.0
C494 C 0.57079 0.05937 0.69114 0.0
C495 C 0.54375 0.02666 0.70384 0.0
C496 C 0.54238 0.03545 0.7292 0.0
C497 C 0.56822 0.07716 0.74233 0.0
H498 H 0.62098 0.12622 0.69581 0.0
C499 C 0.59682 0.10936 0.72988 0.0
C500 C 0.59828 0.10057 0.70463 0.0
H501 H 0.61795 0.14155 0.73968 0.0
H502 H 0.57433 0.0013 0.57402 0.0
H503 H 0.57915 0.01259 0.61885 0.0
H504 H 0.57428 0.1282 0.61717 0.0
H505 H 0.57014 0.11726 0.57224 0.0
H506 H 0.5874 0.11169 0.65723 0.0
H507 H 0.55719 0.01661 0.65582 0.0
H508 H 0.52268 0.9945 0.69398 0.0
H509 H 0.52006 0.00998 0.73832 0.0
C510 C 0.50816 0.57094 0.9195 0.0
C511 C 0.54343 0.57323 0.90884 0.0
C512 C 0.50441 0.56661 0.94444 0.0
C513 C 0.53591 0.56444 0.95925 0.0
C514 C 0.57129 0.56724 0.94865 0.0
C515 C 0.57517 0.57181 0.92383 0.0
C516 C 0.53206 0.55668 0.98527 0.0
C517 C 0.50821 0.56552 0.00014 0.0
C518 C 0.50684 0.55764 0.02618 0.0
C519 C 0.50474 0.58618 0.04473 0.0
C520 C 0.50829 0.58179 0.06969 0.0
C521 C 0.5136 0.54851 0.0764 0.0
H522 H 0.5088 0.49896 0.01891 0.0
C523 C 0.51234 0.51814 0.05764 0.0
C524 C 0.50895 0.5226 0.03283 0.0
H525 H 0.51524 0.49151 0.06223 0.0
H526 H 0.48299 0.57171 0.90849 0.0
H527 H 0.4762 0.56363 0.95175 0.0
H528 H 0.59593 0.56544 0.95957 0.0
H529 H 0.60269 0.57329 0.91628 0.0
H530 H 0.55142 0.54458 0.99284 0.0
H531 H 0.49198 0.58157 0.99386 0.0
H532 H 0.50242 0.61305 0.04002 0.0
H533 H 0.50908 0.60561 0.08376 0.0
C534 C 1.00127 0.51553 0.24396 0.0
C535 C 0.01582 0.55277 0.2332 0.0
C536 C 1.00058 0.51737 0.26952 0.0
C537 C 0.0143 0.55659 0.28493 0.0
C538 C 0.02884 0.59375 0.27412 0.0
C539 C 0.02946 0.59189 0.24856 0.0
C540 C 0.01672 0.56084 0.31236 0.0
C541 C 0.99573 0.52798 0.32483 0.0
C542 C 0.00343 0.53312 0.35223 0.0
C543 C 1.00059 0.49892 0.36312 0.0
C544 C 0.01366 0.50469 0.38844 0.0
C545 C 0.02953 0.54474 0.40327 0.0
H546 H 0.01647 0.59851 0.36003 0.0
C547 C 0.02888 0.57781 0.39277 0.0
C548 C 0.0158 0.57205 0.36754 0.0
H549 H 0.04003 0.60871 0.40395 0.0
H550 H 0.99062 0.48484 0.23266 0.0
H551 H 0.99031 0.48811 0.277 0.0
H552 H 0.03997 0.62447 0.28553 0.0
H553 H 0.04087 0.6212 0.2409 0.0
H554 H 0.03808 0.59268 0.32267 0.0
H555 H 0.97476 0.49584 0.31486 0.0
H556 H 0.99052 0.4684 0.3518 0.0
H557 H 0.01381 0.47864 0.39606 0.0
loop_
_geom_bond_atom_site_label_1
_geom_bond_atom_site_label_2
_geom_bond_distance
_geom_bond_site_symmetry_2
_ccdc_geom_bond_type
Zn0 O6 1.969 . S
Zn0 O7 1.965 . S
Zn0 O11 2.024 . S
Zn0 O16 1.969 . S
Zn1 O8 1.969 . S
Zn1 O14 1.969 . S
Zn1 O15 1.965 . S
Zn1 O17 2.024 . S
C2 O3 1.229 . S
C2 O11 1.058 . S
O3 C2 1.229 . S
C4 O5 1.229 . S
C4 O17 1.058 . S
O5 C4 1.229 . S
O6 Zn0 1.969 . S
O6 C9 1.267 . S
O7 Zn0 1.965 . S
O7 C18 1.260 . S
O8 Zn1 1.969 . S
O8 C18 1.258 1_655 S
C9 O6 1.267 . S
C9 O10 1.228 . S
O10 C9 1.228 . S
O11 Zn0 2.024 . S
O11 C2 1.058 . S
C12 O13 1.228 . S
C12 O14 1.267 . S
O13 C12 1.228 . S
O14 Zn1 1.969 . S
O14 C12 1.267 . S
O15 Zn1 1.965 . S
O15 C19 1.260 1_655 S
O16 Zn0 1.969 . S
O16 C19 1.258 . S
O17 Zn1 2.024 . S
O17 C4 1.058 . S
C18 O7 1.260 . S
C18 O8 1.258 1_455 S
C19 O15 1.260 1_455 S
C19 O16 1.258 . S
Zn20 O26 1.969 . S
Zn20 O27 1.965 . S
Zn20 O31 2.024 . S
Zn20 O36 1.969 . S
Zn21 O28 1.969 . S
Zn21 O34 1.969 . S
Zn21 O35 1.965 1_565 S
Zn21 O37 2.024 . S
C22 O23 1.229 . S
C22 O31 1.058 . S
O23 C22 1.229 . S
C24 O25 1.229 . S
C24 O37 1.058 . S
O25 C24 1.229 . S
O26 Zn20 1.969 . S
O26 C29 1.267 . S
O27 Zn20 1.965 . S
O27 C38 1.260 . S
O28 Zn21 1.969 . S
O28 C38 1.258 1_565 S
C29 O26 1.267 . S
C29 O30 1.228 . S
O30 C29 1.228 . S
O31 Zn20 2.024 . S
O31 C22 1.058 . S
C32 O33 1.228 . S
C32 O34 1.267 . S
O33 C32 1.228 . S
O34 Zn21 1.969 . S
O34 C32 1.267 . S
O35 Zn21 1.965 1_545 S
O35 C39 1.260 . S
O36 Zn20 1.969 . S
O36 C39 1.258 . S
O37 Zn21 2.024 . S
O37 C24 1.058 . S
C38 O27 1.260 . S
C38 O28 1.258 1_545 S
C39 O35 1.260 . S
C39 O36 1.258 . S
Zn40 O46 1.969 . S
Zn40 O47 1.965 . S
Zn40 O51 2.024 . S
Zn40 O56 1.969 . S
Zn41 O48 1.969 . S
Zn41 O54 1.969 . S
Zn41 O55 1.965 . S
Zn41 O57 2.024 . S
C42 O43 1.229 . S
C42 O51 1.058 . S
O43 C42 1.229 . S
C44 O45 1.229 . S
C44 O57 1.058 . S
O45 C44 1.229 . S
O46 Zn40 1.969 . S
O46 C49 1.267 . S
O47 Zn40 1.965 . S
O47 C58 1.260 . S
O48 Zn41 1.969 . S
O48 C58 1.258 . S
C49 O46 1.267 . S
C49 O50 1.228 . S
O50 C49 1.228 . S
O51 Zn40 2.024 . S
O51 C42 1.058 . S
C52 O53 1.228 . S
C52 O54 1.267 . S
O53 C52 1.228 . S
O54 Zn41 1.969 . S
O54 C52 1.267 . S
O55 Zn41 1.965 . S
O55 C59 1.260 . S
O56 Zn40 1.969 . S
O56 C59 1.258 . S
O57 Zn41 2.024 . S
O57 C44 1.058 . S
C58 O47 1.260 . S
C58 O48 1.258 . S
C59 O55 1.260 . S
C59 O56 1.258 . S
H60 C63 0.929 1_565 S
H61 C66 0.929 . S
H62 C68 0.930 . S
C63 H60 0.929 1_545 S
C63 C64 1.398 . S
C63 C65 1.396 . S
C64 C63 1.398 . S
C64 C68 1.407 . S
C65 C63 1.396 . S
C65 C66 1.394 . S
C66 H61 0.929 . S
C66 C65 1.394 . S
C66 C67 1.382 . S
C67 C66 1.382 . S
C67 C68 1.392 . S
C67 N69 1.420 . S
C68 H62 0.930 . S
C68 C64 1.407 . S
C68 C67 1.392 . S
N69 C67 1.420 . S
N69 C70 1.244 . S
C70 N69 1.244 . S
H71 C74 0.929 . S
H72 C77 0.929 . S
H73 C79 0.930 . S
C74 H71 0.929 . S
C74 C75 1.398 . S
C74 C76 1.396 . S
C75 C74 1.398 . S
C75 C79 1.407 . S
C76 C74 1.396 . S
C76 C77 1.394 . S
C77 H72 0.929 . S
C77 C76 1.394 . S
C77 C78 1.382 . S
C78 C77 1.382 . S
C78 C79 1.392 . S
C78 N80 1.420 . S
C79 H73 0.930 . S
C79 C75 1.407 . S
C79 C78 1.392 . S
N80 C78 1.420 . S
N80 C81 1.244 . S
C81 N80 1.244 . S
H82 C85 0.929 1_655 S
H83 C88 0.929 . S
H84 C90 0.930 . S
C85 H82 0.929 1_455 S
C85 C86 1.398 . S
C85 C87 1.396 . S
C86 C85 1.398 . S
C86 C90 1.407 . S
C87 C85 1.396 . S
C87 C88 1.394 . S
C88 H83 0.929 . S
C88 C87 1.394 . S
C88 C89 1.382 . S
C89 C88 1.382 . S
C89 C90 1.392 . S
C89 N91 1.420 . S
C90 H84 0.930 . S
C90 C86 1.407 . S
C90 C89 1.392 . S
N91 C89 1.420 . S
N91 C92 1.244 . S
C92 N91 1.244 . S
H93 C96 0.929 . S
H94 C99 0.929 1_655 S
H95 C101 0.930 . S
C96 H93 0.929 . S
C96 C97 1.398 . S
C96 C98 1.396 . S
C97 C96 1.398 . S
C97 C101 1.407 . S
C98 C96 1.396 . S
C98 C99 1.394 . S
C99 H94 0.929 1_455 S
C99 C98 1.394 . S
C99 C100 1.382 . S
C100 C99 1.382 . S
C100 C101 1.392 . S
C100 N102 1.420 1_455 S
C101 H95 0.930 . S
C101 C97 1.407 . S
C101 C100 1.392 . S
N102 C100 1.420 1_655 S
N102 C103 1.244 . S
C103 N102 1.244 . S
H104 C107 0.929 . S
H105 C110 0.929 1_565 S
H106 C112 0.930 . S
C107 H104 0.929 . S
C107 C108 1.398 . S
C107 C109 1.396 . S
C108 C107 1.398 . S
C108 C112 1.407 . S
C109 C107 1.396 . S
C109 C110 1.394 . S
C110 H105 0.929 1_545 S
C110 C109 1.394 . S
C110 C111 1.382 . S
C111 C110 1.382 . S
C111 C112 1.392 . S
C111 N113 1.420 . S
C112 H106 0.930 . S
C112 C108 1.407 . S
C112 C111 1.392 . S
N113 C111 1.420 . S
N113 C114 1.244 1_545 S
C114 N113 1.244 1_565 S
H115 C118 0.929 . S
H116 C121 0.929 . S
H117 C123 0.930 . S
C118 H115 0.929 . S
C118 C119 1.398 . S
C118 C120 1.396 . S
C119 C118 1.398 . S
C119 C123 1.407 . S
C120 C118 1.396 . S
C120 C121 1.394 . S
C121 H116 0.929 . S
C121 C120 1.394 . S
C121 C122 1.382 . S
C122 C121 1.382 . S
C122 C123 1.392 . S
C122 N124 1.420 . S
C123 H117 0.930 . S
C123 C119 1.407 . S
C123 C122 1.392 . S
N124 C122 1.420 . S
N124 C125 1.244 . S
C125 N124 1.244 . S
C126 C127 1.386 . S
C126 C128 1.383 . S
C126 H142 0.951 . S
C127 C126 1.386 . S
C127 C131 1.383 . S
C128 C126 1.383 . S
C128 C129 1.402 . S
C128 H143 0.951 . S
C129 C128 1.402 . S
C129 C130 1.375 . S
C129 C132 1.481 . S
C130 C129 1.375 . S
C130 C131 1.367 . S
C130 H144 0.951 . S
C131 C127 1.383 . S
C131 C130 1.367 . S
C131 H145 0.950 . S
C132 C129 1.481 . S
C132 C133 1.297 . S
C132 H146 0.950 . S
C133 C132 1.297 . S
C133 C134 1.479 . S
C133 H147 0.950 . S
C134 C133 1.479 . S
C134 C135 1.375 . S
C134 C140 1.404 . S
C135 C134 1.375 . S
C135 C136 1.369 . S
C135 H148 0.950 . S
C136 C135 1.369 . S
C136 C137 1.392 . S
C136 H149 0.951 . S
C137 C136 1.392 . S
C137 C139 1.384 . S
H138 C140 0.949 . S
C139 C137 1.384 . S
C139 C140 1.385 . S
C139 H141 0.950 . S
C140 C134 1.404 . S
C140 H138 0.949 . S
C140 C139 1.385 . S
H141 C139 0.950 . S
H142 C126 0.951 . S
H143 C128 0.951 . S
H144 C130 0.951 . S
H145 C131 0.950 . S
H146 C132 0.950 . S
H147 C133 0.950 . S
H148 C135 0.950 . S
H149 C136 0.951 . S
C150 C151 1.386 . S
C150 C152 1.383 . S
C150 H166 0.951 . S
C151 C150 1.386 . S
C151 C155 1.383 . S
C152 C150 1.383 . S
C152 C153 1.402 . S
C152 H167 0.951 . S
C153 C152 1.402 . S
C153 C154 1.375 . S
C153 C156 1.481 . S
C154 C153 1.375 . S
C154 C155 1.367 . S
C154 H168 0.951 . S
C155 C151 1.383 . S
C155 C154 1.367 . S
C155 H169 0.950 . S
C156 C153 1.481 . S
C156 C157 1.297 . S
C156 H170 0.950 . S
C157 C156 1.297 . S
C157 C158 1.479 . S
C157 H171 0.950 . S
C158 C157 1.479 . S
C158 C159 1.375 . S
C158 C164 1.404 . S
C159 C158 1.375 . S
C159 C160 1.369 . S
C159 H172 0.950 . S
C160 C159 1.369 . S
C160 C161 1.392 . S
C160 H173 0.951 . S
C161 C160 1.392 . S
C161 C163 1.384 . S
H162 C164 0.949 . S
C163 C161 1.384 . S
C163 C164 1.385 . S
C163 H165 0.950 . S
C164 C158 1.404 . S
C164 H162 0.949 . S
C164 C163 1.385 . S
H165 C163 0.950 . S
H166 C150 0.951 . S
H167 C152 0.951 . S
H168 C154 0.951 . S
H169 C155 0.950 . S
H170 C156 0.950 . S
H171 C157 0.950 . S
H172 C159 0.950 . S
H173 C160 0.951 . S
C174 C175 1.386 . S
C174 C176 1.383 . S
C174 H190 0.951 . S
C175 C174 1.386 . S
C175 C179 1.383 . S
C176 C174 1.383 . S
C176 C177 1.402 . S
C176 H191 0.951 . S
C177 C176 1.402 . S
C177 C178 1.375 . S
C177 C180 1.481 . S
C178 C177 1.375 . S
C178 C179 1.367 . S
C178 H192 0.951 . S
C179 C175 1.383 . S
C179 C178 1.367 . S
C179 H193 0.950 . S
C180 C177 1.481 . S
C180 C181 1.297 . S
C180 H194 0.950 . S
C181 C180 1.297 . S
C181 C182 1.479 . S
C181 H195 0.950 . S
C182 C181 1.479 . S
C182 C183 1.375 . S
C182 C188 1.404 . S
C183 C182 1.375 . S
C183 C184 1.369 . S
C183 H196 0.950 . S
C184 C183 1.369 . S
C184 C185 1.392 . S
C184 H197 0.951 . S
C185 C184 1.392 . S
C185 C187 1.384 . S
H186 C188 0.949 . S
C187 C185 1.384 . S
C187 C188 1.385 . S
C187 H189 0.950 . S
C188 C182 1.404 . S
C188 H186 0.949 . S
C188 C187 1.385 . S
H189 C187 0.950 . S
H190 C174 0.951 . S
H191 C176 0.951 . S
H192 C178 0.951 . S
H193 C179 0.950 . S
H194 C180 0.950 . S
H195 C181 0.950 . S
H196 C183 0.950 . S
H197 C184 0.951 . S
C198 C199 1.386 . S
C198 C200 1.383 . S
C198 H214 0.951 . S
C199 C198 1.386 . S
C199 C203 1.383 . S
C200 C198 1.383 . S
C200 C201 1.402 . S
C200 H215 0.951 . S
C201 C200 1.402 . S
C201 C202 1.375 . S
C201 C204 1.481 . S
C202 C201 1.375 . S
C202 C203 1.367 . S
C202 H216 0.951 . S
C203 C199 1.383 . S
C203 C202 1.367 . S
C203 H217 0.950 . S
C204 C201 1.481 . S
C204 C205 1.297 . S
C204 H218 0.950 . S
C205 C204 1.297 . S
C205 C206 1.479 . S
C205 H219 0.950 . S
C206 C205 1.479 . S
C206 C207 1.375 . S
C206 C212 1.404 . S
C207 C206 1.375 . S
C207 C208 1.369 . S
C207 H220 0.950 . S
C208 C207 1.369 . S
C208 C209 1.392 . S
C208 H221 0.951 . S
C209 C208 1.392 . S
C209 C211 1.384 . S
H210 C212 0.949 . S
C211 C209 1.384 . S
C211 C212 1.385 . S
C211 H213 0.950 . S
C212 C206 1.404 . S
C212 H210 0.949 . S
C212 C211 1.385 . S
H213 C211 0.950 . S
H214 C198 0.951 . S
H215 C200 0.951 . S
H216 C202 0.951 . S
H217 C203 0.950 . S
H218 C204 0.950 . S
H219 C205 0.950 . S
H220 C207 0.950 . S
H221 C208 0.951 . S
C222 C223 1.386 . S
C222 C224 1.383 . S
C222 H238 0.951 . S
C223 C222 1.386 . S
C223 C227 1.383 . S
C224 C222 1.383 . S
C224 C225 1.402 . S
C224 H239 0.951 . S
C225 C224 1.402 . S
C225 C226 1.375 . S
C225 C228 1.481 . S
C226 C225 1.375 . S
C226 C227 1.367 . S
C226 H240 0.951 . S
C227 C223 1.383 . S
C227 C226 1.367 . S
C227 H241 0.950 . S
C228 C225 1.481 . S
C228 C229 1.297 . S
C228 H242 0.950 . S
C229 C228 1.297 . S
C229 C230 1.479 . S
C229 H243 0.950 . S
C230 C229 1.479 . S
C230 C231 1.375 . S
C230 C236 1.404 . S
C231 C230 1.375 . S
C231 C232 1.369 . S
C231 H244 0.950 . S
C232 C231 1.369 . S
C232 C233 1.392 . S
C232 H245 0.951 . S
C233 C232 1.392 . S
C233 C235 1.384 . S
H234 C236 0.949 . S
C235 C233 1.384 . S
C235 C236 1.385 . S
C235 H237 0.950 . S
C236 C230 1.404 . S
C236 H234 0.949 . S
C236 C235 1.385 . S
H237 C235 0.950 . S
H238 C222 0.951 . S
H239 C224 0.951 . S
H240 C226 0.951 . S
H241 C227 0.950 . S
H242 C228 0.950 . S
H243 C229 0.950 . S
H244 C231 0.950 . S
H245 C232 0.951 . S
C246 C247 1.386 . S
C246 C248 1.383 . S
C246 H262 0.951 . S
C247 C246 1.386 . S
C247 C251 1.383 . S
C248 C246 1.383 . S
C248 C249 1.402 . S
C248 H263 0.951 . S
C249 C248 1.402 . S
C249 C250 1.375 . S
C249 C252 1.481 . S
C250 C249 1.375 . S
C250 C251 1.367 . S
C250 H264 0.951 . S
C251 C247 1.383 . S
C251 C250 1.367 . S
C251 H265 0.950 . S
C252 C249 1.481 . S
C252 C253 1.297 . S
C252 H266 0.950 . S
C253 C252 1.297 . S
C253 C254 1.479 . S
C253 H267 0.950 . S
C254 C253 1.479 . S
C254 C255 1.375 . S
C254 C260 1.404 . S
C255 C254 1.375 . S
C255 C256 1.369 . S
C255 H268 0.950 . S
C256 C255 1.369 . S
C256 C257 1.392 . S
C256 H269 0.951 . S
C257 C256 1.392 . S
C257 C259 1.384 . S
H258 C260 0.949 . S
C259 C257 1.384 . S
C259 C260 1.385 . S
C259 H261 0.950 . S
C260 C254 1.404 . S
C260 H258 0.949 . S
C260 C259 1.385 . S
H261 C259 0.950 . S
H262 C246 0.951 . S
H263 C248 0.951 . S
H264 C250 0.951 . S
H265 C251 0.950 . S
H266 C252 0.950 . S
H267 C253 0.950 . S
H268 C255 0.950 . S
H269 C256 0.951 . S
C270 C271 1.386 . S
C270 C272 1.383 . S
C270 H286 0.951 . S
C271 C270 1.386 . S
C271 C275 1.383 . S
C272 C270 1.383 . S
C272 C273 1.402 . S
C272 H287 0.951 . S
C273 C272 1.402 . S
C273 C274 1.375 . S
C273 C276 1.481 . S
C274 C273 1.375 . S
C274 C275 1.367 . S
C274 H288 0.951 . S
C275 C271 1.383 . S
C275 C274 1.367 . S
C275 H289 0.950 . S
C276 C273 1.481 . S
C276 C277 1.297 . S
C276 H290 0.950 . S
C277 C276 1.297 . S
C277 C278 1.479 . S
C277 H291 0.950 . S
C278 C277 1.479 . S
C278 C279 1.375 . S
C278 C284 1.404 . S
C279 C278 1.375 . S
C279 C280 1.369 . S
C279 H292 0.950 . S
C280 C279 1.369 . S
C280 C281 1.392 . S
C280 H293 0.951 . S
C281 C280 1.392 . S
C281 C283 1.384 . S
H282 C284 0.949 . S
C283 C281 1.384 . S
C283 C284 1.385 . S
C283 H285 0.950 . S
C284 C278 1.404 . S
C284 H282 0.949 . S
C284 C283 1.385 . S
H285 C283 0.950 . S
H286 C270 0.951 . S
H287 C272 0.951 . S
H288 C274 0.951 . S
H289 C275 0.950 . S
H290 C276 0.950 . S
H291 C277 0.950 . S
H292 C279 0.950 . S
H293 C280 0.951 . S
C294 C295 1.386 . S
C294 C296 1.383 . S
C294 H310 0.951 . S
C295 C294 1.386 . S
C295 C299 1.383 . S
C296 C294 1.383 . S
C296 C297 1.402 . S
C296 H311 0.951 . S
C297 C296 1.402 . S
C297 C298 1.375 . S
C297 C300 1.481 . S
C298 C297 1.375 . S
C298 C299 1.367 . S
C298 H312 0.951 . S
C299 C295 1.383 . S
C299 C298 1.367 . S
C299 H313 0.950 . S
C300 C297 1.481 . S
C300 C301 1.297 . S
C300 H314 0.950 . S
C301 C300 1.297 . S
C301 C302 1.479 . S
C301 H315 0.950 . S
C302 C301 1.479 . S
C302 C303 1.375 . S
C302 C308 1.404 . S
C303 C302 1.375 . S
C303 C304 1.369 . S
C303 H316 0.950 . S
C304 C303 1.369 . S
C304 C305 1.392 . S
C304 H317 0.951 1_655 S
C305 C304 1.392 . S
C305 C307 1.384 . S
H306 C308 0.949 . S
C307 C305 1.384 . S
C307 C308 1.385 . S
C307 H309 0.950 . S
C308 C302 1.404 . S
C308 H306 0.949 . S
C308 C307 1.385 . S
H309 C307 0.950 . S
H310 C294 0.951 . S
H311 C296 0.951 . S
H312 C298 0.951 . S
H313 C299 0.950 . S
H314 C300 0.950 . S
H315 C301 0.950 . S
H316 C303 0.950 . S
H317 C304 0.951 1_455 S
C318 C319 1.386 . S
C318 C320 1.383 . S
C318 H334 0.951 . S
C319 C318 1.386 . S
C319 C323 1.383 . S
C320 C318 1.383 . S
C320 C321 1.402 . S
C320 H335 0.951 . S
C321 C320 1.402 . S
C321 C322 1.375 . S
C321 C324 1.481 . S
C322 C321 1.375 . S
C322 C323 1.367 . S
C322 H336 0.951 . S
C323 C319 1.383 . S
C323 C322 1.367 . S
C323 H337 0.950 . S
C324 C321 1.481 . S
C324 C325 1.297 . S
C324 H338 0.950 . S
C325 C324 1.297 . S
C325 C326 1.479 . S
C325 H339 0.950 . S
C326 C325 1.479 . S
C326 C327 1.375 . S
C326 C332 1.404 . S
C327 C326 1.375 . S
C327 C328 1.369 . S
C327 H340 0.950 . S
C328 C327 1.369 . S
C328 C329 1.392 . S
C328 H341 0.951 . S
C329 C328 1.392 . S
C329 C331 1.384 . S
H330 C332 0.949 . S
C331 C329 1.384 . S
C331 C332 1.385 . S
C331 H333 0.950 . S
C332 C326 1.404 . S
C332 H330 0.949 . S
C332 C331 1.385 . S
H333 C331 0.950 . S
H334 C318 0.951 . S
H335 C320 0.951 . S
H336 C322 0.951 . S
H337 C323 0.950 . S
H338 C324 0.950 . S
H339 C325 0.950 . S
H340 C327 0.950 . S
H341 C328 0.951 . S
C342 C343 1.386 . S
C342 C344 1.383 . S
C342 H358 0.951 . S
C343 C342 1.386 . S
C343 C347 1.383 . S
C344 C342 1.383 . S
C344 C345 1.402 . S
C344 H359 0.951 . S
C345 C344 1.402 . S
C345 C346 1.375 . S
C345 C348 1.481 . S
C346 C345 1.375 . S
C346 C347 1.367 . S
C346 H360 0.951 . S
C347 C343 1.383 . S
C347 C346 1.367 . S
C347 H361 0.950 . S
C348 C345 1.481 . S
C348 C349 1.297 . S
C348 H362 0.950 . S
C349 C348 1.297 . S
C349 C350 1.479 . S
C349 H363 0.950 . S
C350 C349 1.479 . S
C350 C351 1.375 . S
C350 C356 1.404 . S
C351 C350 1.375 . S
C351 C352 1.369 . S
C351 H364 0.950 . S
C352 C351 1.369 . S
C352 C353 1.392 . S
C352 H365 0.951 . S
C353 C352 1.392 . S
C353 C355 1.384 . S
H354 C356 0.949 . S
C355 C353 1.384 . S
C355 C356 1.385 . S
C355 H357 0.950 . S
C356 C350 1.404 . S
C356 H354 0.949 . S
C356 C355 1.385 . S
H357 C355 0.950 . S
H358 C342 0.951 . S
H359 C344 0.951 . S
H360 C346 0.951 . S
H361 C347 0.950 . S
H362 C348 0.950 . S
H363 C349 0.950 . S
H364 C351 0.950 . S
H365 C352 0.951 . S
C366 C367 1.386 . S
C366 C368 1.383 . S
C366 H382 0.951 . S
C367 C366 1.386 . S
C367 C371 1.383 . S
C368 C366 1.383 . S
C368 C369 1.402 . S
C368 H383 0.951 . S
C369 C368 1.402 . S
C369 C370 1.375 . S
C369 C372 1.481 . S
C370 C369 1.375 . S
C370 C371 1.367 . S
C370 H384 0.951 . S
C371 C367 1.383 . S
C371 C370 1.367 . S
C371 H385 0.950 . S
C372 C369 1.481 . S
C372 C373 1.297 . S
C372 H386 0.950 . S
C373 C372 1.297 . S
C373 C374 1.479 . S
C373 H387 0.950 . S
C374 C373 1.479 . S
C374 C375 1.375 . S
C374 C380 1.404 . S
C375 C374 1.375 . S
C375 C376 1.369 . S
C375 H388 0.950 . S
C376 C375 1.369 . S
C376 C377 1.392 . S
C376 H389 0.951 . S
C377 C376 1.392 . S
C377 C379 1.384 . S
H378 C380 0.949 . S
C379 C377 1.384 . S
C379 C380 1.385 . S
C379 H381 0.950 . S
C380 C374 1.404 . S
C380 H378 0.949 . S
C380 C379 1.385 . S
H381 C379 0.950 . S
H382 C366 0.951 . S
H383 C368 0.951 . S
H384 C370 0.951 . S
H385 C371 0.950 . S
H386 C372 0.950 . S
H387 C373 0.950 . S
H388 C375 0.950 . S
H389 C376 0.951 . S
C390 C391 1.386 . S
C390 C392 1.383 . S
C390 H406 0.951 . S
C391 C390 1.386 . S
C391 C395 1.383 . S
C392 C390 1.383 . S
C392 C393 1.402 . S
C392 H407 0.951 . S
C393 C392 1.402 . S
C393 C394 1.375 . S
C393 C396 1.481 . S
C394 C393 1.375 . S
C394 C395 1.367 . S
C394 H408 0.951 . S
C395 C391 1.383 . S
C395 C394 1.367 . S
C395 H409 0.950 . S
C396 C393 1.481 . S
C396 C397 1.297 . S
C396 H410 0.950 . S
C397 C396 1.297 . S
C397 C398 1.479 . S
C397 H411 0.950 . S
C398 C397 1.479 . S
C398 C399 1.375 . S
C398 C404 1.404 . S
C399 C398 1.375 . S
C399 C400 1.369 . S
C399 H412 0.950 . S
C400 C399 1.369 . S
C400 C401 1.392 . S
C400 H413 0.951 . S
C401 C400 1.392 . S
C401 C403 1.384 . S
H402 C404 0.949 . S
C403 C401 1.384 . S
C403 C404 1.385 . S
C403 H405 0.950 . S
C404 C398 1.404 . S
C404 H402 0.949 . S
C404 C403 1.385 . S
H405 C403 0.950 . S
H406 C390 0.951 . S
H407 C392 0.951 . S
H408 C394 0.951 . S
H409 C395 0.950 . S
H410 C396 0.950 . S
H411 C397 0.950 . S
H412 C399 0.950 . S
H413 C400 0.951 . S
C414 C415 1.386 1_655 S
C414 C416 1.382 1_655 S
C414 H430 0.951 . S
C415 C414 1.386 1_455 S
C415 C419 1.383 . S
C416 C414 1.382 1_455 S
C416 C417 1.405 . S
C416 H431 0.949 1_455 S
C417 C416 1.405 . S
C417 C418 1.375 . S
C417 C420 1.481 . S
C418 C417 1.375 . S
C418 C419 1.367 . S
C418 H432 0.951 . S
C419 C415 1.383 . S
C419 C418 1.367 . S
C419 H433 0.950 . S
C420 C417 1.481 . S
C420 C421 1.297 . S
C420 H434 0.950 . S
C421 C420 1.297 . S
C421 C422 1.479 1_554 S
C421 H435 0.950 1_455 S
C422 C421 1.479 1_556 S
C422 C423 1.375 . S
C422 C428 1.404 . S
C423 C422 1.375 . S
C423 C424 1.367 . S
C423 H436 0.952 1_455 S
C424 C423 1.367 . S
C424 C425 1.392 . S
C424 H437 0.951 1_455 S
C425 C424 1.392 . S
C425 C427 1.384 . S
H426 C428 0.949 . S
C427 C425 1.384 . S
C427 C428 1.385 . S
C427 H429 0.950 . S
C428 C422 1.404 . S
C428 H426 0.949 . S
C428 C427 1.385 . S
H429 C427 0.950 . S
H430 C414 0.951 . S
H431 C416 0.949 1_655 S
H432 C418 0.951 . S
H433 C419 0.950 . S
H434 C420 0.950 . S
H435 C421 0.950 1_655 S
H436 C423 0.952 1_655 S
H437 C424 0.951 1_655 S
C438 C439 1.386 . S
C438 C440 1.383 . S
C438 H454 0.951 . S
C439 C438 1.386 . S
C439 C443 1.383 . S
C440 C438 1.383 . S
C440 C441 1.402 . S
C440 H455 0.951 . S
C441 C440 1.402 . S
C441 C442 1.375 . S
C441 C444 1.481 . S
C442 C441 1.375 . S
C442 C443 1.367 . S
C442 H456 0.951 . S
C443 C439 1.383 . S
C443 C442 1.367 . S
C443 H457 0.950 . S
C444 C441 1.481 . S
C444 C445 1.297 . S
C444 H458 0.950 . S
C445 C444 1.297 . S
C445 C446 1.479 . S
C445 H459 0.950 . S
C446 C445 1.479 . S
C446 C447 1.375 . S
C446 C452 1.404 . S
C447 C446 1.375 . S
C447 C448 1.369 . S
C447 H460 0.950 . S
C448 C447 1.369 . S
C448 C449 1.392 . S
C448 H461 0.951 . S
C449 C448 1.392 . S
C449 C451 1.384 . S
H450 C452 0.949 . S
C451 C449 1.384 . S
C451 C452 1.385 . S
C451 H453 0.950 . S
C452 C446 1.404 . S
C452 H450 0.949 . S
C452 C451 1.385 . S
H453 C451 0.950 . S
H454 C438 0.951 . S
H455 C440 0.951 . S
H456 C442 0.951 . S
H457 C443 0.950 . S
H458 C444 0.950 . S
H459 C445 0.950 . S
H460 C447 0.950 . S
H461 C448 0.951 . S
C462 C463 1.386 . S
C462 C464 1.383 . S
C462 H478 0.951 . S
C463 C462 1.386 . S
C463 C467 1.383 . S
C464 C462 1.383 . S
C464 C465 1.402 . S
C464 H479 0.951 . S
C465 C464 1.402 . S
C465 C466 1.375 . S
C465 C468 1.481 . S
C466 C465 1.375 . S
C466 C467 1.367 . S
C466 H480 0.951 . S
C467 C463 1.383 . S
C467 C466 1.367 . S
C467 H481 0.950 . S
C468 C465 1.481 . S
C468 C469 1.297 . S
C468 H482 0.950 . S
C469 C468 1.297 . S
C469 C470 1.479 . S
C469 H483 0.950 . S
C470 C469 1.479 . S
C470 C471 1.375 . S
C470 C476 1.404 . S
C471 C470 1.375 . S
C471 C472 1.369 . S
C471 H484 0.950 . S
C472 C471 1.369 . S
C472 C473 1.392 . S
C472 H485 0.951 . S
C473 C472 1.392 . S
C473 C475 1.384 . S
H474 C476 0.949 . S
C475 C473 1.384 . S
C475 C476 1.385 . S
C475 H477 0.950 . S
C476 C470 1.404 . S
C476 H474 0.949 . S
C476 C475 1.385 . S
H477 C475 0.950 . S
H478 C462 0.951 . S
H479 C464 0.951 . S
H480 C466 0.951 . S
H481 C467 0.950 . S
H482 C468 0.950 . S
H483 C469 0.950 . S
H484 C471 0.950 . S
H485 C472 0.951 . S
C486 C487 1.386 . S
C486 C488 1.383 . S
C486 H502 0.951 1_545 S
C487 C486 1.386 . S
C487 C491 1.383 . S
C488 C486 1.383 . S
C488 C489 1.402 . S
C488 H503 0.951 . S
C489 C488 1.402 . S
C489 C490 1.375 . S
C489 C492 1.481 . S
C490 C489 1.375 . S
C490 C491 1.367 . S
C490 H504 0.951 . S
C491 C487 1.383 . S
C491 C490 1.367 . S
C491 H505 0.950 . S
C492 C489 1.481 . S
C492 C493 1.297 . S
C492 H506 0.950 . S
C493 C492 1.297 . S
C493 C494 1.479 . S
C493 H507 0.950 . S
C494 C493 1.479 . S
C494 C495 1.375 . S
C494 C500 1.404 . S
C495 C494 1.375 . S
C495 C496 1.369 . S
C495 H508 0.947 1_545 S
C496 C495 1.369 . S
C496 C497 1.392 . S
C496 H509 0.951 1_545 S
C497 C496 1.392 . S
C497 C499 1.384 . S
H498 C500 0.949 . S
C499 C497 1.384 . S
C499 C500 1.385 . S
C499 H501 0.950 . S
C500 C494 1.404 . S
C500 H498 0.949 . S
C500 C499 1.385 . S
H501 C499 0.950 . S
H502 C486 0.951 1_565 S
H503 C488 0.951 . S
H504 C490 0.951 . S
H505 C491 0.950 . S
H506 C492 0.950 . S
H507 C493 0.950 . S
H508 C495 0.947 1_565 S
H509 C496 0.951 1_565 S
C510 C511 1.386 . S
C510 C512 1.383 . S
C510 H526 0.951 . S
C511 C510 1.386 . S
C511 C515 1.383 . S
C512 C510 1.383 . S
C512 C513 1.402 . S
C512 H527 0.951 . S
C513 C512 1.402 . S
C513 C514 1.375 . S
C513 C516 1.481 . S
C514 C513 1.375 . S
C514 C515 1.367 . S
C514 H528 0.951 . S
C515 C511 1.383 . S
C515 C514 1.367 . S
C515 H529 0.950 . S
C516 C513 1.481 . S
C516 C517 1.297 . S
C516 H530 0.950 . S
C517 C516 1.297 . S
C517 C518 1.479 1_556 S
C517 H531 0.950 . S
C518 C517 1.479 1_554 S
C518 C519 1.375 . S
C518 C524 1.404 . S
C519 C518 1.375 . S
C519 C520 1.369 . S
C519 H532 0.950 . S
C520 C519 1.369 . S
C520 C521 1.392 . S
C520 H533 0.951 . S
C521 C520 1.392 . S
C521 C523 1.384 . S
H522 C524 0.949 . S
C523 C521 1.384 . S
C523 C524 1.385 . S
C523 H525 0.950 . S
C524 C518 1.404 . S
C524 H522 0.949 . S
C524 C523 1.385 . S
H525 C523 0.950 . S
H526 C510 0.951 . S
H527 C512 0.951 . S
H528 C514 0.951 . S
H529 C515 0.950 . S
H530 C516 0.950 . S
H531 C517 0.950 . S
H532 C519 0.950 . S
H533 C520 0.951 . S
C534 C535 1.386 . S
C534 C536 1.383 . S
C534 H550 0.951 . S
C535 C534 1.386 . S
C535 C539 1.392 . S
C536 C534 1.383 . S
C536 C537 1.402 . S
C536 H551 0.951 . S
C537 C536 1.402 . S
C537 C538 1.375 . S
C537 C540 1.481 . S
C538 C537 1.375 . S
C538 C539 1.366 . S
C538 H552 0.951 1_455 S
C539 C535 1.392 . S
C539 C538 1.366 . S
C539 H553 0.941 1_455 S
C540 C537 1.481 . S
C540 C541 1.297 . S
C540 H554 0.950 . S
C541 C540 1.297 . S
C541 C542 1.479 . S
C541 H555 0.950 . S
C542 C541 1.479 . S
C542 C543 1.375 . S
C542 C548 1.404 . S
C543 C542 1.375 . S
C543 C544 1.369 . S
C543 H556 0.950 . S
C544 C543 1.369 . S
C544 C545 1.392 . S
C544 H557 0.951 . S
C545 C544 1.392 . S
C545 C547 1.384 . S
H546 C548 0.949 . S
C547 C545 1.384 . S
C547 C548 1.385 . S
C547 H549 0.950 . S
C548 C542 1.404 . S
C548 H546 0.949 . S
C548 C547 1.385 . S
H549 C547 0.950 . S
H550 C534 0.951 . S
H551 C536 0.951 . S
H552 C538 0.951 1_655 S
H553 C539 0.941 1_655 S
H554 C540 0.950 . S
H555 C541 0.950 . S
H556 C543 0.950 . S
H557 C544 0.951 . S
C127 C2 1.414 . S
C137 C125 1.442 . S
C151 C22 1.426 . S
C161 C103 1.491 . S
C175 C44 1.406 . S
C185 C114 1.456 . S
C199 C4 1.433 . S
C209 C119 1.516 . S
C233 C97 1.450 . S
C223 C24 1.393 . S
C257 C108 1.416 . S
C247 C42 1.352 . S
C271 C32 1.420 . S
C281 C81 1.421 . S
C295 C49 1.114 . S
C305 C86 1.101 1_655 S
C319 C9 1.136 . S
C329 C64 1.134 1_565 S
C353 C75 1.180 . S
C343 C29 1.151 . S
C377 C92 1.337 . S
C367 C52 1.306 . S
C391 C12 1.328 . S
C401 C70 1.346 . S
C425 C87 1.467 . S
C415 C18 1.500 . S
C439 C38 1.479 . S
C449 C65 1.477 . S
C463 C58 1.470 . S
C473 C76 1.465 . S
C497 C109 1.501 . S
C487 C39 1.488 . S
C521 C120 1.527 . S
C511 C59 1.499 . S
C535 C19 1.523 . S
C545 C98 1.503 . S
