# Generated by pormake.
# Topology anh, (6,3)-cn, num edge types: 1
# Building blocks:
#     Node 0, Type 0, BuildingBlock: HISSIN_clean_sbu_0, # of connection points: 6
#     Node 1, Type 0, BuildingBlock: HISSIN_clean_sbu_0, # of connection points: 6
#     Node 2, Type 0, BuildingBlock: HISSIN_clean_sbu_0, # of connection points: 6
#     Node 3, Type 1, BuildingBlock: VETTIZ_charged_linker_0, # of connection points: 3
#     Node 4, Type 1, BuildingBlock: VETTIZ_charged_linker_0, # of connection points: 3
#     Node 5, Type 1, BuildingBlock: VETTIZ_charged_linker_0, # of connection points: 3
#     Node 6, Type 1, BuildingBlock: VETTIZ_charged_linker_0, # of connection points: 3
#     Node 7, Type 1, BuildingBlock: VETTIZ_charged_linker_0, # of connection points: 3
#     Node 8, Type 1, BuildingBlock: VETTIZ_charged_linker_0, # of connection points: 3
#     Edge 9, Type (0, 1), BuildingBlock: ZUJKAS_clean_linker_0, # of connection points: 2
#     Edge 10, Type (0, 1), BuildingBlock: ZUJKAS_clean_linker_0, # of connection points: 2
#     Edge 11, Type (0, 1), BuildingBlock: ZUJKAS_clean_linker_0, # of connection points: 2
#     Edge 12, Type (0, 1), BuildingBlock: ZUJKAS_clean_linker_0, # of connection points: 2
#     Edge 13, Type (0, 1), BuildingBlock: ZUJKAS_clean_linker_0, # of connection points: 2
#     Edge 14, Type (0, 1), BuildingBlock: ZUJKAS_clean_linker_0, # of connection points: 2
#     Edge 15, Type (0, 1), BuildingBlock: ZUJKAS_clean_linker_0, # of connection points: 2
#     Edge 16, Type (0, 1), BuildingBlock: ZUJKAS_clean_linker_0, # of connection points: 2
#     Edge 17, Type (0, 1), BuildingBlock: ZUJKAS_clean_linker_0, # of connection points: 2
#     Edge 18, Type (0, 1), BuildingBlock: ZUJKAS_clean_linker_0, # of connection points: 2
#     Edge 19, Type (0, 1), BuildingBlock: ZUJKAS_clean_linker_0, # of connection points: 2
#     Edge 20, Type (0, 1), BuildingBlock: ZUJKAS_clean_linker_0, # of connection points: 2
#     Edge 21, Type (0, 1), BuildingBlock: ZUJKAS_clean_linker_0, # of connection points: 2
#     Edge 22, Type (0, 1), BuildingBlock: ZUJKAS_clean_linker_0, # of connection points: 2
#     Edge 23, Type (0, 1), BuildingBlock: ZUJKAS_clean_linker_0, # of connection points: 2
#     Edge 24, Type (0, 1), BuildingBlock: ZUJKAS_clean_linker_0, # of connection points: 2
#     Edge 25, Type (0, 1), BuildingBlock: ZUJKAS_clean_linker_0, # of connection points: 2
#     Edge 26, Type (0, 1), BuildingBlock: ZUJKAS_clean_linker_0, # of connection points: 2
# Relax obj value: 0.205
# Max RMSD: 0.185
# Mean RMSD: 0.152
data_MOF--net-anh--node1-HISSIN_clean_sbu_0--node2-VETTIZ_charged_linker_0--edge1-ZUJKAS_clean_linker_0
_symmetry_space_group_name_H-M    P1
_symmetry_Int_Tables_number       1
_symmetry_cell_setting            triclinic
loop_
_symmetry_equiv_pos_as_xyz
'x, y, z'
_cell_length_a     44.456582
_cell_length_b     44.494862
_cell_length_c     82.567415
_cell_angle_alpha  92.4197
_cell_angle_beta   90.634417
_cell_angle_gamma 119.97158
loop_
_atom_site_label
_atom_site_type_symbol
_atom_site_fract_x
_atom_site_fract_y
_atom_site_fract_z
_atom_type_partial_charge
Eu0 Eu 1.07009 0.51833 0.16452 0.0
Eu1 Eu 0.11251 0.60256 0.16829 0.0
C2 C 0.08542 0.55802 0.19992 0.0
C3 C 0.99098 0.43433 0.16529 0.0
C4 C 0.98018 0.44928 0.17756 0.0
C5 C 0.93064 0.39572 0.15677 0.0
C6 C 0.94507 0.43793 0.1793 0.0
C7 C 0.96598 0.40716 0.15503 0.0
C8 C 0.91993 0.41144 0.16876 0.0
C9 C 1.02785 0.45183 0.16137 0.0
O10 O 0.15366 0.58746 0.16308 0.0
O11 O 0.12545 0.53055 0.17 0.0
C12 C 0.15422 0.55907 0.16659 0.0
O13 O 0.09751 0.5356 0.14112 0.0
O14 O 0.15423 0.65197 0.1787 0.0
O15 O 0.11977 0.65155 0.15986 0.0
O16 O 0.09828 0.5871 0.14181 0.0
C17 C 0.10067 0.56244 0.13376 0.0
O18 O 1.03121 0.5361 0.15906 0.0
O19 O 1.05697 0.5883 0.17348 0.0
O20 O 0.10986 0.5865 0.19393 0.0
O21 O 1.03534 0.47216 0.14932 0.0
O22 O 1.05015 0.46659 0.17363 0.0
O23 O 1.06346 0.53125 0.19048 0.0
C24 C 0.17888 0.69286 0.15884 0.0
C25 C 0.18734 0.72719 0.1567 0.0
C26 C 0.22884 0.702 0.14358 0.0
C27 C 0.21682 0.74908 0.14825 0.0
C28 C 0.19923 0.68013 0.15186 0.0
C29 C 0.23842 0.73697 0.14195 0.0
C30 C 0.14884 0.67012 0.16824 0.0
C31 C 1.02926 0.56206 0.16619 0.0
H32 H 0.99897 0.47099 0.18534 0.0
H33 H 0.91176 0.37502 0.14857 0.0
H34 H 0.93774 0.45096 0.18848 0.0
H35 H 0.97386 0.39584 0.14527 0.0
H36 H 0.17151 0.73721 0.16177 0.0
H37 H 0.24498 0.69183 0.1391 0.0
H38 H 0.22312 0.7757 0.14697 0.0
H39 H 0.19275 0.65346 0.15318 0.0
Eu40 Eu 0.61649 1.03695 0.50052 0.0
Eu41 Eu 0.57503 0.07989 0.50328 0.0
C42 C 0.59854 0.05747 0.5349 0.0
C43 C 0.63719 0.96679 0.4893 0.0
C44 C 0.60207 0.94075 0.48858 0.0
C45 C 0.65181 0.92721 0.47517 0.0
C46 C 0.59201 0.90782 0.48165 0.0
C47 C 0.66189 0.9601 0.48226 0.0
C48 C 0.61686 0.90044 0.47513 0.0
C49 C 0.64795 1.00112 0.497 0.0
O50 O 0.63198 0.12164 0.50682 0.0
O51 O 0.65774 0.09238 0.49586 0.0
C52 C 0.65936 0.12162 0.50093 0.0
O53 O 0.58977 1.02978 0.47631 0.0
O54 O 0.56357 0.11588 0.51681 0.0
O55 O 0.54056 0.09611 0.49269 0.0
O56 O 0.59194 0.08196 0.4776 0.0
C57 C 0.58925 0.05515 0.46913 0.0
O58 O 0.56035 0.99464 0.50359 0.0
O59 O 0.53102 1.02411 0.49893 0.0
O60 O 0.57242 0.05792 0.52761 0.0
O61 O 0.65135 1.02465 0.48714 0.0
O62 O 0.63185 1.00153 0.51008 0.0
O63 O 0.6236 0.05789 0.52649 0.0
C64 C 0.56434 0.15561 0.49918 0.0
C65 C 0.59506 0.16863 0.49059 0.0
C66 C 0.57143 0.21327 0.50135 0.0
C67 C 0.61432 0.20384 0.48774 0.0
C68 C 0.55225 0.17792 0.50431 0.0
C69 C 0.60315 0.22674 0.49339 0.0
C70 C 0.54797 0.11987 0.5043 0.0
C71 C 0.53111 0.99489 0.501 0.0
H72 H 0.5825 0.94564 0.49371 0.0
H73 H 0.6715 0.92254 0.47002 0.0
H74 H 0.56498 0.88779 0.48205 0.0
H75 H 0.68901 0.98017 0.48243 0.0
H76 H 0.60498 0.15179 0.48668 0.0
H77 H 0.56189 0.23019 0.50564 0.0
H78 H 0.63882 0.21331 0.48183 0.0
H79 H 0.52869 0.16826 0.51104 0.0
Eu80 Eu 0.55016 0.53654 0.83178 0.0
Eu81 Eu 0.63361 0.57669 0.83699 0.0
C82 C 0.58533 0.55432 0.86718 0.0
C83 C 0.47278 0.53786 0.82053 0.0
C84 C 0.49614 0.56793 0.81277 0.0
C85 C 0.43698 0.56368 0.82616 0.0
C86 C 0.49107 0.59639 0.81258 0.0
C87 C 0.44237 0.53531 0.82658 0.0
C88 C 0.46242 0.59536 0.8201 0.0
C89 C 0.48499 0.51453 0.82583 0.0
O90 O 0.61724 0.51961 0.83938 0.0
O91 O 0.56125 0.49207 0.82857 0.0
C92 C 0.58894 0.49115 0.83377 0.0
O93 O 0.57447 0.55857 0.80812 0.0
O94 O 0.68045 0.58861 0.85099 0.0
O95 O 0.68463 0.61352 0.82843 0.0
O96 O 0.62145 0.55228 0.81179 0.0
C97 C 0.59951 0.55473 0.80209 0.0
O98 O 0.56529 0.59253 0.83821 0.0
O99 O 0.62162 0.61918 0.83063 0.0
O100 O 0.61204 0.58064 0.86097 0.0
O101 O 0.50401 0.50871 0.81563 0.0
O102 O 0.49884 0.5224 0.84051 0.0
O103 O 0.56109 0.52928 0.85768 0.0
C104 C 0.7253 0.59625 0.83382 0.0
C105 C 0.75956 0.62123 0.83081 0.0
C106 C 0.73672 0.55063 0.82435 0.0
C107 C 0.78243 0.61097 0.82471 0.0
C108 C 0.71385 0.56093 0.83034 0.0
C109 C 0.77137 0.57552 0.82159 0.0
C110 C 0.70101 0.60705 0.83973 0.0
C111 C 0.59349 0.62057 0.83413 0.0
H112 H 0.52006 0.57076 0.80814 0.0
H113 H 0.41384 0.5614 0.83149 0.0
H114 H 0.51127 0.62007 0.80778 0.0
H115 H 0.42412 0.51245 0.83267 0.0
H116 H 0.76857 0.64862 0.83314 0.0
H117 H 0.72745 0.52314 0.82229 0.0
H118 H 0.80881 0.63081 0.82247 0.0
H119 H 0.68725 0.54128 0.83235 0.0
C120 C 0.59251 0.1927 0.20639 0.0
C121 C 0.60229 0.22192 0.21699 0.0
C122 C 0.59761 0.21729 0.23375 0.0
C123 C 0.57885 0.15615 0.22926 0.0
C124 C 0.58115 0.16031 0.21275 0.0
C125 C 0.57337 0.12759 0.2032 0.0
H126 H 0.53233 0.9596 0.20193 0.0
C127 C 0.57033 0.12016 0.23195 0.0
C128 C 0.56693 0.1033 0.21672 0.0
H129 H 0.54223 1.02203 0.16133 0.0
H130 H 0.5594 0.07181 0.17954 0.0
H131 H 0.60123 1.02297 0.22443 0.0
H132 H 0.49068 0.98282 0.22216 0.0
H133 H 0.50421 0.99418 0.24264 0.0
H134 H 0.50931 0.96061 0.23218 0.0
H135 H 0.56995 0.97993 0.22984 0.0
H136 H 0.58592 1.01651 0.24429 0.0
C137 C 0.60606 0.13476 0.19372 0.0
C138 C 0.54019 0.11588 0.19242 0.0
C139 C 0.56871 0.08269 0.28928 0.0
C140 C 0.5615 1.05106 0.29554 0.0
C141 C 0.55192 1.02192 0.2849 0.0
C142 C 0.55049 1.02455 0.26808 0.0
C143 C 0.55835 0.05657 0.26191 0.0
C144 C 0.5666 0.08476 0.27249 0.0
C145 C 0.57266 0.11626 0.26384 0.0
C146 C 0.56737 0.10255 0.24629 0.0
C147 C 0.55954 0.06777 0.24523 0.0
C148 C 0.61057 0.14548 0.26779 0.0
C149 C 0.54468 0.12555 0.26892 0.0
C150 C 0.53857 0.98409 0.19694 0.0
C151 C 0.5358 0.98666 0.1801 0.0
C152 C 0.54457 1.01922 0.17417 0.0
C153 C 0.55397 1.04808 0.18482 0.0
C154 C 0.55449 1.04448 0.20162 0.0
C155 C 0.54747 1.01306 0.20744 0.0
C156 C 0.54785 1.01372 0.22569 0.0
C157 C 0.55573 1.05058 0.22982 0.0
C158 C 0.55968 0.06841 0.21567 0.0
C159 C 0.5776 1.00779 0.2315 0.0
C160 C 0.5113 0.98633 0.23107 0.0
H161 H 0.58397 0.18288 0.25285 0.0
H162 H 0.5963 0.19532 0.19348 0.0
H163 H 0.52216 0.12299 0.19844 0.0
H164 H 0.5247 0.08738 0.19017 0.0
H165 H 0.54671 0.12839 0.18062 0.0
H166 H 0.63023 0.1529 0.20092 0.0
H167 H 0.60679 0.14673 0.18209 0.0
H168 H 0.60806 0.11127 0.1912 0.0
H169 H 0.57565 0.10528 0.29731 0.0
H170 H 0.54616 0.99732 0.28963 0.0
H171 H 0.54345 1.00161 0.26054 0.0
H172 H 0.62849 0.13481 0.26761 0.0
H173 H 0.61304 0.15799 0.28004 0.0
H174 H 0.62062 0.16574 0.25888 0.0
H175 H 0.52007 0.10195 0.27186 0.0
H176 H 0.53712 0.13684 0.25907 0.0
H177 H 0.55357 0.14377 0.27981 0.0
H178 H 0.6047 0.23937 0.24215 0.0
C179 C 0.58583 0.18452 0.23994 0.0
C180 C 0.63392 0.63733 0.52798 0.0
C181 C 0.60496 0.63935 0.53312 0.0
C182 C 0.59601 0.63448 0.5495 0.0
C183 C 0.64391 0.62455 0.55511 0.0
C184 C 0.65292 0.6299 0.5391 0.0
C185 C 0.6842 0.62654 0.53547 0.0
H186 H 0.76762 0.54379 0.55221 0.0
C187 C 0.66799 0.61577 0.56329 0.0
C188 C 0.69176 0.61703 0.5519 0.0
H189 H 0.78083 0.60642 0.51114 0.0
H190 H 0.75102 0.63198 0.52511 0.0
H191 H 0.79076 0.6123 0.57744 0.0
H192 H 0.69348 0.52183 0.56284 0.0
H193 H 0.69671 0.52864 0.58425 0.0
H194 H 0.72825 0.52164 0.5741 0.0
H195 H 0.77397 0.57334 0.58822 0.0
H196 H 0.76292 0.60641 0.59346 0.0
C197 C 0.71403 0.66211 0.53042 0.0
C198 C 0.67304 0.59675 0.52228 0.0
C199 C 0.65062 0.58265 0.62191 0.0
C200 C 0.66658 0.57001 0.63229 0.0
C201 C 0.69227 0.56332 0.62612 0.0
C202 C 0.70215 0.56951 0.60998 0.0
C203 C 0.68608 0.58234 0.59986 0.0
C204 C 0.66071 0.58859 0.60585 0.0
C205 C 0.64616 0.60178 0.59325 0.0
C206 C 0.6684 0.60427 0.57901 0.0
C207 C 0.69144 0.59251 0.5829 0.0
C208 C 0.65262 0.63801 0.59932 0.0
C209 C 0.60729 0.57418 0.58989 0.0
C210 C 0.76496 0.56342 0.54614 0.0
C211 C 0.77417 0.57064 0.52983 0.0
C212 C 0.77161 0.59803 0.52311 0.0
C213 C 0.75427 0.61289 0.53117 0.0
C214 C 0.74001 0.60075 0.54617 0.0
C215 C 0.74849 0.5793 0.55415 0.0
C216 C 0.73547 0.57385 0.57118 0.0
C217 C 0.71428 0.59212 0.57113 0.0
C218 C 0.71599 0.6065 0.55614 0.0
C219 C 0.76726 0.59217 0.58327 0.0
C220 C 0.7123 0.5344 0.57332 0.0
H221 H 0.60731 0.62362 0.57284 0.0
H222 H 0.64209 0.64213 0.51559 0.0
H223 H 0.65065 0.57235 0.52629 0.0
H224 H 0.69376 0.591 0.51933 0.0
H225 H 0.66503 0.60334 0.51078 0.0
H226 H 0.70913 0.68376 0.5337 0.0
H227 H 0.71748 0.66204 0.51711 0.0
H228 H 0.73906 0.66936 0.53676 0.0
H229 H 0.63108 0.58845 0.62625 0.0
H230 H 0.7046 0.55304 0.63374 0.0
H231 H 0.72166 0.56375 0.60594 0.0
H232 H 0.67916 0.65386 0.60501 0.0
H233 H 0.63367 0.63566 0.60854 0.0
H234 H 0.65137 0.65334 0.58943 0.0
H235 H 0.60184 0.54772 0.59272 0.0
H236 H 0.59915 0.57155 0.57697 0.0
H237 H 0.59012 0.58015 0.59738 0.0
H238 H 0.57396 0.63625 0.55376 0.0
C239 C 0.61536 0.62711 0.56053 0.0
C240 C 0.25732 0.70106 0.8661 0.0
C241 C 0.28971 0.71806 0.87453 0.0
C242 C 0.29062 0.71711 0.89159 0.0
C243 C 0.22819 0.67809 0.89106 0.0
C244 C 0.22726 0.68064 0.87446 0.0
C245 C 0.1921 0.65626 0.86673 0.0
H246 H 1.02599 0.5294 0.87398 0.0
C247 C 0.19308 0.65135 0.89565 0.0
C248 C 0.17206 0.63823 0.88138 0.0
H249 H 1.07667 0.58026 0.83071 0.0
H250 H 0.13057 0.61418 0.84602 0.0
H251 H 0.09165 0.52329 0.88958 0.0
H252 H 1.05503 0.59591 0.89544 0.0
H253 H 1.0715 0.59449 0.91459 0.0
H254 H 1.03519 0.55559 0.90529 0.0
H255 H 1.0524 0.51365 0.89958 0.0
H256 H 0.09388 0.53422 0.91045 0.0
C257 C 0.1956 0.63078 0.8545 0.0
C258 C 0.17811 0.67837 0.85916 0.0
C259 C 0.16746 0.6218 0.95467 0.0
C260 C 0.13712 0.59811 0.96231 0.0
C261 C 0.10673 0.5766 0.95274 0.0
C262 C 0.10639 0.5787 0.9359 0.0
C263 C 0.13674 0.60262 0.92845 0.0
C264 C 0.16662 0.62373 0.93778 0.0
C265 C 0.19637 0.64749 0.92763 0.0
C266 C 0.17911 0.63758 0.91076 0.0
C267 C 0.14429 0.61106 0.91136 0.0
C268 C 0.22547 0.63818 0.92937 0.0
C269 C 0.20767 0.6855 0.93304 0.0
C270 C 1.04879 0.54758 0.86775 0.0
C271 C 1.04694 0.55201 0.85107 0.0
C272 C 1.07736 0.57583 0.84347 0.0
C273 C 0.10862 0.59594 0.85245 0.0
C274 C 0.10958 0.59234 0.86925 0.0
C275 C 1.0801 0.56818 0.87659 0.0
C276 C 0.08554 0.56896 0.89464 0.0
C277 C 0.12322 0.59758 0.89691 0.0
C278 C 0.1371 0.61108 0.88201 0.0
C279 C 1.08043 0.53318 0.89894 0.0
C280 C 1.06047 0.57899 0.90305 0.0
H281 H 0.26241 0.69668 0.91281 0.0
H282 H 0.25559 0.70152 0.85303 0.0
H283 H 0.18547 0.70221 0.86697 0.0
H284 H 0.14946 0.66474 0.85803 0.0
H285 H 0.18895 0.68672 0.84705 0.0
H286 H 0.21669 0.62588 0.85848 0.0
H287 H 0.2018 0.64136 0.84227 0.0
H288 H 0.17214 0.60473 0.85345 0.0
H289 H 0.19118 0.63879 0.9617 0.0
H290 H 0.08319 0.55776 0.95828 0.0
H291 H 1.08244 0.56155 0.92935 0.0
H292 H 0.21439 0.60999 0.93117 0.0
H293 H 0.24329 0.65279 0.93993 0.0
H294 H 0.24076 0.64287 0.91836 0.0
H295 H 0.18453 0.68845 0.93499 0.0
H296 H 0.22269 0.70414 0.92388 0.0
H297 H 0.22333 0.69346 0.94461 0.0
H298 H 0.31519 0.72976 0.89841 0.0
C299 C 0.25997 0.69737 0.8999 0.0
C300 C 1.006 0.47014 0.47831 0.0
C301 C 0.97744 0.44043 0.47032 0.0
C302 C 0.97538 0.43814 0.45328 0.0
C303 C 1.02904 0.49322 0.45214 0.0
C304 C 1.03181 0.49625 0.4689 0.0
C305 C 1.06504 0.52943 0.47471 0.0
H306 H 0.21429 0.67547 0.45188 0.0
C307 C 1.05943 0.52356 0.44559 0.0
C308 C 1.08125 0.54535 0.45868 0.0
H309 H 0.18616 0.64858 0.50122 0.0
H310 H 0.13226 0.59667 0.4913 0.0
H311 H 0.19498 0.60143 0.43851 0.0
H312 H 0.1415 0.65926 0.43933 0.0
H313 H 0.13033 0.63645 0.42038 0.0
H314 H 0.17532 0.6674 0.42555 0.0
H315 H 0.20492 0.63577 0.4252 0.0
H316 H 0.17256 0.5913 0.41969 0.0
C317 C 0.08823 0.51942 0.4844 0.0
C318 C 1.05508 0.55292 0.48474 0.0
C319 C 1.0675 0.53153 0.38414 0.0
C320 C 0.09262 0.55583 0.37415 0.0
C321 C 0.1222 0.58487 0.38152 0.0
C322 C 0.12683 0.58961 0.39842 0.0
C323 C 0.10166 0.56507 0.40826 0.0
C324 C 1.07265 0.53664 0.40108 0.0
C325 C 1.04893 0.51314 0.41348 0.0
C326 C 1.0684 0.53234 0.42929 0.0
C327 C 0.09915 0.56264 0.42611 0.0
C328 C 1.04687 0.47735 0.41094 0.0
C329 C 1.01364 0.51207 0.41159 0.0
C330 C 0.19707 0.65839 0.46072 0.0
C331 C 0.2053 0.66624 0.47738 0.0
C332 C 0.18087 0.64339 0.48826 0.0
C333 C 0.14963 0.61313 0.4825 0.0
C334 C 0.14242 0.60555 0.46564 0.0
C335 C 0.16627 0.62856 0.45523 0.0
C336 C 0.15559 0.61801 0.43778 0.0
C337 C 0.12145 0.58469 0.43909 0.0
C338 C 0.11306 0.5767 0.4554 0.0
C339 C 0.18339 0.61147 0.42973 0.0
C340 C 0.15059 0.64669 0.43022 0.0
H341 H 0.99698 0.46022 0.43134 0.0
H342 H 1.00844 0.47258 0.49142 0.0
H343 H 1.03519 0.55614 0.47797 0.0
H344 H 1.07749 0.5792 0.48738 0.0
H345 H 1.0441 0.5414 0.49643 0.0
H346 H 0.0914 0.49934 0.47739 0.0
H347 H 1.07649 0.50866 0.4961 0.0
H348 H 0.11454 0.54173 0.48701 0.0
H349 H 1.0446 0.50875 0.3789 0.0
H350 H 0.1417 0.6043 0.37418 0.0
H351 H 0.14994 0.61234 0.40312 0.0
H352 H 1.07093 0.48006 0.4056 0.0
H353 H 1.0247 0.45942 0.40261 0.0
H354 H 1.04487 0.46473 0.42245 0.0
H355 H 1.01757 0.53776 0.40829 0.0
H356 H 0.99934 0.50666 0.42294 0.0
H357 H 0.99678 0.49258 0.40189 0.0
H358 H 0.95386 0.41588 0.44686 0.0
C359 C 1.00064 0.46411 0.44425 0.0
C360 C 0.58944 0.96691 0.81289 0.0
C361 C 0.59132 0.93892 0.80495 0.0
C362 C 0.59348 0.93823 0.78799 0.0
C363 C 0.59198 0.99188 0.78684 0.0
C364 C 0.59006 0.99341 0.80353 0.0
C365 C 0.58968 1.02628 0.80937 0.0
H366 H 0.58374 0.17155 0.78671 0.0
C367 C 0.59195 1.02238 0.78033 0.0
C368 C 0.5905 1.04313 0.79339 0.0
H369 H 0.58854 0.1452 0.83595 0.0
H370 H 0.59033 0.09335 0.82599 0.0
H371 H 0.64209 0.15838 0.7749 0.0
H372 H 0.53091 0.09655 0.77235 0.0
H373 H 0.54462 0.08865 0.75363 0.0
H374 H 0.55469 0.13223 0.7597 0.0
H375 H 0.61592 0.1654 0.76057 0.0
H376 H 0.63184 0.13594 0.75588 0.0
C377 C 0.62262 1.04916 0.82012 0.0
C378 C 0.55593 1.01584 0.81831 0.0
C379 C 0.59511 1.03338 0.71902 0.0
C380 C 0.59365 0.05751 0.70902 0.0
C381 C 0.59138 0.08549 0.71631 0.0
C382 C 0.59046 0.08937 0.73318 0.0
C383 C 0.59178 0.06501 0.74305 0.0
C384 C 0.59398 1.03758 0.73592 0.0
C385 C 0.59442 1.01392 0.7483 0.0
C386 C 0.59248 1.03191 0.76406 0.0
C387 C 0.59107 0.06178 0.76087 0.0
C388 C 0.62947 1.01437 0.74721 0.0
C389 C 0.56157 0.97763 0.74501 0.0
C390 C 0.58485 0.1546 0.79546 0.0
C391 C 0.58543 0.16241 0.81212 0.0
C392 C 0.58792 0.13985 0.823 0.0
C393 C 0.58891 0.10976 0.8172 0.0
C394 C 0.58808 0.10238 0.80034 0.0
C395 C 0.58648 0.12525 0.78994 0.0
C396 C 0.5874 0.11553 0.7725 0.0
C397 C 0.58946 0.08283 0.77382 0.0
C398 C 0.58954 0.07429 0.79011 0.0
C399 C 0.62079 0.14527 0.76545 0.0
C400 C 0.55284 0.10804 0.76396 0.0
H401 H 0.59541 0.96158 0.76613 0.0
H402 H 0.58811 0.96836 0.82596 0.0
H403 H 0.533 0.99663 0.81068 0.0
H404 H 0.55231 1.03827 0.82114 0.0
H405 H 0.55589 1.00386 0.82986 0.0
H406 H 0.64602 1.05203 0.81402 0.0
H407 H 0.62098 1.03736 0.83191 0.0
H408 H 0.62702 0.07564 0.82255 0.0
H409 H 0.59649 1.01137 0.71382 0.0
H410 H 0.59068 0.10472 0.70894 0.0
H411 H 0.58875 0.11129 0.73785 0.0
H412 H 0.65071 1.04032 0.74397 0.0
H413 H 0.62786 0.99498 0.7378 0.0
H414 H 0.63851 1.0098 0.75888 0.0
H415 H 0.53976 0.97985 0.7396 0.0
H416 H 0.55104 0.96377 0.7562 0.0
H417 H 0.56682 0.96102 0.73644 0.0
H418 H 0.59495 0.91723 0.78161 0.0
C419 C 0.59374 0.96419 0.77899 0.0
C420 C 0.67616 0.55683 0.14588 0.0
C421 C 0.70329 0.5546 0.13794 0.0
C422 C 0.70254 0.5526 0.1209 0.0
C423 C 0.64915 0.55487 0.11966 0.0
C424 C 0.64899 0.55656 0.13642 0.0
C425 C 0.61679 0.55733 0.14217 0.0
H426 H 0.46491 0.55436 0.11904 0.0
C427 C 0.61814 0.55508 0.11307 0.0
C428 C 0.59841 0.55633 0.12611 0.0
H429 H 0.49956 0.55747 0.16841 0.0
H430 H 0.55217 0.55892 0.15862 0.0
H431 H 0.53607 0.61077 0.10749 0.0
H432 H 0.48297 0.49942 0.10481 0.0
H433 H 0.50212 0.51201 0.08602 0.0
H434 H 0.47066 0.52395 0.09241 0.0
H435 H 0.50165 0.58522 0.09278 0.0
H436 H 0.54649 0.59941 0.08866 0.0
C437 C 0.62848 0.59141 0.15235 0.0
C438 C 0.59471 0.52475 0.15168 0.0
C439 C 0.6021 0.55269 0.05164 0.0
C440 C 0.57674 0.55359 0.04163 0.0
C441 C 0.54888 0.55491 0.04891 0.0
C442 C 0.54626 0.55535 0.06579 0.0
C443 C 0.57181 0.55455 0.07567 0.0
C444 C 0.59918 0.55339 0.06856 0.0
C445 C 0.6241 0.55322 0.08099 0.0
C446 C 0.60712 0.55446 0.09675 0.0
C447 C 0.57651 0.55503 0.09351 0.0
C448 C 0.65979 0.5866 0.07934 0.0
C449 C 0.62441 0.51863 0.07827 0.0
C450 C 0.48335 0.55483 0.12789 0.0
C451 C 0.47733 0.55504 0.14451 0.0
C452 C 0.50317 0.55703 0.15547 0.0
C453 C 0.53363 0.55768 0.14978 0.0
C454 C 0.53861 0.55663 0.13294 0.0
C455 C 0.51347 0.5556 0.12247 0.0
C456 C 0.52203 0.5554 0.10506 0.0
C457 C 0.55611 0.55573 0.10644 0.0
C458 C 0.56651 0.55646 0.12277 0.0
C459 C 0.52661 0.58921 0.09798 0.0
C460 C 0.49299 0.52115 0.09648 0.0
H461 H 0.67758 0.55134 0.09892 0.0
H462 H 0.67586 0.55814 0.15899 0.0
H463 H 0.59034 0.50102 0.14458 0.0
H464 H 0.56886 0.52117 0.15421 0.0
H465 H 0.60804 0.52626 0.16341 0.0
H466 H 0.64754 0.61402 0.1457 0.0
H467 H 0.64107 0.59139 0.16405 0.0
H468 H 0.60658 0.59567 0.15498 0.0
H469 H 0.62402 0.55198 0.04645 0.0
H470 H 0.52872 0.55513 0.04151 0.0
H471 H 0.52423 0.55613 0.07044 0.0
H472 H 0.6564 0.60867 0.0759 0.0
H473 H 0.67515 0.58261 0.06985 0.0
H474 H 0.67546 0.59594 0.09083 0.0
H475 H 0.59905 0.49748 0.07303 0.0
H476 H 0.62808 0.50854 0.08969 0.0
H477 H 0.64478 0.52149 0.06978 0.0
H478 H 0.72291 0.55098 0.11452 0.0
C479 C 0.67602 0.55284 0.11182 0.0
H480 H 0.16701 0.50571 0.17263 0.0
H481 H 0.22192 0.50556 0.17088 0.0
H482 H 0.27349 0.61199 0.15745 0.0
H483 H 0.21869 0.61222 0.15895 0.0
H484 H 0.29192 0.57416 0.13813 0.0
H485 H 0.30582 0.54731 0.2018 0.0
H486 H 0.2653 0.51544 0.19206 0.0
H487 H 0.27467 0.55956 0.19537 0.0
C488 C 0.19003 0.52923 0.1694 0.0
C489 C 0.18806 0.55902 0.166 0.0
C490 C 0.22166 0.52918 0.16852 0.0
C491 C 0.25241 0.55896 0.1643 0.0
C492 C 0.25045 0.58866 0.16083 0.0
H493 H 0.46686 0.59241 0.1695 0.0
H494 H 0.41321 0.59385 0.17508 0.0
C495 C 0.21888 0.58875 0.16172 0.0
C496 C 0.28619 0.55883 0.16279 0.0
H497 H 0.3444 0.54318 0.18313 0.0
C498 C 0.30334 0.56749 0.14804 0.0
C499 C 0.30182 0.55068 0.1757 0.0
C500 C 0.28619 0.54306 0.19218 0.0
C501 C 0.33473 0.56739 0.14571 0.0
C502 C 0.34963 0.55788 0.15839 0.0
C503 C 0.33305 0.55012 0.17331 0.0
C504 C 0.38182 0.55515 0.15612 0.0
C505 C 0.35192 0.57792 0.12966 0.0
C506 C 0.38208 0.53202 0.14408 0.0
C507 C 0.41256 0.53104 0.14094 0.0
C508 C 0.44399 0.55312 0.14976 0.0
C509 C 0.44332 0.57499 0.16245 0.0
C510 C 0.4126 0.57596 0.1656 0.0
H511 H 0.34309 0.5936 0.12311 0.0
H512 H 0.38065 0.59319 0.13135 0.0
H513 H 0.34503 0.55424 0.1219 0.0
H514 H 0.35868 0.51494 0.13686 0.0
H515 H 0.41161 0.51324 0.13133 0.0
H516 H 0.67235 0.18856 0.50783 0.0
H517 H 0.72637 0.24358 0.50465 0.0
H518 H 0.7765 0.18706 0.48799 0.0
H519 H 0.72266 0.13213 0.4909 0.0
H520 H 0.79303 0.27215 0.51828 0.0
H521 H 0.79717 0.25269 0.45189 0.0
H522 H 0.75909 0.22603 0.46312 0.0
H523 H 0.79465 0.21754 0.46281 0.0
C524 C 0.69485 0.18772 0.50351 0.0
C525 C 0.69276 0.15553 0.49958 0.0
C526 C 0.72588 0.21938 0.5017 0.0
C527 C 0.75574 0.21989 0.4958 0.0
C528 C 0.75387 0.18776 0.49219 0.0
H529 H 0.96483 0.37403 0.46999 0.0
H530 H 0.91192 0.32213 0.47765 0.0
C531 C 0.72291 0.15615 0.49398 0.0
C532 C 0.78871 0.25373 0.49337 0.0
H533 H 0.84816 0.29898 0.46497 0.0
C534 C 0.80494 0.27807 0.50659 0.0
C535 C 0.80454 0.26195 0.47813 0.0
C536 C 0.78783 0.23837 0.46314 0.0
C537 C 0.83679 0.30943 0.50512 0.0
C538 C 0.85292 0.31731 0.48993 0.0
C539 C 0.83632 0.29318 0.47668 0.0
C540 C 0.88711 0.34988 0.48737 0.0
C541 C 0.85339 0.33329 0.52002 0.0
C542 C 0.89185 0.38342 0.49061 0.0
C543 C 0.92264 0.4134 0.48642 0.0
C544 C 0.94941 0.41061 0.47883 0.0
C545 C 0.94511 0.3772 0.47614 0.0
C546 C 0.91456 0.34739 0.48036 0.0
H547 H 0.84332 0.31947 0.53134 0.0
H548 H 0.88207 0.34492 0.52027 0.0
H549 H 0.84739 0.35468 0.51992 0.0
H550 H 0.87105 0.38643 0.49562 0.0
H551 H 0.92459 0.43858 0.4882 0.0
H552 H 0.54001 0.6332 0.8409 0.0
H553 H 0.53779 0.68652 0.8377 0.0
H554 H 0.64357 0.73788 0.82239 0.0
H555 H 0.6456 0.68434 0.82508 0.0
H556 H 0.57154 0.75082 0.85114 0.0
H557 H 0.59936 0.75983 0.78595 0.0
H558 H 0.58955 0.72173 0.7967 0.0
H559 H 0.6329 0.75878 0.79771 0.0
C560 C 0.56283 0.65573 0.83674 0.0
C561 C 0.59287 0.65399 0.83304 0.0
C562 C 0.56151 0.68642 0.83495 0.0
C563 C 0.59017 0.7164 0.82937 0.0
C564 C 0.62059 0.71505 0.8262 0.0
H565 H 0.64545 0.92723 0.80811 0.0
H566 H 0.64357 0.87352 0.81537 0.0
C567 C 0.62186 0.68432 0.8279 0.0
C568 C 0.5884 0.74899 0.82695 0.0
H569 H 0.60385 0.81039 0.79948 0.0
C570 C 0.57838 0.76366 0.83978 0.0
C571 C 0.59679 0.76591 0.81211 0.0
C572 C 0.60487 0.75056 0.79728 0.0
C573 C 0.57806 0.79515 0.83841 0.0
C574 C 0.58775 0.81267 0.82376 0.0
C575 C 0.59689 0.79752 0.81083 0.0
C576 C 0.58945 0.847 0.82152 0.0
C577 C 0.56848 0.81002 0.85288 0.0
C578 C 0.55995 0.85091 0.82289 0.0
C579 C 0.5612 0.8821 0.81894 0.0
C580 C 0.59193 0.9101 0.81347 0.0
C581 C 0.62162 0.90654 0.81265 0.0
C582 C 0.62043 0.87557 0.81664 0.0
H583 H 0.56925 0.79784 0.86423 0.0
H584 H 0.58625 0.83853 0.8545 0.0
H585 H 0.54169 0.80524 0.85089 0.0
H586 H 0.53542 0.82926 0.82621 0.0
H587 H 0.53759 0.88352 0.81918 0.0
H588 H 0.96483 0.50895 0.15532 0.0
H589 H 0.90985 0.50904 0.15347 0.0
H590 H 0.96082 0.6143 0.17392 0.0
H591 H 1.01603 0.61453 0.17568 0.0
H592 H 0.87023 0.51839 0.17665 0.0
H593 H 0.91392 0.62296 0.13329 0.0
H594 H 0.9384 0.60169 0.13761 0.0
H595 H 0.94057 0.63492 0.15156 0.0
C596 C 0.96452 0.53226 0.15938 0.0
C597 C 0.9953 0.5619 0.1655 0.0
C598 C 0.93285 0.53222 0.15835 0.0
C599 C 0.93092 0.56189 0.16324 0.0
C600 C 0.96145 0.59127 0.16967 0.0
H601 H 0.75851 0.60735 0.15583 0.0
H602 H 0.81326 0.60967 0.16381 0.0
C603 C 0.99313 0.59129 0.17078 0.0
C604 C 0.89705 0.56191 0.16165 0.0
H605 H 0.85802 0.60248 0.14362 0.0
C606 C 0.86769 0.53685 0.16942 0.0
C607 C 0.89327 0.58598 0.15231 0.0
C608 C 0.92307 0.61274 0.14308 0.0
C609 C 0.83518 0.53536 0.16821 0.0
C610 C 0.83124 0.55898 0.15861 0.0
C611 C 0.86071 0.58435 0.15103 0.0
C612 C 0.79655 0.55664 0.15552 0.0
C613 C 0.80551 0.50876 0.17752 0.0
C614 C 0.76833 0.52601 0.14844 0.0
C615 C 0.73705 0.52467 0.14399 0.0
C616 C 0.7328 0.55382 0.14653 0.0
C617 C 0.7605 0.58414 0.15412 0.0
C618 C 0.79203 0.58559 0.15849 0.0
H619 H 0.8152 0.50197 0.18844 0.0
H620 H 0.78774 0.51823 0.18144 0.0
H621 H 0.79044 0.48471 0.16965 0.0
H622 H 0.771 0.50348 0.14563 0.0
H623 H 0.71662 0.50123 0.13778 0.0
H624 H 0.46472 0.98388 0.49617 0.0
H625 H 0.40965 0.92873 0.49447 0.0
H626 H 0.46478 0.8734 0.50184 0.0
H627 H 0.51989 0.92843 0.5038 0.0
H628 H 0.3859 0.87325 0.47323 0.0
H629 H 0.39004 0.82941 0.53455 0.0
H630 H 0.41922 0.87321 0.52894 0.0
H631 H 0.42768 0.83872 0.52323 0.0
C632 C 0.46526 0.96006 0.49756 0.0
C633 C 0.49713 0.96101 0.50022 0.0
C634 C 0.43356 0.92835 0.49656 0.0
C635 C 0.43256 0.89652 0.4983 0.0
C636 C 0.46436 0.89737 0.50087 0.0
H637 H 0.26907 0.69079 0.46392 0.0
H638 H 0.32234 0.74606 0.46977 0.0
C639 C 0.4961 0.92907 0.50186 0.0
C640 C 0.39853 0.86258 0.49675 0.0
H641 H 0.34654 0.78737 0.5158 0.0
C642 C 0.37735 0.85466 0.48262 0.0
C643 C 0.38667 0.83808 0.509 0.0
C644 C 0.40688 0.84534 0.52486 0.0
C645 C 0.34563 0.82301 0.48023 0.0
C646 C 0.33443 0.79801 0.49219 0.0
C647 C 0.35502 0.80622 0.50653 0.0
C648 C 0.30209 0.76293 0.48963 0.0
C649 C 0.32414 0.8166 0.46485 0.0
C650 C 0.27285 0.75287 0.49922 0.0
C651 C 0.2418 0.72095 0.49581 0.0
C652 C 0.2393 0.69822 0.48275 0.0
C653 C 0.26938 0.70776 0.4738 0.0
C654 C 0.30011 0.73952 0.47714 0.0
H655 H 0.33166 0.8411 0.45881 0.0
H656 H 0.32813 0.79912 0.45628 0.0
H657 H 0.29605 0.8038 0.46739 0.0
H658 H 0.27364 0.77024 0.50902 0.0
H659 H 0.21939 0.71476 0.50298 0.0
H660 H 0.53905 0.42792 0.81974 0.0
H661 H 0.53922 0.3729 0.81791 0.0
H662 H 0.63811 0.42148 0.84401 0.0
H663 H 0.63828 0.4767 0.84586 0.0
H664 H 0.58981 0.35925 0.8034 0.0
H665 H 0.57905 0.33242 0.8688 0.0
H666 H 0.56854 0.36312 0.86051 0.0
H667 H 0.61311 0.37474 0.86387 0.0
C668 C 0.5608 0.427 0.82521 0.0
C669 C 0.58857 0.45707 0.83303 0.0
C670 C 0.56087 0.39536 0.82412 0.0
C671 C 0.58844 0.39259 0.831 0.0
C672 C 0.61618 0.42251 0.83884 0.0
H673 H 0.62815 0.21631 0.83419 0.0
H674 H 0.62966 0.27207 0.8392 0.0
C675 C 0.61629 0.45427 0.83981 0.0
C676 C 0.58862 0.3588 0.82941 0.0
H677 H 0.58688 0.29386 0.85112 0.0
C678 C 0.58907 0.34496 0.81386 0.0
C679 C 0.58812 0.34009 0.843 0.0
C680 C 0.58692 0.35307 0.86001 0.0
C681 C 0.58928 0.31341 0.81151 0.0
C682 C 0.58778 0.29409 0.82506 0.0
C683 C 0.58783 0.30822 0.84066 0.0
C684 C 0.58545 0.25904 0.82317 0.0
C685 C 0.59206 0.30169 0.79445 0.0
C686 C 0.55933 0.23221 0.81306 0.0
C687 C 0.55859 0.20052 0.81015 0.0
C688 C 0.58353 0.19418 0.81748 0.0
C689 C 0.60844 0.22014 0.82839 0.0
C690 C 0.60941 0.25218 0.83119 0.0
H691 H 0.60441 0.32395 0.78649 0.0
H692 H 0.60741 0.28822 0.79423 0.0
H693 H 0.56562 0.28346 0.78925 0.0
H694 H 0.53968 0.23594 0.80714 0.0
H695 H 0.53873 0.18104 0.80183 0.0
H696 H 0.65344 0.86776 0.48094 0.0
H697 H 0.63289 0.80619 0.47811 0.0
H698 H 0.53634 0.78795 0.45605 0.0
H699 H 0.55716 0.85045 0.4587 0.0
H700 H 0.52461 0.75092 0.48164 0.0
H701 H 0.61561 0.72989 0.44566 0.0
H702 H 0.64119 0.76686 0.45922 0.0
H703 H 0.61231 0.76858 0.44419 0.0
C704 C 0.62845 0.85106 0.47482 0.0
C705 C 0.60689 0.8641 0.47015 0.0
C706 C 0.6167 0.81563 0.47313 0.0
C707 C 0.58321 0.79237 0.46663 0.0
C708 C 0.56237 0.80546 0.46098 0.0
H709 H 0.58268 0.61332 0.50196 0.0
H710 H 0.5612 0.63708 0.48151 0.0
C711 C 0.5742 0.84111 0.46263 0.0
C712 C 0.56853 0.75484 0.46894 0.0
H713 H 0.59855 0.69832 0.47156 0.0
C714 C 0.53989 0.73863 0.4789 0.0
C715 C 0.58728 0.73782 0.46488 0.0
C716 C 0.61553 0.75166 0.45272 0.0
C717 C 0.53332 0.709 0.48699 0.0
C718 C 0.55653 0.69612 0.48536 0.0
C719 C 0.58137 0.70883 0.47333 0.0
C720 C 0.56083 0.6759 0.49808 0.0
C721 C 0.50321 0.69348 0.49813 0.0
C722 C 0.56692 0.6892 0.51428 0.0
C723 C 0.57905 0.67566 0.52594 0.0
C724 C 0.5859 0.64893 0.52157 0.0
C725 C 0.57792 0.63422 0.50559 0.0
C726 C 0.56547 0.6476 0.49393 0.0
H727 H 0.48047 0.69395 0.49271 0.0
H728 H 0.49544 0.66629 0.50068 0.0
H729 H 0.51053 0.70937 0.50975 0.0
H730 H 0.56479 0.71179 0.51773 0.0
H731 H 0.58541 0.68781 0.53808 0.0
H732 H 0.76083 0.52279 0.79943 0.0
H733 H 0.80107 0.50138 0.79344 0.0
H734 H 0.87818 0.58162 0.82627 0.0
H735 H 0.83838 0.60264 0.83253 0.0
H736 H 0.90315 0.56996 0.79516 0.0
H737 H 0.82475 0.44989 0.82851 0.0
H738 H 0.8049 0.4609 0.8124 0.0
H739 H 0.8178 0.48639 0.83124 0.0
C740 C 0.78644 0.5359 0.80532 0.0
C741 C 0.79638 0.56438 0.81651 0.0
C742 C 0.80935 0.52372 0.80182 0.0
C743 C 0.84245 0.5399 0.80946 0.0
C744 C 0.85279 0.56899 0.82015 0.0
H745 H 0.98606 0.54347 0.86233 0.0
H746 H 0.93306 0.52702 0.84679 0.0
C747 C 0.83003 0.58107 0.82367 0.0
C748 C 0.8661 0.52578 0.80766 0.0
H749 H 0.88423 0.46969 0.82648 0.0
C750 C 0.89882 0.54725 0.80142 0.0
C751 C 0.85998 0.49592 0.81569 0.0
C752 C 0.82502 0.47178 0.82239 0.0
C753 C 0.92693 0.5423 0.80488 0.0
C754 C 0.92178 0.5149 0.81469 0.0
C755 C 0.88801 0.49074 0.81903 0.0
C756 C 0.95124 0.51691 0.82412 0.0
C757 C 0.9626 0.56883 0.79969 0.0
C758 C 0.97864 0.51531 0.81666 0.0
C759 C 1.00931 0.52473 0.82562 0.0
C760 C 1.01282 0.53571 0.84213 0.0
C761 C 0.98424 0.53474 0.84972 0.0
C762 C 0.95382 0.52539 0.84082 0.0
H763 H 0.96216 0.5894 0.7927 0.0
H764 H 0.98038 0.58138 0.81049 0.0
H765 H 0.97344 0.55577 0.79197 0.0
H766 H 0.97692 0.50835 0.80382 0.0
H767 H 1.03069 0.52466 0.81949 0.0
H768 H 0.27159 0.72565 0.11633 0.0
H769 H 0.33235 0.76289 0.10922 0.0
H770 H 0.34315 0.84019 0.14574 0.0
H771 H 0.28346 0.80337 0.15312 0.0
H772 H 0.37738 0.86717 0.11558 0.0
H773 H 0.40899 0.77254 0.14211 0.0
H774 H 0.37687 0.75893 0.12579 0.0
H775 H 0.36758 0.76943 0.14564 0.0
C776 C 0.28687 0.75078 0.12271 0.0
C777 C 0.2727 0.76138 0.13542 0.0
C778 C 0.32147 0.77201 0.11857 0.0
C779 C 0.3422 0.8041 0.12705 0.0
C780 C 0.32745 0.81559 0.13897 0.0
H781 H 0.48109 0.92364 0.18658 0.0
H782 H 0.44492 0.87605 0.16737 0.0
C783 C 0.29315 0.79448 0.14314 0.0
C784 C 0.3802 0.82461 0.12534 0.0
H785 H 0.4522 0.83125 0.14396 0.0
C786 C 0.39432 0.85914 0.1211 0.0
C787 C 0.40213 0.81374 0.13233 0.0
C788 C 0.38837 0.77666 0.13676 0.0
C789 C 0.42843 0.88428 0.12596 0.0
C790 C 0.44873 0.87423 0.13512 0.0
C791 C 0.43637 0.83881 0.13705 0.0
C792 C 0.4762 0.89956 0.14671 0.0
C793 C 0.44073 0.92193 0.12316 0.0
C794 C 0.50685 0.92796 0.14163 0.0
C795 C 0.52801 0.9555 0.15275 0.0
C796 C 0.5187 0.95492 0.16905 0.0
C797 C 0.4895 0.925 0.17424 0.0
C798 C 0.46859 0.89766 0.1632 0.0
H799 H 0.42144 0.92523 0.11594 0.0
H800 H 0.44589 0.93686 0.13498 0.0
H801 H 0.46535 0.93327 0.1166 0.0
H802 H 0.51342 0.92966 0.12899 0.0
H803 H 0.55073 0.9779 0.14843 0.0
H804 H 0.61583 0.27819 0.51622 0.0
H805 H 0.65572 0.3404 0.5149 0.0
H806 H 0.68383 0.32378 0.46694 0.0
H807 H 0.64305 0.26123 0.4679 0.0
H808 H 0.74223 0.36946 0.49192 0.0
H809 H 0.64025 0.40517 0.48357 0.0
H810 H 0.63201 0.37553 0.4993 0.0
H811 H 0.63287 0.36202 0.47856 0.0
C812 C 0.62989 0.2877 0.50524 0.0
C813 C 0.62597 0.26473 0.49211 0.0
C814 C 0.65294 0.32321 0.50459 0.0
C815 C 0.67255 0.33646 0.49082 0.0
C816 C 0.66892 0.31384 0.47767 0.0
H817 H 0.75949 0.55597 0.49691 0.0
H818 H 0.74712 0.50301 0.48218 0.0
C819 C 0.64565 0.27821 0.47827 0.0
C820 C 0.69638 0.37419 0.49038 0.0
H821 H 0.69573 0.45017 0.49379 0.0
C822 C 0.73234 0.38735 0.49196 0.0
C823 C 0.68332 0.39724 0.49011 0.0
C824 C 0.64501 0.38436 0.48764 0.0
C825 C 0.75551 0.42322 0.49449 0.0
C826 C 0.74208 0.4461 0.4957 0.0
C827 C 0.70626 0.43284 0.49291 0.0
C828 C 0.76306 0.48289 0.50185 0.0
C829 C 0.79389 0.43604 0.49622 0.0
C830 C 0.77953 0.49093 0.5173 0.0
C831 C 0.7881 0.52228 0.52572 0.0
C832 C 0.77892 0.54542 0.51911 0.0
C833 C 0.76687 0.5392 0.50275 0.0
C834 C 0.7594 0.50845 0.49419 0.0
H835 H 0.80091 0.41936 0.48866 0.0
H836 H 0.80969 0.4633 0.49269 0.0
H837 H 0.80063 0.43463 0.50904 0.0
H838 H 0.78269 0.47173 0.52355 0.0
H839 H 0.79903 0.52671 0.53794 0.0
H840 H 0.48606 0.65278 0.80141 0.0
H841 H 0.48675 0.70717 0.80823 0.0
H842 H 0.43547 0.66528 0.85264 0.0
H843 H 0.43776 0.613 0.84681 0.0
H844 H 0.43788 0.71954 0.81016 0.0
H845 H 0.49846 0.75922 0.8706 0.0
H846 H 0.50445 0.72898 0.85763 0.0
H847 H 0.46911 0.71369 0.87149 0.0
C848 C 0.47566 0.65548 0.81282 0.0
C849 C 0.46144 0.62805 0.82345 0.0
C850 C 0.47611 0.68669 0.8167 0.0
C851 C 0.46213 0.69098 0.8312 0.0
C852 C 0.44787 0.66355 0.84171 0.0
H853 H 0.29898 0.68743 0.84751 0.0
H854 H 0.35223 0.70183 0.83454 0.0
C855 C 0.44807 0.63287 0.83805 0.0
C856 C 0.45707 0.72122 0.83454 0.0
H857 H 0.43989 0.75723 0.86771 0.0
C858 C 0.43967 0.7291 0.82263 0.0
C859 C 0.46123 0.7362 0.85046 0.0
C860 C 0.48483 0.73437 0.86314 0.0
C861 C 0.42043 0.74512 0.82702 0.0
C862 C 0.41727 0.75153 0.84368 0.0
C863 C 0.44055 0.75055 0.85499 0.0
C864 C 0.38456 0.74845 0.84976 0.0
C865 C 0.40084 0.75168 0.81393 0.0
C866 C 0.38444 0.76939 0.86298 0.0
C867 C 0.35338 0.76077 0.87071 0.0
C868 C 0.32204 0.73107 0.86532 0.0
C869 C 0.32224 0.71112 0.85172 0.0
C870 C 0.35297 0.71957 0.84413 0.0
H871 H 0.41786 0.76343 0.80358 0.0
H872 H 0.37841 0.72661 0.80924 0.0
H873 H 0.39134 0.76922 0.81843 0.0
H874 H 0.40851 0.79149 0.86774 0.0
H875 H 0.35406 0.77667 0.88116 0.0
H876 H 0.87209 0.39833 0.14426 0.0
H877 H 0.81085 0.38173 0.1469 0.0
H878 H 0.82336 0.3853 0.19895 0.0
H879 H 0.88407 0.40149 0.19643 0.0
H880 H 0.76185 0.32319 0.16051 0.0
H881 H 0.77067 0.43726 0.19391 0.0
H882 H 0.8067 0.43917 0.18308 0.0
H883 H 0.79847 0.4242 0.20337 0.0
C884 C 0.8617 0.39555 0.15626 0.0
C885 C 0.88285 0.40119 0.17015 0.0
C886 C 0.8269 0.38652 0.15774 0.0
C887 C 0.81287 0.3833 0.17314 0.0
C888 C 0.83398 0.38891 0.18698 0.0
H889 H 0.66152 0.27557 0.23092 0.0
H890 H 0.70634 0.32371 0.21699 0.0
C891 C 0.86861 0.39787 0.18552 0.0
C892 C 0.7753 0.36982 0.17496 0.0
H893 H 0.71966 0.38117 0.19911 0.0
C894 C 0.75219 0.33623 0.16848 0.0
C895 C 0.76284 0.38712 0.18522 0.0
C896 C 0.786 0.42411 0.19163 0.0
C897 C 0.71794 0.31781 0.17357 0.0
C898 C 0.70646 0.33391 0.18518 0.0
C899 C 0.72853 0.36885 0.19028 0.0
C900 C 0.67561 0.31274 0.19473 0.0
C901 C 0.69563 0.28014 0.16776 0.0
C902 C 0.64249 0.29232 0.18728 0.0
C903 C 0.6166 0.26447 0.19527 0.0
C904 C 0.62357 0.25703 0.21081 0.0
C905 C 0.65518 0.28051 0.21898 0.0
C906 C 0.68099 0.30811 0.21098 0.0
H907 H 0.70994 0.27083 0.16003 0.0
H908 H 0.68588 0.2634 0.17826 0.0
H909 H 0.67287 0.27679 0.16054 0.0
H910 H 0.63761 0.29606 0.17485 0.0
H911 H 0.59218 0.24716 0.18881 0.0
H912 H 0.10905 0.51764 0.11301 0.0
H913 H 0.12038 0.52328 0.08402 0.0
H914 H 0.11779 0.61897 0.08585 0.0
H915 H 0.10707 0.61393 0.11477 0.0
H916 H 1.07978 0.52577 0.05946 0.0
H917 H 0.20806 0.64639 0.06325 0.0
H918 H 0.18855 0.62131 0.08066 0.0
H919 H 0.17548 0.6511 0.07383 0.0
C920 C 0.11105 0.53996 0.10726 0.0
C921 C 0.10721 0.56536 0.11622 0.0
C922 C 0.11757 0.54316 0.09071 0.0
C923 C 0.12057 0.57187 0.08287 0.0
C924 C 0.11645 0.59706 0.09175 0.0
H925 H 0.0872 0.59325 0.98269 0.0
H926 H 0.08488 0.58577 0.01187 0.0
C927 C 0.11001 0.59395 0.10827 0.0
C928 C 0.12626 0.57475 0.06523 0.0
H929 H 0.17852 0.62952 0.03713 0.0
C930 C 0.10157 0.54827 0.05457 0.0
C931 C 0.15499 0.60388 0.05889 0.0
C932 C 0.18348 0.63212 0.06976 0.0
C933 C 0.10407 0.55077 0.03771 0.0
C934 C 0.13164 0.58087 0.03139 0.0
C935 C 0.15714 0.60669 0.04203 0.0
C936 C 0.1338 0.58644 0.01379 0.0
C937 C 1.0771 0.52117 0.02683 0.0
C938 C 0.16272 0.59061 0.00532 0.0
C939 C 0.1642 0.59506 0.98862 0.0
C940 C 0.13679 0.59547 0.98016 0.0
C941 C 0.10837 0.5923 0.98881 0.0
C942 C 0.10697 0.58797 0.00547 0.0
H943 H 1.0643 0.49648 0.03316 0.0
H944 H 1.05672 0.52723 0.02314 0.0
H945 H 0.08879 0.51723 0.0157 0.0
H946 H 0.18382 0.58977 0.01157 0.0
H947 H 0.18635 0.59728 0.98226 0.0
H948 H 0.60739 1.01951 0.44752 0.0
H949 H 0.604 1.0186 0.41791 0.0
H950 H 0.55892 0.0849 0.42096 0.0
H951 H 0.56408 0.08743 0.45056 0.0
H952 H 0.55258 0.99557 0.39706 0.0
H953 H 0.63383 0.13711 0.39068 0.0
H954 H 0.63012 0.11763 0.4098 0.0
H955 H 0.59732 0.12718 0.40292 0.0
C956 C 0.59694 1.03404 0.44185 0.0
C957 C 0.58631 1.05383 0.45129 0.0
C958 C 0.59498 1.03349 0.42494 0.0
C959 C 0.58191 1.0523 0.41717 0.0
C960 C 0.57024 0.07117 0.42663 0.0
H961 H 0.5098 1.01305 0.31581 0.0
H962 H 0.5146 1.01242 0.3454 0.0
C963 C 0.57294 0.07239 0.44355 0.0
C964 C 0.57988 1.05154 0.39919 0.0
H965 H 0.60072 0.10339 0.3671 0.0
C966 C 0.56337 1.01916 0.3905 0.0
C967 C 0.59451 0.08231 0.39058 0.0
C968 C 0.61526 0.11797 0.39898 0.0
C969 C 0.5607 1.01667 0.37349 0.0
C970 C 0.5736 1.04741 0.36494 0.0
C971 C 0.59045 0.07978 0.37363 0.0
C972 C 0.57043 1.04687 0.347 0.0
C973 C 0.54488 0.98114 0.36492 0.0
C974 C 0.59993 0.06731 0.33808 0.0
C975 C 0.59696 0.06848 0.32131 0.0
C976 C 0.56456 1.0488 0.31314 0.0
C977 C 0.53509 1.02804 0.32193 0.0
C978 C 0.53791 1.02747 0.33878 0.0
H979 H 0.54729 0.96241 0.37255 0.0
H980 H 0.51678 0.97104 0.36242 0.0
H981 H 0.55738 0.98206 0.35324 0.0
H982 H 0.62527 0.08258 0.34412 0.0
H983 H 0.61997 0.08471 0.31468 0.0
H984 H 0.55524 0.55207 0.77799 0.0
H985 H 0.56239 0.55012 0.74865 0.0
H986 H 0.66056 0.55459 0.75692 0.0
H987 H 0.6533 0.5557 0.78612 0.0
H988 H 0.61303 0.59737 0.73041 0.0
H989 H 0.61261 0.47273 0.72447 0.0
H990 H 0.59911 0.48627 0.74256 0.0
H991 H 0.64455 0.50277 0.73923 0.0
C992 C 0.57825 0.55243 0.77354 0.0
C993 C 0.60359 0.5538 0.78437 0.0
C994 C 0.58227 0.5513 0.75679 0.0
C995 C 0.61165 0.55148 0.7506 0.0
C996 C 0.63721 0.55341 0.7614 0.0
H997 H 0.70961 0.58414 0.65901 0.0
H998 H 0.69393 0.57749 0.68747 0.0
C999 C 0.63311 0.5543 0.77811 0.0
C1000 C 0.61644 0.55114 0.73288 0.0
H1001 H 0.63368 0.5092 0.70192 0.0
C1002 C 0.6171 0.57785 0.72414 0.0
C1003 C 0.62164 0.52555 0.72471 0.0
C1004 C 0.61909 0.49501 0.7332 0.0
C1005 C 0.62402 0.58031 0.70757 0.0
C1006 C 0.63036 0.55543 0.69959 0.0
C1007 C 0.62902 0.52833 0.70819 0.0
C1008 C 0.63924 0.55771 0.68236 0.0
C1009 C 0.62544 0.60993 0.69871 0.0
C1010 C 0.61347 0.54819 0.67016 0.0
C1011 C 0.62221 0.55152 0.65388 0.0
C1012 C 0.65695 0.56461 0.64954 0.0
C1013 C 0.68257 0.57355 0.66188 0.0
C1014 C 0.67374 0.56999 0.67815 0.0
H1015 H 0.6232 0.62898 0.70701 0.0
H1016 H 0.65019 0.62365 0.69229 0.0
H1017 H 0.60385 0.59951 0.68943 0.0
H1018 H 0.58664 0.53838 0.67325 0.0
H1019 H 0.60173 0.54381 0.64469 0.0
H1020 H 0.64518 1.05054 0.55419 0.0
H1021 H 0.64518 1.04657 0.58369 0.0
H1022 H 0.55426 0.05759 0.58565 0.0
H1023 H 0.55364 0.06095 0.55624 0.0
H1024 H 0.65075 0.09331 0.60798 0.0
H1025 H 0.52462 0.97141 0.61076 0.0
H1026 H 0.54671 0.98601 0.59204 0.0
H1027 H 0.52116 1.0039 0.60008 0.0
C1028 C 0.62511 1.05202 0.56089 0.0
C1029 C 0.59926 0.05583 0.55281 0.0
C1030 C 0.62515 1.04973 0.57775 0.0
C1031 C 0.59931 1.05107 0.58685 0.0
C1032 C 0.57391 0.05555 0.57885 0.0
H1033 H 0.55326 0.06551 0.68639 0.0
H1034 H 0.55625 0.06247 0.65685 0.0
C1035 C 0.57376 0.05771 0.56202 0.0
C1036 C 0.59934 1.0488 0.60476 0.0
H1037 H 0.5483 1.00477 0.63583 0.0
C1038 C 0.62854 0.0737 0.61407 0.0
C1039 C 0.57038 1.02309 0.61269 0.0
C1040 C 0.53909 0.99438 0.60337 0.0
C1041 C 0.62898 0.07443 0.63112 0.0
C1042 C 0.59958 1.0494 0.63902 0.0
C1043 C 0.57074 1.02402 0.62972 0.0
C1044 C 0.59757 1.05019 0.65694 0.0
C1045 C 0.66034 0.10271 0.64056 0.0
C1046 C 0.61946 1.04372 0.66677 0.0
C1047 C 0.61782 1.04544 0.6837 0.0
C1048 C 0.59434 1.0538 0.69106 0.0
C1049 C 0.572 0.05955 0.68112 0.0
C1050 C 0.57353 0.05763 0.66424 0.0
H1051 H 0.67821 0.12353 0.63273 0.0
H1052 H 0.65226 0.11454 0.65047 0.0
H1053 H 0.6749 0.09133 0.64618 0.0
H1054 H 0.63789 1.03749 0.66136 0.0
H1055 H 0.63545 1.04101 0.69102 0.0
H1056 H 0.62694 0.60478 0.89012 0.0
H1057 H 0.62493 0.60184 0.91955 0.0
H1058 H 0.53787 0.49734 0.91438 0.0
H1059 H 0.53918 0.50031 0.88481 0.0
H1060 H 0.52798 0.53596 0.93765 0.0
H1061 H 0.65822 0.55069 0.94722 0.0
H1062 H 0.65967 0.58546 0.93638 0.0
H1063 H 0.63714 0.54183 0.92739 0.0
C1064 C 0.60735 0.5811 0.8952 0.0
C1065 C 0.58333 0.55268 0.88507 0.0
C1066 C 0.60642 0.57939 0.91206 0.0
C1067 C 0.58178 0.54909 0.91919 0.0
C1068 C 0.55732 0.52089 0.90914 0.0
H1069 H 0.59265 0.51263 0.02197 0.0
H1070 H 0.59306 0.50985 0.99225 0.0
C1071 C 0.55808 0.52264 0.89224 0.0
C1072 C 0.58104 0.54729 0.93713 0.0
H1073 H 0.63146 0.55809 0.97085 0.0
C1074 C 0.55052 0.54054 0.9449 0.0
C1075 C 0.61026 0.55266 0.9466 0.0
C1076 C 0.64304 0.5577 0.93897 0.0
C1077 C 0.54876 0.54007 0.96187 0.0
C1078 C 0.57859 0.54735 0.97138 0.0
C1079 C 0.60876 0.553 0.96359 0.0
C1080 C 0.57911 0.54955 0.98941 0.0
C1081 C 0.51479 0.53141 0.96943 0.0
C1082 C 0.57201 0.57337 0.9977 0.0
C1083 C 0.57169 0.57494 0.01463 0.0
C1084 C 0.57889 0.55301 0.02366 0.0
C1085 C 0.58714 0.52996 0.01536 0.0
C1086 C 0.58723 0.52825 0.99839 0.0
H1087 H 0.49242 0.51641 0.96069 0.0
H1088 H 0.51054 0.51613 0.98031 0.0
H1089 H 0.51523 0.55587 0.97317 0.0
H1090 H 0.56673 0.59083 0.99108 0.0
H1091 H 0.56593 0.59347 0.02068 0.0
H1092 H 0.12515 0.60844 0.22339 0.0
H1093 H 0.12216 0.60419 0.25281 0.0
H1094 H 1.03677 0.499 0.24651 0.0
H1095 H 1.03967 0.50282 0.21703 0.0
H1096 H 1.06625 0.58944 0.27316 0.0
H1097 H 0.10754 0.4906 0.27594 0.0
H1098 H 0.11302 0.51508 0.25824 0.0
H1099 H 1.07107 0.47925 0.26238 0.0
C1100 C 0.10568 0.58436 0.22822 0.0
C1101 C 0.08278 0.5559 0.2178 0.0
C1102 C 0.10399 0.58201 0.24506 0.0
C1103 C 1.07956 0.55114 0.25185 0.0
C1104 C 1.05623 0.52288 0.24153 0.0
H1105 H 1.03353 0.5355 0.35538 0.0
H1106 H 1.02781 0.53184 0.32567 0.0
C1107 C 1.05783 0.5252 0.22467 0.0
C1108 C 1.07868 0.5487 0.26974 0.0
H1109 H 0.09193 0.50725 0.30057 0.0
C1110 C 1.07169 0.57136 0.27916 0.0
C1111 C 0.08613 0.52532 0.27754 0.0
C1112 C 0.09516 0.50133 0.26807 0.0
C1113 C 1.07205 0.57136 0.29619 0.0
C1114 C 1.0792 0.54777 0.30398 0.0
C1115 C 0.08611 0.52505 0.29456 0.0
C1116 C 1.08174 0.54779 0.32193 0.0
C1117 C 1.06584 0.59732 0.30572 0.0
C1118 C 0.11364 0.55686 0.32965 0.0
C1119 C 0.11693 0.55875 0.34657 0.0
C1120 C 0.0883 0.55143 0.35615 0.0
C1121 C 1.05604 0.5412 0.34836 0.0
C1122 C 1.05281 0.53942 0.3314 0.0
H1123 H 1.06784 0.6182 0.2981 0.0
H1124 H 1.03935 0.58377 0.31056 0.0
H1125 H 0.08476 0.60943 0.31616 0.0
H1126 H 0.13624 0.56317 0.32258 0.0
H1127 H 0.14199 0.56612 0.35217 0.0
loop_
_geom_bond_atom_site_label_1
_geom_bond_atom_site_label_2
_geom_bond_distance
_geom_bond_site_symmetry_2
_ccdc_geom_bond_type
Eu0 C9 2.828 . S
Eu0 O11 2.392 1_655 S
Eu0 O13 2.418 . S
Eu0 O18 2.373 . S
Eu0 O21 2.488 . S
Eu0 O22 2.471 . S
Eu0 O23 2.349 . S
Eu1 O10 2.373 . S
Eu1 O14 2.488 . S
Eu1 O15 2.471 . S
Eu1 O16 2.349 . S
Eu1 O19 2.392 1_455 S
Eu1 O20 2.418 . S
Eu1 C30 2.828 . S
C2 O20 1.244 . S
C2 O23 1.265 1_455 S
C3 C4 1.379 . S
C3 C7 1.373 . S
C3 C9 1.505 . S
C4 C3 1.379 . S
C4 C6 1.369 . S
C4 H32 0.930 . S
C5 C7 1.383 . S
C5 C8 1.382 . S
C5 H33 0.930 . S
C6 C4 1.369 . S
C6 C8 1.392 . S
C6 H34 0.930 . S
C7 C3 1.373 . S
C7 C5 1.383 . S
C7 H35 0.931 . S
C8 C5 1.382 . S
C8 C6 1.392 . S
C9 Eu0 2.828 . S
C9 C3 1.505 . S
C9 O21 1.249 . S
C9 O22 1.244 . S
O10 Eu1 2.373 . S
O10 C12 1.258 . S
O11 Eu0 2.392 1_455 S
O11 C12 1.242 . S
C12 O10 1.258 . S
C12 O11 1.242 . S
O13 Eu0 2.418 . S
O13 C17 1.244 1_655 S
O14 Eu1 2.488 . S
O14 C30 1.249 . S
O15 Eu1 2.471 . S
O15 C30 1.244 . S
O16 Eu1 2.349 . S
O16 C17 1.265 . S
C17 O13 1.244 1_455 S
C17 O16 1.265 . S
O18 Eu0 2.373 . S
O18 C31 1.258 . S
O19 Eu1 2.392 1_655 S
O19 C31 1.242 . S
O20 Eu1 2.418 . S
O20 C2 1.244 . S
O21 Eu0 2.488 . S
O21 C9 1.249 . S
O22 Eu0 2.471 . S
O22 C9 1.244 . S
O23 Eu0 2.349 . S
O23 C2 1.265 1_655 S
C24 C25 1.379 . S
C24 C28 1.373 . S
C24 C30 1.505 . S
C25 C24 1.379 . S
C25 C27 1.369 . S
C25 H36 0.930 . S
C26 C28 1.383 . S
C26 C29 1.382 . S
C26 H37 0.930 . S
C27 C25 1.369 . S
C27 C29 1.392 . S
C27 H38 0.930 . S
C28 C24 1.373 . S
C28 C26 1.383 . S
C28 H39 0.931 . S
C29 C26 1.382 . S
C29 C27 1.392 . S
C30 Eu1 2.828 . S
C30 O14 1.249 . S
C30 O15 1.244 . S
C30 C24 1.505 . S
C31 O18 1.258 . S
C31 O19 1.242 . S
H32 C4 0.930 . S
H33 C5 0.930 . S
H34 C6 0.930 . S
H35 C7 0.931 . S
H36 C25 0.930 . S
H37 C26 0.930 . S
H38 C27 0.930 . S
H39 C28 0.931 . S
Eu40 C49 2.828 . S
Eu40 O51 2.392 1_565 S
Eu40 O53 2.418 . S
Eu40 O58 2.373 . S
Eu40 O61 2.488 . S
Eu40 O62 2.471 . S
Eu40 O63 2.331 1_565 S
Eu41 O50 2.373 . S
Eu41 O54 2.488 . S
Eu41 O55 2.471 . S
Eu41 O56 2.349 . S
Eu41 O59 2.392 1_545 S
Eu41 O60 2.418 . S
Eu41 C70 2.828 . S
C42 O60 1.244 . S
C42 O63 1.284 . S
C43 C44 1.379 . S
C43 C47 1.373 . S
C43 C49 1.505 . S
C44 C43 1.379 . S
C44 C46 1.369 . S
C44 H72 0.930 . S
C45 C47 1.383 . S
C45 C48 1.382 . S
C45 H73 0.930 . S
C46 C44 1.369 . S
C46 C48 1.392 . S
C46 H74 0.930 . S
C47 C43 1.373 . S
C47 C45 1.383 . S
C47 H75 0.931 . S
C48 C45 1.382 . S
C48 C46 1.392 . S
C49 Eu40 2.828 . S
C49 C43 1.505 . S
C49 O61 1.249 . S
C49 O62 1.244 . S
O50 Eu41 2.373 . S
O50 C52 1.258 . S
O51 Eu40 2.392 1_545 S
O51 C52 1.242 . S
C52 O50 1.258 . S
C52 O51 1.242 . S
O53 Eu40 2.418 . S
O53 C57 1.244 1_565 S
O54 Eu41 2.488 . S
O54 C70 1.249 . S
O55 Eu41 2.471 . S
O55 C70 1.244 . S
O56 Eu41 2.349 . S
O56 C57 1.265 . S
C57 O53 1.244 1_545 S
C57 O56 1.265 . S
O58 Eu40 2.373 . S
O58 C71 1.258 . S
O59 Eu41 2.392 1_565 S
O59 C71 1.242 . S
O60 Eu41 2.418 . S
O60 C42 1.244 . S
O61 Eu40 2.488 . S
O61 C49 1.249 . S
O62 Eu40 2.471 . S
O62 C49 1.244 . S
O63 Eu40 2.331 1_545 S
O63 C42 1.284 . S
C64 C65 1.379 . S
C64 C68 1.373 . S
C64 C70 1.505 . S
C65 C64 1.379 . S
C65 C67 1.369 . S
C65 H76 0.930 . S
C66 C68 1.383 . S
C66 C69 1.382 . S
C66 H77 0.930 . S
C67 C65 1.369 . S
C67 C69 1.392 . S
C67 H78 0.930 . S
C68 C64 1.373 . S
C68 C66 1.383 . S
C68 H79 0.931 . S
C69 C66 1.382 . S
C69 C67 1.392 . S
C70 Eu41 2.828 . S
C70 O54 1.249 . S
C70 O55 1.244 . S
C70 C64 1.505 . S
C71 O58 1.258 . S
C71 O59 1.242 . S
H72 C44 0.930 . S
H73 C45 0.930 . S
H74 C46 0.930 . S
H75 C47 0.931 . S
H76 C65 0.930 . S
H77 C66 0.930 . S
H78 C67 0.930 . S
H79 C68 0.931 . S
Eu80 C89 2.828 . S
Eu80 O91 2.392 . S
Eu80 O93 2.418 . S
Eu80 O98 2.373 . S
Eu80 O101 2.488 . S
Eu80 O102 2.471 . S
Eu80 O103 2.349 . S
Eu81 O90 2.373 . S
Eu81 O94 2.488 . S
Eu81 O95 2.471 . S
Eu81 O96 2.349 . S
Eu81 O99 2.392 . S
Eu81 O100 2.418 . S
Eu81 C110 2.828 . S
C82 O100 1.244 . S
C82 O103 1.265 . S
C83 C84 1.379 . S
C83 C87 1.373 . S
C83 C89 1.505 . S
C84 C83 1.379 . S
C84 C86 1.369 . S
C84 H112 0.930 . S
C85 C87 1.383 . S
C85 C88 1.382 . S
C85 H113 0.930 . S
C86 C84 1.369 . S
C86 C88 1.392 . S
C86 H114 0.930 . S
C87 C83 1.373 . S
C87 C85 1.383 . S
C87 H115 0.931 . S
C88 C85 1.382 . S
C88 C86 1.392 . S
C89 Eu80 2.828 . S
C89 C83 1.505 . S
C89 O101 1.249 . S
C89 O102 1.244 . S
O90 Eu81 2.373 . S
O90 C92 1.258 . S
O91 Eu80 2.392 . S
O91 C92 1.242 . S
C92 O90 1.258 . S
C92 O91 1.242 . S
O93 Eu80 2.418 . S
O93 C97 1.244 . S
O94 Eu81 2.488 . S
O94 C110 1.249 . S
O95 Eu81 2.471 . S
O95 C110 1.244 . S
O96 Eu81 2.349 . S
O96 C97 1.265 . S
C97 O93 1.244 . S
C97 O96 1.265 . S
O98 Eu80 2.373 . S
O98 C111 1.258 . S
O99 Eu81 2.392 . S
O99 C111 1.242 . S
O100 Eu81 2.418 . S
O100 C82 1.244 . S
O101 Eu80 2.488 . S
O101 C89 1.249 . S
O102 Eu80 2.471 . S
O102 C89 1.244 . S
O103 Eu80 2.349 . S
O103 C82 1.265 . S
C104 C105 1.379 . S
C104 C108 1.373 . S
C104 C110 1.505 . S
C105 C104 1.379 . S
C105 C107 1.369 . S
C105 H116 0.930 . S
C106 C108 1.383 . S
C106 C109 1.382 . S
C106 H117 0.930 . S
C107 C105 1.369 . S
C107 C109 1.392 . S
C107 H118 0.930 . S
C108 C104 1.373 . S
C108 C106 1.383 . S
C108 H119 0.931 . S
C109 C106 1.382 . S
C109 C107 1.392 . S
C110 Eu81 2.828 . S
C110 O94 1.249 . S
C110 O95 1.244 . S
C110 C104 1.505 . S
C111 O98 1.258 . S
C111 O99 1.242 . S
H112 C84 0.930 . S
H113 C85 0.930 . S
H114 C86 0.930 . S
H115 C87 0.931 . S
H116 C105 0.930 . S
H117 C106 0.930 . S
H118 C107 0.930 . S
H119 C108 0.931 . S
C120 C121 1.391 . S
C120 C124 1.391 . S
C120 H162 0.948 . S
C121 C120 1.391 . S
C121 C122 1.391 . S
C122 C121 1.391 . S
C122 H178 0.947 . S
C122 C179 1.392 . S
C123 C124 1.391 . S
C123 C127 1.397 . S
C123 C179 1.419 . S
C124 C120 1.391 . S
C124 C123 1.391 . S
C124 C125 1.399 . S
C125 C124 1.399 . S
C125 C128 1.396 . S
C125 C137 1.453 . S
C125 C138 1.684 . S
H126 C150 0.948 . S
C127 C123 1.397 . S
C127 C128 1.394 . S
C127 C146 1.723 . S
C128 C125 1.396 . S
C128 C127 1.394 . S
C128 C158 1.723 . S
H129 C152 0.947 . S
H130 C153 0.948 . S
H131 C159 0.982 . S
H132 C160 0.979 . S
H133 C160 0.980 . S
H134 C160 0.983 . S
H135 C159 0.979 . S
H136 C159 0.977 . S
C137 C125 1.453 . S
C137 H166 0.982 . S
C137 H167 0.979 . S
C137 H168 0.977 . S
C138 C125 1.684 . S
C138 H163 0.979 . S
C138 H164 0.980 . S
C138 H165 0.983 . S
C139 C140 1.391 . S
C139 C144 1.391 . S
C139 H169 0.948 . S
C140 C139 1.391 . S
C140 C141 1.391 1_545 S
C141 C140 1.391 1_565 S
C141 C142 1.392 . S
C141 H170 0.947 . S
C142 C141 1.392 . S
C142 C143 1.419 1_565 S
C142 H171 0.948 . S
C143 C142 1.419 1_545 S
C143 C144 1.391 . S
C143 C147 1.397 . S
C144 C139 1.391 . S
C144 C143 1.391 . S
C144 C145 1.399 . S
C145 C144 1.399 . S
C145 C146 1.396 . S
C145 C148 1.453 . S
C145 C149 1.684 . S
C146 C127 1.723 . S
C146 C145 1.396 . S
C146 C147 1.394 . S
C147 C143 1.397 . S
C147 C146 1.394 . S
C147 C157 1.723 1_545 S
C148 C145 1.453 . S
C148 H172 0.982 . S
C148 H173 0.979 . S
C148 H174 0.977 . S
C149 C145 1.684 . S
C149 H175 0.979 . S
C149 H176 0.980 . S
C149 H177 0.983 . S
C150 H126 0.948 . S
C150 C151 1.391 . S
C150 C155 1.391 . S
C151 C150 1.391 . S
C151 C152 1.391 . S
C152 H129 0.947 . S
C152 C151 1.391 . S
C152 C153 1.392 . S
C153 H130 0.948 . S
C153 C152 1.392 . S
C153 C154 1.419 . S
C154 C153 1.419 . S
C154 C155 1.391 . S
C154 C158 1.397 1_565 S
C155 C150 1.391 . S
C155 C154 1.391 . S
C155 C156 1.399 . S
C156 C155 1.399 . S
C156 C157 1.396 . S
C156 C159 1.453 . S
C156 C160 1.684 . S
C157 C147 1.723 1_565 S
C157 C156 1.396 . S
C157 C158 1.394 1_565 S
C158 C128 1.723 . S
C158 C154 1.397 1_545 S
C158 C157 1.394 1_545 S
C159 H131 0.982 . S
C159 H135 0.979 . S
C159 H136 0.977 . S
C159 C156 1.453 . S
C160 H132 0.979 . S
C160 H133 0.980 . S
C160 H134 0.983 . S
C160 C156 1.684 . S
H161 C179 0.948 . S
H162 C120 0.948 . S
H163 C138 0.979 . S
H164 C138 0.980 . S
H165 C138 0.983 . S
H166 C137 0.982 . S
H167 C137 0.979 . S
H168 C137 0.977 . S
H169 C139 0.948 . S
H170 C141 0.947 . S
H171 C142 0.948 . S
H172 C148 0.982 . S
H173 C148 0.979 . S
H174 C148 0.977 . S
H175 C149 0.979 . S
H176 C149 0.980 . S
H177 C149 0.983 . S
H178 C122 0.947 . S
C179 C122 1.392 . S
C179 C123 1.419 . S
C179 H161 0.948 . S
C180 C181 1.391 . S
C180 C184 1.391 . S
C180 H222 0.948 . S
C181 C180 1.391 . S
C181 C182 1.391 . S
C182 C181 1.391 . S
C182 H238 0.947 . S
C182 C239 1.392 . S
C183 C184 1.391 . S
C183 C187 1.397 . S
C183 C239 1.419 . S
C184 C180 1.391 . S
C184 C183 1.391 . S
C184 C185 1.399 . S
C185 C184 1.399 . S
C185 C188 1.396 . S
C185 C197 1.453 . S
C185 C198 1.684 . S
H186 C210 0.948 . S
C187 C183 1.397 . S
C187 C188 1.394 . S
C187 C206 1.723 . S
C188 C185 1.396 . S
C188 C187 1.394 . S
C188 C218 1.723 . S
H189 C212 0.947 . S
H190 C213 0.948 . S
H191 C219 0.982 . S
H192 C220 0.979 . S
H193 C220 0.980 . S
H194 C220 0.983 . S
H195 C219 0.979 . S
H196 C219 0.977 . S
C197 C185 1.453 . S
C197 H226 0.982 . S
C197 H227 0.979 . S
C197 H228 0.977 . S
C198 C185 1.684 . S
C198 H223 0.979 . S
C198 H224 0.980 . S
C198 H225 0.983 . S
C199 C200 1.391 . S
C199 C204 1.391 . S
C199 H229 0.948 . S
C200 C199 1.391 . S
C200 C201 1.391 . S
C201 C200 1.391 . S
C201 C202 1.392 . S
C201 H230 0.947 . S
C202 C201 1.392 . S
C202 C203 1.419 . S
C202 H231 0.948 . S
C203 C202 1.419 . S
C203 C204 1.391 . S
C203 C207 1.397 . S
C204 C199 1.391 . S
C204 C203 1.391 . S
C204 C205 1.399 . S
C205 C204 1.399 . S
C205 C206 1.396 . S
C205 C208 1.453 . S
C205 C209 1.684 . S
C206 C187 1.723 . S
C206 C205 1.396 . S
C206 C207 1.394 . S
C207 C203 1.397 . S
C207 C206 1.394 . S
C207 C217 1.723 . S
C208 C205 1.453 . S
C208 H232 0.982 . S
C208 H233 0.979 . S
C208 H234 0.977 . S
C209 C205 1.684 . S
C209 H235 0.979 . S
C209 H236 0.980 . S
C209 H237 0.983 . S
C210 H186 0.948 . S
C210 C211 1.391 . S
C210 C215 1.391 . S
C211 C210 1.391 . S
C211 C212 1.391 . S
C212 H189 0.947 . S
C212 C211 1.391 . S
C212 C213 1.392 . S
C213 H190 0.948 . S
C213 C212 1.392 . S
C213 C214 1.419 . S
C214 C213 1.419 . S
C214 C215 1.391 . S
C214 C218 1.397 . S
C215 C210 1.391 . S
C215 C214 1.391 . S
C215 C216 1.399 . S
C216 C215 1.399 . S
C216 C217 1.396 . S
C216 C219 1.453 . S
C216 C220 1.684 . S
C217 C207 1.723 . S
C217 C216 1.396 . S
C217 C218 1.394 . S
C218 C188 1.723 . S
C218 C214 1.397 . S
C218 C217 1.394 . S
C219 H191 0.982 . S
C219 H195 0.979 . S
C219 H196 0.977 . S
C219 C216 1.453 . S
C220 H192 0.979 . S
C220 H193 0.980 . S
C220 H194 0.983 . S
C220 C216 1.684 . S
H221 C239 0.948 . S
H222 C180 0.948 . S
H223 C198 0.979 . S
H224 C198 0.980 . S
H225 C198 0.983 . S
H226 C197 0.982 . S
H227 C197 0.979 . S
H228 C197 0.977 . S
H229 C199 0.948 . S
H230 C201 0.947 . S
H231 C202 0.948 . S
H232 C208 0.982 . S
H233 C208 0.979 . S
H234 C208 0.977 . S
H235 C209 0.979 . S
H236 C209 0.980 . S
H237 C209 0.983 . S
H238 C182 0.947 . S
C239 C182 1.392 . S
C239 C183 1.419 . S
C239 H221 0.948 . S
C240 C241 1.391 . S
C240 C244 1.391 . S
C240 H282 0.948 . S
C241 C240 1.391 . S
C241 C242 1.391 . S
C242 C241 1.391 . S
C242 H298 0.947 . S
C242 C299 1.392 . S
C243 C244 1.391 . S
C243 C247 1.397 . S
C243 C299 1.419 . S
C244 C240 1.391 . S
C244 C243 1.391 . S
C244 C245 1.399 . S
C245 C244 1.399 . S
C245 C248 1.396 . S
C245 C257 1.453 . S
C245 C258 1.684 . S
H246 C270 0.948 . S
C247 C243 1.397 . S
C247 C248 1.394 . S
C247 C266 1.723 . S
C248 C245 1.396 . S
C248 C247 1.394 . S
C248 C278 1.723 . S
H249 C272 0.947 . S
H250 C273 0.948 1_455 S
H251 C279 0.982 . S
H252 C280 0.979 . S
H253 C280 0.980 . S
H254 C280 0.983 . S
H255 C279 0.979 . S
H256 C279 0.977 . S
C257 C245 1.453 . S
C257 H286 0.982 . S
C257 H287 0.979 . S
C257 H288 0.977 . S
C258 C245 1.684 . S
C258 H283 0.979 . S
C258 H284 0.980 . S
C258 H285 0.983 . S
C259 C260 1.391 . S
C259 C264 1.391 . S
C259 H289 0.948 . S
C260 C259 1.391 . S
C260 C261 1.391 . S
C261 C260 1.391 . S
C261 C262 1.392 . S
C261 H290 0.947 1_455 S
C262 C261 1.392 . S
C262 C263 1.419 . S
C262 H291 0.948 1_455 S
C263 C262 1.419 . S
C263 C264 1.391 . S
C263 C267 1.397 . S
C264 C259 1.391 . S
C264 C263 1.391 . S
C264 C265 1.399 . S
C265 C264 1.399 . S
C265 C266 1.396 . S
C265 C268 1.453 . S
C265 C269 1.684 . S
C266 C247 1.723 . S
C266 C265 1.396 . S
C266 C267 1.394 . S
C267 C263 1.397 . S
C267 C266 1.394 . S
C267 C277 1.723 . S
C268 C265 1.453 . S
C268 H292 0.982 . S
C268 H293 0.979 . S
C268 H294 0.977 . S
C269 C265 1.684 . S
C269 H295 0.979 . S
C269 H296 0.980 . S
C269 H297 0.983 . S
C270 H246 0.948 . S
C270 C271 1.391 . S
C270 C275 1.391 . S
C271 C270 1.391 . S
C271 C272 1.391 . S
C272 H249 0.947 . S
C272 C271 1.391 . S
C272 C273 1.392 . S
C273 H250 0.948 1_655 S
C273 C272 1.392 . S
C273 C274 1.419 . S
C274 C273 1.419 . S
C274 C275 1.391 . S
C274 C278 1.397 1_655 S
C275 C270 1.391 . S
C275 C274 1.391 . S
C275 C276 1.399 . S
C276 C275 1.399 . S
C276 C277 1.396 1_655 S
C276 C279 1.453 . S
C276 C280 1.684 . S
C277 C267 1.723 . S
C277 C276 1.396 1_455 S
C277 C278 1.394 . S
C278 C248 1.723 . S
C278 C274 1.397 1_455 S
C278 C277 1.394 . S
C279 H251 0.982 . S
C279 H255 0.979 . S
C279 H256 0.977 . S
C279 C276 1.453 . S
C280 H252 0.979 . S
C280 H253 0.980 . S
C280 H254 0.983 . S
C280 C276 1.684 . S
H281 C299 0.948 . S
H282 C240 0.948 . S
H283 C258 0.979 . S
H284 C258 0.980 . S
H285 C258 0.983 . S
H286 C257 0.982 . S
H287 C257 0.979 . S
H288 C257 0.977 . S
H289 C259 0.948 . S
H290 C261 0.947 1_655 S
H291 C262 0.948 1_655 S
H292 C268 0.982 . S
H293 C268 0.979 . S
H294 C268 0.977 . S
H295 C269 0.979 . S
H296 C269 0.980 . S
H297 C269 0.983 . S
H298 C242 0.947 . S
C299 C242 1.392 . S
C299 C243 1.419 . S
C299 H281 0.948 . S
C300 C301 1.391 . S
C300 C304 1.391 . S
C300 H342 0.948 . S
C301 C300 1.391 . S
C301 C302 1.391 . S
C302 C301 1.391 . S
C302 H358 0.947 . S
C302 C359 1.392 . S
C303 C304 1.391 . S
C303 C307 1.397 . S
C303 C359 1.419 . S
C304 C300 1.391 . S
C304 C303 1.391 . S
C304 C305 1.399 1_655 S
C305 C304 1.399 1_455 S
C305 C308 1.396 . S
C305 C317 1.453 . S
C305 C318 1.684 . S
H306 C330 0.948 . S
C307 C303 1.397 . S
C307 C308 1.394 1_655 S
C307 C326 1.723 . S
C308 C305 1.396 . S
C308 C307 1.394 1_455 S
C308 C338 1.723 . S
H309 C332 0.947 . S
H310 C333 0.948 . S
H311 C339 0.982 . S
H312 C340 0.979 . S
H313 C340 0.980 . S
H314 C340 0.983 . S
H315 C339 0.979 . S
H316 C339 0.977 . S
C317 C305 1.453 . S
C317 H346 0.982 . S
C317 H347 0.979 . S
C317 H348 0.977 . S
C318 C305 1.684 . S
C318 H343 0.979 1_455 S
C318 H344 0.980 . S
C318 H345 0.983 1_455 S
C319 C320 1.391 1_655 S
C319 C324 1.395 . S
C319 H349 0.948 . S
C320 C319 1.391 1_455 S
C320 C321 1.391 . S
C321 C320 1.391 . S
C321 C322 1.392 . S
C321 H350 0.947 . S
C322 C321 1.392 . S
C322 C323 1.419 . S
C322 H351 0.948 . S
C323 C322 1.419 . S
C323 C324 1.371 1_455 S
C323 C327 1.397 . S
C324 C319 1.395 . S
C324 C323 1.371 1_655 S
C324 C325 1.410 . S
C325 C324 1.410 . S
C325 C326 1.402 . S
C325 C328 1.453 . S
C325 C329 1.684 . S
C326 C307 1.723 . S
C326 C325 1.402 . S
C326 C327 1.389 1_655 S
C327 C323 1.397 . S
C327 C326 1.389 1_455 S
C327 C337 1.723 . S
C328 C325 1.453 . S
C328 H352 0.982 . S
C328 H353 0.979 . S
C328 H354 0.977 . S
C329 C325 1.684 . S
C329 H355 0.979 . S
C329 H356 0.980 . S
C329 H357 0.983 . S
C330 H306 0.948 . S
C330 C331 1.391 . S
C330 C335 1.391 . S
C331 C330 1.391 . S
C331 C332 1.391 . S
C332 H309 0.947 . S
C332 C331 1.391 . S
C332 C333 1.392 . S
C333 H310 0.948 . S
C333 C332 1.392 . S
C333 C334 1.419 . S
C334 C333 1.419 . S
C334 C335 1.391 . S
C334 C338 1.397 . S
C335 C330 1.391 . S
C335 C334 1.391 . S
C335 C336 1.399 . S
C336 C335 1.399 . S
C336 C337 1.396 . S
C336 C339 1.453 . S
C336 C340 1.684 . S
C337 C327 1.723 . S
C337 C336 1.396 . S
C337 C338 1.394 . S
C338 C308 1.723 . S
C338 C334 1.397 . S
C338 C337 1.394 . S
C339 H311 0.982 . S
C339 H315 0.979 . S
C339 H316 0.977 . S
C339 C336 1.453 . S
C340 H312 0.979 . S
C340 H313 0.980 . S
C340 H314 0.983 . S
C340 C336 1.684 . S
H341 C359 0.948 . S
H342 C300 0.948 . S
H343 C318 0.979 1_655 S
H344 C318 0.980 . S
H345 C318 0.983 1_655 S
H346 C317 0.982 . S
H347 C317 0.979 . S
H348 C317 0.977 . S
H349 C319 0.948 . S
H350 C321 0.947 . S
H351 C322 0.948 . S
H352 C328 0.982 . S
H353 C328 0.979 . S
H354 C328 0.977 . S
H355 C329 0.979 . S
H356 C329 0.980 . S
H357 C329 0.983 . S
H358 C302 0.947 . S
C359 C302 1.392 . S
C359 C303 1.419 . S
C359 H341 0.948 . S
C360 C361 1.391 . S
C360 C364 1.391 . S
C360 H402 0.948 . S
C361 C360 1.391 . S
C361 C362 1.391 . S
C362 C361 1.391 . S
C362 H418 0.947 . S
C362 C419 1.392 . S
C363 C364 1.391 . S
C363 C367 1.397 . S
C363 C419 1.419 . S
C364 C360 1.391 . S
C364 C363 1.391 . S
C364 C365 1.399 . S
C365 C364 1.399 . S
C365 C368 1.396 1_565 S
C365 C377 1.453 1_565 S
C365 C378 1.684 . S
H366 C390 0.948 . S
C367 C363 1.397 . S
C367 C368 1.394 1_565 S
C367 C386 1.723 . S
C368 C365 1.396 1_545 S
C368 C367 1.394 1_545 S
C368 C398 1.723 . S
H369 C392 0.947 . S
H370 C393 0.948 . S
H371 C399 0.982 . S
H372 C400 0.979 . S
H373 C400 0.980 . S
H374 C400 0.983 . S
H375 C399 0.979 . S
H376 C399 0.977 . S
C377 C365 1.453 1_545 S
C377 H406 0.982 . S
C377 H407 0.979 . S
C377 H408 0.977 . S
C378 C365 1.684 . S
C378 H403 0.979 . S
C378 H404 0.980 1_565 S
C378 H405 0.983 . S
C379 C380 1.391 1_565 S
C379 C384 1.391 . S
C379 H409 0.948 . S
C380 C379 1.391 1_545 S
C380 C381 1.391 . S
C381 C380 1.391 . S
C381 C382 1.392 . S
C381 H410 0.947 . S
C382 C381 1.392 . S
C382 C383 1.419 . S
C382 H411 0.948 . S
C383 C382 1.419 . S
C383 C384 1.391 1_545 S
C383 C387 1.397 . S
C384 C379 1.391 . S
C384 C383 1.391 1_565 S
C384 C385 1.399 . S
C385 C384 1.399 . S
C385 C386 1.396 . S
C385 C388 1.453 . S
C385 C389 1.684 . S
C386 C367 1.723 . S
C386 C385 1.396 . S
C386 C387 1.394 1_565 S
C387 C383 1.397 . S
C387 C386 1.394 1_545 S
C387 C397 1.723 . S
C388 C385 1.453 . S
C388 H412 0.982 . S
C388 H413 0.979 . S
C388 H414 0.977 . S
C389 C385 1.684 . S
C389 H415 0.979 . S
C389 H416 0.980 . S
C389 H417 0.983 . S
C390 H366 0.948 . S
C390 C391 1.391 . S
C390 C395 1.391 . S
C391 C390 1.391 . S
C391 C392 1.391 . S
C392 H369 0.947 . S
C392 C391 1.391 . S
C392 C393 1.392 . S
C393 H370 0.948 . S
C393 C392 1.392 . S
C393 C394 1.419 . S
C394 C393 1.419 . S
C394 C395 1.391 . S
C394 C398 1.397 . S
C395 C390 1.391 . S
C395 C394 1.391 . S
C395 C396 1.399 . S
C396 C395 1.399 . S
C396 C397 1.396 . S
C396 C399 1.453 . S
C396 C400 1.684 . S
C397 C387 1.723 . S
C397 C396 1.396 . S
C397 C398 1.394 . S
C398 C368 1.723 . S
C398 C394 1.397 . S
C398 C397 1.394 . S
C399 H371 0.982 . S
C399 H375 0.979 . S
C399 H376 0.977 . S
C399 C396 1.453 . S
C400 H372 0.979 . S
C400 H373 0.980 . S
C400 H374 0.983 . S
C400 C396 1.684 . S
H401 C419 0.948 . S
H402 C360 0.948 . S
H403 C378 0.979 . S
H404 C378 0.980 1_545 S
H405 C378 0.983 . S
H406 C377 0.982 . S
H407 C377 0.979 . S
H408 C377 0.977 . S
H409 C379 0.948 . S
H410 C381 0.947 . S
H411 C382 0.948 . S
H412 C388 0.982 . S
H413 C388 0.979 . S
H414 C388 0.977 . S
H415 C389 0.979 . S
H416 C389 0.980 . S
H417 C389 0.983 . S
H418 C362 0.947 . S
C419 C362 1.392 . S
C419 C363 1.419 . S
C419 H401 0.948 . S
C420 C421 1.391 . S
C420 C424 1.391 . S
C420 H462 0.948 . S
C421 C420 1.391 . S
C421 C422 1.391 . S
C422 C421 1.391 . S
C422 H478 0.947 . S
C422 C479 1.392 . S
C423 C424 1.391 . S
C423 C427 1.397 . S
C423 C479 1.419 . S
C424 C420 1.391 . S
C424 C423 1.391 . S
C424 C425 1.399 . S
C425 C424 1.399 . S
C425 C428 1.396 . S
C425 C437 1.453 . S
C425 C438 1.684 . S
H426 C450 0.948 . S
C427 C423 1.397 . S
C427 C428 1.394 . S
C427 C446 1.723 . S
C428 C425 1.396 . S
C428 C427 1.394 . S
C428 C458 1.723 . S
H429 C452 0.947 . S
H430 C453 0.948 . S
H431 C459 0.982 . S
H432 C460 0.979 . S
H433 C460 0.980 . S
H434 C460 0.983 . S
H435 C459 0.979 . S
H436 C459 0.977 . S
C437 C425 1.453 . S
C437 H466 0.982 . S
C437 H467 0.979 . S
C437 H468 0.977 . S
C438 C425 1.684 . S
C438 H463 0.979 . S
C438 H464 0.980 . S
C438 H465 0.983 . S
C439 C440 1.391 . S
C439 C444 1.391 . S
C439 H469 0.948 . S
C440 C439 1.391 . S
C440 C441 1.391 . S
C441 C440 1.391 . S
C441 C442 1.392 . S
C441 H470 0.947 . S
C442 C441 1.392 . S
C442 C443 1.419 . S
C442 H471 0.948 . S
C443 C442 1.419 . S
C443 C444 1.391 . S
C443 C447 1.397 . S
C444 C439 1.391 . S
C444 C443 1.391 . S
C444 C445 1.399 . S
C445 C444 1.399 . S
C445 C446 1.396 . S
C445 C448 1.453 . S
C445 C449 1.684 . S
C446 C427 1.723 . S
C446 C445 1.396 . S
C446 C447 1.394 . S
C447 C443 1.397 . S
C447 C446 1.394 . S
C447 C457 1.723 . S
C448 C445 1.453 . S
C448 H472 0.982 . S
C448 H473 0.979 . S
C448 H474 0.977 . S
C449 C445 1.684 . S
C449 H475 0.979 . S
C449 H476 0.980 . S
C449 H477 0.983 . S
C450 H426 0.948 . S
C450 C451 1.391 . S
C450 C455 1.391 . S
C451 C450 1.391 . S
C451 C452 1.391 . S
C452 H429 0.947 . S
C452 C451 1.391 . S
C452 C453 1.392 . S
C453 H430 0.948 . S
C453 C452 1.392 . S
C453 C454 1.419 . S
C454 C453 1.419 . S
C454 C455 1.391 . S
C454 C458 1.397 . S
C455 C450 1.391 . S
C455 C454 1.391 . S
C455 C456 1.399 . S
C456 C455 1.399 . S
C456 C457 1.396 . S
C456 C459 1.453 . S
C456 C460 1.684 . S
C457 C447 1.723 . S
C457 C456 1.396 . S
C457 C458 1.394 . S
C458 C428 1.723 . S
C458 C454 1.397 . S
C458 C457 1.394 . S
C459 H431 0.982 . S
C459 H435 0.979 . S
C459 H436 0.977 . S
C459 C456 1.453 . S
C460 H432 0.979 . S
C460 H433 0.980 . S
C460 H434 0.983 . S
C460 C456 1.684 . S
H461 C479 0.948 . S
H462 C420 0.948 . S
H463 C438 0.979 . S
H464 C438 0.980 . S
H465 C438 0.983 . S
H466 C437 0.982 . S
H467 C437 0.979 . S
H468 C437 0.977 . S
H469 C439 0.948 . S
H470 C441 0.947 . S
H471 C442 0.948 . S
H472 C448 0.982 . S
H473 C448 0.979 . S
H474 C448 0.977 . S
H475 C449 0.979 . S
H476 C449 0.980 . S
H477 C449 0.983 . S
H478 C422 0.947 . S
C479 C422 1.392 . S
C479 C423 1.419 . S
C479 H461 0.948 . S
H480 C488 0.929 . S
H481 C490 0.930 . S
H482 C492 0.930 . S
H483 C495 0.929 . S
H484 C498 0.930 . S
H485 C500 0.960 . S
H486 C500 0.960 . S
H487 C500 0.960 . S
C488 H480 0.929 . S
C488 C489 1.377 . S
C488 C490 1.384 . S
C489 C488 1.377 . S
C489 C495 1.390 . S
C490 H481 0.930 . S
C490 C488 1.384 . S
C490 C491 1.372 . S
C491 C490 1.372 . S
C491 C492 1.400 . S
C491 C496 1.490 . S
C492 H482 0.930 . S
C492 C491 1.400 . S
C492 C495 1.386 . S
H493 C509 0.930 . S
H494 C510 0.931 . S
C495 H483 0.929 . S
C495 C489 1.390 . S
C495 C492 1.386 . S
C496 C491 1.490 . S
C496 C498 1.395 . S
C496 C499 1.403 . S
H497 C503 0.930 . S
C498 H484 0.930 . S
C498 C496 1.395 . S
C498 C501 1.403 . S
C499 C496 1.403 . S
C499 C500 1.524 . S
C499 C503 1.400 . S
C500 H485 0.960 . S
C500 H486 0.960 . S
C500 H487 0.960 . S
C500 C499 1.524 . S
C501 C498 1.403 . S
C501 C502 1.392 . S
C501 C505 1.495 . S
C502 C501 1.392 . S
C502 C503 1.385 . S
C502 C504 1.478 . S
C503 H497 0.930 . S
C503 C499 1.400 . S
C503 C502 1.385 . S
C504 C502 1.478 . S
C504 C506 1.381 . S
C504 C510 1.383 . S
C505 C501 1.495 . S
C505 H511 0.959 . S
C505 H512 0.961 . S
C505 H513 0.960 . S
C506 C504 1.381 . S
C506 C507 1.394 . S
C506 H514 0.930 . S
C507 C506 1.394 . S
C507 C508 1.383 . S
C507 H515 0.929 . S
C508 C507 1.383 . S
C508 C509 1.377 . S
C509 H493 0.930 . S
C509 C508 1.377 . S
C509 C510 1.379 . S
C510 H494 0.931 . S
C510 C504 1.383 . S
C510 C509 1.379 . S
H511 C505 0.959 . S
H512 C505 0.961 . S
H513 C505 0.960 . S
H514 C506 0.930 . S
H515 C507 0.929 . S
H516 C524 0.929 . S
H517 C526 0.930 . S
H518 C528 0.930 . S
H519 C531 0.929 . S
H520 C534 0.930 . S
H521 C536 0.960 . S
H522 C536 0.960 . S
H523 C536 0.960 . S
C524 H516 0.929 . S
C524 C525 1.377 . S
C524 C526 1.384 . S
C525 C524 1.377 . S
C525 C531 1.390 . S
C526 H517 0.930 . S
C526 C524 1.384 . S
C526 C527 1.372 . S
C527 C526 1.372 . S
C527 C528 1.400 . S
C527 C532 1.490 . S
C528 H518 0.930 . S
C528 C527 1.400 . S
C528 C531 1.386 . S
H529 C545 0.930 . S
H530 C546 0.931 . S
C531 H519 0.929 . S
C531 C525 1.390 . S
C531 C528 1.386 . S
C532 C527 1.490 . S
C532 C534 1.395 . S
C532 C535 1.403 . S
H533 C539 0.930 . S
C534 H520 0.930 . S
C534 C532 1.395 . S
C534 C537 1.403 . S
C535 C532 1.403 . S
C535 C536 1.524 . S
C535 C539 1.400 . S
C536 H521 0.960 . S
C536 H522 0.960 . S
C536 H523 0.960 . S
C536 C535 1.524 . S
C537 C534 1.403 . S
C537 C538 1.392 . S
C537 C541 1.495 . S
C538 C537 1.392 . S
C538 C539 1.385 . S
C538 C540 1.478 . S
C539 H533 0.930 . S
C539 C535 1.400 . S
C539 C538 1.385 . S
C540 C538 1.478 . S
C540 C542 1.381 . S
C540 C546 1.383 . S
C541 C537 1.495 . S
C541 H547 0.959 . S
C541 H548 0.961 . S
C541 H549 0.960 . S
C542 C540 1.381 . S
C542 C543 1.394 . S
C542 H550 0.930 . S
C543 C542 1.394 . S
C543 C544 1.383 . S
C543 H551 0.929 . S
C544 C543 1.383 . S
C544 C545 1.377 . S
C545 H529 0.930 . S
C545 C544 1.377 . S
C545 C546 1.379 . S
C546 H530 0.931 . S
C546 C540 1.383 . S
C546 C545 1.379 . S
H547 C541 0.959 . S
H548 C541 0.961 . S
H549 C541 0.960 . S
H550 C542 0.930 . S
H551 C543 0.929 . S
H552 C560 0.929 . S
H553 C562 0.930 . S
H554 C564 0.930 . S
H555 C567 0.929 . S
H556 C570 0.930 . S
H557 C572 0.960 . S
H558 C572 0.960 . S
H559 C572 0.960 . S
C560 H552 0.929 . S
C560 C561 1.377 . S
C560 C562 1.384 . S
C561 C560 1.377 . S
C561 C567 1.390 . S
C562 H553 0.930 . S
C562 C560 1.384 . S
C562 C563 1.372 . S
C563 C562 1.372 . S
C563 C564 1.400 . S
C563 C568 1.490 . S
C564 H554 0.930 . S
C564 C563 1.400 . S
C564 C567 1.386 . S
H565 C581 0.930 . S
H566 C582 0.931 . S
C567 H555 0.929 . S
C567 C561 1.390 . S
C567 C564 1.386 . S
C568 C563 1.490 . S
C568 C570 1.395 . S
C568 C571 1.403 . S
H569 C575 0.930 . S
C570 H556 0.930 . S
C570 C568 1.395 . S
C570 C573 1.403 . S
C571 C568 1.403 . S
C571 C572 1.524 . S
C571 C575 1.400 . S
C572 H557 0.960 . S
C572 H558 0.960 . S
C572 H559 0.960 . S
C572 C571 1.524 . S
C573 C570 1.403 . S
C573 C574 1.392 . S
C573 C577 1.495 . S
C574 C573 1.392 . S
C574 C575 1.385 . S
C574 C576 1.478 . S
C575 H569 0.930 . S
C575 C571 1.400 . S
C575 C574 1.385 . S
C576 C574 1.478 . S
C576 C578 1.381 . S
C576 C582 1.383 . S
C577 C573 1.495 . S
C577 H583 0.959 . S
C577 H584 0.961 . S
C577 H585 0.960 . S
C578 C576 1.381 . S
C578 C579 1.394 . S
C578 H586 0.930 . S
C579 C578 1.394 . S
C579 C580 1.383 . S
C579 H587 0.929 . S
C580 C579 1.383 . S
C580 C581 1.377 . S
C581 H565 0.930 . S
C581 C580 1.377 . S
C581 C582 1.379 . S
C582 H566 0.931 . S
C582 C576 1.383 . S
C582 C581 1.379 . S
H583 C577 0.959 . S
H584 C577 0.961 . S
H585 C577 0.960 . S
H586 C578 0.930 . S
H587 C579 0.929 . S
H588 C596 0.929 . S
H589 C598 0.930 . S
H590 C600 0.930 . S
H591 C603 0.929 . S
H592 C606 0.930 . S
H593 C608 0.960 . S
H594 C608 0.960 . S
H595 C608 0.960 . S
C596 H588 0.929 . S
C596 C597 1.377 . S
C596 C598 1.384 . S
C597 C596 1.377 . S
C597 C603 1.390 . S
C598 H589 0.930 . S
C598 C596 1.384 . S
C598 C599 1.372 . S
C599 C598 1.372 . S
C599 C600 1.400 . S
C599 C604 1.490 . S
C600 H590 0.930 . S
C600 C599 1.400 . S
C600 C603 1.386 . S
H601 C617 0.930 . S
H602 C618 0.931 . S
C603 H591 0.929 . S
C603 C597 1.390 . S
C603 C600 1.386 . S
C604 C599 1.490 . S
C604 C606 1.395 . S
C604 C607 1.403 . S
H605 C611 0.930 . S
C606 H592 0.930 . S
C606 C604 1.395 . S
C606 C609 1.403 . S
C607 C604 1.403 . S
C607 C608 1.524 . S
C607 C611 1.400 . S
C608 H593 0.960 . S
C608 H594 0.960 . S
C608 H595 0.960 . S
C608 C607 1.524 . S
C609 C606 1.403 . S
C609 C610 1.392 . S
C609 C613 1.495 . S
C610 C609 1.392 . S
C610 C611 1.385 . S
C610 C612 1.478 . S
C611 H605 0.930 . S
C611 C607 1.400 . S
C611 C610 1.385 . S
C612 C610 1.478 . S
C612 C614 1.381 . S
C612 C618 1.383 . S
C613 C609 1.495 . S
C613 H619 0.959 . S
C613 H620 0.961 . S
C613 H621 0.960 . S
C614 C612 1.381 . S
C614 C615 1.394 . S
C614 H622 0.930 . S
C615 C614 1.394 . S
C615 C616 1.383 . S
C615 H623 0.929 . S
C616 C615 1.383 . S
C616 C617 1.377 . S
C617 H601 0.930 . S
C617 C616 1.377 . S
C617 C618 1.379 . S
C618 H602 0.931 . S
C618 C612 1.383 . S
C618 C617 1.379 . S
H619 C613 0.959 . S
H620 C613 0.961 . S
H621 C613 0.960 . S
H622 C614 0.930 . S
H623 C615 0.929 . S
H624 C632 0.929 . S
H625 C634 0.930 . S
H626 C636 0.930 . S
H627 C639 0.929 . S
H628 C642 0.930 . S
H629 C644 0.960 . S
H630 C644 0.960 . S
H631 C644 0.960 . S
C632 H624 0.929 . S
C632 C633 1.377 . S
C632 C634 1.384 . S
C633 C632 1.377 . S
C633 C639 1.390 . S
C634 H625 0.930 . S
C634 C632 1.384 . S
C634 C635 1.372 . S
C635 C634 1.372 . S
C635 C636 1.400 . S
C635 C640 1.490 . S
C636 H626 0.930 . S
C636 C635 1.400 . S
C636 C639 1.386 . S
H637 C653 0.930 . S
H638 C654 0.931 . S
C639 H627 0.929 . S
C639 C633 1.390 . S
C639 C636 1.386 . S
C640 C635 1.490 . S
C640 C642 1.395 . S
C640 C643 1.403 . S
H641 C647 0.930 . S
C642 H628 0.930 . S
C642 C640 1.395 . S
C642 C645 1.403 . S
C643 C640 1.403 . S
C643 C644 1.524 . S
C643 C647 1.400 . S
C644 H629 0.960 . S
C644 H630 0.960 . S
C644 H631 0.960 . S
C644 C643 1.524 . S
C645 C642 1.403 . S
C645 C646 1.392 . S
C645 C649 1.495 . S
C646 C645 1.392 . S
C646 C647 1.385 . S
C646 C648 1.478 . S
C647 H641 0.930 . S
C647 C643 1.400 . S
C647 C646 1.385 . S
C648 C646 1.478 . S
C648 C650 1.381 . S
C648 C654 1.383 . S
C649 C645 1.495 . S
C649 H655 0.959 . S
C649 H656 0.961 . S
C649 H657 0.960 . S
C650 C648 1.381 . S
C650 C651 1.394 . S
C650 H658 0.930 . S
C651 C650 1.394 . S
C651 C652 1.383 . S
C651 H659 0.929 . S
C652 C651 1.383 . S
C652 C653 1.377 . S
C653 H637 0.930 . S
C653 C652 1.377 . S
C653 C654 1.379 . S
C654 H638 0.931 . S
C654 C648 1.383 . S
C654 C653 1.379 . S
H655 C649 0.959 . S
H656 C649 0.961 . S
H657 C649 0.960 . S
H658 C650 0.930 . S
H659 C651 0.929 . S
H660 C668 0.929 . S
H661 C670 0.930 . S
H662 C672 0.930 . S
H663 C675 0.929 . S
H664 C678 0.930 . S
H665 C680 0.960 . S
H666 C680 0.960 . S
H667 C680 0.960 . S
C668 H660 0.929 . S
C668 C669 1.377 . S
C668 C670 1.384 . S
C669 C668 1.377 . S
C669 C675 1.390 . S
C670 H661 0.930 . S
C670 C668 1.384 . S
C670 C671 1.372 . S
C671 C670 1.372 . S
C671 C672 1.400 . S
C671 C676 1.490 . S
C672 H662 0.930 . S
C672 C671 1.400 . S
C672 C675 1.386 . S
H673 C689 0.930 . S
H674 C690 0.931 . S
C675 H663 0.929 . S
C675 C669 1.390 . S
C675 C672 1.386 . S
C676 C671 1.490 . S
C676 C678 1.395 . S
C676 C679 1.403 . S
H677 C683 0.930 . S
C678 H664 0.930 . S
C678 C676 1.395 . S
C678 C681 1.403 . S
C679 C676 1.403 . S
C679 C680 1.524 . S
C679 C683 1.400 . S
C680 H665 0.960 . S
C680 H666 0.960 . S
C680 H667 0.960 . S
C680 C679 1.524 . S
C681 C678 1.403 . S
C681 C682 1.392 . S
C681 C685 1.495 . S
C682 C681 1.392 . S
C682 C683 1.385 . S
C682 C684 1.478 . S
C683 H677 0.930 . S
C683 C679 1.400 . S
C683 C682 1.385 . S
C684 C682 1.478 . S
C684 C686 1.381 . S
C684 C690 1.383 . S
C685 C681 1.495 . S
C685 H691 0.959 . S
C685 H692 0.961 . S
C685 H693 0.960 . S
C686 C684 1.381 . S
C686 C687 1.394 . S
C686 H694 0.930 . S
C687 C686 1.394 . S
C687 C688 1.383 . S
C687 H695 0.929 . S
C688 C687 1.383 . S
C688 C689 1.377 . S
C689 H673 0.930 . S
C689 C688 1.377 . S
C689 C690 1.379 . S
C690 H674 0.931 . S
C690 C684 1.383 . S
C690 C689 1.379 . S
H691 C685 0.959 . S
H692 C685 0.961 . S
H693 C685 0.960 . S
H694 C686 0.930 . S
H695 C687 0.929 . S
H696 C704 0.929 . S
H697 C706 0.930 . S
H698 C708 0.930 . S
H699 C711 0.929 . S
H700 C714 0.930 . S
H701 C716 0.960 . S
H702 C716 0.960 . S
H703 C716 0.960 . S
C704 H696 0.929 . S
C704 C705 1.377 . S
C704 C706 1.384 . S
C705 C704 1.377 . S
C705 C711 1.390 . S
C706 H697 0.930 . S
C706 C704 1.384 . S
C706 C707 1.372 . S
C707 C706 1.372 . S
C707 C708 1.400 . S
C707 C712 1.490 . S
C708 H698 0.930 . S
C708 C707 1.400 . S
C708 C711 1.386 . S
H709 C725 0.930 . S
H710 C726 0.931 . S
C711 H699 0.929 . S
C711 C705 1.390 . S
C711 C708 1.386 . S
C712 C707 1.490 . S
C712 C714 1.395 . S
C712 C715 1.403 . S
H713 C719 0.930 . S
C714 H700 0.930 . S
C714 C712 1.395 . S
C714 C717 1.403 . S
C715 C712 1.403 . S
C715 C716 1.524 . S
C715 C719 1.400 . S
C716 H701 0.960 . S
C716 H702 0.960 . S
C716 H703 0.960 . S
C716 C715 1.524 . S
C717 C714 1.403 . S
C717 C718 1.392 . S
C717 C721 1.495 . S
C718 C717 1.392 . S
C718 C719 1.385 . S
C718 C720 1.478 . S
C719 H713 0.930 . S
C719 C715 1.400 . S
C719 C718 1.385 . S
C720 C718 1.478 . S
C720 C722 1.381 . S
C720 C726 1.383 . S
C721 C717 1.495 . S
C721 H727 0.959 . S
C721 H728 0.961 . S
C721 H729 0.960 . S
C722 C720 1.381 . S
C722 C723 1.394 . S
C722 H730 0.930 . S
C723 C722 1.394 . S
C723 C724 1.383 . S
C723 H731 0.929 . S
C724 C723 1.383 . S
C724 C725 1.377 . S
C725 H709 0.930 . S
C725 C724 1.377 . S
C725 C726 1.379 . S
C726 H710 0.931 . S
C726 C720 1.383 . S
C726 C725 1.379 . S
H727 C721 0.959 . S
H728 C721 0.961 . S
H729 C721 0.960 . S
H730 C722 0.930 . S
H731 C723 0.929 . S
H732 C740 0.929 . S
H733 C742 0.930 . S
H734 C744 0.930 . S
H735 C747 0.929 . S
H736 C750 0.930 . S
H737 C752 0.960 . S
H738 C752 0.960 . S
H739 C752 0.960 . S
C740 H732 0.929 . S
C740 C741 1.377 . S
C740 C742 1.384 . S
C741 C740 1.377 . S
C741 C747 1.390 . S
C742 H733 0.930 . S
C742 C740 1.384 . S
C742 C743 1.372 . S
C743 C742 1.372 . S
C743 C744 1.400 . S
C743 C748 1.490 . S
C744 H734 0.930 . S
C744 C743 1.400 . S
C744 C747 1.386 . S
H745 C761 0.930 . S
H746 C762 0.931 . S
C747 H735 0.929 . S
C747 C741 1.390 . S
C747 C744 1.386 . S
C748 C743 1.490 . S
C748 C750 1.395 . S
C748 C751 1.403 . S
H749 C755 0.930 . S
C750 H736 0.930 . S
C750 C748 1.395 . S
C750 C753 1.403 . S
C751 C748 1.403 . S
C751 C752 1.524 . S
C751 C755 1.400 . S
C752 H737 0.960 . S
C752 H738 0.960 . S
C752 H739 0.960 . S
C752 C751 1.524 . S
C753 C750 1.403 . S
C753 C754 1.392 . S
C753 C757 1.495 . S
C754 C753 1.392 . S
C754 C755 1.385 . S
C754 C756 1.478 . S
C755 H749 0.930 . S
C755 C751 1.400 . S
C755 C754 1.385 . S
C756 C754 1.478 . S
C756 C758 1.381 . S
C756 C762 1.383 . S
C757 C753 1.495 . S
C757 H763 0.959 . S
C757 H764 0.961 . S
C757 H765 0.960 . S
C758 C756 1.381 . S
C758 C759 1.394 . S
C758 H766 0.930 . S
C759 C758 1.394 . S
C759 C760 1.383 . S
C759 H767 0.929 . S
C760 C759 1.383 . S
C760 C761 1.377 . S
C761 H745 0.930 . S
C761 C760 1.377 . S
C761 C762 1.379 . S
C762 H746 0.931 . S
C762 C756 1.383 . S
C762 C761 1.379 . S
H763 C757 0.959 . S
H764 C757 0.961 . S
H765 C757 0.960 . S
H766 C758 0.930 . S
H767 C759 0.929 . S
H768 C776 0.929 . S
H769 C778 0.930 . S
H770 C780 0.930 . S
H771 C783 0.929 . S
H772 C786 0.930 . S
H773 C788 0.960 . S
H774 C788 0.960 . S
H775 C788 0.960 . S
C776 H768 0.929 . S
C776 C777 1.377 . S
C776 C778 1.384 . S
C777 C776 1.377 . S
C777 C783 1.390 . S
C778 H769 0.930 . S
C778 C776 1.384 . S
C778 C779 1.372 . S
C779 C778 1.372 . S
C779 C780 1.400 . S
C779 C784 1.490 . S
C780 H770 0.930 . S
C780 C779 1.400 . S
C780 C783 1.386 . S
H781 C797 0.930 . S
H782 C798 0.931 . S
C783 H771 0.929 . S
C783 C777 1.390 . S
C783 C780 1.386 . S
C784 C779 1.490 . S
C784 C786 1.395 . S
C784 C787 1.403 . S
H785 C791 0.930 . S
C786 H772 0.930 . S
C786 C784 1.395 . S
C786 C789 1.403 . S
C787 C784 1.403 . S
C787 C788 1.524 . S
C787 C791 1.400 . S
C788 H773 0.960 . S
C788 H774 0.960 . S
C788 H775 0.960 . S
C788 C787 1.524 . S
C789 C786 1.403 . S
C789 C790 1.392 . S
C789 C793 1.495 . S
C790 C789 1.392 . S
C790 C791 1.385 . S
C790 C792 1.478 . S
C791 H785 0.930 . S
C791 C787 1.400 . S
C791 C790 1.385 . S
C792 C790 1.478 . S
C792 C794 1.381 . S
C792 C798 1.383 . S
C793 C789 1.495 . S
C793 H799 0.959 . S
C793 H800 0.961 . S
C793 H801 0.960 . S
C794 C792 1.381 . S
C794 C795 1.394 . S
C794 H802 0.930 . S
C795 C794 1.394 . S
C795 C796 1.383 . S
C795 H803 0.929 . S
C796 C795 1.383 . S
C796 C797 1.377 . S
C797 H781 0.930 . S
C797 C796 1.377 . S
C797 C798 1.379 . S
C798 H782 0.931 . S
C798 C792 1.383 . S
C798 C797 1.379 . S
H799 C793 0.959 . S
H800 C793 0.961 . S
H801 C793 0.960 . S
H802 C794 0.930 . S
H803 C795 0.929 . S
H804 C812 0.929 . S
H805 C814 0.930 . S
H806 C816 0.930 . S
H807 C819 0.929 . S
H808 C822 0.930 . S
H809 C824 0.960 . S
H810 C824 0.960 . S
H811 C824 0.960 . S
C812 H804 0.929 . S
C812 C813 1.377 . S
C812 C814 1.384 . S
C813 C812 1.377 . S
C813 C819 1.390 . S
C814 H805 0.930 . S
C814 C812 1.384 . S
C814 C815 1.372 . S
C815 C814 1.372 . S
C815 C816 1.400 . S
C815 C820 1.490 . S
C816 H806 0.930 . S
C816 C815 1.400 . S
C816 C819 1.386 . S
H817 C833 0.930 . S
H818 C834 0.931 . S
C819 H807 0.929 . S
C819 C813 1.390 . S
C819 C816 1.386 . S
C820 C815 1.490 . S
C820 C822 1.395 . S
C820 C823 1.403 . S
H821 C827 0.930 . S
C822 H808 0.930 . S
C822 C820 1.395 . S
C822 C825 1.403 . S
C823 C820 1.403 . S
C823 C824 1.524 . S
C823 C827 1.400 . S
C824 H809 0.960 . S
C824 H810 0.960 . S
C824 H811 0.960 . S
C824 C823 1.524 . S
C825 C822 1.403 . S
C825 C826 1.392 . S
C825 C829 1.495 . S
C826 C825 1.392 . S
C826 C827 1.385 . S
C826 C828 1.478 . S
C827 H821 0.930 . S
C827 C823 1.400 . S
C827 C826 1.385 . S
C828 C826 1.478 . S
C828 C830 1.381 . S
C828 C834 1.383 . S
C829 C825 1.495 . S
C829 H835 0.959 . S
C829 H836 0.961 . S
C829 H837 0.960 . S
C830 C828 1.381 . S
C830 C831 1.394 . S
C830 H838 0.930 . S
C831 C830 1.394 . S
C831 C832 1.383 . S
C831 H839 0.929 . S
C832 C831 1.383 . S
C832 C833 1.377 . S
C833 H817 0.930 . S
C833 C832 1.377 . S
C833 C834 1.379 . S
C834 H818 0.931 . S
C834 C828 1.383 . S
C834 C833 1.379 . S
H835 C829 0.959 . S
H836 C829 0.961 . S
H837 C829 0.960 . S
H838 C830 0.930 . S
H839 C831 0.929 . S
H840 C848 0.929 . S
H841 C850 0.930 . S
H842 C852 0.930 . S
H843 C855 0.929 . S
H844 C858 0.930 . S
H845 C860 0.960 . S
H846 C860 0.960 . S
H847 C860 0.960 . S
C848 H840 0.929 . S
C848 C849 1.377 . S
C848 C850 1.384 . S
C849 C848 1.377 . S
C849 C855 1.390 . S
C850 H841 0.930 . S
C850 C848 1.384 . S
C850 C851 1.372 . S
C851 C850 1.372 . S
C851 C852 1.400 . S
C851 C856 1.490 . S
C852 H842 0.930 . S
C852 C851 1.400 . S
C852 C855 1.386 . S
H853 C869 0.930 . S
H854 C870 0.931 . S
C855 H843 0.929 . S
C855 C849 1.390 . S
C855 C852 1.386 . S
C856 C851 1.490 . S
C856 C858 1.395 . S
C856 C859 1.403 . S
H857 C863 0.930 . S
C858 H844 0.930 . S
C858 C856 1.395 . S
C858 C861 1.403 . S
C859 C856 1.403 . S
C859 C860 1.524 . S
C859 C863 1.400 . S
C860 H845 0.960 . S
C860 H846 0.960 . S
C860 H847 0.960 . S
C860 C859 1.524 . S
C861 C858 1.403 . S
C861 C862 1.392 . S
C861 C865 1.495 . S
C862 C861 1.392 . S
C862 C863 1.385 . S
C862 C864 1.478 . S
C863 H857 0.930 . S
C863 C859 1.400 . S
C863 C862 1.385 . S
C864 C862 1.478 . S
C864 C866 1.381 . S
C864 C870 1.383 . S
C865 C861 1.495 . S
C865 H871 0.959 . S
C865 H872 0.961 . S
C865 H873 0.960 . S
C866 C864 1.381 . S
C866 C867 1.394 . S
C866 H874 0.930 . S
C867 C866 1.394 . S
C867 C868 1.383 . S
C867 H875 0.929 . S
C868 C867 1.383 . S
C868 C869 1.377 . S
C869 H853 0.930 . S
C869 C868 1.377 . S
C869 C870 1.379 . S
C870 H854 0.931 . S
C870 C864 1.383 . S
C870 C869 1.379 . S
H871 C865 0.959 . S
H872 C865 0.961 . S
H873 C865 0.960 . S
H874 C866 0.930 . S
H875 C867 0.929 . S
H876 C884 0.929 . S
H877 C886 0.930 . S
H878 C888 0.930 . S
H879 C891 0.929 . S
H880 C894 0.930 . S
H881 C896 0.960 . S
H882 C896 0.960 . S
H883 C896 0.960 . S
C884 H876 0.929 . S
C884 C885 1.377 . S
C884 C886 1.384 . S
C885 C884 1.377 . S
C885 C891 1.390 . S
C886 H877 0.930 . S
C886 C884 1.384 . S
C886 C887 1.372 . S
C887 C886 1.372 . S
C887 C888 1.400 . S
C887 C892 1.490 . S
C888 H878 0.930 . S
C888 C887 1.400 . S
C888 C891 1.386 . S
H889 C905 0.930 . S
H890 C906 0.931 . S
C891 H879 0.929 . S
C891 C885 1.390 . S
C891 C888 1.386 . S
C892 C887 1.490 . S
C892 C894 1.395 . S
C892 C895 1.403 . S
H893 C899 0.930 . S
C894 H880 0.930 . S
C894 C892 1.395 . S
C894 C897 1.403 . S
C895 C892 1.403 . S
C895 C896 1.524 . S
C895 C899 1.400 . S
C896 H881 0.960 . S
C896 H882 0.960 . S
C896 H883 0.960 . S
C896 C895 1.524 . S
C897 C894 1.403 . S
C897 C898 1.392 . S
C897 C901 1.495 . S
C898 C897 1.392 . S
C898 C899 1.385 . S
C898 C900 1.478 . S
C899 H893 0.930 . S
C899 C895 1.400 . S
C899 C898 1.385 . S
C900 C898 1.478 . S
C900 C902 1.381 . S
C900 C906 1.383 . S
C901 C897 1.495 . S
C901 H907 0.959 . S
C901 H908 0.961 . S
C901 H909 0.960 . S
C902 C900 1.381 . S
C902 C903 1.394 . S
C902 H910 0.930 . S
C903 C902 1.394 . S
C903 C904 1.383 . S
C903 H911 0.929 . S
C904 C903 1.383 . S
C904 C905 1.377 . S
C905 H889 0.930 . S
C905 C904 1.377 . S
C905 C906 1.379 . S
C906 H890 0.931 . S
C906 C900 1.383 . S
C906 C905 1.379 . S
H907 C901 0.959 . S
H908 C901 0.961 . S
H909 C901 0.960 . S
H910 C902 0.930 . S
H911 C903 0.929 . S
H912 C920 0.929 . S
H913 C922 0.930 . S
H914 C924 0.953 . S
H915 C927 0.929 . S
H916 C930 0.930 1_655 S
H917 C932 0.960 . S
H918 C932 0.960 . S
H919 C932 0.960 . S
C920 H912 0.929 . S
C920 C921 1.377 . S
C920 C922 1.384 . S
C921 C920 1.377 . S
C921 C927 1.390 1_455 S
C922 H913 0.930 . S
C922 C920 1.384 . S
C922 C923 1.372 . S
C923 C922 1.372 . S
C923 C924 1.375 1_455 S
C923 C928 1.490 . S
C924 H914 0.953 . S
C924 C923 1.375 1_655 S
C924 C927 1.389 . S
H925 C941 0.930 . S
H926 C942 0.931 1_655 S
C927 H915 0.929 . S
C927 C921 1.390 1_655 S
C927 C924 1.389 . S
C928 C923 1.490 . S
C928 C930 1.395 . S
C928 C931 1.403 . S
H929 C935 0.930 . S
C930 H916 0.930 1_455 S
C930 C928 1.395 . S
C930 C933 1.403 . S
C931 C928 1.403 . S
C931 C932 1.524 . S
C931 C935 1.400 . S
C932 H917 0.960 . S
C932 H918 0.960 . S
C932 H919 0.960 . S
C932 C931 1.524 . S
C933 C930 1.403 . S
C933 C934 1.392 . S
C933 C937 1.495 1_455 S
C934 C933 1.392 . S
C934 C935 1.385 . S
C934 C936 1.478 . S
C935 H929 0.930 . S
C935 C931 1.400 . S
C935 C934 1.385 . S
C936 C934 1.478 . S
C936 C938 1.381 . S
C936 C942 1.383 . S
C937 C933 1.495 1_655 S
C937 H943 0.959 . S
C937 H944 0.961 . S
C937 H945 0.960 1_655 S
C938 C936 1.381 . S
C938 C939 1.394 1_554 S
C938 H946 0.930 . S
C939 C938 1.394 1_556 S
C939 C940 1.383 . S
C939 H947 0.929 . S
C940 C939 1.383 . S
C940 C941 1.377 . S
C941 H925 0.930 . S
C941 C940 1.377 . S
C941 C942 1.379 1_556 S
C942 H926 0.931 1_455 S
C942 C936 1.383 . S
C942 C941 1.379 1_554 S
H943 C937 0.959 . S
H944 C937 0.961 . S
H945 C937 0.960 1_455 S
H946 C938 0.930 . S
H947 C939 0.929 . S
H948 C956 0.927 1_565 S
H949 C958 0.930 1_565 S
H950 C960 0.930 . S
H951 C963 0.929 . S
H952 C966 0.930 . S
H953 C968 0.960 . S
H954 C968 0.960 . S
H955 C968 0.960 . S
C956 H948 0.927 1_545 S
C956 C957 1.380 . S
C956 C958 1.384 . S
C957 C956 1.380 . S
C957 C963 1.390 . S
C958 H949 0.930 1_545 S
C958 C956 1.384 . S
C958 C959 1.372 . S
C959 C958 1.372 . S
C959 C960 1.400 . S
C959 C964 1.490 . S
C960 H950 0.930 . S
C960 C959 1.400 . S
C960 C963 1.386 . S
H961 C977 0.930 . S
H962 C978 0.931 . S
C963 H951 0.929 . S
C963 C957 1.390 . S
C963 C960 1.386 . S
C964 C959 1.490 . S
C964 C966 1.395 1_545 S
C964 C967 1.403 . S
H965 C971 0.930 . S
C966 H952 0.930 . S
C966 C964 1.395 1_565 S
C966 C969 1.403 . S
C967 C964 1.403 . S
C967 C968 1.524 . S
C967 C971 1.400 . S
C968 H953 0.960 . S
C968 H954 0.960 . S
C968 H955 0.960 . S
C968 C967 1.524 . S
C969 C966 1.403 . S
C969 C970 1.392 1_565 S
C969 C973 1.495 . S
C970 C969 1.392 1_545 S
C970 C971 1.385 . S
C970 C972 1.478 . S
C971 H965 0.930 . S
C971 C967 1.400 . S
C971 C970 1.385 . S
C972 C970 1.478 . S
C972 C974 1.381 . S
C972 C978 1.383 . S
C973 C969 1.495 . S
C973 H979 0.959 . S
C973 H980 0.961 . S
C973 H981 0.960 . S
C974 C972 1.381 . S
C974 C975 1.394 . S
C974 H982 0.930 . S
C975 C974 1.394 . S
C975 C976 1.383 . S
C975 H983 0.929 . S
C976 C975 1.383 . S
C976 C977 1.377 . S
C977 H961 0.930 . S
C977 C976 1.377 . S
C977 C978 1.379 . S
C978 H962 0.931 . S
C978 C972 1.383 . S
C978 C977 1.379 . S
H979 C973 0.959 . S
H980 C973 0.961 . S
H981 C973 0.960 . S
H982 C974 0.930 . S
H983 C975 0.929 . S
H984 C992 0.929 . S
H985 C994 0.930 . S
H986 C996 0.930 . S
H987 C999 0.929 . S
H988 C1002 0.930 . S
H989 C1004 0.960 . S
H990 C1004 0.960 . S
H991 C1004 0.960 . S
C992 H984 0.929 . S
C992 C993 1.377 . S
C992 C994 1.384 . S
C993 C992 1.377 . S
C993 C999 1.390 . S
C994 H985 0.930 . S
C994 C992 1.384 . S
C994 C995 1.372 . S
C995 C994 1.372 . S
C995 C996 1.400 . S
C995 C1000 1.490 . S
C996 H986 0.930 . S
C996 C995 1.400 . S
C996 C999 1.386 . S
H997 C1013 0.930 . S
H998 C1014 0.931 . S
C999 H987 0.929 . S
C999 C993 1.390 . S
C999 C996 1.386 . S
C1000 C995 1.490 . S
C1000 C1002 1.395 . S
C1000 C1003 1.403 . S
H1001 C1007 0.930 . S
C1002 H988 0.930 . S
C1002 C1000 1.395 . S
C1002 C1005 1.403 . S
C1003 C1000 1.403 . S
C1003 C1004 1.524 . S
C1003 C1007 1.400 . S
C1004 H989 0.960 . S
C1004 H990 0.960 . S
C1004 H991 0.960 . S
C1004 C1003 1.524 . S
C1005 C1002 1.403 . S
C1005 C1006 1.392 . S
C1005 C1009 1.495 . S
C1006 C1005 1.392 . S
C1006 C1007 1.385 . S
C1006 C1008 1.478 . S
C1007 H1001 0.930 . S
C1007 C1003 1.400 . S
C1007 C1006 1.385 . S
C1008 C1006 1.478 . S
C1008 C1010 1.381 . S
C1008 C1014 1.383 . S
C1009 C1005 1.495 . S
C1009 H1015 0.959 . S
C1009 H1016 0.961 . S
C1009 H1017 0.960 . S
C1010 C1008 1.381 . S
C1010 C1011 1.394 . S
C1010 H1018 0.930 . S
C1011 C1010 1.394 . S
C1011 C1012 1.383 . S
C1011 H1019 0.929 . S
C1012 C1011 1.383 . S
C1012 C1013 1.377 . S
C1013 H997 0.930 . S
C1013 C1012 1.377 . S
C1013 C1014 1.379 . S
C1014 H998 0.931 . S
C1014 C1008 1.383 . S
C1014 C1013 1.379 . S
H1015 C1009 0.959 . S
H1016 C1009 0.961 . S
H1017 C1009 0.960 . S
H1018 C1010 0.930 . S
H1019 C1011 0.929 . S
H1020 C1028 0.929 . S
H1021 C1030 0.930 . S
H1022 C1032 0.930 . S
H1023 C1035 0.929 . S
H1024 C1038 0.930 . S
H1025 C1040 0.960 . S
H1026 C1040 0.960 . S
H1027 C1040 0.960 . S
C1028 H1020 0.929 . S
C1028 C1029 1.377 1_565 S
C1028 C1030 1.384 . S
C1029 C1028 1.377 1_545 S
C1029 C1035 1.390 . S
C1030 H1021 0.930 . S
C1030 C1028 1.384 . S
C1030 C1031 1.372 1_565 S
C1031 C1030 1.372 1_545 S
C1031 C1032 1.400 . S
C1031 C1036 1.490 . S
C1032 H1022 0.930 . S
C1032 C1031 1.400 . S
C1032 C1035 1.386 . S
H1033 C1049 0.930 . S
H1034 C1050 0.931 . S
C1035 H1023 0.929 . S
C1035 C1029 1.390 . S
C1035 C1032 1.386 . S
C1036 C1031 1.490 . S
C1036 C1038 1.395 . S
C1036 C1039 1.403 1_545 S
H1037 C1043 0.930 . S
C1038 H1024 0.930 . S
C1038 C1036 1.395 . S
C1038 C1041 1.403 . S
C1039 C1036 1.403 1_565 S
C1039 C1040 1.524 . S
C1039 C1043 1.400 . S
C1040 H1025 0.960 . S
C1040 H1026 0.960 . S
C1040 H1027 0.960 . S
C1040 C1039 1.524 . S
C1041 C1038 1.403 . S
C1041 C1042 1.392 . S
C1041 C1045 1.495 . S
C1042 C1041 1.392 . S
C1042 C1043 1.385 1_545 S
C1042 C1044 1.478 . S
C1043 H1037 0.930 . S
C1043 C1039 1.400 . S
C1043 C1042 1.385 1_565 S
C1044 C1042 1.478 . S
C1044 C1046 1.381 1_545 S
C1044 C1050 1.383 . S
C1045 C1041 1.495 . S
C1045 H1051 0.959 . S
C1045 H1052 0.961 . S
C1045 H1053 0.960 . S
C1046 C1044 1.381 1_565 S
C1046 C1047 1.394 . S
C1046 H1054 0.930 . S
C1047 C1046 1.394 . S
C1047 C1048 1.383 1_565 S
C1047 H1055 0.929 . S
C1048 C1047 1.383 1_545 S
C1048 C1049 1.377 . S
C1049 H1033 0.930 . S
C1049 C1048 1.377 . S
C1049 C1050 1.379 . S
C1050 H1034 0.931 . S
C1050 C1044 1.383 . S
C1050 C1049 1.379 . S
H1051 C1045 0.959 . S
H1052 C1045 0.961 . S
H1053 C1045 0.960 . S
H1054 C1046 0.930 . S
H1055 C1047 0.929 . S
H1056 C1064 0.929 . S
H1057 C1066 0.930 . S
H1058 C1068 0.930 . S
H1059 C1071 0.929 . S
H1060 C1074 0.930 . S
H1061 C1076 0.960 . S
H1062 C1076 0.960 . S
H1063 C1076 0.960 . S
C1064 H1056 0.929 . S
C1064 C1065 1.377 . S
C1064 C1066 1.384 . S
C1065 C1064 1.377 . S
C1065 C1071 1.390 . S
C1066 H1057 0.930 . S
C1066 C1064 1.384 . S
C1066 C1067 1.372 . S
C1067 C1066 1.372 . S
C1067 C1068 1.400 . S
C1067 C1072 1.490 . S
C1068 H1058 0.930 . S
C1068 C1067 1.400 . S
C1068 C1071 1.386 . S
H1069 C1085 0.930 . S
H1070 C1086 0.931 . S
C1071 H1059 0.929 . S
C1071 C1065 1.390 . S
C1071 C1068 1.386 . S
C1072 C1067 1.490 . S
C1072 C1074 1.395 . S
C1072 C1075 1.403 . S
H1073 C1079 0.930 . S
C1074 H1060 0.930 . S
C1074 C1072 1.395 . S
C1074 C1077 1.403 . S
C1075 C1072 1.403 . S
C1075 C1076 1.524 . S
C1075 C1079 1.400 . S
C1076 H1061 0.960 . S
C1076 H1062 0.960 . S
C1076 H1063 0.960 . S
C1076 C1075 1.524 . S
C1077 C1074 1.403 . S
C1077 C1078 1.392 . S
C1077 C1081 1.495 . S
C1078 C1077 1.392 . S
C1078 C1079 1.385 . S
C1078 C1080 1.478 . S
C1079 H1073 0.930 . S
C1079 C1075 1.400 . S
C1079 C1078 1.385 . S
C1080 C1078 1.478 . S
C1080 C1082 1.381 . S
C1080 C1086 1.383 . S
C1081 C1077 1.495 . S
C1081 H1087 0.959 . S
C1081 H1088 0.961 . S
C1081 H1089 0.960 . S
C1082 C1080 1.381 . S
C1082 C1083 1.394 1_556 S
C1082 H1090 0.930 . S
C1083 C1082 1.394 1_554 S
C1083 C1084 1.383 . S
C1083 H1091 0.929 . S
C1084 C1083 1.383 . S
C1084 C1085 1.377 . S
C1085 H1069 0.930 . S
C1085 C1084 1.377 . S
C1085 C1086 1.379 1_554 S
C1086 H1070 0.931 . S
C1086 C1080 1.383 . S
C1086 C1085 1.379 1_556 S
H1087 C1081 0.959 . S
H1088 C1081 0.961 . S
H1089 C1081 0.960 . S
H1090 C1082 0.930 . S
H1091 C1083 0.929 . S
H1092 C1100 0.929 . S
H1093 C1102 0.930 . S
H1094 C1104 0.930 . S
H1095 C1107 0.929 . S
H1096 C1110 0.930 . S
H1097 C1112 0.965 1_655 S
H1098 C1112 0.976 . S
H1099 C1112 0.946 1_655 S
C1100 H1092 0.929 . S
C1100 C1101 1.377 . S
C1100 C1102 1.384 . S
C1101 C1100 1.377 . S
C1101 C1107 1.390 1_455 S
C1102 H1093 0.930 . S
C1102 C1100 1.384 . S
C1102 C1103 1.372 . S
C1103 C1102 1.372 . S
C1103 C1104 1.400 1_455 S
C1103 C1108 1.490 . S
C1104 H1094 0.930 . S
C1104 C1103 1.400 1_655 S
C1104 C1107 1.386 . S
H1105 C1121 0.930 . S
H1106 C1122 0.931 . S
C1107 H1095 0.929 . S
C1107 C1101 1.390 1_655 S
C1107 C1104 1.386 . S
C1108 C1103 1.490 . S
C1108 C1110 1.395 . S
C1108 C1111 1.403 . S
H1109 C1115 0.930 . S
C1110 H1096 0.930 . S
C1110 C1108 1.395 . S
C1110 C1113 1.403 . S
C1111 C1108 1.403 . S
C1111 C1112 1.517 . S
C1111 C1115 1.400 . S
C1112 H1097 0.965 1_455 S
C1112 H1098 0.976 . S
C1112 H1099 0.946 1_455 S
C1112 C1111 1.517 . S
C1113 C1110 1.403 . S
C1113 C1114 1.392 . S
C1113 C1117 1.495 . S
C1114 C1113 1.392 . S
C1114 C1115 1.385 . S
C1114 C1116 1.478 . S
C1115 H1109 0.930 . S
C1115 C1111 1.400 . S
C1115 C1114 1.385 . S
C1116 C1114 1.478 . S
C1116 C1118 1.381 . S
C1116 C1122 1.383 1_455 S
C1117 C1113 1.495 . S
C1117 H1123 0.959 . S
C1117 H1124 0.961 . S
C1117 H1125 0.960 . S
C1118 C1116 1.381 . S
C1118 C1119 1.394 . S
C1118 H1126 0.930 . S
C1119 C1118 1.394 . S
C1119 C1120 1.383 . S
C1119 H1127 0.929 . S
C1120 C1119 1.383 . S
C1120 C1121 1.377 1_455 S
C1121 H1105 0.930 . S
C1121 C1120 1.377 1_655 S
C1121 C1122 1.379 . S
C1122 H1106 0.931 . S
C1122 C1116 1.383 1_655 S
C1122 C1121 1.379 . S
H1123 C1117 0.959 . S
H1124 C1117 0.961 . S
H1125 C1117 0.960 . S
H1126 C1118 0.930 . S
H1127 C1119 0.929 . S
C489 C12 2.855 . S
C508 C451 2.843 . S
C525 C52 2.844 . S
C544 C301 2.692 . S
C561 C111 2.910 . S
C580 C361 2.754 . S
C597 C31 3.076 . S
C616 C421 2.901 . S
C652 C331 3.067 . S
C633 C71 3.088 . S
C688 C391 2.997 . S
C669 C92 3.016 . S
C705 C48 0.390 . S
C724 C181 0.444 . S
C741 C109 0.434 . S
C760 C271 0.289 . S
C777 C29 0.415 . S
C796 C151 0.265 . S
C832 C211 0.361 . S
C813 C69 0.327 . S
C868 C241 0.482 . S
C849 C88 0.244 . S
C885 C8 0.267 . S
C904 C121 0.504 . S
C940 C260 1.084 . S
C921 C17 1.081 . S
C957 C57 1.077 . S
C976 C140 1.062 . S
C993 C97 1.078 . S
C1012 C200 1.103 . S
C1048 C380 1.750 . S
C1029 C42 1.716 . S
C1084 C440 1.731 . S
C1065 C82 1.719 . S
C1101 C2 1.725 . S
C1120 C320 1.725 . S
