# Generated by pormake.
# Topology anh, (6,3)-cn, num edge types: 1
# Building blocks:
#     Node 0, Type 0, BuildingBlock: NUHQIS_clean_sbu_0, # of connection points: 6
#     Node 1, Type 0, BuildingBlock: NUHQIS_clean_sbu_0, # of connection points: 6
#     Node 2, Type 0, BuildingBlock: NUHQIS_clean_sbu_0, # of connection points: 6
#     Node 3, Type 1, BuildingBlock: BELTOD_clean_linker_0, # of connection points: 3
#     Node 4, Type 1, BuildingBlock: BELTOD_clean_linker_0, # of connection points: 3
#     Node 5, Type 1, BuildingBlock: BELTOD_clean_linker_0, # of connection points: 3
#     Node 6, Type 1, BuildingBlock: BELTOD_clean_linker_0, # of connection points: 3
#     Node 7, Type 1, BuildingBlock: BELTOD_clean_linker_0, # of connection points: 3
#     Node 8, Type 1, BuildingBlock: BELTOD_clean_linker_0, # of connection points: 3
#     Edge 9, Type (0, 1), BuildingBlock: EZIPEK_clean_linker_0, # of connection points: 2
#     Edge 10, Type (0, 1), BuildingBlock: EZIPEK_clean_linker_0, # of connection points: 2
#     Edge 11, Type (0, 1), BuildingBlock: EZIPEK_clean_linker_0, # of connection points: 2
#     Edge 12, Type (0, 1), BuildingBlock: EZIPEK_clean_linker_0, # of connection points: 2
#     Edge 13, Type (0, 1), BuildingBlock: EZIPEK_clean_linker_0, # of connection points: 2
#     Edge 14, Type (0, 1), BuildingBlock: EZIPEK_clean_linker_0, # of connection points: 2
#     Edge 15, Type (0, 1), BuildingBlock: EZIPEK_clean_linker_0, # of connection points: 2
#     Edge 16, Type (0, 1), BuildingBlock: EZIPEK_clean_linker_0, # of connection points: 2
#     Edge 17, Type (0, 1), BuildingBlock: EZIPEK_clean_linker_0, # of connection points: 2
#     Edge 18, Type (0, 1), BuildingBlock: EZIPEK_clean_linker_0, # of connection points: 2
#     Edge 19, Type (0, 1), BuildingBlock: EZIPEK_clean_linker_0, # of connection points: 2
#     Edge 20, Type (0, 1), BuildingBlock: EZIPEK_clean_linker_0, # of connection points: 2
#     Edge 21, Type (0, 1), BuildingBlock: EZIPEK_clean_linker_0, # of connection points: 2
#     Edge 22, Type (0, 1), BuildingBlock: EZIPEK_clean_linker_0, # of connection points: 2
#     Edge 23, Type (0, 1), BuildingBlock: EZIPEK_clean_linker_0, # of connection points: 2
#     Edge 24, Type (0, 1), BuildingBlock: EZIPEK_clean_linker_0, # of connection points: 2
#     Edge 25, Type (0, 1), BuildingBlock: EZIPEK_clean_linker_0, # of connection points: 2
#     Edge 26, Type (0, 1), BuildingBlock: EZIPEK_clean_linker_0, # of connection points: 2
# Relax obj value: 0.324
# Max RMSD: 0.195
# Mean RMSD: 0.158
data_MOF--net-anh--node1-NUHQIS_clean_sbu_0--node2-BELTOD_clean_linker_0--edge1-EZIPEK_clean_linker_0
_symmetry_space_group_name_H-M    P1
_symmetry_Int_Tables_number       1
_symmetry_cell_setting            triclinic
loop_
_symmetry_equiv_pos_as_xyz
'x, y, z'
_cell_length_a     27.247242
_cell_length_b     27.316963
_cell_length_c     46.7718
_cell_angle_alpha  90.231893
_cell_angle_beta   93.216111
_cell_angle_gamma 120.12879
loop_
_atom_site_label
_atom_site_type_symbol
_atom_site_fract_x
_atom_site_fract_y
_atom_site_fract_z
_atom_type_partial_charge
Tb0 Tb 0.14613 0.57341 0.159 0.0
Eu1 Eu 1.07691 0.63774 0.16633 0.0
C2 C 0.14158 0.6158 0.21951 0.0
C3 C 1.00855 0.49757 0.16927 0.0
C4 C 0.25748 0.53662 0.16802 0.0
C5 C 0.3356 0.51898 0.16844 0.0
C6 C 0.28013 0.50356 0.15943 0.0
C7 C 0.28989 0.58417 0.18667 0.0
C8 C 0.34568 0.59958 0.19585 0.0
C9 C 0.36911 0.56768 0.18614 0.0
C10 C 0.20129 0.52291 0.15613 0.0
O11 O 0.11566 0.57254 0.1149 0.0
O12 O 1.08638 0.63744 0.11827 0.0
O13 O 0.16898 0.71297 0.16535 0.0
O14 O 0.21744 0.66494 0.16266 0.0
C15 C 1.09857 0.60507 0.10283 0.0
O16 O 1.01643 0.66229 0.14991 0.0
O17 O 1.05545 0.68968 0.19283 0.0
O18 O 1.09484 0.61568 0.21107 0.0
O19 O 0.17382 0.61262 0.20104 0.0
O20 O 1.05933 0.50171 0.16873 0.0
O21 O 1.00501 0.54389 0.16624 0.0
C22 C 0.21819 0.71413 0.16516 0.0
O23 O 0.16371 0.5119 0.17485 0.0
O24 O 0.20101 0.55687 0.13666 0.0
C25 C 0.9562 0.65461 0.18544 0.0
C26 C 0.84644 0.57141 0.1984 0.0
C27 C 0.85541 0.59783 0.17203 0.0
C28 C 0.90972 0.63959 0.16572 0.0
C29 C 0.94615 0.63256 0.21308 0.0
C30 C 0.89122 0.59169 0.21966 0.0
C31 C 1.01373 0.68222 0.17479 0.0
H32 H 0.3532 0.49396 0.16075 0.0
H33 H 0.25553 0.46684 0.14508 0.0
H34 H 0.27261 0.61008 0.19346 0.0
H35 H 0.37104 0.63718 0.2095 0.0
H36 H 0.82092 0.58352 0.15558 0.0
H37 H 0.91612 0.65635 0.14443 0.0
H38 H 0.98104 0.6437 0.2289 0.0
H39 H 0.88454 0.57275 0.24043 0.0
Tb40 Tb 0.66264 0.14542 0.49463 0.0
Eu41 Eu 0.52956 0.08427 0.49872 0.0
C42 C 0.61431 0.12733 0.55366 0.0
C43 C 0.59398 1.00787 0.50249 0.0
C44 C 0.81679 0.2356 0.47895 0.0
C45 C 0.91166 0.2717 0.46371 0.0
C46 C 0.86341 0.22862 0.47503 0.0
C47 C 0.81796 0.28559 0.47081 0.0
C48 C 0.86665 0.32908 0.45947 0.0
C49 C 0.91374 0.32221 0.45621 0.0
C50 C 0.76847 0.19007 0.49213 0.0
O51 O 0.63205 0.14939 0.4511 0.0
O52 O 0.54372 0.07183 0.45211 0.0
O53 O 0.55199 0.1776 0.49424 0.0
O54 O 0.64881 0.21956 0.50291 0.0
C55 C 0.58609 0.10861 0.43761 0.0
O56 O 0.44222 1.04946 0.48039 0.0
O57 O 0.4583 1.04477 0.5258 0.0
O58 O 0.57049 0.12829 0.54155 0.0
O59 O 0.64729 0.11825 0.5381 0.0
O60 O 0.6391 1.05365 0.49356 0.0
O61 O 0.54874 1.01152 0.5082 0.0
C62 C 0.60209 0.22403 0.49999 0.0
O63 O 0.74473 0.2044 0.51136 0.0
O64 O 0.73137 0.14909 0.47483 0.0
C65 C 0.38489 0.96295 0.50304 0.0
C66 C 0.3525 0.84882 0.50886 0.0
C67 C 0.37098 0.87475 0.48279 0.0
C68 C 0.38719 0.93145 0.47986 0.0
C69 C 0.36063 0.93512 0.52813 0.0
C70 C 0.34472 0.87822 0.53111 0.0
C71 C 0.42058 1.02511 0.50415 0.0
H72 H 0.94796 0.26619 0.46134 0.0
H73 H 0.86281 0.19011 0.48117 0.0
H74 H 0.78187 0.2912 0.47365 0.0
H75 H 0.86816 0.3682 0.45382 0.0
H76 H 0.37674 0.85219 0.46537 0.0
H77 H 0.40595 0.95154 0.46031 0.0
H78 H 0.35887 0.95869 0.54635 0.0
H79 H 0.33018 0.85841 0.55131 0.0
Tb80 Tb 0.60696 0.62526 0.83287 0.0
Eu81 Eu 0.53453 0.49088 0.81972 0.0
C82 C 0.5736 0.54092 0.88437 0.0
C83 C 0.67835 0.55894 0.83231 0.0
C84 C 0.64218 0.77032 0.85285 0.0
C85 C 0.65514 0.86429 0.85291 0.0
C86 C 0.67562 0.82785 0.84778 0.0
C87 C 0.59008 0.75014 0.86546 0.0
C88 C 0.56957 0.78687 0.87078 0.0
C89 C 0.60087 0.84355 0.86313 0.0
C90 C 0.65776 0.73118 0.84065 0.0
O91 O 0.61445 0.61327 0.78691 0.0
O92 O 0.53585 0.52675 0.77646 0.0
O93 O 0.46364 0.5124 0.82632 0.0
O94 O 0.51742 0.60807 0.83559 0.0
C95 C 0.57727 0.57459 0.76812 0.0
O96 O 0.52049 0.4157 0.79584 0.0
O97 O 0.46377 0.40754 0.82853 0.0
O98 O 0.55547 0.49755 0.86662 0.0
O99 O 0.59027 0.59236 0.87586 0.0
O100 O 0.67824 0.60717 0.83531 0.0
O101 O 0.62922 0.51117 0.82591 0.0
C102 C 0.46664 0.56117 0.83286 0.0
O103 O 0.6638 0.69756 0.8583 0.0
O104 O 0.62812 0.70449 0.81714 0.0
C105 C 0.49965 0.34491 0.82886 0.0
C106 C 0.57161 0.31173 0.85635 0.0
C107 C 0.55523 0.29853 0.82707 0.0
C108 C 0.51918 0.31478 0.81341 0.0
C109 C 0.51037 0.35158 0.85893 0.0
C110 C 0.546 0.33468 0.87265 0.0
C111 C 0.48314 0.38167 0.81322 0.0
H112 H 0.6799 0.90796 0.84684 0.0
H113 H 0.71577 0.84388 0.83799 0.0
H114 H 0.56386 0.70557 0.86952 0.0
H115 H 0.52795 0.77035 0.87897 0.0
H116 H 0.57431 0.28011 0.8143 0.0
H117 H 0.51155 0.30915 0.79032 0.0
H118 H 0.49582 0.37459 0.87153 0.0
H119 H 0.55787 0.34452 0.89532 0.0
P120 P 0.6315 0.09606 0.21561 0.0
H121 H 0.58706 0.97184 0.20589 0.0
H122 H 0.49456 0.88843 0.19349 0.0
H123 H 0.42252 0.995 0.17769 0.0
H124 H 0.51642 0.07991 0.19051 0.0
H125 H 0.71793 0.1305 0.1709 0.0
H126 H 0.80349 0.21976 0.16008 0.0
H127 H 0.75922 0.31029 0.21894 0.0
H128 H 0.6736 0.22103 0.22972 0.0
H129 H 0.52762 1.05083 0.2493 0.0
H130 H 0.70873 0.1595 0.2659 0.0
O131 O 0.67158 1.06595 0.21979 0.0
H132 H 0.51467 1.0528 0.30047 0.0
H133 H 0.69516 0.16215 0.31731 0.0
C134 C 0.5619 1.03487 0.19866 0.0
C135 C 0.55248 0.97872 0.19909 0.0
C136 C 0.4983 0.92972 0.19209 0.0
C137 C 0.44919 0.93308 0.18431 0.0
C138 C 0.45832 0.98924 0.18334 0.0
C139 C 0.51302 1.03869 0.19042 0.0
C140 C 0.68618 0.1667 0.20089 0.0
C141 C 0.72498 0.16943 0.181 0.0
C142 C 0.77524 0.22131 0.17498 0.0
C143 C 0.7902 0.27414 0.18843 0.0
C144 C 0.75056 0.27171 0.20775 0.0
C145 C 0.70031 0.21975 0.2138 0.0
C146 C 0.61938 0.10589 0.25303 0.0
C147 C 0.56473 0.07621 0.26356 0.0
C148 C 0.55712 0.07702 0.29308 0.0
C149 C 0.60383 0.10761 0.313 0.0
C150 C 0.6583 0.13838 0.30252 0.0
C151 C 0.66596 0.13719 0.27301 0.0
P152 P 0.62307 0.62804 0.54558 0.0
H153 H 0.67634 0.58852 0.5026 0.0
H154 H 0.67251 0.49822 0.49229 0.0
H155 H 0.53453 0.4138 0.54712 0.0
H156 H 0.53835 0.50403 0.55751 0.0
H157 H 0.63834 0.69672 0.49198 0.0
H158 H 0.63268 0.78238 0.48128 0.0
H159 H 0.56431 0.77442 0.56277 0.0
H160 H 0.56975 0.69 0.57336 0.0
H161 H 0.70312 0.65391 0.59651 0.0
H162 H 0.52191 0.58052 0.58043 0.0
O163 O 0.69339 0.66623 0.54341 0.0
H164 H 0.69121 0.64162 0.64794 0.0
H165 H 0.51021 0.56849 0.63233 0.0
C166 C 0.60716 0.55571 0.53077 0.0
C167 C 0.64389 0.55077 0.51201 0.0
C168 C 0.64211 0.49822 0.50623 0.0
C169 C 0.60349 0.44683 0.51884 0.0
C170 C 0.56537 0.45127 0.53681 0.0
C171 C 0.56722 0.5039 0.54263 0.0
C172 C 0.60246 0.68263 0.53328 0.0
C173 C 0.62 0.71161 0.50732 0.0
C174 C 0.6174 0.76198 0.50126 0.0
C175 C 0.59739 0.78702 0.52085 0.0
C176 C 0.57921 0.75755 0.54656 0.0
C177 C 0.58189 0.70754 0.55259 0.0
C178 C 0.61347 0.6189 0.58419 0.0
C179 C 0.66068 0.63546 0.60386 0.0
C180 C 0.65399 0.62841 0.63342 0.0
C181 C 0.59989 0.60451 0.64421 0.0
C182 C 0.55247 0.58738 0.62464 0.0
C183 C 0.55917 0.5942 0.59497 0.0
P184 P 1.0965 0.59952 0.87662 0.0
H185 H 0.15468 0.6055 0.82193 0.0
H186 H 0.23716 0.59592 0.81111 0.0
H187 H 0.24187 0.53845 0.89611 0.0
H188 H 0.15775 0.54419 0.90611 0.0
H189 H 1.04722 0.67417 0.86617 0.0
H190 H 0.95262 0.66114 0.85579 0.0
H191 H 0.88328 0.48128 0.84764 0.0
H192 H 0.97917 0.49427 0.85825 0.0
H193 H 0.18504 0.65117 0.92392 0.0
H194 H 1.00284 0.54199 0.91643 0.0
O195 O 0.13705 0.66873 0.87161 0.0
H196 H 0.18328 0.65164 0.97633 0.0
H197 H 1.00091 0.545 0.96869 0.0
C198 C 0.14674 0.57466 0.86489 0.0
C199 C 0.17159 0.58861 0.83806 0.0
C200 C 0.22036 0.58409 0.83199 0.0
C201 C 0.24866 0.56695 0.85266 0.0
C202 C 0.2229 0.55188 0.87923 0.0
C203 C 0.17351 0.55511 0.88501 0.0
C204 C 1.02341 0.58569 0.8623 0.0
C205 C 1.01259 0.63147 0.86144 0.0
C206 C 0.95722 0.62401 0.85567 0.0
C207 C 0.90817 0.57001 0.85064 0.0
C208 C 0.91866 0.52381 0.85117 0.0
C209 C 0.97457 0.53134 0.85702 0.0
C210 C 1.09422 0.59627 0.91578 0.0
C211 C 0.14461 0.62716 0.93341 0.0
C212 C 0.14361 0.62772 0.96345 0.0
C213 C 1.09194 0.59855 0.97679 0.0
C214 C 1.04142 0.56787 0.95915 0.0
C215 C 1.0426 0.56622 0.92909 0.0
P216 P 0.32449 0.55318 0.39927 0.0
H217 H 0.32873 0.53066 0.45976 0.0
H218 H 0.33686 0.59083 0.50086 0.0
H219 H 0.40753 0.73607 0.44772 0.0
H220 H 0.40317 0.67681 0.40727 0.0
H221 H 0.23668 0.43171 0.3965 0.0
H222 H 0.13649 0.38285 0.40877 0.0
H223 H 0.15398 0.54326 0.43389 0.0
H224 H 0.2532 0.5914 0.42254 0.0
H225 H 0.30708 0.51721 0.33923 0.0
H226 H 0.31194 0.65315 0.38912 0.0
O227 O 0.34956 0.50997 0.39273 0.0
H228 H 0.26071 0.53853 0.29865 0.0
H229 H 0.26657 0.67423 0.34876 0.0
C230 C 0.36225 0.59906 0.43014 0.0
C231 C 0.34916 0.57603 0.45738 0.0
C232 C 0.35334 0.61014 0.48081 0.0
C233 C 0.37086 0.66726 0.47688 0.0
C234 C 0.39312 0.69175 0.45093 0.0
C235 C 0.39008 0.65784 0.42776 0.0
C236 C 0.25242 0.51491 0.40914 0.0
C237 C 0.219 0.45609 0.40491 0.0
C238 C 0.16209 0.42847 0.41164 0.0
C239 C 0.13855 0.45984 0.42222 0.0
C240 C 0.17172 0.51866 0.42577 0.0
C241 C 0.2283 0.54589 0.4194 0.0
C242 C 0.3152 0.58465 0.36714 0.0
C243 C 0.30092 0.55325 0.34113 0.0
C244 C 0.27356 0.5647 0.31815 0.0
C245 C 0.25994 0.60754 0.321 0.0
C246 C 0.27691 0.64104 0.34629 0.0
C247 C 0.30409 0.62955 0.3692 0.0
P248 P 0.76757 0.17919 0.76576 0.0
H249 H 0.82933 0.23344 0.82001 0.0
H250 H 0.80295 0.2755 0.85862 0.0
H251 H 0.67609 0.27859 0.8005 0.0
H252 H 0.70086 0.23592 0.76266 0.0
H253 H 0.77903 0.09176 0.79651 0.0
H254 H 0.71224 1.01218 0.82402 0.0
H255 H 0.58105 1.05276 0.80242 0.0
H256 H 0.64686 0.13044 0.77354 0.0
H257 H 0.76855 0.26374 0.72629 0.0
H258 H 0.71222 0.08518 0.72399 0.0
O259 O 0.83187 0.18562 0.76686 0.0
H260 H 0.72651 0.25424 0.67732 0.0
H261 H 0.67372 0.07654 0.67446 0.0
C262 C 0.76835 0.23305 0.7881 0.0
C263 C 0.79788 0.24592 0.81521 0.0
C264 C 0.78245 0.26911 0.83732 0.0
C265 C 0.73721 0.27921 0.8323 0.0
C266 C 0.71118 0.27092 0.80463 0.0
C267 C 0.72625 0.24757 0.78277 0.0
C268 C 0.71768 0.11649 0.78281 0.0
C269 C 0.73569 0.08291 0.79718 0.0
C270 C 0.69781 1.03802 0.81306 0.0
C271 C 0.64188 1.02685 0.81511 0.0
C272 C 0.62395 1.06072 0.80091 0.0
C273 C 0.66146 0.10476 0.78445 0.0
C274 C 0.7414 0.17469 0.72912 0.0
C275 C 0.74684 0.22251 0.71538 0.0
C276 C 0.72314 0.21718 0.68746 0.0
C277 C 0.69639 0.16451 0.67246 0.0
C278 C 0.69342 0.11731 0.68583 0.0
C279 C 0.71557 0.12234 0.714 0.0
P280 P 0.51443 0.38515 0.08821 0.0
H281 H 0.50481 0.31894 0.13791 0.0
H282 H 0.57696 0.3439 0.17755 0.0
H283 H 0.70708 0.45224 0.12223 0.0
H284 H 0.6355 0.42634 0.08253 0.0
H285 H 0.41901 0.39682 0.10528 0.0
H286 H 0.41374 0.4633 0.13856 0.0
H287 H 0.59578 0.55095 0.15552 0.0
H288 H 0.60153 0.48551 0.12211 0.0
H289 H 0.48036 0.33674 0.02968 0.0
H290 H 0.59262 0.50094 0.07064 0.0
O291 O 0.4515 0.32544 0.08476 0.0
H292 H 0.49955 0.38008 0.98266 0.0
H293 H 0.61081 0.5439 0.02381 0.0
C294 C 0.56482 0.37166 0.10747 0.0
C295 C 0.54925 0.34515 0.13377 0.0
C296 C 0.59017 0.36004 0.15654 0.0
C297 C 0.64654 0.40175 0.15295 0.0
C298 C 0.66327 0.42095 0.12543 0.0
C299 C 0.62249 0.40553 0.10263 0.0
C300 C 0.51038 0.43546 0.11146 0.0
C301 C 0.45778 0.43025 0.11607 0.0
C302 C 0.45483 0.46801 0.13507 0.0
C303 C 0.50446 0.51147 0.14952 0.0
C304 C 0.55718 0.51735 0.14466 0.0
C305 C 0.56015 0.47975 0.12559 0.0
C306 C 0.53432 0.41563 0.05373 0.0
C307 C 0.50928 0.38186 0.02862 0.0
C308 C 0.52002 0.4065 0.00187 0.0
C309 C 0.55592 0.46513 1.0 0.0
C310 C 0.58254 0.49865 0.025 0.0
C311 C 0.57207 0.47397 0.0517 0.0
C312 C 0.44185 0.54923 0.20771 0.0
C313 C 0.42979 0.58584 0.19152 0.0
C314 C 0.50005 0.59865 0.15816 0.0
C315 C 0.49944 0.55049 0.16939 0.0
N316 N 0.48618 0.4907 0.2091 0.0
N317 N 0.46278 0.66127 0.15805 0.0
C318 C 0.47694 0.53035 0.1962 0.0
C319 C 0.46557 0.61728 0.16986 0.0
N320 N 0.41503 0.52913 0.23233 0.0
N321 N 0.5299 0.62391 0.13494 0.0
H322 H 0.43747 0.67658 0.16558 0.0
H323 H 0.43747 0.67658 0.16558 0.0
H324 H 0.55579 0.61098 0.12577 0.0
H325 H 0.52957 0.6584 0.1256 0.0
H326 H 0.41997 0.50094 0.24536 0.0
H327 H 0.38878 0.5432 0.24003 0.0
H328 H 0.4696 0.47222 0.22825 0.0
H329 H 0.51252 0.47758 0.20059 0.0
C330 C 1.01219 0.39944 0.46804 0.0
C331 C 0.96765 0.3685 0.44684 0.0
C332 C 1.03402 0.4087 0.40917 0.0
C333 C 1.07949 0.43115 0.43062 0.0
N334 N 0.11325 0.44546 0.48056 0.0
N335 N 0.93405 0.34218 0.39736 0.0
C336 C 1.06905 0.42663 0.46014 0.0
C337 C 0.97777 0.37332 0.41735 0.0
N338 N 0.99978 0.40217 0.49572 0.0
N339 N 1.04471 0.42193 0.38119 0.0
H340 H 0.89194 0.31767 0.40269 0.0
H341 H 0.93975 0.33848 0.3758 0.0
H342 H 1.08564 0.44783 0.37456 0.0
H343 H 1.01291 0.41129 0.36494 0.0
H344 H 1.02997 0.42837 0.51172 0.0
H345 H 0.95815 0.38226 0.50203 0.0
H346 H 0.10779 0.43766 0.50225 0.0
H347 H 0.15576 0.46513 0.4757 0.0
C348 C 0.60388 0.93227 0.87645 0.0
C349 C 0.57557 0.8803 0.8606 0.0
C350 C 0.56439 0.92614 0.81836 0.0
C351 C 0.60322 0.97899 0.83227 0.0
N352 N 0.64224 1.03424 0.8763 0.0
N353 N 0.50506 0.82457 0.82312 0.0
C354 C 0.616 0.98258 0.86225 0.0
C355 C 0.54651 0.87631 0.83398 0.0
N356 N 0.62379 0.93314 0.90396 0.0
N357 N 0.54895 0.92327 0.78984 0.0
H358 H 0.49233 0.78795 0.83461 0.0
H359 H 0.47981 0.81884 0.80445 0.0
H360 H 0.56067 0.95915 0.7779 0.0
H361 H 0.52634 0.88542 0.77778 0.0
H362 H 0.64968 0.96993 0.91637 0.0
H363 H 0.61412 0.89555 0.91405 0.0
H364 H 0.65121 1.04006 0.89838 0.0
H365 H 0.65122 0.07112 0.86569 0.0
C366 C 0.74192 0.52538 0.20163 0.0
C367 C 0.79075 0.51973 0.20169 0.0
C368 C 0.73335 0.42214 0.18284 0.0
C369 C 0.68748 0.43179 0.17773 0.0
N370 N 0.64018 0.4826 0.19018 0.0
N371 N 0.83044 0.45827 0.20222 0.0
C372 C 0.68892 0.47991 0.19027 0.0
C373 C 0.78538 0.46614 0.19599 0.0
N374 N 0.74779 0.57577 0.21071 0.0
N375 N 0.72781 0.37233 0.17313 0.0
H376 H 0.86951 0.49016 0.21115 0.0
H377 H 0.8279 0.41909 0.20094 0.0
H378 H 0.689 0.33888 0.16464 0.0
H379 H 0.7612 0.36441 0.17296 0.0
H380 H 0.7157 0.58583 0.20883 0.0
H381 H 0.78623 0.60828 0.22014 0.0
H382 H 0.63727 0.51519 0.19998 0.0
H383 H 0.60101 0.44966 0.18193 0.0
C384 C 0.29891 0.74424 0.50176 0.0
C385 C 0.34824 0.79333 0.51309 0.0
C386 C 0.40101 0.74269 0.5148 0.0
C387 C 0.35679 0.69967 0.49699 0.0
N388 N 0.25916 0.65166 0.47806 0.0
N389 N 0.44374 0.83856 0.53493 0.0
C390 C 0.30362 0.69728 0.49256 0.0
C391 C 0.39815 0.79176 0.52181 0.0
N392 N 0.24849 0.74378 0.49923 0.0
N393 N 0.44569 0.73648 0.52438 0.0
H394 H 0.44211 0.87455 0.54084 0.0
H395 H 0.48339 0.84249 0.53947 0.0
H396 H 0.44793 0.70053 0.51902 0.0
H397 H 0.47734 0.76402 0.5394 0.0
H398 H 0.20968 0.70848 0.49259 0.0
H399 H 0.24507 0.77834 0.50603 0.0
H400 H 0.22128 0.64962 0.47099 0.0
H401 H 0.2604 0.61518 0.47297 0.0
C402 C 0.67619 0.3574 0.86474 0.0
C403 C 0.62192 0.30924 0.8678 0.0
C404 C 0.66268 0.24775 0.86673 0.0
C405 C 0.71149 0.29313 0.85564 0.0
N406 N 0.77185 0.39232 0.84972 0.0
N407 N 0.56491 0.21175 0.87903 0.0
C408 C 0.7213 0.34889 0.85758 0.0
C409 C 0.61616 0.25549 0.87204 0.0
N410 N 0.68311 0.41041 0.86695 0.0
N411 N 0.6601 0.19691 0.87009 0.0
H412 H 0.5314 0.21817 0.88355 0.0
H413 H 0.55546 0.16996 0.88045 0.0
H414 H 0.69431 0.1914 0.86599 0.0
H415 H 0.62632 0.16166 0.87846 0.0
H416 H 0.72212 0.44763 0.86652 0.0
H417 H 0.64992 0.41717 0.87141 0.0
H418 H 0.78039 0.43362 0.84736 0.0
H419 H 0.80525 0.38584 0.84506 0.0
C420 C 0.5564 0.8996 0.49096 0.0
C421 C 0.59506 0.95109 0.5069 0.0
C422 C 0.63448 0.89514 0.53227 0.0
C423 C 0.59748 0.84428 0.51542 0.0
N424 N 0.52825 0.80279 0.47546 0.0
N425 N 0.67503 0.99706 0.5415 0.0
C426 C 0.56011 0.84824 0.49387 0.0
C427 C 0.63519 0.94826 0.52711 0.0
N428 N 0.51467 0.89905 0.47313 0.0
N429 N 0.66939 0.89282 0.55369 0.0
H430 H 0.67469 1.03495 0.54026 0.0
H431 H 0.71029 1.00125 0.55354 0.0
H432 H 0.67431 0.85766 0.55652 0.0
H433 H 0.69164 0.92442 0.56955 0.0
H434 H 0.48023 0.86218 0.46389 0.0
H435 H 0.51236 0.93533 0.46898 0.0
H436 H 0.50715 0.80482 0.45666 0.0
H437 H 0.52611 0.76387 0.47789 0.0
C438 C 0.75623 0.53558 0.81633 0.0
C439 C 0.73619 0.55898 0.83724 0.0
C440 C 0.82448 0.58108 0.86819 0.0
C441 C 0.84721 0.56322 0.84621 0.0
N442 N 0.83505 0.5293 0.7974 0.0
N443 N 0.75836 0.61044 0.88274 0.0
C444 C 0.81269 0.5416 0.81989 0.0
C445 C 0.77268 0.58373 0.86291 0.0
N446 N 0.72155 0.50777 0.79254 0.0
N447 N 0.85092 0.59286 0.89508 0.0
H448 H 0.71978 0.60976 0.88168 0.0
H449 H 0.78631 0.63629 0.89953 0.0
H450 H 0.88729 0.59021 0.90007 0.0
H451 H 0.83375 0.59935 0.91306 0.0
H452 H 0.72908 0.48301 0.77846 0.0
H453 H 0.68326 0.50664 0.78765 0.0
H454 H 0.81624 0.51985 0.77663 0.0
H455 H 0.87515 0.53311 0.79897 0.0
C456 C 0.28624 0.81752 0.18873 0.0
C457 C 0.27658 0.77253 0.16871 0.0
C458 C 0.37816 0.83748 0.15585 0.0
C459 C 0.38917 0.87818 0.17836 0.0
N460 N 0.35348 0.89776 0.22008 0.0
N461 N 0.31835 0.74377 0.13279 0.0
C462 C 0.34293 0.86555 0.19562 0.0
C463 C 0.32436 0.78381 0.15246 0.0
N464 N 0.24159 0.81627 0.20129 0.0
N465 N 0.41823 0.85149 0.13634 0.0
H466 H 0.27911 0.70936 0.12578 0.0
H467 H 0.35259 0.74403 0.12382 0.0
H468 H 0.45657 0.88989 0.13755 0.0
H469 H 0.41166 0.82789 0.11754 0.0
H470 H 0.2452 0.8512 0.2124 0.0
H471 H 0.20001 0.78296 0.19916 0.0
H472 H 0.32421 0.88686 0.23568 0.0
H473 H 0.39348 0.93197 0.22635 0.0
C474 C 0.61276 0.30776 0.53277 0.0
C475 C 0.6051 0.28265 0.5047 0.0
C476 C 0.59237 0.36247 0.48606 0.0
C477 C 0.60399 0.3898 0.5139 0.0
N478 N 0.6359 0.39079 0.56304 0.0
N479 N 0.59817 0.29455 0.45413 0.0
C480 C 0.61691 0.36272 0.53698 0.0
C481 C 0.5978 0.3126 0.48132 0.0
N482 N 0.61451 0.27819 0.55589 0.0
N483 N 0.57358 0.38275 0.464 0.0
H484 H 0.60329 0.25989 0.45005 0.0
H485 H 0.59922 0.31691 0.43598 0.0
H486 H 0.56832 0.41776 0.46647 0.0
H487 H 0.55827 0.362 0.44402 0.0
H488 H 0.61289 0.28965 0.57692 0.0
H489 H 0.61304 0.23948 0.55385 0.0
H490 H 0.65222 0.37741 0.57996 0.0
H491 H 0.64044 0.4305 0.56696 0.0
C492 C 0.36421 0.51879 0.85184 0.0
C493 C 0.41071 0.56309 0.83777 0.0
C494 C 0.35408 0.61326 0.83671 0.0
C495 C 0.30464 0.56551 0.84701 0.0
N496 N 0.26224 0.46669 0.85764 0.0
N497 N 0.44054 0.64812 0.81124 0.0
C498 C 0.30986 0.51668 0.85262 0.0
C499 C 0.40286 0.60907 0.82873 0.0
N500 N 0.37229 0.47972 0.8662 0.0
N501 N 0.35625 0.66422 0.8357 0.0
H502 H 0.4742 0.64544 0.80344 0.0
H503 H 0.43442 0.67927 0.80176 0.0
H504 H 0.32381 0.67024 0.84248 0.0
H505 H 0.39281 0.70172 0.83126 0.0
H506 H 0.34219 0.44998 0.87908 0.0
H507 H 0.41142 0.4815 0.8683 0.0
H508 H 0.26203 0.42852 0.85906 0.0
H509 H 0.22185 0.46215 0.85704 0.0
C510 C 0.90555 0.41471 0.1529 0.0
C511 C 0.95327 0.43885 0.17369 0.0
C512 C 0.89378 0.35613 0.20438 0.0
C513 C 0.84717 0.33068 0.18304 0.0
N514 N 0.81442 0.33405 0.13467 0.0
N515 N 0.99349 0.42501 0.21794 0.0
C516 C 0.85517 0.35961 0.15665 0.0
C517 C 0.94731 0.40709 0.19896 0.0
N518 N 0.90786 0.44481 0.12927 0.0
N519 N 0.88686 0.3318 0.23041 0.0
H520 H 1.03193 0.46205 0.2156 0.0
H521 H 0.99543 0.40133 0.23488 0.0
H522 H 0.85113 0.29334 0.23463 0.0
H523 H 0.91468 0.35113 0.24838 0.0
H524 H 0.87285 0.43476 0.11521 0.0
H525 H 0.94434 0.48208 0.12446 0.0
H526 H 0.81963 0.34795 0.11378 0.0
H527 H 0.77624 0.29652 0.13689 0.0
C528 C 1.06429 0.55139 0.05475 0.0
C529 C 1.09292 0.60416 0.0705 0.0
C530 C 0.112 0.65279 0.02459 0.0
C531 C 1.09094 0.60029 0.00911 0.0
N532 N 1.05698 0.50003 0.01087 0.0
N533 N 0.15396 0.70571 0.06961 0.0
C534 C 1.06968 0.54966 0.0246 0.0
C535 C 0.11928 0.65512 0.05521 0.0
N536 N 1.03013 0.50279 0.06836 0.0
N537 N 0.12352 0.7004 0.01017 0.0
H538 H 0.16242 0.70945 0.09176 0.0
H539 H 0.17891 0.74318 0.05927 0.0
H540 H 0.11725 0.70025 0.98796 0.0
H541 H 0.13356 0.73851 0.02046 0.0
H542 H 1.00394 0.46402 0.05749 0.0
H543 H 1.02304 0.50239 0.09006 0.0
H544 H 1.04696 0.46319 0.02166 0.0
H545 H 1.06214 0.49705 0.98914 0.0
C546 C 0.59736 1.06541 0.39209 0.0
C547 C 0.58386 0.10373 0.40536 0.0
C548 C 0.57791 0.14077 0.3578 0.0
C549 C 0.59589 0.10563 0.34485 0.0
N550 N 0.62516 1.03608 0.34956 0.0
N551 N 0.56035 0.17729 0.4014 0.0
C552 C 0.60601 0.0682 0.36201 0.0
C553 C 0.57367 0.14109 0.38826 0.0
N554 N 0.60107 1.02568 0.4083 0.0
N555 N 0.56424 0.17339 0.3408 0.0
H556 H 0.55191 0.17479 0.42298 0.0
H557 H 0.55882 0.21049 0.39142 0.0
H558 H 0.56904 0.17593 0.31879 0.0
H559 H 0.54567 0.19601 0.34794 0.0
H560 H 0.60496 0.99256 0.39992 0.0
H561 H 0.5962 1.02324 0.4303 0.0
H562 H 0.63985 1.01282 0.36095 0.0
H563 H 0.6293 1.03482 0.32758 0.0
C564 C 0.59354 0.5458 0.71947 0.0
C565 C 0.58414 0.58332 0.73647 0.0
C566 C 0.58861 0.63698 0.69328 0.0
C567 C 0.59326 0.59671 0.67598 0.0
N568 N 0.59198 0.50816 0.67201 0.0
N569 N 0.56441 0.65984 0.73882 0.0
C570 C 0.59339 0.5498 0.68896 0.0
C571 C 0.57966 0.62779 0.72316 0.0
N572 N 0.60512 0.50776 0.7326 0.0
N573 N 0.5941 0.68485 0.68124 0.0
H574 H 0.5574 0.65436 0.76056 0.0
H575 H 0.55417 0.68867 0.72987 0.0
H576 H 0.59935 0.69237 0.65947 0.0
H577 H 0.59769 0.71898 0.69308 0.0
H578 H 0.61865 0.48361 0.7219 0.0
H579 H 0.60624 0.50385 0.75476 0.0
H580 H 0.58546 0.46976 0.67969 0.0
H581 H 0.5927 0.50997 0.64975 0.0
C582 C 0.59451 0.10863 0.60575 0.0
C583 C 0.63101 0.14181 0.58452 0.0
C584 C 0.71019 0.18915 0.62075 0.0
C585 C 0.67315 0.15883 0.64237 0.0
N586 N 0.57702 0.10028 0.65623 0.0
N587 N 0.71733 0.22615 0.57348 0.0
C588 C 0.61422 0.12182 0.63512 0.0
C589 C 0.68694 0.18604 0.59257 0.0
N590 N 0.54233 1.06302 0.59796 0.0
N591 N 0.7678 0.21859 0.62662 0.0
H592 H 0.70006 0.22696 0.55317 0.0
H593 H 0.75652 0.2621 0.57905 0.0
H594 H 0.78718 0.22014 0.64672 0.0
H595 H 0.79652 0.23657 0.61075 0.0
H596 H 0.51668 1.03376 0.61248 0.0
H597 H 0.52654 1.05178 0.57669 0.0
H598 H 0.53303 0.07734 0.65209 0.0
H599 H 0.58983 0.11008 0.67794 0.0
C600 C 0.61034 0.50889 0.92625 0.0
C601 C 0.57491 0.5299 0.9153 0.0
C602 C 0.52877 0.51118 0.96074 0.0
C603 C 0.56508 0.49139 0.97169 0.0
N604 N 0.64772 0.48203 0.96776 0.0
N605 N 0.5055 0.55809 0.9228 0.0
C606 C 0.60827 0.49373 0.95533 0.0
C607 C 0.53608 0.53379 0.93289 0.0
N608 N 0.64462 0.50154 0.90858 0.0
N609 N 0.48582 0.50609 0.97657 0.0
H610 H 0.50688 0.57189 0.90197 0.0
H611 H 0.48116 0.56785 0.93547 0.0
H612 H 0.48033 0.49138 0.99736 0.0
H613 H 0.45357 0.51327 0.96874 0.0
H614 H 0.66621 0.48024 0.91427 0.0
H615 H 0.64898 0.51365 0.88739 0.0
H616 H 0.68415 0.4892 0.95811 0.0
H617 H 0.64667 0.46949 0.98886 0.0
C618 C 0.21989 0.66725 0.25662 0.0
C619 C 0.16304 0.62363 0.25001 0.0
C620 C 0.16583 0.57845 0.29473 0.0
C621 C 0.22566 0.61581 0.2979 0.0
N622 N 0.31071 0.69532 0.28172 0.0
N623 N 1.07931 0.53966 0.26348 0.0
C624 C 0.25294 0.6607 0.27906 0.0
C625 C 0.13478 0.58029 0.26959 0.0
N626 N 0.24179 0.71507 0.24119 0.0
N627 N 0.13898 0.54171 0.31585 0.0
H628 H 1.05468 0.54238 0.24639 0.0
H629 H 1.05813 0.50274 0.27477 0.0
H630 H 0.16069 0.53917 0.33437 0.0
H631 H 1.09498 0.51686 0.31617 0.0
H632 H 0.28143 0.75086 0.24605 0.0
H633 H 0.21679 0.72051 0.22534 0.0
H634 H 0.33364 0.72456 0.26656 0.0
H635 H 0.33647 0.69217 0.2981 0.0
loop_
_geom_bond_atom_site_label_1
_geom_bond_atom_site_label_2
_geom_bond_distance
_geom_bond_site_symmetry_2
_ccdc_geom_bond_type
Tb0 C10 2.825 . S
Tb0 O11 2.347 . S
Tb0 O14 2.366 . S
Tb0 O19 2.418 . S
Tb0 O20 2.384 1_455 S
Tb0 O23 2.479 . S
Tb0 O24 2.471 . S
Eu1 O12 2.418 . S
Eu1 O13 2.384 1_655 S
Eu1 O16 2.479 . S
Eu1 O17 2.471 . S
Eu1 O18 2.347 1_655 S
Eu1 O21 2.366 . S
Eu1 C31 2.825 . S
C2 O18 1.259 . S
C2 O19 1.265 . S
C3 O20 1.255 . S
C3 O21 1.265 . S
C4 C6 1.380 . S
C4 C7 1.374 . S
C4 C10 1.507 . S
C5 C6 1.384 . S
C5 C9 1.387 . S
C5 H32 0.930 . S
C6 C4 1.380 . S
C6 C5 1.384 . S
C6 H33 0.931 . S
C7 C4 1.374 . S
C7 C8 1.390 . S
C7 H34 0.930 . S
C8 C7 1.390 . S
C8 C9 1.391 . S
C8 H35 0.930 . S
C9 C5 1.387 . S
C9 C8 1.391 . S
C10 Tb0 2.825 . S
C10 C4 1.507 . S
C10 O23 1.238 . S
C10 O24 1.247 . S
O11 Tb0 2.347 . S
O11 C15 1.259 . S
O12 Eu1 2.418 . S
O12 C15 1.265 1_655 S
O13 Eu1 2.384 1_455 S
O13 C22 1.255 . S
O14 Tb0 2.366 . S
O14 C22 1.265 . S
C15 O11 1.259 . S
C15 O12 1.265 1_455 S
O16 Eu1 2.479 . S
O16 C31 1.238 . S
O17 Eu1 2.471 . S
O17 C31 1.247 . S
O18 Eu1 2.347 1_455 S
O18 C2 1.259 . S
O19 Tb0 2.418 . S
O19 C2 1.265 . S
O20 Tb0 2.384 1_655 S
O20 C3 1.255 . S
O21 Eu1 2.366 . S
O21 C3 1.265 . S
C22 O13 1.255 . S
C22 O14 1.265 . S
O23 Tb0 2.479 . S
O23 C10 1.238 . S
O24 Tb0 2.471 . S
O24 C10 1.247 . S
C25 C28 1.380 . S
C25 C29 1.374 . S
C25 C31 1.507 . S
C26 C27 1.387 . S
C26 C30 1.391 . S
C27 C26 1.387 . S
C27 C28 1.384 . S
C27 H36 0.930 . S
C28 C25 1.380 . S
C28 C27 1.384 . S
C28 H37 0.931 . S
C29 C25 1.374 . S
C29 C30 1.390 . S
C29 H38 0.930 . S
C30 C26 1.391 . S
C30 C29 1.390 . S
C30 H39 0.930 . S
C31 Eu1 2.825 . S
C31 O16 1.238 . S
C31 O17 1.247 . S
C31 C25 1.507 . S
H32 C5 0.930 . S
H33 C6 0.931 . S
H34 C7 0.930 . S
H35 C8 0.930 . S
H36 C27 0.930 . S
H37 C28 0.931 . S
H38 C29 0.930 . S
H39 C30 0.930 . S
Tb40 C50 2.825 . S
Tb40 O51 2.347 . S
Tb40 O54 2.366 . S
Tb40 O59 2.418 . S
Tb40 O60 2.384 1_545 S
Tb40 O63 2.479 . S
Tb40 O64 2.471 . S
Eu41 O52 2.418 . S
Eu41 O53 2.384 . S
Eu41 O56 2.479 1_545 S
Eu41 O57 2.471 1_545 S
Eu41 O58 2.347 . S
Eu41 O61 2.366 1_545 S
Eu41 C71 2.825 1_545 S
C42 O58 1.259 . S
C42 O59 1.265 . S
C43 O60 1.255 . S
C43 O61 1.265 . S
C44 C46 1.380 . S
C44 C47 1.374 . S
C44 C50 1.507 . S
C45 C46 1.384 . S
C45 C49 1.387 . S
C45 H72 0.930 . S
C46 C44 1.380 . S
C46 C45 1.384 . S
C46 H73 0.931 . S
C47 C44 1.374 . S
C47 C48 1.390 . S
C47 H74 0.930 . S
C48 C47 1.390 . S
C48 C49 1.391 . S
C48 H75 0.930 . S
C49 C45 1.387 . S
C49 C48 1.391 . S
C50 Tb40 2.825 . S
C50 C44 1.507 . S
C50 O63 1.238 . S
C50 O64 1.247 . S
O51 Tb40 2.347 . S
O51 C55 1.259 . S
O52 Eu41 2.418 . S
O52 C55 1.265 . S
O53 Eu41 2.384 . S
O53 C62 1.255 . S
O54 Tb40 2.366 . S
O54 C62 1.265 . S
C55 O51 1.259 . S
C55 O52 1.265 . S
O56 Eu41 2.479 1_565 S
O56 C71 1.238 . S
O57 Eu41 2.471 1_565 S
O57 C71 1.247 . S
O58 Eu41 2.347 . S
O58 C42 1.259 . S
O59 Tb40 2.418 . S
O59 C42 1.265 . S
O60 Tb40 2.384 1_565 S
O60 C43 1.255 . S
O61 Eu41 2.366 1_565 S
O61 C43 1.265 . S
C62 O53 1.255 . S
C62 O54 1.265 . S
O63 Tb40 2.479 . S
O63 C50 1.238 . S
O64 Tb40 2.471 . S
O64 C50 1.247 . S
C65 C68 1.380 . S
C65 C69 1.374 . S
C65 C71 1.507 . S
C66 C67 1.387 . S
C66 C70 1.391 . S
C67 C66 1.387 . S
C67 C68 1.384 . S
C67 H76 0.930 . S
C68 C65 1.380 . S
C68 C67 1.384 . S
C68 H77 0.931 . S
C69 C65 1.374 . S
C69 C70 1.390 . S
C69 H78 0.930 . S
C70 C66 1.391 . S
C70 C69 1.390 . S
C70 H79 0.930 . S
C71 Eu41 2.825 1_565 S
C71 O56 1.238 . S
C71 O57 1.247 . S
C71 C65 1.507 . S
H72 C45 0.930 . S
H73 C46 0.931 . S
H74 C47 0.930 . S
H75 C48 0.930 . S
H76 C67 0.930 . S
H77 C68 0.931 . S
H78 C69 0.930 . S
H79 C70 0.930 . S
Tb80 C90 2.825 . S
Tb80 O91 2.347 . S
Tb80 O94 2.366 . S
Tb80 O99 2.418 . S
Tb80 O100 2.384 . S
Tb80 O103 2.479 . S
Tb80 O104 2.471 . S
Eu81 O92 2.418 . S
Eu81 O93 2.384 . S
Eu81 O96 2.479 . S
Eu81 O97 2.471 . S
Eu81 O98 2.347 . S
Eu81 O101 2.366 . S
Eu81 C111 2.825 . S
C82 O98 1.259 . S
C82 O99 1.265 . S
C83 O100 1.255 . S
C83 O101 1.265 . S
C84 C86 1.380 . S
C84 C87 1.374 . S
C84 C90 1.507 . S
C85 C86 1.384 . S
C85 C89 1.387 . S
C85 H112 0.930 . S
C86 C84 1.380 . S
C86 C85 1.384 . S
C86 H113 0.931 . S
C87 C84 1.374 . S
C87 C88 1.390 . S
C87 H114 0.930 . S
C88 C87 1.390 . S
C88 C89 1.391 . S
C88 H115 0.930 . S
C89 C85 1.387 . S
C89 C88 1.391 . S
C90 Tb80 2.825 . S
C90 C84 1.507 . S
C90 O103 1.238 . S
C90 O104 1.247 . S
O91 Tb80 2.347 . S
O91 C95 1.259 . S
O92 Eu81 2.418 . S
O92 C95 1.265 . S
O93 Eu81 2.384 . S
O93 C102 1.255 . S
O94 Tb80 2.366 . S
O94 C102 1.265 . S
C95 O91 1.259 . S
C95 O92 1.265 . S
O96 Eu81 2.479 . S
O96 C111 1.238 . S
O97 Eu81 2.471 . S
O97 C111 1.247 . S
O98 Eu81 2.347 . S
O98 C82 1.259 . S
O99 Tb80 2.418 . S
O99 C82 1.265 . S
O100 Tb80 2.384 . S
O100 C83 1.255 . S
O101 Eu81 2.366 . S
O101 C83 1.265 . S
C102 O93 1.255 . S
C102 O94 1.265 . S
O103 Tb80 2.479 . S
O103 C90 1.238 . S
O104 Tb80 2.471 . S
O104 C90 1.247 . S
C105 C108 1.380 . S
C105 C109 1.374 . S
C105 C111 1.507 . S
C106 C107 1.387 . S
C106 C110 1.391 . S
C107 C106 1.387 . S
C107 C108 1.384 . S
C107 H116 0.930 . S
C108 C105 1.380 . S
C108 C107 1.384 . S
C108 H117 0.931 . S
C109 C105 1.374 . S
C109 C110 1.390 . S
C109 H118 0.930 . S
C110 C106 1.391 . S
C110 C109 1.390 . S
C110 H119 0.930 . S
C111 Eu81 2.825 . S
C111 O96 1.238 . S
C111 O97 1.247 . S
C111 C105 1.507 . S
H112 C85 0.930 . S
H113 C86 0.931 . S
H114 C87 0.930 . S
H115 C88 0.930 . S
H116 C107 0.930 . S
H117 C108 0.931 . S
H118 C109 0.930 . S
H119 C110 0.930 . S
P120 O131 1.490 . S
P120 C134 1.812 . S
P120 C140 1.803 1_565 S
P120 C146 1.819 1_565 S
H121 C135 0.941 . S
H122 C136 0.939 . S
H123 C138 0.940 . S
H124 C139 0.940 . S
H125 C141 0.939 . S
H126 C142 0.942 . S
H127 C144 0.940 . S
H128 C145 0.939 . S
H129 C147 0.941 . S
H130 C151 0.939 . S
O131 P120 1.490 . S
H132 C148 0.939 . S
H133 C150 0.940 . S
C134 P120 1.812 . S
C134 C135 1.389 . S
C134 C139 1.391 . S
C135 H121 0.941 . S
C135 C134 1.389 . S
C135 C136 1.397 . S
C136 H122 0.939 . S
C136 C135 1.397 . S
C136 C137 1.378 . S
C137 C136 1.378 . S
C137 C138 1.378 . S
C138 H123 0.940 . S
C138 C137 1.378 . S
C138 C139 1.396 . S
C139 H124 0.940 . S
C139 C134 1.391 . S
C139 C138 1.396 . S
C140 P120 1.803 1_545 S
C140 C141 1.378 . S
C140 C145 1.400 . S
C141 H125 0.939 . S
C141 C140 1.378 . S
C141 C142 1.361 . S
C142 H126 0.942 . S
C142 C141 1.361 . S
C142 C143 1.369 . S
C143 C142 1.369 . S
C143 C144 1.404 . S
C144 H127 0.940 . S
C144 C143 1.404 . S
C144 C145 1.389 . S
C145 H128 0.939 . S
C145 C140 1.400 . S
C145 C144 1.389 . S
C146 P120 1.819 1_545 S
C146 C147 1.391 1_545 S
C146 C151 1.391 . S
C147 H129 0.941 . S
C147 C146 1.391 1_565 S
C147 C148 1.396 . S
C148 H132 0.939 . S
C148 C147 1.396 . S
C148 C149 1.397 1_565 S
C149 C148 1.397 1_545 S
C149 C150 1.385 . S
C150 H133 0.940 . S
C150 C149 1.385 . S
C150 C151 1.388 . S
C151 H130 0.939 . S
C151 C146 1.391 . S
C151 C150 1.388 . S
P152 O163 1.490 . S
P152 C166 1.812 . S
P152 C172 1.803 . S
P152 C178 1.819 . S
H153 C167 0.941 . S
H154 C168 0.939 . S
H155 C170 0.940 . S
H156 C171 0.940 . S
H157 C173 0.939 . S
H158 C174 0.942 . S
H159 C176 0.940 . S
H160 C177 0.939 . S
H161 C179 0.941 . S
H162 C183 0.939 . S
O163 P152 1.490 . S
H164 C180 0.939 . S
H165 C182 0.940 . S
C166 P152 1.812 . S
C166 C167 1.389 . S
C166 C171 1.391 . S
C167 H153 0.941 . S
C167 C166 1.389 . S
C167 C168 1.397 . S
C168 H154 0.939 . S
C168 C167 1.397 . S
C168 C169 1.378 . S
C169 C168 1.378 . S
C169 C170 1.378 . S
C170 H155 0.940 . S
C170 C169 1.378 . S
C170 C171 1.396 . S
C171 H156 0.940 . S
C171 C166 1.391 . S
C171 C170 1.396 . S
C172 P152 1.803 . S
C172 C173 1.378 . S
C172 C177 1.400 . S
C173 H157 0.939 . S
C173 C172 1.378 . S
C173 C174 1.361 . S
C174 H158 0.942 . S
C174 C173 1.361 . S
C174 C175 1.369 . S
C175 C174 1.369 . S
C175 C176 1.404 . S
C176 H159 0.940 . S
C176 C175 1.404 . S
C176 C177 1.389 . S
C177 H160 0.939 . S
C177 C172 1.400 . S
C177 C176 1.389 . S
C178 P152 1.819 . S
C178 C179 1.391 . S
C178 C183 1.391 . S
C179 H161 0.941 . S
C179 C178 1.391 . S
C179 C180 1.396 . S
C180 H164 0.939 . S
C180 C179 1.396 . S
C180 C181 1.397 . S
C181 C180 1.397 . S
C181 C182 1.385 . S
C182 H165 0.940 . S
C182 C181 1.385 . S
C182 C183 1.388 . S
C183 H162 0.939 . S
C183 C178 1.391 . S
C183 C182 1.388 . S
P184 O195 1.490 . S
P184 C198 1.812 . S
P184 C204 1.803 1_455 S
P184 C210 1.819 . S
H185 C199 0.941 . S
H186 C200 0.939 . S
H187 C202 0.940 . S
H188 C203 0.940 . S
H189 C205 0.939 . S
H190 C206 0.942 . S
H191 C208 0.940 . S
H192 C209 0.939 . S
H193 C211 0.941 . S
H194 C215 0.939 . S
O195 P184 1.490 . S
H196 C212 0.939 . S
H197 C214 0.940 . S
C198 P184 1.812 . S
C198 C199 1.389 . S
C198 C203 1.391 . S
C199 H185 0.941 . S
C199 C198 1.389 . S
C199 C200 1.397 . S
C200 H186 0.939 . S
C200 C199 1.397 . S
C200 C201 1.378 . S
C201 C200 1.378 . S
C201 C202 1.378 . S
C202 H187 0.940 . S
C202 C201 1.378 . S
C202 C203 1.396 . S
C203 H188 0.940 . S
C203 C198 1.391 . S
C203 C202 1.396 . S
C204 P184 1.803 1_655 S
C204 C205 1.378 . S
C204 C209 1.400 . S
C205 H189 0.939 . S
C205 C204 1.378 . S
C205 C206 1.361 . S
C206 H190 0.942 . S
C206 C205 1.361 . S
C206 C207 1.369 . S
C207 C206 1.369 . S
C207 C208 1.404 . S
C208 H191 0.940 . S
C208 C207 1.404 . S
C208 C209 1.389 . S
C209 H192 0.939 . S
C209 C204 1.400 . S
C209 C208 1.389 . S
C210 P184 1.819 . S
C210 C211 1.391 . S
C210 C215 1.391 1_455 S
C211 H193 0.941 . S
C211 C210 1.391 . S
C211 C212 1.396 . S
C212 H196 0.939 . S
C212 C211 1.396 . S
C212 C213 1.397 . S
C213 C212 1.397 . S
C213 C214 1.385 1_455 S
C214 H197 0.940 . S
C214 C213 1.385 1_655 S
C214 C215 1.388 . S
C215 H194 0.939 . S
C215 C210 1.391 1_655 S
C215 C214 1.388 . S
P216 O227 1.490 . S
P216 C230 1.812 . S
P216 C236 1.803 1_455 S
P216 C242 1.819 . S
H217 C231 0.941 . S
H218 C232 0.939 . S
H219 C234 0.940 . S
H220 C235 0.940 . S
H221 C237 0.939 . S
H222 C238 0.942 . S
H223 C240 0.940 . S
H224 C241 0.939 . S
H225 C243 0.941 . S
H226 C247 0.939 . S
O227 P216 1.490 . S
H228 C244 0.939 . S
H229 C246 0.940 . S
C230 P216 1.812 . S
C230 C231 1.389 . S
C230 C235 1.391 . S
C231 H217 0.941 . S
C231 C230 1.389 . S
C231 C232 1.397 . S
C232 H218 0.939 . S
C232 C231 1.397 . S
C232 C233 1.378 . S
C233 C232 1.378 . S
C233 C234 1.378 . S
C234 H219 0.940 . S
C234 C233 1.378 . S
C234 C235 1.396 . S
C235 H220 0.940 . S
C235 C230 1.391 . S
C235 C234 1.396 . S
C236 P216 1.803 1_655 S
C236 C237 1.378 . S
C236 C241 1.400 . S
C237 H221 0.939 . S
C237 C236 1.378 . S
C237 C238 1.361 . S
C238 H222 0.942 . S
C238 C237 1.361 . S
C238 C239 1.369 . S
C239 C238 1.369 . S
C239 C240 1.404 . S
C240 H223 0.940 . S
C240 C239 1.404 . S
C240 C241 1.389 . S
C241 H224 0.939 . S
C241 C236 1.400 . S
C241 C240 1.389 . S
C242 P216 1.819 . S
C242 C243 1.391 . S
C242 C247 1.391 1_455 S
C243 H225 0.941 . S
C243 C242 1.391 . S
C243 C244 1.396 . S
C244 H228 0.939 . S
C244 C243 1.396 . S
C244 C245 1.397 . S
C245 C244 1.397 . S
C245 C246 1.385 1_455 S
C246 H229 0.940 . S
C246 C245 1.385 1_655 S
C246 C247 1.388 . S
C247 H226 0.939 . S
C247 C242 1.391 1_655 S
C247 C246 1.388 . S
P248 O259 1.490 . S
P248 C262 1.812 . S
P248 C268 1.803 1_545 S
P248 C274 1.819 . S
H249 C263 0.941 . S
H250 C264 0.939 . S
H251 C266 0.940 . S
H252 C267 0.940 . S
H253 C269 0.939 . S
H254 C270 0.942 . S
H255 C272 0.940 . S
H256 C273 0.939 . S
H257 C275 0.941 . S
H258 C279 0.939 . S
O259 P248 1.490 . S
H260 C276 0.939 . S
H261 C278 0.940 . S
C262 P248 1.812 . S
C262 C263 1.389 . S
C262 C267 1.391 . S
C263 H249 0.941 . S
C263 C262 1.389 . S
C263 C264 1.397 . S
C264 H250 0.939 . S
C264 C263 1.397 . S
C264 C265 1.378 . S
C265 C264 1.378 . S
C265 C266 1.378 . S
C266 H251 0.940 . S
C266 C265 1.378 . S
C266 C267 1.396 . S
C267 H252 0.940 . S
C267 C262 1.391 . S
C267 C266 1.396 . S
C268 P248 1.803 1_565 S
C268 C269 1.378 . S
C268 C273 1.400 . S
C269 H253 0.939 . S
C269 C268 1.378 . S
C269 C270 1.361 . S
C270 H254 0.942 . S
C270 C269 1.361 . S
C270 C271 1.369 . S
C271 C270 1.369 . S
C271 C272 1.404 . S
C272 H255 0.940 . S
C272 C271 1.404 . S
C272 C273 1.389 . S
C273 H256 0.939 . S
C273 C268 1.400 . S
C273 C272 1.389 . S
C274 P248 1.819 . S
C274 C275 1.391 . S
C274 C279 1.391 1_545 S
C275 H257 0.941 . S
C275 C274 1.391 . S
C275 C276 1.396 . S
C276 H260 0.939 . S
C276 C275 1.396 . S
C276 C277 1.397 . S
C277 C276 1.397 . S
C277 C278 1.385 1_545 S
C278 H261 0.940 . S
C278 C277 1.385 1_565 S
C278 C279 1.388 . S
C279 H258 0.939 . S
C279 C274 1.391 1_565 S
C279 C278 1.388 . S
P280 O291 1.490 . S
P280 C294 1.812 . S
P280 C300 1.803 . S
P280 C306 1.819 . S
H281 C295 0.941 . S
H282 C296 0.939 . S
H283 C298 0.940 . S
H284 C299 0.940 . S
H285 C301 0.939 . S
H286 C302 0.942 . S
H287 C304 0.940 . S
H288 C305 0.939 . S
H289 C307 0.941 . S
H290 C311 0.939 . S
O291 P280 1.490 . S
H292 C308 0.925 1_556 S
H293 C310 0.940 . S
C294 P280 1.812 . S
C294 C295 1.389 . S
C294 C299 1.391 . S
C295 H281 0.941 . S
C295 C294 1.389 . S
C295 C296 1.397 . S
C296 H282 0.939 . S
C296 C295 1.397 . S
C296 C297 1.378 . S
C297 C296 1.378 . S
C297 C298 1.378 . S
C298 H283 0.940 . S
C298 C297 1.378 . S
C298 C299 1.396 . S
C299 H284 0.940 . S
C299 C294 1.391 . S
C299 C298 1.396 . S
C300 P280 1.803 . S
C300 C301 1.378 . S
C300 C305 1.400 . S
C301 H285 0.939 . S
C301 C300 1.378 . S
C301 C302 1.361 . S
C302 H286 0.942 . S
C302 C301 1.361 . S
C302 C303 1.369 . S
C303 C302 1.369 . S
C303 C304 1.404 . S
C304 H287 0.940 . S
C304 C303 1.404 . S
C304 C305 1.389 . S
C305 H288 0.939 . S
C305 C300 1.400 . S
C305 C304 1.389 . S
C306 P280 1.819 . S
C306 C307 1.391 . S
C306 C311 1.391 . S
C307 H289 0.941 . S
C307 C306 1.391 . S
C307 C308 1.417 . S
C308 H292 0.925 1_554 S
C308 C307 1.417 . S
C308 C309 1.392 1_554 S
C309 C308 1.392 1_556 S
C309 C310 1.385 1_556 S
C310 H293 0.940 . S
C310 C309 1.385 1_554 S
C310 C311 1.388 . S
C311 H290 0.939 . S
C311 C306 1.391 . S
C311 C310 1.388 . S
C312 C313 1.363 . S
C312 C318 1.379 . S
C312 N320 1.356 . S
C313 C312 1.363 . S
C313 C319 1.363 . S
C314 C315 1.363 . S
C314 C319 1.379 . S
C314 N321 1.356 . S
C315 C314 1.363 . S
C315 C318 1.363 . S
N316 C318 1.356 . S
N316 H328 0.984 . S
N316 H329 0.985 . S
N317 C319 1.356 . S
N317 H322 0.984 . S
N317 H323 0.985 . S
C318 C312 1.379 . S
C318 C315 1.363 . S
C318 N316 1.356 . S
C319 C313 1.363 . S
C319 C314 1.379 . S
C319 N317 1.356 . S
N320 C312 1.356 . S
N320 H326 0.984 . S
N320 H327 0.984 . S
N321 C314 1.356 . S
N321 H324 0.984 . S
N321 H325 0.985 . S
H322 N317 0.984 . S
H323 N317 0.985 . S
H324 N321 0.984 . S
H325 N321 0.985 . S
H326 N320 0.984 . S
H327 N320 0.984 . S
H328 N316 0.984 . S
H329 N316 0.985 . S
C330 C331 1.363 . S
C330 C336 1.379 . S
C330 N338 1.356 . S
C331 C330 1.363 . S
C331 C337 1.363 . S
C332 C333 1.363 . S
C332 C337 1.379 . S
C332 N339 1.356 . S
C333 C332 1.363 . S
C333 C336 1.363 . S
N334 C336 1.356 . S
N334 H346 0.984 . S
N334 H347 0.985 . S
N335 C337 1.356 . S
N335 H340 0.984 . S
N335 H341 0.985 . S
C336 C330 1.379 . S
C336 C333 1.363 . S
C336 N334 1.356 . S
C337 C331 1.363 . S
C337 C332 1.379 . S
C337 N335 1.356 . S
N338 C330 1.356 . S
N338 H344 0.984 . S
N338 H345 0.984 . S
N339 C332 1.356 . S
N339 H342 0.984 . S
N339 H343 0.985 . S
H340 N335 0.984 . S
H341 N335 0.985 . S
H342 N339 0.984 . S
H343 N339 0.985 . S
H344 N338 0.984 . S
H345 N338 0.984 . S
H346 N334 0.984 . S
H347 N334 0.985 . S
C348 C349 1.363 . S
C348 C354 1.379 . S
C348 N356 1.356 . S
C349 C348 1.363 . S
C349 C355 1.363 . S
C350 C351 1.363 . S
C350 C355 1.379 . S
C350 N357 1.356 . S
C351 C350 1.363 . S
C351 C354 1.363 . S
N352 C354 1.356 . S
N352 H364 0.984 . S
N352 H365 0.985 . S
N353 C355 1.356 . S
N353 H358 0.984 . S
N353 H359 0.985 . S
C354 C348 1.379 . S
C354 C351 1.363 . S
C354 N352 1.356 . S
C355 C349 1.363 . S
C355 C350 1.379 . S
C355 N353 1.356 . S
N356 C348 1.356 . S
N356 H362 0.984 . S
N356 H363 0.984 . S
N357 C350 1.356 . S
N357 H360 0.984 . S
N357 H361 0.985 . S
H358 N353 0.984 . S
H359 N353 0.985 . S
H360 N357 0.984 . S
H361 N357 0.985 . S
H362 N356 0.984 . S
H363 N356 0.984 . S
H364 N352 0.984 . S
H365 N352 0.985 . S
C366 C367 1.363 . S
C366 C372 1.379 . S
C366 N374 1.356 . S
C367 C366 1.363 . S
C367 C373 1.363 . S
C368 C369 1.363 . S
C368 C373 1.379 . S
C368 N375 1.356 . S
C369 C368 1.363 . S
C369 C372 1.363 . S
N370 C372 1.356 . S
N370 H382 0.984 . S
N370 H383 0.985 . S
N371 C373 1.356 . S
N371 H376 0.984 . S
N371 H377 0.985 . S
C372 C366 1.379 . S
C372 C369 1.363 . S
C372 N370 1.356 . S
C373 C367 1.363 . S
C373 C368 1.379 . S
C373 N371 1.356 . S
N374 C366 1.356 . S
N374 H380 0.984 . S
N374 H381 0.984 . S
N375 C368 1.356 . S
N375 H378 0.984 . S
N375 H379 0.985 . S
H376 N371 0.984 . S
H377 N371 0.985 . S
H378 N375 0.984 . S
H379 N375 0.985 . S
H380 N374 0.984 . S
H381 N374 0.984 . S
H382 N370 0.984 . S
H383 N370 0.985 . S
C384 C385 1.363 . S
C384 C390 1.379 . S
C384 N392 1.356 . S
C385 C384 1.363 . S
C385 C391 1.363 . S
C386 C387 1.363 . S
C386 C391 1.379 . S
C386 N393 1.356 . S
C387 C386 1.363 . S
C387 C390 1.363 . S
N388 C390 1.356 . S
N388 H400 0.984 . S
N388 H401 0.985 . S
N389 C391 1.356 . S
N389 H394 0.984 . S
N389 H395 0.985 . S
C390 C384 1.379 . S
C390 C387 1.363 . S
C390 N388 1.356 . S
C391 C385 1.363 . S
C391 C386 1.379 . S
C391 N389 1.356 . S
N392 C384 1.356 . S
N392 H398 0.984 . S
N392 H399 0.984 . S
N393 C386 1.356 . S
N393 H396 0.984 . S
N393 H397 0.985 . S
H394 N389 0.984 . S
H395 N389 0.985 . S
H396 N393 0.984 . S
H397 N393 0.985 . S
H398 N392 0.984 . S
H399 N392 0.984 . S
H400 N388 0.984 . S
H401 N388 0.985 . S
C402 C403 1.363 . S
C402 C408 1.379 . S
C402 N410 1.356 . S
C403 C402 1.363 . S
C403 C409 1.363 . S
C404 C405 1.363 . S
C404 C409 1.379 . S
C404 N411 1.356 . S
C405 C404 1.363 . S
C405 C408 1.363 . S
N406 C408 1.356 . S
N406 H418 0.984 . S
N406 H419 0.985 . S
N407 C409 1.356 . S
N407 H412 0.984 . S
N407 H413 0.985 . S
C408 C402 1.379 . S
C408 C405 1.363 . S
C408 N406 1.356 . S
C409 C403 1.363 . S
C409 C404 1.379 . S
C409 N407 1.356 . S
N410 C402 1.356 . S
N410 H416 0.984 . S
N410 H417 0.984 . S
N411 C404 1.356 . S
N411 H414 0.984 . S
N411 H415 0.985 . S
H412 N407 0.984 . S
H413 N407 0.985 . S
H414 N411 0.984 . S
H415 N411 0.985 . S
H416 N410 0.984 . S
H417 N410 0.984 . S
H418 N406 0.984 . S
H419 N406 0.985 . S
C420 C421 1.363 . S
C420 C426 1.379 . S
C420 N428 1.356 . S
C421 C420 1.363 . S
C421 C427 1.363 . S
C422 C423 1.363 . S
C422 C427 1.379 . S
C422 N429 1.356 . S
C423 C422 1.363 . S
C423 C426 1.363 . S
N424 C426 1.356 . S
N424 H436 0.984 . S
N424 H437 0.985 . S
N425 C427 1.356 . S
N425 H430 0.984 . S
N425 H431 0.985 . S
C426 C420 1.379 . S
C426 C423 1.363 . S
C426 N424 1.356 . S
C427 C421 1.363 . S
C427 C422 1.379 . S
C427 N425 1.356 . S
N428 C420 1.356 . S
N428 H434 0.984 . S
N428 H435 0.984 . S
N429 C422 1.356 . S
N429 H432 0.984 . S
N429 H433 0.985 . S
H430 N425 0.984 . S
H431 N425 0.985 . S
H432 N429 0.984 . S
H433 N429 0.985 . S
H434 N428 0.984 . S
H435 N428 0.984 . S
H436 N424 0.984 . S
H437 N424 0.985 . S
C438 C439 1.363 . S
C438 C444 1.379 . S
C438 N446 1.356 . S
C439 C438 1.363 . S
C439 C445 1.363 . S
C440 C441 1.363 . S
C440 C445 1.379 . S
C440 N447 1.356 . S
C441 C440 1.363 . S
C441 C444 1.363 . S
N442 C444 1.356 . S
N442 H454 0.984 . S
N442 H455 0.985 . S
N443 C445 1.356 . S
N443 H448 0.984 . S
N443 H449 0.985 . S
C444 C438 1.379 . S
C444 C441 1.363 . S
C444 N442 1.356 . S
C445 C439 1.363 . S
C445 C440 1.379 . S
C445 N443 1.356 . S
N446 C438 1.356 . S
N446 H452 0.984 . S
N446 H453 0.984 . S
N447 C440 1.356 . S
N447 H450 0.984 . S
N447 H451 0.985 . S
H448 N443 0.984 . S
H449 N443 0.985 . S
H450 N447 0.984 . S
H451 N447 0.985 . S
H452 N446 0.984 . S
H453 N446 0.984 . S
H454 N442 0.984 . S
H455 N442 0.985 . S
C456 C457 1.363 . S
C456 C462 1.379 . S
C456 N464 1.356 . S
C457 C456 1.363 . S
C457 C463 1.363 . S
C458 C459 1.363 . S
C458 C463 1.379 . S
C458 N465 1.356 . S
C459 C458 1.363 . S
C459 C462 1.363 . S
N460 C462 1.356 . S
N460 H472 0.984 . S
N460 H473 0.985 . S
N461 C463 1.356 . S
N461 H466 0.984 . S
N461 H467 0.985 . S
C462 C456 1.379 . S
C462 C459 1.363 . S
C462 N460 1.356 . S
C463 C457 1.363 . S
C463 C458 1.379 . S
C463 N461 1.356 . S
N464 C456 1.356 . S
N464 H470 0.984 . S
N464 H471 0.984 . S
N465 C458 1.356 . S
N465 H468 0.984 . S
N465 H469 0.985 . S
H466 N461 0.984 . S
H467 N461 0.985 . S
H468 N465 0.984 . S
H469 N465 0.985 . S
H470 N464 0.984 . S
H471 N464 0.984 . S
H472 N460 0.984 . S
H473 N460 0.985 . S
C474 C475 1.363 . S
C474 C480 1.379 . S
C474 N482 1.356 . S
C475 C474 1.363 . S
C475 C481 1.363 . S
C476 C477 1.363 . S
C476 C481 1.379 . S
C476 N483 1.356 . S
C477 C476 1.363 . S
C477 C480 1.363 . S
N478 C480 1.356 . S
N478 H490 0.984 . S
N478 H491 0.985 . S
N479 C481 1.356 . S
N479 H484 0.984 . S
N479 H485 0.985 . S
C480 C474 1.379 . S
C480 C477 1.363 . S
C480 N478 1.356 . S
C481 C475 1.363 . S
C481 C476 1.379 . S
C481 N479 1.356 . S
N482 C474 1.356 . S
N482 H488 0.984 . S
N482 H489 0.984 . S
N483 C476 1.356 . S
N483 H486 0.984 . S
N483 H487 0.985 . S
H484 N479 0.984 . S
H485 N479 0.985 . S
H486 N483 0.984 . S
H487 N483 0.985 . S
H488 N482 0.984 . S
H489 N482 0.984 . S
H490 N478 0.984 . S
H491 N478 0.985 . S
C492 C493 1.363 . S
C492 C498 1.379 . S
C492 N500 1.356 . S
C493 C492 1.363 . S
C493 C499 1.363 . S
C494 C495 1.363 . S
C494 C499 1.379 . S
C494 N501 1.356 . S
C495 C494 1.363 . S
C495 C498 1.363 . S
N496 C498 1.356 . S
N496 H508 0.984 . S
N496 H509 0.985 . S
N497 C499 1.356 . S
N497 H502 0.984 . S
N497 H503 0.985 . S
C498 C492 1.379 . S
C498 C495 1.363 . S
C498 N496 1.356 . S
C499 C493 1.363 . S
C499 C494 1.379 . S
C499 N497 1.356 . S
N500 C492 1.356 . S
N500 H506 0.984 . S
N500 H507 0.984 . S
N501 C494 1.356 . S
N501 H504 0.984 . S
N501 H505 0.985 . S
H502 N497 0.984 . S
H503 N497 0.985 . S
H504 N501 0.984 . S
H505 N501 0.985 . S
H506 N500 0.984 . S
H507 N500 0.984 . S
H508 N496 0.984 . S
H509 N496 0.985 . S
C510 C511 1.363 . S
C510 C516 1.379 . S
C510 N518 1.356 . S
C511 C510 1.363 . S
C511 C517 1.363 . S
C512 C513 1.363 . S
C512 C517 1.379 . S
C512 N519 1.356 . S
C513 C512 1.363 . S
C513 C516 1.363 . S
N514 C516 1.356 . S
N514 H526 0.984 . S
N514 H527 0.985 . S
N515 C517 1.356 . S
N515 H520 0.984 . S
N515 H521 0.985 . S
C516 C510 1.379 . S
C516 C513 1.363 . S
C516 N514 1.356 . S
C517 C511 1.363 . S
C517 C512 1.379 . S
C517 N515 1.356 . S
N518 C510 1.356 . S
N518 H524 0.984 . S
N518 H525 0.984 . S
N519 C512 1.356 . S
N519 H522 0.984 . S
N519 H523 0.985 . S
H520 N515 0.984 . S
H521 N515 0.985 . S
H522 N519 0.984 . S
H523 N519 0.985 . S
H524 N518 0.984 . S
H525 N518 0.984 . S
H526 N514 0.984 . S
H527 N514 0.985 . S
C528 C529 1.363 . S
C528 C534 1.379 . S
C528 N536 1.356 . S
C529 C528 1.363 . S
C529 C535 1.363 . S
C530 C531 1.363 . S
C530 C535 1.379 . S
C530 N537 1.356 . S
C531 C530 1.363 . S
C531 C534 1.363 . S
N532 C534 1.356 . S
N532 H544 0.984 . S
N532 H545 0.985 1_554 S
N533 C535 1.356 . S
N533 H538 0.984 . S
N533 H539 0.985 . S
C534 C528 1.379 . S
C534 C531 1.363 . S
C534 N532 1.356 . S
C535 C529 1.363 . S
C535 C530 1.379 . S
C535 N533 1.356 . S
N536 C528 1.356 . S
N536 H542 0.984 . S
N536 H543 0.984 . S
N537 C530 1.356 . S
N537 H540 0.984 1_554 S
N537 H541 0.985 . S
H538 N533 0.984 . S
H539 N533 0.985 . S
H540 N537 0.984 1_556 S
H541 N537 0.985 . S
H542 N536 0.984 . S
H543 N536 0.984 . S
H544 N532 0.984 . S
H545 N532 0.985 1_556 S
C546 C547 1.377 . S
C546 C552 1.378 1_545 S
C546 N554 1.346 1_545 S
C547 C546 1.377 . S
C547 C553 1.363 . S
C548 C549 1.363 . S
C548 C553 1.379 . S
C548 N555 1.356 . S
C549 C548 1.363 . S
C549 C552 1.363 1_545 S
N550 C552 1.356 . S
N550 H562 0.984 . S
N550 H563 0.985 . S
N551 C553 1.356 . S
N551 H556 0.984 . S
N551 H557 0.985 . S
C552 C546 1.378 1_565 S
C552 C549 1.363 1_565 S
C552 N550 1.356 . S
C553 C547 1.363 . S
C553 C548 1.379 . S
C553 N551 1.356 . S
N554 C546 1.346 1_565 S
N554 H560 0.984 . S
N554 H561 0.984 . S
N555 C548 1.356 . S
N555 H558 0.984 . S
N555 H559 0.985 . S
H556 N551 0.984 . S
H557 N551 0.985 . S
H558 N555 0.984 . S
H559 N555 0.985 . S
H560 N554 0.984 . S
H561 N554 0.984 . S
H562 N550 0.984 . S
H563 N550 0.985 . S
C564 C565 1.363 . S
C564 C570 1.379 . S
C564 N572 1.356 . S
C565 C564 1.363 . S
C565 C571 1.363 . S
C566 C567 1.363 . S
C566 C571 1.379 . S
C566 N573 1.356 . S
C567 C566 1.363 . S
C567 C570 1.363 . S
N568 C570 1.356 . S
N568 H580 0.984 . S
N568 H581 0.985 . S
N569 C571 1.356 . S
N569 H574 0.984 . S
N569 H575 0.985 . S
C570 C564 1.379 . S
C570 C567 1.363 . S
C570 N568 1.356 . S
C571 C565 1.363 . S
C571 C566 1.379 . S
C571 N569 1.356 . S
N572 C564 1.356 . S
N572 H578 0.984 . S
N572 H579 0.984 . S
N573 C566 1.356 . S
N573 H576 0.984 . S
N573 H577 0.985 . S
H574 N569 0.984 . S
H575 N569 0.985 . S
H576 N573 0.984 . S
H577 N573 0.985 . S
H578 N572 0.984 . S
H579 N572 0.984 . S
H580 N568 0.984 . S
H581 N568 0.985 . S
C582 C583 1.363 1_565 S
C582 C588 1.379 . S
C582 N590 1.356 . S
C583 C582 1.363 1_545 S
C583 C589 1.363 . S
C584 C585 1.363 . S
C584 C589 1.379 . S
C584 N591 1.356 . S
C585 C584 1.363 . S
C585 C588 1.363 1_545 S
N586 C588 1.356 . S
N586 H598 0.984 . S
N586 H599 0.985 . S
N587 C589 1.356 . S
N587 H592 0.984 . S
N587 H593 0.985 . S
C588 C582 1.379 . S
C588 C585 1.363 1_565 S
C588 N586 1.356 . S
C589 C583 1.363 . S
C589 C584 1.379 . S
C589 N587 1.356 . S
N590 C582 1.356 . S
N590 H596 0.984 . S
N590 H597 0.984 . S
N591 C584 1.356 . S
N591 H594 0.984 . S
N591 H595 0.985 . S
H592 N587 0.984 . S
H593 N587 0.985 . S
H594 N591 0.984 . S
H595 N591 0.985 . S
H596 N590 0.984 . S
H597 N590 0.984 . S
H598 N586 0.984 . S
H599 N586 0.985 . S
C600 C601 1.363 . S
C600 C606 1.379 . S
C600 N608 1.356 . S
C601 C600 1.363 . S
C601 C607 1.363 . S
C602 C603 1.363 . S
C602 C607 1.379 . S
C602 N609 1.356 . S
C603 C602 1.363 . S
C603 C606 1.363 . S
N604 C606 1.356 . S
N604 H616 0.984 . S
N604 H617 0.985 1_556 S
N605 C607 1.356 . S
N605 H610 0.984 . S
N605 H611 0.985 . S
C606 C600 1.379 . S
C606 C603 1.363 . S
C606 N604 1.356 . S
C607 C601 1.363 . S
C607 C602 1.379 . S
C607 N605 1.356 . S
N608 C600 1.356 . S
N608 H614 0.984 . S
N608 H615 0.984 . S
N609 C602 1.356 . S
N609 H612 0.984 . S
N609 H613 0.985 . S
H610 N605 0.984 . S
H611 N605 0.985 . S
H612 N609 0.984 . S
H613 N609 0.985 . S
H614 N608 0.984 . S
H615 N608 0.984 . S
H616 N604 0.984 . S
H617 N604 0.985 1_554 S
C618 C619 1.363 . S
C618 C624 1.379 . S
C618 N626 1.356 . S
C619 C618 1.363 . S
C619 C625 1.363 1_455 S
C620 C621 1.363 1_655 S
C620 C625 1.379 . S
C620 N627 1.356 . S
C621 C620 1.363 1_455 S
C621 C624 1.363 . S
N622 C624 1.356 . S
N622 H634 0.984 . S
N622 H635 0.985 . S
N623 C625 1.356 . S
N623 H628 0.984 . S
N623 H629 0.985 . S
C624 C618 1.379 . S
C624 C621 1.363 . S
C624 N622 1.356 . S
C625 C619 1.363 1_655 S
C625 C620 1.379 . S
C625 N623 1.356 . S
N626 C618 1.356 . S
N626 H632 0.984 . S
N626 H633 0.984 . S
N627 C620 1.356 . S
N627 H630 0.984 . S
N627 H631 0.985 . S
H628 N623 0.984 . S
H629 N623 0.985 . S
H630 N627 0.984 . S
H631 N627 0.985 . S
H632 N626 0.984 . S
H633 N626 0.984 . S
H634 N622 0.984 . S
H635 N622 0.985 . S
C313 C9 0.755 . S
C315 C303 0.759 . S
C331 C49 0.613 . S
C333 C239 0.600 . S
C349 C89 0.608 . S
C351 C271 0.617 . S
C367 C26 0.735 . S
C369 C297 0.724 . S
C387 C233 0.758 . S
C385 C66 0.756 . S
C405 C265 0.810 . S
C403 C106 0.792 . S
C421 C43 3.024 . S
C423 C175 2.955 . S
C439 C83 3.108 . S
C441 C207 3.018 . S
C457 C22 3.156 . S
C459 C137 3.073 . S
C477 C169 3.079 . S
C475 C62 3.158 . S
C495 C201 3.003 . S
C493 C102 3.073 . S
C511 C3 3.026 . S
C513 C143 2.962 . S
C531 C213 1.784 1_554 S
C529 C15 1.755 . S
C547 C55 1.765 . S
C549 C149 1.779 . S
C565 C95 1.759 . S
C567 C181 1.774 . S
C585 C277 0.988 . S
C583 C42 1.027 . S
C603 C309 1.037 . S
C601 C82 1.034 . S
C619 C2 1.015 . S
C621 C245 0.981 . S
