# Generated by pormake.
# Topology zzz, (3,6)-cn, num edge types: 1
# Building blocks:
#     Node 0, Type 0, BuildingBlock: VETTIZ_charged_linker_0, # of connection points: 3
#     Node 1, Type 0, BuildingBlock: VETTIZ_charged_linker_0, # of connection points: 3
#     Node 2, Type 0, BuildingBlock: VETTIZ_charged_linker_0, # of connection points: 3
#     Node 3, Type 0, BuildingBlock: VETTIZ_charged_linker_0, # of connection points: 3
#     Node 4, Type 0, BuildingBlock: VETTIZ_charged_linker_0, # of connection points: 3
#     Node 5, Type 0, BuildingBlock: VETTIZ_charged_linker_0, # of connection points: 3
#     Node 6, Type 0, BuildingBlock: VETTIZ_charged_linker_0, # of connection points: 3
#     Node 7, Type 0, BuildingBlock: VETTIZ_charged_linker_0, # of connection points: 3
#     Node 8, Type 1, BuildingBlock: GEDQOX_clean_sbu_0, # of connection points: 6
#     Node 9, Type 1, BuildingBlock: GEDQOX_clean_sbu_0, # of connection points: 6
#     Node 10, Type 1, BuildingBlock: GEDQOX_clean_sbu_0, # of connection points: 6
#     Node 11, Type 1, BuildingBlock: GEDQOX_clean_sbu_0, # of connection points: 6
#     Edge 12, Type (0, 1), None
#     Edge 13, Type (0, 1), None
#     Edge 14, Type (0, 1), None
#     Edge 15, Type (0, 1), None
#     Edge 16, Type (0, 1), None
#     Edge 17, Type (0, 1), None
#     Edge 18, Type (0, 1), None
#     Edge 19, Type (0, 1), None
#     Edge 20, Type (0, 1), None
#     Edge 21, Type (0, 1), None
#     Edge 22, Type (0, 1), None
#     Edge 23, Type (0, 1), None
#     Edge 24, Type (0, 1), None
#     Edge 25, Type (0, 1), None
#     Edge 26, Type (0, 1), None
#     Edge 27, Type (0, 1), None
#     Edge 28, Type (0, 1), None
#     Edge 29, Type (0, 1), None
#     Edge 30, Type (0, 1), None
#     Edge 31, Type (0, 1), None
#     Edge 32, Type (0, 1), None
#     Edge 33, Type (0, 1), None
#     Edge 34, Type (0, 1), None
#     Edge 35, Type (0, 1), None
# Relax obj value: 0.335
# Max RMSD: 0.377
# Mean RMSD: 0.191
data_MOF--net-zzz--node1-GEDQOX_clean_sbu_0--node2-VETTIZ_charged_linker_0--edge1-none
_symmetry_space_group_name_H-M    P1
_symmetry_Int_Tables_number       1
_symmetry_cell_setting            triclinic
loop_
_symmetry_equiv_pos_as_xyz
'x, y, z'
_cell_length_a     33.938101
_cell_length_b     31.211793
_cell_length_c     13.728074
_cell_angle_alpha  75.985238
_cell_angle_beta   88.541928
_cell_angle_gamma 107.64304
loop_
_atom_site_label
_atom_site_type_symbol
_atom_site_fract_x
_atom_site_fract_y
_atom_site_fract_z
_atom_type_partial_charge
C0 C 0.82243 0.60816 0.45808 0.0
C1 C 0.83989 0.58119 0.53246 0.0
C2 C 0.82583 0.5321 0.54798 0.0
C3 C 0.79446 0.54113 0.39333 0.0
C4 C 0.79776 0.58622 0.39184 0.0
C5 C 0.77512 0.6057 0.30744 0.0
H6 H 0.65258 0.55537 0.93458 0.0
C7 C 0.77764 0.53088 0.30212 0.0
C8 C 0.75674 0.56289 0.26634 0.0
H9 H 0.60706 0.57786 0.20878 0.0
H10 H 0.6722 0.57624 0.27933 0.0
H11 H 0.7356 0.60822 0.87839 0.0
H12 H 0.69529 0.47444 0.05403 0.0
H13 H 0.74026 0.48948 0.96497 0.0
H14 H 0.69465 0.50311 0.92336 0.0
H15 H 0.76543 0.57339 0.85679 0.0
H16 H 0.783 0.61259 0.9358 0.0
C17 C 0.80657 0.64562 0.227 0.0
C18 C 0.74215 0.62306 0.34876 0.0
C19 C 0.88411 0.49616 0.09623 0.0
C20 C 0.89735 0.51293 0.99254 0.0
C21 C 0.87006 0.52845 0.92694 0.0
C22 C 0.83131 0.5293 0.96461 0.0
C23 C 0.81997 0.51574 0.06897 0.0
C24 C 0.84647 0.49998 0.13339 0.0
C25 C 0.83371 0.49625 0.24189 0.0
C26 C 0.79653 0.51462 0.23077 0.0
C27 C 0.78765 0.52437 0.1293 0.0
C28 C 0.87031 0.52685 0.28555 0.0
C29 C 0.82064 0.44464 0.30122 0.0
C30 C 0.65749 0.56271 1.00712 0.0
C31 C 0.62532 0.56956 0.06361 0.0
C32 C 0.63176 0.57494 0.1618 0.0
C33 C 0.66948 0.57527 0.20182 0.0
C34 C 0.70161 0.57109 0.14278 0.0
C35 C 0.69524 0.5625 0.04936 0.0
C36 C 0.73112 0.5489 0.01005 0.0
C37 C 0.7565 0.54617 0.1015 0.0
C38 C 0.74067 0.56379 0.17255 0.0
C39 C 0.7553 0.58774 0.91573 0.0
C40 C 0.71433 0.50118 0.98672 0.0
H41 H 0.7944 0.47478 0.48784 0.0
H42 H 0.82978 0.64531 0.44738 0.0
H43 H 0.71782 0.59369 0.40067 0.0
H44 H 0.72757 0.6403 0.28617 0.0
H45 H 0.75644 0.64909 0.391 0.0
H46 H 0.83122 0.63359 0.19858 0.0
H47 H 0.82171 0.67531 0.25894 0.0
H48 H 0.79068 0.65847 0.16178 0.0
H49 H 0.90492 0.48528 0.14792 0.0
H50 H 0.87983 0.54253 0.84673 0.0
H51 H 0.81246 0.54318 0.91276 0.0
H52 H 0.90033 0.52187 0.26718 0.0
H53 H 0.8663 0.51763 0.36873 0.0
H54 H 0.87401 0.56445 0.25565 0.0
H55 H 0.79543 0.42314 0.26649 0.0
H56 H 0.80908 0.43953 0.38037 0.0
H57 H 0.84748 0.43121 0.30174 0.0
H58 H 0.83481 0.50957 0.61036 0.0
C59 C 0.80314 0.51188 0.47788 0.0
C60 C 0.05965 0.91305 0.09729 0.0
C61 C 0.02933 0.93076 0.0514 0.0
C62 C 0.98932 0.89987 0.04701 0.0
C63 C 1.00678 0.83768 0.15336 0.0
C64 C 0.04771 0.86534 0.14475 0.0
C65 C 0.07467 0.8358 0.18056 0.0
H66 H 1.0073 0.59714 0.24322 0.0
C67 C 1.00213 0.79082 0.20931 0.0
C68 C 0.04236 0.78758 0.20202 0.0
H69 H 0.07862 0.69656 0.97194 0.0
H70 H 0.08687 0.75935 0.05481 0.0
H71 H 0.06581 0.66205 0.43004 0.0
H72 H 0.95056 0.65933 0.29384 0.0
H73 H 0.9493 0.6467 0.42884 0.0
H74 H 0.95759 0.60591 0.36478 0.0
H75 H 0.02683 0.60722 0.43429 0.0
H76 H 0.01753 0.64364 0.5092 0.0
C77 C 0.09265 0.84576 0.27773 0.0
C78 C 0.10966 0.84368 0.09843 0.0
C79 C 0.95764 0.81412 0.50555 0.0
C80 C 0.98753 0.82688 0.57146 0.0
C81 C 0.01849 0.80437 0.58383 0.0
C82 C 0.0198 0.77102 0.53001 0.0
C83 C 0.99024 0.76024 0.46236 0.0
C84 C 0.96029 0.78256 0.44945 0.0
C85 C 0.94142 0.77836 0.35275 0.0
C86 C 0.97513 0.76548 0.3001 0.0
C87 C 0.99244 0.73966 0.37542 0.0
C88 C 0.93065 0.82241 0.30029 0.0
C89 C 0.90093 0.73648 0.37562 0.0
C90 C 0.02577 0.63217 0.20245 0.0
C91 C 0.04269 0.64169 0.10072 0.0
C92 C 0.06564 0.68801 0.04976 0.0
C93 C 0.07093 0.72409 0.09754 0.0
C94 C 0.054 0.7139 0.19799 0.0
C95 C 0.03185 0.66906 0.24946 0.0
C96 C 0.01194 0.66853 0.34995 0.0
C97 C 0.0229 0.72086 0.34544 0.0
C98 C 0.04879 0.7465 0.2548 0.0
C99 C 0.0318 0.64392 0.43589 0.0
C100 C 0.96457 0.64358 0.35983 0.0
H101 H 0.94917 0.82891 0.0858 0.0
H102 H 0.09152 0.9351 0.09288 0.0
H103 H 0.09676 0.83876 0.02684 0.0
H104 H 0.12748 0.81915 0.12355 0.0
H105 H 0.13173 0.87969 0.08264 0.0
H106 H 0.0674 0.84073 0.33672 0.0
H107 H 0.11378 0.88223 0.26223 0.0
H108 H 0.11061 0.82198 0.3083 0.0
H109 H 0.93483 0.83201 0.49118 0.0
H110 H 0.04241 0.81359 0.63271 0.0
H111 H 0.04511 0.75649 0.53603 0.0
H112 H 0.90671 0.82772 0.34849 0.0
H113 H 0.91557 0.81798 0.23143 0.0
H114 H 0.95819 0.85426 0.28535 0.0
H115 H 0.90664 0.70342 0.4124 0.0
H116 H 0.88725 0.73223 0.30449 0.0
H117 H 0.87765 0.74155 0.4264 0.0
H118 H 0.96604 0.91192 1.00669 0.0
C119 C 0.9787 0.85279 0.09443 0.0
C120 C 0.89694 1.00704 0.13804 0.0
C121 C 0.91884 0.03577 0.04321 0.0
C122 C 0.89878 0.06242 0.9777 0.0
C123 C 0.83622 0.0305 0.09524 0.0
C124 C 0.85535 1.00486 0.16278 0.0
C125 C 0.82562 0.97599 0.25793 0.0
H126 H 0.6189 0.87611 0.4353 0.0
C127 C 0.79222 1.01741 0.13353 0.0
C128 C 0.78497 0.98562 0.23028 0.0
H129 H 0.7085 0.92343 0.63195 0.0
H130 H 0.76294 0.95547 0.48719 0.0
H131 H 0.6401 0.98982 0.2245 0.0
H132 H 0.66015 0.86131 0.24748 0.0
H133 H 0.65839 0.90217 0.13549 0.0
H134 H 0.61483 0.87936 0.23269 0.0
H135 H 0.65057 0.97773 0.34707 0.0
H136 H 0.60727 0.93716 0.30888 0.0
C137 C 0.84208 0.9939 0.34884 0.0
C138 C 0.82078 0.92399 0.27554 0.0
C139 C 0.68917 0.08078 0.92784 0.0
C140 C 0.64549 0.06243 0.93572 0.0
C141 C 0.62523 1.01682 0.99502 0.0
C142 C 0.64726 0.99026 0.04905 0.0
C143 C 0.68966 1.01083 0.05211 0.0
C144 C 0.71082 0.05358 0.98707 0.0
C145 C 0.7572 0.06348 0.9885 0.0
C146 C 0.75849 0.02464 0.08042 0.0
C147 C 0.71851 0.99501 0.1175 0.0
C148 C 0.7769 0.11222 1.00573 0.0
C149 C 0.77465 0.05813 0.88775 0.0
C150 C 0.65049 0.88851 0.45161 0.0
C151 C 0.65878 0.89396 0.54769 0.0
C152 C 0.70086 0.91618 0.56028 0.0
C153 C 0.73259 0.93453 0.47644 0.0
C154 C 0.72219 0.93162 0.37856 0.0
C155 C 0.68059 0.91123 0.36881 0.0
C156 C 0.66887 0.93184 0.26806 0.0
C157 C 0.71053 0.96359 0.2145 0.0
C158 C 0.74278 0.9617 0.27576 0.0
C159 C 0.6399 0.9602 0.28662 0.0
C160 C 0.64929 0.8918 0.21806 0.0
H161 H 0.84524 0.08282 0.95236 0.0
H162 H 0.9118 0.98682 0.19109 0.0
H163 H 0.81006 0.91172 0.20824 0.0
H164 H 0.79762 0.90279 0.34152 0.0
H165 H 0.85086 0.91772 0.29057 0.0
H166 H 0.83885 0.02874 0.34391 0.0
H167 H 0.87549 0.99696 0.35186 0.0
H168 H 0.82553 0.96942 0.42077 0.0
H169 H 0.70563 0.11451 0.87732 0.0
H170 H 0.59177 1.00163 1.00064 0.0
H171 H 0.62978 0.95587 0.09241 0.0
H172 H 0.75981 0.11594 0.07179 0.0
H173 H 0.77584 0.13992 0.9385 0.0
H174 H 0.80968 0.1185 0.02147 0.0
H175 H 0.74988 0.0464 0.8395 0.0
H176 H 0.79077 0.03147 0.90117 0.0
H177 H 0.7965 0.09165 0.84127 0.0
H178 H 0.91487 0.08573 0.90633 0.0
C179 C 0.8581 0.06039 1.00382 0.0
C180 C 0.54883 0.76268 0.76573 0.0
C181 C 0.56401 0.72424 0.75265 0.0
C182 C 0.59245 0.7363 0.66574 0.0
C183 C 0.57023 0.80158 0.59199 0.0
C184 C 0.55706 0.80588 0.68232 0.0
C185 C 0.54996 0.8588 0.66153 0.0
H186 H 0.47612 0.94279 0.16166 0.0
C187 C 0.54836 0.82175 0.51567 0.0
C188 C 0.53968 0.85964 0.54005 0.0
H189 H 0.56904 0.03931 0.27515 0.0
H190 H 0.56091 0.98169 0.43338 0.0
H191 H 0.46748 0.87006 0.17192 0.0
H192 H 0.42045 0.88909 0.41893 0.0
H193 H 0.39734 0.83639 0.38252 0.0
H194 H 0.41142 0.89104 0.28935 0.0
H195 H 0.43844 0.81663 0.24813 0.0
H196 H 0.49479 0.83512 0.2437 0.0
C197 C 0.61451 0.94138 0.71286 0.0
C198 C 0.5017 0.83885 0.70932 0.0
C199 C 0.46821 0.70913 0.32655 0.0
C200 C 0.42833 0.70125 0.29418 0.0
C201 C 0.39968 0.71832 0.33599 0.0
C202 C 0.41316 0.74845 0.39884 0.0
C203 C 0.45538 0.76186 0.41473 0.0
C204 C 0.48088 0.73917 0.38767 0.0
C205 C 0.52223 0.75246 0.42765 0.0
C206 C 0.51837 0.79181 0.47173 0.0
C207 C 0.48041 0.79926 0.45561 0.0
C208 C 0.55728 0.77086 0.33951 0.0
C209 C 0.525 0.70869 0.50605 0.0
C210 C 0.49751 0.9498 0.21726 0.0
C211 C 0.52594 0.99443 0.19997 0.0
C212 C 0.54896 1.00416 0.28147 0.0
C213 C 0.54534 0.96972 0.37384 0.0
C214 C 0.51977 0.92314 0.38702 0.0
C215 C 0.49492 0.91541 0.30928 0.0
C216 C 0.4646 0.86791 0.33664 0.0
C217 C 0.48043 0.84569 0.43413 0.0
C218 C 0.5108 0.8783 0.47456 0.0
C219 C 0.46661 0.84602 0.24643 0.0
C220 C 0.42098 0.8712 0.3582 0.0
H221 H 0.61073 0.77697 0.51305 0.0
H222 H 0.5309 0.75878 0.83542 0.0
H223 H 0.48331 0.80825 0.68327 0.0
H224 H 0.48474 0.86447 0.68587 0.0
H225 H 0.49739 0.82564 0.79295 0.0
H226 H 0.64906 0.94822 0.69851 0.0
H227 H 0.6162 0.94541 0.79244 0.0
H228 H 0.6162 0.97868 0.67746 0.0
H229 H 0.48961 0.69323 0.30195 0.0
H230 H 0.36802 0.71018 0.31657 0.0
H231 H 0.39177 0.76257 0.42921 0.0
H232 H 0.55099 0.79752 0.2775 0.0
H233 H 0.56021 0.74211 0.30844 0.0
H234 H 0.58767 0.78759 0.36376 0.0
H235 H 0.50674 0.67579 0.4886 0.0
H236 H 0.51265 0.7071 0.58304 0.0
H237 H 0.55714 0.70711 0.50569 0.0
H238 H 0.60938 0.71345 0.65316 0.0
C239 C 0.59423 0.77349 0.5842 0.0
C240 C 0.40883 0.54257 0.68553 0.0
C241 C 0.43228 0.56458 0.75372 0.0
C242 C 0.41611 0.59274 0.79872 0.0
C243 C 0.3526 0.57227 0.71849 0.0
C244 C 0.36937 0.54764 0.6673 0.0
C245 C 0.34338 0.53508 0.5835 0.0
H246 H 0.18307 0.57286 0.31453 0.0
C247 C 0.31505 0.57783 0.67329 0.0
C248 C 0.31163 0.56085 0.5869 0.0
H249 H 0.2521 0.48213 0.2711 0.0
H250 H 0.29391 0.50232 0.40558 0.0
H251 H 0.17873 0.53761 0.57265 0.0
H252 H 0.25652 0.67566 0.4199 0.0
H253 H 0.20075 0.65882 0.41872 0.0
H254 H 0.23257 0.65214 0.32254 0.0
H255 H 0.15651 0.56994 0.47508 0.0
H256 H 0.17151 0.59099 0.58054 0.0
C257 C 0.32226 0.4819 0.61201 0.0
C258 C 0.37153 0.55311 0.48296 0.0
C259 C 0.1915 0.60688 0.83122 0.0
C260 C 0.16354 0.62952 0.78469 0.0
C261 C 0.17627 0.66077 0.68796 0.0
C262 C 0.21219 0.66277 0.63177 0.0
C263 C 0.23438 0.63273 0.67302 0.0
C264 C 0.22825 0.61092 0.77416 0.0
C265 C 0.26208 0.5889 0.8031 0.0
C266 C 0.28689 0.59981 0.69951 0.0
C267 C 0.26443 0.61719 0.62478 0.0
C268 C 0.24258 0.53592 0.84834 0.0
C269 C 0.28752 0.61161 0.87883 0.0
C270 C 0.20839 0.55869 0.32929 0.0
C271 C 0.21488 0.52718 0.27815 0.0
C272 C 0.24652 0.50724 0.30736 0.0
C273 C 0.27109 0.51933 0.38489 0.0
C274 C 0.26421 0.5519 0.43339 0.0
C275 C 0.23282 0.5705 0.40476 0.0
C276 C 0.22467 0.59942 0.47034 0.0
C277 C 0.25893 0.59888 0.53915 0.0
C278 C 0.28139 0.56966 0.52057 0.0
C279 C 0.18067 0.57323 0.52818 0.0
C280 C 0.22884 0.64904 0.40489 0.0
H281 H 0.36692 0.62199 0.8088 0.0
H282 H 0.42165 0.52329 0.64489 0.0
H283 H 0.38875 0.59089 0.46935 0.0
H284 H 0.35357 0.54823 0.41882 0.0
H285 H 0.3946 0.53433 0.48352 0.0
H286 H 0.30603 0.46955 0.68992 0.0
H287 H 0.34567 0.46376 0.60918 0.0
H288 H 0.29863 0.47103 0.56146 0.0
H289 H 0.18362 0.5844 0.90725 0.0
H290 H 0.15653 0.68009 0.65204 0.0
H291 H 0.22064 0.68522 0.55637 0.0
H292 H 0.22277 0.51977 0.79514 0.0
H293 H 0.22305 0.52823 0.92061 0.0
H294 H 0.26725 0.51927 0.86375 0.0
H295 H 0.30648 0.64826 0.84187 0.0
H296 H 0.30809 0.59166 0.91254 0.0
H297 H 0.26657 0.61167 0.94237 0.0
H298 H 0.43495 0.61339 0.84378 0.0
C299 C 0.37664 0.59703 0.78062 0.0
C300 C 1.00053 0.21987 0.70323 0.0
C301 C 0.03144 0.20322 0.74932 0.0
C302 C 0.07049 0.23524 0.75685 0.0
C303 C 0.05188 0.29622 0.6503 0.0
C304 C 1.01142 0.26768 0.65721 0.0
C305 C 0.98412 0.29638 0.61778 0.0
H306 H 0.05226 0.53654 0.53768 0.0
C307 C 0.05632 0.34223 0.5904 0.0
C308 C 0.01595 0.34498 0.59455 0.0
H309 H 0.98277 0.44034 0.81486 0.0
H310 H 0.97305 0.37582 0.73678 0.0
H311 H 0.10882 0.47774 0.47418 0.0
H312 H 0.98645 0.46257 0.36791 0.0
H313 H 0.03156 0.47956 0.27859 0.0
H314 H 0.0246 0.51947 0.34726 0.0
H315 H 0.09646 0.528 0.40384 0.0
H316 H 0.10424 0.48676 0.34066 0.0
C317 C 0.94874 0.28914 0.69825 0.0
C318 C 0.9668 0.28484 0.52122 0.0
C319 C 0.10465 0.31788 0.29404 0.0
C320 C 0.07603 0.30555 0.22501 0.0
C321 C 0.04516 0.32808 0.20963 0.0
C322 C 0.04262 0.36098 0.26351 0.0
C323 C 0.0708 0.37123 0.33437 0.0
C324 C 0.10068 0.34887 0.3506 0.0
C325 C 0.11731 0.35181 0.45058 0.0
C326 C 0.08312 0.36557 0.49881 0.0
C327 C 0.06656 0.39107 0.42109 0.0
C328 C 0.15838 0.39252 0.43454 0.0
C329 C 0.12586 0.30648 0.50446 0.0
C330 C 0.03407 0.50182 0.58085 0.0
C331 C 0.01809 0.49371 0.683 0.0
C332 C 0.99512 0.44782 0.73685 0.0
C333 C 0.98899 0.41076 0.69199 0.0
C334 C 1.00508 0.41947 0.59152 0.0
C335 C 0.02708 0.46385 0.53663 0.0
C336 C 0.04448 0.46243 0.43486 0.0
C337 C 0.03527 0.40971 0.44678 0.0
C338 C 1.00951 0.38543 0.53822 0.0
C339 C 0.0913 0.49035 0.41229 0.0
C340 C 0.02028 0.4822 0.35234 0.0
H341 H 0.10923 0.30687 0.71898 0.0
H342 H 0.96919 0.19689 0.70529 0.0
H343 H 0.99245 0.28971 0.46337 0.0
H344 H 0.9485 0.30789 0.48843 0.0
H345 H 0.94616 0.2481 0.53823 0.0
H346 H 0.96126 0.29519 0.76953 0.0
H347 H 0.92695 0.25294 0.71554 0.0
H348 H 0.93082 0.31334 0.67082 0.0
H349 H 0.1274 0.30003 0.31011 0.0
H350 H 0.02227 0.31928 0.15813 0.0
H351 H 0.01741 0.37564 0.25478 0.0
H352 H 0.15406 0.42641 0.39794 0.0
H353 H 0.18255 0.3871 0.38713 0.0
H354 H 0.17016 0.39528 0.50834 0.0
H355 H 0.09742 0.27566 0.51831 0.0
H356 H 0.14063 0.31003 0.57407 0.0
H357 H 0.1496 0.29988 0.45829 0.0
H358 H 0.09414 0.22406 0.79735 0.0
C359 C 0.08003 0.28228 0.71064 0.0
C360 C 0.36923 0.222 0.2753 0.0
C361 C 0.41136 0.25138 0.26836 0.0
C362 C 0.4239 0.26784 0.35359 0.0
C363 C 0.36076 0.21703 0.45401 0.0
C364 C 0.34371 0.20664 0.36958 0.0
C365 C 0.29926 0.17342 0.40113 0.0
H366 H 0.15952 0.05442 0.83672 0.0
C367 C 0.33448 0.18532 0.54513 0.0
C368 C 0.295 0.16607 0.51695 0.0
H369 H 0.14084 0.16574 0.60488 0.0
H370 H 0.20966 0.18083 0.51724 0.0
H371 H 0.22105 1.01869 0.6565 0.0
H372 H 0.26199 0.10645 0.86298 0.0
H373 H 0.27252 0.05191 0.88535 0.0
H374 H 0.22097 0.05174 0.90916 0.0
H375 H 0.19835 0.99774 0.78596 0.0
H376 H 0.25059 1.00061 0.75478 0.0
C377 C 0.29475 0.12727 0.37365 0.0
C378 C 0.26818 0.1962 0.35037 0.0
C379 C 0.41526 0.11257 0.80331 0.0
C380 C 0.40963 0.06584 0.85432 0.0
C381 C 0.3718 0.0316 0.8515 0.0
C382 C 0.33974 0.04461 0.80105 0.0
C383 C 0.34607 0.09183 0.7528 0.0
C384 C 0.3844 0.1243 0.74875 0.0
C385 C 0.39017 0.16953 0.67054 0.0
C386 C 0.34805 0.15882 0.6293 0.0
C387 C 0.32173 0.11445 0.68303 0.0
C388 C 0.42717 0.1785 0.59111 0.0
C389 C 0.39691 0.20887 0.72413 0.0
C390 C 0.17008 0.08194 0.76741 0.0
C391 C 0.14447 0.10855 0.72792 0.0
C392 C 0.15953 0.14422 0.63661 0.0
C393 C 0.19854 0.15244 0.58455 0.0
C394 C 0.22254 0.12414 0.62253 0.0
C395 C 0.20922 0.09081 0.71432 0.0
C396 C 0.24223 0.06882 0.74733 0.0
C397 C 0.27893 0.10063 0.66941 0.0
C398 C 0.26553 0.12828 0.58886 0.0
C399 C 0.22745 1.01869 0.73557 0.0
C400 C 0.25002 0.06992 0.85717 0.0
H401 H 0.40961 0.26493 0.5082 0.0
H402 H 0.35788 0.2081 0.21273 0.0
H403 H 0.26956 0.22789 0.37538 0.0
H404 H 0.23603 0.17143 0.36901 0.0
H405 H 0.27535 0.2065 0.26689 0.0
H406 H 0.31779 0.11124 0.40904 0.0
H407 H 0.29978 0.13314 0.29052 0.0
H408 H 0.26309 0.10214 0.40068 0.0
H409 H 0.44479 0.13948 0.79877 0.0
H410 H 0.36732 0.99521 0.88669 0.0
H411 H 0.31181 1.01779 0.79678 0.0
H412 H 0.45102 0.16363 0.62413 0.0
H413 H 0.44461 0.21595 0.5613 0.0
H414 H 0.41675 0.16285 0.52781 0.0
H415 H 0.37254 0.19891 0.78861 0.0
H416 H 0.39525 0.24139 0.67261 0.0
H417 H 0.42776 0.21635 0.75375 0.0
H418 H 0.45531 0.28818 0.35593 0.0
C419 C 0.39836 0.25214 0.44471 0.0
C420 C 0.51549 0.37141 0.04096 0.0
C421 C 0.50583 0.41272 0.05698 0.0
C422 C 0.4901 0.40797 0.1564 0.0
C423 C 0.51381 0.34275 0.21817 0.0
C424 C 0.51426 0.33185 0.12842 0.0
C425 C 0.51779 0.27718 0.14913 0.0
H426 H 0.60715 0.17628 0.60753 0.0
C427 C 0.53505 0.31837 0.28745 0.0
C428 C 0.53218 0.27528 0.26819 0.0
H429 H 0.48144 0.10428 0.57217 0.0
H430 H 0.48856 0.15389 0.40675 0.0
H431 H 0.61594 0.21559 0.27827 0.0
H432 H 0.64235 0.2566 0.55738 0.0
H433 H 0.67316 0.29808 0.44251 0.0
H434 H 0.67531 0.24049 0.48581 0.0
H435 H 0.65224 0.20167 0.36202 0.0
H436 H 0.66376 0.2599 0.28129 0.0
C437 C 0.56525 0.29467 0.09482 0.0
C438 C 0.44807 0.197 0.10543 0.0
C439 C 0.64182 0.42974 0.43763 0.0
C440 C 0.64917 0.41846 0.53958 0.0
C441 C 0.64204 0.37135 0.59018 0.0
C442 C 0.62627 0.33646 0.54059 0.0
C443 C 0.62095 0.34845 0.4376 0.0
C444 C 0.62249 0.39371 0.39363 0.0
C445 C 0.58801 0.39432 0.32602 0.0
C446 C 0.5686 0.34186 0.33447 0.0
C447 C 0.59393 0.31828 0.3831 0.0
C448 C 0.60748 0.42209 0.21773 0.0
C449 C 0.55774 0.41606 0.36766 0.0
C450 C 0.57986 0.17434 0.56751 0.0
C451 C 0.54182 0.13991 0.6107 0.0
C452 C 0.50926 0.13427 0.54803 0.0
C453 C 0.51235 0.16524 0.45184 0.0
C454 C 0.54809 0.20431 0.41493 0.0
C455 C 0.5825 0.20478 0.46993 0.0
C456 C 0.61879 0.24423 0.41361 0.0
C457 C 0.59388 0.27552 0.36507 0.0
C458 C 0.55799 0.24971 0.32774 0.0
C459 C 0.63863 0.2295 0.32897 0.0
C460 C 0.65384 0.26157 0.47843 0.0
H461 H 0.48504 0.37304 0.31256 0.0
H462 H 0.52338 0.37006 0.96518 0.0
H463 H 0.41424 0.19435 0.11626 0.0
H464 H 0.44295 0.15938 0.14668 0.0
H465 H 0.44611 0.19043 0.02793 0.0
H466 H 0.5861 0.325 0.11774 0.0
H467 H 0.56805 0.30741 0.01123 0.0
H468 H 0.58122 0.26796 0.11615 0.0
H469 H 0.64288 0.46495 0.40023 0.0
H470 H 0.644 0.36125 0.67071 0.0
H471 H 0.61238 0.30135 0.58652 0.0
H472 H 0.62925 0.40638 0.18925 0.0
H473 H 0.62503 0.45878 0.21563 0.0
H474 H 0.58327 0.42269 0.16523 0.0
H475 H 0.53342 0.38916 0.42511 0.0
H476 H 0.54361 0.43453 0.30642 0.0
H477 H 0.57306 0.44374 0.40447 0.0
H478 H 0.47829 0.43374 0.17577 0.0
C479 C 0.49439 0.37359 0.23633 0.0
Nd480 Nd 0.01622 0.05179 0.80741 0.0
Nd481 Nd 0.04892 0.08238 0.98562 0.0
C482 C 0.98474 0.99558 0.68901 0.0
C483 C 0.98669 0.95028 0.67103 0.0
C484 C 0.9498 0.91359 0.67492 0.0
C485 C 0.9504 0.87284 0.64833 0.0
C486 C 0.98797 0.86708 0.61637 0.0
C487 C 0.02515 0.90297 0.61684 0.0
C488 C 0.02453 0.94389 0.64343 0.0
C489 C 0.10055 0.09727 0.77192 0.0
C490 C 0.03826 0.97972 0.99844 0.0
C491 C 0.0821 0.13919 0.10162 0.0
C492 C 0.07941 0.1837 0.12231 0.0
C493 C 0.11603 0.21999 0.12294 0.0
C494 C 0.11472 0.2602 0.15085 0.0
C495 C 0.07666 0.26582 0.17955 0.0
C496 C 0.03983 0.2303 0.17471 0.0
C497 C 0.04117 0.1899 0.14682 0.0
C498 C 0.96327 0.04153 0.01401 0.0
C499 C 0.02439 0.15414 0.79836 0.0
O500 O 0.9647 0.99432 0.77287 0.0
O501 O 0.01804 0.03202 0.66218 0.0
O502 O 0.07349 0.10439 0.7107 0.0
O503 O 0.08268 0.06752 0.85518 0.0
O504 O 0.0146 0.98755 0.92703 0.0
O505 O 0.0632 1.01394 0.02962 0.0
O506 O 0.10018 0.14165 0.01431 0.0
O507 O 0.05001 0.10155 0.13221 0.0
O508 O 0.98803 0.03375 0.08143 0.0
O509 O 0.98402 0.06955 0.93269 0.0
O510 O 0.04848 0.14667 0.86906 0.0
O511 O 1.0003 0.11968 0.76584 0.0
H512 H 0.9201 0.91693 0.69594 0.0
H513 H 0.92103 0.84613 0.65051 0.0
H514 H 0.05473 0.90051 0.59199 0.0
H515 H 0.05374 0.97111 0.63952 0.0
H516 H 0.14601 0.21676 0.10418 0.0
H517 H 0.14387 0.28666 0.15198 0.0
H518 H 1.00987 0.23267 0.1969 0.0
H519 H 0.01218 0.16295 0.14697 0.0
Nd520 Nd 0.525 1.01916 0.85769 0.0
Nd521 Nd 0.53934 0.11539 0.95197 0.0
C522 C 0.52419 0.93499 0.82723 0.0
C523 C 0.5441 0.91154 0.76085 0.0
C524 C 0.57047 0.87221 0.81604 0.0
C525 C 0.6108 0.86465 0.74495 0.0
C526 C 0.62223 0.89281 0.61477 0.0
C527 C 0.59503 0.93013 0.56029 0.0
C528 C 0.55484 0.93753 0.63159 0.0
C529 C 0.53919 0.10024 0.70135 0.0
C530 C 0.61844 0.08557 0.87883 0.0
C531 C 0.53977 0.19794 0.99117 0.0
C532 C 0.51834 0.22086 0.05602 0.0
C533 C 0.49459 0.26267 0.99761 0.0
C534 C 0.45695 0.27523 0.06769 0.0
C535 C 0.44555 0.24934 0.19892 0.0
C536 C 0.46941 0.20975 0.25577 0.0
C537 C 0.50711 0.19687 0.18669 0.0
C538 C 0.52627 0.03377 0.10925 0.0
C539 C 0.44641 0.05576 0.89722 0.0
O540 O 0.54618 0.95503 0.89098 0.0
O541 O 0.50044 0.95927 0.78685 0.0
O542 O 0.53067 0.05827 0.69057 0.0
O543 O 0.53918 0.09821 0.79622 0.0
O544 O 0.59469 0.05854 0.82816 0.0
O545 O 0.60651 0.11528 0.91838 0.0
O546 O 0.52043 0.18105 0.92039 0.0
O547 O 0.56163 0.1718 0.03391 0.0
O548 O 0.53169 0.07521 0.11975 0.0
O549 O 0.52579 0.036 0.0144 0.0
O550 O 0.47105 0.09059 0.92813 0.0
O551 O 0.45762 1.02073 0.8794 0.0
H552 H 0.56542 0.85699 0.89679 0.0
H553 H 0.62899 0.84351 0.78154 0.0
H554 H 0.60545 0.95042 0.48426 0.0
H555 H 0.54045 0.96337 0.59868 0.0
H556 H 0.50001 0.27709 0.91661 0.0
H557 H 0.4402 0.29782 0.0298 0.0
H558 H 0.4569 0.19203 0.3321 0.0
H559 H 0.51971 0.16987 0.2233 0.0
Nd560 Nd 0.50469 0.56789 0.98066 0.0
Nd561 Nd 0.55497 0.56383 0.8122 0.0
C562 C 0.44538 0.57183 0.10456 0.0
C563 C 0.43057 0.60803 0.12762 0.0
C564 C 0.39666 0.59592 0.20078 0.0
C565 C 0.39029 0.62975 0.2445 0.0
C566 C 0.41883 0.6748 0.21771 0.0
C567 C 0.44801 0.68831 0.13252 0.0
C568 C 0.45406 0.65492 0.08801 0.0
C569 C 0.58319 0.56558 0.0286 0.0
C570 C 0.55244 0.67117 0.81299 0.0
C571 C 0.61061 0.55721 0.68251 0.0
C572 C 0.62766 0.52163 0.66461 0.0
C573 C 0.66142 0.53435 0.59112 0.0
C574 C 0.67228 0.50012 0.55766 0.0
C575 C 0.64929 0.45281 0.59763 0.0
C576 C 0.61841 0.44028 0.67915 0.0
C577 C 0.60763 0.47449 0.71219 0.0
C578 C 0.47504 0.56236 0.77045 0.0
C579 C 0.51108 0.46217 0.98533 0.0
O580 O 0.43943 0.5645 0.01581 0.0
O581 O 0.48254 0.57282 0.12922 0.0
O582 O 0.54922 0.54456 0.08933 0.0
O583 O 0.57567 0.58994 0.94724 0.0
O584 O 0.52229 0.64888 0.88884 0.0
O585 O 0.57181 0.64539 0.77878 0.0
O586 O 0.62014 0.57133 0.76339 0.0
O587 O 0.57157 0.55069 0.6679 0.0
O588 O 0.50806 0.58729 0.70897 0.0
O589 O 0.48477 0.53913 0.84961 0.0
O590 O 0.54209 0.48528 0.91221 0.0
O591 O 0.48849 0.48645 0.01314 0.0
H592 H 0.37743 0.5599 0.22991 0.0
H593 H 0.36628 0.61977 0.30649 0.0
H594 H 0.46983 0.72337 0.10931 0.0
H595 H 0.47978 0.66502 0.03007 0.0
H596 H 0.6775 0.57077 0.55534 0.0
H597 H 0.69631 0.51062 0.49521 0.0
H598 H 0.59966 0.40428 0.7109 0.0
H599 H 0.58165 0.46408 0.76965 0.0
Nd600 Nd 0.02475 0.60564 0.81469 0.0
Nd601 Nd 0.0371 0.53148 0.96533 0.0
C602 C 0.98797 0.66268 0.71269 0.0
C603 C 0.95033 0.6448 0.66371 0.0
C604 C 0.92001 0.66721 0.64536 0.0
C605 C 0.88324 0.6464 0.6056 0.0
C606 C 0.87641 0.60299 0.5834 0.0
C607 C 0.907 0.58093 0.60375 0.0
C608 C 0.94286 0.60115 0.64427 0.0
C609 C 0.02542 0.53209 0.73481 0.0
C610 C 0.94232 0.52637 0.95653 0.0
C611 C 0.07369 0.4719 0.05987 0.0
C612 C 0.11394 0.48567 0.10202 0.0
C613 C 0.13479 0.45391 0.14259 0.0
C614 C 0.17049 0.46796 0.19219 0.0
C615 C 0.18566 0.51396 0.20184 0.0
C616 C 0.16764 0.54661 0.14846 0.0
C617 C 0.13176 0.53246 0.10187 0.0
C618 C 0.03597 0.60401 0.04715 0.0
C619 C 0.11917 0.61405 0.82675 0.0
O620 O 0.98287 0.64879 0.81115 0.0
O621 O 0.02207 0.65834 0.67581 0.0
O622 O 0.04326 0.57557 0.68912 0.0
O623 O 1.0074 0.52808 0.82026 0.0
O624 O 0.95967 0.5693 0.90147 0.0
O625 O 0.96538 0.49919 0.98616 0.0
O626 O 0.07564 0.48526 0.96163 0.0
O627 O 0.04334 0.4806 0.10319 0.0
O628 O 0.01919 0.56033 0.09282 0.0
O629 O 0.05397 0.60887 0.96095 0.0
O630 O 0.10238 0.57027 0.87795 0.0
O631 O 0.09539 0.64055 0.80083 0.0
H632 H 0.92461 0.70042 0.66225 0.0
H633 H 0.86039 0.66436 0.59201 0.0
H634 H 0.90426 0.54839 0.58543 0.0
H635 H 0.96514 0.58248 0.65978 0.0
H636 H 0.12277 0.41809 0.13898 0.0
H637 H 0.18467 0.44224 0.22719 0.0
H638 H 0.1798 0.58306 0.14747 0.0
H639 H 0.11709 0.55808 0.06848 0.0
loop_
_geom_bond_atom_site_label_1
_geom_bond_atom_site_label_2
_geom_bond_distance
_geom_bond_site_symmetry_2
_ccdc_geom_bond_type
C0 C1 1.391 . S
C0 C4 1.391 . S
C0 H42 0.948 . S
C1 C0 1.391 . S
C1 C2 1.391 . S
C2 C1 1.391 . S
C2 H58 0.947 . S
C2 C59 1.392 . S
C3 C4 1.391 . S
C3 C7 1.397 . S
C3 C59 1.419 . S
C4 C0 1.391 . S
C4 C3 1.391 . S
C4 C5 1.399 . S
C5 C4 1.399 . S
C5 C8 1.396 . S
C5 C17 1.453 . S
C5 C18 1.684 . S
H6 C30 0.948 . S
C7 C3 1.397 . S
C7 C8 1.394 . S
C7 C26 1.723 1_554 S
C8 C5 1.396 . S
C8 C7 1.394 . S
C8 C38 1.723 1_554 S
H9 C32 0.947 . S
H10 C33 0.948 . S
H11 C39 0.982 . S
H12 C40 0.979 . S
H13 C40 0.980 . S
H14 C40 0.983 . S
H15 C39 0.979 . S
H16 C39 0.977 . S
C17 C5 1.453 . S
C17 H46 0.982 . S
C17 H47 0.979 . S
C17 H48 0.977 . S
C18 C5 1.684 . S
C18 H43 0.979 . S
C18 H44 0.980 . S
C18 H45 0.983 . S
C19 C20 1.391 . S
C19 C24 1.391 . S
C19 H49 0.948 . S
C20 C19 1.391 . S
C20 C21 1.391 . S
C21 C20 1.391 . S
C21 C22 1.392 . S
C21 H50 0.947 . S
C22 C21 1.392 . S
C22 C23 1.419 . S
C22 H51 0.948 . S
C23 C22 1.419 . S
C23 C24 1.391 . S
C23 C27 1.397 . S
C24 C19 1.391 . S
C24 C23 1.391 . S
C24 C25 1.399 . S
C25 C24 1.399 . S
C25 C26 1.396 . S
C25 C28 1.453 . S
C25 C29 1.684 1_556 S
C26 C7 1.723 1_556 S
C26 C25 1.396 . S
C26 C27 1.394 . S
C27 C23 1.397 . S
C27 C26 1.394 . S
C27 C37 1.723 . S
C28 C25 1.453 . S
C28 H52 0.982 . S
C28 H53 0.979 . S
C28 H54 0.977 1_556 S
C29 C25 1.684 1_554 S
C29 H55 0.979 . S
C29 H56 0.980 . S
C29 H57 0.983 . S
C30 H6 0.948 . S
C30 C31 1.391 . S
C30 C35 1.391 . S
C31 C30 1.391 . S
C31 C32 1.391 1_556 S
C32 H9 0.947 . S
C32 C31 1.391 1_554 S
C32 C33 1.392 . S
C33 H10 0.948 . S
C33 C32 1.392 . S
C33 C34 1.419 1_554 S
C34 C33 1.419 1_556 S
C34 C35 1.391 . S
C34 C38 1.397 . S
C35 C30 1.391 . S
C35 C34 1.391 . S
C35 C36 1.399 . S
C36 C35 1.399 . S
C36 C37 1.396 . S
C36 C39 1.453 . S
C36 C40 1.684 . S
C37 C27 1.723 . S
C37 C36 1.396 . S
C37 C38 1.394 . S
C38 C8 1.723 1_556 S
C38 C34 1.397 . S
C38 C37 1.394 . S
C39 H11 0.982 . S
C39 H15 0.979 . S
C39 H16 0.977 . S
C39 C36 1.453 . S
C40 H12 0.979 . S
C40 H13 0.980 . S
C40 H14 0.983 . S
C40 C36 1.684 . S
H41 C59 0.948 . S
H42 C0 0.948 . S
H43 C18 0.979 . S
H44 C18 0.980 . S
H45 C18 0.983 . S
H46 C17 0.982 . S
H47 C17 0.979 . S
H48 C17 0.977 . S
H49 C19 0.948 . S
H50 C21 0.947 . S
H51 C22 0.948 . S
H52 C28 0.982 . S
H53 C28 0.979 . S
H54 C28 0.977 1_554 S
H55 C29 0.979 . S
H56 C29 0.980 . S
H57 C29 0.983 . S
H58 C2 0.947 . S
C59 C2 1.392 . S
C59 C3 1.419 . S
C59 H41 0.948 . S
C60 C61 1.391 . S
C60 C64 1.391 . S
C60 H102 0.948 . S
C61 C60 1.391 . S
C61 C62 1.391 . S
C62 C61 1.391 . S
C62 H118 0.947 . S
C62 C119 1.392 . S
C63 C64 1.391 . S
C63 C67 1.397 1_556 S
C63 C119 1.419 . S
C64 C60 1.391 . S
C64 C63 1.391 . S
C64 C65 1.399 . S
C65 C64 1.399 . S
C65 C68 1.396 . S
C65 C77 1.453 . S
C65 C78 1.684 . S
H66 C90 0.948 . S
C67 C63 1.397 1_554 S
C67 C68 1.394 1_554 S
C67 C86 1.723 . S
C68 C65 1.396 . S
C68 C67 1.394 1_556 S
C68 C98 1.723 1_556 S
H69 C92 0.947 . S
H70 C93 0.948 . S
H71 C99 0.982 . S
H72 C100 0.979 . S
H73 C100 0.980 . S
H74 C100 0.983 . S
H75 C99 0.979 . S
H76 C99 0.977 . S
C77 C65 1.453 . S
C77 H106 0.982 . S
C77 H107 0.979 . S
C77 H108 0.977 . S
C78 C65 1.684 . S
C78 H103 0.979 . S
C78 H104 0.980 . S
C78 H105 0.983 . S
C79 C80 1.391 . S
C79 C84 1.391 . S
C79 H109 0.948 . S
C80 C79 1.391 . S
C80 C81 1.391 . S
C81 C80 1.391 . S
C81 C82 1.392 . S
C81 H110 0.947 . S
C82 C81 1.392 . S
C82 C83 1.419 . S
C82 H111 0.948 . S
C83 C82 1.419 . S
C83 C84 1.391 . S
C83 C87 1.397 . S
C84 C79 1.391 . S
C84 C83 1.391 . S
C84 C85 1.399 . S
C85 C84 1.399 . S
C85 C86 1.396 . S
C85 C88 1.453 . S
C85 C89 1.684 . S
C86 C67 1.723 . S
C86 C85 1.396 . S
C86 C87 1.394 . S
C87 C83 1.397 . S
C87 C86 1.394 . S
C87 C97 1.723 . S
C88 C85 1.453 . S
C88 H112 0.982 . S
C88 H113 0.979 . S
C88 H114 0.977 . S
C89 C85 1.684 . S
C89 H115 0.979 . S
C89 H116 0.980 . S
C89 H117 0.983 . S
C90 H66 0.948 . S
C90 C91 1.391 . S
C90 C95 1.391 . S
C91 C90 1.391 . S
C91 C92 1.391 1_554 S
C92 H69 0.947 . S
C92 C91 1.391 1_556 S
C92 C93 1.392 . S
C93 H70 0.948 . S
C93 C92 1.392 . S
C93 C94 1.419 1_556 S
C94 C93 1.419 1_554 S
C94 C95 1.391 . S
C94 C98 1.397 . S
C95 C90 1.391 . S
C95 C94 1.391 . S
C95 C96 1.399 . S
C96 C95 1.399 . S
C96 C97 1.396 . S
C96 C99 1.453 . S
C96 C100 1.684 . S
C97 C87 1.723 . S
C97 C96 1.396 . S
C97 C98 1.394 . S
C98 C68 1.723 1_554 S
C98 C94 1.397 . S
C98 C97 1.394 . S
C99 H71 0.982 . S
C99 H75 0.979 . S
C99 H76 0.977 . S
C99 C96 1.453 . S
C100 H72 0.979 . S
C100 H73 0.980 . S
C100 H74 0.983 . S
C100 C96 1.684 . S
H101 C119 0.948 1_554 S
H102 C60 0.948 . S
H103 C78 0.979 . S
H104 C78 0.980 . S
H105 C78 0.983 . S
H106 C77 0.982 . S
H107 C77 0.979 . S
H108 C77 0.977 . S
H109 C79 0.948 . S
H110 C81 0.947 . S
H111 C82 0.948 . S
H112 C88 0.982 . S
H113 C88 0.979 . S
H114 C88 0.977 . S
H115 C89 0.979 . S
H116 C89 0.980 . S
H117 C89 0.983 . S
H118 C62 0.947 . S
C119 C62 1.392 . S
C119 C63 1.419 . S
C119 H101 0.948 1_556 S
C120 C121 1.391 1_554 S
C120 C124 1.391 . S
C120 H162 0.948 . S
C121 C120 1.391 1_556 S
C121 C122 1.391 . S
C122 C121 1.391 . S
C122 H178 0.947 . S
C122 C179 1.392 . S
C123 C124 1.391 1_556 S
C123 C127 1.397 . S
C123 C179 1.419 . S
C124 C120 1.391 . S
C124 C123 1.391 1_554 S
C124 C125 1.399 . S
C125 C124 1.399 . S
C125 C128 1.396 . S
C125 C137 1.453 . S
C125 C138 1.684 . S
H126 C150 0.948 . S
C127 C123 1.397 . S
C127 C128 1.394 1_556 S
C127 C146 1.723 . S
C128 C125 1.396 . S
C128 C127 1.394 1_554 S
C128 C158 1.723 . S
H129 C152 0.947 . S
H130 C153 0.948 . S
H131 C159 0.982 1_545 S
H132 C160 0.979 . S
H133 C160 0.980 . S
H134 C160 0.983 . S
H135 C159 0.979 . S
H136 C159 0.977 . S
C137 C125 1.453 . S
C137 H166 0.982 1_565 S
C137 H167 0.979 . S
C137 H168 0.977 . S
C138 C125 1.684 . S
C138 H163 0.979 . S
C138 H164 0.980 . S
C138 H165 0.983 . S
C139 C140 1.391 . S
C139 C144 1.391 . S
C139 H169 0.948 . S
C140 C139 1.391 . S
C140 C141 1.391 . S
C141 C140 1.391 . S
C141 C142 1.392 . S
C141 H170 0.947 . S
C142 C141 1.392 . S
C142 C143 1.419 . S
C142 H171 0.952 . S
C143 C142 1.419 . S
C143 C144 1.391 . S
C143 C147 1.397 . S
C144 C139 1.391 . S
C144 C143 1.391 . S
C144 C145 1.399 . S
C145 C144 1.399 . S
C145 C146 1.396 . S
C145 C148 1.453 . S
C145 C149 1.684 . S
C146 C127 1.723 . S
C146 C145 1.396 . S
C146 C147 1.394 . S
C147 C143 1.397 . S
C147 C146 1.394 . S
C147 C157 1.723 1_556 S
C148 C145 1.453 . S
C148 H172 0.982 1_565 S
C148 H173 0.979 . S
C148 H174 0.977 . S
C149 C145 1.684 . S
C149 H175 0.979 . S
C149 H176 0.980 . S
C149 H177 0.983 . S
C150 H126 0.948 . S
C150 C151 1.391 . S
C150 C155 1.391 . S
C151 C150 1.391 . S
C151 C152 1.391 . S
C152 H129 0.947 . S
C152 C151 1.391 . S
C152 C153 1.392 . S
C153 H130 0.948 . S
C153 C152 1.392 . S
C153 C154 1.419 . S
C154 C153 1.419 . S
C154 C155 1.391 . S
C154 C158 1.397 . S
C155 C150 1.391 . S
C155 C154 1.391 . S
C155 C156 1.399 . S
C156 C155 1.399 . S
C156 C157 1.396 . S
C156 C159 1.453 . S
C156 C160 1.684 . S
C157 C147 1.723 1_554 S
C157 C156 1.396 . S
C157 C158 1.394 . S
C158 C128 1.723 . S
C158 C154 1.397 . S
C158 C157 1.394 . S
C159 H131 0.982 1_565 S
C159 H135 0.979 . S
C159 H136 0.977 . S
C159 C156 1.453 . S
C160 H132 0.979 . S
C160 H133 0.980 . S
C160 H134 0.983 . S
C160 C156 1.684 . S
H161 C179 0.948 . S
H162 C120 0.948 . S
H163 C138 0.979 . S
H164 C138 0.980 . S
H165 C138 0.983 . S
H166 C137 0.982 1_545 S
H167 C137 0.979 . S
H168 C137 0.977 . S
H169 C139 0.948 . S
H170 C141 0.947 . S
H171 C142 0.952 . S
H172 C148 0.982 1_545 S
H173 C148 0.979 . S
H174 C148 0.977 . S
H175 C149 0.979 . S
H176 C149 0.980 . S
H177 C149 0.983 . S
H178 C122 0.947 . S
C179 C122 1.392 . S
C179 C123 1.419 . S
C179 H161 0.948 . S
C180 C181 1.391 . S
C180 C184 1.391 . S
C180 H222 0.948 . S
C181 C180 1.391 . S
C181 C182 1.391 . S
C182 C181 1.391 . S
C182 H238 0.947 . S
C182 C239 1.392 . S
C183 C184 1.391 . S
C183 C187 1.397 . S
C183 C239 1.419 . S
C184 C180 1.391 . S
C184 C183 1.391 . S
C184 C185 1.399 . S
C185 C184 1.399 . S
C185 C188 1.396 . S
C185 C197 1.453 . S
C185 C198 1.684 . S
H186 C210 0.948 . S
C187 C183 1.397 . S
C187 C188 1.394 . S
C187 C206 1.723 . S
C188 C185 1.396 . S
C188 C187 1.394 . S
C188 C218 1.723 . S
H189 C212 0.947 . S
H190 C213 0.948 . S
H191 C219 0.982 . S
H192 C220 0.979 . S
H193 C220 0.980 . S
H194 C220 0.983 . S
H195 C219 0.979 . S
H196 C219 0.977 . S
C197 C185 1.453 . S
C197 H226 0.982 . S
C197 H227 0.979 . S
C197 H228 0.977 . S
C198 C185 1.684 . S
C198 H223 0.979 . S
C198 H224 0.980 . S
C198 H225 0.983 . S
C199 C200 1.391 . S
C199 C204 1.391 . S
C199 H229 0.948 . S
C200 C199 1.391 . S
C200 C201 1.391 . S
C201 C200 1.391 . S
C201 C202 1.392 . S
C201 H230 0.947 . S
C202 C201 1.392 . S
C202 C203 1.419 . S
C202 H231 0.948 . S
C203 C202 1.419 . S
C203 C204 1.391 . S
C203 C207 1.397 . S
C204 C199 1.391 . S
C204 C203 1.391 . S
C204 C205 1.399 . S
C205 C204 1.399 . S
C205 C206 1.396 . S
C205 C208 1.453 . S
C205 C209 1.684 . S
C206 C187 1.723 . S
C206 C205 1.396 . S
C206 C207 1.394 . S
C207 C203 1.397 . S
C207 C206 1.394 . S
C207 C217 1.723 . S
C208 C205 1.453 . S
C208 H232 0.982 . S
C208 H233 0.979 . S
C208 H234 0.977 . S
C209 C205 1.684 . S
C209 H235 0.979 . S
C209 H236 0.980 . S
C209 H237 0.983 . S
C210 H186 0.948 . S
C210 C211 1.391 . S
C210 C215 1.391 1_545 S
C211 C210 1.391 . S
C211 C212 1.391 . S
C212 H189 0.947 . S
C212 C211 1.391 . S
C212 C213 1.392 1_545 S
C213 H190 0.948 . S
C213 C212 1.392 1_565 S
C213 C214 1.419 . S
C214 C213 1.419 . S
C214 C215 1.391 . S
C214 C218 1.397 . S
C215 C210 1.391 1_565 S
C215 C214 1.391 . S
C215 C216 1.399 . S
C216 C215 1.399 . S
C216 C217 1.396 . S
C216 C219 1.453 . S
C216 C220 1.684 . S
C217 C207 1.723 . S
C217 C216 1.396 . S
C217 C218 1.394 . S
C218 C188 1.723 . S
C218 C214 1.397 . S
C218 C217 1.394 . S
C219 H191 0.982 . S
C219 H195 0.979 . S
C219 H196 0.977 . S
C219 C216 1.453 . S
C220 H192 0.979 . S
C220 H193 0.980 . S
C220 H194 0.983 . S
C220 C216 1.684 . S
H221 C239 0.948 . S
H222 C180 0.948 . S
H223 C198 0.979 . S
H224 C198 0.980 . S
H225 C198 0.983 . S
H226 C197 0.982 . S
H227 C197 0.979 . S
H228 C197 0.977 . S
H229 C199 0.948 . S
H230 C201 0.947 . S
H231 C202 0.948 . S
H232 C208 0.982 . S
H233 C208 0.979 . S
H234 C208 0.977 . S
H235 C209 0.979 . S
H236 C209 0.980 . S
H237 C209 0.983 . S
H238 C182 0.947 . S
C239 C182 1.392 . S
C239 C183 1.419 . S
C239 H221 0.948 . S
C240 C241 1.391 . S
C240 C244 1.391 . S
C240 H282 0.948 . S
C241 C240 1.391 . S
C241 C242 1.391 . S
C242 C241 1.391 . S
C242 H298 0.947 1_556 S
C242 C299 1.392 . S
C243 C244 1.391 . S
C243 C247 1.397 . S
C243 C299 1.419 . S
C244 C240 1.391 . S
C244 C243 1.391 . S
C244 C245 1.399 . S
C245 C244 1.399 . S
C245 C248 1.396 . S
C245 C257 1.453 . S
C245 C258 1.684 . S
H246 C270 0.948 . S
C247 C243 1.397 . S
C247 C248 1.394 . S
C247 C266 1.723 . S
C248 C245 1.396 . S
C248 C247 1.394 . S
C248 C278 1.723 . S
H249 C272 0.947 . S
H250 C273 0.948 . S
H251 C279 0.982 . S
H252 C280 0.979 . S
H253 C280 0.980 . S
H254 C280 0.983 . S
H255 C279 0.979 . S
H256 C279 0.977 . S
C257 C245 1.453 . S
C257 H286 0.982 . S
C257 H287 0.979 . S
C257 H288 0.977 . S
C258 C245 1.684 . S
C258 H283 0.979 . S
C258 H284 0.980 . S
C258 H285 0.983 . S
C259 C260 1.391 . S
C259 C264 1.391 1_554 S
C259 H289 0.948 . S
C260 C259 1.391 . S
C260 C261 1.391 1_554 S
C261 C260 1.391 1_556 S
C261 C262 1.392 . S
C261 H290 0.947 . S
C262 C261 1.392 . S
C262 C263 1.419 . S
C262 H291 0.948 . S
C263 C262 1.419 . S
C263 C264 1.391 . S
C263 C267 1.397 . S
C264 C259 1.391 1_556 S
C264 C263 1.391 . S
C264 C265 1.399 . S
C265 C264 1.399 . S
C265 C266 1.396 . S
C265 C268 1.453 1_556 S
C265 C269 1.684 1_556 S
C266 C247 1.723 . S
C266 C265 1.396 . S
C266 C267 1.394 . S
C267 C263 1.397 . S
C267 C266 1.394 . S
C267 C277 1.723 . S
C268 C265 1.453 1_554 S
C268 H292 0.982 . S
C268 H293 0.979 . S
C268 H294 0.977 . S
C269 C265 1.684 1_554 S
C269 H295 0.979 . S
C269 H296 0.980 . S
C269 H297 0.983 . S
C270 H246 0.948 . S
C270 C271 1.391 . S
C270 C275 1.391 . S
C271 C270 1.391 . S
C271 C272 1.391 . S
C272 H249 0.947 . S
C272 C271 1.391 . S
C272 C273 1.392 . S
C273 H250 0.948 . S
C273 C272 1.392 . S
C273 C274 1.419 . S
C274 C273 1.419 . S
C274 C275 1.391 . S
C274 C278 1.397 . S
C275 C270 1.391 . S
C275 C274 1.391 . S
C275 C276 1.399 . S
C276 C275 1.399 . S
C276 C277 1.396 . S
C276 C279 1.453 . S
C276 C280 1.684 . S
C277 C267 1.723 . S
C277 C276 1.396 . S
C277 C278 1.394 . S
C278 C248 1.723 . S
C278 C274 1.397 . S
C278 C277 1.394 . S
C279 H251 0.982 . S
C279 H255 0.979 . S
C279 H256 0.977 . S
C279 C276 1.453 . S
C280 H252 0.979 . S
C280 H253 0.980 . S
C280 H254 0.983 . S
C280 C276 1.684 . S
H281 C299 0.948 . S
H282 C240 0.948 . S
H283 C258 0.979 . S
H284 C258 0.980 . S
H285 C258 0.983 . S
H286 C257 0.982 . S
H287 C257 0.979 . S
H288 C257 0.977 . S
H289 C259 0.948 . S
H290 C261 0.947 . S
H291 C262 0.948 . S
H292 C268 0.982 . S
H293 C268 0.979 . S
H294 C268 0.977 . S
H295 C269 0.979 . S
H296 C269 0.980 . S
H297 C269 0.983 . S
H298 C242 0.947 1_554 S
C299 C242 1.392 . S
C299 C243 1.419 . S
C299 H281 0.948 . S
C300 C301 1.391 . S
C300 C304 1.391 1_554 S
C300 H342 0.948 . S
C301 C300 1.391 . S
C301 C302 1.391 1_554 S
C302 C301 1.391 1_556 S
C302 H358 0.947 . S
C302 C359 1.392 . S
C303 C304 1.391 . S
C303 C307 1.397 . S
C303 C359 1.419 . S
C304 C300 1.391 1_556 S
C304 C303 1.391 . S
C304 C305 1.399 . S
C305 C304 1.399 . S
C305 C308 1.396 . S
C305 C317 1.453 . S
C305 C318 1.684 . S
H306 C330 0.948 . S
C307 C303 1.397 . S
C307 C308 1.394 . S
C307 C326 1.723 . S
C308 C305 1.396 . S
C308 C307 1.394 . S
C308 C338 1.723 . S
H309 C332 0.947 . S
H310 C333 0.948 . S
H311 C339 0.982 . S
H312 C340 0.979 . S
H313 C340 0.980 . S
H314 C340 0.983 . S
H315 C339 0.979 . S
H316 C339 0.977 . S
C317 C305 1.453 . S
C317 H346 0.982 . S
C317 H347 0.979 1_556 S
C317 H348 0.977 . S
C318 C305 1.684 . S
C318 H343 0.979 . S
C318 H344 0.980 . S
C318 H345 0.983 1_556 S
C319 C320 1.391 . S
C319 C324 1.391 . S
C319 H349 0.948 . S
C320 C319 1.391 . S
C320 C321 1.391 . S
C321 C320 1.391 . S
C321 C322 1.392 . S
C321 H350 0.947 . S
C322 C321 1.392 . S
C322 C323 1.419 . S
C322 H351 0.948 . S
C323 C322 1.419 . S
C323 C324 1.391 . S
C323 C327 1.397 . S
C324 C319 1.391 . S
C324 C323 1.391 . S
C324 C325 1.399 . S
C325 C324 1.399 . S
C325 C326 1.396 . S
C325 C328 1.453 . S
C325 C329 1.684 . S
C326 C307 1.723 . S
C326 C325 1.396 . S
C326 C327 1.394 . S
C327 C323 1.397 . S
C327 C326 1.394 . S
C327 C337 1.723 . S
C328 C325 1.453 . S
C328 H352 0.982 . S
C328 H353 0.979 . S
C328 H354 0.977 . S
C329 C325 1.684 . S
C329 H355 0.979 . S
C329 H356 0.980 . S
C329 H357 0.983 . S
C330 H306 0.948 . S
C330 C331 1.391 . S
C330 C335 1.391 . S
C331 C330 1.391 . S
C331 C332 1.391 . S
C332 H309 0.947 . S
C332 C331 1.391 . S
C332 C333 1.392 . S
C333 H310 0.948 . S
C333 C332 1.392 . S
C333 C334 1.419 . S
C334 C333 1.419 . S
C334 C335 1.391 . S
C334 C338 1.397 . S
C335 C330 1.391 . S
C335 C334 1.391 . S
C335 C336 1.399 . S
C336 C335 1.399 . S
C336 C337 1.396 . S
C336 C339 1.453 . S
C336 C340 1.684 . S
C337 C327 1.723 . S
C337 C336 1.396 . S
C337 C338 1.394 . S
C338 C308 1.723 . S
C338 C334 1.397 . S
C338 C337 1.394 . S
C339 H311 0.982 . S
C339 H315 0.979 . S
C339 H316 0.977 . S
C339 C336 1.453 . S
C340 H312 0.979 . S
C340 H313 0.980 . S
C340 H314 0.983 . S
C340 C336 1.684 . S
H341 C359 0.948 . S
H342 C300 0.948 . S
H343 C318 0.979 . S
H344 C318 0.980 . S
H345 C318 0.983 1_554 S
H346 C317 0.982 . S
H347 C317 0.979 1_554 S
H348 C317 0.977 . S
H349 C319 0.948 . S
H350 C321 0.947 . S
H351 C322 0.948 . S
H352 C328 0.982 . S
H353 C328 0.979 . S
H354 C328 0.977 . S
H355 C329 0.979 . S
H356 C329 0.980 . S
H357 C329 0.983 . S
H358 C302 0.947 . S
C359 C302 1.392 . S
C359 C303 1.419 . S
C359 H341 0.948 . S
C360 C361 1.391 . S
C360 C364 1.391 . S
C360 H402 0.948 . S
C361 C360 1.391 . S
C361 C362 1.391 . S
C362 C361 1.391 . S
C362 H418 0.947 . S
C362 C419 1.392 . S
C363 C364 1.391 . S
C363 C367 1.397 . S
C363 C419 1.419 . S
C364 C360 1.391 . S
C364 C363 1.391 . S
C364 C365 1.399 . S
C365 C364 1.399 . S
C365 C368 1.396 . S
C365 C377 1.453 . S
C365 C378 1.684 . S
H366 C390 0.948 . S
C367 C363 1.397 . S
C367 C368 1.394 . S
C367 C386 1.723 . S
C368 C365 1.396 . S
C368 C367 1.394 . S
C368 C398 1.723 . S
H369 C392 0.947 . S
H370 C393 0.948 . S
H371 C399 0.982 . S
H372 C400 0.979 . S
H373 C400 0.980 1_554 S
H374 C400 0.983 1_554 S
H375 C399 0.979 1_554 S
H376 C399 0.977 1_554 S
C377 C365 1.453 . S
C377 H406 0.982 . S
C377 H407 0.979 . S
C377 H408 0.977 . S
C378 C365 1.684 . S
C378 H403 0.979 . S
C378 H404 0.980 . S
C378 H405 0.983 . S
C379 C380 1.391 1_556 S
C379 C384 1.391 . S
C379 H409 0.948 . S
C380 C379 1.391 1_554 S
C380 C381 1.391 . S
C381 C380 1.391 . S
C381 C382 1.387 1_554 S
C381 H410 0.947 . S
C382 C381 1.387 1_556 S
C382 C383 1.426 . S
C382 H411 0.946 1_556 S
C383 C382 1.426 . S
C383 C384 1.391 . S
C383 C387 1.397 . S
C384 C379 1.391 . S
C384 C383 1.391 . S
C384 C385 1.399 . S
C385 C384 1.399 . S
C385 C386 1.396 . S
C385 C388 1.453 . S
C385 C389 1.684 . S
C386 C367 1.723 . S
C386 C385 1.396 . S
C386 C387 1.394 . S
C387 C383 1.397 . S
C387 C386 1.394 . S
C387 C397 1.723 . S
C388 C385 1.453 . S
C388 H412 0.982 . S
C388 H413 0.979 . S
C388 H414 0.977 . S
C389 C385 1.684 . S
C389 H415 0.979 . S
C389 H416 0.980 . S
C389 H417 0.983 . S
C390 H366 0.948 . S
C390 C391 1.391 . S
C390 C395 1.391 . S
C391 C390 1.391 . S
C391 C392 1.391 . S
C392 H369 0.947 . S
C392 C391 1.391 . S
C392 C393 1.392 . S
C393 H370 0.948 . S
C393 C392 1.392 . S
C393 C394 1.419 . S
C394 C393 1.419 . S
C394 C395 1.391 . S
C394 C398 1.397 . S
C395 C390 1.391 . S
C395 C394 1.391 . S
C395 C396 1.399 . S
C396 C395 1.399 . S
C396 C397 1.396 . S
C396 C399 1.453 . S
C396 C400 1.684 . S
C397 C387 1.723 . S
C397 C396 1.396 . S
C397 C398 1.394 . S
C398 C368 1.723 . S
C398 C394 1.397 . S
C398 C397 1.394 . S
C399 H371 0.982 . S
C399 H375 0.979 1_556 S
C399 H376 0.977 1_556 S
C399 C396 1.453 . S
C400 H372 0.979 . S
C400 H373 0.980 1_556 S
C400 H374 0.983 1_556 S
C400 C396 1.684 . S
H401 C419 0.948 . S
H402 C360 0.948 . S
H403 C378 0.979 . S
H404 C378 0.980 . S
H405 C378 0.983 . S
H406 C377 0.982 . S
H407 C377 0.979 . S
H408 C377 0.977 . S
H409 C379 0.948 . S
H410 C381 0.947 . S
H411 C382 0.946 1_554 S
H412 C388 0.982 . S
H413 C388 0.979 . S
H414 C388 0.977 . S
H415 C389 0.979 . S
H416 C389 0.980 . S
H417 C389 0.983 . S
H418 C362 0.947 . S
C419 C362 1.392 . S
C419 C363 1.419 . S
C419 H401 0.948 . S
C420 C421 1.391 . S
C420 C424 1.391 1_556 S
C420 H462 0.948 . S
C421 C420 1.391 . S
C421 C422 1.391 1_556 S
C422 C421 1.391 1_554 S
C422 H478 0.947 1_554 S
C422 C479 1.392 . S
C423 C424 1.391 . S
C423 C427 1.397 . S
C423 C479 1.419 . S
C424 C420 1.391 1_554 S
C424 C423 1.391 . S
C424 C425 1.399 . S
C425 C424 1.399 . S
C425 C428 1.396 . S
C425 C437 1.453 . S
C425 C438 1.684 . S
H426 C450 0.948 . S
C427 C423 1.397 . S
C427 C428 1.394 . S
C427 C446 1.723 . S
C428 C425 1.396 . S
C428 C427 1.394 . S
C428 C458 1.723 . S
H429 C452 0.947 . S
H430 C453 0.948 . S
H431 C459 0.982 . S
H432 C460 0.979 . S
H433 C460 0.980 . S
H434 C460 0.983 . S
H435 C459 0.979 . S
H436 C459 0.977 . S
C437 C425 1.453 . S
C437 H466 0.982 . S
C437 H467 0.979 . S
C437 H468 0.977 . S
C438 C425 1.684 . S
C438 H463 0.979 . S
C438 H464 0.980 . S
C438 H465 0.983 . S
C439 C440 1.391 . S
C439 C444 1.391 . S
C439 H469 0.948 . S
C440 C439 1.391 . S
C440 C441 1.391 . S
C441 C440 1.391 . S
C441 C442 1.392 . S
C441 H470 0.947 . S
C442 C441 1.392 . S
C442 C443 1.419 . S
C442 H471 0.948 . S
C443 C442 1.419 . S
C443 C444 1.391 . S
C443 C447 1.397 . S
C444 C439 1.391 . S
C444 C443 1.391 . S
C444 C445 1.399 . S
C445 C444 1.399 . S
C445 C446 1.396 . S
C445 C448 1.453 . S
C445 C449 1.684 . S
C446 C427 1.723 . S
C446 C445 1.396 . S
C446 C447 1.394 . S
C447 C443 1.397 . S
C447 C446 1.394 . S
C447 C457 1.723 . S
C448 C445 1.453 . S
C448 H472 0.982 . S
C448 H473 0.979 . S
C448 H474 0.977 . S
C449 C445 1.684 . S
C449 H475 0.979 . S
C449 H476 0.980 . S
C449 H477 0.983 . S
C450 H426 0.948 . S
C450 C451 1.391 . S
C450 C455 1.391 . S
C451 C450 1.391 . S
C451 C452 1.391 . S
C452 H429 0.947 . S
C452 C451 1.391 . S
C452 C453 1.392 . S
C453 H430 0.948 . S
C453 C452 1.392 . S
C453 C454 1.419 . S
C454 C453 1.419 . S
C454 C455 1.391 . S
C454 C458 1.397 . S
C455 C450 1.391 . S
C455 C454 1.391 . S
C455 C456 1.399 . S
C456 C455 1.399 . S
C456 C457 1.396 . S
C456 C459 1.453 . S
C456 C460 1.684 . S
C457 C447 1.723 . S
C457 C456 1.396 . S
C457 C458 1.394 . S
C458 C428 1.723 . S
C458 C454 1.397 . S
C458 C457 1.394 . S
C459 H431 0.982 . S
C459 H435 0.979 . S
C459 H436 0.977 . S
C459 C456 1.453 . S
C460 H432 0.979 . S
C460 H433 0.980 . S
C460 H434 0.983 . S
C460 C456 1.684 . S
H461 C479 0.948 . S
H462 C420 0.948 . S
H463 C438 0.979 . S
H464 C438 0.980 . S
H465 C438 0.983 . S
H466 C437 0.982 . S
H467 C437 0.979 . S
H468 C437 0.977 . S
H469 C439 0.948 . S
H470 C441 0.947 . S
H471 C442 0.948 . S
H472 C448 0.982 . S
H473 C448 0.979 . S
H474 C448 0.977 . S
H475 C449 0.979 . S
H476 C449 0.980 . S
H477 C449 0.983 . S
H478 C422 0.947 1_556 S
C479 C422 1.392 . S
C479 C423 1.419 . S
C479 H461 0.948 . S
Nd480 C482 2.836 1_445 S
Nd480 O500 2.500 1_445 S
Nd480 O501 2.492 . S
Nd480 O502 2.487 . S
Nd480 O503 2.682 . S
Nd480 O504 2.410 1_545 S
Nd480 O509 2.414 1_455 S
Nd480 O511 2.424 . S
Nd481 C491 2.836 . S
Nd481 O503 2.414 1_554 S
Nd481 O505 2.424 1_545 S
Nd481 O506 2.500 . S
Nd481 O507 2.492 . S
Nd481 O508 2.487 1_455 S
Nd481 O509 2.682 1_454 S
Nd481 O510 2.410 1_554 S
C482 Nd480 2.836 1_665 S
C482 C483 1.498 . S
C482 O500 1.258 . S
C482 O501 1.239 1_665 S
C483 C482 1.498 . S
C483 C484 1.366 . S
C483 C488 1.407 1_655 S
C484 C483 1.366 . S
C484 C485 1.392 . S
C484 H512 0.930 . S
C485 C484 1.392 . S
C485 C486 1.398 . S
C485 H513 0.929 . S
C486 C485 1.398 . S
C486 C487 1.352 . S
C487 C486 1.352 . S
C487 C488 1.384 1_655 S
C487 H514 0.930 1_655 S
C488 C483 1.407 1_455 S
C488 C487 1.384 1_455 S
C488 H515 0.929 . S
C489 O502 1.241 . S
C489 O503 1.273 . S
C490 O504 1.251 . S
C490 O505 1.268 1_556 S
C491 Nd481 2.836 . S
C491 C492 1.498 . S
C491 O506 1.258 . S
C491 O507 1.239 . S
C492 C491 1.498 . S
C492 C493 1.366 . S
C492 C497 1.407 . S
C493 C492 1.366 . S
C493 C494 1.392 . S
C493 H516 0.930 . S
C494 C493 1.392 . S
C494 C495 1.398 . S
C494 H517 0.929 . S
C495 C494 1.398 . S
C495 C496 1.352 . S
C496 C495 1.352 . S
C496 C497 1.384 . S
C496 H518 0.930 . S
C497 C492 1.407 . S
C497 C496 1.384 . S
C497 H519 0.929 . S
C498 O508 1.241 1_556 S
C498 O509 1.273 . S
C499 O510 1.251 . S
C499 O511 1.268 . S
O500 Nd480 2.500 1_665 S
O500 C482 1.258 . S
O501 Nd480 2.492 . S
O501 C482 1.239 1_445 S
O502 Nd480 2.487 . S
O502 C489 1.241 . S
O503 Nd480 2.682 . S
O503 Nd481 2.414 1_556 S
O503 C489 1.273 . S
O504 Nd480 2.410 1_565 S
O504 C490 1.251 . S
O505 Nd481 2.424 1_565 S
O505 C490 1.268 1_554 S
O506 Nd481 2.500 . S
O506 C491 1.258 . S
O507 Nd481 2.492 . S
O507 C491 1.239 . S
O508 Nd481 2.487 1_655 S
O508 C498 1.241 1_554 S
O509 Nd480 2.414 1_655 S
O509 Nd481 2.682 1_656 S
O509 C498 1.273 . S
O510 Nd481 2.410 1_556 S
O510 C499 1.251 . S
O511 Nd480 2.424 . S
O511 C499 1.268 . S
H512 C484 0.930 . S
H513 C485 0.929 . S
H514 C487 0.930 1_455 S
H515 C488 0.929 . S
H516 C493 0.930 . S
H517 C494 0.929 . S
H518 C496 0.930 . S
H519 C497 0.929 . S
Nd520 C522 2.836 1_545 S
Nd520 O540 2.500 1_545 S
Nd520 O541 2.492 . S
Nd520 O542 2.487 . S
Nd520 O543 2.682 . S
Nd520 O544 2.410 . S
Nd520 O549 2.414 1_545 S
Nd520 O551 2.424 . S
Nd521 C531 2.836 1_556 S
Nd521 O543 2.414 . S
Nd521 O545 2.424 . S
Nd521 O546 2.500 . S
Nd521 O547 2.492 1_556 S
Nd521 O548 2.487 1_556 S
Nd521 O549 2.682 1_545 S
Nd521 O550 2.410 . S
C522 Nd520 2.836 1_565 S
C522 C523 1.498 . S
C522 O540 1.258 . S
C522 O541 1.239 1_565 S
C523 C522 1.498 . S
C523 C524 1.366 . S
C523 C528 1.407 . S
C524 C523 1.366 . S
C524 C525 1.392 . S
C524 H552 0.930 . S
C525 C524 1.392 . S
C525 C526 1.398 . S
C525 H553 0.929 . S
C526 C525 1.398 . S
C526 C527 1.352 . S
C527 C526 1.352 . S
C527 C528 1.384 . S
C527 H554 0.930 . S
C528 C523 1.407 . S
C528 C527 1.384 . S
C528 H555 0.929 . S
C529 O542 1.241 . S
C529 O543 1.273 . S
C530 O544 1.251 . S
C530 O545 1.268 . S
C531 Nd521 2.836 1_554 S
C531 C532 1.498 . S
C531 O546 1.258 1_554 S
C531 O547 1.239 . S
C532 C531 1.498 . S
C532 C533 1.366 . S
C532 C537 1.407 . S
C533 C532 1.366 . S
C533 C534 1.392 . S
C533 H556 0.930 . S
C534 C533 1.392 . S
C534 C535 1.398 . S
C534 H557 0.929 . S
C535 C534 1.398 . S
C535 C536 1.352 . S
C536 C535 1.352 . S
C536 C537 1.384 . S
C536 H558 0.930 . S
C537 C532 1.407 . S
C537 C536 1.384 . S
C537 H559 0.929 . S
C538 O548 1.241 1_565 S
C538 O549 1.273 1_554 S
C539 O550 1.251 . S
C539 O551 1.268 . S
O540 Nd520 2.500 1_565 S
O540 C522 1.258 . S
O541 Nd520 2.492 . S
O541 C522 1.239 1_545 S
O542 Nd520 2.487 . S
O542 C529 1.241 . S
O543 Nd520 2.682 . S
O543 Nd521 2.414 . S
O543 C529 1.273 . S
O544 Nd520 2.410 . S
O544 C530 1.251 . S
O545 Nd521 2.424 . S
O545 C530 1.268 . S
O546 Nd521 2.500 . S
O546 C531 1.258 1_556 S
O547 Nd521 2.492 1_554 S
O547 C531 1.239 . S
O548 Nd521 2.487 1_554 S
O548 C538 1.241 1_545 S
O549 Nd520 2.414 1_565 S
O549 Nd521 2.682 1_565 S
O549 C538 1.273 1_556 S
O550 Nd521 2.410 . S
O550 C539 1.251 . S
O551 Nd520 2.424 . S
O551 C539 1.268 . S
H552 C524 0.930 . S
H553 C525 0.929 . S
H554 C527 0.930 . S
H555 C528 0.929 . S
H556 C533 0.930 . S
H557 C534 0.929 . S
H558 C536 0.930 . S
H559 C537 0.929 . S
Nd560 C562 2.836 . S
Nd560 O580 2.500 . S
Nd560 O581 2.492 . S
Nd560 O582 2.486 1_554 S
Nd560 O583 2.682 1_554 S
Nd560 O584 2.410 1_554 S
Nd560 O589 2.414 1_554 S
Nd560 O591 2.424 . S
Nd561 C571 2.836 . S
Nd561 O583 2.414 . S
Nd561 O585 2.424 . S
Nd561 O586 2.500 . S
Nd561 O587 2.492 . S
Nd561 O588 2.487 . S
Nd561 O589 2.682 . S
Nd561 O590 2.410 . S
C562 Nd560 2.836 . S
C562 C563 1.498 . S
C562 O580 1.258 . S
C562 O581 1.239 . S
C563 C562 1.498 . S
C563 C564 1.366 . S
C563 C568 1.407 . S
C564 C563 1.366 . S
C564 C565 1.392 . S
C564 H592 0.930 . S
C565 C564 1.392 . S
C565 C566 1.398 . S
C565 H593 0.929 . S
C566 C565 1.398 . S
C566 C567 1.352 . S
C567 C566 1.352 . S
C567 C568 1.384 . S
C567 H594 0.930 . S
C568 C563 1.407 . S
C568 C567 1.384 . S
C568 H595 0.929 . S
C569 O582 1.252 . S
C569 O583 1.273 . S
C570 O584 1.251 . S
C570 O585 1.268 . S
C571 Nd561 2.836 . S
C571 C572 1.498 . S
C571 O586 1.258 . S
C571 O587 1.239 . S
C572 C571 1.498 . S
C572 C573 1.366 . S
C572 C577 1.407 . S
C573 C572 1.366 . S
C573 C574 1.392 . S
C573 H596 0.930 . S
C574 C573 1.392 . S
C574 C575 1.398 . S
C574 H597 0.929 . S
C575 C574 1.398 . S
C575 C576 1.352 . S
C576 C575 1.352 . S
C576 C577 1.384 . S
C576 H598 0.930 . S
C577 C572 1.407 . S
C577 C576 1.384 . S
C577 H599 0.929 . S
C578 O588 1.241 . S
C578 O589 1.273 . S
C579 O590 1.251 . S
C579 O591 1.268 1_556 S
O580 Nd560 2.500 . S
O580 C562 1.258 . S
O581 Nd560 2.492 . S
O581 C562 1.239 . S
O582 Nd560 2.486 1_556 S
O582 C569 1.252 . S
O583 Nd560 2.682 1_556 S
O583 Nd561 2.414 . S
O583 C569 1.273 . S
O584 Nd560 2.410 1_556 S
O584 C570 1.251 . S
O585 Nd561 2.424 . S
O585 C570 1.268 . S
O586 Nd561 2.500 . S
O586 C571 1.258 . S
O587 Nd561 2.492 . S
O587 C571 1.239 . S
O588 Nd561 2.487 . S
O588 C578 1.241 . S
O589 Nd560 2.414 1_556 S
O589 Nd561 2.682 . S
O589 C578 1.273 . S
O590 Nd561 2.410 . S
O590 C579 1.251 . S
O591 Nd560 2.424 . S
O591 C579 1.268 1_554 S
H592 C564 0.930 . S
H593 C565 0.929 . S
H594 C567 0.930 . S
H595 C568 0.929 . S
H596 C573 0.930 . S
H597 C574 0.929 . S
H598 C576 0.930 . S
H599 C577 0.929 . S
Nd600 C602 2.836 1_455 S
Nd600 O620 2.500 1_455 S
Nd600 O621 2.492 1_455 S
Nd600 O622 2.487 . S
Nd600 O623 2.682 . S
Nd600 O624 2.410 1_455 S
Nd600 O629 2.414 . S
Nd600 O631 2.424 . S
Nd601 C611 2.836 . S
Nd601 O623 2.414 1_554 S
Nd601 O625 2.424 1_454 S
Nd601 O626 2.500 . S
Nd601 O627 2.492 . S
Nd601 O628 2.487 . S
Nd601 O629 2.682 1_554 S
Nd601 O630 2.410 1_554 S
C602 Nd600 2.836 1_655 S
C602 C603 1.498 . S
C602 O620 1.258 . S
C602 O621 1.239 . S
C603 C602 1.498 . S
C603 C604 1.366 . S
C603 C608 1.407 . S
C604 C603 1.366 . S
C604 C605 1.392 . S
C604 H632 0.930 . S
C605 C604 1.392 . S
C605 C606 1.398 . S
C605 H633 0.929 . S
C606 C605 1.398 . S
C606 C607 1.352 . S
C607 C606 1.352 . S
C607 C608 1.384 . S
C607 H634 0.930 . S
C608 C603 1.407 . S
C608 C607 1.384 . S
C608 H635 0.929 . S
C609 O622 1.241 . S
C609 O623 1.273 . S
C610 O624 1.251 . S
C610 O625 1.268 . S
C611 Nd601 2.836 . S
C611 C612 1.498 . S
C611 O626 1.258 . S
C611 O627 1.239 . S
C612 C611 1.498 . S
C612 C613 1.366 . S
C612 C617 1.407 . S
C613 C612 1.366 . S
C613 C614 1.392 . S
C613 H636 0.930 . S
C614 C613 1.392 . S
C614 C615 1.398 . S
C614 H637 0.929 . S
C615 C614 1.398 . S
C615 C616 1.352 . S
C616 C615 1.352 . S
C616 C617 1.384 . S
C616 H638 0.930 . S
C617 C612 1.407 . S
C617 C616 1.384 . S
C617 H639 0.929 . S
C618 O628 1.241 1_556 S
C618 O629 1.273 . S
C619 O630 1.251 . S
C619 O631 1.268 . S
O620 Nd600 2.500 1_655 S
O620 C602 1.258 . S
O621 Nd600 2.492 1_655 S
O621 C602 1.239 . S
O622 Nd600 2.487 . S
O622 C609 1.241 . S
O623 Nd600 2.682 . S
O623 Nd601 2.414 1_556 S
O623 C609 1.273 . S
O624 Nd600 2.410 1_655 S
O624 C610 1.251 . S
O625 Nd601 2.424 1_656 S
O625 C610 1.268 . S
O626 Nd601 2.500 . S
O626 C611 1.258 . S
O627 Nd601 2.492 . S
O627 C611 1.239 . S
O628 Nd601 2.487 . S
O628 C618 1.241 1_554 S
O629 Nd600 2.414 . S
O629 Nd601 2.682 1_556 S
O629 C618 1.273 . S
O630 Nd601 2.410 1_556 S
O630 C619 1.251 . S
O631 Nd600 2.424 . S
O631 C619 1.268 . S
H632 C604 0.930 . S
H633 C605 0.929 . S
H634 C607 0.930 . S
H635 C608 0.929 . S
H636 C613 0.930 . S
H637 C614 0.929 . S
H638 C616 0.930 . S
H639 C617 0.929 . S
C391 C489 2.682 . S
C529 C451 4.879 . S
C578 C241 1.898 . S
C609 C331 2.880 . S
C498 C121 2.829 1_545 S
C211 C538 4.736 1_545 S
C31 C569 1.662 . S
C91 C618 3.119 1_654 S
C499 C301 3.660 1_556 S
C539 C380 4.564 1_556 S
C575 C440 1.035 . S
C260 C619 3.278 1_554 S
C61 C490 3.836 1_655 S
C530 C140 4.276 1_545 S
C566 C200 0.766 . S
C20 C610 3.715 . S
C320 C495 2.924 . S
C361 C535 2.186 . S
C579 C421 5.068 . S
C615 C271 2.454 . S
C80 C486 3.001 . S
C526 C151 2.434 . S
C570 C181 4.992 . S
C1 C606 2.317 . S
