# Generated by pormake.
# Topology anh, (6,3)-cn, num edge types: 1
# Building blocks:
#     Node 0, Type 0, BuildingBlock: VOLQOD_clean_sbu_1, # of connection points: 6
#     Node 1, Type 0, BuildingBlock: VOLQOD_clean_sbu_1, # of connection points: 6
#     Node 2, Type 0, BuildingBlock: VOLQOD_clean_sbu_1, # of connection points: 6
#     Node 3, Type 1, BuildingBlock: KAKCAD_clean_linker_0, # of connection points: 3
#     Node 4, Type 1, BuildingBlock: KAKCAD_clean_linker_0, # of connection points: 3
#     Node 5, Type 1, BuildingBlock: KAKCAD_clean_linker_0, # of connection points: 3
#     Node 6, Type 1, BuildingBlock: KAKCAD_clean_linker_0, # of connection points: 3
#     Node 7, Type 1, BuildingBlock: KAKCAD_clean_linker_0, # of connection points: 3
#     Node 8, Type 1, BuildingBlock: KAKCAD_clean_linker_0, # of connection points: 3
#     Edge 9, Type (0, 1), BuildingBlock: UVAHIK_clean_linker_0, # of connection points: 2
#     Edge 10, Type (0, 1), BuildingBlock: UVAHIK_clean_linker_0, # of connection points: 2
#     Edge 11, Type (0, 1), BuildingBlock: UVAHIK_clean_linker_0, # of connection points: 2
#     Edge 12, Type (0, 1), BuildingBlock: UVAHIK_clean_linker_0, # of connection points: 2
#     Edge 13, Type (0, 1), BuildingBlock: UVAHIK_clean_linker_0, # of connection points: 2
#     Edge 14, Type (0, 1), BuildingBlock: UVAHIK_clean_linker_0, # of connection points: 2
#     Edge 15, Type (0, 1), BuildingBlock: UVAHIK_clean_linker_0, # of connection points: 2
#     Edge 16, Type (0, 1), BuildingBlock: UVAHIK_clean_linker_0, # of connection points: 2
#     Edge 17, Type (0, 1), BuildingBlock: UVAHIK_clean_linker_0, # of connection points: 2
#     Edge 18, Type (0, 1), BuildingBlock: UVAHIK_clean_linker_0, # of connection points: 2
#     Edge 19, Type (0, 1), BuildingBlock: UVAHIK_clean_linker_0, # of connection points: 2
#     Edge 20, Type (0, 1), BuildingBlock: UVAHIK_clean_linker_0, # of connection points: 2
#     Edge 21, Type (0, 1), BuildingBlock: UVAHIK_clean_linker_0, # of connection points: 2
#     Edge 22, Type (0, 1), BuildingBlock: UVAHIK_clean_linker_0, # of connection points: 2
#     Edge 23, Type (0, 1), BuildingBlock: UVAHIK_clean_linker_0, # of connection points: 2
#     Edge 24, Type (0, 1), BuildingBlock: UVAHIK_clean_linker_0, # of connection points: 2
#     Edge 25, Type (0, 1), BuildingBlock: UVAHIK_clean_linker_0, # of connection points: 2
#     Edge 26, Type (0, 1), BuildingBlock: UVAHIK_clean_linker_0, # of connection points: 2
# Relax obj value: 0.167
# Max RMSD: 0.230
# Mean RMSD: 0.114
data_MOF--net-anh--node1-VOLQOD_clean_sbu_1--node2-KAKCAD_clean_linker_0--edge1-UVAHIK_clean_linker_0
_symmetry_space_group_name_H-M    P1
_symmetry_Int_Tables_number       1
_symmetry_cell_setting            triclinic
loop_
_symmetry_equiv_pos_as_xyz
'x, y, z'
_cell_length_a     42.738488
_cell_length_b     42.736451
_cell_length_c     91.954881
_cell_angle_alpha  90.167976
_cell_angle_beta   89.860089
_cell_angle_gamma 120.11921
loop_
_atom_site_label
_atom_site_type_symbol
_atom_site_fract_x
_atom_site_fract_y
_atom_site_fract_z
_atom_type_partial_charge
O0 O 0.00301 0.54647 0.19535 0.0
Zn1 Zn 0.00577 0.5587 0.17407 0.0
O2 O 0.01549 0.52664 0.16209 0.0
Zn3 Zn 0.97801 0.50338 0.14733 0.0
Zn4 Zn 0.01537 0.48984 0.17454 0.0
Zn5 Zn 0.06249 0.5541 0.15248 0.0
O6 O -0.00156 0.51524 0.12712 0.0
O7 O 0.05702 0.55277 0.13069 0.0
O8 O 0.95903 0.55604 0.16846 0.0
O9 O 0.94193 0.52014 0.14907 0.0
O10 O 0.95024 0.44931 0.14977 0.0
O11 O 0.97334 0.44072 0.16994 0.0
O12 O 0.06023 0.48713 0.17158 0.0
O13 O 0.04581 0.61016 0.17186 0.0
O14 O 0.09463 0.53328 0.15707 0.0
O15 O 0.08696 0.60651 0.15829 0.0
C16 C 0.00707 0.52304 0.20231 0.0
C17 C 0.03015 0.53581 0.12219 0.0
C18 C 0.95065 0.42847 0.15954 0.0
C19 C 0.93718 0.54018 0.15801 0.0
C20 C 0.08953 0.50612 0.1646 0.0
C21 C 0.07656 0.62501 0.1656 0.0
O22 O 0.01271 0.50012 0.1957 0.0
O23 O 0.4652 -0.00083 0.46161 0.0
Zn24 Zn 0.45747 -0.00145 0.48331 0.0
O25 O 0.49093 0.98726 0.49358 0.0
Zn26 Zn 0.52251 0.02724 0.50631 0.0
Zn27 Zn 0.5206 0.97883 0.47965 0.0
Zn28 Zn 0.46348 0.94422 0.50535 0.0
O29 O 0.51535 0.01291 0.52741 0.0
O30 O 0.47342 0.95474 0.52665 0.0
O31 O 0.46537 0.04769 0.48907 0.0
O32 O 0.51209 0.06748 0.50414 0.0
O33 O 0.57482 0.04835 0.50096 0.0
O34 O 0.57317 0.01702 0.48142 0.0
O35 O 0.51656 0.93019 0.48249 0.0
O36 O 0.40529 0.96083 0.4873 0.0
O37 O 0.47628 0.90653 0.50031 0.0
O38 O 0.41029 0.92273 0.50216 0.0
C39 C 0.48447 0.99085 0.45369 0.0
C40 C 0.49471 0.98309 0.53379 0.0
C41 C 0.59078 0.04235 0.49054 0.0
C42 C 0.48903 0.07221 0.49725 0.0
C43 C 0.49752 0.90435 0.49118 0.0
C44 C 0.39096 0.93206 0.49492 0.0
O45 O 0.50576 0.98144 0.45925 0.0
O46 O 0.47427 0.47946 0.80375 0.0
Zn47 Zn 0.4635 0.46346 0.82469 0.0
O48 O 0.50297 0.49596 0.83766 0.0
Zn49 Zn 0.48495 0.51588 0.85241 0.0
Zn50 Zn 0.54018 0.53526 0.82619 0.0
Zn51 Zn 0.52371 0.46993 0.84734 0.0
O52 O 0.4944 0.50516 0.87266 0.0
O53 O 0.51821 0.47008 0.86908 0.0
O54 O 0.41654 0.46064 0.8303 0.0
O55 O 0.43132 0.49411 0.85038 0.0
O56 O 0.50665 0.56971 0.85014 0.0
O57 O 0.54361 0.58243 0.8313 0.0
O58 O 0.5887 0.54016 0.82936 0.0
O59 O 0.45622 0.41322 0.82561 0.0
O60 O 0.57713 0.49289 0.84307 0.0
O61 O 0.49844 0.41799 0.841 0.0
C62 C 0.50202 0.50491 0.79755 0.0
C63 C 0.50686 0.48579 0.87758 0.0
C64 C 0.52917 0.59227 0.84106 0.0
C65 C 0.40793 0.47361 0.84107 0.0
C66 C 0.59926 0.52109 0.83603 0.0
C67 C 0.47203 0.39926 0.83249 0.0
O68 O 0.5294 0.52744 0.80486 0.0
C69 C 0.5223 0.05931 0.29121 0.0
C70 C 0.50321 0.02548 0.29815 0.0
C71 C 0.52443 0.06152 0.27604 0.0
C72 C 0.50721 0.02998 0.26754 0.0
C73 C 0.48879 -0.00379 0.27444 0.0
C74 C 0.48699 0.99396 0.28957 0.0
C75 C 0.50711 0.03206 0.25149 0.0
C76 C 0.53928 0.05299 0.24373 0.0
C77 C 0.53899 0.05406 0.22846 0.0
C78 C 0.50608 0.03389 0.22101 0.0
C79 C 0.47353 0.01328 0.22865 0.0
C80 C 0.47442 0.01276 0.24391 0.0
C81 C 0.43856 0.99228 0.22081 0.0
C82 C 0.43149 0.00561 0.20798 0.0
C83 C 0.4117 0.95864 0.22625 0.0
C84 C 0.37847 0.93924 0.21925 0.0
C85 C 0.37162 0.9526 0.20649 0.0
C86 C 0.57282 0.07707 0.22028 0.0
C87 C 0.59681 0.11248 0.22499 0.0
C88 C 0.5807 0.06441 0.20744 0.0
C89 C 0.61155 0.08703 0.1993 0.0
C90 C 0.63497 0.12278 0.20383 0.0
C91 C 0.62754 0.13508 0.21686 0.0
C92 C 0.39839 0.98568 0.20078 0.0
H93 H 0.5348 0.08415 0.29747 0.0
H94 H 0.53858 0.08789 0.27094 0.0
H95 H 0.47575 0.97146 0.26811 0.0
H96 H 0.47286 0.96743 0.29453 0.0
H97 H 0.56461 0.06783 0.24958 0.0
H98 H 0.44949 -0.00213 0.25002 0.0
H99 H 0.50586 0.03453 0.20924 0.0
H100 H 0.45127 0.03162 0.20357 0.0
H101 H 0.41639 0.94697 0.23585 0.0
H102 H 0.35826 0.91338 0.22366 0.0
H103 H 0.59135 0.12309 0.23478 0.0
H104 H 0.5629 0.03706 0.20363 0.0
H105 H 0.39349 -0.00373 0.19089 0.0
H106 H 0.64542 0.16233 0.22074 0.0
H107 H 0.61655 0.07687 0.18928 0.0
C108 C 0.5121 0.53714 0.63237 0.0
C109 C 0.53286 0.52933 0.64192 0.0
C110 C 0.5171 0.53716 0.61735 0.0
C111 C 0.54262 0.52891 0.61162 0.0
C112 C 0.56335 0.52107 0.62117 0.0
C113 C 0.55866 0.52148 0.63618 0.0
C114 C 0.54726 0.52787 0.5957 0.0
C115 C 0.55048 0.55604 0.58683 0.0
C116 C 0.55499 0.555 0.57176 0.0
C117 C 0.55576 0.52548 0.56553 0.0
C118 C 0.5513 0.49657 0.57418 0.0
C119 C 0.54756 0.49813 0.58929 0.0
C120 C 0.54738 0.46361 0.56715 0.0
C121 C 0.51835 0.42946 0.57092 0.0
C122 C 0.57071 0.4663 0.55583 0.0
C123 C 0.56458 0.4355 0.54815 0.0
C124 C 0.53485 0.40152 0.5516 0.0
C125 C 0.55591 0.58307 0.56222 0.0
C126 C 0.52656 0.58912 0.5621 0.0
C127 C 0.58452 0.60166 0.55235 0.0
C128 C 0.58361 0.62582 0.5424 0.0
C129 C 0.55365 0.63089 0.54197 0.0
C130 C 0.52528 0.61262 0.55195 0.0
C131 C 0.51208 0.39871 0.56318 0.0
H132 H 0.49218 0.54347 0.63653 0.0
H133 H 0.50058 0.54302 0.6102 0.0
H134 H 0.58334 0.51483 0.61702 0.0
H135 H 0.57482 0.51508 0.64331 0.0
H136 H 0.5498 0.5789 0.59162 0.0
H137 H 0.54406 0.47581 0.59602 0.0
H138 H 0.55768 0.5241 0.55381 0.0
H139 H 0.49972 0.42669 0.5795 0.0
H140 H 0.59337 0.49232 0.55276 0.0
H141 H 0.58248 0.43845 0.53924 0.0
H142 H 0.50408 0.57472 0.56953 0.0
H143 H 0.60731 0.59716 0.55227 0.0
H144 H 0.48924 0.37275 0.56618 0.0
H145 H 0.50208 0.61648 0.55183 0.0
H146 H 0.60575 0.6398 0.53479 0.0
C147 C 0.09456 0.60977 0.95987 0.0
C148 C 0.06223 0.59795 0.96768 0.0
C149 C 0.09514 0.61312 0.94473 0.0
C150 C 0.06336 0.6046 0.93708 0.0
C151 C 0.0313 0.5937 0.94496 0.0
C152 C 0.03079 0.59061 0.96006 0.0
C153 C 0.06282 0.60481 0.92091 0.0
C154 C 0.08165 0.59144 0.91289 0.0
C155 C 0.07787 0.58757 0.89774 0.0
C156 C 0.05503 0.59715 0.89054 0.0
C157 C 0.03633 0.61104 0.89831 0.0
C158 C 0.041 0.61544 0.91345 0.0
C159 C 0.00965 0.61793 0.89079 0.0
C160 C 0.01615 0.63222 0.87662 0.0
C161 C 0.97625 0.60787 0.89743 0.0
C162 C 0.94965 0.61104 0.88996 0.0
C163 C 0.95566 0.62403 0.87563 0.0
C164 C 0.0965 0.57188 0.88952 0.0
C165 C 0.13358 0.58516 0.89162 0.0
C166 C 0.07726 0.54322 0.87972 0.0
C167 C 0.09477 0.52784 0.87225 0.0
C168 C 0.13189 0.54122 0.87432 0.0
C169 C 0.15116 0.57011 0.88402 0.0
C170 C 0.98931 0.63503 0.86908 0.0
H171 H 0.11923 0.61546 0.96539 0.0
H172 H 0.12038 0.62198 0.93901 0.0
H173 H 0.00618 0.58642 0.93945 0.0
H174 H 0.00557 0.58208 0.96575 0.0
H175 H 0.09787 0.58225 0.91848 0.0
H176 H 0.02712 0.62666 0.91951 0.0
H177 H 0.05125 0.59296 0.8789 0.0
H178 H 0.04178 0.64075 0.87127 0.0
H179 H 0.96994 0.59606 0.9082 0.0
H180 H 0.92373 0.60175 0.89519 0.0
H181 H 0.14898 0.60729 0.89909 0.0
H182 H 0.04855 0.53232 0.87802 0.0
H183 H -0.00533 0.64539 0.85806 0.0
H184 H 0.17973 0.58063 0.88593 0.0
H185 H 0.07937 0.50563 0.86481 0.0
C186 C 0.95964 0.50247 0.36555 0.0
C187 C -0.00631 0.51857 0.35878 0.0
C188 C 0.95685 0.49983 0.38068 0.0
C189 C 0.98808 0.51368 0.38932 0.0
C190 C 0.02217 0.53015 0.38257 0.0
C191 C 0.02494 0.53233 0.36741 0.0
C192 C 0.98491 0.51071 0.40535 0.0
C193 C 0.96094 0.47747 0.41186 0.0
C194 C 0.95708 0.47427 0.42707 0.0
C195 C 0.97727 0.5052 0.43573 0.0
C196 C 0.00183 0.53839 0.42933 0.0
C197 C 0.00573 0.54095 0.41417 0.0
C198 C 0.02429 0.57036 0.43846 0.0
C199 C 0.00827 0.5845 0.44774 0.0
C200 C 0.06209 0.58728 0.43766 0.0
C201 C 0.08366 0.61791 0.44604 0.0
C202 C 0.06777 0.63252 0.45514 0.0
C203 C 0.93296 0.43837 0.43378 0.0
C204 C 0.90014 0.41364 0.42706 0.0
C205 C 0.94326 0.42784 0.44657 0.0
C206 C 0.92158 0.39319 0.45232 0.0
C207 C 0.88949 0.36827 0.44527 0.0
C208 C 0.87881 0.37891 0.43269 0.0
C209 C 0.02992 0.61571 0.45591 0.0
H210 H 0.93513 0.49142 0.35913 0.0
H211 H 0.93027 0.48721 0.38565 0.0
H212 H 0.04663 0.54086 0.389 0.0
H213 H 0.05151 0.54504 0.36243 0.0
H214 H 0.94613 0.45383 0.40501 0.0
H215 H 0.02444 0.56673 0.40923 0.0
H216 H 0.97439 0.50347 0.44746 0.0
H217 H 0.97911 0.57181 0.44844 0.0
H218 H 0.07491 0.5767 0.43057 0.0
H219 H 0.11282 0.63065 0.44521 0.0
H220 H 0.89091 0.42104 0.41741 0.0
H221 H 0.96857 0.44596 0.45193 0.0
H222 H 0.01719 0.62662 0.46287 0.0
H223 H 0.8538 0.36036 0.42721 0.0
H224 H 0.9304 0.38552 0.46202 0.0
C225 C 0.44944 0.93237 0.69728 0.0
C226 C 0.47265 0.96506 0.69008 0.0
C227 C 0.44602 0.93144 0.71242 0.0
C228 C 0.46525 0.96325 0.72061 0.0
C229 C 0.48872 -0.00424 0.71352 0.0
C230 C 0.49264 -0.00338 0.69844 0.0
C231 C 0.4605 0.96296 0.73653 0.0
C232 C 0.46608 0.93948 0.74535 0.0
C233 C 0.46378 0.94088 0.76057 0.0
C234 C 0.45492 0.96548 0.76682 0.0
C235 C 0.4492 0.98907 0.75812 0.0
C236 C 0.45193 0.9875 0.74296 0.0
C237 C 0.44275 0.01684 0.76494 0.0
C238 C 0.42075 0.00874 0.77736 0.0
C239 C 0.46022 0.05232 0.75949 0.0
C240 C 0.45667 0.07929 0.76653 0.0
C241 C 0.43587 0.07154 0.77928 0.0
C242 C 0.47207 0.91785 0.77001 0.0
C243 C 0.46005 0.88167 0.76628 0.0
C244 C 0.49221 0.93202 0.78284 0.0
C245 C 0.49975 0.91041 0.79184 0.0
C246 C 0.48762 0.87418 0.78816 0.0
C247 C 0.46782 0.86011 0.77523 0.0
C248 C 0.41739 0.03583 0.78447 0.0
H249 H 0.43323 0.90763 0.69122 0.0
H250 H 0.42763 0.90609 0.7177 0.0
H251 H 0.50422 0.02054 0.71967 0.0
H252 H 0.51147 0.02209 0.69337 0.0
H253 H 0.47375 0.9213 0.74036 0.0
H254 H 0.44733 0.00538 0.73608 0.0
H255 H 0.45328 0.96684 0.77854 0.0
H256 H 0.40652 0.98153 0.7817 0.0
H257 H 0.47765 0.05961 0.75004 0.0
H258 H 0.47071 0.1064 0.76209 0.0
H259 H 0.44431 0.86987 0.75652 0.0
H260 H 0.50246 0.95998 0.78591 0.0
H261 H 0.40126 0.02902 0.7943 0.0
H262 H 0.45856 0.83248 0.77194 0.0
H263 H 0.51477 0.92204 0.80177 0.0
C264 C 0.4866 0.39958 0.03903 0.0
C265 C 0.4676 0.41309 0.03127 0.0
C266 C 0.48224 0.39456 0.05408 0.0
C267 C 0.45892 0.40311 0.0617 0.0
C268 C 0.43918 0.41561 0.05384 0.0
C269 C 0.4433 0.42032 0.03883 0.0
C270 C 0.4569 0.40156 0.07786 0.0
C271 C 0.48844 0.41344 0.08616 0.0
C272 C 0.48764 0.41662 0.10132 0.0
C273 C 0.455 0.4078 0.10825 0.0
C274 C 0.42304 0.39541 0.10019 0.0
C275 C 0.42413 0.3916 0.08504 0.0
C276 C 0.38957 0.39005 0.10743 0.0
C277 C 0.38052 0.37584 0.12159 0.0
C278 C 0.368 0.40199 0.10063 0.0
C279 C 0.33898 0.40101 0.10799 0.0
C280 C 0.33106 0.38843 0.12236 0.0
C281 C 0.52146 0.43136 0.10982 0.0
C282 C 0.5448 0.41753 0.10784 0.0
C283 C 0.53101 0.45993 0.11968 0.0
C284 C 0.56367 0.47481 0.12727 0.0
C285 C 0.58708 0.46104 0.12525 0.0
C286 C 0.57723 0.43209 0.11555 0.0
C287 C 0.35168 0.37529 0.12903 0.0
H288 H 0.50567 0.39388 0.03356 0.0
H289 H 0.49755 0.38448 0.05976 0.0
H290 H 0.42135 0.42299 0.05933 0.0
H291 H 0.4277 0.43009 0.03317 0.0
H292 H 0.51413 0.42223 0.08079 0.0
H293 H 0.3995 0.38158 0.07876 0.0
H294 H 0.45484 0.41165 0.11989 0.0
H295 H 0.39619 0.36586 0.12706 0.0
H296 H 0.37451 0.41376 0.08986 0.0
H297 H 0.32387 0.41184 0.10266 0.0
H298 H 0.53795 0.39545 0.10032 0.0
H299 H 0.51357 0.47127 0.12129 0.0
H300 H 0.34588 0.36516 0.14007 0.0
H301 H 0.59502 0.42127 0.11367 0.0
H302 H 0.57066 0.49707 0.1347 0.0
C303 C 0.14928 0.51416 0.15659 0.0
C304 C 0.11694 0.49463 0.16448 0.0
C305 C 0.17326 0.50107 0.15528 0.0
C306 C 0.22636 0.47387 0.1593 0.0
H307 H 0.18178 0.37333 0.14738 0.0
C308 C 0.31176 0.40885 0.14438 0.0
C309 C 0.30339 0.39216 0.13064 0.0
C310 C 0.28799 0.41769 0.15121 0.0
C311 C 0.19457 0.40136 0.15079 0.0
H312 H 0.08531 0.4469 0.17779 0.0
H313 H 0.12717 0.4242 0.17544 0.0
H314 H 0.14372 0.39839 0.15449 0.0
H315 H 0.26282 0.36953 0.11369 0.0
H316 H 0.2212 0.38488 0.12563 0.0
H317 H 0.27719 0.47718 0.15507 0.0
C318 C 0.13373 0.44941 0.17016 0.0
C319 C 0.17284 0.41564 0.15497 0.0
C320 C 0.10986 0.46254 0.17153 0.0
C321 C 0.26996 0.38259 0.12424 0.0
C322 C 0.24608 0.39115 0.13113 0.0
C323 C 0.24811 0.45951 0.15523 0.0
C324 C 0.1653 0.46816 0.16179 0.0
C325 C 0.18852 0.45223 0.15896 0.0
C326 C 0.25532 0.40968 0.14448 0.0
C327 C 0.23238 0.42333 0.15063 0.0
H328 H 0.15561 0.53899 0.15105 0.0
H329 H 0.19728 0.51596 0.14866 0.0
H330 H 0.23913 0.50208 0.16245 0.0
H331 H 0.33749 0.41676 0.1495 0.0
H332 H 0.2956 0.43171 0.16157 0.0
C333 C 0.64672 0.06561 0.47529 0.0
C334 C 0.6297 0.06804 0.48799 0.0
C335 C 0.6812 0.09352 0.47151 0.0
C336 C 0.76145 0.1781 0.48444 0.0
H337 H 0.76104 0.2109 0.44521 0.0
C338 C 0.85636 0.32497 0.46552 0.0
C339 C 0.86709 0.33106 0.45089 0.0
C340 C 0.83255 0.28993 0.47044 0.0
C341 C 0.76217 0.20185 0.45608 0.0
H342 H 0.6369 0.10025 0.50734 0.0
H343 H 0.69687 0.14894 0.50068 0.0
H344 H 0.71116 0.15359 0.45336 0.0
H345 H 0.86353 0.3054 0.43013 0.0
H346 H 0.82281 0.24416 0.43874 0.0
H347 H 0.81227 0.22695 0.48721 0.0
C348 C 0.6836 0.12547 0.49364 0.0
C349 C 0.73346 0.16888 0.46076 0.0
C350 C 0.64908 0.09762 0.49741 0.0
C351 C 0.85509 0.30142 0.44142 0.0
C352 C 0.83171 0.2664 0.44636 0.0
C353 C 0.79042 0.21109 0.47971 0.0
C354 C 0.69941 0.12434 0.48039 0.0
C355 C 0.73242 0.15694 0.47506 0.0
C356 C 0.81937 0.26028 0.46083 0.0
C357 C 0.79076 0.22367 0.46555 0.0
H358 H 0.63274 0.04305 0.46785 0.0
H359 H 0.69302 0.09167 0.46134 0.0
H360 H 0.76147 0.16942 0.49549 0.0
H361 H 0.86519 0.34746 0.47301 0.0
H362 H 0.82331 0.28633 0.48161 0.0
C363 C 0.55476 0.6527 0.82917 0.0
C364 C 0.53582 0.62973 0.84084 0.0
C365 C 0.55597 0.68569 0.82752 0.0
C366 C 0.50092 0.72656 0.8368 0.0
H367 H 0.5759 0.80678 0.815 0.0
C368 C 0.52946 0.8653 0.80459 0.0
C369 C 0.49563 0.85115 0.79772 0.0
C370 C 0.53731 0.84319 0.81318 0.0
C371 C 0.5549 0.78504 0.82134 0.0
H372 H 0.50604 0.6249 0.86065 0.0
H373 H 0.50894 0.68305 0.85796 0.0
H374 H 0.58791 0.76136 0.82511 0.0
H375 H 0.44308 0.80297 0.79498 0.0
H376 H 0.45723 0.76416 0.80934 0.0
H377 H 0.46796 0.75029 0.83309 0.0
C378 C 0.52195 0.675 0.84984 0.0
C379 C 0.56166 0.75871 0.82699 0.0
C380 C 0.52045 0.64175 0.85143 0.0
C381 C 0.46961 0.81461 0.79989 0.0
C382 C 0.47754 0.79249 0.80837 0.0
C383 C 0.49431 0.7531 0.8313 0.0
C384 C 0.53859 0.69675 0.83759 0.0
C385 C 0.53426 0.72839 0.83427 0.0
C386 C 0.51158 0.8064 0.81503 0.0
C387 C 0.52071 0.78186 0.823 0.0
H388 H 0.56704 0.64439 0.82083 0.0
H389 H 0.56868 0.70141 0.81785 0.0
H390 H 0.47905 0.70357 0.84228 0.0
H391 H 0.55025 0.89327 0.80306 0.0
H392 H 0.56366 0.85487 0.81825 0.0
C393 C 0.88603 0.53508 0.14318 0.0
C394 C 0.90483 0.54389 0.15644 0.0
C395 C 0.85396 0.53588 0.14189 0.0
C396 C 0.77683 0.52112 0.16314 0.0
H397 H 0.75192 0.55471 0.12829 0.0
C398 C 0.63402 0.45562 0.13935 0.0
C399 C 0.62241 0.47758 0.13273 0.0
C400 C 0.66886 0.47084 0.14505 0.0
C401 C 0.75858 0.54579 0.13822 0.0
H402 H 0.90533 0.56145 0.17865 0.0
H403 H 0.84855 0.56209 0.17643 0.0
H404 H 0.81459 0.57066 0.13246 0.0
H405 H 0.63745 0.53274 0.12737 0.0
H406 H 0.69872 0.55943 0.13725 0.0
H407 H 0.72048 0.49478 0.16856 0.0
C408 C 0.85896 0.55482 0.16705 0.0
C409 C 0.79436 0.55468 0.14054 0.0
C410 C 0.89142 0.55454 0.16829 0.0
C411 C 0.64573 0.51524 0.13247 0.0
C412 C 0.68077 0.53046 0.13804 0.0
C413 C 0.74095 0.51194 0.16076 0.0
C414 C 0.83978 0.54511 0.15388 0.0
C415 C 0.80359 0.54149 0.15279 0.0
C416 C 0.69287 0.5083 0.14412 0.0
C417 C 0.73135 0.52328 0.14806 0.0
H418 H 0.89578 0.52697 0.13383 0.0
H419 H 0.83948 0.52784 0.13166 0.0
H420 H 0.78321 0.51045 0.17264 0.0
H421 H 0.61641 0.42654 0.1398 0.0
H422 H 0.67758 0.45305 0.14953 0.0
C423 C 0.33586 0.87363 0.50148 0.0
C424 C 0.35123 0.9076 0.49469 0.0
C425 C 0.29907 0.84875 0.50006 0.0
C426 C 0.22399 0.82532 0.47482 0.0
H427 H 0.17133 0.75045 0.50349 0.0
C428 C 0.08858 0.697 0.46137 0.0
C429 C 0.0911 0.66581 0.46345 0.0
C430 C 0.11415 0.72988 0.46763 0.0
C431 C 0.18557 0.77141 0.49545 0.0
H432 H 0.33944 0.94288 0.4818 0.0
H433 H 0.27485 0.89956 0.47956 0.0
H434 H 0.22813 0.80423 0.51025 0.0
H435 H 0.12056 0.64363 0.47427 0.0
H436 H 0.16482 0.70085 0.48547 0.0
H437 H 0.18169 0.79197 0.45995 0.0
C438 C 0.29153 0.89191 0.48571 0.0
C439 C 0.21818 0.80209 0.49927 0.0
C440 C 0.32853 0.9168 0.48705 0.0
C441 C 0.1182 0.66743 0.47253 0.0
C442 C 0.1433 0.70005 0.47899 0.0
C443 C 0.19112 0.79487 0.47106 0.0
C444 C 0.27651 0.85725 0.49192 0.0
C445 C 0.23857 0.82868 0.48882 0.0
C446 C 0.1421 0.73177 0.47629 0.0
C447 C 0.17237 0.76702 0.48118 0.0
H448 H 0.35246 0.86558 0.50747 0.0
H449 H 0.28876 0.82219 0.50479 0.0
H450 H 0.239 0.84497 0.46643 0.0
H451 H 0.06794 0.69632 0.45434 0.0
H452 H 0.11271 0.754 0.4654 0.0
C453 C 0.44039 0.34246 0.81778 0.0
C454 C 0.46031 0.36073 0.8302 0.0
C455 C 0.43205 0.30699 0.81496 0.0
C456 C 0.46574 0.24508 0.82359 0.0
H457 H 0.38196 0.1775 0.80118 0.0
C458 C 0.40274 0.09599 0.79375 0.0
C459 C 0.43494 0.10107 0.78741 0.0
C460 C 0.40228 0.12425 0.80127 0.0
C461 C 0.40521 0.19574 0.80765 0.0
H462 H 0.48504 0.35547 0.84991 0.0
H463 H 0.46952 0.2932 0.84525 0.0
H464 H 0.38521 0.2322 0.81085 0.0
H465 H 0.49208 0.1394 0.7844 0.0
H466 H 0.49102 0.1888 0.79694 0.0
H467 H 0.48558 0.20855 0.82055 0.0
C468 C 0.46135 0.30661 0.83742 0.0
C469 C 0.40731 0.22735 0.81304 0.0
C470 C 0.47015 0.34226 0.84012 0.0
C471 C 0.46668 0.13476 0.78892 0.0
C472 C 0.4662 0.16294 0.79635 0.0
C473 C 0.46347 0.21337 0.81835 0.0
C474 C 0.44301 0.28885 0.82462 0.0
C475 C 0.43811 0.25291 0.8207 0.0
C476 C 0.43402 0.15809 0.8026 0.0
C477 C 0.43375 0.18892 0.80992 0.0
H478 H 0.43247 0.35602 0.80991 0.0
H479 H 0.41838 0.29443 0.80489 0.0
H480 H 0.49003 0.26417 0.82933 0.0
H481 H 0.3778 0.07037 0.79271 0.0
H482 H 0.37712 0.1196 0.80605 0.0
C483 C 0.48126 0.84396 0.50129 0.0
C484 C 0.5011 0.87169 0.49123 0.0
C485 C 0.48633 0.81432 0.50226 0.0
C486 C 0.5545 0.78819 0.49534 0.0
H487 H 0.47596 0.6953 0.50799 0.0
C488 C 0.57717 0.69205 0.53117 0.0
C489 C 0.55157 0.65505 0.53115 0.0
C490 C 0.5725 0.71566 0.52218 0.0
C491 C 0.49825 0.72065 0.50415 0.0
H492 H 0.54087 0.88928 0.47387 0.0
H493 H 0.54941 0.83696 0.47548 0.0
H494 H 0.46272 0.7406 0.49906 0.0
H495 H 0.50276 0.6129 0.5211 0.0
H496 H 0.4953 0.65376 0.50485 0.0
H497 H 0.59004 0.76809 0.50037 0.0
C498 C 0.5303 0.83858 0.48274 0.0
C499 C 0.49064 0.7469 0.49922 0.0
C500 C 0.52528 0.86845 0.4818 0.0
C501 C 0.52254 0.64154 0.52138 0.0
C502 C 0.51824 0.66498 0.51216 0.0
C503 C 0.56212 0.76169 0.50009 0.0
C504 C 0.51119 0.81143 0.49313 0.0
C505 C 0.51876 0.78149 0.49538 0.0
C506 C 0.54243 0.70251 0.51281 0.0
C507 C 0.5342 0.72811 0.50512 0.0
H508 H 0.46241 0.84551 0.50873 0.0
H509 H 0.47167 0.79434 0.51059 0.0
H510 H 0.57683 0.81456 0.49245 0.0
H511 H 0.5997 0.70292 0.53869 0.0
H512 H 0.59143 0.74436 0.52317 0.0
C513 C 0.66341 0.56567 0.82941 0.0
C514 C 0.63827 0.53291 0.83605 0.0
C515 C 0.70045 0.57822 0.83031 0.0
C516 C 0.77472 0.60919 0.84421 0.0
H517 H 0.81382 0.54474 0.8421 0.0
C518 C 0.90336 0.63466 0.87383 0.0
C519 C 0.92565 0.6232 0.86731 0.0
C520 C 0.87171 0.62855 0.86695 0.0
C521 C 0.80351 0.56327 0.84247 0.0
H522 H 0.63234 0.48703 0.8484 0.0
H523 H 0.69698 0.50908 0.85003 0.0
H524 H 0.75092 0.52245 0.8354 0.0
H525 H 0.93344 0.5981 0.84818 0.0
H526 H 0.87809 0.58757 0.8361 0.0
H527 H 0.82708 0.64977 0.85162 0.0
C528 C 0.68799 0.52491 0.84404 0.0
C529 C 0.76739 0.55037 0.8388 0.0
C530 C 0.65095 0.5124 0.84319 0.0
C531 C 0.91682 0.60738 0.85342 0.0
C532 C 0.88502 0.60106 0.84657 0.0
C533 C 0.8108 0.62205 0.84794 0.0
C534 C 0.71313 0.55821 0.8378 0.0
C535 C 0.75241 0.57296 0.83996 0.0
C536 C 0.86167 0.6107 0.85346 0.0
C537 C 0.82531 0.59898 0.84743 0.0
H538 H 0.6546 0.58209 0.82375 0.0
H539 H 0.71921 0.6038 0.82528 0.0
H540 H 0.76387 0.62719 0.84529 0.0
H541 H 0.90974 0.6472 0.88449 0.0
H542 H 0.85415 0.63605 0.87259 0.0
C543 C 0.134 0.68206 0.15954 0.0
C544 C 0.101 0.66447 0.16714 0.0
C545 C 0.15808 0.71887 0.16171 0.0
C546 C 0.18459 0.78635 0.19009 0.0
H547 H 0.2441 0.85346 0.16 0.0
C548 C 0.30453 0.92198 0.2063 0.0
C549 C 0.33679 0.93083 0.19905 0.0
C550 C 0.27139 0.89589 0.20055 0.0
C551 C 0.22773 0.83503 0.16853 0.0
H552 H 0.06671 0.67217 0.18248 0.0
H553 H 0.10898 0.73637 0.18634 0.0
H554 H 0.19343 0.79422 0.15322 0.0
H555 H 0.36026 0.92136 0.17987 0.0
H556 H 0.30253 0.87462 0.17001 0.0
H557 H 0.21967 0.82568 0.20543 0.0
C558 C 0.1162 0.72155 0.17877 0.0
C559 C 0.19871 0.80121 0.16464 0.0
C560 C 0.09202 0.68479 0.17654 0.0
C561 C 0.33551 0.91496 0.18555 0.0
C562 C 0.30239 0.88834 0.1799 0.0
C563 C 0.21369 0.81989 0.19397 0.0
C564 C 0.14972 0.73878 0.17158 0.0
C565 C 0.17737 0.7763 0.17541 0.0
C566 C 0.27005 0.87754 0.18762 0.0
C567 C 0.23612 0.84439 0.18326 0.0
H568 H 0.14164 0.66726 0.15214 0.0
H569 H 0.18391 0.73138 0.15615 0.0
H570 H 0.16895 0.7675 0.19863 0.0
H571 H 0.30511 0.9342 0.21671 0.0
H572 H 0.24696 0.88891 0.20658 0.0
C573 C 0.52281 0.13775 0.50334 0.0
C574 C 0.4905 0.10726 0.4988 0.0
C575 C 0.52438 0.17071 0.50559 0.0
C576 C 0.46917 0.2078 0.51701 0.0
H577 H 0.55255 0.29885 0.50549 0.0
C578 C 0.49179 0.34472 0.53837 0.0
C579 C 0.5272 0.36917 0.54297 0.0
C580 C 0.4845 0.314 0.53035 0.0
C581 C 0.52915 0.27366 0.50883 0.0
H582 H 0.43465 0.08751 0.49273 0.0
H583 H 0.43724 0.14549 0.49705 0.0
H584 H 0.54445 0.24222 0.49559 0.0
H585 H 0.58271 0.38078 0.54281 0.0
H586 H 0.57 0.3269 0.52905 0.0
H587 H 0.4548 0.23891 0.53084 0.0
C588 C 0.46133 0.14364 0.49873 0.0
C589 C 0.52443 0.24133 0.50309 0.0
C590 C 0.4599 0.11061 0.49624 0.0
C591 C 0.55524 0.36257 0.53927 0.0
C592 C 0.54794 0.33179 0.53132 0.0
C593 C 0.47403 0.24015 0.52284 0.0
C594 C 0.49358 0.17387 0.50351 0.0
C595 C 0.49497 0.20808 0.50746 0.0
C596 C 0.51247 0.30707 0.52682 0.0
C597 C 0.50465 0.27335 0.51914 0.0
H598 H 0.54693 0.13609 0.5053 0.0
H599 H 0.54944 0.19347 0.50946 0.0
H600 H 0.44641 0.18247 0.52065 0.0
H601 H 0.46975 0.34949 0.54088 0.0
H602 H 0.45698 0.29573 0.52689 0.0
C603 C 0.34712 0.45548 0.83048 0.0
C604 C 0.37044 0.46629 0.84254 0.0
C605 C 0.31315 0.45267 0.83162 0.0
C606 C 0.24538 0.44799 0.85798 0.0
H607 H 0.23137 0.50845 0.83045 0.0
C608 C 0.18419 0.54668 0.86006 0.0
C609 C 0.15056 0.52466 0.86673 0.0
C610 C 0.20367 0.5315 0.85418 0.0
C611 C 0.23467 0.49111 0.83811 0.0
H612 H 0.37565 0.48041 0.86544 0.0
H613 H 0.31653 0.47529 0.86743 0.0
H614 H 0.27919 0.49403 0.82624 0.0
H615 H 0.11019 0.46945 0.87202 0.0
H616 H 0.14456 0.44281 0.86181 0.0
H617 H 0.20228 0.4468 0.87029 0.0
C618 C 0.32439 0.46903 0.8571 0.0
C619 C 0.2618 0.48259 0.83564 0.0
C620 C 0.35841 0.4723 0.85592 0.0
C621 C 0.13603 0.48699 0.86688 0.0
C622 C 0.15572 0.4718 0.86112 0.0
C623 C 0.2181 0.45628 0.86039 0.0
C624 C 0.30176 0.46001 0.8449 0.0
C625 C 0.26832 0.46215 0.84586 0.0
C626 C 0.19003 0.49401 0.85495 0.0
C627 C 0.21344 0.4791 0.85077 0.0
H628 H 0.35566 0.45065 0.82002 0.0
H629 H 0.29613 0.44558 0.82206 0.0
H630 H 0.24967 0.4319 0.86595 0.0
H631 H 0.1958 0.57577 0.85969 0.0
H632 H 0.23022 0.54936 0.84965 0.0
C633 C 0.89834 0.37487 0.1477 0.0
C634 C 0.92255 0.38973 0.15941 0.0
C635 C 0.86907 0.33956 0.14844 0.0
C636 C 0.82818 0.25515 0.1708 0.0
H637 H 0.73821 0.25039 0.1601 0.0
C638 C 0.67437 0.18343 0.19269 0.0
C639 C 0.66653 0.14771 0.19485 0.0
C640 C 0.70491 0.20772 0.18487 0.0
C641 C 0.7631 0.25119 0.16309 0.0
H642 H 0.93625 0.37837 0.18072 0.0
H643 H 0.88487 0.3175 0.18219 0.0
H644 H 0.79529 0.30233 0.15283 0.0
H645 H 0.68395 0.10905 0.19013 0.0
H646 H 0.73751 0.15168 0.17628 0.0
H647 H 0.79579 0.20519 0.18201 0.0
C648 C 0.88867 0.3327 0.1723 0.0
C649 C 0.7959 0.28078 0.15875 0.0
C650 C 0.91805 0.36784 0.17151 0.0
C651 C 0.68933 0.13644 0.18862 0.0
C652 C 0.72006 0.16086 0.18078 0.0
C653 C 0.79531 0.22563 0.17523 0.0
C654 C 0.86324 0.31848 0.16095 0.0
C655 C 0.82887 0.28378 0.16302 0.0
C656 C 0.72834 0.19688 0.17895 0.0
C657 C 0.76249 0.22409 0.1719 0.0
H658 H 0.90132 0.39085 0.13813 0.0
H659 H 0.85036 0.32919 0.1394 0.0
H660 H 0.85309 0.25629 0.17402 0.0
H661 H 0.65699 0.19275 0.19717 0.0
H662 H 0.71075 0.23539 0.18388 0.0
C663 C 0.00722 0.51962 0.09667 0.0
C664 C 0.03553 0.54113 0.10628 0.0
C665 C 0.01153 0.52579 0.08171 0.0
C666 C 0.08048 0.57092 0.05283 0.0
H667 H -0.00094 0.56377 0.03142 0.0
C668 C 0.08927 0.61599 0.99273 0.0
C669 C 0.06076 0.59203 0.98365 0.0
C670 C 0.08743 0.61026 0.00776 0.0
C671 C 0.02193 0.5656 0.03723 0.0
H672 H 0.09083 0.58567 0.10767 0.0
H673 H 0.0981 0.59685 0.08158 0.0
H674 H -0.00634 0.55264 0.05749 0.0
H675 H 0.00856 0.54257 0.98322 0.0
H676 H 0.00515 0.53304 0.00937 0.0
H677 H 0.1088 0.58435 0.03247 0.0
C678 C 0.07274 0.57484 0.08559 0.0
C679 C 0.01883 0.5591 0.05217 0.0
C680 C 0.0685 0.56852 0.10057 0.0
C681 C 0.03061 0.56206 0.98991 0.0
C682 C 0.02867 0.5565 0.0049 0.0
C683 C 0.08365 0.57766 0.03787 0.0
C684 C 0.04416 0.55378 0.076 0.0
C685 C 0.04793 0.56137 0.06014 0.0
C686 C 0.05696 0.5806 0.01398 0.0
C687 C 0.05429 0.57476 0.02992 0.0
H688 H 0.98156 0.49808 0.10069 0.0
H689 H 0.98922 0.50856 0.07462 0.0
H690 H 0.10328 0.57252 0.05861 0.0
H691 H 0.11273 0.63952 0.98828 0.0
H692 H 0.1095 0.62942 0.01453 0.0
C693 C 0.4684 0.01262 0.43117 0.0
C694 C 0.483 0.99305 0.43769 0.0
C695 C 0.46879 0.01612 0.41605 0.0
C696 C 0.47327 0.97373 0.38209 0.0
H697 H 0.51142 0.06929 0.36532 0.0
C698 C 0.46702 -0.00327 0.32071 0.0
C699 C 0.49959 0.0229 0.31425 0.0
C700 C 0.46374 0.99347 0.33581 0.0
C701 C 0.50075 0.04249 0.36988 0.0
H702 H 0.50866 0.96111 0.43347 0.0
H703 H 0.50881 0.96685 0.4071 0.0
H704 H 0.50716 0.06205 0.39178 0.0
H705 H 0.55418 0.06641 0.31867 0.0
H706 H 0.54807 0.06114 0.3451 0.0
H707 H 0.46699 0.95415 0.36023 0.0
C708 C 0.49723 0.97955 0.41369 0.0
C709 C 0.49803 0.03831 0.38497 0.0
C710 C 0.49728 0.97645 0.42878 0.0
C711 C 0.52857 0.04626 0.32327 0.0
C712 C 0.52514 0.04322 0.3384 0.0
C713 C 0.47556 0.97784 0.36701 0.0
C714 C 0.48329 -0.00033 0.40719 0.0
C715 C 0.48455 0.00393 0.39121 0.0
C716 C 0.4928 0.01657 0.34478 0.0
C717 C 0.48957 0.01228 0.36077 0.0
H718 H 0.45729 0.0258 0.43774 0.0
H719 H 0.45766 0.03157 0.41127 0.0
H720 H 0.4626 0.94692 0.38664 0.0
H721 H 0.44386 0.97884 0.31412 0.0
H722 H 0.43834 0.97303 0.34047 0.0
C723 C 0.53516 0.53233 0.77436 0.0
C724 C 0.50276 0.50838 0.78152 0.0
C725 C 0.5362 0.53551 0.75925 0.0
C726 C 0.48687 0.4874 0.72598 0.0
H727 H 0.54863 0.58081 0.7081 0.0
C728 C 0.49246 0.51046 0.66381 0.0
C729 C 0.52745 0.52894 0.65784 0.0
C730 C 0.48751 0.50888 0.67887 0.0
C731 C 0.53137 0.55455 0.71295 0.0
H732 H 0.44588 0.4693 0.7784 0.0
H733 H 0.44753 0.47544 0.75201 0.0
H734 H 0.54294 0.5763 0.7345 0.0
H735 H 0.58458 0.56102 0.66286 0.0
H736 H 0.57593 0.55845 0.68919 0.0
H737 H 0.47522 0.46582 0.70434 0.0
C738 C 0.47232 0.49125 0.75807 0.0
C739 C 0.52818 0.5519 0.72807 0.0
C740 C 0.47134 0.48785 0.77321 0.0
C741 C 0.55734 0.54638 0.66719 0.0
C742 C 0.55237 0.54516 0.68223 0.0
C743 C 0.4898 0.49014 0.71084 0.0
C744 C 0.50481 0.51507 0.75091 0.0
C745 C 0.50632 0.5182 0.73479 0.0
C746 C 0.51743 0.52615 0.68822 0.0
C747 C 0.51247 0.52365 0.7042 0.0
H748 H 0.55995 0.54839 0.78041 0.0
H749 H 0.56186 0.55358 0.7541 0.0
H750 H 0.47018 0.46095 0.73077 0.0
H751 H 0.46898 0.49658 0.65684 0.0
H752 H 0.46029 0.49423 0.68322 0.0
C753 C 0.50724 0.01306 0.55819 0.0
C754 C 0.49476 0.98143 0.54983 0.0
C755 C 0.50562 0.01121 0.57336 0.0
C756 C 0.50377 0.95776 0.60434 0.0
H757 H 0.45464 0.00077 0.62442 0.0
C758 C 0.47371 0.93756 0.66594 0.0
C759 C 0.47556 0.96655 0.67393 0.0
C760 C 0.47617 0.93904 0.65077 0.0
C761 C 0.46902 0.98913 0.61905 0.0
H762 H 0.47178 0.92322 0.55079 0.0
H763 H 0.4698 0.92022 0.57735 0.0
H764 H 0.46044 0.00505 0.59804 0.0
H765 H 0.48104 0.01974 0.67207 0.0
H766 H 0.48742 0.02318 0.64586 0.0
H767 H 0.51344 0.94273 0.62527 0.0
C768 C 0.48047 0.9463 0.57212 0.0
C769 C 0.47214 0.99147 0.60393 0.0
C770 C 0.48145 0.94804 0.55695 0.0
C771 C 0.48012 -0.00289 0.66635 0.0
C772 C 0.48313 -0.00118 0.65123 0.0
C773 C 0.50122 0.95593 0.6195 0.0
C774 C 0.49215 0.97781 0.58043 0.0
C775 C 0.48945 0.97574 0.59646 0.0
C776 C 0.481 0.96975 0.64321 0.0
C777 C 0.48373 0.97155 0.62706 0.0
H778 H 0.51753 0.03916 0.55302 0.0
H779 H 0.51496 0.0359 0.57958 0.0
H780 H 0.51747 0.94564 0.59878 0.0
H781 H 0.47065 0.91375 0.67138 0.0
H782 H 0.4739 0.9159 0.64498 0.0
C783 C 0.51263 0.45309 0.89907 0.0
C784 C 0.50676 0.48028 0.89346 0.0
C785 C 0.51023 0.44638 0.91402 0.0
C786 C 0.47055 0.4605 0.94745 0.0
H787 H 0.53389 0.43359 0.96701 0.0
C788 C 0.47504 0.45188 0.00966 0.0
C789 C 0.47385 0.42087 0.01545 0.0
C790 C 0.48015 0.4591 0.9948 0.0
C791 C 0.51585 0.44079 0.96164 0.0
H792 H 0.49512 0.52268 0.89921 0.0
H793 H 0.49186 0.51164 0.92525 0.0
H794 H 0.54182 0.4474 0.94103 0.0
H795 H 0.47761 0.37337 0.0101 0.0
H796 H 0.48716 0.38642 0.98407 0.0
H797 H 0.44495 0.45438 0.9681 0.0
C798 C 0.49734 0.49479 0.91809 0.0
C799 C 0.52033 0.44865 0.94678 0.0
C800 C 0.49944 0.50129 0.90316 0.0
C801 C 0.4787 0.39765 0.00603 0.0
C802 C 0.48412 0.40507 0.99113 0.0
C803 C 0.4663 0.45295 0.96231 0.0
C804 C 0.50216 0.46691 0.92369 0.0
C805 C 0.49776 0.45868 0.93951 0.0
C806 C 0.48454 0.43569 0.98537 0.0
C807 C 0.48894 0.4431 0.96956 0.0
H808 H 0.5182 0.43631 0.8919 0.0
H809 H 0.5137 0.42444 0.91793 0.0
H810 H 0.45214 0.46731 0.94216 0.0
H811 H 0.47233 0.47085 0.01663 0.0
H812 H 0.48099 0.48324 0.99069 0.0
C813 C 0.01922 0.50415 0.2264 0.0
C814 C 0.00567 0.5227 0.21839 0.0
C815 C 0.0185 0.50431 0.24159 0.0
C816 C 0.00851 0.55352 0.27304 0.0
H817 H 0.99056 0.4676 0.29414 0.0
C818 C 0.97707 0.53312 0.33467 0.0
C819 C -0.00355 0.52058 0.34273 0.0
C820 C 0.97907 0.53429 0.3195 0.0
C821 C -0.00412 0.49186 0.28838 0.0
H822 H 0.98018 0.5555 0.22002 0.0
H823 H 0.97777 0.55477 0.24647 0.0
H824 H 0.99127 0.46725 0.26764 0.0
H825 H 0.03293 0.4993 0.34133 0.0
H826 H 0.03607 0.50093 0.31473 0.0
H827 H 0.01208 0.57764 0.2939 0.0
C828 C 0.98992 0.54092 0.24107 0.0
C829 C -0.00357 0.49176 0.27319 0.0
C830 C 0.99108 0.54116 0.22588 0.0
C831 C 0.01792 0.5093 0.33536 0.0
C832 C 0.0195 0.50998 0.32018 0.0
C833 C 0.00748 0.55343 0.28823 0.0
C834 C 0.00376 0.52262 0.24913 0.0
C835 C 0.00287 0.52264 0.26532 0.0
C836 C 6e-05 0.52245 0.31211 0.0
C837 C 0.00127 0.52264 0.29603 0.0
H838 H 0.03093 0.48992 0.22096 0.0
H839 H 0.03002 0.49048 0.2474 0.0
H840 H 0.01423 0.57802 0.26739 0.0
H841 H 0.9605 0.54217 0.34011 0.0
H842 H 0.96367 0.54382 0.31352 0.0
loop_
_geom_bond_atom_site_label_1
_geom_bond_atom_site_label_2
_geom_bond_distance
_geom_bond_site_symmetry_2
_ccdc_geom_bond_type
O0 Zn1 1.953 . S
O0 C16 1.224 . S
Zn1 O0 1.953 . S
Zn1 O2 1.949 . S
Zn1 O8 1.919 1_455 S
Zn1 O13 1.924 . S
O2 Zn1 1.949 . S
O2 Zn3 1.923 1_455 S
O2 Zn4 1.950 . S
O2 Zn5 1.945 . S
Zn3 O2 1.923 1_655 S
Zn3 O6 1.933 . S
Zn3 O9 1.941 . S
Zn3 O10 1.965 . S
Zn4 O2 1.950 . S
Zn4 O11 1.938 1_455 S
Zn4 O12 1.906 . S
Zn4 O22 1.953 . S
Zn5 O2 1.945 . S
Zn5 O7 1.932 . S
Zn5 O14 1.977 . S
Zn5 O15 1.910 . S
O6 Zn3 1.933 . S
O6 C17 1.226 1_655 S
O7 Zn5 1.932 . S
O7 C17 1.307 . S
O8 Zn1 1.919 1_655 S
O8 C19 1.253 . S
O9 Zn3 1.941 . S
O9 C19 1.283 . S
O10 Zn3 1.965 . S
O10 C18 1.303 . S
O11 Zn4 1.938 1_655 S
O11 C18 1.247 . S
O12 Zn4 1.906 . S
O12 C20 1.304 . S
O13 Zn1 1.924 . S
O13 C21 1.311 . S
O14 Zn5 1.977 . S
O14 C20 1.272 . S
O15 Zn5 1.910 . S
O15 C21 1.231 . S
C16 O0 1.224 . S
C16 O22 1.298 . S
C17 O6 1.226 1_455 S
C17 O7 1.307 . S
C18 O10 1.303 . S
C18 O11 1.247 . S
C19 O8 1.253 . S
C19 O9 1.283 . S
C20 O12 1.304 . S
C20 O14 1.272 . S
C21 O13 1.311 . S
C21 O15 1.231 . S
O22 Zn4 1.953 . S
O22 C16 1.298 . S
O23 Zn24 1.953 . S
O23 C39 1.225 . S
Zn24 O23 1.953 . S
Zn24 O25 1.949 . S
Zn24 O31 1.919 . S
Zn24 O36 1.924 1_545 S
O25 Zn24 1.949 . S
O25 Zn26 1.923 . S
O25 Zn27 1.952 . S
O25 Zn28 1.945 1_545 S
Zn26 O25 1.923 . S
Zn26 O29 1.933 . S
Zn26 O32 1.941 . S
Zn26 O33 1.965 . S
Zn27 O25 1.952 . S
Zn27 O34 1.940 . S
Zn27 O35 1.902 1_545 S
Zn27 O45 1.954 1_545 S
Zn28 O25 1.945 1_565 S
Zn28 O30 1.932 . S
Zn28 O37 1.977 . S
Zn28 O38 1.910 . S
O29 Zn26 1.933 . S
O29 C40 1.226 . S
O30 Zn28 1.932 . S
O30 C40 1.307 1_565 S
O31 Zn24 1.919 . S
O31 C42 1.253 . S
O32 Zn26 1.941 . S
O32 C42 1.283 . S
O33 Zn26 1.965 . S
O33 C41 1.303 . S
O34 Zn27 1.940 . S
O34 C41 1.247 . S
O35 Zn27 1.902 1_565 S
O35 C43 1.304 . S
O36 Zn24 1.924 1_565 S
O36 C44 1.311 . S
O37 Zn28 1.977 . S
O37 C43 1.272 . S
O38 Zn28 1.910 . S
O38 C44 1.231 . S
C39 O23 1.225 . S
C39 O45 1.298 1_545 S
C40 O29 1.226 . S
C40 O30 1.307 1_545 S
C41 O33 1.303 . S
C41 O34 1.247 . S
C42 O31 1.253 . S
C42 O32 1.283 . S
C43 O35 1.304 . S
C43 O37 1.272 . S
C44 O36 1.311 . S
C44 O38 1.231 . S
O45 Zn27 1.954 1_565 S
O45 C39 1.298 1_565 S
O46 Zn47 1.953 . S
O46 C62 1.225 . S
Zn47 O46 1.953 . S
Zn47 O48 1.949 . S
Zn47 O54 1.919 . S
Zn47 O59 1.924 . S
O48 Zn47 1.949 . S
O48 Zn49 1.923 . S
O48 Zn50 1.950 . S
O48 Zn51 1.945 . S
Zn49 O48 1.923 . S
Zn49 O52 1.933 . S
Zn49 O55 1.941 . S
Zn49 O56 1.965 . S
Zn50 O48 1.950 . S
Zn50 O57 1.938 . S
Zn50 O58 1.906 . S
Zn50 O68 1.953 . S
Zn51 O48 1.945 . S
Zn51 O53 1.932 . S
Zn51 O60 1.977 . S
Zn51 O61 1.910 . S
O52 Zn49 1.933 . S
O52 C63 1.226 . S
O53 Zn51 1.932 . S
O53 C63 1.307 . S
O54 Zn47 1.919 . S
O54 C65 1.253 . S
O55 Zn49 1.941 . S
O55 C65 1.283 . S
O56 Zn49 1.965 . S
O56 C64 1.303 . S
O57 Zn50 1.938 . S
O57 C64 1.247 . S
O58 Zn50 1.906 . S
O58 C66 1.304 . S
O59 Zn47 1.924 . S
O59 C67 1.311 . S
O60 Zn51 1.977 . S
O60 C66 1.272 . S
O61 Zn51 1.910 . S
O61 C67 1.231 . S
C62 O46 1.225 . S
C62 O68 1.298 . S
C63 O52 1.226 . S
C63 O53 1.307 . S
C64 O56 1.303 . S
C64 O57 1.247 . S
C65 O54 1.253 . S
C65 O55 1.283 . S
C66 O58 1.304 . S
C66 O60 1.272 . S
C67 O59 1.311 . S
C67 O61 1.231 . S
O68 Zn50 1.953 . S
O68 C62 1.298 . S
C69 C70 1.386 . S
C69 C71 1.397 . S
C69 H93 0.931 . S
C70 C69 1.386 . S
C70 C74 1.397 1_545 S
C71 C69 1.397 . S
C71 C72 1.384 . S
C71 H94 0.930 . S
C72 C71 1.384 . S
C72 C73 1.377 1_545 S
C72 C75 1.481 . S
C73 C72 1.377 1_565 S
C73 C74 1.389 . S
C73 H95 0.929 . S
C74 C70 1.397 1_565 S
C74 C73 1.389 . S
C74 H96 0.931 . S
C75 C72 1.481 . S
C75 C76 1.387 . S
C75 C80 1.390 1_545 S
C76 C75 1.387 . S
C76 C77 1.401 . S
C76 H97 0.930 . S
C77 C76 1.401 . S
C77 C78 1.376 . S
C77 C86 1.511 . S
C78 C77 1.376 . S
C78 C79 1.392 1_545 S
C78 H99 0.931 . S
C79 C78 1.392 1_565 S
C79 C80 1.361 . S
C79 C81 1.500 . S
C80 C75 1.390 1_565 S
C80 C79 1.361 . S
C80 H98 0.931 . S
C81 C79 1.500 . S
C81 C82 1.371 . S
C81 C83 1.365 . S
C82 C81 1.371 . S
C82 C92 1.386 . S
C82 H100 0.931 . S
C83 C81 1.365 . S
C83 C84 1.409 . S
C83 H101 0.929 . S
C84 C83 1.409 . S
C84 C85 1.380 . S
C84 H102 0.930 . S
C85 C84 1.380 . S
C85 C92 1.357 . S
C86 C77 1.511 . S
C86 C87 1.341 . S
C86 C88 1.371 . S
C87 C86 1.341 . S
C87 C91 1.394 . S
C87 H103 0.930 . S
C88 C86 1.371 . S
C88 C89 1.392 . S
C88 H104 0.931 . S
C89 C88 1.392 . S
C89 C90 1.331 . S
C89 H107 0.932 . S
C90 C89 1.331 . S
C90 C91 1.336 . S
C91 C87 1.394 . S
C91 C90 1.336 . S
C91 H106 0.929 . S
C92 C82 1.386 . S
C92 C85 1.357 . S
C92 H105 0.928 . S
H93 C69 0.931 . S
H94 C71 0.930 . S
H95 C73 0.929 . S
H96 C74 0.931 . S
H97 C76 0.930 . S
H98 C80 0.931 . S
H99 C78 0.931 . S
H100 C82 0.931 . S
H101 C83 0.929 . S
H102 C84 0.930 . S
H103 C87 0.930 . S
H104 C88 0.931 . S
H105 C92 0.928 . S
H106 C91 0.929 . S
H107 C89 0.932 . S
C108 C109 1.386 . S
C108 C110 1.397 . S
C108 H132 0.931 . S
C109 C108 1.386 . S
C109 C113 1.397 . S
C110 C108 1.397 . S
C110 C111 1.384 . S
C110 H133 0.930 . S
C111 C110 1.384 . S
C111 C112 1.377 . S
C111 C114 1.481 . S
C112 C111 1.377 . S
C112 C113 1.389 . S
C112 H134 0.929 . S
C113 C109 1.397 . S
C113 C112 1.389 . S
C113 H135 0.931 . S
C114 C111 1.481 . S
C114 C115 1.387 . S
C114 C119 1.390 . S
C115 C114 1.387 . S
C115 C116 1.401 . S
C115 H136 0.930 . S
C116 C115 1.401 . S
C116 C117 1.376 . S
C116 C125 1.511 . S
C117 C116 1.376 . S
C117 C118 1.392 . S
C117 H138 0.931 . S
C118 C117 1.392 . S
C118 C119 1.361 . S
C118 C120 1.500 . S
C119 C114 1.390 . S
C119 C118 1.361 . S
C119 H137 0.931 . S
C120 C118 1.500 . S
C120 C121 1.371 . S
C120 C122 1.365 . S
C121 C120 1.371 . S
C121 C131 1.386 . S
C121 H139 0.931 . S
C122 C120 1.365 . S
C122 C123 1.409 . S
C122 H140 0.929 . S
C123 C122 1.409 . S
C123 C124 1.380 . S
C123 H141 0.930 . S
C124 C123 1.380 . S
C124 C131 1.357 . S
C125 C116 1.511 . S
C125 C126 1.341 . S
C125 C127 1.371 . S
C126 C125 1.341 . S
C126 C130 1.394 . S
C126 H142 0.930 . S
C127 C125 1.371 . S
C127 C128 1.392 . S
C127 H143 0.931 . S
C128 C127 1.392 . S
C128 C129 1.331 . S
C128 H146 0.932 . S
C129 C128 1.331 . S
C129 C130 1.336 . S
C130 C126 1.394 . S
C130 C129 1.336 . S
C130 H145 0.929 . S
C131 C121 1.386 . S
C131 C124 1.357 . S
C131 H144 0.928 . S
H132 C108 0.931 . S
H133 C110 0.930 . S
H134 C112 0.929 . S
H135 C113 0.931 . S
H136 C115 0.930 . S
H137 C119 0.931 . S
H138 C117 0.931 . S
H139 C121 0.931 . S
H140 C122 0.929 . S
H141 C123 0.930 . S
H142 C126 0.930 . S
H143 C127 0.931 . S
H144 C131 0.928 . S
H145 C130 0.929 . S
H146 C128 0.932 . S
C147 C148 1.386 . S
C147 C149 1.397 . S
C147 H171 0.931 . S
C148 C147 1.386 . S
C148 C152 1.397 1_455 S
C149 C147 1.397 . S
C149 C150 1.384 . S
C149 H172 0.930 . S
C150 C149 1.384 . S
C150 C151 1.377 1_455 S
C150 C153 1.481 . S
C151 C150 1.377 1_655 S
C151 C152 1.389 . S
C151 H173 0.929 . S
C152 C148 1.397 1_655 S
C152 C151 1.389 . S
C152 H174 0.931 . S
C153 C150 1.481 . S
C153 C154 1.387 . S
C153 C158 1.390 1_455 S
C154 C153 1.387 . S
C154 C155 1.401 . S
C154 H175 0.930 . S
C155 C154 1.401 . S
C155 C156 1.376 . S
C155 C164 1.511 . S
C156 C155 1.376 . S
C156 C157 1.392 1_455 S
C156 H177 0.931 . S
C157 C156 1.392 1_655 S
C157 C158 1.361 . S
C157 C159 1.500 . S
C158 C153 1.390 1_655 S
C158 C157 1.361 . S
C158 H176 0.931 . S
C159 C157 1.500 . S
C159 C160 1.371 . S
C159 C161 1.365 . S
C160 C159 1.371 . S
C160 C170 1.386 . S
C160 H178 0.931 . S
C161 C159 1.365 . S
C161 C162 1.409 . S
C161 H179 0.929 . S
C162 C161 1.409 . S
C162 C163 1.380 . S
C162 H180 0.930 . S
C163 C162 1.380 . S
C163 C170 1.357 . S
C164 C155 1.511 . S
C164 C165 1.341 . S
C164 C166 1.371 . S
C165 C164 1.341 . S
C165 C169 1.394 . S
C165 H181 0.930 . S
C166 C164 1.371 . S
C166 C167 1.392 . S
C166 H182 0.931 . S
C167 C166 1.392 . S
C167 C168 1.331 . S
C167 H185 0.932 . S
C168 C167 1.331 . S
C168 C169 1.336 . S
C169 C165 1.394 . S
C169 C168 1.336 . S
C169 H184 0.929 . S
C170 C160 1.386 . S
C170 C163 1.357 . S
C170 H183 0.928 . S
H171 C147 0.931 . S
H172 C149 0.930 . S
H173 C151 0.929 . S
H174 C152 0.931 . S
H175 C154 0.930 . S
H176 C158 0.931 . S
H177 C156 0.931 . S
H178 C160 0.931 . S
H179 C161 0.929 . S
H180 C162 0.930 . S
H181 C165 0.930 . S
H182 C166 0.931 . S
H183 C170 0.928 . S
H184 C169 0.929 . S
H185 C167 0.932 . S
C186 C187 1.386 1_655 S
C186 C188 1.397 . S
C186 H210 0.931 . S
C187 C186 1.386 1_455 S
C187 C191 1.397 . S
C188 C186 1.397 . S
C188 C189 1.384 1_655 S
C188 H211 0.930 . S
C189 C188 1.384 1_455 S
C189 C190 1.377 . S
C189 C192 1.481 . S
C190 C189 1.377 . S
C190 C191 1.389 . S
C190 H212 0.929 . S
C191 C187 1.397 . S
C191 C190 1.389 . S
C191 H213 0.931 . S
C192 C189 1.481 . S
C192 C193 1.387 1_455 S
C192 C197 1.390 . S
C193 C192 1.387 1_655 S
C193 C194 1.401 . S
C193 H214 0.930 . S
C194 C193 1.401 . S
C194 C195 1.376 1_655 S
C194 C203 1.511 . S
C195 C194 1.376 1_455 S
C195 C196 1.392 . S
C195 H216 0.931 . S
C196 C195 1.392 . S
C196 C197 1.361 . S
C196 C198 1.500 . S
C197 C192 1.390 . S
C197 C196 1.361 . S
C197 H215 0.931 . S
C198 C196 1.500 . S
C198 C199 1.371 . S
C198 C200 1.365 . S
C199 C198 1.371 . S
C199 C209 1.386 . S
C199 H217 0.931 . S
C200 C198 1.365 . S
C200 C201 1.409 . S
C200 H218 0.929 . S
C201 C200 1.409 . S
C201 C202 1.380 . S
C201 H219 0.930 . S
C202 C201 1.380 . S
C202 C209 1.357 . S
C203 C194 1.511 . S
C203 C204 1.341 . S
C203 C205 1.371 . S
C204 C203 1.341 . S
C204 C208 1.394 . S
C204 H220 0.930 . S
C205 C203 1.371 . S
C205 C206 1.392 . S
C205 H221 0.931 . S
C206 C205 1.392 . S
C206 C207 1.331 . S
C206 H224 0.932 . S
C207 C206 1.331 . S
C207 C208 1.336 . S
C208 C204 1.394 . S
C208 C207 1.336 . S
C208 H223 0.929 . S
C209 C199 1.386 . S
C209 C202 1.357 . S
C209 H222 0.928 . S
H210 C186 0.931 . S
H211 C188 0.930 . S
H212 C190 0.929 . S
H213 C191 0.931 . S
H214 C193 0.930 . S
H215 C197 0.931 . S
H216 C195 0.931 . S
H217 C199 0.931 . S
H218 C200 0.929 . S
H219 C201 0.930 . S
H220 C204 0.930 . S
H221 C205 0.931 . S
H222 C209 0.928 . S
H223 C208 0.929 . S
H224 C206 0.932 . S
C225 C226 1.386 1_565 S
C225 C227 1.397 . S
C225 H249 0.931 . S
C226 C225 1.386 1_545 S
C226 C230 1.397 . S
C227 C225 1.397 . S
C227 C228 1.384 1_565 S
C227 H250 0.930 . S
C228 C227 1.384 1_545 S
C228 C229 1.377 . S
C228 C231 1.481 . S
C229 C228 1.377 . S
C229 C230 1.389 . S
C229 H251 0.929 . S
C230 C226 1.397 . S
C230 C229 1.389 . S
C230 H252 0.931 . S
C231 C228 1.481 . S
C231 C232 1.387 1_545 S
C231 C236 1.390 . S
C232 C231 1.387 1_565 S
C232 C233 1.401 . S
C232 H253 0.930 . S
C233 C232 1.401 . S
C233 C234 1.376 1_565 S
C233 C242 1.511 . S
C234 C233 1.376 1_545 S
C234 C235 1.392 . S
C234 H255 0.931 . S
C235 C234 1.392 . S
C235 C236 1.361 . S
C235 C237 1.500 . S
C236 C231 1.390 . S
C236 C235 1.361 . S
C236 H254 0.931 . S
C237 C235 1.500 . S
C237 C238 1.371 . S
C237 C239 1.365 . S
C238 C237 1.371 . S
C238 C248 1.386 . S
C238 H256 0.931 . S
C239 C237 1.365 . S
C239 C240 1.409 . S
C239 H257 0.929 . S
C240 C239 1.409 . S
C240 C241 1.380 . S
C240 H258 0.930 . S
C241 C240 1.380 . S
C241 C248 1.357 . S
C242 C233 1.511 . S
C242 C243 1.341 . S
C242 C244 1.371 . S
C243 C242 1.341 . S
C243 C247 1.394 . S
C243 H259 0.930 . S
C244 C242 1.371 . S
C244 C245 1.392 . S
C244 H260 0.931 . S
C245 C244 1.392 . S
C245 C246 1.331 . S
C245 H263 0.932 . S
C246 C245 1.331 . S
C246 C247 1.336 . S
C247 C243 1.394 . S
C247 C246 1.336 . S
C247 H262 0.929 . S
C248 C238 1.386 . S
C248 C241 1.357 . S
C248 H261 0.928 . S
H249 C225 0.931 . S
H250 C227 0.930 . S
H251 C229 0.929 . S
H252 C230 0.931 . S
H253 C232 0.930 . S
H254 C236 0.931 . S
H255 C234 0.931 . S
H256 C238 0.931 . S
H257 C239 0.929 . S
H258 C240 0.930 . S
H259 C243 0.930 . S
H260 C244 0.931 . S
H261 C248 0.928 . S
H262 C247 0.929 . S
H263 C245 0.932 . S
C264 C265 1.386 . S
C264 C266 1.397 . S
C264 H288 0.931 . S
C265 C264 1.386 . S
C265 C269 1.397 . S
C266 C264 1.397 . S
C266 C267 1.384 . S
C266 H289 0.930 . S
C267 C266 1.384 . S
C267 C268 1.377 . S
C267 C270 1.481 . S
C268 C267 1.377 . S
C268 C269 1.389 . S
C268 H290 0.929 . S
C269 C265 1.397 . S
C269 C268 1.389 . S
C269 H291 0.931 . S
C270 C267 1.481 . S
C270 C271 1.387 . S
C270 C275 1.390 . S
C271 C270 1.387 . S
C271 C272 1.401 . S
C271 H292 0.930 . S
C272 C271 1.401 . S
C272 C273 1.376 . S
C272 C281 1.511 . S
C273 C272 1.376 . S
C273 C274 1.392 . S
C273 H294 0.931 . S
C274 C273 1.392 . S
C274 C275 1.361 . S
C274 C276 1.500 . S
C275 C270 1.390 . S
C275 C274 1.361 . S
C275 H293 0.931 . S
C276 C274 1.500 . S
C276 C277 1.371 . S
C276 C278 1.365 . S
C277 C276 1.371 . S
C277 C287 1.386 . S
C277 H295 0.931 . S
C278 C276 1.365 . S
C278 C279 1.409 . S
C278 H296 0.929 . S
C279 C278 1.409 . S
C279 C280 1.380 . S
C279 H297 0.930 . S
C280 C279 1.380 . S
C280 C287 1.357 . S
C281 C272 1.511 . S
C281 C282 1.341 . S
C281 C283 1.371 . S
C282 C281 1.341 . S
C282 C286 1.394 . S
C282 H298 0.930 . S
C283 C281 1.371 . S
C283 C284 1.392 . S
C283 H299 0.931 . S
C284 C283 1.392 . S
C284 C285 1.331 . S
C284 H302 0.932 . S
C285 C284 1.331 . S
C285 C286 1.336 . S
C286 C282 1.394 . S
C286 C285 1.336 . S
C286 H301 0.929 . S
C287 C277 1.386 . S
C287 C280 1.357 . S
C287 H300 0.928 . S
H288 C264 0.931 . S
H289 C266 0.930 . S
H290 C268 0.929 . S
H291 C269 0.931 . S
H292 C271 0.930 . S
H293 C275 0.931 . S
H294 C273 0.931 . S
H295 C277 0.931 . S
H296 C278 0.929 . S
H297 C279 0.930 . S
H298 C282 0.930 . S
H299 C283 0.931 . S
H300 C287 0.928 . S
H301 C286 0.929 . S
H302 C284 0.932 . S
C303 C304 1.349 . S
C303 C305 1.327 . S
C303 H328 0.950 . S
C304 C303 1.349 . S
C304 C320 1.349 . S
C305 C303 1.327 . S
C305 C324 1.429 . S
C305 H329 0.950 . S
C306 C323 1.574 . S
C306 C325 1.368 . S
C306 H330 0.949 . S
H307 C311 0.949 . S
C308 C309 1.349 . S
C308 C310 1.327 . S
C308 H331 0.950 . S
C309 C308 1.349 . S
C309 C321 1.349 . S
C310 C308 1.327 . S
C310 C326 1.429 . S
C310 H332 0.950 . S
C311 H307 0.949 . S
C311 C319 1.574 . S
C311 C327 1.368 . S
H312 C320 0.950 . S
H313 C318 0.950 . S
H314 C319 0.949 . S
H315 C321 0.950 . S
H316 C322 0.950 . S
H317 C323 0.949 . S
C318 H313 0.950 . S
C318 C320 1.327 . S
C318 C324 1.429 . S
C319 C311 1.574 . S
C319 H314 0.949 . S
C319 C325 1.368 . S
C320 C304 1.349 . S
C320 H312 0.950 . S
C320 C318 1.327 . S
C321 C309 1.349 . S
C321 H315 0.950 . S
C321 C322 1.327 . S
C322 H316 0.950 . S
C322 C321 1.327 . S
C322 C326 1.429 . S
C323 C306 1.574 . S
C323 H317 0.949 . S
C323 C327 1.368 . S
C324 C305 1.429 . S
C324 C318 1.429 . S
C324 C325 1.523 . S
C325 C306 1.368 . S
C325 C319 1.368 . S
C325 C324 1.523 . S
C326 C310 1.429 . S
C326 C322 1.429 . S
C326 C327 1.523 . S
C327 C311 1.368 . S
C327 C323 1.368 . S
C327 C326 1.523 . S
H328 C303 0.950 . S
H329 C305 0.950 . S
H330 C306 0.949 . S
H331 C308 0.950 . S
H332 C310 0.950 . S
C333 C334 1.349 . S
C333 C335 1.327 . S
C333 H358 0.950 . S
C334 C333 1.349 . S
C334 C350 1.349 . S
C335 C333 1.327 . S
C335 C354 1.429 . S
C335 H359 0.950 . S
C336 C353 1.574 . S
C336 C355 1.368 . S
C336 H360 0.949 . S
H337 C341 0.949 . S
C338 C339 1.349 . S
C338 C340 1.327 . S
C338 H361 0.950 . S
C339 C338 1.349 . S
C339 C351 1.349 . S
C340 C338 1.327 . S
C340 C356 1.429 . S
C340 H362 0.950 . S
C341 H337 0.949 . S
C341 C349 1.574 . S
C341 C357 1.368 . S
H342 C350 0.950 . S
H343 C348 0.950 . S
H344 C349 0.949 . S
H345 C351 0.950 . S
H346 C352 0.950 . S
H347 C353 0.949 . S
C348 H343 0.950 . S
C348 C350 1.327 . S
C348 C354 1.429 . S
C349 C341 1.574 . S
C349 H344 0.949 . S
C349 C355 1.368 . S
C350 C334 1.349 . S
C350 H342 0.950 . S
C350 C348 1.327 . S
C351 C339 1.349 . S
C351 H345 0.950 . S
C351 C352 1.327 . S
C352 H346 0.950 . S
C352 C351 1.327 . S
C352 C356 1.429 . S
C353 C336 1.574 . S
C353 H347 0.949 . S
C353 C357 1.368 . S
C354 C335 1.429 . S
C354 C348 1.429 . S
C354 C355 1.523 . S
C355 C336 1.368 . S
C355 C349 1.368 . S
C355 C354 1.523 . S
C356 C340 1.429 . S
C356 C352 1.429 . S
C356 C357 1.523 . S
C357 C341 1.368 . S
C357 C353 1.368 . S
C357 C356 1.523 . S
H358 C333 0.950 . S
H359 C335 0.950 . S
H360 C336 0.949 . S
H361 C338 0.950 . S
H362 C340 0.950 . S
C363 C364 1.349 . S
C363 C365 1.327 . S
C363 H388 0.950 . S
C364 C363 1.349 . S
C364 C380 1.349 . S
C365 C363 1.327 . S
C365 C384 1.429 . S
C365 H389 0.950 . S
C366 C383 1.574 . S
C366 C385 1.368 . S
C366 H390 0.949 . S
H367 C371 0.949 . S
C368 C369 1.349 . S
C368 C370 1.327 . S
C368 H391 0.950 . S
C369 C368 1.349 . S
C369 C381 1.349 . S
C370 C368 1.327 . S
C370 C386 1.429 . S
C370 H392 0.950 . S
C371 H367 0.949 . S
C371 C379 1.574 . S
C371 C387 1.368 . S
H372 C380 0.950 . S
H373 C378 0.950 . S
H374 C379 0.949 . S
H375 C381 0.950 . S
H376 C382 0.950 . S
H377 C383 0.949 . S
C378 H373 0.950 . S
C378 C380 1.327 . S
C378 C384 1.429 . S
C379 C371 1.574 . S
C379 H374 0.949 . S
C379 C385 1.368 . S
C380 C364 1.349 . S
C380 H372 0.950 . S
C380 C378 1.327 . S
C381 C369 1.349 . S
C381 H375 0.950 . S
C381 C382 1.327 . S
C382 H376 0.950 . S
C382 C381 1.327 . S
C382 C386 1.429 . S
C383 C366 1.574 . S
C383 H377 0.949 . S
C383 C387 1.368 . S
C384 C365 1.429 . S
C384 C378 1.429 . S
C384 C385 1.523 . S
C385 C366 1.368 . S
C385 C379 1.368 . S
C385 C384 1.523 . S
C386 C370 1.429 . S
C386 C382 1.429 . S
C386 C387 1.523 . S
C387 C371 1.368 . S
C387 C383 1.368 . S
C387 C386 1.523 . S
H388 C363 0.950 . S
H389 C365 0.950 . S
H390 C366 0.949 . S
H391 C368 0.950 . S
H392 C370 0.950 . S
C393 C394 1.349 . S
C393 C395 1.327 . S
C393 H418 0.950 . S
C394 C393 1.349 . S
C394 C410 1.349 . S
C395 C393 1.327 . S
C395 C414 1.429 . S
C395 H419 0.950 . S
C396 C413 1.574 . S
C396 C415 1.368 . S
C396 H420 0.949 . S
H397 C401 0.949 . S
C398 C399 1.349 . S
C398 C400 1.327 . S
C398 H421 0.950 . S
C399 C398 1.349 . S
C399 C411 1.349 . S
C400 C398 1.327 . S
C400 C416 1.429 . S
C400 H422 0.950 . S
C401 H397 0.949 . S
C401 C409 1.574 . S
C401 C417 1.368 . S
H402 C410 0.950 . S
H403 C408 0.950 . S
H404 C409 0.949 . S
H405 C411 0.950 . S
H406 C412 0.950 . S
H407 C413 0.949 . S
C408 H403 0.950 . S
C408 C410 1.327 . S
C408 C414 1.429 . S
C409 C401 1.574 . S
C409 H404 0.949 . S
C409 C415 1.368 . S
C410 C394 1.349 . S
C410 H402 0.950 . S
C410 C408 1.327 . S
C411 C399 1.349 . S
C411 H405 0.950 . S
C411 C412 1.327 . S
C412 H406 0.950 . S
C412 C411 1.327 . S
C412 C416 1.429 . S
C413 C396 1.574 . S
C413 H407 0.949 . S
C413 C417 1.368 . S
C414 C395 1.429 . S
C414 C408 1.429 . S
C414 C415 1.523 . S
C415 C396 1.368 . S
C415 C409 1.368 . S
C415 C414 1.523 . S
C416 C400 1.429 . S
C416 C412 1.429 . S
C416 C417 1.523 . S
C417 C401 1.368 . S
C417 C413 1.368 . S
C417 C416 1.523 . S
H418 C393 0.950 . S
H419 C395 0.950 . S
H420 C396 0.949 . S
H421 C398 0.950 . S
H422 C400 0.950 . S
C423 C424 1.349 . S
C423 C425 1.327 . S
C423 H448 0.950 . S
C424 C423 1.349 . S
C424 C440 1.349 . S
C425 C423 1.327 . S
C425 C444 1.429 . S
C425 H449 0.950 . S
C426 C443 1.574 . S
C426 C445 1.368 . S
C426 H450 0.949 . S
H427 C431 0.949 . S
C428 C429 1.349 . S
C428 C430 1.327 . S
C428 H451 0.950 . S
C429 C428 1.349 . S
C429 C441 1.349 . S
C430 C428 1.327 . S
C430 C446 1.429 . S
C430 H452 0.950 . S
C431 H427 0.949 . S
C431 C439 1.574 . S
C431 C447 1.368 . S
H432 C440 0.950 . S
H433 C438 0.950 . S
H434 C439 0.949 . S
H435 C441 0.950 . S
H436 C442 0.950 . S
H437 C443 0.949 . S
C438 H433 0.950 . S
C438 C440 1.327 . S
C438 C444 1.429 . S
C439 C431 1.574 . S
C439 H434 0.949 . S
C439 C445 1.368 . S
C440 C424 1.349 . S
C440 H432 0.950 . S
C440 C438 1.327 . S
C441 C429 1.349 . S
C441 H435 0.950 . S
C441 C442 1.327 . S
C442 H436 0.950 . S
C442 C441 1.327 . S
C442 C446 1.429 . S
C443 C426 1.574 . S
C443 H437 0.949 . S
C443 C447 1.368 . S
C444 C425 1.429 . S
C444 C438 1.429 . S
C444 C445 1.523 . S
C445 C426 1.368 . S
C445 C439 1.368 . S
C445 C444 1.523 . S
C446 C430 1.429 . S
C446 C442 1.429 . S
C446 C447 1.523 . S
C447 C431 1.368 . S
C447 C443 1.368 . S
C447 C446 1.523 . S
H448 C423 0.950 . S
H449 C425 0.950 . S
H450 C426 0.949 . S
H451 C428 0.950 . S
H452 C430 0.950 . S
C453 C454 1.349 . S
C453 C455 1.327 . S
C453 H478 0.950 . S
C454 C453 1.349 . S
C454 C470 1.349 . S
C455 C453 1.327 . S
C455 C474 1.429 . S
C455 H479 0.950 . S
C456 C473 1.574 . S
C456 C475 1.368 . S
C456 H480 0.949 . S
H457 C461 0.949 . S
C458 C459 1.349 . S
C458 C460 1.327 . S
C458 H481 0.950 . S
C459 C458 1.349 . S
C459 C471 1.349 . S
C460 C458 1.327 . S
C460 C476 1.429 . S
C460 H482 0.950 . S
C461 H457 0.949 . S
C461 C469 1.574 . S
C461 C477 1.368 . S
H462 C470 0.950 . S
H463 C468 0.950 . S
H464 C469 0.949 . S
H465 C471 0.950 . S
H466 C472 0.950 . S
H467 C473 0.949 . S
C468 H463 0.950 . S
C468 C470 1.327 . S
C468 C474 1.429 . S
C469 C461 1.574 . S
C469 H464 0.949 . S
C469 C475 1.368 . S
C470 C454 1.349 . S
C470 H462 0.950 . S
C470 C468 1.327 . S
C471 C459 1.349 . S
C471 H465 0.950 . S
C471 C472 1.327 . S
C472 H466 0.950 . S
C472 C471 1.327 . S
C472 C476 1.429 . S
C473 C456 1.574 . S
C473 H467 0.949 . S
C473 C477 1.368 . S
C474 C455 1.429 . S
C474 C468 1.429 . S
C474 C475 1.523 . S
C475 C456 1.368 . S
C475 C469 1.368 . S
C475 C474 1.523 . S
C476 C460 1.429 . S
C476 C472 1.429 . S
C476 C477 1.523 . S
C477 C461 1.368 . S
C477 C473 1.368 . S
C477 C476 1.523 . S
H478 C453 0.950 . S
H479 C455 0.950 . S
H480 C456 0.949 . S
H481 C458 0.950 . S
H482 C460 0.950 . S
C483 C484 1.349 . S
C483 C485 1.327 . S
C483 H508 0.950 . S
C484 C483 1.349 . S
C484 C500 1.349 . S
C485 C483 1.327 . S
C485 C504 1.429 . S
C485 H509 0.950 . S
C486 C503 1.574 . S
C486 C505 1.368 . S
C486 H510 0.949 . S
H487 C491 0.949 . S
C488 C489 1.349 . S
C488 C490 1.327 . S
C488 H511 0.950 . S
C489 C488 1.349 . S
C489 C501 1.349 . S
C490 C488 1.327 . S
C490 C506 1.429 . S
C490 H512 0.950 . S
C491 H487 0.949 . S
C491 C499 1.574 . S
C491 C507 1.368 . S
H492 C500 0.950 . S
H493 C498 0.950 . S
H494 C499 0.949 . S
H495 C501 0.950 . S
H496 C502 0.950 . S
H497 C503 0.949 . S
C498 H493 0.950 . S
C498 C500 1.327 . S
C498 C504 1.429 . S
C499 C491 1.574 . S
C499 H494 0.949 . S
C499 C505 1.368 . S
C500 C484 1.349 . S
C500 H492 0.950 . S
C500 C498 1.327 . S
C501 C489 1.349 . S
C501 H495 0.950 . S
C501 C502 1.327 . S
C502 H496 0.950 . S
C502 C501 1.327 . S
C502 C506 1.429 . S
C503 C486 1.574 . S
C503 H497 0.949 . S
C503 C507 1.368 . S
C504 C485 1.429 . S
C504 C498 1.429 . S
C504 C505 1.523 . S
C505 C486 1.368 . S
C505 C499 1.368 . S
C505 C504 1.523 . S
C506 C490 1.429 . S
C506 C502 1.429 . S
C506 C507 1.523 . S
C507 C491 1.368 . S
C507 C503 1.368 . S
C507 C506 1.523 . S
H508 C483 0.950 . S
H509 C485 0.950 . S
H510 C486 0.949 . S
H511 C488 0.950 . S
H512 C490 0.950 . S
C513 C514 1.349 . S
C513 C515 1.327 . S
C513 H538 0.950 . S
C514 C513 1.349 . S
C514 C530 1.349 . S
C515 C513 1.327 . S
C515 C534 1.429 . S
C515 H539 0.950 . S
C516 C533 1.574 . S
C516 C535 1.368 . S
C516 H540 0.949 . S
H517 C521 0.949 . S
C518 C519 1.349 . S
C518 C520 1.327 . S
C518 H541 0.950 . S
C519 C518 1.349 . S
C519 C531 1.349 . S
C520 C518 1.327 . S
C520 C536 1.429 . S
C520 H542 0.950 . S
C521 H517 0.949 . S
C521 C529 1.574 . S
C521 C537 1.368 . S
H522 C530 0.950 . S
H523 C528 0.950 . S
H524 C529 0.949 . S
H525 C531 0.950 . S
H526 C532 0.950 . S
H527 C533 0.949 . S
C528 H523 0.950 . S
C528 C530 1.327 . S
C528 C534 1.429 . S
C529 C521 1.574 . S
C529 H524 0.949 . S
C529 C535 1.368 . S
C530 C514 1.349 . S
C530 H522 0.950 . S
C530 C528 1.327 . S
C531 C519 1.349 . S
C531 H525 0.950 . S
C531 C532 1.327 . S
C532 H526 0.950 . S
C532 C531 1.327 . S
C532 C536 1.429 . S
C533 C516 1.574 . S
C533 H527 0.949 . S
C533 C537 1.368 . S
C534 C515 1.429 . S
C534 C528 1.429 . S
C534 C535 1.523 . S
C535 C516 1.368 . S
C535 C529 1.368 . S
C535 C534 1.523 . S
C536 C520 1.429 . S
C536 C532 1.429 . S
C536 C537 1.523 . S
C537 C521 1.368 . S
C537 C533 1.368 . S
C537 C536 1.523 . S
H538 C513 0.950 . S
H539 C515 0.950 . S
H540 C516 0.949 . S
H541 C518 0.950 . S
H542 C520 0.950 . S
C543 C544 1.349 . S
C543 C545 1.327 . S
C543 H568 0.950 . S
C544 C543 1.349 . S
C544 C560 1.349 . S
C545 C543 1.327 . S
C545 C564 1.429 . S
C545 H569 0.950 . S
C546 C563 1.574 . S
C546 C565 1.368 . S
C546 H570 0.949 . S
H547 C551 0.949 . S
C548 C549 1.349 . S
C548 C550 1.327 . S
C548 H571 0.950 . S
C549 C548 1.349 . S
C549 C561 1.349 . S
C550 C548 1.327 . S
C550 C566 1.429 . S
C550 H572 0.950 . S
C551 H547 0.949 . S
C551 C559 1.574 . S
C551 C567 1.368 . S
H552 C560 0.950 . S
H553 C558 0.950 . S
H554 C559 0.949 . S
H555 C561 0.950 . S
H556 C562 0.950 . S
H557 C563 0.949 . S
C558 H553 0.950 . S
C558 C560 1.327 . S
C558 C564 1.429 . S
C559 C551 1.574 . S
C559 H554 0.949 . S
C559 C565 1.368 . S
C560 C544 1.349 . S
C560 H552 0.950 . S
C560 C558 1.327 . S
C561 C549 1.349 . S
C561 H555 0.950 . S
C561 C562 1.327 . S
C562 H556 0.950 . S
C562 C561 1.327 . S
C562 C566 1.429 . S
C563 C546 1.574 . S
C563 H557 0.949 . S
C563 C567 1.368 . S
C564 C545 1.429 . S
C564 C558 1.429 . S
C564 C565 1.523 . S
C565 C546 1.368 . S
C565 C559 1.368 . S
C565 C564 1.523 . S
C566 C550 1.429 . S
C566 C562 1.429 . S
C566 C567 1.523 . S
C567 C551 1.368 . S
C567 C563 1.368 . S
C567 C566 1.523 . S
H568 C543 0.950 . S
H569 C545 0.950 . S
H570 C546 0.949 . S
H571 C548 0.950 . S
H572 C550 0.950 . S
C573 C574 1.349 . S
C573 C575 1.327 . S
C573 H598 0.950 . S
C574 C573 1.349 . S
C574 C590 1.349 . S
C575 C573 1.327 . S
C575 C594 1.429 . S
C575 H599 0.950 . S
C576 C593 1.574 . S
C576 C595 1.368 . S
C576 H600 0.949 . S
H577 C581 0.949 . S
C578 C579 1.349 . S
C578 C580 1.327 . S
C578 H601 0.950 . S
C579 C578 1.349 . S
C579 C591 1.349 . S
C580 C578 1.327 . S
C580 C596 1.429 . S
C580 H602 0.950 . S
C581 H577 0.949 . S
C581 C589 1.574 . S
C581 C597 1.368 . S
H582 C590 0.950 . S
H583 C588 0.950 . S
H584 C589 0.949 . S
H585 C591 0.950 . S
H586 C592 0.950 . S
H587 C593 0.949 . S
C588 H583 0.950 . S
C588 C590 1.327 . S
C588 C594 1.429 . S
C589 C581 1.574 . S
C589 H584 0.949 . S
C589 C595 1.368 . S
C590 C574 1.349 . S
C590 H582 0.950 . S
C590 C588 1.327 . S
C591 C579 1.349 . S
C591 H585 0.950 . S
C591 C592 1.327 . S
C592 H586 0.950 . S
C592 C591 1.327 . S
C592 C596 1.429 . S
C593 C576 1.574 . S
C593 H587 0.949 . S
C593 C597 1.368 . S
C594 C575 1.429 . S
C594 C588 1.429 . S
C594 C595 1.523 . S
C595 C576 1.368 . S
C595 C589 1.368 . S
C595 C594 1.523 . S
C596 C580 1.429 . S
C596 C592 1.429 . S
C596 C597 1.523 . S
C597 C581 1.368 . S
C597 C593 1.368 . S
C597 C596 1.523 . S
H598 C573 0.950 . S
H599 C575 0.950 . S
H600 C576 0.949 . S
H601 C578 0.950 . S
H602 C580 0.950 . S
C603 C604 1.349 . S
C603 C605 1.327 . S
C603 H628 0.950 . S
C604 C603 1.349 . S
C604 C620 1.349 . S
C605 C603 1.327 . S
C605 C624 1.429 . S
C605 H629 0.950 . S
C606 C623 1.574 . S
C606 C625 1.368 . S
C606 H630 0.949 . S
H607 C611 0.949 . S
C608 C609 1.349 . S
C608 C610 1.327 . S
C608 H631 0.950 . S
C609 C608 1.349 . S
C609 C621 1.349 . S
C610 C608 1.327 . S
C610 C626 1.429 . S
C610 H632 0.950 . S
C611 H607 0.949 . S
C611 C619 1.574 . S
C611 C627 1.368 . S
H612 C620 0.950 . S
H613 C618 0.950 . S
H614 C619 0.949 . S
H615 C621 0.950 . S
H616 C622 0.950 . S
H617 C623 0.949 . S
C618 H613 0.950 . S
C618 C620 1.327 . S
C618 C624 1.429 . S
C619 C611 1.574 . S
C619 H614 0.949 . S
C619 C625 1.368 . S
C620 C604 1.349 . S
C620 H612 0.950 . S
C620 C618 1.327 . S
C621 C609 1.349 . S
C621 H615 0.950 . S
C621 C622 1.327 . S
C622 H616 0.950 . S
C622 C621 1.327 . S
C622 C626 1.429 . S
C623 C606 1.574 . S
C623 H617 0.949 . S
C623 C627 1.368 . S
C624 C605 1.429 . S
C624 C618 1.429 . S
C624 C625 1.523 . S
C625 C606 1.368 . S
C625 C619 1.368 . S
C625 C624 1.523 . S
C626 C610 1.429 . S
C626 C622 1.429 . S
C626 C627 1.523 . S
C627 C611 1.368 . S
C627 C623 1.368 . S
C627 C626 1.523 . S
H628 C603 0.950 . S
H629 C605 0.950 . S
H630 C606 0.949 . S
H631 C608 0.950 . S
H632 C610 0.950 . S
C633 C634 1.349 . S
C633 C635 1.327 . S
C633 H658 0.950 . S
C634 C633 1.349 . S
C634 C650 1.349 . S
C635 C633 1.327 . S
C635 C654 1.429 . S
C635 H659 0.950 . S
C636 C653 1.574 . S
C636 C655 1.368 . S
C636 H660 0.949 . S
H637 C641 0.949 . S
C638 C639 1.349 . S
C638 C640 1.327 . S
C638 H661 0.950 . S
C639 C638 1.349 . S
C639 C651 1.349 . S
C640 C638 1.327 . S
C640 C656 1.429 . S
C640 H662 0.950 . S
C641 H637 0.949 . S
C641 C649 1.574 . S
C641 C657 1.368 . S
H642 C650 0.950 . S
H643 C648 0.950 . S
H644 C649 0.949 . S
H645 C651 0.950 . S
H646 C652 0.950 . S
H647 C653 0.949 . S
C648 H643 0.950 . S
C648 C650 1.327 . S
C648 C654 1.429 . S
C649 C641 1.574 . S
C649 H644 0.949 . S
C649 C655 1.368 . S
C650 C634 1.349 . S
C650 H642 0.950 . S
C650 C648 1.327 . S
C651 C639 1.349 . S
C651 H645 0.950 . S
C651 C652 1.327 . S
C652 H646 0.950 . S
C652 C651 1.327 . S
C652 C656 1.429 . S
C653 C636 1.574 . S
C653 H647 0.949 . S
C653 C657 1.368 . S
C654 C635 1.429 . S
C654 C648 1.429 . S
C654 C655 1.523 . S
C655 C636 1.368 . S
C655 C649 1.368 . S
C655 C654 1.523 . S
C656 C640 1.429 . S
C656 C652 1.429 . S
C656 C657 1.523 . S
C657 C641 1.368 . S
C657 C653 1.368 . S
C657 C656 1.523 . S
H658 C633 0.950 . S
H659 C635 0.950 . S
H660 C636 0.949 . S
H661 C638 0.950 . S
H662 C640 0.950 . S
C663 C664 1.349 1_655 S
C663 C665 1.327 . S
C663 H688 0.950 . S
C664 C663 1.349 1_455 S
C664 C680 1.349 . S
C665 C663 1.327 . S
C665 C684 1.429 1_655 S
C665 H689 0.950 . S
C666 C683 1.574 . S
C666 C685 1.368 . S
C666 H690 0.949 . S
H667 C671 0.949 . S
C668 C669 1.349 . S
C668 C670 1.327 1_556 S
C668 H691 0.950 . S
C669 C668 1.349 . S
C669 C681 1.349 1_455 S
C670 C668 1.327 1_554 S
C670 C686 1.429 . S
C670 H692 0.950 . S
C671 H667 0.949 . S
C671 C679 1.574 . S
C671 C687 1.368 1_655 S
H672 C680 0.950 . S
H673 C678 0.950 . S
H674 C679 0.949 . S
H675 C681 0.950 . S
H676 C682 0.950 . S
H677 C683 0.949 . S
C678 H673 0.950 . S
C678 C680 1.327 . S
C678 C684 1.429 . S
C679 C671 1.574 . S
C679 H674 0.949 . S
C679 C685 1.368 1_655 S
C680 C664 1.349 . S
C680 H672 0.950 . S
C680 C678 1.327 . S
C681 C669 1.349 1_655 S
C681 H675 0.950 . S
C681 C682 1.327 1_556 S
C682 H676 0.950 . S
C682 C681 1.327 1_554 S
C682 C686 1.429 1_655 S
C683 C666 1.574 . S
C683 H677 0.949 . S
C683 C687 1.368 . S
C684 C665 1.429 1_455 S
C684 C678 1.429 . S
C684 C685 1.523 . S
C685 C666 1.368 . S
C685 C679 1.368 1_455 S
C685 C684 1.523 . S
C686 C670 1.429 . S
C686 C682 1.429 1_455 S
C686 C687 1.523 . S
C687 C671 1.368 1_455 S
C687 C683 1.368 . S
C687 C686 1.523 . S
H688 C663 0.950 . S
H689 C665 0.950 . S
H690 C666 0.949 . S
H691 C668 0.950 . S
H692 C670 0.950 . S
C693 C694 1.349 . S
C693 C695 1.327 . S
C693 H718 0.950 . S
C694 C693 1.349 . S
C694 C710 1.349 1_545 S
C695 C693 1.327 . S
C695 C714 1.429 . S
C695 H719 0.950 . S
C696 C713 1.574 . S
C696 C715 1.368 1_565 S
C696 H720 0.949 . S
H697 C701 0.949 . S
C698 C699 1.349 1_565 S
C698 C700 1.327 . S
C698 H721 0.950 . S
C699 C698 1.349 1_545 S
C699 C711 1.349 . S
C700 C698 1.327 . S
C700 C716 1.429 1_565 S
C700 H722 0.950 . S
C701 H697 0.949 . S
C701 C709 1.574 . S
C701 C717 1.368 . S
H702 C710 0.950 . S
H703 C708 0.950 . S
H704 C709 0.949 . S
H705 C711 0.950 . S
H706 C712 0.950 . S
H707 C713 0.949 . S
C708 H703 0.950 . S
C708 C710 1.327 . S
C708 C714 1.429 1_565 S
C709 C701 1.574 . S
C709 H704 0.949 . S
C709 C715 1.368 . S
C710 C694 1.349 1_565 S
C710 H702 0.950 . S
C710 C708 1.327 . S
C711 C699 1.349 . S
C711 H705 0.950 . S
C711 C712 1.327 . S
C712 H706 0.950 . S
C712 C711 1.327 . S
C712 C716 1.429 . S
C713 C696 1.574 . S
C713 H707 0.949 . S
C713 C717 1.368 1_565 S
C714 C695 1.429 . S
C714 C708 1.429 1_545 S
C714 C715 1.523 . S
C715 C696 1.368 1_545 S
C715 C709 1.368 . S
C715 C714 1.523 . S
C716 C700 1.429 1_545 S
C716 C712 1.429 . S
C716 C717 1.523 . S
C717 C701 1.368 . S
C717 C713 1.368 1_545 S
C717 C716 1.523 . S
H718 C693 0.950 . S
H719 C695 0.950 . S
H720 C696 0.949 . S
H721 C698 0.950 . S
H722 C700 0.950 . S
C723 C724 1.349 . S
C723 C725 1.327 . S
C723 H748 0.950 . S
C724 C723 1.349 . S
C724 C740 1.349 . S
C725 C723 1.327 . S
C725 C744 1.429 . S
C725 H749 0.950 . S
C726 C743 1.574 . S
C726 C745 1.368 . S
C726 H750 0.949 . S
H727 C731 0.949 . S
C728 C729 1.349 . S
C728 C730 1.327 . S
C728 H751 0.950 . S
C729 C728 1.349 . S
C729 C741 1.349 . S
C730 C728 1.327 . S
C730 C746 1.429 . S
C730 H752 0.950 . S
C731 H727 0.949 . S
C731 C739 1.574 . S
C731 C747 1.368 . S
H732 C740 0.950 . S
H733 C738 0.950 . S
H734 C739 0.949 . S
H735 C741 0.950 . S
H736 C742 0.950 . S
H737 C743 0.949 . S
C738 H733 0.950 . S
C738 C740 1.327 . S
C738 C744 1.429 . S
C739 C731 1.574 . S
C739 H734 0.949 . S
C739 C745 1.368 . S
C740 C724 1.349 . S
C740 H732 0.950 . S
C740 C738 1.327 . S
C741 C729 1.349 . S
C741 H735 0.950 . S
C741 C742 1.327 . S
C742 H736 0.950 . S
C742 C741 1.327 . S
C742 C746 1.429 . S
C743 C726 1.574 . S
C743 H737 0.949 . S
C743 C747 1.368 . S
C744 C725 1.429 . S
C744 C738 1.429 . S
C744 C745 1.523 . S
C745 C726 1.368 . S
C745 C739 1.368 . S
C745 C744 1.523 . S
C746 C730 1.429 . S
C746 C742 1.429 . S
C746 C747 1.523 . S
C747 C731 1.368 . S
C747 C743 1.368 . S
C747 C746 1.523 . S
H748 C723 0.950 . S
H749 C725 0.950 . S
H750 C726 0.949 . S
H751 C728 0.950 . S
H752 C730 0.950 . S
C753 C754 1.349 . S
C753 C755 1.327 . S
C753 H778 0.950 . S
C754 C753 1.349 . S
C754 C770 1.349 1_545 S
C755 C753 1.327 . S
C755 C774 1.429 . S
C755 H779 0.950 . S
C756 C773 1.574 . S
C756 C775 1.368 1_565 S
C756 H780 0.949 . S
H757 C761 0.949 . S
C758 C759 1.349 1_565 S
C758 C760 1.327 . S
C758 H781 0.950 . S
C759 C758 1.349 1_545 S
C759 C771 1.349 . S
C760 C758 1.327 . S
C760 C776 1.429 1_565 S
C760 H782 0.950 . S
C761 H757 0.949 . S
C761 C769 1.574 . S
C761 C777 1.368 . S
H762 C770 0.950 . S
H763 C768 0.950 . S
H764 C769 0.949 . S
H765 C771 0.950 . S
H766 C772 0.950 . S
H767 C773 0.949 . S
C768 H763 0.950 . S
C768 C770 1.327 . S
C768 C774 1.429 1_565 S
C769 C761 1.574 . S
C769 H764 0.949 . S
C769 C775 1.368 . S
C770 C754 1.349 1_565 S
C770 H762 0.950 . S
C770 C768 1.327 . S
C771 C759 1.349 . S
C771 H765 0.950 . S
C771 C772 1.327 . S
C772 H766 0.950 . S
C772 C771 1.327 . S
C772 C776 1.429 . S
C773 C756 1.574 . S
C773 H767 0.949 . S
C773 C777 1.368 1_565 S
C774 C755 1.429 . S
C774 C768 1.429 1_545 S
C774 C775 1.523 . S
C775 C756 1.368 1_545 S
C775 C769 1.368 . S
C775 C774 1.523 . S
C776 C760 1.429 1_545 S
C776 C772 1.429 . S
C776 C777 1.523 . S
C777 C761 1.368 . S
C777 C773 1.368 1_545 S
C777 C776 1.523 . S
H778 C753 0.950 . S
H779 C755 0.950 . S
H780 C756 0.949 . S
H781 C758 0.950 . S
H782 C760 0.950 . S
C783 C784 1.349 . S
C783 C785 1.327 . S
C783 H808 0.950 . S
C784 C783 1.349 . S
C784 C800 1.349 . S
C785 C783 1.327 . S
C785 C804 1.429 . S
C785 H809 0.950 . S
C786 C803 1.574 . S
C786 C805 1.368 . S
C786 H810 0.949 . S
H787 C791 0.949 . S
C788 C789 1.349 . S
C788 C790 1.327 1_554 S
C788 H811 0.950 . S
C789 C788 1.349 . S
C789 C801 1.349 . S
C790 C788 1.327 1_556 S
C790 C806 1.429 . S
C790 H812 0.950 . S
C791 H787 0.949 . S
C791 C799 1.574 . S
C791 C807 1.368 . S
H792 C800 0.950 . S
H793 C798 0.950 . S
H794 C799 0.949 . S
H795 C801 0.950 . S
H796 C802 0.950 . S
H797 C803 0.949 . S
C798 H793 0.950 . S
C798 C800 1.327 . S
C798 C804 1.429 . S
C799 C791 1.574 . S
C799 H794 0.949 . S
C799 C805 1.368 . S
C800 C784 1.349 . S
C800 H792 0.950 . S
C800 C798 1.327 . S
C801 C789 1.349 . S
C801 H795 0.950 . S
C801 C802 1.327 1_554 S
C802 H796 0.950 . S
C802 C801 1.327 1_556 S
C802 C806 1.429 . S
C803 C786 1.574 . S
C803 H797 0.949 . S
C803 C807 1.368 . S
C804 C785 1.429 . S
C804 C798 1.429 . S
C804 C805 1.523 . S
C805 C786 1.368 . S
C805 C799 1.368 . S
C805 C804 1.523 . S
C806 C790 1.429 . S
C806 C802 1.429 . S
C806 C807 1.523 . S
C807 C791 1.368 . S
C807 C803 1.368 . S
C807 C806 1.523 . S
H808 C783 0.950 . S
H809 C785 0.950 . S
H810 C786 0.949 . S
H811 C788 0.950 . S
H812 C790 0.950 . S
C813 C814 1.349 . S
C813 C815 1.327 . S
C813 H838 0.950 . S
C814 C813 1.349 . S
C814 C830 1.349 . S
C815 C813 1.327 . S
C815 C834 1.429 . S
C815 H839 0.950 . S
C816 C833 1.574 . S
C816 C835 1.368 . S
C816 H840 0.949 . S
H817 C821 0.949 . S
C818 C819 1.349 . S
C818 C820 1.327 . S
C818 H841 0.950 . S
C819 C818 1.349 . S
C819 C831 1.349 . S
C820 C818 1.327 . S
C820 C836 1.429 . S
C820 H842 0.950 . S
C821 H817 0.949 . S
C821 C829 1.574 . S
C821 C837 1.368 . S
H822 C830 0.950 . S
H823 C828 0.950 . S
H824 C829 0.949 . S
H825 C831 0.950 . S
H826 C832 0.950 . S
H827 C833 0.949 . S
C828 H823 0.950 . S
C828 C830 1.327 . S
C828 C834 1.429 . S
C829 C821 1.574 . S
C829 H824 0.949 . S
C829 C835 1.368 . S
C830 C814 1.349 . S
C830 H822 0.950 . S
C830 C828 1.327 . S
C831 C819 1.349 . S
C831 H825 0.950 . S
C831 C832 1.327 . S
C832 H826 0.950 . S
C832 C831 1.327 . S
C832 C836 1.429 . S
C833 C816 1.574 . S
C833 H827 0.949 . S
C833 C837 1.368 . S
C834 C815 1.429 . S
C834 C828 1.429 . S
C834 C835 1.523 . S
C835 C816 1.368 . S
C835 C829 1.368 . S
C835 C834 1.523 . S
C836 C820 1.429 . S
C836 C832 1.429 . S
C836 C837 1.523 . S
C837 C821 1.368 . S
C837 C833 1.368 . S
C837 C836 1.523 . S
H838 C813 0.950 . S
H839 C815 0.950 . S
H840 C816 0.949 . S
H841 C818 0.950 . S
H842 C820 0.950 . S
C304 C20 1.079 . S
C309 C280 1.099 . S
C334 C41 1.126 . S
C339 C207 1.121 . S
C364 C64 1.148 . S
C369 C246 1.142 . S
C394 C19 1.102 . S
C399 C285 1.133 . S
C429 C202 1.112 . S
C424 C44 1.112 . S
C459 C241 1.101 . S
C454 C67 1.103 . S
C484 C43 1.066 . S
C489 C129 1.089 . S
C514 C66 1.078 . S
C519 C163 1.099 . S
C544 C21 1.111 . S
C549 C85 1.110 . S
C579 C124 1.130 . S
C574 C42 1.103 . S
C609 C168 1.134 . S
C604 C65 1.103 . S
C634 C18 1.128 . S
C639 C90 1.123 . S
C669 C148 1.452 . S
C664 C17 1.452 . S
C694 C39 1.448 . S
C699 C70 1.448 . S
C724 C62 1.468 . S
C729 C109 1.468 . S
C759 C226 1.431 . S
C754 C40 1.430 . S
C789 C265 1.452 . S
C784 C63 1.452 . S
C814 C16 1.447 . S
C819 C187 1.448 . S
