# Generated by pormake.
# Topology anh, (6,3)-cn, num edge types: 1
# Building blocks:
#     Node 0, Type 0, BuildingBlock: NUHQIS_clean_sbu_0, # of connection points: 6
#     Node 1, Type 0, BuildingBlock: NUHQIS_clean_sbu_0, # of connection points: 6
#     Node 2, Type 0, BuildingBlock: NUHQIS_clean_sbu_0, # of connection points: 6
#     Node 3, Type 1, BuildingBlock: BETDIP_clean_linker_0, # of connection points: 3
#     Node 4, Type 1, BuildingBlock: BETDIP_clean_linker_0, # of connection points: 3
#     Node 5, Type 1, BuildingBlock: BETDIP_clean_linker_0, # of connection points: 3
#     Node 6, Type 1, BuildingBlock: BETDIP_clean_linker_0, # of connection points: 3
#     Node 7, Type 1, BuildingBlock: BETDIP_clean_linker_0, # of connection points: 3
#     Node 8, Type 1, BuildingBlock: BETDIP_clean_linker_0, # of connection points: 3
#     Edge 9, Type (0, 1), BuildingBlock: OJICUG_clean_linker_0, # of connection points: 2
#     Edge 10, Type (0, 1), BuildingBlock: OJICUG_clean_linker_0, # of connection points: 2
#     Edge 11, Type (0, 1), BuildingBlock: OJICUG_clean_linker_0, # of connection points: 2
#     Edge 12, Type (0, 1), BuildingBlock: OJICUG_clean_linker_0, # of connection points: 2
#     Edge 13, Type (0, 1), BuildingBlock: OJICUG_clean_linker_0, # of connection points: 2
#     Edge 14, Type (0, 1), BuildingBlock: OJICUG_clean_linker_0, # of connection points: 2
#     Edge 15, Type (0, 1), BuildingBlock: OJICUG_clean_linker_0, # of connection points: 2
#     Edge 16, Type (0, 1), BuildingBlock: OJICUG_clean_linker_0, # of connection points: 2
#     Edge 17, Type (0, 1), BuildingBlock: OJICUG_clean_linker_0, # of connection points: 2
#     Edge 18, Type (0, 1), BuildingBlock: OJICUG_clean_linker_0, # of connection points: 2
#     Edge 19, Type (0, 1), BuildingBlock: OJICUG_clean_linker_0, # of connection points: 2
#     Edge 20, Type (0, 1), BuildingBlock: OJICUG_clean_linker_0, # of connection points: 2
#     Edge 21, Type (0, 1), BuildingBlock: OJICUG_clean_linker_0, # of connection points: 2
#     Edge 22, Type (0, 1), BuildingBlock: OJICUG_clean_linker_0, # of connection points: 2
#     Edge 23, Type (0, 1), BuildingBlock: OJICUG_clean_linker_0, # of connection points: 2
#     Edge 24, Type (0, 1), BuildingBlock: OJICUG_clean_linker_0, # of connection points: 2
#     Edge 25, Type (0, 1), BuildingBlock: OJICUG_clean_linker_0, # of connection points: 2
#     Edge 26, Type (0, 1), BuildingBlock: OJICUG_clean_linker_0, # of connection points: 2
# Relax obj value: 0.378
# Max RMSD: 0.174
# Mean RMSD: 0.133
data_MOF--net-anh--node1-NUHQIS_clean_sbu_0--node2-BETDIP_clean_linker_0--edge1-OJICUG_clean_linker_0
_symmetry_space_group_name_H-M    P1
_symmetry_Int_Tables_number       1
_symmetry_cell_setting            triclinic
loop_
_symmetry_equiv_pos_as_xyz
'x, y, z'
_cell_length_a     22.817425
_cell_length_b     23.091754
_cell_length_c     36.695278
_cell_angle_alpha  92.945877
_cell_angle_beta   92.832015
_cell_angle_gamma 120.38014
loop_
_atom_site_label
_atom_site_type_symbol
_atom_site_fract_x
_atom_site_fract_y
_atom_site_fract_z
_atom_type_partial_charge
Tb0 Tb 0.23597 0.68099 0.17972 0.0
Eu1 Eu 1.15709 0.75615 0.15645 0.0
C2 C 0.18366 0.74428 0.23729 0.0
C3 C 1.06972 0.5923 0.17221 0.0
C4 C 0.35197 0.61194 0.19383 0.0
C5 C 0.4021 0.5416 0.19724 0.0
C6 C 0.3596 0.56299 0.21082 0.0
C7 C 0.3903 0.64261 0.16459 0.0
C8 C 0.43315 0.62146 0.15108 0.0
C9 C 0.43743 0.56907 0.16651 0.0
C10 C 0.29576 0.62146 0.2028 0.0
O11 O 0.2491 0.68637 0.12062 0.0
O12 O 0.16331 0.70622 0.10391 0.0
O13 O 0.26987 0.84399 0.15871 0.0
O14 O 0.32066 0.78998 0.1848 0.0
C15 C 0.20931 0.69119 0.09518 0.0
O16 O 1.11928 0.79912 0.11623 0.0
O17 O 1.09345 0.79699 0.17214 0.0
O18 O 0.19613 0.78992 0.21477 0.0
O19 O 0.18393 0.68974 0.22613 0.0
O20 O 1.12869 0.59411 0.1716 0.0
O21 O 1.06962 0.64956 0.16985 0.0
C22 C 0.32544 0.84628 0.17369 0.0
O23 O 0.31071 0.68131 0.21599 0.0
O24 O 0.2448 0.59536 0.17771 0.0
C25 C 1.00265 0.75261 0.12648 0.0
C26 C 0.8843 0.62407 0.11645 0.0
C27 C 0.92467 0.6513 0.08719 0.0
C28 C 0.98344 0.71504 0.09216 0.0
C29 C 0.95599 0.73016 0.15342 0.0
C30 C 0.89796 0.66602 0.14872 0.0
C31 C 1.07581 0.79927 0.13812 0.0
H32 H 0.40527 0.50172 0.20982 0.0
H33 H 0.32978 0.53863 0.23328 0.0
H34 H 0.38406 0.67994 0.15096 0.0
H35 H 0.45952 0.64307 0.12718 0.0
H36 H 0.91371 0.62151 0.06132 0.0
H37 H 1.01724 0.73149 0.07038 0.0
H38 H 0.96859 0.75844 0.17996 0.0
H39 H 0.86779 0.64738 0.17179 0.0
Tb40 Tb 0.81043 0.23186 0.50253 0.0
Eu41 Eu 0.65251 0.16018 0.50916 0.0
C42 C 0.75269 0.20157 0.57613 0.0
C43 C 0.72965 1.06764 0.50879 0.0
C44 C 0.96097 0.36852 0.47715 0.0
C45 C 0.99116 0.48541 0.48852 0.0
C46 C 0.9939 0.42964 0.49947 0.0
C47 C 0.93485 0.36769 0.44144 0.0
C48 C 0.93163 0.42305 0.43064 0.0
C49 C 0.95563 0.48091 0.45504 0.0
C50 C 0.93421 0.30442 0.49448 0.0
O51 O 0.76431 0.2304 0.44815 0.0
O52 O 0.65893 0.13764 0.44926 0.0
O53 O 0.67942 0.26997 0.5008 0.0
O54 O 0.79339 0.31955 0.51694 0.0
C55 C 0.70744 0.18148 0.43078 0.0
O56 O 0.54819 0.1365 0.49518 0.0
O57 O 0.57461 0.10786 0.54641 0.0
O58 O 0.71496 0.22176 0.56029 0.0
O59 O 0.79185 0.19117 0.55556 0.0
O60 O 0.78558 0.12283 0.49992 0.0
O61 O 0.67483 1.07216 0.51505 0.0
C62 C 0.73872 0.32585 0.5103 0.0
O63 O 0.90858 0.30432 0.52558 0.0
O64 O 0.89399 0.24943 0.47319 0.0
C65 C 0.45767 1.04909 0.52363 0.0
C66 C 0.32249 0.94073 0.5207 0.0
C67 C 0.33669 1.0044 0.51089 0.0
C68 C 0.40343 1.05787 0.51249 0.0
C69 C 0.44431 0.98635 0.53445 0.0
C70 C 0.37703 0.93243 0.53296 0.0
C71 C 0.52675 0.10782 0.52539 0.0
H72 H 1.01243 0.53021 0.50744 0.0
H73 H 1.01505 0.43205 0.52698 0.0
H74 H 0.90966 0.32183 0.42319 0.0
H75 H 0.90425 0.41757 0.40454 0.0
H76 H 0.29653 1.01254 0.50032 0.0
H77 H 0.41276 0.10617 0.50447 0.0
H78 H 0.48561 0.9788 0.54366 0.0
H79 H 0.36782 0.88409 0.54072 0.0
Tb80 Tb 0.78258 0.69059 0.84683 0.0
Eu81 Eu 0.70329 0.53372 0.82691 0.0
C82 C 0.75419 0.58828 0.90681 0.0
C83 C 0.87328 0.6164 0.84124 0.0
C84 C 0.81157 0.85457 0.84013 0.0
C85 C 0.72201 0.88216 0.83605 0.0
C86 C 0.77039 0.87508 0.85712 0.0
C87 C 0.81108 0.85208 0.80173 0.0
C88 C 0.76239 0.8583 0.78075 0.0
C89 C 0.71418 0.86875 0.79772 0.0
C90 C 0.83537 0.81539 0.86021 0.0
O91 O 0.77783 0.68266 0.78627 0.0
O92 O 0.69625 0.57184 0.77296 0.0
O93 O 0.62398 0.55988 0.84802 0.0
O94 O 0.67506 0.66842 0.83467 0.0
C95 C 0.73583 0.63183 0.76238 0.0
O96 O 0.67476 0.43871 0.79577 0.0
O97 O 0.61788 0.44029 0.84137 0.0
O98 O 0.75766 0.54974 0.88116 0.0
O99 O 0.75191 0.64176 0.89827 0.0
O100 O 0.86836 0.6691 0.85345 0.0
O101 O 0.81701 0.56063 0.82666 0.0
C102 C 0.61941 0.61396 0.84327 0.0
O103 O 0.79045 0.77168 0.87996 0.0
O104 O 0.8637 0.78848 0.84114 0.0
C105 C 0.6171 0.34003 0.82694 0.0
C106 C 0.601 0.21433 0.84059 0.0
C107 C 0.54827 0.21871 0.82163 0.0
C108 C 0.5564 0.28088 0.81493 0.0
C109 C 0.66788 0.33717 0.8485 0.0
C110 C 0.65974 0.27453 0.85545 0.0
C111 C 0.62528 0.40339 0.81609 0.0
H112 H 0.6874 0.89298 0.84996 0.0
H113 H 0.77026 0.87819 0.88668 0.0
H114 H 0.84269 0.83734 0.78756 0.0
H115 H 0.75862 0.84803 0.75134 0.0
H116 H 0.50257 0.17437 0.80913 0.0
H117 H 0.51628 0.2826 0.7988 0.0
H118 H 0.71452 0.38301 0.85872 0.0
H119 H 0.7009 0.2733 0.87069 0.0
H120 H 0.63182 0.16374 0.16378 0.0
H121 H 0.75905 0.26477 0.26445 0.0
H122 H 0.56977 1.07758 0.26635 0.0
H123 H 0.84616 0.30987 0.22715 0.0
C124 C 0.82543 0.32763 0.20616 0.0
C125 C 0.6413 0.16585 0.19315 0.0
C126 C 0.5928 0.11026 0.21273 0.0
C127 C 0.70337 0.22327 0.21163 0.0
C128 C 0.71362 0.22318 0.25 0.0
C129 C 0.66628 0.17121 0.27021 0.0
C130 C 0.60708 0.11642 0.25106 0.0
N131 N 0.75355 0.2809 0.19259 0.0
H132 H 0.74497 0.64327 0.49715 0.0
H133 H 0.73959 0.74199 0.60002 0.0
H134 H 0.74256 0.55768 0.59946 0.0
H135 H 0.68929 0.7868 0.56541 0.0
C136 C 0.72 0.80426 0.54235 0.0
C137 C 0.74319 0.64489 0.52657 0.0
C138 C 0.74374 0.59087 0.54586 0.0
C139 C 0.74107 0.7015 0.54571 0.0
C140 C 0.74001 0.70128 0.58433 0.0
C141 C 0.73953 0.64938 0.60349 0.0
C142 C 0.74191 0.59627 0.58409 0.0
N143 N 0.74246 0.7584 0.52728 0.0
H144 H 0.18915 0.61574 0.82975 0.0
H145 H 0.30295 0.64449 0.93408 0.0
H146 H 1.11115 0.63773 0.93096 0.0
H147 H 0.34365 0.58363 0.90378 0.0
C148 C 0.35788 0.60776 0.87847 0.0
C149 C 0.19386 0.62205 0.85937 0.0
C150 C 1.14102 0.62657 0.87795 0.0
C151 C 0.25344 0.62661 0.8794 0.0
C152 C 0.25826 0.63732 0.91814 0.0
C153 C 0.20812 0.64282 0.93675 0.0
C154 C 1.15035 0.63569 0.91638 0.0
N155 N 0.3091 0.62442 0.86122 0.0
H156 H 0.99456 0.76039 0.46378 0.0
H157 H 0.96535 0.72965 0.34617 0.0
H158 H 1.15654 0.7772 0.40137 0.0
H159 H 0.81593 0.6605 0.43733 0.0
C160 C 0.86047 0.66435 0.42572 0.0
C161 C 1.01444 0.75893 0.43774 0.0
C162 C 1.08096 0.7708 0.43681 0.0
C163 C 0.97259 0.74374 0.40506 0.0
C164 C 0.99805 0.7424 0.37128 0.0
C165 C 1.06372 0.75209 0.37023 0.0
C166 C 1.10465 0.76639 0.40284 0.0
N167 N 0.90231 0.72104 0.40646 0.0
H168 H 0.49647 0.91736 0.75928 0.0
H169 H 0.54748 0.9467 0.64785 0.0
H170 H 0.66126 0.1076 0.7322 0.0
H171 H 0.42017 0.75605 0.7112 0.0
C172 C 0.4676 0.80349 0.71065 0.0
C173 C 0.52832 0.9495 0.7394 0.0
C174 C 0.58124 1.0152 0.75077 0.0
C175 C 0.51654 0.92455 0.70232 0.0
C176 C 0.55675 0.96605 0.67638 0.0
C177 C 0.60971 1.03187 0.68744 0.0
C178 C 0.6216 1.05584 0.72438 0.0
N179 N 0.46806 0.85581 0.69161 0.0
H180 H 0.54288 0.36911 0.12001 0.0
H181 H 0.67496 0.38943 0.03665 0.0
H182 H 0.59836 0.52541 0.04718 0.0
H183 H 0.69754 0.30038 0.10954 0.0
C184 C 0.68562 0.34009 0.10751 0.0
C185 C 0.56761 0.39333 0.0962 0.0
C186 C 0.56731 0.45095 0.08606 0.0
C187 C 0.60649 0.37138 0.07837 0.0
C188 C 0.64285 0.40542 0.04913 0.0
C189 C 0.64084 0.46164 0.03757 0.0
C190 C 0.60203 0.48327 0.05607 0.0
N191 N 0.6187 0.3231 0.09406 0.0
C192 C 0.44039 0.46841 0.14107 0.0
C193 C 0.473 0.53875 0.14835 0.0
H194 H 0.44415 0.38541 0.115 0.0
C195 C 0.53754 0.57971 0.13614 0.0
H196 H 0.39007 0.43579 0.14975 0.0
C197 C 0.56846 0.55092 0.11641 0.0
C198 C 0.53504 0.48067 0.10816 0.0
H199 H 0.56391 0.63399 0.14175 0.0
H200 H 0.61861 0.58373 0.10756 0.0
C201 C 0.47114 0.4396 0.12111 0.0
C202 C 0.9144 0.5583 0.47615 0.0
C203 C 0.93495 0.53111 0.44766 0.0
H204 H 0.87281 0.62053 0.49119 0.0
C205 C 0.92879 0.54696 0.41172 0.0
H206 H 0.91814 0.54701 0.5041 0.0
C207 C 0.90185 0.58799 0.40447 0.0
C208 C 0.88116 0.61456 0.43297 0.0
H209 H 0.94471 0.52767 0.38915 0.0
H210 H 0.89775 0.59955 0.37655 0.0
C211 C 0.88723 0.59925 0.46881 0.0
C212 C 0.58752 0.82151 0.79061 0.0
C213 C 0.6513 0.85565 0.77596 0.0
H214 H 0.4789 0.77592 0.78077 0.0
C215 C 0.65323 0.87016 0.73916 0.0
H216 H 0.58379 0.80926 0.81877 0.0
C217 C 0.59309 0.84988 0.71746 0.0
C218 C 0.52982 0.81586 0.73223 0.0
H219 H 0.70118 0.89715 0.72699 0.0
H220 H 0.59608 0.86185 0.6892 0.0
C221 C 0.52725 0.80119 0.7688 0.0
C222 C 0.77417 0.52703 0.13332 0.0
C223 C 0.83373 0.55073 0.11499 0.0
H224 H 0.68284 0.44118 0.14737 0.0
C225 C 0.84725 0.50342 0.09746 0.0
H226 H 0.76194 0.5616 0.14718 0.0
C227 C 0.80096 0.43433 0.097 0.0
C228 C 0.74055 0.41143 0.11407 0.0
H229 H 0.89386 0.51961 0.08428 0.0
H230 H 0.8111 0.39899 0.08215 0.0
C231 C 0.72869 0.45807 0.13334 0.0
C232 C 0.19592 0.89126 0.51502 0.0
C233 C 0.25227 0.88237 0.51249 0.0
H234 H 1.09596 0.8622 0.49226 0.0
C235 C 0.24226 0.82276 0.49412 0.0
H236 H 0.20128 0.93532 0.5303 0.0
C237 C 0.18084 0.77937 0.47337 0.0
C238 C 1.12958 0.79606 0.47002 0.0
H239 H 0.284 0.81341 0.49211 0.0
H240 H 0.17666 0.7372 0.45662 0.0
C241 C 1.13508 0.84877 0.49355 0.0
C242 C 0.65958 0.15033 0.8269 0.0
C243 C 0.60027 0.14946 0.83657 0.0
H244 H 0.69994 0.10383 0.79266 0.0
C245 C 0.53758 1.08836 0.83005 0.0
H246 H 0.70944 0.19507 0.83258 0.0
C247 C 0.53176 1.03742 0.80526 0.0
C248 C 0.58942 1.04612 0.78855 0.0
H249 H 0.49135 1.08422 0.83928 0.0
H250 H 0.48116 0.99651 0.79566 0.0
C251 C 0.65408 1.09812 0.80339 0.0
C252 C 0.77944 0.98438 0.50388 0.0
C253 C 0.72825 0.99916 0.51413 0.0
H254 H 0.81845 0.91498 0.50275 0.0
C255 C 0.67468 0.9465 0.53119 0.0
H256 H 0.82246 1.02191 0.49086 0.0
C257 C 0.67277 0.88507 0.53825 0.0
C258 C 0.7233 0.86964 0.52829 0.0
H259 H 0.63387 0.95323 0.54021 0.0
H260 H 0.63071 0.84899 0.55247 0.0
C261 C 0.7769 0.92157 0.51051 0.0
C262 C 1.00338 0.67857 0.86208 0.0
C263 C 0.94359 0.61954 0.84631 0.0
H264 H 1.10938 0.72756 0.88289 0.0
C265 C 0.95284 0.56411 0.83702 0.0
H266 H 1.00078 0.72295 0.87005 0.0
C267 C 1.01715 0.56717 0.84417 0.0
C268 C 1.07645 0.62606 0.86075 0.0
H269 H 0.90951 0.51708 0.82505 0.0
H270 H 1.01942 0.52199 0.83818 0.0
C271 C 1.06713 0.68154 0.86918 0.0
C272 C 0.40575 0.97735 0.16944 0.0
C273 C 0.39547 0.91437 0.17987 0.0
H274 H 0.473 1.08609 0.17003 0.0
C275 C 0.45386 0.91796 0.1978 0.0
H276 H 0.36351 0.97885 0.15571 0.0
C277 C 0.51715 0.97992 0.20585 0.0
C278 C 0.52747 1.04318 0.19629 0.0
H279 H 0.45046 0.87243 0.20667 0.0
H280 H 0.55838 0.97843 0.22086 0.0
C281 C 0.46977 1.03983 0.17739 0.0
C282 C 0.79793 0.45315 0.53642 0.0
C283 C 0.74274 0.39625 0.51576 0.0
H284 H 0.84215 0.55542 0.56118 0.0
C285 C 0.69024 0.40782 0.50186 0.0
H286 H 0.83982 0.44883 0.54825 0.0
C287 C 0.69251 0.47127 0.50859 0.0
C288 C 0.74726 0.52774 0.52997 0.0
H289 H 0.64596 0.36693 0.486 0.0
H290 H 0.64928 0.47485 0.4983 0.0
C291 C 0.79954 0.51583 0.54368 0.0
C292 C 0.49938 0.5612 0.86762 0.0
C293 C 0.55112 0.61276 0.84922 0.0
H294 H 0.40219 0.51974 0.8904 0.0
C295 C 0.53557 0.6619 0.83759 0.0
H296 H 0.50711 0.52193 0.87744 0.0
C297 C 0.47259 0.65978 0.84445 0.0
C298 C 0.42179 0.60857 0.86378 0.0
H299 H 0.57266 0.70252 0.82319 0.0
H300 H 0.46504 0.69978 0.83575 0.0
C301 C 0.43777 0.55974 0.87498 0.0
C302 C 0.93709 0.51528 0.17915 0.0
C303 C 1.00322 0.52366 0.17706 0.0
H304 H 0.83013 0.44987 0.18856 0.0
C305 C 1.00582 0.46426 0.18128 0.0
H306 H 0.93105 0.55851 0.1767 0.0
C307 C 0.94761 0.40176 0.18812 0.0
C308 C 0.88168 0.3929 0.19049 0.0
H309 H 1.05412 0.46617 0.18033 0.0
H310 H 0.95495 0.35978 0.19263 0.0
C311 C 0.87802 0.45177 0.18562 0.0
C312 C 0.19423 0.71307 0.0303 0.0
C313 C 0.21598 0.68193 0.05516 0.0
H314 H 0.1778 0.72803 0.97472 0.0
C315 C 0.24074 0.64131 0.04089 0.0
H316 H 0.17619 0.74588 0.04007 0.0
C317 C 0.2403 0.62966 0.00259 0.0
C318 C 0.21573 0.65893 0.97776 0.0
H319 H 0.25815 0.61672 0.0592 0.0
H320 H 0.25703 0.59601 -0.00754 0.0
C321 C 0.1948 0.70242 -0.00749 0.0
C322 C 0.72645 0.23806 0.37183 0.0
C323 C 0.69709 0.17866 0.38995 0.0
H324 H 0.73752 0.28328 0.32132 0.0
C325 C 0.65855 0.11686 0.36858 0.0
H326 H 0.75625 0.28669 0.38743 0.0
C327 C 0.6502 0.11442 0.33015 0.0
C328 C 0.67798 0.17392 0.31166 0.0
H329 H 0.63603 1.07005 0.38153 0.0
H330 H 0.62237 1.06524 0.3151 0.0
C331 C 0.71618 0.23586 0.33351 0.0
C332 C 0.77749 0.70139 0.70728 0.0
C333 C 0.73426 0.63995 0.72196 0.0
H334 H 0.81311 0.75308 0.6586 0.0
C335 C 0.69009 0.58387 0.69719 0.0
H336 H 0.81202 0.74583 0.72532 0.0
C337 C 0.69071 0.58807 0.65925 0.0
C338 C 0.73541 0.64851 0.64438 0.0
H339 H 0.65542 0.53569 0.70702 0.0
H340 H 0.65637 0.54327 0.64139 0.0
C341 C 0.77789 0.70566 0.66897 0.0
C342 C 0.72482 0.10207 0.61096 0.0
C343 C 0.72775 0.16405 0.60847 0.0
H344 H 0.68295 1.0103 0.63754 0.0
C345 C 0.69475 0.18351 0.63329 0.0
H346 H 0.74902 1.08541 0.5918 0.0
C347 C 0.65737 0.1408 0.65932 0.0
C348 C 0.6515 1.07744 0.6606 0.0
H349 H 0.69565 0.23067 0.63159 0.0
H350 H 0.63101 0.15626 0.67766 0.0
C351 C 0.68625 1.05868 0.63663 0.0
C352 C 0.71435 0.4923 0.94557 0.0
C353 C 0.7356 0.56061 0.94265 0.0
H354 H 0.66571 0.40739 0.97649 0.0
C355 C 0.73155 0.59815 0.97263 0.0
H356 H 0.71642 0.46142 0.923 0.0
C357 C 0.70408 0.56704 0.00432 0.0
C358 C 0.67835 0.49737 0.00616 0.0
H359 H 0.74805 0.65092 0.9713 0.0
H360 H 0.70178 0.59746 0.02702 0.0
C361 C 0.6854 0.461 0.97661 0.0
C362 C 1.14852 0.70421 0.29874 0.0
C363 C 1.15472 0.74747 0.2718 0.0
H364 H 1.11404 0.67172 0.35122 0.0
C365 C 1.12836 0.79052 0.27687 0.0
H366 H 0.16784 0.67017 0.29538 0.0
C367 C 1.09631 0.79024 0.30832 0.0
C368 C 1.09115 0.74775 0.3354 0.0
H369 H 1.13154 0.8238 0.25632 0.0
H370 H 1.07699 0.82426 0.31189 0.0
C371 C 1.11747 0.70477 0.33045 0.0
loop_
_geom_bond_atom_site_label_1
_geom_bond_atom_site_label_2
_geom_bond_distance
_geom_bond_site_symmetry_2
_ccdc_geom_bond_type
Tb0 C10 2.825 . S
Tb0 O11 2.347 . S
Tb0 O14 2.366 . S
Tb0 O19 2.418 . S
Tb0 O20 2.384 1_455 S
Tb0 O23 2.479 . S
Tb0 O24 2.471 . S
Eu1 O12 2.418 . S
Eu1 O13 2.384 . S
Eu1 O16 2.479 1_455 S
Eu1 O17 2.471 1_455 S
Eu1 O18 2.347 . S
Eu1 O21 2.366 1_455 S
Eu1 C31 2.825 1_455 S
C2 O18 1.259 . S
C2 O19 1.265 . S
C3 O20 1.255 . S
C3 O21 1.265 . S
C4 C6 1.380 . S
C4 C7 1.374 . S
C4 C10 1.507 . S
C5 C6 1.384 . S
C5 C9 1.387 . S
C5 H32 0.930 . S
C6 C4 1.380 . S
C6 C5 1.384 . S
C6 H33 0.931 . S
C7 C4 1.374 . S
C7 C8 1.390 . S
C7 H34 0.930 . S
C8 C7 1.390 . S
C8 C9 1.391 . S
C8 H35 0.930 . S
C9 C5 1.387 . S
C9 C8 1.391 . S
C10 Tb0 2.825 . S
C10 C4 1.507 . S
C10 O23 1.238 . S
C10 O24 1.247 . S
O11 Tb0 2.347 . S
O11 C15 1.259 . S
O12 Eu1 2.418 . S
O12 C15 1.265 . S
O13 Eu1 2.384 . S
O13 C22 1.255 . S
O14 Tb0 2.366 . S
O14 C22 1.265 . S
C15 O11 1.259 . S
C15 O12 1.265 . S
O16 Eu1 2.479 1_655 S
O16 C31 1.238 . S
O17 Eu1 2.471 1_655 S
O17 C31 1.247 . S
O18 Eu1 2.347 . S
O18 C2 1.259 . S
O19 Tb0 2.418 . S
O19 C2 1.265 . S
O20 Tb0 2.384 1_655 S
O20 C3 1.255 . S
O21 Eu1 2.366 1_655 S
O21 C3 1.265 . S
C22 O13 1.255 . S
C22 O14 1.265 . S
O23 Tb0 2.479 . S
O23 C10 1.238 . S
O24 Tb0 2.471 . S
O24 C10 1.247 . S
C25 C28 1.380 . S
C25 C29 1.374 . S
C25 C31 1.507 . S
C26 C27 1.387 . S
C26 C30 1.391 . S
C27 C26 1.387 . S
C27 C28 1.384 . S
C27 H36 0.930 . S
C28 C25 1.380 . S
C28 C27 1.384 . S
C28 H37 0.931 . S
C29 C25 1.374 . S
C29 C30 1.390 . S
C29 H38 0.930 . S
C30 C26 1.391 . S
C30 C29 1.390 . S
C30 H39 0.930 . S
C31 Eu1 2.825 1_655 S
C31 O16 1.238 . S
C31 O17 1.247 . S
C31 C25 1.507 . S
H32 C5 0.930 . S
H33 C6 0.931 . S
H34 C7 0.930 . S
H35 C8 0.930 . S
H36 C27 0.930 . S
H37 C28 0.931 . S
H38 C29 0.930 . S
H39 C30 0.930 . S
Tb40 C50 2.825 . S
Tb40 O51 2.347 . S
Tb40 O54 2.366 . S
Tb40 O59 2.418 . S
Tb40 O60 2.384 1_545 S
Tb40 O63 2.479 . S
Tb40 O64 2.471 . S
Eu41 O52 2.418 . S
Eu41 O53 2.384 . S
Eu41 O56 2.479 1_545 S
Eu41 O57 2.471 1_545 S
Eu41 O58 2.347 . S
Eu41 O61 2.366 1_545 S
Eu41 C71 2.825 1_545 S
C42 O58 1.259 . S
C42 O59 1.265 . S
C43 O60 1.255 . S
C43 O61 1.265 . S
C44 C46 1.380 . S
C44 C47 1.374 . S
C44 C50 1.507 . S
C45 C46 1.384 . S
C45 C49 1.387 . S
C45 H72 0.930 . S
C46 C44 1.380 . S
C46 C45 1.384 . S
C46 H73 0.931 . S
C47 C44 1.374 . S
C47 C48 1.390 . S
C47 H74 0.930 . S
C48 C47 1.390 . S
C48 C49 1.391 . S
C48 H75 0.930 . S
C49 C45 1.387 . S
C49 C48 1.391 . S
C50 Tb40 2.825 . S
C50 C44 1.507 . S
C50 O63 1.238 . S
C50 O64 1.247 . S
O51 Tb40 2.347 . S
O51 C55 1.259 . S
O52 Eu41 2.418 . S
O52 C55 1.265 . S
O53 Eu41 2.384 . S
O53 C62 1.255 . S
O54 Tb40 2.366 . S
O54 C62 1.265 . S
C55 O51 1.259 . S
C55 O52 1.265 . S
O56 Eu41 2.479 1_565 S
O56 C71 1.238 . S
O57 Eu41 2.471 1_565 S
O57 C71 1.247 . S
O58 Eu41 2.347 . S
O58 C42 1.259 . S
O59 Tb40 2.418 . S
O59 C42 1.265 . S
O60 Tb40 2.384 1_565 S
O60 C43 1.255 . S
O61 Eu41 2.366 1_565 S
O61 C43 1.265 . S
C62 O53 1.255 . S
C62 O54 1.265 . S
O63 Tb40 2.479 . S
O63 C50 1.238 . S
O64 Tb40 2.471 . S
O64 C50 1.247 . S
C65 C68 1.380 . S
C65 C69 1.374 . S
C65 C71 1.507 . S
C66 C67 1.387 . S
C66 C70 1.391 . S
C67 C66 1.387 . S
C67 C68 1.384 . S
C67 H76 0.930 . S
C68 C65 1.380 . S
C68 C67 1.384 . S
C68 H77 0.931 . S
C69 C65 1.374 . S
C69 C70 1.390 . S
C69 H78 0.930 . S
C70 C66 1.391 . S
C70 C69 1.390 . S
C70 H79 0.930 . S
C71 Eu41 2.825 1_565 S
C71 O56 1.238 . S
C71 O57 1.247 . S
C71 C65 1.507 . S
H72 C45 0.930 . S
H73 C46 0.931 . S
H74 C47 0.930 . S
H75 C48 0.930 . S
H76 C67 0.930 . S
H77 C68 0.931 . S
H78 C69 0.930 . S
H79 C70 0.930 . S
Tb80 C90 2.825 . S
Tb80 O91 2.347 . S
Tb80 O94 2.366 . S
Tb80 O99 2.418 . S
Tb80 O100 2.384 . S
Tb80 O103 2.479 . S
Tb80 O104 2.471 . S
Eu81 O92 2.418 . S
Eu81 O93 2.384 . S
Eu81 O96 2.479 . S
Eu81 O97 2.471 . S
Eu81 O98 2.347 . S
Eu81 O101 2.366 . S
Eu81 C111 2.825 . S
C82 O98 1.259 . S
C82 O99 1.265 . S
C83 O100 1.255 . S
C83 O101 1.265 . S
C84 C86 1.380 . S
C84 C87 1.374 . S
C84 C90 1.507 . S
C85 C86 1.384 . S
C85 C89 1.387 . S
C85 H112 0.930 . S
C86 C84 1.380 . S
C86 C85 1.384 . S
C86 H113 0.931 . S
C87 C84 1.374 . S
C87 C88 1.390 . S
C87 H114 0.930 . S
C88 C87 1.390 . S
C88 C89 1.391 . S
C88 H115 0.930 . S
C89 C85 1.387 . S
C89 C88 1.391 . S
C90 Tb80 2.825 . S
C90 C84 1.507 . S
C90 O103 1.238 . S
C90 O104 1.247 . S
O91 Tb80 2.347 . S
O91 C95 1.259 . S
O92 Eu81 2.418 . S
O92 C95 1.265 . S
O93 Eu81 2.384 . S
O93 C102 1.255 . S
O94 Tb80 2.366 . S
O94 C102 1.265 . S
C95 O91 1.259 . S
C95 O92 1.265 . S
O96 Eu81 2.479 . S
O96 C111 1.238 . S
O97 Eu81 2.471 . S
O97 C111 1.247 . S
O98 Eu81 2.347 . S
O98 C82 1.259 . S
O99 Tb80 2.418 . S
O99 C82 1.265 . S
O100 Tb80 2.384 . S
O100 C83 1.255 . S
O101 Eu81 2.366 . S
O101 C83 1.265 . S
C102 O93 1.255 . S
C102 O94 1.265 . S
O103 Tb80 2.479 . S
O103 C90 1.238 . S
O104 Tb80 2.471 . S
O104 C90 1.247 . S
C105 C108 1.380 . S
C105 C109 1.374 . S
C105 C111 1.507 . S
C106 C107 1.387 . S
C106 C110 1.391 . S
C107 C106 1.387 . S
C107 C108 1.384 . S
C107 H116 0.930 . S
C108 C105 1.380 . S
C108 C107 1.384 . S
C108 H117 0.931 . S
C109 C105 1.374 . S
C109 C110 1.390 . S
C109 H118 0.930 . S
C110 C106 1.391 . S
C110 C109 1.390 . S
C110 H119 0.930 . S
C111 Eu81 2.825 . S
C111 O96 1.238 . S
C111 O97 1.247 . S
C111 C105 1.507 . S
H112 C85 0.930 . S
H113 C86 0.931 . S
H114 C87 0.930 . S
H115 C88 0.930 . S
H116 C107 0.930 . S
H117 C108 0.931 . S
H118 C109 0.930 . S
H119 C110 0.930 . S
H120 C125 0.928 1_565 S
H121 C128 0.930 . S
H122 C130 0.930 . S
H123 C124 1.016 . S
C124 H123 1.016 . S
C124 N131 1.286 . S
C125 H120 0.928 1_545 S
C125 C126 1.397 1_545 S
C125 C127 1.361 . S
C126 C125 1.397 1_565 S
C126 C130 1.390 . S
C127 C125 1.361 . S
C127 C128 1.393 . S
C127 N131 1.413 . S
C128 H121 0.930 . S
C128 C127 1.393 . S
C128 C129 1.399 . S
C129 C128 1.399 . S
C129 C130 1.381 1_545 S
C130 H122 0.930 . S
C130 C126 1.390 . S
C130 C129 1.381 1_565 S
N131 C124 1.286 . S
N131 C127 1.413 . S
H132 C137 0.930 . S
H133 C140 0.930 . S
H134 C142 0.930 . S
H135 C136 1.016 . S
C136 H135 1.016 . S
C136 N143 1.286 . S
C137 H132 0.930 . S
C137 C138 1.397 . S
C137 C139 1.361 . S
C138 C137 1.397 . S
C138 C142 1.390 . S
C139 C137 1.361 . S
C139 C140 1.393 . S
C139 N143 1.413 . S
C140 H133 0.930 . S
C140 C139 1.393 . S
C140 C141 1.399 . S
C141 C140 1.399 . S
C141 C142 1.381 . S
C142 H134 0.930 . S
C142 C138 1.390 . S
C142 C141 1.381 . S
N143 C136 1.286 . S
N143 C139 1.413 . S
H144 C149 0.930 . S
H145 C152 0.930 . S
H146 C154 0.930 . S
H147 C148 1.016 . S
C148 H147 1.016 . S
C148 N155 1.286 . S
C149 H144 0.930 . S
C149 C150 1.397 . S
C149 C151 1.361 1_655 S
C150 C149 1.397 . S
C150 C154 1.390 . S
C151 C149 1.361 1_455 S
C151 C152 1.393 . S
C151 N155 1.413 . S
C152 H145 0.930 . S
C152 C151 1.393 . S
C152 C153 1.399 . S
C153 C152 1.399 . S
C153 C154 1.381 1_455 S
C154 H146 0.930 . S
C154 C150 1.390 . S
C154 C153 1.381 1_655 S
N155 C148 1.286 . S
N155 C151 1.413 . S
H156 C161 0.930 . S
H157 C164 0.930 . S
H158 C166 0.930 . S
H159 C160 1.016 . S
C160 H159 1.016 . S
C160 N167 1.286 . S
C161 H156 0.930 . S
C161 C162 1.397 . S
C161 C163 1.361 . S
C162 C161 1.397 . S
C162 C166 1.390 . S
C163 C161 1.361 . S
C163 C164 1.393 1_455 S
C163 N167 1.413 1_455 S
C164 H157 0.930 . S
C164 C163 1.393 1_655 S
C164 C165 1.399 1_655 S
C165 C164 1.399 1_455 S
C165 C166 1.381 . S
C166 H158 0.930 . S
C166 C162 1.390 . S
C166 C165 1.381 . S
N167 C160 1.286 . S
N167 C163 1.413 1_655 S
H168 C173 0.930 . S
H169 C176 0.930 . S
H170 C178 0.930 . S
H171 C172 1.016 . S
C172 H171 1.016 . S
C172 N179 1.286 . S
C173 H168 0.930 . S
C173 C174 1.397 . S
C173 C175 1.361 1_545 S
C174 C173 1.397 . S
C174 C178 1.390 . S
C175 C173 1.361 1_565 S
C175 C176 1.393 . S
C175 N179 1.413 . S
C176 H169 0.930 . S
C176 C175 1.393 . S
C176 C177 1.399 1_565 S
C177 C176 1.399 1_545 S
C177 C178 1.381 . S
C178 H170 0.930 . S
C178 C174 1.390 . S
C178 C177 1.381 . S
N179 C172 1.286 . S
N179 C175 1.413 . S
H180 C185 0.930 . S
H181 C188 0.930 . S
H182 C190 0.930 . S
H183 C184 1.016 . S
C184 H183 1.016 . S
C184 N191 1.286 . S
C185 H180 0.930 . S
C185 C186 1.397 . S
C185 C187 1.361 . S
C186 C185 1.397 . S
C186 C190 1.390 . S
C187 C185 1.361 . S
C187 C188 1.393 . S
C187 N191 1.413 . S
C188 H181 0.930 . S
C188 C187 1.393 . S
C188 C189 1.399 . S
C189 C188 1.399 . S
C189 C190 1.381 . S
C190 H182 0.930 . S
C190 C186 1.390 . S
C190 C189 1.381 . S
N191 C184 1.286 . S
N191 C187 1.413 . S
C192 C193 1.387 . S
C192 H196 0.950 . S
C192 C201 1.390 . S
C193 C192 1.387 . S
C193 C195 1.387 . S
H194 C201 0.950 . S
C195 C193 1.387 . S
C195 C197 1.390 . S
C195 H199 0.950 . S
H196 C192 0.950 . S
C197 C195 1.390 . S
C197 C198 1.387 . S
C197 H200 0.950 . S
C198 C197 1.387 . S
C198 C201 1.387 . S
H199 C195 0.950 . S
H200 C197 0.950 . S
C201 C192 1.390 . S
C201 H194 0.950 . S
C201 C198 1.387 . S
C202 C203 1.387 . S
C202 H206 0.950 . S
C202 C211 1.390 . S
C203 C202 1.387 . S
C203 C205 1.387 . S
H204 C211 0.950 . S
C205 C203 1.387 . S
C205 C207 1.390 . S
C205 H209 0.950 . S
H206 C202 0.950 . S
C207 C205 1.390 . S
C207 C208 1.387 . S
C207 H210 0.950 . S
C208 C207 1.387 . S
C208 C211 1.387 . S
H209 C205 0.950 . S
H210 C207 0.950 . S
C211 C202 1.390 . S
C211 H204 0.950 . S
C211 C208 1.387 . S
C212 C213 1.387 . S
C212 H216 0.950 . S
C212 C221 1.390 . S
C213 C212 1.387 . S
C213 C215 1.387 . S
H214 C221 0.950 . S
C215 C213 1.387 . S
C215 C217 1.390 . S
C215 H219 0.950 . S
H216 C212 0.950 . S
C217 C215 1.390 . S
C217 C218 1.387 . S
C217 H220 0.950 . S
C218 C217 1.387 . S
C218 C221 1.387 . S
H219 C215 0.950 . S
H220 C217 0.950 . S
C221 C212 1.390 . S
C221 H214 0.950 . S
C221 C218 1.387 . S
C222 C223 1.387 . S
C222 H226 0.950 . S
C222 C231 1.390 . S
C223 C222 1.387 . S
C223 C225 1.387 . S
H224 C231 0.950 . S
C225 C223 1.387 . S
C225 C227 1.390 . S
C225 H229 0.950 . S
H226 C222 0.950 . S
C227 C225 1.390 . S
C227 C228 1.387 . S
C227 H230 0.950 . S
C228 C227 1.387 . S
C228 C231 1.387 . S
H229 C225 0.950 . S
H230 C227 0.950 . S
C231 C222 1.390 . S
C231 H224 0.950 . S
C231 C228 1.387 . S
C232 C233 1.387 . S
C232 H236 0.950 . S
C232 C241 1.390 . S
C233 C232 1.387 . S
C233 C235 1.387 . S
H234 C241 0.950 . S
C235 C233 1.387 . S
C235 C237 1.390 . S
C235 H239 0.950 . S
H236 C232 0.950 . S
C237 C235 1.390 . S
C237 C238 1.387 . S
C237 H240 0.950 . S
C238 C237 1.387 . S
C238 C241 1.387 . S
H239 C235 0.950 . S
H240 C237 0.950 . S
C241 C232 1.390 . S
C241 H234 0.950 . S
C241 C238 1.387 . S
C242 C243 1.387 . S
C242 H246 0.950 . S
C242 C251 1.390 . S
C243 C242 1.387 . S
C243 C245 1.387 . S
H244 C251 0.950 . S
C245 C243 1.387 . S
C245 C247 1.390 . S
C245 H249 0.950 . S
H246 C242 0.950 . S
C247 C245 1.390 . S
C247 C248 1.387 . S
C247 H250 0.950 . S
C248 C247 1.387 . S
C248 C251 1.387 . S
H249 C245 0.950 . S
H250 C247 0.950 . S
C251 C242 1.390 . S
C251 H244 0.950 . S
C251 C248 1.387 . S
C252 C253 1.387 . S
C252 H256 0.950 . S
C252 C261 1.390 . S
C253 C252 1.387 . S
C253 C255 1.387 . S
H254 C261 0.950 . S
C255 C253 1.387 . S
C255 C257 1.390 . S
C255 H259 0.950 . S
H256 C252 0.950 . S
C257 C255 1.390 . S
C257 C258 1.387 . S
C257 H260 0.950 . S
C258 C257 1.387 . S
C258 C261 1.387 . S
H259 C255 0.950 . S
H260 C257 0.950 . S
C261 C252 1.390 . S
C261 H254 0.950 . S
C261 C258 1.387 . S
C262 C263 1.387 . S
C262 H266 0.950 . S
C262 C271 1.390 . S
C263 C262 1.387 . S
C263 C265 1.387 . S
H264 C271 0.950 . S
C265 C263 1.387 . S
C265 C267 1.390 . S
C265 H269 0.950 . S
H266 C262 0.950 . S
C267 C265 1.390 . S
C267 C268 1.387 . S
C267 H270 0.950 . S
C268 C267 1.387 . S
C268 C271 1.387 . S
H269 C265 0.950 . S
H270 C267 0.950 . S
C271 C262 1.390 . S
C271 H264 0.950 . S
C271 C268 1.387 . S
C272 C273 1.387 . S
C272 H276 0.950 . S
C272 C281 1.390 . S
C273 C272 1.387 . S
C273 C275 1.387 . S
H274 C281 0.950 . S
C275 C273 1.387 . S
C275 C277 1.390 . S
C275 H279 0.950 . S
H276 C272 0.950 . S
C277 C275 1.390 . S
C277 C278 1.387 . S
C277 H280 0.950 . S
C278 C277 1.387 . S
C278 C281 1.387 . S
H279 C275 0.950 . S
H280 C277 0.950 . S
C281 C272 1.390 . S
C281 H274 0.950 . S
C281 C278 1.387 . S
C282 C283 1.387 . S
C282 H286 0.950 . S
C282 C291 1.390 . S
C283 C282 1.387 . S
C283 C285 1.387 . S
H284 C291 0.950 . S
C285 C283 1.387 . S
C285 C287 1.390 . S
C285 H289 0.950 . S
H286 C282 0.950 . S
C287 C285 1.390 . S
C287 C288 1.387 . S
C287 H290 0.950 . S
C288 C287 1.387 . S
C288 C291 1.387 . S
H289 C285 0.950 . S
H290 C287 0.950 . S
C291 C282 1.390 . S
C291 H284 0.950 . S
C291 C288 1.387 . S
C292 C293 1.387 . S
C292 H296 0.950 . S
C292 C301 1.390 . S
C293 C292 1.387 . S
C293 C295 1.387 . S
H294 C301 0.950 . S
C295 C293 1.387 . S
C295 C297 1.390 . S
C295 H299 0.950 . S
H296 C292 0.950 . S
C297 C295 1.390 . S
C297 C298 1.387 . S
C297 H300 0.950 . S
C298 C297 1.387 . S
C298 C301 1.387 . S
H299 C295 0.950 . S
H300 C297 0.950 . S
C301 C292 1.390 . S
C301 H294 0.950 . S
C301 C298 1.387 . S
C302 C303 1.387 . S
C302 H306 0.950 . S
C302 C311 1.390 . S
C303 C302 1.387 . S
C303 C305 1.387 . S
H304 C311 0.950 . S
C305 C303 1.387 . S
C305 C307 1.390 . S
C305 H309 0.950 . S
H306 C302 0.950 . S
C307 C305 1.390 . S
C307 C308 1.387 . S
C307 H310 0.950 . S
C308 C307 1.387 . S
C308 C311 1.387 . S
H309 C305 0.950 . S
H310 C307 0.950 . S
C311 C302 1.390 . S
C311 H304 0.950 . S
C311 C308 1.387 . S
C312 C313 1.387 . S
C312 H316 0.950 . S
C312 C321 1.390 . S
C313 C312 1.387 . S
C313 C315 1.387 . S
H314 C321 0.950 1_556 S
C315 C313 1.387 . S
C315 C317 1.360 1_454 S
C315 H319 0.950 1_455 S
H316 C312 0.950 . S
C317 C315 1.360 1_656 S
C317 C318 1.404 1_655 S
C317 H320 0.964 . S
C318 C317 1.404 1_455 S
C318 C321 1.387 1_556 S
H319 C315 0.950 1_655 S
H320 C317 0.964 . S
C321 C312 1.390 . S
C321 H314 0.950 1_554 S
C321 C318 1.387 1_554 S
C322 C323 1.387 . S
C322 H326 0.950 . S
C322 C331 1.390 . S
C323 C322 1.387 . S
C323 C325 1.387 1_545 S
H324 C331 0.950 . S
C325 C323 1.387 1_565 S
C325 C327 1.390 . S
C325 H329 0.950 . S
H326 C322 0.950 . S
C327 C325 1.390 . S
C327 C328 1.387 1_565 S
C327 H330 0.950 . S
C328 C327 1.387 1_545 S
C328 C331 1.387 . S
H329 C325 0.950 . S
H330 C327 0.950 . S
C331 C322 1.390 . S
C331 H324 0.950 . S
C331 C328 1.387 . S
C332 C333 1.387 . S
C332 H336 0.950 . S
C332 C341 1.390 . S
C333 C332 1.387 . S
C333 C335 1.387 . S
H334 C341 0.950 . S
C335 C333 1.387 . S
C335 C337 1.390 . S
C335 H339 0.950 . S
H336 C332 0.950 . S
C337 C335 1.390 . S
C337 C338 1.387 . S
C337 H340 0.950 . S
C338 C337 1.387 . S
C338 C341 1.387 . S
H339 C335 0.950 . S
H340 C337 0.950 . S
C341 C332 1.390 . S
C341 H334 0.950 . S
C341 C338 1.387 . S
C342 C343 1.387 . S
C342 H346 0.950 . S
C342 C351 1.390 . S
C343 C342 1.387 . S
C343 C345 1.387 . S
H344 C351 0.950 . S
C345 C343 1.387 . S
C345 C347 1.390 . S
C345 H349 0.950 . S
H346 C342 0.950 . S
C347 C345 1.390 . S
C347 C348 1.387 . S
C347 H350 0.950 . S
C348 C347 1.387 . S
C348 C351 1.387 . S
H349 C345 0.950 . S
H350 C347 0.950 . S
C351 C342 1.390 . S
C351 H344 0.950 . S
C351 C348 1.387 . S
C352 C353 1.387 . S
C352 H356 0.950 . S
C352 C361 1.390 . S
C353 C352 1.387 . S
C353 C355 1.387 . S
H354 C361 0.943 1_554 S
C355 C353 1.387 . S
C355 C357 1.390 1_556 S
C355 H359 0.950 . S
H356 C352 0.950 . S
C357 C355 1.390 1_554 S
C357 C358 1.387 . S
C357 H360 0.950 . S
C358 C357 1.387 . S
C358 C361 1.387 1_554 S
H359 C355 0.950 . S
H360 C357 0.950 . S
C361 C352 1.390 . S
C361 H354 0.943 1_556 S
C361 C358 1.387 1_556 S
C362 C363 1.387 . S
C362 H366 0.950 . S
C362 C371 1.390 . S
C363 C362 1.387 . S
C363 C365 1.387 . S
H364 C371 0.950 . S
C365 C363 1.387 . S
C365 C367 1.390 . S
C365 H369 0.950 . S
H366 C362 0.950 . S
C367 C365 1.390 . S
C367 C368 1.387 . S
C367 H370 0.950 . S
C368 C367 1.387 . S
C368 C371 1.387 . S
H369 C365 0.950 . S
H370 C367 0.950 . S
C371 C362 1.390 . S
C371 H364 0.950 . S
C371 C368 1.387 . S
C193 C9 0.905 . S
C198 C186 0.951 . S
C203 C49 0.680 . S
C208 C160 0.636 . S
C213 C89 0.631 . S
C218 C172 0.568 . S
C223 C26 0.662 . S
C228 C184 0.555 . S
C238 C162 0.552 . S
C233 C66 0.661 . S
C248 C174 0.594 . S
C243 C106 0.677 . S
C253 C43 3.085 . S
C258 C136 2.998 . S
C263 C83 3.303 . S
C268 C150 3.281 . S
C273 C22 3.085 . S
C278 C126 3.027 . S
C288 C138 3.032 . S
C283 C62 3.087 . S
C298 C148 2.768 . S
C293 C102 2.904 . S
C303 C3 3.085 . S
C308 C124 3.004 . S
C318 C153 1.833 . S
C313 C15 1.739 . S
C323 C55 1.774 . S
C328 C129 1.795 . S
C333 C95 1.754 . S
C338 C141 1.778 . S
C348 C177 1.122 . S
C343 C42 1.098 . S
C358 C189 1.155 . S
C353 C82 1.144 . S
C363 C2 1.094 . S
C368 C165 1.104 . S
