# Generated by pormake.
# Topology pyr, (3,6)-cn, num edge types: 1
# Building blocks:
#     Node 0, Type 0, BuildingBlock: BETDAH_clean_linker_0, # of connection points: 3
#     Node 1, Type 0, BuildingBlock: BETDAH_clean_linker_0, # of connection points: 3
#     Node 2, Type 0, BuildingBlock: BETDAH_clean_linker_0, # of connection points: 3
#     Node 3, Type 0, BuildingBlock: BETDAH_clean_linker_0, # of connection points: 3
#     Node 4, Type 0, BuildingBlock: BETDAH_clean_linker_0, # of connection points: 3
#     Node 5, Type 0, BuildingBlock: BETDAH_clean_linker_0, # of connection points: 3
#     Node 6, Type 0, BuildingBlock: BETDAH_clean_linker_0, # of connection points: 3
#     Node 7, Type 0, BuildingBlock: BETDAH_clean_linker_0, # of connection points: 3
#     Node 8, Type 1, BuildingBlock: MIDCAF_clean_sbu_0, # of connection points: 6
#     Node 9, Type 1, BuildingBlock: MIDCAF_clean_sbu_0, # of connection points: 6
#     Node 10, Type 1, BuildingBlock: MIDCAF_clean_sbu_0, # of connection points: 6
#     Node 11, Type 1, BuildingBlock: MIDCAF_clean_sbu_0, # of connection points: 6
#     Edge 12, Type (0, 1), BuildingBlock: CIFDUS_clean_linker_0, # of connection points: 2
#     Edge 13, Type (0, 1), BuildingBlock: CIFDUS_clean_linker_0, # of connection points: 2
#     Edge 14, Type (0, 1), BuildingBlock: CIFDUS_clean_linker_0, # of connection points: 2
#     Edge 15, Type (0, 1), BuildingBlock: CIFDUS_clean_linker_0, # of connection points: 2
#     Edge 16, Type (0, 1), BuildingBlock: CIFDUS_clean_linker_0, # of connection points: 2
#     Edge 17, Type (0, 1), BuildingBlock: CIFDUS_clean_linker_0, # of connection points: 2
#     Edge 18, Type (0, 1), BuildingBlock: CIFDUS_clean_linker_0, # of connection points: 2
#     Edge 19, Type (0, 1), BuildingBlock: CIFDUS_clean_linker_0, # of connection points: 2
#     Edge 20, Type (0, 1), BuildingBlock: CIFDUS_clean_linker_0, # of connection points: 2
#     Edge 21, Type (0, 1), BuildingBlock: CIFDUS_clean_linker_0, # of connection points: 2
#     Edge 22, Type (0, 1), BuildingBlock: CIFDUS_clean_linker_0, # of connection points: 2
#     Edge 23, Type (0, 1), BuildingBlock: CIFDUS_clean_linker_0, # of connection points: 2
#     Edge 24, Type (0, 1), BuildingBlock: CIFDUS_clean_linker_0, # of connection points: 2
#     Edge 25, Type (0, 1), BuildingBlock: CIFDUS_clean_linker_0, # of connection points: 2
#     Edge 26, Type (0, 1), BuildingBlock: CIFDUS_clean_linker_0, # of connection points: 2
#     Edge 27, Type (0, 1), BuildingBlock: CIFDUS_clean_linker_0, # of connection points: 2
#     Edge 28, Type (0, 1), BuildingBlock: CIFDUS_clean_linker_0, # of connection points: 2
#     Edge 29, Type (0, 1), BuildingBlock: CIFDUS_clean_linker_0, # of connection points: 2
#     Edge 30, Type (0, 1), BuildingBlock: CIFDUS_clean_linker_0, # of connection points: 2
#     Edge 31, Type (0, 1), BuildingBlock: CIFDUS_clean_linker_0, # of connection points: 2
#     Edge 32, Type (0, 1), BuildingBlock: CIFDUS_clean_linker_0, # of connection points: 2
#     Edge 33, Type (0, 1), BuildingBlock: CIFDUS_clean_linker_0, # of connection points: 2
#     Edge 34, Type (0, 1), BuildingBlock: CIFDUS_clean_linker_0, # of connection points: 2
#     Edge 35, Type (0, 1), BuildingBlock: CIFDUS_clean_linker_0, # of connection points: 2
# Relax obj value: 0.087
# Max RMSD: 0.180
# Mean RMSD: 0.134
data_MOF--net-pyr--node1-MIDCAF_clean_sbu_0--node2-BETDAH_clean_linker_0--edge1-CIFDUS_clean_linker_0
_symmetry_space_group_name_H-M    P1
_symmetry_Int_Tables_number       1
_symmetry_cell_setting            triclinic
loop_
_symmetry_equiv_pos_as_xyz
'x, y, z'
_cell_length_a     29.975536
_cell_length_b     30.611959
_cell_length_c     31.706638
_cell_angle_alpha  90.28045
_cell_angle_beta   90.983461
_cell_angle_gamma 96.895688
loop_
_atom_site_label
_atom_site_type_symbol
_atom_site_fract_x
_atom_site_fract_y
_atom_site_fract_z
_atom_type_partial_charge
H0 H 0.25454 0.16033 0.27979 0.0
H1 H 0.32611 0.2778 0.22862 0.0
H2 H 0.21762 0.28736 0.31411 0.0
C3 C 0.25975 0.19591 0.27751 0.0
C4 C 0.23249 0.22128 0.30075 0.0
C5 C 0.29357 0.21578 0.25129 0.0
C6 C 0.30049 0.2619 0.24901 0.0
C7 C 0.27257 0.28772 0.27074 0.0
C8 C 0.23881 0.2674 0.29695 0.0
N9 N 0.27995 0.33416 0.26665 0.0
C10 C 0.24714 0.35918 0.25189 0.0
H11 H 0.38105 0.80906 0.80228 0.0
H12 H 0.24585 0.84113 0.81643 0.0
H13 H 0.27225 0.74267 0.7269 0.0
C14 C 0.34563 0.80381 0.79383 0.0
C15 C 0.33048 0.77243 0.76245 0.0
C16 C 0.31557 0.82905 0.81367 0.0
C17 C 0.26986 0.82254 0.80147 0.0
C18 C 0.25448 0.79166 0.77025 0.0
C19 C 0.28454 0.76623 0.75128 0.0
N20 N 0.20839 0.78543 0.75853 0.0
C21 C 0.19038 0.81331 0.73011 0.0
H22 H 0.74247 0.32888 0.92765 0.0
H23 H 0.81523 0.3714 0.81633 0.0
H24 H 0.70032 0.27306 0.8066 0.0
C25 C 0.747 0.32692 0.89385 0.0
C26 C 0.71765 0.29734 0.86959 0.0
C27 C 0.78246 0.35364 0.87507 0.0
C28 C 0.78861 0.35032 0.83142 0.0
C29 C 0.75862 0.32168 0.80675 0.0
C30 C 0.72352 0.29492 0.82589 0.0
N31 N 0.76201 0.32203 0.76236 0.0
C32 C 0.73173 0.34273 0.73831 0.0
H33 H 0.76176 0.79407 0.40413 0.0
H34 H 0.82157 0.79853 0.28148 0.0
H35 H 0.6989 0.71446 0.30248 0.0
C36 C 0.76068 0.78415 0.37126 0.0
C37 C 0.72554 0.75288 0.35661 0.0
C38 C 0.79535 0.80145 0.34457 0.0
C39 C 0.79544 0.78554 0.30276 0.0
C40 C 0.76094 0.75378 0.28779 0.0
C41 C 0.72579 0.73831 0.31453 0.0
N42 N 0.76005 0.73744 0.24574 0.0
C43 C 0.79831 0.7329 0.22257 0.0
H44 H 0.99416 0.87377 0.86647 0.0
H45 H 0.88343 0.83968 0.95011 0.0
H46 H 0.8827 0.95009 0.86773 0.0
C47 C 0.96194 0.87954 0.87895 0.0
C48 C 0.94069 0.91476 0.86302 0.0
C49 C 0.94216 0.8525 0.91127 0.0
C50 C 0.90031 0.86094 0.9266 0.0
C51 C 0.87921 0.89629 0.91164 0.0
C52 C 0.89961 0.92342 0.88015 0.0
N53 N 0.83647 0.90213 0.92778 0.0
C54 C 0.81712 0.94119 0.92681 0.0
H55 H 0.68486 0.09483 0.3779 0.0
H56 H 0.6603 0.16335 0.493 0.0
H57 H 0.57542 0.17329 0.38438 0.0
C58 C 0.66613 0.11671 0.39551 0.0
C59 C 0.62995 0.13419 0.37544 0.0
C60 C 0.67744 0.12634 0.43815 0.0
C61 C 0.652 0.15452 0.46045 0.0
C62 C 0.61482 0.17059 0.44116 0.0
C63 C 0.60372 0.15994 0.39906 0.0
N64 N 0.5864 0.19568 0.46384 0.0
C65 C 0.60143 0.22959 0.49181 0.0
H66 H 0.37421 0.69268 0.11966 0.0
H67 H 0.41605 0.59396 0.20232 0.0
H68 H 0.51513 0.68487 0.14243 0.0
C69 C 0.40106 0.67769 0.13506 0.0
C70 C 0.446 0.69377 0.12745 0.0
C71 C 0.39011 0.64206 0.16223 0.0
C72 C 0.4245 0.62155 0.18148 0.0
C73 C 0.46974 0.63706 0.17376 0.0
C74 C 0.48009 0.67259 0.14666 0.0
N75 N 0.50576 0.61841 0.19339 0.0
C76 C 0.5024 0.59874 0.23268 0.0
H77 H 0.1634 0.41429 0.57533 0.0
H78 H 0.12797 0.49907 0.67507 0.0
H79 H 0.03222 0.39269 0.63 0.0
C80 C 0.13901 0.42355 0.59755 0.0
C81 C 0.0966 0.39883 0.5995 0.0
C82 C 0.15017 0.46017 0.62426 0.0
C83 C 0.11924 0.47115 0.65412 0.0
C84 C 0.07637 0.4469 0.65568 0.0
C85 C 0.06505 0.41165 0.62784 0.0
N86 N 0.04385 0.45705 0.68488 0.0
C87 C 0.05481 0.46926 0.7263 0.0
Zn88 Zn 0.96977 0.09098 0.59106 0.0
Zn89 Zn 0.0573 0.99812 0.49548 0.0
Zn90 Zn 0.01303 0.04577 0.54139 0.0
C91 C 0.08757 0.08393 0.47334 0.0
C92 C 0.96781 0.97516 0.47231 0.0
O93 O 0.0147 0.01877 0.60793 0.0
O94 O 0.97631 0.06206 0.64533 0.0
C95 C 0.03558 0.15046 0.55594 0.0
O96 O 0.06411 0.09129 0.5059 0.0
O97 O 0.08874 0.04499 0.46061 0.0
O98 O 0.00594 0.96233 0.46804 0.0
O99 O 0.96352 0.00812 0.49689 0.0
O100 O 0.00421 0.14875 0.58206 0.0
O101 O 0.04453 0.11532 0.53685 0.0
O102 O 0.94223 0.04204 0.51622 0.0
O103 O 0.91049 0.08164 0.56307 0.0
C104 C 0.90775 0.05949 0.52931 0.0
O105 O 0.04666 1.00046 0.58346 0.0
O106 O 0.09072 0.96967 0.53992 0.0
C107 C 0.99772 0.02912 0.64338 0.0
C108 C 0.07731 0.97501 0.5769 0.0
Zn109 Zn 0.45978 0.0851 0.00844 0.0
Zn110 Zn 0.57718 0.00526 0.08291 0.0
Zn111 Zn 0.51677 0.04317 0.04674 0.0
C112 C 0.62046 0.03936 0.01493 0.0
C113 C 0.50789 0.93951 0.06294 0.0
O114 O 0.48683 0.08549 0.09451 0.0
O115 O 0.42722 0.10175 0.05859 0.0
C116 C 0.54272 0.11836 0.97866 0.0
O117 O 0.58145 0.05289 0.01005 0.0
O118 O 0.62868 0.01719 0.04683 0.0
O119 O 0.54592 0.94489 0.08113 0.0
O120 O 0.49099 0.97249 0.0467 0.0
O121 O 0.50411 0.1304 0.98211 0.0
O122 O 0.55256 0.08355 0.99767 0.0
O123 O 0.46647 0.99287 0.01585 0.0
O124 O 0.4318 0.03505 0.97316 0.0
C125 C 0.4387 0.99705 0.98497 0.0
O126 O 0.52349 0.06826 0.11386 0.0
O127 O 0.58178 0.03644 0.13648 0.0
C128 C 0.44921 0.10216 0.09291 0.0
C129 C 0.55293 0.06231 0.14286 0.0
Zn130 Zn 0.56761 0.60422 0.61247 0.0
Zn131 Zn 0.45829 0.48099 0.5366 0.0
Zn132 Zn 0.51102 0.54126 0.57622 0.0
C133 C 0.52066 0.43614 0.57627 0.0
C134 C 0.49109 0.53644 0.47443 0.0
O135 O 0.47134 0.5784 0.62083 0.0
O136 O 0.52233 0.63133 0.64497 0.0
C137 C 0.59726 0.52323 0.63354 0.0
O138 O 0.53593 0.47592 0.58709 0.0
O139 O 0.48486 0.42856 0.55469 0.0
O140 O 0.46692 0.50004 0.47793 0.0
O141 O 0.5099 0.55611 0.50744 0.0
O142 O 0.60644 0.56406 0.64033 0.0
O143 O 0.56298 0.50863 0.6102 0.0
O144 O 0.54479 0.58464 0.52676 0.0
O145 O 0.59078 0.6351 0.56121 0.0
C146 C 0.57497 0.6185 0.5268 0.0
O147 O 0.44228 0.54266 0.60237 0.0
O148 O 0.40223 0.49203 0.56263 0.0
C149 C 0.48211 0.61346 0.64349 0.0
C150 C 0.40437 0.52042 0.59171 0.0
Zn151 Zn 0.10482 0.59297 0.02295 0.0
Zn152 Zn 0.98535 0.5154 0.1082 0.0
Zn153 Zn 0.04331 0.55734 0.06366 0.0
C154 C 0.06343 0.48372 0.13268 0.0
C155 C 0.96192 0.49169 0.02614 0.0
O156 O 0.02744 0.62676 0.05816 0.0
O157 O 0.0749 0.64424 0.00691 0.0
C158 C 0.14793 0.57434 0.09292 0.0
O159 O 0.0784 0.51839 0.11168 0.0
O160 O 0.02169 0.47178 0.1335 0.0
O161 O 0.94321 0.49401 0.06132 0.0
O162 O 1.00226 0.51048 0.02123 0.0
O163 O 0.15451 0.60214 0.0639 0.0
O164 O 0.10944 0.55077 0.09593 0.0
O165 O 0.03842 0.53278 0.99727 0.0
O166 O 0.10795 0.55052 0.97619 0.0
C167 C 0.06865 0.53199 0.96887 0.0
O168 O 0.00396 0.60708 0.09251 0.0
O169 O 0.97166 0.56594 0.1432 0.0
C170 C 0.04225 0.65319 0.02856 0.0
C171 C 0.98053 0.60315 0.12633 0.0
H172 H 0.21823 0.23289 0.38525 0.0
H173 H 0.16692 0.15764 0.2758 0.0
H174 H 0.11459 0.11145 0.31957 0.0
H175 H 0.08859 0.08777 0.38915 0.0
H176 H 0.14075 0.1591 0.50007 0.0
H177 H 0.18678 0.21212 0.45591 0.0
C178 C 0.19491 0.2069 0.37106 0.0
C179 C 0.19661 0.19843 0.32736 0.0
C180 C 0.16523 0.17974 0.39675 0.0
C181 C 0.16648 0.1645 0.30935 0.0
C182 C 0.13659 0.13806 0.33436 0.0
C183 C 0.10963 0.1153 0.40365 0.0
C184 C 0.11103 0.11985 0.44783 0.0
C185 C 0.13654 0.14462 0.37813 0.0
C186 C 0.13826 0.15564 0.46618 0.0
C187 C 0.16503 0.18552 0.44086 0.0
H188 H 0.37924 0.82503 0.87647 0.0
H189 H 0.28904 0.91079 0.82304 0.0
H190 H 0.31591 0.96782 0.87417 0.0
H191 H 0.36742 0.99518 0.93127 0.0
H192 H 0.46248 0.91294 0.98134 0.0
H193 H 0.43094 0.85267 0.93492 0.0
C194 C 0.36561 0.85627 0.87586 0.0
C195 C 0.33195 0.86333 0.84583 0.0
C196 C 0.38186 0.88953 0.90503 0.0
C197 C 0.31433 0.90392 0.84607 0.0
C198 C 0.32991 0.93679 0.87518 0.0
C199 C 0.38109 0.96396 0.93241 0.0
C200 C 0.4169 0.9585 0.96048 0.0
C201 C 0.36389 0.93012 0.90451 0.0
C202 C 0.43411 0.91777 0.96122 0.0
C203 C 0.41648 0.88346 0.93408 0.0
H204 H 0.75224 0.42412 0.71022 0.0
H205 H 0.64412 0.3186 0.71819 0.0
H206 H 0.59204 0.36502 0.6851 0.0
H207 H 0.57698 0.43768 0.65796 0.0
H208 H 0.68638 0.5423 0.64975 0.0
H209 H 0.7381 0.49481 0.67991 0.0
C210 C 0.71732 0.41134 0.70423 0.0
C211 C 0.70168 0.36837 0.71617 0.0
C212 C 0.68784 0.43827 0.68574 0.0
C213 C 0.65656 0.35178 0.70885 0.0
C214 C 0.62689 0.37831 0.69015 0.0
C215 C 0.61233 0.44954 0.66168 0.0
C216 C 0.6279 0.49317 0.651 0.0
C217 C 0.64208 0.42185 0.67888 0.0
C218 C 0.6735 0.50885 0.6578 0.0
C219 C 0.70319 0.48169 0.67489 0.0
H220 H 0.87901 0.71378 0.24971 0.0
H221 H 0.79742 0.72465 0.1381 0.0
H222 H 0.85245 0.69204 0.09533 0.0
H223 H 0.91795 0.6501 0.09214 0.0
H224 H 0.9968 0.63567 0.20487 0.0
H225 H 0.94974 0.68061 0.24462 0.0
C226 C 0.87404 0.70991 0.21585 0.0
C227 C 0.83457 0.72139 0.19683 0.0
C228 C 0.90538 0.69032 0.19175 0.0
C229 C 0.82787 0.71604 0.15315 0.0
C230 C 0.8592 0.69725 0.12879 0.0
C231 C 0.9257 0.65836 0.12497 0.0
C232 C 0.96107 0.64033 0.14553 0.0
C233 C 0.89737 0.6829 0.14798 0.0
C234 C 0.97011 0.64992 0.18839 0.0
C235 C 0.94293 0.67519 0.2112 0.0
H236 H 0.38478 0.2202 0.23892 0.0
H237 H 0.25737 0.14916 0.20046 0.0
H238 H 0.29506 0.10529 0.15112 0.0
H239 H 0.36305 0.09018 0.11542 0.0
H240 H 0.49152 0.15901 0.15271 0.0
H241 H 0.45502 0.20002 0.20655 0.0
C242 C 0.36546 0.19494 0.21983 0.0
C243 C 0.31825 0.18805 0.22331 0.0
C244 C 0.38756 0.16934 0.1915 0.0
C245 C 0.29366 0.15493 0.19866 0.0
C246 C 0.31518 0.1299 0.17031 0.0
C247 C 0.38315 0.11375 0.13579 0.0
C248 C 0.42983 0.1216 0.13024 0.0
C249 C 0.36193 0.13719 0.16609 0.0
C250 C 0.45557 0.15208 0.15678 0.0
C251 C 0.4346 0.1758 0.18722 0.0
H252 H 0.16008 0.89258 0.73957 0.0
H253 H 0.17627 0.79028 0.64927 0.0
H254 H 0.14178 0.83121 0.5939 0.0
H255 H 0.10717 0.89572 0.57122 0.0
H256 H 0.09243 0.99994 0.65987 0.0
H257 H 0.12541 0.95859 0.71611 0.0
C258 C 0.15599 0.87954 0.70768 0.0
C259 C 0.17058 0.83874 0.69809 0.0
C260 C 0.13609 0.90338 0.676 0.0
C261 C 0.16526 0.82177 0.657 0.0
C262 C 0.14553 0.8451 0.62546 0.0
C263 C 0.1112 0.90945 0.60287 0.0
C264 C 0.09655 0.95045 0.6116 0.0
C265 C 0.13086 0.88588 0.63459 0.0
C266 C 0.10226 0.96789 0.65266 0.0
C267 C 0.12154 0.94443 0.68468 0.0
H268 H 0.87416 0.3661 0.88068 0.0
H269 H 0.75496 0.41363 0.9286 0.0
H270 H 0.8006 0.46258 0.97767 0.0
H271 H 0.87344 0.48835 0.01011 0.0
H272 H 0.99317 0.43941 0.96565 0.0
H273 H 0.94864 0.39504 0.91158 0.0
C274 C 0.85844 0.38769 0.90151 0.0
C275 C 0.81133 0.3861 0.90138 0.0
C276 C 0.88494 0.41533 0.93024 0.0
C277 C 0.79115 0.41398 0.9286 0.0
C278 C 0.81719 0.44196 0.95659 0.0
C279 C 0.88979 0.46814 0.98837 0.0
C280 C 0.93645 0.46739 0.9914 0.0
C281 C 0.86394 0.44226 0.95824 0.0
C282 C 0.95732 0.44103 0.96329 0.0
C283 C 0.93183 0.41548 0.93264 0.0
H284 H 0.68669 0.66749 0.36403 0.0
H285 H 0.68369 0.79785 0.41573 0.0
H286 H 0.63361 0.76787 0.47092 0.0
H287 H 0.59662 0.70416 0.50857 0.0
H288 H 0.59821 0.57377 0.45737 0.0
H289 H 0.64168 0.60424 0.39721 0.0
C290 C 0.67432 0.68947 0.38678 0.0
C291 C 0.68982 0.73483 0.38614 0.0
C292 C 0.64526 0.67198 0.41857 0.0
C293 C 0.67338 0.7627 0.41607 0.0
C294 C 0.64452 0.74563 0.44758 0.0
C295 C 0.60592 0.68255 0.48383 0.0
C296 C 0.59427 0.6369 0.48721 0.0
C297 C 0.63127 0.70025 0.44982 0.0
C298 C 0.60646 0.60911 0.45511 0.0
C299 C 0.63159 0.62651 0.42094 0.0
H300 H 0.16768 0.33537 0.21262 0.0
H301 H 0.26076 0.4477 0.24956 0.0
H302 H 0.21263 0.49721 0.21554 0.0
H303 H 0.14297 0.50827 0.17558 0.0
H304 H 0.05107 0.39512 0.13803 0.0
H305 H 0.09887 0.34642 0.17248 0.0
C306 C 0.17708 0.37073 0.21337 0.0
C307 C 0.21724 0.38812 0.23367 0.0
C308 C 0.14935 0.39884 0.1936 0.0
C309 C 0.2296 0.43382 0.23429 0.0
C310 C 0.20219 0.46206 0.21476 0.0
C311 C 0.13413 0.47297 0.17413 0.0
C312 C 0.09403 0.4554 0.1535 0.0
C313 C 0.16198 0.44495 0.19413 0.0
C314 C 0.08185 0.40955 0.15359 0.0
C315 C 0.1092 0.38159 0.17324 0.0
H316 H 0.69799 0.20855 0.86507 0.0
H317 H 0.65487 0.32479 0.92087 0.0
H318 H 0.59589 0.27956 0.95867 0.0
H319 H 0.55816 0.20683 0.97756 0.0
H320 H 0.60166 0.09039 0.9233 0.0
H321 H 0.65939 0.1354 0.8835 0.0
C322 C 0.67531 0.22381 0.88522 0.0
C323 C 0.68051 0.26978 0.89025 0.0
C324 C 0.6421 0.19753 0.90748 0.0
C325 C 0.65144 0.28938 0.91677 0.0
C326 C 0.61779 0.26358 0.93833 0.0
C327 C 0.58028 0.19145 0.95688 0.0
C328 C 0.57668 0.14541 0.95394 0.0
C329 C 0.61309 0.21764 0.93422 0.0
C330 C 0.60524 0.1257 0.92712 0.0
C331 C 0.63771 0.15149 0.90399 0.0
H332 H 0.78843 0.86845 0.40104 0.0
H333 H 0.88496 0.81021 0.3257 0.0
H334 H 0.94524 0.86211 0.35546 0.0
H335 H 0.97152 0.92006 0.40608 0.0
H336 H 0.87728 0.97268 0.48784 0.0
H337 H 0.81512 0.92702 0.45228 0.0
C338 C 0.82267 0.86674 0.39129 0.0
C339 C 0.83185 0.83503 0.36112 0.0
C340 C 0.85762 0.8958 0.40966 0.0
C341 C 0.87646 0.8344 0.34828 0.0
C342 C 0.91115 0.86389 0.3656 0.0
C343 C 0.93737 0.92185 0.41612 0.0
C344 C 0.9291 0.95049 0.44927 0.0
C345 C 0.9022 0.89417 0.39675 0.0
C346 C 0.88459 0.95215 0.46167 0.0
C347 C 0.84908 0.92548 0.44168 0.0
H348 H 0.32322 0.68437 0.7432 0.0
H349 H 0.41079 0.80601 0.73028 0.0
H350 H 0.46458 0.76751 0.69235 0.0
H351 H 0.48673 0.69993 0.6624 0.0
H352 H 0.40271 0.57726 0.67775 0.0
H353 H 0.3468 0.61535 0.71411 0.0
C354 C 0.35401 0.7024 0.7319 0.0
C355 C 0.36304 0.74804 0.73978 0.0
C356 C 0.38506 0.67992 0.71009 0.0
C357 C 0.40328 0.77085 0.72525 0.0
C358 C 0.43396 0.7489 0.7033 0.0
C359 C 0.4562 0.68139 0.67372 0.0
C360 C 0.44809 0.63572 0.66619 0.0
C361 C 0.42524 0.70351 0.6956 0.0
C362 C 0.40854 0.61245 0.68134 0.0
C363 C 0.37707 0.63428 0.70279 0.0
H364 H 0.96852 0.88686 0.7869 0.0
H365 H 0.9558 0.00392 0.85975 0.0
H366 H 0.97857 0.04973 0.79916 0.0
H367 H 0.99437 0.05631 0.72407 0.0
H368 H 1.00162 0.93992 0.64864 0.0
H369 H 0.99015 0.89409 0.71169 0.0
C370 C 0.9716 0.92243 0.78959 0.0
C371 C 0.96023 0.94204 0.82766 0.0
C372 C 0.98371 0.94861 0.75415 0.0
C373 C 0.96395 0.98812 0.83069 0.0
C374 C 0.97699 0.01429 0.79608 0.0
C375 C 0.99411 0.02092 0.72147 0.0
C376 C 0.99911 1.0016 0.68171 0.0
C377 C 0.98576 0.99487 0.75741 0.0
C378 C 0.99858 0.95571 0.67892 0.0
C379 C 0.99152 0.92948 0.71493 0.0
H380 H 0.54837 0.11504 0.33419 0.0
H381 H 0.69124 0.13837 0.31318 0.0
H382 H 0.67841 0.12459 0.23806 0.0
H383 H 0.62796 0.10047 0.17952 0.0
H384 H 0.48549 0.0733 0.1986 0.0
H385 H 0.49637 0.09612 0.27301 0.0
C386 C 0.5766 0.11759 0.31306 0.0
C387 C 0.62084 0.12698 0.32949 0.0
C388 C 0.56896 0.10957 0.26957 0.0
C389 C 0.65702 0.13008 0.30164 0.0
C390 C 0.64971 0.12265 0.25859 0.0
C391 C 0.59915 0.10043 0.19982 0.0
C392 C 0.556 0.08561 0.18379 0.0
C393 C 0.60601 0.11164 0.24242 0.0
C394 C 0.5189 0.08546 0.21017 0.0
C395 C 0.5253 0.0978 0.25279 0.0
H396 H 0.50897 0.64429 0.30503 0.0
H397 H 0.49162 0.51308 0.25277 0.0
H398 H 0.4884 0.48197 0.32395 0.0
H399 H 0.48948 0.49244 0.40058 0.0
H400 H 0.50365 0.62355 0.45339 0.0
H401 H 0.5102 0.65475 0.38247 0.0
C402 C 0.50451 0.60892 0.30954 0.0
C403 C 0.50038 0.58069 0.27439 0.0
C404 C 0.50259 0.59151 0.35042 0.0
C405 C 0.49471 0.53506 0.27984 0.0
C406 C 0.49294 0.51741 0.32036 0.0
C407 C 0.49409 0.52786 0.39654 0.0
C408 C 0.49696 0.55574 0.43208 0.0
C409 C 0.49669 0.54535 0.35582 0.0
C410 C 0.50259 0.60151 0.42649 0.0
C411 C 0.50585 0.6193 0.38598 0.0
H412 H 0.99563 0.48751 0.78399 0.0
H413 H 0.13469 0.4707 0.76628 0.0
H414 H 0.15063 0.48479 0.84163 0.0
H415 H 0.12517 0.50406 0.91174 0.0
H416 H 0.98702 0.52563 0.92856 0.0
H417 H 0.96994 0.50614 0.85473 0.0
C418 C 0.02935 0.48707 0.79688 0.0
C419 C 0.06417 0.47857 0.77025 0.0
C420 C 0.03809 0.49528 0.84002 0.0
C421 C 0.10768 0.47761 0.78666 0.0
C422 C 0.11666 0.48547 0.82958 0.0
C423 C 0.0912 0.50396 0.89934 0.0
C424 C 0.05709 0.51502 0.92588 0.0
C425 C 0.08215 0.49453 0.8565 0.0
C426 C 0.01345 0.51557 0.90921 0.0
C427 C 0.00384 0.50515 0.86681 0.0
H428 H 0.73763 0.95368 0.89158 0.0
H429 H 0.83927 0.00798 0.98106 0.0
H430 H 0.78737 0.05564 0.01031 0.0
H431 H 0.70879 0.06765 0.02089 0.0
H432 H 0.60569 0.00886 0.93506 0.0
H433 H 0.66227 0.97873 0.89268 0.0
C434 C 0.74874 0.9773 0.91634 0.0
C435 C 0.79182 0.97756 0.93443 0.0
C436 C 0.7182 0.00359 0.93373 0.0
C437 C 0.80613 0.00761 0.96675 0.0
C438 C 0.77637 0.03459 0.98361 0.0
C439 C 0.69915 0.05018 0.99165 0.0
C440 C 0.65333 0.04067 0.98088 0.0
C441 C 0.73165 0.03103 0.96886 0.0
C442 C 0.64088 0.0173 0.94347 0.0
C443 C 0.67319 0.99931 0.91971 0.0
H444 H 0.75733 0.10749 0.40455 0.0
H445 H 0.68242 0.0992 0.52016 0.0
H446 H 0.74541 0.07262 0.55711 0.0
H447 H 0.82377 0.05775 0.55836 0.0
H448 H 0.89853 0.06279 0.44328 0.0
H449 H 0.83261 0.08229 0.40389 0.0
C450 C 0.75421 0.09907 0.4376 0.0
C451 C 0.71515 0.10662 0.45956 0.0
C452 C 0.7904 0.08268 0.45872 0.0
C453 C 0.71238 0.0955 0.50255 0.0
C454 C 0.74827 0.07968 0.52373 0.0
C455 C 0.8253 0.06215 0.52446 0.0
C456 C 0.86596 0.05918 0.50376 0.0
C457 C 0.78772 0.07408 0.50237 0.0
C458 C 0.8675 0.06467 0.45984 0.0
C459 C 0.82998 0.07635 0.43747 0.0
H460 H 0.34455 0.56203 0.14361 0.0
H461 H 0.32873 0.68961 0.19523 0.0
H462 H 0.24717 0.67407 0.18777 0.0
H463 H 0.18341 0.63184 0.15123 0.0
H464 H 0.19893 0.50683 0.09436 0.0
H465 H 0.27706 0.51263 0.12012 0.0
C466 C 0.32296 0.58556 0.15465 0.0
C467 C 0.34221 0.62705 0.1694 0.0
C468 C 0.27611 0.57695 0.14879 0.0
C469 C 0.31431 0.65762 0.18345 0.0
C470 C 0.26779 0.64883 0.17899 0.0
C471 C 0.20347 0.60508 0.14624 0.0
C472 C 0.18596 0.56902 0.12123 0.0
C473 C 0.24861 0.60971 0.15948 0.0
C474 C 0.21198 0.53467 0.11402 0.0
C475 C 0.25673 0.53831 0.12827 0.0
H476 H 0.22279 0.4634 0.67685 0.0
H477 H 0.1754 0.51509 0.56051 0.0
H478 H 0.25148 0.54884 0.54501 0.0
H479 H 0.33248 0.55193 0.55846 0.0
H480 H 0.38123 0.49304 0.67041 0.0
H481 H 0.30408 0.47497 0.69473 0.0
C482 C 0.22923 0.48311 0.64877 0.0
C483 C 0.19405 0.48693 0.61972 0.0
C484 C 0.27335 0.50106 0.63943 0.0
C485 C 0.20232 0.51192 0.58313 0.0
C486 C 0.24572 0.53106 0.57427 0.0
C487 C 0.32609 0.53692 0.58905 0.0
C488 C 0.36221 0.52487 0.61325 0.0
C489 C 0.2817 0.52438 0.60137 0.0
C490 C 0.35382 0.50381 0.65202 0.0
C491 C 0.30971 0.49286 0.66552 0.0
H492 H 0.94296 0.8213 0.99272 0.0
H493 H 0.99015 0.79726 0.86756 0.0
H494 H 0.02516 0.7349 0.89372 0.0
H495 H 0.04124 0.68642 0.95072 0.0
H496 H 0.99289 0.70626 0.0758 0.0
H497 H 0.95779 0.77026 0.05063 0.0
C498 C 0.96048 0.80221 0.97099 0.0
C499 C 0.96403 0.81456 0.92806 0.0
C500 C 0.97981 0.76539 0.98609 0.0
C501 C 0.98757 0.78955 0.90078 0.0
C502 C 0.00728 0.75346 0.91564 0.0
C503 C 0.02324 0.70479 0.97277 0.0
C504 C 0.01968 0.69157 0.01521 0.0
C505 C 1.00355 0.74115 0.95808 0.0
C506 C 0.99559 0.71538 0.04296 0.0
C507 C 0.97591 0.75215 0.02855 0.0
H508 H 0.40041 0.76607 0.1225 0.0
H509 H 0.51748 0.71344 0.07498 0.0
H510 H 0.54423 0.78482 0.04536 0.0
H511 H 0.53968 0.86425 0.04228 0.0
H512 H 0.42127 0.91625 0.08587 0.0
H513 H 0.38847 0.84214 0.10603 0.0
C514 C 0.43104 0.7695 0.10454 0.0
C515 C 0.45754 0.73447 0.10228 0.0
C516 C 0.44592 0.8105 0.08684 0.0
C517 C 0.49722 0.74013 0.07881 0.0
C518 C 0.51241 0.78088 0.06147 0.0
C519 C 0.50614 0.85899 0.05511 0.0
C520 C 0.483 0.89523 0.0633 0.0
C521 C 0.48791 0.81663 0.0668 0.0
C522 C 0.43949 0.88852 0.07941 0.0
C523 C 0.42105 0.84631 0.09129 0.0
H524 H 0.14619 0.33051 0.59451 0.0
H525 H 0.02216 0.37432 0.55068 0.0
H526 H 0.99611 0.30045 0.52406 0.0
H527 H 1.00284 0.22152 0.52571 0.0
H528 H 0.12359 0.17617 0.57509 0.0
H529 H 0.15756 0.25244 0.58593 0.0
C530 C 0.11411 0.32409 0.57791 0.0
C531 C 0.08582 0.35751 0.57494 0.0
C532 C 0.0988 0.28117 0.5639 0.0
C533 C 0.04416 0.34885 0.55373 0.0
C534 C 0.02927 0.30667 0.53859 0.0
C535 C 0.03727 0.22859 0.53725 0.0
C536 C 0.06113 0.19371 0.54897 0.0
C537 C 0.05544 0.27224 0.54525 0.0
C538 C 0.1052 0.20275 0.5649 0.0
C539 C 0.12426 0.24629 0.57168 0.0
H540 H 0.55818 0.24464 0.56228 0.0
H541 H 0.65537 0.30406 0.47493 0.0
H542 H 0.64739 0.37717 0.50362 0.0
H543 H 0.59955 0.42393 0.54156 0.0
H544 H 0.49648 0.36377 0.62276 0.0
H545 H 0.52086 0.2915 0.61025 0.0
C546 C 0.57885 0.27356 0.55084 0.0
C547 C 0.60727 0.26946 0.51677 0.0
C548 C 0.57261 0.31544 0.56635 0.0
C549 C 0.6335 0.3068 0.50144 0.0
C550 C 0.62864 0.34855 0.51761 0.0
C551 C 0.58403 0.39518 0.55801 0.0
C552 C 0.54648 0.39884 0.5831 0.0
C553 C 0.59648 0.35342 0.54846 0.0
C554 C 0.52571 0.36149 0.6036 0.0
C555 C 0.53927 0.32014 0.59597 0.0
loop_
_geom_bond_atom_site_label_1
_geom_bond_atom_site_label_2
_geom_bond_distance
_geom_bond_site_symmetry_2
_ccdc_geom_bond_type
H0 C3 0.929 . S
H1 C6 0.929 . S
H2 C8 0.930 . S
C3 H0 0.929 . S
C3 C4 1.398 . S
C3 C5 1.396 . S
C4 C3 1.398 . S
C4 C8 1.407 . S
C5 C3 1.396 . S
C5 C6 1.394 . S
C6 H1 0.929 . S
C6 C5 1.394 . S
C6 C7 1.382 . S
C7 C6 1.382 . S
C7 C8 1.392 . S
C7 N9 1.420 . S
C8 H2 0.930 . S
C8 C4 1.407 . S
C8 C7 1.392 . S
N9 C7 1.420 . S
N9 C10 1.244 . S
C10 N9 1.244 . S
H11 C14 0.929 . S
H12 C17 0.929 . S
H13 C19 0.930 . S
C14 H11 0.929 . S
C14 C15 1.398 . S
C14 C16 1.396 . S
C15 C14 1.398 . S
C15 C19 1.407 . S
C16 C14 1.396 . S
C16 C17 1.394 . S
C17 H12 0.929 . S
C17 C16 1.394 . S
C17 C18 1.382 . S
C18 C17 1.382 . S
C18 C19 1.392 . S
C18 N20 1.420 . S
C19 H13 0.930 . S
C19 C15 1.407 . S
C19 C18 1.392 . S
N20 C18 1.420 . S
N20 C21 1.244 . S
C21 N20 1.244 . S
H22 C25 0.929 . S
H23 C28 0.929 . S
H24 C30 0.930 . S
C25 H22 0.929 . S
C25 C26 1.398 . S
C25 C27 1.396 . S
C26 C25 1.398 . S
C26 C30 1.407 . S
C27 C25 1.396 . S
C27 C28 1.394 . S
C28 H23 0.929 . S
C28 C27 1.394 . S
C28 C29 1.382 . S
C29 C28 1.382 . S
C29 C30 1.392 . S
C29 N31 1.420 . S
C30 H24 0.930 . S
C30 C26 1.407 . S
C30 C29 1.392 . S
N31 C29 1.420 . S
N31 C32 1.244 . S
C32 N31 1.244 . S
H33 C36 0.929 . S
H34 C39 0.929 . S
H35 C41 0.930 . S
C36 H33 0.929 . S
C36 C37 1.398 . S
C36 C38 1.396 . S
C37 C36 1.398 . S
C37 C41 1.407 . S
C38 C36 1.396 . S
C38 C39 1.394 . S
C39 H34 0.929 . S
C39 C38 1.394 . S
C39 C40 1.382 . S
C40 C39 1.382 . S
C40 C41 1.392 . S
C40 N42 1.420 . S
C41 H35 0.930 . S
C41 C37 1.407 . S
C41 C40 1.392 . S
N42 C40 1.420 . S
N42 C43 1.244 . S
C43 N42 1.244 . S
H44 C47 0.929 1_455 S
H45 C50 0.929 . S
H46 C52 0.930 . S
C47 H44 0.929 1_655 S
C47 C48 1.398 . S
C47 C49 1.396 . S
C48 C47 1.398 . S
C48 C52 1.407 1_565 S
C49 C47 1.396 . S
C49 C50 1.394 . S
C50 H45 0.929 . S
C50 C49 1.394 . S
C50 C51 1.382 . S
C51 C50 1.382 . S
C51 C52 1.392 1_565 S
C51 N53 1.420 1_565 S
C52 H46 0.930 . S
C52 C48 1.407 1_545 S
C52 C51 1.392 1_545 S
N53 C51 1.420 1_545 S
N53 C54 1.244 1_545 S
C54 N53 1.244 1_565 S
H55 C58 0.929 . S
H56 C61 0.929 . S
H57 C63 0.930 . S
C58 H55 0.929 . S
C58 C59 1.398 . S
C58 C60 1.396 . S
C59 C58 1.398 . S
C59 C63 1.407 . S
C60 C58 1.396 . S
C60 C61 1.394 . S
C61 H56 0.929 . S
C61 C60 1.394 . S
C61 C62 1.382 . S
C62 C61 1.382 . S
C62 C63 1.392 . S
C62 N64 1.420 . S
C63 H57 0.930 . S
C63 C59 1.407 . S
C63 C62 1.392 . S
N64 C62 1.420 . S
N64 C65 1.244 . S
C65 N64 1.244 . S
H66 C69 0.929 . S
H67 C72 0.929 . S
H68 C74 0.930 . S
C69 H66 0.929 . S
C69 C70 1.398 . S
C69 C71 1.396 . S
C70 C69 1.398 . S
C70 C74 1.407 . S
C71 C69 1.396 . S
C71 C72 1.394 . S
C72 H67 0.929 . S
C72 C71 1.394 . S
C72 C73 1.382 . S
C73 C72 1.382 . S
C73 C74 1.392 . S
C73 N75 1.420 . S
C74 H68 0.930 . S
C74 C70 1.407 . S
C74 C73 1.392 . S
N75 C73 1.420 . S
N75 C76 1.244 . S
C76 N75 1.244 . S
H77 C80 0.929 . S
H78 C83 0.929 . S
H79 C85 0.930 . S
C80 H77 0.929 . S
C80 C81 1.398 . S
C80 C82 1.396 . S
C81 C80 1.398 . S
C81 C85 1.407 . S
C82 C80 1.396 . S
C82 C83 1.394 . S
C83 H78 0.929 . S
C83 C82 1.394 . S
C83 C84 1.382 . S
C84 C83 1.382 . S
C84 C85 1.392 . S
C84 N86 1.420 . S
C85 H79 0.930 . S
C85 C81 1.407 . S
C85 C84 1.392 . S
N86 C84 1.420 . S
N86 C87 1.244 . S
C87 N86 1.244 . S
Zn88 O94 1.920 . S
Zn88 O100 1.898 . S
Zn88 O103 1.905 . S
Zn89 O97 1.905 1_565 S
Zn89 O98 1.898 . S
Zn89 O106 1.920 . S
Zn90 O93 2.080 1_455 S
Zn90 O96 2.114 . S
Zn90 O99 2.120 1_445 S
Zn90 O101 2.120 . S
Zn90 O102 2.114 1_455 S
Zn90 O105 2.080 . S
C91 O96 1.166 . S
C91 O97 1.182 . S
C92 O98 1.167 1_655 S
C92 O99 1.299 . S
O93 Zn90 2.080 1_655 S
O93 C107 1.305 . S
O94 Zn88 1.920 . S
O94 C107 1.234 . S
C95 O100 1.167 1_455 S
C95 O101 1.299 . S
O96 Zn90 2.114 . S
O96 C91 1.166 . S
O97 Zn89 1.905 1_545 S
O97 C91 1.182 . S
O98 Zn89 1.898 . S
O98 C92 1.167 1_455 S
O99 Zn90 2.120 1_665 S
O99 C92 1.299 . S
O100 Zn88 1.898 . S
O100 C95 1.167 1_655 S
O101 Zn90 2.120 . S
O101 C95 1.299 . S
O102 Zn90 2.114 1_655 S
O102 C104 1.166 . S
O103 Zn88 1.905 . S
O103 C104 1.182 . S
C104 O102 1.166 . S
C104 O103 1.182 . S
O105 Zn90 2.080 . S
O105 C108 1.305 1_545 S
O106 Zn89 1.920 . S
O106 C108 1.234 . S
C107 O93 1.305 . S
C107 O94 1.234 . S
C108 O105 1.305 1_565 S
C108 O106 1.234 . S
Zn109 O115 1.920 . S
Zn109 O121 1.898 1_554 S
Zn109 O124 1.905 1_554 S
Zn110 O118 1.905 . S
Zn110 O119 1.898 . S
Zn110 O127 1.920 . S
Zn111 O114 2.080 . S
Zn111 O117 2.114 1_545 S
Zn111 O120 2.120 1_545 S
Zn111 O122 2.120 . S
Zn111 O123 2.114 1_545 S
Zn111 O126 2.080 . S
C112 O117 1.166 . S
C112 O118 1.182 . S
C113 O119 1.167 . S
C113 O120 1.299 . S
O114 Zn111 2.080 . S
O114 C128 1.305 . S
O115 Zn109 1.920 . S
O115 C128 1.234 . S
C116 O121 1.167 1_554 S
C116 O122 1.299 . S
O117 Zn111 2.114 1_565 S
O117 C112 1.166 . S
O118 Zn110 1.905 . S
O118 C112 1.182 . S
O119 Zn110 1.898 . S
O119 C113 1.167 . S
O120 Zn111 2.120 1_565 S
O120 C113 1.299 . S
O121 Zn109 1.898 1_556 S
O121 C116 1.167 1_556 S
O122 Zn111 2.120 . S
O122 C116 1.299 . S
O123 Zn111 2.114 1_565 S
O123 C125 1.166 1_554 S
O124 Zn109 1.905 1_556 S
O124 C125 1.182 1_545 S
C125 O123 1.166 1_556 S
C125 O124 1.182 1_565 S
O126 Zn111 2.080 . S
O126 C129 1.305 . S
O127 Zn110 1.920 . S
O127 C129 1.234 1_565 S
C128 O114 1.305 . S
C128 O115 1.234 . S
C129 O126 1.305 . S
C129 O127 1.234 1_545 S
Zn130 O136 1.920 . S
Zn130 O142 1.898 . S
Zn130 O145 1.905 . S
Zn131 O139 1.905 . S
Zn131 O140 1.898 . S
Zn131 O148 1.920 . S
Zn132 O135 2.080 . S
Zn132 O138 2.114 . S
Zn132 O141 2.120 . S
Zn132 O143 2.120 . S
Zn132 O144 2.114 . S
Zn132 O147 2.080 . S
C133 O138 1.166 . S
C133 O139 1.182 . S
C134 O140 1.167 . S
C134 O141 1.299 . S
O135 Zn132 2.080 . S
O135 C149 1.305 . S
O136 Zn130 1.920 . S
O136 C149 1.234 . S
C137 O142 1.167 . S
C137 O143 1.299 . S
O138 Zn132 2.114 . S
O138 C133 1.166 . S
O139 Zn131 1.905 . S
O139 C133 1.182 . S
O140 Zn131 1.898 . S
O140 C134 1.167 . S
O141 Zn132 2.120 . S
O141 C134 1.299 . S
O142 Zn130 1.898 . S
O142 C137 1.167 . S
O143 Zn132 2.120 . S
O143 C137 1.299 . S
O144 Zn132 2.114 . S
O144 C146 1.166 . S
O145 Zn130 1.905 . S
O145 C146 1.182 . S
C146 O144 1.166 . S
C146 O145 1.182 . S
O147 Zn132 2.080 . S
O147 C150 1.305 . S
O148 Zn131 1.920 . S
O148 C150 1.234 . S
C149 O135 1.305 . S
C149 O136 1.234 . S
C150 O147 1.305 . S
C150 O148 1.234 . S
Zn151 O157 1.920 . S
Zn151 O163 1.898 . S
Zn151 O166 1.905 . S
Zn152 O160 1.905 1_655 S
Zn152 O161 1.898 . S
Zn152 O169 1.920 . S
Zn153 O156 2.080 1_554 S
Zn153 O159 2.114 . S
Zn153 O162 2.120 1_454 S
Zn153 O164 2.120 . S
Zn153 O165 2.114 1_554 S
Zn153 O168 2.080 . S
C154 O159 1.166 . S
C154 O160 1.182 . S
C155 O161 1.167 1_556 S
C155 O162 1.299 . S
O156 Zn153 2.080 1_556 S
O156 C170 1.305 . S
O157 Zn151 1.920 . S
O157 C170 1.234 . S
C158 O163 1.167 1_554 S
C158 O164 1.299 . S
O159 Zn153 2.114 . S
O159 C154 1.166 . S
O160 Zn152 1.905 1_455 S
O160 C154 1.182 . S
O161 Zn152 1.898 . S
O161 C155 1.167 1_554 S
O162 Zn153 2.120 1_656 S
O162 C155 1.299 . S
O163 Zn151 1.898 . S
O163 C158 1.167 1_556 S
O164 Zn153 2.120 . S
O164 C158 1.299 . S
O165 Zn153 2.114 1_556 S
O165 C167 1.166 . S
O166 Zn151 1.905 . S
O166 C167 1.182 . S
C167 O165 1.166 . S
C167 O166 1.182 . S
O168 Zn153 2.080 . S
O168 C171 1.305 1_455 S
O169 Zn152 1.920 . S
O169 C171 1.234 . S
C170 O156 1.305 . S
C170 O157 1.234 . S
C171 O168 1.305 1_655 S
C171 O169 1.234 . S
H172 C178 0.930 . S
H173 C181 0.930 . S
H174 C182 0.930 . S
H175 C183 0.930 . S
H176 C186 0.930 . S
H177 C187 0.930 . S
C178 H172 0.930 . S
C178 C179 1.355 . S
C178 C180 1.415 . S
C179 C178 1.355 . S
C179 C181 1.419 . S
C180 C178 1.415 . S
C180 C185 1.425 . S
C180 C187 1.409 . S
C181 H173 0.930 . S
C181 C179 1.419 . S
C181 C182 1.362 . S
C182 H174 0.930 . S
C182 C181 1.362 . S
C182 C185 1.409 . S
C183 H175 0.930 . S
C183 C184 1.355 . S
C183 C185 1.415 . S
C184 C183 1.355 . S
C184 C186 1.419 . S
C185 C180 1.425 . S
C185 C182 1.409 . S
C185 C183 1.415 . S
C186 H176 0.930 . S
C186 C184 1.419 . S
C186 C187 1.362 . S
C187 H177 0.930 . S
C187 C180 1.409 . S
C187 C186 1.362 . S
H188 C194 0.930 . S
H189 C197 0.930 . S
H190 C198 0.930 . S
H191 C199 0.930 1_545 S
H192 C202 0.930 . S
H193 C203 0.930 . S
C194 H188 0.930 . S
C194 C195 1.355 . S
C194 C196 1.415 . S
C195 C194 1.355 . S
C195 C197 1.419 . S
C196 C194 1.415 . S
C196 C201 1.425 . S
C196 C203 1.409 . S
C197 H189 0.930 . S
C197 C195 1.419 . S
C197 C198 1.362 . S
C198 H190 0.930 . S
C198 C197 1.362 . S
C198 C201 1.409 . S
C199 H191 0.930 1_565 S
C199 C200 1.355 . S
C199 C201 1.415 . S
C200 C199 1.355 . S
C200 C202 1.419 . S
C201 C196 1.425 . S
C201 C198 1.409 . S
C201 C199 1.415 . S
C202 H192 0.930 . S
C202 C200 1.419 . S
C202 C203 1.362 . S
C203 H193 0.930 . S
C203 C196 1.409 . S
C203 C202 1.362 . S
H204 C210 0.930 . S
H205 C213 0.930 . S
H206 C214 0.930 . S
H207 C215 0.930 . S
H208 C218 0.930 . S
H209 C219 0.930 . S
C210 H204 0.930 . S
C210 C211 1.355 . S
C210 C212 1.415 . S
C211 C210 1.355 . S
C211 C213 1.419 . S
C212 C210 1.415 . S
C212 C217 1.425 . S
C212 C219 1.409 . S
C213 H205 0.930 . S
C213 C211 1.419 . S
C213 C214 1.362 . S
C214 H206 0.930 . S
C214 C213 1.362 . S
C214 C217 1.409 . S
C215 H207 0.930 . S
C215 C216 1.355 . S
C215 C217 1.415 . S
C216 C215 1.355 . S
C216 C218 1.419 . S
C217 C212 1.425 . S
C217 C214 1.409 . S
C217 C215 1.415 . S
C218 H208 0.930 . S
C218 C216 1.419 . S
C218 C219 1.362 . S
C219 H209 0.930 . S
C219 C212 1.409 . S
C219 C218 1.362 . S
H220 C226 0.930 . S
H221 C229 0.930 . S
H222 C230 0.930 . S
H223 C231 0.930 . S
H224 C234 0.930 . S
H225 C235 0.930 1_455 S
C226 H220 0.930 . S
C226 C227 1.355 . S
C226 C228 1.415 . S
C227 C226 1.355 . S
C227 C229 1.419 . S
C228 C226 1.415 . S
C228 C233 1.425 . S
C228 C235 1.409 . S
C229 H221 0.930 . S
C229 C227 1.419 . S
C229 C230 1.362 . S
C230 H222 0.930 . S
C230 C229 1.362 . S
C230 C233 1.409 . S
C231 H223 0.930 . S
C231 C232 1.355 . S
C231 C233 1.415 . S
C232 C231 1.355 . S
C232 C234 1.419 1_655 S
C233 C228 1.425 . S
C233 C230 1.409 . S
C233 C231 1.415 . S
C234 H224 0.930 . S
C234 C232 1.419 1_455 S
C234 C235 1.362 1_455 S
C235 H225 0.930 1_655 S
C235 C228 1.409 . S
C235 C234 1.362 1_655 S
H236 C242 0.930 . S
H237 C245 0.930 . S
H238 C246 0.930 . S
H239 C247 0.930 . S
H240 C250 0.930 . S
H241 C251 0.930 . S
C242 H236 0.930 . S
C242 C243 1.355 . S
C242 C244 1.415 . S
C243 C242 1.355 . S
C243 C245 1.419 . S
C244 C242 1.415 . S
C244 C249 1.425 . S
C244 C251 1.409 . S
C245 H237 0.930 . S
C245 C243 1.419 . S
C245 C246 1.362 . S
C246 H238 0.930 . S
C246 C245 1.362 . S
C246 C249 1.409 . S
C247 H239 0.930 . S
C247 C248 1.355 . S
C247 C249 1.415 . S
C248 C247 1.355 . S
C248 C250 1.419 . S
C249 C244 1.425 . S
C249 C246 1.409 . S
C249 C247 1.415 . S
C250 H240 0.930 . S
C250 C248 1.419 . S
C250 C251 1.362 . S
C251 H241 0.930 . S
C251 C244 1.409 . S
C251 C250 1.362 . S
H252 C258 0.930 . S
H253 C261 0.930 . S
H254 C262 0.930 . S
H255 C263 0.930 . S
H256 C266 0.930 . S
H257 C267 0.930 1_545 S
C258 H252 0.930 . S
C258 C259 1.355 . S
C258 C260 1.415 . S
C259 C258 1.355 . S
C259 C261 1.419 . S
C260 C258 1.415 . S
C260 C265 1.425 . S
C260 C267 1.409 . S
C261 H253 0.930 . S
C261 C259 1.419 . S
C261 C262 1.362 . S
C262 H254 0.930 . S
C262 C261 1.362 . S
C262 C265 1.409 . S
C263 H255 0.930 . S
C263 C264 1.355 . S
C263 C265 1.415 . S
C264 C263 1.355 . S
C264 C266 1.419 1_565 S
C265 C260 1.425 . S
C265 C262 1.409 . S
C265 C263 1.415 . S
C266 H256 0.930 . S
C266 C264 1.419 1_545 S
C266 C267 1.362 1_545 S
C267 H257 0.930 1_565 S
C267 C260 1.409 . S
C267 C266 1.362 1_565 S
H268 C274 0.930 . S
H269 C277 0.930 . S
H270 C278 0.930 1_554 S
H271 C279 0.930 1_554 S
H272 C282 0.930 . S
H273 C283 0.930 . S
C274 H268 0.930 . S
C274 C275 1.355 . S
C274 C276 1.415 . S
C275 C274 1.355 . S
C275 C277 1.419 . S
C276 C274 1.415 . S
C276 C281 1.425 . S
C276 C283 1.409 . S
C277 H269 0.930 . S
C277 C275 1.419 . S
C277 C278 1.362 . S
C278 H270 0.930 1_556 S
C278 C277 1.362 . S
C278 C281 1.409 . S
C279 H271 0.930 1_556 S
C279 C280 1.355 . S
C279 C281 1.415 . S
C280 C279 1.355 . S
C280 C282 1.419 . S
C281 C276 1.425 . S
C281 C278 1.409 . S
C281 C279 1.415 . S
C282 H272 0.930 . S
C282 C280 1.419 . S
C282 C283 1.362 . S
C283 H273 0.930 . S
C283 C276 1.409 . S
C283 C282 1.362 . S
H284 C290 0.930 . S
H285 C293 0.930 . S
H286 C294 0.930 . S
H287 C295 0.930 . S
H288 C298 0.930 . S
H289 C299 0.930 . S
C290 H284 0.930 . S
C290 C291 1.355 . S
C290 C292 1.415 . S
C291 C290 1.355 . S
C291 C293 1.419 . S
C292 C290 1.415 . S
C292 C297 1.425 . S
C292 C299 1.409 . S
C293 H285 0.930 . S
C293 C291 1.419 . S
C293 C294 1.362 . S
C294 H286 0.930 . S
C294 C293 1.362 . S
C294 C297 1.409 . S
C295 H287 0.930 . S
C295 C296 1.355 . S
C295 C297 1.415 . S
C296 C295 1.355 . S
C296 C298 1.419 . S
C297 C292 1.425 . S
C297 C294 1.409 . S
C297 C295 1.415 . S
C298 H288 0.930 . S
C298 C296 1.419 . S
C298 C299 1.362 . S
C299 H289 0.930 . S
C299 C292 1.409 . S
C299 C298 1.362 . S
H300 C306 0.930 . S
H301 C309 0.930 . S
H302 C310 0.930 . S
H303 C311 0.930 . S
H304 C314 0.930 . S
H305 C315 0.930 . S
C306 H300 0.930 . S
C306 C307 1.355 . S
C306 C308 1.415 . S
C307 C306 1.355 . S
C307 C309 1.419 . S
C308 C306 1.415 . S
C308 C313 1.425 . S
C308 C315 1.409 . S
C309 H301 0.930 . S
C309 C307 1.419 . S
C309 C310 1.362 . S
C310 H302 0.930 . S
C310 C309 1.362 . S
C310 C313 1.409 . S
C311 H303 0.930 . S
C311 C312 1.355 . S
C311 C313 1.415 . S
C312 C311 1.355 . S
C312 C314 1.419 . S
C313 C308 1.425 . S
C313 C310 1.409 . S
C313 C311 1.415 . S
C314 H304 0.930 . S
C314 C312 1.419 . S
C314 C315 1.362 . S
C315 H305 0.930 . S
C315 C308 1.409 . S
C315 C314 1.362 . S
H316 C322 0.930 . S
H317 C325 0.930 . S
H318 C326 0.930 1_554 S
H319 C327 0.930 . S
H320 C330 0.930 . S
H321 C331 0.930 . S
C322 H316 0.930 . S
C322 C323 1.355 . S
C322 C324 1.415 . S
C323 C322 1.355 . S
C323 C325 1.419 . S
C324 C322 1.415 . S
C324 C329 1.425 . S
C324 C331 1.409 . S
C325 H317 0.930 . S
C325 C323 1.419 . S
C325 C326 1.362 . S
C326 H318 0.930 1_556 S
C326 C325 1.362 . S
C326 C329 1.409 . S
C327 H319 0.930 . S
C327 C328 1.355 1_554 S
C327 C329 1.415 1_554 S
C328 C327 1.355 1_556 S
C328 C330 1.419 . S
C329 C324 1.425 . S
C329 C326 1.409 . S
C329 C327 1.415 1_556 S
C330 H320 0.930 . S
C330 C328 1.419 . S
C330 C331 1.362 . S
C331 H321 0.930 . S
C331 C324 1.409 . S
C331 C330 1.362 . S
H332 C338 0.930 . S
H333 C341 0.930 . S
H334 C342 0.930 . S
H335 C343 0.930 . S
H336 C346 0.930 . S
H337 C347 0.930 . S
C338 H332 0.930 . S
C338 C339 1.355 . S
C338 C340 1.415 . S
C339 C338 1.355 . S
C339 C341 1.419 . S
C340 C338 1.415 . S
C340 C345 1.425 . S
C340 C347 1.409 . S
C341 H333 0.930 . S
C341 C339 1.419 . S
C341 C342 1.362 . S
C342 H334 0.930 . S
C342 C341 1.362 . S
C342 C345 1.409 . S
C343 H335 0.930 . S
C343 C344 1.355 . S
C343 C345 1.415 . S
C344 C343 1.355 . S
C344 C346 1.419 . S
C345 C340 1.425 . S
C345 C342 1.409 . S
C345 C343 1.415 . S
C346 H336 0.930 . S
C346 C344 1.419 . S
C346 C347 1.362 . S
C347 H337 0.930 . S
C347 C340 1.409 . S
C347 C346 1.362 . S
H348 C354 0.930 . S
H349 C357 0.930 . S
H350 C358 0.930 . S
H351 C359 0.930 . S
H352 C362 0.930 . S
H353 C363 0.930 . S
C354 H348 0.930 . S
C354 C355 1.355 . S
C354 C356 1.415 . S
C355 C354 1.355 . S
C355 C357 1.419 . S
C356 C354 1.415 . S
C356 C361 1.425 . S
C356 C363 1.409 . S
C357 H349 0.930 . S
C357 C355 1.419 . S
C357 C358 1.362 . S
C358 H350 0.930 . S
C358 C357 1.362 . S
C358 C361 1.409 . S
C359 H351 0.930 . S
C359 C360 1.355 . S
C359 C361 1.415 . S
C360 C359 1.355 . S
C360 C362 1.419 . S
C361 C356 1.425 . S
C361 C358 1.409 . S
C361 C359 1.415 . S
C362 H352 0.930 . S
C362 C360 1.419 . S
C362 C363 1.362 . S
C363 H353 0.930 . S
C363 C356 1.409 . S
C363 C362 1.362 . S
H364 C370 0.930 . S
H365 C373 0.930 . S
H366 C374 0.930 . S
H367 C375 0.930 . S
H368 C378 0.930 . S
H369 C379 0.930 . S
C370 H364 0.930 . S
C370 C371 1.355 . S
C370 C372 1.415 . S
C371 C370 1.355 . S
C371 C373 1.419 1_565 S
C372 C370 1.415 . S
C372 C377 1.425 1_565 S
C372 C379 1.409 . S
C373 H365 0.930 . S
C373 C371 1.419 1_545 S
C373 C374 1.362 . S
C374 H366 0.930 . S
C374 C373 1.362 . S
C374 C377 1.409 . S
C375 H367 0.930 . S
C375 C376 1.355 . S
C375 C377 1.415 . S
C376 C375 1.355 . S
C376 C378 1.419 1_545 S
C377 C372 1.425 1_545 S
C377 C374 1.409 . S
C377 C375 1.415 . S
C378 H368 0.930 . S
C378 C376 1.419 1_565 S
C378 C379 1.362 . S
C379 H369 0.930 . S
C379 C372 1.409 . S
C379 C378 1.362 . S
H380 C386 0.930 . S
H381 C389 0.930 . S
H382 C390 0.930 . S
H383 C391 0.930 . S
H384 C394 0.930 1_565 S
H385 C395 0.930 1_565 S
C386 H380 0.930 . S
C386 C387 1.355 . S
C386 C388 1.415 . S
C387 C386 1.355 . S
C387 C389 1.419 . S
C388 C386 1.415 . S
C388 C393 1.425 . S
C388 C395 1.409 . S
C389 H381 0.930 . S
C389 C387 1.419 . S
C389 C390 1.362 . S
C390 H382 0.930 . S
C390 C389 1.362 . S
C390 C393 1.409 . S
C391 H383 0.930 . S
C391 C392 1.355 . S
C391 C393 1.415 . S
C392 C391 1.355 . S
C392 C394 1.419 . S
C393 C388 1.425 . S
C393 C390 1.409 . S
C393 C391 1.415 . S
C394 H384 0.930 1_545 S
C394 C392 1.419 . S
C394 C395 1.362 . S
C395 H385 0.930 1_545 S
C395 C388 1.409 . S
C395 C394 1.362 . S
H396 C402 0.930 . S
H397 C405 0.930 . S
H398 C406 0.930 . S
H399 C407 0.930 . S
H400 C410 0.930 . S
H401 C411 0.930 . S
C402 H396 0.930 . S
C402 C403 1.355 . S
C402 C404 1.415 . S
C403 C402 1.355 . S
C403 C405 1.419 . S
C404 C402 1.415 . S
C404 C409 1.425 . S
C404 C411 1.409 . S
C405 H397 0.930 . S
C405 C403 1.419 . S
C405 C406 1.362 . S
C406 H398 0.930 . S
C406 C405 1.362 . S
C406 C409 1.409 . S
C407 H399 0.930 . S
C407 C408 1.355 . S
C407 C409 1.415 . S
C408 C407 1.355 . S
C408 C410 1.419 . S
C409 C404 1.425 . S
C409 C406 1.409 . S
C409 C407 1.415 . S
C410 H400 0.930 . S
C410 C408 1.419 . S
C410 C411 1.362 . S
C411 H401 0.930 . S
C411 C404 1.409 . S
C411 C410 1.362 . S
H412 C418 0.930 . S
H413 C421 0.930 . S
H414 C422 0.930 . S
H415 C423 0.930 . S
H416 C426 0.930 . S
H417 C427 0.930 . S
C418 H412 0.930 . S
C418 C419 1.355 . S
C418 C420 1.415 . S
C419 C418 1.355 . S
C419 C421 1.419 . S
C420 C418 1.415 . S
C420 C425 1.425 . S
C420 C427 1.409 . S
C421 H413 0.930 . S
C421 C419 1.419 . S
C421 C422 1.362 . S
C422 H414 0.930 . S
C422 C421 1.362 . S
C422 C425 1.409 . S
C423 H415 0.930 . S
C423 C424 1.355 . S
C423 C425 1.415 . S
C424 C423 1.355 . S
C424 C426 1.419 . S
C425 C420 1.425 . S
C425 C422 1.409 . S
C425 C423 1.415 . S
C426 H416 0.930 . S
C426 C424 1.419 . S
C426 C427 1.362 . S
C427 H417 0.930 . S
C427 C420 1.409 . S
C427 C426 1.362 . S
H428 C434 0.930 . S
H429 C437 0.930 . S
H430 C438 0.930 . S
H431 C439 0.930 . S
H432 C442 0.930 . S
H433 C443 0.930 . S
C434 H428 0.930 . S
C434 C435 1.355 1_566 S
C434 C436 1.419 1_556 S
C435 C434 1.355 1_544 S
C435 C437 1.419 . S
C436 C434 1.419 1_554 S
C436 C441 1.421 1_565 S
C436 C443 1.410 1_554 S
C437 H429 0.930 . S
C437 C435 1.419 . S
C437 C438 1.362 . S
C438 H430 0.930 . S
C438 C437 1.362 . S
C438 C441 1.409 . S
C439 H431 0.930 . S
C439 C440 1.355 . S
C439 C441 1.415 . S
C440 C439 1.355 . S
C440 C442 1.419 1_544 S
C441 C436 1.421 1_545 S
C441 C438 1.409 . S
C441 C439 1.415 . S
C442 H432 0.930 . S
C442 C440 1.419 1_566 S
C442 C443 1.362 . S
C443 H433 0.930 . S
C443 C436 1.410 1_556 S
C443 C442 1.362 . S
H444 C450 0.930 . S
H445 C453 0.930 . S
H446 C454 0.930 . S
H447 C455 0.930 . S
H448 C458 0.930 . S
H449 C459 0.930 . S
C450 H444 0.930 . S
C450 C451 1.355 . S
C450 C452 1.415 . S
C451 C450 1.355 . S
C451 C453 1.419 . S
C452 C450 1.415 . S
C452 C457 1.425 . S
C452 C459 1.409 . S
C453 H445 0.930 . S
C453 C451 1.419 . S
C453 C454 1.362 . S
C454 H446 0.930 . S
C454 C453 1.362 . S
C454 C457 1.409 . S
C455 H447 0.930 . S
C455 C456 1.355 . S
C455 C457 1.415 . S
C456 C455 1.355 . S
C456 C458 1.419 . S
C457 C452 1.425 . S
C457 C454 1.409 . S
C457 C455 1.415 . S
C458 H448 0.930 . S
C458 C456 1.419 . S
C458 C459 1.362 . S
C459 H449 0.930 . S
C459 C452 1.409 . S
C459 C458 1.362 . S
H460 C466 0.930 . S
H461 C469 0.930 . S
H462 C470 0.930 . S
H463 C471 0.930 . S
H464 C474 0.930 . S
H465 C475 0.930 . S
C466 H460 0.930 . S
C466 C467 1.355 . S
C466 C468 1.415 . S
C467 C466 1.355 . S
C467 C469 1.419 . S
C468 C466 1.415 . S
C468 C473 1.425 . S
C468 C475 1.409 . S
C469 H461 0.930 . S
C469 C467 1.419 . S
C469 C470 1.362 . S
C470 H462 0.930 . S
C470 C469 1.362 . S
C470 C473 1.409 . S
C471 H463 0.930 . S
C471 C472 1.355 . S
C471 C473 1.415 . S
C472 C471 1.355 . S
C472 C474 1.419 . S
C473 C468 1.425 . S
C473 C470 1.409 . S
C473 C471 1.415 . S
C474 H464 0.930 . S
C474 C472 1.419 . S
C474 C475 1.362 . S
C475 H465 0.930 . S
C475 C468 1.409 . S
C475 C474 1.362 . S
H476 C482 0.930 . S
H477 C485 0.930 . S
H478 C486 0.930 . S
H479 C487 0.930 . S
H480 C490 0.930 . S
H481 C491 0.930 . S
C482 H476 0.930 . S
C482 C483 1.355 . S
C482 C484 1.415 . S
C483 C482 1.355 . S
C483 C485 1.419 . S
C484 C482 1.415 . S
C484 C489 1.425 . S
C484 C491 1.409 . S
C485 H477 0.930 . S
C485 C483 1.419 . S
C485 C486 1.362 . S
C486 H478 0.930 . S
C486 C485 1.362 . S
C486 C489 1.409 . S
C487 H479 0.930 . S
C487 C488 1.355 . S
C487 C489 1.415 . S
C488 C487 1.355 . S
C488 C490 1.419 . S
C489 C484 1.425 . S
C489 C486 1.409 . S
C489 C487 1.415 . S
C490 H480 0.930 . S
C490 C488 1.419 . S
C490 C491 1.362 . S
C491 H481 0.930 . S
C491 C484 1.409 . S
C491 C490 1.362 . S
H492 C498 0.930 1_554 S
H493 C501 0.930 . S
H494 C502 0.930 . S
H495 C503 0.928 1_655 S
H496 C506 0.930 . S
H497 C507 0.930 . S
C498 H492 0.930 1_556 S
C498 C499 1.355 1_455 S
C498 C500 1.415 . S
C499 C498 1.355 1_655 S
C499 C501 1.419 . S
C500 C498 1.415 . S
C500 C505 1.425 1_455 S
C500 C507 1.409 1_556 S
C501 H493 0.930 . S
C501 C499 1.419 . S
C501 C502 1.362 . S
C502 H494 0.930 . S
C502 C501 1.362 . S
C502 C505 1.409 . S
C503 H495 0.928 1_455 S
C503 C504 1.359 . S
C503 C505 1.413 1_455 S
C504 C503 1.359 . S
C504 C506 1.419 1_556 S
C505 C500 1.425 1_655 S
C505 C502 1.409 . S
C505 C503 1.413 1_655 S
C506 H496 0.930 . S
C506 C504 1.419 1_554 S
C506 C507 1.362 . S
C507 H497 0.930 . S
C507 C500 1.409 1_554 S
C507 C506 1.362 . S
H508 C514 0.930 . S
H509 C517 0.930 . S
H510 C518 0.930 . S
H511 C519 0.930 . S
H512 C522 0.930 . S
H513 C523 0.930 . S
C514 H508 0.930 . S
C514 C515 1.355 . S
C514 C516 1.415 . S
C515 C514 1.355 . S
C515 C517 1.419 . S
C516 C514 1.415 . S
C516 C521 1.425 . S
C516 C523 1.409 . S
C517 H509 0.930 . S
C517 C515 1.419 . S
C517 C518 1.362 . S
C518 H510 0.930 . S
C518 C517 1.362 . S
C518 C521 1.409 . S
C519 H511 0.930 . S
C519 C520 1.355 . S
C519 C521 1.415 . S
C520 C519 1.355 . S
C520 C522 1.419 . S
C521 C516 1.425 . S
C521 C518 1.409 . S
C521 C519 1.415 . S
C522 H512 0.930 . S
C522 C520 1.419 . S
C522 C523 1.362 . S
C523 H513 0.930 . S
C523 C516 1.409 . S
C523 C522 1.362 . S
H524 C530 0.930 . S
H525 C533 0.930 . S
H526 C534 0.930 1_655 S
H527 C535 0.930 1_655 S
H528 C538 0.930 . S
H529 C539 0.930 . S
C530 H524 0.930 . S
C530 C531 1.355 . S
C530 C532 1.415 . S
C531 C530 1.355 . S
C531 C533 1.419 . S
C532 C530 1.415 . S
C532 C537 1.425 . S
C532 C539 1.409 . S
C533 H525 0.930 . S
C533 C531 1.419 . S
C533 C534 1.362 . S
C534 H526 0.930 1_455 S
C534 C533 1.362 . S
C534 C537 1.409 . S
C535 H527 0.930 1_455 S
C535 C536 1.355 . S
C535 C537 1.415 . S
C536 C535 1.355 . S
C536 C538 1.419 . S
C537 C532 1.425 . S
C537 C534 1.409 . S
C537 C535 1.415 . S
C538 H528 0.930 . S
C538 C536 1.419 . S
C538 C539 1.362 . S
C539 H529 0.930 . S
C539 C532 1.409 . S
C539 C538 1.362 . S
H540 C546 0.930 . S
H541 C549 0.930 . S
H542 C550 0.930 . S
H543 C551 0.930 . S
H544 C554 0.930 . S
H545 C555 0.930 . S
C546 H540 0.930 . S
C546 C547 1.355 . S
C546 C548 1.415 . S
C547 C546 1.355 . S
C547 C549 1.419 . S
C548 C546 1.415 . S
C548 C553 1.425 . S
C548 C555 1.409 . S
C549 H541 0.930 . S
C549 C547 1.419 . S
C549 C550 1.362 . S
C550 H542 0.930 . S
C550 C549 1.362 . S
C550 C553 1.409 . S
C551 H543 0.930 . S
C551 C552 1.355 . S
C551 C553 1.415 . S
C552 C551 1.355 . S
C552 C554 1.419 . S
C553 C548 1.425 . S
C553 C550 1.409 . S
C553 C551 1.415 . S
C554 H544 0.930 . S
C554 C552 1.419 . S
C554 C555 1.362 . S
C555 H545 0.930 . S
C555 C548 1.409 . S
C555 C554 1.362 . S
C179 C4 1.700 . S
C184 C91 1.616 . S
C195 C16 1.800 . S
C200 C125 1.706 . S
C216 C137 1.082 . S
C211 C32 1.176 . S
C227 C43 1.380 . S
C232 C171 1.284 . S
C248 C128 1.796 . S
C243 C5 1.922 . S
C264 C108 1.241 . S
C259 C21 1.342 . S
C280 C155 1.338 . S
C275 C27 1.411 . S
C296 C146 1.341 . S
C291 C37 1.451 . S
C307 C10 1.563 . S
C312 C154 1.430 . S
C328 C116 1.522 1_556 S
C323 C26 1.597 . S
C339 C38 1.305 . S
C344 C92 1.265 . S
C355 C15 1.663 . S
C360 C149 1.595 . S
C376 C107 1.795 . S
C371 C48 1.881 . S
C387 C59 1.629 . S
C392 C129 1.501 . S
C403 C76 1.501 . S
C408 C134 1.454 . S
C419 C87 1.312 . S
C424 C167 1.321 . S
C435 C54 1.500 1_544 S
C440 C112 1.433 1_545 S
C456 C104 1.740 . S
C451 C60 1.893 . S
C472 C158 1.476 . S
C467 C71 1.449 . S
C488 C150 1.339 . S
C483 C82 1.494 . S
C499 C49 1.782 . S
C504 C170 1.724 . S
C520 C113 1.337 . S
C515 C70 1.387 . S
C536 C95 1.566 . S
C531 C81 1.659 . S
C547 C65 1.546 . S
C552 C133 1.470 . S
