# Generated by pormake.
# Topology pto, (3,4)-cn, num edge types: 1
# Building blocks:
#     Node 0, Type 0, BuildingBlock: WUSLED_clean_sbu_0, # of connection points: 3
#     Node 1, Type 0, BuildingBlock: WUSLED_clean_sbu_0, # of connection points: 3
#     Node 2, Type 0, BuildingBlock: WUSLED_clean_sbu_0, # of connection points: 3
#     Node 3, Type 0, BuildingBlock: WUSLED_clean_sbu_0, # of connection points: 3
#     Node 4, Type 0, BuildingBlock: WUSLED_clean_sbu_0, # of connection points: 3
#     Node 5, Type 0, BuildingBlock: WUSLED_clean_sbu_0, # of connection points: 3
#     Node 6, Type 0, BuildingBlock: WUSLED_clean_sbu_0, # of connection points: 3
#     Node 7, Type 0, BuildingBlock: WUSLED_clean_sbu_0, # of connection points: 3
#     Node 8, Type 1, BuildingBlock: MIFKUJ_clean_linker_1, # of connection points: 4
#     Node 9, Type 1, BuildingBlock: MIFKUJ_clean_linker_1, # of connection points: 4
#     Node 10, Type 1, BuildingBlock: MIFKUJ_clean_linker_1, # of connection points: 4
#     Node 11, Type 1, BuildingBlock: MIFKUJ_clean_linker_1, # of connection points: 4
#     Node 12, Type 1, BuildingBlock: MIFKUJ_clean_linker_1, # of connection points: 4
#     Node 13, Type 1, BuildingBlock: MIFKUJ_clean_linker_1, # of connection points: 4
#     Edge 14, Type (0, 1), BuildingBlock: ZUJKAS_clean_linker_0, # of connection points: 2
#     Edge 15, Type (0, 1), BuildingBlock: ZUJKAS_clean_linker_0, # of connection points: 2
#     Edge 16, Type (0, 1), BuildingBlock: ZUJKAS_clean_linker_0, # of connection points: 2
#     Edge 17, Type (0, 1), BuildingBlock: ZUJKAS_clean_linker_0, # of connection points: 2
#     Edge 18, Type (0, 1), BuildingBlock: ZUJKAS_clean_linker_0, # of connection points: 2
#     Edge 19, Type (0, 1), BuildingBlock: ZUJKAS_clean_linker_0, # of connection points: 2
#     Edge 20, Type (0, 1), BuildingBlock: ZUJKAS_clean_linker_0, # of connection points: 2
#     Edge 21, Type (0, 1), BuildingBlock: ZUJKAS_clean_linker_0, # of connection points: 2
#     Edge 22, Type (0, 1), BuildingBlock: ZUJKAS_clean_linker_0, # of connection points: 2
#     Edge 23, Type (0, 1), BuildingBlock: ZUJKAS_clean_linker_0, # of connection points: 2
#     Edge 24, Type (0, 1), BuildingBlock: ZUJKAS_clean_linker_0, # of connection points: 2
#     Edge 25, Type (0, 1), BuildingBlock: ZUJKAS_clean_linker_0, # of connection points: 2
#     Edge 26, Type (0, 1), BuildingBlock: ZUJKAS_clean_linker_0, # of connection points: 2
#     Edge 27, Type (0, 1), BuildingBlock: ZUJKAS_clean_linker_0, # of connection points: 2
#     Edge 28, Type (0, 1), BuildingBlock: ZUJKAS_clean_linker_0, # of connection points: 2
#     Edge 29, Type (0, 1), BuildingBlock: ZUJKAS_clean_linker_0, # of connection points: 2
#     Edge 30, Type (0, 1), BuildingBlock: ZUJKAS_clean_linker_0, # of connection points: 2
#     Edge 31, Type (0, 1), BuildingBlock: ZUJKAS_clean_linker_0, # of connection points: 2
#     Edge 32, Type (0, 1), BuildingBlock: ZUJKAS_clean_linker_0, # of connection points: 2
#     Edge 33, Type (0, 1), BuildingBlock: ZUJKAS_clean_linker_0, # of connection points: 2
#     Edge 34, Type (0, 1), BuildingBlock: ZUJKAS_clean_linker_0, # of connection points: 2
#     Edge 35, Type (0, 1), BuildingBlock: ZUJKAS_clean_linker_0, # of connection points: 2
#     Edge 36, Type (0, 1), BuildingBlock: ZUJKAS_clean_linker_0, # of connection points: 2
#     Edge 37, Type (0, 1), BuildingBlock: ZUJKAS_clean_linker_0, # of connection points: 2
# Relax obj value: 0.001
# Max RMSD: 0.013
# Mean RMSD: 0.005
data_MOF--net-pto--node1-WUSLED_clean_sbu_0--node2-MIFKUJ_clean_linker_1--edge1-ZUJKAS_clean_linker_0
_symmetry_space_group_name_H-M    P1
_symmetry_Int_Tables_number       1
_symmetry_cell_setting            triclinic
loop_
_symmetry_equiv_pos_as_xyz
'x, y, z'
_cell_length_a     59.434299
_cell_length_b     87.685915
_cell_length_c     73.763087
_cell_angle_alpha  89.544544
_cell_angle_beta   90.736562
_cell_angle_gamma 90.594205
loop_
_atom_site_label
_atom_site_type_symbol
_atom_site_fract_x
_atom_site_fract_y
_atom_site_fract_z
_atom_type_partial_charge
C0 C 0.23738 0.23435 0.34022 0.0
C1 C 0.24717 0.22131 0.3329 0.0
C2 C 0.2404 0.20724 0.36098 0.0
C3 C 0.24859 0.20785 0.34317 0.0
C4 C 0.23073 0.2204 0.36826 0.0
C5 C 0.22922 0.23382 0.35795 0.0
U6 U 0.25485 0.2594 0.30024 0.0
O7 O 0.23462 0.27383 0.28193 0.0
O8 O 0.26137 0.28413 0.29873 0.0
C9 C 0.24453 0.28649 0.28736 0.0
C10 C 0.2357 0.24858 0.32961 0.0
C11 C 0.22944 0.29901 0.29196 0.0
C12 C 0.1995 0.30965 0.30995 0.0
C13 C 0.21397 0.29761 0.3061 0.0
C14 C 0.21603 0.32459 0.28566 0.0
C15 C 0.20027 0.32326 0.29968 0.0
C16 C 0.23044 0.31258 0.28185 0.0
C17 C 0.29868 0.24502 0.2673 0.0
C18 C 0.30949 0.25954 0.24054 0.0
C19 C 0.32809 0.23577 0.24782 0.0
C20 C 0.31471 0.23404 0.26317 0.0
C21 C 0.32566 0.24854 0.23631 0.0
C22 C 0.29614 0.25781 0.25593 0.0
C23 C 0.28478 0.243 0.2835 0.0
O24 O 0.25371 0.2574 0.33 0.0
O25 O 0.22678 0.24723 0.31329 0.0
O26 O 0.26301 0.24174 0.28044 0.0
O27 O 0.28986 0.25205 0.2971 0.0
H28 H 0.25373 0.22155 0.31926 0.0
H29 H 0.25638 0.19798 0.33724 0.0
H30 H 0.22403 0.22027 0.38184 0.0
H31 H 0.22162 0.24378 0.36382 0.0
H32 H 0.18746 0.3082 0.32073 0.0
H33 H 0.21299 0.28718 0.31405 0.0
H34 H 0.21738 0.33498 0.2777 0.0
H35 H 0.24236 0.31387 0.27094 0.0
H36 H 0.30735 0.26959 0.23208 0.0
H37 H 0.34014 0.22698 0.24484 0.0
H38 H 0.31685 0.22408 0.27179 0.0
H39 H 0.28386 0.26644 0.25898 0.0
C40 C 0.23638 0.79165 0.67757 0.0
C41 C 0.24647 0.80469 0.6852 0.0
C42 C 0.23929 0.81903 0.65729 0.0
C43 C 0.24784 0.81828 0.67516 0.0
C44 C 0.22927 0.80588 0.64974 0.0
C45 C 0.22783 0.79233 0.65981 0.0
U46 U 0.25339 0.76615 0.71758 0.0
O47 O 0.23306 0.75064 0.7344 0.0
O48 O 0.26062 0.74155 0.7183 0.0
C49 C 0.2434 0.73841 0.72874 0.0
C50 C 0.23487 0.77723 0.68784 0.0
C51 C 0.22885 0.7256 0.72294 0.0
C52 C 0.19455 0.7156 0.70892 0.0
C53 C 0.20851 0.72799 0.7135 0.0
C54 C 0.2214 0.69831 0.72275 0.0
C55 C 0.2008 0.70061 0.71358 0.0
C56 C 0.23525 0.71069 0.7274 0.0
C57 C 0.2958 0.78049 0.75305 0.0
C58 C 0.31738 0.76434 0.77367 0.0
C59 C 0.3135 0.79125 0.78001 0.0
C60 C 0.30047 0.79301 0.76422 0.0
C61 C 0.32222 0.77691 0.78486 0.0
C62 C 0.30418 0.7661 0.75795 0.0
C63 C 0.28225 0.78269 0.73637 0.0
O64 O 0.25313 0.76891 0.68789 0.0
O65 O 0.2255 0.77804 0.70385 0.0
O66 O 0.26039 0.78332 0.73863 0.0
O67 O 0.28795 0.77443 0.72239 0.0
H68 H 0.25331 0.80433 0.69888 0.0
H69 H 0.25588 0.82814 0.6813 0.0
H70 H 0.22227 0.80611 0.63612 0.0
H71 H 0.21999 0.78237 0.65371 0.0
H72 H 0.17891 0.71774 0.70169 0.0
H73 H 0.20332 0.73943 0.70982 0.0
H74 H 0.22659 0.68696 0.72675 0.0
H75 H 0.25086 0.70862 0.73472 0.0
H76 H 0.32363 0.75312 0.77716 0.0
H77 H 0.3171 0.80117 0.78825 0.0
H78 H 0.29412 0.8042 0.76068 0.0
H79 H 0.30059 0.75623 0.74962 0.0
C80 C 0.73137 0.7803 0.27056 0.0
C81 C 0.73369 0.76741 0.25962 0.0
C82 C 0.70386 0.77653 0.23941 0.0
C83 C 0.72007 0.76555 0.24415 0.0
C84 C 0.7016 0.78939 0.25053 0.0
C85 C 0.71525 0.79124 0.26595 0.0
U86 U 0.77657 0.76627 0.30356 0.0
O87 O 0.80518 0.77866 0.31601 0.0
O88 O 0.77928 0.76822 0.3332 0.0
C89 C 0.79713 0.77719 0.33245 0.0
C90 C 0.74577 0.78251 0.2867 0.0
C91 C 0.79598 0.79138 0.34292 0.0
C92 C 0.77581 0.81383 0.35262 0.0
C93 C 0.77663 0.80043 0.34246 0.0
C94 C 0.81381 0.80942 0.36355 0.0
C95 C 0.79439 0.81849 0.36333 0.0
C96 C 0.81456 0.796 0.35346 0.0
C97 C 0.80182 0.7267 0.29562 0.0
C98 C 0.83157 0.71559 0.31424 0.0
C99 C 0.81572 0.70146 0.28895 0.0
C100 C 0.80122 0.71352 0.28504 0.0
C101 C 0.83115 0.70235 0.30354 0.0
C102 C 0.81703 0.72769 0.31029 0.0
C103 C 0.7865 0.73923 0.29101 0.0
O104 O 0.74135 0.77348 0.30053 0.0
O105 O 0.7674 0.78391 0.28352 0.0
O106 O 0.79611 0.75192 0.28531 0.0
O107 O 0.77019 0.74153 0.30251 0.0
H108 H 0.74604 0.75881 0.26303 0.0
H109 H 0.72207 0.75544 0.23602 0.0
H110 H 0.68952 0.79816 0.24715 0.0
H111 H 0.7133 0.80128 0.27423 0.0
H112 H 0.76049 0.82041 0.35226 0.0
H113 H 0.76212 0.79709 0.33432 0.0
H114 H 0.82858 0.81277 0.37135 0.0
H115 H 0.8297 0.78922 0.35387 0.0
H116 H 0.84337 0.7167 0.32547 0.0
H117 H 0.81465 0.69135 0.28063 0.0
H118 H 0.78951 0.71254 0.27372 0.0
H119 H 0.8177 0.73783 0.3186 0.0
C120 C 0.76228 0.21544 0.701 0.0
C121 C 0.77945 0.21672 0.68817 0.0
C122 C 0.76887 0.1919 0.67576 0.0
C123 C 0.78271 0.20504 0.67564 0.0
C124 C 0.75154 0.19084 0.68856 0.0
C125 C 0.74832 0.20248 0.70105 0.0
U126 U 0.77405 0.25497 0.72123 0.0
O127 O 0.75066 0.27118 0.73323 0.0
O128 O 0.77792 0.26148 0.7499 0.0
C129 C 0.75961 0.26975 0.74955 0.0
C130 C 0.75878 0.22733 0.71459 0.0
C131 C 0.74378 0.26689 0.76444 0.0
C132 C 0.70921 0.2558 0.77626 0.0
C133 C 0.72423 0.25797 0.76197 0.0
C134 C 0.73338 0.27112 0.79573 0.0
C135 C 0.71361 0.26237 0.7933 0.0
C136 C 0.74827 0.27338 0.78143 0.0
C137 C 0.8155 0.28285 0.69986 0.0
C138 C 0.82321 0.30754 0.71346 0.0
C139 C 0.84144 0.30065 0.68554 0.0
C140 C 0.83025 0.28654 0.6858 0.0
C141 C 0.83807 0.31133 0.69937 0.0
C142 C 0.81201 0.29342 0.71369 0.0
C143 C 0.80381 0.26799 0.69997 0.0
O144 O 0.77598 0.23017 0.72546 0.0
O145 O 0.74874 0.23973 0.70868 0.0
O146 O 0.78201 0.26848 0.69684 0.0
O147 O 0.80928 0.25883 0.71348 0.0
H148 H 0.79039 0.22668 0.68796 0.0
H149 H 0.79631 0.20619 0.66608 0.0
H150 H 0.74031 0.18104 0.68885 0.0
H151 H 0.73492 0.20135 0.71081 0.0
H152 H 0.69426 0.24887 0.77402 0.0
H153 H 0.72052 0.25275 0.749 0.0
H154 H 0.73713 0.27648 0.80861 0.0
H155 H 0.76326 0.2803 0.78359 0.0
H156 H 0.82001 0.31555 0.7242 0.0
H157 H 0.85298 0.30311 0.67463 0.0
H158 H 0.83317 0.27848 0.67504 0.0
H159 H 0.80058 0.29076 0.72463 0.0
C160 C 0.79795 0.72454 0.73109 0.0
C161 C 0.81172 0.72507 0.71578 0.0
C162 C 0.82621 0.69983 0.72328 0.0
C163 C 0.82572 0.71279 0.71188 0.0
C164 C 0.81224 0.6994 0.73855 0.0
C165 C 0.79827 0.71164 0.7424 0.0
U166 U 0.77392 0.76454 0.72277 0.0
O167 O 0.7391 0.77239 0.72565 0.0
O168 O 0.76606 0.78226 0.74257 0.0
C169 C 0.7443 0.78131 0.73934 0.0
C170 C 0.78319 0.73726 0.73562 0.0
C171 C 0.73021 0.77943 0.75545 0.0
C172 C 0.71868 0.76493 0.78204 0.0
C173 C 0.73203 0.76646 0.76662 0.0
C174 C 0.70147 0.78927 0.77518 0.0
C175 C 0.70327 0.77635 0.78655 0.0
C176 C 0.71483 0.79078 0.75979 0.0
C177 C 0.79309 0.78948 0.68322 0.0
C178 C 0.776 0.814 0.67656 0.0
C179 C 0.80821 0.80582 0.65949 0.0
C180 C 0.80883 0.79226 0.66959 0.0
C181 C 0.79178 0.81686 0.66284 0.0
C182 C 0.77668 0.80044 0.6867 0.0
C183 C 0.79405 0.77519 0.69376 0.0
O184 O 0.79341 0.74975 0.74123 0.0
O185 O 0.76661 0.73991 0.72409 0.0
O186 O 0.77576 0.76664 0.6931 0.0
O187 O 0.80263 0.7764 0.71019 0.0
H188 H 0.81168 0.73499 0.70692 0.0
H189 H 0.83639 0.71353 0.70011 0.0
H190 H 0.81189 0.68952 0.74744 0.0
H191 H 0.78767 0.71103 0.75423 0.0
H192 H 0.72068 0.75492 0.79058 0.0
H193 H 0.74387 0.75758 0.76346 0.0
H194 H 0.68956 0.79817 0.77807 0.0
H195 H 0.71315 0.80084 0.75127 0.0
H196 H 0.7633 0.82233 0.67963 0.0
H197 H 0.82043 0.80756 0.64889 0.0
H198 H 0.82159 0.78391 0.66672 0.0
H199 H 0.76445 0.79851 0.69726 0.0
C200 C 0.72908 0.2424 0.27039 0.0
C201 C 0.73624 0.25204 0.25625 0.0
C202 C 0.70206 0.24618 0.23895 0.0
C203 C 0.7229 0.25385 0.24063 0.0
C204 C 0.69488 0.23668 0.25325 0.0
C205 C 0.70831 0.23479 0.2688 0.0
U206 U 0.77305 0.25669 0.3045 0.0
O207 O 0.77416 0.25447 0.33426 0.0
O208 O 0.80106 0.24476 0.31799 0.0
C209 C 0.79218 0.24591 0.33415 0.0
C210 C 0.74293 0.24024 0.28689 0.0
C211 C 0.7906 0.23161 0.34464 0.0
C212 C 0.77905 0.20502 0.34736 0.0
C213 C 0.78019 0.21858 0.33726 0.0
C214 C 0.79841 0.21743 0.37239 0.0
C215 C 0.78817 0.20428 0.36505 0.0
C216 C 0.79962 0.23096 0.36226 0.0
C217 C 0.79844 0.29674 0.29726 0.0
C218 C 0.82748 0.30795 0.31662 0.0
C219 C 0.81152 0.32264 0.29173 0.0
C220 C 0.79758 0.3103 0.28716 0.0
C221 C 0.8266 0.32166 0.30655 0.0
C222 C 0.81346 0.29559 0.31203 0.0
C223 C 0.78344 0.28401 0.29215 0.0
O224 O 0.76472 0.23908 0.28439 0.0
O225 O 0.73792 0.24903 0.30057 0.0
O226 O 0.76656 0.28132 0.30309 0.0
O227 O 0.7934 0.27153 0.28682 0.0
H228 H 0.75213 0.25815 0.25729 0.0
H229 H 0.72876 0.26138 0.22994 0.0
H230 H 0.67904 0.23051 0.2523 0.0
H231 H 0.70249 0.22734 0.27959 0.0
H232 H 0.77082 0.19515 0.34139 0.0
H233 H 0.77299 0.21891 0.32369 0.0
H234 H 0.80583 0.21721 0.38588 0.0
H235 H 0.80772 0.24091 0.36816 0.0
H236 H 0.83876 0.30686 0.32819 0.0
H237 H 0.81066 0.33291 0.2835 0.0
H238 H 0.78613 0.31135 0.27568 0.0
H239 H 0.81427 0.28518 0.32001 0.0
C240 C 0.23511 0.23285 0.67734 0.0
C241 C 0.25283 0.22265 0.68034 0.0
C242 C 0.2373 0.20563 0.65725 0.0
C243 C 0.25394 0.20916 0.67037 0.0
C244 C 0.21947 0.21587 0.65448 0.0
C245 C 0.21842 0.22935 0.66442 0.0
U246 U 0.25373 0.25839 0.71653 0.0
O247 O 0.26059 0.28313 0.71699 0.0
O248 O 0.234 0.27327 0.73398 0.0
C249 C 0.24387 0.28578 0.72797 0.0
C250 C 0.23384 0.24718 0.68749 0.0
C251 C 0.22886 0.29831 0.72254 0.0
C252 C 0.19441 0.30772 0.70847 0.0
C253 C 0.20868 0.29561 0.71292 0.0
C254 C 0.22058 0.32538 0.72282 0.0
C255 C 0.20017 0.32275 0.71343 0.0
C256 C 0.23474 0.31327 0.72734 0.0
C257 C 0.29793 0.24448 0.75056 0.0
C258 C 0.30874 0.25928 0.77706 0.0
C259 C 0.32759 0.23555 0.77081 0.0
C260 C 0.31414 0.23362 0.75529 0.0
C261 C 0.32504 0.24839 0.78191 0.0
C262 C 0.29533 0.25735 0.76149 0.0
C263 C 0.28381 0.24219 0.73429 0.0
O264 O 0.22532 0.246 0.70381 0.0
O265 O 0.25189 0.25596 0.68691 0.0
O266 O 0.28874 0.25096 0.72033 0.0
O267 O 0.26208 0.24106 0.73717 0.0
H268 H 0.26587 0.22517 0.69031 0.0
H269 H 0.26803 0.20164 0.67274 0.0
H270 H 0.20616 0.21341 0.64474 0.0
H271 H 0.20455 0.23706 0.66201 0.0
H272 H 0.17893 0.30535 0.70106 0.0
H273 H 0.20391 0.28413 0.70897 0.0
H274 H 0.22539 0.33677 0.72705 0.0
H275 H 0.25023 0.31557 0.73478 0.0
H276 H 0.30652 0.26937 0.78518 0.0
H277 H 0.33975 0.22685 0.77427 0.0
H278 H 0.31633 0.2236 0.74702 0.0
H279 H 0.28291 0.26588 0.75798 0.0
C280 C 0.21188 0.73908 0.32145 0.0
C281 C 0.21831 0.72766 0.30941 0.0
C282 C 0.18951 0.71051 0.3215 0.0
C283 C 0.20724 0.71349 0.30944 0.0
C284 C 0.18317 0.72206 0.33351 0.0
C285 C 0.19427 0.7362 0.33347 0.0
U286 U 0.25362 0.76749 0.30115 0.0
O287 O 0.25071 0.7923 0.29679 0.0
O288 O 0.27767 0.78322 0.31428 0.0
C289 C 0.26719 0.79543 0.30827 0.0
C290 C 0.22319 0.75407 0.32144 0.0
C291 C 0.26249 0.80717 0.32186 0.0
C292 C 0.25362 0.81469 0.35261 0.0
C293 C 0.257 0.80328 0.33979 0.0
C294 C 0.26052 0.834 0.32963 0.0
C295 C 0.25546 0.83019 0.3477 0.0
C296 C 0.26404 0.8226 0.31686 0.0
C297 C 0.28716 0.75582 0.25938 0.0
C298 C 0.30431 0.77239 0.23671 0.0
C299 C 0.31688 0.74634 0.24029 0.0
C300 C 0.30135 0.74402 0.25414 0.0
C301 C 0.31843 0.76051 0.23132 0.0
C302 C 0.28888 0.77009 0.25068 0.0
C303 C 0.27049 0.75283 0.27365 0.0
O304 O 0.24484 0.75395 0.32532 0.0
O305 O 0.21813 0.763 0.30763 0.0
O306 O 0.25174 0.76064 0.27257 0.0
O307 O 0.27862 0.75172 0.29026 0.0
H308 H 0.2319 0.72971 0.30001 0.0
H309 H 0.21273 0.70482 0.30016 0.0
H310 H 0.16939 0.72027 0.34277 0.0
H311 H 0.18902 0.74493 0.34278 0.0
H312 H 0.24949 0.81139 0.36636 0.0
H313 H 0.25554 0.79142 0.34391 0.0
H314 H 0.26231 0.84582 0.32544 0.0
H315 H 0.26827 0.82583 0.3031 0.0
H316 H 0.30528 0.78349 0.23019 0.0
H317 H 0.32733 0.73691 0.23633 0.0
H318 H 0.30027 0.73292 0.26066 0.0
H319 H 0.27822 0.77943 0.25459 0.0
H320 H 0.96993 0.48955 0.30271 0.0
H321 H 0.94798 0.46584 0.30264 0.0
H322 H 0.98355 0.45081 0.35091 0.0
H323 H 0.00548 0.47458 0.35089 0.0
H324 H 0.97345 0.51217 0.32616 0.0
H325 H 0.0232 0.47579 0.30118 0.0
H326 H 0.0442 0.45208 0.29967 0.0
H327 H 0.08206 0.46498 0.34768 0.0
H328 H 0.06025 0.48841 0.34953 0.0
H329 H 0.06032 0.53559 0.34997 0.0
H330 H 0.08239 0.55926 0.34882 0.0
H331 H 0.04634 0.57275 0.30011 0.0
H332 H 0.02502 0.54881 0.30096 0.0
H333 H 0.05692 0.51214 0.32683 0.0
H334 H 0.00616 0.54966 0.35043 0.0
H335 H 0.98556 0.57367 0.34944 0.0
H336 H 0.94992 0.55856 0.30129 0.0
H337 H 0.97113 0.53484 0.302 0.0
C338 C 0.98951 0.48382 0.32671 0.0
C339 C 0.97292 0.48119 0.31334 0.0
C340 C 0.96034 0.46764 0.31334 0.0
C341 C 0.96402 0.45641 0.32676 0.0
C342 C 0.98052 0.45912 0.34023 0.0
C343 C 0.99305 0.47271 0.34025 0.0
C344 C 1.00304 0.49818 0.32642 0.0
C345 C 0.9917 0.51216 0.32613 0.0
C346 C 0.02688 0.49817 0.32666 0.0
C347 C 0.03991 0.48381 0.32562 0.0
C348 C 0.03583 0.47344 0.31151 0.0
C349 C 0.04806 0.45994 0.31055 0.0
C350 C 0.06485 0.45659 0.32356 0.0
C351 C 0.06904 0.46707 0.33759 0.0
C352 C 0.05672 0.48055 0.33857 0.0
C353 C 0.04081 0.54049 0.32569 0.0
C354 C 0.05727 0.54362 0.33899 0.0
C355 C 0.06974 0.55723 0.3384 0.0
C356 C 0.06607 0.56798 0.32443 0.0
C357 C 0.04977 0.5647 0.31097 0.0
C358 C 0.03737 0.55106 0.31155 0.0
C359 C 0.02732 0.52613 0.32656 0.0
C360 C 0.03867 0.51214 0.32698 0.0
C361 C 1.00348 0.52614 0.32624 0.0
C362 C 0.99041 0.54051 0.32616 0.0
C363 C 0.99401 0.55157 0.33959 0.0
C364 C 0.98206 0.56524 0.33911 0.0
C365 C 0.96615 0.56809 0.32523 0.0
C366 C 0.96231 0.55686 0.31199 0.0
C367 C 0.97427 0.54322 0.31248 0.0
H368 H 0.05212 0.53487 0.66827 0.0
H369 H 0.07443 0.55847 0.66891 0.0
H370 H 0.04473 0.57014 0.72007 0.0
H371 H 0.02243 0.54658 0.71929 0.0
H372 H 0.05173 0.51084 0.6915 0.0
H373 H 0.99822 0.54849 0.67074 0.0
H374 H 0.97719 0.57224 0.67281 0.0
H375 H 0.94665 0.55584 0.72223 0.0
H376 H 0.96832 0.53241 0.72042 0.0
H377 H 0.96781 0.48701 0.71948 0.0
H378 H 0.94624 0.46312 0.72012 0.0
H379 H 0.9776 0.4494 0.67037 0.0
H380 H 0.99853 0.47353 0.66951 0.0
H381 H 0.96854 0.51026 0.69613 0.0
H382 H 0.02139 0.47405 0.71873 0.0
H383 H 0.04317 0.45058 0.71948 0.0
H384 H 0.07485 0.46383 0.66928 0.0
H385 H 0.05293 0.48732 0.6686 0.0
C386 C 0.03542 0.53902 0.69362 0.0
C387 C 0.05043 0.54252 0.67962 0.0
C388 C 0.06322 0.556 0.68003 0.0
C389 C 0.06134 0.56623 0.69452 0.0
C390 C 0.04631 0.56266 0.70856 0.0
C391 C 0.03357 0.54917 0.70815 0.0
C392 C 0.02203 0.52461 0.69321 0.0
C393 C 0.03351 0.51071 0.69219 0.0
C394 C 0.99829 0.52444 0.69471 0.0
C395 C 0.98507 0.53872 0.69555 0.0
C396 C 0.98713 0.55007 0.6821 0.0
C397 C 0.97492 0.56359 0.68321 0.0
C398 C 0.9603 0.566 0.69774 0.0
C399 C 0.95804 0.5545 0.71102 0.0
C400 C 0.97026 0.54101 0.70992 0.0
C401 C 0.98495 0.48202 0.69454 0.0
C402 C 0.96993 0.47889 0.70865 0.0
C403 C 0.95776 0.46516 0.70909 0.0
C404 C 0.96027 0.45429 0.69535 0.0
C405 C 0.97511 0.45756 0.68109 0.0
C406 C 0.98726 0.4713 0.68066 0.0
C407 C 0.99823 0.49649 0.69438 0.0
C408 C 0.98675 0.51038 0.6953 0.0
C409 C 0.02199 0.49665 0.69303 0.0
C410 C 0.03529 0.48238 0.69348 0.0
C411 C 0.03284 0.47184 0.70778 0.0
C412 C 0.0453 0.4584 0.70818 0.0
C413 C 0.06069 0.45528 0.69439 0.0
C414 C 0.0633 0.46594 0.68019 0.0
C415 C 0.05075 0.47936 0.67976 0.0
H416 H 0.21295 0.98962 0.54341 0.0
H417 H 0.21287 0.96612 0.56148 0.0
H418 H 0.27539 0.953 0.53706 0.0
H419 H 0.27538 0.97652 0.51905 0.0
H420 H 0.24163 0.01299 0.54297 0.0
H421 H 0.21518 0.97626 0.49907 0.0
H422 H 0.21565 0.9532 0.48066 0.0
H423 H 0.27908 0.96771 0.45788 0.0
H424 H 0.27832 0.99081 0.47615 0.0
H425 H 0.27728 0.03742 0.47588 0.0
H426 H 0.27698 0.06096 0.45786 0.0
H427 H 0.21414 0.0735 0.48221 0.0
H428 H 0.21423 0.04974 0.49979 0.0
H429 H 0.24858 0.01369 0.47604 0.0
H430 H 0.27513 0.05032 0.51943 0.0
H431 H 0.27464 0.07379 0.53709 0.0
H432 H 0.21219 0.05923 0.56146 0.0
H433 H 0.21245 0.03599 0.54334 0.0
C434 C 0.24403 0.98479 0.52971 0.0
C435 C 0.22665 0.98168 0.54196 0.0
C436 C 0.22667 0.96826 0.55233 0.0
C437 C 0.24412 0.95766 0.55072 0.0
C438 C 0.26152 0.9608 0.53844 0.0
C439 C 0.26153 0.97426 0.52812 0.0
C440 C 0.24413 0.99924 0.51901 0.0
C441 C 0.24281 0.01313 0.52831 0.0
C442 C 0.24632 0.99945 0.49991 0.0
C443 C 0.24679 0.98523 0.48909 0.0
C444 C 0.22927 0.9744 0.49022 0.0
C445 C 0.2296 0.96119 0.4797 0.0
C446 C 0.2474 0.95858 0.46775 0.0
C447 C 0.26494 0.96945 0.46671 0.0
C448 C 0.26458 0.98264 0.47721 0.0
C449 C 0.24589 0.04186 0.48932 0.0
C450 C 0.26342 0.04524 0.47731 0.0
C451 C 0.26331 0.05876 0.46712 0.0
C452 C 0.24557 0.06915 0.46862 0.0
C453 C 0.22796 0.06569 0.4806 0.0
C454 C 0.2281 0.05218 0.4908 0.0
C455 C 0.24599 0.02741 0.5 0.0
C456 C 0.24737 0.01354 0.49071 0.0
C457 C 0.2439 0.02721 0.51911 0.0
C458 C 0.24369 0.04146 0.52989 0.0
C459 C 0.26122 0.05225 0.52844 0.0
C460 C 0.26103 0.0656 0.53869 0.0
C461 C 0.24335 0.06841 0.55069 0.0
C462 C 0.22589 0.05753 0.55218 0.0
C463 C 0.22611 0.04418 0.54194 0.0
H464 H 0.47361 0.79057 0.98301 0.0
H465 H 0.45075 0.79095 0.95525 0.0
H466 H 0.4779 0.74734 0.94024 0.0
H467 H 0.50105 0.74722 0.96788 0.0
H468 H 0.47308 0.77045 0.011 0.0
H469 H 0.52644 0.78849 0.96759 0.0
H470 H 0.54854 0.78861 0.93989 0.0
H471 H 0.57897 0.74607 0.95638 0.0
H472 H 0.55625 0.74578 0.98381 0.0
H473 H 0.55703 0.74607 0.03958 0.0
H474 H 0.57958 0.74627 0.06756 0.0
H475 H 0.54932 0.78888 0.08257 0.0
H476 H 0.52683 0.78859 0.05462 0.0
H477 H 0.55612 0.76535 0.01149 0.0
H478 H 0.50235 0.74738 0.05503 0.0
H479 H 0.47982 0.74739 0.0825 0.0
H480 H 0.45097 0.79047 0.06607 0.0
H481 H 0.47335 0.79026 0.03851 0.0
C482 C 0.48915 0.76892 0.97747 0.0
C483 C 0.47465 0.78111 0.97371 0.0
C484 C 0.4615 0.78126 0.95786 0.0
C485 C 0.46239 0.76915 0.94549 0.0
C486 C 0.47701 0.75697 0.9493 0.0
C487 C 0.49023 0.75686 0.96513 0.0
C488 C 0.50262 0.76866 0.99457 0.0
C489 C 0.49127 0.76953 0.01111 0.0
C490 C 0.5263 0.76707 0.9947 0.0
C491 C 0.53948 0.76703 0.9777 0.0
C492 C 0.53765 0.77908 0.96513 0.0
C493 C 0.55049 0.77922 0.94938 0.0
C494 C 0.56556 0.76736 0.94591 0.0
C495 C 0.56733 0.75529 0.95851 0.0
C496 C 0.55448 0.75516 0.97427 0.0
C497 C 0.54003 0.76722 0.04507 0.0
C498 C 0.55526 0.75545 0.04891 0.0
C499 C 0.56819 0.75561 0.06488 0.0
C500 C 0.56622 0.76757 0.07735 0.0
C501 C 0.55098 0.77936 0.07343 0.0
C502 C 0.53811 0.77922 0.05744 0.0
C503 C 0.52658 0.76714 0.02794 0.0
C504 C 0.53792 0.76621 0.01139 0.0
C505 C 0.50288 0.76869 0.02779 0.0
C506 C 0.48966 0.76887 0.04475 0.0
C507 C 0.49133 0.7569 0.05743 0.0
C508 C 0.47846 0.75694 0.07317 0.0
C509 C 0.46356 0.76894 0.07653 0.0
C510 C 0.46201 0.78095 0.06381 0.0
C511 C 0.47486 0.78088 0.04807 0.0
H512 H 0.75768 0.98612 0.54679 0.0
H513 H 0.75795 0.96267 0.56491 0.0
H514 H 0.81939 0.94916 0.53904 0.0
H515 H 0.81949 0.97292 0.52153 0.0
H516 H 0.78617 0.00936 0.54615 0.0
H517 H 0.75885 0.97318 0.50225 0.0
H518 H 0.75877 0.95009 0.48392 0.0
H519 H 0.82217 0.96409 0.46064 0.0
H520 H 0.82193 0.98726 0.47883 0.0
H521 H 0.82091 0.03389 0.4787 0.0
H522 H 0.82058 0.05744 0.46073 0.0
H523 H 0.7582 0.07022 0.48563 0.0
H524 H 0.75861 0.04663 0.50354 0.0
H525 H 0.79245 0.01043 0.47918 0.0
H526 H 0.8182 0.04765 0.52264 0.0
H527 H 0.81731 0.07059 0.54129 0.0
H528 H 0.75582 0.05439 0.56581 0.0
H529 H 0.75675 0.03155 0.54711 0.0
C530 C 0.78844 0.98125 0.53266 0.0
C531 C 0.77123 0.97812 0.54505 0.0
C532 C 0.77131 0.96463 0.55529 0.0
C533 C 0.78866 0.95397 0.55341 0.0
C534 C 0.80589 0.95716 0.54099 0.0
C535 C 0.80583 0.97068 0.53079 0.0
C536 C 0.78847 0.99577 0.52206 0.0
C537 C 0.78722 0.0096 0.53147 0.0
C538 C 0.7904 0.99608 0.50295 0.0
C539 C 0.79048 0.98191 0.49203 0.0
C540 C 0.77281 0.97122 0.4933 0.0
C541 C 0.77282 0.95798 0.48283 0.0
C542 C 0.79048 0.95519 0.47079 0.0
C543 C 0.80814 0.96595 0.46955 0.0
C544 C 0.80808 0.97919 0.48 0.0
C545 C 0.78992 0.03854 0.49263 0.0
C546 C 0.80715 0.04176 0.48028 0.0
C547 C 0.8069 0.05521 0.46997 0.0
C548 C 0.78937 0.06573 0.47175 0.0
C549 C 0.77212 0.06248 0.48413 0.0
C550 C 0.77234 0.04899 0.49438 0.0
C551 C 0.79007 0.02405 0.50326 0.0
C552 C 0.7914 0.01021 0.49386 0.0
C553 C 0.78808 0.02374 0.52239 0.0
C554 C 0.78744 0.0379 0.53335 0.0
C555 C 0.80439 0.04912 0.53187 0.0
C556 C 0.80387 0.06224 0.54255 0.0
C557 C 0.78653 0.06431 0.55508 0.0
C558 C 0.76959 0.05306 0.55649 0.0
C559 C 0.77006 0.04 0.54576 0.0
H560 H 0.47082 0.27783 0.98258 0.0
H561 H 0.44818 0.27785 0.95467 0.0
H562 H 0.47805 0.23522 0.93925 0.0
H563 H 0.50071 0.23532 0.96713 0.0
H564 H 0.47144 0.25815 0.0104 0.0
H565 H 0.5247 0.27596 0.96632 0.0
H566 H 0.54768 0.27586 0.93905 0.0
H567 H 0.57834 0.23383 0.95706 0.0
H568 H 0.55528 0.23396 0.98426 0.0
H569 H 0.55584 0.23394 0.03788 0.0
H570 H 0.57868 0.23334 0.06565 0.0
H571 H 0.54734 0.27476 0.08342 0.0
H572 H 0.52468 0.27542 0.05549 0.0
H573 H 0.55452 0.25359 0.01109 0.0
H574 H 0.50112 0.235 0.05438 0.0
H575 H 0.47882 0.23474 0.08199 0.0
H576 H 0.4485 0.27735 0.06565 0.0
H577 H 0.47084 0.27753 0.03804 0.0
C578 C 0.48764 0.25666 0.97689 0.0
C579 C 0.47249 0.26849 0.97318 0.0
C580 C 0.4595 0.26846 0.95724 0.0
C581 C 0.46131 0.25655 0.94469 0.0
C582 C 0.4765 0.2447 0.94846 0.0
C583 C 0.48946 0.24473 0.96442 0.0
C584 C 0.50107 0.2566 0.99403 0.0
C585 C 0.48964 0.25738 0.01056 0.0
C586 C 0.52478 0.25516 0.99422 0.0
C587 C 0.53811 0.25491 0.97731 0.0
C588 C 0.53614 0.26661 0.96428 0.0
C589 C 0.54929 0.26654 0.94869 0.0
C590 C 0.56487 0.25484 0.94589 0.0
C591 C 0.56672 0.2431 0.95891 0.0
C592 C 0.5535 0.24315 0.97445 0.0
C593 C 0.53836 0.25464 0.04463 0.0
C594 C 0.55391 0.24292 0.04772 0.0
C595 C 0.567 0.24261 0.06359 0.0
C596 C 0.56482 0.254 0.07674 0.0
C597 C 0.54919 0.26571 0.07366 0.0
C598 C 0.53621 0.26608 0.05771 0.0
C599 C 0.5249 0.25505 0.02748 0.0
C600 C 0.53631 0.25436 0.01095 0.0
C601 C 0.50118 0.25647 0.02728 0.0
C602 C 0.48785 0.25637 0.0442 0.0
C603 C 0.48985 0.24437 0.05683 0.0
C604 C 0.47709 0.24424 0.07263 0.0
C605 C 0.46189 0.25604 0.07606 0.0
C606 C 0.45985 0.268 0.06334 0.0
C607 C 0.47266 0.26814 0.04757 0.0
H608 H 0.1872 0.33416 0.33271 0.0
H609 H 0.16226 0.35562 0.33854 0.0
H610 H 0.15399 0.36306 0.281 0.0
H611 H 0.17817 0.34139 0.27505 0.0
H612 H 0.16811 0.38582 0.32849 0.0
H613 H 0.0893 0.36274 0.2981 0.0
H614 H 0.11324 0.3509 0.30331 0.0
H615 H 0.11256 0.36223 0.28286 0.0
C616 C 0.17976 0.34021 0.3213 0.0
C617 C 0.18469 0.33603 0.3034 0.0
C618 C 0.16563 0.35252 0.32466 0.0
C619 C 0.156 0.36081 0.31021 0.0
C620 C 0.16086 0.35666 0.29237 0.0
H621 H 0.08106 0.44306 0.29305 0.0
H622 H 0.10266 0.41959 0.29106 0.0
C623 C 0.17494 0.34437 0.28899 0.0
C624 C 0.14167 0.37423 0.31369 0.0
H625 H 0.09027 0.38955 0.30386 0.0
C626 C 0.151 0.38658 0.3233 0.0
C627 C 0.11932 0.37518 0.30693 0.0
C628 C 0.10792 0.362 0.29738 0.0
C629 C 0.13888 0.40007 0.32574 0.0
C630 C 0.11678 0.40116 0.31854 0.0
C631 C 0.10728 0.3887 0.30927 0.0
C632 C 0.10348 0.41531 0.31998 0.0
C633 C 0.15008 0.41326 0.33543 0.0
C634 C 0.09655 0.4206 0.3369 0.0
C635 C 0.08401 0.43398 0.33809 0.0
C636 C 0.07811 0.4423 0.32236 0.0
C637 C 0.08501 0.43686 0.30542 0.0
C638 C 0.09747 0.42348 0.30426 0.0
H639 H 0.16855 0.4117 0.33693 0.0
H640 H 0.14694 0.42414 0.32805 0.0
H641 H 0.14291 0.41425 0.34918 0.0
H642 H 0.10068 0.41431 0.34917 0.0
H643 H 0.07867 0.43767 0.35131 0.0
H644 H 0.21247 0.67269 0.70051 0.0
H645 H 0.18804 0.65044 0.69556 0.0
H646 H 0.13076 0.67627 0.71251 0.0
H647 H 0.15508 0.69858 0.71746 0.0
H648 H 0.16288 0.63541 0.72117 0.0
H649 H 0.10736 0.65702 0.66586 0.0
H650 H 0.13346 0.66639 0.67217 0.0
H651 H 0.10864 0.66907 0.68541 0.0
C652 C 0.19465 0.67365 0.70312 0.0
C653 C 0.18573 0.68741 0.70938 0.0
C654 C 0.1807 0.66095 0.70022 0.0
C655 C 0.15752 0.66173 0.70345 0.0
C656 C 0.1485 0.67549 0.70951 0.0
H657 H 0.04856 0.59481 0.70488 0.0
H658 H 0.072 0.61789 0.707 0.0
C659 C 0.16243 0.68824 0.71235 0.0
C660 C 0.14311 0.64788 0.70152 0.0
H661 H 0.09657 0.6335 0.67968 0.0
C662 C 0.14847 0.63496 0.71201 0.0
C663 C 0.12423 0.64734 0.68963 0.0
C664 C 0.11815 0.66064 0.67749 0.0
C665 C 0.1353 0.62159 0.71116 0.0
C666 C 0.11646 0.62104 0.69926 0.0
C667 C 0.11103 0.63396 0.68879 0.0
C668 C 0.10219 0.60712 0.69753 0.0
C669 C 0.1414 0.60829 0.72329 0.0
C670 C 0.11132 0.59348 0.69124 0.0
C671 C 0.09803 0.58026 0.69012 0.0
C672 C 0.07529 0.58043 0.69519 0.0
C673 C 0.06609 0.59422 0.70115 0.0
C674 C 0.07941 0.60744 0.70224 0.0
H675 H 0.15261 0.61182 0.73471 0.0
H676 H 0.12609 0.60276 0.72893 0.0
H677 H 0.15042 0.59968 0.71526 0.0
H678 H 0.12878 0.59304 0.68726 0.0
H679 H 0.1057 0.56983 0.6856 0.0
H680 H 0.85425 0.68533 0.2792 0.0
H681 H 0.87825 0.66339 0.28535 0.0
H682 H 0.86806 0.66855 0.34273 0.0
H683 H 0.84341 0.69028 0.33667 0.0
H684 H 0.91805 0.66145 0.30627 0.0
H685 H 0.85056 0.62374 0.33369 0.0
H686 H 0.84454 0.64107 0.32126 0.0
H687 H 0.85382 0.64194 0.3445 0.0
C688 C 0.85692 0.68173 0.29314 0.0
C689 C 0.84669 0.68948 0.30743 0.0
C690 C 0.87078 0.66925 0.29663 0.0
C691 C 0.87468 0.66419 0.31447 0.0
C692 C 0.86497 0.6721 0.32883 0.0
H693 H 0.94803 0.58393 0.3534 0.0
H694 H 0.92727 0.60791 0.35187 0.0
C695 C 0.85108 0.68462 0.32535 0.0
C696 C 0.88887 0.65061 0.31787 0.0
H697 H 0.88727 0.61383 0.33347 0.0
C698 C 0.91136 0.65105 0.31227 0.0
C699 C 0.88012 0.63708 0.32578 0.0
C700 C 0.8559 0.6358 0.33154 0.0
C701 C 0.9253 0.6383 0.31427 0.0
C702 C 0.91639 0.62464 0.32174 0.0
C703 C 0.89406 0.62431 0.32773 0.0
C704 C 0.92964 0.61038 0.32276 0.0
C705 C 0.9495 0.63961 0.30846 0.0
C706 C 0.9377 0.60374 0.30689 0.0
C707 C 0.94966 0.59011 0.30772 0.0
C708 C 0.95368 0.58274 0.32444 0.0
C709 C 0.94551 0.5894 0.34033 0.0
C710 C 0.93352 0.60306 0.33948 0.0
H711 H 0.9554 0.65167 0.30822 0.0
H712 H 0.96074 0.63297 0.31763 0.0
H713 H 0.95102 0.63504 0.29455 0.0
H714 H 0.93452 0.60903 0.29379 0.0
H715 H 0.95588 0.58539 0.29524 0.0
H716 H 0.85765 0.32648 0.72797 0.0
H717 H 0.87747 0.35109 0.72744 0.0
H718 H 0.86622 0.35446 0.66969 0.0
H719 H 0.84582 0.3301 0.67016 0.0
H720 H 0.91612 0.35903 0.708 0.0
H721 H 0.8442 0.39564 0.68796 0.0
H722 H 0.84049 0.37639 0.69632 0.0
H723 H 0.84855 0.37977 0.67322 0.0
C724 C 0.8591 0.33256 0.71519 0.0
C725 C 0.85005 0.32633 0.69911 0.0
C726 C 0.87056 0.34657 0.7149 0.0
C727 C 0.87306 0.35471 0.69857 0.0
C728 C 0.86415 0.34851 0.6825 0.0
H729 H 0.93955 0.43928 0.66714 0.0
H730 H 0.91901 0.41496 0.66813 0.0
C731 C 0.85272 0.33449 0.68276 0.0
C732 C 0.88558 0.36944 0.69828 0.0
H733 H 0.88046 0.40728 0.6878 0.0
C734 C 0.90831 0.3696 0.70368 0.0
C735 C 0.87535 0.3832 0.6926 0.0
C736 C 0.85076 0.38384 0.68734 0.0
C737 C 0.92123 0.3831 0.70323 0.0
C738 C 0.91101 0.39686 0.69752 0.0
C739 C 0.88826 0.39671 0.69214 0.0
C740 C 0.92364 0.41155 0.69701 0.0
C741 C 0.94583 0.38245 0.70845 0.0
C742 C 0.93286 0.41779 0.71295 0.0
C743 C 0.94474 0.43164 0.71241 0.0
C744 C 0.94752 0.43958 0.69593 0.0
C745 C 0.93803 0.43336 0.68001 0.0
C746 C 0.92615 0.41951 0.68057 0.0
H747 H 0.95234 0.37063 0.70792 0.0
H748 H 0.95611 0.38983 0.69939 0.0
H749 H 0.94809 0.38659 0.72253 0.0
H750 H 0.9308 0.41197 0.72584 0.0
H751 H 0.95197 0.43603 0.7249 0.0
H752 H 0.25237 0.20418 0.3968 0.0
H753 H 0.25418 0.18072 0.41492 0.0
H754 H 0.23329 0.15457 0.36827 0.0
H755 H 0.23153 0.17797 0.35004 0.0
H756 H 0.2208 0.16025 0.42292 0.0
H757 H 0.28865 0.13163 0.38558 0.0
H758 H 0.28237 0.15158 0.38245 0.0
H759 H 0.26536 0.13725 0.37139 0.0
C760 C 0.24812 0.19343 0.39039 0.0
C761 C 0.24187 0.19294 0.37194 0.0
C762 C 0.24925 0.18003 0.40076 0.0
C763 C 0.2442 0.16585 0.3929 0.0
C764 C 0.2378 0.16532 0.37452 0.0
H765 H 0.20978 0.08216 0.45079 0.0
H766 H 0.20949 0.10569 0.43276 0.0
C767 C 0.23677 0.17872 0.36412 0.0
C768 C 0.24495 0.1517 0.40412 0.0
H769 H 0.26904 0.11656 0.40734 0.0
C770 C 0.23141 0.15072 0.41955 0.0
C771 C 0.25901 0.13934 0.39984 0.0
C772 C 0.27484 0.14001 0.38402 0.0
C773 C 0.23127 0.13763 0.43066 0.0
C774 C 0.24473 0.12507 0.42603 0.0
C775 C 0.25856 0.12614 0.41077 0.0
C776 C 0.24488 0.11076 0.43695 0.0
C777 C 0.21699 0.1375 0.44744 0.0
C778 C 0.26498 0.10557 0.44494 0.0
C779 C 0.26521 0.09209 0.45522 0.0
C780 C 0.24535 0.08349 0.45767 0.0
C781 C 0.22528 0.08865 0.44948 0.0
C782 C 0.22508 0.10211 0.43916 0.0
H783 H 0.21265 0.14923 0.45167 0.0
H784 H 0.20105 0.13123 0.44456 0.0
H785 H 0.22574 0.13169 0.4589 0.0
H786 H 0.28046 0.11204 0.44338 0.0
H787 H 0.28091 0.08853 0.46147 0.0
H788 H 0.31519 0.78863 0.81857 0.0
H789 H 0.33941 0.78634 0.84558 0.0
H790 H 0.38558 0.75883 0.81571 0.0
H791 H 0.36158 0.76118 0.78857 0.0
H792 H 0.35511 0.7576 0.86327 0.0
H793 H 0.42408 0.79507 0.83769 0.0
H794 H 0.39586 0.79559 0.82833 0.0
H795 H 0.41417 0.78021 0.82282 0.0
C796 C 0.33056 0.78216 0.81773 0.0
C797 C 0.33653 0.77514 0.80141 0.0
C798 C 0.34429 0.7808 0.83318 0.0
C799 C 0.36435 0.77254 0.83256 0.0
C800 C 0.37025 0.76537 0.81639 0.0
H801 H 0.4732 0.75969 0.91129 0.0
H802 H 0.44917 0.75951 0.88412 0.0
C803 C 0.35645 0.76663 0.80096 0.0
C804 C 0.37911 0.77147 0.84885 0.0
H805 H 0.4299 0.78321 0.86613 0.0
C806 C 0.37147 0.76319 0.86394 0.0
C807 C 0.40046 0.7787 0.84958 0.0
C808 C 0.40919 0.788 0.83382 0.0
C809 C 0.38473 0.76184 0.87977 0.0
C810 C 0.40595 0.76932 0.88066 0.0
C811 C 0.41365 0.77749 0.86545 0.0
C812 C 0.42028 0.76906 0.89731 0.0
C813 C 0.37606 0.75216 0.89523 0.0
C814 C 0.41214 0.77463 0.91374 0.0
C815 C 0.42573 0.77458 0.92934 0.0
C816 C 0.44791 0.76914 0.92883 0.0
C817 C 0.45611 0.76373 0.91228 0.0
C818 C 0.44245 0.76372 0.89669 0.0
H819 H 0.36333 0.74367 0.89047 0.0
H820 H 0.38996 0.746 0.90222 0.0
H821 H 0.36786 0.7596 0.90523 0.0
H822 H 0.39528 0.77913 0.91447 0.0
H823 H 0.41874 0.77869 0.94186 0.0
H824 H 0.77514 0.84587 0.35401 0.0
H825 H 0.77406 0.86919 0.37199 0.0
H826 H 0.8109 0.84685 0.41515 0.0
H827 H 0.81164 0.82339 0.39751 0.0
H828 H 0.75626 0.87321 0.408 0.0
H829 H 0.8477 0.8865 0.40414 0.0
H830 H 0.83366 0.87342 0.38884 0.0
H831 H 0.84079 0.86745 0.41152 0.0
C832 C 0.78283 0.84584 0.3674 0.0
C833 C 0.79357 0.83272 0.37425 0.0
C834 C 0.7823 0.85921 0.37761 0.0
C835 C 0.79265 0.85979 0.39479 0.0
C836 C 0.80317 0.84672 0.40177 0.0
H837 H 0.77773 0.92612 0.48059 0.0
H838 H 0.77751 0.90319 0.46189 0.0
C839 C 0.80363 0.83333 0.39163 0.0
C840 C 0.79229 0.87403 0.4055 0.0
H841 H 0.82629 0.90164 0.42391 0.0
C842 C 0.77154 0.87946 0.41146 0.0
C843 C 0.81225 0.88223 0.40981 0.0
C844 C 0.83488 0.87723 0.40315 0.0
C845 C 0.77027 0.89274 0.42192 0.0
C846 C 0.79029 0.90071 0.42664 0.0
C847 C 0.81099 0.89543 0.42039 0.0
C848 C 0.79011 0.91464 0.43794 0.0
C849 C 0.74749 0.89826 0.42764 0.0
C850 C 0.79761 0.92863 0.43077 0.0
C851 C 0.79767 0.94177 0.44139 0.0
C852 C 0.79039 0.94117 0.45947 0.0
C853 C 0.78306 0.92707 0.46664 0.0
C854 C 0.78295 0.91394 0.45598 0.0
H855 H 0.73366 0.893 0.41948 0.0
H856 H 0.74485 0.89516 0.44208 0.0
H857 H 0.74644 0.91086 0.42634 0.0
H858 H 0.80323 0.9294 0.41687 0.0
H859 H 0.80314 0.95245 0.43533 0.0
H860 H 0.7233 0.25606 0.82892 0.0
H861 H 0.69704 0.25391 0.8541 0.0
H862 H 0.64149 0.26232 0.81729 0.0
H863 H 0.66766 0.26435 0.79201 0.0
H864 H 0.66889 0.27564 0.8666 0.0
H865 H 0.61921 0.22499 0.84464 0.0
H866 H 0.64562 0.2303 0.83443 0.0
H867 H 0.6202 0.24003 0.82802 0.0
C868 C 0.70548 0.2574 0.82617 0.0
C869 C 0.69756 0.26035 0.80846 0.0
C870 C 0.69049 0.25613 0.84057 0.0
C871 C 0.66726 0.25775 0.83756 0.0
C872 C 0.65927 0.26064 0.81988 0.0
H873 H 0.55328 0.26171 0.91066 0.0
H874 H 0.57795 0.26266 0.88426 0.0
C875 C 0.67426 0.26183 0.80544 0.0
C876 C 0.65161 0.25715 0.8531 0.0
H877 H 0.60542 0.23857 0.86989 0.0
C878 C 0.65508 0.26748 0.86735 0.0
C879 C 0.63352 0.24655 0.85404 0.0
C880 C 0.62948 0.23474 0.83956 0.0
C881 C 0.64089 0.26759 0.88241 0.0
C882 C 0.62288 0.25696 0.88336 0.0
C883 C 0.61924 0.24671 0.86908 0.0
C884 C 0.6079 0.25617 0.89927 0.0
C885 C 0.64508 0.27921 0.89708 0.0
C886 C 0.61653 0.25202 0.91637 0.0
C887 C 0.60253 0.25149 0.93145 0.0
C888 C 0.57958 0.25509 0.92972 0.0
C889 C 0.57093 0.25907 0.91249 0.0
C890 C 0.58495 0.25952 0.89739 0.0
H891 H 0.65597 0.28877 0.89232 0.0
H892 H 0.62898 0.28395 0.9019 0.0
H893 H 0.65366 0.27363 0.90877 0.0
H894 H 0.63413 0.24919 0.91807 0.0
H895 H 0.60978 0.24852 0.94454 0.0
H896 H 0.23148 0.84819 0.66864 0.0
H897 H 0.23279 0.87174 0.65058 0.0
H898 H 0.25178 0.84606 0.60367 0.0
H899 H 0.25048 0.8225 0.62159 0.0
H900 H 0.26789 0.88522 0.63159 0.0
H901 H 0.19757 0.86972 0.58485 0.0
H902 H 0.20318 0.85938 0.60565 0.0
H903 H 0.21963 0.8559 0.58584 0.0
C904 C 0.23607 0.84756 0.6545 0.0
C905 C 0.24069 0.83343 0.64652 0.0
C906 C 0.23673 0.86102 0.64419 0.0
C907 C 0.24196 0.86063 0.62569 0.0
C908 C 0.24711 0.8466 0.6178 0.0
H909 H 0.25483 0.92875 0.54015 0.0
H910 H 0.25511 0.90544 0.55866 0.0
C911 C 0.24639 0.83314 0.62807 0.0
C912 C 0.24224 0.8749 0.6147 0.0
H913 H 0.21865 0.89198 0.57735 0.0
C914 C 0.25705 0.88674 0.61978 0.0
C915 C 0.22808 0.87685 0.59929 0.0
C916 C 0.21106 0.86486 0.59365 0.0
C917 C 0.25839 0.90036 0.60968 0.0
C918 C 0.24431 0.90228 0.59423 0.0
C919 C 0.22949 0.89046 0.58916 0.0
C920 C 0.24456 0.91651 0.58319 0.0
C921 C 0.27519 0.91247 0.61539 0.0
C922 C 0.23832 0.93043 0.5908 0.0
C923 C 0.23821 0.94377 0.58029 0.0
C924 C 0.24426 0.94345 0.56191 0.0
C925 C 0.25038 0.92944 0.55431 0.0
C926 C 0.25043 0.9161 0.56484 0.0
H927 H 0.28842 0.9078 0.62458 0.0
H928 H 0.2834 0.91775 0.60341 0.0
H929 H 0.26632 0.92157 0.62274 0.0
H930 H 0.23336 0.93096 0.60486 0.0
H931 H 0.23358 0.95438 0.58661 0.0
H932 H 0.65885 0.78238 0.23545 0.0
H933 H 0.63551 0.78003 0.20803 0.0
H934 H 0.69285 0.76428 0.17854 0.0
H935 H 0.71635 0.76666 0.20587 0.0
H936 H 0.6412 0.79483 0.17489 0.0
H937 H 0.64485 0.73203 0.16668 0.0
H938 H 0.65316 0.74139 0.18746 0.0
H939 H 0.67188 0.74128 0.16851 0.0
C940 C 0.66653 0.77844 0.22312 0.0
C941 C 0.68948 0.77468 0.22287 0.0
C942 C 0.65313 0.77704 0.20749 0.0
C943 C 0.66236 0.77178 0.19131 0.0
C944 C 0.68525 0.76803 0.19098 0.0
H945 H 0.61077 0.76033 0.08145 0.0
H946 H 0.63385 0.76135 0.10914 0.0
C947 C 0.69866 0.7694 0.20662 0.0
C948 C 0.64819 0.77079 0.17463 0.0
H949 H 0.62826 0.74612 0.14245 0.0
C950 C 0.63827 0.78417 0.16785 0.0
C951 C 0.64446 0.75688 0.16542 0.0
C952 C 0.65397 0.74204 0.17244 0.0
C953 C 0.62501 0.78406 0.15195 0.0
C954 C 0.62123 0.77014 0.14277 0.0
C955 C 0.63118 0.75677 0.14952 0.0
C956 C 0.60701 0.76925 0.12611 0.0
C957 C 0.61557 0.79892 0.14491 0.0
C958 C 0.58416 0.7731 0.12653 0.0
C959 C 0.5709 0.77249 0.11075 0.0
C960 C 0.5802 0.76789 0.09424 0.0
C961 C 0.60301 0.76377 0.09396 0.0
C962 C 0.61626 0.76441 0.10975 0.0
H963 H 0.62467 0.80892 0.15071 0.0
H964 H 0.61647 0.79957 0.1299 0.0
H965 H 0.59764 0.79969 0.14878 0.0
H966 H 0.57655 0.77653 0.1391 0.0
H967 H 0.5533 0.77546 0.11152 0.0
H968 H 0.77925 0.194 0.63959 0.0
H969 H 0.78345 0.17307 0.61808 0.0
H970 H 0.77059 0.14044 0.6608 0.0
H971 H 0.76668 0.16118 0.68241 0.0
H972 H 0.81332 0.14726 0.61923 0.0
H973 H 0.72331 0.12987 0.62103 0.0
H974 H 0.73329 0.14811 0.62922 0.0
H975 H 0.73671 0.13124 0.64293 0.0
C976 C 0.77754 0.18236 0.64446 0.0
C977 C 0.77238 0.17929 0.66271 0.0
C978 C 0.77986 0.17043 0.63212 0.0
C979 C 0.77694 0.15523 0.63779 0.0
C980 C 0.77242 0.15211 0.65606 0.0
H981 H 0.77686 0.06554 0.59117 0.0
H982 H 0.77541 0.08805 0.61042 0.0
C983 C 0.77013 0.16399 0.66839 0.0
C984 C 0.77843 0.14257 0.62465 0.0
H985 H 0.74813 0.11307 0.60633 0.0
C986 C 0.79905 0.13984 0.61627 0.0
C987 C 0.75976 0.13294 0.62081 0.0
C988 C 0.73694 0.13572 0.62882 0.0
C989 C 0.80171 0.12738 0.60461 0.0
C990 C 0.78311 0.1176 0.60101 0.0
C991 C 0.7624 0.12053 0.60916 0.0
C992 C 0.7848 0.104 0.58924 0.0
C993 C 0.82458 0.12451 0.59676 0.0
C994 C 0.79045 0.10548 0.57087 0.0
C995 C 0.79127 0.0926 0.5598 0.0
C996 C 0.78621 0.07802 0.56685 0.0
C997 C 0.78056 0.07661 0.58525 0.0
C998 C 0.77983 0.08946 0.5963 0.0
H999 H 0.83813 0.13067 0.6043 0.0
H1000 H 0.82841 0.11214 0.5969 0.0
H1001 H 0.82477 0.12857 0.58247 0.0
H1002 H 0.79385 0.11662 0.56502 0.0
H1003 H 0.79536 0.0941 0.54563 0.0
H1004 H 0.37064 0.24274 0.2332 0.0
H1005 H 0.39371 0.24484 0.20606 0.0
H1006 H 0.33608 0.26028 0.17522 0.0
H1007 H 0.31283 0.25815 0.20228 0.0
H1008 H 0.38765 0.22967 0.17336 0.0
H1009 H 0.38403 0.29237 0.16293 0.0
H1010 H 0.37592 0.28324 0.18392 0.0
H1011 H 0.35702 0.28315 0.1647 0.0
C1012 C 0.36284 0.24655 0.22064 0.0
C1013 C 0.33987 0.25029 0.21993 0.0
C1014 C 0.37609 0.24782 0.20516 0.0
C1015 C 0.3667 0.25291 0.18867 0.0
C1016 C 0.3438 0.25666 0.18789 0.0
H1017 H 0.41738 0.26331 0.07927 0.0
H1018 H 0.39454 0.26251 0.10664 0.0
C1019 C 0.33053 0.25542 0.20338 0.0
C1020 C 0.38071 0.2537 0.17216 0.0
H1021 H 0.40043 0.27801 0.13947 0.0
C1022 C 0.39055 0.24025 0.166 0.0
C1023 C 0.38439 0.26751 0.16254 0.0
C1024 C 0.37497 0.28243 0.16891 0.0
C1025 C 0.40368 0.24017 0.15031 0.0
C1026 C 0.40742 0.25398 0.14071 0.0
C1027 C 0.39755 0.26744 0.14685 0.0
C1028 C 0.42149 0.25468 0.12424 0.0
C1029 C 0.41302 0.22523 0.14392 0.0
C1030 C 0.44433 0.25078 0.12511 0.0
C1031 C 0.45745 0.25126 0.10951 0.0
C1032 C 0.44804 0.25577 0.09273 0.0
C1033 C 0.42523 0.25992 0.09199 0.0
C1034 C 0.41212 0.25942 0.1076 0.0
H1035 H 0.40392 0.2153 0.1499 0.0
H1036 H 0.41203 0.22442 0.12892 0.0
H1037 H 0.43097 0.22446 0.14812 0.0
H1038 H 0.45204 0.24743 0.1379 0.0
H1039 H 0.47505 0.24826 0.11063 0.0
H1040 H 0.83483 0.6868 0.69036 0.0
H1041 H 0.85798 0.66443 0.68448 0.0
H1042 H 0.87441 0.66094 0.74145 0.0
H1043 H 0.85154 0.68328 0.74743 0.0
H1044 H 0.90421 0.65879 0.69207 0.0
H1045 H 0.84852 0.61855 0.72925 0.0
H1046 H 0.83975 0.63745 0.72257 0.0
H1047 H 0.85734 0.63478 0.74233 0.0
C1048 C 0.84355 0.68136 0.70161 0.0
C1049 C 0.84112 0.68673 0.7194 0.0
C1050 C 0.85669 0.66854 0.69823 0.0
C1051 C 0.86755 0.66085 0.71257 0.0
C1052 C 0.86573 0.66648 0.73024 0.0
H1053 H 0.95225 0.58265 0.72818 0.0
H1054 H 0.93 0.60581 0.73065 0.0
C1055 C 0.85262 0.67925 0.73363 0.0
C1056 C 0.8807 0.64689 0.7092 0.0
H1057 H 0.88428 0.6092 0.72083 0.0
C1058 C 0.89978 0.64791 0.69821 0.0
C1059 C 0.87482 0.6327 0.71719 0.0
C1060 C 0.85387 0.63071 0.72836 0.0
C1061 C 0.9136 0.63522 0.69553 0.0
C1062 C 0.90796 0.62112 0.70385 0.0
C1063 C 0.88865 0.62005 0.71455 0.0
C1064 C 0.92206 0.60736 0.702 0.0
C1065 C 0.93448 0.6371 0.68429 0.0
C1066 C 0.9249 0.6005 0.68507 0.0
C1067 C 0.93751 0.58718 0.68362 0.0
C1068 C 0.94741 0.58042 0.6991 0.0
C1069 C 0.9446 0.58741 0.71602 0.0
C1070 C 0.93199 0.6007 0.71745 0.0
H1071 H 0.9391 0.6493 0.68225 0.0
H1072 H 0.94894 0.63115 0.69077 0.0
H1073 H 0.93144 0.63197 0.67076 0.0
H1074 H 0.917 0.60528 0.67302 0.0
H1075 H 0.93904 0.58198 0.67043 0.0
H1076 H 0.87121 0.32149 0.31668 0.0
H1077 H 0.89567 0.34351 0.32318 0.0
H1078 H 0.84009 0.37373 0.31292 0.0
H1079 H 0.81543 0.35185 0.30698 0.0
H1080 H 0.90618 0.36729 0.29968 0.0
H1081 H 0.86514 0.38946 0.36096 0.0
H1082 H 0.85963 0.37052 0.35244 0.0
H1083 H 0.84589 0.38672 0.3423 0.0
C1084 C 0.8641 0.33281 0.31614 0.0
C1085 C 0.84135 0.3349 0.31131 0.0
C1086 C 0.87813 0.34538 0.31975 0.0
C1087 C 0.86964 0.36025 0.31877 0.0
C1088 C 0.84692 0.36236 0.31411 0.0
H1089 H 0.91891 0.4527 0.31994 0.0
H1090 H 0.89726 0.42885 0.31866 0.0
C1091 C 0.8329 0.34983 0.31049 0.0
C1092 C 0.88473 0.37365 0.32161 0.0
H1093 H 0.89093 0.40637 0.34609 0.0
C1094 C 0.90304 0.37574 0.30997 0.0
C1095 C 0.88058 0.38467 0.33504 0.0
C1096 C 0.86187 0.38268 0.34851 0.0
C1097 C 0.91679 0.38885 0.31095 0.0
C1098 C 0.91229 0.40004 0.32409 0.0
C1099 C 0.89429 0.39779 0.33598 0.0
C1100 C 0.92557 0.41443 0.32527 0.0
C1101 C 0.93549 0.39088 0.29747 0.0
C1102 C 0.94862 0.41425 0.32966 0.0
C1103 C 0.96108 0.42787 0.3303 0.0
C1104 C 0.9507 0.44194 0.32661 0.0
C1105 C 0.9275 0.44206 0.32255 0.0
C1106 C 0.91507 0.42845 0.32195 0.0
H1107 H 0.93363 0.38294 0.28586 0.0
H1108 H 0.93599 0.40276 0.29214 0.0
H1109 H 0.95185 0.38858 0.30431 0.0
H1110 H 0.95698 0.40357 0.33254 0.0
H1111 H 0.97893 0.42736 0.33336 0.0
H1112 H 0.15435 0.32348 0.71681 0.0
H1113 H 0.12942 0.34519 0.71152 0.0
H1114 H 0.18636 0.373 0.69601 0.0
H1115 H 0.2113 0.35129 0.70088 0.0
H1116 H 0.13243 0.37347 0.72939 0.0
H1117 H 0.14038 0.38086 0.65495 0.0
H1118 H 0.14853 0.36358 0.66668 0.0
H1119 H 0.16676 0.38006 0.66707 0.0
C1120 C 0.16151 0.33414 0.71195 0.0
C1121 C 0.18482 0.33565 0.70925 0.0
C1122 C 0.14726 0.34655 0.70904 0.0
C1123 C 0.15599 0.36066 0.70318 0.0
C1124 C 0.1792 0.36215 0.70024 0.0
H1125 H 0.10536 0.45195 0.68672 0.0
H1126 H 0.12767 0.42868 0.6886 0.0
C1127 C 0.19346 0.34978 0.70322 0.0
C1128 C 0.14108 0.37405 0.70115 0.0
H1129 H 0.12256 0.40087 0.67077 0.0
C1130 C 0.13009 0.37939 0.71654 0.0
C1131 C 0.13818 0.38179 0.6844 0.0
C1132 C 0.14891 0.37623 0.66728 0.0
C1133 C 0.11673 0.3925 0.71576 0.0
C1134 C 0.11391 0.4003 0.69902 0.0
C1135 C 0.12475 0.39488 0.68358 0.0
C1136 C 0.10006 0.41426 0.69735 0.0
C1137 C 0.10633 0.39815 0.73298 0.0
C1138 C 0.07702 0.41382 0.70131 0.0
C1139 C 0.06422 0.4271 0.70023 0.0
C1140 C 0.07415 0.44106 0.69501 0.0
C1141 C 0.09713 0.44137 0.69064 0.0
C1142 C 0.10994 0.4281 0.69177 0.0
H1143 H 0.1147 0.39328 0.74525 0.0
H1144 H 0.10727 0.41078 0.73372 0.0
H1145 H 0.08833 0.39467 0.73322 0.0
H1146 H 0.06893 0.40319 0.70522 0.0
H1147 H 0.04648 0.4264 0.70335 0.0
H1148 H 0.17491 0.69388 0.35079 0.0
H1149 H 0.15445 0.66954 0.35074 0.0
H1150 H 0.15664 0.66868 0.29237 0.0
H1151 H 0.17685 0.69313 0.29224 0.0
H1152 H 0.11257 0.66291 0.33361 0.0
H1153 H 0.18074 0.62649 0.30756 0.0
H1154 H 0.18603 0.6453 0.31657 0.0
H1155 H 0.17465 0.64312 0.29405 0.0
C1156 C 0.17096 0.68857 0.33792 0.0
C1157 C 0.17757 0.69548 0.32151 0.0
C1158 C 0.15937 0.67461 0.33793 0.0
C1159 C 0.15428 0.66721 0.32157 0.0
C1160 C 0.16081 0.67404 0.30517 0.0
H1161 H 0.08361 0.58279 0.29481 0.0
H1162 H 0.10429 0.60706 0.29407 0.0
C1163 C 0.17238 0.68802 0.30513 0.0
C1164 C 0.14149 0.65258 0.32169 0.0
H1165 H 0.14476 0.61494 0.31055 0.0
C1166 C 0.11962 0.6524 0.32863 0.0
C1167 C 0.1507 0.63892 0.3151 0.0
C1168 C 0.17439 0.63835 0.30803 0.0
C1169 C 0.10656 0.63896 0.32896 0.0
C1170 C 0.11584 0.62525 0.32252 0.0
C1171 C 0.13769 0.62545 0.31549 0.0
C1172 C 0.10318 0.61057 0.32305 0.0
C1173 C 0.08279 0.63965 0.33582 0.0
C1174 C 0.09591 0.60438 0.3396 0.0
C1175 C 0.0839 0.59058 0.34005 0.0
C1176 C 0.07907 0.5826 0.32396 0.0
C1177 C 0.08669 0.58874 0.30742 0.0
C1178 C 0.09866 0.60256 0.30698 0.0
H1179 H 0.07623 0.65147 0.33541 0.0
H1180 H 0.07131 0.63222 0.32772 0.0
H1181 H 0.0825 0.63563 0.35012 0.0
H1182 H 0.09958 0.6102 0.3522 0.0
H1183 H 0.07815 0.58627 0.35301 0.0
H1184 H 0.8273 0.83487 0.65232 0.0
H1185 H 0.82624 0.85827 0.63406 0.0
H1186 H 0.7539 0.8548 0.63047 0.0
H1187 H 0.75481 0.83139 0.64872 0.0
H1188 H 0.80997 0.86242 0.59922 0.0
H1189 H 0.7634 0.89856 0.64711 0.0
H1190 H 0.77575 0.88063 0.65383 0.0
H1191 H 0.74933 0.88094 0.64168 0.0
C1192 C 0.81116 0.83906 0.64761 0.0
C1193 C 0.79113 0.83127 0.65203 0.0
C1194 C 0.81058 0.85248 0.63724 0.0
C1195 C 0.78998 0.85842 0.63112 0.0
C1196 C 0.76995 0.85064 0.63541 0.0
H1197 H 0.7529 0.93548 0.56244 0.0
H1198 H 0.75336 0.91226 0.58108 0.0
C1199 C 0.77051 0.83724 0.64583 0.0
C1200 C 0.78955 0.87248 0.61975 0.0
H1201 H 0.76905 0.90873 0.61755 0.0
C1202 C 0.80112 0.87257 0.60327 0.0
C1203 C 0.77795 0.88572 0.62504 0.0
C1204 C 0.76607 0.88657 0.64295 0.0
C1205 C 0.80113 0.88544 0.5918 0.0
C1206 C 0.78951 0.89865 0.59708 0.0
C1207 C 0.7779 0.89857 0.61353 0.0
C1208 C 0.78936 0.91272 0.58577 0.0
C1209 C 0.8132 0.88469 0.57397 0.0
C1210 C 0.80941 0.92077 0.5824 0.0
C1211 C 0.80921 0.9341 0.57186 0.0
C1212 C 0.7889 0.93969 0.56451 0.0
C1213 C 0.76881 0.93161 0.56803 0.0
C1214 C 0.76904 0.9183 0.57861 0.0
H1215 H 0.81649 0.87274 0.56995 0.0
H1216 H 0.8033 0.89034 0.563 0.0
H1217 H 0.82964 0.89074 0.57524 0.0
H1218 H 0.82522 0.91684 0.5881 0.0
H1219 H 0.82492 0.94017 0.56973 0.0
H1220 H 0.71568 0.24579 0.20366 0.0
H1221 H 0.69224 0.24804 0.1762 0.0
H1222 H 0.63322 0.25247 0.20903 0.0
H1223 H 0.65654 0.2504 0.23656 0.0
H1224 H 0.65409 0.22816 0.16696 0.0
H1225 H 0.63061 0.28916 0.17247 0.0
H1226 H 0.65461 0.28121 0.18433 0.0
H1227 H 0.62671 0.27763 0.19249 0.0
C1228 C 0.69774 0.24743 0.20503 0.0
C1229 C 0.68796 0.24794 0.22228 0.0
C1230 C 0.68438 0.24864 0.18935 0.0
C1231 C 0.66106 0.25057 0.19061 0.0
C1232 C 0.65123 0.25117 0.20778 0.0
H1233 H 0.55189 0.25931 0.11164 0.0
H1234 H 0.57525 0.25832 0.13923 0.0
C1235 C 0.66455 0.24986 0.22348 0.0
C1236 C 0.64688 0.25136 0.17396 0.0
H1237 H 0.61267 0.27491 0.14923 0.0
C1238 C 0.64509 0.23839 0.16301 0.0
C1239 C 0.63506 0.26468 0.16897 0.0
C1240 C 0.63689 0.27903 0.18006 0.0
C1241 C 0.6315 0.2383 0.1473 0.0
C1242 C 0.61985 0.25169 0.14216 0.0
C1243 C 0.62162 0.26466 0.15316 0.0
C1244 C 0.60581 0.25249 0.12537 0.0
C1245 C 0.62933 0.22374 0.13662 0.0
C1246 C 0.61531 0.2498 0.10838 0.0
C1247 C 0.60201 0.25031 0.09262 0.0
C1248 C 0.57898 0.2537 0.0935 0.0
C1249 C 0.56961 0.25674 0.1105 0.0
C1250 C 0.58291 0.25614 0.12628 0.0
H1251 H 0.63381 0.2136 0.145 0.0
H1252 H 0.61195 0.22214 0.13122 0.0
H1253 H 0.641 0.22426 0.125 0.0
H1254 H 0.63307 0.24739 0.10728 0.0
H1255 H 0.60983 0.24821 0.07971 0.0
H1256 H 0.22747 0.20187 0.62114 0.0
H1257 H 0.22855 0.17839 0.60356 0.0
H1258 H 0.25199 0.15378 0.65087 0.0
H1259 H 0.25012 0.17709 0.66876 0.0
H1260 H 0.26419 0.1598 0.59623 0.0
H1261 H 0.19854 0.12783 0.63409 0.0
H1262 H 0.20296 0.14811 0.63656 0.0
H1263 H 0.22126 0.13488 0.64805 0.0
C1264 C 0.23256 0.19143 0.6279 0.0
C1265 C 0.23851 0.19137 0.64644 0.0
C1266 C 0.23334 0.17803 0.61778 0.0
C1267 C 0.24002 0.16427 0.62595 0.0
C1268 C 0.24636 0.1642 0.64435 0.0
H1269 H 0.27878 0.08221 0.56845 0.0
H1270 H 0.27834 0.10548 0.58653 0.0
C1271 C 0.24554 0.17759 0.65451 0.0
C1272 C 0.24059 0.15009 0.6151 0.0
H1273 H 0.2187 0.11399 0.61219 0.0
C1274 C 0.25424 0.14978 0.5997 0.0
C1275 C 0.22737 0.13709 0.61952 0.0
C1276 C 0.21154 0.13698 0.63535 0.0
C1277 C 0.25518 0.1368 0.58871 0.0
C1278 C 0.24242 0.12367 0.5934 0.0
C1279 C 0.22862 0.12402 0.6087 0.0
C1280 C 0.24278 0.10955 0.58242 0.0
C1281 C 0.26946 0.13737 0.57194 0.0
C1282 C 0.22285 0.1039 0.57443 0.0
C1283 C 0.22304 0.09059 0.56412 0.0
C1284 C 0.24316 0.0826 0.56165 0.0
C1285 C 0.26308 0.08823 0.56981 0.0
C1286 C 0.26286 0.10153 0.58015 0.0
H1287 H 0.27342 0.14929 0.56776 0.0
H1288 H 0.28559 0.13151 0.57478 0.0
H1289 H 0.2609 0.1315 0.56045 0.0
H1290 H 0.20716 0.10989 0.57604 0.0
H1291 H 0.20745 0.08666 0.55789 0.0
H1292 H 0.36225 0.75136 0.22963 0.0
H1293 H 0.38792 0.754 0.20409 0.0
H1294 H 0.33623 0.77691 0.17301 0.0
H1295 H 0.31057 0.77444 0.19856 0.0
H1296 H 0.38321 0.74237 0.17032 0.0
H1297 H 0.38926 0.8054 0.16576 0.0
H1298 H 0.37746 0.79564 0.18512 0.0
H1299 H 0.36082 0.79837 0.16482 0.0
C1300 C 0.35639 0.75701 0.21738 0.0
C1301 C 0.33439 0.76274 0.21614 0.0
C1302 C 0.3711 0.75856 0.20281 0.0
C1303 C 0.36414 0.76587 0.18672 0.0
C1304 C 0.3422 0.7716 0.18545 0.0
H1305 H 0.41947 0.77742 0.07944 0.0
H1306 H 0.3961 0.77682 0.10649 0.0
C1307 C 0.32752 0.77015 0.20005 0.0
C1308 C 0.37946 0.76677 0.17097 0.0
H1309 H 0.40392 0.79154 0.14093 0.0
C1310 C 0.38789 0.75313 0.16399 0.0
C1311 C 0.38554 0.78082 0.16269 0.0
C1312 C 0.37799 0.7959 0.17008 0.0
C1313 C 0.40181 0.75314 0.14875 0.0
C1314 C 0.40766 0.76716 0.14038 0.0
C1315 C 0.39935 0.7808 0.14737 0.0
C1316 C 0.42216 0.76787 0.12418 0.0
C1317 C 0.4097 0.73811 0.14145 0.0
C1318 C 0.44468 0.76325 0.12524 0.0
C1319 C 0.45816 0.76369 0.10983 0.0
C1320 C 0.4494 0.76879 0.09306 0.0
C1321 C 0.42688 0.77361 0.09215 0.0
C1322 C 0.41344 0.7732 0.10758 0.0
H1323 H 0.39984 0.72832 0.14693 0.0
H1324 H 0.40846 0.73798 0.12642 0.0
H1325 H 0.42762 0.73649 0.14535 0.0
H1326 H 0.45184 0.75936 0.13801 0.0
H1327 H 0.47552 0.76016 0.11111 0.0
H1328 H 0.79599 0.17523 0.35342 0.0
H1329 H 0.79504 0.15157 0.37129 0.0
H1330 H 0.77792 0.17701 0.41886 0.0
H1331 H 0.77835 0.20067 0.40103 0.0
H1332 H 0.82154 0.14469 0.40261 0.0
H1333 H 0.73014 0.14257 0.41728 0.0
H1334 H 0.74179 0.15443 0.39953 0.0
H1335 H 0.74395 0.1603 0.42277 0.0
C1336 C 0.79171 0.17577 0.36763 0.0
C1337 C 0.78718 0.18984 0.37579 0.0
C1338 C 0.79131 0.16225 0.37783 0.0
C1339 C 0.78615 0.16251 0.39634 0.0
C1340 C 0.7816 0.17652 0.40453 0.0
H1341 H 0.77846 0.09457 0.48245 0.0
H1342 H 0.77798 0.11793 0.46402 0.0
C1343 C 0.78208 0.19004 0.39436 0.0
C1344 C 0.7863 0.14821 0.40723 0.0
H1345 H 0.75315 0.12473 0.43295 0.0
C1346 C 0.80657 0.14026 0.40917 0.0
C1347 C 0.76676 0.14252 0.41582 0.0
C1348 C 0.74435 0.1503 0.41367 0.0
C1349 C 0.80796 0.12692 0.41977 0.0
C1350 C 0.78841 0.12119 0.42836 0.0
C1351 C 0.76812 0.12914 0.42638 0.0
C1352 C 0.78865 0.10698 0.43944 0.0
C1353 C 0.83047 0.11929 0.42206 0.0
C1354 C 0.79449 0.09302 0.43168 0.0
C1355 C 0.79476 0.07966 0.44217 0.0
C1356 C 0.789 0.07995 0.4606 0.0
C1357 C 0.78282 0.09392 0.46826 0.0
C1358 C 0.78262 0.10729 0.45777 0.0
H1359 H 0.84461 0.1272 0.41884 0.0
H1360 H 0.83286 0.11492 0.43612 0.0
H1361 H 0.83129 0.10949 0.41267 0.0
H1362 H 0.79865 0.09243 0.41746 0.0
H1363 H 0.79917 0.06906 0.43575 0.0
H1364 H 0.31202 0.25809 0.81538 0.0
H1365 H 0.33527 0.2607 0.84286 0.0
H1366 H 0.39303 0.24509 0.81379 0.0
H1367 H 0.3701 0.24285 0.78616 0.0
H1368 H 0.3592 0.23764 0.86095 0.0
H1369 H 0.41654 0.28409 0.83809 0.0
H1370 H 0.3904 0.2796 0.82648 0.0
H1371 H 0.41485 0.26813 0.82301 0.0
C1372 C 0.32975 0.25544 0.81476 0.0
C1373 C 0.33921 0.2503 0.79854 0.0
C1374 C 0.34297 0.25685 0.8305 0.0
C1375 C 0.36593 0.25328 0.83031 0.0
C1376 C 0.37544 0.24816 0.81417 0.0
H1377 H 0.47376 0.24866 0.91038 0.0
H1378 H 0.45018 0.24779 0.88294 0.0
C1379 C 0.36224 0.24672 0.79843 0.0
C1380 C 0.37975 0.25431 0.84717 0.0
H1381 H 0.42639 0.2715 0.86569 0.0
C1382 C 0.3738 0.24512 0.86205 0.0
C1383 C 0.39882 0.26405 0.84853 0.0
C1384 C 0.40547 0.27464 0.83325 0.0
C1385 C 0.38672 0.24513 0.87813 0.0
C1386 C 0.40586 0.25481 0.87947 0.0
C1387 C 0.41174 0.26407 0.86462 0.0
C1388 C 0.42007 0.25543 0.89614 0.0
C1389 C 0.38009 0.23449 0.89338 0.0
C1390 C 0.41103 0.2602 0.91261 0.0
C1391 C 0.42442 0.26062 0.92834 0.0
C1392 C 0.44717 0.25635 0.92788 0.0
C1393 C 0.45623 0.25179 0.91127 0.0
C1394 C 0.44283 0.25139 0.89555 0.0
H1395 H 0.36868 0.22521 0.88859 0.0
H1396 H 0.39516 0.2293 0.89988 0.0
H1397 H 0.37112 0.24103 0.90383 0.0
H1398 H 0.39361 0.26362 0.91331 0.0
H1399 H 0.41684 0.26407 0.94091 0.0
H1400 H 0.27244 0.83104 0.38236 0.0
H1401 H 0.2695 0.85169 0.40435 0.0
H1402 H 0.2301 0.87772 0.36588 0.0
H1403 H 0.23261 0.85703 0.34393 0.0
H1404 H 0.28476 0.88208 0.39916 0.0
H1405 H 0.19321 0.8795 0.41293 0.0
H1406 H 0.20805 0.86398 0.40265 0.0
H1407 H 0.2001 0.88033 0.3893 0.0
C1408 C 0.26282 0.84105 0.37869 0.0
C1409 C 0.25272 0.84238 0.3614 0.0
C1410 C 0.26127 0.85286 0.39123 0.0
C1411 C 0.24939 0.86616 0.38682 0.0
C1412 C 0.23906 0.86746 0.36967 0.0
H1413 H 0.26011 0.95638 0.43229 0.0
H1414 H 0.26093 0.93358 0.4135 0.0
C1415 C 0.2407 0.85569 0.35708 0.0
C1416 C 0.2488 0.87902 0.39977 0.0
H1417 H 0.21323 0.90133 0.42379 0.0
C1418 C 0.26915 0.88624 0.40464 0.0
C1419 C 0.22842 0.88431 0.40703 0.0
C1420 C 0.2062 0.87656 0.40287 0.0
C1421 C 0.26961 0.89888 0.41621 0.0
C1422 C 0.24916 0.90454 0.42293 0.0
C1423 C 0.22886 0.89706 0.41848 0.0
C1424 C 0.24852 0.91835 0.43439 0.0
C1425 C 0.29201 0.90605 0.42122 0.0
C1426 C 0.24083 0.91742 0.45228 0.0
C1427 C 0.24044 0.93044 0.46312 0.0
C1428 C 0.24759 0.94469 0.45623 0.0
C1429 C 0.25495 0.94557 0.43818 0.0
C1430 C 0.25538 0.93255 0.42739 0.0
H1431 H 0.30618 0.8982 0.41875 0.0
H1432 H 0.29465 0.91646 0.41283 0.0
H1433 H 0.29244 0.90944 0.4357 0.0
H1434 H 0.2354 0.90657 0.45792 0.0
H1435 H 0.23488 0.9293 0.47699 0.0
H1436 H 0.68201 0.75073 0.79982 0.0
H1437 H 0.65839 0.74857 0.82671 0.0
H1438 H 0.66898 0.79638 0.83744 0.0
H1439 H 0.69277 0.79863 0.81076 0.0
H1440 H 0.66908 0.75518 0.86338 0.0
H1441 H 0.60009 0.7917 0.83706 0.0
H1442 H 0.62133 0.78394 0.82259 0.0
H1443 H 0.62751 0.80045 0.83613 0.0
C1444 C 0.67946 0.76077 0.80797 0.0
C1445 C 0.68917 0.77488 0.80303 0.0
C1446 C 0.66586 0.75952 0.82328 0.0
C1447 C 0.66162 0.77237 0.83388 0.0
C1448 C 0.67161 0.7864 0.8292 0.0
H1449 H 0.58743 0.79191 0.93083 0.0
H1450 H 0.61065 0.79249 0.90371 0.0
C1451 C 0.68519 0.78766 0.81392 0.0
C1452 C 0.64698 0.7711 0.84999 0.0
H1453 H 0.59876 0.7848 0.86823 0.0
C1454 C 0.65361 0.76156 0.86442 0.0
C1455 C 0.62683 0.77945 0.85128 0.0
C1456 C 0.61835 0.78936 0.83589 0.0
C1457 C 0.64094 0.76047 0.88034 0.0
C1458 C 0.62089 0.76894 0.8817 0.0
C1459 C 0.61416 0.77835 0.86718 0.0
C1460 C 0.60681 0.76841 0.89818 0.0
C1461 C 0.64946 0.7506 0.89576 0.0
C1462 C 0.5967 0.7547 0.90396 0.0
C1463 C 0.58332 0.75434 0.91944 0.0
C1464 C 0.57966 0.76771 0.92936 0.0
C1465 C 0.58966 0.78144 0.9234 0.0
C1466 C 0.60304 0.78178 0.90795 0.0
H1467 H 0.66759 0.74795 0.89436 0.0
H1468 H 0.64699 0.75624 0.90901 0.0
H1469 H 0.63991 0.73966 0.89587 0.0
H1470 H 0.59895 0.74431 0.89639 0.0
H1471 H 0.57557 0.74363 0.92347 0.0
loop_
_geom_bond_atom_site_label_1
_geom_bond_atom_site_label_2
_geom_bond_distance
_geom_bond_site_symmetry_2
_ccdc_geom_bond_type
C0 C1 1.264 . S
C0 C5 1.479 . S
C0 C10 1.465 . S
C1 C0 1.264 . S
C1 C3 1.339 . S
C1 H28 0.931 . S
C2 C3 1.395 . S
C2 C4 1.320 . S
C3 C1 1.339 . S
C3 C2 1.395 . S
C3 H29 0.929 . S
C4 C2 1.320 . S
C4 C5 1.405 . S
C4 H30 0.930 . S
C5 C0 1.479 . S
C5 C4 1.405 . S
C5 H31 0.931 . S
U6 O7 2.454 . S
U6 O8 2.458 . S
U6 C9 2.984 . S
U6 C10 2.847 . S
U6 C23 2.882 . S
U6 O24 2.441 . S
U6 O25 2.420 . S
U6 O26 2.455 . S
U6 O27 2.449 . S
O7 U6 2.454 . S
O7 C9 1.353 . S
O8 U6 2.458 . S
O8 C9 1.286 . S
C9 U6 2.984 . S
C9 O7 1.353 . S
C9 O8 1.286 . S
C9 C11 1.363 . S
C10 C0 1.465 . S
C10 U6 2.847 . S
C10 O24 1.249 . S
C10 O25 1.202 . S
C11 C9 1.363 . S
C11 C13 1.408 . S
C11 C16 1.342 . S
C12 C13 1.310 . S
C12 C15 1.461 . S
C12 H32 0.932 . S
C13 C11 1.408 . S
C13 C12 1.310 . S
C13 H33 0.930 . S
C14 C15 1.474 . S
C14 C16 1.285 . S
C14 H34 0.929 . S
C15 C12 1.461 . S
C15 C14 1.474 . S
C16 C11 1.342 . S
C16 C14 1.285 . S
C16 H35 0.930 . S
C17 C20 1.424 . S
C17 C22 1.245 . S
C17 C23 1.428 . S
C18 C21 1.260 . S
C18 C22 1.477 . S
C18 H36 0.932 . S
C19 C20 1.384 . S
C19 C21 1.479 . S
C19 H37 0.929 . S
C20 C17 1.424 . S
C20 C19 1.384 . S
C20 H38 0.928 . S
C21 C18 1.260 . S
C21 C19 1.479 . S
C22 C17 1.245 . S
C22 C18 1.477 . S
C22 H39 0.932 . S
C23 U6 2.882 . S
C23 C17 1.428 . S
C23 O26 1.301 . S
C23 O27 1.282 . S
O24 U6 2.441 . S
O24 C10 1.249 . S
O25 U6 2.420 . S
O25 C10 1.202 . S
O26 U6 2.455 . S
O26 C23 1.301 . S
O27 U6 2.449 . S
O27 C23 1.282 . S
H28 C1 0.931 . S
H29 C3 0.929 . S
H30 C4 0.930 . S
H31 C5 0.931 . S
H32 C12 0.932 . S
H33 C13 0.930 . S
H34 C14 0.929 . S
H35 C16 0.930 . S
H36 C18 0.932 . S
H37 C19 0.929 . S
H38 C20 0.928 . S
H39 C22 0.932 . S
C40 C41 1.264 . S
C40 C45 1.479 . S
C40 C50 1.465 . S
C41 C40 1.264 . S
C41 C43 1.339 . S
C41 H68 0.931 . S
C42 C43 1.395 . S
C42 C44 1.320 . S
C43 C41 1.339 . S
C43 C42 1.395 . S
C43 H69 0.929 . S
C44 C42 1.320 . S
C44 C45 1.405 . S
C44 H70 0.930 . S
C45 C40 1.479 . S
C45 C44 1.405 . S
C45 H71 0.931 . S
U46 O47 2.454 . S
U46 O48 2.458 . S
U46 C49 2.984 . S
U46 C50 2.847 . S
U46 C63 2.882 . S
U46 O64 2.441 . S
U46 O65 2.420 . S
U46 O66 2.455 . S
U46 O67 2.449 . S
O47 U46 2.454 . S
O47 C49 1.353 . S
O48 U46 2.458 . S
O48 C49 1.286 . S
C49 U46 2.984 . S
C49 O47 1.353 . S
C49 O48 1.286 . S
C49 C51 1.363 . S
C50 C40 1.465 . S
C50 U46 2.847 . S
C50 O64 1.249 . S
C50 O65 1.202 . S
C51 C49 1.363 . S
C51 C53 1.408 . S
C51 C56 1.342 . S
C52 C53 1.310 . S
C52 C55 1.461 . S
C52 H72 0.932 . S
C53 C51 1.408 . S
C53 C52 1.310 . S
C53 H73 0.930 . S
C54 C55 1.474 . S
C54 C56 1.285 . S
C54 H74 0.929 . S
C55 C52 1.461 . S
C55 C54 1.474 . S
C56 C51 1.342 . S
C56 C54 1.285 . S
C56 H75 0.930 . S
C57 C60 1.424 . S
C57 C62 1.245 . S
C57 C63 1.428 . S
C58 C61 1.260 . S
C58 C62 1.477 . S
C58 H76 0.932 . S
C59 C60 1.384 . S
C59 C61 1.479 . S
C59 H77 0.929 . S
C60 C57 1.424 . S
C60 C59 1.384 . S
C60 H78 0.928 . S
C61 C58 1.260 . S
C61 C59 1.479 . S
C62 C57 1.245 . S
C62 C58 1.477 . S
C62 H79 0.932 . S
C63 U46 2.882 . S
C63 C57 1.428 . S
C63 O66 1.301 . S
C63 O67 1.282 . S
O64 U46 2.441 . S
O64 C50 1.249 . S
O65 U46 2.420 . S
O65 C50 1.202 . S
O66 U46 2.455 . S
O66 C63 1.301 . S
O67 U46 2.449 . S
O67 C63 1.282 . S
H68 C41 0.931 . S
H69 C43 0.929 . S
H70 C44 0.930 . S
H71 C45 0.931 . S
H72 C52 0.932 . S
H73 C53 0.930 . S
H74 C54 0.929 . S
H75 C56 0.930 . S
H76 C58 0.932 . S
H77 C59 0.929 . S
H78 C60 0.928 . S
H79 C62 0.932 . S
C80 C81 1.264 . S
C80 C85 1.479 . S
C80 C90 1.465 . S
C81 C80 1.264 . S
C81 C83 1.339 . S
C81 H108 0.931 . S
C82 C83 1.395 . S
C82 C84 1.320 . S
C83 C81 1.339 . S
C83 C82 1.395 . S
C83 H109 0.929 . S
C84 C82 1.320 . S
C84 C85 1.405 . S
C84 H110 0.930 . S
C85 C80 1.479 . S
C85 C84 1.405 . S
C85 H111 0.931 . S
U86 O87 2.454 . S
U86 O88 2.458 . S
U86 C89 2.984 . S
U86 C90 2.847 . S
U86 C103 2.882 . S
U86 O104 2.441 . S
U86 O105 2.420 . S
U86 O106 2.455 . S
U86 O107 2.449 . S
O87 U86 2.454 . S
O87 C89 1.353 . S
O88 U86 2.458 . S
O88 C89 1.286 . S
C89 U86 2.984 . S
C89 O87 1.353 . S
C89 O88 1.286 . S
C89 C91 1.363 . S
C90 C80 1.465 . S
C90 U86 2.847 . S
C90 O104 1.249 . S
C90 O105 1.202 . S
C91 C89 1.363 . S
C91 C93 1.408 . S
C91 C96 1.342 . S
C92 C93 1.310 . S
C92 C95 1.461 . S
C92 H112 0.932 . S
C93 C91 1.408 . S
C93 C92 1.310 . S
C93 H113 0.930 . S
C94 C95 1.474 . S
C94 C96 1.285 . S
C94 H114 0.929 . S
C95 C92 1.461 . S
C95 C94 1.474 . S
C96 C91 1.342 . S
C96 C94 1.285 . S
C96 H115 0.930 . S
C97 C100 1.424 . S
C97 C102 1.245 . S
C97 C103 1.428 . S
C98 C101 1.260 . S
C98 C102 1.477 . S
C98 H116 0.932 . S
C99 C100 1.384 . S
C99 C101 1.479 . S
C99 H117 0.929 . S
C100 C97 1.424 . S
C100 C99 1.384 . S
C100 H118 0.928 . S
C101 C98 1.260 . S
C101 C99 1.479 . S
C102 C97 1.245 . S
C102 C98 1.477 . S
C102 H119 0.932 . S
C103 U86 2.882 . S
C103 C97 1.428 . S
C103 O106 1.301 . S
C103 O107 1.282 . S
O104 U86 2.441 . S
O104 C90 1.249 . S
O105 U86 2.420 . S
O105 C90 1.202 . S
O106 U86 2.455 . S
O106 C103 1.301 . S
O107 U86 2.449 . S
O107 C103 1.282 . S
H108 C81 0.931 . S
H109 C83 0.929 . S
H110 C84 0.930 . S
H111 C85 0.931 . S
H112 C92 0.932 . S
H113 C93 0.930 . S
H114 C94 0.929 . S
H115 C96 0.930 . S
H116 C98 0.932 . S
H117 C99 0.929 . S
H118 C100 0.928 . S
H119 C102 0.932 . S
C120 C121 1.264 . S
C120 C125 1.479 . S
C120 C130 1.465 . S
C121 C120 1.264 . S
C121 C123 1.339 . S
C121 H148 0.931 . S
C122 C123 1.395 . S
C122 C124 1.320 . S
C123 C121 1.339 . S
C123 C122 1.395 . S
C123 H149 0.929 . S
C124 C122 1.320 . S
C124 C125 1.405 . S
C124 H150 0.930 . S
C125 C120 1.479 . S
C125 C124 1.405 . S
C125 H151 0.931 . S
U126 O127 2.454 . S
U126 O128 2.458 . S
U126 C129 2.984 . S
U126 C130 2.847 . S
U126 C143 2.882 . S
U126 O144 2.441 . S
U126 O145 2.420 . S
U126 O146 2.455 . S
U126 O147 2.449 . S
O127 U126 2.454 . S
O127 C129 1.353 . S
O128 U126 2.458 . S
O128 C129 1.286 . S
C129 U126 2.984 . S
C129 O127 1.353 . S
C129 O128 1.286 . S
C129 C131 1.363 . S
C130 C120 1.465 . S
C130 U126 2.847 . S
C130 O144 1.249 . S
C130 O145 1.202 . S
C131 C129 1.363 . S
C131 C133 1.408 . S
C131 C136 1.342 . S
C132 C133 1.310 . S
C132 C135 1.461 . S
C132 H152 0.932 . S
C133 C131 1.408 . S
C133 C132 1.310 . S
C133 H153 0.930 . S
C134 C135 1.474 . S
C134 C136 1.285 . S
C134 H154 0.929 . S
C135 C132 1.461 . S
C135 C134 1.474 . S
C136 C131 1.342 . S
C136 C134 1.285 . S
C136 H155 0.930 . S
C137 C140 1.424 . S
C137 C142 1.245 . S
C137 C143 1.428 . S
C138 C141 1.260 . S
C138 C142 1.477 . S
C138 H156 0.932 . S
C139 C140 1.384 . S
C139 C141 1.479 . S
C139 H157 0.929 . S
C140 C137 1.424 . S
C140 C139 1.384 . S
C140 H158 0.928 . S
C141 C138 1.260 . S
C141 C139 1.479 . S
C142 C137 1.245 . S
C142 C138 1.477 . S
C142 H159 0.932 . S
C143 U126 2.882 . S
C143 C137 1.428 . S
C143 O146 1.301 . S
C143 O147 1.282 . S
O144 U126 2.441 . S
O144 C130 1.249 . S
O145 U126 2.420 . S
O145 C130 1.202 . S
O146 U126 2.455 . S
O146 C143 1.301 . S
O147 U126 2.449 . S
O147 C143 1.282 . S
H148 C121 0.931 . S
H149 C123 0.929 . S
H150 C124 0.930 . S
H151 C125 0.931 . S
H152 C132 0.932 . S
H153 C133 0.930 . S
H154 C134 0.929 . S
H155 C136 0.930 . S
H156 C138 0.932 . S
H157 C139 0.929 . S
H158 C140 0.928 . S
H159 C142 0.932 . S
C160 C161 1.264 . S
C160 C165 1.479 . S
C160 C170 1.465 . S
C161 C160 1.264 . S
C161 C163 1.339 . S
C161 H188 0.931 . S
C162 C163 1.395 . S
C162 C164 1.320 . S
C163 C161 1.339 . S
C163 C162 1.395 . S
C163 H189 0.929 . S
C164 C162 1.320 . S
C164 C165 1.405 . S
C164 H190 0.930 . S
C165 C160 1.479 . S
C165 C164 1.405 . S
C165 H191 0.931 . S
U166 O167 2.454 . S
U166 O168 2.458 . S
U166 C169 2.984 . S
U166 C170 2.847 . S
U166 C183 2.882 . S
U166 O184 2.441 . S
U166 O185 2.420 . S
U166 O186 2.455 . S
U166 O187 2.449 . S
O167 U166 2.454 . S
O167 C169 1.353 . S
O168 U166 2.458 . S
O168 C169 1.286 . S
C169 U166 2.984 . S
C169 O167 1.353 . S
C169 O168 1.286 . S
C169 C171 1.363 . S
C170 C160 1.465 . S
C170 U166 2.847 . S
C170 O184 1.249 . S
C170 O185 1.202 . S
C171 C169 1.363 . S
C171 C173 1.408 . S
C171 C176 1.342 . S
C172 C173 1.310 . S
C172 C175 1.461 . S
C172 H192 0.932 . S
C173 C171 1.408 . S
C173 C172 1.310 . S
C173 H193 0.930 . S
C174 C175 1.474 . S
C174 C176 1.285 . S
C174 H194 0.929 . S
C175 C172 1.461 . S
C175 C174 1.474 . S
C176 C171 1.342 . S
C176 C174 1.285 . S
C176 H195 0.930 . S
C177 C180 1.424 . S
C177 C182 1.245 . S
C177 C183 1.428 . S
C178 C181 1.260 . S
C178 C182 1.477 . S
C178 H196 0.932 . S
C179 C180 1.384 . S
C179 C181 1.479 . S
C179 H197 0.929 . S
C180 C177 1.424 . S
C180 C179 1.384 . S
C180 H198 0.928 . S
C181 C178 1.260 . S
C181 C179 1.479 . S
C182 C177 1.245 . S
C182 C178 1.477 . S
C182 H199 0.932 . S
C183 U166 2.882 . S
C183 C177 1.428 . S
C183 O186 1.301 . S
C183 O187 1.282 . S
O184 U166 2.441 . S
O184 C170 1.249 . S
O185 U166 2.420 . S
O185 C170 1.202 . S
O186 U166 2.455 . S
O186 C183 1.301 . S
O187 U166 2.449 . S
O187 C183 1.282 . S
H188 C161 0.931 . S
H189 C163 0.929 . S
H190 C164 0.930 . S
H191 C165 0.931 . S
H192 C172 0.932 . S
H193 C173 0.930 . S
H194 C174 0.929 . S
H195 C176 0.930 . S
H196 C178 0.932 . S
H197 C179 0.929 . S
H198 C180 0.928 . S
H199 C182 0.932 . S
C200 C201 1.264 . S
C200 C205 1.479 . S
C200 C210 1.465 . S
C201 C200 1.264 . S
C201 C203 1.339 . S
C201 H228 0.931 . S
C202 C203 1.395 . S
C202 C204 1.320 . S
C203 C201 1.339 . S
C203 C202 1.395 . S
C203 H229 0.929 . S
C204 C202 1.320 . S
C204 C205 1.405 . S
C204 H230 0.930 . S
C205 C200 1.479 . S
C205 C204 1.405 . S
C205 H231 0.931 . S
U206 O207 2.454 . S
U206 O208 2.458 . S
U206 C209 2.984 . S
U206 C210 2.847 . S
U206 C223 2.882 . S
U206 O224 2.441 . S
U206 O225 2.420 . S
U206 O226 2.455 . S
U206 O227 2.449 . S
O207 U206 2.454 . S
O207 C209 1.353 . S
O208 U206 2.458 . S
O208 C209 1.286 . S
C209 U206 2.984 . S
C209 O207 1.353 . S
C209 O208 1.286 . S
C209 C211 1.363 . S
C210 C200 1.465 . S
C210 U206 2.847 . S
C210 O224 1.249 . S
C210 O225 1.202 . S
C211 C209 1.363 . S
C211 C213 1.408 . S
C211 C216 1.342 . S
C212 C213 1.310 . S
C212 C215 1.461 . S
C212 H232 0.932 . S
C213 C211 1.408 . S
C213 C212 1.310 . S
C213 H233 0.930 . S
C214 C215 1.474 . S
C214 C216 1.285 . S
C214 H234 0.929 . S
C215 C212 1.461 . S
C215 C214 1.474 . S
C216 C211 1.342 . S
C216 C214 1.285 . S
C216 H235 0.930 . S
C217 C220 1.424 . S
C217 C222 1.245 . S
C217 C223 1.428 . S
C218 C221 1.260 . S
C218 C222 1.477 . S
C218 H236 0.932 . S
C219 C220 1.384 . S
C219 C221 1.479 . S
C219 H237 0.929 . S
C220 C217 1.424 . S
C220 C219 1.384 . S
C220 H238 0.928 . S
C221 C218 1.260 . S
C221 C219 1.479 . S
C222 C217 1.245 . S
C222 C218 1.477 . S
C222 H239 0.932 . S
C223 U206 2.882 . S
C223 C217 1.428 . S
C223 O226 1.301 . S
C223 O227 1.282 . S
O224 U206 2.441 . S
O224 C210 1.249 . S
O225 U206 2.420 . S
O225 C210 1.202 . S
O226 U206 2.455 . S
O226 C223 1.301 . S
O227 U206 2.449 . S
O227 C223 1.282 . S
H228 C201 0.931 . S
H229 C203 0.929 . S
H230 C204 0.930 . S
H231 C205 0.931 . S
H232 C212 0.932 . S
H233 C213 0.930 . S
H234 C214 0.929 . S
H235 C216 0.930 . S
H236 C218 0.932 . S
H237 C219 0.929 . S
H238 C220 0.928 . S
H239 C222 0.932 . S
C240 C241 1.264 . S
C240 C245 1.479 . S
C240 C250 1.465 . S
C241 C240 1.264 . S
C241 C243 1.339 . S
C241 H268 0.931 . S
C242 C243 1.395 . S
C242 C244 1.320 . S
C243 C241 1.339 . S
C243 C242 1.395 . S
C243 H269 0.929 . S
C244 C242 1.320 . S
C244 C245 1.405 . S
C244 H270 0.930 . S
C245 C240 1.479 . S
C245 C244 1.405 . S
C245 H271 0.931 . S
U246 O247 2.454 . S
U246 O248 2.458 . S
U246 C249 2.984 . S
U246 C250 2.847 . S
U246 C263 2.882 . S
U246 O264 2.441 . S
U246 O265 2.420 . S
U246 O266 2.455 . S
U246 O267 2.449 . S
O247 U246 2.454 . S
O247 C249 1.353 . S
O248 U246 2.458 . S
O248 C249 1.286 . S
C249 U246 2.984 . S
C249 O247 1.353 . S
C249 O248 1.286 . S
C249 C251 1.363 . S
C250 C240 1.465 . S
C250 U246 2.847 . S
C250 O264 1.249 . S
C250 O265 1.202 . S
C251 C249 1.363 . S
C251 C253 1.408 . S
C251 C256 1.342 . S
C252 C253 1.310 . S
C252 C255 1.461 . S
C252 H272 0.932 . S
C253 C251 1.408 . S
C253 C252 1.310 . S
C253 H273 0.930 . S
C254 C255 1.474 . S
C254 C256 1.285 . S
C254 H274 0.929 . S
C255 C252 1.461 . S
C255 C254 1.474 . S
C256 C251 1.342 . S
C256 C254 1.285 . S
C256 H275 0.930 . S
C257 C260 1.424 . S
C257 C262 1.245 . S
C257 C263 1.428 . S
C258 C261 1.260 . S
C258 C262 1.477 . S
C258 H276 0.932 . S
C259 C260 1.384 . S
C259 C261 1.479 . S
C259 H277 0.929 . S
C260 C257 1.424 . S
C260 C259 1.384 . S
C260 H278 0.928 . S
C261 C258 1.260 . S
C261 C259 1.479 . S
C262 C257 1.245 . S
C262 C258 1.477 . S
C262 H279 0.932 . S
C263 U246 2.882 . S
C263 C257 1.428 . S
C263 O266 1.301 . S
C263 O267 1.282 . S
O264 U246 2.441 . S
O264 C250 1.249 . S
O265 U246 2.420 . S
O265 C250 1.202 . S
O266 U246 2.455 . S
O266 C263 1.301 . S
O267 U246 2.449 . S
O267 C263 1.282 . S
H268 C241 0.931 . S
H269 C243 0.929 . S
H270 C244 0.930 . S
H271 C245 0.931 . S
H272 C252 0.932 . S
H273 C253 0.930 . S
H274 C254 0.929 . S
H275 C256 0.930 . S
H276 C258 0.932 . S
H277 C259 0.929 . S
H278 C260 0.928 . S
H279 C262 0.932 . S
C280 C281 1.264 . S
C280 C285 1.479 . S
C280 C290 1.465 . S
C281 C280 1.264 . S
C281 C283 1.339 . S
C281 H308 0.931 . S
C282 C283 1.395 . S
C282 C284 1.320 . S
C283 C281 1.339 . S
C283 C282 1.395 . S
C283 H309 0.929 . S
C284 C282 1.320 . S
C284 C285 1.405 . S
C284 H310 0.930 . S
C285 C280 1.479 . S
C285 C284 1.405 . S
C285 H311 0.931 . S
U286 O287 2.454 . S
U286 O288 2.458 . S
U286 C289 2.984 . S
U286 C290 2.847 . S
U286 C303 2.882 . S
U286 O304 2.441 . S
U286 O305 2.420 . S
U286 O306 2.455 . S
U286 O307 2.449 . S
O287 U286 2.454 . S
O287 C289 1.353 . S
O288 U286 2.458 . S
O288 C289 1.286 . S
C289 U286 2.984 . S
C289 O287 1.353 . S
C289 O288 1.286 . S
C289 C291 1.363 . S
C290 C280 1.465 . S
C290 U286 2.847 . S
C290 O304 1.249 . S
C290 O305 1.202 . S
C291 C289 1.363 . S
C291 C293 1.408 . S
C291 C296 1.342 . S
C292 C293 1.310 . S
C292 C295 1.461 . S
C292 H312 0.932 . S
C293 C291 1.408 . S
C293 C292 1.310 . S
C293 H313 0.930 . S
C294 C295 1.474 . S
C294 C296 1.285 . S
C294 H314 0.929 . S
C295 C292 1.461 . S
C295 C294 1.474 . S
C296 C291 1.342 . S
C296 C294 1.285 . S
C296 H315 0.930 . S
C297 C300 1.424 . S
C297 C302 1.245 . S
C297 C303 1.428 . S
C298 C301 1.260 . S
C298 C302 1.477 . S
C298 H316 0.932 . S
C299 C300 1.384 . S
C299 C301 1.479 . S
C299 H317 0.929 . S
C300 C297 1.424 . S
C300 C299 1.384 . S
C300 H318 0.928 . S
C301 C298 1.260 . S
C301 C299 1.479 . S
C302 C297 1.245 . S
C302 C298 1.477 . S
C302 H319 0.932 . S
C303 U286 2.882 . S
C303 C297 1.428 . S
C303 O306 1.301 . S
C303 O307 1.282 . S
O304 U286 2.441 . S
O304 C290 1.249 . S
O305 U286 2.420 . S
O305 C290 1.202 . S
O306 U286 2.455 . S
O306 C303 1.301 . S
O307 U286 2.449 . S
O307 C303 1.282 . S
H308 C281 0.931 . S
H309 C283 0.929 . S
H310 C284 0.930 . S
H311 C285 0.931 . S
H312 C292 0.932 . S
H313 C293 0.930 . S
H314 C294 0.929 . S
H315 C296 0.930 . S
H316 C298 0.932 . S
H317 C299 0.929 . S
H318 C300 0.928 . S
H319 C302 0.932 . S
H320 C339 0.949 . S
H321 C340 0.950 . S
H322 C342 0.950 . S
H323 C343 0.950 . S
H324 C345 0.950 . S
H325 C348 0.950 . S
H326 C349 0.950 . S
H327 C351 0.951 . S
H328 C352 0.949 . S
H329 C354 0.949 . S
H330 C355 0.950 . S
H331 C357 0.950 . S
H332 C358 0.950 . S
H333 C360 0.950 . S
H334 C363 0.950 . S
H335 C364 0.950 . S
H336 C366 0.951 . S
H337 C367 0.949 . S
C338 C339 1.376 . S
C338 C343 1.386 . S
C338 C344 1.483 . S
C339 H320 0.949 . S
C339 C338 1.376 . S
C339 C340 1.397 . S
C340 H321 0.950 . S
C340 C339 1.397 . S
C340 C341 1.391 . S
C341 C340 1.391 . S
C341 C342 1.405 . S
C342 H322 0.950 . S
C342 C341 1.405 . S
C342 C343 1.367 . S
C343 H323 0.950 . S
C343 C338 1.386 . S
C343 C342 1.367 . S
C344 C338 1.483 . S
C344 C345 1.382 . S
C344 C346 1.403 1_655 S
C345 H324 0.950 . S
C345 C344 1.382 . S
C345 C361 1.411 . S
C346 C344 1.403 1_455 S
C346 C347 1.489 . S
C346 C360 1.411 . S
C347 C346 1.489 . S
C347 C348 1.383 . S
C347 C352 1.382 . S
C348 H325 0.950 . S
C348 C347 1.383 . S
C348 C349 1.395 . S
C349 H326 0.950 . S
C349 C348 1.395 . S
C349 C350 1.288 . S
C350 C349 1.288 . S
C350 C351 1.392 . S
C351 H327 0.951 . S
C351 C350 1.392 . S
C351 C352 1.392 . S
C352 H328 0.949 . S
C352 C347 1.382 . S
C352 C351 1.392 . S
C353 C354 1.376 . S
C353 C358 1.386 . S
C353 C359 1.483 . S
C354 H329 0.949 . S
C354 C353 1.376 . S
C354 C355 1.397 . S
C355 H330 0.950 . S
C355 C354 1.397 . S
C355 C356 1.391 . S
C356 C355 1.391 . S
C356 C357 1.405 . S
C357 H331 0.950 . S
C357 C356 1.405 . S
C357 C358 1.367 . S
C358 H332 0.950 . S
C358 C353 1.386 . S
C358 C357 1.367 . S
C359 C353 1.483 . S
C359 C360 1.382 . S
C359 C361 1.403 1_455 S
C360 H333 0.950 . S
C360 C346 1.411 . S
C360 C359 1.382 . S
C361 C345 1.411 . S
C361 C359 1.403 1_655 S
C361 C362 1.489 . S
C362 C361 1.489 . S
C362 C363 1.383 . S
C362 C367 1.382 . S
C363 H334 0.950 . S
C363 C362 1.383 . S
C363 C364 1.395 . S
C364 H335 0.950 . S
C364 C363 1.395 . S
C364 C365 1.288 . S
C365 C364 1.288 . S
C365 C366 1.392 . S
C366 H336 0.951 . S
C366 C365 1.392 . S
C366 C367 1.392 . S
C367 H337 0.949 . S
C367 C362 1.382 . S
C367 C366 1.392 . S
H368 C387 0.949 . S
H369 C388 0.950 . S
H370 C390 0.950 . S
H371 C391 0.950 . S
H372 C393 0.950 . S
H373 C396 0.950 . S
H374 C397 0.950 . S
H375 C399 0.951 . S
H376 C400 0.949 . S
H377 C402 0.949 . S
H378 C403 0.950 . S
H379 C405 0.950 . S
H380 C406 0.950 . S
H381 C408 0.950 . S
H382 C411 0.950 . S
H383 C412 0.950 . S
H384 C414 0.951 . S
H385 C415 0.949 . S
C386 C387 1.376 . S
C386 C391 1.386 . S
C386 C392 1.483 . S
C387 H368 0.949 . S
C387 C386 1.376 . S
C387 C388 1.397 . S
C388 H369 0.950 . S
C388 C387 1.397 . S
C388 C389 1.391 . S
C389 C388 1.391 . S
C389 C390 1.405 . S
C390 H370 0.950 . S
C390 C389 1.405 . S
C390 C391 1.367 . S
C391 H371 0.950 . S
C391 C386 1.386 . S
C391 C390 1.367 . S
C392 C386 1.483 . S
C392 C393 1.382 . S
C392 C394 1.403 1_455 S
C393 H372 0.950 . S
C393 C392 1.382 . S
C393 C409 1.411 . S
C394 C392 1.403 1_655 S
C394 C395 1.489 . S
C394 C408 1.411 . S
C395 C394 1.489 . S
C395 C396 1.383 . S
C395 C400 1.382 . S
C396 H373 0.950 . S
C396 C395 1.383 . S
C396 C397 1.395 . S
C397 H374 0.950 . S
C397 C396 1.395 . S
C397 C398 1.288 . S
C398 C397 1.288 . S
C398 C399 1.392 . S
C399 H375 0.951 . S
C399 C398 1.392 . S
C399 C400 1.392 . S
C400 H376 0.949 . S
C400 C395 1.382 . S
C400 C399 1.392 . S
C401 C402 1.376 . S
C401 C406 1.386 . S
C401 C407 1.483 . S
C402 H377 0.949 . S
C402 C401 1.376 . S
C402 C403 1.397 . S
C403 H378 0.950 . S
C403 C402 1.397 . S
C403 C404 1.391 . S
C404 C403 1.391 . S
C404 C405 1.405 . S
C405 H379 0.950 . S
C405 C404 1.405 . S
C405 C406 1.367 . S
C406 H380 0.950 . S
C406 C401 1.386 . S
C406 C405 1.367 . S
C407 C401 1.483 . S
C407 C408 1.382 . S
C407 C409 1.403 1_655 S
C408 H381 0.950 . S
C408 C394 1.411 . S
C408 C407 1.382 . S
C409 C393 1.411 . S
C409 C407 1.403 1_455 S
C409 C410 1.489 . S
C410 C409 1.489 . S
C410 C411 1.383 . S
C410 C415 1.382 . S
C411 H382 0.950 . S
C411 C410 1.383 . S
C411 C412 1.395 . S
C412 H383 0.950 . S
C412 C411 1.395 . S
C412 C413 1.288 . S
C413 C412 1.288 . S
C413 C414 1.392 . S
C414 H384 0.951 . S
C414 C413 1.392 . S
C414 C415 1.392 . S
C415 H385 0.949 . S
C415 C410 1.382 . S
C415 C414 1.392 . S
H416 C435 0.949 . S
H417 C436 0.950 . S
H418 C438 0.950 . S
H419 C439 0.950 . S
H420 C441 0.950 . S
H421 C444 0.950 . S
H422 C445 0.950 . S
H423 C447 0.951 . S
H424 C448 0.949 . S
H425 C450 0.949 . S
H426 C451 0.950 . S
H427 C453 0.950 . S
H428 C454 0.950 . S
H429 C456 0.950 . S
H430 C459 0.950 . S
H431 C460 0.950 . S
H432 C462 0.951 . S
H433 C463 0.949 . S
C434 C435 1.376 . S
C434 C439 1.386 . S
C434 C440 1.483 . S
C435 H416 0.949 . S
C435 C434 1.376 . S
C435 C436 1.397 . S
C436 H417 0.950 . S
C436 C435 1.397 . S
C436 C437 1.391 . S
C437 C436 1.391 . S
C437 C438 1.405 . S
C438 H418 0.950 . S
C438 C437 1.405 . S
C438 C439 1.367 . S
C439 H419 0.950 . S
C439 C434 1.386 . S
C439 C438 1.367 . S
C440 C434 1.483 . S
C440 C441 1.382 1_565 S
C440 C442 1.403 . S
C441 H420 0.950 . S
C441 C440 1.382 1_545 S
C441 C457 1.411 . S
C442 C440 1.403 . S
C442 C443 1.489 . S
C442 C456 1.411 1_565 S
C443 C442 1.489 . S
C443 C444 1.383 . S
C443 C448 1.382 . S
C444 H421 0.950 . S
C444 C443 1.383 . S
C444 C445 1.395 . S
C445 H422 0.950 . S
C445 C444 1.395 . S
C445 C446 1.288 . S
C446 C445 1.288 . S
C446 C447 1.392 . S
C447 H423 0.951 . S
C447 C446 1.392 . S
C447 C448 1.392 . S
C448 H424 0.949 . S
C448 C443 1.382 . S
C448 C447 1.392 . S
C449 C450 1.376 . S
C449 C454 1.386 . S
C449 C455 1.483 . S
C450 H425 0.949 . S
C450 C449 1.376 . S
C450 C451 1.397 . S
C451 H426 0.950 . S
C451 C450 1.397 . S
C451 C452 1.391 . S
C452 C451 1.391 . S
C452 C453 1.405 . S
C453 H427 0.950 . S
C453 C452 1.405 . S
C453 C454 1.367 . S
C454 H428 0.950 . S
C454 C449 1.386 . S
C454 C453 1.367 . S
C455 C449 1.483 . S
C455 C456 1.382 . S
C455 C457 1.403 . S
C456 H429 0.950 . S
C456 C442 1.411 1_545 S
C456 C455 1.382 . S
C457 C441 1.411 . S
C457 C455 1.403 . S
C457 C458 1.489 . S
C458 C457 1.489 . S
C458 C459 1.383 . S
C458 C463 1.382 . S
C459 H430 0.950 . S
C459 C458 1.383 . S
C459 C460 1.395 . S
C460 H431 0.950 . S
C460 C459 1.395 . S
C460 C461 1.288 . S
C461 C460 1.288 . S
C461 C462 1.392 . S
C462 H432 0.951 . S
C462 C461 1.392 . S
C462 C463 1.392 . S
C463 H433 0.949 . S
C463 C458 1.382 . S
C463 C462 1.392 . S
H464 C483 0.949 . S
H465 C484 0.950 . S
H466 C486 0.950 . S
H467 C487 0.950 . S
H468 C489 0.950 . S
H469 C492 0.950 . S
H470 C493 0.950 . S
H471 C495 0.951 . S
H472 C496 0.949 . S
H473 C498 0.949 . S
H474 C499 0.950 . S
H475 C501 0.950 . S
H476 C502 0.950 . S
H477 C504 0.950 . S
H478 C507 0.950 . S
H479 C508 0.950 . S
H480 C510 0.951 . S
H481 C511 0.949 . S
C482 C483 1.376 . S
C482 C487 1.386 . S
C482 C488 1.483 . S
C483 H464 0.949 . S
C483 C482 1.376 . S
C483 C484 1.397 . S
C484 H465 0.950 . S
C484 C483 1.397 . S
C484 C485 1.391 . S
C485 C484 1.391 . S
C485 C486 1.405 . S
C486 H466 0.950 . S
C486 C485 1.405 . S
C486 C487 1.367 . S
C487 H467 0.950 . S
C487 C482 1.386 . S
C487 C486 1.367 . S
C488 C482 1.483 . S
C488 C489 1.382 1_556 S
C488 C490 1.403 . S
C489 H468 0.950 . S
C489 C488 1.382 1_554 S
C489 C505 1.411 . S
C490 C488 1.403 . S
C490 C491 1.489 . S
C490 C504 1.411 1_556 S
C491 C490 1.489 . S
C491 C492 1.383 . S
C491 C496 1.382 . S
C492 H469 0.950 . S
C492 C491 1.383 . S
C492 C493 1.395 . S
C493 H470 0.950 . S
C493 C492 1.395 . S
C493 C494 1.288 . S
C494 C493 1.288 . S
C494 C495 1.392 . S
C495 H471 0.951 . S
C495 C494 1.392 . S
C495 C496 1.392 . S
C496 H472 0.949 . S
C496 C491 1.382 . S
C496 C495 1.392 . S
C497 C498 1.376 . S
C497 C502 1.386 . S
C497 C503 1.483 . S
C498 H473 0.949 . S
C498 C497 1.376 . S
C498 C499 1.397 . S
C499 H474 0.950 . S
C499 C498 1.397 . S
C499 C500 1.391 . S
C500 C499 1.391 . S
C500 C501 1.405 . S
C501 H475 0.950 . S
C501 C500 1.405 . S
C501 C502 1.367 . S
C502 H476 0.950 . S
C502 C497 1.386 . S
C502 C501 1.367 . S
C503 C497 1.483 . S
C503 C504 1.382 . S
C503 C505 1.403 . S
C504 H477 0.950 . S
C504 C490 1.411 1_554 S
C504 C503 1.382 . S
C505 C489 1.411 . S
C505 C503 1.403 . S
C505 C506 1.489 . S
C506 C505 1.489 . S
C506 C507 1.383 . S
C506 C511 1.382 . S
C507 H478 0.950 . S
C507 C506 1.383 . S
C507 C508 1.395 . S
C508 H479 0.950 . S
C508 C507 1.395 . S
C508 C509 1.288 . S
C509 C508 1.288 . S
C509 C510 1.392 . S
C510 H480 0.951 . S
C510 C509 1.392 . S
C510 C511 1.392 . S
C511 H481 0.949 . S
C511 C506 1.382 . S
C511 C510 1.392 . S
H512 C531 0.949 . S
H513 C532 0.950 . S
H514 C534 0.950 . S
H515 C535 0.950 . S
H516 C537 0.950 . S
H517 C540 0.950 . S
H518 C541 0.950 . S
H519 C543 0.951 . S
H520 C544 0.949 . S
H521 C546 0.949 . S
H522 C547 0.950 . S
H523 C549 0.950 . S
H524 C550 0.950 . S
H525 C552 0.950 . S
H526 C555 0.950 . S
H527 C556 0.950 . S
H528 C558 0.951 . S
H529 C559 0.949 . S
C530 C531 1.376 . S
C530 C535 1.386 . S
C530 C536 1.483 . S
C531 H512 0.949 . S
C531 C530 1.376 . S
C531 C532 1.397 . S
C532 H513 0.950 . S
C532 C531 1.397 . S
C532 C533 1.391 . S
C533 C532 1.391 . S
C533 C534 1.405 . S
C534 H514 0.950 . S
C534 C533 1.405 . S
C534 C535 1.367 . S
C535 H515 0.950 . S
C535 C530 1.386 . S
C535 C534 1.367 . S
C536 C530 1.483 . S
C536 C537 1.336 1_565 S
C536 C538 1.403 . S
C537 H516 0.950 . S
C537 C536 1.336 1_545 S
C537 C553 1.458 . S
C538 C536 1.403 . S
C538 C539 1.489 . S
C538 C552 1.411 1_565 S
C539 C538 1.489 . S
C539 C540 1.383 . S
C539 C544 1.382 . S
C540 H517 0.950 . S
C540 C539 1.383 . S
C540 C541 1.395 . S
C541 H518 0.950 . S
C541 C540 1.395 . S
C541 C542 1.288 . S
C542 C541 1.288 . S
C542 C543 1.392 . S
C543 H519 0.951 . S
C543 C542 1.392 . S
C543 C544 1.392 . S
C544 H520 0.949 . S
C544 C539 1.382 . S
C544 C543 1.392 . S
C545 C546 1.376 . S
C545 C550 1.386 . S
C545 C551 1.483 . S
C546 H521 0.949 . S
C546 C545 1.376 . S
C546 C547 1.397 . S
C547 H522 0.950 . S
C547 C546 1.397 . S
C547 C548 1.391 . S
C548 C547 1.391 . S
C548 C549 1.405 . S
C549 H523 0.950 . S
C549 C548 1.405 . S
C549 C550 1.367 . S
C550 H524 0.950 . S
C550 C545 1.386 . S
C550 C549 1.367 . S
C551 C545 1.483 . S
C551 C552 1.382 . S
C551 C553 1.403 . S
C552 H525 0.950 . S
C552 C538 1.411 1_545 S
C552 C551 1.382 . S
C553 C537 1.458 . S
C553 C551 1.403 . S
C553 C554 1.489 . S
C554 C553 1.489 . S
C554 C555 1.383 . S
C554 C559 1.382 . S
C555 H526 0.950 . S
C555 C554 1.383 . S
C555 C556 1.395 . S
C556 H527 0.950 . S
C556 C555 1.395 . S
C556 C557 1.288 . S
C557 C556 1.288 . S
C557 C558 1.392 . S
C558 H528 0.951 . S
C558 C557 1.392 . S
C558 C559 1.392 . S
C559 H529 0.949 . S
C559 C554 1.382 . S
C559 C558 1.392 . S
H560 C579 0.949 . S
H561 C580 0.950 . S
H562 C582 0.950 . S
H563 C583 0.950 . S
H564 C585 0.950 . S
H565 C588 0.950 . S
H566 C589 0.950 . S
H567 C591 0.951 . S
H568 C592 0.949 . S
H569 C594 0.949 . S
H570 C595 0.950 . S
H571 C597 0.950 . S
H572 C598 0.950 . S
H573 C600 0.950 . S
H574 C603 0.950 . S
H575 C604 0.950 . S
H576 C606 0.951 . S
H577 C607 0.949 . S
C578 C579 1.376 . S
C578 C583 1.386 . S
C578 C584 1.483 . S
C579 H560 0.949 . S
C579 C578 1.376 . S
C579 C580 1.397 . S
C580 H561 0.950 . S
C580 C579 1.397 . S
C580 C581 1.391 . S
C581 C580 1.391 . S
C581 C582 1.405 . S
C582 H562 0.950 . S
C582 C581 1.405 . S
C582 C583 1.367 . S
C583 H563 0.950 . S
C583 C578 1.386 . S
C583 C582 1.367 . S
C584 C578 1.483 . S
C584 C585 1.382 1_556 S
C584 C586 1.403 . S
C585 H564 0.950 . S
C585 C584 1.382 1_554 S
C585 C601 1.411 . S
C586 C584 1.403 . S
C586 C587 1.489 . S
C586 C600 1.411 1_556 S
C587 C586 1.489 . S
C587 C588 1.383 . S
C587 C592 1.382 . S
C588 H565 0.950 . S
C588 C587 1.383 . S
C588 C589 1.395 . S
C589 H566 0.950 . S
C589 C588 1.395 . S
C589 C590 1.288 . S
C590 C589 1.288 . S
C590 C591 1.392 . S
C591 H567 0.951 . S
C591 C590 1.392 . S
C591 C592 1.392 . S
C592 H568 0.949 . S
C592 C587 1.382 . S
C592 C591 1.392 . S
C593 C594 1.376 . S
C593 C598 1.386 . S
C593 C599 1.483 . S
C594 H569 0.949 . S
C594 C593 1.376 . S
C594 C595 1.397 . S
C595 H570 0.950 . S
C595 C594 1.397 . S
C595 C596 1.391 . S
C596 C595 1.391 . S
C596 C597 1.405 . S
C597 H571 0.950 . S
C597 C596 1.405 . S
C597 C598 1.367 . S
C598 H572 0.950 . S
C598 C593 1.386 . S
C598 C597 1.367 . S
C599 C593 1.483 . S
C599 C600 1.382 . S
C599 C601 1.403 . S
C600 H573 0.950 . S
C600 C586 1.411 1_554 S
C600 C599 1.382 . S
C601 C585 1.411 . S
C601 C599 1.403 . S
C601 C602 1.489 . S
C602 C601 1.489 . S
C602 C603 1.383 . S
C602 C607 1.382 . S
C603 H574 0.950 . S
C603 C602 1.383 . S
C603 C604 1.395 . S
C604 H575 0.950 . S
C604 C603 1.395 . S
C604 C605 1.288 . S
C605 C604 1.288 . S
C605 C606 1.392 . S
C606 H576 0.951 . S
C606 C605 1.392 . S
C606 C607 1.392 . S
C607 H577 0.949 . S
C607 C602 1.382 . S
C607 C606 1.392 . S
H608 C616 0.929 . S
H609 C618 0.930 . S
H610 C620 0.930 . S
H611 C623 0.929 . S
H612 C626 0.930 . S
H613 C628 0.960 . S
H614 C628 0.960 . S
H615 C628 0.960 . S
C616 H608 0.929 . S
C616 C617 1.377 . S
C616 C618 1.384 . S
C617 C616 1.377 . S
C617 C623 1.390 . S
C618 H609 0.930 . S
C618 C616 1.384 . S
C618 C619 1.372 . S
C619 C618 1.372 . S
C619 C620 1.400 . S
C619 C624 1.490 . S
C620 H610 0.930 . S
C620 C619 1.400 . S
C620 C623 1.386 . S
H621 C637 0.930 . S
H622 C638 0.931 . S
C623 H611 0.929 . S
C623 C617 1.390 . S
C623 C620 1.386 . S
C624 C619 1.490 . S
C624 C626 1.395 . S
C624 C627 1.403 . S
H625 C631 0.930 . S
C626 H612 0.930 . S
C626 C624 1.395 . S
C626 C629 1.403 . S
C627 C624 1.403 . S
C627 C628 1.524 . S
C627 C631 1.400 . S
C628 H613 0.960 . S
C628 H614 0.960 . S
C628 H615 0.960 . S
C628 C627 1.524 . S
C629 C626 1.403 . S
C629 C630 1.392 . S
C629 C633 1.495 . S
C630 C629 1.392 . S
C630 C631 1.385 . S
C630 C632 1.478 . S
C631 H625 0.930 . S
C631 C627 1.400 . S
C631 C630 1.385 . S
C632 C630 1.478 . S
C632 C634 1.381 . S
C632 C638 1.383 . S
C633 C629 1.495 . S
C633 H639 0.959 . S
C633 H640 0.961 . S
C633 H641 0.960 . S
C634 C632 1.381 . S
C634 C635 1.394 . S
C634 H642 0.930 . S
C635 C634 1.394 . S
C635 C636 1.383 . S
C635 H643 0.929 . S
C636 C635 1.383 . S
C636 C637 1.377 . S
C637 H621 0.930 . S
C637 C636 1.377 . S
C637 C638 1.379 . S
C638 H622 0.931 . S
C638 C632 1.383 . S
C638 C637 1.379 . S
H639 C633 0.959 . S
H640 C633 0.961 . S
H641 C633 0.960 . S
H642 C634 0.930 . S
H643 C635 0.929 . S
H644 C652 0.929 . S
H645 C654 0.930 . S
H646 C656 0.930 . S
H647 C659 0.929 . S
H648 C662 0.930 . S
H649 C664 0.960 . S
H650 C664 0.960 . S
H651 C664 0.960 . S
C652 H644 0.929 . S
C652 C653 1.377 . S
C652 C654 1.384 . S
C653 C652 1.377 . S
C653 C659 1.390 . S
C654 H645 0.930 . S
C654 C652 1.384 . S
C654 C655 1.372 . S
C655 C654 1.372 . S
C655 C656 1.400 . S
C655 C660 1.490 . S
C656 H646 0.930 . S
C656 C655 1.400 . S
C656 C659 1.386 . S
H657 C673 0.930 . S
H658 C674 0.931 . S
C659 H647 0.929 . S
C659 C653 1.390 . S
C659 C656 1.386 . S
C660 C655 1.490 . S
C660 C662 1.395 . S
C660 C663 1.403 . S
H661 C667 0.930 . S
C662 H648 0.930 . S
C662 C660 1.395 . S
C662 C665 1.403 . S
C663 C660 1.403 . S
C663 C664 1.524 . S
C663 C667 1.400 . S
C664 H649 0.960 . S
C664 H650 0.960 . S
C664 H651 0.960 . S
C664 C663 1.524 . S
C665 C662 1.403 . S
C665 C666 1.392 . S
C665 C669 1.495 . S
C666 C665 1.392 . S
C666 C667 1.385 . S
C666 C668 1.478 . S
C667 H661 0.930 . S
C667 C663 1.400 . S
C667 C666 1.385 . S
C668 C666 1.478 . S
C668 C670 1.381 . S
C668 C674 1.383 . S
C669 C665 1.495 . S
C669 H675 0.959 . S
C669 H676 0.961 . S
C669 H677 0.960 . S
C670 C668 1.381 . S
C670 C671 1.394 . S
C670 H678 0.930 . S
C671 C670 1.394 . S
C671 C672 1.383 . S
C671 H679 0.929 . S
C672 C671 1.383 . S
C672 C673 1.377 . S
C673 H657 0.930 . S
C673 C672 1.377 . S
C673 C674 1.379 . S
C674 H658 0.931 . S
C674 C668 1.383 . S
C674 C673 1.379 . S
H675 C669 0.959 . S
H676 C669 0.961 . S
H677 C669 0.960 . S
H678 C670 0.930 . S
H679 C671 0.929 . S
H680 C688 0.929 . S
H681 C690 0.930 . S
H682 C692 0.930 . S
H683 C695 0.929 . S
H684 C698 0.930 . S
H685 C700 0.960 . S
H686 C700 0.960 . S
H687 C700 0.960 . S
C688 H680 0.929 . S
C688 C689 1.377 . S
C688 C690 1.384 . S
C689 C688 1.377 . S
C689 C695 1.390 . S
C690 H681 0.930 . S
C690 C688 1.384 . S
C690 C691 1.372 . S
C691 C690 1.372 . S
C691 C692 1.400 . S
C691 C696 1.490 . S
C692 H682 0.930 . S
C692 C691 1.400 . S
C692 C695 1.386 . S
H693 C709 0.930 . S
H694 C710 0.931 . S
C695 H683 0.929 . S
C695 C689 1.390 . S
C695 C692 1.386 . S
C696 C691 1.490 . S
C696 C698 1.395 . S
C696 C699 1.403 . S
H697 C703 0.930 . S
C698 H684 0.930 . S
C698 C696 1.395 . S
C698 C701 1.403 . S
C699 C696 1.403 . S
C699 C700 1.524 . S
C699 C703 1.400 . S
C700 H685 0.960 . S
C700 H686 0.960 . S
C700 H687 0.960 . S
C700 C699 1.524 . S
C701 C698 1.403 . S
C701 C702 1.392 . S
C701 C705 1.495 . S
C702 C701 1.392 . S
C702 C703 1.385 . S
C702 C704 1.478 . S
C703 H697 0.930 . S
C703 C699 1.400 . S
C703 C702 1.385 . S
C704 C702 1.478 . S
C704 C706 1.381 . S
C704 C710 1.383 . S
C705 C701 1.495 . S
C705 H711 0.959 . S
C705 H712 0.961 . S
C705 H713 0.960 . S
C706 C704 1.381 . S
C706 C707 1.394 . S
C706 H714 0.930 . S
C707 C706 1.394 . S
C707 C708 1.383 . S
C707 H715 0.929 . S
C708 C707 1.383 . S
C708 C709 1.377 . S
C709 H693 0.930 . S
C709 C708 1.377 . S
C709 C710 1.379 . S
C710 H694 0.931 . S
C710 C704 1.383 . S
C710 C709 1.379 . S
H711 C705 0.959 . S
H712 C705 0.961 . S
H713 C705 0.960 . S
H714 C706 0.930 . S
H715 C707 0.929 . S
H716 C724 0.929 . S
H717 C726 0.930 . S
H718 C728 0.930 . S
H719 C731 0.929 . S
H720 C734 0.930 . S
H721 C736 0.960 . S
H722 C736 0.960 . S
H723 C736 0.960 . S
C724 H716 0.929 . S
C724 C725 1.377 . S
C724 C726 1.384 . S
C725 C724 1.377 . S
C725 C731 1.390 . S
C726 H717 0.930 . S
C726 C724 1.384 . S
C726 C727 1.372 . S
C727 C726 1.372 . S
C727 C728 1.400 . S
C727 C732 1.490 . S
C728 H718 0.930 . S
C728 C727 1.400 . S
C728 C731 1.386 . S
H729 C745 0.930 . S
H730 C746 0.931 . S
C731 H719 0.929 . S
C731 C725 1.390 . S
C731 C728 1.386 . S
C732 C727 1.490 . S
C732 C734 1.395 . S
C732 C735 1.403 . S
H733 C739 0.930 . S
C734 H720 0.930 . S
C734 C732 1.395 . S
C734 C737 1.403 . S
C735 C732 1.403 . S
C735 C736 1.524 . S
C735 C739 1.400 . S
C736 H721 0.960 . S
C736 H722 0.960 . S
C736 H723 0.960 . S
C736 C735 1.524 . S
C737 C734 1.403 . S
C737 C738 1.392 . S
C737 C741 1.495 . S
C738 C737 1.392 . S
C738 C739 1.385 . S
C738 C740 1.478 . S
C739 H733 0.930 . S
C739 C735 1.400 . S
C739 C738 1.385 . S
C740 C738 1.478 . S
C740 C742 1.381 . S
C740 C746 1.383 . S
C741 C737 1.495 . S
C741 H747 0.959 . S
C741 H748 0.961 . S
C741 H749 0.960 . S
C742 C740 1.381 . S
C742 C743 1.394 . S
C742 H750 0.930 . S
C743 C742 1.394 . S
C743 C744 1.383 . S
C743 H751 0.929 . S
C744 C743 1.383 . S
C744 C745 1.377 . S
C745 H729 0.930 . S
C745 C744 1.377 . S
C745 C746 1.379 . S
C746 H730 0.931 . S
C746 C740 1.383 . S
C746 C745 1.379 . S
H747 C741 0.959 . S
H748 C741 0.961 . S
H749 C741 0.960 . S
H750 C742 0.930 . S
H751 C743 0.929 . S
H752 C760 0.929 . S
H753 C762 0.930 . S
H754 C764 0.930 . S
H755 C767 0.929 . S
H756 C770 0.930 . S
H757 C772 0.960 . S
H758 C772 0.960 . S
H759 C772 0.960 . S
C760 H752 0.929 . S
C760 C761 1.377 . S
C760 C762 1.384 . S
C761 C760 1.377 . S
C761 C767 1.390 . S
C762 H753 0.930 . S
C762 C760 1.384 . S
C762 C763 1.372 . S
C763 C762 1.372 . S
C763 C764 1.400 . S
C763 C768 1.490 . S
C764 H754 0.930 . S
C764 C763 1.400 . S
C764 C767 1.386 . S
H765 C781 0.930 . S
H766 C782 0.931 . S
C767 H755 0.929 . S
C767 C761 1.390 . S
C767 C764 1.386 . S
C768 C763 1.490 . S
C768 C770 1.395 . S
C768 C771 1.403 . S
H769 C775 0.930 . S
C770 H756 0.930 . S
C770 C768 1.395 . S
C770 C773 1.403 . S
C771 C768 1.403 . S
C771 C772 1.524 . S
C771 C775 1.400 . S
C772 H757 0.960 . S
C772 H758 0.960 . S
C772 H759 0.960 . S
C772 C771 1.524 . S
C773 C770 1.403 . S
C773 C774 1.392 . S
C773 C777 1.495 . S
C774 C773 1.392 . S
C774 C775 1.385 . S
C774 C776 1.478 . S
C775 H769 0.930 . S
C775 C771 1.400 . S
C775 C774 1.385 . S
C776 C774 1.478 . S
C776 C778 1.381 . S
C776 C782 1.383 . S
C777 C773 1.495 . S
C777 H783 0.959 . S
C777 H784 0.961 . S
C777 H785 0.960 . S
C778 C776 1.381 . S
C778 C779 1.394 . S
C778 H786 0.930 . S
C779 C778 1.394 . S
C779 C780 1.383 . S
C779 H787 0.929 . S
C780 C779 1.383 . S
C780 C781 1.377 . S
C781 H765 0.930 . S
C781 C780 1.377 . S
C781 C782 1.379 . S
C782 H766 0.931 . S
C782 C776 1.383 . S
C782 C781 1.379 . S
H783 C777 0.959 . S
H784 C777 0.961 . S
H785 C777 0.960 . S
H786 C778 0.930 . S
H787 C779 0.929 . S
H788 C796 0.929 . S
H789 C798 0.930 . S
H790 C800 0.930 . S
H791 C803 0.929 . S
H792 C806 0.930 . S
H793 C808 0.960 . S
H794 C808 0.960 . S
H795 C808 0.960 . S
C796 H788 0.929 . S
C796 C797 1.377 . S
C796 C798 1.384 . S
C797 C796 1.377 . S
C797 C803 1.390 . S
C798 H789 0.930 . S
C798 C796 1.384 . S
C798 C799 1.372 . S
C799 C798 1.372 . S
C799 C800 1.400 . S
C799 C804 1.490 . S
C800 H790 0.930 . S
C800 C799 1.400 . S
C800 C803 1.386 . S
H801 C817 0.930 . S
H802 C818 0.931 . S
C803 H791 0.929 . S
C803 C797 1.390 . S
C803 C800 1.386 . S
C804 C799 1.490 . S
C804 C806 1.395 . S
C804 C807 1.403 . S
H805 C811 0.930 . S
C806 H792 0.930 . S
C806 C804 1.395 . S
C806 C809 1.403 . S
C807 C804 1.403 . S
C807 C808 1.524 . S
C807 C811 1.400 . S
C808 H793 0.960 . S
C808 H794 0.960 . S
C808 H795 0.960 . S
C808 C807 1.524 . S
C809 C806 1.403 . S
C809 C810 1.392 . S
C809 C813 1.495 . S
C810 C809 1.392 . S
C810 C811 1.385 . S
C810 C812 1.478 . S
C811 H805 0.930 . S
C811 C807 1.400 . S
C811 C810 1.385 . S
C812 C810 1.478 . S
C812 C814 1.381 . S
C812 C818 1.383 . S
C813 C809 1.495 . S
C813 H819 0.959 . S
C813 H820 0.961 . S
C813 H821 0.960 . S
C814 C812 1.381 . S
C814 C815 1.394 . S
C814 H822 0.930 . S
C815 C814 1.394 . S
C815 C816 1.383 . S
C815 H823 0.929 . S
C816 C815 1.383 . S
C816 C817 1.377 . S
C817 H801 0.930 . S
C817 C816 1.377 . S
C817 C818 1.379 . S
C818 H802 0.931 . S
C818 C812 1.383 . S
C818 C817 1.379 . S
H819 C813 0.959 . S
H820 C813 0.961 . S
H821 C813 0.960 . S
H822 C814 0.930 . S
H823 C815 0.929 . S
H824 C832 0.929 . S
H825 C834 0.930 . S
H826 C836 0.930 . S
H827 C839 0.929 . S
H828 C842 0.930 . S
H829 C844 0.960 . S
H830 C844 0.960 . S
H831 C844 0.960 . S
C832 H824 0.929 . S
C832 C833 1.377 . S
C832 C834 1.384 . S
C833 C832 1.377 . S
C833 C839 1.390 . S
C834 H825 0.930 . S
C834 C832 1.384 . S
C834 C835 1.372 . S
C835 C834 1.372 . S
C835 C836 1.400 . S
C835 C840 1.490 . S
C836 H826 0.930 . S
C836 C835 1.400 . S
C836 C839 1.386 . S
H837 C853 0.930 . S
H838 C854 0.931 . S
C839 H827 0.929 . S
C839 C833 1.390 . S
C839 C836 1.386 . S
C840 C835 1.490 . S
C840 C842 1.395 . S
C840 C843 1.403 . S
H841 C847 0.930 . S
C842 H828 0.930 . S
C842 C840 1.395 . S
C842 C845 1.403 . S
C843 C840 1.403 . S
C843 C844 1.524 . S
C843 C847 1.400 . S
C844 H829 0.960 . S
C844 H830 0.960 . S
C844 H831 0.960 . S
C844 C843 1.524 . S
C845 C842 1.403 . S
C845 C846 1.392 . S
C845 C849 1.495 . S
C846 C845 1.392 . S
C846 C847 1.385 . S
C846 C848 1.478 . S
C847 H841 0.930 . S
C847 C843 1.400 . S
C847 C846 1.385 . S
C848 C846 1.478 . S
C848 C850 1.381 . S
C848 C854 1.383 . S
C849 C845 1.495 . S
C849 H855 0.959 . S
C849 H856 0.961 . S
C849 H857 0.960 . S
C850 C848 1.381 . S
C850 C851 1.394 . S
C850 H858 0.930 . S
C851 C850 1.394 . S
C851 C852 1.383 . S
C851 H859 0.929 . S
C852 C851 1.383 . S
C852 C853 1.377 . S
C853 H837 0.930 . S
C853 C852 1.377 . S
C853 C854 1.379 . S
C854 H838 0.931 . S
C854 C848 1.383 . S
C854 C853 1.379 . S
H855 C849 0.959 . S
H856 C849 0.961 . S
H857 C849 0.960 . S
H858 C850 0.930 . S
H859 C851 0.929 . S
H860 C868 0.929 . S
H861 C870 0.930 . S
H862 C872 0.930 . S
H863 C875 0.929 . S
H864 C878 0.930 . S
H865 C880 0.960 . S
H866 C880 0.960 . S
H867 C880 0.960 . S
C868 H860 0.929 . S
C868 C869 1.377 . S
C868 C870 1.384 . S
C869 C868 1.377 . S
C869 C875 1.390 . S
C870 H861 0.930 . S
C870 C868 1.384 . S
C870 C871 1.372 . S
C871 C870 1.372 . S
C871 C872 1.400 . S
C871 C876 1.490 . S
C872 H862 0.930 . S
C872 C871 1.400 . S
C872 C875 1.386 . S
H873 C889 0.930 . S
H874 C890 0.931 . S
C875 H863 0.929 . S
C875 C869 1.390 . S
C875 C872 1.386 . S
C876 C871 1.490 . S
C876 C878 1.395 . S
C876 C879 1.403 . S
H877 C883 0.930 . S
C878 H864 0.930 . S
C878 C876 1.395 . S
C878 C881 1.403 . S
C879 C876 1.403 . S
C879 C880 1.524 . S
C879 C883 1.400 . S
C880 H865 0.960 . S
C880 H866 0.960 . S
C880 H867 0.960 . S
C880 C879 1.524 . S
C881 C878 1.403 . S
C881 C882 1.392 . S
C881 C885 1.495 . S
C882 C881 1.392 . S
C882 C883 1.385 . S
C882 C884 1.478 . S
C883 H877 0.930 . S
C883 C879 1.400 . S
C883 C882 1.385 . S
C884 C882 1.478 . S
C884 C886 1.381 . S
C884 C890 1.383 . S
C885 C881 1.495 . S
C885 H891 0.959 . S
C885 H892 0.961 . S
C885 H893 0.960 . S
C886 C884 1.381 . S
C886 C887 1.394 . S
C886 H894 0.930 . S
C887 C886 1.394 . S
C887 C888 1.383 . S
C887 H895 0.929 . S
C888 C887 1.383 . S
C888 C889 1.377 . S
C889 H873 0.930 . S
C889 C888 1.377 . S
C889 C890 1.379 . S
C890 H874 0.931 . S
C890 C884 1.383 . S
C890 C889 1.379 . S
H891 C885 0.959 . S
H892 C885 0.961 . S
H893 C885 0.960 . S
H894 C886 0.930 . S
H895 C887 0.929 . S
H896 C904 0.929 . S
H897 C906 0.930 . S
H898 C908 0.930 . S
H899 C911 0.929 . S
H900 C914 0.930 . S
H901 C916 0.960 . S
H902 C916 0.960 . S
H903 C916 0.960 . S
C904 H896 0.929 . S
C904 C905 1.377 . S
C904 C906 1.384 . S
C905 C904 1.377 . S
C905 C911 1.390 . S
C906 H897 0.930 . S
C906 C904 1.384 . S
C906 C907 1.372 . S
C907 C906 1.372 . S
C907 C908 1.400 . S
C907 C912 1.490 . S
C908 H898 0.930 . S
C908 C907 1.400 . S
C908 C911 1.386 . S
H909 C925 0.930 . S
H910 C926 0.931 . S
C911 H899 0.929 . S
C911 C905 1.390 . S
C911 C908 1.386 . S
C912 C907 1.490 . S
C912 C914 1.395 . S
C912 C915 1.403 . S
H913 C919 0.930 . S
C914 H900 0.930 . S
C914 C912 1.395 . S
C914 C917 1.403 . S
C915 C912 1.403 . S
C915 C916 1.524 . S
C915 C919 1.400 . S
C916 H901 0.960 . S
C916 H902 0.960 . S
C916 H903 0.960 . S
C916 C915 1.524 . S
C917 C914 1.403 . S
C917 C918 1.392 . S
C917 C921 1.495 . S
C918 C917 1.392 . S
C918 C919 1.385 . S
C918 C920 1.478 . S
C919 H913 0.930 . S
C919 C915 1.400 . S
C919 C918 1.385 . S
C920 C918 1.478 . S
C920 C922 1.381 . S
C920 C926 1.383 . S
C921 C917 1.495 . S
C921 H927 0.959 . S
C921 H928 0.961 . S
C921 H929 0.960 . S
C922 C920 1.381 . S
C922 C923 1.394 . S
C922 H930 0.930 . S
C923 C922 1.394 . S
C923 C924 1.383 . S
C923 H931 0.929 . S
C924 C923 1.383 . S
C924 C925 1.377 . S
C925 H909 0.930 . S
C925 C924 1.377 . S
C925 C926 1.379 . S
C926 H910 0.931 . S
C926 C920 1.383 . S
C926 C925 1.379 . S
H927 C921 0.959 . S
H928 C921 0.961 . S
H929 C921 0.960 . S
H930 C922 0.930 . S
H931 C923 0.929 . S
H932 C940 0.929 . S
H933 C942 0.930 . S
H934 C944 0.930 . S
H935 C947 0.929 . S
H936 C950 0.930 . S
H937 C952 0.960 . S
H938 C952 0.960 . S
H939 C952 0.960 . S
C940 H932 0.929 . S
C940 C941 1.377 . S
C940 C942 1.384 . S
C941 C940 1.377 . S
C941 C947 1.390 . S
C942 H933 0.930 . S
C942 C940 1.384 . S
C942 C943 1.372 . S
C943 C942 1.372 . S
C943 C944 1.400 . S
C943 C948 1.490 . S
C944 H934 0.930 . S
C944 C943 1.400 . S
C944 C947 1.386 . S
H945 C961 0.930 . S
H946 C962 0.931 . S
C947 H935 0.929 . S
C947 C941 1.390 . S
C947 C944 1.386 . S
C948 C943 1.490 . S
C948 C950 1.395 . S
C948 C951 1.403 . S
H949 C955 0.930 . S
C950 H936 0.930 . S
C950 C948 1.395 . S
C950 C953 1.403 . S
C951 C948 1.403 . S
C951 C952 1.524 . S
C951 C955 1.400 . S
C952 H937 0.960 . S
C952 H938 0.960 . S
C952 H939 0.960 . S
C952 C951 1.524 . S
C953 C950 1.403 . S
C953 C954 1.392 . S
C953 C957 1.495 . S
C954 C953 1.392 . S
C954 C955 1.385 . S
C954 C956 1.478 . S
C955 H949 0.930 . S
C955 C951 1.400 . S
C955 C954 1.385 . S
C956 C954 1.478 . S
C956 C958 1.381 . S
C956 C962 1.383 . S
C957 C953 1.495 . S
C957 H963 0.959 . S
C957 H964 0.961 . S
C957 H965 0.960 . S
C958 C956 1.381 . S
C958 C959 1.394 . S
C958 H966 0.930 . S
C959 C958 1.394 . S
C959 C960 1.383 . S
C959 H967 0.929 . S
C960 C959 1.383 . S
C960 C961 1.377 . S
C961 H945 0.930 . S
C961 C960 1.377 . S
C961 C962 1.379 . S
C962 H946 0.931 . S
C962 C956 1.383 . S
C962 C961 1.379 . S
H963 C957 0.959 . S
H964 C957 0.961 . S
H965 C957 0.960 . S
H966 C958 0.930 . S
H967 C959 0.929 . S
H968 C976 0.929 . S
H969 C978 0.930 . S
H970 C980 0.930 . S
H971 C983 0.929 . S
H972 C986 0.930 . S
H973 C988 0.960 . S
H974 C988 0.960 . S
H975 C988 0.960 . S
C976 H968 0.929 . S
C976 C977 1.377 . S
C976 C978 1.384 . S
C977 C976 1.377 . S
C977 C983 1.390 . S
C978 H969 0.930 . S
C978 C976 1.384 . S
C978 C979 1.372 . S
C979 C978 1.372 . S
C979 C980 1.400 . S
C979 C984 1.490 . S
C980 H970 0.930 . S
C980 C979 1.400 . S
C980 C983 1.386 . S
H981 C997 0.930 . S
H982 C998 0.931 . S
C983 H971 0.929 . S
C983 C977 1.390 . S
C983 C980 1.386 . S
C984 C979 1.490 . S
C984 C986 1.395 . S
C984 C987 1.403 . S
H985 C991 0.930 . S
C986 H972 0.930 . S
C986 C984 1.395 . S
C986 C989 1.403 . S
C987 C984 1.403 . S
C987 C988 1.524 . S
C987 C991 1.400 . S
C988 H973 0.960 . S
C988 H974 0.960 . S
C988 H975 0.960 . S
C988 C987 1.524 . S
C989 C986 1.403 . S
C989 C990 1.392 . S
C989 C993 1.495 . S
C990 C989 1.392 . S
C990 C991 1.385 . S
C990 C992 1.478 . S
C991 H985 0.930 . S
C991 C987 1.400 . S
C991 C990 1.385 . S
C992 C990 1.478 . S
C992 C994 1.381 . S
C992 C998 1.383 . S
C993 C989 1.495 . S
C993 H999 0.959 . S
C993 H1000 0.961 . S
C993 H1001 0.960 . S
C994 C992 1.381 . S
C994 C995 1.394 . S
C994 H1002 0.930 . S
C995 C994 1.394 . S
C995 C996 1.383 . S
C995 H1003 0.929 . S
C996 C995 1.383 . S
C996 C997 1.377 . S
C997 H981 0.930 . S
C997 C996 1.377 . S
C997 C998 1.379 . S
C998 H982 0.931 . S
C998 C992 1.383 . S
C998 C997 1.379 . S
H999 C993 0.959 . S
H1000 C993 0.961 . S
H1001 C993 0.960 . S
H1002 C994 0.930 . S
H1003 C995 0.929 . S
H1004 C1012 0.929 . S
H1005 C1014 0.930 . S
H1006 C1016 0.930 . S
H1007 C1019 0.929 . S
H1008 C1022 0.930 . S
H1009 C1024 0.960 . S
H1010 C1024 0.960 . S
H1011 C1024 0.960 . S
C1012 H1004 0.929 . S
C1012 C1013 1.377 . S
C1012 C1014 1.384 . S
C1013 C1012 1.377 . S
C1013 C1019 1.390 . S
C1014 H1005 0.930 . S
C1014 C1012 1.384 . S
C1014 C1015 1.372 . S
C1015 C1014 1.372 . S
C1015 C1016 1.400 . S
C1015 C1020 1.490 . S
C1016 H1006 0.930 . S
C1016 C1015 1.400 . S
C1016 C1019 1.386 . S
H1017 C1033 0.930 . S
H1018 C1034 0.931 . S
C1019 H1007 0.929 . S
C1019 C1013 1.390 . S
C1019 C1016 1.386 . S
C1020 C1015 1.490 . S
C1020 C1022 1.395 . S
C1020 C1023 1.403 . S
H1021 C1027 0.930 . S
C1022 H1008 0.930 . S
C1022 C1020 1.395 . S
C1022 C1025 1.403 . S
C1023 C1020 1.403 . S
C1023 C1024 1.524 . S
C1023 C1027 1.400 . S
C1024 H1009 0.960 . S
C1024 H1010 0.960 . S
C1024 H1011 0.960 . S
C1024 C1023 1.524 . S
C1025 C1022 1.403 . S
C1025 C1026 1.392 . S
C1025 C1029 1.495 . S
C1026 C1025 1.392 . S
C1026 C1027 1.385 . S
C1026 C1028 1.478 . S
C1027 H1021 0.930 . S
C1027 C1023 1.400 . S
C1027 C1026 1.385 . S
C1028 C1026 1.478 . S
C1028 C1030 1.381 . S
C1028 C1034 1.383 . S
C1029 C1025 1.495 . S
C1029 H1035 0.959 . S
C1029 H1036 0.961 . S
C1029 H1037 0.960 . S
C1030 C1028 1.381 . S
C1030 C1031 1.394 . S
C1030 H1038 0.930 . S
C1031 C1030 1.394 . S
C1031 C1032 1.383 . S
C1031 H1039 0.929 . S
C1032 C1031 1.383 . S
C1032 C1033 1.377 . S
C1033 H1017 0.930 . S
C1033 C1032 1.377 . S
C1033 C1034 1.379 . S
C1034 H1018 0.931 . S
C1034 C1028 1.383 . S
C1034 C1033 1.379 . S
H1035 C1029 0.959 . S
H1036 C1029 0.961 . S
H1037 C1029 0.960 . S
H1038 C1030 0.930 . S
H1039 C1031 0.929 . S
H1040 C1048 0.929 . S
H1041 C1050 0.930 . S
H1042 C1052 0.930 . S
H1043 C1055 0.929 . S
H1044 C1058 0.930 . S
H1045 C1060 0.960 . S
H1046 C1060 0.960 . S
H1047 C1060 0.960 . S
C1048 H1040 0.929 . S
C1048 C1049 1.377 . S
C1048 C1050 1.384 . S
C1049 C1048 1.377 . S
C1049 C1055 1.390 . S
C1050 H1041 0.930 . S
C1050 C1048 1.384 . S
C1050 C1051 1.372 . S
C1051 C1050 1.372 . S
C1051 C1052 1.400 . S
C1051 C1056 1.490 . S
C1052 H1042 0.930 . S
C1052 C1051 1.400 . S
C1052 C1055 1.386 . S
H1053 C1069 0.930 . S
H1054 C1070 0.931 . S
C1055 H1043 0.929 . S
C1055 C1049 1.390 . S
C1055 C1052 1.386 . S
C1056 C1051 1.490 . S
C1056 C1058 1.395 . S
C1056 C1059 1.403 . S
H1057 C1063 0.930 . S
C1058 H1044 0.930 . S
C1058 C1056 1.395 . S
C1058 C1061 1.403 . S
C1059 C1056 1.403 . S
C1059 C1060 1.524 . S
C1059 C1063 1.400 . S
C1060 H1045 0.960 . S
C1060 H1046 0.960 . S
C1060 H1047 0.960 . S
C1060 C1059 1.524 . S
C1061 C1058 1.403 . S
C1061 C1062 1.392 . S
C1061 C1065 1.495 . S
C1062 C1061 1.392 . S
C1062 C1063 1.385 . S
C1062 C1064 1.478 . S
C1063 H1057 0.930 . S
C1063 C1059 1.400 . S
C1063 C1062 1.385 . S
C1064 C1062 1.478 . S
C1064 C1066 1.381 . S
C1064 C1070 1.383 . S
C1065 C1061 1.495 . S
C1065 H1071 0.959 . S
C1065 H1072 0.961 . S
C1065 H1073 0.960 . S
C1066 C1064 1.381 . S
C1066 C1067 1.394 . S
C1066 H1074 0.930 . S
C1067 C1066 1.394 . S
C1067 C1068 1.383 . S
C1067 H1075 0.929 . S
C1068 C1067 1.383 . S
C1068 C1069 1.377 . S
C1069 H1053 0.930 . S
C1069 C1068 1.377 . S
C1069 C1070 1.379 . S
C1070 H1054 0.931 . S
C1070 C1064 1.383 . S
C1070 C1069 1.379 . S
H1071 C1065 0.959 . S
H1072 C1065 0.961 . S
H1073 C1065 0.960 . S
H1074 C1066 0.930 . S
H1075 C1067 0.929 . S
H1076 C1084 0.929 . S
H1077 C1086 0.930 . S
H1078 C1088 0.930 . S
H1079 C1091 0.929 . S
H1080 C1094 0.930 . S
H1081 C1096 0.960 . S
H1082 C1096 0.960 . S
H1083 C1096 0.960 . S
C1084 H1076 0.929 . S
C1084 C1085 1.377 . S
C1084 C1086 1.384 . S
C1085 C1084 1.377 . S
C1085 C1091 1.390 . S
C1086 H1077 0.930 . S
C1086 C1084 1.384 . S
C1086 C1087 1.372 . S
C1087 C1086 1.372 . S
C1087 C1088 1.400 . S
C1087 C1092 1.490 . S
C1088 H1078 0.930 . S
C1088 C1087 1.400 . S
C1088 C1091 1.386 . S
H1089 C1105 0.930 . S
H1090 C1106 0.931 . S
C1091 H1079 0.929 . S
C1091 C1085 1.390 . S
C1091 C1088 1.386 . S
C1092 C1087 1.490 . S
C1092 C1094 1.395 . S
C1092 C1095 1.403 . S
H1093 C1099 0.930 . S
C1094 H1080 0.930 . S
C1094 C1092 1.395 . S
C1094 C1097 1.403 . S
C1095 C1092 1.403 . S
C1095 C1096 1.524 . S
C1095 C1099 1.400 . S
C1096 H1081 0.960 . S
C1096 H1082 0.960 . S
C1096 H1083 0.960 . S
C1096 C1095 1.524 . S
C1097 C1094 1.403 . S
C1097 C1098 1.392 . S
C1097 C1101 1.495 . S
C1098 C1097 1.392 . S
C1098 C1099 1.385 . S
C1098 C1100 1.478 . S
C1099 H1093 0.930 . S
C1099 C1095 1.400 . S
C1099 C1098 1.385 . S
C1100 C1098 1.478 . S
C1100 C1102 1.381 . S
C1100 C1106 1.383 . S
C1101 C1097 1.495 . S
C1101 H1107 0.959 . S
C1101 H1108 0.961 . S
C1101 H1109 0.960 . S
C1102 C1100 1.381 . S
C1102 C1103 1.394 . S
C1102 H1110 0.930 . S
C1103 C1102 1.394 . S
C1103 C1104 1.383 . S
C1103 H1111 0.929 . S
C1104 C1103 1.383 . S
C1104 C1105 1.377 . S
C1105 H1089 0.930 . S
C1105 C1104 1.377 . S
C1105 C1106 1.379 . S
C1106 H1090 0.931 . S
C1106 C1100 1.383 . S
C1106 C1105 1.379 . S
H1107 C1101 0.959 . S
H1108 C1101 0.961 . S
H1109 C1101 0.960 . S
H1110 C1102 0.930 . S
H1111 C1103 0.929 . S
H1112 C1120 0.929 . S
H1113 C1122 0.930 . S
H1114 C1124 0.930 . S
H1115 C1127 0.929 . S
H1116 C1130 0.930 . S
H1117 C1132 0.960 . S
H1118 C1132 0.960 . S
H1119 C1132 0.960 . S
C1120 H1112 0.929 . S
C1120 C1121 1.377 . S
C1120 C1122 1.384 . S
C1121 C1120 1.377 . S
C1121 C1127 1.390 . S
C1122 H1113 0.930 . S
C1122 C1120 1.384 . S
C1122 C1123 1.372 . S
C1123 C1122 1.372 . S
C1123 C1124 1.400 . S
C1123 C1128 1.490 . S
C1124 H1114 0.930 . S
C1124 C1123 1.400 . S
C1124 C1127 1.386 . S
H1125 C1141 0.930 . S
H1126 C1142 0.931 . S
C1127 H1115 0.929 . S
C1127 C1121 1.390 . S
C1127 C1124 1.386 . S
C1128 C1123 1.490 . S
C1128 C1130 1.395 . S
C1128 C1131 1.403 . S
H1129 C1135 0.930 . S
C1130 H1116 0.930 . S
C1130 C1128 1.395 . S
C1130 C1133 1.403 . S
C1131 C1128 1.403 . S
C1131 C1132 1.524 . S
C1131 C1135 1.400 . S
C1132 H1117 0.960 . S
C1132 H1118 0.960 . S
C1132 H1119 0.960 . S
C1132 C1131 1.524 . S
C1133 C1130 1.403 . S
C1133 C1134 1.392 . S
C1133 C1137 1.495 . S
C1134 C1133 1.392 . S
C1134 C1135 1.385 . S
C1134 C1136 1.478 . S
C1135 H1129 0.930 . S
C1135 C1131 1.400 . S
C1135 C1134 1.385 . S
C1136 C1134 1.478 . S
C1136 C1138 1.381 . S
C1136 C1142 1.383 . S
C1137 C1133 1.495 . S
C1137 H1143 0.959 . S
C1137 H1144 0.961 . S
C1137 H1145 0.960 . S
C1138 C1136 1.381 . S
C1138 C1139 1.394 . S
C1138 H1146 0.930 . S
C1139 C1138 1.394 . S
C1139 C1140 1.383 . S
C1139 H1147 0.929 . S
C1140 C1139 1.383 . S
C1140 C1141 1.377 . S
C1141 H1125 0.930 . S
C1141 C1140 1.377 . S
C1141 C1142 1.379 . S
C1142 H1126 0.931 . S
C1142 C1136 1.383 . S
C1142 C1141 1.379 . S
H1143 C1137 0.959 . S
H1144 C1137 0.961 . S
H1145 C1137 0.960 . S
H1146 C1138 0.930 . S
H1147 C1139 0.929 . S
H1148 C1156 0.929 . S
H1149 C1158 0.930 . S
H1150 C1160 0.930 . S
H1151 C1163 0.929 . S
H1152 C1166 0.930 . S
H1153 C1168 0.960 . S
H1154 C1168 0.960 . S
H1155 C1168 0.960 . S
C1156 H1148 0.929 . S
C1156 C1157 1.377 . S
C1156 C1158 1.384 . S
C1157 C1156 1.377 . S
C1157 C1163 1.390 . S
C1158 H1149 0.930 . S
C1158 C1156 1.384 . S
C1158 C1159 1.372 . S
C1159 C1158 1.372 . S
C1159 C1160 1.400 . S
C1159 C1164 1.490 . S
C1160 H1150 0.930 . S
C1160 C1159 1.400 . S
C1160 C1163 1.386 . S
H1161 C1177 0.930 . S
H1162 C1178 0.931 . S
C1163 H1151 0.929 . S
C1163 C1157 1.390 . S
C1163 C1160 1.386 . S
C1164 C1159 1.490 . S
C1164 C1166 1.395 . S
C1164 C1167 1.403 . S
H1165 C1171 0.930 . S
C1166 H1152 0.930 . S
C1166 C1164 1.395 . S
C1166 C1169 1.403 . S
C1167 C1164 1.403 . S
C1167 C1168 1.524 . S
C1167 C1171 1.400 . S
C1168 H1153 0.960 . S
C1168 H1154 0.960 . S
C1168 H1155 0.960 . S
C1168 C1167 1.524 . S
C1169 C1166 1.403 . S
C1169 C1170 1.392 . S
C1169 C1173 1.495 . S
C1170 C1169 1.392 . S
C1170 C1171 1.385 . S
C1170 C1172 1.478 . S
C1171 H1165 0.930 . S
C1171 C1167 1.400 . S
C1171 C1170 1.385 . S
C1172 C1170 1.478 . S
C1172 C1174 1.381 . S
C1172 C1178 1.383 . S
C1173 C1169 1.495 . S
C1173 H1179 0.959 . S
C1173 H1180 0.961 . S
C1173 H1181 0.960 . S
C1174 C1172 1.381 . S
C1174 C1175 1.394 . S
C1174 H1182 0.930 . S
C1175 C1174 1.394 . S
C1175 C1176 1.383 . S
C1175 H1183 0.929 . S
C1176 C1175 1.383 . S
C1176 C1177 1.377 . S
C1177 H1161 0.930 . S
C1177 C1176 1.377 . S
C1177 C1178 1.379 . S
C1178 H1162 0.931 . S
C1178 C1172 1.383 . S
C1178 C1177 1.379 . S
H1179 C1173 0.959 . S
H1180 C1173 0.961 . S
H1181 C1173 0.960 . S
H1182 C1174 0.930 . S
H1183 C1175 0.929 . S
H1184 C1192 0.929 . S
H1185 C1194 0.930 . S
H1186 C1196 0.930 . S
H1187 C1199 0.929 . S
H1188 C1202 0.930 . S
H1189 C1204 0.960 . S
H1190 C1204 0.960 . S
H1191 C1204 0.960 . S
C1192 H1184 0.929 . S
C1192 C1193 1.377 . S
C1192 C1194 1.384 . S
C1193 C1192 1.377 . S
C1193 C1199 1.390 . S
C1194 H1185 0.930 . S
C1194 C1192 1.384 . S
C1194 C1195 1.372 . S
C1195 C1194 1.372 . S
C1195 C1196 1.400 . S
C1195 C1200 1.490 . S
C1196 H1186 0.930 . S
C1196 C1195 1.400 . S
C1196 C1199 1.386 . S
H1197 C1213 0.930 . S
H1198 C1214 0.931 . S
C1199 H1187 0.929 . S
C1199 C1193 1.390 . S
C1199 C1196 1.386 . S
C1200 C1195 1.490 . S
C1200 C1202 1.395 . S
C1200 C1203 1.403 . S
H1201 C1207 0.930 . S
C1202 H1188 0.930 . S
C1202 C1200 1.395 . S
C1202 C1205 1.403 . S
C1203 C1200 1.403 . S
C1203 C1204 1.524 . S
C1203 C1207 1.400 . S
C1204 H1189 0.960 . S
C1204 H1190 0.960 . S
C1204 H1191 0.960 . S
C1204 C1203 1.524 . S
C1205 C1202 1.403 . S
C1205 C1206 1.392 . S
C1205 C1209 1.495 . S
C1206 C1205 1.392 . S
C1206 C1207 1.385 . S
C1206 C1208 1.478 . S
C1207 H1201 0.930 . S
C1207 C1203 1.400 . S
C1207 C1206 1.385 . S
C1208 C1206 1.478 . S
C1208 C1210 1.381 . S
C1208 C1214 1.383 . S
C1209 C1205 1.495 . S
C1209 H1215 0.959 . S
C1209 H1216 0.961 . S
C1209 H1217 0.960 . S
C1210 C1208 1.381 . S
C1210 C1211 1.394 . S
C1210 H1218 0.930 . S
C1211 C1210 1.394 . S
C1211 C1212 1.383 . S
C1211 H1219 0.929 . S
C1212 C1211 1.383 . S
C1212 C1213 1.377 . S
C1213 H1197 0.930 . S
C1213 C1212 1.377 . S
C1213 C1214 1.379 . S
C1214 H1198 0.931 . S
C1214 C1208 1.383 . S
C1214 C1213 1.379 . S
H1215 C1209 0.959 . S
H1216 C1209 0.961 . S
H1217 C1209 0.960 . S
H1218 C1210 0.930 . S
H1219 C1211 0.929 . S
H1220 C1228 0.929 . S
H1221 C1230 0.930 . S
H1222 C1232 0.930 . S
H1223 C1235 0.929 . S
H1224 C1238 0.930 . S
H1225 C1240 0.960 . S
H1226 C1240 0.960 . S
H1227 C1240 0.960 . S
C1228 H1220 0.929 . S
C1228 C1229 1.377 . S
C1228 C1230 1.384 . S
C1229 C1228 1.377 . S
C1229 C1235 1.390 . S
C1230 H1221 0.930 . S
C1230 C1228 1.384 . S
C1230 C1231 1.372 . S
C1231 C1230 1.372 . S
C1231 C1232 1.400 . S
C1231 C1236 1.490 . S
C1232 H1222 0.930 . S
C1232 C1231 1.400 . S
C1232 C1235 1.386 . S
H1233 C1249 0.930 . S
H1234 C1250 0.931 . S
C1235 H1223 0.929 . S
C1235 C1229 1.390 . S
C1235 C1232 1.386 . S
C1236 C1231 1.490 . S
C1236 C1238 1.395 . S
C1236 C1239 1.403 . S
H1237 C1243 0.930 . S
C1238 H1224 0.930 . S
C1238 C1236 1.395 . S
C1238 C1241 1.403 . S
C1239 C1236 1.403 . S
C1239 C1240 1.524 . S
C1239 C1243 1.400 . S
C1240 H1225 0.960 . S
C1240 H1226 0.960 . S
C1240 H1227 0.960 . S
C1240 C1239 1.524 . S
C1241 C1238 1.403 . S
C1241 C1242 1.392 . S
C1241 C1245 1.495 . S
C1242 C1241 1.392 . S
C1242 C1243 1.385 . S
C1242 C1244 1.478 . S
C1243 H1237 0.930 . S
C1243 C1239 1.400 . S
C1243 C1242 1.385 . S
C1244 C1242 1.478 . S
C1244 C1246 1.381 . S
C1244 C1250 1.383 . S
C1245 C1241 1.495 . S
C1245 H1251 0.959 . S
C1245 H1252 0.961 . S
C1245 H1253 0.960 . S
C1246 C1244 1.381 . S
C1246 C1247 1.394 . S
C1246 H1254 0.930 . S
C1247 C1246 1.394 . S
C1247 C1248 1.383 . S
C1247 H1255 0.929 . S
C1248 C1247 1.383 . S
C1248 C1249 1.377 . S
C1249 H1233 0.930 . S
C1249 C1248 1.377 . S
C1249 C1250 1.379 . S
C1250 H1234 0.931 . S
C1250 C1244 1.383 . S
C1250 C1249 1.379 . S
H1251 C1245 0.959 . S
H1252 C1245 0.961 . S
H1253 C1245 0.960 . S
H1254 C1246 0.930 . S
H1255 C1247 0.929 . S
H1256 C1264 0.929 . S
H1257 C1266 0.930 . S
H1258 C1268 0.930 . S
H1259 C1271 0.929 . S
H1260 C1274 0.930 . S
H1261 C1276 0.960 . S
H1262 C1276 0.960 . S
H1263 C1276 0.960 . S
C1264 H1256 0.929 . S
C1264 C1265 1.377 . S
C1264 C1266 1.384 . S
C1265 C1264 1.377 . S
C1265 C1271 1.390 . S
C1266 H1257 0.930 . S
C1266 C1264 1.384 . S
C1266 C1267 1.372 . S
C1267 C1266 1.372 . S
C1267 C1268 1.400 . S
C1267 C1272 1.490 . S
C1268 H1258 0.930 . S
C1268 C1267 1.400 . S
C1268 C1271 1.386 . S
H1269 C1285 0.930 . S
H1270 C1286 0.931 . S
C1271 H1259 0.929 . S
C1271 C1265 1.390 . S
C1271 C1268 1.386 . S
C1272 C1267 1.490 . S
C1272 C1274 1.395 . S
C1272 C1275 1.403 . S
H1273 C1279 0.930 . S
C1274 H1260 0.930 . S
C1274 C1272 1.395 . S
C1274 C1277 1.403 . S
C1275 C1272 1.403 . S
C1275 C1276 1.524 . S
C1275 C1279 1.400 . S
C1276 H1261 0.960 . S
C1276 H1262 0.960 . S
C1276 H1263 0.960 . S
C1276 C1275 1.524 . S
C1277 C1274 1.403 . S
C1277 C1278 1.392 . S
C1277 C1281 1.495 . S
C1278 C1277 1.392 . S
C1278 C1279 1.385 . S
C1278 C1280 1.478 . S
C1279 H1273 0.930 . S
C1279 C1275 1.400 . S
C1279 C1278 1.385 . S
C1280 C1278 1.478 . S
C1280 C1282 1.381 . S
C1280 C1286 1.383 . S
C1281 C1277 1.495 . S
C1281 H1287 0.959 . S
C1281 H1288 0.961 . S
C1281 H1289 0.960 . S
C1282 C1280 1.381 . S
C1282 C1283 1.394 . S
C1282 H1290 0.930 . S
C1283 C1282 1.394 . S
C1283 C1284 1.383 . S
C1283 H1291 0.929 . S
C1284 C1283 1.383 . S
C1284 C1285 1.377 . S
C1285 H1269 0.930 . S
C1285 C1284 1.377 . S
C1285 C1286 1.379 . S
C1286 H1270 0.931 . S
C1286 C1280 1.383 . S
C1286 C1285 1.379 . S
H1287 C1281 0.959 . S
H1288 C1281 0.961 . S
H1289 C1281 0.960 . S
H1290 C1282 0.930 . S
H1291 C1283 0.929 . S
H1292 C1300 0.929 . S
H1293 C1302 0.930 . S
H1294 C1304 0.930 . S
H1295 C1307 0.929 . S
H1296 C1310 0.930 . S
H1297 C1312 0.960 . S
H1298 C1312 0.960 . S
H1299 C1312 0.960 . S
C1300 H1292 0.929 . S
C1300 C1301 1.377 . S
C1300 C1302 1.384 . S
C1301 C1300 1.377 . S
C1301 C1307 1.390 . S
C1302 H1293 0.930 . S
C1302 C1300 1.384 . S
C1302 C1303 1.372 . S
C1303 C1302 1.372 . S
C1303 C1304 1.400 . S
C1303 C1308 1.490 . S
C1304 H1294 0.930 . S
C1304 C1303 1.400 . S
C1304 C1307 1.386 . S
H1305 C1321 0.930 . S
H1306 C1322 0.931 . S
C1307 H1295 0.929 . S
C1307 C1301 1.390 . S
C1307 C1304 1.386 . S
C1308 C1303 1.490 . S
C1308 C1310 1.395 . S
C1308 C1311 1.403 . S
H1309 C1315 0.930 . S
C1310 H1296 0.930 . S
C1310 C1308 1.395 . S
C1310 C1313 1.403 . S
C1311 C1308 1.403 . S
C1311 C1312 1.524 . S
C1311 C1315 1.400 . S
C1312 H1297 0.960 . S
C1312 H1298 0.960 . S
C1312 H1299 0.960 . S
C1312 C1311 1.524 . S
C1313 C1310 1.403 . S
C1313 C1314 1.392 . S
C1313 C1317 1.495 . S
C1314 C1313 1.392 . S
C1314 C1315 1.385 . S
C1314 C1316 1.478 . S
C1315 H1309 0.930 . S
C1315 C1311 1.400 . S
C1315 C1314 1.385 . S
C1316 C1314 1.478 . S
C1316 C1318 1.381 . S
C1316 C1322 1.383 . S
C1317 C1313 1.495 . S
C1317 H1323 0.959 . S
C1317 H1324 0.961 . S
C1317 H1325 0.960 . S
C1318 C1316 1.381 . S
C1318 C1319 1.394 . S
C1318 H1326 0.930 . S
C1319 C1318 1.394 . S
C1319 C1320 1.383 . S
C1319 H1327 0.929 . S
C1320 C1319 1.383 . S
C1320 C1321 1.377 . S
C1321 H1305 0.930 . S
C1321 C1320 1.377 . S
C1321 C1322 1.379 . S
C1322 H1306 0.931 . S
C1322 C1316 1.383 . S
C1322 C1321 1.379 . S
H1323 C1317 0.959 . S
H1324 C1317 0.961 . S
H1325 C1317 0.960 . S
H1326 C1318 0.930 . S
H1327 C1319 0.929 . S
H1328 C1336 0.929 . S
H1329 C1338 0.930 . S
H1330 C1340 0.930 . S
H1331 C1343 0.929 . S
H1332 C1346 0.930 . S
H1333 C1348 0.960 . S
H1334 C1348 0.960 . S
H1335 C1348 0.960 . S
C1336 H1328 0.929 . S
C1336 C1337 1.377 . S
C1336 C1338 1.384 . S
C1337 C1336 1.377 . S
C1337 C1343 1.390 . S
C1338 H1329 0.930 . S
C1338 C1336 1.384 . S
C1338 C1339 1.372 . S
C1339 C1338 1.372 . S
C1339 C1340 1.400 . S
C1339 C1344 1.490 . S
C1340 H1330 0.930 . S
C1340 C1339 1.400 . S
C1340 C1343 1.386 . S
H1341 C1357 0.930 . S
H1342 C1358 0.931 . S
C1343 H1331 0.929 . S
C1343 C1337 1.390 . S
C1343 C1340 1.386 . S
C1344 C1339 1.490 . S
C1344 C1346 1.395 . S
C1344 C1347 1.403 . S
H1345 C1351 0.930 . S
C1346 H1332 0.930 . S
C1346 C1344 1.395 . S
C1346 C1349 1.403 . S
C1347 C1344 1.403 . S
C1347 C1348 1.524 . S
C1347 C1351 1.400 . S
C1348 H1333 0.960 . S
C1348 H1334 0.960 . S
C1348 H1335 0.960 . S
C1348 C1347 1.524 . S
C1349 C1346 1.403 . S
C1349 C1350 1.392 . S
C1349 C1353 1.495 . S
C1350 C1349 1.392 . S
C1350 C1351 1.385 . S
C1350 C1352 1.478 . S
C1351 H1345 0.930 . S
C1351 C1347 1.400 . S
C1351 C1350 1.385 . S
C1352 C1350 1.478 . S
C1352 C1354 1.381 . S
C1352 C1358 1.383 . S
C1353 C1349 1.495 . S
C1353 H1359 0.959 . S
C1353 H1360 0.961 . S
C1353 H1361 0.960 . S
C1354 C1352 1.381 . S
C1354 C1355 1.394 . S
C1354 H1362 0.930 . S
C1355 C1354 1.394 . S
C1355 C1356 1.383 . S
C1355 H1363 0.929 . S
C1356 C1355 1.383 . S
C1356 C1357 1.377 . S
C1357 H1341 0.930 . S
C1357 C1356 1.377 . S
C1357 C1358 1.379 . S
C1358 H1342 0.931 . S
C1358 C1352 1.383 . S
C1358 C1357 1.379 . S
H1359 C1353 0.959 . S
H1360 C1353 0.961 . S
H1361 C1353 0.960 . S
H1362 C1354 0.930 . S
H1363 C1355 0.929 . S
H1364 C1372 0.929 . S
H1365 C1374 0.930 . S
H1366 C1376 0.930 . S
H1367 C1379 0.929 . S
H1368 C1382 0.930 . S
H1369 C1384 0.960 . S
H1370 C1384 0.960 . S
H1371 C1384 0.960 . S
C1372 H1364 0.929 . S
C1372 C1373 1.377 . S
C1372 C1374 1.384 . S
C1373 C1372 1.377 . S
C1373 C1379 1.390 . S
C1374 H1365 0.930 . S
C1374 C1372 1.384 . S
C1374 C1375 1.372 . S
C1375 C1374 1.372 . S
C1375 C1376 1.400 . S
C1375 C1380 1.490 . S
C1376 H1366 0.930 . S
C1376 C1375 1.400 . S
C1376 C1379 1.386 . S
H1377 C1393 0.930 . S
H1378 C1394 0.931 . S
C1379 H1367 0.929 . S
C1379 C1373 1.390 . S
C1379 C1376 1.386 . S
C1380 C1375 1.490 . S
C1380 C1382 1.395 . S
C1380 C1383 1.403 . S
H1381 C1387 0.930 . S
C1382 H1368 0.930 . S
C1382 C1380 1.395 . S
C1382 C1385 1.403 . S
C1383 C1380 1.403 . S
C1383 C1384 1.524 . S
C1383 C1387 1.400 . S
C1384 H1369 0.960 . S
C1384 H1370 0.960 . S
C1384 H1371 0.960 . S
C1384 C1383 1.524 . S
C1385 C1382 1.403 . S
C1385 C1386 1.392 . S
C1385 C1389 1.495 . S
C1386 C1385 1.392 . S
C1386 C1387 1.385 . S
C1386 C1388 1.478 . S
C1387 H1381 0.930 . S
C1387 C1383 1.400 . S
C1387 C1386 1.385 . S
C1388 C1386 1.478 . S
C1388 C1390 1.381 . S
C1388 C1394 1.383 . S
C1389 C1385 1.495 . S
C1389 H1395 0.959 . S
C1389 H1396 0.961 . S
C1389 H1397 0.960 . S
C1390 C1388 1.381 . S
C1390 C1391 1.394 . S
C1390 H1398 0.930 . S
C1391 C1390 1.394 . S
C1391 C1392 1.383 . S
C1391 H1399 0.929 . S
C1392 C1391 1.383 . S
C1392 C1393 1.377 . S
C1393 H1377 0.930 . S
C1393 C1392 1.377 . S
C1393 C1394 1.379 . S
C1394 H1378 0.931 . S
C1394 C1388 1.383 . S
C1394 C1393 1.379 . S
H1395 C1389 0.959 . S
H1396 C1389 0.961 . S
H1397 C1389 0.960 . S
H1398 C1390 0.930 . S
H1399 C1391 0.929 . S
H1400 C1408 0.929 . S
H1401 C1410 0.930 . S
H1402 C1412 0.930 . S
H1403 C1415 0.929 . S
H1404 C1418 0.930 . S
H1405 C1420 0.960 . S
H1406 C1420 0.960 . S
H1407 C1420 0.960 . S
C1408 H1400 0.929 . S
C1408 C1409 1.377 . S
C1408 C1410 1.384 . S
C1409 C1408 1.377 . S
C1409 C1415 1.390 . S
C1410 H1401 0.930 . S
C1410 C1408 1.384 . S
C1410 C1411 1.372 . S
C1411 C1410 1.372 . S
C1411 C1412 1.400 . S
C1411 C1416 1.490 . S
C1412 H1402 0.930 . S
C1412 C1411 1.400 . S
C1412 C1415 1.386 . S
H1413 C1429 0.930 . S
H1414 C1430 0.931 . S
C1415 H1403 0.929 . S
C1415 C1409 1.390 . S
C1415 C1412 1.386 . S
C1416 C1411 1.490 . S
C1416 C1418 1.395 . S
C1416 C1419 1.403 . S
H1417 C1423 0.930 . S
C1418 H1404 0.930 . S
C1418 C1416 1.395 . S
C1418 C1421 1.403 . S
C1419 C1416 1.403 . S
C1419 C1420 1.524 . S
C1419 C1423 1.400 . S
C1420 H1405 0.960 . S
C1420 H1406 0.960 . S
C1420 H1407 0.960 . S
C1420 C1419 1.524 . S
C1421 C1418 1.403 . S
C1421 C1422 1.392 . S
C1421 C1425 1.495 . S
C1422 C1421 1.392 . S
C1422 C1423 1.385 . S
C1422 C1424 1.478 . S
C1423 H1417 0.930 . S
C1423 C1419 1.400 . S
C1423 C1422 1.385 . S
C1424 C1422 1.478 . S
C1424 C1426 1.381 . S
C1424 C1430 1.383 . S
C1425 C1421 1.495 . S
C1425 H1431 0.959 . S
C1425 H1432 0.961 . S
C1425 H1433 0.960 . S
C1426 C1424 1.381 . S
C1426 C1427 1.394 . S
C1426 H1434 0.930 . S
C1427 C1426 1.394 . S
C1427 C1428 1.383 . S
C1427 H1435 0.929 . S
C1428 C1427 1.383 . S
C1428 C1429 1.377 . S
C1429 H1413 0.930 . S
C1429 C1428 1.377 . S
C1429 C1430 1.379 . S
C1430 H1414 0.931 . S
C1430 C1424 1.383 . S
C1430 C1429 1.379 . S
H1431 C1425 0.959 . S
H1432 C1425 0.961 . S
H1433 C1425 0.960 . S
H1434 C1426 0.930 . S
H1435 C1427 0.929 . S
H1436 C1444 0.929 . S
H1437 C1446 0.930 . S
H1438 C1448 0.930 . S
H1439 C1451 0.929 . S
H1440 C1454 0.930 . S
H1441 C1456 0.960 . S
H1442 C1456 0.960 . S
H1443 C1456 0.960 . S
C1444 H1436 0.929 . S
C1444 C1445 1.377 . S
C1444 C1446 1.384 . S
C1445 C1444 1.377 . S
C1445 C1451 1.390 . S
C1446 H1437 0.930 . S
C1446 C1444 1.384 . S
C1446 C1447 1.372 . S
C1447 C1446 1.372 . S
C1447 C1448 1.400 . S
C1447 C1452 1.490 . S
C1448 H1438 0.930 . S
C1448 C1447 1.400 . S
C1448 C1451 1.386 . S
H1449 C1465 0.930 . S
H1450 C1466 0.931 . S
C1451 H1439 0.929 . S
C1451 C1445 1.390 . S
C1451 C1448 1.386 . S
C1452 C1447 1.490 . S
C1452 C1454 1.395 . S
C1452 C1455 1.403 . S
H1453 C1459 0.930 . S
C1454 H1440 0.930 . S
C1454 C1452 1.395 . S
C1454 C1457 1.403 . S
C1455 C1452 1.403 . S
C1455 C1456 1.524 . S
C1455 C1459 1.400 . S
C1456 H1441 0.960 . S
C1456 H1442 0.960 . S
C1456 H1443 0.960 . S
C1456 C1455 1.524 . S
C1457 C1454 1.403 . S
C1457 C1458 1.392 . S
C1457 C1461 1.495 . S
C1458 C1457 1.392 . S
C1458 C1459 1.385 . S
C1458 C1460 1.478 . S
C1459 H1453 0.930 . S
C1459 C1455 1.400 . S
C1459 C1458 1.385 . S
C1460 C1458 1.478 . S
C1460 C1462 1.381 . S
C1460 C1466 1.383 . S
C1461 C1457 1.495 . S
C1461 H1467 0.959 . S
C1461 H1468 0.961 . S
C1461 H1469 0.960 . S
C1462 C1460 1.381 . S
C1462 C1463 1.394 . S
C1462 H1470 0.930 . S
C1463 C1462 1.394 . S
C1463 C1464 1.383 . S
C1463 H1471 0.929 . S
C1464 C1463 1.383 . S
C1464 C1465 1.377 . S
C1465 H1449 0.930 . S
C1465 C1464 1.377 . S
C1465 C1466 1.379 . S
C1466 H1450 0.931 . S
C1466 C1460 1.383 . S
C1466 C1465 1.379 . S
H1467 C1461 0.959 . S
H1468 C1461 0.961 . S
H1469 C1461 0.960 . S
H1470 C1462 0.930 . S
H1471 C1463 0.929 . S
C636 C350 1.576 . S
C617 C15 1.581 . S
C672 C389 1.592 . S
C653 C55 1.604 . S
C708 C365 1.593 . S
C689 C101 1.613 . S
C744 C404 1.638 . S
C725 C141 1.653 . S
C780 C452 1.543 . S
C761 C2 1.533 . S
C816 C485 1.538 . S
C797 C61 1.515 . S
C833 C95 1.669 . S
C852 C542 1.669 . S
C888 C590 1.537 . S
C869 C135 1.535 . S
C924 C437 1.540 . S
C905 C42 1.519 . S
C941 C82 1.532 . S
C960 C500 1.550 . S
C996 C557 1.649 . S
C977 C122 1.673 . S
C1032 C605 1.544 . S
C1013 C21 1.528 . S
C1049 C162 1.648 . S
C1068 C398 1.633 . S
C1104 C341 1.603 . S
C1085 C221 1.621 . S
C1121 C255 1.603 . S
C1140 C413 1.599 . S
C1157 C282 1.562 . S
C1176 C356 1.574 . S
C1212 C533 1.657 . S
C1193 C181 1.688 . S
C1248 C596 1.550 . S
C1229 C202 1.546 . S
C1284 C461 1.554 . S
C1265 C242 1.550 . S
C1301 C301 1.527 . S
C1320 C509 1.547 . S
C1356 C548 1.674 . S
C1337 C215 1.675 . S
C1392 C581 1.542 . S
C1373 C261 1.540 . S
C1428 C446 1.514 . S
C1409 C295 1.552 . S
C1445 C175 1.541 . S
C1464 C494 1.514 . S
