# Generated by pormake.
# Topology zzz, (3,6)-cn, num edge types: 1
# Building blocks:
#     Node 0, Type 0, BuildingBlock: CUQRIR_clean_linker_1, # of connection points: 3
#     Node 1, Type 0, BuildingBlock: CUQRIR_clean_linker_1, # of connection points: 3
#     Node 2, Type 0, BuildingBlock: CUQRIR_clean_linker_1, # of connection points: 3
#     Node 3, Type 0, BuildingBlock: CUQRIR_clean_linker_1, # of connection points: 3
#     Node 4, Type 0, BuildingBlock: CUQRIR_clean_linker_1, # of connection points: 3
#     Node 5, Type 0, BuildingBlock: CUQRIR_clean_linker_1, # of connection points: 3
#     Node 6, Type 0, BuildingBlock: CUQRIR_clean_linker_1, # of connection points: 3
#     Node 7, Type 0, BuildingBlock: CUQRIR_clean_linker_1, # of connection points: 3
#     Node 8, Type 1, BuildingBlock: KUMBUR_clean_sbu_1, # of connection points: 6
#     Node 9, Type 1, BuildingBlock: KUMBUR_clean_sbu_1, # of connection points: 6
#     Node 10, Type 1, BuildingBlock: KUMBUR_clean_sbu_1, # of connection points: 6
#     Node 11, Type 1, BuildingBlock: KUMBUR_clean_sbu_1, # of connection points: 6
#     Edge 12, Type (0, 1), BuildingBlock: CIFDUS_clean_linker_0, # of connection points: 2
#     Edge 13, Type (0, 1), BuildingBlock: CIFDUS_clean_linker_0, # of connection points: 2
#     Edge 14, Type (0, 1), BuildingBlock: CIFDUS_clean_linker_0, # of connection points: 2
#     Edge 15, Type (0, 1), BuildingBlock: CIFDUS_clean_linker_0, # of connection points: 2
#     Edge 16, Type (0, 1), BuildingBlock: CIFDUS_clean_linker_0, # of connection points: 2
#     Edge 17, Type (0, 1), BuildingBlock: CIFDUS_clean_linker_0, # of connection points: 2
#     Edge 18, Type (0, 1), BuildingBlock: CIFDUS_clean_linker_0, # of connection points: 2
#     Edge 19, Type (0, 1), BuildingBlock: CIFDUS_clean_linker_0, # of connection points: 2
#     Edge 20, Type (0, 1), BuildingBlock: CIFDUS_clean_linker_0, # of connection points: 2
#     Edge 21, Type (0, 1), BuildingBlock: CIFDUS_clean_linker_0, # of connection points: 2
#     Edge 22, Type (0, 1), BuildingBlock: CIFDUS_clean_linker_0, # of connection points: 2
#     Edge 23, Type (0, 1), BuildingBlock: CIFDUS_clean_linker_0, # of connection points: 2
#     Edge 24, Type (0, 1), BuildingBlock: CIFDUS_clean_linker_0, # of connection points: 2
#     Edge 25, Type (0, 1), BuildingBlock: CIFDUS_clean_linker_0, # of connection points: 2
#     Edge 26, Type (0, 1), BuildingBlock: CIFDUS_clean_linker_0, # of connection points: 2
#     Edge 27, Type (0, 1), BuildingBlock: CIFDUS_clean_linker_0, # of connection points: 2
#     Edge 28, Type (0, 1), BuildingBlock: CIFDUS_clean_linker_0, # of connection points: 2
#     Edge 29, Type (0, 1), BuildingBlock: CIFDUS_clean_linker_0, # of connection points: 2
#     Edge 30, Type (0, 1), BuildingBlock: CIFDUS_clean_linker_0, # of connection points: 2
#     Edge 31, Type (0, 1), BuildingBlock: CIFDUS_clean_linker_0, # of connection points: 2
#     Edge 32, Type (0, 1), BuildingBlock: CIFDUS_clean_linker_0, # of connection points: 2
#     Edge 33, Type (0, 1), BuildingBlock: CIFDUS_clean_linker_0, # of connection points: 2
#     Edge 34, Type (0, 1), BuildingBlock: CIFDUS_clean_linker_0, # of connection points: 2
#     Edge 35, Type (0, 1), BuildingBlock: CIFDUS_clean_linker_0, # of connection points: 2
# Relax obj value: 0.252
# Max RMSD: 0.124
# Mean RMSD: 0.092
data_MOF--net-zzz--node1-KUMBUR_clean_sbu_1--node2-CUQRIR_clean_linker_1--edge1-CIFDUS_clean_linker_0
_symmetry_space_group_name_H-M    P1
_symmetry_Int_Tables_number       1
_symmetry_cell_setting            triclinic
loop_
_symmetry_equiv_pos_as_xyz
'x, y, z'
_cell_length_a     40.20881
_cell_length_b     40.314282
_cell_length_c     12.415042
_cell_angle_alpha  89.567182
_cell_angle_beta   90.23502
_cell_angle_gamma 90.329506
loop_
_atom_site_label
_atom_site_type_symbol
_atom_site_fract_x
_atom_site_fract_y
_atom_site_fract_z
_atom_type_partial_charge
C0 C 0.75849 0.55268 0.352 0.0
N1 N 0.79078 0.54122 0.35817 0.0
N2 N 0.74407 0.54683 0.25247 0.0
C3 C 0.74033 0.56733 0.44461 0.0
C4 C 0.76934 0.53267 0.19822 0.0
N5 N 0.79663 0.52854 0.26129 0.0
C6 C 0.76852 0.52552 0.07914 0.0
H7 H 0.75093 0.5585 0.5223 0.0
H8 H 0.71359 0.56066 0.43937 0.0
H9 H 0.7427 0.59474 0.44064 0.0
H10 H 0.75305 0.54409 0.03585 0.0
H11 H 0.75751 0.50064 0.06528 0.0
H12 H 0.794 0.52597 0.04503 0.0
C13 C 0.02765 0.76236 0.33071 0.0
N14 N 1.0084 0.78863 0.36331 0.0
N15 N 1.00935 0.73838 0.27783 0.0
C16 C 0.06435 0.75994 0.35052 0.0
C17 C 0.97819 0.75114 0.28162 0.0
N18 N 0.97779 0.78203 0.32554 0.0
C19 C 0.94813 0.73537 0.22887 0.0
H20 H 0.07233 0.73363 0.35106 0.0
H21 H 0.0711 0.7717 0.42818 0.0
H22 H 0.07775 0.77321 0.28506 0.0
H23 H 0.9412 0.71249 0.27366 0.0
H24 H 0.95385 0.72857 0.14451 0.0
H25 H 0.92616 0.75187 0.22984 0.0
C26 C 0.80017 1.0179 0.3846 0.0
N27 N 0.77419 0.03692 0.42145 0.0
N28 N 0.8239 0.03655 0.32982 0.0
C29 C 0.80177 0.98108 0.39986 0.0
C30 C 0.81073 0.06751 0.33508 0.0
N31 N 0.7808 0.06751 0.38579 0.0
C32 C 0.82481 0.0977 0.27786 0.0
H33 H 0.82794 0.97248 0.39849 0.0
H34 H 0.78779 0.96891 0.33368 0.0
H35 H 0.78994 0.97376 0.47715 0.0
H36 H 0.83212 0.09145 0.19438 0.0
H37 H 0.84701 0.10673 0.32215 0.0
H38 H 0.80713 0.11868 0.27518 0.0
C39 C 0.56279 0.80275 0.37825 0.0
N40 N 0.56019 0.7692 0.36086 0.0
N41 N 0.56824 0.82061 0.2838 0.0
C42 C 0.55977 0.81736 0.4872 0.0
C43 C 0.5707 0.7957 0.21156 0.0
N44 N 0.56358 0.76556 0.25538 0.0
C45 C 0.57838 0.80076 0.09353 0.0
H46 H 0.53539 0.82946 0.49181 0.0
H47 H 0.5802 0.83546 0.50028 0.0
H48 H 0.56091 0.79799 0.55103 0.0
H49 H 0.59094 0.8249 0.07842 0.0
H50 H 0.55502 0.79951 0.04572 0.0
H51 H 0.5949 0.78074 0.06511 0.0
C52 C 0.30692 0.52406 0.09483 0.0
N53 N 0.27405 0.53382 0.10591 0.0
N54 N 0.32492 0.52678 0.19003 0.0
C55 C 0.32189 0.51339 0.99067 0.0
C56 C 0.30184 0.53838 0.25823 0.0
N57 N 0.27204 0.54279 0.20875 0.0
C58 C 0.30898 0.54808 0.37386 0.0
H59 H 0.31877 0.48615 0.98288 0.0
H60 H 0.3489 0.51922 0.98906 0.0
H61 H 0.30911 0.52557 0.9217 0.0
H62 H 0.30258 0.57453 0.38603 0.0
H63 H 0.33519 0.54431 0.39838 0.0
H64 H 0.29321 0.53298 0.42872 0.0
C65 C 0.04403 0.30905 0.08493 0.0
N66 N 0.04409 0.27499 0.09883 0.0
N67 N 0.04971 0.32556 0.18078 0.0
C68 C 0.03891 0.32592 0.97864 0.0
C69 C 0.05456 0.30011 0.25029 0.0
N70 N 0.05007 0.27022 0.20303 0.0
C71 C 0.06158 0.30423 0.36887 0.0
H72 H 0.0523 0.3123 0.91486 0.0
H73 H 0.04781 0.35199 0.98151 0.0
H74 H 1.01208 0.32541 0.95774 0.0
H75 H 0.07504 0.3278 0.3848 0.0
H76 H 0.07672 0.28327 0.39976 0.0
H77 H 0.03774 0.30422 0.41361 0.0
C78 C 0.2501 0.06479 0.14263 0.0
N79 N 0.27338 0.04577 0.0907 0.0
N80 N 0.22448 0.0459 0.18493 0.0
C81 C 0.25289 0.10161 0.15513 0.0
C82 C 0.23355 1.01473 0.15716 0.0
N83 N 0.26328 1.0144 0.10507 0.0
C84 C 0.2171 0.98378 0.20172 0.0
H85 H 0.26766 0.10712 0.22855 0.0
H86 H 0.22792 0.11278 0.16418 0.0
H87 H 0.26582 0.11278 0.08475 0.0
H88 H 0.19208 0.98082 0.16524 0.0
H89 H 0.2141 0.98591 0.29026 0.0
H90 H 0.23142 0.96107 0.18365 0.0
C91 C 0.52058 0.26616 0.16484 0.0
N92 N 0.53515 0.29661 0.14356 0.0
N93 N 0.53266 0.25201 0.25874 0.0
C94 C 0.49619 0.24945 0.09143 0.0
C95 C 0.55489 0.27501 0.2927 0.0
N96 N 0.55679 0.30118 0.22372 0.0
C97 C 0.57419 0.27214 0.39678 0.0
H98 H 0.49726 0.22209 0.10139 0.0
H99 H 0.50111 0.25646 1.00632 0.0
H100 H 0.47075 0.25773 0.11217 0.0
H101 H 0.59748 0.25826 0.38231 0.0
H102 H 0.55959 0.25823 0.45814 0.0
H103 H 0.58069 0.29695 0.42895 0.0
Tb104 Tb 0.98656 0.04253 0.65711 0.0
C105 C 0.12956 0.04116 0.87875 0.0
N106 N 0.1142 1.01928 0.8124 0.0
C107 C 0.16653 1.00713 0.72921 0.0
C108 C 0.16389 0.04787 0.87059 0.0
C109 C 0.13247 1.00103 0.74165 0.0
C110 C 0.18224 0.03104 0.79282 0.0
C111 C 0.12634 0.07571 0.0369 0.0
C112 C 0.11121 0.05463 0.96091 0.0
C113 C 0.16005 0.08432 0.02519 0.0
C114 C 0.17889 0.0702 0.94265 0.0
Tb115 Tb 0.05784 1.01327 0.83416 0.0
N116 N 0.07871 0.04584 0.96891 0.0
C117 C 0.10723 0.08697 0.12311 0.0
C118 C 0.06079 0.05435 0.05776 0.0
C119 C 0.07444 0.07583 0.13447 0.0
H120 H 0.12066 0.98196 0.69377 0.0
H121 H 0.0598 0.08374 0.20244 0.0
H122 H 0.93344 0.99806 0.80049 0.0
H123 H 1.01406 0.04554 0.2313 0.0
H124 H 0.03543 0.04592 0.0654 0.0
H125 H 0.11784 0.10337 0.18303 0.0
H126 H 1.01833 0.06521 0.41572 0.0
H127 H 0.18069 0.99321 0.67115 0.0
H128 H 0.172 0.10092 0.08171 0.0
H129 H 0.20517 0.07601 0.93705 0.0
H130 H 0.88934 0.95651 0.76755 0.0
H131 H 0.20869 0.03548 0.78381 0.0
H132 H 0.9751 1.00026 0.18523 0.0
N133 N 0.9503 0.99916 0.63976 0.0
C134 C 0.94393 0.99001 0.5367 0.0
C135 C 0.90474 0.96537 0.70196 0.0
C136 C 0.91777 0.96775 0.51249 0.0
C137 C 0.9301 0.9884 0.7213 0.0
C138 C 0.89861 0.95486 0.59694 0.0
N139 N 0.98605 0.02764 0.48005 0.0
C140 C 1.00289 0.04384 0.39969 0.0
C141 C 0.95673 0.99523 0.34725 0.0
C142 C 0.96285 1.00413 0.4549 0.0
C143 C 0.97725 1.00846 0.26747 0.0
C144 C 0.99983 0.03344 0.29339 0.0
H145 H 0.87842 0.93761 0.58153 0.0
H146 H 0.89077 0.94304 0.38447 0.0
H147 H 0.92572 0.96606 0.2404 0.0
O148 O 0.95929 0.0725 0.55012 0.0
O149 O 0.99576 0.98789 0.68838 0.0
O150 O 0.05119 0.98235 0.68779 0.0
O151 O 0.94022 0.0603 0.70656 0.0
O152 O 0.03687 0.05781 0.59158 0.0
O153 O 0.07262 1.01943 0.66493 0.0
O154 O 0.03795 0.96847 0.88952 0.0
O155 O 0.04639 0.06724 0.85451 0.0
O156 O 1.01192 0.08804 0.72083 0.0
O157 O 0.0888 0.98224 0.92618 0.0
O158 O 1.00759 1.01166 0.91607 0.0
O159 O 0.97535 0.04981 0.82775 0.0
C160 C 1.022 0.97013 0.66099 0.0
C161 C 0.92812 0.11312 0.64106 0.0
C162 C 0.93873 0.17132 0.6048 0.0
C163 C 0.91648 0.18016 0.68619 0.0
C164 C 0.90592 0.1219 0.7231 0.0
C165 C 0.90013 0.15536 0.74532 0.0
C166 C 0.94392 0.13796 0.58172 0.0
C167 C 0.06638 0.04288 0.59405 0.0
C168 C 0.93622 0.07831 0.62069 0.0
C169 C 0.91084 0.95994 0.40487 0.0
C170 C 0.93037 0.97355 0.32256 0.0
C171 C 0.03138 0.09263 0.80613 0.0
C172 C 0.05763 0.95725 0.06413 0.0
C173 C 1.01887 0.94144 0.20545 0.0
C174 C 0.0445 0.94567 0.28123 0.0
C175 C 0.08349 0.9589 0.14003 0.0
C176 C 0.02523 0.95011 0.09831 0.0
C177 C 0.07664 0.9539 0.24879 0.0
C178 C 0.98038 0.03013 0.91026 0.0
C179 C 0.06408 0.96257 0.94932 0.0
H180 H 0.91197 0.206 0.70407 0.0
H181 H 0.89337 0.10297 0.7704 0.0
H182 H 0.88308 0.16204 0.80868 0.0
H183 H 0.96046 0.13144 0.51651 0.0
H184 H 0.04031 0.9409 0.36462 0.0
H185 H 0.10877 0.96446 0.11569 0.0
H186 H 1.0051 0.94954 0.04017 0.0
H187 H 0.09643 0.95558 0.3079 0.0
Tb188 Tb 0.53771 0.07251 0.88988 0.0
C189 C 0.51527 0.93715 0.64518 0.0
N190 N 0.53914 0.96108 0.64503 0.0
C191 C 0.57529 0.92611 0.54547 0.0
C192 C 0.51956 0.9074 0.59007 0.0
C193 C 0.56991 0.95515 0.60326 0.0
C194 C 0.54938 0.90305 0.53467 0.0
C195 C 0.46315 0.91727 0.718 0.0
C196 C 0.48666 0.94281 0.70306 0.0
C197 C 0.46608 0.88805 0.65821 0.0
C198 C 0.49388 0.88349 0.59209 0.0
Tb199 Tb 0.51712 1.01186 0.67447 0.0
N200 N 0.48488 0.97173 0.75756 0.0
C201 C 0.43882 0.9212 0.79694 0.0
C202 C 0.46433 0.97354 0.8449 0.0
C203 C 0.44042 0.94882 0.86401 0.0
H204 H 0.58886 0.97412 0.60374 0.0
H205 H 0.42372 0.95073 0.93169 0.0
H206 H 0.46663 0.11018 0.94318 0.0
H207 H 0.65676 0.12604 0.76765 0.0
H208 H 0.46757 0.99215 0.90483 0.0
H209 H 0.42045 0.90199 0.81216 0.0
H210 H 0.62077 0.08658 0.86427 0.0
H211 H 0.59871 0.92233 0.50487 0.0
H212 H 0.44762 0.86846 0.66508 0.0
H213 H 0.49554 0.86092 0.54661 0.0
H214 H 0.4409 0.1646 0.91062 0.0
H215 H 0.55258 0.88229 0.48298 0.0
H216 H 0.63276 0.17749 0.69138 0.0
N217 N 0.51171 0.1225 0.86274 0.0
C218 C 0.53023 0.1473 0.81801 0.0
C219 C 0.46588 0.15992 0.88261 0.0
C220 C 0.51643 0.17872 0.7965 0.0
C221 C 0.48045 0.12894 0.90018 0.0
C222 C 0.48373 0.18477 0.82889 0.0
N223 N 0.57566 0.11049 0.82054 0.0
C224 C 0.60945 0.10673 0.82107 0.0
C225 C 0.58284 0.16548 0.74395 0.0
C226 C 0.56292 0.1406 0.79217 0.0
C227 C 0.61662 0.15917 0.72875 0.0
C228 C 0.63019 0.13006 0.77075 0.0
H229 H 0.47228 0.20867 0.81462 0.0
H230 H 0.52538 0.22712 0.72502 0.0
H231 H 0.58358 0.2155 0.67842 0.0
O232 O 0.56473 0.09888 1.00597 0.0
O233 O 0.509 0.08953 0.74659 0.0
O234 O 0.53367 0.06162 0.61604 0.0
O235 O 0.51662 0.07894 0.04225 0.0
O236 O 0.58284 0.04432 0.82442 0.0
O237 O 0.56823 0.03089 0.65133 0.0
O238 O 0.47675 1.00716 0.56793 0.0
O239 O 0.53727 0.98466 0.81562 0.0
O240 O 0.54545 1.02062 0.95833 0.0
O241 O 0.52637 0.99652 0.51639 0.0
O242 O 0.4714 0.038 0.73623 0.0
O243 O 0.48617 0.05232 0.90853 0.0
C244 C 0.52048 0.08934 0.64845 0.0
C245 C 0.55248 0.08857 0.1882 0.0
C246 C 0.59649 0.08863 0.32233 0.0
C247 C 0.5755 0.07114 0.39282 0.0
C248 C 0.53068 0.07444 0.2632 0.0
C249 C 0.5423 0.06576 0.36502 0.0
C250 C 0.58436 0.09778 0.22062 0.0
C251 C 0.59164 0.03612 0.72364 0.0
C252 C 0.54172 0.09584 0.07839 0.0
C253 C 0.53568 0.20298 0.74385 0.0
C254 C 0.56877 0.1963 0.71692 0.0
C255 C 0.54412 0.98989 0.91851 0.0
C256 C 0.48599 1.00138 0.37937 0.0
C257 C 0.44104 1.00792 0.25155 0.0
C258 C 0.46372 1.00707 0.16619 0.0
C259 C 0.5086 0.99848 0.2941 0.0
C260 C 0.45255 1.00506 0.35713 0.0
C261 C 0.49744 1.00225 0.188 0.0
C262 C 0.46271 0.04771 0.83474 0.0
C263 C 0.4953 0.9955 0.4913 0.0
H264 H 0.58409 0.06347 0.47144 0.0
H265 H 0.50482 0.06996 0.24308 0.0
H266 H 0.52536 0.05503 0.42225 0.0
H267 H 0.59967 0.11227 0.16598 0.0
H268 H 0.45538 1.00955 0.08365 0.0
H269 H 0.53473 0.99386 0.30924 0.0
H270 H 0.43506 1.00365 0.42329 0.0
H271 H 0.51489 1.00152 0.12302 0.0
Tb272 Tb 0.56982 0.51662 0.60683 0.0
C273 C 0.46638 0.48089 0.94369 0.0
N274 N 0.46677 0.49391 0.8426 0.0
C275 C 0.41932 0.46056 0.79488 0.0
C276 C 0.44323 0.45604 0.97313 0.0
C277 C 0.44291 0.48495 0.76937 0.0
C278 C 0.41958 0.44589 0.89706 0.0
C279 C 0.49206 0.47714 0.11971 0.0
C280 C 0.48988 0.49201 1.01656 0.0
C281 C 0.46946 0.452 0.14915 0.0
C282 C 0.44482 0.44177 0.07647 0.0
Tb283 Tb 0.5028 0.537 0.81272 0.0
N284 N 0.51035 0.51748 0.98676 0.0
C285 C 0.5171 0.4877 0.18979 0.0
C286 C 0.53249 0.52999 0.06038 0.0
C287 C 0.53776 0.51385 0.15883 0.0
H288 H 0.44176 0.49685 0.69161 0.0
H289 H 0.55771 0.52177 0.21104 0.0
H290 H 0.64333 0.5085 0.73524 0.0
H291 H 0.53963 0.58571 0.24424 0.0
H292 H 0.5464 0.55245 0.04568 0.0
H293 H 0.52049 0.47613 0.26812 0.0
H294 H 0.53143 0.54207 0.38326 0.0
H295 H 0.40079 0.45333 0.73597 0.0
H296 H 0.47072 0.44047 0.22817 0.0
H297 H 0.42741 0.4225 0.1004 0.0
H298 H 0.69481 0.54115 0.75361 0.0
H299 H 0.40136 0.42689 0.91651 0.0
H300 H 0.58931 0.62206 0.25133 0.0
N301 N 0.62045 0.54263 0.62553 0.0
C302 C 0.62618 0.56811 0.55536 0.0
C303 C 0.67544 0.54943 0.69905 0.0
C304 C 0.6562 0.58635 0.55845 0.0
C305 C 0.64575 0.53145 0.69033 0.0
C306 C 0.68031 0.57758 0.63493 0.0
N307 N 0.57468 0.55554 0.47236 0.0
C308 C 0.55293 0.5582 0.38758 0.0
C309 C 0.60897 0.5989 0.39588 0.0
C310 C 0.60287 0.57436 0.47495 0.0
C311 C 0.58559 0.60334 0.31328 0.0
C312 C 0.55752 0.58284 0.30895 0.0
H313 H 0.70353 0.59122 0.64084 0.0
H314 H 0.6846 0.62615 0.48399 0.0
H315 H 0.64334 0.63702 0.34147 0.0
O316 O 0.56588 0.47002 0.53131 0.0
O317 O 0.54439 0.5657 0.59317 0.0
O318 O 0.53237 0.58182 0.76351 0.0
O319 O 0.60784 0.50197 0.50346 0.0
O320 O 0.51865 0.50292 0.55192 0.0
O321 O 0.48669 0.54079 0.64046 0.0
O322 O 0.47608 0.56557 0.92425 0.0
O323 O 0.51184 0.48311 0.77851 0.0
O324 O 0.56721 0.48112 0.7452 0.0
O325 O 0.45744 0.55706 0.76424 0.0
O326 O 0.55427 0.55387 0.86424 0.0
O327 O 0.58653 0.51625 0.77653 0.0
C328 C 0.54114 0.5896 0.66395 0.0
C329 C 0.61978 0.44629 0.51644 0.0
C330 C 0.66542 0.41351 0.44881 0.0
C331 C 0.66281 0.39268 0.54074 0.0
C332 C 0.61555 0.42401 0.60226 0.0
C333 C 0.63831 0.39842 0.61801 0.0
C334 C 0.64737 0.44328 0.44938 0.0
C335 C 0.49088 0.52014 0.55961 0.0
C336 C 0.59582 0.47255 0.49225 0.0
C337 C 0.66177 0.61177 0.48248 0.0
C338 C 0.63832 0.61788 0.40103 0.0
C339 C 0.54027 0.46708 0.78654 0.0
C340 C 0.44717 0.60838 0.83254 0.0
C341 C 0.46793 0.66471 0.82473 0.0
C342 C 0.43826 0.67503 0.77518 0.0
C343 C 0.41759 0.6185 0.78207 0.0
C344 C 0.47238 0.63138 0.85122 0.0
C345 C 0.41329 0.65178 0.75279 0.0
C346 C 0.58255 0.53715 0.85649 0.0
C347 C 0.45349 0.57333 0.85259 0.0
H348 H 0.67692 0.37 0.54777 0.0
H349 H 0.59449 0.42608 0.65513 0.0
H350 H 0.63524 0.38139 0.68511 0.0
H351 H 0.65084 0.46137 0.38525 0.0
H352 H 0.43409 0.70102 0.75735 0.0
H353 H 0.39815 0.60064 0.76409 0.0
H354 H 0.4951 0.62361 0.89132 0.0
H355 H 0.39039 0.65962 0.71452 0.0
Tb356 Tb 0.03666 0.56872 0.61933 0.0
C357 C 0.09302 0.46474 0.91374 0.0
N358 N 0.07192 0.46349 0.82761 0.0
C359 C 0.1001 0.41539 0.76199 0.0
C360 C 0.11905 0.44169 0.9255 0.0
C361 C 0.07474 0.43881 0.75327 0.0
C362 C 0.1224 0.41686 0.84825 0.0
C363 C 0.11202 0.49335 0.07413 0.0
C364 C 0.08945 0.49039 0.98719 0.0
C365 C 0.13791 0.47039 0.08606 0.0
C366 C 0.14129 0.44453 1.01239 0.0
Tb367 Tb 0.0291 0.50056 0.83119 0.0
N368 N 0.06425 0.51255 0.97267 0.0
C369 C 0.10779 0.51915 0.14722 0.0
C370 C 0.0586 0.53592 0.04966 0.0
C371 C 0.08076 0.54031 0.13544 0.0
H372 H 0.05683 0.43627 0.68934 0.0
H373 H 0.07626 0.5593 0.19471 0.0
H374 H 0.99987 0.63214 0.74253 0.0
H375 H 1.01691 0.51581 0.22259 0.0
H376 H 0.03616 0.55002 0.05062 0.0
H377 H 0.12461 0.52229 0.21483 0.0
H378 H 0.04967 0.52857 0.38391 0.0
H379 H 0.10218 0.39594 0.7028 0.0
H380 H 0.15544 0.47237 0.15226 0.0
H381 H 0.16149 0.4271 0.02253 0.0
H382 H 0.95202 0.66865 0.70908 0.0
H383 H 0.14209 0.3987 0.85452 0.0
H384 H 0.96339 0.54391 0.19022 0.0
N385 N 0.9924 0.60379 0.60017 0.0
C386 C 0.97461 0.60037 0.50724 0.0
C387 C 0.95796 0.64939 0.65216 0.0
C388 C 0.94699 0.62075 0.48519 0.0
C389 C 0.98484 0.62833 0.67163 0.0
C390 C 0.93885 0.6455 0.55888 0.0
N391 N 1.01168 0.55768 0.45657 0.0
C392 C 0.02502 0.53872 0.37672 0.0
C393 C 0.96547 0.57122 0.33965 0.0
C394 C 0.98388 0.57584 0.43535 0.0
C395 C 0.97699 0.54847 0.26419 0.0
C396 C 1.00716 0.53255 0.28216 0.0
H397 H 0.9178 0.66164 0.54472 0.0
H398 H 0.90612 0.63007 0.37502 0.0
H399 H 0.92182 0.58616 0.24901 0.0
O400 O 0.07778 0.57886 0.52009 0.0
O401 O 0.98422 0.55869 0.67195 0.0
O402 O 0.98256 0.50466 0.72997 0.0
O403 O 0.04453 0.61762 0.5655 0.0
O404 O 0.04961 0.51622 0.56678 0.0
O405 O 1.01613 0.48297 0.66998 0.0
O406 O 1.00275 0.49182 0.97441 0.0
O407 O 0.08005 0.51195 0.76786 0.0
O408 O 0.07816 0.56709 0.74134 0.0
O409 O 1.01571 0.45111 0.86833 0.0
O410 O 1.01015 0.55079 0.87965 0.0
O411 O 0.04195 0.58817 0.78441 0.0
C412 C 0.9677 0.53053 0.68349 0.0
C413 C 0.10134 0.62895 0.5792 0.0
C414 C 0.1607 0.62958 0.60858 0.0
C415 C 0.15698 0.64811 0.70246 0.0
C416 C 0.09727 0.6481 0.67289 0.0
C417 C 0.12512 0.65805 0.7331 0.0
C418 C 0.13313 0.62135 0.5455 0.0
C419 C 0.03219 0.4882 0.57929 0.0
C420 C 0.07364 0.61082 0.52892 0.0
C421 C 0.92785 0.61514 0.3923 0.0
C422 C 0.93668 0.59 0.32091 0.0
C423 C 0.09505 0.54091 0.77465 0.0
C424 C 0.98887 0.43616 0.03586 0.0
C425 C 0.95582 0.42688 0.19606 0.0
C426 C 0.95773 0.39251 0.18073 0.0
C427 C 0.99092 0.40179 0.02066 0.0
C428 C 0.97246 0.44833 0.12532 0.0
C429 C 0.97565 0.38005 0.0939 0.0
C430 C 0.02365 0.58089 0.86906 0.0
C431 C 1.00373 0.45987 0.96026 0.0
H432 H 0.1783 0.65418 0.75223 0.0
H433 H 0.07273 0.65413 0.70224 0.0
H434 H 0.12184 0.67215 0.80611 0.0
H435 H 0.13632 0.60606 0.47454 0.0
H436 H 0.94427 0.37556 0.23296 0.0
H437 H 1.00385 0.39189 0.95184 0.0
H438 H 0.97003 0.47495 0.13428 0.0
H439 H 0.97677 0.35355 0.08187 0.0
H440 H 0.15904 0.02721 0.17822 0.0
H441 H 0.22931 0.08081 0.37359 0.0
H442 H 0.18705 0.08642 0.51523 0.0
H443 H 0.12979 0.07281 0.59016 0.0
H444 H 0.06224 1.01632 0.39294 0.0
H445 H 0.10266 1.01667 0.247 0.0
C446 C 0.16523 0.04049 0.25114 0.0
C447 C 0.19783 0.05389 0.26259 0.0
C448 C 0.14068 0.04332 0.33339 0.0
C449 C 0.20464 0.07088 0.35935 0.0
C450 C 0.18033 0.07374 0.44158 0.0
C451 C 0.12357 0.0611 0.51437 0.0
C452 C 0.09129 0.04651 0.50161 0.0
C453 C 0.14815 0.05974 0.43045 0.0
C454 C 0.08512 0.03002 0.40399 0.0
C455 C 0.10894 0.02907 0.32117 0.0
H456 H 0.48277 0.22233 0.37964 0.0
H457 H 0.58067 0.20633 0.25238 0.0
H458 H 0.58714 0.1574 0.36735 0.0
H459 H 0.56666 0.12082 0.51613 0.0
H460 H 0.46629 0.13038 0.62546 0.0
H461 H 0.45951 0.18022 0.51241 0.0
C462 C 0.50488 0.20726 0.37332 0.0
C463 C 0.53096 0.2181 0.30387 0.0
C464 C 0.5082 0.17792 0.43902 0.0
C465 C 0.55987 0.19849 0.30169 0.0
C466 C 0.56371 0.17045 0.36874 0.0
C467 C 0.54253 0.13206 0.50905 0.0
C468 C 0.51643 0.1197 0.57461 0.0
C469 C 0.53822 0.15989 0.43852 0.0
C470 C 0.48666 0.13809 0.5741 0.0
C471 C 0.48272 0.16678 0.50863 0.0
H472 H 0.36283 0.47661 0.27798 0.0
H473 H 0.36681 0.57907 0.18066 0.0
H474 H 0.41774 0.58703 0.28682 0.0
H475 H 0.45883 0.56635 0.42497 0.0
H476 H 0.45842 0.46244 0.50728 0.0
H477 H 0.40962 0.45369 0.39141 0.0
C478 C 0.37569 0.50028 0.27535 0.0
C479 C 0.3608 0.52697 0.21678 0.0
C480 C 0.40562 0.50472 0.33767 0.0
C481 C 0.37779 0.55771 0.22009 0.0
C482 C 0.4068 0.56244 0.28335 0.0
C483 C 0.44835 0.54166 0.41678 0.0
C484 C 0.46261 0.51516 0.47767 0.0
C485 C 0.42059 0.53642 0.34534 0.0
C486 C 0.44843 0.48343 0.46309 0.0
C487 C 0.42023 0.47839 0.3963 0.0
H488 H 1.00725 0.3511 0.33063 0.0
H489 H 0.06205 0.37357 0.18628 0.0
H490 H 0.08809 0.44144 0.22836 0.0
H491 H 0.07081 0.47358 0.38898 0.0
H492 H 0.98874 0.43652 0.57905 0.0
H493 H 0.98574 0.38736 0.47027 0.0
C494 C 0.02485 0.37019 0.30659 0.0
C495 C 0.04847 0.36305 0.21615 0.0
C496 C 0.0262 0.40063 0.36409 0.0
C497 C 0.07233 0.39258 0.18448 0.0
C498 C 0.07104 0.42157 0.24894 0.0
C499 C 0.05189 0.45507 0.4058 0.0
C500 C 0.03042 0.4597 0.49619 0.0
C501 C 0.04974 0.42579 0.33892 0.0
C502 C 1.0063 0.43456 0.51354 0.0
C503 C 1.00438 0.4059 0.45019 0.0
H504 H 0.88522 0.06752 0.30683 0.0
H505 H 0.82866 0.98401 0.19006 0.0
H506 H 0.87263 0.97261 0.05932 0.0
H507 H 0.92714 0.98735 0.97199 0.0
H508 H 0.97577 0.07884 0.06068 0.0
H509 H 0.93489 0.08656 0.20431 0.0
C510 C 0.88161 0.04732 0.25127 0.0
C511 C 0.85246 0.02699 0.2606 0.0
C512 C 0.90594 0.04248 0.16899 0.0
C513 C 0.85036 0.99996 0.18909 0.0
C514 C 0.87551 0.99377 0.11185 0.0
C515 C 0.92871 1.00945 0.02046 0.0
C516 C 0.95561 0.03233 1.00391 0.0
C517 C 0.90341 1.01503 0.09981 0.0
C518 C 0.95634 0.06037 0.07108 0.0
C519 C 0.93258 0.06496 0.15339 0.0
H520 H 0.526 0.84479 0.13216 0.0
H521 H 0.60154 0.87734 0.3534 0.0
H522 H 0.59949 0.93361 0.27215 0.0
H523 H 0.57897 0.9735 0.12116 0.0
H524 H 0.51557 0.93013 0.87927 0.0
H525 H 0.51113 0.87997 0.97962 0.0
C526 C 0.5422 0.86402 0.1636 0.0
C527 C 0.56351 0.85598 0.25157 0.0
C528 C 0.54344 0.89531 0.1092 0.0
C529 C 0.5841 0.88212 0.28862 0.0
C530 C 0.58334 0.91448 0.24004 0.0
C531 C 0.56413 0.9532 0.09008 0.0
C532 C 0.54619 0.95788 0.99041 0.0
C533 C 0.56361 0.92149 0.14746 0.0
C534 C 0.52837 0.92972 0.95442 0.0
C535 C 0.52599 0.89999 1.01285 0.0
H536 H 0.70521 0.49901 0.16362 0.0
H537 H 0.70517 0.60295 0.23762 0.0
H538 H 0.65375 0.61003 0.13032 0.0
H539 H 0.61106 0.58707 0.99567 0.0
H540 H 0.61552 0.48271 0.92277 0.0
H541 H 0.66212 0.47594 0.04467 0.0
C542 C 0.6939 0.52329 0.15743 0.0
C543 C 0.7098 0.55038 0.2095 0.0
C544 C 0.66486 0.52732 0.09228 0.0
C545 C 0.69395 0.58144 0.20017 0.0
C546 C 0.66451 0.58553 0.13704 0.0
C547 C 0.62184 0.56275 1.00756 0.0
C548 C 0.60898 0.53542 0.94685 0.0
C549 C 0.64998 0.55879 0.07962 0.0
C550 C 0.62422 0.50439 0.96538 0.0
C551 C 0.65125 0.50037 0.03613 0.0
H552 H 0.98291 0.6753 0.26299 0.0
H553 H 0.05905 0.73825 0.1274 0.0
H554 H 0.07114 0.69576 0.99256 0.0
H555 H 0.05776 0.64112 0.90386 0.0
H556 H 0.97695 0.58202 0.03035 0.0
H557 H 0.96762 0.62361 0.16895 0.0
C558 C 1.00192 0.6802 0.20349 0.0
C559 C 1.01987 0.71075 0.20755 0.0
C560 C 1.00762 0.65616 0.12153 0.0
C561 C 0.04511 0.71523 0.1299 0.0
C562 C 0.05172 0.69089 0.0509 0.0
C563 C 0.03815 0.63703 0.96214 0.0
C564 C 1.01835 0.60753 0.95522 0.0
C565 C 0.03281 0.66129 0.04445 0.0
C566 C 0.99308 0.6036 0.03263 0.0
C567 C 0.98784 0.62737 0.11351 0.0
H568 H 0.98626 0.26631 0.23799 0.0
H569 H 0.07959 0.21927 0.30744 0.0
H570 H 0.05323 0.18585 0.45077 0.0
H571 H 1.00414 0.17352 0.56169 0.0
H572 H 0.91109 0.22236 0.49367 0.0
H573 H 0.93735 0.25401 0.34773 0.0
C574 C 1.00029 0.24786 0.28287 0.0
C575 C 0.03427 0.24433 0.26275 0.0
C576 C 0.98551 0.23079 0.36788 0.0
C577 C 0.05314 0.22144 0.3216 0.0
C578 C 0.03826 0.20309 0.40427 0.0
C579 C 0.98984 0.19146 0.51544 0.0
C580 C 0.95589 0.19589 0.53742 0.0
C581 C 1.00469 0.20835 0.42976 0.0
C582 C 0.93739 0.21914 0.47854 0.0
C583 C 0.95217 0.2366 0.3941 0.0
H584 H 0.28792 1.00772 0.29576 0.0
H585 H 0.29383 0.96856 0.97657 0.0
H586 H 0.35373 0.95837 1.00145 0.0
H587 H 0.4054 0.97593 0.09639 0.0
H588 H 0.39562 0.04063 0.37067 0.0
H589 H 0.33675 0.02878 0.37944 0.0
C590 C 0.30232 0.99546 0.23401 0.0
C591 C 0.28758 0.99015 0.13384 0.0
C592 C 0.33662 0.99703 0.23942 0.0
C593 C 0.30532 0.97358 0.05377 0.0
C594 C 0.33959 0.96892 0.06681 0.0
C595 C 0.39025 0.98785 0.15653 0.0
C596 C 0.40496 1.00795 0.23543 0.0
C597 C 0.35577 0.98358 0.15512 0.0
C598 C 0.38498 0.02385 0.31188 0.0
C599 C 0.35142 1.01686 0.31784 0.0
H600 H 0.62275 0.29511 0.2485 0.0
H601 H 0.54399 0.36674 0.21621 0.0
H602 H 0.58486 0.41179 0.21112 0.0
H603 H 0.64083 0.43027 0.24612 0.0
H604 H 0.7091 0.36134 0.38968 0.0
H605 H 0.67901 0.31547 0.30352 0.0
C606 C 0.61463 0.32062 0.2419 0.0
C607 C 0.58061 0.32777 0.23023 0.0
C608 C 0.63761 0.34646 0.25394 0.0
C609 C 0.57017 0.36085 0.2225 0.0
C610 C 0.59348 0.38644 0.21891 0.0
C611 C 0.64918 0.40517 0.26133 0.0
C612 C 0.67326 0.39865 0.34145 0.0
C613 C 0.62709 0.37949 0.23821 0.0
C614 C 0.6878 0.36692 0.33919 0.0
C615 C 0.66992 0.34055 0.29326 0.0
H616 H 0.23299 0.52311 0.36739 0.0
H617 H 0.26066 0.60666 0.17021 0.0
H618 H 0.23316 0.64447 0.29375 0.0
H619 H 0.20305 0.65324 0.46237 0.0
H620 H 0.18387 0.57049 0.67463 0.0
H621 H 0.20994 0.53277 0.54751 0.0
C622 C 0.23166 0.54951 0.35041 0.0
C623 C 0.24662 0.56209 0.25698 0.0
C624 C 0.22002 0.57118 0.42877 0.0
C625 C 0.24694 0.59643 0.23771 0.0
C626 C 0.2326 0.61805 0.31056 0.0
C627 C 0.20634 0.62724 0.48298 0.0
C628 C 0.1918 0.61442 0.57664 0.0
C629 C 0.21995 0.60572 0.40776 0.0
C630 C 0.19557 0.58074 0.60319 0.0
C631 C 0.2093 0.55908 0.5289 0.0
H632 H 0.94112 0.83027 0.42243 0.0
H633 H 0.96681 0.79159 0.11221 0.0
H634 H 0.96437 0.84627 0.03367 0.0
H635 H 0.98426 0.90066 0.07185 0.0
H636 H 0.9858 0.93522 0.40085 0.0
H637 H 0.94831 0.89029 0.45162 0.0
C638 C 0.94635 0.83413 0.33797 0.0
C639 C 0.95777 0.80767 0.27649 0.0
C640 C 0.9514 0.86623 0.29746 0.0
C641 C 0.95959 0.81182 0.16374 0.0
C642 C 0.95892 0.8434 0.11872 0.0
C643 C 0.97601 0.89941 0.15466 0.0
C644 C 0.98879 0.92141 0.23232 0.0
C645 C 0.95978 0.87056 0.18785 0.0
C646 C 0.97748 0.91832 0.33907 0.0
C647 C 0.95629 0.89239 0.36879 0.0
H648 H 0.73978 0.10109 0.51565 0.0
H649 H 0.76207 0.08058 0.18388 0.0
H650 H 0.70533 0.09209 0.1319 0.0
H651 H 0.6488 0.08932 0.18846 0.0
H652 H 0.6227 0.10521 0.52147 0.0
H653 H 0.68144 0.11156 0.56723 0.0
C654 C 0.7322 0.10069 0.43178 0.0
C655 C 0.75446 0.08926 0.35415 0.0
C656 C 0.69866 0.10435 0.40396 0.0
C657 C 0.74518 0.08936 0.24496 0.0
C658 C 0.71254 0.09513 0.21554 0.0
C659 C 0.65544 0.09582 0.2704 0.0
C660 C 0.63125 0.09656 0.35122 0.0
C661 C 0.6888 0.09973 0.29565 0.0
C662 C 0.64085 0.10379 0.45767 0.0
C663 C 0.67441 0.1079 0.48378 0.0
H664 H 0.58216 0.72206 0.10562 0.0
H665 H 0.49794 0.76572 0.26134 0.0
H666 H 0.46025 0.74115 0.13103 0.0
H667 H 0.45163 0.70973 0.96795 0.0
H668 H 0.53537 0.66861 0.80145 0.0
H669 H 0.57353 0.69235 0.93415 0.0
C670 C 0.55547 0.72518 0.11168 0.0
C671 C 0.54243 0.74387 0.19574 0.0
C672 C 0.53431 0.71349 0.03059 0.0
C673 C 0.50801 0.74916 0.20188 0.0
C674 C 0.48667 0.73632 0.12493 0.0
C675 C 0.47833 0.70713 0.95853 0.0
C676 C 0.4909 0.68822 0.87459 0.0
C677 C 0.49965 0.71919 0.03767 0.0
C678 C 0.52541 0.68397 0.86431 0.0
C679 C 0.54707 0.69675 0.94163 0.0
H680 H 0.86226 0.5397 0.28507 0.0
H681 H 0.78977 0.46655 0.18783 0.0
H682 H 0.83318 0.42489 0.17386 0.0
H683 H 0.89157 0.4097 0.19306 0.0
H684 H 0.96072 0.4783 0.33826 0.0
H685 H 0.91692 0.52019 0.34826 0.0
C686 C 0.85602 0.51449 0.26242 0.0
C687 C 0.82307 0.50608 0.23792 0.0
C688 C 0.87988 0.48956 0.27021 0.0
C689 C 0.8152 0.47366 0.20542 0.0
C690 C 0.83973 0.44963 0.20055 0.0
C691 C 0.89678 0.43324 0.23161 0.0
C692 C 0.92941 0.44164 0.26067 0.0
C693 C 0.87197 0.45716 0.23538 0.0
C694 C 0.93572 0.47189 0.31272 0.0
C695 C 0.91121 0.49614 0.31475 0.0
H696 H 0.08183 0.21986 0.07568 0.0
H697 H 0.99196 0.26427 0.95612 0.0
H698 H 0.97932 0.21339 0.85357 0.0
H699 H 0.99283 0.15326 0.80331 0.0
H700 H 0.08624 0.11384 0.9134 0.0
H701 H 0.09765 0.16395 1.01357 0.0
C702 C 0.05969 0.21882 0.02568 0.0
C703 C 0.0384 0.24691 0.02348 0.0
C704 C 0.05265 0.18926 0.96608 0.0
C705 C 1.00955 0.24406 0.95859 0.0
C706 C 1.0021 0.21445 0.90037 0.0
C707 C 1.01587 0.15561 0.84818 0.0
C708 C 0.03799 0.12773 0.85336 0.0
C709 C 0.0233 0.18641 0.90375 0.0
C710 C 0.06768 0.13287 0.91186 0.0
C711 C 0.07461 0.1623 0.96824 0.0
H712 H 0.30306 0.0293 0.89869 0.0
H713 H 0.32309 0.08052 0.19476 0.0
H714 H 0.382 0.08571 0.14513 0.0
H715 H 0.43007 0.07186 0.02281 0.0
H716 H 0.40886 1.02221 0.7235 0.0
H717 H 0.35004 1.01919 0.77099 0.0
C718 C 0.32009 0.04221 0.95188 0.0
C719 C 0.30744 0.05476 0.05107 0.0
C720 C 0.35472 0.04467 0.92304 0.0
C721 C 0.33086 0.07118 0.11745 0.0
C722 C 0.36511 0.07369 0.08933 0.0
C723 C 0.41273 0.06094 0.96618 0.0
C724 C 0.42527 0.04769 0.86728 0.0
C725 C 0.37774 0.06001 0.99308 0.0
C726 C 0.40119 0.03308 0.79885 0.0
C727 C 0.36701 0.0313 0.82632 0.0
H728 H 0.58046 0.32808 1.01201 0.0
H729 H 0.47575 0.32383 0.08107 0.0
H730 H 0.46709 0.37412 0.97078 0.0
H731 H 0.49033 0.42254 0.86314 0.0
H732 H 0.59682 0.43269 0.8407 0.0
H733 H 0.60366 0.37839 0.92384 0.0
C734 C 0.55557 0.33791 1.00294 0.0
C735 C 0.52884 0.32145 0.05687 0.0
C736 C 0.55122 0.36895 0.94827 0.0
C737 C 0.4969 0.33504 0.04095 0.0
C738 C 0.49206 0.36446 0.97905 0.0
C739 C 0.51509 0.41356 0.87884 0.0
C740 C 0.54292 0.4329 0.84314 0.0
C741 C 0.51916 0.38236 0.93452 0.0
C742 C 0.5746 0.41913 0.8632 0.0
C743 C 0.57866 0.38767 0.91185 0.0
H744 H 0.22692 0.58173 0.0452 0.0
H745 H 0.25311 0.47989 0.99039 0.0
H746 H 0.20236 0.47288 0.88142 0.0
H747 H 0.14817 0.49505 0.8051 0.0
H748 H 0.12118 0.59586 0.87517 0.0
H749 H 0.17334 0.60335 0.97414 0.0
C750 C 0.22169 0.5576 1.01272 0.0
C751 C 0.24496 0.53125 0.03028 0.0
C752 C 0.19146 0.55344 0.95141 0.0
C753 C 0.23687 0.50097 0.97943 0.0
C754 C 0.20728 0.49685 0.91716 0.0
C755 C 0.15331 0.51862 0.84298 0.0
C756 C 0.12937 0.54471 0.83177 0.0
C757 C 0.18394 0.52276 0.90313 0.0
C758 C 0.13816 0.57514 0.88018 0.0
C759 C 0.16833 0.57944 0.93811 0.0
H760 H 0.98109 0.81843 0.54278 0.0
H761 H 0.05999 0.83137 0.31297 0.0
H762 H 0.07493 0.88452 0.39622 0.0
H763 H 0.06308 0.93098 0.52839 0.0
H764 H 0.97335 0.92446 0.7152 0.0
H765 H 0.96554 0.86686 0.6585 0.0
C766 C 1.0011 0.8331 0.50853 0.0
C767 C 1.01875 0.82004 0.41846 0.0
C768 C 1.00779 0.86566 0.55113 0.0
C769 C 0.04567 0.83965 0.38113 0.0
C770 C 0.05408 0.87065 0.42875 0.0
C771 C 0.04131 0.9173 0.55503 0.0
C772 C 1.01845 0.93346 0.62515 0.0
C773 C 0.0349 0.88454 0.51248 0.0
C774 C 0.99125 0.91395 0.66043 0.0
C775 C 0.9868 0.88053 0.62785 0.0
H776 H 0.7518 0.04124 0.63214 0.0
H777 H 0.71954 1.01403 0.31407 0.0
H778 H 0.66164 1.01146 0.37656 0.0
H779 H 0.61866 1.0203 0.51951 0.0
H780 H 0.65128 0.042 0.84258 0.0
H781 H 0.70892 0.04355 0.78103 0.0
C782 C 0.73235 0.03355 0.577 0.0
C783 C 0.7412 0.02696 0.46743 0.0
C784 C 0.6983 0.03212 0.61436 0.0
C785 C 0.71456 1.01821 0.39851 0.0
C786 C 0.68101 1.01721 0.43452 0.0
C787 C 0.63805 0.02562 0.57759 0.0
C788 C 0.6288 0.0333 0.68648 0.0
C789 C 0.67224 0.02471 0.54199 0.0
C790 C 0.65588 0.03827 0.75789 0.0
C791 C 0.68953 0.0385 0.7225 0.0
H792 H 0.60169 0.7234 0.45478 0.0
H793 H 0.49859 0.75078 0.43695 0.0
H794 H 0.48268 0.69804 0.52274 0.0
H795 H 0.49796 0.64093 0.59443 0.0
H796 H 0.60133 0.62116 0.65529 0.0
H797 H 0.61698 0.67286 0.56374 0.0
C798 C 0.57574 0.71826 0.47158 0.0
C799 C 0.55148 0.74139 0.43509 0.0
C800 C 0.56669 0.68831 0.52812 0.0
C801 C 0.51803 0.73369 0.45979 0.0
C802 C 0.50883 0.70324 0.5099 0.0
C803 C 0.52393 0.64805 0.58915 0.0
C804 C 0.54857 0.62548 0.6279 0.0
C805 C 0.53286 0.67978 0.54276 0.0
C806 C 0.58184 0.63646 0.62189 0.0
C807 C 0.59083 0.66657 0.57031 0.0
H808 H 0.82553 0.49172 0.46658 0.0
H809 H 0.81725 0.59785 0.4416 0.0
H810 H 0.86883 0.60425 0.5465 0.0
H811 H 0.91992 0.57973 0.63407 0.0
H812 H 0.93193 0.47377 0.63376 0.0
H813 H 0.8766 0.46743 0.55303 0.0
C814 C 0.8345 0.51637 0.48588 0.0
C815 C 0.8165 0.54436 0.44468 0.0
C816 C 0.86596 0.51991 0.54087 0.0
C817 C 0.82954 0.5758 0.4716 0.0
C818 C 0.85971 0.57943 0.53054 0.0
C819 C 0.91102 0.55525 0.61392 0.0
C820 C 0.93161 0.5274 0.63935 0.0
C821 C 0.87891 0.55174 0.56285 0.0
C822 C 0.91766 0.49593 0.61693 0.0
C823 C 0.8856 0.49224 0.56995 0.0
loop_
_geom_bond_atom_site_label_1
_geom_bond_atom_site_label_2
_geom_bond_distance
_geom_bond_site_symmetry_2
_ccdc_geom_bond_type
C0 N1 1.317 . S
C0 N2 1.348 . S
C0 C3 1.485 . S
N1 C0 1.317 . S
N1 N5 1.370 . S
N2 C0 1.348 . S
N2 C4 1.346 . S
C3 C0 1.485 . S
C3 H7 0.960 . S
C3 H8 0.961 . S
C3 H9 0.960 . S
C4 N2 1.346 . S
C4 N5 1.307 . S
C4 C6 1.486 . S
N5 N1 1.370 . S
N5 C4 1.307 . S
C6 C4 1.486 . S
C6 H10 0.960 . S
C6 H11 0.960 . S
C6 H12 0.959 . S
H7 C3 0.960 . S
H8 C3 0.961 . S
H9 C3 0.960 . S
H10 C6 0.960 . S
H11 C6 0.960 . S
H12 C6 0.959 . S
C13 N14 1.317 . S
C13 N15 1.348 . S
C13 C16 1.485 . S
N14 C13 1.317 . S
N14 N18 1.370 . S
N15 C13 1.348 . S
N15 C17 1.346 . S
C16 C13 1.485 . S
C16 H20 0.960 1_655 S
C16 H21 0.961 . S
C16 H22 0.960 . S
C17 N15 1.346 . S
C17 N18 1.307 . S
C17 C19 1.486 . S
N18 N14 1.370 . S
N18 C17 1.307 . S
C19 C17 1.486 . S
C19 H23 0.960 . S
C19 H24 0.960 1_655 S
C19 H25 0.959 . S
H20 C16 0.960 1_455 S
H21 C16 0.961 . S
H22 C16 0.960 . S
H23 C19 0.960 . S
H24 C19 0.960 1_455 S
H25 C19 0.959 . S
C26 N27 1.317 . S
C26 N28 1.348 . S
C26 C29 1.485 . S
N27 C26 1.317 . S
N27 N31 1.370 . S
N28 C26 1.348 . S
N28 C30 1.346 . S
C29 C26 1.485 . S
C29 H33 0.960 1_565 S
C29 H34 0.961 . S
C29 H35 0.960 . S
C30 N28 1.346 . S
C30 N31 1.307 . S
C30 C32 1.486 . S
N31 N27 1.370 . S
N31 C30 1.307 . S
C32 C30 1.486 . S
C32 H36 0.960 . S
C32 H37 0.960 1_565 S
C32 H38 0.959 . S
H33 C29 0.960 1_545 S
H34 C29 0.961 . S
H35 C29 0.960 . S
H36 C32 0.960 . S
H37 C32 0.960 1_545 S
H38 C32 0.959 . S
C39 N40 1.317 . S
C39 N41 1.348 . S
C39 C42 1.485 . S
N40 C39 1.317 . S
N40 N44 1.370 . S
N41 C39 1.348 . S
N41 C43 1.346 . S
C42 C39 1.485 . S
C42 H46 0.960 . S
C42 H47 0.961 . S
C42 H48 0.960 . S
C43 N41 1.346 . S
C43 N44 1.307 . S
C43 C45 1.486 . S
N44 N40 1.370 . S
N44 C43 1.307 . S
C45 C43 1.486 . S
C45 H49 0.960 . S
C45 H50 0.960 . S
C45 H51 0.959 . S
H46 C42 0.960 . S
H47 C42 0.961 . S
H48 C42 0.960 . S
H49 C45 0.960 . S
H50 C45 0.960 . S
H51 C45 0.959 . S
C52 N53 1.317 . S
C52 N54 1.348 1_556 S
C52 C55 1.485 . S
N53 C52 1.317 . S
N53 N57 1.370 1_556 S
N54 C52 1.348 1_554 S
N54 C56 1.346 . S
C55 C52 1.485 . S
C55 H59 0.960 . S
C55 H60 0.961 . S
C55 H61 0.960 . S
C56 N54 1.346 . S
C56 N57 1.307 . S
C56 C58 1.486 . S
N57 N53 1.370 1_554 S
N57 C56 1.307 . S
C58 C56 1.486 . S
C58 H62 0.960 . S
C58 H63 0.960 . S
C58 H64 0.959 . S
H59 C55 0.960 . S
H60 C55 0.961 . S
H61 C55 0.960 . S
H62 C58 0.960 . S
H63 C58 0.960 . S
H64 C58 0.959 . S
C65 N66 1.317 . S
C65 N67 1.348 1_556 S
C65 C68 1.485 . S
N66 C65 1.317 . S
N66 N70 1.370 1_556 S
N67 C65 1.348 1_554 S
N67 C69 1.346 . S
C68 C65 1.485 . S
C68 H72 0.960 . S
C68 H73 0.961 . S
C68 H74 0.960 . S
C69 N67 1.346 . S
C69 N70 1.307 . S
C69 C71 1.486 . S
N70 N66 1.370 1_554 S
N70 C69 1.307 . S
C71 C69 1.486 . S
C71 H75 0.960 . S
C71 H76 0.960 . S
C71 H77 0.959 . S
H72 C68 0.960 . S
H73 C68 0.961 . S
H74 C68 0.960 . S
H75 C71 0.960 . S
H76 C71 0.960 . S
H77 C71 0.959 . S
C78 N79 1.317 . S
C78 N80 1.348 1_556 S
C78 C81 1.485 . S
N79 C78 1.317 . S
N79 N83 1.370 1_556 S
N80 C78 1.348 1_554 S
N80 C82 1.346 . S
C81 C78 1.485 . S
C81 H85 0.960 . S
C81 H86 0.961 . S
C81 H87 0.960 . S
C82 N80 1.346 . S
C82 N83 1.307 . S
C82 C84 1.486 . S
N83 N79 1.370 1_554 S
N83 C82 1.307 . S
C84 C82 1.486 . S
C84 H88 0.960 . S
C84 H89 0.960 . S
C84 H90 0.959 . S
H85 C81 0.960 . S
H86 C81 0.961 . S
H87 C81 0.960 . S
H88 C84 0.960 . S
H89 C84 0.960 . S
H90 C84 0.959 . S
C91 N92 1.317 . S
C91 N93 1.348 1_556 S
C91 C94 1.485 . S
N92 C91 1.317 . S
N92 N96 1.370 1_556 S
N93 C91 1.348 1_554 S
N93 C95 1.346 . S
C94 C91 1.485 . S
C94 H98 0.960 . S
C94 H99 0.961 . S
C94 H100 0.960 . S
C95 N93 1.346 . S
C95 N96 1.307 . S
C95 C97 1.486 . S
N96 N92 1.370 1_554 S
N96 C95 1.307 . S
C97 C95 1.486 . S
C97 H101 0.960 . S
C97 H102 0.960 . S
C97 H103 0.959 . S
H98 C94 0.960 . S
H99 C94 0.961 . S
H100 C94 0.960 . S
H101 C97 0.960 . S
H102 C97 0.960 . S
H103 C97 0.959 . S
Tb104 N133 2.617 . S
Tb104 N139 2.572 . S
Tb104 O148 2.465 . S
Tb104 O149 2.387 1_545 S
Tb104 O151 2.428 . S
Tb104 O152 2.308 1_655 S
Tb104 O156 2.349 1_655 S
Tb104 O159 2.393 . S
Tb104 C168 2.802 . S
C105 N106 1.379 . S
C105 C108 1.416 1_556 S
C105 C112 1.424 1_556 S
N106 C105 1.379 . S
N106 C109 1.334 . S
N106 Tb115 2.617 1_545 S
C107 C109 1.390 . S
C107 C110 1.339 . S
C107 H127 0.930 . S
C108 C105 1.416 1_554 S
C108 C110 1.416 1_554 S
C108 C114 1.448 . S
C109 N106 1.334 . S
C109 C107 1.390 . S
C109 H120 0.930 1_545 S
C110 C107 1.339 . S
C110 C108 1.416 1_556 S
C110 H131 0.930 . S
C111 C112 1.413 . S
C111 C113 1.427 . S
C111 C117 1.416 . S
C112 C105 1.424 1_554 S
C112 C111 1.413 . S
C112 N116 1.361 . S
C113 C111 1.427 . S
C113 C114 1.328 . S
C113 H128 0.929 . S
C114 C108 1.448 . S
C114 C113 1.328 . S
C114 H129 0.930 . S
Tb115 N106 2.617 1_565 S
Tb115 N116 2.572 1_566 S
Tb115 O150 2.349 . S
Tb115 O153 2.393 . S
Tb115 O154 2.465 . S
Tb115 O155 2.387 1_565 S
Tb115 O157 2.428 . S
Tb115 O158 2.308 1_465 S
Tb115 C179 2.802 . S
N116 C112 1.361 . S
N116 Tb115 2.572 1_544 S
N116 C118 1.340 . S
C117 C111 1.416 . S
C117 C119 1.332 . S
C117 H125 0.931 . S
C118 N116 1.340 . S
C118 C119 1.407 . S
C118 H124 0.934 . S
C119 C117 1.332 . S
C119 C118 1.407 . S
C119 H121 0.929 . S
H120 C109 0.930 1_565 S
H121 C119 0.929 . S
H122 C137 0.930 . S
H123 C144 0.929 1_455 S
H124 C118 0.934 . S
H125 C117 0.931 . S
H126 C140 0.930 1_455 S
H127 C107 0.930 . S
H128 C113 0.929 . S
H129 C114 0.930 . S
H130 C135 0.930 . S
H131 C110 0.930 . S
H132 C143 0.931 . S
N133 Tb104 2.617 . S
N133 C134 1.362 1_545 S
N133 C137 1.334 . S
C134 N133 1.362 1_565 S
C134 C136 1.430 . S
C134 C142 1.428 . S
C135 H130 0.930 . S
C135 C137 1.390 . S
C135 C138 1.339 1_545 S
C136 C134 1.430 . S
C136 C138 1.416 . S
C136 C169 1.448 . S
C137 H122 0.930 . S
C137 N133 1.334 . S
C137 C135 1.390 . S
C138 C135 1.339 1_565 S
C138 C136 1.416 . S
C138 H145 0.930 . S
N139 Tb104 2.572 . S
N139 C140 1.340 . S
N139 C142 1.361 1_545 S
C140 H126 0.930 1_655 S
C140 N139 1.340 . S
C140 C144 1.407 1_545 S
C141 C142 1.413 . S
C141 C143 1.416 . S
C141 C170 1.427 . S
C142 C134 1.428 . S
C142 N139 1.361 1_565 S
C142 C141 1.413 . S
C143 H132 0.931 . S
C143 C141 1.416 . S
C143 C144 1.332 . S
C144 H123 0.929 1_655 S
C144 C140 1.407 1_565 S
C144 C143 1.332 . S
H145 C138 0.930 . S
H146 C169 0.930 . S
H147 C170 0.929 . S
O148 Tb104 2.465 . S
O148 C168 1.264 . S
O149 Tb104 2.387 1_565 S
O149 C160 1.264 . S
O150 Tb115 2.349 . S
O150 C160 1.243 1_455 S
O151 Tb104 2.428 . S
O151 C168 1.256 . S
O152 Tb104 2.308 1_455 S
O152 C167 1.266 . S
O153 Tb115 2.393 . S
O153 C167 1.248 1_565 S
O154 Tb115 2.465 . S
O154 C179 1.264 . S
O155 Tb115 2.387 1_545 S
O155 C171 1.264 . S
O156 Tb104 2.349 1_455 S
O156 C171 1.243 . S
O157 Tb115 2.428 . S
O157 C179 1.256 . S
O158 Tb115 2.308 1_645 S
O158 C178 1.266 . S
O159 Tb104 2.393 . S
O159 C178 1.248 . S
C160 O149 1.264 . S
C160 O150 1.243 1_655 S
C161 C164 1.399 . S
C161 C166 1.383 . S
C161 C168 1.496 . S
C162 C163 1.399 . S
C162 C166 1.389 . S
C163 C162 1.399 . S
C163 C165 1.380 . S
C163 H180 0.929 . S
C164 C161 1.399 . S
C164 C165 1.392 . S
C164 H181 0.929 . S
C165 C163 1.380 . S
C165 C164 1.392 . S
C165 H182 0.929 . S
C166 C161 1.383 . S
C166 C162 1.389 . S
C166 H183 0.931 1_655 S
C167 O152 1.266 . S
C167 O153 1.248 1_545 S
C168 Tb104 2.802 . S
C168 O148 1.264 . S
C168 O151 1.256 . S
C168 C161 1.496 . S
C169 C136 1.448 . S
C169 H146 0.930 . S
C169 C170 1.328 . S
C170 C141 1.427 . S
C170 H147 0.929 . S
C170 C169 1.328 . S
C171 O155 1.264 . S
C171 O156 1.243 . S
C172 C175 1.399 . S
C172 C176 1.383 . S
C172 C179 1.496 1_554 S
C173 C174 1.399 . S
C173 C176 1.389 . S
C174 C173 1.399 . S
C174 C177 1.380 . S
C174 H184 0.929 . S
C175 C172 1.399 . S
C175 C177 1.392 . S
C175 H185 0.929 1_554 S
C176 C172 1.383 . S
C176 C173 1.389 . S
C176 H186 0.931 . S
C177 C174 1.380 . S
C177 C175 1.392 . S
C177 H187 0.929 . S
C178 O158 1.266 . S
C178 O159 1.248 . S
C179 Tb115 2.802 . S
C179 O154 1.264 . S
C179 O157 1.256 . S
C179 C172 1.496 1_556 S
H180 C163 0.929 . S
H181 C164 0.929 . S
H182 C165 0.929 . S
H183 C166 0.931 1_455 S
H184 C174 0.929 . S
H185 C175 0.929 1_556 S
H186 C176 0.931 . S
H187 C177 0.929 . S
Tb188 N217 2.617 . S
Tb188 N223 2.572 . S
Tb188 O232 2.465 . S
Tb188 O233 2.387 . S
Tb188 O235 2.428 1_556 S
Tb188 O236 2.308 . S
Tb188 O240 2.349 1_545 S
Tb188 O243 2.393 . S
Tb188 C252 2.802 1_556 S
C189 N190 1.379 . S
C189 C192 1.416 . S
C189 C196 1.424 . S
N190 C189 1.379 . S
N190 C193 1.334 . S
N190 Tb199 2.617 . S
C191 C193 1.390 . S
C191 C194 1.339 . S
C191 H211 0.930 . S
C192 C189 1.416 . S
C192 C194 1.416 . S
C192 C198 1.448 . S
C193 N190 1.334 . S
C193 C191 1.390 . S
C193 H204 0.930 . S
C194 C191 1.339 . S
C194 C192 1.416 . S
C194 H215 0.930 . S
C195 C196 1.413 . S
C195 C197 1.427 . S
C195 C201 1.416 . S
C196 C189 1.424 . S
C196 C195 1.413 . S
C196 N200 1.361 . S
C197 C195 1.427 . S
C197 C198 1.328 . S
C197 H212 0.929 . S
C198 C192 1.448 . S
C198 C197 1.328 . S
C198 H213 0.930 . S
Tb199 N190 2.617 . S
Tb199 N200 2.572 . S
Tb199 O234 2.349 1_565 S
Tb199 O237 2.393 . S
Tb199 O238 2.465 . S
Tb199 O239 2.387 . S
Tb199 O241 2.428 . S
Tb199 O242 2.308 1_565 S
Tb199 C263 2.802 . S
N200 C196 1.361 . S
N200 Tb199 2.572 . S
N200 C202 1.340 . S
C201 C195 1.416 . S
C201 C203 1.332 . S
C201 H209 0.931 . S
C202 N200 1.340 . S
C202 C203 1.407 . S
C202 H208 0.930 . S
C203 C201 1.332 . S
C203 C202 1.407 . S
C203 H205 0.929 . S
H204 C193 0.930 . S
H205 C203 0.929 . S
H206 C221 0.930 1_554 S
H207 C228 0.929 . S
H208 C202 0.930 . S
H209 C201 0.931 . S
H210 C224 0.930 . S
H211 C191 0.930 . S
H212 C197 0.929 . S
H213 C198 0.930 . S
H214 C219 0.930 . S
H215 C194 0.930 . S
H216 C227 0.931 . S
N217 Tb188 2.617 . S
N217 C218 1.379 . S
N217 C221 1.334 . S
C218 N217 1.379 . S
C218 C220 1.416 . S
C218 C226 1.424 . S
C219 H214 0.930 . S
C219 C221 1.390 1_554 S
C219 C222 1.339 1_554 S
C220 C218 1.416 . S
C220 C222 1.416 . S
C220 C253 1.448 . S
C221 H206 0.930 1_556 S
C221 N217 1.334 . S
C221 C219 1.390 1_556 S
C222 C219 1.339 1_556 S
C222 C220 1.416 . S
C222 H229 0.930 . S
N223 Tb188 2.572 . S
N223 C224 1.340 . S
N223 C226 1.361 . S
C224 H210 0.930 . S
C224 N223 1.340 . S
C224 C228 1.407 . S
C225 C226 1.413 . S
C225 C227 1.416 . S
C225 C254 1.427 . S
C226 C218 1.424 . S
C226 N223 1.361 . S
C226 C225 1.413 . S
C227 H216 0.931 . S
C227 C225 1.416 . S
C227 C228 1.332 . S
C228 H207 0.929 . S
C228 C224 1.407 . S
C228 C227 1.332 . S
H229 C222 0.930 . S
H230 C253 0.930 . S
H231 C254 0.929 . S
O232 Tb188 2.465 . S
O232 C252 1.264 1_556 S
O233 Tb188 2.387 . S
O233 C244 1.264 . S
O234 Tb199 2.349 1_545 S
O234 C244 1.243 . S
O235 Tb188 2.428 1_554 S
O235 C252 1.256 . S
O236 Tb188 2.308 . S
O236 C251 1.266 . S
O237 Tb199 2.393 . S
O237 C251 1.248 1_565 S
O238 Tb199 2.465 . S
O238 C263 1.264 . S
O239 Tb199 2.387 . S
O239 C255 1.264 . S
O240 Tb188 2.349 1_565 S
O240 C255 1.243 . S
O241 Tb199 2.428 . S
O241 C263 1.256 . S
O242 Tb199 2.308 1_545 S
O242 C262 1.266 . S
O243 Tb188 2.393 . S
O243 C262 1.248 . S
C244 O233 1.264 . S
C244 O234 1.243 . S
C245 C248 1.399 . S
C245 C250 1.383 . S
C245 C252 1.496 . S
C246 C247 1.399 . S
C246 C250 1.389 . S
C247 C246 1.399 . S
C247 C249 1.380 . S
C247 H264 0.929 . S
C248 C245 1.399 . S
C248 C249 1.392 . S
C248 H265 0.929 . S
C249 C247 1.380 . S
C249 C248 1.392 . S
C249 H266 0.929 . S
C250 C245 1.383 . S
C250 C246 1.389 . S
C250 H267 0.931 . S
C251 O236 1.266 . S
C251 O237 1.248 1_545 S
C252 Tb188 2.802 1_554 S
C252 O232 1.264 1_554 S
C252 O235 1.256 . S
C252 C245 1.496 . S
C253 C220 1.448 . S
C253 H230 0.930 . S
C253 C254 1.328 . S
C254 C225 1.427 . S
C254 H231 0.929 . S
C254 C253 1.328 . S
C255 O239 1.264 . S
C255 O240 1.243 . S
C256 C259 1.399 . S
C256 C260 1.383 . S
C256 C263 1.496 . S
C257 C258 1.399 . S
C257 C260 1.389 . S
C258 C257 1.399 . S
C258 C261 1.380 . S
C258 H268 0.929 . S
C259 C256 1.399 . S
C259 C261 1.392 . S
C259 H269 0.929 . S
C260 C256 1.383 . S
C260 C257 1.389 . S
C260 H270 0.931 1_565 S
C261 C258 1.380 . S
C261 C259 1.392 . S
C261 H271 0.929 . S
C262 O242 1.266 . S
C262 O243 1.248 . S
C263 Tb199 2.802 . S
C263 O238 1.264 . S
C263 O241 1.256 . S
C263 C256 1.496 . S
H264 C247 0.929 . S
H265 C248 0.929 . S
H266 C249 0.929 . S
H267 C250 0.931 . S
H268 C258 0.929 . S
H269 C259 0.929 . S
H270 C260 0.931 1_545 S
H271 C261 0.929 . S
Tb272 N301 2.617 . S
Tb272 N307 2.572 . S
Tb272 O316 2.465 . S
Tb272 O317 2.387 . S
Tb272 O319 2.428 . S
Tb272 O320 2.308 . S
Tb272 O324 2.349 . S
Tb272 O327 2.393 . S
Tb272 C336 2.802 . S
C273 N274 1.389 . S
C273 C276 1.413 1_556 S
C273 C280 1.417 1_556 S
N274 C273 1.389 . S
N274 C277 1.334 . S
N274 Tb283 2.617 . S
C275 C277 1.390 . S
C275 C278 1.339 . S
C275 H295 0.930 . S
C276 C273 1.413 1_554 S
C276 C278 1.416 1_554 S
C276 C282 1.448 . S
C277 N274 1.334 . S
C277 C275 1.390 . S
C277 H288 0.930 . S
C278 C275 1.339 . S
C278 C276 1.416 1_556 S
C278 H299 0.930 . S
C279 C280 1.413 . S
C279 C281 1.427 . S
C279 C285 1.416 . S
C280 C273 1.417 1_554 S
C280 C279 1.413 . S
C280 N284 1.361 . S
C281 C279 1.427 . S
C281 C282 1.328 . S
C281 H296 0.929 . S
C282 C276 1.448 . S
C282 C281 1.328 . S
C282 H297 0.930 . S
Tb283 N274 2.617 . S
Tb283 N284 2.572 1_556 S
Tb283 O318 2.349 . S
Tb283 O321 2.393 . S
Tb283 O322 2.465 . S
Tb283 O323 2.387 . S
Tb283 O325 2.428 . S
Tb283 O326 2.308 . S
Tb283 C347 2.802 . S
N284 C280 1.361 . S
N284 Tb283 2.572 1_554 S
N284 C286 1.340 . S
C285 C279 1.416 . S
C285 C287 1.332 . S
C285 H293 0.931 . S
C286 N284 1.340 . S
C286 C287 1.407 . S
C286 H292 0.930 . S
C287 C285 1.332 . S
C287 C286 1.407 . S
C287 H289 0.929 . S
H288 C277 0.930 . S
H289 C287 0.929 . S
H290 C305 0.930 . S
H291 C312 0.929 . S
H292 C286 0.930 . S
H293 C285 0.931 . S
H294 C308 0.930 . S
H295 C275 0.930 . S
H296 C281 0.929 . S
H297 C282 0.930 . S
H298 C303 0.930 . S
H299 C278 0.930 . S
H300 C311 0.931 . S
N301 Tb272 2.617 . S
N301 C302 1.379 . S
N301 C305 1.334 . S
C302 N301 1.379 . S
C302 C304 1.416 . S
C302 C310 1.424 . S
C303 H298 0.930 . S
C303 C305 1.390 . S
C303 C306 1.339 . S
C304 C302 1.416 . S
C304 C306 1.416 . S
C304 C337 1.448 . S
C305 H290 0.930 . S
C305 N301 1.334 . S
C305 C303 1.390 . S
C306 C303 1.339 . S
C306 C304 1.416 . S
C306 H313 0.930 . S
N307 Tb272 2.572 . S
N307 C308 1.340 . S
N307 C310 1.361 . S
C308 H294 0.930 . S
C308 N307 1.340 . S
C308 C312 1.407 . S
C309 C310 1.413 . S
C309 C311 1.416 . S
C309 C338 1.427 . S
C310 C302 1.424 . S
C310 N307 1.361 . S
C310 C309 1.413 . S
C311 H300 0.931 . S
C311 C309 1.416 . S
C311 C312 1.332 . S
C312 H291 0.929 . S
C312 C308 1.407 . S
C312 C311 1.332 . S
H313 C306 0.930 . S
H314 C337 0.930 . S
H315 C338 0.929 . S
O316 Tb272 2.465 . S
O316 C336 1.264 . S
O317 Tb272 2.387 . S
O317 C328 1.264 . S
O318 Tb283 2.349 . S
O318 C328 1.243 . S
O319 Tb272 2.428 . S
O319 C336 1.256 . S
O320 Tb272 2.308 . S
O320 C335 1.266 . S
O321 Tb283 2.393 . S
O321 C335 1.248 . S
O322 Tb283 2.465 . S
O322 C347 1.264 . S
O323 Tb283 2.387 . S
O323 C339 1.264 . S
O324 Tb272 2.349 . S
O324 C339 1.243 . S
O325 Tb283 2.428 . S
O325 C347 1.256 . S
O326 Tb283 2.308 . S
O326 C346 1.266 . S
O327 Tb272 2.393 . S
O327 C346 1.248 . S
C328 O317 1.264 . S
C328 O318 1.243 . S
C329 C332 1.399 . S
C329 C334 1.383 . S
C329 C336 1.496 . S
C330 C331 1.399 . S
C330 C334 1.389 . S
C331 C330 1.399 . S
C331 C333 1.380 . S
C331 H348 0.929 . S
C332 C329 1.399 . S
C332 C333 1.392 . S
C332 H349 0.929 . S
C333 C331 1.380 . S
C333 C332 1.392 . S
C333 H350 0.929 . S
C334 C329 1.383 . S
C334 C330 1.389 . S
C334 H351 0.931 . S
C335 O320 1.266 . S
C335 O321 1.248 . S
C336 Tb272 2.802 . S
C336 O316 1.264 . S
C336 O319 1.256 . S
C336 C329 1.496 . S
C337 C304 1.448 . S
C337 H314 0.930 . S
C337 C338 1.328 . S
C338 C309 1.427 . S
C338 H315 0.929 . S
C338 C337 1.328 . S
C339 O323 1.264 . S
C339 O324 1.243 . S
C340 C343 1.399 . S
C340 C344 1.383 . S
C340 C347 1.496 1_554 S
C341 C342 1.399 . S
C341 C344 1.389 . S
C342 C341 1.399 . S
C342 C345 1.380 . S
C342 H352 0.929 . S
C343 C340 1.399 . S
C343 C345 1.392 . S
C343 H353 0.929 1_554 S
C344 C340 1.383 . S
C344 C341 1.389 . S
C344 H354 0.931 . S
C345 C342 1.380 . S
C345 C343 1.392 . S
C345 H355 0.929 . S
C346 O326 1.266 . S
C346 O327 1.248 . S
C347 Tb283 2.802 . S
C347 O322 1.264 . S
C347 O325 1.256 . S
C347 C340 1.496 1_556 S
H348 C331 0.929 . S
H349 C332 0.929 . S
H350 C333 0.929 . S
H351 C334 0.931 . S
H352 C342 0.929 . S
H353 C343 0.929 1_556 S
H354 C344 0.931 . S
H355 C345 0.929 . S
Tb356 N385 2.617 . S
Tb356 N391 2.572 . S
Tb356 O400 2.465 . S
Tb356 O401 2.387 1_455 S
Tb356 O403 2.428 . S
Tb356 O404 2.308 . S
Tb356 O408 2.349 . S
Tb356 O411 2.393 . S
Tb356 C420 2.802 . S
C357 N358 1.379 . S
C357 C360 1.416 1_556 S
C357 C364 1.424 1_556 S
N358 C357 1.379 . S
N358 C361 1.336 . S
N358 Tb367 2.617 1_455 S
C359 C361 1.396 . S
C359 C362 1.339 . S
C359 H379 0.930 . S
C360 C357 1.416 1_554 S
C360 C362 1.416 1_554 S
C360 C366 1.448 . S
C361 N358 1.336 . S
C361 C359 1.396 . S
C361 H372 0.922 1_455 S
C362 C359 1.339 . S
C362 C360 1.416 1_556 S
C362 H383 0.930 . S
C363 C364 1.413 . S
C363 C365 1.427 . S
C363 C369 1.416 . S
C364 C357 1.424 1_554 S
C364 C363 1.413 . S
C364 N368 1.361 . S
C365 C363 1.427 . S
C365 C366 1.328 . S
C365 H380 0.929 . S
C366 C360 1.448 . S
C366 C365 1.328 . S
C366 H381 0.930 . S
Tb367 N358 2.617 1_655 S
Tb367 N368 2.572 1_656 S
Tb367 O402 2.349 . S
Tb367 O405 2.393 . S
Tb367 O406 2.465 . S
Tb367 O407 2.387 1_655 S
Tb367 O409 2.428 . S
Tb367 O410 2.308 1_655 S
Tb367 C431 2.802 . S
N368 C364 1.361 . S
N368 Tb367 2.572 1_454 S
N368 C370 1.340 . S
C369 C363 1.416 . S
C369 C371 1.332 . S
C369 H377 0.931 . S
C370 N368 1.340 . S
C370 C371 1.407 . S
C370 H376 0.930 . S
C371 C369 1.332 . S
C371 C370 1.407 . S
C371 H373 0.929 . S
H372 C361 0.922 1_655 S
H373 C371 0.929 . S
H374 C389 0.930 . S
H375 C396 0.929 . S
H376 C370 0.930 . S
H377 C369 0.931 . S
H378 C392 0.930 . S
H379 C359 0.930 . S
H380 C365 0.929 . S
H381 C366 0.930 . S
H382 C387 0.930 . S
H383 C362 0.930 . S
H384 C395 0.931 . S
N385 Tb356 2.617 . S
N385 C386 1.379 1_455 S
N385 C389 1.334 . S
C386 N385 1.379 1_655 S
C386 C388 1.416 . S
C386 C394 1.424 . S
C387 H382 0.930 . S
C387 C389 1.390 . S
C387 C390 1.339 1_455 S
C388 C386 1.416 . S
C388 C390 1.416 . S
C388 C421 1.448 . S
C389 H374 0.930 . S
C389 N385 1.334 . S
C389 C387 1.390 . S
C390 C387 1.339 1_655 S
C390 C388 1.416 . S
C390 H397 0.930 . S
N391 Tb356 2.572 . S
N391 C392 1.340 . S
N391 C394 1.361 1_455 S
C392 H378 0.930 . S
C392 N391 1.340 . S
C392 C396 1.407 1_455 S
C393 C394 1.413 . S
C393 C395 1.416 . S
C393 C422 1.427 . S
C394 C386 1.424 . S
C394 N391 1.361 1_655 S
C394 C393 1.413 . S
C395 H384 0.931 . S
C395 C393 1.416 . S
C395 C396 1.332 . S
C396 H375 0.929 . S
C396 C392 1.407 1_655 S
C396 C395 1.332 . S
H397 C390 0.930 . S
H398 C421 0.930 . S
H399 C422 0.929 . S
O400 Tb356 2.465 . S
O400 C420 1.264 . S
O401 Tb356 2.387 1_655 S
O401 C412 1.264 . S
O402 Tb367 2.349 . S
O402 C412 1.243 . S
O403 Tb356 2.428 . S
O403 C420 1.256 . S
O404 Tb356 2.308 . S
O404 C419 1.266 . S
O405 Tb367 2.393 . S
O405 C419 1.248 1_655 S
O406 Tb367 2.465 . S
O406 C431 1.264 . S
O407 Tb367 2.387 1_455 S
O407 C423 1.264 . S
O408 Tb356 2.349 . S
O408 C423 1.243 . S
O409 Tb367 2.428 . S
O409 C431 1.256 . S
O410 Tb367 2.308 1_455 S
O410 C430 1.266 . S
O411 Tb356 2.393 . S
O411 C430 1.248 . S
C412 O401 1.264 . S
C412 O402 1.243 . S
C413 C416 1.399 . S
C413 C418 1.383 . S
C413 C420 1.496 . S
C414 C415 1.399 . S
C414 C418 1.389 . S
C415 C414 1.399 . S
C415 C417 1.380 . S
C415 H432 0.929 . S
C416 C413 1.399 . S
C416 C417 1.392 . S
C416 H433 0.929 . S
C417 C415 1.380 . S
C417 C416 1.392 . S
C417 H434 0.929 . S
C418 C413 1.383 . S
C418 C414 1.389 . S
C418 H435 0.931 . S
C419 O404 1.266 . S
C419 O405 1.248 1_455 S
C420 Tb356 2.802 . S
C420 O400 1.264 . S
C420 O403 1.256 . S
C420 C413 1.496 . S
C421 C388 1.448 . S
C421 H398 0.930 . S
C421 C422 1.328 . S
C422 C393 1.427 . S
C422 H399 0.929 . S
C422 C421 1.328 . S
C423 O407 1.264 . S
C423 O408 1.243 . S
C424 C427 1.399 . S
C424 C428 1.383 . S
C424 C431 1.496 1_554 S
C425 C426 1.399 . S
C425 C428 1.389 . S
C426 C425 1.399 . S
C426 C429 1.380 . S
C426 H436 0.929 . S
C427 C424 1.399 . S
C427 C429 1.392 . S
C427 H437 0.929 1_554 S
C428 C424 1.383 . S
C428 C425 1.389 . S
C428 H438 0.931 . S
C429 C426 1.380 . S
C429 C427 1.392 . S
C429 H439 0.929 . S
C430 O410 1.266 . S
C430 O411 1.248 . S
C431 Tb367 2.802 . S
C431 O406 1.264 . S
C431 O409 1.256 . S
C431 C424 1.496 1_556 S
H432 C415 0.929 . S
H433 C416 0.929 . S
H434 C417 0.929 . S
H435 C418 0.931 . S
H436 C426 0.929 . S
H437 C427 0.929 1_556 S
H438 C428 0.931 . S
H439 C429 0.929 . S
H440 C446 0.930 1_565 S
H441 C449 0.930 . S
H442 C450 0.930 . S
H443 C451 0.930 . S
H444 C454 0.930 . S
H445 C455 0.930 . S
C446 H440 0.930 1_545 S
C446 C447 1.355 . S
C446 C448 1.415 . S
C447 C446 1.355 . S
C447 C449 1.419 . S
C448 C446 1.415 . S
C448 C453 1.425 . S
C448 C455 1.409 1_545 S
C449 H441 0.930 . S
C449 C447 1.419 . S
C449 C450 1.362 . S
C450 H442 0.930 . S
C450 C449 1.362 . S
C450 C453 1.409 . S
C451 H443 0.930 . S
C451 C452 1.355 . S
C451 C453 1.415 . S
C452 C451 1.355 . S
C452 C454 1.419 1_545 S
C453 C448 1.425 . S
C453 C450 1.409 . S
C453 C451 1.415 . S
C454 H444 0.930 . S
C454 C452 1.419 1_565 S
C454 C455 1.362 . S
C455 H445 0.930 . S
C455 C448 1.409 1_565 S
C455 C454 1.362 . S
H456 C462 0.930 . S
H457 C465 0.930 . S
H458 C466 0.930 . S
H459 C467 0.930 . S
H460 C470 0.930 . S
H461 C471 0.930 . S
C462 H456 0.930 . S
C462 C463 1.355 . S
C462 C464 1.415 . S
C463 C462 1.355 . S
C463 C465 1.419 . S
C464 C462 1.415 . S
C464 C469 1.425 . S
C464 C471 1.409 . S
C465 H457 0.930 . S
C465 C463 1.419 . S
C465 C466 1.362 . S
C466 H458 0.930 . S
C466 C465 1.362 . S
C466 C469 1.409 . S
C467 H459 0.930 . S
C467 C468 1.355 . S
C467 C469 1.415 . S
C468 C467 1.355 . S
C468 C470 1.419 . S
C469 C464 1.425 . S
C469 C466 1.409 . S
C469 C467 1.415 . S
C470 H460 0.930 . S
C470 C468 1.419 . S
C470 C471 1.362 . S
C471 H461 0.930 . S
C471 C464 1.409 . S
C471 C470 1.362 . S
H472 C478 0.930 . S
H473 C481 0.930 . S
H474 C482 0.930 . S
H475 C483 0.930 . S
H476 C486 0.930 . S
H477 C487 0.930 . S
C478 H472 0.930 . S
C478 C479 1.355 . S
C478 C480 1.415 . S
C479 C478 1.355 . S
C479 C481 1.419 . S
C480 C478 1.415 . S
C480 C485 1.425 . S
C480 C487 1.409 . S
C481 H473 0.930 . S
C481 C479 1.419 . S
C481 C482 1.362 . S
C482 H474 0.930 . S
C482 C481 1.362 . S
C482 C485 1.409 . S
C483 H475 0.930 . S
C483 C484 1.355 . S
C483 C485 1.415 . S
C484 C483 1.355 . S
C484 C486 1.419 . S
C485 C480 1.425 . S
C485 C482 1.409 . S
C485 C483 1.415 . S
C486 H476 0.930 . S
C486 C484 1.419 . S
C486 C487 1.362 . S
C487 H477 0.930 . S
C487 C480 1.409 . S
C487 C486 1.362 . S
H488 C494 0.930 . S
H489 C497 0.930 . S
H490 C498 0.930 . S
H491 C499 0.930 . S
H492 C502 0.930 . S
H493 C503 0.930 . S
C494 H488 0.930 . S
C494 C495 1.355 . S
C494 C496 1.415 . S
C495 C494 1.355 . S
C495 C497 1.419 . S
C496 C494 1.415 . S
C496 C501 1.425 . S
C496 C503 1.409 . S
C497 H489 0.930 . S
C497 C495 1.419 . S
C497 C498 1.362 . S
C498 H490 0.930 . S
C498 C497 1.362 . S
C498 C501 1.409 . S
C499 H491 0.930 . S
C499 C500 1.355 . S
C499 C501 1.415 . S
C500 C499 1.355 . S
C500 C502 1.419 . S
C501 C496 1.425 . S
C501 C498 1.409 . S
C501 C499 1.415 . S
C502 H492 0.930 . S
C502 C500 1.419 . S
C502 C503 1.362 . S
C503 H493 0.930 . S
C503 C496 1.409 . S
C503 C502 1.362 . S
H504 C510 0.930 . S
H505 C513 0.930 . S
H506 C514 0.930 . S
H507 C515 0.930 . S
H508 C518 0.930 . S
H509 C519 0.930 . S
C510 H504 0.930 . S
C510 C511 1.355 1_545 S
C510 C512 1.415 . S
C511 C510 1.355 1_565 S
C511 C513 1.419 . S
C512 C510 1.415 . S
C512 C517 1.425 1_545 S
C512 C519 1.409 . S
C513 H505 0.930 . S
C513 C511 1.419 . S
C513 C514 1.362 . S
C514 H506 0.930 . S
C514 C513 1.362 . S
C514 C517 1.409 . S
C515 H507 0.930 . S
C515 C516 1.355 1_565 S
C515 C517 1.415 1_556 S
C516 C515 1.355 1_545 S
C516 C518 1.419 1_556 S
C517 C512 1.425 1_565 S
C517 C514 1.409 . S
C517 C515 1.415 1_554 S
C518 H508 0.930 . S
C518 C516 1.419 1_554 S
C518 C519 1.362 . S
C519 H509 0.930 . S
C519 C512 1.409 . S
C519 C518 1.362 . S
H520 C526 0.930 . S
H521 C529 0.930 . S
H522 C530 0.930 . S
H523 C531 0.930 . S
H524 C534 0.930 . S
H525 C535 0.930 . S
C526 H520 0.930 . S
C526 C527 1.355 . S
C526 C528 1.415 . S
C527 C526 1.355 . S
C527 C529 1.419 . S
C528 C526 1.415 . S
C528 C533 1.425 . S
C528 C535 1.409 . S
C529 H521 0.930 . S
C529 C527 1.419 . S
C529 C530 1.362 . S
C530 H522 0.930 . S
C530 C529 1.362 . S
C530 C533 1.409 . S
C531 H523 0.930 . S
C531 C532 1.355 1_554 S
C531 C533 1.415 . S
C532 C531 1.355 1_556 S
C532 C534 1.419 . S
C533 C528 1.425 . S
C533 C530 1.409 . S
C533 C531 1.415 . S
C534 H524 0.930 . S
C534 C532 1.419 . S
C534 C535 1.362 1_556 S
C535 H525 0.930 . S
C535 C528 1.409 . S
C535 C534 1.362 1_554 S
H536 C542 0.930 . S
H537 C545 0.930 . S
H538 C546 0.930 . S
H539 C547 0.930 . S
H540 C550 0.930 . S
H541 C551 0.930 . S
C542 H536 0.930 . S
C542 C543 1.355 . S
C542 C544 1.415 . S
C543 C542 1.355 . S
C543 C545 1.419 . S
C544 C542 1.415 . S
C544 C549 1.425 . S
C544 C551 1.409 . S
C545 H537 0.930 . S
C545 C543 1.419 . S
C545 C546 1.362 . S
C546 H538 0.930 . S
C546 C545 1.362 . S
C546 C549 1.409 . S
C547 H539 0.930 . S
C547 C548 1.355 1_554 S
C547 C549 1.415 . S
C548 C547 1.355 1_556 S
C548 C550 1.419 . S
C549 C544 1.425 . S
C549 C546 1.409 . S
C549 C547 1.415 . S
C550 H540 0.930 . S
C550 C548 1.419 . S
C550 C551 1.362 1_556 S
C551 H541 0.930 . S
C551 C544 1.409 . S
C551 C550 1.362 1_554 S
H552 C558 0.930 . S
H553 C561 0.930 . S
H554 C562 0.930 . S
H555 C563 0.930 . S
H556 C566 0.930 . S
H557 C567 0.930 . S
C558 H552 0.930 . S
C558 C559 1.355 . S
C558 C560 1.415 . S
C559 C558 1.355 . S
C559 C561 1.419 1_655 S
C560 C558 1.415 . S
C560 C565 1.425 1_655 S
C560 C567 1.409 . S
C561 H553 0.930 . S
C561 C559 1.419 1_455 S
C561 C562 1.362 . S
C562 H554 0.930 . S
C562 C561 1.362 . S
C562 C565 1.409 . S
C563 H555 0.930 . S
C563 C564 1.355 1_454 S
C563 C565 1.415 . S
C564 C563 1.355 1_656 S
C564 C566 1.419 . S
C565 C560 1.425 1_455 S
C565 C562 1.409 . S
C565 C563 1.415 . S
C566 H556 0.930 . S
C566 C564 1.419 . S
C566 C567 1.362 1_556 S
C567 H557 0.930 . S
C567 C560 1.409 . S
C567 C566 1.362 1_554 S
H568 C574 0.930 1_655 S
H569 C577 0.930 . S
H570 C578 0.930 . S
H571 C579 0.930 . S
H572 C582 0.930 . S
H573 C583 0.930 . S
C574 H568 0.930 1_455 S
C574 C575 1.355 . S
C574 C576 1.415 . S
C575 C574 1.355 . S
C575 C577 1.419 . S
C576 C574 1.415 . S
C576 C581 1.425 . S
C576 C583 1.409 1_455 S
C577 H569 0.930 . S
C577 C575 1.419 . S
C577 C578 1.362 . S
C578 H570 0.930 . S
C578 C577 1.362 . S
C578 C581 1.409 . S
C579 H571 0.930 . S
C579 C580 1.355 1_455 S
C579 C581 1.415 . S
C580 C579 1.355 1_655 S
C580 C582 1.419 . S
C581 C576 1.425 . S
C581 C578 1.409 . S
C581 C579 1.415 . S
C582 H572 0.930 . S
C582 C580 1.419 . S
C582 C583 1.362 . S
C583 H573 0.930 . S
C583 C576 1.409 1_655 S
C583 C582 1.362 . S
H584 C590 0.930 . S
H585 C593 0.930 1_556 S
H586 C594 0.930 . S
H587 C595 0.928 1_565 S
H588 C598 0.930 . S
H589 C599 0.930 . S
C590 H584 0.930 . S
C590 C591 1.355 . S
C590 C592 1.415 . S
C591 C590 1.355 . S
C591 C593 1.419 . S
C592 C590 1.415 . S
C592 C597 1.425 . S
C592 C599 1.409 . S
C593 H585 0.930 1_554 S
C593 C591 1.419 . S
C593 C594 1.362 . S
C594 H586 0.930 . S
C594 C593 1.362 . S
C594 C597 1.409 . S
C595 H587 0.928 1_545 S
C595 C596 1.355 . S
C595 C597 1.416 . S
C596 C595 1.355 . S
C596 C598 1.419 . S
C597 C592 1.425 . S
C597 C594 1.409 . S
C597 C595 1.416 . S
C598 H588 0.930 . S
C598 C596 1.419 . S
C598 C599 1.362 . S
C599 H589 0.930 . S
C599 C592 1.409 . S
C599 C598 1.362 . S
H600 C606 0.930 . S
H601 C609 0.930 . S
H602 C610 0.930 . S
H603 C611 0.930 . S
H604 C614 0.930 . S
H605 C615 0.930 . S
C606 H600 0.930 . S
C606 C607 1.355 . S
C606 C608 1.415 . S
C607 C606 1.355 . S
C607 C609 1.419 . S
C608 C606 1.415 . S
C608 C613 1.425 . S
C608 C615 1.409 . S
C609 H601 0.930 . S
C609 C607 1.419 . S
C609 C610 1.362 . S
C610 H602 0.930 . S
C610 C609 1.362 . S
C610 C613 1.409 . S
C611 H603 0.930 . S
C611 C612 1.355 . S
C611 C613 1.415 . S
C612 C611 1.355 . S
C612 C614 1.419 . S
C613 C608 1.425 . S
C613 C610 1.409 . S
C613 C611 1.415 . S
C614 H604 0.930 . S
C614 C612 1.419 . S
C614 C615 1.362 . S
C615 H605 0.930 . S
C615 C608 1.409 . S
C615 C614 1.362 . S
H616 C622 0.930 . S
H617 C625 0.930 1_556 S
H618 C626 0.930 . S
H619 C627 0.930 . S
H620 C630 0.930 . S
H621 C631 0.930 . S
C622 H616 0.930 . S
C622 C623 1.355 . S
C622 C624 1.415 . S
C623 C622 1.355 . S
C623 C625 1.419 . S
C624 C622 1.415 . S
C624 C629 1.425 . S
C624 C631 1.409 . S
C625 H617 0.930 1_554 S
C625 C623 1.419 . S
C625 C626 1.362 . S
C626 H618 0.930 . S
C626 C625 1.362 . S
C626 C629 1.409 . S
C627 H619 0.930 . S
C627 C628 1.355 . S
C627 C629 1.415 . S
C628 C627 1.355 . S
C628 C630 1.419 . S
C629 C624 1.425 . S
C629 C626 1.409 . S
C629 C627 1.415 . S
C630 H620 0.930 . S
C630 C628 1.419 . S
C630 C631 1.362 . S
C631 H621 0.930 . S
C631 C624 1.409 . S
C631 C630 1.362 . S
H632 C638 0.930 . S
H633 C641 0.930 . S
H634 C642 0.930 . S
H635 C643 0.930 . S
H636 C646 0.930 . S
H637 C647 0.925 1_655 S
C638 H632 0.930 . S
C638 C639 1.355 . S
C638 C640 1.415 . S
C639 C638 1.355 . S
C639 C641 1.419 . S
C640 C638 1.415 . S
C640 C645 1.425 1_655 S
C640 C647 1.409 1_655 S
C641 H633 0.930 . S
C641 C639 1.419 . S
C641 C642 1.362 1_655 S
C642 H634 0.930 . S
C642 C641 1.362 1_455 S
C642 C645 1.409 . S
C643 H635 0.930 . S
C643 C644 1.355 . S
C643 C645 1.415 . S
C644 C643 1.355 . S
C644 C646 1.419 . S
C645 C640 1.425 1_455 S
C645 C642 1.409 . S
C645 C643 1.415 . S
C646 H636 0.930 . S
C646 C644 1.419 . S
C646 C647 1.362 . S
C647 H637 0.925 1_455 S
C647 C640 1.409 1_455 S
C647 C646 1.362 . S
H648 C654 0.930 . S
H649 C657 0.930 . S
H650 C658 0.930 . S
H651 C659 0.930 . S
H652 C662 0.930 . S
H653 C663 0.930 . S
C654 H648 0.930 . S
C654 C655 1.355 1_545 S
C654 C656 1.415 . S
C655 C654 1.355 1_565 S
C655 C657 1.419 . S
C656 C654 1.415 . S
C656 C661 1.425 1_545 S
C656 C663 1.409 . S
C657 H649 0.930 . S
C657 C655 1.419 . S
C657 C658 1.362 . S
C658 H650 0.930 . S
C658 C657 1.362 . S
C658 C661 1.409 . S
C659 H651 0.930 . S
C659 C660 1.355 1_565 S
C659 C661 1.415 . S
C660 C659 1.355 1_545 S
C660 C662 1.419 . S
C661 C656 1.425 1_565 S
C661 C658 1.409 . S
C661 C659 1.415 . S
C662 H652 0.930 . S
C662 C660 1.419 . S
C662 C663 1.362 . S
C663 H653 0.930 . S
C663 C656 1.409 . S
C663 C662 1.362 . S
H664 C670 0.930 . S
H665 C673 0.930 . S
H666 C674 0.930 . S
H667 C675 0.930 . S
H668 C678 0.930 . S
H669 C679 0.930 . S
C670 H664 0.930 . S
C670 C671 1.355 . S
C670 C672 1.415 . S
C671 C670 1.355 . S
C671 C673 1.419 . S
C672 C670 1.415 . S
C672 C677 1.425 . S
C672 C679 1.409 . S
C673 H665 0.930 . S
C673 C671 1.419 . S
C673 C674 1.362 . S
C674 H666 0.930 . S
C674 C673 1.362 . S
C674 C677 1.409 . S
C675 H667 0.930 . S
C675 C676 1.355 . S
C675 C677 1.415 . S
C676 C675 1.355 . S
C676 C678 1.419 . S
C677 C672 1.425 . S
C677 C674 1.409 . S
C677 C675 1.415 . S
C678 H668 0.930 . S
C678 C676 1.419 . S
C678 C679 1.362 . S
C679 H669 0.930 . S
C679 C672 1.409 . S
C679 C678 1.362 . S
H680 C686 0.930 . S
H681 C689 0.930 . S
H682 C690 0.930 . S
H683 C691 0.930 . S
H684 C694 0.930 . S
H685 C695 0.930 . S
C686 H680 0.930 . S
C686 C687 1.355 . S
C686 C688 1.415 . S
C687 C686 1.355 . S
C687 C689 1.419 . S
C688 C686 1.415 . S
C688 C693 1.425 . S
C688 C695 1.409 . S
C689 H681 0.930 . S
C689 C687 1.419 . S
C689 C690 1.362 . S
C690 H682 0.930 . S
C690 C689 1.362 . S
C690 C693 1.409 . S
C691 H683 0.930 . S
C691 C692 1.355 . S
C691 C693 1.415 . S
C692 C691 1.355 . S
C692 C694 1.419 . S
C693 C688 1.425 . S
C693 C690 1.409 . S
C693 C691 1.415 . S
C694 H684 0.930 . S
C694 C692 1.419 . S
C694 C695 1.362 . S
C695 H685 0.930 . S
C695 C688 1.409 . S
C695 C694 1.362 . S
H696 C702 0.930 . S
H697 C705 0.930 . S
H698 C706 0.930 . S
H699 C707 0.930 1_655 S
H700 C710 0.930 . S
H701 C711 0.930 . S
C702 H696 0.930 . S
C702 C703 1.355 . S
C702 C704 1.415 . S
C703 C702 1.355 . S
C703 C705 1.419 1_455 S
C704 C702 1.415 . S
C704 C709 1.425 . S
C704 C711 1.409 . S
C705 H697 0.930 . S
C705 C703 1.419 1_655 S
C705 C706 1.362 . S
C706 H698 0.930 . S
C706 C705 1.362 . S
C706 C709 1.409 1_655 S
C707 H699 0.930 1_455 S
C707 C708 1.355 . S
C707 C709 1.415 . S
C708 C707 1.355 . S
C708 C710 1.419 . S
C709 C704 1.425 . S
C709 C706 1.409 1_455 S
C709 C707 1.415 . S
C710 H700 0.930 . S
C710 C708 1.419 . S
C710 C711 1.362 . S
C711 H701 0.930 . S
C711 C704 1.409 . S
C711 C710 1.362 . S
H712 C718 0.930 . S
H713 C721 0.930 . S
H714 C722 0.930 . S
H715 C723 0.930 . S
H716 C726 0.930 . S
H717 C727 0.930 . S
C718 H712 0.930 . S
C718 C719 1.355 . S
C718 C720 1.415 . S
C719 C718 1.355 . S
C719 C721 1.419 1_556 S
C720 C718 1.415 . S
C720 C725 1.425 . S
C720 C727 1.409 . S
C721 H713 0.930 . S
C721 C719 1.419 1_554 S
C721 C722 1.362 . S
C722 H714 0.930 . S
C722 C721 1.362 . S
C722 C725 1.409 1_554 S
C723 H715 0.930 . S
C723 C724 1.355 . S
C723 C725 1.415 . S
C724 C723 1.355 . S
C724 C726 1.419 . S
C725 C720 1.425 . S
C725 C722 1.409 1_556 S
C725 C723 1.415 . S
C726 H716 0.930 . S
C726 C724 1.419 . S
C726 C727 1.362 . S
C727 H717 0.930 . S
C727 C720 1.409 . S
C727 C726 1.362 . S
H728 C734 0.930 . S
H729 C737 0.930 . S
H730 C738 0.930 . S
H731 C739 0.930 . S
H732 C742 0.930 . S
H733 C743 0.930 . S
C734 H728 0.930 . S
C734 C735 1.355 . S
C734 C736 1.415 . S
C735 C734 1.355 . S
C735 C737 1.419 . S
C736 C734 1.415 . S
C736 C741 1.425 . S
C736 C743 1.409 . S
C737 H729 0.930 . S
C737 C735 1.419 . S
C737 C738 1.362 . S
C738 H730 0.930 . S
C738 C737 1.362 . S
C738 C741 1.409 . S
C739 H731 0.930 . S
C739 C740 1.355 . S
C739 C741 1.415 . S
C740 C739 1.355 . S
C740 C742 1.419 . S
C741 C736 1.425 . S
C741 C738 1.409 . S
C741 C739 1.415 . S
C742 H732 0.930 . S
C742 C740 1.419 . S
C742 C743 1.362 . S
C743 H733 0.930 . S
C743 C736 1.409 . S
C743 C742 1.362 . S
H744 C750 0.930 . S
H745 C753 0.930 . S
H746 C754 0.930 . S
H747 C755 0.930 . S
H748 C758 0.930 . S
H749 C759 0.930 . S
C750 H744 0.930 . S
C750 C751 1.355 . S
C750 C752 1.415 . S
C751 C750 1.355 . S
C751 C753 1.419 . S
C752 C750 1.415 . S
C752 C757 1.425 . S
C752 C759 1.409 . S
C753 H745 0.930 . S
C753 C751 1.419 . S
C753 C754 1.362 . S
C754 H746 0.930 . S
C754 C753 1.362 . S
C754 C757 1.409 . S
C755 H747 0.930 . S
C755 C756 1.355 . S
C755 C757 1.415 . S
C756 C755 1.355 . S
C756 C758 1.419 . S
C757 C752 1.425 . S
C757 C754 1.409 . S
C757 C755 1.415 . S
C758 H748 0.930 . S
C758 C756 1.419 . S
C758 C759 1.362 . S
C759 H749 0.930 . S
C759 C752 1.409 . S
C759 C758 1.362 . S
H760 C766 0.930 . S
H761 C769 0.930 . S
H762 C770 0.930 . S
H763 C771 0.930 . S
H764 C774 0.930 . S
H765 C775 0.930 . S
C766 H760 0.930 . S
C766 C767 1.355 . S
C766 C768 1.415 . S
C767 C766 1.355 . S
C767 C769 1.419 1_655 S
C768 C766 1.415 . S
C768 C773 1.425 1_655 S
C768 C775 1.409 . S
C769 H761 0.930 . S
C769 C767 1.419 1_455 S
C769 C770 1.362 . S
C770 H762 0.930 . S
C770 C769 1.362 . S
C770 C773 1.409 . S
C771 H763 0.930 . S
C771 C772 1.355 1_455 S
C771 C773 1.415 . S
C772 C771 1.355 1_655 S
C772 C774 1.419 . S
C773 C768 1.425 1_455 S
C773 C770 1.409 . S
C773 C771 1.415 . S
C774 H764 0.930 . S
C774 C772 1.419 . S
C774 C775 1.362 . S
C775 H765 0.930 . S
C775 C768 1.409 . S
C775 C774 1.362 . S
H776 C782 0.930 . S
H777 C785 0.930 . S
H778 C786 0.930 . S
H779 C787 0.930 . S
H780 C790 0.930 . S
H781 C791 0.930 . S
C782 H776 0.930 . S
C782 C783 1.355 1_545 S
C782 C784 1.415 . S
C783 C782 1.355 1_565 S
C783 C785 1.419 . S
C784 C782 1.415 . S
C784 C789 1.425 1_545 S
C784 C791 1.409 . S
C785 H777 0.930 . S
C785 C783 1.419 . S
C785 C786 1.362 . S
C786 H778 0.930 . S
C786 C785 1.362 . S
C786 C789 1.409 . S
C787 H779 0.930 . S
C787 C788 1.355 . S
C787 C789 1.415 . S
C788 C787 1.355 . S
C788 C790 1.419 1_565 S
C789 C784 1.425 1_565 S
C789 C786 1.409 . S
C789 C787 1.415 . S
C790 H780 0.930 . S
C790 C788 1.419 1_545 S
C790 C791 1.362 . S
C791 H781 0.930 . S
C791 C784 1.409 . S
C791 C790 1.362 . S
H792 C798 0.930 . S
H793 C801 0.930 . S
H794 C802 0.930 . S
H795 C803 0.930 . S
H796 C806 0.930 . S
H797 C807 0.930 . S
C798 H792 0.930 . S
C798 C799 1.355 . S
C798 C800 1.415 . S
C799 C798 1.355 . S
C799 C801 1.419 . S
C800 C798 1.415 . S
C800 C805 1.425 . S
C800 C807 1.409 . S
C801 H793 0.930 . S
C801 C799 1.419 . S
C801 C802 1.362 . S
C802 H794 0.930 . S
C802 C801 1.362 . S
C802 C805 1.409 . S
C803 H795 0.930 . S
C803 C804 1.355 . S
C803 C805 1.415 . S
C804 C803 1.355 . S
C804 C806 1.419 . S
C805 C800 1.425 . S
C805 C802 1.409 . S
C805 C803 1.415 . S
C806 H796 0.930 . S
C806 C804 1.419 . S
C806 C807 1.362 . S
C807 H797 0.930 . S
C807 C800 1.409 . S
C807 C806 1.362 . S
H808 C814 0.930 . S
H809 C817 0.930 . S
H810 C818 0.930 . S
H811 C819 0.930 . S
H812 C822 0.930 . S
H813 C823 0.930 . S
C814 H808 0.930 . S
C814 C815 1.355 . S
C814 C816 1.415 . S
C815 C814 1.355 . S
C815 C817 1.419 . S
C816 C814 1.415 . S
C816 C821 1.425 . S
C816 C823 1.409 . S
C817 H809 0.930 . S
C817 C815 1.419 . S
C817 C818 1.362 . S
C818 H810 0.930 . S
C818 C817 1.362 . S
C818 C821 1.409 . S
C819 H811 0.930 . S
C819 C820 1.355 . S
C819 C821 1.415 . S
C820 C819 1.355 . S
C820 C822 1.419 . S
C821 C816 1.425 . S
C821 C818 1.409 . S
C821 C819 1.415 . S
C822 H812 0.930 . S
C822 C820 1.419 . S
C822 C823 1.362 . S
C823 H813 0.930 . S
C823 C816 1.409 . S
C823 C822 1.362 . S
C447 N80 1.966 . S
C452 C167 2.040 . S
C468 C244 2.071 . S
C463 N93 1.978 . S
C484 C335 2.043 . S
C479 N54 1.927 . S
C500 C419 2.029 . S
C495 N67 1.927 . S
C516 C178 2.045 . S
C511 N28 1.938 . S
C527 N41 1.996 . S
C532 C255 2.083 . S
C543 N2 1.980 . S
C548 C346 2.043 . S
C559 N15 1.990 . S
C564 C430 2.057 1_655 S
C580 C162 0.635 . S
C575 N70 0.620 . S
C596 C257 0.704 1_545 S
C591 N83 0.606 . S
C612 C330 0.570 . S
C607 N96 0.657 . S
C623 N57 0.624 . S
C628 C414 0.550 . S
C639 N18 0.597 . S
C644 C173 0.667 . S
C660 C246 0.621 . S
C655 N31 0.637 . S
C676 C341 0.714 . S
C671 N44 0.552 . S
C687 N5 0.553 . S
C692 C425 0.694 . S
C703 N66 2.069 . S
C708 C171 2.159 . S
C719 N79 2.042 . S
C724 C262 2.176 . S
C740 C339 2.164 . S
C735 N92 2.079 . S
C756 C423 2.168 . S
C751 N53 2.081 . S
C767 N14 2.068 . S
C772 C160 2.153 . S
C788 C251 2.164 1_565 S
C783 N27 2.065 . S
C804 C328 2.158 . S
C799 N40 2.060 . S
C815 N1 2.121 . S
C820 C412 2.188 . S
