# Generated by pormake.
# Topology rtl, (3,6)-cn, num edge types: 1
# Building blocks:
#     Node 0, Type 0, BuildingBlock: INOVEN_clean_linker_0, # of connection points: 3
#     Node 1, Type 0, BuildingBlock: INOVEN_clean_linker_0, # of connection points: 3
#     Node 2, Type 0, BuildingBlock: INOVEN_clean_linker_0, # of connection points: 3
#     Node 3, Type 0, BuildingBlock: INOVEN_clean_linker_0, # of connection points: 3
#     Node 4, Type 1, BuildingBlock: VOLQOD_clean_sbu_1, # of connection points: 6
#     Node 5, Type 1, BuildingBlock: VOLQOD_clean_sbu_1, # of connection points: 6
#     Edge 6, Type (0, 1), BuildingBlock: XIVTED_clean_linker_0, # of connection points: 2
#     Edge 7, Type (0, 1), BuildingBlock: XIVTED_clean_linker_0, # of connection points: 2
#     Edge 8, Type (0, 1), BuildingBlock: XIVTED_clean_linker_0, # of connection points: 2
#     Edge 9, Type (0, 1), BuildingBlock: XIVTED_clean_linker_0, # of connection points: 2
#     Edge 10, Type (0, 1), BuildingBlock: XIVTED_clean_linker_0, # of connection points: 2
#     Edge 11, Type (0, 1), BuildingBlock: XIVTED_clean_linker_0, # of connection points: 2
#     Edge 12, Type (0, 1), BuildingBlock: XIVTED_clean_linker_0, # of connection points: 2
#     Edge 13, Type (0, 1), BuildingBlock: XIVTED_clean_linker_0, # of connection points: 2
#     Edge 14, Type (0, 1), BuildingBlock: XIVTED_clean_linker_0, # of connection points: 2
#     Edge 15, Type (0, 1), BuildingBlock: XIVTED_clean_linker_0, # of connection points: 2
#     Edge 16, Type (0, 1), BuildingBlock: XIVTED_clean_linker_0, # of connection points: 2
#     Edge 17, Type (0, 1), BuildingBlock: XIVTED_clean_linker_0, # of connection points: 2
# Relax obj value: 0.042
# Max RMSD: 0.144
# Mean RMSD: 0.093
data_MOF--net-rtl--node1-VOLQOD_clean_sbu_1--node2-INOVEN_clean_linker_0--edge1-XIVTED_clean_linker_0
_symmetry_space_group_name_H-M    P1
_symmetry_Int_Tables_number       1
_symmetry_cell_setting            triclinic
loop_
_symmetry_equiv_pos_as_xyz
'x, y, z'
_cell_length_a     38.218835
_cell_length_b     36.833518
_cell_length_c     22.463554
_cell_angle_alpha  91.598781
_cell_angle_beta   91.216798
_cell_angle_gamma 90.024151
loop_
_atom_site_label
_atom_site_type_symbol
_atom_site_fract_x
_atom_site_fract_y
_atom_site_fract_z
_atom_type_partial_charge
H0 H 0.15388 0.7523 0.88899 0.0
H1 H 0.09837 0.83638 0.98341 0.0
H2 H 0.15486 0.75589 0.08112 0.0
N3 N 0.18121 0.72143 0.98319 0.0
N4 N 0.19502 0.70946 0.02943 0.0
C5 C 0.14484 0.76422 0.93057 0.0
C6 C 0.12438 0.79571 0.93013 0.0
C7 C 0.15609 0.74971 -0.01524 0.0
C8 C 0.14559 0.76624 0.03896 0.0
C9 C 0.12493 0.79771 0.03852 0.0
C10 C 0.11415 0.81189 -0.01599 0.0
H11 H 0.65624 0.77114 0.62936 0.0
H12 H 0.58469 0.69842 0.53575 0.0
H13 H 0.65639 0.76211 0.43779 0.0
N14 N 0.6877 0.79485 0.53382 0.0
N15 N 0.70533 0.79879 0.48835 0.0
C16 C 0.64546 0.75963 0.588 0.0
C17 C 0.61814 0.73412 0.58895 0.0
C18 C 0.65944 0.7698 0.53367 0.0
C19 C 0.64584 0.75434 0.47997 0.0
C20 C 0.61851 0.72898 0.48041 0.0
C21 C 0.60478 0.71919 0.53502 0.0
H22 H 0.8337 0.25475 0.90665 0.0
H23 H 0.90963 0.19632 0.01089 0.0
H24 H 0.8394 0.27052 0.09717 0.0
N25 N 0.80571 0.29103 -0.00346 0.0
N26 N 0.78801 0.29938 0.04087 0.0
C27 C 0.84637 0.24914 0.949 0.0
C28 C 0.87307 0.22298 0.95229 0.0
C29 C 0.83417 0.26646 0.00097 0.0
C30 C 0.8491 0.25784 0.05668 0.0
C31 C 0.8765 0.23269 0.06029 0.0
C32 C 0.88873 0.21609 0.00791 0.0
H33 H 0.33727 0.25598 0.40192 0.0
H34 H 0.39372 0.33874 0.50233 0.0
H35 H 0.33735 0.25729 0.59401 0.0
N36 N 0.31063 0.22375 0.49359 0.0
N37 N 0.29704 0.21125 0.53866 0.0
C38 C 0.3465 0.26748 0.44434 0.0
C39 C 0.36706 0.29899 0.44602 0.0
C40 C 0.33555 0.25228 0.49742 0.0
C41 C 0.34636 0.26815 0.55271 0.0
C42 C 0.36711 0.29958 0.55443 0.0
C43 C 0.37768 0.3144 0.50105 0.0
O44 O 0.91247 0.99432 0.48779 0.0
Zn45 Zn 0.95023 0.03292 0.49145 0.0
O46 O -0.00297 0.01116 0.49245 0.0
Zn47 Zn 0.02148 0.02517 0.5666 0.0
Zn48 Zn 0.99309 0.95822 0.48629 0.0
Zn49 Zn 0.02369 0.02829 0.42565 0.0
O50 O 0.06591 0.05247 0.55194 0.0
O51 O 0.06815 0.05307 0.45344 0.0
O52 O 0.94271 0.06414 0.56489 0.0
O53 O 0.99138 0.05662 0.61897 0.0
O54 O 0.0355 0.98131 0.61159 0.0
O55 O 0.01574 0.93431 0.55681 0.0
O56 O 0.01686 0.93802 0.41386 0.0
O57 O 0.94402 0.06593 0.42216 0.0
O58 O 0.03758 0.98687 0.37092 0.0
O59 O -0.00419 0.06445 0.3791 0.0
C60 C 0.91377 0.95978 0.48318 0.0
C61 C 0.08134 0.06096 0.50466 0.0
C62 C 0.03185 0.94724 0.60282 0.0
C63 C 0.96112 0.07049 0.61188 0.0
C64 C 0.03349 0.95259 0.37225 0.0
C65 C 0.96468 0.07656 0.38243 0.0
O66 O 0.9428 0.9429 0.48128 0.0
O67 O 0.58131 0.49363 0.01561 0.0
Zn68 Zn 0.54464 0.53322 0.018 0.0
O69 O 0.49718 0.5128 0.01531 0.0
Zn70 Zn 0.47185 0.52967 0.94502 0.0
Zn71 Zn 0.49968 0.45974 0.01281 0.0
Zn72 Zn 0.47201 0.52857 0.08591 0.0
O73 O 0.42694 0.55491 0.96647 0.0
O74 O 0.42793 0.55518 0.06513 0.0
O75 O 0.55198 0.56643 0.94959 0.0
O76 O 0.50091 0.56509 0.90055 0.0
O77 O 0.45858 0.48759 0.89048 0.0
O78 O 0.47726 0.43885 0.93767 0.0
O79 O 0.47478 0.43785 0.08111 0.0
O80 O 0.55265 0.56382 0.09307 0.0
O81 O 0.45719 0.48621 0.13326 0.0
O82 O 0.50156 0.56164 0.13812 0.0
C83 C 0.57903 0.45914 0.01697 0.0
C84 C 0.41309 0.56319 0.01604 0.0
C85 C 0.46188 0.45328 0.89343 0.0
C86 C 0.5321 0.57697 0.90728 0.0
C87 C 0.45935 0.45193 0.12571 0.0
C88 C 0.53291 0.57309 0.13589 0.0
O89 O 0.54954 0.44308 0.01721 0.0
H90 H 0.26371 0.18303 0.62897 0.0
H91 H 0.12296 0.08177 0.41385 0.0
H92 H 0.26835 0.18015 0.43738 0.0
H93 H 0.11735 0.08398 0.60578 0.0
H94 H 0.17836 0.11449 0.42213 0.0
H95 H 0.21247 0.14274 0.62218 0.0
C96 C 0.2541 0.17344 0.58563 0.0
C97 C 0.27001 0.18487 0.53395 0.0
C98 C 0.16509 0.10773 0.46247 0.0
C99 C 0.21155 0.13942 0.5253 0.0
C100 C 0.13336 0.08908 0.45778 0.0
C101 C 0.11529 0.08027 0.5092 0.0
C102 C 0.1789 0.11778 0.51897 0.0
C103 C 0.13025 0.09032 0.5649 0.0
C104 C 0.22489 0.15066 0.58164 0.0
C105 C 0.25675 0.17203 0.47847 0.0
N106 N 0.16111 0.10867 0.56829 0.0
N107 N 0.22813 0.15016 0.47567 0.0
H108 H 0.22821 0.68175 0.12257 0.0
H109 H 0.37238 0.58373 0.92076 0.0
H110 H 0.2247 0.67897 0.93063 0.0
H111 H 0.37581 0.58562 0.11316 0.0
H112 H 0.31639 0.61552 0.92348 0.0
H113 H 0.28014 0.64258 0.1203 0.0
C114 C 0.23822 0.6724 0.08009 0.0
C115 C 0.2224 0.68353 0.02703 0.0
C116 C 0.32934 0.60888 0.9651 0.0
C117 C 0.28171 0.63939 0.02351 0.0
C118 C 0.36138 0.59079 0.96359 0.0
C119 C 0.37898 0.58215 0.01682 0.0
C120 C 0.31477 0.61849 0.02022 0.0
C121 C 0.36331 0.59185 0.07098 0.0
C122 C 0.26783 0.65026 0.07866 0.0
C123 C 0.23619 0.67103 0.97272 0.0
N124 N 0.33218 0.6096 0.07126 0.0
N125 N 0.26523 0.6498 0.97242 0.0
H126 H 0.75291 0.79971 0.40494 0.0
H127 H 0.85013 0.97834 0.52926 0.0
H128 H 0.72149 0.85454 0.56703 0.0
H129 H 0.90323 0.89249 0.43273 0.0
H130 H 0.79729 0.94026 0.5297 0.0
H131 H 0.80319 0.841 0.40039 0.0
C132 C 0.75673 0.82059 0.43938 0.0
C133 C 0.73359 0.82359 0.48653 0.0
C134 C 0.82055 0.92996 0.50834 0.0
C135 C 0.79019 0.87107 0.48149 0.0
C136 C 0.85055 0.95166 0.50773 0.0
C137 C 0.88107 0.93842 0.4811 0.0
C138 C 0.821 0.89524 0.48097 0.0
C139 C 0.88033 0.90361 0.45412 0.0
C140 C 0.78526 0.84399 0.43692 0.0
C141 C 0.73913 0.85115 0.53023 0.0
N142 N 0.85072 0.88329 0.45449 0.0
N143 N 0.76693 0.87401 0.52655 0.0
H144 H 0.73817 0.30616 0.12016 0.0
H145 H 0.64401 0.47515 0.97505 0.0
H146 H 0.77341 0.34839 0.95483 0.0
H147 H 0.58705 0.39295 0.06622 0.0
H148 H 0.69672 0.43696 0.98064 0.0
H149 H 0.68712 0.34661 0.11534 0.0
C150 C 0.73505 0.32413 0.08306 0.0
C151 C 0.75946 0.3238 0.03768 0.0
C152 C 0.67259 0.42746 -0.0007 0.0
C153 C 0.70208 0.37029 0.03214 0.0
C154 C 0.64266 0.44919 -0.00361 0.0
C155 C 0.61117 0.43705 0.02001 0.0
C156 C 0.67107 0.39395 0.02739 0.0
C157 C 0.61074 0.40318 0.04705 0.0
C158 C 0.70607 0.347 0.08018 0.0
C159 C 0.75478 0.34761 -0.00962 0.0
N160 N 0.64032 0.38293 0.05044 0.0
N161 N 0.72658 0.37013 -0.01105 0.0
H162 H 0.09512 0.77243 0.13963 0.0
H163 H 0.07332 0.97338 0.2794 0.0
H164 H 0.13567 0.86939 0.06272 0.0
H165 H 0.02991 0.87831 0.35878 0.0
H166 H 0.09952 0.93452 0.20323 0.0
H167 H 0.07508 0.80939 0.22521 0.0
C168 C 0.10019 0.80138 0.14129 0.0
C169 C 0.11657 0.81807 0.09399 0.0
C170 C 0.08432 0.92207 0.23733 0.0
C171 C 0.0937 0.86032 0.19064 0.0
C172 C 0.06923 0.94432 0.28082 0.0
C173 C 0.04919 0.92916 0.32544 0.0
C174 C 0.07933 0.8843 0.23816 0.0
C175 C 0.04503 0.89123 0.32508 0.0
C176 C 0.08861 0.82247 0.18976 0.0
C177 C 0.12256 0.85563 0.09794 0.0
N178 N 0.05989 0.87008 0.28197 0.0
N179 N 0.11093 0.87549 0.14514 0.0
H180 H 0.55015 0.72568 0.62028 0.0
H181 H 0.59848 0.60514 0.90102 0.0
H182 H 0.65596 0.71007 0.68502 0.0
H183 H 0.49534 0.61143 0.81956 0.0
H184 H 0.61918 0.64988 0.83136 0.0
H185 H 0.52871 0.69161 0.70375 0.0
C186 C 0.56882 0.71551 0.65272 0.0
C187 C 0.60487 0.72031 0.6455 0.0
C188 C 0.592 0.64155 0.82898 0.0
C189 C 0.58062 0.68086 0.74071 0.0
C190 C 0.58015 0.61594 0.86862 0.0
C191 C 0.54515 0.60421 0.86585 0.0
C192 C 0.56866 0.65565 0.78642 0.0
C193 C 0.5226 0.61934 0.8231 0.0
C194 C 0.55661 0.69595 0.70022 0.0
C195 C 0.62795 0.70699 0.68909 0.0
N196 N 0.53477 0.64416 0.78506 0.0
N197 N 0.61545 0.68741 0.73452 0.0
H198 H 0.83915 0.21279 0.15661 0.0
H199 H 0.00316 0.11103 0.29954 0.0
H200 H 0.94476 0.22285 0.095 0.0
H201 H 0.89901 0.10589 0.3699 0.0
H202 H 0.98293 0.1564 0.22995 0.0
H203 H 0.86139 0.17972 0.2424 0.0
C204 C 0.86711 0.20884 0.16198 0.0
C205 C 0.89014 0.22015 0.11836 0.0
C206 C 0.9645 0.14552 0.2608 0.0
C207 C 0.91565 0.18162 0.21535 0.0
C208 C 0.976 0.11941 0.30039 0.0
C209 C 0.95267 0.1043 0.34028 0.0
C210 C 0.92932 0.15651 0.26066 0.0
C211 C 0.91788 0.11658 0.33967 0.0
C212 C 0.87977 0.18965 0.21062 0.0
C213 C 0.92608 0.21402 0.12717 0.0
N214 N 0.9072 0.14179 0.30017 0.0
N215 N 0.93768 0.19475 0.17423 0.0
H216 H 0.39887 0.27362 0.65557 0.0
H217 H 0.42281 0.4741 0.79713 0.0
H218 H 0.35531 0.3706 0.5806 0.0
H219 H 0.46464 0.37883 0.88102 0.0
H220 H 0.39588 0.43533 0.71984 0.0
H221 H 0.42009 0.31014 0.74246 0.0
C222 C 0.39336 0.30246 0.65799 0.0
C223 C 0.37581 0.31934 0.61088 0.0
C224 C 0.41089 0.42279 0.75514 0.0
C225 C 0.40003 0.36107 0.70884 0.0
C226 C 0.42645 0.44499 0.79927 0.0
C227 C 0.4462 0.42976 0.84557 0.0
C228 C 0.41515 0.38495 0.7569 0.0
C229 C 0.44974 0.39177 0.84603 0.0
C230 C 0.4056 0.3233 0.70718 0.0
C231 C 0.36928 0.35673 0.61573 0.0
N232 N 0.43444 0.37064 0.80219 0.0
N233 N 0.38161 0.37634 0.66353 0.0
H234 H 0.55057 0.71495 0.447 0.0
H235 H 0.59952 0.60027 0.15252 0.0
H236 H 0.65646 0.70164 0.3871 0.0
H237 H 0.49645 0.60366 0.2278 0.0
H238 H 0.62035 0.64194 0.23234 0.0
H239 H 0.52963 0.67934 0.36024 0.0
C240 C 0.56939 0.70464 0.41537 0.0
C241 C 0.60532 0.71096 0.42453 0.0
C242 C 0.59317 0.63357 0.23121 0.0
C243 C 0.58157 0.67018 0.32503 0.0
C244 C 0.58126 0.60976 0.18572 0.0
C245 C 0.54621 0.59825 0.18359 0.0
C246 C 0.56983 0.64606 0.27466 0.0
C247 C 0.52373 0.61156 0.22774 0.0
C248 C 0.55744 0.68434 0.36582 0.0
C249 C 0.62852 0.69755 0.38158 0.0
N250 N 0.53594 0.63469 0.2714 0.0
N251 N 0.61626 0.67752 0.33385 0.0
H252 H 0.88842 0.15053 0.9478 0.0
H253 H 0.91302 0.12525 0.60165 0.0
H254 H 0.87974 0.2436 0.83546 0.0
H255 H 0.97714 0.06945 0.73044 0.0
H256 H 0.88983 0.16384 0.68283 0.0
H257 H 0.90956 0.11464 0.86366 0.0
C258 C 0.89124 0.16363 0.9056 0.0
C259 C 0.88325 0.20059 0.89932 0.0
C260 C 0.90904 0.14317 0.69292 0.0
C261 C 0.90621 0.15888 0.80211 0.0
C262 C 0.92211 0.12109 0.64695 0.0
C263 C 0.94699 0.09415 0.65956 0.0
C264 C 0.92031 0.13748 0.7517 0.0
C265 C 0.95811 0.08998 0.71881 0.0
C266 C 0.90309 0.14295 0.85754 0.0
C267 C 0.88579 0.21532 0.8425 0.0
N268 N 0.9444 0.11118 0.7628 0.0
N269 N 0.89713 0.19437 0.79585 0.0
H270 H 0.39864 0.27265 0.34483 0.0
H271 H 0.41815 0.47235 0.21846 0.0
H272 H 0.35395 0.36952 0.42398 0.0
H273 H 0.46255 0.37748 0.13158 0.0
H274 H 0.39134 0.43352 0.29019 0.0
H275 H 0.41841 0.30872 0.26121 0.0
C276 C 0.3926 0.30136 0.344 0.0
C277 C 0.37516 0.31838 0.3914 0.0
C278 C 0.40685 0.42106 0.25541 0.0
C279 C 0.39765 0.35957 0.29711 0.0
C280 C 0.42232 0.4433 0.21445 0.0
C281 C 0.44288 0.42821 0.16913 0.0
C282 C 0.41205 0.38333 0.2515 0.0
C283 C 0.44702 0.39029 0.16599 0.0
C284 C 0.40398 0.32194 0.29666 0.0
C285 C 0.36788 0.35557 0.38862 0.0
N286 N 0.43189 0.36911 0.20691 0.0
N287 N 0.37937 0.37494 0.34258 0.0
H288 H 0.14331 0.86391 0.90471 0.0
H289 H 0.02542 0.87286 0.60717 0.0
H290 H 0.0876 0.77083 0.83078 0.0
H291 H 0.07473 0.96512 0.69752 0.0
H292 H 0.05226 0.8331 0.6811 0.0
H293 H 0.12401 0.89913 0.82004 0.0
C294 C 0.12721 0.85088 0.87001 0.0
C295 C 0.11663 0.81471 0.87461 0.0
C296 C 0.05721 0.86205 0.68442 0.0
C297 C 0.0939 0.85486 0.77798 0.0
C298 C 0.04189 0.88475 0.64239 0.0
C299 C 0.04761 0.92244 0.64641 0.0
C300 C 0.0785 0.8772 0.73039 0.0
C301 C 0.06928 0.93633 0.69279 0.0
C302 C 0.11609 0.87095 0.8218 0.0
C303 C 0.09612 0.79878 0.8285 0.0
N304 N 0.08383 0.91374 0.73287 0.0
N305 N 0.08498 0.81916 0.78214 0.0
loop_
_geom_bond_atom_site_label_1
_geom_bond_atom_site_label_2
_geom_bond_distance
_geom_bond_site_symmetry_2
_ccdc_geom_bond_type
H0 C5 0.929 . S
H1 C10 0.931 . S
H2 C8 0.930 . S
N3 N4 1.234 1_556 S
N3 C7 1.453 1_556 S
N4 N3 1.234 1_554 S
C5 H0 0.929 . S
C5 C6 1.373 . S
C5 C7 1.368 1_556 S
C6 C5 1.373 . S
C6 C10 1.397 1_556 S
C7 N3 1.453 1_554 S
C7 C5 1.368 1_554 S
C7 C8 1.373 . S
C8 H2 0.930 . S
C8 C7 1.373 . S
C8 C9 1.371 . S
C9 C8 1.371 . S
C9 C10 1.383 . S
C10 H1 0.931 . S
C10 C6 1.397 1_554 S
C10 C9 1.383 . S
H11 C16 0.929 . S
H12 C21 0.931 . S
H13 C19 0.930 . S
N14 N15 1.234 . S
N14 C18 1.453 . S
N15 N14 1.234 . S
C16 H11 0.929 . S
C16 C17 1.373 . S
C16 C18 1.368 . S
C17 C16 1.373 . S
C17 C21 1.397 . S
C18 N14 1.453 . S
C18 C16 1.368 . S
C18 C19 1.373 . S
C19 H13 0.930 . S
C19 C18 1.373 . S
C19 C20 1.371 . S
C20 C19 1.371 . S
C20 C21 1.383 . S
C21 H12 0.931 . S
C21 C17 1.397 . S
C21 C20 1.383 . S
H22 C27 0.929 . S
H23 C32 0.931 . S
H24 C30 0.930 . S
N25 N26 1.234 1_556 S
N25 C29 1.453 1_556 S
N26 N25 1.234 1_554 S
C27 H22 0.929 . S
C27 C28 1.373 . S
C27 C29 1.368 1_556 S
C28 C27 1.373 . S
C28 C32 1.397 1_556 S
C29 N25 1.453 1_554 S
C29 C27 1.368 1_554 S
C29 C30 1.373 . S
C30 H24 0.930 . S
C30 C29 1.373 . S
C30 C31 1.371 . S
C31 C30 1.371 . S
C31 C32 1.383 . S
C32 H23 0.931 . S
C32 C28 1.397 1_554 S
C32 C31 1.383 . S
H33 C38 0.929 . S
H34 C43 0.931 . S
H35 C41 0.930 . S
N36 N37 1.234 . S
N36 C40 1.453 . S
N37 N36 1.234 . S
C38 H33 0.929 . S
C38 C39 1.373 . S
C38 C40 1.368 . S
C39 C38 1.373 . S
C39 C43 1.397 . S
C40 N36 1.453 . S
C40 C38 1.368 . S
C40 C41 1.373 . S
C41 H35 0.930 . S
C41 C40 1.373 . S
C41 C42 1.371 . S
C42 C41 1.371 . S
C42 C43 1.383 . S
C43 H34 0.931 . S
C43 C39 1.397 . S
C43 C42 1.383 . S
O44 Zn45 1.953 1_565 S
O44 C60 1.225 . S
Zn45 O44 1.953 1_545 S
Zn45 O46 1.949 1_655 S
Zn45 O52 1.919 . S
Zn45 O57 1.924 . S
O46 Zn45 1.949 1_455 S
O46 Zn47 1.923 . S
O46 Zn48 1.950 1_545 S
O46 Zn49 1.945 . S
Zn47 O46 1.923 . S
Zn47 O50 1.933 . S
Zn47 O53 1.944 . S
Zn47 O54 1.965 1_545 S
Zn48 O46 1.950 1_565 S
Zn48 O55 1.938 . S
Zn48 O56 1.906 . S
Zn48 O66 1.953 1_455 S
Zn49 O46 1.945 . S
Zn49 O51 1.932 . S
Zn49 O58 1.977 1_545 S
Zn49 O59 1.910 1_455 S
O50 Zn47 1.933 . S
O50 C61 1.226 . S
O51 Zn49 1.932 . S
O51 C61 1.307 . S
O52 Zn45 1.919 . S
O52 C63 1.253 . S
O53 Zn47 1.944 . S
O53 C63 1.279 1_455 S
O54 Zn47 1.965 1_565 S
O54 C62 1.303 . S
O55 Zn48 1.938 . S
O55 C62 1.247 . S
O56 Zn48 1.906 . S
O56 C64 1.304 . S
O57 Zn45 1.924 . S
O57 C65 1.311 . S
O58 Zn49 1.977 1_565 S
O58 C64 1.272 . S
O59 Zn49 1.910 1_655 S
O59 C65 1.231 . S
C60 O44 1.225 . S
C60 O66 1.298 . S
C61 O50 1.226 . S
C61 O51 1.307 . S
C62 O54 1.303 . S
C62 O55 1.247 . S
C63 O52 1.253 . S
C63 O53 1.279 1_655 S
C64 O56 1.304 . S
C64 O58 1.272 . S
C65 O57 1.311 . S
C65 O59 1.231 . S
O66 Zn48 1.953 1_655 S
O66 C60 1.298 . S
O67 Zn68 1.953 . S
O67 C83 1.225 . S
Zn68 O67 1.953 . S
Zn68 O69 1.949 . S
Zn68 O75 1.919 1_554 S
Zn68 O80 1.924 . S
O69 Zn68 1.949 . S
O69 Zn70 1.923 1_554 S
O69 Zn71 1.950 . S
O69 Zn72 1.945 . S
Zn70 O69 1.923 1_556 S
Zn70 O73 1.933 . S
Zn70 O76 1.941 . S
Zn70 O77 1.965 . S
Zn71 O69 1.950 . S
Zn71 O78 1.938 1_554 S
Zn71 O79 1.906 . S
Zn71 O89 1.953 . S
Zn72 O69 1.945 . S
Zn72 O74 1.932 . S
Zn72 O81 1.977 . S
Zn72 O82 1.910 . S
O73 Zn70 1.933 . S
O73 C84 1.226 1_556 S
O74 Zn72 1.932 . S
O74 C84 1.307 . S
O75 Zn68 1.919 1_556 S
O75 C86 1.253 . S
O76 Zn70 1.941 . S
O76 C86 1.283 . S
O77 Zn70 1.965 . S
O77 C85 1.303 . S
O78 Zn71 1.938 1_556 S
O78 C85 1.247 . S
O79 Zn71 1.906 . S
O79 C87 1.304 . S
O80 Zn68 1.924 . S
O80 C88 1.311 . S
O81 Zn72 1.977 . S
O81 C87 1.272 . S
O82 Zn72 1.910 . S
O82 C88 1.231 . S
C83 O67 1.225 . S
C83 O89 1.298 . S
C84 O73 1.226 1_554 S
C84 O74 1.307 . S
C85 O77 1.303 . S
C85 O78 1.247 . S
C86 O75 1.253 . S
C86 O76 1.283 . S
C87 O79 1.304 . S
C87 O81 1.272 . S
C88 O80 1.311 . S
C88 O82 1.231 . S
O89 Zn71 1.953 . S
O89 C83 1.298 . S
H90 C96 0.930 . S
H91 C100 0.930 . S
H92 C105 0.929 . S
H93 C103 0.929 . S
H94 C98 0.929 . S
H95 C104 0.929 . S
C96 H90 0.930 . S
C96 C97 1.367 . S
C96 C104 1.378 . S
C97 C96 1.367 . S
C97 C105 1.433 . S
C98 H94 0.929 . S
C98 C100 1.378 . S
C98 C102 1.350 . S
C99 C102 1.463 . S
C99 C104 1.350 . S
C99 N107 1.427 . S
C100 H91 0.930 . S
C100 C98 1.378 . S
C100 C101 1.367 . S
C101 C100 1.367 . S
C101 C103 1.433 . S
C102 C98 1.350 . S
C102 C99 1.463 . S
C102 N106 1.427 . S
C103 H93 0.929 . S
C103 C101 1.433 . S
C103 N106 1.384 . S
C104 H95 0.929 . S
C104 C96 1.378 . S
C104 C99 1.350 . S
C105 H92 0.929 . S
C105 C97 1.433 . S
C105 N107 1.384 . S
N106 C102 1.427 . S
N106 C103 1.384 . S
N107 C99 1.427 . S
N107 C105 1.384 . S
H108 C114 0.930 . S
H109 C118 0.930 . S
H110 C123 0.929 . S
H111 C121 0.929 . S
H112 C116 0.929 . S
H113 C122 0.929 . S
C114 H108 0.930 . S
C114 C115 1.367 . S
C114 C122 1.378 . S
C115 C114 1.367 . S
C115 C123 1.433 1_554 S
C116 H112 0.929 . S
C116 C118 1.378 . S
C116 C120 1.350 1_556 S
C117 C120 1.463 . S
C117 C122 1.350 . S
C117 N125 1.427 1_554 S
C118 H109 0.930 . S
C118 C116 1.378 . S
C118 C119 1.367 1_556 S
C119 C118 1.367 1_554 S
C119 C121 1.433 . S
C120 C116 1.350 1_554 S
C120 C117 1.463 . S
C120 N124 1.427 . S
C121 H111 0.929 . S
C121 C119 1.433 . S
C121 N124 1.384 . S
C122 H113 0.929 . S
C122 C114 1.378 . S
C122 C117 1.350 . S
C123 H110 0.929 . S
C123 C115 1.433 1_556 S
C123 N125 1.384 . S
N124 C120 1.427 . S
N124 C121 1.384 . S
N125 C117 1.427 1_556 S
N125 C123 1.384 . S
H126 C132 0.930 . S
H127 C136 0.930 . S
H128 C141 0.929 . S
H129 C139 0.929 . S
H130 C134 0.929 . S
H131 C140 0.929 . S
C132 H126 0.930 . S
C132 C133 1.367 . S
C132 C140 1.378 . S
C133 C132 1.367 . S
C133 C141 1.433 . S
C134 H130 0.929 . S
C134 C136 1.378 . S
C134 C138 1.350 . S
C135 C138 1.463 . S
C135 C140 1.350 . S
C135 N143 1.427 . S
C136 H127 0.930 . S
C136 C134 1.378 . S
C136 C137 1.367 . S
C137 C136 1.367 . S
C137 C139 1.433 . S
C138 C134 1.350 . S
C138 C135 1.463 . S
C138 N142 1.427 . S
C139 H129 0.929 . S
C139 C137 1.433 . S
C139 N142 1.384 . S
C140 H131 0.929 . S
C140 C132 1.378 . S
C140 C135 1.350 . S
C141 H128 0.929 . S
C141 C133 1.433 . S
C141 N143 1.384 . S
N142 C138 1.427 . S
N142 C139 1.384 . S
N143 C135 1.427 . S
N143 C141 1.384 . S
H144 C150 0.930 . S
H145 C154 0.930 . S
H146 C159 0.929 . S
H147 C157 0.929 . S
H148 C152 0.929 . S
H149 C158 0.929 . S
C150 H144 0.930 . S
C150 C151 1.367 . S
C150 C158 1.378 . S
C151 C150 1.367 . S
C151 C159 1.433 1_554 S
C152 H148 0.929 . S
C152 C154 1.378 . S
C152 C156 1.350 1_556 S
C153 C156 1.463 . S
C153 C158 1.350 . S
C153 N161 1.427 1_554 S
C154 H145 0.930 . S
C154 C152 1.378 . S
C154 C155 1.367 1_556 S
C155 C154 1.367 1_554 S
C155 C157 1.433 . S
C156 C152 1.350 1_554 S
C156 C153 1.463 . S
C156 N160 1.427 . S
C157 H147 0.929 . S
C157 C155 1.433 . S
C157 N160 1.384 . S
C158 H149 0.929 . S
C158 C150 1.378 . S
C158 C153 1.350 . S
C159 H146 0.929 . S
C159 C151 1.433 1_556 S
C159 N161 1.384 . S
N160 C156 1.427 . S
N160 C157 1.384 . S
N161 C153 1.427 1_556 S
N161 C159 1.384 . S
H162 C168 0.930 . S
H163 C172 0.930 . S
H164 C177 0.929 . S
H165 C175 0.929 . S
H166 C170 0.929 . S
H167 C176 0.929 . S
C168 H162 0.930 . S
C168 C169 1.367 . S
C168 C176 1.378 . S
C169 C168 1.367 . S
C169 C177 1.433 . S
C170 H166 0.929 . S
C170 C172 1.378 . S
C170 C174 1.350 . S
C171 C174 1.463 . S
C171 C176 1.350 . S
C171 N179 1.427 . S
C172 H163 0.930 . S
C172 C170 1.378 . S
C172 C173 1.367 . S
C173 C172 1.367 . S
C173 C175 1.433 . S
C174 C170 1.350 . S
C174 C171 1.463 . S
C174 N178 1.427 . S
C175 H165 0.929 . S
C175 C173 1.433 . S
C175 N178 1.384 . S
C176 H167 0.929 . S
C176 C168 1.378 . S
C176 C171 1.350 . S
C177 H164 0.929 . S
C177 C169 1.433 . S
C177 N179 1.384 . S
N178 C174 1.427 . S
N178 C175 1.384 . S
N179 C171 1.427 . S
N179 C177 1.384 . S
H180 C186 0.930 . S
H181 C190 0.930 . S
H182 C195 0.929 . S
H183 C193 0.929 . S
H184 C188 0.929 . S
H185 C194 0.929 . S
C186 H180 0.930 . S
C186 C187 1.367 . S
C186 C194 1.378 . S
C187 C186 1.367 . S
C187 C195 1.433 . S
C188 H184 0.929 . S
C188 C190 1.378 . S
C188 C192 1.350 . S
C189 C192 1.463 . S
C189 C194 1.350 . S
C189 N197 1.427 . S
C190 H181 0.930 . S
C190 C188 1.378 . S
C190 C191 1.367 . S
C191 C190 1.367 . S
C191 C193 1.433 . S
C192 C188 1.350 . S
C192 C189 1.463 . S
C192 N196 1.427 . S
C193 H183 0.929 . S
C193 C191 1.433 . S
C193 N196 1.384 . S
C194 H185 0.929 . S
C194 C186 1.378 . S
C194 C189 1.350 . S
C195 H182 0.929 . S
C195 C187 1.433 . S
C195 N197 1.384 . S
N196 C192 1.427 . S
N196 C193 1.384 . S
N197 C189 1.427 . S
N197 C195 1.384 . S
H198 C204 0.930 . S
H199 C208 0.930 . S
H200 C213 0.929 . S
H201 C211 0.929 . S
H202 C206 0.929 . S
H203 C212 0.929 . S
C204 H198 0.930 . S
C204 C205 1.367 . S
C204 C212 1.378 . S
C205 C204 1.367 . S
C205 C213 1.433 . S
C206 H202 0.929 . S
C206 C208 1.378 . S
C206 C210 1.350 . S
C207 C210 1.463 . S
C207 C212 1.350 . S
C207 N215 1.427 . S
C208 H199 0.930 . S
C208 C206 1.378 . S
C208 C209 1.367 . S
C209 C208 1.367 . S
C209 C211 1.433 . S
C210 C206 1.350 . S
C210 C207 1.463 . S
C210 N214 1.427 . S
C211 H201 0.929 . S
C211 C209 1.433 . S
C211 N214 1.384 . S
C212 H203 0.929 . S
C212 C204 1.378 . S
C212 C207 1.350 . S
C213 H200 0.929 . S
C213 C205 1.433 . S
C213 N215 1.384 . S
N214 C210 1.427 . S
N214 C211 1.384 . S
N215 C207 1.427 . S
N215 C213 1.384 . S
H216 C222 0.930 . S
H217 C226 0.930 . S
H218 C231 0.929 . S
H219 C229 0.929 . S
H220 C224 0.929 . S
H221 C230 0.929 . S
C222 H216 0.930 . S
C222 C223 1.367 . S
C222 C230 1.378 . S
C223 C222 1.367 . S
C223 C231 1.433 . S
C224 H220 0.929 . S
C224 C226 1.378 . S
C224 C228 1.350 . S
C225 C228 1.463 . S
C225 C230 1.350 . S
C225 N233 1.427 . S
C226 H217 0.930 . S
C226 C224 1.378 . S
C226 C227 1.367 . S
C227 C226 1.367 . S
C227 C229 1.433 . S
C228 C224 1.350 . S
C228 C225 1.463 . S
C228 N232 1.427 . S
C229 H219 0.929 . S
C229 C227 1.433 . S
C229 N232 1.384 . S
C230 H221 0.929 . S
C230 C222 1.378 . S
C230 C225 1.350 . S
C231 H218 0.929 . S
C231 C223 1.433 . S
C231 N233 1.384 . S
N232 C228 1.427 . S
N232 C229 1.384 . S
N233 C225 1.427 . S
N233 C231 1.384 . S
H234 C240 0.930 . S
H235 C244 0.930 . S
H236 C249 0.929 . S
H237 C247 0.929 . S
H238 C242 0.929 . S
H239 C248 0.929 . S
C240 H234 0.930 . S
C240 C241 1.367 . S
C240 C248 1.378 . S
C241 C240 1.367 . S
C241 C249 1.433 . S
C242 H238 0.929 . S
C242 C244 1.378 . S
C242 C246 1.350 . S
C243 C246 1.463 . S
C243 C248 1.350 . S
C243 N251 1.427 . S
C244 H235 0.930 . S
C244 C242 1.378 . S
C244 C245 1.367 . S
C245 C244 1.367 . S
C245 C247 1.433 . S
C246 C242 1.350 . S
C246 C243 1.463 . S
C246 N250 1.427 . S
C247 H237 0.929 . S
C247 C245 1.433 . S
C247 N250 1.384 . S
C248 H239 0.929 . S
C248 C240 1.378 . S
C248 C243 1.350 . S
C249 H236 0.929 . S
C249 C241 1.433 . S
C249 N251 1.384 . S
N250 C246 1.427 . S
N250 C247 1.384 . S
N251 C243 1.427 . S
N251 C249 1.384 . S
H252 C258 0.930 . S
H253 C262 0.930 . S
H254 C267 0.929 . S
H255 C265 0.929 . S
H256 C260 0.929 . S
H257 C266 0.929 . S
C258 H252 0.930 . S
C258 C259 1.367 . S
C258 C266 1.378 . S
C259 C258 1.367 . S
C259 C267 1.433 . S
C260 H256 0.929 . S
C260 C262 1.378 . S
C260 C264 1.350 . S
C261 C264 1.463 . S
C261 C266 1.350 . S
C261 N269 1.427 . S
C262 H253 0.930 . S
C262 C260 1.378 . S
C262 C263 1.367 . S
C263 C262 1.367 . S
C263 C265 1.433 . S
C264 C260 1.350 . S
C264 C261 1.463 . S
C264 N268 1.427 . S
C265 H255 0.929 . S
C265 C263 1.433 . S
C265 N268 1.384 . S
C266 H257 0.929 . S
C266 C258 1.378 . S
C266 C261 1.350 . S
C267 H254 0.929 . S
C267 C259 1.433 . S
C267 N269 1.384 . S
N268 C264 1.427 . S
N268 C265 1.384 . S
N269 C261 1.427 . S
N269 C267 1.384 . S
H270 C276 0.930 . S
H271 C280 0.930 . S
H272 C285 0.929 . S
H273 C283 0.929 . S
H274 C278 0.929 . S
H275 C284 0.929 . S
C276 H270 0.930 . S
C276 C277 1.367 . S
C276 C284 1.378 . S
C277 C276 1.367 . S
C277 C285 1.433 . S
C278 H274 0.929 . S
C278 C280 1.378 . S
C278 C282 1.350 . S
C279 C282 1.463 . S
C279 C284 1.350 . S
C279 N287 1.427 . S
C280 H271 0.930 . S
C280 C278 1.378 . S
C280 C281 1.367 . S
C281 C280 1.367 . S
C281 C283 1.433 . S
C282 C278 1.350 . S
C282 C279 1.463 . S
C282 N286 1.427 . S
C283 H273 0.929 . S
C283 C281 1.433 . S
C283 N286 1.384 . S
C284 H275 0.929 . S
C284 C276 1.378 . S
C284 C279 1.350 . S
C285 H272 0.929 . S
C285 C277 1.433 . S
C285 N287 1.384 . S
N286 C282 1.427 . S
N286 C283 1.384 . S
N287 C279 1.427 . S
N287 C285 1.384 . S
H288 C294 0.930 . S
H289 C298 0.930 . S
H290 C303 0.929 . S
H291 C301 0.929 . S
H292 C296 0.929 . S
H293 C302 0.929 . S
C294 H288 0.930 . S
C294 C295 1.367 . S
C294 C302 1.378 . S
C295 C294 1.367 . S
C295 C303 1.433 . S
C296 H292 0.929 . S
C296 C298 1.378 . S
C296 C300 1.350 . S
C297 C300 1.463 . S
C297 C302 1.350 . S
C297 N305 1.427 . S
C298 H289 0.930 . S
C298 C296 1.378 . S
C298 C299 1.367 . S
C299 C298 1.367 . S
C299 C301 1.433 . S
C300 C296 1.350 . S
C300 C297 1.463 . S
C300 N304 1.427 . S
C301 H291 0.929 . S
C301 C299 1.433 . S
C301 N304 1.384 . S
C302 H293 0.929 . S
C302 C294 1.378 . S
C302 C297 1.350 . S
C303 H290 0.929 . S
C303 C295 1.433 . S
C303 N305 1.384 . S
N304 C300 1.427 . S
N304 C301 1.384 . S
N305 C297 1.427 . S
N305 C303 1.384 . S
C101 C61 1.489 . S
C97 N37 1.486 . S
C115 N4 1.484 . S
C119 C84 1.489 . S
C133 N15 1.509 . S
C137 C60 1.518 . S
C151 N26 1.510 . S
C155 C83 1.517 . S
C173 C64 1.490 . S
C169 C9 1.509 . S
C191 C86 1.498 . S
C187 C17 1.546 . S
C205 C31 1.534 . S
C209 C65 1.495 . S
C223 C42 1.528 . S
C227 C85 1.492 . S
C245 C88 1.410 . S
C241 C20 1.436 . S
C263 C63 1.421 . S
C259 C28 1.468 . S
C281 C87 1.397 . S
C277 C39 1.439 . S
C295 C6 1.450 . S
C299 C62 1.411 . S
