# Generated by pormake.
# Topology cml, (3,6)-cn, num edge types: 1
# Building blocks:
#     Node 0, Type 0, BuildingBlock: BELTOD_clean_linker_0, # of connection points: 3
#     Node 1, Type 0, BuildingBlock: BELTOD_clean_linker_0, # of connection points: 3
#     Node 2, Type 0, BuildingBlock: BELTOD_clean_linker_0, # of connection points: 3
#     Node 3, Type 0, BuildingBlock: BELTOD_clean_linker_0, # of connection points: 3
#     Node 4, Type 0, BuildingBlock: BELTOD_clean_linker_0, # of connection points: 3
#     Node 5, Type 0, BuildingBlock: BELTOD_clean_linker_0, # of connection points: 3
#     Node 6, Type 0, BuildingBlock: BELTOD_clean_linker_0, # of connection points: 3
#     Node 7, Type 0, BuildingBlock: BELTOD_clean_linker_0, # of connection points: 3
#     Node 8, Type 1, BuildingBlock: IZENUY_clean_sbu_0, # of connection points: 6
#     Node 9, Type 1, BuildingBlock: IZENUY_clean_sbu_0, # of connection points: 6
#     Node 10, Type 1, BuildingBlock: IZENUY_clean_sbu_0, # of connection points: 6
#     Node 11, Type 1, BuildingBlock: IZENUY_clean_sbu_0, # of connection points: 6
#     Edge 12, Type (0, 1), BuildingBlock: TEMPAE_clean_linker_10, # of connection points: 2
#     Edge 13, Type (0, 1), BuildingBlock: TEMPAE_clean_linker_10, # of connection points: 2
#     Edge 14, Type (0, 1), BuildingBlock: TEMPAE_clean_linker_10, # of connection points: 2
#     Edge 15, Type (0, 1), BuildingBlock: TEMPAE_clean_linker_10, # of connection points: 2
#     Edge 16, Type (0, 1), BuildingBlock: TEMPAE_clean_linker_10, # of connection points: 2
#     Edge 17, Type (0, 1), BuildingBlock: TEMPAE_clean_linker_10, # of connection points: 2
#     Edge 18, Type (0, 1), BuildingBlock: TEMPAE_clean_linker_10, # of connection points: 2
#     Edge 19, Type (0, 1), BuildingBlock: TEMPAE_clean_linker_10, # of connection points: 2
#     Edge 20, Type (0, 1), BuildingBlock: TEMPAE_clean_linker_10, # of connection points: 2
#     Edge 21, Type (0, 1), BuildingBlock: TEMPAE_clean_linker_10, # of connection points: 2
#     Edge 22, Type (0, 1), BuildingBlock: TEMPAE_clean_linker_10, # of connection points: 2
#     Edge 23, Type (0, 1), BuildingBlock: TEMPAE_clean_linker_10, # of connection points: 2
#     Edge 24, Type (0, 1), BuildingBlock: TEMPAE_clean_linker_10, # of connection points: 2
#     Edge 25, Type (0, 1), BuildingBlock: TEMPAE_clean_linker_10, # of connection points: 2
#     Edge 26, Type (0, 1), BuildingBlock: TEMPAE_clean_linker_10, # of connection points: 2
#     Edge 27, Type (0, 1), BuildingBlock: TEMPAE_clean_linker_10, # of connection points: 2
#     Edge 28, Type (0, 1), BuildingBlock: TEMPAE_clean_linker_10, # of connection points: 2
#     Edge 29, Type (0, 1), BuildingBlock: TEMPAE_clean_linker_10, # of connection points: 2
#     Edge 30, Type (0, 1), BuildingBlock: TEMPAE_clean_linker_10, # of connection points: 2
#     Edge 31, Type (0, 1), BuildingBlock: TEMPAE_clean_linker_10, # of connection points: 2
#     Edge 32, Type (0, 1), BuildingBlock: TEMPAE_clean_linker_10, # of connection points: 2
#     Edge 33, Type (0, 1), BuildingBlock: TEMPAE_clean_linker_10, # of connection points: 2
#     Edge 34, Type (0, 1), BuildingBlock: TEMPAE_clean_linker_10, # of connection points: 2
#     Edge 35, Type (0, 1), BuildingBlock: TEMPAE_clean_linker_10, # of connection points: 2
# Relax obj value: 0.049
# Max RMSD: 0.063
# Mean RMSD: 0.061
data_MOF--net-cml--node1-IZENUY_clean_sbu_0--node2-BELTOD_clean_linker_0--edge1-TEMPAE_clean_linker_10
_symmetry_space_group_name_H-M    P1
_symmetry_Int_Tables_number       1
_symmetry_cell_setting            triclinic
loop_
_symmetry_equiv_pos_as_xyz
'x, y, z'
_cell_length_a     40.802201
_cell_length_b     47.333037
_cell_length_c     43.588937
_cell_angle_alpha  89.567717
_cell_angle_beta   89.767396
_cell_angle_gamma 90.152408
loop_
_atom_site_label
_atom_site_type_symbol
_atom_site_fract_x
_atom_site_fract_y
_atom_site_fract_z
_atom_type_partial_charge
P0 P 0.35032 0.32498 0.96191 0.0
H1 H 0.38096 0.28263 0.0016 0.0
H2 H 0.38854 0.27985 0.05716 0.0
H3 H 0.33296 0.35682 0.06774 0.0
H4 H 0.32486 0.35902 0.01225 0.0
H5 H 0.33153 0.27344 0.93009 0.0
H6 H 0.27866 0.25398 0.91513 0.0
H7 H 0.23014 0.32714 0.95278 0.0
H8 H 0.28333 0.34607 0.96856 0.0
H9 H 0.39631 0.36726 0.98329 0.0
H10 H 0.31921 0.36245 0.91607 0.0
O11 O 0.3803 0.3064 0.94556 0.0
H12 H 0.40699 0.41627 0.96835 0.0
H13 H 0.32979 0.41159 0.90105 0.0
C14 C 0.35305 0.3214 0.00287 0.0
C15 C 0.37021 0.29877 0.01592 0.0
C16 C 0.37458 0.29725 0.04766 0.0
C17 C 0.36172 0.31832 0.06683 0.0
C18 C 0.34302 0.34017 0.05368 0.0
C19 C 0.3386 0.34159 0.02194 0.0
C20 C 0.31132 0.31141 0.94994 0.0
C21 C 0.30956 0.2854 0.93496 0.0
C22 C 0.27928 0.27435 0.92628 0.0
C23 C 0.25016 0.28913 0.93248 0.0
C24 C 0.25206 0.31514 0.94783 0.0
C25 C 0.28242 0.32608 0.95666 0.0
C26 C 0.35644 0.36144 0.95136 0.0
C27 C 0.38141 0.37686 0.96556 0.0
C28 C 0.38762 0.4048 0.95689 0.0
C29 C 0.3691 0.41776 0.93364 0.0
C30 C 0.34406 0.40225 0.91938 0.0
C31 C 0.33801 0.37417 0.92797 0.0
P32 P 0.74865 0.58687 0.52465 0.0
H33 H 0.76162 0.5335 0.49351 0.0
H34 H 0.72708 0.50226 0.46303 0.0
H35 H 0.64799 0.5626 0.46872 0.0
H36 H 0.6825 0.5934 0.49984 0.0
H37 H 0.81368 0.6115 0.53112 0.0
H38 H 0.84365 0.64761 0.50218 0.0
H39 H 0.76 0.65913 0.44294 0.0
H40 H 0.72989 0.62318 0.47246 0.0
H41 H 0.70052 0.55977 0.56397 0.0
H42 H 0.74044 0.64359 0.55178 0.0
O43 O 0.77641 0.56614 0.54149 0.0
H44 H 0.66594 0.57656 0.60576 0.0
H45 H 0.7055 0.66069 0.59358 0.0
C46 C 0.72438 0.56547 0.49937 0.0
C47 C 0.73689 0.54005 0.48807 0.0
C48 C 0.71718 0.52229 0.47046 0.0
C49 C 0.68464 0.5298 0.46368 0.0
C50 C 0.67271 0.55593 0.47403 0.0
C51 C 0.69245 0.57363 0.49168 0.0
C52 C 0.76985 0.61421 0.50351 0.0
C53 C 0.8018 0.6217 0.51185 0.0
C54 C 0.81896 0.64228 0.49518 0.0
C55 C 0.8044 0.65594 0.46994 0.0
C56 C 0.77191 0.64899 0.46224 0.0
C57 C 0.75474 0.62832 0.47897 0.0
C58 C 0.72264 0.60049 0.55449 0.0
C59 C 0.70155 0.58189 0.5701 0.0
C60 C 0.6817 0.59155 0.59391 0.0
C61 C 0.68274 0.62003 0.6028 0.0
C62 C 0.70422 0.63863 0.5873 0.0
C63 C 0.72405 0.6289 0.56329 0.0
P64 P 0.75749 0.4181 0.02836 0.0
H65 H 0.75314 0.36225 0.05887 0.0
H66 H 0.71659 0.34369 0.09911 0.0
H67 H 0.66634 0.42388 0.10166 0.0
H68 H 0.70254 0.44209 0.06156 0.0
H69 H 0.82687 0.40519 0.01955 0.0
H70 H 0.85554 0.36941 0.99005 0.0
H71 H 0.76272 0.33688 0.95818 0.0
H72 H 0.73406 0.37237 0.98879 0.0
H73 H 0.76922 0.47571 0.00554 0.0
H74 H 0.6952 0.41116 0.99636 0.0
O75 O 0.78512 0.4373 0.04722 0.0
H76 H 0.73506 0.50874 0.97659 0.0
H77 H 0.66129 0.44379 0.96669 0.0
C78 C 0.72994 0.40329 0.05661 0.0
C79 C 0.73395 0.37566 0.0678 0.0
C80 C 0.71321 0.36514 0.09094 0.0
C81 C 0.6883 0.3822 0.10329 0.0
C82 C 0.68474 0.40996 0.09214 0.0
C83 C 0.70549 0.42043 0.06922 0.0
C84 C 0.77831 0.39151 0.00632 0.0
C85 C 0.81261 0.39039 0.00627 0.0
C86 C 0.82903 0.37001 0.98912 0.0
C87 C 0.81149 0.35036 0.97148 0.0
C88 C 0.777 0.35153 0.97166 0.0
C89 C 0.76057 0.37194 0.98896 0.0
C90 C 0.73458 0.44108 0.00334 0.0
C91 C 0.74583 0.4685 0.9969 0.0
C92 C 0.72633 0.48735 0.98021 0.0
C93 C 0.69528 0.479 0.9696 0.0
C94 C 0.6848 0.45104 0.97501 0.0
C95 C 0.70431 0.43226 0.9917 0.0
P96 P 0.33669 0.66077 0.47196 0.0
H97 H 0.37367 0.64211 0.41861 0.0
H98 H 0.3834 0.59571 0.39645 0.0
H99 H 0.31945 0.55787 0.46464 0.0
H100 H 0.30912 0.60462 0.48619 0.0
H101 H 0.3226 0.71552 0.44362 0.0
H102 H 0.27176 0.73797 0.42745 0.0
H103 H 0.21757 0.66342 0.45534 0.0
H104 H 0.26858 0.64141 0.47236 0.0
H105 H 0.36335 0.61963 0.51608 0.0
H106 H 0.31272 0.69953 0.51857 0.0
O107 O 0.36837 0.68107 0.46147 0.0
H108 H 0.36792 0.61999 0.5719 0.0
H109 H 0.31857 0.70043 0.57455 0.0
C110 C 0.34146 0.62666 0.45458 0.0
C111 C 0.36165 0.62386 0.42875 0.0
C112 C 0.36725 0.5973 0.41614 0.0
C113 C 0.35268 0.57303 0.42914 0.0
C114 C 0.33102 0.57613 0.45407 0.0
C115 C 0.32529 0.60281 0.46655 0.0
C116 C 0.29936 0.67665 0.45877 0.0
C117 C 0.29983 0.70391 0.44608 0.0
C118 C 0.27073 0.71669 0.43671 0.0
C119 C 0.24063 0.7024 0.43991 0.0
C120 C 0.24032 0.67506 0.45277 0.0
C121 C 0.26947 0.66234 0.46224 0.0
C122 C 0.33663 0.65907 0.5132 0.0
C123 C 0.35234 0.63684 0.52861 0.0
C124 C 0.35506 0.63708 0.56051 0.0
C125 C 0.34316 0.66004 0.57738 0.0
C126 C 0.32753 0.68235 0.56197 0.0
C127 C 0.32417 0.68179 0.53008 0.0
P128 P 0.81302 0.84986 0.99079 0.0
H129 H 0.82667 0.80687 0.03723 0.0
H130 H 0.83563 0.80963 0.09265 0.0
H131 H 0.81105 0.89829 0.09028 0.0
H132 H 0.80143 0.89533 0.03502 0.0
H133 H 0.78362 0.8501 0.92995 0.0
H134 H 0.73346 0.82874 0.90969 0.0
H135 H 0.70872 0.79797 0.00034 0.0
H136 H 0.75823 0.81996 0.0207 0.0
H137 H 0.87449 0.88006 0.99068 0.0
H138 H 0.77533 0.89634 0.9619 0.0
O139 O 0.84157 0.82723 0.9789 0.0
H140 H 0.89047 0.92754 0.97486 0.0
H141 H 0.79156 0.9432 0.94366 0.0
C142 C 0.81427 0.85103 0.03198 0.0
C143 C 0.82267 0.82677 0.04874 0.0
C144 C 0.82753 0.82832 0.08038 0.0
C145 C 0.82425 0.85424 0.09557 0.0
C146 C 0.81396 0.87814 0.07898 0.0
C147 C 0.80862 0.87646 0.04742 0.0
C148 C 0.77423 0.8373 0.97695 0.0
C149 C 0.76695 0.83943 0.94561 0.0
C150 C 0.73841 0.82718 0.93404 0.0
C151 C 0.71732 0.81188 0.95355 0.0
C152 C 0.72465 0.80974 0.98492 0.0
C153 C 0.75288 0.82242 0.99655 0.0
C154 C 0.82407 0.88432 0.97645 0.0
C155 C 0.85634 0.89368 0.98019 0.0
C156 C 0.86544 0.92085 0.97098 0.0
C157 C 0.84249 0.93919 0.9574 0.0
C158 C 0.80991 0.9298 0.95412 0.0
C159 C 0.80068 0.90273 0.96401 0.0
P160 P 0.25201 0.09097 0.53256 0.0
H161 H 0.26816 0.04804 0.48757 0.0
H162 H 0.23475 0.01715 0.45554 0.0
H163 H 0.147 0.05454 0.49335 0.0
H164 H 0.18058 0.08594 0.52435 0.0
H165 H 0.29486 0.13669 0.551 0.0
H166 H 0.32346 0.17403 0.52247 0.0
H167 H 0.27888 0.14512 0.43853 0.0
H168 H 0.24969 0.10843 0.46732 0.0
H169 H 0.23749 0.06668 0.59264 0.0
H170 H 0.21437 0.14298 0.54273 0.0
O171 O 0.28258 0.07118 0.54609 0.0
H172 H 0.20464 0.08281 0.63602 0.0
H173 H 0.18186 0.15962 0.58637 0.0
C174 C 0.22687 0.06891 0.5087 0.0
C175 C 0.24171 0.04956 0.48888 0.0
C176 C 0.22257 0.03185 0.47068 0.0
C177 C 0.18814 0.03316 0.47201 0.0
C178 C 0.17341 0.05311 0.49147 0.0
C179 C 0.19262 0.07094 0.5095 0.0
C180 C 0.27023 0.11978 0.51133 0.0
C181 C 0.291 0.13863 0.5265 0.0
C182 C 0.3075 0.15981 0.51012 0.0
C183 C 0.30369 0.16242 0.47816 0.0
C184 C 0.28216 0.14386 0.46315 0.0
C185 C 0.26558 0.12271 0.47961 0.0
C186 C 0.22888 0.10388 0.56478 0.0
C187 C 0.22571 0.08712 0.59122 0.0
C188 C 0.20703 0.09644 0.61607 0.0
C189 C 0.19091 0.12267 0.61482 0.0
C190 C 0.19391 0.13931 0.58805 0.0
C191 C 0.21267 0.12993 0.56319 0.0
P192 P 0.24919 0.90788 0.02699 0.0
H193 H 0.25952 0.90839 0.09331 0.0
H194 H 0.2261 0.89317 0.13663 0.0
H195 H 0.15329 0.86075 0.07406 0.0
H196 H 0.18622 0.87783 0.03072 0.0
H197 H 0.3046 0.90922 0.98527 0.0
H198 H 0.33324 0.87283 0.95616 0.0
H199 H 0.2642 0.81031 0.9894 0.0
H200 H 0.23566 0.84679 0.01855 0.0
H201 H 0.23355 0.96765 0.03013 0.0
H202 H 0.20821 0.89708 0.97285 0.0
O203 O 0.27931 0.92788 0.041 0.0
H204 H 0.19919 0.99863 0.99899 0.0
H205 H 0.17383 0.92814 0.94122 0.0
C206 C 0.22533 0.89431 0.05876 0.0
C207 C 0.23639 0.89799 0.08885 0.0
C208 C 0.21729 0.88894 0.11373 0.0
C209 C 0.18686 0.87557 0.10907 0.0
C210 C 0.17626 0.87135 0.07869 0.0
C211 C 0.1952 0.88087 0.05381 0.0
C212 C 0.26835 0.88068 0.00451 0.0
C213 C 0.2956 0.88768 0.98631 0.0
C214 C 0.31199 0.86688 0.96974 0.0
C215 C 0.30115 0.83868 0.97076 0.0
C216 C 0.27305 0.83188 0.98813 0.0
C217 C 0.2568 0.85274 0.00493 0.0
C218 C 0.22393 0.93024 0.0034 0.0
C219 C 0.22084 0.95889 0.01061 0.0
C220 C 0.20128 0.97661 0.9927 0.0
C221 C 0.18411 0.96593 0.96737 0.0
C222 C 0.18675 0.93699 0.96057 0.0
C223 C 0.2065 0.91927 0.97851 0.0
P224 P 0.81505 0.14169 0.48091 0.0
H225 H 0.8221 0.11315 0.42243 0.0
H226 H 0.82612 0.06325 0.40887 0.0
H227 H 0.80523 0.03974 0.50289 0.0
H228 H 0.80068 0.08975 0.51623 0.0
H229 H 0.79979 0.20148 0.48097 0.0
H230 H 0.75179 0.22839 0.46484 0.0
H231 H 0.70261 0.15047 0.44136 0.0
H232 H 0.75002 0.12377 0.45897 0.0
H233 H 0.86861 0.11814 0.51571 0.0
H234 H 0.78494 0.17102 0.53391 0.0
O235 O 0.84579 0.15605 0.46076 0.0
H236 H 0.88475 0.12112 0.56928 0.0
H237 H 0.80205 0.17567 0.58721 0.0
C238 C 0.81221 0.10508 0.47047 0.0
C239 C 0.81783 0.09725 0.44 0.0
C240 C 0.8198 0.06874 0.43224 0.0
C241 C 0.81624 0.04767 0.45493 0.0
C242 C 0.80837 0.0556 0.48506 0.0
C243 C 0.80598 0.08415 0.4927 0.0
C244 C 0.77847 0.16071 0.47112 0.0
C245 C 0.77847 0.19024 0.47267 0.0
C246 C 0.75112 0.20558 0.46318 0.0
C247 C 0.7234 0.19163 0.4515 0.0
C248 C 0.72334 0.1619 0.45054 0.0
C249 C 0.7506 0.14658 0.46042 0.0
C250 C 0.82571 0.14441 0.52078 0.0
C251 C 0.85386 0.13061 0.53125 0.0
C252 C 0.86322 0.13257 0.56187 0.0
C253 C 0.84496 0.14894 0.58262 0.0
C254 C 0.81654 0.16267 0.57201 0.0
C255 C 0.8069 0.16027 0.54136 0.0
Fe256 Fe 0.99454 0.8163 0.3256 0.0
Fe257 Fe 0.99186 0.84857 0.38642 0.0
O258 O 0.99306 0.84866 0.34581 0.0
Fe259 Fe 0.9927 0.8812 0.32563 0.0
O260 O 0.95503 0.8719 0.30616 0.0
O261 O 0.97043 0.82915 0.29297 0.0
O262 O 0.95625 0.8043 0.34277 0.0
C263 C 0.95114 0.80226 0.37126 0.0
C264 C 0.03723 0.8481 0.29113 0.0
O265 O 0.96934 0.81514 0.38999 0.0
C266 C 0.03383 0.89471 0.37245 0.0
O267 O 0.01918 0.79791 0.35475 0.0
O268 O 0.03105 0.83089 0.38828 0.0
O269 O 0.01801 0.8689 0.29362 0.0
O270 O 0.0328 0.82582 0.30669 0.0
C271 C 0.94779 0.89017 0.37433 0.0
O272 O 0.01435 0.88199 0.39057 0.0
O273 O 0.03041 0.89264 0.34381 0.0
C274 C 0.03751 0.80769 0.37559 0.0
O275 O 0.9525 0.86642 0.38687 0.0
O276 O 0.96735 0.89947 0.35399 0.0
C277 C 0.95129 0.85003 0.29019 0.0
Fe278 Fe 0.99176 0.15391 0.88587 0.0
Fe279 Fe 0.98728 0.12225 0.82491 0.0
O280 O 0.99065 0.15436 0.8452 0.0
Fe281 Fe 0.99327 0.18697 0.82498 0.0
O282 O 0.02022 0.20399 0.85315 0.0
O283 O 0.03206 0.16991 0.88573 0.0
O284 O 0.01226 0.11959 0.88914 0.0
C285 C 0.02957 0.106 0.8702 0.0
C286 C 0.95304 0.20203 0.87231 0.0
O287 O 0.02475 0.10856 0.84176 0.0
C288 C 0.94687 0.15558 0.79055 0.0
O289 O 0.95162 0.1375 0.88859 0.0
O290 O 0.96157 0.10491 0.85398 0.0
O291 O 0.95651 0.20008 0.84364 0.0
O292 O 0.97142 0.18823 0.8903 0.0
C293 C 0.0327 0.15391 0.78906 0.0
O294 O 0.94976 0.13344 0.80654 0.0
O295 O 0.96702 0.17581 0.79317 0.0
C296 C 0.9442 0.11464 0.87559 0.0
O297 O 0.0122 0.13397 0.79217 0.0
O298 O 0.0302 0.1761 0.80479 0.0
C299 C 0.03913 0.19312 0.87294 0.0
Fe300 Fe 0.49246 0.31229 0.31628 0.0
Fe301 Fe 0.48954 0.34666 0.37566 0.0
O302 O 0.49091 0.34531 0.33513 0.0
Fe303 Fe 0.49088 0.37703 0.31344 0.0
O304 O 0.46847 0.36212 0.28085 0.0
O305 O 0.4547 0.31935 0.29597 0.0
O306 O 0.4676 0.29347 0.34534 0.0
C307 C 0.44799 0.30248 0.36567 0.0
C308 C 0.53594 0.34678 0.28111 0.0
O309 O 0.45167 0.32672 0.37694 0.0
C310 C 0.53191 0.3901 0.36378 0.0
O311 O 0.53034 0.30301 0.3352 0.0
O312 O 0.51443 0.31483 0.38158 0.0
O313 O 0.53012 0.36872 0.29638 0.0
O314 O 0.51769 0.32515 0.28382 0.0
C315 C 0.44631 0.39067 0.35742 0.0
O316 O 0.52741 0.36666 0.37707 0.0
O317 O 0.51346 0.39781 0.34198 0.0
C318 C 0.53439 0.30255 0.36384 0.0
O319 O 0.46455 0.37886 0.37716 0.0
O320 O 0.45164 0.38745 0.32916 0.0
C321 C 0.45055 0.34034 0.27846 0.0
Fe322 Fe 0.48917 0.6541 0.879 0.0
Fe323 Fe 0.49448 0.6221 0.81836 0.0
O324 O 0.4911 0.65425 0.83841 0.0
Fe325 Fe 0.48993 0.68657 0.81778 0.0
O326 O 0.52692 0.69871 0.83632 0.0
O327 O 0.51111 0.68784 0.88327 0.0
O328 O 0.52868 0.63678 0.88202 0.0
C329 C 0.53558 0.61345 0.86981 0.0
C330 C 0.44436 0.69512 0.86639 0.0
O331 O 0.51828 0.60391 0.84816 0.0
C332 C 0.45111 0.65441 0.78148 0.0
O333 O 0.46702 0.62024 0.88188 0.0
O334 O 0.4561 0.60932 0.8341 0.0
O335 O 0.46346 0.70464 0.84572 0.0
O336 O 0.44966 0.67144 0.87883 0.0
C337 C 0.53676 0.65441 0.78468 0.0
O338 O 0.4714 0.63441 0.78478 0.0
O339 O 0.45287 0.67618 0.79789 0.0
C340 C 0.45055 0.60641 0.86242 0.0
O341 O 0.53315 0.6328 0.80142 0.0
O342 O 0.51629 0.6745 0.786 0.0
C343 C 0.53045 0.70053 0.86495 0.0
C344 C 0.19089 0.27852 0.94316 0.0
C345 C 0.218 0.27712 0.92332 0.0
C346 C 0.16081 0.26615 0.93529 0.0
C347 C 0.15788 0.25186 0.90702 0.0
C348 C 0.18495 0.25077 0.88667 0.0
C349 C 0.21462 0.26353 0.89501 0.0
C350 C 0.13238 0.26787 0.95747 0.0
C351 C 0.18275 0.23569 0.85633 0.0
C352 C 0.09314 0.19469 0.8997 0.0
C353 C 0.06899 0.2085 0.88243 0.0
C354 C 0.12209 0.20863 0.90802 0.0
C355 C 0.12686 0.23717 0.89912 0.0
C356 C 0.10239 0.25139 0.88209 0.0
C357 C 0.07381 0.23683 0.87378 0.0
C358 C 0.1478 0.19268 0.92593 0.0
C359 C 0.10653 0.28191 0.87246 0.0
H360 H 0.19339 0.28869 0.96522 0.0
H361 H 0.23526 0.26281 0.87931 0.0
H362 H 0.11059 0.27681 0.94579 0.0
H363 H 0.12565 0.24636 0.96562 0.0
H364 H 0.13813 0.28108 0.97772 0.0
H365 H 0.20586 0.23727 0.84285 0.0
H366 H 0.17705 0.21302 0.86032 0.0
H367 H 0.16252 0.24464 0.84241 0.0
H368 H 0.0897 0.17275 0.90631 0.0
H369 H 0.05521 0.24769 0.86053 0.0
H370 H 0.15312 0.20374 0.9477 0.0
H371 H 0.17098 0.19199 0.91256 0.0
H372 H 0.14012 0.17067 0.9314 0.0
H373 H 0.11102 0.29521 0.89288 0.0
H374 H 0.08471 0.29019 0.86019 0.0
H375 H 0.12821 0.28416 0.85719 0.0
C376 C 0.8089 0.7028 0.44268 0.0
C377 C 0.8233 0.67722 0.45183 0.0
C378 C 0.8273 0.72368 0.42723 0.0
C379 C 0.86087 0.71884 0.4208 0.0
C380 C 0.87521 0.69268 0.42907 0.0
C381 C 0.85626 0.67221 0.44443 0.0
C382 C 0.81115 0.7513 0.41876 0.0
C383 C 0.91088 0.68662 0.42254 0.0
C384 C 0.90873 0.76427 0.36369 0.0
C385 C 0.92612 0.78221 0.38335 0.0
C386 C 0.8866 0.74404 0.37544 0.0
C387 C 0.88176 0.74174 0.40756 0.0
C388 C 0.89843 0.76038 0.42739 0.0
C389 C 0.92033 0.78035 0.41508 0.0
C390 C 0.86913 0.7246 0.35357 0.0
C391 C 0.8939 0.75868 0.46178 0.0
H392 H 0.7835 0.70688 0.44847 0.0
H393 H 0.86737 0.65227 0.45088 0.0
H394 H 0.82195 0.76862 0.43246 0.0
H395 H 0.81569 0.75643 0.39423 0.0
H396 H 0.78427 0.75084 0.42292 0.0
H397 H 0.91779 0.66465 0.42884 0.0
H398 H 0.91635 0.69007 0.39785 0.0
H399 H 0.92654 0.70141 0.43566 0.0
H400 H 0.91288 0.76562 0.33915 0.0
H401 H 0.93337 0.79425 0.43049 0.0
H402 H 0.84234 0.72498 0.35797 0.0
H403 H 0.87749 0.70257 0.35735 0.0
H404 H 0.87369 0.73044 0.32919 0.0
H405 H 0.86753 0.76019 0.46778 0.0
H406 H 0.90737 0.77567 0.47391 0.0
H407 H 0.90276 0.73795 0.47039 0.0
C408 C 0.85853 0.33557 0.93802 0.0
C409 C 0.82932 0.32858 0.95347 0.0
C410 C 0.87708 0.3149 0.92299 0.0
C411 C 0.86604 0.28653 0.92308 0.0
C412 C 0.83592 0.27949 0.93752 0.0
C413 C 0.81798 0.30057 0.95264 0.0
C414 C 0.90908 0.32329 0.9079 0.0
C415 C 0.82322 0.2495 0.93794 0.0
C416 C 0.90652 0.23636 0.86657 0.0
C417 C 0.92984 0.22296 0.88523 0.0
C418 C 0.88506 0.25669 0.87866 0.0
C419 C 0.88724 0.26399 0.91005 0.0
C420 C 0.9105 0.25034 0.92901 0.0
C421 C 0.93134 0.22992 0.91644 0.0
C422 C 0.8603 0.27056 0.85783 0.0
C423 C 0.91382 0.25768 0.96253 0.0
H424 H 0.86714 0.35725 0.93796 0.0
H425 H 0.79561 0.29488 0.96469 0.0
H426 H 0.92969 0.31262 0.91975 0.0
H427 H 0.90948 0.31633 0.88366 0.0
H428 H 0.91336 0.34647 0.90846 0.0
H429 H 0.79804 0.24796 0.94762 0.0
H430 H 0.82311 0.24079 0.91438 0.0
H431 H 0.83968 0.23602 0.95194 0.0
H432 H 0.90502 0.23099 0.84249 0.0
H433 H 0.94927 0.21975 0.93107 0.0
H434 H 0.86525 0.29358 0.85625 0.0
H435 H 0.83527 0.26791 0.86749 0.0
H436 H 0.86077 0.26167 0.83431 0.0
H437 H 0.9204 0.28033 0.96481 0.0
H438 H 0.9328 0.2448 0.97427 0.0
H439 H 0.89008 0.25442 0.97455 0.0
C440 C 0.18148 0.71418 0.44863 0.0
C441 C 0.20971 0.71626 0.43027 0.0
C442 C 0.15245 0.72801 0.44026 0.0
C443 C 0.15176 0.74441 0.413 0.0
C444 C 0.18002 0.74631 0.39417 0.0
C445 C 0.20862 0.73213 0.40299 0.0
C446 C 0.1227 0.72544 0.46083 0.0
C447 C 0.18018 0.76361 0.36491 0.0
C448 C 0.0705 0.76319 0.37623 0.0
C449 C 0.06601 0.79105 0.38616 0.0
C450 C 0.09801 0.74755 0.38526 0.0
C451 C 0.12171 0.76017 0.40444 0.0
C452 C 0.1172 0.78816 0.41478 0.0
C453 C 0.08934 0.80324 0.4056 0.0
C454 C 0.10192 0.71764 0.37399 0.0
C455 C 0.1421 0.80238 0.43509 0.0
H456 H 0.18226 0.70223 0.46992 0.0
H457 H 0.2302 0.73343 0.38844 0.0
H458 H 0.11602 0.74653 0.46981 0.0
H459 H 0.10144 0.7176 0.44755 0.0
H460 H 0.12687 0.71092 0.48056 0.0
H461 H 0.20407 0.76261 0.35266 0.0
H462 H 0.16069 0.75603 0.3493 0.0
H463 H 0.17478 0.78602 0.37015 0.0
H464 H 0.05254 0.75357 0.36129 0.0
H465 H 0.08615 0.8248 0.41326 0.0
H466 H 0.10484 0.70295 0.39374 0.0
H467 H 0.12442 0.71602 0.35974 0.0
H468 H 0.08067 0.71058 0.36013 0.0
H469 H 0.14583 0.7897 0.45629 0.0
H470 H 0.13459 0.82406 0.44166 0.0
H471 H 0.16608 0.80366 0.42304 0.0
C472 C 0.68511 0.76775 0.9462 0.0
C473 C 0.68875 0.7968 0.9409 0.0
C474 C 0.65887 0.75276 0.93347 0.0
C475 C 0.63543 0.76737 0.91555 0.0
C476 C 0.63874 0.79683 0.91053 0.0
C477 C 0.66566 0.81118 0.923 0.0
C478 C 0.65652 0.72125 0.93883 0.0
C479 C 0.61385 0.81316 0.89204 0.0
C480 C 0.58492 0.72416 0.86 0.0
C481 C 0.55652 0.71881 0.8773 0.0
C482 C 0.61072 0.74018 0.87207 0.0
C483 C 0.60766 0.75162 0.90186 0.0
C484 C 0.57861 0.747 0.91906 0.0
C485 C 0.55351 0.73034 0.9067 0.0
C486 C 0.6416 0.74419 0.8533 0.0
C487 C 0.57422 0.75935 0.95065 0.0
H488 H 0.70326 0.75664 0.95978 0.0
H489 H 0.66852 0.8337 0.91907 0.0
H490 H 0.6331 0.71595 0.95055 0.0
H491 H 0.6566 0.71011 0.91651 0.0
H492 H 0.67706 0.71306 0.95296 0.0
H493 H 0.61945 0.83614 0.89111 0.0
H494 H 0.61303 0.80503 0.86826 0.0
H495 H 0.58905 0.81018 0.90213 0.0
H496 H 0.5874 0.71509 0.83734 0.0
H497 H 0.53145 0.72643 0.92003 0.0
H498 H 0.66269 0.7347 0.8656 0.0
H499 H 0.64699 0.76702 0.85026 0.0
H500 H 0.6398 0.73437 0.83029 0.0
H501 H 0.59248 0.75009 0.96658 0.0
H502 H 0.54931 0.75534 0.96014 0.0
H503 H 0.57859 0.78249 0.94989 0.0
C504 C 0.30875 0.19921 0.43648 0.0
C505 C 0.32306 0.18369 0.46046 0.0
C506 C 0.32711 0.21905 0.41944 0.0
C507 C 0.36053 0.22347 0.42662 0.0
C508 C 0.3751 0.20787 0.45078 0.0
C509 C 0.35623 0.18815 0.46734 0.0
C510 C 0.31075 0.2353 0.39383 0.0
C511 C 0.41069 0.21194 0.45911 0.0
C512 C 0.42001 0.25529 0.36861 0.0
C513 C 0.42333 0.28301 0.37942 0.0
C514 C 0.39877 0.23594 0.38311 0.0
C515 C 0.38045 0.24448 0.40907 0.0
C516 C 0.38278 0.27268 0.41943 0.0
C517 C 0.40412 0.29161 0.40446 0.0
C518 C 0.39678 0.20609 0.37127 0.0
C519 C 0.36363 0.28259 0.44703 0.0
H520 H 0.28306 0.19607 0.43122 0.0
H521 H 0.36765 0.17589 0.48545 0.0
H522 H 0.31196 0.25829 0.39851 0.0
H523 H 0.32392 0.23169 0.3719 0.0
H524 H 0.28466 0.22915 0.39092 0.0
H525 H 0.41825 0.19825 0.47864 0.0
H526 H 0.42652 0.20714 0.43907 0.0
H527 H 0.41523 0.2343 0.46531 0.0
H528 H 0.43454 0.24847 0.34918 0.0
H529 H 0.40633 0.31299 0.41293 0.0
H530 H 0.37087 0.20005 0.36729 0.0
H531 H 0.40672 0.19124 0.3887 0.0
H532 H 0.41074 0.20336 0.34956 0.0
H533 H 0.3372 0.27775 0.44421 0.0
H534 H 0.36648 0.30563 0.4509 0.0
H535 H 0.37209 0.27113 0.46783 0.0
C536 C 0.35409 0.81536 0.95715 0.0
C537 C 0.31987 0.8164 0.95455 0.0
C538 C 0.37238 0.79459 0.94206 0.0
C539 C 0.35611 0.77445 0.92367 0.0
C540 C 0.32154 0.77534 0.92093 0.0
C541 C 0.30379 0.79623 0.93658 0.0
C542 C 0.40916 0.79418 0.94588 0.0
C543 C 0.30339 0.75441 0.90128 0.0
C544 C 0.41064 0.73925 0.86448 0.0
C545 C 0.41883 0.71387 0.87941 0.0
C546 C 0.38905 0.7586 0.87802 0.0
C547 C 0.37555 0.75259 0.90733 0.0
C548 C 0.38269 0.72654 0.92198 0.0
C549 C 0.40409 0.70743 0.90778 0.0
C550 C 0.3817 0.78598 0.86146 0.0
C551 C 0.36895 0.71941 0.95332 0.0
H552 H 0.36656 0.83066 0.97138 0.0
H553 H 0.27736 0.7971 0.93435 0.0
H554 H 0.41697 0.77345 0.95534 0.0
H555 H 0.42131 0.79688 0.92323 0.0
H556 H 0.41798 0.81109 0.96136 0.0
H557 H 0.27648 0.75791 0.90161 0.0
H558 H 0.31222 0.75598 0.87722 0.0
H559 H 0.30838 0.73256 0.90936 0.0
H560 H 0.42165 0.7443 0.84243 0.0
H561 H 0.41021 0.68789 0.91951 0.0
H562 H 0.39257 0.80389 0.87422 0.0
H563 H 0.35485 0.78953 0.86052 0.0
H564 H 0.39164 0.78632 0.8377 0.0
H565 H 0.37913 0.7342 0.97049 0.0
H566 H 0.37487 0.69747 0.9606 0.0
H567 H 0.34194 0.72201 0.95353 0.0
C568 C 0.70049 0.23306 0.42264 0.0
C569 C 0.69515 0.20805 0.43947 0.0
C570 C 0.67422 0.24864 0.41075 0.0
C571 C 0.64181 0.23876 0.41537 0.0
C572 C 0.63617 0.21354 0.43223 0.0
C573 C 0.6629 0.19858 0.44426 0.0
C574 C 0.68116 0.27559 0.39307 0.0
C575 C 0.60191 0.20228 0.43741 0.0
C576 C 0.57204 0.29105 0.40714 0.0
C577 C 0.56157 0.28595 0.37708 0.0
C578 C 0.59817 0.27585 0.41991 0.0
C579 C 0.61384 0.25478 0.40232 0.0
C580 C 0.60316 0.24931 0.37208 0.0
C581 C 0.57731 0.26514 0.35972 0.0
C582 C 0.60927 0.28259 0.45205 0.0
C583 C 0.61905 0.22674 0.35279 0.0
H584 H 0.72531 0.24029 0.4183 0.0
H585 H 0.65849 0.17952 0.45759 0.0
H586 H 0.67227 0.27357 0.36917 0.0
H587 H 0.66777 0.29346 0.4036 0.0
H588 H 0.70771 0.28085 0.39241 0.0
H589 H 0.60173 0.18216 0.45071 0.0
H590 H 0.58702 0.21805 0.44993 0.0
H591 H 0.5898 0.19863 0.41503 0.0
H592 H 0.56015 0.3073 0.42057 0.0
H593 H 0.56921 0.26101 0.33651 0.0
H594 H 0.63534 0.28932 0.45167 0.0
H595 H 0.6076 0.26344 0.46679 0.0
H596 H 0.59445 0.2996 0.46267 0.0
H597 H 0.64537 0.23176 0.34924 0.0
H598 H 0.60725 0.22461 0.32999 0.0
H599 H 0.61772 0.20606 0.36489 0.0
C600 C 0.40955 0.45482 0.91806 0.0
C601 C 0.3769 0.44699 0.92354 0.0
C602 C 0.41765 0.48225 0.90839 0.0
C603 C 0.39246 0.50244 0.90426 0.0
C604 C 0.35942 0.49474 0.9099 0.0
C605 C 0.35199 0.46699 0.91932 0.0
C606 C 0.45318 0.48954 0.90233 0.0
C607 C 0.33201 0.51581 0.90605 0.0
C608 C 0.42509 0.57737 0.90449 0.0
C609 C 0.42986 0.58244 0.87302 0.0
C610 C 0.41074 0.55211 0.91502 0.0
C611 C 0.40114 0.5314 0.89358 0.0
C612 C 0.40369 0.53724 0.86177 0.0
C613 C 0.41787 0.56276 0.85187 0.0
C614 C 0.40794 0.54683 0.94913 0.0
C615 C 0.39371 0.51571 0.83817 0.0
H616 H 0.42881 0.43929 0.9209 0.0
H617 H 0.32675 0.46101 0.92381 0.0
H618 H 0.45637 0.49662 0.87817 0.0
H619 H 0.46087 0.50727 0.91719 0.0
H620 H 0.46976 0.47136 0.9066 0.0
H621 H 0.30767 0.50657 0.91176 0.0
H622 H 0.33631 0.5343 0.92102 0.0
H623 H 0.3315 0.52376 0.88206 0.0
H624 H 0.43389 0.59259 0.92102 0.0
H625 H 0.42115 0.56653 0.82749 0.0
H626 H 0.42652 0.53103 0.95624 0.0
H627 H 0.38348 0.53802 0.95506 0.0
H628 H 0.41192 0.5664 0.96255 0.0
H629 H 0.41118 0.49778 0.83869 0.0
H630 H 0.39351 0.52474 0.81457 0.0
H631 H 0.36903 0.50706 0.84348 0.0
C632 C 0.63038 0.50578 0.45694 0.0
C633 C 0.66283 0.50992 0.44707 0.0
C634 C 0.60975 0.48636 0.44234 0.0
C635 C 0.62186 0.47057 0.41729 0.0
C636 C 0.65448 0.47478 0.40701 0.0
C637 C 0.67457 0.49442 0.42201 0.0
C638 C 0.57511 0.48246 0.454 0.0
C639 C 0.6682 0.4584 0.38032 0.0
C640 C 0.57718 0.40199 0.40024 0.0
C641 C 0.55638 0.41018 0.37621 0.0
C642 C 0.59917 0.42126 0.41333 0.0
C643 C 0.60037 0.44942 0.40219 0.0
C644 C 0.58003 0.45766 0.37748 0.0
C645 C 0.55834 0.43794 0.36475 0.0
C646 C 0.6206 0.41165 0.43956 0.0
C647 C 0.58059 0.48751 0.36499 0.0
H648 H 0.62127 0.5173 0.47658 0.0
H649 H 0.69949 0.49773 0.41404 0.0
H650 H 0.55742 0.48638 0.43518 0.0
H651 H 0.57146 0.46033 0.46191 0.0
H652 H 0.56924 0.49683 0.47328 0.0
H653 H 0.69394 0.46439 0.37492 0.0
H654 H 0.6673 0.43543 0.38552 0.0
H655 H 0.65302 0.46205 0.35961 0.0
H656 H 0.57603 0.38056 0.40913 0.0
H657 H 0.54245 0.44449 0.34616 0.0
H658 H 0.61425 0.42358 0.46056 0.0
H659 H 0.64672 0.41613 0.43423 0.0
H660 H 0.61785 0.38871 0.44455 0.0
H661 H 0.57247 0.50236 0.38305 0.0
H662 H 0.56444 0.49016 0.34472 0.0
H663 H 0.60593 0.4936 0.35837 0.0
C664 C 0.63985 0.5004 0.96182 0.0
C665 C 0.67327 0.49965 0.9542 0.0
C666 C 0.61866 0.51986 0.94784 0.0
C667 C 0.63116 0.53912 0.92571 0.0
C668 C 0.66491 0.53865 0.91802 0.0
C669 C 0.68558 0.51891 0.93237 0.0
C670 C 0.58283 0.51973 0.95672 0.0
C671 C 0.67909 0.55881 0.89444 0.0
C672 C 0.56883 0.56911 0.87001 0.0
C673 C 0.56171 0.59542 0.88308 0.0
C674 C 0.59202 0.55094 0.88319 0.0
C675 C 0.60859 0.55923 0.91013 0.0
C676 C 0.60228 0.58608 0.92297 0.0
C677 C 0.57894 0.60388 0.90928 0.0
C678 C 0.59813 0.52252 0.86873 0.0
C679 C 0.61955 0.59568 0.95165 0.0
H680 H 0.63027 0.48596 0.97909 0.0
H681 H 0.71132 0.51831 0.92619 0.0
H682 H 0.57565 0.5408 0.96542 0.0
H683 H 0.56755 0.5154 0.93628 0.0
H684 H 0.57709 0.50362 0.97463 0.0
H685 H 0.70599 0.55621 0.89162 0.0
H686 H 0.66721 0.55537 0.87192 0.0
H687 H 0.67402 0.58094 0.90115 0.0
H688 H 0.55587 0.56242 0.84964 0.0
H689 H 0.57377 0.62421 0.91948 0.0
H690 H 0.59041 0.50545 0.88481 0.0
H691 H 0.62468 0.51969 0.86418 0.0
H692 H 0.58462 0.51992 0.84686 0.0
H693 H 0.61261 0.5817 0.97118 0.0
H694 H 0.61338 0.6178 0.95769 0.0
H695 H 0.64649 0.59404 0.94866 0.0
C696 C 0.39449 0.53853 0.41095 0.0
C697 C 0.36165 0.54456 0.41779 0.0
C698 C 0.40391 0.51177 0.40078 0.0
C699 C 0.37993 0.49035 0.39749 0.0
C700 C 0.3467 0.49619 0.40434 0.0
C701 C 0.33793 0.52329 0.41444 0.0
C702 C 0.43967 0.50636 0.39383 0.0
C703 C 0.32054 0.47382 0.40112 0.0
C704 C 0.40942 0.43161 0.34602 0.0
C705 C 0.42335 0.413 0.36749 0.0
C706 C 0.39297 0.45604 0.35554 0.0
C707 C 0.39025 0.46185 0.38725 0.0
C708 C 0.40177 0.44194 0.40903 0.0
C709 C 0.41822 0.41775 0.39889 0.0
C710 C 0.38085 0.47669 0.3316 0.0
C711 C 0.399 0.4472 0.44306 0.0
H712 H 0.41306 0.55466 0.4141 0.0
H713 H 0.31248 0.52789 0.41949 0.0
H714 H 0.44903 0.4893 0.409 0.0
H715 H 0.44256 0.49914 0.36981 0.0
H716 H 0.45512 0.52546 0.39705 0.0
H717 H 0.29579 0.48181 0.40717 0.0
H718 H 0.32005 0.46599 0.37721 0.0
H719 H 0.32623 0.45549 0.41617 0.0
H720 H 0.41295 0.42801 0.3217 0.0
H721 H 0.42845 0.40328 0.41567 0.0
H722 H 0.39725 0.49542 0.33097 0.0
H723 H 0.35588 0.4842 0.33742 0.0
H724 H 0.38038 0.46726 0.30834 0.0
H725 H 0.41645 0.46411 0.44961 0.0
H726 H 0.40463 0.42798 0.45683 0.0
H727 H 0.37401 0.45453 0.44912 0.0
C728 C 0.83173 0.99111 0.94885 0.0
C729 C 0.85281 0.96778 0.94648 0.0
C730 C 0.84148 0.01803 0.93842 0.0
C731 C 0.87327 0.02179 0.92598 0.0
C732 C 0.89475 0.99846 0.92382 0.0
C733 C 0.88409 0.97175 0.93364 0.0
C734 C 0.81775 0.04236 0.94048 0.0
C735 C 0.92904 0.00162 0.91095 0.0
C736 C 0.90043 0.07864 0.87043 0.0
C737 C 0.91949 0.09576 0.88942 0.0
C738 C 0.88237 0.05596 0.88261 0.0
C739 C 0.88438 0.04982 0.91438 0.0
C740 C 0.90166 0.06835 0.93396 0.0
C741 C 0.91878 0.0914 0.92122 0.0
C742 C 0.86345 0.03721 0.86107 0.0
C743 C 0.90484 0.0623 0.96786 0.0
H744 H 0.80768 0.98845 0.95909 0.0
H745 H 0.90033 0.95386 0.93092 0.0
H746 H 0.82826 0.0594 0.95477 0.0
H747 H 0.81353 0.05145 0.91729 0.0
H748 H 0.79376 0.03587 0.95046 0.0
H749 H 0.94329 0.98169 0.91252 0.0
H750 H 0.9279 0.00819 0.8865 0.0
H751 H 0.94251 0.01833 0.92346 0.0
H752 H 0.9009 0.08221 0.84582 0.0
H753 H 0.9338 0.10454 0.93585 0.0
H754 H 0.83931 0.03139 0.8711 0.0
H755 H 0.87728 0.01737 0.85731 0.0
H756 H 0.85947 0.04756 0.83843 0.0
H757 H 0.88089 0.05605 0.97797 0.0
H758 H 0.91447 0.08082 0.98052 0.0
H759 H 0.92195 0.04437 0.9713 0.0
C760 C 0.1384 0.02238 0.44028 0.0
C761 C 0.16763 0.01325 0.45396 0.0
C762 C 0.11775 0.00337 0.42502 0.0
C763 C 0.12664 0.97455 0.42315 0.0
C764 C 0.15665 0.96535 0.43594 0.0
C765 C 0.17669 0.98477 0.4513 0.0
C766 C 0.08591 0.01398 0.41174 0.0
C767 C 0.16705 0.9348 0.43433 0.0
C768 C 0.05794 0.9208 0.41664 0.0
C769 C 0.05826 0.91467 0.38518 0.0
C770 C 0.08009 0.94017 0.42919 0.0
C771 C 0.10342 0.95366 0.4099 0.0
C772 C 0.10426 0.94734 0.3782 0.0
C773 C 0.08158 0.92798 0.36617 0.0
C774 C 0.07828 0.94642 0.46309 0.0
C775 C 0.12902 0.9611 0.35701 0.0
H776 H 0.13148 0.04442 0.44172 0.0
H777 H 0.199 0.97738 0.46208 0.0
H778 H 0.08405 0.0081 0.38722 0.0
H779 H 0.06499 0.00387 0.42395 0.0
H780 H 0.08343 0.03727 0.41361 0.0
H781 H 0.19233 0.93154 0.44301 0.0
H782 H 0.15002 0.92155 0.44821 0.0
H783 H 0.16581 0.92721 0.41035 0.0
H784 H 0.04005 0.91068 0.43156 0.0
H785 H 0.08213 0.92327 0.34188 0.0
H786 H 0.07349 0.96924 0.46658 0.0
H787 H 0.10207 0.94153 0.47413 0.0
H788 H 0.05873 0.93408 0.47495 0.0
H789 H 0.12568 0.98435 0.35701 0.0
H790 H 0.12691 0.95347 0.33305 0.0
H791 H 0.15421 0.9568 0.36529 0.0
C792 C 0.17407 0.01222 0.94073 0.0
C793 C 0.16307 0.98501 0.94871 0.0
C794 C 0.15356 0.03139 0.92541 0.0
C795 C 0.1212 0.0232 0.91789 0.0
C796 C 0.11035 0.99541 0.92481 0.0
C797 C 0.13143 0.97663 0.94011 0.0
C798 C 0.16613 0.06077 0.9183 0.0
C799 C 0.07599 0.9859 0.91724 0.0
C800 C 0.05719 0.08108 0.91374 0.0
C801 C 0.05348 0.08498 0.88197 0.0
C802 C 0.07906 0.06104 0.92559 0.0
C803 C 0.09789 0.04443 0.90525 0.0
C804 C 0.0945 0.0483 0.87317 0.0
C805 C 0.07232 0.06854 0.86189 0.0
C806 C 0.08196 0.05762 0.95997 0.0
C807 C 0.11427 0.03103 0.8508 0.0
H808 H 0.19869 0.01866 0.94685 0.0
H809 H 0.12268 0.95572 0.94639 0.0
H810 H 0.16207 0.06607 0.89378 0.0
H811 H 0.15236 0.07641 0.93209 0.0
H812 H 0.19265 0.06308 0.9234 0.0
H813 H 0.07224 0.96298 0.92176 0.0
H814 H 0.0581 0.99791 0.93124 0.0
H815 H 0.07047 0.99037 0.89279 0.0
H816 H 0.04284 0.09366 0.92951 0.0
H817 H 0.0697 0.07141 0.83733 0.0
H818 H 0.10755 0.06179 0.96718 0.0
H819 H 0.07595 0.03557 0.96678 0.0
H820 H 0.06545 0.07211 0.97264 0.0
H821 H 0.14083 0.03418 0.85496 0.0
H822 H 0.10892 0.03669 0.82655 0.0
H823 H 0.10899 0.00823 0.85431 0.0
C824 C 0.81449 0.00531 0.42089 0.0
C825 C 0.82543 0.01819 0.44783 0.0
C826 C 0.82878 0.98016 0.41054 0.0
C827 C 0.85504 0.96812 0.42723 0.0
C828 C 0.86417 0.97975 0.45579 0.0
C829 C 0.84908 0.00459 0.46584 0.0
C830 C 0.81774 0.96795 0.38041 0.0
C831 C 0.89227 0.96779 0.47417 0.0
C832 C 0.89641 0.89927 0.40468 0.0
C833 C 0.92257 0.90941 0.38669 0.0
C834 C 0.87332 0.91798 0.41726 0.0
C835 C 0.87706 0.94741 0.41222 0.0
C836 C 0.90319 0.95762 0.39375 0.0
C837 C 0.92536 0.93851 0.381 0.0
C838 C 0.84531 0.90636 0.43625 0.0
C839 C 0.90839 0.98889 0.3881 0.0
H840 H 0.7959 0.01565 0.40714 0.0
H841 H 0.85774 0.0146 0.4866 0.0
H842 H 0.83551 0.97395 0.36214 0.0
H843 H 0.81689 0.94454 0.38163 0.0
H844 H 0.79319 0.97593 0.37368 0.0
H845 H 0.893 0.97645 0.49778 0.0
H846 H 0.89061 0.94445 0.47568 0.0
H847 H 0.91574 0.97314 0.4625 0.0
H848 H 0.894 0.87677 0.40892 0.0
H849 H 0.94555 0.94656 0.36723 0.0
H850 H 0.82171 0.91524 0.42815 0.0
H851 H 0.84829 0.91273 0.46051 0.0
H852 H 0.84393 0.88293 0.43535 0.0
H853 H 0.8864 0.99818 0.37712 0.0
H854 H 0.92995 0.99328 0.37316 0.0
H855 H 0.91204 -0.00016 0.41026 0.0
C856 C 0.34635 0.32629 0.12201 0.0
C857 C 0.3699 0.31877 0.09999 0.0
C858 C 0.35482 0.32904 0.15306 0.0
C859 C 0.3876 0.32425 0.16218 0.0
C860 C 0.41121 0.31585 0.14021 0.0
C861 C 0.40208 0.31325 0.10942 0.0
C862 C 0.32897 0.33785 0.17591 0.0
C863 C 0.44648 0.31061 0.149 0.0
C864 C 0.42615 0.36008 0.23042 0.0
C865 C 0.42926 0.33746 0.25119 0.0
C866 C 0.41077 0.35648 0.20202 0.0
C867 C 0.3981 0.32963 0.19422 0.0
C868 C 0.39903 0.30725 0.21591 0.0
C869 C 0.41461 0.31143 0.24419 0.0
C870 C 0.41004 0.38095 0.17959 0.0
C871 C 0.38551 0.27839 0.20852 0.0
H872 H 0.32136 0.33029 0.1149 0.0
H873 H 0.42054 0.30787 0.0925 0.0
H874 H 0.32861 0.32312 0.19582 0.0
H875 H 0.3349 0.35916 0.18479 0.0
H876 H 0.30411 0.33847 0.16563 0.0
H877 H 0.46138 0.30278 0.12946 0.0
H878 H 0.45768 0.33048 0.15738 0.0
H879 H 0.44773 0.2949 0.16798 0.0
H880 H 0.437 0.38038 0.23574 0.0
H881 H 0.4166 0.29387 0.26018 0.0
H882 H 0.38511 0.38359 0.16997 0.0
H883 H 0.42689 0.37659 0.16015 0.0
H884 H 0.41763 0.40113 0.19034 0.0
H885 H 0.36081 0.28016 0.19815 0.0
H886 H 0.38387 0.26457 0.22919 0.0
H887 H 0.40168 0.26804 0.19146 0.0
C888 C 0.67481 0.64711 0.65162 0.0
C889 C 0.66184 0.62984 0.62861 0.0
C890 C 0.65599 0.65437 0.67746 0.0
C891 C 0.62348 0.64409 0.68029 0.0
C892 C 0.60989 0.62755 0.65656 0.0
C893 C 0.62921 0.62067 0.63103 0.0
C894 C 0.67126 0.67213 0.70223 0.0
C895 C 0.57526 0.61631 0.6586 0.0
C896 C 0.58421 0.63158 0.7582 0.0
C897 C 0.5617 0.6539 0.75983 0.0
C898 C 0.60542 0.62885 0.73301 0.0
C899 C 0.60419 0.64893 0.70881 0.0
C900 C 0.58269 0.67227 0.71097 0.0
C901 C 0.5617 0.67449 0.73648 0.0
C902 C 0.6281 0.60371 0.73166 0.0
C903 C 0.5808 0.69419 0.68571 0.0
H904 H 0.70007 0.65412 0.64999 0.0
H905 H 0.61887 0.60774 0.61305 0.0
H906 H 0.65504 0.69011 0.70803 0.0
H907 H 0.6742 0.65922 0.72339 0.0
H908 H 0.69567 0.68055 0.69534 0.0
H909 H 0.56781 0.60502 0.63747 0.0
H910 H 0.57306 0.6015 0.67836 0.0
H911 H 0.55783 0.63386 0.66262 0.0
H912 H 0.58465 0.6157 0.77624 0.0
H913 H 0.54451 0.69188 0.73755 0.0
H914 H 0.65359 0.61075 0.72692 0.0
H915 H 0.62065 0.58971 0.7126 0.0
H916 H 0.62785 0.59119 0.75332 0.0
H917 H 0.60567 0.70194 0.67958 0.0
H918 H 0.5654 0.71251 0.69228 0.0
H919 H 0.57022 0.68452 0.66485 0.0
C920 C 0.63297 0.37788 0.12791 0.0
C921 C 0.66658 0.37175 0.1284 0.0
C922 C 0.61262 0.37089 0.15284 0.0
C923 C 0.62615 0.35735 0.17892 0.0
C924 C 0.65975 0.34992 0.17901 0.0
C925 C 0.6796 0.35722 0.15372 0.0
C926 C 0.57686 0.37903 0.15173 0.0
C927 C 0.67503 0.33537 0.20635 0.0
C928 C 0.58129 0.37206 0.25342 0.0
C929 C 0.56138 0.34799 0.2567 0.0
C930 C 0.60328 0.37487 0.22879 0.0
C931 C 0.60556 0.35306 0.20685 0.0
C932 C 0.58657 0.32819 0.21065 0.0
C933 C 0.56469 0.32594 0.23554 0.0
C934 C 0.62318 0.40171 0.22562 0.0
C935 C 0.58847 0.30443 0.18781 0.0
H936 H 0.62267 0.38866 0.10816 0.0
H937 H 0.70559 0.35258 0.15433 0.0
H938 H 0.56117 0.36042 0.15693 0.0
H939 H 0.57172 0.39512 0.16948 0.0
H940 H 0.56973 0.38781 0.12902 0.0
H941 H 0.70055 0.3285 0.20162 0.0
H942 H 0.67533 0.35 0.22611 0.0
H943 H 0.66027 0.31665 0.21328 0.0
H944 H 0.57916 0.38913 0.26975 0.0
H945 H 0.54953 0.30721 0.2379 0.0
H946 H 0.61566 0.41332 0.20459 0.0
H947 H 0.64958 0.39665 0.22313 0.0
H948 H 0.62003 0.41589 0.2456 0.0
H949 H 0.57846 0.31162 0.16546 0.0
H950 H 0.57447 0.28549 0.19554 0.0
H951 H 0.61436 0.2983 0.18385 0.0
C952 C 0.36953 0.6844 0.62113 0.0
C953 C 0.35048 0.66193 0.61042 0.0
C954 C 0.38179 0.6842 0.65111 0.0
C955 C 0.37415 0.66125 0.67095 0.0
C956 C 0.3528 0.6396 0.66091 0.0
C957 C 0.34161 0.63996 0.6305 0.0
C958 C 0.40503 0.70738 0.66067 0.0
C959 C 0.34334 0.61522 0.68167 0.0
C960 C 0.44018 0.64092 0.72756 0.0
C961 C 0.42981 0.65467 0.75423 0.0
C962 C 0.42201 0.64269 0.70047 0.0
C963 C 0.39221 0.65794 0.70026 0.0
C964 C 0.38089 0.67096 0.72746 0.0
C965 C 0.40016 0.66957 0.75409 0.0
C966 C 0.43537 0.62906 0.67179 0.0
C967 C 0.34875 0.68664 0.72827 0.0
H968 H 0.37656 0.70124 0.60541 0.0
H969 H 0.3267 0.62268 0.62214 0.0
H970 H 0.39777 0.716 0.68327 0.0
H971 H 0.43008 0.69857 0.66314 0.0
H972 H 0.40596 0.72499 0.64369 0.0
H973 H 0.32243 0.60295 0.67234 0.0
H974 H 0.36452 0.60078 0.68432 0.0
H975 H 0.33668 0.62293 0.70484 0.0
H976 H 0.46327 0.62962 0.72751 0.0
H977 H 0.39207 0.68007 0.77479 0.0
H978 H 0.43914 0.64533 0.65365 0.0
H979 H 0.41754 0.61346 0.66288 0.0
H980 H 0.45904 0.61813 0.67586 0.0
H981 H 0.35032 0.70573 0.71343 0.0
H982 H 0.34201 0.69328 0.75186 0.0
H983 H 0.32883 0.67315 0.71909 0.0
C984 C 0.85939 0.8771 0.13467 0.0
C985 C 0.83548 0.85692 0.12761 0.0
C986 C 0.87459 0.87716 0.16341 0.0
C987 C 0.86517 0.85682 0.18577 0.0
C988 C 0.83939 0.83766 0.17948 0.0
C989 C 0.82511 0.83767 0.15024 0.0
C990 C 0.90238 0.89762 0.16898 0.0
C991 C 0.82813 0.81617 0.20303 0.0
C992 C 0.93294 0.83333 0.23906 0.0
C993 C 0.92751 0.85035 0.26475 0.0
C994 C 0.91235 0.83486 0.21351 0.0
C995 C 0.88517 0.85339 0.21392 0.0
C996 C 0.87868 0.86974 0.24031 0.0
C997 C 0.90023 0.8683 0.26534 0.0
C998 C 0.9205 0.81746 0.18558 0.0
C999 C 0.84945 0.88915 0.24183 0.0
H1000 H 0.86765 0.89179 0.11703 0.0
H1001 H 0.80644 0.82219 0.14477 0.0
H1002 H 0.89875 0.90877 0.19101 0.0
H1003 H 0.92577 0.88579 0.17068 0.0
H1004 H 0.90479 0.91359 0.1503 0.0
H1005 H 0.80466 0.80598 0.19643 0.0
H1006 H 0.84698 0.79947 0.20553 0.0
H1007 H 0.82499 0.82619 0.22578 0.0
H1008 H 0.95409 0.81953 0.23841 0.0
H1009 H 0.8958 0.88129 0.28531 0.0
H1010 H 0.92554 0.83164 0.16571 0.0
H1011 H 0.89934 0.80392 0.1794 0.0
H1012 H 0.94219 0.80372 0.18922 0.0
H1013 H 0.85271 0.90685 0.22527 0.0
H1014 H 0.84591 0.89811 0.26509 0.0
H1015 H 0.82685 0.87764 0.23523 0.0
C1016 C 0.13917 0.14379 0.63579 0.0
C1017 C 0.17015 0.13194 0.64101 0.0
C1018 C 0.1181 0.1502 0.66031 0.0
C1019 C 0.12823 0.14458 0.69079 0.0
C1020 C 0.16001 0.13378 0.69627 0.0
C1021 C 0.18058 0.12761 0.67132 0.0
C1022 C 0.0844 0.1617 0.65351 0.0
C1023 C 0.17176 0.12756 0.72841 0.0
C1024 C 0.07839 0.17473 0.75701 0.0
C1025 C 0.05803 0.15175 0.76466 0.0
C1026 C 0.10154 0.17276 0.7331 0.0
C1027 C 0.10444 0.14721 0.7166 0.0
C1028 C 0.08429 0.12388 0.72452 0.0
C1029 C 0.06141 0.12644 0.74837 0.0
C1030 C 0.12264 0.19806 0.72527 0.0
C1031 C 0.0867 0.0962 0.70762 0.0
H1032 H 0.1308 0.14699 0.61245 0.0
H1033 H 0.20471 0.11894 0.67555 0.0
H1034 H 0.06563 0.14556 0.65954 0.0
H1035 H 0.07941 0.18058 0.6677 0.0
H1036 H 0.08148 0.16754 0.62894 0.0
H1037 H 0.1981 0.12172 0.72896 0.0
H1038 H 0.16796 0.14617 0.74332 0.0
H1039 H 0.15726 0.10986 0.73839 0.0
H1040 H 0.07601 0.19436 0.76945 0.0
H1041 H 0.046 0.10847 0.75416 0.0
H1042 H 0.11794 0.20492 0.7013 0.0
H1043 H 0.14894 0.19233 0.72673 0.0
H1044 H 0.11795 0.21616 0.74075 0.0
H1045 H 0.08125 0.09956 0.68295 0.0
H1046 H 0.06952 0.07997 0.71689 0.0
H1047 H 0.11202 0.08783 0.70916 0.0
C1048 C 0.18001 0.85774 0.16338 0.0
C1049 C 0.16586 0.86724 0.13583 0.0
C1050 C 0.16077 0.85239 0.1896 0.0
C1051 C 0.1264 0.85597 0.18812 0.0
C1052 C 0.11175 0.86423 0.16007 0.0
C1053 C 0.13163 0.87005 0.13442 0.0
C1054 C 0.17735 0.84394 0.21917 0.0
C1055 C 0.0751 0.86787 0.15742 0.0
C1056 C 0.07079 0.82492 0.25023 0.0
C1057 C 0.06264 0.84913 0.2669 0.0
C1058 C 0.09199 0.82665 0.22475 0.0
C1059 C 0.10588 0.85308 0.21633 0.0
C1060 C 0.09889 0.87728 0.23408 0.0
C1061 C 0.07704 0.87507 0.25889 0.0
C1062 C 0.09835 0.8005 0.20607 0.0
C1063 C 0.11381 0.90571 0.22638 0.0
H1064 H 0.2063 0.85481 0.16466 0.0
H1065 H 0.12031 0.87773 0.11354 0.0
H1066 H 0.17357 0.86064 0.23655 0.0
H1067 H 0.16631 0.82422 0.22849 0.0
H1068 H 0.20412 0.84065 0.21614 0.0
H1069 H 0.06729 0.87169 0.13336 0.0
H1070 H 0.06223 0.84882 0.16635 0.0
H1071 H 0.06712 0.88603 0.17153 0.0
H1072 H 0.05944 0.80488 0.25623 0.0
H1073 H 0.07096 0.89377 0.27194 0.0
H1074 H 0.12507 0.79715 0.20317 0.0
H1075 H 0.08784 0.80329 0.1828 0.0
H1076 H 0.08741 0.78126 0.21674 0.0
H1077 H 0.14084 0.90391 0.22439 0.0
H1078 H 0.10796 0.92188 0.2439 0.0
H1079 H 0.10454 0.91322 0.20386 0.0
C1080 C 0.83321 0.15248 0.63925 0.0
C1081 C 0.85595 0.15182 0.61498 0.0
C1082 C 0.84365 0.15442 0.66985 0.0
C1083 C 0.8776 0.15517 0.67631 0.0
C1084 C 0.90062 0.15481 0.65195 0.0
C1085 C 0.88951 0.15351 0.62164 0.0
C1086 C 0.81843 0.15529 0.69525 0.0
C1087 C 0.93709 0.15538 0.65788 0.0
C1088 C 0.91544 0.18128 0.75001 0.0
C1089 C 0.92386 0.15575 0.76444 0.0
C1090 C 0.89805 0.18149 0.72231 0.0
C1091 C 0.88954 0.15555 0.70846 0.0
C1092 C 0.89624 0.12977 0.72386 0.0
C1093 C 0.91304 0.1302 0.75185 0.0
C1094 C 0.89056 0.20943 0.70698 0.0
C1095 C 0.88793 0.10165 0.70968 0.0
H1096 H 0.80724 0.15094 0.63443 0.0
H1097 H 0.90728 0.15379 0.6031 0.0
H1098 H 0.82044 0.13604 0.70978 0.0
H1099 H 0.82299 0.17371 0.71026 0.0
H1100 H 0.79302 0.15662 0.68629 0.0
H1101 H 0.95174 0.15459 0.63636 0.0
H1102 H 0.94379 0.17486 0.6704 0.0
H1103 H 0.94405 0.13713 0.67258 0.0
H1104 H 0.92339 0.2011 0.75987 0.0
H1105 H 0.91946 0.11037 0.76287 0.0
H1106 H 0.86498 0.20973 0.69847 0.0
H1107 H 0.90698 0.21247 0.68687 0.0
H1108 H 0.89411 0.22749 0.72277 0.0
H1109 H 0.86216 0.10139 0.7017 0.0
H1110 H 0.89153 0.08377 0.72597 0.0
H1111 H 0.90381 0.09823 0.68932 0.0
loop_
_geom_bond_atom_site_label_1
_geom_bond_atom_site_label_2
_geom_bond_distance
_geom_bond_site_symmetry_2
_ccdc_geom_bond_type
P0 O11 1.490 . S
P0 C14 1.812 1_556 S
P0 C20 1.803 . S
P0 C26 1.819 . S
H1 C15 0.941 . S
H2 C16 0.939 . S
H3 C18 0.940 . S
H4 C19 0.940 . S
H5 C21 0.939 . S
H6 C22 0.942 . S
H7 C24 0.940 1_554 S
H8 C25 0.939 . S
H9 C27 0.941 . S
H10 C31 0.939 . S
O11 P0 1.490 . S
H12 C28 0.939 . S
H13 C30 0.940 . S
C14 P0 1.812 1_554 S
C14 C15 1.389 . S
C14 C19 1.391 . S
C15 H1 0.941 . S
C15 C14 1.389 . S
C15 C16 1.397 . S
C16 H2 0.939 . S
C16 C15 1.397 . S
C16 C17 1.378 . S
C17 C16 1.378 . S
C17 C18 1.378 . S
C18 H3 0.940 . S
C18 C17 1.378 . S
C18 C19 1.396 . S
C19 H4 0.940 . S
C19 C14 1.391 . S
C19 C18 1.396 . S
C20 P0 1.803 . S
C20 C21 1.378 . S
C20 C25 1.400 1_556 S
C21 H5 0.939 . S
C21 C20 1.378 . S
C21 C22 1.361 . S
C22 H6 0.942 . S
C22 C21 1.361 . S
C22 C23 1.369 . S
C23 C22 1.369 . S
C23 C24 1.404 . S
C24 H7 0.940 1_556 S
C24 C23 1.404 . S
C24 C25 1.389 1_556 S
C25 H8 0.939 . S
C25 C20 1.400 1_554 S
C25 C24 1.389 1_554 S
C26 P0 1.819 . S
C26 C27 1.391 . S
C26 C31 1.391 . S
C27 H9 0.941 . S
C27 C26 1.391 . S
C27 C28 1.396 . S
C28 H12 0.939 . S
C28 C27 1.396 . S
C28 C29 1.397 . S
C29 C28 1.397 . S
C29 C30 1.385 . S
C30 H13 0.940 . S
C30 C29 1.385 . S
C30 C31 1.388 . S
C31 H10 0.939 . S
C31 C26 1.391 . S
C31 C30 1.388 . S
P32 O43 1.490 . S
P32 C46 1.812 . S
P32 C52 1.803 . S
P32 C58 1.819 . S
H33 C47 0.941 . S
H34 C48 0.939 . S
H35 C50 0.940 . S
H36 C51 0.940 . S
H37 C53 0.939 . S
H38 C54 0.942 . S
H39 C56 0.940 . S
H40 C57 0.939 . S
H41 C59 0.941 . S
H42 C63 0.939 . S
O43 P32 1.490 . S
H44 C60 0.939 . S
H45 C62 0.940 . S
C46 P32 1.812 . S
C46 C47 1.389 . S
C46 C51 1.391 . S
C47 H33 0.941 . S
C47 C46 1.389 . S
C47 C48 1.397 . S
C48 H34 0.939 . S
C48 C47 1.397 . S
C48 C49 1.378 . S
C49 C48 1.378 . S
C49 C50 1.378 . S
C50 H35 0.940 . S
C50 C49 1.378 . S
C50 C51 1.396 . S
C51 H36 0.940 . S
C51 C46 1.391 . S
C51 C50 1.396 . S
C52 P32 1.803 . S
C52 C53 1.378 . S
C52 C57 1.400 . S
C53 H37 0.939 . S
C53 C52 1.378 . S
C53 C54 1.361 . S
C54 H38 0.942 . S
C54 C53 1.361 . S
C54 C55 1.369 . S
C55 C54 1.369 . S
C55 C56 1.404 . S
C56 H39 0.940 . S
C56 C55 1.404 . S
C56 C57 1.389 . S
C57 H40 0.939 . S
C57 C52 1.400 . S
C57 C56 1.389 . S
C58 P32 1.819 . S
C58 C59 1.391 . S
C58 C63 1.391 . S
C59 H41 0.941 . S
C59 C58 1.391 . S
C59 C60 1.396 . S
C60 H44 0.939 . S
C60 C59 1.396 . S
C60 C61 1.397 . S
C61 C60 1.397 . S
C61 C62 1.385 . S
C62 H45 0.940 . S
C62 C61 1.385 . S
C62 C63 1.388 . S
C63 H42 0.939 . S
C63 C58 1.391 . S
C63 C62 1.388 . S
P64 O75 1.490 . S
P64 C78 1.812 . S
P64 C84 1.803 . S
P64 C90 1.819 1_554 S
H65 C79 0.941 . S
H66 C80 0.939 . S
H67 C82 0.940 . S
H68 C83 0.940 . S
H69 C85 0.939 . S
H70 C86 0.942 . S
H71 C88 0.940 . S
H72 C89 0.929 1_554 S
H73 C91 0.941 . S
H74 C95 0.939 . S
O75 P64 1.490 . S
H76 C92 0.939 . S
H77 C94 0.940 . S
C78 P64 1.812 . S
C78 C79 1.389 . S
C78 C83 1.391 . S
C79 H65 0.941 . S
C79 C78 1.389 . S
C79 C80 1.397 . S
C80 H66 0.939 . S
C80 C79 1.397 . S
C80 C81 1.378 . S
C81 C80 1.378 . S
C81 C82 1.378 . S
C82 H67 0.940 . S
C82 C81 1.378 . S
C82 C83 1.396 . S
C83 H68 0.940 . S
C83 C78 1.391 . S
C83 C82 1.396 . S
C84 P64 1.803 . S
C84 C85 1.378 1_554 S
C84 C89 1.395 1_554 S
C85 H69 0.939 . S
C85 C84 1.378 1_556 S
C85 C86 1.361 . S
C86 H70 0.942 . S
C86 C85 1.361 . S
C86 C87 1.369 . S
C87 C86 1.369 . S
C87 C88 1.404 . S
C88 H71 0.940 . S
C88 C87 1.404 . S
C88 C89 1.405 . S
C89 H72 0.929 1_556 S
C89 C84 1.395 1_556 S
C89 C88 1.405 . S
C90 P64 1.819 1_556 S
C90 C91 1.391 1_556 S
C90 C95 1.391 . S
C91 H73 0.941 . S
C91 C90 1.391 1_554 S
C91 C92 1.396 1_554 S
C92 H76 0.939 . S
C92 C91 1.396 1_556 S
C92 C93 1.397 . S
C93 C92 1.397 . S
C93 C94 1.385 . S
C94 H77 0.940 . S
C94 C93 1.385 . S
C94 C95 1.388 . S
C95 H74 0.939 . S
C95 C90 1.391 . S
C95 C94 1.388 . S
P96 O107 1.490 . S
P96 C110 1.812 . S
P96 C116 1.803 . S
P96 C122 1.819 . S
H97 C111 0.941 . S
H98 C112 0.939 . S
H99 C114 0.940 . S
H100 C115 0.940 . S
H101 C117 0.939 . S
H102 C118 0.942 . S
H103 C120 0.940 . S
H104 C121 0.939 . S
H105 C123 0.941 . S
H106 C127 0.939 . S
O107 P96 1.490 . S
H108 C124 0.939 . S
H109 C126 0.940 . S
C110 P96 1.812 . S
C110 C111 1.389 . S
C110 C115 1.391 . S
C111 H97 0.941 . S
C111 C110 1.389 . S
C111 C112 1.397 . S
C112 H98 0.939 . S
C112 C111 1.397 . S
C112 C113 1.378 . S
C113 C112 1.378 . S
C113 C114 1.378 . S
C114 H99 0.940 . S
C114 C113 1.378 . S
C114 C115 1.396 . S
C115 H100 0.940 . S
C115 C110 1.391 . S
C115 C114 1.396 . S
C116 P96 1.803 . S
C116 C117 1.378 . S
C116 C121 1.400 . S
C117 H101 0.939 . S
C117 C116 1.378 . S
C117 C118 1.361 . S
C118 H102 0.942 . S
C118 C117 1.361 . S
C118 C119 1.369 . S
C119 C118 1.369 . S
C119 C120 1.404 . S
C120 H103 0.940 . S
C120 C119 1.404 . S
C120 C121 1.389 . S
C121 H104 0.939 . S
C121 C116 1.400 . S
C121 C120 1.389 . S
C122 P96 1.819 . S
C122 C123 1.391 . S
C122 C127 1.391 . S
C123 H105 0.941 . S
C123 C122 1.391 . S
C123 C124 1.396 . S
C124 H108 0.939 . S
C124 C123 1.396 . S
C124 C125 1.397 . S
C125 C124 1.397 . S
C125 C126 1.385 . S
C126 H109 0.940 . S
C126 C125 1.385 . S
C126 C127 1.388 . S
C127 H106 0.939 . S
C127 C122 1.391 . S
C127 C126 1.388 . S
P128 O139 1.490 . S
P128 C142 1.812 1_556 S
P128 C148 1.803 . S
P128 C154 1.819 . S
H129 C143 0.941 . S
H130 C144 0.939 . S
H131 C146 0.940 . S
H132 C147 0.940 . S
H133 C149 0.939 . S
H134 C150 0.942 . S
H135 C152 0.940 1_554 S
H136 C153 0.939 . S
H137 C155 0.941 . S
H138 C159 0.939 . S
O139 P128 1.490 . S
H140 C156 0.939 . S
H141 C158 0.940 . S
C142 P128 1.812 1_554 S
C142 C143 1.389 . S
C142 C147 1.391 . S
C143 H129 0.941 . S
C143 C142 1.389 . S
C143 C144 1.397 . S
C144 H130 0.939 . S
C144 C143 1.397 . S
C144 C145 1.378 . S
C145 C144 1.378 . S
C145 C146 1.378 . S
C146 H131 0.940 . S
C146 C145 1.378 . S
C146 C147 1.396 . S
C147 H132 0.940 . S
C147 C142 1.391 . S
C147 C146 1.396 . S
C148 P128 1.803 . S
C148 C149 1.378 . S
C148 C153 1.400 1_556 S
C149 H133 0.939 . S
C149 C148 1.378 . S
C149 C150 1.361 . S
C150 H134 0.942 . S
C150 C149 1.361 . S
C150 C151 1.369 . S
C151 C150 1.369 . S
C151 C152 1.404 . S
C152 H135 0.940 1_556 S
C152 C151 1.404 . S
C152 C153 1.389 1_556 S
C153 H136 0.939 . S
C153 C148 1.400 1_554 S
C153 C152 1.389 1_554 S
C154 P128 1.819 . S
C154 C155 1.391 . S
C154 C159 1.391 . S
C155 H137 0.941 . S
C155 C154 1.391 . S
C155 C156 1.396 . S
C156 H140 0.939 . S
C156 C155 1.396 . S
C156 C157 1.397 . S
C157 C156 1.397 . S
C157 C158 1.385 . S
C158 H141 0.940 . S
C158 C157 1.385 . S
C158 C159 1.388 . S
C159 H138 0.939 . S
C159 C154 1.391 . S
C159 C158 1.388 . S
P160 O171 1.490 . S
P160 C174 1.812 . S
P160 C180 1.803 . S
P160 C186 1.819 . S
H161 C175 0.941 . S
H162 C176 0.939 . S
H163 C178 0.940 . S
H164 C179 0.940 . S
H165 C181 0.939 . S
H166 C182 0.942 . S
H167 C184 0.940 . S
H168 C185 0.939 . S
H169 C187 0.941 . S
H170 C191 0.939 . S
O171 P160 1.490 . S
H172 C188 0.939 . S
H173 C190 0.940 . S
C174 P160 1.812 . S
C174 C175 1.389 . S
C174 C179 1.391 . S
C175 H161 0.941 . S
C175 C174 1.389 . S
C175 C176 1.397 . S
C176 H162 0.939 . S
C176 C175 1.397 . S
C176 C177 1.378 . S
C177 C176 1.378 . S
C177 C178 1.378 . S
C178 H163 0.940 . S
C178 C177 1.378 . S
C178 C179 1.396 . S
C179 H164 0.940 . S
C179 C174 1.391 . S
C179 C178 1.396 . S
C180 P160 1.803 . S
C180 C181 1.378 . S
C180 C185 1.400 . S
C181 H165 0.939 . S
C181 C180 1.378 . S
C181 C182 1.361 . S
C182 H166 0.942 . S
C182 C181 1.361 . S
C182 C183 1.369 . S
C183 C182 1.369 . S
C183 C184 1.404 . S
C184 H167 0.940 . S
C184 C183 1.404 . S
C184 C185 1.389 . S
C185 H168 0.939 . S
C185 C180 1.400 . S
C185 C184 1.389 . S
C186 P160 1.819 . S
C186 C187 1.391 . S
C186 C191 1.391 . S
C187 H169 0.941 . S
C187 C186 1.391 . S
C187 C188 1.396 . S
C188 H172 0.939 . S
C188 C187 1.396 . S
C188 C189 1.397 . S
C189 C188 1.397 . S
C189 C190 1.385 . S
C190 H173 0.940 . S
C190 C189 1.385 . S
C190 C191 1.388 . S
C191 H170 0.939 . S
C191 C186 1.391 . S
C191 C190 1.388 . S
P192 O203 1.490 . S
P192 C206 1.812 . S
P192 C212 1.803 . S
P192 C218 1.819 1_554 S
H193 C207 0.941 . S
H194 C208 0.939 . S
H195 C210 0.940 . S
H196 C211 0.940 . S
H197 C213 0.939 . S
H198 C214 0.942 . S
H199 C216 0.940 . S
H200 C217 0.929 1_554 S
H201 C219 0.941 . S
H202 C223 0.939 . S
O203 P192 1.490 . S
H204 C220 0.949 . S
H205 C222 0.940 . S
C206 P192 1.812 . S
C206 C207 1.389 . S
C206 C211 1.391 . S
C207 H193 0.941 . S
C207 C206 1.389 . S
C207 C208 1.397 . S
C208 H194 0.939 . S
C208 C207 1.397 . S
C208 C209 1.378 . S
C209 C208 1.378 . S
C209 C210 1.378 . S
C210 H195 0.940 . S
C210 C209 1.378 . S
C210 C211 1.396 . S
C211 H196 0.940 . S
C211 C206 1.391 . S
C211 C210 1.396 . S
C212 P192 1.803 . S
C212 C213 1.378 1_554 S
C212 C217 1.395 1_554 S
C213 H197 0.939 . S
C213 C212 1.378 1_556 S
C213 C214 1.361 . S
C214 H198 0.942 . S
C214 C213 1.361 . S
C214 C215 1.369 . S
C215 C214 1.369 . S
C215 C216 1.404 . S
C216 H199 0.940 . S
C216 C215 1.404 . S
C216 C217 1.405 . S
C217 H200 0.929 1_556 S
C217 C212 1.395 1_556 S
C217 C216 1.405 . S
C218 P192 1.819 1_556 S
C218 C219 1.391 1_556 S
C218 C223 1.391 . S
C219 H201 0.941 . S
C219 C218 1.391 1_554 S
C219 C220 1.396 1_554 S
C220 H204 0.949 . S
C220 C219 1.396 1_556 S
C220 C221 1.397 . S
C221 C220 1.397 . S
C221 C222 1.385 . S
C222 H205 0.940 . S
C222 C221 1.385 . S
C222 C223 1.388 . S
C223 H202 0.939 . S
C223 C218 1.391 . S
C223 C222 1.388 . S
P224 O235 1.490 . S
P224 C238 1.812 . S
P224 C244 1.803 . S
P224 C250 1.819 . S
H225 C239 0.941 . S
H226 C240 0.939 . S
H227 C242 0.940 . S
H228 C243 0.940 . S
H229 C245 0.939 . S
H230 C246 0.942 . S
H231 C248 0.940 . S
H232 C249 0.939 . S
H233 C251 0.941 . S
H234 C255 0.939 . S
O235 P224 1.490 . S
H236 C252 0.939 . S
H237 C254 0.940 . S
C238 P224 1.812 . S
C238 C239 1.389 . S
C238 C243 1.391 . S
C239 H225 0.941 . S
C239 C238 1.389 . S
C239 C240 1.397 . S
C240 H226 0.939 . S
C240 C239 1.397 . S
C240 C241 1.378 . S
C241 C240 1.378 . S
C241 C242 1.378 . S
C242 H227 0.940 . S
C242 C241 1.378 . S
C242 C243 1.396 . S
C243 H228 0.940 . S
C243 C238 1.391 . S
C243 C242 1.396 . S
C244 P224 1.803 . S
C244 C245 1.378 . S
C244 C249 1.400 . S
C245 H229 0.939 . S
C245 C244 1.378 . S
C245 C246 1.361 . S
C246 H230 0.942 . S
C246 C245 1.361 . S
C246 C247 1.369 . S
C247 C246 1.369 . S
C247 C248 1.404 . S
C248 H231 0.940 . S
C248 C247 1.404 . S
C248 C249 1.389 . S
C249 H232 0.939 . S
C249 C244 1.400 . S
C249 C248 1.389 . S
C250 P224 1.819 . S
C250 C251 1.391 . S
C250 C255 1.391 . S
C251 H233 0.941 . S
C251 C250 1.391 . S
C251 C252 1.396 . S
C252 H236 0.939 . S
C252 C251 1.396 . S
C252 C253 1.397 . S
C253 C252 1.397 . S
C253 C254 1.385 . S
C254 H237 0.940 . S
C254 C253 1.385 . S
C254 C255 1.388 . S
C255 H234 0.939 . S
C255 C250 1.391 . S
C255 C254 1.388 . S
Fe256 O258 1.918 . S
Fe256 O261 1.997 1_455 S
Fe256 O262 2.002 1_455 S
Fe256 O267 1.976 . S
Fe256 O270 1.996 . S
Fe257 O258 1.918 . S
Fe257 O265 1.997 1_455 S
Fe257 O268 1.996 . S
Fe257 O272 1.976 . S
Fe257 O275 2.002 1_455 S
O258 Fe256 1.918 . S
O258 Fe257 1.918 . S
O258 Fe259 1.918 . S
Fe259 O258 1.918 . S
Fe259 O260 2.002 1_455 S
Fe259 O269 1.976 . S
Fe259 O273 1.996 . S
Fe259 O276 1.997 1_455 S
O260 Fe259 2.002 1_655 S
O260 C277 1.295 . S
O261 Fe256 1.997 1_655 S
O261 C277 1.235 . S
O262 Fe256 2.002 1_655 S
O262 C263 1.295 . S
C263 O262 1.295 . S
C263 O265 1.235 . S
C264 O269 1.287 . S
C264 O270 1.255 . S
O265 Fe257 1.997 1_655 S
O265 C263 1.235 . S
C266 O272 1.287 . S
C266 O273 1.255 . S
O267 Fe256 1.976 . S
O267 C274 1.287 . S
O268 Fe257 1.996 . S
O268 C274 1.255 . S
O269 Fe259 1.976 . S
O269 C264 1.287 . S
O270 Fe256 1.996 . S
O270 C264 1.255 . S
C271 O275 1.295 . S
C271 O276 1.235 . S
O272 Fe257 1.976 . S
O272 C266 1.287 . S
O273 Fe259 1.996 . S
O273 C266 1.255 . S
C274 O267 1.287 . S
C274 O268 1.255 . S
O275 Fe257 2.002 1_655 S
O275 C271 1.295 . S
O276 Fe259 1.997 1_655 S
O276 C271 1.235 . S
C277 O260 1.295 . S
C277 O261 1.235 . S
Fe278 O280 1.919 . S
Fe278 O283 1.979 1_655 S
Fe278 O284 1.985 1_655 S
Fe278 O289 1.993 . S
Fe278 O292 2.013 . S
Fe279 O280 1.919 . S
Fe279 O287 1.979 1_655 S
Fe279 O290 2.013 . S
Fe279 O294 1.993 . S
Fe279 O297 1.985 1_655 S
O280 Fe278 1.919 . S
O280 Fe279 1.919 . S
O280 Fe281 1.919 . S
Fe281 O280 1.919 . S
Fe281 O282 1.985 1_655 S
Fe281 O291 1.993 . S
Fe281 O295 2.012 . S
Fe281 O298 1.980 1_655 S
O282 Fe281 1.985 1_455 S
O282 C299 1.295 . S
O283 Fe278 1.979 1_455 S
O283 C299 1.235 . S
O284 Fe278 1.985 1_455 S
O284 C285 1.295 . S
C285 O284 1.295 . S
C285 O287 1.235 . S
C286 O291 1.287 . S
C286 O292 1.255 . S
O287 Fe279 1.979 1_455 S
O287 C285 1.235 . S
C288 O294 1.287 . S
C288 O295 1.255 . S
O289 Fe278 1.993 . S
O289 C296 1.287 . S
O290 Fe279 2.013 . S
O290 C296 1.255 . S
O291 Fe281 1.993 . S
O291 C286 1.287 . S
O292 Fe278 2.013 . S
O292 C286 1.255 . S
C293 O297 1.295 . S
C293 O298 1.235 . S
O294 Fe279 1.993 . S
O294 C288 1.287 . S
O295 Fe281 2.012 . S
O295 C288 1.255 . S
C296 O289 1.287 . S
C296 O290 1.255 . S
O297 Fe279 1.985 1_455 S
O297 C293 1.295 . S
O298 Fe281 1.980 1_455 S
O298 C293 1.235 . S
C299 O282 1.295 . S
C299 O283 1.235 . S
Fe300 O302 1.918 . S
Fe300 O305 1.997 . S
Fe300 O306 2.002 . S
Fe300 O311 1.976 . S
Fe300 O314 1.996 . S
Fe301 O302 1.918 . S
Fe301 O309 1.997 . S
Fe301 O312 1.996 . S
Fe301 O316 1.976 . S
Fe301 O319 2.002 . S
O302 Fe300 1.918 . S
O302 Fe301 1.918 . S
O302 Fe303 1.918 . S
Fe303 O302 1.918 . S
Fe303 O304 2.002 . S
Fe303 O313 1.976 . S
Fe303 O317 1.996 . S
Fe303 O320 1.997 . S
O304 Fe303 2.002 . S
O304 C321 1.295 . S
O305 Fe300 1.997 . S
O305 C321 1.235 . S
O306 Fe300 2.002 . S
O306 C307 1.295 . S
C307 O306 1.295 . S
C307 O309 1.235 . S
C308 O313 1.287 . S
C308 O314 1.255 . S
O309 Fe301 1.997 . S
O309 C307 1.235 . S
C310 O316 1.287 . S
C310 O317 1.255 . S
O311 Fe300 1.976 . S
O311 C318 1.287 . S
O312 Fe301 1.996 . S
O312 C318 1.255 . S
O313 Fe303 1.976 . S
O313 C308 1.287 . S
O314 Fe300 1.996 . S
O314 C308 1.255 . S
C315 O319 1.295 . S
C315 O320 1.235 . S
O316 Fe301 1.976 . S
O316 C310 1.287 . S
O317 Fe303 1.996 . S
O317 C310 1.255 . S
C318 O311 1.287 . S
C318 O312 1.255 . S
O319 Fe301 2.002 . S
O319 C315 1.295 . S
O320 Fe303 1.997 . S
O320 C315 1.235 . S
C321 O304 1.295 . S
C321 O305 1.235 . S
Fe322 O324 1.918 . S
Fe322 O327 1.997 . S
Fe322 O328 2.002 . S
Fe322 O333 1.976 . S
Fe322 O336 1.996 . S
Fe323 O324 1.918 . S
Fe323 O331 1.997 . S
Fe323 O334 1.996 . S
Fe323 O338 1.976 . S
Fe323 O341 2.002 . S
O324 Fe322 1.918 . S
O324 Fe323 1.918 . S
O324 Fe325 1.918 . S
Fe325 O324 1.918 . S
Fe325 O326 2.002 . S
Fe325 O335 1.976 . S
Fe325 O339 1.996 . S
Fe325 O342 1.997 . S
O326 Fe325 2.002 . S
O326 C343 1.295 . S
O327 Fe322 1.997 . S
O327 C343 1.235 . S
O328 Fe322 2.002 . S
O328 C329 1.295 . S
C329 O328 1.295 . S
C329 O331 1.235 . S
C330 O335 1.287 . S
C330 O336 1.255 . S
O331 Fe323 1.997 . S
O331 C329 1.235 . S
C332 O338 1.287 . S
C332 O339 1.255 . S
O333 Fe322 1.976 . S
O333 C340 1.287 . S
O334 Fe323 1.996 . S
O334 C340 1.255 . S
O335 Fe325 1.976 . S
O335 C330 1.287 . S
O336 Fe322 1.996 . S
O336 C330 1.255 . S
C337 O341 1.295 . S
C337 O342 1.235 . S
O338 Fe323 1.976 . S
O338 C332 1.287 . S
O339 Fe325 1.996 . S
O339 C332 1.255 . S
C340 O333 1.287 . S
C340 O334 1.255 . S
O341 Fe323 2.002 . S
O341 C337 1.295 . S
O342 Fe325 1.997 . S
O342 C337 1.235 . S
C343 O326 1.295 . S
C343 O327 1.235 . S
C344 C345 1.391 . S
C344 C346 1.394 . S
C344 H360 0.931 . S
C345 C344 1.391 . S
C345 C349 1.376 . S
C346 C344 1.394 . S
C346 C347 1.369 . S
C346 C350 1.531 . S
C347 C346 1.369 . S
C347 C348 1.410 . S
C347 C355 1.503 . S
C348 C347 1.410 . S
C348 C349 1.392 . S
C348 C351 1.511 . S
C349 C345 1.376 . S
C349 C348 1.392 . S
C349 H361 0.929 . S
C350 C346 1.531 . S
C350 H362 0.960 . S
C350 H363 0.962 . S
C350 H364 0.960 . S
C351 C348 1.511 . S
C351 H365 0.961 . S
C351 H366 0.961 . S
C351 H367 0.961 . S
C352 C353 1.370 . S
C352 C354 1.363 . S
C352 H368 0.931 . S
C353 C352 1.370 . S
C353 C357 1.408 . S
C354 C352 1.363 . S
C354 C355 1.370 . S
C354 C358 1.524 . S
C355 C347 1.503 . S
C355 C354 1.370 . S
C355 C356 1.403 . S
C356 C355 1.403 . S
C356 C357 1.404 . S
C356 C359 1.539 . S
C357 C353 1.408 . S
C357 C356 1.404 . S
C357 H369 0.930 . S
C358 C354 1.524 . S
C358 H370 0.956 . S
C358 H371 0.961 . S
C358 H372 0.961 . S
C359 C356 1.539 . S
C359 H373 0.958 . S
C359 H374 0.961 . S
C359 H375 0.960 . S
H360 C344 0.931 . S
H361 C349 0.929 . S
H362 C350 0.960 . S
H363 C350 0.962 . S
H364 C350 0.960 . S
H365 C351 0.961 . S
H366 C351 0.961 . S
H367 C351 0.961 . S
H368 C352 0.931 . S
H369 C357 0.930 . S
H370 C358 0.956 . S
H371 C358 0.961 . S
H372 C358 0.961 . S
H373 C359 0.958 . S
H374 C359 0.961 . S
H375 C359 0.960 . S
C376 C377 1.391 . S
C376 C378 1.394 . S
C376 H392 0.931 . S
C377 C376 1.391 . S
C377 C381 1.376 . S
C378 C376 1.394 . S
C378 C379 1.369 . S
C378 C382 1.531 . S
C379 C378 1.369 . S
C379 C380 1.410 . S
C379 C387 1.503 . S
C380 C379 1.410 . S
C380 C381 1.392 . S
C380 C383 1.511 . S
C381 C377 1.376 . S
C381 C380 1.392 . S
C381 H393 0.929 . S
C382 C378 1.531 . S
C382 H394 0.960 . S
C382 H395 0.962 . S
C382 H396 0.960 . S
C383 C380 1.511 . S
C383 H397 0.961 . S
C383 H398 0.961 . S
C383 H399 0.961 . S
C384 C385 1.370 . S
C384 C386 1.363 . S
C384 H400 0.931 . S
C385 C384 1.370 . S
C385 C389 1.408 . S
C386 C384 1.363 . S
C386 C387 1.370 . S
C386 C390 1.524 . S
C387 C379 1.503 . S
C387 C386 1.370 . S
C387 C388 1.403 . S
C388 C387 1.403 . S
C388 C389 1.404 . S
C388 C391 1.539 . S
C389 C385 1.408 . S
C389 C388 1.404 . S
C389 H401 0.930 . S
C390 C386 1.524 . S
C390 H402 0.956 . S
C390 H403 0.961 . S
C390 H404 0.961 . S
C391 C388 1.539 . S
C391 H405 0.958 . S
C391 H406 0.961 . S
C391 H407 0.960 . S
H392 C376 0.931 . S
H393 C381 0.929 . S
H394 C382 0.960 . S
H395 C382 0.962 . S
H396 C382 0.960 . S
H397 C383 0.961 . S
H398 C383 0.961 . S
H399 C383 0.961 . S
H400 C384 0.931 . S
H401 C389 0.930 . S
H402 C390 0.956 . S
H403 C390 0.961 . S
H404 C390 0.961 . S
H405 C391 0.958 . S
H406 C391 0.961 . S
H407 C391 0.960 . S
C408 C409 1.391 . S
C408 C410 1.394 . S
C408 H424 0.931 . S
C409 C408 1.391 . S
C409 C413 1.376 . S
C410 C408 1.394 . S
C410 C411 1.369 . S
C410 C414 1.531 . S
C411 C410 1.369 . S
C411 C412 1.410 . S
C411 C419 1.503 . S
C412 C411 1.410 . S
C412 C413 1.392 . S
C412 C415 1.511 . S
C413 C409 1.376 . S
C413 C412 1.392 . S
C413 H425 0.929 . S
C414 C410 1.531 . S
C414 H426 0.960 . S
C414 H427 0.962 . S
C414 H428 0.960 . S
C415 C412 1.511 . S
C415 H429 0.961 . S
C415 H430 0.961 . S
C415 H431 0.961 . S
C416 C417 1.370 . S
C416 C418 1.363 . S
C416 H432 0.931 . S
C417 C416 1.370 . S
C417 C421 1.408 . S
C418 C416 1.363 . S
C418 C419 1.370 . S
C418 C422 1.524 . S
C419 C411 1.503 . S
C419 C418 1.370 . S
C419 C420 1.403 . S
C420 C419 1.403 . S
C420 C421 1.404 . S
C420 C423 1.539 . S
C421 C417 1.408 . S
C421 C420 1.404 . S
C421 H433 0.930 . S
C422 C418 1.524 . S
C422 H434 0.956 . S
C422 H435 0.961 . S
C422 H436 0.961 . S
C423 C420 1.539 . S
C423 H437 0.958 . S
C423 H438 0.961 . S
C423 H439 0.960 . S
H424 C408 0.931 . S
H425 C413 0.929 . S
H426 C414 0.960 . S
H427 C414 0.962 . S
H428 C414 0.960 . S
H429 C415 0.961 . S
H430 C415 0.961 . S
H431 C415 0.961 . S
H432 C416 0.931 . S
H433 C421 0.930 . S
H434 C422 0.956 . S
H435 C422 0.961 . S
H436 C422 0.961 . S
H437 C423 0.958 . S
H438 C423 0.961 . S
H439 C423 0.960 . S
C440 C441 1.391 . S
C440 C442 1.394 . S
C440 H456 0.931 . S
C441 C440 1.391 . S
C441 C445 1.376 . S
C442 C440 1.394 . S
C442 C443 1.369 . S
C442 C446 1.531 . S
C443 C442 1.369 . S
C443 C444 1.410 . S
C443 C451 1.503 . S
C444 C443 1.410 . S
C444 C445 1.392 . S
C444 C447 1.511 . S
C445 C441 1.376 . S
C445 C444 1.392 . S
C445 H457 0.929 . S
C446 C442 1.531 . S
C446 H458 0.960 . S
C446 H459 0.962 . S
C446 H460 0.960 . S
C447 C444 1.511 . S
C447 H461 0.961 . S
C447 H462 0.961 . S
C447 H463 0.961 . S
C448 C449 1.370 . S
C448 C450 1.363 . S
C448 H464 0.931 . S
C449 C448 1.370 . S
C449 C453 1.408 . S
C450 C448 1.363 . S
C450 C451 1.370 . S
C450 C454 1.524 . S
C451 C443 1.503 . S
C451 C450 1.370 . S
C451 C452 1.403 . S
C452 C451 1.403 . S
C452 C453 1.404 . S
C452 C455 1.539 . S
C453 C449 1.408 . S
C453 C452 1.404 . S
C453 H465 0.930 . S
C454 C450 1.524 . S
C454 H466 0.956 . S
C454 H467 0.961 . S
C454 H468 0.961 . S
C455 C452 1.539 . S
C455 H469 0.958 . S
C455 H470 0.961 . S
C455 H471 0.960 . S
H456 C440 0.931 . S
H457 C445 0.929 . S
H458 C446 0.960 . S
H459 C446 0.962 . S
H460 C446 0.960 . S
H461 C447 0.961 . S
H462 C447 0.961 . S
H463 C447 0.961 . S
H464 C448 0.931 . S
H465 C453 0.930 . S
H466 C454 0.956 . S
H467 C454 0.961 . S
H468 C454 0.961 . S
H469 C455 0.958 . S
H470 C455 0.961 . S
H471 C455 0.960 . S
C472 C473 1.391 . S
C472 C474 1.394 . S
C472 H488 0.931 . S
C473 C472 1.391 . S
C473 C477 1.376 . S
C474 C472 1.394 . S
C474 C475 1.369 . S
C474 C478 1.531 . S
C475 C474 1.369 . S
C475 C476 1.410 . S
C475 C483 1.503 . S
C476 C475 1.410 . S
C476 C477 1.392 . S
C476 C479 1.511 . S
C477 C473 1.376 . S
C477 C476 1.392 . S
C477 H489 0.929 . S
C478 C474 1.531 . S
C478 H490 0.960 . S
C478 H491 0.962 . S
C478 H492 0.960 . S
C479 C476 1.511 . S
C479 H493 0.961 . S
C479 H494 0.961 . S
C479 H495 0.961 . S
C480 C481 1.370 . S
C480 C482 1.363 . S
C480 H496 0.931 . S
C481 C480 1.370 . S
C481 C485 1.408 . S
C482 C480 1.363 . S
C482 C483 1.370 . S
C482 C486 1.524 . S
C483 C475 1.503 . S
C483 C482 1.370 . S
C483 C484 1.403 . S
C484 C483 1.403 . S
C484 C485 1.404 . S
C484 C487 1.539 . S
C485 C481 1.408 . S
C485 C484 1.404 . S
C485 H497 0.930 . S
C486 C482 1.524 . S
C486 H498 0.956 . S
C486 H499 0.961 . S
C486 H500 0.961 . S
C487 C484 1.539 . S
C487 H501 0.958 . S
C487 H502 0.961 . S
C487 H503 0.960 . S
H488 C472 0.931 . S
H489 C477 0.929 . S
H490 C478 0.960 . S
H491 C478 0.962 . S
H492 C478 0.960 . S
H493 C479 0.961 . S
H494 C479 0.961 . S
H495 C479 0.961 . S
H496 C480 0.931 . S
H497 C485 0.930 . S
H498 C486 0.956 . S
H499 C486 0.961 . S
H500 C486 0.961 . S
H501 C487 0.958 . S
H502 C487 0.961 . S
H503 C487 0.960 . S
C504 C505 1.391 . S
C504 C506 1.394 . S
C504 H520 0.931 . S
C505 C504 1.391 . S
C505 C509 1.376 . S
C506 C504 1.394 . S
C506 C507 1.369 . S
C506 C510 1.531 . S
C507 C506 1.369 . S
C507 C508 1.410 . S
C507 C515 1.503 . S
C508 C507 1.410 . S
C508 C509 1.392 . S
C508 C511 1.511 . S
C509 C505 1.376 . S
C509 C508 1.392 . S
C509 H521 0.929 . S
C510 C506 1.531 . S
C510 H522 0.960 . S
C510 H523 0.962 . S
C510 H524 0.960 . S
C511 C508 1.511 . S
C511 H525 0.961 . S
C511 H526 0.961 . S
C511 H527 0.961 . S
C512 C513 1.370 . S
C512 C514 1.363 . S
C512 H528 0.931 . S
C513 C512 1.370 . S
C513 C517 1.408 . S
C514 C512 1.363 . S
C514 C515 1.370 . S
C514 C518 1.524 . S
C515 C507 1.503 . S
C515 C514 1.370 . S
C515 C516 1.403 . S
C516 C515 1.403 . S
C516 C517 1.404 . S
C516 C519 1.539 . S
C517 C513 1.408 . S
C517 C516 1.404 . S
C517 H529 0.930 . S
C518 C514 1.524 . S
C518 H530 0.956 . S
C518 H531 0.961 . S
C518 H532 0.961 . S
C519 C516 1.539 . S
C519 H533 0.958 . S
C519 H534 0.961 . S
C519 H535 0.960 . S
H520 C504 0.931 . S
H521 C509 0.929 . S
H522 C510 0.960 . S
H523 C510 0.962 . S
H524 C510 0.960 . S
H525 C511 0.961 . S
H526 C511 0.961 . S
H527 C511 0.961 . S
H528 C512 0.931 . S
H529 C517 0.930 . S
H530 C518 0.956 . S
H531 C518 0.961 . S
H532 C518 0.961 . S
H533 C519 0.958 . S
H534 C519 0.961 . S
H535 C519 0.960 . S
C536 C537 1.391 . S
C536 C538 1.394 . S
C536 H552 0.931 . S
C537 C536 1.391 . S
C537 C541 1.376 . S
C538 C536 1.394 . S
C538 C539 1.369 . S
C538 C542 1.531 . S
C539 C538 1.369 . S
C539 C540 1.410 . S
C539 C547 1.503 . S
C540 C539 1.410 . S
C540 C541 1.392 . S
C540 C543 1.511 . S
C541 C537 1.376 . S
C541 C540 1.392 . S
C541 H553 0.929 . S
C542 C538 1.531 . S
C542 H554 0.960 . S
C542 H555 0.962 . S
C542 H556 0.960 . S
C543 C540 1.511 . S
C543 H557 0.961 . S
C543 H558 0.961 . S
C543 H559 0.961 . S
C544 C545 1.370 . S
C544 C546 1.363 . S
C544 H560 0.931 . S
C545 C544 1.370 . S
C545 C549 1.408 . S
C546 C544 1.363 . S
C546 C547 1.370 . S
C546 C550 1.524 . S
C547 C539 1.503 . S
C547 C546 1.370 . S
C547 C548 1.403 . S
C548 C547 1.403 . S
C548 C549 1.404 . S
C548 C551 1.539 . S
C549 C545 1.408 . S
C549 C548 1.404 . S
C549 H561 0.930 . S
C550 C546 1.524 . S
C550 H562 0.956 . S
C550 H563 0.961 . S
C550 H564 0.961 . S
C551 C548 1.539 . S
C551 H565 0.958 . S
C551 H566 0.961 . S
C551 H567 0.960 . S
H552 C536 0.931 . S
H553 C541 0.929 . S
H554 C542 0.960 . S
H555 C542 0.962 . S
H556 C542 0.960 . S
H557 C543 0.961 . S
H558 C543 0.961 . S
H559 C543 0.961 . S
H560 C544 0.931 . S
H561 C549 0.930 . S
H562 C550 0.956 . S
H563 C550 0.961 . S
H564 C550 0.961 . S
H565 C551 0.958 . S
H566 C551 0.961 . S
H567 C551 0.960 . S
C568 C569 1.391 . S
C568 C570 1.394 . S
C568 H584 0.931 . S
C569 C568 1.391 . S
C569 C573 1.376 . S
C570 C568 1.394 . S
C570 C571 1.369 . S
C570 C574 1.531 . S
C571 C570 1.369 . S
C571 C572 1.410 . S
C571 C579 1.503 . S
C572 C571 1.410 . S
C572 C573 1.392 . S
C572 C575 1.511 . S
C573 C569 1.376 . S
C573 C572 1.392 . S
C573 H585 0.929 . S
C574 C570 1.531 . S
C574 H586 0.960 . S
C574 H587 0.962 . S
C574 H588 0.960 . S
C575 C572 1.511 . S
C575 H589 0.961 . S
C575 H590 0.961 . S
C575 H591 0.961 . S
C576 C577 1.370 . S
C576 C578 1.363 . S
C576 H592 0.931 . S
C577 C576 1.370 . S
C577 C581 1.408 . S
C578 C576 1.363 . S
C578 C579 1.370 . S
C578 C582 1.524 . S
C579 C571 1.503 . S
C579 C578 1.370 . S
C579 C580 1.403 . S
C580 C579 1.403 . S
C580 C581 1.404 . S
C580 C583 1.539 . S
C581 C577 1.408 . S
C581 C580 1.404 . S
C581 H593 0.930 . S
C582 C578 1.524 . S
C582 H594 0.956 . S
C582 H595 0.961 . S
C582 H596 0.961 . S
C583 C580 1.539 . S
C583 H597 0.958 . S
C583 H598 0.961 . S
C583 H599 0.960 . S
H584 C568 0.931 . S
H585 C573 0.929 . S
H586 C574 0.960 . S
H587 C574 0.962 . S
H588 C574 0.960 . S
H589 C575 0.961 . S
H590 C575 0.961 . S
H591 C575 0.961 . S
H592 C576 0.931 . S
H593 C581 0.930 . S
H594 C582 0.956 . S
H595 C582 0.961 . S
H596 C582 0.961 . S
H597 C583 0.958 . S
H598 C583 0.961 . S
H599 C583 0.960 . S
C600 C601 1.391 . S
C600 C602 1.394 . S
C600 H616 0.931 . S
C601 C600 1.391 . S
C601 C605 1.376 . S
C602 C600 1.394 . S
C602 C603 1.369 . S
C602 C606 1.531 . S
C603 C602 1.369 . S
C603 C604 1.410 . S
C603 C611 1.503 . S
C604 C603 1.410 . S
C604 C605 1.392 . S
C604 C607 1.511 . S
C605 C601 1.376 . S
C605 C604 1.392 . S
C605 H617 0.929 . S
C606 C602 1.531 . S
C606 H618 0.960 . S
C606 H619 0.962 . S
C606 H620 0.960 . S
C607 C604 1.511 . S
C607 H621 0.961 . S
C607 H622 0.961 . S
C607 H623 0.961 . S
C608 C609 1.370 . S
C608 C610 1.363 . S
C608 H624 0.931 . S
C609 C608 1.370 . S
C609 C613 1.408 . S
C610 C608 1.363 . S
C610 C611 1.370 . S
C610 C614 1.524 . S
C611 C603 1.503 . S
C611 C610 1.370 . S
C611 C612 1.403 . S
C612 C611 1.403 . S
C612 C613 1.404 . S
C612 C615 1.539 . S
C613 C609 1.408 . S
C613 C612 1.404 . S
C613 H625 0.930 . S
C614 C610 1.524 . S
C614 H626 0.956 . S
C614 H627 0.961 . S
C614 H628 0.961 . S
C615 C612 1.539 . S
C615 H629 0.958 . S
C615 H630 0.961 . S
C615 H631 0.960 . S
H616 C600 0.931 . S
H617 C605 0.929 . S
H618 C606 0.960 . S
H619 C606 0.962 . S
H620 C606 0.960 . S
H621 C607 0.961 . S
H622 C607 0.961 . S
H623 C607 0.961 . S
H624 C608 0.931 . S
H625 C613 0.930 . S
H626 C614 0.956 . S
H627 C614 0.961 . S
H628 C614 0.961 . S
H629 C615 0.958 . S
H630 C615 0.961 . S
H631 C615 0.960 . S
C632 C633 1.391 . S
C632 C634 1.394 . S
C632 H648 0.931 . S
C633 C632 1.391 . S
C633 C637 1.376 . S
C634 C632 1.394 . S
C634 C635 1.369 . S
C634 C638 1.531 . S
C635 C634 1.369 . S
C635 C636 1.410 . S
C635 C643 1.503 . S
C636 C635 1.410 . S
C636 C637 1.392 . S
C636 C639 1.511 . S
C637 C633 1.376 . S
C637 C636 1.392 . S
C637 H649 0.929 . S
C638 C634 1.531 . S
C638 H650 0.960 . S
C638 H651 0.962 . S
C638 H652 0.960 . S
C639 C636 1.511 . S
C639 H653 0.961 . S
C639 H654 0.961 . S
C639 H655 0.961 . S
C640 C641 1.370 . S
C640 C642 1.363 . S
C640 H656 0.931 . S
C641 C640 1.370 . S
C641 C645 1.408 . S
C642 C640 1.363 . S
C642 C643 1.370 . S
C642 C646 1.524 . S
C643 C635 1.503 . S
C643 C642 1.370 . S
C643 C644 1.403 . S
C644 C643 1.403 . S
C644 C645 1.404 . S
C644 C647 1.539 . S
C645 C641 1.408 . S
C645 C644 1.404 . S
C645 H657 0.930 . S
C646 C642 1.524 . S
C646 H658 0.956 . S
C646 H659 0.961 . S
C646 H660 0.961 . S
C647 C644 1.539 . S
C647 H661 0.958 . S
C647 H662 0.961 . S
C647 H663 0.960 . S
H648 C632 0.931 . S
H649 C637 0.929 . S
H650 C638 0.960 . S
H651 C638 0.962 . S
H652 C638 0.960 . S
H653 C639 0.961 . S
H654 C639 0.961 . S
H655 C639 0.961 . S
H656 C640 0.931 . S
H657 C645 0.930 . S
H658 C646 0.956 . S
H659 C646 0.961 . S
H660 C646 0.961 . S
H661 C647 0.958 . S
H662 C647 0.961 . S
H663 C647 0.960 . S
C664 C665 1.391 . S
C664 C666 1.394 . S
C664 H680 0.931 . S
C665 C664 1.391 . S
C665 C669 1.376 . S
C666 C664 1.394 . S
C666 C667 1.369 . S
C666 C670 1.531 . S
C667 C666 1.369 . S
C667 C668 1.410 . S
C667 C675 1.503 . S
C668 C667 1.410 . S
C668 C669 1.392 . S
C668 C671 1.511 . S
C669 C665 1.376 . S
C669 C668 1.392 . S
C669 H681 0.929 . S
C670 C666 1.531 . S
C670 H682 0.960 . S
C670 H683 0.962 . S
C670 H684 0.960 . S
C671 C668 1.511 . S
C671 H685 0.961 . S
C671 H686 0.961 . S
C671 H687 0.961 . S
C672 C673 1.370 . S
C672 C674 1.363 . S
C672 H688 0.931 . S
C673 C672 1.370 . S
C673 C677 1.408 . S
C674 C672 1.363 . S
C674 C675 1.370 . S
C674 C678 1.524 . S
C675 C667 1.503 . S
C675 C674 1.370 . S
C675 C676 1.403 . S
C676 C675 1.403 . S
C676 C677 1.404 . S
C676 C679 1.539 . S
C677 C673 1.408 . S
C677 C676 1.404 . S
C677 H689 0.930 . S
C678 C674 1.524 . S
C678 H690 0.956 . S
C678 H691 0.961 . S
C678 H692 0.961 . S
C679 C676 1.539 . S
C679 H693 0.958 . S
C679 H694 0.961 . S
C679 H695 0.960 . S
H680 C664 0.931 . S
H681 C669 0.929 . S
H682 C670 0.960 . S
H683 C670 0.962 . S
H684 C670 0.960 . S
H685 C671 0.961 . S
H686 C671 0.961 . S
H687 C671 0.961 . S
H688 C672 0.931 . S
H689 C677 0.930 . S
H690 C678 0.956 . S
H691 C678 0.961 . S
H692 C678 0.961 . S
H693 C679 0.958 . S
H694 C679 0.961 . S
H695 C679 0.960 . S
C696 C697 1.391 . S
C696 C698 1.394 . S
C696 H712 0.931 . S
C697 C696 1.391 . S
C697 C701 1.376 . S
C698 C696 1.394 . S
C698 C699 1.369 . S
C698 C702 1.531 . S
C699 C698 1.369 . S
C699 C700 1.410 . S
C699 C707 1.503 . S
C700 C699 1.410 . S
C700 C701 1.392 . S
C700 C703 1.511 . S
C701 C697 1.376 . S
C701 C700 1.392 . S
C701 H713 0.929 . S
C702 C698 1.531 . S
C702 H714 0.960 . S
C702 H715 0.962 . S
C702 H716 0.960 . S
C703 C700 1.511 . S
C703 H717 0.961 . S
C703 H718 0.961 . S
C703 H719 0.961 . S
C704 C705 1.370 . S
C704 C706 1.363 . S
C704 H720 0.931 . S
C705 C704 1.370 . S
C705 C709 1.408 . S
C706 C704 1.363 . S
C706 C707 1.370 . S
C706 C710 1.524 . S
C707 C699 1.503 . S
C707 C706 1.370 . S
C707 C708 1.403 . S
C708 C707 1.403 . S
C708 C709 1.404 . S
C708 C711 1.539 . S
C709 C705 1.408 . S
C709 C708 1.404 . S
C709 H721 0.930 . S
C710 C706 1.524 . S
C710 H722 0.956 . S
C710 H723 0.961 . S
C710 H724 0.961 . S
C711 C708 1.539 . S
C711 H725 0.958 . S
C711 H726 0.961 . S
C711 H727 0.960 . S
H712 C696 0.931 . S
H713 C701 0.929 . S
H714 C702 0.960 . S
H715 C702 0.962 . S
H716 C702 0.960 . S
H717 C703 0.961 . S
H718 C703 0.961 . S
H719 C703 0.961 . S
H720 C704 0.931 . S
H721 C709 0.930 . S
H722 C710 0.956 . S
H723 C710 0.961 . S
H724 C710 0.961 . S
H725 C711 0.958 . S
H726 C711 0.961 . S
H727 C711 0.960 . S
C728 C729 1.391 1_545 S
C728 C730 1.394 . S
C728 H744 0.931 . S
C729 C728 1.391 1_565 S
C729 C733 1.376 . S
C730 C728 1.394 . S
C730 C731 1.369 . S
C730 C734 1.531 . S
C731 C730 1.369 . S
C731 C732 1.410 1_545 S
C731 C739 1.503 . S
C732 C731 1.410 1_565 S
C732 C733 1.392 . S
C732 C735 1.511 . S
C733 C729 1.376 . S
C733 C732 1.392 . S
C733 H745 0.929 . S
C734 C730 1.531 . S
C734 H746 0.960 . S
C734 H747 0.962 . S
C734 H748 0.960 . S
C735 C732 1.511 . S
C735 H749 0.961 . S
C735 H750 0.961 1_565 S
C735 H751 0.961 . S
C736 C737 1.370 . S
C736 C738 1.363 . S
C736 H752 0.931 . S
C737 C736 1.370 . S
C737 C741 1.408 . S
C738 C736 1.363 . S
C738 C739 1.370 . S
C738 C742 1.524 . S
C739 C731 1.503 . S
C739 C738 1.370 . S
C739 C740 1.403 . S
C740 C739 1.403 . S
C740 C741 1.404 . S
C740 C743 1.539 . S
C741 C737 1.408 . S
C741 C740 1.404 . S
C741 H753 0.930 . S
C742 C738 1.524 . S
C742 H754 0.956 . S
C742 H755 0.961 . S
C742 H756 0.961 . S
C743 C740 1.539 . S
C743 H757 0.958 . S
C743 H758 0.961 . S
C743 H759 0.960 . S
H744 C728 0.931 . S
H745 C733 0.929 . S
H746 C734 0.960 . S
H747 C734 0.962 . S
H748 C734 0.960 . S
H749 C735 0.961 . S
H750 C735 0.961 1_545 S
H751 C735 0.961 . S
H752 C736 0.931 . S
H753 C741 0.930 . S
H754 C742 0.956 . S
H755 C742 0.961 . S
H756 C742 0.961 . S
H757 C743 0.958 . S
H758 C743 0.961 . S
H759 C743 0.960 . S
C760 C761 1.391 . S
C760 C762 1.394 1_545 S
C760 H776 0.931 . S
C761 C760 1.391 . S
C761 C765 1.376 1_545 S
C762 C760 1.394 1_565 S
C762 C763 1.369 . S
C762 C766 1.531 . S
C763 C762 1.369 . S
C763 C764 1.410 . S
C763 C771 1.503 . S
C764 C763 1.410 . S
C764 C765 1.392 . S
C764 C767 1.511 . S
C765 C761 1.376 1_565 S
C765 C764 1.392 . S
C765 H777 0.929 . S
C766 C762 1.531 . S
C766 H778 0.960 . S
C766 H779 0.962 1_565 S
C766 H780 0.960 1_565 S
C767 C764 1.511 . S
C767 H781 0.961 . S
C767 H782 0.961 . S
C767 H783 0.961 . S
C768 C769 1.370 . S
C768 C770 1.363 . S
C768 H784 0.931 . S
C769 C768 1.370 . S
C769 C773 1.408 . S
C770 C768 1.363 . S
C770 C771 1.370 . S
C770 C774 1.524 . S
C771 C763 1.503 . S
C771 C770 1.370 . S
C771 C772 1.403 . S
C772 C771 1.403 . S
C772 C773 1.404 . S
C772 C775 1.539 . S
C773 C769 1.408 . S
C773 C772 1.404 . S
C773 H785 0.930 . S
C774 C770 1.524 . S
C774 H786 0.956 . S
C774 H787 0.961 . S
C774 H788 0.961 . S
C775 C772 1.539 . S
C775 H789 0.958 . S
C775 H790 0.961 . S
C775 H791 0.960 . S
H776 C760 0.931 . S
H777 C765 0.929 . S
H778 C766 0.960 . S
H779 C766 0.962 1_545 S
H780 C766 0.960 1_545 S
H781 C767 0.961 . S
H782 C767 0.961 . S
H783 C767 0.961 . S
H784 C768 0.931 . S
H785 C773 0.930 . S
H786 C774 0.956 . S
H787 C774 0.961 . S
H788 C774 0.961 . S
H789 C775 0.958 . S
H790 C775 0.961 . S
H791 C775 0.960 . S
C792 C793 1.391 1_545 S
C792 C794 1.394 . S
C792 H808 0.931 . S
C793 C792 1.391 1_565 S
C793 C797 1.376 . S
C794 C792 1.394 . S
C794 C795 1.369 . S
C794 C798 1.531 . S
C795 C794 1.369 . S
C795 C796 1.410 . S
C795 C803 1.503 . S
C796 C795 1.410 . S
C796 C797 1.392 1_545 S
C796 C799 1.511 1_545 S
C797 C793 1.376 . S
C797 C796 1.392 1_565 S
C797 H809 0.929 . S
C798 C794 1.531 . S
C798 H810 0.960 . S
C798 H811 0.962 . S
C798 H812 0.960 . S
C799 C796 1.511 1_565 S
C799 H813 0.961 . S
C799 H814 0.961 1_565 S
C799 H815 0.961 . S
C800 C801 1.370 . S
C800 C802 1.363 . S
C800 H816 0.931 . S
C801 C800 1.370 . S
C801 C805 1.408 . S
C802 C800 1.363 . S
C802 C803 1.370 . S
C802 C806 1.524 . S
C803 C795 1.503 . S
C803 C802 1.370 . S
C803 C804 1.403 . S
C804 C803 1.403 . S
C804 C805 1.404 . S
C804 C807 1.539 . S
C805 C801 1.408 . S
C805 C804 1.404 . S
C805 H817 0.930 . S
C806 C802 1.524 . S
C806 H818 0.956 . S
C806 H819 0.961 . S
C806 H820 0.961 . S
C807 C804 1.539 . S
C807 H821 0.958 . S
C807 H822 0.961 . S
C807 H823 0.960 . S
H808 C792 0.931 . S
H809 C797 0.929 . S
H810 C798 0.960 . S
H811 C798 0.962 . S
H812 C798 0.960 . S
H813 C799 0.961 . S
H814 C799 0.961 1_545 S
H815 C799 0.961 . S
H816 C800 0.931 . S
H817 C805 0.930 . S
H818 C806 0.956 . S
H819 C806 0.961 . S
H820 C806 0.961 . S
H821 C807 0.958 . S
H822 C807 0.961 . S
H823 C807 0.960 . S
C824 C825 1.391 . S
C824 C826 1.394 1_545 S
C824 H840 0.931 . S
C825 C824 1.391 . S
C825 C829 1.376 1_545 S
C826 C824 1.394 1_565 S
C826 C827 1.369 . S
C826 C830 1.531 . S
C827 C826 1.369 . S
C827 C828 1.410 . S
C827 C835 1.503 . S
C828 C827 1.410 . S
C828 C829 1.392 . S
C828 C831 1.511 . S
C829 C825 1.376 1_565 S
C829 C828 1.392 . S
C829 H841 0.929 . S
C830 C826 1.531 . S
C830 H842 0.960 . S
C830 H843 0.962 . S
C830 H844 0.960 1_565 S
C831 C828 1.511 . S
C831 H845 0.961 . S
C831 H846 0.961 . S
C831 H847 0.961 . S
C832 C833 1.370 . S
C832 C834 1.363 . S
C832 H848 0.931 . S
C833 C832 1.370 . S
C833 C837 1.408 . S
C834 C832 1.363 . S
C834 C835 1.370 . S
C834 C838 1.524 . S
C835 C827 1.503 . S
C835 C834 1.370 . S
C835 C836 1.403 . S
C836 C835 1.403 . S
C836 C837 1.404 . S
C836 C839 1.539 . S
C837 C833 1.408 . S
C837 C836 1.404 . S
C837 H849 0.930 . S
C838 C834 1.524 . S
C838 H850 0.956 . S
C838 H851 0.961 . S
C838 H852 0.961 . S
C839 C836 1.539 . S
C839 H853 0.960 1_565 S
C839 H854 0.961 . S
C839 H855 0.960 . S
H840 C824 0.931 . S
H841 C829 0.929 . S
H842 C830 0.960 . S
H843 C830 0.962 . S
H844 C830 0.960 1_545 S
H845 C831 0.961 . S
H846 C831 0.961 . S
H847 C831 0.961 . S
H848 C832 0.931 . S
H849 C837 0.930 . S
H850 C838 0.956 . S
H851 C838 0.961 . S
H852 C838 0.961 . S
H853 C839 0.960 1_545 S
H854 C839 0.961 . S
H855 C839 0.960 . S
C856 C857 1.391 . S
C856 C858 1.394 . S
C856 H872 0.931 . S
C857 C856 1.391 . S
C857 C861 1.376 . S
C858 C856 1.394 . S
C858 C859 1.369 . S
C858 C862 1.531 . S
C859 C858 1.369 . S
C859 C860 1.410 . S
C859 C867 1.503 . S
C860 C859 1.410 . S
C860 C861 1.392 . S
C860 C863 1.511 . S
C861 C857 1.376 . S
C861 C860 1.392 . S
C861 H873 0.929 . S
C862 C858 1.531 . S
C862 H874 0.960 . S
C862 H875 0.962 . S
C862 H876 0.960 . S
C863 C860 1.511 . S
C863 H877 0.961 . S
C863 H878 0.961 . S
C863 H879 0.961 . S
C864 C865 1.370 . S
C864 C866 1.363 . S
C864 H880 0.931 . S
C865 C864 1.370 . S
C865 C869 1.408 . S
C866 C864 1.363 . S
C866 C867 1.370 . S
C866 C870 1.524 . S
C867 C859 1.503 . S
C867 C866 1.370 . S
C867 C868 1.403 . S
C868 C867 1.403 . S
C868 C869 1.404 . S
C868 C871 1.539 . S
C869 C865 1.408 . S
C869 C868 1.404 . S
C869 H881 0.930 . S
C870 C866 1.524 . S
C870 H882 0.956 . S
C870 H883 0.961 . S
C870 H884 0.961 . S
C871 C868 1.539 . S
C871 H885 0.958 . S
C871 H886 0.961 . S
C871 H887 0.960 . S
H872 C856 0.931 . S
H873 C861 0.929 . S
H874 C862 0.960 . S
H875 C862 0.962 . S
H876 C862 0.960 . S
H877 C863 0.961 . S
H878 C863 0.961 . S
H879 C863 0.961 . S
H880 C864 0.931 . S
H881 C869 0.930 . S
H882 C870 0.956 . S
H883 C870 0.961 . S
H884 C870 0.961 . S
H885 C871 0.958 . S
H886 C871 0.961 . S
H887 C871 0.960 . S
C888 C889 1.391 . S
C888 C890 1.394 . S
C888 H904 0.931 . S
C889 C888 1.391 . S
C889 C893 1.376 . S
C890 C888 1.394 . S
C890 C891 1.369 . S
C890 C894 1.531 . S
C891 C890 1.369 . S
C891 C892 1.410 . S
C891 C899 1.503 . S
C892 C891 1.410 . S
C892 C893 1.392 . S
C892 C895 1.511 . S
C893 C889 1.376 . S
C893 C892 1.392 . S
C893 H905 0.929 . S
C894 C890 1.531 . S
C894 H906 0.960 . S
C894 H907 0.962 . S
C894 H908 0.960 . S
C895 C892 1.511 . S
C895 H909 0.961 . S
C895 H910 0.961 . S
C895 H911 0.961 . S
C896 C897 1.370 . S
C896 C898 1.363 . S
C896 H912 0.931 . S
C897 C896 1.370 . S
C897 C901 1.408 . S
C898 C896 1.363 . S
C898 C899 1.370 . S
C898 C902 1.524 . S
C899 C891 1.503 . S
C899 C898 1.370 . S
C899 C900 1.403 . S
C900 C899 1.403 . S
C900 C901 1.404 . S
C900 C903 1.539 . S
C901 C897 1.408 . S
C901 C900 1.404 . S
C901 H913 0.930 . S
C902 C898 1.524 . S
C902 H914 0.956 . S
C902 H915 0.961 . S
C902 H916 0.961 . S
C903 C900 1.539 . S
C903 H917 0.958 . S
C903 H918 0.961 . S
C903 H919 0.960 . S
H904 C888 0.931 . S
H905 C893 0.929 . S
H906 C894 0.960 . S
H907 C894 0.962 . S
H908 C894 0.960 . S
H909 C895 0.961 . S
H910 C895 0.961 . S
H911 C895 0.961 . S
H912 C896 0.931 . S
H913 C901 0.930 . S
H914 C902 0.956 . S
H915 C902 0.961 . S
H916 C902 0.961 . S
H917 C903 0.958 . S
H918 C903 0.961 . S
H919 C903 0.960 . S
C920 C921 1.391 . S
C920 C922 1.394 . S
C920 H936 0.931 . S
C921 C920 1.391 . S
C921 C925 1.376 . S
C922 C920 1.394 . S
C922 C923 1.369 . S
C922 C926 1.531 . S
C923 C922 1.369 . S
C923 C924 1.410 . S
C923 C931 1.503 . S
C924 C923 1.410 . S
C924 C925 1.392 . S
C924 C927 1.511 . S
C925 C921 1.376 . S
C925 C924 1.392 . S
C925 H937 0.929 . S
C926 C922 1.531 . S
C926 H938 0.960 . S
C926 H939 0.962 . S
C926 H940 0.960 . S
C927 C924 1.511 . S
C927 H941 0.961 . S
C927 H942 0.961 . S
C927 H943 0.961 . S
C928 C929 1.370 . S
C928 C930 1.363 . S
C928 H944 0.931 . S
C929 C928 1.370 . S
C929 C933 1.408 . S
C930 C928 1.363 . S
C930 C931 1.370 . S
C930 C934 1.524 . S
C931 C923 1.503 . S
C931 C930 1.370 . S
C931 C932 1.403 . S
C932 C931 1.403 . S
C932 C933 1.404 . S
C932 C935 1.539 . S
C933 C929 1.408 . S
C933 C932 1.404 . S
C933 H945 0.930 . S
C934 C930 1.524 . S
C934 H946 0.956 . S
C934 H947 0.961 . S
C934 H948 0.961 . S
C935 C932 1.539 . S
C935 H949 0.958 . S
C935 H950 0.961 . S
C935 H951 0.960 . S
H936 C920 0.931 . S
H937 C925 0.929 . S
H938 C926 0.960 . S
H939 C926 0.962 . S
H940 C926 0.960 . S
H941 C927 0.961 . S
H942 C927 0.961 . S
H943 C927 0.961 . S
H944 C928 0.931 . S
H945 C933 0.930 . S
H946 C934 0.956 . S
H947 C934 0.961 . S
H948 C934 0.961 . S
H949 C935 0.958 . S
H950 C935 0.961 . S
H951 C935 0.960 . S
C952 C953 1.391 . S
C952 C954 1.394 . S
C952 H968 0.931 . S
C953 C952 1.391 . S
C953 C957 1.376 . S
C954 C952 1.394 . S
C954 C955 1.369 . S
C954 C958 1.531 . S
C955 C954 1.369 . S
C955 C956 1.410 . S
C955 C963 1.503 . S
C956 C955 1.410 . S
C956 C957 1.392 . S
C956 C959 1.511 . S
C957 C953 1.376 . S
C957 C956 1.392 . S
C957 H969 0.929 . S
C958 C954 1.531 . S
C958 H970 0.960 . S
C958 H971 0.962 . S
C958 H972 0.960 . S
C959 C956 1.511 . S
C959 H973 0.961 . S
C959 H974 0.961 . S
C959 H975 0.961 . S
C960 C961 1.370 . S
C960 C962 1.363 . S
C960 H976 0.931 . S
C961 C960 1.370 . S
C961 C965 1.408 . S
C962 C960 1.363 . S
C962 C963 1.370 . S
C962 C966 1.524 . S
C963 C955 1.503 . S
C963 C962 1.370 . S
C963 C964 1.403 . S
C964 C963 1.403 . S
C964 C965 1.404 . S
C964 C967 1.539 . S
C965 C961 1.408 . S
C965 C964 1.404 . S
C965 H977 0.930 . S
C966 C962 1.524 . S
C966 H978 0.956 . S
C966 H979 0.961 . S
C966 H980 0.961 . S
C967 C964 1.539 . S
C967 H981 0.958 . S
C967 H982 0.961 . S
C967 H983 0.960 . S
H968 C952 0.931 . S
H969 C957 0.929 . S
H970 C958 0.960 . S
H971 C958 0.962 . S
H972 C958 0.960 . S
H973 C959 0.961 . S
H974 C959 0.961 . S
H975 C959 0.961 . S
H976 C960 0.931 . S
H977 C965 0.930 . S
H978 C966 0.956 . S
H979 C966 0.961 . S
H980 C966 0.961 . S
H981 C967 0.958 . S
H982 C967 0.961 . S
H983 C967 0.960 . S
C984 C985 1.391 . S
C984 C986 1.394 . S
C984 H1000 0.931 . S
C985 C984 1.391 . S
C985 C989 1.376 . S
C986 C984 1.394 . S
C986 C987 1.369 . S
C986 C990 1.531 . S
C987 C986 1.369 . S
C987 C988 1.410 . S
C987 C995 1.503 . S
C988 C987 1.410 . S
C988 C989 1.392 . S
C988 C991 1.511 . S
C989 C985 1.376 . S
C989 C988 1.392 . S
C989 H1001 0.929 . S
C990 C986 1.531 . S
C990 H1002 0.960 . S
C990 H1003 0.962 . S
C990 H1004 0.960 . S
C991 C988 1.511 . S
C991 H1005 0.961 . S
C991 H1006 0.961 . S
C991 H1007 0.961 . S
C992 C993 1.370 . S
C992 C994 1.363 . S
C992 H1008 0.931 . S
C993 C992 1.370 . S
C993 C997 1.408 . S
C994 C992 1.363 . S
C994 C995 1.370 . S
C994 C998 1.524 . S
C995 C987 1.503 . S
C995 C994 1.370 . S
C995 C996 1.403 . S
C996 C995 1.403 . S
C996 C997 1.404 . S
C996 C999 1.539 . S
C997 C993 1.408 . S
C997 C996 1.404 . S
C997 H1009 0.930 . S
C998 C994 1.524 . S
C998 H1010 0.956 . S
C998 H1011 0.961 . S
C998 H1012 0.961 . S
C999 C996 1.539 . S
C999 H1013 0.958 . S
C999 H1014 0.961 . S
C999 H1015 0.960 . S
H1000 C984 0.931 . S
H1001 C989 0.929 . S
H1002 C990 0.960 . S
H1003 C990 0.962 . S
H1004 C990 0.960 . S
H1005 C991 0.961 . S
H1006 C991 0.961 . S
H1007 C991 0.961 . S
H1008 C992 0.931 . S
H1009 C997 0.930 . S
H1010 C998 0.956 . S
H1011 C998 0.961 . S
H1012 C998 0.961 . S
H1013 C999 0.958 . S
H1014 C999 0.961 . S
H1015 C999 0.960 . S
C1016 C1017 1.391 . S
C1016 C1018 1.394 . S
C1016 H1032 0.931 . S
C1017 C1016 1.391 . S
C1017 C1021 1.376 . S
C1018 C1016 1.394 . S
C1018 C1019 1.369 . S
C1018 C1022 1.531 . S
C1019 C1018 1.369 . S
C1019 C1020 1.410 . S
C1019 C1027 1.503 . S
C1020 C1019 1.410 . S
C1020 C1021 1.392 . S
C1020 C1023 1.511 . S
C1021 C1017 1.376 . S
C1021 C1020 1.392 . S
C1021 H1033 0.929 . S
C1022 C1018 1.531 . S
C1022 H1034 0.960 . S
C1022 H1035 0.962 . S
C1022 H1036 0.960 . S
C1023 C1020 1.511 . S
C1023 H1037 0.961 . S
C1023 H1038 0.961 . S
C1023 H1039 0.961 . S
C1024 C1025 1.370 . S
C1024 C1026 1.363 . S
C1024 H1040 0.931 . S
C1025 C1024 1.370 . S
C1025 C1029 1.408 . S
C1026 C1024 1.363 . S
C1026 C1027 1.370 . S
C1026 C1030 1.524 . S
C1027 C1019 1.503 . S
C1027 C1026 1.370 . S
C1027 C1028 1.403 . S
C1028 C1027 1.403 . S
C1028 C1029 1.404 . S
C1028 C1031 1.539 . S
C1029 C1025 1.408 . S
C1029 C1028 1.404 . S
C1029 H1041 0.930 . S
C1030 C1026 1.524 . S
C1030 H1042 0.956 . S
C1030 H1043 0.961 . S
C1030 H1044 0.961 . S
C1031 C1028 1.539 . S
C1031 H1045 0.958 . S
C1031 H1046 0.961 . S
C1031 H1047 0.960 . S
H1032 C1016 0.931 . S
H1033 C1021 0.929 . S
H1034 C1022 0.960 . S
H1035 C1022 0.962 . S
H1036 C1022 0.960 . S
H1037 C1023 0.961 . S
H1038 C1023 0.961 . S
H1039 C1023 0.961 . S
H1040 C1024 0.931 . S
H1041 C1029 0.930 . S
H1042 C1030 0.956 . S
H1043 C1030 0.961 . S
H1044 C1030 0.961 . S
H1045 C1031 0.958 . S
H1046 C1031 0.961 . S
H1047 C1031 0.960 . S
C1048 C1049 1.391 . S
C1048 C1050 1.394 . S
C1048 H1064 0.931 . S
C1049 C1048 1.391 . S
C1049 C1053 1.376 . S
C1050 C1048 1.394 . S
C1050 C1051 1.369 . S
C1050 C1054 1.531 . S
C1051 C1050 1.369 . S
C1051 C1052 1.410 . S
C1051 C1059 1.503 . S
C1052 C1051 1.410 . S
C1052 C1053 1.392 . S
C1052 C1055 1.511 . S
C1053 C1049 1.376 . S
C1053 C1052 1.392 . S
C1053 H1065 0.929 . S
C1054 C1050 1.531 . S
C1054 H1066 0.960 . S
C1054 H1067 0.962 . S
C1054 H1068 0.960 . S
C1055 C1052 1.511 . S
C1055 H1069 0.961 . S
C1055 H1070 0.961 . S
C1055 H1071 0.961 . S
C1056 C1057 1.370 . S
C1056 C1058 1.363 . S
C1056 H1072 0.931 . S
C1057 C1056 1.370 . S
C1057 C1061 1.408 . S
C1058 C1056 1.363 . S
C1058 C1059 1.370 . S
C1058 C1062 1.524 . S
C1059 C1051 1.503 . S
C1059 C1058 1.370 . S
C1059 C1060 1.403 . S
C1060 C1059 1.403 . S
C1060 C1061 1.404 . S
C1060 C1063 1.539 . S
C1061 C1057 1.408 . S
C1061 C1060 1.404 . S
C1061 H1073 0.930 . S
C1062 C1058 1.524 . S
C1062 H1074 0.956 . S
C1062 H1075 0.961 . S
C1062 H1076 0.961 . S
C1063 C1060 1.539 . S
C1063 H1077 0.958 . S
C1063 H1078 0.961 . S
C1063 H1079 0.960 . S
H1064 C1048 0.931 . S
H1065 C1053 0.929 . S
H1066 C1054 0.960 . S
H1067 C1054 0.962 . S
H1068 C1054 0.960 . S
H1069 C1055 0.961 . S
H1070 C1055 0.961 . S
H1071 C1055 0.961 . S
H1072 C1056 0.931 . S
H1073 C1061 0.930 . S
H1074 C1062 0.956 . S
H1075 C1062 0.961 . S
H1076 C1062 0.961 . S
H1077 C1063 0.958 . S
H1078 C1063 0.961 . S
H1079 C1063 0.960 . S
C1080 C1081 1.391 . S
C1080 C1082 1.394 . S
C1080 H1096 0.931 . S
C1081 C1080 1.391 . S
C1081 C1085 1.376 . S
C1082 C1080 1.394 . S
C1082 C1083 1.369 . S
C1082 C1086 1.531 . S
C1083 C1082 1.369 . S
C1083 C1084 1.410 . S
C1083 C1091 1.503 . S
C1084 C1083 1.410 . S
C1084 C1085 1.392 . S
C1084 C1087 1.511 . S
C1085 C1081 1.376 . S
C1085 C1084 1.392 . S
C1085 H1097 0.929 . S
C1086 C1082 1.531 . S
C1086 H1098 0.960 . S
C1086 H1099 0.962 . S
C1086 H1100 0.960 . S
C1087 C1084 1.511 . S
C1087 H1101 0.961 . S
C1087 H1102 0.961 . S
C1087 H1103 0.961 . S
C1088 C1089 1.370 . S
C1088 C1090 1.363 . S
C1088 H1104 0.931 . S
C1089 C1088 1.370 . S
C1089 C1093 1.408 . S
C1090 C1088 1.363 . S
C1090 C1091 1.370 . S
C1090 C1094 1.524 . S
C1091 C1083 1.503 . S
C1091 C1090 1.370 . S
C1091 C1092 1.403 . S
C1092 C1091 1.403 . S
C1092 C1093 1.404 . S
C1092 C1095 1.539 . S
C1093 C1089 1.408 . S
C1093 C1092 1.404 . S
C1093 H1105 0.930 . S
C1094 C1090 1.524 . S
C1094 H1106 0.956 . S
C1094 H1107 0.961 . S
C1094 H1108 0.961 . S
C1095 C1092 1.539 . S
C1095 H1109 0.958 . S
C1095 H1110 0.961 . S
C1095 H1111 0.960 . S
H1096 C1080 0.931 . S
H1097 C1085 0.929 . S
H1098 C1086 0.960 . S
H1099 C1086 0.962 . S
H1100 C1086 0.960 . S
H1101 C1087 0.961 . S
H1102 C1087 0.961 . S
H1103 C1087 0.961 . S
H1104 C1088 0.931 . S
H1105 C1093 0.930 . S
H1106 C1094 0.956 . S
H1107 C1094 0.961 . S
H1108 C1094 0.961 . S
H1109 C1095 0.958 . S
H1110 C1095 0.961 . S
H1111 C1095 0.960 . S
C345 C23 1.530 . S
C353 C299 1.544 . S
C385 C263 1.504 . S
C377 C55 1.528 . S
C417 C286 1.539 . S
C409 C87 1.542 . S
C449 C274 1.499 . S
C441 C119 1.414 . S
C481 C343 1.545 . S
C473 C151 1.535 . S
C513 C307 1.500 . S
C505 C183 1.524 . S
C537 C215 1.549 . S
C545 C330 1.544 . S
C577 C318 1.501 . S
C569 C247 1.421 . S
C601 C29 1.466 . S
C609 C340 1.536 . S
C641 C310 1.464 . S
C633 C49 1.468 . S
C665 C93 1.541 . S
C673 C329 1.556 . S
C697 C113 1.426 . S
C705 C315 1.485 . S
C737 C296 1.533 . S
C729 C157 1.435 . S
C761 C177 1.456 . S
C769 C266 1.468 . S
C801 C285 1.561 . S
C793 C221 1.559 . S
C833 C271 1.483 . S
C825 C241 1.399 . S
C865 C321 1.508 . S
C857 C17 1.434 . S
C897 C337 1.505 . S
C889 C61 1.516 . S
C921 C81 1.482 . S
C929 C308 1.485 . S
C961 C332 1.480 . S
C953 C125 1.435 . S
C993 C277 1.504 . S
C985 C145 1.474 . S
C1017 C189 1.496 . S
C1025 C293 1.497 . S
C1049 C209 1.473 . S
C1057 C264 1.482 . S
C1081 C253 1.406 . S
C1089 C288 1.477 . S
