# Generated by pormake.
# Topology llj, (12,3)-cn, num edge types: 1
# Building blocks:
#     Node 0, Type 0, BuildingBlock: QEWDON_clean_sbu_0, # of connection points: 12
#     Node 1, Type 0, BuildingBlock: QEWDON_clean_sbu_0, # of connection points: 12
#     Node 2, Type 1, BuildingBlock: QEWDON_clean_linker_0, # of connection points: 3
#     Node 3, Type 1, BuildingBlock: QEWDON_clean_linker_0, # of connection points: 3
#     Node 4, Type 1, BuildingBlock: QEWDON_clean_linker_0, # of connection points: 3
#     Node 5, Type 1, BuildingBlock: QEWDON_clean_linker_0, # of connection points: 3
#     Node 6, Type 1, BuildingBlock: QEWDON_clean_linker_0, # of connection points: 3
#     Node 7, Type 1, BuildingBlock: QEWDON_clean_linker_0, # of connection points: 3
#     Node 8, Type 1, BuildingBlock: QEWDON_clean_linker_0, # of connection points: 3
#     Node 9, Type 1, BuildingBlock: QEWDON_clean_linker_0, # of connection points: 3
#     Edge 10, Type (0, 1), BuildingBlock: XUDNAN_clean_linker_2, # of connection points: 2
#     Edge 11, Type (0, 1), BuildingBlock: XUDNAN_clean_linker_2, # of connection points: 2
#     Edge 12, Type (0, 1), BuildingBlock: XUDNAN_clean_linker_2, # of connection points: 2
#     Edge 13, Type (0, 1), BuildingBlock: XUDNAN_clean_linker_2, # of connection points: 2
#     Edge 14, Type (0, 1), BuildingBlock: XUDNAN_clean_linker_2, # of connection points: 2
#     Edge 15, Type (0, 1), BuildingBlock: XUDNAN_clean_linker_2, # of connection points: 2
#     Edge 16, Type (0, 1), BuildingBlock: XUDNAN_clean_linker_2, # of connection points: 2
#     Edge 17, Type (0, 1), BuildingBlock: XUDNAN_clean_linker_2, # of connection points: 2
#     Edge 18, Type (0, 1), BuildingBlock: XUDNAN_clean_linker_2, # of connection points: 2
#     Edge 19, Type (0, 1), BuildingBlock: XUDNAN_clean_linker_2, # of connection points: 2
#     Edge 20, Type (0, 1), BuildingBlock: XUDNAN_clean_linker_2, # of connection points: 2
#     Edge 21, Type (0, 1), BuildingBlock: XUDNAN_clean_linker_2, # of connection points: 2
#     Edge 22, Type (0, 1), BuildingBlock: XUDNAN_clean_linker_2, # of connection points: 2
#     Edge 23, Type (0, 1), BuildingBlock: XUDNAN_clean_linker_2, # of connection points: 2
#     Edge 24, Type (0, 1), BuildingBlock: XUDNAN_clean_linker_2, # of connection points: 2
#     Edge 25, Type (0, 1), BuildingBlock: XUDNAN_clean_linker_2, # of connection points: 2
#     Edge 26, Type (0, 1), BuildingBlock: XUDNAN_clean_linker_2, # of connection points: 2
#     Edge 27, Type (0, 1), BuildingBlock: XUDNAN_clean_linker_2, # of connection points: 2
#     Edge 28, Type (0, 1), BuildingBlock: XUDNAN_clean_linker_2, # of connection points: 2
#     Edge 29, Type (0, 1), BuildingBlock: XUDNAN_clean_linker_2, # of connection points: 2
#     Edge 30, Type (0, 1), BuildingBlock: XUDNAN_clean_linker_2, # of connection points: 2
#     Edge 31, Type (0, 1), BuildingBlock: XUDNAN_clean_linker_2, # of connection points: 2
#     Edge 32, Type (0, 1), BuildingBlock: XUDNAN_clean_linker_2, # of connection points: 2
#     Edge 33, Type (0, 1), BuildingBlock: XUDNAN_clean_linker_2, # of connection points: 2
# Relax obj value: 0.027
# Max RMSD: 0.172
# Mean RMSD: 0.148
data_MOF--net-llj--node1-QEWDON_clean_sbu_0--node2-QEWDON_clean_linker_0--edge1-XUDNAN_clean_linker_2
_symmetry_space_group_name_H-M    P1
_symmetry_Int_Tables_number       1
_symmetry_cell_setting            triclinic
loop_
_symmetry_equiv_pos_as_xyz
'x, y, z'
_cell_length_a     41.66461
_cell_length_b     41.684167
_cell_length_c     24.389135
_cell_angle_alpha  91.327749
_cell_angle_beta   91.053055
_cell_angle_gamma 90.185132
loop_
_atom_site_label
_atom_site_type_symbol
_atom_site_fract_x
_atom_site_fract_y
_atom_site_fract_z
_atom_type_partial_charge
Zn0 Zn 0.95865 0.09688 0.95195 0.0
Zn1 Zn 0.94226 0.07082 0.07106 0.0
O2 O 0.97578 0.07011 0.01355 0.0
H3 H 0.99085 0.05288 0.00778 0.0
C4 C 0.88262 0.04881 0.89119 0.0
O5 O 0.88009 0.05886 0.94236 0.0
Zn6 Zn 0.04031 0.93221 0.05524 0.0
Zn7 Zn 0.04826 0.93205 0.92314 0.0
O8 O 0.01894 0.94502 0.98495 0.0
H9 H 0.00066 0.95901 0.98094 0.0
Zn10 Zn 0.89257 0.98737 0.94434 0.0
O11 O 0.93531 0.98633 0.98515 0.0
Zn12 Zn 0.92696 0.95551 0.04437 0.0
H13 H 0.9542 0.9993 0.97977 0.0
Zn14 Zn 0.0553 0.05567 0.97498 0.0
O15 O 0.04426 0.02197 0.0288 0.0
H16 H 0.02729 0.00664 0.02094 0.0
Zn17 Zn 0.05149 0.04482 0.10035 0.0
C18 C 0.07279 0.01077 0.89124 0.0
O19 O 0.07989 0.99479 0.93563 0.0
O20 O 0.91876 0.12277 0.97204 0.0
O21 O 0.9065 0.10251 0.0528 0.0
O22 O 0.09062 0.91223 0.95086 0.0
O23 O 0.08059 0.90581 0.03947 0.0
O24 O 0.86527 0.94587 0.94806 0.0
O25 O 0.89112 0.92484 0.01922 0.0
C26 C 0.99206 0.07729 0.15328 0.0
O27 O 0.09054 0.08549 0.00557 0.0
O28 O 0.08832 0.07769 0.09517 0.0
O29 O 0.02618 0.90653 0.85907 0.0
C30 C 0.90071 0.1216 0.01358 0.0
O31 O 0.99016 0.11325 0.89388 0.0
C32 C 0.97915 0.91494 0.09799 0.0
O33 O 0.88727 0.01915 0.88106 0.0
C34 C 0.09839 0.90168 0.99783 0.0
O35 O 0.06108 0.03875 0.89618 0.0
C36 C 0.91733 0.00999 0.11686 0.0
O37 O 0.96278 0.08387 0.14362 0.0
O38 O 0.0079 0.06385 0.11516 0.0
C39 C 0.86897 0.92346 0.98232 0.0
O40 O 0.00888 0.90845 0.10149 0.0
O41 O 0.9694 0.93342 0.06036 0.0
C42 C 0.06177 0.98204 0.14473 0.0
O43 O 0.91414 0.97968 0.1129 0.0
O44 O 0.9265 0.0252 0.07536 0.0
C45 C 0.10096 0.09113 0.05419 0.0
O46 O 0.06358 0.01196 0.15607 0.0
O47 O 0.05142 0.97333 0.09722 0.0
C48 C 0.00862 0.91885 0.82205 0.0
O49 O 0.00422 0.95005 0.82256 0.0
C50 C 0.01933 0.11822 0.90776 0.0
O51 O 0.02845 0.11375 0.95884 0.0
Zn52 Zn 0.44474 0.59148 0.47433 0.0
Zn53 Zn 0.44341 0.57275 0.60262 0.0
O54 O 0.46552 0.56463 0.53171 0.0
H55 H 0.47834 0.54597 0.52323 0.0
C56 C 0.39218 0.53751 0.41744 0.0
O57 O 0.42321 0.53263 0.42255 0.0
Zn58 Zn 0.53894 0.43265 0.58129 0.0
Zn59 Zn 0.54389 0.41934 0.45298 0.0
O60 O 0.51277 0.43122 0.51212 0.0
H61 H 0.49303 0.44273 0.5056 0.0
Zn62 Zn 0.39102 0.48253 0.48928 0.0
O63 O 0.43169 0.48906 0.53437 0.0
Zn64 Zn 0.4273 0.45927 0.5966 0.0
H65 H 0.45202 0.49508 0.51915 0.0
Zn66 Zn 0.55443 0.54671 0.43654 0.0
O67 O 0.53696 0.52552 0.50413 0.0
H68 H 0.52283 0.50709 0.50416 0.0
Zn69 Zn 0.55211 0.55151 0.56965 0.0
C70 C 0.56907 0.48831 0.37497 0.0
O71 O 0.56939 0.47754 0.42517 0.0
O72 O 0.40711 0.61742 0.50406 0.0
O73 O 0.40592 0.60422 0.59211 0.0
O74 O 0.5878 0.40469 0.4829 0.0
O75 O 0.58042 0.40697 0.57322 0.0
O76 O 0.36506 0.44161 0.50464 0.0
O77 O 0.39022 0.42771 0.58183 0.0
C78 C 0.50532 0.58501 0.65055 0.0
O79 O 0.58648 0.58339 0.45528 0.0
O80 O 0.58286 0.58694 0.54621 0.0
O81 O 0.52427 0.39105 0.39047 0.0
C82 C 0.39484 0.61992 0.55144 0.0
O83 O 0.47436 0.61273 0.4187 0.0
C84 C 0.48237 0.42 0.64056 0.0
O85 O 0.37295 0.51927 0.44207 0.0
C86 C 0.59739 0.39955 0.53175 0.0
O87 O 0.563 0.51778 0.36766 0.0
C88 C 0.42468 0.51436 0.66901 0.0
O89 O 0.47574 0.59045 0.65851 0.0
O90 O 0.51275 0.56947 0.60703 0.0
C91 C 0.36835 0.42301 0.5451 0.0
O92 O 0.51219 0.41381 0.64066 0.0
O93 O 0.47099 0.43849 0.60436 0.0
C94 C 0.57082 0.49257 0.62416 0.0
O95 O 0.42051 0.48415 0.66715 0.0
O96 O 0.42956 0.52856 0.62436 0.0
C97 C 0.59464 0.59639 0.50132 0.0
O98 O 0.57609 0.52248 0.62096 0.0
O99 O 0.5488 0.47963 0.59447 0.0
C100 C 0.50499 0.40234 0.355 0.0
O101 O 0.49804 0.43307 0.35709 0.0
C102 C 0.48898 0.59582 0.38318 0.0
O103 O 0.48515 0.56451 0.38203 0.0
H104 H 0.37408 0.25093 0.07054 0.0
C105 C 0.37814 0.26593 0.03561 0.0
C106 C 0.3944 0.2954 0.04272 0.0
C107 C 0.3682 0.25512 0.98318 0.0
H108 H 0.41143 0.33746 0.00235 0.0
C109 C 0.39914 0.31466 0.99694 0.0
C110 C 0.38917 0.30425 0.9441 0.0
C111 C 0.37401 0.27418 0.93776 0.0
C112 C 0.35291 0.22326 0.97492 0.0
H113 H 0.36704 0.26514 0.89725 0.0
C114 C 0.32498 0.21521 0.00321 0.0
C115 C 0.30909 0.18605 0.99118 0.0
C116 C 0.36542 0.20135 0.93629 0.0
H117 H 0.38702 0.207 0.91434 0.0
C118 C 0.35008 0.17204 0.92542 0.0
H119 H 0.31482 0.23217 0.0324 0.0
C120 C 0.32187 0.16452 0.95227 0.0
H121 H 0.30985 0.14196 0.94247 0.0
H122 H 0.35981 0.15533 0.89549 0.0
H123 H 0.69428 0.36868 0.09254 0.0
C124 C 0.68591 0.37511 0.0519 0.0
C125 C 0.65542 0.38887 0.04444 0.0
C126 C 0.70667 0.37171 0.00782 0.0
H127 H 0.62275 0.41036 0.98621 0.0
C128 C 0.64582 0.39885 0.99184 0.0
C129 C 0.66653 0.3952 0.94713 0.0
C130 C 0.69676 0.38117 0.95566 0.0
C131 C 0.74014 0.36182 0.01683 0.0
H132 H 0.71314 0.37825 0.92189 0.0
C133 C 0.74802 0.32937 0.02258 0.0
C134 C 0.78038 0.3201 0.02577 0.0
C135 C 0.76457 0.38505 0.01606 0.0
H136 H 0.75875 0.41017 0.01141 0.0
C137 C 0.79667 0.37596 0.02062 0.0
H138 H 0.72918 0.31136 0.02218 0.0
C139 C 0.8046 0.34364 0.02501 0.0
H140 H 0.82969 0.33695 0.02767 0.0
H141 H 0.81544 0.39395 0.01994 0.0
H142 H 0.67605 0.67192 0.95007 0.0
C143 C 0.6611 0.66848 0.98533 0.0
C144 C 0.62958 0.65636 0.9786 0.0
C145 C 0.67403 0.67524 0.03781 0.0
H146 H 0.58664 0.64316 0.02164 0.0
C147 C 0.6108 0.65266 0.02557 0.0
C148 C 0.62312 0.66076 0.07811 0.0
C149 C 0.65493 0.67156 0.08386 0.0
C150 C 0.70822 0.68391 0.04529 0.0
H151 H 0.66512 0.67666 0.12438 0.0
C152 C 0.72036 0.71274 0.02509 0.0
C153 C 0.75279 0.72131 0.03457 0.0
C154 C 0.7287 0.66337 0.07418 0.0
H155 H 0.7197 0.64105 0.09002 0.0
C156 C 0.76096 0.67132 0.08249 0.0
H157 H 0.70429 0.72889 0.00392 0.0
C158 C 0.77298 0.70005 0.06292 0.0
H159 H 0.79816 0.70559 0.06989 0.0
H160 H 0.77668 0.65522 0.10442 0.0
H161 H 0.29826 0.67619 0.08972 0.0
C162 C 0.31525 0.66478 0.06249 0.0
C163 C 0.34197 0.64843 0.08409 0.0
C164 C 0.30866 0.66426 0.00599 0.0
H165 H 0.38464 0.62189 0.06323 0.0
C166 C 0.36389 0.63436 0.04734 0.0
C167 C 0.35817 0.63447 0.9902 0.0
C168 C 0.33007 0.64914 0.97024 0.0
C169 C 0.27725 0.67558 0.98514 0.0
H170 H 0.3239 0.64775 0.9269 0.0
C171 C 0.26669 0.70694 0.99685 0.0
C172 C 0.23594 0.71662 0.97957 0.0
C173 C 0.25696 0.65418 0.9555 0.0
H174 H 0.26454 0.62982 0.94645 0.0
C175 C 0.22637 0.66376 0.9386 0.0
H176 H 0.28224 0.72366 0.01947 0.0
C177 C 0.21578 0.69477 0.9508 0.0
H178 H 0.19204 0.70191 0.93703 0.0
H179 H 0.21078 0.64708 0.91615 0.0
H180 H 0.86734 0.77067 0.54783 0.0
C181 C 0.87042 0.78538 0.51222 0.0
C182 C 0.88764 0.81448 0.51688 0.0
C183 C 0.85857 0.7743 0.46107 0.0
H184 H 0.90499 0.85522 0.47299 0.0
C185 C 0.89157 0.83294 0.46985 0.0
C186 C 0.87978 0.82207 0.41827 0.0
C187 C 0.86337 0.79258 0.41447 0.0
C188 C 0.84479 0.74179 0.4544 0.0
H189 H 0.85541 0.78297 0.37482 0.0
C190 C 0.81333 0.73502 0.47068 0.0
C191 C 0.79979 0.70448 0.45964 0.0
C192 C 0.86292 0.71776 0.42844 0.0
H193 H 0.88716 0.72269 0.41552 0.0
C194 C 0.84987 0.6873 0.41863 0.0
H195 H 0.79914 0.75375 0.48992 0.0
C196 C 0.81849 0.68068 0.43384 0.0
H197 H 0.80884 0.65685 0.42563 0.0
H198 H 0.86403 0.66884 0.39873 0.0
H199 H 0.19089 0.88124 0.61223 0.0
C200 C 0.17802 0.87837 0.57336 0.0
C201 C 0.14741 0.89186 0.56664 0.0
C202 C 0.1933 0.8638 0.52838 0.0
H203 H 0.10826 0.89988 0.50987 0.0
C204 C 0.1318 0.88924 0.51543 0.0
C205 C 0.14752 0.87652 0.46969 0.0
C206 C 0.17804 0.86301 0.47649 0.0
C207 C 0.22739 0.85511 0.533 0.0
H208 H 0.19094 0.85431 0.44093 0.0
C209 C 0.23669 0.82356 0.54423 0.0
C210 C 0.26938 0.81543 0.54511 0.0
C211 C 0.25083 0.87853 0.52383 0.0
H212 H 0.24392 0.90295 0.51506 0.0
C213 C 0.2833 0.87049 0.52516 0.0
H214 H 0.21863 0.80536 0.55096 0.0
C215 C 0.29258 0.83903 0.53536 0.0
H216 H 0.31788 0.83307 0.53578 0.0
H217 H 0.30129 0.8886 0.5178 0.0
H218 H 0.1565 0.16184 0.41756 0.0
C219 C 0.15106 0.1595 0.46054 0.0
C220 C 0.12155 0.1463 0.4756 0.0
C221 C 0.17352 0.17049 0.50057 0.0
H222 H 0.09321 0.13201 0.54367 0.0
C223 C 0.11493 0.14405 0.5315 0.0
C224 C 0.13593 0.15681 0.57211 0.0
C225 C 0.16551 0.16975 0.55637 0.0
C226 C 0.2054 0.18219 0.4833 0.0
H227 H 0.18231 0.179 0.5873 0.0
C228 C 0.21873 0.21094 0.50522 0.0
C229 C 0.24815 0.22253 0.48597 0.0
C230 C 0.22232 0.16475 0.44317 0.0
H231 H 0.21287 0.14234 0.42616 0.0
C232 C 0.25168 0.17593 0.4247 0.0
H233 H 0.20573 0.22484 0.53559 0.0
C234 C 0.26447 0.20471 0.44565 0.0
H235 H 0.28732 0.21293 0.43064 0.0
H236 H 0.2645 0.16229 0.39385 0.0
H237 H 0.80229 0.17299 0.56097 0.0
C238 C 0.81665 0.16358 0.52771 0.0
C239 C 0.84661 0.14969 0.53913 0.0
C240 C 0.8036 0.16263 0.47423 0.0
H241 H 0.88793 0.12695 0.50411 0.0
C242 C 0.86429 0.13658 0.49561 0.0
C243 C 0.85105 0.13392 0.44222 0.0
C244 C 0.8207 0.14743 0.43184 0.0
C245 C 0.77052 0.17438 0.46434 0.0
H246 H 0.80967 0.14511 0.39137 0.0
C247 C 0.76124 0.20495 0.48384 0.0
C248 C 0.72933 0.21525 0.47738 0.0
C249 C 0.74763 0.15437 0.4377 0.0
H250 H 0.7541 0.1306 0.42288 0.0
C251 C 0.71592 0.16451 0.43138 0.0
H252 H 0.77877 0.2206 0.50426 0.0
C253 C 0.70673 0.19469 0.45128 0.0
H254 H 0.68206 0.20221 0.44541 0.0
H255 H 0.69838 0.14887 0.41111 0.0
H256 H 0.12947 0.12699 0.97672 0.0
H257 H 0.14007 0.09892 0.14616 0.0
H258 H 0.192 0.1278 0.15288 0.0
H259 H 0.20753 0.11003 0.94347 0.0
H260 H 0.2112 0.14192 0.89527 0.0
H261 H 0.17248 0.12484 0.90798 0.0
H262 H 0.15087 0.18145 0.93346 0.0
H263 H 0.18976 0.19863 0.9212 0.0
H264 H 0.171 0.20519 0.98651 0.0
H265 H 0.24591 0.15494 0.1371 0.0
H266 H 0.29716 0.1744 0.09892 0.0
H267 H 0.25176 0.17988 0.93837 0.0
C268 C 0.14212 0.12757 0.01584 0.0
C269 C 0.13007 0.11146 0.06148 0.0
C270 C 0.14808 0.11217 0.11133 0.0
C271 C 0.17778 0.1283 0.11533 0.0
C272 C 0.18923 0.1433 0.06893 0.0
C273 C 0.17187 0.14289 0.02008 0.0
C274 C 0.19083 0.15692 0.97409 0.0
C275 C 0.1958 0.13194 0.9275 0.0
C276 C 0.17465 0.18736 0.95257 0.0
C277 C 0.22195 0.16472 0.00422 0.0
C278 C 0.2205 0.15734 0.05915 0.0
C279 C 0.24714 0.16111 0.09433 0.0
C280 C 0.27606 0.17215 0.07249 0.0
C281 C 0.27804 0.17859 0.01599 0.0
C282 C 0.25058 0.17528 0.98183 0.0
H283 H 0.88808 0.1716 0.94657 0.0
H284 H 0.85385 0.12485 0.09162 0.0
H285 H 0.81397 0.16806 0.10467 0.0
H286 H 0.88699 0.24795 0.0006 0.0
H287 H 0.87466 0.26711 0.93818 0.0
H288 H 0.89629 0.22992 0.93491 0.0
H289 H 0.85066 0.2041 0.87521 0.0
H290 H 0.82876 0.2413 0.87792 0.0
H291 H 0.81006 0.20476 0.89951 0.0
H292 H 0.78167 0.21962 0.1067 0.0
H293 H 0.76178 0.27548 0.09959 0.0
H294 H 0.81945 0.28829 0.9557 0.0
C295 C 0.8717 0.1699 0.98036 0.0
C296 C 0.87404 0.14478 0.01805 0.0
C297 C 0.85245 0.14385 0.0622 0.0
C298 C 0.82963 0.16821 0.06977 0.0
C299 C 0.82868 0.19318 0.03266 0.0
C300 C 0.84914 0.19404 0.98871 0.0
C301 C 0.84585 0.22492 0.95791 0.0
C302 C 0.87784 0.24356 0.95796 0.0
C303 C 0.83306 0.21837 0.89916 0.0
C304 C 0.82119 0.24191 0.99251 0.0
C305 C 0.81096 0.22304 0.03475 0.0
C306 C 0.78923 0.23443 0.07342 0.0
C307 C 0.77809 0.26607 0.06915 0.0
C308 C 0.78928 0.28592 0.02725 0.0
C309 C 0.81064 0.27347 0.98812 0.0
H310 H 0.86143 0.87844 0.06065 0.0
H311 H 0.82743 0.90447 0.89852 0.0
H312 H 0.79271 0.85612 0.89448 0.0
H313 H 0.86533 0.79444 0.03596 0.0
H314 H 0.85187 0.78438 0.10326 0.0
H315 H 0.87304 0.82145 0.09352 0.0
H316 H 0.82566 0.85327 0.13599 0.0
H317 H 0.80469 0.81611 0.14614 0.0
H318 H 0.78572 0.84753 0.10781 0.0
H319 H 0.76295 0.80348 0.90774 0.0
H320 H 0.74058 0.75173 0.93735 0.0
H321 H 0.79383 0.7619 0.09145 0.0
C322 C 0.84677 0.87405 0.02421 0.0
C323 C 0.84733 0.89517 0.97979 0.0
C324 C 0.82739 0.88866 0.93312 0.0
C325 C 0.80762 0.86125 0.93044 0.0
C326 C 0.80792 0.8408 0.97493 0.0
C327 C 0.82688 0.84705 0.02104 0.0
C328 C 0.82314 0.82138 0.06328 0.0
C329 C 0.85525 0.80442 0.07463 0.0
C330 C 0.80896 0.83541 0.11643 0.0
C331 C 0.79946 0.79934 0.03341 0.0
C332 C 0.7908 0.81093 0.98264 0.0
C333 C 0.76944 0.79429 0.94756 0.0
C334 C 0.75674 0.76501 0.96482 0.0
C335 C 0.76552 0.75266 0.01663 0.0
C336 C 0.78699 0.77035 0.05127 0.0
H337 H 0.10451 0.84617 0.05306 0.0
H338 H 0.15594 0.91088 0.94916 0.0
H339 H 0.20156 0.87305 0.94609 0.0
H340 H 0.17534 0.8104 0.12652 0.0
H341 H 0.15741 0.77097 0.12356 0.0
H342 H 0.1323 0.80606 0.12797 0.0
H343 H 0.10125 0.78687 0.0401 0.0
H344 H 0.1263 0.75196 0.0352 0.0
H345 H 0.12307 0.77861 0.97822 0.0
H346 H 0.23882 0.826 0.94628 0.0
H347 H 0.26219 0.77143 0.94167 0.0
H348 H 0.18404 0.73568 0.038 0.0
C349 C 0.12594 0.85283 0.0315 0.0
C350 C 0.12724 0.88162 0.00243 0.0
C351 C 0.15489 0.88906 0.97238 0.0
C352 C 0.1809 0.86781 0.97063 0.0
C353 C 0.17859 0.8391 -0.00145 0.0
C354 C 0.15167 0.83148 0.0281 0.0
C355 C 0.15289 0.79718 0.04709 0.0
C356 C 0.15459 0.7961 0.11003 0.0
C357 C 0.12419 0.77751 0.02373 0.0
C358 C 0.18413 0.78636 0.02212 0.0
C359 C 0.19909 0.81115 0.99571 0.0
C360 C 0.22754 0.80652 0.96738 0.0
C361 C 0.24066 0.77558 0.965 0.0
C362 C 0.22487 0.74973 0.98971 0.0
C363 C 0.1966 0.75529 0.01929 0.0
H364 H 0.63395 0.61305 0.4179 0.0
H365 H 0.615 0.63404 0.58944 0.0
H366 H 0.66258 0.66963 0.59467 0.0
H367 H 0.71573 0.60546 0.43362 0.0
H368 H 0.72581 0.62311 0.36937 0.0
H369 H 0.68757 0.60373 0.37657 0.0
H370 H 0.65841 0.6556 0.3473 0.0
H371 H 0.69666 0.67515 0.33955 0.0
H372 H 0.66699 0.69289 0.38363 0.0
H373 H 0.71558 0.69857 0.5834 0.0
H374 H 0.76987 0.71651 0.55727 0.0
H375 H 0.75414 0.6751 0.39425 0.0
C376 C 0.63922 0.62577 0.45625 0.0
C377 C 0.62054 0.6209 0.50314 0.0
C378 C 0.62881 0.63751 0.55283 0.0
C379 C 0.65576 0.65785 0.55617 0.0
C380 C 0.67416 0.66139 0.50948 0.0
C381 C 0.66612 0.64585 0.46041 0.0
C382 C 0.69138 0.65103 0.41768 0.0
C383 C 0.70598 0.61893 0.39821 0.0
C384 C 0.67753 0.66979 0.36918 0.0
C385 C 0.71543 0.67103 0.45082 0.0
C386 C 0.70488 0.67732 0.50338 0.0
C387 C 0.72388 0.69412 0.54214 0.0
C388 C 0.75461 0.70427 0.52698 0.0
C389 C 0.76614 0.6971 0.47387 0.0
C390 C 0.74597 0.6808 0.43523 0.0
H391 H 0.36933 0.65998 0.47522 0.0
H392 H 0.3626 0.6347 0.64606 0.0
H393 H 0.32363 0.67858 0.66078 0.0
H394 H 0.37191 0.74145 0.4983 0.0
H395 H 0.34916 0.75168 0.43765 0.0
H396 H 0.37182 0.71509 0.43862 0.0
H397 H 0.32052 0.68235 0.41295 0.0
H398 H 0.29761 0.71895 0.41151 0.0
H399 H 0.28536 0.68666 0.45445 0.0
H400 H 0.28932 0.72876 0.65815 0.0
H401 H 0.26535 0.782 0.63962 0.0
H402 H 0.29768 0.77519 0.47209 0.0
C403 C 0.35916 0.66306 0.51554 0.0
C404 C 0.36881 0.64361 0.55954 0.0
C405 C 0.35526 0.649 0.61173 0.0
C406 C 0.33309 0.67387 0.62037 0.0
C407 C 0.32474 0.69308 0.57627 0.0
C408 C 0.33742 0.68787 0.52487 0.0
C409 C 0.32742 0.71369 0.48559 0.0
C410 C 0.35683 0.73153 0.46381 0.0
C411 C 0.30648 0.69956 0.43833 0.0
C412 C 0.30801 0.73495 0.52334 0.0
C413 C 0.30606 0.72236 0.57518 0.0
C414 C 0.29039 0.73861 0.61756 0.0
C415 C 0.27685 0.7687 0.60679 0.0
C416 C 0.2797 0.78224 0.55449 0.0
C417 C 0.29507 0.765 0.51224 0.0
H418 H 0.34038 0.38882 0.46006 0.0
H419 H 0.34941 0.39276 0.63747 0.0
H420 H 0.31655 0.34334 0.64253 0.0
H421 H 0.25855 0.35757 0.4504 0.0
H422 H 0.26695 0.33199 0.39185 0.0
H423 H 0.28895 0.36894 0.40283 0.0
H424 H 0.34253 0.33754 0.40016 0.0
H425 H 0.32073 0.30054 0.38924 0.0
H426 H 0.34878 0.30478 0.4461 0.0
H427 H 0.28351 0.29253 0.62738 0.0
H428 H 0.25652 0.2427 0.5931 0.0
H429 H 0.27114 0.27166 0.42577 0.0
C430 C 0.33498 0.37958 0.50001 0.0
C431 C 0.34727 0.39459 0.54845 0.0
C432 C 0.34033 0.38142 0.59991 0.0
C433 C 0.32152 0.35353 0.60315 0.0
C434 C 0.31003 0.33908 0.55449 0.0
C435 C 0.31667 0.35159 0.50389 0.0
C436 C 0.30338 0.33041 0.45758 0.0
C437 C 0.27794 0.3483 0.42368 0.0
C438 C 0.33047 0.31756 0.42115 0.0
C439 C 0.2884 0.3039 0.48994 0.0
C440 C 0.29207 0.30948 0.54578 0.0
C441 C 0.28043 0.28798 0.58374 0.0
C442 C 0.26505 0.25985 0.56399 0.0
C443 C 0.26191 0.25337 0.5069 0.0
C444 C 0.27344 0.27593 0.46964 0.0
H445 H 0.60228 0.34209 0.58005 0.0
H446 H 0.65664 0.41273 0.49317 0.0
H447 H 0.70191 0.37471 0.48531 0.0
H448 H 0.6725 0.29853 0.64758 0.0
H449 H 0.6531 0.26027 0.63508 0.0
H450 H 0.62933 0.29563 0.648 0.0
H451 H 0.59786 0.28471 0.55685 0.0
H452 H 0.62172 0.24974 0.5432 0.0
H453 H 0.61951 0.28112 0.49367 0.0
H454 H 0.73706 0.32675 0.47353 0.0
H455 H 0.7577 0.27221 0.45364 0.0
H456 H 0.67832 0.2314 0.54111 0.0
C457 C 0.62445 0.34997 0.56205 0.0
C458 C 0.62667 0.38051 0.53881 0.0
C459 C 0.65509 0.38964 0.51247 0.0
C460 C 0.68083 0.36821 0.50788 0.0
C461 C 0.67748 0.33762 0.52915 0.0
C462 C 0.64994 0.32849 0.55576 0.0
C463 C 0.64982 0.29278 0.56605 0.0
C464 C 0.65129 0.28644 0.62786 0.0
C465 C 0.62051 0.27614 0.53826 0.0
C466 C 0.68075 0.28301 0.53878 0.0
C467 C 0.69687 0.30933 0.51932 0.0
C468 C 0.72495 0.30604 0.48945 0.0
C469 C 0.73651 0.27503 0.47834 0.0
C470 C 0.71958 0.24778 0.49599 0.0
C471 C 0.69173 0.25193 0.52743 0.0
H472 H 0.05602 0.07939 0.18425 0.0
H473 H 0.95999 0.09295 0.246 0.0
H474 H 0.98256 0.11022 0.3358 0.0
H475 H 0.09222 0.04982 0.30955 0.0
H476 H 0.1296 0.07079 0.30072 0.0
H477 H 0.10586 0.05814 0.24156 0.0
H478 H 0.10243 0.1176 0.20721 0.0
H479 H 0.12881 0.12833 0.26422 0.0
H480 H 0.09103 0.14868 0.25508 0.0
H481 H 0.01527 0.13117 0.41501 0.0
H482 H 0.0559 0.15005 0.48238 0.0
H483 H 0.13141 0.11912 0.37237 0.0
C484 C 0.03979 0.08555 0.21678 0.0
C485 C 0.00625 0.08501 0.20792 0.0
C486 C 0.98577 0.09351 0.25164 0.0
C487 C 0.99836 0.10328 0.30289 0.0
C488 C 0.03155 0.10432 0.30984 0.0
C489 C 0.05202 0.09547 0.26827 0.0
C490 C 0.08677 0.0999 0.28613 0.0
C491 C 0.10469 0.06774 0.28437 0.0
C492 C 0.10329 0.1251 0.25112 0.0
C493 C 0.08261 0.11233 0.34438 0.0
C494 C 0.05054 0.11508 0.35684 0.0
C495 C 0.04051 0.12836 0.40639 0.0
C496 C 0.06391 0.13881 0.44461 0.0
C497 C 0.09712 0.13545 0.43367 0.0
C498 C 0.1064 0.12204 0.38253 0.0
H499 H 0.88907 0.06819 0.13872 0.0
H500 H 0.93547 0.98743 0.2158 0.0
H501 H 0.92689 0.01254 0.30697 0.0
H502 H 0.91795 0.13181 0.23654 0.0
H503 H 0.88018 0.15252 0.23296 0.0
H504 H 0.89356 0.12903 0.17483 0.0
H505 H 0.83916 0.09738 0.17652 0.0
H506 H 0.82729 0.1208 0.23563 0.0
H507 H 0.82819 0.07764 0.23839 0.0
H508 H 0.90996 0.04363 0.38868 0.0
H509 H 0.88563 0.07888 0.45785 0.0
H510 H 0.85174 0.14177 0.32935 0.0
C511 C 0.89797 0.05625 0.17484 0.0
C512 C 0.91332 0.02618 0.17052 0.0
C513 C 0.92377 0.01058 0.21851 0.0
C514 C 0.91911 0.02469 0.27033 0.0
C515 C 0.90374 0.05427 0.27338 0.0
C516 C 0.89328 0.06995 0.22708 0.0
C517 C 0.87567 0.10061 0.24234 0.0
C518 C 0.89289 0.13021 0.22035 0.0
C519 C 0.8405 0.099 0.22201 0.0
C520 C 0.87797 0.09964 0.30444 0.0
C521 C 0.89427 0.07268 0.32121 0.0
C522 C 0.89774 0.06522 0.37622 0.0
C523 C 0.88402 0.08572 0.41536 0.0
C524 C 0.86723 0.11375 0.39961 0.0
C525 C 0.86446 0.12075 0.34313 0.0
H526 H 0.99302 0.9087 0.20668 0.0
H527 H 0.91819 0.89217 0.08425 0.0
H528 H 0.88179 0.87311 0.15576 0.0
H529 H 0.97913 0.83737 0.27671 0.0
H530 H 0.9883 0.85418 0.34396 0.0
H531 H 0.00644 0.87088 0.2846 0.0
H532 H 0.98433 0.92688 0.3116 0.0
H533 H 0.9658 0.91041 0.37099 0.0
H534 H 0.94188 0.93191 0.32176 0.0
H535 H 0.85494 0.8532 0.23938 0.0
H536 H 0.84066 0.82963 0.32751 0.0
H537 H 0.93541 0.85414 0.39348 0.0
C538 C 0.96876 0.9015 0.19516 0.0
C539 C 0.95752 0.90342 0.14038 0.0
C540 C 0.92613 0.893 0.12646 0.0
C541 C 0.90564 0.88164 0.16668 0.0
C542 C 0.91723 0.88046 0.22052 0.0
C543 C 0.9482 0.88979 0.23474 0.0
C544 C 0.95575 0.88346 0.29445 0.0
C545 C 0.98407 0.86007 0.30023 0.0
C546 C 0.96232 0.91505 0.32659 0.0
C547 C 0.92444 0.8683 0.3112 0.0
C548 C 0.90235 0.86737 0.26824 0.0
C549 C 0.87201 0.85379 0.27338 0.0
C550 C 0.86423 0.84025 0.32351 0.0
C551 C 0.8869 0.83982 0.3676 0.0
C552 C 0.91722 0.85454 0.36125 0.0
H553 H 0.08084 0.9962 0.24952 0.0
H554 H 0.0664 0.91568 0.1361 0.0
H555 H 0.08662 0.87884 0.20626 0.0
H556 H 0.1544 0.96861 0.30812 0.0
H557 H 0.14531 0.9843 0.37554 0.0
H558 H 0.12901 0.00322 0.31569 0.0
H559 H 0.07145 0.99613 0.35402 0.0
H560 H 0.08798 0.97681 0.41338 0.0
H561 H 0.05782 0.95659 0.37128 0.0
H562 H 0.11155 0.85112 0.29023 0.0
H563 H 0.13504 0.83577 0.38059 0.0
H564 H 0.13228 0.93537 0.43521 0.0
C565 C 0.08167 0.97082 0.23917 0.0
C566 C 0.0719 0.9589 0.18686 0.0
C567 C 0.07352 0.92548 0.17557 0.0
C568 C 0.08512 0.90433 0.21532 0.0
C569 C 0.09502 0.91708 0.26619 0.0
C570 C 0.09321 0.94961 0.27806 0.0
C571 C 0.10565 0.95775 0.33511 0.0
C572 C 0.13534 0.97977 0.3335 0.0
C573 C 0.07914 0.97269 0.37053 0.0
C574 C 0.11458 0.92471 0.35384 0.0
C575 C 0.10862 0.90141 0.31373 0.0
C576 C 0.11603 0.86917 0.32207 0.0
C577 C 0.12943 0.86066 0.37314 0.0
C578 C 0.13484 0.88435 0.41474 0.0
C579 C 0.12769 0.91669 0.40439 0.0
H580 H 0.09761 0.95149 0.86686 0.0
H581 H 0.06429 0.03924 0.79218 0.0
H582 H 0.07863 0.0173 0.70119 0.0
H583 H 0.16479 0.93906 0.784 0.0
H584 H 0.16067 0.89602 0.77894 0.0
H585 H 0.14602 0.91753 0.83819 0.0
H586 H 0.08958 0.89281 0.82164 0.0
H587 H 0.10392 0.87095 0.76246 0.0
H588 H 0.0697 0.89699 0.75589 0.0
H589 H 0.09913 0.98779 0.62019 0.0
H590 H 0.12284 0.95132 0.55162 0.0
H591 H 0.14213 0.88167 0.67768 0.0
C592 C 0.09292 0.96593 0.83136 0.0
C593 C 0.07975 0.99702 0.83657 0.0
C594 C 0.07427 0.01531 0.78913 0.0
C595 C 0.08233 0.00307 0.7373 0.0
C596 C 0.09559 0.97248 0.73374 0.0
C597 C 0.10064 0.95401 0.7793 0.0
C598 C 0.11593 0.92215 0.76411 0.0
C599 C 0.14881 0.9185 0.79302 0.0
C600 C 0.09342 0.89407 0.77677 0.0
C601 C 0.11934 0.92595 0.7029 0.0
C602 C 0.10725 0.95513 0.68644 0.0
C603 C 0.10823 0.96467 0.63232 0.0
C604 C 0.12161 0.94369 0.5937 0.0
C605 C 0.13373 0.91339 0.60922 0.0
C606 C 0.13286 0.90458 0.66471 0.0
H607 H 0.00723 0.14078 0.80493 0.0
H608 H 0.08476 0.11567 0.91657 0.0
H609 H 0.12425 0.12755 0.84558 0.0
H610 H 0.03963 0.10635 0.68639 0.0
H611 H 0.02601 0.13734 0.64126 0.0
H612 H 0.00423 0.12923 0.70244 0.0
H613 H 0.01025 0.1888 0.73406 0.0
H614 H 0.03203 0.19715 0.67282 0.0
H615 H 0.04967 0.2067 0.73926 0.0
H616 H 0.1548 0.13699 0.75849 0.0
H617 H 0.17342 0.14419 0.66374 0.0
H618 H 0.07599 0.16723 0.61247 0.0
C619 C 0.03254 0.13815 0.81471 0.0
C620 C 0.04298 0.12732 0.86639 0.0
C621 C 0.07628 0.12413 0.87748 0.0
C622 C 0.09889 0.13083 0.83736 0.0
C623 C 0.08777 0.14116 0.78659 0.0
C624 C 0.05537 0.14512 0.77542 0.0
C625 C 0.0495 0.15539 0.71711 0.0
C626 C 0.02862 0.1306 0.68493 0.0
C627 C 0.03448 0.18902 0.71576 0.0
C628 C 0.08356 0.15574 0.69678 0.0
C629 C 0.10538 0.14755 0.73731 0.0
C630 C 0.138 0.14399 0.72662 0.0
C631 C 0.1484 0.14831 0.67276 0.0
C632 C 0.1262 0.15613 0.63047 0.0
C633 C 0.09359 0.16083 0.64352 0.0
H634 H 0.89363 0.0364 0.78288 0.0
H635 H 0.8653 0.11238 0.89643 0.0
H636 H 0.85887 0.14926 0.81901 0.0
H637 H 0.93713 0.08762 0.68791 0.0
H638 H 0.92344 0.06437 0.62873 0.0
H639 H 0.92914 0.04531 0.69375 0.0
H640 H 0.87034 0.02466 0.6891 0.0
H641 H 0.86455 0.04342 0.62409 0.0
H642 H 0.83813 0.05293 0.67983 0.0
H643 H 0.85087 0.1762 0.72717 0.0
H644 H 0.841 0.19006 0.63013 0.0
H645 H 0.87385 0.09544 0.57921 0.0
C646 C 0.88645 0.0609 0.7917 0.0
C647 C 0.88004 0.07154 0.8457 0.0
C648 C 0.87057 0.10377 0.85538 0.0
C649 C 0.86692 0.12491 0.81167 0.0
C650 C 0.87311 0.11347 0.75873 0.0
C651 C 0.8828 0.08221 0.74878 0.0
C652 C 0.88595 0.07499 0.68815 0.0
C653 C 0.921 0.06765 0.67381 0.0
C654 C 0.86339 0.04739 0.66921 0.0
C655 C 0.87537 0.10669 0.66525 0.0
C656 C 0.86852 0.12882 0.70639 0.0
C657 C 0.85653 0.15916 0.69464 0.0
C658 C 0.85085 0.16677 0.63945 0.0
C659 C 0.85693 0.14401 0.59683 0.0
C660 C 0.86985 0.11384 0.61037 0.0
H661 H 0.96711 0.93633 0.73883 0.0
H662 H 0.01334 0.85367 0.81094 0.0
H663 H 0.98523 0.81807 0.74373 0.0
H664 H 0.89046 0.89834 0.70929 0.0
H665 H 0.88441 0.91813 0.645 0.0
H666 H 0.90776 0.93743 0.6993 0.0
H667 H 0.95569 0.94317 0.63403 0.0
H668 H 0.93246 0.92408 0.57941 0.0
H669 H 0.97101 0.90804 0.59899 0.0
H670 H 0.95288 0.79138 0.66858 0.0
H671 H 0.92046 0.77549 0.58691 0.0
H672 H 0.89423 0.87511 0.56388 0.0
C673 C 0.97132 0.91075 0.74051 0.0
C674 C 0.99234 0.89781 0.78038 0.0
C675 C 0.99726 0.86419 0.78098 0.0
C676 C 0.98136 0.84371 0.74303 0.0
C677 C 0.96059 0.85719 0.70468 0.0
C678 C 0.95562 0.88991 0.70286 0.0
C679 C 0.93255 0.89817 0.65656 0.0
C680 C 0.90198 0.91395 0.67889 0.0
C681 C 0.94891 0.91963 0.61478 0.0
C682 C 0.92555 0.86498 0.63247 0.0
C683 C 0.94182 0.8417 0.66111 0.0
C684 C 0.9398 0.80934 0.64602 0.0
C685 C 0.92104 0.80052 0.5998 0.0
C686 C 0.90452 0.82398 0.56909 0.0
C687 C 0.9066 0.8566 0.5863 0.0
H688 H 0.49463 0.61442 0.75015 0.0
H689 H 0.57117 0.58088 0.64566 0.0
H690 H 0.61101 0.59613 0.71701 0.0
H691 H 0.53831 0.68394 0.80621 0.0
H692 H 0.52128 0.68059 0.87327 0.0
H693 H 0.49878 0.66701 0.81333 0.0
H694 H 0.49257 0.61087 0.85548 0.0
H695 H 0.51519 0.62423 0.91539 0.0
H696 H 0.52793 0.5893 0.87677 0.0
H697 H 0.64216 0.61173 0.80218 0.0
H698 H 0.66307 0.62975 0.89255 0.0
H699 H 0.56684 0.65863 0.93876 0.0
C700 C 0.51977 0.61042 0.74202 0.0
C701 C 0.52967 0.59577 0.69221 0.0
C702 C 0.56283 0.59124 0.68346 0.0
C703 C 0.58572 0.60008 0.72384 0.0
C704 C 0.5751 0.61396 0.77263 0.0
C705 C 0.54295 0.61952 0.78166 0.0
C706 C 0.53792 0.63505 0.83761 0.0
C707 C 0.52321 0.66864 0.83226 0.0
C708 C 0.51718 0.61358 0.87341 0.0
C709 C 0.57232 0.63692 0.85887 0.0
C710 C 0.59331 0.62448 0.82082 0.0
C711 C 0.62607 0.62214 0.83198 0.0
C712 C 0.63776 0.6328 0.88349 0.0
C713 C 0.61685 0.64617 0.92319 0.0
C714 C 0.58365 0.64838 0.91004 0.0
H715 H 0.40796 0.57679 0.69273 0.0
H716 H 0.44213 0.48944 0.76687 0.0
H717 H 0.43752 0.51471 0.85868 0.0
H718 H 0.44372 0.63536 0.79665 0.0
H719 H 0.40863 0.66045 0.79376 0.0
H720 H 0.42041 0.63756 0.73382 0.0
H721 H 0.36345 0.60981 0.72846 0.0
H722 H 0.35248 0.6346 0.78638 0.0
H723 H 0.34844 0.59158 0.78889 0.0
H724 H 0.41972 0.54491 0.94109 0.0
H725 H 0.39115 0.57819 0.00829 0.0
H726 H 0.37185 0.64845 0.88296 0.0
C727 C 0.41555 0.5635 0.72823 0.0
C728 C 0.42565 0.53135 0.72277 0.0
C729 C 0.43434 0.51418 0.77022 0.0
C730 C 0.43203 0.52839 0.82254 0.0
C731 C 0.42105 0.55983 0.8268 0.0
C732 C 0.41311 0.57729 0.78097 0.0
C733 C 0.39809 0.60908 0.79715 0.0
C734 C 0.41897 0.63729 0.77927 0.0
C735 C 0.36359 0.61143 0.77385 0.0
C736 C 0.39809 0.60639 0.85898 0.0
C737 C 0.41155 0.57785 0.87524 0.0
C738 C 0.4101 0.56787 0.92924 0.0
C739 C 0.39386 0.58719 0.96738 0.0
C740 C 0.37935 0.61641 0.9516 0.0
C741 C 0.38256 0.62639 0.89683 0.0
H742 H 0.49481 0.41328 0.75011 0.0
H743 H 0.42626 0.38916 0.62059 0.0
H744 H 0.39149 0.3627 0.68707 0.0
H745 H 0.49001 0.33799 0.81081 0.0
H746 H 0.49518 0.3526 0.88059 0.0
H747 H 0.51191 0.37467 0.8254 0.0
H748 H 0.48149 0.42551 0.85648 0.0
H749 H 0.46453 0.40391 0.91228 0.0
H750 H 0.43856 0.42389 0.86409 0.0
H751 H 0.36493 0.3383 0.76661 0.0
H752 H 0.35167 0.31019 0.85086 0.0
H753 H 0.44173 0.34314 0.92596 0.0
C754 C 0.47199 0.40323 0.73637 0.0
C755 C 0.46165 0.40538 0.68119 0.0
C756 C 0.4327 0.39044 0.66364 0.0
C757 C 0.41323 0.37486 0.70093 0.0
C758 C 0.42355 0.37388 0.75545 0.0
C759 C 0.45252 0.38712 0.77304 0.0
C760 C 0.45979 0.37926 0.83229 0.0
C761 C 0.49106 0.35995 0.83754 0.0
C762 C 0.46116 0.40997 0.86842 0.0
C763 C 0.43065 0.35901 0.84478 0.0
C764 C 0.40975 0.35688 0.80027 0.0
C765 C 0.38122 0.33951 0.80169 0.0
C766 C 0.37408 0.32333 0.84966 0.0
C767 C 0.39577 0.3239 0.89521 0.0
C768 C 0.42427 0.34241 0.89257 0.0
H769 H 0.55198 0.44896 0.6993 0.0
H770 H 0.63532 0.49619 0.63411 0.0
H771 H 0.66961 0.47195 0.70545 0.0
H772 H 0.5715 0.46162 0.83605 0.0
H773 H 0.55711 0.42356 0.8595 0.0
H774 H 0.54006 0.44047 0.79844 0.0
H775 H 0.55379 0.3882 0.74412 0.0
H776 H 0.57154 0.37136 0.80499 0.0
H777 H 0.59465 0.37413 0.74357 0.0
H778 H 0.69314 0.44962 0.78924 0.0
H779 H 0.70597 0.42778 0.87958 0.0
H780 H 0.60789 0.39329 0.89186 0.0
C781 C 0.57764 0.45288 0.69873 0.0
C782 C 0.59131 0.47368 0.66069 0.0
C783 C 0.62467 0.47991 0.66267 0.0
C784 C 0.64427 0.46625 0.70292 0.0
C785 C 0.63003 0.44654 0.74091 0.0
C786 C 0.59755 0.43956 0.73908 0.0
C787 C 0.58805 0.41995 0.7879 0.0
C788 C 0.56269 0.43745 0.8225 0.0
C789 C 0.57631 0.38642 0.76901 0.0
C790 C 0.62001 0.41821 0.81847 0.0
C791 C 0.64387 0.4334 0.7901 0.0
C792 C 0.67492 0.43691 0.81126 0.0
C793 C 0.68197 0.4243 0.86265 0.0
C794 C 0.65813 0.4082 0.8925 0.0
C795 C 0.62668 0.40525 0.86996 0.0
H796 H 0.57571 0.50373 0.26679 0.0
H797 H 0.58153 0.42403 0.37762 0.0
H798 H 0.59655 0.38805 0.30103 0.0
H799 H 0.54666 0.45701 0.1431 0.0
H800 H 0.57096 0.48017 0.09801 0.0
H801 H 0.5556 0.49843 0.15982 0.0
H802 H 0.61393 0.51453 0.19063 0.0
H803 H 0.62871 0.4965 0.12841 0.0
H804 H 0.64425 0.4839 0.19391 0.0
H805 H 0.61625 0.36194 0.21529 0.0
H806 H 0.64197 0.34825 0.1274 0.0
H807 H 0.62511 0.44503 0.07223 0.0
C808 C 0.57943 0.47858 0.27466 0.0
C809 C 0.57676 0.4666 0.32813 0.0
C810 C 0.58278 0.43369 0.33699 0.0
C811 C 0.5913 0.41301 0.29363 0.0
C812 C 0.59393 0.42561 0.24154 0.0
C813 C 0.58828 0.45766 0.23182 0.0
C814 C 0.59592 0.46577 0.17322 0.0
C815 C 0.56548 0.47595 0.14168 0.0
C816 C 0.62226 0.4917 0.17146 0.0
C817 C 0.60788 0.43356 0.15219 0.0
C818 C 0.60594 0.41059 0.19197 0.0
C819 C 0.61752 0.37959 0.18355 0.0
C820 C 0.63218 0.37206 0.13365 0.0
C821 C 0.63534 0.39551 0.09297 0.0
C822 C 0.62234 0.42641 0.10203 0.0
H823 H 0.50712 0.57174 0.28319 0.0
H824 H 0.5167 0.65514 0.3922 0.0
H825 H 0.55105 0.68139 0.32486 0.0
H826 H 0.58645 0.57154 0.23236 0.0
H827 H 0.57459 0.56027 0.16306 0.0
H828 H 0.55036 0.54838 0.21953 0.0
H829 H 0.50078 0.57504 0.17521 0.0
H830 H 0.52466 0.58727 0.11845 0.0
H831 H 0.50261 0.61674 0.15759 0.0
H832 H 0.5857 0.69768 0.24744 0.0
H833 H 0.61729 0.70371 0.16357 0.0
H834 H 0.58411 0.61021 0.10401 0.0
C835 C 0.51654 0.59549 0.29291 0.0
C836 C 0.5095 0.61138 0.34295 0.0
C837 C 0.52184 0.64259 0.354 0.0
C838 C 0.54135 0.65768 0.31606 0.0
C839 C 0.54783 0.64138 0.26704 0.0
C840 C 0.53561 0.6111 0.25515 0.0
C841 C 0.54596 0.599 0.19924 0.0
C842 C 0.56554 0.56797 0.20385 0.0
C843 C 0.51676 0.59425 0.16032 0.0
C844 C 0.56664 0.62684 0.18217 0.0
C845 C 0.56727 0.65108 0.2218 0.0
C846 C 0.5853 0.67894 0.21598 0.0
C847 C 0.60328 0.68206 0.16842 0.0
C848 C 0.60312 0.65745 0.12734 0.0
C849 C 0.58435 0.6296 0.13434 0.0
H850 H 0.42571 0.57215 0.34313 0.0
H851 H 0.33005 0.55735 0.40533 0.0
H852 H 0.30798 0.59279 0.33465 0.0
H853 H 0.41203 0.65865 0.29975 0.0
H854 H 0.43669 0.65251 0.24046 0.0
H855 H 0.44551 0.63149 0.30264 0.0
H856 H 0.4429 0.57763 0.24769 0.0
H857 H 0.43344 0.59844 0.18586 0.0
H858 H 0.40697 0.56736 0.20867 0.0
H859 H 0.29526 0.62028 0.24881 0.0
H860 H 0.29235 0.63907 0.15479 0.0
H861 H 0.39667 0.64046 0.14942 0.0
C862 C 0.40031 0.57728 0.34315 0.0
C863 C 0.37964 0.56204 0.37988 0.0
C864 C 0.34636 0.56871 0.37762 0.0
C865 C 0.33362 0.589 0.33783 0.0
C866 C 0.35452 0.6028 0.30109 0.0
C867 C 0.38725 0.59764 0.30379 0.0
C868 C 0.40397 0.61269 0.25592 0.0
C869 C 0.42583 0.6405 0.27589 0.0
C870 C 0.4229 0.58751 0.22258 0.0
C871 C 0.37521 0.62498 0.22381 0.0
C872 C 0.34706 0.61966 0.25134 0.0
C873 C 0.31716 0.62562 0.22759 0.0
C874 C 0.31583 0.63664 0.17387 0.0
C875 C 0.34429 0.64189 0.14408 0.0
C876 C 0.37437 0.63679 0.17048 0.0
H877 H 0.46413 0.41848 0.27045 0.0
H878 H 0.51139 0.33724 0.34524 0.0
H879 H 0.48525 0.30077 0.27702 0.0
H880 H 0.38883 0.37827 0.23666 0.0
H881 H 0.38369 0.39801 0.17212 0.0
H882 H 0.40526 0.41785 0.22798 0.0
H883 H 0.4545 0.42512 0.16595 0.0
H884 H 0.43305 0.40548 0.10984 0.0
H885 H 0.47159 0.39051 0.13194 0.0
H886 H 0.4554 0.27328 0.19968 0.0
H887 H 0.42596 0.25684 0.11505 0.0
H888 H 0.39701 0.35566 0.09148 0.0
C889 C 0.46889 0.39302 0.27263 0.0
C890 C 0.48971 0.38071 0.31332 0.0
C891 C 0.4955 0.34724 0.3145 0.0
C892 C 0.48068 0.32629 0.27606 0.0
C893 C 0.46015 0.33917 0.23673 0.0
C894 C 0.45433 0.37174 0.23452 0.0
C895 C 0.4321 0.37944 0.18684 0.0
C896 C 0.4006 0.39426 0.20713 0.0
C897 C 0.44882 0.40143 0.14625 0.0
C898 C 0.42661 0.34612 0.16235 0.0
C899 C 0.44282 0.32324 0.192 0.0
C900 C 0.44232 0.29091 0.17636 0.0
C901 C 0.42528 0.28178 0.12845 0.0
C902 C 0.40899 0.3049 0.0967 0.0
C903 C 0.40931 0.33741 0.11464 0.0
loop_
_geom_bond_atom_site_label_1
_geom_bond_atom_site_label_2
_geom_bond_distance
_geom_bond_site_symmetry_2
_ccdc_geom_bond_type
Zn0 O2 1.933 1_556 S
Zn0 O20 1.985 . S
Zn0 O31 1.955 . S
Zn1 O2 1.911 . S
Zn1 O21 1.970 . S
Zn1 O37 1.945 . S
Zn1 O44 1.981 . S
O2 Zn0 1.933 1_554 S
O2 Zn1 1.911 . S
O2 H3 0.841 1_655 S
H3 O2 0.841 1_455 S
C4 O5 1.246 . S
C4 O33 1.276 1_545 S
O5 C4 1.246 . S
Zn6 O8 1.911 . S
Zn6 O23 1.970 . S
Zn6 O40 1.945 . S
Zn6 O47 1.981 . S
Zn7 O8 1.933 1_556 S
Zn7 O22 1.985 . S
Zn7 O29 1.955 . S
O8 Zn6 1.911 . S
O8 Zn7 1.933 1_554 S
O8 H9 0.841 1_455 S
H9 O8 0.841 1_655 S
Zn10 O11 1.933 1_556 S
Zn10 O24 1.985 . S
Zn10 O33 1.955 . S
O11 Zn10 1.933 1_554 S
O11 Zn12 1.911 . S
O11 H13 0.841 1_565 S
Zn12 O11 1.911 . S
Zn12 O25 1.970 . S
Zn12 O41 1.981 . S
Zn12 O43 1.945 . S
H13 O11 0.841 1_545 S
Zn14 O15 1.933 1_556 S
Zn14 O27 1.985 . S
Zn14 O35 1.955 . S
O15 Zn14 1.933 1_554 S
O15 H16 0.841 1_545 S
O15 Zn17 1.911 . S
H16 O15 0.841 1_565 S
Zn17 O15 1.911 . S
Zn17 O28 1.970 . S
Zn17 O38 1.981 . S
Zn17 O46 1.945 . S
C18 O19 1.246 . S
C18 O35 1.276 1_565 S
O19 C18 1.246 . S
O20 Zn0 1.985 . S
O20 C30 1.245 1_556 S
O21 Zn1 1.970 . S
O21 C30 1.263 . S
O22 Zn7 1.985 . S
O22 C34 1.245 1_556 S
O23 Zn6 1.970 . S
O23 C34 1.263 . S
O24 Zn10 1.985 . S
O24 C39 1.245 1_556 S
O25 Zn12 1.970 . S
O25 C39 1.263 . S
C26 O37 1.262 1_455 S
C26 O38 1.245 . S
O27 Zn14 1.985 . S
O27 C45 1.245 1_556 S
O28 Zn17 1.970 . S
O28 C45 1.263 . S
O29 Zn7 1.955 . S
O29 C48 1.276 1_455 S
C30 O20 1.245 1_554 S
C30 O21 1.263 . S
O31 Zn0 1.955 . S
O31 C50 1.276 1_655 S
C32 O40 1.262 1_655 S
C32 O41 1.245 . S
O33 C4 1.276 1_565 S
O33 Zn10 1.955 . S
C34 O22 1.245 1_554 S
C34 O23 1.263 . S
O35 Zn14 1.955 . S
O35 C18 1.276 1_545 S
C36 O43 1.262 1_545 S
C36 O44 1.245 . S
O37 Zn1 1.945 . S
O37 C26 1.262 1_655 S
O38 Zn17 1.981 . S
O38 C26 1.245 . S
C39 O24 1.245 1_554 S
C39 O25 1.263 . S
O40 Zn6 1.945 . S
O40 C32 1.262 1_455 S
O41 Zn12 1.981 . S
O41 C32 1.245 . S
C42 O46 1.262 1_565 S
C42 O47 1.245 . S
O43 Zn12 1.945 . S
O43 C36 1.262 1_565 S
O44 Zn1 1.981 . S
O44 C36 1.245 . S
C45 O27 1.245 1_554 S
C45 O28 1.263 . S
O46 Zn17 1.945 . S
O46 C42 1.262 1_545 S
O47 Zn6 1.981 . S
O47 C42 1.245 . S
C48 O29 1.276 1_655 S
C48 O49 1.246 . S
O49 C48 1.246 . S
C50 O31 1.276 1_455 S
C50 O51 1.246 . S
O51 C50 1.246 . S
Zn52 O54 1.933 . S
Zn52 O72 1.985 . S
Zn52 O83 1.955 . S
Zn53 O54 1.911 . S
Zn53 O73 1.970 . S
Zn53 O89 1.945 . S
Zn53 O96 1.981 . S
O54 Zn52 1.933 . S
O54 Zn53 1.911 . S
O54 H55 0.841 . S
H55 O54 0.841 . S
C56 O57 1.246 . S
C56 O85 1.276 . S
O57 C56 1.246 . S
Zn58 O60 1.911 . S
Zn58 O75 1.970 . S
Zn58 O92 1.945 . S
Zn58 O99 1.981 . S
Zn59 O60 1.933 . S
Zn59 O74 1.985 . S
Zn59 O81 1.955 . S
O60 Zn58 1.911 . S
O60 Zn59 1.933 . S
O60 H61 0.841 . S
H61 O60 0.841 . S
Zn62 O63 1.933 . S
Zn62 O76 1.985 . S
Zn62 O85 1.955 . S
O63 Zn62 1.933 . S
O63 Zn64 1.911 . S
O63 H65 0.841 . S
Zn64 O63 1.911 . S
Zn64 O77 1.970 . S
Zn64 O93 1.981 . S
Zn64 O95 1.945 . S
H65 O63 0.841 . S
Zn66 O67 1.933 . S
Zn66 O79 1.985 . S
Zn66 O87 1.955 . S
O67 Zn66 1.933 . S
O67 H68 0.841 . S
O67 Zn69 1.911 . S
H68 O67 0.841 . S
Zn69 O67 1.911 . S
Zn69 O80 1.970 . S
Zn69 O90 1.981 . S
Zn69 O98 1.945 . S
C70 O71 1.246 . S
C70 O87 1.276 . S
O71 C70 1.246 . S
O72 Zn52 1.985 . S
O72 C82 1.245 . S
O73 Zn53 1.970 . S
O73 C82 1.263 . S
O74 Zn59 1.985 . S
O74 C86 1.245 . S
O75 Zn58 1.970 . S
O75 C86 1.263 . S
O76 Zn62 1.985 . S
O76 C91 1.245 . S
O77 Zn64 1.970 . S
O77 C91 1.263 . S
C78 O89 1.262 . S
C78 O90 1.245 . S
O79 Zn66 1.985 . S
O79 C97 1.245 . S
O80 Zn69 1.970 . S
O80 C97 1.263 . S
O81 Zn59 1.955 . S
O81 C100 1.276 . S
C82 O72 1.245 . S
C82 O73 1.263 . S
O83 Zn52 1.955 . S
O83 C102 1.276 . S
C84 O92 1.262 . S
C84 O93 1.245 . S
O85 C56 1.276 . S
O85 Zn62 1.955 . S
C86 O74 1.245 . S
C86 O75 1.263 . S
O87 Zn66 1.955 . S
O87 C70 1.276 . S
C88 O95 1.262 . S
C88 O96 1.245 . S
O89 Zn53 1.945 . S
O89 C78 1.262 . S
O90 Zn69 1.981 . S
O90 C78 1.245 . S
C91 O76 1.245 . S
C91 O77 1.263 . S
O92 Zn58 1.945 . S
O92 C84 1.262 . S
O93 Zn64 1.981 . S
O93 C84 1.245 . S
C94 O98 1.262 . S
C94 O99 1.245 . S
O95 Zn64 1.945 . S
O95 C88 1.262 . S
O96 Zn53 1.981 . S
O96 C88 1.245 . S
C97 O79 1.245 . S
C97 O80 1.263 . S
O98 Zn69 1.945 . S
O98 C94 1.262 . S
O99 Zn58 1.981 . S
O99 C94 1.245 . S
C100 O81 1.276 . S
C100 O101 1.246 . S
O101 C100 1.246 . S
C102 O83 1.276 . S
C102 O103 1.246 . S
O103 C102 1.246 . S
H104 C105 0.949 . S
C105 H104 0.949 . S
C105 C106 1.395 . S
C105 C107 1.391 1_554 S
C106 C105 1.395 . S
C106 C109 1.390 . S
C107 C105 1.391 1_556 S
C107 C111 1.387 . S
C107 C112 1.491 . S
H108 C109 0.950 . S
C109 C106 1.390 . S
C109 H108 0.950 . S
C109 C110 1.378 1_554 S
C110 C109 1.378 1_556 S
C110 C111 1.409 . S
C111 C107 1.387 . S
C111 C110 1.409 . S
C111 H113 0.951 . S
C112 C107 1.491 . S
C112 C114 1.382 1_556 S
C112 C116 1.404 . S
H113 C111 0.951 . S
C114 C112 1.382 1_554 S
C114 C115 1.390 . S
C114 H119 0.949 . S
C115 C114 1.390 . S
C115 C120 1.399 1_554 S
C116 C112 1.404 . S
C116 H117 0.950 . S
C116 C118 1.375 . S
H117 C116 0.950 . S
C118 C116 1.375 . S
C118 C120 1.382 . S
C118 H122 0.950 . S
H119 C114 0.949 . S
C120 C115 1.399 1_556 S
C120 C118 1.382 . S
C120 H121 0.952 . S
H121 C120 0.952 . S
H122 C118 0.950 . S
H123 C124 0.949 . S
C124 H123 0.949 . S
C124 C125 1.395 . S
C124 C126 1.391 1_554 S
C125 C124 1.395 . S
C125 C128 1.390 . S
C126 C124 1.391 1_556 S
C126 C130 1.387 . S
C126 C131 1.491 . S
H127 C128 0.950 . S
C128 C125 1.390 . S
C128 H127 0.950 . S
C128 C129 1.378 1_554 S
C129 C128 1.378 1_556 S
C129 C130 1.409 . S
C130 C126 1.387 . S
C130 C129 1.409 . S
C130 H132 0.951 . S
C131 C126 1.491 . S
C131 C133 1.382 1_556 S
C131 C135 1.404 . S
H132 C130 0.951 . S
C133 C131 1.382 1_554 S
C133 C134 1.390 . S
C133 H138 0.949 . S
C134 C133 1.390 . S
C134 C139 1.399 1_554 S
C135 C131 1.404 . S
C135 H136 0.950 . S
C135 C137 1.375 . S
H136 C135 0.950 . S
C137 C135 1.375 . S
C137 C139 1.382 . S
C137 H141 0.950 . S
H138 C133 0.949 . S
C139 C134 1.399 1_556 S
C139 C137 1.382 . S
C139 H140 0.952 . S
H140 C139 0.952 . S
H141 C137 0.950 . S
H142 C143 0.949 . S
C143 H142 0.949 . S
C143 C144 1.395 . S
C143 C145 1.391 1_556 S
C144 C143 1.395 . S
C144 C147 1.390 1_556 S
C145 C143 1.391 1_554 S
C145 C149 1.387 . S
C145 C150 1.491 . S
H146 C147 0.950 . S
C147 C144 1.390 1_554 S
C147 H146 0.950 . S
C147 C148 1.378 . S
C148 C147 1.378 . S
C148 C149 1.409 . S
C149 C145 1.387 . S
C149 C148 1.409 . S
C149 H151 0.951 . S
C150 C145 1.491 . S
C150 C152 1.382 . S
C150 C154 1.404 . S
H151 C149 0.951 . S
C152 C150 1.382 . S
C152 C153 1.390 . S
C152 H157 0.949 1_554 S
C153 C152 1.390 . S
C153 C158 1.399 . S
C154 C150 1.404 . S
C154 H155 0.950 . S
C154 C156 1.375 . S
H155 C154 0.950 . S
C156 C154 1.375 . S
C156 C158 1.382 . S
C156 H160 0.950 . S
H157 C152 0.949 1_556 S
C158 C153 1.399 . S
C158 C156 1.382 . S
C158 H159 0.952 . S
H159 C158 0.952 . S
H160 C156 0.950 . S
H161 C162 0.949 . S
C162 H161 0.949 . S
C162 C163 1.395 . S
C162 C164 1.391 1_554 S
C163 C162 1.395 . S
C163 C166 1.390 . S
C164 C162 1.391 1_556 S
C164 C168 1.387 . S
C164 C169 1.491 . S
H165 C166 0.950 . S
C166 C163 1.390 . S
C166 H165 0.950 . S
C166 C167 1.378 1_554 S
C167 C166 1.378 1_556 S
C167 C168 1.409 . S
C168 C164 1.387 . S
C168 C167 1.409 . S
C168 H170 0.951 . S
C169 C164 1.491 . S
C169 C171 1.382 1_556 S
C169 C173 1.404 . S
H170 C168 0.951 . S
C171 C169 1.382 1_554 S
C171 C172 1.390 . S
C171 H176 0.949 . S
C172 C171 1.390 . S
C172 C177 1.399 1_554 S
C173 C169 1.404 . S
C173 H174 0.950 . S
C173 C175 1.375 . S
H174 C173 0.950 . S
C175 C173 1.375 . S
C175 C177 1.382 . S
C175 H179 0.950 . S
H176 C171 0.949 . S
C177 C172 1.399 1_556 S
C177 C175 1.382 . S
C177 H178 0.952 . S
H178 C177 0.952 . S
H179 C175 0.950 . S
H180 C181 0.949 . S
C181 H180 0.949 . S
C181 C182 1.395 . S
C181 C183 1.391 . S
C182 C181 1.395 . S
C182 C185 1.390 . S
C183 C181 1.391 . S
C183 C187 1.387 . S
C183 C188 1.491 . S
H184 C185 0.950 . S
C185 C182 1.390 . S
C185 H184 0.950 . S
C185 C186 1.378 . S
C186 C185 1.378 . S
C186 C187 1.409 . S
C187 C183 1.387 . S
C187 C186 1.409 . S
C187 H189 0.951 . S
C188 C183 1.491 . S
C188 C190 1.382 . S
C188 C192 1.404 . S
H189 C187 0.951 . S
C190 C188 1.382 . S
C190 C191 1.390 . S
C190 H195 0.949 . S
C191 C190 1.390 . S
C191 C196 1.399 . S
C192 C188 1.404 . S
C192 H193 0.950 . S
C192 C194 1.375 . S
H193 C192 0.950 . S
C194 C192 1.375 . S
C194 C196 1.382 . S
C194 H198 0.950 . S
H195 C190 0.949 . S
C196 C191 1.399 . S
C196 C194 1.382 . S
C196 H197 0.952 . S
H197 C196 0.952 . S
H198 C194 0.950 . S
H199 C200 0.949 . S
C200 H199 0.949 . S
C200 C201 1.395 . S
C200 C202 1.391 . S
C201 C200 1.395 . S
C201 C204 1.390 . S
C202 C200 1.391 . S
C202 C206 1.387 . S
C202 C207 1.491 . S
H203 C204 0.950 . S
C204 C201 1.390 . S
C204 H203 0.950 . S
C204 C205 1.378 . S
C205 C204 1.378 . S
C205 C206 1.409 . S
C206 C202 1.387 . S
C206 C205 1.409 . S
C206 H208 0.951 . S
C207 C202 1.491 . S
C207 C209 1.382 . S
C207 C211 1.404 . S
H208 C206 0.951 . S
C209 C207 1.382 . S
C209 C210 1.390 . S
C209 H214 0.949 . S
C210 C209 1.390 . S
C210 C215 1.399 . S
C211 C207 1.404 . S
C211 H212 0.950 . S
C211 C213 1.375 . S
H212 C211 0.950 . S
C213 C211 1.375 . S
C213 C215 1.382 . S
C213 H217 0.950 . S
H214 C209 0.949 . S
C215 C210 1.399 . S
C215 C213 1.382 . S
C215 H216 0.952 . S
H216 C215 0.952 . S
H217 C213 0.950 . S
H218 C219 0.949 . S
C219 H218 0.949 . S
C219 C220 1.395 . S
C219 C221 1.391 . S
C220 C219 1.395 . S
C220 C223 1.390 . S
C221 C219 1.391 . S
C221 C225 1.387 . S
C221 C226 1.491 . S
H222 C223 0.950 . S
C223 C220 1.390 . S
C223 H222 0.950 . S
C223 C224 1.378 . S
C224 C223 1.378 . S
C224 C225 1.409 . S
C225 C221 1.387 . S
C225 C224 1.409 . S
C225 H227 0.951 . S
C226 C221 1.491 . S
C226 C228 1.382 . S
C226 C230 1.404 . S
H227 C225 0.951 . S
C228 C226 1.382 . S
C228 C229 1.390 . S
C228 H233 0.949 . S
C229 C228 1.390 . S
C229 C234 1.399 . S
C230 C226 1.404 . S
C230 H231 0.950 . S
C230 C232 1.375 . S
H231 C230 0.950 . S
C232 C230 1.375 . S
C232 C234 1.382 . S
C232 H236 0.950 . S
H233 C228 0.949 . S
C234 C229 1.399 . S
C234 C232 1.382 . S
C234 H235 0.952 . S
H235 C234 0.952 . S
H236 C232 0.950 . S
H237 C238 0.949 . S
C238 H237 0.949 . S
C238 C239 1.395 . S
C238 C240 1.391 . S
C239 C238 1.395 . S
C239 C242 1.390 . S
C240 C238 1.391 . S
C240 C244 1.387 . S
C240 C245 1.491 . S
H241 C242 0.950 . S
C242 C239 1.390 . S
C242 H241 0.950 . S
C242 C243 1.378 . S
C243 C242 1.378 . S
C243 C244 1.409 . S
C244 C240 1.387 . S
C244 C243 1.409 . S
C244 H246 0.951 . S
C245 C240 1.491 . S
C245 C247 1.382 . S
C245 C249 1.404 . S
H246 C244 0.951 . S
C247 C245 1.382 . S
C247 C248 1.390 . S
C247 H252 0.949 . S
C248 C247 1.390 . S
C248 C253 1.399 . S
C249 C245 1.404 . S
C249 H250 0.950 . S
C249 C251 1.375 . S
H250 C249 0.950 . S
C251 C249 1.375 . S
C251 C253 1.382 . S
C251 H255 0.950 . S
H252 C247 0.949 . S
C253 C248 1.399 . S
C253 C251 1.382 . S
C253 H254 0.952 . S
H254 C253 0.952 . S
H255 C251 0.950 . S
H256 C268 0.930 . S
H257 C270 0.930 . S
H258 C271 0.930 . S
H259 C275 0.959 . S
H260 C275 0.959 . S
H261 C275 0.961 . S
H262 C276 0.960 . S
H263 C276 0.961 . S
H264 C276 0.959 . S
H265 C279 0.929 . S
H266 C280 0.931 . S
H267 C282 0.930 . S
C268 H256 0.930 . S
C268 C269 1.399 1_556 S
C268 C273 1.399 . S
C269 C268 1.399 1_554 S
C269 C270 1.376 . S
C270 H257 0.930 . S
C270 C269 1.376 . S
C270 C271 1.388 . S
C271 H258 0.930 . S
C271 C270 1.388 . S
C271 C272 1.390 . S
C272 C271 1.390 . S
C272 C273 1.394 1_554 S
C272 C278 1.465 . S
C273 C268 1.399 . S
C273 C272 1.394 1_556 S
C273 C274 1.516 . S
C274 C273 1.516 . S
C274 C275 1.502 . S
C274 C276 1.561 . S
C274 C277 1.526 . S
C275 H259 0.959 . S
C275 H260 0.959 . S
C275 H261 0.961 . S
C275 C274 1.502 . S
C276 H262 0.960 . S
C276 H263 0.961 . S
C276 H264 0.959 . S
C276 C274 1.561 . S
C277 C274 1.526 . S
C277 C278 1.396 1_556 S
C277 C282 1.390 . S
C278 C272 1.465 . S
C278 C277 1.396 1_554 S
C278 C279 1.399 . S
C279 H265 0.929 . S
C279 C278 1.399 . S
C279 C280 1.385 . S
C280 H266 0.931 . S
C280 C279 1.385 . S
C280 C281 1.389 . S
C281 C280 1.389 . S
C281 C282 1.387 1_554 S
C282 H267 0.930 . S
C282 C277 1.390 . S
C282 C281 1.387 1_556 S
H283 C295 0.930 . S
H284 C297 0.930 . S
H285 C298 0.930 . S
H286 C302 0.959 . S
H287 C302 0.959 . S
H288 C302 0.961 . S
H289 C303 0.960 . S
H290 C303 0.961 . S
H291 C303 0.959 . S
H292 C306 0.929 . S
H293 C307 0.931 . S
H294 C309 0.930 . S
C295 H283 0.930 . S
C295 C296 1.399 1_556 S
C295 C300 1.399 . S
C296 C295 1.399 1_554 S
C296 C297 1.376 . S
C297 H284 0.930 . S
C297 C296 1.376 . S
C297 C298 1.388 . S
C298 H285 0.930 . S
C298 C297 1.388 . S
C298 C299 1.390 . S
C299 C298 1.390 . S
C299 C300 1.394 1_554 S
C299 C305 1.465 . S
C300 C295 1.399 . S
C300 C299 1.394 1_556 S
C300 C301 1.516 . S
C301 C300 1.516 . S
C301 C302 1.502 . S
C301 C303 1.561 . S
C301 C304 1.526 . S
C302 H286 0.959 . S
C302 H287 0.959 . S
C302 H288 0.961 . S
C302 C301 1.502 . S
C303 H289 0.960 . S
C303 H290 0.961 . S
C303 H291 0.959 . S
C303 C301 1.561 . S
C304 C301 1.526 . S
C304 C305 1.396 1_556 S
C304 C309 1.390 . S
C305 C299 1.465 . S
C305 C304 1.396 1_554 S
C305 C306 1.399 . S
C306 H292 0.929 . S
C306 C305 1.399 . S
C306 C307 1.385 . S
C307 H293 0.931 . S
C307 C306 1.385 . S
C307 C308 1.389 . S
C308 C307 1.389 . S
C308 C309 1.387 1_554 S
C309 H294 0.930 . S
C309 C304 1.390 . S
C309 C308 1.387 1_556 S
H310 C322 0.930 . S
H311 C324 0.930 . S
H312 C325 0.930 . S
H313 C329 0.959 . S
H314 C329 0.959 . S
H315 C329 0.961 . S
H316 C330 0.960 . S
H317 C330 0.961 . S
H318 C330 0.959 . S
H319 C333 0.929 . S
H320 C334 0.931 . S
H321 C336 0.930 . S
C322 H310 0.930 . S
C322 C323 1.399 . S
C322 C327 1.399 . S
C323 C322 1.399 . S
C323 C324 1.376 1_554 S
C324 H311 0.930 . S
C324 C323 1.376 1_556 S
C324 C325 1.388 . S
C325 H312 0.930 . S
C325 C324 1.388 . S
C325 C326 1.390 . S
C326 C325 1.390 . S
C326 C327 1.394 1_556 S
C326 C332 1.465 . S
C327 C322 1.399 . S
C327 C326 1.394 1_554 S
C327 C328 1.516 . S
C328 C327 1.516 . S
C328 C329 1.502 . S
C328 C330 1.561 . S
C328 C331 1.526 . S
C329 H313 0.959 . S
C329 H314 0.959 . S
C329 H315 0.961 . S
C329 C328 1.502 . S
C330 H316 0.960 . S
C330 H317 0.961 . S
C330 H318 0.959 . S
C330 C328 1.561 . S
C331 C328 1.526 . S
C331 C332 1.396 1_554 S
C331 C336 1.390 . S
C332 C326 1.465 . S
C332 C331 1.396 1_556 S
C332 C333 1.399 . S
C333 H319 0.929 . S
C333 C332 1.399 . S
C333 C334 1.385 . S
C334 H320 0.931 . S
C334 C333 1.385 . S
C334 C335 1.389 . S
C335 C334 1.389 . S
C335 C336 1.387 1_556 S
C336 H321 0.930 . S
C336 C331 1.390 . S
C336 C335 1.387 1_554 S
H337 C349 0.930 . S
H338 C351 0.930 . S
H339 C352 0.930 . S
H340 C356 0.959 . S
H341 C356 0.959 . S
H342 C356 0.961 . S
H343 C357 0.960 . S
H344 C357 0.961 . S
H345 C357 0.959 . S
H346 C360 0.929 . S
H347 C361 0.931 . S
H348 C363 0.930 . S
C349 H337 0.930 . S
C349 C350 1.399 . S
C349 C354 1.399 . S
C350 C349 1.399 . S
C350 C351 1.376 1_554 S
C351 H338 0.930 . S
C351 C350 1.376 1_556 S
C351 C352 1.388 . S
C352 H339 0.930 . S
C352 C351 1.388 . S
C352 C353 1.390 . S
C353 C352 1.390 . S
C353 C354 1.394 1_556 S
C353 C359 1.465 . S
C354 C349 1.399 . S
C354 C353 1.394 1_554 S
C354 C355 1.516 . S
C355 C354 1.516 . S
C355 C356 1.502 . S
C355 C357 1.561 . S
C355 C358 1.526 . S
C356 H340 0.959 . S
C356 H341 0.959 . S
C356 H342 0.961 . S
C356 C355 1.502 . S
C357 H343 0.960 . S
C357 H344 0.961 . S
C357 H345 0.959 . S
C357 C355 1.561 . S
C358 C355 1.526 . S
C358 C359 1.396 1_554 S
C358 C363 1.390 . S
C359 C353 1.465 . S
C359 C358 1.396 1_556 S
C359 C360 1.399 . S
C360 H346 0.929 . S
C360 C359 1.399 . S
C360 C361 1.385 . S
C361 H347 0.931 . S
C361 C360 1.385 . S
C361 C362 1.389 1_556 S
C362 C361 1.389 1_554 S
C362 C363 1.387 . S
C363 H348 0.930 . S
C363 C358 1.390 . S
C363 C362 1.387 . S
H364 C376 0.930 . S
H365 C378 0.930 . S
H366 C379 0.930 . S
H367 C383 0.959 . S
H368 C383 0.959 . S
H369 C383 0.961 . S
H370 C384 0.960 . S
H371 C384 0.961 . S
H372 C384 0.959 . S
H373 C387 0.929 . S
H374 C388 0.931 . S
H375 C390 0.930 . S
C376 H364 0.930 . S
C376 C377 1.399 . S
C376 C381 1.399 . S
C377 C376 1.399 . S
C377 C378 1.376 . S
C378 H365 0.930 . S
C378 C377 1.376 . S
C378 C379 1.388 . S
C379 H366 0.930 . S
C379 C378 1.388 . S
C379 C380 1.390 . S
C380 C379 1.390 . S
C380 C381 1.394 . S
C380 C386 1.465 . S
C381 C376 1.399 . S
C381 C380 1.394 . S
C381 C382 1.516 . S
C382 C381 1.516 . S
C382 C383 1.502 . S
C382 C384 1.561 . S
C382 C385 1.526 . S
C383 H367 0.959 . S
C383 H368 0.959 . S
C383 H369 0.961 . S
C383 C382 1.502 . S
C384 H370 0.960 . S
C384 H371 0.961 . S
C384 H372 0.959 . S
C384 C382 1.561 . S
C385 C382 1.526 . S
C385 C386 1.396 . S
C385 C390 1.390 . S
C386 C380 1.465 . S
C386 C385 1.396 . S
C386 C387 1.399 . S
C387 H373 0.929 . S
C387 C386 1.399 . S
C387 C388 1.385 . S
C388 H374 0.931 . S
C388 C387 1.385 . S
C388 C389 1.389 . S
C389 C388 1.389 . S
C389 C390 1.387 . S
C390 H375 0.930 . S
C390 C385 1.390 . S
C390 C389 1.387 . S
H391 C403 0.930 . S
H392 C405 0.930 . S
H393 C406 0.930 . S
H394 C410 0.959 . S
H395 C410 0.959 . S
H396 C410 0.961 . S
H397 C411 0.960 . S
H398 C411 0.961 . S
H399 C411 0.959 . S
H400 C414 0.929 . S
H401 C415 0.931 . S
H402 C417 0.930 . S
C403 H391 0.930 . S
C403 C404 1.399 . S
C403 C408 1.399 . S
C404 C403 1.399 . S
C404 C405 1.376 . S
C405 H392 0.930 . S
C405 C404 1.376 . S
C405 C406 1.388 . S
C406 H393 0.930 . S
C406 C405 1.388 . S
C406 C407 1.390 . S
C407 C406 1.390 . S
C407 C408 1.394 . S
C407 C413 1.465 . S
C408 C403 1.399 . S
C408 C407 1.394 . S
C408 C409 1.516 . S
C409 C408 1.516 . S
C409 C410 1.502 . S
C409 C411 1.561 . S
C409 C412 1.526 . S
C410 H394 0.959 . S
C410 H395 0.959 . S
C410 H396 0.961 . S
C410 C409 1.502 . S
C411 H397 0.960 . S
C411 H398 0.961 . S
C411 H399 0.959 . S
C411 C409 1.561 . S
C412 C409 1.526 . S
C412 C413 1.396 . S
C412 C417 1.390 . S
C413 C407 1.465 . S
C413 C412 1.396 . S
C413 C414 1.399 . S
C414 H400 0.929 . S
C414 C413 1.399 . S
C414 C415 1.385 . S
C415 H401 0.931 . S
C415 C414 1.385 . S
C415 C416 1.389 . S
C416 C415 1.389 . S
C416 C417 1.387 . S
C417 H402 0.930 . S
C417 C412 1.390 . S
C417 C416 1.387 . S
H418 C430 0.930 . S
H419 C432 0.930 . S
H420 C433 0.930 . S
H421 C437 0.959 . S
H422 C437 0.959 . S
H423 C437 0.961 . S
H424 C438 0.960 . S
H425 C438 0.961 . S
H426 C438 0.959 . S
H427 C441 0.929 . S
H428 C442 0.931 . S
H429 C444 0.930 . S
C430 H418 0.930 . S
C430 C431 1.399 . S
C430 C435 1.399 . S
C431 C430 1.399 . S
C431 C432 1.376 . S
C432 H419 0.930 . S
C432 C431 1.376 . S
C432 C433 1.388 . S
C433 H420 0.930 . S
C433 C432 1.388 . S
C433 C434 1.390 . S
C434 C433 1.390 . S
C434 C435 1.394 . S
C434 C440 1.465 . S
C435 C430 1.399 . S
C435 C434 1.394 . S
C435 C436 1.516 . S
C436 C435 1.516 . S
C436 C437 1.502 . S
C436 C438 1.561 . S
C436 C439 1.526 . S
C437 H421 0.959 . S
C437 H422 0.959 . S
C437 H423 0.961 . S
C437 C436 1.502 . S
C438 H424 0.960 . S
C438 H425 0.961 . S
C438 H426 0.959 . S
C438 C436 1.561 . S
C439 C436 1.526 . S
C439 C440 1.396 . S
C439 C444 1.390 . S
C440 C434 1.465 . S
C440 C439 1.396 . S
C440 C441 1.399 . S
C441 H427 0.929 . S
C441 C440 1.399 . S
C441 C442 1.385 . S
C442 H428 0.931 . S
C442 C441 1.385 . S
C442 C443 1.389 . S
C443 C442 1.389 . S
C443 C444 1.387 . S
C444 H429 0.930 . S
C444 C439 1.390 . S
C444 C443 1.387 . S
H445 C457 0.930 . S
H446 C459 0.930 . S
H447 C460 0.930 . S
H448 C464 0.959 . S
H449 C464 0.959 . S
H450 C464 0.961 . S
H451 C465 0.960 . S
H452 C465 0.961 . S
H453 C465 0.959 . S
H454 C468 0.929 . S
H455 C469 0.931 . S
H456 C471 0.930 . S
C457 H445 0.930 . S
C457 C458 1.399 . S
C457 C462 1.399 . S
C458 C457 1.399 . S
C458 C459 1.376 . S
C459 H446 0.930 . S
C459 C458 1.376 . S
C459 C460 1.388 . S
C460 H447 0.930 . S
C460 C459 1.388 . S
C460 C461 1.390 . S
C461 C460 1.390 . S
C461 C462 1.394 . S
C461 C467 1.465 . S
C462 C457 1.399 . S
C462 C461 1.394 . S
C462 C463 1.516 . S
C463 C462 1.516 . S
C463 C464 1.502 . S
C463 C465 1.561 . S
C463 C466 1.526 . S
C464 H448 0.959 . S
C464 H449 0.959 . S
C464 H450 0.961 . S
C464 C463 1.502 . S
C465 H451 0.960 . S
C465 H452 0.961 . S
C465 H453 0.959 . S
C465 C463 1.561 . S
C466 C463 1.526 . S
C466 C467 1.396 . S
C466 C471 1.390 . S
C467 C461 1.465 . S
C467 C466 1.396 . S
C467 C468 1.399 . S
C468 H454 0.929 . S
C468 C467 1.399 . S
C468 C469 1.385 . S
C469 H455 0.931 . S
C469 C468 1.385 . S
C469 C470 1.389 . S
C470 C469 1.389 . S
C470 C471 1.387 . S
C471 H456 0.930 . S
C471 C466 1.390 . S
C471 C470 1.387 . S
H472 C484 0.930 . S
H473 C486 0.930 1_655 S
H474 C487 0.930 . S
H475 C491 0.959 . S
H476 C491 0.959 . S
H477 C491 0.961 . S
H478 C492 0.960 . S
H479 C492 0.961 . S
H480 C492 0.959 . S
H481 C495 0.929 . S
H482 C496 0.931 . S
H483 C498 0.930 . S
C484 H472 0.930 . S
C484 C485 1.399 . S
C484 C489 1.399 . S
C485 C484 1.399 . S
C485 C486 1.376 . S
C486 H473 0.930 1_455 S
C486 C485 1.376 . S
C486 C487 1.388 . S
C487 H474 0.930 . S
C487 C486 1.388 . S
C487 C488 1.390 . S
C488 C487 1.390 . S
C488 C489 1.394 . S
C488 C494 1.465 . S
C489 C484 1.399 . S
C489 C488 1.394 . S
C489 C490 1.516 . S
C490 C489 1.516 . S
C490 C491 1.502 . S
C490 C492 1.561 . S
C490 C493 1.526 . S
C491 H475 0.959 . S
C491 H476 0.959 . S
C491 H477 0.961 . S
C491 C490 1.502 . S
C492 H478 0.960 . S
C492 H479 0.961 . S
C492 H480 0.959 . S
C492 C490 1.561 . S
C493 C490 1.526 . S
C493 C494 1.396 . S
C493 C498 1.390 . S
C494 C488 1.465 . S
C494 C493 1.396 . S
C494 C495 1.399 . S
C495 H481 0.929 . S
C495 C494 1.399 . S
C495 C496 1.385 . S
C496 H482 0.931 . S
C496 C495 1.385 . S
C496 C497 1.389 . S
C497 C496 1.389 . S
C497 C498 1.387 . S
C498 H483 0.930 . S
C498 C493 1.390 . S
C498 C497 1.387 . S
H499 C511 0.930 . S
H500 C513 0.930 1_565 S
H501 C514 0.930 1_565 S
H502 C518 0.959 . S
H503 C518 0.959 . S
H504 C518 0.961 . S
H505 C519 0.960 . S
H506 C519 0.961 . S
H507 C519 0.959 . S
H508 C522 0.929 . S
H509 C523 0.931 . S
H510 C525 0.930 . S
C511 H499 0.930 . S
C511 C512 1.399 . S
C511 C516 1.399 . S
C512 C511 1.399 . S
C512 C513 1.376 . S
C513 H500 0.930 1_545 S
C513 C512 1.376 . S
C513 C514 1.388 . S
C514 H501 0.930 1_545 S
C514 C513 1.388 . S
C514 C515 1.390 . S
C515 C514 1.390 . S
C515 C516 1.394 . S
C515 C521 1.465 . S
C516 C511 1.399 . S
C516 C515 1.394 . S
C516 C517 1.516 . S
C517 C516 1.516 . S
C517 C518 1.502 . S
C517 C519 1.561 . S
C517 C520 1.526 . S
C518 H502 0.959 . S
C518 H503 0.959 . S
C518 H504 0.961 . S
C518 C517 1.502 . S
C519 H505 0.960 . S
C519 H506 0.961 . S
C519 H507 0.959 . S
C519 C517 1.561 . S
C520 C517 1.526 . S
C520 C521 1.396 . S
C520 C525 1.390 . S
C521 C515 1.465 . S
C521 C520 1.396 . S
C521 C522 1.399 . S
C522 H508 0.929 . S
C522 C521 1.399 . S
C522 C523 1.385 . S
C523 H509 0.931 . S
C523 C522 1.385 . S
C523 C524 1.389 . S
C524 C523 1.389 . S
C524 C525 1.387 . S
C525 H510 0.930 . S
C525 C520 1.390 . S
C525 C524 1.387 . S
H526 C538 0.930 . S
H527 C540 0.930 . S
H528 C541 0.930 . S
H529 C545 0.959 . S
H530 C545 0.959 . S
H531 C545 0.961 . S
H532 C546 0.960 . S
H533 C546 0.961 . S
H534 C546 0.959 . S
H535 C549 0.929 . S
H536 C550 0.931 . S
H537 C552 0.930 . S
C538 H526 0.930 . S
C538 C539 1.399 . S
C538 C543 1.399 . S
C539 C538 1.399 . S
C539 C540 1.376 . S
C540 H527 0.930 . S
C540 C539 1.376 . S
C540 C541 1.388 . S
C541 H528 0.930 . S
C541 C540 1.388 . S
C541 C542 1.390 . S
C542 C541 1.390 . S
C542 C543 1.394 . S
C542 C548 1.465 . S
C543 C538 1.399 . S
C543 C542 1.394 . S
C543 C544 1.516 . S
C544 C543 1.516 . S
C544 C545 1.502 . S
C544 C546 1.561 . S
C544 C547 1.526 . S
C545 H529 0.959 . S
C545 H530 0.959 . S
C545 H531 0.961 . S
C545 C544 1.502 . S
C546 H532 0.960 . S
C546 H533 0.961 . S
C546 H534 0.959 . S
C546 C544 1.561 . S
C547 C544 1.526 . S
C547 C548 1.396 . S
C547 C552 1.390 . S
C548 C542 1.465 . S
C548 C547 1.396 . S
C548 C549 1.399 . S
C549 H535 0.929 . S
C549 C548 1.399 . S
C549 C550 1.385 . S
C550 H536 0.931 . S
C550 C549 1.385 . S
C550 C551 1.389 . S
C551 C550 1.389 . S
C551 C552 1.387 . S
C552 H537 0.930 . S
C552 C547 1.390 . S
C552 C551 1.387 . S
H553 C565 0.930 1_545 S
H554 C567 0.930 . S
H555 C568 0.930 . S
H556 C572 0.961 . S
H557 C572 0.959 . S
H558 C572 0.961 . S
H559 C573 0.960 1_545 S
H560 C573 0.961 1_545 S
H561 C573 0.959 . S
H562 C576 0.929 . S
H563 C577 0.931 . S
H564 C579 0.930 . S
C565 H553 0.930 1_565 S
C565 C566 1.399 . S
C565 C570 1.399 . S
C566 C565 1.399 . S
C566 C567 1.376 . S
C567 H554 0.930 . S
C567 C566 1.376 . S
C567 C568 1.388 . S
C568 H555 0.930 . S
C568 C567 1.388 . S
C568 C569 1.390 . S
C569 C568 1.390 . S
C569 C570 1.394 . S
C569 C575 1.465 . S
C570 C565 1.399 . S
C570 C569 1.394 . S
C570 C571 1.516 . S
C571 C570 1.516 . S
C571 C572 1.502 1_565 S
C571 C573 1.561 . S
C571 C574 1.526 . S
C572 H556 0.961 . S
C572 H557 0.959 . S
C572 H558 0.961 . S
C572 C571 1.502 1_545 S
C573 H559 0.960 1_565 S
C573 H560 0.961 1_565 S
C573 H561 0.959 . S
C573 C571 1.561 . S
C574 C571 1.526 . S
C574 C575 1.396 . S
C574 C579 1.390 . S
C575 C569 1.465 . S
C575 C574 1.396 . S
C575 C576 1.399 . S
C576 H562 0.929 . S
C576 C575 1.399 . S
C576 C577 1.385 . S
C577 H563 0.931 . S
C577 C576 1.385 . S
C577 C578 1.389 . S
C578 C577 1.389 . S
C578 C579 1.387 . S
C579 H564 0.930 . S
C579 C574 1.390 . S
C579 C578 1.387 . S
H580 C592 0.930 . S
H581 C594 0.930 . S
H582 C595 0.930 . S
H583 C599 0.959 . S
H584 C599 0.959 . S
H585 C599 0.961 . S
H586 C600 0.960 . S
H587 C600 0.961 . S
H588 C600 0.959 . S
H589 C603 0.929 . S
H590 C604 0.931 . S
H591 C606 0.930 . S
C592 H580 0.930 . S
C592 C593 1.399 . S
C592 C597 1.399 . S
C593 C592 1.399 . S
C593 C594 1.376 . S
C594 H581 0.930 . S
C594 C593 1.376 . S
C594 C595 1.388 . S
C595 H582 0.930 . S
C595 C594 1.388 . S
C595 C596 1.390 . S
C596 C595 1.390 . S
C596 C597 1.394 . S
C596 C602 1.465 . S
C597 C592 1.399 . S
C597 C596 1.394 . S
C597 C598 1.516 . S
C598 C597 1.516 . S
C598 C599 1.502 . S
C598 C600 1.561 . S
C598 C601 1.526 . S
C599 H583 0.959 . S
C599 H584 0.959 . S
C599 H585 0.961 . S
C599 C598 1.502 . S
C600 H586 0.960 . S
C600 H587 0.961 . S
C600 H588 0.959 . S
C600 C598 1.561 . S
C601 C598 1.526 . S
C601 C602 1.396 . S
C601 C606 1.390 . S
C602 C596 1.465 . S
C602 C601 1.396 . S
C602 C603 1.399 . S
C603 H589 0.929 . S
C603 C602 1.399 . S
C603 C604 1.385 . S
C604 H590 0.931 . S
C604 C603 1.385 . S
C604 C605 1.389 . S
C605 C604 1.389 . S
C605 C606 1.387 . S
C606 H591 0.930 . S
C606 C601 1.390 . S
C606 C605 1.387 . S
H607 C619 0.936 . S
H608 C621 0.930 . S
H609 C622 0.930 . S
H610 C626 0.959 1_455 S
H611 C626 0.959 . S
H612 C626 0.961 . S
H613 C627 0.982 . S
H614 C627 0.974 . S
H615 C627 0.941 1_455 S
H616 C630 0.929 . S
H617 C631 0.931 . S
H618 C633 0.930 . S
C619 H607 0.936 . S
C619 C620 1.399 . S
C619 C624 1.399 . S
C620 C619 1.399 . S
C620 C621 1.376 . S
C621 H608 0.930 . S
C621 C620 1.376 . S
C621 C622 1.388 . S
C622 H609 0.930 . S
C622 C621 1.388 . S
C622 C623 1.390 . S
C623 C622 1.390 . S
C623 C624 1.394 . S
C623 C629 1.465 . S
C624 C619 1.399 . S
C624 C623 1.394 . S
C624 C625 1.516 . S
C625 C624 1.516 . S
C625 C626 1.502 1_455 S
C625 C627 1.544 1_455 S
C625 C628 1.526 . S
C626 H610 0.959 1_655 S
C626 H611 0.959 . S
C626 H612 0.961 . S
C626 C625 1.502 1_655 S
C627 H613 0.982 . S
C627 H614 0.974 . S
C627 H615 0.941 1_655 S
C627 C625 1.544 1_655 S
C628 C625 1.526 . S
C628 C629 1.396 . S
C628 C633 1.390 . S
C629 C623 1.465 . S
C629 C628 1.396 . S
C629 C630 1.399 . S
C630 H616 0.929 . S
C630 C629 1.399 . S
C630 C631 1.385 . S
C631 H617 0.931 . S
C631 C630 1.385 . S
C631 C632 1.389 . S
C632 C631 1.389 . S
C632 C633 1.387 . S
C633 H618 0.930 . S
C633 C628 1.390 . S
C633 C632 1.387 . S
H634 C646 0.930 . S
H635 C648 0.930 . S
H636 C649 0.930 . S
H637 C653 0.959 . S
H638 C653 0.959 . S
H639 C653 0.961 . S
H640 C654 0.960 . S
H641 C654 0.961 . S
H642 C654 0.959 1_545 S
H643 C657 0.929 . S
H644 C658 0.931 . S
H645 C660 0.930 . S
C646 H634 0.930 . S
C646 C647 1.399 . S
C646 C651 1.399 . S
C647 C646 1.399 . S
C647 C648 1.376 . S
C648 H635 0.930 . S
C648 C647 1.376 . S
C648 C649 1.388 . S
C649 H636 0.930 . S
C649 C648 1.388 . S
C649 C650 1.390 . S
C650 C649 1.390 . S
C650 C651 1.394 . S
C650 C656 1.465 . S
C651 C646 1.399 . S
C651 C650 1.394 . S
C651 C652 1.516 . S
C652 C651 1.516 . S
C652 C653 1.502 . S
C652 C654 1.561 1_545 S
C652 C655 1.526 . S
C653 H637 0.959 . S
C653 H638 0.959 . S
C653 H639 0.961 . S
C653 C652 1.502 . S
C654 H640 0.960 . S
C654 H641 0.961 . S
C654 H642 0.959 1_565 S
C654 C652 1.561 1_565 S
C655 C652 1.526 . S
C655 C656 1.396 . S
C655 C660 1.390 . S
C656 C650 1.465 . S
C656 C655 1.396 . S
C656 C657 1.399 . S
C657 H643 0.929 . S
C657 C656 1.399 . S
C657 C658 1.385 . S
C658 H644 0.931 . S
C658 C657 1.385 . S
C658 C659 1.389 . S
C659 C658 1.389 . S
C659 C660 1.387 . S
C660 H645 0.930 . S
C660 C655 1.390 . S
C660 C659 1.387 . S
H661 C673 0.930 . S
H662 C675 0.929 . S
H663 C676 0.930 . S
H664 C680 0.959 . S
H665 C680 0.959 . S
H666 C680 0.961 . S
H667 C681 0.960 . S
H668 C681 0.961 . S
H669 C681 0.959 . S
H670 C684 0.929 . S
H671 C685 0.931 . S
H672 C687 0.930 . S
C673 H661 0.930 . S
C673 C674 1.399 . S
C673 C678 1.399 . S
C674 C673 1.399 . S
C674 C675 1.376 . S
C675 H662 0.929 . S
C675 C674 1.376 . S
C675 C676 1.388 . S
C676 H663 0.930 . S
C676 C675 1.388 . S
C676 C677 1.390 . S
C677 C676 1.390 . S
C677 C678 1.394 . S
C677 C683 1.465 . S
C678 C673 1.399 . S
C678 C677 1.394 . S
C678 C679 1.516 . S
C679 C678 1.516 . S
C679 C680 1.502 . S
C679 C681 1.561 . S
C679 C682 1.526 . S
C680 H664 0.959 . S
C680 H665 0.959 . S
C680 H666 0.961 . S
C680 C679 1.502 . S
C681 H667 0.960 . S
C681 H668 0.961 . S
C681 H669 0.959 . S
C681 C679 1.561 . S
C682 C679 1.526 . S
C682 C683 1.396 . S
C682 C687 1.390 . S
C683 C677 1.465 . S
C683 C682 1.396 . S
C683 C684 1.399 . S
C684 H670 0.929 . S
C684 C683 1.399 . S
C684 C685 1.385 . S
C685 H671 0.931 . S
C685 C684 1.385 . S
C685 C686 1.389 . S
C686 C685 1.389 . S
C686 C687 1.387 . S
C687 H672 0.930 . S
C687 C682 1.390 . S
C687 C686 1.387 . S
H688 C700 0.930 . S
H689 C702 0.930 . S
H690 C703 0.930 . S
H691 C707 0.959 . S
H692 C707 0.959 . S
H693 C707 0.961 . S
H694 C708 0.960 . S
H695 C708 0.961 . S
H696 C708 0.959 . S
H697 C711 0.929 . S
H698 C712 0.931 . S
H699 C714 0.930 . S
C700 H688 0.930 . S
C700 C701 1.399 . S
C700 C705 1.399 . S
C701 C700 1.399 . S
C701 C702 1.376 . S
C702 H689 0.930 . S
C702 C701 1.376 . S
C702 C703 1.388 . S
C703 H690 0.930 . S
C703 C702 1.388 . S
C703 C704 1.390 . S
C704 C703 1.390 . S
C704 C705 1.394 . S
C704 C710 1.465 . S
C705 C700 1.399 . S
C705 C704 1.394 . S
C705 C706 1.516 . S
C706 C705 1.516 . S
C706 C707 1.502 . S
C706 C708 1.561 . S
C706 C709 1.526 . S
C707 H691 0.959 . S
C707 H692 0.959 . S
C707 H693 0.961 . S
C707 C706 1.502 . S
C708 H694 0.960 . S
C708 H695 0.961 . S
C708 H696 0.959 . S
C708 C706 1.561 . S
C709 C706 1.526 . S
C709 C710 1.396 . S
C709 C714 1.390 . S
C710 C704 1.465 . S
C710 C709 1.396 . S
C710 C711 1.399 . S
C711 H697 0.929 . S
C711 C710 1.399 . S
C711 C712 1.385 . S
C712 H698 0.931 . S
C712 C711 1.385 . S
C712 C713 1.389 . S
C713 C712 1.389 . S
C713 C714 1.387 . S
C714 H699 0.930 . S
C714 C709 1.390 . S
C714 C713 1.387 . S
H715 C727 0.930 . S
H716 C729 0.930 . S
H717 C730 0.930 . S
H718 C734 0.959 . S
H719 C734 0.959 . S
H720 C734 0.961 . S
H721 C735 0.960 . S
H722 C735 0.961 . S
H723 C735 0.959 . S
H724 C738 0.929 . S
H725 C739 0.931 . S
H726 C741 0.930 . S
C727 H715 0.930 . S
C727 C728 1.399 . S
C727 C732 1.399 . S
C728 C727 1.399 . S
C728 C729 1.376 . S
C729 H716 0.930 . S
C729 C728 1.376 . S
C729 C730 1.388 . S
C730 H717 0.930 . S
C730 C729 1.388 . S
C730 C731 1.390 . S
C731 C730 1.390 . S
C731 C732 1.394 . S
C731 C737 1.465 . S
C732 C727 1.399 . S
C732 C731 1.394 . S
C732 C733 1.516 . S
C733 C732 1.516 . S
C733 C734 1.502 . S
C733 C735 1.561 . S
C733 C736 1.526 . S
C734 H718 0.959 . S
C734 H719 0.959 . S
C734 H720 0.961 . S
C734 C733 1.502 . S
C735 H721 0.960 . S
C735 H722 0.961 . S
C735 H723 0.959 . S
C735 C733 1.561 . S
C736 C733 1.526 . S
C736 C737 1.396 . S
C736 C741 1.390 . S
C737 C731 1.465 . S
C737 C736 1.396 . S
C737 C738 1.399 . S
C738 H724 0.929 . S
C738 C737 1.399 . S
C738 C739 1.385 . S
C739 H725 0.931 . S
C739 C738 1.385 . S
C739 C740 1.389 . S
C740 C739 1.389 . S
C740 C741 1.387 . S
C741 H726 0.930 . S
C741 C736 1.390 . S
C741 C740 1.387 . S
H742 C754 0.930 . S
H743 C756 0.930 . S
H744 C757 0.930 . S
H745 C761 0.959 . S
H746 C761 0.959 . S
H747 C761 0.961 . S
H748 C762 0.960 . S
H749 C762 0.961 . S
H750 C762 0.959 . S
H751 C765 0.929 . S
H752 C766 0.931 . S
H753 C768 0.930 . S
C754 H742 0.930 . S
C754 C755 1.399 . S
C754 C759 1.399 . S
C755 C754 1.399 . S
C755 C756 1.376 . S
C756 H743 0.930 . S
C756 C755 1.376 . S
C756 C757 1.388 . S
C757 H744 0.930 . S
C757 C756 1.388 . S
C757 C758 1.390 . S
C758 C757 1.390 . S
C758 C759 1.394 . S
C758 C764 1.465 . S
C759 C754 1.399 . S
C759 C758 1.394 . S
C759 C760 1.516 . S
C760 C759 1.516 . S
C760 C761 1.502 . S
C760 C762 1.561 . S
C760 C763 1.526 . S
C761 H745 0.959 . S
C761 H746 0.959 . S
C761 H747 0.961 . S
C761 C760 1.502 . S
C762 H748 0.960 . S
C762 H749 0.961 . S
C762 H750 0.959 . S
C762 C760 1.561 . S
C763 C760 1.526 . S
C763 C764 1.396 . S
C763 C768 1.390 . S
C764 C758 1.465 . S
C764 C763 1.396 . S
C764 C765 1.399 . S
C765 H751 0.929 . S
C765 C764 1.399 . S
C765 C766 1.385 . S
C766 H752 0.931 . S
C766 C765 1.385 . S
C766 C767 1.389 . S
C767 C766 1.389 . S
C767 C768 1.387 . S
C768 H753 0.930 . S
C768 C763 1.390 . S
C768 C767 1.387 . S
H769 C781 0.930 . S
H770 C783 0.930 . S
H771 C784 0.930 . S
H772 C788 0.959 . S
H773 C788 0.959 . S
H774 C788 0.961 . S
H775 C789 0.960 . S
H776 C789 0.961 . S
H777 C789 0.959 . S
H778 C792 0.929 . S
H779 C793 0.931 . S
H780 C795 0.930 . S
C781 H769 0.930 . S
C781 C782 1.399 . S
C781 C786 1.399 . S
C782 C781 1.399 . S
C782 C783 1.376 . S
C783 H770 0.930 . S
C783 C782 1.376 . S
C783 C784 1.388 . S
C784 H771 0.930 . S
C784 C783 1.388 . S
C784 C785 1.390 . S
C785 C784 1.390 . S
C785 C786 1.394 . S
C785 C791 1.465 . S
C786 C781 1.399 . S
C786 C785 1.394 . S
C786 C787 1.516 . S
C787 C786 1.516 . S
C787 C788 1.502 . S
C787 C789 1.561 . S
C787 C790 1.526 . S
C788 H772 0.959 . S
C788 H773 0.959 . S
C788 H774 0.961 . S
C788 C787 1.502 . S
C789 H775 0.960 . S
C789 H776 0.961 . S
C789 H777 0.959 . S
C789 C787 1.561 . S
C790 C787 1.526 . S
C790 C791 1.396 . S
C790 C795 1.390 . S
C791 C785 1.465 . S
C791 C790 1.396 . S
C791 C792 1.399 . S
C792 H778 0.929 . S
C792 C791 1.399 . S
C792 C793 1.385 . S
C793 H779 0.931 . S
C793 C792 1.385 . S
C793 C794 1.389 . S
C794 C793 1.389 . S
C794 C795 1.387 . S
C795 H780 0.930 . S
C795 C790 1.390 . S
C795 C794 1.387 . S
H796 C808 0.930 . S
H797 C810 0.930 . S
H798 C811 0.930 . S
H799 C815 0.959 . S
H800 C815 0.959 . S
H801 C815 0.961 . S
H802 C816 0.960 . S
H803 C816 0.961 . S
H804 C816 0.959 . S
H805 C819 0.929 . S
H806 C820 0.931 . S
H807 C822 0.930 . S
C808 H796 0.930 . S
C808 C809 1.399 . S
C808 C813 1.399 . S
C809 C808 1.399 . S
C809 C810 1.376 . S
C810 H797 0.930 . S
C810 C809 1.376 . S
C810 C811 1.388 . S
C811 H798 0.930 . S
C811 C810 1.388 . S
C811 C812 1.390 . S
C812 C811 1.390 . S
C812 C813 1.394 . S
C812 C818 1.465 . S
C813 C808 1.399 . S
C813 C812 1.394 . S
C813 C814 1.516 . S
C814 C813 1.516 . S
C814 C815 1.502 . S
C814 C816 1.561 . S
C814 C817 1.526 . S
C815 H799 0.959 . S
C815 H800 0.959 . S
C815 H801 0.961 . S
C815 C814 1.502 . S
C816 H802 0.960 . S
C816 H803 0.961 . S
C816 H804 0.959 . S
C816 C814 1.561 . S
C817 C814 1.526 . S
C817 C818 1.396 . S
C817 C822 1.390 . S
C818 C812 1.465 . S
C818 C817 1.396 . S
C818 C819 1.399 . S
C819 H805 0.929 . S
C819 C818 1.399 . S
C819 C820 1.385 . S
C820 H806 0.931 . S
C820 C819 1.385 . S
C820 C821 1.389 . S
C821 C820 1.389 . S
C821 C822 1.387 . S
C822 H807 0.930 . S
C822 C817 1.390 . S
C822 C821 1.387 . S
H823 C835 0.930 . S
H824 C837 0.930 . S
H825 C838 0.930 . S
H826 C842 0.959 . S
H827 C842 0.959 . S
H828 C842 0.961 . S
H829 C843 0.960 . S
H830 C843 0.961 . S
H831 C843 0.959 . S
H832 C846 0.929 . S
H833 C847 0.931 . S
H834 C849 0.930 . S
C835 H823 0.930 . S
C835 C836 1.399 . S
C835 C840 1.399 . S
C836 C835 1.399 . S
C836 C837 1.376 . S
C837 H824 0.930 . S
C837 C836 1.376 . S
C837 C838 1.388 . S
C838 H825 0.930 . S
C838 C837 1.388 . S
C838 C839 1.390 . S
C839 C838 1.390 . S
C839 C840 1.394 . S
C839 C845 1.465 . S
C840 C835 1.399 . S
C840 C839 1.394 . S
C840 C841 1.516 . S
C841 C840 1.516 . S
C841 C842 1.502 . S
C841 C843 1.561 . S
C841 C844 1.526 . S
C842 H826 0.959 . S
C842 H827 0.959 . S
C842 H828 0.961 . S
C842 C841 1.502 . S
C843 H829 0.960 . S
C843 H830 0.961 . S
C843 H831 0.959 . S
C843 C841 1.561 . S
C844 C841 1.526 . S
C844 C845 1.396 . S
C844 C849 1.390 . S
C845 C839 1.465 . S
C845 C844 1.396 . S
C845 C846 1.399 . S
C846 H832 0.929 . S
C846 C845 1.399 . S
C846 C847 1.385 . S
C847 H833 0.931 . S
C847 C846 1.385 . S
C847 C848 1.389 . S
C848 C847 1.389 . S
C848 C849 1.387 . S
C849 H834 0.930 . S
C849 C844 1.390 . S
C849 C848 1.387 . S
H850 C862 0.930 . S
H851 C864 0.930 . S
H852 C865 0.930 . S
H853 C869 0.959 . S
H854 C869 0.959 . S
H855 C869 0.961 . S
H856 C870 0.960 . S
H857 C870 0.961 . S
H858 C870 0.959 . S
H859 C873 0.929 . S
H860 C874 0.931 . S
H861 C876 0.930 . S
C862 H850 0.930 . S
C862 C863 1.399 . S
C862 C867 1.399 . S
C863 C862 1.399 . S
C863 C864 1.376 . S
C864 H851 0.930 . S
C864 C863 1.376 . S
C864 C865 1.388 . S
C865 H852 0.930 . S
C865 C864 1.388 . S
C865 C866 1.390 . S
C866 C865 1.390 . S
C866 C867 1.394 . S
C866 C872 1.465 . S
C867 C862 1.399 . S
C867 C866 1.394 . S
C867 C868 1.516 . S
C868 C867 1.516 . S
C868 C869 1.502 . S
C868 C870 1.561 . S
C868 C871 1.526 . S
C869 H853 0.959 . S
C869 H854 0.959 . S
C869 H855 0.961 . S
C869 C868 1.502 . S
C870 H856 0.960 . S
C870 H857 0.961 . S
C870 H858 0.959 . S
C870 C868 1.561 . S
C871 C868 1.526 . S
C871 C872 1.396 . S
C871 C876 1.390 . S
C872 C866 1.465 . S
C872 C871 1.396 . S
C872 C873 1.399 . S
C873 H859 0.929 . S
C873 C872 1.399 . S
C873 C874 1.385 . S
C874 H860 0.931 . S
C874 C873 1.385 . S
C874 C875 1.389 . S
C875 C874 1.389 . S
C875 C876 1.387 . S
C876 H861 0.930 . S
C876 C871 1.390 . S
C876 C875 1.387 . S
H877 C889 0.930 . S
H878 C891 0.930 . S
H879 C892 0.930 . S
H880 C896 0.959 . S
H881 C896 0.959 . S
H882 C896 0.961 . S
H883 C897 0.960 . S
H884 C897 0.961 . S
H885 C897 0.959 . S
H886 C900 0.929 . S
H887 C901 0.931 . S
H888 C903 0.930 . S
C889 H877 0.930 . S
C889 C890 1.399 . S
C889 C894 1.399 . S
C890 C889 1.399 . S
C890 C891 1.376 . S
C891 H878 0.930 . S
C891 C890 1.376 . S
C891 C892 1.388 . S
C892 H879 0.930 . S
C892 C891 1.388 . S
C892 C893 1.390 . S
C893 C892 1.390 . S
C893 C894 1.394 . S
C893 C899 1.465 . S
C894 C889 1.399 . S
C894 C893 1.394 . S
C894 C895 1.516 . S
C895 C894 1.516 . S
C895 C896 1.502 . S
C895 C897 1.561 . S
C895 C898 1.526 . S
C896 H880 0.959 . S
C896 H881 0.959 . S
C896 H882 0.961 . S
C896 C895 1.502 . S
C897 H883 0.960 . S
C897 H884 0.961 . S
C897 H885 0.959 . S
C897 C895 1.561 . S
C898 C895 1.526 . S
C898 C899 1.396 . S
C898 C903 1.390 . S
C899 C893 1.465 . S
C899 C898 1.396 . S
C899 C900 1.399 . S
C900 H886 0.929 . S
C900 C899 1.399 . S
C900 C901 1.385 . S
C901 H887 0.931 . S
C901 C900 1.385 . S
C901 C902 1.389 . S
C902 C901 1.389 . S
C902 C903 1.387 . S
C903 H888 0.930 . S
C903 C898 1.390 . S
C903 C902 1.387 . S
C269 C45 1.581 . S
C281 C115 1.541 . S
C296 C30 1.578 . S
C308 C134 1.539 . S
C323 C39 1.544 . S
C335 C153 1.454 1_556 S
C362 C172 1.445 . S
C350 C34 1.555 . S
C377 C97 1.575 . S
C389 C191 1.541 . S
C416 C210 1.539 . S
C404 C82 1.580 . S
C443 C229 1.326 . S
C431 C91 1.583 . S
C470 C248 1.445 . S
C458 C86 1.553 . S
C497 C220 1.570 . S
C485 C26 1.545 . S
C524 C243 1.532 . S
C512 C36 1.435 . S
C551 C186 1.601 . S
C539 C32 1.535 . S
C578 C205 1.501 . S
C566 C42 1.500 . S
C593 C18 1.724 . S
C605 C201 1.733 . S
C632 C224 1.658 . S
C620 C50 1.608 . S
C647 C4 1.687 . S
C659 C239 1.763 . S
C674 C48 1.590 . S
C686 C182 1.683 . S
C713 C144 1.589 . S
C701 C78 1.576 . S
C728 C88 1.432 . S
C740 C167 1.533 . S
C767 C110 1.592 . S
C755 C84 1.556 . S
C794 C129 1.533 . S
C782 C94 1.430 . S
C821 C125 1.773 . S
C809 C70 1.676 . S
C848 C148 1.682 . S
C836 C102 1.568 . S
C863 C56 1.704 . S
C875 C163 1.742 . S
C890 C100 1.592 . S
C902 C106 1.681 . S
