# Generated by pormake.
# Topology ptr, (4,4)-cn, num edge types: 1
# Building blocks:
#     Node 0, Type 0, BuildingBlock: KUFVIS_clean_sbu_0, # of connection points: 4
#     Node 1, Type 0, BuildingBlock: KUFVIS_clean_sbu_0, # of connection points: 4
#     Node 2, Type 0, BuildingBlock: KUFVIS_clean_sbu_0, # of connection points: 4
#     Node 3, Type 0, BuildingBlock: KUFVIS_clean_sbu_0, # of connection points: 4
#     Node 4, Type 0, BuildingBlock: KUFVIS_clean_sbu_0, # of connection points: 4
#     Node 5, Type 0, BuildingBlock: KUFVIS_clean_sbu_0, # of connection points: 4
#     Node 6, Type 0, BuildingBlock: KUFVIS_clean_sbu_0, # of connection points: 4
#     Node 7, Type 0, BuildingBlock: KUFVIS_clean_sbu_0, # of connection points: 4
#     Node 8, Type 0, BuildingBlock: KUFVIS_clean_sbu_0, # of connection points: 4
#     Node 9, Type 0, BuildingBlock: KUFVIS_clean_sbu_0, # of connection points: 4
#     Node 10, Type 0, BuildingBlock: KUFVIS_clean_sbu_0, # of connection points: 4
#     Node 11, Type 0, BuildingBlock: KUFVIS_clean_sbu_0, # of connection points: 4
#     Node 12, Type 0, BuildingBlock: KUFVIS_clean_sbu_0, # of connection points: 4
#     Node 13, Type 0, BuildingBlock: KUFVIS_clean_sbu_0, # of connection points: 4
#     Node 14, Type 0, BuildingBlock: KUFVIS_clean_sbu_0, # of connection points: 4
#     Node 15, Type 0, BuildingBlock: KUFVIS_clean_sbu_0, # of connection points: 4
#     Node 16, Type 0, BuildingBlock: KUFVIS_clean_sbu_0, # of connection points: 4
#     Node 17, Type 0, BuildingBlock: KUFVIS_clean_sbu_0, # of connection points: 4
#     Node 18, Type 1, BuildingBlock: GIZVER_clean_linker_0, # of connection points: 4
#     Node 19, Type 1, BuildingBlock: GIZVER_clean_linker_0, # of connection points: 4
#     Node 20, Type 1, BuildingBlock: GIZVER_clean_linker_0, # of connection points: 4
#     Node 21, Type 1, BuildingBlock: GIZVER_clean_linker_0, # of connection points: 4
#     Node 22, Type 1, BuildingBlock: GIZVER_clean_linker_0, # of connection points: 4
#     Node 23, Type 1, BuildingBlock: GIZVER_clean_linker_0, # of connection points: 4
#     Node 24, Type 1, BuildingBlock: GIZVER_clean_linker_0, # of connection points: 4
#     Node 25, Type 1, BuildingBlock: GIZVER_clean_linker_0, # of connection points: 4
#     Node 26, Type 1, BuildingBlock: GIZVER_clean_linker_0, # of connection points: 4
#     Node 27, Type 1, BuildingBlock: GIZVER_clean_linker_0, # of connection points: 4
#     Node 28, Type 1, BuildingBlock: GIZVER_clean_linker_0, # of connection points: 4
#     Node 29, Type 1, BuildingBlock: GIZVER_clean_linker_0, # of connection points: 4
#     Node 30, Type 1, BuildingBlock: GIZVER_clean_linker_0, # of connection points: 4
#     Node 31, Type 1, BuildingBlock: GIZVER_clean_linker_0, # of connection points: 4
#     Node 32, Type 1, BuildingBlock: GIZVER_clean_linker_0, # of connection points: 4
#     Node 33, Type 1, BuildingBlock: GIZVER_clean_linker_0, # of connection points: 4
#     Node 34, Type 1, BuildingBlock: GIZVER_clean_linker_0, # of connection points: 4
#     Node 35, Type 1, BuildingBlock: GIZVER_clean_linker_0, # of connection points: 4
#     Edge 36, Type (0, 1), BuildingBlock: CIFDUS_clean_linker_0, # of connection points: 2
#     Edge 37, Type (0, 1), BuildingBlock: CIFDUS_clean_linker_0, # of connection points: 2
#     Edge 38, Type (0, 1), BuildingBlock: CIFDUS_clean_linker_0, # of connection points: 2
#     Edge 39, Type (0, 1), BuildingBlock: CIFDUS_clean_linker_0, # of connection points: 2
#     Edge 40, Type (0, 1), BuildingBlock: CIFDUS_clean_linker_0, # of connection points: 2
#     Edge 41, Type (0, 1), BuildingBlock: CIFDUS_clean_linker_0, # of connection points: 2
#     Edge 42, Type (0, 1), BuildingBlock: CIFDUS_clean_linker_0, # of connection points: 2
#     Edge 43, Type (0, 1), BuildingBlock: CIFDUS_clean_linker_0, # of connection points: 2
#     Edge 44, Type (0, 1), BuildingBlock: CIFDUS_clean_linker_0, # of connection points: 2
#     Edge 45, Type (0, 1), BuildingBlock: CIFDUS_clean_linker_0, # of connection points: 2
#     Edge 46, Type (0, 1), BuildingBlock: CIFDUS_clean_linker_0, # of connection points: 2
#     Edge 47, Type (0, 1), BuildingBlock: CIFDUS_clean_linker_0, # of connection points: 2
#     Edge 48, Type (0, 1), BuildingBlock: CIFDUS_clean_linker_0, # of connection points: 2
#     Edge 49, Type (0, 1), BuildingBlock: CIFDUS_clean_linker_0, # of connection points: 2
#     Edge 50, Type (0, 1), BuildingBlock: CIFDUS_clean_linker_0, # of connection points: 2
#     Edge 51, Type (0, 1), BuildingBlock: CIFDUS_clean_linker_0, # of connection points: 2
#     Edge 52, Type (0, 1), BuildingBlock: CIFDUS_clean_linker_0, # of connection points: 2
#     Edge 53, Type (0, 1), BuildingBlock: CIFDUS_clean_linker_0, # of connection points: 2
#     Edge 54, Type (0, 1), BuildingBlock: CIFDUS_clean_linker_0, # of connection points: 2
#     Edge 55, Type (0, 1), BuildingBlock: CIFDUS_clean_linker_0, # of connection points: 2
#     Edge 56, Type (0, 1), BuildingBlock: CIFDUS_clean_linker_0, # of connection points: 2
#     Edge 57, Type (0, 1), BuildingBlock: CIFDUS_clean_linker_0, # of connection points: 2
#     Edge 58, Type (0, 1), BuildingBlock: CIFDUS_clean_linker_0, # of connection points: 2
#     Edge 59, Type (0, 1), BuildingBlock: CIFDUS_clean_linker_0, # of connection points: 2
#     Edge 60, Type (0, 1), BuildingBlock: CIFDUS_clean_linker_0, # of connection points: 2
#     Edge 61, Type (0, 1), BuildingBlock: CIFDUS_clean_linker_0, # of connection points: 2
#     Edge 62, Type (0, 1), BuildingBlock: CIFDUS_clean_linker_0, # of connection points: 2
#     Edge 63, Type (0, 1), BuildingBlock: CIFDUS_clean_linker_0, # of connection points: 2
#     Edge 64, Type (0, 1), BuildingBlock: CIFDUS_clean_linker_0, # of connection points: 2
#     Edge 65, Type (0, 1), BuildingBlock: CIFDUS_clean_linker_0, # of connection points: 2
#     Edge 66, Type (0, 1), BuildingBlock: CIFDUS_clean_linker_0, # of connection points: 2
#     Edge 67, Type (0, 1), BuildingBlock: CIFDUS_clean_linker_0, # of connection points: 2
#     Edge 68, Type (0, 1), BuildingBlock: CIFDUS_clean_linker_0, # of connection points: 2
#     Edge 69, Type (0, 1), BuildingBlock: CIFDUS_clean_linker_0, # of connection points: 2
#     Edge 70, Type (0, 1), BuildingBlock: CIFDUS_clean_linker_0, # of connection points: 2
#     Edge 71, Type (0, 1), BuildingBlock: CIFDUS_clean_linker_0, # of connection points: 2
#     Edge 72, Type (0, 1), BuildingBlock: CIFDUS_clean_linker_0, # of connection points: 2
#     Edge 73, Type (0, 1), BuildingBlock: CIFDUS_clean_linker_0, # of connection points: 2
#     Edge 74, Type (0, 1), BuildingBlock: CIFDUS_clean_linker_0, # of connection points: 2
#     Edge 75, Type (0, 1), BuildingBlock: CIFDUS_clean_linker_0, # of connection points: 2
#     Edge 76, Type (0, 1), BuildingBlock: CIFDUS_clean_linker_0, # of connection points: 2
#     Edge 77, Type (0, 1), BuildingBlock: CIFDUS_clean_linker_0, # of connection points: 2
#     Edge 78, Type (0, 1), BuildingBlock: CIFDUS_clean_linker_0, # of connection points: 2
#     Edge 79, Type (0, 1), BuildingBlock: CIFDUS_clean_linker_0, # of connection points: 2
#     Edge 80, Type (0, 1), BuildingBlock: CIFDUS_clean_linker_0, # of connection points: 2
#     Edge 81, Type (0, 1), BuildingBlock: CIFDUS_clean_linker_0, # of connection points: 2
#     Edge 82, Type (0, 1), BuildingBlock: CIFDUS_clean_linker_0, # of connection points: 2
#     Edge 83, Type (0, 1), BuildingBlock: CIFDUS_clean_linker_0, # of connection points: 2
#     Edge 84, Type (0, 1), BuildingBlock: CIFDUS_clean_linker_0, # of connection points: 2
#     Edge 85, Type (0, 1), BuildingBlock: CIFDUS_clean_linker_0, # of connection points: 2
#     Edge 86, Type (0, 1), BuildingBlock: CIFDUS_clean_linker_0, # of connection points: 2
#     Edge 87, Type (0, 1), BuildingBlock: CIFDUS_clean_linker_0, # of connection points: 2
#     Edge 88, Type (0, 1), BuildingBlock: CIFDUS_clean_linker_0, # of connection points: 2
#     Edge 89, Type (0, 1), BuildingBlock: CIFDUS_clean_linker_0, # of connection points: 2
#     Edge 90, Type (0, 1), BuildingBlock: CIFDUS_clean_linker_0, # of connection points: 2
#     Edge 91, Type (0, 1), BuildingBlock: CIFDUS_clean_linker_0, # of connection points: 2
#     Edge 92, Type (0, 1), BuildingBlock: CIFDUS_clean_linker_0, # of connection points: 2
#     Edge 93, Type (0, 1), BuildingBlock: CIFDUS_clean_linker_0, # of connection points: 2
#     Edge 94, Type (0, 1), BuildingBlock: CIFDUS_clean_linker_0, # of connection points: 2
#     Edge 95, Type (0, 1), BuildingBlock: CIFDUS_clean_linker_0, # of connection points: 2
#     Edge 96, Type (0, 1), BuildingBlock: CIFDUS_clean_linker_0, # of connection points: 2
#     Edge 97, Type (0, 1), BuildingBlock: CIFDUS_clean_linker_0, # of connection points: 2
#     Edge 98, Type (0, 1), BuildingBlock: CIFDUS_clean_linker_0, # of connection points: 2
#     Edge 99, Type (0, 1), BuildingBlock: CIFDUS_clean_linker_0, # of connection points: 2
#     Edge 100, Type (0, 1), BuildingBlock: CIFDUS_clean_linker_0, # of connection points: 2
#     Edge 101, Type (0, 1), BuildingBlock: CIFDUS_clean_linker_0, # of connection points: 2
#     Edge 102, Type (0, 1), BuildingBlock: CIFDUS_clean_linker_0, # of connection points: 2
#     Edge 103, Type (0, 1), BuildingBlock: CIFDUS_clean_linker_0, # of connection points: 2
#     Edge 104, Type (0, 1), BuildingBlock: CIFDUS_clean_linker_0, # of connection points: 2
#     Edge 105, Type (0, 1), BuildingBlock: CIFDUS_clean_linker_0, # of connection points: 2
#     Edge 106, Type (0, 1), BuildingBlock: CIFDUS_clean_linker_0, # of connection points: 2
#     Edge 107, Type (0, 1), BuildingBlock: CIFDUS_clean_linker_0, # of connection points: 2
# Relax obj value: 0.051
# Max RMSD: 0.134
# Mean RMSD: 0.084
data_MOF--net-ptr--node1-KUFVIS_clean_sbu_0--node2-GIZVER_clean_linker_0--edge1-CIFDUS_clean_linker_0
_symmetry_space_group_name_H-M    P1
_symmetry_Int_Tables_number       1
_symmetry_cell_setting            triclinic
loop_
_symmetry_equiv_pos_as_xyz
'x, y, z'
_cell_length_a     69.917563
_cell_length_b     69.578675
_cell_length_c     43.152149
_cell_angle_alpha  89.838573
_cell_angle_beta   91.294294
_cell_angle_gamma 119.4859
loop_
_atom_site_label
_atom_site_type_symbol
_atom_site_fract_x
_atom_site_fract_y
_atom_site_fract_z
_atom_type_partial_charge
Mn0 Mn 0.99962 0.37011 -0.00051 0.0
Mn1 Mn 0.04404 0.41635 0.97421 0.0
C2 C 0.99615 0.39013 0.95892 0.0
C3 C 0.97658 0.33176 -0.0027 0.0
C4 C 0.02005 0.41525 0.03243 0.0
O5 O 0.0254 0.36747 0.01833 0.0
O6 O 0.0536 0.3983 -0.00126 0.0
C7 C 0.0597 0.39453 0.93076 0.0
N8 N 0.05304 0.40958 0.93619 0.0
C9 C 0.05824 0.42106 0.88294 0.0
C10 C 0.06529 0.40578 0.87682 0.0
C11 C 0.06595 0.39241 0.90082 0.0
C12 C 0.05213 0.42237 0.91321 0.0
H13 H 0.06018 0.38419 0.94914 0.0
C14 C 0.04591 0.38058 0.0146 0.0
O15 O 0.97718 0.34316 0.02145 0.0
O16 O 0.98972 0.34248 0.97509 0.0
N17 N 0.03764 0.43569 0.95002 0.0
C18 C 0.03027 0.44947 0.95972 0.0
C19 C 0.02869 0.46402 0.93854 0.0
C20 C 0.03495 0.46446 0.90773 0.0
C21 C 0.04288 0.45043 0.89843 0.0
C22 C 0.04427 0.43642 0.92064 0.0
H23 H 0.02559 0.44933 0.98343 0.0
O24 O 0.97908 0.37675 0.97446 0.0
O25 O 0.01458 0.3911 0.96719 0.0
O26 O 1.00534 0.39486 0.03059 0.0
O27 O 0.03533 0.42471 0.01284 0.0
C28 C 0.04925 0.44963 0.86792 0.0
C29 C 0.0568 0.43487 0.86014 0.0
H30 H 0.07011 0.40409 0.85375 0.0
H31 H 0.07127 0.38051 0.89624 0.0
H32 H 0.02261 0.47484 0.94592 0.0
H33 H 0.03349 0.47554 0.89138 0.0
H34 H 0.04815 0.46012 0.85018 0.0
H35 H 0.06139 0.43422 0.83652 0.0
Mn36 Mn 0.62359 0.63351 0.01742 0.0
Mn37 Mn 0.62678 0.58693 0.02877 0.0
C38 C 0.59885 0.60595 0.04876 0.0
C39 C 0.63249 0.66954 0.03006 0.0
C40 C 0.6066 0.59515 0.97108 0.0
O41 O 0.65417 0.64214 0.00239 0.0
O42 O 0.65496 0.61062 0.01221 0.0
C43 C 0.66038 0.60316 0.07956 0.0
N44 N 0.64003 0.58815 0.06846 0.0
C45 C 0.6323 0.56681 0.11511 0.0
C46 C 0.65324 0.58195 0.12696 0.0
C47 C 0.6673 0.60025 0.10915 0.0
C48 C 0.62631 0.57057 0.08548 0.0
H49 H 0.67124 0.61722 0.06592 0.0
C50 C 0.66378 0.63054 0.0026 0.0
O51 O 0.62584 0.6617 0.00227 0.0
O52 O 0.63517 0.65697 0.04995 0.0
N53 N 0.60093 0.56253 0.04492 0.0
C54 C 0.58074 0.55036 0.03102 0.0
C55 C 0.56432 0.53207 0.04647 0.0
C56 C 0.56892 0.52631 0.07581 0.0
C57 C 0.58992 0.53889 0.08945 0.0
C58 C 0.60561 0.55695 0.07297 0.0
H59 H 0.57714 0.55467 0.00841 0.0
O60 O 0.59415 0.62022 0.03653 0.0
O61 O 0.61811 0.60841 0.04281 0.0
O62 O 0.61002 0.61419 0.97915 0.0
O63 O 0.61242 0.58359 0.98766 0.0
C64 C 0.59576 0.53448 0.11901 0.0
C65 C 0.61695 0.54841 0.1318 0.0
H66 H 0.65861 0.57981 0.14981 0.0
H67 H 0.68345 0.61208 0.1182 0.0
H68 H 0.54816 0.52244 0.03579 0.0
H69 H 0.55618 0.51227 0.08772 0.0
H70 H 0.58397 0.52065 0.13232 0.0
H71 H 0.62112 0.54507 0.15477 0.0
Mn72 Mn 0.38633 0.00872 0.01975 0.0
Mn73 Mn 0.43306 0.05781 0.02794 0.0
C74 C 0.4149 0.01164 0.05129 0.0
C75 C 0.35098 0.98391 0.03684 0.0
C76 C 0.42214 0.02805 0.97136 0.0
O77 O 0.3773 0.03072 0.00318 0.0
O78 O 0.40866 0.06264 0.01279 0.0
C79 C 0.42043 0.07728 0.07905 0.0
N80 N 0.43438 0.07087 0.06737 0.0
C81 C 0.45798 0.08422 0.11284 0.0
C82 C 0.44394 0.09108 0.12529 0.0
C83 C 0.42506 0.08753 0.10836 0.0
C84 C 0.4526 0.07422 0.08344 0.0
H85 H 0.40591 0.07458 0.0661 0.0
C86 C 0.38854 0.05182 0.00337 0.0
O87 O 0.35668 0.98262 0.00879 0.0
O88 O 0.36529 1.00015 0.05388 0.0
N89 N 0.45791 0.05561 0.04274 0.0
C90 C 0.46862 0.04626 0.02864 0.0
C91 C 0.48717 0.04718 0.04337 0.0
C92 C 0.49462 0.05785 0.07227 0.0
C93 C 0.48341 0.06749 0.08623 0.0
C94 C 0.46506 0.0661 0.07042 0.0
H95 H 0.46294 0.03801 0.00644 0.0
O96 O 0.4 0.99262 0.04041 0.0
O97 O 0.41251 0.02847 0.04372 0.0
O98 O 0.40393 0.01214 0.98049 0.0
O99 O 0.4337 0.04581 0.98695 0.0
C100 C 0.48943 0.07795 0.11553 0.0
C101 C 0.47676 0.08637 0.12878 0.0
H102 H 0.44735 0.09884 0.14799 0.0
H103 H 0.41408 0.09268 0.11789 0.0
H104 H 0.4957 0.03965 0.03249 0.0
H105 H 0.50884 0.05838 0.08366 0.0
H106 H 0.50354 0.07927 0.12831 0.0
H107 H 0.48132 0.09403 0.15156 0.0
Mn108 Mn 0.00658 0.64115 0.9857 0.0
Mn109 Mn 0.0502 0.63389 0.97171 0.0
C110 C 1.00259 0.61261 0.95357 0.0
C111 C 0.98432 0.65688 0.9744 0.0
C112 C 0.02435 0.61913 0.03078 0.0
O113 O 0.03281 0.67075 -0.0001 0.0
O114 O 0.06016 0.6642 0.98727 0.0
C115 C 0.06888 0.66504 0.91964 0.0
N116 N 0.06108 0.64439 0.93136 0.0
C117 C 0.06965 0.63161 0.88471 0.0
C118 C 0.07788 0.65277 0.87219 0.0
C119 C 0.07739 0.66952 0.88968 0.0
C120 C 0.06124 0.62809 0.9146 0.0
H121 H 0.06867 0.678 0.93309 0.0
C122 C 0.05323 0.67688 -0.00253 0.0
O123 O 0.98472 0.64913 0.00163 0.0
O124 O 0.99745 0.65628 0.95409 0.0
N125 N 0.0434 0.60542 0.9562 0.0
C126 C 0.03395 0.58568 0.97111 0.0
C127 C 0.03246 0.56701 0.95635 0.0
C128 C 0.04106 0.5689 0.92669 0.0
C129 C 0.0511 0.58947 0.91206 0.0
C130 C 0.05205 0.60749 0.92787 0.0
H131 H 0.02749 0.58415 0.99403 0.0
O132 O 0.98564 0.61185 0.96639 0.0
O133 O 0.02138 0.63025 0.95916 0.0
O134 O 0.0106 0.62558 0.02364 0.0
O135 O 0.04004 0.62199 0.01338 0.0
C136 C 0.05994 0.59275 0.88224 0.0
C137 C 0.06921 0.61381 0.86857 0.0
H138 H 0.08447 0.6563 0.8491 0.0
H139 H 0.08364 0.68588 0.88013 0.0
H140 H 0.02474 0.5512 0.96783 0.0
H141 H 0.03979 0.55445 0.91532 0.0
H142 H 0.05939 0.57912 0.86941 0.0
H143 H 0.07563 0.61604 0.84543 0.0
Mn144 Mn 0.38142 0.38561 0.00879 0.0
Mn145 Mn 0.43324 0.3942 0.01988 0.0
C146 C 0.40651 0.41382 0.04154 0.0
C147 C 0.34423 0.36903 0.02165 0.0
C148 C 0.41818 0.40775 0.96166 0.0
O149 O 0.37854 0.35626 0.99429 0.0
O150 O 0.41347 0.36382 0.00361 0.0
C151 C 0.42497 0.36235 0.07044 0.0
N152 N 0.43604 0.38334 0.05949 0.0
C153 C 0.45854 0.39619 0.10604 0.0
C154 C 0.44745 0.37469 0.11776 0.0
C155 C 0.43054 0.35772 0.09992 0.0
C156 C 0.45226 0.39981 0.07653 0.0
H157 H 0.41203 0.34923 0.05676 0.0
C158 C 0.39353 0.35074 0.99473 0.0
O159 O 0.35077 0.377 0.99429 0.0
O160 O 0.35915 0.37024 0.04126 0.0
N161 N 0.45396 0.42276 0.03611 0.0
C162 C 0.4619 0.44284 0.02241 0.0
C163 C 0.47822 0.46177 0.03787 0.0
C164 C 0.48633 0.45984 0.06712 0.0
C165 C 0.47799 0.43898 0.08067 0.0
C166 C 0.46176 0.4207 0.06414 0.0
H167 H 0.45569 0.44442 -0.0 0.0
O168 O 0.38998 0.41487 0.0291 0.0
O169 O 0.40803 0.39655 0.03419 0.0
O170 O 0.39841 0.40068 0.96971 0.0
O171 O 0.43263 0.40642 0.97868 0.0
C172 C 0.48489 0.43565 0.11016 0.0
C173 C 0.47522 0.41426 0.12279 0.0
H174 H 0.45163 0.37107 0.14054 0.0
H175 H 0.42184 0.34111 0.10887 0.0
H176 H 0.48452 0.47782 0.0273 0.0
H177 H 0.49883 0.47449 0.07904 0.0
H178 H 0.49738 0.44947 0.12352 0.0
H179 H 0.4804 0.41196 0.14569 0.0
Mn180 Mn 0.62496 0.00478 0.00258 0.0
Mn181 Mn 0.57843 0.95922 0.9779 0.0
C182 C 0.60073 0.00759 0.96782 0.0
C183 C 0.66187 0.03178 -0.00235 0.0
C184 C 0.58254 0.98105 0.03981 0.0
O185 O 0.63154 0.97993 0.01421 0.0
O186 O 0.59905 0.95112 -0.00149 0.0
C187 C 0.59874 0.94554 0.92943 0.0
N188 N 0.5834 0.95105 0.93787 0.0
C189 C 0.56788 0.9445 0.88606 0.0
C190 C 0.58345 0.93865 0.87685 0.0
C191 C 0.599 0.93926 0.89861 0.0
C192 C 0.56851 0.95074 0.91704 0.0
H193 H 0.61069 0.94593 0.9461 0.0
C194 C 0.61826 0.95919 0.01108 0.0
O195 O 0.65233 0.02802 0.02416 0.0
O196 O 0.6505 0.01893 0.97471 0.0
N197 N 0.55676 0.96424 0.95734 0.0
C198 C 0.54334 0.97109 0.96973 0.0
C199 C 0.52719 0.97198 0.95081 0.0
C200 C 0.52477 0.9655 0.91951 0.0
C201 C 0.53847 0.95808 0.90745 0.0
C202 C 0.55427 0.95754 0.92743 0.0
H203 H 0.54504 0.97595 0.99382 0.0
O204 O 0.61411 0.0244 0.98484 0.0
O205 O 0.6019 0.98964 0.97147 0.0
O206 O 0.60274 0.99572 0.0375 0.0
O207 O 0.57168 0.96671 0.0187 0.0
C208 C 0.53725 0.95145 0.87631 0.0
C209 C 0.55196 0.94468 0.86561 0.0
H210 H 0.58371 0.9338 0.8531 0.0
H211 H 0.61113 0.93485 0.89165 0.0
H212 H 0.51663 0.97766 0.96032 0.0
H213 H 0.51239 0.96634 0.90495 0.0
H214 H 0.52529 0.95181 0.86028 0.0
H215 H 0.55108 0.93994 0.84151 0.0
Mn216 Mn 0.67264 0.71064 0.33151 0.0
Mn217 Mn 0.71814 0.76074 0.32247 0.0
C218 C 0.67215 0.73588 0.29669 0.0
C219 C 0.65037 0.67296 0.32041 0.0
C220 C 0.68764 0.74999 0.37619 0.0
O221 O 0.69707 0.70598 0.35082 0.0
O222 O 0.72588 0.73989 0.34295 0.0
C223 C 0.74086 0.74748 0.27729 0.0
N224 N 0.73263 0.76083 0.28543 0.0
C225 C 0.74678 0.78274 0.23966 0.0
C226 C 0.75549 0.76928 0.23083 0.0
C227 C 0.75241 0.7515 0.24964 0.0
C228 C 0.73526 0.7778 0.26732 0.0
H229 H 0.73869 0.73393 0.29184 0.0
C230 C 0.71756 0.72008 0.35279 0.0
O231 O 0.64918 0.68149 0.34645 0.0
O232 O 0.66488 0.68618 0.30102 0.0
N233 N 0.71373 0.78303 0.30297 0.0
C234 C 0.7033 0.79368 0.314 0.0
C235 C 0.70403 0.81137 0.29727 0.0
C236 C 0.71587 0.81822 0.26977 0.0
C237 C 0.72686 0.80731 0.25922 0.0
C238 C 0.72543 0.78971 0.27677 0.0
H239 H 0.6944 0.78865 0.33533 0.0
O240 O 0.654 0.72016 0.30756 0.0
O241 O 0.6902 0.73626 0.30589 0.0
O242 O 0.67445 0.73004 0.36825 0.0
O243 O 0.7045 0.76282 0.36077 0.0
C244 C 0.73889 0.81297 0.23173 0.0
C245 C 0.74882 0.80067 0.22194 0.0
H246 H 0.76445 0.77236 0.20956 0.0
H247 H 0.75903 0.74101 0.24292 0.0
H248 H 0.69557 0.81975 0.30561 0.0
H249 H 0.71635 0.83183 0.25688 0.0
H250 H 0.74027 0.82649 0.21765 0.0
H251 H 0.75769 0.80493 0.20048 0.0
Mn252 Mn 0.293 0.94965 0.35623 0.0
Mn253 Mn 0.29018 0.90068 0.37226 0.0
C254 C 0.26929 0.92653 0.39327 0.0
C255 C 0.30842 0.98764 0.36466 0.0
C256 C 0.26891 0.90836 0.31504 0.0
O257 O 0.32128 0.9531 0.33793 0.0
O258 O 0.31839 0.92054 0.35215 0.0
C259 C 0.32601 0.91638 0.41981 0.0
N260 N 0.30459 0.90282 0.41131 0.0
C261 C 0.2965 0.8861 0.46168 0.0
C262 C 0.31852 0.89979 0.47091 0.0
C263 C 0.33332 0.91503 0.4499 0.0
C264 C 0.29018 0.88818 0.43139 0.0
H265 H 0.33743 0.92817 0.40377 0.0
C266 C 0.32875 0.93961 0.33967 0.0
O267 O 0.29803 0.97843 0.33888 0.0
O268 O 0.31036 0.97492 0.38504 0.0
N269 N 0.26382 0.87985 0.39212 0.0
C270 C 0.24301 0.86833 0.3799 0.0
C271 C 0.22614 0.85257 0.39809 0.0
C272 C 0.23087 0.84868 0.42851 0.0
C273 C 0.25246 0.86051 0.44044 0.0
C274 C 0.26863 0.87587 0.42114 0.0
H275 H 0.23928 0.87119 0.3565 0.0
O276 O 0.26587 0.94148 0.38038 0.0
O277 O 0.28647 0.92573 0.38433 0.0
O278 O 0.27448 0.9284 0.32119 0.0
O279 O 0.27441 0.89677 0.33216 0.0
C280 C 0.25852 0.85789 0.47085 0.0
C281 C 0.28051 0.87072 0.4815 0.0
H282 H 0.3242 0.89885 0.49413 0.0
H283 H 0.35031 0.92573 0.4569 0.0
H284 H 0.20951 0.8435 0.38872 0.0
H285 H 0.21777 0.83668 0.44258 0.0
H286 H 0.24635 0.84625 0.48638 0.0
H287 H 0.28491 0.86876 0.50506 0.0
Mn288 Mn 0.0485 0.33834 0.35052 0.0
Mn289 Mn 0.10116 0.37949 0.35924 0.0
C290 C 0.0727 0.33414 0.38368 0.0
C291 C 0.01151 0.31996 0.36388 0.0
C292 C 0.08476 0.34846 0.30383 0.0
O293 O 0.04702 0.36496 0.33322 0.0
O294 O 0.08245 0.39106 0.34083 0.0
C295 C 0.09425 0.40582 0.407 0.0
N296 N 0.10464 0.39473 0.39755 0.0
C297 C 0.12651 0.40422 0.44472 0.0
C298 C 0.11614 0.41585 0.45488 0.0
C299 C 0.0999 0.41659 0.43596 0.0
C300 C 0.12023 0.39384 0.41561 0.0
H301 H 0.08176 0.40643 0.39255 0.0
C302 C 0.06263 0.38494 0.33185 0.0
O303 O 0.01765 0.31732 0.33683 0.0
O304 O 0.0267 0.33396 0.38274 0.0
N305 N 0.1211 0.37092 0.37717 0.0
C306 C 0.12845 0.35778 0.36489 0.0
C307 C 0.14412 0.35454 0.38152 0.0
C308 C 0.15224 0.36502 0.4104 0.0
C309 C 0.14463 0.37868 0.42238 0.0
C310 C 0.12905 0.38133 0.40473 0.0
H311 H 0.12224 0.34965 0.34273 0.0
O312 O 0.05535 0.31705 0.37236 0.0
O313 O 0.07541 0.35334 0.37553 0.0
O314 O 0.0649 0.33733 0.31237 0.0
O315 O 0.09967 0.36463 0.31953 0.0
C316 C 0.15156 0.38939 0.45145 0.0
C317 C 0.14252 0.40216 0.4626 0.0
H318 H 0.12038 0.42411 0.47726 0.0
H319 H 0.09175 0.42545 0.44371 0.0
H320 H 0.14988 0.34395 0.37213 0.0
H321 H 0.16419 0.36234 0.42327 0.0
H322 H 0.16355 0.3876 0.46565 0.0
H323 H 0.1477 0.41001 0.48521 0.0
Mn324 Mn 0.67432 0.97132 0.33105 0.0
Mn325 Mn 0.7226 0.97358 0.31594 0.0
C326 C 0.6762 0.94949 0.29209 0.0
C327 C 0.65023 0.9852 0.32346 0.0
C328 C 0.69484 0.94979 0.37133 0.0
O329 O 0.6971 0.99981 0.35274 0.0
O330 O 0.72832 1.00145 0.33661 0.0
C331 C 0.73952 0.00931 0.26958 0.0
N332 N 0.73358 0.98817 0.2775 0.0
C333 C 0.74331 0.98095 0.22743 0.0
C334 C 0.74965 1.00268 0.21881 0.0
C335 C 0.74769 0.0169 0.23995 0.0
C336 C 0.73532 0.97433 0.2573 0.0
H337 H 0.73799 0.02028 0.28574 0.0
C338 C 0.71802 0.00976 0.3505 0.0
O339 O 0.64933 0.974 0.34803 0.0
O340 O 0.66517 0.98849 0.3036 0.0
N341 N 0.71943 0.94774 0.2955 0.0
C342 C 0.71172 0.92701 0.30695 0.0
C343 C 0.7121 0.91063 0.28843 0.0
C344 C 0.72054 0.91577 0.25846 0.0
C345 C 0.72861 0.93728 0.24731 0.0
C346 C 0.72797 0.95295 0.2669 0.0
H347 H 0.70527 0.92295 0.32998 0.0
O348 O 0.65742 0.94446 0.30391 0.0
O349 O 0.69306 0.96724 0.30299 0.0
O350 O 0.67864 0.95277 0.36448 0.0
O351 O 0.71231 0.95772 0.3555 0.0
C352 C 0.73693 0.94368 0.21734 0.0
C353 C 0.74423 0.96548 0.20738 0.0
H354 H 0.75587 0.00858 0.19593 0.0
H355 H 0.75244 0.03366 0.23341 0.0
H356 H 0.70583 0.89407 0.29719 0.0
H357 H 0.7206 0.90304 0.24413 0.0
H358 H 0.73751 0.93188 0.20161 0.0
H359 H 0.75031 0.97012 0.18414 0.0
Mn360 Mn 0.03622 0.71272 0.33733 0.0
Mn361 Mn 0.08286 0.71107 0.35504 0.0
C362 C 0.06062 0.73609 0.37521 0.0
C363 C 0.99885 0.70101 0.34287 0.0
C364 C 0.0774 0.73339 0.29777 0.0
O365 O 0.03007 0.68314 0.31862 0.0
O366 O 0.06098 0.68302 0.33442 0.0
C367 C 0.06539 0.67567 0.40191 0.0
N368 N 0.08013 0.6967 0.39381 0.0
C369 C 0.09878 0.70373 0.44352 0.0
C370 C 0.08386 0.68211 0.45233 0.0
C371 C 0.06704 0.66805 0.43148 0.0
C372 C 0.09628 0.71041 0.41378 0.0
H373 H 0.05248 0.66479 0.38591 0.0
C374 C 0.04189 0.67382 0.32118 0.0
O375 O 0.0091 0.71056 0.31789 0.0
O376 O 0.01005 0.69751 0.36439 0.0
N377 N 0.10543 0.73697 0.37553 0.0
C378 C 0.11764 0.75772 0.36412 0.0
C379 C 0.13458 0.77409 0.38263 0.0
C380 C 0.13899 0.7689 0.41247 0.0
C381 C 0.12642 0.74735 0.42353 0.0
C382 C 0.10974 0.73173 0.40405 0.0
H383 H 0.11439 0.7618 0.34116 0.0
O384 O 0.0467 0.74077 0.36159 0.0
O385 O 0.05963 0.71768 0.36675 0.0
O386 O 0.05804 0.72954 0.30347 0.0
O387 O 0.08795 0.72669 0.31505 0.0
C388 C 0.12954 0.74086 0.45332 0.0
C389 C 0.11576 0.71905 0.46328 0.0
H390 H 0.08505 0.67619 0.47515 0.0
H391 H 0.05541 0.65137 0.43816 0.0
H392 H 0.14423 0.79068 0.37391 0.0
H393 H 0.152 0.7816 0.42673 0.0
H394 H 0.14227 0.75259 0.46894 0.0
H395 H 0.1181 0.71435 0.48642 0.0
Mn396 Mn 0.30672 0.3394 0.32772 0.0
Mn397 Mn 0.25874 0.2932 0.31029 0.0
C398 C 0.28381 0.33973 0.28864 0.0
C399 C 0.34446 0.36179 0.32148 0.0
C400 C 0.26541 0.32246 0.36614 0.0
O401 O 0.31045 0.31488 0.34808 0.0
O402 O 0.27908 0.2849 0.33178 0.0
C403 C 0.27478 0.27313 0.26449 0.0
N404 N 0.26107 0.28104 0.27181 0.0
C405 C 0.2445 0.27269 0.2206 0.0
C406 C 0.25835 0.26433 0.21259 0.0
C407 C 0.27358 0.2646 0.23462 0.0
C408 C 0.2464 0.28092 0.25075 0.0
H409 H 0.28658 0.27338 0.2813 0.0
C410 C 0.29799 0.29395 0.34556 0.0
O411 O 0.33499 0.36321 0.34621 0.0
O412 O 0.33218 0.34698 0.30094 0.0
N413 N 0.23769 0.29877 0.28886 0.0
C414 C 0.22612 0.30825 0.29985 0.0
C415 C 0.21045 0.30966 0.28047 0.0
C416 C 0.20672 0.30118 0.25009 0.0
C417 C 0.21863 0.29127 0.2394 0.0
C418 C 0.2339 0.29017 0.25985 0.0
H419 H 0.22887 0.31479 0.32318 0.0
O420 O 0.29843 0.3581 0.3016 0.0
O421 O 0.2833 0.32187 0.29863 0.0
O422 O 0.28512 0.33702 0.3605 0.0
O423 O 0.25444 0.30494 0.34974 0.0
C424 C 0.2162 0.28277 0.20908 0.0
C425 C 0.22916 0.27353 0.19967 0.0
H426 H 0.25755 0.25783 0.18952 0.0
H427 H 0.2844 0.25828 0.22856 0.0
H428 H 0.20134 0.31735 0.28888 0.0
H429 H 0.1948 0.30252 0.23509 0.0
H430 H 0.20463 0.28353 0.1927 0.0
H431 H 0.22736 0.26732 0.17618 0.0
Mn432 Mn 0.31997 0.02993 0.66802 0.0
Mn433 Mn 0.36918 0.07432 0.65275 0.0
C434 C 0.32288 0.05541 0.63082 0.0
C435 C 0.29217 0.99355 0.65867 0.0
C436 C 0.34341 0.07088 0.71012 0.0
O437 O 0.3419 0.02105 0.68589 0.0
O438 O 0.37374 0.05101 0.67262 0.0
C439 C 0.38408 0.05428 0.60527 0.0
N440 N 0.37912 0.07013 0.61375 0.0
C441 C 0.38825 0.08682 0.5634 0.0
C442 C 0.3936 0.07076 0.55422 0.0
C443 C 0.39147 0.0544 0.57524 0.0
C444 C 0.3811 0.08594 0.59369 0.0
H445 H 0.38235 0.04159 0.62126 0.0
C446 C 0.36292 0.03172 0.68443 0.0
O447 O 0.29402 1.00326 0.68506 0.0
O448 O 0.30703 0.00448 0.6384 0.0
N449 N 0.36687 0.09778 0.63287 0.0
C450 C 0.3597 0.1112 0.64468 0.0
C451 C 0.36007 0.12803 0.62622 0.0
C452 C 0.36785 0.13093 0.59588 0.0
C453 C 0.37525 0.11699 0.58429 0.0
C454 C 0.37467 0.10062 0.60385 0.0
H455 H 0.35362 0.109 0.66793 0.0
O456 O 0.30426 0.04313 0.644 0.0
O457 O 0.33908 0.05264 0.6403 0.0
O458 O 0.32715 0.05189 0.70367 0.0
O459 O 0.36015 0.08064 0.69296 0.0
C460 C 0.38274 0.11842 0.55389 0.0
C461 C 0.38922 0.10333 0.54344 0.0
H462 H 0.39915 0.0707 0.53101 0.0
H463 H 0.39544 0.04188 0.56826 0.0
H464 H 0.35426 0.13867 0.63529 0.0
H465 H 0.36788 0.14377 0.5816 0.0
H466 H 0.38326 0.13083 0.53819 0.0
H467 H 0.39463 0.10438 0.51987 0.0
Mn468 Mn 0.96835 0.29465 0.70369 0.0
Mn469 Mn 0.9711 0.24889 0.7228 0.0
C470 C 0.94577 0.27116 0.74134 0.0
C471 C 0.98097 0.33241 0.70925 0.0
C472 C 0.94854 0.25262 0.66405 0.0
O473 O 0.9974 0.30031 0.6857 0.0
O474 O 0.99897 0.27051 0.70309 0.0
C475 C 0.00611 0.26817 0.7715 0.0
N476 N 0.98525 0.25295 0.76254 0.0
C477 C 0.97769 0.23686 0.81333 0.0
C478 C 0.99915 0.25228 0.82304 0.0
C479 C 0.01339 0.26803 0.80205 0.0
C480 C 0.97139 0.23776 0.78256 0.0
H481 H 0.01708 0.28036 0.75545 0.0
C482 C 0.00726 0.28905 0.68901 0.0
O483 O 0.97073 0.32178 0.68413 0.0
O484 O 0.98408 0.32119 0.73094 0.0
N485 N 0.94533 0.22663 0.74229 0.0
C486 C 0.92483 0.21366 0.7297 0.0
C487 C 0.90841 0.1974 0.74791 0.0
C488 C 0.91327 0.19453 0.77877 0.0
C489 C 0.93454 0.2079 0.79111 0.0
C490 C 0.95028 0.22372 0.77178 0.0
H491 H 0.921 0.21578 0.70599 0.0
O492 O 0.94079 0.28473 0.72746 0.0
O493 O 0.964 0.27208 0.73319 0.0
O494 O 0.95134 0.27183 0.6697 0.0
O495 O 0.9558 0.24285 0.6819 0.0
C496 C 0.94064 0.20644 0.822 0.0
C497 C 0.96219 0.22094 0.83312 0.0
H498 H 1.00479 0.2523 0.84663 0.0
H499 H 0.02994 0.28005 0.80943 0.0
H500 H 0.89203 0.18716 0.73823 0.0
H501 H 0.90049 0.18215 0.79285 0.0
H502 H 0.92879 0.19445 0.83754 0.0
H503 H 0.96658 0.21987 0.85704 0.0
Mn504 Mn 0.712 0.66946 0.67827 0.0
Mn505 Mn 0.75697 0.71912 0.69449 0.0
C506 C 0.73783 0.67185 0.71516 0.0
C507 C 0.67516 0.64239 0.68423 0.0
C508 C 0.75235 0.69163 0.63755 0.0
O509 O 0.70366 0.69159 0.65976 0.0
O510 O 0.73324 0.72339 0.67543 0.0
C511 C 0.73926 0.73604 0.74245 0.0
N512 N 0.75477 0.73099 0.73323 0.0
C513 C 0.77666 0.74712 0.7796 0.0
C514 C 0.76096 0.75257 0.78957 0.0
C515 C 0.74211 0.74688 0.771 0.0
C516 C 0.77286 0.7362 0.75104 0.0
H517 H 0.72491 0.73195 0.72802 0.0
C518 C 0.7141 0.71264 0.66261 0.0
O519 O 0.68559 0.64388 0.65913 0.0
O520 O 0.68584 0.65712 0.70576 0.0
N521 N 0.78141 0.71799 0.71334 0.0
C522 C 0.79385 0.7097 0.70167 0.0
C523 C 0.81254 0.71259 0.71847 0.0
C524 C 0.8185 0.72435 0.7467 0.0
C525 C 0.80559 0.73296 0.75804 0.0
C526 C 0.78701 0.72934 0.74047 0.0
H527 H 0.78948 0.70088 0.67981 0.0
O528 O 0.72424 0.65319 0.70186 0.0
O529 O 0.73555 0.68879 0.70741 0.0
O530 O 0.73376 0.67523 0.64382 0.0
O531 O 0.76189 0.70907 0.65425 0.0
C532 C 0.81015 0.74458 0.78638 0.0
C533 C 0.79573 0.75173 0.79712 0.0
H534 H 0.7631 0.76095 0.81156 0.0
H535 H 0.72989 0.75099 0.77858 0.0
H536 H 0.82241 0.70588 0.70958 0.0
H537 H 0.83292 0.72654 0.75958 0.0
H538 H 0.82445 0.74772 0.80043 0.0
H539 H 0.79918 0.76025 0.81924 0.0
Mn540 Mn 0.34809 0.29999 0.64967 0.0
Mn541 Mn 0.3948 0.29774 0.63937 0.0
C542 C 0.34723 0.27087 0.62238 0.0
C543 C 0.32272 0.31051 0.63175 0.0
C544 C 0.36963 0.28482 0.69918 0.0
O545 O 0.37206 0.33164 0.66027 0.0
O546 O 0.40172 0.32812 0.65063 0.0
C547 C 0.41102 0.32583 0.58382 0.0
N548 N 0.40499 0.30629 0.59821 0.0
C549 C 0.41475 0.29219 0.55404 0.0
C550 C 0.42119 0.3122 0.5388 0.0
C551 C 0.41923 0.32906 0.55371 0.0
C552 C 0.40672 0.28993 0.58403 0.0
H553 H 0.40962 0.33885 0.59525 0.0
C554 C 0.39285 0.33967 0.6583 0.0
O555 O 0.32367 0.30606 0.66084 0.0
O556 O 0.33733 0.31027 0.6141 0.0
N557 N 0.39063 0.26933 0.62802 0.0
C558 C 0.38217 0.25049 0.645 0.0
C559 C 0.38176 0.23162 0.63268 0.0
C560 C 0.39031 0.23242 0.60326 0.0
C561 C 0.39919 0.25208 0.58639 0.0
C562 C 0.39914 0.27035 0.59984 0.0
H563 H 0.37563 0.2498 0.66766 0.0
O564 O 0.32955 0.26888 0.63446 0.0
O565 O 0.36487 0.28994 0.62616 0.0
O566 O 0.35416 0.28862 0.69074 0.0
O567 O 0.38554 0.28817 0.68191 0.0
C568 C 0.40768 0.25415 0.55651 0.0
C569 C 0.41551 0.2742 0.54038 0.0
H570 H 0.42743 0.31473 0.51553 0.0
H571 H 0.42407 0.34452 0.54204 0.0
H572 H 0.37487 0.2165 0.64583 0.0
H573 H 0.38984 0.21779 0.59377 0.0
H574 H 0.40792 0.2403 0.5455 0.0
H575 H 0.42164 0.27546 0.51721 0.0
Mn576 Mn 0.70693 0.05062 0.68401 0.0
Mn577 Mn 0.75681 0.05593 0.7019 0.0
C578 C 0.73017 0.07655 0.72069 0.0
C579 C 0.66899 0.03426 0.69123 0.0
C580 C 0.74721 0.07403 0.64312 0.0
O581 O 0.70417 0.02176 0.66714 0.0
O582 O 0.73713 0.0265 0.68317 0.0
C583 C 0.74392 0.02224 0.75097 0.0
N584 N 0.75654 0.04345 0.74149 0.0
C585 C 0.77674 0.05383 0.79012 0.0
C586 C 0.76402 0.03208 0.80037 0.0
C587 C 0.74747 0.01625 0.78076 0.0
C588 C 0.77236 0.05886 0.76027 0.0
H589 H 0.7313 0.00999 0.73586 0.0
C590 C 0.71807 0.01492 0.67041 0.0
O591 O 0.67774 0.04397 0.66551 0.0
O592 O 0.68214 0.03366 0.71246 0.0
N593 N 0.77759 0.08356 0.72059 0.0
C594 C 0.78755 0.10406 0.70783 0.0
C595 C 0.80386 0.122 0.72499 0.0
C596 C 0.81 0.11863 0.75486 0.0
C597 C 0.79975 0.09733 0.76732 0.0
C598 C 0.78356 0.0801 0.74917 0.0
H599 H 0.78302 0.10672 0.68479 0.0
O600 O 0.71465 0.07871 0.70693 0.0
O601 O 0.73149 0.05922 0.71299 0.0
O602 O 0.72725 0.06819 0.64872 0.0
O603 O 0.75933 0.06974 0.66113 0.0
C604 C 0.80475 0.09257 0.7972 0.0
C605 C 0.7933 0.07082 0.80856 0.0
H606 H 0.76669 0.0274 0.82334 0.0
H607 H 0.73753 0.99945 0.78855 0.0
H608 H 0.81172 0.13838 0.71519 0.0
H609 H 0.82253 0.13252 0.76807 0.0
H610 H 0.81716 0.10556 0.81181 0.0
H611 H 0.79705 0.06743 0.83175 0.0
Mn612 Mn 0.95847 0.65889 0.66083 0.0
Mn613 Mn 0.90833 0.61816 0.63698 0.0
C614 C 0.93766 0.66557 0.62438 0.0
C615 C 0.99652 0.67952 0.65607 0.0
C616 C 0.91671 0.64119 0.69898 0.0
O617 O 0.95928 0.63102 0.67362 0.0
O618 O 0.92539 0.60522 0.65657 0.0
C619 C 0.92336 0.59981 0.58729 0.0
N620 N 0.91094 0.60882 0.59642 0.0
C621 C 0.89683 0.60682 0.54442 0.0
C622 C 0.90937 0.5974 0.5345 0.0
C623 C 0.92274 0.59394 0.55602 0.0
C624 C 0.89818 0.61241 0.57585 0.0
H625 H 0.9337 0.59718 0.60373 0.0
C626 C 0.94414 0.61095 0.66955 0.0
O627 O 0.98729 0.67894 0.68207 0.0
O628 O 0.9838 0.66761 0.63329 0.0
N629 N 0.89017 0.62835 0.61731 0.0
C630 C 0.87959 0.63819 0.63046 0.0
C631 C 0.86552 0.64278 0.61207 0.0
C632 C 0.86234 0.63708 0.58043 0.0
C633 C 0.8733 0.62685 0.56745 0.0
C634 C 0.88697 0.6225 0.58699 0.0
H635 H 0.88188 0.64249 0.6548 0.0
O636 O 0.95271 0.68174 0.64084 0.0
O637 O 0.9351 0.64618 0.6303 0.0
O638 O 0.93724 0.65403 0.69562 0.0
O639 O 0.90406 0.6272 0.67854 0.0
C640 C 0.87142 0.62105 0.53583 0.0
C641 C 0.88327 0.61116 0.52428 0.0
H642 H 0.90896 0.59288 0.51039 0.0
H643 H 0.93254 0.58678 0.54851 0.0
H644 H 0.85717 0.65073 0.62224 0.0
H645 H 0.85163 0.64082 0.56626 0.0
H646 H 0.86114 0.62441 0.5201 0.0
H647 H 0.88194 0.60707 0.49984 0.0
H648 H 0.15562 0.32441 0.15187 0.0
H649 H 0.14618 0.33835 0.05686 0.0
H650 H 0.11334 0.35095 0.13042 0.0
H651 H 0.16268 0.30611 0.10381 0.0
H652 H 0.16528 0.31853 0.0669 0.0
H653 H 0.18996 0.33464 0.14889 0.0
H654 H 0.25574 0.36397 0.1177 0.0
H655 H 0.20224 0.33578 0.05116 0.0
C656 C 0.14932 0.33146 0.13494 0.0
C657 C 0.13484 0.33862 0.1448 0.0
C658 C 0.15435 0.33207 0.10325 0.0
C659 C 0.14348 0.33883 0.08141 0.0
C660 C 0.12854 0.34551 0.09116 0.0
C661 C 0.12481 0.34578 0.12282 0.0
C662 C 0.16829 0.32223 0.09217 0.0
C663 C 0.19294 0.33624 0.09887 0.0
C664 C 0.20103 0.34054 0.12983 0.0
C665 C 0.22359 0.35025 0.13657 0.0
C666 C 0.23827 0.35654 0.11231 0.0
C667 C 0.23082 0.35053 0.08171 0.0
C668 C 0.20813 0.34094 0.07477 0.0
H669 H 0.69453 0.83403 0.15066 0.0
H670 H 0.66811 0.81329 0.05759 0.0
H671 H 0.65947 0.76548 0.12718 0.0
H672 H 0.70926 0.85929 0.10464 0.0
H673 H 0.69518 0.85132 0.06802 0.0
H674 H 0.6867 0.86276 0.15141 0.0
H675 H 0.6557 0.90015 0.12299 0.0
H676 H 0.67474 0.86894 0.05414 0.0
C677 C 0.68449 0.82114 0.13405 0.0
C678 C 0.67631 0.79904 0.14237 0.0
C679 C 0.68109 0.82653 0.10357 0.0
C680 C 0.66979 0.80934 0.08145 0.0
C681 C 0.66165 0.78711 0.08986 0.0
C682 C 0.66468 0.78237 0.12053 0.0
C683 C 0.69261 0.85047 0.09345 0.0
C684 C 0.68059 0.86282 0.1019 0.0
C685 C 0.67957 0.86813 0.1332 0.0
C686 C 0.6709 0.88188 0.14081 0.0
C687 C 0.66245 0.88954 0.11717 0.0
C688 C 0.66399 0.88524 0.08603 0.0
C689 C 0.67306 0.87185 0.07833 0.0
H690 H 0.17739 0.80869 0.15494 0.0
H691 H 0.15875 0.80484 0.05833 0.0
H692 H 0.11 0.76937 0.12623 0.0
H693 H 0.20437 0.81778 0.11018 0.0
H694 H 0.19657 0.82247 0.07249 0.0
H695 H 0.1933 0.84449 0.15237 0.0
H696 H 0.24178 0.9104 0.13216 0.0
H697 H 0.22502 0.85915 0.06416 0.0
C698 C 0.16481 0.8037 0.1369 0.0
C699 C 0.14272 0.78995 0.14454 0.0
C700 C 0.17072 0.81055 0.10605 0.0
C701 C 0.15429 0.80128 0.0824 0.0
C702 C 0.13235 0.78619 0.08958 0.0
C703 C 0.12673 0.78145 0.12068 0.0
C704 C 0.19484 0.82444 0.09767 0.0
C705 C 0.20578 0.84901 0.10578 0.0
C706 C 0.20395 0.85605 0.13562 0.0
C707 C 0.21723 0.87801 0.14537 0.0
C708 C 0.23164 0.89344 0.12447 0.0
C709 C 0.23528 0.88684 0.09548 0.0
C710 C 0.2219 0.86463 0.08599 0.0
H711 H 0.3637 0.2048 0.84807 0.0
H712 H 0.36852 0.22031 0.94531 0.0
H713 H 0.33828 0.24527 0.88129 0.0
H714 H 0.39466 0.20774 0.88674 0.0
H715 H 0.38852 0.20391 0.92661 0.0
H716 H 0.36865 0.1762 0.84775 0.0
H717 H 0.35713 0.11401 0.88282 0.0
H718 H 0.3736 0.16789 0.94598 0.0
C719 C 0.35908 0.2112 0.86755 0.0
C720 C 0.3489 0.22394 0.86162 0.0
C721 C 0.36546 0.20887 0.89788 0.0
C722 C 0.36198 0.22024 0.92227 0.0
C723 C 0.35209 0.23338 0.91645 0.0
C724 C 0.34465 0.23415 0.8863 0.0
C725 C 0.38083 0.19944 0.90298 0.0
C726 C 0.37067 0.17465 0.89772 0.0
C727 C 0.36643 0.16574 0.8674 0.0
C728 C 0.36073 0.14361 0.86203 0.0
C729 C 0.35977 0.13047 0.88727 0.0
C730 C 0.36464 0.13902 0.91762 0.0
C731 C 0.36944 0.16098 0.92273 0.0
H732 H 0.85085 0.17686 0.87516 0.0
H733 H 0.85819 0.1939 0.97254 0.0
H734 H 0.89177 0.244 0.90505 0.0
H735 H 0.84506 0.14957 0.92012 0.0
H736 H 0.84014 0.15614 0.95772 0.0
H737 H 0.81797 0.14466 0.87506 0.0
H738 H 0.75137 0.1091 0.90384 0.0
H739 H 0.8031 0.14237 0.9721 0.0
C740 C 0.85661 0.18918 0.89345 0.0
C741 C 0.87171 0.21123 0.88639 0.0
C742 C 0.85073 0.18275 0.92451 0.0
C743 C 0.86088 0.1988 0.94847 0.0
C744 C 0.87602 0.22081 0.94132 0.0
C745 C 0.88013 0.22694 0.91034 0.0
C746 C 0.83786 0.15838 0.93262 0.0
C747 C 0.81343 0.14699 0.92425 0.0
C748 C 0.80618 0.1406 0.8932 0.0
C749 C 0.78376 0.12691 0.88604 0.0
C750 C 0.76854 0.12031 0.90965 0.0
C751 C 0.7752 0.12541 0.94075 0.0
C752 C 0.79773 0.13897 0.94801 0.0
H753 H 0.83044 0.63624 0.85004 0.0
H754 H 0.85328 0.651 0.94511 0.0
H755 H 0.89891 0.66323 0.87255 0.0
H756 H 0.80549 0.61872 0.89412 0.0
H757 H 0.81484 0.62795 0.9329 0.0
H758 H 0.81645 0.66045 0.86028 0.0
H759 H 0.77281 0.68018 0.89881 0.0
H760 H 0.78644 0.63447 0.9477 0.0
C761 C 0.84389 0.64342 0.86694 0.0
C762 C 0.86536 0.65022 0.85753 0.0
C763 C 0.83942 0.64436 0.89843 0.0
C764 C 0.85681 0.65152 0.92071 0.0
C765 C 0.87844 0.65807 0.91167 0.0
C766 C 0.88244 0.65824 0.87993 0.0
C767 C 0.81569 0.63368 0.90862 0.0
C768 C 0.80498 0.64814 0.90625 0.0
C769 C 0.80648 0.66025 0.87917 0.0
C770 C 0.79422 0.67125 0.87573 0.0
C771 C 0.78138 0.67089 0.90049 0.0
C772 C 0.77717 0.65671 0.92568 0.0
C773 C 0.78956 0.6458 0.92875 0.0
H774 H 0.81284 0.64832 0.49152 0.0
H775 H 0.80481 0.66129 0.39547 0.0
H776 H 0.77618 0.68081 0.46736 0.0
H777 H 0.82019 0.62902 0.44742 0.0
H778 H 0.82006 0.63762 0.40839 0.0
H779 H 0.84932 0.66256 0.48561 0.0
H780 H 0.91312 0.69123 0.4463 0.0
H781 H 0.8559 0.65343 0.38853 0.0
C782 C 0.80709 0.65557 0.47401 0.0
C783 C 0.79495 0.66566 0.48303 0.0
C784 C 0.81165 0.65477 0.44245 0.0
C785 C 0.80232 0.66267 0.41988 0.0
C786 C 0.78945 0.67202 0.42887 0.0
C787 C 0.78636 0.67386 0.46039 0.0
C788 C 0.82467 0.64372 0.43271 0.0
C789 C 0.84941 0.65871 0.43585 0.0
C790 C 0.85931 0.66679 0.46531 0.0
C791 C 0.88226 0.67821 0.46927 0.0
C792 C 0.89536 0.68269 0.44327 0.0
C793 C 0.88608 0.67328 0.41443 0.0
C794 C 0.86307 0.66143 0.41059 0.0
H795 H 0.33362 0.14613 0.47965 0.0
H796 H 0.33178 0.12695 0.38405 0.0
H797 H 0.30619 0.07789 0.45464 0.0
H798 H 0.36192 0.17013 0.43051 0.0
H799 H 0.34675 0.16472 0.39516 0.0
H800 H 0.35156 0.18384 0.4774 0.0
H801 H 0.32017 0.222 0.45679 0.0
H802 H 0.32282 0.18002 0.38636 0.0
C803 C 0.32818 0.13352 0.46188 0.0
C804 C 0.31932 0.11137 0.47087 0.0
C805 C 0.33184 0.13937 0.43024 0.0
C806 C 0.32718 0.12264 0.40795 0.0
C807 C 0.31842 0.10055 0.41699 0.0
C808 C 0.31319 0.09506 0.44795 0.0
C809 C 0.34494 0.16342 0.42075 0.0
C810 C 0.33597 0.1781 0.43168 0.0
C811 C 0.34146 0.18751 0.46179 0.0
C812 C 0.3356 0.20321 0.47074 0.0
C813 C 0.32412 0.20937 0.4499 0.0
C814 C 0.32029 0.20192 0.41922 0.0
C815 C 0.32543 0.18559 0.41029 0.0
H816 H 0.84676 0.15278 0.50381 0.0
H817 H 0.83566 0.13831 0.40609 0.0
H818 H 0.78367 0.10361 0.47016 0.0
H819 H 0.87651 0.15417 0.46364 0.0
H820 H 0.87196 0.15851 0.42438 0.0
H821 H 0.87777 0.1822 0.5051 0.0
H822 H 0.92035 0.24772 0.47554 0.0
H823 H 0.88804 0.19541 0.40769 0.0
C824 C 0.83583 0.14471 0.48434 0.0
C825 C 0.81385 0.12913 0.49017 0.0
C826 C 0.84392 0.14853 0.45399 0.0
C827 C 0.82945 0.13622 0.42935 0.0
C828 C 0.80761 0.11987 0.4349 0.0
C829 C 0.79997 0.11696 0.46529 0.0
C830 C 0.86855 0.16133 0.44851 0.0
C831 C 0.88 0.18601 0.45537 0.0
C832 C 0.8841 0.19367 0.48624 0.0
C833 C 0.89778 0.21608 0.49331 0.0
C834 C 0.90831 0.2309 0.46932 0.0
C835 C 0.90538 0.22379 0.43822 0.0
C836 C 0.89048 0.20132 0.43142 0.0
H837 H 0.03944 0.53491 0.17434 0.0
H838 H 0.03548 0.54507 0.27181 0.0
H839 H 0.02296 0.58332 0.20442 0.0
H840 H 0.06137 0.52736 0.21595 0.0
H841 H 0.05452 0.52664 0.2555 0.0
H842 H 0.02467 0.49878 0.17939 0.0
H843 H 0.00555 0.43432 0.21412 0.0
H844 H 0.04024 0.49073 0.27404 0.0
C845 C 0.03509 0.54233 0.19288 0.0
C846 C 0.0291 0.55842 0.18568 0.0
C847 C 0.03683 0.53685 0.22392 0.0
C848 C 0.03308 0.54832 0.24788 0.0
C849 C 0.02801 0.56517 0.24106 0.0
C850 C 0.0256 0.56959 0.20993 0.0
C851 C 0.04732 0.52266 0.23156 0.0
C852 C 0.03237 0.49781 0.22802 0.0
C853 C 0.02304 0.48837 0.19885 0.0
C854 C 0.01314 0.46545 0.19378 0.0
C855 C 0.01199 0.45182 0.21844 0.0
C856 C 0.02182 0.46074 0.24735 0.0
C857 C 0.03182 0.48373 0.25211 0.0
H858 H 0.52813 0.51556 0.1968 0.0
H859 H 0.53481 0.5329 0.29393 0.0
H860 H 0.56584 0.5831 0.22555 0.0
H861 H 0.52241 0.48871 0.24158 0.0
H862 H 0.51705 0.49504 0.27909 0.0
H863 H 0.49523 0.4844 0.1957 0.0
H864 H 0.4287 0.44587 0.22417 0.0
H865 H 0.48 0.47847 0.2929 0.0
C866 C 0.53296 0.5279 0.21492 0.0
C867 C 0.54712 0.55007 0.20778 0.0
C868 C 0.52713 0.52154 0.24594 0.0
C869 C 0.53702 0.53776 0.26982 0.0
C870 C 0.55148 0.55994 0.26238 0.0
C871 C 0.55466 0.56598 0.2313 0.0
C872 C 0.5148 0.49717 0.25395 0.0
C873 C 0.49042 0.4853 0.24516 0.0
C874 C 0.48336 0.47954 0.21384 0.0
C875 C 0.46105 0.46537 0.20629 0.0
C876 C 0.4458 0.45746 0.22994 0.0
C877 C 0.45253 0.46146 0.26108 0.0
C878 C 0.47472 0.47595 0.26873 0.0
H879 H 0.50672 0.98039 0.19131 0.0
H880 H 0.5209 0.98172 0.28922 0.0
H881 H 0.57265 1.00319 0.22334 0.0
H882 H 0.47816 0.95614 0.22974 0.0
H883 H 0.48385 0.96127 0.27023 0.0
H884 H 0.48733 0.99726 0.20064 0.0
H885 H 0.43673 0.00848 0.23551 0.0
H886 H 0.45857 0.9708 0.28889 0.0
C887 C 0.51847 0.98518 0.21049 0.0
C888 C 0.54081 0.99401 0.20424 0.0
C889 C 0.51116 0.98158 0.24121 0.0
C890 C 0.52654 0.98568 0.26567 0.0
C891 C 0.54888 0.99341 0.25952 0.0
C892 C 0.55577 0.99814 0.22877 0.0
C893 C 0.48669 0.96953 0.24735 0.0
C894 C 0.47566 0.98371 0.24599 0.0
C895 C 0.47669 0.99588 0.2192 0.0
C896 C 0.46287 0.00515 0.21526 0.0
C897 C 0.44847 1.00272 0.23898 0.0
C898 C 0.44691 0.99058 0.26557 0.0
C899 C 0.46053 0.9811 0.269 0.0
H900 H 0.48397 0.99062 0.82099 0.0
H901 H 0.4701 0.99794 0.72484 0.0
H902 H 0.43818 0.01265 0.79746 0.0
H903 H 0.4886 0.9688 0.77433 0.0
H904 H 0.49044 0.97961 0.73651 0.0
H905 H 0.51703 0.99386 0.8168 0.0
H906 H 0.58194 0.02866 0.78142 0.0
H907 H 0.52653 1.00155 0.7182 0.0
C908 C 0.47609 0.99563 0.80344 0.0
C909 C 0.46147 1.00278 0.81271 0.0
C910 C 0.48001 0.9945 0.77166 0.0
C911 C 0.46809 0.99964 0.74932 0.0
C912 C 0.45248 0.00556 0.75862 0.0
C913 C 0.44987 0.00766 0.79021 0.0
C914 C 0.4939 0.98441 0.76143 0.0
C915 C 0.51857 0.9989 0.76706 0.0
C916 C 0.5276 1.00165 0.79746 0.0
C917 C 0.55044 0.01211 0.80253 0.0
C918 C 0.56428 0.02088 0.77742 0.0
C919 C 0.55595 0.01618 0.74704 0.0
C920 C 0.53305 0.00575 0.74173 0.0
H921 H 1.00088 0.48409 0.82285 0.0
H922 H 1.00411 0.47234 0.72562 0.0
H923 H 0.96963 0.41786 0.78653 0.0
H924 H 0.03048 0.51167 0.78546 0.0
H925 H 0.02383 0.50904 0.74512 0.0
H926 H 0.0145 0.52658 0.82121 0.0
H927 H 0.98034 0.55801 0.78137 0.0
H928 H 0.99507 0.51684 0.72421 0.0
C929 C 0.99546 0.47281 0.80321 0.0
C930 C 0.98442 0.44992 0.80826 0.0
C931 C 1.00165 0.48116 0.77302 0.0
C932 C 0.99736 0.46624 0.7482 0.0
C933 C 0.98594 0.44339 0.75329 0.0
C934 C 0.97807 0.43556 0.78273 0.0
C935 C 0.01647 0.50568 0.76846 0.0
C936 C 1.00472 0.5188 0.77274 0.0
C937 C 0.00574 0.52876 0.8017 0.0
C938 C 0.9971 0.54308 0.80462 0.0
C939 C 0.98645 0.54644 0.77919 0.0
C940 C 0.98581 0.53728 0.7502 0.0
C941 C 0.99485 0.52334 0.74692 0.0
H942 H 0.50522 0.47743 0.81095 0.0
H943 H 0.49042 0.46946 0.71336 0.0
H944 H 0.43831 0.44335 0.77847 0.0
H945 H 0.53177 0.47813 0.76575 0.0
H946 H 0.52738 0.48687 0.72891 0.0
H947 H 0.53811 0.5034 0.81354 0.0
H948 H 0.57971 0.57153 0.79432 0.0
H949 H 0.54746 0.52577 0.7189 0.0
C950 C 0.49346 0.47303 0.79212 0.0
C951 C 0.47092 0.46108 0.79883 0.0
C952 C 0.50077 0.47745 0.76133 0.0
C953 C 0.48501 0.46791 0.73703 0.0
C954 C 0.46252 0.45456 0.7432 0.0
C955 C 0.45565 0.45285 0.77389 0.0
C956 C 0.52517 0.48802 0.75416 0.0
C957 C 0.53922 0.51186 0.76506 0.0
C958 C 0.5442 0.51653 0.79687 0.0
C959 C 0.55796 0.53812 0.80749 0.0
C960 C 0.5679 0.55509 0.78604 0.0
C961 C 0.56457 0.55093 0.75411 0.0
C962 C 0.54991 0.52923 0.74358 0.0
H963 H 0.69048 0.86983 0.52194 0.0
H964 H 0.69237 0.88527 0.61885 0.0
H965 H 0.66483 0.91082 0.55143 0.0
H966 H 0.72094 0.87328 0.56565 0.0
H967 H 0.71118 0.86703 0.60386 0.0
H968 H 0.69825 0.84421 0.52178 0.0
H969 H 0.685 0.78037 0.55053 0.0
H970 H 0.6966 0.82994 0.61905 0.0
C971 C 0.68557 0.87635 0.54081 0.0
C972 C 0.67557 0.88909 0.53349 0.0
C973 C 0.69088 0.87386 0.57176 0.0
C974 C 0.68675 0.88536 0.59527 0.0
C975 C 0.67741 0.89881 0.58807 0.0
C976 C 0.67096 0.89964 0.55736 0.0
C977 C 0.7057 0.86398 0.57908 0.0
C978 C 0.69635 0.83956 0.57137 0.0
C979 C 0.69444 0.83259 0.54031 0.0
C980 C 0.68938 0.81098 0.53275 0.0
C981 C 0.68696 0.79635 0.5566 0.0
C982 C 0.68985 0.80296 0.58783 0.0
C983 C 0.69391 0.82447 0.59508 0.0
H984 H 0.17945 0.83265 0.53007 0.0
H985 H 0.18398 0.85146 0.62638 0.0
H986 H 0.21576 0.90069 0.55672 0.0
H987 H 0.17506 0.80684 0.57522 0.0
H988 H 0.1705 0.81361 0.61298 0.0
H989 H 0.14625 0.80145 0.53087 0.0
H990 H 0.08079 0.76172 0.56309 0.0
H991 H 0.13382 0.79541 0.62903 0.0
C992 C 0.18408 0.84523 0.5478 0.0
C993 C 0.19754 0.86741 0.53993 0.0
C994 C 0.17848 0.83922 0.57894 0.0
C995 C 0.187 0.85592 0.6022 0.0
C996 C 0.2004 0.87827 0.59433 0.0
C997 C 0.20488 0.88367 0.56307 0.0
C998 C 0.16732 0.81504 0.58793 0.0
C999 C 0.14275 0.80222 0.58069 0.0
C1000 C 0.13489 0.79616 0.54973 0.0
C1001 C 0.11255 0.78131 0.5434 0.0
C1002 C 0.09802 0.77335 0.56792 0.0
C1003 C 0.10559 0.77763 0.59868 0.0
C1004 C 0.12785 0.79258 0.60517 0.0
H1005 H 0.16813 0.30101 0.51323 0.0
H1006 H 0.19241 0.30398 0.60647 0.0
H1007 H 0.23733 0.33216 0.53187 0.0
H1008 H 0.14485 0.27686 0.55728 0.0
H1009 H 0.15407 0.28489 0.59629 0.0
H1010 H 0.14755 0.31504 0.52507 0.0
H1011 H 0.09793 0.32369 0.56794 0.0
H1012 H 0.12954 0.29371 0.61914 0.0
C1013 C 0.18172 0.30754 0.52983 0.0
C1014 C 0.20322 0.31786 0.51889 0.0
C1015 C 0.17769 0.30434 0.56182 0.0
C1016 C 0.19555 0.30895 0.58248 0.0
C1017 C 0.21707 0.31789 0.57137 0.0
C1018 C 0.22071 0.32437 0.54027 0.0
C1019 C 0.15413 0.29148 0.57275 0.0
C1020 C 0.1413 0.30401 0.57275 0.0
C1021 C 0.1386 0.31391 0.54557 0.0
C1022 C 0.1234 0.32159 0.54403 0.0
C1023 C 0.11077 0.31929 0.56994 0.0
C1024 C 0.11284 0.3094 0.59721 0.0
C1025 C 0.1283 0.30198 0.59851 0.0
H1026 H 0.9888 0.40376 0.07662 0.0
H1027 H 0.05108 0.4575 0.04779 0.0
H1028 H 0.05271 0.47901 0.09305 0.0
H1029 H 0.0386 0.48116 0.14347 0.0
H1030 H 0.97674 0.42765 0.17323 0.0
H1031 H 0.97268 0.40765 0.12477 0.0
C1032 C 1.00266 0.42022 0.08009 0.0
C1033 C 0.01993 0.42876 0.05895 0.0
C1034 C 1.00359 0.43262 0.10635 0.0
C1035 C 0.03761 0.45031 0.06372 0.0
C1036 C 0.03858 0.46271 0.08964 0.0
C1037 C 0.02388 0.46545 0.13896 0.0
C1038 C 0.00801 0.45589 0.16193 0.0
C1039 C 0.02192 0.45387 0.11143 0.0
C1040 C 0.98923 0.4353 0.15592 0.0
C1041 C 0.98697 0.42382 0.12831 0.0
H1042 H 0.61343 0.60125 0.1042 0.0
H1043 H 0.5541 0.58067 0.0498 0.0
H1044 H 0.53196 0.55922 0.0937 0.0
H1045 H 0.52997 0.54825 0.1492 0.0
H1046 H 0.59041 0.56747 0.20069 0.0
H1047 H 0.61174 0.58709 0.15611 0.0
C1048 C 0.59568 0.59149 0.1017 0.0
C1049 C 0.58535 0.59177 0.07376 0.0
C1050 C 0.58332 0.57901 0.12654 0.0
C1051 C 0.56232 0.58019 0.07114 0.0
C1052 C 0.54972 0.56793 0.09613 0.0
C1053 C 0.54776 0.55619 0.15015 0.0
C1054 C 0.55867 0.55677 0.17815 0.0
C1055 C 0.56007 0.56732 0.12411 0.0
C1056 C 0.58174 0.5671 0.17935 0.0
C1057 C 0.59395 0.57841 0.15399 0.0
H1058 H 0.42318 0.0336 0.10557 0.0
H1059 H 0.43743 0.98913 0.05492 0.0
H1060 H 0.45652 0.98508 0.10071 0.0
H1061 H 0.46485 0.99092 0.15674 0.0
H1062 H 0.45483 0.03948 0.20497 0.0
H1063 H 0.43898 0.04584 0.15797 0.0
C1064 C 0.43149 0.02398 0.10406 0.0
C1065 C 0.42963 0.01231 0.07671 0.0
C1066 C 0.44295 0.0223 0.13006 0.0
C1067 C 0.43909 0.99861 0.07567 0.0
C1068 C 0.44998 0.99631 0.1018 0.0
C1069 C 0.46011 0.00359 0.15683 0.0
C1070 C 0.46031 0.01406 0.18486 0.0
C1071 C 0.45156 0.00771 0.12938 0.0
C1072 C 0.45408 0.03048 0.18412 0.0
C1073 C 0.44505 0.03421 0.1572 0.0
H1074 H 0.42202 0.99208 0.94572 0.0
H1075 H 0.44242 0.06071 0.93006 0.0
H1076 H 0.45851 0.05948 0.88107 0.0
H1077 H 0.4656 0.03873 0.84175 0.0
H1078 H 0.44624 0.9704 0.85658 0.0
H1079 H 0.43155 0.97174 0.90725 0.0
C1080 C 0.42986 0.00665 0.93138 0.0
C1081 C 0.43076 0.02637 0.94118 0.0
C1082 C 0.43959 0.00598 0.90344 0.0
C1083 C 0.44141 0.04532 0.92285 0.0
C1084 C 0.45069 0.04467 0.89492 0.0
C1085 C 0.4585 0.02427 0.8564 0.0
C1086 C 0.45699 0.00453 0.84565 0.0
C1087 C 0.44982 0.02511 0.88497 0.0
C1088 C 0.44779 0.98584 0.86465 0.0
C1089 C 0.43914 0.98655 0.89337 0.0
H1090 H 0.97924 0.41748 0.94713 0.0
H1091 H 0.00614 0.38053 0.90379 0.0
H1092 H 1.004 0.39531 0.85331 0.0
H1093 H 0.99749 0.42065 0.82261 0.0
H1094 H 0.97139 0.45899 0.86395 0.0
H1095 H 0.97111 0.44253 0.91469 0.0
C1096 C 0.98444 0.41266 0.92646 0.0
C1097 C 0.99337 0.39848 0.92892 0.0
C1098 C 0.98365 0.4217 0.89753 0.0
C1099 C 0.99973 0.39188 0.90225 0.0
C1100 C 0.99847 0.40027 0.87349 0.0
C1101 C 0.9912 0.42508 0.84252 0.0
C1102 C 0.98396 0.44062 0.83943 0.0
C1103 C 0.99095 0.41553 0.87104 0.0
C1104 C 0.97687 0.44692 0.86576 0.0
C1105 C 0.97658 0.43741 0.89462 0.0
H1106 H 0.59739 0.55616 0.94351 0.0
H1107 H 0.5893 0.61349 0.93138 0.0
H1108 H 0.57114 0.59932 0.88135 0.0
H1109 H 0.55962 0.57204 0.83969 0.0
H1110 H 0.56944 0.51579 0.84969 0.0
H1111 H 0.58416 0.52778 0.90239 0.0
C1112 C 0.59161 0.56553 0.92999 0.0
C1113 C 0.595 0.586 0.94111 0.0
C1114 C 0.5813 0.5574 0.90099 0.0
C1115 C 0.58718 0.59781 0.92334 0.0
C1116 C 0.57671 0.5897 0.89472 0.0
C1117 C 0.5649 0.56236 0.8535 0.0
C1118 C 0.56366 0.54322 0.8408 0.0
C1119 C 0.574 0.56973 0.88315 0.0
C1120 C 0.57011 0.53053 0.85906 0.0
C1121 C 0.57875 0.53751 0.88904 0.0
H1122 H 0.01791 0.62114 0.89608 0.0
H1123 H 0.97945 0.56767 0.95746 0.0
H1124 H 0.97534 0.54072 0.9174 0.0
H1125 H 0.98285 0.53269 0.86418 0.0
H1126 H 0.02217 0.5871 0.8043 0.0
H1127 H 0.02609 0.61342 0.84447 0.0
C1128 C 0.00886 0.60357 0.90071 0.0
C1129 C 0.99965 0.59626 0.92976 0.0
C1130 C 0.00681 0.5884 0.87784 0.0
C1131 C 0.98707 0.57353 0.93527 0.0
C1132 C 0.9848 0.55819 0.91247 0.0
C1133 C 0.99267 0.5503 0.86041 0.0
C1134 C 1.00234 0.55804 0.83155 0.0
C1135 C 0.99481 0.56545 0.8837 0.0
C1136 C 0.01471 0.58088 0.8265 0.0
C1137 C 0.01678 0.59591 0.84928 0.0
H1138 H 0.45406 0.44572 0.94346 0.0
H1139 H 0.39593 0.38801 0.90873 0.0
H1140 H 0.40729 0.39908 0.85546 0.0
H1141 H 0.43463 0.42366 0.81947 0.0
H1142 H 0.49028 0.4845 0.85305 0.0
H1143 H 0.47933 0.47325 0.90623 0.0
C1144 C 0.44382 0.43575 0.92416 0.0
C1145 C 0.42424 0.41605 0.92987 0.0
C1146 C 0.45016 0.44256 0.89353 0.0
C1147 C 0.41099 0.40331 0.90478 0.0
C1148 C 0.41755 0.40957 0.87438 0.0
C1149 C 0.44414 0.43505 0.83801 0.0
C1150 C 0.46341 0.45505 0.83159 0.0
C1151 C 0.4372 0.42906 0.86851 0.0
C1152 C 0.47567 0.4688 0.85681 0.0
C1153 C 0.4693 0.46248 0.88739 0.0
H1154 H 0.60385 0.99721 0.90969 0.0
H1155 H 0.57423 0.02635 0.96512 0.0
H1156 H 0.5552 0.03015 0.91874 0.0
H1157 H 0.5465 0.02408 0.8619 0.0
H1158 H 0.57639 0.9939 0.80855 0.0
H1159 H 0.59571 0.9915 0.85451 0.0
C1160 C 0.59308 0.00425 0.91156 0.0
C1161 C 0.58969 0.01077 0.94057 0.0
C1162 C 0.58231 0.00622 0.88512 0.0
C1163 C 0.57657 0.02078 0.94284 0.0
C1164 C 0.56571 0.02288 0.91641 0.0
C1165 C 0.55711 0.01685 0.8606 0.0
C1166 C 0.56026 0.00946 0.83187 0.0
C1167 C 0.56822 0.01536 0.88739 0.0
C1168 C 0.57403 1.00007 0.83034 0.0
C1169 C 0.58512 0.9987 0.85656 0.0
H1170 H 0.595 0.01386 0.08278 0.0
H1171 H 0.5436 0.94764 0.06039 0.0
H1172 H 0.52479 0.9467 0.10777 0.0
H1173 H 0.52427 0.96372 0.15744 0.0
H1174 H 0.57568 0.02981 0.17974 0.0
H1175 H 0.59299 0.03188 0.13033 0.0
C1176 C 0.57969 0.99921 0.08824 0.0
C1177 C 0.57092 0.98075 0.06823 0.0
C1178 C 0.56887 0.9988 0.11544 0.0
C1179 C 0.55083 0.96205 0.07544 0.0
C1180 C 0.54002 0.96149 0.10254 0.0
C1181 C 0.53895 0.97875 0.15108 0.0
C1182 C 0.54872 0.99658 0.17212 0.0
C1183 C 0.54901 0.97967 0.12289 0.0
C1184 C 0.56794 0.01586 0.16387 0.0
C1185 C 0.57788 0.01701 0.13574 0.0
H1186 H 0.04929 0.60171 0.05333 0.0
H1187 H 0.99276 0.60858 0.07419 0.0
H1188 H 0.98788 0.58816 0.12207 0.0
H1189 H 1.00036 0.56959 0.15894 0.0
H1190 H 0.05821 0.56478 0.13978 0.0
H1191 H 0.06125 0.58234 0.08971 0.0
C1192 C 0.03589 0.59881 0.0683 0.0
C1193 C 0.02155 0.60693 0.06015 0.0
C1194 C 0.03319 0.58711 0.09593 0.0
C1195 C 1.00419 0.60275 0.07986 0.0
C1196 C 1.00131 0.59097 0.10724 0.0
C1197 C 0.01364 0.57235 0.1438 0.0
C1198 C 0.02908 0.56594 0.1533 0.0
C1199 C 0.01582 0.58325 0.11561 0.0
C1200 C 0.0459 0.56924 0.13305 0.0
C1201 C 0.04784 0.57958 0.10454 0.0
H1202 H 0.41231 0.39935 0.09628 0.0
H1203 H 0.42623 0.45893 0.04825 0.0
H1204 H 0.44615 0.48104 0.0945 0.0
H1205 H 0.459 0.48289 0.14966 0.0
H1206 H 0.44543 0.42235 0.19518 0.0
H1207 H 0.42628 0.40114 0.14887 0.0
C1208 C 0.42002 0.41722 0.09581 0.0
C1209 C 0.4185 0.42762 0.06879 0.0
C1210 C 0.43155 0.42961 0.12208 0.0
C1211 C 0.42762 0.45067 0.06878 0.0
C1212 C 0.43905 0.46325 0.09513 0.0
C1213 C 0.4523 0.46514 0.14898 0.0
C1214 C 0.4536 0.45415 0.17571 0.0
C1215 C 0.44124 0.45289 0.12198 0.0
C1216 C 0.44461 0.43111 0.17482 0.0
C1217 C 0.43351 0.41895 0.14847 0.0
H1218 H 0.71074 0.79185 0.39933 0.0
H1219 H 0.65478 0.72798 0.41755 0.0
H1220 H 0.64901 0.74209 0.46606 0.0
H1221 H 0.66123 0.77181 0.50483 0.0
H1222 H 0.71846 0.83488 0.48775 0.0
H1223 H 0.72186 0.82197 0.43682 0.0
C1224 C 0.69721 0.78097 0.41379 0.0
C1225 C 0.68339 0.75879 0.40488 0.0
C1226 C 0.69408 0.7891 0.44178 0.0
C1227 C 0.66581 0.74508 0.42386 0.0
C1228 C 0.66246 0.75313 0.45163 0.0
C1229 C 0.67438 0.78276 0.48987 0.0
C1230 C 0.68957 0.80425 0.50016 0.0
C1231 C 0.67671 0.775 0.46103 0.0
C1232 C 0.70633 0.81837 0.48033 0.0
C1233 C 0.70846 0.81091 0.45131 0.0
H1234 H 0.22541 0.9001 0.40282 0.0
H1235 H 0.28921 0.93082 0.44846 0.0
H1236 H 0.27258 0.91389 0.49742 0.0
H1237 H 0.24025 0.8905 0.52709 0.0
H1238 H 0.17591 0.85934 0.48327 0.0
H1239 H 0.19236 0.87537 0.43322 0.0
C1240 C 0.23551 0.90298 0.4236 0.0
C1241 C 0.25846 0.91622 0.42221 0.0
C1242 C 0.22581 0.89286 0.45166 0.0
C1243 C 0.27153 0.92027 0.44911 0.0
C1244 C 0.26206 0.91063 0.47702 0.0
C1245 C 0.22982 0.8872 0.50654 0.0
C1246 C 0.20694 0.87406 0.50876 0.0
C1247 C 0.23929 0.89681 0.47847 0.0
C1248 C 0.19359 0.86945 0.48197 0.0
C1249 C 0.20297 0.87881 0.45354 0.0
H1250 H 0.0839 0.35535 0.43881 0.0
H1251 H 0.08803 0.30506 0.38636 0.0
H1252 H 0.10627 0.29797 0.43063 0.0
H1253 H 0.11867 0.30456 0.48549 0.0
H1254 H 0.11613 0.35646 0.53662 0.0
H1255 H 0.10006 0.3648 0.49142 0.0
C1256 C 0.08941 0.34332 0.43686 0.0
C1257 C 0.08537 0.33124 0.40921 0.0
C1258 C 0.10005 0.33957 0.46219 0.0
C1259 C 0.09144 0.31484 0.40735 0.0
C1260 C 0.10186 0.31083 0.43259 0.0
C1261 C 0.11524 0.31814 0.48648 0.0
C1262 C 0.11833 0.32964 0.51461 0.0
C1263 C 0.10608 0.32297 0.46027 0.0
C1264 C 0.11354 0.34705 0.51546 0.0
C1265 C 0.1043 0.35182 0.48966 0.0
H1266 H 0.12585 0.36013 0.28356 0.0
H1267 H 0.05704 0.32304 0.25697 0.0
H1268 H 0.06656 0.31468 0.20672 0.0
H1269 H 0.09432 0.32012 0.16889 0.0
H1270 H 0.1631 0.35713 0.19451 0.0
H1271 H 0.1537 0.3628 0.24691 0.0
C1272 C 0.11293 0.35015 0.26683 0.0
C1273 C 0.09075 0.34248 0.27399 0.0
C1274 C 0.1185 0.34527 0.23789 0.0
C1275 C 0.07423 0.32927 0.25214 0.0
C1276 C 0.07965 0.32446 0.22335 0.0
C1277 C 0.10723 0.32919 0.18612 0.0
C1278 C 0.12936 0.33841 0.17787 0.0
C1279 C 0.1017 0.33267 0.21581 0.0
C1280 C 0.14596 0.34985 0.20042 0.0
C1281 C 0.14058 0.35327 0.23022 0.0
H1282 H 0.69355 0.74485 0.2432 0.0
H1283 H 0.64811 0.75702 0.29357 0.0
H1284 H 0.64716 0.78036 0.25138 0.0
H1285 H 0.65851 0.79611 0.19884 0.0
H1286 H 0.70539 0.78485 0.15051 0.0
H1287 H 0.70702 0.76274 0.1934 0.0
C1288 C 0.68381 0.75301 0.24512 0.0
C1289 C 0.67153 0.74997 0.27167 0.0
C1290 C 0.68378 0.76667 0.22125 0.0
C1291 C 0.65804 0.7596 0.27343 0.0
C1292 C 0.6576 0.77299 0.24945 0.0
C1293 C 0.66972 0.78955 0.19845 0.0
C1294 C 0.68212 0.79234 0.17197 0.0
C1295 C 0.67051 0.77675 0.22326 0.0
C1296 C 0.69608 0.78321 0.17106 0.0
C1297 C 0.69674 0.7703 0.1953 0.0
H1298 H 0.25163 0.92601 0.27381 0.0
H1299 H 0.25619 0.86722 0.29167 0.0
H1300 H 0.23719 0.85122 0.24259 0.0
H1301 H 0.22322 0.85559 0.19221 0.0
H1302 H 0.21938 0.91449 0.17315 0.0
H1303 H 0.23383 0.9286 0.22537 0.0
C1304 C 0.24835 0.90963 0.26713 0.0
C1305 C 0.25574 0.89806 0.2863 0.0
C1306 C 0.23748 0.9005 0.23867 0.0
C1307 C 0.25099 0.87669 0.27733 0.0
C1308 C 0.24006 0.86746 0.24923 0.0
C1309 C 0.22481 0.87118 0.19981 0.0
C1310 C 0.22024 0.88399 0.17884 0.0
C1311 C 0.2337 0.87942 0.22943 0.0
C1312 C 0.22284 0.90436 0.18888 0.0
C1313 C 0.23124 0.91248 0.21863 0.0
H1314 H 0.66256 0.90613 0.27942 0.0
H1315 H 0.69079 0.97074 0.23865 0.0
H1316 H 0.69301 0.95559 0.18881 0.0
H1317 H 0.68718 0.92437 0.15705 0.0
H1318 H 0.65837 0.85911 0.19576 0.0
H1319 H 0.65711 0.87417 0.24676 0.0
C1320 C 0.66918 0.91674 0.2595 0.0
C1321 C 0.67699 0.93953 0.26256 0.0
C1322 C 0.67062 0.90788 0.2309 0.0
C1323 C 0.68517 0.95322 0.23675 0.0
C1324 C 0.68641 0.94458 0.20833 0.0
C1325 C 0.68053 0.91339 0.17664 0.0
C1326 C 0.67252 0.89064 0.17264 0.0
C1327 C 0.67934 0.92202 0.20524 0.0
C1328 C 0.66457 0.87669 0.19834 0.0
C1329 C 0.66364 0.88527 0.22733 0.0
H1330 H 0.11755 0.7436 0.27484 0.0
H1331 H 0.06152 0.75295 0.25777 0.0
H1332 H 0.07816 0.77341 0.21103 0.0
H1333 H 0.10737 0.78686 0.17336 0.0
H1334 H 0.16256 0.77605 0.18801 0.0
H1335 H 0.14786 0.75867 0.2378 0.0
C1336 C 0.10899 0.75016 0.26098 0.0
C1337 C 0.08814 0.74644 0.26981 0.0
C1338 C 0.11859 0.76184 0.23378 0.0
C1339 C 0.07744 0.75527 0.25155 0.0
C1340 C 0.08697 0.76708 0.22478 0.0
C1341 C 0.11625 0.78077 0.18751 0.0
C1342 C 0.13593 0.78258 0.17682 0.0
C1343 C 0.10735 0.77017 0.21546 0.0
C1344 C 0.14746 0.77503 0.19573 0.0
C1345 C 0.13892 0.76486 0.22405 0.0
H1346 H 0.25738 0.35743 0.27585 0.0
H1347 H 0.28862 0.32385 0.23486 0.0
H1348 H 0.27224 0.32385 0.18435 0.0
H1349 H 0.24869 0.33254 0.15237 0.0
H1350 H 0.21663 0.36591 0.19146 0.0
H1351 H 0.23293 0.36612 0.24276 0.0
C1352 C 0.26047 0.35015 0.25572 0.0
C1353 C 0.27364 0.34016 0.25885 0.0
C1354 C 0.25071 0.34996 0.22678 0.0
C1355 C 0.27805 0.33112 0.23284 0.0
C1356 C 0.26877 0.33117 0.20406 0.0
C1357 C 0.24545 0.34012 0.17205 0.0
C1358 C 0.23194 0.34966 0.16818 0.0
C1359 C 0.25497 0.34036 0.20088 0.0
C1360 C 0.22719 0.35867 0.19399 0.0
C1361 C 0.2366 0.35889 0.22315 0.0
H1362 H 0.22488 0.29459 0.38911 0.0
H1363 H 0.28152 0.35934 0.40293 0.0
H1364 H 0.26487 0.36528 0.44818 0.0
H1365 H 0.23613 0.35083 0.48677 0.0
H1366 H 0.1812 0.28485 0.47588 0.0
H1367 H 0.19466 0.28122 0.42582 0.0
C1368 C 0.23356 0.31006 0.40188 0.0
C1369 C 0.25464 0.3263 0.39283 0.0
C1370 C 0.22403 0.31332 0.42826 0.0
C1371 C 0.26546 0.34635 0.40955 0.0
C1372 C 0.2559 0.34985 0.4354 0.0
C1373 C 0.22694 0.33576 0.47324 0.0
C1374 C 0.20784 0.31808 0.48534 0.0
C1375 C 0.23545 0.33326 0.44537 0.0
C1376 C 0.19585 0.29884 0.46717 0.0
C1377 C 0.20376 0.29659 0.43871 0.0
H1378 H 0.65998 0.92757 0.40939 0.0
H1379 H 0.72682 0.94207 0.39582 0.0
H1380 H 0.7257 0.92221 0.44288 0.0
H1381 H 0.707 0.9035 0.49016 0.0
H1382 H 0.64054 0.88941 0.5046 0.0
H1383 H 0.6402 0.90613 0.45475 0.0
C1384 C 0.67429 0.92633 0.41659 0.0
C1385 C 0.69355 0.93662 0.39916 0.0
C1386 C 0.6736 0.91489 0.44383 0.0
C1387 C 0.71181 0.93454 0.4088 0.0
C1388 C 0.7112 0.92313 0.43575 0.0
C1389 C 0.69222 0.90352 0.48199 0.0
C1390 C 0.67379 0.89516 0.50096 0.0
C1391 C 0.69233 0.91356 0.45369 0.0
C1392 C 0.65493 0.89576 0.49036 0.0
C1393 C 0.65478 0.90541 0.46197 0.0
H1394 H 0.06118 0.719 0.43046 0.0
H1395 H 0.08614 0.78081 0.3828 0.0
H1396 H 0.10593 0.80089 0.43033 0.0
H1397 H 0.11547 0.80045 0.48637 0.0
H1398 H 0.0909 0.73758 0.53177 0.0
H1399 H 0.07186 0.71833 0.48432 0.0
C1400 C 0.07127 0.73685 0.43043 0.0
C1401 C 0.07291 0.74844 0.40318 0.0
C1402 C 0.08261 0.74807 0.45752 0.0
C1403 C 0.08511 0.7716 0.40357 0.0
C1404 C 0.09642 0.78302 0.43065 0.0
C1405 C 0.10628 0.78256 0.48555 0.0
C1406 C 0.10431 0.77049 0.51264 0.0
C1407 C 0.09537 0.7714 0.45785 0.0
C1408 C 0.09233 0.74727 0.51135 0.0
C1409 C 0.08137 0.73621 0.48427 0.0
H1410 H 0.37074 0.11377 0.7281 0.0
H1411 H 0.31433 0.05336 0.75715 0.0
H1412 H 0.31355 0.0712 0.8052 0.0
H1413 H 0.32985 0.10328 0.84025 0.0
H1414 H 0.38676 0.16343 0.81223 0.0
H1415 H 0.38596 0.14655 0.76226 0.0
C1416 C 0.35826 0.10448 0.7449 0.0
C1417 C 0.34276 0.08213 0.73899 0.0
C1418 C 0.35784 0.11486 0.77263 0.0
C1419 C 0.32654 0.07052 0.76098 0.0
C1420 C 0.32605 0.08071 0.78853 0.0
C1421 C 0.342 0.11274 0.82311 0.0
C1422 C 0.35836 0.13456 0.83006 0.0
C1423 C 0.34175 0.10278 0.79475 0.0
C1424 C 0.37381 0.1467 0.80743 0.0
C1425 C 0.37352 0.13697 0.77896 0.0
H1426 H 0.90197 0.24302 0.74924 0.0
H1427 H 0.96474 0.27611 0.79758 0.0
H1428 H 0.94739 0.25891 0.84607 0.0
H1429 H 0.91479 0.23484 0.87461 0.0
H1430 H 0.85112 0.20261 0.8286 0.0
H1431 H 0.86846 0.21811 0.77881 0.0
C1432 C 0.91171 0.24628 0.77047 0.0
C1433 C 0.93464 0.26022 0.76992 0.0
C1434 C 0.90155 0.23627 0.79839 0.0
C1435 C 0.94716 0.2649 0.79748 0.0
C1436 C 0.93726 0.25515 0.82516 0.0
C1437 C 0.90461 0.2313 0.85374 0.0
C1438 C 0.88165 0.218 0.85536 0.0
C1439 C 0.91453 0.24078 0.82581 0.0
C1440 C 0.86881 0.21291 0.82794 0.0
C1441 C 0.87871 0.22194 0.79961 0.0
H1442 H 0.74724 0.6941 0.76969 0.0
H1443 H 0.75956 0.64852 0.71848 0.0
H1444 H 0.78082 0.64591 0.76263 0.0
H1445 H 0.79282 0.65433 0.81754 0.0
H1446 H 0.78734 0.70641 0.86373 0.0
H1447 H 0.76658 0.70889 0.81965 0.0
C1448 C 0.75552 0.6845 0.76762 0.0
C1449 C 0.75258 0.67224 0.74051 0.0
C1450 C 0.76869 0.68404 0.79233 0.0
C1451 C 0.762 0.65849 0.73898 0.0
C1452 C 0.77422 0.65706 0.76414 0.0
C1453 C 0.78816 0.66705 0.81761 0.0
C1454 C 0.79064 0.67923 0.84497 0.0
C1455 C 0.7775 0.66964 0.79113 0.0
C1456 C 0.78459 0.6958 0.84389 0.0
C1457 C 0.77285 0.69745 0.81848 0.0
H1458 H 0.74967 0.65493 0.61081 0.0
H1459 H 0.78102 0.72579 0.60246 0.0
H1460 H 0.79918 0.72415 0.5557 0.0
H1461 H 0.80399 0.70239 0.51512 0.0
H1462 H 0.77338 0.63172 0.52322 0.0
H1463 H 0.75754 0.63343 0.57264 0.0
C1464 C 0.76048 0.66998 0.5987 0.0
C1465 C 0.7637 0.69042 0.60975 0.0
C1466 C 0.77117 0.66896 0.57206 0.0
C1467 C 0.77815 0.70985 0.59429 0.0
C1468 C 0.78857 0.70894 0.56759 0.0
C1469 C 0.79422 0.68745 0.52813 0.0
C1470 C 0.78977 0.66697 0.51574 0.0
C1471 C 0.78497 0.68858 0.55606 0.0
C1472 C 0.77715 0.64766 0.53259 0.0
C1473 C 0.7679 0.64864 0.56059 0.0
H1474 H 0.30997 0.08551 0.61349 0.0
H1475 H 0.33585 0.04499 0.57901 0.0
H1476 H 0.33831 0.05992 0.52733 0.0
H1477 H 0.33397 0.08461 0.49233 0.0
H1478 H 0.3062 0.12424 0.52341 0.0
H1479 H 0.30468 0.1105 0.5765 0.0
C1480 C 0.31609 0.08005 0.59451 0.0
C1481 C 0.3233 0.06466 0.60001 0.0
C1482 C 0.31745 0.08878 0.56455 0.0
C1483 C 0.33077 0.05726 0.57534 0.0
C1484 C 0.33214 0.06574 0.54581 0.0
C1485 C 0.32719 0.09003 0.51053 0.0
C1486 C 0.31964 0.10497 0.50375 0.0
C1487 C 0.32571 0.08157 0.54026 0.0
C1488 C 0.31193 0.11259 0.52799 0.0
C1489 C 0.3109 0.10458 0.55822 0.0
H1490 H 0.93001 0.2673 0.62055 0.0
H1491 H 0.94086 0.21259 0.64156 0.0
H1492 H 0.9244 0.19557 0.59156 0.0
H1493 H 0.90961 0.19763 0.54027 0.0
H1494 H 0.89914 0.25243 0.5191 0.0
H1495 H 0.9128 0.268 0.57088 0.0
C1496 C 0.92867 0.25157 0.61437 0.0
C1497 C 0.93694 0.24142 0.63476 0.0
C1498 C 0.91934 0.24192 0.58548 0.0
C1499 C 0.93482 0.22093 0.62632 0.0
C1500 C 0.92541 0.21115 0.59768 0.0
C1501 C 0.90986 0.21271 0.54724 0.0
C1502 C 0.90341 0.22389 0.52592 0.0
C1503 C 0.91795 0.22168 0.57688 0.0
C1504 C 0.90419 0.24364 0.53509 0.0
C1505 C 0.91199 0.25253 0.56464 0.0
H1506 H 0.36397 0.2795 0.56584 0.0
H1507 H 0.32502 0.2259 0.62675 0.0
H1508 H 0.31996 0.19907 0.58594 0.0
H1509 H 0.32453 0.19145 0.53098 0.0
H1510 H 0.36591 0.24598 0.4726 0.0
H1511 H 0.37285 0.272 0.51468 0.0
C1512 C 0.35506 0.26194 0.57052 0.0
C1513 C 0.34556 0.25457 0.59938 0.0
C1514 C 0.35277 0.24686 0.54743 0.0
C1515 C 0.33287 0.23182 0.60471 0.0
C1516 C 0.33005 0.21655 0.58148 0.0
C1517 C 0.33576 0.20894 0.52808 0.0
C1518 C 0.34472 0.21691 0.49894 0.0
C1519 C 0.33978 0.2239 0.55256 0.0
C1520 C 0.35898 0.23961 0.49503 0.0
C1521 C 0.36274 0.25448 0.51891 0.0
H1522 H 0.78962 0.09148 0.62519 0.0
H1523 H 0.72697 0.08452 0.59606 0.0
H1524 H 0.74283 0.10317 0.54759 0.0
H1525 H 0.77384 0.11942 0.51218 0.0
H1526 H 0.83574 0.12431 0.54048 0.0
H1527 H 0.82094 0.10917 0.59092 0.0
C1528 C 0.77937 0.09405 0.60835 0.0
C1529 C 0.75701 0.08631 0.61426 0.0
C1530 C 0.78852 0.10463 0.58042 0.0
C1531 C 0.74416 0.09011 0.59216 0.0
C1532 C 0.75323 0.10081 0.5644 0.0
C1533 C 0.78414 0.11727 0.52944 0.0
C1534 C 0.80588 0.12299 0.52238 0.0
C1535 C 0.77529 0.10783 0.5581 0.0
C1536 C 0.81908 0.12041 0.54526 0.0
C1537 C 0.81053 0.11146 0.57405 0.0
H1538 H 0.91336 0.68573 0.61012 0.0
H1539 H 0.94823 0.65543 0.57041 0.0
H1540 H 0.93582 0.65885 0.5186 0.0
H1541 H 0.91221 0.66648 0.48557 0.0
H1542 H 0.87466 0.6945 0.52325 0.0
H1543 H 0.8905 0.69552 0.57514 0.0
C1544 C 0.91834 0.68019 0.58994 0.0
C1545 C 0.93124 0.66995 0.59378 0.0
C1546 C 0.91052 0.68159 0.5601 0.0
C1547 C 0.93793 0.66298 0.56777 0.0
C1548 C 0.93089 0.66495 0.53822 0.0
C1549 C 0.90793 0.67347 0.50489 0.0
C1550 C 0.89263 0.68082 0.5005 0.0
C1551 C 0.91674 0.67365 0.53425 0.0
C1552 C 0.88655 0.68889 0.52609 0.0
C1553 C 0.89565 0.68953 0.55565 0.0
H1554 H 0.88335 0.64901 0.71406 0.0
H1555 H 0.93049 0.63196 0.75233 0.0
H1556 H 0.91694 0.63086 0.80431 0.0
H1557 H 0.89272 0.63564 0.8387 0.0
H1558 H 0.84846 0.65737 0.80294 0.0
H1559 H 0.85916 0.65492 0.74992 0.0
C1560 C 0.89051 0.64502 0.73389 0.0
C1561 C 0.90787 0.6406 0.72969 0.0
C1562 C 0.88307 0.64513 0.76395 0.0
C1563 C 0.91721 0.63555 0.75531 0.0
C1564 C 0.90944 0.63486 0.78491 0.0
C1565 C 0.88564 0.64028 0.81947 0.0
C1566 C 0.87019 0.64722 0.82496 0.0
C1567 C 0.89259 0.63986 0.7895 0.0
C1568 C 0.86044 0.65205 0.79945 0.0
C1569 C 0.86669 0.65082 0.76916 0.0
H1570 H 0.33444 0.26354 0.73722 0.0
H1571 H 0.40309 0.28283 0.72942 0.0
H1572 H 0.40185 0.26372 0.77711 0.0
H1573 H 0.38185 0.24226 0.8216 0.0
H1574 H 0.31373 0.2236 0.83163 0.0
H1575 H 0.31408 0.24144 0.7823 0.0
C1576 C 0.34916 0.26373 0.74613 0.0
C1577 C 0.36883 0.2747 0.7297 0.0
C1578 C 0.34837 0.25253 0.7737 0.0
C1579 C 0.3877 0.27455 0.74146 0.0
C1580 C 0.38703 0.26354 0.76873 0.0
C1581 C 0.36693 0.24162 0.81259 0.0
C1582 C 0.34769 0.2313 0.82978 0.0
C1583 C 0.36747 0.25241 0.78492 0.0
C1584 C 0.32865 0.23123 0.81844 0.0
C1585 C 0.32892 0.24157 0.79044 0.0
H1586 H 0.73297 0.06129 0.77634 0.0
H1587 H 0.75209 0.12163 0.72699 0.0
H1588 H 0.77206 0.14329 0.77348 0.0
H1589 H 0.78388 0.1446 0.82891 0.0
H1590 H 0.76493 0.08331 0.87611 0.0
H1591 H 0.74529 0.06244 0.82979 0.0
C1592 C 0.74174 0.0792 0.77574 0.0
C1593 C 0.74178 0.08996 0.74829 0.0
C1594 C 0.75324 0.09132 0.80219 0.0
C1595 C 0.7523 0.11311 0.74793 0.0
C1596 C 0.76375 0.12543 0.7744 0.0
C1597 C 0.77587 0.12672 0.82862 0.0
C1598 C 0.77583 0.11546 0.85574 0.0
C1599 C 0.76452 0.11469 0.80167 0.0
C1600 C 0.76514 0.09227 0.8554 0.0
C1601 C 0.75376 0.08032 0.82907 0.0
H1602 H 0.0531 0.34556 0.00802 0.0
H1603 H 0.07611 0.40744 0.05646 0.0
H1604 H 0.10555 0.4034 0.08169 0.0
H1605 H 0.12402 0.38184 0.09131 0.0
H1606 H 0.10196 0.32008 0.04312 0.0
H1607 H 0.07346 0.32479 0.01551 0.0
C1608 C 0.06447 0.35794 0.02438 0.0
C1609 C 0.06227 0.37653 0.03103 0.0
C1610 C 0.08178 0.35577 0.03823 0.0
C1611 C 0.07739 0.39286 0.05148 0.0
C1612 C 0.09429 0.39064 0.0657 0.0
C1613 C 0.1132 0.36962 0.07432 0.0
C1614 C 0.11507 0.35068 0.06918 0.0
C1615 C 0.09662 0.37218 0.05928 0.0
C1616 C 0.10102 0.33495 0.04713 0.0
C1617 C 0.08451 0.33749 0.03173 0.0
H1618 H 0.65575 0.71112 0.00595 0.0
H1619 H 0.61007 0.67334 0.07679 0.0
H1620 H 0.61039 0.70648 0.09587 0.0
H1621 H 0.62666 0.74637 0.09641 0.0
H1622 H 0.67781 0.78566 0.03283 0.0
H1623 H 0.67146 0.75206 0.0056 0.0
C1624 C 0.64584 0.71029 0.02543 0.0
C1625 C 0.63309 0.69 0.04029 0.0
C1626 C 0.64686 0.72969 0.0372 0.0
C1627 C 0.62026 0.68892 0.06544 0.0
C1628 C 0.62031 0.7078 0.07616 0.0
C1629 C 0.63619 0.74762 0.07624 0.0
C1630 C 0.65294 0.76848 0.06705 0.0
C1631 C 0.63394 0.72831 0.06274 0.0
C1632 C 0.66477 0.76985 0.04042 0.0
C1633 C 0.66144 0.75058 0.02523 0.0
H1634 H 0.31223 0.95271 0.00768 0.0
H1635 H 0.34376 0.97588 0.09763 0.0
H1636 H 0.31172 0.9472 0.12266 0.0
H1637 H 0.27537 0.91565 0.11983 0.0
H1638 H 0.24064 0.89335 0.03191 0.0
H1639 H 0.27354 0.92093 0.00525 0.0
C1640 C 0.31196 0.95147 0.03273 0.0
C1641 C 0.33043 0.96658 0.0507 0.0
C1642 C 0.29302 0.93496 0.04737 0.0
C1643 C 0.3298 0.96473 0.08316 0.0
C1644 C 0.31149 0.94821 0.09759 0.0
C1645 C 0.27459 0.91703 0.09485 0.0
C1646 C 0.25519 0.90271 0.07809 0.0
C1647 C 0.29306 0.93333 0.08 0.0
C1648 C 0.25523 0.90418 0.04554 0.0
C1649 C 0.27402 0.92007 0.03031 0.0
H1650 H 0.40494 0.09631 0.00708 0.0
H1651 H 0.34922 0.03657 0.97134 0.0
H1652 H 0.335 0.05844 0.94553 0.0
H1653 H 0.34052 0.0946 0.92851 0.0
H1654 H 0.39765 0.15408 0.9618 0.0
H1655 H 0.40863 0.1322 0.994 0.0
C1656 C 0.38958 0.08797 0.99386 0.0
C1657 C 0.37841 0.06477 0.99078 0.0
C1658 C 0.38164 0.10064 0.97872 0.0
C1659 C 0.35831 0.05437 0.97397 0.0
C1660 C 0.35017 0.06688 0.95914 0.0
C1661 C 0.35526 0.10281 0.94307 0.0
C1662 C 0.36832 0.12602 0.94234 0.0
C1663 C 0.36202 0.09005 0.96065 0.0
C1664 C 0.3871 0.13633 0.96194 0.0
C1665 C 0.39359 0.12378 0.9801 0.0
H1666 H 0.93354 0.30938 0.01394 0.0
H1667 H 0.98416 0.30101 0.97125 0.0
H1668 H 0.95724 0.2632 0.95633 0.0
H1669 H 0.9189 0.23496 0.94815 0.0
H1670 H 0.86723 0.24438 0.98432 0.0
H1671 H 0.89472 0.27892 0.00987 0.0
C1672 C 0.93867 0.29901 0.0021 0.0
C1673 C 0.96079 0.3079 0.9937 0.0
C1674 C 0.92283 0.27749 0.99234 0.0
C1675 C 0.96724 0.29451 0.97787 0.0
C1676 C 0.95184 0.27291 0.96931 0.0
C1677 C 0.91371 0.24424 0.96258 0.0
C1678 C 0.89115 0.23713 0.96469 0.0
C1679 C 0.92953 0.26454 0.97544 0.0
C1680 C 0.8845 0.24939 0.98285 0.0
C1681 C 0.90025 0.26927 -0.00298 0.0
H1682 H 0.70057 0.62934 0.02272 0.0
H1683 H 0.67397 0.65031 0.94709 0.0
H1684 H 0.70611 0.65909 0.91647 0.0
H1685 H 0.73939 0.6576 0.90967 0.0
H1686 H 0.77043 0.64323 0.98732 0.0
H1687 H 0.73812 0.63381 0.01826 0.0
C1688 C 0.70212 0.63624 -0.00024 0.0
C1689 C 0.68499 0.63922 0.98708 0.0
C1690 C 0.72102 0.64186 0.9825 0.0
C1691 C 0.68706 0.64814 0.95738 0.0
C1692 C 0.70532 0.65295 0.93979 0.0
C1693 C 0.74003 0.65353 0.93376 0.0
C1694 C 0.75802 0.65171 0.94595 0.0
C1695 C 0.72219 0.64956 0.95197 0.0
C1696 C 0.75702 0.64471 0.97684 0.0
C1697 C 0.73857 0.63951 0.99475 0.0
H1698 H 0.94297 0.64105 0.99581 0.0
H1699 H 0.98936 0.68839 0.93284 0.0
H1700 H 0.96126 0.69676 0.91293 0.0
H1701 H 0.92264 0.68725 0.90878 0.0
H1702 H 0.87487 0.63536 0.96553 0.0
H1703 H 0.90436 0.63311 0.99368 0.0
C1704 C 0.947 0.65352 0.97818 0.0
C1705 C 0.96821 0.6641 0.96576 0.0
C1706 C 0.93043 0.65748 0.96579 0.0
C1707 C 0.97315 0.67999 0.94264 0.0
C1708 C 0.95707 0.68476 0.93127 0.0
C1709 C 0.91859 0.67547 0.92739 0.0
C1710 C 0.89634 0.66115 0.93436 0.0
C1711 C 0.93548 0.67307 0.94192 0.0
C1712 C 0.89169 0.64667 0.95948 0.0
C1713 C 0.90859 0.6451 0.97533 0.0
H1714 H 0.35315 0.31562 0.97783 0.0
H1715 H 0.42177 0.33452 0.98968 0.0
H1716 H 0.4141 0.29841 0.97157 0.0
H1717 H 0.38894 0.26282 0.94738 0.0
H1718 H 0.32059 0.2436 0.93365 0.0
H1719 H 0.32703 0.27809 0.95809 0.0
C1720 C 0.36641 0.31182 0.97659 0.0
C1721 C 0.38807 0.32808 0.98473 0.0
C1722 C 0.36193 0.29081 0.96601 0.0
C1723 C 0.40495 0.3226 0.9833 0.0
C1724 C 0.4006 0.30183 0.97302 0.0
C1725 C 0.37529 0.2658 0.95074 0.0
C1726 C 0.35431 0.25061 0.93887 0.0
C1727 C 0.37927 0.28595 0.96379 0.0
C1728 C 0.33689 0.255 0.94276 0.0
C1729 C 0.34062 0.27483 0.95642 0.0
H1730 H 0.7049 0.04536 0.01496 0.0
H1731 H 0.6632 0.0654 0.96626 0.0
H1732 H 0.69526 0.09965 0.95073 0.0
H1733 H 0.73489 0.12135 0.94491 0.0
H1734 H 0.77731 0.09996 0.9879 0.0
H1735 H 0.74568 0.0696 0.01294 0.0
C1736 C 0.70298 0.05745 0.00134 0.0
C1737 C 0.68183 0.05293 0.99149 0.0
C1738 C 0.72168 0.07698 0.99169 0.0
C1739 C 0.67939 0.06856 0.9738 0.0
C1740 C 0.6977 0.08816 0.96502 0.0
C1741 C 0.73727 0.11042 0.96054 0.0
C1742 C 0.75839 0.11285 0.96438 0.0
C1743 C 0.7189 0.09224 0.97305 0.0
C1744 C 0.76128 0.09861 0.98475 0.0
C1745 C 0.74309 0.08097 -0.0014 0.0
H1746 H 0.65779 0.95937 0.01048 0.0
H1747 H 0.59094 0.9221 0.04093 0.0
H1748 H 0.59827 0.89398 0.0625 0.0
H1749 H 0.62408 0.88105 0.07604 0.0
H1750 H 0.69094 0.91729 0.04633 0.0
H1751 H 0.68316 0.94422 0.02027 0.0
C1752 C 0.64494 0.9451 0.02192 0.0
C1753 C 0.62393 0.94295 0.02441 0.0
C1754 C 0.64915 0.92858 0.0339 0.0
C1755 C 0.60727 0.92418 0.03879 0.0
C1756 C 0.6114 0.90802 0.05106 0.0
C1757 C 0.63672 0.89448 0.06298 0.0
C1758 C 0.65793 0.8971 0.06271 0.0
C1759 C 0.63226 0.9101 0.04896 0.0
C1760 C 0.67435 0.91473 0.04624 0.0
C1761 C 0.66999 0.93032 0.03184 0.0
H1762 H 0.04803 0.70917 0.02674 0.0
H1763 H 0.09738 0.69603 0.98951 0.0
H1764 H 0.12628 0.73101 0.00984 0.0
H1765 H 0.13791 0.76287 0.04422 0.0
H1766 H 0.08938 0.77635 0.08276 0.0
H1767 H 0.06006 0.74425 0.05531 0.0
C1768 C 0.06508 0.71408 0.02274 0.0
C1769 C 0.07034 0.69956 0.00721 0.0
C1770 C 0.08193 0.73442 0.03471 0.0
C1771 C 0.09264 0.70647 0.00194 0.0
C1772 C 0.10932 0.72662 0.01345 0.0
C1773 C 0.12101 0.75929 0.04566 0.0
C1774 C 0.11584 0.7719 0.0656 0.0
C1775 C 0.10421 0.74042 0.03066 0.0
C1776 C 0.09377 0.76682 0.06758 0.0
C1777 C 0.07697 0.74834 0.05214 0.0
H1778 H 0.31367 0.37977 -0.00053 0.0
H1779 H 0.32291 0.33784 0.06486 0.0
H1780 H 0.28621 0.3251 0.08463 0.0
H1781 H 0.2536 0.32911 0.08777 0.0
H1782 H 0.24537 0.37405 0.02749 0.0
H1783 H 0.27907 0.38187 0.00047 0.0
C1784 C 0.30744 0.36757 0.01768 0.0
C1785 C 0.32103 0.3598 0.0308 0.0
C1786 C 0.28648 0.36086 0.02975 0.0
C1787 C 0.31286 0.34418 0.05457 0.0
C1788 C 0.29186 0.33686 0.06584 0.0
C1789 C 0.25893 0.34023 0.06818 0.0
C1790 C 0.24707 0.35101 0.05958 0.0
C1791 C 0.27881 0.34552 0.0542 0.0
C1792 C 0.25411 0.36541 0.03431 0.0
C1793 C 0.27354 0.37008 0.0192 0.0
H1794 H 0.71804 0.68098 0.34857 0.0
H1795 H 0.75234 0.74615 0.38975 0.0
H1796 H 0.77945 0.73801 0.41346 0.0
H1797 H 0.79245 0.71195 0.42483 0.0
H1798 H 0.75908 0.64675 0.38425 0.0
H1799 H 0.73307 0.65546 0.35706 0.0
C1800 C 0.7314 0.69327 0.36289 0.0
C1801 C 0.73304 0.71403 0.36777 0.0
C1802 C 0.74733 0.68863 0.37603 0.0
C1803 C 0.75068 0.73002 0.3858 0.0
C1804 C 0.76625 0.72543 0.39927 0.0
C1805 C 0.77978 0.69986 0.40942 0.0
C1806 C 0.77767 0.67882 0.40636 0.0
C1807 C 0.76469 0.7048 0.39467 0.0
C1808 C 0.76117 0.66318 0.38653 0.0
C1809 C 0.74612 0.66805 0.37141 0.0
H1810 H 0.29362 0.01442 0.34024 0.0
H1811 H 0.34074 0.01355 0.40576 0.0
H1812 H 0.35059 0.05054 0.42376 0.0
H1813 H 0.34258 0.08087 0.42567 0.0
H1814 H 0.29345 0.08121 0.36409 0.0
H1815 H 0.28791 0.04701 0.3391 0.0
C1816 C 0.30634 0.02255 0.35801 0.0
C1817 C 0.31636 0.01121 0.37182 0.0
C1818 C 0.31147 0.04368 0.36898 0.0
C1819 C 0.33268 0.02185 0.39498 0.0
C1820 C 0.33833 0.043 0.40528 0.0
C1821 C 0.33101 0.07368 0.40626 0.0
C1822 C 0.31838 0.08339 0.39667 0.0
C1823 C 0.32736 0.05374 0.39313 0.0
C1824 C 0.30342 0.07404 0.37164 0.0
C1825 C 0.30013 0.0544 0.35765 0.0
H1826 H 0.98422 0.277 0.34908 0.0
H1827 H 0.98831 0.33109 0.40275 0.0
H1828 H 0.95279 0.30635 0.42564 0.0
H1829 H 0.92297 0.26884 0.4347 0.0
H1830 H 0.92279 0.21388 0.38795 0.0
H1831 H 0.9534 0.23942 0.35686 0.0
C1832 C 0.97707 0.28341 0.36531 0.0
C1833 C 0.98876 0.30582 0.3742 0.0
C1834 C 0.95722 0.26885 0.37957 0.0
C1835 C 0.97957 0.31389 0.39563 0.0
C1836 C 0.9593 0.29974 0.40872 0.0
C1837 C 0.9296 0.2623 0.41785 0.0
C1838 C 0.9206 0.23923 0.41445 0.0
C1839 C 0.94835 0.27706 0.40162 0.0
C1840 C 0.929 0.23139 0.3913 0.0
C1841 C 0.94685 0.24605 0.3737 0.0
H1842 H 0.02262 0.38122 0.31616 0.0
H1843 H 0.0922 0.42803 0.31995 0.0
H1844 H 0.08532 0.45639 0.29821 0.0
H1845 H 0.06005 0.46732 0.27407 0.0
H1846 H 0.99066 0.42074 0.26897 0.0
H1847 H 0.99693 0.39316 0.29568 0.0
C1848 C 0.03629 0.39763 0.31233 0.0
C1849 C 0.05793 0.40224 0.31942 0.0
C1850 C 0.03226 0.41406 0.29972 0.0
C1851 C 0.07536 0.42378 0.31457 0.0
C1852 C 0.07147 0.44013 0.30216 0.0
C1853 C 0.04624 0.45136 0.27966 0.0
C1854 C 0.02492 0.44613 0.26972 0.0
C1855 C 0.05004 0.4354 0.29425 0.0
C1856 C 0.00723 0.42518 0.27651 0.0
C1857 C 0.01083 0.40935 0.29155 0.0
H1858 H 0.60827 0.64707 0.33927 0.0
H1859 H 0.65834 0.64637 0.28344 0.0
H1860 H 0.6326 0.60867 0.26632 0.0
H1861 H 0.59511 0.57796 0.26223 0.0
H1862 H 0.54327 0.58009 0.31138 0.0
H1863 H 0.57043 0.61471 0.3372 0.0
C1864 C 0.61357 0.63847 0.32373 0.0
C1865 C 0.63517 0.64947 0.31252 0.0
C1866 C 0.59835 0.61703 0.313 0.0
C1867 C 0.6418 0.63831 0.29217 0.0
C1868 C 0.6271 0.61675 0.28246 0.0
C1869 C 0.58985 0.58575 0.27925 0.0
C1870 C 0.56727 0.57655 0.28501 0.0
C1871 C 0.60525 0.60621 0.29209 0.0
C1872 C 0.56057 0.58675 0.30688 0.0
C1873 C 0.57608 0.6067 0.32121 0.0
H1874 H 0.36316 0.98121 0.33077 0.0
H1875 H 0.34376 0.9122 0.3212 0.0
H1876 H 0.3797 0.92193 0.30132 0.0
H1877 H 0.41587 0.94989 0.2834 0.0
H1878 H 0.43561 0.01888 0.2926 0.0
H1879 H 0.40063 0.00936 0.31639 0.0
C1880 C 0.3668 0.96833 0.32423 0.0
C1881 C 0.35066 0.94602 0.32717 0.0
C1882 C 0.38769 0.97402 0.31307 0.0
C1883 C 0.35581 0.92952 0.31911 0.0
C1884 C 0.3764 0.93505 0.30778 0.0
C1885 C 0.41276 0.96283 0.29148 0.0
C1886 C 0.42831 0.98503 0.28641 0.0
C1887 C 0.39242 0.95722 0.30444 0.0
C1888 C 0.42387 1.00164 0.29639 0.0
C1889 C 0.40381 0.99621 0.30972 0.0
H1890 H 0.60706 0.9652 0.33851 0.0
H1891 H 0.65783 0.02247 0.29354 0.0
H1892 H 0.63085 0.03302 0.27596 0.0
H1893 H 0.59248 0.02319 0.26712 0.0
H1894 H 0.54099 0.96284 0.30504 0.0
H1895 H 0.56841 0.95692 0.33294 0.0
C1896 C 0.61221 0.98022 0.32542 0.0
C1897 C 0.63434 0.99301 0.31715 0.0
C1898 C 0.59639 0.98564 0.31417 0.0
C1899 C 0.64083 0.0123 0.29993 0.0
C1900 C 0.62542 0.01834 0.28991 0.0
C1901 C 0.5872 0.00884 0.28177 0.0
C1902 C 0.56466 0.99328 0.28336 0.0
C1903 C 0.60307 0.0047 0.29591 0.0
C1904 C 0.55816 0.97517 0.30329 0.0
C1905 C 0.57389 0.97157 0.31891 0.0
H1906 H 0.05916 0.64662 0.33014 0.0
H1907 H 0.00571 0.64989 0.28294 0.0
H1908 H 0.99429 0.61419 0.25808 0.0
H1909 H 1.00183 0.58408 0.24568 0.0
H1910 H 0.05704 0.58268 0.29026 0.0
H1911 H 0.06472 0.61504 0.3212 0.0
C1912 C 0.04492 0.63956 0.31453 0.0
C1913 C 0.03359 0.65125 0.30802 0.0
C1914 C 0.0386 0.61918 0.30005 0.0
C1915 C 0.01492 0.64147 0.28819 0.0
C1916 C 0.00836 0.62102 0.27396 0.0
C1917 C 0.01542 0.5907 0.26243 0.0
C1918 C 0.02899 0.581 0.26522 0.0
C1919 C 0.02042 0.61001 0.27913 0.0
C1920 C 0.04617 0.58954 0.28763 0.0
C1921 C 0.05081 0.60832 0.30505 0.0
H1922 H 0.36848 0.40514 0.33874 0.0
H1923 H 0.37239 0.35331 0.28965 0.0
H1924 H 0.40893 0.37981 0.2719 0.0
H1925 H 0.43706 0.41808 0.26405 0.0
H1926 H 0.4319 0.47092 0.30739 0.0
H1927 H 0.39892 0.44384 0.33443 0.0
C1928 C 0.37762 0.39965 0.32476 0.0
C1929 C 0.3678 0.37733 0.31541 0.0
C1930 C 0.39833 0.41522 0.31355 0.0
C1931 C 0.3796 0.37041 0.29696 0.0
C1932 C 0.40046 0.38555 0.28681 0.0
C1933 C 0.42902 0.4236 0.28015 0.0
C1934 C 0.43679 0.44634 0.28392 0.0
C1935 C 0.40962 0.40805 0.29407 0.0
C1936 C 0.42626 0.45347 0.30448 0.0
C1937 C 0.40729 0.43797 0.31957 0.0
H1938 H 0.27692 0.24867 0.34413 0.0
H1939 H 0.33742 0.3059 0.37483 0.0
H1940 H 0.35074 0.28197 0.39566 0.0
H1941 H 0.34438 0.24513 0.40846 0.0
H1942 H 0.28343 0.18763 0.3814 0.0
H1943 H 0.27137 0.21132 0.35475 0.0
C1944 C 0.29304 0.25597 0.35534 0.0
C1945 C 0.30601 0.27919 0.35818 0.0
C1946 C 0.30062 0.24205 0.36751 0.0
C1947 C 0.32694 0.2882 0.37254 0.0
C1948 C 0.33464 0.27451 0.38435 0.0
C1949 C 0.32861 0.23778 0.39615 0.0
C1950 C 0.31476 0.21473 0.39678 0.0
C1951 C 0.32153 0.25148 0.38229 0.0
C1952 C 0.2944 0.20531 0.3809 0.0
C1953 C 0.28745 0.21889 0.36609 0.0
H1954 H 0.76224 0.03671 0.34734 0.0
H1955 H 0.70397 0.03346 0.38493 0.0
H1956 H 0.72653 0.06932 0.41027 0.0
H1957 H 0.76299 0.1 0.42524 0.0
H1958 H 0.82109 0.10115 0.39081 0.0
H1959 H 0.79827 0.06832 0.3596 0.0
C1960 C 0.75435 0.04379 0.36097 0.0
C1961 C 0.73139 0.03211 0.36458 0.0
C1962 C 0.76741 0.06426 0.37576 0.0
C1963 C 0.72159 0.04187 0.38198 0.0
C1964 C 0.73449 0.06243 0.39644 0.0
C1965 C 0.7707 0.09317 0.41076 0.0
C1966 C 0.79382 0.10306 0.41079 0.0
C1967 C 0.75745 0.07355 0.39401 0.0
C1968 C 0.80343 0.09422 0.39118 0.0
C1969 C 0.79036 0.07516 0.37362 0.0
H1970 H 0.96435 0.6642 0.36651 0.0
H1971 H 0.98306 0.72879 0.3307 0.0
H1972 H 0.9477 0.72483 0.34537 0.0
H1973 H 0.91345 0.70481 0.37476 0.0
H1974 H 0.89365 0.63926 0.40728 0.0
H1975 H 0.92696 0.64137 0.3868 0.0
C1976 C 0.96045 0.67719 0.36151 0.0
C1977 C 0.97631 0.69687 0.34802 0.0
C1978 C 0.93981 0.67454 0.36922 0.0
C1979 C 0.97107 0.71351 0.34118 0.0
C1980 C 0.95088 0.71128 0.34961 0.0
C1981 C 0.91602 0.69067 0.37602 0.0
C1982 C 0.90105 0.6718 0.39207 0.0
C1983 C 0.93532 0.69208 0.36435 0.0
C1984 C 0.90475 0.65374 0.39436 0.0
C1985 C 0.92398 0.65509 0.38313 0.0
H1986 H 0.4056 0.04387 0.67314 0.0
H1987 H 0.34953 0.99688 0.72428 0.0
H1988 H 0.37196 0.98273 0.74866 0.0
H1989 H 0.40819 0.98608 0.75908 0.0
H1990 H 0.46443 0.03344 0.70904 0.0
H1991 H 0.44108 0.04474 0.67991 0.0
C1992 C 0.39819 0.03045 0.68951 0.0
C1993 C 0.37592 0.02171 0.69723 0.0
C1994 C 0.41121 0.02242 0.70349 0.0
C1995 C 0.3666 0.00404 0.71804 0.0
C1996 C 0.37944 0.99595 0.73202 0.0
C1997 C 0.41524 0.99864 0.74141 0.0
C1998 C 0.43802 0.00909 0.73634 0.0
C1999 C 0.40183 0.00533 0.72541 0.0
C2000 C 0.44695 0.02513 0.71321 0.0
C2001 C 0.43364 0.03172 0.69684 0.0
H2002 H 0.96229 0.35555 0.68444 0.0
H2003 H 0.01521 0.36205 0.74484 0.0
H2004 H 0.02458 0.39985 0.75786 0.0
H2005 H 0.0145 0.4288 0.75798 0.0
H2006 H 0.95861 0.4209 0.70385 0.0
H2007 H 0.95395 0.38632 0.68152 0.0
C2008 C 0.97612 0.36545 0.69996 0.0
C2009 C 0.98801 0.35604 0.71381 0.0
C2010 C 0.98088 0.38696 0.7083 0.0
C2011 C 0.00573 0.36889 0.73413 0.0
C2012 C 0.01112 0.39051 0.74152 0.0
C2013 C 1.00184 0.41987 0.74035 0.0
C2014 C 0.98715 0.42744 0.73202 0.0
C2015 C 0.99842 0.39944 0.72948 0.0
C2016 C 0.97036 0.41555 0.70998 0.0
C2017 C 0.96752 0.39564 0.69767 0.0
H2018 H 0.64055 0.64204 0.71281 0.0
H2019 H 0.66013 0.60003 0.66621 0.0
H2020 H 0.62541 0.56743 0.67912 0.0
H2021 H 0.59159 0.55061 0.70975 0.0
H2022 H 0.57102 0.59282 0.75348 0.0
H2023 H 0.60345 0.62549 0.73475 0.0
C2024 C 0.63703 0.62576 0.70518 0.0
C2025 C 0.65299 0.62336 0.6891 0.0
C2026 C 0.61674 0.60709 0.712 0.0
C2027 C 0.64811 0.60225 0.67879 0.0
C2028 C 0.62826 0.58359 0.68617 0.0
C2029 C 0.59374 0.56692 0.71406 0.0
C2030 C 0.57904 0.56927 0.73333 0.0
C2031 C 0.61265 0.58573 0.70347 0.0
C2032 C 0.58218 0.59058 0.73887 0.0
C2033 C 0.60088 0.6093 0.72848 0.0
H2034 H 0.72855 0.75636 0.67231 0.0
H2035 H 0.6767 0.69859 0.62607 0.0
H2036 H 0.66217 0.72115 0.60321 0.0
H2037 H 0.66644 0.75782 0.59228 0.0
H2038 H 0.72018 0.81564 0.63566 0.0
H2039 H 0.73098 0.79234 0.6648 0.0
C2040 C 0.714 0.74858 0.65732 0.0
C2041 C 0.70401 0.72578 0.6505 0.0
C2042 C 0.70588 0.76167 0.644 0.0
C2043 C 0.6849 0.71607 0.63151 0.0
C2044 C 0.67656 0.72899 0.61845 0.0
C2045 C 0.6804 0.76534 0.60836 0.0
C2046 C 0.69262 0.78859 0.61131 0.0
C2047 C 0.68724 0.75189 0.62394 0.0
C2048 C 0.71029 0.79791 0.63292 0.0
C2049 C 0.71673 0.78457 0.64929 0.0
H2050 H 0.2774 0.95064 0.67648 0.0
H2051 H 0.26124 0.99194 0.61972 0.0
H2052 H 0.22799 0.95955 0.60013 0.0
H2053 H 0.20592 0.91961 0.59453 0.0
H2054 H 0.22401 0.87743 0.64562 0.0
H2055 H 0.25323 0.90968 0.67318 0.0
C2056 C 0.26639 0.95239 0.6601 0.0
C2057 C 0.27168 0.97351 0.6493 0.0
C2058 C 0.24752 0.93351 0.64817 0.0
C2059 C 0.25746 0.97576 0.62806 0.0
C2060 C 0.23844 0.95728 0.61697 0.0
C2061 C 0.21599 0.91742 0.61216 0.0
C2062 C 0.21291 0.89615 0.61773 0.0
C2063 C 0.2336 0.93607 0.62625 0.0
C2064 C 0.22588 0.89357 0.64097 0.0
C2065 C 0.24287 0.91208 0.65635 0.0
H2066 H 0.03036 0.26718 0.68222 0.0
H2067 H 0.0339 0.33004 0.66504 0.0
H2068 H 0.0689 0.34304 0.63951 0.0
H2069 H 0.09685 0.33557 0.61835 0.0
H2070 H 0.09144 0.27155 0.63134 0.0
H2071 H 0.05947 0.26045 0.66347 0.0
C2072 C 0.03883 0.28381 0.67316 0.0
C2073 C 0.02927 0.29749 0.67531 0.0
C2074 C 0.05879 0.29107 0.65799 0.0
C2075 C 0.04065 0.31902 0.66345 0.0
C2076 C 0.06073 0.32651 0.64891 0.0
C2077 C 0.08876 0.3192 0.62833 0.0
C2078 C 0.0965 0.30436 0.62201 0.0
C2079 C 0.0697 0.31252 0.64547 0.0
C2080 C 0.0861 0.28344 0.63589 0.0
C2081 C 0.06756 0.27695 0.65395 0.0
H2082 H 0.2925 0.31945 0.66 0.0
H2083 H 0.31091 0.30538 0.57144 0.0
H2084 H 0.27942 0.30496 0.54652 0.0
H2085 H 0.2464 0.3071 0.54925 0.0
H2086 H 0.22839 0.32565 0.63449 0.0
H2087 H 0.25936 0.32477 0.66159 0.0
C2088 C 0.28966 0.31652 0.63523 0.0
C2089 C 0.30419 0.31249 0.61768 0.0
C2090 C 0.27144 0.31675 0.62051 0.0
C2091 C 0.30025 0.30872 0.5856 0.0
C2092 C 0.2821 0.30832 0.57123 0.0
C2093 C 0.24945 0.31175 0.57358 0.0
C2094 C 0.23531 0.31716 0.58944 0.0
C2095 C 0.26763 0.31222 0.58841 0.0
C2096 C 0.23902 0.32161 0.62148 0.0
C2097 C 0.25685 0.32125 0.63693 0.0
H2098 H 0.67816 0.98135 0.64849 0.0
H2099 H 0.74545 0.9976 0.66781 0.0
H2100 H 0.73764 0.96169 0.6488 0.0
H2101 H 0.71304 0.92704 0.62225 0.0
H2102 H 0.64601 0.9102 0.60124 0.0
H2103 H 0.65227 0.94459 0.62587 0.0
C2104 C 0.69109 0.97701 0.64861 0.0
C2105 C 0.71244 0.99246 0.65926 0.0
C2106 C 0.68653 0.95607 0.63754 0.0
C2107 C 0.72887 0.98631 0.65958 0.0
C2108 C 0.72445 0.96565 0.64877 0.0
C2109 C 0.69956 0.93049 0.624 0.0
C2110 C 0.67908 0.91603 0.61005 0.0
C2111 C 0.70348 0.95054 0.63727 0.0
C2112 C 0.66194 0.92106 0.61191 0.0
C2113 C 0.66558 0.94082 0.62571 0.0
H2114 H 0.0215 0.72212 0.67569 0.0
H2115 H 0.02402 0.67028 0.62462 0.0
H2116 H 0.06125 0.6962 0.60846 0.0
H2117 H 0.09019 0.73427 0.60188 0.0
H2118 H 0.08596 0.78739 0.64605 0.0
H2119 H 0.05274 0.7605 0.67279 0.0
C2120 C 0.03052 0.71649 0.66171 0.0
C2121 C 0.02017 0.69436 0.65134 0.0
C2122 C 0.05156 0.7318 0.65123 0.0
C2123 C 0.03171 0.68724 0.63277 0.0
C2124 C 0.05296 0.70205 0.62352 0.0
C2125 C 0.08234 0.73988 0.6182 0.0
C2126 C 0.09043 0.76267 0.62221 0.0
C2127 C 0.06266 0.72447 0.63165 0.0
C2128 C 0.08012 0.76991 0.64298 0.0
C2129 C 0.06098 0.75452 0.65785 0.0
H2130 H 0.98141 0.60773 0.66719 0.0
H2131 H 0.9145 0.57376 0.69783 0.0
H2132 H 0.92015 0.54469 0.72043 0.0
H2133 H 0.94547 0.53153 0.73713 0.0
H2134 H 0.01218 0.56485 0.7063 0.0
H2135 H 1.00513 0.59103 0.67703 0.0
C2136 C 0.9681 0.59386 0.67867 0.0
C2137 C 0.94772 0.59305 0.68144 0.0
C2138 C 0.97134 0.57693 0.69111 0.0
C2139 C 0.93039 0.57479 0.69569 0.0
C2140 C 0.93358 0.55814 0.70854 0.0
C2141 C 0.95811 0.54394 0.72283 0.0
C2142 C 0.97921 0.54623 0.72355 0.0
C2143 C 0.9541 0.55928 0.70697 0.0
C2144 C 0.99569 0.56257 0.70552 0.0
C2145 C 0.99178 0.5778 0.68933 0.0
H2146 H 0.38329 0.37072 0.68205 0.0
H2147 H 0.43719 0.36218 0.65174 0.0
H2148 H 0.46335 0.39882 0.67052 0.0
H2149 H 0.47134 0.43079 0.70214 0.0
H2150 H 0.41844 0.44073 0.73247 0.0
H2151 H 0.39168 0.40632 0.70666 0.0
C2152 C 0.40073 0.37699 0.67916 0.0
C2153 C 0.40811 0.36329 0.6662 0.0
C2154 C 0.41599 0.39835 0.69015 0.0
C2155 C 0.43085 0.37197 0.66224 0.0
C2156 C 0.44596 0.39306 0.67289 0.0
C2157 C 0.45406 0.42601 0.70219 0.0
C2158 C 0.447 0.43825 0.71978 0.0
C2159 C 0.43877 0.40609 0.68778 0.0
C2160 C 0.42439 0.43144 0.71966 0.0
C2161 C 0.40903 0.41169 0.70499 0.0
H2162 H 0.64228 0.05075 0.67287 0.0
H2163 H 0.64276 0.99728 0.72298 0.0
H2164 H 0.6048 0.98379 0.73801 0.0
H2165 H 0.57371 0.99017 0.74322 0.0
H2166 H 0.57479 0.04667 0.70064 0.0
H2167 H 0.60937 0.05566 0.67532 0.0
C2168 C 0.63385 0.03591 0.68657 0.0
C2169 C 0.64526 0.02498 0.69687 0.0
C2170 C 0.61224 0.0288 0.69631 0.0
C2171 C 0.63434 0.00599 0.71496 0.0
C2172 C 0.61264 0.99826 0.7235 0.0
C2173 C 0.58115 0.00398 0.72742 0.0
C2174 C 0.57162 0.01757 0.72335 0.0
C2175 C 0.60169 0.00989 0.71509 0.0
C2176 C 0.5816 0.03574 0.70356 0.0
C2177 C 0.60156 0.04106 0.68958 0.0
loop_
_geom_bond_atom_site_label_1
_geom_bond_atom_site_label_2
_geom_bond_distance
_geom_bond_site_symmetry_2
_ccdc_geom_bond_type
Mn0 O5 2.095 1_655 S
Mn0 O15 2.162 . S
Mn0 O16 2.297 1_554 S
Mn0 O24 2.385 1_554 S
Mn0 O25 2.209 1_654 S
Mn0 O26 2.094 . S
Mn1 O6 2.121 . S
Mn1 N8 2.257 1_554 S
Mn1 N17 2.282 1_554 S
Mn1 O25 2.215 1_554 S
Mn1 O27 2.117 . S
C2 O24 1.234 1_455 S
C2 O25 1.283 . S
C3 O15 1.281 1_556 S
C3 O16 1.236 . S
C4 O26 1.224 1_455 S
C4 O27 1.306 . S
O5 Mn0 2.095 1_455 S
O5 C14 1.250 . S
O6 Mn1 2.121 . S
O6 C14 1.258 . S
C7 N8 1.326 . S
C7 C11 1.460 . S
C7 H13 0.929 . S
N8 Mn1 2.257 1_556 S
N8 C7 1.326 . S
N8 C12 1.362 . S
C9 C10 1.258 . S
C9 C12 1.431 . S
C9 C29 1.449 . S
C10 C9 1.258 . S
C10 C11 1.477 . S
C10 H30 0.931 . S
C11 C7 1.460 . S
C11 C10 1.477 . S
C11 H31 0.930 . S
C12 N8 1.362 . S
C12 C9 1.431 . S
C12 C22 1.476 . S
H13 C7 0.929 . S
C14 O5 1.250 . S
C14 O6 1.258 . S
O15 Mn0 2.162 . S
O15 C3 1.281 1_554 S
O16 Mn0 2.297 1_556 S
O16 C3 1.236 . S
N17 Mn1 2.282 1_556 S
N17 C18 1.328 1_556 S
N17 C22 1.318 . S
C18 N17 1.328 1_554 S
C18 C19 1.457 1_554 S
C18 H23 0.929 . S
C19 C18 1.457 1_556 S
C19 C20 1.291 . S
C19 H32 0.931 . S
C20 C19 1.291 . S
C20 C21 1.373 . S
C20 H33 0.929 . S
C21 C20 1.373 . S
C21 C22 1.396 . S
C21 C28 1.403 . S
C22 C12 1.476 . S
C22 N17 1.318 . S
C22 C21 1.396 . S
H23 C18 0.929 . S
O24 Mn0 2.385 1_556 S
O24 C2 1.234 1_655 S
O25 Mn0 2.209 1_456 S
O25 Mn1 2.215 1_556 S
O25 C2 1.283 . S
O26 Mn0 2.094 . S
O26 C4 1.224 1_655 S
O27 Mn1 2.117 . S
O27 C4 1.306 . S
C28 C21 1.403 . S
C28 C29 1.399 . S
C28 H34 0.929 . S
C29 C9 1.449 . S
C29 C28 1.399 . S
C29 H35 0.930 . S
H30 C10 0.931 . S
H31 C11 0.930 . S
H32 C19 0.931 . S
H33 C20 0.929 . S
H34 C28 0.929 . S
H35 C29 0.930 . S
Mn36 O41 2.095 1_554 S
Mn36 O51 2.162 . S
Mn36 O52 2.297 . S
Mn36 O60 2.385 . S
Mn36 O61 2.209 . S
Mn36 O62 2.094 1_554 S
Mn37 O42 2.121 . S
Mn37 N44 2.257 1_556 S
Mn37 N53 2.282 1_556 S
Mn37 O61 2.215 1_556 S
Mn37 O63 2.117 . S
C38 O60 1.234 . S
C38 O61 1.283 . S
C39 O51 1.281 . S
C39 O52 1.236 . S
C40 O62 1.240 . S
C40 O63 1.264 . S
O41 Mn36 2.095 1_556 S
O41 C50 1.250 . S
O42 Mn37 2.121 . S
O42 C50 1.258 . S
C43 N44 1.326 . S
C43 C47 1.460 . S
C43 H49 0.929 . S
N44 Mn37 2.257 1_554 S
N44 C43 1.326 . S
N44 C48 1.362 . S
C45 C46 1.258 . S
C45 C48 1.431 . S
C45 C65 1.449 . S
C46 C45 1.258 . S
C46 C47 1.477 . S
C46 H66 0.931 . S
C47 C43 1.460 . S
C47 C46 1.477 . S
C47 H67 0.930 . S
C48 N44 1.362 . S
C48 C45 1.431 . S
C48 C58 1.476 . S
H49 C43 0.929 . S
C50 O41 1.250 . S
C50 O42 1.258 . S
O51 Mn36 2.162 . S
O51 C39 1.281 . S
O52 Mn36 2.297 . S
O52 C39 1.236 . S
N53 Mn37 2.282 1_554 S
N53 C54 1.328 . S
N53 C58 1.318 . S
C54 N53 1.328 . S
C54 C55 1.457 . S
C54 H59 0.929 1_554 S
C55 C54 1.457 . S
C55 C56 1.291 . S
C55 H68 0.931 . S
C56 C55 1.291 . S
C56 C57 1.373 . S
C56 H69 0.929 . S
C57 C56 1.373 . S
C57 C58 1.396 . S
C57 C64 1.403 . S
C58 C48 1.476 . S
C58 N53 1.318 . S
C58 C57 1.396 . S
H59 C54 0.929 1_556 S
O60 Mn36 2.385 . S
O60 C38 1.234 . S
O61 Mn36 2.209 . S
O61 Mn37 2.215 1_554 S
O61 C38 1.283 . S
O62 Mn36 2.094 1_556 S
O62 C40 1.240 . S
O63 Mn37 2.117 . S
O63 C40 1.264 . S
C64 C57 1.403 . S
C64 C65 1.399 . S
C64 H70 0.929 . S
C65 C45 1.449 . S
C65 C64 1.399 . S
C65 H71 0.930 . S
H66 C46 0.931 . S
H67 C47 0.930 . S
H68 C55 0.931 . S
H69 C56 0.929 . S
H70 C64 0.929 . S
H71 C65 0.930 . S
Mn72 O77 2.095 1_564 S
Mn72 O87 2.162 . S
Mn72 O88 2.297 . S
Mn72 O96 2.385 . S
Mn72 O97 2.209 1_565 S
Mn72 O98 2.094 1_554 S
Mn73 O78 2.121 1_554 S
Mn73 N80 2.257 . S
Mn73 N89 2.282 . S
Mn73 O97 2.215 . S
Mn73 O99 2.117 1_554 S
C74 O96 1.205 1_545 S
C74 O97 1.313 . S
C75 O87 1.281 . S
C75 O88 1.236 . S
C76 O98 1.252 . S
C76 O99 1.239 1_565 S
O77 Mn72 2.095 1_546 S
O77 C86 1.250 . S
O78 Mn73 2.121 1_556 S
O78 C86 1.258 . S
C79 N80 1.326 . S
C79 C83 1.460 . S
C79 H85 0.929 . S
N80 Mn73 2.257 . S
N80 C79 1.326 . S
N80 C84 1.362 . S
C81 C82 1.258 . S
C81 C84 1.431 . S
C81 C101 1.449 . S
C82 C81 1.258 . S
C82 C83 1.477 . S
C82 H102 0.931 . S
C83 C79 1.460 . S
C83 C82 1.477 . S
C83 H103 0.930 . S
C84 N80 1.362 . S
C84 C81 1.431 . S
C84 C94 1.476 . S
H85 C79 0.929 . S
C86 O77 1.250 . S
C86 O78 1.258 . S
O87 Mn72 2.162 . S
O87 C75 1.281 . S
O88 Mn72 2.297 . S
O88 C75 1.236 . S
N89 Mn73 2.282 . S
N89 C90 1.328 . S
N89 C94 1.318 . S
C90 N89 1.328 . S
C90 C91 1.457 . S
C90 H95 0.929 . S
C91 C90 1.457 . S
C91 C92 1.291 . S
C91 H104 0.931 . S
C92 C91 1.291 . S
C92 C93 1.373 . S
C92 H105 0.929 . S
C93 C92 1.373 . S
C93 C94 1.396 . S
C93 C100 1.403 . S
C94 C84 1.476 . S
C94 N89 1.318 . S
C94 C93 1.396 . S
H95 C90 0.929 . S
O96 Mn72 2.385 . S
O96 C74 1.205 1_565 S
O97 Mn72 2.209 1_545 S
O97 Mn73 2.215 . S
O97 C74 1.313 . S
O98 Mn72 2.094 1_556 S
O98 C76 1.252 . S
O99 Mn73 2.117 1_556 S
O99 C76 1.239 1_545 S
C100 C93 1.403 . S
C100 C101 1.399 . S
C100 H106 0.929 . S
C101 C81 1.449 . S
C101 C100 1.399 . S
C101 H107 0.930 . S
H102 C82 0.931 . S
H103 C83 0.930 . S
H104 C91 0.931 . S
H105 C92 0.929 . S
H106 C100 0.929 . S
H107 C101 0.930 . S
Mn108 O113 2.095 1_655 S
Mn108 O123 2.162 . S
Mn108 O124 2.297 1_554 S
Mn108 O132 2.385 1_554 S
Mn108 O133 2.209 1_654 S
Mn108 O134 2.094 . S
Mn109 O114 2.121 . S
Mn109 N116 2.257 1_554 S
Mn109 N125 2.282 1_554 S
Mn109 O133 2.215 1_554 S
Mn109 O135 2.117 . S
C110 O132 1.188 1_455 S
C110 O133 1.303 . S
C111 O123 1.281 1_556 S
C111 O124 1.236 . S
C112 O134 1.219 1_455 S
C112 O135 1.284 . S
O113 Mn108 2.095 1_455 S
O113 C122 1.250 . S
O114 Mn109 2.121 . S
O114 C122 1.258 . S
C115 N116 1.326 . S
C115 C119 1.460 . S
C115 H121 0.929 . S
N116 Mn109 2.257 1_556 S
N116 C115 1.326 . S
N116 C120 1.362 . S
C117 C118 1.258 . S
C117 C120 1.431 . S
C117 C137 1.449 . S
C118 C117 1.258 . S
C118 C119 1.477 . S
C118 H138 0.931 . S
C119 C115 1.460 . S
C119 C118 1.477 . S
C119 H139 0.930 . S
C120 N116 1.362 . S
C120 C117 1.431 . S
C120 C130 1.476 . S
H121 C115 0.929 . S
C122 O113 1.250 . S
C122 O114 1.258 . S
O123 Mn108 2.162 . S
O123 C111 1.281 1_554 S
O124 Mn108 2.297 1_556 S
O124 C111 1.236 . S
N125 Mn109 2.282 1_556 S
N125 C126 1.328 1_556 S
N125 C130 1.318 . S
C126 N125 1.328 1_554 S
C126 C127 1.457 1_554 S
C126 H131 0.929 . S
C127 C126 1.457 1_556 S
C127 C128 1.291 . S
C127 H140 0.931 . S
C128 C127 1.291 . S
C128 C129 1.373 . S
C128 H141 0.929 . S
C129 C128 1.373 . S
C129 C130 1.396 . S
C129 C136 1.403 . S
C130 C120 1.476 . S
C130 N125 1.318 . S
C130 C129 1.396 . S
H131 C126 0.929 . S
O132 Mn108 2.385 1_556 S
O132 C110 1.188 1_655 S
O133 Mn108 2.209 1_456 S
O133 Mn109 2.215 1_556 S
O133 C110 1.303 . S
O134 Mn108 2.094 . S
O134 C112 1.219 1_655 S
O135 Mn109 2.117 . S
O135 C112 1.284 . S
C136 C129 1.403 . S
C136 C137 1.399 . S
C136 H142 0.929 . S
C137 C117 1.449 . S
C137 C136 1.399 . S
C137 H143 0.930 . S
H138 C118 0.931 . S
H139 C119 0.930 . S
H140 C127 0.931 . S
H141 C128 0.929 . S
H142 C136 0.929 . S
H143 C137 0.930 . S
Mn144 O149 2.095 1_554 S
Mn144 O159 2.162 . S
Mn144 O160 2.297 . S
Mn144 O168 2.385 . S
Mn144 O169 2.209 . S
Mn144 O170 2.094 1_554 S
Mn145 O150 2.122 1_554 S
Mn145 N152 2.255 . S
Mn145 N161 2.281 . S
Mn145 O169 2.213 . S
Mn145 O171 2.119 1_554 S
C146 O168 1.234 . S
C146 O169 1.283 . S
C147 O159 1.281 . S
C147 O160 1.236 . S
C148 O170 1.240 . S
C148 O171 1.264 . S
O149 Mn144 2.095 1_556 S
O149 C158 1.250 . S
O150 Mn145 2.122 1_556 S
O150 C158 1.258 . S
C151 N152 1.326 . S
C151 C155 1.460 . S
C151 H157 0.929 . S
N152 Mn145 2.255 . S
N152 C151 1.326 . S
N152 C156 1.362 . S
C153 C154 1.258 . S
C153 C156 1.431 . S
C153 C173 1.449 . S
C154 C153 1.258 . S
C154 C155 1.477 . S
C154 H174 0.931 . S
C155 C151 1.460 . S
C155 C154 1.477 . S
C155 H175 0.930 . S
C156 N152 1.362 . S
C156 C153 1.431 . S
C156 C166 1.476 . S
H157 C151 0.929 . S
C158 O149 1.250 . S
C158 O150 1.258 . S
O159 Mn144 2.162 . S
O159 C147 1.281 . S
O160 Mn144 2.297 . S
O160 C147 1.236 . S
N161 Mn145 2.281 . S
N161 C162 1.328 . S
N161 C166 1.318 . S
C162 N161 1.328 . S
C162 C163 1.457 . S
C162 H167 0.929 1_554 S
C163 C162 1.457 . S
C163 C164 1.291 . S
C163 H176 0.931 . S
C164 C163 1.291 . S
C164 C165 1.373 . S
C164 H177 0.929 . S
C165 C164 1.373 . S
C165 C166 1.396 . S
C165 C172 1.403 . S
C166 C156 1.476 . S
C166 N161 1.318 . S
C166 C165 1.396 . S
H167 C162 0.929 1_556 S
O168 Mn144 2.385 . S
O168 C146 1.234 . S
O169 Mn144 2.209 . S
O169 Mn145 2.213 . S
O169 C146 1.283 . S
O170 Mn144 2.094 1_556 S
O170 C148 1.240 . S
O171 Mn145 2.119 1_556 S
O171 C148 1.264 . S
C172 C165 1.403 . S
C172 C173 1.399 . S
C172 H178 0.929 . S
C173 C153 1.449 . S
C173 C172 1.399 . S
C173 H179 0.930 . S
H174 C154 0.931 . S
H175 C155 0.930 . S
H176 C163 0.931 . S
H177 C164 0.929 . S
H178 C172 0.929 . S
H179 C173 0.930 . S
Mn180 O185 2.095 1_545 S
Mn180 O195 2.162 . S
Mn180 O196 2.297 1_554 S
Mn180 O204 2.385 1_554 S
Mn180 O205 2.209 1_544 S
Mn180 O206 2.094 . S
Mn181 O186 2.121 . S
Mn181 N188 2.257 1_554 S
Mn181 N197 2.282 1_554 S
Mn181 O205 2.215 1_554 S
Mn181 O207 2.117 . S
C182 O204 1.264 . S
C182 O205 1.252 1_545 S
C183 O195 1.281 1_556 S
C183 O196 1.236 . S
C184 O206 1.240 . S
C184 O207 1.264 1_545 S
O185 Mn180 2.095 1_565 S
O185 C194 1.250 . S
O186 Mn181 2.121 . S
O186 C194 1.258 . S
C187 N188 1.326 . S
C187 C191 1.460 . S
C187 H193 0.929 . S
N188 Mn181 2.257 1_556 S
N188 C187 1.326 . S
N188 C192 1.362 . S
C189 C190 1.258 . S
C189 C192 1.431 . S
C189 C209 1.449 . S
C190 C189 1.258 . S
C190 C191 1.477 . S
C190 H210 0.931 . S
C191 C187 1.460 . S
C191 C190 1.477 . S
C191 H211 0.930 . S
C192 N188 1.362 . S
C192 C189 1.431 . S
C192 C202 1.476 . S
H193 C187 0.929 . S
C194 O185 1.250 . S
C194 O186 1.258 . S
O195 Mn180 2.162 . S
O195 C183 1.281 1_554 S
O196 Mn180 2.297 1_556 S
O196 C183 1.236 . S
N197 Mn181 2.282 1_556 S
N197 C198 1.328 1_556 S
N197 C202 1.318 . S
C198 N197 1.328 1_554 S
C198 C199 1.457 1_554 S
C198 H203 0.929 . S
C199 C198 1.457 1_556 S
C199 C200 1.291 . S
C199 H212 0.931 . S
C200 C199 1.291 . S
C200 C201 1.373 . S
C200 H213 0.929 . S
C201 C200 1.373 . S
C201 C202 1.396 . S
C201 C208 1.403 . S
C202 C192 1.476 . S
C202 N197 1.318 . S
C202 C201 1.396 . S
H203 C198 0.929 . S
O204 Mn180 2.385 1_556 S
O204 C182 1.264 . S
O205 Mn180 2.209 1_566 S
O205 Mn181 2.215 1_556 S
O205 C182 1.252 1_565 S
O206 Mn180 2.094 . S
O206 C184 1.240 . S
O207 Mn181 2.117 . S
O207 C184 1.264 1_565 S
C208 C201 1.403 . S
C208 C209 1.399 . S
C208 H214 0.929 . S
C209 C189 1.449 . S
C209 C208 1.399 . S
C209 H215 0.930 . S
H210 C190 0.931 . S
H211 C191 0.930 . S
H212 C199 0.931 . S
H213 C200 0.929 . S
H214 C208 0.929 . S
H215 C209 0.930 . S
Mn216 O221 2.095 . S
Mn216 O231 2.162 . S
Mn216 O232 2.297 . S
Mn216 O240 2.385 . S
Mn216 O241 2.209 . S
Mn216 O242 2.094 . S
Mn217 O222 2.121 . S
Mn217 N224 2.257 . S
Mn217 N233 2.282 . S
Mn217 O241 2.215 . S
Mn217 O243 2.117 . S
C218 O240 1.234 . S
C218 O241 1.283 . S
C219 O231 1.281 . S
C219 O232 1.236 . S
C220 O242 1.240 . S
C220 O243 1.264 . S
O221 Mn216 2.095 . S
O221 C230 1.250 . S
O222 Mn217 2.121 . S
O222 C230 1.258 . S
C223 N224 1.326 . S
C223 C227 1.460 . S
C223 H229 0.929 . S
N224 Mn217 2.257 . S
N224 C223 1.326 . S
N224 C228 1.362 . S
C225 C226 1.258 . S
C225 C228 1.431 . S
C225 C245 1.449 . S
C226 C225 1.258 . S
C226 C227 1.477 . S
C226 H246 0.931 . S
C227 C223 1.460 . S
C227 C226 1.477 . S
C227 H247 0.930 . S
C228 N224 1.362 . S
C228 C225 1.431 . S
C228 C238 1.476 . S
H229 C223 0.929 . S
C230 O221 1.250 . S
C230 O222 1.258 . S
O231 Mn216 2.162 . S
O231 C219 1.281 . S
O232 Mn216 2.297 . S
O232 C219 1.236 . S
N233 Mn217 2.282 . S
N233 C234 1.328 . S
N233 C238 1.318 . S
C234 N233 1.328 . S
C234 C235 1.457 . S
C234 H239 0.929 . S
C235 C234 1.457 . S
C235 C236 1.291 . S
C235 H248 0.931 . S
C236 C235 1.291 . S
C236 C237 1.373 . S
C236 H249 0.929 . S
C237 C236 1.373 . S
C237 C238 1.396 . S
C237 C244 1.403 . S
C238 C228 1.476 . S
C238 N233 1.318 . S
C238 C237 1.396 . S
H239 C234 0.929 . S
O240 Mn216 2.385 . S
O240 C218 1.234 . S
O241 Mn216 2.209 . S
O241 Mn217 2.215 . S
O241 C218 1.283 . S
O242 Mn216 2.094 . S
O242 C220 1.240 . S
O243 Mn217 2.117 . S
O243 C220 1.264 . S
C244 C237 1.403 . S
C244 C245 1.399 . S
C244 H250 0.929 . S
C245 C225 1.449 . S
C245 C244 1.399 . S
C245 H251 0.930 . S
H246 C226 0.931 . S
H247 C227 0.930 . S
H248 C235 0.931 . S
H249 C236 0.929 . S
H250 C244 0.929 . S
H251 C245 0.930 . S
Mn252 O257 2.095 . S
Mn252 O267 2.162 1_565 S
Mn252 O268 2.297 1_565 S
Mn252 O276 2.385 . S
Mn252 O277 2.209 . S
Mn252 O278 2.094 . S
Mn253 O258 2.121 . S
Mn253 N260 2.257 . S
Mn253 N269 2.282 . S
Mn253 O277 2.215 . S
Mn253 O279 2.117 . S
C254 O276 1.234 . S
C254 O277 1.283 . S
C255 O267 1.281 . S
C255 O268 1.236 . S
C256 O278 1.240 . S
C256 O279 1.264 . S
O257 Mn252 2.095 . S
O257 C266 1.250 . S
O258 Mn253 2.121 . S
O258 C266 1.258 . S
C259 N260 1.326 . S
C259 C263 1.460 . S
C259 H265 0.929 . S
N260 Mn253 2.257 . S
N260 C259 1.326 . S
N260 C264 1.362 . S
C261 C262 1.258 . S
C261 C264 1.431 . S
C261 C281 1.449 . S
C262 C261 1.258 . S
C262 C263 1.477 . S
C262 H282 0.931 . S
C263 C259 1.460 . S
C263 C262 1.477 . S
C263 H283 0.930 . S
C264 N260 1.362 . S
C264 C261 1.431 . S
C264 C274 1.476 . S
H265 C259 0.929 . S
C266 O257 1.250 . S
C266 O258 1.258 . S
O267 Mn252 2.162 1_545 S
O267 C255 1.281 . S
O268 Mn252 2.297 1_545 S
O268 C255 1.236 . S
N269 Mn253 2.282 . S
N269 C270 1.328 . S
N269 C274 1.318 . S
C270 N269 1.328 . S
C270 C271 1.457 . S
C270 H275 0.929 . S
C271 C270 1.457 . S
C271 C272 1.291 . S
C271 H284 0.931 . S
C272 C271 1.291 . S
C272 C273 1.373 . S
C272 H285 0.929 . S
C273 C272 1.373 . S
C273 C274 1.396 . S
C273 C280 1.403 . S
C274 C264 1.476 . S
C274 N269 1.318 . S
C274 C273 1.396 . S
H275 C270 0.929 . S
O276 Mn252 2.385 . S
O276 C254 1.234 . S
O277 Mn252 2.209 . S
O277 Mn253 2.215 . S
O277 C254 1.283 . S
O278 Mn252 2.094 . S
O278 C256 1.240 . S
O279 Mn253 2.117 . S
O279 C256 1.264 . S
C280 C273 1.403 . S
C280 C281 1.399 . S
C280 H286 0.929 . S
C281 C261 1.449 . S
C281 C280 1.399 . S
C281 H287 0.930 . S
H282 C262 0.931 . S
H283 C263 0.930 . S
H284 C271 0.931 . S
H285 C272 0.929 . S
H286 C280 0.929 . S
H287 C281 0.930 . S
Mn288 O293 2.095 . S
Mn288 O303 2.162 1_455 S
Mn288 O304 2.297 1_455 S
Mn288 O312 2.385 . S
Mn288 O313 2.209 . S
Mn288 O314 2.094 . S
Mn289 O294 2.121 . S
Mn289 N296 2.257 . S
Mn289 N305 2.282 . S
Mn289 O313 2.215 . S
Mn289 O315 2.117 . S
C290 O312 1.234 . S
C290 O313 1.283 . S
C291 O303 1.281 . S
C291 O304 1.236 . S
C292 O314 1.240 . S
C292 O315 1.264 . S
O293 Mn288 2.095 . S
O293 C302 1.250 . S
O294 Mn289 2.121 . S
O294 C302 1.258 . S
C295 N296 1.326 . S
C295 C299 1.460 . S
C295 H301 0.929 . S
N296 Mn289 2.257 . S
N296 C295 1.326 . S
N296 C300 1.362 . S
C297 C298 1.258 . S
C297 C300 1.431 . S
C297 C317 1.449 . S
C298 C297 1.258 . S
C298 C299 1.477 . S
C298 H318 0.931 . S
C299 C295 1.460 . S
C299 C298 1.477 . S
C299 H319 0.930 . S
C300 N296 1.362 . S
C300 C297 1.431 . S
C300 C310 1.476 . S
H301 C295 0.929 . S
C302 O293 1.250 . S
C302 O294 1.258 . S
O303 Mn288 2.162 1_655 S
O303 C291 1.281 . S
O304 Mn288 2.297 1_655 S
O304 C291 1.236 . S
N305 Mn289 2.282 . S
N305 C306 1.328 . S
N305 C310 1.318 . S
C306 N305 1.328 . S
C306 C307 1.457 . S
C306 H311 0.929 . S
C307 C306 1.457 . S
C307 C308 1.291 . S
C307 H320 0.931 . S
C308 C307 1.291 . S
C308 C309 1.373 . S
C308 H321 0.929 . S
C309 C308 1.373 . S
C309 C310 1.396 . S
C309 C316 1.403 . S
C310 C300 1.476 . S
C310 N305 1.318 . S
C310 C309 1.396 . S
H311 C306 0.929 . S
O312 Mn288 2.385 . S
O312 C290 1.234 . S
O313 Mn288 2.209 . S
O313 Mn289 2.215 . S
O313 C290 1.283 . S
O314 Mn288 2.094 . S
O314 C292 1.240 . S
O315 Mn289 2.117 . S
O315 C292 1.264 . S
C316 C309 1.403 . S
C316 C317 1.399 . S
C316 H322 0.929 . S
C317 C297 1.449 . S
C317 C316 1.399 . S
C317 H323 0.930 . S
H318 C298 0.931 . S
H319 C299 0.930 . S
H320 C307 0.931 . S
H321 C308 0.929 . S
H322 C316 0.929 . S
H323 C317 0.930 . S
Mn324 O329 2.095 1_565 S
Mn324 O339 2.162 . S
Mn324 O340 2.297 . S
Mn324 O348 2.385 . S
Mn324 O349 2.209 . S
Mn324 O350 2.094 . S
Mn325 O330 2.121 1_565 S
Mn325 N332 2.257 . S
Mn325 N341 2.282 . S
Mn325 O349 2.215 . S
Mn325 O351 2.117 . S
C326 O348 1.234 . S
C326 O349 1.283 . S
C327 O339 1.281 . S
C327 O340 1.236 . S
C328 O350 1.240 . S
C328 O351 1.264 . S
O329 Mn324 2.095 1_545 S
O329 C338 1.250 . S
O330 Mn325 2.121 1_545 S
O330 C338 1.258 . S
C331 N332 1.326 1_545 S
C331 C335 1.460 . S
C331 H337 0.929 . S
N332 Mn325 2.257 . S
N332 C331 1.326 1_565 S
N332 C336 1.362 . S
C333 C334 1.255 . S
C333 C336 1.431 . S
C333 C353 1.449 . S
C334 C333 1.255 . S
C334 C335 1.481 1_565 S
C334 H354 0.930 1_565 S
C335 C331 1.460 . S
C335 C334 1.481 1_545 S
C335 H355 0.930 . S
C336 N332 1.362 . S
C336 C333 1.431 . S
C336 C346 1.476 . S
H337 C331 0.929 . S
C338 O329 1.250 . S
C338 O330 1.258 . S
O339 Mn324 2.162 . S
O339 C327 1.281 . S
O340 Mn324 2.297 . S
O340 C327 1.236 . S
N341 Mn325 2.282 . S
N341 C342 1.328 . S
N341 C346 1.318 . S
C342 N341 1.328 . S
C342 C343 1.457 . S
C342 H347 0.929 . S
C343 C342 1.457 . S
C343 C344 1.291 . S
C343 H356 0.931 . S
C344 C343 1.291 . S
C344 C345 1.373 . S
C344 H357 0.929 . S
C345 C344 1.373 . S
C345 C346 1.396 . S
C345 C352 1.403 . S
C346 C336 1.476 . S
C346 N341 1.318 . S
C346 C345 1.396 . S
H347 C342 0.929 . S
O348 Mn324 2.385 . S
O348 C326 1.234 . S
O349 Mn324 2.209 . S
O349 Mn325 2.215 . S
O349 C326 1.283 . S
O350 Mn324 2.094 . S
O350 C328 1.240 . S
O351 Mn325 2.117 . S
O351 C328 1.264 . S
C352 C345 1.403 . S
C352 C353 1.399 . S
C352 H358 0.929 . S
C353 C333 1.449 . S
C353 C352 1.399 . S
C353 H359 0.930 . S
H354 C334 0.930 1_545 S
H355 C335 0.930 . S
H356 C343 0.931 . S
H357 C344 0.929 . S
H358 C352 0.929 . S
H359 C353 0.930 . S
Mn360 O365 2.095 . S
Mn360 O375 2.162 1_455 S
Mn360 O376 2.297 1_455 S
Mn360 O384 2.385 . S
Mn360 O385 2.209 . S
Mn360 O386 2.094 . S
Mn361 O366 2.121 . S
Mn361 N368 2.257 . S
Mn361 N377 2.282 . S
Mn361 O385 2.215 . S
Mn361 O387 2.117 . S
C362 O384 1.234 . S
C362 O385 1.283 . S
C363 O375 1.281 . S
C363 O376 1.236 . S
C364 O386 1.240 . S
C364 O387 1.264 . S
O365 Mn360 2.095 . S
O365 C374 1.250 . S
O366 Mn361 2.121 . S
O366 C374 1.258 . S
C367 N368 1.326 . S
C367 C371 1.460 . S
C367 H373 0.929 . S
N368 Mn361 2.257 . S
N368 C367 1.326 . S
N368 C372 1.362 . S
C369 C370 1.258 . S
C369 C372 1.431 . S
C369 C389 1.449 . S
C370 C369 1.258 . S
C370 C371 1.477 . S
C370 H390 0.931 . S
C371 C367 1.460 . S
C371 C370 1.477 . S
C371 H391 0.930 . S
C372 N368 1.362 . S
C372 C369 1.431 . S
C372 C382 1.476 . S
H373 C367 0.929 . S
C374 O365 1.250 . S
C374 O366 1.258 . S
O375 Mn360 2.162 1_655 S
O375 C363 1.281 . S
O376 Mn360 2.297 1_655 S
O376 C363 1.236 . S
N377 Mn361 2.282 . S
N377 C378 1.328 . S
N377 C382 1.318 . S
C378 N377 1.328 . S
C378 C379 1.457 . S
C378 H383 0.929 . S
C379 C378 1.457 . S
C379 C380 1.291 . S
C379 H392 0.931 . S
C380 C379 1.291 . S
C380 C381 1.373 . S
C380 H393 0.929 . S
C381 C380 1.373 . S
C381 C382 1.396 . S
C381 C388 1.403 . S
C382 C372 1.476 . S
C382 N377 1.318 . S
C382 C381 1.396 . S
H383 C378 0.929 . S
O384 Mn360 2.385 . S
O384 C362 1.234 . S
O385 Mn360 2.209 . S
O385 Mn361 2.215 . S
O385 C362 1.283 . S
O386 Mn360 2.094 . S
O386 C364 1.240 . S
O387 Mn361 2.117 . S
O387 C364 1.264 . S
C388 C381 1.403 . S
C388 C389 1.399 . S
C388 H394 0.929 . S
C389 C369 1.449 . S
C389 C388 1.399 . S
C389 H395 0.930 . S
H390 C370 0.931 . S
H391 C371 0.930 . S
H392 C379 0.931 . S
H393 C380 0.929 . S
H394 C388 0.929 . S
H395 C389 0.930 . S
Mn396 O401 2.095 . S
Mn396 O411 2.162 . S
Mn396 O412 2.297 . S
Mn396 O420 2.385 . S
Mn396 O421 2.209 . S
Mn396 O422 2.094 . S
Mn397 O402 2.121 . S
Mn397 N404 2.257 . S
Mn397 N413 2.282 . S
Mn397 O421 2.215 . S
Mn397 O423 2.117 . S
C398 O420 1.234 . S
C398 O421 1.283 . S
C399 O411 1.281 . S
C399 O412 1.236 . S
C400 O422 1.240 . S
C400 O423 1.264 . S
O401 Mn396 2.095 . S
O401 C410 1.250 . S
O402 Mn397 2.121 . S
O402 C410 1.258 . S
C403 N404 1.326 . S
C403 C407 1.460 . S
C403 H409 0.929 . S
N404 Mn397 2.257 . S
N404 C403 1.326 . S
N404 C408 1.362 . S
C405 C406 1.258 . S
C405 C408 1.431 . S
C405 C425 1.449 . S
C406 C405 1.258 . S
C406 C407 1.477 . S
C406 H426 0.931 . S
C407 C403 1.460 . S
C407 C406 1.477 . S
C407 H427 0.930 . S
C408 N404 1.362 . S
C408 C405 1.431 . S
C408 C418 1.476 . S
H409 C403 0.929 . S
C410 O401 1.250 . S
C410 O402 1.258 . S
O411 Mn396 2.162 . S
O411 C399 1.281 . S
O412 Mn396 2.297 . S
O412 C399 1.236 . S
N413 Mn397 2.282 . S
N413 C414 1.328 . S
N413 C418 1.318 . S
C414 N413 1.328 . S
C414 C415 1.457 . S
C414 H419 0.929 . S
C415 C414 1.457 . S
C415 C416 1.291 . S
C415 H428 0.931 . S
C416 C415 1.291 . S
C416 C417 1.373 . S
C416 H429 0.929 . S
C417 C416 1.373 . S
C417 C418 1.396 . S
C417 C424 1.403 . S
C418 C408 1.476 . S
C418 N413 1.318 . S
C418 C417 1.396 . S
H419 C414 0.929 . S
O420 Mn396 2.385 . S
O420 C398 1.234 . S
O421 Mn396 2.209 . S
O421 Mn397 2.215 . S
O421 C398 1.283 . S
O422 Mn396 2.094 . S
O422 C400 1.240 . S
O423 Mn397 2.117 . S
O423 C400 1.264 . S
C424 C417 1.403 . S
C424 C425 1.399 . S
C424 H430 0.929 . S
C425 C405 1.449 . S
C425 C424 1.399 . S
C425 H431 0.930 . S
H426 C406 0.931 . S
H427 C407 0.930 . S
H428 C415 0.931 . S
H429 C416 0.929 . S
H430 C424 0.929 . S
H431 C425 0.930 . S
Mn432 O437 2.095 . S
Mn432 O447 2.162 1_545 S
Mn432 O448 2.297 1_545 S
Mn432 O456 2.385 . S
Mn432 O457 2.209 . S
Mn432 O458 2.094 . S
Mn433 O438 2.121 . S
Mn433 N440 2.257 . S
Mn433 N449 2.282 . S
Mn433 O457 2.215 . S
Mn433 O459 2.117 . S
C434 O456 1.234 . S
C434 O457 1.283 . S
C435 O447 1.281 . S
C435 O448 1.236 . S
C436 O458 1.240 . S
C436 O459 1.264 . S
O437 Mn432 2.095 . S
O437 C446 1.250 . S
O438 Mn433 2.121 . S
O438 C446 1.258 . S
C439 N440 1.326 . S
C439 C443 1.460 . S
C439 H445 0.929 . S
N440 Mn433 2.257 . S
N440 C439 1.326 . S
N440 C444 1.362 . S
C441 C442 1.258 . S
C441 C444 1.431 . S
C441 C461 1.449 . S
C442 C441 1.258 . S
C442 C443 1.477 . S
C442 H462 0.931 . S
C443 C439 1.460 . S
C443 C442 1.477 . S
C443 H463 0.930 . S
C444 N440 1.362 . S
C444 C441 1.431 . S
C444 C454 1.476 . S
H445 C439 0.929 . S
C446 O437 1.250 . S
C446 O438 1.258 . S
O447 Mn432 2.162 1_565 S
O447 C435 1.281 . S
O448 Mn432 2.297 1_565 S
O448 C435 1.236 . S
N449 Mn433 2.282 . S
N449 C450 1.328 . S
N449 C454 1.318 . S
C450 N449 1.328 . S
C450 C451 1.457 . S
C450 H455 0.929 . S
C451 C450 1.457 . S
C451 C452 1.291 . S
C451 H464 0.931 . S
C452 C451 1.291 . S
C452 C453 1.373 . S
C452 H465 0.929 . S
C453 C452 1.373 . S
C453 C454 1.396 . S
C453 C460 1.403 . S
C454 C444 1.476 . S
C454 N449 1.318 . S
C454 C453 1.396 . S
H455 C450 0.929 . S
O456 Mn432 2.385 . S
O456 C434 1.234 . S
O457 Mn432 2.209 . S
O457 Mn433 2.215 . S
O457 C434 1.283 . S
O458 Mn432 2.094 . S
O458 C436 1.240 . S
O459 Mn433 2.117 . S
O459 C436 1.264 . S
C460 C453 1.403 . S
C460 C461 1.399 . S
C460 H466 0.929 . S
C461 C441 1.449 . S
C461 C460 1.399 . S
C461 H467 0.930 . S
H462 C442 0.931 . S
H463 C443 0.930 . S
H464 C451 0.931 . S
H465 C452 0.929 . S
H466 C460 0.929 . S
H467 C461 0.930 . S
Mn468 O473 2.095 1_655 S
Mn468 O483 2.162 . S
Mn468 O484 2.297 . S
Mn468 O492 2.385 . S
Mn468 O493 2.209 . S
Mn468 O494 2.094 . S
Mn469 O474 2.121 1_655 S
Mn469 N476 2.257 . S
Mn469 N485 2.282 . S
Mn469 O493 2.215 . S
Mn469 O495 2.117 . S
C470 O492 1.234 . S
C470 O493 1.283 . S
C471 O483 1.281 . S
C471 O484 1.236 . S
C472 O494 1.240 . S
C472 O495 1.264 . S
O473 Mn468 2.095 1_455 S
O473 C482 1.250 . S
O474 Mn469 2.121 1_455 S
O474 C482 1.258 . S
C475 N476 1.326 1_455 S
C475 C479 1.460 . S
C475 H481 0.929 . S
N476 Mn469 2.257 . S
N476 C475 1.326 1_655 S
N476 C480 1.362 . S
C477 C478 1.260 . S
C477 C480 1.431 . S
C477 C497 1.449 . S
C478 C477 1.260 . S
C478 C479 1.476 1_655 S
C478 H498 0.929 1_655 S
C479 C475 1.460 . S
C479 C478 1.476 1_455 S
C479 H499 0.930 . S
C480 N476 1.362 . S
C480 C477 1.431 . S
C480 C490 1.476 . S
H481 C475 0.929 . S
C482 O473 1.250 . S
C482 O474 1.258 . S
O483 Mn468 2.162 . S
O483 C471 1.281 . S
O484 Mn468 2.297 . S
O484 C471 1.236 . S
N485 Mn469 2.282 . S
N485 C486 1.328 . S
N485 C490 1.318 . S
C486 N485 1.328 . S
C486 C487 1.457 . S
C486 H491 0.929 . S
C487 C486 1.457 . S
C487 C488 1.291 . S
C487 H500 0.931 . S
C488 C487 1.291 . S
C488 C489 1.373 . S
C488 H501 0.929 . S
C489 C488 1.373 . S
C489 C490 1.396 . S
C489 C496 1.403 . S
C490 C480 1.476 . S
C490 N485 1.318 . S
C490 C489 1.396 . S
H491 C486 0.929 . S
O492 Mn468 2.385 . S
O492 C470 1.234 . S
O493 Mn468 2.209 . S
O493 Mn469 2.215 . S
O493 C470 1.283 . S
O494 Mn468 2.094 . S
O494 C472 1.240 . S
O495 Mn469 2.117 . S
O495 C472 1.264 . S
C496 C489 1.403 . S
C496 C497 1.399 . S
C496 H502 0.929 . S
C497 C477 1.449 . S
C497 C496 1.399 . S
C497 H503 0.930 . S
H498 C478 0.929 1_455 S
H499 C479 0.930 . S
H500 C487 0.931 . S
H501 C488 0.929 . S
H502 C496 0.929 . S
H503 C497 0.930 . S
Mn504 O509 2.095 . S
Mn504 O519 2.162 . S
Mn504 O520 2.297 . S
Mn504 O528 2.385 . S
Mn504 O529 2.209 . S
Mn504 O530 2.094 . S
Mn505 O510 2.121 . S
Mn505 N512 2.257 . S
Mn505 N521 2.282 . S
Mn505 O529 2.215 . S
Mn505 O531 2.117 . S
C506 O528 1.234 . S
C506 O529 1.283 . S
C507 O519 1.281 . S
C507 O520 1.236 . S
C508 O530 1.240 . S
C508 O531 1.264 . S
O509 Mn504 2.095 . S
O509 C518 1.250 . S
O510 Mn505 2.121 . S
O510 C518 1.258 . S
C511 N512 1.326 . S
C511 C515 1.460 . S
C511 H517 0.929 . S
N512 Mn505 2.257 . S
N512 C511 1.326 . S
N512 C516 1.362 . S
C513 C514 1.258 . S
C513 C516 1.431 . S
C513 C533 1.449 . S
C514 C513 1.258 . S
C514 C515 1.477 . S
C514 H534 0.931 . S
C515 C511 1.460 . S
C515 C514 1.477 . S
C515 H535 0.930 . S
C516 N512 1.362 . S
C516 C513 1.431 . S
C516 C526 1.476 . S
H517 C511 0.929 . S
C518 O509 1.250 . S
C518 O510 1.258 . S
O519 Mn504 2.162 . S
O519 C507 1.281 . S
O520 Mn504 2.297 . S
O520 C507 1.236 . S
N521 Mn505 2.282 . S
N521 C522 1.328 . S
N521 C526 1.318 . S
C522 N521 1.328 . S
C522 C523 1.457 . S
C522 H527 0.929 . S
C523 C522 1.457 . S
C523 C524 1.291 . S
C523 H536 0.931 . S
C524 C523 1.291 . S
C524 C525 1.373 . S
C524 H537 0.929 . S
C525 C524 1.373 . S
C525 C526 1.396 . S
C525 C532 1.403 . S
C526 C516 1.476 . S
C526 N521 1.318 . S
C526 C525 1.396 . S
H527 C522 0.929 . S
O528 Mn504 2.385 . S
O528 C506 1.234 . S
O529 Mn504 2.209 . S
O529 Mn505 2.215 . S
O529 C506 1.283 . S
O530 Mn504 2.094 . S
O530 C508 1.240 . S
O531 Mn505 2.117 . S
O531 C508 1.264 . S
C532 C525 1.403 . S
C532 C533 1.399 . S
C532 H538 0.929 . S
C533 C513 1.449 . S
C533 C532 1.399 . S
C533 H539 0.930 . S
H534 C514 0.931 . S
H535 C515 0.930 . S
H536 C523 0.931 . S
H537 C524 0.929 . S
H538 C532 0.929 . S
H539 C533 0.930 . S
Mn540 O545 2.095 . S
Mn540 O555 2.162 . S
Mn540 O556 2.297 . S
Mn540 O564 2.385 . S
Mn540 O565 2.209 . S
Mn540 O566 2.094 . S
Mn541 O546 2.121 . S
Mn541 N548 2.257 . S
Mn541 N557 2.282 . S
Mn541 O565 2.215 . S
Mn541 O567 2.117 . S
C542 O564 1.234 . S
C542 O565 1.283 . S
C543 O555 1.281 . S
C543 O556 1.236 . S
C544 O566 1.240 . S
C544 O567 1.264 . S
O545 Mn540 2.095 . S
O545 C554 1.250 . S
O546 Mn541 2.121 . S
O546 C554 1.258 . S
C547 N548 1.326 . S
C547 C551 1.460 . S
C547 H553 0.929 . S
N548 Mn541 2.257 . S
N548 C547 1.326 . S
N548 C552 1.362 . S
C549 C550 1.258 . S
C549 C552 1.431 . S
C549 C569 1.449 . S
C550 C549 1.258 . S
C550 C551 1.477 . S
C550 H570 0.931 . S
C551 C547 1.460 . S
C551 C550 1.477 . S
C551 H571 0.930 . S
C552 N548 1.362 . S
C552 C549 1.431 . S
C552 C562 1.476 . S
H553 C547 0.929 . S
C554 O545 1.250 . S
C554 O546 1.258 . S
O555 Mn540 2.162 . S
O555 C543 1.281 . S
O556 Mn540 2.297 . S
O556 C543 1.236 . S
N557 Mn541 2.282 . S
N557 C558 1.328 . S
N557 C562 1.318 . S
C558 N557 1.328 . S
C558 C559 1.457 . S
C558 H563 0.929 . S
C559 C558 1.457 . S
C559 C560 1.291 . S
C559 H572 0.931 . S
C560 C559 1.291 . S
C560 C561 1.373 . S
C560 H573 0.929 . S
C561 C560 1.373 . S
C561 C562 1.396 . S
C561 C568 1.403 . S
C562 C552 1.476 . S
C562 N557 1.318 . S
C562 C561 1.396 . S
H563 C558 0.929 . S
O564 Mn540 2.385 . S
O564 C542 1.234 . S
O565 Mn540 2.209 . S
O565 Mn541 2.215 . S
O565 C542 1.283 . S
O566 Mn540 2.094 . S
O566 C544 1.240 . S
O567 Mn541 2.117 . S
O567 C544 1.264 . S
C568 C561 1.403 . S
C568 C569 1.399 . S
C568 H574 0.929 . S
C569 C549 1.449 . S
C569 C568 1.399 . S
C569 H575 0.930 . S
H570 C550 0.931 . S
H571 C551 0.930 . S
H572 C559 0.931 . S
H573 C560 0.929 . S
H574 C568 0.929 . S
H575 C569 0.930 . S
Mn576 O581 2.095 1_545 S
Mn576 O591 2.162 . S
Mn576 O592 2.297 . S
Mn576 O600 2.385 . S
Mn576 O601 2.209 . S
Mn576 O602 2.094 . S
Mn577 O582 2.121 1_545 S
Mn577 N584 2.257 . S
Mn577 N593 2.282 . S
Mn577 O601 2.215 . S
Mn577 O603 2.117 . S
C578 O600 1.234 . S
C578 O601 1.283 . S
C579 O591 1.281 . S
C579 O592 1.236 . S
C580 O602 1.240 . S
C580 O603 1.264 . S
O581 Mn576 2.095 1_565 S
O581 C590 1.250 . S
O582 Mn577 2.121 1_565 S
O582 C590 1.258 . S
C583 N584 1.326 1_565 S
C583 C587 1.460 . S
C583 H589 0.929 . S
N584 Mn577 2.257 . S
N584 C583 1.326 1_545 S
N584 C588 1.362 . S
C585 C586 1.251 1_545 S
C585 C588 1.431 . S
C585 C605 1.449 . S
C586 C585 1.251 1_565 S
C586 C587 1.480 . S
C586 H606 0.934 . S
C587 C583 1.460 . S
C587 C586 1.480 . S
C587 H607 0.930 . S
C588 N584 1.362 . S
C588 C585 1.431 . S
C588 C598 1.476 . S
H589 C583 0.929 . S
C590 O581 1.250 . S
C590 O582 1.258 . S
O591 Mn576 2.162 . S
O591 C579 1.281 . S
O592 Mn576 2.297 . S
O592 C579 1.236 . S
N593 Mn577 2.282 . S
N593 C594 1.328 . S
N593 C598 1.318 . S
C594 N593 1.328 . S
C594 C595 1.457 . S
C594 H599 0.929 . S
C595 C594 1.457 . S
C595 C596 1.291 . S
C595 H608 0.931 . S
C596 C595 1.291 . S
C596 C597 1.373 . S
C596 H609 0.929 . S
C597 C596 1.373 . S
C597 C598 1.396 . S
C597 C604 1.403 . S
C598 C588 1.476 . S
C598 N593 1.318 . S
C598 C597 1.396 . S
H599 C594 0.929 . S
O600 Mn576 2.385 . S
O600 C578 1.234 . S
O601 Mn576 2.209 . S
O601 Mn577 2.215 . S
O601 C578 1.283 . S
O602 Mn576 2.094 . S
O602 C580 1.240 . S
O603 Mn577 2.117 . S
O603 C580 1.264 . S
C604 C597 1.403 . S
C604 C605 1.399 . S
C604 H610 0.929 . S
C605 C585 1.449 . S
C605 C604 1.399 . S
C605 H611 0.930 . S
H606 C586 0.934 . S
H607 C587 0.930 . S
H608 C595 0.931 . S
H609 C596 0.929 . S
H610 C604 0.929 . S
H611 C605 0.930 . S
Mn612 O617 2.095 . S
Mn612 O627 2.162 1_655 S
Mn612 O628 2.297 1_655 S
Mn612 O636 2.385 . S
Mn612 O637 2.209 . S
Mn612 O638 2.094 . S
Mn613 O618 2.121 . S
Mn613 N620 2.257 . S
Mn613 N629 2.282 . S
Mn613 O637 2.215 . S
Mn613 O639 2.117 . S
C614 O636 1.234 . S
C614 O637 1.283 . S
C615 O627 1.281 . S
C615 O628 1.236 . S
C616 O638 1.240 . S
C616 O639 1.264 . S
O617 Mn612 2.095 . S
O617 C626 1.250 . S
O618 Mn613 2.121 . S
O618 C626 1.258 . S
C619 N620 1.326 . S
C619 C623 1.460 . S
C619 H625 0.929 . S
N620 Mn613 2.257 . S
N620 C619 1.326 . S
N620 C624 1.362 . S
C621 C622 1.258 . S
C621 C624 1.431 . S
C621 C641 1.449 . S
C622 C621 1.258 . S
C622 C623 1.477 . S
C622 H642 0.931 . S
C623 C619 1.460 . S
C623 C622 1.477 . S
C623 H643 0.930 . S
C624 N620 1.362 . S
C624 C621 1.431 . S
C624 C634 1.476 . S
H625 C619 0.929 . S
C626 O617 1.250 . S
C626 O618 1.258 . S
O627 Mn612 2.162 1_455 S
O627 C615 1.281 . S
O628 Mn612 2.297 1_455 S
O628 C615 1.236 . S
N629 Mn613 2.282 . S
N629 C630 1.328 . S
N629 C634 1.318 . S
C630 N629 1.328 . S
C630 C631 1.457 . S
C630 H635 0.929 . S
C631 C630 1.457 . S
C631 C632 1.291 . S
C631 H644 0.931 . S
C632 C631 1.291 . S
C632 C633 1.373 . S
C632 H645 0.929 . S
C633 C632 1.373 . S
C633 C634 1.396 . S
C633 C640 1.403 . S
C634 C624 1.476 . S
C634 N629 1.318 . S
C634 C633 1.396 . S
H635 C630 0.929 . S
O636 Mn612 2.385 . S
O636 C614 1.234 . S
O637 Mn612 2.209 . S
O637 Mn613 2.215 . S
O637 C614 1.283 . S
O638 Mn612 2.094 . S
O638 C616 1.240 . S
O639 Mn613 2.117 . S
O639 C616 1.264 . S
C640 C633 1.403 . S
C640 C641 1.399 . S
C640 H646 0.929 . S
C641 C621 1.449 . S
C641 C640 1.399 . S
C641 H647 0.930 . S
H642 C622 0.931 . S
H643 C623 0.930 . S
H644 C631 0.931 . S
H645 C632 0.929 . S
H646 C640 0.929 . S
H647 C641 0.930 . S
H648 C656 0.930 . S
H649 C659 0.930 . S
H650 C661 0.930 . S
H651 C662 0.970 . S
H652 C662 0.970 . S
H653 C664 0.930 . S
H654 C666 0.930 . S
H655 C668 0.930 . S
C656 H648 0.930 . S
C656 C657 1.382 . S
C656 C658 1.426 . S
C657 C656 1.382 . S
C657 C661 1.389 . S
C658 C656 1.426 . S
C658 C659 1.375 . S
C658 C662 1.532 . S
C659 H649 0.930 . S
C659 C658 1.375 . S
C659 C660 1.416 . S
C660 C659 1.416 . S
C660 C661 1.371 . S
C661 H650 0.930 . S
C661 C657 1.389 . S
C661 C660 1.371 . S
C662 H651 0.970 . S
C662 H652 0.970 . S
C662 C658 1.532 . S
C662 C663 1.499 . S
C663 C662 1.499 . S
C663 C664 1.370 . S
C663 C668 1.415 . S
C664 H653 0.930 . S
C664 C663 1.370 . S
C664 C665 1.407 . S
C665 C664 1.407 . S
C665 C666 1.365 . S
C666 H654 0.930 . S
C666 C665 1.365 . S
C666 C667 1.393 . S
C667 C666 1.393 . S
C667 C668 1.387 . S
C668 H655 0.930 . S
C668 C663 1.415 . S
C668 C667 1.387 . S
H669 C677 0.930 . S
H670 C680 0.930 . S
H671 C682 0.930 . S
H672 C683 0.970 . S
H673 C683 0.970 . S
H674 C685 0.930 . S
H675 C687 0.930 . S
H676 C689 0.930 . S
C677 H669 0.930 . S
C677 C678 1.382 . S
C677 C679 1.426 . S
C678 C677 1.382 . S
C678 C682 1.389 . S
C679 C677 1.426 . S
C679 C680 1.375 . S
C679 C683 1.532 . S
C680 H670 0.930 . S
C680 C679 1.375 . S
C680 C681 1.416 . S
C681 C680 1.416 . S
C681 C682 1.371 . S
C682 H671 0.930 . S
C682 C678 1.389 . S
C682 C681 1.371 . S
C683 H672 0.970 . S
C683 H673 0.970 . S
C683 C679 1.532 . S
C683 C684 1.499 . S
C684 C683 1.499 . S
C684 C685 1.370 . S
C684 C689 1.415 . S
C685 H674 0.930 . S
C685 C684 1.370 . S
C685 C686 1.407 . S
C686 C685 1.407 . S
C686 C687 1.365 . S
C687 H675 0.930 . S
C687 C686 1.365 . S
C687 C688 1.393 . S
C688 C687 1.393 . S
C688 C689 1.387 . S
C689 H676 0.930 . S
C689 C684 1.415 . S
C689 C688 1.387 . S
H690 C698 0.930 . S
H691 C701 0.930 . S
H692 C703 0.930 . S
H693 C704 0.970 . S
H694 C704 0.970 . S
H695 C706 0.930 . S
H696 C708 0.930 . S
H697 C710 0.930 . S
C698 H690 0.930 . S
C698 C699 1.382 . S
C698 C700 1.426 . S
C699 C698 1.382 . S
C699 C703 1.389 . S
C700 C698 1.426 . S
C700 C701 1.375 . S
C700 C704 1.532 . S
C701 H691 0.930 . S
C701 C700 1.375 . S
C701 C702 1.416 . S
C702 C701 1.416 . S
C702 C703 1.371 . S
C703 H692 0.930 . S
C703 C699 1.389 . S
C703 C702 1.371 . S
C704 H693 0.970 . S
C704 H694 0.970 . S
C704 C700 1.532 . S
C704 C705 1.499 . S
C705 C704 1.499 . S
C705 C706 1.370 . S
C705 C710 1.415 . S
C706 H695 0.930 . S
C706 C705 1.370 . S
C706 C707 1.407 . S
C707 C706 1.407 . S
C707 C708 1.365 . S
C708 H696 0.930 . S
C708 C707 1.365 . S
C708 C709 1.393 . S
C709 C708 1.393 . S
C709 C710 1.387 . S
C710 H697 0.930 . S
C710 C705 1.415 . S
C710 C709 1.387 . S
H711 C719 0.930 . S
H712 C722 0.930 . S
H713 C724 0.930 . S
H714 C725 0.970 . S
H715 C725 0.970 . S
H716 C727 0.930 . S
H717 C729 0.930 . S
H718 C731 0.930 . S
C719 H711 0.930 . S
C719 C720 1.382 . S
C719 C721 1.426 . S
C720 C719 1.382 . S
C720 C724 1.389 . S
C721 C719 1.426 . S
C721 C722 1.375 . S
C721 C725 1.532 . S
C722 H712 0.930 . S
C722 C721 1.375 . S
C722 C723 1.416 . S
C723 C722 1.416 . S
C723 C724 1.371 . S
C724 H713 0.930 . S
C724 C720 1.389 . S
C724 C723 1.371 . S
C725 H714 0.970 . S
C725 H715 0.970 . S
C725 C721 1.532 . S
C725 C726 1.499 . S
C726 C725 1.499 . S
C726 C727 1.370 . S
C726 C731 1.415 . S
C727 H716 0.930 . S
C727 C726 1.370 . S
C727 C728 1.407 . S
C728 C727 1.407 . S
C728 C729 1.365 . S
C729 H717 0.930 . S
C729 C728 1.365 . S
C729 C730 1.393 . S
C730 C729 1.393 . S
C730 C731 1.387 . S
C731 H718 0.930 . S
C731 C726 1.415 . S
C731 C730 1.387 . S
H732 C740 0.930 . S
H733 C743 0.930 . S
H734 C745 0.930 . S
H735 C746 0.970 . S
H736 C746 0.970 . S
H737 C748 0.930 . S
H738 C750 0.930 . S
H739 C752 0.930 . S
C740 H732 0.930 . S
C740 C741 1.382 . S
C740 C742 1.426 . S
C741 C740 1.382 . S
C741 C745 1.389 . S
C742 C740 1.426 . S
C742 C743 1.375 . S
C742 C746 1.532 . S
C743 H733 0.930 . S
C743 C742 1.375 . S
C743 C744 1.416 . S
C744 C743 1.416 . S
C744 C745 1.371 . S
C745 H734 0.930 . S
C745 C741 1.389 . S
C745 C744 1.371 . S
C746 H735 0.970 . S
C746 H736 0.970 . S
C746 C742 1.532 . S
C746 C747 1.499 . S
C747 C746 1.499 . S
C747 C748 1.370 . S
C747 C752 1.415 . S
C748 H737 0.930 . S
C748 C747 1.370 . S
C748 C749 1.407 . S
C749 C748 1.407 . S
C749 C750 1.365 . S
C750 H738 0.930 . S
C750 C749 1.365 . S
C750 C751 1.393 . S
C751 C750 1.393 . S
C751 C752 1.387 . S
C752 H739 0.930 . S
C752 C747 1.415 . S
C752 C751 1.387 . S
H753 C761 0.930 . S
H754 C764 0.930 . S
H755 C766 0.930 . S
H756 C767 0.970 . S
H757 C767 0.970 . S
H758 C769 0.930 . S
H759 C771 0.930 . S
H760 C773 0.930 . S
C761 H753 0.930 . S
C761 C762 1.382 . S
C761 C763 1.426 . S
C762 C761 1.382 . S
C762 C766 1.389 . S
C763 C761 1.426 . S
C763 C764 1.375 . S
C763 C767 1.532 . S
C764 H754 0.930 . S
C764 C763 1.375 . S
C764 C765 1.416 . S
C765 C764 1.416 . S
C765 C766 1.371 . S
C766 H755 0.930 . S
C766 C762 1.389 . S
C766 C765 1.371 . S
C767 H756 0.970 . S
C767 H757 0.970 . S
C767 C763 1.532 . S
C767 C768 1.499 . S
C768 C767 1.499 . S
C768 C769 1.370 . S
C768 C773 1.415 . S
C769 H758 0.930 . S
C769 C768 1.370 . S
C769 C770 1.407 . S
C770 C769 1.407 . S
C770 C771 1.365 . S
C771 H759 0.930 . S
C771 C770 1.365 . S
C771 C772 1.393 . S
C772 C771 1.393 . S
C772 C773 1.387 . S
C773 H760 0.930 . S
C773 C768 1.415 . S
C773 C772 1.387 . S
H774 C782 0.930 . S
H775 C785 0.930 . S
H776 C787 0.930 . S
H777 C788 0.970 . S
H778 C788 0.970 . S
H779 C790 0.930 . S
H780 C792 0.930 . S
H781 C794 0.930 . S
C782 H774 0.930 . S
C782 C783 1.382 . S
C782 C784 1.426 . S
C783 C782 1.382 . S
C783 C787 1.389 . S
C784 C782 1.426 . S
C784 C785 1.375 . S
C784 C788 1.532 . S
C785 H775 0.930 . S
C785 C784 1.375 . S
C785 C786 1.416 . S
C786 C785 1.416 . S
C786 C787 1.371 . S
C787 H776 0.930 . S
C787 C783 1.389 . S
C787 C786 1.371 . S
C788 H777 0.970 . S
C788 H778 0.970 . S
C788 C784 1.532 . S
C788 C789 1.499 . S
C789 C788 1.499 . S
C789 C790 1.370 . S
C789 C794 1.415 . S
C790 H779 0.930 . S
C790 C789 1.370 . S
C790 C791 1.407 . S
C791 C790 1.407 . S
C791 C792 1.365 . S
C792 H780 0.930 . S
C792 C791 1.365 . S
C792 C793 1.393 . S
C793 C792 1.393 . S
C793 C794 1.387 . S
C794 H781 0.930 . S
C794 C789 1.415 . S
C794 C793 1.387 . S
H795 C803 0.930 . S
H796 C806 0.930 . S
H797 C808 0.930 . S
H798 C809 0.970 . S
H799 C809 0.970 . S
H800 C811 0.930 . S
H801 C813 0.930 . S
H802 C815 0.930 . S
C803 H795 0.930 . S
C803 C804 1.382 . S
C803 C805 1.426 . S
C804 C803 1.382 . S
C804 C808 1.389 . S
C805 C803 1.426 . S
C805 C806 1.375 . S
C805 C809 1.532 . S
C806 H796 0.930 . S
C806 C805 1.375 . S
C806 C807 1.416 . S
C807 C806 1.416 . S
C807 C808 1.371 . S
C808 H797 0.930 . S
C808 C804 1.389 . S
C808 C807 1.371 . S
C809 H798 0.970 . S
C809 H799 0.970 . S
C809 C805 1.532 . S
C809 C810 1.499 . S
C810 C809 1.499 . S
C810 C811 1.370 . S
C810 C815 1.415 . S
C811 H800 0.930 . S
C811 C810 1.370 . S
C811 C812 1.407 . S
C812 C811 1.407 . S
C812 C813 1.365 . S
C813 H801 0.930 . S
C813 C812 1.365 . S
C813 C814 1.393 . S
C814 C813 1.393 . S
C814 C815 1.387 . S
C815 H802 0.930 . S
C815 C810 1.415 . S
C815 C814 1.387 . S
H816 C824 0.930 . S
H817 C827 0.930 . S
H818 C829 0.930 . S
H819 C830 0.970 . S
H820 C830 0.970 . S
H821 C832 0.930 . S
H822 C834 0.930 . S
H823 C836 0.930 . S
C824 H816 0.930 . S
C824 C825 1.382 . S
C824 C826 1.426 . S
C825 C824 1.382 . S
C825 C829 1.389 . S
C826 C824 1.426 . S
C826 C827 1.375 . S
C826 C830 1.532 . S
C827 H817 0.930 . S
C827 C826 1.375 . S
C827 C828 1.416 . S
C828 C827 1.416 . S
C828 C829 1.371 . S
C829 H818 0.930 . S
C829 C825 1.389 . S
C829 C828 1.371 . S
C830 H819 0.970 . S
C830 H820 0.970 . S
C830 C826 1.532 . S
C830 C831 1.499 . S
C831 C830 1.499 . S
C831 C832 1.370 . S
C831 C836 1.415 . S
C832 H821 0.930 . S
C832 C831 1.370 . S
C832 C833 1.407 . S
C833 C832 1.407 . S
C833 C834 1.365 . S
C834 H822 0.930 . S
C834 C833 1.365 . S
C834 C835 1.393 . S
C835 C834 1.393 . S
C835 C836 1.387 . S
C836 H823 0.930 . S
C836 C831 1.415 . S
C836 C835 1.387 . S
H837 C845 0.930 . S
H838 C848 0.930 . S
H839 C850 0.930 . S
H840 C851 0.970 . S
H841 C851 0.970 . S
H842 C853 0.930 . S
H843 C855 0.930 . S
H844 C857 0.930 . S
C845 H837 0.930 . S
C845 C846 1.382 . S
C845 C847 1.426 . S
C846 C845 1.382 . S
C846 C850 1.389 1_455 S
C847 C845 1.426 . S
C847 C848 1.375 . S
C847 C851 1.532 . S
C848 H838 0.930 . S
C848 C847 1.375 . S
C848 C849 1.416 . S
C849 C848 1.416 . S
C849 C850 1.371 1_455 S
C850 H839 0.930 . S
C850 C846 1.389 1_655 S
C850 C849 1.371 1_655 S
C851 H840 0.970 . S
C851 H841 0.970 . S
C851 C847 1.532 . S
C851 C852 1.499 . S
C852 C851 1.499 . S
C852 C853 1.370 . S
C852 C857 1.415 . S
C853 H842 0.930 . S
C853 C852 1.370 . S
C853 C854 1.411 . S
C854 C853 1.411 . S
C854 C855 1.367 1_455 S
C855 H843 0.930 . S
C855 C854 1.367 1_655 S
C855 C856 1.393 1_655 S
C856 C855 1.393 1_455 S
C856 C857 1.387 . S
C857 H844 0.930 . S
C857 C852 1.415 . S
C857 C856 1.387 . S
H858 C866 0.930 . S
H859 C869 0.930 . S
H860 C871 0.930 . S
H861 C872 0.970 . S
H862 C872 0.970 . S
H863 C874 0.930 . S
H864 C876 0.930 . S
H865 C878 0.930 . S
C866 H858 0.930 . S
C866 C867 1.382 . S
C866 C868 1.426 . S
C867 C866 1.382 . S
C867 C871 1.389 . S
C868 C866 1.426 . S
C868 C869 1.375 . S
C868 C872 1.532 . S
C869 H859 0.930 . S
C869 C868 1.375 . S
C869 C870 1.416 . S
C870 C869 1.416 . S
C870 C871 1.371 . S
C871 H860 0.930 . S
C871 C867 1.389 . S
C871 C870 1.371 . S
C872 H861 0.970 . S
C872 H862 0.970 . S
C872 C868 1.532 . S
C872 C873 1.499 . S
C873 C872 1.499 . S
C873 C874 1.370 . S
C873 C878 1.415 . S
C874 H863 0.930 . S
C874 C873 1.370 . S
C874 C875 1.407 . S
C875 C874 1.407 . S
C875 C876 1.365 . S
C876 H864 0.930 . S
C876 C875 1.365 . S
C876 C877 1.393 . S
C877 C876 1.393 . S
C877 C878 1.387 . S
C878 H865 0.930 . S
C878 C873 1.415 . S
C878 C877 1.387 . S
H879 C887 0.930 . S
H880 C890 0.930 . S
H881 C892 0.930 . S
H882 C893 0.970 . S
H883 C893 0.970 . S
H884 C895 0.930 . S
H885 C897 0.930 . S
H886 C899 0.930 . S
C887 H879 0.930 . S
C887 C888 1.382 . S
C887 C889 1.426 . S
C888 C887 1.382 . S
C888 C892 1.389 1_565 S
C889 C887 1.426 . S
C889 C890 1.375 . S
C889 C893 1.532 . S
C890 H880 0.930 . S
C890 C889 1.375 . S
C890 C891 1.416 . S
C891 C890 1.416 . S
C891 C892 1.371 1_565 S
C892 H881 0.930 . S
C892 C888 1.389 1_545 S
C892 C891 1.371 1_545 S
C893 H882 0.970 . S
C893 H883 0.970 . S
C893 C889 1.532 . S
C893 C894 1.499 . S
C894 C893 1.499 . S
C894 C895 1.370 . S
C894 C899 1.415 . S
C895 H884 0.930 . S
C895 C894 1.370 . S
C895 C896 1.448 . S
C896 C895 1.448 . S
C896 C897 1.349 1_565 S
C897 H885 0.930 . S
C897 C896 1.349 1_545 S
C897 C898 1.393 1_545 S
C898 C897 1.393 1_565 S
C898 C899 1.387 . S
C899 H886 0.930 . S
C899 C894 1.415 . S
C899 C898 1.387 . S
H900 C908 0.930 . S
H901 C911 0.930 . S
H902 C913 0.930 . S
H903 C914 0.970 . S
H904 C914 0.970 . S
H905 C916 0.930 . S
H906 C918 0.930 . S
H907 C920 0.930 . S
C908 H900 0.930 . S
C908 C909 1.382 . S
C908 C910 1.426 . S
C909 C908 1.382 . S
C909 C913 1.389 1_565 S
C910 C908 1.426 . S
C910 C911 1.375 . S
C910 C914 1.532 . S
C911 H901 0.930 . S
C911 C910 1.375 . S
C911 C912 1.416 . S
C912 C911 1.416 . S
C912 C913 1.371 1_565 S
C913 H902 0.930 . S
C913 C909 1.389 1_545 S
C913 C912 1.371 1_545 S
C914 H903 0.970 . S
C914 H904 0.970 . S
C914 C910 1.532 . S
C914 C915 1.499 . S
C915 C914 1.499 . S
C915 C916 1.370 . S
C915 C920 1.415 . S
C916 H905 0.930 . S
C916 C915 1.370 . S
C916 C917 1.407 . S
C917 C916 1.407 . S
C917 C918 1.365 1_565 S
C918 H906 0.930 . S
C918 C917 1.365 1_545 S
C918 C919 1.393 1_545 S
C919 C918 1.393 1_565 S
C919 C920 1.387 . S
C920 H907 0.930 . S
C920 C915 1.415 . S
C920 C919 1.387 . S
H921 C929 0.930 . S
H922 C932 0.930 . S
H923 C934 0.930 . S
H924 C935 0.970 . S
H925 C935 0.970 . S
H926 C937 0.930 . S
H927 C939 0.930 . S
H928 C941 0.930 . S
C929 H921 0.930 . S
C929 C930 1.382 . S
C929 C931 1.426 . S
C930 C929 1.382 . S
C930 C934 1.389 1_455 S
C931 C929 1.426 . S
C931 C932 1.375 . S
C931 C935 1.532 . S
C932 H922 0.930 . S
C932 C931 1.375 . S
C932 C933 1.416 . S
C933 C932 1.416 . S
C933 C934 1.371 1_455 S
C934 H923 0.930 . S
C934 C930 1.389 1_655 S
C934 C933 1.371 1_655 S
C935 H924 0.970 . S
C935 H925 0.970 . S
C935 C931 1.532 . S
C935 C936 1.499 . S
C936 C935 1.499 . S
C936 C937 1.370 . S
C936 C941 1.415 . S
C937 H926 0.930 . S
C937 C936 1.370 . S
C937 C938 1.407 . S
C938 C937 1.407 . S
C938 C939 1.365 1_455 S
C939 H927 0.930 . S
C939 C938 1.365 1_655 S
C939 C940 1.393 1_655 S
C940 C939 1.393 1_455 S
C940 C941 1.387 . S
C941 H928 0.930 . S
C941 C936 1.415 . S
C941 C940 1.387 . S
H942 C950 0.930 . S
H943 C953 0.930 . S
H944 C955 0.930 . S
H945 C956 0.970 . S
H946 C956 0.970 . S
H947 C958 0.930 . S
H948 C960 0.930 . S
H949 C962 0.930 . S
C950 H942 0.930 . S
C950 C951 1.382 . S
C950 C952 1.426 . S
C951 C950 1.382 . S
C951 C955 1.389 . S
C952 C950 1.426 . S
C952 C953 1.375 . S
C952 C956 1.532 . S
C953 H943 0.930 . S
C953 C952 1.375 . S
C953 C954 1.416 . S
C954 C953 1.416 . S
C954 C955 1.371 . S
C955 H944 0.930 . S
C955 C951 1.389 . S
C955 C954 1.371 . S
C956 H945 0.970 . S
C956 H946 0.970 . S
C956 C952 1.532 . S
C956 C957 1.499 . S
C957 C956 1.499 . S
C957 C958 1.370 . S
C957 C962 1.415 . S
C958 H947 0.930 . S
C958 C957 1.370 . S
C958 C959 1.407 . S
C959 C958 1.407 . S
C959 C960 1.365 . S
C960 H948 0.930 . S
C960 C959 1.365 . S
C960 C961 1.393 . S
C961 C960 1.393 . S
C961 C962 1.387 . S
C962 H949 0.930 . S
C962 C957 1.415 . S
C962 C961 1.387 . S
H963 C971 0.930 . S
H964 C974 0.930 . S
H965 C976 0.930 . S
H966 C977 0.970 . S
H967 C977 0.970 . S
H968 C979 0.930 . S
H969 C981 0.930 . S
H970 C983 0.930 . S
C971 H963 0.930 . S
C971 C972 1.382 . S
C971 C973 1.426 . S
C972 C971 1.382 . S
C972 C976 1.389 . S
C973 C971 1.426 . S
C973 C974 1.375 . S
C973 C977 1.532 . S
C974 H964 0.930 . S
C974 C973 1.375 . S
C974 C975 1.416 . S
C975 C974 1.416 . S
C975 C976 1.371 . S
C976 H965 0.930 . S
C976 C972 1.389 . S
C976 C975 1.371 . S
C977 H966 0.970 . S
C977 H967 0.970 . S
C977 C973 1.532 . S
C977 C978 1.499 . S
C978 C977 1.499 . S
C978 C979 1.370 . S
C978 C983 1.415 . S
C979 H968 0.930 . S
C979 C978 1.370 . S
C979 C980 1.407 . S
C980 C979 1.407 . S
C980 C981 1.365 . S
C981 H969 0.930 . S
C981 C980 1.365 . S
C981 C982 1.393 . S
C982 C981 1.393 . S
C982 C983 1.387 . S
C983 H970 0.930 . S
C983 C978 1.415 . S
C983 C982 1.387 . S
H984 C992 0.930 . S
H985 C995 0.930 . S
H986 C997 0.930 . S
H987 C998 0.970 . S
H988 C998 0.970 . S
H989 C1000 0.930 . S
H990 C1002 0.930 . S
H991 C1004 0.930 . S
C992 H984 0.930 . S
C992 C993 1.382 . S
C992 C994 1.426 . S
C993 C992 1.382 . S
C993 C997 1.389 . S
C994 C992 1.426 . S
C994 C995 1.375 . S
C994 C998 1.532 . S
C995 H985 0.930 . S
C995 C994 1.375 . S
C995 C996 1.416 . S
C996 C995 1.416 . S
C996 C997 1.371 . S
C997 H986 0.930 . S
C997 C993 1.389 . S
C997 C996 1.371 . S
C998 H987 0.970 . S
C998 H988 0.970 . S
C998 C994 1.532 . S
C998 C999 1.499 . S
C999 C998 1.499 . S
C999 C1000 1.370 . S
C999 C1004 1.415 . S
C1000 H989 0.930 . S
C1000 C999 1.370 . S
C1000 C1001 1.407 . S
C1001 C1000 1.407 . S
C1001 C1002 1.365 . S
C1002 H990 0.930 . S
C1002 C1001 1.365 . S
C1002 C1003 1.393 . S
C1003 C1002 1.393 . S
C1003 C1004 1.387 . S
C1004 H991 0.930 . S
C1004 C999 1.415 . S
C1004 C1003 1.387 . S
H1005 C1013 0.930 . S
H1006 C1016 0.930 . S
H1007 C1018 0.930 . S
H1008 C1019 0.970 . S
H1009 C1019 0.970 . S
H1010 C1021 0.930 . S
H1011 C1023 0.930 . S
H1012 C1025 0.930 . S
C1013 H1005 0.930 . S
C1013 C1014 1.382 . S
C1013 C1015 1.426 . S
C1014 C1013 1.382 . S
C1014 C1018 1.389 . S
C1015 C1013 1.426 . S
C1015 C1016 1.375 . S
C1015 C1019 1.532 . S
C1016 H1006 0.930 . S
C1016 C1015 1.375 . S
C1016 C1017 1.416 . S
C1017 C1016 1.416 . S
C1017 C1018 1.371 . S
C1018 H1007 0.930 . S
C1018 C1014 1.389 . S
C1018 C1017 1.371 . S
C1019 H1008 0.970 . S
C1019 H1009 0.970 . S
C1019 C1015 1.532 . S
C1019 C1020 1.499 . S
C1020 C1019 1.499 . S
C1020 C1021 1.370 . S
C1020 C1025 1.415 . S
C1021 H1010 0.930 . S
C1021 C1020 1.370 . S
C1021 C1022 1.407 . S
C1022 C1021 1.407 . S
C1022 C1023 1.365 . S
C1023 H1011 0.930 . S
C1023 C1022 1.365 . S
C1023 C1024 1.393 . S
C1024 C1023 1.393 . S
C1024 C1025 1.387 . S
C1025 H1012 0.930 . S
C1025 C1020 1.415 . S
C1025 C1024 1.387 . S
H1026 C1032 0.930 . S
H1027 C1035 0.930 . S
H1028 C1036 0.930 . S
H1029 C1037 0.930 . S
H1030 C1040 0.930 . S
H1031 C1041 0.930 . S
C1032 H1026 0.930 . S
C1032 C1033 1.355 . S
C1032 C1034 1.415 . S
C1033 C1032 1.355 . S
C1033 C1035 1.419 1_655 S
C1034 C1032 1.415 . S
C1034 C1039 1.425 1_655 S
C1034 C1041 1.409 . S
C1035 H1027 0.930 . S
C1035 C1033 1.419 1_455 S
C1035 C1036 1.362 . S
C1036 H1028 0.930 . S
C1036 C1035 1.362 . S
C1036 C1039 1.409 . S
C1037 H1029 0.930 . S
C1037 C1038 1.355 1_455 S
C1037 C1039 1.415 . S
C1038 C1037 1.355 1_655 S
C1038 C1040 1.419 . S
C1039 C1034 1.425 1_455 S
C1039 C1036 1.409 . S
C1039 C1037 1.415 . S
C1040 H1030 0.930 . S
C1040 C1038 1.419 . S
C1040 C1041 1.362 . S
C1041 H1031 0.930 . S
C1041 C1034 1.409 . S
C1041 C1040 1.362 . S
H1042 C1048 0.930 . S
H1043 C1051 0.930 . S
H1044 C1052 0.930 . S
H1045 C1053 0.930 . S
H1046 C1056 0.930 . S
H1047 C1057 0.930 . S
C1048 H1042 0.930 . S
C1048 C1049 1.355 . S
C1048 C1050 1.415 . S
C1049 C1048 1.355 . S
C1049 C1051 1.419 . S
C1050 C1048 1.415 . S
C1050 C1055 1.425 . S
C1050 C1057 1.409 . S
C1051 H1043 0.930 . S
C1051 C1049 1.419 . S
C1051 C1052 1.362 . S
C1052 H1044 0.930 . S
C1052 C1051 1.362 . S
C1052 C1055 1.409 . S
C1053 H1045 0.930 . S
C1053 C1054 1.355 . S
C1053 C1055 1.415 . S
C1054 C1053 1.355 . S
C1054 C1056 1.419 . S
C1055 C1050 1.425 . S
C1055 C1052 1.409 . S
C1055 C1053 1.415 . S
C1056 H1046 0.930 . S
C1056 C1054 1.419 . S
C1056 C1057 1.362 . S
C1057 H1047 0.930 . S
C1057 C1050 1.409 . S
C1057 C1056 1.362 . S
H1058 C1064 0.930 . S
H1059 C1067 0.930 . S
H1060 C1068 0.930 . S
H1061 C1069 0.930 . S
H1062 C1072 0.930 . S
H1063 C1073 0.930 . S
C1064 H1058 0.930 . S
C1064 C1065 1.355 1_565 S
C1064 C1066 1.415 . S
C1065 C1064 1.355 1_545 S
C1065 C1067 1.419 . S
C1066 C1064 1.415 . S
C1066 C1071 1.425 1_565 S
C1066 C1073 1.409 . S
C1067 H1059 0.930 . S
C1067 C1065 1.419 . S
C1067 C1068 1.362 . S
C1068 H1060 0.930 . S
C1068 C1067 1.362 . S
C1068 C1071 1.409 . S
C1069 H1061 0.930 . S
C1069 C1070 1.355 . S
C1069 C1071 1.415 . S
C1070 C1069 1.355 . S
C1070 C1072 1.419 1_545 S
C1071 C1066 1.425 1_545 S
C1071 C1068 1.409 . S
C1071 C1069 1.415 . S
C1072 H1062 0.930 . S
C1072 C1070 1.419 1_565 S
C1072 C1073 1.362 . S
C1073 H1063 0.930 . S
C1073 C1066 1.409 . S
C1073 C1072 1.362 . S
H1074 C1080 0.930 . S
H1075 C1083 0.930 . S
H1076 C1084 0.930 . S
H1077 C1085 0.930 . S
H1078 C1088 0.930 . S
H1079 C1089 0.930 . S
C1080 H1074 0.930 . S
C1080 C1081 1.355 . S
C1080 C1082 1.415 . S
C1081 C1080 1.355 . S
C1081 C1083 1.419 1_565 S
C1082 C1080 1.415 . S
C1082 C1087 1.425 1_565 S
C1082 C1089 1.409 . S
C1083 H1075 0.930 . S
C1083 C1081 1.419 1_545 S
C1083 C1084 1.362 . S
C1084 H1076 0.930 . S
C1084 C1083 1.362 . S
C1084 C1087 1.409 . S
C1085 H1077 0.930 . S
C1085 C1086 1.355 1_545 S
C1085 C1087 1.415 . S
C1086 C1085 1.355 1_565 S
C1086 C1088 1.419 . S
C1087 C1082 1.425 1_545 S
C1087 C1084 1.409 . S
C1087 C1085 1.415 . S
C1088 H1078 0.930 . S
C1088 C1086 1.419 . S
C1088 C1089 1.362 . S
C1089 H1079 0.930 . S
C1089 C1082 1.409 . S
C1089 C1088 1.362 . S
H1090 C1096 0.930 . S
H1091 C1099 0.930 . S
H1092 C1100 0.930 . S
H1093 C1101 0.930 . S
H1094 C1104 0.930 . S
H1095 C1105 0.930 . S
C1096 H1090 0.930 . S
C1096 C1097 1.355 . S
C1096 C1098 1.415 . S
C1097 C1096 1.355 . S
C1097 C1099 1.419 . S
C1098 C1096 1.415 . S
C1098 C1103 1.425 . S
C1098 C1105 1.409 . S
C1099 H1091 0.930 . S
C1099 C1097 1.419 . S
C1099 C1100 1.362 . S
C1100 H1092 0.930 . S
C1100 C1099 1.362 . S
C1100 C1103 1.409 . S
C1101 H1093 0.930 . S
C1101 C1102 1.355 . S
C1101 C1103 1.415 . S
C1102 C1101 1.355 . S
C1102 C1104 1.419 . S
C1103 C1098 1.425 . S
C1103 C1100 1.409 . S
C1103 C1101 1.415 . S
C1104 H1094 0.930 . S
C1104 C1102 1.419 . S
C1104 C1105 1.362 . S
C1105 H1095 0.930 . S
C1105 C1098 1.409 . S
C1105 C1104 1.362 . S
H1106 C1112 0.930 . S
H1107 C1115 0.930 . S
H1108 C1116 0.930 . S
H1109 C1117 0.930 . S
H1110 C1120 0.930 . S
H1111 C1121 0.930 . S
C1112 H1106 0.930 . S
C1112 C1113 1.355 . S
C1112 C1114 1.415 . S
C1113 C1112 1.355 . S
C1113 C1115 1.419 . S
C1114 C1112 1.415 . S
C1114 C1119 1.425 . S
C1114 C1121 1.409 . S
C1115 H1107 0.930 . S
C1115 C1113 1.419 . S
C1115 C1116 1.362 . S
C1116 H1108 0.930 . S
C1116 C1115 1.362 . S
C1116 C1119 1.409 . S
C1117 H1109 0.930 . S
C1117 C1118 1.355 . S
C1117 C1119 1.415 . S
C1118 C1117 1.355 . S
C1118 C1120 1.419 . S
C1119 C1114 1.425 . S
C1119 C1116 1.409 . S
C1119 C1117 1.415 . S
C1120 H1110 0.930 . S
C1120 C1118 1.419 . S
C1120 C1121 1.362 . S
C1121 H1111 0.930 . S
C1121 C1114 1.409 . S
C1121 C1120 1.362 . S
H1122 C1128 0.930 . S
H1123 C1131 0.930 . S
H1124 C1132 0.930 . S
H1125 C1133 0.930 . S
H1126 C1136 0.930 . S
H1127 C1137 0.930 . S
C1128 H1122 0.930 . S
C1128 C1129 1.355 1_655 S
C1128 C1130 1.415 . S
C1129 C1128 1.355 1_455 S
C1129 C1131 1.419 . S
C1130 C1128 1.415 . S
C1130 C1135 1.425 1_655 S
C1130 C1137 1.409 . S
C1131 H1123 0.930 . S
C1131 C1129 1.419 . S
C1131 C1132 1.362 . S
C1132 H1124 0.930 . S
C1132 C1131 1.362 . S
C1132 C1135 1.409 . S
C1133 H1125 0.930 . S
C1133 C1134 1.355 . S
C1133 C1135 1.415 . S
C1134 C1133 1.355 . S
C1134 C1136 1.419 1_455 S
C1135 C1130 1.425 1_455 S
C1135 C1132 1.409 . S
C1135 C1133 1.415 . S
C1136 H1126 0.930 . S
C1136 C1134 1.419 1_655 S
C1136 C1137 1.362 . S
C1137 H1127 0.930 . S
C1137 C1130 1.409 . S
C1137 C1136 1.362 . S
H1138 C1144 0.930 . S
H1139 C1147 0.930 . S
H1140 C1148 0.930 . S
H1141 C1149 0.930 . S
H1142 C1152 0.930 . S
H1143 C1153 0.930 . S
C1144 H1138 0.930 . S
C1144 C1145 1.355 . S
C1144 C1146 1.415 . S
C1145 C1144 1.355 . S
C1145 C1147 1.419 . S
C1146 C1144 1.415 . S
C1146 C1151 1.425 . S
C1146 C1153 1.409 . S
C1147 H1139 0.930 . S
C1147 C1145 1.419 . S
C1147 C1148 1.362 . S
C1148 H1140 0.930 . S
C1148 C1147 1.362 . S
C1148 C1151 1.409 . S
C1149 H1141 0.930 . S
C1149 C1150 1.355 . S
C1149 C1151 1.415 . S
C1150 C1149 1.355 . S
C1150 C1152 1.419 . S
C1151 C1146 1.425 . S
C1151 C1148 1.409 . S
C1151 C1149 1.415 . S
C1152 H1142 0.930 . S
C1152 C1150 1.419 . S
C1152 C1153 1.362 . S
C1153 H1143 0.930 . S
C1153 C1146 1.409 . S
C1153 C1152 1.362 . S
H1154 C1160 0.930 . S
H1155 C1163 0.930 . S
H1156 C1164 0.930 . S
H1157 C1165 0.908 1_545 S
H1158 C1168 0.930 . S
H1159 C1169 0.930 . S
C1160 H1154 0.930 . S
C1160 C1161 1.355 . S
C1160 C1162 1.415 . S
C1161 C1160 1.355 . S
C1161 C1163 1.413 1_565 S
C1162 C1160 1.415 . S
C1162 C1167 1.446 . S
C1162 C1169 1.409 . S
C1163 H1155 0.930 . S
C1163 C1161 1.413 1_545 S
C1163 C1164 1.368 . S
C1164 H1156 0.930 . S
C1164 C1163 1.368 . S
C1164 C1167 1.408 1_545 S
C1165 H1157 0.908 1_565 S
C1165 C1166 1.356 . S
C1165 C1167 1.410 . S
C1166 C1165 1.356 . S
C1166 C1168 1.419 . S
C1167 C1162 1.446 . S
C1167 C1164 1.408 1_565 S
C1167 C1165 1.410 . S
C1168 H1158 0.930 . S
C1168 C1166 1.419 . S
C1168 C1169 1.362 . S
C1169 H1159 0.930 . S
C1169 C1162 1.409 . S
C1169 C1168 1.362 . S
H1170 C1176 0.930 . S
H1171 C1179 0.930 . S
H1172 C1180 0.930 . S
H1173 C1181 0.930 . S
H1174 C1184 0.930 . S
H1175 C1185 0.930 . S
C1176 H1170 0.930 . S
C1176 C1177 1.355 . S
C1176 C1178 1.415 . S
C1177 C1176 1.355 . S
C1177 C1179 1.419 1_545 S
C1178 C1176 1.415 . S
C1178 C1183 1.425 1_545 S
C1178 C1185 1.409 . S
C1179 H1171 0.930 . S
C1179 C1177 1.419 1_565 S
C1179 C1180 1.362 . S
C1180 H1172 0.930 . S
C1180 C1179 1.362 . S
C1180 C1183 1.409 . S
C1181 H1173 0.930 . S
C1181 C1182 1.355 1_565 S
C1181 C1183 1.415 . S
C1182 C1181 1.355 1_545 S
C1182 C1184 1.419 . S
C1183 C1178 1.425 1_565 S
C1183 C1180 1.409 . S
C1183 C1181 1.415 . S
C1184 H1174 0.930 . S
C1184 C1182 1.419 . S
C1184 C1185 1.362 . S
C1185 H1175 0.930 . S
C1185 C1178 1.409 . S
C1185 C1184 1.362 . S
H1186 C1192 0.930 . S
H1187 C1195 0.930 . S
H1188 C1196 0.930 . S
H1189 C1197 0.930 . S
H1190 C1200 0.930 . S
H1191 C1201 0.930 . S
C1192 H1186 0.930 . S
C1192 C1193 1.355 1_455 S
C1192 C1194 1.415 . S
C1193 C1192 1.355 1_655 S
C1193 C1195 1.419 . S
C1194 C1192 1.415 . S
C1194 C1199 1.425 1_455 S
C1194 C1201 1.409 . S
C1195 H1187 0.930 . S
C1195 C1193 1.419 . S
C1195 C1196 1.362 . S
C1196 H1188 0.930 . S
C1196 C1195 1.362 . S
C1196 C1199 1.409 . S
C1197 H1189 0.930 . S
C1197 C1198 1.355 1_655 S
C1197 C1199 1.415 . S
C1198 C1197 1.355 1_455 S
C1198 C1200 1.419 . S
C1199 C1194 1.425 1_655 S
C1199 C1196 1.409 . S
C1199 C1197 1.415 . S
C1200 H1190 0.930 . S
C1200 C1198 1.419 . S
C1200 C1201 1.362 . S
C1201 H1191 0.930 . S
C1201 C1194 1.409 . S
C1201 C1200 1.362 . S
H1202 C1208 0.930 . S
H1203 C1211 0.930 . S
H1204 C1212 0.930 . S
H1205 C1213 0.930 . S
H1206 C1216 0.930 . S
H1207 C1217 0.930 . S
C1208 H1202 0.930 . S
C1208 C1209 1.355 . S
C1208 C1210 1.415 . S
C1209 C1208 1.355 . S
C1209 C1211 1.419 . S
C1210 C1208 1.415 . S
C1210 C1215 1.425 . S
C1210 C1217 1.409 . S
C1211 H1203 0.930 . S
C1211 C1209 1.419 . S
C1211 C1212 1.362 . S
C1212 H1204 0.930 . S
C1212 C1211 1.362 . S
C1212 C1215 1.409 . S
C1213 H1205 0.930 . S
C1213 C1214 1.355 . S
C1213 C1215 1.415 . S
C1214 C1213 1.355 . S
C1214 C1216 1.419 . S
C1215 C1210 1.425 . S
C1215 C1212 1.409 . S
C1215 C1213 1.415 . S
C1216 H1206 0.930 . S
C1216 C1214 1.419 . S
C1216 C1217 1.362 . S
C1217 H1207 0.930 . S
C1217 C1210 1.409 . S
C1217 C1216 1.362 . S
H1218 C1224 0.930 . S
H1219 C1227 0.930 . S
H1220 C1228 0.930 . S
H1221 C1229 0.930 . S
H1222 C1232 0.930 . S
H1223 C1233 0.930 . S
C1224 H1218 0.930 . S
C1224 C1225 1.355 . S
C1224 C1226 1.415 . S
C1225 C1224 1.355 . S
C1225 C1227 1.419 . S
C1226 C1224 1.415 . S
C1226 C1231 1.425 . S
C1226 C1233 1.409 . S
C1227 H1219 0.930 . S
C1227 C1225 1.419 . S
C1227 C1228 1.362 . S
C1228 H1220 0.930 . S
C1228 C1227 1.362 . S
C1228 C1231 1.409 . S
C1229 H1221 0.930 . S
C1229 C1230 1.355 . S
C1229 C1231 1.415 . S
C1230 C1229 1.355 . S
C1230 C1232 1.419 . S
C1231 C1226 1.425 . S
C1231 C1228 1.409 . S
C1231 C1229 1.415 . S
C1232 H1222 0.930 . S
C1232 C1230 1.419 . S
C1232 C1233 1.362 . S
C1233 H1223 0.930 . S
C1233 C1226 1.409 . S
C1233 C1232 1.362 . S
H1234 C1240 0.930 . S
H1235 C1243 0.930 . S
H1236 C1244 0.930 . S
H1237 C1245 0.930 . S
H1238 C1248 0.930 . S
H1239 C1249 0.930 . S
C1240 H1234 0.930 . S
C1240 C1241 1.355 . S
C1240 C1242 1.415 . S
C1241 C1240 1.355 . S
C1241 C1243 1.419 . S
C1242 C1240 1.415 . S
C1242 C1247 1.425 . S
C1242 C1249 1.409 . S
C1243 H1235 0.930 . S
C1243 C1241 1.419 . S
C1243 C1244 1.362 . S
C1244 H1236 0.930 . S
C1244 C1243 1.362 . S
C1244 C1247 1.409 . S
C1245 H1237 0.930 . S
C1245 C1246 1.355 . S
C1245 C1247 1.415 . S
C1246 C1245 1.355 . S
C1246 C1248 1.419 . S
C1247 C1242 1.425 . S
C1247 C1244 1.409 . S
C1247 C1245 1.415 . S
C1248 H1238 0.930 . S
C1248 C1246 1.419 . S
C1248 C1249 1.362 . S
C1249 H1239 0.930 . S
C1249 C1242 1.409 . S
C1249 C1248 1.362 . S
H1250 C1256 0.930 . S
H1251 C1259 0.930 . S
H1252 C1260 0.930 . S
H1253 C1261 0.930 . S
H1254 C1264 0.930 . S
H1255 C1265 0.930 . S
C1256 H1250 0.930 . S
C1256 C1257 1.355 . S
C1256 C1258 1.415 . S
C1257 C1256 1.355 . S
C1257 C1259 1.419 . S
C1258 C1256 1.415 . S
C1258 C1263 1.425 . S
C1258 C1265 1.409 . S
C1259 H1251 0.930 . S
C1259 C1257 1.419 . S
C1259 C1260 1.362 . S
C1260 H1252 0.930 . S
C1260 C1259 1.362 . S
C1260 C1263 1.409 . S
C1261 H1253 0.930 . S
C1261 C1262 1.355 . S
C1261 C1263 1.415 . S
C1262 C1261 1.355 . S
C1262 C1264 1.419 . S
C1263 C1258 1.425 . S
C1263 C1260 1.409 . S
C1263 C1261 1.415 . S
C1264 H1254 0.930 . S
C1264 C1262 1.419 . S
C1264 C1265 1.362 . S
C1265 H1255 0.930 . S
C1265 C1258 1.409 . S
C1265 C1264 1.362 . S
H1266 C1272 0.930 . S
H1267 C1275 0.930 . S
H1268 C1276 0.930 . S
H1269 C1277 0.930 . S
H1270 C1280 0.930 . S
H1271 C1281 0.930 . S
C1272 H1266 0.930 . S
C1272 C1273 1.355 . S
C1272 C1274 1.415 . S
C1273 C1272 1.355 . S
C1273 C1275 1.419 . S
C1274 C1272 1.415 . S
C1274 C1279 1.425 . S
C1274 C1281 1.409 . S
C1275 H1267 0.930 . S
C1275 C1273 1.419 . S
C1275 C1276 1.362 . S
C1276 H1268 0.930 . S
C1276 C1275 1.362 . S
C1276 C1279 1.409 . S
C1277 H1269 0.930 . S
C1277 C1278 1.355 . S
C1277 C1279 1.415 . S
C1278 C1277 1.355 . S
C1278 C1280 1.419 . S
C1279 C1274 1.425 . S
C1279 C1276 1.409 . S
C1279 C1277 1.415 . S
C1280 H1270 0.930 . S
C1280 C1278 1.419 . S
C1280 C1281 1.362 . S
C1281 H1271 0.930 . S
C1281 C1274 1.409 . S
C1281 C1280 1.362 . S
H1282 C1288 0.930 . S
H1283 C1291 0.930 . S
H1284 C1292 0.930 . S
H1285 C1293 0.930 . S
H1286 C1296 0.930 . S
H1287 C1297 0.930 . S
C1288 H1282 0.930 . S
C1288 C1289 1.355 . S
C1288 C1290 1.415 . S
C1289 C1288 1.355 . S
C1289 C1291 1.419 . S
C1290 C1288 1.415 . S
C1290 C1295 1.425 . S
C1290 C1297 1.409 . S
C1291 H1283 0.930 . S
C1291 C1289 1.419 . S
C1291 C1292 1.362 . S
C1292 H1284 0.930 . S
C1292 C1291 1.362 . S
C1292 C1295 1.409 . S
C1293 H1285 0.930 . S
C1293 C1294 1.355 . S
C1293 C1295 1.415 . S
C1294 C1293 1.355 . S
C1294 C1296 1.419 . S
C1295 C1290 1.425 . S
C1295 C1292 1.409 . S
C1295 C1293 1.415 . S
C1296 H1286 0.930 . S
C1296 C1294 1.419 . S
C1296 C1297 1.362 . S
C1297 H1287 0.930 . S
C1297 C1290 1.409 . S
C1297 C1296 1.362 . S
H1298 C1304 0.930 . S
H1299 C1307 0.930 . S
H1300 C1308 0.930 . S
H1301 C1309 0.930 . S
H1302 C1312 0.930 . S
H1303 C1313 0.930 . S
C1304 H1298 0.930 . S
C1304 C1305 1.355 . S
C1304 C1306 1.415 . S
C1305 C1304 1.355 . S
C1305 C1307 1.419 . S
C1306 C1304 1.415 . S
C1306 C1311 1.425 . S
C1306 C1313 1.409 . S
C1307 H1299 0.930 . S
C1307 C1305 1.419 . S
C1307 C1308 1.362 . S
C1308 H1300 0.930 . S
C1308 C1307 1.362 . S
C1308 C1311 1.409 . S
C1309 H1301 0.930 . S
C1309 C1310 1.355 . S
C1309 C1311 1.415 . S
C1310 C1309 1.355 . S
C1310 C1312 1.419 . S
C1311 C1306 1.425 . S
C1311 C1308 1.409 . S
C1311 C1309 1.415 . S
C1312 H1302 0.930 . S
C1312 C1310 1.419 . S
C1312 C1313 1.362 . S
C1313 H1303 0.930 . S
C1313 C1306 1.409 . S
C1313 C1312 1.362 . S
H1314 C1320 0.930 . S
H1315 C1323 0.930 . S
H1316 C1324 0.930 . S
H1317 C1325 0.930 . S
H1318 C1328 0.930 . S
H1319 C1329 0.930 . S
C1320 H1314 0.930 . S
C1320 C1321 1.355 . S
C1320 C1322 1.415 . S
C1321 C1320 1.355 . S
C1321 C1323 1.419 . S
C1322 C1320 1.415 . S
C1322 C1327 1.425 . S
C1322 C1329 1.409 . S
C1323 H1315 0.930 . S
C1323 C1321 1.419 . S
C1323 C1324 1.362 . S
C1324 H1316 0.930 . S
C1324 C1323 1.362 . S
C1324 C1327 1.409 . S
C1325 H1317 0.930 . S
C1325 C1326 1.355 . S
C1325 C1327 1.415 . S
C1326 C1325 1.355 . S
C1326 C1328 1.419 . S
C1327 C1322 1.425 . S
C1327 C1324 1.409 . S
C1327 C1325 1.415 . S
C1328 H1318 0.930 . S
C1328 C1326 1.419 . S
C1328 C1329 1.362 . S
C1329 H1319 0.930 . S
C1329 C1322 1.409 . S
C1329 C1328 1.362 . S
H1330 C1336 0.930 . S
H1331 C1339 0.930 . S
H1332 C1340 0.930 . S
H1333 C1341 0.930 . S
H1334 C1344 0.930 . S
H1335 C1345 0.930 . S
C1336 H1330 0.930 . S
C1336 C1337 1.355 . S
C1336 C1338 1.415 . S
C1337 C1336 1.355 . S
C1337 C1339 1.419 . S
C1338 C1336 1.415 . S
C1338 C1343 1.425 . S
C1338 C1345 1.409 . S
C1339 H1331 0.930 . S
C1339 C1337 1.419 . S
C1339 C1340 1.362 . S
C1340 H1332 0.930 . S
C1340 C1339 1.362 . S
C1340 C1343 1.409 . S
C1341 H1333 0.930 . S
C1341 C1342 1.355 . S
C1341 C1343 1.415 . S
C1342 C1341 1.355 . S
C1342 C1344 1.419 . S
C1343 C1338 1.425 . S
C1343 C1340 1.409 . S
C1343 C1341 1.415 . S
C1344 H1334 0.930 . S
C1344 C1342 1.419 . S
C1344 C1345 1.362 . S
C1345 H1335 0.930 . S
C1345 C1338 1.409 . S
C1345 C1344 1.362 . S
H1346 C1352 0.930 . S
H1347 C1355 0.930 . S
H1348 C1356 0.930 . S
H1349 C1357 0.930 . S
H1350 C1360 0.930 . S
H1351 C1361 0.930 . S
C1352 H1346 0.930 . S
C1352 C1353 1.355 . S
C1352 C1354 1.415 . S
C1353 C1352 1.355 . S
C1353 C1355 1.419 . S
C1354 C1352 1.415 . S
C1354 C1359 1.425 . S
C1354 C1361 1.409 . S
C1355 H1347 0.930 . S
C1355 C1353 1.419 . S
C1355 C1356 1.362 . S
C1356 H1348 0.930 . S
C1356 C1355 1.362 . S
C1356 C1359 1.409 . S
C1357 H1349 0.930 . S
C1357 C1358 1.355 . S
C1357 C1359 1.415 . S
C1358 C1357 1.355 . S
C1358 C1360 1.419 . S
C1359 C1354 1.425 . S
C1359 C1356 1.409 . S
C1359 C1357 1.415 . S
C1360 H1350 0.930 . S
C1360 C1358 1.419 . S
C1360 C1361 1.362 . S
C1361 H1351 0.930 . S
C1361 C1354 1.409 . S
C1361 C1360 1.362 . S
H1362 C1368 0.930 . S
H1363 C1371 0.930 . S
H1364 C1372 0.930 . S
H1365 C1373 0.930 . S
H1366 C1376 0.930 . S
H1367 C1377 0.930 . S
C1368 H1362 0.930 . S
C1368 C1369 1.355 . S
C1368 C1370 1.415 . S
C1369 C1368 1.355 . S
C1369 C1371 1.419 . S
C1370 C1368 1.415 . S
C1370 C1375 1.425 . S
C1370 C1377 1.409 . S
C1371 H1363 0.930 . S
C1371 C1369 1.419 . S
C1371 C1372 1.362 . S
C1372 H1364 0.930 . S
C1372 C1371 1.362 . S
C1372 C1375 1.409 . S
C1373 H1365 0.930 . S
C1373 C1374 1.355 . S
C1373 C1375 1.415 . S
C1374 C1373 1.355 . S
C1374 C1376 1.419 . S
C1375 C1370 1.425 . S
C1375 C1372 1.409 . S
C1375 C1373 1.415 . S
C1376 H1366 0.930 . S
C1376 C1374 1.419 . S
C1376 C1377 1.362 . S
C1377 H1367 0.930 . S
C1377 C1370 1.409 . S
C1377 C1376 1.362 . S
H1378 C1384 0.930 . S
H1379 C1387 0.930 . S
H1380 C1388 0.930 . S
H1381 C1389 0.930 . S
H1382 C1392 0.930 . S
H1383 C1393 0.930 . S
C1384 H1378 0.930 . S
C1384 C1385 1.355 . S
C1384 C1386 1.415 . S
C1385 C1384 1.355 . S
C1385 C1387 1.419 . S
C1386 C1384 1.415 . S
C1386 C1391 1.425 . S
C1386 C1393 1.409 . S
C1387 H1379 0.930 . S
C1387 C1385 1.419 . S
C1387 C1388 1.362 . S
C1388 H1380 0.930 . S
C1388 C1387 1.362 . S
C1388 C1391 1.409 . S
C1389 H1381 0.930 . S
C1389 C1390 1.355 . S
C1389 C1391 1.415 . S
C1390 C1389 1.355 . S
C1390 C1392 1.419 . S
C1391 C1386 1.425 . S
C1391 C1388 1.409 . S
C1391 C1389 1.415 . S
C1392 H1382 0.930 . S
C1392 C1390 1.419 . S
C1392 C1393 1.362 . S
C1393 H1383 0.930 . S
C1393 C1386 1.409 . S
C1393 C1392 1.362 . S
H1394 C1400 0.930 . S
H1395 C1403 0.930 . S
H1396 C1404 0.930 . S
H1397 C1405 0.930 . S
H1398 C1408 0.930 . S
H1399 C1409 0.930 . S
C1400 H1394 0.930 . S
C1400 C1401 1.355 . S
C1400 C1402 1.415 . S
C1401 C1400 1.355 . S
C1401 C1403 1.419 . S
C1402 C1400 1.415 . S
C1402 C1407 1.425 . S
C1402 C1409 1.409 . S
C1403 H1395 0.930 . S
C1403 C1401 1.419 . S
C1403 C1404 1.362 . S
C1404 H1396 0.930 . S
C1404 C1403 1.362 . S
C1404 C1407 1.409 . S
C1405 H1397 0.930 . S
C1405 C1406 1.355 . S
C1405 C1407 1.415 . S
C1406 C1405 1.355 . S
C1406 C1408 1.419 . S
C1407 C1402 1.425 . S
C1407 C1404 1.409 . S
C1407 C1405 1.415 . S
C1408 H1398 0.930 . S
C1408 C1406 1.419 . S
C1408 C1409 1.362 . S
C1409 H1399 0.930 . S
C1409 C1402 1.409 . S
C1409 C1408 1.362 . S
H1410 C1416 0.930 . S
H1411 C1419 0.930 . S
H1412 C1420 0.930 . S
H1413 C1421 0.930 . S
H1414 C1424 0.930 . S
H1415 C1425 0.930 . S
C1416 H1410 0.930 . S
C1416 C1417 1.355 . S
C1416 C1418 1.415 . S
C1417 C1416 1.355 . S
C1417 C1419 1.419 . S
C1418 C1416 1.415 . S
C1418 C1423 1.425 . S
C1418 C1425 1.409 . S
C1419 H1411 0.930 . S
C1419 C1417 1.419 . S
C1419 C1420 1.362 . S
C1420 H1412 0.930 . S
C1420 C1419 1.362 . S
C1420 C1423 1.409 . S
C1421 H1413 0.930 . S
C1421 C1422 1.355 . S
C1421 C1423 1.415 . S
C1422 C1421 1.355 . S
C1422 C1424 1.419 . S
C1423 C1418 1.425 . S
C1423 C1420 1.409 . S
C1423 C1421 1.415 . S
C1424 H1414 0.930 . S
C1424 C1422 1.419 . S
C1424 C1425 1.362 . S
C1425 H1415 0.930 . S
C1425 C1418 1.409 . S
C1425 C1424 1.362 . S
H1426 C1432 0.930 . S
H1427 C1435 0.930 . S
H1428 C1436 0.930 . S
H1429 C1437 0.930 . S
H1430 C1440 0.930 . S
H1431 C1441 0.930 . S
C1432 H1426 0.930 . S
C1432 C1433 1.355 . S
C1432 C1434 1.415 . S
C1433 C1432 1.355 . S
C1433 C1435 1.419 . S
C1434 C1432 1.415 . S
C1434 C1439 1.425 . S
C1434 C1441 1.409 . S
C1435 H1427 0.930 . S
C1435 C1433 1.419 . S
C1435 C1436 1.362 . S
C1436 H1428 0.930 . S
C1436 C1435 1.362 . S
C1436 C1439 1.409 . S
C1437 H1429 0.930 . S
C1437 C1438 1.355 . S
C1437 C1439 1.415 . S
C1438 C1437 1.355 . S
C1438 C1440 1.419 . S
C1439 C1434 1.425 . S
C1439 C1436 1.409 . S
C1439 C1437 1.415 . S
C1440 H1430 0.930 . S
C1440 C1438 1.419 . S
C1440 C1441 1.362 . S
C1441 H1431 0.930 . S
C1441 C1434 1.409 . S
C1441 C1440 1.362 . S
H1442 C1448 0.930 . S
H1443 C1451 0.930 . S
H1444 C1452 0.930 . S
H1445 C1453 0.930 . S
H1446 C1456 0.930 . S
H1447 C1457 0.930 . S
C1448 H1442 0.930 . S
C1448 C1449 1.355 . S
C1448 C1450 1.415 . S
C1449 C1448 1.355 . S
C1449 C1451 1.419 . S
C1450 C1448 1.415 . S
C1450 C1455 1.425 . S
C1450 C1457 1.409 . S
C1451 H1443 0.930 . S
C1451 C1449 1.419 . S
C1451 C1452 1.362 . S
C1452 H1444 0.930 . S
C1452 C1451 1.362 . S
C1452 C1455 1.409 . S
C1453 H1445 0.930 . S
C1453 C1454 1.355 . S
C1453 C1455 1.415 . S
C1454 C1453 1.355 . S
C1454 C1456 1.419 . S
C1455 C1450 1.425 . S
C1455 C1452 1.409 . S
C1455 C1453 1.415 . S
C1456 H1446 0.930 . S
C1456 C1454 1.419 . S
C1456 C1457 1.362 . S
C1457 H1447 0.930 . S
C1457 C1450 1.409 . S
C1457 C1456 1.362 . S
H1458 C1464 0.930 . S
H1459 C1467 0.930 . S
H1460 C1468 0.930 . S
H1461 C1469 0.930 . S
H1462 C1472 0.930 . S
H1463 C1473 0.930 . S
C1464 H1458 0.930 . S
C1464 C1465 1.355 . S
C1464 C1466 1.415 . S
C1465 C1464 1.355 . S
C1465 C1467 1.419 . S
C1466 C1464 1.415 . S
C1466 C1471 1.425 . S
C1466 C1473 1.409 . S
C1467 H1459 0.930 . S
C1467 C1465 1.419 . S
C1467 C1468 1.362 . S
C1468 H1460 0.930 . S
C1468 C1467 1.362 . S
C1468 C1471 1.409 . S
C1469 H1461 0.930 . S
C1469 C1470 1.355 . S
C1469 C1471 1.415 . S
C1470 C1469 1.355 . S
C1470 C1472 1.419 . S
C1471 C1466 1.425 . S
C1471 C1468 1.409 . S
C1471 C1469 1.415 . S
C1472 H1462 0.930 . S
C1472 C1470 1.419 . S
C1472 C1473 1.362 . S
C1473 H1463 0.930 . S
C1473 C1466 1.409 . S
C1473 C1472 1.362 . S
H1474 C1480 0.930 . S
H1475 C1483 0.930 . S
H1476 C1484 0.930 . S
H1477 C1485 0.930 . S
H1478 C1488 0.930 . S
H1479 C1489 0.930 . S
C1480 H1474 0.930 . S
C1480 C1481 1.355 . S
C1480 C1482 1.415 . S
C1481 C1480 1.355 . S
C1481 C1483 1.419 . S
C1482 C1480 1.415 . S
C1482 C1487 1.425 . S
C1482 C1489 1.409 . S
C1483 H1475 0.930 . S
C1483 C1481 1.419 . S
C1483 C1484 1.362 . S
C1484 H1476 0.930 . S
C1484 C1483 1.362 . S
C1484 C1487 1.409 . S
C1485 H1477 0.930 . S
C1485 C1486 1.355 . S
C1485 C1487 1.415 . S
C1486 C1485 1.355 . S
C1486 C1488 1.419 . S
C1487 C1482 1.425 . S
C1487 C1484 1.409 . S
C1487 C1485 1.415 . S
C1488 H1478 0.930 . S
C1488 C1486 1.419 . S
C1488 C1489 1.362 . S
C1489 H1479 0.930 . S
C1489 C1482 1.409 . S
C1489 C1488 1.362 . S
H1490 C1496 0.930 . S
H1491 C1499 0.930 . S
H1492 C1500 0.930 . S
H1493 C1501 0.930 . S
H1494 C1504 0.930 . S
H1495 C1505 0.930 . S
C1496 H1490 0.930 . S
C1496 C1497 1.355 . S
C1496 C1498 1.415 . S
C1497 C1496 1.355 . S
C1497 C1499 1.419 . S
C1498 C1496 1.415 . S
C1498 C1503 1.425 . S
C1498 C1505 1.409 . S
C1499 H1491 0.930 . S
C1499 C1497 1.419 . S
C1499 C1500 1.362 . S
C1500 H1492 0.930 . S
C1500 C1499 1.362 . S
C1500 C1503 1.409 . S
C1501 H1493 0.930 . S
C1501 C1502 1.355 . S
C1501 C1503 1.415 . S
C1502 C1501 1.355 . S
C1502 C1504 1.419 . S
C1503 C1498 1.425 . S
C1503 C1500 1.409 . S
C1503 C1501 1.415 . S
C1504 H1494 0.930 . S
C1504 C1502 1.419 . S
C1504 C1505 1.362 . S
C1505 H1495 0.930 . S
C1505 C1498 1.409 . S
C1505 C1504 1.362 . S
H1506 C1512 0.930 . S
H1507 C1515 0.930 . S
H1508 C1516 0.930 . S
H1509 C1517 0.930 . S
H1510 C1520 0.930 . S
H1511 C1521 0.930 . S
C1512 H1506 0.930 . S
C1512 C1513 1.355 . S
C1512 C1514 1.415 . S
C1513 C1512 1.355 . S
C1513 C1515 1.419 . S
C1514 C1512 1.415 . S
C1514 C1519 1.425 . S
C1514 C1521 1.409 . S
C1515 H1507 0.930 . S
C1515 C1513 1.419 . S
C1515 C1516 1.362 . S
C1516 H1508 0.930 . S
C1516 C1515 1.362 . S
C1516 C1519 1.409 . S
C1517 H1509 0.930 . S
C1517 C1518 1.355 . S
C1517 C1519 1.415 . S
C1518 C1517 1.355 . S
C1518 C1520 1.419 . S
C1519 C1514 1.425 . S
C1519 C1516 1.409 . S
C1519 C1517 1.415 . S
C1520 H1510 0.930 . S
C1520 C1518 1.419 . S
C1520 C1521 1.362 . S
C1521 H1511 0.930 . S
C1521 C1514 1.409 . S
C1521 C1520 1.362 . S
H1522 C1528 0.930 . S
H1523 C1531 0.930 . S
H1524 C1532 0.930 . S
H1525 C1533 0.930 . S
H1526 C1536 0.930 . S
H1527 C1537 0.930 . S
C1528 H1522 0.930 . S
C1528 C1529 1.355 . S
C1528 C1530 1.415 . S
C1529 C1528 1.355 . S
C1529 C1531 1.419 . S
C1530 C1528 1.415 . S
C1530 C1535 1.425 . S
C1530 C1537 1.409 . S
C1531 H1523 0.930 . S
C1531 C1529 1.419 . S
C1531 C1532 1.362 . S
C1532 H1524 0.930 . S
C1532 C1531 1.362 . S
C1532 C1535 1.409 . S
C1533 H1525 0.930 . S
C1533 C1534 1.355 . S
C1533 C1535 1.415 . S
C1534 C1533 1.355 . S
C1534 C1536 1.419 . S
C1535 C1530 1.425 . S
C1535 C1532 1.409 . S
C1535 C1533 1.415 . S
C1536 H1526 0.930 . S
C1536 C1534 1.419 . S
C1536 C1537 1.362 . S
C1537 H1527 0.930 . S
C1537 C1530 1.409 . S
C1537 C1536 1.362 . S
H1538 C1544 0.930 . S
H1539 C1547 0.930 . S
H1540 C1548 0.930 . S
H1541 C1549 0.930 . S
H1542 C1552 0.930 . S
H1543 C1553 0.930 . S
C1544 H1538 0.930 . S
C1544 C1545 1.355 . S
C1544 C1546 1.415 . S
C1545 C1544 1.355 . S
C1545 C1547 1.419 . S
C1546 C1544 1.415 . S
C1546 C1551 1.425 . S
C1546 C1553 1.409 . S
C1547 H1539 0.930 . S
C1547 C1545 1.419 . S
C1547 C1548 1.362 . S
C1548 H1540 0.930 . S
C1548 C1547 1.362 . S
C1548 C1551 1.409 . S
C1549 H1541 0.930 . S
C1549 C1550 1.355 . S
C1549 C1551 1.415 . S
C1550 C1549 1.355 . S
C1550 C1552 1.419 . S
C1551 C1546 1.425 . S
C1551 C1548 1.409 . S
C1551 C1549 1.415 . S
C1552 H1542 0.930 . S
C1552 C1550 1.419 . S
C1552 C1553 1.362 . S
C1553 H1543 0.930 . S
C1553 C1546 1.409 . S
C1553 C1552 1.362 . S
H1554 C1560 0.930 . S
H1555 C1563 0.930 . S
H1556 C1564 0.930 . S
H1557 C1565 0.930 . S
H1558 C1568 0.930 . S
H1559 C1569 0.930 . S
C1560 H1554 0.930 . S
C1560 C1561 1.355 . S
C1560 C1562 1.415 . S
C1561 C1560 1.355 . S
C1561 C1563 1.419 . S
C1562 C1560 1.415 . S
C1562 C1567 1.425 . S
C1562 C1569 1.409 . S
C1563 H1555 0.930 . S
C1563 C1561 1.419 . S
C1563 C1564 1.362 . S
C1564 H1556 0.930 . S
C1564 C1563 1.362 . S
C1564 C1567 1.409 . S
C1565 H1557 0.930 . S
C1565 C1566 1.355 . S
C1565 C1567 1.415 . S
C1566 C1565 1.355 . S
C1566 C1568 1.419 . S
C1567 C1562 1.425 . S
C1567 C1564 1.409 . S
C1567 C1565 1.415 . S
C1568 H1558 0.930 . S
C1568 C1566 1.419 . S
C1568 C1569 1.362 . S
C1569 H1559 0.930 . S
C1569 C1562 1.409 . S
C1569 C1568 1.362 . S
H1570 C1576 0.930 . S
H1571 C1579 0.930 . S
H1572 C1580 0.930 . S
H1573 C1581 0.930 . S
H1574 C1584 0.930 . S
H1575 C1585 0.930 . S
C1576 H1570 0.930 . S
C1576 C1577 1.355 . S
C1576 C1578 1.415 . S
C1577 C1576 1.355 . S
C1577 C1579 1.419 . S
C1578 C1576 1.415 . S
C1578 C1583 1.425 . S
C1578 C1585 1.409 . S
C1579 H1571 0.930 . S
C1579 C1577 1.419 . S
C1579 C1580 1.362 . S
C1580 H1572 0.930 . S
C1580 C1579 1.362 . S
C1580 C1583 1.409 . S
C1581 H1573 0.930 . S
C1581 C1582 1.355 . S
C1581 C1583 1.415 . S
C1582 C1581 1.355 . S
C1582 C1584 1.419 . S
C1583 C1578 1.425 . S
C1583 C1580 1.409 . S
C1583 C1581 1.415 . S
C1584 H1574 0.930 . S
C1584 C1582 1.419 . S
C1584 C1585 1.362 . S
C1585 H1575 0.930 . S
C1585 C1578 1.409 . S
C1585 C1584 1.362 . S
H1586 C1592 0.930 . S
H1587 C1595 0.930 . S
H1588 C1596 0.930 . S
H1589 C1597 0.930 . S
H1590 C1600 0.930 . S
H1591 C1601 0.930 . S
C1592 H1586 0.930 . S
C1592 C1593 1.355 . S
C1592 C1594 1.415 . S
C1593 C1592 1.355 . S
C1593 C1595 1.419 . S
C1594 C1592 1.415 . S
C1594 C1599 1.425 . S
C1594 C1601 1.409 . S
C1595 H1587 0.930 . S
C1595 C1593 1.419 . S
C1595 C1596 1.362 . S
C1596 H1588 0.930 . S
C1596 C1595 1.362 . S
C1596 C1599 1.409 . S
C1597 H1589 0.930 . S
C1597 C1598 1.355 . S
C1597 C1599 1.415 . S
C1598 C1597 1.355 . S
C1598 C1600 1.419 . S
C1599 C1594 1.425 . S
C1599 C1596 1.409 . S
C1599 C1597 1.415 . S
C1600 H1590 0.930 . S
C1600 C1598 1.419 . S
C1600 C1601 1.362 . S
C1601 H1591 0.930 . S
C1601 C1594 1.409 . S
C1601 C1600 1.362 . S
H1602 C1608 0.930 . S
H1603 C1611 0.913 1_556 S
H1604 C1612 0.930 . S
H1605 C1613 0.930 . S
H1606 C1616 0.930 . S
H1607 C1617 0.930 . S
C1608 H1602 0.930 . S
C1608 C1609 1.355 . S
C1608 C1610 1.415 . S
C1609 C1608 1.355 . S
C1609 C1611 1.419 . S
C1610 C1608 1.415 . S
C1610 C1615 1.425 . S
C1610 C1617 1.409 . S
C1611 H1603 0.913 1_554 S
C1611 C1609 1.419 . S
C1611 C1612 1.362 . S
C1612 H1604 0.930 . S
C1612 C1611 1.362 . S
C1612 C1615 1.409 . S
C1613 H1605 0.930 . S
C1613 C1614 1.355 . S
C1613 C1615 1.415 . S
C1614 C1613 1.355 . S
C1614 C1616 1.419 . S
C1615 C1610 1.425 . S
C1615 C1612 1.409 . S
C1615 C1613 1.415 . S
C1616 H1606 0.930 . S
C1616 C1614 1.419 . S
C1616 C1617 1.362 . S
C1617 H1607 0.930 . S
C1617 C1610 1.409 . S
C1617 C1616 1.362 . S
H1618 C1624 0.930 . S
H1619 C1627 0.930 . S
H1620 C1628 0.930 . S
H1621 C1629 0.930 . S
H1622 C1632 0.930 . S
H1623 C1633 0.930 . S
C1624 H1618 0.930 . S
C1624 C1625 1.355 . S
C1624 C1626 1.415 . S
C1625 C1624 1.355 . S
C1625 C1627 1.419 . S
C1626 C1624 1.415 . S
C1626 C1631 1.425 . S
C1626 C1633 1.409 . S
C1627 H1619 0.930 . S
C1627 C1625 1.419 . S
C1627 C1628 1.362 . S
C1628 H1620 0.930 . S
C1628 C1627 1.362 . S
C1628 C1631 1.409 . S
C1629 H1621 0.930 . S
C1629 C1630 1.355 . S
C1629 C1631 1.415 . S
C1630 C1629 1.355 . S
C1630 C1632 1.419 . S
C1631 C1626 1.425 . S
C1631 C1628 1.409 . S
C1631 C1629 1.415 . S
C1632 H1622 0.930 . S
C1632 C1630 1.419 . S
C1632 C1633 1.362 . S
C1633 H1623 0.930 . S
C1633 C1626 1.409 . S
C1633 C1632 1.362 . S
H1634 C1640 0.930 . S
H1635 C1643 0.930 . S
H1636 C1644 0.930 . S
H1637 C1645 0.930 . S
H1638 C1648 0.930 . S
H1639 C1649 0.930 . S
C1640 H1634 0.930 . S
C1640 C1641 1.355 . S
C1640 C1642 1.415 . S
C1641 C1640 1.355 . S
C1641 C1643 1.419 . S
C1642 C1640 1.415 . S
C1642 C1647 1.425 . S
C1642 C1649 1.409 . S
C1643 H1635 0.930 . S
C1643 C1641 1.419 . S
C1643 C1644 1.362 . S
C1644 H1636 0.930 . S
C1644 C1643 1.362 . S
C1644 C1647 1.409 . S
C1645 H1637 0.930 . S
C1645 C1646 1.355 . S
C1645 C1647 1.415 . S
C1646 C1645 1.355 . S
C1646 C1648 1.419 . S
C1647 C1642 1.425 . S
C1647 C1644 1.409 . S
C1647 C1645 1.415 . S
C1648 H1638 0.930 . S
C1648 C1646 1.419 . S
C1648 C1649 1.362 . S
C1649 H1639 0.930 . S
C1649 C1642 1.409 . S
C1649 C1648 1.362 . S
H1650 C1656 0.930 . S
H1651 C1659 0.930 . S
H1652 C1660 0.930 . S
H1653 C1661 0.930 . S
H1654 C1664 0.930 . S
H1655 C1665 0.930 . S
C1656 H1650 0.930 . S
C1656 C1657 1.355 . S
C1656 C1658 1.415 . S
C1657 C1656 1.355 . S
C1657 C1659 1.419 . S
C1658 C1656 1.415 . S
C1658 C1663 1.425 . S
C1658 C1665 1.409 . S
C1659 H1651 0.930 . S
C1659 C1657 1.419 . S
C1659 C1660 1.362 . S
C1660 H1652 0.930 . S
C1660 C1659 1.362 . S
C1660 C1663 1.409 . S
C1661 H1653 0.930 . S
C1661 C1662 1.355 . S
C1661 C1663 1.415 . S
C1662 C1661 1.355 . S
C1662 C1664 1.419 . S
C1663 C1658 1.425 . S
C1663 C1660 1.409 . S
C1663 C1661 1.415 . S
C1664 H1654 0.930 . S
C1664 C1662 1.419 . S
C1664 C1665 1.362 . S
C1665 H1655 0.930 . S
C1665 C1658 1.409 . S
C1665 C1664 1.362 . S
H1666 C1672 0.930 . S
H1667 C1675 0.930 . S
H1668 C1676 0.930 . S
H1669 C1677 0.930 . S
H1670 C1680 0.930 . S
H1671 C1681 0.930 . S
C1672 H1666 0.930 . S
C1672 C1673 1.355 . S
C1672 C1674 1.415 . S
C1673 C1672 1.355 . S
C1673 C1675 1.419 . S
C1674 C1672 1.415 . S
C1674 C1679 1.425 . S
C1674 C1681 1.409 . S
C1675 H1667 0.930 . S
C1675 C1673 1.419 . S
C1675 C1676 1.362 . S
C1676 H1668 0.930 . S
C1676 C1675 1.362 . S
C1676 C1679 1.409 . S
C1677 H1669 0.930 . S
C1677 C1678 1.355 . S
C1677 C1679 1.415 . S
C1678 C1677 1.355 . S
C1678 C1680 1.419 . S
C1679 C1674 1.425 . S
C1679 C1676 1.409 . S
C1679 C1677 1.415 . S
C1680 H1670 0.930 . S
C1680 C1678 1.419 . S
C1680 C1681 1.362 . S
C1681 H1671 0.930 . S
C1681 C1674 1.409 . S
C1681 C1680 1.362 . S
H1682 C1688 0.930 1_554 S
H1683 C1691 0.930 . S
H1684 C1692 0.930 . S
H1685 C1693 0.930 . S
H1686 C1696 0.930 . S
H1687 C1697 0.930 1_554 S
C1688 H1682 0.930 1_556 S
C1688 C1689 1.355 . S
C1688 C1690 1.415 . S
C1689 C1688 1.355 . S
C1689 C1691 1.419 . S
C1690 C1688 1.415 . S
C1690 C1695 1.425 . S
C1690 C1697 1.409 . S
C1691 H1683 0.930 . S
C1691 C1689 1.419 . S
C1691 C1692 1.362 . S
C1692 H1684 0.930 . S
C1692 C1691 1.362 . S
C1692 C1695 1.409 . S
C1693 H1685 0.930 . S
C1693 C1694 1.355 . S
C1693 C1695 1.415 . S
C1694 C1693 1.355 . S
C1694 C1696 1.419 . S
C1695 C1690 1.425 . S
C1695 C1692 1.409 . S
C1695 C1693 1.415 . S
C1696 H1686 0.930 . S
C1696 C1694 1.419 . S
C1696 C1697 1.362 . S
C1697 H1687 0.930 1_556 S
C1697 C1690 1.409 . S
C1697 C1696 1.362 . S
H1698 C1704 0.930 . S
H1699 C1707 0.930 . S
H1700 C1708 0.930 . S
H1701 C1709 0.930 . S
H1702 C1712 0.930 . S
H1703 C1713 0.930 . S
C1704 H1698 0.930 . S
C1704 C1705 1.355 . S
C1704 C1706 1.415 . S
C1705 C1704 1.355 . S
C1705 C1707 1.419 . S
C1706 C1704 1.415 . S
C1706 C1711 1.425 . S
C1706 C1713 1.409 . S
C1707 H1699 0.930 . S
C1707 C1705 1.419 . S
C1707 C1708 1.362 . S
C1708 H1700 0.930 . S
C1708 C1707 1.362 . S
C1708 C1711 1.409 . S
C1709 H1701 0.930 . S
C1709 C1710 1.355 . S
C1709 C1711 1.415 . S
C1710 C1709 1.355 . S
C1710 C1712 1.419 . S
C1711 C1706 1.425 . S
C1711 C1708 1.409 . S
C1711 C1709 1.415 . S
C1712 H1702 0.930 . S
C1712 C1710 1.419 . S
C1712 C1713 1.362 . S
C1713 H1703 0.930 . S
C1713 C1706 1.409 . S
C1713 C1712 1.362 . S
H1714 C1720 0.930 . S
H1715 C1723 0.930 . S
H1716 C1724 0.930 . S
H1717 C1725 0.930 . S
H1718 C1728 0.930 . S
H1719 C1729 0.930 . S
C1720 H1714 0.930 . S
C1720 C1721 1.355 . S
C1720 C1722 1.415 . S
C1721 C1720 1.355 . S
C1721 C1723 1.419 . S
C1722 C1720 1.415 . S
C1722 C1727 1.425 . S
C1722 C1729 1.409 . S
C1723 H1715 0.930 . S
C1723 C1721 1.419 . S
C1723 C1724 1.362 . S
C1724 H1716 0.930 . S
C1724 C1723 1.362 . S
C1724 C1727 1.409 . S
C1725 H1717 0.930 . S
C1725 C1726 1.355 . S
C1725 C1727 1.415 . S
C1726 C1725 1.355 . S
C1726 C1728 1.419 . S
C1727 C1722 1.425 . S
C1727 C1724 1.409 . S
C1727 C1725 1.415 . S
C1728 H1718 0.930 . S
C1728 C1726 1.419 . S
C1728 C1729 1.362 . S
C1729 H1719 0.930 . S
C1729 C1722 1.409 . S
C1729 C1728 1.362 . S
H1730 C1736 0.930 . S
H1731 C1739 0.930 . S
H1732 C1740 0.930 . S
H1733 C1741 0.930 . S
H1734 C1744 0.930 . S
H1735 C1745 0.930 . S
C1736 H1730 0.930 . S
C1736 C1737 1.355 . S
C1736 C1738 1.415 . S
C1737 C1736 1.355 . S
C1737 C1739 1.419 . S
C1738 C1736 1.415 . S
C1738 C1743 1.425 . S
C1738 C1745 1.409 . S
C1739 H1731 0.930 . S
C1739 C1737 1.419 . S
C1739 C1740 1.362 . S
C1740 H1732 0.930 . S
C1740 C1739 1.362 . S
C1740 C1743 1.409 . S
C1741 H1733 0.930 . S
C1741 C1742 1.355 . S
C1741 C1743 1.415 . S
C1742 C1741 1.355 . S
C1742 C1744 1.419 . S
C1743 C1738 1.425 . S
C1743 C1740 1.409 . S
C1743 C1741 1.415 . S
C1744 H1734 0.930 . S
C1744 C1742 1.419 . S
C1744 C1745 1.362 . S
C1745 H1735 0.930 . S
C1745 C1738 1.409 . S
C1745 C1744 1.362 . S
H1746 C1752 0.930 . S
H1747 C1755 0.930 . S
H1748 C1756 0.930 . S
H1749 C1757 0.930 . S
H1750 C1760 0.930 . S
H1751 C1761 0.930 . S
C1752 H1746 0.930 . S
C1752 C1753 1.355 . S
C1752 C1754 1.415 . S
C1753 C1752 1.355 . S
C1753 C1755 1.419 . S
C1754 C1752 1.415 . S
C1754 C1759 1.425 . S
C1754 C1761 1.409 . S
C1755 H1747 0.930 . S
C1755 C1753 1.419 . S
C1755 C1756 1.362 . S
C1756 H1748 0.930 . S
C1756 C1755 1.362 . S
C1756 C1759 1.409 . S
C1757 H1749 0.930 . S
C1757 C1758 1.355 . S
C1757 C1759 1.415 . S
C1758 C1757 1.355 . S
C1758 C1760 1.419 . S
C1759 C1754 1.425 . S
C1759 C1756 1.409 . S
C1759 C1757 1.415 . S
C1760 H1750 0.930 . S
C1760 C1758 1.419 . S
C1760 C1761 1.362 . S
C1761 H1751 0.930 . S
C1761 C1754 1.409 . S
C1761 C1760 1.362 . S
H1762 C1768 0.930 . S
H1763 C1771 0.930 . S
H1764 C1772 0.930 . S
H1765 C1773 0.930 . S
H1766 C1776 0.930 . S
H1767 C1777 0.930 . S
C1768 H1762 0.930 . S
C1768 C1769 1.355 . S
C1768 C1770 1.415 . S
C1769 C1768 1.355 . S
C1769 C1771 1.419 . S
C1770 C1768 1.415 . S
C1770 C1775 1.425 . S
C1770 C1777 1.409 . S
C1771 H1763 0.930 . S
C1771 C1769 1.419 . S
C1771 C1772 1.362 . S
C1772 H1764 0.930 . S
C1772 C1771 1.362 . S
C1772 C1775 1.409 . S
C1773 H1765 0.930 . S
C1773 C1774 1.355 . S
C1773 C1775 1.415 . S
C1774 C1773 1.355 . S
C1774 C1776 1.419 . S
C1775 C1770 1.425 . S
C1775 C1772 1.409 . S
C1775 C1773 1.415 . S
C1776 H1766 0.930 . S
C1776 C1774 1.419 . S
C1776 C1777 1.362 . S
C1777 H1767 0.930 . S
C1777 C1770 1.409 . S
C1777 C1776 1.362 . S
H1778 C1784 0.930 . S
H1779 C1787 0.930 . S
H1780 C1788 0.930 . S
H1781 C1789 0.930 . S
H1782 C1792 0.930 . S
H1783 C1793 0.930 . S
C1784 H1778 0.930 . S
C1784 C1785 1.355 . S
C1784 C1786 1.415 . S
C1785 C1784 1.355 . S
C1785 C1787 1.419 . S
C1786 C1784 1.415 . S
C1786 C1791 1.425 . S
C1786 C1793 1.409 . S
C1787 H1779 0.930 . S
C1787 C1785 1.419 . S
C1787 C1788 1.362 . S
C1788 H1780 0.930 . S
C1788 C1787 1.362 . S
C1788 C1791 1.409 . S
C1789 H1781 0.930 . S
C1789 C1790 1.355 . S
C1789 C1791 1.415 . S
C1790 C1789 1.355 . S
C1790 C1792 1.419 . S
C1791 C1786 1.425 . S
C1791 C1788 1.409 . S
C1791 C1789 1.415 . S
C1792 H1782 0.930 . S
C1792 C1790 1.419 . S
C1792 C1793 1.362 . S
C1793 H1783 0.930 . S
C1793 C1786 1.409 . S
C1793 C1792 1.362 . S
H1794 C1800 0.930 . S
H1795 C1803 0.930 . S
H1796 C1804 0.930 . S
H1797 C1805 0.930 . S
H1798 C1808 0.930 . S
H1799 C1809 0.930 . S
C1800 H1794 0.930 . S
C1800 C1801 1.355 . S
C1800 C1802 1.415 . S
C1801 C1800 1.355 . S
C1801 C1803 1.419 . S
C1802 C1800 1.415 . S
C1802 C1807 1.425 . S
C1802 C1809 1.409 . S
C1803 H1795 0.930 . S
C1803 C1801 1.419 . S
C1803 C1804 1.362 . S
C1804 H1796 0.930 . S
C1804 C1803 1.362 . S
C1804 C1807 1.409 . S
C1805 H1797 0.930 . S
C1805 C1806 1.355 . S
C1805 C1807 1.415 . S
C1806 C1805 1.355 . S
C1806 C1808 1.419 . S
C1807 C1802 1.425 . S
C1807 C1804 1.409 . S
C1807 C1805 1.415 . S
C1808 H1798 0.930 . S
C1808 C1806 1.419 . S
C1808 C1809 1.362 . S
C1809 H1799 0.930 . S
C1809 C1802 1.409 . S
C1809 C1808 1.362 . S
H1810 C1816 0.930 . S
H1811 C1819 0.930 . S
H1812 C1820 0.930 . S
H1813 C1821 0.930 . S
H1814 C1824 0.930 . S
H1815 C1825 0.930 . S
C1816 H1810 0.930 . S
C1816 C1817 1.355 . S
C1816 C1818 1.415 . S
C1817 C1816 1.355 . S
C1817 C1819 1.419 . S
C1818 C1816 1.415 . S
C1818 C1823 1.425 . S
C1818 C1825 1.409 . S
C1819 H1811 0.930 . S
C1819 C1817 1.419 . S
C1819 C1820 1.362 . S
C1820 H1812 0.930 . S
C1820 C1819 1.362 . S
C1820 C1823 1.409 . S
C1821 H1813 0.930 . S
C1821 C1822 1.355 . S
C1821 C1823 1.415 . S
C1822 C1821 1.355 . S
C1822 C1824 1.419 . S
C1823 C1818 1.425 . S
C1823 C1820 1.409 . S
C1823 C1821 1.415 . S
C1824 H1814 0.930 . S
C1824 C1822 1.419 . S
C1824 C1825 1.362 . S
C1825 H1815 0.930 . S
C1825 C1818 1.409 . S
C1825 C1824 1.362 . S
H1826 C1832 0.930 . S
H1827 C1835 0.930 . S
H1828 C1836 0.930 . S
H1829 C1837 0.930 . S
H1830 C1840 0.930 . S
H1831 C1841 0.930 . S
C1832 H1826 0.930 . S
C1832 C1833 1.355 . S
C1832 C1834 1.415 . S
C1833 C1832 1.355 . S
C1833 C1835 1.419 . S
C1834 C1832 1.415 . S
C1834 C1839 1.425 . S
C1834 C1841 1.409 . S
C1835 H1827 0.930 . S
C1835 C1833 1.419 . S
C1835 C1836 1.362 . S
C1836 H1828 0.930 . S
C1836 C1835 1.362 . S
C1836 C1839 1.409 . S
C1837 H1829 0.930 . S
C1837 C1838 1.355 . S
C1837 C1839 1.415 . S
C1838 C1837 1.355 . S
C1838 C1840 1.419 . S
C1839 C1834 1.425 . S
C1839 C1836 1.409 . S
C1839 C1837 1.415 . S
C1840 H1830 0.930 . S
C1840 C1838 1.419 . S
C1840 C1841 1.362 . S
C1841 H1831 0.930 . S
C1841 C1834 1.409 . S
C1841 C1840 1.362 . S
H1842 C1848 0.930 . S
H1843 C1851 0.930 . S
H1844 C1852 0.930 . S
H1845 C1853 0.930 . S
H1846 C1856 0.930 . S
H1847 C1857 0.930 . S
C1848 H1842 0.930 . S
C1848 C1849 1.355 1_655 S
C1848 C1850 1.415 . S
C1849 C1848 1.355 1_455 S
C1849 C1851 1.419 . S
C1850 C1848 1.415 . S
C1850 C1855 1.425 1_655 S
C1850 C1857 1.409 . S
C1851 H1843 0.930 . S
C1851 C1849 1.419 . S
C1851 C1852 1.362 . S
C1852 H1844 0.930 . S
C1852 C1851 1.362 . S
C1852 C1855 1.409 . S
C1853 H1845 0.930 . S
C1853 C1854 1.355 . S
C1853 C1855 1.415 . S
C1854 C1853 1.355 . S
C1854 C1856 1.419 1_455 S
C1855 C1850 1.425 1_455 S
C1855 C1852 1.409 . S
C1855 C1853 1.415 . S
C1856 H1846 0.930 . S
C1856 C1854 1.419 1_655 S
C1856 C1857 1.362 . S
C1857 H1847 0.930 . S
C1857 C1850 1.409 . S
C1857 C1856 1.362 . S
H1858 C1864 0.930 . S
H1859 C1867 0.930 . S
H1860 C1868 0.930 . S
H1861 C1869 0.930 . S
H1862 C1872 0.930 . S
H1863 C1873 0.930 . S
C1864 H1858 0.930 . S
C1864 C1865 1.355 . S
C1864 C1866 1.415 . S
C1865 C1864 1.355 . S
C1865 C1867 1.419 . S
C1866 C1864 1.415 . S
C1866 C1871 1.425 . S
C1866 C1873 1.409 . S
C1867 H1859 0.930 . S
C1867 C1865 1.419 . S
C1867 C1868 1.362 . S
C1868 H1860 0.930 . S
C1868 C1867 1.362 . S
C1868 C1871 1.409 . S
C1869 H1861 0.930 . S
C1869 C1870 1.355 . S
C1869 C1871 1.415 . S
C1870 C1869 1.355 . S
C1870 C1872 1.419 . S
C1871 C1866 1.425 . S
C1871 C1868 1.409 . S
C1871 C1869 1.415 . S
C1872 H1862 0.930 . S
C1872 C1870 1.419 . S
C1872 C1873 1.362 . S
C1873 H1863 0.930 . S
C1873 C1866 1.409 . S
C1873 C1872 1.362 . S
H1874 C1880 0.930 . S
H1875 C1883 0.930 . S
H1876 C1884 0.930 . S
H1877 C1885 0.930 . S
H1878 C1888 0.930 . S
H1879 C1889 0.930 . S
C1880 H1874 0.930 . S
C1880 C1881 1.355 . S
C1880 C1882 1.415 . S
C1881 C1880 1.355 . S
C1881 C1883 1.419 . S
C1882 C1880 1.415 . S
C1882 C1887 1.425 . S
C1882 C1889 1.409 . S
C1883 H1875 0.930 . S
C1883 C1881 1.419 . S
C1883 C1884 1.362 . S
C1884 H1876 0.930 . S
C1884 C1883 1.362 . S
C1884 C1887 1.409 . S
C1885 H1877 0.930 . S
C1885 C1886 1.355 . S
C1885 C1887 1.415 . S
C1886 C1885 1.355 . S
C1886 C1888 1.419 . S
C1887 C1882 1.425 . S
C1887 C1884 1.409 . S
C1887 C1885 1.415 . S
C1888 H1878 0.930 . S
C1888 C1886 1.419 . S
C1888 C1889 1.362 . S
C1889 H1879 0.930 . S
C1889 C1882 1.409 . S
C1889 C1888 1.362 . S
H1890 C1896 0.930 . S
H1891 C1899 0.930 . S
H1892 C1900 0.930 . S
H1893 C1901 0.930 . S
H1894 C1904 0.945 . S
H1895 C1905 0.933 1_545 S
C1896 H1890 0.930 . S
C1896 C1897 1.355 . S
C1896 C1898 1.415 . S
C1897 C1896 1.355 . S
C1897 C1899 1.419 . S
C1898 C1896 1.415 . S
C1898 C1903 1.425 . S
C1898 C1905 1.412 . S
C1899 H1891 0.930 . S
C1899 C1897 1.419 . S
C1899 C1900 1.362 . S
C1900 H1892 0.930 . S
C1900 C1899 1.362 . S
C1900 C1903 1.409 . S
C1901 H1893 0.930 . S
C1901 C1902 1.355 . S
C1901 C1903 1.415 . S
C1902 C1901 1.355 . S
C1902 C1904 1.430 1_565 S
C1903 C1898 1.425 . S
C1903 C1900 1.409 . S
C1903 C1901 1.415 . S
C1904 H1894 0.945 . S
C1904 C1902 1.430 1_545 S
C1904 C1905 1.333 1_545 S
C1905 H1895 0.933 1_565 S
C1905 C1898 1.412 . S
C1905 C1904 1.333 1_565 S
H1906 C1912 0.930 . S
H1907 C1915 0.930 . S
H1908 C1916 0.930 . S
H1909 C1917 0.930 . S
H1910 C1920 0.930 . S
H1911 C1921 0.930 . S
C1912 H1906 0.930 . S
C1912 C1913 1.355 . S
C1912 C1914 1.415 . S
C1913 C1912 1.355 . S
C1913 C1915 1.419 1_455 S
C1914 C1912 1.415 . S
C1914 C1919 1.425 1_455 S
C1914 C1921 1.409 . S
C1915 H1907 0.930 . S
C1915 C1913 1.419 1_655 S
C1915 C1916 1.362 . S
C1916 H1908 0.930 . S
C1916 C1915 1.362 . S
C1916 C1919 1.409 . S
C1917 H1909 0.930 . S
C1917 C1918 1.355 1_655 S
C1917 C1919 1.415 . S
C1918 C1917 1.355 1_455 S
C1918 C1920 1.419 . S
C1919 C1914 1.425 1_655 S
C1919 C1916 1.409 . S
C1919 C1917 1.415 . S
C1920 H1910 0.930 . S
C1920 C1918 1.419 . S
C1920 C1921 1.362 . S
C1921 H1911 0.930 . S
C1921 C1914 1.409 . S
C1921 C1920 1.362 . S
H1922 C1928 0.930 . S
H1923 C1931 0.930 . S
H1924 C1932 0.930 . S
H1925 C1933 0.930 . S
H1926 C1936 0.930 . S
H1927 C1937 0.930 . S
C1928 H1922 0.930 . S
C1928 C1929 1.355 . S
C1928 C1930 1.415 . S
C1929 C1928 1.355 . S
C1929 C1931 1.419 . S
C1930 C1928 1.415 . S
C1930 C1935 1.425 . S
C1930 C1937 1.409 . S
C1931 H1923 0.930 . S
C1931 C1929 1.419 . S
C1931 C1932 1.362 . S
C1932 H1924 0.930 . S
C1932 C1931 1.362 . S
C1932 C1935 1.409 . S
C1933 H1925 0.930 . S
C1933 C1934 1.355 . S
C1933 C1935 1.415 . S
C1934 C1933 1.355 . S
C1934 C1936 1.419 . S
C1935 C1930 1.425 . S
C1935 C1932 1.409 . S
C1935 C1933 1.415 . S
C1936 H1926 0.930 . S
C1936 C1934 1.419 . S
C1936 C1937 1.362 . S
C1937 H1927 0.930 . S
C1937 C1930 1.409 . S
C1937 C1936 1.362 . S
H1938 C1944 0.930 . S
H1939 C1947 0.930 . S
H1940 C1948 0.930 . S
H1941 C1949 0.930 . S
H1942 C1952 0.930 . S
H1943 C1953 0.930 . S
C1944 H1938 0.930 . S
C1944 C1945 1.355 . S
C1944 C1946 1.415 . S
C1945 C1944 1.355 . S
C1945 C1947 1.419 . S
C1946 C1944 1.415 . S
C1946 C1951 1.425 . S
C1946 C1953 1.409 . S
C1947 H1939 0.930 . S
C1947 C1945 1.419 . S
C1947 C1948 1.362 . S
C1948 H1940 0.930 . S
C1948 C1947 1.362 . S
C1948 C1951 1.409 . S
C1949 H1941 0.930 . S
C1949 C1950 1.355 . S
C1949 C1951 1.415 . S
C1950 C1949 1.355 . S
C1950 C1952 1.419 . S
C1951 C1946 1.425 . S
C1951 C1948 1.409 . S
C1951 C1949 1.415 . S
C1952 H1942 0.930 . S
C1952 C1950 1.419 . S
C1952 C1953 1.362 . S
C1953 H1943 0.930 . S
C1953 C1946 1.409 . S
C1953 C1952 1.362 . S
H1954 C1960 0.930 . S
H1955 C1963 0.930 . S
H1956 C1964 0.930 . S
H1957 C1965 0.930 . S
H1958 C1968 0.930 . S
H1959 C1969 0.930 . S
C1960 H1954 0.930 . S
C1960 C1961 1.355 . S
C1960 C1962 1.415 . S
C1961 C1960 1.355 . S
C1961 C1963 1.419 . S
C1962 C1960 1.415 . S
C1962 C1967 1.425 . S
C1962 C1969 1.409 . S
C1963 H1955 0.930 . S
C1963 C1961 1.419 . S
C1963 C1964 1.362 . S
C1964 H1956 0.930 . S
C1964 C1963 1.362 . S
C1964 C1967 1.409 . S
C1965 H1957 0.930 . S
C1965 C1966 1.355 . S
C1965 C1967 1.415 . S
C1966 C1965 1.355 . S
C1966 C1968 1.419 . S
C1967 C1962 1.425 . S
C1967 C1964 1.409 . S
C1967 C1965 1.415 . S
C1968 H1958 0.930 . S
C1968 C1966 1.419 . S
C1968 C1969 1.362 . S
C1969 H1959 0.930 . S
C1969 C1962 1.409 . S
C1969 C1968 1.362 . S
H1970 C1976 0.930 . S
H1971 C1979 0.930 . S
H1972 C1980 0.930 . S
H1973 C1981 0.930 . S
H1974 C1984 0.930 . S
H1975 C1985 0.930 . S
C1976 H1970 0.930 . S
C1976 C1977 1.355 . S
C1976 C1978 1.415 . S
C1977 C1976 1.355 . S
C1977 C1979 1.419 . S
C1978 C1976 1.415 . S
C1978 C1983 1.425 . S
C1978 C1985 1.409 . S
C1979 H1971 0.930 . S
C1979 C1977 1.419 . S
C1979 C1980 1.362 . S
C1980 H1972 0.930 . S
C1980 C1979 1.362 . S
C1980 C1983 1.409 . S
C1981 H1973 0.930 . S
C1981 C1982 1.355 . S
C1981 C1983 1.415 . S
C1982 C1981 1.355 . S
C1982 C1984 1.419 . S
C1983 C1978 1.425 . S
C1983 C1980 1.409 . S
C1983 C1981 1.415 . S
C1984 H1974 0.930 . S
C1984 C1982 1.419 . S
C1984 C1985 1.362 . S
C1985 H1975 0.930 . S
C1985 C1978 1.409 . S
C1985 C1984 1.362 . S
H1986 C1992 0.930 . S
H1987 C1995 0.930 . S
H1988 C1996 0.930 . S
H1989 C1997 0.930 . S
H1990 C2000 0.923 1_565 S
H1991 C2001 0.930 . S
C1992 H1986 0.930 . S
C1992 C1993 1.355 . S
C1992 C1994 1.415 . S
C1993 C1992 1.355 . S
C1993 C1995 1.419 . S
C1994 C1992 1.415 . S
C1994 C1999 1.425 . S
C1994 C2001 1.409 . S
C1995 H1987 0.930 . S
C1995 C1993 1.419 . S
C1995 C1996 1.362 . S
C1996 H1988 0.930 . S
C1996 C1995 1.362 . S
C1996 C1999 1.409 . S
C1997 H1989 0.930 . S
C1997 C1998 1.355 . S
C1997 C1999 1.415 . S
C1998 C1997 1.355 . S
C1998 C2000 1.419 . S
C1999 C1994 1.425 . S
C1999 C1996 1.409 . S
C1999 C1997 1.415 . S
C2000 H1990 0.923 1_545 S
C2000 C1998 1.419 . S
C2000 C2001 1.362 . S
C2001 H1991 0.930 . S
C2001 C1994 1.409 . S
C2001 C2000 1.362 . S
H2002 C2008 0.930 . S
H2003 C2011 0.959 . S
H2004 C2012 0.930 . S
H2005 C2013 0.930 . S
H2006 C2016 0.930 . S
H2007 C2017 0.930 . S
C2008 H2002 0.930 . S
C2008 C2009 1.355 . S
C2008 C2010 1.415 . S
C2009 C2008 1.355 . S
C2009 C2011 1.413 1_655 S
C2010 C2008 1.415 . S
C2010 C2015 1.425 . S
C2010 C2017 1.409 . S
C2011 H2003 0.959 . S
C2011 C2009 1.413 1_455 S
C2011 C2012 1.343 . S
C2012 H2004 0.930 . S
C2012 C2011 1.343 . S
C2012 C2015 1.409 1_455 S
C2013 H2005 0.930 . S
C2013 C2014 1.355 1_455 S
C2013 C2015 1.415 1_455 S
C2014 C2013 1.355 1_655 S
C2014 C2016 1.419 . S
C2015 C2010 1.425 . S
C2015 C2012 1.409 1_655 S
C2015 C2013 1.415 1_655 S
C2016 H2006 0.930 . S
C2016 C2014 1.419 . S
C2016 C2017 1.362 . S
C2017 H2007 0.930 . S
C2017 C2010 1.409 . S
C2017 C2016 1.362 . S
H2018 C2024 0.930 . S
H2019 C2027 0.930 . S
H2020 C2028 0.930 . S
H2021 C2029 0.930 . S
H2022 C2032 0.930 . S
H2023 C2033 0.930 . S
C2024 H2018 0.930 . S
C2024 C2025 1.355 . S
C2024 C2026 1.415 . S
C2025 C2024 1.355 . S
C2025 C2027 1.419 . S
C2026 C2024 1.415 . S
C2026 C2031 1.425 . S
C2026 C2033 1.409 . S
C2027 H2019 0.930 . S
C2027 C2025 1.419 . S
C2027 C2028 1.362 . S
C2028 H2020 0.930 . S
C2028 C2027 1.362 . S
C2028 C2031 1.409 . S
C2029 H2021 0.930 . S
C2029 C2030 1.355 . S
C2029 C2031 1.415 . S
C2030 C2029 1.355 . S
C2030 C2032 1.419 . S
C2031 C2026 1.425 . S
C2031 C2028 1.409 . S
C2031 C2029 1.415 . S
C2032 H2022 0.930 . S
C2032 C2030 1.419 . S
C2032 C2033 1.362 . S
C2033 H2023 0.930 . S
C2033 C2026 1.409 . S
C2033 C2032 1.362 . S
H2034 C2040 0.930 . S
H2035 C2043 0.930 . S
H2036 C2044 0.930 . S
H2037 C2045 0.930 . S
H2038 C2048 0.930 . S
H2039 C2049 0.930 . S
C2040 H2034 0.930 . S
C2040 C2041 1.355 . S
C2040 C2042 1.415 . S
C2041 C2040 1.355 . S
C2041 C2043 1.419 . S
C2042 C2040 1.415 . S
C2042 C2047 1.425 . S
C2042 C2049 1.409 . S
C2043 H2035 0.930 . S
C2043 C2041 1.419 . S
C2043 C2044 1.362 . S
C2044 H2036 0.930 . S
C2044 C2043 1.362 . S
C2044 C2047 1.409 . S
C2045 H2037 0.930 . S
C2045 C2046 1.355 . S
C2045 C2047 1.415 . S
C2046 C2045 1.355 . S
C2046 C2048 1.419 . S
C2047 C2042 1.425 . S
C2047 C2044 1.409 . S
C2047 C2045 1.415 . S
C2048 H2038 0.930 . S
C2048 C2046 1.419 . S
C2048 C2049 1.362 . S
C2049 H2039 0.930 . S
C2049 C2042 1.409 . S
C2049 C2048 1.362 . S
H2050 C2056 0.930 . S
H2051 C2059 0.930 . S
H2052 C2060 0.930 . S
H2053 C2061 0.930 . S
H2054 C2064 0.930 . S
H2055 C2065 0.930 . S
C2056 H2050 0.930 . S
C2056 C2057 1.355 . S
C2056 C2058 1.415 . S
C2057 C2056 1.355 . S
C2057 C2059 1.419 . S
C2058 C2056 1.415 . S
C2058 C2063 1.425 . S
C2058 C2065 1.409 . S
C2059 H2051 0.930 . S
C2059 C2057 1.419 . S
C2059 C2060 1.362 . S
C2060 H2052 0.930 . S
C2060 C2059 1.362 . S
C2060 C2063 1.409 . S
C2061 H2053 0.930 . S
C2061 C2062 1.355 . S
C2061 C2063 1.415 . S
C2062 C2061 1.355 . S
C2062 C2064 1.419 . S
C2063 C2058 1.425 . S
C2063 C2060 1.409 . S
C2063 C2061 1.415 . S
C2064 H2054 0.930 . S
C2064 C2062 1.419 . S
C2064 C2065 1.362 . S
C2065 H2055 0.930 . S
C2065 C2058 1.409 . S
C2065 C2064 1.362 . S
H2066 C2072 0.930 . S
H2067 C2075 0.930 . S
H2068 C2076 0.930 . S
H2069 C2077 0.930 . S
H2070 C2080 0.930 . S
H2071 C2081 0.930 . S
C2072 H2066 0.930 . S
C2072 C2073 1.355 . S
C2072 C2074 1.415 . S
C2073 C2072 1.355 . S
C2073 C2075 1.419 . S
C2074 C2072 1.415 . S
C2074 C2079 1.425 . S
C2074 C2081 1.409 . S
C2075 H2067 0.930 . S
C2075 C2073 1.419 . S
C2075 C2076 1.362 . S
C2076 H2068 0.930 . S
C2076 C2075 1.362 . S
C2076 C2079 1.409 . S
C2077 H2069 0.930 . S
C2077 C2078 1.355 . S
C2077 C2079 1.415 . S
C2078 C2077 1.355 . S
C2078 C2080 1.419 . S
C2079 C2074 1.425 . S
C2079 C2076 1.409 . S
C2079 C2077 1.415 . S
C2080 H2070 0.930 . S
C2080 C2078 1.419 . S
C2080 C2081 1.362 . S
C2081 H2071 0.930 . S
C2081 C2074 1.409 . S
C2081 C2080 1.362 . S
H2082 C2088 0.930 . S
H2083 C2091 0.930 . S
H2084 C2092 0.930 . S
H2085 C2093 0.930 . S
H2086 C2096 0.930 . S
H2087 C2097 0.930 . S
C2088 H2082 0.930 . S
C2088 C2089 1.355 . S
C2088 C2090 1.415 . S
C2089 C2088 1.355 . S
C2089 C2091 1.419 . S
C2090 C2088 1.415 . S
C2090 C2095 1.425 . S
C2090 C2097 1.409 . S
C2091 H2083 0.930 . S
C2091 C2089 1.419 . S
C2091 C2092 1.362 . S
C2092 H2084 0.930 . S
C2092 C2091 1.362 . S
C2092 C2095 1.409 . S
C2093 H2085 0.930 . S
C2093 C2094 1.355 . S
C2093 C2095 1.415 . S
C2094 C2093 1.355 . S
C2094 C2096 1.419 . S
C2095 C2090 1.425 . S
C2095 C2092 1.409 . S
C2095 C2093 1.415 . S
C2096 H2086 0.930 . S
C2096 C2094 1.419 . S
C2096 C2097 1.362 . S
C2097 H2087 0.930 . S
C2097 C2090 1.409 . S
C2097 C2096 1.362 . S
H2098 C2104 0.930 . S
H2099 C2107 0.930 . S
H2100 C2108 0.930 . S
H2101 C2109 0.930 . S
H2102 C2112 0.930 . S
H2103 C2113 0.930 . S
C2104 H2098 0.930 . S
C2104 C2105 1.355 . S
C2104 C2106 1.415 . S
C2105 C2104 1.355 . S
C2105 C2107 1.419 . S
C2106 C2104 1.415 . S
C2106 C2111 1.425 . S
C2106 C2113 1.409 . S
C2107 H2099 0.930 . S
C2107 C2105 1.419 . S
C2107 C2108 1.362 . S
C2108 H2100 0.930 . S
C2108 C2107 1.362 . S
C2108 C2111 1.409 . S
C2109 H2101 0.930 . S
C2109 C2110 1.355 . S
C2109 C2111 1.415 . S
C2110 C2109 1.355 . S
C2110 C2112 1.419 . S
C2111 C2106 1.425 . S
C2111 C2108 1.409 . S
C2111 C2109 1.415 . S
C2112 H2102 0.930 . S
C2112 C2110 1.419 . S
C2112 C2113 1.362 . S
C2113 H2103 0.930 . S
C2113 C2106 1.409 . S
C2113 C2112 1.362 . S
H2114 C2120 0.930 . S
H2115 C2123 0.930 . S
H2116 C2124 0.930 . S
H2117 C2125 0.930 . S
H2118 C2128 0.930 . S
H2119 C2129 0.930 . S
C2120 H2114 0.930 . S
C2120 C2121 1.355 . S
C2120 C2122 1.415 . S
C2121 C2120 1.355 . S
C2121 C2123 1.419 . S
C2122 C2120 1.415 . S
C2122 C2127 1.425 . S
C2122 C2129 1.409 . S
C2123 H2115 0.930 . S
C2123 C2121 1.419 . S
C2123 C2124 1.362 . S
C2124 H2116 0.930 . S
C2124 C2123 1.362 . S
C2124 C2127 1.409 . S
C2125 H2117 0.930 . S
C2125 C2126 1.355 . S
C2125 C2127 1.415 . S
C2126 C2125 1.355 . S
C2126 C2128 1.419 . S
C2127 C2122 1.425 . S
C2127 C2124 1.409 . S
C2127 C2125 1.415 . S
C2128 H2118 0.930 . S
C2128 C2126 1.419 . S
C2128 C2129 1.362 . S
C2129 H2119 0.930 . S
C2129 C2122 1.409 . S
C2129 C2128 1.362 . S
H2130 C2136 0.930 . S
H2131 C2139 0.930 . S
H2132 C2140 0.930 . S
H2133 C2141 0.930 . S
H2134 C2144 0.930 . S
H2135 C2145 0.930 . S
C2136 H2130 0.930 . S
C2136 C2137 1.355 1_455 S
C2136 C2138 1.415 . S
C2137 C2136 1.355 1_655 S
C2137 C2139 1.419 . S
C2138 C2136 1.415 . S
C2138 C2143 1.425 1_455 S
C2138 C2145 1.409 . S
C2139 H2131 0.930 . S
C2139 C2137 1.419 . S
C2139 C2140 1.362 . S
C2140 H2132 0.930 . S
C2140 C2139 1.362 . S
C2140 C2143 1.409 . S
C2141 H2133 0.930 . S
C2141 C2142 1.349 1_655 S
C2141 C2143 1.415 . S
C2142 C2141 1.349 1_455 S
C2142 C2144 1.423 . S
C2143 C2138 1.425 1_655 S
C2143 C2140 1.409 . S
C2143 C2141 1.415 . S
C2144 H2134 0.930 . S
C2144 C2142 1.423 . S
C2144 C2145 1.362 . S
C2145 H2135 0.930 . S
C2145 C2138 1.409 . S
C2145 C2144 1.362 . S
H2146 C2152 0.930 . S
H2147 C2155 0.930 . S
H2148 C2156 0.930 . S
H2149 C2157 0.930 . S
H2150 C2160 0.930 . S
H2151 C2161 0.930 . S
C2152 H2146 0.930 . S
C2152 C2153 1.355 . S
C2152 C2154 1.415 . S
C2153 C2152 1.355 . S
C2153 C2155 1.419 . S
C2154 C2152 1.415 . S
C2154 C2159 1.425 . S
C2154 C2161 1.409 . S
C2155 H2147 0.930 . S
C2155 C2153 1.419 . S
C2155 C2156 1.362 . S
C2156 H2148 0.930 . S
C2156 C2155 1.362 . S
C2156 C2159 1.409 . S
C2157 H2149 0.930 . S
C2157 C2158 1.355 . S
C2157 C2159 1.415 . S
C2158 C2157 1.355 . S
C2158 C2160 1.419 . S
C2159 C2154 1.425 . S
C2159 C2156 1.409 . S
C2159 C2157 1.415 . S
C2160 H2150 0.930 . S
C2160 C2158 1.419 . S
C2160 C2161 1.362 . S
C2161 H2151 0.930 . S
C2161 C2154 1.409 . S
C2161 C2160 1.362 . S
H2162 C2168 0.930 . S
H2163 C2171 0.930 . S
H2164 C2172 0.930 . S
H2165 C2173 0.930 . S
H2166 C2176 0.930 . S
H2167 C2177 0.930 . S
C2168 H2162 0.930 . S
C2168 C2169 1.355 . S
C2168 C2170 1.415 . S
C2169 C2168 1.355 . S
C2169 C2171 1.419 . S
C2170 C2168 1.415 . S
C2170 C2175 1.425 . S
C2170 C2177 1.409 1_545 S
C2171 H2163 0.930 . S
C2171 C2169 1.419 . S
C2171 C2172 1.362 . S
C2172 H2164 0.930 . S
C2172 C2171 1.362 . S
C2172 C2175 1.409 . S
C2173 H2165 0.930 . S
C2173 C2174 1.352 . S
C2173 C2175 1.415 . S
C2174 C2173 1.352 . S
C2174 C2176 1.418 1_545 S
C2175 C2170 1.425 . S
C2175 C2172 1.409 . S
C2175 C2173 1.415 . S
C2176 H2166 0.930 . S
C2176 C2174 1.418 1_565 S
C2176 C2177 1.362 . S
C2177 H2167 0.930 . S
C2177 C2170 1.409 1_565 S
C2177 C2176 1.362 . S
C1033 C4 1.460 1_655 S
C1038 C854 1.439 1_655 S
C1049 C38 1.658 . S
C1054 C867 1.652 . S
C1070 C896 1.412 1_545 S
C1065 C74 1.509 . S
C1081 C76 1.472 . S
C1086 C909 1.427 . S
C1097 C2 1.616 . S
C1102 C930 1.610 . S
C1113 C40 1.505 . S
C1118 C959 1.403 . S
C1129 C110 1.587 . S
C1134 C938 1.513 . S
C1150 C951 1.467 . S
C1145 C148 1.510 . S
C1166 C917 1.495 . S
C1161 C182 1.537 1_565 S
C1177 C184 1.537 . S
C1182 C888 1.528 1_545 S
C1198 C846 1.433 . S
C1193 C112 1.499 1_655 S
C1209 C146 1.570 . S
C1214 C875 1.537 . S
C1225 C220 1.577 . S
C1230 C980 1.460 . S
C1241 C254 1.707 . S
C1246 C993 1.679 . S
C1262 C1022 1.470 . S
C1257 C290 1.579 . S
C1273 C292 1.526 . S
C1278 C657 1.512 . S
C1289 C218 1.636 . S
C1294 C678 1.623 . S
C1305 C256 1.518 . S
C1310 C707 1.491 . S
C1321 C326 1.636 . S
C1326 C686 1.603 . S
C1337 C364 1.528 . S
C1342 C699 1.426 . S
C1358 C665 1.614 . S
C1353 C398 1.629 . S
C1374 C1014 1.495 . S
C1369 C400 1.557 . S
C1390 C972 1.454 . S
C1385 C328 1.509 . S
C1406 C1001 1.615 . S
C1401 C362 1.629 . S
C1417 C436 1.557 . S
C1422 C728 1.441 . S
C1433 C470 1.704 . S
C1438 C741 1.686 . S
C1449 C506 1.574 . S
C1454 C770 1.483 . S
C1465 C508 1.528 . S
C1470 C783 1.498 . S
C1486 C804 1.649 . S
C1481 C434 1.670 . S
C1502 C833 1.508 . S
C1497 C472 1.550 . S
C1518 C812 1.614 . S
C1513 C542 1.642 . S
C1534 C825 1.452 . S
C1529 C580 1.542 . S
C1545 C614 1.596 . S
C1550 C791 1.561 . S
C1566 C762 1.510 . S
C1561 C616 1.564 . S
C1577 C544 1.476 . S
C1582 C720 1.459 . S
C1598 C749 1.591 . S
C1593 C578 1.603 . S
C1614 C660 1.383 . S
C1609 C14 1.481 . S
C1625 C39 1.478 . S
C1630 C681 1.337 . S
C1646 C709 1.364 . S
C1641 C75 1.466 . S
C1662 C730 1.280 . S
C1657 C86 1.391 . S
C1678 C744 1.411 . S
C1673 C3 1.500 . S
C1694 C772 1.419 . S
C1689 C50 1.443 . S
C1705 C111 1.522 . S
C1710 C765 1.361 . S
C1721 C158 1.400 . S
C1726 C723 1.306 . S
C1737 C183 1.582 . S
C1742 C751 1.483 . S
C1753 C194 1.494 . S
C1758 C688 1.413 . S
C1774 C702 1.343 . S
C1769 C122 1.397 . S
C1785 C147 1.453 . S
C1790 C667 1.406 . S
C1806 C786 1.361 . S
C1801 C230 1.463 . S
C1817 C255 1.533 . S
C1822 C807 1.414 . S
C1833 C291 1.478 . S
C1838 C835 1.301 . S
C1854 C856 1.340 . S
C1849 C302 1.294 . S
C1865 C219 1.506 . S
C1870 C870 1.447 . S
C1881 C266 1.400 . S
C1886 C898 1.340 . S
C1897 C327 1.417 . S
C1902 C891 1.224 . S
C1913 C374 1.421 . S
C1918 C849 1.254 . S
C1934 C877 1.518 . S
C1929 C399 1.571 . S
C1945 C410 1.513 . S
C1950 C814 1.461 . S
C1961 C338 1.489 . S
C1966 C828 1.277 . S
C1982 C793 1.422 . S
C1977 C363 1.499 . S
C1998 C912 1.405 1_545 S
C1993 C446 1.407 . S
C2009 C471 1.450 . S
C2014 C933 1.299 1_655 S
C2025 C507 1.457 . S
C2030 C961 1.382 . S
C2046 C982 1.258 . S
C2041 C518 1.402 . S
C2062 C996 1.456 . S
C2057 C435 1.547 . S
C2073 C482 1.494 . S
C2078 C1024 1.454 . S
C2089 C543 1.499 . S
C2094 C1017 1.374 . S
C2105 C590 1.439 . S
C2110 C975 1.358 . S
C2126 C1003 1.542 . S
C2121 C615 1.600 . S
C2142 C940 1.353 . S
C2137 C626 1.366 . S
C2158 C954 1.305 . S
C2153 C554 1.432 . S
C2169 C579 1.420 . S
C2174 C919 1.362 1_545 S
