# Generated by pormake.
# Topology ctn, (3,4)-cn, num edge types: 1
# Building blocks:
#     Node 0, Type 0, BuildingBlock: BETDIP_clean_linker_0, # of connection points: 3
#     Node 1, Type 0, BuildingBlock: BETDIP_clean_linker_0, # of connection points: 3
#     Node 2, Type 0, BuildingBlock: BETDIP_clean_linker_0, # of connection points: 3
#     Node 3, Type 0, BuildingBlock: BETDIP_clean_linker_0, # of connection points: 3
#     Node 4, Type 0, BuildingBlock: BETDIP_clean_linker_0, # of connection points: 3
#     Node 5, Type 0, BuildingBlock: BETDIP_clean_linker_0, # of connection points: 3
#     Node 6, Type 0, BuildingBlock: BETDIP_clean_linker_0, # of connection points: 3
#     Node 7, Type 0, BuildingBlock: BETDIP_clean_linker_0, # of connection points: 3
#     Node 8, Type 0, BuildingBlock: BETDIP_clean_linker_0, # of connection points: 3
#     Node 9, Type 0, BuildingBlock: BETDIP_clean_linker_0, # of connection points: 3
#     Node 10, Type 0, BuildingBlock: BETDIP_clean_linker_0, # of connection points: 3
#     Node 11, Type 0, BuildingBlock: BETDIP_clean_linker_0, # of connection points: 3
#     Node 12, Type 0, BuildingBlock: BETDIP_clean_linker_0, # of connection points: 3
#     Node 13, Type 0, BuildingBlock: BETDIP_clean_linker_0, # of connection points: 3
#     Node 14, Type 0, BuildingBlock: BETDIP_clean_linker_0, # of connection points: 3
#     Node 15, Type 0, BuildingBlock: BETDIP_clean_linker_0, # of connection points: 3
#     Node 16, Type 1, BuildingBlock: UXUYUI_clean_sbu_0, # of connection points: 4
#     Node 17, Type 1, BuildingBlock: UXUYUI_clean_sbu_0, # of connection points: 4
#     Node 18, Type 1, BuildingBlock: UXUYUI_clean_sbu_0, # of connection points: 4
#     Node 19, Type 1, BuildingBlock: UXUYUI_clean_sbu_0, # of connection points: 4
#     Node 20, Type 1, BuildingBlock: UXUYUI_clean_sbu_0, # of connection points: 4
#     Node 21, Type 1, BuildingBlock: UXUYUI_clean_sbu_0, # of connection points: 4
#     Node 22, Type 1, BuildingBlock: UXUYUI_clean_sbu_0, # of connection points: 4
#     Node 23, Type 1, BuildingBlock: UXUYUI_clean_sbu_0, # of connection points: 4
#     Node 24, Type 1, BuildingBlock: UXUYUI_clean_sbu_0, # of connection points: 4
#     Node 25, Type 1, BuildingBlock: UXUYUI_clean_sbu_0, # of connection points: 4
#     Node 26, Type 1, BuildingBlock: UXUYUI_clean_sbu_0, # of connection points: 4
#     Node 27, Type 1, BuildingBlock: UXUYUI_clean_sbu_0, # of connection points: 4
#     Edge 28, Type (0, 1), BuildingBlock: KIFKEQ_clean_linker_1, # of connection points: 2
#     Edge 29, Type (0, 1), BuildingBlock: KIFKEQ_clean_linker_1, # of connection points: 2
#     Edge 30, Type (0, 1), BuildingBlock: KIFKEQ_clean_linker_1, # of connection points: 2
#     Edge 31, Type (0, 1), BuildingBlock: KIFKEQ_clean_linker_1, # of connection points: 2
#     Edge 32, Type (0, 1), BuildingBlock: KIFKEQ_clean_linker_1, # of connection points: 2
#     Edge 33, Type (0, 1), BuildingBlock: KIFKEQ_clean_linker_1, # of connection points: 2
#     Edge 34, Type (0, 1), BuildingBlock: KIFKEQ_clean_linker_1, # of connection points: 2
#     Edge 35, Type (0, 1), BuildingBlock: KIFKEQ_clean_linker_1, # of connection points: 2
#     Edge 36, Type (0, 1), BuildingBlock: KIFKEQ_clean_linker_1, # of connection points: 2
#     Edge 37, Type (0, 1), BuildingBlock: KIFKEQ_clean_linker_1, # of connection points: 2
#     Edge 38, Type (0, 1), BuildingBlock: KIFKEQ_clean_linker_1, # of connection points: 2
#     Edge 39, Type (0, 1), BuildingBlock: KIFKEQ_clean_linker_1, # of connection points: 2
#     Edge 40, Type (0, 1), BuildingBlock: KIFKEQ_clean_linker_1, # of connection points: 2
#     Edge 41, Type (0, 1), BuildingBlock: KIFKEQ_clean_linker_1, # of connection points: 2
#     Edge 42, Type (0, 1), BuildingBlock: KIFKEQ_clean_linker_1, # of connection points: 2
#     Edge 43, Type (0, 1), BuildingBlock: KIFKEQ_clean_linker_1, # of connection points: 2
#     Edge 44, Type (0, 1), BuildingBlock: KIFKEQ_clean_linker_1, # of connection points: 2
#     Edge 45, Type (0, 1), BuildingBlock: KIFKEQ_clean_linker_1, # of connection points: 2
#     Edge 46, Type (0, 1), BuildingBlock: KIFKEQ_clean_linker_1, # of connection points: 2
#     Edge 47, Type (0, 1), BuildingBlock: KIFKEQ_clean_linker_1, # of connection points: 2
#     Edge 48, Type (0, 1), BuildingBlock: KIFKEQ_clean_linker_1, # of connection points: 2
#     Edge 49, Type (0, 1), BuildingBlock: KIFKEQ_clean_linker_1, # of connection points: 2
#     Edge 50, Type (0, 1), BuildingBlock: KIFKEQ_clean_linker_1, # of connection points: 2
#     Edge 51, Type (0, 1), BuildingBlock: KIFKEQ_clean_linker_1, # of connection points: 2
#     Edge 52, Type (0, 1), BuildingBlock: KIFKEQ_clean_linker_1, # of connection points: 2
#     Edge 53, Type (0, 1), BuildingBlock: KIFKEQ_clean_linker_1, # of connection points: 2
#     Edge 54, Type (0, 1), BuildingBlock: KIFKEQ_clean_linker_1, # of connection points: 2
#     Edge 55, Type (0, 1), BuildingBlock: KIFKEQ_clean_linker_1, # of connection points: 2
#     Edge 56, Type (0, 1), BuildingBlock: KIFKEQ_clean_linker_1, # of connection points: 2
#     Edge 57, Type (0, 1), BuildingBlock: KIFKEQ_clean_linker_1, # of connection points: 2
#     Edge 58, Type (0, 1), BuildingBlock: KIFKEQ_clean_linker_1, # of connection points: 2
#     Edge 59, Type (0, 1), BuildingBlock: KIFKEQ_clean_linker_1, # of connection points: 2
#     Edge 60, Type (0, 1), BuildingBlock: KIFKEQ_clean_linker_1, # of connection points: 2
#     Edge 61, Type (0, 1), BuildingBlock: KIFKEQ_clean_linker_1, # of connection points: 2
#     Edge 62, Type (0, 1), BuildingBlock: KIFKEQ_clean_linker_1, # of connection points: 2
#     Edge 63, Type (0, 1), BuildingBlock: KIFKEQ_clean_linker_1, # of connection points: 2
#     Edge 64, Type (0, 1), BuildingBlock: KIFKEQ_clean_linker_1, # of connection points: 2
#     Edge 65, Type (0, 1), BuildingBlock: KIFKEQ_clean_linker_1, # of connection points: 2
#     Edge 66, Type (0, 1), BuildingBlock: KIFKEQ_clean_linker_1, # of connection points: 2
#     Edge 67, Type (0, 1), BuildingBlock: KIFKEQ_clean_linker_1, # of connection points: 2
#     Edge 68, Type (0, 1), BuildingBlock: KIFKEQ_clean_linker_1, # of connection points: 2
#     Edge 69, Type (0, 1), BuildingBlock: KIFKEQ_clean_linker_1, # of connection points: 2
#     Edge 70, Type (0, 1), BuildingBlock: KIFKEQ_clean_linker_1, # of connection points: 2
#     Edge 71, Type (0, 1), BuildingBlock: KIFKEQ_clean_linker_1, # of connection points: 2
#     Edge 72, Type (0, 1), BuildingBlock: KIFKEQ_clean_linker_1, # of connection points: 2
#     Edge 73, Type (0, 1), BuildingBlock: KIFKEQ_clean_linker_1, # of connection points: 2
#     Edge 74, Type (0, 1), BuildingBlock: KIFKEQ_clean_linker_1, # of connection points: 2
#     Edge 75, Type (0, 1), BuildingBlock: KIFKEQ_clean_linker_1, # of connection points: 2
# Relax obj value: 0.068
# Max RMSD: 0.193
# Mean RMSD: 0.117
data_MOF--net-ctn--node1-UXUYUI_clean_sbu_0--node2-BETDIP_clean_linker_0--edge1-KIFKEQ_clean_linker_1
_symmetry_space_group_name_H-M    P1
_symmetry_Int_Tables_number       1
_symmetry_cell_setting            triclinic
loop_
_symmetry_equiv_pos_as_xyz
'x, y, z'
_cell_length_a     65.98883
_cell_length_b     66.238533
_cell_length_c     72.321535
_cell_angle_alpha  93.316645
_cell_angle_beta   93.552895
_cell_angle_gamma 92.799415
loop_
_atom_site_label
_atom_site_type_symbol
_atom_site_fract_x
_atom_site_fract_y
_atom_site_fract_z
_atom_type_partial_charge
H0 H 0.03751 0.0639 0.06398 0.0
H1 H 0.08565 0.04285 0.03186 0.0
H2 H 0.07158 0.01369 0.08145 0.0
H3 H 0.08872 0.0772 0.02711 0.0
C4 C 0.07284 0.08009 0.02402 0.0
C5 C 0.04937 0.05339 0.06187 0.0
C6 C 0.05298 0.03848 0.07459 0.0
C7 C 0.06148 0.05548 0.04681 0.0
C8 C 0.0769 0.04194 0.04399 0.0
C9 C 0.08068 0.02676 0.05638 0.0
C10 C 0.0687 0.02522 0.07173 0.0
N11 N 0.05767 0.07111 0.03455 0.0
H12 H 0.28085 0.69798 0.20354 0.0
H13 H 0.33746 0.7314 0.21879 0.0
H14 H 0.31717 0.68352 0.25194 0.0
H15 H 0.33571 0.7392 0.18949 0.0
C16 C 0.31971 0.73972 0.18518 0.0
C17 C 0.29433 0.70073 0.21287 0.0
C18 C 0.29744 0.6887 0.22805 0.0
C19 C 0.30876 0.71594 0.20921 0.0
C20 C 0.32633 0.71952 0.22126 0.0
C21 C 0.32964 0.70779 0.23668 0.0
C22 C 0.31508 0.69238 0.23989 0.0
N23 N 0.30491 0.72748 0.19348 0.0
H24 H 0.96006 0.4896 0.01863 0.0
H25 H 0.00769 0.46735 0.05375 0.0
H26 H 0.97577 0.51895 0.07269 0.0
H27 H 0.02002 0.45963 0.02477 0.0
C28 C 0.00612 0.45288 0.01764 0.0
C29 C 0.96933 0.4908 0.0316 0.0
C30 C 0.96602 0.50597 0.04533 0.0
C31 C 0.98459 0.47716 0.03436 0.0
C32 C 0.99642 0.47839 0.05125 0.0
C33 C 0.99334 0.49336 0.06524 0.0
C34 C 0.978 0.50706 0.06219 0.0
N35 N 0.98736 0.46202 0.02013 0.0
H36 H 0.72017 0.77805 0.19577 0.0
H37 H 0.73763 0.83058 0.23206 0.0
H38 H 0.77246 0.81606 0.18527 0.0
H39 H 0.70305 0.82893 0.23604 0.0
C40 C 0.70041 0.81278 0.2374 0.0
C41 C 0.73025 0.79129 0.19938 0.0
C42 C 0.74678 0.79552 0.18862 0.0
C43 C 0.72662 0.80398 0.21488 0.0
C44 C 0.73985 0.82103 0.21977 0.0
C45 C 0.75656 0.82539 0.20924 0.0
C46 C 0.7599 0.81253 0.19371 0.0
N47 N 0.71009 0.79873 0.22571 0.0
H48 H 0.03592 0.96483 0.45047 0.0
H49 H 0.08831 0.98439 0.48652 0.0
H50 H 0.07683 0.01291 0.43541 0.0
H51 H 0.0693 0.9717 0.50822 0.0
C52 C 0.06139 0.95829 0.50137 0.0
C53 C 0.04952 0.97462 0.45335 0.0
C54 C 0.05474 0.98929 0.4409 0.0
C55 C 0.06131 0.9729 0.46994 0.0
C56 C 0.07889 0.98573 0.47392 0.0
C57 C 0.0844 1.00043 0.46164 0.0
C58 C 0.07231 1.00199 0.44516 0.0
N59 N 0.0552 0.95796 0.48215 0.0
H60 H 0.22605 0.74704 0.81035 0.0
H61 H 0.24848 0.69942 0.77585 0.0
H62 H 0.27532 0.71253 0.83119 0.0
H63 H 0.21727 0.69888 0.76154 0.0
C64 C 0.21245 0.71431 0.7627 0.0
C65 C 0.23639 0.73496 0.8086 0.0
C66 C 0.25076 0.73124 0.82302 0.0
C67 C 0.23505 0.72327 0.79182 0.0
C68 C 0.24877 0.70798 0.78907 0.0
C69 C 0.26351 0.70412 0.80315 0.0
C70 C 0.26438 0.71581 0.82011 0.0
N71 N 0.21991 0.72766 0.77797 0.0
H72 H 0.99592 0.57864 0.46802 0.0
H73 H 0.96045 0.52385 0.45106 0.0
H74 H 0.94492 0.56046 0.49863 0.0
H75 H 0.99019 0.51464 0.43977 0.0
C76 C 0.99619 0.52848 0.4343 0.0
C77 C 0.98341 0.56798 0.47015 0.0
C78 C 0.97068 0.57176 0.48469 0.0
C79 C 0.98016 0.55055 0.45824 0.0
C80 C 0.96366 0.5369 0.46068 0.0
C81 C 0.95076 0.54038 0.47518 0.0
C82 C 0.95442 0.55788 0.48711 0.0
N83 N 0.99336 0.54753 0.44362 0.0
H84 H 0.80231 0.82504 0.77787 0.0
H85 H 0.82592 0.77997 0.8124 0.0
H86 H 0.77441 0.81259 0.82858 0.0
H87 H 0.85532 0.78858 0.79868 0.0
C88 C 0.8502 0.79124 0.78451 0.0
C89 C 0.80167 0.81686 0.7904 0.0
C90 C 0.78661 0.82077 0.80285 0.0
C91 C 0.81614 0.80259 0.79389 0.0
C92 C 0.81526 0.79156 0.8099 0.0
C93 C 0.80004 0.79489 0.82238 0.0
C94 C 0.78579 0.80954 0.81875 0.0
N95 N 0.83099 0.79945 0.78072 0.0
H96 H 0.29653 0.3198 0.27553 0.0
H97 H 0.32307 0.27798 0.31205 0.0
H98 H 0.27134 0.31057 0.32801 0.0
H99 H 0.3522 0.28937 0.29805 0.0
C100 C 0.34659 0.2896 0.28362 0.0
C101 C 0.29663 0.31231 0.28847 0.0
C102 C 0.2822 0.31682 0.30134 0.0
C103 C 0.31182 0.29891 0.29249 0.0
C104 C 0.31195 0.2891 0.30925 0.0
C105 C 0.29716 0.29292 0.32205 0.0
C106 C 0.28254 0.30712 0.3181 0.0
N107 N 0.32649 0.29543 0.27923 0.0
H108 H 0.45775 0.98884 0.51984 0.0
H109 H 0.50266 0.9646 0.55652 0.0
H110 H 0.47145 0.01694 0.5747 0.0
H111 H 0.51634 0.95612 0.52913 0.0
C112 C 0.50286 0.95055 0.52062 0.0
C113 C 0.46637 0.98959 0.53314 0.0
C114 C 0.46265 1.00453 0.54695 0.0
C115 C 0.48114 0.97553 0.53628 0.0
C116 C 0.49198 0.97608 0.55366 0.0
C117 C 0.4887 0.99098 0.56765 0.0
C118 C 0.47388 0.00512 0.56419 0.0
N119 N 0.48444 0.96068 0.52192 0.0
H120 H 0.22041 0.28146 0.6963 0.0
H121 H 0.23972 0.3335 0.73246 0.0
H122 H 0.2727 0.31885 0.68459 0.0
H123 H 0.20765 0.33139 0.74023 0.0
C124 C 0.20355 0.3153 0.73997 0.0
C125 C 0.23094 0.29438 0.6998 0.0
C126 C 0.24673 0.2988 0.68823 0.0
C127 C 0.22813 0.30686 0.71566 0.0
C128 C 0.24156 0.32385 0.72018 0.0
C129 C 0.25752 0.32851 0.70886 0.0
C130 C 0.26003 0.31578 0.69302 0.0
N131 N 0.21188 0.30168 0.72688 0.0
H132 H 0.78149 0.19742 0.70123 0.0
H133 H 0.83702 0.23185 0.71858 0.0
H134 H 0.81425 0.1856 0.75235 0.0
H135 H 0.82437 0.25503 0.7011 0.0
C136 C 0.81468 0.24728 0.68997 0.0
C137 C 0.79434 0.20072 0.71121 0.0
C138 C 0.79635 0.18955 0.72706 0.0
C139 C 0.80842 0.21657 0.70838 0.0
C140 C 0.82533 0.22055 0.72117 0.0
C141 C 0.82767 0.2094 0.73709 0.0
C142 C 0.81287 0.19413 0.74003 0.0
N143 N 0.80519 0.22795 0.69244 0.0
H144 H 0.53996 0.56477 0.56594 0.0
H145 H 0.58872 0.54266 0.53502 0.0
H146 H 0.57264 0.51387 0.58407 0.0
H147 H 0.57208 0.55597 0.51144 0.0
C148 C 0.56562 0.5695 0.51726 0.0
C149 C 0.55162 0.554 0.56406 0.0
C150 C 0.55485 0.53925 0.57705 0.0
C151 C 0.56337 0.55511 0.54863 0.0
C152 C 0.57903 0.54166 0.54649 0.0
C153 C 0.58235 0.5267 0.55916 0.0
C154 C 0.57014 0.52548 0.57433 0.0
N155 N 0.55932 0.57014 0.53576 0.0
H156 H 0.54218 0.45941 0.94976 0.0
H157 H 0.59366 0.48274 0.98545 0.0
H158 H 0.58026 0.50915 0.93367 0.0
H159 H 0.59075 0.45457 0.99892 0.0
C160 C 0.5754 0.44794 0.99648 0.0
C161 C 0.5552 0.47001 0.95258 0.0
C162 C 0.55967 0.48451 0.93976 0.0
C163 C 0.56764 0.46874 0.96887 0.0
C164 C 0.58443 0.48268 0.97259 0.0
C165 C 0.58913 0.49728 0.95994 0.0
C166 C 0.57672 0.49798 0.94352 0.0
N167 N 0.56262 0.45348 0.9812 0.0
H168 H 0.72567 0.24479 0.31123 0.0
H169 H 0.74499 0.1955 0.27652 0.0
H170 H 0.77822 0.21278 0.32847 0.0
H171 H 0.71292 0.19462 0.26432 0.0
C172 C 0.70815 0.21008 0.26533 0.0
C173 C 0.73624 0.23305 0.30873 0.0
C174 C 0.75231 0.23038 0.32189 0.0
C175 C 0.73316 0.22037 0.29257 0.0
C176 C 0.74667 0.20497 0.28927 0.0
C177 C 0.76301 0.20219 0.30214 0.0
C178 C 0.7657 0.21491 0.31847 0.0
N179 N 0.71661 0.22395 0.27983 0.0
H180 H 0.49771 0.07478 0.96947 0.0
H181 H 0.46353 0.01889 0.95413 0.0
H182 H 0.44836 0.05558 1.0017 0.0
H183 H 0.49285 0.01013 0.94214 0.0
C184 C 0.49895 0.02399 0.93677 0.0
C185 C 0.48568 0.06383 0.97217 0.0
C186 C 0.47325 0.06755 0.98697 0.0
C187 C 0.48274 0.04606 0.96065 0.0
C188 C 0.46665 0.0321 0.96356 0.0
C189 C 0.45397 0.03555 0.97822 0.0
C190 C 0.45758 0.05319 0.98996 0.0
N191 N 0.49585 0.04305 0.94596 0.0
Li192 Li 0.28217 0.89193 0.00937 0.0
Li193 Li 0.2681 0.86539 0.02803 0.0
Li194 Li 0.25978 0.86512 0.9945 0.0
Li195 Li 0.24618 0.89029 0.01626 0.0
C196 C 0.29471 0.84722 0.99804 0.0
N197 N 0.30892 0.81501 0.97752 0.0
C198 C 0.29454 0.82797 1.00501 0.0
C199 C 0.30221 0.85011 0.98067 0.0
C200 C 0.30179 0.81188 0.99443 0.0
C201 C 0.30927 0.83362 0.97049 0.0
C202 C 0.27841 0.8961 0.05154 0.0
C203 C 0.2752 0.89137 0.08408 0.0
N204 N 0.29543 0.8961 0.08742 0.0
C205 C 0.29917 0.90095 0.05531 0.0
C206 C 0.2663 0.89133 0.06604 0.0
C207 C 0.30748 0.90087 0.07355 0.0
C208 C 0.3034 0.93008 0.0104 0.0
N209 N 0.30507 0.90993 0.0065 0.0
C210 C 0.33902 0.91574 0.99754 0.0
C211 C 0.3225 0.90255 1.00044 0.0
C212 C 0.33753 0.9367 1.00092 0.0
C213 C 0.31946 0.94382 0.00755 0.0
H214 H 0.28947 0.93548 0.01554 0.0
H215 H 0.32356 0.88645 0.99774 0.0
C216 C 0.25896 0.83826 0.05578 0.0
N217 N 0.27416 0.84883 0.04815 0.0
C218 C 0.26332 0.82634 0.0707 0.0
C219 C 0.29893 0.83625 0.06946 0.0
C220 C 0.29388 0.84797 0.05458 0.0
C221 C 0.28355 0.82523 0.07775 0.0
H222 H 0.24345 0.83903 0.05026 0.0
H223 H 0.30566 0.85649 0.04817 0.0
C224 C 0.26343 0.91102 0.98287 0.0
N225 N 0.27615 0.94506 0.9655 0.0
C226 C 0.25556 0.92975 0.98743 0.0
C227 C 0.27769 0.90959 0.96939 0.0
C228 C 0.26219 0.94678 0.9785 0.0
C229 C 0.28397 0.92698 0.96081 0.0
C230 C 0.22063 0.85876 0.01472 0.0
C231 C 0.20878 0.85448 0.99814 0.0
C232 C 0.21118 0.86235 0.03129 0.0
C233 C 0.18761 0.85393 0.9984 0.0
C234 C 0.18997 0.86171 0.03096 0.0
N235 N 0.17872 0.85755 0.01466 0.0
C236 C 0.25311 0.82741 0.97415 0.0
C237 C 0.25447 0.85567 0.95553 0.0
C238 C 0.25201 0.81408 0.95839 0.0
N239 N 0.25481 0.84775 0.97246 0.0
C240 C 0.25315 0.8429 0.93938 0.0
C241 C 0.25227 0.8218 0.94071 0.0
H242 H 0.25321 0.82154 0.9878 0.0
H243 H 0.25568 0.87189 0.95456 0.0
C244 C 0.22439 0.91724 0.03813 0.0
N245 N 0.22374 0.90656 0.02147 0.0
C246 C 0.2087 0.92971 0.0425 0.0
C247 C 0.1919 0.92009 0.01243 0.0
C248 C 0.20797 0.90779 0.00863 0.0
C249 C 0.19219 0.93137 0.02954 0.0
H250 H 0.2372 0.91625 0.04799 0.0
H251 H 0.20798 0.89938 0.99535 0.0
O252 O 0.28729 0.86308 0.00804 0.0
O253 O 0.27006 0.89568 0.03372 0.0
O254 O 0.25742 0.89425 0.9917 0.0
O255 O 0.24137 0.85972 0.01471 0.0
H256 H 0.28865 0.8254 0.01835 0.0
H257 H 0.30225 0.86484 0.97497 0.0
H258 H 0.30167 0.79688 0.99961 0.0
H259 H 0.31495 0.8356 0.95696 0.0
H260 H 0.26604 0.88755 0.0954 0.0
H261 H 0.3088 0.90456 0.04427 0.0
H262 H 0.25026 0.88727 0.06333 0.0
H263 H 0.32353 0.90453 0.07666 0.0
H264 H 0.35265 0.90962 0.99237 0.0
H265 H 0.31781 0.95983 0.01061 0.0
H266 H 0.25102 0.81787 0.07647 0.0
H267 H 0.31469 0.83604 0.07456 0.0
H268 H 0.24461 0.93118 0.99789 0.0
H269 H 0.2841 0.89527 0.96582 0.0
H270 H 0.25629 0.96138 0.98195 0.0
H271 H 0.29511 0.92612 0.95048 0.0
H272 H 0.21584 0.85176 0.98519 0.0
H273 H 0.22013 0.86593 0.04421 0.0
H274 H 0.17824 0.8507 0.98566 0.0
H275 H 0.18245 0.86461 0.04364 0.0
H276 H 0.25105 0.79792 0.96 0.0
H277 H 0.25345 0.84947 0.92602 0.0
H278 H 0.2095 0.93792 0.05593 0.0
H279 H 0.17963 0.92111 1.00192 0.0
Li280 Li 0.12364 0.5047 0.27386 0.0
Li281 Li 0.14791 0.48219 0.26005 0.0
Li282 Li 0.15087 0.51911 0.25728 0.0
Li283 Li 0.12351 0.49828 0.24007 0.0
C284 C 0.17005 0.51299 0.28922 0.0
N285 N 0.20498 0.53228 0.3062 0.0
C286 C 0.18842 0.50332 0.28943 0.0
C287 C 0.16942 0.53241 0.29777 0.0
C288 C 0.20592 0.51334 0.29808 0.0
C289 C 0.18726 0.54193 0.30623 0.0
C290 C 0.11385 0.45896 0.26194 0.0
C291 C 0.11444 0.42358 0.25214 0.0
N292 N 0.1075 0.41858 0.26869 0.0
C293 C 0.10666 0.45349 0.27882 0.0
C294 C 0.11769 0.4439 0.24844 0.0
C295 C 0.10356 0.43299 0.28197 0.0
C296 C 0.08643 0.50529 0.2913 0.0
N297 N 0.1069 0.50863 0.29419 0.0
C298 C 0.10363 0.51729 0.32637 0.0
C299 C 0.11564 0.51444 0.3113 0.0
C300 C 0.08238 0.51411 0.32383 0.0
C301 C 0.07382 0.50806 0.30595 0.0
H302 H 0.07991 0.50044 0.27758 0.0
H303 H 0.13197 0.51668 0.31328 0.0
C304 C 0.17819 0.45453 0.25231 0.0
N305 N 0.1633 0.45889 0.26387 0.0
C306 C 0.19069 0.43851 0.25564 0.0
C307 C 0.17195 0.43143 0.28242 0.0
C308 C 0.16016 0.44788 0.27884 0.0
C309 C 0.18756 0.42675 0.27084 0.0
H310 H 0.18066 0.4638 0.24074 0.0
H311 H 0.14874 0.4521 0.28821 0.0
C312 C 0.10659 0.5359 0.26005 0.0
N313 N 0.07506 0.55766 0.27279 0.0
C314 C 0.08688 0.5322 0.25193 0.0
C315 C 0.11029 0.55073 0.27458 0.0
C316 C 0.07114 0.54337 0.25857 0.0
C317 C 0.09413 0.56153 0.28085 0.0
C318 C 0.15449 0.49601 0.21924 0.0
C319 C 0.15815 0.51366 0.21002 0.0
C320 C 0.15113 0.47744 0.20907 0.0
C321 C 0.15822 0.51244 0.19067 0.0
C322 C 0.15129 0.47686 0.18974 0.0
N323 N 0.15479 0.49423 0.18102 0.0
C324 C 0.18964 0.53834 0.25438 0.0
C325 C 0.16246 0.56045 0.254 0.0
C326 C 0.2036 0.55445 0.25228 0.0
N327 N 0.16956 0.54164 0.25535 0.0
C328 C 0.17585 0.57698 0.25169 0.0
C329 C 0.19672 0.57407 0.25079 0.0
H330 H 0.19479 0.52313 0.25503 0.0
H331 H 0.14637 0.5626 0.25445 0.0
C332 C 0.0956 0.47926 0.21158 0.0
N333 N 0.10694 0.49639 0.21739 0.0
C334 C 0.08324 0.47863 0.19511 0.0
C335 C 0.09444 0.51327 0.19101 0.0
C336 C 0.10653 0.51324 0.20753 0.0
C337 C 0.08253 0.49582 0.18458 0.0
H338 H 0.09604 0.46614 0.21976 0.0
H339 H 0.1155 0.52674 0.21264 0.0
O340 O 0.15283 0.50358 0.28056 0.0
O341 O 0.11711 0.47894 0.25864 0.0
O342 O 0.12214 0.52486 0.254 0.0
O343 O 0.15383 0.49695 0.23812 0.0
H344 H 0.18921 0.48831 0.28289 0.0
H345 H 0.15536 0.54015 0.29765 0.0
H346 H 0.22025 0.50607 0.29828 0.0
H347 H 0.18702 0.55702 0.31277 0.0
H348 H 0.11747 0.41177 0.24187 0.0
H349 H 0.10365 0.46494 0.28944 0.0
H350 H 0.12335 0.44788 0.23534 0.0
H351 H 0.09807 0.42853 0.295 0.0
H352 H 0.11096 0.52157 0.33993 0.0
H353 H 0.05754 0.50563 0.30325 0.0
H354 H 0.20268 0.43535 0.24649 0.0
H355 H 0.16935 0.42285 0.29444 0.0
H356 H 0.0837 0.52067 0.24079 0.0
H357 H 0.12542 0.55369 0.2811 0.0
H358 H 0.0558 0.54061 0.25248 0.0
H359 H 0.09675 0.57296 0.29217 0.0
H360 H 0.16068 0.52817 0.21769 0.0
H361 H 0.14829 0.46365 0.21602 0.0
H362 H 0.16091 0.52599 0.18333 0.0
H363 H 0.14861 0.46261 0.18166 0.0
H364 H 0.21952 0.55151 0.25137 0.0
H365 H 0.16995 0.59187 0.25065 0.0
H366 H 0.07446 0.46479 0.1906 0.0
H367 H 0.09414 0.52697 0.18354 0.0
Li368 Li 0.76659 0.64282 0.99787 0.0
Li369 Li 0.78279 0.67038 0.01896 0.0
Li370 Li 0.78734 0.66961 0.98552 0.0
Li371 Li 0.80294 0.64546 1.0044 0.0
C372 C 0.74389 0.67744 1.00542 0.0
N373 N 0.70809 0.6879 0.02045 0.0
C374 C 0.7361 0.66642 0.01955 0.0
C375 C 0.7335 0.69378 0.99896 0.0
C376 C 0.71797 0.67195 0.02695 0.0
C377 C 0.71541 0.69882 0.00673 0.0
C378 C 0.79207 0.63222 0.03625 0.0
C379 C 0.81842 0.63425 0.06105 0.0
N380 N 0.81457 0.61431 0.06373 0.0
C381 C 0.78834 0.61176 0.03928 0.0
C382 C 0.80722 0.64358 0.04723 0.0
C383 C 0.79989 0.60299 0.05323 0.0
C384 C 0.74561 0.60467 0.99603 0.0
N385 N 0.7434 0.62444 0.99267 0.0
C386 C 0.70876 0.6172 0.9816 0.0
C387 C 0.72552 0.63083 0.98534 0.0
C388 C 0.71044 0.59673 0.98529 0.0
C389 C 0.72923 0.59051 0.99253 0.0
H390 H 0.76018 0.59987 1.00125 0.0
H391 H 0.72424 0.64652 0.9823 0.0
C392 C 0.78225 0.70746 0.04079 0.0
N393 N 0.77879 0.68705 0.0407 0.0
C394 C 0.77889 0.71975 0.05659 0.0
C395 C 0.7686 0.68975 0.07186 0.0
C396 C 0.77188 0.67811 0.05574 0.0
C397 C 0.77211 0.71085 0.07243 0.0
H398 H 0.78755 0.71417 0.02856 0.0
H399 H 0.76879 0.66191 0.05518 0.0
C400 C 0.77877 0.63424 0.96283 0.0
N401 N 0.76008 0.62288 0.9283 0.0
C402 C 0.78597 0.61829 0.95204 0.0
C403 C 0.76203 0.64441 0.95608 0.0
C404 C 0.77633 0.61278 0.93461 0.0
C405 C 0.7528 0.63844 0.93858 0.0
C406 C 0.82636 0.68093 0.99926 0.0
C407 C 0.83346 0.66936 0.98446 0.0
C408 C 0.83762 0.6983 0.00654 0.0
C409 C 0.85176 0.67538 0.97719 0.0
C410 C 0.85586 0.70382 0.99888 0.0
N411 N 0.86249 0.69234 0.98449 0.0
C412 C 0.78322 0.70528 0.96621 0.0
C413 C 0.79892 0.67923 0.94944 0.0
C414 C 0.78459 0.71786 0.95141 0.0
N415 N 0.79022 0.68632 0.96493 0.0
C416 C 0.80045 0.69122 0.93427 0.0
C417 C 0.79318 0.71085 0.93505 0.0
H418 H 0.77656 0.71061 0.97876 0.0
H419 H 0.80453 0.66417 0.94876 0.0
C420 C 0.82285 0.60898 1.00368 0.0
N421 N 0.8257 0.62906 0.00867 0.0
C422 C 0.83812 0.59573 0.00777 0.0
C423 C 0.85918 0.62415 0.02171 0.0
C424 C 0.8434 0.63682 0.01756 0.0
C425 C 0.85656 0.60329 0.01694 0.0
H426 H 0.80851 0.6032 0.99686 0.0
H427 H 0.84512 0.65275 0.02184 0.0
O428 O 0.76179 0.67257 0.99813 0.0
O429 O 0.78142 0.64098 0.02226 0.0
O430 O 0.78803 0.63962 0.97998 0.0
O431 O 0.80839 0.67551 0.00657 0.0
H432 H 0.74393 0.65374 0.02474 0.0
H433 H 0.73937 0.70249 0.98807 0.0
H434 H 0.71177 0.66356 0.03789 0.0
H435 H 0.7072 0.71144 1.00186 0.0
H436 H 0.83027 0.64284 0.06957 0.0
H437 H 0.77669 0.60272 0.03096 0.0
H438 H 0.81053 0.65936 0.0449 0.0
H439 H 0.79719 0.58716 0.0557 0.0
H440 H 0.69457 0.62269 0.97608 0.0
H441 H 0.73136 0.5748 0.99519 0.0
H442 H 0.78182 0.73598 0.05652 0.0
H443 H 0.76305 0.68236 0.08367 0.0
H444 H 0.79888 0.61025 0.95711 0.0
H445 H 0.75623 0.6568 0.96419 0.0
H446 H 0.78175 0.60046 0.9261 0.0
H447 H 0.73985 0.64618 0.93318 0.0
H448 H 0.82499 0.65585 0.97865 0.0
H449 H 0.83229 0.70743 0.01797 0.0
H450 H 0.85743 0.66657 0.96574 0.0
H451 H 0.86474 0.71724 1.00438 0.0
H452 H 0.77911 0.73298 0.95285 0.0
H453 H 0.80694 0.68498 0.92194 0.0
H454 H 0.83555 0.57976 1.00376 0.0
H455 H 0.87306 0.63053 0.02902 0.0
Li456 Li 0.90183 0.03991 0.25651 0.0
Li457 Li 0.92667 0.01898 0.26963 0.0
Li458 Li 0.9269 0.02689 0.23678 0.0
Li459 Li 0.89965 1.00426 0.24774 0.0
C460 C 0.93778 0.05983 0.27323 0.0
N461 N 0.95019 0.08779 0.30204 0.0
C462 C 0.92659 0.06153 0.28899 0.0
C463 C 0.95529 0.07232 0.27213 0.0
C464 C 0.93311 0.07576 0.3034 0.0
C465 C 0.96131 0.08637 0.28684 0.0
C466 C 0.89173 1.00286 0.28435 0.0
C467 C 0.89652 0.97022 0.29665 0.0
N468 N 0.88109 0.97331 0.30793 0.0
C469 C 0.87591 0.0057 0.29604 0.0
C470 C 0.90213 0.98497 0.28462 0.0
C471 C 0.87076 0.99059 0.30788 0.0
C472 C 0.86535 0.05728 0.26491 0.0
N473 N 0.88498 0.06214 0.26155 0.0
C474 C 0.87946 0.09746 0.2661 0.0
C475 C 0.89215 0.08178 0.26184 0.0
C476 C 0.85914 0.09286 0.2697 0.0
C477 C 0.85206 0.07247 0.26889 0.0
H478 H 0.86005 0.04153 0.26448 0.0
H479 H 0.90772 0.08529 0.2588 0.0
C480 C 0.96257 0.00832 0.28979 0.0
N481 N 0.94342 0.01457 0.29146 0.0
C482 C 0.97502 0.00512 0.30562 0.0
C483 C 0.94775 0.0148 0.32454 0.0
C484 C 0.93592 0.0179 0.3084 0.0
C485 C 0.96764 0.00839 0.32334 0.0
H486 H 0.96822 0.00595 0.27615 0.0
H487 H 0.9207 0.02298 0.30943 0.0
C488 C 0.8866 0.04137 0.22269 0.0
N489 N 0.86516 0.07187 0.20751 0.0
C490 C 0.86562 0.03865 0.21871 0.0
C491 C 0.8967 0.05955 0.21886 0.0
C492 C 0.85504 0.05427 0.21106 0.0
C493 C 0.88558 0.07479 0.2112 0.0
C494 C 0.93504 0.98635 0.23449 0.0
C495 C 0.92423 0.98437 0.21717 0.0
C496 C 0.95172 0.97459 0.23787 0.0
C497 C 0.93028 0.97055 0.20353 0.0
C498 C 0.95728 0.96093 0.22386 0.0
N499 N 0.94655 0.95922 0.20713 0.0
C500 C 0.9642 0.0315 0.21945 0.0
C501 C 0.93465 0.03082 0.19904 0.0
C502 C 0.97664 0.03253 0.20451 0.0
N503 N 0.94362 0.03061 0.21645 0.0
C504 C 0.94647 0.03197 0.18374 0.0
C505 C 0.9678 0.03265 0.18629 0.0
H506 H 0.97092 0.03094 0.23343 0.0
H507 H 0.91826 0.02972 0.19697 0.0
C508 C 0.86119 0.984 0.24141 0.0
N509 N 0.88144 0.98095 0.24245 0.0
C510 C 0.84701 0.96758 0.23844 0.0
C511 C 0.87476 0.94513 0.23797 0.0
C512 C 0.88838 0.96196 0.24108 0.0
C513 C 0.85372 0.94778 0.23663 0.0
H514 H 0.85606 0.99918 0.2433 0.0
H515 H 0.90448 0.95975 0.24267 0.0
O516 O 0.93188 0.04587 0.25899 0.0
O517 O 0.89674 0.0175 0.27258 0.0
O518 O 0.89718 0.02654 0.23072 0.0
O519 O 0.92971 1.0001 0.24794 0.0
H520 H 0.91299 0.05201 0.29009 0.0
H521 H 0.96415 0.07113 0.26004 0.0
H522 H 0.92459 0.07724 0.31567 0.0
H523 H 0.97483 0.09615 0.28617 0.0
H524 H 0.90444 0.95631 0.297 0.0
H525 H 0.86769 0.01945 0.29595 0.0
H526 H 0.91441 0.98245 0.27567 0.0
H527 H 0.85855 0.9926 0.31702 0.0
H528 H 0.8854 0.11302 0.26638 0.0
H529 H 0.8365 0.06832 0.27165 0.0
H530 H 0.99034 1.00046 0.304 0.0
H531 H 0.94126 0.01723 0.33782 0.0
H532 H 0.85756 0.02468 0.22154 0.0
H533 H 0.91291 0.06198 0.22206 0.0
H534 H 0.83878 0.05241 0.20797 0.0
H535 H 0.89318 0.08899 0.20828 0.0
H536 H 0.9113 0.99338 0.21429 0.0
H537 H 0.9603 0.97602 0.25118 0.0
H538 H 0.92207 0.96886 0.19007 0.0
H539 H 0.97016 0.95171 0.22629 0.0
H540 H 0.99297 0.03271 0.20718 0.0
H541 H 0.93892 0.03229 0.17004 0.0
H542 H 0.83096 0.97037 0.23797 0.0
H543 H 0.88071 0.93022 0.23658 0.0
Li544 Li 0.28089 0.17029 0.51958 0.0
Li545 Li 0.26456 0.14271 0.49861 0.0
Li546 Li 0.30089 0.14515 0.50519 0.0
Li547 Li 0.28554 0.1693 0.4862 0.0
C548 C 0.28984 0.13248 0.53729 0.0
N549 N 0.31204 0.11518 0.56533 0.0
C550 C 0.28615 0.11209 0.54059 0.0
C551 C 0.3048 0.14408 0.54828 0.0
C552 C 0.29754 0.10362 0.55483 0.0
C553 C 0.31586 0.13506 0.56239 0.0
C554 C 0.24203 0.17746 0.50591 0.0
C555 C 0.21356 0.19888 0.50695 0.0
N556 N 0.20611 0.18801 0.52065 0.0
C557 C 0.2341 0.1665 0.52001 0.0
C558 C 0.23171 0.19379 0.49933 0.0
C559 C 0.21592 0.17207 0.52727 0.0
C560 C 0.28152 0.20741 0.54136 0.0
N561 N 0.27695 0.18717 0.54119 0.0
C562 C 0.26544 0.19061 0.57185 0.0
C563 C 0.26899 0.17866 0.55597 0.0
C564 C 0.26993 0.21161 0.57251 0.0
C565 C 0.2781 0.21998 0.55695 0.0
H566 H 0.28763 0.21379 0.52931 0.0
H567 H 0.26529 0.16255 0.55541 0.0
C568 C 0.24328 0.10471 0.49728 0.0
N569 N 0.24126 0.12442 0.4936 0.0
C570 C 0.22672 0.0907 0.49418 0.0
C571 C 0.20645 0.11741 0.48299 0.0
C572 C 0.22341 0.13088 0.48626 0.0
C573 C 0.20792 0.09703 0.48709 0.0
H574 H 0.2578 0.09988 0.5026 0.0
H575 H 0.2223 0.14647 0.48287 0.0
C576 C 0.32461 0.18034 0.49998 0.0
N577 N 0.36091 0.19128 0.48526 0.0
C578 C 0.3316 0.16865 0.4852 0.0
C579 C 0.33607 0.19759 0.50726 0.0
C580 C 0.34999 0.17444 0.47795 0.0
C581 C 0.3544 0.20287 0.49963 0.0
C582 C 0.27671 0.13396 0.46359 0.0
C583 C 0.28382 0.11797 0.45278 0.0
C584 C 0.26006 0.14425 0.45683 0.0
C585 C 0.27416 0.11253 0.43534 0.0
C586 C 0.25081 0.13835 0.43933 0.0
N587 N 0.25799 0.12275 0.42904 0.0
C588 C 0.32058 0.10859 0.50438 0.0
C589 C 0.34114 0.13623 0.51863 0.0
C590 C 0.33577 0.09525 0.50844 0.0
N591 N 0.32348 0.12862 0.50956 0.0
C592 C 0.35682 0.12346 0.52277 0.0
C593 C 0.35416 0.10264 0.51779 0.0
H594 H 0.30628 0.10294 0.49741 0.0
H595 H 0.34289 0.15213 0.52303 0.0
C596 C 0.28193 0.20507 0.46705 0.0
N597 N 0.28863 0.186 0.46564 0.0
C598 C 0.28345 0.21773 0.45232 0.0
C599 C 0.29889 0.19094 0.435 0.0
C600 C 0.29721 0.17887 0.4501 0.0
C601 C 0.2919 0.21068 0.43591 0.0
H602 H 0.27537 0.21043 0.47965 0.0
H603 H 0.3026 0.16372 0.44933 0.0
O604 O 0.27935 0.14093 0.52301 0.0
O605 O 0.25995 0.1725 0.49871 0.0
O606 O 0.30657 0.17515 0.50726 0.0
O607 O 0.28601 0.13929 0.48073 0.0
H608 H 0.27467 0.10286 0.53224 0.0
H609 H 0.30811 0.1598 0.54572 0.0
H610 H 0.29488 0.08785 0.55751 0.0
H611 H 0.32756 0.14384 0.57092 0.0
H612 H 0.2054 0.21148 0.50199 0.0
H613 H 0.24185 0.1538 0.52527 0.0
H614 H 0.23768 0.20244 0.48844 0.0
H615 H 0.20961 0.16372 0.53818 0.0
H616 H 0.2594 0.18339 0.58354 0.0
H617 H 0.28151 0.23611 0.55668 0.0
H618 H 0.22855 0.07515 0.49755 0.0
H619 H 0.1924 0.12286 0.4771 0.0
H620 H 0.32298 0.15524 0.47938 0.0
H621 H 0.33083 0.20682 0.51868 0.0
H622 H 0.35558 0.16553 0.46652 0.0
H623 H 0.36343 0.21619 0.50513 0.0
H624 H 0.29667 0.10984 0.45784 0.0
H625 H 0.25433 0.15668 0.46495 0.0
H626 H 0.27951 0.10018 0.42683 0.0
H627 H 0.23793 0.14618 0.43393 0.0
H628 H 0.33316 0.07932 0.50426 0.0
H629 H 0.37067 0.12972 0.53023 0.0
H630 H 0.27819 0.23292 0.45387 0.0
H631 H 0.30527 0.18467 0.42262 0.0
Li632 Li 0.42953 0.51928 0.77156 0.0
Li633 Li 0.40303 0.54154 0.76056 0.0
Li634 Li 0.40249 0.50588 0.75072 0.0
Li635 Li 0.4284 0.52769 0.73941 0.0
C636 C 0.38821 0.50412 0.78349 0.0
N637 N 0.36302 0.47446 0.79672 0.0
C638 C 0.36757 0.50724 0.78496 0.0
C639 C 0.39608 0.48598 0.78886 0.0
C640 C 0.35508 0.49204 0.79165 0.0
C641 C 0.38309 0.47116 0.79549 0.0
C642 C 0.44652 0.55574 0.77528 0.0
C643 C 0.48043 0.56755 0.78657 0.0
N644 N 0.47356 0.57188 0.80362 0.0
C645 C 0.43977 0.56041 0.79288 0.0
C646 C 0.467 0.55941 0.77205 0.0
C647 C 0.45368 0.56852 0.80704 0.0
C648 C 0.46676 0.51032 0.79082 0.0
N649 N 0.44691 0.51406 0.79271 0.0
C650 C 0.45091 0.51069 0.82544 0.0
C651 C 0.43888 0.51439 0.80957 0.0
C652 C 0.47154 0.50681 0.82403 0.0
C653 C 0.47944 0.50671 0.80638 0.0
H654 H 0.47277 0.51031 0.77723 0.0
H655 H 0.42308 0.51758 0.81072 0.0
C656 C 0.36598 0.56018 0.76266 0.0
N657 N 0.38636 0.56358 0.76616 0.0
C658 C 0.35273 0.57538 0.76679 0.0
C659 C 0.38174 0.59754 0.77763 0.0
C660 C 0.39444 0.5819 0.77321 0.0
C661 C 0.36053 0.59434 0.77458 0.0
H662 H 0.36001 0.54561 0.75662 0.0
H663 H 0.41072 0.5844 0.77547 0.0
C664 C 0.43491 0.48725 0.73517 0.0
N665 N 0.44166 0.46022 0.70592 0.0
C666 C 0.42267 0.48686 0.71865 0.0
C667 C 0.4506 0.47391 0.7368 0.0
C668 C 0.42632 0.47308 0.70403 0.0
C669 C 0.45375 0.46034 0.72186 0.0
C670 C 0.39252 0.54322 0.72323 0.0
C671 C 0.37601 0.53941 0.71024 0.0
C672 C 0.40321 0.56206 0.72434 0.0
C673 C 0.37052 0.5545 0.69846 0.0
C674 C 0.39724 0.57674 0.71231 0.0
N675 N 0.38116 0.57269 0.69972 0.0
C676 C 0.36439 0.48639 0.73968 0.0
C677 C 0.39028 0.46384 0.74636 0.0
C678 C 0.35006 0.47019 0.73606 0.0
N679 N 0.38403 0.48294 0.74475 0.0
C680 C 0.37653 0.44719 0.74269 0.0
C681 C 0.35605 0.45021 0.73753 0.0
H682 H 0.3598 0.50178 0.73879 0.0
H683 H 0.40592 0.46151 0.75071 0.0
C684 C 0.46513 0.53121 0.72131 0.0
N685 N 0.4446 0.53169 0.71847 0.0
C686 C 0.47762 0.53238 0.70642 0.0
C687 C 0.44762 0.53425 0.68585 0.0
C688 C 0.43574 0.53295 0.7011 0.0
C689 C 0.4689 0.53386 0.68833 0.0
H690 H 0.47178 0.52931 0.73509 0.0
H691 H 0.41941 0.53241 0.69888 0.0
O692 O 0.4006 0.51855 0.77646 0.0
O693 O 0.43322 0.54723 0.76141 0.0
O694 O 0.4319 0.50076 0.74966 0.0
O695 O 0.39781 0.52864 0.73501 0.0
H696 H 0.36124 0.52118 0.78089 0.0
H697 H 0.41199 0.48322 0.7876 0.0
H698 H 0.33905 0.49421 0.79279 0.0
H699 H 0.38894 0.45699 0.79956 0.0
H700 H 0.49634 0.57042 0.78428 0.0
H701 H 0.42401 0.55743 0.79568 0.0
H702 H 0.47247 0.55602 0.7585 0.0
H703 H 0.44869 0.57204 0.82077 0.0
H704 H 0.44401 0.51065 0.83863 0.0
H705 H 0.4953 0.50412 0.80462 0.0
H706 H 0.33656 0.57234 0.76376 0.0
H707 H 0.38847 0.61184 0.78365 0.0
H708 H 0.41048 0.49707 0.71708 0.0
H709 H 0.46025 0.47408 0.74948 0.0
H710 H 0.41697 0.47263 0.69117 0.0
H711 H 0.46584 0.44993 0.72293 0.0
H712 H 0.36753 0.52494 0.70929 0.0
H713 H 0.41598 0.56533 0.73433 0.0
H714 H 0.35779 0.55175 0.68831 0.0
H715 H 0.40538 0.59137 0.71299 0.0
H716 H 0.33441 0.47334 0.73248 0.0
H717 H 0.38197 0.43212 0.74378 0.0
H718 H 0.49389 0.53154 0.709 0.0
H719 H 0.44016 0.53546 0.67223 0.0
Li720 Li 0.7821 0.39295 0.50622 0.0
Li721 Li 0.77003 0.366 0.52619 0.0
Li722 Li 0.76131 0.36496 0.493 0.0
Li723 Li 0.74604 0.39081 0.51358 0.0
C724 C 0.79706 0.3485 0.49656 0.0
N725 N 0.81249 0.31624 0.47701 0.0
C726 C 0.79819 0.32973 0.50435 0.0
C727 C 0.80405 0.35093 0.47892 0.0
C728 C 0.80599 0.3136 0.49423 0.0
C729 C 0.8117 0.33441 0.46922 0.0
C730 C 0.77925 0.40637 0.54603 0.0
C731 C 0.77697 0.42548 0.57519 0.0
N732 N 0.7976 0.42782 0.57703 0.0
C733 C 0.80043 0.40898 0.54821 0.0
C734 C 0.76741 0.4147 0.55961 0.0
C735 C 0.80942 0.41986 0.56398 0.0
C736 C 0.80124 0.43216 0.50602 0.0
N737 N 0.80395 0.41207 0.50285 0.0
C738 C 0.83779 0.41911 0.49415 0.0
C739 C 0.82182 0.40535 0.4972 0.0
C740 C 0.83535 0.44001 0.49697 0.0
C741 C 0.81678 0.44647 0.50308 0.0
H742 H 0.78689 0.43705 0.51065 0.0
H743 H 0.82369 0.38929 0.49509 0.0
C744 C 0.76648 0.33154 0.54753 0.0
N745 N 0.7762 0.35008 0.54703 0.0
C746 C 0.77043 0.31948 0.56244 0.0
C747 C 0.79463 0.34557 0.57591 0.0
C748 C 0.79021 0.35711 0.56075 0.0
C749 C 0.78466 0.32647 0.57693 0.0
H750 H 0.75578 0.32599 0.53625 0.0
H751 H 0.79808 0.37162 0.55996 0.0
C752 C 0.76271 0.40961 0.4785 0.0
N753 N 0.7745 0.44183 0.45826 0.0
C754 C 0.75338 0.42802 0.48057 0.0
C755 C 0.77782 0.4075 0.46589 0.0
C756 C 0.7596 0.44415 0.47026 0.0
C757 C 0.78365 0.42399 0.45587 0.0
C758 C 0.72845 0.35518 0.5256 0.0
C759 C 0.71331 0.34002 0.52065 0.0
C760 C 0.72923 0.36515 0.54323 0.0
C761 C 0.69911 0.3351 0.53344 0.0
C762 C 0.71476 0.35979 0.55562 0.0
N763 N 0.70012 0.345 0.55051 0.0
C764 C 0.75605 0.32647 0.4733 0.0
C765 C 0.75503 0.35452 0.45443 0.0
C766 C 0.75507 0.31303 0.4576 0.0
N767 N 0.7565 0.3468 0.47144 0.0
C768 C 0.75381 0.34165 0.43837 0.0
C769 C 0.75416 0.3206 0.43983 0.0
H770 H 0.75706 0.32073 0.48701 0.0
H771 H 0.75523 0.37071 0.4533 0.0
C772 C 0.72817 0.4263 0.52546 0.0
N773 N 0.72358 0.40676 0.51926 0.0
C774 C 0.71282 0.43895 0.53038 0.0
C775 C 0.68818 0.41109 0.52266 0.0
C776 C 0.70402 0.39905 0.51761 0.0
C777 C 0.69244 0.4314 0.52921 0.0
H778 H 0.74383 0.43209 0.52649 0.0
H779 H 0.70071 0.3835 0.51253 0.0
O780 O 0.78913 0.36438 0.50614 0.0
O781 O 0.77009 0.39612 0.53051 0.0
O782 O 0.75709 0.39375 0.48874 0.0
O783 O 0.74243 0.36014 0.51317 0.0
H784 H 0.793 0.32759 0.51801 0.0
H785 H 0.80335 0.36532 0.47267 0.0
H786 H 0.80684 0.29896 0.50006 0.0
H787 H 0.81696 0.33603 0.45549 0.0
H788 H 0.76799 0.43199 0.5858 0.0
H789 H 0.80987 0.4024 0.53801 0.0
H790 H 0.75099 0.41285 0.55817 0.0
H791 H 0.8258 0.42193 0.56587 0.0
H792 H 0.85196 0.41342 0.48979 0.0
H793 H 0.81414 0.4624 0.50528 0.0
H794 H 0.76265 0.3047 0.56245 0.0
H795 H 0.8056 0.35168 0.58681 0.0
H796 H 0.74146 0.42987 0.49001 0.0
H797 H 0.78519 0.39338 0.46407 0.0
H798 H 0.75257 0.45851 0.47181 0.0
H799 H 0.79547 0.42261 0.44623 0.0
H800 H 0.71254 0.33215 0.50706 0.0
H801 H 0.74087 0.37684 0.54732 0.0
H802 H 0.68729 0.3234 0.5298 0.0
H803 H 0.71517 0.36738 0.5693 0.0
H804 H 0.7551 0.2969 0.45933 0.0
H805 H 0.75323 0.34814 0.42496 0.0
H806 H 0.71694 0.45456 0.53487 0.0
H807 H 0.67282 0.40442 0.52169 0.0
Li808 Li 0.64849 0.98425 0.76049 0.0
Li809 Li 0.62446 0.00614 0.77451 0.0
Li810 Li 0.62143 0.9995 0.74035 0.0
Li811 Li 0.64891 0.02087 0.75573 0.0
C812 C 0.61166 0.96131 0.75183 0.0
N813 N 0.59797 0.92443 0.73458 0.0
C814 C 0.59459 0.95093 0.75786 0.0
C815 C 0.62173 0.95298 0.73698 0.0
C816 C 0.58792 0.93228 0.74897 0.0
C817 C 0.61458 0.93431 0.72845 0.0
C818 C 0.65605 0.00949 0.7977 0.0
C819 C 0.659 0.03079 0.826 0.0
N820 N 0.65741 0.01404 0.83595 0.0
C821 C 0.6546 0.99247 0.80818 0.0
C822 C 0.65839 0.02881 0.80664 0.0
C823 C 0.65526 0.99509 0.82752 0.0
C824 C 0.68513 0.96428 0.76284 0.0
N825 N 0.66486 0.96172 0.76493 0.0
C826 C 0.66927 0.92858 0.77564 0.0
C827 C 0.65681 0.94437 0.77137 0.0
C828 C 0.69028 0.93077 0.77355 0.0
C829 C 0.69815 0.94892 0.76698 0.0
H830 H 0.69125 0.97846 0.75833 0.0
H831 H 0.64078 0.94292 0.77362 0.0
C832 C 0.60461 0.0276 0.80313 0.0
N833 N 0.60906 0.00903 0.79597 0.0
C834 C 0.59326 0.0294 0.81875 0.0
C835 C 0.59119 0.99292 0.81934 0.0
C836 C 0.60267 0.99184 0.80375 0.0
C837 C 0.5863 0.01191 0.82702 0.0
H838 H 0.60975 0.04103 0.79671 0.0
H839 H 0.60656 0.97727 0.79786 0.0
C840 C 0.66095 0.00677 0.72298 0.0
N841 N 0.68162 0.02555 0.69606 0.0
C842 C 0.65082 0.01927 0.71095 0.0
C843 C 0.68159 1.00382 0.7213 0.0
C844 C 0.66152 0.02861 0.69743 0.0
C845 C 0.69178 0.01346 0.70762 0.0
C846 C 0.61702 0.04534 0.75258 0.0
C847 C 0.60697 0.05137 0.73638 0.0
C848 C 0.62493 0.06 0.76614 0.0
C849 C 0.60498 0.07199 0.73405 0.0
C850 C 0.62265 0.08046 0.76328 0.0
N851 N 0.61279 0.08599 0.74743 0.0
C852 C 0.58333 1.00039 0.72073 0.0
C853 C 0.609 0.98697 0.70287 0.0
C854 C 0.56948 0.99879 0.70524 0.0
N855 N 0.60275 0.9949 0.71918 0.0
C856 C 0.5957 0.9852 0.687 0.0
C857 C 0.57569 0.99142 0.68797 0.0
H858 H 0.57874 0.00645 0.73396 0.0
H859 H 0.62447 0.98249 0.70207 0.0
C860 C 0.68574 0.04439 0.7625 0.0
N861 N 0.66748 0.04361 0.75259 0.0
C862 C 0.70026 0.06004 0.7604 0.0
C863 C 0.67688 0.07394 0.73807 0.0
C864 C 0.66303 0.05783 0.74031 0.0
C865 C 0.69577 0.07513 0.74816 0.0
H866 H 0.68909 0.03272 0.77193 0.0
H867 H 0.64881 0.05664 0.73204 0.0
O868 O 0.6182 0.97969 0.7603 0.0
O869 O 0.65477 0.00726 0.77875 0.0
O870 O 0.65077 0.99777 0.73652 0.0
O871 O 0.61903 0.0252 0.75509 0.0
H872 H 0.58656 0.95723 0.76927 0.0
H873 H 0.63495 0.96078 0.73208 0.0
H874 H 0.57474 0.92407 0.75351 0.0
H875 H 0.62223 0.92768 0.71696 0.0
H876 H 0.6607 0.04565 0.83312 0.0
H877 H 0.65268 0.97742 0.80144 0.0
H878 H 0.65963 0.04212 0.7987 0.0
H879 H 0.654 0.98207 0.83582 0.0
H880 H 0.66259 0.91505 0.78103 0.0
H881 H 0.71422 0.95127 0.76506 0.0
H882 H 0.58964 0.04433 0.82407 0.0
H883 H 0.58635 0.97906 0.82541 0.0
H884 H 0.63497 0.02212 0.7123 0.0
H885 H 0.68971 0.99424 0.73045 0.0
H886 H 0.65389 0.03842 0.68811 0.0
H887 H 0.70777 0.01134 0.70619 0.0
H888 H 0.60089 0.04029 0.72565 0.0
H889 H 0.63319 0.05566 0.77854 0.0
H890 H 0.59727 0.07687 0.72157 0.0
H891 H 0.62882 0.09196 0.77361 0.0
H892 H 0.55412 1.00338 0.70677 0.0
H893 H 0.60129 0.97961 0.67401 0.0
H894 H 0.71474 0.06048 0.76837 0.0
H895 H 0.67305 0.08513 0.72827 0.0
Li896 Li 0.04607 0.257 0.86682 0.0
Li897 Li 0.02576 0.27221 0.8908 0.0
Li898 Li 0.03322 0.23635 0.89024 0.0
Li899 Li 0.00939 0.24901 0.86685 0.0
C900 C 0.07203 0.26796 0.89472 0.0
N901 N 0.11129 0.28436 0.89421 0.0
C902 C 0.07625 0.28862 0.89917 0.0
C903 C 0.08778 0.25563 0.89007 0.0
C904 C 0.09621 0.29661 0.89884 0.0
C905 C 0.10752 0.26422 0.88985 0.0
C906 C 0.01277 0.28268 0.84931 0.0
C907 C 0.98243 0.29685 0.83635 0.0
N908 N 0.98981 0.29514 0.81921 0.0
C909 C 0.02008 0.28112 0.83158 0.0
C910 C 0.99383 0.29069 0.85174 0.0
C911 C 0.00824 0.2875 0.81654 0.0
C912 C 0.07554 0.24779 0.84057 0.0
N913 N 0.06761 0.26273 0.85112 0.0
C914 C 0.08914 0.2878 0.83855 0.0
C915 C 0.07408 0.28243 0.85034 0.0
C916 C 0.09754 0.27277 0.8273 0.0
C917 C 0.09065 0.25249 0.82854 0.0
H918 H 0.06989 0.23228 0.84125 0.0
H919 H 0.06735 0.29401 0.85876 0.0
C920 C 0.02737 0.29474 0.92519 0.0
N921 N 0.02285 0.29575 0.90669 0.0
C922 C 0.02518 0.31149 0.93738 0.0
C923 C 0.01441 0.3303 0.91117 0.0
C924 C 0.01662 0.31309 0.89951 0.0
C925 C 0.01864 0.32965 0.93043 0.0
H926 H 0.03262 0.28084 0.93049 0.0
H927 H 0.01354 0.31362 0.88471 0.0
C928 C 0.03208 0.20978 0.86253 0.0
N929 N 0.03295 0.16824 0.86394 0.0
C930 C 0.01398 0.19777 0.86055 0.0
C931 C 0.05063 0.20068 0.86516 0.0
C932 C 0.01475 0.17678 0.86129 0.0
C933 C 0.05075 0.17966 0.86586 0.0
C934 C 0.99629 0.25529 0.90832 0.0
C935 C 1.00112 0.24899 0.92611 0.0
C936 C 0.98127 0.26922 0.90575 0.0
C937 C 0.99085 0.25679 0.94104 0.0
C938 C 0.97139 0.2767 0.92104 0.0
N939 N 0.97634 0.27038 0.93822 0.0
C940 C 0.05703 0.21186 0.91323 0.0
C941 C 0.02204 0.20165 0.90909 0.0
C942 C 0.06051 0.19623 0.92501 0.0
N943 N 0.03803 0.21428 0.90559 0.0
C944 C 0.02478 0.18597 0.92098 0.0
C945 C 0.04422 0.18316 0.92916 0.0
H946 H 0.06943 0.22221 0.91039 0.0
H947 H 0.00707 0.20398 0.90285 0.0
C948 C 0.98768 0.23947 0.83252 0.0
N949 N 0.98546 0.24279 0.85099 0.0
C950 C 0.97063 0.23591 0.82014 0.0
C951 C 0.94933 0.23828 0.84611 0.0
C952 C 0.9668 0.24201 0.85798 0.0
C953 C 0.95112 0.23539 0.82689 0.0
H954 H 1.00274 0.2398 0.8274 0.0
H955 H 0.96547 0.24438 0.87274 0.0
O956 O 0.05253 0.25991 0.89463 0.0
O957 O 0.02393 0.27612 0.86416 0.0
O958 O 0.03161 0.23038 0.86238 0.0
O959 O 0.0064 0.24809 0.89356 0.0
H960 H 0.06426 0.29842 0.9027 0.0
H961 H 0.08474 0.23968 0.8863 0.0
H962 H 0.09969 0.31258 0.9022 0.0
H963 H 0.11982 0.25489 0.88613 0.0
H964 H 0.96769 0.30294 0.83801 0.0
H965 H 0.0346 0.27482 0.82938 0.0
H966 H 0.98788 0.29189 0.86534 0.0
H967 H 0.01366 0.28629 0.80273 0.0
H968 H 0.09415 0.30359 0.83826 0.0
H969 H 0.09649 0.24044 0.81996 0.0
H970 H 0.0284 0.31013 0.9521 0.0
H971 H 0.00976 0.34403 0.9051 0.0
H972 H 0.99949 0.20457 0.85865 0.0
H973 H 0.06476 0.20979 0.86695 0.0
H974 H 1.00086 0.1673 0.85986 0.0
H975 H 0.06497 0.17242 0.86803 0.0
H976 H 0.01285 0.23842 0.92843 0.0
H977 H 0.97747 0.27442 0.89213 0.0
H978 H 0.9945 0.25211 0.95489 0.0
H979 H 0.95983 0.28758 0.91926 0.0
H980 H 0.07569 0.19472 0.9312 0.0
H981 H 0.01186 0.17613 0.92371 0.0
H982 H 0.9727 0.23341 0.80546 0.0
H983 H 0.93456 0.23804 0.85187 0.0
Li984 Li 0.54581 0.75573 0.36744 0.0
Li985 Li 0.52528 0.77138 0.39347 0.0
Li986 Li 0.53244 0.73519 0.39147 0.0
Li987 Li 0.50948 0.74794 0.36889 0.0
C988 C 0.56668 0.75131 0.40659 0.0
N989 N 0.59412 0.73394 0.43045 0.0
C990 C 0.56633 0.75528 0.42575 0.0
C991 C 0.58104 0.73862 0.39954 0.0
C992 C 0.58032 0.74632 0.43759 0.0
C993 C 0.59477 0.72996 0.41184 0.0
C994 C 0.51015 0.78313 0.35376 0.0
C995 C 0.47873 0.79903 0.34668 0.0
N996 N 0.48255 0.79807 0.3284 0.0
C997 C 0.51387 0.78247 0.33492 0.0
C998 C 0.49254 0.79163 0.35973 0.0
C999 C 0.4997 0.79004 0.32231 0.0
C1000 C 0.56443 0.75445 0.33342 0.0
N1001 N 0.56724 0.76072 0.35166 0.0
C1002 C 0.6001 0.77556 0.34685 0.0
C1003 C 0.58467 0.77096 0.35857 0.0
C1004 C 0.59748 0.76978 0.32778 0.0
C1005 C 0.57935 0.75893 0.32116 0.0
H1006 H 0.55039 0.74631 0.32833 0.0
H1007 H 0.58651 0.77571 0.37317 0.0
C1008 C 0.51927 0.79188 0.42768 0.0
N1009 N 0.52241 0.79451 0.40957 0.0
C1010 C 0.51668 0.80856 0.43984 0.0
C1011 C 0.52065 0.83034 0.41446 0.0
C1012 C 0.52318 0.81322 0.40279 0.0
C1013 C 0.51735 0.82814 0.43328 0.0
H1014 H 0.51857 0.77676 0.43261 0.0
H1015 H 0.52573 0.81482 0.38831 0.0
C1016 C 0.5243 0.70951 0.35943 0.0
N1017 N 0.51024 0.67008 0.34996 0.0
C1018 C 0.50662 0.70172 0.36666 0.0
C1019 C 0.53481 0.69728 0.34731 0.0
C1020 C 0.49975 0.68175 0.36173 0.0
C1021 C 0.52747 0.67737 0.34271 0.0
C1022 C 0.48857 0.74642 0.40368 0.0
C1023 C 0.48084 0.72777 0.40905 0.0
C1024 C 0.47757 0.76371 0.40663 0.0
C1025 C 0.46208 0.72667 0.41697 0.0
C1026 C 0.45887 0.76198 0.41461 0.0
N1027 N 0.45156 0.74365 0.41955 0.0
C1028 C 0.53135 0.7154 0.42463 0.0
C1029 C 0.54755 0.69699 0.4012 0.0
C1030 C 0.53456 0.70021 0.43693 0.0
N1031 N 0.53772 0.71348 0.40713 0.0
C1032 C 0.55103 0.68138 0.41302 0.0
C1033 C 0.54444 0.68284 0.43116 0.0
H1034 H 0.52374 0.72878 0.42904 0.0
H1035 H 0.55281 0.696 0.38733 0.0
C1036 C 0.48879 0.7375 0.33443 0.0
N1037 N 0.48552 0.74208 0.35255 0.0
C1038 C 0.47241 0.73363 0.32131 0.0
C1039 C 0.44953 0.73866 0.34578 0.0
C1040 C 0.46634 0.74273 0.35837 0.0
C1041 C 0.45248 0.73414 0.32698 0.0
H1042 H 0.50419 0.73705 0.33015 0.0
H1043 H 0.46393 0.74653 0.37269 0.0
O1044 O 0.55268 0.75934 0.3948 0.0
O1045 O 0.52354 0.77523 0.36625 0.0
O1046 O 0.5314 0.72899 0.3641 0.0
O1047 O 0.50706 0.74783 0.39611 0.0
H1048 H 0.55524 0.765 0.43141 0.0
H1049 H 0.58136 0.73527 0.38473 0.0
H1050 H 0.58016 0.74915 0.45246 0.0
H1051 H 0.60589 0.72 0.40659 0.0
H1052 H 0.46496 0.80551 0.3511 0.0
H1053 H 0.52744 0.776 0.33007 0.0
H1054 H 0.48949 0.79235 0.37425 0.0
H1055 H 0.5023 0.78949 0.30767 0.0
H1056 H 0.61391 0.78358 0.35272 0.0
H1057 H 0.57642 0.75439 0.30659 0.0
H1058 H 0.51389 0.80612 0.45416 0.0
H1059 H 0.52154 0.84515 0.40887 0.0
H1060 H 0.49823 0.71104 0.37589 0.0
H1061 H 0.54853 0.70313 0.34158 0.0
H1062 H 0.48607 0.67553 0.36723 0.0
H1063 H 0.53547 0.66771 0.33338 0.0
H1064 H 0.48926 0.71426 0.40719 0.0
H1065 H 0.48331 0.77829 0.40272 0.0
H1066 H 0.4559 0.71231 0.42113 0.0
H1067 H 0.45016 0.77522 0.41687 0.0
H1068 H 0.52907 0.70192 0.4507 0.0
H1069 H 0.559 0.66841 0.40809 0.0
H1070 H 0.47531 0.73005 0.30694 0.0
H1071 H 0.43437 0.7394 0.35065 0.0
Li1072 Li 0.02126 0.78636 0.61834 0.0
Li1073 Li 1.00082 0.77154 0.64199 0.0
Li1074 Li 0.03687 0.76491 0.6403 0.0
Li1075 Li 0.01131 0.75017 0.61656 0.0
C1076 C 0.02695 0.81153 0.64758 0.0
N1077 N 0.03073 0.85333 0.64943 0.0
C1078 C 0.01047 0.82288 0.65214 0.0
C1079 C 0.04538 0.82142 0.64404 0.0
C1080 C 0.01268 0.84401 0.65301 0.0
C1081 C 0.04697 0.84257 0.64501 0.0
C1082 C 0.98016 0.76735 0.60067 0.0
C1083 C 0.95202 0.74572 0.5871 0.0
N1084 N 0.95454 0.75366 0.57041 0.0
C1085 C 0.98242 0.77536 0.58341 0.0
C1086 C 0.96478 0.75249 0.60258 0.0
C1087 C 0.96932 0.76822 0.56828 0.0
C1088 C 0.04175 0.80963 0.59304 0.0
N1089 N 0.02548 0.80913 0.60367 0.0
C1090 C 0.01494 0.84053 0.59252 0.0
C1091 C 0.01206 0.82408 0.60353 0.0
C1092 C 0.03165 0.84146 0.58139 0.0
C1093 C 0.04516 0.82572 0.58179 0.0
H1094 H 0.05202 0.79743 0.59317 0.0
H1095 H 0.99903 0.82313 0.61186 0.0
C1096 C 0.98669 0.77857 0.67746 0.0
N1097 N 0.98039 0.77586 0.6592 0.0
C1098 C 0.97256 0.78057 0.69094 0.0
C1099 C 0.94568 0.77784 0.66654 0.0
C1100 C 0.96036 0.77566 0.65352 0.0
C1101 C 0.95167 0.78015 0.6856 0.0
H1102 H 1.00275 0.7788 0.68156 0.0
H1103 H 0.95576 0.77373 0.6389 0.0
C1104 C 0.05715 0.75653 0.61122 0.0
N1105 N 0.09564 0.74214 0.60951 0.0
C1106 C 0.05957 0.73616 0.60607 0.0
C1107 C 0.07431 0.7696 0.6154 0.0
C1108 C 0.07915 0.72918 0.6053 0.0
C1109 C 0.09364 0.76202 0.6145 0.0
C1110 C 0.00515 0.73678 0.65753 0.0
C1111 C 0.01563 0.73745 0.67497 0.0
C1112 C 0.98532 0.72818 0.65523 0.0
C1113 C 0.00601 0.72963 0.68988 0.0
C1114 C 0.97621 0.72056 0.67049 0.0
N1115 N 0.98666 0.72144 0.68736 0.0
C1116 C 0.07096 0.77478 0.66571 0.0
C1117 C 0.06719 0.74037 0.65448 0.0
C1118 C 0.08821 0.77083 0.67684 0.0
N1119 N 0.0609 0.75962 0.65483 0.0
C1120 C 0.08443 0.73577 0.66529 0.0
C1121 C 0.09512 0.75109 0.67675 0.0
H1122 H 0.06548 0.78989 0.66588 0.0
H1123 H 0.05866 0.72855 0.64594 0.0
C1124 C 0.00584 0.72946 0.58131 0.0
N1125 N 1.0045 0.72725 0.59977 0.0
C1126 C 1.00153 0.71295 0.56856 0.0
C1127 C 0.99514 0.69202 0.59409 0.0
C1128 C 0.99936 0.70901 0.60635 0.0
C1129 C 0.9962 0.6939 0.57492 0.0
H1130 H 0.01049 0.74404 0.57652 0.0
H1131 H 0.99878 0.70758 0.62111 0.0
O1132 O 0.02497 0.79085 0.64631 0.0
O1133 O 0.99305 0.7739 0.61558 0.0
O1134 O 0.03811 0.76357 0.61243 0.0
O1135 O 0.01414 0.74475 0.64284 0.0
H1136 H 0.99606 0.81548 0.65482 0.0
H1137 H 0.05823 0.81285 0.64034 0.0
H1138 H 1.00004 0.85299 0.65646 0.0
H1139 H 0.0611 0.85043 0.64218 0.0
H1140 H 0.94015 0.73412 0.58834 0.0
H1141 H 0.99429 0.78681 0.58166 0.0
H1142 H 0.96289 0.74606 0.61581 0.0
H1143 H 0.97096 0.77421 0.55482 0.0
H1144 H 1.00398 0.85218 0.59245 0.0
H1145 H 0.05836 0.82589 0.5736 0.0
H1146 H 0.97799 0.782 0.70541 0.0
H1147 H 0.92982 0.77781 0.66169 0.0
H1148 H 0.04648 0.7258 0.60289 0.0
H1149 H 0.07272 0.78536 0.61959 0.0
H1150 H 0.08125 0.71344 0.60141 0.0
H1151 H 0.10704 0.77193 0.61784 0.0
H1152 H 0.03094 0.74416 0.67704 0.0
H1153 H 0.97695 0.72763 0.64185 0.0
H1154 H 0.0139 0.73014 0.70348 0.0
H1155 H 0.96082 0.714 0.66894 0.0
H1156 H 0.09607 0.7831 0.68538 0.0
H1157 H 0.08905 0.7203 0.66502 0.0
H1158 H 1.00284 0.71496 0.55391 0.0
H1159 H 0.99102 0.6776 0.59954 0.0
Li1160 Li 0.52004 0.28562 0.12 0.0
Li1161 Li 0.4982 0.2711 0.14165 0.0
Li1162 Li 0.53373 0.26352 0.14244 0.0
Li1163 Li 0.50915 0.24805 0.11693 0.0
C1164 C 0.52577 0.31046 0.14964 0.0
N1165 N 0.53302 0.35199 0.15322 0.0
C1166 C 0.51023 0.32301 0.1544 0.0
C1167 C 0.54502 0.31904 0.14677 0.0
C1168 C 0.5142 0.34397 0.15615 0.0
C1169 C 0.54836 0.34007 0.14861 0.0
C1170 C 0.47295 0.27678 0.11074 0.0
C1171 C 0.43895 0.26765 0.09783 0.0
N1172 N 0.43308 0.2863 0.10347 0.0
C1173 C 0.46661 0.29587 0.11635 0.0
C1174 C 0.45906 0.26254 0.10137 0.0
C1175 C 0.44637 0.30038 0.11258 0.0
C1176 C 0.54041 0.30481 0.09232 0.0
N1177 N 0.52617 0.30778 0.10486 0.0
C1178 C 0.52115 0.341 0.09459 0.0
C1179 C 0.51639 0.32537 0.10605 0.0
C1180 C 0.53593 0.33843 0.08158 0.0
C1181 C 0.54553 0.31995 0.08051 0.0
H1182 H 0.54768 0.29056 0.09131 0.0
H1183 H 0.50493 0.32738 0.1159 0.0
C1184 C 0.4825 0.28226 0.1756 0.0
N1185 N 0.47654 0.27494 0.15804 0.0
C1186 C 0.46839 0.28388 0.18915 0.0
C1187 C 0.44208 0.2707 0.16632 0.0
C1188 C 0.45677 0.26899 0.15328 0.0
C1189 C 0.44789 0.27805 0.18456 0.0
H1190 H 0.49838 0.28639 0.17919 0.0
H1191 H 0.45243 0.26228 0.13958 0.0
C1192 C 0.55575 0.25503 0.1143 0.0
N1193 N 0.59447 0.24097 0.11408 0.0
C1194 C 0.55848 0.23454 0.10997 0.0
C1195 C 0.5727 0.26839 0.11837 0.0
C1196 C 0.57819 0.22773 0.10995 0.0
C1197 C 0.59215 0.26098 0.11824 0.0
C1198 C 0.49931 0.23589 0.15699 0.0
C1199 C 0.50656 0.23834 0.17559 0.0
C1200 C 0.48047 0.22576 0.15225 0.0
C1201 C 0.49469 0.23074 0.18921 0.0
C1202 C 0.46906 0.21839 0.16628 0.0
N1203 N 0.47634 0.22103 0.18432 0.0
C1204 C 0.56738 0.27209 0.16884 0.0
C1205 C 0.56192 0.23772 0.1579 0.0
C1206 C 0.58415 0.26737 0.18023 0.0
N1207 N 0.55675 0.25733 0.15792 0.0
C1208 C 0.57863 0.23233 0.16899 0.0
C1209 C 0.59001 0.24724 0.18042 0.0
H1210 H 0.56272 0.2875 0.16885 0.0
H1211 H 0.55305 0.22627 0.14921 0.0
C1212 C 0.50184 0.22804 0.08165 0.0
N1213 N 0.50295 0.22528 0.10014 0.0
C1214 C 0.49827 0.21146 0.06883 0.0
C1215 C 0.49688 0.18955 0.09439 0.0
C1216 C 0.50062 0.20655 0.1067 0.0
C1217 C 0.49577 0.19188 0.07517 0.0
H1218 H 0.5039 0.24315 0.07688 0.0
H1219 H 0.50198 0.20477 0.12149 0.0
O1220 O 0.52219 0.28991 0.14782 0.0
O1221 O 0.49267 0.27202 0.11425 0.0
O1222 O 0.53658 0.2619 0.11484 0.0
O1223 O 0.51041 0.24378 0.14352 0.0
H1224 H 0.49521 0.31668 0.15654 0.0
H1225 H 0.55718 0.30958 0.14298 0.0
H1226 H 0.5023 0.35386 0.15975 0.0
H1227 H 0.56315 0.34691 0.14633 0.0
H1228 H 0.42801 0.25678 0.09063 0.0
H1229 H 0.47711 0.30694 0.12382 0.0
H1230 H 0.46375 0.24769 0.09694 0.0
H1231 H 0.44121 0.31505 0.11694 0.0
H1232 H 0.51346 0.35502 0.09608 0.0
H1233 H 0.55668 0.31702 0.07045 0.0
H1234 H 0.47346 0.28959 0.20309 0.0
H1235 H 0.42646 0.26571 0.16236 0.0
H1236 H 0.54553 0.22399 0.10683 0.0
H1237 H 0.57083 0.28429 0.12175 0.0
H1238 H 0.58053 0.2119 0.10672 0.0
H1239 H 0.6054 0.27112 0.12148 0.0
H1240 H 0.52108 0.24625 0.17947 0.0
H1241 H 0.47456 0.22395 0.13791 0.0
H1242 H 0.50004 0.23264 0.20368 0.0
H1243 H 0.45437 0.21067 0.16285 0.0
H1244 H 0.59221 0.27931 0.18904 0.0
H1245 H 0.58268 0.21667 0.1685 0.0
H1246 H 0.49736 0.21392 0.05414 0.0
H1247 H 0.49534 0.17471 0.09984 0.0
H1248 H 0.28412 0.74602 0.84533 0.0
H1249 H 0.21842 0.744 0.8417 0.0
H1250 H 0.28457 0.76725 0.87417 0.0
H1251 H 0.21896 0.76552 0.87019 0.0
H1252 H 0.22955 0.82389 0.90805 0.0
H1253 H 0.22956 0.80145 0.88003 0.0
H1254 H 0.27444 0.76591 0.90713 0.0
H1255 H 0.2746 0.78854 0.93512 0.0
C1256 C 0.26978 0.74992 0.85074 0.0
C1257 C 0.25124 0.74343 0.84106 0.0
C1258 C 0.27005 0.76212 0.86724 0.0
C1259 C 0.2518 0.7682 0.87435 0.0
C1260 C 0.23328 0.76141 0.86488 0.0
C1261 C 0.233 0.7491 0.84851 0.0
C1262 C 0.23946 0.81133 0.90799 0.0
C1263 C 0.25203 0.80795 0.92379 0.0
C1264 C 0.23936 0.79839 0.89201 0.0
C1265 C 0.25197 0.78188 0.8914 0.0
C1266 C 0.26465 0.77857 0.90715 0.0
C1267 C 0.26459 0.7914 0.92322 0.0
H1268 H 0.01287 0.55925 0.41522 0.0
H1269 H 0.00757 0.49416 0.41666 0.0
H1270 H 0.03313 0.55604 0.38821 0.0
H1271 H 0.02834 0.49087 0.38998 0.0
H1272 H 0.04858 0.49098 0.33123 0.0
H1273 H 0.02734 0.49512 0.35736 0.0
H1274 H 0.06595 0.54663 0.37929 0.0
H1275 H 0.08657 0.54316 0.35262 0.0
C1276 C 0.01615 0.54425 0.40983 0.0
C1277 C 0.00868 0.52692 0.41803 0.0
C1278 C 0.02786 0.5424 0.39439 0.0
C1279 C 0.0324 0.52319 0.38688 0.0
C1280 C 0.02489 0.50589 0.39518 0.0
C1281 C 0.01312 0.50775 0.41054 0.0
C1282 C 0.05239 0.50338 0.34146 0.0
C1283 C 0.06932 0.51673 0.33977 0.0
C1284 C 0.04034 0.50559 0.35661 0.0
C1285 C 0.04496 0.52116 0.37052 0.0
C1286 C 0.06181 0.5346 0.36877 0.0
C1287 C 0.07381 0.53244 0.35358 0.0
H1288 H 0.83136 0.78654 0.84686 0.0
H1289 H 0.76651 0.7765 0.83591 0.0
H1290 H 0.82983 0.76703 0.87436 0.0
H1291 H 0.76494 0.75651 0.86311 0.0
H1292 H 0.76551 0.73737 0.92234 0.0
H1293 H 0.76749 0.75836 0.89595 0.0
H1294 H 0.82498 0.7337 0.88384 0.0
H1295 H 0.82363 0.71372 0.91092 0.0
C1296 C 0.81679 0.77999 0.85026 0.0
C1297 C 0.79906 0.78305 0.83921 0.0
C1298 C 0.8159 0.76874 0.866 0.0
C1299 C 0.79726 0.76009 0.87102 0.0
C1300 C 0.77952 0.76321 0.85993 0.0
C1301 C 0.7804 0.77462 0.84428 0.0
C1302 C 0.77875 0.73665 0.91426 0.0
C1303 C 0.79441 0.72379 0.91887 0.0
C1304 C 0.77974 0.7485 0.8989 0.0
C1305 C 0.79636 0.74774 0.88763 0.0
C1306 C 0.81205 0.73493 0.89228 0.0
C1307 C 0.81113 0.7232 0.90771 0.0
H1308 H 0.04464 0.02459 0.42569 0.0
H1309 H 0.03537 0.95962 0.41703 0.0
H1310 H 0.0244 0.02888 0.39713 0.0
H1311 H 0.01409 0.96397 0.38886 0.0
H1312 H 0.99459 0.97873 0.32937 0.0
H1313 H 0.01574 0.97405 0.35752 0.0
H1314 H 0.99022 0.02591 0.38461 0.0
H1315 H 0.97001 0.03125 0.35626 0.0
C1316 C 0.03829 0.01119 0.41768 0.0
C1317 C 0.04177 0.99174 0.42365 0.0
C1318 C 0.02642 0.01367 0.40139 0.0
C1319 C 0.01752 0.99678 0.39066 0.0
C1320 C 0.02089 0.97731 0.39665 0.0
C1321 C 0.03288 0.97482 0.41295 0.0
C1322 C 0.99369 0.98929 0.34126 0.0
C1323 C 0.98057 0.00537 0.3405 0.0
C1324 C 0.00562 0.98644 0.3575 0.0
C1325 C 1.0047 0.99958 0.37338 0.0
C1326 C 0.99154 0.01563 0.3726 0.0
C1327 C 0.97971 0.01853 0.35638 0.0
H1328 H 0.2569 0.31108 0.65434 0.0
H1329 H 0.24247 0.25732 0.68309 0.0
H1330 H 0.26235 0.29013 0.62648 0.0
H1331 H 0.24757 0.23639 0.65501 0.0
H1332 H 0.23794 0.20838 0.59488 0.0
H1333 H 0.23208 0.22917 0.62277 0.0
H1334 H 0.28703 0.26535 0.61601 0.0
H1335 H 0.29319 0.24434 0.58832 0.0
C1336 C 0.25501 0.29479 0.65478 0.0
C1337 C 0.24937 0.28591 0.67105 0.0
C1338 C 0.25811 0.28279 0.63878 0.0
C1339 C 0.25548 0.26161 0.63856 0.0
C1340 C 0.24952 0.25269 0.65469 0.0
C1341 C 0.24655 0.2647 0.67077 0.0
C1342 C 0.24893 0.22061 0.59942 0.0
C1343 C 0.26609 0.22461 0.58932 0.0
C1344 C 0.24552 0.23255 0.6154 0.0
C1345 C 0.25909 0.24889 0.62159 0.0
C1346 C 0.27615 0.25302 0.61145 0.0
C1347 C 0.27964 0.241 0.59554 0.0
H1348 H 0.5137 0.54244 0.57809 0.0
H1349 H 0.56764 0.53393 0.61312 0.0
H1350 H 0.49323 0.54133 0.60502 0.0
H1351 H 0.54708 0.53232 0.64 0.0
H1352 H 0.50629 0.5535 0.6863 0.0
H1353 H 0.52714 0.55458 0.65962 0.0
H1354 H 0.48149 0.51682 0.62683 0.0
H1355 H 0.46079 0.51547 0.6535 0.0
C1356 C 0.52119 0.54037 0.59155 0.0
C1357 C 0.54231 0.53829 0.59345 0.0
C1358 C 0.50943 0.53953 0.60696 0.0
C1359 C 0.51851 0.53672 0.62467 0.0
C1360 C 0.53964 0.53469 0.62658 0.0
C1361 C 0.55139 0.5354 0.61115 0.0
C1362 C 0.50078 0.54524 0.67347 0.0
C1363 C 0.48177 0.53448 0.67209 0.0
C1364 C 0.51273 0.54589 0.65816 0.0
C1365 C 0.50595 0.53585 0.64106 0.0
C1366 C 0.48702 0.52501 0.6397 0.0
C1367 C 0.47512 0.52428 0.65501 0.0
H1368 H 0.78934 0.23477 0.65931 0.0
H1369 H 0.83011 0.28415 0.68222 0.0
H1370 H 0.78231 0.2533 0.63157 0.0
H1371 H 0.8229 0.30281 0.65464 0.0
H1372 H 0.82166 0.3212 0.59483 0.0
H1373 H 0.82894 0.30151 0.62166 0.0
H1374 H 0.76518 0.28357 0.62222 0.0
H1375 H 0.75785 0.30336 0.59541 0.0
C1376 C 0.79679 0.24959 0.65843 0.0
C1377 C 0.8103 0.25805 0.67292 0.0
C1378 C 0.79268 0.26025 0.64258 0.0
C1379 C 0.80206 0.27953 0.64087 0.0
C1380 C 0.81563 0.28789 0.65538 0.0
C1381 C 0.81968 0.27727 0.67122 0.0
C1382 C 0.80916 0.31319 0.60075 0.0
C1383 C 0.78915 0.31396 0.593 0.0
C1384 C 0.81334 0.30188 0.61613 0.0
C1385 C 0.79764 0.29102 0.62414 0.0
C1386 C 0.77767 0.29155 0.61625 0.0
C1387 C 0.77347 0.3029 0.60087 0.0
H1388 H 0.52918 0.98454 0.57343 0.0
H1389 H 0.47621 0.99922 0.60279 0.0
H1390 H 0.54912 0.98412 0.60283 0.0
H1391 H 0.49645 0.99924 0.63229 0.0
H1392 H 0.54783 0.01906 0.67827 0.0
H1393 H 0.52609 0.01895 0.64973 0.0
H1394 H 0.55037 0.96281 0.63029 0.0
H1395 H 0.57178 0.96258 0.65897 0.0
C1396 C 0.52172 0.98755 0.58615 0.0
C1397 C 0.50099 0.99171 0.5857 0.0
C1398 C 0.53319 0.98733 0.60301 0.0
C1399 C 0.52431 0.99147 0.61987 0.0
C1400 C 0.50373 0.99609 0.61949 0.0
C1401 C 0.49216 0.99615 0.60259 0.0
C1402 C 0.54829 0.00648 0.66809 0.0
C1403 C 0.56166 0.99086 0.67095 0.0
C1404 C 0.53586 0.00648 0.6517 0.0
C1405 C 0.53663 0.99095 0.63773 0.0
C1406 C 0.5497 0.97516 0.64069 0.0
C1407 C 0.562 0.97506 0.65712 0.0
H1408 H 0.84995 0.18182 0.75522 0.0
H1409 H 0.84634 0.24614 0.74926 0.0
H1410 H 0.87934 0.1884 0.77721 0.0
H1411 H 0.87607 0.25261 0.77099 0.0
H1412 H 0.94317 0.25261 0.79397 0.0
H1413 H 0.91324 0.24646 0.77238 0.0
H1414 H 0.8876 0.20436 0.80911 0.0
H1415 H 0.91768 0.21027 0.83057 0.0
C1416 C 0.85528 0.19738 0.75871 0.0
C1417 C 0.84569 0.21345 0.75048 0.0
C1418 C 0.87217 0.20113 0.77129 0.0
C1419 C 0.88 0.22102 0.77583 0.0
C1420 C 0.87051 0.2371 0.76758 0.0
C1421 C 0.85351 0.23337 0.7551 0.0
C1422 C 0.93118 0.24196 0.79737 0.0
C1423 C 0.93279 0.23187 0.81394 0.0
C1424 C 0.91397 0.23859 0.7851 0.0
C1425 C 0.89808 0.22492 0.78905 0.0
C1426 C 0.89968 0.21485 0.80563 0.0
C1427 C 0.91681 0.21836 0.81798 0.0
H1428 H 0.47301 0.93159 0.49646 0.0
H1429 H 0.53632 0.92976 0.51501 0.0
H1430 H 0.47623 0.90191 0.47536 0.0
H1431 H 0.53969 0.90036 0.4937 0.0
H1432 H 0.53294 0.83543 0.46912 0.0
H1433 H 0.52869 0.86483 0.49007 0.0
H1434 H 0.49231 0.89141 0.44705 0.0
H1435 H 0.49591 0.8616 0.4263 0.0
C1436 C 0.48764 0.92491 0.49594 0.0
C1437 C 0.50445 0.93293 0.50737 0.0
C1438 C 0.48951 0.90797 0.4838 0.0
C1439 C 0.5082 0.89871 0.48288 0.0
C1440 C 0.525 0.90691 0.49426 0.0
C1441 C 0.52312 0.92382 0.50637 0.0
C1442 C 0.52384 0.84743 0.46418 0.0
C1443 C 0.51476 0.84615 0.44602 0.0
C1444 C 0.5216 0.8644 0.47613 0.0
C1445 C 0.51023 0.88052 0.47022 0.0
C1446 C 0.50103 0.87919 0.4521 0.0
C1447 C 0.50329 0.86221 0.44013 0.0
H1448 H 0.18436 0.33843 0.76464 0.0
H1449 H 0.18807 0.27643 0.74374 0.0
H1450 H 0.15893 0.32777 0.78566 0.0
H1451 H 0.16233 0.26573 0.76457 0.0
H1452 H 0.13179 0.25298 0.81905 0.0
H1453 H 0.15737 0.26266 0.79772 0.0
H1454 H 0.12376 0.31479 0.78427 0.0
H1455 H 0.09825 0.30513 0.80547 0.0
C1456 C 0.17965 0.32252 0.76451 0.0
C1457 C 0.18813 0.3083 0.75253 0.0
C1458 C 0.165 0.31641 0.77647 0.0
C1459 C 0.1585 0.2959 0.77674 0.0
C1460 C 0.16713 0.28162 0.76482 0.0
C1461 C 0.18179 0.28776 0.75281 0.0
C1462 C 0.12978 0.26641 0.81141 0.0
C1463 C 0.11303 0.27835 0.81409 0.0
C1464 C 0.14444 0.27195 0.79918 0.0
C1465 C 0.14269 0.28957 0.78937 0.0
C1466 C 0.1258 0.30134 0.79188 0.0
C1467 C 0.11117 0.29581 0.80406 0.0
H1468 H 0.54797 0.60562 0.52515 0.0
H1469 H 0.57607 0.57154 0.48189 0.0
H1470 H 0.54269 0.63297 0.50437 0.0
H1471 H 0.57126 0.59899 0.46124 0.0
H1472 H 0.53982 0.64194 0.42303 0.0
H1473 H 0.54467 0.61484 0.444 0.0
H1474 H 0.56122 0.65919 0.48926 0.0
H1475 H 0.55625 0.68631 0.46827 0.0
C1476 C 0.55309 0.60401 0.51122 0.0
C1477 C 0.56239 0.58643 0.50508 0.0
C1478 C 0.55018 0.61973 0.49934 0.0
C1479 C 0.55651 0.61819 0.4811 0.0
C1480 C 0.5659 0.60058 0.47508 0.0
C1481 C 0.56877 0.5849 0.48693 0.0
C1482 C 0.54468 0.64591 0.43741 0.0
C1483 C 0.54767 0.6663 0.44395 0.0
C1484 C 0.54745 0.63036 0.44946 0.0
C1485 C 0.55336 0.6348 0.46834 0.0
C1486 C 0.55636 0.65521 0.47488 0.0
C1487 C 0.55354 0.67077 0.46283 0.0
H1488 H 0.84254 0.79277 0.74686 0.0
H1489 H 0.8904 0.78467 0.78883 0.0
H1490 H 0.8669 0.78994 0.72284 0.0
H1491 H 0.91482 0.78192 0.76478 0.0
H1492 H 0.95472 0.80339 0.71849 0.0
H1493 H 0.93018 0.80534 0.74225 0.0
H1494 H 0.88896 0.76348 0.70877 0.0
H1495 H 0.91374 0.76091 0.68518 0.0
C1496 C 0.85826 0.79037 0.75095 0.0
C1497 C 0.86464 0.78903 0.76973 0.0
C1498 C 0.87218 0.78865 0.73718 0.0
C1499 C 0.89277 0.78579 0.74194 0.0
C1500 C 0.89909 0.78434 0.76072 0.0
C1501 C 0.88512 0.78581 0.77446 0.0
C1502 C 0.94056 0.79437 0.71623 0.0
C1503 C 0.93633 0.78192 0.69986 0.0
C1504 C 0.92647 0.79555 0.72986 0.0
C1505 C 0.90768 0.78452 0.72739 0.0
C1506 C 0.90325 0.7723 0.71097 0.0
C1507 C 0.91745 0.77092 0.69741 0.0
H1508 H 0.04135 0.92178 0.49012 0.0
H1509 H 0.06962 0.95608 0.53827 0.0
H1510 H 0.03319 0.89375 0.50936 0.0
H1511 H 0.06178 0.92796 0.55749 0.0
H1512 H 0.02708 0.88183 0.58966 0.0
H1513 H 0.03311 0.90999 0.57004 0.0
H1514 H 0.05043 0.86817 0.52645 0.0
H1515 H 0.04374 0.83998 0.54581 0.0
C1516 C 0.04583 0.92333 0.50481 0.0
C1517 C 0.05611 0.94113 0.51274 0.0
C1518 C 0.04125 0.90722 0.51582 0.0
C1519 C 0.04682 0.9086 0.53498 0.0
C1520 C 0.05702 0.92649 0.54285 0.0
C1521 C 0.06162 0.94255 0.53184 0.0
C1522 C 0.03195 0.87862 0.57581 0.0
C1523 C 0.03498 0.85864 0.56934 0.0
C1524 C 0.03561 0.89479 0.56463 0.0
C1525 C 0.04233 0.89136 0.54668 0.0
C1526 C 0.0451 0.87135 0.54013 0.0
C1527 C 0.04149 0.8552 0.55132 0.0
H1528 H 0.19667 0.75173 0.76007 0.0
H1529 H 0.19141 0.69053 0.7356 0.0
H1530 H 0.16916 0.76105 0.73871 0.0
H1531 H 0.16344 0.69966 0.71451 0.0
H1532 H 0.12638 0.72734 0.66801 0.0
H1533 H 0.1554 0.71901 0.68821 0.0
H1534 H 0.13307 0.75554 0.73327 0.0
H1535 H 0.10428 0.76405 0.713 0.0
C1536 C 0.18958 0.74024 0.75015 0.0
C1537 C 0.19611 0.72035 0.74952 0.0
C1538 C 0.17372 0.74556 0.73797 0.0
C1539 C 0.16398 0.7311 0.72493 0.0
C1540 C 0.17074 0.71126 0.7242 0.0
C1541 C 0.18667 0.70598 0.73634 0.0
C1542 C 0.12767 0.73353 0.68225 0.0
C1543 C 0.11305 0.74637 0.6889 0.0
C1544 C 0.14428 0.72874 0.69384 0.0
C1545 C 0.1466 0.73658 0.7124 0.0
C1546 C 0.13199 0.7495 0.71899 0.0
C1547 C 0.11545 0.75437 0.70737 0.0
H1548 H 0.0069 0.5866 0.50176 0.0
H1549 H 0.943 0.59809 0.49668 0.0
H1550 H 0.01302 0.61632 0.52342 0.0
H1551 H 0.94909 0.62768 0.5185 0.0
H1552 H 0.97318 0.69141 0.54204 0.0
H1553 H 0.96715 0.66208 0.51989 0.0
H1554 H 1.0041 0.62668 0.55576 0.0
H1555 H 0.01031 0.65605 0.57778 0.0
C1556 C 0.9942 0.59555 0.5052 0.0
C1557 C 0.97448 0.59004 0.49754 0.0
C1558 C 0.99767 0.61244 0.51771 0.0
C1559 C 0.98152 0.62429 0.52267 0.0
C1560 C 0.96184 0.61891 0.51483 0.0
C1561 C 0.95834 0.60191 0.50247 0.0
C1562 C 0.98007 0.67737 0.54513 0.0
C1563 C 0.99221 0.67601 0.56164 0.0
C1564 C 0.97649 0.66056 0.53254 0.0
C1565 C 0.98518 0.64211 0.53609 0.0
C1566 C 0.99735 0.64076 0.55258 0.0
C1567 C 1.00075 0.6575 0.56526 0.0
H1568 H 0.79807 0.82728 0.21106 0.0
H1569 H 0.74666 0.86405 0.2189 0.0
H1570 H 0.82114 0.85702 0.21828 0.0
H1571 H 0.76979 0.8938 0.2264 0.0
H1572 H 0.81779 0.9447 0.21514 0.0
H1573 H 0.79397 0.91533 0.20959 0.0
H1574 H 0.83243 0.88106 0.24515 0.0
H1575 H 0.85606 0.91049 0.25107 0.0
C1576 C 0.79172 0.84173 0.21435 0.0
C1577 C 0.77056 0.84335 0.21436 0.0
C1578 C 0.80493 0.85872 0.21864 0.0
C1579 C 0.79728 0.87775 0.22289 0.0
C1580 C 0.77612 0.87936 0.22302 0.0
C1581 C 0.7629 0.86232 0.2189 0.0
C1582 C 0.82106 0.93102 0.22201 0.0
C1583 C 0.83894 0.92999 0.2335 0.0
C1584 C 0.8074 0.91417 0.21879 0.0
C1585 C 0.81137 0.89587 0.22688 0.0
C1586 C 0.82912 0.89487 0.2385 0.0
C1587 C 0.84269 0.91174 0.24183 0.0
H1588 H 0.80447 0.20586 0.30325 0.0
H1589 H 0.75377 0.16235 0.29222 0.0
H1590 H 0.82789 0.17985 0.29515 0.0
H1591 H 0.77706 0.13602 0.28497 0.0
H1592 H 0.82096 0.09789 0.2546 0.0
H1593 H 0.79814 0.12444 0.2625 0.0
H1594 H 0.84324 0.15065 0.30413 0.0
H1595 H 0.86631 0.12455 0.29548 0.0
C1596 C 0.7984 0.19061 0.29936 0.0
C1597 C 0.77733 0.18611 0.2983 0.0
C1598 C 0.8118 0.17564 0.29478 0.0
C1599 C 0.80446 0.15572 0.28929 0.0
C1600 C 0.78334 0.15122 0.28867 0.0
C1601 C 0.76995 0.16627 0.29296 0.0
C1602 C 0.82594 0.10938 0.26542 0.0
C1603 C 0.84538 0.10918 0.27442 0.0
C1604 C 0.81282 0.12455 0.27007 0.0
C1605 C 0.81869 0.13975 0.28409 0.0
C1606 C 0.83823 0.13949 0.29307 0.0
C1607 C 0.85147 0.12447 0.28819 0.0
H1608 H 0.41567 0.04381 0.98801 0.0
H1609 H 0.45344 0.99402 0.97525 0.0
H1610 H 0.38793 0.01993 0.99376 0.0
H1611 H 0.42529 0.9701 0.98004 0.0
H1612 H 0.37807 0.93343 0.00995 0.0
H1613 H 0.40615 0.95715 1.00432 0.0
H1614 H 0.36371 0.99592 0.97794 0.0
H1615 H 0.33566 0.97235 0.98387 0.0
C1616 C 0.41807 0.02776 0.98643 0.0
C1617 C 0.43685 0.02086 0.98124 0.0
C1618 C 0.40204 0.01404 0.98949 0.0
C1619 C 0.40432 0.99306 0.98734 0.0
C1620 C 0.42306 0.98614 0.98204 0.0
C1621 C 0.43914 0.99988 0.97906 0.0
C1622 C 0.37478 0.94698 1.00286 0.0
C1623 C 0.35465 0.95106 0.99741 0.0
C1624 C 0.39087 0.96055 0.99958 0.0
C1625 C 0.38722 0.97848 0.99068 0.0
C1626 C 0.36707 0.98246 0.98513 0.0
C1627 C 0.35098 0.96894 0.9885 0.0
H1628 H 0.25457 0.31681 0.27172 0.0
H1629 H 0.27643 0.35147 0.32196 0.0
H1630 H 0.23085 0.34315 0.26448 0.0
H1631 H 0.25315 0.37806 0.31445 0.0
H1632 H 0.22875 0.42924 0.27656 0.0
H1633 H 0.25109 0.40208 0.28459 0.0
H1634 H 0.19906 0.35975 0.28238 0.0
H1635 H 0.17662 0.38708 0.27486 0.0
C1636 C 0.25421 0.33005 0.2812 0.0
C1637 C 0.26721 0.33217 0.2974 0.0
C1638 C 0.24067 0.34503 0.2771 0.0
C1639 C 0.24029 0.36258 0.28891 0.0
C1640 C 0.25325 0.36467 0.30513 0.0
C1641 C 0.26644 0.34947 0.30945 0.0
C1642 C 0.22215 0.41412 0.27776 0.0
C1643 C 0.20103 0.41017 0.27508 0.0
C1644 C 0.23487 0.39866 0.28244 0.0
C1645 C 0.22673 0.37891 0.2841 0.0
C1646 C 0.20565 0.37488 0.28113 0.0
C1647 C 0.19287 0.39045 0.27688 0.0
H1648 H 0.08784 0.04111 0.45723 0.0
H1649 H 0.12216 0.99144 0.47599 0.0
H1650 H 0.11776 0.06401 0.46352 0.0
H1651 H 0.15197 0.01457 0.483 0.0
H1652 H 0.20655 0.05779 0.47258 0.0
H1653 H 0.17687 0.03428 0.46705 0.0
H1654 H 0.13896 0.07998 0.48923 0.0
H1655 H 0.16859 0.10346 0.49468 0.0
C1656 C 0.10179 0.03508 0.46271 0.0
C1657 C 0.10262 0.01442 0.46603 0.0
C1658 C 0.11889 0.04826 0.46652 0.0
C1659 C 0.13728 0.04115 0.4738 0.0
C1660 C 0.13811 0.02051 0.47723 0.0
C1661 C 0.12096 0.00729 0.47341 0.0
C1662 C 0.19191 0.06275 0.47643 0.0
C1663 C 0.18993 0.08254 0.484 0.0
C1664 C 0.17489 0.04926 0.47328 0.0
C1665 C 0.15551 0.05525 0.47764 0.0
C1666 C 0.15359 0.07498 0.4854 0.0
C1667 C 0.17058 0.08845 0.48852 0.0
H1668 H 0.77457 0.18495 0.75745 0.0
H1669 H 0.7844 0.15689 0.70363 0.0
H1670 H 0.75009 0.15717 0.76282 0.0
H1671 H 0.76021 0.12888 0.70915 0.0
H1672 H 0.73518 0.07254 0.7394 0.0
H1673 H 0.75954 0.10048 0.73409 0.0
H1674 H 0.71436 0.14347 0.7462 0.0
H1675 H 0.6899 0.11553 0.75114 0.0
C1676 C 0.77148 0.1728 0.74682 0.0
C1677 C 0.78127 0.173 0.73013 0.0
C1678 C 0.75748 0.157 0.74985 0.0
C1679 C 0.75337 0.14093 0.73641 0.0
C1680 C 0.76325 0.14107 0.71975 0.0
C1681 C 0.77693 0.15709 0.71656 0.0
C1682 C 0.73055 0.08798 0.74099 0.0
C1683 C 0.71073 0.09196 0.74567 0.0
C1684 C 0.74439 0.1039 0.73785 0.0
C1685 C 0.73876 0.12406 0.73973 0.0
C1686 C 0.71905 0.12804 0.74474 0.0
C1687 C 0.70509 0.11212 0.74749 0.0
H1688 H 0.45733 0.02622 0.5162 0.0
H1689 H 0.43306 0.01685 0.5693 0.0
H1690 H 0.4313 0.05027 0.50959 0.0
H1691 H 0.4071 0.04109 0.56277 0.0
H1692 H 0.34993 0.06593 0.5329 0.0
H1693 H 0.37648 0.04269 0.54042 0.0
H1694 H 0.42153 0.08468 0.52124 0.0
H1695 H 0.39494 0.10784 0.51355 0.0
C1696 C 0.44641 0.02931 0.52645 0.0
C1697 C 0.44718 0.0196 0.54324 0.0
C1698 C 0.43163 0.0432 0.52274 0.0
C1699 C 0.41715 0.04755 0.53565 0.0
C1700 C 0.41796 0.03792 0.55249 0.0
C1701 C 0.4329 0.02418 0.55629 0.0
C1702 C 0.3655 0.07014 0.53022 0.0
C1703 C 0.37035 0.08866 0.52257 0.0
C1704 C 0.38071 0.05693 0.53469 0.0
C1705 C 0.40109 0.06187 0.53142 0.0
C1706 C 0.40595 0.0804 0.52379 0.0
C1707 C 0.39076 0.09372 0.51951 0.0
H1708 H 0.62225 0.53562 0.55392 0.0
H1709 H 0.57885 0.48539 0.55777 0.0
H1710 H 0.64868 0.51193 0.54763 0.0
H1711 H 0.60528 0.46163 0.55125 0.0
H1712 H 0.65313 0.43138 0.51389 0.0
H1713 H 0.62642 0.45359 0.52257 0.0
H1714 H 0.66742 0.48434 0.56501 0.0
H1715 H 0.69393 0.46163 0.55707 0.0
C1716 C 0.61842 0.51949 0.55347 0.0
C1717 C 0.59855 0.5123 0.55633 0.0
C1718 C 0.63354 0.50596 0.54996 0.0
C1719 C 0.62899 0.48497 0.54893 0.0
C1720 C 0.60914 0.47775 0.55188 0.0
C1721 C 0.5941 0.4913 0.55573 0.0
C1722 C 0.65643 0.44258 0.52533 0.0
C1723 C 0.67586 0.44467 0.53469 0.0
C1724 C 0.6411 0.45536 0.53023 0.0
C1725 C 0.64489 0.47072 0.5444 0.0
C1726 C 0.66417 0.47277 0.55387 0.0
C1727 C 0.6794 0.4598 0.5492 0.0
H1728 H 0.75901 0.21905 0.35747 0.0
H1729 H 0.75061 0.27149 0.32563 0.0
H1730 H 0.75972 0.24046 0.38619 0.0
H1731 H 0.75174 0.29297 0.35421 0.0
H1732 H 0.73048 0.32177 0.40759 0.0
H1733 H 0.73102 0.29988 0.37941 0.0
H1734 H 0.77857 0.26653 0.4054 0.0
H1735 H 0.7777 0.28828 0.43374 0.0
C1736 C 0.75766 0.23521 0.35662 0.0
C1737 C 0.75461 0.24357 0.33931 0.0
C1738 C 0.75806 0.2475 0.37307 0.0
C1739 C 0.75556 0.26846 0.37257 0.0
C1740 C 0.7532 0.27685 0.35518 0.0
C1741 C 0.75266 0.26456 0.33878 0.0
C1742 C 0.74108 0.30979 0.40726 0.0
C1743 C 0.75405 0.30677 0.42288 0.0
C1744 C 0.74147 0.29727 0.39107 0.0
C1745 C 0.75497 0.28149 0.39002 0.0
C1746 C 0.76781 0.27835 0.40575 0.0
C1747 C 0.76732 0.29082 0.422 0.0
H1748 H 0.51013 0.98969 0.91888 0.0
H1749 H 0.51689 0.05483 0.91864 0.0
H1750 H 0.53163 0.98651 0.89269 0.0
H1751 H 0.53795 0.05173 0.89218 0.0
H1752 H 0.59191 0.03865 0.85742 0.0
H1753 H 0.57102 0.04157 0.88402 0.0
H1754 H 0.53129 0.99182 0.86003 0.0
H1755 H 0.5523 0.98879 0.83356 0.0
C1756 C 0.51617 1.00332 0.91315 0.0
C1757 C 0.51189 0.02246 0.92081 0.0
C1758 C 0.52838 1.00152 0.89808 0.0
C1759 C 0.53653 0.01887 0.89029 0.0
C1760 C 0.53218 0.03806 0.89799 0.0
C1761 C 0.52001 0.03984 0.9131 0.0
C1762 C 0.57865 0.02841 0.8578 0.0
C1763 C 0.57377 0.01348 0.84338 0.0
C1764 C 0.56665 0.0301 0.87303 0.0
C1765 C 0.54944 0.01695 0.87417 0.0
C1766 C 0.54461 1.00199 0.85976 0.0
C1767 C 0.55665 1.00025 0.84457 0.0
H1768 H 0.26406 0.27504 0.33661 0.0
H1769 H 0.32904 0.28531 0.34632 0.0
H1770 H 0.26309 0.25577 0.36423 0.0
H1771 H 0.3281 0.26644 0.37429 0.0
H1772 H 0.32219 0.21334 0.41156 0.0
H1773 H 0.32337 0.23322 0.38439 0.0
H1774 H 0.26627 0.25838 0.39703 0.0
H1775 H 0.26443 0.23752 0.4235 0.0
C1776 C 0.27812 0.27341 0.34482 0.0
C1777 C 0.29663 0.28171 0.33928 0.0
C1778 C 0.27758 0.26239 0.36072 0.0
C1779 C 0.29552 0.25951 0.3716 0.0
C1780 C 0.31402 0.26801 0.36612 0.0
C1781 C 0.31457 0.2789 0.35012 0.0
C1782 C 0.30974 0.22292 0.40845 0.0
C1783 C 0.29315 0.22366 0.41976 0.0
C1784 C 0.31057 0.23459 0.39297 0.0
C1785 C 0.29491 0.24746 0.38841 0.0
C1786 C 0.27848 0.24845 0.39989 0.0
C1787 C 0.27758 0.23667 0.41529 0.0
H1788 H 0.57149 0.48756 0.90446 0.0
H1789 H 0.51821 0.48481 0.93616 0.0
H1790 H 0.55009 0.49227 0.87638 0.0
H1791 H 0.49675 0.48932 0.90802 0.0
H1792 H 0.47079 0.52468 0.85917 0.0
H1793 H 0.49151 0.51773 0.88689 0.0
H1794 H 0.52311 0.47363 0.85495 0.0
H1795 H 0.50201 0.48011 0.82722 0.0
C1796 C 0.55518 0.48787 0.90538 0.0
C1797 C 0.54651 0.4859 0.92251 0.0
C1798 C 0.54293 0.49042 0.8893 0.0
C1799 C 0.52176 0.49125 0.89001 0.0
C1800 C 0.51305 0.48894 0.90708 0.0
C1801 C 0.52529 0.48617 0.92314 0.0
C1802 C 0.48193 0.51327 0.85804 0.0
C1803 C 0.48461 0.5029 0.84089 0.0
C1804 C 0.49384 0.50933 0.87396 0.0
C1805 C 0.50888 0.49508 0.87312 0.0
C1806 C 0.51175 0.48483 0.85599 0.0
C1807 C 0.4997 0.48863 0.84008 0.0
H1808 H 0.71912 0.78177 0.16048 0.0
H1809 H 0.78244 0.77992 0.17897 0.0
H1810 H 0.72528 0.76128 0.1323 0.0
H1811 H 0.78861 0.75949 0.15081 0.0
H1812 H 0.78467 0.70424 0.10812 0.0
H1813 H 0.77831 0.72437 0.13638 0.0
H1814 H 0.74529 0.76588 0.10357 0.0
H1815 H 0.75162 0.74569 0.07526 0.0
C1816 C 0.73431 0.77685 0.15857 0.0
C1817 C 0.75031 0.78242 0.1719 0.0
C1818 C 0.73787 0.7653 0.14239 0.0
C1819 C 0.75743 0.75885 0.13935 0.0
C1820 C 0.77336 0.76416 0.15283 0.0
C1821 C 0.76986 0.77593 0.16887 0.0
C1822 C 0.77602 0.71764 0.10696 0.0
C1823 C 0.76863 0.72341 0.0895 0.0
C1824 C 0.7725 0.72922 0.12311 0.0
C1825 C 0.76128 0.74666 0.12216 0.0
C1826 C 0.75384 0.75241 0.10471 0.0
C1827 C 0.75761 0.74098 0.08852 0.0
H1828 H 0.06624 0.03377 0.11065 0.0
H1829 H 0.01171 0.04005 0.07571 0.0
H1830 H 0.04591 0.03192 0.13769 0.0
H1831 H 0.99144 0.03857 0.10277 0.0
H1832 H 0.96039 0.01266 0.15205 0.0
H1833 H 0.98093 0.01388 0.12526 0.0
H1834 H 0.02518 0.05439 0.1568 0.0
H1835 H 1.00446 0.05354 0.18358 0.0
C1836 C 0.0499 0.03465 0.10873 0.0
C1837 C 0.04058 0.03703 0.09102 0.0
C1838 C 0.03829 0.0338 0.12425 0.0
C1839 C 0.01706 0.03512 0.12239 0.0
C1840 C 0.00774 0.03733 0.10465 0.0
C1841 C 0.01936 0.03835 0.08917 0.0
C1842 C 0.97436 0.02205 0.15326 0.0
C1843 C 0.98065 0.03311 0.17002 0.0
C1844 C 0.98617 0.02269 0.13788 0.0
C1845 C 1.00467 0.03427 0.13887 0.0
C1846 C 0.01112 0.04514 0.15565 0.0
C1847 C 0.99923 0.04461 0.17102 0.0
H1848 H 0.34486 0.7632 0.16631 0.0
H1849 H 0.28155 0.74453 0.16893 0.0
H1850 H 0.33604 0.78404 0.14052 0.0
H1851 H 0.27273 0.76503 0.14292 0.0
H1852 H 0.26293 0.82095 0.10916 0.0
H1853 H 0.27137 0.8003 0.13514 0.0
H1854 H 0.32399 0.78019 0.10805 0.0
H1855 H 0.31557 0.80081 0.0821 0.0
C1856 C 0.32907 0.76352 0.1613 0.0
C1857 C 0.31393 0.75224 0.16958 0.0
C1858 C 0.32402 0.77534 0.14647 0.0
C1859 C 0.30368 0.77615 0.1396 0.0
C1860 C 0.2885 0.76492 0.148 0.0
C1861 C 0.29357 0.75307 0.16284 0.0
C1862 C 0.2762 0.81198 0.10868 0.0
C1863 C 0.2886 0.81257 0.09356 0.0
C1864 C 0.28104 0.80014 0.12357 0.0
C1865 C 0.29838 0.78862 0.1237 0.0
C1866 C 0.31072 0.78915 0.10854 0.0
C1867 C 0.30589 0.80098 0.09367 0.0
H1868 H 0.03437 0.48941 0.06961 0.0
H1869 H 0.98178 0.50019 0.10079 0.0
H1870 H 0.05557 0.48987 0.09841 0.0
H1871 H 1.00321 0.50143 0.12968 0.0
H1872 H 0.04378 0.47906 0.17758 0.0
H1873 H 0.02225 0.47886 0.14889 0.0
H1874 H 0.06959 0.51284 0.12361 0.0
H1875 H 0.09138 0.51235 0.15201 0.0
C1876 C 0.02733 0.4919 0.08263 0.0
C1877 C 0.00634 0.49464 0.08289 0.0
C1878 C 0.03954 0.4924 0.09915 0.0
C1879 C 0.03111 0.49568 0.11638 0.0
C1880 C 0.01015 0.49863 0.11665 0.0
C1881 C 0.99791 0.49816 0.10009 0.0
C1882 C 0.04967 0.4863 0.16583 0.0
C1883 C 0.06934 0.49568 0.1671 0.0
C1884 C 0.03723 0.48642 0.14946 0.0
C1885 C 0.04417 0.49587 0.13394 0.0
C1886 C 0.06383 0.50525 0.13523 0.0
C1887 C 0.07625 0.50515 0.15159 0.0
H1888 H 0.34873 0.74439 0.24885 0.0
H1889 H 0.35268 0.6799 0.25362 0.0
H1890 H 0.37892 0.75053 0.27004 0.0
H1891 H 0.38241 0.68621 0.2753 0.0
H1892 H 0.41894 0.70916 0.33014 0.0
H1893 H 0.38953 0.70275 0.30792 0.0
H1894 H 0.41676 0.74352 0.27091 0.0
H1895 H 0.44619 0.74996 0.29318 0.0
C1896 C 0.35609 0.7315 0.25425 0.0
C1897 C 0.34819 0.71163 0.24949 0.0
C1898 C 0.37334 0.73506 0.26645 0.0
C1899 C 0.38295 0.71885 0.27434 0.0
C1900 C 0.37514 0.699 0.26959 0.0
C1901 C 0.35805 0.69542 0.25723 0.0
C1902 C 0.41859 0.71677 0.31727 0.0
C1903 C 0.43481 0.73005 0.31336 0.0
C1904 C 0.40186 0.71299 0.30452 0.0
C1905 C 0.40089 0.72263 0.28771 0.0
C1906 C 0.41707 0.73598 0.28382 0.0
C1907 C 0.43395 0.73954 0.29647 0.0
H1908 H 0.04035 0.43688 1.006 0.0
H1909 H 0.97493 0.42885 0.99973 0.0
H1910 H 0.04332 0.40756 0.98455 0.0
H1911 H 0.97779 0.39901 0.97884 0.0
H1912 H 0.98966 0.35798 0.92828 0.0
H1913 H 0.98674 0.38808 0.94869 0.0
H1914 H 0.03906 0.37191 0.98255 0.0
H1915 H 0.04279 0.34263 0.96149 0.0
C1916 C 0.02661 0.42874 1.00006 0.0
C1917 C 0.00745 0.43515 1.00447 0.0
C1918 C 0.02828 0.41184 0.98788 0.0
C1919 C 0.01079 0.40079 0.97998 0.0
C1920 C 0.99158 0.40729 0.98442 0.0
C1921 C 0.98993 0.42434 0.99648 0.0
C1922 C 1.00073 0.36099 0.93993 0.0
C1923 C 0.0165 0.34783 0.94316 0.0
C1924 C 0.99887 0.37813 0.95181 0.0
C1925 C 0.01266 0.38249 0.96732 0.0
C1926 C 0.02833 0.36924 0.97062 0.0
C1927 C 0.03029 0.35222 0.95866 0.0
H1928 H 0.67485 0.83587 0.25611 0.0
H1929 H 0.69239 0.77421 0.24819 0.0
H1930 H 0.65008 0.82524 0.27771 0.0
H1931 H 0.66826 0.76359 0.27041 0.0
H1932 H 0.60896 0.74793 0.29696 0.0
H1933 H 0.63332 0.75817 0.27495 0.0
H1934 H 0.64716 0.81432 0.30778 0.0
H1935 H 0.62179 0.80475 0.329 0.0
C1936 C 0.67345 0.82004 0.2591 0.0
C1937 C 0.68545 0.80588 0.25043 0.0
C1938 C 0.65938 0.81394 0.27161 0.0
C1939 C 0.65715 0.79353 0.27595 0.0
C1940 C 0.66928 0.77937 0.26723 0.0
C1941 C 0.68321 0.78546 0.25455 0.0
C1942 C 0.617 0.76258 0.29938 0.0
C1943 C 0.61324 0.77551 0.3148 0.0
C1944 C 0.63124 0.76835 0.28686 0.0
C1945 C 0.64226 0.78713 0.28949 0.0
C1946 C 0.63876 0.79989 0.30508 0.0
C1947 C 0.62439 0.79422 0.31748 0.0
H1948 H 0.03511 0.08946 0.00952 0.0
H1949 H 0.09932 0.10378 0.00685 0.0
H1950 H 0.02763 0.11339 0.98588 0.0
H1951 H 0.09196 0.12827 0.98381 0.0
H1952 H 0.07451 0.15651 0.93021 0.0
H1953 H 0.08065 0.13095 0.95254 0.0
H1954 H 0.0277 0.14846 0.98068 0.0
H1955 H 0.02132 0.17359 0.95795 0.0
C1956 C 0.04761 0.09786 1.00398 0.0
C1957 C 0.06781 0.0948 0.01 0.0
C1958 C 0.04334 0.11167 0.99048 0.0
C1959 C 0.05918 0.1228 0.98283 0.0
C1960 C 0.07936 0.11973 0.98905 0.0
C1961 C 0.08361 0.10582 1.00238 0.0
C1962 C 0.0642 0.15485 0.94117 0.0
C1963 C 0.04747 0.16707 0.94236 0.0
C1964 C 0.06774 0.14026 0.95404 0.0
C1965 C 0.05477 0.13768 0.96857 0.0
C1966 C 0.03786 0.14977 0.96957 0.0
C1967 C 0.03421 0.16422 0.95656 0.0
H1968 H 0.33815 0.28381 0.246 0.0
H1969 H 0.38763 0.28969 0.28815 0.0
H1970 H 0.36231 0.28004 0.22205 0.0
H1971 H 0.41199 0.28699 0.26424 0.0
H1972 H 0.45069 0.26351 0.21905 0.0
H1973 H 0.42591 0.26519 0.24265 0.0
H1974 H 0.38653 0.29763 0.20608 0.0
H1975 H 0.41102 0.29501 0.18224 0.0
C1976 C 0.35424 0.28446 0.25012 0.0
C1977 C 0.36106 0.28709 0.26892 0.0
C1978 C 0.36815 0.28244 0.23637 0.0
C1979 C 0.38923 0.28329 0.24109 0.0
C1980 C 0.39593 0.28589 0.26 0.0
C1981 C 0.382 0.28759 0.27374 0.0
C1982 C 0.43671 0.271 0.21613 0.0
C1983 C 0.43277 0.27918 0.19887 0.0
C1984 C 0.42252 0.27207 0.22968 0.0
C1985 C 0.40414 0.28165 0.22641 0.0
C1986 C 0.40027 0.28982 0.20906 0.0
C1987 C 0.41435 0.28844 0.1954 0.0
H1988 H 0.54 0.42371 0.99367 0.0
H1989 H 0.59583 0.43692 0.02745 0.0
H1990 H 0.53027 0.39733 0.01417 0.0
H1991 H 0.5859 0.41112 0.04829 0.0
H1992 H 0.57353 0.34942 0.07019 0.0
H1993 H 0.58232 0.37543 0.04931 0.0
H1994 H 0.51961 0.3915 0.04464 0.0
H1995 H 0.51058 0.36461 0.06473 0.0
C1996 C 0.55012 0.42108 1.00556 0.0
C1997 C 0.56873 0.4323 0.00895 0.0
C1998 C 0.54449 0.40604 0.01739 0.0
C1999 C 0.55733 0.40199 0.03289 0.0
C2000 C 0.5758 0.4135 0.03633 0.0
C2001 C 0.58145 0.4284 0.02446 0.0
C2002 C 0.56153 0.35829 0.06454 0.0
C2003 C 0.54131 0.3548 0.06915 0.0
C2004 C 0.56664 0.37345 0.05274 0.0
C2005 C 0.55171 0.38569 0.04531 0.0
C2006 C 0.53148 0.38225 0.04993 0.0
C2007 C 0.52635 0.36699 0.06168 0.0
H2008 H 0.68614 0.18574 0.23926 0.0
H2009 H 0.69215 0.2474 0.26258 0.0
H2010 H 0.65788 0.19463 0.2183 0.0
H2011 H 0.66383 0.25625 0.24181 0.0
H2012 H 0.62648 0.26867 0.18821 0.0
H2013 H 0.65523 0.25984 0.20846 0.0
H2014 H 0.62245 0.20455 0.22032 0.0
H2015 H 0.5936 0.21345 0.20031 0.0
C2016 C 0.68139 0.20117 0.23989 0.0
C2017 C 0.69128 0.21582 0.25257 0.0
C2018 C 0.66517 0.20625 0.22798 0.0
C2019 C 0.65859 0.22614 0.22842 0.0
C2020 C 0.66866 0.24085 0.241 0.0
C2021 C 0.68481 0.23574 0.25298 0.0
C2022 C 0.62531 0.25472 0.19527 0.0
C2023 C 0.60768 0.24178 0.1926 0.0
C2024 C 0.64181 0.24965 0.20685 0.0
C2025 C 0.64114 0.23148 0.21598 0.0
C2026 C 0.62357 0.2185 0.21326 0.0
C2027 C 0.60704 0.22361 0.20176 0.0
H2028 H 0.50954 0.08644 1.00051 0.0
H2029 H 0.44452 0.09124 1.00151 0.0
H2030 H 0.51488 0.11683 0.02132 0.0
H2031 H 0.44992 0.12136 0.02257 0.0
H2032 H 0.46852 0.15969 0.07675 0.0
H2033 H 0.46325 0.12991 0.05515 0.0
H2034 H 0.50969 0.15392 0.02172 0.0
H2035 H 0.51523 0.18355 0.04352 0.0
C2036 C 0.49639 0.09406 1.00501 0.0
C2037 C 0.4766 0.08632 0.99936 0.0
C2038 C 0.49946 0.11145 0.01697 0.0
C2039 C 0.48282 0.12143 0.02364 0.0
C2040 C 0.46305 0.11382 0.01789 0.0
C2041 C 0.45997 0.09652 1.00585 0.0
C2042 C 0.47767 0.15856 0.06483 0.0
C2043 C 0.49229 0.17396 0.06183 0.0
C2044 C 0.47452 0.1416 0.05238 0.0
C2045 C 0.48604 0.13959 0.03673 0.0
C2046 C 0.50069 0.15497 0.03373 0.0
C2047 C 0.50372 0.17202 0.04611 0.0
H2048 H 0.27349 0.34366 0.74318 0.0
H2049 H 0.27333 0.35468 0.68485 0.0
H2050 H 0.29615 0.37355 0.75045 0.0
H2051 H 0.29703 0.38369 0.69199 0.0
H2052 H 0.32414 0.4458 0.71115 0.0
H2053 H 0.29966 0.41723 0.70505 0.0
H2054 H 0.33024 0.38561 0.74842 0.0
H2055 H 0.35386 0.41475 0.75537 0.0
C2056 C 0.27825 0.35245 0.7319 0.0
C2057 C 0.27154 0.3467 0.71342 0.0
C2058 C 0.29151 0.36946 0.73605 0.0
C2059 C 0.29853 0.38108 0.72182 0.0
C2060 C 0.29178 0.37532 0.70336 0.0
C2061 C 0.27839 0.35844 0.69922 0.0
C2062 C 0.32547 0.43291 0.7196 0.0
C2063 C 0.34106 0.43265 0.73375 0.0
C2064 C 0.31157 0.41635 0.71591 0.0
C2065 C 0.31298 0.39898 0.72615 0.0
C2066 C 0.3285 0.39877 0.74037 0.0
C2067 C 0.34229 0.41541 0.74417 0.0
H2068 H 0.30461 0.70554 0.81177 0.0
H2069 H 0.25493 0.66592 0.7874 0.0
H2070 H 0.32831 0.67903 0.80569 0.0
H2071 H 0.27861 0.63966 0.78096 0.0
H2072 H 0.32364 0.59027 0.78982 0.0
H2073 H 0.30052 0.61664 0.79742 0.0
H2074 H 0.34274 0.66167 0.7786 0.0
H2075 H 0.36582 0.63527 0.77073 0.0
C2076 C 0.29875 0.69114 0.80521 0.0
C2077 C 0.2779 0.68784 0.80003 0.0
C2078 C 0.31234 0.67604 0.80157 0.0
C2079 C 0.30535 0.65725 0.7928 0.0
C2080 C 0.28447 0.65388 0.78787 0.0
C2081 C 0.27092 0.669 0.7914 0.0
C2082 C 0.32794 0.60576 0.78711 0.0
C2083 C 0.34659 0.61058 0.77955 0.0
C2084 C 0.31469 0.62089 0.79152 0.0
C2085 C 0.31976 0.64126 0.78859 0.0
C2086 C 0.3385 0.64616 0.78126 0.0
C2087 C 0.35173 0.631 0.77675 0.0
H2088 H 0.95042 0.49895 0.4724 0.0
H2089 H 0.91218 0.54858 0.48433 0.0
H2090 H 0.92242 0.4749 0.47738 0.0
H2091 H 0.88424 0.52449 0.48947 0.0
H2092 H 0.8475 0.47514 0.51743 0.0
H2093 H 0.87507 0.49945 0.51184 0.0
H2094 H 0.88878 0.46293 0.46323 0.0
H2095 H 0.86111 0.43871 0.46869 0.0
C2096 C 0.93599 0.50474 0.47591 0.0
C2097 C 0.93357 0.52571 0.47797 0.0
C2098 C 0.91994 0.49094 0.47878 0.0
C2099 C 0.90111 0.49778 0.48384 0.0
C2100 C 0.89865 0.51874 0.48586 0.0
C2101 C 0.91468 0.53254 0.48292 0.0
C2102 C 0.85624 0.47239 0.50544 0.0
C2103 C 0.85209 0.45493 0.49353 0.0
C2104 C 0.87206 0.48632 0.50225 0.0
C2105 C 0.88414 0.4831 0.48711 0.0
C2106 C 0.87996 0.46569 0.47518 0.0
C2107 C 0.86411 0.4518 0.47833 0.0
H2108 H 0.7455 0.81974 0.80714 0.0
H2109 H 0.79502 0.85834 0.79066 0.0
H2110 H 0.72192 0.84627 0.80096 0.0
H2111 H 0.77145 0.88446 0.78388 0.0
H2112 H 0.72802 0.9349 0.79173 0.0
H2113 H 0.75079 0.90839 0.79954 0.0
H2114 H 0.70639 0.8631 0.77478 0.0
H2115 H 0.68355 0.88969 0.76696 0.0
C2116 C 0.75136 0.83389 0.80225 0.0
C2117 C 0.77214 0.83688 0.79934 0.0
C2118 C 0.73782 0.84901 0.79852 0.0
C2119 C 0.74478 0.8675 0.7919 0.0
C2120 C 0.76558 0.87051 0.78915 0.0
C2121 C 0.77907 0.85542 0.79283 0.0
C2122 C 0.72316 0.91931 0.7878 0.0
C2123 C 0.704 0.91446 0.77859 0.0
C2124 C 0.73622 0.90409 0.79231 0.0
C2125 C 0.73048 0.8836 0.78771 0.0
C2126 C 0.7112 0.8787 0.77873 0.0
C2127 C 0.69811 0.89395 0.77422 0.0
H2128 H 0.62732 0.48961 0.97388 0.0
H2129 H 0.5912 0.53797 0.95497 0.0
H2130 H 0.65664 0.51348 0.98002 0.0
H2131 H 0.62048 0.56184 0.96113 0.0
H2132 H 0.68265 0.59379 0.95539 0.0
H2133 H 0.65346 0.56981 0.94942 0.0
H2134 H 0.66893 0.54227 1.00079 0.0
H2135 H 0.69816 0.56625 0.00674 0.0
C2136 C 0.62559 0.50537 0.97119 0.0
C2137 C 0.60694 0.51188 0.9639 0.0
C2138 C 0.64239 0.51906 0.97471 0.0
C2139 C 0.64093 0.53957 0.97103 0.0
C2140 C 0.62223 0.54608 0.96383 0.0
C2141 C 0.60545 0.5324 0.9603 0.0
C2142 C 0.67974 0.58273 0.96549 0.0
C2143 C 0.69274 0.58197 0.98156 0.0
C2144 C 0.66299 0.56897 0.96207 0.0
C2145 C 0.65883 0.55413 0.97464 0.0
C2146 C 0.67187 0.55332 0.99068 0.0
C2147 C 0.68862 0.56707 0.9941 0.0
H2148 H 0.25602 0.6899 0.22754 0.0
H2149 H 0.30506 0.65 0.23623 0.0
H2150 H 0.2315 0.66265 0.23355 0.0
H2151 H 0.28064 0.62259 0.24178 0.0
H2152 H 0.2339 0.58347 0.26881 0.0
H2153 H 0.25789 0.61146 0.26372 0.0
H2154 H 0.21636 0.63121 0.22063 0.0
H2155 H 0.19222 0.60349 0.22612 0.0
C2156 C 0.26152 0.67523 0.23057 0.0
C2157 C 0.28245 0.67209 0.23147 0.0
C2158 C 0.24748 0.65958 0.23397 0.0
C2159 C 0.25405 0.64037 0.2382 0.0
C2160 C 0.27502 0.63726 0.23895 0.0
C2161 C 0.28904 0.65295 0.2357 0.0
C2162 C 0.22995 0.59379 0.25824 0.0
C2163 C 0.21119 0.59129 0.24788 0.0
C2164 C 0.24372 0.60981 0.25526 0.0
C2165 C 0.23914 0.62361 0.2417 0.0
C2166 C 0.2203 0.62111 0.23139 0.0
C2167 C 0.20646 0.60519 0.2345 0.0
H2168 H 0.93704 0.51854 0.0683 0.0
H2169 H 0.95963 0.52704 0.01438 0.0
H2170 H 0.91077 0.54258 0.06202 0.0
H2171 H 0.93337 0.55091 0.00807 0.0
H2172 H 0.8972 0.60852 0.01215 0.0
H2173 H 0.92399 0.58554 0.01974 0.0
H2174 H 0.8795 0.54378 0.04006 0.0
H2175 H 0.85273 0.56683 0.0326 0.0
C2176 C 0.93644 0.52563 0.05516 0.0
C2177 C 0.95033 0.52087 0.0418 0.0
C2178 C 0.92134 0.53926 0.05152 0.0
C2179 C 0.92001 0.54861 0.03455 0.0
C2180 C 0.9341 0.54407 0.02132 0.0
C2181 C 0.94902 0.53028 0.02487 0.0
C2182 C 0.89318 0.59449 0.01834 0.0
C2183 C 0.87287 0.58944 0.02172 0.0
C2184 C 0.90848 0.58128 0.02257 0.0
C2185 C 0.90384 0.56286 0.03047 0.0
C2186 C 0.88356 0.55794 0.0341 0.0
C2187 C 0.86823 0.57103 0.02967 0.0
H2188 H 0.11882 0.03575 0.04536 0.0
H2189 H 0.07978 0.98571 0.06 0.0
H2190 H 0.1453 0.01255 0.03874 0.0
H2191 H 0.10664 0.96252 0.05405 0.0
H2192 H 0.15107 0.92477 0.02159 0.0
H2193 H 0.12419 0.94767 0.02827 0.0
H2194 H 0.16905 0.99171 0.05437 0.0
H2195 H 0.19591 0.96924 0.04705 0.0
C2196 C 0.11589 0.01978 0.04719 0.0
C2197 C 0.09713 0.01259 0.05315 0.0
C2198 C 0.13117 0.00649 0.04359 0.0
C2199 C 0.12813 0.98565 0.04588 0.0
C2200 C 0.10942 0.97845 0.05196 0.0
C2201 C 0.09411 0.99177 0.05559 0.0
C2202 C 0.1552 0.93942 0.0286 0.0
C2203 C 0.17567 0.94514 0.03377 0.0
C2204 C 0.13977 0.95245 0.03263 0.0
C2205 C 0.14444 0.97155 0.04187 0.0
C2206 C 0.16491 0.97722 0.04706 0.0
C2207 C 0.1803 0.96421 0.04306 0.0
loop_
_geom_bond_atom_site_label_1
_geom_bond_atom_site_label_2
_geom_bond_distance
_geom_bond_site_symmetry_2
_ccdc_geom_bond_type
H0 C5 0.930 . S
H1 C8 0.930 . S
H2 C10 0.930 . S
H3 C4 1.016 1_556 S
C4 H3 1.016 1_554 S
C4 N11 1.286 . S
C5 H0 0.930 . S
C5 C6 1.397 . S
C5 C7 1.361 . S
C6 C5 1.397 . S
C6 C10 1.390 . S
C7 C5 1.361 . S
C7 C8 1.393 . S
C7 N11 1.413 . S
C8 H1 0.930 . S
C8 C7 1.393 . S
C8 C9 1.399 . S
C9 C8 1.399 . S
C9 C10 1.381 . S
C10 H2 0.930 . S
C10 C6 1.390 . S
C10 C9 1.381 . S
N11 C4 1.286 . S
N11 C7 1.413 . S
H12 C17 0.930 . S
H13 C20 0.930 . S
H14 C22 0.930 . S
H15 C16 1.016 . S
C16 H15 1.016 . S
C16 N23 1.286 . S
C17 H12 0.930 . S
C17 C18 1.397 . S
C17 C19 1.361 . S
C18 C17 1.397 . S
C18 C22 1.390 . S
C19 C17 1.361 . S
C19 C20 1.393 . S
C19 N23 1.413 . S
C20 H13 0.930 . S
C20 C19 1.393 . S
C20 C21 1.399 . S
C21 C20 1.399 . S
C21 C22 1.381 . S
C22 H14 0.930 . S
C22 C18 1.390 . S
C22 C21 1.381 . S
N23 C16 1.286 . S
N23 C19 1.413 . S
H24 C29 0.930 . S
H25 C32 0.930 . S
H26 C34 0.930 . S
H27 C28 1.016 1_455 S
C28 H27 1.016 1_655 S
C28 N35 1.286 . S
C29 H24 0.930 . S
C29 C30 1.397 . S
C29 C31 1.361 . S
C30 C29 1.397 . S
C30 C34 1.390 . S
C31 C29 1.361 . S
C31 C32 1.393 . S
C31 N35 1.413 . S
C32 H25 0.930 . S
C32 C31 1.393 . S
C32 C33 1.399 . S
C33 C32 1.399 . S
C33 C34 1.381 . S
C34 H26 0.930 . S
C34 C30 1.390 . S
C34 C33 1.381 . S
N35 C28 1.286 . S
N35 C31 1.413 . S
H36 C41 0.930 . S
H37 C44 0.930 . S
H38 C46 0.930 . S
H39 C40 1.016 . S
C40 H39 1.016 . S
C40 N47 1.286 . S
C41 H36 0.930 . S
C41 C42 1.397 . S
C41 C43 1.361 . S
C42 C41 1.397 . S
C42 C46 1.390 . S
C43 C41 1.361 . S
C43 C44 1.393 . S
C43 N47 1.413 . S
C44 H37 0.930 . S
C44 C43 1.393 . S
C44 C45 1.399 . S
C45 C44 1.399 . S
C45 C46 1.381 . S
C46 H38 0.930 . S
C46 C42 1.390 . S
C46 C45 1.381 . S
N47 C40 1.286 . S
N47 C43 1.413 . S
H48 C53 0.930 . S
H49 C56 0.930 . S
H50 C58 0.930 1_545 S
H51 C52 1.016 . S
C52 H51 1.016 . S
C52 N59 1.286 . S
C53 H48 0.930 . S
C53 C54 1.397 . S
C53 C55 1.361 . S
C54 C53 1.397 . S
C54 C58 1.390 . S
C55 C53 1.361 . S
C55 C56 1.393 . S
C55 N59 1.413 . S
C56 H49 0.930 . S
C56 C55 1.393 . S
C56 C57 1.399 . S
C57 C56 1.399 . S
C57 C58 1.381 . S
C58 H50 0.930 1_565 S
C58 C54 1.390 . S
C58 C57 1.381 . S
N59 C52 1.286 . S
N59 C55 1.413 . S
H60 C65 0.930 . S
H61 C68 0.930 . S
H62 C70 0.930 . S
H63 C64 1.016 . S
C64 H63 1.016 . S
C64 N71 1.286 . S
C65 H60 0.930 . S
C65 C66 1.397 . S
C65 C67 1.361 . S
C66 C65 1.397 . S
C66 C70 1.390 . S
C67 C65 1.361 . S
C67 C68 1.393 . S
C67 N71 1.413 . S
C68 H61 0.930 . S
C68 C67 1.393 . S
C68 C69 1.399 . S
C69 C68 1.399 . S
C69 C70 1.381 . S
C70 H62 0.930 . S
C70 C66 1.390 . S
C70 C69 1.381 . S
N71 C64 1.286 . S
N71 C67 1.413 . S
H72 C77 0.895 1_455 S
H73 C80 0.930 . S
H74 C82 0.930 . S
H75 C76 1.016 . S
C76 H75 1.016 . S
C76 N83 1.286 . S
C77 H72 0.895 1_655 S
C77 C78 1.429 . S
C77 C79 1.367 . S
C78 C77 1.429 . S
C78 C82 1.390 . S
C79 C77 1.367 . S
C79 C80 1.393 . S
C79 N83 1.413 1_655 S
C80 H73 0.930 . S
C80 C79 1.393 . S
C80 C81 1.399 . S
C81 C80 1.399 . S
C81 C82 1.381 . S
C82 H74 0.930 . S
C82 C78 1.390 . S
C82 C81 1.381 . S
N83 C76 1.286 . S
N83 C79 1.413 1_455 S
H84 C89 0.930 . S
H85 C92 0.930 . S
H86 C94 0.930 . S
H87 C88 1.016 . S
C88 H87 1.016 . S
C88 N95 1.286 . S
C89 H84 0.930 . S
C89 C90 1.397 . S
C89 C91 1.361 . S
C90 C89 1.397 . S
C90 C94 1.390 . S
C91 C89 1.361 . S
C91 C92 1.393 . S
C91 N95 1.413 . S
C92 H85 0.930 . S
C92 C91 1.393 . S
C92 C93 1.399 . S
C93 C92 1.399 . S
C93 C94 1.381 . S
C94 H86 0.930 . S
C94 C90 1.390 . S
C94 C93 1.381 . S
N95 C88 1.286 . S
N95 C91 1.413 . S
H96 C101 0.930 . S
H97 C104 0.930 . S
H98 C106 0.930 . S
H99 C100 1.016 . S
C100 H99 1.016 . S
C100 N107 1.286 . S
C101 H96 0.930 . S
C101 C102 1.397 . S
C101 C103 1.361 . S
C102 C101 1.397 . S
C102 C106 1.390 . S
C103 C101 1.361 . S
C103 C104 1.393 . S
C103 N107 1.413 . S
C104 H97 0.930 . S
C104 C103 1.393 . S
C104 C105 1.399 . S
C105 C104 1.399 . S
C105 C106 1.381 . S
C106 H98 0.930 . S
C106 C102 1.390 . S
C106 C105 1.381 . S
N107 C100 1.286 . S
N107 C103 1.413 . S
H108 C113 0.930 . S
H109 C116 0.930 . S
H110 C118 0.930 1_545 S
H111 C112 1.016 . S
C112 H111 1.016 . S
C112 N119 1.286 . S
C113 H108 0.930 . S
C113 C114 1.397 . S
C113 C115 1.361 . S
C114 C113 1.397 . S
C114 C118 1.390 . S
C115 C113 1.361 . S
C115 C116 1.393 . S
C115 N119 1.413 . S
C116 H109 0.930 . S
C116 C115 1.393 . S
C116 C117 1.399 . S
C117 C116 1.399 . S
C117 C118 1.381 . S
C118 H110 0.930 1_565 S
C118 C114 1.390 . S
C118 C117 1.381 . S
N119 C112 1.286 . S
N119 C115 1.413 . S
H120 C125 0.930 . S
H121 C128 0.930 . S
H122 C130 0.930 . S
H123 C124 1.016 . S
C124 H123 1.016 . S
C124 N131 1.286 . S
C125 H120 0.930 . S
C125 C126 1.397 . S
C125 C127 1.361 . S
C126 C125 1.397 . S
C126 C130 1.390 . S
C127 C125 1.361 . S
C127 C128 1.393 . S
C127 N131 1.413 . S
C128 H121 0.930 . S
C128 C127 1.393 . S
C128 C129 1.399 . S
C129 C128 1.399 . S
C129 C130 1.381 . S
C130 H122 0.930 . S
C130 C126 1.390 . S
C130 C129 1.381 . S
N131 C124 1.286 . S
N131 C127 1.413 . S
H132 C137 0.930 . S
H133 C140 0.930 . S
H134 C142 0.930 . S
H135 C136 1.016 . S
C136 H135 1.016 . S
C136 N143 1.286 . S
C137 H132 0.930 . S
C137 C138 1.397 . S
C137 C139 1.361 . S
C138 C137 1.397 . S
C138 C142 1.390 . S
C139 C137 1.361 . S
C139 C140 1.393 . S
C139 N143 1.413 . S
C140 H133 0.930 . S
C140 C139 1.393 . S
C140 C141 1.399 . S
C141 C140 1.399 . S
C141 C142 1.381 . S
C142 H134 0.930 . S
C142 C138 1.390 . S
C142 C141 1.381 . S
N143 C136 1.286 . S
N143 C139 1.413 . S
H144 C149 0.930 . S
H145 C152 0.930 . S
H146 C154 0.930 . S
H147 C148 1.016 . S
C148 H147 1.016 . S
C148 N155 1.286 . S
C149 H144 0.930 . S
C149 C150 1.397 . S
C149 C151 1.361 . S
C150 C149 1.397 . S
C150 C154 1.390 . S
C151 C149 1.361 . S
C151 C152 1.393 . S
C151 N155 1.413 . S
C152 H145 0.930 . S
C152 C151 1.393 . S
C152 C153 1.399 . S
C153 C152 1.399 . S
C153 C154 1.381 . S
C154 H146 0.930 . S
C154 C150 1.390 . S
C154 C153 1.381 . S
N155 C148 1.286 . S
N155 C151 1.413 . S
H156 C161 0.930 . S
H157 C164 0.930 . S
H158 C166 0.930 . S
H159 C160 1.003 1_554 S
C160 H159 1.003 1_556 S
C160 N167 1.312 . S
C161 H156 0.930 . S
C161 C162 1.397 . S
C161 C163 1.361 . S
C162 C161 1.397 . S
C162 C166 1.390 . S
C163 C161 1.361 . S
C163 C164 1.393 . S
C163 N167 1.413 . S
C164 H157 0.930 . S
C164 C163 1.393 . S
C164 C165 1.399 . S
C165 C164 1.399 . S
C165 C166 1.381 . S
C166 H158 0.930 . S
C166 C162 1.390 . S
C166 C165 1.381 . S
N167 C160 1.312 . S
N167 C163 1.413 . S
H168 C173 0.930 . S
H169 C176 0.930 . S
H170 C178 0.930 . S
H171 C172 1.016 . S
C172 H171 1.016 . S
C172 N179 1.286 . S
C173 H168 0.930 . S
C173 C174 1.397 . S
C173 C175 1.361 . S
C174 C173 1.397 . S
C174 C178 1.390 . S
C175 C173 1.361 . S
C175 C176 1.393 . S
C175 N179 1.413 . S
C176 H169 0.930 . S
C176 C175 1.393 . S
C176 C177 1.399 . S
C177 C176 1.399 . S
C177 C178 1.381 . S
C178 H170 0.930 . S
C178 C174 1.390 . S
C178 C177 1.381 . S
N179 C172 1.286 . S
N179 C175 1.413 . S
H180 C185 0.930 . S
H181 C188 0.930 . S
H182 C190 0.930 . S
H183 C184 1.016 . S
C184 H183 1.016 . S
C184 N191 1.286 . S
C185 H180 0.930 . S
C185 C186 1.397 . S
C185 C187 1.361 . S
C186 C185 1.397 . S
C186 C190 1.390 . S
C187 C185 1.361 . S
C187 C188 1.393 . S
C187 N191 1.413 . S
C188 H181 0.930 . S
C188 C187 1.393 . S
C188 C189 1.399 . S
C189 C188 1.399 . S
C189 C190 1.381 . S
C190 H182 0.930 . S
C190 C186 1.390 . S
C190 C189 1.381 . S
N191 C184 1.286 . S
N191 C187 1.413 . S
Li192 N209 1.990 . S
Li192 O252 1.956 . S
Li192 O253 1.970 . S
Li192 O254 1.961 1_554 S
Li193 N217 1.990 . S
Li193 O252 1.970 . S
Li193 O253 1.956 . S
Li193 O255 1.961 . S
Li194 N239 1.990 . S
Li194 O252 1.961 1_556 S
Li194 O254 1.956 . S
Li194 O255 1.970 1_556 S
Li195 N245 1.990 . S
Li195 O253 1.961 . S
Li195 O254 1.970 1_554 S
Li195 O255 1.956 . S
C196 C198 1.348 . S
C196 C199 1.356 1_554 S
C196 O252 1.325 . S
N197 C200 1.314 . S
N197 C201 1.279 1_554 S
C198 C196 1.348 . S
C198 C200 1.353 . S
C198 H256 0.929 . S
C199 C196 1.356 1_556 S
C199 C201 1.358 . S
C199 H257 0.930 . S
C200 N197 1.314 . S
C200 C198 1.353 . S
C200 H258 0.930 . S
C201 N197 1.279 1_556 S
C201 C199 1.358 . S
C201 H259 0.930 . S
C202 C205 1.348 . S
C202 C206 1.356 . S
C202 O253 1.325 . S
C203 N204 1.279 . S
C203 C206 1.358 . S
C203 H260 0.930 . S
N204 C203 1.279 . S
N204 C207 1.314 . S
C205 C202 1.348 . S
C205 C207 1.353 . S
C205 H261 0.929 . S
C206 C202 1.356 . S
C206 C203 1.358 . S
C206 H262 0.930 . S
C207 N204 1.314 . S
C207 C205 1.353 . S
C207 H263 0.930 . S
C208 N209 1.314 . S
C208 C213 1.360 . S
C208 H214 0.930 1_554 S
N209 Li192 1.990 . S
N209 C208 1.314 . S
N209 C211 1.279 . S
C210 C211 1.358 . S
C210 C212 1.356 . S
C210 H264 0.930 . S
C211 N209 1.279 . S
C211 C210 1.358 . S
C211 H215 0.930 . S
C212 C210 1.356 . S
C212 C213 1.354 . S
C213 C208 1.360 . S
C213 C212 1.354 . S
C213 H265 0.918 1_554 S
H214 C208 0.930 1_556 S
H215 C211 0.930 . S
C216 N217 1.314 . S
C216 C218 1.353 . S
C216 H222 0.930 . S
N217 Li193 1.990 . S
N217 C216 1.314 . S
N217 C220 1.279 . S
C218 C216 1.353 . S
C218 C221 1.348 . S
C218 H266 0.929 . S
C219 C220 1.358 . S
C219 C221 1.356 . S
C219 H267 0.930 . S
C220 N217 1.279 . S
C220 C219 1.358 . S
C220 H223 0.930 . S
C221 C218 1.348 . S
C221 C219 1.356 . S
H222 C216 0.930 . S
H223 C220 0.930 . S
C224 C226 1.348 . S
C224 C227 1.356 . S
C224 O254 1.325 . S
N225 C228 1.314 . S
N225 C229 1.279 . S
C226 C224 1.348 . S
C226 C228 1.353 . S
C226 H268 0.929 . S
C227 C224 1.356 . S
C227 C229 1.358 . S
C227 H269 0.930 . S
C228 N225 1.314 . S
C228 C226 1.353 . S
C228 H270 0.930 . S
C229 N225 1.279 . S
C229 C227 1.358 . S
C229 H271 0.930 . S
C230 C231 1.348 1_554 S
C230 C232 1.356 . S
C230 O255 1.325 . S
C231 C230 1.348 1_556 S
C231 C233 1.342 1_556 S
C231 H272 0.929 . S
C232 C230 1.356 . S
C232 C234 1.358 . S
C232 H273 0.930 . S
C233 C231 1.342 1_554 S
C233 N235 1.361 . S
C233 H274 0.891 1_554 S
C234 C232 1.358 . S
C234 N235 1.279 . S
C234 H275 0.930 . S
N235 C233 1.361 . S
N235 C234 1.279 . S
C236 C238 1.353 . S
C236 N239 1.314 . S
C236 H242 0.930 . S
C237 N239 1.279 . S
C237 C240 1.358 . S
C237 H243 0.930 . S
C238 C236 1.353 . S
C238 C241 1.348 . S
C238 H276 0.929 . S
N239 Li194 1.990 . S
N239 C236 1.314 . S
N239 C237 1.279 . S
C240 C237 1.358 . S
C240 C241 1.356 . S
C240 H277 0.930 . S
C241 C238 1.348 . S
C241 C240 1.356 . S
H242 C236 0.930 . S
H243 C237 0.930 . S
C244 N245 1.314 . S
C244 C246 1.353 . S
C244 H250 0.930 . S
N245 Li195 1.990 . S
N245 C244 1.314 . S
N245 C248 1.279 . S
C246 C244 1.353 . S
C246 C249 1.348 . S
C246 H278 0.929 . S
C247 C248 1.358 . S
C247 C249 1.356 . S
C247 H279 0.930 . S
C248 N245 1.279 . S
C248 C247 1.358 . S
C248 H251 0.930 . S
C249 C246 1.348 . S
C249 C247 1.356 . S
H250 C244 0.930 . S
H251 C248 0.930 . S
O252 Li192 1.956 . S
O252 Li193 1.970 . S
O252 Li194 1.961 1_554 S
O252 C196 1.325 . S
O253 Li192 1.970 . S
O253 Li193 1.956 . S
O253 Li195 1.961 . S
O253 C202 1.325 . S
O254 Li192 1.961 1_556 S
O254 Li194 1.956 . S
O254 Li195 1.970 1_556 S
O254 C224 1.325 . S
O255 Li193 1.961 . S
O255 Li194 1.970 1_554 S
O255 Li195 1.956 . S
O255 C230 1.325 . S
H256 C198 0.929 . S
H257 C199 0.930 . S
H258 C200 0.930 . S
H259 C201 0.930 . S
H260 C203 0.930 . S
H261 C205 0.929 . S
H262 C206 0.930 . S
H263 C207 0.930 . S
H264 C210 0.930 . S
H265 C213 0.918 1_556 S
H266 C218 0.929 . S
H267 C219 0.930 . S
H268 C226 0.929 . S
H269 C227 0.930 . S
H270 C228 0.930 . S
H271 C229 0.930 . S
H272 C231 0.929 . S
H273 C232 0.930 . S
H274 C233 0.891 1_556 S
H275 C234 0.930 . S
H276 C238 0.929 . S
H277 C240 0.930 . S
H278 C246 0.929 . S
H279 C247 0.930 . S
Li280 N297 1.990 . S
Li280 O340 1.956 . S
Li280 O341 1.970 . S
Li280 O342 1.961 . S
Li281 N305 1.990 . S
Li281 O340 1.970 . S
Li281 O341 1.956 . S
Li281 O343 1.961 . S
Li282 N327 1.990 . S
Li282 O340 1.961 . S
Li282 O342 1.956 . S
Li282 O343 1.970 . S
Li283 N333 1.990 . S
Li283 O341 1.961 . S
Li283 O342 1.970 . S
Li283 O343 1.956 . S
C284 C286 1.348 . S
C284 C287 1.356 . S
C284 O340 1.325 . S
N285 C288 1.314 . S
N285 C289 1.279 . S
C286 C284 1.348 . S
C286 C288 1.353 . S
C286 H344 0.929 . S
C287 C284 1.356 . S
C287 C289 1.358 . S
C287 H345 0.930 . S
C288 N285 1.314 . S
C288 C286 1.353 . S
C288 H346 0.930 . S
C289 N285 1.279 . S
C289 C287 1.358 . S
C289 H347 0.930 . S
C290 C293 1.348 . S
C290 C294 1.356 . S
C290 O341 1.325 . S
C291 N292 1.279 . S
C291 C294 1.358 . S
C291 H348 0.930 . S
N292 C291 1.279 . S
N292 C295 1.314 . S
C293 C290 1.348 . S
C293 C295 1.353 . S
C293 H349 0.929 . S
C294 C290 1.356 . S
C294 C291 1.358 . S
C294 H350 0.930 . S
C295 N292 1.314 . S
C295 C293 1.353 . S
C295 H351 0.930 . S
C296 N297 1.314 . S
C296 C301 1.353 . S
C296 H302 0.930 . S
N297 Li280 1.990 . S
N297 C296 1.314 . S
N297 C299 1.279 . S
C298 C299 1.358 . S
C298 C300 1.356 . S
C298 H352 0.930 . S
C299 N297 1.279 . S
C299 C298 1.358 . S
C299 H303 0.930 . S
C300 C298 1.356 . S
C300 C301 1.348 . S
C301 C296 1.353 . S
C301 C300 1.348 . S
C301 H353 0.929 . S
H302 C296 0.930 . S
H303 C299 0.930 . S
C304 N305 1.314 . S
C304 C306 1.353 . S
C304 H310 0.930 . S
N305 Li281 1.990 . S
N305 C304 1.314 . S
N305 C308 1.279 . S
C306 C304 1.353 . S
C306 C309 1.348 . S
C306 H354 0.929 . S
C307 C308 1.358 . S
C307 C309 1.356 . S
C307 H355 0.930 . S
C308 N305 1.279 . S
C308 C307 1.358 . S
C308 H311 0.930 . S
C309 C306 1.348 . S
C309 C307 1.356 . S
H310 C304 0.930 . S
H311 C308 0.930 . S
C312 C314 1.348 . S
C312 C315 1.356 . S
C312 O342 1.325 . S
N313 C316 1.314 . S
N313 C317 1.279 . S
C314 C312 1.348 . S
C314 C316 1.353 . S
C314 H356 0.929 . S
C315 C312 1.356 . S
C315 C317 1.358 . S
C315 H357 0.930 . S
C316 N313 1.314 . S
C316 C314 1.353 . S
C316 H358 0.930 . S
C317 N313 1.279 . S
C317 C315 1.358 . S
C317 H359 0.930 . S
C318 C319 1.348 . S
C318 C320 1.356 . S
C318 O343 1.325 . S
C319 C318 1.348 . S
C319 C321 1.353 . S
C319 H360 0.929 . S
C320 C318 1.356 . S
C320 C322 1.358 . S
C320 H361 0.930 . S
C321 C319 1.353 . S
C321 N323 1.314 . S
C321 H362 0.930 . S
C322 C320 1.358 . S
C322 N323 1.279 . S
C322 H363 0.930 . S
N323 C321 1.314 . S
N323 C322 1.279 . S
C324 C326 1.353 . S
C324 N327 1.314 . S
C324 H330 0.930 . S
C325 N327 1.279 . S
C325 C328 1.358 . S
C325 H331 0.930 . S
C326 C324 1.353 . S
C326 C329 1.348 . S
C326 H364 0.929 . S
N327 Li282 1.990 . S
N327 C324 1.314 . S
N327 C325 1.279 . S
C328 C325 1.358 . S
C328 C329 1.356 . S
C328 H365 0.930 . S
C329 C326 1.348 . S
C329 C328 1.356 . S
H330 C324 0.930 . S
H331 C325 0.930 . S
C332 N333 1.314 . S
C332 C334 1.353 . S
C332 H338 0.930 . S
N333 Li283 1.990 . S
N333 C332 1.314 . S
N333 C336 1.279 . S
C334 C332 1.353 . S
C334 C337 1.348 . S
C334 H366 0.929 . S
C335 C336 1.358 . S
C335 C337 1.356 . S
C335 H367 0.930 . S
C336 N333 1.279 . S
C336 C335 1.358 . S
C336 H339 0.930 . S
C337 C334 1.348 . S
C337 C335 1.356 . S
H338 C332 0.930 . S
H339 C336 0.930 . S
O340 Li280 1.956 . S
O340 Li281 1.970 . S
O340 Li282 1.961 . S
O340 C284 1.325 . S
O341 Li280 1.970 . S
O341 Li281 1.956 . S
O341 Li283 1.961 . S
O341 C290 1.325 . S
O342 Li280 1.961 . S
O342 Li282 1.956 . S
O342 Li283 1.970 . S
O342 C312 1.325 . S
O343 Li281 1.961 . S
O343 Li282 1.970 . S
O343 Li283 1.956 . S
O343 C318 1.325 . S
H344 C286 0.929 . S
H345 C287 0.930 . S
H346 C288 0.930 . S
H347 C289 0.930 . S
H348 C291 0.930 . S
H349 C293 0.929 . S
H350 C294 0.930 . S
H351 C295 0.930 . S
H352 C298 0.930 . S
H353 C301 0.929 . S
H354 C306 0.929 . S
H355 C307 0.930 . S
H356 C314 0.929 . S
H357 C315 0.930 . S
H358 C316 0.930 . S
H359 C317 0.930 . S
H360 C319 0.929 . S
H361 C320 0.930 . S
H362 C321 0.930 . S
H363 C322 0.930 . S
H364 C326 0.929 . S
H365 C328 0.930 . S
H366 C334 0.929 . S
H367 C335 0.930 . S
Li368 N385 1.990 . S
Li368 O428 1.956 . S
Li368 O429 1.970 1_556 S
Li368 O430 1.961 . S
Li369 N393 1.990 . S
Li369 O428 1.970 1_554 S
Li369 O429 1.956 . S
Li369 O431 1.961 . S
Li370 N415 1.990 . S
Li370 O428 1.961 . S
Li370 O430 1.956 . S
Li370 O431 1.970 1_556 S
Li371 N421 1.990 . S
Li371 O429 1.961 . S
Li371 O430 1.970 1_554 S
Li371 O431 1.956 . S
C372 C374 1.348 1_556 S
C372 C375 1.356 . S
C372 O428 1.325 . S
N373 C376 1.314 1_556 S
N373 C377 1.279 . S
C374 C372 1.348 1_554 S
C374 C376 1.353 . S
C374 H432 0.929 . S
C375 C372 1.356 . S
C375 C377 1.358 . S
C375 H433 0.930 . S
C376 N373 1.314 1_554 S
C376 C374 1.353 . S
C376 H434 0.930 . S
C377 N373 1.279 . S
C377 C375 1.358 . S
C377 H435 0.930 . S
C378 C381 1.348 . S
C378 C382 1.356 . S
C378 O429 1.325 . S
C379 N380 1.279 . S
C379 C382 1.358 . S
C379 H436 0.930 . S
N380 C379 1.279 . S
N380 C383 1.314 . S
C381 C378 1.348 . S
C381 C383 1.353 . S
C381 H437 0.929 . S
C382 C378 1.356 . S
C382 C379 1.358 . S
C382 H438 0.930 . S
C383 N380 1.314 . S
C383 C381 1.353 . S
C383 H439 0.930 . S
C384 N385 1.314 . S
C384 C389 1.353 . S
C384 H390 0.930 . S
N385 Li368 1.990 . S
N385 C384 1.314 . S
N385 C387 1.279 . S
C386 C387 1.358 . S
C386 C388 1.356 . S
C386 H440 0.930 . S
C387 N385 1.279 . S
C387 C386 1.358 . S
C387 H391 0.930 . S
C388 C386 1.356 . S
C388 C389 1.348 . S
C389 C384 1.353 . S
C389 C388 1.348 . S
C389 H441 0.929 . S
H390 C384 0.930 . S
H391 C387 0.930 . S
C392 N393 1.314 . S
C392 C394 1.353 . S
C392 H398 0.930 . S
N393 Li369 1.990 . S
N393 C392 1.314 . S
N393 C396 1.279 . S
C394 C392 1.353 . S
C394 C397 1.348 . S
C394 H442 0.929 . S
C395 C396 1.358 . S
C395 C397 1.356 . S
C395 H443 0.930 . S
C396 N393 1.279 . S
C396 C395 1.358 . S
C396 H399 0.930 . S
C397 C394 1.348 . S
C397 C395 1.356 . S
H398 C392 0.930 . S
H399 C396 0.930 . S
C400 C402 1.348 . S
C400 C403 1.356 . S
C400 O430 1.325 . S
N401 C404 1.314 . S
N401 C405 1.279 . S
C402 C400 1.348 . S
C402 C404 1.353 . S
C402 H444 0.929 . S
C403 C400 1.356 . S
C403 C405 1.358 . S
C403 H445 0.930 . S
C404 N401 1.314 . S
C404 C402 1.353 . S
C404 H446 0.930 . S
C405 N401 1.279 . S
C405 C403 1.358 . S
C405 H447 0.930 . S
C406 C407 1.348 1_554 S
C406 C408 1.356 . S
C406 O431 1.325 . S
C407 C406 1.348 1_556 S
C407 C409 1.353 . S
C407 H448 0.929 . S
C408 C406 1.356 . S
C408 C410 1.358 . S
C408 H449 0.930 . S
C409 C407 1.353 . S
C409 N411 1.314 1_556 S
C409 H450 0.930 . S
C410 C408 1.358 . S
C410 N411 1.279 . S
C410 H451 0.930 . S
N411 C409 1.314 1_554 S
N411 C410 1.279 . S
C412 C414 1.353 . S
C412 N415 1.314 . S
C412 H418 0.930 . S
C413 N415 1.279 . S
C413 C416 1.358 . S
C413 H419 0.930 . S
C414 C412 1.353 . S
C414 C417 1.348 . S
C414 H452 0.929 . S
N415 Li370 1.990 . S
N415 C412 1.314 . S
N415 C413 1.279 . S
C416 C413 1.358 . S
C416 C417 1.356 . S
C416 H453 0.930 . S
C417 C414 1.348 . S
C417 C416 1.356 . S
H418 C412 0.930 . S
H419 C413 0.930 . S
C420 N421 1.314 . S
C420 C422 1.353 . S
C420 H426 0.930 . S
N421 Li371 1.990 . S
N421 C420 1.314 . S
N421 C424 1.279 . S
C422 C420 1.353 . S
C422 C425 1.348 . S
C422 H454 0.929 . S
C423 C424 1.358 . S
C423 C425 1.356 . S
C423 H455 0.930 . S
C424 N421 1.279 . S
C424 C423 1.358 . S
C424 H427 0.930 . S
C425 C422 1.348 . S
C425 C423 1.356 . S
H426 C420 0.930 . S
H427 C424 0.930 . S
O428 Li368 1.956 . S
O428 Li369 1.970 1_556 S
O428 Li370 1.961 . S
O428 C372 1.325 . S
O429 Li368 1.970 1_554 S
O429 Li369 1.956 . S
O429 Li371 1.961 . S
O429 C378 1.325 . S
O430 Li368 1.961 . S
O430 Li370 1.956 . S
O430 Li371 1.970 1_556 S
O430 C400 1.325 . S
O431 Li369 1.961 . S
O431 Li370 1.970 1_554 S
O431 Li371 1.956 . S
O431 C406 1.325 . S
H432 C374 0.929 . S
H433 C375 0.930 . S
H434 C376 0.930 . S
H435 C377 0.930 . S
H436 C379 0.930 . S
H437 C381 0.929 . S
H438 C382 0.930 . S
H439 C383 0.930 . S
H440 C386 0.930 . S
H441 C389 0.929 . S
H442 C394 0.929 . S
H443 C395 0.930 . S
H444 C402 0.929 . S
H445 C403 0.930 . S
H446 C404 0.930 . S
H447 C405 0.930 . S
H448 C407 0.929 . S
H449 C408 0.930 . S
H450 C409 0.930 . S
H451 C410 0.930 . S
H452 C414 0.929 . S
H453 C416 0.930 . S
H454 C422 0.929 . S
H455 C423 0.930 . S
Li456 N473 1.990 . S
Li456 O516 1.956 . S
Li456 O517 1.970 . S
Li456 O518 1.961 . S
Li457 N481 1.990 . S
Li457 O516 1.970 . S
Li457 O517 1.956 . S
Li457 O519 1.961 1_545 S
Li458 N503 1.990 . S
Li458 O516 1.961 . S
Li458 O518 1.956 . S
Li458 O519 1.970 1_545 S
Li459 N509 1.990 . S
Li459 O517 1.961 1_565 S
Li459 O518 1.970 1_565 S
Li459 O519 1.956 . S
C460 C462 1.348 . S
C460 C463 1.356 . S
C460 O516 1.325 . S
N461 C464 1.314 . S
N461 C465 1.279 . S
C462 C460 1.348 . S
C462 C464 1.353 . S
C462 H520 0.929 . S
C463 C460 1.356 . S
C463 C465 1.358 . S
C463 H521 0.930 . S
C464 N461 1.314 . S
C464 C462 1.353 . S
C464 H522 0.930 . S
C465 N461 1.279 . S
C465 C463 1.358 . S
C465 H523 0.930 . S
C466 C469 1.348 . S
C466 C470 1.356 1_545 S
C466 O517 1.325 . S
C467 N468 1.279 1_565 S
C467 C470 1.358 . S
C467 H524 0.930 . S
N468 C467 1.279 1_545 S
N468 C471 1.314 . S
C469 C466 1.348 . S
C469 C471 1.353 . S
C469 H525 0.929 . S
C470 C466 1.356 1_565 S
C470 C467 1.358 . S
C470 H526 0.930 . S
C471 N468 1.314 . S
C471 C469 1.353 . S
C471 H527 0.930 . S
C472 N473 1.314 . S
C472 C477 1.353 . S
C472 H478 0.930 . S
N473 Li456 1.990 . S
N473 C472 1.314 . S
N473 C475 1.279 . S
C474 C475 1.358 . S
C474 C476 1.356 . S
C474 H528 0.930 . S
C475 N473 1.279 . S
C475 C474 1.358 . S
C475 H479 0.930 . S
C476 C474 1.356 . S
C476 C477 1.348 . S
C477 C472 1.353 . S
C477 C476 1.348 . S
C477 H529 0.929 . S
H478 C472 0.930 . S
H479 C475 0.930 . S
C480 N481 1.314 . S
C480 C482 1.353 . S
C480 H486 0.930 . S
N481 Li457 1.990 . S
N481 C480 1.314 . S
N481 C484 1.279 . S
C482 C480 1.353 . S
C482 C485 1.348 . S
C482 H530 0.918 1_655 S
C483 C484 1.358 . S
C483 C485 1.356 . S
C483 H531 0.930 . S
C484 N481 1.279 . S
C484 C483 1.358 . S
C484 H487 0.930 . S
C485 C482 1.348 . S
C485 C483 1.356 . S
H486 C480 0.930 . S
H487 C484 0.930 . S
C488 C490 1.348 . S
C488 C491 1.356 . S
C488 O518 1.325 . S
N489 C492 1.314 . S
N489 C493 1.279 . S
C490 C488 1.348 . S
C490 C492 1.353 . S
C490 H532 0.929 1_545 S
C491 C488 1.356 . S
C491 C493 1.358 . S
C491 H533 0.930 . S
C492 N489 1.314 . S
C492 C490 1.353 . S
C492 H534 0.906 1_545 S
C493 N489 1.279 . S
C493 C491 1.358 . S
C493 H535 0.930 . S
C494 C495 1.348 . S
C494 C496 1.356 . S
C494 O519 1.325 . S
C495 C494 1.348 . S
C495 C497 1.353 . S
C495 H536 0.929 . S
C496 C494 1.356 . S
C496 C498 1.358 . S
C496 H537 0.930 . S
C497 C495 1.353 . S
C497 N499 1.314 . S
C497 H538 0.930 . S
C498 C496 1.358 . S
C498 N499 1.279 . S
C498 H539 0.930 . S
N499 C497 1.314 . S
N499 C498 1.279 . S
C500 C502 1.353 . S
C500 N503 1.314 . S
C500 H506 0.930 . S
C501 N503 1.279 . S
C501 C504 1.358 . S
C501 H507 0.930 . S
C502 C500 1.353 . S
C502 C505 1.348 . S
C502 H540 0.929 . S
N503 Li458 1.990 . S
N503 C500 1.314 . S
N503 C501 1.279 . S
C504 C501 1.358 . S
C504 C505 1.356 . S
C504 H541 0.930 . S
C505 C502 1.348 . S
C505 C504 1.356 . S
H506 C500 0.930 . S
H507 C501 0.930 . S
C508 N509 1.314 . S
C508 C510 1.353 . S
C508 H514 0.930 . S
N509 Li459 1.990 . S
N509 C508 1.314 . S
N509 C512 1.279 . S
C510 C508 1.353 . S
C510 C513 1.348 . S
C510 H542 0.929 . S
C511 C512 1.358 . S
C511 C513 1.356 . S
C511 H543 0.930 . S
C512 N509 1.279 . S
C512 C511 1.358 . S
C512 H515 0.930 . S
C513 C510 1.348 . S
C513 C511 1.356 . S
H514 C508 0.930 . S
H515 C512 0.930 . S
O516 Li456 1.956 . S
O516 Li457 1.970 . S
O516 Li458 1.961 . S
O516 C460 1.325 . S
O517 Li456 1.970 . S
O517 Li457 1.956 . S
O517 Li459 1.961 1_545 S
O517 C466 1.325 . S
O518 Li456 1.961 . S
O518 Li458 1.956 . S
O518 Li459 1.970 1_545 S
O518 C488 1.325 . S
O519 Li457 1.961 1_565 S
O519 Li458 1.970 1_565 S
O519 Li459 1.956 . S
O519 C494 1.325 . S
H520 C462 0.929 . S
H521 C463 0.930 . S
H522 C464 0.930 . S
H523 C465 0.930 . S
H524 C467 0.930 . S
H525 C469 0.929 . S
H526 C470 0.930 . S
H527 C471 0.930 . S
H528 C474 0.930 . S
H529 C477 0.929 . S
H530 C482 0.918 1_455 S
H531 C483 0.930 . S
H532 C490 0.929 1_565 S
H533 C491 0.930 . S
H534 C492 0.906 1_565 S
H535 C493 0.930 . S
H536 C495 0.929 . S
H537 C496 0.930 . S
H538 C497 0.930 . S
H539 C498 0.930 . S
H540 C502 0.929 . S
H541 C504 0.930 . S
H542 C510 0.929 . S
H543 C511 0.930 . S
Li544 N561 1.990 . S
Li544 O604 1.956 . S
Li544 O605 1.970 . S
Li544 O606 1.961 . S
Li545 N569 1.990 . S
Li545 O604 1.970 . S
Li545 O605 1.956 . S
Li545 O607 1.961 . S
Li546 N591 1.990 . S
Li546 O604 1.961 . S
Li546 O606 1.956 . S
Li546 O607 1.970 . S
Li547 N597 1.990 . S
Li547 O605 1.961 . S
Li547 O606 1.970 . S
Li547 O607 1.956 . S
C548 C550 1.348 . S
C548 C551 1.356 . S
C548 O604 1.325 . S
N549 C552 1.314 . S
N549 C553 1.279 . S
C550 C548 1.348 . S
C550 C552 1.353 . S
C550 H608 0.929 . S
C551 C548 1.356 . S
C551 C553 1.358 . S
C551 H609 0.930 . S
C552 N549 1.314 . S
C552 C550 1.353 . S
C552 H610 0.930 . S
C553 N549 1.279 . S
C553 C551 1.358 . S
C553 H611 0.930 . S
C554 C557 1.348 . S
C554 C558 1.356 . S
C554 O605 1.325 . S
C555 N556 1.279 . S
C555 C558 1.358 . S
C555 H612 0.930 . S
N556 C555 1.279 . S
N556 C559 1.314 . S
C557 C554 1.348 . S
C557 C559 1.353 . S
C557 H613 0.929 . S
C558 C554 1.356 . S
C558 C555 1.358 . S
C558 H614 0.930 . S
C559 N556 1.314 . S
C559 C557 1.353 . S
C559 H615 0.930 . S
C560 N561 1.314 . S
C560 C565 1.353 . S
C560 H566 0.930 . S
N561 Li544 1.990 . S
N561 C560 1.314 . S
N561 C563 1.279 . S
C562 C563 1.358 . S
C562 C564 1.356 . S
C562 H616 0.930 . S
C563 N561 1.279 . S
C563 C562 1.358 . S
C563 H567 0.930 . S
C564 C562 1.356 . S
C564 C565 1.348 . S
C565 C560 1.353 . S
C565 C564 1.348 . S
C565 H617 0.929 . S
H566 C560 0.930 . S
H567 C563 0.930 . S
C568 N569 1.314 . S
C568 C570 1.353 . S
C568 H574 0.930 . S
N569 Li545 1.990 . S
N569 C568 1.314 . S
N569 C572 1.279 . S
C570 C568 1.353 . S
C570 C573 1.348 . S
C570 H618 0.929 . S
C571 C572 1.358 . S
C571 C573 1.356 . S
C571 H619 0.930 . S
C572 N569 1.279 . S
C572 C571 1.358 . S
C572 H575 0.930 . S
C573 C570 1.348 . S
C573 C571 1.356 . S
H574 C568 0.930 . S
H575 C572 0.930 . S
C576 C578 1.348 . S
C576 C579 1.356 . S
C576 O606 1.325 . S
N577 C580 1.314 . S
N577 C581 1.279 . S
C578 C576 1.348 . S
C578 C580 1.353 . S
C578 H620 0.929 . S
C579 C576 1.356 . S
C579 C581 1.358 . S
C579 H621 0.930 . S
C580 N577 1.314 . S
C580 C578 1.353 . S
C580 H622 0.930 . S
C581 N577 1.279 . S
C581 C579 1.358 . S
C581 H623 0.930 . S
C582 C583 1.348 . S
C582 C584 1.356 . S
C582 O607 1.325 . S
C583 C582 1.348 . S
C583 C585 1.353 . S
C583 H624 0.929 . S
C584 C582 1.356 . S
C584 C586 1.358 . S
C584 H625 0.930 . S
C585 C583 1.353 . S
C585 N587 1.314 . S
C585 H626 0.930 . S
C586 C584 1.358 . S
C586 N587 1.279 . S
C586 H627 0.930 . S
N587 C585 1.314 . S
N587 C586 1.279 . S
C588 C590 1.353 . S
C588 N591 1.314 . S
C588 H594 0.930 . S
C589 N591 1.279 . S
C589 C592 1.358 . S
C589 H595 0.930 . S
C590 C588 1.353 . S
C590 C593 1.348 . S
C590 H628 0.929 . S
N591 Li546 1.990 . S
N591 C588 1.314 . S
N591 C589 1.279 . S
C592 C589 1.358 . S
C592 C593 1.356 . S
C592 H629 0.930 . S
C593 C590 1.348 . S
C593 C592 1.356 . S
H594 C588 0.930 . S
H595 C589 0.930 . S
C596 N597 1.314 . S
C596 C598 1.353 . S
C596 H602 0.930 . S
N597 Li547 1.990 . S
N597 C596 1.314 . S
N597 C600 1.279 . S
C598 C596 1.353 . S
C598 C601 1.348 . S
C598 H630 0.929 . S
C599 C600 1.358 . S
C599 C601 1.356 . S
C599 H631 0.930 . S
C600 N597 1.279 . S
C600 C599 1.358 . S
C600 H603 0.930 . S
C601 C598 1.348 . S
C601 C599 1.356 . S
H602 C596 0.930 . S
H603 C600 0.930 . S
O604 Li544 1.956 . S
O604 Li545 1.970 . S
O604 Li546 1.961 . S
O604 C548 1.325 . S
O605 Li544 1.970 . S
O605 Li545 1.956 . S
O605 Li547 1.961 . S
O605 C554 1.325 . S
O606 Li544 1.961 . S
O606 Li546 1.956 . S
O606 Li547 1.970 . S
O606 C576 1.325 . S
O607 Li545 1.961 . S
O607 Li546 1.970 . S
O607 Li547 1.956 . S
O607 C582 1.325 . S
H608 C550 0.929 . S
H609 C551 0.930 . S
H610 C552 0.930 . S
H611 C553 0.930 . S
H612 C555 0.930 . S
H613 C557 0.929 . S
H614 C558 0.930 . S
H615 C559 0.930 . S
H616 C562 0.930 . S
H617 C565 0.929 . S
H618 C570 0.929 . S
H619 C571 0.930 . S
H620 C578 0.929 . S
H621 C579 0.930 . S
H622 C580 0.930 . S
H623 C581 0.930 . S
H624 C583 0.929 . S
H625 C584 0.930 . S
H626 C585 0.930 . S
H627 C586 0.930 . S
H628 C590 0.929 . S
H629 C592 0.930 . S
H630 C598 0.929 . S
H631 C599 0.930 . S
Li632 N649 1.990 . S
Li632 O692 1.956 . S
Li632 O693 1.970 . S
Li632 O694 1.961 . S
Li633 N657 1.990 . S
Li633 O692 1.970 . S
Li633 O693 1.956 . S
Li633 O695 1.961 . S
Li634 N679 1.990 . S
Li634 O692 1.961 . S
Li634 O694 1.956 . S
Li634 O695 1.970 . S
Li635 N685 1.990 . S
Li635 O693 1.961 . S
Li635 O694 1.970 . S
Li635 O695 1.956 . S
C636 C638 1.348 . S
C636 C639 1.356 . S
C636 O692 1.325 . S
N637 C640 1.314 . S
N637 C641 1.279 . S
C638 C636 1.348 . S
C638 C640 1.353 . S
C638 H696 0.929 . S
C639 C636 1.356 . S
C639 C641 1.358 . S
C639 H697 0.930 . S
C640 N637 1.314 . S
C640 C638 1.353 . S
C640 H698 0.930 . S
C641 N637 1.279 . S
C641 C639 1.358 . S
C641 H699 0.930 . S
C642 C645 1.348 . S
C642 C646 1.356 . S
C642 O693 1.325 . S
C643 N644 1.279 . S
C643 C646 1.358 . S
C643 H700 0.930 . S
N644 C643 1.279 . S
N644 C647 1.314 . S
C645 C642 1.348 . S
C645 C647 1.353 . S
C645 H701 0.929 . S
C646 C642 1.356 . S
C646 C643 1.358 . S
C646 H702 0.930 . S
C647 N644 1.314 . S
C647 C645 1.353 . S
C647 H703 0.930 . S
C648 N649 1.314 . S
C648 C653 1.353 . S
C648 H654 0.930 . S
N649 Li632 1.990 . S
N649 C648 1.314 . S
N649 C651 1.279 . S
C650 C651 1.358 . S
C650 C652 1.356 . S
C650 H704 0.930 . S
C651 N649 1.279 . S
C651 C650 1.358 . S
C651 H655 0.930 . S
C652 C650 1.356 . S
C652 C653 1.348 . S
C653 C648 1.353 . S
C653 C652 1.348 . S
C653 H705 0.929 . S
H654 C648 0.930 . S
H655 C651 0.930 . S
C656 N657 1.314 . S
C656 C658 1.353 . S
C656 H662 0.930 . S
N657 Li633 1.990 . S
N657 C656 1.314 . S
N657 C660 1.279 . S
C658 C656 1.353 . S
C658 C661 1.348 . S
C658 H706 0.929 . S
C659 C660 1.358 . S
C659 C661 1.356 . S
C659 H707 0.930 . S
C660 N657 1.279 . S
C660 C659 1.358 . S
C660 H663 0.930 . S
C661 C658 1.348 . S
C661 C659 1.356 . S
H662 C656 0.930 . S
H663 C660 0.930 . S
C664 C666 1.348 . S
C664 C667 1.356 . S
C664 O694 1.325 . S
N665 C668 1.314 . S
N665 C669 1.279 . S
C666 C664 1.348 . S
C666 C668 1.353 . S
C666 H708 0.929 . S
C667 C664 1.356 . S
C667 C669 1.358 . S
C667 H709 0.930 . S
C668 N665 1.314 . S
C668 C666 1.353 . S
C668 H710 0.930 . S
C669 N665 1.279 . S
C669 C667 1.358 . S
C669 H711 0.930 . S
C670 C671 1.348 . S
C670 C672 1.356 . S
C670 O695 1.325 . S
C671 C670 1.348 . S
C671 C673 1.353 . S
C671 H712 0.929 . S
C672 C670 1.356 . S
C672 C674 1.358 . S
C672 H713 0.930 . S
C673 C671 1.353 . S
C673 N675 1.314 . S
C673 H714 0.930 . S
C674 C672 1.358 . S
C674 N675 1.279 . S
C674 H715 0.930 . S
N675 C673 1.314 . S
N675 C674 1.279 . S
C676 C678 1.353 . S
C676 N679 1.314 . S
C676 H682 0.930 . S
C677 N679 1.279 . S
C677 C680 1.358 . S
C677 H683 0.930 . S
C678 C676 1.353 . S
C678 C681 1.348 . S
C678 H716 0.929 . S
N679 Li634 1.990 . S
N679 C676 1.314 . S
N679 C677 1.279 . S
C680 C677 1.358 . S
C680 C681 1.356 . S
C680 H717 0.930 . S
C681 C678 1.348 . S
C681 C680 1.356 . S
H682 C676 0.930 . S
H683 C677 0.930 . S
C684 N685 1.314 . S
C684 C686 1.353 . S
C684 H690 0.930 . S
N685 Li635 1.990 . S
N685 C684 1.314 . S
N685 C688 1.279 . S
C686 C684 1.353 . S
C686 C689 1.348 . S
C686 H718 0.929 . S
C687 C688 1.358 . S
C687 C689 1.356 . S
C687 H719 0.930 . S
C688 N685 1.279 . S
C688 C687 1.358 . S
C688 H691 0.930 . S
C689 C686 1.348 . S
C689 C687 1.356 . S
H690 C684 0.930 . S
H691 C688 0.930 . S
O692 Li632 1.956 . S
O692 Li633 1.970 . S
O692 Li634 1.961 . S
O692 C636 1.325 . S
O693 Li632 1.970 . S
O693 Li633 1.956 . S
O693 Li635 1.961 . S
O693 C642 1.325 . S
O694 Li632 1.961 . S
O694 Li634 1.956 . S
O694 Li635 1.970 . S
O694 C664 1.325 . S
O695 Li633 1.961 . S
O695 Li634 1.970 . S
O695 Li635 1.956 . S
O695 C670 1.325 . S
H696 C638 0.929 . S
H697 C639 0.930 . S
H698 C640 0.930 . S
H699 C641 0.930 . S
H700 C643 0.930 . S
H701 C645 0.929 . S
H702 C646 0.930 . S
H703 C647 0.930 . S
H704 C650 0.930 . S
H705 C653 0.929 . S
H706 C658 0.929 . S
H707 C659 0.930 . S
H708 C666 0.929 . S
H709 C667 0.930 . S
H710 C668 0.930 . S
H711 C669 0.930 . S
H712 C671 0.929 . S
H713 C672 0.930 . S
H714 C673 0.930 . S
H715 C674 0.930 . S
H716 C678 0.929 . S
H717 C680 0.930 . S
H718 C686 0.929 . S
H719 C687 0.930 . S
Li720 N737 1.990 . S
Li720 O780 1.956 . S
Li720 O781 1.970 . S
Li720 O782 1.961 . S
Li721 N745 1.990 . S
Li721 O780 1.970 . S
Li721 O781 1.956 . S
Li721 O783 1.961 . S
Li722 N767 1.990 . S
Li722 O780 1.961 . S
Li722 O782 1.956 . S
Li722 O783 1.970 . S
Li723 N773 1.990 . S
Li723 O781 1.961 . S
Li723 O782 1.970 . S
Li723 O783 1.956 . S
C724 C726 1.348 . S
C724 C727 1.356 . S
C724 O780 1.325 . S
N725 C728 1.314 . S
N725 C729 1.279 . S
C726 C724 1.348 . S
C726 C728 1.353 . S
C726 H784 0.929 . S
C727 C724 1.356 . S
C727 C729 1.358 . S
C727 H785 0.930 . S
C728 N725 1.314 . S
C728 C726 1.353 . S
C728 H786 0.930 . S
C729 N725 1.279 . S
C729 C727 1.358 . S
C729 H787 0.930 . S
C730 C733 1.348 . S
C730 C734 1.356 . S
C730 O781 1.325 . S
C731 N732 1.279 . S
C731 C734 1.358 . S
C731 H788 0.930 . S
N732 C731 1.279 . S
N732 C735 1.314 . S
C733 C730 1.348 . S
C733 C735 1.353 . S
C733 H789 0.929 . S
C734 C730 1.356 . S
C734 C731 1.358 . S
C734 H790 0.930 . S
C735 N732 1.314 . S
C735 C733 1.353 . S
C735 H791 0.930 . S
C736 N737 1.314 . S
C736 C741 1.353 . S
C736 H742 0.930 . S
N737 Li720 1.990 . S
N737 C736 1.314 . S
N737 C739 1.279 . S
C738 C739 1.358 . S
C738 C740 1.356 . S
C738 H792 0.930 . S
C739 N737 1.279 . S
C739 C738 1.358 . S
C739 H743 0.930 . S
C740 C738 1.356 . S
C740 C741 1.348 . S
C741 C736 1.353 . S
C741 C740 1.348 . S
C741 H793 0.929 . S
H742 C736 0.930 . S
H743 C739 0.930 . S
C744 N745 1.314 . S
C744 C746 1.353 . S
C744 H750 0.930 . S
N745 Li721 1.990 . S
N745 C744 1.314 . S
N745 C748 1.279 . S
C746 C744 1.353 . S
C746 C749 1.348 . S
C746 H794 0.929 . S
C747 C748 1.358 . S
C747 C749 1.356 . S
C747 H795 0.930 . S
C748 N745 1.279 . S
C748 C747 1.358 . S
C748 H751 0.930 . S
C749 C746 1.348 . S
C749 C747 1.356 . S
H750 C744 0.930 . S
H751 C748 0.930 . S
C752 C754 1.348 . S
C752 C755 1.356 . S
C752 O782 1.325 . S
N753 C756 1.314 . S
N753 C757 1.279 . S
C754 C752 1.348 . S
C754 C756 1.353 . S
C754 H796 0.929 . S
C755 C752 1.356 . S
C755 C757 1.358 . S
C755 H797 0.930 . S
C756 N753 1.314 . S
C756 C754 1.353 . S
C756 H798 0.930 . S
C757 N753 1.279 . S
C757 C755 1.358 . S
C757 H799 0.930 . S
C758 C759 1.348 . S
C758 C760 1.356 . S
C758 O783 1.325 . S
C759 C758 1.348 . S
C759 C761 1.353 . S
C759 H800 0.929 . S
C760 C758 1.356 . S
C760 C762 1.358 . S
C760 H801 0.930 . S
C761 C759 1.353 . S
C761 N763 1.314 . S
C761 H802 0.930 . S
C762 C760 1.358 . S
C762 N763 1.279 . S
C762 H803 0.930 . S
N763 C761 1.314 . S
N763 C762 1.279 . S
C764 C766 1.353 . S
C764 N767 1.314 . S
C764 H770 0.930 . S
C765 N767 1.279 . S
C765 C768 1.358 . S
C765 H771 0.930 . S
C766 C764 1.353 . S
C766 C769 1.348 . S
C766 H804 0.929 . S
N767 Li722 1.990 . S
N767 C764 1.314 . S
N767 C765 1.279 . S
C768 C765 1.358 . S
C768 C769 1.356 . S
C768 H805 0.930 . S
C769 C766 1.348 . S
C769 C768 1.356 . S
H770 C764 0.930 . S
H771 C765 0.930 . S
C772 N773 1.314 . S
C772 C774 1.353 . S
C772 H778 0.930 . S
N773 Li723 1.990 . S
N773 C772 1.314 . S
N773 C776 1.279 . S
C774 C772 1.353 . S
C774 C777 1.348 . S
C774 H806 0.929 . S
C775 C776 1.358 . S
C775 C777 1.356 . S
C775 H807 0.930 . S
C776 N773 1.279 . S
C776 C775 1.358 . S
C776 H779 0.930 . S
C777 C774 1.348 . S
C777 C775 1.356 . S
H778 C772 0.930 . S
H779 C776 0.930 . S
O780 Li720 1.956 . S
O780 Li721 1.970 . S
O780 Li722 1.961 . S
O780 C724 1.325 . S
O781 Li720 1.970 . S
O781 Li721 1.956 . S
O781 Li723 1.961 . S
O781 C730 1.325 . S
O782 Li720 1.961 . S
O782 Li722 1.956 . S
O782 Li723 1.970 . S
O782 C752 1.325 . S
O783 Li721 1.961 . S
O783 Li722 1.970 . S
O783 Li723 1.956 . S
O783 C758 1.325 . S
H784 C726 0.929 . S
H785 C727 0.930 . S
H786 C728 0.930 . S
H787 C729 0.930 . S
H788 C731 0.930 . S
H789 C733 0.929 . S
H790 C734 0.930 . S
H791 C735 0.930 . S
H792 C738 0.930 . S
H793 C741 0.929 . S
H794 C746 0.929 . S
H795 C747 0.930 . S
H796 C754 0.929 . S
H797 C755 0.930 . S
H798 C756 0.930 . S
H799 C757 0.930 . S
H800 C759 0.929 . S
H801 C760 0.930 . S
H802 C761 0.930 . S
H803 C762 0.930 . S
H804 C766 0.929 . S
H805 C768 0.930 . S
H806 C774 0.929 . S
H807 C775 0.930 . S
Li808 N825 1.990 . S
Li808 O868 1.956 . S
Li808 O869 1.970 1_565 S
Li808 O870 1.961 . S
Li809 N833 1.990 . S
Li809 O868 1.970 1_545 S
Li809 O869 1.956 . S
Li809 O871 1.961 . S
Li810 N855 1.990 . S
Li810 O868 1.961 . S
Li810 O870 1.956 . S
Li810 O871 1.970 1_565 S
Li811 N861 1.990 . S
Li811 O869 1.961 . S
Li811 O870 1.970 1_545 S
Li811 O871 1.956 . S
C812 C814 1.348 . S
C812 C815 1.356 . S
C812 O868 1.325 . S
N813 C816 1.314 . S
N813 C817 1.279 . S
C814 C812 1.348 . S
C814 C816 1.353 . S
C814 H872 0.929 . S
C815 C812 1.356 . S
C815 C817 1.358 . S
C815 H873 0.930 . S
C816 N813 1.314 . S
C816 C814 1.353 . S
C816 H874 0.930 . S
C817 N813 1.279 . S
C817 C815 1.358 . S
C817 H875 0.930 . S
C818 C821 1.348 1_545 S
C818 C822 1.356 . S
C818 O869 1.325 . S
C819 N820 1.279 . S
C819 C822 1.358 . S
C819 H876 0.930 . S
N820 C819 1.279 . S
N820 C823 1.314 1_545 S
C821 C818 1.348 1_565 S
C821 C823 1.353 . S
C821 H877 0.929 . S
C822 C818 1.356 . S
C822 C819 1.358 . S
C822 H878 0.930 . S
C823 N820 1.314 1_565 S
C823 C821 1.353 . S
C823 H879 0.930 . S
C824 N825 1.314 . S
C824 C829 1.353 . S
C824 H830 0.930 . S
N825 Li808 1.990 . S
N825 C824 1.314 . S
N825 C827 1.279 . S
C826 C827 1.358 . S
C826 C828 1.356 . S
C826 H880 0.930 . S
C827 N825 1.279 . S
C827 C826 1.358 . S
C827 H831 0.930 . S
C828 C826 1.356 . S
C828 C829 1.348 . S
C829 C824 1.353 . S
C829 C828 1.348 . S
C829 H881 0.929 . S
H830 C824 0.930 . S
H831 C827 0.930 . S
C832 N833 1.314 . S
C832 C834 1.353 . S
C832 H838 0.930 . S
N833 Li809 1.990 . S
N833 C832 1.314 . S
N833 C836 1.279 . S
C834 C832 1.353 . S
C834 C837 1.348 . S
C834 H882 0.929 . S
C835 C836 1.358 . S
C835 C837 1.356 . S
C835 H883 0.930 . S
C836 N833 1.279 . S
C836 C835 1.358 . S
C836 H839 0.930 . S
C837 C834 1.348 . S
C837 C835 1.356 . S
H838 C832 0.930 . S
H839 C836 0.930 . S
C840 C842 1.348 1_565 S
C840 C843 1.356 . S
C840 O870 1.325 . S
N841 C844 1.314 1_565 S
N841 C845 1.279 . S
C842 C840 1.348 1_545 S
C842 C844 1.353 . S
C842 H884 0.929 . S
C843 C840 1.356 . S
C843 C845 1.358 . S
C843 H885 0.930 . S
C844 N841 1.314 1_545 S
C844 C842 1.353 . S
C844 H886 0.930 . S
C845 N841 1.279 . S
C845 C843 1.358 . S
C845 H887 0.930 . S
C846 C847 1.348 . S
C846 C848 1.356 . S
C846 O871 1.325 . S
C847 C846 1.348 . S
C847 C849 1.353 . S
C847 H888 0.929 . S
C848 C846 1.356 . S
C848 C850 1.358 . S
C848 H889 0.930 . S
C849 C847 1.353 . S
C849 N851 1.314 . S
C849 H890 0.930 . S
C850 C848 1.358 . S
C850 N851 1.279 . S
C850 H891 0.930 . S
N851 C849 1.314 . S
N851 C850 1.279 . S
C852 C854 1.353 . S
C852 N855 1.314 . S
C852 H858 0.930 . S
C853 N855 1.279 . S
C853 C856 1.358 . S
C853 H859 0.930 . S
C854 C852 1.353 . S
C854 C857 1.348 . S
C854 H892 0.929 . S
N855 Li810 1.990 . S
N855 C852 1.314 . S
N855 C853 1.279 . S
C856 C853 1.358 . S
C856 C857 1.356 . S
C856 H893 0.930 . S
C857 C854 1.348 . S
C857 C856 1.356 . S
H858 C852 0.930 . S
H859 C853 0.930 . S
C860 N861 1.314 . S
C860 C862 1.353 . S
C860 H866 0.930 . S
N861 Li811 1.990 . S
N861 C860 1.314 . S
N861 C864 1.279 . S
C862 C860 1.353 . S
C862 C865 1.348 . S
C862 H894 0.929 . S
C863 C864 1.358 . S
C863 C865 1.356 . S
C863 H895 0.930 . S
C864 N861 1.279 . S
C864 C863 1.358 . S
C864 H867 0.930 . S
C865 C862 1.348 . S
C865 C863 1.356 . S
H866 C860 0.930 . S
H867 C864 0.930 . S
O868 Li808 1.956 . S
O868 Li809 1.970 1_565 S
O868 Li810 1.961 . S
O868 C812 1.325 . S
O869 Li808 1.970 1_545 S
O869 Li809 1.956 . S
O869 Li811 1.961 . S
O869 C818 1.325 . S
O870 Li808 1.961 . S
O870 Li810 1.956 . S
O870 Li811 1.970 1_565 S
O870 C840 1.325 . S
O871 Li809 1.961 . S
O871 Li810 1.970 1_545 S
O871 Li811 1.956 . S
O871 C846 1.325 . S
H872 C814 0.929 . S
H873 C815 0.930 . S
H874 C816 0.930 . S
H875 C817 0.930 . S
H876 C819 0.930 . S
H877 C821 0.929 . S
H878 C822 0.930 . S
H879 C823 0.930 . S
H880 C826 0.930 . S
H881 C829 0.929 . S
H882 C834 0.929 . S
H883 C835 0.930 . S
H884 C842 0.929 . S
H885 C843 0.930 . S
H886 C844 0.930 . S
H887 C845 0.930 . S
H888 C847 0.929 . S
H889 C848 0.930 . S
H890 C849 0.930 . S
H891 C850 0.930 . S
H892 C854 0.929 . S
H893 C856 0.930 . S
H894 C862 0.929 . S
H895 C863 0.930 . S
Li896 N913 1.990 . S
Li896 O956 1.956 . S
Li896 O957 1.970 . S
Li896 O958 1.961 . S
Li897 N921 1.983 1_455 S
Li897 O956 1.970 . S
Li897 O957 1.956 . S
Li897 O959 1.961 1_455 S
Li898 N943 1.990 . S
Li898 O956 1.961 . S
Li898 O958 1.956 . S
Li898 O959 1.970 1_455 S
Li899 N949 1.990 . S
Li899 O957 1.961 1_655 S
Li899 O958 1.970 1_655 S
Li899 O959 1.956 . S
C900 C902 1.348 . S
C900 C903 1.356 . S
C900 O956 1.325 . S
N901 C904 1.314 . S
N901 C905 1.279 . S
C902 C900 1.348 . S
C902 C904 1.353 . S
C902 H960 0.929 . S
C903 C900 1.356 . S
C903 C905 1.358 . S
C903 H961 0.930 . S
C904 N901 1.314 . S
C904 C902 1.353 . S
C904 H962 0.930 . S
C905 N901 1.279 . S
C905 C903 1.358 . S
C905 H963 0.930 . S
C906 C909 1.362 . S
C906 C910 1.339 1_455 S
C906 O957 1.328 . S
C907 N908 1.279 . S
C907 C910 1.358 . S
C907 H964 0.930 . S
N908 C907 1.279 . S
N908 C911 1.314 1_655 S
C909 C906 1.362 . S
C909 C911 1.353 . S
C909 H965 0.929 . S
C910 C906 1.339 1_655 S
C910 C907 1.358 . S
C910 H966 0.930 . S
C911 N908 1.314 1_455 S
C911 C909 1.353 . S
C911 H967 0.930 . S
C912 N913 1.314 . S
C912 C917 1.353 . S
C912 H918 0.930 . S
N913 Li896 1.990 . S
N913 C912 1.314 . S
N913 C915 1.279 . S
C914 C915 1.358 . S
C914 C916 1.356 . S
C914 H968 0.930 . S
C915 N913 1.279 . S
C915 C914 1.358 . S
C915 H919 0.930 . S
C916 C914 1.356 . S
C916 C917 1.348 . S
C917 C912 1.353 . S
C917 C916 1.348 . S
C917 H969 0.929 . S
H918 C912 0.930 . S
H919 C915 0.930 . S
C920 N921 1.323 . S
C920 C922 1.353 . S
C920 H926 0.930 . S
N921 Li897 1.983 1_655 S
N921 C920 1.323 . S
N921 C924 1.277 1_655 S
C922 C920 1.353 . S
C922 C925 1.348 . S
C922 H970 0.929 . S
C923 C924 1.359 1_655 S
C923 C925 1.355 . S
C923 H971 0.930 1_655 S
C924 N921 1.277 1_455 S
C924 C923 1.359 1_455 S
C924 H927 0.930 . S
C925 C922 1.348 . S
C925 C923 1.355 . S
H926 C920 0.930 . S
H927 C924 0.930 . S
C928 C930 1.348 1_455 S
C928 C931 1.356 . S
C928 O958 1.325 . S
N929 C932 1.314 1_455 S
N929 C933 1.279 . S
C930 C928 1.348 1_655 S
C930 C932 1.353 . S
C930 H972 0.929 . S
C931 C928 1.356 . S
C931 C933 1.358 . S
C931 H973 0.930 . S
C932 N929 1.314 1_655 S
C932 C930 1.353 . S
C932 H974 0.930 . S
C933 N929 1.279 . S
C933 C931 1.358 . S
C933 H975 0.930 . S
C934 C935 1.348 . S
C934 C936 1.356 . S
C934 O959 1.325 . S
C935 C934 1.348 . S
C935 C937 1.353 . S
C935 H976 0.929 . S
C936 C934 1.356 . S
C936 C938 1.358 . S
C936 H977 0.930 . S
C937 C935 1.353 . S
C937 N939 1.314 . S
C937 H978 0.930 . S
C938 C936 1.358 . S
C938 N939 1.279 . S
C938 H979 0.930 . S
N939 C937 1.314 . S
N939 C938 1.279 . S
C940 C942 1.353 . S
C940 N943 1.314 . S
C940 H946 0.930 . S
C941 N943 1.279 . S
C941 C944 1.358 . S
C941 H947 0.930 . S
C942 C940 1.353 . S
C942 C945 1.348 . S
C942 H980 0.929 . S
N943 Li898 1.990 . S
N943 C940 1.314 . S
N943 C941 1.279 . S
C944 C941 1.358 . S
C944 C945 1.356 . S
C944 H981 0.930 . S
C945 C942 1.348 . S
C945 C944 1.356 . S
H946 C940 0.930 . S
H947 C941 0.930 . S
C948 N949 1.314 . S
C948 C950 1.353 . S
C948 H954 0.930 . S
N949 Li899 1.990 . S
N949 C948 1.314 . S
N949 C952 1.279 . S
C950 C948 1.353 . S
C950 C953 1.348 . S
C950 H982 0.929 . S
C951 C952 1.358 . S
C951 C953 1.356 . S
C951 H983 0.930 . S
C952 N949 1.279 . S
C952 C951 1.358 . S
C952 H955 0.930 . S
C953 C950 1.348 . S
C953 C951 1.356 . S
H954 C948 0.930 . S
H955 C952 0.930 . S
O956 Li896 1.956 . S
O956 Li897 1.970 . S
O956 Li898 1.961 . S
O956 C900 1.325 . S
O957 Li896 1.970 . S
O957 Li897 1.956 . S
O957 Li899 1.961 1_455 S
O957 C906 1.328 . S
O958 Li896 1.961 . S
O958 Li898 1.956 . S
O958 Li899 1.970 1_455 S
O958 C928 1.325 . S
O959 Li897 1.961 1_655 S
O959 Li898 1.970 1_655 S
O959 Li899 1.956 . S
O959 C934 1.325 . S
H960 C902 0.929 . S
H961 C903 0.930 . S
H962 C904 0.930 . S
H963 C905 0.930 . S
H964 C907 0.930 . S
H965 C909 0.929 . S
H966 C910 0.930 . S
H967 C911 0.930 . S
H968 C914 0.930 . S
H969 C917 0.929 . S
H970 C922 0.929 . S
H971 C923 0.930 1_455 S
H972 C930 0.929 . S
H973 C931 0.930 . S
H974 C932 0.930 . S
H975 C933 0.930 . S
H976 C935 0.929 . S
H977 C936 0.930 . S
H978 C937 0.930 . S
H979 C938 0.930 . S
H980 C942 0.929 . S
H981 C944 0.930 . S
H982 C950 0.929 . S
H983 C951 0.930 . S
Li984 N1001 1.990 . S
Li984 O1044 1.956 . S
Li984 O1045 1.970 . S
Li984 O1046 1.961 . S
Li985 N1009 1.990 . S
Li985 O1044 1.970 . S
Li985 O1045 1.956 . S
Li985 O1047 1.961 . S
Li986 N1031 1.990 . S
Li986 O1044 1.961 . S
Li986 O1046 1.956 . S
Li986 O1047 1.970 . S
Li987 N1037 1.990 . S
Li987 O1045 1.961 . S
Li987 O1046 1.970 . S
Li987 O1047 1.956 . S
C988 C990 1.348 . S
C988 C991 1.356 . S
C988 O1044 1.325 . S
N989 C992 1.314 . S
N989 C993 1.279 . S
C990 C988 1.348 . S
C990 C992 1.353 . S
C990 H1048 0.929 . S
C991 C988 1.356 . S
C991 C993 1.358 . S
C991 H1049 0.930 . S
C992 N989 1.314 . S
C992 C990 1.353 . S
C992 H1050 0.930 . S
C993 N989 1.279 . S
C993 C991 1.358 . S
C993 H1051 0.930 . S
C994 C997 1.348 . S
C994 C998 1.356 . S
C994 O1045 1.325 . S
C995 N996 1.279 . S
C995 C998 1.358 . S
C995 H1052 0.930 . S
N996 C995 1.279 . S
N996 C999 1.314 . S
C997 C994 1.348 . S
C997 C999 1.353 . S
C997 H1053 0.929 . S
C998 C994 1.356 . S
C998 C995 1.358 . S
C998 H1054 0.930 . S
C999 N996 1.314 . S
C999 C997 1.353 . S
C999 H1055 0.930 . S
C1000 N1001 1.314 . S
C1000 C1005 1.353 . S
C1000 H1006 0.930 . S
N1001 Li984 1.990 . S
N1001 C1000 1.314 . S
N1001 C1003 1.279 . S
C1002 C1003 1.358 . S
C1002 C1004 1.356 . S
C1002 H1056 0.930 . S
C1003 N1001 1.279 . S
C1003 C1002 1.358 . S
C1003 H1007 0.930 . S
C1004 C1002 1.356 . S
C1004 C1005 1.348 . S
C1005 C1000 1.353 . S
C1005 C1004 1.348 . S
C1005 H1057 0.929 . S
H1006 C1000 0.930 . S
H1007 C1003 0.930 . S
C1008 N1009 1.314 . S
C1008 C1010 1.353 . S
C1008 H1014 0.930 . S
N1009 Li985 1.990 . S
N1009 C1008 1.314 . S
N1009 C1012 1.279 . S
C1010 C1008 1.353 . S
C1010 C1013 1.348 . S
C1010 H1058 0.929 . S
C1011 C1012 1.358 . S
C1011 C1013 1.356 . S
C1011 H1059 0.930 . S
C1012 N1009 1.279 . S
C1012 C1011 1.358 . S
C1012 H1015 0.930 . S
C1013 C1010 1.348 . S
C1013 C1011 1.356 . S
H1014 C1008 0.930 . S
H1015 C1012 0.930 . S
C1016 C1018 1.348 . S
C1016 C1019 1.356 . S
C1016 O1046 1.325 . S
N1017 C1020 1.314 . S
N1017 C1021 1.279 . S
C1018 C1016 1.348 . S
C1018 C1020 1.353 . S
C1018 H1060 0.929 . S
C1019 C1016 1.356 . S
C1019 C1021 1.358 . S
C1019 H1061 0.930 . S
C1020 N1017 1.314 . S
C1020 C1018 1.353 . S
C1020 H1062 0.930 . S
C1021 N1017 1.279 . S
C1021 C1019 1.358 . S
C1021 H1063 0.930 . S
C1022 C1023 1.348 . S
C1022 C1024 1.356 . S
C1022 O1047 1.325 . S
C1023 C1022 1.348 . S
C1023 C1025 1.353 . S
C1023 H1064 0.929 . S
C1024 C1022 1.356 . S
C1024 C1026 1.358 . S
C1024 H1065 0.930 . S
C1025 C1023 1.353 . S
C1025 N1027 1.314 . S
C1025 H1066 0.930 . S
C1026 C1024 1.358 . S
C1026 N1027 1.279 . S
C1026 H1067 0.930 . S
N1027 C1025 1.314 . S
N1027 C1026 1.279 . S
C1028 C1030 1.353 . S
C1028 N1031 1.314 . S
C1028 H1034 0.930 . S
C1029 N1031 1.279 . S
C1029 C1032 1.358 . S
C1029 H1035 0.930 . S
C1030 C1028 1.353 . S
C1030 C1033 1.348 . S
C1030 H1068 0.929 . S
N1031 Li986 1.990 . S
N1031 C1028 1.314 . S
N1031 C1029 1.279 . S
C1032 C1029 1.358 . S
C1032 C1033 1.356 . S
C1032 H1069 0.930 . S
C1033 C1030 1.348 . S
C1033 C1032 1.356 . S
H1034 C1028 0.930 . S
H1035 C1029 0.930 . S
C1036 N1037 1.314 . S
C1036 C1038 1.353 . S
C1036 H1042 0.930 . S
N1037 Li987 1.990 . S
N1037 C1036 1.314 . S
N1037 C1040 1.279 . S
C1038 C1036 1.353 . S
C1038 C1041 1.348 . S
C1038 H1070 0.929 . S
C1039 C1040 1.358 . S
C1039 C1041 1.356 . S
C1039 H1071 0.930 . S
C1040 N1037 1.279 . S
C1040 C1039 1.358 . S
C1040 H1043 0.930 . S
C1041 C1038 1.348 . S
C1041 C1039 1.356 . S
H1042 C1036 0.930 . S
H1043 C1040 0.930 . S
O1044 Li984 1.956 . S
O1044 Li985 1.970 . S
O1044 Li986 1.961 . S
O1044 C988 1.325 . S
O1045 Li984 1.970 . S
O1045 Li985 1.956 . S
O1045 Li987 1.961 . S
O1045 C994 1.325 . S
O1046 Li984 1.961 . S
O1046 Li986 1.956 . S
O1046 Li987 1.970 . S
O1046 C1016 1.325 . S
O1047 Li985 1.961 . S
O1047 Li986 1.970 . S
O1047 Li987 1.956 . S
O1047 C1022 1.325 . S
H1048 C990 0.929 . S
H1049 C991 0.930 . S
H1050 C992 0.930 . S
H1051 C993 0.930 . S
H1052 C995 0.930 . S
H1053 C997 0.929 . S
H1054 C998 0.930 . S
H1055 C999 0.930 . S
H1056 C1002 0.930 . S
H1057 C1005 0.929 . S
H1058 C1010 0.929 . S
H1059 C1011 0.930 . S
H1060 C1018 0.929 . S
H1061 C1019 0.930 . S
H1062 C1020 0.930 . S
H1063 C1021 0.930 . S
H1064 C1023 0.929 . S
H1065 C1024 0.930 . S
H1066 C1025 0.930 . S
H1067 C1026 0.930 . S
H1068 C1030 0.929 . S
H1069 C1032 0.930 . S
H1070 C1038 0.929 . S
H1071 C1039 0.930 . S
Li1072 N1089 1.990 . S
Li1072 O1132 1.956 . S
Li1072 O1133 1.970 1_455 S
Li1072 O1134 1.961 . S
Li1073 N1097 1.990 . S
Li1073 O1132 1.970 1_655 S
Li1073 O1133 1.956 . S
Li1073 O1135 1.961 1_655 S
Li1074 N1119 1.990 . S
Li1074 O1132 1.961 . S
Li1074 O1134 1.956 . S
Li1074 O1135 1.970 . S
Li1075 N1125 1.997 . S
Li1075 O1133 1.961 1_455 S
Li1075 O1134 1.970 . S
Li1075 O1135 1.956 . S
C1076 C1078 1.348 . S
C1076 C1079 1.356 . S
C1076 O1132 1.325 . S
N1077 C1080 1.314 . S
N1077 C1081 1.279 . S
C1078 C1076 1.348 . S
C1078 C1080 1.353 . S
C1078 H1136 0.929 1_455 S
C1079 C1076 1.356 . S
C1079 C1081 1.358 . S
C1079 H1137 0.930 . S
C1080 N1077 1.314 . S
C1080 C1078 1.353 . S
C1080 H1138 0.930 1_455 S
C1081 N1077 1.279 . S
C1081 C1079 1.358 . S
C1081 H1139 0.930 . S
C1082 C1085 1.348 . S
C1082 C1086 1.356 . S
C1082 O1133 1.325 . S
C1083 N1084 1.279 . S
C1083 C1086 1.358 . S
C1083 H1140 0.930 . S
N1084 C1083 1.279 . S
N1084 C1087 1.314 . S
C1085 C1082 1.348 . S
C1085 C1087 1.353 . S
C1085 H1141 0.929 . S
C1086 C1082 1.356 . S
C1086 C1083 1.358 . S
C1086 H1142 0.930 . S
C1087 N1084 1.314 . S
C1087 C1085 1.353 . S
C1087 H1143 0.930 . S
C1088 N1089 1.314 . S
C1088 C1093 1.353 . S
C1088 H1094 0.930 . S
N1089 Li1072 1.990 . S
N1089 C1088 1.314 . S
N1089 C1091 1.279 . S
C1090 C1091 1.358 . S
C1090 C1092 1.356 . S
C1090 H1144 0.930 . S
C1091 N1089 1.279 . S
C1091 C1090 1.358 . S
C1091 H1095 0.930 . S
C1092 C1090 1.356 . S
C1092 C1093 1.348 . S
C1093 C1088 1.353 . S
C1093 C1092 1.348 . S
C1093 H1145 0.929 . S
H1094 C1088 0.930 . S
H1095 C1091 0.930 . S
C1096 N1097 1.314 . S
C1096 C1098 1.353 . S
C1096 H1102 0.930 . S
N1097 Li1073 1.990 . S
N1097 C1096 1.314 . S
N1097 C1100 1.279 . S
C1098 C1096 1.353 . S
C1098 C1101 1.348 . S
C1098 H1146 0.929 . S
C1099 C1100 1.358 . S
C1099 C1101 1.356 . S
C1099 H1147 0.930 . S
C1100 N1097 1.279 . S
C1100 C1099 1.358 . S
C1100 H1103 0.930 . S
C1101 C1098 1.348 . S
C1101 C1099 1.356 . S
H1102 C1096 0.930 . S
H1103 C1100 0.930 . S
C1104 C1106 1.348 . S
C1104 C1107 1.356 . S
C1104 O1134 1.325 . S
N1105 C1108 1.314 . S
N1105 C1109 1.279 . S
C1106 C1104 1.348 . S
C1106 C1108 1.353 . S
C1106 H1148 0.929 . S
C1107 C1104 1.356 . S
C1107 C1109 1.358 . S
C1107 H1149 0.930 . S
C1108 N1105 1.314 . S
C1108 C1106 1.353 . S
C1108 H1150 0.930 . S
C1109 N1105 1.279 . S
C1109 C1107 1.358 . S
C1109 H1151 0.930 . S
C1110 C1111 1.348 . S
C1110 C1112 1.356 1_455 S
C1110 O1135 1.325 . S
C1111 C1110 1.348 . S
C1111 C1113 1.353 . S
C1111 H1152 0.929 . S
C1112 C1110 1.356 1_655 S
C1112 C1114 1.358 . S
C1112 H1153 0.930 . S
C1113 C1111 1.353 . S
C1113 N1115 1.314 1_455 S
C1113 H1154 0.930 . S
C1114 C1112 1.358 . S
C1114 N1115 1.279 . S
C1114 H1155 0.930 . S
N1115 C1113 1.314 1_655 S
N1115 C1114 1.279 . S
C1116 C1118 1.353 . S
C1116 N1119 1.314 . S
C1116 H1122 0.930 . S
C1117 N1119 1.279 . S
C1117 C1120 1.358 . S
C1117 H1123 0.930 . S
C1118 C1116 1.353 . S
C1118 C1121 1.348 . S
C1118 H1156 0.929 . S
N1119 Li1074 1.990 . S
N1119 C1116 1.314 . S
N1119 C1117 1.279 . S
C1120 C1117 1.358 . S
C1120 C1121 1.356 . S
C1120 H1157 0.930 . S
C1121 C1118 1.348 . S
C1121 C1120 1.356 . S
H1122 C1116 0.930 . S
H1123 C1117 0.930 . S
C1124 N1125 1.307 1_655 S
C1124 C1126 1.353 . S
C1124 H1130 0.930 . S
N1125 Li1075 1.997 . S
N1125 C1124 1.307 1_455 S
N1125 C1128 1.287 . S
C1126 C1124 1.353 . S
C1126 C1129 1.348 . S
C1126 H1158 0.929 . S
C1127 C1128 1.359 . S
C1127 C1129 1.356 1_455 S
C1127 H1159 0.927 . S
C1128 N1125 1.287 . S
C1128 C1127 1.359 . S
C1128 H1131 0.930 . S
C1129 C1126 1.348 . S
C1129 C1127 1.356 1_655 S
H1130 C1124 0.930 . S
H1131 C1128 0.930 . S
O1132 Li1072 1.956 . S
O1132 Li1073 1.970 1_455 S
O1132 Li1074 1.961 . S
O1132 C1076 1.325 . S
O1133 Li1072 1.970 1_655 S
O1133 Li1073 1.956 . S
O1133 Li1075 1.961 1_655 S
O1133 C1082 1.325 . S
O1134 Li1072 1.961 . S
O1134 Li1074 1.956 . S
O1134 Li1075 1.970 . S
O1134 C1104 1.325 . S
O1135 Li1073 1.961 1_455 S
O1135 Li1074 1.970 . S
O1135 Li1075 1.956 . S
O1135 C1110 1.325 . S
H1136 C1078 0.929 1_655 S
H1137 C1079 0.930 . S
H1138 C1080 0.930 1_655 S
H1139 C1081 0.930 . S
H1140 C1083 0.930 . S
H1141 C1085 0.929 . S
H1142 C1086 0.930 . S
H1143 C1087 0.930 . S
H1144 C1090 0.930 . S
H1145 C1093 0.929 . S
H1146 C1098 0.929 . S
H1147 C1099 0.930 . S
H1148 C1106 0.929 . S
H1149 C1107 0.930 . S
H1150 C1108 0.930 . S
H1151 C1109 0.930 . S
H1152 C1111 0.929 . S
H1153 C1112 0.930 . S
H1154 C1113 0.930 . S
H1155 C1114 0.930 . S
H1156 C1118 0.929 . S
H1157 C1120 0.930 . S
H1158 C1126 0.929 . S
H1159 C1127 0.927 . S
Li1160 N1177 1.990 . S
Li1160 O1220 1.956 . S
Li1160 O1221 1.970 . S
Li1160 O1222 1.961 . S
Li1161 N1185 1.990 . S
Li1161 O1220 1.970 . S
Li1161 O1221 1.956 . S
Li1161 O1223 1.961 . S
Li1162 N1207 1.990 . S
Li1162 O1220 1.961 . S
Li1162 O1222 1.956 . S
Li1162 O1223 1.970 . S
Li1163 N1213 1.990 . S
Li1163 O1221 1.961 . S
Li1163 O1222 1.970 . S
Li1163 O1223 1.956 . S
C1164 C1166 1.348 . S
C1164 C1167 1.356 . S
C1164 O1220 1.325 . S
N1165 C1168 1.314 . S
N1165 C1169 1.279 . S
C1166 C1164 1.348 . S
C1166 C1168 1.353 . S
C1166 H1224 0.929 . S
C1167 C1164 1.356 . S
C1167 C1169 1.358 . S
C1167 H1225 0.930 . S
C1168 N1165 1.314 . S
C1168 C1166 1.353 . S
C1168 H1226 0.930 . S
C1169 N1165 1.279 . S
C1169 C1167 1.358 . S
C1169 H1227 0.930 . S
C1170 C1173 1.348 . S
C1170 C1174 1.356 . S
C1170 O1221 1.325 . S
C1171 N1172 1.279 . S
C1171 C1174 1.358 . S
C1171 H1228 0.930 . S
N1172 C1171 1.279 . S
N1172 C1175 1.314 . S
C1173 C1170 1.348 . S
C1173 C1175 1.353 . S
C1173 H1229 0.929 . S
C1174 C1170 1.356 . S
C1174 C1171 1.358 . S
C1174 H1230 0.930 . S
C1175 N1172 1.314 . S
C1175 C1173 1.353 . S
C1175 H1231 0.930 . S
C1176 N1177 1.314 . S
C1176 C1181 1.353 . S
C1176 H1182 0.930 . S
N1177 Li1160 1.990 . S
N1177 C1176 1.314 . S
N1177 C1179 1.279 . S
C1178 C1179 1.358 . S
C1178 C1180 1.356 . S
C1178 H1232 0.930 . S
C1179 N1177 1.279 . S
C1179 C1178 1.358 . S
C1179 H1183 0.930 . S
C1180 C1178 1.356 . S
C1180 C1181 1.348 . S
C1181 C1176 1.353 . S
C1181 C1180 1.348 . S
C1181 H1233 0.929 . S
H1182 C1176 0.930 . S
H1183 C1179 0.930 . S
C1184 N1185 1.314 . S
C1184 C1186 1.353 . S
C1184 H1190 0.930 . S
N1185 Li1161 1.990 . S
N1185 C1184 1.314 . S
N1185 C1188 1.279 . S
C1186 C1184 1.353 . S
C1186 C1189 1.348 . S
C1186 H1234 0.929 . S
C1187 C1188 1.358 . S
C1187 C1189 1.356 . S
C1187 H1235 0.930 . S
C1188 N1185 1.279 . S
C1188 C1187 1.358 . S
C1188 H1191 0.930 . S
C1189 C1186 1.348 . S
C1189 C1187 1.356 . S
H1190 C1184 0.930 . S
H1191 C1188 0.930 . S
C1192 C1194 1.348 . S
C1192 C1195 1.356 . S
C1192 O1222 1.325 . S
N1193 C1196 1.314 . S
N1193 C1197 1.279 . S
C1194 C1192 1.348 . S
C1194 C1196 1.353 . S
C1194 H1236 0.929 . S
C1195 C1192 1.356 . S
C1195 C1197 1.358 . S
C1195 H1237 0.930 . S
C1196 N1193 1.314 . S
C1196 C1194 1.353 . S
C1196 H1238 0.930 . S
C1197 N1193 1.279 . S
C1197 C1195 1.358 . S
C1197 H1239 0.930 . S
C1198 C1199 1.348 . S
C1198 C1200 1.356 . S
C1198 O1223 1.325 . S
C1199 C1198 1.348 . S
C1199 C1201 1.353 . S
C1199 H1240 0.929 . S
C1200 C1198 1.356 . S
C1200 C1202 1.358 . S
C1200 H1241 0.930 . S
C1201 C1199 1.353 . S
C1201 N1203 1.314 . S
C1201 H1242 0.930 . S
C1202 C1200 1.358 . S
C1202 N1203 1.279 . S
C1202 H1243 0.930 . S
N1203 C1201 1.314 . S
N1203 C1202 1.279 . S
C1204 C1206 1.353 . S
C1204 N1207 1.314 . S
C1204 H1210 0.930 . S
C1205 N1207 1.279 . S
C1205 C1208 1.358 . S
C1205 H1211 0.930 . S
C1206 C1204 1.353 . S
C1206 C1209 1.348 . S
C1206 H1244 0.929 . S
N1207 Li1162 1.990 . S
N1207 C1204 1.314 . S
N1207 C1205 1.279 . S
C1208 C1205 1.358 . S
C1208 C1209 1.356 . S
C1208 H1245 0.930 . S
C1209 C1206 1.348 . S
C1209 C1208 1.356 . S
H1210 C1204 0.930 . S
H1211 C1205 0.930 . S
C1212 N1213 1.314 . S
C1212 C1214 1.353 . S
C1212 H1218 0.930 . S
N1213 Li1163 1.990 . S
N1213 C1212 1.314 . S
N1213 C1216 1.279 . S
C1214 C1212 1.353 . S
C1214 C1217 1.348 . S
C1214 H1246 0.929 . S
C1215 C1216 1.358 . S
C1215 C1217 1.356 . S
C1215 H1247 0.930 . S
C1216 N1213 1.279 . S
C1216 C1215 1.358 . S
C1216 H1219 0.930 . S
C1217 C1214 1.348 . S
C1217 C1215 1.356 . S
H1218 C1212 0.930 . S
H1219 C1216 0.930 . S
O1220 Li1160 1.956 . S
O1220 Li1161 1.970 . S
O1220 Li1162 1.961 . S
O1220 C1164 1.325 . S
O1221 Li1160 1.970 . S
O1221 Li1161 1.956 . S
O1221 Li1163 1.961 . S
O1221 C1170 1.325 . S
O1222 Li1160 1.961 . S
O1222 Li1162 1.956 . S
O1222 Li1163 1.970 . S
O1222 C1192 1.325 . S
O1223 Li1161 1.961 . S
O1223 Li1162 1.970 . S
O1223 Li1163 1.956 . S
O1223 C1198 1.325 . S
H1224 C1166 0.929 . S
H1225 C1167 0.930 . S
H1226 C1168 0.930 . S
H1227 C1169 0.930 . S
H1228 C1171 0.930 . S
H1229 C1173 0.929 . S
H1230 C1174 0.930 . S
H1231 C1175 0.930 . S
H1232 C1178 0.930 . S
H1233 C1181 0.929 . S
H1234 C1186 0.929 . S
H1235 C1187 0.930 . S
H1236 C1194 0.929 . S
H1237 C1195 0.930 . S
H1238 C1196 0.930 . S
H1239 C1197 0.930 . S
H1240 C1199 0.929 . S
H1241 C1200 0.930 . S
H1242 C1201 0.930 . S
H1243 C1202 0.930 . S
H1244 C1206 0.929 . S
H1245 C1208 0.930 . S
H1246 C1214 0.929 . S
H1247 C1215 0.930 . S
H1248 C1256 0.950 . S
H1249 C1261 0.950 . S
H1250 C1258 0.950 . S
H1251 C1260 0.950 . S
H1252 C1262 0.950 . S
H1253 C1264 0.950 . S
H1254 C1266 0.950 . S
H1255 C1267 0.950 . S
C1256 H1248 0.950 . S
C1256 C1257 1.386 . S
C1256 C1258 1.391 . S
C1257 C1256 1.386 . S
C1257 C1261 1.393 . S
C1258 H1250 0.950 . S
C1258 C1256 1.391 . S
C1258 C1259 1.400 . S
C1259 C1258 1.400 . S
C1259 C1260 1.398 . S
C1259 C1265 1.491 . S
C1260 H1251 0.950 . S
C1260 C1259 1.398 . S
C1260 C1261 1.391 . S
C1261 H1249 0.950 . S
C1261 C1257 1.393 . S
C1261 C1260 1.391 . S
C1262 H1252 0.950 . S
C1262 C1263 1.386 . S
C1262 C1264 1.391 . S
C1263 C1262 1.386 . S
C1263 C1267 1.393 . S
C1264 H1253 0.950 . S
C1264 C1262 1.391 . S
C1264 C1265 1.400 . S
C1265 C1259 1.491 . S
C1265 C1264 1.400 . S
C1265 C1266 1.398 . S
C1266 H1254 0.950 . S
C1266 C1265 1.398 . S
C1266 C1267 1.391 . S
C1267 H1255 0.950 . S
C1267 C1263 1.393 . S
C1267 C1266 1.391 . S
H1268 C1276 0.950 . S
H1269 C1281 0.950 . S
H1270 C1278 0.950 . S
H1271 C1280 0.950 . S
H1272 C1282 0.950 . S
H1273 C1284 0.950 . S
H1274 C1286 0.950 . S
H1275 C1287 0.950 . S
C1276 H1268 0.950 . S
C1276 C1277 1.386 . S
C1276 C1278 1.391 . S
C1277 C1276 1.386 . S
C1277 C1281 1.393 . S
C1278 H1270 0.950 . S
C1278 C1276 1.391 . S
C1278 C1279 1.400 . S
C1279 C1278 1.400 . S
C1279 C1280 1.398 . S
C1279 C1285 1.491 . S
C1280 H1271 0.950 . S
C1280 C1279 1.398 . S
C1280 C1281 1.391 . S
C1281 H1269 0.950 . S
C1281 C1277 1.393 . S
C1281 C1280 1.391 . S
C1282 H1272 0.950 . S
C1282 C1283 1.386 . S
C1282 C1284 1.391 . S
C1283 C1282 1.386 . S
C1283 C1287 1.393 . S
C1284 H1273 0.950 . S
C1284 C1282 1.391 . S
C1284 C1285 1.400 . S
C1285 C1279 1.491 . S
C1285 C1284 1.400 . S
C1285 C1286 1.398 . S
C1286 H1274 0.950 . S
C1286 C1285 1.398 . S
C1286 C1287 1.391 . S
C1287 H1275 0.950 . S
C1287 C1283 1.393 . S
C1287 C1286 1.391 . S
H1288 C1296 0.950 . S
H1289 C1301 0.950 . S
H1290 C1298 0.950 . S
H1291 C1300 0.950 . S
H1292 C1302 0.950 . S
H1293 C1304 0.950 . S
H1294 C1306 0.950 . S
H1295 C1307 0.950 . S
C1296 H1288 0.950 . S
C1296 C1297 1.386 . S
C1296 C1298 1.391 . S
C1297 C1296 1.386 . S
C1297 C1301 1.393 . S
C1298 H1290 0.950 . S
C1298 C1296 1.391 . S
C1298 C1299 1.400 . S
C1299 C1298 1.400 . S
C1299 C1300 1.398 . S
C1299 C1305 1.491 . S
C1300 H1291 0.950 . S
C1300 C1299 1.398 . S
C1300 C1301 1.391 . S
C1301 H1289 0.950 . S
C1301 C1297 1.393 . S
C1301 C1300 1.391 . S
C1302 H1292 0.950 . S
C1302 C1303 1.386 . S
C1302 C1304 1.391 . S
C1303 C1302 1.386 . S
C1303 C1307 1.393 . S
C1304 H1293 0.950 . S
C1304 C1302 1.391 . S
C1304 C1305 1.400 . S
C1305 C1299 1.491 . S
C1305 C1304 1.400 . S
C1305 C1306 1.398 . S
C1306 H1294 0.950 . S
C1306 C1305 1.398 . S
C1306 C1307 1.391 . S
C1307 H1295 0.950 . S
C1307 C1303 1.393 . S
C1307 C1306 1.391 . S
H1308 C1316 0.950 . S
H1309 C1321 0.950 . S
H1310 C1318 0.950 . S
H1311 C1320 0.950 . S
H1312 C1322 0.950 . S
H1313 C1324 0.950 . S
H1314 C1326 0.950 . S
H1315 C1327 0.950 . S
C1316 H1308 0.950 . S
C1316 C1317 1.386 1_545 S
C1316 C1318 1.391 . S
C1317 C1316 1.386 1_565 S
C1317 C1321 1.393 . S
C1318 H1310 0.950 . S
C1318 C1316 1.391 . S
C1318 C1319 1.400 1_545 S
C1319 C1318 1.400 1_565 S
C1319 C1320 1.398 . S
C1319 C1325 1.491 1_565 S
C1320 H1311 0.950 . S
C1320 C1319 1.398 . S
C1320 C1321 1.391 . S
C1321 H1309 0.950 . S
C1321 C1317 1.393 . S
C1321 C1320 1.391 . S
C1322 H1312 0.950 . S
C1322 C1323 1.386 1_465 S
C1322 C1324 1.391 . S
C1323 C1322 1.386 1_645 S
C1323 C1327 1.393 . S
C1324 H1313 0.950 . S
C1324 C1322 1.391 . S
C1324 C1325 1.400 1_565 S
C1325 C1319 1.491 1_545 S
C1325 C1324 1.400 1_545 S
C1325 C1326 1.398 1_455 S
C1326 H1314 0.950 . S
C1326 C1325 1.398 1_655 S
C1326 C1327 1.391 . S
C1327 H1315 0.950 . S
C1327 C1323 1.393 . S
C1327 C1326 1.391 . S
H1328 C1336 0.950 . S
H1329 C1341 0.950 . S
H1330 C1338 0.950 . S
H1331 C1340 0.950 . S
H1332 C1342 0.950 . S
H1333 C1344 0.950 . S
H1334 C1346 0.950 . S
H1335 C1347 0.950 . S
C1336 H1328 0.950 . S
C1336 C1337 1.386 . S
C1336 C1338 1.391 . S
C1337 C1336 1.386 . S
C1337 C1341 1.393 . S
C1338 H1330 0.950 . S
C1338 C1336 1.391 . S
C1338 C1339 1.400 . S
C1339 C1338 1.400 . S
C1339 C1340 1.398 . S
C1339 C1345 1.491 . S
C1340 H1331 0.950 . S
C1340 C1339 1.398 . S
C1340 C1341 1.391 . S
C1341 H1329 0.950 . S
C1341 C1337 1.393 . S
C1341 C1340 1.391 . S
C1342 H1332 0.950 . S
C1342 C1343 1.386 . S
C1342 C1344 1.391 . S
C1343 C1342 1.386 . S
C1343 C1347 1.393 . S
C1344 H1333 0.950 . S
C1344 C1342 1.391 . S
C1344 C1345 1.400 . S
C1345 C1339 1.491 . S
C1345 C1344 1.400 . S
C1345 C1346 1.398 . S
C1346 H1334 0.950 . S
C1346 C1345 1.398 . S
C1346 C1347 1.391 . S
C1347 H1335 0.950 . S
C1347 C1343 1.393 . S
C1347 C1346 1.391 . S
H1348 C1356 0.950 . S
H1349 C1361 0.950 . S
H1350 C1358 0.950 . S
H1351 C1360 0.950 . S
H1352 C1362 0.950 . S
H1353 C1364 0.950 . S
H1354 C1366 0.950 . S
H1355 C1367 0.950 . S
C1356 H1348 0.950 . S
C1356 C1357 1.386 . S
C1356 C1358 1.391 . S
C1357 C1356 1.386 . S
C1357 C1361 1.393 . S
C1358 H1350 0.950 . S
C1358 C1356 1.391 . S
C1358 C1359 1.400 . S
C1359 C1358 1.400 . S
C1359 C1360 1.398 . S
C1359 C1365 1.491 . S
C1360 H1351 0.950 . S
C1360 C1359 1.398 . S
C1360 C1361 1.391 . S
C1361 H1349 0.950 . S
C1361 C1357 1.393 . S
C1361 C1360 1.391 . S
C1362 H1352 0.950 . S
C1362 C1363 1.386 . S
C1362 C1364 1.391 . S
C1363 C1362 1.386 . S
C1363 C1367 1.393 . S
C1364 H1353 0.950 . S
C1364 C1362 1.391 . S
C1364 C1365 1.400 . S
C1365 C1359 1.491 . S
C1365 C1364 1.400 . S
C1365 C1366 1.398 . S
C1366 H1354 0.950 . S
C1366 C1365 1.398 . S
C1366 C1367 1.391 . S
C1367 H1355 0.950 . S
C1367 C1363 1.393 . S
C1367 C1366 1.391 . S
H1368 C1376 0.950 . S
H1369 C1381 0.950 . S
H1370 C1378 0.950 . S
H1371 C1380 0.950 . S
H1372 C1382 0.950 . S
H1373 C1384 0.950 . S
H1374 C1386 0.950 . S
H1375 C1387 0.950 . S
C1376 H1368 0.950 . S
C1376 C1377 1.386 . S
C1376 C1378 1.391 . S
C1377 C1376 1.386 . S
C1377 C1381 1.393 . S
C1378 H1370 0.950 . S
C1378 C1376 1.391 . S
C1378 C1379 1.400 . S
C1379 C1378 1.400 . S
C1379 C1380 1.398 . S
C1379 C1385 1.491 . S
C1380 H1371 0.950 . S
C1380 C1379 1.398 . S
C1380 C1381 1.391 . S
C1381 H1369 0.950 . S
C1381 C1377 1.393 . S
C1381 C1380 1.391 . S
C1382 H1372 0.950 . S
C1382 C1383 1.386 . S
C1382 C1384 1.391 . S
C1383 C1382 1.386 . S
C1383 C1387 1.393 . S
C1384 H1373 0.950 . S
C1384 C1382 1.391 . S
C1384 C1385 1.400 . S
C1385 C1379 1.491 . S
C1385 C1384 1.400 . S
C1385 C1386 1.398 . S
C1386 H1374 0.950 . S
C1386 C1385 1.398 . S
C1386 C1387 1.391 . S
C1387 H1375 0.950 . S
C1387 C1383 1.393 . S
C1387 C1386 1.391 . S
H1388 C1396 0.950 . S
H1389 C1401 0.950 1_545 S
H1390 C1398 0.950 . S
H1391 C1400 0.950 1_545 S
H1392 C1402 0.950 1_545 S
H1393 C1404 0.950 1_545 S
H1394 C1406 0.950 . S
H1395 C1407 0.950 . S
C1396 H1388 0.950 . S
C1396 C1397 1.386 . S
C1396 C1398 1.391 . S
C1397 C1396 1.386 . S
C1397 C1401 1.393 . S
C1398 H1390 0.950 . S
C1398 C1396 1.391 . S
C1398 C1399 1.400 . S
C1399 C1398 1.400 . S
C1399 C1400 1.398 . S
C1399 C1405 1.491 . S
C1400 H1391 0.950 1_565 S
C1400 C1399 1.398 . S
C1400 C1401 1.391 . S
C1401 H1389 0.950 1_565 S
C1401 C1397 1.393 . S
C1401 C1400 1.391 . S
C1402 H1392 0.950 1_565 S
C1402 C1403 1.386 . S
C1402 C1404 1.391 . S
C1403 C1402 1.386 . S
C1403 C1407 1.393 . S
C1404 H1393 0.950 1_565 S
C1404 C1402 1.391 . S
C1404 C1405 1.400 . S
C1405 C1399 1.491 . S
C1405 C1404 1.400 . S
C1405 C1406 1.398 . S
C1406 H1394 0.950 . S
C1406 C1405 1.398 . S
C1406 C1407 1.391 . S
C1407 H1395 0.950 . S
C1407 C1403 1.393 . S
C1407 C1406 1.391 . S
H1408 C1416 0.950 . S
H1409 C1421 0.950 . S
H1410 C1418 0.950 . S
H1411 C1420 0.950 . S
H1412 C1422 0.950 . S
H1413 C1424 0.950 . S
H1414 C1426 0.950 . S
H1415 C1427 0.950 . S
C1416 H1408 0.950 . S
C1416 C1417 1.386 . S
C1416 C1418 1.391 . S
C1417 C1416 1.386 . S
C1417 C1421 1.393 . S
C1418 H1410 0.950 . S
C1418 C1416 1.391 . S
C1418 C1419 1.400 . S
C1419 C1418 1.400 . S
C1419 C1420 1.398 . S
C1419 C1425 1.491 . S
C1420 H1411 0.950 . S
C1420 C1419 1.398 . S
C1420 C1421 1.391 . S
C1421 H1409 0.950 . S
C1421 C1417 1.393 . S
C1421 C1420 1.391 . S
C1422 H1412 0.950 . S
C1422 C1423 1.386 . S
C1422 C1424 1.391 . S
C1423 C1422 1.386 . S
C1423 C1427 1.393 . S
C1424 H1413 0.950 . S
C1424 C1422 1.391 . S
C1424 C1425 1.400 . S
C1425 C1419 1.491 . S
C1425 C1424 1.400 . S
C1425 C1426 1.398 . S
C1426 H1414 0.950 . S
C1426 C1425 1.398 . S
C1426 C1427 1.391 . S
C1427 H1415 0.950 . S
C1427 C1423 1.393 . S
C1427 C1426 1.391 . S
H1428 C1436 0.950 . S
H1429 C1441 0.950 . S
H1430 C1438 0.950 . S
H1431 C1440 0.950 . S
H1432 C1442 0.950 . S
H1433 C1444 0.950 . S
H1434 C1446 0.950 . S
H1435 C1447 0.950 . S
C1436 H1428 0.950 . S
C1436 C1437 1.386 . S
C1436 C1438 1.391 . S
C1437 C1436 1.386 . S
C1437 C1441 1.393 . S
C1438 H1430 0.950 . S
C1438 C1436 1.391 . S
C1438 C1439 1.400 . S
C1439 C1438 1.400 . S
C1439 C1440 1.398 . S
C1439 C1445 1.491 . S
C1440 H1431 0.950 . S
C1440 C1439 1.398 . S
C1440 C1441 1.391 . S
C1441 H1429 0.950 . S
C1441 C1437 1.393 . S
C1441 C1440 1.391 . S
C1442 H1432 0.950 . S
C1442 C1443 1.386 . S
C1442 C1444 1.391 . S
C1443 C1442 1.386 . S
C1443 C1447 1.393 . S
C1444 H1433 0.950 . S
C1444 C1442 1.391 . S
C1444 C1445 1.400 . S
C1445 C1439 1.491 . S
C1445 C1444 1.400 . S
C1445 C1446 1.398 . S
C1446 H1434 0.950 . S
C1446 C1445 1.398 . S
C1446 C1447 1.391 . S
C1447 H1435 0.950 . S
C1447 C1443 1.393 . S
C1447 C1446 1.391 . S
H1448 C1456 0.950 . S
H1449 C1461 0.950 . S
H1450 C1458 0.950 . S
H1451 C1460 0.950 . S
H1452 C1462 0.950 . S
H1453 C1464 0.950 . S
H1454 C1466 0.950 . S
H1455 C1467 0.950 . S
C1456 H1448 0.950 . S
C1456 C1457 1.386 . S
C1456 C1458 1.391 . S
C1457 C1456 1.386 . S
C1457 C1461 1.393 . S
C1458 H1450 0.950 . S
C1458 C1456 1.391 . S
C1458 C1459 1.400 . S
C1459 C1458 1.400 . S
C1459 C1460 1.398 . S
C1459 C1465 1.491 . S
C1460 H1451 0.950 . S
C1460 C1459 1.398 . S
C1460 C1461 1.391 . S
C1461 H1449 0.950 . S
C1461 C1457 1.393 . S
C1461 C1460 1.391 . S
C1462 H1452 0.950 . S
C1462 C1463 1.386 . S
C1462 C1464 1.391 . S
C1463 C1462 1.386 . S
C1463 C1467 1.393 . S
C1464 H1453 0.950 . S
C1464 C1462 1.391 . S
C1464 C1465 1.400 . S
C1465 C1459 1.491 . S
C1465 C1464 1.400 . S
C1465 C1466 1.398 . S
C1466 H1454 0.950 . S
C1466 C1465 1.398 . S
C1466 C1467 1.391 . S
C1467 H1455 0.950 . S
C1467 C1463 1.393 . S
C1467 C1466 1.391 . S
H1468 C1476 0.950 . S
H1469 C1481 0.950 . S
H1470 C1478 0.950 . S
H1471 C1480 0.950 . S
H1472 C1482 0.950 . S
H1473 C1484 0.950 . S
H1474 C1486 0.950 . S
H1475 C1487 0.950 . S
C1476 H1468 0.950 . S
C1476 C1477 1.386 . S
C1476 C1478 1.391 . S
C1477 C1476 1.386 . S
C1477 C1481 1.393 . S
C1478 H1470 0.950 . S
C1478 C1476 1.391 . S
C1478 C1479 1.400 . S
C1479 C1478 1.400 . S
C1479 C1480 1.398 . S
C1479 C1485 1.491 . S
C1480 H1471 0.950 . S
C1480 C1479 1.398 . S
C1480 C1481 1.391 . S
C1481 H1469 0.950 . S
C1481 C1477 1.393 . S
C1481 C1480 1.391 . S
C1482 H1472 0.950 . S
C1482 C1483 1.386 . S
C1482 C1484 1.391 . S
C1483 C1482 1.386 . S
C1483 C1487 1.393 . S
C1484 H1473 0.950 . S
C1484 C1482 1.391 . S
C1484 C1485 1.400 . S
C1485 C1479 1.491 . S
C1485 C1484 1.400 . S
C1485 C1486 1.398 . S
C1486 H1474 0.950 . S
C1486 C1485 1.398 . S
C1486 C1487 1.391 . S
C1487 H1475 0.950 . S
C1487 C1483 1.393 . S
C1487 C1486 1.391 . S
H1488 C1496 0.950 . S
H1489 C1501 0.950 . S
H1490 C1498 0.950 . S
H1491 C1500 0.950 . S
H1492 C1502 0.950 . S
H1493 C1504 0.950 . S
H1494 C1506 0.950 . S
H1495 C1507 0.950 . S
C1496 H1488 0.950 . S
C1496 C1497 1.386 . S
C1496 C1498 1.391 . S
C1497 C1496 1.386 . S
C1497 C1501 1.393 . S
C1498 H1490 0.950 . S
C1498 C1496 1.391 . S
C1498 C1499 1.400 . S
C1499 C1498 1.400 . S
C1499 C1500 1.398 . S
C1499 C1505 1.491 . S
C1500 H1491 0.950 . S
C1500 C1499 1.398 . S
C1500 C1501 1.391 . S
C1501 H1489 0.950 . S
C1501 C1497 1.393 . S
C1501 C1500 1.391 . S
C1502 H1492 0.950 . S
C1502 C1503 1.386 . S
C1502 C1504 1.391 . S
C1503 C1502 1.386 . S
C1503 C1507 1.393 . S
C1504 H1493 0.950 . S
C1504 C1502 1.391 . S
C1504 C1505 1.400 . S
C1505 C1499 1.491 . S
C1505 C1504 1.400 . S
C1505 C1506 1.398 . S
C1506 H1494 0.950 . S
C1506 C1505 1.398 . S
C1506 C1507 1.391 . S
C1507 H1495 0.950 . S
C1507 C1503 1.393 . S
C1507 C1506 1.391 . S
H1508 C1516 0.950 . S
H1509 C1521 0.950 . S
H1510 C1518 0.950 . S
H1511 C1520 0.950 . S
H1512 C1522 0.950 . S
H1513 C1524 0.950 . S
H1514 C1526 0.950 . S
H1515 C1527 0.950 . S
C1516 H1508 0.950 . S
C1516 C1517 1.386 . S
C1516 C1518 1.391 . S
C1517 C1516 1.386 . S
C1517 C1521 1.393 . S
C1518 H1510 0.950 . S
C1518 C1516 1.391 . S
C1518 C1519 1.400 . S
C1519 C1518 1.400 . S
C1519 C1520 1.398 . S
C1519 C1525 1.491 . S
C1520 H1511 0.950 . S
C1520 C1519 1.398 . S
C1520 C1521 1.391 . S
C1521 H1509 0.950 . S
C1521 C1517 1.393 . S
C1521 C1520 1.391 . S
C1522 H1512 0.950 . S
C1522 C1523 1.386 . S
C1522 C1524 1.391 . S
C1523 C1522 1.386 . S
C1523 C1527 1.393 . S
C1524 H1513 0.950 . S
C1524 C1522 1.391 . S
C1524 C1525 1.400 . S
C1525 C1519 1.491 . S
C1525 C1524 1.400 . S
C1525 C1526 1.398 . S
C1526 H1514 0.950 . S
C1526 C1525 1.398 . S
C1526 C1527 1.391 . S
C1527 H1515 0.950 . S
C1527 C1523 1.393 . S
C1527 C1526 1.391 . S
H1528 C1536 0.950 . S
H1529 C1541 0.950 . S
H1530 C1538 0.950 . S
H1531 C1540 0.950 . S
H1532 C1542 0.950 . S
H1533 C1544 0.950 . S
H1534 C1546 0.950 . S
H1535 C1547 0.950 . S
C1536 H1528 0.950 . S
C1536 C1537 1.386 . S
C1536 C1538 1.391 . S
C1537 C1536 1.386 . S
C1537 C1541 1.393 . S
C1538 H1530 0.950 . S
C1538 C1536 1.391 . S
C1538 C1539 1.400 . S
C1539 C1538 1.400 . S
C1539 C1540 1.398 . S
C1539 C1545 1.491 . S
C1540 H1531 0.950 . S
C1540 C1539 1.398 . S
C1540 C1541 1.391 . S
C1541 H1529 0.950 . S
C1541 C1537 1.393 . S
C1541 C1540 1.391 . S
C1542 H1532 0.950 . S
C1542 C1543 1.386 . S
C1542 C1544 1.391 . S
C1543 C1542 1.386 . S
C1543 C1547 1.393 . S
C1544 H1533 0.950 . S
C1544 C1542 1.391 . S
C1544 C1545 1.400 . S
C1545 C1539 1.491 . S
C1545 C1544 1.400 . S
C1545 C1546 1.398 . S
C1546 H1534 0.950 . S
C1546 C1545 1.398 . S
C1546 C1547 1.391 . S
C1547 H1535 0.950 . S
C1547 C1543 1.393 . S
C1547 C1546 1.391 . S
H1548 C1556 0.950 . S
H1549 C1561 0.950 . S
H1550 C1558 0.950 . S
H1551 C1560 0.950 . S
H1552 C1562 0.950 . S
H1553 C1564 0.950 . S
H1554 C1566 0.950 . S
H1555 C1567 0.950 . S
C1556 H1548 0.950 . S
C1556 C1557 1.386 1_455 S
C1556 C1558 1.391 . S
C1557 C1556 1.386 1_655 S
C1557 C1561 1.393 . S
C1558 H1550 0.950 . S
C1558 C1556 1.391 . S
C1558 C1559 1.400 1_455 S
C1559 C1558 1.400 1_655 S
C1559 C1560 1.398 . S
C1559 C1565 1.491 . S
C1560 H1551 0.950 . S
C1560 C1559 1.398 . S
C1560 C1561 1.391 . S
C1561 H1549 0.950 . S
C1561 C1557 1.393 . S
C1561 C1560 1.391 . S
C1562 H1552 0.950 . S
C1562 C1563 1.386 . S
C1562 C1564 1.391 . S
C1563 C1562 1.386 . S
C1563 C1567 1.393 1_655 S
C1564 H1553 0.950 . S
C1564 C1562 1.391 . S
C1564 C1565 1.400 . S
C1565 C1559 1.491 . S
C1565 C1564 1.400 . S
C1565 C1566 1.398 1_655 S
C1566 H1554 0.950 . S
C1566 C1565 1.398 1_455 S
C1566 C1567 1.391 . S
C1567 H1555 0.950 . S
C1567 C1563 1.393 1_455 S
C1567 C1566 1.391 . S
H1568 C1576 0.950 . S
H1569 C1581 0.950 . S
H1570 C1578 0.950 . S
H1571 C1580 0.950 . S
H1572 C1582 0.950 . S
H1573 C1584 0.950 . S
H1574 C1586 0.950 . S
H1575 C1587 0.950 . S
C1576 H1568 0.950 . S
C1576 C1577 1.386 . S
C1576 C1578 1.391 . S
C1577 C1576 1.386 . S
C1577 C1581 1.393 . S
C1578 H1570 0.950 . S
C1578 C1576 1.391 . S
C1578 C1579 1.400 . S
C1579 C1578 1.400 . S
C1579 C1580 1.398 . S
C1579 C1585 1.491 . S
C1580 H1571 0.950 . S
C1580 C1579 1.398 . S
C1580 C1581 1.391 . S
C1581 H1569 0.950 . S
C1581 C1577 1.393 . S
C1581 C1580 1.391 . S
C1582 H1572 0.950 . S
C1582 C1583 1.386 . S
C1582 C1584 1.391 . S
C1583 C1582 1.386 . S
C1583 C1587 1.393 . S
C1584 H1573 0.950 . S
C1584 C1582 1.391 . S
C1584 C1585 1.400 . S
C1585 C1579 1.491 . S
C1585 C1584 1.400 . S
C1585 C1586 1.398 . S
C1586 H1574 0.950 . S
C1586 C1585 1.398 . S
C1586 C1587 1.391 . S
C1587 H1575 0.950 . S
C1587 C1583 1.393 . S
C1587 C1586 1.391 . S
H1588 C1596 0.950 . S
H1589 C1601 0.950 . S
H1590 C1598 0.950 . S
H1591 C1600 0.950 . S
H1592 C1602 0.950 . S
H1593 C1604 0.950 . S
H1594 C1606 0.950 . S
H1595 C1607 0.950 . S
C1596 H1588 0.950 . S
C1596 C1597 1.386 . S
C1596 C1598 1.391 . S
C1597 C1596 1.386 . S
C1597 C1601 1.393 . S
C1598 H1590 0.950 . S
C1598 C1596 1.391 . S
C1598 C1599 1.400 . S
C1599 C1598 1.400 . S
C1599 C1600 1.398 . S
C1599 C1605 1.491 . S
C1600 H1591 0.950 . S
C1600 C1599 1.398 . S
C1600 C1601 1.391 . S
C1601 H1589 0.950 . S
C1601 C1597 1.393 . S
C1601 C1600 1.391 . S
C1602 H1592 0.950 . S
C1602 C1603 1.386 . S
C1602 C1604 1.391 . S
C1603 C1602 1.386 . S
C1603 C1607 1.393 . S
C1604 H1593 0.950 . S
C1604 C1602 1.391 . S
C1604 C1605 1.400 . S
C1605 C1599 1.491 . S
C1605 C1604 1.400 . S
C1605 C1606 1.398 . S
C1606 H1594 0.950 . S
C1606 C1605 1.398 . S
C1606 C1607 1.391 . S
C1607 H1595 0.950 . S
C1607 C1603 1.393 . S
C1607 C1606 1.391 . S
H1608 C1616 0.950 . S
H1609 C1621 0.950 . S
H1610 C1618 0.950 1_545 S
H1611 C1620 0.950 . S
H1612 C1622 0.950 . S
H1613 C1624 0.951 . S
H1614 C1626 0.950 . S
H1615 C1627 0.950 . S
C1616 H1608 0.950 . S
C1616 C1617 1.386 . S
C1616 C1618 1.391 1_545 S
C1617 C1616 1.386 . S
C1617 C1621 1.393 1_545 S
C1618 H1610 0.950 1_565 S
C1618 C1616 1.391 1_565 S
C1618 C1619 1.400 . S
C1619 C1618 1.400 . S
C1619 C1620 1.398 . S
C1619 C1625 1.491 . S
C1620 H1611 0.950 . S
C1620 C1619 1.398 . S
C1620 C1621 1.391 . S
C1621 H1609 0.950 . S
C1621 C1617 1.393 1_565 S
C1621 C1620 1.391 . S
C1622 H1612 0.950 . S
C1622 C1623 1.386 . S
C1622 C1624 1.394 . S
C1623 C1622 1.386 . S
C1623 C1627 1.393 1_554 S
C1624 H1613 0.951 . S
C1624 C1622 1.394 . S
C1624 C1625 1.397 1_554 S
C1625 C1619 1.491 . S
C1625 C1624 1.397 1_556 S
C1625 C1626 1.398 . S
C1626 H1614 0.950 . S
C1626 C1625 1.398 . S
C1626 C1627 1.391 . S
C1627 H1615 0.950 . S
C1627 C1623 1.393 1_556 S
C1627 C1626 1.391 . S
H1628 C1636 0.950 . S
H1629 C1641 0.950 . S
H1630 C1638 0.950 . S
H1631 C1640 0.950 . S
H1632 C1642 0.950 . S
H1633 C1644 0.950 . S
H1634 C1646 0.950 . S
H1635 C1647 0.950 . S
C1636 H1628 0.950 . S
C1636 C1637 1.386 . S
C1636 C1638 1.391 . S
C1637 C1636 1.386 . S
C1637 C1641 1.393 . S
C1638 H1630 0.950 . S
C1638 C1636 1.391 . S
C1638 C1639 1.400 . S
C1639 C1638 1.400 . S
C1639 C1640 1.398 . S
C1639 C1645 1.491 . S
C1640 H1631 0.950 . S
C1640 C1639 1.398 . S
C1640 C1641 1.391 . S
C1641 H1629 0.950 . S
C1641 C1637 1.393 . S
C1641 C1640 1.391 . S
C1642 H1632 0.950 . S
C1642 C1643 1.386 . S
C1642 C1644 1.391 . S
C1643 C1642 1.386 . S
C1643 C1647 1.393 . S
C1644 H1633 0.950 . S
C1644 C1642 1.391 . S
C1644 C1645 1.400 . S
C1645 C1639 1.491 . S
C1645 C1644 1.400 . S
C1645 C1646 1.398 . S
C1646 H1634 0.950 . S
C1646 C1645 1.398 . S
C1646 C1647 1.391 . S
C1647 H1635 0.950 . S
C1647 C1643 1.393 . S
C1647 C1646 1.391 . S
H1648 C1656 0.950 . S
H1649 C1661 0.950 1_565 S
H1650 C1658 0.950 . S
H1651 C1660 0.950 . S
H1652 C1662 0.950 . S
H1653 C1664 0.950 . S
H1654 C1666 0.950 . S
H1655 C1667 0.950 . S
C1656 H1648 0.950 . S
C1656 C1657 1.386 . S
C1656 C1658 1.391 . S
C1657 C1656 1.386 . S
C1657 C1661 1.393 . S
C1658 H1650 0.950 . S
C1658 C1656 1.391 . S
C1658 C1659 1.400 . S
C1659 C1658 1.400 . S
C1659 C1660 1.398 . S
C1659 C1665 1.491 . S
C1660 H1651 0.950 . S
C1660 C1659 1.398 . S
C1660 C1661 1.391 . S
C1661 H1649 0.950 1_545 S
C1661 C1657 1.393 . S
C1661 C1660 1.391 . S
C1662 H1652 0.950 . S
C1662 C1663 1.386 . S
C1662 C1664 1.391 . S
C1663 C1662 1.386 . S
C1663 C1667 1.393 . S
C1664 H1653 0.950 . S
C1664 C1662 1.391 . S
C1664 C1665 1.400 . S
C1665 C1659 1.491 . S
C1665 C1664 1.400 . S
C1665 C1666 1.398 . S
C1666 H1654 0.950 . S
C1666 C1665 1.398 . S
C1666 C1667 1.391 . S
C1667 H1655 0.950 . S
C1667 C1663 1.393 . S
C1667 C1666 1.391 . S
H1668 C1676 0.950 . S
H1669 C1681 0.950 . S
H1670 C1678 0.950 . S
H1671 C1680 0.950 . S
H1672 C1682 0.950 . S
H1673 C1684 0.950 . S
H1674 C1686 0.950 . S
H1675 C1687 0.950 . S
C1676 H1668 0.950 . S
C1676 C1677 1.386 . S
C1676 C1678 1.391 . S
C1677 C1676 1.386 . S
C1677 C1681 1.393 . S
C1678 H1670 0.950 . S
C1678 C1676 1.391 . S
C1678 C1679 1.400 . S
C1679 C1678 1.400 . S
C1679 C1680 1.398 . S
C1679 C1685 1.491 . S
C1680 H1671 0.950 . S
C1680 C1679 1.398 . S
C1680 C1681 1.391 . S
C1681 H1669 0.950 . S
C1681 C1677 1.393 . S
C1681 C1680 1.391 . S
C1682 H1672 0.950 . S
C1682 C1683 1.386 . S
C1682 C1684 1.391 . S
C1683 C1682 1.386 . S
C1683 C1687 1.393 . S
C1684 H1673 0.950 . S
C1684 C1682 1.391 . S
C1684 C1685 1.400 . S
C1685 C1679 1.491 . S
C1685 C1684 1.400 . S
C1685 C1686 1.398 . S
C1686 H1674 0.950 . S
C1686 C1685 1.398 . S
C1686 C1687 1.391 . S
C1687 H1675 0.950 . S
C1687 C1683 1.393 . S
C1687 C1686 1.391 . S
H1688 C1696 0.950 . S
H1689 C1701 0.950 . S
H1690 C1698 0.950 . S
H1691 C1700 0.950 . S
H1692 C1702 0.950 . S
H1693 C1704 0.950 . S
H1694 C1706 0.950 . S
H1695 C1707 0.950 . S
C1696 H1688 0.950 . S
C1696 C1697 1.386 . S
C1696 C1698 1.391 . S
C1697 C1696 1.386 . S
C1697 C1701 1.393 . S
C1698 H1690 0.950 . S
C1698 C1696 1.391 . S
C1698 C1699 1.400 . S
C1699 C1698 1.400 . S
C1699 C1700 1.398 . S
C1699 C1705 1.491 . S
C1700 H1691 0.950 . S
C1700 C1699 1.398 . S
C1700 C1701 1.391 . S
C1701 H1689 0.950 . S
C1701 C1697 1.393 . S
C1701 C1700 1.391 . S
C1702 H1692 0.950 . S
C1702 C1703 1.386 . S
C1702 C1704 1.391 . S
C1703 C1702 1.386 . S
C1703 C1707 1.393 . S
C1704 H1693 0.950 . S
C1704 C1702 1.391 . S
C1704 C1705 1.400 . S
C1705 C1699 1.491 . S
C1705 C1704 1.400 . S
C1705 C1706 1.398 . S
C1706 H1694 0.950 . S
C1706 C1705 1.398 . S
C1706 C1707 1.391 . S
C1707 H1695 0.950 . S
C1707 C1703 1.393 . S
C1707 C1706 1.391 . S
H1708 C1716 0.950 . S
H1709 C1721 0.950 . S
H1710 C1718 0.950 . S
H1711 C1720 0.950 . S
H1712 C1722 0.950 . S
H1713 C1724 0.950 . S
H1714 C1726 0.950 . S
H1715 C1727 0.950 . S
C1716 H1708 0.950 . S
C1716 C1717 1.386 . S
C1716 C1718 1.391 . S
C1717 C1716 1.386 . S
C1717 C1721 1.393 . S
C1718 H1710 0.950 . S
C1718 C1716 1.391 . S
C1718 C1719 1.400 . S
C1719 C1718 1.400 . S
C1719 C1720 1.398 . S
C1719 C1725 1.491 . S
C1720 H1711 0.950 . S
C1720 C1719 1.398 . S
C1720 C1721 1.391 . S
C1721 H1709 0.950 . S
C1721 C1717 1.393 . S
C1721 C1720 1.391 . S
C1722 H1712 0.950 . S
C1722 C1723 1.386 . S
C1722 C1724 1.391 . S
C1723 C1722 1.386 . S
C1723 C1727 1.393 . S
C1724 H1713 0.950 . S
C1724 C1722 1.391 . S
C1724 C1725 1.400 . S
C1725 C1719 1.491 . S
C1725 C1724 1.400 . S
C1725 C1726 1.398 . S
C1726 H1714 0.950 . S
C1726 C1725 1.398 . S
C1726 C1727 1.391 . S
C1727 H1715 0.950 . S
C1727 C1723 1.393 . S
C1727 C1726 1.391 . S
H1728 C1736 0.950 . S
H1729 C1741 0.950 . S
H1730 C1738 0.950 . S
H1731 C1740 0.950 . S
H1732 C1742 0.950 . S
H1733 C1744 0.950 . S
H1734 C1746 0.950 . S
H1735 C1747 0.950 . S
C1736 H1728 0.950 . S
C1736 C1737 1.386 . S
C1736 C1738 1.391 . S
C1737 C1736 1.386 . S
C1737 C1741 1.393 . S
C1738 H1730 0.950 . S
C1738 C1736 1.391 . S
C1738 C1739 1.400 . S
C1739 C1738 1.400 . S
C1739 C1740 1.398 . S
C1739 C1745 1.491 . S
C1740 H1731 0.950 . S
C1740 C1739 1.398 . S
C1740 C1741 1.391 . S
C1741 H1729 0.950 . S
C1741 C1737 1.393 . S
C1741 C1740 1.391 . S
C1742 H1732 0.950 . S
C1742 C1743 1.386 . S
C1742 C1744 1.391 . S
C1743 C1742 1.386 . S
C1743 C1747 1.393 . S
C1744 H1733 0.950 . S
C1744 C1742 1.391 . S
C1744 C1745 1.400 . S
C1745 C1739 1.491 . S
C1745 C1744 1.400 . S
C1745 C1746 1.398 . S
C1746 H1734 0.950 . S
C1746 C1745 1.398 . S
C1746 C1747 1.391 . S
C1747 H1735 0.950 . S
C1747 C1743 1.393 . S
C1747 C1746 1.391 . S
H1748 C1756 0.950 1_565 S
H1749 C1761 0.950 . S
H1750 C1758 0.943 1_565 S
H1751 C1760 0.950 . S
H1752 C1762 0.950 . S
H1753 C1764 0.950 . S
H1754 C1766 0.950 . S
H1755 C1767 0.950 . S
C1756 H1748 0.950 1_545 S
C1756 C1757 1.386 . S
C1756 C1758 1.391 . S
C1757 C1756 1.386 . S
C1757 C1761 1.393 . S
C1758 H1750 0.943 1_545 S
C1758 C1756 1.391 . S
C1758 C1759 1.406 . S
C1759 C1758 1.406 . S
C1759 C1760 1.398 . S
C1759 C1765 1.491 . S
C1760 H1751 0.950 . S
C1760 C1759 1.398 . S
C1760 C1761 1.391 . S
C1761 H1749 0.950 . S
C1761 C1757 1.393 . S
C1761 C1760 1.391 . S
C1762 H1752 0.950 . S
C1762 C1763 1.386 . S
C1762 C1764 1.391 . S
C1763 C1762 1.386 . S
C1763 C1767 1.393 1_545 S
C1764 H1753 0.950 . S
C1764 C1762 1.391 . S
C1764 C1765 1.400 . S
C1765 C1759 1.491 . S
C1765 C1764 1.400 . S
C1765 C1766 1.398 1_545 S
C1766 H1754 0.950 . S
C1766 C1765 1.398 1_565 S
C1766 C1767 1.391 . S
C1767 H1755 0.950 . S
C1767 C1763 1.393 1_565 S
C1767 C1766 1.391 . S
H1768 C1776 0.950 . S
H1769 C1781 0.950 . S
H1770 C1778 0.950 . S
H1771 C1780 0.950 . S
H1772 C1782 0.950 . S
H1773 C1784 0.950 . S
H1774 C1786 0.950 . S
H1775 C1787 0.950 . S
C1776 H1768 0.950 . S
C1776 C1777 1.386 . S
C1776 C1778 1.391 . S
C1777 C1776 1.386 . S
C1777 C1781 1.393 . S
C1778 H1770 0.950 . S
C1778 C1776 1.391 . S
C1778 C1779 1.400 . S
C1779 C1778 1.400 . S
C1779 C1780 1.398 . S
C1779 C1785 1.491 . S
C1780 H1771 0.950 . S
C1780 C1779 1.398 . S
C1780 C1781 1.391 . S
C1781 H1769 0.950 . S
C1781 C1777 1.393 . S
C1781 C1780 1.391 . S
C1782 H1772 0.950 . S
C1782 C1783 1.386 . S
C1782 C1784 1.391 . S
C1783 C1782 1.386 . S
C1783 C1787 1.393 . S
C1784 H1773 0.950 . S
C1784 C1782 1.391 . S
C1784 C1785 1.400 . S
C1785 C1779 1.491 . S
C1785 C1784 1.400 . S
C1785 C1786 1.398 . S
C1786 H1774 0.950 . S
C1786 C1785 1.398 . S
C1786 C1787 1.391 . S
C1787 H1775 0.950 . S
C1787 C1783 1.393 . S
C1787 C1786 1.391 . S
H1788 C1796 0.950 . S
H1789 C1801 0.950 . S
H1790 C1798 0.950 . S
H1791 C1800 0.950 . S
H1792 C1802 0.950 . S
H1793 C1804 0.950 . S
H1794 C1806 0.950 . S
H1795 C1807 0.950 . S
C1796 H1788 0.950 . S
C1796 C1797 1.386 . S
C1796 C1798 1.391 . S
C1797 C1796 1.386 . S
C1797 C1801 1.393 . S
C1798 H1790 0.950 . S
C1798 C1796 1.391 . S
C1798 C1799 1.400 . S
C1799 C1798 1.400 . S
C1799 C1800 1.398 . S
C1799 C1805 1.491 . S
C1800 H1791 0.950 . S
C1800 C1799 1.398 . S
C1800 C1801 1.391 . S
C1801 H1789 0.950 . S
C1801 C1797 1.393 . S
C1801 C1800 1.391 . S
C1802 H1792 0.950 . S
C1802 C1803 1.386 . S
C1802 C1804 1.391 . S
C1803 C1802 1.386 . S
C1803 C1807 1.393 . S
C1804 H1793 0.950 . S
C1804 C1802 1.391 . S
C1804 C1805 1.400 . S
C1805 C1799 1.491 . S
C1805 C1804 1.400 . S
C1805 C1806 1.398 . S
C1806 H1794 0.950 . S
C1806 C1805 1.398 . S
C1806 C1807 1.391 . S
C1807 H1795 0.950 . S
C1807 C1803 1.393 . S
C1807 C1806 1.391 . S
H1808 C1816 0.950 . S
H1809 C1821 0.950 . S
H1810 C1818 0.950 . S
H1811 C1820 0.950 . S
H1812 C1822 0.950 . S
H1813 C1824 0.950 . S
H1814 C1826 0.950 . S
H1815 C1827 0.950 . S
C1816 H1808 0.950 . S
C1816 C1817 1.386 . S
C1816 C1818 1.391 . S
C1817 C1816 1.386 . S
C1817 C1821 1.393 . S
C1818 H1810 0.950 . S
C1818 C1816 1.391 . S
C1818 C1819 1.400 . S
C1819 C1818 1.400 . S
C1819 C1820 1.398 . S
C1819 C1825 1.491 . S
C1820 H1811 0.950 . S
C1820 C1819 1.398 . S
C1820 C1821 1.391 . S
C1821 H1809 0.950 . S
C1821 C1817 1.393 . S
C1821 C1820 1.391 . S
C1822 H1812 0.950 . S
C1822 C1823 1.386 . S
C1822 C1824 1.391 . S
C1823 C1822 1.386 . S
C1823 C1827 1.393 . S
C1824 H1813 0.950 . S
C1824 C1822 1.391 . S
C1824 C1825 1.400 . S
C1825 C1819 1.491 . S
C1825 C1824 1.400 . S
C1825 C1826 1.398 . S
C1826 H1814 0.950 . S
C1826 C1825 1.398 . S
C1826 C1827 1.391 . S
C1827 H1815 0.950 . S
C1827 C1823 1.393 . S
C1827 C1826 1.391 . S
H1828 C1836 0.950 . S
H1829 C1841 0.949 1_655 S
H1830 C1838 0.950 . S
H1831 C1840 0.920 1_655 S
H1832 C1842 0.950 . S
H1833 C1844 0.950 . S
H1834 C1846 0.950 . S
H1835 C1847 0.950 . S
C1836 H1828 0.950 . S
C1836 C1837 1.386 . S
C1836 C1838 1.391 . S
C1837 C1836 1.386 . S
C1837 C1841 1.393 . S
C1838 H1830 0.950 . S
C1838 C1836 1.391 . S
C1838 C1839 1.400 . S
C1839 C1838 1.400 . S
C1839 C1840 1.414 . S
C1839 C1845 1.491 . S
C1840 H1831 0.920 1_455 S
C1840 C1839 1.414 . S
C1840 C1841 1.404 . S
C1841 H1829 0.949 1_455 S
C1841 C1837 1.393 . S
C1841 C1840 1.404 . S
C1842 H1832 0.950 . S
C1842 C1843 1.386 . S
C1842 C1844 1.391 . S
C1843 C1842 1.386 . S
C1843 C1847 1.393 1_655 S
C1844 H1833 0.950 . S
C1844 C1842 1.391 . S
C1844 C1845 1.400 1_655 S
C1845 C1839 1.491 . S
C1845 C1844 1.400 1_455 S
C1845 C1846 1.398 . S
C1846 H1834 0.950 . S
C1846 C1845 1.398 . S
C1846 C1847 1.391 . S
C1847 H1835 0.950 . S
C1847 C1843 1.393 1_455 S
C1847 C1846 1.391 . S
H1848 C1856 0.950 . S
H1849 C1861 0.950 . S
H1850 C1858 0.950 . S
H1851 C1860 0.950 . S
H1852 C1862 0.950 . S
H1853 C1864 0.950 . S
H1854 C1866 0.950 . S
H1855 C1867 0.950 . S
C1856 H1848 0.950 . S
C1856 C1857 1.386 . S
C1856 C1858 1.391 . S
C1857 C1856 1.386 . S
C1857 C1861 1.393 . S
C1858 H1850 0.950 . S
C1858 C1856 1.391 . S
C1858 C1859 1.400 . S
C1859 C1858 1.400 . S
C1859 C1860 1.398 . S
C1859 C1865 1.491 . S
C1860 H1851 0.950 . S
C1860 C1859 1.398 . S
C1860 C1861 1.391 . S
C1861 H1849 0.950 . S
C1861 C1857 1.393 . S
C1861 C1860 1.391 . S
C1862 H1852 0.950 . S
C1862 C1863 1.386 . S
C1862 C1864 1.391 . S
C1863 C1862 1.386 . S
C1863 C1867 1.393 . S
C1864 H1853 0.950 . S
C1864 C1862 1.391 . S
C1864 C1865 1.400 . S
C1865 C1859 1.491 . S
C1865 C1864 1.400 . S
C1865 C1866 1.398 . S
C1866 H1854 0.950 . S
C1866 C1865 1.398 . S
C1866 C1867 1.391 . S
C1867 H1855 0.950 . S
C1867 C1863 1.393 . S
C1867 C1866 1.391 . S
H1868 C1876 0.950 . S
H1869 C1881 0.950 . S
H1870 C1878 0.950 . S
H1871 C1880 0.921 1_655 S
H1872 C1882 0.950 . S
H1873 C1884 0.950 . S
H1874 C1886 0.950 . S
H1875 C1887 0.950 . S
C1876 H1868 0.950 . S
C1876 C1877 1.386 . S
C1876 C1878 1.391 . S
C1877 C1876 1.386 . S
C1877 C1881 1.393 1_455 S
C1878 H1870 0.950 . S
C1878 C1876 1.391 . S
C1878 C1879 1.400 . S
C1879 C1878 1.400 . S
C1879 C1880 1.398 . S
C1879 C1885 1.491 . S
C1880 H1871 0.921 1_455 S
C1880 C1879 1.398 . S
C1880 C1881 1.391 1_455 S
C1881 H1869 0.950 . S
C1881 C1877 1.393 1_655 S
C1881 C1880 1.391 1_655 S
C1882 H1872 0.950 . S
C1882 C1883 1.386 . S
C1882 C1884 1.391 . S
C1883 C1882 1.386 . S
C1883 C1887 1.393 . S
C1884 H1873 0.950 . S
C1884 C1882 1.391 . S
C1884 C1885 1.400 . S
C1885 C1879 1.491 . S
C1885 C1884 1.400 . S
C1885 C1886 1.398 . S
C1886 H1874 0.950 . S
C1886 C1885 1.398 . S
C1886 C1887 1.391 . S
C1887 H1875 0.950 . S
C1887 C1883 1.393 . S
C1887 C1886 1.391 . S
H1888 C1896 0.950 . S
H1889 C1901 0.950 . S
H1890 C1898 0.950 . S
H1891 C1900 0.950 . S
H1892 C1902 0.950 . S
H1893 C1904 0.950 . S
H1894 C1906 0.950 . S
H1895 C1907 0.950 . S
C1896 H1888 0.950 . S
C1896 C1897 1.386 . S
C1896 C1898 1.391 . S
C1897 C1896 1.386 . S
C1897 C1901 1.393 . S
C1898 H1890 0.950 . S
C1898 C1896 1.391 . S
C1898 C1899 1.400 . S
C1899 C1898 1.400 . S
C1899 C1900 1.398 . S
C1899 C1905 1.491 . S
C1900 H1891 0.950 . S
C1900 C1899 1.398 . S
C1900 C1901 1.391 . S
C1901 H1889 0.950 . S
C1901 C1897 1.393 . S
C1901 C1900 1.391 . S
C1902 H1892 0.950 . S
C1902 C1903 1.386 . S
C1902 C1904 1.391 . S
C1903 C1902 1.386 . S
C1903 C1907 1.393 . S
C1904 H1893 0.950 . S
C1904 C1902 1.391 . S
C1904 C1905 1.400 . S
C1905 C1899 1.491 . S
C1905 C1904 1.400 . S
C1905 C1906 1.398 . S
C1906 H1894 0.950 . S
C1906 C1905 1.398 . S
C1906 C1907 1.391 . S
C1907 H1895 0.950 . S
C1907 C1903 1.393 . S
C1907 C1906 1.391 . S
H1908 C1916 0.950 1_554 S
H1909 C1921 0.950 . S
H1910 C1918 0.950 . S
H1911 C1920 0.950 . S
H1912 C1922 0.950 . S
H1913 C1924 0.950 . S
H1914 C1926 0.950 . S
H1915 C1927 0.950 . S
C1916 H1908 0.950 1_556 S
C1916 C1917 1.386 1_455 S
C1916 C1918 1.391 . S
C1917 C1916 1.386 1_655 S
C1917 C1921 1.393 . S
C1918 H1910 0.950 . S
C1918 C1916 1.391 . S
C1918 C1919 1.400 1_455 S
C1919 C1918 1.400 1_655 S
C1919 C1920 1.398 . S
C1919 C1925 1.491 . S
C1920 H1911 0.950 . S
C1920 C1919 1.398 . S
C1920 C1921 1.391 . S
C1921 H1909 0.950 . S
C1921 C1917 1.393 . S
C1921 C1920 1.391 . S
C1922 H1912 0.950 . S
C1922 C1923 1.386 . S
C1922 C1924 1.391 . S
C1923 C1922 1.386 . S
C1923 C1927 1.393 1_655 S
C1924 H1913 0.950 . S
C1924 C1922 1.391 . S
C1924 C1925 1.400 . S
C1925 C1919 1.491 . S
C1925 C1924 1.400 . S
C1925 C1926 1.398 1_655 S
C1926 H1914 0.950 . S
C1926 C1925 1.398 1_455 S
C1926 C1927 1.391 . S
C1927 H1915 0.950 . S
C1927 C1923 1.393 1_455 S
C1927 C1926 1.391 . S
H1928 C1936 0.950 . S
H1929 C1941 0.950 . S
H1930 C1938 0.950 . S
H1931 C1940 0.950 . S
H1932 C1942 0.950 . S
H1933 C1944 0.950 . S
H1934 C1946 0.950 . S
H1935 C1947 0.950 . S
C1936 H1928 0.950 . S
C1936 C1937 1.386 . S
C1936 C1938 1.391 . S
C1937 C1936 1.386 . S
C1937 C1941 1.393 . S
C1938 H1930 0.950 . S
C1938 C1936 1.391 . S
C1938 C1939 1.400 . S
C1939 C1938 1.400 . S
C1939 C1940 1.398 . S
C1939 C1945 1.491 . S
C1940 H1931 0.950 . S
C1940 C1939 1.398 . S
C1940 C1941 1.391 . S
C1941 H1929 0.950 . S
C1941 C1937 1.393 . S
C1941 C1940 1.391 . S
C1942 H1932 0.950 . S
C1942 C1943 1.386 . S
C1942 C1944 1.391 . S
C1943 C1942 1.386 . S
C1943 C1947 1.393 . S
C1944 H1933 0.950 . S
C1944 C1942 1.391 . S
C1944 C1945 1.400 . S
C1945 C1939 1.491 . S
C1945 C1944 1.400 . S
C1945 C1946 1.398 . S
C1946 H1934 0.950 . S
C1946 C1945 1.398 . S
C1946 C1947 1.391 . S
C1947 H1935 0.950 . S
C1947 C1943 1.393 . S
C1947 C1946 1.391 . S
H1948 C1956 0.950 . S
H1949 C1961 0.976 . S
H1950 C1958 0.950 . S
H1951 C1960 0.950 . S
H1952 C1962 0.950 . S
H1953 C1964 0.950 . S
H1954 C1966 0.950 . S
H1955 C1967 0.950 1_655 S
C1956 H1948 0.950 . S
C1956 C1957 1.386 . S
C1956 C1958 1.391 . S
C1957 C1956 1.386 . S
C1957 C1961 1.393 . S
C1958 H1950 0.950 . S
C1958 C1956 1.391 . S
C1958 C1959 1.400 . S
C1959 C1958 1.400 . S
C1959 C1960 1.398 . S
C1959 C1965 1.491 . S
C1960 H1951 0.950 . S
C1960 C1959 1.398 . S
C1960 C1961 1.391 . S
C1961 H1949 0.976 . S
C1961 C1957 1.393 . S
C1961 C1960 1.391 . S
C1962 H1952 0.950 . S
C1962 C1963 1.386 . S
C1962 C1964 1.391 . S
C1963 C1962 1.386 . S
C1963 C1967 1.393 . S
C1964 H1953 0.950 . S
C1964 C1962 1.391 . S
C1964 C1965 1.400 . S
C1965 C1959 1.491 . S
C1965 C1964 1.400 . S
C1965 C1966 1.398 . S
C1966 H1954 0.950 . S
C1966 C1965 1.398 . S
C1966 C1967 1.391 . S
C1967 H1955 0.950 1_455 S
C1967 C1963 1.393 . S
C1967 C1966 1.391 . S
H1968 C1976 0.950 . S
H1969 C1981 0.950 . S
H1970 C1978 0.950 . S
H1971 C1980 0.950 . S
H1972 C1982 0.950 . S
H1973 C1984 0.950 . S
H1974 C1986 0.950 . S
H1975 C1987 0.950 . S
C1976 H1968 0.950 . S
C1976 C1977 1.386 . S
C1976 C1978 1.391 . S
C1977 C1976 1.386 . S
C1977 C1981 1.393 . S
C1978 H1970 0.950 . S
C1978 C1976 1.391 . S
C1978 C1979 1.400 . S
C1979 C1978 1.400 . S
C1979 C1980 1.398 . S
C1979 C1985 1.491 . S
C1980 H1971 0.950 . S
C1980 C1979 1.398 . S
C1980 C1981 1.391 . S
C1981 H1969 0.950 . S
C1981 C1977 1.393 . S
C1981 C1980 1.391 . S
C1982 H1972 0.950 . S
C1982 C1983 1.386 . S
C1982 C1984 1.391 . S
C1983 C1982 1.386 . S
C1983 C1987 1.393 . S
C1984 H1973 0.950 . S
C1984 C1982 1.391 . S
C1984 C1985 1.400 . S
C1985 C1979 1.491 . S
C1985 C1984 1.400 . S
C1985 C1986 1.398 . S
C1986 H1974 0.950 . S
C1986 C1985 1.398 . S
C1986 C1987 1.391 . S
C1987 H1975 0.950 . S
C1987 C1983 1.393 . S
C1987 C1986 1.391 . S
H1988 C1996 0.950 . S
H1989 C2001 0.950 . S
H1990 C1998 0.950 . S
H1991 C2000 0.950 . S
H1992 C2002 0.950 . S
H1993 C2004 0.950 . S
H1994 C2006 0.950 . S
H1995 C2007 0.950 . S
C1996 H1988 0.950 . S
C1996 C1997 1.386 . S
C1996 C1998 1.391 . S
C1997 C1996 1.386 . S
C1997 C2001 1.393 . S
C1998 H1990 0.950 . S
C1998 C1996 1.391 . S
C1998 C1999 1.400 . S
C1999 C1998 1.400 . S
C1999 C2000 1.398 . S
C1999 C2005 1.491 . S
C2000 H1991 0.950 . S
C2000 C1999 1.398 . S
C2000 C2001 1.391 . S
C2001 H1989 0.950 . S
C2001 C1997 1.393 . S
C2001 C2000 1.391 . S
C2002 H1992 0.950 . S
C2002 C2003 1.386 . S
C2002 C2004 1.391 . S
C2003 C2002 1.386 . S
C2003 C2007 1.393 . S
C2004 H1993 0.950 . S
C2004 C2002 1.391 . S
C2004 C2005 1.400 . S
C2005 C1999 1.491 . S
C2005 C2004 1.400 . S
C2005 C2006 1.398 . S
C2006 H1994 0.950 . S
C2006 C2005 1.398 . S
C2006 C2007 1.391 . S
C2007 H1995 0.950 . S
C2007 C2003 1.393 . S
C2007 C2006 1.391 . S
H2008 C2016 0.950 . S
H2009 C2021 0.950 . S
H2010 C2018 0.950 . S
H2011 C2020 0.950 . S
H2012 C2022 0.950 . S
H2013 C2024 0.950 . S
H2014 C2026 0.950 . S
H2015 C2027 0.950 . S
C2016 H2008 0.950 . S
C2016 C2017 1.386 . S
C2016 C2018 1.391 . S
C2017 C2016 1.386 . S
C2017 C2021 1.393 . S
C2018 H2010 0.950 . S
C2018 C2016 1.391 . S
C2018 C2019 1.400 . S
C2019 C2018 1.400 . S
C2019 C2020 1.398 . S
C2019 C2025 1.491 . S
C2020 H2011 0.950 . S
C2020 C2019 1.398 . S
C2020 C2021 1.391 . S
C2021 H2009 0.950 . S
C2021 C2017 1.393 . S
C2021 C2020 1.391 . S
C2022 H2012 0.950 . S
C2022 C2023 1.386 . S
C2022 C2024 1.391 . S
C2023 C2022 1.386 . S
C2023 C2027 1.393 . S
C2024 H2013 0.950 . S
C2024 C2022 1.391 . S
C2024 C2025 1.400 . S
C2025 C2019 1.491 . S
C2025 C2024 1.400 . S
C2025 C2026 1.398 . S
C2026 H2014 0.950 . S
C2026 C2025 1.398 . S
C2026 C2027 1.391 . S
C2027 H2015 0.950 . S
C2027 C2023 1.393 . S
C2027 C2026 1.391 . S
H2028 C2036 0.950 . S
H2029 C2041 0.950 . S
H2030 C2038 0.950 . S
H2031 C2040 0.950 . S
H2032 C2042 0.950 . S
H2033 C2044 0.950 . S
H2034 C2046 0.950 . S
H2035 C2047 0.950 . S
C2036 H2028 0.950 . S
C2036 C2037 1.386 . S
C2036 C2038 1.391 1_556 S
C2037 C2036 1.386 . S
C2037 C2041 1.393 1_556 S
C2038 H2030 0.950 . S
C2038 C2036 1.391 1_554 S
C2038 C2039 1.400 . S
C2039 C2038 1.400 . S
C2039 C2040 1.398 . S
C2039 C2045 1.491 . S
C2040 H2031 0.950 . S
C2040 C2039 1.398 . S
C2040 C2041 1.391 . S
C2041 H2029 0.950 . S
C2041 C2037 1.393 1_554 S
C2041 C2040 1.391 . S
C2042 H2032 0.950 . S
C2042 C2043 1.386 . S
C2042 C2044 1.391 . S
C2043 C2042 1.386 . S
C2043 C2047 1.393 . S
C2044 H2033 0.950 . S
C2044 C2042 1.391 . S
C2044 C2045 1.400 . S
C2045 C2039 1.491 . S
C2045 C2044 1.400 . S
C2045 C2046 1.398 . S
C2046 H2034 0.950 . S
C2046 C2045 1.398 . S
C2046 C2047 1.391 . S
C2047 H2035 0.950 . S
C2047 C2043 1.393 . S
C2047 C2046 1.391 . S
H2048 C2056 0.950 . S
H2049 C2061 0.950 . S
H2050 C2058 0.950 . S
H2051 C2060 0.950 . S
H2052 C2062 0.950 . S
H2053 C2064 0.950 . S
H2054 C2066 0.950 . S
H2055 C2067 0.950 . S
C2056 H2048 0.950 . S
C2056 C2057 1.386 . S
C2056 C2058 1.391 . S
C2057 C2056 1.386 . S
C2057 C2061 1.393 . S
C2058 H2050 0.950 . S
C2058 C2056 1.391 . S
C2058 C2059 1.400 . S
C2059 C2058 1.400 . S
C2059 C2060 1.398 . S
C2059 C2065 1.491 . S
C2060 H2051 0.950 . S
C2060 C2059 1.398 . S
C2060 C2061 1.391 . S
C2061 H2049 0.950 . S
C2061 C2057 1.393 . S
C2061 C2060 1.391 . S
C2062 H2052 0.950 . S
C2062 C2063 1.386 . S
C2062 C2064 1.391 . S
C2063 C2062 1.386 . S
C2063 C2067 1.393 . S
C2064 H2053 0.950 . S
C2064 C2062 1.391 . S
C2064 C2065 1.400 . S
C2065 C2059 1.491 . S
C2065 C2064 1.400 . S
C2065 C2066 1.398 . S
C2066 H2054 0.950 . S
C2066 C2065 1.398 . S
C2066 C2067 1.391 . S
C2067 H2055 0.950 . S
C2067 C2063 1.393 . S
C2067 C2066 1.391 . S
H2068 C2076 0.950 . S
H2069 C2081 0.950 . S
H2070 C2078 0.950 . S
H2071 C2080 0.950 . S
H2072 C2082 0.950 . S
H2073 C2084 0.950 . S
H2074 C2086 0.950 . S
H2075 C2087 0.950 . S
C2076 H2068 0.950 . S
C2076 C2077 1.386 . S
C2076 C2078 1.391 . S
C2077 C2076 1.386 . S
C2077 C2081 1.393 . S
C2078 H2070 0.950 . S
C2078 C2076 1.391 . S
C2078 C2079 1.400 . S
C2079 C2078 1.400 . S
C2079 C2080 1.398 . S
C2079 C2085 1.491 . S
C2080 H2071 0.950 . S
C2080 C2079 1.398 . S
C2080 C2081 1.391 . S
C2081 H2069 0.950 . S
C2081 C2077 1.393 . S
C2081 C2080 1.391 . S
C2082 H2072 0.950 . S
C2082 C2083 1.386 . S
C2082 C2084 1.391 . S
C2083 C2082 1.386 . S
C2083 C2087 1.393 . S
C2084 H2073 0.950 . S
C2084 C2082 1.391 . S
C2084 C2085 1.400 . S
C2085 C2079 1.491 . S
C2085 C2084 1.400 . S
C2085 C2086 1.398 . S
C2086 H2074 0.950 . S
C2086 C2085 1.398 . S
C2086 C2087 1.391 . S
C2087 H2075 0.950 . S
C2087 C2083 1.393 . S
C2087 C2086 1.391 . S
H2088 C2096 0.950 . S
H2089 C2101 0.950 . S
H2090 C2098 0.950 . S
H2091 C2100 0.950 . S
H2092 C2102 0.950 . S
H2093 C2104 0.950 . S
H2094 C2106 0.950 . S
H2095 C2107 0.950 . S
C2096 H2088 0.950 . S
C2096 C2097 1.386 . S
C2096 C2098 1.391 . S
C2097 C2096 1.386 . S
C2097 C2101 1.393 . S
C2098 H2090 0.950 . S
C2098 C2096 1.391 . S
C2098 C2099 1.400 . S
C2099 C2098 1.400 . S
C2099 C2100 1.398 . S
C2099 C2105 1.491 . S
C2100 H2091 0.950 . S
C2100 C2099 1.398 . S
C2100 C2101 1.391 . S
C2101 H2089 0.950 . S
C2101 C2097 1.393 . S
C2101 C2100 1.391 . S
C2102 H2092 0.950 . S
C2102 C2103 1.386 . S
C2102 C2104 1.391 . S
C2103 C2102 1.386 . S
C2103 C2107 1.393 . S
C2104 H2093 0.950 . S
C2104 C2102 1.391 . S
C2104 C2105 1.400 . S
C2105 C2099 1.491 . S
C2105 C2104 1.400 . S
C2105 C2106 1.398 . S
C2106 H2094 0.950 . S
C2106 C2105 1.398 . S
C2106 C2107 1.391 . S
C2107 H2095 0.950 . S
C2107 C2103 1.393 . S
C2107 C2106 1.391 . S
H2108 C2116 0.950 . S
H2109 C2121 0.950 . S
H2110 C2118 0.950 . S
H2111 C2120 0.950 . S
H2112 C2122 0.950 . S
H2113 C2124 0.950 . S
H2114 C2126 0.950 . S
H2115 C2127 0.950 . S
C2116 H2108 0.950 . S
C2116 C2117 1.386 . S
C2116 C2118 1.391 . S
C2117 C2116 1.386 . S
C2117 C2121 1.393 . S
C2118 H2110 0.950 . S
C2118 C2116 1.391 . S
C2118 C2119 1.400 . S
C2119 C2118 1.400 . S
C2119 C2120 1.398 . S
C2119 C2125 1.491 . S
C2120 H2111 0.950 . S
C2120 C2119 1.398 . S
C2120 C2121 1.391 . S
C2121 H2109 0.950 . S
C2121 C2117 1.393 . S
C2121 C2120 1.391 . S
C2122 H2112 0.950 . S
C2122 C2123 1.386 . S
C2122 C2124 1.391 . S
C2123 C2122 1.386 . S
C2123 C2127 1.393 . S
C2124 H2113 0.950 . S
C2124 C2122 1.391 . S
C2124 C2125 1.400 . S
C2125 C2119 1.491 . S
C2125 C2124 1.400 . S
C2125 C2126 1.398 . S
C2126 H2114 0.950 . S
C2126 C2125 1.398 . S
C2126 C2127 1.391 . S
C2127 H2115 0.950 . S
C2127 C2123 1.393 . S
C2127 C2126 1.391 . S
H2128 C2136 0.950 . S
H2129 C2141 0.950 . S
H2130 C2138 0.950 . S
H2131 C2140 0.950 . S
H2132 C2142 0.950 . S
H2133 C2144 0.950 . S
H2134 C2146 0.930 1_554 S
H2135 C2147 0.950 1_554 S
C2136 H2128 0.950 . S
C2136 C2137 1.386 . S
C2136 C2138 1.391 . S
C2137 C2136 1.386 . S
C2137 C2141 1.393 . S
C2138 H2130 0.950 . S
C2138 C2136 1.391 . S
C2138 C2139 1.400 . S
C2139 C2138 1.400 . S
C2139 C2140 1.398 . S
C2139 C2145 1.491 . S
C2140 H2131 0.950 . S
C2140 C2139 1.398 . S
C2140 C2141 1.391 . S
C2141 H2129 0.950 . S
C2141 C2137 1.393 . S
C2141 C2140 1.391 . S
C2142 H2132 0.950 . S
C2142 C2143 1.386 . S
C2142 C2144 1.391 . S
C2143 C2142 1.386 . S
C2143 C2147 1.393 . S
C2144 H2133 0.950 . S
C2144 C2142 1.391 . S
C2144 C2145 1.400 . S
C2145 C2139 1.491 . S
C2145 C2144 1.400 . S
C2145 C2146 1.398 . S
C2146 H2134 0.930 1_556 S
C2146 C2145 1.398 . S
C2146 C2147 1.391 . S
C2147 H2135 0.950 1_556 S
C2147 C2143 1.393 . S
C2147 C2146 1.391 . S
H2148 C2156 0.950 . S
H2149 C2161 0.950 . S
H2150 C2158 0.950 . S
H2151 C2160 0.950 . S
H2152 C2162 0.950 . S
H2153 C2164 0.950 . S
H2154 C2166 0.950 . S
H2155 C2167 0.950 . S
C2156 H2148 0.950 . S
C2156 C2157 1.386 . S
C2156 C2158 1.391 . S
C2157 C2156 1.386 . S
C2157 C2161 1.393 . S
C2158 H2150 0.950 . S
C2158 C2156 1.391 . S
C2158 C2159 1.400 . S
C2159 C2158 1.400 . S
C2159 C2160 1.398 . S
C2159 C2165 1.491 . S
C2160 H2151 0.950 . S
C2160 C2159 1.398 . S
C2160 C2161 1.391 . S
C2161 H2149 0.950 . S
C2161 C2157 1.393 . S
C2161 C2160 1.391 . S
C2162 H2152 0.950 . S
C2162 C2163 1.386 . S
C2162 C2164 1.391 . S
C2163 C2162 1.386 . S
C2163 C2167 1.393 . S
C2164 H2153 0.950 . S
C2164 C2162 1.391 . S
C2164 C2165 1.400 . S
C2165 C2159 1.491 . S
C2165 C2164 1.400 . S
C2165 C2166 1.398 . S
C2166 H2154 0.950 . S
C2166 C2165 1.398 . S
C2166 C2167 1.391 . S
C2167 H2155 0.950 . S
C2167 C2163 1.393 . S
C2167 C2166 1.391 . S
H2168 C2176 0.950 . S
H2169 C2181 0.950 . S
H2170 C2178 0.950 . S
H2171 C2180 0.950 1_556 S
H2172 C2182 0.928 1_556 S
H2173 C2184 0.950 1_556 S
H2174 C2186 0.950 . S
H2175 C2187 0.950 . S
C2176 H2168 0.950 . S
C2176 C2177 1.386 . S
C2176 C2178 1.391 . S
C2177 C2176 1.386 . S
C2177 C2181 1.393 . S
C2178 H2170 0.950 . S
C2178 C2176 1.391 . S
C2178 C2179 1.400 . S
C2179 C2178 1.400 . S
C2179 C2180 1.398 . S
C2179 C2185 1.491 . S
C2180 H2171 0.950 1_554 S
C2180 C2179 1.398 . S
C2180 C2181 1.391 . S
C2181 H2169 0.950 . S
C2181 C2177 1.393 . S
C2181 C2180 1.391 . S
C2182 H2172 0.928 1_554 S
C2182 C2183 1.404 . S
C2182 C2184 1.395 . S
C2183 C2182 1.404 . S
C2183 C2187 1.393 . S
C2184 H2173 0.950 1_554 S
C2184 C2182 1.395 . S
C2184 C2185 1.400 . S
C2185 C2179 1.491 . S
C2185 C2184 1.400 . S
C2185 C2186 1.398 . S
C2186 H2174 0.950 . S
C2186 C2185 1.398 . S
C2186 C2187 1.391 . S
C2187 H2175 0.950 . S
C2187 C2183 1.393 . S
C2187 C2186 1.391 . S
H2188 C2196 0.950 . S
H2189 C2201 0.950 . S
H2190 C2198 0.950 . S
H2191 C2200 0.950 . S
H2192 C2202 0.950 . S
H2193 C2204 0.950 . S
H2194 C2206 0.950 . S
H2195 C2207 0.950 . S
C2196 H2188 0.950 . S
C2196 C2197 1.386 . S
C2196 C2198 1.391 . S
C2197 C2196 1.386 . S
C2197 C2201 1.393 1_545 S
C2198 H2190 0.950 . S
C2198 C2196 1.391 . S
C2198 C2199 1.400 1_545 S
C2199 C2198 1.400 1_565 S
C2199 C2200 1.398 . S
C2199 C2205 1.491 . S
C2200 H2191 0.950 . S
C2200 C2199 1.398 . S
C2200 C2201 1.391 . S
C2201 H2189 0.950 . S
C2201 C2197 1.393 1_565 S
C2201 C2200 1.391 . S
C2202 H2192 0.950 . S
C2202 C2203 1.386 . S
C2202 C2204 1.391 . S
C2203 C2202 1.386 . S
C2203 C2207 1.393 . S
C2204 H2193 0.950 . S
C2204 C2202 1.391 . S
C2204 C2205 1.400 . S
C2205 C2199 1.491 . S
C2205 C2204 1.400 . S
C2205 C2206 1.398 . S
C2206 H2194 0.950 . S
C2206 C2205 1.398 . S
C2206 C2207 1.391 . S
C2207 H2195 0.950 . S
C2207 C2203 1.393 . S
C2207 C2206 1.391 . S
C1263 C241 1.782 . S
C1257 C66 1.778 . S
C1283 C300 1.101 . S
C1277 C76 1.100 . S
C1297 C93 1.891 . S
C1303 C417 1.884 . S
C1323 C485 1.495 . S
C1317 C54 1.513 . S
C1343 C564 1.523 . S
C1337 C126 1.532 . S
C1363 C689 1.871 . S
C1357 C150 1.884 . S
C1377 C136 1.109 . S
C1383 C749 1.116 . S
C1403 C857 1.824 . S
C1397 C117 1.825 . S
C1417 C141 1.277 . S
C1423 C953 1.282 . S
C1443 C1013 1.314 . S
C1437 C112 1.310 . S
C1457 C124 1.561 . S
C1463 C916 1.563 . S
C1483 C1033 1.253 . S
C1477 C148 1.242 . S
C1497 C88 1.265 . S
C1503 C1101 1.262 . S
C1517 C52 1.626 . S
C1523 C1092 1.635 . S
C1537 C64 1.224 . S
C1543 C1121 1.224 . S
C1557 C78 1.175 . S
C1563 C1129 1.184 . S
C1577 C45 1.755 . S
C1583 C513 1.768 . S
C1597 C177 1.941 . S
C1603 C476 1.943 . S
C1623 C212 1.388 . S
C1617 C189 1.384 . S
C1643 C309 1.631 . S
C1637 C102 1.632 . S
C1657 C57 1.785 1_545 S
C1663 C573 1.792 . S
C1683 C865 1.454 . S
C1677 C138 1.450 . S
C1703 C593 1.861 . S
C1697 C114 1.865 1_545 S
C1723 C777 1.754 . S
C1717 C153 1.750 . S
C1743 C769 1.783 . S
C1737 C174 1.781 . S
C1757 C184 1.089 . S
C1763 C837 1.094 . S
C1777 C105 1.899 . S
C1783 C601 1.893 . S
C1803 C652 1.508 . S
C1797 C162 1.518 . S
C1817 C42 1.526 . S
C1823 C397 1.515 . S
C1843 C505 1.873 . S
C1837 C6 1.882 . S
C1863 C221 1.110 . S
C1857 C16 1.107 . S
C1883 C337 1.823 . S
C1877 C33 1.824 1_455 S
C1897 C21 1.279 . S
C1903 C1041 1.285 . S
C1917 C28 1.309 1_556 S
C1923 C925 1.314 . S
C1937 C40 1.564 . S
C1943 C1004 1.562 . S
C1957 C4 1.254 1_556 S
C1963 C945 1.256 . S
C1983 C1189 1.266 . S
C1977 C100 1.259 . S
C2003 C1180 1.633 . S
C1997 C160 1.601 1_554 S
C2023 C1209 1.222 . S
C2017 C172 1.223 . S
C2037 C186 1.173 . S
C2043 C1217 1.183 . S
C2057 C129 1.755 . S
C2063 C681 1.768 . S
C2083 C661 1.940 . S
C2077 C69 1.940 . S
C2103 C740 1.379 . S
C2097 C81 1.379 . S
C2123 C828 1.630 . S
C2117 C90 1.631 . S
C2137 C165 1.777 . S
C2143 C388 1.791 . S
C2163 C329 1.453 . S
C2157 C18 1.447 . S
C2177 C30 1.867 . S
C2183 C425 1.855 . S
C2203 C249 1.752 . S
C2197 C9 1.750 . S
