# Generated by pormake.
# Topology pyr, (3,6)-cn, num edge types: 1
# Building blocks:
#     Node 0, Type 0, BuildingBlock: QEWDON_clean_linker_0, # of connection points: 3
#     Node 1, Type 0, BuildingBlock: QEWDON_clean_linker_0, # of connection points: 3
#     Node 2, Type 0, BuildingBlock: QEWDON_clean_linker_0, # of connection points: 3
#     Node 3, Type 0, BuildingBlock: QEWDON_clean_linker_0, # of connection points: 3
#     Node 4, Type 0, BuildingBlock: QEWDON_clean_linker_0, # of connection points: 3
#     Node 5, Type 0, BuildingBlock: QEWDON_clean_linker_0, # of connection points: 3
#     Node 6, Type 0, BuildingBlock: QEWDON_clean_linker_0, # of connection points: 3
#     Node 7, Type 0, BuildingBlock: QEWDON_clean_linker_0, # of connection points: 3
#     Node 8, Type 1, BuildingBlock: JUFBIX_clean_sbu_0, # of connection points: 6
#     Node 9, Type 1, BuildingBlock: JUFBIX_clean_sbu_0, # of connection points: 6
#     Node 10, Type 1, BuildingBlock: JUFBIX_clean_sbu_0, # of connection points: 6
#     Node 11, Type 1, BuildingBlock: JUFBIX_clean_sbu_0, # of connection points: 6
#     Edge 12, Type (0, 1), BuildingBlock: ZUJKAS_clean_linker_0, # of connection points: 2
#     Edge 13, Type (0, 1), BuildingBlock: ZUJKAS_clean_linker_0, # of connection points: 2
#     Edge 14, Type (0, 1), BuildingBlock: ZUJKAS_clean_linker_0, # of connection points: 2
#     Edge 15, Type (0, 1), BuildingBlock: ZUJKAS_clean_linker_0, # of connection points: 2
#     Edge 16, Type (0, 1), BuildingBlock: ZUJKAS_clean_linker_0, # of connection points: 2
#     Edge 17, Type (0, 1), BuildingBlock: ZUJKAS_clean_linker_0, # of connection points: 2
#     Edge 18, Type (0, 1), BuildingBlock: ZUJKAS_clean_linker_0, # of connection points: 2
#     Edge 19, Type (0, 1), BuildingBlock: ZUJKAS_clean_linker_0, # of connection points: 2
#     Edge 20, Type (0, 1), BuildingBlock: ZUJKAS_clean_linker_0, # of connection points: 2
#     Edge 21, Type (0, 1), BuildingBlock: ZUJKAS_clean_linker_0, # of connection points: 2
#     Edge 22, Type (0, 1), BuildingBlock: ZUJKAS_clean_linker_0, # of connection points: 2
#     Edge 23, Type (0, 1), BuildingBlock: ZUJKAS_clean_linker_0, # of connection points: 2
#     Edge 24, Type (0, 1), BuildingBlock: ZUJKAS_clean_linker_0, # of connection points: 2
#     Edge 25, Type (0, 1), BuildingBlock: ZUJKAS_clean_linker_0, # of connection points: 2
#     Edge 26, Type (0, 1), BuildingBlock: ZUJKAS_clean_linker_0, # of connection points: 2
#     Edge 27, Type (0, 1), BuildingBlock: ZUJKAS_clean_linker_0, # of connection points: 2
#     Edge 28, Type (0, 1), BuildingBlock: ZUJKAS_clean_linker_0, # of connection points: 2
#     Edge 29, Type (0, 1), BuildingBlock: ZUJKAS_clean_linker_0, # of connection points: 2
#     Edge 30, Type (0, 1), BuildingBlock: ZUJKAS_clean_linker_0, # of connection points: 2
#     Edge 31, Type (0, 1), BuildingBlock: ZUJKAS_clean_linker_0, # of connection points: 2
#     Edge 32, Type (0, 1), BuildingBlock: ZUJKAS_clean_linker_0, # of connection points: 2
#     Edge 33, Type (0, 1), BuildingBlock: ZUJKAS_clean_linker_0, # of connection points: 2
#     Edge 34, Type (0, 1), BuildingBlock: ZUJKAS_clean_linker_0, # of connection points: 2
#     Edge 35, Type (0, 1), BuildingBlock: ZUJKAS_clean_linker_0, # of connection points: 2
# Relax obj value: 0.163
# Max RMSD: 0.280
# Mean RMSD: 0.184
data_MOF--net-pyr--node1-JUFBIX_clean_sbu_0--node2-QEWDON_clean_linker_0--edge1-ZUJKAS_clean_linker_0
_symmetry_space_group_name_H-M    P1
_symmetry_Int_Tables_number       1
_symmetry_cell_setting            triclinic
loop_
_symmetry_equiv_pos_as_xyz
'x, y, z'
_cell_length_a     47.518259
_cell_length_b     45.806899
_cell_length_c     50.637366
_cell_angle_alpha  84.974789
_cell_angle_beta   89.207804
_cell_angle_gamma 99.383125
loop_
_atom_site_label
_atom_site_type_symbol
_atom_site_fract_x
_atom_site_fract_y
_atom_site_fract_z
_atom_type_partial_charge
H0 H 0.25772 0.2549 0.18906 0.0
C1 C 0.24517 0.24137 0.20505 0.0
C2 C 0.25157 0.21295 0.21368 0.0
C3 C 0.22359 0.25327 0.21781 0.0
H4 H 0.24061 0.17517 0.24292 0.0
C5 C 0.23558 0.19658 0.23554 0.0
C6 C 0.21383 0.20803 0.24864 0.0
C7 C 0.20797 0.23627 0.2393 0.0
C8 C 0.22284 0.28585 0.21417 0.0
H9 H 0.19258 0.24614 0.25005 0.0
C10 C 0.20702 0.29965 0.19443 0.0
C11 C 0.20695 0.33089 0.19306 0.0
C12 C 0.23811 0.30333 0.23228 0.0
H13 H 0.25021 0.29331 0.24755 0.0
C14 C 0.23774 0.33367 0.23127 0.0
H15 H 0.19516 0.28636 0.18034 0.0
C16 C 0.22229 0.34727 0.21207 0.0
H17 H 0.22214 0.37085 0.21238 0.0
H18 H 0.24939 0.34675 0.24561 0.0
H19 H 0.37308 0.88407 0.78094 0.0
C20 C 0.38549 0.87038 0.77074 0.0
C21 C 0.41535 0.87493 0.77249 0.0
C22 C 0.37141 0.84714 0.7572 0.0
H23 H 0.45419 0.85991 0.76118 0.0
C24 C 0.43117 0.85653 0.75976 0.0
C25 C 0.41726 0.8336 0.7455 0.0
C26 C 0.38733 0.82897 0.74458 0.0
C27 C 0.33994 0.84112 0.75687 0.0
H28 H 0.37626 0.81151 0.73357 0.0
C29 C 0.32468 0.86292 0.74611 0.0
C30 C 0.29473 0.8568 0.74491 0.0
C31 C 0.32514 0.8132 0.76682 0.0
H32 H 0.33658 0.79613 0.7752 0.0
C33 C 0.29543 0.80722 0.76628 0.0
H34 H 0.33628 0.88417 0.73779 0.0
C35 C 0.28027 0.82881 0.75539 0.0
H36 H 0.25721 0.82358 0.7552 0.0
H37 H 0.2841 0.78573 0.77419 0.0
H38 H 0.70909 0.50213 0.93287 0.0
C39 C 0.69974 0.47907 0.93797 0.0
C40 C 0.71718 0.45793 0.94566 0.0
C41 C 0.67017 0.47057 0.93673 0.0
H42 H 0.71764 0.41149 0.95756 0.0
C43 C 0.70457 0.42797 0.95124 0.0
C44 C 0.67492 0.41929 0.94979 0.0
C45 C 0.65785 0.44082 0.94278 0.0
C46 C 0.65194 0.49226 0.92767 0.0
H47 H 0.63497 0.43434 0.94126 0.0
C48 C 0.65117 0.50118 0.90056 0.0
C49 C 0.63092 0.51843 0.89089 0.0
C50 C 0.63333 0.50169 0.94557 0.0
H51 H 0.63354 0.49468 0.96655 0.0
C52 C 0.61399 0.51985 0.93635 0.0
H53 H 0.66582 0.49376 0.88703 0.0
C54 C 0.61252 0.52794 0.90921 0.0
H55 H 0.59632 0.54079 0.90261 0.0
H56 H 0.59952 0.52699 0.95021 0.0
H57 H 0.94648 0.78293 0.39235 0.0
C58 C 0.93581 0.76361 0.40462 0.0
C59 C 0.94595 0.75624 0.42991 0.0
C60 C 0.91106 0.74706 0.39547 0.0
H61 H 0.93755 0.72668 0.46587 0.0
C62 C 0.93108 0.73163 0.44575 0.0
C63 C 0.90639 0.71476 0.43657 0.0
C64 C 0.89685 0.72224 0.41116 0.0
C65 C 0.89756 0.75828 0.37151 0.0
H66 H 0.87693 0.71037 0.40451 0.0
C67 C 0.89673 0.74336 0.34846 0.0
C68 C 0.88312 0.75377 0.32579 0.0
C69 C 0.88467 0.78366 0.37206 0.0
H70 H 0.88502 0.79532 0.3898 0.0
C71 C 0.87076 0.79384 0.34988 0.0
H72 H 0.90734 0.72417 0.3481 0.0
C73 C 0.86989 0.77901 0.32689 0.0
H74 H 0.85878 0.78728 0.31003 0.0
H75 H 0.86057 0.81326 0.35051 0.0
H76 H 0.85609 0.88034 0.91456 0.0
C77 C 0.86744 0.89285 0.8974 0.0
C78 C 0.89442 0.88663 0.88953 0.0
C79 C 0.85371 0.91319 0.88193 0.0
H80 H 0.92823 0.8973 0.85948 0.0
C81 C 0.9077 0.90189 0.86588 0.0
C82 C 0.89432 0.92211 0.84978 0.0
C83 C 0.86739 0.92762 0.85829 0.0
C84 C 0.82255 0.91356 0.88633 0.0
H85 H 0.85637 0.94247 0.84602 0.0
C86 C 0.81106 0.92827 0.90662 0.0
C87 C 0.78097 0.92703 0.90941 0.0
C88 C 0.80382 0.89823 0.86912 0.0
H89 H 0.812 0.88689 0.85351 0.0
C90 C 0.77449 0.8971 0.8718 0.0
H91 H 0.82521 0.94026 0.92002 0.0
C92 C 0.76317 0.91125 0.89169 0.0
H93 H 0.74023 0.91011 0.89303 0.0
H94 H 0.76038 0.88516 0.85833 0.0
H95 H 0.68011 0.19236 0.48897 0.0
C96 C 0.67361 0.19118 0.4686 0.0
C97 C 0.69023 0.17942 0.45038 0.0
C98 C 0.64805 0.20054 0.46091 0.0
H99 H 0.69336 0.16752 0.41035 0.0
C100 C 0.68084 0.17706 0.42433 0.0
C101 C 0.65516 0.18625 0.41636 0.0
C102 C 0.63899 0.19828 0.43483 0.0
C103 C 0.62965 0.21037 0.48083 0.0
H104 H 0.61908 0.2054 0.42915 0.0
C105 C 0.62794 0.24061 0.48163 0.0
C106 C 0.61067 0.2498 0.50113 0.0
C107 C 0.61394 0.18921 0.49938 0.0
H108 H 0.61512 0.16583 0.49899 0.0
C109 C 0.59645 0.19807 0.51843 0.0
H110 H 0.64059 0.25687 0.46754 0.0
C111 C 0.59475 0.22809 0.51932 0.0
H112 H 0.58075 0.23427 0.53418 0.0
H113 H 0.58416 0.18162 0.53256 0.0
H114 H 0.4248 0.7121 0.22056 0.0
C115 C 0.40434 0.70905 0.2111 0.0
C116 C 0.3949 0.73337 0.19719 0.0
C117 C 0.38768 0.68063 0.21244 0.0
H118 H 0.3622 0.74725 0.17243 0.0
C119 C 0.36865 0.72887 0.18446 0.0
C120 C 0.35126 0.70081 0.18621 0.0
C121 C 0.36101 0.67685 0.20048 0.0
C122 C 0.39838 0.65454 0.22554 0.0
H123 H 0.34779 0.65511 0.2026 0.0
C124 C 0.4099 0.65541 0.25094 0.0
C125 C 0.41978 0.63043 0.26336 0.0
C126 C 0.39702 0.6285 0.21252 0.0
H127 H 0.38846 0.62736 0.19285 0.0
C128 C 0.407 0.60379 0.22463 0.0
H129 H 0.41098 0.67543 0.26108 0.0
C130 C 0.41828 0.60466 0.24988 0.0
H131 H 0.42536 0.58496 0.25906 0.0
H132 H 0.40586 0.58383 0.21446 0.0
H133 H 0.1563 0.42481 0.69002 0.0
C134 C 0.14272 0.41575 0.67469 0.0
C135 C 0.14953 0.42551 0.64789 0.0
C136 C 0.11944 0.39322 0.68179 0.0
H137 H 0.13778 0.41943 0.6074 0.0
C138 C 0.13214 0.41304 0.62815 0.0
C139 C 0.10847 0.39088 0.63503 0.0
C140 C 0.10213 0.3814 0.66187 0.0
C141 C 0.11452 0.38043 0.70975 0.0
H142 H 0.08441 0.36365 0.66723 0.0
C143 C 0.1169 0.39901 0.73051 0.0
C144 C 0.11264 0.38699 0.75704 0.0
C145 C 0.10795 0.34947 0.71587 0.0
H146 H 0.10653 0.33451 0.70034 0.0
C147 C 0.10367 0.33743 0.74218 0.0
H148 H 0.12136 0.42292 0.72598 0.0
C149 C 0.10593 0.35604 0.7627 0.0
H150 H 0.10271 0.34623 0.78299 0.0
H151 H 0.09871 0.31358 0.74668 0.0
Co152 Co 0.02603 0.05991 0.53587 0.0
C153 C 0.04914 0.00787 0.5359 0.0
Co154 Co 0.06815 0.06234 0.55398 0.0
C155 C 0.96855 0.07031 0.52475 0.0
C156 C 0.98392 0.04236 0.49805 0.0
N157 N 0.99118 0.0571 0.5195 0.0
N158 N 0.94748 0.06441 0.50736 0.0
C159 C 0.95714 0.04674 0.4906 0.0
H160 H 0.96774 0.08427 0.54082 0.0
H161 H 0.99759 0.02992 0.48796 0.0
C162 C 0.04484 0.11436 0.55362 0.0
N163 N 0.10308 0.06496 0.56992 0.0
C164 C 0.11213 0.04373 0.58621 0.0
C165 C 0.12507 0.08778 0.56769 0.0
N166 N 0.13895 0.05224 0.59421 0.0
C167 C 0.14717 0.08004 0.58267 0.0
C168 C 0.07237 0.08011 0.49962 0.0
O169 O 0.02449 0.09954 0.54209 0.0
O170 O 0.06598 0.10212 0.5609 0.0
O171 O 0.08693 0.0766 0.52024 0.0
O172 O 0.04526 0.07383 0.50191 0.0
O173 O 0.0701 0.02254 0.5468 0.0
H174 H 0.12513 0.10855 0.55573 0.0
H175 H 0.09911 0.02245 0.59219 0.0
O176 O 0.02783 0.02023 0.52973 0.0
O177 O 1.00714 0.04608 0.57 0.0
O178 O 0.04914 0.04803 0.58769 0.0
C179 C 0.02205 0.0422 0.59041 0.0
H180 H 0.94615 0.03851 0.47348 0.0
H181 H 0.16785 0.09357 0.5844 0.0
Co182 Co 0.51676 0.06993 0.05757 0.0
C183 C 0.51562 0.02749 0.10151 0.0
Co184 Co 0.5445 0.08356 0.09043 0.0
C185 C 0.49725 0.05022 1.00678 0.0
C186 C 0.46364 0.04573 0.03618 0.0
N187 N 0.49176 0.05591 0.03193 0.0
N188 N 0.47372 0.03655 0.9954 0.0
C189 C 0.45254 0.03391 1.01384 0.0
H190 H 0.51835 0.05461 0.99748 0.0
H191 H 0.45211 0.04574 0.05474 0.0
C192 C 0.54588 0.12599 0.04665 0.0
N193 N 0.56939 0.09759 0.11603 0.0
C194 C 0.56441 0.09969 0.14208 0.0
C195 C 0.59674 0.11069 0.11132 0.0
N196 N 0.58754 0.1139 0.15366 0.0
C197 C 0.60793 0.12072 0.13435 0.0
C198 C 0.57141 0.05535 0.05181 0.0
O199 O 0.52839 0.10642 0.03636 0.0
O200 O 0.55479 0.12015 0.06973 0.0
O201 O 0.57504 0.06786 0.07331 0.0
O202 O 0.54699 0.05339 0.04144 0.0
O203 O 0.53403 0.04681 0.111 0.0
H204 H 0.60766 0.11351 0.09215 0.0
H205 H 0.54392 0.09198 0.15208 0.0
O206 O 0.50546 0.03352 0.07895 0.0
O207 O 0.48677 0.08676 0.07402 0.0
O208 O 0.51373 0.09911 0.10723 0.0
C209 C 0.48977 0.09825 0.09603 0.0
H210 H 0.43065 0.02354 1.01157 0.0
H211 H 0.62937 0.13233 0.13664 0.0
Co212 Co 0.55952 0.59412 0.56727 0.0
C213 C 0.5187 0.59531 0.52856 0.0
Co214 Co 0.51756 0.56788 0.57931 0.0
C215 C 0.61997 0.60771 0.55671 0.0
C216 C 0.59979 0.64595 0.54873 0.0
N217 N 0.59435 0.61675 0.55708 0.0
N218 N 0.64119 0.63009 0.54854 0.0
C219 C 0.62862 0.65424 0.54355 0.0
H220 H 0.62305 0.58515 0.5625 0.0
H221 H 0.58381 0.66023 0.54638 0.0
C222 C 0.55815 0.56707 0.61814 0.0
N223 N 0.483 0.54499 0.58992 0.0
C224 C 0.45656 0.552 0.58798 0.0
C225 C 0.47926 0.51748 0.60267 0.0
N226 N 0.4365 0.53002 0.59929 0.0
C227 C 0.45072 0.50824 0.6085 0.0
C228 C 0.55388 0.53584 0.55495 0.0
O229 O 0.57453 0.58295 0.60054 0.0
O230 O 0.53235 0.55806 0.6128 0.0
O231 O 0.52949 0.53433 0.56601 0.0
O232 O 0.57082 0.56047 0.55292 0.0
O233 O 0.50293 0.5781 0.54583 0.0
H234 H 0.49627 0.5051 0.60772 0.0
H235 H 0.45222 0.57313 0.57913 0.0
O236 O 0.54434 0.60524 0.53401 0.0
O237 O 0.54783 0.62749 0.58191 0.0
O238 O 0.50582 0.60132 0.59271 0.0
C239 C 0.52302 0.62567 0.59229 0.0
H240 H 0.6394 0.67611 0.53603 0.0
H241 H 0.44117 0.48711 0.61868 0.0
Co242 Co 0.05258 0.59893 0.02227 0.0
C243 C 0.99777 0.56724 0.02272 0.0
Co244 Co 0.0289 0.59851 0.06001 0.0
C245 C 0.07522 0.57699 0.97668 0.0
C246 C 0.08866 0.62383 0.97729 0.0
N247 N 0.07268 0.60004 0.9908 0.0
N248 N 0.09223 0.58534 0.95487 0.0
C249 C 0.10068 0.61487 0.95513 0.0
H250 H 0.0645 0.55454 0.98226 0.0
H251 H 0.09157 0.64619 0.98331 0.0
C252 C 0.08358 0.62974 0.06004 0.0
N253 N 1.00921 0.59745 0.09202 0.0
C254 C 0.98575 0.60931 0.09732 0.0
C255 C 1.01663 0.58565 0.11576 0.0
N256 N 0.97832 0.60535 0.12337 0.0
C257 C 0.99766 0.59035 0.13499 0.0
C258 C 0.0605 0.55149 0.05871 0.0
O259 O 0.08452 0.62273 0.03636 0.0
O260 O 0.06079 0.62166 0.07396 0.0
O261 O 0.04355 0.56299 0.07273 0.0
O262 O 0.06728 0.5635 0.03539 0.0
O263 O 0.99704 0.57506 0.04616 0.0
H264 H 0.03528 0.57527 0.11916 0.0
H265 H 0.97468 0.6212 0.08247 0.0
O266 O 0.02045 0.57514 1.00849 0.0
O267 O 0.03784 0.634 1.00913 0.0
O268 O 1.01456 0.63431 0.04663 0.0
C269 C 0.02109 0.64587 0.02306 0.0
H270 H 0.11487 0.62893 0.94062 0.0
H271 H 0.999 0.58469 0.15609 0.0
H272 H 0.23658 0.17885 0.29111 0.0
H273 H 0.21242 0.15563 0.33265 0.0
H274 H 0.13287 0.17825 0.30455 0.0
H275 H 0.1568 0.20128 0.26289 0.0
H276 H 0.18168 0.18387 0.36985 0.0
H277 H 0.11181 0.08895 0.33085 0.0
H278 H 0.14275 0.10943 0.31252 0.0
H279 H 0.11035 0.12476 0.31381 0.0
C280 C 0.21384 0.17845 0.29351 0.0
C281 C 0.19871 0.19189 0.27339 0.0
C282 C 0.20005 0.16532 0.31744 0.0
C283 C 0.17067 0.16483 0.32182 0.0
C284 C 0.15543 0.17789 0.30167 0.0
H285 H 0.04796 0.09698 0.45286 0.0
H286 H 0.07189 0.11768 0.41054 0.0
C287 C 0.16924 0.19127 0.27784 0.0
C288 C 0.15623 0.15175 0.34778 0.0
H289 H 0.10389 0.09688 0.37572 0.0
C290 C 0.16478 0.16474 0.37114 0.0
C291 C 0.13394 0.12694 0.34961 0.0
C292 C 0.12422 0.11147 0.32544 0.0
C293 C 0.1514 0.15409 0.39601 0.0
C294 C 0.12929 0.12899 0.39796 0.0
C295 C 0.12077 0.11601 0.37452 0.0
C296 C 0.11469 0.11598 0.42399 0.0
C297 C 0.16055 0.17062 0.41977 0.0
C298 C 0.13045 0.10745 0.44587 0.0
C299 C 0.11678 0.09584 0.47025 0.0
C300 C 0.08685 0.09189 0.47341 0.0
C301 C 0.07102 0.09971 0.45131 0.0
C302 C 0.08474 0.11157 0.42699 0.0
H303 H 0.17057 0.19395 0.41378 0.0
H304 H 0.14221 0.17083 0.43353 0.0
H305 H 0.17663 0.15956 0.43062 0.0
H306 H 0.15343 0.1096 0.44412 0.0
H307 H 0.12975 0.08984 0.48663 0.0
H308 H 0.41006 0.93345 0.77055 0.0
H309 H 0.42754 0.96886 0.80253 0.0
H310 H 0.46766 0.90186 0.84548 0.0
H311 H 0.45122 0.86697 0.81292 0.0
H312 H 0.41149 0.96393 0.85142 0.0
H313 H 0.5285 0.9716 0.85001 0.0
H314 H 0.50686 0.95518 0.82442 0.0
H315 H 0.51175 0.93349 0.85499 0.0
C316 C 0.42327 0.92665 0.78646 0.0
C317 C 0.42941 0.89759 0.78929 0.0
C318 C 0.43324 0.94684 0.80472 0.0
C319 C 0.44924 0.93824 0.82633 0.0
C320 C 0.45615 0.90944 0.82862 0.0
H321 H 0.43914 0.987 0.98329 0.0
H322 H 0.43488 0.96667 0.94041 0.0
C323 C 0.4466 0.88941 0.81009 0.0
C324 C 0.45543 0.95783 0.84817 0.0
H325 H 0.50697 0.98339 0.89079 0.0
C326 C 0.43254 0.96862 0.85965 0.0
C327 C 0.48292 0.96449 0.8588 0.0
C328 C 0.50892 0.95584 0.84618 0.0
C329 C 0.43601 0.98441 0.88217 0.0
C330 C 0.4629 0.98876 0.89416 0.0
C331 C 0.48622 0.97955 0.88189 0.0
C332 C 0.46658 1.00101 0.92029 0.0
C333 C 0.41064 0.996 0.89306 0.0
C334 C 0.48672 0.02642 0.92359 0.0
C335 C 0.48938 0.03802 0.94832 0.0
C336 C 0.47189 0.02439 0.97007 0.0
C337 C 0.45235 0.99851 0.96678 0.0
C338 C 0.44989 0.98685 0.94224 0.0
H339 H 0.39536 0.99997 0.87725 0.0
H340 H 0.39919 0.97922 0.90831 0.0
H341 H 0.41731 0.01703 0.90234 0.0
H342 H 0.50002 0.03753 0.90695 0.0
H343 H 0.50463 0.05795 0.95032 0.0
H344 H 0.6159 0.56824 0.86393 0.0
H345 H 0.60608 0.57572 0.81686 0.0
H346 H 0.63116 0.49152 0.80436 0.0
H347 H 0.63845 0.48252 0.85153 0.0
H348 H 0.63682 0.5805 0.77266 0.0
H349 H 0.55417 0.48003 0.77351 0.0
H350 H 0.56926 0.49336 0.80351 0.0
H351 H 0.58795 0.47126 0.78387 0.0
C352 C 0.61892 0.55106 0.8513 0.0
C353 C 0.62766 0.5246 0.8618 0.0
C354 C 0.61361 0.55555 0.82429 0.0
C355 C 0.61722 0.53385 0.80718 0.0
C356 C 0.6274 0.50819 0.8173 0.0
H357 H 0.61324 0.56939 0.63407 0.0
H358 H 0.62932 0.5605 0.67942 0.0
C359 C 0.63211 0.50337 0.84433 0.0
C360 C 0.60978 0.5378 0.7789 0.0
H361 H 0.56926 0.50462 0.73132 0.0
C362 C 0.62197 0.56397 0.76361 0.0
C363 C 0.59007 0.51639 0.76722 0.0
C364 C 0.57439 0.48886 0.78295 0.0
C365 C 0.61493 0.5694 0.73699 0.0
C366 C 0.596 0.5475 0.72509 0.0
C367 C 0.58401 0.52125 0.74036 0.0
C368 C 0.58678 0.55199 0.69737 0.0
C369 C 0.62706 0.59898 0.72229 0.0
C370 C 0.55754 0.54883 0.69223 0.0
C371 C 0.54834 0.553 0.66638 0.0
C372 C 0.56821 0.56081 0.64512 0.0
C373 C 0.59749 0.56363 0.65015 0.0
C374 C 0.60669 0.55885 0.67606 0.0
H375 H 0.63422 0.61605 0.73614 0.0
H376 H 0.64587 0.59641 0.71002 0.0
H377 H 0.61112 0.60726 0.70902 0.0
H378 H 0.54176 0.54349 0.70832 0.0
H379 H 0.52563 0.55081 0.66314 0.0
H380 H 0.87843 0.69414 0.32003 0.0
H381 H 0.88544 0.67086 0.27938 0.0
H382 H 0.89446 0.75629 0.23418 0.0
H383 H 0.88927 0.78005 0.27482 0.0
H384 H 0.85856 0.66814 0.23115 0.0
H385 H 0.96968 0.72958 0.21861 0.0
H386 H 0.94853 0.72901 0.24852 0.0
H387 H 0.94271 0.75273 0.21959 0.0
C388 C 0.88208 0.70804 0.30148 0.0
C389 C 0.88381 0.73906 0.30082 0.0
C390 C 0.88572 0.69464 0.27822 0.0
C391 C 0.89099 0.71195 0.25388 0.0
C392 C 0.89096 0.74262 0.25287 0.0
H393 H 0.96128 0.65804 0.10936 0.0
H394 H 0.93317 0.68449 0.13705 0.0
C395 C 0.88767 0.75611 0.27613 0.0
C396 C 0.89862 0.6981 0.23003 0.0
H397 H 0.95391 0.69712 0.18662 0.0
C398 C 0.87929 0.67463 0.22122 0.0
C399 C 0.92573 0.70661 0.21717 0.0
C400 C 0.94799 0.73066 0.22653 0.0
C401 C 0.8866 0.65904 0.20016 0.0
C402 C 0.91395 0.66709 0.18783 0.0
C403 C 0.93283 0.69124 0.19599 0.0
C404 C 0.925 0.64893 0.16862 0.0
C405 C 0.86521 0.63386 0.19152 0.0
C406 C 0.92904 0.61993 0.17694 0.0
C407 C 0.94511 0.60485 0.16122 0.0
C408 C 0.9575 0.61855 0.13696 0.0
C409 C 0.95181 0.64682 0.12785 0.0
C410 C 0.93584 0.66198 0.14366 0.0
H411 H 0.84303 0.63639 0.19685 0.0
H412 H 0.86695 0.63246 0.16979 0.0
H413 H 0.86939 0.61261 0.20172 0.0
H414 H 0.92133 0.60965 0.19634 0.0
H415 H 0.94894 0.58297 0.16857 0.0
H416 H 0.25518 0.15514 0.20385 0.0
H417 H 0.29527 0.13604 0.18457 0.0
H418 H 0.34382 0.2245 0.17527 0.0
H419 H 0.30401 0.24378 0.19474 0.0
H420 H 0.34912 0.19574 0.13103 0.0
H421 H 0.36889 0.12223 0.2192 0.0
H422 H 0.33297 0.11481 0.20803 0.0
H423 H 0.34599 0.14988 0.2206 0.0
C424 C 0.27445 0.17061 0.19799 0.0
C425 C 0.27603 0.20116 0.20108 0.0
C426 C 0.29752 0.15956 0.18693 0.0
C427 C 0.32305 0.17862 0.17874 0.0
C428 C 0.32455 0.20916 0.18139 0.0
H429 H 0.48803 0.12386 0.14333 0.0
H430 H 0.44831 0.14363 0.16292 0.0
C431 C 0.30151 0.22023 0.19245 0.0
C432 C 0.34796 0.16693 0.16708 0.0
H433 H 0.39412 0.11732 0.1794 0.0
C434 C 0.35892 0.17862 0.14168 0.0
C435 C 0.36133 0.14485 0.18093 0.0
C436 C 0.35193 0.13238 0.2088 0.0
C437 C 0.38222 0.16859 0.1297 0.0
C438 C 0.39497 0.1458 0.14318 0.0
C439 C 0.38437 0.13451 0.16879 0.0
C440 C 0.41932 0.13353 0.13114 0.0
C441 C 0.39332 0.18303 0.10283 0.0
C442 C 0.41651 0.12074 0.10684 0.0
C443 C 0.43925 0.10941 0.09556 0.0
C444 C 0.46556 0.11034 0.10829 0.0
C445 C 0.46825 0.1228 0.13281 0.0
C446 C 0.44543 0.13411 0.1441 0.0
H447 H 0.38702 0.20526 0.09867 0.0
H448 H 0.41694 0.18555 0.10127 0.0
H449 H 0.38421 0.1689 0.0873 0.0
H450 H 0.39655 0.11925 0.09659 0.0
H451 H 0.43613 0.09983 0.0768 0.0
H452 H 0.30354 0.91719 0.74794 0.0
H453 H 0.2776 0.95365 0.72518 0.0
H454 H 0.22396 0.8833 0.68964 0.0
H455 H 0.24992 0.84685 0.71183 0.0
H456 H 0.2708 0.96414 0.66926 0.0
H457 H 0.16686 0.92912 0.72343 0.0
H458 H 0.1997 0.91875 0.73568 0.0
H459 H 0.18097 0.89919 0.71021 0.0
C460 C 0.28626 0.90949 0.73523 0.0
C461 C 0.27867 0.87906 0.73185 0.0
C462 C 0.27141 0.93033 0.72236 0.0
C463 C 0.24861 0.92107 0.70611 0.0
C464 C 0.24108 0.8908 0.7026 0.0
H465 H 0.13383 0.99226 0.60001 0.0
H466 H 0.16156 0.96259 0.62846 0.0
C467 C 0.25592 0.87 0.71536 0.0
C468 C 0.23321 0.94299 0.69193 0.0
H469 H 0.1668 0.96096 0.68354 0.0
C470 C 0.24814 0.96378 0.67257 0.0
C471 C 0.20368 0.94237 0.69637 0.0
C472 C 0.18686 0.92135 0.71772 0.0
C473 C 0.23401 0.98314 0.65664 0.0
C474 C 0.2043 0.98194 0.6606 0.0
C475 C 0.18956 0.96173 0.6805 0.0
C476 C 0.18776 1.00039 0.64347 0.0
C477 C 0.25073 0.00382 0.63501 0.0
C478 C 0.19316 0.0315 0.64265 0.0
C479 C 0.17725 0.04858 0.6264 0.0
C480 C 0.1555 0.03479 0.6109 0.0
C481 C 0.1501 1.00359 0.61196 0.0
C482 C 0.16603 0.98659 0.62811 0.0
H483 H 0.27184 0.99747 0.63086 0.0
H484 H 0.23869 0.00405 0.61637 0.0
H485 H 0.25444 0.02673 0.64124 0.0
H486 H 0.20947 0.04256 0.65475 0.0
H487 H 0.18165 0.07252 0.62632 0.0
H488 H 0.74387 0.50738 0.96717 0.0
H489 H 0.79478 0.52196 0.97388 0.0
H490 H 0.812 0.44402 0.93881 0.0
H491 H 0.76093 0.4294 0.93158 0.0
H492 H 0.83794 0.45257 0.98778 0.0
H493 H 0.8594 0.55521 0.91923 0.0
H494 H 0.8293 0.55427 0.94129 0.0
H495 H 0.82801 0.5274 0.91727 0.0
C496 C 0.75848 0.49361 0.96036 0.0
C497 C 0.74832 0.46729 0.94871 0.0
C498 C 0.78759 0.50198 0.96423 0.0
C499 C 0.80716 0.4843 0.95646 0.0
C500 C 0.7972 0.45804 0.94479 0.0
H501 H 0.98952 0.55221 0.97184 0.0
H502 H 0.94518 0.52799 0.95344 0.0
C503 C 0.76803 0.44965 0.94083 0.0
C504 C 0.83776 0.49257 0.96205 0.0
H505 H 0.89367 0.54986 0.95302 0.0
C506 C 0.85031 0.47362 0.97986 0.0
C507 C 0.85397 0.5198 0.95138 0.0
C508 C 0.84209 0.54022 0.93102 0.0
C509 C 0.87816 0.48201 0.98848 0.0
C510 C 0.89361 0.5102 0.97926 0.0
C511 C 0.88167 0.52836 0.96026 0.0
C512 C 0.92112 0.52232 0.99064 0.0
C513 C 0.8906 0.46088 1.00775 0.0
C514 C 0.92221 0.52711 0.01761 0.0
C515 C 0.94737 0.54096 0.02814 0.0
C516 C 0.97194 0.55044 1.01185 0.0
C517 C 0.97098 0.54509 0.98491 0.0
C518 C 0.94569 0.53129 0.97437 0.0
H519 H 0.88027 0.43751 1.00638 0.0
H520 H 0.91394 0.46258 1.00416 0.0
H521 H 0.88693 0.46649 0.02826 0.0
H522 H 0.90332 0.52093 0.03039 0.0
H523 H 0.94734 0.54481 0.04894 0.0
H524 H 0.88369 0.6571 0.42996 0.0
H525 H 0.84366 0.62652 0.45578 0.0
H526 H 0.84446 0.69539 0.50888 0.0
H527 H 0.88518 0.72503 0.48409 0.0
H528 H 0.82749 0.64224 0.53506 0.0
H529 H 0.76807 0.65087 0.44134 0.0
H530 H 0.79747 0.63092 0.44011 0.0
H531 H 0.80393 0.67008 0.44415 0.0
C532 C 0.87579 0.66513 0.44767 0.0
C533 C 0.88726 0.6934 0.455 0.0
C534 C 0.85284 0.64784 0.46225 0.0
C535 C 0.84047 0.65912 0.48373 0.0
C536 C 0.85352 0.68626 0.49231 0.0
H537 H 0.68631 0.67226 0.55596 0.0
H538 H 0.73626 0.67151 0.54395 0.0
C539 C 0.87683 0.7032 0.47815 0.0
C540 C 0.81208 0.64511 0.49522 0.0
H541 H 0.7417 0.63145 0.47977 0.0
C542 C 0.80878 0.63937 0.52292 0.0
C543 C 0.78759 0.64153 0.47937 0.0
C544 C 0.78927 0.64888 0.44964 0.0
C545 C 0.7816 0.63163 0.53522 0.0
C546 C 0.75728 0.62935 0.51939 0.0
C547 C 0.76057 0.63311 0.49173 0.0
C548 C 0.72823 0.62727 0.53086 0.0
C549 C 0.77894 0.62706 0.56505 0.0
C550 C 0.70733 0.60257 0.52758 0.0
C551 C 0.67881 0.60294 0.5345 0.0
C552 C 0.67079 0.6283 0.54425 0.0
C553 C 0.69194 0.6526 0.54827 0.0
C554 C 0.72045 0.65204 0.54171 0.0
H555 H 0.79915 0.62242 0.574 0.0
H556 H 0.77365 0.64751 0.57277 0.0
H557 H 0.76149 0.60845 0.57148 0.0
H558 H 0.71294 0.58346 0.51884 0.0
H559 H 0.66287 0.58404 0.53101 0.0
H560 H 0.15234 0.31531 0.17415 0.0
H561 H 0.12522 0.34705 0.14629 0.0
H562 H 0.19821 0.41712 0.14042 0.0
H563 H 0.2256 0.38516 0.16616 0.0
H564 H 0.10717 0.3952 0.15426 0.0
H565 H 0.17802 0.42505 0.06615 0.0
H566 H 0.18358 0.39613 0.09105 0.0
H567 H 0.19809 0.43452 0.09468 0.0
C568 C 0.16285 0.33712 0.16615 0.0
C569 C 0.19123 0.34754 0.17267 0.0
C570 C 0.14721 0.35549 0.15041 0.0
C571 C 0.15955 0.3847 0.14069 0.0
C572 C 0.1881 0.39463 0.14671 0.0
H573 H 0.06791 0.53399 0.1109 0.0
H574 H 0.09032 0.49275 0.12944 0.0
C575 C 0.20374 0.37628 0.16195 0.0
C576 C 0.14245 0.40569 0.126 0.0
H577 H 0.14692 0.46043 0.07471 0.0
C578 C 0.11576 0.4091 0.13661 0.0
C579 C 0.15287 0.42365 0.10247 0.0
C580 C 0.17954 0.41936 0.08781 0.0
C581 C 0.10007 0.43051 0.12526 0.0
C582 C 0.11181 0.45036 0.10321 0.0
C583 C 0.13788 0.446 0.0919 0.0
C584 C 0.09777 0.47583 0.09174 0.0
C585 C 0.07077 0.43101 0.13689 0.0
C586 C 0.09547 0.48163 0.06409 0.0
C587 C 0.08348 0.50607 0.05333 0.0
C588 C 0.07299 0.52521 0.06991 0.0
C589 C 0.07524 0.51945 0.09751 0.0
C590 C 0.08787 0.49551 0.1082 0.0
H591 H 0.06084 0.4086 0.1458 0.0
H592 H 0.07261 0.44612 0.15297 0.0
H593 H 0.05632 0.4387 0.12171 0.0
H594 H 0.10295 0.46719 0.05069 0.0
H595 H 0.0822 0.50984 0.03199 0.0
H596 H 0.6282 0.39738 0.98156 0.0
H597 H 0.60607 0.34543 0.9914 0.0
H598 H 0.66875 0.31836 0.94044 0.0
H599 H 0.69138 0.37038 0.93098 0.0
H600 H 0.58201 0.30366 0.95942 0.0
H601 H 0.67627 0.26863 1.00919 0.0
H602 H 0.67366 0.30714 1.00077 0.0
H603 H 0.6829 0.28471 0.97561 0.0
C604 C 0.63722 0.38033 0.97243 0.0
C605 C 0.66161 0.38781 0.95569 0.0
C606 C 0.62455 0.3507 0.97801 0.0
C607 C 0.63596 0.32802 0.96689 0.0
C608 C 0.65997 0.33547 0.94968 0.0
H609 H 0.54346 0.14306 0.99336 0.0
H610 H 0.56498 0.19104 0.97007 0.0
C611 C 0.67286 0.36513 0.9443 0.0
C612 C 0.62295 0.29663 0.97404 0.0
H613 H 0.636 0.2319 1.00634 0.0
C614 C 0.59382 0.28783 0.9695 0.0
C615 C 0.63845 0.27613 0.98725 0.0
C616 C 0.66948 0.28459 0.99374 0.0
C617 C 0.57951 0.25939 0.97867 0.0
C618 C 0.59494 0.23911 0.99225 0.0
C619 C 0.62429 0.24752 0.99582 0.0
C620 C 0.58071 0.21038 1.00565 0.0
C621 C 0.54779 0.2518 0.97493 0.0
C622 C 0.58257 0.20538 0.03322 0.0
C623 C 0.57071 0.17814 0.04639 0.0
C624 C 0.55656 0.15524 0.03231 0.0
C625 C 0.55409 0.16039 1.00471 0.0
C626 C 0.56628 0.18776 0.99142 0.0
H627 H 0.53824 0.27174 0.96844 0.0
H628 H 0.54375 0.23589 0.95957 0.0
H629 H 0.53678 0.24106 0.99363 0.0
H630 H 0.59349 0.22257 0.04458 0.0
H631 H 0.57286 0.17498 0.06768 0.0
H632 H 0.98931 0.74182 0.46154 0.0
H633 H 0.02425 0.77612 0.48409 0.0
H634 H 0.99016 0.85042 0.44643 0.0
H635 H 0.95517 0.81679 0.42451 0.0
H636 H 0.05243 0.85813 0.44849 0.0
H637 H 0.99545 0.82013 0.54565 0.0
H638 H 1.00789 0.79345 0.52619 0.0
H639 H 0.97882 0.81134 0.51488 0.0
C640 C 0.98947 0.7655 0.45794 0.0
C641 C 0.96944 0.77653 0.44118 0.0
C642 C 1.00949 0.785 0.47073 0.0
C643 C 1.00968 0.81573 0.4669 0.0
C644 C 0.99053 0.82677 0.44939 0.0
H645 H 1.00459 0.96952 0.51955 0.0
H646 H 1.00433 0.91924 0.5076 0.0
C647 C 0.97058 0.80744 0.43676 0.0
C648 C 0.02746 0.8369 0.48271 0.0
H649 H 0.02335 0.86743 0.54138 0.0
C650 C 0.04707 0.85969 0.46915 0.0
C651 C 0.02034 0.83872 0.50966 0.0
C652 C 0.99946 0.81472 0.52512 0.0
C653 C 0.05734 0.88577 0.48098 0.0
C654 C 0.04769 0.88889 0.50692 0.0
C655 C 0.03065 0.86479 0.52147 0.0
C656 C 0.04868 0.91861 0.5163 0.0
C657 C 0.07588 0.91109 0.46479 0.0
C658 C 0.07376 0.93477 0.52539 0.0
C659 C 0.074 0.96377 0.53236 0.0
C660 C 0.0492 0.97686 0.53007 0.0
C661 C 0.0241 0.96021 0.52141 0.0
C662 C 0.02385 0.9314 0.51468 0.0
H663 H 0.08259 0.90462 0.44532 0.0
H664 H 0.06404 0.93 0.46124 0.0
H665 H 0.09524 0.91893 0.47587 0.0
H666 H 0.0931 0.92513 0.52673 0.0
H667 H 0.09364 0.97609 0.53902 0.0
H668 H 0.46611 0.85058 0.71467 0.0
H669 H 0.48948 0.81948 0.68706 0.0
H670 H 0.42818 0.74288 0.71581 0.0
H671 H 0.40512 0.77345 0.7438 0.0
H672 H 0.50791 0.75544 0.7053 0.0
H673 H 0.42521 0.7607 0.629 0.0
H674 H 0.43438 0.78949 0.65112 0.0
H675 H 0.41321 0.75471 0.66324 0.0
C676 C 0.458 0.82699 0.71552 0.0
C677 C 0.43358 0.81452 0.73118 0.0
C678 C 0.47128 0.80934 0.69967 0.0
C679 C 0.46029 0.77907 0.69929 0.0
C680 C 0.43675 0.76631 0.71573 0.0
H681 H 0.47239 0.62768 0.61751 0.0
H682 H 0.45979 0.6676 0.64182 0.0
C683 C 0.42355 0.78383 0.73158 0.0
C684 C 0.4722 0.76077 0.68078 0.0
H685 H 0.45648 0.72607 0.62462 0.0
C686 C 0.49702 0.74928 0.68743 0.0
C687 C 0.45774 0.75286 0.65762 0.0
C688 C 0.43122 0.76514 0.64958 0.0
C689 C 0.50712 0.7289 0.672 0.0
C690 C 0.49219 0.72035 0.64915 0.0
C691 C 0.46789 0.73269 0.64211 0.0
C692 C 0.50004 0.69692 0.63344 0.0
C693 C 0.53282 0.71561 0.68097 0.0
C694 C 0.52667 0.70041 0.62017 0.0
C695 C 0.53402 0.67753 0.60625 0.0
C696 C 0.51474 0.65087 0.60524 0.0
C697 C 0.48777 0.64788 0.61791 0.0
C698 C 0.48051 0.67068 0.63183 0.0
H699 H 0.53821 0.71989 0.70171 0.0
H700 H 0.52911 0.69124 0.67952 0.0
H701 H 0.5515 0.72558 0.66794 0.0
H702 H 0.54182 0.72074 0.62071 0.0
H703 H 0.55491 0.68058 0.59659 0.0
H704 H 0.86765 0.93258 0.8025 0.0
H705 H 0.88912 0.9534 0.75937 0.0
H706 H 0.97253 0.96331 0.79302 0.0
H707 H 0.95123 0.94279 0.83637 0.0
H708 H 0.92136 0.00753 0.74244 0.0
H709 H 0.98503 0.91838 0.72948 0.0
H710 H 0.95732 0.91487 0.75483 0.0
H711 H 0.99197 0.93596 0.75957 0.0
C712 C 0.89056 0.93947 0.80096 0.0
C713 C 0.90755 0.9358 0.82328 0.0
C714 C 0.90287 0.95126 0.77607 0.0
C715 C 0.93261 0.95957 0.77253 0.0
C716 C 0.94963 0.95644 0.79483 0.0
H717 H 0.04815 0.03188 0.63763 0.0
H718 H 0.02613 0.01283 0.68101 0.0
C719 C 0.93733 0.94467 0.81976 0.0
C720 C 0.94564 0.9717 0.74568 0.0
H721 H 0.99364 0.96045 0.69791 0.0
C722 C 0.93707 0.99711 0.73269 0.0
C723 C 0.96623 0.95831 0.73269 0.0
C724 C 0.97553 0.93022 0.74469 0.0
C725 C 0.94882 0.00975 0.70765 0.0
C726 C 0.96942 0.99636 0.69466 0.0
C727 C 0.97794 0.97091 0.70765 0.0
C728 C 0.98265 0.00847 0.66785 0.0
C729 C 0.93961 0.03792 0.69574 0.0
C730 C 0.9658 0.01228 0.64551 0.0
C731 C 0.97842 0.02335 0.62051 0.0
C732 C 1.0083 0.03073 0.61704 0.0
C733 C 0.0251 0.02662 0.63938 0.0
C734 C 1.01248 0.01561 0.66433 0.0
H735 H 0.93046 0.04989 0.71106 0.0
H736 H 0.95777 0.05313 0.68538 0.0
H737 H 0.92289 0.03226 0.6811 0.0
H738 H 0.94281 0.00633 0.64728 0.0
H739 H 0.96472 0.02593 0.60384 0.0
H740 H 0.68632 0.19513 0.36956 0.0
H741 H 0.66996 0.18304 0.32563 0.0
H742 H 0.58421 0.15545 0.35738 0.0
H743 H 0.60045 0.16664 0.40163 0.0
H744 H 0.63897 0.12214 0.3155 0.0
H745 H 0.57999 0.21562 0.28845 0.0
H746 H 0.60807 0.21836 0.31227 0.0
H747 H 0.57392 0.19647 0.32118 0.0
C748 C 0.66397 0.18647 0.36726 0.0
C749 C 0.64474 0.18172 0.38919 0.0
C750 C 0.65466 0.17973 0.34213 0.0
C751 C 0.62591 0.16847 0.33834 0.0
C752 C 0.60644 0.16442 0.35993 0.0
H753 H 0.5607 0.08308 0.19762 0.0
H754 H 0.56699 0.09544 0.24368 0.0
C755 C 0.61576 0.17098 0.38515 0.0
C756 C 0.61672 0.15956 0.31203 0.0
H757 H 0.58064 0.18012 0.25748 0.0
C758 C 0.62602 0.13462 0.30286 0.0
C759 C 0.59993 0.17603 0.2957 0.0
C760 C 0.58991 0.20324 0.30468 0.0
C761 C 0.61922 0.12589 0.27753 0.0
C762 C 0.60266 0.14252 0.26107 0.0
C763 C 0.59312 0.16731 0.27033 0.0
C764 C 0.59706 0.1358 0.23341 0.0
C765 C 0.6305 0.09952 0.26815 0.0
C766 C 0.61149 0.15469 0.21254 0.0
C767 C 0.60804 0.14765 0.1864 0.0
C768 C 0.5899 0.12168 0.18059 0.0
C769 C 0.57474 0.10325 0.20151 0.0
C770 C 0.5784 0.1102 0.22776 0.0
H771 H 0.6459 0.09124 0.28207 0.0
H772 H 0.61245 0.0812 0.2662 0.0
H773 H 0.64117 0.10547 0.24831 0.0
H774 H 0.62591 0.17459 0.21654 0.0
H775 H 0.61961 0.16256 0.17069 0.0
H776 H 0.46681 0.60897 0.28204 0.0
H777 H 0.4831 0.6062 0.32767 0.0
H778 H 0.41442 0.64988 0.35182 0.0
H779 H 0.39786 0.65261 0.30621 0.0
H780 H 0.46797 0.6711 0.37355 0.0
H781 H 0.4402 0.54811 0.38726 0.0
H782 H 0.46312 0.56198 0.35888 0.0
H783 H 0.42738 0.57006 0.36006 0.0
C784 C 0.45514 0.61792 0.29708 0.0
C785 C 0.4309 0.63075 0.29059 0.0
C786 C 0.46447 0.61635 0.3231 0.0
C787 C 0.44965 0.62739 0.34314 0.0
C788 C 0.42607 0.64115 0.33661 0.0
H789 H 0.46454 0.57955 0.51141 0.0
H790 H 0.44686 0.58973 0.46702 0.0
C791 C 0.41672 0.64279 0.31055 0.0
C792 C 0.45838 0.62386 0.37101 0.0
H793 H 0.46671 0.57149 0.42118 0.0
C794 C 0.46762 0.64936 0.38405 0.0
C795 C 0.45743 0.59545 0.38472 0.0
C796 C 0.44625 0.56731 0.37215 0.0
C797 C 0.47661 0.64716 0.41035 0.0
C798 C 0.47668 0.61873 0.42371 0.0
C799 C 0.46684 0.59327 0.41082 0.0
C800 C 0.48699 0.61467 0.45103 0.0
C801 C 0.48563 0.67525 0.42369 0.0
C802 C 0.51542 0.62538 0.45675 0.0
C803 C 0.5256 0.61967 0.48212 0.0
C804 C 0.50757 0.60288 0.50215 0.0
C805 C 0.479 0.59251 0.49643 0.0
C806 C 0.46884 0.5983 0.47108 0.0
H807 H 0.47702 0.69433 0.41366 0.0
H808 H 0.47842 0.67233 0.44485 0.0
H809 H 0.50926 0.68085 0.42285 0.0
H810 H 0.52994 0.63751 0.44141 0.0
H811 H 0.54774 0.62786 0.48586 0.0
H812 H 0.0758 0.38412 0.7993 0.0
H813 H 0.07725 0.41908 0.83338 0.0
H814 H 0.15482 0.46988 0.79743 0.0
H815 H 0.1537 0.43484 0.76335 0.0
H816 H 0.15137 0.45631 0.8577 0.0
H817 H 0.06309 0.50798 0.81259 0.0
H818 H 0.05731 0.46802 0.81718 0.0
H819 H 0.08456 0.48722 0.79413 0.0
C820 C 0.09337 0.40249 0.79889 0.0
C821 C 0.11455 0.40691 0.77863 0.0
C822 C 0.09409 0.42246 0.81823 0.0
C823 C 0.11601 0.44704 0.81765 0.0
C824 C 0.13771 0.45102 0.79803 0.0
H825 H 0.10712 0.60177 0.90318 0.0
H826 H 0.11697 0.56934 0.86955 0.0
C827 C 0.13693 0.43115 0.77857 0.0
C828 C 0.11552 0.46925 0.83691 0.0
H829 H 0.07832 0.52252 0.85444 0.0
C830 C 0.13556 0.47095 0.857 0.0
C831 C 0.09509 0.48848 0.83552 0.0
C832 C 0.07386 0.48814 0.81361 0.0
C833 C 0.13512 0.49098 0.87638 0.0
C834 C 0.11392 0.5094 0.87562 0.0
C835 C 0.09446 0.50825 0.85501 0.0
C836 C 0.11073 0.52932 0.89647 0.0
C837 C 0.15733 0.4923 0.89743 0.0
C838 C 0.10405 0.51751 0.9227 0.0
C839 C 0.09857 0.53599 0.94197 0.0
C840 C 0.09941 0.56659 0.93529 0.0
C841 C 0.10658 0.5784 0.90904 0.0
C842 C 0.1121 0.55989 0.88978 0.0
H843 H 0.17645 0.48339 0.89098 0.0
H844 H 0.16411 0.51543 0.90256 0.0
H845 H 0.14815 0.47859 0.91563 0.0
H846 H 0.10237 0.49388 0.92815 0.0
H847 H 0.0935 0.52623 0.96206 0.0
H848 H 0.73883 0.90136 0.94511 0.0
H849 H 0.70754 0.92583 0.97127 0.0
H850 H 0.75824 0.01087 0.94618 0.0
H851 H 0.78945 0.98623 0.91936 0.0
H852 H 0.7126 0.96047 1.01173 0.0
H853 H 0.68005 0.0247 0.92256 0.0
H854 H 0.70082 0.99533 0.92038 0.0
H855 H 0.71765 0.03145 0.92834 0.0
C856 C 0.7437 0.92525 0.94555 0.0
C857 C 0.76673 0.94178 0.93006 0.0
C858 C 0.72565 0.9393 0.9605 0.0
C859 C 0.72986 0.97041 0.96037 0.0
C860 C 0.75393 0.98692 0.94621 0.0
H861 H 0.6271 0.05801 0.06737 0.0
H862 H 0.66608 0.03894 0.04599 0.0
C863 C 0.77213 0.97278 0.9312 0.0
C864 C 0.7083 0.98506 0.97422 0.0
H865 H 0.66005 0.03275 0.96365 0.0
C866 C 0.70128 0.97643 1.0012 0.0
C867 C 0.6929 0.00554 0.96058 0.0
C868 C 0.69796 0.01466 0.93132 0.0
C869 C 0.67959 0.9875 1.01474 0.0
C870 C 0.66452 0.00835 1.00121 0.0
C871 C 0.67157 0.01702 0.97425 0.0
C872 C 0.64077 0.02059 1.0143 0.0
C873 C 0.67235 0.97582 0.04322 0.0
C874 C 0.61343 0.01763 1.00345 0.0
C875 C 0.59106 0.0288 1.01557 0.0
C876 C 0.59533 0.04341 0.03891 0.0
C877 C 0.62279 0.04669 0.0496 0.0
C878 C 0.64518 0.03557 0.03742 0.0
H879 H 0.67997 0.95441 0.04834 0.0
H880 H 0.68288 0.99211 0.05645 0.0
H881 H 0.64898 0.97251 0.04731 0.0
H882 H 0.60926 0.00636 0.98563 0.0
H883 H 0.57034 0.02589 1.0066 0.0
H884 H 0.70809 0.12801 0.43912 0.0
H885 H 0.75242 0.11076 0.45186 0.0
H886 H 0.77702 0.18897 0.49319 0.0
H887 H 0.73261 0.20647 0.48045 0.0
H888 H 0.8078 0.13969 0.43935 0.0
H889 H 0.78851 0.12137 0.54857 0.0
H890 H 0.76035 0.12591 0.52575 0.0
H891 H 0.78505 0.1577 0.53382 0.0
C892 C 0.72296 0.14161 0.45085 0.0
C893 C 0.71689 0.16866 0.45871 0.0
C894 C 0.74821 0.13164 0.45822 0.0
C895 C 0.76784 0.1484 0.47372 0.0
C896 C 0.76187 0.17539 0.48169 0.0
H897 H 0.93674 0.11648 0.52407 0.0
H898 H 0.89326 0.13817 0.51711 0.0
C899 C 0.73654 0.18538 0.47436 0.0
C900 C 0.79501 0.13801 0.48049 0.0
H901 H 0.83352 0.11414 0.53219 0.0
C902 C 0.81343 0.13414 0.45965 0.0
C903 C 0.80238 0.13098 0.50701 0.0
C904 C 0.78299 0.13394 0.53012 0.0
C905 C 0.83891 0.12318 0.46457 0.0
C906 C 0.84595 0.11548 0.49103 0.0
C907 C 0.82795 0.12002 0.51194 0.0
C908 C 0.87139 0.10156 0.49711 0.0
C909 C 0.85816 0.11997 0.44141 0.0
C910 C 0.87306 0.07346 0.48887 0.0
C911 C 0.89771 0.06096 0.49293 0.0
C912 C 0.92121 0.07629 0.50538 0.0
C913 C 0.91901 0.10399 0.51457 0.0
C914 C 0.89425 0.11649 0.51051 0.0
H915 H 0.85347 0.13362 0.42328 0.0
H916 H 0.88095 0.12655 0.44612 0.0
H917 H 0.85488 0.09637 0.43698 0.0
H918 H 0.85539 0.06134 0.47896 0.0
H919 H 0.89843 0.03934 0.48612 0.0
H920 H 0.31388 0.74066 0.17786 0.0
H921 H 0.26945 0.73422 0.15424 0.0
H922 H 0.27891 0.64409 0.14269 0.0
H923 H 0.32497 0.65137 0.16348 0.0
H924 H 0.2611 0.66713 0.10025 0.0
H925 H 0.19403 0.69452 0.18181 0.0
H926 H 0.22169 0.72491 0.1712 0.0
H927 H 0.23083 0.69061 0.18613 0.0
C928 C 0.30691 0.71959 0.16991 0.0
C929 C 0.32328 0.69653 0.17279 0.0
C930 C 0.28104 0.71575 0.15685 0.0
C931 C 0.27032 0.68841 0.14727 0.0
C932 C 0.28655 0.66536 0.15008 0.0
H933 H 0.09686 0.62324 0.11182 0.0
H934 H 0.14244 0.64017 0.1315 0.0
C935 C 0.31281 0.66944 0.16242 0.0
C936 C 0.24258 0.68381 0.13375 0.0
H937 H 0.17212 0.68943 0.14028 0.0
C938 C 0.2416 0.67186 0.1091 0.0
C939 C 0.21705 0.68977 0.14534 0.0
C940 C 0.21586 0.70035 0.17269 0.0
C941 C 0.21585 0.66501 0.09603 0.0
C942 C 0.19048 0.67187 0.10719 0.0
C943 C 0.19157 0.68448 0.13155 0.0
C944 C 0.1622 0.66381 0.09523 0.0
C945 C 0.21608 0.64918 0.0711 0.0
C946 C 0.15768 0.6721 0.06842 0.0
C947 C 0.1318 0.66165 0.05692 0.0
C948 C 0.10966 0.64376 0.07233 0.0
C949 C 0.11353 0.63715 0.0995 0.0
C950 C 0.13962 0.64682 0.11077 0.0
H951 H 0.23507 0.63802 0.06974 0.0
H952 H 0.19667 0.63217 0.0702 0.0
H953 H 0.21689 0.66559 0.05354 0.0
H954 H 0.17434 0.68612 0.05623 0.0
H955 H 0.12919 0.66728 0.03596 0.0
H956 H 0.15875 0.47196 0.60876 0.0
H957 H 0.20441 0.50369 0.59527 0.0
H958 H 0.24645 0.45735 0.65675 0.0
H959 H 0.20153 0.42538 0.66993 0.0
H960 H 0.26036 0.52301 0.65187 0.0
H961 H 0.27078 0.47082 0.55742 0.0
H962 H 0.2384 0.48464 0.56466 0.0
H963 H 0.24675 0.45265 0.584 0.0
C964 C 0.17776 0.4686 0.61938 0.0
C965 C 0.17646 0.44623 0.64051 0.0
C966 C 0.20373 0.48677 0.6117 0.0
C967 C 0.22868 0.48275 0.62503 0.0
C968 C 0.22732 0.46091 0.64639 0.0
H969 H 0.4015 0.503 0.63963 0.0
H970 H 0.34988 0.49984 0.64309 0.0
C971 C 0.20155 0.44276 0.65398 0.0
C972 C 0.25681 0.50002 0.61644 0.0
H973 H 0.31156 0.50019 0.57213 0.0
C974 C 0.27139 0.51867 0.63409 0.0
C975 C 0.27098 0.49448 0.59312 0.0
C976 C 0.25612 0.47452 0.57362 0.0
C977 C 0.30044 0.53025 0.62997 0.0
C978 C 0.31525 0.52248 0.60793 0.0
C979 C 0.30011 0.50595 0.58909 0.0
C980 C 0.34677 0.52701 0.60639 0.0
C981 C 0.31534 0.54955 0.64991 0.0
C982 C 0.36211 0.54299 0.58438 0.0
C983 C 0.39176 0.54467 0.5823 0.0
C984 C 0.40631 0.52993 0.60196 0.0
C985 C 0.39084 0.51428 0.62405 0.0
C986 C 0.36139 0.5128 0.62622 0.0
H987 H 0.30025 0.56164 0.65971 0.0
H988 H 0.3241 0.53531 0.66554 0.0
H989 H 0.33323 0.56594 0.64045 0.0
H990 H 0.3511 0.55377 0.56872 0.0
H991 H 0.40316 0.55667 0.56496 0.0
H992 H 0.89318 0.87113 0.94383 0.0
H993 H 0.91437 0.83177 0.96812 0.0
H994 H 0.94732 0.80831 0.89464 0.0
H995 H 0.92568 0.84679 0.87016 0.0
H996 H 0.90566 0.76893 0.96298 0.0
H997 H 0.01852 0.81957 0.94071 0.0
H998 H 0.98952 0.84043 0.93643 0.0
H999 H 0.99676 0.81617 0.91206 0.0
C1000 C 0.90478 0.85756 0.93271 0.0
C1001 C 0.90781 0.86276 0.90483 0.0
C1002 C 0.91704 0.83504 0.94673 0.0
C1003 C 0.93296 0.81721 0.93338 0.0
C1004 C 0.93579 0.82209 0.90561 0.0
H1005 H 0.0274 0.67214 0.97203 0.0
H1006 H 1.00557 0.71316 0.95199 0.0
C1007 C 0.92341 0.8444 0.89157 0.0
C1008 C 0.94621 0.79321 0.94824 0.0
H1009 H 1.01015 0.76982 0.96022 0.0
C1010 C 0.92853 0.76925 0.96256 0.0
C1011 C 0.97607 0.79337 0.94773 0.0
C1012 C 0.99642 0.81886 0.93362 0.0
C1013 C 0.9397 0.74517 0.97551 0.0
C1014 C 0.96962 0.74522 0.97488 0.0
C1015 C 0.98728 0.76947 0.96085 0.0
C1016 C 0.98302 0.72005 0.98775 0.0
C1017 C 0.9191 0.71935 0.98883 0.0
C1018 C 0.97823 0.71009 1.01483 0.0
C1019 C 0.99063 0.68628 0.02641 0.0
C1020 C 1.00853 0.67198 1.01132 0.0
C1021 C 1.01379 0.68244 0.98439 0.0
C1022 C 1.00126 0.70605 0.97283 0.0
H1023 H 0.89726 0.71865 0.98109 0.0
H1024 H 0.92619 0.69788 0.98599 0.0
H1025 H 0.91788 0.72171 1.01041 0.0
H1026 H 0.96499 0.72083 0.02716 0.0
H1027 H 0.98616 0.67906 0.0472 0.0
H1028 H 0.37698 0.78662 0.20047 0.0
H1029 H 0.40455 0.83617 0.19006 0.0
H1030 H 0.48071 0.79804 0.17953 0.0
H1031 H 0.45292 0.74813 0.18862 0.0
H1032 H 0.45134 0.86913 0.21017 0.0
H1033 H 0.47419 0.8426 0.10766 0.0
H1034 H 0.44908 0.8183 0.12997 0.0
H1035 H 0.48678 0.8193 0.13373 0.0
C1036 C 0.39961 0.78874 0.19592 0.0
C1037 C 0.41263 0.7634 0.19481 0.0
C1038 C 0.41539 0.8171 0.19025 0.0
C1039 C 0.44455 0.82075 0.1835 0.0
C1040 C 0.45809 0.79565 0.18415 0.0
H1041 H 0.53857 1.00318 0.14601 0.0
H1042 H 0.52449 0.95297 0.16809 0.0
C1043 C 0.44223 0.76717 0.18962 0.0
C1044 C 0.45985 0.85066 0.1738 0.0
H1045 H 0.49048 0.89122 0.11798 0.0
C1046 C 0.46022 0.87398 0.19012 0.0
C1047 C 0.47112 0.8569 0.14751 0.0
C1048 C 0.47014 0.83307 0.12857 0.0
C1049 C 0.47071 0.90354 0.18058 0.0
C1050 C 0.48156 0.90975 0.15418 0.0
C1051 C 0.48218 0.88631 0.13823 0.0
C1052 C 0.48995 0.94049 0.14176 0.0
C1053 C 0.46875 0.92796 0.19834 0.0
C1054 C 0.47543 0.94996 0.1195 0.0
C1055 C 0.48358 0.97835 0.10673 0.0
C1056 C 0.50643 0.99796 0.11599 0.0
C1057 C 0.52076 0.98863 0.13852 0.0
C1058 C 0.51268 0.96001 0.15122 0.0
H1059 H 0.45464 0.92001 0.21606 0.0
H1060 H 0.49034 0.93646 0.20527 0.0
H1061 H 0.46057 0.94676 0.18736 0.0
H1062 H 0.4578 0.93524 0.1119 0.0
H1063 H 0.47203 0.98485 0.08948 0.0
H1064 H 0.1316 0.36696 0.59437 0.0
H1065 H 0.10805 0.32642 0.57052 0.0
H1066 H 0.02713 0.33424 0.60659 0.0
H1067 H 0.05083 0.37486 0.63084 0.0
H1068 H 0.04186 0.28167 0.61995 0.0
H1069 H 0.05542 0.30416 0.51141 0.0
H1070 H 0.08868 0.31492 0.52698 0.0
H1071 H 0.05902 0.33361 0.53328 0.0
C1072 C 0.10859 0.36106 0.59623 0.0
C1073 C 0.09306 0.37378 0.61466 0.0
C1074 C 0.09507 0.33787 0.58248 0.0
C1075 C 0.06578 0.32729 0.58672 0.0
C1076 C 0.04974 0.3421 0.603 0.0
H1077 H 1.00607 0.14882 0.53533 0.0
H1078 H 1.00568 0.20113 0.54198 0.0
C1079 C 0.06329 0.36522 0.61687 0.0
C1080 C 0.05387 0.29733 0.57926 0.0
H1081 H 0.05445 0.25226 0.52912 0.0
C1082 C 0.04381 0.27543 0.59991 0.0
C1083 C 0.05627 0.28911 0.55315 0.0
C1084 C 0.06516 0.31183 0.52994 0.0
C1085 C 0.03835 0.24533 0.59553 0.0
C1086 C 0.04335 0.23696 0.56995 0.0
C1087 C 0.05111 0.25886 0.54883 0.0
C1088 C 0.04344 0.2056 0.56556 0.0
C1089 C 0.0286 0.22255 0.61855 0.0
C1090 C 0.06497 0.19112 0.5765 0.0
C1091 C 0.06538 0.16141 0.5727 0.0
C1092 C 0.04418 0.14568 0.55793 0.0
C1093 C 0.02263 0.16033 0.54692 0.0
C1094 C 0.02238 0.19017 0.55059 0.0
H1095 H 0.01888 0.23253 0.63493 0.0
H1096 H 1.01285 0.20401 0.61217 0.0
H1097 H 0.04726 0.21318 0.62638 0.0
H1098 H 0.08153 0.20289 0.58794 0.0
H1099 H 0.0823 0.15081 0.58135 0.0
H1100 H 0.60911 0.27888 0.54589 0.0
H1101 H 0.60342 0.33037 0.54914 0.0
H1102 H 0.60533 0.34556 0.46382 0.0
H1103 H 0.60958 0.29345 0.46035 0.0
H1104 H 0.63644 0.3828 0.53178 0.0
H1105 H 0.53125 0.37228 0.48361 0.0
H1106 H 0.54771 0.34048 0.49383 0.0
H1107 H 0.55986 0.36339 0.4639 0.0
C1108 C 0.60799 0.29301 0.52777 0.0
C1109 C 0.6093 0.28182 0.50286 0.0
C1110 C 0.60504 0.32257 0.52967 0.0
C1111 C 0.60346 0.34171 0.50675 0.0
C1112 C 0.6059 0.33102 0.48179 0.0
H1113 H 0.60239 0.53143 0.52648 0.0
H1114 H 0.61637 0.48626 0.5114 0.0
C1115 C 0.60866 0.30131 0.47985 0.0
C1116 C 0.59851 0.3725 0.50937 0.0
H1117 H 0.54975 0.41892 0.49778 0.0
C1118 C 0.61762 0.39085 0.52416 0.0
C1119 C 0.57381 0.38282 0.49956 0.0
C1120 C 0.55181 0.3637 0.48453 0.0
C1121 C 0.61229 0.41885 0.53014 0.0
C1122 C 0.58746 0.42905 0.52052 0.0
C1123 C 0.56884 0.4111 0.505 0.0
C1124 C 0.57893 0.4569 0.52839 0.0
C1125 C 0.63253 0.43655 0.5478 0.0
C1126 C 0.55289 0.45554 0.5422 0.0
C1127 C 0.5447 0.48124 0.5505 0.0
C1128 C 0.56243 0.50893 0.54522 0.0
C1129 C 0.58836 0.5104 0.53101 0.0
C1130 C 0.59645 0.48459 0.52252 0.0
H1131 H 0.64691 0.42277 0.55819 0.0
H1132 H 0.64599 0.45503 0.53555 0.0
H1133 H 0.62061 0.44629 0.56288 0.0
H1134 H 0.53902 0.43442 0.54694 0.0
H1135 H 0.52459 0.47928 0.56138 0.0
loop_
_geom_bond_atom_site_label_1
_geom_bond_atom_site_label_2
_geom_bond_distance
_geom_bond_site_symmetry_2
_ccdc_geom_bond_type
H0 C1 0.949 . S
C1 H0 0.949 . S
C1 C2 1.395 . S
C1 C3 1.391 . S
C2 C1 1.395 . S
C2 C5 1.390 . S
C3 C1 1.391 . S
C3 C7 1.387 . S
C3 C8 1.491 . S
H4 C5 0.950 . S
C5 C2 1.390 . S
C5 H4 0.950 . S
C5 C6 1.378 . S
C6 C5 1.378 . S
C6 C7 1.409 . S
C7 C3 1.387 . S
C7 C6 1.409 . S
C7 H9 0.951 . S
C8 C3 1.491 . S
C8 C10 1.382 . S
C8 C12 1.404 . S
H9 C7 0.951 . S
C10 C8 1.382 . S
C10 C11 1.390 . S
C10 H15 0.949 . S
C11 C10 1.390 . S
C11 C16 1.399 . S
C12 C8 1.404 . S
C12 H13 0.950 . S
C12 C14 1.375 . S
H13 C12 0.950 . S
C14 C12 1.375 . S
C14 C16 1.382 . S
C14 H18 0.950 . S
H15 C10 0.949 . S
C16 C11 1.399 . S
C16 C14 1.382 . S
C16 H17 0.952 . S
H17 C16 0.952 . S
H18 C14 0.950 . S
H19 C20 0.949 . S
C20 H19 0.949 . S
C20 C21 1.395 . S
C20 C22 1.391 . S
C21 C20 1.395 . S
C21 C24 1.390 . S
C22 C20 1.391 . S
C22 C26 1.387 . S
C22 C27 1.491 . S
H23 C24 0.950 . S
C24 C21 1.390 . S
C24 H23 0.950 . S
C24 C25 1.378 . S
C25 C24 1.378 . S
C25 C26 1.409 . S
C26 C22 1.387 . S
C26 C25 1.409 . S
C26 H28 0.951 . S
C27 C22 1.491 . S
C27 C29 1.382 . S
C27 C31 1.404 . S
H28 C26 0.951 . S
C29 C27 1.382 . S
C29 C30 1.390 . S
C29 H34 0.949 . S
C30 C29 1.390 . S
C30 C35 1.399 . S
C31 C27 1.404 . S
C31 H32 0.950 . S
C31 C33 1.375 . S
H32 C31 0.950 . S
C33 C31 1.375 . S
C33 C35 1.382 . S
C33 H37 0.950 . S
H34 C29 0.949 . S
C35 C30 1.399 . S
C35 C33 1.382 . S
C35 H36 0.952 . S
H36 C35 0.952 . S
H37 C33 0.950 . S
H38 C39 0.949 . S
C39 H38 0.949 . S
C39 C40 1.395 . S
C39 C41 1.391 . S
C40 C39 1.395 . S
C40 C43 1.390 . S
C41 C39 1.391 . S
C41 C45 1.387 . S
C41 C46 1.491 . S
H42 C43 0.950 . S
C43 C40 1.390 . S
C43 H42 0.950 . S
C43 C44 1.378 . S
C44 C43 1.378 . S
C44 C45 1.409 . S
C45 C41 1.387 . S
C45 C44 1.409 . S
C45 H47 0.951 . S
C46 C41 1.491 . S
C46 C48 1.382 . S
C46 C50 1.404 . S
H47 C45 0.951 . S
C48 C46 1.382 . S
C48 C49 1.390 . S
C48 H53 0.949 . S
C49 C48 1.390 . S
C49 C54 1.399 . S
C50 C46 1.404 . S
C50 H51 0.950 . S
C50 C52 1.375 . S
H51 C50 0.950 . S
C52 C50 1.375 . S
C52 C54 1.382 . S
C52 H56 0.950 . S
H53 C48 0.949 . S
C54 C49 1.399 . S
C54 C52 1.382 . S
C54 H55 0.952 . S
H55 C54 0.952 . S
H56 C52 0.950 . S
H57 C58 0.949 . S
C58 H57 0.949 . S
C58 C59 1.395 . S
C58 C60 1.391 . S
C59 C58 1.395 . S
C59 C62 1.390 . S
C60 C58 1.391 . S
C60 C64 1.387 . S
C60 C65 1.491 . S
H61 C62 0.950 . S
C62 C59 1.390 . S
C62 H61 0.950 . S
C62 C63 1.378 . S
C63 C62 1.378 . S
C63 C64 1.409 . S
C64 C60 1.387 . S
C64 C63 1.409 . S
C64 H66 0.951 . S
C65 C60 1.491 . S
C65 C67 1.382 . S
C65 C69 1.404 . S
H66 C64 0.951 . S
C67 C65 1.382 . S
C67 C68 1.390 . S
C67 H72 0.949 . S
C68 C67 1.390 . S
C68 C73 1.399 . S
C69 C65 1.404 . S
C69 H70 0.950 . S
C69 C71 1.375 . S
H70 C69 0.950 . S
C71 C69 1.375 . S
C71 C73 1.382 . S
C71 H75 0.950 . S
H72 C67 0.949 . S
C73 C68 1.399 . S
C73 C71 1.382 . S
C73 H74 0.952 . S
H74 C73 0.952 . S
H75 C71 0.950 . S
H76 C77 0.949 . S
C77 H76 0.949 . S
C77 C78 1.395 . S
C77 C79 1.391 . S
C78 C77 1.395 . S
C78 C81 1.390 . S
C79 C77 1.391 . S
C79 C83 1.387 . S
C79 C84 1.491 . S
H80 C81 0.950 . S
C81 C78 1.390 . S
C81 H80 0.950 . S
C81 C82 1.378 . S
C82 C81 1.378 . S
C82 C83 1.409 . S
C83 C79 1.387 . S
C83 C82 1.409 . S
C83 H85 0.951 . S
C84 C79 1.491 . S
C84 C86 1.382 . S
C84 C88 1.404 . S
H85 C83 0.951 . S
C86 C84 1.382 . S
C86 C87 1.390 . S
C86 H91 0.949 . S
C87 C86 1.390 . S
C87 C92 1.399 . S
C88 C84 1.404 . S
C88 H89 0.950 . S
C88 C90 1.375 . S
H89 C88 0.950 . S
C90 C88 1.375 . S
C90 C92 1.382 . S
C90 H94 0.950 . S
H91 C86 0.949 . S
C92 C87 1.399 . S
C92 C90 1.382 . S
C92 H93 0.952 . S
H93 C92 0.952 . S
H94 C90 0.950 . S
H95 C96 0.949 . S
C96 H95 0.949 . S
C96 C97 1.395 . S
C96 C98 1.391 . S
C97 C96 1.395 . S
C97 C100 1.390 . S
C98 C96 1.391 . S
C98 C102 1.387 . S
C98 C103 1.491 . S
H99 C100 0.950 . S
C100 C97 1.390 . S
C100 H99 0.950 . S
C100 C101 1.378 . S
C101 C100 1.378 . S
C101 C102 1.409 . S
C102 C98 1.387 . S
C102 C101 1.409 . S
C102 H104 0.951 . S
C103 C98 1.491 . S
C103 C105 1.382 . S
C103 C107 1.404 . S
H104 C102 0.951 . S
C105 C103 1.382 . S
C105 C106 1.390 . S
C105 H110 0.949 . S
C106 C105 1.390 . S
C106 C111 1.399 . S
C107 C103 1.404 . S
C107 H108 0.950 . S
C107 C109 1.375 . S
H108 C107 0.950 . S
C109 C107 1.375 . S
C109 C111 1.382 . S
C109 H113 0.950 . S
H110 C105 0.949 . S
C111 C106 1.399 . S
C111 C109 1.382 . S
C111 H112 0.952 . S
H112 C111 0.952 . S
H113 C109 0.950 . S
H114 C115 0.949 . S
C115 H114 0.949 . S
C115 C116 1.395 . S
C115 C117 1.391 . S
C116 C115 1.395 . S
C116 C119 1.390 . S
C117 C115 1.391 . S
C117 C121 1.387 . S
C117 C122 1.491 . S
H118 C119 0.950 . S
C119 C116 1.390 . S
C119 H118 0.950 . S
C119 C120 1.378 . S
C120 C119 1.378 . S
C120 C121 1.409 . S
C121 C117 1.387 . S
C121 C120 1.409 . S
C121 H123 0.951 . S
C122 C117 1.491 . S
C122 C124 1.382 . S
C122 C126 1.404 . S
H123 C121 0.951 . S
C124 C122 1.382 . S
C124 C125 1.390 . S
C124 H129 0.949 . S
C125 C124 1.390 . S
C125 C130 1.399 . S
C126 C122 1.404 . S
C126 H127 0.950 . S
C126 C128 1.375 . S
H127 C126 0.950 . S
C128 C126 1.375 . S
C128 C130 1.382 . S
C128 H132 0.950 . S
H129 C124 0.949 . S
C130 C125 1.399 . S
C130 C128 1.382 . S
C130 H131 0.952 . S
H131 C130 0.952 . S
H132 C128 0.950 . S
H133 C134 0.949 . S
C134 H133 0.949 . S
C134 C135 1.395 . S
C134 C136 1.391 . S
C135 C134 1.395 . S
C135 C138 1.390 . S
C136 C134 1.391 . S
C136 C140 1.387 . S
C136 C141 1.491 . S
H137 C138 0.950 . S
C138 C135 1.390 . S
C138 H137 0.950 . S
C138 C139 1.378 . S
C139 C138 1.378 . S
C139 C140 1.409 . S
C140 C136 1.387 . S
C140 C139 1.409 . S
C140 H142 0.951 . S
C141 C136 1.491 . S
C141 C143 1.382 . S
C141 C145 1.404 . S
H142 C140 0.951 . S
C143 C141 1.382 . S
C143 C144 1.390 . S
C143 H148 0.949 . S
C144 C143 1.390 . S
C144 C149 1.399 . S
C145 C141 1.404 . S
C145 H146 0.950 . S
C145 C147 1.375 . S
H146 C145 0.950 . S
C147 C145 1.375 . S
C147 C149 1.382 . S
C147 H151 0.950 . S
H148 C143 0.949 . S
C149 C144 1.399 . S
C149 C147 1.382 . S
C149 H150 0.952 . S
H150 C149 0.952 . S
H151 C147 0.950 . S
Co152 N157 2.057 . S
Co152 O169 2.022 . S
Co152 O172 2.048 1_655 S
Co152 O176 2.117 . S
Co152 O177 2.020 . S
C153 O173 1.259 1_665 S
C153 O176 1.258 1_565 S
Co154 N163 2.057 . S
Co154 O170 2.117 . S
Co154 O171 2.020 . S
Co154 O173 2.021 . S
Co154 O178 2.062 . S
C155 N157 1.316 . S
C155 N158 1.347 . S
C155 H160 0.931 . S
C156 N157 1.375 . S
C156 C159 1.350 . S
C156 H161 0.930 . S
N157 Co152 2.057 . S
N157 C155 1.316 . S
N157 C156 1.375 . S
N158 C155 1.347 . S
N158 C159 1.373 . S
C159 C156 1.350 . S
C159 N158 1.373 . S
C159 H180 0.931 . S
H160 C155 0.931 . S
H161 C156 0.930 . S
C162 O169 1.251 1_455 S
C162 O170 1.258 . S
N163 Co154 2.057 . S
N163 C164 1.316 . S
N163 C165 1.375 . S
C164 N163 1.316 . S
C164 N166 1.347 . S
C164 H175 0.931 . S
C165 N163 1.375 . S
C165 C167 1.350 . S
C165 H174 0.930 . S
N166 C164 1.347 . S
N166 C167 1.373 . S
C167 C165 1.350 . S
C167 N166 1.373 . S
C167 H181 0.931 . S
C168 O171 1.256 . S
C168 O172 1.290 . S
O169 Co152 2.022 . S
O169 C162 1.251 1_655 S
O170 Co154 2.117 . S
O170 C162 1.258 . S
O171 Co154 2.020 . S
O171 C168 1.256 . S
O172 Co152 2.048 1_455 S
O172 C168 1.290 . S
O173 C153 1.259 1_445 S
O173 Co154 2.021 . S
H174 C165 0.930 . S
H175 C164 0.931 . S
O176 Co152 2.117 . S
O176 C153 1.258 1_545 S
O177 Co152 2.020 . S
O177 C179 1.256 . S
O178 Co154 2.062 . S
O178 C179 1.255 1_455 S
C179 O177 1.256 . S
C179 O178 1.255 1_655 S
H180 C159 0.931 . S
H181 C167 0.931 . S
Co182 N187 2.057 . S
Co182 O199 2.021 . S
Co182 O202 2.062 . S
Co182 O206 2.117 . S
Co182 O207 2.020 . S
C183 O203 1.259 1_565 S
C183 O206 1.258 1_565 S
Co184 N193 2.057 . S
Co184 O200 2.117 . S
Co184 O201 2.020 . S
Co184 O203 2.021 . S
Co184 O208 2.062 . S
C185 N187 1.316 1_556 S
C185 N188 1.347 . S
C185 H190 0.931 . S
C186 N187 1.375 1_565 S
C186 C189 1.350 1_554 S
C186 H191 0.930 . S
N187 Co182 2.057 . S
N187 C185 1.316 1_554 S
N187 C186 1.375 1_545 S
N188 C185 1.347 . S
N188 C189 1.373 1_545 S
C189 C186 1.350 1_556 S
C189 N188 1.373 1_565 S
C189 H210 0.931 . S
H190 C185 0.931 . S
H191 C186 0.930 . S
C192 O199 1.259 . S
C192 O200 1.258 . S
N193 Co184 2.057 . S
N193 C194 1.316 . S
N193 C195 1.375 . S
C194 N193 1.316 . S
C194 N196 1.347 . S
C194 H205 0.931 . S
C195 N193 1.375 . S
C195 C197 1.350 . S
C195 H204 0.930 . S
N196 C194 1.347 . S
N196 C197 1.373 . S
C197 C195 1.350 . S
C197 N196 1.373 . S
C197 H211 0.931 . S
C198 O201 1.256 . S
C198 O202 1.255 . S
O199 Co182 2.021 . S
O199 C192 1.259 . S
O200 Co184 2.117 . S
O200 C192 1.258 . S
O201 Co184 2.020 . S
O201 C198 1.256 . S
O202 Co182 2.062 . S
O202 C198 1.255 . S
O203 C183 1.259 1_545 S
O203 Co184 2.021 . S
H204 C195 0.930 . S
H205 C194 0.931 . S
O206 Co182 2.117 . S
O206 C183 1.258 1_545 S
O207 Co182 2.020 . S
O207 C209 1.256 . S
O208 Co184 2.062 . S
O208 C209 1.255 . S
C209 O207 1.256 . S
C209 O208 1.255 . S
H210 C189 0.931 . S
H211 C197 0.931 . S
Co212 N217 2.057 . S
Co212 O229 2.021 . S
Co212 O232 2.062 . S
Co212 O236 2.117 . S
Co212 O237 2.020 . S
C213 O233 1.259 . S
C213 O236 1.258 . S
Co214 N223 2.057 . S
Co214 O230 2.117 . S
Co214 O231 2.020 . S
Co214 O233 2.021 . S
Co214 O238 2.062 . S
C215 N217 1.316 . S
C215 N218 1.347 . S
C215 H220 0.931 . S
C216 N217 1.375 . S
C216 C219 1.350 . S
C216 H221 0.930 . S
N217 Co212 2.057 . S
N217 C215 1.316 . S
N217 C216 1.375 . S
N218 C215 1.347 . S
N218 C219 1.373 . S
C219 C216 1.350 . S
C219 N218 1.373 . S
C219 H240 0.931 . S
H220 C215 0.931 . S
H221 C216 0.930 . S
C222 O229 1.259 . S
C222 O230 1.258 . S
N223 Co214 2.057 . S
N223 C224 1.316 . S
N223 C225 1.375 . S
C224 N223 1.316 . S
C224 N226 1.347 . S
C224 H235 0.931 . S
C225 N223 1.375 . S
C225 C227 1.350 . S
C225 H234 0.930 . S
N226 C224 1.347 . S
N226 C227 1.373 . S
C227 C225 1.350 . S
C227 N226 1.373 . S
C227 H241 0.931 . S
C228 O231 1.256 . S
C228 O232 1.255 . S
O229 Co212 2.021 . S
O229 C222 1.259 . S
O230 Co214 2.117 . S
O230 C222 1.258 . S
O231 Co214 2.020 . S
O231 C228 1.256 . S
O232 Co212 2.062 . S
O232 C228 1.255 . S
O233 C213 1.259 . S
O233 Co214 2.021 . S
H234 C225 0.930 . S
H235 C224 0.931 . S
O236 Co212 2.117 . S
O236 C213 1.258 . S
O237 Co212 2.020 . S
O237 C239 1.256 . S
O238 Co214 2.062 . S
O238 C239 1.255 . S
C239 O237 1.256 . S
C239 O238 1.255 . S
H240 C219 0.931 . S
H241 C227 0.931 . S
Co242 N247 2.057 . S
Co242 O259 2.021 1_556 S
Co242 O262 2.062 1_556 S
Co242 O266 2.117 1_455 S
Co242 O267 2.020 . S
C243 O263 1.259 . S
C243 O266 1.258 1_554 S
Co244 N253 2.057 . S
Co244 O260 2.117 . S
Co244 O261 2.020 . S
Co244 O263 2.021 1_455 S
Co244 O268 2.062 . S
C245 N247 1.316 . S
C245 N248 1.347 . S
C245 H250 0.931 . S
C246 N247 1.375 . S
C246 C249 1.350 . S
C246 H251 0.930 1_455 S
N247 Co242 2.057 . S
N247 C245 1.316 . S
N247 C246 1.375 . S
N248 C245 1.347 . S
N248 C249 1.373 . S
C249 C246 1.350 . S
C249 N248 1.373 . S
C249 H270 0.931 . S
H250 C245 0.931 . S
H251 C246 0.930 1_655 S
C252 O259 1.259 . S
C252 O260 1.258 . S
N253 Co244 2.057 . S
N253 C254 1.316 1_455 S
N253 C255 1.375 . S
C254 N253 1.316 1_655 S
C254 N256 1.347 . S
C254 H265 0.931 . S
C255 N253 1.375 . S
C255 C257 1.350 . S
C255 H264 0.930 . S
N256 C254 1.347 . S
N256 C257 1.373 1_655 S
C257 C255 1.350 . S
C257 N256 1.373 1_455 S
C257 H271 0.931 . S
C258 O261 1.256 . S
C258 O262 1.255 . S
O259 Co242 2.021 1_554 S
O259 C252 1.259 . S
O260 Co244 2.117 . S
O260 C252 1.258 . S
O261 Co244 2.020 . S
O261 C258 1.256 . S
O262 Co242 2.062 1_554 S
O262 C258 1.255 . S
O263 C243 1.259 . S
O263 Co244 2.021 1_655 S
H264 C255 0.930 . S
H265 C254 0.931 . S
O266 Co242 2.117 1_655 S
O266 C243 1.258 1_556 S
O267 Co242 2.020 . S
O267 C269 1.256 1_556 S
O268 Co244 2.062 . S
O268 C269 1.255 . S
C269 O267 1.256 1_554 S
C269 O268 1.255 . S
H270 C249 0.931 . S
H271 C257 0.931 . S
H272 C280 0.929 . S
H273 C282 0.930 . S
H274 C284 0.930 . S
H275 C287 0.929 . S
H276 C290 0.930 . S
H277 C292 0.960 . S
H278 C292 0.960 . S
H279 C292 0.960 . S
C280 H272 0.929 . S
C280 C281 1.377 . S
C280 C282 1.384 . S
C281 C280 1.377 . S
C281 C287 1.390 . S
C282 H273 0.930 . S
C282 C280 1.384 . S
C282 C283 1.372 . S
C283 C282 1.372 . S
C283 C284 1.400 . S
C283 C288 1.490 . S
C284 H274 0.930 . S
C284 C283 1.400 . S
C284 C287 1.386 . S
H285 C301 0.930 . S
H286 C302 0.931 . S
C287 H275 0.929 . S
C287 C281 1.390 . S
C287 C284 1.386 . S
C288 C283 1.490 . S
C288 C290 1.395 . S
C288 C291 1.403 . S
H289 C295 0.930 . S
C290 H276 0.930 . S
C290 C288 1.395 . S
C290 C293 1.403 . S
C291 C288 1.403 . S
C291 C292 1.524 . S
C291 C295 1.400 . S
C292 H277 0.960 . S
C292 H278 0.960 . S
C292 H279 0.960 . S
C292 C291 1.524 . S
C293 C290 1.403 . S
C293 C294 1.392 . S
C293 C297 1.495 . S
C294 C293 1.392 . S
C294 C295 1.385 . S
C294 C296 1.478 . S
C295 H289 0.930 . S
C295 C291 1.400 . S
C295 C294 1.385 . S
C296 C294 1.478 . S
C296 C298 1.381 . S
C296 C302 1.383 . S
C297 C293 1.495 . S
C297 H303 0.959 . S
C297 H304 0.961 . S
C297 H305 0.960 . S
C298 C296 1.381 . S
C298 C299 1.394 . S
C298 H306 0.930 . S
C299 C298 1.394 . S
C299 C300 1.383 . S
C299 H307 0.929 . S
C300 C299 1.383 . S
C300 C301 1.377 . S
C301 H285 0.930 . S
C301 C300 1.377 . S
C301 C302 1.379 . S
C302 H286 0.931 . S
C302 C296 1.383 . S
C302 C301 1.379 . S
H303 C297 0.959 . S
H304 C297 0.961 . S
H305 C297 0.960 . S
H306 C298 0.930 . S
H307 C299 0.929 . S
H308 C316 0.929 . S
H309 C318 0.930 1_545 S
H310 C320 0.930 . S
H311 C323 0.929 . S
H312 C326 0.930 . S
H313 C328 0.960 . S
H314 C328 0.960 . S
H315 C328 0.960 . S
C316 H308 0.929 . S
C316 C317 1.377 . S
C316 C318 1.384 . S
C317 C316 1.377 . S
C317 C323 1.390 . S
C318 H309 0.930 1_565 S
C318 C316 1.384 . S
C318 C319 1.372 . S
C319 C318 1.372 . S
C319 C320 1.400 . S
C319 C324 1.490 . S
C320 H310 0.930 . S
C320 C319 1.400 . S
C320 C323 1.386 . S
H321 C337 0.930 . S
H322 C338 0.931 . S
C323 H311 0.929 . S
C323 C317 1.390 . S
C323 C320 1.386 . S
C324 C319 1.490 . S
C324 C326 1.395 1_565 S
C324 C327 1.403 . S
H325 C331 0.930 . S
C326 H312 0.930 . S
C326 C324 1.395 1_545 S
C326 C329 1.403 . S
C327 C324 1.403 . S
C327 C328 1.524 . S
C327 C331 1.400 . S
C328 H313 0.960 . S
C328 H314 0.960 . S
C328 H315 0.960 . S
C328 C327 1.524 . S
C329 C326 1.403 . S
C329 C330 1.392 1_545 S
C329 C333 1.495 . S
C330 C329 1.392 1_565 S
C330 C331 1.385 . S
C330 C332 1.478 . S
C331 H325 0.930 . S
C331 C327 1.400 . S
C331 C330 1.385 . S
C332 C330 1.478 . S
C332 C334 1.381 1_565 S
C332 C338 1.383 . S
C333 C329 1.495 . S
C333 H339 0.959 . S
C333 H340 0.961 . S
C333 H341 0.960 . S
C334 C332 1.381 1_545 S
C334 C335 1.394 . S
C334 H342 0.930 . S
C335 C334 1.394 . S
C335 C336 1.383 . S
C335 H343 0.929 . S
C336 C335 1.383 . S
C336 C337 1.377 1_545 S
C337 H321 0.930 . S
C337 C336 1.377 1_565 S
C337 C338 1.379 . S
C338 H322 0.931 . S
C338 C332 1.383 . S
C338 C337 1.379 . S
H339 C333 0.959 . S
H340 C333 0.961 . S
H341 C333 0.960 . S
H342 C334 0.930 . S
H343 C335 0.929 . S
H344 C352 0.929 . S
H345 C354 0.930 . S
H346 C356 0.930 . S
H347 C359 0.929 . S
H348 C362 0.930 . S
H349 C364 0.960 . S
H350 C364 0.960 . S
H351 C364 0.960 . S
C352 H344 0.929 . S
C352 C353 1.377 . S
C352 C354 1.384 . S
C353 C352 1.377 . S
C353 C359 1.390 . S
C354 H345 0.930 . S
C354 C352 1.384 . S
C354 C355 1.372 . S
C355 C354 1.372 . S
C355 C356 1.400 . S
C355 C360 1.490 . S
C356 H346 0.930 . S
C356 C355 1.400 . S
C356 C359 1.386 . S
H357 C373 0.930 . S
H358 C374 0.931 . S
C359 H347 0.929 . S
C359 C353 1.390 . S
C359 C356 1.386 . S
C360 C355 1.490 . S
C360 C362 1.395 . S
C360 C363 1.403 . S
H361 C367 0.930 . S
C362 H348 0.930 . S
C362 C360 1.395 . S
C362 C365 1.403 . S
C363 C360 1.403 . S
C363 C364 1.524 . S
C363 C367 1.400 . S
C364 H349 0.960 . S
C364 H350 0.960 . S
C364 H351 0.960 . S
C364 C363 1.524 . S
C365 C362 1.403 . S
C365 C366 1.392 . S
C365 C369 1.495 . S
C366 C365 1.392 . S
C366 C367 1.385 . S
C366 C368 1.478 . S
C367 H361 0.930 . S
C367 C363 1.400 . S
C367 C366 1.385 . S
C368 C366 1.478 . S
C368 C370 1.381 . S
C368 C374 1.383 . S
C369 C365 1.495 . S
C369 H375 0.959 . S
C369 H376 0.961 . S
C369 H377 0.960 . S
C370 C368 1.381 . S
C370 C371 1.394 . S
C370 H378 0.930 . S
C371 C370 1.394 . S
C371 C372 1.383 . S
C371 H379 0.929 . S
C372 C371 1.383 . S
C372 C373 1.377 . S
C373 H357 0.930 . S
C373 C372 1.377 . S
C373 C374 1.379 . S
C374 H358 0.931 . S
C374 C368 1.383 . S
C374 C373 1.379 . S
H375 C369 0.959 . S
H376 C369 0.961 . S
H377 C369 0.960 . S
H378 C370 0.930 . S
H379 C371 0.929 . S
H380 C388 0.929 . S
H381 C390 0.930 . S
H382 C392 0.930 . S
H383 C395 0.929 . S
H384 C398 0.930 . S
H385 C400 0.960 . S
H386 C400 0.960 . S
H387 C400 0.960 1_655 S
C388 H380 0.929 . S
C388 C389 1.377 . S
C388 C390 1.384 . S
C389 C388 1.377 . S
C389 C395 1.390 . S
C390 H381 0.930 . S
C390 C388 1.384 . S
C390 C391 1.372 . S
C391 C390 1.372 . S
C391 C392 1.400 . S
C391 C396 1.490 . S
C392 H382 0.930 . S
C392 C391 1.400 . S
C392 C395 1.386 . S
H393 C409 0.930 . S
H394 C410 0.931 . S
C395 H383 0.929 . S
C395 C389 1.390 . S
C395 C392 1.386 . S
C396 C391 1.490 . S
C396 C398 1.395 . S
C396 C399 1.403 . S
H397 C403 0.930 . S
C398 H384 0.930 . S
C398 C396 1.395 . S
C398 C401 1.403 . S
C399 C396 1.403 . S
C399 C400 1.524 1_655 S
C399 C403 1.400 . S
C400 H385 0.960 . S
C400 H386 0.960 . S
C400 H387 0.960 1_455 S
C400 C399 1.524 1_455 S
C401 C398 1.403 . S
C401 C402 1.392 . S
C401 C405 1.495 . S
C402 C401 1.392 . S
C402 C403 1.385 . S
C402 C404 1.478 . S
C403 H397 0.930 . S
C403 C399 1.400 . S
C403 C402 1.385 . S
C404 C402 1.478 . S
C404 C406 1.381 . S
C404 C410 1.383 . S
C405 C401 1.495 . S
C405 H411 0.959 . S
C405 H412 0.961 . S
C405 H413 0.960 . S
C406 C404 1.381 . S
C406 C407 1.394 . S
C406 H414 0.930 . S
C407 C406 1.394 . S
C407 C408 1.383 . S
C407 H415 0.929 . S
C408 C407 1.383 . S
C408 C409 1.377 . S
C409 H393 0.930 . S
C409 C408 1.377 . S
C409 C410 1.379 . S
C410 H394 0.931 . S
C410 C404 1.383 . S
C410 C409 1.379 . S
H411 C405 0.959 . S
H412 C405 0.961 . S
H413 C405 0.960 . S
H414 C406 0.930 . S
H415 C407 0.929 . S
H416 C424 0.929 . S
H417 C426 0.930 . S
H418 C428 0.930 . S
H419 C431 0.929 . S
H420 C434 0.930 . S
H421 C436 0.960 . S
H422 C436 0.960 . S
H423 C436 0.960 . S
C424 H416 0.929 . S
C424 C425 1.377 . S
C424 C426 1.384 . S
C425 C424 1.377 . S
C425 C431 1.390 . S
C426 H417 0.930 . S
C426 C424 1.384 . S
C426 C427 1.372 . S
C427 C426 1.372 . S
C427 C428 1.400 . S
C427 C432 1.490 . S
C428 H418 0.930 . S
C428 C427 1.400 . S
C428 C431 1.386 . S
H429 C445 0.930 . S
H430 C446 0.931 . S
C431 H419 0.929 . S
C431 C425 1.390 . S
C431 C428 1.386 . S
C432 C427 1.490 . S
C432 C434 1.395 . S
C432 C435 1.403 . S
H433 C439 0.930 . S
C434 H420 0.930 . S
C434 C432 1.395 . S
C434 C437 1.403 . S
C435 C432 1.403 . S
C435 C436 1.524 . S
C435 C439 1.400 . S
C436 H421 0.960 . S
C436 H422 0.960 . S
C436 H423 0.960 . S
C436 C435 1.524 . S
C437 C434 1.403 . S
C437 C438 1.392 . S
C437 C441 1.495 . S
C438 C437 1.392 . S
C438 C439 1.385 . S
C438 C440 1.478 . S
C439 H433 0.930 . S
C439 C435 1.400 . S
C439 C438 1.385 . S
C440 C438 1.478 . S
C440 C442 1.381 . S
C440 C446 1.383 . S
C441 C437 1.495 . S
C441 H447 0.959 . S
C441 H448 0.961 . S
C441 H449 0.960 . S
C442 C440 1.381 . S
C442 C443 1.394 . S
C442 H450 0.930 . S
C443 C442 1.394 . S
C443 C444 1.383 . S
C443 H451 0.929 . S
C444 C443 1.383 . S
C444 C445 1.377 . S
C445 H429 0.930 . S
C445 C444 1.377 . S
C445 C446 1.379 . S
C446 H430 0.931 . S
C446 C440 1.383 . S
C446 C445 1.379 . S
H447 C441 0.959 . S
H448 C441 0.961 . S
H449 C441 0.960 . S
H450 C442 0.930 . S
H451 C443 0.929 . S
H452 C460 0.936 . S
H453 C462 0.930 . S
H454 C464 0.930 . S
H455 C467 0.929 . S
H456 C470 0.930 . S
H457 C472 0.960 . S
H458 C472 0.960 . S
H459 C472 0.960 . S
C460 H452 0.936 . S
C460 C461 1.366 1_545 S
C460 C462 1.389 . S
C461 C460 1.366 1_565 S
C461 C467 1.390 . S
C462 H453 0.930 . S
C462 C460 1.389 . S
C462 C463 1.372 1_545 S
C463 C462 1.372 1_565 S
C463 C464 1.400 . S
C463 C468 1.490 . S
C464 H454 0.930 . S
C464 C463 1.400 . S
C464 C467 1.386 . S
H465 C481 0.930 1_565 S
H466 C482 0.958 . S
C467 H455 0.929 . S
C467 C461 1.390 . S
C467 C464 1.386 . S
C468 C463 1.490 . S
C468 C470 1.395 1_565 S
C468 C471 1.403 . S
H469 C475 0.930 . S
C470 H456 0.930 . S
C470 C468 1.395 1_545 S
C470 C473 1.403 . S
C471 C468 1.403 . S
C471 C472 1.524 . S
C471 C475 1.400 . S
C472 H457 0.960 . S
C472 H458 0.960 . S
C472 H459 0.960 . S
C472 C471 1.524 . S
C473 C470 1.403 . S
C473 C474 1.392 . S
C473 C477 1.495 . S
C474 C473 1.392 . S
C474 C475 1.385 1_545 S
C474 C476 1.478 . S
C475 H469 0.930 . S
C475 C471 1.400 . S
C475 C474 1.385 1_565 S
C476 C474 1.478 . S
C476 C478 1.381 . S
C476 C482 1.367 1_545 S
C477 C473 1.495 . S
C477 H483 0.959 . S
C477 H484 0.961 . S
C477 H485 0.960 . S
C478 C476 1.381 . S
C478 C479 1.394 . S
C478 H486 0.930 . S
C479 C478 1.394 . S
C479 C480 1.383 . S
C479 H487 0.929 . S
C480 C479 1.383 . S
C480 C481 1.377 . S
C481 H465 0.930 1_545 S
C481 C480 1.377 . S
C481 C482 1.369 1_545 S
C482 H466 0.958 . S
C482 C476 1.367 1_565 S
C482 C481 1.369 1_565 S
H483 C477 0.959 . S
H484 C477 0.961 . S
H485 C477 0.960 . S
H486 C478 0.930 . S
H487 C479 0.929 . S
H488 C496 0.929 . S
H489 C498 0.930 . S
H490 C500 0.930 . S
H491 C503 0.929 . S
H492 C506 0.930 1_554 S
H493 C508 0.960 . S
H494 C508 0.960 . S
H495 C508 0.960 . S
C496 H488 0.929 . S
C496 C497 1.377 . S
C496 C498 1.384 . S
C497 C496 1.377 . S
C497 C503 1.390 . S
C498 H489 0.930 . S
C498 C496 1.384 . S
C498 C499 1.372 . S
C499 C498 1.372 . S
C499 C500 1.400 . S
C499 C504 1.490 . S
C500 H490 0.930 . S
C500 C499 1.400 . S
C500 C503 1.386 . S
H501 C517 0.930 . S
H502 C518 0.931 . S
C503 H491 0.929 . S
C503 C497 1.390 . S
C503 C500 1.386 . S
C504 C499 1.490 . S
C504 C506 1.395 . S
C504 C507 1.403 . S
H505 C511 0.930 . S
C506 H492 0.930 1_556 S
C506 C504 1.395 . S
C506 C509 1.403 1_556 S
C507 C504 1.403 . S
C507 C508 1.524 . S
C507 C511 1.400 . S
C508 H493 0.960 . S
C508 H494 0.960 . S
C508 H495 0.960 . S
C508 C507 1.524 . S
C509 C506 1.403 1_554 S
C509 C510 1.392 1_554 S
C509 C513 1.495 . S
C510 C509 1.392 1_556 S
C510 C511 1.385 . S
C510 C512 1.478 . S
C511 H505 0.930 . S
C511 C507 1.400 . S
C511 C510 1.385 . S
C512 C510 1.478 . S
C512 C514 1.381 1_556 S
C512 C518 1.383 . S
C513 C509 1.495 . S
C513 H519 0.959 . S
C513 H520 0.961 . S
C513 H521 0.960 . S
C514 C512 1.381 1_554 S
C514 C515 1.394 . S
C514 H522 0.930 . S
C515 C514 1.394 . S
C515 C516 1.383 . S
C515 H523 0.929 . S
C516 C515 1.383 . S
C516 C517 1.377 1_554 S
C517 H501 0.930 . S
C517 C516 1.377 1_556 S
C517 C518 1.379 . S
C518 H502 0.931 . S
C518 C512 1.383 . S
C518 C517 1.379 . S
H519 C513 0.959 . S
H520 C513 0.961 . S
H521 C513 0.960 . S
H522 C514 0.930 . S
H523 C515 0.929 . S
H524 C532 0.929 . S
H525 C534 0.930 . S
H526 C536 0.930 . S
H527 C539 0.929 . S
H528 C542 0.930 . S
H529 C544 0.960 . S
H530 C544 0.960 . S
H531 C544 0.960 . S
C532 H524 0.929 . S
C532 C533 1.377 . S
C532 C534 1.384 . S
C533 C532 1.377 . S
C533 C539 1.390 . S
C534 H525 0.930 . S
C534 C532 1.384 . S
C534 C535 1.372 . S
C535 C534 1.372 . S
C535 C536 1.400 . S
C535 C540 1.490 . S
C536 H526 0.930 . S
C536 C535 1.400 . S
C536 C539 1.386 . S
H537 C553 0.930 . S
H538 C554 0.931 . S
C539 H527 0.929 . S
C539 C533 1.390 . S
C539 C536 1.386 . S
C540 C535 1.490 . S
C540 C542 1.395 . S
C540 C543 1.403 . S
H541 C547 0.930 . S
C542 H528 0.930 . S
C542 C540 1.395 . S
C542 C545 1.403 . S
C543 C540 1.403 . S
C543 C544 1.524 . S
C543 C547 1.400 . S
C544 H529 0.960 . S
C544 H530 0.960 . S
C544 H531 0.960 . S
C544 C543 1.524 . S
C545 C542 1.403 . S
C545 C546 1.392 . S
C545 C549 1.495 . S
C546 C545 1.392 . S
C546 C547 1.385 . S
C546 C548 1.478 . S
C547 H541 0.930 . S
C547 C543 1.400 . S
C547 C546 1.385 . S
C548 C546 1.478 . S
C548 C550 1.381 . S
C548 C554 1.383 . S
C549 C545 1.495 . S
C549 H555 0.959 . S
C549 H556 0.961 . S
C549 H557 0.960 . S
C550 C548 1.381 . S
C550 C551 1.394 . S
C550 H558 0.930 . S
C551 C550 1.394 . S
C551 C552 1.383 . S
C551 H559 0.929 . S
C552 C551 1.383 . S
C552 C553 1.377 . S
C553 H537 0.930 . S
C553 C552 1.377 . S
C553 C554 1.379 . S
C554 H538 0.931 . S
C554 C548 1.383 . S
C554 C553 1.379 . S
H555 C549 0.959 . S
H556 C549 0.961 . S
H557 C549 0.960 . S
H558 C550 0.930 . S
H559 C551 0.929 . S
H560 C568 0.929 . S
H561 C570 0.930 . S
H562 C572 0.930 . S
H563 C575 0.929 . S
H564 C578 0.930 . S
H565 C580 0.960 . S
H566 C580 0.960 . S
H567 C580 0.960 . S
C568 H560 0.929 . S
C568 C569 1.377 . S
C568 C570 1.384 . S
C569 C568 1.377 . S
C569 C575 1.390 . S
C570 H561 0.930 . S
C570 C568 1.384 . S
C570 C571 1.372 . S
C571 C570 1.372 . S
C571 C572 1.400 . S
C571 C576 1.490 . S
C572 H562 0.930 . S
C572 C571 1.400 . S
C572 C575 1.386 . S
H573 C589 0.930 . S
H574 C590 0.931 . S
C575 H563 0.929 . S
C575 C569 1.390 . S
C575 C572 1.386 . S
C576 C571 1.490 . S
C576 C578 1.395 . S
C576 C579 1.403 . S
H577 C583 0.930 . S
C578 H564 0.930 . S
C578 C576 1.395 . S
C578 C581 1.403 . S
C579 C576 1.403 . S
C579 C580 1.524 . S
C579 C583 1.400 . S
C580 H565 0.960 . S
C580 H566 0.960 . S
C580 H567 0.960 . S
C580 C579 1.524 . S
C581 C578 1.403 . S
C581 C582 1.392 . S
C581 C585 1.495 . S
C582 C581 1.392 . S
C582 C583 1.385 . S
C582 C584 1.478 . S
C583 H577 0.930 . S
C583 C579 1.400 . S
C583 C582 1.385 . S
C584 C582 1.478 . S
C584 C586 1.381 . S
C584 C590 1.383 . S
C585 C581 1.495 . S
C585 H591 0.959 1_455 S
C585 H592 0.961 . S
C585 H593 0.960 . S
C586 C584 1.381 . S
C586 C587 1.394 . S
C586 H594 0.930 . S
C587 C586 1.394 . S
C587 C588 1.383 . S
C587 H595 0.929 . S
C588 C587 1.383 . S
C588 C589 1.377 . S
C589 H573 0.930 . S
C589 C588 1.377 . S
C589 C590 1.379 . S
C590 H574 0.931 . S
C590 C584 1.383 . S
C590 C589 1.379 . S
H591 C585 0.959 1_655 S
H592 C585 0.961 . S
H593 C585 0.960 . S
H594 C586 0.930 . S
H595 C587 0.929 . S
H596 C604 0.929 . S
H597 C606 0.930 1_554 S
H598 C608 0.930 . S
H599 C611 0.929 . S
H600 C614 0.930 . S
H601 C616 0.960 . S
H602 C616 0.960 . S
H603 C616 0.960 1_556 S
C604 H596 0.929 . S
C604 C605 1.377 . S
C604 C606 1.384 . S
C605 C604 1.377 . S
C605 C611 1.390 . S
C606 H597 0.930 1_556 S
C606 C604 1.384 . S
C606 C607 1.372 . S
C607 C606 1.372 . S
C607 C608 1.400 . S
C607 C612 1.490 . S
C608 H598 0.930 . S
C608 C607 1.400 . S
C608 C611 1.386 . S
H609 C625 0.930 . S
H610 C626 0.931 1_556 S
C611 H599 0.929 . S
C611 C605 1.390 . S
C611 C608 1.386 . S
C612 C607 1.490 . S
C612 C614 1.395 . S
C612 C615 1.403 1_556 S
H613 C619 0.930 . S
C614 H600 0.930 . S
C614 C612 1.395 . S
C614 C617 1.403 . S
C615 C612 1.403 1_554 S
C615 C616 1.524 . S
C615 C619 1.400 . S
C616 H601 0.960 . S
C616 H602 0.960 . S
C616 H603 0.960 1_554 S
C616 C615 1.524 . S
C617 C614 1.403 . S
C617 C618 1.392 1_556 S
C617 C621 1.495 . S
C618 C617 1.392 1_554 S
C618 C619 1.385 . S
C618 C620 1.478 . S
C619 H613 0.930 . S
C619 C615 1.400 . S
C619 C618 1.385 . S
C620 C618 1.478 . S
C620 C622 1.381 . S
C620 C626 1.383 . S
C621 C617 1.495 . S
C621 H627 0.959 . S
C621 H628 0.961 . S
C621 H629 0.960 1_556 S
C622 C620 1.381 . S
C622 C623 1.394 . S
C622 H630 0.930 . S
C623 C622 1.394 . S
C623 C624 1.383 . S
C623 H631 0.929 . S
C624 C623 1.383 . S
C624 C625 1.377 . S
C625 H609 0.930 . S
C625 C624 1.377 . S
C625 C626 1.379 . S
C626 H610 0.931 1_554 S
C626 C620 1.383 . S
C626 C625 1.379 . S
H627 C621 0.959 . S
H628 C621 0.961 . S
H629 C621 0.960 1_554 S
H630 C622 0.930 . S
H631 C623 0.929 . S
H632 C640 0.929 . S
H633 C642 0.930 . S
H634 C644 0.930 . S
H635 C647 0.929 . S
H636 C650 0.930 . S
H637 C652 0.960 . S
H638 C652 0.960 . S
H639 C652 0.960 . S
C640 H632 0.929 . S
C640 C641 1.377 . S
C640 C642 1.384 . S
C641 C640 1.377 . S
C641 C647 1.390 . S
C642 H633 0.930 . S
C642 C640 1.384 . S
C642 C643 1.372 . S
C643 C642 1.372 . S
C643 C644 1.400 . S
C643 C648 1.490 . S
C644 H634 0.930 . S
C644 C643 1.400 . S
C644 C647 1.386 . S
H645 C661 0.930 . S
H646 C662 0.931 . S
C647 H635 0.929 . S
C647 C641 1.390 . S
C647 C644 1.386 . S
C648 C643 1.490 . S
C648 C650 1.395 . S
C648 C651 1.403 . S
H649 C655 0.930 . S
C650 H636 0.930 . S
C650 C648 1.395 . S
C650 C653 1.403 . S
C651 C648 1.403 . S
C651 C652 1.524 . S
C651 C655 1.400 . S
C652 H637 0.960 . S
C652 H638 0.960 . S
C652 H639 0.960 . S
C652 C651 1.524 . S
C653 C650 1.403 . S
C653 C654 1.392 . S
C653 C657 1.495 1_655 S
C654 C653 1.392 . S
C654 C655 1.385 . S
C654 C656 1.478 . S
C655 H649 0.930 . S
C655 C651 1.400 . S
C655 C654 1.385 . S
C656 C654 1.478 . S
C656 C658 1.381 . S
C656 C662 1.383 . S
C657 C653 1.495 1_455 S
C657 H663 0.959 . S
C657 H664 0.961 . S
C657 H665 0.960 . S
C658 C656 1.381 . S
C658 C659 1.394 . S
C658 H666 0.930 . S
C659 C658 1.394 . S
C659 C660 1.383 . S
C659 H667 0.929 1_655 S
C660 C659 1.383 . S
C660 C661 1.377 . S
C661 H645 0.930 . S
C661 C660 1.377 . S
C661 C662 1.379 . S
C662 H646 0.931 . S
C662 C656 1.383 . S
C662 C661 1.379 . S
H663 C657 0.959 . S
H664 C657 0.961 . S
H665 C657 0.960 . S
H666 C658 0.930 . S
H667 C659 0.929 1_455 S
H668 C676 0.929 . S
H669 C678 0.930 . S
H670 C680 0.930 . S
H671 C683 0.929 . S
H672 C686 0.930 . S
H673 C688 0.960 . S
H674 C688 0.960 . S
H675 C688 0.960 . S
C676 H668 0.929 . S
C676 C677 1.377 . S
C676 C678 1.384 . S
C677 C676 1.377 . S
C677 C683 1.390 . S
C678 H669 0.930 . S
C678 C676 1.384 . S
C678 C679 1.372 . S
C679 C678 1.372 . S
C679 C680 1.400 . S
C679 C684 1.490 . S
C680 H670 0.930 . S
C680 C679 1.400 . S
C680 C683 1.386 . S
H681 C697 0.930 . S
H682 C698 0.931 . S
C683 H671 0.929 . S
C683 C677 1.390 . S
C683 C680 1.386 . S
C684 C679 1.490 . S
C684 C686 1.395 . S
C684 C687 1.403 . S
H685 C691 0.930 . S
C686 H672 0.930 . S
C686 C684 1.395 . S
C686 C689 1.403 . S
C687 C684 1.403 . S
C687 C688 1.524 . S
C687 C691 1.400 . S
C688 H673 0.960 . S
C688 H674 0.960 . S
C688 H675 0.960 . S
C688 C687 1.524 . S
C689 C686 1.403 . S
C689 C690 1.392 . S
C689 C693 1.495 . S
C690 C689 1.392 . S
C690 C691 1.385 . S
C690 C692 1.478 . S
C691 H685 0.930 . S
C691 C687 1.400 . S
C691 C690 1.385 . S
C692 C690 1.478 . S
C692 C694 1.381 . S
C692 C698 1.383 . S
C693 C689 1.495 . S
C693 H699 0.959 . S
C693 H700 0.961 . S
C693 H701 0.960 . S
C694 C692 1.381 . S
C694 C695 1.394 . S
C694 H702 0.930 . S
C695 C694 1.394 . S
C695 C696 1.383 . S
C695 H703 0.929 . S
C696 C695 1.383 . S
C696 C697 1.377 . S
C697 H681 0.930 . S
C697 C696 1.377 . S
C697 C698 1.379 . S
C698 H682 0.931 . S
C698 C692 1.383 . S
C698 C697 1.379 . S
H699 C693 0.959 . S
H700 C693 0.961 . S
H701 C693 0.960 . S
H702 C694 0.930 . S
H703 C695 0.929 . S
H704 C712 0.929 . S
H705 C714 0.930 1_545 S
H706 C716 0.930 . S
H707 C719 0.929 . S
H708 C722 0.930 . S
H709 C724 0.960 . S
H710 C724 0.960 . S
H711 C724 0.960 . S
C712 H704 0.929 . S
C712 C713 1.377 . S
C712 C714 1.384 . S
C713 C712 1.377 . S
C713 C719 1.390 . S
C714 H705 0.930 1_565 S
C714 C712 1.384 . S
C714 C715 1.372 . S
C715 C714 1.372 . S
C715 C716 1.400 . S
C715 C720 1.490 . S
C716 H706 0.930 . S
C716 C715 1.400 . S
C716 C719 1.386 . S
H717 C733 0.930 . S
H718 C734 0.939 1_455 S
C719 H707 0.929 . S
C719 C713 1.390 . S
C719 C716 1.386 . S
C720 C715 1.490 . S
C720 C722 1.395 1_565 S
C720 C723 1.403 . S
H721 C727 0.930 . S
C722 H708 0.930 . S
C722 C720 1.395 1_545 S
C722 C725 1.403 . S
C723 C720 1.403 . S
C723 C724 1.524 . S
C723 C727 1.400 . S
C724 H709 0.960 . S
C724 H710 0.960 . S
C724 H711 0.960 . S
C724 C723 1.524 . S
C725 C722 1.403 . S
C725 C726 1.392 . S
C725 C729 1.495 . S
C726 C725 1.392 . S
C726 C727 1.385 1_545 S
C726 C728 1.478 . S
C727 H721 0.930 . S
C727 C723 1.400 . S
C727 C726 1.385 1_565 S
C728 C726 1.478 . S
C728 C730 1.381 . S
C728 C734 1.383 . S
C729 C725 1.495 . S
C729 H735 0.959 . S
C729 H736 0.961 . S
C729 H737 0.960 . S
C730 C728 1.381 . S
C730 C731 1.394 . S
C730 H738 0.930 . S
C731 C730 1.394 . S
C731 C732 1.383 . S
C731 H739 0.929 . S
C732 C731 1.383 . S
C732 C733 1.377 1_655 S
C733 H717 0.930 . S
C733 C732 1.377 1_455 S
C733 C734 1.379 1_455 S
C734 H718 0.939 1_655 S
C734 C728 1.383 . S
C734 C733 1.379 1_655 S
H735 C729 0.959 . S
H736 C729 0.961 . S
H737 C729 0.960 . S
H738 C730 0.930 . S
H739 C731 0.929 . S
H740 C748 0.929 . S
H741 C750 0.930 . S
H742 C752 0.930 . S
H743 C755 0.929 . S
H744 C758 0.930 . S
H745 C760 0.960 . S
H746 C760 0.960 . S
H747 C760 0.960 . S
C748 H740 0.929 . S
C748 C749 1.377 . S
C748 C750 1.384 . S
C749 C748 1.377 . S
C749 C755 1.390 . S
C750 H741 0.930 . S
C750 C748 1.384 . S
C750 C751 1.372 . S
C751 C750 1.372 . S
C751 C752 1.400 . S
C751 C756 1.490 . S
C752 H742 0.930 . S
C752 C751 1.400 . S
C752 C755 1.386 . S
H753 C769 0.930 . S
H754 C770 0.931 . S
C755 H743 0.929 . S
C755 C749 1.390 . S
C755 C752 1.386 . S
C756 C751 1.490 . S
C756 C758 1.395 . S
C756 C759 1.403 . S
H757 C763 0.930 . S
C758 H744 0.930 . S
C758 C756 1.395 . S
C758 C761 1.403 . S
C759 C756 1.403 . S
C759 C760 1.524 . S
C759 C763 1.400 . S
C760 H745 0.960 . S
C760 H746 0.960 . S
C760 H747 0.960 . S
C760 C759 1.524 . S
C761 C758 1.403 . S
C761 C762 1.392 . S
C761 C765 1.495 . S
C762 C761 1.392 . S
C762 C763 1.385 . S
C762 C764 1.478 . S
C763 H757 0.930 . S
C763 C759 1.400 . S
C763 C762 1.385 . S
C764 C762 1.478 . S
C764 C766 1.381 . S
C764 C770 1.383 . S
C765 C761 1.495 . S
C765 H771 0.959 . S
C765 H772 0.961 . S
C765 H773 0.960 . S
C766 C764 1.381 . S
C766 C767 1.394 . S
C766 H774 0.930 . S
C767 C766 1.394 . S
C767 C768 1.383 . S
C767 H775 0.929 . S
C768 C767 1.383 . S
C768 C769 1.377 . S
C769 H753 0.930 . S
C769 C768 1.377 . S
C769 C770 1.379 . S
C770 H754 0.931 . S
C770 C764 1.383 . S
C770 C769 1.379 . S
H771 C765 0.959 . S
H772 C765 0.961 . S
H773 C765 0.960 . S
H774 C766 0.930 . S
H775 C767 0.929 . S
H776 C784 0.929 . S
H777 C786 0.930 . S
H778 C788 0.930 . S
H779 C791 0.929 . S
H780 C794 0.930 . S
H781 C796 0.960 . S
H782 C796 0.960 . S
H783 C796 0.960 . S
C784 H776 0.929 . S
C784 C785 1.377 . S
C784 C786 1.384 . S
C785 C784 1.377 . S
C785 C791 1.390 . S
C786 H777 0.930 . S
C786 C784 1.384 . S
C786 C787 1.372 . S
C787 C786 1.372 . S
C787 C788 1.400 . S
C787 C792 1.490 . S
C788 H778 0.930 . S
C788 C787 1.400 . S
C788 C791 1.386 . S
H789 C805 0.930 . S
H790 C806 0.931 . S
C791 H779 0.929 . S
C791 C785 1.390 . S
C791 C788 1.386 . S
C792 C787 1.490 . S
C792 C794 1.395 . S
C792 C795 1.403 . S
H793 C799 0.930 . S
C794 H780 0.930 . S
C794 C792 1.395 . S
C794 C797 1.403 . S
C795 C792 1.403 . S
C795 C796 1.524 . S
C795 C799 1.400 . S
C796 H781 0.960 . S
C796 H782 0.960 . S
C796 H783 0.960 . S
C796 C795 1.524 . S
C797 C794 1.403 . S
C797 C798 1.392 . S
C797 C801 1.495 . S
C798 C797 1.392 . S
C798 C799 1.385 . S
C798 C800 1.478 . S
C799 H793 0.930 . S
C799 C795 1.400 . S
C799 C798 1.385 . S
C800 C798 1.478 . S
C800 C802 1.381 . S
C800 C806 1.383 . S
C801 C797 1.495 . S
C801 H807 0.959 . S
C801 H808 0.961 . S
C801 H809 0.960 . S
C802 C800 1.381 . S
C802 C803 1.394 . S
C802 H810 0.930 . S
C803 C802 1.394 . S
C803 C804 1.383 . S
C803 H811 0.929 . S
C804 C803 1.383 . S
C804 C805 1.377 . S
C805 H789 0.930 . S
C805 C804 1.377 . S
C805 C806 1.379 . S
C806 H790 0.931 . S
C806 C800 1.383 . S
C806 C805 1.379 . S
H807 C801 0.959 . S
H808 C801 0.961 . S
H809 C801 0.960 . S
H810 C802 0.930 . S
H811 C803 0.929 . S
H812 C820 0.929 . S
H813 C822 0.930 . S
H814 C824 0.930 . S
H815 C827 0.929 . S
H816 C830 0.930 . S
H817 C832 0.960 . S
H818 C832 0.960 . S
H819 C832 0.960 . S
C820 H812 0.929 . S
C820 C821 1.377 . S
C820 C822 1.384 . S
C821 C820 1.377 . S
C821 C827 1.390 . S
C822 H813 0.930 . S
C822 C820 1.384 . S
C822 C823 1.372 . S
C823 C822 1.372 . S
C823 C824 1.400 . S
C823 C828 1.490 . S
C824 H814 0.930 . S
C824 C823 1.400 . S
C824 C827 1.386 . S
H825 C841 0.930 . S
H826 C842 0.931 . S
C827 H815 0.929 . S
C827 C821 1.390 . S
C827 C824 1.386 . S
C828 C823 1.490 . S
C828 C830 1.395 . S
C828 C831 1.403 . S
H829 C835 0.930 . S
C830 H816 0.930 . S
C830 C828 1.395 . S
C830 C833 1.403 . S
C831 C828 1.403 . S
C831 C832 1.524 . S
C831 C835 1.400 . S
C832 H817 0.960 . S
C832 H818 0.960 . S
C832 H819 0.960 . S
C832 C831 1.524 . S
C833 C830 1.403 . S
C833 C834 1.392 . S
C833 C837 1.495 . S
C834 C833 1.392 . S
C834 C835 1.385 . S
C834 C836 1.478 . S
C835 H829 0.930 . S
C835 C831 1.400 . S
C835 C834 1.385 . S
C836 C834 1.478 . S
C836 C838 1.381 . S
C836 C842 1.383 . S
C837 C833 1.495 . S
C837 H843 0.959 . S
C837 H844 0.961 . S
C837 H845 0.960 . S
C838 C836 1.381 . S
C838 C839 1.394 . S
C838 H846 0.930 . S
C839 C838 1.394 . S
C839 C840 1.383 . S
C839 H847 0.929 . S
C840 C839 1.383 . S
C840 C841 1.377 . S
C841 H825 0.930 . S
C841 C840 1.377 . S
C841 C842 1.379 . S
C842 H826 0.931 . S
C842 C836 1.383 . S
C842 C841 1.379 . S
H843 C837 0.959 . S
H844 C837 0.961 . S
H845 C837 0.960 . S
H846 C838 0.930 . S
H847 C839 0.929 . S
H848 C856 0.929 . S
H849 C858 0.930 . S
H850 C860 0.930 . S
H851 C863 0.929 . S
H852 C866 0.930 . S
H853 C868 0.960 . S
H854 C868 0.960 . S
H855 C868 0.960 . S
C856 H848 0.929 . S
C856 C857 1.377 . S
C856 C858 1.384 . S
C857 C856 1.377 . S
C857 C863 1.390 1_565 S
C858 H849 0.930 . S
C858 C856 1.384 . S
C858 C859 1.372 . S
C859 C858 1.372 . S
C859 C860 1.400 1_565 S
C859 C864 1.500 . S
C860 H850 0.930 . S
C860 C859 1.400 1_545 S
C860 C863 1.386 . S
H861 C877 0.930 . S
H862 C878 0.931 . S
C863 H851 0.929 . S
C863 C857 1.390 1_545 S
C863 C860 1.386 . S
C864 C859 1.500 . S
C864 C866 1.410 1_556 S
C864 C867 1.379 1_565 S
H865 C871 0.930 . S
C866 H852 0.930 . S
C866 C864 1.410 1_554 S
C866 C869 1.403 . S
C867 C864 1.379 1_545 S
C867 C868 1.524 . S
C867 C871 1.400 . S
C868 H853 0.960 . S
C868 H854 0.960 . S
C868 H855 0.960 . S
C868 C867 1.524 . S
C869 C866 1.403 . S
C869 C870 1.392 1_565 S
C869 C873 1.495 . S
C870 C869 1.392 1_545 S
C870 C871 1.385 1_554 S
C870 C872 1.478 . S
C871 H865 0.930 . S
C871 C867 1.400 . S
C871 C870 1.385 1_556 S
C872 C870 1.478 . S
C872 C874 1.381 1_545 S
C872 C878 1.383 . S
C873 C869 1.495 . S
C873 H879 0.959 . S
C873 H880 0.961 . S
C873 H881 0.960 . S
C874 C872 1.381 1_565 S
C874 C875 1.388 1_565 S
C874 H882 0.930 . S
C875 C874 1.388 1_545 S
C875 C876 1.395 . S
C875 H883 0.924 1_545 S
C876 C875 1.395 . S
C876 C877 1.377 . S
C877 H861 0.930 . S
C877 C876 1.377 . S
C877 C878 1.379 . S
C878 H862 0.931 . S
C878 C872 1.383 . S
C878 C877 1.379 . S
H879 C873 0.959 . S
H880 C873 0.961 . S
H881 C873 0.960 . S
H882 C874 0.930 . S
H883 C875 0.924 1_565 S
H884 C892 0.929 . S
H885 C894 0.930 . S
H886 C896 0.930 . S
H887 C899 0.929 . S
H888 C902 0.930 . S
H889 C904 0.960 . S
H890 C904 0.960 . S
H891 C904 0.960 . S
C892 H884 0.929 . S
C892 C893 1.377 . S
C892 C894 1.384 . S
C893 C892 1.377 . S
C893 C899 1.390 . S
C894 H885 0.930 . S
C894 C892 1.384 . S
C894 C895 1.372 . S
C895 C894 1.372 . S
C895 C896 1.400 . S
C895 C900 1.490 . S
C896 H886 0.930 . S
C896 C895 1.400 . S
C896 C899 1.386 . S
H897 C913 0.930 . S
H898 C914 0.931 . S
C899 H887 0.929 . S
C899 C893 1.390 . S
C899 C896 1.386 . S
C900 C895 1.490 . S
C900 C902 1.395 . S
C900 C903 1.403 . S
H901 C907 0.930 . S
C902 H888 0.930 . S
C902 C900 1.395 . S
C902 C905 1.403 . S
C903 C900 1.403 . S
C903 C904 1.524 . S
C903 C907 1.400 . S
C904 H889 0.960 . S
C904 H890 0.960 . S
C904 H891 0.960 . S
C904 C903 1.524 . S
C905 C902 1.403 . S
C905 C906 1.392 . S
C905 C909 1.495 . S
C906 C905 1.392 . S
C906 C907 1.385 . S
C906 C908 1.478 . S
C907 H901 0.930 . S
C907 C903 1.400 . S
C907 C906 1.385 . S
C908 C906 1.478 . S
C908 C910 1.381 . S
C908 C914 1.383 . S
C909 C905 1.495 . S
C909 H915 0.959 . S
C909 H916 0.961 . S
C909 H917 0.960 . S
C910 C908 1.381 . S
C910 C911 1.394 . S
C910 H918 0.930 . S
C911 C910 1.394 . S
C911 C912 1.383 . S
C911 H919 0.929 . S
C912 C911 1.383 . S
C912 C913 1.377 . S
C913 H897 0.930 . S
C913 C912 1.377 . S
C913 C914 1.379 . S
C914 H898 0.931 . S
C914 C908 1.383 . S
C914 C913 1.379 . S
H915 C909 0.959 . S
H916 C909 0.961 . S
H917 C909 0.960 . S
H918 C910 0.930 . S
H919 C911 0.929 . S
H920 C928 0.929 . S
H921 C930 0.930 . S
H922 C932 0.930 . S
H923 C935 0.929 . S
H924 C938 0.930 . S
H925 C940 0.960 . S
H926 C940 0.960 . S
H927 C940 0.960 . S
C928 H920 0.929 . S
C928 C929 1.377 . S
C928 C930 1.384 . S
C929 C928 1.377 . S
C929 C935 1.390 . S
C930 H921 0.930 . S
C930 C928 1.384 . S
C930 C931 1.372 . S
C931 C930 1.372 . S
C931 C932 1.400 . S
C931 C936 1.490 . S
C932 H922 0.930 . S
C932 C931 1.400 . S
C932 C935 1.386 . S
H933 C949 0.930 . S
H934 C950 0.931 . S
C935 H923 0.929 . S
C935 C929 1.390 . S
C935 C932 1.386 . S
C936 C931 1.490 . S
C936 C938 1.395 . S
C936 C939 1.403 . S
H937 C943 0.930 . S
C938 H924 0.930 . S
C938 C936 1.395 . S
C938 C941 1.403 . S
C939 C936 1.403 . S
C939 C940 1.524 . S
C939 C943 1.400 . S
C940 H925 0.960 . S
C940 H926 0.960 . S
C940 H927 0.960 . S
C940 C939 1.524 . S
C941 C938 1.403 . S
C941 C942 1.392 . S
C941 C945 1.495 . S
C942 C941 1.392 . S
C942 C943 1.385 . S
C942 C944 1.478 . S
C943 H937 0.930 . S
C943 C939 1.400 . S
C943 C942 1.385 . S
C944 C942 1.478 . S
C944 C946 1.381 . S
C944 C950 1.383 . S
C945 C941 1.495 . S
C945 H951 0.959 . S
C945 H952 0.961 . S
C945 H953 0.960 . S
C946 C944 1.381 . S
C946 C947 1.394 . S
C946 H954 0.930 . S
C947 C946 1.394 . S
C947 C948 1.383 . S
C947 H955 0.929 . S
C948 C947 1.383 . S
C948 C949 1.377 . S
C949 H933 0.930 . S
C949 C948 1.377 . S
C949 C950 1.379 . S
C950 H934 0.931 . S
C950 C944 1.383 . S
C950 C949 1.379 . S
H951 C945 0.959 . S
H952 C945 0.961 . S
H953 C945 0.960 . S
H954 C946 0.930 . S
H955 C947 0.929 . S
H956 C964 0.929 . S
H957 C966 0.930 . S
H958 C968 0.930 . S
H959 C971 0.929 . S
H960 C974 0.930 . S
H961 C976 0.960 . S
H962 C976 0.960 . S
H963 C976 0.960 . S
C964 H956 0.929 . S
C964 C965 1.377 . S
C964 C966 1.384 . S
C965 C964 1.377 . S
C965 C971 1.390 . S
C966 H957 0.930 . S
C966 C964 1.384 . S
C966 C967 1.372 . S
C967 C966 1.372 . S
C967 C968 1.400 . S
C967 C972 1.490 . S
C968 H958 0.930 . S
C968 C967 1.400 . S
C968 C971 1.386 . S
H969 C985 0.930 . S
H970 C986 0.931 . S
C971 H959 0.929 . S
C971 C965 1.390 . S
C971 C968 1.386 . S
C972 C967 1.490 . S
C972 C974 1.395 . S
C972 C975 1.403 . S
H973 C979 0.930 . S
C974 H960 0.930 . S
C974 C972 1.395 . S
C974 C977 1.403 . S
C975 C972 1.403 . S
C975 C976 1.524 . S
C975 C979 1.400 . S
C976 H961 0.960 . S
C976 H962 0.960 . S
C976 H963 0.960 . S
C976 C975 1.524 . S
C977 C974 1.403 . S
C977 C978 1.392 . S
C977 C981 1.495 . S
C978 C977 1.392 . S
C978 C979 1.385 . S
C978 C980 1.478 . S
C979 H973 0.930 . S
C979 C975 1.400 . S
C979 C978 1.385 . S
C980 C978 1.478 . S
C980 C982 1.381 . S
C980 C986 1.383 . S
C981 C977 1.495 . S
C981 H987 0.959 . S
C981 H988 0.961 . S
C981 H989 0.960 . S
C982 C980 1.381 . S
C982 C983 1.394 . S
C982 H990 0.930 . S
C983 C982 1.394 . S
C983 C984 1.383 . S
C983 H991 0.929 . S
C984 C983 1.383 . S
C984 C985 1.377 . S
C985 H969 0.930 . S
C985 C984 1.377 . S
C985 C986 1.379 . S
C986 H970 0.931 . S
C986 C980 1.383 . S
C986 C985 1.379 . S
H987 C981 0.959 . S
H988 C981 0.961 . S
H989 C981 0.960 . S
H990 C982 0.930 . S
H991 C983 0.929 . S
H992 C1000 0.929 . S
H993 C1002 0.930 . S
H994 C1004 0.930 . S
H995 C1007 0.929 . S
H996 C1010 0.930 . S
H997 C1012 0.960 . S
H998 C1012 0.960 . S
H999 C1012 0.960 . S
C1000 H992 0.929 . S
C1000 C1001 1.377 . S
C1000 C1002 1.384 . S
C1001 C1000 1.377 . S
C1001 C1007 1.390 . S
C1002 H993 0.930 . S
C1002 C1000 1.384 . S
C1002 C1003 1.372 . S
C1003 C1002 1.372 . S
C1003 C1004 1.400 . S
C1003 C1008 1.490 . S
C1004 H994 0.930 . S
C1004 C1003 1.400 . S
C1004 C1007 1.386 . S
H1005 C1021 0.930 . S
H1006 C1022 0.931 . S
C1007 H995 0.929 . S
C1007 C1001 1.390 . S
C1007 C1004 1.386 . S
C1008 C1003 1.490 . S
C1008 C1010 1.395 . S
C1008 C1011 1.403 . S
H1009 C1015 0.930 1_455 S
C1010 H996 0.930 . S
C1010 C1008 1.395 . S
C1010 C1013 1.403 . S
C1011 C1008 1.403 . S
C1011 C1012 1.524 1_655 S
C1011 C1015 1.400 . S
C1012 H997 0.960 . S
C1012 H998 0.960 . S
C1012 H999 0.960 . S
C1012 C1011 1.524 1_455 S
C1013 C1010 1.403 . S
C1013 C1014 1.392 . S
C1013 C1017 1.495 . S
C1014 C1013 1.392 . S
C1014 C1015 1.385 . S
C1014 C1016 1.478 . S
C1015 H1009 0.930 1_655 S
C1015 C1011 1.400 . S
C1015 C1014 1.385 . S
C1016 C1014 1.478 . S
C1016 C1018 1.381 1_556 S
C1016 C1022 1.383 . S
C1017 C1013 1.495 . S
C1017 H1023 0.959 . S
C1017 H1024 0.961 . S
C1017 H1025 0.960 . S
C1018 C1016 1.381 1_554 S
C1018 C1019 1.394 . S
C1018 H1026 0.930 . S
C1019 C1018 1.394 . S
C1019 C1020 1.383 1_654 S
C1019 H1027 0.929 . S
C1020 C1019 1.383 1_456 S
C1020 C1021 1.377 . S
C1021 H1005 0.930 . S
C1021 C1020 1.377 . S
C1021 C1022 1.379 1_455 S
C1022 H1006 0.931 . S
C1022 C1016 1.383 . S
C1022 C1021 1.379 1_655 S
H1023 C1017 0.959 . S
H1024 C1017 0.961 . S
H1025 C1017 0.960 . S
H1026 C1018 0.930 . S
H1027 C1019 0.929 . S
H1028 C1036 0.929 . S
H1029 C1038 0.930 . S
H1030 C1040 0.930 . S
H1031 C1043 0.929 . S
H1032 C1046 0.930 . S
H1033 C1048 0.960 . S
H1034 C1048 0.960 . S
H1035 C1048 0.960 . S
C1036 H1028 0.929 . S
C1036 C1037 1.377 . S
C1036 C1038 1.384 . S
C1037 C1036 1.377 . S
C1037 C1043 1.390 . S
C1038 H1029 0.930 . S
C1038 C1036 1.384 . S
C1038 C1039 1.372 . S
C1039 C1038 1.372 . S
C1039 C1040 1.400 . S
C1039 C1044 1.490 . S
C1040 H1030 0.930 . S
C1040 C1039 1.400 . S
C1040 C1043 1.386 . S
H1041 C1057 0.930 . S
H1042 C1058 0.931 . S
C1043 H1031 0.929 . S
C1043 C1037 1.390 . S
C1043 C1040 1.386 . S
C1044 C1039 1.490 . S
C1044 C1046 1.395 . S
C1044 C1047 1.403 . S
H1045 C1051 0.930 . S
C1046 H1032 0.930 . S
C1046 C1044 1.395 . S
C1046 C1049 1.403 . S
C1047 C1044 1.403 . S
C1047 C1048 1.524 . S
C1047 C1051 1.400 . S
C1048 H1033 0.960 . S
C1048 H1034 0.960 . S
C1048 H1035 0.960 . S
C1048 C1047 1.524 . S
C1049 C1046 1.403 . S
C1049 C1050 1.392 . S
C1049 C1053 1.495 . S
C1050 C1049 1.392 . S
C1050 C1051 1.385 . S
C1050 C1052 1.478 . S
C1051 H1045 0.930 . S
C1051 C1047 1.400 . S
C1051 C1050 1.385 . S
C1052 C1050 1.478 . S
C1052 C1054 1.381 . S
C1052 C1058 1.383 . S
C1053 C1049 1.495 . S
C1053 H1059 0.959 . S
C1053 H1060 0.961 . S
C1053 H1061 0.960 . S
C1054 C1052 1.381 . S
C1054 C1055 1.394 . S
C1054 H1062 0.930 . S
C1055 C1054 1.394 . S
C1055 C1056 1.383 . S
C1055 H1063 0.929 . S
C1056 C1055 1.383 . S
C1056 C1057 1.377 . S
C1057 H1041 0.930 . S
C1057 C1056 1.377 . S
C1057 C1058 1.379 . S
C1058 H1042 0.931 . S
C1058 C1052 1.383 . S
C1058 C1057 1.379 . S
H1059 C1053 0.959 . S
H1060 C1053 0.961 . S
H1061 C1053 0.960 . S
H1062 C1054 0.930 . S
H1063 C1055 0.929 . S
H1064 C1072 0.929 . S
H1065 C1074 0.930 . S
H1066 C1076 0.930 . S
H1067 C1079 0.929 . S
H1068 C1082 0.930 . S
H1069 C1084 0.960 . S
H1070 C1084 0.960 . S
H1071 C1084 0.960 . S
C1072 H1064 0.929 . S
C1072 C1073 1.377 . S
C1072 C1074 1.384 . S
C1073 C1072 1.377 . S
C1073 C1079 1.390 . S
C1074 H1065 0.930 . S
C1074 C1072 1.384 . S
C1074 C1075 1.372 . S
C1075 C1074 1.372 . S
C1075 C1076 1.400 . S
C1075 C1080 1.490 . S
C1076 H1066 0.930 . S
C1076 C1075 1.400 . S
C1076 C1079 1.386 . S
H1077 C1093 0.930 . S
H1078 C1094 0.931 . S
C1079 H1067 0.929 . S
C1079 C1073 1.390 . S
C1079 C1076 1.386 . S
C1080 C1075 1.490 . S
C1080 C1082 1.395 . S
C1080 C1083 1.403 . S
H1081 C1087 0.930 . S
C1082 H1068 0.930 . S
C1082 C1080 1.395 . S
C1082 C1085 1.403 . S
C1083 C1080 1.403 . S
C1083 C1084 1.524 . S
C1083 C1087 1.400 . S
C1084 H1069 0.960 . S
C1084 H1070 0.960 . S
C1084 H1071 0.960 . S
C1084 C1083 1.524 . S
C1085 C1082 1.403 . S
C1085 C1086 1.392 . S
C1085 C1089 1.495 . S
C1086 C1085 1.392 . S
C1086 C1087 1.385 . S
C1086 C1088 1.478 . S
C1087 H1081 0.930 . S
C1087 C1083 1.400 . S
C1087 C1086 1.385 . S
C1088 C1086 1.478 . S
C1088 C1090 1.381 . S
C1088 C1094 1.383 . S
C1089 C1085 1.495 . S
C1089 H1095 0.959 . S
C1089 H1096 0.961 . S
C1089 H1097 0.960 . S
C1090 C1088 1.381 . S
C1090 C1091 1.394 . S
C1090 H1098 0.930 . S
C1091 C1090 1.394 . S
C1091 C1092 1.383 . S
C1091 H1099 0.929 . S
C1092 C1091 1.383 . S
C1092 C1093 1.377 . S
C1093 H1077 0.930 . S
C1093 C1092 1.377 . S
C1093 C1094 1.379 . S
C1094 H1078 0.931 . S
C1094 C1088 1.383 . S
C1094 C1093 1.379 . S
H1095 C1089 0.959 . S
H1096 C1089 0.961 . S
H1097 C1089 0.960 . S
H1098 C1090 0.930 . S
H1099 C1091 0.929 . S
H1100 C1108 0.929 . S
H1101 C1110 0.930 . S
H1102 C1112 0.930 . S
H1103 C1115 0.929 . S
H1104 C1118 0.930 . S
H1105 C1120 0.960 . S
H1106 C1120 0.960 . S
H1107 C1120 0.960 . S
C1108 H1100 0.929 . S
C1108 C1109 1.377 . S
C1108 C1110 1.384 . S
C1109 C1108 1.377 . S
C1109 C1115 1.390 . S
C1110 H1101 0.930 . S
C1110 C1108 1.384 . S
C1110 C1111 1.372 . S
C1111 C1110 1.372 . S
C1111 C1112 1.400 . S
C1111 C1116 1.490 . S
C1112 H1102 0.930 . S
C1112 C1111 1.400 . S
C1112 C1115 1.386 . S
H1113 C1129 0.930 . S
H1114 C1130 0.931 . S
C1115 H1103 0.929 . S
C1115 C1109 1.390 . S
C1115 C1112 1.386 . S
C1116 C1111 1.490 . S
C1116 C1118 1.395 . S
C1116 C1119 1.403 . S
H1117 C1123 0.930 . S
C1118 H1104 0.930 . S
C1118 C1116 1.395 . S
C1118 C1121 1.403 . S
C1119 C1116 1.403 . S
C1119 C1120 1.524 . S
C1119 C1123 1.400 . S
C1120 H1105 0.960 . S
C1120 H1106 0.960 . S
C1120 H1107 0.960 . S
C1120 C1119 1.524 . S
C1121 C1118 1.403 . S
C1121 C1122 1.392 . S
C1121 C1125 1.495 . S
C1122 C1121 1.392 . S
C1122 C1123 1.385 . S
C1122 C1124 1.478 . S
C1123 H1117 0.930 . S
C1123 C1119 1.400 . S
C1123 C1122 1.385 . S
C1124 C1122 1.478 . S
C1124 C1126 1.381 . S
C1124 C1130 1.383 . S
C1125 C1121 1.495 . S
C1125 H1131 0.959 . S
C1125 H1132 0.961 . S
C1125 H1133 0.960 . S
C1126 C1124 1.381 . S
C1126 C1127 1.394 . S
C1126 H1134 0.930 . S
C1127 C1126 1.394 . S
C1127 C1128 1.383 . S
C1127 H1135 0.929 . S
C1128 C1127 1.383 . S
C1128 C1129 1.377 . S
C1129 H1113 0.930 . S
C1129 C1128 1.377 . S
C1129 C1130 1.379 . S
C1130 H1114 0.931 . S
C1130 C1124 1.383 . S
C1130 C1129 1.379 . S
H1131 C1125 0.959 . S
H1132 C1125 0.961 . S
H1133 C1125 0.960 . S
H1134 C1126 0.930 . S
H1135 C1127 0.929 . S
C281 C6 2.453 . S
C300 C168 2.476 . S
C317 C21 1.679 . S
C336 N188 1.673 . S
C372 C222 1.239 . S
C353 C49 1.178 . S
C389 C68 0.954 . S
C408 N256 1.028 . S
C444 C209 3.217 . S
C425 C2 3.192 . S
C480 N166 0.843 . S
C461 C30 0.845 . S
C516 C243 1.591 . S
C497 C40 1.596 . S
C552 N218 0.879 . S
C533 C63 0.845 . S
C569 C11 1.634 . S
C588 C258 1.870 . S
C624 C192 1.809 . S
C605 C44 1.810 . S
C641 C59 0.942 . S
C660 C153 0.936 . S
C677 C25 1.768 . S
C696 C239 1.783 . S
C732 C179 2.725 . S
C713 C82 2.715 . S
C749 C101 1.351 . S
C768 N196 1.320 . S
C785 C125 1.674 . S
C804 C213 1.747 . S
C821 C144 0.748 . S
C840 N248 0.783 . S
C857 C87 1.863 . S
C876 C198 2.084 . S
C912 N158 1.901 . S
C893 C97 1.904 . S
C948 C252 1.654 . S
C929 C120 1.651 . S
C984 N226 0.862 . S
C965 C135 0.835 . S
C1001 C78 2.210 . S
C1020 C269 2.215 1_556 S
C1056 C183 1.217 . S
C1037 C116 1.205 . S
C1092 C162 1.578 . S
C1073 C139 1.573 . S
C1109 C106 1.371 . S
C1128 C228 1.465 . S
