# Generated by pormake.
# Topology rtl, (3,6)-cn, num edge types: 1
# Building blocks:
#     Node 0, Type 0, BuildingBlock: BETDAH_clean_linker_0, # of connection points: 3
#     Node 1, Type 0, BuildingBlock: BETDAH_clean_linker_0, # of connection points: 3
#     Node 2, Type 0, BuildingBlock: BETDAH_clean_linker_0, # of connection points: 3
#     Node 3, Type 0, BuildingBlock: BETDAH_clean_linker_0, # of connection points: 3
#     Node 4, Type 1, BuildingBlock: VOLQOD_clean_sbu_1, # of connection points: 6
#     Node 5, Type 1, BuildingBlock: VOLQOD_clean_sbu_1, # of connection points: 6
#     Edge 6, Type (0, 1), BuildingBlock: XUDNAN_clean_linker_2, # of connection points: 2
#     Edge 7, Type (0, 1), BuildingBlock: XUDNAN_clean_linker_2, # of connection points: 2
#     Edge 8, Type (0, 1), BuildingBlock: XUDNAN_clean_linker_2, # of connection points: 2
#     Edge 9, Type (0, 1), BuildingBlock: XUDNAN_clean_linker_2, # of connection points: 2
#     Edge 10, Type (0, 1), BuildingBlock: XUDNAN_clean_linker_2, # of connection points: 2
#     Edge 11, Type (0, 1), BuildingBlock: XUDNAN_clean_linker_2, # of connection points: 2
#     Edge 12, Type (0, 1), BuildingBlock: XUDNAN_clean_linker_2, # of connection points: 2
#     Edge 13, Type (0, 1), BuildingBlock: XUDNAN_clean_linker_2, # of connection points: 2
#     Edge 14, Type (0, 1), BuildingBlock: XUDNAN_clean_linker_2, # of connection points: 2
#     Edge 15, Type (0, 1), BuildingBlock: XUDNAN_clean_linker_2, # of connection points: 2
#     Edge 16, Type (0, 1), BuildingBlock: XUDNAN_clean_linker_2, # of connection points: 2
#     Edge 17, Type (0, 1), BuildingBlock: XUDNAN_clean_linker_2, # of connection points: 2
# Relax obj value: 0.041
# Max RMSD: 0.143
# Mean RMSD: 0.094
data_MOF--net-rtl--node1-VOLQOD_clean_sbu_1--node2-BETDAH_clean_linker_0--edge1-XUDNAN_clean_linker_2
_symmetry_space_group_name_H-M    P1
_symmetry_Int_Tables_number       1
_symmetry_cell_setting            triclinic
loop_
_symmetry_equiv_pos_as_xyz
'x, y, z'
_cell_length_a     37.665138
_cell_length_b     37.693868
_cell_length_c     21.795686
_cell_angle_alpha  90.981594
_cell_angle_beta   91.341068
_cell_angle_gamma 89.744171
loop_
_atom_site_label
_atom_site_type_symbol
_atom_site_fract_x
_atom_site_fract_y
_atom_site_fract_z
_atom_type_partial_charge
H0 H 0.13347 0.86175 0.96925 0.0
H1 H 0.14276 0.76926 0.08144 0.0
H2 H 0.19335 0.7716 0.90629 0.0
C3 C 0.14373 0.83523 0.97708 0.0
C4 C 0.16415 0.81878 0.93185 0.0
C5 C 0.13541 0.81764 0.03094 0.0
C6 C 0.1491 0.78344 0.0403 0.0
C7 C 0.17079 0.76708 0.99653 0.0
C8 C 0.17797 0.78463 0.94158 0.0
N9 N 0.18341 0.73231 0.00815 0.0
C10 C 0.21552 0.71892 0.98767 0.0
H11 H 0.6368 0.65977 0.56236 0.0
H12 H 0.72403 0.69121 0.45195 0.0
H13 H 0.74335 0.66095 0.63854 0.0
C14 C 0.66486 0.66505 0.558 0.0
C15 C 0.6882 0.65942 0.60816 0.0
C16 C 0.67749 0.67569 0.50113 0.0
C17 C 0.71381 0.6831 0.49559 0.0
C18 C 0.73728 0.67846 0.54584 0.0
C19 C 0.72459 0.66588 0.6012 0.0
N20 N 0.77412 0.68431 0.54046 0.0
C21 C 0.78729 0.71728 0.52551 0.0
H22 H 0.87627 0.16361 0.01754 0.0
H23 H 0.82223 0.25185 0.10283 0.0
H24 H 0.83329 0.24742 0.90691 0.0
C25 C 0.86279 0.18901 0.01399 0.0
C26 C 0.8561 0.20326 0.95599 0.0
C27 C 0.85081 0.20635 0.06728 0.0
C28 C 0.83149 0.23823 0.06201 0.0
C29 C 0.8256 0.25323 0.00395 0.0
C30 C 0.83817 0.23581 0.95151 0.0
N31 N 0.80805 0.28624 0.99654 0.0
C32 C 0.78044 0.29811 0.03277 0.0
H33 H 0.36211 0.36058 0.52336 0.0
H34 H 0.28445 0.31975 0.6451 0.0
H35 H 0.2578 0.33221 0.45423 0.0
C36 C 0.33609 0.34942 0.53065 0.0
C37 C 0.31139 0.34711 0.48147 0.0
C38 C 0.32675 0.33956 0.58993 0.0
C39 C 0.29259 0.32632 0.5993 0.0
C40 C 0.26811 0.32282 0.55038 0.0
C41 C 0.2774 0.33336 0.49143 0.0
N42 N 0.23302 0.3125 0.56284 0.0
C43 C 0.21773 0.28217 0.53708 0.0
O44 O 0.92124 0.96441 0.50657 0.0
Zn45 Zn 0.94775 0.01053 0.50751 0.0
O46 O 0.99888 0.00304 0.50391 0.0
Zn47 Zn 0.02304 0.02632 0.5744 0.0
Zn48 Zn 0.00898 0.9519 0.5027 0.0
Zn49 Zn 0.01513 0.02384 0.42859 0.0
O50 O 0.05655 0.0642 0.54569 0.0
O51 O 0.05615 0.05686 0.44439 0.0
O52 O 0.9363 0.03706 0.5841 0.0
O53 O 0.98745 0.0498 0.63203 0.0
O54 O 0.05353 0.99052 0.62006 0.0
O55 O 0.04391 0.93918 0.57057 0.0
O56 O 0.02916 0.93614 0.42128 0.0
O57 O 0.92853 0.0412 0.43936 0.0
O58 O 0.02841 0.98594 0.36798 0.0
O59 O 0.97703 0.0531 0.38823 0.0
C60 C 0.93101 0.9321 0.50988 0.0
C61 C 0.06816 0.07206 0.49315 0.0
C62 C 0.05939 0.95733 0.61315 0.0
C63 C 0.9536 0.05159 0.62849 0.0
C64 C 0.03374 0.95269 0.37165 0.0
C65 C 0.94393 0.05709 0.39645 0.0
O66 O 0.96382 0.92356 0.51142 0.0
O67 O 0.57782 0.4735 0.08178 0.0
Zn68 Zn 0.54918 0.51783 0.06711 0.0
O69 O 0.49918 0.50754 0.05129 0.0
Zn70 Zn 0.48646 0.52073 0.96683 0.0
Zn71 Zn 0.4917 0.45659 0.06247 0.0
Zn72 Zn 0.47029 0.53506 0.1089 0.0
O73 O 0.44657 0.5569 0.96515 0.0
O74 O 0.43653 0.56755 0.06368 0.0
O75 O 0.57045 0.54254 0.99644 0.0
O76 O 0.52813 0.54203 0.92382 0.0
O77 O 0.4693 0.4781 0.91821 0.0
O78 O 0.47085 0.43424 0.985 0.0
O79 O 0.45732 0.44803 0.13016 0.0
O80 O 0.55562 0.55048 0.13944 0.0
O81 O 0.44001 0.50233 0.15816 0.0
O82 O 0.5011 0.56519 0.16716 0.0
C83 C 0.56976 0.44094 0.08693 0.0
C84 C 0.42968 0.57316 0.00716 0.0
C85 C 0.46394 0.4458 0.93142 0.0
C86 C 0.55949 0.54979 0.94247 0.0
C87 C 0.43817 0.4687 0.16244 0.0
C88 C 0.53472 0.56797 0.17369 0.0
O89 O 0.53763 0.43067 0.08174 0.0
H90 H 0.18123 0.23955 0.60971 0.0
H91 H 0.21394 0.25305 0.42243 0.0
H92 H 0.18135 0.19825 0.39085 0.0
H93 H 0.18676 0.14303 0.61071 0.0
H94 H 0.14817 0.13857 0.65731 0.0
H95 H 0.17537 0.17767 0.66491 0.0
H96 H 0.12016 0.21723 0.64322 0.0
H97 H 0.09283 0.17829 0.63563 0.0
H98 H 0.09383 0.20962 0.57414 0.0
H99 H 0.143 0.14346 0.38004 0.0
H100 H 0.10166 0.09337 0.38962 0.0
H101 H 0.0945 0.11603 0.58503 0.0
C102 C 0.18167 0.23066 0.56218 0.0
C103 C 0.19991 0.24998 0.51821 0.0
C104 C 0.20001 0.23818 0.45643 0.0
C105 C 0.18167 0.20719 0.4383 0.0
C106 C 0.16365 0.18861 0.48281 0.0
C107 C 0.16358 0.1999 0.54351 0.0
C108 C 0.14132 0.17591 0.58203 0.0
C109 C 0.16428 0.15771 0.63166 0.0
C110 C 0.11019 0.19649 0.61039 0.0
C111 C 0.12845 0.14954 0.53346 0.0
C112 C 0.14173 0.15718 0.47661 0.0
C113 C 0.13263 0.13711 0.4244 0.0
C114 C 0.10909 0.10869 0.43036 0.0
C115 C 0.09483 0.10062 0.48813 0.0
C116 C 0.10507 0.12124 0.5403 0.0
H117 H 0.26267 0.69721 0.0729 0.0
H118 H 0.24275 0.70137 0.87674 0.0
H119 H 0.29839 0.6673 0.859 0.0
H120 H 0.35995 0.70432 0.06944 0.0
H121 H 0.3664 0.67392 0.1317 0.0
H122 H 0.32698 0.70111 0.12771 0.0
H123 H 0.28797 0.64474 0.13183 0.0
H124 H 0.32721 0.61742 0.13555 0.0
H125 H 0.29407 0.60956 0.07593 0.0
H126 H 0.35429 0.62917 0.86435 0.0
H127 H 0.40524 0.59048 0.89141 0.0
H128 H 0.38753 0.6117 0.08478 0.0
C129 C 0.2705 0.69143 0.02624 0.0
C130 C 0.24908 0.70195 0.97599 0.0
C131 C 0.25936 0.69363 0.91555 0.0
C132 C 0.29079 0.67436 0.90521 0.0
C133 C 0.31134 0.66386 0.95598 0.0
C134 C 0.30163 0.67228 0.01531 0.0
C135 C 0.32711 0.65644 0.0621 0.0
C136 C 0.34625 0.6857 0.09996 0.0
C137 C 0.30794 0.6305 0.10377 0.0
C138 C 0.35238 0.63716 0.02005 0.0
C139 C 0.34309 0.64192 0.95901 0.0
C140 C 0.36195 0.62555 0.912 0.0
C141 C 0.39086 0.60357 0.92786 0.0
C142 C 0.40053 0.59803 0.99026 0.0
C143 C 0.38107 0.61544 0.03665 0.0
H144 H 0.8568 0.73388 0.52238 0.0
H145 H 0.75064 0.77823 0.51044 0.0
H146 H 0.77595 0.83868 0.50337 0.0
H147 H 0.8948 0.80207 0.61649 0.0
H148 H 0.93713 0.80162 0.57959 0.0
H149 H 0.91074 0.76193 0.58015 0.0
H150 H 0.91226 0.75766 0.46142 0.0
H151 H 0.93892 0.79721 0.46054 0.0
H152 H 0.89781 0.79505 0.41663 0.0
H153 H 0.81297 0.89403 0.50238 0.0
H154 H 0.8587 0.94064 0.50394 0.0
H155 H 0.94109 0.85986 0.51655 0.0
C156 C 0.83905 0.7564 0.51734 0.0
C157 C 0.80195 0.7519 0.51627 0.0
C158 C 0.77921 0.78157 0.51065 0.0
C159 C 0.79334 0.81583 0.50679 0.0
C160 C 0.83019 0.81963 0.50863 0.0
C161 C 0.85275 0.79071 0.5134 0.0
C162 C 0.89129 0.80209 0.51586 0.0
C163 C 0.90955 0.79129 0.57664 0.0
C164 C 0.91124 0.78712 0.4603 0.0
C165 C 0.8869 0.84195 0.51239 0.0
C166 C 0.85148 0.85151 0.50816 0.0
C167 C 0.8408 0.88686 0.50533 0.0
C168 C 0.86704 0.91315 0.5064 0.0
C169 C 0.90358 0.904 0.51031 0.0
C170 C 0.91345 0.86783 0.51345 0.0
H171 H 0.76559 0.36741 0.04714 0.0
H172 H 0.72453 0.26204 0.0754 0.0
H173 H 0.66659 0.288 0.10505 0.0
H174 H 0.71509 0.41387 0.17189 0.0
H175 H 0.7084 0.45266 0.12573 0.0
H176 H 0.74787 0.42599 0.11712 0.0
H177 H 0.73348 0.41873 0.00072 0.0
H178 H 0.69389 0.445 0.00903 0.0
H179 H 0.69106 0.40092 0.97594 0.0
H180 H 0.6112 0.32513 0.11678 0.0
H181 H 0.56335 0.37016 0.11281 0.0
H182 H 0.6413 0.45137 0.07755 0.0
C183 C 0.7447 0.35003 0.0618 0.0
C184 C 0.74927 0.31296 0.06042 0.0
C185 C 0.72136 0.29062 0.07757 0.0
C186 C 0.68848 0.30514 0.0943 0.0
C187 C 0.68432 0.34196 0.09375 0.0
C188 C 0.71185 0.36413 0.07859 0.0
C189 C 0.69973 0.40242 0.07591 0.0
C190 C 0.71891 0.42507 0.12564 0.0
C191 C 0.70484 0.41763 0.01159 0.0
C192 C 0.66081 0.39826 0.0897 0.0
C193 C 0.65245 0.36329 0.1005 0.0
C194 C 0.61757 0.35269 0.10955 0.0
C195 C 0.59054 0.37845 0.10698 0.0
C196 C 0.59854 0.41438 0.09527 0.0
C197 C 0.63429 0.42429 0.08756 0.0
H198 H 0.14224 0.81926 0.15736 0.0
H199 H 0.07523 0.85592 0.00623 0.0
H200 H 0.04048 0.89203 0.07839 0.0
H201 H 0.06905 0.81505 0.26996 0.0
H202 H 0.0976 0.82953 0.33294 0.0
H203 H 0.11571 0.80419 0.27004 0.0
H204 H 0.16166 0.85383 0.25345 0.0
H205 H 0.14347 0.87951 0.31568 0.0
H206 H 0.14637 0.89855 0.24068 0.0
H207 H 0.01849 0.92999 0.16273 0.0
H208 H 0.00507 0.96266 0.25852 0.0
H209 H 0.08198 0.89829 0.35814 0.0
C210 C 0.1197 0.83417 0.13972 0.0
C211 C 0.11184 0.83523 0.07599 0.0
C212 C 0.08231 0.85537 0.05465 0.0
C213 C 0.06222 0.87577 0.0953 0.0
C214 C 0.07145 0.87519 0.1574 0.0
C215 C 0.09894 0.85441 0.17993 0.0
C216 C 0.1037 0.85959 0.24883 0.0
C217 C 0.09605 0.82503 0.28242 0.0
C218 C 0.14101 0.87372 0.26561 0.0
C219 C 0.07536 0.88738 0.26089 0.0
C220 C 0.05722 0.896 0.2073 0.0
C221 C 0.03189 0.92298 0.20531 0.0
C222 C 0.02466 0.94154 0.25971 0.0
C223 C 0.04231 0.93268 0.31539 0.0
C224 C 0.06775 0.90506 0.31617 0.0
H225 H 0.63451 0.61115 0.623 0.0
H226 H 0.71077 0.6762 0.72621 0.0
H227 H 0.68761 0.65337 0.82279 0.0
H228 H 0.56243 0.62756 0.72418 0.0
H229 H 0.54437 0.58357 0.71434 0.0
H230 H 0.56868 0.60312 0.65341 0.0
H231 H 0.61137 0.549 0.65215 0.0
H232 H 0.58726 0.5293 0.7132 0.0
H233 H 0.63439 0.53651 0.722 0.0
H234 H 0.65605 0.62336 0.90802 0.0
H235 H 0.61619 0.59119 0.97593 0.0
H236 H 0.55735 0.5502 0.81661 0.0
C237 C 0.6462 0.62108 0.66572 0.0
C238 C 0.67459 0.64558 0.66666 0.0
C239 C 0.68945 0.65702 0.72398 0.0
C240 C 0.67632 0.64438 0.77916 0.0
C241 C 0.6481 0.62059 0.7763 0.0
C242 C 0.63303 0.60931 0.72107 0.0
C243 C 0.60199 0.58479 0.73047 0.0
C244 C 0.56732 0.60072 0.70405 0.0
C245 C 0.6092 0.54771 0.70282 0.0
C246 C 0.60187 0.58407 0.7998 0.0
C247 C 0.62895 0.60454 0.82535 0.0
C248 C 0.63465 0.60738 0.88857 0.0
C249 C 0.61195 0.58895 0.9267 0.0
C250 C 0.5836 0.56837 0.90147 0.0
C251 C 0.57858 0.56599 0.83717 0.0
H252 H 0.91452 0.18135 0.10903 0.0
H253 H 0.80467 0.1943 0.16038 0.0
H254 H 0.81691 0.1598 0.25453 0.0
H255 H 0.92384 0.09354 0.15155 0.0
H256 H 0.96902 0.09758 0.17981 0.0
H257 H 0.95257 0.12673 0.12107 0.0
H258 H 0.96991 0.18155 0.18857 0.0
H259 H 0.98688 0.15255 0.24731 0.0
H260 H 0.95373 0.18544 0.2656 0.0
H261 H 0.84044 0.11835 0.33737 0.0
H262 H 0.87378 0.07717 0.40481 0.0
H263 H 0.9678 0.09204 0.29671 0.0
C264 C 0.89317 0.17738 0.14062 0.0
C265 C 0.85866 0.19034 0.12765 0.0
C266 C 0.83137 0.18481 0.16998 0.0
C267 C 0.83807 0.16513 0.22328 0.0
C268 C 0.87223 0.15165 0.23358 0.0
C269 C 0.8994 0.15801 0.19372 0.0
C270 C 0.93332 0.13937 0.21318 0.0
C271 C 0.94537 0.11273 0.16345 0.0
C272 C 0.96269 0.16634 0.22966 0.0
C273 C 0.92086 0.12067 0.26943 0.0
C274 C 0.88564 0.12815 0.28084 0.0
C275 C 0.86814 0.11266 0.32922 0.0
C276 C 0.88725 0.08917 0.36708 0.0
C277 C 0.92345 0.08137 0.35617 0.0
C278 C 0.94025 0.09749 0.30664 0.0
H279 H 0.36517 0.39959 0.61439 0.0
H280 H 0.34239 0.29573 0.68623 0.0
H281 H 0.37929 0.30981 0.77889 0.0
H282 H 0.45737 0.40603 0.67443 0.0
H283 H 0.45302 0.45282 0.6912 0.0
H284 H 0.42785 0.43296 0.6283 0.0
H285 H 0.36962 0.45711 0.67477 0.0
H286 H 0.39451 0.47685 0.73786 0.0
H287 H 0.35913 0.44631 0.75253 0.0
H288 H 0.41506 0.33717 0.86672 0.0
H289 H 0.44594 0.37572 0.94339 0.0
H290 H 0.44489 0.46151 0.81279 0.0
C291 C 0.36872 0.37941 0.6488 0.0
C292 C 0.35125 0.34642 0.64296 0.0
C293 C 0.3556 0.32117 0.68994 0.0
C294 C 0.37662 0.32886 0.74247 0.0
C295 C 0.3931 0.36188 0.74712 0.0
C296 C 0.38945 0.38669 0.70141 0.0
C297 C 0.40782 0.42108 0.71919 0.0
C298 C 0.43833 0.42865 0.67569 0.0
C299 C 0.38117 0.45215 0.72122 0.0
C300 C 0.42172 0.41208 0.78269 0.0
C301 C 0.41333 0.37771 0.79778 0.0
C302 C 0.4221 0.36401 0.85516 0.0
C303 C 0.4396 0.38615 0.89844 0.0
C304 C 0.4479 0.42169 0.8842 0.0
C305 C 0.43915 0.43447 0.82516 0.0
H306 H 0.68945 0.64201 0.39219 0.0
H307 H 0.60996 0.70272 0.48961 0.0
H308 H 0.56501 0.68629 0.40974 0.0
H309 H 0.65333 0.65909 0.23183 0.0
H310 H 0.66453 0.61459 0.20736 0.0
H311 H 0.69145 0.63699 0.26535 0.0
H312 H 0.68229 0.58439 0.33822 0.0
H313 H 0.65473 0.56221 0.28129 0.0
H314 H 0.6378 0.57144 0.35659 0.0
H315 H 0.52698 0.655 0.32908 0.0
H316 H 0.50003 0.61529 0.24949 0.0
H317 H 0.60494 0.57544 0.20559 0.0
C318 C 0.66301 0.65322 0.39515 0.0
C319 C 0.6532 0.67387 0.44666 0.0
C320 C 0.61798 0.68697 0.45023 0.0
C321 C 0.59231 0.67778 0.40512 0.0
C322 C 0.60241 0.65577 0.35649 0.0
C323 C 0.63711 0.6442 0.35065 0.0
C324 C 0.64045 0.61799 0.29773 0.0
C325 C 0.66382 0.63308 0.24759 0.0
C326 C 0.65464 0.58189 0.31982 0.0
C327 C 0.60205 0.61553 0.2763 0.0
C328 C 0.58051 0.63774 0.31021 0.0
C329 C 0.54369 0.63803 0.30139 0.0
C330 C 0.5286 0.6152 0.25639 0.0
C331 C 0.55032 0.5923 0.22107 0.0
C332 C 0.58752 0.59281 0.23125 0.0
H333 H 0.92005 0.17154 0.92979 0.0
H334 H 0.81315 0.18827 0.85716 0.0
H335 H 0.82673 0.15063 0.76688 0.0
H336 H 0.96344 0.1733 0.78207 0.0
H337 H 0.99546 0.13954 0.80231 0.0
H338 H 0.97753 0.16816 0.86105 0.0
H339 H 0.95727 0.11309 0.92029 0.0
H340 H 0.97486 0.08429 0.86151 0.0
H341 H 0.92895 0.08078 0.88207 0.0
H342 H 0.85023 0.10937 0.68839 0.0
H343 H 0.88398 0.07079 0.61912 0.0
H344 H 0.97732 0.08172 0.73904 0.0
C345 C 0.89965 0.16735 0.8946 0.0
C346 C 0.86557 0.18282 0.90012 0.0
C347 C 0.83952 0.17698 0.85327 0.0
C348 C 0.84691 0.15547 0.80215 0.0
C349 C 0.88058 0.1403 0.79837 0.0
C350 C 0.90674 0.14626 0.84275 0.0
C351 C 0.94087 0.12707 0.82661 0.0
C352 C 0.97111 0.1536 0.81746 0.0
C353 C 0.95107 0.09968 0.87554 0.0
C354 C 0.92962 0.10912 0.76648 0.0
C355 C 0.89463 0.117 0.7516 0.0
C356 C 0.87773 0.10319 0.69921 0.0
C357 C 0.89721 0.08111 0.66026 0.0
C358 C 0.93345 0.07318 0.6734 0.0
C359 C 0.94976 0.08733 0.72756 0.0
H360 H 0.36978 0.33462 0.41172 0.0
H361 H 0.27388 0.39824 0.42136 0.0
H362 H 0.2943 0.43449 0.33559 0.0
H363 H 0.42799 0.40239 0.38604 0.0
H364 H 0.45546 0.3787 0.33236 0.0
H365 H 0.43147 0.35471 0.38863 0.0
H366 H 0.40099 0.3165 0.30283 0.0
H367 H 0.42541 0.33993 0.24617 0.0
H368 H 0.37763 0.338 0.24052 0.0
H369 H 0.32961 0.46948 0.26143 0.0
H370 H 0.3735 0.49572 0.19294 0.0
H371 H 0.44481 0.40714 0.22657 0.0
C372 C 0.35267 0.35552 0.39438 0.0
C373 C 0.32017 0.36357 0.42259 0.0
C374 C 0.29858 0.39136 0.39953 0.0
C375 C 0.31008 0.4122 0.35119 0.0
C376 C 0.3429 0.40442 0.3258 0.0
C377 C 0.3635 0.37619 0.34553 0.0
C378 C 0.39834 0.37437 0.31226 0.0
C379 C 0.43018 0.37776 0.35754 0.0
C380 C 0.40072 0.34017 0.27311 0.0
C381 C 0.39472 0.40675 0.2724 0.0
C382 C 0.3626 0.4238 0.28105 0.0
C383 C 0.35448 0.45593 0.25317 0.0
C384 C 0.37965 0.47077 0.21483 0.0
C385 C 0.41231 0.45325 0.20416 0.0
C386 C 0.41977 0.42075 0.23314 0.0
H387 H 0.12952 0.80226 0.82511 0.0
H388 H 0.20083 0.87893 0.91079 0.0
H389 H 0.18756 0.92091 0.82743 0.0
H390 H 0.14368 0.82971 0.65746 0.0
H391 H 0.09731 0.82249 0.63935 0.0
H392 H 0.11988 0.79532 0.69541 0.0
H393 H 0.07213 0.8124 0.77422 0.0
H394 H 0.04999 0.84043 0.71947 0.0
H395 H 0.06455 0.85858 0.79283 0.0
H396 H 0.15598 0.95888 0.75154 0.0
H397 H 0.11379 0.98802 0.67993 0.0
H398 H 0.0629 0.88676 0.6415 0.0
C399 C 0.14402 0.82699 0.82382 0.0
C400 C 0.16698 0.83714 0.87299 0.0
C401 C 0.18403 0.87046 0.8723 0.0
C402 C 0.17641 0.8945 0.82541 0.0
C403 C 0.15183 0.88466 0.77946 0.0
C404 C 0.13649 0.85134 0.77736 0.0
C405 C 0.10747 0.84908 0.72803 0.0
C406 C 0.11771 0.82258 0.67702 0.0
C407 C 0.07143 0.83958 0.75531 0.0
C408 C 0.10753 0.88681 0.70519 0.0
C409 C 0.13355 0.9068 0.735 0.0
C410 C 0.13621 0.94327 0.72656 0.0
C411 C 0.11189 0.95966 0.68628 0.0
C412 C 0.08526 0.93961 0.65477 0.0
C413 C 0.08342 0.90264 0.664 0.0
loop_
_geom_bond_atom_site_label_1
_geom_bond_atom_site_label_2
_geom_bond_distance
_geom_bond_site_symmetry_2
_ccdc_geom_bond_type
H0 C3 0.929 . S
H1 C6 0.929 . S
H2 C8 0.930 . S
C3 H0 0.929 . S
C3 C4 1.398 1_554 S
C3 C5 1.396 . S
C4 C3 1.398 1_556 S
C4 C8 1.407 . S
C5 C3 1.396 . S
C5 C6 1.394 . S
C6 H1 0.929 . S
C6 C5 1.394 . S
C6 C7 1.382 . S
C7 C6 1.382 . S
C7 C8 1.392 1_554 S
C7 N9 1.420 1_554 S
C8 H2 0.930 . S
C8 C4 1.407 . S
C8 C7 1.392 1_556 S
N9 C7 1.420 1_556 S
N9 C10 1.244 1_556 S
C10 N9 1.244 1_554 S
H11 C14 0.929 . S
H12 C17 0.929 . S
H13 C19 0.930 . S
C14 H11 0.929 . S
C14 C15 1.398 . S
C14 C16 1.396 . S
C15 C14 1.398 . S
C15 C19 1.407 . S
C16 C14 1.396 . S
C16 C17 1.394 . S
C17 H12 0.929 . S
C17 C16 1.394 . S
C17 C18 1.382 . S
C18 C17 1.382 . S
C18 C19 1.392 . S
C18 N20 1.420 . S
C19 H13 0.930 . S
C19 C15 1.407 . S
C19 C18 1.392 . S
N20 C18 1.420 . S
N20 C21 1.244 . S
C21 N20 1.244 . S
H22 C25 0.929 . S
H23 C28 0.929 . S
H24 C30 0.930 . S
C25 H22 0.929 . S
C25 C26 1.398 1_554 S
C25 C27 1.396 . S
C26 C25 1.398 1_556 S
C26 C30 1.407 . S
C27 C25 1.396 . S
C27 C28 1.394 . S
C28 H23 0.929 . S
C28 C27 1.394 . S
C28 C29 1.382 . S
C29 C28 1.382 . S
C29 C30 1.392 1_554 S
C29 N31 1.420 1_554 S
C30 H24 0.930 . S
C30 C26 1.407 . S
C30 C29 1.392 1_556 S
N31 C29 1.420 1_556 S
N31 C32 1.244 1_556 S
C32 N31 1.244 1_554 S
H33 C36 0.929 . S
H34 C39 0.929 . S
H35 C41 0.930 . S
C36 H33 0.929 . S
C36 C37 1.398 . S
C36 C38 1.396 . S
C37 C36 1.398 . S
C37 C41 1.407 . S
C38 C36 1.396 . S
C38 C39 1.394 . S
C39 H34 0.929 . S
C39 C38 1.394 . S
C39 C40 1.382 . S
C40 C39 1.382 . S
C40 C41 1.392 . S
C40 N42 1.420 . S
C41 H35 0.930 . S
C41 C37 1.407 . S
C41 C40 1.392 . S
N42 C40 1.420 . S
N42 C43 1.244 . S
C43 N42 1.244 . S
O44 Zn45 1.953 1_565 S
O44 C60 1.225 . S
Zn45 O44 1.953 1_545 S
Zn45 O46 1.949 1_655 S
Zn45 O52 1.919 . S
Zn45 O57 1.924 . S
O46 Zn45 1.949 1_455 S
O46 Zn47 1.923 . S
O46 Zn48 1.950 1_545 S
O46 Zn49 1.945 . S
Zn47 O46 1.923 . S
Zn47 O50 1.933 . S
Zn47 O53 1.925 1_455 S
Zn47 O54 1.965 1_545 S
Zn48 O46 1.950 1_565 S
Zn48 O55 1.938 . S
Zn48 O56 1.906 . S
Zn48 O66 1.953 1_455 S
Zn49 O46 1.945 . S
Zn49 O51 1.932 . S
Zn49 O58 1.977 1_545 S
Zn49 O59 1.910 1_455 S
O50 Zn47 1.933 . S
O50 C61 1.226 . S
O51 Zn49 1.932 . S
O51 C61 1.307 . S
O52 Zn45 1.919 . S
O52 C63 1.253 . S
O53 Zn47 1.925 1_655 S
O53 C63 1.307 . S
O54 Zn47 1.965 1_565 S
O54 C62 1.303 . S
O55 Zn48 1.938 . S
O55 C62 1.247 . S
O56 Zn48 1.906 . S
O56 C64 1.304 . S
O57 Zn45 1.924 . S
O57 C65 1.311 . S
O58 Zn49 1.977 1_565 S
O58 C64 1.272 . S
O59 Zn49 1.910 1_655 S
O59 C65 1.231 . S
C60 O44 1.225 . S
C60 O66 1.298 . S
C61 O50 1.226 . S
C61 O51 1.307 . S
C62 O54 1.303 . S
C62 O55 1.247 . S
C63 O52 1.253 . S
C63 O53 1.307 . S
C64 O56 1.304 . S
C64 O58 1.272 . S
C65 O57 1.311 . S
C65 O59 1.231 . S
O66 Zn48 1.953 1_655 S
O66 C60 1.298 . S
O67 Zn68 1.953 . S
O67 C83 1.225 . S
Zn68 O67 1.953 . S
Zn68 O69 1.949 . S
Zn68 O75 1.919 1_554 S
Zn68 O80 1.924 . S
O69 Zn68 1.949 . S
O69 Zn70 1.923 1_554 S
O69 Zn71 1.950 . S
O69 Zn72 1.945 . S
Zn70 O69 1.923 1_556 S
Zn70 O73 1.933 . S
Zn70 O76 1.941 . S
Zn70 O77 1.965 . S
Zn71 O69 1.950 . S
Zn71 O78 1.938 1_554 S
Zn71 O79 1.906 . S
Zn71 O89 1.953 . S
Zn72 O69 1.945 . S
Zn72 O74 1.932 . S
Zn72 O81 1.977 . S
Zn72 O82 1.910 . S
O73 Zn70 1.933 . S
O73 C84 1.226 1_556 S
O74 Zn72 1.932 . S
O74 C84 1.307 . S
O75 Zn68 1.919 1_556 S
O75 C86 1.253 . S
O76 Zn70 1.941 . S
O76 C86 1.283 . S
O77 Zn70 1.965 . S
O77 C85 1.303 . S
O78 Zn71 1.938 1_556 S
O78 C85 1.247 . S
O79 Zn71 1.906 . S
O79 C87 1.304 . S
O80 Zn68 1.924 . S
O80 C88 1.311 . S
O81 Zn72 1.977 . S
O81 C87 1.272 . S
O82 Zn72 1.910 . S
O82 C88 1.231 . S
C83 O67 1.225 . S
C83 O89 1.298 . S
C84 O73 1.226 1_554 S
C84 O74 1.307 . S
C85 O77 1.303 . S
C85 O78 1.247 . S
C86 O75 1.253 . S
C86 O76 1.283 . S
C87 O79 1.304 . S
C87 O81 1.272 . S
C88 O80 1.311 . S
C88 O82 1.231 . S
O89 Zn71 1.953 . S
O89 C83 1.298 . S
H90 C102 0.930 . S
H91 C104 0.930 . S
H92 C105 0.930 . S
H93 C109 0.959 . S
H94 C109 0.959 . S
H95 C109 0.961 . S
H96 C110 0.960 . S
H97 C110 0.961 . S
H98 C110 0.959 . S
H99 C113 0.929 . S
H100 C114 0.931 . S
H101 C116 0.930 . S
C102 H90 0.930 . S
C102 C103 1.399 . S
C102 C107 1.399 . S
C103 C102 1.399 . S
C103 C104 1.376 . S
C104 H91 0.930 . S
C104 C103 1.376 . S
C104 C105 1.388 . S
C105 H92 0.930 . S
C105 C104 1.388 . S
C105 C106 1.390 . S
C106 C105 1.390 . S
C106 C107 1.394 . S
C106 C112 1.465 . S
C107 C102 1.399 . S
C107 C106 1.394 . S
C107 C108 1.516 . S
C108 C107 1.516 . S
C108 C109 1.502 . S
C108 C110 1.561 . S
C108 C111 1.526 . S
C109 H93 0.959 . S
C109 H94 0.959 . S
C109 H95 0.961 . S
C109 C108 1.502 . S
C110 H96 0.960 . S
C110 H97 0.961 . S
C110 H98 0.959 . S
C110 C108 1.561 . S
C111 C108 1.526 . S
C111 C112 1.396 . S
C111 C116 1.390 . S
C112 C106 1.465 . S
C112 C111 1.396 . S
C112 C113 1.399 . S
C113 H99 0.929 . S
C113 C112 1.399 . S
C113 C114 1.385 . S
C114 H100 0.931 . S
C114 C113 1.385 . S
C114 C115 1.389 . S
C115 C114 1.389 . S
C115 C116 1.387 . S
C116 H101 0.930 . S
C116 C111 1.390 . S
C116 C115 1.387 . S
H117 C129 0.930 . S
H118 C131 0.930 . S
H119 C132 0.930 . S
H120 C136 0.959 . S
H121 C136 0.959 . S
H122 C136 0.961 . S
H123 C137 0.960 . S
H124 C137 0.961 . S
H125 C137 0.959 . S
H126 C140 0.929 . S
H127 C141 0.931 . S
H128 C143 0.930 . S
C129 H117 0.930 . S
C129 C130 1.399 . S
C129 C134 1.399 . S
C130 C129 1.399 . S
C130 C131 1.376 1_554 S
C131 H118 0.930 . S
C131 C130 1.376 1_556 S
C131 C132 1.388 . S
C132 H119 0.930 . S
C132 C131 1.388 . S
C132 C133 1.390 1_556 S
C133 C132 1.390 1_554 S
C133 C134 1.394 . S
C133 C139 1.465 . S
C134 C129 1.399 . S
C134 C133 1.394 . S
C134 C135 1.516 . S
C135 C134 1.516 . S
C135 C136 1.502 . S
C135 C137 1.561 . S
C135 C138 1.526 . S
C136 H120 0.959 . S
C136 H121 0.959 . S
C136 H122 0.961 . S
C136 C135 1.502 . S
C137 H123 0.960 . S
C137 H124 0.961 . S
C137 H125 0.959 . S
C137 C135 1.561 . S
C138 C135 1.526 . S
C138 C139 1.396 . S
C138 C143 1.390 . S
C139 C133 1.465 . S
C139 C138 1.396 . S
C139 C140 1.399 1_554 S
C140 H126 0.929 . S
C140 C139 1.399 1_556 S
C140 C141 1.385 . S
C141 H127 0.931 . S
C141 C140 1.385 . S
C141 C142 1.389 1_556 S
C142 C141 1.389 1_554 S
C142 C143 1.387 . S
C143 H128 0.930 . S
C143 C138 1.390 . S
C143 C142 1.387 . S
H144 C156 0.930 . S
H145 C158 0.930 . S
H146 C159 0.930 . S
H147 C163 0.959 . S
H148 C163 0.959 . S
H149 C163 0.961 . S
H150 C164 0.960 . S
H151 C164 0.961 . S
H152 C164 0.959 . S
H153 C167 0.929 . S
H154 C168 0.931 . S
H155 C170 0.930 . S
C156 H144 0.930 . S
C156 C157 1.399 . S
C156 C161 1.399 . S
C157 C156 1.399 . S
C157 C158 1.376 . S
C158 H145 0.930 . S
C158 C157 1.376 . S
C158 C159 1.388 . S
C159 H146 0.930 . S
C159 C158 1.388 . S
C159 C160 1.390 . S
C160 C159 1.390 . S
C160 C161 1.394 . S
C160 C166 1.465 . S
C161 C156 1.399 . S
C161 C160 1.394 . S
C161 C162 1.516 . S
C162 C161 1.516 . S
C162 C163 1.502 . S
C162 C164 1.561 . S
C162 C165 1.526 . S
C163 H147 0.959 . S
C163 H148 0.959 . S
C163 H149 0.961 . S
C163 C162 1.502 . S
C164 H150 0.960 . S
C164 H151 0.961 . S
C164 H152 0.959 . S
C164 C162 1.561 . S
C165 C162 1.526 . S
C165 C166 1.396 . S
C165 C170 1.390 . S
C166 C160 1.465 . S
C166 C165 1.396 . S
C166 C167 1.399 . S
C167 H153 0.929 . S
C167 C166 1.399 . S
C167 C168 1.385 . S
C168 H154 0.931 . S
C168 C167 1.385 . S
C168 C169 1.389 . S
C169 C168 1.389 . S
C169 C170 1.387 . S
C170 H155 0.930 . S
C170 C165 1.390 . S
C170 C169 1.387 . S
H171 C183 0.930 . S
H172 C185 0.930 . S
H173 C186 0.930 . S
H174 C190 0.959 . S
H175 C190 0.959 . S
H176 C190 0.961 . S
H177 C191 0.960 . S
H178 C191 0.961 . S
H179 C191 0.959 . S
H180 C194 0.929 . S
H181 C195 0.931 . S
H182 C197 0.930 . S
C183 H171 0.930 . S
C183 C184 1.399 . S
C183 C188 1.399 . S
C184 C183 1.399 . S
C184 C185 1.376 1_554 S
C185 H172 0.930 . S
C185 C184 1.376 1_556 S
C185 C186 1.388 . S
C186 H173 0.930 . S
C186 C185 1.388 . S
C186 C187 1.390 . S
C187 C186 1.390 . S
C187 C188 1.394 1_556 S
C187 C193 1.465 . S
C188 C183 1.399 . S
C188 C187 1.394 1_554 S
C188 C189 1.516 . S
C189 C188 1.516 . S
C189 C190 1.502 . S
C189 C191 1.561 . S
C189 C192 1.526 . S
C190 H174 0.959 . S
C190 H175 0.959 . S
C190 H176 0.961 . S
C190 C189 1.502 . S
C191 H177 0.960 . S
C191 H178 0.961 . S
C191 H179 0.959 . S
C191 C189 1.561 . S
C192 C189 1.526 . S
C192 C193 1.396 1_554 S
C192 C197 1.390 . S
C193 C187 1.465 . S
C193 C192 1.396 1_556 S
C193 C194 1.399 . S
C194 H180 0.929 . S
C194 C193 1.399 . S
C194 C195 1.385 . S
C195 H181 0.931 . S
C195 C194 1.385 . S
C195 C196 1.389 1_556 S
C196 C195 1.389 1_554 S
C196 C197 1.387 . S
C197 H182 0.930 . S
C197 C192 1.390 . S
C197 C196 1.387 . S
H198 C210 0.930 . S
H199 C212 0.930 . S
H200 C213 0.930 . S
H201 C217 0.959 . S
H202 C217 0.959 . S
H203 C217 0.961 . S
H204 C218 0.960 . S
H205 C218 0.961 . S
H206 C218 0.959 . S
H207 C221 0.929 . S
H208 C222 0.931 . S
H209 C224 0.930 . S
C210 H198 0.930 . S
C210 C211 1.399 . S
C210 C215 1.399 . S
C211 C210 1.399 . S
C211 C212 1.376 . S
C212 H199 0.930 . S
C212 C211 1.376 . S
C212 C213 1.388 . S
C213 H200 0.930 . S
C213 C212 1.388 . S
C213 C214 1.390 . S
C214 C213 1.390 . S
C214 C215 1.394 . S
C214 C220 1.465 . S
C215 C210 1.399 . S
C215 C214 1.394 . S
C215 C216 1.516 . S
C216 C215 1.516 . S
C216 C217 1.502 . S
C216 C218 1.561 . S
C216 C219 1.526 . S
C217 H201 0.959 . S
C217 H202 0.959 . S
C217 H203 0.961 . S
C217 C216 1.502 . S
C218 H204 0.960 . S
C218 H205 0.961 . S
C218 H206 0.959 . S
C218 C216 1.561 . S
C219 C216 1.526 . S
C219 C220 1.396 . S
C219 C224 1.390 . S
C220 C214 1.465 . S
C220 C219 1.396 . S
C220 C221 1.399 . S
C221 H207 0.929 . S
C221 C220 1.399 . S
C221 C222 1.385 . S
C222 H208 0.931 . S
C222 C221 1.385 . S
C222 C223 1.389 . S
C223 C222 1.389 . S
C223 C224 1.387 . S
C224 H209 0.930 . S
C224 C219 1.390 . S
C224 C223 1.387 . S
H225 C237 0.930 . S
H226 C239 0.930 . S
H227 C240 0.930 . S
H228 C244 0.959 . S
H229 C244 0.959 . S
H230 C244 0.961 . S
H231 C245 0.960 . S
H232 C245 0.961 . S
H233 C245 0.959 . S
H234 C248 0.929 . S
H235 C249 0.931 . S
H236 C251 0.930 . S
C237 H225 0.930 . S
C237 C238 1.399 . S
C237 C242 1.399 . S
C238 C237 1.399 . S
C238 C239 1.376 . S
C239 H226 0.930 . S
C239 C238 1.376 . S
C239 C240 1.388 . S
C240 H227 0.930 . S
C240 C239 1.388 . S
C240 C241 1.390 . S
C241 C240 1.390 . S
C241 C242 1.394 . S
C241 C247 1.465 . S
C242 C237 1.399 . S
C242 C241 1.394 . S
C242 C243 1.516 . S
C243 C242 1.516 . S
C243 C244 1.502 . S
C243 C245 1.561 . S
C243 C246 1.526 . S
C244 H228 0.959 . S
C244 H229 0.959 . S
C244 H230 0.961 . S
C244 C243 1.502 . S
C245 H231 0.960 . S
C245 H232 0.961 . S
C245 H233 0.959 . S
C245 C243 1.561 . S
C246 C243 1.526 . S
C246 C247 1.396 . S
C246 C251 1.390 . S
C247 C241 1.465 . S
C247 C246 1.396 . S
C247 C248 1.399 . S
C248 H234 0.929 . S
C248 C247 1.399 . S
C248 C249 1.385 . S
C249 H235 0.931 . S
C249 C248 1.385 . S
C249 C250 1.389 . S
C250 C249 1.389 . S
C250 C251 1.387 . S
C251 H236 0.930 . S
C251 C246 1.390 . S
C251 C250 1.387 . S
H252 C264 0.930 . S
H253 C266 0.930 . S
H254 C267 0.930 . S
H255 C271 0.959 . S
H256 C271 0.959 . S
H257 C271 0.961 . S
H258 C272 0.960 . S
H259 C272 0.961 . S
H260 C272 0.959 . S
H261 C275 0.929 . S
H262 C276 0.931 . S
H263 C278 0.930 . S
C264 H252 0.930 . S
C264 C265 1.399 . S
C264 C269 1.399 . S
C265 C264 1.399 . S
C265 C266 1.376 . S
C266 H253 0.930 . S
C266 C265 1.376 . S
C266 C267 1.388 . S
C267 H254 0.930 . S
C267 C266 1.388 . S
C267 C268 1.390 . S
C268 C267 1.390 . S
C268 C269 1.394 . S
C268 C274 1.465 . S
C269 C264 1.399 . S
C269 C268 1.394 . S
C269 C270 1.516 . S
C270 C269 1.516 . S
C270 C271 1.502 . S
C270 C272 1.561 . S
C270 C273 1.526 . S
C271 H255 0.959 . S
C271 H256 0.959 . S
C271 H257 0.961 . S
C271 C270 1.502 . S
C272 H258 0.960 . S
C272 H259 0.961 . S
C272 H260 0.959 . S
C272 C270 1.561 . S
C273 C270 1.526 . S
C273 C274 1.396 . S
C273 C278 1.390 . S
C274 C268 1.465 . S
C274 C273 1.396 . S
C274 C275 1.399 . S
C275 H261 0.929 . S
C275 C274 1.399 . S
C275 C276 1.385 . S
C276 H262 0.931 . S
C276 C275 1.385 . S
C276 C277 1.389 . S
C277 C276 1.389 . S
C277 C278 1.387 . S
C278 H263 0.930 . S
C278 C273 1.390 . S
C278 C277 1.387 . S
H279 C291 0.930 . S
H280 C293 0.930 . S
H281 C294 0.930 . S
H282 C298 0.959 . S
H283 C298 0.959 . S
H284 C298 0.961 . S
H285 C299 0.960 . S
H286 C299 0.961 . S
H287 C299 0.959 . S
H288 C302 0.929 . S
H289 C303 0.931 . S
H290 C305 0.930 . S
C291 H279 0.930 . S
C291 C292 1.399 . S
C291 C296 1.399 . S
C292 C291 1.399 . S
C292 C293 1.376 . S
C293 H280 0.930 . S
C293 C292 1.376 . S
C293 C294 1.388 . S
C294 H281 0.930 . S
C294 C293 1.388 . S
C294 C295 1.390 . S
C295 C294 1.390 . S
C295 C296 1.394 . S
C295 C301 1.465 . S
C296 C291 1.399 . S
C296 C295 1.394 . S
C296 C297 1.516 . S
C297 C296 1.516 . S
C297 C298 1.502 . S
C297 C299 1.561 . S
C297 C300 1.526 . S
C298 H282 0.959 . S
C298 H283 0.959 . S
C298 H284 0.961 . S
C298 C297 1.502 . S
C299 H285 0.960 . S
C299 H286 0.961 . S
C299 H287 0.959 . S
C299 C297 1.561 . S
C300 C297 1.526 . S
C300 C301 1.396 . S
C300 C305 1.390 . S
C301 C295 1.465 . S
C301 C300 1.396 . S
C301 C302 1.399 . S
C302 H288 0.929 . S
C302 C301 1.399 . S
C302 C303 1.385 . S
C303 H289 0.931 . S
C303 C302 1.385 . S
C303 C304 1.389 . S
C304 C303 1.389 . S
C304 C305 1.387 . S
C305 H290 0.930 . S
C305 C300 1.390 . S
C305 C304 1.387 . S
H306 C318 0.930 . S
H307 C320 0.930 . S
H308 C321 0.930 . S
H309 C325 0.959 . S
H310 C325 0.959 . S
H311 C325 0.961 . S
H312 C326 0.960 . S
H313 C326 0.961 . S
H314 C326 0.959 . S
H315 C329 0.929 . S
H316 C330 0.931 . S
H317 C332 0.930 . S
C318 H306 0.930 . S
C318 C319 1.399 . S
C318 C323 1.399 . S
C319 C318 1.399 . S
C319 C320 1.376 . S
C320 H307 0.930 . S
C320 C319 1.376 . S
C320 C321 1.388 . S
C321 H308 0.930 . S
C321 C320 1.388 . S
C321 C322 1.390 . S
C322 C321 1.390 . S
C322 C323 1.394 . S
C322 C328 1.465 . S
C323 C318 1.399 . S
C323 C322 1.394 . S
C323 C324 1.516 . S
C324 C323 1.516 . S
C324 C325 1.502 . S
C324 C326 1.561 . S
C324 C327 1.526 . S
C325 H309 0.959 . S
C325 H310 0.959 . S
C325 H311 0.961 . S
C325 C324 1.502 . S
C326 H312 0.960 . S
C326 H313 0.961 . S
C326 H314 0.959 . S
C326 C324 1.561 . S
C327 C324 1.526 . S
C327 C328 1.396 . S
C327 C332 1.390 . S
C328 C322 1.465 . S
C328 C327 1.396 . S
C328 C329 1.399 . S
C329 H315 0.929 . S
C329 C328 1.399 . S
C329 C330 1.385 . S
C330 H316 0.931 . S
C330 C329 1.385 . S
C330 C331 1.389 . S
C331 C330 1.389 . S
C331 C332 1.387 . S
C332 H317 0.930 . S
C332 C327 1.390 . S
C332 C331 1.387 . S
H333 C345 0.930 . S
H334 C347 0.930 . S
H335 C348 0.930 . S
H336 C352 0.959 . S
H337 C352 0.959 . S
H338 C352 0.961 . S
H339 C353 0.960 . S
H340 C353 0.961 . S
H341 C353 0.959 . S
H342 C356 0.929 . S
H343 C357 0.931 . S
H344 C359 0.930 . S
C345 H333 0.930 . S
C345 C346 1.399 . S
C345 C350 1.399 . S
C346 C345 1.399 . S
C346 C347 1.376 . S
C347 H334 0.930 . S
C347 C346 1.376 . S
C347 C348 1.388 . S
C348 H335 0.930 . S
C348 C347 1.388 . S
C348 C349 1.390 . S
C349 C348 1.390 . S
C349 C350 1.394 . S
C349 C355 1.465 . S
C350 C345 1.399 . S
C350 C349 1.394 . S
C350 C351 1.516 . S
C351 C350 1.516 . S
C351 C352 1.502 . S
C351 C353 1.561 . S
C351 C354 1.526 . S
C352 H336 0.959 . S
C352 H337 0.959 . S
C352 H338 0.961 . S
C352 C351 1.502 . S
C353 H339 0.960 . S
C353 H340 0.961 . S
C353 H341 0.959 . S
C353 C351 1.561 . S
C354 C351 1.526 . S
C354 C355 1.396 . S
C354 C359 1.390 . S
C355 C349 1.465 . S
C355 C354 1.396 . S
C355 C356 1.399 . S
C356 H342 0.929 . S
C356 C355 1.399 . S
C356 C357 1.385 . S
C357 H343 0.931 . S
C357 C356 1.385 . S
C357 C358 1.389 . S
C358 C357 1.389 . S
C358 C359 1.387 . S
C359 H344 0.930 . S
C359 C354 1.390 . S
C359 C358 1.387 . S
H360 C372 0.930 . S
H361 C374 0.930 . S
H362 C375 0.930 . S
H363 C379 0.959 . S
H364 C379 0.959 . S
H365 C379 0.961 . S
H366 C380 0.960 . S
H367 C380 0.961 . S
H368 C380 0.959 . S
H369 C383 0.929 . S
H370 C384 0.931 . S
H371 C386 0.930 . S
C372 H360 0.930 . S
C372 C373 1.399 . S
C372 C377 1.399 . S
C373 C372 1.399 . S
C373 C374 1.376 . S
C374 H361 0.930 . S
C374 C373 1.376 . S
C374 C375 1.388 . S
C375 H362 0.930 . S
C375 C374 1.388 . S
C375 C376 1.390 . S
C376 C375 1.390 . S
C376 C377 1.394 . S
C376 C382 1.465 . S
C377 C372 1.399 . S
C377 C376 1.394 . S
C377 C378 1.516 . S
C378 C377 1.516 . S
C378 C379 1.502 . S
C378 C380 1.561 . S
C378 C381 1.526 . S
C379 H363 0.959 . S
C379 H364 0.959 . S
C379 H365 0.961 . S
C379 C378 1.502 . S
C380 H366 0.960 . S
C380 H367 0.961 . S
C380 H368 0.959 . S
C380 C378 1.561 . S
C381 C378 1.526 . S
C381 C382 1.396 . S
C381 C386 1.390 . S
C382 C376 1.465 . S
C382 C381 1.396 . S
C382 C383 1.399 . S
C383 H369 0.929 . S
C383 C382 1.399 . S
C383 C384 1.385 . S
C384 H370 0.931 . S
C384 C383 1.385 . S
C384 C385 1.389 . S
C385 C384 1.389 . S
C385 C386 1.387 . S
C386 H371 0.930 . S
C386 C381 1.390 . S
C386 C385 1.387 . S
H387 C399 0.930 . S
H388 C401 0.930 . S
H389 C402 0.930 . S
H390 C406 0.959 . S
H391 C406 0.959 . S
H392 C406 0.961 . S
H393 C407 0.960 . S
H394 C407 0.961 . S
H395 C407 0.959 . S
H396 C410 0.929 . S
H397 C411 0.931 . S
H398 C413 0.930 . S
C399 H387 0.930 . S
C399 C400 1.399 . S
C399 C404 1.399 . S
C400 C399 1.399 . S
C400 C401 1.376 . S
C401 H388 0.930 . S
C401 C400 1.376 . S
C401 C402 1.388 . S
C402 H389 0.930 . S
C402 C401 1.388 . S
C402 C403 1.390 . S
C403 C402 1.390 . S
C403 C404 1.394 . S
C403 C409 1.465 . S
C404 C399 1.399 . S
C404 C403 1.394 . S
C404 C405 1.516 . S
C405 C404 1.516 . S
C405 C406 1.502 . S
C405 C407 1.561 . S
C405 C408 1.526 . S
C406 H390 0.959 . S
C406 H391 0.959 . S
C406 H392 0.961 . S
C406 C405 1.502 . S
C407 H393 0.960 . S
C407 H394 0.961 . S
C407 H395 0.959 . S
C407 C405 1.561 . S
C408 C405 1.526 . S
C408 C409 1.396 . S
C408 C413 1.390 . S
C409 C403 1.465 . S
C409 C408 1.396 . S
C409 C410 1.399 . S
C410 H396 0.929 . S
C410 C409 1.399 . S
C410 C411 1.385 . S
C411 H397 0.931 . S
C411 C410 1.385 . S
C411 C412 1.389 . S
C412 C411 1.389 . S
C412 C413 1.387 . S
C413 H398 0.930 . S
C413 C408 1.390 . S
C413 C412 1.387 . S
C115 C61 1.482 . S
C103 C43 1.484 . S
C130 C10 1.488 . S
C142 C84 1.477 . S
C157 C21 1.517 . S
C169 C60 1.506 . S
C184 C32 1.516 . S
C196 C83 1.509 . S
C223 C64 1.445 . S
C211 C5 1.467 . S
C250 C86 1.516 . S
C238 C15 1.547 . S
C265 C27 1.492 . S
C277 C65 1.504 . S
C292 C38 1.537 . S
C304 C85 1.449 . S
C331 C88 1.364 . S
C319 C16 1.447 . S
C358 C63 1.391 . S
C346 C26 1.454 . S
C385 C87 1.423 . S
C373 C37 1.420 . S
C400 C4 1.444 . S
C412 C62 1.394 . S
