# Generated by pormake.
# Topology bpr, (3,3)-cn, num edge types: 1
# Building blocks:
#     Node 0, Type 0, BuildingBlock: WUSLED_clean_sbu_0, # of connection points: 3
#     Node 1, Type 0, BuildingBlock: WUSLED_clean_sbu_0, # of connection points: 3
#     Node 2, Type 0, BuildingBlock: WUSLED_clean_sbu_0, # of connection points: 3
#     Node 3, Type 0, BuildingBlock: WUSLED_clean_sbu_0, # of connection points: 3
#     Node 4, Type 0, BuildingBlock: WUSLED_clean_sbu_0, # of connection points: 3
#     Node 5, Type 0, BuildingBlock: WUSLED_clean_sbu_0, # of connection points: 3
#     Node 6, Type 0, BuildingBlock: WUSLED_clean_sbu_0, # of connection points: 3
#     Node 7, Type 0, BuildingBlock: WUSLED_clean_sbu_0, # of connection points: 3
#     Node 8, Type 0, BuildingBlock: WUSLED_clean_sbu_0, # of connection points: 3
#     Node 9, Type 0, BuildingBlock: WUSLED_clean_sbu_0, # of connection points: 3
#     Node 10, Type 0, BuildingBlock: WUSLED_clean_sbu_0, # of connection points: 3
#     Node 11, Type 0, BuildingBlock: WUSLED_clean_sbu_0, # of connection points: 3
#     Node 12, Type 0, BuildingBlock: WUSLED_clean_sbu_0, # of connection points: 3
#     Node 13, Type 0, BuildingBlock: WUSLED_clean_sbu_0, # of connection points: 3
#     Node 14, Type 0, BuildingBlock: WUSLED_clean_sbu_0, # of connection points: 3
#     Node 15, Type 0, BuildingBlock: WUSLED_clean_sbu_0, # of connection points: 3
#     Node 16, Type 0, BuildingBlock: WUSLED_clean_sbu_0, # of connection points: 3
#     Node 17, Type 0, BuildingBlock: WUSLED_clean_sbu_0, # of connection points: 3
#     Node 18, Type 0, BuildingBlock: WUSLED_clean_sbu_0, # of connection points: 3
#     Node 19, Type 0, BuildingBlock: WUSLED_clean_sbu_0, # of connection points: 3
#     Node 20, Type 0, BuildingBlock: WUSLED_clean_sbu_0, # of connection points: 3
#     Node 21, Type 0, BuildingBlock: WUSLED_clean_sbu_0, # of connection points: 3
#     Node 22, Type 0, BuildingBlock: WUSLED_clean_sbu_0, # of connection points: 3
#     Node 23, Type 0, BuildingBlock: WUSLED_clean_sbu_0, # of connection points: 3
#     Node 24, Type 0, BuildingBlock: WUSLED_clean_sbu_0, # of connection points: 3
#     Node 25, Type 0, BuildingBlock: WUSLED_clean_sbu_0, # of connection points: 3
#     Node 26, Type 0, BuildingBlock: WUSLED_clean_sbu_0, # of connection points: 3
#     Node 27, Type 0, BuildingBlock: WUSLED_clean_sbu_0, # of connection points: 3
#     Node 28, Type 0, BuildingBlock: WUSLED_clean_sbu_0, # of connection points: 3
#     Node 29, Type 0, BuildingBlock: WUSLED_clean_sbu_0, # of connection points: 3
#     Node 30, Type 0, BuildingBlock: WUSLED_clean_sbu_0, # of connection points: 3
#     Node 31, Type 0, BuildingBlock: WUSLED_clean_sbu_0, # of connection points: 3
#     Node 32, Type 0, BuildingBlock: WUSLED_clean_sbu_0, # of connection points: 3
#     Node 33, Type 0, BuildingBlock: WUSLED_clean_sbu_0, # of connection points: 3
#     Node 34, Type 0, BuildingBlock: WUSLED_clean_sbu_0, # of connection points: 3
#     Node 35, Type 0, BuildingBlock: WUSLED_clean_sbu_0, # of connection points: 3
#     Node 36, Type 0, BuildingBlock: WUSLED_clean_sbu_0, # of connection points: 3
#     Node 37, Type 0, BuildingBlock: WUSLED_clean_sbu_0, # of connection points: 3
#     Node 38, Type 0, BuildingBlock: WUSLED_clean_sbu_0, # of connection points: 3
#     Node 39, Type 0, BuildingBlock: WUSLED_clean_sbu_0, # of connection points: 3
#     Node 40, Type 0, BuildingBlock: WUSLED_clean_sbu_0, # of connection points: 3
#     Node 41, Type 0, BuildingBlock: WUSLED_clean_sbu_0, # of connection points: 3
#     Node 42, Type 0, BuildingBlock: WUSLED_clean_sbu_0, # of connection points: 3
#     Node 43, Type 0, BuildingBlock: WUSLED_clean_sbu_0, # of connection points: 3
#     Node 44, Type 0, BuildingBlock: WUSLED_clean_sbu_0, # of connection points: 3
#     Node 45, Type 0, BuildingBlock: WUSLED_clean_sbu_0, # of connection points: 3
#     Node 46, Type 0, BuildingBlock: WUSLED_clean_sbu_0, # of connection points: 3
#     Node 47, Type 0, BuildingBlock: WUSLED_clean_sbu_0, # of connection points: 3
#     Node 48, Type 1, BuildingBlock: BELTOD_clean_linker_0, # of connection points: 3
#     Node 49, Type 1, BuildingBlock: BELTOD_clean_linker_0, # of connection points: 3
#     Node 50, Type 1, BuildingBlock: BELTOD_clean_linker_0, # of connection points: 3
#     Node 51, Type 1, BuildingBlock: BELTOD_clean_linker_0, # of connection points: 3
#     Node 52, Type 1, BuildingBlock: BELTOD_clean_linker_0, # of connection points: 3
#     Node 53, Type 1, BuildingBlock: BELTOD_clean_linker_0, # of connection points: 3
#     Node 54, Type 1, BuildingBlock: BELTOD_clean_linker_0, # of connection points: 3
#     Node 55, Type 1, BuildingBlock: BELTOD_clean_linker_0, # of connection points: 3
#     Node 56, Type 1, BuildingBlock: BELTOD_clean_linker_0, # of connection points: 3
#     Node 57, Type 1, BuildingBlock: BELTOD_clean_linker_0, # of connection points: 3
#     Node 58, Type 1, BuildingBlock: BELTOD_clean_linker_0, # of connection points: 3
#     Node 59, Type 1, BuildingBlock: BELTOD_clean_linker_0, # of connection points: 3
#     Node 60, Type 1, BuildingBlock: BELTOD_clean_linker_0, # of connection points: 3
#     Node 61, Type 1, BuildingBlock: BELTOD_clean_linker_0, # of connection points: 3
#     Node 62, Type 1, BuildingBlock: BELTOD_clean_linker_0, # of connection points: 3
#     Node 63, Type 1, BuildingBlock: BELTOD_clean_linker_0, # of connection points: 3
#     Node 64, Type 1, BuildingBlock: BELTOD_clean_linker_0, # of connection points: 3
#     Node 65, Type 1, BuildingBlock: BELTOD_clean_linker_0, # of connection points: 3
#     Node 66, Type 1, BuildingBlock: BELTOD_clean_linker_0, # of connection points: 3
#     Node 67, Type 1, BuildingBlock: BELTOD_clean_linker_0, # of connection points: 3
#     Node 68, Type 1, BuildingBlock: BELTOD_clean_linker_0, # of connection points: 3
#     Node 69, Type 1, BuildingBlock: BELTOD_clean_linker_0, # of connection points: 3
#     Node 70, Type 1, BuildingBlock: BELTOD_clean_linker_0, # of connection points: 3
#     Node 71, Type 1, BuildingBlock: BELTOD_clean_linker_0, # of connection points: 3
#     Node 72, Type 1, BuildingBlock: BELTOD_clean_linker_0, # of connection points: 3
#     Node 73, Type 1, BuildingBlock: BELTOD_clean_linker_0, # of connection points: 3
#     Node 74, Type 1, BuildingBlock: BELTOD_clean_linker_0, # of connection points: 3
#     Node 75, Type 1, BuildingBlock: BELTOD_clean_linker_0, # of connection points: 3
#     Node 76, Type 1, BuildingBlock: BELTOD_clean_linker_0, # of connection points: 3
#     Node 77, Type 1, BuildingBlock: BELTOD_clean_linker_0, # of connection points: 3
#     Node 78, Type 1, BuildingBlock: BELTOD_clean_linker_0, # of connection points: 3
#     Node 79, Type 1, BuildingBlock: BELTOD_clean_linker_0, # of connection points: 3
#     Node 80, Type 1, BuildingBlock: BELTOD_clean_linker_0, # of connection points: 3
#     Node 81, Type 1, BuildingBlock: BELTOD_clean_linker_0, # of connection points: 3
#     Node 82, Type 1, BuildingBlock: BELTOD_clean_linker_0, # of connection points: 3
#     Node 83, Type 1, BuildingBlock: BELTOD_clean_linker_0, # of connection points: 3
#     Node 84, Type 1, BuildingBlock: BELTOD_clean_linker_0, # of connection points: 3
#     Node 85, Type 1, BuildingBlock: BELTOD_clean_linker_0, # of connection points: 3
#     Node 86, Type 1, BuildingBlock: BELTOD_clean_linker_0, # of connection points: 3
#     Node 87, Type 1, BuildingBlock: BELTOD_clean_linker_0, # of connection points: 3
#     Node 88, Type 1, BuildingBlock: BELTOD_clean_linker_0, # of connection points: 3
#     Node 89, Type 1, BuildingBlock: BELTOD_clean_linker_0, # of connection points: 3
#     Node 90, Type 1, BuildingBlock: BELTOD_clean_linker_0, # of connection points: 3
#     Node 91, Type 1, BuildingBlock: BELTOD_clean_linker_0, # of connection points: 3
#     Node 92, Type 1, BuildingBlock: BELTOD_clean_linker_0, # of connection points: 3
#     Node 93, Type 1, BuildingBlock: BELTOD_clean_linker_0, # of connection points: 3
#     Node 94, Type 1, BuildingBlock: BELTOD_clean_linker_0, # of connection points: 3
#     Node 95, Type 1, BuildingBlock: BELTOD_clean_linker_0, # of connection points: 3
#     Edge 96, Type (0, 1), BuildingBlock: KIFKEQ_clean_linker_1, # of connection points: 2
#     Edge 97, Type (0, 1), BuildingBlock: KIFKEQ_clean_linker_1, # of connection points: 2
#     Edge 98, Type (0, 1), BuildingBlock: KIFKEQ_clean_linker_1, # of connection points: 2
#     Edge 99, Type (0, 1), BuildingBlock: KIFKEQ_clean_linker_1, # of connection points: 2
#     Edge 100, Type (0, 1), BuildingBlock: KIFKEQ_clean_linker_1, # of connection points: 2
#     Edge 101, Type (0, 1), BuildingBlock: KIFKEQ_clean_linker_1, # of connection points: 2
#     Edge 102, Type (0, 1), BuildingBlock: KIFKEQ_clean_linker_1, # of connection points: 2
#     Edge 103, Type (0, 1), BuildingBlock: KIFKEQ_clean_linker_1, # of connection points: 2
#     Edge 104, Type (0, 1), BuildingBlock: KIFKEQ_clean_linker_1, # of connection points: 2
#     Edge 105, Type (0, 1), BuildingBlock: KIFKEQ_clean_linker_1, # of connection points: 2
#     Edge 106, Type (0, 1), BuildingBlock: KIFKEQ_clean_linker_1, # of connection points: 2
#     Edge 107, Type (0, 1), BuildingBlock: KIFKEQ_clean_linker_1, # of connection points: 2
#     Edge 108, Type (0, 1), BuildingBlock: KIFKEQ_clean_linker_1, # of connection points: 2
#     Edge 109, Type (0, 1), BuildingBlock: KIFKEQ_clean_linker_1, # of connection points: 2
#     Edge 110, Type (0, 1), BuildingBlock: KIFKEQ_clean_linker_1, # of connection points: 2
#     Edge 111, Type (0, 1), BuildingBlock: KIFKEQ_clean_linker_1, # of connection points: 2
#     Edge 112, Type (0, 1), BuildingBlock: KIFKEQ_clean_linker_1, # of connection points: 2
#     Edge 113, Type (0, 1), BuildingBlock: KIFKEQ_clean_linker_1, # of connection points: 2
#     Edge 114, Type (0, 1), BuildingBlock: KIFKEQ_clean_linker_1, # of connection points: 2
#     Edge 115, Type (0, 1), BuildingBlock: KIFKEQ_clean_linker_1, # of connection points: 2
#     Edge 116, Type (0, 1), BuildingBlock: KIFKEQ_clean_linker_1, # of connection points: 2
#     Edge 117, Type (0, 1), BuildingBlock: KIFKEQ_clean_linker_1, # of connection points: 2
#     Edge 118, Type (0, 1), BuildingBlock: KIFKEQ_clean_linker_1, # of connection points: 2
#     Edge 119, Type (0, 1), BuildingBlock: KIFKEQ_clean_linker_1, # of connection points: 2
#     Edge 120, Type (0, 1), BuildingBlock: KIFKEQ_clean_linker_1, # of connection points: 2
#     Edge 121, Type (0, 1), BuildingBlock: KIFKEQ_clean_linker_1, # of connection points: 2
#     Edge 122, Type (0, 1), BuildingBlock: KIFKEQ_clean_linker_1, # of connection points: 2
#     Edge 123, Type (0, 1), BuildingBlock: KIFKEQ_clean_linker_1, # of connection points: 2
#     Edge 124, Type (0, 1), BuildingBlock: KIFKEQ_clean_linker_1, # of connection points: 2
#     Edge 125, Type (0, 1), BuildingBlock: KIFKEQ_clean_linker_1, # of connection points: 2
#     Edge 126, Type (0, 1), BuildingBlock: KIFKEQ_clean_linker_1, # of connection points: 2
#     Edge 127, Type (0, 1), BuildingBlock: KIFKEQ_clean_linker_1, # of connection points: 2
#     Edge 128, Type (0, 1), BuildingBlock: KIFKEQ_clean_linker_1, # of connection points: 2
#     Edge 129, Type (0, 1), BuildingBlock: KIFKEQ_clean_linker_1, # of connection points: 2
#     Edge 130, Type (0, 1), BuildingBlock: KIFKEQ_clean_linker_1, # of connection points: 2
#     Edge 131, Type (0, 1), BuildingBlock: KIFKEQ_clean_linker_1, # of connection points: 2
#     Edge 132, Type (0, 1), BuildingBlock: KIFKEQ_clean_linker_1, # of connection points: 2
#     Edge 133, Type (0, 1), BuildingBlock: KIFKEQ_clean_linker_1, # of connection points: 2
#     Edge 134, Type (0, 1), BuildingBlock: KIFKEQ_clean_linker_1, # of connection points: 2
#     Edge 135, Type (0, 1), BuildingBlock: KIFKEQ_clean_linker_1, # of connection points: 2
#     Edge 136, Type (0, 1), BuildingBlock: KIFKEQ_clean_linker_1, # of connection points: 2
#     Edge 137, Type (0, 1), BuildingBlock: KIFKEQ_clean_linker_1, # of connection points: 2
#     Edge 138, Type (0, 1), BuildingBlock: KIFKEQ_clean_linker_1, # of connection points: 2
#     Edge 139, Type (0, 1), BuildingBlock: KIFKEQ_clean_linker_1, # of connection points: 2
#     Edge 140, Type (0, 1), BuildingBlock: KIFKEQ_clean_linker_1, # of connection points: 2
#     Edge 141, Type (0, 1), BuildingBlock: KIFKEQ_clean_linker_1, # of connection points: 2
#     Edge 142, Type (0, 1), BuildingBlock: KIFKEQ_clean_linker_1, # of connection points: 2
#     Edge 143, Type (0, 1), BuildingBlock: KIFKEQ_clean_linker_1, # of connection points: 2
#     Edge 144, Type (0, 1), BuildingBlock: KIFKEQ_clean_linker_1, # of connection points: 2
#     Edge 145, Type (0, 1), BuildingBlock: KIFKEQ_clean_linker_1, # of connection points: 2
#     Edge 146, Type (0, 1), BuildingBlock: KIFKEQ_clean_linker_1, # of connection points: 2
#     Edge 147, Type (0, 1), BuildingBlock: KIFKEQ_clean_linker_1, # of connection points: 2
#     Edge 148, Type (0, 1), BuildingBlock: KIFKEQ_clean_linker_1, # of connection points: 2
#     Edge 149, Type (0, 1), BuildingBlock: KIFKEQ_clean_linker_1, # of connection points: 2
#     Edge 150, Type (0, 1), BuildingBlock: KIFKEQ_clean_linker_1, # of connection points: 2
#     Edge 151, Type (0, 1), BuildingBlock: KIFKEQ_clean_linker_1, # of connection points: 2
#     Edge 152, Type (0, 1), BuildingBlock: KIFKEQ_clean_linker_1, # of connection points: 2
#     Edge 153, Type (0, 1), BuildingBlock: KIFKEQ_clean_linker_1, # of connection points: 2
#     Edge 154, Type (0, 1), BuildingBlock: KIFKEQ_clean_linker_1, # of connection points: 2
#     Edge 155, Type (0, 1), BuildingBlock: KIFKEQ_clean_linker_1, # of connection points: 2
#     Edge 156, Type (0, 1), BuildingBlock: KIFKEQ_clean_linker_1, # of connection points: 2
#     Edge 157, Type (0, 1), BuildingBlock: KIFKEQ_clean_linker_1, # of connection points: 2
#     Edge 158, Type (0, 1), BuildingBlock: KIFKEQ_clean_linker_1, # of connection points: 2
#     Edge 159, Type (0, 1), BuildingBlock: KIFKEQ_clean_linker_1, # of connection points: 2
#     Edge 160, Type (0, 1), BuildingBlock: KIFKEQ_clean_linker_1, # of connection points: 2
#     Edge 161, Type (0, 1), BuildingBlock: KIFKEQ_clean_linker_1, # of connection points: 2
#     Edge 162, Type (0, 1), BuildingBlock: KIFKEQ_clean_linker_1, # of connection points: 2
#     Edge 163, Type (0, 1), BuildingBlock: KIFKEQ_clean_linker_1, # of connection points: 2
#     Edge 164, Type (0, 1), BuildingBlock: KIFKEQ_clean_linker_1, # of connection points: 2
#     Edge 165, Type (0, 1), BuildingBlock: KIFKEQ_clean_linker_1, # of connection points: 2
#     Edge 166, Type (0, 1), BuildingBlock: KIFKEQ_clean_linker_1, # of connection points: 2
#     Edge 167, Type (0, 1), BuildingBlock: KIFKEQ_clean_linker_1, # of connection points: 2
#     Edge 168, Type (0, 1), BuildingBlock: KIFKEQ_clean_linker_1, # of connection points: 2
#     Edge 169, Type (0, 1), BuildingBlock: KIFKEQ_clean_linker_1, # of connection points: 2
#     Edge 170, Type (0, 1), BuildingBlock: KIFKEQ_clean_linker_1, # of connection points: 2
#     Edge 171, Type (0, 1), BuildingBlock: KIFKEQ_clean_linker_1, # of connection points: 2
#     Edge 172, Type (0, 1), BuildingBlock: KIFKEQ_clean_linker_1, # of connection points: 2
#     Edge 173, Type (0, 1), BuildingBlock: KIFKEQ_clean_linker_1, # of connection points: 2
#     Edge 174, Type (0, 1), BuildingBlock: KIFKEQ_clean_linker_1, # of connection points: 2
#     Edge 175, Type (0, 1), BuildingBlock: KIFKEQ_clean_linker_1, # of connection points: 2
#     Edge 176, Type (0, 1), BuildingBlock: KIFKEQ_clean_linker_1, # of connection points: 2
#     Edge 177, Type (0, 1), BuildingBlock: KIFKEQ_clean_linker_1, # of connection points: 2
#     Edge 178, Type (0, 1), BuildingBlock: KIFKEQ_clean_linker_1, # of connection points: 2
#     Edge 179, Type (0, 1), BuildingBlock: KIFKEQ_clean_linker_1, # of connection points: 2
#     Edge 180, Type (0, 1), BuildingBlock: KIFKEQ_clean_linker_1, # of connection points: 2
#     Edge 181, Type (0, 1), BuildingBlock: KIFKEQ_clean_linker_1, # of connection points: 2
#     Edge 182, Type (0, 1), BuildingBlock: KIFKEQ_clean_linker_1, # of connection points: 2
#     Edge 183, Type (0, 1), BuildingBlock: KIFKEQ_clean_linker_1, # of connection points: 2
#     Edge 184, Type (0, 1), BuildingBlock: KIFKEQ_clean_linker_1, # of connection points: 2
#     Edge 185, Type (0, 1), BuildingBlock: KIFKEQ_clean_linker_1, # of connection points: 2
#     Edge 186, Type (0, 1), BuildingBlock: KIFKEQ_clean_linker_1, # of connection points: 2
#     Edge 187, Type (0, 1), BuildingBlock: KIFKEQ_clean_linker_1, # of connection points: 2
#     Edge 188, Type (0, 1), BuildingBlock: KIFKEQ_clean_linker_1, # of connection points: 2
#     Edge 189, Type (0, 1), BuildingBlock: KIFKEQ_clean_linker_1, # of connection points: 2
#     Edge 190, Type (0, 1), BuildingBlock: KIFKEQ_clean_linker_1, # of connection points: 2
#     Edge 191, Type (0, 1), BuildingBlock: KIFKEQ_clean_linker_1, # of connection points: 2
#     Edge 192, Type (0, 1), BuildingBlock: KIFKEQ_clean_linker_1, # of connection points: 2
#     Edge 193, Type (0, 1), BuildingBlock: KIFKEQ_clean_linker_1, # of connection points: 2
#     Edge 194, Type (0, 1), BuildingBlock: KIFKEQ_clean_linker_1, # of connection points: 2
#     Edge 195, Type (0, 1), BuildingBlock: KIFKEQ_clean_linker_1, # of connection points: 2
#     Edge 196, Type (0, 1), BuildingBlock: KIFKEQ_clean_linker_1, # of connection points: 2
#     Edge 197, Type (0, 1), BuildingBlock: KIFKEQ_clean_linker_1, # of connection points: 2
#     Edge 198, Type (0, 1), BuildingBlock: KIFKEQ_clean_linker_1, # of connection points: 2
#     Edge 199, Type (0, 1), BuildingBlock: KIFKEQ_clean_linker_1, # of connection points: 2
#     Edge 200, Type (0, 1), BuildingBlock: KIFKEQ_clean_linker_1, # of connection points: 2
#     Edge 201, Type (0, 1), BuildingBlock: KIFKEQ_clean_linker_1, # of connection points: 2
#     Edge 202, Type (0, 1), BuildingBlock: KIFKEQ_clean_linker_1, # of connection points: 2
#     Edge 203, Type (0, 1), BuildingBlock: KIFKEQ_clean_linker_1, # of connection points: 2
#     Edge 204, Type (0, 1), BuildingBlock: KIFKEQ_clean_linker_1, # of connection points: 2
#     Edge 205, Type (0, 1), BuildingBlock: KIFKEQ_clean_linker_1, # of connection points: 2
#     Edge 206, Type (0, 1), BuildingBlock: KIFKEQ_clean_linker_1, # of connection points: 2
#     Edge 207, Type (0, 1), BuildingBlock: KIFKEQ_clean_linker_1, # of connection points: 2
#     Edge 208, Type (0, 1), BuildingBlock: KIFKEQ_clean_linker_1, # of connection points: 2
#     Edge 209, Type (0, 1), BuildingBlock: KIFKEQ_clean_linker_1, # of connection points: 2
#     Edge 210, Type (0, 1), BuildingBlock: KIFKEQ_clean_linker_1, # of connection points: 2
#     Edge 211, Type (0, 1), BuildingBlock: KIFKEQ_clean_linker_1, # of connection points: 2
#     Edge 212, Type (0, 1), BuildingBlock: KIFKEQ_clean_linker_1, # of connection points: 2
#     Edge 213, Type (0, 1), BuildingBlock: KIFKEQ_clean_linker_1, # of connection points: 2
#     Edge 214, Type (0, 1), BuildingBlock: KIFKEQ_clean_linker_1, # of connection points: 2
#     Edge 215, Type (0, 1), BuildingBlock: KIFKEQ_clean_linker_1, # of connection points: 2
#     Edge 216, Type (0, 1), BuildingBlock: KIFKEQ_clean_linker_1, # of connection points: 2
#     Edge 217, Type (0, 1), BuildingBlock: KIFKEQ_clean_linker_1, # of connection points: 2
#     Edge 218, Type (0, 1), BuildingBlock: KIFKEQ_clean_linker_1, # of connection points: 2
#     Edge 219, Type (0, 1), BuildingBlock: KIFKEQ_clean_linker_1, # of connection points: 2
#     Edge 220, Type (0, 1), BuildingBlock: KIFKEQ_clean_linker_1, # of connection points: 2
#     Edge 221, Type (0, 1), BuildingBlock: KIFKEQ_clean_linker_1, # of connection points: 2
#     Edge 222, Type (0, 1), BuildingBlock: KIFKEQ_clean_linker_1, # of connection points: 2
#     Edge 223, Type (0, 1), BuildingBlock: KIFKEQ_clean_linker_1, # of connection points: 2
#     Edge 224, Type (0, 1), BuildingBlock: KIFKEQ_clean_linker_1, # of connection points: 2
#     Edge 225, Type (0, 1), BuildingBlock: KIFKEQ_clean_linker_1, # of connection points: 2
#     Edge 226, Type (0, 1), BuildingBlock: KIFKEQ_clean_linker_1, # of connection points: 2
#     Edge 227, Type (0, 1), BuildingBlock: KIFKEQ_clean_linker_1, # of connection points: 2
#     Edge 228, Type (0, 1), BuildingBlock: KIFKEQ_clean_linker_1, # of connection points: 2
#     Edge 229, Type (0, 1), BuildingBlock: KIFKEQ_clean_linker_1, # of connection points: 2
#     Edge 230, Type (0, 1), BuildingBlock: KIFKEQ_clean_linker_1, # of connection points: 2
#     Edge 231, Type (0, 1), BuildingBlock: KIFKEQ_clean_linker_1, # of connection points: 2
#     Edge 232, Type (0, 1), BuildingBlock: KIFKEQ_clean_linker_1, # of connection points: 2
#     Edge 233, Type (0, 1), BuildingBlock: KIFKEQ_clean_linker_1, # of connection points: 2
#     Edge 234, Type (0, 1), BuildingBlock: KIFKEQ_clean_linker_1, # of connection points: 2
#     Edge 235, Type (0, 1), BuildingBlock: KIFKEQ_clean_linker_1, # of connection points: 2
#     Edge 236, Type (0, 1), BuildingBlock: KIFKEQ_clean_linker_1, # of connection points: 2
#     Edge 237, Type (0, 1), BuildingBlock: KIFKEQ_clean_linker_1, # of connection points: 2
#     Edge 238, Type (0, 1), BuildingBlock: KIFKEQ_clean_linker_1, # of connection points: 2
#     Edge 239, Type (0, 1), BuildingBlock: KIFKEQ_clean_linker_1, # of connection points: 2
# Relax obj value: 0.083
# Max RMSD: 0.079
# Mean RMSD: 0.068
data_MOF--net-bpr--node1-WUSLED_clean_sbu_0--node2-BELTOD_clean_linker_0--edge1-KIFKEQ_clean_linker_1
_symmetry_space_group_name_H-M    P1
_symmetry_Int_Tables_number       1
_symmetry_cell_setting            triclinic
loop_
_symmetry_equiv_pos_as_xyz
'x, y, z'
_cell_length_a     118.34028
_cell_length_b     118.96955
_cell_length_c     118.93413
_cell_angle_alpha  90.452417
_cell_angle_beta   90.337233
_cell_angle_gamma 90.353238
loop_
_atom_site_label
_atom_site_type_symbol
_atom_site_fract_x
_atom_site_fract_y
_atom_site_fract_z
_atom_type_partial_charge
C0 C 0.99387 0.38309 0.26636 0.0
C1 C 0.99251 0.37801 0.27688 0.0
C2 C 0.97591 0.38941 0.2805 0.0
C3 C 0.98358 0.38109 0.28385 0.0
C4 C 0.97728 0.39447 0.26994 0.0
C5 C 0.98618 0.39131 0.26291 0.0
U6 U 0.02405 0.37355 0.26445 0.0
O7 O 0.03266 0.36186 0.25302 0.0
O8 O 0.0383 0.37947 0.25423 0.0
C9 C 0.03944 0.3697 0.24914 0.0
C10 C 1.00366 0.38033 0.25931 0.0
C11 C 0.04071 0.37007 0.23687 0.0
C12 C 0.03293 0.37006 0.21791 0.0
C13 C 0.03134 0.37008 0.22958 0.0
C14 C 0.05322 0.37019 0.22082 0.0
C15 C 0.04391 0.37011 0.2134 0.0
C16 C 0.05162 0.37018 0.23242 0.0
C17 C 0.03981 0.36748 0.29157 0.0
C18 C 0.05909 0.36062 0.29119 0.0
C19 C 0.05061 0.3661 0.30889 0.0
C20 C 0.04061 0.3688 0.30325 0.0
C21 C 0.06 0.36203 0.30293 0.0
C22 C 0.04908 0.36335 0.28556 0.0
C23 C 0.02944 0.37081 0.28568 0.0
O24 O 0.01231 0.38725 0.26045 0.0
O25 O 0.00661 0.36969 0.25918 0.0
O26 O 0.02459 0.36292 0.2795 0.0
O27 O 0.03003 0.38055 0.2806 0.0
H28 H 0.99847 0.37177 0.27979 0.0
H29 H 0.98287 0.37718 0.29201 0.0
H30 H 0.97147 0.40088 0.26712 0.0
H31 H 0.98715 0.39538 0.25485 0.0
H32 H 0.02559 0.37006 0.21242 0.0
H33 H 0.02283 0.37002 0.23291 0.0
H34 H 0.06178 0.37001 0.21765 0.0
H35 H 0.05894 0.37013 0.23794 0.0
H36 H 0.06609 0.35738 0.28636 0.0
H37 H 0.05107 0.36745 0.3179 0.0
H38 H 0.03354 0.37206 0.30799 0.0
H39 H 0.0486 0.36231 0.27651 0.0
C40 C 0.87538 0.74087 0.53593 0.0
C41 C 0.87188 0.73813 0.54682 0.0
C42 C 0.87499 0.71827 0.54289 0.0
C43 C 0.87167 0.72693 0.55027 0.0
C44 C 0.87837 0.72109 0.53193 0.0
C45 C 0.87856 0.7323 0.52849 0.0
U46 U 0.8718 0.77181 0.54258 0.0
O47 O 0.88251 0.78641 0.53877 0.0
O48 O 0.86506 0.78564 0.53235 0.0
C49 C 0.87481 0.791 0.53227 0.0
C50 C 0.87599 0.75266 0.53241 0.0
C51 C 0.87865 0.79504 0.52124 0.0
C52 C 0.89245 0.79571 0.50617 0.0
C53 C 0.88859 0.79105 0.51622 0.0
C54 C 0.8763 0.80811 0.50581 0.0
C55 C 0.8864 0.80437 0.50092 0.0
C56 C 0.87249 0.80351 0.51588 0.0
C57 C 0.86188 0.78083 0.5715 0.0
C58 C 0.86153 0.8006 0.57671 0.0
C59 C 0.855 0.78653 0.58984 0.0
C60 C 0.85738 0.77808 0.58199 0.0
C61 C 0.85712 0.79789 0.58732 0.0
C62 C 0.86387 0.79214 0.56886 0.0
C63 C 0.86468 0.77189 0.56343 0.0
O64 O 0.86623 0.75782 0.53164 0.0
O65 O 0.88382 0.75872 0.53753 0.0
O66 O 0.87541 0.77135 0.56071 0.0
O67 O 0.85785 0.77097 0.55472 0.0
H68 H 0.86943 0.74468 0.55269 0.0
H69 H 0.86917 0.72507 0.55881 0.0
H70 H 0.88084 0.71462 0.52599 0.0
H71 H 0.88127 0.73429 0.52004 0.0
H72 H 0.90021 0.79258 0.50254 0.0
H73 H 0.89347 0.78446 0.52014 0.0
H74 H 0.87152 0.81485 0.50205 0.0
H75 H 0.86483 0.80675 0.51963 0.0
H76 H 0.86312 0.80927 0.57446 0.0
H77 H 0.85173 0.78416 0.59798 0.0
H78 H 0.85582 0.76938 0.58415 0.0
H79 H 0.86731 0.79441 0.56075 0.0
C80 C 0.48269 0.63558 0.72761 0.0
C81 C 0.47156 0.63908 0.72563 0.0
C82 C 0.47439 0.63736 0.70542 0.0
C83 C 0.46745 0.63997 0.71463 0.0
C84 C 0.48559 0.63395 0.70748 0.0
C85 C 0.48969 0.63307 0.71849 0.0
U86 U 0.47776 0.63718 0.75897 0.0
O87 O 0.4826 0.62581 0.77259 0.0
O88 O 0.48861 0.64334 0.77286 0.0
C89 C 0.4889 0.63345 0.7777 0.0
C90 C 0.48695 0.63434 0.73915 0.0
C91 C 0.49995 0.62972 0.78191 0.0
C92 C 0.51646 0.61767 0.78092 0.0
C93 C 0.50661 0.62196 0.77599 0.0
C94 C 0.51324 0.62915 0.7975 0.0
C95 C 0.51971 0.62103 0.79185 0.0
C96 C 0.50347 0.63343 0.79258 0.0
C97 C 0.44972 0.64566 0.7707 0.0
C98 C 0.44758 0.64517 0.79097 0.0
C99 C 0.43186 0.65082 0.77919 0.0
C100 C 0.43853 0.64928 0.76962 0.0
C101 C 0.43632 0.64876 0.78999 0.0
C102 C 0.45422 0.64365 0.78142 0.0
C103 C 0.45673 0.64374 0.76073 0.0
O104 O 0.48786 0.64374 0.74498 0.0
O105 O 0.4823 0.62611 0.74484 0.0
O106 O 0.45959 0.6332 0.75907 0.0
O107 O 0.46524 0.65078 0.75963 0.0
H108 H 0.46603 0.64101 0.73261 0.0
H109 H 0.45876 0.64248 0.71336 0.0
H110 H 0.4912 0.63202 0.70058 0.0
H111 H 0.49831 0.63038 0.71988 0.0
H112 H 0.52126 0.6114 0.77638 0.0
H113 H 0.50404 0.619 0.76772 0.0
H114 H 0.51564 0.63206 0.80583 0.0
H115 H 0.49845 0.63943 0.79726 0.0
H116 H 0.45123 0.64329 0.7991 0.0
H117 H 0.42325 0.65368 0.77816 0.0
H118 H 0.43495 0.65088 0.76138 0.0
H119 H 0.46284 0.6408 0.7824 0.0
C120 C 0.62269 0.27231 0.04465 0.0
C121 C 0.62436 0.27449 0.05615 0.0
C122 C 0.62567 0.29455 0.05251 0.0
C123 C 0.62579 0.2855 0.06004 0.0
C124 C 0.62414 0.29232 0.04096 0.0
C125 C 0.62262 0.28126 0.03706 0.0
U126 U 0.62472 0.24159 0.051 0.0
O127 O 0.61323 0.22737 0.04752 0.0
O128 O 0.63061 0.22708 0.04115 0.0
C129 C 0.62068 0.22209 0.04128 0.0
C130 C 0.62121 0.26066 0.0407 0.0
C131 C 0.61652 0.21793 0.03037 0.0
C132 C 0.61021 0.2211 0.01119 0.0
C133 C 0.61389 0.22532 0.02162 0.0
C134 C 0.61165 0.20211 0.01826 0.0
C135 C 0.6091 0.20943 0.00938 0.0
C136 C 0.61532 0.20633 0.02865 0.0
C137 C 0.63547 0.2336 0.08005 0.0
C138 C 0.63433 0.21449 0.087 0.0
C139 C 0.64533 0.22852 0.0972 0.0
C140 C 0.64242 0.23655 0.08919 0.0
C141 C 0.64127 0.21742 0.09622 0.0
C142 C 0.63149 0.22251 0.07895 0.0
C143 C 0.63251 0.24212 0.07169 0.0
O144 O 0.63063 0.25494 0.03969 0.0
O145 O 0.61317 0.25501 0.04579 0.0
O146 O 0.62171 0.24282 0.06918 0.0
O147 O 0.63907 0.24244 0.06283 0.0
H148 H 0.62456 0.26766 0.06212 0.0
H149 H 0.62717 0.28691 0.06896 0.0
H150 H 0.62398 0.29913 0.03497 0.0
H151 H 0.6214 0.2797 0.02815 0.0
H152 H 0.60822 0.22697 0.00457 0.0
H153 H 0.61475 0.23432 0.02284 0.0
H154 H 0.61107 0.19308 0.01711 0.0
H155 H 0.61735 0.20051 0.03533 0.0
H156 H 0.63119 0.20598 0.08594 0.0
H157 H 0.6506 0.23105 0.10427 0.0
H158 H 0.64559 0.24507 0.09014 0.0
H159 H 0.62619 0.22007 0.07187 0.0
C160 C 1.00003 0.6236 0.24101 0.0
C161 C 1.00238 0.61862 0.23055 0.0
C162 C 0.98229 0.61626 0.22678 0.0
C163 C 0.9936 0.61492 0.22354 0.0
C164 C 0.97994 0.62137 0.2372 0.0
C165 C 0.98876 0.62498 0.24429 0.0
U166 U 0.0298 0.63445 0.24337 0.0
O167 O 0.03778 0.64745 0.25407 0.0
O168 O 0.04389 0.63005 0.25459 0.0
C169 C 0.04465 0.64025 0.25886 0.0
C170 C 0.00933 0.62766 0.24826 0.0
C171 C 0.04563 0.6409 0.27115 0.0
C172 C 0.03746 0.64109 0.28986 0.0
C173 C 0.03611 0.6406 0.27814 0.0
C174 C 0.05778 0.64214 0.28759 0.0
C175 C 0.04833 0.64178 0.2947 0.0
C176 C 0.05643 0.64169 0.27595 0.0
C177 C 0.04632 0.63792 0.21631 0.0
C178 C 0.06663 0.64099 0.2164 0.0
C179 C 0.05604 0.64226 0.19895 0.0
C180 C 0.04606 0.63982 0.2047 0.0
C181 C 0.06644 0.64278 0.20472 0.0
C182 C 0.05664 0.63862 0.22215 0.0
C183 C 0.03583 0.63506 0.22219 0.0
O184 O 0.01819 0.62106 0.24866 0.0
O185 O 0.01201 0.63833 0.24707 0.0
O186 O 0.03084 0.64349 0.22732 0.0
O187 O 0.03626 0.62592 0.22831 0.0
H188 H 0.01102 0.61763 0.22776 0.0
H189 H 0.99568 0.6112 0.21547 0.0
H190 H 0.97129 0.62248 0.23991 0.0
H191 H 0.98679 0.62888 0.2523 0.0
H192 H 0.03003 0.64075 0.29513 0.0
H193 H 0.0277 0.63994 0.27455 0.0
H194 H 0.06625 0.64288 0.29103 0.0
H195 H 0.06385 0.64196 0.27066 0.0
H196 H 0.07449 0.64148 0.22109 0.0
H197 H 0.05564 0.64349 0.18994 0.0
H198 H 0.03816 0.63931 0.20008 0.0
H199 H 0.05696 0.63725 0.23115 0.0
C200 C 0.62922 0.73908 0.46751 0.0
C201 C 0.63481 0.7373 0.45729 0.0
C202 C 0.63295 0.71706 0.45951 0.0
C203 C 0.63668 0.7264 0.45334 0.0
C204 C 0.62727 0.71888 0.46972 0.0
C205 C 0.62544 0.72983 0.4737 0.0
U206 U 0.63 0.77002 0.4616 0.0
O207 O 0.61834 0.78375 0.4657 0.0
O208 O 0.63594 0.78451 0.47166 0.0
C209 C 0.62588 0.78911 0.47193 0.0
C210 C 0.62724 0.75061 0.47153 0.0
C211 C 0.62214 0.79302 0.48306 0.0
C212 C 0.61109 0.79083 0.50008 0.0
C213 C 0.61447 0.78681 0.48953 0.0
C214 C 0.62313 0.80719 0.49782 0.0
C215 C 0.61538 0.80109 0.50435 0.0
C216 C 0.62644 0.8032 0.48729 0.0
C217 C 0.64003 0.77918 0.43277 0.0
C218 C 0.63978 0.7988 0.4273 0.0
C219 C 0.64799 0.78481 0.41492 0.0
C220 C 0.64542 0.77643 0.42269 0.0
C221 C 0.64518 0.79609 0.41713 0.0
C222 C 0.63725 0.79041 0.43507 0.0
C223 C 0.63739 0.7703 0.44085 0.0
O224 O 0.63642 0.7568 0.47271 0.0
O225 O 0.61899 0.75588 0.46639 0.0
O226 O 0.62665 0.76924 0.44342 0.0
O227 O 0.64412 0.76991 0.44966 0.0
H228 H 0.63769 0.74436 0.45235 0.0
H229 H 0.64089 0.72529 0.44535 0.0
H230 H 0.62435 0.71186 0.47468 0.0
H231 H 0.62108 0.73108 0.4816 0.0
H232 H 0.60504 0.78595 0.50483 0.0
H233 H 0.61108 0.77888 0.48643 0.0
H234 H 0.62681 0.81498 0.50092 0.0
H235 H 0.63243 0.80807 0.48244 0.0
H236 H 0.63763 0.80741 0.4293 0.0
H237 H 0.65203 0.78244 0.40711 0.0
H238 H 0.64762 0.76779 0.4208 0.0
H239 H 0.63314 0.79267 0.44288 0.0
C240 C 0.50821 0.38318 0.74803 0.0
C241 C 0.50743 0.38267 0.73627 0.0
C242 C 0.52736 0.38747 0.7347 0.0
C243 C 0.51689 0.3848 0.72968 0.0
C244 C 0.52808 0.38817 0.74651 0.0
C245 C 0.51855 0.38601 0.75314 0.0
U246 U 0.47804 0.3742 0.74794 0.0
O247 O 0.46838 0.36212 0.75803 0.0
O248 O 0.46313 0.37978 0.75737 0.0
C249 C 0.46151 0.36985 0.7619 0.0
C250 C 0.49819 0.38052 0.75477 0.0
C251 C 0.45976 0.36986 0.77411 0.0
C252 C 0.46648 0.37312 0.7932 0.0
C253 C 0.46842 0.37306 0.7816 0.0
C254 C 0.44726 0.36672 0.78987 0.0
C255 C 0.45585 0.37 0.79747 0.0
C256 C 0.44921 0.36666 0.77831 0.0
C257 C 0.46566 0.36943 0.71828 0.0
C258 C 0.44601 0.36489 0.71421 0.0
C259 C 0.4594 0.36684 0.699 0.0
C260 C 0.46799 0.36916 0.70677 0.0
C261 C 0.44829 0.36472 0.7026 0.0
C262 C 0.45465 0.36723 0.72201 0.0
C263 C 0.47481 0.37235 0.72615 0.0
O264 O 0.48976 0.38756 0.75357 0.0
O265 O 0.49498 0.36993 0.75424 0.0
O266 O 0.47862 0.36411 0.73238 0.0
O267 O 0.47355 0.38181 0.73176 0.0
H268 H 0.49948 0.38055 0.73218 0.0
H269 H 0.516 0.38437 0.72061 0.0
H270 H 0.53604 0.39014 0.75063 0.0
H271 H 0.51929 0.38643 0.76222 0.0
H272 H 0.47324 0.37579 0.79882 0.0
H273 H 0.47663 0.37557 0.77846 0.0
H274 H 0.43904 0.3641 0.79287 0.0
H275 H 0.44246 0.36412 0.77262 0.0
H276 H 0.43756 0.36322 0.71726 0.0
H277 H 0.46143 0.36699 0.69013 0.0
H278 H 0.47645 0.37091 0.70377 0.0
H279 H 0.45273 0.36741 0.73091 0.0
C280 C 0.87753 0.23897 1.00364 0.0
C281 C 0.87577 0.2273 1.00323 0.0
C282 C 0.88397 0.22543 0.02193 0.0
C283 C 0.87893 0.22061 0.01228 0.0
C284 C 0.88571 0.23715 0.02231 0.0
C285 C 0.8825 0.24387 0.01323 0.0
U286 U 0.86931 0.23972 0.97324 0.0
O287 O 0.85708 0.24987 0.96377 0.0
O288 O 0.87503 0.25014 0.95919 0.0
C289 C 0.86495 0.2544 0.95746 0.0
C290 C 0.87462 0.24582 0.99383 0.0
C291 C 0.86462 0.26668 0.95645 0.0
C292 C 0.86757 0.28541 0.96423 0.0
C293 C 0.86745 0.27373 0.96555 0.0
C294 C 0.86188 0.28305 0.94474 0.0
C295 C 0.86486 0.29021 0.95377 0.0
C296 C 0.86176 0.2714 0.94608 0.0
C297 C 0.86696 0.21086 0.95851 0.0
C298 C 0.85561 0.20451 0.94253 0.0
C299 C 0.8732 0.19518 0.94697 0.0
C300 C 0.87487 0.20247 0.95608 0.0
C301 C 0.86353 0.19608 0.94013 0.0
C302 C 0.85733 0.21189 0.95162 0.0
C303 C 0.86891 0.21817 0.96842 0.0
O304 O 0.88202 0.24542 0.98564 0.0
O305 O 0.86412 0.24476 0.99027 0.0
O306 O 0.86013 0.2236 0.97241 0.0
O307 O 0.87817 0.2243 0.96819 0.0
H308 H 0.87206 0.22335 0.99583 0.0
H309 H 0.87766 0.2116 0.01161 0.0
H310 H 0.88952 0.24112 0.02965 0.0
H311 H 0.88397 0.25286 0.01365 0.0
H312 H 0.86979 0.29068 0.97138 0.0
H313 H 0.86967 0.27019 0.97363 0.0
H314 H 0.85992 0.28644 0.93653 0.0
H315 H 0.85961 0.26606 0.93895 0.0
H316 H 0.84812 0.20544 0.93735 0.0
H317 H 0.87937 0.18867 0.94543 0.0
H318 H 0.88232 0.20149 0.96132 0.0
H319 H 0.85111 0.21832 0.95328 0.0
C320 C 0.24339 0.02956 0.36521 0.0
C321 C 0.24101 0.04055 0.36175 0.0
C322 C 0.22081 0.03667 0.36285 0.0
C323 C 0.22982 0.04407 0.36057 0.0
C324 C 0.22328 0.02561 0.36616 0.0
C325 C 0.23448 0.0221 0.36734 0.0
U326 U 0.27466 0.03629 0.36499 0.0
O327 O 0.28811 0.03246 0.37714 0.0
O328 O 0.28933 0.02629 0.35973 0.0
C329 C 0.29384 0.02643 0.36986 0.0
C330 C 0.25512 0.026 0.36695 0.0
C331 C 0.29822 0.01571 0.37399 0.0
C332 C 0.29569 0.99742 0.38264 0.0
C333 C 0.29108 0.00728 0.37819 0.0
C334 C 0.31452 1.00432 0.37852 0.0
C335 C 0.30748 0.99593 0.38299 0.0
C336 C 0.30992 0.01411 0.37408 0.0
C337 C 0.28531 0.06485 0.35694 0.0
C338 C 0.3052 0.06902 0.35994 0.0
C339 C 0.29331 0.08242 0.35029 0.0
C340 C 0.28403 0.07517 0.3515 0.0
C341 C 0.30401 0.07942 0.35453 0.0
C342 C 0.29596 0.0618 0.36109 0.0
C343 C 0.27563 0.05723 0.35834 0.0
O344 O 0.26131 0.0254 0.35782 0.0
O345 O 0.26036 0.03097 0.37542 0.0
O346 O 0.27362 0.05436 0.36879 0.0
O347 O 0.27531 0.04865 0.35131 0.0
H348 H 0.24782 0.04644 0.36012 0.0
H349 H 0.22823 0.05268 0.35815 0.0
H350 H 0.21655 0.01966 0.36784 0.0
H351 H 0.23619 0.01358 0.37 0.0
H352 H 0.29006 0.99112 0.38606 0.0
H353 H 0.282 0.00841 0.37818 0.0
H354 H 0.32361 1.00334 0.37847 0.0
H355 H 0.31555 0.02051 0.37082 0.0
H356 H 0.31324 0.06652 0.36349 0.0
H357 H 0.29213 0.0903 0.34598 0.0
H358 H 0.27586 0.07762 0.3482 0.0
H359 H 0.2971 0.05384 0.36532 0.0
C360 C 0.23191 0.00906 0.63755 0.0
C361 C 0.22011 0.00983 0.63822 0.0
C362 C 0.21818 0.99005 0.63323 0.0
C363 C 0.21331 1.00043 0.63609 0.0
C364 C 0.23002 0.98933 0.63242 0.0
C365 C 0.23684 0.99878 0.63459 0.0
U366 U 0.23275 0.03966 0.64461 0.0
O367 O 0.24306 0.04969 0.65648 0.0
O368 O 0.24311 0.0537 0.63849 0.0
C369 C 0.24762 0.0557 0.64844 0.0
C370 C 0.2389 0.01904 0.63995 0.0
C371 C 0.26 0.05646 0.64868 0.0
C372 C 0.27843 0.04822 0.64546 0.0
C373 C 0.26665 0.04726 0.6455 0.0
C374 C 0.27701 0.06752 0.65194 0.0
C375 C 0.28375 0.05838 0.64863 0.0
C376 C 0.26524 0.06656 0.65196 0.0
C377 C 0.20338 0.05329 0.64685 0.0
C378 C 0.19936 0.07205 0.65394 0.0
C379 C 0.18476 0.06126 0.6443 0.0
C380 C 0.19229 0.05241 0.6428 0.0
C381 C 0.18816 0.07116 0.64994 0.0
C382 C 0.20693 0.06316 0.65239 0.0
C383 C 0.21101 0.04377 0.64507 0.0
O384 O 0.23828 0.02694 0.63232 0.0
O385 O 0.23808 0.02295 0.65028 0.0
O386 O 0.21676 0.04041 0.65389 0.0
O387 O 0.21702 0.04411 0.63583 0.0
H388 H 0.21616 0.01774 0.64042 0.0
H389 H 0.20423 1.00131 0.63661 0.0
H390 H 0.23401 0.98143 0.63031 0.0
H391 H 0.24594 0.99806 0.63402 0.0
H392 H 0.28338 0.04099 0.64298 0.0
H393 H 0.26271 0.03938 0.64298 0.0
H394 H 0.28082 0.07551 0.65428 0.0
H395 H 0.26021 0.07374 0.65442 0.0
H396 H 0.20224 0.07954 0.65836 0.0
H397 H 0.17629 0.06037 0.64088 0.0
H398 H 0.18945 0.04488 0.63843 0.0
H399 H 0.21551 0.06398 0.65553 0.0
C400 C 0.22942 0.99932 0.87668 0.0
C401 C 0.21759 0.99854 0.87675 0.0
C402 C 0.21626 0.01841 0.88151 0.0
C403 C 0.21108 0.00799 0.87914 0.0
C404 C 0.22815 0.01912 0.88161 0.0
C405 C 0.23468 0.00963 0.87918 0.0
U406 U 0.22931 0.9689 0.86882 0.0
O407 O 0.23885 0.95911 0.85635 0.0
O408 O 0.23963 0.9546 0.87421 0.0
C409 C 0.24358 0.95278 0.86405 0.0
C410 C 0.2361 0.98934 0.87383 0.0
C411 C 0.25589 0.95167 0.86331 0.0
C412 C 0.27484 0.9593 0.86575 0.0
C413 C 0.26311 0.96064 0.86624 0.0
C414 C 0.27219 0.94009 0.85927 0.0
C415 C 0.27952 0.94898 0.86234 0.0
C416 C 0.26049 0.94144 0.85976 0.0
C417 C 0.19966 0.95549 0.86699 0.0
C418 C 0.19516 0.937 0.85931 0.0
C419 C 0.18105 0.94741 0.86971 0.0
C420 C 0.18874 0.9562 0.87134 0.0
C421 C 0.18412 0.93772 0.86361 0.0
C422 C 0.20289 0.94583 0.861 0.0
C423 C 0.20747 0.96495 0.86888 0.0
O424 O 0.23561 0.98124 0.88127 0.0
O425 O 0.23477 0.98571 0.86344 0.0
O426 O 0.21293 0.9686 0.86001 0.0
O427 O 0.21386 0.9643 0.87792 0.0
H428 H 0.21339 0.99062 0.87489 0.0
H429 H 0.20196 0.00711 0.87917 0.0
H430 H 0.23238 0.02705 0.88331 0.0
H431 H 0.24381 0.01036 0.87915 0.0
H432 H 0.28024 0.96627 0.86827 0.0
H433 H 0.25967 0.96861 0.869 0.0
H434 H 0.27551 0.9321 0.85645 0.0
H435 H 0.25502 0.93446 0.85742 0.0
H436 H 0.19778 0.92969 0.85454 0.0
H437 H 0.17272 0.94815 0.87335 0.0
H438 H 0.18615 0.96357 0.87606 0.0
H439 H 0.21134 0.94514 0.85761 0.0
C440 C 0.24142 0.97931 0.14087 0.0
C441 C 0.24073 0.96844 0.14532 0.0
C442 C 0.22019 0.96942 0.14519 0.0
C443 C 0.23022 0.96355 0.14747 0.0
C444 C 0.22093 0.9803 0.14069 0.0
C445 C 0.23148 0.98521 0.13856 0.0
U446 U 0.27295 0.97596 0.13894 0.0
O447 O 0.28534 0.98191 0.12663 0.0
O448 O 0.28706 0.98689 0.1444 0.0
C449 C 0.29083 0.9881 0.1341 0.0
C450 C 0.25251 0.98433 0.13851 0.0
C451 C 0.29405 0.99963 0.1308 0.0
C452 C 0.2947 0.01473 0.11712 0.0
C453 C 0.29037 1.00437 0.12063 0.0
C454 C 0.30611 0.01596 0.13405 0.0
C455 C 0.30276 0.02056 0.12371 0.0
C456 C 0.30183 0.0056 0.13753 0.0
C457 C 0.28588 0.94774 0.14529 0.0
C458 C 0.30582 0.9447 0.14181 0.0
C459 C 0.29475 0.9304 0.1512 0.0
C460 C 0.28517 0.93719 0.1504 0.0
C461 C 0.30519 0.93407 0.14689 0.0
C462 C 0.29626 0.95149 0.14106 0.0
C463 C 0.27582 0.95484 0.1444 0.0
O464 O 0.25931 0.98527 0.14726 0.0
O465 O 0.25755 0.98031 0.12953 0.0
O466 O 0.27329 0.95808 0.13416 0.0
O467 O 0.27524 0.96301 0.15187 0.0
H468 H 0.24834 0.96372 0.14706 0.0
H469 H 0.22995 0.95509 0.15076 0.0
H470 H 0.21336 0.98506 0.13891 0.0
H471 H 0.23188 0.99361 0.13511 0.0
H472 H 0.29187 0.01811 0.10916 0.0
H473 H 0.28437 0.99996 0.11525 0.0
H474 H 0.31243 0.02014 0.13926 0.0
H475 H 0.3049 1.00207 0.14534 0.0
H476 H 0.31365 0.94773 0.13825 0.0
H477 H 0.294 0.92233 0.15529 0.0
H478 H 0.27722 0.93422 0.15376 0.0
H479 H 0.29695 0.95963 0.1371 0.0
C480 C 0.37557 0.24101 0.03644 0.0
C481 C 0.37102 0.23837 0.04696 0.0
C482 C 0.3742 0.21845 0.04345 0.0
C483 C 0.37033 0.2272 0.05043 0.0
C484 C 0.3786 0.22115 0.03282 0.0
C485 C 0.37929 0.23235 0.02935 0.0
U486 U 0.37331 0.27169 0.04396 0.0
O487 O 0.38473 0.28598 0.04101 0.0
O488 O 0.36736 0.2863 0.0344 0.0
C489 C 0.37724 0.29138 0.03492 0.0
C490 C 0.37682 0.2528 0.03308 0.0
C491 C 0.38141 0.29612 0.02437 0.0
C492 C 0.39029 0.29423 0.00608 0.0
C493 C 0.38597 0.28933 0.01585 0.0
C494 C 0.38538 0.31268 0.01327 0.0
C495 C 0.39015 0.30599 0.00476 0.0
C496 C 0.38106 0.30778 0.02298 0.0
C497 C 0.36339 0.27986 0.07309 0.0
C498 C 0.36584 0.29889 0.08028 0.0
C499 C 0.35377 0.28574 0.0901 0.0
C500 C 0.35616 0.27747 0.08205 0.0
C501 C 0.35862 0.29655 0.08935 0.0
C502 C 0.36815 0.29064 0.07221 0.0
C503 C 0.36589 0.27113 0.06469 0.0
O504 O 0.36733 0.25845 0.03231 0.0
O505 O 0.38485 0.25836 0.03844 0.0
O506 O 0.37662 0.27014 0.06207 0.0
O507 O 0.35914 0.27089 0.05587 0.0
H508 H 0.36811 0.24498 0.05254 0.0
H509 H 0.36675 0.22542 0.05859 0.0
H510 H 0.38177 0.21463 0.02729 0.0
H511 H 0.38288 0.23426 0.02122 0.0
H512 H 0.39396 0.28887 0.9997 0.0
H513 H 0.3863 0.28029 0.01682 0.0
H514 H 0.38494 0.32172 0.01243 0.0
H515 H 0.37753 0.31314 0.02946 0.0
H516 H 0.36985 0.30705 0.0795 0.0
H517 H 0.34804 0.28369 0.09686 0.0
H518 H 0.35235 0.26921 0.08281 0.0
H519 H 0.37373 0.29266 0.0653 0.0
C520 C 0.0088 0.88388 0.24766 0.0
C521 C 0.00815 0.88343 0.23589 0.0
C522 C 0.02771 0.88971 0.23456 0.0
C523 C 0.01751 0.88631 0.2294 0.0
C524 C 0.02831 0.89017 0.24639 0.0
C525 C 0.0189 0.88729 0.25289 0.0
U526 U 0.97886 0.87369 0.24778 0.0
O527 O 0.96983 0.86134 0.25812 0.0
O528 O 0.96395 0.87879 0.25744 0.0
C529 C 0.96275 0.86886 0.26206 0.0
C530 C 0.99888 0.88072 0.25434 0.0
C531 C 0.96118 0.86889 0.27429 0.0
C532 C 0.96767 0.87334 0.29323 0.0
C533 C 0.96952 0.87316 0.28161 0.0
C534 C 0.94922 0.86485 0.29026 0.0
C535 C 0.95745 0.86925 0.29768 0.0
C536 C 0.95107 0.86468 0.27867 0.0
C537 C 0.96563 0.86845 0.2187 0.0
C538 C 0.94554 0.86573 0.21526 0.0
C539 C 0.95886 0.86368 0.19998 0.0
C540 C 0.96776 0.8661 0.20737 0.0
C541 C 0.94763 0.86359 0.2038 0.0
C542 C 0.95449 0.86812 0.22267 0.0
C543 C 0.9751 0.87166 0.2261 0.0
O544 O 0.99018 0.88745 0.25324 0.0
O545 O 0.99609 0.87002 0.25371 0.0
O546 O 0.97938 0.86357 0.23221 0.0
O547 O 0.97386 0.88114 0.23169 0.0
H548 H 1.00041 0.88078 0.23171 0.0
H549 H 0.0168 0.88566 0.22034 0.0
H550 H 0.03601 0.89284 0.25062 0.0
H551 H 0.01952 0.8877 0.26198 0.0
H552 H 0.97414 0.87688 0.2987 0.0
H553 H 0.97739 0.87645 0.27833 0.0
H554 H 0.94134 0.86146 0.2934 0.0
H555 H 0.94458 0.8613 0.27313 0.0
H556 H 0.937 0.86562 0.21848 0.0
H557 H 0.96075 0.86225 0.19119 0.0
H558 H 0.97632 0.86636 0.20418 0.0
H559 H 0.95271 0.86987 0.23143 0.0
C560 C 0.13015 0.77341 0.54244 0.0
C561 C 0.135 0.77545 0.55306 0.0
C562 C 0.13382 0.79562 0.5501 0.0
C563 C 0.13684 0.78644 0.55684 0.0
C564 C 0.12887 0.79354 0.53949 0.0
C565 C 0.12708 0.7825 0.53567 0.0
U566 U 0.13018 0.74279 0.54946 0.0
O567 O 0.11879 0.72879 0.54488 0.0
O568 O 0.1368 0.72799 0.54055 0.0
C569 C 0.12675 0.72332 0.53949 0.0
C570 C 0.12827 0.76178 0.53862 0.0
C571 C 0.12394 0.71902 0.52815 0.0
C572 C 0.113 0.71945 0.51077 0.0
C573 C 0.11536 0.72378 0.52152 0.0
C574 C 0.1278 0.70567 0.51315 0.0
C575 C 0.11926 0.7104 0.50646 0.0
C576 C 0.13008 0.70992 0.52389 0.0
C577 C 0.13841 0.73501 0.57936 0.0
C578 C 0.13847 0.7156 0.58552 0.0
C579 C 0.14532 0.73039 0.59799 0.0
C580 C 0.143 0.73836 0.58974 0.0
C581 C 0.14308 0.71891 0.59598 0.0
C582 C 0.13617 0.72359 0.57727 0.0
C583 C 0.1362 0.74345 0.57072 0.0
O584 O 0.13742 0.75558 0.53834 0.0
O585 O 0.11964 0.75666 0.54329 0.0
O586 O 0.12564 0.74416 0.56732 0.0
O587 O 0.14348 0.74362 0.56242 0.0
H588 H 0.13734 0.76852 0.55844 0.0
H589 H 0.14046 0.78774 0.56513 0.0
H590 H 0.1265 0.80045 0.5341 0.0
H591 H 0.1233 0.78105 0.52747 0.0
H592 H 0.10643 0.7233 0.50576 0.0
H593 H 0.11054 0.73086 0.52461 0.0
H594 H 0.13266 0.6986 0.5101 0.0
H595 H 0.1367 0.7061 0.52888 0.0
H596 H 0.13652 0.70686 0.58375 0.0
H597 H 0.14902 0.7332 0.60588 0.0
H598 H 0.14484 0.74714 0.59144 0.0
H599 H 0.13264 0.72087 0.56926 0.0
C600 C 0.9928 0.63967 0.7562 0.0
C601 C 0.98405 0.64754 0.75532 0.0
C602 C 0.97987 0.64556 0.77525 0.0
C603 C 0.97771 0.65051 0.76475 0.0
C604 C 0.98878 0.63781 0.77612 0.0
C605 C 0.99519 0.63492 0.76669 0.0
U606 U 0.99259 0.63003 0.72582 0.0
O607 O 1.0036 0.63396 0.71158 0.0
O608 O 1.00187 0.6165 0.71722 0.0
C609 C 0.00707 0.62353 0.7105 0.0
C610 C 0.99902 0.63582 0.74618 0.0
C611 C 0.01934 0.62206 0.70947 0.0
C612 C 0.03863 0.62702 0.71468 0.0
C613 C 0.02698 0.62799 0.7164 0.0
C614 C 0.03508 0.61389 0.69937 0.0
C615 C 0.04281 0.62008 0.70603 0.0
C616 C 0.02347 0.61489 0.70107 0.0
C617 C 0.96458 0.62822 0.71029 0.0
C618 C 0.96394 0.6238 0.69033 0.0
C619 C 0.94652 0.62585 0.70076 0.0
C620 C 0.95275 0.6281 0.71056 0.0
C621 C 0.95205 0.62372 0.69053 0.0
C622 C 0.97015 0.62601 0.70014 0.0
C623 C 0.97104 0.63069 0.72058 0.0
O624 O 0.99704 0.62533 0.74316 0.0
O625 O 0.99923 0.64278 0.73764 0.0
O626 O 0.97779 0.63948 0.72004 0.0
O627 O 0.97581 0.62195 0.7253 0.0
H628 H 0.98197 0.6513 0.74731 0.0
H629 H 0.97105 0.65664 0.76379 0.0
H630 H 0.99059 0.63368 0.784 0.0
H631 H 1.00184 0.62877 0.76754 0.0
H632 H 0.04433 0.63198 0.7199 0.0
H633 H 0.02393 0.63355 0.72296 0.0
H634 H 0.03801 0.60831 0.69277 0.0
H635 H 0.01768 0.6102 0.69569 0.0
H636 H 0.96844 0.62205 0.68261 0.0
H637 H 0.93738 0.62597 0.70116 0.0
H638 H 0.94833 0.6298 0.71834 0.0
H639 H 0.9793 0.62601 0.69981 0.0
C640 C 0.12733 0.25262 0.47376 0.0
C641 C 0.12469 0.25183 0.46227 0.0
C642 C 0.13223 0.27064 0.4593 0.0
C643 C 0.12708 0.26076 0.45512 0.0
C644 C 0.13485 0.27141 0.47084 0.0
C645 C 0.1324 0.26246 0.47803 0.0
U646 U 0.12129 0.2218 0.47605 0.0
O647 O 0.12816 0.20874 0.48712 0.0
O648 O 0.1099 0.21204 0.4868 0.0
C649 C 0.11824 0.20653 0.49154 0.0
C650 C 0.1253 0.24293 0.48108 0.0
C651 C 0.118 0.20585 0.50386 0.0
C652 C 0.11536 0.21428 0.52234 0.0
C653 C 0.11586 0.21532 0.51063 0.0
C654 C 0.11933 0.19438 0.52056 0.0
C655 C 0.11709 0.20378 0.52743 0.0
C656 C 0.11978 0.19542 0.5089 0.0
C657 C 0.11886 0.20522 0.44862 0.0
C658 C 0.11517 0.18512 0.44839 0.0
C659 C 0.1182 0.19499 0.4309 0.0
C660 C 0.11963 0.20506 0.43688 0.0
C661 C 0.11598 0.18489 0.43659 0.0
C662 C 0.1166 0.19521 0.45436 0.0
C663 C 0.1206 0.21583 0.45477 0.0
O664 O 0.11505 0.23863 0.48047 0.0
O665 O 0.13326 0.23528 0.4808 0.0
O666 O 0.13001 0.21648 0.46065 0.0
O667 O 0.11177 0.2196 0.46024 0.0
H668 H 0.12092 0.24423 0.4588 0.0
H669 H 0.12515 0.25981 0.44625 0.0
H670 H 0.13877 0.27893 0.47431 0.0
H671 H 0.13456 0.26316 0.48687 0.0
H672 H 0.11369 0.22168 0.52742 0.0
H673 H 0.11451 0.22346 0.50686 0.0
H674 H 0.12051 0.18614 0.52419 0.0
H675 H 0.12141 0.18803 0.5038 0.0
H676 H 0.11334 0.17752 0.45301 0.0
H677 H 0.11904 0.19508 0.42184 0.0
H678 H 0.12142 0.21272 0.43234 0.0
H679 H 0.11598 0.19521 0.46345 0.0
C680 C 0.47873 0.38296 0.22989 0.0
C681 C 0.47711 0.38998 0.22061 0.0
C682 C 0.45683 0.38632 0.22105 0.0
C683 C 0.46626 0.39169 0.21626 0.0
C684 C 0.45853 0.3793 0.23039 0.0
C685 C 0.46938 0.37766 0.23477 0.0
U686 U 0.51042 0.382 0.22564 0.0
O687 O 0.52456 0.38725 0.23662 0.0
O688 O 0.52303 0.36965 0.23105 0.0
C689 C 0.52856 0.377 0.23734 0.0
C690 C 0.49014 0.38081 0.2343 0.0
C691 C 0.53175 0.37329 0.24867 0.0
C692 C 0.52757 0.36404 0.26632 0.0
C693 C 0.5241 0.36769 0.25568 0.0
C694 C 0.54628 0.37169 0.26302 0.0
C695 C 0.53874 0.36595 0.27008 0.0
C696 C 0.54281 0.3753 0.25242 0.0
C697 C 0.52352 0.38936 0.19802 0.0
C698 C 0.54395 0.38856 0.19679 0.0
C699 C 0.53277 0.39214 0.18007 0.0
C700 C 0.52288 0.39152 0.18647 0.0
C701 C 0.54341 0.39055 0.18516 0.0
C702 C 0.5341 0.38795 0.20315 0.0
C703 C 0.51321 0.38818 0.20473 0.0
O704 O 0.49526 0.37211 0.22981 0.0
O705 O 0.49674 0.3897 0.23539 0.0
O706 O 0.51234 0.39538 0.21312 0.0
O707 O 0.51077 0.37781 0.2076 0.0
H708 H 0.48424 0.3941 0.21668 0.0
H709 H 0.46526 0.39726 0.20917 0.0
H710 H 0.45151 0.37488 0.23418 0.0
H711 H 0.4705 0.37213 0.24188 0.0
H712 H 0.52158 0.35959 0.27153 0.0
H713 H 0.5155 0.36608 0.25291 0.0
H714 H 0.55485 0.37353 0.26572 0.0
H715 H 0.5488 0.37967 0.24713 0.0
H716 H 0.55201 0.38749 0.201 0.0
H717 H 0.53206 0.39359 0.17112 0.0
H718 H 0.51475 0.39258 0.18239 0.0
H719 H 0.53474 0.38628 0.21207 0.0
C720 C 0.38067 0.75647 0.98104 0.0
C721 C 0.37654 0.75726 0.96999 0.0
C722 C 0.37559 0.73686 0.96848 0.0
C723 C 0.37398 0.74755 0.96378 0.0
C724 C 0.37965 0.73612 0.9796 0.0
C725 C 0.38216 0.74585 0.98583 0.0
U726 U 0.38742 0.78746 0.98118 0.0
O727 O 0.38277 0.80115 0.99274 0.0
O728 O 0.40067 0.79727 0.98995 0.0
C729 C 0.39332 0.80329 0.9956 0.0
C730 C 0.38387 0.76666 0.98739 0.0
C731 C 0.39557 0.80462 0.00768 0.0
C732 C 0.39452 0.79804 0.02695 0.0
C733 C 0.3926 0.79628 0.01542 0.0
C734 C 0.40252 0.81638 0.023 0.0
C735 C 0.39946 0.80814 0.03086 0.0
C736 C 0.40059 0.81462 0.01153 0.0
C737 C 0.38647 0.80321 0.95363 0.0
C738 C 0.39039 0.82326 0.9532 0.0
C739 C 0.38608 0.81315 0.9359 0.0
C740 C 0.38492 0.80319 0.94195 0.0
C741 C 0.38881 0.82332 0.94146 0.0
C742 C 0.38923 0.81329 0.95923 0.0
C743 C 0.38517 0.79273 0.95991 0.0
O744 O 0.39396 0.77066 0.98509 0.0
O745 O 0.37607 0.77447 0.98788 0.0
O746 O 0.37668 0.79253 0.96698 0.0
O747 O 0.39456 0.78871 0.9642 0.0
H748 H 0.37545 0.7654 0.96612 0.0
H749 H 0.37102 0.74841 0.95519 0.0
H750 H 0.38088 0.72801 0.98348 0.0
H751 H 0.38537 0.7451 0.99433 0.0
H752 H 0.39214 0.7915 0.03278 0.0
H753 H 0.38874 0.78848 0.01256 0.0
H754 H 0.40614 0.82434 0.02571 0.0
H755 H 0.40289 0.82116 0.00566 0.0
H756 H 0.39235 0.83095 0.95775 0.0
H757 H 0.38496 0.81287 0.92686 0.0
H758 H 0.38283 0.79546 0.93751 0.0
H759 H 0.39043 0.81343 0.96827 0.0
C760 C 0.02362 0.38519 0.78053 0.0
C761 C 0.02609 0.39041 0.79088 0.0
C762 C 0.04624 0.38781 0.78778 0.0
C763 C 0.03729 0.39175 0.79445 0.0
C764 C 0.04369 0.38264 0.77736 0.0
C765 C 0.03247 0.38135 0.77378 0.0
U766 U 0.99269 0.38462 0.78792 0.0
O767 O 0.97762 0.39073 0.77903 0.0
O768 O 0.97902 0.37285 0.78324 0.0
C769 C 0.97315 0.38062 0.77807 0.0
C770 C 0.01182 0.38339 0.77699 0.0
C771 C 0.96882 0.3776 0.76685 0.0
C772 C 0.97169 0.37265 0.74722 0.0
C773 C 0.97611 0.37522 0.7579 0.0
C774 C 0.9527 0.37473 0.75445 0.0
C775 C 0.95992 0.37248 0.74536 0.0
C776 C 0.95712 0.37727 0.76508 0.0
C777 C 0.98422 0.39153 0.81788 0.0
C778 C 0.96451 0.39088 0.82339 0.0
C779 C 0.97889 0.39659 0.83691 0.0
C780 C 0.98721 0.39512 0.82874 0.0
C781 C 0.96744 0.39448 0.83434 0.0
C782 C 0.97284 0.38943 0.81523 0.0
C783 C 0.993 0.39005 0.80935 0.0
O784 O 0.00685 0.3746 0.78147 0.0
O785 O 0.00547 0.39243 0.77709 0.0
O786 O 0.99296 0.39752 0.80127 0.0
O787 O 0.99426 0.3797 0.80564 0.0
H788 H 0.01934 0.3934 0.79623 0.0
H789 H 0.03894 0.3959 0.80244 0.0
H790 H 0.05035 0.37937 0.77208 0.0
H791 H 0.03069 0.37722 0.7658 0.0
H792 H 0.97747 0.37104 0.74038 0.0
H793 H 0.98518 0.37547 0.75914 0.0
H794 H 0.94361 0.3745 0.75335 0.0
H795 H 0.95138 0.37905 0.77193 0.0
H796 H 0.95577 0.38932 0.8211 0.0
H797 H 0.98144 0.39923 0.84529 0.0
H798 H 0.99597 0.39676 0.83091 0.0
H799 H 0.9704 0.3867 0.80684 0.0
C800 C 0.3735 0.25218 0.52813 0.0
C801 C 0.367 0.25106 0.5379 0.0
C802 C 0.36793 0.27128 0.54119 0.0
C803 C 0.36418 0.2605 0.54432 0.0
C804 C 0.37434 0.27237 0.53131 0.0
C805 C 0.37707 0.26291 0.52484 0.0
U806 U 0.38326 0.22207 0.52789 0.0
O807 O 0.37848 0.20754 0.5173 0.0
O808 O 0.39615 0.2133 0.51796 0.0
C809 C 0.38873 0.20642 0.51328 0.0
C810 C 0.37709 0.2422 0.52169 0.0
C811 C 0.38946 0.20492 0.50103 0.0
C812 C 0.39215 0.21218 0.48217 0.0
C813 C 0.3914 0.214 0.4938 0.0
C814 C 0.38889 0.19227 0.48495 0.0
C815 C 0.39085 0.20128 0.47763 0.0
C816 C 0.38821 0.19408 0.49653 0.0
C817 C 0.38643 0.20724 0.55585 0.0
C818 C 0.39157 0.18753 0.55655 0.0
C819 C 0.38817 0.19789 0.57383 0.0
C820 C 0.38591 0.20755 0.56761 0.0
C821 C 0.39096 0.18775 0.56836 0.0
C822 C 0.38933 0.19721 0.55035 0.0
C823 C 0.38373 0.21734 0.5494 0.0
O824 O 0.38773 0.23938 0.52311 0.0
O825 O 0.37012 0.23355 0.52187 0.0
O826 O 0.37454 0.21658 0.54318 0.0
O827 O 0.39229 0.22194 0.54411 0.0
H828 H 0.36421 0.24285 0.54068 0.0
H829 H 0.3591 0.25934 0.55176 0.0
H830 H 0.37753 0.28049 0.52873 0.0
H831 H 0.38218 0.26394 0.51738 0.0
H832 H 0.39359 0.2193 0.47673 0.0
H833 H 0.39233 0.22245 0.49714 0.0
H834 H 0.38804 0.18375 0.48174 0.0
H835 H 0.38674 0.18697 0.50199 0.0
H836 H 0.39383 0.1799 0.5521 0.0
H837 H 0.38749 0.1983 0.5829 0.0
H838 H 0.38365 0.21523 0.57197 0.0
H839 H 0.38979 0.19685 0.54125 0.0
C840 C 0.47794 0.62737 0.27813 0.0
C841 C 0.47658 0.62631 0.28978 0.0
C842 C 0.45621 0.62459 0.28732 0.0
C843 C 0.46582 0.62495 0.29434 0.0
C844 C 0.45763 0.62548 0.27562 0.0
C845 C 0.46843 0.6269 0.27107 0.0
U846 U 0.50945 0.62837 0.28264 0.0
O847 O 0.52362 0.62213 0.2725 0.0
O848 O 0.52246 0.64011 0.27668 0.0
C849 C 0.52797 0.63223 0.27124 0.0
C850 C 0.48928 0.62902 0.27344 0.0
C851 C 0.53179 0.63504 0.25988 0.0
C852 C 0.5285 0.64201 0.241 0.0
C853 C 0.5244 0.63921 0.25166 0.0
C854 C 0.54732 0.63643 0.24676 0.0
C855 C 0.54002 0.64061 0.23844 0.0
C856 C 0.54323 0.63367 0.25736 0.0
C857 C 0.52199 0.62295 0.31106 0.0
C858 C 0.54239 0.62421 0.31282 0.0
C859 C 0.53105 0.61984 0.32914 0.0
C860 C 0.52123 0.62043 0.32252 0.0
C861 C 0.54173 0.62181 0.32436 0.0
C862 C 0.53262 0.62477 0.30624 0.0
C863 C 0.51178 0.62376 0.30405 0.0
O864 O 0.49465 0.63802 0.27718 0.0
O865 O 0.49564 0.62 0.27326 0.0
O866 O 0.51083 0.61597 0.2962 0.0
O867 O 0.50964 0.63391 0.30033 0.0
H868 H 0.48386 0.62657 0.29535 0.0
H869 H 0.46504 0.62409 0.30336 0.0
H870 H 0.45038 0.6253 0.27002 0.0
H871 H 0.46935 0.62769 0.26205 0.0
H872 H 0.52266 0.64513 0.23474 0.0
H873 H 0.51552 0.64031 0.2535 0.0
H874 H 0.55626 0.63544 0.24514 0.0
H875 H 0.54906 0.63053 0.26364 0.0
H876 H 0.55048 0.62557 0.30883 0.0
H877 H 0.53026 0.61806 0.33801 0.0
H878 H 0.51308 0.619 0.32636 0.0
H879 H 0.53334 0.62667 0.29738 0.0
C880 C 0.11873 0.78096 0.99585 0.0
C881 C 0.11727 0.79245 0.99378 0.0
C882 C 0.11568 0.78867 0.97369 0.0
C883 C 0.11579 0.79627 0.98281 0.0
C884 C 0.1169 0.77712 0.97582 0.0
C885 C 0.11846 0.7733 0.98683 0.0
U886 U 0.1189 0.78751 0.02681 0.0
O887 O 0.11398 0.77767 0.0416 0.0
O888 O 0.13137 0.78408 0.0401 0.0
C889 C 0.12421 0.77805 0.04597 0.0
C890 C 0.12067 0.7771 0.00739 0.0
C891 C 0.12868 0.76755 0.05058 0.0
C892 C 0.13209 0.74743 0.04969 0.0
C893 C 0.12778 0.75723 0.04483 0.0
C894 C 0.13826 0.75827 0.06596 0.0
C895 C 0.13742 0.74787 0.06031 0.0
C896 C 0.13394 0.76799 0.06114 0.0
C897 C 0.11086 0.8164 0.03689 0.0
C898 C 0.111 0.82016 0.05698 0.0
C899 C 0.10882 0.83551 0.04388 0.0
C900 C 0.1094 0.82789 0.03487 0.0
C901 C 0.10969 0.83173 0.05504 0.0
C902 C 0.11161 0.81257 0.04799 0.0
C903 C 0.11221 0.80847 0.02748 0.0
O904 O 0.12927 0.78195 0.01257 0.0
O905 O 0.11158 0.77646 0.01367 0.0
O906 O 0.10517 0.79988 0.0274 0.0
O907 O 0.1227 0.80557 0.0255 0.0
H908 H 0.11735 0.79848 1.00065 0.0
H909 H 0.11468 0.80519 0.98146 0.0
H910 H 0.11689 0.77108 0.96896 0.0
H911 H 0.11956 0.7644 0.9883 0.0
H912 H 0.13136 0.73955 0.04511 0.0
H913 H 0.12376 0.75676 0.03663 0.0
H914 H 0.14211 0.75888 0.07424 0.0
H915 H 0.13466 0.77588 0.06572 0.0
H916 H 0.11189 0.81698 0.06545 0.0
H917 H 0.10773 0.84435 0.04212 0.0
H918 H 0.10886 0.83098 0.02634 0.0
H919 H 0.11286 0.80373 0.04969 0.0
C920 C 0.75163 0.98753 0.62987 0.0
C921 C 0.75104 0.97596 0.62757 0.0
C922 C 0.76939 0.97327 0.63645 0.0
C923 C 0.75984 0.9689 0.6308 0.0
C924 C 0.77 0.9849 0.63865 0.0
C925 C 0.76117 0.99198 0.63537 0.0
U926 U 0.7214 0.98974 0.62054 0.0
O927 O 0.70737 1.00016 0.62648 0.0
O928 O 0.71273 1.00116 0.60886 0.0
C929 C 0.70623 0.00528 0.61679 0.0
C930 C 0.74204 0.99477 0.62701 0.0
C931 C 0.70546 0.01761 0.61733 0.0
C932 C 0.71077 0.03563 0.62561 0.0
C933 C 0.71221 0.02398 0.62477 0.0
C934 C 0.69611 0.03466 0.61131 0.0
C935 C 0.70263 0.04108 0.61896 0.0
C936 C 0.69751 0.02303 0.61053 0.0
C937 C 0.70558 0.96183 0.61522 0.0
C938 C 0.68662 0.95518 0.61952 0.0
C939 C 0.69675 0.94715 0.60379 0.0
C940 C 0.70592 0.95427 0.60612 0.0
C941 C 0.68706 0.94736 0.6106 0.0
C942 C 0.69576 0.96235 0.62179 0.0
C943 C 0.71578 0.96849 0.61814 0.0
O944 O 0.73888 0.99446 0.61639 0.0
O945 O 0.7335 0.99411 0.634 0.0
O946 O 0.71568 0.97384 0.62785 0.0
O947 O 0.72024 0.97444 0.60999 0.0
H948 H 0.74366 0.97236 0.62343 0.0
H949 H 0.759 0.95997 0.62915 0.0
H950 H 0.77728 0.98854 0.64291 0.0
H951 H 0.76174 1.00089 0.63725 0.0
H952 H 0.71601 0.04036 0.63148 0.0
H953 H 0.71846 0.01994 0.63004 0.0
H954 H 0.68968 0.03858 0.60617 0.0
H955 H 0.69222 0.01823 0.60475 0.0
H956 H 0.67938 0.95549 0.62504 0.0
H957 H 0.69731 0.94138 0.59673 0.0
H958 H 0.71339 0.95371 0.60093 0.0
H959 H 0.69522 0.96809 0.62888 0.0
C960 C 0.75698 0.98335 0.37632 0.0
C961 C 0.7584 0.97167 0.37674 0.0
C962 C 0.73993 0.96877 0.36805 0.0
C963 C 0.74996 0.96445 0.37266 0.0
C964 C 0.73846 0.98051 0.36781 0.0
C965 C 0.74695 0.98775 0.3719 0.0
U966 U 0.78642 0.98609 0.38773 0.0
O967 O 0.80062 0.99719 0.38349 0.0
O968 O 0.79407 0.99707 0.40075 0.0
C969 C 0.80114 1.00166 0.39363 0.0
C970 C 0.76614 0.99082 0.38022 0.0
C971 C 0.80229 0.01396 0.39417 0.0
C972 C 0.79813 0.03263 0.38714 0.0
C973 C 0.79601 0.02103 0.38713 0.0
C974 C 0.81251 0.0302 0.40149 0.0
C975 C 0.80653 0.03733 0.39423 0.0
C976 C 0.8104 0.01864 0.40146 0.0
C977 C 0.80261 0.95902 0.39245 0.0
C978 C 0.82185 0.95928 0.39968 0.0
C979 C 0.81316 0.94167 0.39384 0.0
C980 C 0.80326 0.94736 0.391 0.0
C981 C 0.82259 0.94756 0.39818 0.0
C982 C 0.81194 0.96497 0.39683 0.0
C983 C 0.7923 0.96492 0.38908 0.0
O984 O 0.7686 0.9901 0.39099 0.0
O985 O 0.77514 0.99081 0.3738 0.0
O986 O 0.79317 0.9708 0.37982 0.0
O987 O 0.78704 0.97029 0.39718 0.0
H988 H 0.76609 0.96813 0.38016 0.0
H989 H 0.75129 0.95547 0.37315 0.0
H990 H 0.73087 0.98409 0.36423 0.0
H991 H 0.74574 0.99675 0.37148 0.0
H992 H 0.7933 0.0379 0.38153 0.0
H993 H 0.78968 0.01755 0.38146 0.0
H994 H 0.81916 0.03346 0.40692 0.0
H995 H 0.81536 0.0133 0.40691 0.0
H996 H 0.8289 0.96406 0.40312 0.0
H997 H 0.8135 0.93267 0.39241 0.0
H998 H 0.79615 0.94266 0.38756 0.0
H999 H 0.81156 0.974 0.39799 0.0
C1000 C 0.78485 0.99045 0.12173 0.0
C1001 C 0.79438 0.98829 0.11512 0.0
C1002 C 0.79348 0.96848 0.11998 0.0
C1003 C 0.79862 0.9774 0.11421 0.0
C1004 C 0.7839 0.97067 0.12659 0.0
C1005 C 0.7796 0.98159 0.12743 0.0
U1006 U 0.79088 0.02144 0.12019 0.0
O1007 O 0.78096 0.03558 0.11363 0.0
O1008 O 0.78652 0.03557 0.1313 0.0
C1009 C 0.78053 0.04061 0.1235 0.0
C1010 C 0.78077 1.00203 0.1231 0.0
C1011 C 0.76938 0.0448 0.12689 0.0
C1012 C 0.75237 0.04367 0.1382 0.0
C1013 C 0.7626 0.03903 0.13462 0.0
C1014 C 0.75548 0.05968 0.1261 0.0
C1015 C 0.74875 0.0541 0.13404 0.0
C1016 C 0.76569 0.05507 0.12259 0.0
C1017 C 0.8203 0.03069 0.11156 0.0
C1018 C 0.82528 0.0505 0.11091 0.0
C1019 C 0.83926 0.0364 0.10631 0.0
C1020 C 0.83128 0.02793 0.10826 0.0
C1021 C 0.83636 0.04779 0.10765 0.0
C1022 C 0.81732 0.04202 0.11285 0.0
C1023 C 0.81207 0.02173 0.11383 0.0
O1024 O 0.78556 0.00774 0.13136 0.0
O1025 O 0.77997 0.00781 0.11374 0.0
O1026 O 0.80354 0.02104 0.10673 0.0
O1027 O 0.80898 0.0209 0.12438 0.0
H1028 H 0.79864 0.99506 0.11078 0.0
H1029 H 0.80613 0.97604 0.10923 0.0
H1030 H 0.77975 0.96395 0.1311 0.0
H1031 H 0.77228 0.98313 0.13263 0.0
H1032 H 0.74732 0.03913 0.14425 0.0
H1033 H 0.76528 0.03104 0.138 0.0
H1034 H 0.75304 0.0678 0.12286 0.0
H1035 H 0.77084 0.05965 0.11664 0.0
H1036 H 0.82274 0.05918 0.11188 0.0
H1037 H 0.84774 0.03403 0.10396 0.0
H1038 H 0.83372 0.01921 0.10728 0.0
H1039 H 0.80885 0.04428 0.11538 0.0
C1040 C 0.71484 0.98878 0.88271 0.0
C1041 C 0.70462 0.98645 0.88817 0.0
C1042 C 0.70659 0.96651 0.88381 0.0
C1043 C 0.70055 0.97541 0.88875 0.0
C1044 C 0.71688 0.96892 0.87842 0.0
C1045 C 0.72096 0.97996 0.87788 0.0
U1046 U 0.70941 0.02009 0.88413 0.0
O1047 O 0.71971 0.03409 0.89083 0.0
O1048 O 0.7148 0.03375 0.873 0.0
C1049 C 0.72059 0.03892 0.88098 0.0
C1050 C 0.71894 1.0004 0.88168 0.0
C1051 C 0.73194 0.04282 0.87791 0.0
C1052 C 0.75137 0.03935 0.87247 0.0
C1053 C 0.74061 0.03528 0.87527 0.0
C1054 C 0.74476 0.05846 0.87487 0.0
C1055 C 0.75357 0.051 0.87231 0.0
C1056 C 0.73406 0.0544 0.87765 0.0
C1057 C 0.68105 0.03168 0.89134 0.0
C1058 C 0.67956 0.05197 0.89267 0.0
C1059 C 0.66263 0.04041 0.89306 0.0
C1060 C 0.66927 0.03074 0.8921 0.0
C1061 C 0.66771 0.05115 0.89323 0.0
C1062 C 0.68615 0.04235 0.8917 0.0
C1063 C 0.68808 0.02169 0.88967 0.0
O1064 O 0.71458 0.00602 0.87325 0.0
O1065 O 0.71939 0.00624 0.89111 0.0
O1066 O 0.69624 0.02048 0.8971 0.0
O1067 O 0.69145 0.02013 0.87927 0.0
H1068 H 0.69975 0.99318 0.89191 0.0
H1069 H 0.69269 0.97386 0.8931 0.0
H1070 H 0.72166 0.96231 0.87437 0.0
H1071 H 0.72882 0.98163 0.87356 0.0
H1072 H 0.758 0.03339 0.87062 0.0
H1073 H 0.73908 0.0263 0.87545 0.0
H1074 H 0.74611 0.06747 0.87465 0.0
H1075 H 0.72743 0.06032 0.87962 0.0
H1076 H 0.68376 0.06009 0.89297 0.0
H1077 H 0.65353 0.0395 0.89339 0.0
H1078 H 0.6652 0.02256 0.89177 0.0
H1079 H 0.69524 0.04323 0.8911 0.0
C1080 C 0.62829 0.75382 0.97416 0.0
C1081 C 0.62755 0.75255 0.96245 0.0
C1082 C 0.63528 0.77136 0.95994 0.0
C1083 C 0.63098 0.76123 0.95541 0.0
C1084 C 0.63581 0.77269 0.97171 0.0
C1085 C 0.63236 0.76395 0.97877 0.0
U1086 U 0.62004 0.72353 0.97612 0.0
O1087 O 0.62582 0.70992 0.98711 0.0
O1088 O 0.60785 0.71444 0.98662 0.0
C1089 C 0.61572 0.70827 0.99133 0.0
C1090 C 0.62528 0.74434 0.98141 0.0
C1091 C 0.61527 0.70727 1.00362 0.0
C1092 C 0.61381 0.71538 0.02238 0.0
C1093 C 0.61425 0.71671 0.01069 0.0
C1094 C 0.61551 0.69521 0.01995 0.0
C1095 C 0.61449 0.70459 0.02713 0.0
C1096 C 0.6159 0.69655 0.00832 0.0
C1097 C 0.61751 0.70725 0.94851 0.0
C1098 C 0.61208 0.68754 0.94796 0.0
C1099 C 0.61797 0.69686 0.9309 0.0
C1100 C 0.61959 0.70686 0.93695 0.0
C1101 C 0.61422 0.68707 0.93633 0.0
C1102 C 0.61373 0.69755 0.954 0.0
C1103 C 0.61962 0.71773 0.95479 0.0
O1104 O 0.61479 0.74075 0.98038 0.0
O1105 O 0.63268 0.73615 0.98142 0.0
O1106 O 0.62888 0.71785 0.96092 0.0
O1107 O 0.61085 0.72194 0.96005 0.0
H1108 H 0.62443 0.74477 0.95875 0.0
H1109 H 0.63029 0.76 0.9464 0.0
H1110 H 0.63915 0.78035 0.97544 0.0
H1111 H 0.63304 0.76504 0.9878 0.0
H1112 H 0.61308 0.72276 0.0277 0.0
H1113 H 0.6138 0.72507 0.00718 0.0
H1114 H 0.61585 0.68678 0.02331 0.0
H1115 H 0.61665 0.68917 1.00298 0.0
H1116 H 0.60907 0.68019 0.95237 0.0
H1117 H 0.61987 0.69676 0.922 0.0
H1118 H 0.62259 0.71427 0.93261 0.0
H1119 H 0.61211 0.69773 0.96296 0.0
C1120 C 0.97845 0.12632 0.77714 0.0
C1121 C 0.97696 0.12603 0.78882 0.0
C1122 C 0.95668 0.12356 0.78625 0.0
C1123 C 0.96618 0.12469 0.79333 0.0
C1124 C 0.95822 0.12368 0.77453 0.0
C1125 C 0.96904 0.12508 0.77001 0.0
U1126 U 0.00993 0.12718 0.78178 0.0
O1127 O 0.02412 0.12088 0.77172 0.0
O1128 O 0.02302 0.13887 0.77587 0.0
C1129 C 0.02854 0.13095 0.77048 0.0
C1130 C 0.98981 0.12788 0.77248 0.0
C1131 C 0.03242 0.13376 0.75915 0.0
C1132 C 0.02904 0.13962 0.73991 0.0
C1133 C 0.02491 0.13686 0.75057 0.0
C1134 C 0.04815 0.13617 0.74642 0.0
C1135 C 0.04072 0.13926 0.73772 0.0
C1136 C 0.04403 0.13344 0.75702 0.0
C1137 C 0.02231 0.1219 0.81028 0.0
C1138 C 0.04274 0.12274 0.812 0.0
C1139 C 0.03128 0.11949 0.82851 0.0
C1140 C 0.02149 0.11999 0.82185 0.0
C1141 C 0.04201 0.12095 0.82366 0.0
C1142 C 0.03299 0.12322 0.80539 0.0
C1143 C 0.01214 0.1227 0.80322 0.0
O1144 O 0.99522 0.13688 0.77617 0.0
O1145 O 0.99612 0.11882 0.77238 0.0
O1146 O 0.01119 0.11486 0.79541 0.0
O1147 O 0.01005 0.13283 0.79944 0.0
H1148 H 0.98416 0.12686 0.79446 0.0
H1149 H 0.9653 0.12443 0.80239 0.0
H1150 H 0.95106 0.12287 0.76887 0.0
H1151 H 0.97006 0.12526 0.76096 0.0
H1152 H 0.02311 0.14189 0.73336 0.0
H1153 H 0.0159 0.13714 0.75211 0.0
H1154 H 0.05719 0.13599 0.74509 0.0
H1155 H 0.04994 0.13113 0.76358 0.0
H1156 H 0.05086 0.12369 0.80797 0.0
H1157 H 0.03045 0.11819 0.83747 0.0
H1158 H 0.0133 0.11897 0.82574 0.0
H1159 H 0.03377 0.12466 0.79644 0.0
C1160 C 0.87868 0.25781 0.47911 0.0
C1161 C 0.87263 0.2592 0.46903 0.0
C1162 C 0.87342 0.23906 0.46528 0.0
C1163 C 0.86996 0.24992 0.46223 0.0
C1164 C 0.87935 0.2377 0.47548 0.0
C1165 C 0.88194 0.24699 0.48233 0.0
U1166 U 0.88687 0.28843 0.48038 0.0
O1167 O 0.88264 0.30205 0.49218 0.0
O1168 O 0.90038 0.29739 0.48964 0.0
C1169 C 0.89322 0.30364 0.49526 0.0
C1170 C 0.88222 0.26763 0.48588 0.0
C1171 C 0.8953 0.30469 0.50741 0.0
C1172 C 0.89361 0.29789 0.52654 0.0
C1173 C 0.89187 0.29635 0.51496 0.0
C1174 C 0.90235 0.31599 0.52301 0.0
C1175 C 0.89884 0.30776 0.5307 0.0
C1176 C 0.9006 0.31445 0.5115 0.0
C1177 C 0.88721 0.30478 0.45312 0.0
C1178 C 0.8921 0.32463 0.45306 0.0
C1179 C 0.8877 0.31496 0.43554 0.0
C1180 C 0.88592 0.30498 0.44142 0.0
C1181 C 0.8908 0.32491 0.4413 0.0
C1182 C 0.89033 0.31464 0.45893 0.0
C1183 C 0.8853 0.29427 0.45921 0.0
O1184 O 0.89255 0.27122 0.48393 0.0
O1185 O 0.87482 0.27581 0.48659 0.0
O1186 O 0.87667 0.29433 0.46612 0.0
O1187 O 0.8944 0.28973 0.46358 0.0
H1188 H 0.8701 0.2675 0.46633 0.0
H1189 H 0.86525 0.25128 0.45453 0.0
H1190 H 0.8823 0.2295 0.47802 0.0
H1191 H 0.88672 0.24577 0.49002 0.0
H1192 H 0.89088 0.29136 0.53223 0.0
H1193 H 0.88778 0.28874 0.51191 0.0
H1194 H 0.90619 0.32378 0.52591 0.0
H1195 H 0.90325 0.32099 0.50577 0.0
H1196 H 0.89461 0.3321 0.45772 0.0
H1197 H 0.88648 0.31492 0.42651 0.0
H1198 H 0.88349 0.29744 0.43683 0.0
H1199 H 0.8914 0.31459 0.46798 0.0
C1200 C 0.49575 0.88496 0.76869 0.0
C1201 C 0.49745 0.8844 0.78035 0.0
C1202 C 0.47929 0.89333 0.78357 0.0
C1203 C 0.4893 0.88851 0.78771 0.0
C1204 C 0.47759 0.89382 0.77186 0.0
C1205 C 0.48578 0.88967 0.76447 0.0
U1206 U 0.52484 0.87329 0.76546 0.0
O1207 O 0.53163 0.85957 0.755 0.0
O1208 O 0.53851 0.87671 0.75355 0.0
C1209 C 0.53846 0.86636 0.74957 0.0
C1210 C 0.50451 0.88074 0.76108 0.0
C1211 C 0.53864 0.86504 0.73724 0.0
C1212 C 0.53611 0.8724 0.71837 0.0
C1213 C 0.53478 0.87351 0.73002 0.0
C1214 C 0.54473 0.85419 0.72102 0.0
C1215 C 0.54125 0.8628 0.71376 0.0
C1216 C 0.54345 0.85533 0.73263 0.0
C1217 C 0.54203 0.86972 0.79241 0.0
C1218 C 0.56127 0.86276 0.79222 0.0
C1219 C 0.55271 0.86848 0.80981 0.0
C1220 C 0.54277 0.87117 0.80408 0.0
C1221 C 0.56211 0.86428 0.80395 0.0
C1222 C 0.5513 0.86546 0.78649 0.0
C1223 C 0.53163 0.87293 0.7865 0.0
O1224 O 0.5136 0.8871 0.76054 0.0
O1225 O 0.50681 0.87 0.76216 0.0
O1226 O 0.52596 0.86464 0.78171 0.0
O1227 O 0.53254 0.88183 0.78009 0.0
H1228 H 0.5051 0.88077 0.78376 0.0
H1229 H 0.4908 0.8878 0.79667 0.0
H1230 H 0.47002 0.89755 0.7684 0.0
H1231 H 0.48437 0.8902 0.75548 0.0
H1232 H 0.53325 0.87913 0.71299 0.0
H1233 H 0.53096 0.88107 0.73338 0.0
H1234 H 0.54887 0.84676 0.71777 0.0
H1235 H 0.54653 0.84872 0.73806 0.0
H1236 H 0.5683 0.85943 0.78748 0.0
H1237 H 0.55312 0.86991 0.81881 0.0
H1238 H 0.53569 0.87451 0.80875 0.0
H1239 H 0.55085 0.86429 0.77746 0.0
C1240 C 0.9829 0.13539 0.22725 0.0
C1241 C 0.97125 0.13664 0.22548 0.0
C1242 C 0.97408 0.13663 0.20523 0.0
C1243 C 0.96687 0.13723 0.21457 0.0
C1244 C 0.98579 0.13556 0.20706 0.0
C1245 C 0.99016 0.13492 0.218 0.0
U1246 U 0.97809 0.13712 0.2585 0.0
O1247 O 0.98318 0.12607 0.27229 0.0
O1248 O 0.98865 0.14377 0.27239 0.0
C1249 C 0.98923 0.13395 0.27734 0.0
C1250 C 0.98742 0.13445 0.23873 0.0
C1251 C 1.00038 0.13055 0.28158 0.0
C1252 C 0.01727 0.11905 0.28053 0.0
C1253 C 0.00734 0.12313 0.27558 0.0
C1254 C 0.01354 0.13012 0.29728 0.0
C1255 C 0.02031 0.1223 0.29155 0.0
C1256 C 1.00368 0.13419 0.29234 0.0
C1257 C 0.94936 0.14463 0.26958 0.0
C1258 C 0.94634 0.14409 0.28973 0.0
C1259 C 0.93105 0.14946 0.27727 0.0
C1260 C 0.93816 0.14805 0.26801 0.0
C1261 C 0.93505 0.14746 0.28825 0.0
C1262 C 0.95342 0.14271 0.28048 0.0
C1263 C 0.95678 0.14287 0.25989 0.0
O1264 O 0.98797 0.14394 0.24446 0.0
O1265 O 0.98323 0.12608 0.24457 0.0
O1266 O 0.96009 0.13244 0.25843 0.0
O1267 O 0.96504 0.15022 0.25894 0.0
H1268 H 0.96553 0.13709 0.23255 0.0
H1269 H 0.95784 0.13821 0.21344 0.0
H1270 H 0.99155 0.13498 0.20004 0.0
H1271 H 0.99918 0.13396 0.21923 0.0
H1272 H 0.0223 0.11301 0.27593 0.0
H1273 H 0.00493 0.12023 0.26725 0.0
H1274 H 0.01577 0.13295 0.30569 0.0
H1275 H 0.99843 0.13994 0.29708 0.0
H1276 H 0.94966 0.1423 0.29802 0.0
H1277 H 0.92244 0.15216 0.27585 0.0
H1278 H 0.93491 0.14958 0.25963 0.0
H1279 H 0.96206 0.14003 0.28183 0.0
C1280 C 0.50084 0.12168 0.74142 0.0
C1281 C 0.50306 0.11615 0.7312 0.0
C1282 C 0.48291 0.11436 0.72741 0.0
C1283 C 0.49418 0.11247 0.7243 0.0
C1284 C 0.4807 0.12 0.73759 0.0
C1285 C 0.48962 0.12359 0.74457 0.0
U1286 U 0.53059 0.13277 0.7434 0.0
O1287 O 0.53859 0.14585 0.75399 0.0
O1288 O 0.54483 0.1285 0.7545 0.0
C1289 C 0.54552 0.1387 0.75876 0.0
C1290 C 0.51024 0.1258 0.74852 0.0
C1291 C 0.54657 0.13936 0.77106 0.0
C1292 C 0.53856 0.14155 0.78973 0.0
C1293 C 0.53715 0.14082 0.77804 0.0
C1294 C 0.55876 0.13917 0.78752 0.0
C1295 C 0.5494 0.14071 0.79459 0.0
C1296 C 0.55734 0.13851 0.77589 0.0
C1297 C 0.54672 0.13643 0.71613 0.0
C1298 C 0.56593 0.14371 0.71613 0.0
C1299 C 0.55728 0.13716 0.69874 0.0
C1300 C 0.54738 0.13452 0.70453 0.0
C1301 C 0.56669 0.14177 0.70447 0.0
C1302 C 0.55603 0.14106 0.72192 0.0
C1303 C 0.53637 0.13339 0.72215 0.0
O1304 O 0.51917 0.11927 0.74881 0.0
O1305 O 0.51281 0.13649 0.74731 0.0
O1306 O 0.53128 0.14173 0.72732 0.0
O1307 O 0.53709 0.12429 0.72829 0.0
H1308 H 0.51166 0.11475 0.72849 0.0
H1309 H 0.49615 0.10833 0.71641 0.0
H1310 H 0.47209 0.12155 0.74019 0.0
H1311 H 0.48775 0.12792 0.75238 0.0
H1312 H 0.53119 0.14266 0.79497 0.0
H1313 H 0.52874 0.14143 0.77445 0.0
H1314 H 0.56723 0.1387 0.79097 0.0
H1315 H 0.56471 0.1374 0.77063 0.0
H1316 H 0.57296 0.14737 0.72078 0.0
H1317 H 0.55763 0.1354 0.6898 0.0
H1318 H 0.54028 0.1309 0.69996 0.0
H1319 H 0.55564 0.14257 0.7309 0.0
C1320 C 0.12192 0.23637 0.96686 0.0
C1321 C 0.12211 0.23426 0.95524 0.0
C1322 C 0.1243 0.21424 0.9586 0.0
C1323 C 0.12325 0.2233 0.95115 0.0
C1324 C 0.12408 0.21639 0.97025 0.0
C1325 C 0.12288 0.22738 0.97435 0.0
U1326 U 0.12406 0.26724 0.96085 0.0
O1327 O 0.11394 0.28172 0.96624 0.0
O1328 O 0.13209 0.28122 0.97018 0.0
C1329 C 0.12246 0.28645 0.97168 0.0
C1330 C 0.12124 0.24798 0.97106 0.0
C1331 C 0.12031 0.2905 0.98322 0.0
C1332 C 0.10878 0.29152 1.00008 0.0
C1333 C 0.11069 0.2872 0.98928 0.0
C1334 C 0.12613 0.30235 0.99897 0.0
C1335 C 0.11651 0.29913 0.00504 0.0
C1336 C 0.12799 0.29812 0.98817 0.0
C1337 C 0.13143 0.27578 0.93101 0.0
C1338 C 0.13173 0.29533 0.92531 0.0
C1339 C 0.13862 0.28087 0.91267 0.0
C1340 C 0.13612 0.2727 0.92067 0.0
C1341 C 0.13644 0.29229 0.91488 0.0
C1342 C 0.12927 0.28715 0.93332 0.0
C1343 C 0.12904 0.26711 0.93939 0.0
O1344 O 0.13089 0.25351 0.9711 0.0
O1345 O 0.11281 0.25387 0.96699 0.0
O1346 O 0.11862 0.26683 0.94315 0.0
O1347 O 0.13667 0.2662 0.94739 0.0
H1348 H 0.12152 0.24112 0.94933 0.0
H1349 H 0.1236 0.22197 0.94214 0.0
H1350 H 0.12482 0.20957 0.97619 0.0
H1351 H 0.12281 0.22889 0.98334 0.0
H1352 H 0.10134 0.28882 0.00461 0.0
H1353 H 0.10463 0.28131 0.98568 0.0
H1354 H 0.13216 0.30832 1.00251 0.0
H1355 H 0.13541 0.30085 0.98363 0.0
H1356 H 0.12983 0.30403 0.92724 0.0
H1357 H 0.14241 0.27825 0.90481 0.0
H1358 H 0.13792 0.26396 0.9188 0.0
H1359 H 0.12568 0.28967 0.9413 0.0
C1360 C 0.38309 0.73989 0.50172 0.0
C1361 C 0.39096 0.7313 0.49977 0.0
C1362 C 0.39108 0.72661 0.51963 0.0
C1363 C 0.39496 0.72479 0.50863 0.0
C1364 C 0.38321 0.73521 0.5216 0.0
C1365 C 0.37929 0.74183 0.51272 0.0
U1366 U 0.37111 0.73979 0.47241 0.0
O1367 O 0.35743 0.74933 0.46432 0.0
O1368 O 0.37466 0.75008 0.4576 0.0
C1369 C 0.36429 0.75393 0.45699 0.0
C1370 C 0.37836 0.74634 0.49225 0.0
C1371 C 0.36345 0.76614 0.45561 0.0
C1372 C 0.36646 0.78522 0.46248 0.0
C1373 C 0.36636 0.77361 0.46436 0.0
C1374 C 0.36054 0.78195 0.44319 0.0
C1375 C 0.36375 0.78949 0.4518 0.0
C1376 C 0.3604 0.77038 0.44508 0.0
C1377 C 0.36896 0.71081 0.4581 0.0
C1378 C 0.35749 0.70542 0.44188 0.0
C1379 C 0.37388 0.69441 0.44694 0.0
C1380 C 0.37602 0.70162 0.45602 0.0
C1381 C 0.36458 0.69621 0.43978 0.0
C1382 C 0.3597 0.71272 0.45094 0.0
C1383 C 0.37152 0.7182 0.46777 0.0
O1384 O 0.38464 0.74671 0.48317 0.0
O1385 O 0.36762 0.74443 0.49004 0.0
O1386 O 0.36288 0.72317 0.47258 0.0
O1387 O 0.38032 0.72486 0.46657 0.0
H1388 H 0.39391 0.72946 0.49135 0.0
H1389 H 0.40086 0.71811 0.50681 0.0
H1390 H 0.3801 0.73681 0.53001 0.0
H1391 H 0.37316 0.74835 0.5144 0.0
H1392 H 0.36906 0.79082 0.46926 0.0
H1393 H 0.36882 0.77045 0.47253 0.0
H1394 H 0.35826 0.78498 0.43492 0.0
H1395 H 0.35814 0.76472 0.43824 0.0
H1396 H 0.35032 0.70706 0.43645 0.0
H1397 H 0.3794 0.6873 0.44563 0.0
H1398 H 0.3832 0.70001 0.46146 0.0
H1399 H 0.35418 0.71982 0.45233 0.0
C1400 C 0.74319 0.53039 0.86368 0.0
C1401 C 0.74142 0.54145 0.8601 0.0
C1402 C 0.72107 0.53891 0.86189 0.0
C1403 C 0.73046 0.54567 0.8592 0.0
C1404 C 0.72291 0.52776 0.86528 0.0
C1405 C 0.73389 0.52354 0.86619 0.0
U1406 U 0.77457 0.53592 0.86341 0.0
O1407 O 0.78802 0.53139 0.8753 0.0
O1408 O 0.78892 0.52567 0.85772 0.0
C1409 C 0.79353 0.52545 0.86779 0.0
C1410 C 0.75473 0.5262 0.86525 0.0
C1411 C 0.79786 0.51456 0.87158 0.0
C1412 C 0.79578 0.49691 0.88153 0.0
C1413 C 0.79103 0.50675 0.87719 0.0
C1414 C 0.81409 0.50255 0.87441 0.0
C1415 C 0.80742 0.49483 0.88037 0.0
C1416 C 0.80935 0.51231 0.87007 0.0
C1417 C 0.78581 0.56452 0.85613 0.0
C1418 C 0.80574 0.56838 0.85926 0.0
C1419 C 0.79403 0.58214 0.84991 0.0
C1420 C 0.78467 0.57498 0.85093 0.0
C1421 C 0.80469 0.57894 0.8541 0.0
C1422 C 0.79642 0.56124 0.86021 0.0
C1423 C 0.77601 0.55702 0.85739 0.0
O1424 O 0.76085 0.52562 0.85606 0.0
O1425 O 0.76022 0.53068 0.87383 0.0
O1426 O 0.77403 0.55388 0.86777 0.0
O1427 O 0.77546 0.54866 0.85011 0.0
H1428 H 0.74853 0.54686 0.85813 0.0
H1429 H 0.72934 0.55424 0.85642 0.0
H1430 H 0.71588 0.52238 0.86754 0.0
H1431 H 0.73513 0.515 0.86902 0.0
H1432 H 0.79044 0.49113 0.88611 0.0
H1433 H 0.78213 0.50838 0.87843 0.0
H1434 H 0.82303 0.50109 0.8732 0.0
H1435 H 0.81473 0.51824 0.86573 0.0
H1436 H 0.81374 0.56571 0.86277 0.0
H1437 H 0.79295 0.59015 0.84579 0.0
H1438 H 0.77653 0.57761 0.84768 0.0
H1439 H 0.79745 0.55317 0.86426 0.0
C1440 C 0.73183 0.511 0.13391 0.0
C1441 C 0.72 0.51166 0.13393 0.0
C1442 C 0.71854 0.49186 0.12886 0.0
C1443 C 0.71342 0.50219 0.13143 0.0
C1444 C 0.73042 0.49127 0.12866 0.0
C1445 C 0.73702 0.50079 0.1312 0.0
U1446 U 0.73182 0.54113 0.14277 0.0
O1447 O 0.7418 0.55071 0.15526 0.0
O1448 O 0.74179 0.55581 0.13756 0.0
C1449 C 0.74623 0.55731 0.14763 0.0
C1450 C 0.73857 0.521 0.1369 0.0
C1451 C 0.75859 0.55833 0.14796 0.0
C1452 C 0.77721 0.55073 0.14425 0.0
C1453 C 0.76544 0.54956 0.14407 0.0
C1454 C 0.77537 0.56937 0.15237 0.0
C1455 C 0.78231 0.56067 0.14837 0.0
C1456 C 0.76361 0.56821 0.15215 0.0
C1457 C 0.70187 0.55346 0.14578 0.0
C1458 C 0.69742 0.57261 0.15134 0.0
C1459 C 0.68245 0.55976 0.1456 0.0
C1460 C 0.69039 0.55133 0.14386 0.0
C1461 C 0.68584 0.57052 0.14935 0.0
C1462 C 0.70539 0.56412 0.14957 0.0
C1463 C 0.70993 0.54444 0.14345 0.0
O1464 O 0.73773 0.52934 0.12976 0.0
O1465 O 0.73764 0.52426 0.14744 0.0
O1466 O 0.71582 0.54081 0.15208 0.0
O1467 O 0.71595 0.54562 0.13429 0.0
H1468 H 0.71585 0.5195 0.13595 0.0
H1469 H 0.70431 0.50297 0.13148 0.0
H1470 H 0.73461 0.48341 0.1268 0.0
H1471 H 0.74615 0.50016 0.13115 0.0
H1472 H 0.78232 0.54382 0.14123 0.0
H1473 H 0.76168 0.54185 0.14085 0.0
H1474 H 0.77901 0.57718 0.15546 0.0
H1475 H 0.75842 0.57506 0.15518 0.0
H1476 H 0.7003 0.58078 0.15429 0.0
H1477 H 0.67367 0.5579 0.14373 0.0
H1478 H 0.68756 0.54315 0.14086 0.0
H1479 H 0.71427 0.56588 0.15107 0.0
C1480 C 0.73044 0.50102 0.37714 0.0
C1481 C 0.7186 0.50068 0.37655 0.0
C1482 C 0.7177 0.52018 0.3828 0.0
C1483 C 0.71229 0.51016 0.37933 0.0
C1484 C 0.72959 0.52046 0.38342 0.0
C1485 C 0.73591 0.51093 0.38062 0.0
U1486 U 0.73007 0.47062 0.36884 0.0
O1487 O 0.73972 0.46093 0.35638 0.0
O1488 O 0.74026 0.45622 0.37419 0.0
C1489 C 0.74431 0.45448 0.36406 0.0
C1490 C 0.73694 0.49096 0.37417 0.0
C1491 C 0.75663 0.4533 0.36344 0.0
C1492 C 0.77561 0.46078 0.36611 0.0
C1493 C 0.76388 0.46219 0.36651 0.0
C1494 C 0.77288 0.44163 0.35946 0.0
C1495 C 0.78024 0.45044 0.36266 0.0
C1496 C 0.76118 0.44306 0.35986 0.0
C1497 C 0.70063 0.4571 0.36651 0.0
C1498 C 0.69724 0.43776 0.36065 0.0
C1499 C 0.68176 0.44916 0.36742 0.0
C1500 C 0.68917 0.4582 0.36903 0.0
C1501 C 0.68569 0.43882 0.36321 0.0
C1502 C 0.70467 0.44684 0.3623 0.0
C1503 C 0.70823 0.46668 0.36861 0.0
O1504 O 0.73631 0.48277 0.3815 0.0
O1505 O 0.73563 0.48748 0.36372 0.0
O1506 O 0.71378 0.47042 0.35985 0.0
O1507 O 0.71451 0.46599 0.37772 0.0
H1508 H 0.71424 0.49307 0.37388 0.0
H1509 H 0.70318 0.50969 0.37857 0.0
H1510 H 0.73401 0.528 0.38617 0.0
H1511 H 0.74504 0.51131 0.38116 0.0
H1512 H 0.78103 0.46769 0.36873 0.0
H1513 H 0.76047 0.47016 0.3693 0.0
H1514 H 0.77616 0.43364 0.35659 0.0
H1515 H 0.75568 0.43613 0.35742 0.0
H1516 H 0.70052 0.42994 0.35732 0.0
H1517 H 0.67298 0.45022 0.3697 0.0
H1518 H 0.68595 0.46605 0.37237 0.0
H1519 H 0.71354 0.44586 0.36034 0.0
C1520 C 0.74106 0.47942 0.63974 0.0
C1521 C 0.74036 0.46889 0.6449 0.0
C1522 C 0.71984 0.47009 0.64516 0.0
C1523 C 0.72986 0.46427 0.6476 0.0
C1524 C 0.72059 0.48069 0.64003 0.0
C1525 C 0.73113 0.48532 0.63735 0.0
U1526 U 0.77243 0.47538 0.63678 0.0
O1527 O 0.78417 0.47997 0.62327 0.0
O1528 O 0.78694 0.48645 0.64042 0.0
C1529 C 0.79012 0.48674 0.62984 0.0
C1530 C 0.75211 0.48403 0.63655 0.0
C1531 C 0.79323 0.49783 0.62517 0.0
C1532 C 0.79909 0.51733 0.62794 0.0
C1533 C 0.79459 0.50734 0.63218 0.0
C1534 C 0.80059 0.50866 0.60953 0.0
C1535 C 0.80238 0.51803 0.61662 0.0
C1536 C 0.79612 0.49867 0.61377 0.0
C1537 C 0.78532 0.44763 0.64493 0.0
C1538 C 0.80518 0.44429 0.64129 0.0
C1539 C 0.79412 0.4304 0.65128 0.0
C1540 C 0.78459 0.43726 0.65038 0.0
C1541 C 0.80453 0.43383 0.64672 0.0
C1542 C 0.79568 0.45113 0.64043 0.0
C1543 C 0.77532 0.45478 0.64393 0.0
O1544 O 0.75929 0.48556 0.6449 0.0
O1545 O 0.75667 0.47918 0.62772 0.0
O1546 O 0.77231 0.45716 0.63356 0.0
O1547 O 0.77523 0.46358 0.65067 0.0
H1548 H 0.74796 0.46417 0.64671 0.0
H1549 H 0.72959 0.45601 0.65136 0.0
H1550 H 0.71303 0.48542 0.63812 0.0
H1551 H 0.73153 0.49346 0.63334 0.0
H1552 H 0.80048 0.52433 0.63366 0.0
H1553 H 0.79258 0.50696 0.64104 0.0
H1554 H 0.80289 0.50896 0.60074 0.0
H1555 H 0.79527 0.49148 0.60818 0.0
H1556 H 0.813 0.44712 0.63753 0.0
H1557 H 0.79336 0.42247 0.65562 0.0
H1558 H 0.77666 0.43446 0.65394 0.0
H1559 H 0.79638 0.45913 0.63619 0.0
C1560 C 0.49366 0.13835 0.25541 0.0
C1561 C 0.48491 0.14628 0.25501 0.0
C1562 C 0.48081 0.14311 0.27477 0.0
C1563 C 0.47859 0.14869 0.26463 0.0
C1564 C 0.48969 0.13532 0.27518 0.0
C1565 C 0.49608 0.13301 0.2656 0.0
U1566 U 0.49374 0.12967 0.22465 0.0
O1567 O 0.50479 0.13426 0.21063 0.0
O1568 O 0.50349 0.11662 0.21582 0.0
C1569 C 0.50866 0.12398 0.20944 0.0
C1570 C 0.4999 0.13508 0.2452 0.0
C1571 C 0.52102 0.12294 0.20881 0.0
C1572 C 0.53994 0.12906 0.21418 0.0
C1573 C 0.52821 0.12975 0.21541 0.0
C1574 C 0.53741 0.11445 0.20006 0.0
C1575 C 0.54466 0.12148 0.2064 0.0
C1576 C 0.5257 0.11521 0.20124 0.0
C1577 C 0.46568 0.12741 0.20904 0.0
C1578 C 0.46468 0.12076 0.1897 0.0
C1579 C 0.4478 0.12746 0.19898 0.0
C1580 C 0.45409 0.12964 0.20874 0.0
C1581 C 0.45301 0.12299 0.18933 0.0
C1582 C 0.47096 0.12297 0.19947 0.0
C1583 C 0.4722 0.12983 0.21932 0.0
O1584 O 0.49828 0.12463 0.24185 0.0
O1585 O 0.49983 0.14231 0.23688 0.0
O1586 O 0.4787 0.13881 0.2189 0.0
O1587 O 0.47722 0.12114 0.22386 0.0
H1588 H 0.48277 0.15045 0.24723 0.0
H1589 H 0.47172 0.15464 0.26403 0.0
H1590 H 0.49164 0.13096 0.28291 0.0
H1591 H 0.50278 0.12686 0.26609 0.0
H1592 H 0.54532 0.13448 0.21928 0.0
H1593 H 0.52477 0.13571 0.2214 0.0
H1594 H 0.54078 0.10861 0.19392 0.0
H1595 H 0.52027 0.10988 0.19608 0.0
H1596 H 0.46893 0.1172 0.18248 0.0
H1597 H 0.43887 0.12943 0.19893 0.0
H1598 H 0.44991 0.13313 0.21605 0.0
H1599 H 0.47994 0.1212 0.19958 0.0
C1600 C 0.97745 0.88178 0.73189 0.0
C1601 C 0.9751 0.8875 0.72188 0.0
C1602 C 0.95493 0.88448 0.72458 0.0
C1603 C 0.96393 0.88887 0.71827 0.0
C1604 C 0.95735 0.87882 0.73465 0.0
C1605 C 0.96852 0.87749 0.73827 0.0
U1606 U 0.00869 0.88242 0.72547 0.0
O1607 O 0.02337 0.88789 0.73558 0.0
O1608 O 0.0222 0.87046 0.72947 0.0
C1609 C 0.02787 0.87782 0.73559 0.0
C1610 C 0.98918 0.87998 0.73551 0.0
C1611 C 0.032 0.87386 0.74651 0.0
C1612 C 0.02887 0.8679 0.76574 0.0
C1613 C 0.02459 0.87139 0.75533 0.0
C1614 C 0.04792 0.86924 0.75849 0.0
C1615 C 0.0406 0.86689 0.76746 0.0
C1616 C 0.04365 0.87269 0.74813 0.0
C1617 C 0.01913 0.89157 0.69719 0.0
C1618 C 0.03939 0.89273 0.69431 0.0
C1619 C 0.02656 0.89515 0.67856 0.0
C1620 C 0.01734 0.89361 0.68573 0.0
C1621 C 0.03768 0.8947 0.68278 0.0
C1622 C 0.0302 0.89116 0.70144 0.0
C1623 C 0.00954 0.88953 0.70468 0.0
O1624 O 0.99436 0.8717 0.73034 0.0
O1625 O 0.99542 0.88912 0.73647 0.0
O1626 O 0.00898 0.89634 0.71342 0.0
O1627 O 0.0079 0.87894 0.70729 0.0
H1628 H 0.98191 0.89079 0.7168 0.0
H1629 H 0.96236 0.89314 0.71041 0.0
H1630 H 0.95059 0.87544 0.73975 0.0
H1631 H 0.9702 0.87304 0.74601 0.0
H1632 H 0.02302 0.86624 0.77251 0.0
H1633 H 0.01555 0.87226 0.7542 0.0
H1634 H 0.05698 0.86837 0.75947 0.0
H1635 H 0.04947 0.87452 0.74138 0.0
H1636 H 0.04784 0.89213 0.69779 0.0
H1637 H 0.02498 0.89672 0.66973 0.0
H1638 H 0.00884 0.89392 0.68232 0.0
H1639 H 0.03172 0.8895 0.71026 0.0
C1640 C 0.52272 0.88329 0.28101 0.0
C1641 C 0.52561 0.88952 0.29068 0.0
C1642 C 0.54548 0.88515 0.28796 0.0
C1643 C 0.53689 0.89049 0.2941 0.0
C1644 C 0.54253 0.87896 0.27824 0.0
C1645 C 0.53124 0.87806 0.27478 0.0
U1646 U 0.49183 0.8837 0.28876 0.0
O1647 O 0.47686 0.89005 0.27988 0.0
O1648 O 0.47784 0.87221 0.28433 0.0
C1649 C 0.47216 0.88004 0.27904 0.0
C1650 C 0.51081 0.88181 0.27768 0.0
C1651 C 0.46787 0.87696 0.26782 0.0
C1652 C 0.47087 0.87226 0.24815 0.0
C1653 C 0.47522 0.87484 0.25885 0.0
C1654 C 0.45183 0.87379 0.25538 0.0
C1655 C 0.45911 0.87181 0.24628 0.0
C1656 C 0.45618 0.87634 0.26604 0.0
C1657 C 0.48382 0.89117 0.31873 0.0
C1658 C 0.46416 0.89117 0.32446 0.0
C1659 C 0.47887 0.89628 0.33786 0.0
C1660 C 0.48704 0.89459 0.32958 0.0
C1661 C 0.46733 0.89458 0.3354 0.0
C1662 C 0.47234 0.88949 0.31619 0.0
C1663 C 0.49246 0.88938 0.31012 0.0
O1664 O 0.50566 0.87322 0.28233 0.0
O1665 O 0.50472 0.89102 0.27772 0.0
O1666 O 0.49251 0.89675 0.30195 0.0
O1667 O 0.49343 0.87896 0.30652 0.0
H1668 H 0.51912 0.89352 0.29568 0.0
H1669 H 0.53887 0.89518 0.30171 0.0
H1670 H 0.54897 0.87482 0.27329 0.0
H1671 H 0.52915 0.87317 0.26732 0.0
H1672 H 0.4767 0.87088 0.2413 0.0
H1673 H 0.48429 0.87531 0.2601 0.0
H1674 H 0.44275 0.87335 0.25427 0.0
H1675 H 0.4504 0.87792 0.2729 0.0
H1676 H 0.45538 0.88965 0.32232 0.0
H1677 H 0.48158 0.89904 0.34615 0.0
H1678 H 0.49587 0.89597 0.33165 0.0
H1679 H 0.46973 0.88682 0.30784 0.0
C1680 C 0.87676 0.75508 0.02735 0.0
C1681 C 0.87887 0.75602 0.03893 0.0
C1682 C 0.87177 0.77519 0.03896 0.0
C1683 C 0.87644 0.76599 0.04468 0.0
C1684 C 0.86956 0.77414 0.02734 0.0
C1685 C 0.87205 0.76415 0.02159 0.0
U1686 U 0.88443 0.72443 0.02842 0.0
O1687 O 0.87845 0.70984 0.0185 0.0
O1688 O 0.89648 0.71436 0.01869 0.0
C1689 C 0.88852 0.70784 0.01439 0.0
C1690 C 0.87936 0.74459 0.02133 0.0
C1691 C 0.88899 0.70591 1.00218 0.0
C1692 C 0.89148 0.71255 0.98307 0.0
C1693 C 0.8908 0.71475 0.99464 0.0
C1694 C 0.88836 0.69273 0.98654 0.0
C1695 C 0.89025 0.7015 0.9789 0.0
C1696 C 0.88774 0.69493 0.99806 0.0
C1697 C 0.88749 0.71065 0.05691 0.0
C1698 C 0.89264 0.69098 0.05828 0.0
C1699 C 0.88771 0.70151 0.07507 0.0
C1700 C 0.88597 0.71109 0.06856 0.0
C1701 C 0.89101 0.69133 0.06999 0.0
C1702 C 0.89087 0.70056 0.05179 0.0
C1703 C 0.88523 0.72063 0.05011 0.0
O1704 O 0.88981 0.74107 0.02251 0.0
O1705 O 0.87181 0.73654 0.02244 0.0
O1706 O 0.87584 0.72015 0.04417 0.0
O1707 O 0.89388 0.7245 0.0444 0.0
H1708 H 0.88247 0.74906 0.04352 0.0
H1709 H 0.87842 0.76655 0.05356 0.0
H1710 H 0.86584 0.781 0.02271 0.0
H1711 H 0.87028 0.76352 0.01266 0.0
H1712 H 0.89286 0.71949 0.97739 0.0
H1713 H 0.89174 0.72331 0.99769 0.0
H1714 H 0.88756 0.68411 0.98363 0.0
H1715 H 0.88637 0.688 1.00377 0.0
H1716 H 0.89504 0.68324 0.05411 0.0
H1717 H 0.88651 0.70208 0.08407 0.0
H1718 H 0.88336 0.71882 0.07263 0.0
H1719 H 0.89202 0.70007 0.04277 0.0
C1720 C 0.61535 0.28008 0.49657 0.0
C1721 C 0.61079 0.29081 0.49503 0.0
C1722 C 0.61132 0.28821 0.47471 0.0
C1723 C 0.60876 0.29483 0.48421 0.0
C1724 C 0.61594 0.27746 0.4763 0.0
C1725 C 0.61792 0.27342 0.48716 0.0
U1726 U 0.61768 0.28607 0.52765 0.0
O1727 O 0.61191 0.27653 0.54236 0.0
O1728 O 0.62993 0.28066 0.54042 0.0
C1729 C 0.62223 0.2753 0.54629 0.0
C1730 C 0.61762 0.27598 0.50797 0.0
C1731 C 0.62521 0.26398 0.55015 0.0
C1732 C 0.63523 0.24632 0.54804 0.0
C1733 C 0.63184 0.25667 0.54366 0.0
C1734 C 0.62511 0.25037 0.56523 0.0
C1735 C 0.63199 0.2431 0.55893 0.0
C1736 C 0.62177 0.26069 0.56088 0.0
C1737 C 0.61265 0.3154 0.53865 0.0
C1738 C 0.61348 0.31878 0.55879 0.0
C1739 C 0.6115 0.33444 0.54603 0.0
C1740 C 0.61158 0.32697 0.53688 0.0
C1741 C 0.61248 0.33043 0.55709 0.0
C1742 C 0.61358 0.31134 0.54965 0.0
C1743 C 0.61315 0.30758 0.52906 0.0
O1744 O 0.62684 0.28007 0.51272 0.0
O1745 O 0.60886 0.27598 0.51471 0.0
O1746 O 0.60529 0.29972 0.52888 0.0
O1747 O 0.62327 0.30371 0.52686 0.0
H1748 H 0.60885 0.29611 0.50221 0.0
H1749 H 0.60539 0.30322 0.48328 0.0
H1750 H 0.61794 0.27215 0.46916 0.0
H1751 H 0.62148 0.26512 0.48822 0.0
H1752 H 0.64044 0.24086 0.54293 0.0
H1753 H 0.63454 0.25904 0.53532 0.0
H1754 H 0.6226 0.24825 0.57371 0.0
H1755 H 0.61669 0.26625 0.56603 0.0
H1756 H 0.61443 0.31543 0.56718 0.0
H1757 H 0.61063 0.34335 0.54445 0.0
H1758 H 0.61087 0.33023 0.52842 0.0
H1759 H 0.61451 0.30242 0.55116 0.0
C1760 C 0.2492 0.48928 0.13191 0.0
C1761 C 0.24743 0.47775 0.13361 0.0
C1762 C 0.2675 0.47516 0.13725 0.0
C1763 C 0.25646 0.47078 0.13629 0.0
C1764 C 0.26923 0.48676 0.13564 0.0
C1765 C 0.26013 0.49377 0.13296 0.0
U1766 U 0.21896 0.49034 0.12318 0.0
O1767 O 0.20465 0.50074 0.12844 0.0
O1768 O 0.20973 0.50039 0.1107 0.0
C1769 C 0.20321 0.50498 0.11836 0.0
C1770 C 0.23957 0.49638 0.1288 0.0
C1771 C 0.20208 0.51726 0.11788 0.0
C1772 C 0.20723 0.53604 0.12437 0.0
C1773 C 0.20894 0.52441 0.12447 0.0
C1774 C 0.19205 0.5335 0.1108 0.0
C1775 C 0.19866 0.54071 0.11762 0.0
C1776 C 0.19374 0.52189 0.11096 0.0
C1777 C 0.20473 0.46125 0.12056 0.0
C1778 C 0.18452 0.45751 0.12024 0.0
C1779 C 0.19774 0.44234 0.11706 0.0
C1780 C 0.20674 0.44989 0.11821 0.0
C1781 C 0.18653 0.44601 0.11828 0.0
C1782 C 0.19357 0.46508 0.12138 0.0
C1783 C 0.21442 0.46873 0.12271 0.0
O1784 O 0.23621 0.49526 0.1183 0.0
O1785 O 0.23117 0.49621 0.13599 0.0
O1786 O 0.21384 0.47494 0.13187 0.0
O1787 O 0.21834 0.4742 0.11399 0.0
H1788 H 0.23904 0.47413 0.13284 0.0
H1789 H 0.25477 0.46195 0.13769 0.0
H1790 H 0.27764 0.49038 0.13624 0.0
H1791 H 0.26164 0.50265 0.13163 0.0
H1792 H 0.2124 0.54132 0.1298 0.0
H1793 H 0.21546 0.52099 0.12986 0.0
H1794 H 0.18553 0.53681 0.10536 0.0
H1795 H 0.18841 0.51649 0.10576 0.0
H1796 H 0.17599 0.46058 0.12128 0.0
H1797 H 0.19956 0.43359 0.11534 0.0
H1798 H 0.21531 0.44682 0.1175 0.0
H1799 H 0.19187 0.47385 0.12317 0.0
C1800 C 0.28701 0.52077 0.88384 0.0
C1801 C 0.29807 0.52182 0.88805 0.0
C1802 C 0.29792 0.5419 0.88436 0.0
C1803 C 0.30346 0.53228 0.88832 0.0
C1804 C 0.28672 0.54087 0.8804 0.0
C1805 C 0.28132 0.53035 0.8801 0.0
U1806 U 0.29029 0.48972 0.887 0.0
O1807 O 0.27915 0.47637 0.89336 0.0
O1808 O 0.28551 0.47547 0.87606 0.0
C1809 C 0.27872 0.47109 0.88359 0.0
C1810 C 0.28178 0.50957 0.88291 0.0
C1811 C 0.26747 0.46728 0.87949 0.0
C1812 C 0.25625 0.45756 0.86516 0.0
C1813 C 0.26645 0.46241 0.86873 0.0
C1814 C 0.24776 0.46248 0.88299 0.0
C1815 C 0.24683 0.45737 0.87231 0.0
C1816 C 0.25797 0.46737 0.88655 0.0
C1817 C 0.31921 0.4798 0.89717 0.0
C1818 C 0.32426 0.46007 0.89789 0.0
C1819 C 0.33773 0.47434 0.90396 0.0
C1820 C 0.32987 0.48269 0.9015 0.0
C1821 C 0.33505 0.46293 0.90213 0.0
C1822 C 0.3164 0.46845 0.89544 0.0
C1823 C 0.31125 0.48873 0.89426 0.0
O1824 O 0.28616 0.50312 0.87506 0.0
O1825 O 0.28036 0.50434 0.8925 0.0
O1826 O 0.30255 0.48984 0.90099 0.0
O1827 O 0.3085 0.48927 0.88356 0.0
H1828 H 0.30259 0.5145 0.89097 0.0
H1829 H 0.31201 0.53281 0.89159 0.0
H1830 H 0.28227 0.54812 0.87723 0.0
H1831 H 0.2728 0.52967 0.87679 0.0
H1832 H 0.2559 0.45354 0.85697 0.0
H1833 H 0.27365 0.46203 0.86317 0.0
H1834 H 0.24063 0.46256 0.88866 0.0
H1835 H 0.25847 0.47095 0.89494 0.0
H1836 H 0.32189 0.45136 0.89651 0.0
H1837 H 0.346 0.47684 0.90706 0.0
H1838 H 0.33217 0.49143 0.90284 0.0
H1839 H 0.30816 0.46609 0.89213 0.0
C1840 C 0.28641 0.49162 0.62426 0.0
C1841 C 0.29751 0.49044 0.62039 0.0
C1842 C 0.29651 0.47025 0.62333 0.0
C1843 C 0.30251 0.47987 0.61992 0.0
C1844 C 0.28528 0.47143 0.62697 0.0
C1845 C 0.28028 0.48206 0.62746 0.0
U1846 U 0.29024 0.52277 0.62142 0.0
O1847 O 0.27912 0.53613 0.61518 0.0
O1848 O 0.28572 0.5369 0.63247 0.0
C1849 C 0.27886 0.54131 0.62499 0.0
C1850 C 0.28149 0.50288 0.62528 0.0
C1851 C 0.26766 0.54503 0.62907 0.0
C1852 C 0.25596 0.5523 0.64422 0.0
C1853 C 0.266 0.5474 0.64055 0.0
C1854 C 0.24889 0.55233 0.62509 0.0
C1855 C 0.24738 0.55504 0.63651 0.0
C1856 C 0.25893 0.54743 0.62141 0.0
C1857 C 0.31889 0.53327 0.61142 0.0
C1858 C 0.32393 0.55309 0.61186 0.0
C1859 C 0.3368 0.53951 0.60378 0.0
C1860 C 0.32915 0.53086 0.60616 0.0
C1861 C 0.33431 0.55071 0.60667 0.0
C1862 C 0.31626 0.54443 0.61419 0.0
C1863 C 0.3111 0.52405 0.61416 0.0
O1864 O 0.28611 0.50921 0.63319 0.0
O1865 O 0.28009 0.50821 0.61573 0.0
O1866 O 0.30233 0.52289 0.60742 0.0
O1867 O 0.3085 0.52325 0.62485 0.0
H1868 H 0.30236 0.49775 0.61786 0.0
H1869 H 0.3111 0.47922 0.6169 0.0
H1870 H 0.28048 0.46418 0.62971 0.0
H1871 H 0.2717 0.48285 0.63049 0.0
H1872 H 0.25517 0.55443 0.65305 0.0
H1873 H 0.2726 0.54583 0.64667 0.0
H1874 H 0.24239 0.55422 0.61895 0.0
H1875 H 0.25998 0.54583 0.6125 0.0
H1876 H 0.32171 0.56164 0.61406 0.0
H1877 H 0.34477 0.53739 0.5999 0.0
H1878 H 0.3313 0.52228 0.60399 0.0
H1879 H 0.30833 0.54642 0.61822 0.0
C1880 C 0.24292 0.51766 0.3708 0.0
C1881 C 0.242 0.52758 0.36452 0.0
C1882 C 0.26232 0.53055 0.36581 0.0
C1883 C 0.25162 0.53391 0.36198 0.0
C1884 C 0.26324 0.52056 0.372 0.0
C1885 C 0.25362 0.51416 0.37444 0.0
U1886 U 0.21277 0.51769 0.38095 0.0
O1887 O 0.19786 0.50768 0.37608 0.0
O1888 O 0.20403 0.50735 0.39352 0.0
C1889 C 0.19691 0.50313 0.38607 0.0
C1890 C 0.23277 0.51132 0.37418 0.0
C1891 C 0.19553 0.49085 0.38618 0.0
C1892 C 0.20052 0.47222 0.37943 0.0
C1893 C 0.20243 0.48384 0.37966 0.0
C1894 C 0.18506 0.47452 0.39251 0.0
C1895 C 0.19171 0.46744 0.38575 0.0
C1896 C 0.18695 0.48612 0.39269 0.0
C1897 C 0.1989 0.54626 0.3858 0.0
C1898 C 0.1788 0.55033 0.3853 0.0
C1899 C 0.19182 0.56338 0.39438 0.0
C1900 C 0.20082 0.55631 0.39174 0.0
C1901 C 0.18073 0.56054 0.39106 0.0
C1902 C 0.18781 0.54321 0.38274 0.0
C1903 C 0.20861 0.53926 0.38265 0.0
O1904 O 0.23011 0.51228 0.38486 0.0
O1905 O 0.22398 0.51205 0.3674 0.0
O1906 O 0.20757 0.53353 0.37319 0.0
O1907 O 0.21318 0.53345 0.39083 0.0
H1908 H 0.23382 0.53056 0.36176 0.0
H1909 H 0.25064 0.54164 0.35734 0.0
H1910 H 0.2714 0.51774 0.37499 0.0
H1911 H 0.2545 0.50657 0.37934 0.0
H1912 H 0.20574 0.46703 0.37407 0.0
H1913 H 0.20913 0.48737 0.3746 0.0
H1914 H 0.17835 0.4711 0.39763 0.0
H1915 H 0.1816 0.49142 0.39783 0.0
H1916 H 0.17033 0.54788 0.38273 0.0
H1917 H 0.19358 0.57124 0.39872 0.0
H1918 H 0.20932 0.55879 0.39417 0.0
H1919 H 0.18611 0.53542 0.37825 0.0
P1920 P 0.10849 0.35088 0.11721 0.0
H1921 H 0.09821 0.33726 0.13469 0.0
H1922 H 0.08223 0.34052 0.14697 0.0
H1923 H 0.07287 0.36944 0.12724 0.0
H1924 H 0.08927 0.36628 0.11516 0.0
H1925 H 0.12472 0.3375 0.10501 0.0
H1926 H 0.12477 0.32913 0.08625 0.0
H1927 H 0.09088 0.3412 0.08052 0.0
H1928 H 0.09088 0.34962 0.09947 0.0
H1929 H 0.10901 0.37 0.13266 0.0
H1930 H 0.12211 0.36201 0.0998 0.0
O1931 O 0.11719 0.34345 0.12532 0.0
H1932 H 0.1192 0.38788 0.13253 0.0
H1933 H 0.13264 0.37965 0.09979 0.0
C1934 C 0.09505 0.35167 0.12418 0.0
C1935 C 0.09261 0.34418 0.13286 0.0
C1936 C 0.08336 0.34602 0.13985 0.0
C1937 C 0.07629 0.35535 0.13821 0.0
C1938 C 0.07826 0.36231 0.12889 0.0
C1939 C 0.08758 0.36047 0.12192 0.0
C1940 C 0.10774 0.34402 0.10369 0.0
C1941 C 0.11723 0.33824 0.09979 0.0
C1942 C 0.11729 0.33355 0.08903 0.0
C1943 C 0.10785 0.33456 0.08191 0.0
C1944 C 0.09824 0.34023 0.08588 0.0
C1945 C 0.09824 0.34503 0.09668 0.0
C1946 C 0.11463 0.36472 0.11618 0.0
C1947 C 0.11392 0.37217 0.12533 0.0
C1948 C 0.11985 0.38235 0.12529 0.0
C1949 C 0.12679 0.3852 0.11617 0.0
C1950 C 0.12724 0.37783 0.10687 0.0
C1951 C 0.12125 0.36767 0.1069 0.0
P1952 P 0.92658 0.88274 0.41613 0.0
H1953 H 0.93802 0.86989 0.43366 0.0
H1954 H 0.93164 0.85475 0.44594 0.0
H1955 H 0.89963 0.85366 0.42828 0.0
H1956 H 0.90602 0.86886 0.41614 0.0
H1957 H 0.94078 0.89519 0.40078 0.0
H1958 H 0.9472 0.89145 0.38165 0.0
H1959 H 0.93147 0.85859 0.38263 0.0
H1960 H 0.92489 0.86251 0.40172 0.0
H1961 H 0.91615 0.90024 0.42986 0.0
H1962 H 0.90989 0.884 0.39786 0.0
O1963 O 0.93621 0.89008 0.42345 0.0
H1964 H 0.89897 0.91138 0.42748 0.0
H1965 H 0.89285 0.89517 0.39535 0.0
C1966 C 0.9224 0.87067 0.42417 0.0
C1967 C 0.92966 0.86633 0.43238 0.0
C1968 C 0.92603 0.85762 0.43935 0.0
C1969 C 0.91507 0.85309 0.43818 0.0
C1970 C 0.90803 0.85712 0.42955 0.0
C1971 C 0.91169 0.8658 0.42258 0.0
C1972 C 0.93253 0.87907 0.40272 0.0
C1973 C 0.9389 0.8871 0.39695 0.0
C1974 C 0.94259 0.88493 0.38601 0.0
C1975 C 0.93988 0.8747 0.38061 0.0
C1976 C 0.93362 0.86659 0.38652 0.0
C1977 C 0.92994 0.86877 0.39748 0.0
C1978 C 0.91441 0.89147 0.41394 0.0
C1979 C 0.91117 0.8992 0.42225 0.0
C1980 C 0.90136 0.90556 0.42087 0.0
C1981 C 0.89457 0.90417 0.41121 0.0
C1982 C 0.89785 0.89637 0.40293 0.0
C1983 C 0.90767 0.89006 0.4043 0.0
P1984 P 0.42554 0.63358 0.59146 0.0
H1985 H 0.43875 0.65047 0.5798 0.0
H1986 H 0.43363 0.66755 0.56973 0.0
H1987 H 0.39874 0.6627 0.57919 0.0
H1988 H 0.40397 0.64572 0.5894 0.0
H1989 H 0.44153 0.62004 0.60392 0.0
H1990 H 0.44999 0.62188 0.6226 0.0
H1991 H 0.43217 0.65309 0.62772 0.0
H1992 H 0.42359 0.65108 0.60898 0.0
H1993 H 0.41538 0.61714 0.5761 0.0
H1994 H 0.40897 0.63009 0.6094 0.0
O1995 O 0.43488 0.62735 0.58303 0.0
H1996 H 0.39939 0.60417 0.57783 0.0
H1997 H 0.39307 0.61702 0.61128 0.0
C1998 C 0.42171 0.64672 0.58513 0.0
C1999 C 0.43001 0.65313 0.57976 0.0
C2000 C 0.42706 0.66287 0.57398 0.0
C2001 C 0.41575 0.6664 0.57353 0.0
C2002 C 0.40753 0.66023 0.5794 0.0
C2003 C 0.4105 0.65046 0.58518 0.0
C2004 C 0.43214 0.63554 0.60499 0.0
C2005 C 0.43955 0.62735 0.60901 0.0
C2006 C 0.44441 0.62843 0.61969 0.0
C2007 C 0.44185 0.63769 0.62662 0.0
C2008 C 0.43429 0.64584 0.6226 0.0
C2009 C 0.42945 0.64476 0.61187 0.0
C2010 C 0.4135 0.62438 0.59271 0.0
C2011 C 0.41056 0.61714 0.5838 0.0
C2012 C 0.40144 0.60972 0.58482 0.0
C2013 C 0.39503 0.60948 0.59474 0.0
C2014 C 0.3978 0.61702 0.60351 0.0
C2015 C 0.40695 0.62443 0.60249 0.0
P2016 P 0.60798 0.15913 0.89829 0.0
H2017 H 0.60411 0.17045 0.87696 0.0
H2018 H 0.58999 0.16787 0.86224 0.0
H2019 H 0.57229 0.14387 0.88292 0.0
H2020 H 0.58667 0.14645 0.89769 0.0
H2021 H 0.61767 0.15442 0.9203 0.0
H2022 H 0.61413 0.16211 0.93896 0.0
H2023 H 0.58622 0.18125 0.92569 0.0
H2024 H 0.58985 0.17346 0.90691 0.0
H2025 H 0.62732 0.15044 0.88601 0.0
H2026 H 0.60292 0.13787 0.90964 0.0
O2027 O 0.61739 0.16873 0.89415 0.0
H2028 H 0.63646 0.13212 0.8855 0.0
H2029 H 0.61217 0.1195 0.90937 0.0
C2030 C 0.59642 0.15865 0.88842 0.0
C2031 C 0.59709 0.1648 0.87845 0.0
C2032 C 0.58894 0.16335 0.87003 0.0
C2033 C 0.57998 0.15566 0.87139 0.0
C2034 C 0.57913 0.14979 0.88158 0.0
C2035 C 0.58729 0.15129 0.89004 0.0
C2036 C 0.60382 0.16311 0.91228 0.0
C2037 C 0.61056 0.15998 0.92144 0.0
C2038 C 0.60853 0.16441 0.93213 0.0
C2039 C 0.59985 0.17225 0.93383 0.0
C2040 C 0.59298 0.17524 0.92464 0.0
C2041 C 0.59498 0.17072 0.91394 0.0
C2042 C 0.61463 0.14557 0.89808 0.0
C2043 C 0.624 0.14376 0.89119 0.0
C2044 C 0.62924 0.13328 0.89093 0.0
C2045 C 0.62515 0.12438 0.89752 0.0
C2046 C 0.61552 0.12616 0.90418 0.0
C2047 C 0.61028 0.13667 0.90441 0.0
P2048 P 0.10982 0.65939 0.39416 0.0
H2049 H 0.10039 0.67345 0.37655 0.0
H2050 H 0.08479 0.67053 0.36347 0.0
H2051 H 0.07432 0.64119 0.38207 0.0
H2052 H 0.09032 0.64403 0.39497 0.0
H2053 H 0.12668 0.67128 0.40732 0.0
H2054 H 0.12664 0.67966 0.42609 0.0
H2055 H 0.09124 0.67137 0.42941 0.0
H2056 H 0.09135 0.66286 0.41047 0.0
H2057 H 0.11279 0.64093 0.37834 0.0
H2058 H 0.11917 0.64714 0.41362 0.0
O2059 O 0.11913 0.66632 0.38628 0.0
H2060 H 0.12215 0.62273 0.37978 0.0
H2061 H 0.1285 0.62898 0.41509 0.0
C2062 C 0.09664 0.6588 0.38655 0.0
C2063 C 0.09462 0.66651 0.37795 0.0
C2064 C 0.08559 0.66486 0.3705 0.0
C2065 C 0.07834 0.65551 0.37159 0.0
C2066 C 0.07987 0.64834 0.38084 0.0
C2067 C 0.08896 0.64998 0.38826 0.0
C2068 C 0.10899 0.66662 0.40745 0.0
C2069 C 0.11886 0.6714 0.412 0.0
C2070 C 0.11885 0.6761 0.42276 0.0
C2071 C 0.10895 0.67611 0.42921 0.0
C2072 C 0.09896 0.67153 0.42456 0.0
C2073 C 0.09902 0.66669 0.41377 0.0
C2074 C 0.11525 0.6454 0.39585 0.0
C2075 C 0.11602 0.63829 0.38644 0.0
C2076 C 0.12133 0.62787 0.38728 0.0
C2077 C 0.12609 0.62444 0.39754 0.0
C2078 C 0.12501 0.63145 0.40704 0.0
C2079 C 0.11963 0.64184 0.40621 0.0
P2080 P 0.60981 0.85198 0.61642 0.0
H2081 H 0.59227 0.83609 0.6228 0.0
H2082 H 0.57641 0.8375 0.63582 0.0
H2083 H 0.58323 0.87304 0.63999 0.0
H2084 H 0.59871 0.87163 0.62672 0.0
H2085 H 0.62592 0.84022 0.60256 0.0
H2086 H 0.62458 0.83085 0.58432 0.0
H2087 H 0.58896 0.83858 0.58271 0.0
H2088 H 0.5905 0.84831 0.60091 0.0
H2089 H 0.62295 0.86617 0.63164 0.0
H2090 H 0.61233 0.86693 0.5969 0.0
O2091 O 0.61804 0.84408 0.62456 0.0
H2092 H 0.63361 0.88361 0.62907 0.0
H2093 H 0.62305 0.88439 0.59425 0.0
C2094 C 0.59669 0.85372 0.62379 0.0
C2095 C 0.59013 0.84424 0.62629 0.0
C2096 C 0.58113 0.84505 0.63381 0.0
C2097 C 0.57862 0.85536 0.63908 0.0
C2098 C 0.58483 0.86498 0.63603 0.0
C2099 C 0.59378 0.86416 0.62847 0.0
C2100 C 0.60827 0.84472 0.60318 0.0
C2101 C 0.6178 0.8398 0.59833 0.0
C2102 C 0.617 0.83439 0.58791 0.0
C2103 C 0.60662 0.8338 0.58209 0.0
C2104 C 0.59708 0.83889 0.58694 0.0
C2105 C 0.59792 0.84437 0.59739 0.0
C2106 C 0.61704 0.86517 0.61442 0.0
C2107 C 0.6229 0.87012 0.62347 0.0
C2108 C 0.62891 0.88013 0.622 0.0
C2109 C 0.62919 0.88534 0.61144 0.0
C2110 C 0.62308 0.88049 0.60245 0.0
C2111 C 0.61696 0.87051 0.60396 0.0
P2112 P 0.42704 0.38154 0.9168 0.0
H2113 H 0.43964 0.36244 0.92531 0.0
H2114 H 0.43452 0.3469 0.93771 0.0
H2115 H 0.4 0.35857 0.93813 0.0
H2116 H 0.4051 0.37381 0.9256 0.0
H2117 H 0.44214 0.39328 0.90172 0.0
H2118 H 0.44783 0.38983 0.88231 0.0
H2119 H 0.42854 0.35885 0.88196 0.0
H2120 H 0.4227 0.36252 0.90137 0.0
H2121 H 0.41957 0.4004 0.93071 0.0
H2122 H 0.40887 0.38371 0.90011 0.0
O2123 O 0.43749 0.38787 0.92396 0.0
H2124 H 0.40375 0.41343 0.92909 0.0
H2125 H 0.39319 0.39683 0.89828 0.0
C2126 C 0.4228 0.36933 0.9246 0.0
C2127 C 0.43094 0.36152 0.92795 0.0
C2128 C 0.42801 0.35269 0.93509 0.0
C2129 C 0.41686 0.35153 0.939 0.0
C2130 C 0.40863 0.35912 0.9352 0.0
C2131 C 0.41157 0.36793 0.92807 0.0
C2132 C 0.43219 0.37805 0.90303 0.0
C2133 C 0.4393 0.38565 0.89752 0.0
C2134 C 0.44257 0.38365 0.88643 0.0
C2135 C 0.4387 0.37403 0.88059 0.0
C2136 C 0.43163 0.36637 0.8862 0.0
C2137 C 0.42836 0.36839 0.89732 0.0
C2138 C 0.41554 0.39127 0.91539 0.0
C2139 C 0.41389 0.39962 0.92357 0.0
C2140 C 0.40485 0.40707 0.92262 0.0
C2141 C 0.39725 0.40622 0.91351 0.0
C2142 C 0.39884 0.39767 0.90544 0.0
C2143 C 0.40788 0.39023 0.90641 0.0
P2144 P 0.92469 0.13385 0.09145 0.0
H2145 H 0.93493 0.15599 0.0886 0.0
H2146 H 0.92825 0.17325 0.07971 0.0
H2147 H 0.89595 0.1573 0.07312 0.0
H2148 H 0.9026 0.14023 0.08208 0.0
H2149 H 0.9422 0.12082 0.10236 0.0
H2150 H 0.95098 0.12188 0.12098 0.0
H2151 H 0.93104 0.15119 0.12879 0.0
H2152 H 0.92233 0.15011 0.11007 0.0
H2153 H 0.91812 0.11364 0.07869 0.0
H2154 H 0.90667 0.13175 0.10798 0.0
O2155 O 0.93396 0.12899 0.08211 0.0
H2156 H 0.90317 0.09967 0.08126 0.0
H2157 H 0.89153 0.11792 0.11051 0.0
C2158 C 0.91923 0.14689 0.08616 0.0
C2159 C 0.92635 0.1563 0.0854 0.0
C2160 C 0.92255 0.16613 0.08025 0.0
C2161 C 0.91155 0.16667 0.07572 0.0
C2162 C 0.90439 0.15725 0.0767 0.0
C2163 C 0.90821 0.14744 0.08181 0.0
C2164 C 0.93182 0.13553 0.10476 0.0
C2165 C 0.93985 0.12758 0.10802 0.0
C2166 C 0.94478 0.12813 0.1187 0.0
C2167 C 0.94171 0.13662 0.12636 0.0
C2168 C 0.9337 0.14465 0.12302 0.0
C2169 C 0.92873 0.14405 0.11233 0.0
C2170 C 0.91359 0.12362 0.09325 0.0
C2171 C 0.91238 0.11461 0.08568 0.0
C2172 C 0.90377 0.10667 0.08711 0.0
C2173 C 0.89617 0.10765 0.09612 0.0
C2174 C 0.89735 0.11681 0.1036 0.0
C2175 C 0.90597 0.12474 0.10215 0.0
P2176 P 0.10555 0.08125 0.36866 0.0
H2177 H 0.09331 0.06796 0.35186 0.0
H2178 H 0.08125 0.07314 0.33597 0.0
H2179 H 0.08969 0.10814 0.34168 0.0
H2180 H 0.10193 0.10286 0.35729 0.0
H2181 H 0.11878 0.06522 0.38132 0.0
H2182 H 0.13757 0.05733 0.37873 0.0
H2183 H 0.1412 0.07602 0.34794 0.0
H2184 H 0.12234 0.08401 0.35068 0.0
H2185 H 0.09053 0.09154 0.38504 0.0
H2186 H 0.12378 0.09789 0.37178 0.0
O2187 O 0.09755 0.0718 0.37526 0.0
H2188 H 0.09215 0.10834 0.3969 0.0
H2189 H 0.12539 0.11483 0.38344 0.0
C2190 C 0.0983 0.08503 0.3559 0.0
C2191 C 0.09269 0.07673 0.34956 0.0
C2192 C 0.08576 0.07971 0.34052 0.0
C2193 C 0.08436 0.09108 0.33765 0.0
C2194 C 0.0906 0.09931 0.3436 0.0
C2195 C 0.09755 0.0963 0.35263 0.0
C2196 C 0.11909 0.075 0.36607 0.0
C2197 C 0.12356 0.0675 0.37393 0.0
C2198 C 0.13429 0.06298 0.37242 0.0
C2199 C 0.14085 0.06596 0.36307 0.0
C2200 C 0.13637 0.07358 0.35524 0.0
C2201 C 0.12557 0.07808 0.35674 0.0
C2202 C 0.10713 0.09333 0.37773 0.0
C2203 C 0.09822 0.09651 0.38475 0.0
C2204 C 0.09912 0.10618 0.39145 0.0
C2205 C 0.10892 0.11292 0.39115 0.0
C2206 C 0.11782 0.10972 0.38403 0.0
C2207 C 0.1169 0.10004 0.37734 0.0
P2208 P 0.14675 0.8894 0.62604 0.0
H2209 H 0.16186 0.87275 0.61632 0.0
H2210 H 0.16 0.86 0.60023 0.0
H2211 H 0.12829 0.87552 0.59132 0.0
H2212 H 0.13018 0.8882 0.60754 0.0
H2213 H 0.14694 0.90993 0.63947 0.0
H2214 H 0.15811 0.92719 0.63855 0.0
H2215 H 0.1739 0.91513 0.60812 0.0
H2216 H 0.16267 0.89782 0.60912 0.0
H2217 H 0.13309 0.8754 0.64064 0.0
H2218 H 0.1293 0.90666 0.62296 0.0
O2219 O 0.1543 0.88228 0.63547 0.0
H2220 H 0.11402 0.87723 0.6481 0.0
H2221 H 0.11009 0.90852 0.63031 0.0
C2222 C 0.14602 0.88121 0.61327 0.0
C2223 C 0.15456 0.87348 0.61084 0.0
C2224 C 0.15353 0.86626 0.60158 0.0
C2225 C 0.14394 0.86668 0.59455 0.0
C2226 C 0.13568 0.87487 0.59669 0.0
C2227 C 0.13676 0.88213 0.60594 0.0
C2228 C 0.15375 0.90272 0.62421 0.0
C2229 C 0.15259 0.91111 0.63244 0.0
C2230 C 0.159 0.92098 0.63191 0.0
C2231 C 0.16685 0.92255 0.62322 0.0
C2232 C 0.16794 0.91414 0.61493 0.0
C2233 C 0.16146 0.90428 0.61544 0.0
C2234 C 0.1327 0.89104 0.63151 0.0
C2235 C 0.12816 0.88269 0.63841 0.0
C2236 C 0.11721 0.8837 0.64257 0.0
C2237 C 0.11054 0.89304 0.63982 0.0
C2238 C 0.11507 0.90131 0.63271 0.0
C2239 C 0.12604 0.90027 0.62852 0.0
P2240 P 0.4003 0.92522 0.87297 0.0
H2241 H 0.40571 0.9367 0.85205 0.0
H2242 H 0.41807 0.93187 0.83627 0.0
H2243 H 0.42525 0.89992 0.8517 0.0
H2244 H 0.41312 0.90482 0.86741 0.0
H2245 H 0.3848 0.94016 0.88447 0.0
H2246 H 0.36518 0.94531 0.8809 0.0
H2247 H 0.36563 0.92615 0.84987 0.0
H2248 H 0.3852 0.92082 0.85368 0.0
H2249 H 0.41269 0.91796 0.89299 0.0
H2250 H 0.38431 0.90639 0.87306 0.0
O2251 O 0.40734 0.93547 0.87968 0.0
H2252 H 0.41074 0.90156 0.90516 0.0
H2253 H 0.38237 0.88997 0.88509 0.0
C2254 C 0.40841 0.92111 0.86086 0.0
C2255 C 0.40986 0.92861 0.85194 0.0
C2256 C 0.41688 0.92582 0.84292 0.0
C2257 C 0.42267 0.91553 0.84277 0.0
C2258 C 0.42102 0.90797 0.85165 0.0
C2259 C 0.414 0.91075 0.86062 0.0
C2260 C 0.38651 0.93031 0.86924 0.0
C2261 C 0.38074 0.93726 0.87679 0.0
C2262 C 0.36952 0.94022 0.87471 0.0
C2263 C 0.36383 0.93617 0.86507 0.0
C2264 C 0.36973 0.92934 0.85741 0.0
C2265 C 0.38097 0.92639 0.85951 0.0
C2266 C 0.39848 0.91352 0.8823 0.0
C2267 C 0.40597 0.91195 0.89131 0.0
C2268 C 0.40491 0.90253 0.89819 0.0
C2269 C 0.39635 0.8945 0.89613 0.0
C2270 C 0.3889 0.8961 0.88703 0.0
C2271 C 0.39001 0.90549 0.88014 0.0
P2272 P 0.38482 0.10383 0.08687 0.0
H2273 H 0.37123 0.08677 0.07519 0.0
H2274 H 0.35532 0.07507 0.08107 0.0
H2275 H 0.35467 0.09269 0.11298 0.0
H2276 H 0.37071 0.10422 0.10709 0.0
H2277 H 0.39785 0.11803 0.07201 0.0
H2278 H 0.39458 0.13659 0.06408 0.0
H2279 H 0.36169 0.13742 0.07967 0.0
H2280 H 0.36515 0.11889 0.08775 0.0
H2281 H 0.40192 0.09024 0.09801 0.0
H2282 H 0.38641 0.12258 0.103 0.0
O2283 O 0.39211 0.096 0.07778 0.0
H2284 H 0.41334 0.09316 0.11501 0.0
H2285 H 0.3979 0.12565 0.11989 0.0
C2286 C 0.3723 0.09617 0.0908 0.0
C2287 C 0.36761 0.08815 0.08342 0.0
C2288 C 0.35846 0.08152 0.08677 0.0
C2289 C 0.35379 0.08286 0.09755 0.0
C2290 C 0.35821 0.09129 0.10471 0.0
C2291 C 0.36736 0.09791 0.10134 0.0
C2292 C 0.38166 0.117 0.08028 0.0
C2293 C 0.38987 0.12214 0.07358 0.0
C2294 C 0.38796 0.13274 0.06902 0.0
C2295 C 0.37783 0.13847 0.07117 0.0
C2296 C 0.3696 0.13326 0.0779 0.0
C2297 C 0.37152 0.12262 0.08245 0.0
C2298 C 0.39351 0.10629 0.09913 0.0
C2299 C 0.40108 0.09803 0.10269 0.0
C2300 C 0.40761 0.09972 0.1124 0.0
C2301 C 0.40657 0.10967 0.11877 0.0
C2302 C 0.39885 0.11787 0.11521 0.0
C2303 C 0.39235 0.11617 0.10549 0.0
P2304 P 0.12634 0.89211 0.16138 0.0
H2305 H 0.14454 0.90095 0.17556 0.0
H2306 H 0.15793 0.91642 0.17326 0.0
H2307 H 0.1408 0.92607 0.14266 0.0
H2308 H 0.12749 0.91043 0.14496 0.0
H2309 H 0.10521 0.87962 0.16269 0.0
H2310 H 0.0885 0.88169 0.17442 0.0
H2311 H 0.10272 0.91202 0.18905 0.0
H2312 H 0.11948 0.90986 0.17727 0.0
H2313 H 0.13871 0.87644 0.14724 0.0
H2314 H 0.1082 0.89591 0.14481 0.0
O2315 O 0.13338 0.8824 0.16859 0.0
H2316 H 0.13512 0.8685 0.12857 0.0
H2317 H 0.10458 0.88809 0.126 0.0
C2318 C 0.1352 0.9044 0.16029 0.0
C2319 C 0.14362 0.90644 0.16839 0.0
C2320 C 0.15122 0.91536 0.16711 0.0
C2321 C 0.1505 0.92243 0.15771 0.0
C2322 C 0.1417 0.92065 0.14988 0.0
C2323 C 0.13407 0.91174 0.1512 0.0
C2324 C 0.11346 0.89474 0.16889 0.0
C2325 C 0.10462 0.88687 0.16823 0.0
C2326 C 0.09506 0.88806 0.17495 0.0
C2327 C 0.09425 0.89705 0.18263 0.0
C2328 C 0.10311 0.90498 0.18324 0.0
C2329 C 0.11266 0.90381 0.17644 0.0
C2330 C 0.12357 0.88652 0.14751 0.0
C2331 C 0.13122 0.87899 0.14268 0.0
C2332 C 0.12921 0.87454 0.13196 0.0
C2333 C 0.11953 0.87763 0.12581 0.0
C2334 C 0.11201 0.88541 0.13059 0.0
C2335 C 0.11406 0.88988 0.14133 0.0
P2336 P 0.38159 0.90829 0.42368 0.0
H2337 H 0.36158 0.91657 0.43511 0.0
H2338 H 0.34615 0.92885 0.42919 0.0
H2339 H 0.35986 0.92948 0.39559 0.0
H2340 H 0.375 0.91708 0.40148 0.0
H2341 H 0.39393 0.89262 0.43751 0.0
H2342 H 0.39032 0.87322 0.44312 0.0
H2343 H 0.35814 0.87389 0.42579 0.0
H2344 H 0.36181 0.89337 0.42024 0.0
H2345 H 0.4012 0.92195 0.41758 0.0
H2346 H 0.38454 0.89182 0.40553 0.0
O2347 O 0.38731 0.91551 0.43439 0.0
H2348 H 0.41526 0.9202 0.40268 0.0
H2349 H 0.39868 0.88987 0.39075 0.0
C2350 C 0.36948 0.91598 0.41878 0.0
C2351 C 0.36114 0.91923 0.42643 0.0
C2352 C 0.35236 0.9263 0.42304 0.0
C2353 C 0.3518 0.93023 0.41192 0.0
C2354 C 0.35994 0.92653 0.40418 0.0
C2355 C 0.36869 0.91947 0.40757 0.0
C2356 C 0.37806 0.89447 0.42863 0.0
C2357 C 0.38602 0.88865 0.43506 0.0
C2358 C 0.38399 0.87754 0.43818 0.0
C2359 C 0.37395 0.87203 0.43489 0.0
C2360 C 0.36588 0.87797 0.42858 0.0
C2361 C 0.36797 0.88909 0.42539 0.0
C2362 C 0.39199 0.90688 0.41279 0.0
C2363 C 0.40064 0.9149 0.41179 0.0
C2364 C 0.40869 0.91387 0.40329 0.0
C2365 C 0.40814 0.90485 0.39558 0.0
C2366 C 0.3993 0.89696 0.3965 0.0
C2367 C 0.39127 0.898 0.40501 0.0
P2368 P 0.40411 0.08548 0.63601 0.0
H2369 H 0.41976 0.07177 0.64894 0.0
H2370 H 0.43155 0.07571 0.66546 0.0
H2371 H 0.41764 0.10916 0.66757 0.0
H2372 H 0.40577 0.10509 0.65109 0.0
H2373 H 0.38893 0.07111 0.62299 0.0
H2374 H 0.36942 0.06501 0.62575 0.0
H2375 H 0.36891 0.08249 0.65775 0.0
H2376 H 0.38856 0.0883 0.65503 0.0
H2377 H 0.41921 0.09635 0.62007 0.0
H2378 H 0.38653 0.10275 0.63455 0.0
O2379 O 0.41105 0.07601 0.6283 0.0
H2380 H 0.41756 0.11339 0.60879 0.0
H2381 H 0.38487 0.11982 0.62346 0.0
C2382 C 0.41209 0.08822 0.64866 0.0
C2383 C 0.41923 0.07994 0.65297 0.0
C2384 C 0.42598 0.08221 0.6624 0.0
C2385 C 0.42563 0.09279 0.66774 0.0
C2386 C 0.41809 0.10092 0.66366 0.0
C2387 C 0.41136 0.09864 0.6542 0.0
C2388 C 0.39025 0.07997 0.63889 0.0
C2389 C 0.38469 0.07344 0.63069 0.0
C2390 C 0.37349 0.07007 0.63223 0.0
C2391 C 0.36758 0.07329 0.64195 0.0
C2392 C 0.37326 0.07971 0.65024 0.0
C2393 C 0.3845 0.08306 0.6487 0.0
C2394 C 0.40289 0.09814 0.62793 0.0
C2395 C 0.41168 0.10141 0.6208 0.0
C2396 C 0.41075 0.1112 0.61443 0.0
C2397 C 0.40103 0.11791 0.61515 0.0
C2398 C 0.39236 0.11471 0.62253 0.0
C2399 C 0.39331 0.10495 0.6289 0.0
P2400 P 0.15037 0.12134 0.88494 0.0
H2401 H 0.16076 0.14247 0.89242 0.0
H2402 H 0.15664 0.15528 0.9079 0.0
H2403 H 0.13168 0.13187 0.92034 0.0
H2404 H 0.13582 0.11907 0.90466 0.0
H2405 H 0.14855 0.09975 0.87328 0.0
H2406 H 0.1585 0.08204 0.87554 0.0
H2407 H 0.1756 0.09546 0.90494 0.0
H2408 H 0.16554 0.11325 0.90263 0.0
H2409 H 0.14048 0.13447 0.86688 0.0
H2410 H 0.13053 0.10663 0.88767 0.0
O2411 O 0.15958 0.12765 0.87645 0.0
H2412 H 0.12223 0.13372 0.85727 0.0
H2413 H 0.11222 0.10569 0.87795 0.0
C2414 C 0.14853 0.12986 0.89735 0.0
C2415 C 0.15452 0.13999 0.89855 0.0
C2416 C 0.1522 0.1473 0.90747 0.0
C2417 C 0.1438 0.14462 0.91535 0.0
C2418 C 0.13811 0.13423 0.91434 0.0
C2419 C 0.14049 0.1269 0.90542 0.0
C2420 C 0.15605 0.1077 0.88798 0.0
C2421 C 0.15416 0.09878 0.88042 0.0
C2422 C 0.15989 0.08865 0.88171 0.0
C2423 C 0.16781 0.08732 0.89045 0.0
C2424 C 0.16957 0.09624 0.89811 0.0
C2425 C 0.16375 0.10636 0.89686 0.0
C2426 C 0.13695 0.12043 0.87779 0.0
C2427 C 0.13441 0.1281 0.86928 0.0
C2428 C 0.12397 0.12764 0.86378 0.0
C2429 C 0.11582 0.11955 0.86675 0.0
C2430 C 0.1183 0.11203 0.87548 0.0
C2431 C 0.12879 0.11251 0.88099 0.0
P2432 P 0.88199 0.40835 0.92287 0.0
H2433 H 0.86298 0.41819 0.93471 0.0
H2434 H 0.84755 0.43041 0.92868 0.0
H2435 H 0.85902 0.42762 0.89433 0.0
H2436 H 0.87419 0.41527 0.90038 0.0
H2437 H 0.89325 0.39389 0.93887 0.0
H2438 H 0.88958 0.37475 0.94519 0.0
H2439 H 0.85958 0.37331 0.92432 0.0
H2440 H 0.86323 0.3926 0.91818 0.0
H2441 H 0.90128 0.42205 0.91597 0.0
H2442 H 0.88487 0.3913 0.90522 0.0
O2443 O 0.88792 0.41583 0.93331 0.0
H2444 H 0.91525 0.41986 0.90106 0.0
H2445 H 0.89867 0.38915 0.89016 0.0
C2446 C 0.86981 0.41595 0.91804 0.0
C2447 C 0.86205 0.42009 0.92586 0.0
C2448 C 0.85328 0.42712 0.92241 0.0
C2449 C 0.85211 0.4301 0.91103 0.0
C2450 C 0.8596 0.42544 0.90314 0.0
C2451 C 0.86836 0.41842 0.90661 0.0
C2452 C 0.8784 0.39472 0.92824 0.0
C2453 C 0.88578 0.38952 0.9358 0.0
C2454 C 0.88373 0.37854 0.93932 0.0
C2455 C 0.8743 0.37248 0.93524 0.0
C2456 C 0.86683 0.37779 0.92774 0.0
C2457 C 0.8689 0.38881 0.92422 0.0
C2458 C 0.89222 0.4067 0.91185 0.0
C2459 C 0.90071 0.41481 0.91041 0.0
C2460 C 0.90863 0.4136 0.90182 0.0
C2461 C 0.90812 0.40429 0.89446 0.0
C2462 C 0.89943 0.3963 0.89582 0.0
C2463 C 0.89152 0.39752 0.90441 0.0
P2464 P 0.90258 0.58769 0.1359 0.0
H2465 H 0.91925 0.57417 0.14779 0.0
H2466 H 0.93142 0.578 0.16408 0.0
H2467 H 0.91638 0.61082 0.16774 0.0
H2468 H 0.90417 0.60688 0.1515 0.0
H2469 H 0.88627 0.5747 0.12282 0.0
H2470 H 0.86676 0.56895 0.12625 0.0
H2471 H 0.86862 0.58387 0.15947 0.0
H2472 H 0.88811 0.58972 0.1559 0.0
H2473 H 0.9167 0.59774 0.11858 0.0
H2474 H 0.88594 0.60585 0.13604 0.0
O2475 O 0.90908 0.57809 0.12797 0.0
H2476 H 0.91505 0.61498 0.10764 0.0
H2477 H 0.88435 0.62319 0.12534 0.0
C2478 C 0.91098 0.59032 0.14831 0.0
C2479 C 0.91857 0.58218 0.15211 0.0
C2480 C 0.92553 0.58439 0.1614 0.0
C2481 C 0.92494 0.59475 0.16713 0.0
C2482 C 0.91701 0.60274 0.16353 0.0
C2483 C 0.91009 0.60053 0.1542 0.0
C2484 C 0.8887 0.58244 0.13917 0.0
C2485 C 0.88254 0.57656 0.13091 0.0
C2486 C 0.87139 0.57326 0.1329 0.0
C2487 C 0.86615 0.57591 0.14316 0.0
C2488 C 0.8724 0.58176 0.15145 0.0
C2489 C 0.88358 0.58503 0.14946 0.0
C2490 C 0.90131 0.6004 0.12792 0.0
C2491 C 0.90958 0.60323 0.12003 0.0
C2492 C 0.90867 0.61313 0.11386 0.0
C2493 C 0.89952 0.62044 0.11555 0.0
C2494 C 0.89137 0.61765 0.12366 0.0
C2495 C 0.89229 0.60774 0.12981 0.0
P2496 P 0.65018 0.62215 0.38543 0.0
H2497 H 0.66483 0.63881 0.3963 0.0
H2498 H 0.66188 0.65199 0.41181 0.0
H2499 H 0.62905 0.63716 0.41777 0.0
H2500 H 0.63203 0.62406 0.40212 0.0
H2501 H 0.64984 0.60106 0.37285 0.0
H2502 H 0.6602 0.58355 0.37504 0.0
H2503 H 0.67484 0.59618 0.40605 0.0
H2504 H 0.66443 0.61374 0.40378 0.0
H2505 H 0.63964 0.63599 0.36833 0.0
H2506 H 0.63101 0.60638 0.38718 0.0
O2507 O 0.6592 0.6287 0.37691 0.0
H2508 H 0.62142 0.63507 0.35868 0.0
H2509 H 0.61272 0.60528 0.3774 0.0
C2510 C 0.64854 0.63065 0.39789 0.0
C2511 C 0.65703 0.63833 0.40101 0.0
C2512 C 0.65537 0.6458 0.40995 0.0
C2513 C 0.64517 0.6457 0.41597 0.0
C2514 C 0.63691 0.63758 0.41318 0.0
C2515 C 0.63861 0.63007 0.40425 0.0
C2516 C 0.65612 0.60859 0.3883 0.0
C2517 C 0.65502 0.59995 0.38029 0.0
C2518 C 0.66097 0.58993 0.38155 0.0
C2519 C 0.66832 0.58845 0.39074 0.0
C2520 C 0.66927 0.59708 0.39886 0.0
C2521 C 0.66325 0.60709 0.39762 0.0
C2522 C 0.63678 0.62109 0.37824 0.0
C2523 C 0.63387 0.62919 0.37028 0.0
C2524 C 0.62345 0.62864 0.36476 0.0
C2525 C 0.61567 0.62001 0.36716 0.0
C2526 C 0.61852 0.61203 0.37536 0.0
C2527 C 0.62899 0.61259 0.38088 0.0
P2528 P 0.90114 0.4259 0.3715 0.0
H2529 H 0.91421 0.43818 0.3548 0.0
H2530 H 0.92522 0.43208 0.3385 0.0
H2531 H 0.91492 0.39772 0.34437 0.0
H2532 H 0.90404 0.40385 0.36064 0.0
H2533 H 0.88589 0.44052 0.38373 0.0
H2534 H 0.86619 0.44575 0.38071 0.0
H2535 H 0.86593 0.4273 0.34925 0.0
H2536 H 0.88559 0.42191 0.35248 0.0
H2537 H 0.91685 0.41663 0.38796 0.0
H2538 H 0.88316 0.4094 0.37579 0.0
O2539 O 0.90853 0.43624 0.3777 0.0
H2540 H 0.9157 0.40048 0.40057 0.0
H2541 H 0.882 0.39324 0.3882 0.0
C2542 C 0.90854 0.42144 0.35908 0.0
C2543 C 0.91431 0.42934 0.35255 0.0
C2544 C 0.92053 0.42586 0.34319 0.0
C2545 C 0.92104 0.4144 0.34022 0.0
C2546 C 0.91488 0.40658 0.34657 0.0
C2547 C 0.90864 0.41008 0.35588 0.0
C2548 C 0.88725 0.43101 0.36824 0.0
C2549 C 0.88165 0.43779 0.37608 0.0
C2550 C 0.87039 0.44079 0.37433 0.0
C2551 C 0.86448 0.43697 0.36472 0.0
C2552 C 0.87021 0.43031 0.35678 0.0
C2553 C 0.88149 0.42732 0.35856 0.0
C2554 C 0.90001 0.41437 0.38115 0.0
C2555 C 0.90917 0.41163 0.38808 0.0
C2556 C 0.90854 0.40235 0.39521 0.0
C2557 C 0.89872 0.39562 0.39544 0.0
C2558 C 0.88959 0.39838 0.38839 0.0
C2559 C 0.89025 0.40763 0.38127 0.0
P2560 P 0.60529 0.5825 0.86969 0.0
H2561 H 0.59274 0.5684 0.85377 0.0
H2562 H 0.58058 0.5728 0.8377 0.0
H2563 H 0.58935 0.60797 0.84142 0.0
H2564 H 0.60168 0.60345 0.85719 0.0
H2565 H 0.62032 0.57028 0.88437 0.0
H2566 H 0.6395 0.56318 0.88221 0.0
H2567 H 0.64016 0.57553 0.84814 0.0
H2568 H 0.62083 0.58252 0.85035 0.0
H2569 H 0.59035 0.59251 0.88639 0.0
H2570 H 0.62261 0.60015 0.87152 0.0
O2571 O 0.59769 0.57299 0.87666 0.0
H2572 H 0.59154 0.6098 0.89763 0.0
H2573 H 0.62394 0.61736 0.88283 0.0
C2574 C 0.59789 0.58562 0.85683 0.0
C2575 C 0.59215 0.57703 0.851 0.0
C2576 C 0.58517 0.57957 0.84185 0.0
C2577 C 0.58384 0.59076 0.83836 0.0
C2578 C 0.5902 0.59925 0.84382 0.0
C2579 C 0.5972 0.59669 0.85294 0.0
C2580 C 0.61912 0.57674 0.86747 0.0
C2581 C 0.62455 0.57135 0.87639 0.0
C2582 C 0.63555 0.56739 0.87518 0.0
C2583 C 0.64137 0.56882 0.86501 0.0
C2584 C 0.63585 0.57419 0.85603 0.0
C2585 C 0.62482 0.57819 0.85728 0.0
C2586 C 0.6065 0.59495 0.87831 0.0
C2587 C 0.59776 0.59784 0.88566 0.0
C2588 C 0.59846 0.60771 0.89209 0.0
C2589 C 0.60786 0.61492 0.89116 0.0
C2590 C 0.61656 0.61202 0.88368 0.0
C2591 C 0.61586 0.60213 0.87729 0.0
P2592 P 0.90825 0.64299 0.87411 0.0
H2593 H 0.93255 0.64572 0.87117 0.0
H2594 H 0.94412 0.64941 0.85462 0.0
H2595 H 0.91385 0.65471 0.83492 0.0
H2596 H 0.90234 0.65096 0.85149 0.0
H2597 H 0.89134 0.64427 0.89162 0.0
H2598 H 0.88779 0.65774 0.90667 0.0
H2599 H 0.91532 0.67849 0.89495 0.0
H2600 H 0.91876 0.66494 0.87967 0.0
H2601 H 0.9028 0.62013 0.86676 0.0
H2602 H 0.88559 0.65187 0.86947 0.0
O2603 O 0.9156 0.63314 0.88082 0.0
H2604 H 0.88518 0.61103 0.86069 0.0
H2605 H 0.86789 0.6428 0.86348 0.0
C2606 C 0.9166 0.64781 0.86249 0.0
C2607 C 0.92841 0.64784 0.86332 0.0
C2608 C 0.93502 0.65001 0.85387 0.0
C2609 C 0.92989 0.65219 0.84343 0.0
C2610 C 0.91804 0.65284 0.84281 0.0
C2611 C 0.91144 0.65073 0.85229 0.0
C2612 C 0.90509 0.65376 0.88431 0.0
C2613 C 0.89643 0.65186 0.89207 0.0
C2614 C 0.8944 0.65958 0.90069 0.0
C2615 C 0.90118 0.66925 0.90191 0.0
C2616 C 0.90993 0.67113 0.89417 0.0
C2617 C 0.91186 0.66343 0.88541 0.0
C2618 C 0.8954 0.63658 0.8689 0.0
C2619 C 0.89523 0.62514 0.86604 0.0
C2620 C 0.88518 0.61997 0.86248 0.0
C2621 C 0.87514 0.62619 0.86172 0.0
C2622 C 0.87546 0.63777 0.86417 0.0
C2623 C 0.88555 0.64294 0.86761 0.0
P2624 P 0.09616 0.14778 0.63029 0.0
H2625 H 0.07286 0.14282 0.63672 0.0
H2626 H 0.06282 0.14527 0.65435 0.0
H2627 H 0.09109 0.16431 0.66786 0.0
H2628 H 0.10121 0.16162 0.65013 0.0
H2629 H 0.11456 0.15024 0.61441 0.0
H2630 H 0.1189 0.1643 0.60032 0.0
H2631 H 0.09047 0.18405 0.61134 0.0
H2632 H 0.08626 0.16991 0.6257 0.0
H2633 H 0.09921 0.12449 0.63678 0.0
H2634 H 0.11933 0.15483 0.63639 0.0
O2635 O 0.08863 0.13888 0.62227 0.0
H2636 H 0.11553 0.11397 0.64358 0.0
H2637 H 0.13581 0.14426 0.64296 0.0
C2638 C 0.08781 0.15197 0.64216 0.0
C2639 C 0.07682 0.14774 0.64336 0.0
C2640 C 0.07104 0.1492 0.65347 0.0
C2641 C 0.07618 0.15491 0.66257 0.0
C2642 C 0.08696 0.15974 0.66106 0.0
C2643 C 0.09272 0.15828 0.65092 0.0
C2644 C 0.10032 0.15921 0.62137 0.0
C2645 C 0.10949 0.15778 0.61411 0.0
C2646 C 0.11196 0.16583 0.60602 0.0
C2647 C 0.1051 0.17535 0.60481 0.0
C2648 C 0.09593 0.17682 0.61214 0.0
C2649 C 0.09357 0.1688 0.62038 0.0
C2650 C 0.10819 0.14033 0.63569 0.0
C2651 C 0.10716 0.12888 0.63812 0.0
C2652 C 0.11645 0.1229 0.64209 0.0
C2653 C 0.12694 0.1283 0.6437 0.0
C2654 C 0.12785 0.13988 0.64165 0.0
C2655 C 0.11847 0.1459 0.63784 0.0
P2656 P 0.59312 0.36046 0.37884 0.0
H2657 H 0.56885 0.35958 0.37438 0.0
H2658 H 0.55791 0.35684 0.35707 0.0
H2659 H 0.58869 0.34964 0.33909 0.0
H2660 H 0.59954 0.3522 0.3565 0.0
H2661 H 0.60705 0.35953 0.39885 0.0
H2662 H 0.61087 0.34482 0.41248 0.0
H2663 H 0.5904 0.32156 0.39293 0.0
H2664 H 0.58656 0.33644 0.37928 0.0
H2665 H 0.5962 0.38277 0.36967 0.0
H2666 H 0.61726 0.35439 0.37751 0.0
O2667 O 0.58541 0.36945 0.38638 0.0
H2668 H 0.61291 0.39355 0.36417 0.0
H2669 H 0.63405 0.3652 0.37218 0.0
C2670 C 0.58501 0.35633 0.36664 0.0
C2671 C 0.57322 0.35725 0.36675 0.0
C2672 C 0.56698 0.35573 0.35683 0.0
C2673 C 0.57245 0.35321 0.34666 0.0
C2674 C 0.58421 0.35154 0.34678 0.0
C2675 C 0.59044 0.35307 0.35671 0.0
C2676 C 0.59667 0.34903 0.38799 0.0
C2677 C 0.60354 0.35121 0.39739 0.0
C2678 C 0.60575 0.34277 0.40515 0.0
C2679 C 0.601 0.33199 0.40375 0.0
C2680 C 0.59415 0.32979 0.39425 0.0
C2681 C 0.592 0.33827 0.38642 0.0
C2682 C 0.60553 0.36793 0.37431 0.0
C2683 C 0.60443 0.37887 0.37021 0.0
C2684 C 0.61397 0.38497 0.36698 0.0
C2685 C 0.62479 0.38023 0.36782 0.0
C2686 C 0.62583 0.36911 0.37159 0.0
C2687 C 0.61624 0.36295 0.37469 0.0
P2688 P 0.41033 0.8713 0.13383 0.0
H2689 H 0.43253 0.87672 0.14336 0.0
H2690 H 0.44094 0.87345 0.16175 0.0
H2691 H 0.41195 0.85327 0.1709 0.0
H2692 H 0.40345 0.85685 0.15244 0.0
H2693 H 0.39658 0.87004 0.11371 0.0
H2694 H 0.39419 0.85586 0.09903 0.0
H2695 H 0.41659 0.83369 0.11707 0.0
H2696 H 0.41906 0.84812 0.13175 0.0
H2697 H 0.40468 0.89427 0.14021 0.0
H2698 H 0.38719 0.86258 0.13618 0.0
O2699 O 0.41831 0.88084 0.12734 0.0
H2700 H 0.38679 0.90351 0.14447 0.0
H2701 H 0.36924 0.87177 0.14043 0.0
C2702 C 0.41733 0.86709 0.14658 0.0
C2703 C 0.42805 0.87145 0.14924 0.0
C2704 C 0.43289 0.8695 0.15977 0.0
C2705 C 0.42711 0.86314 0.16786 0.0
C2706 C 0.41657 0.85834 0.16494 0.0
C2707 C 0.41172 0.86031 0.15437 0.0
C2708 C 0.40782 0.86005 0.12391 0.0
C2709 C 0.40082 0.86205 0.11462 0.0
C2710 C 0.39942 0.85389 0.10625 0.0
C2711 C 0.40511 0.84357 0.10691 0.0
C2712 C 0.4121 0.84156 0.1163 0.0
C2713 C 0.41347 0.84976 0.12473 0.0
C2714 C 0.39719 0.87783 0.13757 0.0
C2715 C 0.39698 0.88931 0.14026 0.0
C2716 C 0.38676 0.89456 0.14277 0.0
C2717 C 0.37659 0.88838 0.14268 0.0
C2718 C 0.37691 0.87677 0.14038 0.0
C2719 C 0.38716 0.87152 0.13795 0.0
P2720 P 0.90924 0.37049 0.63375 0.0
H2721 H 0.93184 0.37539 0.64259 0.0
H2722 H 0.94056 0.37236 0.66087 0.0
H2723 H 0.9112 0.35335 0.67122 0.0
H2724 H 0.90238 0.3567 0.65286 0.0
H2725 H 0.8956 0.36929 0.61357 0.0
H2726 H 0.89313 0.35508 0.59893 0.0
H2727 H 0.91504 0.33268 0.61727 0.0
H2728 H 0.91762 0.34715 0.63189 0.0
H2729 H 0.90368 0.39347 0.64015 0.0
H2730 H 0.88609 0.36182 0.63625 0.0
O2731 O 0.91713 0.38001 0.62712 0.0
H2732 H 0.88584 0.40277 0.64448 0.0
H2733 H 0.86819 0.37106 0.64061 0.0
C2734 C 0.91642 0.36636 0.64642 0.0
C2735 C 0.92733 0.37043 0.64871 0.0
C2736 C 0.93236 0.36861 0.65919 0.0
C2737 C 0.92656 0.36267 0.66758 0.0
C2738 C 0.91583 0.35812 0.66502 0.0
C2739 C 0.9108 0.35995 0.65451 0.0
C2740 C 0.90663 0.35921 0.62389 0.0
C2741 C 0.89971 0.36125 0.61455 0.0
C2742 C 0.89826 0.35307 0.6062 0.0
C2743 C 0.9038 0.34267 0.60696 0.0
C2744 C 0.91068 0.3406 0.61642 0.0
C2745 C 0.9121 0.34884 0.62481 0.0
C2746 C 0.89614 0.37705 0.63757 0.0
C2747 C 0.89597 0.38853 0.64025 0.0
C2748 C 0.88578 0.3938 0.64281 0.0
C2749 C 0.87559 0.38766 0.64279 0.0
C2750 C 0.87587 0.37605 0.6405 0.0
C2751 C 0.88609 0.37076 0.63801 0.0
P2752 P 0.40751 0.1441 0.37239 0.0
H2753 H 0.43164 0.14829 0.36979 0.0
H2754 H 0.44342 0.15115 0.3532 0.0
H2755 H 0.41342 0.15256 0.33241 0.0
H2756 H 0.4017 0.14975 0.349 0.0
H2757 H 0.39058 0.14583 0.38984 0.0
H2758 H 0.3873 0.15942 0.40483 0.0
H2759 H 0.41518 0.17962 0.393 0.0
H2760 H 0.41833 0.16599 0.37775 0.0
H2761 H 0.40194 0.12107 0.3657 0.0
H2762 H 0.38484 0.15292 0.36766 0.0
O2763 O 0.41491 0.13437 0.37923 0.0
H2764 H 0.38427 0.11188 0.35993 0.0
H2765 H 0.36709 0.14376 0.36197 0.0
C2766 C 0.41582 0.1486 0.3606 0.0
C2767 C 0.4276 0.14944 0.36169 0.0
C2768 C 0.43432 0.15112 0.35221 0.0
C2769 C 0.42934 0.15193 0.34148 0.0
C2770 C 0.41749 0.15178 0.34054 0.0
C2771 C 0.41078 0.1502 0.35004 0.0
C2772 C 0.40447 0.15505 0.38244 0.0
C2773 C 0.39579 0.15334 0.39022 0.0
C2774 C 0.39393 0.16112 0.39882 0.0
C2775 C 0.40089 0.17066 0.40001 0.0
C2776 C 0.40964 0.17237 0.39224 0.0
C2777 C 0.41141 0.16461 0.3835 0.0
C2778 C 0.3946 0.13759 0.36746 0.0
C2779 C 0.39438 0.12608 0.36489 0.0
C2780 C 0.3843 0.12086 0.3615 0.0
C2781 C 0.37428 0.12709 0.36061 0.0
C2782 C 0.37464 0.13873 0.36277 0.0
C2783 C 0.38476 0.14396 0.36603 0.0
P2784 P 0.59312 0.64827 0.12992 0.0
H2785 H 0.56953 0.64598 0.13674 0.0
H2786 H 0.56028 0.64875 0.15476 0.0
H2787 H 0.59094 0.66365 0.16826 0.0
H2788 H 0.60024 0.6606 0.15014 0.0
H2789 H 0.61035 0.64908 0.11268 0.0
H2790 H 0.61526 0.66298 0.0986 0.0
H2791 H 0.59011 0.68545 0.11207 0.0
H2792 H 0.58538 0.67147 0.12644 0.0
H2793 H 0.59403 0.62527 0.13775 0.0
H2794 H 0.61743 0.65281 0.13368 0.0
O2795 O 0.58459 0.64003 0.1222 0.0
H2796 H 0.60943 0.61326 0.14391 0.0
H2797 H 0.63306 0.64066 0.13903 0.0
C2798 C 0.5856 0.65298 0.14216 0.0
C2799 C 0.5742 0.65007 0.14349 0.0
C2800 C 0.56889 0.65172 0.15381 0.0
C2801 C 0.5749 0.65631 0.16301 0.0
C2802 C 0.58613 0.65992 0.1614 0.0
C2803 C 0.59143 0.65827 0.15104 0.0
C2804 C 0.59779 0.6594 0.12087 0.0
C2805 C 0.60616 0.65715 0.1129 0.0
C2806 C 0.60895 0.6651 0.10482 0.0
C2807 C 0.60316 0.67536 0.10432 0.0
C2808 C 0.59475 0.67764 0.11232 0.0
C2809 C 0.5921 0.6697 0.12056 0.0
C2810 C 0.60466 0.63977 0.13479 0.0
C2811 C 0.60254 0.62867 0.13802 0.0
C2812 C 0.61139 0.6218 0.14149 0.0
C2813 C 0.6226 0.62586 0.1417 0.0
C2814 C 0.62459 0.6372 0.13898 0.0
C2815 C 0.61566 0.64413 0.13572 0.0
P2816 P 0.0923 0.85776 0.87754 0.0
H2817 H 0.06991 0.86393 0.86934 0.0
H2818 H 0.06071 0.86167 0.85114 0.0
H2819 H 0.08842 0.84107 0.83976 0.0
H2820 H 0.09774 0.84361 0.85809 0.0
H2821 H 0.10961 0.85585 0.89473 0.0
H2822 H 0.11451 0.8411 0.90789 0.0
H2823 H 0.08909 0.81941 0.89286 0.0
H2824 H 0.08422 0.83435 0.87958 0.0
H2825 H 0.09477 0.88155 0.87259 0.0
H2826 H 0.11583 0.85209 0.87206 0.0
O2827 O 0.08422 0.86578 0.88574 0.0
H2828 H 0.11093 0.89315 0.86711 0.0
H2829 H 0.1321 0.8637 0.86675 0.0
C2830 C 0.08449 0.8539 0.86507 0.0
C2831 C 0.07391 0.85871 0.86304 0.0
C2832 C 0.06861 0.85736 0.8526 0.0
C2833 C 0.07383 0.85122 0.84394 0.0
C2834 C 0.08423 0.84597 0.8462 0.0
C2835 C 0.08952 0.84732 0.85668 0.0
C2836 C 0.09679 0.84609 0.88596 0.0
C2837 C 0.1053 0.84782 0.89403 0.0
C2838 C 0.1081 0.83936 0.90157 0.0
C2839 C 0.10228 0.82902 0.90135 0.0
C2840 C 0.09374 0.82727 0.89321 0.0
C2841 C 0.09101 0.83577 0.88558 0.0
C2842 C 0.10421 0.86605 0.87311 0.0
C2843 C 0.10289 0.87759 0.87133 0.0
C2844 C 0.1121 0.88419 0.8681 0.0
C2845 C 0.12279 0.87933 0.8666 0.0
C2846 C 0.12399 0.86768 0.86801 0.0
C2847 C 0.11472 0.86106 0.87108 0.0
P2848 P 0.84024 0.88153 0.67745 0.0
H2849 H 0.84766 0.88729 0.70024 0.0
H2850 H 0.86636 0.89015 0.70868 0.0
H2851 H 0.88156 0.88592 0.67595 0.0
H2852 H 0.86282 0.88346 0.66758 0.0
H2853 H 0.81686 0.88876 0.67967 0.0
H2854 H 0.80671 0.90528 0.67318 0.0
H2855 H 0.83754 0.91833 0.65883 0.0
H2856 H 0.84764 0.9016 0.66527 0.0
H2857 H 0.85194 0.86024 0.67579 0.0
H2858 H 0.83192 0.88108 0.65394 0.0
O2859 O 0.83261 0.87515 0.68732 0.0
H2860 H 0.85447 0.8467 0.66047 0.0
H2861 H 0.83452 0.86763 0.63855 0.0
C2862 C 0.8539 0.8849 0.68335 0.0
C2863 C 0.85502 0.88708 0.69489 0.0
C2864 C 0.86573 0.88865 0.6997 0.0
C2865 C 0.8755 0.88809 0.69303 0.0
C2866 C 0.87425 0.88646 0.68135 0.0
C2867 C 0.86353 0.88495 0.67655 0.0
C2868 C 0.83304 0.89407 0.67314 0.0
C2869 C 0.82147 0.89523 0.67525 0.0
C2870 C 0.81568 0.9047 0.67155 0.0
C2871 C 0.82133 0.91318 0.66557 0.0
C2872 C 0.83294 0.91194 0.66338 0.0
C2873 C 0.83874 0.90244 0.66713 0.0
C2874 C 0.84187 0.87172 0.66598 0.0
C2875 C 0.84814 0.86192 0.66767 0.0
C2876 C 0.84962 0.85422 0.65889 0.0
C2877 C 0.84476 0.85613 0.64827 0.0
C2878 C 0.83831 0.86589 0.64665 0.0
C2879 C 0.83688 0.87363 0.65544 0.0
P2880 P 0.87541 0.13834 0.39485 0.0
H2881 H 0.86864 0.14227 0.41798 0.0
H2882 H 0.8655 0.15948 0.42889 0.0
H2883 H 0.86918 0.17908 0.39868 0.0
H2884 H 0.87239 0.16188 0.38787 0.0
H2885 H 0.87662 0.11462 0.38972 0.0
H2886 H 0.86248 0.09969 0.38822 0.0
H2887 H 0.83622 0.12364 0.39575 0.0
H2888 H 0.85054 0.1386 0.39737 0.0
H2889 H 0.8965 0.14845 0.38754 0.0
H2890 H 0.86601 0.13558 0.37196 0.0
O2891 O 0.88606 0.13299 0.4023 0.0
H2892 H 0.90452 0.15197 0.36899 0.0
H2893 H 0.87398 0.13911 0.35337 0.0
C2894 C 0.87088 0.1508 0.40216 0.0
C2895 C 0.86856 0.15027 0.41369 0.0
C2896 C 0.86673 0.16011 0.4199 0.0
C2897 C 0.86723 0.17066 0.41467 0.0
C2898 C 0.86895 0.17109 0.40299 0.0
C2899 C 0.87074 0.16124 0.39678 0.0
C2900 C 0.86464 0.12764 0.39384 0.0
C2901 C 0.86782 0.11665 0.39108 0.0
C2902 C 0.8597 0.10815 0.39012 0.0
C2903 C 0.8482 0.11048 0.39183 0.0
C2904 C 0.84502 0.12157 0.39449 0.0
C2905 C 0.85319 0.13011 0.39541 0.0
C2906 C 0.88078 0.14154 0.38111 0.0
C2907 C 0.89152 0.14643 0.38011 0.0
C2908 C 0.89606 0.14852 0.36951 0.0
C2909 C 0.88991 0.14575 0.35971 0.0
C2910 C 0.87898 0.14117 0.36076 0.0
C2911 C 0.87442 0.13916 0.37139 0.0
P2912 P 0.66495 0.13102 0.18064 0.0
H2913 H 0.65328 0.12583 0.20167 0.0
H2914 H 0.63339 0.12214 0.20585 0.0
H2915 H 0.62565 0.12209 0.17031 0.0
H2916 H 0.64554 0.12582 0.16619 0.0
H2917 H 0.68838 0.13134 0.17397 0.0
H2918 H 0.70088 0.1172 0.16591 0.0
H2919 H 0.67387 0.09265 0.16718 0.0
H2920 H 0.66139 0.10688 0.17535 0.0
H2921 H 0.65908 0.15464 0.18302 0.0
H2922 H 0.66752 0.13175 0.15609 0.0
O2923 O 0.67088 0.13619 0.19237 0.0
H2924 H 0.65598 0.16961 0.16933 0.0
H2925 H 0.66443 0.14662 0.1424 0.0
C2926 C 0.65082 0.1263 0.18364 0.0
C2927 C 0.64733 0.12486 0.19477 0.0
C2928 C 0.63597 0.1227 0.19715 0.0
C2929 C 0.62793 0.12198 0.18841 0.0
C2930 C 0.63161 0.12281 0.17722 0.0
C2931 C 0.64298 0.1249 0.17486 0.0
C2932 C 0.67398 0.12017 0.17523 0.0
C2933 C 0.68516 0.1229 0.17256 0.0
C2934 C 0.69227 0.11483 0.16788 0.0
C2935 C 0.68833 0.10383 0.16583 0.0
C2936 C 0.67715 0.10104 0.16872 0.0
C2937 C 0.67 0.10918 0.17336 0.0
C2938 C 0.6638 0.14219 0.1706 0.0
C2939 C 0.66043 0.15289 0.17418 0.0
C2940 C 0.65857 0.1614 0.16635 0.0
C2941 C 0.66001 0.1593 0.15479 0.0
C2942 C 0.66345 0.14855 0.15126 0.0
C2943 C 0.66523 0.14004 0.15909 0.0
P2944 P 0.66579 0.8503 0.87112 0.0
H2945 H 0.68766 0.86008 0.87715 0.0
H2946 H 0.69388 0.8794 0.88093 0.0
H2947 H 0.6594 0.89072 0.87756 0.0
H2948 H 0.65328 0.8714 0.8737 0.0
H2949 H 0.66958 0.82663 0.87573 0.0
H2950 H 0.66559 0.81485 0.89195 0.0
H2951 H 0.65242 0.8437 0.90973 0.0
H2952 H 0.65639 0.85546 0.89336 0.0
H2953 H 0.66218 0.85768 0.84817 0.0
H2954 H 0.64189 0.84423 0.87498 0.0
O2955 O 0.67612 0.84449 0.8636 0.0
H2956 H 0.64531 0.8591 0.83628 0.0
H2957 H 0.62501 0.84578 0.86323 0.0
C2958 C 0.67007 0.86437 0.87488 0.0
C2959 C 0.68145 0.86673 0.87727 0.0
C2960 C 0.68498 0.87776 0.8795 0.0
C2961 C 0.67715 0.88661 0.87942 0.0
C2962 C 0.66567 0.88412 0.87746 0.0
C2963 C 0.66215 0.87307 0.87528 0.0
C2964 C 0.6635 0.84194 0.88344 0.0
C2965 C 0.66599 0.83046 0.88317 0.0
C2966 C 0.66372 0.82374 0.89247 0.0
C2967 C 0.65878 0.82836 0.90217 0.0
C2968 C 0.65621 0.83989 0.90238 0.0
C2969 C 0.65855 0.84663 0.89307 0.0
C2970 C 0.65332 0.85072 0.86239 0.0
C2971 C 0.6541 0.85497 0.85147 0.0
C2972 C 0.64445 0.85585 0.84472 0.0
C2973 C 0.63382 0.85253 0.84881 0.0
C2974 C 0.63309 0.84824 0.85977 0.0
C2975 C 0.64276 0.84739 0.86652 0.0
P2976 P 0.86562 0.10108 0.8625 0.0
H2977 H 0.85694 0.07937 0.86992 0.0
H2978 H 0.8384 0.07051 0.86848 0.0
H2979 H 0.82678 0.09786 0.84778 0.0
H2980 H 0.84546 0.10679 0.84939 0.0
H2981 H 0.8818 0.11904 0.85841 0.0
H2982 H 0.89373 0.12357 0.84249 0.0
H2983 H 0.87852 0.09634 0.82338 0.0
H2984 H 0.86646 0.09184 0.83948 0.0
H2985 H 0.86639 0.10485 0.88679 0.0
H2986 H 0.85752 0.12368 0.85723 0.0
O2987 O 0.87433 0.09271 0.86961 0.0
H2988 H 0.86322 0.12147 0.8985 0.0
H2989 H 0.85425 0.14038 0.86892 0.0
C2990 C 0.85258 0.09371 0.85972 0.0
C2991 C 0.85049 0.08337 0.86488 0.0
C2992 C 0.83987 0.07827 0.86401 0.0
C2993 C 0.83109 0.08347 0.85802 0.0
C2994 C 0.83333 0.09369 0.85254 0.0
C2995 C 0.84401 0.09877 0.85339 0.0
C2996 C 0.87299 0.10532 0.85002 0.0
C2997 C 0.88075 0.11424 0.8507 0.0
C2998 C 0.8876 0.11683 0.84156 0.0
C2999 C 0.887 0.11039 0.83162 0.0
C3000 C 0.87915 0.10147 0.83092 0.0
C3001 C 0.87221 0.09894 0.84008 0.0
C3002 C 0.86247 0.11314 0.87113 0.0
C3003 C 0.86371 0.11256 0.88282 0.0
C3004 C 0.8618 0.12205 0.88952 0.0
C3005 C 0.85856 0.13227 0.88462 0.0
C3006 C 0.8569 0.13268 0.87292 0.0
C3007 C 0.85874 0.12315 0.86624 0.0
P3008 P 0.66984 0.15857 0.63802 0.0
H3009 H 0.69158 0.14883 0.63199 0.0
H3010 H 0.69746 0.12955 0.62783 0.0
H3011 H 0.66277 0.11838 0.63044 0.0
H3012 H 0.65698 0.13762 0.63465 0.0
H3013 H 0.67142 0.18272 0.63509 0.0
H3014 H 0.66636 0.19512 0.61964 0.0
H3015 H 0.657 0.16622 0.59931 0.0
H3016 H 0.66193 0.15386 0.61495 0.0
H3017 H 0.66661 0.1519 0.66127 0.0
H3018 H 0.64575 0.16311 0.63374 0.0
O3019 O 0.68033 0.16424 0.64565 0.0
H3020 H 0.64981 0.14995 0.67303 0.0
H3021 H 0.62896 0.16107 0.64536 0.0
C3022 C 0.6739 0.14459 0.63389 0.0
C3023 C 0.68525 0.14223 0.63161 0.0
C3024 C 0.68858 0.13122 0.62917 0.0
C3025 C 0.68059 0.12242 0.62895 0.0
C3026 C 0.66915 0.12494 0.63078 0.0
C3027 C 0.66583 0.13595 0.63316 0.0
C3028 C 0.66728 0.16738 0.62607 0.0
C3029 C 0.66847 0.17905 0.62724 0.0
C3030 C 0.66559 0.18612 0.61838 0.0
C3031 C 0.66135 0.18166 0.60819 0.0
C3032 C 0.6602 0.16992 0.60705 0.0
C3033 C 0.66311 0.16284 0.61594 0.0
C3034 C 0.65746 0.15785 0.64672 0.0
C3035 C 0.65843 0.15404 0.6578 0.0
C3036 C 0.64881 0.15285 0.66447 0.0
C3037 C 0.63805 0.1554 0.66014 0.0
C3038 C 0.63714 0.15922 0.64901 0.0
C3039 C 0.64675 0.16037 0.64234 0.0
P3040 P 0.66243 0.87998 0.3286 0.0
H3041 H 0.65262 0.88807 0.30764 0.0
H3042 H 0.63306 0.89071 0.30143 0.0
H3043 H 0.62142 0.88256 0.33477 0.0
H3044 H 0.64095 0.8799 0.3409 0.0
H3045 H 0.6864 0.88493 0.32684 0.0
H3046 H 0.69804 0.90096 0.33266 0.0
H3047 H 0.66834 0.91774 0.34524 0.0
H3048 H 0.65672 0.90152 0.33945 0.0
H3049 H 0.65712 0.85614 0.32884 0.0
H3050 H 0.66633 0.8818 0.35307 0.0
O3051 O 0.66852 0.87385 0.31754 0.0
H3052 H 0.6552 0.84249 0.34395 0.0
H3053 H 0.6647 0.86815 0.36822 0.0
C3054 C 0.6482 0.88354 0.32464 0.0
C3055 C 0.64585 0.88698 0.31363 0.0
C3056 C 0.63468 0.88853 0.31011 0.0
C3057 C 0.62569 0.88669 0.31757 0.0
C3058 C 0.62815 0.88382 0.32877 0.0
C3059 C 0.63932 0.88233 0.33229 0.0
C3060 C 0.67068 0.89216 0.33249 0.0
C3061 C 0.68237 0.89211 0.33072 0.0
C3062 C 0.68901 0.9013 0.33403 0.0
C3063 C 0.6841 0.91069 0.33929 0.0
C3064 C 0.67237 0.91064 0.34121 0.0
C3065 C 0.66571 0.90142 0.33783 0.0
C3066 C 0.66207 0.86991 0.33981 0.0
C3067 C 0.65892 0.85878 0.33741 0.0
C3068 C 0.65786 0.85098 0.34606 0.0
C3069 C 0.65987 0.8542 0.35731 0.0
C3070 C 0.66302 0.86541 0.35967 0.0
C3071 C 0.66406 0.87321 0.35099 0.0
P3072 P 0.87291 0.87698 0.10821 0.0
H3073 H 0.87355 0.87444 0.08383 0.0
H3074 H 0.87072 0.85827 0.07133 0.0
H3075 H 0.86109 0.83803 0.09977 0.0
H3076 H 0.86374 0.85436 0.11221 0.0
H3077 H 0.872 0.90032 0.11513 0.0
H3078 H 0.8565 0.91329 0.11858 0.0
H3079 H 0.83244 0.88683 0.11084 0.0
H3080 H 0.8481 0.87382 0.1074 0.0
H3081 H 0.88919 0.85929 0.11244 0.0
H3082 H 0.87082 0.88365 0.13208 0.0
O3083 O 0.8829 0.88454 0.10186 0.0
H3084 H 0.89962 0.85368 0.12921 0.0
H3085 H 0.88154 0.87845 0.14876 0.0
C3086 C 0.86913 0.86549 0.09896 0.0
C3087 C 0.87072 0.86655 0.08736 0.0
C3088 C 0.86915 0.85729 0.08023 0.0
C3089 C 0.86588 0.84681 0.08458 0.0
C3090 C 0.8636 0.84598 0.09615 0.0
C3091 C 0.86518 0.85528 0.10328 0.0
C3092 C 0.8612 0.88618 0.11088 0.0
C3093 C 0.86339 0.8973 0.11418 0.0
C3094 C 0.85452 0.90467 0.11625 0.0
C3095 C 0.84324 0.90107 0.11501 0.0
C3096 C 0.84105 0.88985 0.11179 0.0
C3097 C 0.84998 0.88242 0.10983 0.0
C3098 C 0.87913 0.8718 0.121 0.0
C3099 C 0.88727 0.86332 0.1204 0.0
C3100 C 0.89333 0.8602 0.12998 0.0
C3101 C 0.8915 0.86567 0.14034 0.0
C3102 C 0.88308 0.87395 0.14097 0.0
C3103 C 0.87696 0.87699 0.13138 0.0
P3104 P 0.16951 0.65858 0.13772 0.0
H3105 H 0.19162 0.64847 0.13398 0.0
H3106 H 0.1974 0.62955 0.1284 0.0
H3107 H 0.16229 0.6199 0.12455 0.0
H3108 H 0.15664 0.63893 0.12982 0.0
H3109 H 0.18066 0.67943 0.13095 0.0
H3110 H 0.17656 0.69303 0.11631 0.0
H3111 H 0.1488 0.67218 0.10453 0.0
H3112 H 0.15326 0.65837 0.11904 0.0
H3113 H 0.16351 0.64287 0.15535 0.0
H3114 H 0.14833 0.67151 0.13933 0.0
O3115 O 0.17978 0.66373 0.14598 0.0
H3116 H 0.1468 0.64068 0.16711 0.0
H3117 H 0.13144 0.66912 0.1507 0.0
C3118 C 0.17371 0.645 0.13255 0.0
C3119 C 0.18518 0.64229 0.13186 0.0
C3120 C 0.18847 0.63145 0.12872 0.0
C3121 C 0.18031 0.62314 0.12617 0.0
C3122 C 0.16881 0.62608 0.12639 0.0
C3123 C 0.16555 0.63694 0.12948 0.0
C3124 C 0.16719 0.66796 0.12614 0.0
C3125 C 0.17377 0.67771 0.12515 0.0
C3126 C 0.17135 0.68553 0.1168 0.0
C3127 C 0.16223 0.6838 0.10933 0.0
C3128 C 0.15593 0.67376 0.11008 0.0
C3129 C 0.15843 0.66588 0.1184 0.0
C3130 C 0.15705 0.65714 0.14625 0.0
C3131 C 0.15652 0.6486 0.15427 0.0
C3132 C 0.14693 0.64733 0.16095 0.0
C3133 C 0.1377 0.65464 0.15978 0.0
C3134 C 0.1384 0.66337 0.15189 0.0
C3135 C 0.14803 0.66466 0.14525 0.0
P3136 P 0.16199 0.37757 0.8294 0.0
H3137 H 0.15423 0.38598 0.80769 0.0
H3138 H 0.13546 0.39066 0.80044 0.0
H3139 H 0.12132 0.38465 0.83331 0.0
H3140 H 0.14012 0.38035 0.84052 0.0
H3141 H 0.18605 0.37823 0.83375 0.0
H3142 H 0.19873 0.39251 0.84167 0.0
H3143 H 0.17058 0.41521 0.84528 0.0
H3144 H 0.15792 0.40083 0.83719 0.0
H3145 H 0.15426 0.35437 0.82802 0.0
H3146 H 0.16408 0.37792 0.85409 0.0
O3147 O 0.16848 0.3714 0.81859 0.0
H3148 H 0.15021 0.34018 0.84225 0.0
H3149 H 0.15999 0.36382 0.86836 0.0
C3150 C 0.1485 0.38259 0.82457 0.0
C3151 C 0.14709 0.38582 0.81335 0.0
C3152 C 0.13635 0.38842 0.80921 0.0
C3153 C 0.12683 0.38786 0.81624 0.0
C3154 C 0.12844 0.38522 0.82765 0.0
C3155 C 0.13919 0.38267 0.83179 0.0
C3156 C 0.17111 0.38855 0.83472 0.0
C3157 C 0.18263 0.38632 0.83615 0.0
C3158 C 0.18984 0.39445 0.84079 0.0
C3159 C 0.18566 0.40499 0.84414 0.0
C3160 C 0.17408 0.40722 0.84267 0.0
C3161 C 0.16684 0.39901 0.83805 0.0
C3162 C 0.15969 0.36709 0.83998 0.0
C3163 C 0.15564 0.35644 0.83681 0.0
C3164 C 0.15324 0.34839 0.84495 0.0
C3165 C 0.15481 0.35088 0.85643 0.0
C3166 C 0.15886 0.3616 0.85958 0.0
C3167 C 0.1612 0.36966 0.85142 0.0
P3168 P 0.37007 0.37398 0.60795 0.0
H3169 H 0.36404 0.36926 0.5846 0.0
H3170 H 0.3604 0.3517 0.57435 0.0
H3171 H 0.36137 0.33352 0.60565 0.0
H3172 H 0.36507 0.35112 0.61583 0.0
H3173 H 0.37088 0.39613 0.61798 0.0
H3174 H 0.3565 0.41011 0.62223 0.0
H3175 H 0.33062 0.38751 0.60954 0.0
H3176 H 0.34514 0.37345 0.60533 0.0
H3177 H 0.39131 0.36224 0.61037 0.0
H3178 H 0.36668 0.37715 0.63242 0.0
O3179 O 0.3788 0.38056 0.59918 0.0
H3180 H 0.40323 0.35787 0.62655 0.0
H3181 H 0.37881 0.37343 0.64857 0.0
C3182 C 0.36509 0.36144 0.60091 0.0
C3183 C 0.36328 0.36152 0.58927 0.0
C3184 C 0.36114 0.35148 0.58343 0.0
C3185 C 0.36077 0.3412 0.58918 0.0
C3186 C 0.36183 0.34128 0.60097 0.0
C3187 C 0.36391 0.35134 0.6068 0.0
C3188 C 0.35907 0.38376 0.61142 0.0
C3189 C 0.3621 0.39414 0.61621 0.0
C3190 C 0.35386 0.40209 0.61869 0.0
C3191 C 0.34242 0.39987 0.6163 0.0
C3192 C 0.33938 0.38944 0.61146 0.0
C3193 C 0.34766 0.38141 0.60908 0.0
C3194 C 0.37827 0.37027 0.62015 0.0
C3195 C 0.38851 0.36464 0.61871 0.0
C3196 C 0.39535 0.36221 0.62797 0.0
C3197 C 0.39211 0.36547 0.63889 0.0
C3198 C 0.38158 0.37074 0.64032 0.0
C3199 C 0.37468 0.37302 0.63104 0.0
P3200 P 0.16342 0.63311 0.68211 0.0
H3201 H 0.15139 0.6277 0.70287 0.0
H3202 H 0.13152 0.62358 0.70665 0.0
H3203 H 0.12448 0.62349 0.67095 0.0
H3204 H 0.14432 0.62785 0.66726 0.0
H3205 H 0.18781 0.63145 0.68193 0.0
H3206 H 0.2008 0.61759 0.67418 0.0
H3207 H 0.17242 0.5972 0.66318 0.0
H3208 H 0.15946 0.61104 0.67117 0.0
H3209 H 0.15659 0.6565 0.68371 0.0
H3210 H 0.16757 0.6336 0.65774 0.0
O3211 O 0.16884 0.63864 0.69392 0.0
H3212 H 0.1539 0.67116 0.66965 0.0
H3213 H 0.1648 0.64815 0.64365 0.0
C3214 C 0.14927 0.62825 0.6848 0.0
C3215 C 0.14559 0.62667 0.69586 0.0
C3216 C 0.13423 0.62426 0.698 0.0
C3217 C 0.12638 0.62335 0.68911 0.0
C3218 C 0.13026 0.62437 0.678 0.0
C3219 C 0.14161 0.62679 0.67587 0.0
C3220 C 0.17269 0.62219 0.67729 0.0
C3221 C 0.18439 0.62391 0.678 0.0
C3222 C 0.1918 0.61603 0.67346 0.0
C3223 C 0.18765 0.6063 0.66802 0.0
C3224 C 0.17589 0.60454 0.66743 0.0
C3225 C 0.16846 0.61246 0.67199 0.0
C3226 C 0.16251 0.64406 0.67181 0.0
C3227 C 0.15856 0.65468 0.675 0.0
C3228 C 0.15693 0.66301 0.66694 0.0
C3229 C 0.15916 0.66082 0.65553 0.0
C3230 C 0.16318 0.65016 0.65239 0.0
C3231 C 0.16477 0.64182 0.66045 0.0
P3232 P 0.34171 0.38523 0.17466 0.0
H3233 H 0.35079 0.38694 0.19759 0.0
H3234 H 0.37002 0.38906 0.20494 0.0
H3235 H 0.38254 0.39225 0.17105 0.0
H3236 H 0.36326 0.39007 0.16375 0.0
H3237 H 0.32332 0.38799 0.15857 0.0
H3238 H 0.31345 0.40443 0.15143 0.0
H3239 H 0.33498 0.42603 0.1717 0.0
H3240 H 0.34496 0.40947 0.17874 0.0
H3241 H 0.34148 0.36077 0.17613 0.0
H3242 H 0.34551 0.38566 0.15029 0.0
O3243 O 0.3335 0.38053 0.18499 0.0
H3244 H 0.34379 0.34579 0.16211 0.0
H3245 H 0.34779 0.37075 0.13622 0.0
C3246 C 0.35564 0.38816 0.18012 0.0
C3247 C 0.35765 0.38819 0.19174 0.0
C3248 C 0.36865 0.38947 0.19594 0.0
C3249 C 0.37781 0.39072 0.18857 0.0
C3250 C 0.37567 0.39112 0.17693 0.0
C3251 C 0.36466 0.38991 0.17275 0.0
C3252 C 0.3351 0.39752 0.16891 0.0
C3253 C 0.32609 0.39626 0.1613 0.0
C3254 C 0.32045 0.40567 0.15723 0.0
C3255 C 0.32353 0.41652 0.16091 0.0
C3256 C 0.33245 0.41776 0.16869 0.0
C3257 C 0.3382 0.40832 0.17266 0.0
C3258 C 0.34299 0.3743 0.16419 0.0
C3259 C 0.34274 0.363 0.16742 0.0
C3260 C 0.34415 0.35446 0.15942 0.0
C3261 C 0.34587 0.3571 0.14805 0.0
C3262 C 0.34626 0.36846 0.14488 0.0
C3263 C 0.34495 0.37698 0.15291 0.0
P3264 P 0.65151 0.38883 0.12466 0.0
H3265 H 0.6628 0.36866 0.11636 0.0
H3266 H 0.65859 0.35576 0.10089 0.0
H3267 H 0.63164 0.37749 0.08985 0.0
H3268 H 0.63587 0.39036 0.10552 0.0
H3269 H 0.65035 0.41027 0.1366 0.0
H3270 H 0.66051 0.42798 0.13443 0.0
H3271 H 0.67686 0.41481 0.10478 0.0
H3272 H 0.66657 0.39702 0.10699 0.0
H3273 H 0.64127 0.37556 0.14241 0.0
H3274 H 0.63209 0.40392 0.12201 0.0
O3275 O 0.66058 0.38241 0.13323 0.0
H3276 H 0.62311 0.37653 0.15194 0.0
H3277 H 0.61389 0.40507 0.13166 0.0
C3278 C 0.64953 0.38037 0.11219 0.0
C3279 C 0.65609 0.37074 0.11054 0.0
C3280 C 0.65371 0.3634 0.10162 0.0
C3281 C 0.64473 0.36555 0.09416 0.0
C3282 C 0.63852 0.37551 0.09554 0.0
C3283 C 0.64094 0.38289 0.10447 0.0
C3284 C 0.65744 0.40245 0.12176 0.0
C3285 C 0.65584 0.41129 0.12942 0.0
C3286 C 0.66169 0.42142 0.12819 0.0
C3287 C 0.66944 0.42282 0.1194 0.0
C3288 C 0.67095 0.41397 0.11165 0.0
C3289 C 0.665 0.40385 0.11284 0.0
C3290 C 0.63812 0.38984 0.1317 0.0
C3291 C 0.63538 0.38209 0.14007 0.0
C3292 C 0.625 0.38267 0.14554 0.0
C3293 C 0.6171 0.39097 0.14266 0.0
C3294 C 0.61977 0.39857 0.13405 0.0
C3295 C 0.6302 0.39797 0.12859 0.0
P3296 P 0.88483 0.60379 0.58765 0.0
H3297 H 0.86449 0.59829 0.57472 0.0
H3298 H 0.84803 0.58641 0.57872 0.0
H3299 H 0.861 0.5807 0.61223 0.0
H3300 H 0.87719 0.59266 0.60827 0.0
H3301 H 0.89796 0.6167 0.57169 0.0
H3302 H 0.8956 0.63533 0.5636 0.0
H3303 H 0.86407 0.63904 0.58138 0.0
H3304 H 0.86641 0.62022 0.58927 0.0
H3305 H 0.90351 0.59144 0.59782 0.0
H3306 H 0.88456 0.6215 0.6049 0.0
O3307 O 0.89199 0.5956 0.57877 0.0
H3308 H 0.91486 0.59463 0.61482 0.0
H3309 H 0.8958 0.6247 0.62194 0.0
C3310 C 0.872 0.59647 0.59121 0.0
C3311 C 0.86365 0.59464 0.583 0.0
C3312 C 0.85429 0.58779 0.58527 0.0
C3313 C 0.85319 0.58259 0.5958 0.0
C3314 C 0.86146 0.58471 0.6041 0.0
C3315 C 0.87079 0.59154 0.60181 0.0
C3316 C 0.88225 0.617 0.58088 0.0
C3317 C 0.89044 0.62144 0.57369 0.0
C3318 C 0.88914 0.63215 0.56917 0.0
C3319 C 0.87966 0.6387 0.57187 0.0
C3320 C 0.87139 0.63415 0.57901 0.0
C3321 C 0.87271 0.62341 0.58352 0.0
C3322 C 0.89339 0.60638 0.59997 0.0
C3323 C 0.90185 0.59877 0.60299 0.0
C3324 C 0.90826 0.60056 0.61276 0.0
C3325 C 0.90627 0.60996 0.61969 0.0
C3326 C 0.89767 0.61749 0.61667 0.0
C3327 C 0.89124 0.61567 0.60693 0.0
P3328 P 0.62758 0.39187 0.66336 0.0
H3329 H 0.64551 0.40143 0.67745 0.0
H3330 H 0.65845 0.41724 0.67494 0.0
H3331 H 0.64087 0.4261 0.64433 0.0
H3332 H 0.62802 0.41014 0.64686 0.0
H3333 H 0.60662 0.37902 0.6639 0.0
H3334 H 0.58958 0.3806 0.67521 0.0
H3335 H 0.603 0.41073 0.69095 0.0
H3336 H 0.6201 0.4091 0.67953 0.0
H3337 H 0.64044 0.37601 0.64983 0.0
H3338 H 0.60987 0.39522 0.64628 0.0
O3339 O 0.63487 0.38253 0.67084 0.0
H3340 H 0.63733 0.36767 0.63125 0.0
H3341 H 0.60675 0.387 0.62756 0.0
C3342 C 0.63599 0.40446 0.66221 0.0
C3343 C 0.64438 0.40682 0.67025 0.0
C3344 C 0.65172 0.41594 0.66884 0.0
C3345 C 0.65077 0.42288 0.65937 0.0
C3346 C 0.64195 0.4208 0.65162 0.0
C3347 C 0.63458 0.41169 0.65307 0.0
C3348 C 0.61449 0.39412 0.67063 0.0
C3349 C 0.60579 0.38613 0.66957 0.0
C3350 C 0.59605 0.38704 0.67606 0.0
C3351 C 0.5949 0.39584 0.68392 0.0
C3352 C 0.60365 0.40385 0.68497 0.0
C3353 C 0.61338 0.40298 0.67838 0.0
C3354 C 0.62523 0.38599 0.64954 0.0
C3355 C 0.63304 0.37842 0.64504 0.0
C3356 C 0.63131 0.37374 0.63436 0.0
C3357 C 0.62176 0.37663 0.62793 0.0
C3358 C 0.61408 0.38446 0.63237 0.0
C3359 C 0.61585 0.38916 0.64306 0.0
P3360 P 0.3746 0.63773 0.89571 0.0
H3361 H 0.36435 0.64011 0.91774 0.0
H3362 H 0.3612 0.65636 0.93 0.0
H3363 H 0.37312 0.67831 0.90374 0.0
H3364 H 0.37577 0.66212 0.89145 0.0
H3365 H 0.37493 0.61499 0.88715 0.0
H3366 H 0.36027 0.60086 0.88368 0.0
H3367 H 0.33489 0.6243 0.89492 0.0
H3368 H 0.34969 0.63849 0.89834 0.0
H3369 H 0.39666 0.64717 0.8906 0.0
H3370 H 0.36683 0.63698 0.87209 0.0
O3371 O 0.38437 0.63122 0.9034 0.0
H3372 H 0.40626 0.65138 0.87299 0.0
H3373 H 0.37651 0.64066 0.85442 0.0
C3374 C 0.3703 0.64988 0.9037 0.0
C3375 C 0.36603 0.64845 0.91455 0.0
C3376 C 0.36434 0.65775 0.92159 0.0
C3377 C 0.36704 0.66866 0.91793 0.0
C3378 C 0.37084 0.67007 0.90683 0.0
C3379 C 0.37244 0.66077 0.89978 0.0
C3380 C 0.36342 0.62771 0.89314 0.0
C3381 C 0.3662 0.6171 0.88886 0.0
C3382 C 0.35781 0.60906 0.88679 0.0
C3383 C 0.34642 0.61148 0.889 0.0
C3384 C 0.34361 0.62218 0.89322 0.0
C3385 C 0.35206 0.63028 0.89519 0.0
C3386 C 0.38115 0.64154 0.88264 0.0
C3387 C 0.3922 0.6458 0.88272 0.0
C3388 C 0.39769 0.64813 0.87264 0.0
C3389 C 0.39224 0.64618 0.86225 0.0
C3390 C 0.38097 0.64232 0.86224 0.0
C3391 C 0.37545 0.64009 0.87236 0.0
P3392 P 0.16425 0.34771 0.36897 0.0
H3393 H 0.18582 0.35932 0.37283 0.0
H3394 H 0.19063 0.37904 0.37662 0.0
H3395 H 0.15508 0.38709 0.37764 0.0
H3396 H 0.15037 0.36743 0.3737 0.0
H3397 H 0.16577 0.32364 0.37247 0.0
H3398 H 0.16093 0.31158 0.38827 0.0
H3399 H 0.15176 0.34088 0.40782 0.0
H3400 H 0.15682 0.35291 0.39202 0.0
H3401 H 0.16075 0.35431 0.34573 0.0
H3402 H 0.14039 0.3418 0.37291 0.0
O3403 O 0.1749 0.34225 0.36165 0.0
H3404 H 0.14385 0.35565 0.33385 0.0
H3405 H 0.1235 0.34321 0.36117 0.0
C3406 C 0.16775 0.36199 0.37274 0.0
C3407 C 0.17907 0.36534 0.3739 0.0
C3408 C 0.1818 0.3766 0.37614 0.0
C3409 C 0.17323 0.38466 0.37729 0.0
C3410 C 0.16188 0.38114 0.37656 0.0
C3411 C 0.15917 0.36989 0.37434 0.0
C3412 C 0.16186 0.33916 0.38115 0.0
C3413 C 0.16291 0.32748 0.38023 0.0
C3414 C 0.16003 0.32059 0.38923 0.0
C3415 C 0.15593 0.32527 0.3993 0.0
C3416 C 0.15504 0.33703 0.40024 0.0
C3417 C 0.15792 0.34391 0.3912 0.0
C3418 C 0.15187 0.34777 0.36011 0.0
C3419 C 0.15266 0.35174 0.34909 0.0
C3420 C 0.14299 0.35258 0.34235 0.0
C3421 C 0.13234 0.3495 0.34656 0.0
C3422 C 0.1316 0.34547 0.35762 0.0
C3423 C 0.14127 0.34467 0.36435 0.0
P3424 P 0.36245 0.60227 0.36121 0.0
H3425 H 0.35821 0.57925 0.35378 0.0
H3426 H 0.34088 0.56802 0.35205 0.0
H3427 H 0.3211 0.59754 0.35943 0.0
H3428 H 0.33841 0.60871 0.36111 0.0
H3429 H 0.38046 0.61867 0.3589 0.0
H3430 H 0.39318 0.62337 0.34365 0.0
H3431 H 0.37614 0.5992 0.32209 0.0
H3432 H 0.36324 0.59458 0.33748 0.0
H3433 H 0.36145 0.60567 0.38553 0.0
H3434 H 0.35632 0.62547 0.35574 0.0
O3435 O 0.37053 0.59367 0.36875 0.0
H3436 H 0.35879 0.62237 0.39726 0.0
H3437 H 0.35355 0.64226 0.36744 0.0
C3438 C 0.34962 0.59476 0.35773 0.0
C3439 C 0.35013 0.58334 0.3548 0.0
C3440 C 0.34022 0.57695 0.35378 0.0
C3441 C 0.32964 0.58188 0.35574 0.0
C3442 C 0.32915 0.59348 0.35805 0.0
C3443 C 0.33906 0.59988 0.35897 0.0
C3444 C 0.3707 0.60648 0.34926 0.0
C3445 C 0.37923 0.61457 0.35082 0.0
C3446 C 0.38652 0.61726 0.34207 0.0
C3447 C 0.3856 0.61174 0.33162 0.0
C3448 C 0.37703 0.60361 0.33005 0.0
C3449 C 0.36962 0.601 0.33882 0.0
C3450 C 0.35939 0.61442 0.36978 0.0
C3451 C 0.35968 0.61361 0.38152 0.0
C3452 C 0.35806 0.62316 0.38821 0.0
C3453 C 0.35606 0.63367 0.38327 0.0
C3454 C 0.35527 0.63432 0.37149 0.0
C3455 C 0.35684 0.62475 0.3648 0.0
H3456 H 0.16574 0.44788 0.10805 0.0
H3457 H 0.18594 0.42543 0.12813 0.0
H3458 H 0.15032 0.43405 0.10786 0.0
H3459 H 0.1708 0.41156 0.12762 0.0
H3460 H 0.13862 0.39319 0.13436 0.0
H3461 H 0.15204 0.40871 0.1351 0.0
H3462 H 0.14593 0.41526 0.09992 0.0
H3463 H 0.13205 0.39997 0.09929 0.0
C3464 C 0.16688 0.44001 0.11243 0.0
C3465 C 0.17708 0.43772 0.11806 0.0
C3466 C 0.15809 0.43207 0.11224 0.0
C3467 C 0.15932 0.42173 0.11776 0.0
C3468 C 0.16951 0.4195 0.12342 0.0
C3469 C 0.17826 0.4274 0.12358 0.0
C3470 C 0.13991 0.39808 0.12683 0.0
C3471 C 0.13426 0.3953 0.11675 0.0
C3472 C 0.14773 0.4069 0.12722 0.0
C3473 C 0.15016 0.41313 0.11754 0.0
C3474 C 0.14422 0.41064 0.10754 0.0
C3475 C 0.13635 0.40181 0.10715 0.0
H3476 H 0.84436 0.95427 0.39407 0.0
H3477 H 0.82487 0.92714 0.40838 0.0
H3478 H 0.86172 0.94397 0.39779 0.0
H3479 H 0.84223 0.91682 0.41202 0.0
H3480 H 0.87404 0.89652 0.40369 0.0
H3481 H 0.85676 0.90723 0.40099 0.0
H3482 H 0.87375 0.93719 0.41326 0.0
H3483 H 0.89117 0.92652 0.41565 0.0
C3484 C 0.84378 0.94618 0.39814 0.0
C3485 C 0.83321 0.94151 0.40088 0.0
C3486 C 0.85374 0.94027 0.40026 0.0
C3487 C 0.85335 0.92956 0.40515 0.0
C3488 C 0.8428 0.92498 0.40807 0.0
C3489 C 0.83285 0.93089 0.40597 0.0
C3490 C 0.87411 0.90541 0.40573 0.0
C3491 C 0.88399 0.91068 0.40983 0.0
C3492 C 0.86418 0.91152 0.40431 0.0
C3493 C 0.86388 0.92306 0.40693 0.0
C3494 C 0.87374 0.92833 0.41108 0.0
C3495 C 0.88368 0.9222 0.41255 0.0
H3496 H 0.34702 0.55388 0.5878 0.0
H3497 H 0.34044 0.56812 0.62061 0.0
H3498 H 0.36124 0.56839 0.58453 0.0
H3499 H 0.35472 0.58258 0.61739 0.0
H3500 H 0.37408 0.61286 0.60383 0.0
H3501 H 0.35897 0.59906 0.60631 0.0
H3502 H 0.3799 0.5735 0.59119 0.0
H3503 H 0.39493 0.58729 0.58866 0.0
C3504 C 0.34865 0.56009 0.59433 0.0
C3505 C 0.34263 0.55983 0.60448 0.0
C3506 C 0.35681 0.5684 0.59247 0.0
C3507 C 0.35916 0.57663 0.60071 0.0
C3508 C 0.35301 0.57647 0.61079 0.0
C3509 C 0.34483 0.56818 0.61265 0.0
C3510 C 0.37545 0.60428 0.60108 0.0
C3511 C 0.3857 0.60118 0.59603 0.0
C3512 C 0.3668 0.59637 0.6025 0.0
C3513 C 0.36821 0.58516 0.59894 0.0
C3514 C 0.37844 0.58209 0.59384 0.0
C3515 C 0.38707 0.59 0.5924 0.0
H3516 H 0.6707 0.07041 0.88132 0.0
H3517 H 0.64899 0.0553 0.90615 0.0
H3518 H 0.6601 0.08781 0.88269 0.0
H3519 H 0.63828 0.07279 0.90746 0.0
H3520 H 0.61572 0.10321 0.89722 0.0
H3521 H 0.62556 0.0852 0.89633 0.0
H3522 H 0.65763 0.10273 0.8968 0.0
H3523 H 0.64787 0.12064 0.89777 0.0
C3524 C 0.6637 0.07083 0.88713 0.0
C3525 C 0.66078 0.06151 0.89373 0.0
C3526 C 0.65762 0.0808 0.88791 0.0
C3527 C 0.64843 0.08172 0.89528 0.0
C3528 C 0.64528 0.07232 0.90166 0.0
C3529 C 0.65141 0.06231 0.9009 0.0
C3530 C 0.62487 0.1032 0.89726 0.0
C3531 C 0.63101 0.11337 0.89745 0.0
C3532 C 0.6305 0.09289 0.89675 0.0
C3533 C 0.64236 0.09255 0.89638 0.0
C3534 C 0.64848 0.10271 0.89683 0.0
C3535 C 0.64288 0.11298 0.89737 0.0
H3536 H 0.17603 0.57212 0.4104 0.0
H3537 H 0.16438 0.56702 0.37627 0.0
H3538 H 0.16165 0.58649 0.41318 0.0
H3539 H 0.15019 0.58153 0.3789 0.0
H3540 H 0.12109 0.60375 0.38844 0.0
H3541 H 0.13315 0.58716 0.38799 0.0
H3542 H 0.15868 0.60527 0.40709 0.0
H3543 H 0.14657 0.62168 0.4077 0.0
C3544 C 0.17036 0.57407 0.40351 0.0
C3545 C 0.17136 0.5685 0.3931 0.0
C3546 C 0.16215 0.58231 0.40507 0.0
C3547 C 0.15481 0.58525 0.39624 0.0
C3548 C 0.15558 0.57939 0.38595 0.0
C3549 C 0.16373 0.57108 0.38442 0.0
C3550 C 0.12925 0.60412 0.39261 0.0
C3551 C 0.13289 0.61402 0.3981 0.0
C3552 C 0.13618 0.59464 0.39233 0.0
C3553 C 0.14693 0.59488 0.39745 0.0
C3554 C 0.15039 0.60469 0.40321 0.0
C3555 C 0.14345 0.61413 0.40355 0.0
H3556 H 0.68892 0.92515 0.60475 0.0
H3557 H 0.66417 0.95053 0.61274 0.0
H3558 H 0.67399 0.91107 0.60346 0.0
H3559 H 0.64923 0.93629 0.61168 0.0
H3560 H 0.63087 0.90394 0.625 0.0
H3561 H 0.64415 0.91963 0.62336 0.0
H3562 H 0.65687 0.90536 0.59246 0.0
H3563 H 0.64371 0.88957 0.5942 0.0
C3564 C 0.68028 0.92779 0.60601 0.0
C3565 C 0.67778 0.939 0.60888 0.0
C3566 C 0.67171 0.91969 0.60529 0.0
C3567 C 0.66044 0.92257 0.60749 0.0
C3568 C 0.65787 0.93381 0.61007 0.0
C3569 C 0.66643 0.94195 0.61071 0.0
C3570 C 0.63645 0.90421 0.61782 0.0
C3571 C 0.63631 0.8955 0.60977 0.0
C3572 C 0.64398 0.91324 0.61682 0.0
C3573 C 0.65159 0.91369 0.60781 0.0
C3574 C 0.65117 0.90518 0.59955 0.0
C3575 C 0.64358 0.8962 0.6005 0.0
H3576 H 0.3496 0.46152 0.92004 0.0
H3577 H 0.33988 0.44442 0.88926 0.0
H3578 H 0.36428 0.44758 0.92322 0.0
H3579 H 0.35456 0.43049 0.89244 0.0
H3580 H 0.37539 0.40178 0.90707 0.0
H3581 H 0.35998 0.41513 0.90478 0.0
H3582 H 0.3823 0.44225 0.91502 0.0
H3583 H 0.39768 0.42893 0.9173 0.0
C3584 C 0.35062 0.45481 0.91393 0.0
C3585 C 0.3436 0.45411 0.90437 0.0
C3586 C 0.35903 0.44682 0.91575 0.0
C3587 C 0.36063 0.43795 0.90806 0.0
C3588 C 0.35346 0.43713 0.89861 0.0
C3589 C 0.34504 0.44512 0.89679 0.0
C3590 C 0.37702 0.4106 0.90877 0.0
C3591 C 0.38777 0.41429 0.91235 0.0
C3592 C 0.36819 0.41825 0.90747 0.0
C3593 C 0.36991 0.42975 0.90972 0.0
C3594 C 0.38064 0.43342 0.91339 0.0
C3595 C 0.38946 0.42578 0.91469 0.0
H3596 H 0.85204 0.04911 0.09086 0.0
H3597 H 0.84003 0.06683 0.12026 0.0
H3598 H 0.86638 0.06362 0.08813 0.0
H3599 H 0.85411 0.08154 0.11729 0.0
H3600 H 0.88914 0.09834 0.11587 0.0
H3601 H 0.87453 0.0841 0.11854 0.0
H3602 H 0.86816 0.0833 0.08274 0.0
H3603 H 0.88276 0.09757 0.08007 0.0
C3604 C 0.85246 0.0561 0.09674 0.0
C3605 C 0.8449 0.05679 0.10579 0.0
C3606 C 0.8606 0.06448 0.0951 0.0
C3607 C 0.86139 0.07374 0.10249 0.0
C3608 C 0.8538 0.07446 0.11151 0.0
C3609 C 0.84564 0.06609 0.11314 0.0
C3610 C 0.88454 0.09522 0.10858 0.0
C3611 C 0.88713 0.0991 0.09775 0.0
C3612 C 0.87617 0.08705 0.11011 0.0
C3613 C 0.87018 0.08255 0.10086 0.0
C3614 C 0.87273 0.08646 0.09003 0.0
C3615 C 0.8811 0.09464 0.0885 0.0
H3616 H 0.12424 0.16415 0.44199 0.0
H3617 H 0.10465 0.18136 0.41673 0.0
H3618 H 0.1222 0.14662 0.43138 0.0
H3619 H 0.103 0.16395 0.4059 0.0
H3620 H 0.09253 0.12858 0.39506 0.0
H3621 H 0.09394 0.14565 0.40646 0.0
H3622 H 0.12884 0.13815 0.41399 0.0
H3623 H 0.12729 0.12083 0.40297 0.0
C3624 C 0.11946 0.16418 0.4342 0.0
C3625 C 0.11461 0.17416 0.43021 0.0
C3626 C 0.11841 0.15416 0.42805 0.0
C3627 C 0.11247 0.15388 0.41777 0.0
C3628 C 0.10754 0.16384 0.41384 0.0
C3629 C 0.1086 0.17385 0.41998 0.0
C3630 C 0.10047 0.1305 0.39926 0.0
C3631 C 0.1098 0.12333 0.39811 0.0
C3632 C 0.10131 0.14035 0.40569 0.0
C3633 C 0.11151 0.14328 0.41112 0.0
C3634 C 0.12082 0.13608 0.41002 0.0
C3635 C 0.11998 0.12622 0.40359 0.0
H3636 H 0.05723 0.90652 0.68663 0.0
H3637 H 0.04048 0.88547 0.66183 0.0
H3638 H 0.07418 0.90686 0.67511 0.0
H3639 H 0.05732 0.88613 0.65009 0.0
H3640 H 0.09436 0.87671 0.6419 0.0
H3641 H 0.07618 0.87812 0.65126 0.0
H3642 H 0.08228 0.91346 0.65755 0.0
H3643 H 0.10069 0.91195 0.6485 0.0
C3644 C 0.05714 0.90205 0.67866 0.0
C3645 C 0.04755 0.89588 0.6752 0.0
C3646 C 0.0668 0.90235 0.67199 0.0
C3647 C 0.06712 0.89648 0.66169 0.0
C3648 C 0.05739 0.89063 0.65804 0.0
C3649 C 0.0477 0.89035 0.66471 0.0
C3650 C 0.09182 0.88478 0.64527 0.0
C3651 C 0.09902 0.89419 0.64455 0.0
C3652 C 0.08133 0.88562 0.65052 0.0
C3653 C 0.07779 0.8959 0.65519 0.0
C3654 C 0.08482 0.9054 0.65415 0.0
C3655 C 0.09532 0.90456 0.64887 0.0
H3656 H 0.40467 0.84 0.94422 0.0
H3657 H 0.37547 0.83067 0.92418 0.0
H3658 H 0.40637 0.85749 0.93379 0.0
H3659 H 0.37745 0.84792 0.91345 0.0
H3660 H 0.37703 0.88501 0.90436 0.0
H3661 H 0.37521 0.86804 0.91558 0.0
H3662 H 0.41148 0.86406 0.9152 0.0
H3663 H 0.41328 0.88108 0.90403 0.0
C3664 C 0.3986 0.84169 0.9376 0.0
C3665 C 0.38993 0.83393 0.93504 0.0
C3666 C 0.39966 0.85166 0.93154 0.0
C3667 C 0.39205 0.85411 0.92278 0.0
C3668 C 0.38338 0.84636 0.92023 0.0
C3669 C 0.38233 0.8364 0.92629 0.0
C3670 C 0.38461 0.88048 0.90664 0.0
C3671 C 0.3953 0.88437 0.90328 0.0
C3672 C 0.38357 0.87075 0.91305 0.0
C3673 C 0.3932 0.86466 0.91625 0.0
C3674 C 0.4039 0.86863 0.91301 0.0
C3675 C 0.40494 0.87839 0.90661 0.0
H3676 H 0.43172 0.11396 0.1876 0.0
H3677 H 0.45912 0.1269 0.16752 0.0
H3678 H 0.42058 0.11061 0.17059 0.0
H3679 H 0.44799 0.12347 0.1505 0.0
H3680 H 0.42898 0.10508 0.122 0.0
H3681 H 0.44024 0.10792 0.13907 0.0
H3682 H 0.41101 0.12143 0.15592 0.0
H3683 H 0.39969 0.11828 0.13897 0.0
C3684 C 0.43534 0.11616 0.17957 0.0
C3685 C 0.44631 0.12073 0.17893 0.0
C3686 C 0.42896 0.11423 0.16981 0.0
C3687 C 0.43339 0.1168 0.15919 0.0
C3688 C 0.44439 0.12127 0.15854 0.0
C3689 C 0.45077 0.12322 0.1683 0.0
C3690 C 0.42494 0.10856 0.12938 0.0
C3691 C 0.41344 0.11145 0.12913 0.0
C3692 C 0.43142 0.11029 0.13912 0.0
C3693 C 0.42652 0.11491 0.14884 0.0
C3694 C 0.41501 0.11776 0.1486 0.0
C3695 C 0.40855 0.11607 0.13886 0.0
H3696 H 0.12052 0.85209 0.0566 0.0
H3697 H 0.09903 0.82955 0.07526 0.0
H3698 H 0.12187 0.86455 0.07295 0.0
H3699 H 0.10071 0.84179 0.09172 0.0
H3700 H 0.09934 0.86982 0.11744 0.0
H3701 H 0.09588 0.86008 0.09959 0.0
H3702 H 0.13118 0.86368 0.09121 0.0
H3703 H 0.13454 0.87375 0.10884 0.0
C3704 C 0.11597 0.84986 0.06414 0.0
C3705 C 0.10972 0.83979 0.06465 0.0
C3706 C 0.11684 0.85694 0.07355 0.0
C3707 C 0.11147 0.85413 0.08367 0.0
C3708 C 0.10488 0.84426 0.08404 0.0
C3709 C 0.10402 0.83718 0.07464 0.0
C3710 C 0.10631 0.86872 0.11169 0.0
C3711 C 0.11723 0.87249 0.11459 0.0
C3712 C 0.10435 0.86304 0.10151 0.0
C3713 C 0.11327 0.86104 0.094 0.0
C3714 C 0.12411 0.86516 0.09675 0.0
C3715 C 0.12606 0.87081 0.10692 0.0
H3716 H 0.46835 0.88839 0.3575 0.0
H3717 H 0.44666 0.9046 0.33327 0.0
H3718 H 0.45408 0.89109 0.37195 0.0
H3719 H 0.43238 0.90728 0.34773 0.0
H3720 H 0.40492 0.89882 0.37351 0.0
H3721 H 0.41921 0.89633 0.35903 0.0
H3722 H 0.44523 0.906 0.3829 0.0
H3723 H 0.43099 0.90809 0.39748 0.0
C3724 C 0.46058 0.89263 0.35528 0.0
C3725 C 0.45865 0.89628 0.34422 0.0
C3726 C 0.4524 0.89417 0.36357 0.0
C3727 C 0.44209 0.8994 0.361 0.0
C3728 C 0.44016 0.90307 0.34995 0.0
C3729 C 0.44835 0.90153 0.34166 0.0
C3730 C 0.4137 0.90033 0.37569 0.0
C3731 C 0.41681 0.90363 0.38666 0.0
C3732 C 0.42188 0.89902 0.36736 0.0
C3733 C 0.43337 0.90096 0.36981 0.0
C3734 C 0.43647 0.90432 0.38076 0.0
C3735 C 0.42829 0.90565 0.38909 0.0
H3736 H 0.38359 0.1664 0.56359 0.0
H3737 H 0.40283 0.18566 0.58808 0.0
H3738 H 0.3865 0.14945 0.57459 0.0
H3739 H 0.40541 0.16876 0.59929 0.0
H3740 H 0.41709 0.13392 0.61063 0.0
H3741 H 0.41508 0.1506 0.59897 0.0
H3742 H 0.38017 0.1418 0.59245 0.0
H3743 H 0.38228 0.12495 0.60377 0.0
C3744 C 0.38849 0.16701 0.57129 0.0
C3745 C 0.39297 0.17738 0.57496 0.0
C3746 C 0.39005 0.15732 0.57766 0.0
C3747 C 0.39614 0.15777 0.58784 0.0
C3748 C 0.40075 0.16811 0.59144 0.0
C3749 C 0.39917 0.17782 0.58508 0.0
C3750 C 0.40902 0.1355 0.60662 0.0
C3751 C 0.39984 0.12811 0.60814 0.0
C3752 C 0.40784 0.14511 0.60003 0.0
C3753 C 0.39747 0.14753 0.59478 0.0
C3754 C 0.38831 0.14012 0.59628 0.0
C3755 C 0.38948 0.13053 0.60288 0.0
H3756 H 0.04738 0.10658 0.84082 0.0
H3757 H 0.06027 0.13497 0.82233 0.0
H3758 H 0.06505 0.10583 0.85156 0.0
H3759 H 0.07785 0.1342 0.83298 0.0
H3760 H 0.11208 0.12149 0.84419 0.0
H3761 H 0.09406 0.12165 0.83424 0.0
H3762 H 0.07654 0.11651 0.86556 0.0
H3763 H 0.09465 0.11638 0.87557 0.0
C3764 C 0.05393 0.11273 0.83913 0.0
C3765 C 0.05247 0.12076 0.83064 0.0
C3766 C 0.06405 0.11229 0.84527 0.0
C3767 C 0.0729 0.11988 0.84303 0.0
C3768 C 0.0713 0.12807 0.83474 0.0
C3769 C 0.06122 0.12851 0.82863 0.0
C3770 C 0.10439 0.12046 0.84898 0.0
C3771 C 0.1048 0.11904 0.86069 0.0
C3772 C 0.09406 0.12055 0.84327 0.0
C3773 C 0.08386 0.11922 0.84913 0.0
C3774 C 0.08426 0.11749 0.86081 0.0
C3775 C 0.09463 0.11741 0.86653 0.0
H3776 H 0.96561 0.41154 0.84978 0.0
H3777 H 0.94927 0.38084 0.83856 0.0
H3778 H 0.95129 0.41384 0.86427 0.0
H3779 H 0.93473 0.38335 0.85279 0.0
H3780 H 0.91861 0.38493 0.88781 0.0
H3781 H 0.93278 0.38262 0.8732 0.0
H3782 H 0.93121 0.41814 0.86614 0.0
H3783 H 0.91701 0.42045 0.88074 0.0
C3784 C 0.95897 0.40528 0.85041 0.0
C3785 C 0.9586 0.39599 0.84303 0.0
C3786 C 0.95069 0.40667 0.85863 0.0
C3787 C 0.94186 0.39879 0.85968 0.0
C3788 C 0.94148 0.38951 0.85228 0.0
C3789 C 0.94974 0.38814 0.84405 0.0
C3790 C 0.9212 0.39223 0.88306 0.0
C3791 C 0.91667 0.40287 0.88545 0.0
C3792 C 0.92932 0.3909 0.87469 0.0
C3793 C 0.93313 0.40019 0.8685 0.0
C3794 C 0.92858 0.41084 0.87086 0.0
C3795 C 0.92045 0.41216 0.87924 0.0
H3796 H 0.87757 0.68375 0.08698 0.0
H3797 H 0.90779 0.67564 0.06848 0.0
H3798 H 0.87986 0.66681 0.09813 0.0
H3799 H 0.90988 0.65848 0.07941 0.0
H3800 H 0.91623 0.63526 0.10958 0.0
H3801 H 0.91434 0.65242 0.09864 0.0
H3802 H 0.87842 0.64642 0.09549 0.0
H3803 H 0.88031 0.62925 0.10636 0.0
C3804 C 0.88473 0.67838 0.08533 0.0
C3805 C 0.8925 0.68105 0.07685 0.0
C3806 C 0.88597 0.6686 0.09163 0.0
C3807 C 0.89503 0.66128 0.08963 0.0
C3808 C 0.90287 0.664 0.08122 0.0
C3809 C 0.9016 0.67376 0.07488 0.0
C3810 C 0.90795 0.63755 0.10647 0.0
C3811 C 0.89842 0.63089 0.10887 0.0
C3812 C 0.90687 0.64739 0.10021 0.0
C3813 C 0.89623 0.6508 0.09623 0.0
C3814 C 0.88671 0.64412 0.0986 0.0
C3815 C 0.88779 0.63429 0.10484 0.0
H3816 H 0.55962 0.63635 0.3238 0.0
H3817 H 0.5475 0.60662 0.34065 0.0
H3818 H 0.57724 0.63543 0.33437 0.0
H3819 H 0.56523 0.6057 0.35129 0.0
H3820 H 0.59467 0.61554 0.37579 0.0
H3821 H 0.57652 0.61573 0.36584 0.0
H3822 H 0.59377 0.62334 0.33489 0.0
H3823 H 0.61182 0.62316 0.34479 0.0
C3824 C 0.56075 0.62957 0.32972 0.0
C3825 C 0.5522 0.62149 0.3313 0.0
C3826 C 0.57086 0.62904 0.33578 0.0
C3827 C 0.57269 0.62041 0.34357 0.0
C3828 C 0.56404 0.61249 0.34539 0.0
C3829 C 0.55389 0.61302 0.33931 0.0
C3830 C 0.59457 0.61712 0.36684 0.0
C3831 C 0.60467 0.61945 0.3611 0.0
C3832 C 0.58418 0.61724 0.36114 0.0
C3833 C 0.58369 0.61968 0.3496 0.0
C3834 C 0.59383 0.62169 0.34383 0.0
C3835 C 0.60418 0.62157 0.3495 0.0
H3836 H 0.88392 0.34606 0.44719 0.0
H3837 H 0.90163 0.3278 0.42125 0.0
H3838 H 0.88647 0.36344 0.43675 0.0
H3839 H 0.90382 0.3451 0.41061 0.0
H3840 H 0.91506 0.37992 0.39943 0.0
H3841 H 0.91369 0.36319 0.41109 0.0
H3842 H 0.87932 0.3718 0.41948 0.0
H3843 H 0.88082 0.38871 0.40814 0.0
C3844 C 0.88841 0.34577 0.43929 0.0
C3845 C 0.89255 0.33554 0.43504 0.0
C3846 C 0.88976 0.35571 0.43325 0.0
C3847 C 0.89531 0.35566 0.42283 0.0
C3848 C 0.8996 0.34546 0.41866 0.0
C3849 C 0.89822 0.33551 0.42469 0.0
C3850 C 0.90727 0.37832 0.40389 0.0
C3851 C 0.89804 0.38564 0.40284 0.0
C3852 C 0.90644 0.36867 0.41047 0.0
C3853 C 0.89638 0.36614 0.41618 0.0
C3854 C 0.88722 0.37355 0.41528 0.0
C3855 C 0.88804 0.38318 0.40868 0.0
H3856 H 0.60527 0.68414 0.91521 0.0
H3857 H 0.61988 0.66579 0.94287 0.0
H3858 H 0.60351 0.66671 0.9044 0.0
H3859 H 0.61803 0.64835 0.93208 0.0
H3860 H 0.60258 0.618 0.91334 0.0
H3861 H 0.6036 0.63541 0.92434 0.0
H3862 H 0.61598 0.65302 0.89523 0.0
H3863 H 0.61467 0.63571 0.88417 0.0
C3864 C 0.60816 0.6764 0.91897 0.0
C3865 C 0.61275 0.67637 0.9299 0.0
C3866 C 0.60714 0.66641 0.91277 0.0
C3867 C 0.61067 0.65616 0.91737 0.0
C3868 C 0.61511 0.6561 0.92836 0.0
C3869 C 0.61616 0.66609 0.93455 0.0
C3870 C 0.60543 0.62562 0.90928 0.0
C3871 C 0.60855 0.62548 0.89789 0.0
C3872 C 0.60611 0.63556 0.9156 0.0
C3873 C 0.60987 0.64559 0.91066 0.0
C3874 C 0.61295 0.64546 0.89926 0.0
C3875 C 0.61231 0.63551 0.89295 0.0
H3876 H 0.82663 0.57341 0.84959 0.0
H3877 H 0.80532 0.60183 0.85707 0.0
H3878 H 0.84319 0.58556 0.85038 0.0
H3879 H 0.82185 0.61414 0.85719 0.0
H3880 H 0.85496 0.62855 0.87237 0.0
H3881 H 0.83763 0.61783 0.86918 0.0
H3882 H 0.85345 0.60021 0.84157 0.0
H3883 H 0.87089 0.61078 0.845 0.0
C3884 C 0.82546 0.58228 0.85131 0.0
C3885 C 0.81464 0.5866 0.85341 0.0
C3886 C 0.83496 0.5893 0.85159 0.0
C3887 C 0.83389 0.60085 0.85389 0.0
C3888 C 0.82301 0.60526 0.85556 0.0
C3889 C 0.81351 0.59822 0.85535 0.0
C3890 C 0.85466 0.62251 0.86551 0.0
C3891 C 0.86429 0.62045 0.85897 0.0
C3892 C 0.84471 0.61638 0.86365 0.0
C3893 C 0.84413 0.60809 0.85515 0.0
C3894 C 0.85366 0.60636 0.84833 0.0
C3895 C 0.86364 0.61243 0.85026 0.0
H3896 H 0.19204 0.09385 0.64791 0.0
H3897 H 0.1658 0.06965 0.65529 0.0
H3898 H 0.17816 0.10893 0.64864 0.0
H3899 H 0.15189 0.08451 0.65535 0.0
H3900 H 0.12884 0.11316 0.66072 0.0
H3901 H 0.14455 0.10051 0.66442 0.0
H3902 H 0.16316 0.11545 0.63708 0.0
H3903 H 0.14759 0.12833 0.63373 0.0
C3904 C 0.18334 0.09176 0.6498 0.0
C3905 C 0.18001 0.08052 0.6514 0.0
C3906 C 0.17536 0.10038 0.65009 0.0
C3907 C 0.16386 0.09796 0.65196 0.0
C3908 C 0.16066 0.08676 0.65401 0.0
C3909 C 0.16863 0.07818 0.6538 0.0
C3910 C 0.13637 0.11381 0.65563 0.0
C3911 C 0.13698 0.12165 0.64689 0.0
C3912 C 0.14536 0.10654 0.6577 0.0
C3913 C 0.15509 0.10682 0.65095 0.0
C3914 C 0.15588 0.11505 0.64255 0.0
C3915 C 0.14695 0.12242 0.64058 0.0
H3916 H 0.66397 0.43918 0.35527 0.0
H3917 H 0.68937 0.41662 0.36807 0.0
H3918 H 0.65021 0.42397 0.35515 0.0
H3919 H 0.67572 0.40118 0.36735 0.0
H3920 H 0.64395 0.38241 0.3805 0.0
H3921 H 0.65952 0.39558 0.37784 0.0
H3922 H 0.64416 0.40675 0.34683 0.0
H3923 H 0.62843 0.39376 0.34972 0.0
C3924 C 0.66665 0.43093 0.35795 0.0
C3925 C 0.67774 0.42917 0.36183 0.0
C3926 C 0.65879 0.42214 0.35772 0.0
C3927 C 0.66182 0.41132 0.36129 0.0
C3928 C 0.67305 0.40944 0.3647 0.0
C3929 C 0.68092 0.41826 0.36499 0.0
C3930 C 0.64402 0.38754 0.37302 0.0
C3931 C 0.63494 0.38714 0.36537 0.0
C3932 C 0.65297 0.39508 0.37146 0.0
C3933 C 0.65307 0.40233 0.36216 0.0
C3934 C 0.64424 0.40148 0.35421 0.0
C3935 C 0.63525 0.39402 0.35583 0.0
H3936 H 0.30645 0.91125 0.14375 0.0
H3937 H 0.32702 0.94047 0.15144 0.0
H3938 H 0.32327 0.89953 0.14405 0.0
H3939 H 0.34387 0.92889 0.15114 0.0
H3940 H 0.37152 0.90414 0.15873 0.0
H3941 H 0.35395 0.91455 0.16087 0.0
H3942 H 0.33954 0.89626 0.13264 0.0
H3943 H 0.35702 0.88574 0.13067 0.0
C3944 C 0.31454 0.91517 0.14558 0.0
C3945 C 0.31538 0.92682 0.14752 0.0
C3946 C 0.32421 0.90847 0.14561 0.0
C3947 C 0.33495 0.91326 0.14756 0.0
C3948 C 0.33574 0.92487 0.14973 0.0
C3949 C 0.32608 0.93156 0.14974 0.0
C3950 C 0.36457 0.90233 0.15302 0.0
C3951 C 0.36566 0.89415 0.14452 0.0
C3952 C 0.35451 0.90831 0.15422 0.0
C3953 C 0.34534 0.9063 0.14688 0.0
C3954 C 0.34636 0.89792 0.13855 0.0
C3955 C 0.35639 0.89189 0.1374 0.0
H3956 H 0.82644 0.44016 0.65094 0.0
H3957 H 0.80556 0.41093 0.64413 0.0
H3958 H 0.84319 0.42842 0.65079 0.0
H3959 H 0.8223 0.39909 0.64454 0.0
H3960 H 0.8559 0.38493 0.63098 0.0
H3961 H 0.83848 0.39554 0.63295 0.0
H3962 H 0.85319 0.41414 0.66082 0.0
H3963 H 0.87069 0.4036 0.65871 0.0
C3964 C 0.82541 0.43121 0.64947 0.0
C3965 C 0.81465 0.42651 0.64745 0.0
C3966 C 0.83502 0.42445 0.64954 0.0
C3967 C 0.83411 0.4128 0.64764 0.0
C3968 C 0.82332 0.40805 0.6459 0.0
C3969 C 0.81371 0.41483 0.64579 0.0
C3970 C 0.85535 0.39116 0.63764 0.0
C3971 C 0.86468 0.39347 0.64466 0.0
C3972 C 0.84535 0.39724 0.63879 0.0
C3973 C 0.84444 0.40575 0.64701 0.0
C3974 C 0.85367 0.4078 0.65426 0.0
C3975 C 0.86369 0.40175 0.65307 0.0
H3976 H 0.32595 0.07395 0.34998 0.0
H3977 H 0.30449 0.10239 0.35693 0.0
H3978 H 0.34243 0.08621 0.35035 0.0
H3979 H 0.32095 0.11481 0.35664 0.0
H3980 H 0.35414 0.12971 0.37128 0.0
H3981 H 0.33681 0.11889 0.36842 0.0
H3982 H 0.35252 0.10069 0.34112 0.0
H3983 H 0.36996 0.11136 0.34423 0.0
C3984 C 0.32473 0.08285 0.35149 0.0
C3985 C 0.3139 0.08715 0.35357 0.0
C3986 C 0.33418 0.08993 0.35154 0.0
C3987 C 0.33305 0.10152 0.35356 0.0
C3988 C 0.32216 0.1059 0.35522 0.0
C3989 C 0.3127 0.09879 0.35524 0.0
C3990 C 0.35381 0.12352 0.36455 0.0
C3991 C 0.36342 0.12132 0.35802 0.0
C3992 C 0.34387 0.11733 0.36288 0.0
C3993 C 0.34326 0.10885 0.35458 0.0
C3994 C 0.35275 0.10699 0.34774 0.0
C3995 C 0.36273 0.11312 0.34949 0.0
H3996 H 0.66458 0.56864 0.15806 0.0
H3997 H 0.68764 0.59277 0.14359 0.0
H3998 H 0.64953 0.58251 0.15749 0.0
H3999 H 0.67257 0.60676 0.14336 0.0
H4000 H 0.64257 0.63058 0.15299 0.0
H4001 H 0.6584 0.61787 0.15635 0.0
H4002 H 0.63996 0.59095 0.13991 0.0
H4003 H 0.62444 0.6036 0.13605 0.0
C4004 C 0.66648 0.57693 0.15485 0.0
C4005 C 0.67727 0.57952 0.15067 0.0
C4006 C 0.65786 0.58488 0.15458 0.0
C4007 C 0.65988 0.59564 0.15027 0.0
C4008 C 0.67083 0.59852 0.14677 0.0
C4009 C 0.67945 0.59051 0.14693 0.0
C4010 C 0.64191 0.62198 0.14999 0.0
C4011 C 0.63214 0.61814 0.14428 0.0
C4012 C 0.65096 0.61471 0.15199 0.0
C4013 C 0.65033 0.60343 0.14849 0.0
C4014 C 0.64057 0.59957 0.14289 0.0
C4015 C 0.63164 0.60684 0.14074 0.0
H4016 H 0.18779 0.91497 0.8646 0.0
H4017 H 0.16159 0.93943 0.85886 0.0
H4018 H 0.17375 0.89989 0.86329 0.0
H4019 H 0.14754 0.92451 0.85821 0.0
H4020 H 0.12446 0.89575 0.85078 0.0
H4021 H 0.14004 0.90897 0.84811 0.0
H4022 H 0.15885 0.89265 0.87457 0.0
H4023 H 0.1434 0.87926 0.87694 0.0
C4024 C 0.17906 0.91713 0.86296 0.0
C4025 C 0.1758 0.92842 0.86196 0.0
C4026 C 0.17099 0.90849 0.86234 0.0
C4027 C 0.15948 0.91096 0.86073 0.0
C4028 C 0.15631 0.92224 0.85933 0.0
C4029 C 0.16437 0.93084 0.85988 0.0
C4030 C 0.13199 0.89495 0.85592 0.0
C4031 C 0.1327 0.88655 0.86412 0.0
C4032 C 0.14091 0.90253 0.85444 0.0
C4033 C 0.15067 0.90199 0.86122 0.0
C4034 C 0.15154 0.89326 0.8691 0.0
C4035 C 0.14267 0.8856 0.87049 0.0
H4036 H 0.83893 0.80003 0.60129 0.0
H4037 H 0.87057 0.81596 0.59262 0.0
H4038 H 0.83587 0.81434 0.61577 0.0
H4039 H 0.86735 0.83043 0.60685 0.0
H4040 H 0.86429 0.84555 0.64236 0.0
H4041 H 0.86703 0.8317 0.62743 0.0
H4042 H 0.83189 0.83457 0.61791 0.0
H4043 H 0.82907 0.84823 0.63308 0.0
C4044 C 0.84522 0.8066 0.60246 0.0
C4045 C 0.85501 0.80684 0.59582 0.0
C4046 C 0.8434 0.81486 0.61067 0.0
C4047 C 0.85137 0.82351 0.61246 0.0
C4048 C 0.8611 0.82381 0.60575 0.0
C4049 C 0.86289 0.81559 0.59751 0.0
C4050 C 0.85713 0.84318 0.63713 0.0
C4051 C 0.84646 0.84795 0.63893 0.0
C4052 C 0.85873 0.83533 0.62849 0.0
C4053 C 0.84968 0.83205 0.62148 0.0
C4054 C 0.83901 0.83686 0.62324 0.0
C4055 C 0.83742 0.84476 0.63185 0.0
H4056 H 0.94015 0.15643 0.30893 0.0
H4057 H 0.91285 0.14102 0.28996 0.0
H4058 H 0.92836 0.15676 0.32561 0.0
H4059 H 0.90084 0.14185 0.30654 0.0
H4060 H 0.88952 0.13094 0.34206 0.0
H4061 H 0.89956 0.13239 0.3243 0.0
H4062 H 0.91216 0.1652 0.33421 0.0
H4063 H 0.90222 0.16365 0.35206 0.0
C4064 C 0.93159 0.15318 0.3083 0.0
C4065 C 0.92749 0.14859 0.29813 0.0
C4066 C 0.92477 0.15352 0.31783 0.0
C4067 C 0.91364 0.14931 0.31744 0.0
C4068 C 0.90941 0.14503 0.30718 0.0
C4069 C 0.91626 0.14467 0.29763 0.0
C4070 C 0.89428 0.13855 0.34036 0.0
C4071 C 0.89513 0.14716 0.34848 0.0
C4072 C 0.90003 0.13939 0.33017 0.0
C4073 C 0.90673 0.14889 0.32784 0.0
C4074 C 0.90725 0.15767 0.33581 0.0
C4075 C 0.90154 0.1568 0.34603 0.0
H4076 H 0.62721 0.20211 0.10601 0.0
H4077 H 0.6619 0.21361 0.10591 0.0
H4078 H 0.63196 0.18818 0.1202 0.0
H4079 H 0.6666 0.19982 0.1203 0.0
H4080 H 0.67243 0.16496 0.13632 0.0
H4081 H 0.66797 0.17905 0.12215 0.0
H4082 H 0.63771 0.1878 0.14027 0.0
H4083 H 0.64203 0.17356 0.1543 0.0
C4084 C 0.63585 0.20163 0.109 0.0
C4085 C 0.64418 0.20894 0.10484 0.0
C4086 C 0.63855 0.19374 0.11721 0.0
C4087 C 0.64965 0.19293 0.12139 0.0
C4088 C 0.65799 0.20019 0.11718 0.0
C4089 C 0.65528 0.20815 0.10903 0.0
C4090 C 0.66481 0.16988 0.13725 0.0
C4091 C 0.65757 0.16815 0.14642 0.0
C4092 C 0.66231 0.178 0.1292 0.0
C4093 C 0.65248 0.18451 0.13009 0.0
C4094 C 0.64529 0.18283 0.1393 0.0
C4095 C 0.64782 0.17477 0.14739 0.0
H4096 H 0.58378 0.86881 0.79736 0.0
H4097 H 0.5646 0.85409 0.82437 0.0
H4098 H 0.60125 0.86529 0.80767 0.0
H4099 H 0.58203 0.851 0.83489 0.0
H4100 H 0.61624 0.83763 0.84624 0.0
H4101 H 0.59911 0.83986 0.83497 0.0
H4102 H 0.61091 0.87249 0.82427 0.0
H4103 H 0.62803 0.87023 0.83547 0.0
C4104 C 0.5833 0.86476 0.80547 0.0
C4105 C 0.57279 0.86176 0.81005 0.0
C4106 C 0.5933 0.86286 0.81144 0.0
C4107 C 0.59304 0.85791 0.82213 0.0
C4108 C 0.58255 0.85473 0.82663 0.0
C4109 C 0.57254 0.85663 0.82066 0.0
C4110 C 0.61515 0.84529 0.84151 0.0
C4111 C 0.6235 0.85375 0.84175 0.0
C4112 C 0.60533 0.84658 0.83506 0.0
C4113 C 0.60364 0.85635 0.82872 0.0
C4114 C 0.61203 0.86477 0.8289 0.0
C4115 C 0.62185 0.86348 0.83533 0.0
H4116 H 0.87883 0.18904 0.92455 0.0
H4117 H 0.84405 0.18478 0.93456 0.0
H4118 H 0.87636 0.1744 0.91027 0.0
H4119 H 0.8415 0.17025 0.92008 0.0
H4120 H 0.84841 0.13441 0.90514 0.0
H4121 H 0.8486 0.15081 0.9176 0.0
H4122 H 0.86649 0.16982 0.89247 0.0
H4123 H 0.86654 0.15334 0.88011 0.0
C4124 C 0.87062 0.18504 0.92362 0.0
C4125 C 0.86166 0.18799 0.93072 0.0
C4126 C 0.86917 0.17673 0.91537 0.0
C4127 C 0.85874 0.17115 0.91407 0.0
C4128 C 0.84967 0.17434 0.92095 0.0
C4129 C 0.8511 0.18272 0.92917 0.0
C4130 C 0.85232 0.14211 0.90226 0.0
C4131 C 0.85753 0.14256 0.89168 0.0
C4132 C 0.85233 0.15154 0.90935 0.0
C4133 C 0.85761 0.16159 0.90603 0.0
C4134 C 0.86246 0.16215 0.89529 0.0
C4135 C 0.86239 0.15275 0.88818 0.0
H4136 H 0.58849 0.13817 0.71135 0.0
H4137 H 0.56888 0.1512 0.68365 0.0
H4138 H 0.60584 0.1421 0.70112 0.0
H4139 H 0.5862 0.15466 0.67323 0.0
H4140 H 0.61988 0.16941 0.66199 0.0
H4141 H 0.60281 0.1666 0.67304 0.0
H4142 H 0.6159 0.135 0.68495 0.0
H4143 H 0.63299 0.13786 0.67397 0.0
C4144 C 0.58788 0.14192 0.7031 0.0
C4145 C 0.57728 0.14436 0.69832 0.0
C4146 C 0.59782 0.14405 0.69718 0.0
C4147 C 0.59742 0.14865 0.68633 0.0
C4148 C 0.58683 0.15121 0.68161 0.0
C4149 C 0.57689 0.14909 0.68753 0.0
C4150 C 0.61909 0.16185 0.66694 0.0
C4151 C 0.62779 0.15385 0.6671 0.0
C4152 C 0.6093 0.16023 0.67326 0.0
C4153 C 0.60797 0.15056 0.67987 0.0
C4154 C 0.61672 0.14262 0.6801 0.0
C4155 C 0.62652 0.14425 0.6738 0.0
H4156 H 0.63164 0.81337 0.41043 0.0
H4157 H 0.66453 0.79884 0.40495 0.0
H4158 H 0.63564 0.82761 0.39636 0.0
H4159 H 0.66858 0.81314 0.39092 0.0
H4160 H 0.66612 0.83208 0.35753 0.0
H4161 H 0.66274 0.8183 0.37218 0.0
H4162 H 0.64728 0.84395 0.39279 0.0
H4163 H 0.6502 0.85763 0.37792 0.0
C4164 C 0.63978 0.8133 0.40632 0.0
C4165 C 0.64776 0.80496 0.40878 0.0
C4166 C 0.64209 0.82148 0.39826 0.0
C4167 C 0.65243 0.82152 0.39249 0.0
C4168 C 0.66046 0.81324 0.39507 0.0
C4169 C 0.65814 0.80505 0.40311 0.0
C4170 C 0.66193 0.83477 0.36516 0.0
C4171 C 0.65839 0.84595 0.36652 0.0
C4172 C 0.66012 0.82689 0.37362 0.0
C4173 C 0.65473 0.83001 0.38367 0.0
C4174 C 0.65133 0.84124 0.3851 0.0
C4175 C 0.65314 0.84911 0.37663 0.0
H4176 H 0.94624 0.84834 0.18649 0.0
H4177 H 0.9277 0.87507 0.20265 0.0
H4178 H 0.93186 0.84721 0.17173 0.0
H4179 H 0.91332 0.87392 0.18792 0.0
H4180 H 0.8857 0.86444 0.16267 0.0
H4181 H 0.89838 0.86235 0.17882 0.0
H4182 H 0.92681 0.85982 0.15635 0.0
H4183 H 0.91427 0.86204 0.14032 0.0
C4184 C 0.93905 0.85393 0.18693 0.0
C4185 C 0.93818 0.86188 0.19567 0.0
C4186 C 0.93082 0.85327 0.17848 0.0
C4187 C 0.92151 0.86055 0.17859 0.0
C4188 C 0.92033 0.86812 0.18764 0.0
C4189 C 0.92858 0.86878 0.19609 0.0
C4190 C 0.89466 0.86341 0.16119 0.0
C4191 C 0.89895 0.86341 0.15018 0.0
C4192 C 0.90191 0.8622 0.17044 0.0
C4193 C 0.91359 0.8609 0.16887 0.0
C4194 C 0.91783 0.8606 0.15786 0.0
C4195 C 0.91061 0.86186 0.14864 0.0
H4196 H 0.08661 0.63197 0.20704 0.0
H4197 H 0.07031 0.65839 0.18838 0.0
H4198 H 0.10399 0.63513 0.19655 0.0
H4199 H 0.08763 0.66139 0.17771 0.0
H4200 H 0.12448 0.67091 0.16946 0.0
H4201 H 0.10738 0.6683 0.18052 0.0
H4202 H 0.11049 0.63231 0.17693 0.0
H4203 H 0.12745 0.63487 0.16571 0.0
C4204 C 0.08677 0.6385 0.20075 0.0
C4205 C 0.07709 0.64493 0.19853 0.0
C4206 C 0.09668 0.64024 0.19467 0.0
C4207 C 0.09716 0.64848 0.18628 0.0
C4208 C 0.08754 0.65503 0.18418 0.0
C4209 C 0.0776 0.65324 0.19021 0.0
C4210 C 0.12147 0.66243 0.17093 0.0
C4211 C 0.12736 0.6531 0.16668 0.0
C4212 C 0.11168 0.66095 0.17729 0.0
C4213 C 0.10761 0.6501 0.17961 0.0
C4214 C 0.11352 0.64077 0.17543 0.0
C4215 C 0.12326 0.64225 0.16901 0.0
H4216 H 0.13333 0.29099 0.89208 0.0
H4217 H 0.14558 0.31328 0.91836 0.0
H4218 H 0.13801 0.30504 0.87806 0.0
H4219 H 0.14975 0.32755 0.90437 0.0
H4220 H 0.16713 0.34552 0.87516 0.0
H4221 H 0.16271 0.33143 0.88929 0.0
H4222 H 0.13183 0.32305 0.87145 0.0
H4223 H 0.13633 0.33704 0.85729 0.0
C4224 C 0.13703 0.29888 0.89487 0.0
C4225 C 0.1391 0.30098 0.90635 0.0
C4226 C 0.13958 0.307 0.88683 0.0
C4227 C 0.14423 0.31745 0.89008 0.0
C4228 C 0.14629 0.31956 0.90156 0.0
C4229 C 0.14376 0.31142 0.9096 0.0
C4230 C 0.15936 0.34071 0.87431 0.0
C4231 C 0.1521 0.34237 0.86509 0.0
C4232 C 0.15682 0.33265 0.88241 0.0
C4233 C 0.14692 0.32608 0.88151 0.0
C4234 C 0.13963 0.3278 0.87231 0.0
C4235 C 0.14219 0.33583 0.86419 0.0
H4236 H 0.4267 0.37296 0.70283 0.0
H4237 H 0.4492 0.35223 0.68323 0.0
H4238 H 0.41255 0.3717 0.68783 0.0
H4239 H 0.43513 0.35114 0.6682 0.0
H4240 H 0.41512 0.36772 0.63918 0.0
H4241 H 0.42795 0.36585 0.65504 0.0
H4242 H 0.39981 0.35834 0.67671 0.0
H4243 H 0.38686 0.35987 0.6607 0.0
C4244 C 0.42855 0.36796 0.69543 0.0
C4245 C 0.43915 0.36282 0.69416 0.0
C4246 C 0.42044 0.36725 0.68684 0.0
C4247 C 0.4228 0.36143 0.6768 0.0
C4248 C 0.43317 0.35585 0.67576 0.0
C4249 C 0.44123 0.3565 0.68436 0.0
C4250 C 0.41163 0.36541 0.64724 0.0
C4251 C 0.39992 0.36389 0.6486 0.0
C4252 C 0.41901 0.36438 0.65635 0.0
C4253 C 0.41488 0.3619 0.6671 0.0
C4254 C 0.4032 0.36033 0.66852 0.0
C4255 C 0.3958 0.36125 0.65936 0.0
H4256 H 0.13953 0.72064 0.61865 0.0
H4257 H 0.15227 0.69799 0.5932 0.0
H4258 H 0.14382 0.70687 0.63308 0.0
H4259 H 0.15609 0.68402 0.60758 0.0
H4260 H 0.1724 0.66645 0.63762 0.0
H4261 H 0.16868 0.68055 0.6233 0.0
H4262 H 0.13721 0.68881 0.63957 0.0
H4263 H 0.14099 0.67478 0.6539 0.0
C4264 C 0.14326 0.71273 0.61613 0.0
C4265 C 0.14557 0.71043 0.60476 0.0
C4266 C 0.1456 0.70478 0.6244 0.0
C4267 C 0.15028 0.69432 0.62149 0.0
C4268 C 0.1526 0.69203 0.61013 0.0
C4269 C 0.15027 0.69999 0.60186 0.0
C4270 C 0.16467 0.67125 0.6381 0.0
C4271 C 0.157 0.66952 0.64691 0.0
C4272 C 0.16252 0.67932 0.62988 0.0
C4273 C 0.15264 0.68582 0.63028 0.0
C4274 C 0.14499 0.68409 0.63911 0.0
C4275 C 0.14715 0.67605 0.64733 0.0
H4276 H 0.35538 0.3191 0.08619 0.0
H4277 H 0.35651 0.29389 0.11213 0.0
H4278 H 0.35234 0.33357 0.10039 0.0
H4279 H 0.35279 0.30827 0.12628 0.0
H4280 H 0.35906 0.33842 0.14965 0.0
H4281 H 0.36186 0.32375 0.13553 0.0
H4282 H 0.33866 0.34062 0.11319 0.0
H4283 H 0.33609 0.3554 0.12725 0.0
C4284 C 0.35496 0.31663 0.09492 0.0
C4285 C 0.35625 0.30532 0.098 0.0
C4286 C 0.35305 0.32492 0.10307 0.0
C4287 C 0.35231 0.32211 0.1145 0.0
C4288 C 0.35346 0.31078 0.11757 0.0
C4289 C 0.35544 0.30249 0.10943 0.0
C4290 C 0.35451 0.33893 0.14175 0.0
C4291 C 0.34738 0.34806 0.13954 0.0
C4292 C 0.35608 0.33051 0.13365 0.0
C4293 C 0.35049 0.33098 0.12319 0.0
C4294 C 0.34326 0.34008 0.12106 0.0
C4295 C 0.34176 0.34854 0.12912 0.0
H4296 H 0.54925 0.40506 0.16828 0.0
H4297 H 0.56133 0.37634 0.1867 0.0
H4298 H 0.56695 0.40561 0.15776 0.0
H4299 H 0.57893 0.3769 0.17625 0.0
H4300 H 0.61349 0.38884 0.16518 0.0
H4301 H 0.59555 0.38901 0.17508 0.0
H4302 H 0.57797 0.39486 0.14376 0.0
H4303 H 0.59599 0.39468 0.13381 0.0
C4304 C 0.55563 0.39881 0.17001 0.0
C4305 C 0.55393 0.39073 0.17841 0.0
C4306 C 0.56576 0.39913 0.16399 0.0
C4307 C 0.57438 0.39137 0.16625 0.0
C4308 C 0.57256 0.38316 0.17448 0.0
C4309 C 0.56247 0.38283 0.18047 0.0
C4310 C 0.6058 0.3901 0.16039 0.0
C4311 C 0.60616 0.39164 0.14869 0.0
C4312 C 0.59551 0.3902 0.16606 0.0
C4313 C 0.58532 0.39184 0.16019 0.0
C4314 C 0.58568 0.39366 0.14854 0.0
C4315 C 0.596 0.39356 0.14284 0.0
H4316 H 0.93323 0.61046 0.68791 0.0
H4317 H 0.95593 0.63204 0.66953 0.0
H4318 H 0.92217 0.60716 0.6708 0.0
H4319 H 0.94506 0.62849 0.65236 0.0
H4320 H 0.91533 0.62977 0.62741 0.0
H4321 H 0.92634 0.633 0.64456 0.0
H4322 H 0.92388 0.59768 0.65239 0.0
H4323 H 0.9126 0.5945 0.63539 0.0
C4324 C 0.93585 0.6145 0.68022 0.0
C4325 C 0.94544 0.62152 0.68008 0.0
C4326 C 0.92958 0.61252 0.67039 0.0
C4327 C 0.93274 0.61757 0.66023 0.0
C4328 C 0.94235 0.62457 0.66008 0.0
C4329 C 0.94864 0.62651 0.66989 0.0
C4330 C 0.91707 0.62272 0.63284 0.0
C4331 C 0.91309 0.61189 0.63006 0.0
C4332 C 0.92347 0.62454 0.6426 0.0
C4333 C 0.92599 0.61559 0.64982 0.0
C4334 C 0.922 0.60477 0.64705 0.0
C4335 C 0.91564 0.60293 0.63726 0.0
H4336 H 0.60194 0.32811 0.57735 0.0
H4337 H 0.62375 0.35054 0.55892 0.0
H4338 H 0.60366 0.34022 0.59389 0.0
H4339 H 0.62516 0.36289 0.57537 0.0
H4340 H 0.63716 0.37241 0.61138 0.0
H4341 H 0.63417 0.36209 0.59382 0.0
H4342 H 0.59869 0.35859 0.60153 0.0
H4343 H 0.60177 0.36858 0.6193 0.0
C4344 C 0.60704 0.33567 0.57681 0.0
C4345 C 0.61277 0.33831 0.56685 0.0
C4346 C 0.60792 0.34269 0.58625 0.0
C4347 C 0.61457 0.35251 0.58596 0.0
C4348 C 0.62007 0.35531 0.5759 0.0
C4349 C 0.61916 0.3483 0.56645 0.0
C4350 C 0.62872 0.36943 0.60933 0.0
C4351 C 0.61972 0.37124 0.61678 0.0
C4352 C 0.62698 0.36363 0.5992 0.0
C4353 C 0.6162 0.35948 0.59629 0.0
C4354 C 0.60713 0.36156 0.60359 0.0
C4355 C 0.60887 0.36739 0.61371 0.0
H4356 H 0.44254 0.65762 0.81041 0.0
H4357 H 0.4141 0.6427 0.79275 0.0
H4358 H 0.43161 0.65796 0.82771 0.0
H4359 H 0.40311 0.64321 0.81007 0.0
H4360 H 0.38429 0.65448 0.84216 0.0
H4361 H 0.39451 0.65617 0.82444 0.0
H4362 H 0.42447 0.64302 0.84036 0.0
H4363 H 0.41429 0.64109 0.85792 0.0
C4364 C 0.43395 0.65443 0.81021 0.0
C4365 C 0.42925 0.65 0.80022 0.0
C4366 C 0.42769 0.65465 0.82012 0.0
C4367 C 0.41654 0.65052 0.82027 0.0
C4368 C 0.41166 0.64653 0.81019 0.0
C4369 C 0.41795 0.64626 0.80027 0.0
C4370 C 0.39304 0.65189 0.84187 0.0
C4371 C 0.39846 0.64769 0.85151 0.0
C4372 C 0.39889 0.65289 0.83172 0.0
C4373 C 0.41031 0.64979 0.83103 0.0
C4374 C 0.41574 0.64568 0.84068 0.0
C4375 C 0.40989 0.6446 0.85077 0.0
H4376 H 0.06278 0.35185 0.32334 0.0
H4377 H 0.08159 0.36656 0.29606 0.0
H4378 H 0.08035 0.3486 0.33353 0.0
H4379 H 0.0992 0.36283 0.30602 0.0
H4380 H 0.12669 0.36718 0.33316 0.0
H4381 H 0.10938 0.36972 0.32231 0.0
H4382 H 0.09725 0.33732 0.33333 0.0
H4383 H 0.11454 0.33484 0.34428 0.0
C4384 C 0.07066 0.35436 0.3195 0.0
C4385 C 0.07076 0.35951 0.3089 0.0
C4386 C 0.08076 0.35237 0.32528 0.0
C4387 C 0.0912 0.35546 0.3206 0.0
C4388 C 0.0913 0.36046 0.30993 0.0
C4389 C 0.08121 0.36247 0.30415 0.0
C4390 C 0.12039 0.36054 0.33316 0.0
C4391 C 0.12198 0.35081 0.33959 0.0
C4392 C 0.11046 0.36199 0.32693 0.0
C4393 C 0.10191 0.35373 0.32695 0.0
C4394 C 0.10358 0.34393 0.33327 0.0
C4395 C 0.11349 0.3425 0.33953 0.0
H4396 H 0.37971 0.68781 0.42475 0.0
H4397 H 0.34434 0.68681 0.43342 0.0
H4398 H 0.3764 0.67362 0.4102 0.0
H4399 H 0.34095 0.67272 0.41866 0.0
H4400 H 0.34504 0.63654 0.40327 0.0
H4401 H 0.34616 0.65271 0.416 0.0
H4402 H 0.36691 0.67029 0.39201 0.0
H4403 H 0.36604 0.65402 0.37942 0.0
C4404 C 0.3712 0.68461 0.42348 0.0
C4405 C 0.3623 0.68835 0.43028 0.0
C4406 C 0.36928 0.67657 0.41506 0.0
C4407 C 0.35841 0.67204 0.41329 0.0
C4408 C 0.34943 0.676 0.41989 0.0
C4409 C 0.35135 0.68412 0.42827 0.0
C4410 C 0.34978 0.64389 0.40069 0.0
C4411 C 0.35553 0.64396 0.39038 0.0
C4412 C 0.35033 0.65319 0.40793 0.0
C4413 C 0.35668 0.66275 0.40503 0.0
C4414 C 0.36205 0.663 0.39452 0.0
C4415 C 0.36146 0.65372 0.38727 0.0
H4416 H 0.13183 0.30128 0.02212 0.0
H4417 H 0.09687 0.30748 0.01379 0.0
H4418 H 0.12913 0.30985 0.04054 0.0
H4419 H 0.09417 0.31628 0.03223 0.0
H4420 H 0.09187 0.32172 0.0709 0.0
H4421 H 0.09346 0.31284 0.05234 0.0
H4422 H 0.12633 0.32825 0.04825 0.0
H4423 H 0.1248 0.33688 0.06677 0.0
C4424 C 0.12357 0.30454 0.02422 0.0
C4425 C 0.11459 0.30379 0.01648 0.0
C4426 C 0.12202 0.30949 0.03477 0.0
C4427 C 0.11146 0.3139 0.03782 0.0
C4428 C 0.10239 0.3129 0.03018 0.0
C4429 C 0.10393 0.30787 0.01962 0.0
C4430 C 0.09937 0.32327 0.06596 0.0
C4431 C 0.10827 0.32987 0.07033 0.0
C4432 C 0.10029 0.31819 0.05533 0.0
C4433 C 0.1101 0.31969 0.04886 0.0
C4434 C 0.11879 0.32665 0.05311 0.0
C4435 C 0.11791 0.33164 0.06372 0.0
H4436 H 0.97203 0.86453 0.31502 0.0
H4437 H 0.93786 0.87514 0.30815 0.0
H4438 H 0.96817 0.86511 0.33518 0.0
H4439 H 0.93401 0.87572 0.32821 0.0
H4440 H 0.92704 0.86515 0.36386 0.0
H4441 H 0.93168 0.86317 0.34402 0.0
H4442 H 0.96429 0.87856 0.35031 0.0
H4443 H 0.95982 0.88014 0.37027 0.0
C4444 C 0.96373 0.86706 0.31781 0.0
C4445 C 0.95524 0.86973 0.30997 0.0
C4446 C 0.96151 0.86738 0.32936 0.0
C4447 C 0.95075 0.87039 0.33331 0.0
C4448 C 0.94231 0.87314 0.32546 0.0
C4449 C 0.94452 0.87282 0.31394 0.0
C4450 C 0.93528 0.86792 0.36106 0.0
C4451 C 0.94304 0.87282 0.36866 0.0
C4452 C 0.93788 0.86692 0.34966 0.0
C4453 C 0.94831 0.8708 0.34556 0.0
C4454 C 0.95621 0.87542 0.3532 0.0
C4455 C 0.9536 0.87643 0.36462 0.0
H4456 H 0.37832 0.71636 0.53574 0.0
H4457 H 0.41266 0.72009 0.52424 0.0
H4458 H 0.38452 0.70253 0.5495 0.0
H4459 H 0.41892 0.70646 0.53811 0.0
H4460 H 0.42303 0.67121 0.55241 0.0
H4461 H 0.41733 0.68658 0.54037 0.0
H4462 H 0.39526 0.69897 0.56644 0.0
H4463 H 0.40092 0.6834 0.5785 0.0
C4464 C 0.38723 0.71438 0.53632 0.0
C4465 C 0.39499 0.71922 0.52885 0.0
C4466 C 0.39079 0.70647 0.54421 0.0
C4467 C 0.40221 0.70327 0.54484 0.0
C4468 C 0.41003 0.70852 0.53769 0.0
C4469 C 0.40646 0.71636 0.52977 0.0
C4470 C 0.41709 0.6773 0.55565 0.0
C4471 C 0.41248 0.67611 0.56644 0.0
C4472 C 0.41382 0.68614 0.54874 0.0
C4473 C 0.40588 0.69408 0.55244 0.0
C4474 C 0.4013 0.69294 0.56327 0.0
C4475 C 0.40455 0.68403 0.57019 0.0
H4476 H 0.56303 0.12795 0.80789 0.0
H4477 H 0.53979 0.15577 0.80919 0.0
H4478 H 0.56799 0.13115 0.82751 0.0
H4479 H 0.54446 0.15874 0.82905 0.0
H4480 H 0.57051 0.17048 0.8566 0.0
H4481 H 0.56091 0.16605 0.83894 0.0
H4482 H 0.56209 0.13069 0.84684 0.0
H4483 H 0.57216 0.1351 0.86427 0.0
C4484 C 0.55886 0.13466 0.81243 0.0
C4485 C 0.55114 0.14171 0.80694 0.0
C4486 C 0.5616 0.13641 0.82374 0.0
C4487 C 0.55666 0.14524 0.82987 0.0
C4488 C 0.54851 0.15195 0.82453 0.0
C4489 C 0.54576 0.15018 0.81319 0.0
C4490 C 0.56863 0.16177 0.85461 0.0
C4491 C 0.57226 0.15314 0.86177 0.0
C4492 C 0.563 0.15923 0.84454 0.0
C4493 C 0.56084 0.148 0.8414 0.0
C4494 C 0.56379 0.13942 0.84892 0.0
C4495 C 0.56945 0.14196 0.85898 0.0
H4496 H 0.13478 0.70551 0.49041 0.0
H4497 H 0.09887 0.70523 0.49657 0.0
H4498 H 0.13155 0.69722 0.47191 0.0
H4499 H 0.09558 0.69667 0.47804 0.0
H4500 H 0.09456 0.69111 0.43918 0.0
H4501 H 0.0965 0.69974 0.45788 0.0
H4502 H 0.12603 0.67947 0.46417 0.0
H4503 H 0.12422 0.67116 0.44549 0.0
C4504 C 0.12618 0.7036 0.48781 0.0
C4505 C 0.11709 0.70591 0.49497 0.0
C4506 C 0.12432 0.6988 0.47722 0.0
C4507 C 0.11331 0.6961 0.47354 0.0
C4508 C 0.10416 0.69869 0.48059 0.0
C4509 C 0.10603 0.70358 0.49119 0.0
C4510 C 0.10138 0.68847 0.44464 0.0
C4511 C 0.10933 0.6806 0.44086 0.0
C4512 C 0.1025 0.69338 0.45534 0.0
C4513 C 0.11154 0.69044 0.46246 0.0
C4514 C 0.11916 0.68218 0.4588 0.0
C4515 C 0.1181 0.67737 0.44812 0.0
H4516 H 0.54958 0.87926 0.70016 0.0
H4517 H 0.53883 0.8445 0.6998 0.0
H4518 H 0.55636 0.87726 0.68096 0.0
H4519 H 0.54558 0.84249 0.68054 0.0
H4520 H 0.57573 0.84004 0.6558 0.0
H4521 H 0.56442 0.84186 0.67264 0.0
H4522 H 0.55199 0.87385 0.6611 0.0
H4523 H 0.56333 0.872 0.64408 0.0
C4524 C 0.5484 0.87127 0.69588 0.0
C4525 C 0.54378 0.86201 0.70155 0.0
C4526 C 0.55228 0.87012 0.68485 0.0
C4527 C 0.55162 0.85968 0.67925 0.0
C4528 C 0.54641 0.85059 0.6847 0.0
C4529 C 0.54254 0.85174 0.69573 0.0
C4530 C 0.57036 0.84733 0.65666 0.0
C4531 C 0.57049 0.85589 0.64857 0.0
C4532 C 0.56386 0.84838 0.66635 0.0
C4533 C 0.55732 0.85803 0.66825 0.0
C4534 C 0.55706 0.86639 0.65996 0.0
C4535 C 0.56356 0.86532 0.65022 0.0
H4536 H 0.40342 0.32478 1.00407 0.0
H4537 H 0.38808 0.29941 0.98264 0.0
H4538 H 0.41049 0.3345 0.98762 0.0
H4539 H 0.39552 0.30898 0.96609 0.0
H4540 H 0.39767 0.33853 0.94044 0.0
H4541 H 0.392 0.32648 0.95596 0.0
H4542 H 0.42398 0.33302 0.97252 0.0
H4543 H 0.42944 0.34542 0.95729 0.0
C4544 C 0.4016 0.32125 0.99583 0.0
C4545 C 0.39509 0.31138 0.99466 0.0
C4546 C 0.40578 0.32674 0.98639 0.0
C4547 C 0.40359 0.32251 0.97552 0.0
C4548 C 0.39728 0.31251 0.97434 0.0
C4549 C 0.3931 0.30697 0.98382 0.0
C4550 C 0.4035 0.33737 0.94738 0.0
C4551 C 0.41397 0.34303 0.94765 0.0
C4552 C 0.4003 0.33036 0.95622 0.0
C4553 C 0.40749 0.32886 0.96553 0.0
C4554 C 0.41816 0.33413 0.96555 0.0
C4555 C 0.42136 0.34113 0.95674 0.0
H4556 H 0.95545 0.12551 0.19717 0.0
H4557 H 0.98204 0.14826 0.18708 0.0
H4558 H 0.94759 0.12585 0.17818 0.0
H4559 H 0.9743 0.14839 0.16797 0.0
H4560 H 0.94952 0.15482 0.13843 0.0
H4561 H 0.95732 0.15504 0.15754 0.0
H4562 H 0.95282 0.11905 0.15933 0.0
H4563 H 0.94481 0.11886 0.14041 0.0
C4564 C 0.95959 0.13063 0.1909 0.0
C4565 C 0.96935 0.13688 0.19363 0.0
C4566 C 0.95515 0.13073 0.18 0.0
C4567 C 0.96034 0.13713 0.17157 0.0
C4568 C 0.97006 0.14345 0.1743 0.0
C4569 C 0.97455 0.14329 0.18521 0.0
C4570 C 0.95014 0.14698 0.14295 0.0
C4571 C 0.94656 0.13683 0.13791 0.0
C4572 C 0.9547 0.14709 0.15384 0.0
C4573 C 0.95567 0.13706 0.15994 0.0
C4574 C 0.95208 0.12692 0.15489 0.0
C4575 C 0.9476 0.12681 0.144 0.0
H4576 H 0.04165 0.11835 0.28341 0.0
H4577 H 0.02096 0.11438 0.31292 0.0
H4578 H 0.0576 0.10984 0.29341 0.0
H4579 H 0.03683 0.10618 0.32291 0.0
H4580 H 0.06314 0.08234 0.33486 0.0
H4581 H 0.04812 0.08902 0.32263 0.0
H4582 H 0.07051 0.11451 0.3096 0.0
H4583 H 0.08575 0.10756 0.32161 0.0
C4584 C 0.04051 0.11564 0.292 0.0
C4585 C 0.03007 0.1171 0.2974 0.0
C4586 C 0.04964 0.11084 0.29774 0.0
C4587 C 0.04846 0.1073 0.30893 0.0
C4588 C 0.03799 0.10868 0.31425 0.0
C4589 C 0.02892 0.11352 0.30857 0.0
C4590 C 0.06498 0.08919 0.3292 0.0
C4591 C 0.07566 0.09444 0.32925 0.0
C4592 C 0.05631 0.09311 0.32228 0.0
C4593 C 0.05808 0.10238 0.31525 0.0
C4594 C 0.06889 0.10733 0.3149 0.0
C4595 C 0.07759 0.10342 0.32186 0.0
H4596 H 0.15246 0.80399 0.56095 0.0
H4597 H 0.11941 0.81353 0.5489 0.0
H4598 H 0.15478 0.82234 0.56986 0.0
H4599 H 0.12189 0.83212 0.55751 0.0
H4600 H 0.12449 0.85524 0.58942 0.0
H4601 H 0.12219 0.83922 0.57675 0.0
H4602 H 0.15716 0.84232 0.56692 0.0
H4603 H 0.15947 0.85835 0.57969 0.0
C4604 C 0.14574 0.81007 0.5601 0.0
C4605 C 0.1357 0.80726 0.55434 0.0
C4606 C 0.14712 0.82065 0.56509 0.0
C4607 C 0.1385 0.8287 0.56443 0.0
C4608 C 0.12863 0.82606 0.55827 0.0
C4609 C 0.12726 0.81545 0.55325 0.0
C4610 C 0.13162 0.85268 0.58436 0.0
C4611 C 0.14219 0.85801 0.58564 0.0
C4612 C 0.1303 0.84349 0.57708 0.0
C4613 C 0.13952 0.83941 0.57089 0.0
C4614 C 0.14994 0.84512 0.57173 0.0
C4615 C 0.15127 0.8543 0.57903 0.0
H4616 H 0.48297 0.90546 0.80286 0.0
H4617 H 0.4562 0.89118 0.78232 0.0
H4618 H 0.46915 0.91141 0.81673 0.0
H4619 H 0.44232 0.89724 0.79621 0.0
H4620 H 0.42012 0.91863 0.82004 0.0
H4621 H 0.43367 0.91414 0.8052 0.0
H4622 H 0.45696 0.90167 0.8302 0.0
H4623 H 0.44362 0.90639 0.84496 0.0
C4624 C 0.47413 0.90357 0.80131 0.0
C4625 C 0.47071 0.89772 0.79154 0.0
C4626 C 0.46621 0.90699 0.80926 0.0
C4627 C 0.45466 0.90469 0.80762 0.0
C4628 C 0.45116 0.89921 0.79767 0.0
C4629 C 0.45911 0.89574 0.78971 0.0
C4630 C 0.42818 0.91501 0.82234 0.0
C4631 C 0.43079 0.91283 0.83367 0.0
C4632 C 0.43589 0.91235 0.81385 0.0
C4633 C 0.44639 0.90758 0.81653 0.0
C4634 C 0.44899 0.90546 0.82786 0.0
C4635 C 0.44129 0.90804 0.83631 0.0
H4636 H 0.37951 0.21065 0.06436 0.0
H4637 H 0.3684 0.19947 0.03144 0.0
H4638 H 0.37947 0.19129 0.07082 0.0
H4639 H 0.36835 0.18004 0.03792 0.0
H4640 H 0.38316 0.14642 0.0503 0.0
H4641 H 0.38173 0.16565 0.04355 0.0
H4642 H 0.36685 0.17576 0.07511 0.0
H4643 H 0.36869 0.15661 0.08202 0.0
C4644 C 0.37691 0.20407 0.05854 0.0
C4645 C 0.37394 0.20662 0.04739 0.0
C4646 C 0.37688 0.19296 0.06224 0.0
C4647 C 0.37388 0.1841 0.0549 0.0
C4648 C 0.37084 0.18665 0.04375 0.0
C4649 C 0.37088 0.19778 0.04004 0.0
C4650 C 0.37961 0.15275 0.05581 0.0
C4651 C 0.3761 0.14998 0.06673 0.0
C4652 C 0.37867 0.16376 0.05189 0.0
C4653 C 0.37422 0.17226 0.0588 0.0
C4654 C 0.37046 0.16944 0.06962 0.0
C4655 C 0.37138 0.15843 0.07354 0.0
H4656 H 0.02824 0.90165 0.21498 0.0
H4657 H 0.0498 0.88395 0.23822 0.0
H4658 H 0.04433 0.90479 0.20265 0.0
H4659 H 0.0659 0.88714 0.22592 0.0
H4660 H 0.09441 0.9019 0.20517 0.0
H4661 H 0.07844 0.90161 0.21809 0.0
H4662 H 0.05603 0.89304 0.19048 0.0
H4663 H 0.07192 0.89365 0.17754 0.0
C4664 C 0.03641 0.89843 0.21746 0.0
C4665 C 0.03771 0.89246 0.22755 0.0
C4666 C 0.04563 0.90024 0.2104 0.0
C4667 C 0.05638 0.89615 0.21326 0.0
C4668 C 0.05776 0.89051 0.22353 0.0
C4669 C 0.04853 0.88868 0.23059 0.0
C4670 C 0.08604 0.90016 0.20183 0.0
C4671 C 0.08443 0.89777 0.19033 0.0
C4672 C 0.07691 0.89987 0.20925 0.0
C4673 C 0.06598 0.89725 0.20533 0.0
C4674 C 0.06433 0.89519 0.19377 0.0
C4675 C 0.07345 0.89543 0.18637 0.0
H4676 H 0.35666 0.80727 0.46476 0.0
H4677 H 0.37334 0.79927 0.43352 0.0
H4678 H 0.35889 0.82736 0.46085 0.0
H4679 H 0.37537 0.81923 0.42955 0.0
H4680 H 0.38914 0.85501 0.43303 0.0
H4681 H 0.38642 0.83522 0.43743 0.0
H4682 H 0.35197 0.8419 0.44708 0.0
H4683 H 0.35477 0.86184 0.44284 0.0
C4684 C 0.36078 0.8098 0.45707 0.0
C4685 C 0.3648 0.80169 0.44944 0.0
C4686 C 0.36197 0.82128 0.45479 0.0
C4687 C 0.36732 0.82486 0.4449 0.0
C4688 C 0.3713 0.81674 0.43728 0.0
C4689 C 0.37003 0.8053 0.43951 0.0
C4690 C 0.38102 0.85229 0.43619 0.0
C4691 C 0.37218 0.85999 0.43762 0.0
C4692 C 0.37943 0.84093 0.43861 0.0
C4693 C 0.36898 0.837 0.44257 0.0
C4694 C 0.36014 0.8447 0.44411 0.0
C4695 C 0.36171 0.85608 0.44159 0.0
H4696 H 0.46436 0.12629 0.7208 0.0
H4697 H 0.48046 0.09405 0.71688 0.0
H4698 H 0.45001 0.12074 0.70696 0.0
H4699 H 0.46603 0.08837 0.70325 0.0
H4700 H 0.44806 0.08796 0.66924 0.0
H4701 H 0.46119 0.09279 0.68432 0.0
H4702 H 0.43415 0.10859 0.70277 0.0
H4703 H 0.42099 0.10386 0.6875 0.0
C4704 C 0.4647 0.11794 0.71712 0.0
C4705 C 0.47358 0.11064 0.71983 0.0
C4706 C 0.45648 0.11474 0.7092 0.0
C4707 C 0.45692 0.10414 0.70389 0.0
C4708 C 0.46557 0.09669 0.70697 0.0
C4709 C 0.47382 0.09992 0.71481 0.0
C4710 C 0.44488 0.09234 0.67657 0.0
C4711 C 0.43347 0.09549 0.67719 0.0
C4712 C 0.45241 0.0951 0.68525 0.0
C4713 C 0.44873 0.10103 0.69481 0.0
C4714 C 0.4373 0.10413 0.69547 0.0
C4715 C 0.42976 0.10141 0.68674 0.0
H4716 H 0.11337 0.20407 0.94093 0.0
H4717 H 0.13915 0.19832 0.96605 0.0
H4718 H 0.11762 0.18604 0.93218 0.0
H4719 H 0.14316 0.18005 0.9575 0.0
H4720 H 0.15762 0.15818 0.92816 0.0
H4721 H 0.15211 0.17393 0.9401 0.0
H4722 H 0.11693 0.16576 0.93422 0.0
H4723 H 0.12246 0.15026 0.92193 0.0
C4724 C 0.11987 0.19889 0.94466 0.0
C4725 C 0.12601 0.20268 0.95411 0.0
C4726 C 0.12221 0.18848 0.93972 0.0
C4727 C 0.13076 0.1816 0.94412 0.0
C4728 C 0.13661 0.1852 0.95384 0.0
C4729 C 0.13424 0.19562 0.9588 0.0
C4730 C 0.14871 0.1597 0.92948 0.0
C4731 C 0.14049 0.15305 0.92399 0.0
C4732 C 0.14554 0.16866 0.93643 0.0
C4733 C 0.13407 0.17117 0.93804 0.0
C4734 C 0.12584 0.16415 0.93302 0.0
C4735 C 0.12901 0.15518 0.92608 0.0
H4736 H 0.30782 0.03981 0.13554 0.0
H4737 H 0.3104 0.02474 0.1025 0.0
H4738 H 0.31883 0.05596 0.12921 0.0
H4739 H 0.32145 0.04081 0.09619 0.0
H4740 H 0.33534 0.07475 0.08588 0.0
H4741 H 0.32156 0.06077 0.09207 0.0
H4742 H 0.3384 0.05919 0.12434 0.0
H4743 H 0.35209 0.07312 0.11819 0.0
C4744 C 0.31069 0.03998 0.12691 0.0
C4745 C 0.30829 0.03096 0.11954 0.0
C4746 C 0.31701 0.04922 0.12328 0.0
C4747 C 0.32111 0.04965 0.11222 0.0
C4748 C 0.31831 0.04083 0.10473 0.0
C4749 C 0.31197 0.03161 0.10835 0.0
C4750 C 0.33607 0.07143 0.09431 0.0
C4751 C 0.34483 0.07504 0.10154 0.0
C4752 C 0.32817 0.06342 0.09785 0.0
C4753 C 0.32887 0.05884 0.1087 0.0
C4754 C 0.33747 0.06267 0.11601 0.0
C4755 C 0.34535 0.07067 0.11247 0.0
H4756 H 0.82705 0.49446 0.89237 0.0
H4757 H 0.79995 0.47291 0.88046 0.0
H4758 H 0.83658 0.47832 0.90036 0.0
H4759 H 0.80943 0.45665 0.88875 0.0
H4760 H 0.83876 0.43026 0.89205 0.0
H4761 H 0.8269 0.44558 0.88532 0.0
H4762 H 0.83465 0.46467 0.91546 0.0
H4763 H 0.84677 0.44959 0.92199 0.0
C4764 C 0.82312 0.48625 0.89148 0.0
C4765 C 0.8128 0.48494 0.8857 0.0
C4766 C 0.82852 0.47701 0.89618 0.0
C4767 C 0.82375 0.4662 0.89523 0.0
C4768 C 0.81334 0.46487 0.88957 0.0
C4769 C 0.80788 0.47417 0.8849 0.0
C4770 C 0.83788 0.43771 0.89725 0.0
C4771 C 0.84378 0.43872 0.90752 0.0
C4772 C 0.831 0.44644 0.89345 0.0
C4773 C 0.82991 0.45638 0.89982 0.0
C4774 C 0.83543 0.45718 0.91029 0.0
C4775 C 0.84228 0.44847 0.9141 0.0
H4776 H 0.79586 0.56984 0.16482 0.0
H4777 H 0.79698 0.55475 0.1317 0.0
H4778 H 0.81626 0.57289 0.16431 0.0
H4779 H 0.81735 0.55784 0.13116 0.0
H4780 H 0.85517 0.55629 0.13759 0.0
H4781 H 0.83509 0.55197 0.13948 0.0
H4782 H 0.82972 0.58467 0.15451 0.0
H4783 H 0.84978 0.58896 0.15266 0.0
C4784 C 0.80046 0.56721 0.15741 0.0
C4785 C 0.79479 0.56208 0.14828 0.0
C4786 C 0.81215 0.56896 0.15712 0.0
C4787 C 0.81844 0.56563 0.14769 0.0
C4788 C 0.81279 0.56034 0.13863 0.0
C4789 C 0.80111 0.55858 0.13893 0.0
C4790 C 0.84969 0.56255 0.14129 0.0
C4791 C 0.85407 0.57298 0.14495 0.0
C4792 C 0.83819 0.56008 0.14237 0.0
C4793 C 0.83078 0.56798 0.14711 0.0
C4794 C 0.83521 0.57832 0.15097 0.0
C4795 C 0.84671 0.58078 0.14991 0.0
H4796 H 0.72221 0.54208 0.37734 0.0
H4797 H 0.69774 0.52124 0.39432 0.0
H4798 H 0.71041 0.55849 0.38065 0.0
H4799 H 0.6859 0.53765 0.39753 0.0
H4800 H 0.66213 0.56659 0.38666 0.0
H4801 H 0.67436 0.55017 0.38583 0.0
H4802 H 0.70297 0.57087 0.39553 0.0
H4803 H 0.69079 0.58735 0.39606 0.0
C4804 C 0.7144 0.54102 0.38193 0.0
C4805 C 0.71089 0.53032 0.3855 0.0
C4806 C 0.70764 0.55043 0.38383 0.0
C4807 C 0.69719 0.54936 0.38931 0.0
C4808 C 0.69381 0.53872 0.39312 0.0
C4809 C 0.70059 0.52932 0.39127 0.0
C4810 C 0.67102 0.56762 0.38865 0.0
C4811 C 0.6755 0.57827 0.39138 0.0
C4812 C 0.67801 0.5582 0.38828 0.0
C4813 C 0.68965 0.55923 0.39058 0.0
C4814 C 0.69406 0.56983 0.3936 0.0
C4815 C 0.68706 0.57924 0.39403 0.0
H4816 H 0.20122 0.96956 0.13185 0.0
H4817 H 0.21397 0.95712 0.16347 0.0
H4818 H 0.18331 0.95979 0.135 0.0
H4819 H 0.19627 0.94706 0.16643 0.0
H4820 H 0.16031 0.93676 0.17314 0.0
H4821 H 0.17629 0.94947 0.17028 0.0
H4822 H 0.17682 0.94028 0.13508 0.0
H4823 H 0.16087 0.92761 0.13792 0.0
C4824 C 0.20016 0.96483 0.13952 0.0
C4825 C 0.20904 0.96406 0.14738 0.0
C4826 C 0.18995 0.95914 0.14127 0.0
C4827 C 0.18837 0.95261 0.15095 0.0
C4828 C 0.19715 0.95211 0.15895 0.0
C4829 C 0.20735 0.95776 0.15718 0.0
C4830 C 0.16381 0.9375 0.16478 0.0
C4831 C 0.15936 0.93111 0.15577 0.0
C4832 C 0.17297 0.94477 0.16314 0.0
C4833 C 0.17789 0.94583 0.15247 0.0
C4834 C 0.17315 0.93978 0.14338 0.0
C4835 C 0.16399 0.93251 0.14501 0.0
H4836 H 0.21981 0.97407 0.61657 0.0
H4837 H 0.19999 0.98337 0.64552 0.0
H4838 H 0.20731 0.95794 0.61316 0.0
H4839 H 0.18759 0.96729 0.64219 0.0
H4840 H 0.16091 0.94436 0.62735 0.0
H4841 H 0.17334 0.9607 0.62908 0.0
H4842 H 0.20207 0.9399 0.62116 0.0
H4843 H 0.18959 0.92357 0.61932 0.0
C4844 C 0.21284 0.97262 0.62225 0.0
C4845 C 0.21085 0.98003 0.63127 0.0
C4846 C 0.20568 0.96339 0.6203 0.0
C4847 C 0.19639 0.96138 0.62734 0.0
C4848 C 0.19451 0.96873 0.63644 0.0
C4849 C 0.20163 0.97794 0.63837 0.0
C4850 C 0.16987 0.94329 0.62594 0.0
C4851 C 0.17427 0.93267 0.62326 0.0
C4852 C 0.17701 0.95264 0.62696 0.0
C4853 C 0.18873 0.95159 0.62538 0.0
C4854 C 0.19308 0.94103 0.62233 0.0
C4855 C 0.18593 0.93167 0.62127 0.0
H4856 H 0.79192 0.43198 0.36958 0.0
H4857 H 0.79672 0.46508 0.35562 0.0
H4858 H 0.81224 0.42903 0.36936 0.0
H4859 H 0.81713 0.46211 0.35541 0.0
H4860 H 0.85344 0.45672 0.36912 0.0
H4861 H 0.83314 0.46014 0.36834 0.0
H4862 H 0.82758 0.42623 0.3562 0.0
H4863 H 0.84779 0.42267 0.35739 0.0
C4864 C 0.79731 0.43859 0.36635 0.0
C4865 C 0.79268 0.44875 0.36256 0.0
C4866 C 0.80897 0.43689 0.36622 0.0
C4867 C 0.81631 0.44531 0.36231 0.0
C4868 C 0.81171 0.4555 0.35858 0.0
C4869 C 0.80002 0.4572 0.35871 0.0
C4870 C 0.84787 0.44999 0.3663 0.0
C4871 C 0.85224 0.4394 0.36336 0.0
C4872 C 0.83625 0.45199 0.36575 0.0
C4873 C 0.82873 0.44344 0.36226 0.0
C4874 C 0.83312 0.43295 0.35906 0.0
C4875 C 0.84473 0.43095 0.35961 0.0
H4876 H 0.71423 0.55966 0.86903 0.0
H4877 H 0.70163 0.52881 0.85406 0.0
H4878 H 0.69518 0.56728 0.86898 0.0
H4879 H 0.68246 0.53632 0.85436 0.0
H4880 H 0.65103 0.55769 0.84725 0.0
H4881 H 0.67042 0.55083 0.84582 0.0
H4882 H 0.67767 0.56392 0.87909 0.0
H4883 H 0.65848 0.57104 0.88037 0.0
C4884 C 0.70741 0.55453 0.86565 0.0
C4885 C 0.70946 0.54362 0.86155 0.0
C4886 C 0.69646 0.55886 0.86573 0.0
C4887 C 0.68729 0.55239 0.86171 0.0
C4888 C 0.68936 0.54155 0.85743 0.0
C4889 C 0.70032 0.5372 0.85738 0.0
C4890 C 0.65682 0.5592 0.85419 0.0
C4891 C 0.65321 0.56487 0.86393 0.0
C4892 C 0.66788 0.55518 0.85342 0.0
C4893 C 0.67559 0.55682 0.86235 0.0
C4894 C 0.672 0.56262 0.87202 0.0
C4895 C 0.66095 0.56658 0.8728 0.0
H4896 H 0.8769 0.68739 0.96636 0.0
H4897 H 0.90559 0.70982 0.96384 0.0
H4898 H 0.87942 0.68162 0.9469 0.0
H4899 H 0.90789 0.70433 0.94413 0.0
H4900 H 0.91724 0.67787 0.91622 0.0
H4901 H 0.91415 0.68761 0.93406 0.0
H4902 H 0.87817 0.68742 0.92761 0.0
H4903 H 0.88128 0.67752 0.90987 0.0
C4904 C 0.88369 0.69117 0.9616 0.0
C4905 C 0.89112 0.69897 0.96668 0.0
C4906 C 0.88505 0.68797 0.95038 0.0
C4907 C 0.89387 0.6925 0.94393 0.0
C4908 C 0.90108 0.7006 0.94889 0.0
C4909 C 0.8997 0.70382 0.96015 0.0
C4910 C 0.9087 0.68015 0.9185 0.0
C4911 C 0.89949 0.67682 0.91173 0.0
C4912 C 0.90692 0.68575 0.92873 0.0
C4913 C 0.89589 0.68816 0.93235 0.0
C4914 C 0.88675 0.68546 0.9252 0.0
C4915 C 0.88853 0.67982 0.91502 0.0
H4916 H 0.03451 0.15645 0.72372 0.0
H4917 H 0.05724 0.12829 0.72621 0.0
H4918 H 0.04295 0.16149 0.70568 0.0
H4919 H 0.06565 0.13334 0.70833 0.0
H4920 H 0.08648 0.15127 0.68278 0.0
H4921 H 0.0776 0.14841 0.70093 0.0
H4922 H 0.04484 0.15442 0.68604 0.0
H4923 H 0.05379 0.15768 0.66787 0.0
C4924 C 0.04122 0.15128 0.72038 0.0
C4925 C 0.04529 0.14203 0.72645 0.0
C4926 C 0.04607 0.15419 0.71007 0.0
C4927 C 0.05508 0.14791 0.70567 0.0
C4928 C 0.05892 0.13852 0.71163 0.0
C4929 C 0.05408 0.13561 0.72187 0.0
C4930 C 0.07741 0.15227 0.68341 0.0
C4931 C 0.07084 0.15467 0.67385 0.0
C4932 C 0.0723 0.15047 0.69379 0.0
C4933 C 0.0605 0.15101 0.69488 0.0
C4934 C 0.05395 0.15395 0.68547 0.0
C4935 C 0.05907 0.15573 0.67505 0.0
H4936 H 0.59299 0.29977 0.46704 0.0
H4937 H 0.62529 0.28684 0.45647 0.0
H4938 H 0.59054 0.30869 0.44884 0.0
H4939 H 0.62268 0.29548 0.43807 0.0
H4940 H 0.62058 0.32686 0.41485 0.0
H4941 H 0.62281 0.31474 0.43113 0.0
H4942 H 0.58755 0.30534 0.42879 0.0
H4943 H 0.58524 0.31778 0.41271 0.0
C4944 C 0.59953 0.29875 0.46078 0.0
C4945 C 0.60938 0.29269 0.46324 0.0
C4946 C 0.59806 0.30375 0.45029 0.0
C4947 C 0.60643 0.30282 0.442 0.0
C4948 C 0.61613 0.29645 0.44432 0.0
C4949 C 0.61758 0.29141 0.45482 0.0
C4950 C 0.61332 0.32215 0.41777 0.0
C4951 C 0.60271 0.32338 0.41257 0.0
C4952 C 0.61462 0.31511 0.42703 0.0
C4953 C 0.60533 0.30913 0.43131 0.0
C4954 C 0.59483 0.30995 0.42578 0.0
C4955 C 0.59354 0.31698 0.41649 0.0
H4956 H 0.44152 0.88244 0.23604 0.0
H4957 H 0.46609 0.85628 0.23064 0.0
H4958 H 0.4337 0.87899 0.21738 0.0
H4959 H 0.45819 0.85275 0.21189 0.0
H4960 H 0.44914 0.86023 0.17456 0.0
H4961 H 0.4568 0.86159 0.1936 0.0
H4962 H 0.42302 0.86532 0.20663 0.0
H4963 H 0.41542 0.8645 0.18759 0.0
C4964 C 0.44516 0.87584 0.23091 0.0
C4965 C 0.4544 0.8696 0.23485 0.0
C4966 C 0.44066 0.87384 0.22021 0.0
C4967 C 0.44525 0.86553 0.21315 0.0
C4968 C 0.45451 0.85929 0.21707 0.0
C4969 C 0.45904 0.86131 0.2278 0.0
C4970 C 0.44335 0.86132 0.18149 0.0
C4971 C 0.43167 0.86236 0.17951 0.0
C4972 C 0.44773 0.86198 0.19242 0.0
C4973 C 0.44054 0.86369 0.20164 0.0
C4974 C 0.42882 0.86421 0.1997 0.0
C4975 C 0.42444 0.86357 0.18878 0.0
H4976 H 0.91702 0.31712 0.54165 0.0
H4977 H 0.88381 0.30318 0.54757 0.0
H4978 H 0.9182 0.32322 0.56116 0.0
H4979 H 0.88523 0.30878 0.56731 0.0
H4980 H 0.885 0.337 0.59459 0.0
H4981 H 0.88422 0.3263 0.57712 0.0
H4982 H 0.91971 0.31859 0.58055 0.0
H4983 H 0.92061 0.32985 0.59776 0.0
C4984 C 0.91003 0.31521 0.54717 0.0
C4985 C 0.90024 0.30984 0.54299 0.0
C4986 C 0.91077 0.31857 0.55843 0.0
C4987 C 0.90177 0.31658 0.56583 0.0
C4988 C 0.89224 0.31061 0.56181 0.0
C4989 C 0.89148 0.30729 0.55051 0.0
C4990 C 0.89263 0.33298 0.59165 0.0
C4991 C 0.90291 0.33446 0.59748 0.0
C4992 C 0.89215 0.3267 0.58169 0.0
C4993 C 0.90193 0.32166 0.57732 0.0
C4994 C 0.91206 0.32253 0.58355 0.0
C4995 C 0.91255 0.32887 0.59351 0.0
H4996 H 0.47131 0.12723 0.28815 0.0
H4997 H 0.47375 0.16315 0.2837 0.0
H4998 H 0.45874 0.1301 0.3041 0.0
H4999 H 0.46108 0.16602 0.29971 0.0
H5000 H 0.44856 0.16422 0.33737 0.0
H5001 H 0.46113 0.16259 0.32112 0.0
H5002 H 0.43885 0.13754 0.30647 0.0
H5003 H 0.42638 0.13911 0.32265 0.0
C5004 C 0.46923 0.13574 0.29065 0.0
C5005 C 0.47352 0.14497 0.2847 0.0
C5006 C 0.46195 0.13738 0.29971 0.0
C5007 C 0.4589 0.14828 0.30309 0.0
C5008 C 0.46334 0.15753 0.29729 0.0
C5009 C 0.47052 0.15589 0.28811 0.0
C5010 C 0.44634 0.15844 0.33063 0.0
C5011 C 0.43649 0.15181 0.33127 0.0
C5012 C 0.45348 0.15755 0.32133 0.0
C5013 C 0.45099 0.14988 0.31259 0.0
C5014 C 0.44103 0.14344 0.31314 0.0
C5015 C 0.43384 0.14442 0.32234 0.0
H5016 H 0.62747 0.69072 0.03989 0.0
H5017 H 0.60032 0.7147 0.0423 0.0
H5018 H 0.62517 0.68612 0.05959 0.0
H5019 H 0.59829 0.7104 0.06227 0.0
H5020 H 0.5876 0.68522 0.09063 0.0
H5021 H 0.59111 0.69463 0.07284 0.0
H5022 H 0.62709 0.69223 0.07869 0.0
H5023 H 0.62352 0.68257 0.09635 0.0
C5024 C 0.62109 0.69512 0.04468 0.0
C5025 C 0.61397 0.70296 0.03949 0.0
C5026 C 0.61987 0.69259 0.05604 0.0
C5027 C 0.61152 0.69787 0.06255 0.0
C5028 C 0.60472 0.70609 0.05748 0.0
C5029 C 0.60595 0.70863 0.04607 0.0
C5030 C 0.59625 0.68698 0.08824 0.0
C5031 C 0.60529 0.68305 0.0948 0.0
C5032 C 0.59827 0.69239 0.07805 0.0
C5033 C 0.60939 0.69404 0.07424 0.0
C5034 C 0.61843 0.69085 0.08124 0.0
C5035 C 0.6164 0.68537 0.09138 0.0
H5036 H 0.05878 0.87612 0.77838 0.0
H5037 H 0.03303 0.85051 0.78176 0.0
H5038 H 0.06677 0.87089 0.79645 0.0
H5039 H 0.0411 0.8452 0.79993 0.0
H5040 H 0.05151 0.84944 0.83767 0.0
H5041 H 0.04341 0.85247 0.81903 0.0
H5042 H 0.077 0.85587 0.80537 0.0
H5043 H 0.08505 0.85337 0.82404 0.0
C5044 C 0.0549 0.86927 0.78293 0.0
C5045 C 0.04531 0.86369 0.77859 0.0
C5046 C 0.05951 0.86624 0.79329 0.0
C5047 C 0.05465 0.85754 0.7996 0.0
C5048 C 0.04499 0.85199 0.79532 0.0
C5049 C 0.04036 0.85504 0.78493 0.0
C5050 C 0.05716 0.85079 0.83067 0.0
C5051 C 0.06893 0.85127 0.83239 0.0
C5052 C 0.05252 0.85242 0.81997 0.0
C5053 C 0.05955 0.85455 0.81073 0.0
C5054 C 0.07133 0.85446 0.81235 0.0
C5055 C 0.07596 0.85286 0.82304 0.0
H5056 H 0.93834 0.86841 0.72442 0.0
H5057 H 0.94477 0.90295 0.71544 0.0
H5058 H 0.91911 0.8699 0.71724 0.0
H5059 H 0.92545 0.90451 0.70835 0.0
H5060 H 0.89462 0.8985 0.68511 0.0
H5061 H 0.91366 0.89791 0.69302 0.0
H5062 H 0.90124 0.87853 0.72098 0.0
H5063 H 0.88237 0.87863 0.7128 0.0
C5064 C 0.93559 0.87637 0.72105 0.0
C5065 C 0.94308 0.88556 0.72051 0.0
C5066 C 0.92455 0.87724 0.71694 0.0
C5067 C 0.9207 0.88734 0.71223 0.0
C5068 C 0.92817 0.89657 0.71177 0.0
C5069 C 0.93924 0.89568 0.71585 0.0
C5070 C 0.89597 0.89407 0.69292 0.0
C5071 C 0.88695 0.88857 0.69828 0.0
C5072 C 0.90686 0.89384 0.69753 0.0
C5073 C 0.90901 0.88813 0.70762 0.0
C5074 C 0.89994 0.88287 0.71312 0.0
C5075 C 0.88906 0.88307 0.7085 0.0
H5076 H 0.87445 0.2385 0.44228 0.0
H5077 H 0.86761 0.21743 0.47091 0.0
H5078 H 0.87157 0.22249 0.42976 0.0
H5079 H 0.86536 0.20124 0.4584 0.0
H5080 H 0.85312 0.17581 0.4322 0.0
H5081 H 0.85358 0.19261 0.44416 0.0
H5082 H 0.88137 0.20577 0.42475 0.0
H5083 H 0.88078 0.18914 0.41277 0.0
C5084 C 0.87225 0.23048 0.44592 0.0
C5085 C 0.87127 0.22929 0.45763 0.0
C5086 C 0.87075 0.22124 0.43873 0.0
C5087 C 0.86832 0.21053 0.44306 0.0
C5088 C 0.86713 0.20937 0.45476 0.0
C5089 C 0.86857 0.21864 0.46195 0.0
C5090 C 0.85928 0.18233 0.43048 0.0
C5091 C 0.86688 0.18116 0.42151 0.0
C5092 C 0.85958 0.19194 0.43735 0.0
C5093 C 0.86752 0.20056 0.43544 0.0
C5094 C 0.875 0.19943 0.42636 0.0
C5095 C 0.87466 0.18987 0.41947 0.0
H5096 H 0.55829 0.10306 0.20419 0.0
H5097 H 0.55898 0.13937 0.20423 0.0
H5098 H 0.57849 0.10279 0.19992 0.0
H5099 H 0.57916 0.13909 0.20015 0.0
H5100 H 0.61084 0.13396 0.17899 0.0
H5101 H 0.59083 0.13351 0.18369 0.0
H5102 H 0.59731 0.1081 0.20861 0.0
H5103 H 0.6174 0.10843 0.20376 0.0
C5104 C 0.56277 0.11097 0.20333 0.0
C5105 C 0.55705 0.12124 0.20452 0.0
C5106 C 0.57434 0.11082 0.20097 0.0
C5107 C 0.58038 0.12092 0.19964 0.0
C5108 C 0.57469 0.13117 0.20101 0.0
C5109 C 0.56317 0.13133 0.20346 0.0
C5110 C 0.60799 0.12817 0.18536 0.0
C5111 C 0.61569 0.1212 0.19098 0.0
C5112 C 0.59655 0.12801 0.18815 0.0
C5113 C 0.59252 0.12083 0.19657 0.0
C5114 C 0.60017 0.11369 0.20205 0.0
C5115 C 0.61166 0.11392 0.19933 0.0
H5116 H 0.63197 0.79413 0.96164 0.0
H5117 H 0.64797 0.76884 0.94103 0.0
H5118 H 0.63838 0.80869 0.94868 0.0
H5119 H 0.65399 0.78324 0.92795 0.0
H5120 H 0.67193 0.81206 0.91149 0.0
H5121 H 0.66688 0.79896 0.92631 0.0
H5122 H 0.63434 0.8149 0.9295 0.0
H5123 H 0.63944 0.82807 0.91471 0.0
C5124 C 0.6369 0.79169 0.95438 0.0
C5125 C 0.63941 0.78032 0.95233 0.0
C5126 C 0.64048 0.80001 0.94691 0.0
C5127 C 0.6467 0.79713 0.93727 0.0
C5128 C 0.64934 0.78578 0.93535 0.0
C5129 C 0.64576 0.77749 0.94278 0.0
C5130 C 0.6637 0.81278 0.91537 0.0
C5131 C 0.65605 0.82104 0.91186 0.0
C5132 C 0.6608 0.80527 0.92386 0.0
C5133 C 0.65016 0.80581 0.92902 0.0
C5134 C 0.64265 0.81432 0.92578 0.0
C5135 C 0.64557 0.82187 0.9173 0.0
H5136 H 0.93981 0.10886 0.77992 0.0
H5137 H 0.94774 0.13538 0.80374 0.0
H5138 H 0.92147 0.10607 0.78894 0.0
H5139 H 0.92965 0.13243 0.81289 0.0
H5140 H 0.89359 0.13065 0.82308 0.0
H5141 H 0.90931 0.13431 0.81041 0.0
H5142 H 0.91492 0.0986 0.80705 0.0
H5143 H 0.89918 0.09495 0.81968 0.0
C5144 C 0.93759 0.11417 0.787 0.0
C5145 C 0.94525 0.12229 0.79118 0.0
C5146 C 0.92713 0.11251 0.79222 0.0
C5147 C 0.9241 0.11902 0.80164 0.0
C5148 C 0.93164 0.12736 0.80557 0.0
C5149 C 0.94208 0.12896 0.80041 0.0
C5150 C 0.8981 0.12358 0.81952 0.0
C5151 C 0.89523 0.11252 0.82248 0.0
C5152 C 0.90712 0.12568 0.81229 0.0
C5153 C 0.91347 0.11676 0.80785 0.0
C5154 C 0.91015 0.10566 0.81026 0.0
C5155 C 0.90112 0.10357 0.8175 0.0
H5156 H 0.62025 0.22806 0.57172 0.0
H5157 H 0.65331 0.23436 0.55782 0.0
H5158 H 0.62774 0.21222 0.58218 0.0
H5159 H 0.66073 0.21821 0.56794 0.0
H5160 H 0.67197 0.20072 0.60088 0.0
H5161 H 0.66492 0.21441 0.58749 0.0
H5162 H 0.63554 0.1935 0.58119 0.0
H5163 H 0.64239 0.18001 0.59495 0.0
C5164 C 0.62909 0.22597 0.57079 0.0
C5165 C 0.6362 0.23255 0.56403 0.0
C5166 C 0.63337 0.2168 0.57668 0.0
C5167 C 0.64486 0.21398 0.57596 0.0
C5168 C 0.65187 0.22025 0.5688 0.0
C5169 C 0.64758 0.22943 0.5629 0.0
C5170 C 0.66401 0.19903 0.59662 0.0
C5171 C 0.65769 0.18932 0.59907 0.0
C5172 C 0.66003 0.20682 0.58883 0.0
C5173 C 0.64963 0.20508 0.58328 0.0
C5174 C 0.64352 0.19515 0.58541 0.0
C5175 C 0.64751 0.18736 0.59321 0.0
H5176 H 0.56066 0.86801 0.28919 0.0
H5177 H 0.55718 0.90357 0.29578 0.0
H5178 H 0.58005 0.86876 0.29627 0.0
H5179 H 0.57655 0.90428 0.30308 0.0
H5180 H 0.6158 0.90228 0.30385 0.0
H5181 H 0.59647 0.90213 0.29642 0.0
H5182 H 0.58944 0.87172 0.31476 0.0
H5183 H 0.60876 0.87175 0.32199 0.0
C5184 C 0.56407 0.876 0.29208 0.0
C5185 C 0.55739 0.88573 0.29193 0.0
C5186 C 0.57513 0.87641 0.29624 0.0
C5187 C 0.5798 0.88657 0.30029 0.0
C5188 C 0.5732 0.89634 0.29996 0.0
C5189 C 0.56209 0.89592 0.29588 0.0
C5190 C 0.61011 0.89557 0.30628 0.0
C5191 C 0.6138 0.88704 0.31352 0.0
C5192 C 0.59903 0.89553 0.30209 0.0
C5193 C 0.59146 0.88688 0.30497 0.0
C5194 C 0.59512 0.87842 0.31229 0.0
C5195 C 0.60615 0.87851 0.31654 0.0
H5196 H 0.87524 0.79669 0.03158 0.0
H5197 H 0.86325 0.778 0.06019 0.0
H5198 H 0.87251 0.8142 0.04191 0.0
H5199 H 0.86108 0.79548 0.07073 0.0
H5200 H 0.85016 0.82972 0.08399 0.0
H5201 H 0.85047 0.81265 0.07241 0.0
H5202 H 0.88162 0.82384 0.05724 0.0
H5203 H 0.88124 0.84084 0.06868 0.0
C5204 C 0.87193 0.79631 0.04004 0.0
C5205 C 0.86953 0.78591 0.04506 0.0
C5206 C 0.8705 0.80635 0.04602 0.0
C5207 C 0.86667 0.80626 0.05719 0.0
C5208 C 0.86397 0.79588 0.06211 0.0
C5209 C 0.86536 0.78584 0.05611 0.0
C5210 C 0.85705 0.82852 0.07816 0.0
C5211 C 0.86564 0.83666 0.07722 0.0
C5212 C 0.85724 0.81874 0.07153 0.0
C5213 C 0.86606 0.81688 0.06386 0.0
C5214 C 0.87458 0.82509 0.06287 0.0
C5215 C 0.87436 0.83485 0.06945 0.0
H5216 H 0.71827 0.94692 0.88692 0.0
H5217 H 0.68461 0.9596 0.88113 0.0
H5218 H 0.71093 0.92774 0.88628 0.0
H5219 H 0.6772 0.94048 0.88106 0.0
H5220 H 0.67052 0.90491 0.86742 0.0
H5221 H 0.67743 0.92416 0.86909 0.0
H5222 H 0.69949 0.91437 0.89635 0.0
H5223 H 0.69263 0.89503 0.89457 0.0
C5224 C 0.7093 0.94563 0.88555 0.0
C5225 C 0.70205 0.95482 0.88403 0.0
C5226 C 0.70506 0.93463 0.88533 0.0
C5227 C 0.69347 0.93255 0.8836 0.0
C5228 C 0.6862 0.94175 0.88227 0.0
C5229 C 0.69043 0.95274 0.88246 0.0
C5230 C 0.67674 0.90689 0.87387 0.0
C5231 C 0.68102 0.89844 0.88087 0.0
C5232 C 0.6807 0.91794 0.87484 0.0
C5233 C 0.68902 0.92084 0.88286 0.0
C5234 C 0.69321 0.91241 0.88996 0.0
C5235 C 0.68926 0.90133 0.88896 0.0
H5236 H 0.21397 0.55815 0.11868 0.0
H5237 H 0.17811 0.55111 0.11749 0.0
H5238 H 0.21004 0.57824 0.11992 0.0
H5239 H 0.17422 0.57115 0.11859 0.0
H5240 H 0.17136 0.60837 0.11061 0.0
H5241 H 0.17617 0.58863 0.1078 0.0
H5242 H 0.20181 0.59145 0.13367 0.0
H5243 H 0.19695 0.61111 0.13658 0.0
C5244 C 0.20526 0.56087 0.11871 0.0
C5245 C 0.19636 0.553 0.11798 0.0
C5246 C 0.20301 0.57239 0.11939 0.0
C5247 C 0.19182 0.57629 0.11933 0.0
C5248 C 0.18294 0.56843 0.11846 0.0
C5249 C 0.18518 0.55693 0.11782 0.0
C5250 C 0.17801 0.60478 0.11572 0.0
C5251 C 0.18374 0.61134 0.12385 0.0
C5252 C 0.18077 0.59347 0.11409 0.0
C5253 C 0.18935 0.58847 0.12053 0.0
C5254 C 0.19526 0.59509 0.12846 0.0
C5255 C 0.19248 0.60638 0.13012 0.0
H5256 H 0.23386 0.44342 0.88516 0.0
H5257 H 0.2363 0.45709 0.85171 0.0
H5258 H 0.21789 0.43179 0.87913 0.0
H5259 H 0.22057 0.44515 0.84558 0.0
H5260 H 0.1867 0.42759 0.83985 0.0
H5261 H 0.20026 0.44133 0.84743 0.0
H5262 H 0.2159 0.41526 0.86711 0.0
H5263 H 0.2022 0.40167 0.85983 0.0
C5264 C 0.23089 0.44407 0.87656 0.0
C5265 C 0.2364 0.45115 0.8689 0.0
C5266 C 0.22181 0.4373 0.87307 0.0
C5267 C 0.21802 0.43745 0.86185 0.0
C5268 C 0.22323 0.44487 0.8543 0.0
C5269 C 0.23232 0.45163 0.85778 0.0
C5270 C 0.19293 0.42485 0.84593 0.0
C5271 C 0.19343 0.41353 0.84919 0.0
C5272 C 0.20076 0.4327 0.85019 0.0
C5273 C 0.20918 0.42939 0.85786 0.0
C5274 C 0.20946 0.41812 0.86132 0.0
C5275 C 0.20169 0.4103 0.85704 0.0
H5276 H 0.28791 0.44989 0.61619 0.0
H5277 H 0.31785 0.46545 0.63044 0.0
H5278 H 0.29764 0.43179 0.61555 0.0
H5279 H 0.32763 0.44758 0.62948 0.0
H5280 H 0.34026 0.41292 0.63511 0.0
H5281 H 0.32798 0.42909 0.63776 0.0
H5282 H 0.31314 0.4231 0.60496 0.0
H5283 H 0.32537 0.40681 0.60239 0.0
C5284 C 0.29653 0.44943 0.61925 0.0
C5285 C 0.30214 0.45911 0.62329 0.0
C5286 C 0.30213 0.43909 0.6188 0.0
C5287 C 0.31341 0.43823 0.62248 0.0
C5288 C 0.3189 0.44789 0.62672 0.0
C5289 C 0.31334 0.45819 0.62713 0.0
C5290 C 0.3343 0.415 0.62851 0.0
C5291 C 0.33387 0.40869 0.61849 0.0
C5292 C 0.32728 0.42427 0.63001 0.0
C5293 C 0.3197 0.42749 0.6215 0.0
C5294 C 0.31883 0.42081 0.61171 0.0
C5295 C 0.32584 0.41148 0.61023 0.0
H5296 H 0.76492 0.06821 0.88276 0.0
H5297 H 0.76809 0.04385 0.85585 0.0
H5298 H 0.78334 0.07601 0.87813 0.0
H5299 H 0.78663 0.05169 0.8512 0.0
H5300 H 0.82467 0.06134 0.85608 0.0
H5301 H 0.80587 0.05334 0.85899 0.0
H5302 H 0.79241 0.08676 0.86332 0.0
H5303 H 0.81123 0.09471 0.86082 0.0
C5304 C 0.76951 0.06458 0.87578 0.0
C5305 C 0.765 0.05545 0.86962 0.0
C5306 C 0.78007 0.06907 0.87311 0.0
C5307 C 0.78641 0.06455 0.86422 0.0
C5308 C 0.78199 0.05532 0.85815 0.0
C5309 C 0.77138 0.05081 0.86082 0.0
C5310 C 0.81768 0.06697 0.85762 0.0
C5311 C 0.81947 0.07866 0.8583 0.0
C5312 C 0.80689 0.06239 0.85918 0.0
C5313 C 0.79766 0.06941 0.8615 0.0
C5314 C 0.79938 0.08111 0.86173 0.0
C5315 C 0.81014 0.08569 0.86015 0.0
H5316 H 0.81188 0.05175 0.41156 0.0
H5317 H 0.8085 0.05029 0.37539 0.0
H5318 H 0.82007 0.0705 0.41026 0.0
H5319 H 0.81618 0.06928 0.37412 0.0
H5320 H 0.84696 0.09351 0.37626 0.0
H5321 H 0.83482 0.07697 0.3765 0.0
H5322 H 0.81778 0.09006 0.40581 0.0
H5323 H 0.83032 0.10645 0.40583 0.0
C5324 C 0.81272 0.0555 0.40333 0.0
C5325 C 0.80969 0.04943 0.39357 0.0
C5326 C 0.81729 0.06633 0.4026 0.0
C5327 C 0.8189 0.07138 0.39207 0.0
C5328 C 0.81523 0.06557 0.38235 0.0
C5329 C 0.81069 0.05472 0.38309 0.0
C5330 C 0.8406 0.09288 0.38274 0.0
C5331 C 0.83972 0.10122 0.39112 0.0
C5332 C 0.83352 0.08345 0.38279 0.0
C5333 C 0.82534 0.08213 0.39122 0.0
C5334 C 0.82409 0.09074 0.39929 0.0
C5335 C 0.8312 0.10019 0.39923 0.0
H5336 H 0.23712 0.57257 0.6259 0.0
H5337 H 0.23497 0.55219 0.65573 0.0
H5338 H 0.22175 0.5842 0.63276 0.0
H5339 H 0.21986 0.56414 0.66282 0.0
H5340 H 0.18687 0.58324 0.66838 0.0
H5341 H 0.20027 0.57011 0.65995 0.0
H5342 H 0.21991 0.59809 0.64761 0.0
H5343 H 0.20638 0.61113 0.65565 0.0
C5344 C 0.23327 0.57047 0.63386 0.0
C5345 C 0.23732 0.56146 0.64028 0.0
C5346 C 0.22455 0.57723 0.63786 0.0
C5347 C 0.21966 0.57518 0.64839 0.0
C5348 C 0.2234 0.56592 0.65464 0.0
C5349 C 0.23214 0.55914 0.65064 0.0
C5350 C 0.19398 0.58656 0.66375 0.0
C5351 C 0.19559 0.59823 0.66274 0.0
C5352 C 0.20171 0.57905 0.65901 0.0
C5353 C 0.21116 0.58305 0.6531 0.0
C5354 C 0.21266 0.59471 0.65198 0.0
C5355 C 0.20497 0.6022 0.65672 0.0
H5356 H 0.27112 0.45404 0.12894 0.0
H5357 H 0.28551 0.47898 0.1515 0.0
H5358 H 0.28568 0.44084 0.13435 0.0
H5359 H 0.30051 0.46589 0.15654 0.0
H5360 H 0.31509 0.43386 0.17346 0.0
H5361 H 0.30268 0.44889 0.16717 0.0
H5362 H 0.30519 0.43656 0.13299 0.0
H5363 H 0.31735 0.4214 0.13937 0.0
C5364 C 0.27745 0.45674 0.13501 0.0
C5365 C 0.27706 0.46753 0.13988 0.0
C5366 C 0.28592 0.44921 0.13801 0.0
C5367 C 0.2943 0.45228 0.14589 0.0
C5368 C 0.29412 0.4632 0.15054 0.0
C5369 C 0.28559 0.47075 0.14756 0.0
C5370 C 0.31312 0.43449 0.16458 0.0
C5371 C 0.31709 0.4264 0.15692 0.0
C5372 C 0.30603 0.44312 0.16096 0.0
C5373 C 0.30283 0.44389 0.14958 0.0
C5374 C 0.30726 0.43608 0.14185 0.0
C5375 C 0.31426 0.42741 0.14549 0.0
H5376 H 0.61195 0.78901 0.52363 0.0
H5377 H 0.61126 0.82285 0.51072 0.0
H5378 H 0.60779 0.7962 0.54237 0.0
H5379 H 0.6078 0.83009 0.52953 0.0
H5380 H 0.59476 0.84033 0.56336 0.0
H5381 H 0.5949 0.83172 0.54469 0.0
H5382 H 0.61767 0.80616 0.55675 0.0
H5383 H 0.61699 0.81437 0.57549 0.0
C5384 C 0.61081 0.79797 0.52475 0.0
C5385 C 0.61205 0.80535 0.51565 0.0
C5386 C 0.60857 0.80212 0.53554 0.0
C5387 C 0.60757 0.81375 0.53752 0.0
C5388 C 0.60841 0.82108 0.52834 0.0
C5389 C 0.61058 0.81694 0.51755 0.0
C5390 C 0.59959 0.83273 0.56208 0.0
C5391 C 0.60595 0.82811 0.57092 0.0
C5392 C 0.59979 0.82787 0.55133 0.0
C5393 C 0.60638 0.81829 0.54916 0.0
C5394 C 0.61241 0.81346 0.5581 0.0
C5395 C 0.61216 0.81827 0.56884 0.0
H5396 H 0.46971 0.3631 0.81462 0.0
H5397 H 0.43693 0.37754 0.80814 0.0
H5398 H 0.46581 0.36333 0.83477 0.0
H5399 H 0.43305 0.37778 0.82821 0.0
H5400 H 0.42487 0.36669 0.8635 0.0
H5401 H 0.42928 0.36504 0.84358 0.0
H5402 H 0.46338 0.37649 0.85038 0.0
H5403 H 0.45909 0.3777 0.87038 0.0
C5404 C 0.46171 0.3664 0.8175 0.0
C5405 C 0.45361 0.37026 0.80976 0.0
C5406 C 0.45947 0.36652 0.82904 0.0
C5407 C 0.44909 0.3705 0.8331 0.0
C5408 C 0.44104 0.37443 0.82536 0.0
C5409 C 0.44327 0.37431 0.81384 0.0
C5410 C 0.43337 0.36866 0.86078 0.0
C5411 C 0.44162 0.37235 0.86854 0.0
C5412 C 0.43586 0.36786 0.84934 0.0
C5413 C 0.44666 0.37073 0.84536 0.0
C5414 C 0.455 0.37414 0.85315 0.0
C5415 C 0.4525 0.37495 0.86461 0.0
H5416 H 0.87262 0.20764 0.03101 0.0
H5417 H 0.90372 0.22665 0.03405 0.0
H5418 H 0.87941 0.1945 0.04506 0.0
H5419 H 0.91037 0.2137 0.04845 0.0
H5420 H 0.92355 0.17904 0.06056 0.0
H5421 H 0.91678 0.19431 0.04884 0.0
H5422 H 0.88412 0.19226 0.06476 0.0
H5423 H 0.8909 0.17693 0.07647 0.0
C5424 C 0.88088 0.20906 0.03476 0.0
C5425 C 0.88767 0.21813 0.03133 0.0
C5426 C 0.88472 0.2016 0.04292 0.0
C5427 C 0.89545 0.20302 0.04787 0.0
C5428 C 0.90211 0.21229 0.04471 0.0
C5429 C 0.89825 0.21978 0.03655 0.0
C5430 C 0.91499 0.18199 0.06172 0.0
C5431 C 0.90774 0.17671 0.06941 0.0
C5432 C 0.91111 0.19076 0.055 0.0
C5433 C 0.89988 0.19447 0.05581 0.0
C5434 C 0.89275 0.18947 0.06379 0.0
C5435 C 0.89664 0.18069 0.0705 0.0
H5436 H 0.06387 0.63042 0.30709 0.0
H5437 H 0.03661 0.65416 0.31029 0.0
H5438 H 0.06846 0.63291 0.32686 0.0
H5439 H 0.04091 0.65635 0.33034 0.0
H5440 H 0.06535 0.66973 0.35882 0.0
H5441 H 0.05585 0.66525 0.34113 0.0
H5442 H 0.06311 0.63005 0.34588 0.0
H5443 H 0.07321 0.63459 0.36317 0.0
C5444 C 0.05876 0.63607 0.31208 0.0
C5445 C 0.04999 0.64222 0.30709 0.0
C5446 C 0.06128 0.63739 0.32348 0.0
C5447 C 0.05507 0.64486 0.33023 0.0
C5448 C 0.04594 0.65062 0.32536 0.0
C5449 C 0.04341 0.6493 0.3139 0.0
C5450 C 0.06484 0.66102 0.35614 0.0
C5451 C 0.07028 0.65257 0.36233 0.0
C5452 C 0.05925 0.65842 0.34605 0.0
C5453 C 0.05889 0.6473 0.34196 0.0
C5454 C 0.06345 0.63874 0.34865 0.0
C5455 C 0.06912 0.64134 0.35869 0.0
H5456 H 0.61591 0.21655 0.98866 0.0
H5457 H 0.59474 0.19181 0.00478 0.0
H5458 H 0.61174 0.20795 0.97043 0.0
H5459 H 0.59061 0.18318 0.98652 0.0
H5460 H 0.60069 0.16267 0.95464 0.0
H5461 H 0.60139 0.17224 0.97284 0.0
H5462 H 0.59695 0.20416 0.95637 0.0
H5463 H 0.5966 0.19461 0.93813 0.0
C5464 C 0.61019 0.20941 0.9883 0.0
C5465 C 0.60572 0.20482 0.99819 0.0
C5466 C 0.6078 0.20448 0.97784 0.0
C5467 C 0.60088 0.19484 0.97703 0.0
C5468 C 0.5961 0.19049 0.98688 0.0
C5469 C 0.59848 0.19543 0.99734 0.0
C5470 C 0.59978 0.17172 0.95492 0.0
C5471 C 0.59867 0.17788 0.94495 0.0
C5472 C 0.60008 0.1772 0.96535 0.0
C5473 C 0.59929 0.18898 0.96605 0.0
C5474 C 0.59771 0.1951 0.9561 0.0
C5475 C 0.59738 0.18961 0.94567 0.0
H5476 H 0.05951 0.38189 0.2014 0.0
H5477 H 0.0327 0.35735 0.19751 0.0
H5478 H 0.06471 0.37918 0.18188 0.0
H5479 H 0.03755 0.35501 0.17769 0.0
H5480 H 0.06269 0.34139 0.15064 0.0
H5481 H 0.05262 0.34621 0.16775 0.0
H5482 H 0.06036 0.38133 0.16258 0.0
H5483 H 0.07107 0.37644 0.14591 0.0
C5484 C 0.05461 0.37603 0.19631 0.0
C5485 C 0.04582 0.36969 0.20106 0.0
C5486 C 0.05748 0.37458 0.18503 0.0
C5487 C 0.05159 0.36682 0.17817 0.0
C5488 C 0.04237 0.36094 0.18276 0.0
C5489 C 0.03951 0.36237 0.1941 0.0
C5490 C 0.06218 0.35016 0.1531 0.0
C5491 C 0.06793 0.35848 0.147 0.0
C5492 C 0.05625 0.35295 0.16286 0.0
C5493 C 0.05584 0.36415 0.16669 0.0
C5494 C 0.06073 0.37258 0.16003 0.0
C5495 C 0.06675 0.36978 0.15034 0.0
H5496 H 0.87471 0.81021 0.48196 0.0
H5497 H 0.90808 0.81116 0.49683 0.0
H5498 H 0.88165 0.82079 0.4659 0.0
H5499 H 0.915 0.82189 0.48088 0.0
H5500 H 0.92605 0.8348 0.44682 0.0
H5501 H 0.91921 0.82178 0.46108 0.0
H5502 H 0.8876 0.83972 0.4624 0.0
H5503 H 0.89438 0.85258 0.44814 0.0
C5504 C 0.88354 0.81267 0.48178 0.0
C5505 C 0.89083 0.80991 0.49068 0.0
C5506 C 0.88751 0.81876 0.47259 0.0
C5507 C 0.89887 0.82229 0.47213 0.0
C5508 C 0.90624 0.81919 0.48088 0.0
C5509 C 0.90228 0.81305 0.49003 0.0
C5510 C 0.91763 0.83592 0.45015 0.0
C5511 C 0.91076 0.84471 0.44633 0.0
C5512 C 0.91371 0.82848 0.45833 0.0
C5513 C 0.90284 0.82969 0.4629 0.0
C5514 C 0.89592 0.83839 0.45893 0.0
C5515 C 0.89982 0.84578 0.45074 0.0
H5516 H 0.46076 0.65352 0.69631 0.0
H5517 H 0.47781 0.62255 0.68809 0.0
H5518 H 0.45313 0.65427 0.67722 0.0
H5519 H 0.47019 0.62329 0.66905 0.0
H5520 H 0.46366 0.6335 0.63292 0.0
H5521 H 0.47174 0.63396 0.65182 0.0
H5522 H 0.43954 0.6444 0.66513 0.0
H5523 H 0.43147 0.64397 0.6462 0.0
C5524 C 0.46283 0.64684 0.69045 0.0
C5525 C 0.46991 0.63798 0.69373 0.0
C5526 C 0.45846 0.64727 0.67951 0.0
C5527 C 0.46106 0.63885 0.67159 0.0
C5528 C 0.46818 0.63002 0.67487 0.0
C5529 C 0.47255 0.62959 0.68579 0.0
C5530 C 0.4583 0.63587 0.63989 0.0
C5531 C 0.4469 0.63863 0.63806 0.0
C5532 C 0.46292 0.63612 0.65072 0.0
C5533 C 0.45627 0.63915 0.66001 0.0
C5534 C 0.44494 0.64216 0.65816 0.0
C5535 C 0.44031 0.64191 0.6473 0.0
H5536 H 0.54084 0.61642 0.78353 0.0
H5537 H 0.52043 0.61351 0.81336 0.0
H5538 H 0.55678 0.60793 0.79357 0.0
H5539 H 0.53629 0.60535 0.82339 0.0
H5540 H 0.56257 0.58199 0.83609 0.0
H5541 H 0.54748 0.58821 0.8237 0.0
H5542 H 0.56991 0.61294 0.80935 0.0
H5543 H 0.58521 0.60643 0.82151 0.0
C5544 C 0.53975 0.61393 0.7922 0.0
C5545 C 0.52941 0.6157 0.79768 0.0
C5546 C 0.54888 0.60915 0.79796 0.0
C5547 C 0.54779 0.60593 0.80926 0.0
C5548 C 0.53739 0.60759 0.81465 0.0
C5549 C 0.52833 0.6124 0.80894 0.0
C5550 C 0.5644 0.58856 0.83011 0.0
C5551 C 0.57511 0.59374 0.82985 0.0
C5552 C 0.55569 0.59222 0.82309 0.0
C5553 C 0.55745 0.60117 0.81565 0.0
C5554 C 0.56829 0.60601 0.81498 0.0
C5555 C 0.57702 0.60235 0.82202 0.0
H5556 H 0.63915 0.31119 0.04394 0.0
H5557 H 0.61587 0.30418 0.07085 0.0
H5558 H 0.64297 0.32979 0.0521 0.0
H5559 H 0.61989 0.32254 0.07914 0.0
H5560 H 0.62334 0.35861 0.08863 0.0
H5561 H 0.61783 0.34272 0.07671 0.0
H5562 H 0.65291 0.3367 0.06901 0.0
H5563 H 0.65839 0.35285 0.08062 0.0
C5564 C 0.63474 0.31368 0.05151 0.0
C5565 C 0.62728 0.3062 0.05681 0.0
C5566 C 0.637 0.32428 0.05623 0.0
C5567 C 0.63176 0.32764 0.06629 0.0
C5568 C 0.62398 0.32029 0.07133 0.0
C5569 C 0.62177 0.30971 0.06665 0.0
C5570 C 0.62986 0.35409 0.08416 0.0
C5571 C 0.64132 0.35694 0.08565 0.0
C5572 C 0.62671 0.3449 0.07742 0.0
C5573 C 0.63494 0.33836 0.07203 0.0
C5574 C 0.64635 0.34159 0.07301 0.0
C5575 C 0.64951 0.35077 0.07975 0.0
H5576 H 0.96947 0.41086 0.28568 0.0
H5577 H 0.96185 0.37612 0.29283 0.0
H5578 H 0.9556 0.4168 0.29957 0.0
H5579 H 0.94783 0.38201 0.30657 0.0
H5580 H 0.9352 0.39642 0.33993 0.0
H5581 H 0.94767 0.39037 0.3249 0.0
H5582 H 0.93584 0.41762 0.30419 0.0
H5583 H 0.92345 0.42377 0.31937 0.0
C5584 C 0.96468 0.4045 0.29009 0.0
C5585 C 0.9668 0.39302 0.28823 0.0
C5586 C 0.95671 0.40789 0.29804 0.0
C5587 C 0.95064 0.39989 0.30427 0.0
C5588 C 0.95251 0.38841 0.30211 0.0
C5589 C 0.96052 0.38502 0.29422 0.0
C5590 C 0.93516 0.40104 0.33212 0.0
C5591 C 0.92832 0.41056 0.33083 0.0
C5592 C 0.9423 0.39756 0.32348 0.0
C5593 C 0.94275 0.40347 0.3133 0.0
C5594 C 0.93582 0.41295 0.31197 0.0
C5595 C 0.92871 0.41647 0.32065 0.0
H5596 H 0.89118 0.7025 0.5387 0.0
H5597 H 0.85942 0.70719 0.5558 0.0
H5598 H 0.8919 0.6832 0.54532 0.0
H5599 H 0.86036 0.68798 0.56278 0.0
H5600 H 0.86073 0.64922 0.56378 0.0
H5601 H 0.85929 0.66832 0.55651 0.0
H5602 H 0.89489 0.67358 0.56302 0.0
H5603 H 0.89633 0.65458 0.57026 0.0
C5604 C 0.88431 0.69939 0.54381 0.0
C5605 C 0.87524 0.7064 0.54672 0.0
C5606 C 0.88479 0.68837 0.54772 0.0
C5607 C 0.87622 0.68406 0.55464 0.0
C5608 C 0.86706 0.691 0.5574 0.0
C5609 C 0.86659 0.70205 0.5535 0.0
C5610 C 0.86823 0.65449 0.56373 0.0
C5611 C 0.87866 0.65034 0.56753 0.0
C5612 C 0.8674 0.66543 0.55956 0.0
C5613 C 0.87699 0.67245 0.55912 0.0
C5614 C 0.88739 0.66832 0.56302 0.0
C5615 C 0.88821 0.65742 0.56718 0.0
H5616 H 0.5338 0.37509 0.71648 0.0
H5617 H 0.54381 0.40376 0.73679 0.0
H5618 H 0.54993 0.37814 0.7043 0.0
H5619 H 0.56003 0.40688 0.7245 0.0
H5620 H 0.59432 0.3999 0.7066 0.0
H5621 H 0.57803 0.39854 0.71904 0.0
H5622 H 0.55651 0.39127 0.69039 0.0
H5623 H 0.57279 0.39253 0.678 0.0
C5624 C 0.5394 0.38212 0.71829 0.0
C5625 C 0.53747 0.38924 0.72756 0.0
C5626 C 0.54864 0.38389 0.71128 0.0
C5627 C 0.55621 0.39284 0.71334 0.0
C5628 C 0.5544 0.39987 0.72272 0.0
C5629 C 0.54513 0.39808 0.72976 0.0
C5630 C 0.58607 0.3982 0.70295 0.0
C5631 C 0.58485 0.39623 0.69133 0.0
C5632 C 0.57673 0.39741 0.71008 0.0
C5633 C 0.56598 0.39465 0.70573 0.0
C5634 C 0.56471 0.39314 0.69405 0.0
C5635 C 0.57403 0.3939 0.68694 0.0
H5636 H 0.85035 0.30356 0.94187 0.0
H5637 H 0.88097 0.30484 0.96182 0.0
H5638 H 0.85239 0.32353 0.93781 0.0
H5639 H 0.88275 0.32489 0.95815 0.0
H5640 H 0.8902 0.35605 0.93699 0.0
H5641 H 0.88747 0.3365 0.94222 0.0
H5642 H 0.85169 0.34229 0.94607 0.0
H5643 H 0.85443 0.36193 0.94078 0.0
C5644 C 0.85748 0.30812 0.94545 0.0
C5645 C 0.86554 0.30257 0.9521 0.0
C5646 C 0.85858 0.3196 0.94322 0.0
C5647 C 0.86777 0.3258 0.9476 0.0
C5648 C 0.87566 0.32032 0.95451 0.0
C5649 C 0.87456 0.30885 0.95673 0.0
C5650 C 0.88176 0.3532 0.93908 0.0
C5651 C 0.87254 0.36057 0.93852 0.0
C5652 C 0.8802 0.34198 0.9421 0.0
C5653 C 0.86937 0.33783 0.94463 0.0
C5654 C 0.86013 0.34519 0.94405 0.0
C5655 C 0.86169 0.35643 0.94102 0.0
H5656 H 0.96321 0.6277 0.22083 0.0
H5657 H 0.98057 0.59633 0.21539 0.0
H5658 H 0.94892 0.62213 0.20693 0.0
H5659 H 0.96621 0.59063 0.20171 0.0
H5660 H 0.94757 0.59074 0.16802 0.0
H5661 H 0.96081 0.59553 0.18304 0.0
H5662 H 0.93352 0.6095 0.20257 0.0
H5663 H 0.92027 0.60484 0.18737 0.0
C5664 C 0.96385 0.61953 0.2168 0.0
C5665 C 0.97305 0.61249 0.21912 0.0
C5666 C 0.95566 0.61632 0.20885 0.0
C5667 C 0.95646 0.60597 0.20311 0.0
C5668 C 0.96546 0.59877 0.20577 0.0
C5669 C 0.97367 0.60201 0.21364 0.0
C5670 C 0.94437 0.59471 0.17558 0.0
C5671 C 0.93287 0.59738 0.17652 0.0
C5672 C 0.95196 0.59745 0.18421 0.0
C5673 C 0.94824 0.60286 0.19406 0.0
C5674 C 0.9367 0.60546 0.19505 0.0
C5675 C 0.92911 0.60278 0.18636 0.0
H5676 H 0.65213 0.70875 0.44999 0.0
H5677 H 0.61811 0.69926 0.45904 0.0
H5678 H 0.65478 0.69049 0.44108 0.0
H5679 H 0.62089 0.68077 0.45042 0.0
H5680 H 0.62565 0.65745 0.41901 0.0
H5681 H 0.62265 0.67366 0.43122 0.0
H5682 H 0.65659 0.67046 0.44434 0.0
H5683 H 0.6596 0.65422 0.43207 0.0
C5684 C 0.64525 0.70272 0.45016 0.0
C5685 C 0.63488 0.7055 0.45511 0.0
C5686 C 0.64682 0.69218 0.44517 0.0
C5687 C 0.63804 0.68416 0.44502 0.0
C5688 C 0.62778 0.6868 0.4503 0.0
C5689 C 0.62622 0.69736 0.45533 0.0
C5690 C 0.63238 0.66003 0.42469 0.0
C5691 C 0.6429 0.65459 0.4245 0.0
C5692 C 0.63066 0.66934 0.4317 0.0
C5693 C 0.63941 0.67343 0.43869 0.0
C5694 C 0.64974 0.66765 0.4389 0.0
C5695 C 0.65147 0.65835 0.43188 0.0
H5696 H 0.82073 0.51869 0.60283 0.0
H5697 H 0.79794 0.54026 0.62114 0.0
H5698 H 0.83158 0.53501 0.59702 0.0
H5699 H 0.80886 0.55669 0.61529 0.0
H5700 H 0.84077 0.57992 0.615 0.0
H5701 H 0.82744 0.56485 0.61923 0.0
H5702 H 0.83116 0.55169 0.58551 0.0
H5703 H 0.84483 0.56646 0.58143 0.0
C5704 C 0.81789 0.52694 0.60543 0.0
C5705 C 0.80844 0.52815 0.61244 0.0
C5706 C 0.82412 0.53632 0.60209 0.0
C5707 C 0.82109 0.54718 0.60567 0.0
C5708 C 0.81151 0.54843 0.6125 0.0
C5709 C 0.80525 0.53903 0.61585 0.0
C5710 C 0.83871 0.57383 0.60848 0.0
C5711 C 0.84396 0.57435 0.59791 0.0
C5712 C 0.83097 0.56526 0.61086 0.0
C5713 C 0.82829 0.557 0.60273 0.0
C5714 C 0.83316 0.55782 0.59201 0.0
C5715 C 0.8409 0.56638 0.58963 0.0
H5716 H 0.3009 0.97385 0.38058 0.0
H5717 H 0.3256 0.99518 0.39719 0.0
H5718 H 0.31008 0.95726 0.38846 0.0
H5719 H 0.33492 0.97872 0.40474 0.0
H5720 H 0.3448 0.94843 0.42415 0.0
H5721 H 0.33258 0.96362 0.41807 0.0
H5722 H 0.32796 0.94713 0.38587 0.0
H5723 H 0.33984 0.93166 0.39212 0.0
C5724 C 0.30822 0.97499 0.38597 0.0
C5725 C 0.31257 0.98582 0.38819 0.0
C5726 C 0.31354 0.9655 0.39041 0.0
C5727 C 0.32324 0.96666 0.39723 0.0
C5728 C 0.32739 0.97751 0.39964 0.0
C5729 C 0.32213 0.98696 0.39519 0.0
C5730 C 0.34097 0.94788 0.41587 0.0
C5731 C 0.34336 0.93884 0.4086 0.0
C5732 C 0.33407 0.95667 0.41233 0.0
C5733 C 0.3294 0.95666 0.40143 0.0
C5734 C 0.33137 0.94738 0.39434 0.0
C5735 C 0.33828 0.93857 0.39788 0.0
H5736 H 0.29798 0.05075 0.63226 0.0
H5737 H 0.29778 0.06885 0.66389 0.0
H5738 H 0.31836 0.05349 0.63102 0.0
H5739 H 0.31813 0.07192 0.66246 0.0
H5740 H 0.35645 0.06645 0.66093 0.0
H5741 H 0.33635 0.06212 0.66289 0.0
H5742 H 0.33112 0.0693 0.6277 0.0
H5743 H 0.35112 0.07368 0.62576 0.0
C5744 C 0.3023 0.05523 0.639 0.0
C5745 C 0.29625 0.0596 0.64816 0.0
C5746 C 0.31396 0.05691 0.63822 0.0
C5747 C 0.31986 0.06298 0.6466 0.0
C5748 C 0.31385 0.06713 0.6559 0.0
C5749 C 0.30218 0.06548 0.65666 0.0
C5750 C 0.35099 0.06715 0.65363 0.0
C5751 C 0.35541 0.07037 0.64318 0.0
C5752 C 0.33948 0.06466 0.65475 0.0
C5753 C 0.33215 0.06533 0.64544 0.0
C5754 C 0.33658 0.0685 0.63499 0.0
C5755 C 0.34806 0.07101 0.63388 0.0
H5756 H 0.19739 0.02483 0.87004 0.0
H5757 H 0.21923 0.03483 0.89761 0.0
H5758 H 0.18563 0.04118 0.87341 0.0
H5759 H 0.20736 0.05124 0.90107 0.0
H5760 H 0.19059 0.08577 0.89397 0.0
H5761 H 0.20229 0.06902 0.89263 0.0
H5762 H 0.17239 0.04874 0.88672 0.0
H5763 H 0.16072 0.06553 0.88792 0.0
C5764 C 0.19961 0.03046 0.87692 0.0
C5765 C 0.20922 0.0285 0.88359 0.0
C5766 C 0.19284 0.03983 0.87887 0.0
C5767 C 0.19548 0.04748 0.88758 0.0
C5768 C 0.20514 0.04556 0.89424 0.0
C5769 C 0.21194 0.03618 0.89225 0.0
C5770 C 0.1865 0.0777 0.8926 0.0
C5771 C 0.17474 0.07698 0.89098 0.0
C5772 C 0.19321 0.06809 0.89182 0.0
C5773 C 0.1883 0.05754 0.88944 0.0
C5774 C 0.17648 0.05677 0.88831 0.0
C5775 C 0.16978 0.06637 0.88904 0.0
H5776 H 0.70073 0.46983 0.63203 0.0
H5777 H 0.71373 0.45856 0.664 0.0
H5778 H 0.68289 0.46014 0.63564 0.0
H5779 H 0.69611 0.44853 0.66741 0.0
H5780 H 0.6604 0.43767 0.67446 0.0
H5781 H 0.67614 0.45059 0.67126 0.0
H5782 H 0.67662 0.4407 0.63624 0.0
H5783 H 0.6609 0.42786 0.63943 0.0
C5784 C 0.69974 0.46539 0.63988 0.0
C5785 C 0.70868 0.46491 0.64769 0.0
C5786 C 0.68956 0.45974 0.64189 0.0
C5787 C 0.68808 0.4535 0.65178 0.0
C5788 C 0.6969 0.45334 0.65975 0.0
C5789 C 0.70707 0.45897 0.65774 0.0
C5790 C 0.66383 0.43832 0.66607 0.0
C5791 C 0.65943 0.43169 0.65722 0.0
C5792 C 0.67286 0.44571 0.66424 0.0
C5793 C 0.6777 0.44662 0.65351 0.0
C5794 C 0.67301 0.44032 0.64457 0.0
C5795 C 0.66398 0.43295 0.6464 0.0
H5796 H 0.69988 0.48511 0.14038 0.0
H5797 H 0.72115 0.47567 0.11252 0.0
H5798 H 0.68797 0.46873 0.13685 0.0
H5799 H 0.70912 0.45922 0.1089 0.0
H5800 H 0.69218 0.42447 0.11572 0.0
H5801 H 0.70405 0.44126 0.11717 0.0
H5802 H 0.67444 0.46138 0.12342 0.0
H5803 H 0.6626 0.44457 0.12211 0.0
C5804 C 0.70194 0.47959 0.13341 0.0
C5805 C 0.71143 0.48172 0.12669 0.0
C5806 C 0.69508 0.47021 0.13136 0.0
C5807 C 0.69752 0.46271 0.12252 0.0
C5808 C 0.70706 0.46479 0.11583 0.0
C5809 C 0.71396 0.47419 0.11791 0.0
C5810 C 0.68819 0.43252 0.11719 0.0
C5811 C 0.67646 0.43319 0.11889 0.0
C5812 C 0.695 0.44214 0.11803 0.0
C5813 C 0.69022 0.45265 0.12054 0.0
C5814 C 0.67842 0.45338 0.12173 0.0
C5815 C 0.67163 0.44376 0.12094 0.0
H5816 H 0.29587 0.96364 0.85508 0.0
H5817 H 0.29134 0.93066 0.86937 0.0
H5818 H 0.3163 0.96084 0.85488 0.0
H5819 H 0.31169 0.92786 0.86918 0.0
H5820 H 0.34734 0.92166 0.85767 0.0
H5821 H 0.32712 0.92504 0.85617 0.0
H5822 H 0.33228 0.95918 0.86784 0.0
H5823 H 0.35259 0.95593 0.8689 0.0
C5824 C 0.29923 0.95583 0.85824 0.0
C5825 C 0.29197 0.94736 0.8622 0.0
C5826 C 0.31094 0.95422 0.85812 0.0
C5827 C 0.31563 0.9441 0.86195 0.0
C5828 C 0.30835 0.93566 0.86594 0.0
C5829 C 0.29668 0.93727 0.86606 0.0
C5830 C 0.3442 0.92996 0.85971 0.0
C5831 C 0.3516 0.93852 0.86343 0.0
C5832 C 0.33258 0.93185 0.85899 0.0
C5833 C 0.32806 0.94235 0.86199 0.0
C5834 C 0.33548 0.95102 0.86541 0.0
C5835 C 0.34712 0.94912 0.86612 0.0
H5836 H 0.2112 0.05008 0.3468 0.0
H5837 H 0.20352 0.03218 0.37731 0.0
H5838 H 0.19178 0.05688 0.34597 0.0
H5839 H 0.18417 0.03895 0.37648 0.0
H5840 H 0.1477 0.04434 0.36641 0.0
H5841 H 0.16686 0.03697 0.36563 0.0
H5842 H 0.17932 0.06972 0.35605 0.0
H5843 H 0.16013 0.07707 0.3568 0.0
C5844 C 0.20538 0.04763 0.35335 0.0
C5845 C 0.20891 0.04057 0.36211 0.0
C5846 C 0.19426 0.05153 0.35288 0.0
C5847 C 0.18641 0.04844 0.36115 0.0
C5848 C 0.18993 0.04133 0.36986 0.0
C5849 C 0.20104 0.03744 0.37034 0.0
C5850 C 0.15454 0.04997 0.36414 0.0
C5851 C 0.1524 0.06131 0.36174 0.0
C5852 C 0.16551 0.04575 0.36371 0.0
C5853 C 0.17464 0.05277 0.36087 0.0
C5854 C 0.17247 0.06405 0.35815 0.0
C5855 C 0.16147 0.06827 0.35858 0.0
H5856 H 0.37719 0.18788 0.46469 0.0
H5857 H 0.40631 0.20983 0.46279 0.0
H5858 H 0.37954 0.18268 0.44505 0.0
H5859 H 0.40846 0.2049 0.4429 0.0
H5860 H 0.41718 0.17878 0.41434 0.0
H5861 H 0.41435 0.1883 0.43235 0.0
H5862 H 0.37838 0.18909 0.42595 0.0
H5863 H 0.38123 0.17941 0.40805 0.0
C5864 C 0.38404 0.19168 0.46003 0.0
C5865 C 0.39164 0.19916 0.46533 0.0
C5866 C 0.3853 0.18882 0.44871 0.0
C5867 C 0.3942 0.19337 0.44238 0.0
C5868 C 0.40158 0.20117 0.44757 0.0
C5869 C 0.40029 0.20406 0.45893 0.0
C5870 C 0.40871 0.18124 0.41667 0.0
C5871 C 0.39941 0.17823 0.40987 0.0
C5872 C 0.40708 0.18671 0.42699 0.0
C5873 C 0.39612 0.18931 0.43068 0.0
C5874 C 0.38691 0.18698 0.42349 0.0
C5875 C 0.38854 0.18147 0.41322 0.0
H5876 H 0.53523 0.65901 0.22546 0.0
H5877 H 0.55501 0.62862 0.22591 0.0
H5878 H 0.54367 0.66408 0.20744 0.0
H5879 H 0.56341 0.63368 0.20803 0.0
H5880 H 0.58527 0.65057 0.18268 0.0
H5881 H 0.57663 0.64774 0.20094 0.0
H5882 H 0.54436 0.65796 0.18746 0.0
H5883 H 0.55311 0.66122 0.1692 0.0
C5884 C 0.54129 0.65337 0.22167 0.0
C5885 C 0.54454 0.64347 0.22717 0.0
C5886 C 0.54614 0.65629 0.21137 0.0
C5887 C 0.55434 0.64937 0.20639 0.0
C5888 C 0.55735 0.63934 0.21178 0.0
C5889 C 0.55251 0.63643 0.22202 0.0
C5890 C 0.57639 0.65251 0.18365 0.0
C5891 C 0.56988 0.65609 0.17445 0.0
C5892 C 0.5714 0.65072 0.19409 0.0
C5893 C 0.55977 0.65244 0.1956 0.0
C5894 C 0.55334 0.65655 0.18657 0.0
C5895 C 0.55834 0.65834 0.17609 0.0
H5896 H 0.10212 0.78037 0.95673 0.0
H5897 H 0.12645 0.80657 0.96437 0.0
H5898 H 0.09939 0.78819 0.93792 0.0
H5899 H 0.12356 0.8145 0.94579 0.0
H5900 H 0.12285 0.82227 0.90927 0.0
H5901 H 0.12666 0.81085 0.92579 0.0
H5902 H 0.09082 0.80542 0.93008 0.0
H5903 H 0.08702 0.81684 0.91353 0.0
C5904 C 0.10696 0.78772 0.95435 0.0
C5905 C 0.11444 0.79291 0.96204 0.0
C5906 C 0.10533 0.79224 0.94362 0.0
C5907 C 0.11126 0.80196 0.94035 0.0
C5908 C 0.11897 0.80693 0.94797 0.0
C5909 C 0.12052 0.80247 0.95867 0.0
C5910 C 0.11579 0.81853 0.91367 0.0
C5911 C 0.10463 0.82057 0.91018 0.0
C5912 C 0.11797 0.81201 0.92314 0.0
C5913 C 0.10903 0.80737 0.92934 0.0
C5914 C 0.0979 0.80882 0.92545 0.0
C5915 C 0.09572 0.81535 0.91595 0.0
H5916 H 0.9664 0.3565 0.72995 0.0
H5917 H 0.94263 0.38344 0.735 0.0
H5918 H 0.95821 0.35277 0.71135 0.0
H5919 H 0.93452 0.3798 0.71649 0.0
H5920 H 0.91531 0.36493 0.68749 0.0
H5921 H 0.9233 0.36611 0.70635 0.0
H5922 H 0.95671 0.3611 0.69282 0.0
H5923 H 0.94864 0.35938 0.67396 0.0
C5924 C 0.95948 0.36166 0.72706 0.0
C5925 C 0.95512 0.37022 0.73398 0.0
C5926 C 0.95478 0.35952 0.71642 0.0
C5927 C 0.94563 0.36591 0.71246 0.0
C5928 C 0.94137 0.37453 0.71937 0.0
C5929 C 0.94604 0.37664 0.72998 0.0
C5930 C 0.92433 0.36379 0.68854 0.0
C5931 C 0.93134 0.36211 0.67917 0.0
C5932 C 0.92894 0.36464 0.69935 0.0
C5933 C 0.94067 0.36387 0.70109 0.0
C5934 C 0.94763 0.3617 0.6918 0.0
C5935 C 0.94302 0.36083 0.68097 0.0
H5936 H 0.38493 0.80334 0.04808 0.0
H5937 H 0.41756 0.8182 0.04132 0.0
H5938 H 0.3866 0.80916 0.06774 0.0
H5939 H 0.41899 0.82448 0.06077 0.0
H5940 H 0.42202 0.83113 0.0974 0.0
H5941 H 0.42104 0.81986 0.0802 0.0
H5942 H 0.38534 0.82683 0.07739 0.0
H5943 H 0.38622 0.83758 0.09484 0.0
C5944 C 0.39253 0.8077 0.05082 0.0
C5945 C 0.40105 0.81043 0.04309 0.0
C5946 C 0.39344 0.81115 0.06207 0.0
C5947 C 0.40287 0.81741 0.06584 0.0
C5948 C 0.41164 0.8196 0.05822 0.0
C5949 C 0.41075 0.81613 0.04701 0.0
C5950 C 0.41391 0.82999 0.09328 0.0
C5951 C 0.40423 0.83538 0.09742 0.0
C5952 C 0.41337 0.82364 0.08334 0.0
C5953 C 0.40315 0.82256 0.0773 0.0
C5954 C 0.39335 0.8274 0.08182 0.0
C5955 C 0.39388 0.8337 0.09177 0.0
H5956 H 0.98611 0.64784 0.79746 0.0
H5957 H 0.95697 0.64886 0.77541 0.0
H5958 H 0.97387 0.6504 0.81364 0.0
H5959 H 0.94486 0.65213 0.7915 0.0
H5960 H 0.92561 0.64211 0.82321 0.0
H5961 H 0.9376 0.6416 0.80671 0.0
H5962 H 0.96194 0.66312 0.82368 0.0
H5963 H 0.94996 0.66342 0.84035 0.0
C5964 C 0.97711 0.64869 0.79604 0.0
C5965 C 0.97255 0.64805 0.7851 0.0
C5966 C 0.9701 0.65032 0.80533 0.0
C5967 C 0.95835 0.65143 0.80391 0.0
C5968 C 0.95384 0.65114 0.79294 0.0
C5969 C 0.96083 0.64942 0.78368 0.0
C5970 C 0.93343 0.6469 0.82335 0.0
C5971 C 0.93682 0.65282 0.83308 0.0
C5972 C 0.94032 0.64662 0.81387 0.0
C5973 C 0.95077 0.65232 0.81383 0.0
C5974 C 0.95404 0.65848 0.82347 0.0
C5975 C 0.94716 0.6587 0.83301 0.0
H5976 H 0.10137 0.21277 0.54172 0.0
H5977 H 0.1309 0.19163 0.54111 0.0
H5978 H 0.09891 0.20877 0.56169 0.0
H5979 H 0.1282 0.18727 0.56083 0.0
H5980 H 0.12506 0.18438 0.59764 0.0
H5981 H 0.12855 0.19392 0.57989 0.0
H5982 H 0.09282 0.19255 0.57222 0.0
H5983 H 0.08936 0.18323 0.59004 0.0
C5984 C 0.10743 0.2074 0.54589 0.0
C5985 C 0.11626 0.20242 0.53981 0.0
C5986 C 0.10595 0.20502 0.5573 0.0
C5987 C 0.11331 0.19764 0.56287 0.0
C5988 C 0.12244 0.19309 0.55688 0.0
C5989 C 0.12391 0.19546 0.54552 0.0
C5990 C 0.11795 0.18632 0.59224 0.0
C5991 C 0.10695 0.18297 0.59517 0.0
C5992 C 0.11994 0.19174 0.58205 0.0
C5993 C 0.111 0.19384 0.57453 0.0
C5994 C 0.09991 0.19116 0.57783 0.0
C5995 C 0.09791 0.1858 0.58806 0.0
H5996 H 0.55905 0.35662 0.27574 0.0
H5997 H 0.52714 0.36671 0.28999 0.0
H5998 H 0.56615 0.35231 0.29442 0.0
H5999 H 0.53406 0.36184 0.30867 0.0
H6000 H 0.55647 0.36823 0.34008 0.0
H6001 H 0.54737 0.36977 0.32181 0.0
H6002 H 0.56498 0.34013 0.31035 0.0
H6003 H 0.57423 0.33869 0.3287 0.0
C6004 C 0.5535 0.35783 0.28286 0.0
C6005 C 0.54257 0.36217 0.28137 0.0
C6006 C 0.55753 0.35519 0.29357 0.0
C6007 C 0.55071 0.35677 0.30308 0.0
C6008 C 0.5396 0.36067 0.30155 0.0
C6009 C 0.53559 0.36335 0.29082 0.0
C6010 C 0.55823 0.36189 0.33375 0.0
C6011 C 0.56609 0.35334 0.33585 0.0
C6012 C 0.55299 0.36277 0.32325 0.0
C6013 C 0.55545 0.35509 0.31457 0.0
C6014 C 0.56303 0.3463 0.31678 0.0
C6015 C 0.56831 0.34545 0.3273 0.0
H6016 H 0.45081 0.38766 0.19881 0.0
H6017 H 0.43672 0.38834 0.23225 0.0
H6018 H 0.43199 0.3898 0.19082 0.0
H6019 H 0.41782 0.38984 0.22423 0.0
H6020 H 0.3861 0.40247 0.20676 0.0
H6021 H 0.40528 0.40218 0.21445 0.0
H6022 H 0.41514 0.379 0.18816 0.0
H6023 H 0.39607 0.37947 0.18042 0.0
C6024 C 0.44371 0.38832 0.20447 0.0
C6025 C 0.44531 0.38782 0.21619 0.0
C6026 C 0.43288 0.3894 0.19988 0.0
C6027 C 0.42335 0.38993 0.20686 0.0
C6028 C 0.42496 0.38957 0.21858 0.0
C6029 C 0.4358 0.38855 0.22319 0.0
C6030 C 0.39239 0.39733 0.20263 0.0
C6031 C 0.38958 0.39101 0.19297 0.0
C6032 C 0.40337 0.39713 0.20705 0.0
C6033 C 0.41177 0.39055 0.20194 0.0
C6034 C 0.40896 0.38432 0.19221 0.0
C6035 C 0.39801 0.38458 0.18776 0.0
H6036 H 0.38868 0.7181 0.967 0.0
H6037 H 0.35766 0.73236 0.95443 0.0
H6038 H 0.38566 0.70153 0.95521 0.0
H6039 H 0.35452 0.71568 0.9427 0.0
H6040 H 0.36052 0.69038 0.91368 0.0
H6041 H 0.36204 0.70663 0.92622 0.0
H6042 H 0.37403 0.68518 0.95285 0.0
H6043 H 0.37312 0.66908 0.94017 0.0
C6044 C 0.38112 0.71761 0.96184 0.0
C6045 C 0.37341 0.72654 0.96166 0.0
C6046 C 0.37936 0.7081 0.95509 0.0
C6047 C 0.36982 0.70724 0.94801 0.0
C6048 C 0.36204 0.71612 0.94793 0.0
C6049 C 0.36382 0.72567 0.95466 0.0
C6050 C 0.36351 0.68913 0.9222 0.0
C6051 C 0.36675 0.67841 0.92587 0.0
C6052 C 0.36425 0.69844 0.92944 0.0
C6053 C 0.36823 0.69724 0.94054 0.0
C6054 C 0.37111 0.68645 0.94431 0.0
C6055 C 0.37042 0.67717 0.93707 0.0
H6056 H 0.0605 0.61951 0.72107 0.0
H6057 H 0.05299 0.61983 0.68547 0.0
H6058 H 0.08069 0.6198 0.71693 0.0
H6059 H 0.07309 0.61964 0.68135 0.0
H6060 H 0.10888 0.63404 0.67879 0.0
H6061 H 0.08883 0.63261 0.68291 0.0
H6062 H 0.09595 0.60848 0.70892 0.0
H6063 H 0.11612 0.60992 0.70478 0.0
C6064 C 0.06315 0.61959 0.71237 0.0
C6065 C 0.05512 0.61967 0.70361 0.0
C6066 C 0.07472 0.61962 0.70999 0.0
C6067 C 0.07851 0.61977 0.69881 0.0
C6068 C 0.07047 0.61966 0.69006 0.0
C6069 C 0.05893 0.61963 0.69243 0.0
C6070 C 0.10617 0.62829 0.68527 0.0
C6071 C 0.11411 0.62204 0.69141 0.0
C6072 C 0.09466 0.62748 0.68764 0.0
C6073 C 0.09077 0.62041 0.69622 0.0
C6074 C 0.09869 0.61411 0.70235 0.0
C6075 C 0.11023 0.61492 0.69997 0.0
H6076 H 0.11927 0.2791 0.44232 0.0
H6077 H 0.15182 0.283 0.45855 0.0
H6078 H 0.12468 0.29297 0.42834 0.0
H6079 H 0.15726 0.29688 0.44453 0.0
H6080 H 0.15968 0.328 0.42196 0.0
H6081 H 0.1534 0.31573 0.43714 0.0
H6082 H 0.13778 0.29343 0.4127 0.0
H6083 H 0.14368 0.30582 0.39764 0.0
C6084 C 0.12758 0.28293 0.4429 0.0
C6085 C 0.13515 0.27987 0.45148 0.0
C6086 C 0.13069 0.29087 0.43489 0.0
C6087 C 0.14145 0.29594 0.43525 0.0
C6088 C 0.14887 0.2932 0.44407 0.0
C6089 C 0.14576 0.28525 0.45211 0.0
C6090 C 0.15481 0.32052 0.41986 0.0
C6091 C 0.15222 0.31786 0.40859 0.0
C6092 C 0.1513 0.31345 0.42854 0.0
C6093 C 0.14507 0.30362 0.42613 0.0
C6094 C 0.14244 0.30101 0.41487 0.0
C6095 C 0.14596 0.30804 0.40621 0.0
H6096 H 0.44794 0.63537 0.3058 0.0
H6097 H 0.43867 0.61109 0.28013 0.0
H6098 H 0.42977 0.63258 0.31484 0.0
H6099 H 0.42025 0.60851 0.28903 0.0
H6100 H 0.39693 0.5965 0.31863 0.0
H6101 H 0.41306 0.60012 0.30644 0.0
H6102 H 0.40966 0.63578 0.31256 0.0
H6103 H 0.39362 0.63214 0.3248 0.0
C6104 C 0.44198 0.62947 0.30205 0.0
C6105 C 0.44479 0.62338 0.29231 0.0
C6106 C 0.4315 0.62797 0.30715 0.0
C6107 C 0.42353 0.62034 0.30264 0.0
C6108 C 0.42623 0.6144 0.29275 0.0
C6109 C 0.43674 0.61594 0.28761 0.0
C6110 C 0.39947 0.60512 0.31715 0.0
C6111 C 0.3941 0.61403 0.32278 0.0
C6112 C 0.40871 0.60721 0.31016 0.0
C6113 C 0.41275 0.61824 0.30866 0.0
C6114 C 0.40692 0.62717 0.31374 0.0
C6115 C 0.39772 0.62509 0.32073 0.0
H6116 H 0.15745 0.7456 0.07148 0.0
H6117 H 0.12758 0.72695 0.06143 0.0
H6118 H 0.16386 0.72962 0.08243 0.0
H6119 H 0.13406 0.71087 0.07239 0.0
H6120 H 0.15474 0.68137 0.08745 0.0
H6121 H 0.14923 0.69625 0.07444 0.0
H6122 H 0.15685 0.7212 0.09998 0.0
H6123 H 0.16214 0.70648 0.11296 0.0
C6124 C 0.15228 0.73806 0.07157 0.0
C6125 C 0.14192 0.7376 0.06573 0.0
C6126 C 0.15595 0.72891 0.07784 0.0
C6127 C 0.14939 0.71905 0.0784 0.0
C6128 C 0.13932 0.71834 0.07208 0.0
C6129 C 0.13562 0.72754 0.0658 0.0
C6130 C 0.15518 0.69003 0.0903 0.0
C6131 C 0.159 0.69272 0.10123 0.0
C6132 C 0.15204 0.69854 0.08284 0.0
C6133 C 0.15272 0.7099 0.08615 0.0
C6134 C 0.15648 0.71255 0.09708 0.0
C6135 C 0.15954 0.70409 0.10453 0.0
H6136 H 0.06512 0.39308 0.77555 0.0
H6137 H 0.05435 0.38476 0.80914 0.0
H6138 H 0.08468 0.39416 0.78213 0.0
H6139 H 0.07384 0.38596 0.8157 0.0
H6140 H 0.1088 0.39861 0.82589 0.0
H6141 H 0.08941 0.39947 0.81885 0.0
H6142 H 0.09921 0.38114 0.78902 0.0
H6143 H 0.11852 0.38017 0.79607 0.0
C6144 C 0.06692 0.39145 0.78432 0.0
C6145 C 0.05814 0.38882 0.7918 0.0
C6146 C 0.07812 0.39209 0.78809 0.0
C6147 C 0.08081 0.39017 0.79944 0.0
C6148 C 0.07204 0.38768 0.80695 0.0
C6149 C 0.06085 0.38699 0.80317 0.0
C6150 C 0.10682 0.39477 0.81783 0.0
C6151 C 0.11523 0.3893 0.81157 0.0
C6152 C 0.09571 0.39526 0.8138 0.0
C6153 C 0.09276 0.39034 0.8034 0.0
C6154 C 0.10123 0.38515 0.79699 0.0
C6155 C 0.11232 0.38462 0.80104 0.0
H6156 H 0.36281 0.29276 0.53465 0.0
H6157 H 0.36772 0.27242 0.56421 0.0
H6158 H 0.36019 0.30927 0.54657 0.0
H6159 H 0.36441 0.28875 0.5761 0.0
H6160 H 0.37342 0.32252 0.59276 0.0
H6161 H 0.37416 0.30548 0.5814 0.0
H6162 H 0.34793 0.31841 0.55971 0.0
H6163 H 0.34736 0.33562 0.57104 0.0
C6164 C 0.36327 0.29179 0.54368 0.0
C6165 C 0.36555 0.28125 0.54844 0.0
C6166 C 0.36159 0.30123 0.55053 0.0
C6167 C 0.36211 0.30037 0.56232 0.0
C6168 C 0.36411 0.28977 0.56707 0.0
C6169 C 0.36586 0.28036 0.56023 0.0
C6170 C 0.36766 0.32164 0.58569 0.0
C6171 C 0.36031 0.33041 0.58281 0.0
C6172 C 0.36808 0.31186 0.57916 0.0
C6173 C 0.36112 0.31055 0.56961 0.0
C6174 C 0.35355 0.31921 0.5669 0.0
C6175 C 0.35318 0.32905 0.57341 0.0
H6176 H 0.20668 0.44989 0.38503 0.0
H6177 H 0.17097 0.45725 0.38469 0.0
H6178 H 0.20237 0.42987 0.38308 0.0
H6179 H 0.16667 0.43729 0.38325 0.0
H6180 H 0.16337 0.40259 0.3671 0.0
H6181 H 0.168 0.42243 0.36941 0.0
H6182 H 0.19426 0.41401 0.39324 0.0
H6183 H 0.18963 0.39407 0.39087 0.0
C6184 C 0.19792 0.44724 0.38457 0.0
C6185 C 0.18918 0.45519 0.385 0.0
C6186 C 0.19544 0.43576 0.38358 0.0
C6187 C 0.18417 0.43197 0.38298 0.0
C6188 C 0.17545 0.43992 0.38354 0.0
C6189 C 0.17792 0.45137 0.38452 0.0
C6190 C 0.17005 0.40497 0.37293 0.0
C6191 C 0.17608 0.39676 0.37886 0.0
C6192 C 0.17271 0.41635 0.37425 0.0
C6193 C 0.18147 0.41982 0.38156 0.0
C6194 C 0.18755 0.41161 0.38745 0.0
C6195 C 0.18489 0.40019 0.38611 0.0
H6196 H 0.7012 0.05314 0.63854 0.0
H6197 H 0.69917 0.05664 0.60246 0.0
H6198 H 0.69654 0.07297 0.64086 0.0
H6199 H 0.69422 0.07643 0.6048 0.0
H6200 H 0.69584 0.1142 0.61372 0.0
H6201 H 0.70203 0.09475 0.61136 0.0
H6202 H 0.67958 0.08451 0.63793 0.0
H6203 H 0.67362 0.10392 0.64047 0.0
C6204 C 0.69988 0.05817 0.6311 0.0
C6205 C 0.70053 0.05332 0.62032 0.0
C6206 C 0.69708 0.0695 0.63244 0.0
C6207 C 0.69493 0.07624 0.62302 0.0
C6208 C 0.69589 0.07147 0.61222 0.0
C6209 C 0.69862 0.06012 0.61088 0.0
C6210 C 0.69229 0.10779 0.61909 0.0
C6211 C 0.68422 0.11059 0.62726 0.0
C6212 C 0.69577 0.09665 0.61768 0.0
C6213 C 0.69132 0.0881 0.62448 0.0
C6214 C 0.68327 0.09092 0.63265 0.0
C6215 C 0.67974 0.10202 0.63401 0.0
H6216 H 0.74325 0.95011 0.35503 0.0
H6217 H 0.71688 0.96985 0.37034 0.0
H6218 H 0.72919 0.93685 0.34789 0.0
H6219 H 0.70269 0.95671 0.36282 0.0
H6220 H 0.68335 0.92249 0.35917 0.0
H6221 H 0.69631 0.93726 0.36569 0.0
H6222 H 0.71409 0.93543 0.33412 0.0
H6223 H 0.7012 0.92067 0.32765 0.0
C6224 C 0.73444 0.95163 0.35686 0.0
C6225 C 0.7312 0.961 0.36332 0.0
C6226 C 0.72635 0.9441 0.35264 0.0
C6227 C 0.7148 0.94574 0.35474 0.0
C6228 C 0.71152 0.95517 0.36112 0.0
C6229 C 0.71964 0.96274 0.36533 0.0
C6230 C 0.68993 0.92537 0.35357 0.0
C6231 C 0.69132 0.92033 0.34294 0.0
C6232 C 0.69735 0.93384 0.3573 0.0
C6233 C 0.70631 0.93745 0.35047 0.0
C6234 C 0.70743 0.93268 0.33968 0.0
C6235 C 0.70004 0.92423 0.33597 0.0
H6236 H 0.7971 0.9539 0.1373 0.0
H6237 H 0.80129 0.95733 0.10144 0.0
H6238 H 0.80723 0.93607 0.13668 0.0
H6239 H 0.81165 0.9397 0.10086 0.0
H6240 H 0.82463 0.90428 0.1017 0.0
H6241 H 0.8106 0.91922 0.10332 0.0
H6242 H 0.82713 0.93135 0.13358 0.0
H6243 H 0.84093 0.91631 0.1321 0.0
C6244 C 0.80002 0.95076 0.12927 0.0
C6245 C 0.79848 0.95706 0.11944 0.0
C6246 C 0.80591 0.9406 0.12893 0.0
C6247 C 0.81031 0.9365 0.11874 0.0
C6248 C 0.8083 0.94256 0.10883 0.0
C6249 C 0.80247 0.95273 0.10918 0.0
C6250 C 0.82509 0.91 0.10883 0.0
C6251 C 0.83393 0.9092 0.11672 0.0
C6252 C 0.81713 0.9186 0.1097 0.0
C6253 C 0.8178 0.92652 0.11853 0.0
C6254 C 0.82631 0.92535 0.12673 0.0
C6255 C 0.83429 0.9168 0.12582 0.0
H6256 H 0.26871 0.54055 0.34617 0.0
H6257 H 0.27858 0.53686 0.38095 0.0
H6258 H 0.28484 0.55318 0.3432 0.0
H6259 H 0.29469 0.54937 0.37797 0.0
H6260 H 0.31337 0.58247 0.37181 0.0
H6261 H 0.29709 0.56999 0.37379 0.0
H6262 H 0.30641 0.5525 0.34331 0.0
H6263 H 0.32272 0.5651 0.34126 0.0
C6264 C 0.27435 0.54242 0.35316 0.0
C6265 C 0.2724 0.53773 0.36379 0.0
C6266 C 0.28359 0.54958 0.35144 0.0
C6267 C 0.29097 0.5523 0.36037 0.0
C6268 C 0.28908 0.54751 0.37097 0.0
C6269 C 0.27992 0.54027 0.37264 0.0
C6270 C 0.31186 0.57607 0.36544 0.0
C6271 C 0.31931 0.57478 0.35636 0.0
C6272 C 0.30261 0.56885 0.36664 0.0
C6273 C 0.30054 0.56023 0.35875 0.0
C6274 C 0.3078 0.5591 0.3495 0.0
C6275 C 0.31714 0.56626 0.34836 0.0
H6276 H 0.31954 0.54576 0.87763 0.0
H6277 H 0.2901 0.56278 0.89041 0.0
H6278 H 0.33006 0.56336 0.87805 0.0
H6279 H 0.30058 0.5806 0.89051 0.0
H6280 H 0.32913 0.60552 0.903 0.0
H6281 H 0.31636 0.58939 0.90104 0.0
H6282 H 0.33119 0.58141 0.86886 0.0
H6283 H 0.34399 0.59743 0.8709 0.0
C6284 C 0.3153 0.55329 0.88051 0.0
C6285 C 0.30402 0.55286 0.88409 0.0
C6286 C 0.32129 0.56342 0.88061 0.0
C6287 C 0.31616 0.57341 0.88427 0.0
C6288 C 0.3048 0.57304 0.88771 0.0
C6289 C 0.29877 0.56286 0.88757 0.0
C6290 C 0.3295 0.60044 0.89542 0.0
C6291 C 0.33766 0.60265 0.88717 0.0
C6292 C 0.32218 0.5912 0.89429 0.0
C6293 C 0.32286 0.58402 0.88486 0.0
C6294 C 0.33062 0.58662 0.87635 0.0
C6295 C 0.33794 0.59581 0.8775 0.0
H6296 H 0.7326 0.0652 0.12196 0.0
H6297 H 0.74136 0.05538 0.15579 0.0
H6298 H 0.71682 0.0761 0.1292 0.0
H6299 H 0.72556 0.0663 0.16303 0.0
H6300 H 0.6915 0.08185 0.17182 0.0
H6301 H 0.7048 0.06841 0.16366 0.0
H6302 H 0.7157 0.09359 0.14002 0.0
H6303 H 0.70228 0.10683 0.14795 0.0
C6304 C 0.73112 0.06532 0.13094 0.0
C6305 C 0.73831 0.05952 0.13831 0.0
C6306 C 0.72208 0.07157 0.13509 0.0
C6307 C 0.72001 0.07217 0.1467 0.0
C6308 C 0.72686 0.06593 0.15403 0.0
C6309 C 0.73592 0.05967 0.14987 0.0
C6310 C 0.69663 0.08443 0.16477 0.0
C6311 C 0.6959 0.09541 0.16057 0.0
C6312 C 0.70431 0.07678 0.16017 0.0
C6313 C 0.71131 0.07993 0.1512 0.0
C6314 C 0.71035 0.09083 0.14683 0.0
C6315 C 0.70274 0.09847 0.15146 0.0
H6316 H 0.77859 0.95543 0.62516 0.0
H6317 H 0.78059 0.97365 0.65667 0.0
H6318 H 0.79206 0.94175 0.63226 0.0
H6319 H 0.79439 0.96019 0.66364 0.0
H6320 H 0.80541 0.92543 0.67677 0.0
H6321 H 0.79391 0.94069 0.66954 0.0
H6322 H 0.81163 0.93893 0.63793 0.0
H6323 H 0.82289 0.92336 0.64504 0.0
C6324 C 0.78198 0.95656 0.63357 0.0
C6325 C 0.77844 0.96558 0.64038 0.0
C6326 C 0.7898 0.94879 0.6376 0.0
C6327 C 0.79428 0.94985 0.64854 0.0
C6328 C 0.791 0.95906 0.65522 0.0
C6329 C 0.78319 0.96685 0.65118 0.0
C6330 C 0.80685 0.92829 0.66827 0.0
C6331 C 0.81501 0.92311 0.66145 0.0
C6332 C 0.80034 0.93713 0.66417 0.0
C6333 C 0.80183 0.94103 0.65314 0.0
C6334 C 0.81019 0.93605 0.64642 0.0
C6335 C 0.81672 0.92721 0.65053 0.0
loop_
_geom_bond_atom_site_label_1
_geom_bond_atom_site_label_2
_geom_bond_distance
_geom_bond_site_symmetry_2
_ccdc_geom_bond_type
C0 C1 1.264 . S
C0 C5 1.479 . S
C0 C10 1.465 . S
C1 C0 1.264 . S
C1 C3 1.339 . S
C1 H28 0.931 . S
C2 C3 1.395 . S
C2 C4 1.320 . S
C3 C1 1.339 . S
C3 C2 1.395 . S
C3 H29 0.929 . S
C4 C2 1.320 . S
C4 C5 1.405 . S
C4 H30 0.930 . S
C5 C0 1.479 . S
C5 C4 1.405 . S
C5 H31 0.931 . S
U6 O7 2.454 . S
U6 O8 2.458 . S
U6 C9 2.984 . S
U6 C10 2.847 1_455 S
U6 C23 2.882 . S
U6 O24 2.380 1_455 S
U6 O25 2.420 . S
U6 O26 2.455 . S
U6 O27 2.449 . S
O7 U6 2.454 . S
O7 C9 1.353 . S
O8 U6 2.458 . S
O8 C9 1.286 . S
C9 U6 2.984 . S
C9 O7 1.353 . S
C9 O8 1.286 . S
C9 C11 1.363 . S
C10 C0 1.465 . S
C10 U6 2.847 1_655 S
C10 O24 1.261 . S
C10 O25 1.202 1_655 S
C11 C9 1.363 . S
C11 C13 1.408 . S
C11 C16 1.342 . S
C12 C13 1.310 . S
C12 C15 1.461 . S
C12 H32 0.932 . S
C13 C11 1.408 . S
C13 C12 1.310 . S
C13 H33 0.930 . S
C14 C15 1.474 . S
C14 C16 1.285 . S
C14 H34 0.929 . S
C15 C12 1.461 . S
C15 C14 1.474 . S
C16 C11 1.342 . S
C16 C14 1.285 . S
C16 H35 0.930 . S
C17 C20 1.424 . S
C17 C22 1.245 . S
C17 C23 1.428 . S
C18 C21 1.260 . S
C18 C22 1.477 . S
C18 H36 0.932 . S
C19 C20 1.384 . S
C19 C21 1.479 . S
C19 H37 0.929 . S
C20 C17 1.424 . S
C20 C19 1.384 . S
C20 H38 0.928 . S
C21 C18 1.260 . S
C21 C19 1.479 . S
C22 C17 1.245 . S
C22 C18 1.477 . S
C22 H39 0.932 . S
C23 U6 2.882 . S
C23 C17 1.428 . S
C23 O26 1.301 . S
C23 O27 1.282 . S
O24 U6 2.380 1_655 S
O24 C10 1.261 . S
O25 U6 2.420 . S
O25 C10 1.202 1_455 S
O26 U6 2.455 . S
O26 C23 1.301 . S
O27 U6 2.449 . S
O27 C23 1.282 . S
H28 C1 0.931 . S
H29 C3 0.929 . S
H30 C4 0.930 . S
H31 C5 0.931 . S
H32 C12 0.932 . S
H33 C13 0.930 . S
H34 C14 0.929 . S
H35 C16 0.930 . S
H36 C18 0.932 . S
H37 C19 0.929 . S
H38 C20 0.928 . S
H39 C22 0.932 . S
C40 C41 1.264 . S
C40 C45 1.479 . S
C40 C50 1.465 . S
C41 C40 1.264 . S
C41 C43 1.339 . S
C41 H68 0.931 . S
C42 C43 1.395 . S
C42 C44 1.320 . S
C43 C41 1.339 . S
C43 C42 1.395 . S
C43 H69 0.929 . S
C44 C42 1.320 . S
C44 C45 1.405 . S
C44 H70 0.930 . S
C45 C40 1.479 . S
C45 C44 1.405 . S
C45 H71 0.931 . S
U46 O47 2.454 . S
U46 O48 2.458 . S
U46 C49 2.984 . S
U46 C50 2.847 . S
U46 C63 2.882 . S
U46 O64 2.441 . S
U46 O65 2.420 . S
U46 O66 2.455 . S
U46 O67 2.449 . S
O47 U46 2.454 . S
O47 C49 1.353 . S
O48 U46 2.458 . S
O48 C49 1.286 . S
C49 U46 2.984 . S
C49 O47 1.353 . S
C49 O48 1.286 . S
C49 C51 1.363 . S
C50 C40 1.465 . S
C50 U46 2.847 . S
C50 O64 1.249 . S
C50 O65 1.202 . S
C51 C49 1.363 . S
C51 C53 1.408 . S
C51 C56 1.342 . S
C52 C53 1.310 . S
C52 C55 1.461 . S
C52 H72 0.932 . S
C53 C51 1.408 . S
C53 C52 1.310 . S
C53 H73 0.930 . S
C54 C55 1.474 . S
C54 C56 1.285 . S
C54 H74 0.929 . S
C55 C52 1.461 . S
C55 C54 1.474 . S
C56 C51 1.342 . S
C56 C54 1.285 . S
C56 H75 0.930 . S
C57 C60 1.424 . S
C57 C62 1.245 . S
C57 C63 1.428 . S
C58 C61 1.260 . S
C58 C62 1.477 . S
C58 H76 0.932 . S
C59 C60 1.384 . S
C59 C61 1.479 . S
C59 H77 0.929 . S
C60 C57 1.424 . S
C60 C59 1.384 . S
C60 H78 0.928 . S
C61 C58 1.260 . S
C61 C59 1.479 . S
C62 C57 1.245 . S
C62 C58 1.477 . S
C62 H79 0.932 . S
C63 U46 2.882 . S
C63 C57 1.428 . S
C63 O66 1.301 . S
C63 O67 1.282 . S
O64 U46 2.441 . S
O64 C50 1.249 . S
O65 U46 2.420 . S
O65 C50 1.202 . S
O66 U46 2.455 . S
O66 C63 1.301 . S
O67 U46 2.449 . S
O67 C63 1.282 . S
H68 C41 0.931 . S
H69 C43 0.929 . S
H70 C44 0.930 . S
H71 C45 0.931 . S
H72 C52 0.932 . S
H73 C53 0.930 . S
H74 C54 0.929 . S
H75 C56 0.930 . S
H76 C58 0.932 . S
H77 C59 0.929 . S
H78 C60 0.928 . S
H79 C62 0.932 . S
C80 C81 1.264 . S
C80 C85 1.479 . S
C80 C90 1.465 . S
C81 C80 1.264 . S
C81 C83 1.339 . S
C81 H108 0.931 . S
C82 C83 1.395 . S
C82 C84 1.320 . S
C83 C81 1.339 . S
C83 C82 1.395 . S
C83 H109 0.929 . S
C84 C82 1.320 . S
C84 C85 1.405 . S
C84 H110 0.930 . S
C85 C80 1.479 . S
C85 C84 1.405 . S
C85 H111 0.931 . S
U86 O87 2.454 . S
U86 O88 2.458 . S
U86 C89 2.984 . S
U86 C90 2.847 . S
U86 C103 2.882 . S
U86 O104 2.441 . S
U86 O105 2.420 . S
U86 O106 2.455 . S
U86 O107 2.449 . S
O87 U86 2.454 . S
O87 C89 1.353 . S
O88 U86 2.458 . S
O88 C89 1.286 . S
C89 U86 2.984 . S
C89 O87 1.353 . S
C89 O88 1.286 . S
C89 C91 1.363 . S
C90 C80 1.465 . S
C90 U86 2.847 . S
C90 O104 1.249 . S
C90 O105 1.202 . S
C91 C89 1.363 . S
C91 C93 1.408 . S
C91 C96 1.342 . S
C92 C93 1.310 . S
C92 C95 1.461 . S
C92 H112 0.932 . S
C93 C91 1.408 . S
C93 C92 1.310 . S
C93 H113 0.930 . S
C94 C95 1.474 . S
C94 C96 1.285 . S
C94 H114 0.929 . S
C95 C92 1.461 . S
C95 C94 1.474 . S
C96 C91 1.342 . S
C96 C94 1.285 . S
C96 H115 0.930 . S
C97 C100 1.424 . S
C97 C102 1.245 . S
C97 C103 1.428 . S
C98 C101 1.260 . S
C98 C102 1.477 . S
C98 H116 0.932 . S
C99 C100 1.384 . S
C99 C101 1.479 . S
C99 H117 0.929 . S
C100 C97 1.424 . S
C100 C99 1.384 . S
C100 H118 0.928 . S
C101 C98 1.260 . S
C101 C99 1.479 . S
C102 C97 1.245 . S
C102 C98 1.477 . S
C102 H119 0.932 . S
C103 U86 2.882 . S
C103 C97 1.428 . S
C103 O106 1.301 . S
C103 O107 1.282 . S
O104 U86 2.441 . S
O104 C90 1.249 . S
O105 U86 2.420 . S
O105 C90 1.202 . S
O106 U86 2.455 . S
O106 C103 1.301 . S
O107 U86 2.449 . S
O107 C103 1.282 . S
H108 C81 0.931 . S
H109 C83 0.929 . S
H110 C84 0.930 . S
H111 C85 0.931 . S
H112 C92 0.932 . S
H113 C93 0.930 . S
H114 C94 0.929 . S
H115 C96 0.930 . S
H116 C98 0.932 . S
H117 C99 0.929 . S
H118 C100 0.928 . S
H119 C102 0.932 . S
C120 C121 1.264 . S
C120 C125 1.479 . S
C120 C130 1.465 . S
C121 C120 1.264 . S
C121 C123 1.339 . S
C121 H148 0.931 . S
C122 C123 1.395 . S
C122 C124 1.320 . S
C123 C121 1.339 . S
C123 C122 1.395 . S
C123 H149 0.929 . S
C124 C122 1.320 . S
C124 C125 1.405 . S
C124 H150 0.930 . S
C125 C120 1.479 . S
C125 C124 1.405 . S
C125 H151 0.931 . S
U126 O127 2.454 . S
U126 O128 2.458 . S
U126 C129 2.984 . S
U126 C130 2.847 . S
U126 C143 2.882 . S
U126 O144 2.441 . S
U126 O145 2.420 . S
U126 O146 2.455 . S
U126 O147 2.449 . S
O127 U126 2.454 . S
O127 C129 1.353 . S
O128 U126 2.458 . S
O128 C129 1.286 . S
C129 U126 2.984 . S
C129 O127 1.353 . S
C129 O128 1.286 . S
C129 C131 1.363 . S
C130 C120 1.465 . S
C130 U126 2.847 . S
C130 O144 1.249 . S
C130 O145 1.202 . S
C131 C129 1.363 . S
C131 C133 1.408 1_554 S
C131 C136 1.342 . S
C132 C133 1.310 . S
C132 C135 1.461 . S
C132 H152 0.932 . S
C133 C131 1.408 1_556 S
C133 C132 1.310 . S
C133 H153 0.930 . S
C134 C135 1.474 . S
C134 C136 1.285 1_556 S
C134 H154 0.929 . S
C135 C132 1.461 . S
C135 C134 1.474 . S
C136 C131 1.342 . S
C136 C134 1.285 1_554 S
C136 H155 0.930 . S
C137 C140 1.424 . S
C137 C142 1.245 . S
C137 C143 1.428 . S
C138 C141 1.260 . S
C138 C142 1.477 . S
C138 H156 0.932 . S
C139 C140 1.384 . S
C139 C141 1.479 . S
C139 H157 0.929 . S
C140 C137 1.424 . S
C140 C139 1.384 . S
C140 H158 0.928 . S
C141 C138 1.260 . S
C141 C139 1.479 . S
C142 C137 1.245 . S
C142 C138 1.477 . S
C142 H159 0.932 . S
C143 U126 2.882 . S
C143 C137 1.428 . S
C143 O146 1.301 . S
C143 O147 1.282 . S
O144 U126 2.441 . S
O144 C130 1.249 . S
O145 U126 2.420 . S
O145 C130 1.202 . S
O146 U126 2.455 . S
O146 C143 1.301 . S
O147 U126 2.449 . S
O147 C143 1.282 . S
H148 C121 0.931 . S
H149 C123 0.929 . S
H150 C124 0.930 . S
H151 C125 0.931 . S
H152 C132 0.932 . S
H153 C133 0.930 . S
H154 C134 0.929 . S
H155 C136 0.930 . S
H156 C138 0.932 . S
H157 C139 0.929 . S
H158 C140 0.928 . S
H159 C142 0.932 . S
C160 C161 1.264 . S
C160 C165 1.479 . S
C160 C170 1.412 1_655 S
C161 C160 1.264 . S
C161 C163 1.339 . S
C161 H188 0.931 . S
C162 C163 1.395 . S
C162 C164 1.320 . S
C163 C161 1.339 . S
C163 C162 1.395 . S
C163 H189 0.929 . S
C164 C162 1.320 . S
C164 C165 1.405 . S
C164 H190 0.930 . S
C165 C160 1.479 . S
C165 C164 1.405 . S
C165 H191 0.931 . S
U166 O167 2.454 . S
U166 O168 2.458 . S
U166 C169 2.984 . S
U166 C170 2.907 . S
U166 C183 2.882 . S
U166 O184 2.441 . S
U166 O185 2.420 . S
U166 O186 2.455 . S
U166 O187 2.449 . S
O167 U166 2.454 . S
O167 C169 1.353 . S
O168 U166 2.458 . S
O168 C169 1.286 . S
C169 U166 2.984 . S
C169 O167 1.353 . S
C169 O168 1.286 . S
C169 C171 1.363 . S
C170 C160 1.412 1_455 S
C170 U166 2.907 . S
C170 O184 1.261 . S
C170 O185 1.254 . S
C171 C169 1.363 . S
C171 C173 1.408 . S
C171 C176 1.342 . S
C172 C173 1.310 . S
C172 C175 1.461 . S
C172 H192 0.932 . S
C173 C171 1.408 . S
C173 C172 1.310 . S
C173 H193 0.930 . S
C174 C175 1.474 . S
C174 C176 1.285 . S
C174 H194 0.929 . S
C175 C172 1.461 . S
C175 C174 1.474 . S
C176 C171 1.342 . S
C176 C174 1.285 . S
C176 H195 0.930 . S
C177 C180 1.424 . S
C177 C182 1.245 . S
C177 C183 1.428 . S
C178 C181 1.260 . S
C178 C182 1.477 . S
C178 H196 0.932 . S
C179 C180 1.384 . S
C179 C181 1.479 . S
C179 H197 0.929 . S
C180 C177 1.424 . S
C180 C179 1.384 . S
C180 H198 0.928 . S
C181 C178 1.260 . S
C181 C179 1.479 . S
C182 C177 1.245 . S
C182 C178 1.477 . S
C182 H199 0.932 . S
C183 U166 2.882 . S
C183 C177 1.428 . S
C183 O186 1.301 . S
C183 O187 1.282 . S
O184 U166 2.441 . S
O184 C170 1.261 . S
O185 U166 2.420 . S
O185 C170 1.254 . S
O186 U166 2.455 . S
O186 C183 1.301 . S
O187 U166 2.449 . S
O187 C183 1.282 . S
H188 C161 0.931 . S
H189 C163 0.929 . S
H190 C164 0.930 . S
H191 C165 0.931 . S
H192 C172 0.932 . S
H193 C173 0.930 . S
H194 C174 0.929 . S
H195 C176 0.930 . S
H196 C178 0.932 . S
H197 C179 0.929 . S
H198 C180 0.928 . S
H199 C182 0.932 . S
C200 C201 1.264 . S
C200 C205 1.479 . S
C200 C210 1.465 . S
C201 C200 1.264 . S
C201 C203 1.339 . S
C201 H228 0.931 . S
C202 C203 1.395 . S
C202 C204 1.320 . S
C203 C201 1.339 . S
C203 C202 1.395 . S
C203 H229 0.929 . S
C204 C202 1.320 . S
C204 C205 1.405 . S
C204 H230 0.930 . S
C205 C200 1.479 . S
C205 C204 1.405 . S
C205 H231 0.931 . S
U206 O207 2.454 . S
U206 O208 2.458 . S
U206 C209 2.984 . S
U206 C210 2.847 . S
U206 C223 2.882 . S
U206 O224 2.441 . S
U206 O225 2.420 . S
U206 O226 2.455 . S
U206 O227 2.449 . S
O207 U206 2.454 . S
O207 C209 1.353 . S
O208 U206 2.458 . S
O208 C209 1.286 . S
C209 U206 2.984 . S
C209 O207 1.353 . S
C209 O208 1.286 . S
C209 C211 1.363 . S
C210 C200 1.465 . S
C210 U206 2.847 . S
C210 O224 1.249 . S
C210 O225 1.202 . S
C211 C209 1.363 . S
C211 C213 1.408 . S
C211 C216 1.342 . S
C212 C213 1.310 . S
C212 C215 1.461 . S
C212 H232 0.932 . S
C213 C211 1.408 . S
C213 C212 1.310 . S
C213 H233 0.930 . S
C214 C215 1.474 . S
C214 C216 1.285 . S
C214 H234 0.929 . S
C215 C212 1.461 . S
C215 C214 1.474 . S
C216 C211 1.342 . S
C216 C214 1.285 . S
C216 H235 0.930 . S
C217 C220 1.424 . S
C217 C222 1.245 . S
C217 C223 1.428 . S
C218 C221 1.260 . S
C218 C222 1.477 . S
C218 H236 0.932 . S
C219 C220 1.384 . S
C219 C221 1.479 . S
C219 H237 0.929 . S
C220 C217 1.424 . S
C220 C219 1.384 . S
C220 H238 0.928 . S
C221 C218 1.260 . S
C221 C219 1.479 . S
C222 C217 1.245 . S
C222 C218 1.477 . S
C222 H239 0.932 . S
C223 U206 2.882 . S
C223 C217 1.428 . S
C223 O226 1.301 . S
C223 O227 1.282 . S
O224 U206 2.441 . S
O224 C210 1.249 . S
O225 U206 2.420 . S
O225 C210 1.202 . S
O226 U206 2.455 . S
O226 C223 1.301 . S
O227 U206 2.449 . S
O227 C223 1.282 . S
H228 C201 0.931 . S
H229 C203 0.929 . S
H230 C204 0.930 . S
H231 C205 0.931 . S
H232 C212 0.932 . S
H233 C213 0.930 . S
H234 C214 0.929 . S
H235 C216 0.930 . S
H236 C218 0.932 . S
H237 C219 0.929 . S
H238 C220 0.928 . S
H239 C222 0.932 . S
C240 C241 1.264 . S
C240 C245 1.479 . S
C240 C250 1.465 . S
C241 C240 1.264 . S
C241 C243 1.339 . S
C241 H268 0.931 . S
C242 C243 1.395 . S
C242 C244 1.320 . S
C243 C241 1.339 . S
C243 C242 1.395 . S
C243 H269 0.929 . S
C244 C242 1.320 . S
C244 C245 1.405 . S
C244 H270 0.930 . S
C245 C240 1.479 . S
C245 C244 1.405 . S
C245 H271 0.931 . S
U246 O247 2.454 . S
U246 O248 2.458 . S
U246 C249 2.984 . S
U246 C250 2.847 . S
U246 C263 2.882 . S
U246 O264 2.441 . S
U246 O265 2.420 . S
U246 O266 2.455 . S
U246 O267 2.449 . S
O247 U246 2.454 . S
O247 C249 1.353 . S
O248 U246 2.458 . S
O248 C249 1.286 . S
C249 U246 2.984 . S
C249 O247 1.353 . S
C249 O248 1.286 . S
C249 C251 1.363 . S
C250 C240 1.465 . S
C250 U246 2.847 . S
C250 O264 1.249 . S
C250 O265 1.202 . S
C251 C249 1.363 . S
C251 C253 1.408 . S
C251 C256 1.342 . S
C252 C253 1.310 . S
C252 C255 1.461 . S
C252 H272 0.932 . S
C253 C251 1.408 . S
C253 C252 1.310 . S
C253 H273 0.930 . S
C254 C255 1.474 . S
C254 C256 1.285 . S
C254 H274 0.929 . S
C255 C252 1.461 . S
C255 C254 1.474 . S
C256 C251 1.342 . S
C256 C254 1.285 . S
C256 H275 0.930 . S
C257 C260 1.424 . S
C257 C262 1.245 . S
C257 C263 1.428 . S
C258 C261 1.260 . S
C258 C262 1.477 . S
C258 H276 0.932 . S
C259 C260 1.384 . S
C259 C261 1.479 . S
C259 H277 0.929 . S
C260 C257 1.424 . S
C260 C259 1.384 . S
C260 H278 0.928 . S
C261 C258 1.260 . S
C261 C259 1.479 . S
C262 C257 1.245 . S
C262 C258 1.477 . S
C262 H279 0.932 . S
C263 U246 2.882 . S
C263 C257 1.428 . S
C263 O266 1.301 . S
C263 O267 1.282 . S
O264 U246 2.441 . S
O264 C250 1.249 . S
O265 U246 2.420 . S
O265 C250 1.202 . S
O266 U246 2.455 . S
O266 C263 1.301 . S
O267 U246 2.449 . S
O267 C263 1.282 . S
H268 C241 0.931 . S
H269 C243 0.929 . S
H270 C244 0.930 . S
H271 C245 0.931 . S
H272 C252 0.932 . S
H273 C253 0.930 . S
H274 C254 0.929 . S
H275 C256 0.930 . S
H276 C258 0.932 . S
H277 C259 0.929 . S
H278 C260 0.928 . S
H279 C262 0.932 . S
C280 C281 1.264 . S
C280 C285 1.479 . S
C280 C290 1.465 1_554 S
C281 C280 1.264 . S
C281 C283 1.339 . S
C281 H308 0.931 1_554 S
C282 C283 1.395 . S
C282 C284 1.320 . S
C283 C281 1.339 . S
C283 C282 1.395 . S
C283 H309 0.929 . S
C284 C282 1.320 . S
C284 C285 1.405 . S
C284 H310 0.930 . S
C285 C280 1.479 . S
C285 C284 1.405 . S
C285 H311 0.931 . S
U286 O287 2.454 . S
U286 O288 2.458 . S
U286 C289 2.984 . S
U286 C290 2.847 . S
U286 C303 2.882 . S
U286 O304 2.441 . S
U286 O305 2.420 . S
U286 O306 2.455 . S
U286 O307 2.449 . S
O287 U286 2.454 . S
O287 C289 1.353 . S
O288 U286 2.458 . S
O288 C289 1.286 . S
C289 U286 2.984 . S
C289 O287 1.353 . S
C289 O288 1.286 . S
C289 C291 1.363 . S
C290 C280 1.465 1_556 S
C290 U286 2.847 . S
C290 O304 1.249 . S
C290 O305 1.202 . S
C291 C289 1.363 . S
C291 C293 1.408 . S
C291 C296 1.342 . S
C292 C293 1.310 . S
C292 C295 1.461 . S
C292 H312 0.932 . S
C293 C291 1.408 . S
C293 C292 1.310 . S
C293 H313 0.930 . S
C294 C295 1.474 . S
C294 C296 1.285 . S
C294 H314 0.929 . S
C295 C292 1.461 . S
C295 C294 1.474 . S
C296 C291 1.342 . S
C296 C294 1.285 . S
C296 H315 0.930 . S
C297 C300 1.424 . S
C297 C302 1.245 . S
C297 C303 1.428 . S
C298 C301 1.260 . S
C298 C302 1.477 . S
C298 H316 0.932 . S
C299 C300 1.384 . S
C299 C301 1.479 . S
C299 H317 0.929 . S
C300 C297 1.424 . S
C300 C299 1.384 . S
C300 H318 0.928 . S
C301 C298 1.260 . S
C301 C299 1.479 . S
C302 C297 1.245 . S
C302 C298 1.477 . S
C302 H319 0.932 . S
C303 U286 2.882 . S
C303 C297 1.428 . S
C303 O306 1.301 . S
C303 O307 1.282 . S
O304 U286 2.441 . S
O304 C290 1.249 . S
O305 U286 2.420 . S
O305 C290 1.202 . S
O306 U286 2.455 . S
O306 C303 1.301 . S
O307 U286 2.449 . S
O307 C303 1.282 . S
H308 C281 0.931 1_556 S
H309 C283 0.929 . S
H310 C284 0.930 . S
H311 C285 0.931 . S
H312 C292 0.932 . S
H313 C293 0.930 . S
H314 C294 0.929 . S
H315 C296 0.930 . S
H316 C298 0.932 . S
H317 C299 0.929 . S
H318 C300 0.928 . S
H319 C302 0.932 . S
C320 C321 1.264 . S
C320 C325 1.479 . S
C320 C330 1.465 . S
C321 C320 1.264 . S
C321 C323 1.339 . S
C321 H348 0.931 . S
C322 C323 1.395 . S
C322 C324 1.320 . S
C323 C321 1.339 . S
C323 C322 1.395 . S
C323 H349 0.929 . S
C324 C322 1.320 . S
C324 C325 1.405 . S
C324 H350 0.930 . S
C325 C320 1.479 . S
C325 C324 1.405 . S
C325 H351 0.931 . S
U326 O327 2.454 . S
U326 O328 2.458 . S
U326 C329 2.984 . S
U326 C330 2.847 . S
U326 C343 2.882 . S
U326 O344 2.441 . S
U326 O345 2.420 . S
U326 O346 2.455 . S
U326 O347 2.449 . S
O327 U326 2.454 . S
O327 C329 1.353 . S
O328 U326 2.458 . S
O328 C329 1.286 . S
C329 U326 2.984 . S
C329 O327 1.353 . S
C329 O328 1.286 . S
C329 C331 1.363 1_545 S
C330 C320 1.465 . S
C330 U326 2.847 . S
C330 O344 1.249 . S
C330 O345 1.202 . S
C331 C329 1.363 1_565 S
C331 C333 1.408 . S
C331 C336 1.342 . S
C332 C333 1.310 . S
C332 C335 1.461 . S
C332 H352 0.932 . S
C333 C331 1.408 . S
C333 C332 1.310 . S
C333 H353 0.930 . S
C334 C335 1.474 . S
C334 C336 1.285 . S
C334 H354 0.929 . S
C335 C332 1.461 . S
C335 C334 1.474 . S
C336 C331 1.342 . S
C336 C334 1.285 . S
C336 H355 0.930 1_565 S
C337 C340 1.424 . S
C337 C342 1.245 . S
C337 C343 1.428 . S
C338 C341 1.260 . S
C338 C342 1.477 . S
C338 H356 0.932 . S
C339 C340 1.384 . S
C339 C341 1.479 . S
C339 H357 0.929 . S
C340 C337 1.424 . S
C340 C339 1.384 . S
C340 H358 0.928 . S
C341 C338 1.260 . S
C341 C339 1.479 . S
C342 C337 1.245 . S
C342 C338 1.477 . S
C342 H359 0.932 . S
C343 U326 2.882 . S
C343 C337 1.428 . S
C343 O346 1.301 . S
C343 O347 1.282 . S
O344 U326 2.441 . S
O344 C330 1.249 . S
O345 U326 2.420 . S
O345 C330 1.202 . S
O346 U326 2.455 . S
O346 C343 1.301 . S
O347 U326 2.449 . S
O347 C343 1.282 . S
H348 C321 0.931 . S
H349 C323 0.929 . S
H350 C324 0.930 . S
H351 C325 0.931 . S
H352 C332 0.932 . S
H353 C333 0.930 . S
H354 C334 0.929 . S
H355 C336 0.930 1_545 S
H356 C338 0.932 . S
H357 C339 0.929 . S
H358 C340 0.928 . S
H359 C342 0.932 . S
C360 C361 1.262 . S
C360 C365 1.426 1_545 S
C360 C370 1.519 . S
C361 C360 1.262 . S
C361 C363 1.344 1_545 S
C361 H388 0.926 . S
C362 C363 1.395 . S
C362 C364 1.320 . S
C363 C361 1.344 1_565 S
C363 C362 1.395 . S
C363 H389 0.929 . S
C364 C362 1.320 . S
C364 C365 1.405 . S
C364 H390 0.930 . S
C365 C360 1.426 1_565 S
C365 C364 1.405 . S
C365 H391 0.931 . S
U366 O367 2.454 . S
U366 O368 2.458 . S
U366 C369 2.984 . S
U366 C370 2.847 . S
U366 C383 2.882 . S
U366 O384 2.441 . S
U366 O385 2.420 . S
U366 O386 2.455 . S
U366 O387 2.449 . S
O367 U366 2.454 . S
O367 C369 1.353 . S
O368 U366 2.458 . S
O368 C369 1.286 . S
C369 U366 2.984 . S
C369 O367 1.353 . S
C369 O368 1.286 . S
C369 C371 1.363 . S
C370 C360 1.519 . S
C370 U366 2.847 . S
C370 O384 1.249 . S
C370 O385 1.202 . S
C371 C369 1.363 . S
C371 C373 1.408 . S
C371 C376 1.342 . S
C372 C373 1.310 . S
C372 C375 1.461 . S
C372 H392 0.932 . S
C373 C371 1.408 . S
C373 C372 1.310 . S
C373 H393 0.930 . S
C374 C375 1.474 . S
C374 C376 1.285 . S
C374 H394 0.929 . S
C375 C372 1.461 . S
C375 C374 1.474 . S
C376 C371 1.342 . S
C376 C374 1.285 . S
C376 H395 0.930 . S
C377 C380 1.424 . S
C377 C382 1.245 . S
C377 C383 1.428 . S
C378 C381 1.260 . S
C378 C382 1.477 . S
C378 H396 0.932 . S
C379 C380 1.384 . S
C379 C381 1.479 . S
C379 H397 0.929 . S
C380 C377 1.424 . S
C380 C379 1.384 . S
C380 H398 0.928 . S
C381 C378 1.260 . S
C381 C379 1.479 . S
C382 C377 1.245 . S
C382 C378 1.477 . S
C382 H399 0.932 . S
C383 U366 2.882 . S
C383 C377 1.428 . S
C383 O386 1.301 . S
C383 O387 1.282 . S
O384 U366 2.441 . S
O384 C370 1.249 . S
O385 U366 2.420 . S
O385 C370 1.202 . S
O386 U366 2.455 . S
O386 C383 1.301 . S
O387 U366 2.449 . S
O387 C383 1.282 . S
H388 C361 0.926 . S
H389 C363 0.929 . S
H390 C364 0.930 . S
H391 C365 0.931 . S
H392 C372 0.932 . S
H393 C373 0.930 . S
H394 C374 0.929 . S
H395 C376 0.930 . S
H396 C378 0.932 . S
H397 C379 0.929 . S
H398 C380 0.928 . S
H399 C382 0.932 . S
C400 C401 1.263 1_565 S
C400 C405 1.488 1_565 S
C400 C410 1.455 . S
C401 C400 1.263 1_545 S
C401 C403 1.375 . S
C401 H428 0.897 1_545 S
C402 C403 1.395 . S
C402 C404 1.320 . S
C403 C401 1.375 . S
C403 C402 1.395 . S
C403 H429 0.929 . S
C404 C402 1.320 . S
C404 C405 1.405 . S
C404 H430 0.930 . S
C405 C400 1.488 1_545 S
C405 C404 1.405 . S
C405 H431 0.931 . S
U406 O407 2.454 . S
U406 O408 2.458 . S
U406 C409 2.984 . S
U406 C410 2.847 . S
U406 C423 2.882 . S
U406 O424 2.441 . S
U406 O425 2.420 . S
U406 O426 2.455 . S
U406 O427 2.449 . S
O407 U406 2.454 . S
O407 C409 1.353 . S
O408 U406 2.458 . S
O408 C409 1.286 . S
C409 U406 2.984 . S
C409 O407 1.353 . S
C409 O408 1.286 . S
C409 C411 1.363 . S
C410 C400 1.455 . S
C410 U406 2.847 . S
C410 O424 1.249 . S
C410 O425 1.202 . S
C411 C409 1.363 . S
C411 C413 1.408 . S
C411 C416 1.342 . S
C412 C413 1.310 . S
C412 C415 1.461 . S
C412 H432 0.932 . S
C413 C411 1.408 . S
C413 C412 1.310 . S
C413 H433 0.930 . S
C414 C415 1.474 . S
C414 C416 1.285 . S
C414 H434 0.929 . S
C415 C412 1.461 . S
C415 C414 1.474 . S
C416 C411 1.342 . S
C416 C414 1.285 . S
C416 H435 0.930 . S
C417 C420 1.424 . S
C417 C422 1.245 . S
C417 C423 1.428 . S
C418 C421 1.260 . S
C418 C422 1.477 . S
C418 H436 0.932 . S
C419 C420 1.384 . S
C419 C421 1.479 . S
C419 H437 0.929 . S
C420 C417 1.424 . S
C420 C419 1.384 . S
C420 H438 0.928 . S
C421 C418 1.260 . S
C421 C419 1.479 . S
C422 C417 1.245 . S
C422 C418 1.477 . S
C422 H439 0.932 . S
C423 U406 2.882 . S
C423 C417 1.428 . S
C423 O426 1.301 . S
C423 O427 1.282 . S
O424 U406 2.441 . S
O424 C410 1.249 . S
O425 U406 2.420 . S
O425 C410 1.202 . S
O426 U406 2.455 . S
O426 C423 1.301 . S
O427 U406 2.449 . S
O427 C423 1.282 . S
H428 C401 0.897 1_565 S
H429 C403 0.929 . S
H430 C404 0.930 . S
H431 C405 0.931 . S
H432 C412 0.932 . S
H433 C413 0.930 . S
H434 C414 0.929 . S
H435 C416 0.930 . S
H436 C418 0.932 . S
H437 C419 0.929 . S
H438 C420 0.928 . S
H439 C422 0.932 . S
C440 C441 1.264 . S
C440 C445 1.479 . S
C440 C450 1.465 . S
C441 C440 1.264 . S
C441 C443 1.339 . S
C441 H468 0.931 . S
C442 C443 1.395 . S
C442 C444 1.320 . S
C443 C441 1.339 . S
C443 C442 1.395 . S
C443 H469 0.929 . S
C444 C442 1.320 . S
C444 C445 1.405 . S
C444 H470 0.930 . S
C445 C440 1.479 . S
C445 C444 1.405 . S
C445 H471 0.931 . S
U446 O447 2.454 . S
U446 O448 2.458 . S
U446 C449 2.984 . S
U446 C450 2.847 . S
U446 C463 2.882 . S
U446 O464 2.441 . S
U446 O465 2.420 . S
U446 O466 2.455 . S
U446 O467 2.449 . S
O447 U446 2.454 . S
O447 C449 1.353 . S
O448 U446 2.458 . S
O448 C449 1.286 . S
C449 U446 2.984 . S
C449 O447 1.353 . S
C449 O448 1.286 . S
C449 C451 1.363 1_565 S
C450 C440 1.465 . S
C450 U446 2.847 . S
C450 O464 1.249 . S
C450 O465 1.202 . S
C451 C449 1.363 1_545 S
C451 C453 1.408 . S
C451 C456 1.342 . S
C452 C453 1.310 . S
C452 C455 1.461 . S
C452 H472 0.932 . S
C453 C451 1.408 . S
C453 C452 1.310 . S
C453 H473 0.930 . S
C454 C455 1.474 . S
C454 C456 1.285 . S
C454 H474 0.929 . S
C455 C452 1.461 . S
C455 C454 1.474 . S
C456 C451 1.342 . S
C456 C454 1.285 . S
C456 H475 0.930 1_545 S
C457 C460 1.424 . S
C457 C462 1.245 . S
C457 C463 1.428 . S
C458 C461 1.260 . S
C458 C462 1.477 . S
C458 H476 0.932 . S
C459 C460 1.384 . S
C459 C461 1.479 . S
C459 H477 0.929 . S
C460 C457 1.424 . S
C460 C459 1.384 . S
C460 H478 0.928 . S
C461 C458 1.260 . S
C461 C459 1.479 . S
C462 C457 1.245 . S
C462 C458 1.477 . S
C462 H479 0.932 . S
C463 U446 2.882 . S
C463 C457 1.428 . S
C463 O466 1.301 . S
C463 O467 1.282 . S
O464 U446 2.441 . S
O464 C450 1.249 . S
O465 U446 2.420 . S
O465 C450 1.202 . S
O466 U446 2.455 . S
O466 C463 1.301 . S
O467 U446 2.449 . S
O467 C463 1.282 . S
H468 C441 0.931 . S
H469 C443 0.929 . S
H470 C444 0.930 . S
H471 C445 0.931 . S
H472 C452 0.932 . S
H473 C453 0.930 . S
H474 C454 0.929 . S
H475 C456 0.930 1_565 S
H476 C458 0.932 . S
H477 C459 0.929 . S
H478 C460 0.928 . S
H479 C462 0.932 . S
C480 C481 1.264 . S
C480 C485 1.479 . S
C480 C490 1.465 . S
C481 C480 1.264 . S
C481 C483 1.339 . S
C481 H508 0.931 . S
C482 C483 1.395 . S
C482 C484 1.320 . S
C483 C481 1.339 . S
C483 C482 1.395 . S
C483 H509 0.929 . S
C484 C482 1.320 . S
C484 C485 1.405 . S
C484 H510 0.930 . S
C485 C480 1.479 . S
C485 C484 1.405 . S
C485 H511 0.931 . S
U486 O487 2.454 . S
U486 O488 2.458 . S
U486 C489 2.984 . S
U486 C490 2.847 . S
U486 C503 2.882 . S
U486 O504 2.441 . S
U486 O505 2.420 . S
U486 O506 2.455 . S
U486 O507 2.449 . S
O487 U486 2.454 . S
O487 C489 1.353 . S
O488 U486 2.458 . S
O488 C489 1.286 . S
C489 U486 2.984 . S
C489 O487 1.353 . S
C489 O488 1.286 . S
C489 C491 1.363 . S
C490 C480 1.465 . S
C490 U486 2.847 . S
C490 O504 1.249 . S
C490 O505 1.202 . S
C491 C489 1.363 . S
C491 C493 1.408 1_554 S
C491 C496 1.350 . S
C492 C493 1.310 . S
C492 C495 1.461 . S
C492 H512 0.932 . S
C493 C491 1.408 1_556 S
C493 C492 1.310 . S
C493 H513 0.930 . S
C494 C495 1.474 . S
C494 C496 1.207 1_556 S
C494 H514 0.929 . S
C495 C492 1.461 . S
C495 C494 1.474 . S
C496 C491 1.350 . S
C496 C494 1.207 1_554 S
C496 H515 1.006 . S
C497 C500 1.424 . S
C497 C502 1.245 . S
C497 C503 1.428 . S
C498 C501 1.260 . S
C498 C502 1.477 . S
C498 H516 0.932 . S
C499 C500 1.384 . S
C499 C501 1.479 . S
C499 H517 0.929 . S
C500 C497 1.424 . S
C500 C499 1.384 . S
C500 H518 0.928 . S
C501 C498 1.260 . S
C501 C499 1.479 . S
C502 C497 1.245 . S
C502 C498 1.477 . S
C502 H519 0.932 . S
C503 U486 2.882 . S
C503 C497 1.428 . S
C503 O506 1.301 . S
C503 O507 1.282 . S
O504 U486 2.441 . S
O504 C490 1.249 . S
O505 U486 2.420 . S
O505 C490 1.202 . S
O506 U486 2.455 . S
O506 C503 1.301 . S
O507 U486 2.449 . S
O507 C503 1.282 . S
H508 C481 0.931 . S
H509 C483 0.929 . S
H510 C484 0.930 . S
H511 C485 0.931 . S
H512 C492 0.932 . S
H513 C493 0.930 . S
H514 C494 0.929 . S
H515 C496 1.006 . S
H516 C498 0.932 . S
H517 C499 0.929 . S
H518 C500 0.928 . S
H519 C502 0.932 . S
C520 C521 1.264 . S
C520 C525 1.479 . S
C520 C530 1.465 . S
C521 C520 1.264 . S
C521 C523 1.339 . S
C521 H548 0.931 . S
C522 C523 1.395 . S
C522 C524 1.320 . S
C523 C521 1.339 . S
C523 C522 1.395 . S
C523 H549 0.929 . S
C524 C522 1.320 . S
C524 C525 1.405 . S
C524 H550 0.930 . S
C525 C520 1.479 . S
C525 C524 1.405 . S
C525 H551 0.931 . S
U526 O527 2.454 . S
U526 O528 2.458 . S
U526 C529 2.984 . S
U526 C530 2.847 1_655 S
U526 C543 2.882 . S
U526 O544 2.446 1_655 S
U526 O545 2.420 . S
U526 O546 2.455 . S
U526 O547 2.449 . S
O527 U526 2.454 . S
O527 C529 1.353 . S
O528 U526 2.458 . S
O528 C529 1.286 . S
C529 U526 2.984 . S
C529 O527 1.353 . S
C529 O528 1.286 . S
C529 C531 1.363 . S
C530 C520 1.465 . S
C530 U526 2.847 1_455 S
C530 O544 1.248 . S
C530 O545 1.202 1_455 S
C531 C529 1.363 . S
C531 C533 1.408 . S
C531 C536 1.342 . S
C532 C533 1.310 . S
C532 C535 1.461 . S
C532 H552 0.932 . S
C533 C531 1.408 . S
C533 C532 1.310 . S
C533 H553 0.930 . S
C534 C535 1.474 . S
C534 C536 1.285 . S
C534 H554 0.929 . S
C535 C532 1.461 . S
C535 C534 1.474 . S
C536 C531 1.342 . S
C536 C534 1.285 . S
C536 H555 0.930 . S
C537 C540 1.424 . S
C537 C542 1.245 . S
C537 C543 1.428 . S
C538 C541 1.260 . S
C538 C542 1.477 . S
C538 H556 0.932 . S
C539 C540 1.384 . S
C539 C541 1.479 . S
C539 H557 0.929 . S
C540 C537 1.424 . S
C540 C539 1.384 . S
C540 H558 0.928 . S
C541 C538 1.260 . S
C541 C539 1.479 . S
C542 C537 1.245 . S
C542 C538 1.477 . S
C542 H559 0.932 . S
C543 U526 2.882 . S
C543 C537 1.428 . S
C543 O546 1.301 . S
C543 O547 1.282 . S
O544 U526 2.446 1_455 S
O544 C530 1.248 . S
O545 U526 2.420 . S
O545 C530 1.202 1_655 S
O546 U526 2.455 . S
O546 C543 1.301 . S
O547 U526 2.449 . S
O547 C543 1.282 . S
H548 C521 0.931 . S
H549 C523 0.929 . S
H550 C524 0.930 . S
H551 C525 0.931 . S
H552 C532 0.932 . S
H553 C533 0.930 . S
H554 C534 0.929 . S
H555 C536 0.930 . S
H556 C538 0.932 . S
H557 C539 0.929 . S
H558 C540 0.928 . S
H559 C542 0.932 . S
C560 C561 1.264 . S
C560 C565 1.479 . S
C560 C570 1.465 . S
C561 C560 1.264 . S
C561 C563 1.339 . S
C561 H588 0.931 . S
C562 C563 1.395 . S
C562 C564 1.320 . S
C563 C561 1.339 . S
C563 C562 1.395 . S
C563 H589 0.929 . S
C564 C562 1.320 . S
C564 C565 1.405 . S
C564 H590 0.930 . S
C565 C560 1.479 . S
C565 C564 1.405 . S
C565 H591 0.931 . S
U566 O567 2.454 . S
U566 O568 2.458 . S
U566 C569 2.984 . S
U566 C570 2.847 . S
U566 C583 2.882 . S
U566 O584 2.441 . S
U566 O585 2.420 . S
U566 O586 2.455 . S
U566 O587 2.449 . S
O567 U566 2.454 . S
O567 C569 1.353 . S
O568 U566 2.458 . S
O568 C569 1.286 . S
C569 U566 2.984 . S
C569 O567 1.353 . S
C569 O568 1.286 . S
C569 C571 1.363 . S
C570 C560 1.465 . S
C570 U566 2.847 . S
C570 O584 1.249 . S
C570 O585 1.202 . S
C571 C569 1.363 . S
C571 C573 1.408 . S
C571 C576 1.342 . S
C572 C573 1.310 . S
C572 C575 1.461 . S
C572 H592 0.932 . S
C573 C571 1.408 . S
C573 C572 1.310 . S
C573 H593 0.930 . S
C574 C575 1.474 . S
C574 C576 1.285 . S
C574 H594 0.929 . S
C575 C572 1.461 . S
C575 C574 1.474 . S
C576 C571 1.342 . S
C576 C574 1.285 . S
C576 H595 0.930 . S
C577 C580 1.424 . S
C577 C582 1.245 . S
C577 C583 1.428 . S
C578 C581 1.260 . S
C578 C582 1.477 . S
C578 H596 0.932 . S
C579 C580 1.384 . S
C579 C581 1.479 . S
C579 H597 0.929 . S
C580 C577 1.424 . S
C580 C579 1.384 . S
C580 H598 0.928 . S
C581 C578 1.260 . S
C581 C579 1.479 . S
C582 C577 1.245 . S
C582 C578 1.477 . S
C582 H599 0.932 . S
C583 U566 2.882 . S
C583 C577 1.428 . S
C583 O586 1.301 . S
C583 O587 1.282 . S
O584 U566 2.441 . S
O584 C570 1.249 . S
O585 U566 2.420 . S
O585 C570 1.202 . S
O586 U566 2.455 . S
O586 C583 1.301 . S
O587 U566 2.449 . S
O587 C583 1.282 . S
H588 C561 0.931 . S
H589 C563 0.929 . S
H590 C564 0.930 . S
H591 C565 0.931 . S
H592 C572 0.932 . S
H593 C573 0.930 . S
H594 C574 0.929 . S
H595 C576 0.930 . S
H596 C578 0.932 . S
H597 C579 0.929 . S
H598 C580 0.928 . S
H599 C582 0.932 . S
C600 C601 1.264 . S
C600 C605 1.479 . S
C600 C610 1.465 . S
C601 C600 1.264 . S
C601 C603 1.339 . S
C601 H628 0.931 . S
C602 C603 1.395 . S
C602 C604 1.320 . S
C603 C601 1.339 . S
C603 C602 1.395 . S
C603 H629 0.929 . S
C604 C602 1.320 . S
C604 C605 1.405 . S
C604 H630 0.930 . S
C605 C600 1.479 . S
C605 C604 1.405 . S
C605 H631 0.931 . S
U606 O607 2.454 1_655 S
U606 O608 2.458 1_655 S
U606 C609 2.984 1_655 S
U606 C610 2.847 . S
U606 C623 2.882 . S
U606 O624 2.441 . S
U606 O625 2.420 . S
U606 O626 2.455 . S
U606 O627 2.449 . S
O607 U606 2.454 1_455 S
O607 C609 1.353 . S
O608 U606 2.458 1_455 S
O608 C609 1.286 . S
C609 U606 2.984 1_455 S
C609 O607 1.353 . S
C609 O608 1.286 . S
C609 C611 1.363 . S
C610 C600 1.465 . S
C610 U606 2.847 . S
C610 O624 1.249 . S
C610 O625 1.202 . S
C611 C609 1.363 . S
C611 C613 1.408 . S
C611 C616 1.342 . S
C612 C613 1.310 . S
C612 C615 1.461 . S
C612 H632 0.932 . S
C613 C611 1.408 . S
C613 C612 1.310 . S
C613 H633 0.930 . S
C614 C615 1.474 . S
C614 C616 1.285 . S
C614 H634 0.929 . S
C615 C612 1.461 . S
C615 C614 1.474 . S
C616 C611 1.342 . S
C616 C614 1.285 . S
C616 H635 0.930 . S
C617 C620 1.424 . S
C617 C622 1.245 . S
C617 C623 1.428 . S
C618 C621 1.260 . S
C618 C622 1.477 . S
C618 H636 0.932 . S
C619 C620 1.384 . S
C619 C621 1.479 . S
C619 H637 0.929 . S
C620 C617 1.424 . S
C620 C619 1.384 . S
C620 H638 0.928 . S
C621 C618 1.260 . S
C621 C619 1.479 . S
C622 C617 1.245 . S
C622 C618 1.477 . S
C622 H639 0.932 . S
C623 U606 2.882 . S
C623 C617 1.428 . S
C623 O626 1.301 . S
C623 O627 1.282 . S
O624 U606 2.441 . S
O624 C610 1.249 . S
O625 U606 2.420 . S
O625 C610 1.202 . S
O626 U606 2.455 . S
O626 C623 1.301 . S
O627 U606 2.449 . S
O627 C623 1.282 . S
H628 C601 0.931 . S
H629 C603 0.929 . S
H630 C604 0.930 . S
H631 C605 0.931 . S
H632 C612 0.932 . S
H633 C613 0.930 . S
H634 C614 0.929 . S
H635 C616 0.930 . S
H636 C618 0.932 . S
H637 C619 0.929 . S
H638 C620 0.928 . S
H639 C622 0.932 . S
C640 C641 1.264 . S
C640 C645 1.479 . S
C640 C650 1.465 . S
C641 C640 1.264 . S
C641 C643 1.339 . S
C641 H668 0.931 . S
C642 C643 1.395 . S
C642 C644 1.320 . S
C643 C641 1.339 . S
C643 C642 1.395 . S
C643 H669 0.929 . S
C644 C642 1.320 . S
C644 C645 1.405 . S
C644 H670 0.930 . S
C645 C640 1.479 . S
C645 C644 1.405 . S
C645 H671 0.931 . S
U646 O647 2.454 . S
U646 O648 2.458 . S
U646 C649 2.984 . S
U646 C650 2.847 . S
U646 C663 2.882 . S
U646 O664 2.441 . S
U646 O665 2.420 . S
U646 O666 2.455 . S
U646 O667 2.449 . S
O647 U646 2.454 . S
O647 C649 1.353 . S
O648 U646 2.458 . S
O648 C649 1.286 . S
C649 U646 2.984 . S
C649 O647 1.353 . S
C649 O648 1.286 . S
C649 C651 1.363 . S
C650 C640 1.465 . S
C650 U646 2.847 . S
C650 O664 1.249 . S
C650 O665 1.202 . S
C651 C649 1.363 . S
C651 C653 1.408 . S
C651 C656 1.342 . S
C652 C653 1.310 . S
C652 C655 1.461 . S
C652 H672 0.932 . S
C653 C651 1.408 . S
C653 C652 1.310 . S
C653 H673 0.930 . S
C654 C655 1.474 . S
C654 C656 1.285 . S
C654 H674 0.929 . S
C655 C652 1.461 . S
C655 C654 1.474 . S
C656 C651 1.342 . S
C656 C654 1.285 . S
C656 H675 0.930 . S
C657 C660 1.424 . S
C657 C662 1.245 . S
C657 C663 1.428 . S
C658 C661 1.260 . S
C658 C662 1.477 . S
C658 H676 0.932 . S
C659 C660 1.384 . S
C659 C661 1.479 . S
C659 H677 0.929 . S
C660 C657 1.424 . S
C660 C659 1.384 . S
C660 H678 0.928 . S
C661 C658 1.260 . S
C661 C659 1.479 . S
C662 C657 1.245 . S
C662 C658 1.477 . S
C662 H679 0.932 . S
C663 U646 2.882 . S
C663 C657 1.428 . S
C663 O666 1.301 . S
C663 O667 1.282 . S
O664 U646 2.441 . S
O664 C650 1.249 . S
O665 U646 2.420 . S
O665 C650 1.202 . S
O666 U646 2.455 . S
O666 C663 1.301 . S
O667 U646 2.449 . S
O667 C663 1.282 . S
H668 C641 0.931 . S
H669 C643 0.929 . S
H670 C644 0.930 . S
H671 C645 0.931 . S
H672 C652 0.932 . S
H673 C653 0.930 . S
H674 C654 0.929 . S
H675 C656 0.930 . S
H676 C658 0.932 . S
H677 C659 0.929 . S
H678 C660 0.928 . S
H679 C662 0.932 . S
C680 C681 1.264 . S
C680 C685 1.479 . S
C680 C690 1.465 . S
C681 C680 1.264 . S
C681 C683 1.339 . S
C681 H708 0.931 . S
C682 C683 1.395 . S
C682 C684 1.320 . S
C683 C681 1.339 . S
C683 C682 1.395 . S
C683 H709 0.929 . S
C684 C682 1.320 . S
C684 C685 1.405 . S
C684 H710 0.930 . S
C685 C680 1.479 . S
C685 C684 1.405 . S
C685 H711 0.931 . S
U686 O687 2.454 . S
U686 O688 2.458 . S
U686 C689 2.984 . S
U686 C690 2.847 . S
U686 C703 2.882 . S
U686 O704 2.441 . S
U686 O705 2.420 . S
U686 O706 2.455 . S
U686 O707 2.449 . S
O687 U686 2.454 . S
O687 C689 1.353 . S
O688 U686 2.458 . S
O688 C689 1.286 . S
C689 U686 2.984 . S
C689 O687 1.353 . S
C689 O688 1.286 . S
C689 C691 1.363 . S
C690 C680 1.465 . S
C690 U686 2.847 . S
C690 O704 1.249 . S
C690 O705 1.202 . S
C691 C689 1.363 . S
C691 C693 1.408 . S
C691 C696 1.342 . S
C692 C693 1.310 . S
C692 C695 1.461 . S
C692 H712 0.932 . S
C693 C691 1.408 . S
C693 C692 1.310 . S
C693 H713 0.930 . S
C694 C695 1.474 . S
C694 C696 1.285 . S
C694 H714 0.929 . S
C695 C692 1.461 . S
C695 C694 1.474 . S
C696 C691 1.342 . S
C696 C694 1.285 . S
C696 H715 0.930 . S
C697 C700 1.424 . S
C697 C702 1.245 . S
C697 C703 1.428 . S
C698 C701 1.260 . S
C698 C702 1.477 . S
C698 H716 0.932 . S
C699 C700 1.384 . S
C699 C701 1.479 . S
C699 H717 0.929 . S
C700 C697 1.424 . S
C700 C699 1.384 . S
C700 H718 0.928 . S
C701 C698 1.260 . S
C701 C699 1.479 . S
C702 C697 1.245 . S
C702 C698 1.477 . S
C702 H719 0.932 . S
C703 U686 2.882 . S
C703 C697 1.428 . S
C703 O706 1.301 . S
C703 O707 1.282 . S
O704 U686 2.441 . S
O704 C690 1.249 . S
O705 U686 2.420 . S
O705 C690 1.202 . S
O706 U686 2.455 . S
O706 C703 1.301 . S
O707 U686 2.449 . S
O707 C703 1.282 . S
H708 C681 0.931 . S
H709 C683 0.929 . S
H710 C684 0.930 . S
H711 C685 0.931 . S
H712 C692 0.932 . S
H713 C693 0.930 . S
H714 C694 0.929 . S
H715 C696 0.930 . S
H716 C698 0.932 . S
H717 C699 0.929 . S
H718 C700 0.928 . S
H719 C702 0.932 . S
C720 C721 1.264 . S
C720 C725 1.479 . S
C720 C730 1.465 . S
C721 C720 1.264 . S
C721 C723 1.339 . S
C721 H748 0.931 . S
C722 C723 1.395 . S
C722 C724 1.320 . S
C723 C721 1.339 . S
C723 C722 1.395 . S
C723 H749 0.929 . S
C724 C722 1.320 . S
C724 C725 1.405 . S
C724 H750 0.930 . S
C725 C720 1.479 . S
C725 C724 1.405 . S
C725 H751 0.931 . S
U726 O727 2.454 . S
U726 O728 2.458 . S
U726 C729 2.984 1_556 S
U726 C730 2.847 . S
U726 C743 2.882 . S
U726 O744 2.441 . S
U726 O745 2.420 . S
U726 O746 2.455 . S
U726 O747 2.449 . S
O727 U726 2.454 . S
O727 C729 1.353 1_556 S
O728 U726 2.458 . S
O728 C729 1.286 1_556 S
C729 U726 2.984 1_554 S
C729 O727 1.353 1_554 S
C729 O728 1.286 1_554 S
C729 C731 1.363 . S
C730 C720 1.465 . S
C730 U726 2.847 . S
C730 O744 1.249 . S
C730 O745 1.202 . S
C731 C729 1.363 . S
C731 C733 1.408 . S
C731 C736 1.342 . S
C732 C733 1.310 . S
C732 C735 1.461 . S
C732 H752 0.932 . S
C733 C731 1.408 . S
C733 C732 1.310 . S
C733 H753 0.930 . S
C734 C735 1.474 . S
C734 C736 1.285 . S
C734 H754 0.929 . S
C735 C732 1.461 . S
C735 C734 1.474 . S
C736 C731 1.342 . S
C736 C734 1.285 . S
C736 H755 0.930 . S
C737 C740 1.424 . S
C737 C742 1.245 . S
C737 C743 1.428 . S
C738 C741 1.260 . S
C738 C742 1.477 . S
C738 H756 0.932 . S
C739 C740 1.384 . S
C739 C741 1.479 . S
C739 H757 0.929 . S
C740 C737 1.424 . S
C740 C739 1.384 . S
C740 H758 0.928 . S
C741 C738 1.260 . S
C741 C739 1.479 . S
C742 C737 1.245 . S
C742 C738 1.477 . S
C742 H759 0.932 . S
C743 U726 2.882 . S
C743 C737 1.428 . S
C743 O746 1.301 . S
C743 O747 1.282 . S
O744 U726 2.441 . S
O744 C730 1.249 . S
O745 U726 2.420 . S
O745 C730 1.202 . S
O746 U726 2.455 . S
O746 C743 1.301 . S
O747 U726 2.449 . S
O747 C743 1.282 . S
H748 C721 0.931 . S
H749 C723 0.929 . S
H750 C724 0.930 . S
H751 C725 0.931 . S
H752 C732 0.932 . S
H753 C733 0.930 . S
H754 C734 0.929 . S
H755 C736 0.930 . S
H756 C738 0.932 . S
H757 C739 0.929 . S
H758 C740 0.928 . S
H759 C742 0.932 . S
C760 C761 1.264 . S
C760 C765 1.479 . S
C760 C770 1.465 . S
C761 C760 1.264 . S
C761 C763 1.339 . S
C761 H788 0.931 . S
C762 C763 1.395 . S
C762 C764 1.320 . S
C763 C761 1.339 . S
C763 C762 1.395 . S
C763 H789 0.929 . S
C764 C762 1.320 . S
C764 C765 1.405 . S
C764 H790 0.930 . S
C765 C760 1.479 . S
C765 C764 1.405 . S
C765 H791 0.931 . S
U766 O767 2.454 . S
U766 O768 2.458 . S
U766 C769 2.984 . S
U766 C770 2.847 1_655 S
U766 C783 2.882 . S
U766 O784 2.441 1_655 S
U766 O785 2.420 1_655 S
U766 O786 2.455 . S
U766 O787 2.449 . S
O767 U766 2.454 . S
O767 C769 1.353 . S
O768 U766 2.458 . S
O768 C769 1.286 . S
C769 U766 2.984 . S
C769 O767 1.353 . S
C769 O768 1.286 . S
C769 C771 1.363 . S
C770 C760 1.465 . S
C770 U766 2.847 1_455 S
C770 O784 1.249 . S
C770 O785 1.202 . S
C771 C769 1.363 . S
C771 C773 1.408 . S
C771 C776 1.342 . S
C772 C773 1.310 . S
C772 C775 1.461 . S
C772 H792 0.932 . S
C773 C771 1.408 . S
C773 C772 1.310 . S
C773 H793 0.930 . S
C774 C775 1.474 . S
C774 C776 1.285 . S
C774 H794 0.929 . S
C775 C772 1.461 . S
C775 C774 1.474 . S
C776 C771 1.342 . S
C776 C774 1.285 . S
C776 H795 0.930 . S
C777 C780 1.424 . S
C777 C782 1.245 . S
C777 C783 1.428 . S
C778 C781 1.260 . S
C778 C782 1.477 . S
C778 H796 0.932 . S
C779 C780 1.384 . S
C779 C781 1.479 . S
C779 H797 0.929 . S
C780 C777 1.424 . S
C780 C779 1.384 . S
C780 H798 0.928 . S
C781 C778 1.260 . S
C781 C779 1.479 . S
C782 C777 1.245 . S
C782 C778 1.477 . S
C782 H799 0.932 . S
C783 U766 2.882 . S
C783 C777 1.428 . S
C783 O786 1.301 . S
C783 O787 1.282 . S
O784 U766 2.441 1_455 S
O784 C770 1.249 . S
O785 U766 2.420 1_455 S
O785 C770 1.202 . S
O786 U766 2.455 . S
O786 C783 1.301 . S
O787 U766 2.449 . S
O787 C783 1.282 . S
H788 C761 0.931 . S
H789 C763 0.929 . S
H790 C764 0.930 . S
H791 C765 0.931 . S
H792 C772 0.932 . S
H793 C773 0.930 . S
H794 C774 0.929 . S
H795 C776 0.930 . S
H796 C778 0.932 . S
H797 C779 0.929 . S
H798 C780 0.928 . S
H799 C782 0.932 . S
C800 C801 1.264 . S
C800 C805 1.479 . S
C800 C810 1.465 . S
C801 C800 1.264 . S
C801 C803 1.339 . S
C801 H828 0.931 . S
C802 C803 1.395 . S
C802 C804 1.320 . S
C803 C801 1.339 . S
C803 C802 1.395 . S
C803 H829 0.929 . S
C804 C802 1.320 . S
C804 C805 1.405 . S
C804 H830 0.930 . S
C805 C800 1.479 . S
C805 C804 1.405 . S
C805 H831 0.931 . S
U806 O807 2.454 . S
U806 O808 2.458 . S
U806 C809 2.984 . S
U806 C810 2.847 . S
U806 C823 2.882 . S
U806 O824 2.441 . S
U806 O825 2.420 . S
U806 O826 2.455 . S
U806 O827 2.449 . S
O807 U806 2.454 . S
O807 C809 1.353 . S
O808 U806 2.458 . S
O808 C809 1.286 . S
C809 U806 2.984 . S
C809 O807 1.353 . S
C809 O808 1.286 . S
C809 C811 1.363 . S
C810 C800 1.465 . S
C810 U806 2.847 . S
C810 O824 1.249 . S
C810 O825 1.202 . S
C811 C809 1.363 . S
C811 C813 1.408 . S
C811 C816 1.342 . S
C812 C813 1.310 . S
C812 C815 1.461 . S
C812 H832 0.932 . S
C813 C811 1.408 . S
C813 C812 1.310 . S
C813 H833 0.930 . S
C814 C815 1.474 . S
C814 C816 1.285 . S
C814 H834 0.929 . S
C815 C812 1.461 . S
C815 C814 1.474 . S
C816 C811 1.342 . S
C816 C814 1.285 . S
C816 H835 0.930 . S
C817 C820 1.424 . S
C817 C822 1.245 . S
C817 C823 1.428 . S
C818 C821 1.260 . S
C818 C822 1.477 . S
C818 H836 0.932 . S
C819 C820 1.384 . S
C819 C821 1.479 . S
C819 H837 0.929 . S
C820 C817 1.424 . S
C820 C819 1.384 . S
C820 H838 0.928 . S
C821 C818 1.260 . S
C821 C819 1.479 . S
C822 C817 1.245 . S
C822 C818 1.477 . S
C822 H839 0.932 . S
C823 U806 2.882 . S
C823 C817 1.428 . S
C823 O826 1.301 . S
C823 O827 1.282 . S
O824 U806 2.441 . S
O824 C810 1.249 . S
O825 U806 2.420 . S
O825 C810 1.202 . S
O826 U806 2.455 . S
O826 C823 1.301 . S
O827 U806 2.449 . S
O827 C823 1.282 . S
H828 C801 0.931 . S
H829 C803 0.929 . S
H830 C804 0.930 . S
H831 C805 0.931 . S
H832 C812 0.932 . S
H833 C813 0.930 . S
H834 C814 0.929 . S
H835 C816 0.930 . S
H836 C818 0.932 . S
H837 C819 0.929 . S
H838 C820 0.928 . S
H839 C822 0.932 . S
C840 C841 1.264 . S
C840 C845 1.479 . S
C840 C850 1.465 . S
C841 C840 1.264 . S
C841 C843 1.339 . S
C841 H868 0.931 . S
C842 C843 1.395 . S
C842 C844 1.320 . S
C843 C841 1.339 . S
C843 C842 1.395 . S
C843 H869 0.929 . S
C844 C842 1.320 . S
C844 C845 1.405 . S
C844 H870 0.930 . S
C845 C840 1.479 . S
C845 C844 1.405 . S
C845 H871 0.931 . S
U846 O847 2.454 . S
U846 O848 2.458 . S
U846 C849 2.984 . S
U846 C850 2.847 . S
U846 C863 2.882 . S
U846 O864 2.441 . S
U846 O865 2.420 . S
U846 O866 2.455 . S
U846 O867 2.449 . S
O847 U846 2.454 . S
O847 C849 1.353 . S
O848 U846 2.458 . S
O848 C849 1.286 . S
C849 U846 2.984 . S
C849 O847 1.353 . S
C849 O848 1.286 . S
C849 C851 1.363 . S
C850 C840 1.465 . S
C850 U846 2.847 . S
C850 O864 1.249 . S
C850 O865 1.202 . S
C851 C849 1.363 . S
C851 C853 1.408 . S
C851 C856 1.342 . S
C852 C853 1.310 . S
C852 C855 1.461 . S
C852 H872 0.932 . S
C853 C851 1.408 . S
C853 C852 1.310 . S
C853 H873 0.930 . S
C854 C855 1.474 . S
C854 C856 1.285 . S
C854 H874 0.929 . S
C855 C852 1.461 . S
C855 C854 1.474 . S
C856 C851 1.342 . S
C856 C854 1.285 . S
C856 H875 0.930 . S
C857 C860 1.424 . S
C857 C862 1.245 . S
C857 C863 1.428 . S
C858 C861 1.260 . S
C858 C862 1.477 . S
C858 H876 0.932 . S
C859 C860 1.384 . S
C859 C861 1.479 . S
C859 H877 0.929 . S
C860 C857 1.424 . S
C860 C859 1.384 . S
C860 H878 0.928 . S
C861 C858 1.260 . S
C861 C859 1.479 . S
C862 C857 1.245 . S
C862 C858 1.477 . S
C862 H879 0.932 . S
C863 U846 2.882 . S
C863 C857 1.428 . S
C863 O866 1.301 . S
C863 O867 1.282 . S
O864 U846 2.441 . S
O864 C850 1.249 . S
O865 U846 2.420 . S
O865 C850 1.202 . S
O866 U846 2.455 . S
O866 C863 1.301 . S
O867 U846 2.449 . S
O867 C863 1.282 . S
H868 C841 0.931 . S
H869 C843 0.929 . S
H870 C844 0.930 . S
H871 C845 0.931 . S
H872 C852 0.932 . S
H873 C853 0.930 . S
H874 C854 0.929 . S
H875 C856 0.930 . S
H876 C858 0.932 . S
H877 C859 0.929 . S
H878 C860 0.928 . S
H879 C862 0.932 . S
C880 C881 1.264 . S
C880 C885 1.479 . S
C880 C890 1.465 . S
C881 C880 1.264 . S
C881 C883 1.339 . S
C881 H908 0.931 . S
C882 C883 1.395 . S
C882 C884 1.320 . S
C883 C881 1.339 . S
C883 C882 1.395 . S
C883 H909 0.929 . S
C884 C882 1.320 . S
C884 C885 1.405 . S
C884 H910 0.930 . S
C885 C880 1.479 . S
C885 C884 1.405 . S
C885 H911 0.931 . S
U886 O887 2.454 . S
U886 O888 2.458 . S
U886 C889 2.984 . S
U886 C890 2.847 1_554 S
U886 C903 2.882 . S
U886 O904 2.441 . S
U886 O905 2.420 . S
U886 O906 2.455 . S
U886 O907 2.449 . S
O887 U886 2.454 . S
O887 C889 1.353 . S
O888 U886 2.458 . S
O888 C889 1.286 . S
C889 U886 2.984 . S
C889 O887 1.353 . S
C889 O888 1.286 . S
C889 C891 1.363 . S
C890 C880 1.465 . S
C890 U886 2.847 1_556 S
C890 O904 1.249 1_556 S
C890 O905 1.202 1_556 S
C891 C889 1.363 . S
C891 C893 1.408 . S
C891 C896 1.342 . S
C892 C893 1.310 . S
C892 C895 1.461 . S
C892 H912 0.932 . S
C893 C891 1.408 . S
C893 C892 1.310 . S
C893 H913 0.930 . S
C894 C895 1.474 . S
C894 C896 1.285 . S
C894 H914 0.929 . S
C895 C892 1.461 . S
C895 C894 1.474 . S
C896 C891 1.342 . S
C896 C894 1.285 . S
C896 H915 0.930 . S
C897 C900 1.424 . S
C897 C902 1.245 . S
C897 C903 1.428 . S
C898 C901 1.260 . S
C898 C902 1.477 . S
C898 H916 0.932 . S
C899 C900 1.384 . S
C899 C901 1.479 . S
C899 H917 0.929 . S
C900 C897 1.424 . S
C900 C899 1.384 . S
C900 H918 0.928 . S
C901 C898 1.260 . S
C901 C899 1.479 . S
C902 C897 1.245 . S
C902 C898 1.477 . S
C902 H919 0.932 . S
C903 U886 2.882 . S
C903 C897 1.428 . S
C903 O906 1.301 . S
C903 O907 1.282 . S
O904 U886 2.441 . S
O904 C890 1.249 1_554 S
O905 U886 2.420 . S
O905 C890 1.202 1_554 S
O906 U886 2.455 . S
O906 C903 1.301 . S
O907 U886 2.449 . S
O907 C903 1.282 . S
H908 C881 0.931 . S
H909 C883 0.929 . S
H910 C884 0.930 . S
H911 C885 0.931 . S
H912 C892 0.932 . S
H913 C893 0.930 . S
H914 C894 0.929 . S
H915 C896 0.930 . S
H916 C898 0.932 . S
H917 C899 0.929 . S
H918 C900 0.928 . S
H919 C902 0.932 . S
C920 C921 1.264 . S
C920 C925 1.479 . S
C920 C930 1.465 . S
C921 C920 1.264 . S
C921 C923 1.339 . S
C921 H948 0.931 . S
C922 C923 1.395 . S
C922 C924 1.320 . S
C923 C921 1.339 . S
C923 C922 1.395 . S
C923 H949 0.929 . S
C924 C922 1.320 . S
C924 C925 1.405 . S
C924 H950 0.930 . S
C925 C920 1.479 . S
C925 C924 1.405 . S
C925 H951 0.931 . S
U926 O927 2.454 1_565 S
U926 O928 2.458 1_565 S
U926 C929 2.984 1_565 S
U926 C930 2.847 . S
U926 C943 2.882 . S
U926 O944 2.441 . S
U926 O945 2.420 . S
U926 O946 2.455 . S
U926 O947 2.449 . S
O927 U926 2.454 1_545 S
O927 C929 1.353 . S
O928 U926 2.458 1_545 S
O928 C929 1.286 . S
C929 U926 2.984 1_545 S
C929 O927 1.353 . S
C929 O928 1.286 . S
C929 C931 1.363 . S
C930 C920 1.465 . S
C930 U926 2.847 . S
C930 O944 1.249 . S
C930 O945 1.202 . S
C931 C929 1.363 . S
C931 C933 1.408 . S
C931 C936 1.342 . S
C932 C933 1.310 . S
C932 C935 1.461 . S
C932 H952 0.932 . S
C933 C931 1.408 . S
C933 C932 1.310 . S
C933 H953 0.930 . S
C934 C935 1.474 . S
C934 C936 1.285 . S
C934 H954 0.929 . S
C935 C932 1.461 . S
C935 C934 1.474 . S
C936 C931 1.342 . S
C936 C934 1.285 . S
C936 H955 0.930 . S
C937 C940 1.424 . S
C937 C942 1.245 . S
C937 C943 1.428 . S
C938 C941 1.260 . S
C938 C942 1.477 . S
C938 H956 0.932 . S
C939 C940 1.384 . S
C939 C941 1.479 . S
C939 H957 0.929 . S
C940 C937 1.424 . S
C940 C939 1.384 . S
C940 H958 0.928 . S
C941 C938 1.260 . S
C941 C939 1.479 . S
C942 C937 1.245 . S
C942 C938 1.477 . S
C942 H959 0.932 . S
C943 U926 2.882 . S
C943 C937 1.428 . S
C943 O946 1.301 . S
C943 O947 1.282 . S
O944 U926 2.441 . S
O944 C930 1.249 . S
O945 U926 2.420 . S
O945 C930 1.202 . S
O946 U926 2.455 . S
O946 C943 1.301 . S
O947 U926 2.449 . S
O947 C943 1.282 . S
H948 C921 0.931 . S
H949 C923 0.929 . S
H950 C924 0.930 . S
H951 C925 0.931 . S
H952 C932 0.932 . S
H953 C933 0.930 . S
H954 C934 0.929 . S
H955 C936 0.930 . S
H956 C938 0.932 . S
H957 C939 0.929 . S
H958 C940 0.928 . S
H959 C942 0.932 . S
C960 C961 1.264 . S
C960 C965 1.479 . S
C960 C970 1.465 . S
C961 C960 1.264 . S
C961 C963 1.339 . S
C961 H988 0.931 . S
C962 C963 1.395 . S
C962 C964 1.320 . S
C963 C961 1.339 . S
C963 C962 1.395 . S
C963 H989 0.929 . S
C964 C962 1.320 . S
C964 C965 1.405 . S
C964 H990 0.930 . S
C965 C960 1.479 . S
C965 C964 1.405 . S
C965 H991 0.931 . S
U966 O967 2.454 1_565 S
U966 O968 2.458 1_565 S
U966 C969 2.984 1_565 S
U966 C970 2.847 . S
U966 C983 2.882 . S
U966 O984 2.441 . S
U966 O985 2.420 . S
U966 O986 2.455 . S
U966 O987 2.449 . S
O967 U966 2.454 1_545 S
O967 C969 1.353 . S
O968 U966 2.458 1_545 S
O968 C969 1.286 . S
C969 U966 2.984 1_545 S
C969 O967 1.353 . S
C969 O968 1.286 . S
C969 C971 1.363 . S
C970 C960 1.465 . S
C970 U966 2.847 . S
C970 O984 1.249 . S
C970 O985 1.202 . S
C971 C969 1.363 . S
C971 C973 1.408 . S
C971 C976 1.342 . S
C972 C973 1.310 . S
C972 C975 1.461 . S
C972 H992 0.932 . S
C973 C971 1.408 . S
C973 C972 1.310 . S
C973 H993 0.930 . S
C974 C975 1.474 . S
C974 C976 1.285 . S
C974 H994 0.929 . S
C975 C972 1.461 . S
C975 C974 1.474 . S
C976 C971 1.342 . S
C976 C974 1.285 . S
C976 H995 0.930 . S
C977 C980 1.424 . S
C977 C982 1.245 . S
C977 C983 1.428 . S
C978 C981 1.260 . S
C978 C982 1.477 . S
C978 H996 0.932 . S
C979 C980 1.384 . S
C979 C981 1.479 . S
C979 H997 0.929 . S
C980 C977 1.424 . S
C980 C979 1.384 . S
C980 H998 0.928 . S
C981 C978 1.260 . S
C981 C979 1.479 . S
C982 C977 1.245 . S
C982 C978 1.477 . S
C982 H999 0.932 . S
C983 U966 2.882 . S
C983 C977 1.428 . S
C983 O986 1.301 . S
C983 O987 1.282 . S
O984 U966 2.441 . S
O984 C970 1.249 . S
O985 U966 2.420 . S
O985 C970 1.202 . S
O986 U966 2.455 . S
O986 C983 1.301 . S
O987 U966 2.449 . S
O987 C983 1.282 . S
H988 C961 0.931 . S
H989 C963 0.929 . S
H990 C964 0.930 . S
H991 C965 0.931 . S
H992 C972 0.932 . S
H993 C973 0.930 . S
H994 C974 0.929 . S
H995 C976 0.930 . S
H996 C978 0.932 . S
H997 C979 0.929 . S
H998 C980 0.928 . S
H999 C982 0.932 . S
C1000 C1001 1.264 . S
C1000 C1005 1.479 . S
C1000 C1010 1.465 . S
C1001 C1000 1.264 . S
C1001 C1003 1.339 . S
C1001 H1028 0.931 . S
C1002 C1003 1.395 . S
C1002 C1004 1.320 . S
C1003 C1001 1.339 . S
C1003 C1002 1.395 . S
C1003 H1029 0.929 . S
C1004 C1002 1.320 . S
C1004 C1005 1.405 . S
C1004 H1030 0.930 . S
C1005 C1000 1.479 . S
C1005 C1004 1.405 . S
C1005 H1031 0.931 . S
U1006 O1007 2.454 . S
U1006 O1008 2.458 . S
U1006 C1009 2.984 . S
U1006 C1010 2.847 1_545 S
U1006 C1023 2.882 . S
U1006 O1024 2.441 1_545 S
U1006 O1025 2.420 1_545 S
U1006 O1026 2.455 . S
U1006 O1027 2.449 . S
O1007 U1006 2.454 . S
O1007 C1009 1.353 . S
O1008 U1006 2.458 . S
O1008 C1009 1.286 . S
C1009 U1006 2.984 . S
C1009 O1007 1.353 . S
C1009 O1008 1.286 . S
C1009 C1011 1.363 . S
C1010 C1000 1.465 . S
C1010 U1006 2.847 1_565 S
C1010 O1024 1.249 . S
C1010 O1025 1.202 . S
C1011 C1009 1.363 . S
C1011 C1013 1.408 . S
C1011 C1016 1.342 . S
C1012 C1013 1.310 . S
C1012 C1015 1.461 . S
C1012 H1032 0.932 . S
C1013 C1011 1.408 . S
C1013 C1012 1.310 . S
C1013 H1033 0.930 . S
C1014 C1015 1.474 . S
C1014 C1016 1.285 . S
C1014 H1034 0.929 . S
C1015 C1012 1.461 . S
C1015 C1014 1.474 . S
C1016 C1011 1.342 . S
C1016 C1014 1.285 . S
C1016 H1035 0.930 . S
C1017 C1020 1.424 . S
C1017 C1022 1.245 . S
C1017 C1023 1.428 . S
C1018 C1021 1.260 . S
C1018 C1022 1.477 . S
C1018 H1036 0.932 . S
C1019 C1020 1.384 . S
C1019 C1021 1.479 . S
C1019 H1037 0.929 . S
C1020 C1017 1.424 . S
C1020 C1019 1.384 . S
C1020 H1038 0.928 . S
C1021 C1018 1.260 . S
C1021 C1019 1.479 . S
C1022 C1017 1.245 . S
C1022 C1018 1.477 . S
C1022 H1039 0.932 . S
C1023 U1006 2.882 . S
C1023 C1017 1.428 . S
C1023 O1026 1.301 . S
C1023 O1027 1.282 . S
O1024 U1006 2.441 1_565 S
O1024 C1010 1.249 . S
O1025 U1006 2.420 1_565 S
O1025 C1010 1.202 . S
O1026 U1006 2.455 . S
O1026 C1023 1.301 . S
O1027 U1006 2.449 . S
O1027 C1023 1.282 . S
H1028 C1001 0.931 . S
H1029 C1003 0.929 . S
H1030 C1004 0.930 . S
H1031 C1005 0.931 . S
H1032 C1012 0.932 . S
H1033 C1013 0.930 . S
H1034 C1014 0.929 . S
H1035 C1016 0.930 . S
H1036 C1018 0.932 . S
H1037 C1019 0.929 . S
H1038 C1020 0.928 . S
H1039 C1022 0.932 . S
C1040 C1041 1.264 . S
C1040 C1045 1.479 . S
C1040 C1050 1.465 . S
C1041 C1040 1.264 . S
C1041 C1043 1.339 . S
C1041 H1068 0.931 . S
C1042 C1043 1.395 . S
C1042 C1044 1.320 . S
C1043 C1041 1.339 . S
C1043 C1042 1.395 . S
C1043 H1069 0.929 . S
C1044 C1042 1.320 . S
C1044 C1045 1.405 . S
C1044 H1070 0.930 . S
C1045 C1040 1.479 . S
C1045 C1044 1.405 . S
C1045 H1071 0.931 . S
U1046 O1047 2.454 . S
U1046 O1048 2.458 . S
U1046 C1049 2.984 . S
U1046 C1050 2.847 1_545 S
U1046 C1063 2.882 . S
U1046 O1064 2.441 1_545 S
U1046 O1065 2.420 1_545 S
U1046 O1066 2.455 . S
U1046 O1067 2.449 . S
O1047 U1046 2.454 . S
O1047 C1049 1.353 . S
O1048 U1046 2.458 . S
O1048 C1049 1.286 . S
C1049 U1046 2.984 . S
C1049 O1047 1.353 . S
C1049 O1048 1.286 . S
C1049 C1051 1.363 . S
C1050 C1040 1.465 . S
C1050 U1046 2.847 1_565 S
C1050 O1064 1.249 . S
C1050 O1065 1.202 . S
C1051 C1049 1.363 . S
C1051 C1053 1.408 . S
C1051 C1056 1.342 . S
C1052 C1053 1.310 . S
C1052 C1055 1.461 . S
C1052 H1072 0.932 . S
C1053 C1051 1.408 . S
C1053 C1052 1.310 . S
C1053 H1073 0.930 . S
C1054 C1055 1.474 . S
C1054 C1056 1.285 . S
C1054 H1074 0.929 . S
C1055 C1052 1.461 . S
C1055 C1054 1.474 . S
C1056 C1051 1.342 . S
C1056 C1054 1.285 . S
C1056 H1075 0.930 . S
C1057 C1060 1.424 . S
C1057 C1062 1.245 . S
C1057 C1063 1.428 . S
C1058 C1061 1.260 . S
C1058 C1062 1.477 . S
C1058 H1076 0.932 . S
C1059 C1060 1.384 . S
C1059 C1061 1.479 . S
C1059 H1077 0.929 . S
C1060 C1057 1.424 . S
C1060 C1059 1.384 . S
C1060 H1078 0.928 . S
C1061 C1058 1.260 . S
C1061 C1059 1.479 . S
C1062 C1057 1.245 . S
C1062 C1058 1.477 . S
C1062 H1079 0.932 . S
C1063 U1046 2.882 . S
C1063 C1057 1.428 . S
C1063 O1066 1.301 . S
C1063 O1067 1.282 . S
O1064 U1046 2.441 1_565 S
O1064 C1050 1.249 . S
O1065 U1046 2.420 1_565 S
O1065 C1050 1.202 . S
O1066 U1046 2.455 . S
O1066 C1063 1.301 . S
O1067 U1046 2.449 . S
O1067 C1063 1.282 . S
H1068 C1041 0.931 . S
H1069 C1043 0.929 . S
H1070 C1044 0.930 . S
H1071 C1045 0.931 . S
H1072 C1052 0.932 . S
H1073 C1053 0.930 . S
H1074 C1054 0.929 . S
H1075 C1056 0.930 . S
H1076 C1058 0.932 . S
H1077 C1059 0.929 . S
H1078 C1060 0.928 . S
H1079 C1062 0.932 . S
C1080 C1081 1.264 . S
C1080 C1085 1.479 . S
C1080 C1090 1.465 . S
C1081 C1080 1.264 . S
C1081 C1083 1.339 . S
C1081 H1108 0.931 . S
C1082 C1083 1.395 . S
C1082 C1084 1.320 . S
C1083 C1081 1.339 . S
C1083 C1082 1.395 . S
C1083 H1109 0.929 . S
C1084 C1082 1.320 . S
C1084 C1085 1.405 . S
C1084 H1110 0.930 . S
C1085 C1080 1.479 . S
C1085 C1084 1.405 . S
C1085 H1111 0.931 . S
U1086 O1087 2.454 . S
U1086 O1088 2.458 . S
U1086 C1089 2.984 1_556 S
U1086 C1090 2.847 . S
U1086 C1103 2.882 . S
U1086 O1104 2.441 . S
U1086 O1105 2.420 . S
U1086 O1106 2.455 . S
U1086 O1107 2.449 . S
O1087 U1086 2.454 . S
O1087 C1089 1.353 1_556 S
O1088 U1086 2.458 . S
O1088 C1089 1.286 1_556 S
C1089 U1086 2.984 1_554 S
C1089 O1087 1.353 1_554 S
C1089 O1088 1.286 1_554 S
C1089 C1091 1.363 . S
C1090 C1080 1.465 . S
C1090 U1086 2.847 . S
C1090 O1104 1.249 . S
C1090 O1105 1.202 . S
C1091 C1089 1.363 . S
C1091 C1093 1.408 . S
C1091 C1096 1.342 . S
C1092 C1093 1.310 . S
C1092 C1095 1.461 . S
C1092 H1112 0.932 . S
C1093 C1091 1.408 . S
C1093 C1092 1.310 . S
C1093 H1113 0.930 . S
C1094 C1095 1.474 . S
C1094 C1096 1.285 . S
C1094 H1114 0.929 . S
C1095 C1092 1.461 . S
C1095 C1094 1.474 . S
C1096 C1091 1.342 . S
C1096 C1094 1.285 . S
C1096 H1115 0.930 . S
C1097 C1100 1.424 . S
C1097 C1102 1.245 . S
C1097 C1103 1.428 . S
C1098 C1101 1.260 . S
C1098 C1102 1.477 . S
C1098 H1116 0.932 . S
C1099 C1100 1.384 . S
C1099 C1101 1.479 . S
C1099 H1117 0.929 . S
C1100 C1097 1.424 . S
C1100 C1099 1.384 . S
C1100 H1118 0.928 . S
C1101 C1098 1.260 . S
C1101 C1099 1.479 . S
C1102 C1097 1.245 . S
C1102 C1098 1.477 . S
C1102 H1119 0.932 . S
C1103 U1086 2.882 . S
C1103 C1097 1.428 . S
C1103 O1106 1.301 . S
C1103 O1107 1.282 . S
O1104 U1086 2.441 . S
O1104 C1090 1.249 . S
O1105 U1086 2.420 . S
O1105 C1090 1.202 . S
O1106 U1086 2.455 . S
O1106 C1103 1.301 . S
O1107 U1086 2.449 . S
O1107 C1103 1.282 . S
H1108 C1081 0.931 . S
H1109 C1083 0.929 . S
H1110 C1084 0.930 . S
H1111 C1085 0.931 . S
H1112 C1092 0.932 . S
H1113 C1093 0.930 . S
H1114 C1094 0.929 . S
H1115 C1096 0.930 . S
H1116 C1098 0.932 . S
H1117 C1099 0.929 . S
H1118 C1100 0.928 . S
H1119 C1102 0.932 . S
C1120 C1121 1.264 . S
C1120 C1125 1.479 . S
C1120 C1130 1.465 . S
C1121 C1120 1.264 . S
C1121 C1123 1.339 . S
C1121 H1148 0.931 . S
C1122 C1123 1.395 . S
C1122 C1124 1.320 . S
C1123 C1121 1.339 . S
C1123 C1122 1.395 . S
C1123 H1149 0.929 . S
C1124 C1122 1.320 . S
C1124 C1125 1.405 . S
C1124 H1150 0.930 . S
C1125 C1120 1.479 . S
C1125 C1124 1.405 . S
C1125 H1151 0.931 . S
U1126 O1127 2.454 . S
U1126 O1128 2.458 . S
U1126 C1129 2.984 . S
U1126 C1130 2.847 1_455 S
U1126 C1143 2.882 . S
U1126 O1144 2.441 1_455 S
U1126 O1145 2.420 1_455 S
U1126 O1146 2.455 . S
U1126 O1147 2.449 . S
O1127 U1126 2.454 . S
O1127 C1129 1.353 . S
O1128 U1126 2.458 . S
O1128 C1129 1.286 . S
C1129 U1126 2.984 . S
C1129 O1127 1.353 . S
C1129 O1128 1.286 . S
C1129 C1131 1.363 . S
C1130 C1120 1.465 . S
C1130 U1126 2.847 1_655 S
C1130 O1144 1.249 . S
C1130 O1145 1.202 . S
C1131 C1129 1.363 . S
C1131 C1133 1.408 . S
C1131 C1136 1.342 . S
C1132 C1133 1.310 . S
C1132 C1135 1.461 . S
C1132 H1152 0.932 . S
C1133 C1131 1.408 . S
C1133 C1132 1.310 . S
C1133 H1153 0.930 . S
C1134 C1135 1.474 . S
C1134 C1136 1.285 . S
C1134 H1154 0.929 . S
C1135 C1132 1.461 . S
C1135 C1134 1.474 . S
C1136 C1131 1.342 . S
C1136 C1134 1.285 . S
C1136 H1155 0.930 . S
C1137 C1140 1.424 . S
C1137 C1142 1.245 . S
C1137 C1143 1.428 . S
C1138 C1141 1.260 . S
C1138 C1142 1.477 . S
C1138 H1156 0.932 . S
C1139 C1140 1.384 . S
C1139 C1141 1.479 . S
C1139 H1157 0.929 . S
C1140 C1137 1.424 . S
C1140 C1139 1.384 . S
C1140 H1158 0.928 . S
C1141 C1138 1.260 . S
C1141 C1139 1.479 . S
C1142 C1137 1.245 . S
C1142 C1138 1.477 . S
C1142 H1159 0.932 . S
C1143 U1126 2.882 . S
C1143 C1137 1.428 . S
C1143 O1146 1.301 . S
C1143 O1147 1.282 . S
O1144 U1126 2.441 1_655 S
O1144 C1130 1.249 . S
O1145 U1126 2.420 1_655 S
O1145 C1130 1.202 . S
O1146 U1126 2.455 . S
O1146 C1143 1.301 . S
O1147 U1126 2.449 . S
O1147 C1143 1.282 . S
H1148 C1121 0.931 . S
H1149 C1123 0.929 . S
H1150 C1124 0.930 . S
H1151 C1125 0.931 . S
H1152 C1132 0.932 . S
H1153 C1133 0.930 . S
H1154 C1134 0.929 . S
H1155 C1136 0.930 . S
H1156 C1138 0.932 . S
H1157 C1139 0.929 . S
H1158 C1140 0.928 . S
H1159 C1142 0.932 . S
C1160 C1161 1.264 . S
C1160 C1165 1.479 . S
C1160 C1170 1.465 . S
C1161 C1160 1.264 . S
C1161 C1163 1.339 . S
C1161 H1188 0.931 . S
C1162 C1163 1.395 . S
C1162 C1164 1.320 . S
C1163 C1161 1.339 . S
C1163 C1162 1.395 . S
C1163 H1189 0.929 . S
C1164 C1162 1.320 . S
C1164 C1165 1.405 . S
C1164 H1190 0.930 . S
C1165 C1160 1.479 . S
C1165 C1164 1.405 . S
C1165 H1191 0.931 . S
U1166 O1167 2.454 . S
U1166 O1168 2.458 . S
U1166 C1169 2.984 . S
U1166 C1170 2.847 . S
U1166 C1183 2.882 . S
U1166 O1184 2.441 . S
U1166 O1185 2.420 . S
U1166 O1186 2.455 . S
U1166 O1187 2.449 . S
O1167 U1166 2.454 . S
O1167 C1169 1.353 . S
O1168 U1166 2.458 . S
O1168 C1169 1.286 . S
C1169 U1166 2.984 . S
C1169 O1167 1.353 . S
C1169 O1168 1.286 . S
C1169 C1171 1.363 . S
C1170 C1160 1.465 . S
C1170 U1166 2.847 . S
C1170 O1184 1.249 . S
C1170 O1185 1.202 . S
C1171 C1169 1.363 . S
C1171 C1173 1.408 . S
C1171 C1176 1.342 . S
C1172 C1173 1.310 . S
C1172 C1175 1.461 . S
C1172 H1192 0.932 . S
C1173 C1171 1.408 . S
C1173 C1172 1.310 . S
C1173 H1193 0.930 . S
C1174 C1175 1.474 . S
C1174 C1176 1.285 . S
C1174 H1194 0.929 . S
C1175 C1172 1.461 . S
C1175 C1174 1.474 . S
C1176 C1171 1.342 . S
C1176 C1174 1.285 . S
C1176 H1195 0.930 . S
C1177 C1180 1.424 . S
C1177 C1182 1.245 . S
C1177 C1183 1.428 . S
C1178 C1181 1.260 . S
C1178 C1182 1.477 . S
C1178 H1196 0.932 . S
C1179 C1180 1.384 . S
C1179 C1181 1.479 . S
C1179 H1197 0.929 . S
C1180 C1177 1.424 . S
C1180 C1179 1.384 . S
C1180 H1198 0.928 . S
C1181 C1178 1.260 . S
C1181 C1179 1.479 . S
C1182 C1177 1.245 . S
C1182 C1178 1.477 . S
C1182 H1199 0.932 . S
C1183 U1166 2.882 . S
C1183 C1177 1.428 . S
C1183 O1186 1.301 . S
C1183 O1187 1.282 . S
O1184 U1166 2.441 . S
O1184 C1170 1.249 . S
O1185 U1166 2.420 . S
O1185 C1170 1.202 . S
O1186 U1166 2.455 . S
O1186 C1183 1.301 . S
O1187 U1166 2.449 . S
O1187 C1183 1.282 . S
H1188 C1161 0.931 . S
H1189 C1163 0.929 . S
H1190 C1164 0.930 . S
H1191 C1165 0.931 . S
H1192 C1172 0.932 . S
H1193 C1173 0.930 . S
H1194 C1174 0.929 . S
H1195 C1176 0.930 . S
H1196 C1178 0.932 . S
H1197 C1179 0.929 . S
H1198 C1180 0.928 . S
H1199 C1182 0.932 . S
C1200 C1201 1.264 . S
C1200 C1205 1.479 . S
C1200 C1210 1.465 . S
C1201 C1200 1.264 . S
C1201 C1203 1.339 . S
C1201 H1228 0.931 . S
C1202 C1203 1.395 . S
C1202 C1204 1.320 . S
C1203 C1201 1.339 . S
C1203 C1202 1.395 . S
C1203 H1229 0.929 . S
C1204 C1202 1.320 . S
C1204 C1205 1.405 . S
C1204 H1230 0.930 . S
C1205 C1200 1.479 . S
C1205 C1204 1.405 . S
C1205 H1231 0.931 . S
U1206 O1207 2.454 . S
U1206 O1208 2.458 . S
U1206 C1209 2.984 . S
U1206 C1210 2.847 . S
U1206 C1223 2.882 . S
U1206 O1224 2.441 . S
U1206 O1225 2.420 . S
U1206 O1226 2.455 . S
U1206 O1227 2.449 . S
O1207 U1206 2.454 . S
O1207 C1209 1.353 . S
O1208 U1206 2.458 . S
O1208 C1209 1.286 . S
C1209 U1206 2.984 . S
C1209 O1207 1.353 . S
C1209 O1208 1.286 . S
C1209 C1211 1.363 . S
C1210 C1200 1.465 . S
C1210 U1206 2.847 . S
C1210 O1224 1.249 . S
C1210 O1225 1.202 . S
C1211 C1209 1.363 . S
C1211 C1213 1.408 . S
C1211 C1216 1.342 . S
C1212 C1213 1.310 . S
C1212 C1215 1.461 . S
C1212 H1232 0.932 . S
C1213 C1211 1.408 . S
C1213 C1212 1.310 . S
C1213 H1233 0.930 . S
C1214 C1215 1.474 . S
C1214 C1216 1.285 . S
C1214 H1234 0.929 . S
C1215 C1212 1.461 . S
C1215 C1214 1.474 . S
C1216 C1211 1.342 . S
C1216 C1214 1.285 . S
C1216 H1235 0.930 . S
C1217 C1220 1.424 . S
C1217 C1222 1.245 . S
C1217 C1223 1.428 . S
C1218 C1221 1.260 . S
C1218 C1222 1.477 . S
C1218 H1236 0.932 . S
C1219 C1220 1.384 . S
C1219 C1221 1.479 . S
C1219 H1237 0.929 . S
C1220 C1217 1.424 . S
C1220 C1219 1.384 . S
C1220 H1238 0.928 . S
C1221 C1218 1.260 . S
C1221 C1219 1.479 . S
C1222 C1217 1.245 . S
C1222 C1218 1.477 . S
C1222 H1239 0.932 . S
C1223 U1206 2.882 . S
C1223 C1217 1.428 . S
C1223 O1226 1.301 . S
C1223 O1227 1.282 . S
O1224 U1206 2.441 . S
O1224 C1210 1.249 . S
O1225 U1206 2.420 . S
O1225 C1210 1.202 . S
O1226 U1206 2.455 . S
O1226 C1223 1.301 . S
O1227 U1206 2.449 . S
O1227 C1223 1.282 . S
H1228 C1201 0.931 . S
H1229 C1203 0.929 . S
H1230 C1204 0.930 . S
H1231 C1205 0.931 . S
H1232 C1212 0.932 . S
H1233 C1213 0.930 . S
H1234 C1214 0.929 . S
H1235 C1216 0.930 . S
H1236 C1218 0.932 . S
H1237 C1219 0.929 . S
H1238 C1220 0.928 . S
H1239 C1222 0.932 . S
C1240 C1241 1.264 . S
C1240 C1245 1.479 . S
C1240 C1250 1.465 . S
C1241 C1240 1.264 . S
C1241 C1243 1.339 . S
C1241 H1268 0.931 . S
C1242 C1243 1.395 . S
C1242 C1244 1.320 . S
C1243 C1241 1.339 . S
C1243 C1242 1.395 . S
C1243 H1269 0.929 . S
C1244 C1242 1.320 . S
C1244 C1245 1.405 . S
C1244 H1270 0.930 . S
C1245 C1240 1.479 . S
C1245 C1244 1.405 . S
C1245 H1271 0.931 . S
U1246 O1247 2.509 . S
U1246 O1248 2.458 . S
U1246 C1249 2.984 1_655 S
U1246 C1250 2.847 . S
U1246 C1263 2.882 . S
U1246 O1264 2.441 . S
U1246 O1265 2.420 . S
U1246 O1266 2.455 . S
U1246 O1267 2.449 . S
O1247 U1246 2.509 . S
O1247 C1249 1.345 1_655 S
O1248 U1246 2.458 . S
O1248 C1249 1.286 1_655 S
C1249 U1246 2.984 1_455 S
C1249 O1247 1.345 1_455 S
C1249 O1248 1.286 1_455 S
C1249 C1251 1.363 . S
C1250 C1240 1.465 . S
C1250 U1246 2.847 . S
C1250 O1264 1.249 . S
C1250 O1265 1.202 . S
C1251 C1249 1.363 . S
C1251 C1253 1.408 . S
C1251 C1256 1.342 . S
C1252 C1253 1.310 . S
C1252 C1255 1.461 . S
C1252 H1272 0.932 . S
C1253 C1251 1.408 . S
C1253 C1252 1.310 . S
C1253 H1273 0.930 . S
C1254 C1255 1.474 . S
C1254 C1256 1.285 . S
C1254 H1274 0.929 . S
C1255 C1252 1.461 . S
C1255 C1254 1.474 . S
C1256 C1251 1.342 . S
C1256 C1254 1.285 . S
C1256 H1275 0.930 . S
C1257 C1260 1.424 . S
C1257 C1262 1.245 . S
C1257 C1263 1.428 . S
C1258 C1261 1.260 . S
C1258 C1262 1.477 . S
C1258 H1276 0.932 . S
C1259 C1260 1.384 . S
C1259 C1261 1.479 . S
C1259 H1277 0.929 . S
C1260 C1257 1.424 . S
C1260 C1259 1.384 . S
C1260 H1278 0.928 . S
C1261 C1258 1.260 . S
C1261 C1259 1.479 . S
C1262 C1257 1.245 . S
C1262 C1258 1.477 . S
C1262 H1279 0.932 . S
C1263 U1246 2.882 . S
C1263 C1257 1.428 . S
C1263 O1266 1.301 . S
C1263 O1267 1.282 . S
O1264 U1246 2.441 . S
O1264 C1250 1.249 . S
O1265 U1246 2.420 . S
O1265 C1250 1.202 . S
O1266 U1246 2.455 . S
O1266 C1263 1.301 . S
O1267 U1246 2.449 . S
O1267 C1263 1.282 . S
H1268 C1241 0.931 . S
H1269 C1243 0.929 . S
H1270 C1244 0.930 . S
H1271 C1245 0.931 . S
H1272 C1252 0.932 . S
H1273 C1253 0.930 . S
H1274 C1254 0.929 . S
H1275 C1256 0.930 . S
H1276 C1258 0.932 . S
H1277 C1259 0.929 . S
H1278 C1260 0.928 . S
H1279 C1262 0.932 . S
C1280 C1281 1.264 . S
C1280 C1285 1.479 . S
C1280 C1290 1.465 . S
C1281 C1280 1.264 . S
C1281 C1283 1.339 . S
C1281 H1308 0.931 . S
C1282 C1283 1.395 . S
C1282 C1284 1.320 . S
C1283 C1281 1.339 . S
C1283 C1282 1.395 . S
C1283 H1309 0.929 . S
C1284 C1282 1.320 . S
C1284 C1285 1.405 . S
C1284 H1310 0.930 . S
C1285 C1280 1.479 . S
C1285 C1284 1.405 . S
C1285 H1311 0.931 . S
U1286 O1287 2.454 . S
U1286 O1288 2.458 . S
U1286 C1289 2.984 . S
U1286 C1290 2.847 . S
U1286 C1303 2.882 . S
U1286 O1304 2.441 . S
U1286 O1305 2.420 . S
U1286 O1306 2.455 . S
U1286 O1307 2.449 . S
O1287 U1286 2.454 . S
O1287 C1289 1.353 . S
O1288 U1286 2.458 . S
O1288 C1289 1.286 . S
C1289 U1286 2.984 . S
C1289 O1287 1.353 . S
C1289 O1288 1.286 . S
C1289 C1291 1.363 . S
C1290 C1280 1.465 . S
C1290 U1286 2.847 . S
C1290 O1304 1.249 . S
C1290 O1305 1.202 . S
C1291 C1289 1.363 . S
C1291 C1293 1.408 . S
C1291 C1296 1.342 . S
C1292 C1293 1.310 . S
C1292 C1295 1.461 . S
C1292 H1312 0.932 . S
C1293 C1291 1.408 . S
C1293 C1292 1.310 . S
C1293 H1313 0.930 . S
C1294 C1295 1.474 . S
C1294 C1296 1.285 . S
C1294 H1314 0.929 . S
C1295 C1292 1.461 . S
C1295 C1294 1.474 . S
C1296 C1291 1.342 . S
C1296 C1294 1.285 . S
C1296 H1315 0.930 . S
C1297 C1300 1.424 . S
C1297 C1302 1.245 . S
C1297 C1303 1.428 . S
C1298 C1301 1.260 . S
C1298 C1302 1.477 . S
C1298 H1316 0.932 . S
C1299 C1300 1.384 . S
C1299 C1301 1.479 . S
C1299 H1317 0.929 . S
C1300 C1297 1.424 . S
C1300 C1299 1.384 . S
C1300 H1318 0.928 . S
C1301 C1298 1.260 . S
C1301 C1299 1.479 . S
C1302 C1297 1.245 . S
C1302 C1298 1.477 . S
C1302 H1319 0.932 . S
C1303 U1286 2.882 . S
C1303 C1297 1.428 . S
C1303 O1306 1.301 . S
C1303 O1307 1.282 . S
O1304 U1286 2.441 . S
O1304 C1290 1.249 . S
O1305 U1286 2.420 . S
O1305 C1290 1.202 . S
O1306 U1286 2.455 . S
O1306 C1303 1.301 . S
O1307 U1286 2.449 . S
O1307 C1303 1.282 . S
H1308 C1281 0.931 . S
H1309 C1283 0.929 . S
H1310 C1284 0.930 . S
H1311 C1285 0.931 . S
H1312 C1292 0.932 . S
H1313 C1293 0.930 . S
H1314 C1294 0.929 . S
H1315 C1296 0.930 . S
H1316 C1298 0.932 . S
H1317 C1299 0.929 . S
H1318 C1300 0.928 . S
H1319 C1302 0.932 . S
C1320 C1321 1.264 . S
C1320 C1325 1.479 . S
C1320 C1330 1.465 . S
C1321 C1320 1.264 . S
C1321 C1323 1.339 . S
C1321 H1348 0.931 . S
C1322 C1323 1.395 . S
C1322 C1324 1.320 . S
C1323 C1321 1.339 . S
C1323 C1322 1.395 . S
C1323 H1349 0.929 . S
C1324 C1322 1.320 . S
C1324 C1325 1.405 . S
C1324 H1350 0.930 . S
C1325 C1320 1.479 . S
C1325 C1324 1.405 . S
C1325 H1351 0.931 . S
U1326 O1327 2.454 . S
U1326 O1328 2.458 . S
U1326 C1329 2.984 . S
U1326 C1330 2.847 . S
U1326 C1343 2.882 . S
U1326 O1344 2.441 . S
U1326 O1345 2.420 . S
U1326 O1346 2.455 . S
U1326 O1347 2.449 . S
O1327 U1326 2.454 . S
O1327 C1329 1.353 . S
O1328 U1326 2.458 . S
O1328 C1329 1.286 . S
C1329 U1326 2.984 . S
C1329 O1327 1.353 . S
C1329 O1328 1.286 . S
C1329 C1331 1.363 . S
C1330 C1320 1.465 . S
C1330 U1326 2.847 . S
C1330 O1344 1.249 . S
C1330 O1345 1.202 . S
C1331 C1329 1.363 . S
C1331 C1333 1.408 1_556 S
C1331 C1336 1.342 . S
C1332 C1333 1.310 . S
C1332 C1335 1.461 . S
C1332 H1352 0.932 . S
C1333 C1331 1.408 1_554 S
C1333 C1332 1.310 . S
C1333 H1353 0.930 . S
C1334 C1335 1.474 . S
C1334 C1336 1.285 1_554 S
C1334 H1354 0.929 . S
C1335 C1332 1.461 . S
C1335 C1334 1.474 . S
C1336 C1331 1.342 . S
C1336 C1334 1.285 1_556 S
C1336 H1355 0.930 . S
C1337 C1340 1.424 . S
C1337 C1342 1.245 . S
C1337 C1343 1.428 . S
C1338 C1341 1.260 . S
C1338 C1342 1.477 . S
C1338 H1356 0.932 . S
C1339 C1340 1.384 . S
C1339 C1341 1.479 . S
C1339 H1357 0.929 . S
C1340 C1337 1.424 . S
C1340 C1339 1.384 . S
C1340 H1358 0.928 . S
C1341 C1338 1.260 . S
C1341 C1339 1.479 . S
C1342 C1337 1.245 . S
C1342 C1338 1.477 . S
C1342 H1359 0.932 . S
C1343 U1326 2.882 . S
C1343 C1337 1.428 . S
C1343 O1346 1.301 . S
C1343 O1347 1.282 . S
O1344 U1326 2.441 . S
O1344 C1330 1.249 . S
O1345 U1326 2.420 . S
O1345 C1330 1.202 . S
O1346 U1326 2.455 . S
O1346 C1343 1.301 . S
O1347 U1326 2.449 . S
O1347 C1343 1.282 . S
H1348 C1321 0.931 . S
H1349 C1323 0.929 . S
H1350 C1324 0.930 . S
H1351 C1325 0.931 . S
H1352 C1332 0.932 . S
H1353 C1333 0.930 . S
H1354 C1334 0.929 . S
H1355 C1336 0.930 . S
H1356 C1338 0.932 . S
H1357 C1339 0.929 . S
H1358 C1340 0.928 . S
H1359 C1342 0.932 . S
C1360 C1361 1.264 . S
C1360 C1365 1.479 . S
C1360 C1370 1.465 . S
C1361 C1360 1.264 . S
C1361 C1363 1.339 . S
C1361 H1388 0.931 . S
C1362 C1363 1.395 . S
C1362 C1364 1.320 . S
C1363 C1361 1.339 . S
C1363 C1362 1.395 . S
C1363 H1389 0.929 . S
C1364 C1362 1.320 . S
C1364 C1365 1.405 . S
C1364 H1390 0.930 . S
C1365 C1360 1.479 . S
C1365 C1364 1.405 . S
C1365 H1391 0.931 . S
U1366 O1367 2.454 . S
U1366 O1368 2.458 . S
U1366 C1369 2.984 . S
U1366 C1370 2.847 . S
U1366 C1383 2.882 . S
U1366 O1384 2.441 . S
U1366 O1385 2.420 . S
U1366 O1386 2.455 . S
U1366 O1387 2.449 . S
O1367 U1366 2.454 . S
O1367 C1369 1.353 . S
O1368 U1366 2.458 . S
O1368 C1369 1.286 . S
C1369 U1366 2.984 . S
C1369 O1367 1.353 . S
C1369 O1368 1.286 . S
C1369 C1371 1.363 . S
C1370 C1360 1.465 . S
C1370 U1366 2.847 . S
C1370 O1384 1.249 . S
C1370 O1385 1.202 . S
C1371 C1369 1.363 . S
C1371 C1373 1.408 . S
C1371 C1376 1.342 . S
C1372 C1373 1.310 . S
C1372 C1375 1.461 . S
C1372 H1392 0.932 . S
C1373 C1371 1.408 . S
C1373 C1372 1.310 . S
C1373 H1393 0.930 . S
C1374 C1375 1.474 . S
C1374 C1376 1.285 . S
C1374 H1394 0.929 . S
C1375 C1372 1.461 . S
C1375 C1374 1.474 . S
C1376 C1371 1.342 . S
C1376 C1374 1.285 . S
C1376 H1395 0.930 . S
C1377 C1380 1.424 . S
C1377 C1382 1.245 . S
C1377 C1383 1.428 . S
C1378 C1381 1.260 . S
C1378 C1382 1.477 . S
C1378 H1396 0.932 . S
C1379 C1380 1.384 . S
C1379 C1381 1.479 . S
C1379 H1397 0.929 . S
C1380 C1377 1.424 . S
C1380 C1379 1.384 . S
C1380 H1398 0.928 . S
C1381 C1378 1.260 . S
C1381 C1379 1.479 . S
C1382 C1377 1.245 . S
C1382 C1378 1.477 . S
C1382 H1399 0.932 . S
C1383 U1366 2.882 . S
C1383 C1377 1.428 . S
C1383 O1386 1.301 . S
C1383 O1387 1.282 . S
O1384 U1366 2.441 . S
O1384 C1370 1.249 . S
O1385 U1366 2.420 . S
O1385 C1370 1.202 . S
O1386 U1366 2.455 . S
O1386 C1383 1.301 . S
O1387 U1366 2.449 . S
O1387 C1383 1.282 . S
H1388 C1361 0.931 . S
H1389 C1363 0.929 . S
H1390 C1364 0.930 . S
H1391 C1365 0.931 . S
H1392 C1372 0.932 . S
H1393 C1373 0.930 . S
H1394 C1374 0.929 . S
H1395 C1376 0.930 . S
H1396 C1378 0.932 . S
H1397 C1379 0.929 . S
H1398 C1380 0.928 . S
H1399 C1382 0.932 . S
C1400 C1401 1.264 . S
C1400 C1405 1.479 . S
C1400 C1410 1.465 . S
C1401 C1400 1.264 . S
C1401 C1403 1.339 . S
C1401 H1428 0.931 . S
C1402 C1403 1.395 . S
C1402 C1404 1.320 . S
C1403 C1401 1.339 . S
C1403 C1402 1.395 . S
C1403 H1429 0.929 . S
C1404 C1402 1.320 . S
C1404 C1405 1.405 . S
C1404 H1430 0.930 . S
C1405 C1400 1.479 . S
C1405 C1404 1.405 . S
C1405 H1431 0.931 . S
U1406 O1407 2.454 . S
U1406 O1408 2.458 . S
U1406 C1409 2.984 . S
U1406 C1410 2.847 . S
U1406 C1423 2.882 . S
U1406 O1424 2.441 . S
U1406 O1425 2.420 . S
U1406 O1426 2.455 . S
U1406 O1427 2.449 . S
O1407 U1406 2.454 . S
O1407 C1409 1.353 . S
O1408 U1406 2.458 . S
O1408 C1409 1.286 . S
C1409 U1406 2.984 . S
C1409 O1407 1.353 . S
C1409 O1408 1.286 . S
C1409 C1411 1.363 . S
C1410 C1400 1.465 . S
C1410 U1406 2.847 . S
C1410 O1424 1.249 . S
C1410 O1425 1.202 . S
C1411 C1409 1.363 . S
C1411 C1413 1.408 . S
C1411 C1416 1.342 . S
C1412 C1413 1.310 . S
C1412 C1415 1.461 . S
C1412 H1432 0.932 . S
C1413 C1411 1.408 . S
C1413 C1412 1.310 . S
C1413 H1433 0.930 . S
C1414 C1415 1.474 . S
C1414 C1416 1.285 . S
C1414 H1434 0.929 . S
C1415 C1412 1.461 . S
C1415 C1414 1.474 . S
C1416 C1411 1.342 . S
C1416 C1414 1.285 . S
C1416 H1435 0.930 . S
C1417 C1420 1.424 . S
C1417 C1422 1.245 . S
C1417 C1423 1.428 . S
C1418 C1421 1.260 . S
C1418 C1422 1.477 . S
C1418 H1436 0.932 . S
C1419 C1420 1.384 . S
C1419 C1421 1.479 . S
C1419 H1437 0.929 . S
C1420 C1417 1.424 . S
C1420 C1419 1.384 . S
C1420 H1438 0.928 . S
C1421 C1418 1.260 . S
C1421 C1419 1.479 . S
C1422 C1417 1.245 . S
C1422 C1418 1.477 . S
C1422 H1439 0.932 . S
C1423 U1406 2.882 . S
C1423 C1417 1.428 . S
C1423 O1426 1.301 . S
C1423 O1427 1.282 . S
O1424 U1406 2.441 . S
O1424 C1410 1.249 . S
O1425 U1406 2.420 . S
O1425 C1410 1.202 . S
O1426 U1406 2.455 . S
O1426 C1423 1.301 . S
O1427 U1406 2.449 . S
O1427 C1423 1.282 . S
H1428 C1401 0.931 . S
H1429 C1403 0.929 . S
H1430 C1404 0.930 . S
H1431 C1405 0.931 . S
H1432 C1412 0.932 . S
H1433 C1413 0.930 . S
H1434 C1414 0.929 . S
H1435 C1416 0.930 . S
H1436 C1418 0.932 . S
H1437 C1419 0.929 . S
H1438 C1420 0.928 . S
H1439 C1422 0.932 . S
C1440 C1441 1.264 . S
C1440 C1445 1.479 . S
C1440 C1450 1.465 . S
C1441 C1440 1.264 . S
C1441 C1443 1.339 . S
C1441 H1468 0.931 . S
C1442 C1443 1.395 . S
C1442 C1444 1.320 . S
C1443 C1441 1.339 . S
C1443 C1442 1.395 . S
C1443 H1469 0.929 . S
C1444 C1442 1.320 . S
C1444 C1445 1.405 . S
C1444 H1470 0.930 . S
C1445 C1440 1.479 . S
C1445 C1444 1.405 . S
C1445 H1471 0.931 . S
U1446 O1447 2.454 . S
U1446 O1448 2.458 . S
U1446 C1449 2.984 . S
U1446 C1450 2.847 . S
U1446 C1463 2.882 . S
U1446 O1464 2.441 . S
U1446 O1465 2.420 . S
U1446 O1466 2.455 . S
U1446 O1467 2.449 . S
O1447 U1446 2.454 . S
O1447 C1449 1.353 . S
O1448 U1446 2.458 . S
O1448 C1449 1.286 . S
C1449 U1446 2.984 . S
C1449 O1447 1.353 . S
C1449 O1448 1.286 . S
C1449 C1451 1.363 . S
C1450 C1440 1.465 . S
C1450 U1446 2.847 . S
C1450 O1464 1.249 . S
C1450 O1465 1.202 . S
C1451 C1449 1.363 . S
C1451 C1453 1.408 . S
C1451 C1456 1.342 . S
C1452 C1453 1.310 . S
C1452 C1455 1.461 . S
C1452 H1472 0.932 . S
C1453 C1451 1.408 . S
C1453 C1452 1.310 . S
C1453 H1473 0.930 . S
C1454 C1455 1.474 . S
C1454 C1456 1.285 . S
C1454 H1474 0.929 . S
C1455 C1452 1.461 . S
C1455 C1454 1.474 . S
C1456 C1451 1.342 . S
C1456 C1454 1.285 . S
C1456 H1475 0.930 . S
C1457 C1460 1.424 . S
C1457 C1462 1.245 . S
C1457 C1463 1.428 . S
C1458 C1461 1.260 . S
C1458 C1462 1.477 . S
C1458 H1476 0.932 . S
C1459 C1460 1.384 . S
C1459 C1461 1.479 . S
C1459 H1477 0.929 . S
C1460 C1457 1.424 . S
C1460 C1459 1.384 . S
C1460 H1478 0.928 . S
C1461 C1458 1.260 . S
C1461 C1459 1.479 . S
C1462 C1457 1.245 . S
C1462 C1458 1.477 . S
C1462 H1479 0.932 . S
C1463 U1446 2.882 . S
C1463 C1457 1.428 . S
C1463 O1466 1.301 . S
C1463 O1467 1.282 . S
O1464 U1446 2.441 . S
O1464 C1450 1.249 . S
O1465 U1446 2.420 . S
O1465 C1450 1.202 . S
O1466 U1446 2.455 . S
O1466 C1463 1.301 . S
O1467 U1446 2.449 . S
O1467 C1463 1.282 . S
H1468 C1441 0.931 . S
H1469 C1443 0.929 . S
H1470 C1444 0.930 . S
H1471 C1445 0.931 . S
H1472 C1452 0.932 . S
H1473 C1453 0.930 . S
H1474 C1454 0.929 . S
H1475 C1456 0.930 . S
H1476 C1458 0.932 . S
H1477 C1459 0.929 . S
H1478 C1460 0.928 . S
H1479 C1462 0.932 . S
C1480 C1481 1.264 . S
C1480 C1485 1.479 . S
C1480 C1490 1.465 . S
C1481 C1480 1.264 . S
C1481 C1483 1.339 . S
C1481 H1508 0.931 . S
C1482 C1483 1.395 . S
C1482 C1484 1.320 . S
C1483 C1481 1.339 . S
C1483 C1482 1.395 . S
C1483 H1509 0.929 . S
C1484 C1482 1.320 . S
C1484 C1485 1.405 . S
C1484 H1510 0.930 . S
C1485 C1480 1.479 . S
C1485 C1484 1.405 . S
C1485 H1511 0.931 . S
U1486 O1487 2.454 . S
U1486 O1488 2.458 . S
U1486 C1489 2.984 . S
U1486 C1490 2.847 . S
U1486 C1503 2.882 . S
U1486 O1504 2.441 . S
U1486 O1505 2.420 . S
U1486 O1506 2.455 . S
U1486 O1507 2.449 . S
O1487 U1486 2.454 . S
O1487 C1489 1.353 . S
O1488 U1486 2.458 . S
O1488 C1489 1.286 . S
C1489 U1486 2.984 . S
C1489 O1487 1.353 . S
C1489 O1488 1.286 . S
C1489 C1491 1.363 . S
C1490 C1480 1.465 . S
C1490 U1486 2.847 . S
C1490 O1504 1.249 . S
C1490 O1505 1.202 . S
C1491 C1489 1.363 . S
C1491 C1493 1.408 . S
C1491 C1496 1.342 . S
C1492 C1493 1.310 . S
C1492 C1495 1.461 . S
C1492 H1512 0.932 . S
C1493 C1491 1.408 . S
C1493 C1492 1.310 . S
C1493 H1513 0.930 . S
C1494 C1495 1.474 . S
C1494 C1496 1.285 . S
C1494 H1514 0.929 . S
C1495 C1492 1.461 . S
C1495 C1494 1.474 . S
C1496 C1491 1.342 . S
C1496 C1494 1.285 . S
C1496 H1515 0.930 . S
C1497 C1500 1.424 . S
C1497 C1502 1.245 . S
C1497 C1503 1.428 . S
C1498 C1501 1.260 . S
C1498 C1502 1.477 . S
C1498 H1516 0.932 . S
C1499 C1500 1.384 . S
C1499 C1501 1.479 . S
C1499 H1517 0.929 . S
C1500 C1497 1.424 . S
C1500 C1499 1.384 . S
C1500 H1518 0.928 . S
C1501 C1498 1.260 . S
C1501 C1499 1.479 . S
C1502 C1497 1.245 . S
C1502 C1498 1.477 . S
C1502 H1519 0.932 . S
C1503 U1486 2.882 . S
C1503 C1497 1.428 . S
C1503 O1506 1.301 . S
C1503 O1507 1.282 . S
O1504 U1486 2.441 . S
O1504 C1490 1.249 . S
O1505 U1486 2.420 . S
O1505 C1490 1.202 . S
O1506 U1486 2.455 . S
O1506 C1503 1.301 . S
O1507 U1486 2.449 . S
O1507 C1503 1.282 . S
H1508 C1481 0.931 . S
H1509 C1483 0.929 . S
H1510 C1484 0.930 . S
H1511 C1485 0.931 . S
H1512 C1492 0.932 . S
H1513 C1493 0.930 . S
H1514 C1494 0.929 . S
H1515 C1496 0.930 . S
H1516 C1498 0.932 . S
H1517 C1499 0.929 . S
H1518 C1500 0.928 . S
H1519 C1502 0.932 . S
C1520 C1521 1.264 . S
C1520 C1525 1.479 . S
C1520 C1530 1.465 . S
C1521 C1520 1.264 . S
C1521 C1523 1.339 . S
C1521 H1548 0.931 . S
C1522 C1523 1.395 . S
C1522 C1524 1.320 . S
C1523 C1521 1.339 . S
C1523 C1522 1.395 . S
C1523 H1549 0.929 . S
C1524 C1522 1.320 . S
C1524 C1525 1.405 . S
C1524 H1550 0.930 . S
C1525 C1520 1.479 . S
C1525 C1524 1.405 . S
C1525 H1551 0.931 . S
U1526 O1527 2.454 . S
U1526 O1528 2.458 . S
U1526 C1529 2.984 . S
U1526 C1530 2.847 . S
U1526 C1543 2.882 . S
U1526 O1544 2.441 . S
U1526 O1545 2.420 . S
U1526 O1546 2.455 . S
U1526 O1547 2.449 . S
O1527 U1526 2.454 . S
O1527 C1529 1.353 . S
O1528 U1526 2.458 . S
O1528 C1529 1.286 . S
C1529 U1526 2.984 . S
C1529 O1527 1.353 . S
C1529 O1528 1.286 . S
C1529 C1531 1.363 . S
C1530 C1520 1.465 . S
C1530 U1526 2.847 . S
C1530 O1544 1.249 . S
C1530 O1545 1.202 . S
C1531 C1529 1.363 . S
C1531 C1533 1.408 . S
C1531 C1536 1.342 . S
C1532 C1533 1.310 . S
C1532 C1535 1.461 . S
C1532 H1552 0.932 . S
C1533 C1531 1.408 . S
C1533 C1532 1.310 . S
C1533 H1553 0.930 . S
C1534 C1535 1.474 . S
C1534 C1536 1.285 . S
C1534 H1554 0.929 . S
C1535 C1532 1.461 . S
C1535 C1534 1.474 . S
C1536 C1531 1.342 . S
C1536 C1534 1.285 . S
C1536 H1555 0.930 . S
C1537 C1540 1.424 . S
C1537 C1542 1.245 . S
C1537 C1543 1.428 . S
C1538 C1541 1.260 . S
C1538 C1542 1.477 . S
C1538 H1556 0.932 . S
C1539 C1540 1.384 . S
C1539 C1541 1.479 . S
C1539 H1557 0.929 . S
C1540 C1537 1.424 . S
C1540 C1539 1.384 . S
C1540 H1558 0.928 . S
C1541 C1538 1.260 . S
C1541 C1539 1.479 . S
C1542 C1537 1.245 . S
C1542 C1538 1.477 . S
C1542 H1559 0.932 . S
C1543 U1526 2.882 . S
C1543 C1537 1.428 . S
C1543 O1546 1.301 . S
C1543 O1547 1.282 . S
O1544 U1526 2.441 . S
O1544 C1530 1.249 . S
O1545 U1526 2.420 . S
O1545 C1530 1.202 . S
O1546 U1526 2.455 . S
O1546 C1543 1.301 . S
O1547 U1526 2.449 . S
O1547 C1543 1.282 . S
H1548 C1521 0.931 . S
H1549 C1523 0.929 . S
H1550 C1524 0.930 . S
H1551 C1525 0.931 . S
H1552 C1532 0.932 . S
H1553 C1533 0.930 . S
H1554 C1534 0.929 . S
H1555 C1536 0.930 . S
H1556 C1538 0.932 . S
H1557 C1539 0.929 . S
H1558 C1540 0.928 . S
H1559 C1542 0.932 . S
C1560 C1561 1.264 . S
C1560 C1565 1.479 . S
C1560 C1570 1.465 . S
C1561 C1560 1.264 . S
C1561 C1563 1.339 . S
C1561 H1588 0.931 . S
C1562 C1563 1.395 . S
C1562 C1564 1.320 . S
C1563 C1561 1.339 . S
C1563 C1562 1.395 . S
C1563 H1589 0.929 . S
C1564 C1562 1.320 . S
C1564 C1565 1.405 . S
C1564 H1590 0.930 . S
C1565 C1560 1.479 . S
C1565 C1564 1.405 . S
C1565 H1591 0.931 . S
U1566 O1567 2.454 . S
U1566 O1568 2.458 . S
U1566 C1569 2.984 . S
U1566 C1570 2.847 . S
U1566 C1583 2.882 . S
U1566 O1584 2.441 . S
U1566 O1585 2.420 . S
U1566 O1586 2.455 . S
U1566 O1587 2.449 . S
O1567 U1566 2.454 . S
O1567 C1569 1.353 . S
O1568 U1566 2.458 . S
O1568 C1569 1.286 . S
C1569 U1566 2.984 . S
C1569 O1567 1.353 . S
C1569 O1568 1.286 . S
C1569 C1571 1.363 . S
C1570 C1560 1.465 . S
C1570 U1566 2.847 . S
C1570 O1584 1.249 . S
C1570 O1585 1.202 . S
C1571 C1569 1.363 . S
C1571 C1573 1.408 . S
C1571 C1576 1.342 . S
C1572 C1573 1.310 . S
C1572 C1575 1.461 . S
C1572 H1592 0.932 . S
C1573 C1571 1.408 . S
C1573 C1572 1.310 . S
C1573 H1593 0.930 . S
C1574 C1575 1.474 . S
C1574 C1576 1.285 . S
C1574 H1594 0.929 . S
C1575 C1572 1.461 . S
C1575 C1574 1.474 . S
C1576 C1571 1.342 . S
C1576 C1574 1.285 . S
C1576 H1595 0.930 . S
C1577 C1580 1.424 . S
C1577 C1582 1.245 . S
C1577 C1583 1.428 . S
C1578 C1581 1.260 . S
C1578 C1582 1.477 . S
C1578 H1596 0.932 . S
C1579 C1580 1.384 . S
C1579 C1581 1.479 . S
C1579 H1597 0.929 . S
C1580 C1577 1.424 . S
C1580 C1579 1.384 . S
C1580 H1598 0.928 . S
C1581 C1578 1.260 . S
C1581 C1579 1.479 . S
C1582 C1577 1.245 . S
C1582 C1578 1.477 . S
C1582 H1599 0.932 . S
C1583 U1566 2.882 . S
C1583 C1577 1.428 . S
C1583 O1586 1.301 . S
C1583 O1587 1.282 . S
O1584 U1566 2.441 . S
O1584 C1570 1.249 . S
O1585 U1566 2.420 . S
O1585 C1570 1.202 . S
O1586 U1566 2.455 . S
O1586 C1583 1.301 . S
O1587 U1566 2.449 . S
O1587 C1583 1.282 . S
H1588 C1561 0.931 . S
H1589 C1563 0.929 . S
H1590 C1564 0.930 . S
H1591 C1565 0.931 . S
H1592 C1572 0.932 . S
H1593 C1573 0.930 . S
H1594 C1574 0.929 . S
H1595 C1576 0.930 . S
H1596 C1578 0.932 . S
H1597 C1579 0.929 . S
H1598 C1580 0.928 . S
H1599 C1582 0.932 . S
C1600 C1601 1.264 . S
C1600 C1605 1.479 . S
C1600 C1610 1.465 . S
C1601 C1600 1.264 . S
C1601 C1603 1.339 . S
C1601 H1628 0.931 . S
C1602 C1603 1.395 . S
C1602 C1604 1.320 . S
C1603 C1601 1.339 . S
C1603 C1602 1.395 . S
C1603 H1629 0.929 . S
C1604 C1602 1.320 . S
C1604 C1605 1.405 . S
C1604 H1630 0.930 . S
C1605 C1600 1.479 . S
C1605 C1604 1.405 . S
C1605 H1631 0.931 . S
U1606 O1607 2.454 . S
U1606 O1608 2.458 . S
U1606 C1609 2.984 . S
U1606 C1610 2.847 1_455 S
U1606 C1623 2.882 . S
U1606 O1624 2.441 1_455 S
U1606 O1625 2.420 1_455 S
U1606 O1626 2.455 . S
U1606 O1627 2.449 . S
O1607 U1606 2.454 . S
O1607 C1609 1.353 . S
O1608 U1606 2.458 . S
O1608 C1609 1.286 . S
C1609 U1606 2.984 . S
C1609 O1607 1.353 . S
C1609 O1608 1.286 . S
C1609 C1611 1.363 . S
C1610 C1600 1.465 . S
C1610 U1606 2.847 1_655 S
C1610 O1624 1.249 . S
C1610 O1625 1.202 . S
C1611 C1609 1.363 . S
C1611 C1613 1.408 . S
C1611 C1616 1.342 . S
C1612 C1613 1.310 . S
C1612 C1615 1.461 . S
C1612 H1632 0.932 . S
C1613 C1611 1.408 . S
C1613 C1612 1.310 . S
C1613 H1633 0.930 . S
C1614 C1615 1.474 . S
C1614 C1616 1.285 . S
C1614 H1634 0.929 . S
C1615 C1612 1.461 . S
C1615 C1614 1.474 . S
C1616 C1611 1.342 . S
C1616 C1614 1.285 . S
C1616 H1635 0.930 . S
C1617 C1620 1.424 . S
C1617 C1622 1.245 . S
C1617 C1623 1.428 . S
C1618 C1621 1.260 . S
C1618 C1622 1.477 . S
C1618 H1636 0.932 . S
C1619 C1620 1.384 . S
C1619 C1621 1.479 . S
C1619 H1637 0.929 . S
C1620 C1617 1.424 . S
C1620 C1619 1.384 . S
C1620 H1638 0.928 . S
C1621 C1618 1.260 . S
C1621 C1619 1.479 . S
C1622 C1617 1.245 . S
C1622 C1618 1.477 . S
C1622 H1639 0.932 . S
C1623 U1606 2.882 . S
C1623 C1617 1.428 . S
C1623 O1626 1.301 . S
C1623 O1627 1.282 . S
O1624 U1606 2.441 1_655 S
O1624 C1610 1.249 . S
O1625 U1606 2.420 1_655 S
O1625 C1610 1.202 . S
O1626 U1606 2.455 . S
O1626 C1623 1.301 . S
O1627 U1606 2.449 . S
O1627 C1623 1.282 . S
H1628 C1601 0.931 . S
H1629 C1603 0.929 . S
H1630 C1604 0.930 . S
H1631 C1605 0.931 . S
H1632 C1612 0.932 . S
H1633 C1613 0.930 . S
H1634 C1614 0.929 . S
H1635 C1616 0.930 . S
H1636 C1618 0.932 . S
H1637 C1619 0.929 . S
H1638 C1620 0.928 . S
H1639 C1622 0.932 . S
C1640 C1641 1.264 . S
C1640 C1645 1.479 . S
C1640 C1650 1.465 . S
C1641 C1640 1.264 . S
C1641 C1643 1.339 . S
C1641 H1668 0.931 . S
C1642 C1643 1.395 . S
C1642 C1644 1.320 . S
C1643 C1641 1.339 . S
C1643 C1642 1.395 . S
C1643 H1669 0.929 . S
C1644 C1642 1.320 . S
C1644 C1645 1.405 . S
C1644 H1670 0.930 . S
C1645 C1640 1.479 . S
C1645 C1644 1.405 . S
C1645 H1671 0.931 . S
U1646 O1647 2.454 . S
U1646 O1648 2.458 . S
U1646 C1649 2.984 . S
U1646 C1650 2.847 . S
U1646 C1663 2.882 . S
U1646 O1664 2.441 . S
U1646 O1665 2.420 . S
U1646 O1666 2.455 . S
U1646 O1667 2.449 . S
O1647 U1646 2.454 . S
O1647 C1649 1.353 . S
O1648 U1646 2.458 . S
O1648 C1649 1.286 . S
C1649 U1646 2.984 . S
C1649 O1647 1.353 . S
C1649 O1648 1.286 . S
C1649 C1651 1.363 . S
C1650 C1640 1.465 . S
C1650 U1646 2.847 . S
C1650 O1664 1.249 . S
C1650 O1665 1.202 . S
C1651 C1649 1.363 . S
C1651 C1653 1.408 . S
C1651 C1656 1.342 . S
C1652 C1653 1.310 . S
C1652 C1655 1.461 . S
C1652 H1672 0.932 . S
C1653 C1651 1.408 . S
C1653 C1652 1.310 . S
C1653 H1673 0.930 . S
C1654 C1655 1.474 . S
C1654 C1656 1.285 . S
C1654 H1674 0.929 . S
C1655 C1652 1.461 . S
C1655 C1654 1.474 . S
C1656 C1651 1.342 . S
C1656 C1654 1.285 . S
C1656 H1675 0.930 . S
C1657 C1660 1.424 . S
C1657 C1662 1.245 . S
C1657 C1663 1.428 . S
C1658 C1661 1.260 . S
C1658 C1662 1.477 . S
C1658 H1676 0.932 . S
C1659 C1660 1.384 . S
C1659 C1661 1.479 . S
C1659 H1677 0.929 . S
C1660 C1657 1.424 . S
C1660 C1659 1.384 . S
C1660 H1678 0.928 . S
C1661 C1658 1.260 . S
C1661 C1659 1.479 . S
C1662 C1657 1.245 . S
C1662 C1658 1.477 . S
C1662 H1679 0.932 . S
C1663 U1646 2.882 . S
C1663 C1657 1.428 . S
C1663 O1666 1.301 . S
C1663 O1667 1.282 . S
O1664 U1646 2.441 . S
O1664 C1650 1.249 . S
O1665 U1646 2.420 . S
O1665 C1650 1.202 . S
O1666 U1646 2.455 . S
O1666 C1663 1.301 . S
O1667 U1646 2.449 . S
O1667 C1663 1.282 . S
H1668 C1641 0.931 . S
H1669 C1643 0.929 . S
H1670 C1644 0.930 . S
H1671 C1645 0.931 . S
H1672 C1652 0.932 . S
H1673 C1653 0.930 . S
H1674 C1654 0.929 . S
H1675 C1656 0.930 . S
H1676 C1658 0.932 . S
H1677 C1659 0.929 . S
H1678 C1660 0.928 . S
H1679 C1662 0.932 . S
C1680 C1681 1.264 . S
C1680 C1685 1.479 . S
C1680 C1690 1.465 . S
C1681 C1680 1.264 . S
C1681 C1683 1.339 . S
C1681 H1708 0.931 . S
C1682 C1683 1.395 . S
C1682 C1684 1.320 . S
C1683 C1681 1.339 . S
C1683 C1682 1.395 . S
C1683 H1709 0.929 . S
C1684 C1682 1.320 . S
C1684 C1685 1.405 . S
C1684 H1710 0.930 . S
C1685 C1680 1.479 . S
C1685 C1684 1.405 . S
C1685 H1711 0.931 . S
U1686 O1687 2.454 . S
U1686 O1688 2.458 . S
U1686 C1689 2.984 1_554 S
U1686 C1690 2.847 . S
U1686 C1703 2.882 . S
U1686 O1704 2.441 . S
U1686 O1705 2.420 . S
U1686 O1706 2.455 . S
U1686 O1707 2.449 . S
O1687 U1686 2.454 . S
O1687 C1689 1.353 1_554 S
O1688 U1686 2.458 . S
O1688 C1689 1.286 1_554 S
C1689 U1686 2.984 1_556 S
C1689 O1687 1.353 1_556 S
C1689 O1688 1.286 1_556 S
C1689 C1691 1.363 . S
C1690 C1680 1.465 . S
C1690 U1686 2.847 . S
C1690 O1704 1.249 . S
C1690 O1705 1.202 . S
C1691 C1689 1.363 . S
C1691 C1693 1.408 . S
C1691 C1696 1.342 . S
C1692 C1693 1.310 . S
C1692 C1695 1.461 . S
C1692 H1712 0.932 . S
C1693 C1691 1.408 . S
C1693 C1692 1.310 . S
C1693 H1713 0.930 . S
C1694 C1695 1.474 . S
C1694 C1696 1.285 . S
C1694 H1714 0.929 . S
C1695 C1692 1.461 . S
C1695 C1694 1.474 . S
C1696 C1691 1.342 . S
C1696 C1694 1.285 . S
C1696 H1715 0.930 . S
C1697 C1700 1.424 . S
C1697 C1702 1.245 . S
C1697 C1703 1.428 . S
C1698 C1701 1.260 . S
C1698 C1702 1.477 . S
C1698 H1716 0.932 . S
C1699 C1700 1.384 . S
C1699 C1701 1.479 . S
C1699 H1717 0.929 . S
C1700 C1697 1.424 . S
C1700 C1699 1.384 . S
C1700 H1718 0.928 . S
C1701 C1698 1.260 . S
C1701 C1699 1.479 . S
C1702 C1697 1.245 . S
C1702 C1698 1.477 . S
C1702 H1719 0.932 . S
C1703 U1686 2.882 . S
C1703 C1697 1.428 . S
C1703 O1706 1.301 . S
C1703 O1707 1.282 . S
O1704 U1686 2.441 . S
O1704 C1690 1.249 . S
O1705 U1686 2.420 . S
O1705 C1690 1.202 . S
O1706 U1686 2.455 . S
O1706 C1703 1.301 . S
O1707 U1686 2.449 . S
O1707 C1703 1.282 . S
H1708 C1681 0.931 . S
H1709 C1683 0.929 . S
H1710 C1684 0.930 . S
H1711 C1685 0.931 . S
H1712 C1692 0.932 . S
H1713 C1693 0.930 . S
H1714 C1694 0.929 . S
H1715 C1696 0.930 . S
H1716 C1698 0.932 . S
H1717 C1699 0.929 . S
H1718 C1700 0.928 . S
H1719 C1702 0.932 . S
C1720 C1721 1.264 . S
C1720 C1725 1.479 . S
C1720 C1730 1.465 . S
C1721 C1720 1.264 . S
C1721 C1723 1.339 . S
C1721 H1748 0.931 . S
C1722 C1723 1.395 . S
C1722 C1724 1.320 . S
C1723 C1721 1.339 . S
C1723 C1722 1.395 . S
C1723 H1749 0.929 . S
C1724 C1722 1.320 . S
C1724 C1725 1.405 . S
C1724 H1750 0.930 . S
C1725 C1720 1.479 . S
C1725 C1724 1.405 . S
C1725 H1751 0.931 . S
U1726 O1727 2.454 . S
U1726 O1728 2.458 . S
U1726 C1729 2.984 . S
U1726 C1730 2.847 . S
U1726 C1743 2.882 . S
U1726 O1744 2.441 . S
U1726 O1745 2.420 . S
U1726 O1746 2.455 . S
U1726 O1747 2.449 . S
O1727 U1726 2.454 . S
O1727 C1729 1.353 . S
O1728 U1726 2.458 . S
O1728 C1729 1.286 . S
C1729 U1726 2.984 . S
C1729 O1727 1.353 . S
C1729 O1728 1.286 . S
C1729 C1731 1.363 . S
C1730 C1720 1.465 . S
C1730 U1726 2.847 . S
C1730 O1744 1.249 . S
C1730 O1745 1.202 . S
C1731 C1729 1.363 . S
C1731 C1733 1.408 . S
C1731 C1736 1.342 . S
C1732 C1733 1.310 . S
C1732 C1735 1.461 . S
C1732 H1752 0.932 . S
C1733 C1731 1.408 . S
C1733 C1732 1.310 . S
C1733 H1753 0.930 . S
C1734 C1735 1.474 . S
C1734 C1736 1.285 . S
C1734 H1754 0.929 . S
C1735 C1732 1.461 . S
C1735 C1734 1.474 . S
C1736 C1731 1.342 . S
C1736 C1734 1.285 . S
C1736 H1755 0.930 . S
C1737 C1740 1.424 . S
C1737 C1742 1.245 . S
C1737 C1743 1.428 . S
C1738 C1741 1.260 . S
C1738 C1742 1.477 . S
C1738 H1756 0.932 . S
C1739 C1740 1.384 . S
C1739 C1741 1.479 . S
C1739 H1757 0.929 . S
C1740 C1737 1.424 . S
C1740 C1739 1.384 . S
C1740 H1758 0.928 . S
C1741 C1738 1.260 . S
C1741 C1739 1.479 . S
C1742 C1737 1.245 . S
C1742 C1738 1.477 . S
C1742 H1759 0.932 . S
C1743 U1726 2.882 . S
C1743 C1737 1.428 . S
C1743 O1746 1.301 . S
C1743 O1747 1.282 . S
O1744 U1726 2.441 . S
O1744 C1730 1.249 . S
O1745 U1726 2.420 . S
O1745 C1730 1.202 . S
O1746 U1726 2.455 . S
O1746 C1743 1.301 . S
O1747 U1726 2.449 . S
O1747 C1743 1.282 . S
H1748 C1721 0.931 . S
H1749 C1723 0.929 . S
H1750 C1724 0.930 . S
H1751 C1725 0.931 . S
H1752 C1732 0.932 . S
H1753 C1733 0.930 . S
H1754 C1734 0.929 . S
H1755 C1736 0.930 . S
H1756 C1738 0.932 . S
H1757 C1739 0.929 . S
H1758 C1740 0.928 . S
H1759 C1742 0.932 . S
C1760 C1761 1.264 . S
C1760 C1765 1.479 . S
C1760 C1770 1.465 . S
C1761 C1760 1.264 . S
C1761 C1763 1.339 . S
C1761 H1788 0.931 . S
C1762 C1763 1.395 . S
C1762 C1764 1.320 . S
C1763 C1761 1.339 . S
C1763 C1762 1.395 . S
C1763 H1789 0.929 . S
C1764 C1762 1.320 . S
C1764 C1765 1.405 . S
C1764 H1790 0.930 . S
C1765 C1760 1.479 . S
C1765 C1764 1.405 . S
C1765 H1791 0.931 . S
U1766 O1767 2.454 . S
U1766 O1768 2.458 . S
U1766 C1769 2.984 . S
U1766 C1770 2.847 . S
U1766 C1783 2.882 . S
U1766 O1784 2.441 . S
U1766 O1785 2.420 . S
U1766 O1786 2.455 . S
U1766 O1787 2.449 . S
O1767 U1766 2.454 . S
O1767 C1769 1.353 . S
O1768 U1766 2.458 . S
O1768 C1769 1.286 . S
C1769 U1766 2.984 . S
C1769 O1767 1.353 . S
C1769 O1768 1.286 . S
C1769 C1771 1.363 . S
C1770 C1760 1.465 . S
C1770 U1766 2.847 . S
C1770 O1784 1.249 . S
C1770 O1785 1.202 . S
C1771 C1769 1.363 . S
C1771 C1773 1.408 . S
C1771 C1776 1.342 . S
C1772 C1773 1.310 . S
C1772 C1775 1.461 . S
C1772 H1792 0.932 . S
C1773 C1771 1.408 . S
C1773 C1772 1.310 . S
C1773 H1793 0.930 . S
C1774 C1775 1.474 . S
C1774 C1776 1.285 . S
C1774 H1794 0.929 . S
C1775 C1772 1.461 . S
C1775 C1774 1.474 . S
C1776 C1771 1.342 . S
C1776 C1774 1.285 . S
C1776 H1795 0.930 . S
C1777 C1780 1.424 . S
C1777 C1782 1.245 . S
C1777 C1783 1.428 . S
C1778 C1781 1.260 . S
C1778 C1782 1.477 . S
C1778 H1796 0.932 . S
C1779 C1780 1.384 . S
C1779 C1781 1.479 . S
C1779 H1797 0.929 . S
C1780 C1777 1.424 . S
C1780 C1779 1.384 . S
C1780 H1798 0.928 . S
C1781 C1778 1.260 . S
C1781 C1779 1.479 . S
C1782 C1777 1.245 . S
C1782 C1778 1.477 . S
C1782 H1799 0.932 . S
C1783 U1766 2.882 . S
C1783 C1777 1.428 . S
C1783 O1786 1.301 . S
C1783 O1787 1.282 . S
O1784 U1766 2.441 . S
O1784 C1770 1.249 . S
O1785 U1766 2.420 . S
O1785 C1770 1.202 . S
O1786 U1766 2.455 . S
O1786 C1783 1.301 . S
O1787 U1766 2.449 . S
O1787 C1783 1.282 . S
H1788 C1761 0.931 . S
H1789 C1763 0.929 . S
H1790 C1764 0.930 . S
H1791 C1765 0.931 . S
H1792 C1772 0.932 . S
H1793 C1773 0.930 . S
H1794 C1774 0.929 . S
H1795 C1776 0.930 . S
H1796 C1778 0.932 . S
H1797 C1779 0.929 . S
H1798 C1780 0.928 . S
H1799 C1782 0.932 . S
C1800 C1801 1.264 . S
C1800 C1805 1.479 . S
C1800 C1810 1.465 . S
C1801 C1800 1.264 . S
C1801 C1803 1.339 . S
C1801 H1828 0.931 . S
C1802 C1803 1.395 . S
C1802 C1804 1.320 . S
C1803 C1801 1.339 . S
C1803 C1802 1.395 . S
C1803 H1829 0.929 . S
C1804 C1802 1.320 . S
C1804 C1805 1.405 . S
C1804 H1830 0.930 . S
C1805 C1800 1.479 . S
C1805 C1804 1.405 . S
C1805 H1831 0.931 . S
U1806 O1807 2.454 . S
U1806 O1808 2.458 . S
U1806 C1809 2.984 . S
U1806 C1810 2.847 . S
U1806 C1823 2.882 . S
U1806 O1824 2.441 . S
U1806 O1825 2.420 . S
U1806 O1826 2.455 . S
U1806 O1827 2.449 . S
O1807 U1806 2.454 . S
O1807 C1809 1.353 . S
O1808 U1806 2.458 . S
O1808 C1809 1.286 . S
C1809 U1806 2.984 . S
C1809 O1807 1.353 . S
C1809 O1808 1.286 . S
C1809 C1811 1.363 . S
C1810 C1800 1.465 . S
C1810 U1806 2.847 . S
C1810 O1824 1.249 . S
C1810 O1825 1.202 . S
C1811 C1809 1.363 . S
C1811 C1813 1.408 . S
C1811 C1816 1.342 . S
C1812 C1813 1.310 . S
C1812 C1815 1.461 . S
C1812 H1832 0.932 . S
C1813 C1811 1.408 . S
C1813 C1812 1.310 . S
C1813 H1833 0.930 . S
C1814 C1815 1.474 . S
C1814 C1816 1.285 . S
C1814 H1834 0.929 . S
C1815 C1812 1.461 . S
C1815 C1814 1.474 . S
C1816 C1811 1.342 . S
C1816 C1814 1.285 . S
C1816 H1835 0.930 . S
C1817 C1820 1.424 . S
C1817 C1822 1.245 . S
C1817 C1823 1.428 . S
C1818 C1821 1.260 . S
C1818 C1822 1.477 . S
C1818 H1836 0.932 . S
C1819 C1820 1.384 . S
C1819 C1821 1.479 . S
C1819 H1837 0.929 . S
C1820 C1817 1.424 . S
C1820 C1819 1.384 . S
C1820 H1838 0.928 . S
C1821 C1818 1.260 . S
C1821 C1819 1.479 . S
C1822 C1817 1.245 . S
C1822 C1818 1.477 . S
C1822 H1839 0.932 . S
C1823 U1806 2.882 . S
C1823 C1817 1.428 . S
C1823 O1826 1.301 . S
C1823 O1827 1.282 . S
O1824 U1806 2.441 . S
O1824 C1810 1.249 . S
O1825 U1806 2.420 . S
O1825 C1810 1.202 . S
O1826 U1806 2.455 . S
O1826 C1823 1.301 . S
O1827 U1806 2.449 . S
O1827 C1823 1.282 . S
H1828 C1801 0.931 . S
H1829 C1803 0.929 . S
H1830 C1804 0.930 . S
H1831 C1805 0.931 . S
H1832 C1812 0.932 . S
H1833 C1813 0.930 . S
H1834 C1814 0.929 . S
H1835 C1816 0.930 . S
H1836 C1818 0.932 . S
H1837 C1819 0.929 . S
H1838 C1820 0.928 . S
H1839 C1822 0.932 . S
C1840 C1841 1.264 . S
C1840 C1845 1.479 . S
C1840 C1850 1.465 . S
C1841 C1840 1.264 . S
C1841 C1843 1.339 . S
C1841 H1868 0.931 . S
C1842 C1843 1.395 . S
C1842 C1844 1.320 . S
C1843 C1841 1.339 . S
C1843 C1842 1.395 . S
C1843 H1869 0.929 . S
C1844 C1842 1.320 . S
C1844 C1845 1.405 . S
C1844 H1870 0.930 . S
C1845 C1840 1.479 . S
C1845 C1844 1.405 . S
C1845 H1871 0.931 . S
U1846 O1847 2.454 . S
U1846 O1848 2.458 . S
U1846 C1849 2.984 . S
U1846 C1850 2.847 . S
U1846 C1863 2.882 . S
U1846 O1864 2.441 . S
U1846 O1865 2.420 . S
U1846 O1866 2.455 . S
U1846 O1867 2.449 . S
O1847 U1846 2.454 . S
O1847 C1849 1.353 . S
O1848 U1846 2.458 . S
O1848 C1849 1.286 . S
C1849 U1846 2.984 . S
C1849 O1847 1.353 . S
C1849 O1848 1.286 . S
C1849 C1851 1.363 . S
C1850 C1840 1.465 . S
C1850 U1846 2.847 . S
C1850 O1864 1.249 . S
C1850 O1865 1.202 . S
C1851 C1849 1.363 . S
C1851 C1853 1.408 . S
C1851 C1856 1.342 . S
C1852 C1853 1.310 . S
C1852 C1855 1.461 . S
C1852 H1872 0.932 . S
C1853 C1851 1.408 . S
C1853 C1852 1.310 . S
C1853 H1873 0.930 . S
C1854 C1855 1.474 . S
C1854 C1856 1.285 . S
C1854 H1874 0.929 . S
C1855 C1852 1.461 . S
C1855 C1854 1.474 . S
C1856 C1851 1.342 . S
C1856 C1854 1.285 . S
C1856 H1875 0.930 . S
C1857 C1860 1.424 . S
C1857 C1862 1.245 . S
C1857 C1863 1.428 . S
C1858 C1861 1.260 . S
C1858 C1862 1.477 . S
C1858 H1876 0.932 . S
C1859 C1860 1.384 . S
C1859 C1861 1.479 . S
C1859 H1877 0.929 . S
C1860 C1857 1.424 . S
C1860 C1859 1.384 . S
C1860 H1878 0.928 . S
C1861 C1858 1.260 . S
C1861 C1859 1.479 . S
C1862 C1857 1.245 . S
C1862 C1858 1.477 . S
C1862 H1879 0.932 . S
C1863 U1846 2.882 . S
C1863 C1857 1.428 . S
C1863 O1866 1.301 . S
C1863 O1867 1.282 . S
O1864 U1846 2.441 . S
O1864 C1850 1.249 . S
O1865 U1846 2.420 . S
O1865 C1850 1.202 . S
O1866 U1846 2.455 . S
O1866 C1863 1.301 . S
O1867 U1846 2.449 . S
O1867 C1863 1.282 . S
H1868 C1841 0.931 . S
H1869 C1843 0.929 . S
H1870 C1844 0.930 . S
H1871 C1845 0.931 . S
H1872 C1852 0.932 . S
H1873 C1853 0.930 . S
H1874 C1854 0.929 . S
H1875 C1856 0.930 . S
H1876 C1858 0.932 . S
H1877 C1859 0.929 . S
H1878 C1860 0.928 . S
H1879 C1862 0.932 . S
C1880 C1881 1.264 . S
C1880 C1885 1.479 . S
C1880 C1890 1.465 . S
C1881 C1880 1.264 . S
C1881 C1883 1.339 . S
C1881 H1908 0.931 . S
C1882 C1883 1.395 . S
C1882 C1884 1.320 . S
C1883 C1881 1.339 . S
C1883 C1882 1.395 . S
C1883 H1909 0.929 . S
C1884 C1882 1.320 . S
C1884 C1885 1.405 . S
C1884 H1910 0.930 . S
C1885 C1880 1.479 . S
C1885 C1884 1.405 . S
C1885 H1911 0.931 . S
U1886 O1887 2.454 . S
U1886 O1888 2.458 . S
U1886 C1889 2.984 . S
U1886 C1890 2.847 . S
U1886 C1903 2.882 . S
U1886 O1904 2.441 . S
U1886 O1905 2.420 . S
U1886 O1906 2.455 . S
U1886 O1907 2.449 . S
O1887 U1886 2.454 . S
O1887 C1889 1.353 . S
O1888 U1886 2.458 . S
O1888 C1889 1.286 . S
C1889 U1886 2.984 . S
C1889 O1887 1.353 . S
C1889 O1888 1.286 . S
C1889 C1891 1.363 . S
C1890 C1880 1.465 . S
C1890 U1886 2.847 . S
C1890 O1904 1.249 . S
C1890 O1905 1.202 . S
C1891 C1889 1.363 . S
C1891 C1893 1.408 . S
C1891 C1896 1.342 . S
C1892 C1893 1.310 . S
C1892 C1895 1.461 . S
C1892 H1912 0.932 . S
C1893 C1891 1.408 . S
C1893 C1892 1.310 . S
C1893 H1913 0.930 . S
C1894 C1895 1.474 . S
C1894 C1896 1.285 . S
C1894 H1914 0.929 . S
C1895 C1892 1.461 . S
C1895 C1894 1.474 . S
C1896 C1891 1.342 . S
C1896 C1894 1.285 . S
C1896 H1915 0.930 . S
C1897 C1900 1.424 . S
C1897 C1902 1.245 . S
C1897 C1903 1.428 . S
C1898 C1901 1.260 . S
C1898 C1902 1.477 . S
C1898 H1916 0.932 . S
C1899 C1900 1.384 . S
C1899 C1901 1.479 . S
C1899 H1917 0.929 . S
C1900 C1897 1.424 . S
C1900 C1899 1.384 . S
C1900 H1918 0.928 . S
C1901 C1898 1.260 . S
C1901 C1899 1.479 . S
C1902 C1897 1.245 . S
C1902 C1898 1.477 . S
C1902 H1919 0.932 . S
C1903 U1886 2.882 . S
C1903 C1897 1.428 . S
C1903 O1906 1.301 . S
C1903 O1907 1.282 . S
O1904 U1886 2.441 . S
O1904 C1890 1.249 . S
O1905 U1886 2.420 . S
O1905 C1890 1.202 . S
O1906 U1886 2.455 . S
O1906 C1903 1.301 . S
O1907 U1886 2.449 . S
O1907 C1903 1.282 . S
H1908 C1881 0.931 . S
H1909 C1883 0.929 . S
H1910 C1884 0.930 . S
H1911 C1885 0.931 . S
H1912 C1892 0.932 . S
H1913 C1893 0.930 . S
H1914 C1894 0.929 . S
H1915 C1896 0.930 . S
H1916 C1898 0.932 . S
H1917 C1899 0.929 . S
H1918 C1900 0.928 . S
H1919 C1902 0.932 . S
P1920 O1931 1.490 . S
P1920 C1934 1.812 . S
P1920 C1940 1.803 . S
P1920 C1946 1.819 . S
H1921 C1935 0.941 . S
H1922 C1936 0.939 . S
H1923 C1938 0.940 . S
H1924 C1939 0.940 . S
H1925 C1941 0.939 . S
H1926 C1942 0.942 . S
H1927 C1944 0.940 . S
H1928 C1945 0.939 . S
H1929 C1947 0.941 . S
H1930 C1951 0.939 . S
O1931 P1920 1.490 . S
H1932 C1948 0.939 . S
H1933 C1950 0.940 . S
C1934 P1920 1.812 . S
C1934 C1935 1.389 . S
C1934 C1939 1.391 . S
C1935 H1921 0.941 . S
C1935 C1934 1.389 . S
C1935 C1936 1.397 . S
C1936 H1922 0.939 . S
C1936 C1935 1.397 . S
C1936 C1937 1.378 . S
C1937 C1936 1.378 . S
C1937 C1938 1.378 . S
C1938 H1923 0.940 . S
C1938 C1937 1.378 . S
C1938 C1939 1.396 . S
C1939 H1924 0.940 . S
C1939 C1934 1.391 . S
C1939 C1938 1.396 . S
C1940 P1920 1.803 . S
C1940 C1941 1.378 . S
C1940 C1945 1.400 . S
C1941 H1925 0.939 . S
C1941 C1940 1.378 . S
C1941 C1942 1.361 . S
C1942 H1926 0.942 . S
C1942 C1941 1.361 . S
C1942 C1943 1.369 . S
C1943 C1942 1.369 . S
C1943 C1944 1.404 . S
C1944 H1927 0.940 . S
C1944 C1943 1.404 . S
C1944 C1945 1.389 . S
C1945 H1928 0.939 . S
C1945 C1940 1.400 . S
C1945 C1944 1.389 . S
C1946 P1920 1.819 . S
C1946 C1947 1.391 . S
C1946 C1951 1.391 . S
C1947 H1929 0.941 . S
C1947 C1946 1.391 . S
C1947 C1948 1.396 . S
C1948 H1932 0.939 . S
C1948 C1947 1.396 . S
C1948 C1949 1.397 . S
C1949 C1948 1.397 . S
C1949 C1950 1.385 . S
C1950 H1933 0.940 . S
C1950 C1949 1.385 . S
C1950 C1951 1.388 . S
C1951 H1930 0.939 . S
C1951 C1946 1.391 . S
C1951 C1950 1.388 . S
P1952 O1963 1.490 . S
P1952 C1966 1.812 . S
P1952 C1972 1.803 . S
P1952 C1978 1.819 . S
H1953 C1967 0.941 . S
H1954 C1968 0.939 . S
H1955 C1970 0.940 . S
H1956 C1971 0.940 . S
H1957 C1973 0.939 . S
H1958 C1974 0.942 . S
H1959 C1976 0.940 . S
H1960 C1977 0.939 . S
H1961 C1979 0.941 . S
H1962 C1983 0.939 . S
O1963 P1952 1.490 . S
H1964 C1980 0.939 . S
H1965 C1982 0.940 . S
C1966 P1952 1.812 . S
C1966 C1967 1.389 . S
C1966 C1971 1.391 . S
C1967 H1953 0.941 . S
C1967 C1966 1.389 . S
C1967 C1968 1.397 . S
C1968 H1954 0.939 . S
C1968 C1967 1.397 . S
C1968 C1969 1.378 . S
C1969 C1968 1.378 . S
C1969 C1970 1.378 . S
C1970 H1955 0.940 . S
C1970 C1969 1.378 . S
C1970 C1971 1.396 . S
C1971 H1956 0.940 . S
C1971 C1966 1.391 . S
C1971 C1970 1.396 . S
C1972 P1952 1.803 . S
C1972 C1973 1.378 . S
C1972 C1977 1.400 . S
C1973 H1957 0.939 . S
C1973 C1972 1.378 . S
C1973 C1974 1.361 . S
C1974 H1958 0.942 . S
C1974 C1973 1.361 . S
C1974 C1975 1.369 . S
C1975 C1974 1.369 . S
C1975 C1976 1.404 . S
C1976 H1959 0.940 . S
C1976 C1975 1.404 . S
C1976 C1977 1.389 . S
C1977 H1960 0.939 . S
C1977 C1972 1.400 . S
C1977 C1976 1.389 . S
C1978 P1952 1.819 . S
C1978 C1979 1.391 . S
C1978 C1983 1.391 . S
C1979 H1961 0.941 . S
C1979 C1978 1.391 . S
C1979 C1980 1.396 . S
C1980 H1964 0.939 . S
C1980 C1979 1.396 . S
C1980 C1981 1.397 . S
C1981 C1980 1.397 . S
C1981 C1982 1.385 . S
C1982 H1965 0.940 . S
C1982 C1981 1.385 . S
C1982 C1983 1.388 . S
C1983 H1962 0.939 . S
C1983 C1978 1.391 . S
C1983 C1982 1.388 . S
P1984 O1995 1.490 . S
P1984 C1998 1.812 . S
P1984 C2004 1.803 . S
P1984 C2010 1.819 . S
H1985 C1999 0.941 . S
H1986 C2000 0.939 . S
H1987 C2002 0.940 . S
H1988 C2003 0.940 . S
H1989 C2005 0.939 . S
H1990 C2006 0.942 . S
H1991 C2008 0.940 . S
H1992 C2009 0.939 . S
H1993 C2011 0.941 . S
H1994 C2015 0.939 . S
O1995 P1984 1.490 . S
H1996 C2012 0.939 . S
H1997 C2014 0.940 . S
C1998 P1984 1.812 . S
C1998 C1999 1.389 . S
C1998 C2003 1.391 . S
C1999 H1985 0.941 . S
C1999 C1998 1.389 . S
C1999 C2000 1.397 . S
C2000 H1986 0.939 . S
C2000 C1999 1.397 . S
C2000 C2001 1.378 . S
C2001 C2000 1.378 . S
C2001 C2002 1.378 . S
C2002 H1987 0.940 . S
C2002 C2001 1.378 . S
C2002 C2003 1.396 . S
C2003 H1988 0.940 . S
C2003 C1998 1.391 . S
C2003 C2002 1.396 . S
C2004 P1984 1.803 . S
C2004 C2005 1.378 . S
C2004 C2009 1.400 . S
C2005 H1989 0.939 . S
C2005 C2004 1.378 . S
C2005 C2006 1.361 . S
C2006 H1990 0.942 . S
C2006 C2005 1.361 . S
C2006 C2007 1.369 . S
C2007 C2006 1.369 . S
C2007 C2008 1.404 . S
C2008 H1991 0.940 . S
C2008 C2007 1.404 . S
C2008 C2009 1.389 . S
C2009 H1992 0.939 . S
C2009 C2004 1.400 . S
C2009 C2008 1.389 . S
C2010 P1984 1.819 . S
C2010 C2011 1.391 . S
C2010 C2015 1.391 . S
C2011 H1993 0.941 . S
C2011 C2010 1.391 . S
C2011 C2012 1.396 . S
C2012 H1996 0.939 . S
C2012 C2011 1.396 . S
C2012 C2013 1.397 . S
C2013 C2012 1.397 . S
C2013 C2014 1.385 . S
C2014 H1997 0.940 . S
C2014 C2013 1.385 . S
C2014 C2015 1.388 . S
C2015 H1994 0.939 . S
C2015 C2010 1.391 . S
C2015 C2014 1.388 . S
P2016 O2027 1.490 . S
P2016 C2030 1.812 . S
P2016 C2036 1.803 . S
P2016 C2042 1.819 . S
H2017 C2031 0.941 . S
H2018 C2032 0.939 . S
H2019 C2034 0.940 . S
H2020 C2035 0.940 . S
H2021 C2037 0.939 . S
H2022 C2038 0.942 . S
H2023 C2040 0.940 . S
H2024 C2041 0.939 . S
H2025 C2043 0.941 . S
H2026 C2047 0.939 . S
O2027 P2016 1.490 . S
H2028 C2044 0.939 . S
H2029 C2046 0.940 . S
C2030 P2016 1.812 . S
C2030 C2031 1.389 . S
C2030 C2035 1.391 . S
C2031 H2017 0.941 . S
C2031 C2030 1.389 . S
C2031 C2032 1.397 . S
C2032 H2018 0.939 . S
C2032 C2031 1.397 . S
C2032 C2033 1.378 . S
C2033 C2032 1.378 . S
C2033 C2034 1.378 . S
C2034 H2019 0.940 . S
C2034 C2033 1.378 . S
C2034 C2035 1.396 . S
C2035 H2020 0.940 . S
C2035 C2030 1.391 . S
C2035 C2034 1.396 . S
C2036 P2016 1.803 . S
C2036 C2037 1.378 . S
C2036 C2041 1.400 . S
C2037 H2021 0.939 . S
C2037 C2036 1.378 . S
C2037 C2038 1.361 . S
C2038 H2022 0.942 . S
C2038 C2037 1.361 . S
C2038 C2039 1.369 . S
C2039 C2038 1.369 . S
C2039 C2040 1.404 . S
C2040 H2023 0.940 . S
C2040 C2039 1.404 . S
C2040 C2041 1.389 . S
C2041 H2024 0.939 . S
C2041 C2036 1.400 . S
C2041 C2040 1.389 . S
C2042 P2016 1.819 . S
C2042 C2043 1.391 . S
C2042 C2047 1.391 . S
C2043 H2025 0.941 . S
C2043 C2042 1.391 . S
C2043 C2044 1.396 . S
C2044 H2028 0.939 . S
C2044 C2043 1.396 . S
C2044 C2045 1.397 . S
C2045 C2044 1.397 . S
C2045 C2046 1.385 . S
C2046 H2029 0.940 . S
C2046 C2045 1.385 . S
C2046 C2047 1.388 . S
C2047 H2026 0.939 . S
C2047 C2042 1.391 . S
C2047 C2046 1.388 . S
P2048 O2059 1.490 . S
P2048 C2062 1.812 . S
P2048 C2068 1.803 . S
P2048 C2074 1.819 . S
H2049 C2063 0.941 . S
H2050 C2064 0.939 . S
H2051 C2066 0.940 . S
H2052 C2067 0.940 . S
H2053 C2069 0.939 . S
H2054 C2070 0.942 . S
H2055 C2072 0.940 . S
H2056 C2073 0.939 . S
H2057 C2075 0.941 . S
H2058 C2079 0.939 . S
O2059 P2048 1.490 . S
H2060 C2076 0.939 . S
H2061 C2078 0.940 . S
C2062 P2048 1.812 . S
C2062 C2063 1.389 . S
C2062 C2067 1.391 . S
C2063 H2049 0.941 . S
C2063 C2062 1.389 . S
C2063 C2064 1.397 . S
C2064 H2050 0.939 . S
C2064 C2063 1.397 . S
C2064 C2065 1.378 . S
C2065 C2064 1.378 . S
C2065 C2066 1.378 . S
C2066 H2051 0.940 . S
C2066 C2065 1.378 . S
C2066 C2067 1.396 . S
C2067 H2052 0.940 . S
C2067 C2062 1.391 . S
C2067 C2066 1.396 . S
C2068 P2048 1.803 . S
C2068 C2069 1.378 . S
C2068 C2073 1.400 . S
C2069 H2053 0.939 . S
C2069 C2068 1.378 . S
C2069 C2070 1.361 . S
C2070 H2054 0.942 . S
C2070 C2069 1.361 . S
C2070 C2071 1.369 . S
C2071 C2070 1.369 . S
C2071 C2072 1.404 . S
C2072 H2055 0.940 . S
C2072 C2071 1.404 . S
C2072 C2073 1.389 . S
C2073 H2056 0.939 . S
C2073 C2068 1.400 . S
C2073 C2072 1.389 . S
C2074 P2048 1.819 . S
C2074 C2075 1.391 . S
C2074 C2079 1.391 . S
C2075 H2057 0.941 . S
C2075 C2074 1.391 . S
C2075 C2076 1.396 . S
C2076 H2060 0.939 . S
C2076 C2075 1.396 . S
C2076 C2077 1.397 . S
C2077 C2076 1.397 . S
C2077 C2078 1.385 . S
C2078 H2061 0.940 . S
C2078 C2077 1.385 . S
C2078 C2079 1.388 . S
C2079 H2058 0.939 . S
C2079 C2074 1.391 . S
C2079 C2078 1.388 . S
P2080 O2091 1.490 . S
P2080 C2094 1.812 . S
P2080 C2100 1.803 . S
P2080 C2106 1.819 . S
H2081 C2095 0.941 . S
H2082 C2096 0.939 . S
H2083 C2098 0.940 . S
H2084 C2099 0.940 . S
H2085 C2101 0.939 . S
H2086 C2102 0.942 . S
H2087 C2104 0.940 . S
H2088 C2105 0.939 . S
H2089 C2107 0.941 . S
H2090 C2111 0.939 . S
O2091 P2080 1.490 . S
H2092 C2108 0.939 . S
H2093 C2110 0.940 . S
C2094 P2080 1.812 . S
C2094 C2095 1.389 . S
C2094 C2099 1.391 . S
C2095 H2081 0.941 . S
C2095 C2094 1.389 . S
C2095 C2096 1.397 . S
C2096 H2082 0.939 . S
C2096 C2095 1.397 . S
C2096 C2097 1.378 . S
C2097 C2096 1.378 . S
C2097 C2098 1.378 . S
C2098 H2083 0.940 . S
C2098 C2097 1.378 . S
C2098 C2099 1.396 . S
C2099 H2084 0.940 . S
C2099 C2094 1.391 . S
C2099 C2098 1.396 . S
C2100 P2080 1.803 . S
C2100 C2101 1.378 . S
C2100 C2105 1.400 . S
C2101 H2085 0.939 . S
C2101 C2100 1.378 . S
C2101 C2102 1.361 . S
C2102 H2086 0.942 . S
C2102 C2101 1.361 . S
C2102 C2103 1.369 . S
C2103 C2102 1.369 . S
C2103 C2104 1.404 . S
C2104 H2087 0.940 . S
C2104 C2103 1.404 . S
C2104 C2105 1.389 . S
C2105 H2088 0.939 . S
C2105 C2100 1.400 . S
C2105 C2104 1.389 . S
C2106 P2080 1.819 . S
C2106 C2107 1.391 . S
C2106 C2111 1.391 . S
C2107 H2089 0.941 . S
C2107 C2106 1.391 . S
C2107 C2108 1.396 . S
C2108 H2092 0.939 . S
C2108 C2107 1.396 . S
C2108 C2109 1.397 . S
C2109 C2108 1.397 . S
C2109 C2110 1.385 . S
C2110 H2093 0.940 . S
C2110 C2109 1.385 . S
C2110 C2111 1.388 . S
C2111 H2090 0.939 . S
C2111 C2106 1.391 . S
C2111 C2110 1.388 . S
P2112 O2123 1.490 . S
P2112 C2126 1.812 . S
P2112 C2132 1.803 . S
P2112 C2138 1.819 . S
H2113 C2127 0.941 . S
H2114 C2128 0.939 . S
H2115 C2130 0.940 . S
H2116 C2131 0.940 . S
H2117 C2133 0.939 . S
H2118 C2134 0.942 . S
H2119 C2136 0.940 . S
H2120 C2137 0.939 . S
H2121 C2139 0.941 . S
H2122 C2143 0.939 . S
O2123 P2112 1.490 . S
H2124 C2140 0.939 . S
H2125 C2142 0.940 . S
C2126 P2112 1.812 . S
C2126 C2127 1.389 . S
C2126 C2131 1.391 . S
C2127 H2113 0.941 . S
C2127 C2126 1.389 . S
C2127 C2128 1.397 . S
C2128 H2114 0.939 . S
C2128 C2127 1.397 . S
C2128 C2129 1.378 . S
C2129 C2128 1.378 . S
C2129 C2130 1.378 . S
C2130 H2115 0.940 . S
C2130 C2129 1.378 . S
C2130 C2131 1.396 . S
C2131 H2116 0.940 . S
C2131 C2126 1.391 . S
C2131 C2130 1.396 . S
C2132 P2112 1.803 . S
C2132 C2133 1.378 . S
C2132 C2137 1.400 . S
C2133 H2117 0.939 . S
C2133 C2132 1.378 . S
C2133 C2134 1.361 . S
C2134 H2118 0.942 . S
C2134 C2133 1.361 . S
C2134 C2135 1.369 . S
C2135 C2134 1.369 . S
C2135 C2136 1.404 . S
C2136 H2119 0.940 . S
C2136 C2135 1.404 . S
C2136 C2137 1.389 . S
C2137 H2120 0.939 . S
C2137 C2132 1.400 . S
C2137 C2136 1.389 . S
C2138 P2112 1.819 . S
C2138 C2139 1.391 . S
C2138 C2143 1.391 . S
C2139 H2121 0.941 . S
C2139 C2138 1.391 . S
C2139 C2140 1.396 . S
C2140 H2124 0.939 . S
C2140 C2139 1.396 . S
C2140 C2141 1.397 . S
C2141 C2140 1.397 . S
C2141 C2142 1.385 . S
C2142 H2125 0.940 . S
C2142 C2141 1.385 . S
C2142 C2143 1.388 . S
C2143 H2122 0.939 . S
C2143 C2138 1.391 . S
C2143 C2142 1.388 . S
P2144 O2155 1.490 . S
P2144 C2158 1.812 . S
P2144 C2164 1.803 . S
P2144 C2170 1.819 . S
H2145 C2159 0.941 . S
H2146 C2160 0.939 . S
H2147 C2162 0.940 . S
H2148 C2163 0.940 . S
H2149 C2165 0.939 . S
H2150 C2166 0.942 . S
H2151 C2168 0.940 . S
H2152 C2169 0.939 . S
H2153 C2171 0.941 . S
H2154 C2175 0.939 . S
O2155 P2144 1.490 . S
H2156 C2172 0.939 . S
H2157 C2174 0.940 . S
C2158 P2144 1.812 . S
C2158 C2159 1.389 . S
C2158 C2163 1.391 . S
C2159 H2145 0.941 . S
C2159 C2158 1.389 . S
C2159 C2160 1.397 . S
C2160 H2146 0.939 . S
C2160 C2159 1.397 . S
C2160 C2161 1.378 . S
C2161 C2160 1.378 . S
C2161 C2162 1.378 . S
C2162 H2147 0.940 . S
C2162 C2161 1.378 . S
C2162 C2163 1.396 . S
C2163 H2148 0.940 . S
C2163 C2158 1.391 . S
C2163 C2162 1.396 . S
C2164 P2144 1.803 . S
C2164 C2165 1.378 . S
C2164 C2169 1.400 . S
C2165 H2149 0.939 . S
C2165 C2164 1.378 . S
C2165 C2166 1.361 . S
C2166 H2150 0.942 . S
C2166 C2165 1.361 . S
C2166 C2167 1.369 . S
C2167 C2166 1.369 . S
C2167 C2168 1.404 . S
C2168 H2151 0.940 . S
C2168 C2167 1.404 . S
C2168 C2169 1.389 . S
C2169 H2152 0.939 . S
C2169 C2164 1.400 . S
C2169 C2168 1.389 . S
C2170 P2144 1.819 . S
C2170 C2171 1.391 . S
C2170 C2175 1.391 . S
C2171 H2153 0.941 . S
C2171 C2170 1.391 . S
C2171 C2172 1.396 . S
C2172 H2156 0.939 . S
C2172 C2171 1.396 . S
C2172 C2173 1.397 . S
C2173 C2172 1.397 . S
C2173 C2174 1.385 . S
C2174 H2157 0.940 . S
C2174 C2173 1.385 . S
C2174 C2175 1.388 . S
C2175 H2154 0.939 . S
C2175 C2170 1.391 . S
C2175 C2174 1.388 . S
P2176 O2187 1.490 . S
P2176 C2190 1.812 . S
P2176 C2196 1.803 . S
P2176 C2202 1.819 . S
H2177 C2191 0.941 . S
H2178 C2192 0.939 . S
H2179 C2194 0.940 . S
H2180 C2195 0.940 . S
H2181 C2197 0.939 . S
H2182 C2198 0.942 . S
H2183 C2200 0.940 . S
H2184 C2201 0.939 . S
H2185 C2203 0.941 . S
H2186 C2207 0.939 . S
O2187 P2176 1.490 . S
H2188 C2204 0.939 . S
H2189 C2206 0.940 . S
C2190 P2176 1.812 . S
C2190 C2191 1.389 . S
C2190 C2195 1.391 . S
C2191 H2177 0.941 . S
C2191 C2190 1.389 . S
C2191 C2192 1.397 . S
C2192 H2178 0.939 . S
C2192 C2191 1.397 . S
C2192 C2193 1.378 . S
C2193 C2192 1.378 . S
C2193 C2194 1.378 . S
C2194 H2179 0.940 . S
C2194 C2193 1.378 . S
C2194 C2195 1.396 . S
C2195 H2180 0.940 . S
C2195 C2190 1.391 . S
C2195 C2194 1.396 . S
C2196 P2176 1.803 . S
C2196 C2197 1.378 . S
C2196 C2201 1.400 . S
C2197 H2181 0.939 . S
C2197 C2196 1.378 . S
C2197 C2198 1.361 . S
C2198 H2182 0.942 . S
C2198 C2197 1.361 . S
C2198 C2199 1.369 . S
C2199 C2198 1.369 . S
C2199 C2200 1.404 . S
C2200 H2183 0.940 . S
C2200 C2199 1.404 . S
C2200 C2201 1.389 . S
C2201 H2184 0.939 . S
C2201 C2196 1.400 . S
C2201 C2200 1.389 . S
C2202 P2176 1.819 . S
C2202 C2203 1.391 . S
C2202 C2207 1.391 . S
C2203 H2185 0.941 . S
C2203 C2202 1.391 . S
C2203 C2204 1.396 . S
C2204 H2188 0.939 . S
C2204 C2203 1.396 . S
C2204 C2205 1.397 . S
C2205 C2204 1.397 . S
C2205 C2206 1.385 . S
C2206 H2189 0.940 . S
C2206 C2205 1.385 . S
C2206 C2207 1.388 . S
C2207 H2186 0.939 . S
C2207 C2202 1.391 . S
C2207 C2206 1.388 . S
P2208 O2219 1.490 . S
P2208 C2222 1.812 . S
P2208 C2228 1.803 . S
P2208 C2234 1.819 . S
H2209 C2223 0.941 . S
H2210 C2224 0.939 . S
H2211 C2226 0.940 . S
H2212 C2227 0.940 . S
H2213 C2229 0.939 . S
H2214 C2230 0.942 . S
H2215 C2232 0.940 . S
H2216 C2233 0.939 . S
H2217 C2235 0.941 . S
H2218 C2239 0.939 . S
O2219 P2208 1.490 . S
H2220 C2236 0.939 . S
H2221 C2238 0.940 . S
C2222 P2208 1.812 . S
C2222 C2223 1.389 . S
C2222 C2227 1.391 . S
C2223 H2209 0.941 . S
C2223 C2222 1.389 . S
C2223 C2224 1.397 . S
C2224 H2210 0.939 . S
C2224 C2223 1.397 . S
C2224 C2225 1.378 . S
C2225 C2224 1.378 . S
C2225 C2226 1.378 . S
C2226 H2211 0.940 . S
C2226 C2225 1.378 . S
C2226 C2227 1.396 . S
C2227 H2212 0.940 . S
C2227 C2222 1.391 . S
C2227 C2226 1.396 . S
C2228 P2208 1.803 . S
C2228 C2229 1.378 . S
C2228 C2233 1.400 . S
C2229 H2213 0.939 . S
C2229 C2228 1.378 . S
C2229 C2230 1.361 . S
C2230 H2214 0.942 . S
C2230 C2229 1.361 . S
C2230 C2231 1.369 . S
C2231 C2230 1.369 . S
C2231 C2232 1.404 . S
C2232 H2215 0.940 . S
C2232 C2231 1.404 . S
C2232 C2233 1.389 . S
C2233 H2216 0.939 . S
C2233 C2228 1.400 . S
C2233 C2232 1.389 . S
C2234 P2208 1.819 . S
C2234 C2235 1.391 . S
C2234 C2239 1.391 . S
C2235 H2217 0.941 . S
C2235 C2234 1.391 . S
C2235 C2236 1.396 . S
C2236 H2220 0.939 . S
C2236 C2235 1.396 . S
C2236 C2237 1.397 . S
C2237 C2236 1.397 . S
C2237 C2238 1.385 . S
C2238 H2221 0.940 . S
C2238 C2237 1.385 . S
C2238 C2239 1.388 . S
C2239 H2218 0.939 . S
C2239 C2234 1.391 . S
C2239 C2238 1.388 . S
P2240 O2251 1.490 . S
P2240 C2254 1.812 . S
P2240 C2260 1.803 . S
P2240 C2266 1.819 . S
H2241 C2255 0.941 . S
H2242 C2256 0.939 . S
H2243 C2258 0.940 . S
H2244 C2259 0.940 . S
H2245 C2261 0.939 . S
H2246 C2262 0.942 . S
H2247 C2264 0.940 . S
H2248 C2265 0.939 . S
H2249 C2267 0.941 . S
H2250 C2271 0.939 . S
O2251 P2240 1.490 . S
H2252 C2268 0.939 . S
H2253 C2270 0.940 . S
C2254 P2240 1.812 . S
C2254 C2255 1.389 . S
C2254 C2259 1.391 . S
C2255 H2241 0.941 . S
C2255 C2254 1.389 . S
C2255 C2256 1.397 . S
C2256 H2242 0.939 . S
C2256 C2255 1.397 . S
C2256 C2257 1.378 . S
C2257 C2256 1.378 . S
C2257 C2258 1.378 . S
C2258 H2243 0.940 . S
C2258 C2257 1.378 . S
C2258 C2259 1.396 . S
C2259 H2244 0.940 . S
C2259 C2254 1.391 . S
C2259 C2258 1.396 . S
C2260 P2240 1.803 . S
C2260 C2261 1.378 . S
C2260 C2265 1.400 . S
C2261 H2245 0.939 . S
C2261 C2260 1.378 . S
C2261 C2262 1.361 . S
C2262 H2246 0.942 . S
C2262 C2261 1.361 . S
C2262 C2263 1.369 . S
C2263 C2262 1.369 . S
C2263 C2264 1.404 . S
C2264 H2247 0.940 . S
C2264 C2263 1.404 . S
C2264 C2265 1.389 . S
C2265 H2248 0.939 . S
C2265 C2260 1.400 . S
C2265 C2264 1.389 . S
C2266 P2240 1.819 . S
C2266 C2267 1.391 . S
C2266 C2271 1.391 . S
C2267 H2249 0.941 . S
C2267 C2266 1.391 . S
C2267 C2268 1.396 . S
C2268 H2252 0.939 . S
C2268 C2267 1.396 . S
C2268 C2269 1.397 . S
C2269 C2268 1.397 . S
C2269 C2270 1.385 . S
C2270 H2253 0.940 . S
C2270 C2269 1.385 . S
C2270 C2271 1.388 . S
C2271 H2250 0.939 . S
C2271 C2266 1.391 . S
C2271 C2270 1.388 . S
P2272 O2283 1.490 . S
P2272 C2286 1.812 . S
P2272 C2292 1.803 . S
P2272 C2298 1.819 . S
H2273 C2287 0.941 . S
H2274 C2288 0.939 . S
H2275 C2290 0.940 . S
H2276 C2291 0.940 . S
H2277 C2293 0.939 . S
H2278 C2294 0.942 . S
H2279 C2296 0.940 . S
H2280 C2297 0.939 . S
H2281 C2299 0.941 . S
H2282 C2303 0.939 . S
O2283 P2272 1.490 . S
H2284 C2300 0.939 . S
H2285 C2302 0.940 . S
C2286 P2272 1.812 . S
C2286 C2287 1.389 . S
C2286 C2291 1.391 . S
C2287 H2273 0.941 . S
C2287 C2286 1.389 . S
C2287 C2288 1.397 . S
C2288 H2274 0.939 . S
C2288 C2287 1.397 . S
C2288 C2289 1.378 . S
C2289 C2288 1.378 . S
C2289 C2290 1.378 . S
C2290 H2275 0.940 . S
C2290 C2289 1.378 . S
C2290 C2291 1.396 . S
C2291 H2276 0.940 . S
C2291 C2286 1.391 . S
C2291 C2290 1.396 . S
C2292 P2272 1.803 . S
C2292 C2293 1.378 . S
C2292 C2297 1.400 . S
C2293 H2277 0.939 . S
C2293 C2292 1.378 . S
C2293 C2294 1.361 . S
C2294 H2278 0.942 . S
C2294 C2293 1.361 . S
C2294 C2295 1.369 . S
C2295 C2294 1.369 . S
C2295 C2296 1.404 . S
C2296 H2279 0.940 . S
C2296 C2295 1.404 . S
C2296 C2297 1.389 . S
C2297 H2280 0.939 . S
C2297 C2292 1.400 . S
C2297 C2296 1.389 . S
C2298 P2272 1.819 . S
C2298 C2299 1.391 . S
C2298 C2303 1.391 . S
C2299 H2281 0.941 . S
C2299 C2298 1.391 . S
C2299 C2300 1.396 . S
C2300 H2284 0.939 . S
C2300 C2299 1.396 . S
C2300 C2301 1.397 . S
C2301 C2300 1.397 . S
C2301 C2302 1.385 . S
C2302 H2285 0.940 . S
C2302 C2301 1.385 . S
C2302 C2303 1.388 . S
C2303 H2282 0.939 . S
C2303 C2298 1.391 . S
C2303 C2302 1.388 . S
P2304 O2315 1.490 . S
P2304 C2318 1.812 . S
P2304 C2324 1.803 . S
P2304 C2330 1.819 . S
H2305 C2319 0.941 . S
H2306 C2320 0.939 . S
H2307 C2322 0.940 . S
H2308 C2323 0.940 . S
H2309 C2325 0.939 . S
H2310 C2326 0.942 . S
H2311 C2328 0.940 . S
H2312 C2329 0.939 . S
H2313 C2331 0.941 . S
H2314 C2335 0.939 . S
O2315 P2304 1.490 . S
H2316 C2332 0.939 . S
H2317 C2334 0.940 . S
C2318 P2304 1.812 . S
C2318 C2319 1.389 . S
C2318 C2323 1.391 . S
C2319 H2305 0.941 . S
C2319 C2318 1.389 . S
C2319 C2320 1.397 . S
C2320 H2306 0.939 . S
C2320 C2319 1.397 . S
C2320 C2321 1.378 . S
C2321 C2320 1.378 . S
C2321 C2322 1.378 . S
C2322 H2307 0.940 . S
C2322 C2321 1.378 . S
C2322 C2323 1.396 . S
C2323 H2308 0.940 . S
C2323 C2318 1.391 . S
C2323 C2322 1.396 . S
C2324 P2304 1.803 . S
C2324 C2325 1.378 . S
C2324 C2329 1.400 . S
C2325 H2309 0.939 . S
C2325 C2324 1.378 . S
C2325 C2326 1.361 . S
C2326 H2310 0.942 . S
C2326 C2325 1.361 . S
C2326 C2327 1.369 . S
C2327 C2326 1.369 . S
C2327 C2328 1.404 . S
C2328 H2311 0.940 . S
C2328 C2327 1.404 . S
C2328 C2329 1.389 . S
C2329 H2312 0.939 . S
C2329 C2324 1.400 . S
C2329 C2328 1.389 . S
C2330 P2304 1.819 . S
C2330 C2331 1.391 . S
C2330 C2335 1.391 . S
C2331 H2313 0.941 . S
C2331 C2330 1.391 . S
C2331 C2332 1.396 . S
C2332 H2316 0.939 . S
C2332 C2331 1.396 . S
C2332 C2333 1.397 . S
C2333 C2332 1.397 . S
C2333 C2334 1.385 . S
C2334 H2317 0.940 . S
C2334 C2333 1.385 . S
C2334 C2335 1.388 . S
C2335 H2314 0.939 . S
C2335 C2330 1.391 . S
C2335 C2334 1.388 . S
P2336 O2347 1.490 . S
P2336 C2350 1.812 . S
P2336 C2356 1.803 . S
P2336 C2362 1.819 . S
H2337 C2351 0.941 . S
H2338 C2352 0.939 . S
H2339 C2354 0.940 . S
H2340 C2355 0.940 . S
H2341 C2357 0.939 . S
H2342 C2358 0.942 . S
H2343 C2360 0.940 . S
H2344 C2361 0.939 . S
H2345 C2363 0.941 . S
H2346 C2367 0.939 . S
O2347 P2336 1.490 . S
H2348 C2364 0.939 . S
H2349 C2366 0.940 . S
C2350 P2336 1.812 . S
C2350 C2351 1.389 . S
C2350 C2355 1.391 . S
C2351 H2337 0.941 . S
C2351 C2350 1.389 . S
C2351 C2352 1.397 . S
C2352 H2338 0.939 . S
C2352 C2351 1.397 . S
C2352 C2353 1.378 . S
C2353 C2352 1.378 . S
C2353 C2354 1.378 . S
C2354 H2339 0.940 . S
C2354 C2353 1.378 . S
C2354 C2355 1.396 . S
C2355 H2340 0.940 . S
C2355 C2350 1.391 . S
C2355 C2354 1.396 . S
C2356 P2336 1.803 . S
C2356 C2357 1.378 . S
C2356 C2361 1.400 . S
C2357 H2341 0.939 . S
C2357 C2356 1.378 . S
C2357 C2358 1.361 . S
C2358 H2342 0.942 . S
C2358 C2357 1.361 . S
C2358 C2359 1.369 . S
C2359 C2358 1.369 . S
C2359 C2360 1.404 . S
C2360 H2343 0.940 . S
C2360 C2359 1.404 . S
C2360 C2361 1.389 . S
C2361 H2344 0.939 . S
C2361 C2356 1.400 . S
C2361 C2360 1.389 . S
C2362 P2336 1.819 . S
C2362 C2363 1.391 . S
C2362 C2367 1.391 . S
C2363 H2345 0.941 . S
C2363 C2362 1.391 . S
C2363 C2364 1.396 . S
C2364 H2348 0.939 . S
C2364 C2363 1.396 . S
C2364 C2365 1.397 . S
C2365 C2364 1.397 . S
C2365 C2366 1.385 . S
C2366 H2349 0.940 . S
C2366 C2365 1.385 . S
C2366 C2367 1.388 . S
C2367 H2346 0.939 . S
C2367 C2362 1.391 . S
C2367 C2366 1.388 . S
P2368 O2379 1.490 . S
P2368 C2382 1.812 . S
P2368 C2388 1.803 . S
P2368 C2394 1.819 . S
H2369 C2383 0.941 . S
H2370 C2384 0.939 . S
H2371 C2386 0.940 . S
H2372 C2387 0.940 . S
H2373 C2389 0.939 . S
H2374 C2390 0.942 . S
H2375 C2392 0.940 . S
H2376 C2393 0.939 . S
H2377 C2395 0.941 . S
H2378 C2399 0.939 . S
O2379 P2368 1.490 . S
H2380 C2396 0.939 . S
H2381 C2398 0.940 . S
C2382 P2368 1.812 . S
C2382 C2383 1.389 . S
C2382 C2387 1.391 . S
C2383 H2369 0.941 . S
C2383 C2382 1.389 . S
C2383 C2384 1.397 . S
C2384 H2370 0.939 . S
C2384 C2383 1.397 . S
C2384 C2385 1.378 . S
C2385 C2384 1.378 . S
C2385 C2386 1.378 . S
C2386 H2371 0.940 . S
C2386 C2385 1.378 . S
C2386 C2387 1.396 . S
C2387 H2372 0.940 . S
C2387 C2382 1.391 . S
C2387 C2386 1.396 . S
C2388 P2368 1.803 . S
C2388 C2389 1.378 . S
C2388 C2393 1.400 . S
C2389 H2373 0.939 . S
C2389 C2388 1.378 . S
C2389 C2390 1.361 . S
C2390 H2374 0.942 . S
C2390 C2389 1.361 . S
C2390 C2391 1.369 . S
C2391 C2390 1.369 . S
C2391 C2392 1.404 . S
C2392 H2375 0.940 . S
C2392 C2391 1.404 . S
C2392 C2393 1.389 . S
C2393 H2376 0.939 . S
C2393 C2388 1.400 . S
C2393 C2392 1.389 . S
C2394 P2368 1.819 . S
C2394 C2395 1.391 . S
C2394 C2399 1.391 . S
C2395 H2377 0.941 . S
C2395 C2394 1.391 . S
C2395 C2396 1.396 . S
C2396 H2380 0.939 . S
C2396 C2395 1.396 . S
C2396 C2397 1.397 . S
C2397 C2396 1.397 . S
C2397 C2398 1.385 . S
C2398 H2381 0.940 . S
C2398 C2397 1.385 . S
C2398 C2399 1.388 . S
C2399 H2378 0.939 . S
C2399 C2394 1.391 . S
C2399 C2398 1.388 . S
P2400 O2411 1.490 . S
P2400 C2414 1.812 . S
P2400 C2420 1.803 . S
P2400 C2426 1.819 . S
H2401 C2415 0.941 . S
H2402 C2416 0.939 . S
H2403 C2418 0.940 . S
H2404 C2419 0.940 . S
H2405 C2421 0.939 . S
H2406 C2422 0.942 . S
H2407 C2424 0.940 . S
H2408 C2425 0.939 . S
H2409 C2427 0.941 . S
H2410 C2431 0.939 . S
O2411 P2400 1.490 . S
H2412 C2428 0.939 . S
H2413 C2430 0.940 . S
C2414 P2400 1.812 . S
C2414 C2415 1.389 . S
C2414 C2419 1.391 . S
C2415 H2401 0.941 . S
C2415 C2414 1.389 . S
C2415 C2416 1.397 . S
C2416 H2402 0.939 . S
C2416 C2415 1.397 . S
C2416 C2417 1.378 . S
C2417 C2416 1.378 . S
C2417 C2418 1.378 . S
C2418 H2403 0.940 . S
C2418 C2417 1.378 . S
C2418 C2419 1.396 . S
C2419 H2404 0.940 . S
C2419 C2414 1.391 . S
C2419 C2418 1.396 . S
C2420 P2400 1.803 . S
C2420 C2421 1.378 . S
C2420 C2425 1.400 . S
C2421 H2405 0.939 . S
C2421 C2420 1.378 . S
C2421 C2422 1.361 . S
C2422 H2406 0.942 . S
C2422 C2421 1.361 . S
C2422 C2423 1.369 . S
C2423 C2422 1.369 . S
C2423 C2424 1.404 . S
C2424 H2407 0.940 . S
C2424 C2423 1.404 . S
C2424 C2425 1.389 . S
C2425 H2408 0.939 . S
C2425 C2420 1.400 . S
C2425 C2424 1.389 . S
C2426 P2400 1.819 . S
C2426 C2427 1.391 . S
C2426 C2431 1.391 . S
C2427 H2409 0.941 . S
C2427 C2426 1.391 . S
C2427 C2428 1.396 . S
C2428 H2412 0.939 . S
C2428 C2427 1.396 . S
C2428 C2429 1.397 . S
C2429 C2428 1.397 . S
C2429 C2430 1.385 . S
C2430 H2413 0.940 . S
C2430 C2429 1.385 . S
C2430 C2431 1.388 . S
C2431 H2410 0.939 . S
C2431 C2426 1.391 . S
C2431 C2430 1.388 . S
P2432 O2443 1.490 . S
P2432 C2446 1.812 . S
P2432 C2452 1.803 . S
P2432 C2458 1.819 . S
H2433 C2447 0.941 . S
H2434 C2448 0.939 . S
H2435 C2450 0.940 . S
H2436 C2451 0.940 . S
H2437 C2453 0.939 . S
H2438 C2454 0.942 . S
H2439 C2456 0.940 . S
H2440 C2457 0.939 . S
H2441 C2459 0.941 . S
H2442 C2463 0.939 . S
O2443 P2432 1.490 . S
H2444 C2460 0.939 . S
H2445 C2462 0.940 . S
C2446 P2432 1.812 . S
C2446 C2447 1.389 . S
C2446 C2451 1.391 . S
C2447 H2433 0.941 . S
C2447 C2446 1.389 . S
C2447 C2448 1.397 . S
C2448 H2434 0.939 . S
C2448 C2447 1.397 . S
C2448 C2449 1.378 . S
C2449 C2448 1.378 . S
C2449 C2450 1.378 . S
C2450 H2435 0.940 . S
C2450 C2449 1.378 . S
C2450 C2451 1.396 . S
C2451 H2436 0.940 . S
C2451 C2446 1.391 . S
C2451 C2450 1.396 . S
C2452 P2432 1.803 . S
C2452 C2453 1.378 . S
C2452 C2457 1.400 . S
C2453 H2437 0.939 . S
C2453 C2452 1.378 . S
C2453 C2454 1.361 . S
C2454 H2438 0.942 . S
C2454 C2453 1.361 . S
C2454 C2455 1.369 . S
C2455 C2454 1.369 . S
C2455 C2456 1.404 . S
C2456 H2439 0.940 . S
C2456 C2455 1.404 . S
C2456 C2457 1.389 . S
C2457 H2440 0.939 . S
C2457 C2452 1.400 . S
C2457 C2456 1.389 . S
C2458 P2432 1.819 . S
C2458 C2459 1.391 . S
C2458 C2463 1.391 . S
C2459 H2441 0.941 . S
C2459 C2458 1.391 . S
C2459 C2460 1.396 . S
C2460 H2444 0.939 . S
C2460 C2459 1.396 . S
C2460 C2461 1.397 . S
C2461 C2460 1.397 . S
C2461 C2462 1.385 . S
C2462 H2445 0.940 . S
C2462 C2461 1.385 . S
C2462 C2463 1.388 . S
C2463 H2442 0.939 . S
C2463 C2458 1.391 . S
C2463 C2462 1.388 . S
P2464 O2475 1.490 . S
P2464 C2478 1.812 . S
P2464 C2484 1.803 . S
P2464 C2490 1.819 . S
H2465 C2479 0.941 . S
H2466 C2480 0.939 . S
H2467 C2482 0.940 . S
H2468 C2483 0.940 . S
H2469 C2485 0.939 . S
H2470 C2486 0.942 . S
H2471 C2488 0.940 . S
H2472 C2489 0.939 . S
H2473 C2491 0.941 . S
H2474 C2495 0.939 . S
O2475 P2464 1.490 . S
H2476 C2492 0.939 . S
H2477 C2494 0.940 . S
C2478 P2464 1.812 . S
C2478 C2479 1.389 . S
C2478 C2483 1.391 . S
C2479 H2465 0.941 . S
C2479 C2478 1.389 . S
C2479 C2480 1.397 . S
C2480 H2466 0.939 . S
C2480 C2479 1.397 . S
C2480 C2481 1.378 . S
C2481 C2480 1.378 . S
C2481 C2482 1.378 . S
C2482 H2467 0.940 . S
C2482 C2481 1.378 . S
C2482 C2483 1.396 . S
C2483 H2468 0.940 . S
C2483 C2478 1.391 . S
C2483 C2482 1.396 . S
C2484 P2464 1.803 . S
C2484 C2485 1.378 . S
C2484 C2489 1.400 . S
C2485 H2469 0.939 . S
C2485 C2484 1.378 . S
C2485 C2486 1.361 . S
C2486 H2470 0.942 . S
C2486 C2485 1.361 . S
C2486 C2487 1.369 . S
C2487 C2486 1.369 . S
C2487 C2488 1.404 . S
C2488 H2471 0.940 . S
C2488 C2487 1.404 . S
C2488 C2489 1.389 . S
C2489 H2472 0.939 . S
C2489 C2484 1.400 . S
C2489 C2488 1.389 . S
C2490 P2464 1.819 . S
C2490 C2491 1.391 . S
C2490 C2495 1.391 . S
C2491 H2473 0.941 . S
C2491 C2490 1.391 . S
C2491 C2492 1.396 . S
C2492 H2476 0.939 . S
C2492 C2491 1.396 . S
C2492 C2493 1.397 . S
C2493 C2492 1.397 . S
C2493 C2494 1.385 . S
C2494 H2477 0.940 . S
C2494 C2493 1.385 . S
C2494 C2495 1.388 . S
C2495 H2474 0.939 . S
C2495 C2490 1.391 . S
C2495 C2494 1.388 . S
P2496 O2507 1.490 . S
P2496 C2510 1.812 . S
P2496 C2516 1.803 . S
P2496 C2522 1.819 . S
H2497 C2511 0.941 . S
H2498 C2512 0.939 . S
H2499 C2514 0.940 . S
H2500 C2515 0.940 . S
H2501 C2517 0.939 . S
H2502 C2518 0.942 . S
H2503 C2520 0.940 . S
H2504 C2521 0.939 . S
H2505 C2523 0.941 . S
H2506 C2527 0.939 . S
O2507 P2496 1.490 . S
H2508 C2524 0.939 . S
H2509 C2526 0.940 . S
C2510 P2496 1.812 . S
C2510 C2511 1.389 . S
C2510 C2515 1.391 . S
C2511 H2497 0.941 . S
C2511 C2510 1.389 . S
C2511 C2512 1.397 . S
C2512 H2498 0.939 . S
C2512 C2511 1.397 . S
C2512 C2513 1.378 . S
C2513 C2512 1.378 . S
C2513 C2514 1.378 . S
C2514 H2499 0.940 . S
C2514 C2513 1.378 . S
C2514 C2515 1.396 . S
C2515 H2500 0.940 . S
C2515 C2510 1.391 . S
C2515 C2514 1.396 . S
C2516 P2496 1.803 . S
C2516 C2517 1.378 . S
C2516 C2521 1.400 . S
C2517 H2501 0.939 . S
C2517 C2516 1.378 . S
C2517 C2518 1.361 . S
C2518 H2502 0.942 . S
C2518 C2517 1.361 . S
C2518 C2519 1.369 . S
C2519 C2518 1.369 . S
C2519 C2520 1.404 . S
C2520 H2503 0.940 . S
C2520 C2519 1.404 . S
C2520 C2521 1.389 . S
C2521 H2504 0.939 . S
C2521 C2516 1.400 . S
C2521 C2520 1.389 . S
C2522 P2496 1.819 . S
C2522 C2523 1.391 . S
C2522 C2527 1.391 . S
C2523 H2505 0.941 . S
C2523 C2522 1.391 . S
C2523 C2524 1.396 . S
C2524 H2508 0.939 . S
C2524 C2523 1.396 . S
C2524 C2525 1.397 . S
C2525 C2524 1.397 . S
C2525 C2526 1.385 . S
C2526 H2509 0.940 . S
C2526 C2525 1.385 . S
C2526 C2527 1.388 . S
C2527 H2506 0.939 . S
C2527 C2522 1.391 . S
C2527 C2526 1.388 . S
P2528 O2539 1.490 . S
P2528 C2542 1.812 . S
P2528 C2548 1.803 . S
P2528 C2554 1.819 . S
H2529 C2543 0.941 . S
H2530 C2544 0.939 . S
H2531 C2546 0.940 . S
H2532 C2547 0.940 . S
H2533 C2549 0.939 . S
H2534 C2550 0.942 . S
H2535 C2552 0.940 . S
H2536 C2553 0.939 . S
H2537 C2555 0.941 . S
H2538 C2559 0.939 . S
O2539 P2528 1.490 . S
H2540 C2556 0.939 . S
H2541 C2558 0.940 . S
C2542 P2528 1.812 . S
C2542 C2543 1.389 . S
C2542 C2547 1.391 . S
C2543 H2529 0.941 . S
C2543 C2542 1.389 . S
C2543 C2544 1.397 . S
C2544 H2530 0.939 . S
C2544 C2543 1.397 . S
C2544 C2545 1.378 . S
C2545 C2544 1.378 . S
C2545 C2546 1.378 . S
C2546 H2531 0.940 . S
C2546 C2545 1.378 . S
C2546 C2547 1.396 . S
C2547 H2532 0.940 . S
C2547 C2542 1.391 . S
C2547 C2546 1.396 . S
C2548 P2528 1.803 . S
C2548 C2549 1.378 . S
C2548 C2553 1.400 . S
C2549 H2533 0.939 . S
C2549 C2548 1.378 . S
C2549 C2550 1.361 . S
C2550 H2534 0.942 . S
C2550 C2549 1.361 . S
C2550 C2551 1.369 . S
C2551 C2550 1.369 . S
C2551 C2552 1.404 . S
C2552 H2535 0.940 . S
C2552 C2551 1.404 . S
C2552 C2553 1.389 . S
C2553 H2536 0.939 . S
C2553 C2548 1.400 . S
C2553 C2552 1.389 . S
C2554 P2528 1.819 . S
C2554 C2555 1.391 . S
C2554 C2559 1.391 . S
C2555 H2537 0.941 . S
C2555 C2554 1.391 . S
C2555 C2556 1.396 . S
C2556 H2540 0.939 . S
C2556 C2555 1.396 . S
C2556 C2557 1.397 . S
C2557 C2556 1.397 . S
C2557 C2558 1.385 . S
C2558 H2541 0.940 . S
C2558 C2557 1.385 . S
C2558 C2559 1.388 . S
C2559 H2538 0.939 . S
C2559 C2554 1.391 . S
C2559 C2558 1.388 . S
P2560 O2571 1.490 . S
P2560 C2574 1.812 . S
P2560 C2580 1.803 . S
P2560 C2586 1.819 . S
H2561 C2575 0.941 . S
H2562 C2576 0.939 . S
H2563 C2578 0.940 . S
H2564 C2579 0.940 . S
H2565 C2581 0.939 . S
H2566 C2582 0.942 . S
H2567 C2584 0.940 . S
H2568 C2585 0.939 . S
H2569 C2587 0.941 . S
H2570 C2591 0.939 . S
O2571 P2560 1.490 . S
H2572 C2588 0.939 . S
H2573 C2590 0.940 . S
C2574 P2560 1.812 . S
C2574 C2575 1.389 . S
C2574 C2579 1.391 . S
C2575 H2561 0.941 . S
C2575 C2574 1.389 . S
C2575 C2576 1.397 . S
C2576 H2562 0.939 . S
C2576 C2575 1.397 . S
C2576 C2577 1.378 . S
C2577 C2576 1.378 . S
C2577 C2578 1.378 . S
C2578 H2563 0.940 . S
C2578 C2577 1.378 . S
C2578 C2579 1.396 . S
C2579 H2564 0.940 . S
C2579 C2574 1.391 . S
C2579 C2578 1.396 . S
C2580 P2560 1.803 . S
C2580 C2581 1.378 . S
C2580 C2585 1.400 . S
C2581 H2565 0.939 . S
C2581 C2580 1.378 . S
C2581 C2582 1.361 . S
C2582 H2566 0.942 . S
C2582 C2581 1.361 . S
C2582 C2583 1.369 . S
C2583 C2582 1.369 . S
C2583 C2584 1.404 . S
C2584 H2567 0.940 . S
C2584 C2583 1.404 . S
C2584 C2585 1.389 . S
C2585 H2568 0.939 . S
C2585 C2580 1.400 . S
C2585 C2584 1.389 . S
C2586 P2560 1.819 . S
C2586 C2587 1.391 . S
C2586 C2591 1.391 . S
C2587 H2569 0.941 . S
C2587 C2586 1.391 . S
C2587 C2588 1.396 . S
C2588 H2572 0.939 . S
C2588 C2587 1.396 . S
C2588 C2589 1.397 . S
C2589 C2588 1.397 . S
C2589 C2590 1.385 . S
C2590 H2573 0.940 . S
C2590 C2589 1.385 . S
C2590 C2591 1.388 . S
C2591 H2570 0.939 . S
C2591 C2586 1.391 . S
C2591 C2590 1.388 . S
P2592 O2603 1.490 . S
P2592 C2606 1.812 . S
P2592 C2612 1.803 . S
P2592 C2618 1.819 . S
H2593 C2607 0.941 . S
H2594 C2608 0.939 . S
H2595 C2610 0.940 . S
H2596 C2611 0.940 . S
H2597 C2613 0.939 . S
H2598 C2614 0.942 . S
H2599 C2616 0.940 . S
H2600 C2617 0.939 . S
H2601 C2619 0.941 . S
H2602 C2623 0.939 . S
O2603 P2592 1.490 . S
H2604 C2620 0.939 . S
H2605 C2622 0.940 . S
C2606 P2592 1.812 . S
C2606 C2607 1.389 . S
C2606 C2611 1.391 . S
C2607 H2593 0.941 . S
C2607 C2606 1.389 . S
C2607 C2608 1.397 . S
C2608 H2594 0.939 . S
C2608 C2607 1.397 . S
C2608 C2609 1.378 . S
C2609 C2608 1.378 . S
C2609 C2610 1.378 . S
C2610 H2595 0.940 . S
C2610 C2609 1.378 . S
C2610 C2611 1.396 . S
C2611 H2596 0.940 . S
C2611 C2606 1.391 . S
C2611 C2610 1.396 . S
C2612 P2592 1.803 . S
C2612 C2613 1.378 . S
C2612 C2617 1.400 . S
C2613 H2597 0.939 . S
C2613 C2612 1.378 . S
C2613 C2614 1.361 . S
C2614 H2598 0.942 . S
C2614 C2613 1.361 . S
C2614 C2615 1.369 . S
C2615 C2614 1.369 . S
C2615 C2616 1.404 . S
C2616 H2599 0.940 . S
C2616 C2615 1.404 . S
C2616 C2617 1.389 . S
C2617 H2600 0.939 . S
C2617 C2612 1.400 . S
C2617 C2616 1.389 . S
C2618 P2592 1.819 . S
C2618 C2619 1.391 . S
C2618 C2623 1.391 . S
C2619 H2601 0.941 . S
C2619 C2618 1.391 . S
C2619 C2620 1.396 . S
C2620 H2604 0.939 . S
C2620 C2619 1.396 . S
C2620 C2621 1.397 . S
C2621 C2620 1.397 . S
C2621 C2622 1.385 . S
C2622 H2605 0.940 . S
C2622 C2621 1.385 . S
C2622 C2623 1.388 . S
C2623 H2602 0.939 . S
C2623 C2618 1.391 . S
C2623 C2622 1.388 . S
P2624 O2635 1.490 . S
P2624 C2638 1.812 . S
P2624 C2644 1.803 . S
P2624 C2650 1.819 . S
H2625 C2639 0.941 . S
H2626 C2640 0.939 . S
H2627 C2642 0.940 . S
H2628 C2643 0.940 . S
H2629 C2645 0.939 . S
H2630 C2646 0.942 . S
H2631 C2648 0.940 . S
H2632 C2649 0.939 . S
H2633 C2651 0.941 . S
H2634 C2655 0.939 . S
O2635 P2624 1.490 . S
H2636 C2652 0.939 . S
H2637 C2654 0.940 . S
C2638 P2624 1.812 . S
C2638 C2639 1.389 . S
C2638 C2643 1.391 . S
C2639 H2625 0.941 . S
C2639 C2638 1.389 . S
C2639 C2640 1.397 . S
C2640 H2626 0.939 . S
C2640 C2639 1.397 . S
C2640 C2641 1.378 . S
C2641 C2640 1.378 . S
C2641 C2642 1.378 . S
C2642 H2627 0.940 . S
C2642 C2641 1.378 . S
C2642 C2643 1.396 . S
C2643 H2628 0.940 . S
C2643 C2638 1.391 . S
C2643 C2642 1.396 . S
C2644 P2624 1.803 . S
C2644 C2645 1.378 . S
C2644 C2649 1.400 . S
C2645 H2629 0.939 . S
C2645 C2644 1.378 . S
C2645 C2646 1.361 . S
C2646 H2630 0.942 . S
C2646 C2645 1.361 . S
C2646 C2647 1.369 . S
C2647 C2646 1.369 . S
C2647 C2648 1.404 . S
C2648 H2631 0.940 . S
C2648 C2647 1.404 . S
C2648 C2649 1.389 . S
C2649 H2632 0.939 . S
C2649 C2644 1.400 . S
C2649 C2648 1.389 . S
C2650 P2624 1.819 . S
C2650 C2651 1.391 . S
C2650 C2655 1.391 . S
C2651 H2633 0.941 . S
C2651 C2650 1.391 . S
C2651 C2652 1.396 . S
C2652 H2636 0.939 . S
C2652 C2651 1.396 . S
C2652 C2653 1.397 . S
C2653 C2652 1.397 . S
C2653 C2654 1.385 . S
C2654 H2637 0.940 . S
C2654 C2653 1.385 . S
C2654 C2655 1.388 . S
C2655 H2634 0.939 . S
C2655 C2650 1.391 . S
C2655 C2654 1.388 . S
P2656 O2667 1.490 . S
P2656 C2670 1.812 . S
P2656 C2676 1.803 . S
P2656 C2682 1.819 . S
H2657 C2671 0.941 . S
H2658 C2672 0.939 . S
H2659 C2674 0.940 . S
H2660 C2675 0.940 . S
H2661 C2677 0.939 . S
H2662 C2678 0.942 . S
H2663 C2680 0.940 . S
H2664 C2681 0.939 . S
H2665 C2683 0.941 . S
H2666 C2687 0.939 . S
O2667 P2656 1.490 . S
H2668 C2684 0.939 . S
H2669 C2686 0.940 . S
C2670 P2656 1.812 . S
C2670 C2671 1.389 . S
C2670 C2675 1.391 . S
C2671 H2657 0.941 . S
C2671 C2670 1.389 . S
C2671 C2672 1.397 . S
C2672 H2658 0.939 . S
C2672 C2671 1.397 . S
C2672 C2673 1.378 . S
C2673 C2672 1.378 . S
C2673 C2674 1.378 . S
C2674 H2659 0.940 . S
C2674 C2673 1.378 . S
C2674 C2675 1.396 . S
C2675 H2660 0.940 . S
C2675 C2670 1.391 . S
C2675 C2674 1.396 . S
C2676 P2656 1.803 . S
C2676 C2677 1.378 . S
C2676 C2681 1.400 . S
C2677 H2661 0.939 . S
C2677 C2676 1.378 . S
C2677 C2678 1.361 . S
C2678 H2662 0.942 . S
C2678 C2677 1.361 . S
C2678 C2679 1.369 . S
C2679 C2678 1.369 . S
C2679 C2680 1.404 . S
C2680 H2663 0.940 . S
C2680 C2679 1.404 . S
C2680 C2681 1.389 . S
C2681 H2664 0.939 . S
C2681 C2676 1.400 . S
C2681 C2680 1.389 . S
C2682 P2656 1.819 . S
C2682 C2683 1.391 . S
C2682 C2687 1.391 . S
C2683 H2665 0.941 . S
C2683 C2682 1.391 . S
C2683 C2684 1.396 . S
C2684 H2668 0.939 . S
C2684 C2683 1.396 . S
C2684 C2685 1.397 . S
C2685 C2684 1.397 . S
C2685 C2686 1.385 . S
C2686 H2669 0.940 . S
C2686 C2685 1.385 . S
C2686 C2687 1.388 . S
C2687 H2666 0.939 . S
C2687 C2682 1.391 . S
C2687 C2686 1.388 . S
P2688 O2699 1.490 . S
P2688 C2702 1.812 . S
P2688 C2708 1.803 . S
P2688 C2714 1.819 . S
H2689 C2703 0.941 . S
H2690 C2704 0.939 . S
H2691 C2706 0.940 . S
H2692 C2707 0.940 . S
H2693 C2709 0.939 . S
H2694 C2710 0.942 . S
H2695 C2712 0.940 . S
H2696 C2713 0.939 . S
H2697 C2715 0.941 . S
H2698 C2719 0.939 . S
O2699 P2688 1.490 . S
H2700 C2716 0.939 . S
H2701 C2718 0.940 . S
C2702 P2688 1.812 . S
C2702 C2703 1.389 . S
C2702 C2707 1.391 . S
C2703 H2689 0.941 . S
C2703 C2702 1.389 . S
C2703 C2704 1.397 . S
C2704 H2690 0.939 . S
C2704 C2703 1.397 . S
C2704 C2705 1.378 . S
C2705 C2704 1.378 . S
C2705 C2706 1.378 . S
C2706 H2691 0.940 . S
C2706 C2705 1.378 . S
C2706 C2707 1.396 . S
C2707 H2692 0.940 . S
C2707 C2702 1.391 . S
C2707 C2706 1.396 . S
C2708 P2688 1.803 . S
C2708 C2709 1.378 . S
C2708 C2713 1.400 . S
C2709 H2693 0.939 . S
C2709 C2708 1.378 . S
C2709 C2710 1.361 . S
C2710 H2694 0.942 . S
C2710 C2709 1.361 . S
C2710 C2711 1.369 . S
C2711 C2710 1.369 . S
C2711 C2712 1.404 . S
C2712 H2695 0.940 . S
C2712 C2711 1.404 . S
C2712 C2713 1.389 . S
C2713 H2696 0.939 . S
C2713 C2708 1.400 . S
C2713 C2712 1.389 . S
C2714 P2688 1.819 . S
C2714 C2715 1.391 . S
C2714 C2719 1.391 . S
C2715 H2697 0.941 . S
C2715 C2714 1.391 . S
C2715 C2716 1.396 . S
C2716 H2700 0.939 . S
C2716 C2715 1.396 . S
C2716 C2717 1.397 . S
C2717 C2716 1.397 . S
C2717 C2718 1.385 . S
C2718 H2701 0.940 . S
C2718 C2717 1.385 . S
C2718 C2719 1.388 . S
C2719 H2698 0.939 . S
C2719 C2714 1.391 . S
C2719 C2718 1.388 . S
P2720 O2731 1.490 . S
P2720 C2734 1.812 . S
P2720 C2740 1.803 . S
P2720 C2746 1.819 . S
H2721 C2735 0.941 . S
H2722 C2736 0.939 . S
H2723 C2738 0.940 . S
H2724 C2739 0.940 . S
H2725 C2741 0.939 . S
H2726 C2742 0.942 . S
H2727 C2744 0.940 . S
H2728 C2745 0.939 . S
H2729 C2747 0.941 . S
H2730 C2751 0.939 . S
O2731 P2720 1.490 . S
H2732 C2748 0.939 . S
H2733 C2750 0.940 . S
C2734 P2720 1.812 . S
C2734 C2735 1.389 . S
C2734 C2739 1.391 . S
C2735 H2721 0.941 . S
C2735 C2734 1.389 . S
C2735 C2736 1.397 . S
C2736 H2722 0.939 . S
C2736 C2735 1.397 . S
C2736 C2737 1.378 . S
C2737 C2736 1.378 . S
C2737 C2738 1.378 . S
C2738 H2723 0.940 . S
C2738 C2737 1.378 . S
C2738 C2739 1.396 . S
C2739 H2724 0.940 . S
C2739 C2734 1.391 . S
C2739 C2738 1.396 . S
C2740 P2720 1.803 . S
C2740 C2741 1.378 . S
C2740 C2745 1.400 . S
C2741 H2725 0.939 . S
C2741 C2740 1.378 . S
C2741 C2742 1.361 . S
C2742 H2726 0.942 . S
C2742 C2741 1.361 . S
C2742 C2743 1.369 . S
C2743 C2742 1.369 . S
C2743 C2744 1.404 . S
C2744 H2727 0.940 . S
C2744 C2743 1.404 . S
C2744 C2745 1.389 . S
C2745 H2728 0.939 . S
C2745 C2740 1.400 . S
C2745 C2744 1.389 . S
C2746 P2720 1.819 . S
C2746 C2747 1.391 . S
C2746 C2751 1.391 . S
C2747 H2729 0.941 . S
C2747 C2746 1.391 . S
C2747 C2748 1.396 . S
C2748 H2732 0.939 . S
C2748 C2747 1.396 . S
C2748 C2749 1.397 . S
C2749 C2748 1.397 . S
C2749 C2750 1.385 . S
C2750 H2733 0.940 . S
C2750 C2749 1.385 . S
C2750 C2751 1.388 . S
C2751 H2730 0.939 . S
C2751 C2746 1.391 . S
C2751 C2750 1.388 . S
P2752 O2763 1.490 . S
P2752 C2766 1.812 . S
P2752 C2772 1.803 . S
P2752 C2778 1.819 . S
H2753 C2767 0.941 . S
H2754 C2768 0.939 . S
H2755 C2770 0.940 . S
H2756 C2771 0.940 . S
H2757 C2773 0.939 . S
H2758 C2774 0.942 . S
H2759 C2776 0.940 . S
H2760 C2777 0.939 . S
H2761 C2779 0.941 . S
H2762 C2783 0.939 . S
O2763 P2752 1.490 . S
H2764 C2780 0.939 . S
H2765 C2782 0.940 . S
C2766 P2752 1.812 . S
C2766 C2767 1.389 . S
C2766 C2771 1.391 . S
C2767 H2753 0.941 . S
C2767 C2766 1.389 . S
C2767 C2768 1.397 . S
C2768 H2754 0.939 . S
C2768 C2767 1.397 . S
C2768 C2769 1.378 . S
C2769 C2768 1.378 . S
C2769 C2770 1.378 . S
C2770 H2755 0.940 . S
C2770 C2769 1.378 . S
C2770 C2771 1.396 . S
C2771 H2756 0.940 . S
C2771 C2766 1.391 . S
C2771 C2770 1.396 . S
C2772 P2752 1.803 . S
C2772 C2773 1.378 . S
C2772 C2777 1.400 . S
C2773 H2757 0.939 . S
C2773 C2772 1.378 . S
C2773 C2774 1.361 . S
C2774 H2758 0.942 . S
C2774 C2773 1.361 . S
C2774 C2775 1.369 . S
C2775 C2774 1.369 . S
C2775 C2776 1.404 . S
C2776 H2759 0.940 . S
C2776 C2775 1.404 . S
C2776 C2777 1.389 . S
C2777 H2760 0.939 . S
C2777 C2772 1.400 . S
C2777 C2776 1.389 . S
C2778 P2752 1.819 . S
C2778 C2779 1.391 . S
C2778 C2783 1.391 . S
C2779 H2761 0.941 . S
C2779 C2778 1.391 . S
C2779 C2780 1.396 . S
C2780 H2764 0.939 . S
C2780 C2779 1.396 . S
C2780 C2781 1.397 . S
C2781 C2780 1.397 . S
C2781 C2782 1.385 . S
C2782 H2765 0.940 . S
C2782 C2781 1.385 . S
C2782 C2783 1.388 . S
C2783 H2762 0.939 . S
C2783 C2778 1.391 . S
C2783 C2782 1.388 . S
P2784 O2795 1.490 . S
P2784 C2798 1.812 . S
P2784 C2804 1.803 . S
P2784 C2810 1.819 . S
H2785 C2799 0.941 . S
H2786 C2800 0.939 . S
H2787 C2802 0.940 . S
H2788 C2803 0.940 . S
H2789 C2805 0.939 . S
H2790 C2806 0.942 . S
H2791 C2808 0.940 . S
H2792 C2809 0.939 . S
H2793 C2811 0.941 . S
H2794 C2815 0.939 . S
O2795 P2784 1.490 . S
H2796 C2812 0.939 . S
H2797 C2814 0.940 . S
C2798 P2784 1.812 . S
C2798 C2799 1.389 . S
C2798 C2803 1.391 . S
C2799 H2785 0.941 . S
C2799 C2798 1.389 . S
C2799 C2800 1.397 . S
C2800 H2786 0.939 . S
C2800 C2799 1.397 . S
C2800 C2801 1.378 . S
C2801 C2800 1.378 . S
C2801 C2802 1.378 . S
C2802 H2787 0.940 . S
C2802 C2801 1.378 . S
C2802 C2803 1.396 . S
C2803 H2788 0.940 . S
C2803 C2798 1.391 . S
C2803 C2802 1.396 . S
C2804 P2784 1.803 . S
C2804 C2805 1.378 . S
C2804 C2809 1.400 . S
C2805 H2789 0.939 . S
C2805 C2804 1.378 . S
C2805 C2806 1.361 . S
C2806 H2790 0.942 . S
C2806 C2805 1.361 . S
C2806 C2807 1.369 . S
C2807 C2806 1.369 . S
C2807 C2808 1.404 . S
C2808 H2791 0.940 . S
C2808 C2807 1.404 . S
C2808 C2809 1.389 . S
C2809 H2792 0.939 . S
C2809 C2804 1.400 . S
C2809 C2808 1.389 . S
C2810 P2784 1.819 . S
C2810 C2811 1.391 . S
C2810 C2815 1.391 . S
C2811 H2793 0.941 . S
C2811 C2810 1.391 . S
C2811 C2812 1.396 . S
C2812 H2796 0.939 . S
C2812 C2811 1.396 . S
C2812 C2813 1.397 . S
C2813 C2812 1.397 . S
C2813 C2814 1.385 . S
C2814 H2797 0.940 . S
C2814 C2813 1.385 . S
C2814 C2815 1.388 . S
C2815 H2794 0.939 . S
C2815 C2810 1.391 . S
C2815 C2814 1.388 . S
P2816 O2827 1.490 . S
P2816 C2830 1.812 . S
P2816 C2836 1.803 . S
P2816 C2842 1.819 . S
H2817 C2831 0.941 . S
H2818 C2832 0.939 . S
H2819 C2834 0.940 . S
H2820 C2835 0.940 . S
H2821 C2837 0.939 . S
H2822 C2838 0.942 . S
H2823 C2840 0.940 . S
H2824 C2841 0.939 . S
H2825 C2843 0.941 . S
H2826 C2847 0.939 . S
O2827 P2816 1.490 . S
H2828 C2844 0.939 . S
H2829 C2846 0.940 . S
C2830 P2816 1.812 . S
C2830 C2831 1.389 . S
C2830 C2835 1.391 . S
C2831 H2817 0.941 . S
C2831 C2830 1.389 . S
C2831 C2832 1.397 . S
C2832 H2818 0.939 . S
C2832 C2831 1.397 . S
C2832 C2833 1.378 . S
C2833 C2832 1.378 . S
C2833 C2834 1.378 . S
C2834 H2819 0.940 . S
C2834 C2833 1.378 . S
C2834 C2835 1.396 . S
C2835 H2820 0.940 . S
C2835 C2830 1.391 . S
C2835 C2834 1.396 . S
C2836 P2816 1.803 . S
C2836 C2837 1.378 . S
C2836 C2841 1.400 . S
C2837 H2821 0.939 . S
C2837 C2836 1.378 . S
C2837 C2838 1.361 . S
C2838 H2822 0.942 . S
C2838 C2837 1.361 . S
C2838 C2839 1.369 . S
C2839 C2838 1.369 . S
C2839 C2840 1.404 . S
C2840 H2823 0.940 . S
C2840 C2839 1.404 . S
C2840 C2841 1.389 . S
C2841 H2824 0.939 . S
C2841 C2836 1.400 . S
C2841 C2840 1.389 . S
C2842 P2816 1.819 . S
C2842 C2843 1.391 . S
C2842 C2847 1.391 . S
C2843 H2825 0.941 . S
C2843 C2842 1.391 . S
C2843 C2844 1.396 . S
C2844 H2828 0.939 . S
C2844 C2843 1.396 . S
C2844 C2845 1.397 . S
C2845 C2844 1.397 . S
C2845 C2846 1.385 . S
C2846 H2829 0.940 . S
C2846 C2845 1.385 . S
C2846 C2847 1.388 . S
C2847 H2826 0.939 . S
C2847 C2842 1.391 . S
C2847 C2846 1.388 . S
P2848 O2859 1.490 . S
P2848 C2862 1.812 . S
P2848 C2868 1.803 . S
P2848 C2874 1.819 . S
H2849 C2863 0.941 . S
H2850 C2864 0.939 . S
H2851 C2866 0.940 . S
H2852 C2867 0.940 . S
H2853 C2869 0.939 . S
H2854 C2870 0.942 . S
H2855 C2872 0.940 . S
H2856 C2873 0.939 . S
H2857 C2875 0.941 . S
H2858 C2879 0.939 . S
O2859 P2848 1.490 . S
H2860 C2876 0.939 . S
H2861 C2878 0.940 . S
C2862 P2848 1.812 . S
C2862 C2863 1.389 . S
C2862 C2867 1.391 . S
C2863 H2849 0.941 . S
C2863 C2862 1.389 . S
C2863 C2864 1.397 . S
C2864 H2850 0.939 . S
C2864 C2863 1.397 . S
C2864 C2865 1.378 . S
C2865 C2864 1.378 . S
C2865 C2866 1.378 . S
C2866 H2851 0.940 . S
C2866 C2865 1.378 . S
C2866 C2867 1.396 . S
C2867 H2852 0.940 . S
C2867 C2862 1.391 . S
C2867 C2866 1.396 . S
C2868 P2848 1.803 . S
C2868 C2869 1.378 . S
C2868 C2873 1.400 . S
C2869 H2853 0.939 . S
C2869 C2868 1.378 . S
C2869 C2870 1.361 . S
C2870 H2854 0.942 . S
C2870 C2869 1.361 . S
C2870 C2871 1.369 . S
C2871 C2870 1.369 . S
C2871 C2872 1.404 . S
C2872 H2855 0.940 . S
C2872 C2871 1.404 . S
C2872 C2873 1.389 . S
C2873 H2856 0.939 . S
C2873 C2868 1.400 . S
C2873 C2872 1.389 . S
C2874 P2848 1.819 . S
C2874 C2875 1.391 . S
C2874 C2879 1.391 . S
C2875 H2857 0.941 . S
C2875 C2874 1.391 . S
C2875 C2876 1.396 . S
C2876 H2860 0.939 . S
C2876 C2875 1.396 . S
C2876 C2877 1.397 . S
C2877 C2876 1.397 . S
C2877 C2878 1.385 . S
C2878 H2861 0.940 . S
C2878 C2877 1.385 . S
C2878 C2879 1.388 . S
C2879 H2858 0.939 . S
C2879 C2874 1.391 . S
C2879 C2878 1.388 . S
P2880 O2891 1.490 . S
P2880 C2894 1.812 . S
P2880 C2900 1.803 . S
P2880 C2906 1.819 . S
H2881 C2895 0.941 . S
H2882 C2896 0.939 . S
H2883 C2898 0.940 . S
H2884 C2899 0.940 . S
H2885 C2901 0.939 . S
H2886 C2902 0.942 . S
H2887 C2904 0.940 . S
H2888 C2905 0.939 . S
H2889 C2907 0.941 . S
H2890 C2911 0.939 . S
O2891 P2880 1.490 . S
H2892 C2908 0.939 . S
H2893 C2910 0.940 . S
C2894 P2880 1.812 . S
C2894 C2895 1.389 . S
C2894 C2899 1.391 . S
C2895 H2881 0.941 . S
C2895 C2894 1.389 . S
C2895 C2896 1.397 . S
C2896 H2882 0.939 . S
C2896 C2895 1.397 . S
C2896 C2897 1.378 . S
C2897 C2896 1.378 . S
C2897 C2898 1.378 . S
C2898 H2883 0.940 . S
C2898 C2897 1.378 . S
C2898 C2899 1.396 . S
C2899 H2884 0.940 . S
C2899 C2894 1.391 . S
C2899 C2898 1.396 . S
C2900 P2880 1.803 . S
C2900 C2901 1.378 . S
C2900 C2905 1.400 . S
C2901 H2885 0.939 . S
C2901 C2900 1.378 . S
C2901 C2902 1.361 . S
C2902 H2886 0.942 . S
C2902 C2901 1.361 . S
C2902 C2903 1.369 . S
C2903 C2902 1.369 . S
C2903 C2904 1.404 . S
C2904 H2887 0.940 . S
C2904 C2903 1.404 . S
C2904 C2905 1.389 . S
C2905 H2888 0.939 . S
C2905 C2900 1.400 . S
C2905 C2904 1.389 . S
C2906 P2880 1.819 . S
C2906 C2907 1.391 . S
C2906 C2911 1.391 . S
C2907 H2889 0.941 . S
C2907 C2906 1.391 . S
C2907 C2908 1.396 . S
C2908 H2892 0.939 . S
C2908 C2907 1.396 . S
C2908 C2909 1.397 . S
C2909 C2908 1.397 . S
C2909 C2910 1.385 . S
C2910 H2893 0.940 . S
C2910 C2909 1.385 . S
C2910 C2911 1.388 . S
C2911 H2890 0.939 . S
C2911 C2906 1.391 . S
C2911 C2910 1.388 . S
P2912 O2923 1.490 . S
P2912 C2926 1.812 . S
P2912 C2932 1.803 . S
P2912 C2938 1.819 . S
H2913 C2927 0.941 . S
H2914 C2928 0.939 . S
H2915 C2930 0.940 . S
H2916 C2931 0.940 . S
H2917 C2933 0.939 . S
H2918 C2934 0.942 . S
H2919 C2936 0.940 . S
H2920 C2937 0.939 . S
H2921 C2939 0.941 . S
H2922 C2943 0.939 . S
O2923 P2912 1.490 . S
H2924 C2940 0.939 . S
H2925 C2942 0.940 . S
C2926 P2912 1.812 . S
C2926 C2927 1.389 . S
C2926 C2931 1.391 . S
C2927 H2913 0.941 . S
C2927 C2926 1.389 . S
C2927 C2928 1.397 . S
C2928 H2914 0.939 . S
C2928 C2927 1.397 . S
C2928 C2929 1.378 . S
C2929 C2928 1.378 . S
C2929 C2930 1.378 . S
C2930 H2915 0.940 . S
C2930 C2929 1.378 . S
C2930 C2931 1.396 . S
C2931 H2916 0.940 . S
C2931 C2926 1.391 . S
C2931 C2930 1.396 . S
C2932 P2912 1.803 . S
C2932 C2933 1.378 . S
C2932 C2937 1.400 . S
C2933 H2917 0.939 . S
C2933 C2932 1.378 . S
C2933 C2934 1.361 . S
C2934 H2918 0.942 . S
C2934 C2933 1.361 . S
C2934 C2935 1.369 . S
C2935 C2934 1.369 . S
C2935 C2936 1.404 . S
C2936 H2919 0.940 . S
C2936 C2935 1.404 . S
C2936 C2937 1.389 . S
C2937 H2920 0.939 . S
C2937 C2932 1.400 . S
C2937 C2936 1.389 . S
C2938 P2912 1.819 . S
C2938 C2939 1.391 . S
C2938 C2943 1.391 . S
C2939 H2921 0.941 . S
C2939 C2938 1.391 . S
C2939 C2940 1.396 . S
C2940 H2924 0.939 . S
C2940 C2939 1.396 . S
C2940 C2941 1.397 . S
C2941 C2940 1.397 . S
C2941 C2942 1.385 . S
C2942 H2925 0.940 . S
C2942 C2941 1.385 . S
C2942 C2943 1.388 . S
C2943 H2922 0.939 . S
C2943 C2938 1.391 . S
C2943 C2942 1.388 . S
P2944 O2955 1.490 . S
P2944 C2958 1.812 . S
P2944 C2964 1.803 . S
P2944 C2970 1.819 . S
H2945 C2959 0.941 . S
H2946 C2960 0.939 . S
H2947 C2962 0.940 . S
H2948 C2963 0.940 . S
H2949 C2965 0.939 . S
H2950 C2966 0.942 . S
H2951 C2968 0.940 . S
H2952 C2969 0.939 . S
H2953 C2971 0.941 . S
H2954 C2975 0.939 . S
O2955 P2944 1.490 . S
H2956 C2972 0.939 . S
H2957 C2974 0.940 . S
C2958 P2944 1.812 . S
C2958 C2959 1.389 . S
C2958 C2963 1.391 . S
C2959 H2945 0.941 . S
C2959 C2958 1.389 . S
C2959 C2960 1.397 . S
C2960 H2946 0.939 . S
C2960 C2959 1.397 . S
C2960 C2961 1.378 . S
C2961 C2960 1.378 . S
C2961 C2962 1.378 . S
C2962 H2947 0.940 . S
C2962 C2961 1.378 . S
C2962 C2963 1.396 . S
C2963 H2948 0.940 . S
C2963 C2958 1.391 . S
C2963 C2962 1.396 . S
C2964 P2944 1.803 . S
C2964 C2965 1.378 . S
C2964 C2969 1.400 . S
C2965 H2949 0.939 . S
C2965 C2964 1.378 . S
C2965 C2966 1.361 . S
C2966 H2950 0.942 . S
C2966 C2965 1.361 . S
C2966 C2967 1.369 . S
C2967 C2966 1.369 . S
C2967 C2968 1.404 . S
C2968 H2951 0.940 . S
C2968 C2967 1.404 . S
C2968 C2969 1.389 . S
C2969 H2952 0.939 . S
C2969 C2964 1.400 . S
C2969 C2968 1.389 . S
C2970 P2944 1.819 . S
C2970 C2971 1.391 . S
C2970 C2975 1.391 . S
C2971 H2953 0.941 . S
C2971 C2970 1.391 . S
C2971 C2972 1.396 . S
C2972 H2956 0.939 . S
C2972 C2971 1.396 . S
C2972 C2973 1.397 . S
C2973 C2972 1.397 . S
C2973 C2974 1.385 . S
C2974 H2957 0.940 . S
C2974 C2973 1.385 . S
C2974 C2975 1.388 . S
C2975 H2954 0.939 . S
C2975 C2970 1.391 . S
C2975 C2974 1.388 . S
P2976 O2987 1.490 . S
P2976 C2990 1.812 . S
P2976 C2996 1.803 . S
P2976 C3002 1.819 . S
H2977 C2991 0.941 . S
H2978 C2992 0.939 . S
H2979 C2994 0.940 . S
H2980 C2995 0.940 . S
H2981 C2997 0.939 . S
H2982 C2998 0.942 . S
H2983 C3000 0.940 . S
H2984 C3001 0.939 . S
H2985 C3003 0.941 . S
H2986 C3007 0.939 . S
O2987 P2976 1.490 . S
H2988 C3004 0.939 . S
H2989 C3006 0.940 . S
C2990 P2976 1.812 . S
C2990 C2991 1.389 . S
C2990 C2995 1.391 . S
C2991 H2977 0.941 . S
C2991 C2990 1.389 . S
C2991 C2992 1.397 . S
C2992 H2978 0.939 . S
C2992 C2991 1.397 . S
C2992 C2993 1.378 . S
C2993 C2992 1.378 . S
C2993 C2994 1.378 . S
C2994 H2979 0.940 . S
C2994 C2993 1.378 . S
C2994 C2995 1.396 . S
C2995 H2980 0.940 . S
C2995 C2990 1.391 . S
C2995 C2994 1.396 . S
C2996 P2976 1.803 . S
C2996 C2997 1.378 . S
C2996 C3001 1.400 . S
C2997 H2981 0.939 . S
C2997 C2996 1.378 . S
C2997 C2998 1.361 . S
C2998 H2982 0.942 . S
C2998 C2997 1.361 . S
C2998 C2999 1.369 . S
C2999 C2998 1.369 . S
C2999 C3000 1.404 . S
C3000 H2983 0.940 . S
C3000 C2999 1.404 . S
C3000 C3001 1.389 . S
C3001 H2984 0.939 . S
C3001 C2996 1.400 . S
C3001 C3000 1.389 . S
C3002 P2976 1.819 . S
C3002 C3003 1.391 . S
C3002 C3007 1.391 . S
C3003 H2985 0.941 . S
C3003 C3002 1.391 . S
C3003 C3004 1.396 . S
C3004 H2988 0.939 . S
C3004 C3003 1.396 . S
C3004 C3005 1.397 . S
C3005 C3004 1.397 . S
C3005 C3006 1.385 . S
C3006 H2989 0.940 . S
C3006 C3005 1.385 . S
C3006 C3007 1.388 . S
C3007 H2986 0.939 . S
C3007 C3002 1.391 . S
C3007 C3006 1.388 . S
P3008 O3019 1.490 . S
P3008 C3022 1.812 . S
P3008 C3028 1.803 . S
P3008 C3034 1.819 . S
H3009 C3023 0.941 . S
H3010 C3024 0.939 . S
H3011 C3026 0.940 . S
H3012 C3027 0.940 . S
H3013 C3029 0.939 . S
H3014 C3030 0.942 . S
H3015 C3032 0.940 . S
H3016 C3033 0.939 . S
H3017 C3035 0.941 . S
H3018 C3039 0.939 . S
O3019 P3008 1.490 . S
H3020 C3036 0.939 . S
H3021 C3038 0.940 . S
C3022 P3008 1.812 . S
C3022 C3023 1.389 . S
C3022 C3027 1.391 . S
C3023 H3009 0.941 . S
C3023 C3022 1.389 . S
C3023 C3024 1.397 . S
C3024 H3010 0.939 . S
C3024 C3023 1.397 . S
C3024 C3025 1.378 . S
C3025 C3024 1.378 . S
C3025 C3026 1.378 . S
C3026 H3011 0.940 . S
C3026 C3025 1.378 . S
C3026 C3027 1.396 . S
C3027 H3012 0.940 . S
C3027 C3022 1.391 . S
C3027 C3026 1.396 . S
C3028 P3008 1.803 . S
C3028 C3029 1.378 . S
C3028 C3033 1.400 . S
C3029 H3013 0.939 . S
C3029 C3028 1.378 . S
C3029 C3030 1.361 . S
C3030 H3014 0.942 . S
C3030 C3029 1.361 . S
C3030 C3031 1.369 . S
C3031 C3030 1.369 . S
C3031 C3032 1.404 . S
C3032 H3015 0.940 . S
C3032 C3031 1.404 . S
C3032 C3033 1.389 . S
C3033 H3016 0.939 . S
C3033 C3028 1.400 . S
C3033 C3032 1.389 . S
C3034 P3008 1.819 . S
C3034 C3035 1.391 . S
C3034 C3039 1.391 . S
C3035 H3017 0.941 . S
C3035 C3034 1.391 . S
C3035 C3036 1.396 . S
C3036 H3020 0.939 . S
C3036 C3035 1.396 . S
C3036 C3037 1.397 . S
C3037 C3036 1.397 . S
C3037 C3038 1.385 . S
C3038 H3021 0.940 . S
C3038 C3037 1.385 . S
C3038 C3039 1.388 . S
C3039 H3018 0.939 . S
C3039 C3034 1.391 . S
C3039 C3038 1.388 . S
P3040 O3051 1.490 . S
P3040 C3054 1.812 . S
P3040 C3060 1.803 . S
P3040 C3066 1.819 . S
H3041 C3055 0.941 . S
H3042 C3056 0.939 . S
H3043 C3058 0.940 . S
H3044 C3059 0.940 . S
H3045 C3061 0.939 . S
H3046 C3062 0.942 . S
H3047 C3064 0.940 . S
H3048 C3065 0.939 . S
H3049 C3067 0.941 . S
H3050 C3071 0.939 . S
O3051 P3040 1.490 . S
H3052 C3068 0.939 . S
H3053 C3070 0.940 . S
C3054 P3040 1.812 . S
C3054 C3055 1.389 . S
C3054 C3059 1.391 . S
C3055 H3041 0.941 . S
C3055 C3054 1.389 . S
C3055 C3056 1.397 . S
C3056 H3042 0.939 . S
C3056 C3055 1.397 . S
C3056 C3057 1.378 . S
C3057 C3056 1.378 . S
C3057 C3058 1.378 . S
C3058 H3043 0.940 . S
C3058 C3057 1.378 . S
C3058 C3059 1.396 . S
C3059 H3044 0.940 . S
C3059 C3054 1.391 . S
C3059 C3058 1.396 . S
C3060 P3040 1.803 . S
C3060 C3061 1.378 . S
C3060 C3065 1.400 . S
C3061 H3045 0.939 . S
C3061 C3060 1.378 . S
C3061 C3062 1.361 . S
C3062 H3046 0.942 . S
C3062 C3061 1.361 . S
C3062 C3063 1.369 . S
C3063 C3062 1.369 . S
C3063 C3064 1.404 . S
C3064 H3047 0.940 . S
C3064 C3063 1.404 . S
C3064 C3065 1.389 . S
C3065 H3048 0.939 . S
C3065 C3060 1.400 . S
C3065 C3064 1.389 . S
C3066 P3040 1.819 . S
C3066 C3067 1.391 . S
C3066 C3071 1.391 . S
C3067 H3049 0.941 . S
C3067 C3066 1.391 . S
C3067 C3068 1.396 . S
C3068 H3052 0.939 . S
C3068 C3067 1.396 . S
C3068 C3069 1.397 . S
C3069 C3068 1.397 . S
C3069 C3070 1.385 . S
C3070 H3053 0.940 . S
C3070 C3069 1.385 . S
C3070 C3071 1.388 . S
C3071 H3050 0.939 . S
C3071 C3066 1.391 . S
C3071 C3070 1.388 . S
P3072 O3083 1.490 . S
P3072 C3086 1.812 . S
P3072 C3092 1.803 . S
P3072 C3098 1.819 . S
H3073 C3087 0.941 . S
H3074 C3088 0.939 . S
H3075 C3090 0.940 . S
H3076 C3091 0.940 . S
H3077 C3093 0.939 . S
H3078 C3094 0.942 . S
H3079 C3096 0.940 . S
H3080 C3097 0.939 . S
H3081 C3099 0.941 . S
H3082 C3103 0.939 . S
O3083 P3072 1.490 . S
H3084 C3100 0.939 . S
H3085 C3102 0.940 . S
C3086 P3072 1.812 . S
C3086 C3087 1.389 . S
C3086 C3091 1.391 . S
C3087 H3073 0.941 . S
C3087 C3086 1.389 . S
C3087 C3088 1.397 . S
C3088 H3074 0.939 . S
C3088 C3087 1.397 . S
C3088 C3089 1.378 . S
C3089 C3088 1.378 . S
C3089 C3090 1.378 . S
C3090 H3075 0.940 . S
C3090 C3089 1.378 . S
C3090 C3091 1.396 . S
C3091 H3076 0.940 . S
C3091 C3086 1.391 . S
C3091 C3090 1.396 . S
C3092 P3072 1.803 . S
C3092 C3093 1.378 . S
C3092 C3097 1.400 . S
C3093 H3077 0.939 . S
C3093 C3092 1.378 . S
C3093 C3094 1.361 . S
C3094 H3078 0.942 . S
C3094 C3093 1.361 . S
C3094 C3095 1.369 . S
C3095 C3094 1.369 . S
C3095 C3096 1.404 . S
C3096 H3079 0.940 . S
C3096 C3095 1.404 . S
C3096 C3097 1.389 . S
C3097 H3080 0.939 . S
C3097 C3092 1.400 . S
C3097 C3096 1.389 . S
C3098 P3072 1.819 . S
C3098 C3099 1.391 . S
C3098 C3103 1.391 . S
C3099 H3081 0.941 . S
C3099 C3098 1.391 . S
C3099 C3100 1.396 . S
C3100 H3084 0.939 . S
C3100 C3099 1.396 . S
C3100 C3101 1.397 . S
C3101 C3100 1.397 . S
C3101 C3102 1.385 . S
C3102 H3085 0.940 . S
C3102 C3101 1.385 . S
C3102 C3103 1.388 . S
C3103 H3082 0.939 . S
C3103 C3098 1.391 . S
C3103 C3102 1.388 . S
P3104 O3115 1.490 . S
P3104 C3118 1.812 . S
P3104 C3124 1.803 . S
P3104 C3130 1.819 . S
H3105 C3119 0.941 . S
H3106 C3120 0.939 . S
H3107 C3122 0.940 . S
H3108 C3123 0.940 . S
H3109 C3125 0.939 . S
H3110 C3126 0.942 . S
H3111 C3128 0.940 . S
H3112 C3129 0.939 . S
H3113 C3131 0.941 . S
H3114 C3135 0.939 . S
O3115 P3104 1.490 . S
H3116 C3132 0.939 . S
H3117 C3134 0.940 . S
C3118 P3104 1.812 . S
C3118 C3119 1.389 . S
C3118 C3123 1.391 . S
C3119 H3105 0.941 . S
C3119 C3118 1.389 . S
C3119 C3120 1.397 . S
C3120 H3106 0.939 . S
C3120 C3119 1.397 . S
C3120 C3121 1.378 . S
C3121 C3120 1.378 . S
C3121 C3122 1.378 . S
C3122 H3107 0.940 . S
C3122 C3121 1.378 . S
C3122 C3123 1.396 . S
C3123 H3108 0.940 . S
C3123 C3118 1.391 . S
C3123 C3122 1.396 . S
C3124 P3104 1.803 . S
C3124 C3125 1.378 . S
C3124 C3129 1.400 . S
C3125 H3109 0.939 . S
C3125 C3124 1.378 . S
C3125 C3126 1.361 . S
C3126 H3110 0.942 . S
C3126 C3125 1.361 . S
C3126 C3127 1.369 . S
C3127 C3126 1.369 . S
C3127 C3128 1.404 . S
C3128 H3111 0.940 . S
C3128 C3127 1.404 . S
C3128 C3129 1.389 . S
C3129 H3112 0.939 . S
C3129 C3124 1.400 . S
C3129 C3128 1.389 . S
C3130 P3104 1.819 . S
C3130 C3131 1.391 . S
C3130 C3135 1.391 . S
C3131 H3113 0.941 . S
C3131 C3130 1.391 . S
C3131 C3132 1.396 . S
C3132 H3116 0.939 . S
C3132 C3131 1.396 . S
C3132 C3133 1.397 . S
C3133 C3132 1.397 . S
C3133 C3134 1.385 . S
C3134 H3117 0.940 . S
C3134 C3133 1.385 . S
C3134 C3135 1.388 . S
C3135 H3114 0.939 . S
C3135 C3130 1.391 . S
C3135 C3134 1.388 . S
P3136 O3147 1.490 . S
P3136 C3150 1.812 . S
P3136 C3156 1.803 . S
P3136 C3162 1.819 . S
H3137 C3151 0.941 . S
H3138 C3152 0.939 . S
H3139 C3154 0.940 . S
H3140 C3155 0.940 . S
H3141 C3157 0.939 . S
H3142 C3158 0.942 . S
H3143 C3160 0.940 . S
H3144 C3161 0.939 . S
H3145 C3163 0.941 . S
H3146 C3167 0.939 . S
O3147 P3136 1.490 . S
H3148 C3164 0.939 . S
H3149 C3166 0.940 . S
C3150 P3136 1.812 . S
C3150 C3151 1.389 . S
C3150 C3155 1.391 . S
C3151 H3137 0.941 . S
C3151 C3150 1.389 . S
C3151 C3152 1.397 . S
C3152 H3138 0.939 . S
C3152 C3151 1.397 . S
C3152 C3153 1.378 . S
C3153 C3152 1.378 . S
C3153 C3154 1.378 . S
C3154 H3139 0.940 . S
C3154 C3153 1.378 . S
C3154 C3155 1.396 . S
C3155 H3140 0.940 . S
C3155 C3150 1.391 . S
C3155 C3154 1.396 . S
C3156 P3136 1.803 . S
C3156 C3157 1.378 . S
C3156 C3161 1.400 . S
C3157 H3141 0.939 . S
C3157 C3156 1.378 . S
C3157 C3158 1.361 . S
C3158 H3142 0.942 . S
C3158 C3157 1.361 . S
C3158 C3159 1.369 . S
C3159 C3158 1.369 . S
C3159 C3160 1.404 . S
C3160 H3143 0.940 . S
C3160 C3159 1.404 . S
C3160 C3161 1.389 . S
C3161 H3144 0.939 . S
C3161 C3156 1.400 . S
C3161 C3160 1.389 . S
C3162 P3136 1.819 . S
C3162 C3163 1.391 . S
C3162 C3167 1.391 . S
C3163 H3145 0.941 . S
C3163 C3162 1.391 . S
C3163 C3164 1.396 . S
C3164 H3148 0.939 . S
C3164 C3163 1.396 . S
C3164 C3165 1.397 . S
C3165 C3164 1.397 . S
C3165 C3166 1.385 . S
C3166 H3149 0.940 . S
C3166 C3165 1.385 . S
C3166 C3167 1.388 . S
C3167 H3146 0.939 . S
C3167 C3162 1.391 . S
C3167 C3166 1.388 . S
P3168 O3179 1.490 . S
P3168 C3182 1.812 . S
P3168 C3188 1.803 . S
P3168 C3194 1.819 . S
H3169 C3183 0.941 . S
H3170 C3184 0.939 . S
H3171 C3186 0.940 . S
H3172 C3187 0.940 . S
H3173 C3189 0.939 . S
H3174 C3190 0.942 . S
H3175 C3192 0.940 . S
H3176 C3193 0.939 . S
H3177 C3195 0.941 . S
H3178 C3199 0.939 . S
O3179 P3168 1.490 . S
H3180 C3196 0.939 . S
H3181 C3198 0.940 . S
C3182 P3168 1.812 . S
C3182 C3183 1.389 . S
C3182 C3187 1.391 . S
C3183 H3169 0.941 . S
C3183 C3182 1.389 . S
C3183 C3184 1.397 . S
C3184 H3170 0.939 . S
C3184 C3183 1.397 . S
C3184 C3185 1.378 . S
C3185 C3184 1.378 . S
C3185 C3186 1.378 . S
C3186 H3171 0.940 . S
C3186 C3185 1.378 . S
C3186 C3187 1.396 . S
C3187 H3172 0.940 . S
C3187 C3182 1.391 . S
C3187 C3186 1.396 . S
C3188 P3168 1.803 . S
C3188 C3189 1.378 . S
C3188 C3193 1.400 . S
C3189 H3173 0.939 . S
C3189 C3188 1.378 . S
C3189 C3190 1.361 . S
C3190 H3174 0.942 . S
C3190 C3189 1.361 . S
C3190 C3191 1.369 . S
C3191 C3190 1.369 . S
C3191 C3192 1.404 . S
C3192 H3175 0.940 . S
C3192 C3191 1.404 . S
C3192 C3193 1.389 . S
C3193 H3176 0.939 . S
C3193 C3188 1.400 . S
C3193 C3192 1.389 . S
C3194 P3168 1.819 . S
C3194 C3195 1.391 . S
C3194 C3199 1.391 . S
C3195 H3177 0.941 . S
C3195 C3194 1.391 . S
C3195 C3196 1.396 . S
C3196 H3180 0.939 . S
C3196 C3195 1.396 . S
C3196 C3197 1.397 . S
C3197 C3196 1.397 . S
C3197 C3198 1.385 . S
C3198 H3181 0.940 . S
C3198 C3197 1.385 . S
C3198 C3199 1.388 . S
C3199 H3178 0.939 . S
C3199 C3194 1.391 . S
C3199 C3198 1.388 . S
P3200 O3211 1.490 . S
P3200 C3214 1.812 . S
P3200 C3220 1.803 . S
P3200 C3226 1.819 . S
H3201 C3215 0.941 . S
H3202 C3216 0.939 . S
H3203 C3218 0.940 . S
H3204 C3219 0.940 . S
H3205 C3221 0.939 . S
H3206 C3222 0.942 . S
H3207 C3224 0.940 . S
H3208 C3225 0.939 . S
H3209 C3227 0.941 . S
H3210 C3231 0.939 . S
O3211 P3200 1.490 . S
H3212 C3228 0.939 . S
H3213 C3230 0.940 . S
C3214 P3200 1.812 . S
C3214 C3215 1.389 . S
C3214 C3219 1.391 . S
C3215 H3201 0.941 . S
C3215 C3214 1.389 . S
C3215 C3216 1.397 . S
C3216 H3202 0.939 . S
C3216 C3215 1.397 . S
C3216 C3217 1.378 . S
C3217 C3216 1.378 . S
C3217 C3218 1.378 . S
C3218 H3203 0.940 . S
C3218 C3217 1.378 . S
C3218 C3219 1.396 . S
C3219 H3204 0.940 . S
C3219 C3214 1.391 . S
C3219 C3218 1.396 . S
C3220 P3200 1.803 . S
C3220 C3221 1.378 . S
C3220 C3225 1.400 . S
C3221 H3205 0.939 . S
C3221 C3220 1.378 . S
C3221 C3222 1.361 . S
C3222 H3206 0.942 . S
C3222 C3221 1.361 . S
C3222 C3223 1.369 . S
C3223 C3222 1.369 . S
C3223 C3224 1.404 . S
C3224 H3207 0.940 . S
C3224 C3223 1.404 . S
C3224 C3225 1.389 . S
C3225 H3208 0.939 . S
C3225 C3220 1.400 . S
C3225 C3224 1.389 . S
C3226 P3200 1.819 . S
C3226 C3227 1.391 . S
C3226 C3231 1.391 . S
C3227 H3209 0.941 . S
C3227 C3226 1.391 . S
C3227 C3228 1.396 . S
C3228 H3212 0.939 . S
C3228 C3227 1.396 . S
C3228 C3229 1.397 . S
C3229 C3228 1.397 . S
C3229 C3230 1.385 . S
C3230 H3213 0.940 . S
C3230 C3229 1.385 . S
C3230 C3231 1.388 . S
C3231 H3210 0.939 . S
C3231 C3226 1.391 . S
C3231 C3230 1.388 . S
P3232 O3243 1.490 . S
P3232 C3246 1.812 . S
P3232 C3252 1.803 . S
P3232 C3258 1.819 . S
H3233 C3247 0.941 . S
H3234 C3248 0.939 . S
H3235 C3250 0.940 . S
H3236 C3251 0.940 . S
H3237 C3253 0.939 . S
H3238 C3254 0.942 . S
H3239 C3256 0.940 . S
H3240 C3257 0.939 . S
H3241 C3259 0.941 . S
H3242 C3263 0.939 . S
O3243 P3232 1.490 . S
H3244 C3260 0.939 . S
H3245 C3262 0.940 . S
C3246 P3232 1.812 . S
C3246 C3247 1.389 . S
C3246 C3251 1.391 . S
C3247 H3233 0.941 . S
C3247 C3246 1.389 . S
C3247 C3248 1.397 . S
C3248 H3234 0.939 . S
C3248 C3247 1.397 . S
C3248 C3249 1.378 . S
C3249 C3248 1.378 . S
C3249 C3250 1.378 . S
C3250 H3235 0.940 . S
C3250 C3249 1.378 . S
C3250 C3251 1.396 . S
C3251 H3236 0.940 . S
C3251 C3246 1.391 . S
C3251 C3250 1.396 . S
C3252 P3232 1.803 . S
C3252 C3253 1.378 . S
C3252 C3257 1.400 . S
C3253 H3237 0.939 . S
C3253 C3252 1.378 . S
C3253 C3254 1.361 . S
C3254 H3238 0.942 . S
C3254 C3253 1.361 . S
C3254 C3255 1.369 . S
C3255 C3254 1.369 . S
C3255 C3256 1.404 . S
C3256 H3239 0.940 . S
C3256 C3255 1.404 . S
C3256 C3257 1.389 . S
C3257 H3240 0.939 . S
C3257 C3252 1.400 . S
C3257 C3256 1.389 . S
C3258 P3232 1.819 . S
C3258 C3259 1.391 . S
C3258 C3263 1.391 . S
C3259 H3241 0.941 . S
C3259 C3258 1.391 . S
C3259 C3260 1.396 . S
C3260 H3244 0.939 . S
C3260 C3259 1.396 . S
C3260 C3261 1.397 . S
C3261 C3260 1.397 . S
C3261 C3262 1.385 . S
C3262 H3245 0.940 . S
C3262 C3261 1.385 . S
C3262 C3263 1.388 . S
C3263 H3242 0.939 . S
C3263 C3258 1.391 . S
C3263 C3262 1.388 . S
P3264 O3275 1.490 . S
P3264 C3278 1.812 . S
P3264 C3284 1.803 . S
P3264 C3290 1.819 . S
H3265 C3279 0.941 . S
H3266 C3280 0.939 . S
H3267 C3282 0.940 . S
H3268 C3283 0.940 . S
H3269 C3285 0.939 . S
H3270 C3286 0.942 . S
H3271 C3288 0.940 . S
H3272 C3289 0.939 . S
H3273 C3291 0.941 . S
H3274 C3295 0.939 . S
O3275 P3264 1.490 . S
H3276 C3292 0.939 . S
H3277 C3294 0.940 . S
C3278 P3264 1.812 . S
C3278 C3279 1.389 . S
C3278 C3283 1.391 . S
C3279 H3265 0.941 . S
C3279 C3278 1.389 . S
C3279 C3280 1.397 . S
C3280 H3266 0.939 . S
C3280 C3279 1.397 . S
C3280 C3281 1.378 . S
C3281 C3280 1.378 . S
C3281 C3282 1.378 . S
C3282 H3267 0.940 . S
C3282 C3281 1.378 . S
C3282 C3283 1.396 . S
C3283 H3268 0.940 . S
C3283 C3278 1.391 . S
C3283 C3282 1.396 . S
C3284 P3264 1.803 . S
C3284 C3285 1.378 . S
C3284 C3289 1.400 . S
C3285 H3269 0.939 . S
C3285 C3284 1.378 . S
C3285 C3286 1.361 . S
C3286 H3270 0.942 . S
C3286 C3285 1.361 . S
C3286 C3287 1.369 . S
C3287 C3286 1.369 . S
C3287 C3288 1.404 . S
C3288 H3271 0.940 . S
C3288 C3287 1.404 . S
C3288 C3289 1.389 . S
C3289 H3272 0.939 . S
C3289 C3284 1.400 . S
C3289 C3288 1.389 . S
C3290 P3264 1.819 . S
C3290 C3291 1.391 . S
C3290 C3295 1.391 . S
C3291 H3273 0.941 . S
C3291 C3290 1.391 . S
C3291 C3292 1.396 . S
C3292 H3276 0.939 . S
C3292 C3291 1.396 . S
C3292 C3293 1.397 . S
C3293 C3292 1.397 . S
C3293 C3294 1.385 . S
C3294 H3277 0.940 . S
C3294 C3293 1.385 . S
C3294 C3295 1.388 . S
C3295 H3274 0.939 . S
C3295 C3290 1.391 . S
C3295 C3294 1.388 . S
P3296 O3307 1.490 . S
P3296 C3310 1.812 . S
P3296 C3316 1.803 . S
P3296 C3322 1.819 . S
H3297 C3311 0.941 . S
H3298 C3312 0.939 . S
H3299 C3314 0.940 . S
H3300 C3315 0.940 . S
H3301 C3317 0.939 . S
H3302 C3318 0.942 . S
H3303 C3320 0.940 . S
H3304 C3321 0.939 . S
H3305 C3323 0.941 . S
H3306 C3327 0.939 . S
O3307 P3296 1.490 . S
H3308 C3324 0.939 . S
H3309 C3326 0.940 . S
C3310 P3296 1.812 . S
C3310 C3311 1.389 . S
C3310 C3315 1.391 . S
C3311 H3297 0.941 . S
C3311 C3310 1.389 . S
C3311 C3312 1.397 . S
C3312 H3298 0.939 . S
C3312 C3311 1.397 . S
C3312 C3313 1.378 . S
C3313 C3312 1.378 . S
C3313 C3314 1.378 . S
C3314 H3299 0.940 . S
C3314 C3313 1.378 . S
C3314 C3315 1.396 . S
C3315 H3300 0.940 . S
C3315 C3310 1.391 . S
C3315 C3314 1.396 . S
C3316 P3296 1.803 . S
C3316 C3317 1.378 . S
C3316 C3321 1.400 . S
C3317 H3301 0.939 . S
C3317 C3316 1.378 . S
C3317 C3318 1.361 . S
C3318 H3302 0.942 . S
C3318 C3317 1.361 . S
C3318 C3319 1.369 . S
C3319 C3318 1.369 . S
C3319 C3320 1.404 . S
C3320 H3303 0.940 . S
C3320 C3319 1.404 . S
C3320 C3321 1.389 . S
C3321 H3304 0.939 . S
C3321 C3316 1.400 . S
C3321 C3320 1.389 . S
C3322 P3296 1.819 . S
C3322 C3323 1.391 . S
C3322 C3327 1.391 . S
C3323 H3305 0.941 . S
C3323 C3322 1.391 . S
C3323 C3324 1.396 . S
C3324 H3308 0.939 . S
C3324 C3323 1.396 . S
C3324 C3325 1.397 . S
C3325 C3324 1.397 . S
C3325 C3326 1.385 . S
C3326 H3309 0.940 . S
C3326 C3325 1.385 . S
C3326 C3327 1.388 . S
C3327 H3306 0.939 . S
C3327 C3322 1.391 . S
C3327 C3326 1.388 . S
P3328 O3339 1.490 . S
P3328 C3342 1.812 . S
P3328 C3348 1.803 . S
P3328 C3354 1.819 . S
H3329 C3343 0.941 . S
H3330 C3344 0.939 . S
H3331 C3346 0.940 . S
H3332 C3347 0.940 . S
H3333 C3349 0.939 . S
H3334 C3350 0.942 . S
H3335 C3352 0.940 . S
H3336 C3353 0.939 . S
H3337 C3355 0.941 . S
H3338 C3359 0.939 . S
O3339 P3328 1.490 . S
H3340 C3356 0.939 . S
H3341 C3358 0.940 . S
C3342 P3328 1.812 . S
C3342 C3343 1.389 . S
C3342 C3347 1.391 . S
C3343 H3329 0.941 . S
C3343 C3342 1.389 . S
C3343 C3344 1.397 . S
C3344 H3330 0.939 . S
C3344 C3343 1.397 . S
C3344 C3345 1.378 . S
C3345 C3344 1.378 . S
C3345 C3346 1.378 . S
C3346 H3331 0.940 . S
C3346 C3345 1.378 . S
C3346 C3347 1.396 . S
C3347 H3332 0.940 . S
C3347 C3342 1.391 . S
C3347 C3346 1.396 . S
C3348 P3328 1.803 . S
C3348 C3349 1.378 . S
C3348 C3353 1.400 . S
C3349 H3333 0.939 . S
C3349 C3348 1.378 . S
C3349 C3350 1.361 . S
C3350 H3334 0.942 . S
C3350 C3349 1.361 . S
C3350 C3351 1.369 . S
C3351 C3350 1.369 . S
C3351 C3352 1.404 . S
C3352 H3335 0.940 . S
C3352 C3351 1.404 . S
C3352 C3353 1.389 . S
C3353 H3336 0.939 . S
C3353 C3348 1.400 . S
C3353 C3352 1.389 . S
C3354 P3328 1.819 . S
C3354 C3355 1.391 . S
C3354 C3359 1.391 . S
C3355 H3337 0.941 . S
C3355 C3354 1.391 . S
C3355 C3356 1.396 . S
C3356 H3340 0.939 . S
C3356 C3355 1.396 . S
C3356 C3357 1.397 . S
C3357 C3356 1.397 . S
C3357 C3358 1.385 . S
C3358 H3341 0.940 . S
C3358 C3357 1.385 . S
C3358 C3359 1.388 . S
C3359 H3338 0.939 . S
C3359 C3354 1.391 . S
C3359 C3358 1.388 . S
P3360 O3371 1.490 . S
P3360 C3374 1.812 . S
P3360 C3380 1.803 . S
P3360 C3386 1.819 . S
H3361 C3375 0.941 . S
H3362 C3376 0.939 . S
H3363 C3378 0.940 . S
H3364 C3379 0.940 . S
H3365 C3381 0.939 . S
H3366 C3382 0.942 . S
H3367 C3384 0.940 . S
H3368 C3385 0.939 . S
H3369 C3387 0.941 . S
H3370 C3391 0.939 . S
O3371 P3360 1.490 . S
H3372 C3388 0.939 . S
H3373 C3390 0.940 . S
C3374 P3360 1.812 . S
C3374 C3375 1.389 . S
C3374 C3379 1.391 . S
C3375 H3361 0.941 . S
C3375 C3374 1.389 . S
C3375 C3376 1.397 . S
C3376 H3362 0.939 . S
C3376 C3375 1.397 . S
C3376 C3377 1.378 . S
C3377 C3376 1.378 . S
C3377 C3378 1.378 . S
C3378 H3363 0.940 . S
C3378 C3377 1.378 . S
C3378 C3379 1.396 . S
C3379 H3364 0.940 . S
C3379 C3374 1.391 . S
C3379 C3378 1.396 . S
C3380 P3360 1.803 . S
C3380 C3381 1.378 . S
C3380 C3385 1.400 . S
C3381 H3365 0.939 . S
C3381 C3380 1.378 . S
C3381 C3382 1.361 . S
C3382 H3366 0.942 . S
C3382 C3381 1.361 . S
C3382 C3383 1.369 . S
C3383 C3382 1.369 . S
C3383 C3384 1.404 . S
C3384 H3367 0.940 . S
C3384 C3383 1.404 . S
C3384 C3385 1.389 . S
C3385 H3368 0.939 . S
C3385 C3380 1.400 . S
C3385 C3384 1.389 . S
C3386 P3360 1.819 . S
C3386 C3387 1.391 . S
C3386 C3391 1.391 . S
C3387 H3369 0.941 . S
C3387 C3386 1.391 . S
C3387 C3388 1.396 . S
C3388 H3372 0.939 . S
C3388 C3387 1.396 . S
C3388 C3389 1.397 . S
C3389 C3388 1.397 . S
C3389 C3390 1.385 . S
C3390 H3373 0.940 . S
C3390 C3389 1.385 . S
C3390 C3391 1.388 . S
C3391 H3370 0.939 . S
C3391 C3386 1.391 . S
C3391 C3390 1.388 . S
P3392 O3403 1.490 . S
P3392 C3406 1.812 . S
P3392 C3412 1.803 . S
P3392 C3418 1.819 . S
H3393 C3407 0.941 . S
H3394 C3408 0.939 . S
H3395 C3410 0.940 . S
H3396 C3411 0.940 . S
H3397 C3413 0.939 . S
H3398 C3414 0.942 . S
H3399 C3416 0.940 . S
H3400 C3417 0.939 . S
H3401 C3419 0.941 . S
H3402 C3423 0.939 . S
O3403 P3392 1.490 . S
H3404 C3420 0.939 . S
H3405 C3422 0.940 . S
C3406 P3392 1.812 . S
C3406 C3407 1.389 . S
C3406 C3411 1.391 . S
C3407 H3393 0.941 . S
C3407 C3406 1.389 . S
C3407 C3408 1.397 . S
C3408 H3394 0.939 . S
C3408 C3407 1.397 . S
C3408 C3409 1.378 . S
C3409 C3408 1.378 . S
C3409 C3410 1.378 . S
C3410 H3395 0.940 . S
C3410 C3409 1.378 . S
C3410 C3411 1.396 . S
C3411 H3396 0.940 . S
C3411 C3406 1.391 . S
C3411 C3410 1.396 . S
C3412 P3392 1.803 . S
C3412 C3413 1.378 . S
C3412 C3417 1.400 . S
C3413 H3397 0.939 . S
C3413 C3412 1.378 . S
C3413 C3414 1.361 . S
C3414 H3398 0.942 . S
C3414 C3413 1.361 . S
C3414 C3415 1.369 . S
C3415 C3414 1.369 . S
C3415 C3416 1.404 . S
C3416 H3399 0.940 . S
C3416 C3415 1.404 . S
C3416 C3417 1.389 . S
C3417 H3400 0.939 . S
C3417 C3412 1.400 . S
C3417 C3416 1.389 . S
C3418 P3392 1.819 . S
C3418 C3419 1.391 . S
C3418 C3423 1.391 . S
C3419 H3401 0.941 . S
C3419 C3418 1.391 . S
C3419 C3420 1.396 . S
C3420 H3404 0.939 . S
C3420 C3419 1.396 . S
C3420 C3421 1.397 . S
C3421 C3420 1.397 . S
C3421 C3422 1.385 . S
C3422 H3405 0.940 . S
C3422 C3421 1.385 . S
C3422 C3423 1.388 . S
C3423 H3402 0.939 . S
C3423 C3418 1.391 . S
C3423 C3422 1.388 . S
P3424 O3435 1.490 . S
P3424 C3438 1.812 . S
P3424 C3444 1.803 . S
P3424 C3450 1.819 . S
H3425 C3439 0.941 . S
H3426 C3440 0.939 . S
H3427 C3442 0.940 . S
H3428 C3443 0.940 . S
H3429 C3445 0.939 . S
H3430 C3446 0.942 . S
H3431 C3448 0.940 . S
H3432 C3449 0.939 . S
H3433 C3451 0.941 . S
H3434 C3455 0.939 . S
O3435 P3424 1.490 . S
H3436 C3452 0.939 . S
H3437 C3454 0.940 . S
C3438 P3424 1.812 . S
C3438 C3439 1.389 . S
C3438 C3443 1.391 . S
C3439 H3425 0.941 . S
C3439 C3438 1.389 . S
C3439 C3440 1.397 . S
C3440 H3426 0.939 . S
C3440 C3439 1.397 . S
C3440 C3441 1.378 . S
C3441 C3440 1.378 . S
C3441 C3442 1.378 . S
C3442 H3427 0.940 . S
C3442 C3441 1.378 . S
C3442 C3443 1.396 . S
C3443 H3428 0.940 . S
C3443 C3438 1.391 . S
C3443 C3442 1.396 . S
C3444 P3424 1.803 . S
C3444 C3445 1.378 . S
C3444 C3449 1.400 . S
C3445 H3429 0.939 . S
C3445 C3444 1.378 . S
C3445 C3446 1.361 . S
C3446 H3430 0.942 . S
C3446 C3445 1.361 . S
C3446 C3447 1.369 . S
C3447 C3446 1.369 . S
C3447 C3448 1.404 . S
C3448 H3431 0.940 . S
C3448 C3447 1.404 . S
C3448 C3449 1.389 . S
C3449 H3432 0.939 . S
C3449 C3444 1.400 . S
C3449 C3448 1.389 . S
C3450 P3424 1.819 . S
C3450 C3451 1.391 . S
C3450 C3455 1.391 . S
C3451 H3433 0.941 . S
C3451 C3450 1.391 . S
C3451 C3452 1.396 . S
C3452 H3436 0.939 . S
C3452 C3451 1.396 . S
C3452 C3453 1.397 . S
C3453 C3452 1.397 . S
C3453 C3454 1.385 . S
C3454 H3437 0.940 . S
C3454 C3453 1.385 . S
C3454 C3455 1.388 . S
C3455 H3434 0.939 . S
C3455 C3450 1.391 . S
C3455 C3454 1.388 . S
H3456 C3464 0.950 . S
H3457 C3469 0.950 . S
H3458 C3466 0.950 . S
H3459 C3468 0.950 . S
H3460 C3470 0.950 . S
H3461 C3472 0.950 . S
H3462 C3474 0.950 . S
H3463 C3475 0.950 . S
C3464 H3456 0.950 . S
C3464 C3465 1.386 . S
C3464 C3466 1.391 . S
C3465 C3464 1.386 . S
C3465 C3469 1.393 . S
C3466 H3458 0.950 . S
C3466 C3464 1.391 . S
C3466 C3467 1.400 . S
C3467 C3466 1.400 . S
C3467 C3468 1.398 . S
C3467 C3473 1.491 . S
C3468 H3459 0.950 . S
C3468 C3467 1.398 . S
C3468 C3469 1.391 . S
C3469 H3457 0.950 . S
C3469 C3465 1.393 . S
C3469 C3468 1.391 . S
C3470 H3460 0.950 . S
C3470 C3471 1.386 . S
C3470 C3472 1.391 . S
C3471 C3470 1.386 . S
C3471 C3475 1.393 . S
C3472 H3461 0.950 . S
C3472 C3470 1.391 . S
C3472 C3473 1.400 . S
C3473 C3467 1.491 . S
C3473 C3472 1.400 . S
C3473 C3474 1.398 . S
C3474 H3462 0.950 . S
C3474 C3473 1.398 . S
C3474 C3475 1.391 . S
C3475 H3463 0.950 . S
C3475 C3471 1.393 . S
C3475 C3474 1.391 . S
H3476 C3484 0.950 . S
H3477 C3489 0.950 . S
H3478 C3486 0.950 . S
H3479 C3488 0.950 . S
H3480 C3490 0.950 . S
H3481 C3492 0.950 . S
H3482 C3494 0.950 . S
H3483 C3495 0.950 . S
C3484 H3476 0.950 . S
C3484 C3485 1.386 . S
C3484 C3486 1.391 . S
C3485 C3484 1.386 . S
C3485 C3489 1.393 . S
C3486 H3478 0.950 . S
C3486 C3484 1.391 . S
C3486 C3487 1.400 . S
C3487 C3486 1.400 . S
C3487 C3488 1.398 . S
C3487 C3493 1.491 . S
C3488 H3479 0.950 . S
C3488 C3487 1.398 . S
C3488 C3489 1.391 . S
C3489 H3477 0.950 . S
C3489 C3485 1.393 . S
C3489 C3488 1.391 . S
C3490 H3480 0.950 . S
C3490 C3491 1.386 . S
C3490 C3492 1.391 . S
C3491 C3490 1.386 . S
C3491 C3495 1.393 . S
C3492 H3481 0.950 . S
C3492 C3490 1.391 . S
C3492 C3493 1.400 . S
C3493 C3487 1.491 . S
C3493 C3492 1.400 . S
C3493 C3494 1.398 . S
C3494 H3482 0.950 . S
C3494 C3493 1.398 . S
C3494 C3495 1.391 . S
C3495 H3483 0.950 . S
C3495 C3491 1.393 . S
C3495 C3494 1.391 . S
H3496 C3504 0.950 . S
H3497 C3509 0.950 . S
H3498 C3506 0.950 . S
H3499 C3508 0.950 . S
H3500 C3510 0.950 . S
H3501 C3512 0.950 . S
H3502 C3514 0.950 . S
H3503 C3515 0.950 . S
C3504 H3496 0.950 . S
C3504 C3505 1.386 . S
C3504 C3506 1.391 . S
C3505 C3504 1.386 . S
C3505 C3509 1.393 . S
C3506 H3498 0.950 . S
C3506 C3504 1.391 . S
C3506 C3507 1.400 . S
C3507 C3506 1.400 . S
C3507 C3508 1.398 . S
C3507 C3513 1.491 . S
C3508 H3499 0.950 . S
C3508 C3507 1.398 . S
C3508 C3509 1.391 . S
C3509 H3497 0.950 . S
C3509 C3505 1.393 . S
C3509 C3508 1.391 . S
C3510 H3500 0.950 . S
C3510 C3511 1.386 . S
C3510 C3512 1.391 . S
C3511 C3510 1.386 . S
C3511 C3515 1.393 . S
C3512 H3501 0.950 . S
C3512 C3510 1.391 . S
C3512 C3513 1.400 . S
C3513 C3507 1.491 . S
C3513 C3512 1.400 . S
C3513 C3514 1.398 . S
C3514 H3502 0.950 . S
C3514 C3513 1.398 . S
C3514 C3515 1.391 . S
C3515 H3503 0.950 . S
C3515 C3511 1.393 . S
C3515 C3514 1.391 . S
H3516 C3524 0.950 . S
H3517 C3529 0.950 . S
H3518 C3526 0.950 . S
H3519 C3528 0.950 . S
H3520 C3530 0.950 . S
H3521 C3532 0.950 . S
H3522 C3534 0.950 . S
H3523 C3535 0.950 . S
C3524 H3516 0.950 . S
C3524 C3525 1.386 . S
C3524 C3526 1.391 . S
C3525 C3524 1.386 . S
C3525 C3529 1.393 . S
C3526 H3518 0.950 . S
C3526 C3524 1.391 . S
C3526 C3527 1.400 . S
C3527 C3526 1.400 . S
C3527 C3528 1.398 . S
C3527 C3533 1.491 . S
C3528 H3519 0.950 . S
C3528 C3527 1.398 . S
C3528 C3529 1.391 . S
C3529 H3517 0.950 . S
C3529 C3525 1.393 . S
C3529 C3528 1.391 . S
C3530 H3520 0.950 . S
C3530 C3531 1.386 . S
C3530 C3532 1.391 . S
C3531 C3530 1.386 . S
C3531 C3535 1.393 . S
C3532 H3521 0.950 . S
C3532 C3530 1.391 . S
C3532 C3533 1.400 . S
C3533 C3527 1.491 . S
C3533 C3532 1.400 . S
C3533 C3534 1.398 . S
C3534 H3522 0.950 . S
C3534 C3533 1.398 . S
C3534 C3535 1.391 . S
C3535 H3523 0.950 . S
C3535 C3531 1.393 . S
C3535 C3534 1.391 . S
H3536 C3544 0.950 . S
H3537 C3549 0.950 . S
H3538 C3546 0.950 . S
H3539 C3548 0.950 . S
H3540 C3550 0.950 . S
H3541 C3552 0.950 . S
H3542 C3554 0.950 . S
H3543 C3555 0.950 . S
C3544 H3536 0.950 . S
C3544 C3545 1.386 . S
C3544 C3546 1.391 . S
C3545 C3544 1.386 . S
C3545 C3549 1.393 . S
C3546 H3538 0.950 . S
C3546 C3544 1.391 . S
C3546 C3547 1.400 . S
C3547 C3546 1.400 . S
C3547 C3548 1.398 . S
C3547 C3553 1.491 . S
C3548 H3539 0.950 . S
C3548 C3547 1.398 . S
C3548 C3549 1.391 . S
C3549 H3537 0.950 . S
C3549 C3545 1.393 . S
C3549 C3548 1.391 . S
C3550 H3540 0.950 . S
C3550 C3551 1.386 . S
C3550 C3552 1.391 . S
C3551 C3550 1.386 . S
C3551 C3555 1.393 . S
C3552 H3541 0.950 . S
C3552 C3550 1.391 . S
C3552 C3553 1.400 . S
C3553 C3547 1.491 . S
C3553 C3552 1.400 . S
C3553 C3554 1.398 . S
C3554 H3542 0.950 . S
C3554 C3553 1.398 . S
C3554 C3555 1.391 . S
C3555 H3543 0.950 . S
C3555 C3551 1.393 . S
C3555 C3554 1.391 . S
H3556 C3564 0.950 . S
H3557 C3569 0.950 . S
H3558 C3566 0.950 . S
H3559 C3568 0.950 . S
H3560 C3570 0.950 . S
H3561 C3572 0.950 . S
H3562 C3574 0.950 . S
H3563 C3575 0.950 . S
C3564 H3556 0.950 . S
C3564 C3565 1.386 . S
C3564 C3566 1.391 . S
C3565 C3564 1.386 . S
C3565 C3569 1.393 . S
C3566 H3558 0.950 . S
C3566 C3564 1.391 . S
C3566 C3567 1.400 . S
C3567 C3566 1.400 . S
C3567 C3568 1.398 . S
C3567 C3573 1.491 . S
C3568 H3559 0.950 . S
C3568 C3567 1.398 . S
C3568 C3569 1.391 . S
C3569 H3557 0.950 . S
C3569 C3565 1.393 . S
C3569 C3568 1.391 . S
C3570 H3560 0.950 . S
C3570 C3571 1.386 . S
C3570 C3572 1.391 . S
C3571 C3570 1.386 . S
C3571 C3575 1.393 . S
C3572 H3561 0.950 . S
C3572 C3570 1.391 . S
C3572 C3573 1.400 . S
C3573 C3567 1.491 . S
C3573 C3572 1.400 . S
C3573 C3574 1.398 . S
C3574 H3562 0.950 . S
C3574 C3573 1.398 . S
C3574 C3575 1.391 . S
C3575 H3563 0.950 . S
C3575 C3571 1.393 . S
C3575 C3574 1.391 . S
H3576 C3584 0.950 . S
H3577 C3589 0.950 . S
H3578 C3586 0.950 . S
H3579 C3588 0.950 . S
H3580 C3590 0.950 . S
H3581 C3592 0.950 . S
H3582 C3594 0.950 . S
H3583 C3595 0.950 . S
C3584 H3576 0.950 . S
C3584 C3585 1.386 . S
C3584 C3586 1.391 . S
C3585 C3584 1.386 . S
C3585 C3589 1.393 . S
C3586 H3578 0.950 . S
C3586 C3584 1.391 . S
C3586 C3587 1.400 . S
C3587 C3586 1.400 . S
C3587 C3588 1.398 . S
C3587 C3593 1.491 . S
C3588 H3579 0.950 . S
C3588 C3587 1.398 . S
C3588 C3589 1.391 . S
C3589 H3577 0.950 . S
C3589 C3585 1.393 . S
C3589 C3588 1.391 . S
C3590 H3580 0.950 . S
C3590 C3591 1.386 . S
C3590 C3592 1.391 . S
C3591 C3590 1.386 . S
C3591 C3595 1.393 . S
C3592 H3581 0.950 . S
C3592 C3590 1.391 . S
C3592 C3593 1.400 . S
C3593 C3587 1.491 . S
C3593 C3592 1.400 . S
C3593 C3594 1.398 . S
C3594 H3582 0.950 . S
C3594 C3593 1.398 . S
C3594 C3595 1.391 . S
C3595 H3583 0.950 . S
C3595 C3591 1.393 . S
C3595 C3594 1.391 . S
H3596 C3604 0.950 . S
H3597 C3609 0.950 . S
H3598 C3606 0.950 . S
H3599 C3608 0.950 . S
H3600 C3610 0.950 . S
H3601 C3612 0.950 . S
H3602 C3614 0.950 . S
H3603 C3615 0.950 . S
C3604 H3596 0.950 . S
C3604 C3605 1.386 . S
C3604 C3606 1.391 . S
C3605 C3604 1.386 . S
C3605 C3609 1.393 . S
C3606 H3598 0.950 . S
C3606 C3604 1.391 . S
C3606 C3607 1.400 . S
C3607 C3606 1.400 . S
C3607 C3608 1.398 . S
C3607 C3613 1.491 . S
C3608 H3599 0.950 . S
C3608 C3607 1.398 . S
C3608 C3609 1.391 . S
C3609 H3597 0.950 . S
C3609 C3605 1.393 . S
C3609 C3608 1.391 . S
C3610 H3600 0.950 . S
C3610 C3611 1.386 . S
C3610 C3612 1.391 . S
C3611 C3610 1.386 . S
C3611 C3615 1.393 . S
C3612 H3601 0.950 . S
C3612 C3610 1.391 . S
C3612 C3613 1.400 . S
C3613 C3607 1.491 . S
C3613 C3612 1.400 . S
C3613 C3614 1.398 . S
C3614 H3602 0.950 . S
C3614 C3613 1.398 . S
C3614 C3615 1.391 . S
C3615 H3603 0.950 . S
C3615 C3611 1.393 . S
C3615 C3614 1.391 . S
H3616 C3624 0.950 . S
H3617 C3629 0.950 . S
H3618 C3626 0.950 . S
H3619 C3628 0.950 . S
H3620 C3630 0.950 . S
H3621 C3632 0.950 . S
H3622 C3634 0.950 . S
H3623 C3635 0.950 . S
C3624 H3616 0.950 . S
C3624 C3625 1.386 . S
C3624 C3626 1.391 . S
C3625 C3624 1.386 . S
C3625 C3629 1.393 . S
C3626 H3618 0.950 . S
C3626 C3624 1.391 . S
C3626 C3627 1.400 . S
C3627 C3626 1.400 . S
C3627 C3628 1.398 . S
C3627 C3633 1.491 . S
C3628 H3619 0.950 . S
C3628 C3627 1.398 . S
C3628 C3629 1.391 . S
C3629 H3617 0.950 . S
C3629 C3625 1.393 . S
C3629 C3628 1.391 . S
C3630 H3620 0.950 . S
C3630 C3631 1.386 . S
C3630 C3632 1.391 . S
C3631 C3630 1.386 . S
C3631 C3635 1.393 . S
C3632 H3621 0.950 . S
C3632 C3630 1.391 . S
C3632 C3633 1.400 . S
C3633 C3627 1.491 . S
C3633 C3632 1.400 . S
C3633 C3634 1.398 . S
C3634 H3622 0.950 . S
C3634 C3633 1.398 . S
C3634 C3635 1.391 . S
C3635 H3623 0.950 . S
C3635 C3631 1.393 . S
C3635 C3634 1.391 . S
H3636 C3644 0.950 . S
H3637 C3649 0.950 . S
H3638 C3646 0.950 . S
H3639 C3648 0.950 . S
H3640 C3650 0.950 . S
H3641 C3652 0.950 . S
H3642 C3654 0.950 . S
H3643 C3655 0.950 . S
C3644 H3636 0.950 . S
C3644 C3645 1.386 . S
C3644 C3646 1.391 . S
C3645 C3644 1.386 . S
C3645 C3649 1.393 . S
C3646 H3638 0.950 . S
C3646 C3644 1.391 . S
C3646 C3647 1.400 . S
C3647 C3646 1.400 . S
C3647 C3648 1.398 . S
C3647 C3653 1.491 . S
C3648 H3639 0.950 . S
C3648 C3647 1.398 . S
C3648 C3649 1.391 . S
C3649 H3637 0.950 . S
C3649 C3645 1.393 . S
C3649 C3648 1.391 . S
C3650 H3640 0.950 . S
C3650 C3651 1.386 . S
C3650 C3652 1.391 . S
C3651 C3650 1.386 . S
C3651 C3655 1.393 . S
C3652 H3641 0.950 . S
C3652 C3650 1.391 . S
C3652 C3653 1.400 . S
C3653 C3647 1.491 . S
C3653 C3652 1.400 . S
C3653 C3654 1.398 . S
C3654 H3642 0.950 . S
C3654 C3653 1.398 . S
C3654 C3655 1.391 . S
C3655 H3643 0.950 . S
C3655 C3651 1.393 . S
C3655 C3654 1.391 . S
H3656 C3664 0.950 . S
H3657 C3669 0.950 . S
H3658 C3666 0.950 . S
H3659 C3668 0.950 . S
H3660 C3670 0.950 . S
H3661 C3672 0.950 . S
H3662 C3674 0.950 . S
H3663 C3675 0.950 . S
C3664 H3656 0.950 . S
C3664 C3665 1.386 . S
C3664 C3666 1.391 . S
C3665 C3664 1.386 . S
C3665 C3669 1.393 . S
C3666 H3658 0.950 . S
C3666 C3664 1.391 . S
C3666 C3667 1.400 . S
C3667 C3666 1.400 . S
C3667 C3668 1.398 . S
C3667 C3673 1.491 . S
C3668 H3659 0.950 . S
C3668 C3667 1.398 . S
C3668 C3669 1.391 . S
C3669 H3657 0.950 . S
C3669 C3665 1.393 . S
C3669 C3668 1.391 . S
C3670 H3660 0.950 . S
C3670 C3671 1.386 . S
C3670 C3672 1.391 . S
C3671 C3670 1.386 . S
C3671 C3675 1.393 . S
C3672 H3661 0.950 . S
C3672 C3670 1.391 . S
C3672 C3673 1.400 . S
C3673 C3667 1.491 . S
C3673 C3672 1.400 . S
C3673 C3674 1.398 . S
C3674 H3662 0.950 . S
C3674 C3673 1.398 . S
C3674 C3675 1.391 . S
C3675 H3663 0.950 . S
C3675 C3671 1.393 . S
C3675 C3674 1.391 . S
H3676 C3684 0.950 . S
H3677 C3689 0.950 . S
H3678 C3686 0.950 . S
H3679 C3688 0.950 . S
H3680 C3690 0.950 . S
H3681 C3692 0.950 . S
H3682 C3694 0.950 . S
H3683 C3695 0.950 . S
C3684 H3676 0.950 . S
C3684 C3685 1.386 . S
C3684 C3686 1.391 . S
C3685 C3684 1.386 . S
C3685 C3689 1.393 . S
C3686 H3678 0.950 . S
C3686 C3684 1.391 . S
C3686 C3687 1.400 . S
C3687 C3686 1.400 . S
C3687 C3688 1.398 . S
C3687 C3693 1.491 . S
C3688 H3679 0.950 . S
C3688 C3687 1.398 . S
C3688 C3689 1.391 . S
C3689 H3677 0.950 . S
C3689 C3685 1.393 . S
C3689 C3688 1.391 . S
C3690 H3680 0.950 . S
C3690 C3691 1.386 . S
C3690 C3692 1.391 . S
C3691 C3690 1.386 . S
C3691 C3695 1.393 . S
C3692 H3681 0.950 . S
C3692 C3690 1.391 . S
C3692 C3693 1.400 . S
C3693 C3687 1.491 . S
C3693 C3692 1.400 . S
C3693 C3694 1.398 . S
C3694 H3682 0.950 . S
C3694 C3693 1.398 . S
C3694 C3695 1.391 . S
C3695 H3683 0.950 . S
C3695 C3691 1.393 . S
C3695 C3694 1.391 . S
H3696 C3704 0.950 . S
H3697 C3709 0.950 . S
H3698 C3706 0.950 . S
H3699 C3708 0.950 . S
H3700 C3710 0.950 . S
H3701 C3712 0.950 . S
H3702 C3714 0.950 . S
H3703 C3715 0.950 . S
C3704 H3696 0.950 . S
C3704 C3705 1.386 . S
C3704 C3706 1.391 . S
C3705 C3704 1.386 . S
C3705 C3709 1.393 . S
C3706 H3698 0.950 . S
C3706 C3704 1.391 . S
C3706 C3707 1.400 . S
C3707 C3706 1.400 . S
C3707 C3708 1.398 . S
C3707 C3713 1.491 . S
C3708 H3699 0.950 . S
C3708 C3707 1.398 . S
C3708 C3709 1.391 . S
C3709 H3697 0.950 . S
C3709 C3705 1.393 . S
C3709 C3708 1.391 . S
C3710 H3700 0.950 . S
C3710 C3711 1.386 . S
C3710 C3712 1.391 . S
C3711 C3710 1.386 . S
C3711 C3715 1.393 . S
C3712 H3701 0.950 . S
C3712 C3710 1.391 . S
C3712 C3713 1.400 . S
C3713 C3707 1.491 . S
C3713 C3712 1.400 . S
C3713 C3714 1.398 . S
C3714 H3702 0.950 . S
C3714 C3713 1.398 . S
C3714 C3715 1.391 . S
C3715 H3703 0.950 . S
C3715 C3711 1.393 . S
C3715 C3714 1.391 . S
H3716 C3724 0.950 . S
H3717 C3729 0.950 . S
H3718 C3726 0.950 . S
H3719 C3728 0.950 . S
H3720 C3730 0.950 . S
H3721 C3732 0.950 . S
H3722 C3734 0.950 . S
H3723 C3735 0.950 . S
C3724 H3716 0.950 . S
C3724 C3725 1.386 . S
C3724 C3726 1.391 . S
C3725 C3724 1.386 . S
C3725 C3729 1.393 . S
C3726 H3718 0.950 . S
C3726 C3724 1.391 . S
C3726 C3727 1.400 . S
C3727 C3726 1.400 . S
C3727 C3728 1.398 . S
C3727 C3733 1.491 . S
C3728 H3719 0.950 . S
C3728 C3727 1.398 . S
C3728 C3729 1.391 . S
C3729 H3717 0.950 . S
C3729 C3725 1.393 . S
C3729 C3728 1.391 . S
C3730 H3720 0.950 . S
C3730 C3731 1.386 . S
C3730 C3732 1.391 . S
C3731 C3730 1.386 . S
C3731 C3735 1.393 . S
C3732 H3721 0.950 . S
C3732 C3730 1.391 . S
C3732 C3733 1.400 . S
C3733 C3727 1.491 . S
C3733 C3732 1.400 . S
C3733 C3734 1.398 . S
C3734 H3722 0.950 . S
C3734 C3733 1.398 . S
C3734 C3735 1.391 . S
C3735 H3723 0.950 . S
C3735 C3731 1.393 . S
C3735 C3734 1.391 . S
H3736 C3744 0.950 . S
H3737 C3749 0.950 . S
H3738 C3746 0.950 . S
H3739 C3748 0.950 . S
H3740 C3750 0.950 . S
H3741 C3752 0.950 . S
H3742 C3754 0.950 . S
H3743 C3755 0.950 . S
C3744 H3736 0.950 . S
C3744 C3745 1.386 . S
C3744 C3746 1.391 . S
C3745 C3744 1.386 . S
C3745 C3749 1.393 . S
C3746 H3738 0.950 . S
C3746 C3744 1.391 . S
C3746 C3747 1.400 . S
C3747 C3746 1.400 . S
C3747 C3748 1.398 . S
C3747 C3753 1.491 . S
C3748 H3739 0.950 . S
C3748 C3747 1.398 . S
C3748 C3749 1.391 . S
C3749 H3737 0.950 . S
C3749 C3745 1.393 . S
C3749 C3748 1.391 . S
C3750 H3740 0.950 . S
C3750 C3751 1.386 . S
C3750 C3752 1.391 . S
C3751 C3750 1.386 . S
C3751 C3755 1.393 . S
C3752 H3741 0.950 . S
C3752 C3750 1.391 . S
C3752 C3753 1.400 . S
C3753 C3747 1.491 . S
C3753 C3752 1.400 . S
C3753 C3754 1.398 . S
C3754 H3742 0.950 . S
C3754 C3753 1.398 . S
C3754 C3755 1.391 . S
C3755 H3743 0.950 . S
C3755 C3751 1.393 . S
C3755 C3754 1.391 . S
H3756 C3764 0.950 . S
H3757 C3769 0.950 . S
H3758 C3766 0.950 . S
H3759 C3768 0.950 . S
H3760 C3770 0.950 . S
H3761 C3772 0.950 . S
H3762 C3774 0.950 . S
H3763 C3775 0.950 . S
C3764 H3756 0.950 . S
C3764 C3765 1.386 . S
C3764 C3766 1.391 . S
C3765 C3764 1.386 . S
C3765 C3769 1.393 . S
C3766 H3758 0.950 . S
C3766 C3764 1.391 . S
C3766 C3767 1.400 . S
C3767 C3766 1.400 . S
C3767 C3768 1.398 . S
C3767 C3773 1.491 . S
C3768 H3759 0.950 . S
C3768 C3767 1.398 . S
C3768 C3769 1.391 . S
C3769 H3757 0.950 . S
C3769 C3765 1.393 . S
C3769 C3768 1.391 . S
C3770 H3760 0.950 . S
C3770 C3771 1.386 . S
C3770 C3772 1.391 . S
C3771 C3770 1.386 . S
C3771 C3775 1.393 . S
C3772 H3761 0.950 . S
C3772 C3770 1.391 . S
C3772 C3773 1.400 . S
C3773 C3767 1.491 . S
C3773 C3772 1.400 . S
C3773 C3774 1.398 . S
C3774 H3762 0.950 . S
C3774 C3773 1.398 . S
C3774 C3775 1.391 . S
C3775 H3763 0.950 . S
C3775 C3771 1.393 . S
C3775 C3774 1.391 . S
H3776 C3784 0.950 . S
H3777 C3789 0.950 . S
H3778 C3786 0.950 . S
H3779 C3788 0.950 . S
H3780 C3790 0.950 . S
H3781 C3792 0.950 . S
H3782 C3794 0.950 . S
H3783 C3795 0.950 . S
C3784 H3776 0.950 . S
C3784 C3785 1.386 . S
C3784 C3786 1.391 . S
C3785 C3784 1.386 . S
C3785 C3789 1.393 . S
C3786 H3778 0.950 . S
C3786 C3784 1.391 . S
C3786 C3787 1.400 . S
C3787 C3786 1.400 . S
C3787 C3788 1.398 . S
C3787 C3793 1.491 . S
C3788 H3779 0.950 . S
C3788 C3787 1.398 . S
C3788 C3789 1.391 . S
C3789 H3777 0.950 . S
C3789 C3785 1.393 . S
C3789 C3788 1.391 . S
C3790 H3780 0.950 . S
C3790 C3791 1.386 . S
C3790 C3792 1.391 . S
C3791 C3790 1.386 . S
C3791 C3795 1.393 . S
C3792 H3781 0.950 . S
C3792 C3790 1.391 . S
C3792 C3793 1.400 . S
C3793 C3787 1.491 . S
C3793 C3792 1.400 . S
C3793 C3794 1.398 . S
C3794 H3782 0.950 . S
C3794 C3793 1.398 . S
C3794 C3795 1.391 . S
C3795 H3783 0.950 . S
C3795 C3791 1.393 . S
C3795 C3794 1.391 . S
H3796 C3804 0.950 . S
H3797 C3809 0.950 . S
H3798 C3806 0.950 . S
H3799 C3808 0.950 . S
H3800 C3810 0.950 . S
H3801 C3812 0.950 . S
H3802 C3814 0.950 . S
H3803 C3815 0.950 . S
C3804 H3796 0.950 . S
C3804 C3805 1.386 . S
C3804 C3806 1.391 . S
C3805 C3804 1.386 . S
C3805 C3809 1.393 . S
C3806 H3798 0.950 . S
C3806 C3804 1.391 . S
C3806 C3807 1.400 . S
C3807 C3806 1.400 . S
C3807 C3808 1.398 . S
C3807 C3813 1.491 . S
C3808 H3799 0.950 . S
C3808 C3807 1.398 . S
C3808 C3809 1.391 . S
C3809 H3797 0.950 . S
C3809 C3805 1.393 . S
C3809 C3808 1.391 . S
C3810 H3800 0.950 . S
C3810 C3811 1.386 . S
C3810 C3812 1.391 . S
C3811 C3810 1.386 . S
C3811 C3815 1.393 . S
C3812 H3801 0.950 . S
C3812 C3810 1.391 . S
C3812 C3813 1.400 . S
C3813 C3807 1.491 . S
C3813 C3812 1.400 . S
C3813 C3814 1.398 . S
C3814 H3802 0.950 . S
C3814 C3813 1.398 . S
C3814 C3815 1.391 . S
C3815 H3803 0.950 . S
C3815 C3811 1.393 . S
C3815 C3814 1.391 . S
H3816 C3824 0.950 . S
H3817 C3829 0.950 . S
H3818 C3826 0.950 . S
H3819 C3828 0.950 . S
H3820 C3830 0.950 . S
H3821 C3832 0.950 . S
H3822 C3834 0.950 . S
H3823 C3835 0.950 . S
C3824 H3816 0.950 . S
C3824 C3825 1.386 . S
C3824 C3826 1.391 . S
C3825 C3824 1.386 . S
C3825 C3829 1.393 . S
C3826 H3818 0.950 . S
C3826 C3824 1.391 . S
C3826 C3827 1.400 . S
C3827 C3826 1.400 . S
C3827 C3828 1.398 . S
C3827 C3833 1.491 . S
C3828 H3819 0.950 . S
C3828 C3827 1.398 . S
C3828 C3829 1.391 . S
C3829 H3817 0.950 . S
C3829 C3825 1.393 . S
C3829 C3828 1.391 . S
C3830 H3820 0.950 . S
C3830 C3831 1.386 . S
C3830 C3832 1.391 . S
C3831 C3830 1.386 . S
C3831 C3835 1.393 . S
C3832 H3821 0.950 . S
C3832 C3830 1.391 . S
C3832 C3833 1.400 . S
C3833 C3827 1.491 . S
C3833 C3832 1.400 . S
C3833 C3834 1.398 . S
C3834 H3822 0.950 . S
C3834 C3833 1.398 . S
C3834 C3835 1.391 . S
C3835 H3823 0.950 . S
C3835 C3831 1.393 . S
C3835 C3834 1.391 . S
H3836 C3844 0.950 . S
H3837 C3849 0.950 . S
H3838 C3846 0.950 . S
H3839 C3848 0.950 . S
H3840 C3850 0.950 . S
H3841 C3852 0.950 . S
H3842 C3854 0.950 . S
H3843 C3855 0.950 . S
C3844 H3836 0.950 . S
C3844 C3845 1.386 . S
C3844 C3846 1.391 . S
C3845 C3844 1.386 . S
C3845 C3849 1.393 . S
C3846 H3838 0.950 . S
C3846 C3844 1.391 . S
C3846 C3847 1.400 . S
C3847 C3846 1.400 . S
C3847 C3848 1.398 . S
C3847 C3853 1.491 . S
C3848 H3839 0.950 . S
C3848 C3847 1.398 . S
C3848 C3849 1.391 . S
C3849 H3837 0.950 . S
C3849 C3845 1.393 . S
C3849 C3848 1.391 . S
C3850 H3840 0.950 . S
C3850 C3851 1.386 . S
C3850 C3852 1.391 . S
C3851 C3850 1.386 . S
C3851 C3855 1.393 . S
C3852 H3841 0.950 . S
C3852 C3850 1.391 . S
C3852 C3853 1.400 . S
C3853 C3847 1.491 . S
C3853 C3852 1.400 . S
C3853 C3854 1.398 . S
C3854 H3842 0.950 . S
C3854 C3853 1.398 . S
C3854 C3855 1.391 . S
C3855 H3843 0.950 . S
C3855 C3851 1.393 . S
C3855 C3854 1.391 . S
H3856 C3864 0.950 . S
H3857 C3869 0.950 . S
H3858 C3866 0.950 . S
H3859 C3868 0.950 . S
H3860 C3870 0.950 . S
H3861 C3872 0.950 . S
H3862 C3874 0.950 . S
H3863 C3875 0.950 . S
C3864 H3856 0.950 . S
C3864 C3865 1.386 . S
C3864 C3866 1.391 . S
C3865 C3864 1.386 . S
C3865 C3869 1.393 . S
C3866 H3858 0.950 . S
C3866 C3864 1.391 . S
C3866 C3867 1.400 . S
C3867 C3866 1.400 . S
C3867 C3868 1.398 . S
C3867 C3873 1.491 . S
C3868 H3859 0.950 . S
C3868 C3867 1.398 . S
C3868 C3869 1.391 . S
C3869 H3857 0.950 . S
C3869 C3865 1.393 . S
C3869 C3868 1.391 . S
C3870 H3860 0.950 . S
C3870 C3871 1.386 . S
C3870 C3872 1.391 . S
C3871 C3870 1.386 . S
C3871 C3875 1.393 . S
C3872 H3861 0.950 . S
C3872 C3870 1.391 . S
C3872 C3873 1.400 . S
C3873 C3867 1.491 . S
C3873 C3872 1.400 . S
C3873 C3874 1.398 . S
C3874 H3862 0.950 . S
C3874 C3873 1.398 . S
C3874 C3875 1.391 . S
C3875 H3863 0.950 . S
C3875 C3871 1.393 . S
C3875 C3874 1.391 . S
H3876 C3884 0.950 . S
H3877 C3889 0.950 . S
H3878 C3886 0.950 . S
H3879 C3888 0.950 . S
H3880 C3890 0.950 . S
H3881 C3892 0.950 . S
H3882 C3894 0.950 . S
H3883 C3895 0.950 . S
C3884 H3876 0.950 . S
C3884 C3885 1.386 . S
C3884 C3886 1.391 . S
C3885 C3884 1.386 . S
C3885 C3889 1.393 . S
C3886 H3878 0.950 . S
C3886 C3884 1.391 . S
C3886 C3887 1.400 . S
C3887 C3886 1.400 . S
C3887 C3888 1.398 . S
C3887 C3893 1.491 . S
C3888 H3879 0.950 . S
C3888 C3887 1.398 . S
C3888 C3889 1.391 . S
C3889 H3877 0.950 . S
C3889 C3885 1.393 . S
C3889 C3888 1.391 . S
C3890 H3880 0.950 . S
C3890 C3891 1.386 . S
C3890 C3892 1.391 . S
C3891 C3890 1.386 . S
C3891 C3895 1.393 . S
C3892 H3881 0.950 . S
C3892 C3890 1.391 . S
C3892 C3893 1.400 . S
C3893 C3887 1.491 . S
C3893 C3892 1.400 . S
C3893 C3894 1.398 . S
C3894 H3882 0.950 . S
C3894 C3893 1.398 . S
C3894 C3895 1.391 . S
C3895 H3883 0.950 . S
C3895 C3891 1.393 . S
C3895 C3894 1.391 . S
H3896 C3904 0.950 . S
H3897 C3909 0.950 . S
H3898 C3906 0.950 . S
H3899 C3908 0.950 . S
H3900 C3910 0.950 . S
H3901 C3912 0.950 . S
H3902 C3914 0.950 . S
H3903 C3915 0.950 . S
C3904 H3896 0.950 . S
C3904 C3905 1.386 . S
C3904 C3906 1.391 . S
C3905 C3904 1.386 . S
C3905 C3909 1.393 . S
C3906 H3898 0.950 . S
C3906 C3904 1.391 . S
C3906 C3907 1.400 . S
C3907 C3906 1.400 . S
C3907 C3908 1.398 . S
C3907 C3913 1.491 . S
C3908 H3899 0.950 . S
C3908 C3907 1.398 . S
C3908 C3909 1.391 . S
C3909 H3897 0.950 . S
C3909 C3905 1.393 . S
C3909 C3908 1.391 . S
C3910 H3900 0.950 . S
C3910 C3911 1.386 . S
C3910 C3912 1.391 . S
C3911 C3910 1.386 . S
C3911 C3915 1.393 . S
C3912 H3901 0.950 . S
C3912 C3910 1.391 . S
C3912 C3913 1.400 . S
C3913 C3907 1.491 . S
C3913 C3912 1.400 . S
C3913 C3914 1.398 . S
C3914 H3902 0.950 . S
C3914 C3913 1.398 . S
C3914 C3915 1.391 . S
C3915 H3903 0.950 . S
C3915 C3911 1.393 . S
C3915 C3914 1.391 . S
H3916 C3924 0.950 . S
H3917 C3929 0.950 . S
H3918 C3926 0.950 . S
H3919 C3928 0.950 . S
H3920 C3930 0.950 . S
H3921 C3932 0.950 . S
H3922 C3934 0.950 . S
H3923 C3935 0.950 . S
C3924 H3916 0.950 . S
C3924 C3925 1.386 . S
C3924 C3926 1.391 . S
C3925 C3924 1.386 . S
C3925 C3929 1.393 . S
C3926 H3918 0.950 . S
C3926 C3924 1.391 . S
C3926 C3927 1.400 . S
C3927 C3926 1.400 . S
C3927 C3928 1.398 . S
C3927 C3933 1.491 . S
C3928 H3919 0.950 . S
C3928 C3927 1.398 . S
C3928 C3929 1.391 . S
C3929 H3917 0.950 . S
C3929 C3925 1.393 . S
C3929 C3928 1.391 . S
C3930 H3920 0.950 . S
C3930 C3931 1.386 . S
C3930 C3932 1.391 . S
C3931 C3930 1.386 . S
C3931 C3935 1.393 . S
C3932 H3921 0.950 . S
C3932 C3930 1.391 . S
C3932 C3933 1.400 . S
C3933 C3927 1.491 . S
C3933 C3932 1.400 . S
C3933 C3934 1.398 . S
C3934 H3922 0.950 . S
C3934 C3933 1.398 . S
C3934 C3935 1.391 . S
C3935 H3923 0.950 . S
C3935 C3931 1.393 . S
C3935 C3934 1.391 . S
H3936 C3944 0.950 . S
H3937 C3949 0.950 . S
H3938 C3946 0.950 . S
H3939 C3948 0.950 . S
H3940 C3950 0.950 . S
H3941 C3952 0.950 . S
H3942 C3954 0.950 . S
H3943 C3955 0.950 . S
C3944 H3936 0.950 . S
C3944 C3945 1.386 . S
C3944 C3946 1.391 . S
C3945 C3944 1.386 . S
C3945 C3949 1.393 . S
C3946 H3938 0.950 . S
C3946 C3944 1.391 . S
C3946 C3947 1.400 . S
C3947 C3946 1.400 . S
C3947 C3948 1.398 . S
C3947 C3953 1.491 . S
C3948 H3939 0.950 . S
C3948 C3947 1.398 . S
C3948 C3949 1.391 . S
C3949 H3937 0.950 . S
C3949 C3945 1.393 . S
C3949 C3948 1.391 . S
C3950 H3940 0.950 . S
C3950 C3951 1.386 . S
C3950 C3952 1.391 . S
C3951 C3950 1.386 . S
C3951 C3955 1.393 . S
C3952 H3941 0.950 . S
C3952 C3950 1.391 . S
C3952 C3953 1.400 . S
C3953 C3947 1.491 . S
C3953 C3952 1.400 . S
C3953 C3954 1.398 . S
C3954 H3942 0.950 . S
C3954 C3953 1.398 . S
C3954 C3955 1.391 . S
C3955 H3943 0.950 . S
C3955 C3951 1.393 . S
C3955 C3954 1.391 . S
H3956 C3964 0.950 . S
H3957 C3969 0.950 . S
H3958 C3966 0.950 . S
H3959 C3968 0.950 . S
H3960 C3970 0.950 . S
H3961 C3972 0.950 . S
H3962 C3974 0.950 . S
H3963 C3975 0.950 . S
C3964 H3956 0.950 . S
C3964 C3965 1.386 . S
C3964 C3966 1.391 . S
C3965 C3964 1.386 . S
C3965 C3969 1.393 . S
C3966 H3958 0.950 . S
C3966 C3964 1.391 . S
C3966 C3967 1.400 . S
C3967 C3966 1.400 . S
C3967 C3968 1.398 . S
C3967 C3973 1.491 . S
C3968 H3959 0.950 . S
C3968 C3967 1.398 . S
C3968 C3969 1.391 . S
C3969 H3957 0.950 . S
C3969 C3965 1.393 . S
C3969 C3968 1.391 . S
C3970 H3960 0.950 . S
C3970 C3971 1.386 . S
C3970 C3972 1.391 . S
C3971 C3970 1.386 . S
C3971 C3975 1.393 . S
C3972 H3961 0.950 . S
C3972 C3970 1.391 . S
C3972 C3973 1.400 . S
C3973 C3967 1.491 . S
C3973 C3972 1.400 . S
C3973 C3974 1.398 . S
C3974 H3962 0.950 . S
C3974 C3973 1.398 . S
C3974 C3975 1.391 . S
C3975 H3963 0.950 . S
C3975 C3971 1.393 . S
C3975 C3974 1.391 . S
H3976 C3984 0.950 . S
H3977 C3989 0.950 . S
H3978 C3986 0.950 . S
H3979 C3988 0.950 . S
H3980 C3990 0.950 . S
H3981 C3992 0.950 . S
H3982 C3994 0.950 . S
H3983 C3995 0.950 . S
C3984 H3976 0.950 . S
C3984 C3985 1.386 . S
C3984 C3986 1.391 . S
C3985 C3984 1.386 . S
C3985 C3989 1.393 . S
C3986 H3978 0.950 . S
C3986 C3984 1.391 . S
C3986 C3987 1.400 . S
C3987 C3986 1.400 . S
C3987 C3988 1.398 . S
C3987 C3993 1.491 . S
C3988 H3979 0.950 . S
C3988 C3987 1.398 . S
C3988 C3989 1.391 . S
C3989 H3977 0.950 . S
C3989 C3985 1.393 . S
C3989 C3988 1.391 . S
C3990 H3980 0.950 . S
C3990 C3991 1.386 . S
C3990 C3992 1.391 . S
C3991 C3990 1.386 . S
C3991 C3995 1.393 . S
C3992 H3981 0.950 . S
C3992 C3990 1.391 . S
C3992 C3993 1.400 . S
C3993 C3987 1.491 . S
C3993 C3992 1.400 . S
C3993 C3994 1.398 . S
C3994 H3982 0.950 . S
C3994 C3993 1.398 . S
C3994 C3995 1.391 . S
C3995 H3983 0.950 . S
C3995 C3991 1.393 . S
C3995 C3994 1.391 . S
H3996 C4004 0.950 . S
H3997 C4009 0.950 . S
H3998 C4006 0.950 . S
H3999 C4008 0.950 . S
H4000 C4010 0.950 . S
H4001 C4012 0.950 . S
H4002 C4014 0.950 . S
H4003 C4015 0.950 . S
C4004 H3996 0.950 . S
C4004 C4005 1.386 . S
C4004 C4006 1.391 . S
C4005 C4004 1.386 . S
C4005 C4009 1.393 . S
C4006 H3998 0.950 . S
C4006 C4004 1.391 . S
C4006 C4007 1.400 . S
C4007 C4006 1.400 . S
C4007 C4008 1.398 . S
C4007 C4013 1.491 . S
C4008 H3999 0.950 . S
C4008 C4007 1.398 . S
C4008 C4009 1.391 . S
C4009 H3997 0.950 . S
C4009 C4005 1.393 . S
C4009 C4008 1.391 . S
C4010 H4000 0.950 . S
C4010 C4011 1.386 . S
C4010 C4012 1.391 . S
C4011 C4010 1.386 . S
C4011 C4015 1.393 . S
C4012 H4001 0.950 . S
C4012 C4010 1.391 . S
C4012 C4013 1.400 . S
C4013 C4007 1.491 . S
C4013 C4012 1.400 . S
C4013 C4014 1.398 . S
C4014 H4002 0.950 . S
C4014 C4013 1.398 . S
C4014 C4015 1.391 . S
C4015 H4003 0.950 . S
C4015 C4011 1.393 . S
C4015 C4014 1.391 . S
H4016 C4024 0.950 . S
H4017 C4029 0.950 . S
H4018 C4026 0.950 . S
H4019 C4028 0.950 . S
H4020 C4030 0.950 . S
H4021 C4032 0.950 . S
H4022 C4034 0.950 . S
H4023 C4035 0.950 . S
C4024 H4016 0.950 . S
C4024 C4025 1.386 . S
C4024 C4026 1.391 . S
C4025 C4024 1.386 . S
C4025 C4029 1.393 . S
C4026 H4018 0.950 . S
C4026 C4024 1.391 . S
C4026 C4027 1.400 . S
C4027 C4026 1.400 . S
C4027 C4028 1.398 . S
C4027 C4033 1.491 . S
C4028 H4019 0.950 . S
C4028 C4027 1.398 . S
C4028 C4029 1.391 . S
C4029 H4017 0.950 . S
C4029 C4025 1.393 . S
C4029 C4028 1.391 . S
C4030 H4020 0.950 . S
C4030 C4031 1.386 . S
C4030 C4032 1.391 . S
C4031 C4030 1.386 . S
C4031 C4035 1.393 . S
C4032 H4021 0.950 . S
C4032 C4030 1.391 . S
C4032 C4033 1.400 . S
C4033 C4027 1.491 . S
C4033 C4032 1.400 . S
C4033 C4034 1.398 . S
C4034 H4022 0.950 . S
C4034 C4033 1.398 . S
C4034 C4035 1.391 . S
C4035 H4023 0.950 . S
C4035 C4031 1.393 . S
C4035 C4034 1.391 . S
H4036 C4044 0.950 . S
H4037 C4049 0.950 . S
H4038 C4046 0.950 . S
H4039 C4048 0.950 . S
H4040 C4050 0.950 . S
H4041 C4052 0.950 . S
H4042 C4054 0.950 . S
H4043 C4055 0.950 . S
C4044 H4036 0.950 . S
C4044 C4045 1.386 . S
C4044 C4046 1.391 . S
C4045 C4044 1.386 . S
C4045 C4049 1.393 . S
C4046 H4038 0.950 . S
C4046 C4044 1.391 . S
C4046 C4047 1.400 . S
C4047 C4046 1.400 . S
C4047 C4048 1.398 . S
C4047 C4053 1.491 . S
C4048 H4039 0.950 . S
C4048 C4047 1.398 . S
C4048 C4049 1.391 . S
C4049 H4037 0.950 . S
C4049 C4045 1.393 . S
C4049 C4048 1.391 . S
C4050 H4040 0.950 . S
C4050 C4051 1.386 . S
C4050 C4052 1.391 . S
C4051 C4050 1.386 . S
C4051 C4055 1.393 . S
C4052 H4041 0.950 . S
C4052 C4050 1.391 . S
C4052 C4053 1.400 . S
C4053 C4047 1.491 . S
C4053 C4052 1.400 . S
C4053 C4054 1.398 . S
C4054 H4042 0.950 . S
C4054 C4053 1.398 . S
C4054 C4055 1.391 . S
C4055 H4043 0.950 . S
C4055 C4051 1.393 . S
C4055 C4054 1.391 . S
H4056 C4064 0.950 . S
H4057 C4069 0.950 . S
H4058 C4066 0.950 . S
H4059 C4068 0.950 . S
H4060 C4070 0.950 . S
H4061 C4072 0.950 . S
H4062 C4074 0.950 . S
H4063 C4075 0.950 . S
C4064 H4056 0.950 . S
C4064 C4065 1.386 . S
C4064 C4066 1.391 . S
C4065 C4064 1.386 . S
C4065 C4069 1.393 . S
C4066 H4058 0.950 . S
C4066 C4064 1.391 . S
C4066 C4067 1.400 . S
C4067 C4066 1.400 . S
C4067 C4068 1.398 . S
C4067 C4073 1.491 . S
C4068 H4059 0.950 . S
C4068 C4067 1.398 . S
C4068 C4069 1.391 . S
C4069 H4057 0.950 . S
C4069 C4065 1.393 . S
C4069 C4068 1.391 . S
C4070 H4060 0.950 . S
C4070 C4071 1.386 . S
C4070 C4072 1.391 . S
C4071 C4070 1.386 . S
C4071 C4075 1.393 . S
C4072 H4061 0.950 . S
C4072 C4070 1.391 . S
C4072 C4073 1.400 . S
C4073 C4067 1.491 . S
C4073 C4072 1.400 . S
C4073 C4074 1.398 . S
C4074 H4062 0.950 . S
C4074 C4073 1.398 . S
C4074 C4075 1.391 . S
C4075 H4063 0.950 . S
C4075 C4071 1.393 . S
C4075 C4074 1.391 . S
H4076 C4084 0.950 . S
H4077 C4089 0.950 . S
H4078 C4086 0.950 . S
H4079 C4088 0.950 . S
H4080 C4090 0.950 . S
H4081 C4092 0.950 . S
H4082 C4094 0.950 . S
H4083 C4095 0.950 . S
C4084 H4076 0.950 . S
C4084 C4085 1.386 . S
C4084 C4086 1.391 . S
C4085 C4084 1.386 . S
C4085 C4089 1.393 . S
C4086 H4078 0.950 . S
C4086 C4084 1.391 . S
C4086 C4087 1.400 . S
C4087 C4086 1.400 . S
C4087 C4088 1.398 . S
C4087 C4093 1.491 . S
C4088 H4079 0.950 . S
C4088 C4087 1.398 . S
C4088 C4089 1.391 . S
C4089 H4077 0.950 . S
C4089 C4085 1.393 . S
C4089 C4088 1.391 . S
C4090 H4080 0.950 . S
C4090 C4091 1.386 . S
C4090 C4092 1.391 . S
C4091 C4090 1.386 . S
C4091 C4095 1.393 . S
C4092 H4081 0.950 . S
C4092 C4090 1.391 . S
C4092 C4093 1.400 . S
C4093 C4087 1.491 . S
C4093 C4092 1.400 . S
C4093 C4094 1.398 . S
C4094 H4082 0.950 . S
C4094 C4093 1.398 . S
C4094 C4095 1.391 . S
C4095 H4083 0.950 . S
C4095 C4091 1.393 . S
C4095 C4094 1.391 . S
H4096 C4104 0.950 . S
H4097 C4109 0.950 . S
H4098 C4106 0.950 . S
H4099 C4108 0.950 . S
H4100 C4110 0.950 . S
H4101 C4112 0.950 . S
H4102 C4114 0.950 . S
H4103 C4115 0.950 . S
C4104 H4096 0.950 . S
C4104 C4105 1.386 . S
C4104 C4106 1.391 . S
C4105 C4104 1.386 . S
C4105 C4109 1.393 . S
C4106 H4098 0.950 . S
C4106 C4104 1.391 . S
C4106 C4107 1.400 . S
C4107 C4106 1.400 . S
C4107 C4108 1.398 . S
C4107 C4113 1.491 . S
C4108 H4099 0.950 . S
C4108 C4107 1.398 . S
C4108 C4109 1.391 . S
C4109 H4097 0.950 . S
C4109 C4105 1.393 . S
C4109 C4108 1.391 . S
C4110 H4100 0.950 . S
C4110 C4111 1.386 . S
C4110 C4112 1.391 . S
C4111 C4110 1.386 . S
C4111 C4115 1.393 . S
C4112 H4101 0.950 . S
C4112 C4110 1.391 . S
C4112 C4113 1.400 . S
C4113 C4107 1.491 . S
C4113 C4112 1.400 . S
C4113 C4114 1.398 . S
C4114 H4102 0.950 . S
C4114 C4113 1.398 . S
C4114 C4115 1.391 . S
C4115 H4103 0.950 . S
C4115 C4111 1.393 . S
C4115 C4114 1.391 . S
H4116 C4124 0.950 . S
H4117 C4129 0.950 . S
H4118 C4126 0.950 . S
H4119 C4128 0.950 . S
H4120 C4130 0.950 . S
H4121 C4132 0.950 . S
H4122 C4134 0.950 . S
H4123 C4135 0.950 . S
C4124 H4116 0.950 . S
C4124 C4125 1.386 . S
C4124 C4126 1.391 . S
C4125 C4124 1.386 . S
C4125 C4129 1.393 . S
C4126 H4118 0.950 . S
C4126 C4124 1.391 . S
C4126 C4127 1.400 . S
C4127 C4126 1.400 . S
C4127 C4128 1.398 . S
C4127 C4133 1.491 . S
C4128 H4119 0.950 . S
C4128 C4127 1.398 . S
C4128 C4129 1.391 . S
C4129 H4117 0.950 . S
C4129 C4125 1.393 . S
C4129 C4128 1.391 . S
C4130 H4120 0.950 . S
C4130 C4131 1.386 . S
C4130 C4132 1.391 . S
C4131 C4130 1.386 . S
C4131 C4135 1.393 . S
C4132 H4121 0.950 . S
C4132 C4130 1.391 . S
C4132 C4133 1.400 . S
C4133 C4127 1.491 . S
C4133 C4132 1.400 . S
C4133 C4134 1.398 . S
C4134 H4122 0.950 . S
C4134 C4133 1.398 . S
C4134 C4135 1.391 . S
C4135 H4123 0.950 . S
C4135 C4131 1.393 . S
C4135 C4134 1.391 . S
H4136 C4144 0.950 . S
H4137 C4149 0.950 . S
H4138 C4146 0.950 . S
H4139 C4148 0.950 . S
H4140 C4150 0.950 . S
H4141 C4152 0.950 . S
H4142 C4154 0.950 . S
H4143 C4155 0.950 . S
C4144 H4136 0.950 . S
C4144 C4145 1.386 . S
C4144 C4146 1.391 . S
C4145 C4144 1.386 . S
C4145 C4149 1.393 . S
C4146 H4138 0.950 . S
C4146 C4144 1.391 . S
C4146 C4147 1.400 . S
C4147 C4146 1.400 . S
C4147 C4148 1.398 . S
C4147 C4153 1.491 . S
C4148 H4139 0.950 . S
C4148 C4147 1.398 . S
C4148 C4149 1.391 . S
C4149 H4137 0.950 . S
C4149 C4145 1.393 . S
C4149 C4148 1.391 . S
C4150 H4140 0.950 . S
C4150 C4151 1.386 . S
C4150 C4152 1.391 . S
C4151 C4150 1.386 . S
C4151 C4155 1.393 . S
C4152 H4141 0.950 . S
C4152 C4150 1.391 . S
C4152 C4153 1.400 . S
C4153 C4147 1.491 . S
C4153 C4152 1.400 . S
C4153 C4154 1.398 . S
C4154 H4142 0.950 . S
C4154 C4153 1.398 . S
C4154 C4155 1.391 . S
C4155 H4143 0.950 . S
C4155 C4151 1.393 . S
C4155 C4154 1.391 . S
H4156 C4164 0.950 . S
H4157 C4169 0.950 . S
H4158 C4166 0.950 . S
H4159 C4168 0.950 . S
H4160 C4170 0.950 . S
H4161 C4172 0.950 . S
H4162 C4174 0.950 . S
H4163 C4175 0.950 . S
C4164 H4156 0.950 . S
C4164 C4165 1.386 . S
C4164 C4166 1.391 . S
C4165 C4164 1.386 . S
C4165 C4169 1.393 . S
C4166 H4158 0.950 . S
C4166 C4164 1.391 . S
C4166 C4167 1.400 . S
C4167 C4166 1.400 . S
C4167 C4168 1.398 . S
C4167 C4173 1.491 . S
C4168 H4159 0.950 . S
C4168 C4167 1.398 . S
C4168 C4169 1.391 . S
C4169 H4157 0.950 . S
C4169 C4165 1.393 . S
C4169 C4168 1.391 . S
C4170 H4160 0.950 . S
C4170 C4171 1.386 . S
C4170 C4172 1.391 . S
C4171 C4170 1.386 . S
C4171 C4175 1.393 . S
C4172 H4161 0.950 . S
C4172 C4170 1.391 . S
C4172 C4173 1.400 . S
C4173 C4167 1.491 . S
C4173 C4172 1.400 . S
C4173 C4174 1.398 . S
C4174 H4162 0.950 . S
C4174 C4173 1.398 . S
C4174 C4175 1.391 . S
C4175 H4163 0.950 . S
C4175 C4171 1.393 . S
C4175 C4174 1.391 . S
H4176 C4184 0.950 . S
H4177 C4189 0.950 . S
H4178 C4186 0.950 . S
H4179 C4188 0.950 . S
H4180 C4190 0.950 . S
H4181 C4192 0.950 . S
H4182 C4194 0.950 . S
H4183 C4195 0.950 . S
C4184 H4176 0.950 . S
C4184 C4185 1.386 . S
C4184 C4186 1.391 . S
C4185 C4184 1.386 . S
C4185 C4189 1.393 . S
C4186 H4178 0.950 . S
C4186 C4184 1.391 . S
C4186 C4187 1.400 . S
C4187 C4186 1.400 . S
C4187 C4188 1.398 . S
C4187 C4193 1.491 . S
C4188 H4179 0.950 . S
C4188 C4187 1.398 . S
C4188 C4189 1.391 . S
C4189 H4177 0.950 . S
C4189 C4185 1.393 . S
C4189 C4188 1.391 . S
C4190 H4180 0.950 . S
C4190 C4191 1.386 . S
C4190 C4192 1.391 . S
C4191 C4190 1.386 . S
C4191 C4195 1.393 . S
C4192 H4181 0.950 . S
C4192 C4190 1.391 . S
C4192 C4193 1.400 . S
C4193 C4187 1.491 . S
C4193 C4192 1.400 . S
C4193 C4194 1.398 . S
C4194 H4182 0.950 . S
C4194 C4193 1.398 . S
C4194 C4195 1.391 . S
C4195 H4183 0.950 . S
C4195 C4191 1.393 . S
C4195 C4194 1.391 . S
H4196 C4204 0.950 . S
H4197 C4209 0.950 . S
H4198 C4206 0.950 . S
H4199 C4208 0.950 . S
H4200 C4210 0.950 . S
H4201 C4212 0.950 . S
H4202 C4214 0.950 . S
H4203 C4215 0.950 . S
C4204 H4196 0.950 . S
C4204 C4205 1.386 . S
C4204 C4206 1.391 . S
C4205 C4204 1.386 . S
C4205 C4209 1.393 . S
C4206 H4198 0.950 . S
C4206 C4204 1.391 . S
C4206 C4207 1.400 . S
C4207 C4206 1.400 . S
C4207 C4208 1.398 . S
C4207 C4213 1.491 . S
C4208 H4199 0.950 . S
C4208 C4207 1.398 . S
C4208 C4209 1.391 . S
C4209 H4197 0.950 . S
C4209 C4205 1.393 . S
C4209 C4208 1.391 . S
C4210 H4200 0.950 . S
C4210 C4211 1.386 . S
C4210 C4212 1.391 . S
C4211 C4210 1.386 . S
C4211 C4215 1.393 . S
C4212 H4201 0.950 . S
C4212 C4210 1.391 . S
C4212 C4213 1.400 . S
C4213 C4207 1.491 . S
C4213 C4212 1.400 . S
C4213 C4214 1.398 . S
C4214 H4202 0.950 . S
C4214 C4213 1.398 . S
C4214 C4215 1.391 . S
C4215 H4203 0.950 . S
C4215 C4211 1.393 . S
C4215 C4214 1.391 . S
H4216 C4224 0.950 . S
H4217 C4229 0.950 . S
H4218 C4226 0.950 . S
H4219 C4228 0.950 . S
H4220 C4230 0.950 . S
H4221 C4232 0.950 . S
H4222 C4234 0.950 . S
H4223 C4235 0.950 . S
C4224 H4216 0.950 . S
C4224 C4225 1.386 . S
C4224 C4226 1.391 . S
C4225 C4224 1.386 . S
C4225 C4229 1.393 . S
C4226 H4218 0.950 . S
C4226 C4224 1.391 . S
C4226 C4227 1.400 . S
C4227 C4226 1.400 . S
C4227 C4228 1.398 . S
C4227 C4233 1.491 . S
C4228 H4219 0.950 . S
C4228 C4227 1.398 . S
C4228 C4229 1.391 . S
C4229 H4217 0.950 . S
C4229 C4225 1.393 . S
C4229 C4228 1.391 . S
C4230 H4220 0.950 . S
C4230 C4231 1.386 . S
C4230 C4232 1.391 . S
C4231 C4230 1.386 . S
C4231 C4235 1.393 . S
C4232 H4221 0.950 . S
C4232 C4230 1.391 . S
C4232 C4233 1.400 . S
C4233 C4227 1.491 . S
C4233 C4232 1.400 . S
C4233 C4234 1.398 . S
C4234 H4222 0.950 . S
C4234 C4233 1.398 . S
C4234 C4235 1.391 . S
C4235 H4223 0.950 . S
C4235 C4231 1.393 . S
C4235 C4234 1.391 . S
H4236 C4244 0.950 . S
H4237 C4249 0.950 . S
H4238 C4246 0.950 . S
H4239 C4248 0.950 . S
H4240 C4250 0.950 . S
H4241 C4252 0.950 . S
H4242 C4254 0.950 . S
H4243 C4255 0.950 . S
C4244 H4236 0.950 . S
C4244 C4245 1.386 . S
C4244 C4246 1.391 . S
C4245 C4244 1.386 . S
C4245 C4249 1.393 . S
C4246 H4238 0.950 . S
C4246 C4244 1.391 . S
C4246 C4247 1.400 . S
C4247 C4246 1.400 . S
C4247 C4248 1.398 . S
C4247 C4253 1.491 . S
C4248 H4239 0.950 . S
C4248 C4247 1.398 . S
C4248 C4249 1.391 . S
C4249 H4237 0.950 . S
C4249 C4245 1.393 . S
C4249 C4248 1.391 . S
C4250 H4240 0.950 . S
C4250 C4251 1.386 . S
C4250 C4252 1.391 . S
C4251 C4250 1.386 . S
C4251 C4255 1.393 . S
C4252 H4241 0.950 . S
C4252 C4250 1.391 . S
C4252 C4253 1.400 . S
C4253 C4247 1.491 . S
C4253 C4252 1.400 . S
C4253 C4254 1.398 . S
C4254 H4242 0.950 . S
C4254 C4253 1.398 . S
C4254 C4255 1.391 . S
C4255 H4243 0.950 . S
C4255 C4251 1.393 . S
C4255 C4254 1.391 . S
H4256 C4264 0.950 . S
H4257 C4269 0.950 . S
H4258 C4266 0.950 . S
H4259 C4268 0.950 . S
H4260 C4270 0.950 . S
H4261 C4272 0.950 . S
H4262 C4274 0.950 . S
H4263 C4275 0.950 . S
C4264 H4256 0.950 . S
C4264 C4265 1.386 . S
C4264 C4266 1.391 . S
C4265 C4264 1.386 . S
C4265 C4269 1.393 . S
C4266 H4258 0.950 . S
C4266 C4264 1.391 . S
C4266 C4267 1.400 . S
C4267 C4266 1.400 . S
C4267 C4268 1.398 . S
C4267 C4273 1.491 . S
C4268 H4259 0.950 . S
C4268 C4267 1.398 . S
C4268 C4269 1.391 . S
C4269 H4257 0.950 . S
C4269 C4265 1.393 . S
C4269 C4268 1.391 . S
C4270 H4260 0.950 . S
C4270 C4271 1.386 . S
C4270 C4272 1.391 . S
C4271 C4270 1.386 . S
C4271 C4275 1.393 . S
C4272 H4261 0.950 . S
C4272 C4270 1.391 . S
C4272 C4273 1.400 . S
C4273 C4267 1.491 . S
C4273 C4272 1.400 . S
C4273 C4274 1.398 . S
C4274 H4262 0.950 . S
C4274 C4273 1.398 . S
C4274 C4275 1.391 . S
C4275 H4263 0.950 . S
C4275 C4271 1.393 . S
C4275 C4274 1.391 . S
H4276 C4284 0.950 . S
H4277 C4289 0.950 . S
H4278 C4286 0.950 . S
H4279 C4288 0.950 . S
H4280 C4290 0.950 . S
H4281 C4292 0.950 . S
H4282 C4294 0.950 . S
H4283 C4295 0.950 . S
C4284 H4276 0.950 . S
C4284 C4285 1.386 . S
C4284 C4286 1.391 . S
C4285 C4284 1.386 . S
C4285 C4289 1.393 . S
C4286 H4278 0.950 . S
C4286 C4284 1.391 . S
C4286 C4287 1.400 . S
C4287 C4286 1.400 . S
C4287 C4288 1.398 . S
C4287 C4293 1.491 . S
C4288 H4279 0.950 . S
C4288 C4287 1.398 . S
C4288 C4289 1.391 . S
C4289 H4277 0.950 . S
C4289 C4285 1.393 . S
C4289 C4288 1.391 . S
C4290 H4280 0.950 . S
C4290 C4291 1.386 . S
C4290 C4292 1.391 . S
C4291 C4290 1.386 . S
C4291 C4295 1.393 . S
C4292 H4281 0.950 . S
C4292 C4290 1.391 . S
C4292 C4293 1.400 . S
C4293 C4287 1.491 . S
C4293 C4292 1.400 . S
C4293 C4294 1.398 . S
C4294 H4282 0.950 . S
C4294 C4293 1.398 . S
C4294 C4295 1.391 . S
C4295 H4283 0.950 . S
C4295 C4291 1.393 . S
C4295 C4294 1.391 . S
H4296 C4304 0.950 . S
H4297 C4309 0.950 . S
H4298 C4306 0.950 . S
H4299 C4308 0.950 . S
H4300 C4310 0.950 . S
H4301 C4312 0.950 . S
H4302 C4314 0.950 . S
H4303 C4315 0.950 . S
C4304 H4296 0.950 . S
C4304 C4305 1.386 . S
C4304 C4306 1.391 . S
C4305 C4304 1.386 . S
C4305 C4309 1.393 . S
C4306 H4298 0.950 . S
C4306 C4304 1.391 . S
C4306 C4307 1.400 . S
C4307 C4306 1.400 . S
C4307 C4308 1.398 . S
C4307 C4313 1.491 . S
C4308 H4299 0.950 . S
C4308 C4307 1.398 . S
C4308 C4309 1.391 . S
C4309 H4297 0.950 . S
C4309 C4305 1.393 . S
C4309 C4308 1.391 . S
C4310 H4300 0.950 . S
C4310 C4311 1.386 . S
C4310 C4312 1.391 . S
C4311 C4310 1.386 . S
C4311 C4315 1.393 . S
C4312 H4301 0.950 . S
C4312 C4310 1.391 . S
C4312 C4313 1.400 . S
C4313 C4307 1.491 . S
C4313 C4312 1.400 . S
C4313 C4314 1.398 . S
C4314 H4302 0.950 . S
C4314 C4313 1.398 . S
C4314 C4315 1.391 . S
C4315 H4303 0.950 . S
C4315 C4311 1.393 . S
C4315 C4314 1.391 . S
H4316 C4324 0.950 . S
H4317 C4329 0.950 . S
H4318 C4326 0.950 . S
H4319 C4328 0.950 . S
H4320 C4330 0.950 . S
H4321 C4332 0.950 . S
H4322 C4334 0.950 . S
H4323 C4335 0.950 . S
C4324 H4316 0.950 . S
C4324 C4325 1.386 . S
C4324 C4326 1.391 . S
C4325 C4324 1.386 . S
C4325 C4329 1.393 . S
C4326 H4318 0.950 . S
C4326 C4324 1.391 . S
C4326 C4327 1.400 . S
C4327 C4326 1.400 . S
C4327 C4328 1.398 . S
C4327 C4333 1.491 . S
C4328 H4319 0.950 . S
C4328 C4327 1.398 . S
C4328 C4329 1.391 . S
C4329 H4317 0.950 . S
C4329 C4325 1.393 . S
C4329 C4328 1.391 . S
C4330 H4320 0.950 . S
C4330 C4331 1.386 . S
C4330 C4332 1.391 . S
C4331 C4330 1.386 . S
C4331 C4335 1.393 . S
C4332 H4321 0.950 . S
C4332 C4330 1.391 . S
C4332 C4333 1.400 . S
C4333 C4327 1.491 . S
C4333 C4332 1.400 . S
C4333 C4334 1.398 . S
C4334 H4322 0.950 . S
C4334 C4333 1.398 . S
C4334 C4335 1.391 . S
C4335 H4323 0.950 . S
C4335 C4331 1.393 . S
C4335 C4334 1.391 . S
H4336 C4344 0.950 . S
H4337 C4349 0.950 . S
H4338 C4346 0.950 . S
H4339 C4348 0.950 . S
H4340 C4350 0.950 . S
H4341 C4352 0.950 . S
H4342 C4354 0.950 . S
H4343 C4355 0.950 . S
C4344 H4336 0.950 . S
C4344 C4345 1.386 . S
C4344 C4346 1.391 . S
C4345 C4344 1.386 . S
C4345 C4349 1.393 . S
C4346 H4338 0.950 . S
C4346 C4344 1.391 . S
C4346 C4347 1.400 . S
C4347 C4346 1.400 . S
C4347 C4348 1.398 . S
C4347 C4353 1.491 . S
C4348 H4339 0.950 . S
C4348 C4347 1.398 . S
C4348 C4349 1.391 . S
C4349 H4337 0.950 . S
C4349 C4345 1.393 . S
C4349 C4348 1.391 . S
C4350 H4340 0.950 . S
C4350 C4351 1.386 . S
C4350 C4352 1.391 . S
C4351 C4350 1.386 . S
C4351 C4355 1.393 . S
C4352 H4341 0.950 . S
C4352 C4350 1.391 . S
C4352 C4353 1.400 . S
C4353 C4347 1.491 . S
C4353 C4352 1.400 . S
C4353 C4354 1.398 . S
C4354 H4342 0.950 . S
C4354 C4353 1.398 . S
C4354 C4355 1.391 . S
C4355 H4343 0.950 . S
C4355 C4351 1.393 . S
C4355 C4354 1.391 . S
H4356 C4364 0.950 . S
H4357 C4369 0.950 . S
H4358 C4366 0.950 . S
H4359 C4368 0.950 . S
H4360 C4370 0.950 . S
H4361 C4372 0.950 . S
H4362 C4374 0.950 . S
H4363 C4375 0.950 . S
C4364 H4356 0.950 . S
C4364 C4365 1.386 . S
C4364 C4366 1.391 . S
C4365 C4364 1.386 . S
C4365 C4369 1.393 . S
C4366 H4358 0.950 . S
C4366 C4364 1.391 . S
C4366 C4367 1.400 . S
C4367 C4366 1.400 . S
C4367 C4368 1.398 . S
C4367 C4373 1.491 . S
C4368 H4359 0.950 . S
C4368 C4367 1.398 . S
C4368 C4369 1.391 . S
C4369 H4357 0.950 . S
C4369 C4365 1.393 . S
C4369 C4368 1.391 . S
C4370 H4360 0.950 . S
C4370 C4371 1.386 . S
C4370 C4372 1.391 . S
C4371 C4370 1.386 . S
C4371 C4375 1.393 . S
C4372 H4361 0.950 . S
C4372 C4370 1.391 . S
C4372 C4373 1.400 . S
C4373 C4367 1.491 . S
C4373 C4372 1.400 . S
C4373 C4374 1.398 . S
C4374 H4362 0.950 . S
C4374 C4373 1.398 . S
C4374 C4375 1.391 . S
C4375 H4363 0.950 . S
C4375 C4371 1.393 . S
C4375 C4374 1.391 . S
H4376 C4384 0.950 . S
H4377 C4389 0.950 . S
H4378 C4386 0.950 . S
H4379 C4388 0.950 . S
H4380 C4390 0.950 . S
H4381 C4392 0.950 . S
H4382 C4394 0.950 . S
H4383 C4395 0.950 . S
C4384 H4376 0.950 . S
C4384 C4385 1.386 . S
C4384 C4386 1.391 . S
C4385 C4384 1.386 . S
C4385 C4389 1.393 . S
C4386 H4378 0.950 . S
C4386 C4384 1.391 . S
C4386 C4387 1.400 . S
C4387 C4386 1.400 . S
C4387 C4388 1.398 . S
C4387 C4393 1.491 . S
C4388 H4379 0.950 . S
C4388 C4387 1.398 . S
C4388 C4389 1.391 . S
C4389 H4377 0.950 . S
C4389 C4385 1.393 . S
C4389 C4388 1.391 . S
C4390 H4380 0.950 . S
C4390 C4391 1.386 . S
C4390 C4392 1.391 . S
C4391 C4390 1.386 . S
C4391 C4395 1.393 . S
C4392 H4381 0.950 . S
C4392 C4390 1.391 . S
C4392 C4393 1.400 . S
C4393 C4387 1.491 . S
C4393 C4392 1.400 . S
C4393 C4394 1.398 . S
C4394 H4382 0.950 . S
C4394 C4393 1.398 . S
C4394 C4395 1.391 . S
C4395 H4383 0.950 . S
C4395 C4391 1.393 . S
C4395 C4394 1.391 . S
H4396 C4404 0.950 . S
H4397 C4409 0.950 . S
H4398 C4406 0.950 . S
H4399 C4408 0.950 . S
H4400 C4410 0.950 . S
H4401 C4412 0.950 . S
H4402 C4414 0.950 . S
H4403 C4415 0.950 . S
C4404 H4396 0.950 . S
C4404 C4405 1.386 . S
C4404 C4406 1.391 . S
C4405 C4404 1.386 . S
C4405 C4409 1.393 . S
C4406 H4398 0.950 . S
C4406 C4404 1.391 . S
C4406 C4407 1.400 . S
C4407 C4406 1.400 . S
C4407 C4408 1.398 . S
C4407 C4413 1.491 . S
C4408 H4399 0.950 . S
C4408 C4407 1.398 . S
C4408 C4409 1.391 . S
C4409 H4397 0.950 . S
C4409 C4405 1.393 . S
C4409 C4408 1.391 . S
C4410 H4400 0.950 . S
C4410 C4411 1.386 . S
C4410 C4412 1.391 . S
C4411 C4410 1.386 . S
C4411 C4415 1.393 . S
C4412 H4401 0.950 . S
C4412 C4410 1.391 . S
C4412 C4413 1.400 . S
C4413 C4407 1.491 . S
C4413 C4412 1.400 . S
C4413 C4414 1.398 . S
C4414 H4402 0.950 . S
C4414 C4413 1.398 . S
C4414 C4415 1.391 . S
C4415 H4403 0.950 . S
C4415 C4411 1.393 . S
C4415 C4414 1.391 . S
H4416 C4424 0.950 . S
H4417 C4429 0.950 . S
H4418 C4426 0.950 . S
H4419 C4428 0.950 . S
H4420 C4430 0.950 . S
H4421 C4432 0.950 . S
H4422 C4434 0.950 . S
H4423 C4435 0.950 . S
C4424 H4416 0.950 . S
C4424 C4425 1.386 . S
C4424 C4426 1.391 . S
C4425 C4424 1.386 . S
C4425 C4429 1.393 . S
C4426 H4418 0.950 . S
C4426 C4424 1.391 . S
C4426 C4427 1.400 . S
C4427 C4426 1.400 . S
C4427 C4428 1.398 . S
C4427 C4433 1.491 . S
C4428 H4419 0.950 . S
C4428 C4427 1.398 . S
C4428 C4429 1.391 . S
C4429 H4417 0.950 . S
C4429 C4425 1.393 . S
C4429 C4428 1.391 . S
C4430 H4420 0.950 . S
C4430 C4431 1.386 . S
C4430 C4432 1.391 . S
C4431 C4430 1.386 . S
C4431 C4435 1.393 . S
C4432 H4421 0.950 . S
C4432 C4430 1.391 . S
C4432 C4433 1.400 . S
C4433 C4427 1.491 . S
C4433 C4432 1.400 . S
C4433 C4434 1.398 . S
C4434 H4422 0.950 . S
C4434 C4433 1.398 . S
C4434 C4435 1.391 . S
C4435 H4423 0.950 . S
C4435 C4431 1.393 . S
C4435 C4434 1.391 . S
H4436 C4444 0.950 . S
H4437 C4449 0.950 . S
H4438 C4446 0.950 . S
H4439 C4448 0.950 . S
H4440 C4450 0.950 . S
H4441 C4452 0.950 . S
H4442 C4454 0.950 . S
H4443 C4455 0.950 . S
C4444 H4436 0.950 . S
C4444 C4445 1.386 . S
C4444 C4446 1.391 . S
C4445 C4444 1.386 . S
C4445 C4449 1.393 . S
C4446 H4438 0.950 . S
C4446 C4444 1.391 . S
C4446 C4447 1.400 . S
C4447 C4446 1.400 . S
C4447 C4448 1.398 . S
C4447 C4453 1.491 . S
C4448 H4439 0.950 . S
C4448 C4447 1.398 . S
C4448 C4449 1.391 . S
C4449 H4437 0.950 . S
C4449 C4445 1.393 . S
C4449 C4448 1.391 . S
C4450 H4440 0.950 . S
C4450 C4451 1.386 . S
C4450 C4452 1.391 . S
C4451 C4450 1.386 . S
C4451 C4455 1.393 . S
C4452 H4441 0.950 . S
C4452 C4450 1.391 . S
C4452 C4453 1.400 . S
C4453 C4447 1.491 . S
C4453 C4452 1.400 . S
C4453 C4454 1.398 . S
C4454 H4442 0.950 . S
C4454 C4453 1.398 . S
C4454 C4455 1.391 . S
C4455 H4443 0.950 . S
C4455 C4451 1.393 . S
C4455 C4454 1.391 . S
H4456 C4464 0.950 . S
H4457 C4469 0.950 . S
H4458 C4466 0.950 . S
H4459 C4468 0.950 . S
H4460 C4470 0.950 . S
H4461 C4472 0.950 . S
H4462 C4474 0.950 . S
H4463 C4475 0.950 . S
C4464 H4456 0.950 . S
C4464 C4465 1.386 . S
C4464 C4466 1.391 . S
C4465 C4464 1.386 . S
C4465 C4469 1.393 . S
C4466 H4458 0.950 . S
C4466 C4464 1.391 . S
C4466 C4467 1.400 . S
C4467 C4466 1.400 . S
C4467 C4468 1.398 . S
C4467 C4473 1.491 . S
C4468 H4459 0.950 . S
C4468 C4467 1.398 . S
C4468 C4469 1.391 . S
C4469 H4457 0.950 . S
C4469 C4465 1.393 . S
C4469 C4468 1.391 . S
C4470 H4460 0.950 . S
C4470 C4471 1.386 . S
C4470 C4472 1.391 . S
C4471 C4470 1.386 . S
C4471 C4475 1.393 . S
C4472 H4461 0.950 . S
C4472 C4470 1.391 . S
C4472 C4473 1.400 . S
C4473 C4467 1.491 . S
C4473 C4472 1.400 . S
C4473 C4474 1.398 . S
C4474 H4462 0.950 . S
C4474 C4473 1.398 . S
C4474 C4475 1.391 . S
C4475 H4463 0.950 . S
C4475 C4471 1.393 . S
C4475 C4474 1.391 . S
H4476 C4484 0.950 . S
H4477 C4489 0.950 . S
H4478 C4486 0.950 . S
H4479 C4488 0.950 . S
H4480 C4490 0.950 . S
H4481 C4492 0.950 . S
H4482 C4494 0.950 . S
H4483 C4495 0.950 . S
C4484 H4476 0.950 . S
C4484 C4485 1.386 . S
C4484 C4486 1.391 . S
C4485 C4484 1.386 . S
C4485 C4489 1.393 . S
C4486 H4478 0.950 . S
C4486 C4484 1.391 . S
C4486 C4487 1.400 . S
C4487 C4486 1.400 . S
C4487 C4488 1.398 . S
C4487 C4493 1.491 . S
C4488 H4479 0.950 . S
C4488 C4487 1.398 . S
C4488 C4489 1.391 . S
C4489 H4477 0.950 . S
C4489 C4485 1.393 . S
C4489 C4488 1.391 . S
C4490 H4480 0.950 . S
C4490 C4491 1.386 . S
C4490 C4492 1.391 . S
C4491 C4490 1.386 . S
C4491 C4495 1.393 . S
C4492 H4481 0.950 . S
C4492 C4490 1.391 . S
C4492 C4493 1.400 . S
C4493 C4487 1.491 . S
C4493 C4492 1.400 . S
C4493 C4494 1.398 . S
C4494 H4482 0.950 . S
C4494 C4493 1.398 . S
C4494 C4495 1.391 . S
C4495 H4483 0.950 . S
C4495 C4491 1.393 . S
C4495 C4494 1.391 . S
H4496 C4504 0.950 . S
H4497 C4509 0.950 . S
H4498 C4506 0.950 . S
H4499 C4508 0.950 . S
H4500 C4510 0.950 . S
H4501 C4512 0.950 . S
H4502 C4514 0.950 . S
H4503 C4515 0.950 . S
C4504 H4496 0.950 . S
C4504 C4505 1.386 . S
C4504 C4506 1.391 . S
C4505 C4504 1.386 . S
C4505 C4509 1.393 . S
C4506 H4498 0.950 . S
C4506 C4504 1.391 . S
C4506 C4507 1.400 . S
C4507 C4506 1.400 . S
C4507 C4508 1.398 . S
C4507 C4513 1.491 . S
C4508 H4499 0.950 . S
C4508 C4507 1.398 . S
C4508 C4509 1.391 . S
C4509 H4497 0.950 . S
C4509 C4505 1.393 . S
C4509 C4508 1.391 . S
C4510 H4500 0.950 . S
C4510 C4511 1.386 . S
C4510 C4512 1.391 . S
C4511 C4510 1.386 . S
C4511 C4515 1.393 . S
C4512 H4501 0.950 . S
C4512 C4510 1.391 . S
C4512 C4513 1.400 . S
C4513 C4507 1.491 . S
C4513 C4512 1.400 . S
C4513 C4514 1.398 . S
C4514 H4502 0.950 . S
C4514 C4513 1.398 . S
C4514 C4515 1.391 . S
C4515 H4503 0.950 . S
C4515 C4511 1.393 . S
C4515 C4514 1.391 . S
H4516 C4524 0.950 . S
H4517 C4529 0.950 . S
H4518 C4526 0.950 . S
H4519 C4528 0.950 . S
H4520 C4530 0.950 . S
H4521 C4532 0.950 . S
H4522 C4534 0.950 . S
H4523 C4535 0.950 . S
C4524 H4516 0.950 . S
C4524 C4525 1.386 . S
C4524 C4526 1.391 . S
C4525 C4524 1.386 . S
C4525 C4529 1.393 . S
C4526 H4518 0.950 . S
C4526 C4524 1.391 . S
C4526 C4527 1.400 . S
C4527 C4526 1.400 . S
C4527 C4528 1.398 . S
C4527 C4533 1.491 . S
C4528 H4519 0.950 . S
C4528 C4527 1.398 . S
C4528 C4529 1.391 . S
C4529 H4517 0.950 . S
C4529 C4525 1.393 . S
C4529 C4528 1.391 . S
C4530 H4520 0.950 . S
C4530 C4531 1.386 . S
C4530 C4532 1.391 . S
C4531 C4530 1.386 . S
C4531 C4535 1.393 . S
C4532 H4521 0.950 . S
C4532 C4530 1.391 . S
C4532 C4533 1.400 . S
C4533 C4527 1.491 . S
C4533 C4532 1.400 . S
C4533 C4534 1.398 . S
C4534 H4522 0.950 . S
C4534 C4533 1.398 . S
C4534 C4535 1.391 . S
C4535 H4523 0.950 . S
C4535 C4531 1.393 . S
C4535 C4534 1.391 . S
H4536 C4544 0.950 . S
H4537 C4549 0.950 . S
H4538 C4546 0.950 . S
H4539 C4548 0.950 . S
H4540 C4550 0.950 . S
H4541 C4552 0.950 . S
H4542 C4554 0.950 . S
H4543 C4555 0.950 . S
C4544 H4536 0.950 . S
C4544 C4545 1.386 . S
C4544 C4546 1.391 . S
C4545 C4544 1.386 . S
C4545 C4549 1.393 . S
C4546 H4538 0.950 . S
C4546 C4544 1.391 . S
C4546 C4547 1.400 . S
C4547 C4546 1.400 . S
C4547 C4548 1.398 . S
C4547 C4553 1.491 . S
C4548 H4539 0.950 . S
C4548 C4547 1.398 . S
C4548 C4549 1.391 . S
C4549 H4537 0.950 . S
C4549 C4545 1.393 . S
C4549 C4548 1.391 . S
C4550 H4540 0.950 . S
C4550 C4551 1.386 . S
C4550 C4552 1.391 . S
C4551 C4550 1.386 . S
C4551 C4555 1.393 . S
C4552 H4541 0.950 . S
C4552 C4550 1.391 . S
C4552 C4553 1.400 . S
C4553 C4547 1.491 . S
C4553 C4552 1.400 . S
C4553 C4554 1.398 . S
C4554 H4542 0.950 . S
C4554 C4553 1.398 . S
C4554 C4555 1.391 . S
C4555 H4543 0.950 . S
C4555 C4551 1.393 . S
C4555 C4554 1.391 . S
H4556 C4564 0.950 . S
H4557 C4569 0.950 . S
H4558 C4566 0.950 . S
H4559 C4568 0.950 . S
H4560 C4570 0.950 . S
H4561 C4572 0.950 . S
H4562 C4574 0.950 . S
H4563 C4575 0.950 . S
C4564 H4556 0.950 . S
C4564 C4565 1.386 . S
C4564 C4566 1.391 . S
C4565 C4564 1.386 . S
C4565 C4569 1.393 . S
C4566 H4558 0.950 . S
C4566 C4564 1.391 . S
C4566 C4567 1.400 . S
C4567 C4566 1.400 . S
C4567 C4568 1.398 . S
C4567 C4573 1.491 . S
C4568 H4559 0.950 . S
C4568 C4567 1.398 . S
C4568 C4569 1.391 . S
C4569 H4557 0.950 . S
C4569 C4565 1.393 . S
C4569 C4568 1.391 . S
C4570 H4560 0.950 . S
C4570 C4571 1.386 . S
C4570 C4572 1.391 . S
C4571 C4570 1.386 . S
C4571 C4575 1.393 . S
C4572 H4561 0.950 . S
C4572 C4570 1.391 . S
C4572 C4573 1.400 . S
C4573 C4567 1.491 . S
C4573 C4572 1.400 . S
C4573 C4574 1.398 . S
C4574 H4562 0.950 . S
C4574 C4573 1.398 . S
C4574 C4575 1.391 . S
C4575 H4563 0.950 . S
C4575 C4571 1.393 . S
C4575 C4574 1.391 . S
H4576 C4584 0.950 . S
H4577 C4589 0.950 . S
H4578 C4586 0.950 . S
H4579 C4588 0.950 . S
H4580 C4590 0.950 . S
H4581 C4592 0.950 . S
H4582 C4594 0.950 . S
H4583 C4595 0.950 . S
C4584 H4576 0.950 . S
C4584 C4585 1.386 . S
C4584 C4586 1.391 . S
C4585 C4584 1.386 . S
C4585 C4589 1.393 . S
C4586 H4578 0.950 . S
C4586 C4584 1.391 . S
C4586 C4587 1.400 . S
C4587 C4586 1.400 . S
C4587 C4588 1.398 . S
C4587 C4593 1.491 . S
C4588 H4579 0.950 . S
C4588 C4587 1.398 . S
C4588 C4589 1.391 . S
C4589 H4577 0.950 . S
C4589 C4585 1.393 . S
C4589 C4588 1.391 . S
C4590 H4580 0.950 . S
C4590 C4591 1.386 . S
C4590 C4592 1.391 . S
C4591 C4590 1.386 . S
C4591 C4595 1.393 . S
C4592 H4581 0.950 . S
C4592 C4590 1.391 . S
C4592 C4593 1.400 . S
C4593 C4587 1.491 . S
C4593 C4592 1.400 . S
C4593 C4594 1.398 . S
C4594 H4582 0.950 . S
C4594 C4593 1.398 . S
C4594 C4595 1.391 . S
C4595 H4583 0.950 . S
C4595 C4591 1.393 . S
C4595 C4594 1.391 . S
H4596 C4604 0.950 . S
H4597 C4609 0.950 . S
H4598 C4606 0.950 . S
H4599 C4608 0.950 . S
H4600 C4610 0.950 . S
H4601 C4612 0.950 . S
H4602 C4614 0.950 . S
H4603 C4615 0.950 . S
C4604 H4596 0.950 . S
C4604 C4605 1.386 . S
C4604 C4606 1.391 . S
C4605 C4604 1.386 . S
C4605 C4609 1.393 . S
C4606 H4598 0.950 . S
C4606 C4604 1.391 . S
C4606 C4607 1.400 . S
C4607 C4606 1.400 . S
C4607 C4608 1.398 . S
C4607 C4613 1.491 . S
C4608 H4599 0.950 . S
C4608 C4607 1.398 . S
C4608 C4609 1.391 . S
C4609 H4597 0.950 . S
C4609 C4605 1.393 . S
C4609 C4608 1.391 . S
C4610 H4600 0.950 . S
C4610 C4611 1.386 . S
C4610 C4612 1.391 . S
C4611 C4610 1.386 . S
C4611 C4615 1.393 . S
C4612 H4601 0.950 . S
C4612 C4610 1.391 . S
C4612 C4613 1.400 . S
C4613 C4607 1.491 . S
C4613 C4612 1.400 . S
C4613 C4614 1.398 . S
C4614 H4602 0.950 . S
C4614 C4613 1.398 . S
C4614 C4615 1.391 . S
C4615 H4603 0.950 . S
C4615 C4611 1.393 . S
C4615 C4614 1.391 . S
H4616 C4624 0.950 . S
H4617 C4629 0.950 . S
H4618 C4626 0.950 . S
H4619 C4628 0.950 . S
H4620 C4630 0.950 . S
H4621 C4632 0.950 . S
H4622 C4634 0.950 . S
H4623 C4635 0.950 . S
C4624 H4616 0.950 . S
C4624 C4625 1.386 . S
C4624 C4626 1.391 . S
C4625 C4624 1.386 . S
C4625 C4629 1.393 . S
C4626 H4618 0.950 . S
C4626 C4624 1.391 . S
C4626 C4627 1.400 . S
C4627 C4626 1.400 . S
C4627 C4628 1.398 . S
C4627 C4633 1.491 . S
C4628 H4619 0.950 . S
C4628 C4627 1.398 . S
C4628 C4629 1.391 . S
C4629 H4617 0.950 . S
C4629 C4625 1.393 . S
C4629 C4628 1.391 . S
C4630 H4620 0.950 . S
C4630 C4631 1.386 . S
C4630 C4632 1.391 . S
C4631 C4630 1.386 . S
C4631 C4635 1.393 . S
C4632 H4621 0.950 . S
C4632 C4630 1.391 . S
C4632 C4633 1.400 . S
C4633 C4627 1.491 . S
C4633 C4632 1.400 . S
C4633 C4634 1.398 . S
C4634 H4622 0.950 . S
C4634 C4633 1.398 . S
C4634 C4635 1.391 . S
C4635 H4623 0.950 . S
C4635 C4631 1.393 . S
C4635 C4634 1.391 . S
H4636 C4644 0.950 . S
H4637 C4649 0.950 . S
H4638 C4646 0.950 . S
H4639 C4648 0.950 . S
H4640 C4650 0.950 . S
H4641 C4652 0.950 . S
H4642 C4654 0.950 . S
H4643 C4655 0.950 . S
C4644 H4636 0.950 . S
C4644 C4645 1.386 . S
C4644 C4646 1.391 . S
C4645 C4644 1.386 . S
C4645 C4649 1.393 . S
C4646 H4638 0.950 . S
C4646 C4644 1.391 . S
C4646 C4647 1.400 . S
C4647 C4646 1.400 . S
C4647 C4648 1.398 . S
C4647 C4653 1.491 . S
C4648 H4639 0.950 . S
C4648 C4647 1.398 . S
C4648 C4649 1.391 . S
C4649 H4637 0.950 . S
C4649 C4645 1.393 . S
C4649 C4648 1.391 . S
C4650 H4640 0.950 . S
C4650 C4651 1.386 . S
C4650 C4652 1.391 . S
C4651 C4650 1.386 . S
C4651 C4655 1.393 . S
C4652 H4641 0.950 . S
C4652 C4650 1.391 . S
C4652 C4653 1.400 . S
C4653 C4647 1.491 . S
C4653 C4652 1.400 . S
C4653 C4654 1.398 . S
C4654 H4642 0.950 . S
C4654 C4653 1.398 . S
C4654 C4655 1.391 . S
C4655 H4643 0.950 . S
C4655 C4651 1.393 . S
C4655 C4654 1.391 . S
H4656 C4664 0.950 . S
H4657 C4669 0.950 . S
H4658 C4666 0.950 . S
H4659 C4668 0.950 . S
H4660 C4670 0.950 . S
H4661 C4672 0.950 . S
H4662 C4674 0.950 . S
H4663 C4675 0.950 . S
C4664 H4656 0.950 . S
C4664 C4665 1.386 . S
C4664 C4666 1.391 . S
C4665 C4664 1.386 . S
C4665 C4669 1.393 . S
C4666 H4658 0.950 . S
C4666 C4664 1.391 . S
C4666 C4667 1.400 . S
C4667 C4666 1.400 . S
C4667 C4668 1.398 . S
C4667 C4673 1.491 . S
C4668 H4659 0.950 . S
C4668 C4667 1.398 . S
C4668 C4669 1.391 . S
C4669 H4657 0.950 . S
C4669 C4665 1.393 . S
C4669 C4668 1.391 . S
C4670 H4660 0.950 . S
C4670 C4671 1.386 . S
C4670 C4672 1.391 . S
C4671 C4670 1.386 . S
C4671 C4675 1.393 . S
C4672 H4661 0.950 . S
C4672 C4670 1.391 . S
C4672 C4673 1.400 . S
C4673 C4667 1.491 . S
C4673 C4672 1.400 . S
C4673 C4674 1.398 . S
C4674 H4662 0.950 . S
C4674 C4673 1.398 . S
C4674 C4675 1.391 . S
C4675 H4663 0.950 . S
C4675 C4671 1.393 . S
C4675 C4674 1.391 . S
H4676 C4684 0.950 . S
H4677 C4689 0.950 . S
H4678 C4686 0.950 . S
H4679 C4688 0.950 . S
H4680 C4690 0.950 . S
H4681 C4692 0.950 . S
H4682 C4694 0.950 . S
H4683 C4695 0.950 . S
C4684 H4676 0.950 . S
C4684 C4685 1.386 . S
C4684 C4686 1.391 . S
C4685 C4684 1.386 . S
C4685 C4689 1.393 . S
C4686 H4678 0.950 . S
C4686 C4684 1.391 . S
C4686 C4687 1.400 . S
C4687 C4686 1.400 . S
C4687 C4688 1.398 . S
C4687 C4693 1.491 . S
C4688 H4679 0.950 . S
C4688 C4687 1.398 . S
C4688 C4689 1.391 . S
C4689 H4677 0.950 . S
C4689 C4685 1.393 . S
C4689 C4688 1.391 . S
C4690 H4680 0.950 . S
C4690 C4691 1.386 . S
C4690 C4692 1.391 . S
C4691 C4690 1.386 . S
C4691 C4695 1.393 . S
C4692 H4681 0.950 . S
C4692 C4690 1.391 . S
C4692 C4693 1.400 . S
C4693 C4687 1.491 . S
C4693 C4692 1.400 . S
C4693 C4694 1.398 . S
C4694 H4682 0.950 . S
C4694 C4693 1.398 . S
C4694 C4695 1.391 . S
C4695 H4683 0.950 . S
C4695 C4691 1.393 . S
C4695 C4694 1.391 . S
H4696 C4704 0.950 . S
H4697 C4709 0.950 . S
H4698 C4706 0.950 . S
H4699 C4708 0.950 . S
H4700 C4710 0.950 . S
H4701 C4712 0.950 . S
H4702 C4714 0.950 . S
H4703 C4715 0.950 . S
C4704 H4696 0.950 . S
C4704 C4705 1.386 . S
C4704 C4706 1.391 . S
C4705 C4704 1.386 . S
C4705 C4709 1.393 . S
C4706 H4698 0.950 . S
C4706 C4704 1.391 . S
C4706 C4707 1.400 . S
C4707 C4706 1.400 . S
C4707 C4708 1.398 . S
C4707 C4713 1.491 . S
C4708 H4699 0.950 . S
C4708 C4707 1.398 . S
C4708 C4709 1.391 . S
C4709 H4697 0.950 . S
C4709 C4705 1.393 . S
C4709 C4708 1.391 . S
C4710 H4700 0.950 . S
C4710 C4711 1.386 . S
C4710 C4712 1.391 . S
C4711 C4710 1.386 . S
C4711 C4715 1.393 . S
C4712 H4701 0.950 . S
C4712 C4710 1.391 . S
C4712 C4713 1.400 . S
C4713 C4707 1.491 . S
C4713 C4712 1.400 . S
C4713 C4714 1.398 . S
C4714 H4702 0.950 . S
C4714 C4713 1.398 . S
C4714 C4715 1.391 . S
C4715 H4703 0.950 . S
C4715 C4711 1.393 . S
C4715 C4714 1.391 . S
H4716 C4724 0.950 . S
H4717 C4729 0.950 . S
H4718 C4726 0.950 . S
H4719 C4728 0.950 . S
H4720 C4730 0.950 . S
H4721 C4732 0.950 . S
H4722 C4734 0.950 . S
H4723 C4735 0.950 . S
C4724 H4716 0.950 . S
C4724 C4725 1.386 . S
C4724 C4726 1.391 . S
C4725 C4724 1.386 . S
C4725 C4729 1.393 . S
C4726 H4718 0.950 . S
C4726 C4724 1.391 . S
C4726 C4727 1.400 . S
C4727 C4726 1.400 . S
C4727 C4728 1.398 . S
C4727 C4733 1.491 . S
C4728 H4719 0.950 . S
C4728 C4727 1.398 . S
C4728 C4729 1.391 . S
C4729 H4717 0.950 . S
C4729 C4725 1.393 . S
C4729 C4728 1.391 . S
C4730 H4720 0.950 . S
C4730 C4731 1.386 . S
C4730 C4732 1.391 . S
C4731 C4730 1.386 . S
C4731 C4735 1.393 . S
C4732 H4721 0.950 . S
C4732 C4730 1.391 . S
C4732 C4733 1.400 . S
C4733 C4727 1.491 . S
C4733 C4732 1.400 . S
C4733 C4734 1.398 . S
C4734 H4722 0.950 . S
C4734 C4733 1.398 . S
C4734 C4735 1.391 . S
C4735 H4723 0.950 . S
C4735 C4731 1.393 . S
C4735 C4734 1.391 . S
H4736 C4744 0.950 . S
H4737 C4749 0.950 . S
H4738 C4746 0.950 . S
H4739 C4748 0.950 . S
H4740 C4750 0.950 . S
H4741 C4752 0.950 . S
H4742 C4754 0.950 . S
H4743 C4755 0.950 . S
C4744 H4736 0.950 . S
C4744 C4745 1.386 . S
C4744 C4746 1.391 . S
C4745 C4744 1.386 . S
C4745 C4749 1.393 . S
C4746 H4738 0.950 . S
C4746 C4744 1.391 . S
C4746 C4747 1.400 . S
C4747 C4746 1.400 . S
C4747 C4748 1.398 . S
C4747 C4753 1.491 . S
C4748 H4739 0.950 . S
C4748 C4747 1.398 . S
C4748 C4749 1.391 . S
C4749 H4737 0.950 . S
C4749 C4745 1.393 . S
C4749 C4748 1.391 . S
C4750 H4740 0.950 . S
C4750 C4751 1.386 . S
C4750 C4752 1.391 . S
C4751 C4750 1.386 . S
C4751 C4755 1.393 . S
C4752 H4741 0.950 . S
C4752 C4750 1.391 . S
C4752 C4753 1.400 . S
C4753 C4747 1.491 . S
C4753 C4752 1.400 . S
C4753 C4754 1.398 . S
C4754 H4742 0.950 . S
C4754 C4753 1.398 . S
C4754 C4755 1.391 . S
C4755 H4743 0.950 . S
C4755 C4751 1.393 . S
C4755 C4754 1.391 . S
H4756 C4764 0.950 . S
H4757 C4769 0.950 . S
H4758 C4766 0.950 . S
H4759 C4768 0.950 . S
H4760 C4770 0.950 . S
H4761 C4772 0.950 . S
H4762 C4774 0.950 . S
H4763 C4775 0.950 . S
C4764 H4756 0.950 . S
C4764 C4765 1.386 . S
C4764 C4766 1.391 . S
C4765 C4764 1.386 . S
C4765 C4769 1.393 . S
C4766 H4758 0.950 . S
C4766 C4764 1.391 . S
C4766 C4767 1.400 . S
C4767 C4766 1.400 . S
C4767 C4768 1.398 . S
C4767 C4773 1.491 . S
C4768 H4759 0.950 . S
C4768 C4767 1.398 . S
C4768 C4769 1.391 . S
C4769 H4757 0.950 . S
C4769 C4765 1.393 . S
C4769 C4768 1.391 . S
C4770 H4760 0.950 . S
C4770 C4771 1.386 . S
C4770 C4772 1.391 . S
C4771 C4770 1.386 . S
C4771 C4775 1.393 . S
C4772 H4761 0.950 . S
C4772 C4770 1.391 . S
C4772 C4773 1.400 . S
C4773 C4767 1.491 . S
C4773 C4772 1.400 . S
C4773 C4774 1.398 . S
C4774 H4762 0.950 . S
C4774 C4773 1.398 . S
C4774 C4775 1.391 . S
C4775 H4763 0.950 . S
C4775 C4771 1.393 . S
C4775 C4774 1.391 . S
H4776 C4784 0.950 . S
H4777 C4789 0.950 . S
H4778 C4786 0.950 . S
H4779 C4788 0.950 . S
H4780 C4790 0.950 . S
H4781 C4792 0.950 . S
H4782 C4794 0.950 . S
H4783 C4795 0.950 . S
C4784 H4776 0.950 . S
C4784 C4785 1.386 . S
C4784 C4786 1.391 . S
C4785 C4784 1.386 . S
C4785 C4789 1.393 . S
C4786 H4778 0.950 . S
C4786 C4784 1.391 . S
C4786 C4787 1.400 . S
C4787 C4786 1.400 . S
C4787 C4788 1.398 . S
C4787 C4793 1.491 . S
C4788 H4779 0.950 . S
C4788 C4787 1.398 . S
C4788 C4789 1.391 . S
C4789 H4777 0.950 . S
C4789 C4785 1.393 . S
C4789 C4788 1.391 . S
C4790 H4780 0.950 . S
C4790 C4791 1.386 . S
C4790 C4792 1.391 . S
C4791 C4790 1.386 . S
C4791 C4795 1.393 . S
C4792 H4781 0.950 . S
C4792 C4790 1.391 . S
C4792 C4793 1.400 . S
C4793 C4787 1.491 . S
C4793 C4792 1.400 . S
C4793 C4794 1.398 . S
C4794 H4782 0.950 . S
C4794 C4793 1.398 . S
C4794 C4795 1.391 . S
C4795 H4783 0.950 . S
C4795 C4791 1.393 . S
C4795 C4794 1.391 . S
H4796 C4804 0.950 . S
H4797 C4809 0.950 . S
H4798 C4806 0.950 . S
H4799 C4808 0.950 . S
H4800 C4810 0.950 . S
H4801 C4812 0.950 . S
H4802 C4814 0.950 . S
H4803 C4815 0.950 . S
C4804 H4796 0.950 . S
C4804 C4805 1.386 . S
C4804 C4806 1.391 . S
C4805 C4804 1.386 . S
C4805 C4809 1.393 . S
C4806 H4798 0.950 . S
C4806 C4804 1.391 . S
C4806 C4807 1.400 . S
C4807 C4806 1.400 . S
C4807 C4808 1.398 . S
C4807 C4813 1.491 . S
C4808 H4799 0.950 . S
C4808 C4807 1.398 . S
C4808 C4809 1.391 . S
C4809 H4797 0.950 . S
C4809 C4805 1.393 . S
C4809 C4808 1.391 . S
C4810 H4800 0.950 . S
C4810 C4811 1.386 . S
C4810 C4812 1.391 . S
C4811 C4810 1.386 . S
C4811 C4815 1.393 . S
C4812 H4801 0.950 . S
C4812 C4810 1.391 . S
C4812 C4813 1.400 . S
C4813 C4807 1.491 . S
C4813 C4812 1.400 . S
C4813 C4814 1.398 . S
C4814 H4802 0.950 . S
C4814 C4813 1.398 . S
C4814 C4815 1.391 . S
C4815 H4803 0.950 . S
C4815 C4811 1.393 . S
C4815 C4814 1.391 . S
H4816 C4824 0.950 . S
H4817 C4829 0.950 . S
H4818 C4826 0.950 . S
H4819 C4828 0.950 . S
H4820 C4830 0.950 . S
H4821 C4832 0.950 . S
H4822 C4834 0.950 . S
H4823 C4835 0.950 . S
C4824 H4816 0.950 . S
C4824 C4825 1.386 . S
C4824 C4826 1.391 . S
C4825 C4824 1.386 . S
C4825 C4829 1.393 . S
C4826 H4818 0.950 . S
C4826 C4824 1.391 . S
C4826 C4827 1.400 . S
C4827 C4826 1.400 . S
C4827 C4828 1.398 . S
C4827 C4833 1.491 . S
C4828 H4819 0.950 . S
C4828 C4827 1.398 . S
C4828 C4829 1.391 . S
C4829 H4817 0.950 . S
C4829 C4825 1.393 . S
C4829 C4828 1.391 . S
C4830 H4820 0.950 . S
C4830 C4831 1.386 . S
C4830 C4832 1.391 . S
C4831 C4830 1.386 . S
C4831 C4835 1.393 . S
C4832 H4821 0.950 . S
C4832 C4830 1.391 . S
C4832 C4833 1.400 . S
C4833 C4827 1.491 . S
C4833 C4832 1.400 . S
C4833 C4834 1.398 . S
C4834 H4822 0.950 . S
C4834 C4833 1.398 . S
C4834 C4835 1.391 . S
C4835 H4823 0.950 . S
C4835 C4831 1.393 . S
C4835 C4834 1.391 . S
H4836 C4844 0.950 . S
H4837 C4849 0.950 . S
H4838 C4846 0.950 . S
H4839 C4848 0.950 . S
H4840 C4850 0.950 . S
H4841 C4852 0.950 . S
H4842 C4854 0.950 . S
H4843 C4855 0.950 . S
C4844 H4836 0.950 . S
C4844 C4845 1.386 . S
C4844 C4846 1.391 . S
C4845 C4844 1.386 . S
C4845 C4849 1.393 . S
C4846 H4838 0.950 . S
C4846 C4844 1.391 . S
C4846 C4847 1.400 . S
C4847 C4846 1.400 . S
C4847 C4848 1.398 . S
C4847 C4853 1.491 . S
C4848 H4839 0.950 . S
C4848 C4847 1.398 . S
C4848 C4849 1.391 . S
C4849 H4837 0.950 . S
C4849 C4845 1.393 . S
C4849 C4848 1.391 . S
C4850 H4840 0.950 . S
C4850 C4851 1.386 . S
C4850 C4852 1.391 . S
C4851 C4850 1.386 . S
C4851 C4855 1.393 . S
C4852 H4841 0.950 . S
C4852 C4850 1.391 . S
C4852 C4853 1.400 . S
C4853 C4847 1.491 . S
C4853 C4852 1.400 . S
C4853 C4854 1.398 . S
C4854 H4842 0.950 . S
C4854 C4853 1.398 . S
C4854 C4855 1.391 . S
C4855 H4843 0.950 . S
C4855 C4851 1.393 . S
C4855 C4854 1.391 . S
H4856 C4864 0.950 . S
H4857 C4869 0.950 . S
H4858 C4866 0.950 . S
H4859 C4868 0.950 . S
H4860 C4870 0.950 . S
H4861 C4872 0.950 . S
H4862 C4874 0.950 . S
H4863 C4875 0.950 . S
C4864 H4856 0.950 . S
C4864 C4865 1.386 . S
C4864 C4866 1.391 . S
C4865 C4864 1.386 . S
C4865 C4869 1.393 . S
C4866 H4858 0.950 . S
C4866 C4864 1.391 . S
C4866 C4867 1.400 . S
C4867 C4866 1.400 . S
C4867 C4868 1.398 . S
C4867 C4873 1.491 . S
C4868 H4859 0.950 . S
C4868 C4867 1.398 . S
C4868 C4869 1.391 . S
C4869 H4857 0.950 . S
C4869 C4865 1.393 . S
C4869 C4868 1.391 . S
C4870 H4860 0.950 . S
C4870 C4871 1.386 . S
C4870 C4872 1.391 . S
C4871 C4870 1.386 . S
C4871 C4875 1.393 . S
C4872 H4861 0.950 . S
C4872 C4870 1.391 . S
C4872 C4873 1.400 . S
C4873 C4867 1.491 . S
C4873 C4872 1.400 . S
C4873 C4874 1.398 . S
C4874 H4862 0.950 . S
C4874 C4873 1.398 . S
C4874 C4875 1.391 . S
C4875 H4863 0.950 . S
C4875 C4871 1.393 . S
C4875 C4874 1.391 . S
H4876 C4884 0.950 . S
H4877 C4889 0.950 . S
H4878 C4886 0.950 . S
H4879 C4888 0.950 . S
H4880 C4890 0.950 . S
H4881 C4892 0.950 . S
H4882 C4894 0.950 . S
H4883 C4895 0.950 . S
C4884 H4876 0.950 . S
C4884 C4885 1.386 . S
C4884 C4886 1.391 . S
C4885 C4884 1.386 . S
C4885 C4889 1.393 . S
C4886 H4878 0.950 . S
C4886 C4884 1.391 . S
C4886 C4887 1.400 . S
C4887 C4886 1.400 . S
C4887 C4888 1.398 . S
C4887 C4893 1.491 . S
C4888 H4879 0.950 . S
C4888 C4887 1.398 . S
C4888 C4889 1.391 . S
C4889 H4877 0.950 . S
C4889 C4885 1.393 . S
C4889 C4888 1.391 . S
C4890 H4880 0.950 . S
C4890 C4891 1.386 . S
C4890 C4892 1.391 . S
C4891 C4890 1.386 . S
C4891 C4895 1.393 . S
C4892 H4881 0.950 . S
C4892 C4890 1.391 . S
C4892 C4893 1.400 . S
C4893 C4887 1.491 . S
C4893 C4892 1.400 . S
C4893 C4894 1.398 . S
C4894 H4882 0.950 . S
C4894 C4893 1.398 . S
C4894 C4895 1.391 . S
C4895 H4883 0.950 . S
C4895 C4891 1.393 . S
C4895 C4894 1.391 . S
H4896 C4904 0.950 . S
H4897 C4909 0.950 . S
H4898 C4906 0.950 . S
H4899 C4908 0.950 . S
H4900 C4910 0.950 . S
H4901 C4912 0.950 . S
H4902 C4914 0.950 . S
H4903 C4915 0.950 . S
C4904 H4896 0.950 . S
C4904 C4905 1.386 . S
C4904 C4906 1.391 . S
C4905 C4904 1.386 . S
C4905 C4909 1.393 . S
C4906 H4898 0.950 . S
C4906 C4904 1.391 . S
C4906 C4907 1.400 . S
C4907 C4906 1.400 . S
C4907 C4908 1.398 . S
C4907 C4913 1.491 . S
C4908 H4899 0.950 . S
C4908 C4907 1.398 . S
C4908 C4909 1.391 . S
C4909 H4897 0.950 . S
C4909 C4905 1.393 . S
C4909 C4908 1.391 . S
C4910 H4900 0.950 . S
C4910 C4911 1.386 . S
C4910 C4912 1.391 . S
C4911 C4910 1.386 . S
C4911 C4915 1.393 . S
C4912 H4901 0.950 . S
C4912 C4910 1.391 . S
C4912 C4913 1.400 . S
C4913 C4907 1.491 . S
C4913 C4912 1.400 . S
C4913 C4914 1.398 . S
C4914 H4902 0.950 . S
C4914 C4913 1.398 . S
C4914 C4915 1.391 . S
C4915 H4903 0.950 . S
C4915 C4911 1.393 . S
C4915 C4914 1.391 . S
H4916 C4924 0.950 . S
H4917 C4929 0.950 . S
H4918 C4926 0.950 . S
H4919 C4928 0.950 . S
H4920 C4930 0.950 . S
H4921 C4932 0.950 . S
H4922 C4934 0.950 . S
H4923 C4935 0.950 . S
C4924 H4916 0.950 . S
C4924 C4925 1.386 . S
C4924 C4926 1.391 . S
C4925 C4924 1.386 . S
C4925 C4929 1.393 . S
C4926 H4918 0.950 . S
C4926 C4924 1.391 . S
C4926 C4927 1.400 . S
C4927 C4926 1.400 . S
C4927 C4928 1.398 . S
C4927 C4933 1.491 . S
C4928 H4919 0.950 . S
C4928 C4927 1.398 . S
C4928 C4929 1.391 . S
C4929 H4917 0.950 . S
C4929 C4925 1.393 . S
C4929 C4928 1.391 . S
C4930 H4920 0.950 . S
C4930 C4931 1.386 . S
C4930 C4932 1.391 . S
C4931 C4930 1.386 . S
C4931 C4935 1.393 . S
C4932 H4921 0.950 . S
C4932 C4930 1.391 . S
C4932 C4933 1.400 . S
C4933 C4927 1.491 . S
C4933 C4932 1.400 . S
C4933 C4934 1.398 . S
C4934 H4922 0.950 . S
C4934 C4933 1.398 . S
C4934 C4935 1.391 . S
C4935 H4923 0.950 . S
C4935 C4931 1.393 . S
C4935 C4934 1.391 . S
H4936 C4944 0.950 . S
H4937 C4949 0.950 . S
H4938 C4946 0.950 . S
H4939 C4948 0.950 . S
H4940 C4950 0.950 . S
H4941 C4952 0.950 . S
H4942 C4954 0.950 . S
H4943 C4955 0.950 . S
C4944 H4936 0.950 . S
C4944 C4945 1.386 . S
C4944 C4946 1.391 . S
C4945 C4944 1.386 . S
C4945 C4949 1.393 . S
C4946 H4938 0.950 . S
C4946 C4944 1.391 . S
C4946 C4947 1.400 . S
C4947 C4946 1.400 . S
C4947 C4948 1.398 . S
C4947 C4953 1.491 . S
C4948 H4939 0.950 . S
C4948 C4947 1.398 . S
C4948 C4949 1.391 . S
C4949 H4937 0.950 . S
C4949 C4945 1.393 . S
C4949 C4948 1.391 . S
C4950 H4940 0.950 . S
C4950 C4951 1.386 . S
C4950 C4952 1.391 . S
C4951 C4950 1.386 . S
C4951 C4955 1.393 . S
C4952 H4941 0.950 . S
C4952 C4950 1.391 . S
C4952 C4953 1.400 . S
C4953 C4947 1.491 . S
C4953 C4952 1.400 . S
C4953 C4954 1.398 . S
C4954 H4942 0.950 . S
C4954 C4953 1.398 . S
C4954 C4955 1.391 . S
C4955 H4943 0.950 . S
C4955 C4951 1.393 . S
C4955 C4954 1.391 . S
H4956 C4964 0.950 . S
H4957 C4969 0.950 . S
H4958 C4966 0.950 . S
H4959 C4968 0.950 . S
H4960 C4970 0.950 . S
H4961 C4972 0.950 . S
H4962 C4974 0.950 . S
H4963 C4975 0.950 . S
C4964 H4956 0.950 . S
C4964 C4965 1.386 . S
C4964 C4966 1.391 . S
C4965 C4964 1.386 . S
C4965 C4969 1.393 . S
C4966 H4958 0.950 . S
C4966 C4964 1.391 . S
C4966 C4967 1.400 . S
C4967 C4966 1.400 . S
C4967 C4968 1.398 . S
C4967 C4973 1.491 . S
C4968 H4959 0.950 . S
C4968 C4967 1.398 . S
C4968 C4969 1.391 . S
C4969 H4957 0.950 . S
C4969 C4965 1.393 . S
C4969 C4968 1.391 . S
C4970 H4960 0.950 . S
C4970 C4971 1.386 . S
C4970 C4972 1.391 . S
C4971 C4970 1.386 . S
C4971 C4975 1.393 . S
C4972 H4961 0.950 . S
C4972 C4970 1.391 . S
C4972 C4973 1.400 . S
C4973 C4967 1.491 . S
C4973 C4972 1.400 . S
C4973 C4974 1.398 . S
C4974 H4962 0.950 . S
C4974 C4973 1.398 . S
C4974 C4975 1.391 . S
C4975 H4963 0.950 . S
C4975 C4971 1.393 . S
C4975 C4974 1.391 . S
H4976 C4984 0.950 . S
H4977 C4989 0.950 . S
H4978 C4986 0.950 . S
H4979 C4988 0.950 . S
H4980 C4990 0.950 . S
H4981 C4992 0.950 . S
H4982 C4994 0.950 . S
H4983 C4995 0.950 . S
C4984 H4976 0.950 . S
C4984 C4985 1.386 . S
C4984 C4986 1.391 . S
C4985 C4984 1.386 . S
C4985 C4989 1.393 . S
C4986 H4978 0.950 . S
C4986 C4984 1.391 . S
C4986 C4987 1.400 . S
C4987 C4986 1.400 . S
C4987 C4988 1.398 . S
C4987 C4993 1.491 . S
C4988 H4979 0.950 . S
C4988 C4987 1.398 . S
C4988 C4989 1.391 . S
C4989 H4977 0.950 . S
C4989 C4985 1.393 . S
C4989 C4988 1.391 . S
C4990 H4980 0.950 . S
C4990 C4991 1.386 . S
C4990 C4992 1.391 . S
C4991 C4990 1.386 . S
C4991 C4995 1.393 . S
C4992 H4981 0.950 . S
C4992 C4990 1.391 . S
C4992 C4993 1.400 . S
C4993 C4987 1.491 . S
C4993 C4992 1.400 . S
C4993 C4994 1.398 . S
C4994 H4982 0.950 . S
C4994 C4993 1.398 . S
C4994 C4995 1.391 . S
C4995 H4983 0.950 . S
C4995 C4991 1.393 . S
C4995 C4994 1.391 . S
H4996 C5004 0.950 . S
H4997 C5009 0.950 . S
H4998 C5006 0.950 . S
H4999 C5008 0.950 . S
H5000 C5010 0.950 . S
H5001 C5012 0.950 . S
H5002 C5014 0.950 . S
H5003 C5015 0.950 . S
C5004 H4996 0.950 . S
C5004 C5005 1.386 . S
C5004 C5006 1.391 . S
C5005 C5004 1.386 . S
C5005 C5009 1.393 . S
C5006 H4998 0.950 . S
C5006 C5004 1.391 . S
C5006 C5007 1.400 . S
C5007 C5006 1.400 . S
C5007 C5008 1.398 . S
C5007 C5013 1.491 . S
C5008 H4999 0.950 . S
C5008 C5007 1.398 . S
C5008 C5009 1.391 . S
C5009 H4997 0.950 . S
C5009 C5005 1.393 . S
C5009 C5008 1.391 . S
C5010 H5000 0.950 . S
C5010 C5011 1.386 . S
C5010 C5012 1.391 . S
C5011 C5010 1.386 . S
C5011 C5015 1.393 . S
C5012 H5001 0.950 . S
C5012 C5010 1.391 . S
C5012 C5013 1.400 . S
C5013 C5007 1.491 . S
C5013 C5012 1.400 . S
C5013 C5014 1.398 . S
C5014 H5002 0.950 . S
C5014 C5013 1.398 . S
C5014 C5015 1.391 . S
C5015 H5003 0.950 . S
C5015 C5011 1.393 . S
C5015 C5014 1.391 . S
H5016 C5024 0.950 . S
H5017 C5029 0.950 . S
H5018 C5026 0.950 . S
H5019 C5028 0.950 . S
H5020 C5030 0.950 . S
H5021 C5032 0.950 . S
H5022 C5034 0.950 . S
H5023 C5035 0.950 . S
C5024 H5016 0.950 . S
C5024 C5025 1.386 . S
C5024 C5026 1.391 . S
C5025 C5024 1.386 . S
C5025 C5029 1.393 . S
C5026 H5018 0.950 . S
C5026 C5024 1.391 . S
C5026 C5027 1.400 . S
C5027 C5026 1.400 . S
C5027 C5028 1.398 . S
C5027 C5033 1.491 . S
C5028 H5019 0.950 . S
C5028 C5027 1.398 . S
C5028 C5029 1.391 . S
C5029 H5017 0.950 . S
C5029 C5025 1.393 . S
C5029 C5028 1.391 . S
C5030 H5020 0.950 . S
C5030 C5031 1.386 . S
C5030 C5032 1.391 . S
C5031 C5030 1.386 . S
C5031 C5035 1.393 . S
C5032 H5021 0.950 . S
C5032 C5030 1.391 . S
C5032 C5033 1.400 . S
C5033 C5027 1.491 . S
C5033 C5032 1.400 . S
C5033 C5034 1.398 . S
C5034 H5022 0.950 . S
C5034 C5033 1.398 . S
C5034 C5035 1.391 . S
C5035 H5023 0.950 . S
C5035 C5031 1.393 . S
C5035 C5034 1.391 . S
H5036 C5044 0.950 . S
H5037 C5049 0.950 . S
H5038 C5046 0.950 . S
H5039 C5048 0.950 . S
H5040 C5050 0.950 . S
H5041 C5052 0.950 . S
H5042 C5054 0.950 . S
H5043 C5055 0.950 . S
C5044 H5036 0.950 . S
C5044 C5045 1.386 . S
C5044 C5046 1.391 . S
C5045 C5044 1.386 . S
C5045 C5049 1.393 . S
C5046 H5038 0.950 . S
C5046 C5044 1.391 . S
C5046 C5047 1.400 . S
C5047 C5046 1.400 . S
C5047 C5048 1.398 . S
C5047 C5053 1.491 . S
C5048 H5039 0.950 . S
C5048 C5047 1.398 . S
C5048 C5049 1.391 . S
C5049 H5037 0.950 . S
C5049 C5045 1.393 . S
C5049 C5048 1.391 . S
C5050 H5040 0.950 . S
C5050 C5051 1.386 . S
C5050 C5052 1.391 . S
C5051 C5050 1.386 . S
C5051 C5055 1.393 . S
C5052 H5041 0.950 . S
C5052 C5050 1.391 . S
C5052 C5053 1.400 . S
C5053 C5047 1.491 . S
C5053 C5052 1.400 . S
C5053 C5054 1.398 . S
C5054 H5042 0.950 . S
C5054 C5053 1.398 . S
C5054 C5055 1.391 . S
C5055 H5043 0.950 . S
C5055 C5051 1.393 . S
C5055 C5054 1.391 . S
H5056 C5064 0.950 . S
H5057 C5069 0.950 . S
H5058 C5066 0.950 . S
H5059 C5068 0.950 . S
H5060 C5070 0.950 . S
H5061 C5072 0.950 . S
H5062 C5074 0.950 . S
H5063 C5075 0.950 . S
C5064 H5056 0.950 . S
C5064 C5065 1.386 . S
C5064 C5066 1.391 . S
C5065 C5064 1.386 . S
C5065 C5069 1.393 . S
C5066 H5058 0.950 . S
C5066 C5064 1.391 . S
C5066 C5067 1.400 . S
C5067 C5066 1.400 . S
C5067 C5068 1.398 . S
C5067 C5073 1.491 . S
C5068 H5059 0.950 . S
C5068 C5067 1.398 . S
C5068 C5069 1.391 . S
C5069 H5057 0.950 . S
C5069 C5065 1.393 . S
C5069 C5068 1.391 . S
C5070 H5060 0.950 . S
C5070 C5071 1.386 . S
C5070 C5072 1.391 . S
C5071 C5070 1.386 . S
C5071 C5075 1.393 . S
C5072 H5061 0.950 . S
C5072 C5070 1.391 . S
C5072 C5073 1.400 . S
C5073 C5067 1.491 . S
C5073 C5072 1.400 . S
C5073 C5074 1.398 . S
C5074 H5062 0.950 . S
C5074 C5073 1.398 . S
C5074 C5075 1.391 . S
C5075 H5063 0.950 . S
C5075 C5071 1.393 . S
C5075 C5074 1.391 . S
H5076 C5084 0.950 . S
H5077 C5089 0.950 . S
H5078 C5086 0.950 . S
H5079 C5088 0.950 . S
H5080 C5090 0.950 . S
H5081 C5092 0.950 . S
H5082 C5094 0.950 . S
H5083 C5095 0.950 . S
C5084 H5076 0.950 . S
C5084 C5085 1.386 . S
C5084 C5086 1.391 . S
C5085 C5084 1.386 . S
C5085 C5089 1.393 . S
C5086 H5078 0.950 . S
C5086 C5084 1.391 . S
C5086 C5087 1.400 . S
C5087 C5086 1.400 . S
C5087 C5088 1.398 . S
C5087 C5093 1.491 . S
C5088 H5079 0.950 . S
C5088 C5087 1.398 . S
C5088 C5089 1.391 . S
C5089 H5077 0.950 . S
C5089 C5085 1.393 . S
C5089 C5088 1.391 . S
C5090 H5080 0.950 . S
C5090 C5091 1.386 . S
C5090 C5092 1.391 . S
C5091 C5090 1.386 . S
C5091 C5095 1.393 . S
C5092 H5081 0.950 . S
C5092 C5090 1.391 . S
C5092 C5093 1.400 . S
C5093 C5087 1.491 . S
C5093 C5092 1.400 . S
C5093 C5094 1.398 . S
C5094 H5082 0.950 . S
C5094 C5093 1.398 . S
C5094 C5095 1.391 . S
C5095 H5083 0.950 . S
C5095 C5091 1.393 . S
C5095 C5094 1.391 . S
H5096 C5104 0.950 . S
H5097 C5109 0.950 . S
H5098 C5106 0.950 . S
H5099 C5108 0.950 . S
H5100 C5110 0.950 . S
H5101 C5112 0.950 . S
H5102 C5114 0.950 . S
H5103 C5115 0.950 . S
C5104 H5096 0.950 . S
C5104 C5105 1.386 . S
C5104 C5106 1.391 . S
C5105 C5104 1.386 . S
C5105 C5109 1.393 . S
C5106 H5098 0.950 . S
C5106 C5104 1.391 . S
C5106 C5107 1.400 . S
C5107 C5106 1.400 . S
C5107 C5108 1.398 . S
C5107 C5113 1.491 . S
C5108 H5099 0.950 . S
C5108 C5107 1.398 . S
C5108 C5109 1.391 . S
C5109 H5097 0.950 . S
C5109 C5105 1.393 . S
C5109 C5108 1.391 . S
C5110 H5100 0.950 . S
C5110 C5111 1.386 . S
C5110 C5112 1.391 . S
C5111 C5110 1.386 . S
C5111 C5115 1.393 . S
C5112 H5101 0.950 . S
C5112 C5110 1.391 . S
C5112 C5113 1.400 . S
C5113 C5107 1.491 . S
C5113 C5112 1.400 . S
C5113 C5114 1.398 . S
C5114 H5102 0.950 . S
C5114 C5113 1.398 . S
C5114 C5115 1.391 . S
C5115 H5103 0.950 . S
C5115 C5111 1.393 . S
C5115 C5114 1.391 . S
H5116 C5124 0.950 . S
H5117 C5129 0.950 . S
H5118 C5126 0.950 . S
H5119 C5128 0.950 . S
H5120 C5130 0.950 . S
H5121 C5132 0.950 . S
H5122 C5134 0.950 . S
H5123 C5135 0.950 . S
C5124 H5116 0.950 . S
C5124 C5125 1.386 . S
C5124 C5126 1.391 . S
C5125 C5124 1.386 . S
C5125 C5129 1.393 . S
C5126 H5118 0.950 . S
C5126 C5124 1.391 . S
C5126 C5127 1.400 . S
C5127 C5126 1.400 . S
C5127 C5128 1.398 . S
C5127 C5133 1.491 . S
C5128 H5119 0.950 . S
C5128 C5127 1.398 . S
C5128 C5129 1.391 . S
C5129 H5117 0.950 . S
C5129 C5125 1.393 . S
C5129 C5128 1.391 . S
C5130 H5120 0.950 . S
C5130 C5131 1.386 . S
C5130 C5132 1.391 . S
C5131 C5130 1.386 . S
C5131 C5135 1.393 . S
C5132 H5121 0.950 . S
C5132 C5130 1.391 . S
C5132 C5133 1.400 . S
C5133 C5127 1.491 . S
C5133 C5132 1.400 . S
C5133 C5134 1.398 . S
C5134 H5122 0.950 . S
C5134 C5133 1.398 . S
C5134 C5135 1.391 . S
C5135 H5123 0.950 . S
C5135 C5131 1.393 . S
C5135 C5134 1.391 . S
H5136 C5144 0.950 . S
H5137 C5149 0.950 . S
H5138 C5146 0.950 . S
H5139 C5148 0.950 . S
H5140 C5150 0.950 . S
H5141 C5152 0.950 . S
H5142 C5154 0.950 . S
H5143 C5155 0.950 . S
C5144 H5136 0.950 . S
C5144 C5145 1.386 . S
C5144 C5146 1.391 . S
C5145 C5144 1.386 . S
C5145 C5149 1.393 . S
C5146 H5138 0.950 . S
C5146 C5144 1.391 . S
C5146 C5147 1.400 . S
C5147 C5146 1.400 . S
C5147 C5148 1.398 . S
C5147 C5153 1.491 . S
C5148 H5139 0.950 . S
C5148 C5147 1.398 . S
C5148 C5149 1.391 . S
C5149 H5137 0.950 . S
C5149 C5145 1.393 . S
C5149 C5148 1.391 . S
C5150 H5140 0.950 . S
C5150 C5151 1.386 . S
C5150 C5152 1.391 . S
C5151 C5150 1.386 . S
C5151 C5155 1.393 . S
C5152 H5141 0.950 . S
C5152 C5150 1.391 . S
C5152 C5153 1.400 . S
C5153 C5147 1.491 . S
C5153 C5152 1.400 . S
C5153 C5154 1.398 . S
C5154 H5142 0.950 . S
C5154 C5153 1.398 . S
C5154 C5155 1.391 . S
C5155 H5143 0.950 . S
C5155 C5151 1.393 . S
C5155 C5154 1.391 . S
H5156 C5164 0.950 . S
H5157 C5169 0.950 . S
H5158 C5166 0.950 . S
H5159 C5168 0.950 . S
H5160 C5170 0.950 . S
H5161 C5172 0.950 . S
H5162 C5174 0.950 . S
H5163 C5175 0.950 . S
C5164 H5156 0.950 . S
C5164 C5165 1.386 . S
C5164 C5166 1.391 . S
C5165 C5164 1.386 . S
C5165 C5169 1.393 . S
C5166 H5158 0.950 . S
C5166 C5164 1.391 . S
C5166 C5167 1.400 . S
C5167 C5166 1.400 . S
C5167 C5168 1.398 . S
C5167 C5173 1.491 . S
C5168 H5159 0.950 . S
C5168 C5167 1.398 . S
C5168 C5169 1.391 . S
C5169 H5157 0.950 . S
C5169 C5165 1.393 . S
C5169 C5168 1.391 . S
C5170 H5160 0.950 . S
C5170 C5171 1.386 . S
C5170 C5172 1.391 . S
C5171 C5170 1.386 . S
C5171 C5175 1.393 . S
C5172 H5161 0.950 . S
C5172 C5170 1.391 . S
C5172 C5173 1.400 . S
C5173 C5167 1.491 . S
C5173 C5172 1.400 . S
C5173 C5174 1.398 . S
C5174 H5162 0.950 . S
C5174 C5173 1.398 . S
C5174 C5175 1.391 . S
C5175 H5163 0.950 . S
C5175 C5171 1.393 . S
C5175 C5174 1.391 . S
H5176 C5184 0.950 . S
H5177 C5189 0.950 . S
H5178 C5186 0.950 . S
H5179 C5188 0.950 . S
H5180 C5190 0.950 . S
H5181 C5192 0.950 . S
H5182 C5194 0.950 . S
H5183 C5195 0.950 . S
C5184 H5176 0.950 . S
C5184 C5185 1.386 . S
C5184 C5186 1.391 . S
C5185 C5184 1.386 . S
C5185 C5189 1.393 . S
C5186 H5178 0.950 . S
C5186 C5184 1.391 . S
C5186 C5187 1.400 . S
C5187 C5186 1.400 . S
C5187 C5188 1.398 . S
C5187 C5193 1.491 . S
C5188 H5179 0.950 . S
C5188 C5187 1.398 . S
C5188 C5189 1.391 . S
C5189 H5177 0.950 . S
C5189 C5185 1.393 . S
C5189 C5188 1.391 . S
C5190 H5180 0.950 . S
C5190 C5191 1.386 . S
C5190 C5192 1.391 . S
C5191 C5190 1.386 . S
C5191 C5195 1.393 . S
C5192 H5181 0.950 . S
C5192 C5190 1.391 . S
C5192 C5193 1.400 . S
C5193 C5187 1.491 . S
C5193 C5192 1.400 . S
C5193 C5194 1.398 . S
C5194 H5182 0.950 . S
C5194 C5193 1.398 . S
C5194 C5195 1.391 . S
C5195 H5183 0.950 . S
C5195 C5191 1.393 . S
C5195 C5194 1.391 . S
H5196 C5204 0.950 . S
H5197 C5209 0.950 . S
H5198 C5206 0.950 . S
H5199 C5208 0.950 . S
H5200 C5210 0.950 . S
H5201 C5212 0.950 . S
H5202 C5214 0.950 . S
H5203 C5215 0.950 . S
C5204 H5196 0.950 . S
C5204 C5205 1.386 . S
C5204 C5206 1.391 . S
C5205 C5204 1.386 . S
C5205 C5209 1.393 . S
C5206 H5198 0.950 . S
C5206 C5204 1.391 . S
C5206 C5207 1.400 . S
C5207 C5206 1.400 . S
C5207 C5208 1.398 . S
C5207 C5213 1.491 . S
C5208 H5199 0.950 . S
C5208 C5207 1.398 . S
C5208 C5209 1.391 . S
C5209 H5197 0.950 . S
C5209 C5205 1.393 . S
C5209 C5208 1.391 . S
C5210 H5200 0.950 . S
C5210 C5211 1.386 . S
C5210 C5212 1.391 . S
C5211 C5210 1.386 . S
C5211 C5215 1.393 . S
C5212 H5201 0.950 . S
C5212 C5210 1.391 . S
C5212 C5213 1.400 . S
C5213 C5207 1.491 . S
C5213 C5212 1.400 . S
C5213 C5214 1.398 . S
C5214 H5202 0.950 . S
C5214 C5213 1.398 . S
C5214 C5215 1.391 . S
C5215 H5203 0.950 . S
C5215 C5211 1.393 . S
C5215 C5214 1.391 . S
H5216 C5224 0.950 . S
H5217 C5229 0.950 . S
H5218 C5226 0.950 . S
H5219 C5228 0.950 . S
H5220 C5230 0.950 . S
H5221 C5232 0.950 . S
H5222 C5234 0.950 . S
H5223 C5235 0.950 . S
C5224 H5216 0.950 . S
C5224 C5225 1.386 . S
C5224 C5226 1.391 . S
C5225 C5224 1.386 . S
C5225 C5229 1.393 . S
C5226 H5218 0.950 . S
C5226 C5224 1.391 . S
C5226 C5227 1.400 . S
C5227 C5226 1.400 . S
C5227 C5228 1.398 . S
C5227 C5233 1.491 . S
C5228 H5219 0.950 . S
C5228 C5227 1.398 . S
C5228 C5229 1.391 . S
C5229 H5217 0.950 . S
C5229 C5225 1.393 . S
C5229 C5228 1.391 . S
C5230 H5220 0.950 . S
C5230 C5231 1.386 . S
C5230 C5232 1.391 . S
C5231 C5230 1.386 . S
C5231 C5235 1.393 . S
C5232 H5221 0.950 . S
C5232 C5230 1.391 . S
C5232 C5233 1.400 . S
C5233 C5227 1.491 . S
C5233 C5232 1.400 . S
C5233 C5234 1.398 . S
C5234 H5222 0.950 . S
C5234 C5233 1.398 . S
C5234 C5235 1.391 . S
C5235 H5223 0.950 . S
C5235 C5231 1.393 . S
C5235 C5234 1.391 . S
H5236 C5244 0.950 . S
H5237 C5249 0.950 . S
H5238 C5246 0.950 . S
H5239 C5248 0.950 . S
H5240 C5250 0.950 . S
H5241 C5252 0.950 . S
H5242 C5254 0.950 . S
H5243 C5255 0.950 . S
C5244 H5236 0.950 . S
C5244 C5245 1.386 . S
C5244 C5246 1.391 . S
C5245 C5244 1.386 . S
C5245 C5249 1.393 . S
C5246 H5238 0.950 . S
C5246 C5244 1.391 . S
C5246 C5247 1.400 . S
C5247 C5246 1.400 . S
C5247 C5248 1.398 . S
C5247 C5253 1.491 . S
C5248 H5239 0.950 . S
C5248 C5247 1.398 . S
C5248 C5249 1.391 . S
C5249 H5237 0.950 . S
C5249 C5245 1.393 . S
C5249 C5248 1.391 . S
C5250 H5240 0.950 . S
C5250 C5251 1.386 . S
C5250 C5252 1.391 . S
C5251 C5250 1.386 . S
C5251 C5255 1.393 . S
C5252 H5241 0.950 . S
C5252 C5250 1.391 . S
C5252 C5253 1.400 . S
C5253 C5247 1.491 . S
C5253 C5252 1.400 . S
C5253 C5254 1.398 . S
C5254 H5242 0.950 . S
C5254 C5253 1.398 . S
C5254 C5255 1.391 . S
C5255 H5243 0.950 . S
C5255 C5251 1.393 . S
C5255 C5254 1.391 . S
H5256 C5264 0.950 . S
H5257 C5269 0.950 . S
H5258 C5266 0.950 . S
H5259 C5268 0.950 . S
H5260 C5270 0.950 . S
H5261 C5272 0.950 . S
H5262 C5274 0.950 . S
H5263 C5275 0.950 . S
C5264 H5256 0.950 . S
C5264 C5265 1.386 . S
C5264 C5266 1.391 . S
C5265 C5264 1.386 . S
C5265 C5269 1.393 . S
C5266 H5258 0.950 . S
C5266 C5264 1.391 . S
C5266 C5267 1.400 . S
C5267 C5266 1.400 . S
C5267 C5268 1.398 . S
C5267 C5273 1.491 . S
C5268 H5259 0.950 . S
C5268 C5267 1.398 . S
C5268 C5269 1.391 . S
C5269 H5257 0.950 . S
C5269 C5265 1.393 . S
C5269 C5268 1.391 . S
C5270 H5260 0.950 . S
C5270 C5271 1.386 . S
C5270 C5272 1.391 . S
C5271 C5270 1.386 . S
C5271 C5275 1.393 . S
C5272 H5261 0.950 . S
C5272 C5270 1.391 . S
C5272 C5273 1.400 . S
C5273 C5267 1.491 . S
C5273 C5272 1.400 . S
C5273 C5274 1.398 . S
C5274 H5262 0.950 . S
C5274 C5273 1.398 . S
C5274 C5275 1.391 . S
C5275 H5263 0.950 . S
C5275 C5271 1.393 . S
C5275 C5274 1.391 . S
H5276 C5284 0.950 . S
H5277 C5289 0.950 . S
H5278 C5286 0.950 . S
H5279 C5288 0.950 . S
H5280 C5290 0.950 . S
H5281 C5292 0.950 . S
H5282 C5294 0.950 . S
H5283 C5295 0.950 . S
C5284 H5276 0.950 . S
C5284 C5285 1.386 . S
C5284 C5286 1.391 . S
C5285 C5284 1.386 . S
C5285 C5289 1.393 . S
C5286 H5278 0.950 . S
C5286 C5284 1.391 . S
C5286 C5287 1.400 . S
C5287 C5286 1.400 . S
C5287 C5288 1.398 . S
C5287 C5293 1.491 . S
C5288 H5279 0.950 . S
C5288 C5287 1.398 . S
C5288 C5289 1.391 . S
C5289 H5277 0.950 . S
C5289 C5285 1.393 . S
C5289 C5288 1.391 . S
C5290 H5280 0.950 . S
C5290 C5291 1.386 . S
C5290 C5292 1.391 . S
C5291 C5290 1.386 . S
C5291 C5295 1.393 . S
C5292 H5281 0.950 . S
C5292 C5290 1.391 . S
C5292 C5293 1.400 . S
C5293 C5287 1.491 . S
C5293 C5292 1.400 . S
C5293 C5294 1.398 . S
C5294 H5282 0.950 . S
C5294 C5293 1.398 . S
C5294 C5295 1.391 . S
C5295 H5283 0.950 . S
C5295 C5291 1.393 . S
C5295 C5294 1.391 . S
H5296 C5304 0.950 . S
H5297 C5309 0.950 . S
H5298 C5306 0.950 . S
H5299 C5308 0.950 . S
H5300 C5310 0.950 . S
H5301 C5312 0.950 . S
H5302 C5314 0.950 . S
H5303 C5315 0.950 . S
C5304 H5296 0.950 . S
C5304 C5305 1.386 . S
C5304 C5306 1.391 . S
C5305 C5304 1.386 . S
C5305 C5309 1.393 . S
C5306 H5298 0.950 . S
C5306 C5304 1.391 . S
C5306 C5307 1.400 . S
C5307 C5306 1.400 . S
C5307 C5308 1.398 . S
C5307 C5313 1.491 . S
C5308 H5299 0.950 . S
C5308 C5307 1.398 . S
C5308 C5309 1.391 . S
C5309 H5297 0.950 . S
C5309 C5305 1.393 . S
C5309 C5308 1.391 . S
C5310 H5300 0.950 . S
C5310 C5311 1.386 . S
C5310 C5312 1.391 . S
C5311 C5310 1.386 . S
C5311 C5315 1.393 . S
C5312 H5301 0.950 . S
C5312 C5310 1.391 . S
C5312 C5313 1.400 . S
C5313 C5307 1.491 . S
C5313 C5312 1.400 . S
C5313 C5314 1.398 . S
C5314 H5302 0.950 . S
C5314 C5313 1.398 . S
C5314 C5315 1.391 . S
C5315 H5303 0.950 . S
C5315 C5311 1.393 . S
C5315 C5314 1.391 . S
H5316 C5324 0.950 . S
H5317 C5329 0.950 . S
H5318 C5326 0.950 . S
H5319 C5328 0.950 . S
H5320 C5330 0.950 . S
H5321 C5332 0.950 . S
H5322 C5334 0.950 . S
H5323 C5335 0.950 . S
C5324 H5316 0.950 . S
C5324 C5325 1.386 . S
C5324 C5326 1.391 . S
C5325 C5324 1.386 . S
C5325 C5329 1.393 . S
C5326 H5318 0.950 . S
C5326 C5324 1.391 . S
C5326 C5327 1.400 . S
C5327 C5326 1.400 . S
C5327 C5328 1.398 . S
C5327 C5333 1.491 . S
C5328 H5319 0.950 . S
C5328 C5327 1.398 . S
C5328 C5329 1.391 . S
C5329 H5317 0.950 . S
C5329 C5325 1.393 . S
C5329 C5328 1.391 . S
C5330 H5320 0.950 . S
C5330 C5331 1.386 . S
C5330 C5332 1.391 . S
C5331 C5330 1.386 . S
C5331 C5335 1.393 . S
C5332 H5321 0.950 . S
C5332 C5330 1.391 . S
C5332 C5333 1.400 . S
C5333 C5327 1.491 . S
C5333 C5332 1.400 . S
C5333 C5334 1.398 . S
C5334 H5322 0.950 . S
C5334 C5333 1.398 . S
C5334 C5335 1.391 . S
C5335 H5323 0.950 . S
C5335 C5331 1.393 . S
C5335 C5334 1.391 . S
H5336 C5344 0.950 . S
H5337 C5349 0.950 . S
H5338 C5346 0.950 . S
H5339 C5348 0.950 . S
H5340 C5350 0.950 . S
H5341 C5352 0.950 . S
H5342 C5354 0.950 . S
H5343 C5355 0.950 . S
C5344 H5336 0.950 . S
C5344 C5345 1.386 . S
C5344 C5346 1.391 . S
C5345 C5344 1.386 . S
C5345 C5349 1.393 . S
C5346 H5338 0.950 . S
C5346 C5344 1.391 . S
C5346 C5347 1.400 . S
C5347 C5346 1.400 . S
C5347 C5348 1.398 . S
C5347 C5353 1.491 . S
C5348 H5339 0.950 . S
C5348 C5347 1.398 . S
C5348 C5349 1.391 . S
C5349 H5337 0.950 . S
C5349 C5345 1.393 . S
C5349 C5348 1.391 . S
C5350 H5340 0.950 . S
C5350 C5351 1.386 . S
C5350 C5352 1.391 . S
C5351 C5350 1.386 . S
C5351 C5355 1.393 . S
C5352 H5341 0.950 . S
C5352 C5350 1.391 . S
C5352 C5353 1.400 . S
C5353 C5347 1.491 . S
C5353 C5352 1.400 . S
C5353 C5354 1.398 . S
C5354 H5342 0.950 . S
C5354 C5353 1.398 . S
C5354 C5355 1.391 . S
C5355 H5343 0.950 . S
C5355 C5351 1.393 . S
C5355 C5354 1.391 . S
H5356 C5364 0.950 . S
H5357 C5369 0.950 . S
H5358 C5366 0.950 . S
H5359 C5368 0.950 . S
H5360 C5370 0.950 . S
H5361 C5372 0.950 . S
H5362 C5374 0.950 . S
H5363 C5375 0.950 . S
C5364 H5356 0.950 . S
C5364 C5365 1.386 . S
C5364 C5366 1.391 . S
C5365 C5364 1.386 . S
C5365 C5369 1.393 . S
C5366 H5358 0.950 . S
C5366 C5364 1.391 . S
C5366 C5367 1.400 . S
C5367 C5366 1.400 . S
C5367 C5368 1.398 . S
C5367 C5373 1.491 . S
C5368 H5359 0.950 . S
C5368 C5367 1.398 . S
C5368 C5369 1.391 . S
C5369 H5357 0.950 . S
C5369 C5365 1.393 . S
C5369 C5368 1.391 . S
C5370 H5360 0.950 . S
C5370 C5371 1.386 . S
C5370 C5372 1.391 . S
C5371 C5370 1.386 . S
C5371 C5375 1.393 . S
C5372 H5361 0.950 . S
C5372 C5370 1.391 . S
C5372 C5373 1.400 . S
C5373 C5367 1.491 . S
C5373 C5372 1.400 . S
C5373 C5374 1.398 . S
C5374 H5362 0.950 . S
C5374 C5373 1.398 . S
C5374 C5375 1.391 . S
C5375 H5363 0.950 . S
C5375 C5371 1.393 . S
C5375 C5374 1.391 . S
H5376 C5384 0.950 . S
H5377 C5389 0.950 . S
H5378 C5386 0.950 . S
H5379 C5388 0.950 . S
H5380 C5390 0.950 . S
H5381 C5392 0.950 . S
H5382 C5394 0.950 . S
H5383 C5395 0.950 . S
C5384 H5376 0.950 . S
C5384 C5385 1.386 . S
C5384 C5386 1.391 . S
C5385 C5384 1.386 . S
C5385 C5389 1.393 . S
C5386 H5378 0.950 . S
C5386 C5384 1.391 . S
C5386 C5387 1.400 . S
C5387 C5386 1.400 . S
C5387 C5388 1.398 . S
C5387 C5393 1.491 . S
C5388 H5379 0.950 . S
C5388 C5387 1.398 . S
C5388 C5389 1.391 . S
C5389 H5377 0.950 . S
C5389 C5385 1.393 . S
C5389 C5388 1.391 . S
C5390 H5380 0.950 . S
C5390 C5391 1.386 . S
C5390 C5392 1.391 . S
C5391 C5390 1.386 . S
C5391 C5395 1.393 . S
C5392 H5381 0.950 . S
C5392 C5390 1.391 . S
C5392 C5393 1.400 . S
C5393 C5387 1.491 . S
C5393 C5392 1.400 . S
C5393 C5394 1.398 . S
C5394 H5382 0.950 . S
C5394 C5393 1.398 . S
C5394 C5395 1.391 . S
C5395 H5383 0.950 . S
C5395 C5391 1.393 . S
C5395 C5394 1.391 . S
H5396 C5404 0.950 . S
H5397 C5409 0.950 . S
H5398 C5406 0.950 . S
H5399 C5408 0.950 . S
H5400 C5410 0.950 . S
H5401 C5412 0.950 . S
H5402 C5414 0.950 . S
H5403 C5415 0.950 . S
C5404 H5396 0.950 . S
C5404 C5405 1.386 . S
C5404 C5406 1.391 . S
C5405 C5404 1.386 . S
C5405 C5409 1.393 . S
C5406 H5398 0.950 . S
C5406 C5404 1.391 . S
C5406 C5407 1.400 . S
C5407 C5406 1.400 . S
C5407 C5408 1.398 . S
C5407 C5413 1.491 . S
C5408 H5399 0.950 . S
C5408 C5407 1.398 . S
C5408 C5409 1.391 . S
C5409 H5397 0.950 . S
C5409 C5405 1.393 . S
C5409 C5408 1.391 . S
C5410 H5400 0.950 . S
C5410 C5411 1.386 . S
C5410 C5412 1.391 . S
C5411 C5410 1.386 . S
C5411 C5415 1.393 . S
C5412 H5401 0.950 . S
C5412 C5410 1.391 . S
C5412 C5413 1.400 . S
C5413 C5407 1.491 . S
C5413 C5412 1.400 . S
C5413 C5414 1.398 . S
C5414 H5402 0.950 . S
C5414 C5413 1.398 . S
C5414 C5415 1.391 . S
C5415 H5403 0.950 . S
C5415 C5411 1.393 . S
C5415 C5414 1.391 . S
H5416 C5424 0.950 . S
H5417 C5429 0.950 . S
H5418 C5426 0.950 . S
H5419 C5428 0.950 . S
H5420 C5430 0.950 . S
H5421 C5432 0.950 . S
H5422 C5434 0.950 . S
H5423 C5435 0.950 . S
C5424 H5416 0.950 . S
C5424 C5425 1.386 . S
C5424 C5426 1.391 . S
C5425 C5424 1.386 . S
C5425 C5429 1.393 . S
C5426 H5418 0.950 . S
C5426 C5424 1.391 . S
C5426 C5427 1.400 . S
C5427 C5426 1.400 . S
C5427 C5428 1.398 . S
C5427 C5433 1.491 . S
C5428 H5419 0.950 . S
C5428 C5427 1.398 . S
C5428 C5429 1.391 . S
C5429 H5417 0.950 . S
C5429 C5425 1.393 . S
C5429 C5428 1.391 . S
C5430 H5420 0.950 . S
C5430 C5431 1.386 . S
C5430 C5432 1.391 . S
C5431 C5430 1.386 . S
C5431 C5435 1.393 . S
C5432 H5421 0.950 . S
C5432 C5430 1.391 . S
C5432 C5433 1.400 . S
C5433 C5427 1.491 . S
C5433 C5432 1.400 . S
C5433 C5434 1.398 . S
C5434 H5422 0.950 . S
C5434 C5433 1.398 . S
C5434 C5435 1.391 . S
C5435 H5423 0.950 . S
C5435 C5431 1.393 . S
C5435 C5434 1.391 . S
H5436 C5444 0.950 . S
H5437 C5449 0.950 . S
H5438 C5446 0.950 . S
H5439 C5448 0.950 . S
H5440 C5450 0.950 . S
H5441 C5452 0.950 . S
H5442 C5454 0.950 . S
H5443 C5455 0.950 . S
C5444 H5436 0.950 . S
C5444 C5445 1.386 . S
C5444 C5446 1.391 . S
C5445 C5444 1.386 . S
C5445 C5449 1.393 . S
C5446 H5438 0.950 . S
C5446 C5444 1.391 . S
C5446 C5447 1.400 . S
C5447 C5446 1.400 . S
C5447 C5448 1.398 . S
C5447 C5453 1.491 . S
C5448 H5439 0.950 . S
C5448 C5447 1.398 . S
C5448 C5449 1.391 . S
C5449 H5437 0.950 . S
C5449 C5445 1.393 . S
C5449 C5448 1.391 . S
C5450 H5440 0.950 . S
C5450 C5451 1.386 . S
C5450 C5452 1.391 . S
C5451 C5450 1.386 . S
C5451 C5455 1.393 . S
C5452 H5441 0.950 . S
C5452 C5450 1.391 . S
C5452 C5453 1.400 . S
C5453 C5447 1.491 . S
C5453 C5452 1.400 . S
C5453 C5454 1.398 . S
C5454 H5442 0.950 . S
C5454 C5453 1.398 . S
C5454 C5455 1.391 . S
C5455 H5443 0.950 . S
C5455 C5451 1.393 . S
C5455 C5454 1.391 . S
H5456 C5464 0.950 . S
H5457 C5469 0.950 . S
H5458 C5466 0.950 . S
H5459 C5468 0.950 . S
H5460 C5470 0.950 . S
H5461 C5472 0.950 . S
H5462 C5474 0.950 . S
H5463 C5475 0.950 . S
C5464 H5456 0.950 . S
C5464 C5465 1.386 . S
C5464 C5466 1.391 . S
C5465 C5464 1.386 . S
C5465 C5469 1.393 . S
C5466 H5458 0.950 . S
C5466 C5464 1.391 . S
C5466 C5467 1.400 . S
C5467 C5466 1.400 . S
C5467 C5468 1.398 . S
C5467 C5473 1.491 . S
C5468 H5459 0.950 . S
C5468 C5467 1.398 . S
C5468 C5469 1.391 . S
C5469 H5457 0.950 . S
C5469 C5465 1.393 . S
C5469 C5468 1.391 . S
C5470 H5460 0.950 . S
C5470 C5471 1.386 . S
C5470 C5472 1.391 . S
C5471 C5470 1.386 . S
C5471 C5475 1.393 . S
C5472 H5461 0.950 . S
C5472 C5470 1.391 . S
C5472 C5473 1.400 . S
C5473 C5467 1.491 . S
C5473 C5472 1.400 . S
C5473 C5474 1.398 . S
C5474 H5462 0.950 . S
C5474 C5473 1.398 . S
C5474 C5475 1.391 . S
C5475 H5463 0.950 . S
C5475 C5471 1.393 . S
C5475 C5474 1.391 . S
H5476 C5484 0.950 . S
H5477 C5489 0.950 . S
H5478 C5486 0.950 . S
H5479 C5488 0.950 . S
H5480 C5490 0.950 . S
H5481 C5492 0.950 . S
H5482 C5494 0.950 . S
H5483 C5495 0.950 . S
C5484 H5476 0.950 . S
C5484 C5485 1.386 . S
C5484 C5486 1.391 . S
C5485 C5484 1.386 . S
C5485 C5489 1.393 . S
C5486 H5478 0.950 . S
C5486 C5484 1.391 . S
C5486 C5487 1.400 . S
C5487 C5486 1.400 . S
C5487 C5488 1.398 . S
C5487 C5493 1.491 . S
C5488 H5479 0.950 . S
C5488 C5487 1.398 . S
C5488 C5489 1.391 . S
C5489 H5477 0.950 . S
C5489 C5485 1.393 . S
C5489 C5488 1.391 . S
C5490 H5480 0.950 . S
C5490 C5491 1.386 . S
C5490 C5492 1.391 . S
C5491 C5490 1.386 . S
C5491 C5495 1.393 . S
C5492 H5481 0.950 . S
C5492 C5490 1.391 . S
C5492 C5493 1.400 . S
C5493 C5487 1.491 . S
C5493 C5492 1.400 . S
C5493 C5494 1.398 . S
C5494 H5482 0.950 . S
C5494 C5493 1.398 . S
C5494 C5495 1.391 . S
C5495 H5483 0.950 . S
C5495 C5491 1.393 . S
C5495 C5494 1.391 . S
H5496 C5504 0.950 . S
H5497 C5509 0.950 . S
H5498 C5506 0.950 . S
H5499 C5508 0.950 . S
H5500 C5510 0.950 . S
H5501 C5512 0.950 . S
H5502 C5514 0.950 . S
H5503 C5515 0.950 . S
C5504 H5496 0.950 . S
C5504 C5505 1.386 . S
C5504 C5506 1.391 . S
C5505 C5504 1.386 . S
C5505 C5509 1.393 . S
C5506 H5498 0.950 . S
C5506 C5504 1.391 . S
C5506 C5507 1.400 . S
C5507 C5506 1.400 . S
C5507 C5508 1.398 . S
C5507 C5513 1.491 . S
C5508 H5499 0.950 . S
C5508 C5507 1.398 . S
C5508 C5509 1.391 . S
C5509 H5497 0.950 . S
C5509 C5505 1.393 . S
C5509 C5508 1.391 . S
C5510 H5500 0.950 . S
C5510 C5511 1.386 . S
C5510 C5512 1.391 . S
C5511 C5510 1.386 . S
C5511 C5515 1.393 . S
C5512 H5501 0.950 . S
C5512 C5510 1.391 . S
C5512 C5513 1.400 . S
C5513 C5507 1.491 . S
C5513 C5512 1.400 . S
C5513 C5514 1.398 . S
C5514 H5502 0.950 . S
C5514 C5513 1.398 . S
C5514 C5515 1.391 . S
C5515 H5503 0.950 . S
C5515 C5511 1.393 . S
C5515 C5514 1.391 . S
H5516 C5524 0.950 . S
H5517 C5529 0.950 . S
H5518 C5526 0.950 . S
H5519 C5528 0.950 . S
H5520 C5530 0.950 . S
H5521 C5532 0.950 . S
H5522 C5534 0.950 . S
H5523 C5535 0.950 . S
C5524 H5516 0.950 . S
C5524 C5525 1.386 . S
C5524 C5526 1.391 . S
C5525 C5524 1.386 . S
C5525 C5529 1.393 . S
C5526 H5518 0.950 . S
C5526 C5524 1.391 . S
C5526 C5527 1.400 . S
C5527 C5526 1.400 . S
C5527 C5528 1.398 . S
C5527 C5533 1.491 . S
C5528 H5519 0.950 . S
C5528 C5527 1.398 . S
C5528 C5529 1.391 . S
C5529 H5517 0.950 . S
C5529 C5525 1.393 . S
C5529 C5528 1.391 . S
C5530 H5520 0.950 . S
C5530 C5531 1.386 . S
C5530 C5532 1.391 . S
C5531 C5530 1.386 . S
C5531 C5535 1.393 . S
C5532 H5521 0.950 . S
C5532 C5530 1.391 . S
C5532 C5533 1.400 . S
C5533 C5527 1.491 . S
C5533 C5532 1.400 . S
C5533 C5534 1.398 . S
C5534 H5522 0.950 . S
C5534 C5533 1.398 . S
C5534 C5535 1.391 . S
C5535 H5523 0.950 . S
C5535 C5531 1.393 . S
C5535 C5534 1.391 . S
H5536 C5544 0.950 . S
H5537 C5549 0.950 . S
H5538 C5546 0.950 . S
H5539 C5548 0.950 . S
H5540 C5550 0.950 . S
H5541 C5552 0.950 . S
H5542 C5554 0.950 . S
H5543 C5555 0.950 . S
C5544 H5536 0.950 . S
C5544 C5545 1.386 . S
C5544 C5546 1.391 . S
C5545 C5544 1.386 . S
C5545 C5549 1.393 . S
C5546 H5538 0.950 . S
C5546 C5544 1.391 . S
C5546 C5547 1.400 . S
C5547 C5546 1.400 . S
C5547 C5548 1.398 . S
C5547 C5553 1.491 . S
C5548 H5539 0.950 . S
C5548 C5547 1.398 . S
C5548 C5549 1.391 . S
C5549 H5537 0.950 . S
C5549 C5545 1.393 . S
C5549 C5548 1.391 . S
C5550 H5540 0.950 . S
C5550 C5551 1.386 . S
C5550 C5552 1.391 . S
C5551 C5550 1.386 . S
C5551 C5555 1.393 . S
C5552 H5541 0.950 . S
C5552 C5550 1.391 . S
C5552 C5553 1.400 . S
C5553 C5547 1.491 . S
C5553 C5552 1.400 . S
C5553 C5554 1.398 . S
C5554 H5542 0.950 . S
C5554 C5553 1.398 . S
C5554 C5555 1.391 . S
C5555 H5543 0.950 . S
C5555 C5551 1.393 . S
C5555 C5554 1.391 . S
H5556 C5564 0.950 . S
H5557 C5569 0.950 . S
H5558 C5566 0.950 . S
H5559 C5568 0.950 . S
H5560 C5570 0.950 . S
H5561 C5572 0.950 . S
H5562 C5574 0.950 . S
H5563 C5575 0.950 . S
C5564 H5556 0.950 . S
C5564 C5565 1.386 . S
C5564 C5566 1.391 . S
C5565 C5564 1.386 . S
C5565 C5569 1.393 . S
C5566 H5558 0.950 . S
C5566 C5564 1.391 . S
C5566 C5567 1.400 . S
C5567 C5566 1.400 . S
C5567 C5568 1.398 . S
C5567 C5573 1.491 . S
C5568 H5559 0.950 . S
C5568 C5567 1.398 . S
C5568 C5569 1.391 . S
C5569 H5557 0.950 . S
C5569 C5565 1.393 . S
C5569 C5568 1.391 . S
C5570 H5560 0.950 . S
C5570 C5571 1.386 . S
C5570 C5572 1.391 . S
C5571 C5570 1.386 . S
C5571 C5575 1.393 . S
C5572 H5561 0.950 . S
C5572 C5570 1.391 . S
C5572 C5573 1.400 . S
C5573 C5567 1.491 . S
C5573 C5572 1.400 . S
C5573 C5574 1.398 . S
C5574 H5562 0.950 . S
C5574 C5573 1.398 . S
C5574 C5575 1.391 . S
C5575 H5563 0.950 . S
C5575 C5571 1.393 . S
C5575 C5574 1.391 . S
H5576 C5584 0.950 . S
H5577 C5589 0.950 . S
H5578 C5586 0.950 . S
H5579 C5588 0.950 . S
H5580 C5590 0.950 . S
H5581 C5592 0.950 . S
H5582 C5594 0.950 . S
H5583 C5595 0.950 . S
C5584 H5576 0.950 . S
C5584 C5585 1.386 . S
C5584 C5586 1.391 . S
C5585 C5584 1.386 . S
C5585 C5589 1.393 . S
C5586 H5578 0.950 . S
C5586 C5584 1.391 . S
C5586 C5587 1.400 . S
C5587 C5586 1.400 . S
C5587 C5588 1.398 . S
C5587 C5593 1.491 . S
C5588 H5579 0.950 . S
C5588 C5587 1.398 . S
C5588 C5589 1.391 . S
C5589 H5577 0.950 . S
C5589 C5585 1.393 . S
C5589 C5588 1.391 . S
C5590 H5580 0.950 . S
C5590 C5591 1.386 . S
C5590 C5592 1.391 . S
C5591 C5590 1.386 . S
C5591 C5595 1.393 . S
C5592 H5581 0.950 . S
C5592 C5590 1.391 . S
C5592 C5593 1.400 . S
C5593 C5587 1.491 . S
C5593 C5592 1.400 . S
C5593 C5594 1.398 . S
C5594 H5582 0.950 . S
C5594 C5593 1.398 . S
C5594 C5595 1.391 . S
C5595 H5583 0.950 . S
C5595 C5591 1.393 . S
C5595 C5594 1.391 . S
H5596 C5604 0.950 . S
H5597 C5609 0.950 . S
H5598 C5606 0.950 . S
H5599 C5608 0.950 . S
H5600 C5610 0.950 . S
H5601 C5612 0.950 . S
H5602 C5614 0.950 . S
H5603 C5615 0.950 . S
C5604 H5596 0.950 . S
C5604 C5605 1.386 . S
C5604 C5606 1.391 . S
C5605 C5604 1.386 . S
C5605 C5609 1.393 . S
C5606 H5598 0.950 . S
C5606 C5604 1.391 . S
C5606 C5607 1.400 . S
C5607 C5606 1.400 . S
C5607 C5608 1.398 . S
C5607 C5613 1.491 . S
C5608 H5599 0.950 . S
C5608 C5607 1.398 . S
C5608 C5609 1.391 . S
C5609 H5597 0.950 . S
C5609 C5605 1.393 . S
C5609 C5608 1.391 . S
C5610 H5600 0.950 . S
C5610 C5611 1.386 . S
C5610 C5612 1.391 . S
C5611 C5610 1.386 . S
C5611 C5615 1.393 . S
C5612 H5601 0.950 . S
C5612 C5610 1.391 . S
C5612 C5613 1.400 . S
C5613 C5607 1.491 . S
C5613 C5612 1.400 . S
C5613 C5614 1.398 . S
C5614 H5602 0.950 . S
C5614 C5613 1.398 . S
C5614 C5615 1.391 . S
C5615 H5603 0.950 . S
C5615 C5611 1.393 . S
C5615 C5614 1.391 . S
H5616 C5624 0.950 . S
H5617 C5629 0.950 . S
H5618 C5626 0.950 . S
H5619 C5628 0.950 . S
H5620 C5630 0.950 . S
H5621 C5632 0.950 . S
H5622 C5634 0.950 . S
H5623 C5635 0.950 . S
C5624 H5616 0.950 . S
C5624 C5625 1.386 . S
C5624 C5626 1.391 . S
C5625 C5624 1.386 . S
C5625 C5629 1.393 . S
C5626 H5618 0.950 . S
C5626 C5624 1.391 . S
C5626 C5627 1.400 . S
C5627 C5626 1.400 . S
C5627 C5628 1.398 . S
C5627 C5633 1.491 . S
C5628 H5619 0.950 . S
C5628 C5627 1.398 . S
C5628 C5629 1.391 . S
C5629 H5617 0.950 . S
C5629 C5625 1.393 . S
C5629 C5628 1.391 . S
C5630 H5620 0.950 . S
C5630 C5631 1.386 . S
C5630 C5632 1.391 . S
C5631 C5630 1.386 . S
C5631 C5635 1.393 . S
C5632 H5621 0.950 . S
C5632 C5630 1.391 . S
C5632 C5633 1.400 . S
C5633 C5627 1.491 . S
C5633 C5632 1.400 . S
C5633 C5634 1.398 . S
C5634 H5622 0.950 . S
C5634 C5633 1.398 . S
C5634 C5635 1.391 . S
C5635 H5623 0.950 . S
C5635 C5631 1.393 . S
C5635 C5634 1.391 . S
H5636 C5644 0.950 . S
H5637 C5649 0.950 . S
H5638 C5646 0.950 . S
H5639 C5648 0.950 . S
H5640 C5650 0.950 . S
H5641 C5652 0.950 . S
H5642 C5654 0.950 . S
H5643 C5655 0.950 . S
C5644 H5636 0.950 . S
C5644 C5645 1.386 . S
C5644 C5646 1.391 . S
C5645 C5644 1.386 . S
C5645 C5649 1.393 . S
C5646 H5638 0.950 . S
C5646 C5644 1.391 . S
C5646 C5647 1.400 . S
C5647 C5646 1.400 . S
C5647 C5648 1.398 . S
C5647 C5653 1.491 . S
C5648 H5639 0.950 . S
C5648 C5647 1.398 . S
C5648 C5649 1.391 . S
C5649 H5637 0.950 . S
C5649 C5645 1.393 . S
C5649 C5648 1.391 . S
C5650 H5640 0.950 . S
C5650 C5651 1.386 . S
C5650 C5652 1.391 . S
C5651 C5650 1.386 . S
C5651 C5655 1.393 . S
C5652 H5641 0.950 . S
C5652 C5650 1.391 . S
C5652 C5653 1.400 . S
C5653 C5647 1.491 . S
C5653 C5652 1.400 . S
C5653 C5654 1.398 . S
C5654 H5642 0.950 . S
C5654 C5653 1.398 . S
C5654 C5655 1.391 . S
C5655 H5643 0.950 . S
C5655 C5651 1.393 . S
C5655 C5654 1.391 . S
H5656 C5664 0.950 . S
H5657 C5669 0.950 . S
H5658 C5666 0.950 . S
H5659 C5668 0.950 . S
H5660 C5670 0.950 . S
H5661 C5672 0.950 . S
H5662 C5674 0.950 . S
H5663 C5675 0.950 . S
C5664 H5656 0.950 . S
C5664 C5665 1.386 . S
C5664 C5666 1.391 . S
C5665 C5664 1.386 . S
C5665 C5669 1.393 . S
C5666 H5658 0.950 . S
C5666 C5664 1.391 . S
C5666 C5667 1.400 . S
C5667 C5666 1.400 . S
C5667 C5668 1.398 . S
C5667 C5673 1.491 . S
C5668 H5659 0.950 . S
C5668 C5667 1.398 . S
C5668 C5669 1.391 . S
C5669 H5657 0.950 . S
C5669 C5665 1.393 . S
C5669 C5668 1.391 . S
C5670 H5660 0.950 . S
C5670 C5671 1.386 . S
C5670 C5672 1.391 . S
C5671 C5670 1.386 . S
C5671 C5675 1.393 . S
C5672 H5661 0.950 . S
C5672 C5670 1.391 . S
C5672 C5673 1.400 . S
C5673 C5667 1.491 . S
C5673 C5672 1.400 . S
C5673 C5674 1.398 . S
C5674 H5662 0.950 . S
C5674 C5673 1.398 . S
C5674 C5675 1.391 . S
C5675 H5663 0.950 . S
C5675 C5671 1.393 . S
C5675 C5674 1.391 . S
H5676 C5684 0.950 . S
H5677 C5689 0.950 . S
H5678 C5686 0.950 . S
H5679 C5688 0.950 . S
H5680 C5690 0.950 . S
H5681 C5692 0.950 . S
H5682 C5694 0.950 . S
H5683 C5695 0.950 . S
C5684 H5676 0.950 . S
C5684 C5685 1.386 . S
C5684 C5686 1.391 . S
C5685 C5684 1.386 . S
C5685 C5689 1.393 . S
C5686 H5678 0.950 . S
C5686 C5684 1.391 . S
C5686 C5687 1.400 . S
C5687 C5686 1.400 . S
C5687 C5688 1.398 . S
C5687 C5693 1.491 . S
C5688 H5679 0.950 . S
C5688 C5687 1.398 . S
C5688 C5689 1.391 . S
C5689 H5677 0.950 . S
C5689 C5685 1.393 . S
C5689 C5688 1.391 . S
C5690 H5680 0.950 . S
C5690 C5691 1.386 . S
C5690 C5692 1.391 . S
C5691 C5690 1.386 . S
C5691 C5695 1.393 . S
C5692 H5681 0.950 . S
C5692 C5690 1.391 . S
C5692 C5693 1.400 . S
C5693 C5687 1.491 . S
C5693 C5692 1.400 . S
C5693 C5694 1.398 . S
C5694 H5682 0.950 . S
C5694 C5693 1.398 . S
C5694 C5695 1.391 . S
C5695 H5683 0.950 . S
C5695 C5691 1.393 . S
C5695 C5694 1.391 . S
H5696 C5704 0.950 . S
H5697 C5709 0.950 . S
H5698 C5706 0.950 . S
H5699 C5708 0.950 . S
H5700 C5710 0.950 . S
H5701 C5712 0.950 . S
H5702 C5714 0.950 . S
H5703 C5715 0.950 . S
C5704 H5696 0.950 . S
C5704 C5705 1.386 . S
C5704 C5706 1.391 . S
C5705 C5704 1.386 . S
C5705 C5709 1.393 . S
C5706 H5698 0.950 . S
C5706 C5704 1.391 . S
C5706 C5707 1.400 . S
C5707 C5706 1.400 . S
C5707 C5708 1.398 . S
C5707 C5713 1.491 . S
C5708 H5699 0.950 . S
C5708 C5707 1.398 . S
C5708 C5709 1.391 . S
C5709 H5697 0.950 . S
C5709 C5705 1.393 . S
C5709 C5708 1.391 . S
C5710 H5700 0.950 . S
C5710 C5711 1.386 . S
C5710 C5712 1.391 . S
C5711 C5710 1.386 . S
C5711 C5715 1.393 . S
C5712 H5701 0.950 . S
C5712 C5710 1.391 . S
C5712 C5713 1.400 . S
C5713 C5707 1.491 . S
C5713 C5712 1.400 . S
C5713 C5714 1.398 . S
C5714 H5702 0.950 . S
C5714 C5713 1.398 . S
C5714 C5715 1.391 . S
C5715 H5703 0.950 . S
C5715 C5711 1.393 . S
C5715 C5714 1.391 . S
H5716 C5724 0.950 . S
H5717 C5729 0.950 . S
H5718 C5726 0.950 . S
H5719 C5728 0.950 . S
H5720 C5730 0.950 . S
H5721 C5732 0.950 . S
H5722 C5734 0.950 . S
H5723 C5735 0.950 . S
C5724 H5716 0.950 . S
C5724 C5725 1.386 . S
C5724 C5726 1.391 . S
C5725 C5724 1.386 . S
C5725 C5729 1.393 . S
C5726 H5718 0.950 . S
C5726 C5724 1.391 . S
C5726 C5727 1.400 . S
C5727 C5726 1.400 . S
C5727 C5728 1.398 . S
C5727 C5733 1.491 . S
C5728 H5719 0.950 . S
C5728 C5727 1.398 . S
C5728 C5729 1.391 . S
C5729 H5717 0.950 . S
C5729 C5725 1.393 . S
C5729 C5728 1.391 . S
C5730 H5720 0.950 . S
C5730 C5731 1.386 . S
C5730 C5732 1.391 . S
C5731 C5730 1.386 . S
C5731 C5735 1.393 . S
C5732 H5721 0.950 . S
C5732 C5730 1.391 . S
C5732 C5733 1.400 . S
C5733 C5727 1.491 . S
C5733 C5732 1.400 . S
C5733 C5734 1.398 . S
C5734 H5722 0.950 . S
C5734 C5733 1.398 . S
C5734 C5735 1.391 . S
C5735 H5723 0.950 . S
C5735 C5731 1.393 . S
C5735 C5734 1.391 . S
H5736 C5744 0.950 . S
H5737 C5749 0.950 . S
H5738 C5746 0.950 . S
H5739 C5748 0.950 . S
H5740 C5750 0.950 . S
H5741 C5752 0.950 . S
H5742 C5754 0.950 . S
H5743 C5755 0.950 . S
C5744 H5736 0.950 . S
C5744 C5745 1.386 . S
C5744 C5746 1.391 . S
C5745 C5744 1.386 . S
C5745 C5749 1.393 . S
C5746 H5738 0.950 . S
C5746 C5744 1.391 . S
C5746 C5747 1.400 . S
C5747 C5746 1.400 . S
C5747 C5748 1.398 . S
C5747 C5753 1.491 . S
C5748 H5739 0.950 . S
C5748 C5747 1.398 . S
C5748 C5749 1.391 . S
C5749 H5737 0.950 . S
C5749 C5745 1.393 . S
C5749 C5748 1.391 . S
C5750 H5740 0.950 . S
C5750 C5751 1.386 . S
C5750 C5752 1.391 . S
C5751 C5750 1.386 . S
C5751 C5755 1.393 . S
C5752 H5741 0.950 . S
C5752 C5750 1.391 . S
C5752 C5753 1.400 . S
C5753 C5747 1.491 . S
C5753 C5752 1.400 . S
C5753 C5754 1.398 . S
C5754 H5742 0.950 . S
C5754 C5753 1.398 . S
C5754 C5755 1.391 . S
C5755 H5743 0.950 . S
C5755 C5751 1.393 . S
C5755 C5754 1.391 . S
H5756 C5764 0.950 . S
H5757 C5769 0.950 . S
H5758 C5766 0.950 . S
H5759 C5768 0.950 . S
H5760 C5770 0.950 . S
H5761 C5772 0.950 . S
H5762 C5774 0.950 . S
H5763 C5775 0.950 . S
C5764 H5756 0.950 . S
C5764 C5765 1.386 . S
C5764 C5766 1.391 . S
C5765 C5764 1.386 . S
C5765 C5769 1.393 . S
C5766 H5758 0.950 . S
C5766 C5764 1.391 . S
C5766 C5767 1.400 . S
C5767 C5766 1.400 . S
C5767 C5768 1.398 . S
C5767 C5773 1.491 . S
C5768 H5759 0.950 . S
C5768 C5767 1.398 . S
C5768 C5769 1.391 . S
C5769 H5757 0.950 . S
C5769 C5765 1.393 . S
C5769 C5768 1.391 . S
C5770 H5760 0.950 . S
C5770 C5771 1.386 . S
C5770 C5772 1.391 . S
C5771 C5770 1.386 . S
C5771 C5775 1.393 . S
C5772 H5761 0.950 . S
C5772 C5770 1.391 . S
C5772 C5773 1.400 . S
C5773 C5767 1.491 . S
C5773 C5772 1.400 . S
C5773 C5774 1.398 . S
C5774 H5762 0.950 . S
C5774 C5773 1.398 . S
C5774 C5775 1.391 . S
C5775 H5763 0.950 . S
C5775 C5771 1.393 . S
C5775 C5774 1.391 . S
H5776 C5784 0.950 . S
H5777 C5789 0.950 . S
H5778 C5786 0.950 . S
H5779 C5788 0.950 . S
H5780 C5790 0.950 . S
H5781 C5792 0.950 . S
H5782 C5794 0.950 . S
H5783 C5795 0.950 . S
C5784 H5776 0.950 . S
C5784 C5785 1.386 . S
C5784 C5786 1.391 . S
C5785 C5784 1.386 . S
C5785 C5789 1.393 . S
C5786 H5778 0.950 . S
C5786 C5784 1.391 . S
C5786 C5787 1.400 . S
C5787 C5786 1.400 . S
C5787 C5788 1.398 . S
C5787 C5793 1.491 . S
C5788 H5779 0.950 . S
C5788 C5787 1.398 . S
C5788 C5789 1.391 . S
C5789 H5777 0.950 . S
C5789 C5785 1.393 . S
C5789 C5788 1.391 . S
C5790 H5780 0.950 . S
C5790 C5791 1.386 . S
C5790 C5792 1.391 . S
C5791 C5790 1.386 . S
C5791 C5795 1.393 . S
C5792 H5781 0.950 . S
C5792 C5790 1.391 . S
C5792 C5793 1.400 . S
C5793 C5787 1.491 . S
C5793 C5792 1.400 . S
C5793 C5794 1.398 . S
C5794 H5782 0.950 . S
C5794 C5793 1.398 . S
C5794 C5795 1.391 . S
C5795 H5783 0.950 . S
C5795 C5791 1.393 . S
C5795 C5794 1.391 . S
H5796 C5804 0.950 . S
H5797 C5809 0.950 . S
H5798 C5806 0.950 . S
H5799 C5808 0.950 . S
H5800 C5810 0.950 . S
H5801 C5812 0.950 . S
H5802 C5814 0.950 . S
H5803 C5815 0.950 . S
C5804 H5796 0.950 . S
C5804 C5805 1.386 . S
C5804 C5806 1.391 . S
C5805 C5804 1.386 . S
C5805 C5809 1.393 . S
C5806 H5798 0.950 . S
C5806 C5804 1.391 . S
C5806 C5807 1.400 . S
C5807 C5806 1.400 . S
C5807 C5808 1.398 . S
C5807 C5813 1.491 . S
C5808 H5799 0.950 . S
C5808 C5807 1.398 . S
C5808 C5809 1.391 . S
C5809 H5797 0.950 . S
C5809 C5805 1.393 . S
C5809 C5808 1.391 . S
C5810 H5800 0.950 . S
C5810 C5811 1.386 . S
C5810 C5812 1.391 . S
C5811 C5810 1.386 . S
C5811 C5815 1.393 . S
C5812 H5801 0.950 . S
C5812 C5810 1.391 . S
C5812 C5813 1.400 . S
C5813 C5807 1.491 . S
C5813 C5812 1.400 . S
C5813 C5814 1.398 . S
C5814 H5802 0.950 . S
C5814 C5813 1.398 . S
C5814 C5815 1.391 . S
C5815 H5803 0.950 . S
C5815 C5811 1.393 . S
C5815 C5814 1.391 . S
H5816 C5824 0.950 . S
H5817 C5829 0.950 . S
H5818 C5826 0.950 . S
H5819 C5828 0.950 . S
H5820 C5830 0.950 . S
H5821 C5832 0.950 . S
H5822 C5834 0.950 . S
H5823 C5835 0.950 . S
C5824 H5816 0.950 . S
C5824 C5825 1.386 . S
C5824 C5826 1.391 . S
C5825 C5824 1.386 . S
C5825 C5829 1.393 . S
C5826 H5818 0.950 . S
C5826 C5824 1.391 . S
C5826 C5827 1.400 . S
C5827 C5826 1.400 . S
C5827 C5828 1.398 . S
C5827 C5833 1.491 . S
C5828 H5819 0.950 . S
C5828 C5827 1.398 . S
C5828 C5829 1.391 . S
C5829 H5817 0.950 . S
C5829 C5825 1.393 . S
C5829 C5828 1.391 . S
C5830 H5820 0.950 . S
C5830 C5831 1.386 . S
C5830 C5832 1.391 . S
C5831 C5830 1.386 . S
C5831 C5835 1.393 . S
C5832 H5821 0.950 . S
C5832 C5830 1.391 . S
C5832 C5833 1.400 . S
C5833 C5827 1.491 . S
C5833 C5832 1.400 . S
C5833 C5834 1.398 . S
C5834 H5822 0.950 . S
C5834 C5833 1.398 . S
C5834 C5835 1.391 . S
C5835 H5823 0.950 . S
C5835 C5831 1.393 . S
C5835 C5834 1.391 . S
H5836 C5844 0.950 . S
H5837 C5849 0.950 . S
H5838 C5846 0.950 . S
H5839 C5848 0.950 . S
H5840 C5850 0.950 . S
H5841 C5852 0.950 . S
H5842 C5854 0.950 . S
H5843 C5855 0.950 . S
C5844 H5836 0.950 . S
C5844 C5845 1.386 . S
C5844 C5846 1.391 . S
C5845 C5844 1.386 . S
C5845 C5849 1.393 . S
C5846 H5838 0.950 . S
C5846 C5844 1.391 . S
C5846 C5847 1.400 . S
C5847 C5846 1.400 . S
C5847 C5848 1.398 . S
C5847 C5853 1.491 . S
C5848 H5839 0.950 . S
C5848 C5847 1.398 . S
C5848 C5849 1.391 . S
C5849 H5837 0.950 . S
C5849 C5845 1.393 . S
C5849 C5848 1.391 . S
C5850 H5840 0.950 . S
C5850 C5851 1.386 . S
C5850 C5852 1.391 . S
C5851 C5850 1.386 . S
C5851 C5855 1.393 . S
C5852 H5841 0.950 . S
C5852 C5850 1.391 . S
C5852 C5853 1.400 . S
C5853 C5847 1.491 . S
C5853 C5852 1.400 . S
C5853 C5854 1.398 . S
C5854 H5842 0.950 . S
C5854 C5853 1.398 . S
C5854 C5855 1.391 . S
C5855 H5843 0.950 . S
C5855 C5851 1.393 . S
C5855 C5854 1.391 . S
H5856 C5864 0.950 . S
H5857 C5869 0.950 . S
H5858 C5866 0.950 . S
H5859 C5868 0.950 . S
H5860 C5870 0.950 . S
H5861 C5872 0.950 . S
H5862 C5874 0.950 . S
H5863 C5875 0.950 . S
C5864 H5856 0.950 . S
C5864 C5865 1.386 . S
C5864 C5866 1.391 . S
C5865 C5864 1.386 . S
C5865 C5869 1.393 . S
C5866 H5858 0.950 . S
C5866 C5864 1.391 . S
C5866 C5867 1.400 . S
C5867 C5866 1.400 . S
C5867 C5868 1.398 . S
C5867 C5873 1.491 . S
C5868 H5859 0.950 . S
C5868 C5867 1.398 . S
C5868 C5869 1.391 . S
C5869 H5857 0.950 . S
C5869 C5865 1.393 . S
C5869 C5868 1.391 . S
C5870 H5860 0.950 . S
C5870 C5871 1.386 . S
C5870 C5872 1.391 . S
C5871 C5870 1.386 . S
C5871 C5875 1.393 . S
C5872 H5861 0.950 . S
C5872 C5870 1.391 . S
C5872 C5873 1.400 . S
C5873 C5867 1.491 . S
C5873 C5872 1.400 . S
C5873 C5874 1.398 . S
C5874 H5862 0.950 . S
C5874 C5873 1.398 . S
C5874 C5875 1.391 . S
C5875 H5863 0.950 . S
C5875 C5871 1.393 . S
C5875 C5874 1.391 . S
H5876 C5884 0.950 . S
H5877 C5889 0.950 . S
H5878 C5886 0.950 . S
H5879 C5888 0.950 . S
H5880 C5890 0.950 . S
H5881 C5892 0.950 . S
H5882 C5894 0.950 . S
H5883 C5895 0.950 . S
C5884 H5876 0.950 . S
C5884 C5885 1.386 . S
C5884 C5886 1.391 . S
C5885 C5884 1.386 . S
C5885 C5889 1.393 . S
C5886 H5878 0.950 . S
C5886 C5884 1.391 . S
C5886 C5887 1.400 . S
C5887 C5886 1.400 . S
C5887 C5888 1.398 . S
C5887 C5893 1.491 . S
C5888 H5879 0.950 . S
C5888 C5887 1.398 . S
C5888 C5889 1.391 . S
C5889 H5877 0.950 . S
C5889 C5885 1.393 . S
C5889 C5888 1.391 . S
C5890 H5880 0.950 . S
C5890 C5891 1.386 . S
C5890 C5892 1.391 . S
C5891 C5890 1.386 . S
C5891 C5895 1.393 . S
C5892 H5881 0.950 . S
C5892 C5890 1.391 . S
C5892 C5893 1.400 . S
C5893 C5887 1.491 . S
C5893 C5892 1.400 . S
C5893 C5894 1.398 . S
C5894 H5882 0.950 . S
C5894 C5893 1.398 . S
C5894 C5895 1.391 . S
C5895 H5883 0.950 . S
C5895 C5891 1.393 . S
C5895 C5894 1.391 . S
H5896 C5904 0.950 . S
H5897 C5909 0.950 . S
H5898 C5906 0.950 . S
H5899 C5908 0.950 . S
H5900 C5910 0.950 . S
H5901 C5912 0.950 . S
H5902 C5914 0.950 . S
H5903 C5915 0.950 . S
C5904 H5896 0.950 . S
C5904 C5905 1.386 . S
C5904 C5906 1.391 . S
C5905 C5904 1.386 . S
C5905 C5909 1.393 . S
C5906 H5898 0.950 . S
C5906 C5904 1.391 . S
C5906 C5907 1.400 . S
C5907 C5906 1.400 . S
C5907 C5908 1.398 . S
C5907 C5913 1.491 . S
C5908 H5899 0.950 . S
C5908 C5907 1.398 . S
C5908 C5909 1.391 . S
C5909 H5897 0.950 . S
C5909 C5905 1.393 . S
C5909 C5908 1.391 . S
C5910 H5900 0.950 . S
C5910 C5911 1.386 . S
C5910 C5912 1.391 . S
C5911 C5910 1.386 . S
C5911 C5915 1.393 . S
C5912 H5901 0.950 . S
C5912 C5910 1.391 . S
C5912 C5913 1.400 . S
C5913 C5907 1.491 . S
C5913 C5912 1.400 . S
C5913 C5914 1.398 . S
C5914 H5902 0.950 . S
C5914 C5913 1.398 . S
C5914 C5915 1.391 . S
C5915 H5903 0.950 . S
C5915 C5911 1.393 . S
C5915 C5914 1.391 . S
H5916 C5924 0.950 . S
H5917 C5929 0.950 . S
H5918 C5926 0.950 . S
H5919 C5928 0.950 . S
H5920 C5930 0.950 . S
H5921 C5932 0.950 . S
H5922 C5934 0.950 . S
H5923 C5935 0.950 . S
C5924 H5916 0.950 . S
C5924 C5925 1.386 . S
C5924 C5926 1.391 . S
C5925 C5924 1.386 . S
C5925 C5929 1.393 . S
C5926 H5918 0.950 . S
C5926 C5924 1.391 . S
C5926 C5927 1.400 . S
C5927 C5926 1.400 . S
C5927 C5928 1.398 . S
C5927 C5933 1.491 . S
C5928 H5919 0.950 . S
C5928 C5927 1.398 . S
C5928 C5929 1.391 . S
C5929 H5917 0.950 . S
C5929 C5925 1.393 . S
C5929 C5928 1.391 . S
C5930 H5920 0.950 . S
C5930 C5931 1.386 . S
C5930 C5932 1.391 . S
C5931 C5930 1.386 . S
C5931 C5935 1.393 . S
C5932 H5921 0.950 . S
C5932 C5930 1.391 . S
C5932 C5933 1.400 . S
C5933 C5927 1.491 . S
C5933 C5932 1.400 . S
C5933 C5934 1.398 . S
C5934 H5922 0.950 . S
C5934 C5933 1.398 . S
C5934 C5935 1.391 . S
C5935 H5923 0.950 . S
C5935 C5931 1.393 . S
C5935 C5934 1.391 . S
H5936 C5944 0.950 . S
H5937 C5949 0.950 . S
H5938 C5946 0.950 . S
H5939 C5948 0.950 . S
H5940 C5950 0.950 . S
H5941 C5952 0.950 . S
H5942 C5954 0.950 . S
H5943 C5955 0.950 . S
C5944 H5936 0.950 . S
C5944 C5945 1.386 . S
C5944 C5946 1.391 . S
C5945 C5944 1.386 . S
C5945 C5949 1.393 . S
C5946 H5938 0.950 . S
C5946 C5944 1.391 . S
C5946 C5947 1.400 . S
C5947 C5946 1.400 . S
C5947 C5948 1.398 . S
C5947 C5953 1.491 . S
C5948 H5939 0.950 . S
C5948 C5947 1.398 . S
C5948 C5949 1.391 . S
C5949 H5937 0.950 . S
C5949 C5945 1.393 . S
C5949 C5948 1.391 . S
C5950 H5940 0.950 . S
C5950 C5951 1.386 . S
C5950 C5952 1.391 . S
C5951 C5950 1.386 . S
C5951 C5955 1.393 . S
C5952 H5941 0.950 . S
C5952 C5950 1.391 . S
C5952 C5953 1.400 . S
C5953 C5947 1.491 . S
C5953 C5952 1.400 . S
C5953 C5954 1.398 . S
C5954 H5942 0.950 . S
C5954 C5953 1.398 . S
C5954 C5955 1.391 . S
C5955 H5943 0.950 . S
C5955 C5951 1.393 . S
C5955 C5954 1.391 . S
H5956 C5964 0.950 . S
H5957 C5969 0.950 . S
H5958 C5966 0.950 . S
H5959 C5968 0.950 . S
H5960 C5970 0.950 . S
H5961 C5972 0.950 . S
H5962 C5974 0.950 . S
H5963 C5975 0.950 . S
C5964 H5956 0.950 . S
C5964 C5965 1.386 . S
C5964 C5966 1.391 . S
C5965 C5964 1.386 . S
C5965 C5969 1.393 . S
C5966 H5958 0.950 . S
C5966 C5964 1.391 . S
C5966 C5967 1.400 . S
C5967 C5966 1.400 . S
C5967 C5968 1.398 . S
C5967 C5973 1.491 . S
C5968 H5959 0.950 . S
C5968 C5967 1.398 . S
C5968 C5969 1.391 . S
C5969 H5957 0.950 . S
C5969 C5965 1.393 . S
C5969 C5968 1.391 . S
C5970 H5960 0.950 . S
C5970 C5971 1.386 . S
C5970 C5972 1.391 . S
C5971 C5970 1.386 . S
C5971 C5975 1.393 . S
C5972 H5961 0.950 . S
C5972 C5970 1.391 . S
C5972 C5973 1.400 . S
C5973 C5967 1.491 . S
C5973 C5972 1.400 . S
C5973 C5974 1.398 . S
C5974 H5962 0.950 . S
C5974 C5973 1.398 . S
C5974 C5975 1.391 . S
C5975 H5963 0.950 . S
C5975 C5971 1.393 . S
C5975 C5974 1.391 . S
H5976 C5984 0.950 . S
H5977 C5989 0.950 . S
H5978 C5986 0.950 . S
H5979 C5988 0.950 . S
H5980 C5990 0.950 . S
H5981 C5992 0.950 . S
H5982 C5994 0.950 . S
H5983 C5995 0.950 . S
C5984 H5976 0.950 . S
C5984 C5985 1.386 . S
C5984 C5986 1.391 . S
C5985 C5984 1.386 . S
C5985 C5989 1.393 . S
C5986 H5978 0.950 . S
C5986 C5984 1.391 . S
C5986 C5987 1.400 . S
C5987 C5986 1.400 . S
C5987 C5988 1.398 . S
C5987 C5993 1.491 . S
C5988 H5979 0.950 . S
C5988 C5987 1.398 . S
C5988 C5989 1.391 . S
C5989 H5977 0.950 . S
C5989 C5985 1.393 . S
C5989 C5988 1.391 . S
C5990 H5980 0.950 . S
C5990 C5991 1.386 . S
C5990 C5992 1.391 . S
C5991 C5990 1.386 . S
C5991 C5995 1.393 . S
C5992 H5981 0.950 . S
C5992 C5990 1.391 . S
C5992 C5993 1.400 . S
C5993 C5987 1.491 . S
C5993 C5992 1.400 . S
C5993 C5994 1.398 . S
C5994 H5982 0.950 . S
C5994 C5993 1.398 . S
C5994 C5995 1.391 . S
C5995 H5983 0.950 . S
C5995 C5991 1.393 . S
C5995 C5994 1.391 . S
H5996 C6004 0.950 . S
H5997 C6009 0.950 . S
H5998 C6006 0.950 . S
H5999 C6008 0.950 . S
H6000 C6010 0.950 . S
H6001 C6012 0.950 . S
H6002 C6014 0.950 . S
H6003 C6015 0.950 . S
C6004 H5996 0.950 . S
C6004 C6005 1.386 . S
C6004 C6006 1.391 . S
C6005 C6004 1.386 . S
C6005 C6009 1.393 . S
C6006 H5998 0.950 . S
C6006 C6004 1.391 . S
C6006 C6007 1.400 . S
C6007 C6006 1.400 . S
C6007 C6008 1.398 . S
C6007 C6013 1.491 . S
C6008 H5999 0.950 . S
C6008 C6007 1.398 . S
C6008 C6009 1.391 . S
C6009 H5997 0.950 . S
C6009 C6005 1.393 . S
C6009 C6008 1.391 . S
C6010 H6000 0.950 . S
C6010 C6011 1.386 . S
C6010 C6012 1.391 . S
C6011 C6010 1.386 . S
C6011 C6015 1.393 . S
C6012 H6001 0.950 . S
C6012 C6010 1.391 . S
C6012 C6013 1.400 . S
C6013 C6007 1.491 . S
C6013 C6012 1.400 . S
C6013 C6014 1.398 . S
C6014 H6002 0.950 . S
C6014 C6013 1.398 . S
C6014 C6015 1.391 . S
C6015 H6003 0.950 . S
C6015 C6011 1.393 . S
C6015 C6014 1.391 . S
H6016 C6024 0.950 . S
H6017 C6029 0.950 . S
H6018 C6026 0.950 . S
H6019 C6028 0.950 . S
H6020 C6030 0.950 . S
H6021 C6032 0.950 . S
H6022 C6034 0.950 . S
H6023 C6035 0.950 . S
C6024 H6016 0.950 . S
C6024 C6025 1.386 . S
C6024 C6026 1.391 . S
C6025 C6024 1.386 . S
C6025 C6029 1.393 . S
C6026 H6018 0.950 . S
C6026 C6024 1.391 . S
C6026 C6027 1.400 . S
C6027 C6026 1.400 . S
C6027 C6028 1.398 . S
C6027 C6033 1.491 . S
C6028 H6019 0.950 . S
C6028 C6027 1.398 . S
C6028 C6029 1.391 . S
C6029 H6017 0.950 . S
C6029 C6025 1.393 . S
C6029 C6028 1.391 . S
C6030 H6020 0.950 . S
C6030 C6031 1.386 . S
C6030 C6032 1.391 . S
C6031 C6030 1.386 . S
C6031 C6035 1.393 . S
C6032 H6021 0.950 . S
C6032 C6030 1.391 . S
C6032 C6033 1.400 . S
C6033 C6027 1.491 . S
C6033 C6032 1.400 . S
C6033 C6034 1.398 . S
C6034 H6022 0.950 . S
C6034 C6033 1.398 . S
C6034 C6035 1.391 . S
C6035 H6023 0.950 . S
C6035 C6031 1.393 . S
C6035 C6034 1.391 . S
H6036 C6044 0.950 . S
H6037 C6049 0.950 . S
H6038 C6046 0.950 . S
H6039 C6048 0.950 . S
H6040 C6050 0.950 . S
H6041 C6052 0.950 . S
H6042 C6054 0.950 . S
H6043 C6055 0.950 . S
C6044 H6036 0.950 . S
C6044 C6045 1.386 . S
C6044 C6046 1.391 . S
C6045 C6044 1.386 . S
C6045 C6049 1.393 . S
C6046 H6038 0.950 . S
C6046 C6044 1.391 . S
C6046 C6047 1.400 . S
C6047 C6046 1.400 . S
C6047 C6048 1.398 . S
C6047 C6053 1.491 . S
C6048 H6039 0.950 . S
C6048 C6047 1.398 . S
C6048 C6049 1.391 . S
C6049 H6037 0.950 . S
C6049 C6045 1.393 . S
C6049 C6048 1.391 . S
C6050 H6040 0.950 . S
C6050 C6051 1.386 . S
C6050 C6052 1.391 . S
C6051 C6050 1.386 . S
C6051 C6055 1.393 . S
C6052 H6041 0.950 . S
C6052 C6050 1.391 . S
C6052 C6053 1.400 . S
C6053 C6047 1.491 . S
C6053 C6052 1.400 . S
C6053 C6054 1.398 . S
C6054 H6042 0.950 . S
C6054 C6053 1.398 . S
C6054 C6055 1.391 . S
C6055 H6043 0.950 . S
C6055 C6051 1.393 . S
C6055 C6054 1.391 . S
H6056 C6064 0.950 . S
H6057 C6069 0.950 . S
H6058 C6066 0.950 . S
H6059 C6068 0.950 . S
H6060 C6070 0.950 . S
H6061 C6072 0.950 . S
H6062 C6074 0.950 . S
H6063 C6075 0.950 . S
C6064 H6056 0.950 . S
C6064 C6065 1.386 . S
C6064 C6066 1.391 . S
C6065 C6064 1.386 . S
C6065 C6069 1.393 . S
C6066 H6058 0.950 . S
C6066 C6064 1.391 . S
C6066 C6067 1.400 . S
C6067 C6066 1.400 . S
C6067 C6068 1.398 . S
C6067 C6073 1.491 . S
C6068 H6059 0.950 . S
C6068 C6067 1.398 . S
C6068 C6069 1.391 . S
C6069 H6057 0.950 . S
C6069 C6065 1.393 . S
C6069 C6068 1.391 . S
C6070 H6060 0.950 . S
C6070 C6071 1.386 . S
C6070 C6072 1.391 . S
C6071 C6070 1.386 . S
C6071 C6075 1.393 . S
C6072 H6061 0.950 . S
C6072 C6070 1.391 . S
C6072 C6073 1.400 . S
C6073 C6067 1.491 . S
C6073 C6072 1.400 . S
C6073 C6074 1.398 . S
C6074 H6062 0.950 . S
C6074 C6073 1.398 . S
C6074 C6075 1.391 . S
C6075 H6063 0.950 . S
C6075 C6071 1.393 . S
C6075 C6074 1.391 . S
H6076 C6084 0.950 . S
H6077 C6089 0.950 . S
H6078 C6086 0.950 . S
H6079 C6088 0.950 . S
H6080 C6090 0.950 . S
H6081 C6092 0.950 . S
H6082 C6094 0.950 . S
H6083 C6095 0.950 . S
C6084 H6076 0.950 . S
C6084 C6085 1.386 . S
C6084 C6086 1.391 . S
C6085 C6084 1.386 . S
C6085 C6089 1.393 . S
C6086 H6078 0.950 . S
C6086 C6084 1.391 . S
C6086 C6087 1.400 . S
C6087 C6086 1.400 . S
C6087 C6088 1.398 . S
C6087 C6093 1.491 . S
C6088 H6079 0.950 . S
C6088 C6087 1.398 . S
C6088 C6089 1.391 . S
C6089 H6077 0.950 . S
C6089 C6085 1.393 . S
C6089 C6088 1.391 . S
C6090 H6080 0.950 . S
C6090 C6091 1.386 . S
C6090 C6092 1.391 . S
C6091 C6090 1.386 . S
C6091 C6095 1.393 . S
C6092 H6081 0.950 . S
C6092 C6090 1.391 . S
C6092 C6093 1.400 . S
C6093 C6087 1.491 . S
C6093 C6092 1.400 . S
C6093 C6094 1.398 . S
C6094 H6082 0.950 . S
C6094 C6093 1.398 . S
C6094 C6095 1.391 . S
C6095 H6083 0.950 . S
C6095 C6091 1.393 . S
C6095 C6094 1.391 . S
H6096 C6104 0.950 . S
H6097 C6109 0.950 . S
H6098 C6106 0.950 . S
H6099 C6108 0.950 . S
H6100 C6110 0.950 . S
H6101 C6112 0.950 . S
H6102 C6114 0.950 . S
H6103 C6115 0.950 . S
C6104 H6096 0.950 . S
C6104 C6105 1.386 . S
C6104 C6106 1.391 . S
C6105 C6104 1.386 . S
C6105 C6109 1.393 . S
C6106 H6098 0.950 . S
C6106 C6104 1.391 . S
C6106 C6107 1.400 . S
C6107 C6106 1.400 . S
C6107 C6108 1.398 . S
C6107 C6113 1.491 . S
C6108 H6099 0.950 . S
C6108 C6107 1.398 . S
C6108 C6109 1.391 . S
C6109 H6097 0.950 . S
C6109 C6105 1.393 . S
C6109 C6108 1.391 . S
C6110 H6100 0.950 . S
C6110 C6111 1.386 . S
C6110 C6112 1.391 . S
C6111 C6110 1.386 . S
C6111 C6115 1.393 . S
C6112 H6101 0.950 . S
C6112 C6110 1.391 . S
C6112 C6113 1.400 . S
C6113 C6107 1.491 . S
C6113 C6112 1.400 . S
C6113 C6114 1.398 . S
C6114 H6102 0.950 . S
C6114 C6113 1.398 . S
C6114 C6115 1.391 . S
C6115 H6103 0.950 . S
C6115 C6111 1.393 . S
C6115 C6114 1.391 . S
H6116 C6124 0.950 . S
H6117 C6129 0.950 . S
H6118 C6126 0.950 . S
H6119 C6128 0.950 . S
H6120 C6130 0.950 . S
H6121 C6132 0.950 . S
H6122 C6134 0.950 . S
H6123 C6135 0.950 . S
C6124 H6116 0.950 . S
C6124 C6125 1.386 . S
C6124 C6126 1.391 . S
C6125 C6124 1.386 . S
C6125 C6129 1.393 . S
C6126 H6118 0.950 . S
C6126 C6124 1.391 . S
C6126 C6127 1.400 . S
C6127 C6126 1.400 . S
C6127 C6128 1.398 . S
C6127 C6133 1.491 . S
C6128 H6119 0.950 . S
C6128 C6127 1.398 . S
C6128 C6129 1.391 . S
C6129 H6117 0.950 . S
C6129 C6125 1.393 . S
C6129 C6128 1.391 . S
C6130 H6120 0.950 . S
C6130 C6131 1.386 . S
C6130 C6132 1.391 . S
C6131 C6130 1.386 . S
C6131 C6135 1.393 . S
C6132 H6121 0.950 . S
C6132 C6130 1.391 . S
C6132 C6133 1.400 . S
C6133 C6127 1.491 . S
C6133 C6132 1.400 . S
C6133 C6134 1.398 . S
C6134 H6122 0.950 . S
C6134 C6133 1.398 . S
C6134 C6135 1.391 . S
C6135 H6123 0.950 . S
C6135 C6131 1.393 . S
C6135 C6134 1.391 . S
H6136 C6144 0.950 . S
H6137 C6149 0.950 . S
H6138 C6146 0.950 . S
H6139 C6148 0.950 . S
H6140 C6150 0.950 . S
H6141 C6152 0.950 . S
H6142 C6154 0.950 . S
H6143 C6155 0.950 . S
C6144 H6136 0.950 . S
C6144 C6145 1.386 . S
C6144 C6146 1.391 . S
C6145 C6144 1.386 . S
C6145 C6149 1.393 . S
C6146 H6138 0.950 . S
C6146 C6144 1.391 . S
C6146 C6147 1.400 . S
C6147 C6146 1.400 . S
C6147 C6148 1.398 . S
C6147 C6153 1.491 . S
C6148 H6139 0.950 . S
C6148 C6147 1.398 . S
C6148 C6149 1.391 . S
C6149 H6137 0.950 . S
C6149 C6145 1.393 . S
C6149 C6148 1.391 . S
C6150 H6140 0.950 . S
C6150 C6151 1.386 . S
C6150 C6152 1.391 . S
C6151 C6150 1.386 . S
C6151 C6155 1.393 . S
C6152 H6141 0.950 . S
C6152 C6150 1.391 . S
C6152 C6153 1.400 . S
C6153 C6147 1.491 . S
C6153 C6152 1.400 . S
C6153 C6154 1.398 . S
C6154 H6142 0.950 . S
C6154 C6153 1.398 . S
C6154 C6155 1.391 . S
C6155 H6143 0.950 . S
C6155 C6151 1.393 . S
C6155 C6154 1.391 . S
H6156 C6164 0.950 . S
H6157 C6169 0.950 . S
H6158 C6166 0.950 . S
H6159 C6168 0.950 . S
H6160 C6170 0.950 . S
H6161 C6172 0.950 . S
H6162 C6174 0.950 . S
H6163 C6175 0.950 . S
C6164 H6156 0.950 . S
C6164 C6165 1.386 . S
C6164 C6166 1.391 . S
C6165 C6164 1.386 . S
C6165 C6169 1.393 . S
C6166 H6158 0.950 . S
C6166 C6164 1.391 . S
C6166 C6167 1.400 . S
C6167 C6166 1.400 . S
C6167 C6168 1.398 . S
C6167 C6173 1.491 . S
C6168 H6159 0.950 . S
C6168 C6167 1.398 . S
C6168 C6169 1.391 . S
C6169 H6157 0.950 . S
C6169 C6165 1.393 . S
C6169 C6168 1.391 . S
C6170 H6160 0.950 . S
C6170 C6171 1.386 . S
C6170 C6172 1.391 . S
C6171 C6170 1.386 . S
C6171 C6175 1.393 . S
C6172 H6161 0.950 . S
C6172 C6170 1.391 . S
C6172 C6173 1.400 . S
C6173 C6167 1.491 . S
C6173 C6172 1.400 . S
C6173 C6174 1.398 . S
C6174 H6162 0.950 . S
C6174 C6173 1.398 . S
C6174 C6175 1.391 . S
C6175 H6163 0.950 . S
C6175 C6171 1.393 . S
C6175 C6174 1.391 . S
H6176 C6184 0.950 . S
H6177 C6189 0.950 . S
H6178 C6186 0.950 . S
H6179 C6188 0.950 . S
H6180 C6190 0.950 . S
H6181 C6192 0.950 . S
H6182 C6194 0.950 . S
H6183 C6195 0.950 . S
C6184 H6176 0.950 . S
C6184 C6185 1.386 . S
C6184 C6186 1.391 . S
C6185 C6184 1.386 . S
C6185 C6189 1.393 . S
C6186 H6178 0.950 . S
C6186 C6184 1.391 . S
C6186 C6187 1.400 . S
C6187 C6186 1.400 . S
C6187 C6188 1.398 . S
C6187 C6193 1.491 . S
C6188 H6179 0.950 . S
C6188 C6187 1.398 . S
C6188 C6189 1.391 . S
C6189 H6177 0.950 . S
C6189 C6185 1.393 . S
C6189 C6188 1.391 . S
C6190 H6180 0.950 . S
C6190 C6191 1.386 . S
C6190 C6192 1.391 . S
C6191 C6190 1.386 . S
C6191 C6195 1.393 . S
C6192 H6181 0.950 . S
C6192 C6190 1.391 . S
C6192 C6193 1.400 . S
C6193 C6187 1.491 . S
C6193 C6192 1.400 . S
C6193 C6194 1.398 . S
C6194 H6182 0.950 . S
C6194 C6193 1.398 . S
C6194 C6195 1.391 . S
C6195 H6183 0.950 . S
C6195 C6191 1.393 . S
C6195 C6194 1.391 . S
H6196 C6204 0.950 . S
H6197 C6209 0.950 . S
H6198 C6206 0.950 . S
H6199 C6208 0.950 . S
H6200 C6210 0.950 . S
H6201 C6212 0.950 . S
H6202 C6214 0.950 . S
H6203 C6215 0.950 . S
C6204 H6196 0.950 . S
C6204 C6205 1.386 . S
C6204 C6206 1.391 . S
C6205 C6204 1.386 . S
C6205 C6209 1.393 . S
C6206 H6198 0.950 . S
C6206 C6204 1.391 . S
C6206 C6207 1.400 . S
C6207 C6206 1.400 . S
C6207 C6208 1.398 . S
C6207 C6213 1.491 . S
C6208 H6199 0.950 . S
C6208 C6207 1.398 . S
C6208 C6209 1.391 . S
C6209 H6197 0.950 . S
C6209 C6205 1.393 . S
C6209 C6208 1.391 . S
C6210 H6200 0.950 . S
C6210 C6211 1.386 . S
C6210 C6212 1.391 . S
C6211 C6210 1.386 . S
C6211 C6215 1.393 . S
C6212 H6201 0.950 . S
C6212 C6210 1.391 . S
C6212 C6213 1.400 . S
C6213 C6207 1.491 . S
C6213 C6212 1.400 . S
C6213 C6214 1.398 . S
C6214 H6202 0.950 . S
C6214 C6213 1.398 . S
C6214 C6215 1.391 . S
C6215 H6203 0.950 . S
C6215 C6211 1.393 . S
C6215 C6214 1.391 . S
H6216 C6224 0.950 . S
H6217 C6229 0.950 . S
H6218 C6226 0.950 . S
H6219 C6228 0.950 . S
H6220 C6230 0.950 . S
H6221 C6232 0.950 . S
H6222 C6234 0.950 . S
H6223 C6235 0.950 . S
C6224 H6216 0.950 . S
C6224 C6225 1.386 . S
C6224 C6226 1.391 . S
C6225 C6224 1.386 . S
C6225 C6229 1.393 . S
C6226 H6218 0.950 . S
C6226 C6224 1.391 . S
C6226 C6227 1.400 . S
C6227 C6226 1.400 . S
C6227 C6228 1.398 . S
C6227 C6233 1.491 . S
C6228 H6219 0.950 . S
C6228 C6227 1.398 . S
C6228 C6229 1.391 . S
C6229 H6217 0.950 . S
C6229 C6225 1.393 . S
C6229 C6228 1.391 . S
C6230 H6220 0.950 . S
C6230 C6231 1.386 . S
C6230 C6232 1.391 . S
C6231 C6230 1.386 . S
C6231 C6235 1.393 . S
C6232 H6221 0.950 . S
C6232 C6230 1.391 . S
C6232 C6233 1.400 . S
C6233 C6227 1.491 . S
C6233 C6232 1.400 . S
C6233 C6234 1.398 . S
C6234 H6222 0.950 . S
C6234 C6233 1.398 . S
C6234 C6235 1.391 . S
C6235 H6223 0.950 . S
C6235 C6231 1.393 . S
C6235 C6234 1.391 . S
H6236 C6244 0.950 . S
H6237 C6249 0.950 . S
H6238 C6246 0.950 . S
H6239 C6248 0.950 . S
H6240 C6250 0.950 . S
H6241 C6252 0.950 . S
H6242 C6254 0.950 . S
H6243 C6255 0.950 . S
C6244 H6236 0.950 . S
C6244 C6245 1.386 . S
C6244 C6246 1.391 . S
C6245 C6244 1.386 . S
C6245 C6249 1.393 . S
C6246 H6238 0.950 . S
C6246 C6244 1.391 . S
C6246 C6247 1.400 . S
C6247 C6246 1.400 . S
C6247 C6248 1.398 . S
C6247 C6253 1.491 . S
C6248 H6239 0.950 . S
C6248 C6247 1.398 . S
C6248 C6249 1.391 . S
C6249 H6237 0.950 . S
C6249 C6245 1.393 . S
C6249 C6248 1.391 . S
C6250 H6240 0.950 . S
C6250 C6251 1.386 . S
C6250 C6252 1.391 . S
C6251 C6250 1.386 . S
C6251 C6255 1.393 . S
C6252 H6241 0.950 . S
C6252 C6250 1.391 . S
C6252 C6253 1.400 . S
C6253 C6247 1.491 . S
C6253 C6252 1.400 . S
C6253 C6254 1.398 . S
C6254 H6242 0.950 . S
C6254 C6253 1.398 . S
C6254 C6255 1.391 . S
C6255 H6243 0.950 . S
C6255 C6251 1.393 . S
C6255 C6254 1.391 . S
H6256 C6264 0.950 . S
H6257 C6269 0.950 . S
H6258 C6266 0.950 . S
H6259 C6268 0.950 . S
H6260 C6270 0.950 . S
H6261 C6272 0.950 . S
H6262 C6274 0.950 . S
H6263 C6275 0.950 . S
C6264 H6256 0.950 . S
C6264 C6265 1.386 . S
C6264 C6266 1.391 . S
C6265 C6264 1.386 . S
C6265 C6269 1.393 . S
C6266 H6258 0.950 . S
C6266 C6264 1.391 . S
C6266 C6267 1.400 . S
C6267 C6266 1.400 . S
C6267 C6268 1.398 . S
C6267 C6273 1.491 . S
C6268 H6259 0.950 . S
C6268 C6267 1.398 . S
C6268 C6269 1.391 . S
C6269 H6257 0.950 . S
C6269 C6265 1.393 . S
C6269 C6268 1.391 . S
C6270 H6260 0.950 . S
C6270 C6271 1.386 . S
C6270 C6272 1.391 . S
C6271 C6270 1.386 . S
C6271 C6275 1.393 . S
C6272 H6261 0.950 . S
C6272 C6270 1.391 . S
C6272 C6273 1.400 . S
C6273 C6267 1.491 . S
C6273 C6272 1.400 . S
C6273 C6274 1.398 . S
C6274 H6262 0.950 . S
C6274 C6273 1.398 . S
C6274 C6275 1.391 . S
C6275 H6263 0.950 . S
C6275 C6271 1.393 . S
C6275 C6274 1.391 . S
H6276 C6284 0.950 . S
H6277 C6289 0.950 . S
H6278 C6286 0.950 . S
H6279 C6288 0.950 . S
H6280 C6290 0.950 . S
H6281 C6292 0.950 . S
H6282 C6294 0.950 . S
H6283 C6295 0.950 . S
C6284 H6276 0.950 . S
C6284 C6285 1.386 . S
C6284 C6286 1.391 . S
C6285 C6284 1.386 . S
C6285 C6289 1.393 . S
C6286 H6278 0.950 . S
C6286 C6284 1.391 . S
C6286 C6287 1.400 . S
C6287 C6286 1.400 . S
C6287 C6288 1.398 . S
C6287 C6293 1.491 . S
C6288 H6279 0.950 . S
C6288 C6287 1.398 . S
C6288 C6289 1.391 . S
C6289 H6277 0.950 . S
C6289 C6285 1.393 . S
C6289 C6288 1.391 . S
C6290 H6280 0.950 . S
C6290 C6291 1.386 . S
C6290 C6292 1.391 . S
C6291 C6290 1.386 . S
C6291 C6295 1.393 . S
C6292 H6281 0.950 . S
C6292 C6290 1.391 . S
C6292 C6293 1.400 . S
C6293 C6287 1.491 . S
C6293 C6292 1.400 . S
C6293 C6294 1.398 . S
C6294 H6282 0.950 . S
C6294 C6293 1.398 . S
C6294 C6295 1.391 . S
C6295 H6283 0.950 . S
C6295 C6291 1.393 . S
C6295 C6294 1.391 . S
H6296 C6304 0.950 . S
H6297 C6309 0.950 . S
H6298 C6306 0.950 . S
H6299 C6308 0.950 . S
H6300 C6310 0.950 . S
H6301 C6312 0.950 . S
H6302 C6314 0.950 . S
H6303 C6315 0.950 . S
C6304 H6296 0.950 . S
C6304 C6305 1.386 . S
C6304 C6306 1.391 . S
C6305 C6304 1.386 . S
C6305 C6309 1.393 . S
C6306 H6298 0.950 . S
C6306 C6304 1.391 . S
C6306 C6307 1.400 . S
C6307 C6306 1.400 . S
C6307 C6308 1.398 . S
C6307 C6313 1.491 . S
C6308 H6299 0.950 . S
C6308 C6307 1.398 . S
C6308 C6309 1.391 . S
C6309 H6297 0.950 . S
C6309 C6305 1.393 . S
C6309 C6308 1.391 . S
C6310 H6300 0.950 . S
C6310 C6311 1.386 . S
C6310 C6312 1.391 . S
C6311 C6310 1.386 . S
C6311 C6315 1.393 . S
C6312 H6301 0.950 . S
C6312 C6310 1.391 . S
C6312 C6313 1.400 . S
C6313 C6307 1.491 . S
C6313 C6312 1.400 . S
C6313 C6314 1.398 . S
C6314 H6302 0.950 . S
C6314 C6313 1.398 . S
C6314 C6315 1.391 . S
C6315 H6303 0.950 . S
C6315 C6311 1.393 . S
C6315 C6314 1.391 . S
H6316 C6324 0.950 . S
H6317 C6329 0.950 . S
H6318 C6326 0.950 . S
H6319 C6328 0.950 . S
H6320 C6330 0.950 . S
H6321 C6332 0.950 . S
H6322 C6334 0.950 . S
H6323 C6335 0.950 . S
C6324 H6316 0.950 . S
C6324 C6325 1.386 . S
C6324 C6326 1.391 . S
C6325 C6324 1.386 . S
C6325 C6329 1.393 . S
C6326 H6318 0.950 . S
C6326 C6324 1.391 . S
C6326 C6327 1.400 . S
C6327 C6326 1.400 . S
C6327 C6328 1.398 . S
C6327 C6333 1.491 . S
C6328 H6319 0.950 . S
C6328 C6327 1.398 . S
C6328 C6329 1.391 . S
C6329 H6317 0.950 . S
C6329 C6325 1.393 . S
C6329 C6328 1.391 . S
C6330 H6320 0.950 . S
C6330 C6331 1.386 . S
C6330 C6332 1.391 . S
C6331 C6330 1.386 . S
C6331 C6335 1.393 . S
C6332 H6321 0.950 . S
C6332 C6330 1.391 . S
C6332 C6333 1.400 . S
C6333 C6327 1.491 . S
C6333 C6332 1.400 . S
C6333 C6334 1.398 . S
C6334 H6322 0.950 . S
C6334 C6333 1.398 . S
C6334 C6335 1.391 . S
C6335 H6323 0.950 . S
C6335 C6331 1.393 . S
C6335 C6334 1.391 . S
C3465 C1781 1.632 . S
C3471 C1949 1.572 . S
C3485 C981 1.669 . S
C3491 C1981 1.722 . S
C3511 C2013 1.703 . S
C3505 C1861 1.704 . S
C3525 C1061 1.711 . S
C3531 C2045 1.583 . S
C3545 C1901 1.651 . S
C3551 C2077 1.605 . S
C3565 C941 1.613 . S
C3571 C2109 1.552 . S
C3585 C1821 1.725 . S
C3591 C2141 1.722 . S
C3605 C1021 1.706 . S
C3611 C2173 1.702 . S
C3625 C661 1.598 . S
C3631 C2205 1.636 . S
C3645 C1621 1.697 . S
C3651 C2237 1.589 . S
C3665 C741 1.627 . S
C3671 C2269 1.674 . S
C3685 C1581 1.646 . S
C3691 C2301 1.705 . S
C3705 C901 1.623 . S
C3711 C2333 1.502 . S
C3731 C2365 1.722 . S
C3725 C1661 1.722 . S
C3751 C2397 1.696 . S
C3745 C821 1.648 . S
C3765 C1141 1.701 . S
C3771 C2429 1.592 . S
C3791 C2461 1.712 . S
C3785 C781 1.717 . S
C3811 C2493 1.696 . S
C3805 C1701 1.642 . S
C3825 C861 1.705 . S
C3831 C2525 1.582 . S
C3845 C1181 1.625 . S
C3851 C2557 1.672 . S
C3871 C2589 1.637 . S
C3865 C1101 1.588 . S
C3885 C1421 1.612 . S
C3891 C2621 1.538 . S
C3911 C2653 1.556 . S
C3905 C381 1.645 . S
C3931 C2685 1.520 . S
C3925 C1501 1.638 . S
C3951 C2717 1.583 . S
C3945 C461 1.629 . S
C3971 C2749 1.547 . S
C3965 C1541 1.627 . S
C3985 C341 1.617 . S
C3991 C2781 1.542 . S
C4011 C2813 1.536 . S
C4005 C1461 1.652 . S
C4025 C421 1.633 . S
C4031 C2845 1.546 . S
C4051 C2877 1.683 . S
C4045 C61 1.632 . S
C4071 C2909 1.637 . S
C4065 C1261 1.709 . S
C4085 C141 1.645 . S
C4091 C2941 1.689 . S
C4111 C2973 1.675 . S
C4105 C1221 1.692 . S
C4131 C3005 1.609 . S
C4125 C301 1.714 . S
C4145 C1301 1.706 . S
C4151 C3037 1.691 . S
C4171 C3069 1.696 . S
C4165 C221 1.658 . S
C4191 C3101 1.591 . S
C4185 C541 1.705 . S
C4205 C181 1.699 . S
C4211 C3133 1.682 . S
C4231 C3165 1.686 . S
C4225 C1341 1.642 . S
C4245 C261 1.711 . S
C4251 C3197 1.615 . S
C4271 C3229 1.694 . S
C4265 C581 1.648 . S
C4285 C501 1.630 . S
C4291 C3261 1.678 . S
C4305 C701 1.700 . S
C4311 C3293 1.594 . S
C4331 C3325 1.702 . S
C4325 C621 1.649 . S
C4345 C1741 1.623 . S
C4351 C3357 1.523 . S
C4365 C101 1.698 . S
C4371 C3389 1.628 . S
C4391 C3421 1.695 . S
C4385 C21 1.706 . S
C4411 C3453 1.624 . S
C4405 C1381 1.717 . S
C4425 C1335 1.990 . S
C4431 C1943 1.850 . S
C4445 C535 1.546 . S
C4451 C1975 1.560 . S
C4465 C1362 2.143 . S
C4471 C2001 2.156 . S
C4491 C2033 1.476 . S
C4485 C1295 1.539 . S
C4505 C575 2.003 . S
C4511 C2071 1.857 . S
C4525 C1215 1.513 . S
C4531 C2097 1.453 . S
C4551 C2129 2.128 . S
C4545 C495 2.050 . S
C4565 C1242 1.557 . S
C4571 C2167 1.598 . S
C4585 C1255 1.956 . S
C4591 C2193 2.030 . S
C4611 C2225 1.480 . S
C4605 C562 1.529 . S
C4625 C1202 1.963 . S
C4631 C2257 1.970 . S
C4651 C2295 1.585 . S
C4645 C482 1.548 . S
C4665 C522 1.998 . S
C4671 C2327 1.787 . S
C4685 C1375 1.626 . S
C4691 C2359 1.645 . S
C4711 C2385 1.976 . S
C4705 C1282 1.962 . S
C4731 C2417 1.502 . S
C4725 C1322 1.527 . S
C4745 C455 1.917 . S
C4751 C2289 1.989 . S
C4765 C1415 1.959 . S
C4771 C2449 2.029 . S
C4785 C1455 1.553 . S
C4791 C2487 1.557 . S
C4811 C2519 1.811 . S
C4805 C1482 1.992 . S
C4831 C2321 1.467 . S
C4825 C442 1.499 . S
C4845 C362 2.011 . S
C4851 C2231 1.831 . S
C4865 C1495 1.544 . S
C4871 C2551 1.546 . S
C4891 C2583 1.544 . S
C4885 C1402 1.515 . S
C4911 C2615 1.471 . S
C4905 C1695 1.560 . S
C4925 C1135 1.934 . S
C4931 C2641 1.798 . S
C4951 C2679 1.395 . S
C4945 C1722 1.483 . S
C4971 C2705 1.840 . S
C4965 C1655 1.967 . S
C4985 C1175 1.552 . S
C4991 C2743 1.489 . S
C5005 C1562 1.913 . S
C5011 C2769 1.825 . S
C5025 C1095 1.500 . S
C5031 C2807 1.405 . S
C5051 C2833 1.784 . S
C5045 C1615 1.913 . S
C5071 C2865 1.541 . S
C5065 C1602 1.542 . S
C5085 C1162 1.952 . S
C5091 C2897 1.865 . S
C5111 C2929 1.574 . S
C5105 C1575 1.552 . S
C5125 C1082 1.861 . S
C5131 C2967 1.957 . S
C5151 C2999 1.480 . S
C5145 C1122 1.549 . S
C5165 C1735 1.900 . S
C5171 C3031 1.950 . S
C5191 C3057 1.578 . S
C5185 C1642 1.578 . S
C5205 C1682 1.908 . S
C5211 C3089 1.821 . S
C5225 C1042 1.577 . S
C5231 C2961 1.575 . S
C5245 C1775 1.527 . S
C5251 C3121 1.539 . S
C5265 C1815 2.106 . S
C5271 C3159 2.173 . S
C5291 C3191 1.550 . S
C5285 C1842 1.624 . S
C5305 C1055 2.014 . S
C5311 C2993 1.887 . S
C5325 C975 1.623 . S
C5331 C2903 1.573 . S
C5351 C3223 2.181 . S
C5345 C1855 2.113 . S
C5365 C1762 1.953 . S
C5371 C3255 2.050 . S
C5391 C2103 1.882 . S
C5385 C215 2.014 . S
C5411 C2135 1.573 . S
C5405 C255 1.558 . S
C5431 C2161 2.147 . S
C5425 C282 2.134 . S
C5451 C2065 1.461 . S
C5445 C175 1.529 . S
C5471 C2039 1.893 . S
C5465 C135 2.034 . S
C5485 C15 1.525 . S
C5491 C1937 1.456 . S
C5505 C55 2.024 . S
C5511 C1969 2.103 . S
C5525 C82 1.563 . S
C5531 C2007 1.595 . S
C5545 C95 1.933 . S
C5551 C2577 2.010 . S
C5565 C122 1.516 . S
C5571 C3281 1.490 . S
C5585 C2 1.991 . S
C5591 C2545 1.998 . S
C5605 C42 1.529 . S
C5611 C3319 1.581 . S
C5625 C242 1.992 . S
C5631 C3351 1.780 . S
C5651 C2455 1.634 . S
C5645 C295 1.622 . S
C5665 C162 1.967 . S
C5671 C2481 1.980 . S
C5685 C202 1.530 . S
C5691 C2513 1.482 . S
C5711 C3313 1.985 . S
C5705 C1535 1.914 . S
C5725 C335 1.975 . S
C5731 C2353 2.044 . S
C5745 C375 1.538 . S
C5751 C2391 1.551 . S
C5765 C402 1.979 . S
C5771 C2423 1.781 . S
C5791 C3345 1.459 . S
C5785 C1522 1.491 . S
C5811 C3287 1.804 . S
C5805 C1442 2.005 . S
C5831 C2263 1.539 . S
C5825 C415 1.523 . S
C5845 C322 1.529 . S
C5851 C2199 1.555 . S
C5865 C815 1.563 . S
C5871 C2775 1.478 . S
C5885 C855 1.932 . S
C5891 C2801 1.796 . S
C5905 C882 1.475 . S
C5911 C2839 1.399 . S
C5925 C775 1.952 . S
C5931 C2737 1.819 . S
C5951 C2711 1.464 . S
C5945 C735 1.561 . S
C5971 C2609 1.799 . S
C5965 C602 1.893 . S
C5991 C2647 1.429 . S
C5985 C655 1.503 . S
C6005 C695 1.911 . S
C6011 C2673 1.790 . S
C6031 C3249 1.545 . S
C6025 C682 1.545 . S
C6045 C722 1.930 . S
C6051 C3377 1.840 . S
C6065 C615 1.560 . S
C6071 C3217 1.571 . S
C6091 C3415 1.969 . S
C6085 C642 1.881 . S
C6105 C842 1.565 . S
C6111 C3447 1.464 . S
C6131 C3127 1.944 . S
C6125 C895 1.887 . S
C6145 C762 1.564 . S
C6151 C3153 1.563 . S
C6165 C802 1.915 . S
C6171 C3185 1.824 . S
C6185 C1895 1.569 . S
C6191 C3409 1.584 . S
C6211 C3025 1.545 . S
C6205 C935 1.528 . S
C6225 C962 2.053 . S
C6231 C3063 2.175 . S
C6245 C1002 1.620 . S
C6251 C3095 1.524 . S
C6265 C1882 1.957 . S
C6271 C3441 1.870 . S
C6285 C1802 1.645 . S
C6291 C3383 1.537 . S
C6311 C2935 2.179 . S
C6305 C1015 2.115 . S
C6331 C2871 2.048 . S
C6325 C922 1.950 . S
