# Generated by pormake.
# Topology dag, (6,3)-cn, num edge types: 1
# Building blocks:
#     Node 0, Type 0, BuildingBlock: MIDCAF_clean_sbu_0, # of connection points: 6
#     Node 1, Type 0, BuildingBlock: MIDCAF_clean_sbu_0, # of connection points: 6
#     Node 2, Type 0, BuildingBlock: MIDCAF_clean_sbu_0, # of connection points: 6
#     Node 3, Type 0, BuildingBlock: MIDCAF_clean_sbu_0, # of connection points: 6
#     Node 4, Type 1, BuildingBlock: CUQRIR_clean_linker_1, # of connection points: 3
#     Node 5, Type 1, BuildingBlock: CUQRIR_clean_linker_1, # of connection points: 3
#     Node 6, Type 1, BuildingBlock: CUQRIR_clean_linker_1, # of connection points: 3
#     Node 7, Type 1, BuildingBlock: CUQRIR_clean_linker_1, # of connection points: 3
#     Node 8, Type 1, BuildingBlock: CUQRIR_clean_linker_1, # of connection points: 3
#     Node 9, Type 1, BuildingBlock: CUQRIR_clean_linker_1, # of connection points: 3
#     Node 10, Type 1, BuildingBlock: CUQRIR_clean_linker_1, # of connection points: 3
#     Node 11, Type 1, BuildingBlock: CUQRIR_clean_linker_1, # of connection points: 3
#     Edge 12, Type (0, 1), BuildingBlock: MIFKUJ_clean_linker_0, # of connection points: 2
#     Edge 13, Type (0, 1), BuildingBlock: MIFKUJ_clean_linker_0, # of connection points: 2
#     Edge 14, Type (0, 1), BuildingBlock: MIFKUJ_clean_linker_0, # of connection points: 2
#     Edge 15, Type (0, 1), BuildingBlock: MIFKUJ_clean_linker_0, # of connection points: 2
#     Edge 16, Type (0, 1), BuildingBlock: MIFKUJ_clean_linker_0, # of connection points: 2
#     Edge 17, Type (0, 1), BuildingBlock: MIFKUJ_clean_linker_0, # of connection points: 2
#     Edge 18, Type (0, 1), BuildingBlock: MIFKUJ_clean_linker_0, # of connection points: 2
#     Edge 19, Type (0, 1), BuildingBlock: MIFKUJ_clean_linker_0, # of connection points: 2
#     Edge 20, Type (0, 1), BuildingBlock: MIFKUJ_clean_linker_0, # of connection points: 2
#     Edge 21, Type (0, 1), BuildingBlock: MIFKUJ_clean_linker_0, # of connection points: 2
#     Edge 22, Type (0, 1), BuildingBlock: MIFKUJ_clean_linker_0, # of connection points: 2
#     Edge 23, Type (0, 1), BuildingBlock: MIFKUJ_clean_linker_0, # of connection points: 2
#     Edge 24, Type (0, 1), BuildingBlock: MIFKUJ_clean_linker_0, # of connection points: 2
#     Edge 25, Type (0, 1), BuildingBlock: MIFKUJ_clean_linker_0, # of connection points: 2
#     Edge 26, Type (0, 1), BuildingBlock: MIFKUJ_clean_linker_0, # of connection points: 2
#     Edge 27, Type (0, 1), BuildingBlock: MIFKUJ_clean_linker_0, # of connection points: 2
#     Edge 28, Type (0, 1), BuildingBlock: MIFKUJ_clean_linker_0, # of connection points: 2
#     Edge 29, Type (0, 1), BuildingBlock: MIFKUJ_clean_linker_0, # of connection points: 2
#     Edge 30, Type (0, 1), BuildingBlock: MIFKUJ_clean_linker_0, # of connection points: 2
#     Edge 31, Type (0, 1), BuildingBlock: MIFKUJ_clean_linker_0, # of connection points: 2
#     Edge 32, Type (0, 1), BuildingBlock: MIFKUJ_clean_linker_0, # of connection points: 2
#     Edge 33, Type (0, 1), BuildingBlock: MIFKUJ_clean_linker_0, # of connection points: 2
#     Edge 34, Type (0, 1), BuildingBlock: MIFKUJ_clean_linker_0, # of connection points: 2
#     Edge 35, Type (0, 1), BuildingBlock: MIFKUJ_clean_linker_0, # of connection points: 2
# Relax obj value: 0.122
# Max RMSD: 0.122
# Mean RMSD: 0.090
data_MOF--net-dag--node1-MIDCAF_clean_sbu_0--node2-CUQRIR_clean_linker_1--edge1-MIFKUJ_clean_linker_0
_symmetry_space_group_name_H-M    P1
_symmetry_Int_Tables_number       1
_symmetry_cell_setting            triclinic
loop_
_symmetry_equiv_pos_as_xyz
'x, y, z'
_cell_length_a     49.82512
_cell_length_b     49.910184
_cell_length_c     39.5208
_cell_angle_alpha  90.065845
_cell_angle_beta   89.881465
_cell_angle_gamma 89.934679
loop_
_atom_site_label
_atom_site_type_symbol
_atom_site_fract_x
_atom_site_fract_y
_atom_site_fract_z
_atom_type_partial_charge
Zn0 Zn 0.12993 0.88703 0.11073 0.0
Zn1 Zn 0.07864 0.89584 0.97194 0.0
Zn2 Zn 0.1066 0.88857 0.01552 0.0
C3 C 0.0944 0.94448 0.98062 0.0
C4 C 0.07111 0.8454 0.99439 0.0
O5 O 0.13144 0.85241 0.01371 0.0
O6 O 0.13211 0.87071 0.06301 0.0
C7 C 0.1432 0.92164 0.04565 0.0
O8 O 0.11287 0.92862 0.99138 0.0
O9 O 0.07097 0.9353 0.97665 0.0
O10 O 0.05626 0.86601 0.99306 0.0
O11 O 0.09656 0.84891 0.99625 0.0
O12 O 0.13491 0.90254 0.06386 0.0
O13 O 0.13463 0.92153 0.01536 0.0
O14 O 0.07852 0.88659 0.05931 0.0
O15 O 0.08897 0.88623 0.1149 0.0
C16 C 0.07164 0.88579 0.09088 0.0
O17 O 0.12229 0.8591 0.97882 0.0
O18 O 0.10852 0.88467 0.93709 0.0
C19 C 0.14041 0.852 0.04395 0.0
C20 C 0.12396 0.86616 0.94738 0.0
Zn21 Zn 0.61551 0.58051 0.47572 0.0
Zn22 Zn 0.61114 0.61746 0.58067 0.0
Zn23 Zn 0.61795 0.60906 0.52092 0.0
C24 C 0.60308 0.56254 0.57042 0.0
C25 C 0.5757 0.65158 0.5424 0.0
O26 O 0.60451 0.63655 0.4812 0.0
O27 O 0.62635 0.61147 0.44468 0.0
C28 C 0.66515 0.57832 0.49531 0.0
O29 O 0.60825 0.57043 0.54047 0.0
O30 O 0.60193 0.57938 0.59431 0.0
O31 O 0.58238 0.64504 0.57215 0.0
O32 O 0.58673 0.63998 0.51671 0.0
O33 O 0.64699 0.56054 0.4961 0.0
O34 O 0.65822 0.60281 0.50037 0.0
O35 O 0.58064 0.61729 0.4919 0.0
O36 O 0.57509 0.57482 0.47843 0.0
C37 C 0.56576 0.5985 0.47958 0.0
O38 O 0.65681 0.62628 0.53072 0.0
O39 O 0.64922 0.63048 0.58543 0.0
C40 C 0.61739 0.63431 0.45293 0.0
C41 C 0.66467 0.63334 0.5602 0.0
Zn42 Zn 0.91263 0.10014 0.97687 0.0
Zn43 Zn 0.87019 0.10092 0.07777 0.0
Zn44 Zn 0.88445 0.10271 0.02032 0.0
C45 C 0.92582 0.09767 0.07957 0.0
C46 C 0.84309 0.0598 0.0427 0.0
O47 O 0.86893 0.13419 0.98657 0.0
O48 O 0.88379 0.11201 0.94235 0.0
C49 C 0.91939 0.14952 0.00237 0.0
O50 O 0.92144 0.09942 0.04789 0.0
O51 O 0.90621 0.09719 0.09991 0.0
O52 O 0.84612 0.06968 0.07189 0.0
O53 O 0.85661 0.06897 0.0176 0.0
O54 O 0.935 0.12999 0.99651 0.0
O55 O 0.89411 0.14476 0.00605 0.0
O56 O 0.87802 0.06536 0.98989 0.0
O57 O 0.92096 0.06107 0.97844 0.0
C58 C 0.89761 0.0511 0.97827 0.0
O59 O 0.86229 0.14139 0.02255 0.0
O60 O 0.85153 0.13612 0.07647 0.0
C61 C 0.86797 0.1295 0.95442 0.0
C62 C 0.85016 0.14965 0.04949 0.0
Zn63 Zn 0.39899 0.38014 0.57701 0.0
Zn64 Zn 0.3782 0.38303 0.44764 0.0
Zn65 Zn 0.38841 0.38121 0.51199 0.0
C66 C 0.43332 0.37483 0.45183 0.0
C67 C 0.36392 0.43246 0.47299 0.0
O68 O 0.35931 0.35289 0.53615 0.0
O69 O 0.3684 0.35718 0.59065 0.0
C70 C 0.44325 0.35848 0.54392 0.0
O71 O 0.42696 0.37258 0.48345 0.0
O72 O 0.41543 0.38032 0.43035 0.0
O73 O 0.36118 0.41855 0.44661 0.0
O74 O 0.37496 0.42249 0.49964 0.0
O75 O 0.43391 0.36195 0.57327 0.0
O76 O 0.42989 0.36591 0.51766 0.0
O77 O 0.38158 0.42194 0.53429 0.0
O78 O 0.39709 0.41912 0.58658 0.0
C79 C 0.38686 0.43291 0.56314 0.0
O80 O 0.35673 0.35129 0.50109 0.0
O81 O 0.35374 0.3522 0.44521 0.0
C82 C 0.35436 0.34704 0.56736 0.0
C83 C 0.34654 0.34251 0.47326 0.0
C84 C 0.1756 0.17795 0.2716 0.0
N85 N 0.17236 0.16329 0.24311 0.0
N86 N 0.20118 0.17589 0.2829 0.0
C87 C 0.15364 0.19321 0.28939 0.0
C88 C 0.21326 0.15934 0.26031 0.0
N89 N 0.19578 0.15192 0.236 0.0
C90 C 0.24176 0.14967 0.26245 0.0
H91 H 0.15655 0.21495 0.28493 0.0
H92 H 0.15476 0.1897 0.31708 0.0
H93 H 0.13344 0.18767 0.28005 0.0
H94 H 0.2423 0.1309 0.27746 0.0
H95 H 0.25464 0.16479 0.27506 0.0
H96 H 0.24978 0.14523 0.23682 0.0
C97 C 0.29678 0.69831 0.708 0.0
N98 N 0.31814 0.69278 0.68805 0.0
N99 N 0.29724 0.7243 0.71798 0.0
C100 C 0.27523 0.67851 0.71702 0.0
C101 C 0.31976 0.7343 0.70338 0.0
N102 N 0.33244 0.7151 0.68514 0.0
C103 C 0.3305 0.76205 0.70932 0.0
H104 H 0.25587 0.68883 0.72194 0.0
H105 H 0.28128 0.66765 0.74027 0.0
H106 H 0.27259 0.66356 0.69648 0.0
H107 H 0.32398 0.76988 0.73431 0.0
H108 H 0.32263 0.77556 0.68938 0.0
H109 H 0.35274 0.76227 0.70798 0.0
C110 C 0.7694 0.82346 0.23624 0.0
N111 N 0.78778 0.83407 0.21495 0.0
N112 N 0.7802 0.80293 0.25389 0.0
C113 C 0.7404 0.83185 0.23825 0.0
C114 C 0.80578 0.80122 0.24233 0.0
N115 N 0.81045 0.82026 0.21858 0.0
C116 C 0.82649 0.78213 0.25577 0.0
H117 H 0.73815 0.8473 0.25826 0.0
H118 H 0.72743 0.81459 0.24494 0.0
H119 H 0.73352 0.84046 0.21389 0.0
H120 H 0.82727 0.76423 0.23911 0.0
H121 H 0.82132 0.7755 0.28176 0.0
H122 H 0.84665 0.79157 0.25582 0.0
C123 C 0.71182 0.30511 0.7081 0.0
N124 N 0.69301 0.30928 0.68413 0.0
N125 N 0.71644 0.27856 0.71199 0.0
C126 C 0.72429 0.32678 0.72927 0.0
C127 C 0.6996 0.26673 0.68962 0.0
N128 N 0.68524 0.28547 0.67268 0.0
C129 C 0.69637 0.23695 0.68568 0.0
H130 H 0.72733 0.34521 0.71409 0.0
H131 H 0.74377 0.3201 0.73991 0.0
H132 H 0.7105 0.33171 0.75047 0.0
H133 H 0.68311 0.22942 0.70615 0.0
H134 H 0.71599 0.22665 0.68808 0.0
H135 H 0.68739 0.23182 0.66084 0.0
C136 C 0.69129 0.33804 0.25853 0.0
N137 N 0.68788 0.35624 0.28364 0.0
N138 N 0.71691 0.33842 0.24686 0.0
C139 C 0.66915 0.32094 0.24436 0.0
C140 C 0.72901 0.35736 0.26618 0.0
N141 N 0.71128 0.36866 0.28819 0.0
C142 C 0.75889 0.36192 0.2667 0.0
H143 H 0.66884 0.30153 0.25802 0.0
H144 H 0.67245 0.31694 0.21705 0.0
H145 H 0.64932 0.33072 0.24787 0.0
H146 H 0.76431 0.37719 0.24752 0.0
H147 H 0.76977 0.34315 0.26035 0.0
H148 H 0.7656 0.36896 0.29194 0.0
C149 C 0.1332 0.22852 0.77752 0.0
N150 N 0.12286 0.21154 0.8009 0.0
N151 N 0.15477 0.21737 0.76196 0.0
C152 C 0.12347 0.25665 0.77159 0.0
C153 C 0.15712 0.19296 0.77668 0.0
N154 N 0.13787 0.18944 0.80059 0.0
C155 C 0.17664 0.17171 0.76532 0.0
H156 H 0.1083 0.2564 0.75108 0.0
H157 H 0.14024 0.26985 0.76368 0.0
H158 H 0.11396 0.265 0.79472 0.0
H159 H 0.19522 0.17323 0.78061 0.0
H160 H 0.18209 0.17443 0.7383 0.0
H161 H 0.16805 0.15139 0.76878 0.0
C162 C 0.29918 0.66526 0.2582 0.0
N163 N 0.3182 0.65562 0.27924 0.0
N164 N 0.30982 0.68387 0.23715 0.0
C165 C 0.27039 0.65628 0.2577 0.0
C166 C 0.33599 0.68525 0.24635 0.0
N167 N 0.34109 0.66785 0.27173 0.0
C168 C 0.35657 0.7031 0.2302 0.0
H169 H 0.2682 0.64001 0.23875 0.0
H170 H 0.25699 0.67304 0.25027 0.0
H171 H 0.26406 0.6484 0.28268 0.0
H172 H 0.35649 0.72271 0.24344 0.0
H173 H 0.35171 0.70659 0.20317 0.0
H174 H 0.37696 0.6943 0.23236 0.0
C175 C 0.85455 0.81902 0.7331 0.0
N176 N 0.87269 0.82291 0.75822 0.0
N177 N 0.85781 0.79454 0.71883 0.0
C178 C 0.83329 0.83875 0.7227 0.0
C179 C 0.8785 0.78359 0.73611 0.0
N180 N 0.8877 0.80086 0.75977 0.0
C181 C 0.88885 0.75549 0.73116 0.0
H182 H 0.81464 0.83459 0.73714 0.0
H183 H 0.82865 0.83667 0.69539 0.0
H184 H 0.83974 0.85962 0.72791 0.0
H185 H 0.90873 0.75635 0.71856 0.0
H186 H 0.87534 0.74323 0.71518 0.0
H187 H 0.89157 0.7456 0.75605 0.0
H188 H 0.14838 0.93378 0.11231 0.0
H189 H 0.16336 0.97612 0.13646 0.0
H190 H 0.18326 0.0052 0.03678 0.0
H191 H 0.16883 0.96232 0.01241 0.0
H192 H 0.21994 0.0213 0.0896 0.0
H193 H 0.12767 0.01837 0.06383 0.0
H194 H 0.08158 0.00127 0.06254 0.0
H195 H 0.07502 0.0118 0.17005 0.0
H196 H 0.12158 0.02809 0.17233 0.0
H197 H 0.21024 0.15454 0.17043 0.0
H198 H 0.20675 0.11774 0.12881 0.0
H199 H 0.18252 0.06406 0.20876 0.0
H200 H 0.18616 0.10074 0.24987 0.0
H201 H 0.14681 0.06727 0.15241 0.0
H202 H 0.24297 0.05841 0.17698 0.0
H203 H 0.28945 0.07535 0.17777 0.0
H204 H 0.28629 0.08869 0.07052 0.0
H205 H 0.23962 0.07216 0.0692 0.0
C206 C 0.15646 0.9489 0.09553 0.0
C207 C 0.15669 0.94513 0.06034 0.0
C208 C 0.16496 0.97309 0.10937 0.0
C209 C 0.17382 0.99384 0.08826 0.0
C210 C 0.17622 0.98941 0.05336 0.0
C211 C 0.16764 0.96513 0.03947 0.0
C212 C 0.17796 0.02074 0.10273 0.0
C213 C 0.20389 0.03161 0.1029 0.0
C214 C 0.15676 0.03423 0.11956 0.0
C215 C 0.12846 0.02449 0.11826 0.0
C216 C 0.11665 0.0169 0.08733 0.0
C217 C 0.09037 0.00722 0.08643 0.0
C218 C 0.07537 0.00542 0.11621 0.0
C219 C 0.08667 0.0132 0.14698 0.0
C220 C 0.11308 0.02262 0.14809 0.0
C221 C 0.20497 0.13459 0.17888 0.0
C222 C 0.19881 0.12996 0.213 0.0
C223 C 0.20282 0.11377 0.1553 0.0
C224 C 0.1943 0.08831 0.16584 0.0
C225 C 0.18909 0.08361 0.20022 0.0
C226 C 0.1914 0.10431 0.22365 0.0
C227 C 0.18907 0.06668 0.14127 0.0
C228 C 0.16273 0.05705 0.13875 0.0
C229 C 0.20974 0.05449 0.12217 0.0
C230 C 0.23774 0.06438 0.12307 0.0
C231 C 0.2521 0.0652 0.15363 0.0
C232 C 0.2785 0.07467 0.15416 0.0
C233 C 0.29079 0.08318 0.12423 0.0
C234 C 0.27673 0.08216 0.09369 0.0
C235 C 0.25032 0.07273 0.09304 0.0
H236 H 0.31123 0.09049 0.12469 0.0
H237 H 0.05495 0.99808 0.11541 0.0
H238 H 0.57037 0.70512 0.55301 0.0
H239 H 0.52819 0.72797 0.56737 0.0
H240 H 0.48424 0.65608 0.54303 0.0
H241 H 0.52617 0.63351 0.52868 0.0
H242 H 0.45323 0.70028 0.53196 0.0
H243 H 0.5103 0.66387 0.62054 0.0
H244 H 0.55278 0.66012 0.65217 0.0
H245 H 0.549 0.74387 0.67686 0.0
H246 H 0.50667 0.74815 0.64489 0.0
H247 H 0.37602 0.68525 0.69815 0.0
H248 H 0.41827 0.68486 0.66655 0.0
H249 H 0.38964 0.7502 0.60479 0.0
H250 H 0.34664 0.74945 0.63557 0.0
H251 H 0.45768 0.71862 0.65531 0.0
H252 H 0.41184 0.7425 0.52715 0.0
H253 H 0.36791 0.73997 0.49843 0.0
H254 H 0.34723 0.67068 0.55717 0.0
H255 H 0.39097 0.67282 0.58626 0.0
C256 C 0.55152 0.6948 0.54902 0.0
C257 C 0.55133 0.66786 0.53888 0.0
C258 C 0.52747 0.70775 0.55743 0.0
C259 C 0.50307 0.69362 0.55667 0.0
C260 C 0.50272 0.66748 0.54353 0.0
C261 C 0.5267 0.65462 0.53507 0.0
C262 C 0.47915 0.70363 0.5753 0.0
C263 C 0.45425 0.70473 0.55879 0.0
C264 C 0.48034 0.709 0.6105 0.0
C265 C 0.50556 0.7064 0.63003 0.0
C266 C 0.51864 0.6815 0.63256 0.0
C267 C 0.54266 0.67928 0.65054 0.0
C268 C 0.55362 0.70176 0.66643 0.0
C269 C 0.54052 0.72649 0.66446 0.0
C270 C 0.51653 0.72883 0.64641 0.0
C271 C 0.3788 0.69936 0.67767 0.0
C272 C 0.35811 0.71697 0.66865 0.0
C273 C 0.40301 0.69941 0.65994 0.0
C274 C 0.40705 0.7173 0.63302 0.0
C275 C 0.38682 0.73594 0.62513 0.0
C276 C 0.36242 0.73565 0.64272 0.0
C277 C 0.4317 0.71488 0.61209 0.0
C278 C 0.45672 0.71506 0.62825 0.0
C279 C 0.43049 0.70987 0.57688 0.0
C280 C 0.40451 0.70799 0.55898 0.0
C281 C 0.3979 0.72673 0.53386 0.0
C282 C 0.37303 0.72539 0.51762 0.0
C283 C 0.35471 0.70532 0.52623 0.0
C284 C 0.36133 0.68635 0.55081 0.0
C285 C 0.38612 0.68764 0.5672 0.0
H286 H 0.33542 0.7044 0.51377 0.0
H287 H 0.57223 0.70001 0.68035 0.0
H288 H 0.85519 0.00949 0.0208 0.0
H289 H 0.83117 0.96907 0.03835 0.0
H290 H 0.76832 0.01787 0.08114 0.0
H291 H 0.79162 0.05814 0.06238 0.0
H292 H 0.81442 0.98522 0.12275 0.0
H293 H 0.74154 0.98602 0.04655 0.0
H294 H 0.71724 0.98507 0.99253 0.0
H295 H 0.74553 0.90518 0.97376 0.0
H296 H 0.77097 0.90602 0.02714 0.0
H297 H 0.76904 0.88307 0.23086 0.0
H298 H 0.7654 0.92175 0.19296 0.0
H299 H 0.79473 0.87333 0.11019 0.0
H300 H 0.79739 0.83448 0.14795 0.0
H301 H 0.75817 0.90809 0.08822 0.0
H302 H 0.83523 0.91166 0.16451 0.0
H303 H 0.85821 0.91528 0.21956 0.0
H304 H 0.81679 0.98883 0.24041 0.0
H305 H 0.7935 0.9858 0.18557 0.0
C306 C 0.83524 0.01147 0.03139 0.0
C307 C 0.82496 0.0368 0.03972 0.0
C308 C 0.82157 0.98836 0.04162 0.0
C309 C 0.79773 0.99049 0.06048 0.0
C310 C 0.78624 0.01577 0.06579 0.0
C311 C 0.79965 0.03876 0.05518 0.0
C312 C 0.79009 0.96836 0.08319 0.0
C313 C 0.80175 0.96852 0.11542 0.0
C314 C 0.77363 0.94672 0.07328 0.0
C315 C 0.75907 0.94649 0.04048 0.0
C316 C 0.74339 0.96856 0.0305 0.0
C317 C 0.72919 0.96797 1.00004 0.0
C318 C 0.73008 0.94519 0.97951 0.0
C319 C 0.74505 0.92292 0.98954 0.0
C320 C 0.75945 0.9235 0.01987 0.0
C321 C 0.77418 0.88072 0.2044 0.0
C322 C 0.78379 0.85612 0.19217 0.0
C323 C 0.77226 0.90275 0.18285 0.0
C324 C 0.78054 0.90059 0.14896 0.0
C325 C 0.7887 0.87556 0.13635 0.0
C326 C 0.79037 0.85348 0.15785 0.0
C327 C 0.78309 0.92469 0.12742 0.0
C328 C 0.77062 0.92493 0.09553 0.0
C329 C 0.79855 0.94703 0.13771 0.0
C330 C 0.81247 0.94843 0.1709 0.0
C331 C 0.83095 0.9286 0.18079 0.0
C332 C 0.84404 0.93052 0.21196 0.0
C333 C 0.83891 0.95218 0.23343 0.0
C334 C 0.82072 0.97204 0.22377 0.0
C335 C 0.8076 0.97025 0.19263 0.0
H336 H 0.84908 0.9536 0.25755 0.0
H337 H 0.71899 0.94472 0.956 0.0
H338 H 0.49332 0.37472 0.52407 0.0
H339 H 0.53516 0.34911 0.53189 0.0
H340 H 0.48968 0.28159 0.56792 0.0
H341 H 0.44799 0.30656 0.55915 0.0
H342 H 0.52506 0.30753 0.61505 0.0
H343 H 0.52214 0.27145 0.50569 0.0
H344 H 0.51908 0.2704 0.44364 0.0
H345 H 0.59562 0.30916 0.43569 0.0
H346 H 0.59878 0.31146 0.49787 0.0
H347 H 0.6418 0.25403 0.68278 0.0
H348 H 0.60096 0.25325 0.64864 0.0
H349 H 0.6366 0.30978 0.57922 0.0
H350 H 0.67846 0.30804 0.61138 0.0
H351 H 0.60347 0.28039 0.54555 0.0
H352 H 0.5952 0.32973 0.65332 0.0
H353 H 0.59542 0.3343 0.71574 0.0
H354 H 0.53889 0.26987 0.72415 0.0
H355 H 0.53812 0.26514 0.66196 0.0
C356 C 0.49235 0.35405 0.53233 0.0
C357 C 0.46768 0.34236 0.54078 0.0
C358 C 0.51613 0.3395 0.53668 0.0
C359 C 0.5154 0.31356 0.55034 0.0
C360 C 0.49059 0.30147 0.55698 0.0
C361 C 0.46689 0.31575 0.5521 0.0
C362 C 0.54004 0.3016 0.56449 0.0
C363 C 0.54204 0.30107 0.5998 0.0
C364 C 0.56215 0.2936 0.54438 0.0
C365 C 0.56039 0.29226 0.50677 0.0
C366 C 0.5381 0.28033 0.49088 0.0
C367 C 0.53639 0.2794 0.45559 0.0
C368 C 0.55704 0.28993 0.43574 0.0
C369 C 0.57954 0.30119 0.45115 0.0
C370 C 0.58127 0.30236 0.48646 0.0
C371 C 0.64126 0.26533 0.65944 0.0
C372 C 0.66311 0.28133 0.64982 0.0
C373 C 0.61775 0.26529 0.64023 0.0
C374 C 0.61528 0.28223 0.61199 0.0
C375 C 0.63782 0.29671 0.60104 0.0
C376 C 0.66163 0.29599 0.61959 0.0
C377 C 0.58871 0.28723 0.59611 0.0
C378 C 0.58632 0.28653 0.56061 0.0
C379 C 0.56602 0.29434 0.61585 0.0
C380 C 0.56692 0.29687 0.65318 0.0
C381 C 0.58301 0.31646 0.6686 0.0
C382 C 0.58318 0.31912 0.70384 0.0
C383 C 0.56738 0.30226 0.72383 0.0
C384 C 0.5512 0.28284 0.70864 0.0
C385 C 0.55082 0.28023 0.67342 0.0
H386 H 0.56758 0.30433 0.7511 0.0
H387 H 0.55567 0.28925 0.40842 0.0
H388 H 0.66805 0.58412 0.4284 0.0
H389 H 0.6906 0.55277 0.39191 0.0
H390 H 0.73939 0.52641 0.47593 0.0
H391 H 0.71306 0.55523 0.51383 0.0
H392 H 0.72561 0.53255 0.36407 0.0
H393 H 0.75291 0.46242 0.47542 0.0
H394 H 0.73963 0.45435 0.53484 0.0
H395 H 0.66183 0.48804 0.51479 0.0
H396 H 0.67456 0.49589 0.45571 0.0
H397 H 0.74024 0.413 0.27276 0.0
H398 H 0.74939 0.45126 0.30863 0.0
H399 H 0.69684 0.41825 0.38516 0.0
H400 H 0.69376 0.37714 0.35305 0.0
H401 H 0.72578 0.44276 0.41717 0.0
H402 H 0.68229 0.47391 0.3165 0.0
H403 H 0.67556 0.48145 0.25541 0.0
H404 H 0.75005 0.52445 0.25015 0.0
H405 H 0.75734 0.51691 0.31119 0.0
C406 C 0.68419 0.57231 0.43898 0.0
C407 C 0.68842 0.57172 0.47402 0.0
C408 C 0.6973 0.55412 0.41789 0.0
C409 C 0.71587 0.5357 0.43122 0.0
C410 C 0.72394 0.53903 0.4652 0.0
C411 C 0.70946 0.5561 0.48683 0.0
C412 C 0.72274 0.51099 0.41119 0.0
C413 C 0.7254 0.51293 0.37583 0.0
C414 C 0.7224 0.48499 0.42581 0.0
C415 C 0.71486 0.48023 0.46148 0.0
C416 C 0.73301 0.46811 0.48389 0.0
C417 C 0.72557 0.46356 0.51753 0.0
C418 C 0.7 0.4709 0.52884 0.0
C419 C 0.68175 0.48261 0.50644 0.0
C420 C 0.68902 0.48703 0.47283 0.0
C421 C 0.73159 0.41335 0.29785 0.0
C422 C 0.71597 0.39181 0.30964 0.0
C423 C 0.73606 0.43589 0.31806 0.0
C424 C 0.72295 0.43877 0.3494 0.0
C425 C 0.70736 0.41712 0.36122 0.0
C426 C 0.70475 0.39365 0.34217 0.0
C427 C 0.72495 0.46415 0.36974 0.0
C428 C 0.72534 0.4623 0.40521 0.0
C429 C 0.7247 0.49011 0.35494 0.0
C430 C 0.72054 0.49452 0.31824 0.0
C431 C 0.69731 0.48482 0.30224 0.0
C432 C 0.69339 0.4891 0.26765 0.0
C433 C 0.71242 0.50332 0.24889 0.0
C434 C 0.73537 0.51336 0.2647 0.0
C435 C 0.73942 0.5091 0.29928 0.0
H436 H 0.70934 0.50663 0.22211 0.0
H437 H 0.6943 0.46729 0.55487 0.0
H438 H 0.90009 0.18579 0.95713 0.0
H439 H 0.92997 0.21404 0.92331 0.0
H440 H 0.99421 0.19941 0.99381 0.0
H441 H 0.96445 0.17152 0.02765 0.0
H442 H 0.00329 0.24553 0.95938 0.0
H443 H 0.97875 0.15297 0.93367 0.0
H444 H 0.94595 0.11744 0.92066 0.0
H445 H 0.92 0.16098 0.83293 0.0
H446 H 0.95266 0.1968 0.84553 0.0
H447 H 0.12099 0.20944 0.86909 0.0
H448 H 0.0809 0.21357 0.90496 0.0
H449 H 0.03272 0.2286 0.81633 0.0
H450 H 0.07282 0.22374 0.78057 0.0
H451 H 0.01047 0.19121 0.85447 0.0
H452 H 0.04495 0.2786 0.87449 0.0
H453 H 0.07907 0.31246 0.88886 0.0
H454 H 0.08778 0.27803 0.98774 0.0
H455 H 0.054 0.24369 0.97382 0.0
C456 C 0.92 0.19016 0.96666 0.0
C457 C 0.93016 0.17624 0.99471 0.0
C458 C 0.93719 0.20608 0.94706 0.0
C459 C 0.96456 0.20807 0.9554 0.0
C460 C 0.97329 0.19797 0.98661 0.0
C461 C 0.95618 0.18212 0.00613 0.0
C462 C 0.98501 0.21466 0.9292 0.0
C463 C 0.00482 0.23383 0.93631 0.0
C464 C 0.98691 0.19954 0.89888 0.0
C465 C 0.96783 0.1777 0.89078 0.0
C466 C 0.96598 0.15498 0.91167 0.0
C467 C 0.94745 0.13478 0.90436 0.0
C468 C 0.93091 0.13695 0.87599 0.0
C469 C 0.93284 0.15933 0.85488 0.0
C470 C 0.95135 0.17957 0.86209 0.0
C471 C 0.10182 0.21388 0.8575 0.0
C472 C 0.09981 0.21628 0.82224 0.0
C473 C 0.07899 0.21647 0.87792 0.0
C474 C 0.05377 0.22174 0.86342 0.0
C475 C 0.05193 0.22469 0.82814 0.0
C476 C 0.07477 0.22207 0.80776 0.0
C477 C 0.02911 0.22189 0.88477 0.0
C478 C 0.00862 0.20367 0.87688 0.0
C479 C 0.02679 0.23775 0.91441 0.0
C480 C 0.04702 0.25846 0.92301 0.0
C481 C 0.05426 0.27813 0.89922 0.0
C482 C 0.07353 0.29743 0.9073 0.0
C483 C 0.08561 0.29738 0.93917 0.0
C484 C 0.07841 0.27805 0.96306 0.0
C485 C 0.05916 0.25868 0.95511 0.0
H486 H 0.10053 0.31234 0.94538 0.0
H487 H 0.91671 0.12122 0.87026 0.0
H488 H 0.31219 0.4476 0.46959 0.0
H489 H 0.29561 0.49133 0.45101 0.0
H490 H 0.37648 0.52212 0.4525 0.0
H491 H 0.39291 0.47858 0.4726 0.0
H492 H 0.3379 0.56228 0.46304 0.0
H493 H 0.35585 0.48907 0.38438 0.0
H494 H 0.34976 0.44285 0.36358 0.0
H495 H 0.26517 0.45682 0.35246 0.0
H496 H 0.27075 0.50303 0.37372 0.0
H497 H 0.33776 0.60597 0.27461 0.0
H498 H 0.33916 0.57235 0.31928 0.0
H499 H 0.29137 0.62391 0.38354 0.0
H500 H 0.29237 0.65868 0.33924 0.0
H501 H 0.3045 0.54411 0.34724 0.0
H502 H 0.30877 0.60416 0.47304 0.0
H503 H 0.31943 0.6494 0.49405 0.0
H504 H 0.36829 0.66388 0.40666 0.0
H505 H 0.36003 0.61785 0.38636 0.0
C506 C 0.32617 0.46413 0.46741 0.0
C507 C 0.35374 0.45996 0.47216 0.0
C508 C 0.31673 0.48904 0.45683 0.0
C509 C 0.33491 0.50973 0.44965 0.0
C510 C 0.36214 0.5064 0.45791 0.0
C511 C 0.37154 0.48155 0.46917 0.0
C512 C 0.32678 0.53205 0.42722 0.0
C513 C 0.33075 0.55858 0.43763 0.0
C514 C 0.31698 0.52692 0.39429 0.0
C515 C 0.31366 0.49934 0.38097 0.0
C516 C 0.33594 0.48221 0.37765 0.0
C517 C 0.33259 0.45604 0.36579 0.0
C518 C 0.30708 0.44688 0.35678 0.0
C519 C 0.2849 0.46393 0.35952 0.0
C520 C 0.28814 0.4901 0.37148 0.0
C521 C 0.32787 0.61009 0.29845 0.0
C522 C 0.31542 0.6348 0.304 0.0
C523 C 0.32837 0.59086 0.32388 0.0
C524 C 0.31567 0.59564 0.35513 0.0
C525 C 0.30182 0.61993 0.36001 0.0
C526 C 0.30209 0.63959 0.33472 0.0
C527 C 0.31746 0.57486 0.38196 0.0
C528 C 0.31179 0.54833 0.37256 0.0
C529 C 0.32668 0.5802 0.41534 0.0
C530 C 0.33308 0.60765 0.42764 0.0
C531 C 0.32207 0.61682 0.4584 0.0
C532 C 0.32797 0.64251 0.47038 0.0
C533 C 0.34462 0.6594 0.45164 0.0
C534 C 0.35573 0.65052 0.42121 0.0
C535 C 0.35057 0.62456 0.40956 0.0
H536 H 0.3489 0.67942 0.46058 0.0
H537 H 0.30452 0.42661 0.34761 0.0
H538 H 0.02219 0.82544 0.00965 0.0
H539 H 0.99546 0.799 0.97057 0.0
H540 H 0.06606 0.78347 0.91017 0.0
H541 H 0.09292 0.81012 0.94944 0.0
H542 H 0.03093 0.81388 0.87762 0.0
H543 H 0.02512 0.73138 0.93609 0.0
H544 H 0.01915 0.7012 0.98483 0.0
H545 H 0.93834 0.72938 0.99788 0.0
H546 H 0.94391 0.76004 0.94953 0.0
H547 H 0.93892 0.78729 0.74682 0.0
H548 H 0.97443 0.77874 0.78828 0.0
H549 H 0.9185 0.79495 0.86937 0.0
H550 H 0.88268 0.80203 0.82768 0.0
H551 H 0.95157 0.7544 0.88628 0.0
H552 H 0.96127 0.84374 0.83974 0.0
H553 H 0.96685 0.87698 0.79402 0.0
H554 H 0.03956 0.83821 0.76219 0.0
H555 H 0.03432 0.8046 0.80761 0.0
C556 C 0.03228 0.81504 0.98916 0.0
C557 C 0.05943 0.82016 0.98216 0.0
C558 C 0.01697 0.79986 0.96674 0.0
C559 C 0.02865 0.78957 0.93709 0.0
C560 C 0.05662 0.79134 0.93283 0.0
C561 C 0.07202 0.80642 0.95545 0.0
C562 C 0.01109 0.78376 0.90771 0.0
C563 C 0.01408 0.80016 0.8791 0.0
C564 C 0.98856 0.76663 0.9101 0.0
C565 C 0.98499 0.7481 0.93916 0.0
C566 C 0.00613 0.73129 0.94946 0.0
C567 C 0.0028 0.71406 0.97702 0.0
C568 C 0.97839 0.71338 0.99445 0.0
C569 C 0.95723 0.7299 0.98433 0.0
C570 C 0.96045 0.74717 0.95678 0.0
C571 C 0.93423 0.78847 0.77353 0.0
C572 C 0.9083 0.79541 0.78427 0.0
C573 C 0.95447 0.78378 0.79716 0.0
C574 C 0.94919 0.7865 0.83193 0.0
C575 C 0.92301 0.79269 0.84269 0.0
C576 C 0.90269 0.79704 0.819 0.0
C577 C 0.97129 0.78493 0.85692 0.0
C578 C 0.96895 0.7674 0.88455 0.0
C579 C 0.99428 0.80137 0.85409 0.0
C580 C 0.99732 0.82154 0.82681 0.0
C581 C 0.97836 0.84221 0.82286 0.0
C582 C 0.98145 0.86111 0.79705 0.0
C583 C 0.00347 0.85963 0.77519 0.0
C584 C 0.02251 0.8393 0.77914 0.0
C585 C 0.01952 0.82036 0.80491 0.0
H586 H 0.00582 0.87428 0.75523 0.0
H587 H 0.97586 0.70004 0.01579 0.0
H588 H 0.85005 0.02764 0.95814 0.0
H589 H 0.84482 0.98699 0.92353 0.0
H590 H 0.9306 0.97564 0.92363 0.0
H591 H 0.93594 0.01545 0.95866 0.0
H592 H 0.9081 0.97555 0.85873 0.0
H593 H 0.89253 0.93711 0.9685 0.0
H594 H 0.87028 0.92877 0.02316 0.0
H595 H 0.79795 0.90654 0.97146 0.0
H596 H 0.81908 0.91631 0.91679 0.0
H597 H 0.91773 0.85043 0.77405 0.0
H598 H 0.92171 0.88761 0.81427 0.0
H599 H 0.83621 0.88516 0.83157 0.0
H600 H 0.83273 0.84643 0.79389 0.0
H601 H 0.85857 0.89265 0.88786 0.0
H602 H 0.87046 0.93523 0.7796 0.0
H603 H 0.89125 0.94141 0.72344 0.0
H604 H 0.96791 0.95439 0.77009 0.0
H605 H 0.94762 0.94803 0.82652 0.0
C606 C 0.86771 0.01611 0.95145 0.0
C607 C 0.8934 0.02482 0.96131 0.0
C608 C 0.86471 0.99296 0.93155 0.0
C609 C 0.88737 0.97836 0.92083 0.0
C610 C 0.91287 0.98664 0.93142 0.0
C611 C 0.91584 0.00943 0.95157 0.0
C612 C 0.88495 0.95536 0.89704 0.0
C613 C 0.89738 0.95735 0.8652 0.0
C614 C 0.87051 0.93183 0.90513 0.0
C615 C 0.85731 0.9279 0.93844 0.0
C616 C 0.87164 0.93118 0.96881 0.0
C617 C 0.85918 0.92616 0.99989 0.0
C618 C 0.83254 0.91744 0.00089 0.0
C619 C 0.81833 0.91382 0.97085 0.0
C620 C 0.83051 0.91919 0.9398 0.0
C621 C 0.89987 0.85781 0.78664 0.0
C622 C 0.87485 0.84581 0.78051 0.0
C623 C 0.90208 0.87928 0.80928 0.0
C624 C 0.87918 0.8898 0.82544 0.0
C625 C 0.85419 0.87768 0.81934 0.0
C626 C 0.85211 0.85578 0.79739 0.0
C627 C 0.88122 0.91298 0.84926 0.0
C628 C 0.86896 0.91099 0.88119 0.0
C629 C 0.8954 0.93671 0.84108 0.0
C630 C 0.90755 0.94098 0.80723 0.0
C631 C 0.89177 0.93931 0.77785 0.0
C632 C 0.90346 0.94285 0.74599 0.0
C633 C 0.93089 0.94824 0.7432 0.0
C634 C 0.94667 0.9502 0.77228 0.0
C635 C 0.93508 0.94669 0.80422 0.0
H636 H 0.93991 0.95095 0.7185 0.0
H637 H 0.82291 0.91332 0.02484 0.0
H638 H 0.47359 0.33938 0.4697 0.0
H639 H 0.51988 0.33801 0.44735 0.0
H640 H 0.50137 0.40414 0.38125 0.0
H641 H 0.45618 0.40651 0.4048 0.0
H642 H 0.5233 0.36085 0.34786 0.0
H643 H 0.53505 0.41114 0.44861 0.0
H644 H 0.535 0.42014 0.50966 0.0
H645 H 0.59994 0.36473 0.5233 0.0
H646 H 0.59974 0.3545 0.4625 0.0
H647 H 0.65282 0.39759 0.28197 0.0
H648 H 0.61119 0.40208 0.31557 0.0
H649 H 0.62832 0.32701 0.36497 0.0
H650 H 0.66931 0.32222 0.33054 0.0
H651 H 0.60891 0.3753 0.40895 0.0
H652 H 0.58844 0.31959 0.31067 0.0
H653 H 0.58839 0.31089 0.24923 0.0
H654 H 0.54217 0.38237 0.23285 0.0
H655 H 0.54242 0.39176 0.2942 0.0
C656 C 0.47987 0.35423 0.45146 0.0
C657 C 0.46156 0.37356 0.43984 0.0
C658 C 0.50612 0.35317 0.43826 0.0
C659 C 0.51416 0.37107 0.41266 0.0
C660 C 0.49571 0.39016 0.40097 0.0
C661 C 0.46985 0.39146 0.41446 0.0
C662 C 0.54112 0.36942 0.39634 0.0
C663 C 0.54193 0.36408 0.36143 0.0
C664 C 0.56559 0.37369 0.41403 0.0
C665 C 0.56631 0.38077 0.45078 0.0
C666 C 0.54874 0.40008 0.46457 0.0
C667 C 0.54886 0.40558 0.49926 0.0
C668 C 0.5671 0.39263 0.52046 0.0
C669 C 0.58551 0.37445 0.50693 0.0
C670 C 0.58524 0.36864 0.47233 0.0
C671 C 0.64756 0.38221 0.3001 0.0
C672 C 0.66395 0.35955 0.30381 0.0
C673 C 0.62401 0.38481 0.31937 0.0
C674 C 0.61682 0.36497 0.34298 0.0
C675 C 0.63363 0.34265 0.34719 0.0
C676 C 0.65681 0.3398 0.32742 0.0
C677 C 0.59067 0.36629 0.36112 0.0
C678 C 0.59008 0.37175 0.39601 0.0
C679 C 0.56628 0.36241 0.34371 0.0
C680 C 0.56571 0.35652 0.30694 0.0
C681 C 0.57848 0.33357 0.29393 0.0
C682 C 0.57839 0.3285 0.25914 0.0
C683 C 0.56534 0.3461 0.23714 0.0
C684 C 0.5523 0.36877 0.24992 0.0
C685 C 0.55241 0.37398 0.28469 0.0
H686 H 0.56528 0.34214 0.21021 0.0
H687 H 0.56719 0.39693 0.54731 0.0
H688 H 0.14333 0.96574 0.96431 0.0
H689 H 0.15263 0.01004 0.94042 0.0
H690 H 0.06843 0.0295 0.94595 0.0
H691 H 0.05917 0.98571 0.97114 0.0
H692 H 0.09237 0.0331 0.88013 0.0
H693 H 0.10886 0.06266 0.99482 0.0
H694 H 0.13034 0.06569 0.05092 0.0
H695 H 0.20728 0.07536 0.00351 0.0
H696 H 0.18592 0.07396 0.94719 0.0
H697 H 0.09148 0.16246 0.81182 0.0
H698 H 0.08513 0.12331 0.84795 0.0
H699 H 0.17 0.12251 0.87003 0.0
H700 H 0.17557 0.16363 0.8372 0.0
H701 H 0.14782 0.10832 0.92257 0.0
H702 H 0.13633 0.07812 0.80952 0.0
H703 H 0.11821 0.07716 0.75151 0.0
H704 H 0.03914 0.06248 0.79069 0.0
H705 H 0.05673 0.06371 0.84899 0.0
C706 C 0.12699 0.97986 0.96183 0.0
C707 C 0.10059 0.97231 0.97008 0.0
C708 C 0.1323 0.0051 0.94786 0.0
C709 C 0.11122 0.02306 0.94147 0.0
C710 C 0.08498 0.01593 0.95072 0.0
C711 C 0.07972 0.99087 0.96505 0.0
C712 C 0.11594 0.04787 0.92168 0.0
C713 C 0.10421 0.04975 0.88954 0.0
C714 C 0.13259 0.06887 0.93324 0.0
C715 C 0.14573 0.06814 0.96688 0.0
C716 C 0.13032 0.06538 0.99645 0.0
C717 C 0.14247 0.06689 0.02825 0.0
C718 C 0.1702 0.07037 0.03079 0.0
C719 C 0.1858 0.07262 0.00151 0.0
C720 C 0.17362 0.07176 0.96965 0.0
C721 C 0.10863 0.15422 0.82498 0.0
C722 C 0.13405 0.16603 0.8216 0.0
C723 C 0.10513 0.13148 0.84516 0.0
C724 C 0.12721 0.11923 0.8611 0.0
C725 C 0.15259 0.13128 0.85797 0.0
C726 C 0.15587 0.15459 0.8388 0.0
C727 C 0.1239 0.09391 0.88088 0.0
C728 C 0.13606 0.09174 0.9129 0.0
C729 C 0.10849 0.07208 0.86866 0.0
C730 C 0.09781 0.07125 0.83364 0.0
C731 C 0.11505 0.07486 0.80578 0.0
C732 C 0.10488 0.07425 0.77285 0.0
C733 C 0.07753 0.06983 0.76743 0.0
C734 C 0.06031 0.06594 0.79493 0.0
C735 C 0.07037 0.06656 0.82792 0.0
H736 H 0.0697 0.06936 0.74191 0.0
H737 H 0.17957 0.07156 0.05541 0.0
H738 H 0.54455 0.64826 0.46766 0.0
H739 H 0.50559 0.65954 0.43299 0.0
H740 H 0.49412 0.57596 0.40987 0.0
H741 H 0.53187 0.5642 0.44656 0.0
H742 H 0.49918 0.62082 0.3521 0.0
H743 H 0.45915 0.59672 0.46027 0.0
H744 H 0.44956 0.60213 0.52086 0.0
H745 H 0.41161 0.67762 0.5011 0.0
H746 H 0.42356 0.6743 0.44132 0.0
H747 H 0.37763 0.62985 0.25747 0.0
H748 H 0.41611 0.61708 0.29252 0.0
H749 H 0.39988 0.68424 0.35863 0.0
H750 H 0.36004 0.69525 0.32489 0.0
H751 H 0.40912 0.645 0.39524 0.0
H752 H 0.45589 0.67934 0.29907 0.0
H753 H 0.46794 0.68356 0.23876 0.0
H754 H 0.4927 0.60114 0.23661 0.0
H755 H 0.48045 0.59632 0.29682 0.0
C756 C 0.53318 0.63214 0.45632 0.0
C757 C 0.54088 0.60523 0.46087 0.0
C758 C 0.51116 0.6387 0.43609 0.0
C759 C 0.497 0.61856 0.4191 0.0
C760 C 0.5048 0.59174 0.423 0.0
C761 C 0.52627 0.58508 0.44413 0.0
C762 C 0.4745 0.62556 0.39645 0.0
C763 C 0.47935 0.626 0.36146 0.0
C764 C 0.44904 0.63329 0.40901 0.0
C765 C 0.44291 0.63546 0.44589 0.0
C766 C 0.44979 0.61503 0.46885 0.0
C767 C 0.44388 0.61775 0.50331 0.0
C768 C 0.43006 0.64027 0.51502 0.0
C769 C 0.42254 0.6603 0.49235 0.0
C770 C 0.4292 0.65816 0.45818 0.0
C771 C 0.38258 0.64183 0.27942 0.0
C772 C 0.36612 0.66338 0.28882 0.0
C773 C 0.40466 0.63475 0.2993 0.0
C774 C 0.41125 0.64979 0.32823 0.0
C775 C 0.39526 0.67214 0.33663 0.0
C776 C 0.37273 0.67869 0.31727 0.0
C777 C 0.43376 0.64153 0.35085 0.0
C778 C 0.42892 0.64034 0.38583 0.0
C779 C 0.45957 0.63457 0.33855 0.0
C780 C 0.46699 0.6374 0.30236 0.0
C781 C 0.46372 0.66206 0.28567 0.0
C782 C 0.47061 0.66457 0.25152 0.0
C783 C 0.48101 0.64262 0.23384 0.0
C784 C 0.4846 0.61812 0.25032 0.0
C785 C 0.47771 0.61549 0.28447 0.0
H786 H 0.48634 0.6446 0.2074 0.0
H787 H 0.4251 0.64214 0.5416 0.0
H788 H 0.34535 0.46289 0.53811 0.0
H789 H 0.3344 0.50976 0.55125 0.0
H790 H 0.39997 0.5122 0.62208 0.0
H791 H 0.4125 0.46639 0.60657 0.0
H792 H 0.33473 0.52432 0.63872 0.0
H793 H 0.41522 0.54115 0.56971 0.0
H794 H 0.43868 0.53797 0.51506 0.0
H795 H 0.37959 0.58891 0.46955 0.0
H796 H 0.35433 0.59054 0.52328 0.0
H797 H 0.33629 0.64868 0.71907 0.0
H798 H 0.3487 0.60603 0.69247 0.0
H799 H 0.32527 0.63744 0.59508 0.0
H800 H 0.3151 0.68088 0.6218 0.0
H801 H 0.36599 0.60852 0.58496 0.0
H802 H 0.2847 0.59277 0.64385 0.0
H803 H 0.25289 0.59314 0.69172 0.0
H804 H 0.30543 0.54194 0.74846 0.0
H805 H 0.33779 0.5416 0.70114 0.0
C806 C 0.35837 0.47399 0.55479 0.0
C807 C 0.38055 0.46142 0.5699 0.0
C808 C 0.35178 0.50054 0.56286 0.0
C809 C 0.36682 0.51457 0.58701 0.0
C810 C 0.38853 0.50185 0.60281 0.0
C811 C 0.39556 0.47567 0.59402 0.0
C812 C 0.35838 0.54144 0.5987 0.0
C813 C 0.34169 0.54278 0.62719 0.0
C814 C 0.36653 0.56536 0.58246 0.0
C815 C 0.38225 0.56506 0.55042 0.0
C816 C 0.4066 0.55087 0.54787 0.0
C817 C 0.4202 0.5493 0.51696 0.0
C818 C 0.41015 0.56258 0.48861 0.0
C819 C 0.38686 0.57799 0.49132 0.0
C820 C 0.37279 0.57908 0.52195 0.0
C821 C 0.33388 0.64625 0.69202 0.0
C822 C 0.32451 0.66758 0.67236 0.0
C823 C 0.3408 0.62195 0.67677 0.0
C824 C 0.33731 0.61815 0.64174 0.0
C825 C 0.32816 0.63976 0.62207 0.0
C826 C 0.32209 0.6644 0.63725 0.0
C827 C 0.34292 0.59154 0.62598 0.0
C828 C 0.35888 0.59016 0.59656 0.0
C829 C 0.33331 0.56744 0.64057 0.0
C830 C 0.31377 0.56733 0.66902 0.0
C831 C 0.28955 0.58171 0.66661 0.0
C832 C 0.27141 0.58191 0.69364 0.0
C833 C 0.27715 0.56761 0.72313 0.0
C834 C 0.30102 0.55302 0.72561 0.0
C835 C 0.31926 0.5528 0.69868 0.0
H836 H 0.26309 0.5678 0.74404 0.0
H837 H 0.42071 0.56136 0.4647 0.0
H838 H 0.05014 0.88277 0.15446 0.0
H839 H 0.00443 0.87111 0.1704 0.0
H840 H 0.9821 0.86708 0.06519 0.0
H841 H 0.02803 0.87901 0.04879 0.0
H842 H 0.94328 0.89148 0.10387 0.0
H843 H 0.99344 0.81031 0.10616 0.0
H844 H 0.03131 0.7808 0.1211 0.0
H845 H 0.01255 0.78988 0.2266 0.0
H846 H 0.97479 0.81979 0.21231 0.0
H847 H 0.84137 0.78668 0.18161 0.0
H848 H 0.88391 0.79743 0.15304 0.0
H849 H 0.87859 0.87859 0.18995 0.0
H850 H 0.83618 0.86772 0.21857 0.0
H851 H 0.93024 0.81206 0.17749 0.0
H852 H 0.9082 0.92186 0.13635 0.0
H853 H 0.87157 0.9493 0.11257 0.0
H854 H 0.83363 0.87844 0.07405 0.0
H855 H 0.86982 0.85054 0.0978 0.0
C856 C 0.03557 0.87965 0.13454 0.0
C857 C 0.04299 0.8816 0.10022 0.0
C858 C 0.0094 0.87285 0.14379 0.0
C859 C 0.98996 0.86773 0.11902 0.0
C860 C 0.99685 0.87077 0.08474 0.0
C861 C 0.02315 0.87757 0.07541 0.0
C862 C 0.96269 0.85868 0.12921 0.0
C863 C 0.94037 0.87412 0.11997 0.0
C864 C 0.95883 0.83559 0.14944 0.0
C865 C 0.9814 0.81746 0.15816 0.0
C866 C 0.9975 0.80617 0.13256 0.0
C867 C 0.01893 0.78935 0.14091 0.0
C868 C 0.02436 0.78351 0.17478 0.0
C869 C 0.00833 0.79444 0.20037 0.0
C870 C 0.98689 0.8113 0.19216 0.0
C871 C 0.84945 0.80674 0.18363 0.0
C872 C 0.83565 0.82639 0.20221 0.0
C873 C 0.8736 0.81294 0.1672 0.0
C874 C 0.8843 0.83899 0.16891 0.0
C875 C 0.87045 0.85858 0.1876 0.0
C876 C 0.84638 0.85235 0.20406 0.0
C877 C 0.9107 0.84533 0.15301 0.0
C878 C 0.93298 0.82938 0.1613 0.0
C879 C 0.91441 0.86768 0.13139 0.0
C880 C 0.89161 0.8841 0.11912 0.0
C881 C 0.89194 0.91212 0.123 0.0
C882 C 0.87128 0.92775 0.10952 0.0
C883 C 0.85025 0.91558 0.09203 0.0
C884 C 0.84975 0.88778 0.08805 0.0
C885 C 0.87027 0.87203 0.10162 0.0
H886 H 0.83443 0.92771 0.08137 0.0
H887 H 0.04097 0.77048 0.1812 0.0
H888 H 0.64163 0.52849 0.55028 0.0
H889 H 0.64994 0.48327 0.57088 0.0
H890 H 0.57725 0.48628 0.62983 0.0
H891 H 0.57001 0.53293 0.61152 0.0
H892 H 0.61542 0.46555 0.66538 0.0
H893 H 0.58553 0.45225 0.55367 0.0
H894 H 0.58296 0.45715 0.49189 0.0
H895 H 0.66049 0.42066 0.48109 0.0
H896 H 0.66453 0.41716 0.54288 0.0
H897 H 0.64397 0.32637 0.70211 0.0
H898 H 0.62138 0.36762 0.68266 0.0
H899 H 0.69211 0.38883 0.62564 0.0
H900 H 0.71455 0.34783 0.64555 0.0
H901 H 0.64464 0.39259 0.58833 0.0
H902 H 0.67819 0.41987 0.69882 0.0
H903 H 0.68203 0.41549 0.76078 0.0
H904 H 0.59656 0.42346 0.77087 0.0
H905 H 0.5922 0.42753 0.70888 0.0
C906 C 0.62698 0.51928 0.56685 0.0
C907 C 0.60474 0.53384 0.57856 0.0
C908 C 0.63175 0.4934 0.57847 0.0
C909 C 0.61376 0.48091 0.6007 0.0
C910 C 0.59123 0.49532 0.61222 0.0
C911 C 0.58696 0.52179 0.60157 0.0
C912 C 0.61986 0.45348 0.61323 0.0
C913 C 0.62124 0.44947 0.64838 0.0
C914 C 0.62776 0.43244 0.59103 0.0
C915 C 0.62542 0.43463 0.55342 0.0
C916 C 0.60237 0.44578 0.53835 0.0
C917 C 0.60067 0.44838 0.50319 0.0
C918 C 0.62151 0.43918 0.48257 0.0
C919 C 0.64426 0.42764 0.49709 0.0
C920 C 0.64634 0.42552 0.53226 0.0
C921 C 0.65457 0.3402 0.6858 0.0
C922 C 0.68085 0.33444 0.67539 0.0
C923 C 0.64175 0.36351 0.67462 0.0
C924 C 0.65503 0.38115 0.65262 0.0
C925 C 0.68147 0.3754 0.64249 0.0
C926 C 0.69435 0.35228 0.65402 0.0
C927 C 0.64152 0.40564 0.63995 0.0
C928 C 0.63848 0.40881 0.60491 0.0
C929 C 0.63217 0.42592 0.66199 0.0
C930 C 0.63484 0.42372 0.69923 0.0
C931 C 0.6602 0.42049 0.71424 0.0
C932 C 0.66248 0.4181 0.74936 0.0
C933 C 0.63955 0.41912 0.76974 0.0
C934 C 0.6143 0.42262 0.75504 0.0
C935 C 0.61192 0.42499 0.71993 0.0
H936 H 0.64135 0.41726 0.79692 0.0
H937 H 0.62002 0.44095 0.45535 0.0
H938 H 0.97061 0.11806 0.04891 0.0
H939 H 0.01406 0.12688 0.07522 0.0
H940 H 0.98675 0.08911 0.16724 0.0
H941 H 0.94296 0.08119 0.14148 0.0
H942 H 0.00815 0.1359 0.18081 0.0
H943 H 0.03584 0.05915 0.11359 0.0
H944 H 0.03749 0.03496 0.05914 0.0
H945 H 0.0808 0.10031 0.01433 0.0
H946 H 0.07947 0.12479 0.06849 0.0
H947 H 0.1316 0.13451 0.2685 0.0
H948 H 0.09095 0.12025 0.23839 0.0
H949 H 0.11819 0.16183 0.14898 0.0
H950 H 0.15894 0.17581 0.17935 0.0
H951 H 0.09752 0.11294 0.1332 0.0
H952 H 0.07083 0.18947 0.19856 0.0
H953 H 0.06636 0.21669 0.25038 0.0
H954 H 0.01906 0.15479 0.29654 0.0
H955 H 0.02362 0.12699 0.24517 0.0
C956 C 0.97406 0.11116 0.0745 0.0
C957 C 0.95338 0.09897 0.09316 0.0
C958 C 0.99894 0.11618 0.08953 0.0
C959 C 0.00377 0.10851 0.1232 0.0
C960 C 0.98347 0.0953 0.1413 0.0
C961 C 0.9585 0.09068 0.1265 0.0
C962 C 0.02922 0.11579 0.14041 0.0
C963 C 0.02766 0.13045 0.17068 0.0
C964 C 0.05471 0.10949 0.12667 0.0
C965 C 0.05747 0.09382 0.095 0.0
C966 C 0.04585 0.06827 0.09214 0.0
C967 C 0.04671 0.05451 0.06133 0.0
C968 C 0.05932 0.06602 0.03331 0.0
C969 C 0.07123 0.09127 0.0361 0.0
C970 C 0.07053 0.10506 0.06688 0.0
C971 C 0.1285 0.14085 0.24261 0.0
C972 C 0.14769 0.15678 0.2263 0.0
C973 C 0.10552 0.13261 0.22536 0.0
C974 C 0.1014 0.14027 0.19156 0.0
C975 C 0.12093 0.15578 0.17506 0.0
C976 C 0.14395 0.16396 0.19237 0.0
C977 C 0.07633 0.1327 0.17383 0.0
C978 C 0.07797 0.11814 0.14345 0.0
C979 C 0.05083 0.13924 0.18735 0.0
C980 C 0.04778 0.15605 0.21813 0.0
C981 C 0.05963 0.18158 0.21985 0.0
C982 C 0.05707 0.19712 0.24913 0.0
C983 C 0.04249 0.18745 0.27676 0.0
C984 C 0.03038 0.16224 0.27513 0.0
C985 C 0.03293 0.14659 0.24593 0.0
H986 H 0.04053 0.19951 0.29941 0.0
H987 H 0.05982 0.05539 0.00943 0.0
H988 H 0.17218 0.85659 0.09885 0.0
H989 H 0.20359 0.82396 0.12169 0.0
H990 H 0.18325 0.76862 0.04191 0.0
H991 H 0.15154 0.8017 0.01841 0.0
H992 H 0.18347 0.74702 0.11165 0.0
H993 H 0.24053 0.79386 0.03487 0.0
H994 H 0.25983 0.83371 0.00724 0.0
H995 H 0.29103 0.86064 0.10257 0.0
H996 H 0.27157 0.82115 0.13089 0.0
H997 H 0.28475 0.66347 0.18269 0.0
H998 H 0.25878 0.68839 0.1403 0.0
H999 H 0.27794 0.7624 0.19148 0.0
H1000 H 0.30438 0.73734 0.23322 0.0
H1001 H 0.2798 0.7697 0.1255 0.0
H1002 H 0.21755 0.72834 0.2034 0.0
H1003 H 0.19707 0.69026 0.2336 0.0
H1004 H 0.17426 0.65486 0.13886 0.0
H1005 H 0.19502 0.69254 0.10806 0.0
C1006 C 0.17431 0.8375 0.08606 0.0
C1007 C 0.15939 0.83168 0.05682 0.0
C1008 C 0.19239 0.81893 0.09908 0.0
C1009 C 0.19588 0.79399 0.08336 0.0
C1010 C 0.18088 0.78785 0.05428 0.0
C1011 C 0.16291 0.80674 0.04084 0.0
C1012 C 0.21495 0.77456 0.09835 0.0
C1013 C 0.20469 0.75152 0.11394 0.0
C1014 C 0.24246 0.7809 0.102 0.0
C1015 C 0.25446 0.80458 0.08504 0.0
C1016 C 0.25135 0.80837 0.05 0.0
C1017 C 0.26234 0.83088 0.0342 0.0
C1018 C 0.27662 0.84971 0.05315 0.0
C1019 C 0.27998 0.84603 0.08792 0.0
C1020 C 0.269 0.82356 0.10385 0.0
C1021 C 0.28345 0.68508 0.18453 0.0
C1022 C 0.29626 0.69864 0.21108 0.0
C1023 C 0.26863 0.69929 0.16046 0.0
C1024 C 0.26602 0.72726 0.16297 0.0
C1025 C 0.27964 0.74085 0.18897 0.0
C1026 C 0.29468 0.72663 0.21279 0.0
C1027 C 0.24824 0.7424 0.13957 0.0
C1028 C 0.25874 0.76474 0.12254 0.0
C1029 C 0.22087 0.73556 0.13492 0.0
C1030 C 0.20811 0.71308 0.15342 0.0
C1031 C 0.20833 0.71234 0.189 0.0
C1032 C 0.19666 0.69084 0.20623 0.0
C1033 C 0.18444 0.67012 0.18815 0.0
C1034 C 0.18378 0.6709 0.15282 0.0
C1035 C 0.1955 0.69232 0.13546 0.0
H1036 H 0.17541 0.65349 0.20153 0.0
H1037 H 0.28511 0.86714 0.04087 0.0
H1038 H 0.69179 0.66752 0.51767 0.0
H1039 H 0.72846 0.69796 0.53419 0.0
H1040 H 0.73124 0.66077 0.63257 0.0
H1041 H 0.69521 0.6305 0.61629 0.0
H1042 H 0.71957 0.71758 0.63153 0.0
H1043 H 0.78113 0.65128 0.58264 0.0
H1044 H 0.79863 0.62486 0.53464 0.0
H1045 H 0.81616 0.69732 0.48048 0.0
H1046 H 0.79841 0.72417 0.52803 0.0
H1047 H 0.82313 0.75625 0.73637 0.0
H1048 H 0.79257 0.73174 0.69906 0.0
H1049 H 0.82076 0.77795 0.61384 0.0
H1050 H 0.85199 0.80205 0.65159 0.0
H1051 H 0.81501 0.72521 0.59686 0.0
H1052 H 0.76045 0.79193 0.64682 0.0
H1053 H 0.74176 0.82018 0.69234 0.0
H1054 H 0.70852 0.75058 0.74042 0.0
H1055 H 0.7274 0.72183 0.6955 0.0
C1056 C 0.701 0.66525 0.5423 0.0
C1057 C 0.69063 0.6468 0.5658 0.0
C1058 C 0.72174 0.68275 0.55179 0.0
C1059 C 0.73222 0.68178 0.58476 0.0
C1060 C 0.72322 0.66197 0.60714 0.0
C1061 C 0.70269 0.64465 0.59776 0.0
C1062 C 0.75029 0.70286 0.59795 0.0
C1063 C 0.74046 0.71926 0.62402 0.0
C1064 C 0.7771 0.70588 0.58693 0.0
C1065 C 0.78816 0.68971 0.5587 0.0
C1066 C 0.78851 0.66157 0.56038 0.0
C1067 C 0.79852 0.64652 0.53328 0.0
C1068 C 0.80842 0.6594 0.50448 0.0
C1069 C 0.80844 0.68737 0.50278 0.0
C1070 C 0.79844 0.70251 0.52981 0.0
C1071 C 0.82265 0.76108 0.70967 0.0
C1072 C 0.83956 0.78093 0.69663 0.0
C1073 C 0.80524 0.74721 0.68839 0.0
C1074 C 0.80409 0.75327 0.65369 0.0
C1075 C 0.82126 0.77301 0.64051 0.0
C1076 C 0.83887 0.78684 0.66195 0.0
C1077 C 0.78461 0.73889 0.63183 0.0
C1078 C 0.79402 0.72395 0.60401 0.0
C1079 C 0.75714 0.73747 0.64082 0.0
C1080 C 0.74546 0.75469 0.66781 0.0
C1081 C 0.74929 0.78262 0.6672 0.0
C1082 C 0.73865 0.79873 0.6929 0.0
C1083 C 0.72398 0.78718 0.71927 0.0
C1084 C 0.71988 0.7595 0.71996 0.0
C1085 C 0.73052 0.74328 0.69436 0.0
H1086 H 0.71576 0.79969 0.73915 0.0
H1087 H 0.81613 0.64772 0.48351 0.0
H1088 H 0.86308 0.20195 0.03357 0.0
H1089 H 0.83834 0.24174 0.05374 0.0
H1090 H 0.77523 0.19043 0.09126 0.0
H1091 H 0.79921 0.15146 0.07026 0.0
H1092 H 0.75335 0.2342 0.07482 0.0
H1093 H 0.83283 0.2109 0.14001 0.0
H1094 H 0.88144 0.20393 0.14801 0.0
H1095 H 0.89656 0.28541 0.11889 0.0
H1096 H 0.84801 0.29274 0.11035 0.0
H1097 H 0.71374 0.28476 0.23672 0.0
H1098 H 0.73443 0.25892 0.19058 0.0
H1099 H 0.76875 0.33138 0.15008 0.0
H1100 H 0.74686 0.35741 0.19512 0.0
H1101 H 0.80588 0.28552 0.15937 0.0
H1102 H 0.722 0.30874 0.10745 0.0
H1103 H 0.67272 0.31267 0.10497 0.0
H1104 H 0.66519 0.22735 0.11492 0.0
H1105 H 0.71444 0.22294 0.11801 0.0
C1106 C 0.84338 0.19948 0.04478 0.0
C1107 C 0.83301 0.17374 0.05051 0.0
C1108 C 0.8294 0.22213 0.05678 0.0
C1109 C 0.80517 0.21914 0.075 0.0
C1110 C 0.79383 0.1935 0.07755 0.0
C1111 C 0.80758 0.17114 0.06548 0.0
C1112 C 0.79286 0.24149 0.09497 0.0
C1113 C 0.76493 0.24544 0.09319 0.0
C1114 C 0.8078 0.25658 0.11885 0.0
C1115 C 0.8369 0.25225 0.12413 0.0
C1116 C 0.84656 0.22727 0.13514 0.0
C1117 C 0.87408 0.22326 0.13978 0.0
C1118 C 0.89209 0.24419 0.13385 0.0
C1119 C 0.88259 0.2692 0.12338 0.0
C1120 C 0.85509 0.27329 0.11863 0.0
C1121 C 0.72527 0.29519 0.21761 0.0
C1122 C 0.72868 0.32309 0.2195 0.0
C1123 C 0.73722 0.28044 0.19141 0.0
C1124 C 0.75312 0.29326 0.16689 0.0
C1125 C 0.75665 0.32109 0.16879 0.0
C1126 C 0.74428 0.33589 0.1946 0.0
C1127 C 0.76646 0.27739 0.13979 0.0
C1128 C 0.79448 0.27471 0.14038 0.0
C1129 C 0.75154 0.26299 0.11543 0.0
C1130 C 0.72192 0.26554 0.1132 0.0
C1131 C 0.70984 0.29083 0.10938 0.0
C1132 C 0.6819 0.29315 0.10782 0.0
C1133 C 0.66583 0.27028 0.10985 0.0
C1134 C 0.67766 0.24505 0.11336 0.0
C1135 C 0.70559 0.24263 0.11498 0.0
H1136 H 0.6442 0.27211 0.10864 0.0
H1137 H 0.91339 0.24105 0.13745 0.0
H1138 H 0.30449 0.34113 0.53822 0.0
H1139 H 0.26661 0.31491 0.56062 0.0
H1140 H 0.31663 0.28696 0.64232 0.0
H1141 H 0.35428 0.31241 0.61976 0.0
H1142 H 0.2846 0.24744 0.62038 0.0
H1143 H 0.2751 0.3418 0.65113 0.0
H1144 H 0.26993 0.38984 0.63799 0.0
H1145 H 0.19781 0.37303 0.58261 0.0
H1146 H 0.20276 0.32482 0.59511 0.0
H1147 H 0.20843 0.22208 0.76563 0.0
H1148 H 0.23863 0.24079 0.72281 0.0
H1149 H 0.17074 0.25828 0.65889 0.0
H1150 H 0.14048 0.23933 0.70202 0.0
H1151 H 0.20595 0.29985 0.66024 0.0
H1152 H 0.21119 0.20622 0.63976 0.0
H1153 H 0.21624 0.1585 0.65447 0.0
H1154 H 0.29615 0.17337 0.6903 0.0
H1155 H 0.29143 0.22129 0.67634 0.0
C1156 C 0.3075 0.32876 0.56038 0.0
C1157 C 0.33234 0.32872 0.57719 0.0
C1158 C 0.28581 0.31401 0.57337 0.0
C1159 C 0.28867 0.29916 0.60343 0.0
C1160 C 0.31387 0.29819 0.61914 0.0
C1161 C 0.33537 0.31287 0.60629 0.0
C1162 C 0.26541 0.2861 0.62043 0.0
C1163 C 0.26739 0.25889 0.62906 0.0
C1164 C 0.24251 0.30078 0.63099 0.0
C1165 C 0.23947 0.32973 0.62369 0.0
C1166 C 0.25825 0.34835 0.63595 0.0
C1167 C 0.25534 0.3756 0.62866 0.0
C1168 C 0.2336 0.38447 0.60938 0.0
C1169 C 0.21467 0.36612 0.59746 0.0
C1170 C 0.21751 0.33884 0.60465 0.0
C1171 C 0.20006 0.22976 0.74232 0.0
C1172 C 0.17225 0.22913 0.73691 0.0
C1173 C 0.21726 0.24042 0.71785 0.0
C1174 C 0.20702 0.25055 0.68731 0.0
C1175 C 0.17911 0.25047 0.68215 0.0
C1176 C 0.16187 0.23975 0.70673 0.0
C1177 C 0.22568 0.26143 0.66123 0.0
C1178 C 0.22281 0.28819 0.65092 0.0
C1179 C 0.24778 0.24631 0.6491 0.0
C1180 C 0.25088 0.21741 0.65715 0.0
C1181 C 0.22978 0.19936 0.65096 0.0
C1182 C 0.23259 0.17227 0.65916 0.0
C1183 C 0.25649 0.16292 0.67335 0.0
C1184 C 0.27765 0.18064 0.6793 0.0
C1185 C 0.27493 0.20777 0.67121 0.0
H1186 H 0.25862 0.14193 0.67969 0.0
H1187 H 0.23138 0.40558 0.60376 0.0
H1188 H 0.62931 0.63395 0.38615 0.0
H1189 H 0.65528 0.6677 0.35599 0.0
H1190 H 0.64954 0.72064 0.44198 0.0
H1191 H 0.62345 0.6866 0.4727 0.0
H1192 H 0.64794 0.74522 0.37034 0.0
H1193 H 0.70075 0.68864 0.44407 0.0
H1194 H 0.7142 0.64501 0.46805 0.0
H1195 H 0.73706 0.6173 0.36927 0.0
H1196 H 0.72339 0.66061 0.34457 0.0
H1197 H 0.75878 0.82058 0.31215 0.0
H1198 H 0.73021 0.79503 0.35113 0.0
H1199 H 0.74213 0.72418 0.29013 0.0
H1200 H 0.77127 0.74982 0.25173 0.0
H1201 H 0.74097 0.71126 0.35541 0.0
H1202 H 0.68667 0.76479 0.2808 0.0
H1203 H 0.67186 0.80682 0.25391 0.0
H1204 H 0.65026 0.83889 0.3511 0.0
H1205 H 0.66534 0.79716 0.37865 0.0
C1206 C 0.63273 0.65313 0.39827 0.0
C1207 C 0.62461 0.65759 0.43188 0.0
C1208 C 0.64765 0.67234 0.38103 0.0
C1209 C 0.6547 0.69635 0.39705 0.0
C1210 C 0.6443 0.70212 0.42931 0.0
C1211 C 0.62928 0.68276 0.44672 0.0
C1212 C 0.67563 0.7134 0.38157 0.0
C1213 C 0.66843 0.73816 0.36765 0.0
C1214 C 0.70217 0.70373 0.3775 0.0
C1215 C 0.71088 0.67783 0.39242 0.0
C1216 C 0.70847 0.67319 0.42741 0.0
C1217 C 0.71616 0.64854 0.44115 0.0
C1218 C 0.72647 0.62843 0.4202 0.0
C1219 C 0.7291 0.63292 0.38547 0.0
C1220 C 0.72143 0.65753 0.37159 0.0
C1221 C 0.75559 0.79942 0.30764 0.0
C1222 C 0.76695 0.78701 0.27914 0.0
C1223 C 0.73921 0.7849 0.32967 0.0
C1224 C 0.73355 0.75781 0.32316 0.0
C1225 C 0.74613 0.74506 0.29561 0.0
C1226 C 0.76276 0.75959 0.27375 0.0
C1227 C 0.71335 0.74319 0.34377 0.0
C1228 C 0.72065 0.7187 0.35856 0.0
C1229 C 0.68686 0.75304 0.34839 0.0
C1230 C 0.67739 0.77797 0.33182 0.0
C1231 C 0.67891 0.78087 0.29646 0.0
C1232 C 0.67046 0.80463 0.2811 0.0
C1233 C 0.66019 0.82554 0.30079 0.0
C1234 C 0.65826 0.82269 0.33588 0.0
C1235 C 0.66675 0.79899 0.35139 0.0
H1236 H 0.65367 0.84393 0.28885 0.0
H1237 H 0.73247 0.6094 0.4309 0.0
H1238 H 0.86988 0.13116 0.88553 0.0
H1239 H 0.84397 0.15974 0.84767 0.0
H1240 H 0.80272 0.19427 0.93328 0.0
H1241 H 0.82914 0.16605 0.97165 0.0
H1242 H 0.76864 0.17741 0.87701 0.0
H1243 H 0.84404 0.2337 0.89979 0.0
H1244 H 0.89204 0.24408 0.90673 0.0
H1245 H 0.90694 0.22157 0.80347 0.0
H1246 H 0.85886 0.21117 0.79588 0.0
H1247 H 0.7074 0.28017 0.77894 0.0
H1248 H 0.73333 0.25727 0.8232 0.0
H1249 H 0.78655 0.22519 0.74689 0.0
H1250 H 0.76069 0.24852 0.70284 0.0
H1251 H 0.81411 0.24317 0.80222 0.0
H1252 H 0.73773 0.18703 0.7799 0.0
H1253 H 0.68955 0.17688 0.77395 0.0
H1254 H 0.67633 0.1982 0.87795 0.0
H1255 H 0.72439 0.20892 0.88438 0.0
C1256 C 0.85542 0.14489 0.89641 0.0
C1257 C 0.8517 0.14643 0.93162 0.0
C1258 C 0.84063 0.16121 0.87472 0.0
C1259 C 0.82156 0.17916 0.88774 0.0
C1260 C 0.81739 0.18051 0.92282 0.0
C1261 C 0.83253 0.16444 0.94465 0.0
C1262 C 0.8061 0.19637 0.86433 0.0
C1263 C 0.77842 0.19217 0.86108 0.0
C1264 C 0.81906 0.21515 0.84316 0.0
C1265 C 0.84791 0.22154 0.84733 0.0
C1266 C 0.85758 0.23085 0.8786 0.0
C1267 C 0.88478 0.23679 0.88263 0.0
C1268 C 0.90255 0.23343 0.85557 0.0
C1269 C 0.89313 0.22421 0.82438 0.0
C1270 C 0.86588 0.21839 0.82016 0.0
C1271 C 0.72476 0.26832 0.7719 0.0
C1272 C 0.73212 0.26576 0.73779 0.0
C1273 C 0.73946 0.2552 0.79701 0.0
C1274 C 0.7617 0.23928 0.78829 0.0
C1275 C 0.76944 0.23732 0.75416 0.0
C1276 C 0.75468 0.25043 0.72908 0.0
C1277 C 0.77653 0.22415 0.81461 0.0
C1278 C 0.80418 0.22864 0.81833 0.0
C1279 C 0.76348 0.20565 0.83626 0.0
C1280 C 0.73461 0.19906 0.83251 0.0
C1281 C 0.72451 0.18977 0.80143 0.0
C1282 C 0.69723 0.18388 0.79798 0.0
C1283 C 0.67988 0.18696 0.82553 0.0
C1284 C 0.68979 0.19587 0.85662 0.0
C1285 C 0.71705 0.20185 0.86018 0.0
H1286 H 0.65876 0.18238 0.82281 0.0
H1287 H 0.92362 0.23805 0.85878 0.0
H1288 H 0.34581 0.29437 0.50679 0.0
H1289 H 0.31492 0.25688 0.49535 0.0
H1290 H 0.27002 0.30731 0.4271 0.0
H1291 H 0.30054 0.34424 0.43838 0.0
H1292 H 0.23715 0.27195 0.45992 0.0
H1293 H 0.32429 0.27162 0.39867 0.0
H1294 H 0.37376 0.2689 0.39799 0.0
H1295 H 0.37046 0.19406 0.45138 0.0
H1296 H 0.32094 0.19655 0.45264 0.0
H1297 H 0.20237 0.22789 0.30007 0.0
H1298 H 0.22134 0.24737 0.35159 0.0
H1299 H 0.24449 0.16854 0.38562 0.0
H1300 H 0.22488 0.14902 0.33406 0.0
H1301 H 0.28551 0.20477 0.38995 0.0
H1302 H 0.19594 0.19979 0.42805 0.0
H1303 H 0.14672 0.20386 0.42466 0.0
H1304 H 0.15372 0.28912 0.4135 0.0
H1305 H 0.20301 0.28556 0.41624 0.0
C1306 C 0.32881 0.29747 0.4902 0.0
C1307 C 0.32558 0.32188 0.47305 0.0
C1308 C 0.31124 0.27615 0.48368 0.0
C1309 C 0.29036 0.27926 0.46008 0.0
C1310 C 0.28591 0.30444 0.44544 0.0
C1311 C 0.30347 0.32548 0.45166 0.0
C1312 C 0.27575 0.25606 0.44578 0.0
C1313 C 0.2476 0.25693 0.44501 0.0
C1314 C 0.28941 0.236 0.42713 0.0
C1315 C 0.31905 0.23441 0.4261 0.0
C1316 C 0.33417 0.25467 0.41039 0.0
C1317 C 0.36218 0.25317 0.40989 0.0
C1318 C 0.37525 0.23136 0.42472 0.0
C1319 C 0.36032 0.21097 0.43998 0.0
C1320 C 0.33229 0.21241 0.44061 0.0
C1321 C 0.21111 0.21478 0.31887 0.0
C1322 C 0.21222 0.18708 0.31334 0.0
C1323 C 0.22187 0.22582 0.34826 0.0
C1324 C 0.23392 0.20932 0.3727 0.0
C1325 C 0.23511 0.18156 0.36719 0.0
C1326 C 0.22414 0.17049 0.33778 0.0
C1327 C 0.24695 0.22172 0.4025 0.0
C1328 C 0.27479 0.21879 0.40608 0.0
C1329 C 0.23296 0.23997 0.42355 0.0
C1330 C 0.20325 0.24238 0.42235 0.0
C1331 C 0.18701 0.2194 0.42472 0.0
C1332 C 0.15908 0.22162 0.42291 0.0
C1333 C 0.1471 0.24673 0.41888 0.0
C1334 C 0.16303 0.26969 0.41669 0.0
C1335 C 0.19098 0.26758 0.41844 0.0
H1336 H 0.12547 0.2484 0.41745 0.0
H1337 H 0.39694 0.23023 0.42432 0.0
H1338 H 0.13388 0.87742 0.88076 0.0
H1339 H 0.16267 0.85265 0.8415 0.0
H1340 H 0.18136 0.79581 0.92021 0.0
H1341 H 0.1531 0.8208 0.95975 0.0
H1342 H 0.2254 0.80906 0.88732 0.0
H1343 H 0.13689 0.78145 0.85542 0.0
H1344 H 0.08985 0.78736 0.83754 0.0
H1345 H 0.11617 0.82666 0.74677 0.0
H1346 H 0.16334 0.82143 0.76438 0.0
H1347 H 0.2837 0.70943 0.78123 0.0
H1348 H 0.25323 0.73303 0.8201 0.0
H1349 H 0.23952 0.79357 0.74418 0.0
H1350 H 0.26977 0.76963 0.70524 0.0
H1351 H 0.19275 0.7779 0.77549 0.0
H1352 H 0.28121 0.80587 0.80825 0.0
H1353 H 0.32816 0.79929 0.82597 0.0
H1354 H 0.30153 0.75839 0.91546 0.0
H1355 H 0.25439 0.76435 0.89799 0.0
C1356 C 0.14407 0.85961 0.88969 0.0
C1357 C 0.14115 0.85106 0.92338 0.0
C1358 C 0.16044 0.84539 0.86717 0.0
C1359 C 0.17395 0.82213 0.87774 0.0
C1360 C 0.17115 0.81366 0.91143 0.0
C1361 C 0.15493 0.82796 0.93401 0.0
C1362 C 0.19135 0.80689 0.8539 0.0
C1363 C 0.21811 0.80192 0.86308 0.0
C1364 C 0.18206 0.79803 0.82193 0.0
C1365 C 0.15367 0.80125 0.81137 0.0
C1366 C 0.13265 0.79156 0.83179 0.0
C1367 C 0.10596 0.79476 0.82168 0.0
C1368 C 0.10006 0.80739 0.79105 0.0
C1369 C 0.12079 0.81689 0.7705 0.0
C1370 C 0.1475 0.81381 0.78052 0.0
C1371 C 0.27393 0.72765 0.77292 0.0
C1372 C 0.27892 0.73783 0.74043 0.0
C1373 C 0.25672 0.7412 0.79509 0.0
C1374 C 0.24428 0.7652 0.78513 0.0
C1375 C 0.24892 0.77512 0.75239 0.0
C1376 C 0.26623 0.7616 0.73028 0.0
C1377 C 0.22669 0.78012 0.80899 0.0
C1378 C 0.19994 0.78502 0.79979 0.0
C1379 C 0.23593 0.78882 0.841 0.0
C1380 C 0.26427 0.78531 0.85162 0.0
C1381 C 0.28536 0.79527 0.83156 0.0
C1382 C 0.31201 0.79169 0.84158 0.0
C1383 C 0.31783 0.77837 0.87177 0.0
C1384 C 0.297 0.76867 0.89205 0.0
C1385 C 0.27031 0.77215 0.8821 0.0
H1386 H 0.33848 0.77562 0.8795 0.0
H1387 H 0.07944 0.80974 0.78314 0.0
loop_
_geom_bond_atom_site_label_1
_geom_bond_atom_site_label_2
_geom_bond_distance
_geom_bond_site_symmetry_2
_ccdc_geom_bond_type
Zn0 O6 1.920 . S
Zn0 O12 1.898 . S
Zn0 O15 1.905 . S
Zn1 O9 1.905 . S
Zn1 O10 1.898 . S
Zn1 O18 1.920 . S
Zn2 O5 2.084 . S
Zn2 O8 2.110 1_554 S
Zn2 O11 2.116 1_554 S
Zn2 O13 2.124 . S
Zn2 O14 2.118 . S
Zn2 O17 2.077 1_554 S
C3 O8 1.166 . S
C3 O9 1.182 . S
C4 O10 1.167 . S
C4 O11 1.299 . S
O5 Zn2 2.084 . S
O5 C19 1.305 . S
O6 Zn0 1.920 . S
O6 C19 1.234 . S
C7 O12 1.167 . S
C7 O13 1.299 . S
O8 Zn2 2.110 1_556 S
O8 C3 1.166 . S
O9 Zn1 1.905 . S
O9 C3 1.182 . S
O10 Zn1 1.898 . S
O10 C4 1.167 . S
O11 Zn2 2.116 1_556 S
O11 C4 1.299 . S
O12 Zn0 1.898 . S
O12 C7 1.167 . S
O13 Zn2 2.124 . S
O13 C7 1.299 . S
O14 Zn2 2.118 . S
O14 C16 1.166 . S
O15 Zn0 1.905 . S
O15 C16 1.182 . S
C16 O14 1.166 . S
C16 O15 1.182 . S
O17 Zn2 2.077 1_556 S
O17 C20 1.305 . S
O18 Zn1 1.920 . S
O18 C20 1.234 . S
C19 O5 1.305 . S
C19 O6 1.234 . S
C20 O17 1.305 . S
C20 O18 1.234 . S
Zn21 O27 1.920 . S
Zn21 O33 1.898 . S
Zn21 O36 1.905 . S
Zn22 O30 1.905 . S
Zn22 O31 1.898 . S
Zn22 O39 1.920 . S
Zn23 O26 2.080 . S
Zn23 O29 2.114 . S
Zn23 O32 2.120 . S
Zn23 O34 2.120 . S
Zn23 O35 2.114 . S
Zn23 O38 2.080 . S
C24 O29 1.166 . S
C24 O30 1.182 . S
C25 O31 1.167 . S
C25 O32 1.299 . S
O26 Zn23 2.080 . S
O26 C40 1.305 . S
O27 Zn21 1.920 . S
O27 C40 1.234 . S
C28 O33 1.167 . S
C28 O34 1.299 . S
O29 Zn23 2.114 . S
O29 C24 1.166 . S
O30 Zn22 1.905 . S
O30 C24 1.182 . S
O31 Zn22 1.898 . S
O31 C25 1.167 . S
O32 Zn23 2.120 . S
O32 C25 1.299 . S
O33 Zn21 1.898 . S
O33 C28 1.167 . S
O34 Zn23 2.120 . S
O34 C28 1.299 . S
O35 Zn23 2.114 . S
O35 C37 1.166 . S
O36 Zn21 1.905 . S
O36 C37 1.182 . S
C37 O35 1.166 . S
C37 O36 1.182 . S
O38 Zn23 2.080 . S
O38 C41 1.305 . S
O39 Zn22 1.920 . S
O39 C41 1.234 . S
C40 O26 1.305 . S
C40 O27 1.234 . S
C41 O38 1.305 . S
C41 O39 1.234 . S
Zn42 O48 1.920 . S
Zn42 O54 1.898 . S
Zn42 O57 1.905 . S
Zn43 O51 1.905 . S
Zn43 O52 1.898 . S
Zn43 O60 1.920 . S
Zn44 O47 2.076 1_554 S
Zn44 O50 2.118 . S
Zn44 O53 2.125 . S
Zn44 O55 2.115 1_554 S
Zn44 O56 2.109 1_554 S
Zn44 O59 2.085 . S
C45 O50 1.166 . S
C45 O51 1.182 . S
C46 O52 1.167 . S
C46 O53 1.299 . S
O47 Zn44 2.076 1_556 S
O47 C61 1.305 . S
O48 Zn42 1.920 . S
O48 C61 1.234 . S
C49 O54 1.167 . S
C49 O55 1.299 . S
O50 Zn44 2.118 . S
O50 C45 1.166 . S
O51 Zn43 1.905 . S
O51 C45 1.182 . S
O52 Zn43 1.898 . S
O52 C46 1.167 . S
O53 Zn44 2.125 . S
O53 C46 1.299 . S
O54 Zn42 1.898 . S
O54 C49 1.167 . S
O55 Zn44 2.115 1_556 S
O55 C49 1.299 . S
O56 Zn44 2.109 1_556 S
O56 C58 1.166 . S
O57 Zn42 1.905 . S
O57 C58 1.182 . S
C58 O56 1.166 . S
C58 O57 1.182 . S
O59 Zn44 2.085 . S
O59 C62 1.305 . S
O60 Zn43 1.920 . S
O60 C62 1.234 . S
C61 O47 1.305 . S
C61 O48 1.234 . S
C62 O59 1.305 . S
C62 O60 1.234 . S
Zn63 O69 1.920 . S
Zn63 O75 1.898 . S
Zn63 O78 1.905 . S
Zn64 O72 1.905 . S
Zn64 O73 1.898 . S
Zn64 O81 1.920 . S
Zn65 O68 2.080 . S
Zn65 O71 2.114 . S
Zn65 O74 2.120 . S
Zn65 O76 2.120 . S
Zn65 O77 2.114 . S
Zn65 O80 2.080 . S
C66 O71 1.166 . S
C66 O72 1.182 . S
C67 O73 1.167 . S
C67 O74 1.299 . S
O68 Zn65 2.080 . S
O68 C82 1.305 . S
O69 Zn63 1.920 . S
O69 C82 1.234 . S
C70 O75 1.167 . S
C70 O76 1.299 . S
O71 Zn65 2.114 . S
O71 C66 1.166 . S
O72 Zn64 1.905 . S
O72 C66 1.182 . S
O73 Zn64 1.898 . S
O73 C67 1.167 . S
O74 Zn65 2.120 . S
O74 C67 1.299 . S
O75 Zn63 1.898 . S
O75 C70 1.167 . S
O76 Zn65 2.120 . S
O76 C70 1.299 . S
O77 Zn65 2.114 . S
O77 C79 1.166 . S
O78 Zn63 1.905 . S
O78 C79 1.182 . S
C79 O77 1.166 . S
C79 O78 1.182 . S
O80 Zn65 2.080 . S
O80 C83 1.305 . S
O81 Zn64 1.920 . S
O81 C83 1.234 . S
C82 O68 1.305 . S
C82 O69 1.234 . S
C83 O80 1.305 . S
C83 O81 1.234 . S
C84 N85 1.317 . S
C84 N86 1.348 . S
C84 C87 1.485 . S
N85 C84 1.317 . S
N85 N89 1.370 . S
N86 C84 1.348 . S
N86 C88 1.346 . S
C87 C84 1.485 . S
C87 H91 0.960 . S
C87 H92 0.961 . S
C87 H93 0.960 . S
C88 N86 1.346 . S
C88 N89 1.307 . S
C88 C90 1.486 . S
N89 N85 1.370 . S
N89 C88 1.307 . S
C90 C88 1.486 . S
C90 H94 0.960 . S
C90 H95 0.960 . S
C90 H96 0.959 . S
H91 C87 0.960 . S
H92 C87 0.961 . S
H93 C87 0.960 . S
H94 C90 0.960 . S
H95 C90 0.960 . S
H96 C90 0.959 . S
C97 N98 1.317 . S
C97 N99 1.348 . S
C97 C100 1.485 . S
N98 C97 1.317 . S
N98 N102 1.370 . S
N99 C97 1.348 . S
N99 C101 1.346 . S
C100 C97 1.485 . S
C100 H104 0.960 . S
C100 H105 0.961 . S
C100 H106 0.960 . S
C101 N99 1.346 . S
C101 N102 1.307 . S
C101 C103 1.486 . S
N102 N98 1.370 . S
N102 C101 1.307 . S
C103 C101 1.486 . S
C103 H107 0.960 . S
C103 H108 0.960 . S
C103 H109 0.959 . S
H104 C100 0.960 . S
H105 C100 0.961 . S
H106 C100 0.960 . S
H107 C103 0.960 . S
H108 C103 0.960 . S
H109 C103 0.959 . S
C110 N111 1.317 . S
C110 N112 1.348 . S
C110 C113 1.485 . S
N111 C110 1.317 . S
N111 N115 1.370 . S
N112 C110 1.348 . S
N112 C114 1.346 . S
C113 C110 1.485 . S
C113 H117 0.960 . S
C113 H118 0.961 . S
C113 H119 0.960 . S
C114 N112 1.346 . S
C114 N115 1.307 . S
C114 C116 1.486 . S
N115 N111 1.370 . S
N115 C114 1.307 . S
C116 C114 1.486 . S
C116 H120 0.960 . S
C116 H121 0.960 . S
C116 H122 0.959 . S
H117 C113 0.960 . S
H118 C113 0.961 . S
H119 C113 0.960 . S
H120 C116 0.960 . S
H121 C116 0.960 . S
H122 C116 0.959 . S
C123 N124 1.317 . S
C123 N125 1.348 . S
C123 C126 1.485 . S
N124 C123 1.317 . S
N124 N128 1.370 . S
N125 C123 1.348 . S
N125 C127 1.346 . S
C126 C123 1.485 . S
C126 H130 0.960 . S
C126 H131 0.961 . S
C126 H132 0.960 . S
C127 N125 1.346 . S
C127 N128 1.307 . S
C127 C129 1.486 . S
N128 N124 1.370 . S
N128 C127 1.307 . S
C129 C127 1.486 . S
C129 H133 0.960 . S
C129 H134 0.960 . S
C129 H135 0.959 . S
H130 C126 0.960 . S
H131 C126 0.961 . S
H132 C126 0.960 . S
H133 C129 0.960 . S
H134 C129 0.960 . S
H135 C129 0.959 . S
C136 N137 1.317 . S
C136 N138 1.348 . S
C136 C139 1.485 . S
N137 C136 1.317 . S
N137 N141 1.370 . S
N138 C136 1.348 . S
N138 C140 1.346 . S
C139 C136 1.485 . S
C139 H143 0.960 . S
C139 H144 0.961 . S
C139 H145 0.960 . S
C140 N138 1.346 . S
C140 N141 1.307 . S
C140 C142 1.486 . S
N141 N137 1.370 . S
N141 C140 1.307 . S
C142 C140 1.486 . S
C142 H146 0.960 . S
C142 H147 0.960 . S
C142 H148 0.959 . S
H143 C139 0.960 . S
H144 C139 0.961 . S
H145 C139 0.960 . S
H146 C142 0.960 . S
H147 C142 0.960 . S
H148 C142 0.959 . S
C149 N150 1.317 . S
C149 N151 1.348 . S
C149 C152 1.485 . S
N150 C149 1.317 . S
N150 N154 1.370 . S
N151 C149 1.348 . S
N151 C153 1.346 . S
C152 C149 1.485 . S
C152 H156 0.960 . S
C152 H157 0.961 . S
C152 H158 0.960 . S
C153 N151 1.346 . S
C153 N154 1.307 . S
C153 C155 1.486 . S
N154 N150 1.370 . S
N154 C153 1.307 . S
C155 C153 1.486 . S
C155 H159 0.960 . S
C155 H160 0.960 . S
C155 H161 0.959 . S
H156 C152 0.960 . S
H157 C152 0.961 . S
H158 C152 0.960 . S
H159 C155 0.960 . S
H160 C155 0.960 . S
H161 C155 0.959 . S
C162 N163 1.317 . S
C162 N164 1.348 . S
C162 C165 1.485 . S
N163 C162 1.317 . S
N163 N167 1.370 . S
N164 C162 1.348 . S
N164 C166 1.346 . S
C165 C162 1.485 . S
C165 H169 0.960 . S
C165 H170 0.961 . S
C165 H171 0.960 . S
C166 N164 1.346 . S
C166 N167 1.307 . S
C166 C168 1.486 . S
N167 N163 1.370 . S
N167 C166 1.307 . S
C168 C166 1.486 . S
C168 H172 0.960 . S
C168 H173 0.960 . S
C168 H174 0.959 . S
H169 C165 0.960 . S
H170 C165 0.961 . S
H171 C165 0.960 . S
H172 C168 0.960 . S
H173 C168 0.960 . S
H174 C168 0.959 . S
C175 N176 1.317 . S
C175 N177 1.348 . S
C175 C178 1.485 . S
N176 C175 1.317 . S
N176 N180 1.370 . S
N177 C175 1.348 . S
N177 C179 1.346 . S
C178 C175 1.485 . S
C178 H182 0.960 . S
C178 H183 0.961 . S
C178 H184 0.960 . S
C179 N177 1.346 . S
C179 N180 1.307 . S
C179 C181 1.486 . S
N180 N176 1.370 . S
N180 C179 1.307 . S
C181 C179 1.486 . S
C181 H185 0.960 . S
C181 H186 0.960 . S
C181 H187 0.959 . S
H182 C178 0.960 . S
H183 C178 0.961 . S
H184 C178 0.960 . S
H185 C181 0.960 . S
H186 C181 0.960 . S
H187 C181 0.959 . S
H188 C206 0.951 . S
H189 C208 0.951 . S
H190 C210 0.950 . S
H191 C211 0.950 . S
H192 C213 0.950 . S
H193 C216 0.950 . S
H194 C217 0.932 1_556 S
H195 C219 0.950 . S
H196 C220 0.950 . S
H197 C221 0.951 . S
H198 C223 0.951 . S
H199 C225 0.950 . S
H200 C226 0.950 . S
H201 C228 0.950 . S
H202 C231 0.950 . S
H203 C232 0.950 . S
H204 C234 0.950 . S
H205 C235 0.950 . S
C206 H188 0.951 . S
C206 C207 1.366 . S
C206 C208 1.388 . S
C207 C206 1.366 . S
C207 C211 1.385 . S
C208 H189 0.951 . S
C208 C206 1.388 . S
C208 C209 1.366 . S
C209 C208 1.366 . S
C209 C210 1.414 . S
C209 C212 1.499 . S
C210 H190 0.950 . S
C210 C209 1.414 . S
C210 C211 1.374 . S
C211 H191 0.950 . S
C211 C207 1.385 . S
C211 C210 1.374 . S
C212 C209 1.499 . S
C212 C213 1.373 . S
C212 C214 1.389 1_565 S
C213 H192 0.950 . S
C213 C212 1.373 . S
C213 C229 1.377 1_565 S
C214 C212 1.389 1_545 S
C214 C215 1.524 . S
C214 C228 1.377 . S
C215 C214 1.524 . S
C215 C216 1.397 . S
C215 C220 1.363 . S
C216 H193 0.950 . S
C216 C215 1.397 . S
C216 C217 1.334 . S
C217 H194 0.932 1_554 S
C217 C216 1.334 . S
C217 C218 1.287 . S
C218 C217 1.287 . S
C218 C219 1.524 . S
C218 H237 0.913 . S
C219 H195 0.950 . S
C219 C218 1.524 . S
C219 C220 1.415 . S
C220 H196 0.950 . S
C220 C215 1.363 . S
C220 C219 1.415 . S
C221 H197 0.951 . S
C221 C222 1.366 . S
C221 C223 1.388 . S
C222 C221 1.366 . S
C222 C226 1.385 . S
C223 H198 0.951 . S
C223 C221 1.388 . S
C223 C224 1.366 . S
C224 C223 1.366 . S
C224 C225 1.414 . S
C224 C227 1.499 . S
C225 H199 0.950 . S
C225 C224 1.414 . S
C225 C226 1.374 . S
C226 H200 0.950 . S
C226 C222 1.385 . S
C226 C225 1.374 . S
C227 C224 1.499 . S
C227 C228 1.373 . S
C227 C229 1.389 . S
C228 H201 0.950 . S
C228 C214 1.377 . S
C228 C227 1.373 . S
C229 C213 1.377 1_545 S
C229 C227 1.389 . S
C229 C230 1.524 . S
C230 C229 1.524 . S
C230 C231 1.397 . S
C230 C235 1.363 1_545 S
C231 H202 0.950 . S
C231 C230 1.397 . S
C231 C232 1.334 . S
C232 H203 0.950 . S
C232 C231 1.334 . S
C232 C233 1.287 1_545 S
C233 C232 1.287 1_565 S
C233 C234 1.524 . S
C233 H236 0.999 . S
C234 H204 0.950 . S
C234 C233 1.524 . S
C234 C235 1.415 . S
C235 H205 0.950 . S
C235 C230 1.363 1_565 S
C235 C234 1.415 . S
H236 C233 0.999 . S
H237 C218 0.913 . S
H238 C256 0.951 . S
H239 C258 0.951 . S
H240 C260 0.950 . S
H241 C261 0.950 . S
H242 C263 0.950 . S
H243 C266 0.950 . S
H244 C267 0.950 . S
H245 C269 0.950 . S
H246 C270 0.950 . S
H247 C271 0.951 . S
H248 C273 0.951 . S
H249 C275 0.950 . S
H250 C276 0.950 . S
H251 C278 0.950 . S
H252 C281 0.950 . S
H253 C282 0.950 . S
H254 C284 0.950 . S
H255 C285 0.950 . S
C256 H238 0.951 . S
C256 C257 1.366 . S
C256 C258 1.388 . S
C257 C256 1.366 . S
C257 C261 1.385 . S
C258 H239 0.951 . S
C258 C256 1.388 . S
C258 C259 1.366 . S
C259 C258 1.366 . S
C259 C260 1.414 . S
C259 C262 1.499 . S
C260 H240 0.950 . S
C260 C259 1.414 . S
C260 C261 1.374 . S
C261 H241 0.950 . S
C261 C257 1.385 . S
C261 C260 1.374 . S
C262 C259 1.499 . S
C262 C263 1.373 . S
C262 C264 1.389 . S
C263 H242 0.950 . S
C263 C262 1.373 . S
C263 C279 1.377 . S
C264 C262 1.389 . S
C264 C265 1.524 . S
C264 C278 1.377 . S
C265 C264 1.524 . S
C265 C266 1.397 . S
C265 C270 1.363 . S
C266 H243 0.950 . S
C266 C265 1.397 . S
C266 C267 1.334 . S
C267 H244 0.950 . S
C267 C266 1.334 . S
C267 C268 1.287 . S
C268 C267 1.287 . S
C268 C269 1.524 . S
C268 H287 0.913 . S
C269 H245 0.950 . S
C269 C268 1.524 . S
C269 C270 1.415 . S
C270 H246 0.950 . S
C270 C265 1.363 . S
C270 C269 1.415 . S
C271 H247 0.951 . S
C271 C272 1.366 . S
C271 C273 1.388 . S
C272 C271 1.366 . S
C272 C276 1.385 . S
C273 H248 0.951 . S
C273 C271 1.388 . S
C273 C274 1.366 . S
C274 C273 1.366 . S
C274 C275 1.414 . S
C274 C277 1.499 . S
C275 H249 0.950 . S
C275 C274 1.414 . S
C275 C276 1.374 . S
C276 H250 0.950 . S
C276 C272 1.385 . S
C276 C275 1.374 . S
C277 C274 1.499 . S
C277 C278 1.373 . S
C277 C279 1.389 . S
C278 H251 0.950 . S
C278 C264 1.377 . S
C278 C277 1.373 . S
C279 C263 1.377 . S
C279 C277 1.389 . S
C279 C280 1.524 . S
C280 C279 1.524 . S
C280 C281 1.397 . S
C280 C285 1.363 . S
C281 H252 0.950 . S
C281 C280 1.397 . S
C281 C282 1.334 . S
C282 H253 0.950 . S
C282 C281 1.334 . S
C282 C283 1.287 . S
C283 C282 1.287 . S
C283 C284 1.524 . S
C283 H286 0.999 . S
C284 H254 0.950 . S
C284 C283 1.524 . S
C284 C285 1.415 . S
C285 H255 0.950 . S
C285 C280 1.363 . S
C285 C284 1.415 . S
H286 C283 0.999 . S
H287 C268 0.913 . S
H288 C306 0.951 . S
H289 C308 0.951 . S
H290 C310 0.950 . S
H291 C311 0.950 . S
H292 C313 0.950 . S
H293 C316 0.950 . S
H294 C317 0.950 . S
H295 C319 0.950 1_556 S
H296 C320 0.950 . S
H297 C321 0.951 . S
H298 C323 0.951 . S
H299 C325 0.950 . S
H300 C326 0.950 . S
H301 C328 0.950 . S
H302 C331 0.950 . S
H303 C332 0.950 . S
H304 C334 0.950 . S
H305 C335 0.950 . S
C306 H288 0.951 . S
C306 C307 1.366 . S
C306 C308 1.388 . S
C307 C306 1.366 . S
C307 C311 1.385 . S
C308 H289 0.951 . S
C308 C306 1.388 . S
C308 C309 1.366 . S
C309 C308 1.366 . S
C309 C310 1.414 . S
C309 C312 1.499 . S
C310 H290 0.950 . S
C310 C309 1.414 . S
C310 C311 1.374 . S
C311 H291 0.950 . S
C311 C307 1.385 . S
C311 C310 1.374 . S
C312 C309 1.499 . S
C312 C313 1.373 . S
C312 C314 1.389 1_545 S
C313 H292 0.950 . S
C313 C312 1.373 . S
C313 C329 1.377 1_545 S
C314 C312 1.389 1_565 S
C314 C315 1.524 . S
C314 C328 1.377 . S
C315 C314 1.524 . S
C315 C316 1.397 1_565 S
C315 C320 1.363 . S
C316 H293 0.950 . S
C316 C315 1.397 1_545 S
C316 C317 1.334 . S
C317 H294 0.950 . S
C317 C316 1.334 . S
C317 C318 1.287 1_545 S
C318 C317 1.287 1_565 S
C318 C319 1.524 . S
C318 H337 0.913 1_554 S
C319 H295 0.950 1_554 S
C319 C318 1.524 . S
C319 C320 1.415 . S
C320 H296 0.950 . S
C320 C315 1.363 . S
C320 C319 1.415 . S
C321 H297 0.951 . S
C321 C322 1.366 . S
C321 C323 1.388 . S
C322 C321 1.366 . S
C322 C326 1.385 . S
C323 H298 0.951 . S
C323 C321 1.388 . S
C323 C324 1.366 . S
C324 C323 1.366 . S
C324 C325 1.414 . S
C324 C327 1.499 . S
C325 H299 0.950 . S
C325 C324 1.414 . S
C325 C326 1.374 . S
C326 H300 0.950 . S
C326 C322 1.385 . S
C326 C325 1.374 . S
C327 C324 1.499 . S
C327 C328 1.373 . S
C327 C329 1.389 . S
C328 H301 0.950 . S
C328 C314 1.377 . S
C328 C327 1.373 . S
C329 C313 1.377 1_565 S
C329 C327 1.389 . S
C329 C330 1.524 . S
C330 C329 1.524 . S
C330 C331 1.397 . S
C330 C335 1.363 1_565 S
C331 H302 0.950 . S
C331 C330 1.397 . S
C331 C332 1.334 . S
C332 H303 0.950 . S
C332 C331 1.334 . S
C332 C333 1.287 . S
C333 C332 1.287 . S
C333 C334 1.524 1_565 S
C333 H336 0.999 . S
C334 H304 0.950 . S
C334 C333 1.524 1_545 S
C334 C335 1.415 . S
C335 H305 0.950 . S
C335 C330 1.363 1_545 S
C335 C334 1.415 . S
H336 C333 0.999 . S
H337 C318 0.913 1_556 S
H338 C356 0.951 . S
H339 C358 0.951 . S
H340 C360 0.950 . S
H341 C361 0.950 . S
H342 C363 0.950 . S
H343 C366 0.950 . S
H344 C367 0.950 . S
H345 C369 0.950 . S
H346 C370 0.950 . S
H347 C371 0.951 . S
H348 C373 0.951 . S
H349 C375 0.950 . S
H350 C376 0.950 . S
H351 C378 0.950 . S
H352 C381 0.950 . S
H353 C382 0.950 . S
H354 C384 0.950 . S
H355 C385 0.950 . S
C356 H338 0.951 . S
C356 C357 1.366 . S
C356 C358 1.388 . S
C357 C356 1.366 . S
C357 C361 1.385 . S
C358 H339 0.951 . S
C358 C356 1.388 . S
C358 C359 1.366 . S
C359 C358 1.366 . S
C359 C360 1.414 . S
C359 C362 1.499 . S
C360 H340 0.950 . S
C360 C359 1.414 . S
C360 C361 1.374 . S
C361 H341 0.950 . S
C361 C357 1.385 . S
C361 C360 1.374 . S
C362 C359 1.499 . S
C362 C363 1.373 . S
C362 C364 1.389 . S
C363 H342 0.950 . S
C363 C362 1.373 . S
C363 C379 1.377 . S
C364 C362 1.389 . S
C364 C365 1.524 . S
C364 C378 1.377 . S
C365 C364 1.524 . S
C365 C366 1.397 . S
C365 C370 1.363 . S
C366 H343 0.950 . S
C366 C365 1.397 . S
C366 C367 1.334 . S
C367 H344 0.950 . S
C367 C366 1.334 . S
C367 C368 1.287 . S
C368 C367 1.287 . S
C368 C369 1.524 . S
C368 H387 0.913 . S
C369 H345 0.950 . S
C369 C368 1.524 . S
C369 C370 1.415 . S
C370 H346 0.950 . S
C370 C365 1.363 . S
C370 C369 1.415 . S
C371 H347 0.951 . S
C371 C372 1.366 . S
C371 C373 1.388 . S
C372 C371 1.366 . S
C372 C376 1.385 . S
C373 H348 0.951 . S
C373 C371 1.388 . S
C373 C374 1.366 . S
C374 C373 1.366 . S
C374 C375 1.414 . S
C374 C377 1.499 . S
C375 H349 0.950 . S
C375 C374 1.414 . S
C375 C376 1.374 . S
C376 H350 0.950 . S
C376 C372 1.385 . S
C376 C375 1.374 . S
C377 C374 1.499 . S
C377 C378 1.373 . S
C377 C379 1.389 . S
C378 H351 0.950 . S
C378 C364 1.377 . S
C378 C377 1.373 . S
C379 C363 1.377 . S
C379 C377 1.389 . S
C379 C380 1.524 . S
C380 C379 1.524 . S
C380 C381 1.397 . S
C380 C385 1.363 . S
C381 H352 0.950 . S
C381 C380 1.397 . S
C381 C382 1.334 . S
C382 H353 0.950 . S
C382 C381 1.334 . S
C382 C383 1.287 . S
C383 C382 1.287 . S
C383 C384 1.524 . S
C383 H386 0.999 . S
C384 H354 0.950 . S
C384 C383 1.524 . S
C384 C385 1.415 . S
C385 H355 0.950 . S
C385 C380 1.363 . S
C385 C384 1.415 . S
H386 C383 0.999 . S
H387 C368 0.913 . S
H388 C406 0.951 . S
H389 C408 0.951 . S
H390 C410 0.950 . S
H391 C411 0.950 . S
H392 C413 0.950 . S
H393 C416 0.950 . S
H394 C417 0.950 . S
H395 C419 0.950 . S
H396 C420 0.950 . S
H397 C421 0.951 . S
H398 C423 0.951 . S
H399 C425 0.950 . S
H400 C426 0.950 . S
H401 C428 0.950 . S
H402 C431 0.950 . S
H403 C432 0.950 . S
H404 C434 0.950 . S
H405 C435 0.950 . S
C406 H388 0.951 . S
C406 C407 1.366 . S
C406 C408 1.388 . S
C407 C406 1.366 . S
C407 C411 1.385 . S
C408 H389 0.951 . S
C408 C406 1.388 . S
C408 C409 1.366 . S
C409 C408 1.366 . S
C409 C410 1.414 . S
C409 C412 1.499 . S
C410 H390 0.950 . S
C410 C409 1.414 . S
C410 C411 1.374 . S
C411 H391 0.950 . S
C411 C407 1.385 . S
C411 C410 1.374 . S
C412 C409 1.499 . S
C412 C413 1.373 . S
C412 C414 1.389 . S
C413 H392 0.950 . S
C413 C412 1.373 . S
C413 C429 1.377 . S
C414 C412 1.389 . S
C414 C415 1.524 . S
C414 C428 1.377 . S
C415 C414 1.524 . S
C415 C416 1.397 . S
C415 C420 1.363 . S
C416 H393 0.950 . S
C416 C415 1.397 . S
C416 C417 1.334 . S
C417 H394 0.950 . S
C417 C416 1.334 . S
C417 C418 1.287 . S
C418 C417 1.287 . S
C418 C419 1.524 . S
C418 H437 0.913 . S
C419 H395 0.950 . S
C419 C418 1.524 . S
C419 C420 1.415 . S
C420 H396 0.950 . S
C420 C415 1.363 . S
C420 C419 1.415 . S
C421 H397 0.951 . S
C421 C422 1.366 . S
C421 C423 1.388 . S
C422 C421 1.366 . S
C422 C426 1.385 . S
C423 H398 0.951 . S
C423 C421 1.388 . S
C423 C424 1.366 . S
C424 C423 1.366 . S
C424 C425 1.414 . S
C424 C427 1.499 . S
C425 H399 0.950 . S
C425 C424 1.414 . S
C425 C426 1.374 . S
C426 H400 0.950 . S
C426 C422 1.385 . S
C426 C425 1.374 . S
C427 C424 1.499 . S
C427 C428 1.373 . S
C427 C429 1.389 . S
C428 H401 0.950 . S
C428 C414 1.377 . S
C428 C427 1.373 . S
C429 C413 1.377 . S
C429 C427 1.389 . S
C429 C430 1.524 . S
C430 C429 1.524 . S
C430 C431 1.397 . S
C430 C435 1.363 . S
C431 H402 0.950 . S
C431 C430 1.397 . S
C431 C432 1.334 . S
C432 H403 0.950 . S
C432 C431 1.334 . S
C432 C433 1.287 . S
C433 C432 1.287 . S
C433 C434 1.524 . S
C433 H436 0.999 . S
C434 H404 0.950 . S
C434 C433 1.524 . S
C434 C435 1.415 . S
C435 H405 0.950 . S
C435 C430 1.363 . S
C435 C434 1.415 . S
H436 C433 0.999 . S
H437 C418 0.913 . S
H438 C456 0.951 . S
H439 C458 0.951 . S
H440 C460 0.950 . S
H441 C461 0.950 . S
H442 C463 0.950 . S
H443 C466 0.950 . S
H444 C467 0.950 . S
H445 C469 0.950 . S
H446 C470 0.950 . S
H447 C471 0.951 . S
H448 C473 0.951 . S
H449 C475 0.950 . S
H450 C476 0.950 . S
H451 C478 0.950 . S
H452 C481 0.950 . S
H453 C482 0.950 . S
H454 C484 0.950 . S
H455 C485 0.950 . S
C456 H438 0.951 . S
C456 C457 1.366 . S
C456 C458 1.388 . S
C457 C456 1.366 . S
C457 C461 1.385 . S
C458 H439 0.951 . S
C458 C456 1.388 . S
C458 C459 1.366 . S
C459 C458 1.366 . S
C459 C460 1.414 . S
C459 C462 1.499 . S
C460 H440 0.950 . S
C460 C459 1.414 . S
C460 C461 1.374 . S
C461 H441 0.950 . S
C461 C457 1.385 . S
C461 C460 1.374 . S
C462 C459 1.499 . S
C462 C463 1.373 1_655 S
C462 C464 1.389 . S
C463 H442 0.950 . S
C463 C462 1.373 1_455 S
C463 C479 1.377 . S
C464 C462 1.389 . S
C464 C465 1.524 . S
C464 C478 1.377 1_655 S
C465 C464 1.524 . S
C465 C466 1.397 . S
C465 C470 1.363 . S
C466 H443 0.950 . S
C466 C465 1.397 . S
C466 C467 1.334 . S
C467 H444 0.950 . S
C467 C466 1.334 . S
C467 C468 1.287 . S
C468 C467 1.287 . S
C468 C469 1.524 . S
C468 H487 0.913 . S
C469 H445 0.950 . S
C469 C468 1.524 . S
C469 C470 1.415 . S
C470 H446 0.950 . S
C470 C465 1.363 . S
C470 C469 1.415 . S
C471 H447 0.951 . S
C471 C472 1.366 . S
C471 C473 1.388 . S
C472 C471 1.366 . S
C472 C476 1.385 . S
C473 H448 0.951 . S
C473 C471 1.388 . S
C473 C474 1.366 . S
C474 C473 1.366 . S
C474 C475 1.414 . S
C474 C477 1.499 . S
C475 H449 0.950 . S
C475 C474 1.414 . S
C475 C476 1.374 . S
C476 H450 0.950 . S
C476 C472 1.385 . S
C476 C475 1.374 . S
C477 C474 1.499 . S
C477 C478 1.373 . S
C477 C479 1.389 . S
C478 H451 0.950 . S
C478 C464 1.377 1_455 S
C478 C477 1.373 . S
C479 C463 1.377 . S
C479 C477 1.389 . S
C479 C480 1.524 . S
C480 C479 1.524 . S
C480 C481 1.397 . S
C480 C485 1.363 . S
C481 H452 0.950 . S
C481 C480 1.397 . S
C481 C482 1.334 . S
C482 H453 0.950 . S
C482 C481 1.334 . S
C482 C483 1.287 . S
C483 C482 1.287 . S
C483 C484 1.524 . S
C483 H486 0.999 . S
C484 H454 0.950 . S
C484 C483 1.524 . S
C484 C485 1.415 . S
C485 H455 0.950 . S
C485 C480 1.363 . S
C485 C484 1.415 . S
H486 C483 0.999 . S
H487 C468 0.913 . S
H488 C506 0.951 . S
H489 C508 0.951 . S
H490 C510 0.950 . S
H491 C511 0.950 . S
H492 C513 0.950 . S
H493 C516 0.950 . S
H494 C517 0.950 . S
H495 C519 0.950 . S
H496 C520 0.950 . S
H497 C521 0.951 . S
H498 C523 0.951 . S
H499 C525 0.950 . S
H500 C526 0.950 . S
H501 C528 0.950 . S
H502 C531 0.950 . S
H503 C532 0.950 . S
H504 C534 0.950 . S
H505 C535 0.950 . S
C506 H488 0.951 . S
C506 C507 1.366 . S
C506 C508 1.388 . S
C507 C506 1.366 . S
C507 C511 1.385 . S
C508 H489 0.951 . S
C508 C506 1.388 . S
C508 C509 1.366 . S
C509 C508 1.366 . S
C509 C510 1.414 . S
C509 C512 1.499 . S
C510 H490 0.950 . S
C510 C509 1.414 . S
C510 C511 1.374 . S
C511 H491 0.950 . S
C511 C507 1.385 . S
C511 C510 1.374 . S
C512 C509 1.499 . S
C512 C513 1.373 . S
C512 C514 1.389 . S
C513 H492 0.950 . S
C513 C512 1.373 . S
C513 C529 1.377 . S
C514 C512 1.389 . S
C514 C515 1.524 . S
C514 C528 1.377 . S
C515 C514 1.524 . S
C515 C516 1.397 . S
C515 C520 1.363 . S
C516 H493 0.950 . S
C516 C515 1.397 . S
C516 C517 1.334 . S
C517 H494 0.950 . S
C517 C516 1.334 . S
C517 C518 1.287 . S
C518 C517 1.287 . S
C518 C519 1.524 . S
C518 H537 0.913 . S
C519 H495 0.950 . S
C519 C518 1.524 . S
C519 C520 1.415 . S
C520 H496 0.950 . S
C520 C515 1.363 . S
C520 C519 1.415 . S
C521 H497 0.951 . S
C521 C522 1.366 . S
C521 C523 1.388 . S
C522 C521 1.366 . S
C522 C526 1.385 . S
C523 H498 0.951 . S
C523 C521 1.388 . S
C523 C524 1.366 . S
C524 C523 1.366 . S
C524 C525 1.414 . S
C524 C527 1.499 . S
C525 H499 0.950 . S
C525 C524 1.414 . S
C525 C526 1.374 . S
C526 H500 0.950 . S
C526 C522 1.385 . S
C526 C525 1.374 . S
C527 C524 1.499 . S
C527 C528 1.373 . S
C527 C529 1.389 . S
C528 H501 0.950 . S
C528 C514 1.377 . S
C528 C527 1.373 . S
C529 C513 1.377 . S
C529 C527 1.389 . S
C529 C530 1.524 . S
C530 C529 1.524 . S
C530 C531 1.397 . S
C530 C535 1.363 . S
C531 H502 0.950 . S
C531 C530 1.397 . S
C531 C532 1.334 . S
C532 H503 0.950 . S
C532 C531 1.334 . S
C532 C533 1.287 . S
C533 C532 1.287 . S
C533 C534 1.524 . S
C533 H536 0.999 . S
C534 H504 0.950 . S
C534 C533 1.524 . S
C534 C535 1.415 . S
C535 H505 0.950 . S
C535 C530 1.363 . S
C535 C534 1.415 . S
H536 C533 0.999 . S
H537 C518 0.913 . S
H538 C556 0.951 . S
H539 C558 0.951 . S
H540 C560 0.950 . S
H541 C561 0.950 . S
H542 C563 0.950 . S
H543 C566 0.950 . S
H544 C567 0.950 . S
H545 C569 0.950 . S
H546 C570 0.950 . S
H547 C571 0.951 . S
H548 C573 0.951 . S
H549 C575 0.950 . S
H550 C576 0.950 . S
H551 C578 0.950 . S
H552 C581 0.950 . S
H553 C582 0.950 . S
H554 C584 0.952 1_455 S
H555 C585 0.950 . S
C556 H538 0.951 . S
C556 C557 1.366 . S
C556 C558 1.388 . S
C557 C556 1.366 . S
C557 C561 1.385 . S
C558 H539 0.951 . S
C558 C556 1.388 . S
C558 C559 1.366 . S
C559 C558 1.366 . S
C559 C560 1.414 . S
C559 C562 1.499 . S
C560 H540 0.950 . S
C560 C559 1.414 . S
C560 C561 1.374 . S
C561 H541 0.950 . S
C561 C557 1.385 . S
C561 C560 1.374 . S
C562 C559 1.499 . S
C562 C563 1.373 . S
C562 C564 1.389 1_455 S
C563 H542 0.950 . S
C563 C562 1.373 . S
C563 C579 1.377 1_455 S
C564 C562 1.389 1_655 S
C564 C565 1.524 . S
C564 C578 1.377 . S
C565 C564 1.524 . S
C565 C566 1.397 1_655 S
C565 C570 1.363 . S
C566 H543 0.950 . S
C566 C565 1.397 1_455 S
C566 C567 1.334 . S
C567 H544 0.950 . S
C567 C566 1.334 . S
C567 C568 1.303 . S
C568 C567 1.303 . S
C568 C569 1.505 1_455 S
C568 H587 0.917 . S
C569 H545 0.950 . S
C569 C568 1.505 1_655 S
C569 C570 1.415 . S
C570 H546 0.950 . S
C570 C565 1.363 . S
C570 C569 1.415 . S
C571 H547 0.951 . S
C571 C572 1.366 . S
C571 C573 1.388 . S
C572 C571 1.366 . S
C572 C576 1.385 . S
C573 H548 0.951 . S
C573 C571 1.388 . S
C573 C574 1.366 . S
C574 C573 1.366 . S
C574 C575 1.414 . S
C574 C577 1.499 . S
C575 H549 0.950 . S
C575 C574 1.414 . S
C575 C576 1.374 . S
C576 H550 0.950 . S
C576 C572 1.385 . S
C576 C575 1.374 . S
C577 C574 1.499 . S
C577 C578 1.373 . S
C577 C579 1.389 . S
C578 H551 0.950 . S
C578 C564 1.377 . S
C578 C577 1.373 . S
C579 C563 1.377 1_655 S
C579 C577 1.389 . S
C579 C580 1.524 . S
C580 C579 1.524 . S
C580 C581 1.397 . S
C580 C585 1.363 1_655 S
C581 H552 0.950 . S
C581 C580 1.397 . S
C581 C582 1.334 . S
C582 H553 0.950 . S
C582 C581 1.334 . S
C582 C583 1.287 . S
C583 C582 1.287 . S
C583 C584 1.521 . S
C583 H586 0.999 . S
C584 H554 0.952 1_655 S
C584 C583 1.521 . S
C584 C585 1.415 1_655 S
C585 H555 0.950 . S
C585 C580 1.363 1_455 S
C585 C584 1.415 1_455 S
H586 C583 0.999 . S
H587 C568 0.917 . S
H588 C606 0.951 . S
H589 C608 0.951 . S
H590 C610 0.950 . S
H591 C611 0.950 . S
H592 C613 0.950 . S
H593 C616 0.950 . S
H594 C617 0.950 1_554 S
H595 C619 0.950 . S
H596 C620 0.950 . S
H597 C621 0.951 . S
H598 C623 0.951 . S
H599 C625 0.950 . S
H600 C626 0.950 . S
H601 C628 0.950 . S
H602 C631 0.950 . S
H603 C632 0.950 . S
H604 C634 0.950 . S
H605 C635 0.950 . S
C606 H588 0.951 . S
C606 C607 1.366 . S
C606 C608 1.388 . S
C607 C606 1.366 . S
C607 C611 1.385 . S
C608 H589 0.951 . S
C608 C606 1.388 . S
C608 C609 1.350 1_545 S
C609 C608 1.350 1_565 S
C609 C610 1.397 1_565 S
C609 C612 1.531 . S
C610 H590 0.950 . S
C610 C609 1.397 1_545 S
C610 C611 1.374 . S
C611 H591 0.950 . S
C611 C607 1.385 . S
C611 C610 1.374 . S
C612 C609 1.531 . S
C612 C613 1.373 . S
C612 C614 1.389 . S
C613 H592 0.950 . S
C613 C612 1.373 . S
C613 C629 1.377 . S
C614 C612 1.389 . S
C614 C615 1.524 . S
C614 C628 1.377 . S
C615 C614 1.524 . S
C615 C616 1.397 . S
C615 C620 1.363 . S
C616 H593 0.950 . S
C616 C615 1.397 . S
C616 C617 1.334 . S
C617 H594 0.950 1_556 S
C617 C616 1.334 . S
C617 C618 1.285 1_556 S
C618 C617 1.285 1_554 S
C618 C619 1.516 1_554 S
C618 H637 0.924 . S
C619 H595 0.950 . S
C619 C618 1.516 1_556 S
C619 C620 1.415 . S
C620 H596 0.950 . S
C620 C615 1.363 . S
C620 C619 1.415 . S
C621 H597 0.951 . S
C621 C622 1.366 . S
C621 C623 1.388 . S
C622 C621 1.366 . S
C622 C626 1.385 . S
C623 H598 0.951 . S
C623 C621 1.388 . S
C623 C624 1.366 . S
C624 C623 1.366 . S
C624 C625 1.414 . S
C624 C627 1.499 . S
C625 H599 0.950 . S
C625 C624 1.414 . S
C625 C626 1.374 . S
C626 H600 0.950 . S
C626 C622 1.385 . S
C626 C625 1.374 . S
C627 C624 1.499 . S
C627 C628 1.373 . S
C627 C629 1.389 . S
C628 H601 0.950 . S
C628 C614 1.377 . S
C628 C627 1.373 . S
C629 C613 1.377 . S
C629 C627 1.389 . S
C629 C630 1.524 . S
C630 C629 1.524 . S
C630 C631 1.397 . S
C630 C635 1.363 . S
C631 H602 0.950 . S
C631 C630 1.397 . S
C631 C632 1.334 . S
C632 H603 0.950 . S
C632 C631 1.334 . S
C632 C633 1.287 . S
C633 C632 1.287 . S
C633 C634 1.524 . S
C633 H636 0.999 . S
C634 H604 0.950 . S
C634 C633 1.524 . S
C634 C635 1.415 . S
C635 H605 0.950 . S
C635 C630 1.363 . S
C635 C634 1.415 . S
H636 C633 0.999 . S
H637 C618 0.924 . S
H638 C656 0.951 . S
H639 C658 0.951 . S
H640 C660 0.950 . S
H641 C661 0.950 . S
H642 C663 0.950 . S
H643 C666 0.950 . S
H644 C667 0.950 . S
H645 C669 0.950 . S
H646 C670 0.950 . S
H647 C671 0.951 . S
H648 C673 0.951 . S
H649 C675 0.950 . S
H650 C676 0.950 . S
H651 C678 0.950 . S
H652 C681 0.950 . S
H653 C682 0.950 . S
H654 C684 0.950 . S
H655 C685 0.950 . S
C656 H638 0.951 . S
C656 C657 1.366 . S
C656 C658 1.388 . S
C657 C656 1.366 . S
C657 C661 1.385 . S
C658 H639 0.951 . S
C658 C656 1.388 . S
C658 C659 1.366 . S
C659 C658 1.366 . S
C659 C660 1.414 . S
C659 C662 1.499 . S
C660 H640 0.950 . S
C660 C659 1.414 . S
C660 C661 1.374 . S
C661 H641 0.950 . S
C661 C657 1.385 . S
C661 C660 1.374 . S
C662 C659 1.499 . S
C662 C663 1.373 . S
C662 C664 1.389 . S
C663 H642 0.950 . S
C663 C662 1.373 . S
C663 C679 1.377 . S
C664 C662 1.389 . S
C664 C665 1.524 . S
C664 C678 1.377 . S
C665 C664 1.524 . S
C665 C666 1.397 . S
C665 C670 1.363 . S
C666 H643 0.950 . S
C666 C665 1.397 . S
C666 C667 1.334 . S
C667 H644 0.950 . S
C667 C666 1.334 . S
C667 C668 1.287 . S
C668 C667 1.287 . S
C668 C669 1.524 . S
C668 H687 0.913 . S
C669 H645 0.950 . S
C669 C668 1.524 . S
C669 C670 1.415 . S
C670 H646 0.950 . S
C670 C665 1.363 . S
C670 C669 1.415 . S
C671 H647 0.951 . S
C671 C672 1.366 . S
C671 C673 1.388 . S
C672 C671 1.366 . S
C672 C676 1.385 . S
C673 H648 0.951 . S
C673 C671 1.388 . S
C673 C674 1.366 . S
C674 C673 1.366 . S
C674 C675 1.414 . S
C674 C677 1.499 . S
C675 H649 0.950 . S
C675 C674 1.414 . S
C675 C676 1.374 . S
C676 H650 0.950 . S
C676 C672 1.385 . S
C676 C675 1.374 . S
C677 C674 1.499 . S
C677 C678 1.373 . S
C677 C679 1.389 . S
C678 H651 0.950 . S
C678 C664 1.377 . S
C678 C677 1.373 . S
C679 C663 1.377 . S
C679 C677 1.389 . S
C679 C680 1.524 . S
C680 C679 1.524 . S
C680 C681 1.397 . S
C680 C685 1.363 . S
C681 H652 0.950 . S
C681 C680 1.397 . S
C681 C682 1.334 . S
C682 H653 0.950 . S
C682 C681 1.334 . S
C682 C683 1.287 . S
C683 C682 1.287 . S
C683 C684 1.524 . S
C683 H686 0.999 . S
C684 H654 0.950 . S
C684 C683 1.524 . S
C684 C685 1.415 . S
C685 H655 0.950 . S
C685 C680 1.363 . S
C685 C684 1.415 . S
H686 C683 0.999 . S
H687 C668 0.913 . S
H688 C706 0.951 . S
H689 C708 0.951 . S
H690 C710 0.967 . S
H691 C711 0.950 . S
H692 C713 0.950 . S
H693 C716 0.950 . S
H694 C717 0.950 1_554 S
H695 C719 0.950 . S
H696 C720 0.950 . S
H697 C721 0.951 . S
H698 C723 0.951 . S
H699 C725 0.950 . S
H700 C726 0.950 . S
H701 C728 0.950 . S
H702 C731 0.950 . S
H703 C732 0.950 . S
H704 C734 0.950 . S
H705 C735 0.950 . S
C706 H688 0.951 . S
C706 C707 1.366 . S
C706 C708 1.388 . S
C707 C706 1.366 . S
C707 C711 1.385 . S
C708 H689 0.951 . S
C708 C706 1.388 . S
C708 C709 1.366 1_565 S
C709 C708 1.366 1_545 S
C709 C710 1.414 1_545 S
C709 C712 1.499 . S
C710 H690 0.967 . S
C710 C709 1.414 1_565 S
C710 C711 1.374 . S
C711 H691 0.950 . S
C711 C707 1.385 . S
C711 C710 1.374 . S
C712 C709 1.499 . S
C712 C713 1.373 . S
C712 C714 1.389 . S
C713 H692 0.950 . S
C713 C712 1.373 . S
C713 C729 1.377 . S
C714 C712 1.389 . S
C714 C715 1.524 . S
C714 C728 1.377 . S
C715 C714 1.524 . S
C715 C716 1.397 . S
C715 C720 1.363 . S
C716 H693 0.950 . S
C716 C715 1.397 . S
C716 C717 1.334 . S
C717 H694 0.950 1_556 S
C717 C716 1.334 . S
C717 C718 1.287 . S
C718 C717 1.287 . S
C718 C719 1.524 . S
C718 H737 0.913 1_556 S
C719 H695 0.950 . S
C719 C718 1.524 . S
C719 C720 1.415 . S
C720 H696 0.950 . S
C720 C715 1.363 . S
C720 C719 1.415 . S
C721 H697 0.951 . S
C721 C722 1.366 . S
C721 C723 1.388 . S
C722 C721 1.366 . S
C722 C726 1.385 . S
C723 H698 0.951 . S
C723 C721 1.388 . S
C723 C724 1.366 . S
C724 C723 1.366 . S
C724 C725 1.414 . S
C724 C727 1.499 . S
C725 H699 0.950 . S
C725 C724 1.414 . S
C725 C726 1.374 . S
C726 H700 0.950 . S
C726 C722 1.385 . S
C726 C725 1.374 . S
C727 C724 1.499 . S
C727 C728 1.373 . S
C727 C729 1.389 . S
C728 H701 0.950 . S
C728 C714 1.377 . S
C728 C727 1.373 . S
C729 C713 1.377 . S
C729 C727 1.389 . S
C729 C730 1.524 . S
C730 C729 1.524 . S
C730 C731 1.397 . S
C730 C735 1.363 . S
C731 H702 0.950 . S
C731 C730 1.397 . S
C731 C732 1.334 . S
C732 H703 0.950 . S
C732 C731 1.334 . S
C732 C733 1.287 . S
C733 C732 1.287 . S
C733 C734 1.524 . S
C733 H736 0.999 . S
C734 H704 0.950 . S
C734 C733 1.524 . S
C734 C735 1.415 . S
C735 H705 0.950 . S
C735 C730 1.363 . S
C735 C734 1.415 . S
H736 C733 0.999 . S
H737 C718 0.913 1_554 S
H738 C756 0.951 . S
H739 C758 0.951 . S
H740 C760 0.950 . S
H741 C761 0.950 . S
H742 C763 0.950 . S
H743 C766 0.950 . S
H744 C767 0.950 . S
H745 C769 0.950 . S
H746 C770 0.950 . S
H747 C771 0.951 . S
H748 C773 0.951 . S
H749 C775 0.950 . S
H750 C776 0.950 . S
H751 C778 0.950 . S
H752 C781 0.950 . S
H753 C782 0.950 . S
H754 C784 0.950 . S
H755 C785 0.950 . S
C756 H738 0.951 . S
C756 C757 1.366 . S
C756 C758 1.388 . S
C757 C756 1.366 . S
C757 C761 1.385 . S
C758 H739 0.951 . S
C758 C756 1.388 . S
C758 C759 1.366 . S
C759 C758 1.366 . S
C759 C760 1.414 . S
C759 C762 1.499 . S
C760 H740 0.950 . S
C760 C759 1.414 . S
C760 C761 1.374 . S
C761 H741 0.950 . S
C761 C757 1.385 . S
C761 C760 1.374 . S
C762 C759 1.499 . S
C762 C763 1.373 . S
C762 C764 1.389 . S
C763 H742 0.950 . S
C763 C762 1.373 . S
C763 C779 1.377 . S
C764 C762 1.389 . S
C764 C765 1.524 . S
C764 C778 1.377 . S
C765 C764 1.524 . S
C765 C766 1.397 . S
C765 C770 1.363 . S
C766 H743 0.950 . S
C766 C765 1.397 . S
C766 C767 1.334 . S
C767 H744 0.950 . S
C767 C766 1.334 . S
C767 C768 1.287 . S
C768 C767 1.287 . S
C768 C769 1.524 . S
C768 H787 0.913 . S
C769 H745 0.950 . S
C769 C768 1.524 . S
C769 C770 1.415 . S
C770 H746 0.950 . S
C770 C765 1.363 . S
C770 C769 1.415 . S
C771 H747 0.951 . S
C771 C772 1.366 . S
C771 C773 1.388 . S
C772 C771 1.366 . S
C772 C776 1.385 . S
C773 H748 0.951 . S
C773 C771 1.388 . S
C773 C774 1.366 . S
C774 C773 1.366 . S
C774 C775 1.414 . S
C774 C777 1.499 . S
C775 H749 0.950 . S
C775 C774 1.414 . S
C775 C776 1.374 . S
C776 H750 0.950 . S
C776 C772 1.385 . S
C776 C775 1.374 . S
C777 C774 1.499 . S
C777 C778 1.373 . S
C777 C779 1.389 . S
C778 H751 0.950 . S
C778 C764 1.377 . S
C778 C777 1.373 . S
C779 C763 1.377 . S
C779 C777 1.389 . S
C779 C780 1.524 . S
C780 C779 1.524 . S
C780 C781 1.397 . S
C780 C785 1.363 . S
C781 H752 0.950 . S
C781 C780 1.397 . S
C781 C782 1.334 . S
C782 H753 0.950 . S
C782 C781 1.334 . S
C782 C783 1.287 . S
C783 C782 1.287 . S
C783 C784 1.524 . S
C783 H786 0.999 . S
C784 H754 0.950 . S
C784 C783 1.524 . S
C784 C785 1.415 . S
C785 H755 0.950 . S
C785 C780 1.363 . S
C785 C784 1.415 . S
H786 C783 0.999 . S
H787 C768 0.913 . S
H788 C806 0.951 . S
H789 C808 0.951 . S
H790 C810 0.950 . S
H791 C811 0.950 . S
H792 C813 0.950 . S
H793 C816 0.950 . S
H794 C817 0.950 . S
H795 C819 0.950 . S
H796 C820 0.950 . S
H797 C821 0.951 . S
H798 C823 0.951 . S
H799 C825 0.950 . S
H800 C826 0.950 . S
H801 C828 0.950 . S
H802 C831 0.950 . S
H803 C832 0.950 . S
H804 C834 0.950 . S
H805 C835 0.950 . S
C806 H788 0.951 . S
C806 C807 1.366 . S
C806 C808 1.388 . S
C807 C806 1.366 . S
C807 C811 1.385 . S
C808 H789 0.951 . S
C808 C806 1.388 . S
C808 C809 1.366 . S
C809 C808 1.366 . S
C809 C810 1.414 . S
C809 C812 1.499 . S
C810 H790 0.950 . S
C810 C809 1.414 . S
C810 C811 1.374 . S
C811 H791 0.950 . S
C811 C807 1.385 . S
C811 C810 1.374 . S
C812 C809 1.499 . S
C812 C813 1.373 . S
C812 C814 1.389 . S
C813 H792 0.950 . S
C813 C812 1.373 . S
C813 C829 1.377 . S
C814 C812 1.389 . S
C814 C815 1.524 . S
C814 C828 1.377 . S
C815 C814 1.524 . S
C815 C816 1.397 . S
C815 C820 1.363 . S
C816 H793 0.950 . S
C816 C815 1.397 . S
C816 C817 1.334 . S
C817 H794 0.950 . S
C817 C816 1.334 . S
C817 C818 1.287 . S
C818 C817 1.287 . S
C818 C819 1.524 . S
C818 H837 0.913 . S
C819 H795 0.950 . S
C819 C818 1.524 . S
C819 C820 1.415 . S
C820 H796 0.950 . S
C820 C815 1.363 . S
C820 C819 1.415 . S
C821 H797 0.951 . S
C821 C822 1.366 . S
C821 C823 1.388 . S
C822 C821 1.366 . S
C822 C826 1.385 . S
C823 H798 0.951 . S
C823 C821 1.388 . S
C823 C824 1.366 . S
C824 C823 1.366 . S
C824 C825 1.414 . S
C824 C827 1.499 . S
C825 H799 0.950 . S
C825 C824 1.414 . S
C825 C826 1.374 . S
C826 H800 0.950 . S
C826 C822 1.385 . S
C826 C825 1.374 . S
C827 C824 1.499 . S
C827 C828 1.373 . S
C827 C829 1.389 . S
C828 H801 0.950 . S
C828 C814 1.377 . S
C828 C827 1.373 . S
C829 C813 1.377 . S
C829 C827 1.389 . S
C829 C830 1.524 . S
C830 C829 1.524 . S
C830 C831 1.397 . S
C830 C835 1.363 . S
C831 H802 0.950 . S
C831 C830 1.397 . S
C831 C832 1.334 . S
C832 H803 0.950 . S
C832 C831 1.334 . S
C832 C833 1.287 . S
C833 C832 1.287 . S
C833 C834 1.524 . S
C833 H836 0.999 . S
C834 H804 0.950 . S
C834 C833 1.524 . S
C834 C835 1.415 . S
C835 H805 0.950 . S
C835 C830 1.363 . S
C835 C834 1.415 . S
H836 C833 0.999 . S
H837 C818 0.913 . S
H838 C856 0.951 . S
H839 C858 0.951 . S
H840 C860 0.950 1_655 S
H841 C861 0.950 . S
H842 C863 0.950 . S
H843 C866 0.950 . S
H844 C867 0.950 . S
H845 C869 0.950 . S
H846 C870 0.950 . S
H847 C871 0.951 . S
H848 C873 0.951 . S
H849 C875 0.950 . S
H850 C876 0.950 . S
H851 C878 0.950 . S
H852 C881 0.950 . S
H853 C882 0.950 . S
H854 C884 0.950 . S
H855 C885 0.950 . S
C856 H838 0.951 . S
C856 C857 1.366 . S
C856 C858 1.388 . S
C857 C856 1.366 . S
C857 C861 1.385 . S
C858 H839 0.951 . S
C858 C856 1.388 . S
C858 C859 1.358 1_455 S
C859 C858 1.358 1_655 S
C859 C860 1.412 1_655 S
C859 C862 1.508 . S
C860 H840 0.950 1_455 S
C860 C859 1.412 1_455 S
C860 C861 1.374 . S
C861 H841 0.950 . S
C861 C857 1.385 . S
C861 C860 1.374 . S
C862 C859 1.508 . S
C862 C863 1.373 . S
C862 C864 1.389 . S
C863 H842 0.950 . S
C863 C862 1.373 . S
C863 C879 1.377 . S
C864 C862 1.389 . S
C864 C865 1.524 . S
C864 C878 1.377 . S
C865 C864 1.524 . S
C865 C866 1.397 1_655 S
C865 C870 1.363 . S
C866 H843 0.950 . S
C866 C865 1.397 1_455 S
C866 C867 1.334 . S
C867 H844 0.950 . S
C867 C866 1.334 . S
C867 C868 1.287 . S
C868 C867 1.287 . S
C868 C869 1.524 . S
C868 H887 0.913 . S
C869 H845 0.950 . S
C869 C868 1.524 . S
C869 C870 1.415 1_455 S
C870 H846 0.950 . S
C870 C865 1.363 . S
C870 C869 1.415 1_655 S
C871 H847 0.951 . S
C871 C872 1.366 . S
C871 C873 1.388 . S
C872 C871 1.366 . S
C872 C876 1.385 . S
C873 H848 0.951 . S
C873 C871 1.388 . S
C873 C874 1.366 . S
C874 C873 1.366 . S
C874 C875 1.414 . S
C874 C877 1.499 . S
C875 H849 0.950 . S
C875 C874 1.414 . S
C875 C876 1.374 . S
C876 H850 0.950 . S
C876 C872 1.385 . S
C876 C875 1.374 . S
C877 C874 1.499 . S
C877 C878 1.373 . S
C877 C879 1.389 . S
C878 H851 0.950 . S
C878 C864 1.377 . S
C878 C877 1.373 . S
C879 C863 1.377 . S
C879 C877 1.389 . S
C879 C880 1.524 . S
C880 C879 1.524 . S
C880 C881 1.397 . S
C880 C885 1.363 . S
C881 H852 0.950 . S
C881 C880 1.397 . S
C881 C882 1.334 . S
C882 H853 0.950 . S
C882 C881 1.334 . S
C882 C883 1.287 . S
C883 C882 1.287 . S
C883 C884 1.524 . S
C883 H886 0.999 . S
C884 H854 0.950 . S
C884 C883 1.524 . S
C884 C885 1.415 . S
C885 H855 0.950 . S
C885 C880 1.363 . S
C885 C884 1.415 . S
H886 C883 0.999 . S
H887 C868 0.913 . S
H888 C906 0.951 . S
H889 C908 0.951 . S
H890 C910 0.950 . S
H891 C911 0.950 . S
H892 C913 0.950 . S
H893 C916 0.950 . S
H894 C917 0.950 . S
H895 C919 0.950 . S
H896 C920 0.950 . S
H897 C921 0.951 . S
H898 C923 0.951 . S
H899 C925 0.950 . S
H900 C926 0.950 . S
H901 C928 0.950 . S
H902 C931 0.950 . S
H903 C932 0.950 . S
H904 C934 0.950 . S
H905 C935 0.950 . S
C906 H888 0.951 . S
C906 C907 1.366 . S
C906 C908 1.388 . S
C907 C906 1.366 . S
C907 C911 1.385 . S
C908 H889 0.951 . S
C908 C906 1.388 . S
C908 C909 1.366 . S
C909 C908 1.366 . S
C909 C910 1.414 . S
C909 C912 1.499 . S
C910 H890 0.950 . S
C910 C909 1.414 . S
C910 C911 1.374 . S
C911 H891 0.950 . S
C911 C907 1.385 . S
C911 C910 1.374 . S
C912 C909 1.499 . S
C912 C913 1.373 . S
C912 C914 1.389 . S
C913 H892 0.950 . S
C913 C912 1.373 . S
C913 C929 1.377 . S
C914 C912 1.389 . S
C914 C915 1.524 . S
C914 C928 1.377 . S
C915 C914 1.524 . S
C915 C916 1.397 . S
C915 C920 1.363 . S
C916 H893 0.950 . S
C916 C915 1.397 . S
C916 C917 1.334 . S
C917 H894 0.950 . S
C917 C916 1.334 . S
C917 C918 1.287 . S
C918 C917 1.287 . S
C918 C919 1.524 . S
C918 H937 0.913 . S
C919 H895 0.950 . S
C919 C918 1.524 . S
C919 C920 1.415 . S
C920 H896 0.950 . S
C920 C915 1.363 . S
C920 C919 1.415 . S
C921 H897 0.951 . S
C921 C922 1.366 . S
C921 C923 1.388 . S
C922 C921 1.366 . S
C922 C926 1.385 . S
C923 H898 0.951 . S
C923 C921 1.388 . S
C923 C924 1.366 . S
C924 C923 1.366 . S
C924 C925 1.414 . S
C924 C927 1.499 . S
C925 H899 0.950 . S
C925 C924 1.414 . S
C925 C926 1.374 . S
C926 H900 0.950 . S
C926 C922 1.385 . S
C926 C925 1.374 . S
C927 C924 1.499 . S
C927 C928 1.373 . S
C927 C929 1.389 . S
C928 H901 0.950 . S
C928 C914 1.377 . S
C928 C927 1.373 . S
C929 C913 1.377 . S
C929 C927 1.389 . S
C929 C930 1.524 . S
C930 C929 1.524 . S
C930 C931 1.397 . S
C930 C935 1.363 . S
C931 H902 0.950 . S
C931 C930 1.397 . S
C931 C932 1.334 . S
C932 H903 0.950 . S
C932 C931 1.334 . S
C932 C933 1.287 . S
C933 C932 1.287 . S
C933 C934 1.524 . S
C933 H936 0.999 . S
C934 H904 0.950 . S
C934 C933 1.524 . S
C934 C935 1.415 . S
C935 H905 0.950 . S
C935 C930 1.363 . S
C935 C934 1.415 . S
H936 C933 0.999 . S
H937 C918 0.913 . S
H938 C956 0.951 . S
H939 C958 0.951 1_455 S
H940 C960 0.950 . S
H941 C961 0.950 . S
H942 C963 0.950 . S
H943 C966 0.950 . S
H944 C967 0.950 . S
H945 C969 0.950 1_556 S
H946 C970 0.950 . S
H947 C971 0.951 . S
H948 C973 0.951 . S
H949 C975 0.950 . S
H950 C976 0.950 . S
H951 C978 0.950 . S
H952 C981 0.950 . S
H953 C982 0.950 . S
H954 C984 0.950 . S
H955 C985 0.950 . S
C956 H938 0.951 . S
C956 C957 1.366 . S
C956 C958 1.388 . S
C957 C956 1.366 . S
C957 C961 1.385 . S
C958 H939 0.951 1_655 S
C958 C956 1.388 . S
C958 C959 1.364 1_655 S
C959 C958 1.364 1_455 S
C959 C960 1.396 1_455 S
C959 C962 1.517 . S
C960 H940 0.950 . S
C960 C959 1.396 1_655 S
C960 C961 1.374 . S
C961 H941 0.950 . S
C961 C957 1.385 . S
C961 C960 1.374 . S
C962 C959 1.517 . S
C962 C963 1.373 . S
C962 C964 1.389 . S
C963 H942 0.950 . S
C963 C962 1.373 . S
C963 C979 1.377 . S
C964 C962 1.389 . S
C964 C965 1.524 . S
C964 C978 1.377 . S
C965 C964 1.524 . S
C965 C966 1.397 . S
C965 C970 1.363 . S
C966 H943 0.950 . S
C966 C965 1.397 . S
C966 C967 1.334 . S
C967 H944 0.950 . S
C967 C966 1.334 . S
C967 C968 1.287 . S
C968 C967 1.287 . S
C968 C969 1.524 . S
C968 H987 0.913 1_554 S
C969 H945 0.950 1_554 S
C969 C968 1.524 . S
C969 C970 1.415 . S
C970 H946 0.950 . S
C970 C965 1.363 . S
C970 C969 1.415 . S
C971 H947 0.951 . S
C971 C972 1.366 . S
C971 C973 1.388 . S
C972 C971 1.366 . S
C972 C976 1.385 . S
C973 H948 0.951 . S
C973 C971 1.388 . S
C973 C974 1.366 . S
C974 C973 1.366 . S
C974 C975 1.414 . S
C974 C977 1.499 . S
C975 H949 0.950 . S
C975 C974 1.414 . S
C975 C976 1.374 . S
C976 H950 0.950 . S
C976 C972 1.385 . S
C976 C975 1.374 . S
C977 C974 1.499 . S
C977 C978 1.373 . S
C977 C979 1.389 . S
C978 H951 0.950 . S
C978 C964 1.377 . S
C978 C977 1.373 . S
C979 C963 1.377 . S
C979 C977 1.389 . S
C979 C980 1.524 . S
C980 C979 1.524 . S
C980 C981 1.397 . S
C980 C985 1.363 . S
C981 H952 0.950 . S
C981 C980 1.397 . S
C981 C982 1.334 . S
C982 H953 0.950 . S
C982 C981 1.334 . S
C982 C983 1.287 . S
C983 C982 1.287 . S
C983 C984 1.524 . S
C983 H986 0.999 . S
C984 H954 0.950 . S
C984 C983 1.524 . S
C984 C985 1.415 . S
C985 H955 0.950 . S
C985 C980 1.363 . S
C985 C984 1.415 . S
H986 C983 0.999 . S
H987 C968 0.913 1_556 S
H988 C1006 0.951 . S
H989 C1008 0.951 . S
H990 C1010 0.950 . S
H991 C1011 0.950 . S
H992 C1013 0.950 . S
H993 C1016 0.950 . S
H994 C1017 0.950 . S
H995 C1019 0.950 . S
H996 C1020 0.950 . S
H997 C1021 0.951 . S
H998 C1023 0.951 . S
H999 C1025 0.950 . S
H1000 C1026 0.950 . S
H1001 C1028 0.950 . S
H1002 C1031 0.950 . S
H1003 C1032 0.950 . S
H1004 C1034 0.950 . S
H1005 C1035 0.950 . S
C1006 H988 0.951 . S
C1006 C1007 1.366 . S
C1006 C1008 1.388 . S
C1007 C1006 1.366 . S
C1007 C1011 1.385 . S
C1008 H989 0.951 . S
C1008 C1006 1.388 . S
C1008 C1009 1.366 . S
C1009 C1008 1.366 . S
C1009 C1010 1.414 . S
C1009 C1012 1.499 . S
C1010 H990 0.950 . S
C1010 C1009 1.414 . S
C1010 C1011 1.374 . S
C1011 H991 0.950 . S
C1011 C1007 1.385 . S
C1011 C1010 1.374 . S
C1012 C1009 1.499 . S
C1012 C1013 1.373 . S
C1012 C1014 1.389 . S
C1013 H992 0.950 . S
C1013 C1012 1.373 . S
C1013 C1029 1.377 . S
C1014 C1012 1.389 . S
C1014 C1015 1.524 . S
C1014 C1028 1.377 . S
C1015 C1014 1.524 . S
C1015 C1016 1.397 . S
C1015 C1020 1.363 . S
C1016 H993 0.950 . S
C1016 C1015 1.397 . S
C1016 C1017 1.334 . S
C1017 H994 0.950 . S
C1017 C1016 1.334 . S
C1017 C1018 1.287 . S
C1018 C1017 1.287 . S
C1018 C1019 1.524 . S
C1018 H1037 0.913 . S
C1019 H995 0.950 . S
C1019 C1018 1.524 . S
C1019 C1020 1.415 . S
C1020 H996 0.950 . S
C1020 C1015 1.363 . S
C1020 C1019 1.415 . S
C1021 H997 0.951 . S
C1021 C1022 1.366 . S
C1021 C1023 1.388 . S
C1022 C1021 1.366 . S
C1022 C1026 1.385 . S
C1023 H998 0.951 . S
C1023 C1021 1.388 . S
C1023 C1024 1.366 . S
C1024 C1023 1.366 . S
C1024 C1025 1.414 . S
C1024 C1027 1.499 . S
C1025 H999 0.950 . S
C1025 C1024 1.414 . S
C1025 C1026 1.374 . S
C1026 H1000 0.950 . S
C1026 C1022 1.385 . S
C1026 C1025 1.374 . S
C1027 C1024 1.499 . S
C1027 C1028 1.373 . S
C1027 C1029 1.389 . S
C1028 H1001 0.950 . S
C1028 C1014 1.377 . S
C1028 C1027 1.373 . S
C1029 C1013 1.377 . S
C1029 C1027 1.389 . S
C1029 C1030 1.524 . S
C1030 C1029 1.524 . S
C1030 C1031 1.397 . S
C1030 C1035 1.363 . S
C1031 H1002 0.950 . S
C1031 C1030 1.397 . S
C1031 C1032 1.334 . S
C1032 H1003 0.950 . S
C1032 C1031 1.334 . S
C1032 C1033 1.287 . S
C1033 C1032 1.287 . S
C1033 C1034 1.524 . S
C1033 H1036 0.999 . S
C1034 H1004 0.950 . S
C1034 C1033 1.524 . S
C1034 C1035 1.415 . S
C1035 H1005 0.950 . S
C1035 C1030 1.363 . S
C1035 C1034 1.415 . S
H1036 C1033 0.999 . S
H1037 C1018 0.913 . S
H1038 C1056 0.951 . S
H1039 C1058 0.951 . S
H1040 C1060 0.950 . S
H1041 C1061 0.950 . S
H1042 C1063 0.950 . S
H1043 C1066 0.950 . S
H1044 C1067 0.950 . S
H1045 C1069 0.950 . S
H1046 C1070 0.950 . S
H1047 C1071 0.951 . S
H1048 C1073 0.951 . S
H1049 C1075 0.950 . S
H1050 C1076 0.950 . S
H1051 C1078 0.950 . S
H1052 C1081 0.950 . S
H1053 C1082 0.950 . S
H1054 C1084 0.950 . S
H1055 C1085 0.950 . S
C1056 H1038 0.951 . S
C1056 C1057 1.366 . S
C1056 C1058 1.388 . S
C1057 C1056 1.366 . S
C1057 C1061 1.385 . S
C1058 H1039 0.951 . S
C1058 C1056 1.388 . S
C1058 C1059 1.366 . S
C1059 C1058 1.366 . S
C1059 C1060 1.414 . S
C1059 C1062 1.499 . S
C1060 H1040 0.950 . S
C1060 C1059 1.414 . S
C1060 C1061 1.374 . S
C1061 H1041 0.950 . S
C1061 C1057 1.385 . S
C1061 C1060 1.374 . S
C1062 C1059 1.499 . S
C1062 C1063 1.373 . S
C1062 C1064 1.389 . S
C1063 H1042 0.950 . S
C1063 C1062 1.373 . S
C1063 C1079 1.377 . S
C1064 C1062 1.389 . S
C1064 C1065 1.524 . S
C1064 C1078 1.377 . S
C1065 C1064 1.524 . S
C1065 C1066 1.397 . S
C1065 C1070 1.363 . S
C1066 H1043 0.950 . S
C1066 C1065 1.397 . S
C1066 C1067 1.334 . S
C1067 H1044 0.950 . S
C1067 C1066 1.334 . S
C1067 C1068 1.287 . S
C1068 C1067 1.287 . S
C1068 C1069 1.524 . S
C1068 H1087 0.913 . S
C1069 H1045 0.950 . S
C1069 C1068 1.524 . S
C1069 C1070 1.415 . S
C1070 H1046 0.950 . S
C1070 C1065 1.363 . S
C1070 C1069 1.415 . S
C1071 H1047 0.951 . S
C1071 C1072 1.366 . S
C1071 C1073 1.388 . S
C1072 C1071 1.366 . S
C1072 C1076 1.385 . S
C1073 H1048 0.951 . S
C1073 C1071 1.388 . S
C1073 C1074 1.366 . S
C1074 C1073 1.366 . S
C1074 C1075 1.414 . S
C1074 C1077 1.499 . S
C1075 H1049 0.950 . S
C1075 C1074 1.414 . S
C1075 C1076 1.374 . S
C1076 H1050 0.950 . S
C1076 C1072 1.385 . S
C1076 C1075 1.374 . S
C1077 C1074 1.499 . S
C1077 C1078 1.373 . S
C1077 C1079 1.389 . S
C1078 H1051 0.950 . S
C1078 C1064 1.377 . S
C1078 C1077 1.373 . S
C1079 C1063 1.377 . S
C1079 C1077 1.389 . S
C1079 C1080 1.524 . S
C1080 C1079 1.524 . S
C1080 C1081 1.397 . S
C1080 C1085 1.363 . S
C1081 H1052 0.950 . S
C1081 C1080 1.397 . S
C1081 C1082 1.334 . S
C1082 H1053 0.950 . S
C1082 C1081 1.334 . S
C1082 C1083 1.287 . S
C1083 C1082 1.287 . S
C1083 C1084 1.524 . S
C1083 H1086 0.999 . S
C1084 H1054 0.950 . S
C1084 C1083 1.524 . S
C1084 C1085 1.415 . S
C1085 H1055 0.950 . S
C1085 C1080 1.363 . S
C1085 C1084 1.415 . S
H1086 C1083 0.999 . S
H1087 C1068 0.913 . S
H1088 C1106 0.951 . S
H1089 C1108 0.951 . S
H1090 C1110 0.950 . S
H1091 C1111 0.950 . S
H1092 C1113 0.950 . S
H1093 C1116 0.950 . S
H1094 C1117 0.950 . S
H1095 C1119 0.950 . S
H1096 C1120 0.950 . S
H1097 C1121 0.951 . S
H1098 C1123 0.951 . S
H1099 C1125 0.950 . S
H1100 C1126 0.950 . S
H1101 C1128 0.950 . S
H1102 C1131 0.950 . S
H1103 C1132 0.950 . S
H1104 C1134 0.950 . S
H1105 C1135 0.950 . S
C1106 H1088 0.951 . S
C1106 C1107 1.366 . S
C1106 C1108 1.388 . S
C1107 C1106 1.366 . S
C1107 C1111 1.385 . S
C1108 H1089 0.951 . S
C1108 C1106 1.388 . S
C1108 C1109 1.366 . S
C1109 C1108 1.366 . S
C1109 C1110 1.414 . S
C1109 C1112 1.499 . S
C1110 H1090 0.950 . S
C1110 C1109 1.414 . S
C1110 C1111 1.374 . S
C1111 H1091 0.950 . S
C1111 C1107 1.385 . S
C1111 C1110 1.374 . S
C1112 C1109 1.499 . S
C1112 C1113 1.373 . S
C1112 C1114 1.389 . S
C1113 H1092 0.950 . S
C1113 C1112 1.373 . S
C1113 C1129 1.377 . S
C1114 C1112 1.389 . S
C1114 C1115 1.524 . S
C1114 C1128 1.377 . S
C1115 C1114 1.524 . S
C1115 C1116 1.397 . S
C1115 C1120 1.363 . S
C1116 H1093 0.950 . S
C1116 C1115 1.397 . S
C1116 C1117 1.334 . S
C1117 H1094 0.950 . S
C1117 C1116 1.334 . S
C1117 C1118 1.287 . S
C1118 C1117 1.287 . S
C1118 C1119 1.524 . S
C1118 H1137 0.913 . S
C1119 H1095 0.950 . S
C1119 C1118 1.524 . S
C1119 C1120 1.415 . S
C1120 H1096 0.950 . S
C1120 C1115 1.363 . S
C1120 C1119 1.415 . S
C1121 H1097 0.951 . S
C1121 C1122 1.366 . S
C1121 C1123 1.388 . S
C1122 C1121 1.366 . S
C1122 C1126 1.385 . S
C1123 H1098 0.951 . S
C1123 C1121 1.388 . S
C1123 C1124 1.366 . S
C1124 C1123 1.366 . S
C1124 C1125 1.414 . S
C1124 C1127 1.499 . S
C1125 H1099 0.950 . S
C1125 C1124 1.414 . S
C1125 C1126 1.374 . S
C1126 H1100 0.950 . S
C1126 C1122 1.385 . S
C1126 C1125 1.374 . S
C1127 C1124 1.499 . S
C1127 C1128 1.373 . S
C1127 C1129 1.389 . S
C1128 H1101 0.950 . S
C1128 C1114 1.377 . S
C1128 C1127 1.373 . S
C1129 C1113 1.377 . S
C1129 C1127 1.389 . S
C1129 C1130 1.524 . S
C1130 C1129 1.524 . S
C1130 C1131 1.397 . S
C1130 C1135 1.363 . S
C1131 H1102 0.950 . S
C1131 C1130 1.397 . S
C1131 C1132 1.334 . S
C1132 H1103 0.950 . S
C1132 C1131 1.334 . S
C1132 C1133 1.287 . S
C1133 C1132 1.287 . S
C1133 C1134 1.524 . S
C1133 H1136 0.999 . S
C1134 H1104 0.950 . S
C1134 C1133 1.524 . S
C1134 C1135 1.415 . S
C1135 H1105 0.950 . S
C1135 C1130 1.363 . S
C1135 C1134 1.415 . S
H1136 C1133 0.999 . S
H1137 C1118 0.913 . S
H1138 C1156 0.951 . S
H1139 C1158 0.951 . S
H1140 C1160 0.950 . S
H1141 C1161 0.950 . S
H1142 C1163 0.950 . S
H1143 C1166 0.950 . S
H1144 C1167 0.950 . S
H1145 C1169 0.950 . S
H1146 C1170 0.950 . S
H1147 C1171 0.951 . S
H1148 C1173 0.951 . S
H1149 C1175 0.950 . S
H1150 C1176 0.950 . S
H1151 C1178 0.950 . S
H1152 C1181 0.950 . S
H1153 C1182 0.950 . S
H1154 C1184 0.950 . S
H1155 C1185 0.950 . S
C1156 H1138 0.951 . S
C1156 C1157 1.366 . S
C1156 C1158 1.388 . S
C1157 C1156 1.366 . S
C1157 C1161 1.385 . S
C1158 H1139 0.951 . S
C1158 C1156 1.388 . S
C1158 C1159 1.366 . S
C1159 C1158 1.366 . S
C1159 C1160 1.414 . S
C1159 C1162 1.499 . S
C1160 H1140 0.950 . S
C1160 C1159 1.414 . S
C1160 C1161 1.374 . S
C1161 H1141 0.950 . S
C1161 C1157 1.385 . S
C1161 C1160 1.374 . S
C1162 C1159 1.499 . S
C1162 C1163 1.373 . S
C1162 C1164 1.389 . S
C1163 H1142 0.950 . S
C1163 C1162 1.373 . S
C1163 C1179 1.377 . S
C1164 C1162 1.389 . S
C1164 C1165 1.524 . S
C1164 C1178 1.377 . S
C1165 C1164 1.524 . S
C1165 C1166 1.397 . S
C1165 C1170 1.363 . S
C1166 H1143 0.950 . S
C1166 C1165 1.397 . S
C1166 C1167 1.334 . S
C1167 H1144 0.950 . S
C1167 C1166 1.334 . S
C1167 C1168 1.287 . S
C1168 C1167 1.287 . S
C1168 C1169 1.524 . S
C1168 H1187 0.913 . S
C1169 H1145 0.950 . S
C1169 C1168 1.524 . S
C1169 C1170 1.415 . S
C1170 H1146 0.950 . S
C1170 C1165 1.363 . S
C1170 C1169 1.415 . S
C1171 H1147 0.951 . S
C1171 C1172 1.366 . S
C1171 C1173 1.388 . S
C1172 C1171 1.366 . S
C1172 C1176 1.385 . S
C1173 H1148 0.951 . S
C1173 C1171 1.388 . S
C1173 C1174 1.366 . S
C1174 C1173 1.366 . S
C1174 C1175 1.414 . S
C1174 C1177 1.499 . S
C1175 H1149 0.950 . S
C1175 C1174 1.414 . S
C1175 C1176 1.374 . S
C1176 H1150 0.950 . S
C1176 C1172 1.385 . S
C1176 C1175 1.374 . S
C1177 C1174 1.499 . S
C1177 C1178 1.373 . S
C1177 C1179 1.389 . S
C1178 H1151 0.950 . S
C1178 C1164 1.377 . S
C1178 C1177 1.373 . S
C1179 C1163 1.377 . S
C1179 C1177 1.389 . S
C1179 C1180 1.524 . S
C1180 C1179 1.524 . S
C1180 C1181 1.397 . S
C1180 C1185 1.363 . S
C1181 H1152 0.950 . S
C1181 C1180 1.397 . S
C1181 C1182 1.334 . S
C1182 H1153 0.950 . S
C1182 C1181 1.334 . S
C1182 C1183 1.287 . S
C1183 C1182 1.287 . S
C1183 C1184 1.524 . S
C1183 H1186 0.999 . S
C1184 H1154 0.950 . S
C1184 C1183 1.524 . S
C1184 C1185 1.415 . S
C1185 H1155 0.950 . S
C1185 C1180 1.363 . S
C1185 C1184 1.415 . S
H1186 C1183 0.999 . S
H1187 C1168 0.913 . S
H1188 C1206 0.951 . S
H1189 C1208 0.951 . S
H1190 C1210 0.950 . S
H1191 C1211 0.950 . S
H1192 C1213 0.950 . S
H1193 C1216 0.950 . S
H1194 C1217 0.950 . S
H1195 C1219 0.950 . S
H1196 C1220 0.950 . S
H1197 C1221 0.951 . S
H1198 C1223 0.951 . S
H1199 C1225 0.950 . S
H1200 C1226 0.950 . S
H1201 C1228 0.950 . S
H1202 C1231 0.950 . S
H1203 C1232 0.950 . S
H1204 C1234 0.950 . S
H1205 C1235 0.950 . S
C1206 H1188 0.951 . S
C1206 C1207 1.366 . S
C1206 C1208 1.388 . S
C1207 C1206 1.366 . S
C1207 C1211 1.385 . S
C1208 H1189 0.951 . S
C1208 C1206 1.388 . S
C1208 C1209 1.366 . S
C1209 C1208 1.366 . S
C1209 C1210 1.414 . S
C1209 C1212 1.499 . S
C1210 H1190 0.950 . S
C1210 C1209 1.414 . S
C1210 C1211 1.374 . S
C1211 H1191 0.950 . S
C1211 C1207 1.385 . S
C1211 C1210 1.374 . S
C1212 C1209 1.499 . S
C1212 C1213 1.373 . S
C1212 C1214 1.389 . S
C1213 H1192 0.950 . S
C1213 C1212 1.373 . S
C1213 C1229 1.377 . S
C1214 C1212 1.389 . S
C1214 C1215 1.524 . S
C1214 C1228 1.377 . S
C1215 C1214 1.524 . S
C1215 C1216 1.397 . S
C1215 C1220 1.363 . S
C1216 H1193 0.950 . S
C1216 C1215 1.397 . S
C1216 C1217 1.334 . S
C1217 H1194 0.950 . S
C1217 C1216 1.334 . S
C1217 C1218 1.287 . S
C1218 C1217 1.287 . S
C1218 C1219 1.524 . S
C1218 H1237 0.913 . S
C1219 H1195 0.950 . S
C1219 C1218 1.524 . S
C1219 C1220 1.415 . S
C1220 H1196 0.950 . S
C1220 C1215 1.363 . S
C1220 C1219 1.415 . S
C1221 H1197 0.951 . S
C1221 C1222 1.366 . S
C1221 C1223 1.388 . S
C1222 C1221 1.366 . S
C1222 C1226 1.385 . S
C1223 H1198 0.951 . S
C1223 C1221 1.388 . S
C1223 C1224 1.366 . S
C1224 C1223 1.366 . S
C1224 C1225 1.414 . S
C1224 C1227 1.499 . S
C1225 H1199 0.950 . S
C1225 C1224 1.414 . S
C1225 C1226 1.374 . S
C1226 H1200 0.950 . S
C1226 C1222 1.385 . S
C1226 C1225 1.374 . S
C1227 C1224 1.499 . S
C1227 C1228 1.373 . S
C1227 C1229 1.389 . S
C1228 H1201 0.950 . S
C1228 C1214 1.377 . S
C1228 C1227 1.373 . S
C1229 C1213 1.377 . S
C1229 C1227 1.389 . S
C1229 C1230 1.524 . S
C1230 C1229 1.524 . S
C1230 C1231 1.397 . S
C1230 C1235 1.363 . S
C1231 H1202 0.950 . S
C1231 C1230 1.397 . S
C1231 C1232 1.334 . S
C1232 H1203 0.950 . S
C1232 C1231 1.334 . S
C1232 C1233 1.287 . S
C1233 C1232 1.287 . S
C1233 C1234 1.524 . S
C1233 H1236 0.999 . S
C1234 H1204 0.950 . S
C1234 C1233 1.524 . S
C1234 C1235 1.415 . S
C1235 H1205 0.950 . S
C1235 C1230 1.363 . S
C1235 C1234 1.415 . S
H1236 C1233 0.999 . S
H1237 C1218 0.913 . S
H1238 C1256 0.951 . S
H1239 C1258 0.951 . S
H1240 C1260 0.950 . S
H1241 C1261 0.950 . S
H1242 C1263 0.950 . S
H1243 C1266 0.950 . S
H1244 C1267 0.950 . S
H1245 C1269 0.950 . S
H1246 C1270 0.950 . S
H1247 C1271 0.951 . S
H1248 C1273 0.951 . S
H1249 C1275 0.950 . S
H1250 C1276 0.950 . S
H1251 C1278 0.950 . S
H1252 C1281 0.950 . S
H1253 C1282 0.950 . S
H1254 C1284 0.950 . S
H1255 C1285 0.950 . S
C1256 H1238 0.951 . S
C1256 C1257 1.366 . S
C1256 C1258 1.388 . S
C1257 C1256 1.366 . S
C1257 C1261 1.385 . S
C1258 H1239 0.951 . S
C1258 C1256 1.388 . S
C1258 C1259 1.366 . S
C1259 C1258 1.366 . S
C1259 C1260 1.414 . S
C1259 C1262 1.499 . S
C1260 H1240 0.950 . S
C1260 C1259 1.414 . S
C1260 C1261 1.374 . S
C1261 H1241 0.950 . S
C1261 C1257 1.385 . S
C1261 C1260 1.374 . S
C1262 C1259 1.499 . S
C1262 C1263 1.373 . S
C1262 C1264 1.389 . S
C1263 H1242 0.950 . S
C1263 C1262 1.373 . S
C1263 C1279 1.377 . S
C1264 C1262 1.389 . S
C1264 C1265 1.524 . S
C1264 C1278 1.377 . S
C1265 C1264 1.524 . S
C1265 C1266 1.397 . S
C1265 C1270 1.363 . S
C1266 H1243 0.950 . S
C1266 C1265 1.397 . S
C1266 C1267 1.334 . S
C1267 H1244 0.950 . S
C1267 C1266 1.334 . S
C1267 C1268 1.287 . S
C1268 C1267 1.287 . S
C1268 C1269 1.524 . S
C1268 H1287 0.913 . S
C1269 H1245 0.950 . S
C1269 C1268 1.524 . S
C1269 C1270 1.415 . S
C1270 H1246 0.950 . S
C1270 C1265 1.363 . S
C1270 C1269 1.415 . S
C1271 H1247 0.951 . S
C1271 C1272 1.366 . S
C1271 C1273 1.388 . S
C1272 C1271 1.366 . S
C1272 C1276 1.385 . S
C1273 H1248 0.951 . S
C1273 C1271 1.388 . S
C1273 C1274 1.366 . S
C1274 C1273 1.366 . S
C1274 C1275 1.414 . S
C1274 C1277 1.499 . S
C1275 H1249 0.950 . S
C1275 C1274 1.414 . S
C1275 C1276 1.374 . S
C1276 H1250 0.950 . S
C1276 C1272 1.385 . S
C1276 C1275 1.374 . S
C1277 C1274 1.499 . S
C1277 C1278 1.373 . S
C1277 C1279 1.389 . S
C1278 H1251 0.950 . S
C1278 C1264 1.377 . S
C1278 C1277 1.373 . S
C1279 C1263 1.377 . S
C1279 C1277 1.389 . S
C1279 C1280 1.524 . S
C1280 C1279 1.524 . S
C1280 C1281 1.397 . S
C1280 C1285 1.363 . S
C1281 H1252 0.950 . S
C1281 C1280 1.397 . S
C1281 C1282 1.334 . S
C1282 H1253 0.950 . S
C1282 C1281 1.334 . S
C1282 C1283 1.287 . S
C1283 C1282 1.287 . S
C1283 C1284 1.524 . S
C1283 H1286 0.999 . S
C1284 H1254 0.950 . S
C1284 C1283 1.524 . S
C1284 C1285 1.415 . S
C1285 H1255 0.950 . S
C1285 C1280 1.363 . S
C1285 C1284 1.415 . S
H1286 C1283 0.999 . S
H1287 C1268 0.913 . S
H1288 C1306 0.951 . S
H1289 C1308 0.951 . S
H1290 C1310 0.950 . S
H1291 C1311 0.950 . S
H1292 C1313 0.950 . S
H1293 C1316 0.950 . S
H1294 C1317 0.950 . S
H1295 C1319 0.950 . S
H1296 C1320 0.950 . S
H1297 C1321 0.951 . S
H1298 C1323 0.951 . S
H1299 C1325 0.950 . S
H1300 C1326 0.950 . S
H1301 C1328 0.950 . S
H1302 C1331 0.950 . S
H1303 C1332 0.950 . S
H1304 C1334 0.950 . S
H1305 C1335 0.950 . S
C1306 H1288 0.951 . S
C1306 C1307 1.366 . S
C1306 C1308 1.388 . S
C1307 C1306 1.366 . S
C1307 C1311 1.385 . S
C1308 H1289 0.951 . S
C1308 C1306 1.388 . S
C1308 C1309 1.366 . S
C1309 C1308 1.366 . S
C1309 C1310 1.414 . S
C1309 C1312 1.499 . S
C1310 H1290 0.950 . S
C1310 C1309 1.414 . S
C1310 C1311 1.374 . S
C1311 H1291 0.950 . S
C1311 C1307 1.385 . S
C1311 C1310 1.374 . S
C1312 C1309 1.499 . S
C1312 C1313 1.373 . S
C1312 C1314 1.389 . S
C1313 H1292 0.950 . S
C1313 C1312 1.373 . S
C1313 C1329 1.377 . S
C1314 C1312 1.389 . S
C1314 C1315 1.524 . S
C1314 C1328 1.377 . S
C1315 C1314 1.524 . S
C1315 C1316 1.397 . S
C1315 C1320 1.363 . S
C1316 H1293 0.950 . S
C1316 C1315 1.397 . S
C1316 C1317 1.334 . S
C1317 H1294 0.950 . S
C1317 C1316 1.334 . S
C1317 C1318 1.287 . S
C1318 C1317 1.287 . S
C1318 C1319 1.524 . S
C1318 H1337 0.913 . S
C1319 H1295 0.950 . S
C1319 C1318 1.524 . S
C1319 C1320 1.415 . S
C1320 H1296 0.950 . S
C1320 C1315 1.363 . S
C1320 C1319 1.415 . S
C1321 H1297 0.951 . S
C1321 C1322 1.366 . S
C1321 C1323 1.388 . S
C1322 C1321 1.366 . S
C1322 C1326 1.385 . S
C1323 H1298 0.951 . S
C1323 C1321 1.388 . S
C1323 C1324 1.366 . S
C1324 C1323 1.366 . S
C1324 C1325 1.414 . S
C1324 C1327 1.499 . S
C1325 H1299 0.950 . S
C1325 C1324 1.414 . S
C1325 C1326 1.374 . S
C1326 H1300 0.950 . S
C1326 C1322 1.385 . S
C1326 C1325 1.374 . S
C1327 C1324 1.499 . S
C1327 C1328 1.373 . S
C1327 C1329 1.389 . S
C1328 H1301 0.950 . S
C1328 C1314 1.377 . S
C1328 C1327 1.373 . S
C1329 C1313 1.377 . S
C1329 C1327 1.389 . S
C1329 C1330 1.524 . S
C1330 C1329 1.524 . S
C1330 C1331 1.397 . S
C1330 C1335 1.363 . S
C1331 H1302 0.950 . S
C1331 C1330 1.397 . S
C1331 C1332 1.334 . S
C1332 H1303 0.950 . S
C1332 C1331 1.334 . S
C1332 C1333 1.287 . S
C1333 C1332 1.287 . S
C1333 C1334 1.524 . S
C1333 H1336 0.999 . S
C1334 H1304 0.950 . S
C1334 C1333 1.524 . S
C1334 C1335 1.415 . S
C1335 H1305 0.950 . S
C1335 C1330 1.363 . S
C1335 C1334 1.415 . S
H1336 C1333 0.999 . S
H1337 C1318 0.913 . S
H1338 C1356 0.951 . S
H1339 C1358 0.951 . S
H1340 C1360 0.950 . S
H1341 C1361 0.950 . S
H1342 C1363 0.950 . S
H1343 C1366 0.950 . S
H1344 C1367 0.950 . S
H1345 C1369 0.950 . S
H1346 C1370 0.950 . S
H1347 C1371 0.951 . S
H1348 C1373 0.951 . S
H1349 C1375 0.950 . S
H1350 C1376 0.950 . S
H1351 C1378 0.950 . S
H1352 C1381 0.950 . S
H1353 C1382 0.950 . S
H1354 C1384 0.950 . S
H1355 C1385 0.950 . S
C1356 H1338 0.951 . S
C1356 C1357 1.366 . S
C1356 C1358 1.388 . S
C1357 C1356 1.366 . S
C1357 C1361 1.385 . S
C1358 H1339 0.951 . S
C1358 C1356 1.388 . S
C1358 C1359 1.366 . S
C1359 C1358 1.366 . S
C1359 C1360 1.414 . S
C1359 C1362 1.499 . S
C1360 H1340 0.950 . S
C1360 C1359 1.414 . S
C1360 C1361 1.374 . S
C1361 H1341 0.950 . S
C1361 C1357 1.385 . S
C1361 C1360 1.374 . S
C1362 C1359 1.499 . S
C1362 C1363 1.373 . S
C1362 C1364 1.389 . S
C1363 H1342 0.950 . S
C1363 C1362 1.373 . S
C1363 C1379 1.377 . S
C1364 C1362 1.389 . S
C1364 C1365 1.524 . S
C1364 C1378 1.377 . S
C1365 C1364 1.524 . S
C1365 C1366 1.397 . S
C1365 C1370 1.363 . S
C1366 H1343 0.950 . S
C1366 C1365 1.397 . S
C1366 C1367 1.334 . S
C1367 H1344 0.950 . S
C1367 C1366 1.334 . S
C1367 C1368 1.287 . S
C1368 C1367 1.287 . S
C1368 C1369 1.524 . S
C1368 H1387 0.913 . S
C1369 H1345 0.950 . S
C1369 C1368 1.524 . S
C1369 C1370 1.415 . S
C1370 H1346 0.950 . S
C1370 C1365 1.363 . S
C1370 C1369 1.415 . S
C1371 H1347 0.951 . S
C1371 C1372 1.366 . S
C1371 C1373 1.388 . S
C1372 C1371 1.366 . S
C1372 C1376 1.385 . S
C1373 H1348 0.951 . S
C1373 C1371 1.388 . S
C1373 C1374 1.366 . S
C1374 C1373 1.366 . S
C1374 C1375 1.414 . S
C1374 C1377 1.499 . S
C1375 H1349 0.950 . S
C1375 C1374 1.414 . S
C1375 C1376 1.374 . S
C1376 H1350 0.950 . S
C1376 C1372 1.385 . S
C1376 C1375 1.374 . S
C1377 C1374 1.499 . S
C1377 C1378 1.373 . S
C1377 C1379 1.389 . S
C1378 H1351 0.950 . S
C1378 C1364 1.377 . S
C1378 C1377 1.373 . S
C1379 C1363 1.377 . S
C1379 C1377 1.389 . S
C1379 C1380 1.524 . S
C1380 C1379 1.524 . S
C1380 C1381 1.397 . S
C1380 C1385 1.363 . S
C1381 H1352 0.950 . S
C1381 C1380 1.397 . S
C1381 C1382 1.334 . S
C1382 H1353 0.950 . S
C1382 C1381 1.334 . S
C1382 C1383 1.287 . S
C1383 C1382 1.287 . S
C1383 C1384 1.524 . S
C1383 H1386 0.999 . S
C1384 H1354 0.950 . S
C1384 C1383 1.524 . S
C1384 C1385 1.415 . S
C1385 H1355 0.950 . S
C1385 C1380 1.363 . S
C1385 C1384 1.415 . S
H1386 C1383 0.999 . S
H1387 C1368 0.913 . S
C207 C7 0.652 . S
C222 N89 0.586 . S
C257 C25 0.656 . S
C272 N102 0.589 . S
C307 C46 0.650 . S
C322 N111 0.586 . S
C372 N128 0.583 . S
C357 C70 0.649 . S
C422 N141 0.586 . S
C407 C28 0.651 . S
C457 C49 0.653 . S
C472 N150 0.586 . S
C507 C67 0.655 . S
C522 N163 0.591 . S
C557 C4 0.652 . S
C572 N180 0.588 . S
C607 C58 1.670 . S
C622 N176 1.789 . S
C672 N137 1.788 . S
C657 C66 1.669 . S
C722 N154 1.796 . S
C707 C3 1.674 . S
C757 C37 1.674 . S
C772 N167 1.796 . S
C822 N98 1.792 . S
C807 C79 1.673 . S
C857 C16 1.677 . S
C872 N115 1.797 . S
C922 N124 1.789 . S
C907 C24 1.670 . S
C972 N85 1.790 . S
C957 C45 1.671 . S
C1022 N164 1.334 . S
C1007 C19 1.203 . S
C1072 N177 1.329 . S
C1057 C41 1.200 . S
C1107 C62 1.199 . S
C1122 N138 1.326 . S
C1172 N151 1.330 . S
C1157 C82 1.199 . S
C1222 N112 1.332 . S
C1207 C40 1.201 . S
C1257 C61 1.197 . S
C1272 N125 1.325 . S
C1322 N86 1.328 . S
C1307 C83 1.201 . S
C1372 N99 1.331 . S
C1357 C20 1.204 . S
