# Generated by pormake.
# Topology tsx, (6,3)-cn, num edge types: 1
# Building blocks:
#     Node 0, Type 0, BuildingBlock: JUFBIX_clean_sbu_0, # of connection points: 6
#     Node 1, Type 0, BuildingBlock: JUFBIX_clean_sbu_0, # of connection points: 6
#     Node 2, Type 1, BuildingBlock: MIDCAF_clean_linker_0, # of connection points: 3
#     Node 3, Type 1, BuildingBlock: MIDCAF_clean_linker_0, # of connection points: 3
#     Node 4, Type 1, BuildingBlock: MIDCAF_clean_linker_0, # of connection points: 3
#     Node 5, Type 1, BuildingBlock: MIDCAF_clean_linker_0, # of connection points: 3
#     Edge 6, Type (0, 1), BuildingBlock: UVAHIK_clean_linker_0, # of connection points: 2
#     Edge 7, Type (0, 1), BuildingBlock: UVAHIK_clean_linker_0, # of connection points: 2
#     Edge 8, Type (0, 1), BuildingBlock: UVAHIK_clean_linker_0, # of connection points: 2
#     Edge 9, Type (0, 1), BuildingBlock: UVAHIK_clean_linker_0, # of connection points: 2
#     Edge 10, Type (0, 1), BuildingBlock: UVAHIK_clean_linker_0, # of connection points: 2
#     Edge 11, Type (0, 1), BuildingBlock: UVAHIK_clean_linker_0, # of connection points: 2
#     Edge 12, Type (0, 1), BuildingBlock: UVAHIK_clean_linker_0, # of connection points: 2
#     Edge 13, Type (0, 1), BuildingBlock: UVAHIK_clean_linker_0, # of connection points: 2
#     Edge 14, Type (0, 1), BuildingBlock: UVAHIK_clean_linker_0, # of connection points: 2
#     Edge 15, Type (0, 1), BuildingBlock: UVAHIK_clean_linker_0, # of connection points: 2
#     Edge 16, Type (0, 1), BuildingBlock: UVAHIK_clean_linker_0, # of connection points: 2
#     Edge 17, Type (0, 1), BuildingBlock: UVAHIK_clean_linker_0, # of connection points: 2
# Relax obj value: 0.159
# Max RMSD: 0.166
# Mean RMSD: 0.133
data_MOF--net-tsx--node1-JUFBIX_clean_sbu_0--node2-MIDCAF_clean_linker_0--edge1-UVAHIK_clean_linker_0
_symmetry_space_group_name_H-M    P1
_symmetry_Int_Tables_number       1
_symmetry_cell_setting            triclinic
loop_
_symmetry_equiv_pos_as_xyz
'x, y, z'
_cell_length_a     29.358074
_cell_length_b     35.057258
_cell_length_c     53.703245
_cell_angle_alpha  92.431402
_cell_angle_beta   89.465692
_cell_angle_gamma 96.201263
loop_
_atom_site_label
_atom_site_type_symbol
_atom_site_fract_x
_atom_site_fract_y
_atom_site_fract_z
_atom_type_partial_charge
Co0 Co 0.03482 0.98014 0.00938 0.0
C1 C 0.00088 0.00627 0.96506 0.0
Co2 Co 0.97904 0.01749 0.01414 0.0
C3 C 0.09348 0.91845 0.01274 0.0
C4 C 0.12119 0.96368 0.9896 0.0
N5 N 0.08422 0.9521 0.00357 0.0
N6 N 0.13511 0.90914 0.0053 0.0
C7 C 0.15256 0.93751 0.99076 0.0
H8 H 0.07082 0.90172 0.02516 0.0
H9 H 0.12537 0.98988 0.97948 0.0
C10 C 0.01276 0.9917 0.05854 0.0
N11 N 0.92999 0.04564 0.02053 0.0
C12 C 0.9216 0.08028 0.01262 0.0
C13 C 0.89541 0.03551 0.03647 0.0
N14 N 0.88344 0.09221 0.0233 0.0
C15 C 0.86689 0.06403 0.03824 0.0
C16 C 0.95053 0.93868 0.00832 0.0
O17 O 0.03947 0.9743 0.0444 0.0
O18 O 0.98468 0.01183 0.04888 0.0
O19 O 0.93817 0.97212 0.01172 0.0
O20 O 0.99301 0.93466 0.00664 0.0
O21 O 0.97373 0.02286 0.9794 0.0
H22 H 0.89167 0.0093 0.04657 0.0
H23 H 0.94379 0.09691 0.99993 0.0
O24 O 0.02983 0.98649 0.97441 0.0
O25 O 0.07586 0.02579 0.01215 0.0
O26 O 0.02052 0.06285 0.01627 0.0
C27 C 0.06304 0.05919 0.01475 0.0
H28 H 0.18564 0.93907 0.98155 0.0
H29 H 0.83628 0.06403 0.04964 0.0
Co30 Co 0.53305 0.48363 0.50817 0.0
C31 C 0.49883 0.50964 0.46385 0.0
Co32 Co 0.47706 0.52078 0.5129 0.0
C33 C 0.59185 0.42208 0.51136 0.0
C34 C 0.61966 0.46758 0.48845 0.0
N35 N 0.58261 0.45582 0.50231 0.0
N36 N 0.63353 0.41289 0.50395 0.0
C37 C 0.65106 0.44142 0.48955 0.0
H38 H 0.56911 0.40519 0.52366 0.0
H39 H 0.62386 0.49388 0.47844 0.0
C40 C 0.51104 0.49512 0.55731 0.0
N41 N 0.42778 0.54864 0.51942 0.0
C42 C 0.41919 0.58351 0.51198 0.0
C43 C 0.39349 0.53806 0.53544 0.0
N44 N 0.38125 0.59512 0.52309 0.0
C45 C 0.365 0.56654 0.53778 0.0
C46 C 0.44904 0.44181 0.50716 0.0
O47 O 0.53784 0.47779 0.54319 0.0
O48 O 0.48287 0.51513 0.54763 0.0
O49 O 0.43642 0.47517 0.51051 0.0
O50 O 0.49156 0.43803 0.50546 0.0
O51 O 0.47159 0.52614 0.47819 0.0
H52 H 0.39007 0.51165 0.54533 0.0
H53 H 0.44119 0.60062 0.49945 0.0
O54 O 0.52791 0.48998 0.47321 0.0
O55 O 0.57378 0.52938 0.51093 0.0
O56 O 0.51836 0.56635 0.51502 0.0
C57 C 0.5609 0.56275 0.51353 0.0
H58 H 0.68419 0.44309 0.4804 0.0
H59 H 0.33478 0.56638 0.5495 0.0
C60 C 0.87262 0.07583 0.45864 0.0
C61 C 0.88105 0.08944 0.48332 0.0
C62 C 0.91782 0.0769 0.49619 0.0
C63 C 0.94624 0.05199 0.48435 0.0
H64 H 0.02145 0.94591 0.49167 0.0
H65 H 0.07258 0.90471 0.51088 0.0
H66 H 0.16537 0.91908 0.4483 0.0
H67 H 0.11458 0.95958 0.42909 0.0
H68 H 0.04413 0.94574 0.37637 0.0
H69 H 0.0465 0.94358 0.33111 0.0
H70 H 0.96699 0.0404 0.33066 0.0
H71 H 0.96313 0.0416 0.37599 0.0
H72 H 0.89428 0.04231 0.4275 0.0
H73 H 0.84492 0.08531 0.44812 0.0
H74 H 0.92499 0.08681 0.51527 0.0
H75 H 0.97486 0.04347 0.49458 0.0
N76 N 0.00091 -0.00281 0.4583 0.0
N77 N 0.03179 0.97617 0.4203 0.0
N78 N 0.97211 0.01528 0.42036 0.0
C79 C 0.03138 0.97702 0.44559 0.0
C80 C 0.00228 -0.00489 0.40751 0.0
C81 C 0.97115 0.01648 0.44572 0.0
C82 C 0.06385 0.95565 0.45878 0.0
C83 C 0.05309 0.94065 0.48224 0.0
C84 C 0.08218 0.91701 0.49317 0.0
C85 C 0.12288 0.90877 0.48105 0.0
C86 C 0.13446 0.92523 0.45817 0.0
C87 C 0.10515 0.94817 0.44708 0.0
C88 C 0.00343 0.99386 0.37987 0.0
C89 C 0.02709 0.96658 0.36665 0.0
C90 C 0.0287 0.96548 0.34062 0.0
C91 C 0.0071 0.99189 0.32711 0.0
C92 C 0.98342 0.01919 0.34037 0.0
C93 C 0.9814 0.02003 0.36642 0.0
C94 C 0.93883 0.0397 0.45928 0.0
C95 C 0.90124 0.05143 0.44674 0.0
C96 C 0.9167 0.88278 0.56617 0.0
C97 C 0.89887 0.8857 0.54226 0.0
C98 C 0.90812 0.92025 0.52993 0.0
C99 C 0.93436 0.9516 0.54157 0.0
H100 H 0.05632 0.03819 0.53181 0.0
H101 H 0.10528 0.08837 0.51091 0.0
H102 H 0.09282 0.16592 0.57463 0.0
H103 H 0.04469 0.1161 0.59561 0.0
H104 H 0.05327 0.06165 0.64883 0.0
H105 H 0.05233 0.06426 0.69435 0.0
H106 H 0.9352 0.97849 0.69388 0.0
H107 H 0.93611 0.97553 0.64839 0.0
H108 H 0.95446 0.91124 0.59663 0.0
H109 H 0.90962 0.85656 0.57615 0.0
H110 H 0.89467 0.92307 0.51146 0.0
H111 H 0.94053 0.97814 0.53186 0.0
N112 N 0.99838 0.01136 0.5666 0.0
N113 N 0.01919 0.04444 0.60443 0.0
N114 N 0.97395 0.98526 0.60462 0.0
C115 C 0.02056 0.04232 0.5791 0.0
C116 C 0.99589 0.01604 0.61733 0.0
C117 C 0.97502 0.98273 0.57931 0.0
C118 C 0.04699 0.07314 0.56545 0.0
C119 C 0.0637 0.06609 0.54123 0.0
C120 C 0.09177 0.09465 0.5293 0.0
C121 C 0.10264 0.1309 0.54118 0.0
C122 C 0.08457 0.1383 0.56497 0.0
C123 C 0.0573 0.10967 0.57705 0.0
C124 C 0.99482 0.01832 0.64494 0.0
C125 C 0.0272 0.04343 0.6584 0.0
C126 C 0.02685 0.04481 0.68445 0.0
C127 C 0.9937 0.02158 0.69759 0.0
C128 C 0.96092 -0.00309 0.6842 0.0
C129 C 0.96166 -0.00491 0.65815 0.0
C130 C 0.95067 0.94904 0.56593 0.0
C131 C 0.94203 0.91419 0.57796 0.0
C132 C 0.37384 0.57277 0.95989 0.0
C133 C 0.38329 0.58647 0.98446 0.0
C134 C 0.42104 0.57442 0.99673 0.0
C135 C 0.44948 0.55003 0.98437 0.0
H136 H 0.52499 0.43752 0.9865 0.0
H137 H 0.57732 0.39424 0.0021 0.0
H138 H 0.67477 0.4287 0.94424 0.0
H139 H 0.62178 0.47006 0.92814 0.0
H140 H 0.54528 0.44775 0.87428 0.0
H141 H 0.54664 0.44669 0.82907 0.0
H142 H 0.46574 0.54275 0.83025 0.0
H143 H 0.46291 0.54283 0.87564 0.0
H144 H 0.39472 0.53977 0.92832 0.0
H145 H 0.34538 0.58186 0.94982 0.0
H146 H 0.42903 0.58438 0.01572 0.0
H147 H 0.47892 0.54197 0.99411 0.0
N148 N 0.50452 0.49657 0.95706 0.0
N149 N 0.53469 0.47759 0.91841 0.0
N150 N 0.47353 0.51514 0.91976 0.0
C151 C 0.53527 0.47763 0.94366 0.0
C152 C 0.50392 0.49608 0.90628 0.0
C153 C 0.47356 0.51555 0.94513 0.0
C154 C 0.56909 0.45656 0.95589 0.0
C155 C 0.55791 0.43609 0.97742 0.0
C156 C 0.58796 0.4114 0.98635 0.0
C157 C 0.62993 0.40729 0.97409 0.0
C158 C 0.64217 0.43007 0.95365 0.0
C159 C 0.61194 0.45404 0.94452 0.0
C160 C 0.50405 0.49545 0.87865 0.0
C161 C 0.52771 0.46868 0.86495 0.0
C162 C 0.52875 0.46822 0.83894 0.0
C163 C 0.50659 0.49479 0.8259 0.0
C164 C 0.4827 0.52149 0.83961 0.0
C165 C 0.48125 0.52168 0.86567 0.0
C166 C 0.44109 0.53779 0.95938 0.0
C167 C 0.40245 0.54888 0.94748 0.0
C168 C 0.41416 0.38338 0.06588 0.0
C169 C 0.39617 0.38563 0.04194 0.0
C170 C 0.40451 0.42008 0.02941 0.0
C171 C 0.43009 0.45195 0.04087 0.0
H172 H 0.55147 0.53892 0.03049 0.0
H173 H 0.60102 0.5885 0.00941 0.0
H174 H 0.58819 0.66725 0.07246 0.0
H175 H 0.53945 0.61802 0.09361 0.0
H176 H 0.54882 0.56428 0.1473 0.0
H177 H 0.54843 0.56726 0.19284 0.0
H178 H 0.4316 0.48124 0.19301 0.0
H179 H 0.43197 0.4779 0.14752 0.0
H180 H 0.45146 0.41283 0.09617 0.0
H181 H 0.40777 0.35724 0.07601 0.0
H182 H 0.3909 0.4224 0.01092 0.0
H183 H 0.4356 0.47839 0.031 0.0
N184 N 0.49357 0.51266 0.06543 0.0
N185 N 0.5143 0.54646 0.10302 0.0
N186 N 0.46956 0.48708 0.10366 0.0
C187 C 0.51555 0.54393 0.0777 0.0
C188 C 0.4913 0.51817 0.11614 0.0
C189 C 0.47052 0.48414 0.07836 0.0
C190 C 0.54192 0.5745 0.06381 0.0
C191 C 0.55885 0.56697 0.0397 0.0
C192 C 0.58726 0.59519 0.02767 0.0
C193 C 0.59827 0.63158 0.03933 0.0
C194 C 0.57985 0.63951 0.06297 0.0
C195 C 0.55223 0.61122 0.07515 0.0
C196 C 0.49047 0.5208 0.14375 0.0
C197 C 0.52292 0.54609 0.15702 0.0
C198 C 0.52289 0.54769 0.18308 0.0
C199 C 0.48999 0.52448 0.1964 0.0
C200 C 0.45713 0.49964 0.18318 0.0
C201 C 0.45756 0.49761 0.15714 0.0
C202 C 0.44663 0.45001 0.06523 0.0
C203 C 0.43882 0.4153 0.07748 0.0
C204 C 0.08452 0.13044 0.01448 0.0
C205 C 0.0976 0.09311 0.01531 0.0
C206 C 0.11774 0.16221 0.01434 0.0
C207 C 0.23611 0.19246 0.03304 0.0
H208 H 0.22986 0.27483 0.98762 0.0
C209 C 0.3798 0.31557 0.0313 0.0
C210 C 0.36608 0.35266 0.03121 0.0
C211 C 0.34863 0.28361 0.02545 0.0
C212 C 0.2319 0.25219 1.00053 0.0
H213 H 0.15572 0.05982 0.01656 0.0
H214 H 0.21335 0.11514 0.01654 0.0
H215 H 0.1708 0.21992 0.98621 0.0
H216 H 0.31001 0.38582 0.02375 0.0
H217 H 0.25502 0.32996 0.01404 0.0
H218 H 0.29618 0.22473 0.04791 0.0
C219 C 0.17751 0.11987 0.01608 0.0
C220 C 0.19809 0.22081 0.99973 0.0
C221 C 0.14445 0.0882 0.01603 0.0
C222 C 0.32144 0.35745 0.02375 0.0
C223 C 0.29001 0.32543 0.01818 0.0
C224 C 0.26961 0.22383 0.03397 0.0
C225 C 0.16454 0.15719 0.01526 0.0
C226 C 0.19996 0.19065 0.01598 0.0
C227 C 0.30287 0.28809 0.01978 0.0
C228 C 0.26803 0.25407 0.01772 0.0
H229 H 0.04868 0.13511 0.0138 0.0
H230 H 0.10682 0.19072 0.01392 0.0
H231 H 0.23801 0.16992 0.04606 0.0
H232 H 0.41426 0.31125 0.03674 0.0
H233 H 0.36002 0.25531 0.02619 0.0
C234 C 0.1337 0.83935 0.01052 0.0
C235 C 0.15747 0.87631 0.01147 0.0
C236 C 0.1573 0.80707 0.01319 0.0
C237 C 0.27534 0.77922 0.00612 0.0
H238 H 0.22191 0.68329 0.03268 0.0
C239 C 0.37816 0.64953 0.00751 0.0
C240 C 0.35599 0.61584 0.9961 0.0
C241 C 0.35337 0.68015 0.01455 0.0
C242 C 0.23723 0.70996 0.02525 0.0
H243 H 0.22334 0.909 0.01788 0.0
H244 H 0.26424 0.85322 0.02368 0.0
H245 H 0.17944 0.7397 0.03571 0.0
H246 H 0.29004 0.58668 0.98488 0.0
H247 H 0.24672 0.64022 0.9972 0.0
H248 H 0.3329 0.7496 0.99558 0.0
C249 C 0.2279 0.84864 0.01979 0.0
C250 C 0.21285 0.74224 0.02686 0.0
C251 C 0.20451 0.88067 0.01665 0.0
C252 C 0.30809 0.61246 0.9934 0.0
C253 C 0.28325 0.64299 1.00063 0.0
C254 C 0.29978 0.74722 0.00478 0.0
C255 C 0.20499 0.8113 0.01725 0.0
C256 C 0.23146 0.77724 0.01709 0.0
C257 C 0.30586 0.67762 0.01051 0.0
C258 C 0.2809 0.71213 0.0141 0.0
H259 H 0.09741 0.83538 0.00642 0.0
H260 H 0.13847 0.77885 0.01093 0.0
H261 H 0.29046 0.80521 0.99777 0.0
H262 H 0.41503 0.6531 0.00971 0.0
H263 H 0.37163 0.70637 0.02238 0.0
C264 C 0.86863 0.91146 0.00782 0.0
C265 C 0.91515 0.90532 0.00676 0.0
C266 C 0.83461 0.88058 0.00768 0.0
C267 C 0.80845 0.77743 0.99268 0.0
H268 H 0.71374 0.78602 0.0428 0.0
C269 C 0.67491 0.65151 0.02048 0.0
C270 C 0.63134 0.66073 0.02801 0.0
C271 C 0.70905 0.68049 0.01413 0.0
C272 C 0.73938 0.78337 0.02838 0.0
H273 H 0.9624 0.86184 0.00386 0.0
H274 H 0.90235 0.80742 0.0038 0.0
H275 H 0.77521 0.83762 0.03935 0.0
H276 H 0.58789 0.70664 0.0328 0.0
H277 H 0.64692 0.75714 0.02105 0.0
H278 H 0.77231 0.72286 0.98182 0.0
C279 C 0.89254 0.83636 0.00462 0.0
C280 C 0.77477 0.81291 0.02649 0.0
C281 C 0.92685 0.86745 0.00479 0.0
C282 C 0.62145 0.69893 0.02738 0.0
C283 C 0.65533 0.72779 0.02081 0.0
C284 C 0.77274 0.74774 0.99451 0.0
C285 C 0.84613 0.84273 0.00652 0.0
C286 C 0.80951 0.81043 0.00855 0.0
C287 C 0.70001 0.71911 0.01506 0.0
C288 C 0.73765 0.75056 0.01231 0.0
H289 H 0.8583 0.94023 0.00909 0.0
H290 H 0.79911 0.88637 0.0087 0.0
H291 H 0.83472 0.7749 0.97859 0.0
H292 H 0.6834 0.62224 0.02099 0.0
H293 H 0.74312 0.67285 0.0099 0.0
C294 C 0.84169 0.14502 0.04009 0.0
C295 C 0.86428 0.12776 0.02014 0.0
C296 C 0.82034 0.17812 0.03681 0.0
C297 C 0.81212 0.25723 0.99357 0.0
H298 H 0.69378 0.2624 0.02558 0.0
C299 C 0.68227 0.35721 0.96276 0.0
C300 C 0.65967 0.37778 0.9813 0.0
C301 C 0.70999 0.32926 0.96908 0.0
C302 C 0.72706 0.26162 0.01681 0.0
H303 H 0.88306 0.13196 0.98122 0.0
H304 H 0.84481 0.1894 0.97516 0.0
H305 H 0.73745 0.20884 0.03326 0.0
H306 H 0.64861 0.38471 0.02117 0.0
H307 H 0.69644 0.33495 0.03217 0.0
H308 H 0.80071 0.30946 0.97647 0.0
C309 C 0.84432 0.17782 0.99354 0.0
C310 C 0.75221 0.23096 0.02121 0.0
C311 C 0.86615 0.14487 0.99694 0.0
C312 C 0.66517 0.36926 0.0064 0.0
C313 C 0.69265 0.34088 0.01271 0.0
C314 C 0.78676 0.2877 0.989 0.0
C315 C 0.82062 0.19458 0.01338 0.0
C316 C 0.79492 0.22819 0.00949 0.0
C317 C 0.71544 0.32073 0.99408 0.0
C318 C 0.74379 0.29 1.00039 0.0
H319 H 0.84051 0.13287 0.05831 0.0
H320 H 0.80345 0.19071 0.05266 0.0
H321 H 0.84521 0.25646 0.98459 0.0
H322 H 0.67789 0.36209 0.94319 0.0
H323 H 0.72634 0.31364 0.95429 0.0
C324 C 0.64233 0.59157 0.51494 0.0
C325 C 0.59552 0.59664 0.51422 0.0
C326 C 0.67551 0.62315 0.51523 0.0
C327 C 0.69704 0.72432 0.49964 0.0
H328 H 0.79495 0.72645 0.5478 0.0
C329 C 0.82351 0.85909 0.52407 0.0
C330 C 0.86796 0.85336 0.53138 0.0
C331 C 0.79128 0.82764 0.51843 0.0
C332 C 0.76842 0.72605 0.53388 0.0
H333 H 0.54681 0.63884 0.51293 0.0
H334 H 0.60523 0.69433 0.51347 0.0
H335 H 0.7359 0.67231 0.54571 0.0
H336 H 0.91496 0.81089 0.53656 0.0
H337 H 0.85931 0.75595 0.52589 0.0
H338 H 0.72979 0.77817 0.48778 0.0
C339 C 0.61599 0.66575 0.51371 0.0
C340 C 0.73441 0.69508 0.53281 0.0
C341 C 0.58261 0.63405 0.5136 0.0
C342 C 0.88067 0.81592 0.53124 0.0
C343 C 0.8487 0.78455 0.52532 0.0
C344 C 0.73136 0.75532 0.50059 0.0
C345 C 0.66274 0.66055 0.51468 0.0
C346 C 0.69838 0.69386 0.51571 0.0
C347 C 0.80313 0.78995 0.51982 0.0
C348 C 0.76748 0.75651 0.51774 0.0
H349 H 0.65348 0.56314 0.51531 0.0
H350 H 0.7113 0.61827 0.51569 0.0
H351 H 0.66983 0.72389 0.48611 0.0
H352 H 0.81287 0.88774 0.52425 0.0
H353 H 0.75647 0.83286 0.51441 0.0
C354 C 0.70281 0.3842 0.51524 0.0
C355 C 0.65581 0.37995 0.50997 0.0
C356 C 0.72609 0.35208 0.5183 0.0
C357 C 0.71061 0.24559 0.52494 0.0
H358 H 0.83106 0.25299 0.49412 0.0
C359 C 0.80588 0.1159 0.49137 0.0
C360 C 0.85365 0.11902 0.49456 0.0
C361 C 0.78103 0.14647 0.49846 0.0
C362 C 0.79781 0.2506 0.50319 0.0
H363 H 0.59571 0.33915 0.50466 0.0
H364 H 0.63657 0.2825 0.509 0.0
H365 H 0.7888 0.30872 0.49637 0.0
H366 H 0.91247 0.1559 0.50882 0.0
H367 H 0.86906 0.20932 0.52121 0.0
H368 H 0.71936 0.18652 0.53054 0.0
C369 C 0.65545 0.31067 0.51141 0.0
C370 C 0.77348 0.28266 0.50457 0.0
C371 C 0.63197 0.34302 0.50883 0.0
C372 C 0.87568 0.15255 0.50624 0.0
C373 C 0.8509 0.18324 0.51313 0.0
C374 C 0.73486 0.21325 0.52328 0.0
C375 C 0.70311 0.31479 0.51559 0.0
C376 C 0.72946 0.28067 0.51538 0.0
C377 C 0.80354 0.18091 0.50868 0.0
C378 C 0.77867 0.21545 0.51229 0.0
H379 H 0.72169 0.4125 0.51662 0.0
H380 H 0.7624 0.35657 0.52229 0.0
H381 H 0.67709 0.24303 0.53368 0.0
H382 H 0.78794 0.09024 0.48261 0.0
H383 H 0.74461 0.14389 0.49471 0.0
C384 C 0.42616 0.37049 0.5038 0.0
C385 C 0.41398 0.4082 0.50582 0.0
C386 C 0.39225 0.33912 0.50392 0.0
C387 C 0.27542 0.31461 0.52684 0.0
H388 H 0.27325 0.22433 0.48239 0.0
C389 C 0.12429 0.19856 0.52943 0.0
C390 C 0.13496 0.16055 0.52981 0.0
C391 C 0.15742 0.22785 0.52261 0.0
C392 C 0.27361 0.24927 0.49502 0.0
H393 H 0.35666 0.44256 0.50857 0.0
H394 H 0.29812 0.3882 0.50871 0.0
H395 H 0.33458 0.27706 0.47844 0.0
H396 H 0.18763 0.12284 0.52216 0.0
H397 H 0.24607 0.17422 0.51066 0.0
H398 H 0.21545 0.28706 0.54382 0.0
C399 C 0.33371 0.38275 0.5074 0.0
C400 C 0.3087 0.27936 0.49277 0.0
C401 C 0.36735 0.41392 0.50723 0.0
C402 C 0.17854 0.15196 0.52186 0.0
C403 C 0.21194 0.18138 0.51527 0.0
C404 C 0.24066 0.28464 0.52915 0.0
C405 C 0.34575 0.34506 0.50618 0.0
C406 C 0.30966 0.31244 0.50857 0.0
C407 C 0.20213 0.21981 0.51636 0.0
C408 C 0.23905 0.25172 0.51318 0.0
H409 H 0.4618 0.36519 0.50261 0.0
H410 H 0.40246 0.31032 0.50306 0.0
H411 H 0.27581 0.33938 0.53963 0.0
H412 H 0.09069 0.20578 0.53518 0.0
H413 H 0.14838 0.25702 0.52301 0.0
C414 C 0.36067 0.64776 0.4977 0.0
C415 C 0.36229 0.63093 0.52086 0.0
C416 C 0.33813 0.68063 0.49532 0.0
C417 C 0.25017 0.73374 0.52756 0.0
H418 H 0.28851 0.81075 0.47981 0.0
C419 C 0.13196 0.84447 0.49762 0.0
C420 C 0.15179 0.88087 0.49097 0.0
C421 C 0.15958 0.81611 0.50353 0.0
C422 C 0.27762 0.78986 0.49354 0.0
H423 H 0.34452 0.63643 0.55995 0.0
H424 H 0.30674 0.69435 0.55612 0.0
H425 H 0.33514 0.75861 0.4857 0.0
H426 H 0.21579 0.91697 0.48663 0.0
H427 H 0.26414 0.86794 0.49778 0.0
H428 H 0.1934 0.76552 0.53594 0.0
C429 C 0.32107 0.68155 0.53953 0.0
C430 C 0.30406 0.75955 0.49662 0.0
C431 C 0.34291 0.64848 0.54179 0.0
C432 C 0.19969 0.88897 0.49148 0.0
C433 C 0.22733 0.86077 0.49767 0.0
C434 C 0.22403 0.76424 0.52468 0.0
C435 C 0.31739 0.6976 0.51617 0.0
C436 C 0.29047 0.73088 0.51351 0.0
C437 C 0.20768 0.82367 0.50319 0.0
C438 C 0.23709 0.7925 0.50743 0.0
H439 H 0.37516 0.63456 0.48129 0.0
H440 H 0.33563 0.69188 0.47697 0.0
H441 H 0.23812 0.71197 0.54049 0.0
H442 H 0.09514 0.83731 0.49705 0.0
H443 H 0.14315 0.78779 0.50733 0.0
C444 C 0.97816 0.00227 0.10051 0.0
C445 C 0.01385 0.98924 0.08597 0.0
C446 C 0.9792 0.00159 0.12643 0.0
C447 C 0.03402 0.95917 0.1791 0.0
H448 H 0.98765 0.04395 0.21657 0.0
C449 C 0.04936 0.98224 0.28663 0.0
C450 C 0.00935 0.99098 0.29935 0.0
C451 C 0.05142 0.98141 0.26059 0.0
C452 C 0.00041 0.01996 0.20636 0.0
H453 H 0.07844 0.96474 0.08725 0.0
H454 H 0.08088 0.96436 0.13278 0.0
H455 H 0.98956 0.04382 0.17126 0.0
H456 H 0.93984 0.00493 0.29434 0.0
H457 H 0.94398 0.00442 0.249 0.0
H458 H 0.0455 0.93579 0.21451 0.0
C459 C 0.05166 0.97457 0.12404 0.0
C460 C 0.0014 0.01977 0.18036 0.0
C461 C 0.05039 0.97492 0.09796 0.0
C462 C 0.97152 -0.00114 0.28529 0.0
C463 C 0.97378 -0.00158 0.25928 0.0
C464 C 0.03345 0.95957 0.20519 0.0
C465 C 0.01622 0.98826 0.1386 0.0
C466 C 0.0176 0.98912 0.16635 0.0
C467 C 0.01375 0.98972 0.24666 0.0
C468 C 0.0161 0.98976 0.21905 0.0
H469 H 0.94918 0.01306 0.09186 0.0
H470 H 0.95071 0.01141 0.13692 0.0
H471 H 0.04629 0.93492 0.16896 0.0
H472 H 0.07946 0.97666 0.29679 0.0
H473 H 0.08284 0.97503 0.25135 0.0
C474 C 0.96109 0.02309 0.92653 0.0
C475 C 0.99924 0.01 0.93777 0.0
C476 C 0.95954 0.02602 0.90066 0.0
C477 C 0.0324 0.03789 0.84537 0.0
H478 H 0.92659 0.9902 0.80873 0.0
C479 C 0.03449 0.01998 0.73821 0.0
C480 C 0.99376 0.02258 0.72521 0.0
C481 C 0.03444 0.01992 0.76423 0.0
C482 C 0.9561 0.0043 0.81864 0.0
H483 H 0.06594 0.99031 0.93077 0.0
H484 H 0.06347 -0.00388 0.88568 0.0
H485 H 0.92747 0.98831 0.85406 0.0
H486 H 0.92125 0.02803 0.72915 0.0
H487 H 0.92125 0.02921 0.77461 0.0
H488 H 0.06084 0.05466 0.81022 0.0
C489 C 0.03474 0.00389 0.89688 0.0
C490 C 0.9566 0.00305 0.84462 0.0
C491 C 0.036 0.00036 0.92266 0.0
C492 C 0.95305 0.02559 0.73874 0.0
C493 C 0.95308 0.02607 0.76478 0.0
C494 C 0.03166 0.03965 0.81943 0.0
C495 C 0.99643 0.01656 0.88562 0.0
C496 C 0.99495 0.01947 0.85819 0.0
C497 C 0.99375 0.02301 0.7779 0.0
C498 C 0.99371 0.02251 0.80566 0.0
H499 H 0.93223 0.03069 0.93769 0.0
H500 H 0.92971 0.03607 0.89242 0.0
H501 H 0.06217 0.0512 0.85544 0.0
H502 H 0.06624 0.01713 0.72821 0.0
H503 H 0.06625 0.0167 0.77356 0.0
C504 C 0.5488 0.47877 0.5968 0.0
C505 C 0.51208 0.49272 0.58474 0.0
C506 C 0.55 0.47852 0.62288 0.0
C507 C 0.49895 0.52336 0.67911 0.0
H508 H 0.54446 0.44009 0.71334 0.0
C509 C 0.47046 0.50239 0.78428 0.0
C510 C 0.50858 0.49462 0.79814 0.0
C511 C 0.47241 0.50218 0.75826 0.0
C512 C 0.532 0.46368 0.704 0.0
H513 H 0.44705 0.51599 0.59053 0.0
H514 H 0.44847 0.5145 0.63559 0.0
H515 H 0.54508 0.43904 0.6678 0.0
H516 H 0.57897 0.48108 0.79525 0.0
H517 H 0.5818 0.47983 0.74984 0.0
H518 H 0.48498 0.54752 0.7153 0.0
C519 C 0.47713 0.5049 0.62514 0.0
C520 C 0.53248 0.46317 0.67792 0.0
C521 C 0.47616 0.50549 0.59922 0.0
C522 C 0.54863 0.48648 0.78524 0.0
C523 C 0.55038 0.48587 0.75921 0.0
C524 C 0.49805 0.52365 0.70511 0.0
C525 C 0.51432 0.49194 0.63738 0.0
C526 C 0.51561 0.49288 0.66513 0.0
C527 C 0.51235 0.49384 0.74546 0.0
C528 C 0.5143 0.49373 0.71783 0.0
H529 H 0.57702 0.46881 0.58612 0.0
H530 H 0.57936 0.46861 0.63167 0.0
H531 H 0.48672 0.54722 0.66997 0.0
H532 H 0.43878 0.50809 0.79348 0.0
H533 H 0.44236 0.50797 0.74811 0.0
C534 C 0.45891 0.52626 0.42532 0.0
C535 C 0.49714 0.51331 0.43656 0.0
C536 C 0.4573 0.52912 0.39945 0.0
C537 C 0.52999 0.54099 0.34409 0.0
H538 H 0.42408 0.4931 0.30762 0.0
C539 C 0.53127 0.52316 0.23689 0.0
C540 C 0.49038 0.52565 0.22401 0.0
C541 C 0.53149 0.52312 0.26291 0.0
C542 C 0.45361 0.50726 0.31748 0.0
H543 H 0.56393 0.49379 0.42956 0.0
H544 H 0.56135 0.49946 0.38445 0.0
H545 H 0.42522 0.49123 0.35294 0.0
H546 H 0.41789 0.53101 0.22816 0.0
H547 H 0.41834 0.53223 0.27361 0.0
H548 H 0.55819 0.5578 0.30889 0.0
C549 C 0.53261 0.50718 0.39566 0.0
C550 C 0.45426 0.50601 0.34346 0.0
C551 C 0.53392 0.50374 0.42145 0.0
C552 C 0.4498 0.52863 0.23765 0.0
C553 C 0.4501 0.52914 0.2637 0.0
C554 C 0.5291 0.54274 0.31815 0.0
C555 C 0.49421 0.51972 0.3844 0.0
C556 C 0.49264 0.52253 0.35697 0.0
C557 C 0.4909 0.52612 0.27669 0.0
C558 C 0.4911 0.52555 0.30445 0.0
H559 H 0.43003 0.5338 0.43648 0.0
H560 H 0.4274 0.53905 0.39121 0.0
H561 H 0.55978 0.55436 0.35412 0.0
H562 H 0.56294 0.52034 0.2268 0.0
H563 H 0.5634 0.51995 0.27215 0.0
loop_
_geom_bond_atom_site_label_1
_geom_bond_atom_site_label_2
_geom_bond_distance
_geom_bond_site_symmetry_2
_ccdc_geom_bond_type
Co0 N5 2.057 . S
Co0 O17 2.021 . S
Co0 O20 2.062 1_455 S
Co0 O24 2.117 1_554 S
Co0 O25 2.020 1_565 S
C1 O21 1.259 1_455 S
C1 O24 1.258 1_545 S
Co2 N11 2.057 . S
Co2 O18 2.117 . S
Co2 O19 2.020 1_545 S
Co2 O21 2.021 1_554 S
Co2 O26 2.062 1_655 S
C3 N5 1.316 . S
C3 N6 1.347 . S
C3 H8 0.931 . S
C4 N5 1.375 1_556 S
C4 C7 1.350 . S
C4 H9 0.930 . S
N5 Co0 2.057 . S
N5 C3 1.316 . S
N5 C4 1.375 1_554 S
N6 C3 1.347 . S
N6 C7 1.373 1_554 S
C7 C4 1.350 . S
C7 N6 1.373 1_556 S
C7 H28 0.931 . S
H8 C3 0.931 . S
H9 C4 0.930 . S
C10 O17 1.259 1_545 S
C10 O18 1.258 1_455 S
N11 Co2 2.057 . S
N11 C12 1.316 . S
N11 C13 1.375 . S
C12 N11 1.316 . S
C12 N14 1.347 . S
C12 H23 0.931 1_554 S
C13 N11 1.375 . S
C13 C15 1.350 . S
C13 H22 0.930 . S
N14 C12 1.347 . S
N14 C15 1.373 . S
C15 C13 1.350 . S
C15 N14 1.373 . S
C15 H29 0.931 . S
C16 O19 1.256 . S
C16 O20 1.255 . S
O17 Co0 2.021 . S
O17 C10 1.259 1_565 S
O18 Co2 2.117 . S
O18 C10 1.258 1_655 S
O19 Co2 2.020 1_565 S
O19 C16 1.256 . S
O20 Co0 2.062 1_655 S
O20 C16 1.255 . S
O21 C1 1.259 1_655 S
O21 Co2 2.021 1_556 S
H22 C13 0.930 . S
H23 C12 0.931 1_556 S
O24 Co0 2.117 1_556 S
O24 C1 1.258 1_565 S
O25 Co0 2.020 1_545 S
O25 C27 1.256 . S
O26 Co2 2.062 1_455 S
O26 C27 1.255 . S
C27 O25 1.256 . S
C27 O26 1.255 . S
H28 C7 0.931 . S
H29 C15 0.931 . S
Co30 N35 2.057 . S
Co30 O47 2.021 . S
Co30 O50 2.062 . S
Co30 O54 2.117 . S
Co30 O55 2.020 . S
C31 O51 1.259 . S
C31 O54 1.258 . S
Co32 N41 2.057 . S
Co32 O48 2.117 . S
Co32 O49 2.020 . S
Co32 O51 2.021 . S
Co32 O56 2.062 . S
C33 N35 1.316 . S
C33 N36 1.347 . S
C33 H38 0.931 . S
C34 N35 1.375 . S
C34 C37 1.350 . S
C34 H39 0.930 . S
N35 Co30 2.057 . S
N35 C33 1.316 . S
N35 C34 1.375 . S
N36 C33 1.347 . S
N36 C37 1.373 . S
C37 C34 1.350 . S
C37 N36 1.373 . S
C37 H58 0.931 . S
H38 C33 0.931 . S
H39 C34 0.930 . S
C40 O47 1.259 . S
C40 O48 1.258 . S
N41 Co32 2.057 . S
N41 C42 1.316 . S
N41 C43 1.375 . S
C42 N41 1.316 . S
C42 N44 1.347 . S
C42 H53 0.931 . S
C43 N41 1.375 . S
C43 C45 1.350 . S
C43 H52 0.930 . S
N44 C42 1.347 . S
N44 C45 1.373 . S
C45 C43 1.350 . S
C45 N44 1.373 . S
C45 H59 0.931 . S
C46 O49 1.256 . S
C46 O50 1.255 . S
O47 Co30 2.021 . S
O47 C40 1.259 . S
O48 Co32 2.117 . S
O48 C40 1.258 . S
O49 Co32 2.020 . S
O49 C46 1.256 . S
O50 Co30 2.062 . S
O50 C46 1.255 . S
O51 C31 1.259 . S
O51 Co32 2.021 . S
H52 C43 0.930 . S
H53 C42 0.931 . S
O54 Co30 2.117 . S
O54 C31 1.258 . S
O55 Co30 2.020 . S
O55 C57 1.256 . S
O56 Co32 2.062 . S
O56 C57 1.255 . S
C57 O55 1.256 . S
C57 O56 1.255 . S
H58 C37 0.931 . S
H59 C45 0.931 . S
C60 C61 1.384 . S
C60 H73 0.947 . S
C60 C95 1.382 . S
C61 C60 1.384 . S
C61 C62 1.378 . S
C62 C61 1.378 . S
C62 C63 1.378 . S
C62 H74 0.952 . S
C63 C62 1.378 . S
C63 H75 0.950 . S
C63 C94 1.383 . S
H64 C83 0.947 . S
H65 C84 0.946 . S
H66 C86 0.953 . S
H67 C87 0.945 . S
H68 C89 0.952 . S
H69 C90 0.949 . S
H70 C92 0.950 . S
H71 C93 0.948 . S
H72 C95 0.951 . S
H73 C60 0.947 . S
H74 C62 0.952 . S
H75 C63 0.950 . S
N76 C79 1.382 1_545 S
N76 C81 1.363 1_455 S
N77 C79 1.371 . S
N77 C80 1.372 1_565 S
N78 C80 1.361 1_655 S
N78 C81 1.377 . S
C79 N76 1.382 1_565 S
C79 N77 1.371 . S
C79 C82 1.480 . S
C80 N77 1.372 1_545 S
C80 N78 1.361 1_455 S
C80 C88 1.457 . S
C81 N76 1.363 1_655 S
C81 N78 1.377 . S
C81 C94 1.479 . S
C82 C79 1.480 . S
C82 C83 1.383 . S
C82 C87 1.385 . S
C83 H64 0.947 . S
C83 C82 1.383 . S
C83 C84 1.388 . S
C84 H65 0.946 . S
C84 C83 1.388 . S
C84 C85 1.384 . S
C85 C84 1.384 . S
C85 C86 1.377 . S
C86 H66 0.953 . S
C86 C85 1.377 . S
C86 C87 1.369 . S
C87 H67 0.945 . S
C87 C82 1.385 . S
C87 C86 1.369 . S
C88 C80 1.457 . S
C88 C89 1.372 1_545 S
C88 C93 1.364 1_455 S
C89 H68 0.952 . S
C89 C88 1.372 1_565 S
C89 C90 1.389 . S
C90 H69 0.949 . S
C90 C89 1.389 . S
C90 C91 1.387 1_565 S
C91 C90 1.387 1_545 S
C91 C92 1.372 1_455 S
C92 H70 0.950 . S
C92 C91 1.372 1_655 S
C92 C93 1.379 . S
C93 H71 0.948 . S
C93 C88 1.364 1_655 S
C93 C92 1.379 . S
C94 C63 1.383 . S
C94 C81 1.479 . S
C94 C95 1.398 . S
C95 C60 1.382 . S
C95 H72 0.951 . S
C95 C94 1.398 . S
C96 C97 1.384 . S
C96 H109 0.947 . S
C96 C131 1.382 . S
C97 C96 1.384 . S
C97 C98 1.378 . S
C98 C97 1.378 . S
C98 C99 1.378 . S
C98 H110 0.952 . S
C99 C98 1.378 . S
C99 H111 0.950 . S
C99 C130 1.383 . S
H100 C119 0.947 . S
H101 C120 0.946 . S
H102 C122 0.953 . S
H103 C123 0.945 . S
H104 C125 0.952 . S
H105 C126 0.949 . S
H106 C128 0.950 . S
H107 C129 0.948 . S
H108 C131 0.951 . S
H109 C96 0.947 . S
H110 C98 0.952 . S
H111 C99 0.950 . S
N112 C115 1.382 . S
N112 C117 1.363 1_445 S
N113 C115 1.371 . S
N113 C116 1.372 . S
N114 C116 1.361 1_665 S
N114 C117 1.377 . S
C115 N112 1.382 . S
C115 N113 1.371 . S
C115 C118 1.480 . S
C116 N113 1.372 . S
C116 N114 1.361 1_445 S
C116 C124 1.457 . S
C117 N112 1.363 1_665 S
C117 N114 1.377 . S
C117 C130 1.479 . S
C118 C115 1.480 . S
C118 C119 1.383 . S
C118 C123 1.385 . S
C119 H100 0.947 . S
C119 C118 1.383 . S
C119 C120 1.388 . S
C120 H101 0.946 . S
C120 C119 1.388 . S
C120 C121 1.384 . S
C121 C120 1.384 . S
C121 C122 1.377 . S
C122 H102 0.953 . S
C122 C121 1.377 . S
C122 C123 1.369 . S
C123 H103 0.945 . S
C123 C118 1.385 . S
C123 C122 1.369 . S
C124 C116 1.457 . S
C124 C125 1.372 . S
C124 C129 1.364 1_445 S
C125 H104 0.952 . S
C125 C124 1.372 . S
C125 C126 1.389 . S
C126 H105 0.949 . S
C126 C125 1.389 . S
C126 C127 1.387 . S
C127 C126 1.387 . S
C127 C128 1.372 1_445 S
C128 H106 0.950 . S
C128 C127 1.372 1_665 S
C128 C129 1.379 . S
C129 H107 0.948 . S
C129 C124 1.364 1_665 S
C129 C128 1.379 . S
C130 C99 1.383 . S
C130 C117 1.479 . S
C130 C131 1.398 . S
C131 C96 1.382 . S
C131 H108 0.951 . S
C131 C130 1.398 . S
C132 C133 1.384 . S
C132 H145 0.947 . S
C132 C167 1.382 . S
C133 C132 1.384 . S
C133 C134 1.378 . S
C134 C133 1.378 . S
C134 C135 1.378 . S
C134 H146 0.952 1_556 S
C135 C134 1.378 . S
C135 H147 0.950 . S
C135 C166 1.383 . S
H136 C155 0.947 . S
H137 C156 0.946 1_554 S
H138 C158 0.953 . S
H139 C159 0.945 . S
H140 C161 0.952 . S
H141 C162 0.949 . S
H142 C164 0.950 . S
H143 C165 0.948 . S
H144 C167 0.951 . S
H145 C132 0.947 . S
H146 C134 0.952 1_554 S
H147 C135 0.950 . S
N148 C151 1.382 . S
N148 C153 1.363 . S
N149 C151 1.371 . S
N149 C152 1.372 . S
N150 C152 1.361 . S
N150 C153 1.377 . S
C151 N148 1.382 . S
C151 N149 1.371 . S
C151 C154 1.480 . S
C152 N149 1.372 . S
C152 N150 1.361 . S
C152 C160 1.457 . S
C153 N148 1.363 . S
C153 N150 1.377 . S
C153 C166 1.479 . S
C154 C151 1.480 . S
C154 C155 1.383 . S
C154 C159 1.385 . S
C155 H136 0.947 . S
C155 C154 1.383 . S
C155 C156 1.388 . S
C156 H137 0.946 1_556 S
C156 C155 1.388 . S
C156 C157 1.384 . S
C157 C156 1.384 . S
C157 C158 1.377 . S
C158 H138 0.953 . S
C158 C157 1.377 . S
C158 C159 1.369 . S
C159 H139 0.945 . S
C159 C154 1.385 . S
C159 C158 1.369 . S
C160 C152 1.457 . S
C160 C161 1.372 . S
C160 C165 1.364 . S
C161 H140 0.952 . S
C161 C160 1.372 . S
C161 C162 1.389 . S
C162 H141 0.949 . S
C162 C161 1.389 . S
C162 C163 1.387 . S
C163 C162 1.387 . S
C163 C164 1.372 . S
C164 H142 0.950 . S
C164 C163 1.372 . S
C164 C165 1.379 . S
C165 H143 0.948 . S
C165 C160 1.364 . S
C165 C164 1.379 . S
C166 C135 1.383 . S
C166 C153 1.479 . S
C166 C167 1.398 . S
C167 C132 1.382 . S
C167 H144 0.951 . S
C167 C166 1.398 . S
C168 C169 1.384 . S
C168 H181 0.947 . S
C168 C203 1.382 . S
C169 C168 1.384 . S
C169 C170 1.378 . S
C170 C169 1.378 . S
C170 C171 1.378 . S
C170 H182 0.952 . S
C171 C170 1.378 . S
C171 H183 0.950 . S
C171 C202 1.383 . S
H172 C191 0.947 . S
H173 C192 0.946 . S
H174 C194 0.953 . S
H175 C195 0.945 . S
H176 C197 0.952 . S
H177 C198 0.949 . S
H178 C200 0.950 . S
H179 C201 0.948 . S
H180 C203 0.951 . S
H181 C168 0.947 . S
H182 C170 0.952 . S
H183 C171 0.950 . S
N184 C187 1.382 . S
N184 C189 1.363 . S
N185 C187 1.371 . S
N185 C188 1.372 . S
N186 C188 1.361 . S
N186 C189 1.377 . S
C187 N184 1.382 . S
C187 N185 1.371 . S
C187 C190 1.480 . S
C188 N185 1.372 . S
C188 N186 1.361 . S
C188 C196 1.457 . S
C189 N184 1.363 . S
C189 N186 1.377 . S
C189 C202 1.479 . S
C190 C187 1.480 . S
C190 C191 1.383 . S
C190 C195 1.385 . S
C191 H172 0.947 . S
C191 C190 1.383 . S
C191 C192 1.388 . S
C192 H173 0.946 . S
C192 C191 1.388 . S
C192 C193 1.384 . S
C193 C192 1.384 . S
C193 C194 1.377 . S
C194 H174 0.953 . S
C194 C193 1.377 . S
C194 C195 1.369 . S
C195 H175 0.945 . S
C195 C190 1.385 . S
C195 C194 1.369 . S
C196 C188 1.457 . S
C196 C197 1.372 . S
C196 C201 1.364 . S
C197 H176 0.952 . S
C197 C196 1.372 . S
C197 C198 1.389 . S
C198 H177 0.949 . S
C198 C197 1.389 . S
C198 C199 1.387 . S
C199 C198 1.387 . S
C199 C200 1.372 . S
C200 H178 0.950 . S
C200 C199 1.372 . S
C200 C201 1.379 . S
C201 H179 0.948 . S
C201 C196 1.364 . S
C201 C200 1.379 . S
C202 C171 1.383 . S
C202 C189 1.479 . S
C202 C203 1.398 . S
C203 C168 1.382 . S
C203 H180 0.951 . S
C203 C202 1.398 . S
C204 C205 1.349 1_556 S
C204 C206 1.330 . S
C204 H229 0.950 . S
C205 C204 1.349 1_554 S
C205 C221 1.349 . S
C206 C204 1.330 . S
C206 C225 1.401 1_556 S
C206 H230 0.976 . S
C207 C224 1.574 . S
C207 C226 1.368 . S
C207 H231 0.949 . S
H208 C212 0.949 1_556 S
C209 C210 1.349 . S
C209 C211 1.327 . S
C209 H232 0.950 . S
C210 C209 1.349 . S
C210 C222 1.349 . S
C211 C209 1.327 . S
C211 C227 1.429 . S
C211 H233 0.950 . S
C212 H208 0.949 1_554 S
C212 C220 1.574 . S
C212 C228 1.368 . S
H213 C221 0.950 . S
H214 C219 0.950 . S
H215 C220 0.949 1_556 S
H216 C222 0.950 . S
H217 C223 0.949 1_556 S
H218 C224 0.949 . S
C219 H214 0.950 . S
C219 C221 1.327 . S
C219 C225 1.429 . S
C220 C212 1.574 . S
C220 H215 0.949 1_554 S
C220 C226 1.368 . S
C221 C205 1.349 . S
C221 H213 0.950 . S
C221 C219 1.327 . S
C222 C210 1.349 . S
C222 H216 0.950 . S
C222 C223 1.327 . S
C223 H217 0.949 1_554 S
C223 C222 1.327 . S
C223 C227 1.429 . S
C224 C207 1.574 . S
C224 H218 0.949 . S
C224 C228 1.368 . S
C225 C206 1.401 1_554 S
C225 C219 1.429 . S
C225 C226 1.523 . S
C226 C207 1.368 . S
C226 C220 1.368 . S
C226 C225 1.523 . S
C227 C211 1.429 . S
C227 C223 1.429 . S
C227 C228 1.523 . S
C228 C212 1.368 . S
C228 C224 1.368 . S
C228 C227 1.523 . S
H229 C204 0.950 . S
H230 C206 0.976 . S
H231 C207 0.949 . S
H232 C209 0.950 . S
H233 C211 0.950 . S
C234 C235 1.349 . S
C234 C236 1.327 . S
C234 H259 0.950 . S
C235 C234 1.349 . S
C235 C251 1.349 1_554 S
C236 C234 1.327 . S
C236 C255 1.429 . S
C236 H260 0.950 . S
C237 C254 1.574 . S
C237 C256 1.368 1_556 S
C237 H261 0.949 . S
H238 C242 0.949 . S
C239 C240 1.349 . S
C239 C241 1.327 . S
C239 H262 0.950 . S
C240 C239 1.349 . S
C240 C252 1.349 1_556 S
C241 C239 1.327 . S
C241 C257 1.429 . S
C241 H263 0.950 . S
C242 H238 0.949 . S
C242 C250 1.574 . S
C242 C258 1.368 1_554 S
H243 C251 0.950 . S
H244 C249 0.950 . S
H245 C250 0.949 . S
H246 C252 0.950 . S
H247 C253 0.950 . S
H248 C254 0.949 . S
C249 H244 0.950 . S
C249 C251 1.327 . S
C249 C255 1.429 1_556 S
C250 C242 1.574 . S
C250 H245 0.949 . S
C250 C256 1.368 . S
C251 C235 1.349 1_556 S
C251 H243 0.950 . S
C251 C249 1.327 . S
C252 C240 1.349 1_554 S
C252 H246 0.950 . S
C252 C253 1.327 . S
C253 H247 0.950 . S
C253 C252 1.327 . S
C253 C257 1.429 1_554 S
C254 C237 1.574 . S
C254 H248 0.949 . S
C254 C258 1.368 . S
C255 C236 1.429 . S
C255 C249 1.429 1_554 S
C255 C256 1.523 . S
C256 C237 1.368 1_554 S
C256 C250 1.368 . S
C256 C255 1.523 . S
C257 C241 1.429 . S
C257 C253 1.429 1_556 S
C257 C258 1.523 . S
C258 C242 1.368 1_556 S
C258 C254 1.368 . S
C258 C257 1.523 . S
H259 C234 0.950 . S
H260 C236 0.950 . S
H261 C237 0.949 . S
H262 C239 0.950 . S
H263 C241 0.950 . S
C264 C265 1.349 . S
C264 C266 1.327 . S
C264 H289 0.950 . S
C265 C264 1.349 . S
C265 C281 1.349 . S
C266 C264 1.327 . S
C266 C285 1.429 . S
C266 H290 0.950 . S
C267 C284 1.574 . S
C267 C286 1.368 . S
C267 H291 0.949 . S
H268 C272 0.949 . S
C269 C270 1.349 . S
C269 C271 1.327 . S
C269 H292 0.950 . S
C270 C269 1.349 . S
C270 C282 1.349 . S
C271 C269 1.327 . S
C271 C287 1.429 . S
C271 H293 0.950 . S
C272 H268 0.949 . S
C272 C280 1.574 . S
C272 C288 1.368 . S
H273 C281 0.950 1_556 S
H274 C279 0.943 1_556 S
H275 C280 0.949 . S
H276 C282 0.950 . S
H277 C283 0.950 . S
H278 C284 0.949 . S
C279 H274 0.943 1_554 S
C279 C281 1.327 . S
C279 C285 1.429 . S
C280 C272 1.574 . S
C280 H275 0.949 . S
C280 C286 1.368 . S
C281 C265 1.349 . S
C281 H273 0.950 1_554 S
C281 C279 1.327 . S
C282 C270 1.349 . S
C282 H276 0.950 . S
C282 C283 1.327 . S
C283 H277 0.950 . S
C283 C282 1.327 . S
C283 C287 1.429 . S
C284 C267 1.574 . S
C284 H278 0.949 . S
C284 C288 1.368 . S
C285 C266 1.429 . S
C285 C279 1.429 . S
C285 C286 1.523 . S
C286 C267 1.368 . S
C286 C280 1.368 . S
C286 C285 1.523 . S
C287 C271 1.429 . S
C287 C283 1.429 . S
C287 C288 1.523 . S
C288 C272 1.368 . S
C288 C284 1.368 . S
C288 C287 1.523 . S
H289 C264 0.950 . S
H290 C266 0.950 . S
H291 C267 0.949 . S
H292 C269 0.950 . S
H293 C271 0.950 . S
C294 C295 1.349 . S
C294 C296 1.327 . S
C294 H319 0.950 . S
C295 C294 1.349 . S
C295 C311 1.349 1_554 S
C296 C294 1.327 . S
C296 C315 1.429 . S
C296 H320 0.950 . S
C297 C314 1.574 . S
C297 C316 1.389 . S
C297 H321 0.949 . S
H298 C302 0.949 . S
C299 C300 1.349 . S
C299 C301 1.327 . S
C299 H322 0.950 . S
C300 C299 1.349 . S
C300 C312 1.349 1_556 S
C301 C299 1.327 . S
C301 C317 1.429 . S
C301 H323 0.950 . S
C302 H298 0.949 . S
C302 C310 1.574 . S
C302 C318 1.368 1_554 S
H303 C311 0.950 . S
H304 C309 0.950 . S
H305 C310 0.949 . S
H306 C312 0.950 . S
H307 C313 0.950 . S
H308 C314 0.949 . S
C309 H304 0.950 . S
C309 C311 1.327 . S
C309 C315 1.429 1_556 S
C310 C302 1.574 . S
C310 H305 0.949 . S
C310 C316 1.351 1_554 S
C311 C295 1.349 1_556 S
C311 H303 0.950 . S
C311 C309 1.327 . S
C312 C300 1.349 1_554 S
C312 H306 0.950 . S
C312 C313 1.327 . S
C313 H307 0.950 . S
C313 C312 1.327 . S
C313 C317 1.429 1_554 S
C314 C297 1.574 . S
C314 H308 0.949 . S
C314 C318 1.368 . S
C315 C296 1.429 . S
C315 C309 1.429 1_554 S
C315 C316 1.519 1_554 S
C316 C297 1.389 . S
C316 C310 1.351 1_556 S
C316 C315 1.519 1_556 S
C317 C301 1.429 . S
C317 C313 1.429 1_556 S
C317 C318 1.523 . S
C318 C302 1.368 1_556 S
C318 C314 1.368 . S
C318 C317 1.523 . S
H319 C294 0.950 . S
H320 C296 0.950 . S
H321 C297 0.949 . S
H322 C299 0.950 . S
H323 C301 0.950 . S
C324 C325 1.349 . S
C324 C326 1.327 . S
C324 H349 0.950 . S
C325 C324 1.349 . S
C325 C341 1.349 . S
C326 C324 1.327 . S
C326 C345 1.429 . S
C326 H350 0.950 . S
C327 C344 1.574 . S
C327 C346 1.368 . S
C327 H351 0.949 . S
H328 C332 0.949 . S
C329 C330 1.349 . S
C329 C331 1.327 . S
C329 H352 0.950 . S
C330 C329 1.349 . S
C330 C342 1.349 . S
C331 C329 1.327 . S
C331 C347 1.429 . S
C331 H353 0.950 . S
C332 H328 0.949 . S
C332 C340 1.574 . S
C332 C348 1.368 . S
H333 C341 0.950 . S
H334 C339 0.950 . S
H335 C340 0.949 . S
H336 C342 0.950 . S
H337 C343 0.950 . S
H338 C344 0.949 . S
C339 H334 0.950 . S
C339 C341 1.327 . S
C339 C345 1.429 . S
C340 C332 1.574 . S
C340 H335 0.949 . S
C340 C346 1.368 . S
C341 C325 1.349 . S
C341 H333 0.950 . S
C341 C339 1.327 . S
C342 C330 1.349 . S
C342 H336 0.950 . S
C342 C343 1.327 . S
C343 H337 0.950 . S
C343 C342 1.327 . S
C343 C347 1.429 . S
C344 C327 1.574 . S
C344 H338 0.949 . S
C344 C348 1.368 . S
C345 C326 1.429 . S
C345 C339 1.429 . S
C345 C346 1.523 . S
C346 C327 1.368 . S
C346 C340 1.368 . S
C346 C345 1.523 . S
C347 C331 1.429 . S
C347 C343 1.429 . S
C347 C348 1.523 . S
C348 C332 1.368 . S
C348 C344 1.368 . S
C348 C347 1.523 . S
H349 C324 0.950 . S
H350 C326 0.950 . S
H351 C327 0.949 . S
H352 C329 0.950 . S
H353 C331 0.950 . S
C354 C355 1.349 . S
C354 C356 1.327 . S
C354 H379 0.950 . S
C355 C354 1.349 . S
C355 C371 1.349 . S
C356 C354 1.327 . S
C356 C375 1.429 . S
C356 H380 0.950 . S
C357 C374 1.574 . S
C357 C376 1.368 . S
C357 H381 0.949 . S
H358 C362 0.949 . S
C359 C360 1.349 . S
C359 C361 1.327 . S
C359 H382 0.950 . S
C360 C359 1.349 . S
C360 C372 1.349 . S
C361 C359 1.327 . S
C361 C377 1.429 . S
C361 H383 0.950 . S
C362 H358 0.949 . S
C362 C370 1.574 . S
C362 C378 1.368 . S
H363 C371 0.950 . S
H364 C369 0.950 . S
H365 C370 0.949 . S
H366 C372 0.950 . S
H367 C373 0.950 . S
H368 C374 0.949 . S
C369 H364 0.950 . S
C369 C371 1.327 . S
C369 C375 1.429 . S
C370 C362 1.574 . S
C370 H365 0.949 . S
C370 C376 1.368 . S
C371 C355 1.349 . S
C371 H363 0.950 . S
C371 C369 1.327 . S
C372 C360 1.349 . S
C372 H366 0.950 . S
C372 C373 1.327 . S
C373 H367 0.950 . S
C373 C372 1.327 . S
C373 C377 1.429 . S
C374 C357 1.574 . S
C374 H368 0.949 . S
C374 C378 1.368 . S
C375 C356 1.429 . S
C375 C369 1.429 . S
C375 C376 1.523 . S
C376 C357 1.368 . S
C376 C370 1.368 . S
C376 C375 1.523 . S
C377 C361 1.429 . S
C377 C373 1.429 . S
C377 C378 1.523 . S
C378 C362 1.368 . S
C378 C374 1.368 . S
C378 C377 1.523 . S
H379 C354 0.950 . S
H380 C356 0.950 . S
H381 C357 0.949 . S
H382 C359 0.950 . S
H383 C361 0.950 . S
C384 C385 1.349 . S
C384 C386 1.327 . S
C384 H409 0.950 . S
C385 C384 1.349 . S
C385 C401 1.349 . S
C386 C384 1.327 . S
C386 C405 1.429 . S
C386 H410 0.950 . S
C387 C404 1.574 . S
C387 C406 1.368 . S
C387 H411 0.949 . S
H388 C392 0.949 . S
C389 C390 1.349 . S
C389 C391 1.327 . S
C389 H412 0.950 . S
C390 C389 1.349 . S
C390 C402 1.349 . S
C391 C389 1.327 . S
C391 C407 1.429 . S
C391 H413 0.950 . S
C392 H388 0.949 . S
C392 C400 1.574 . S
C392 C408 1.368 . S
H393 C401 0.950 . S
H394 C399 0.950 . S
H395 C400 0.949 . S
H396 C402 0.950 . S
H397 C403 0.950 . S
H398 C404 0.949 . S
C399 H394 0.950 . S
C399 C401 1.327 . S
C399 C405 1.429 . S
C400 C392 1.574 . S
C400 H395 0.949 . S
C400 C406 1.368 . S
C401 C385 1.349 . S
C401 H393 0.950 . S
C401 C399 1.327 . S
C402 C390 1.349 . S
C402 H396 0.950 . S
C402 C403 1.327 . S
C403 H397 0.950 . S
C403 C402 1.327 . S
C403 C407 1.429 . S
C404 C387 1.574 . S
C404 H398 0.949 . S
C404 C408 1.368 . S
C405 C386 1.429 . S
C405 C399 1.429 . S
C405 C406 1.523 . S
C406 C387 1.368 . S
C406 C400 1.368 . S
C406 C405 1.523 . S
C407 C391 1.429 . S
C407 C403 1.429 . S
C407 C408 1.523 . S
C408 C392 1.368 . S
C408 C404 1.368 . S
C408 C407 1.523 . S
H409 C384 0.950 . S
H410 C386 0.950 . S
H411 C387 0.949 . S
H412 C389 0.950 . S
H413 C391 0.950 . S
C414 C415 1.349 . S
C414 C416 1.327 . S
C414 H439 0.950 . S
C415 C414 1.349 . S
C415 C431 1.349 . S
C416 C414 1.327 . S
C416 C435 1.429 . S
C416 H440 0.950 . S
C417 C434 1.574 . S
C417 C436 1.368 . S
C417 H441 0.949 . S
H418 C422 0.949 . S
C419 C420 1.349 . S
C419 C421 1.327 . S
C419 H442 0.950 . S
C420 C419 1.349 . S
C420 C432 1.349 . S
C421 C419 1.327 . S
C421 C437 1.429 . S
C421 H443 0.950 . S
C422 H418 0.949 . S
C422 C430 1.574 . S
C422 C438 1.368 . S
H423 C431 0.950 . S
H424 C429 0.950 . S
H425 C430 0.949 . S
H426 C432 0.950 . S
H427 C433 0.950 . S
H428 C434 0.949 . S
C429 H424 0.950 . S
C429 C431 1.327 . S
C429 C435 1.429 . S
C430 C422 1.574 . S
C430 H425 0.949 . S
C430 C436 1.368 . S
C431 C415 1.349 . S
C431 H423 0.950 . S
C431 C429 1.327 . S
C432 C420 1.349 . S
C432 H426 0.950 . S
C432 C433 1.327 . S
C433 H427 0.950 . S
C433 C432 1.327 . S
C433 C437 1.429 . S
C434 C417 1.574 . S
C434 H428 0.949 . S
C434 C438 1.368 . S
C435 C416 1.429 . S
C435 C429 1.429 . S
C435 C436 1.523 . S
C436 C417 1.368 . S
C436 C430 1.368 . S
C436 C435 1.523 . S
C437 C421 1.429 . S
C437 C433 1.429 . S
C437 C438 1.523 . S
C438 C422 1.368 . S
C438 C434 1.368 . S
C438 C437 1.523 . S
H439 C414 0.950 . S
H440 C416 0.950 . S
H441 C417 0.949 . S
H442 C419 0.950 . S
H443 C421 0.950 . S
C444 C445 1.349 1_655 S
C444 C446 1.327 . S
C444 H469 0.950 . S
C445 C444 1.349 1_455 S
C445 C461 1.349 1_545 S
C446 C444 1.327 . S
C446 C465 1.429 1_655 S
C446 H470 0.950 . S
C447 C464 1.574 . S
C447 C466 1.368 1_565 S
C447 H471 0.949 . S
H448 C452 0.949 . S
C449 C450 1.349 . S
C449 C451 1.327 . S
C449 H472 0.950 . S
C450 C449 1.349 . S
C450 C462 1.349 1_465 S
C451 C449 1.327 . S
C451 C467 1.429 1_565 S
C451 H473 0.950 . S
C452 H448 0.949 . S
C452 C460 1.574 . S
C452 C468 1.368 1_655 S
H453 C461 0.950 . S
H454 C459 0.950 . S
H455 C460 0.949 . S
H456 C462 0.950 . S
H457 C463 0.950 . S
H458 C464 0.949 . S
C459 H454 0.950 . S
C459 C461 1.327 . S
C459 C465 1.429 1_565 S
C460 C452 1.574 . S
C460 H455 0.949 . S
C460 C466 1.368 1_655 S
C461 C445 1.349 1_565 S
C461 H453 0.950 . S
C461 C459 1.327 . S
C462 C450 1.349 1_645 S
C462 H456 0.950 . S
C462 C463 1.327 . S
C463 H457 0.950 . S
C463 C462 1.327 . S
C463 C467 1.429 1_655 S
C464 C447 1.574 . S
C464 H458 0.949 . S
C464 C468 1.368 1_565 S
C465 C446 1.429 1_455 S
C465 C459 1.429 1_545 S
C465 C466 1.523 . S
C466 C447 1.368 1_545 S
C466 C460 1.368 1_455 S
C466 C465 1.523 . S
C467 C451 1.429 1_545 S
C467 C463 1.429 1_455 S
C467 C468 1.523 . S
C468 C452 1.368 1_455 S
C468 C464 1.368 1_545 S
C468 C467 1.523 . S
H469 C444 0.950 . S
H470 C446 0.950 . S
H471 C447 0.949 . S
H472 C449 0.950 . S
H473 C451 0.950 . S
C474 C475 1.349 1_665 S
C474 C476 1.327 . S
C474 H499 0.950 . S
C475 C474 1.349 1_445 S
C475 C491 1.349 . S
C476 C474 1.327 . S
C476 C495 1.429 1_665 S
C476 H500 0.950 . S
C477 C494 1.574 . S
C477 C496 1.368 . S
C477 H501 0.949 . S
H478 C482 0.949 . S
C479 C480 1.349 . S
C479 C481 1.327 . S
C479 H502 0.950 . S
C480 C479 1.349 . S
C480 C492 1.349 1_445 S
C481 C479 1.327 . S
C481 C497 1.429 . S
C481 H503 0.950 . S
C482 H478 0.949 . S
C482 C490 1.574 . S
C482 C498 1.368 1_665 S
H483 C491 0.950 . S
H484 C489 0.950 . S
H485 C490 0.949 . S
H486 C492 0.950 . S
H487 C493 0.950 . S
H488 C494 0.949 . S
C489 H484 0.950 . S
C489 C491 1.327 . S
C489 C495 1.429 . S
C490 C482 1.574 . S
C490 H485 0.949 . S
C490 C496 1.368 1_665 S
C491 C475 1.349 . S
C491 H483 0.950 . S
C491 C489 1.327 . S
C492 C480 1.349 1_665 S
C492 H486 0.950 . S
C492 C493 1.327 . S
C493 H487 0.950 . S
C493 C492 1.327 . S
C493 C497 1.429 1_665 S
C494 C477 1.574 . S
C494 H488 0.949 . S
C494 C498 1.368 . S
C495 C476 1.429 1_445 S
C495 C489 1.429 . S
C495 C496 1.523 . S
C496 C477 1.368 . S
C496 C490 1.368 1_445 S
C496 C495 1.523 . S
C497 C481 1.429 . S
C497 C493 1.429 1_445 S
C497 C498 1.523 . S
C498 C482 1.368 1_445 S
C498 C494 1.368 . S
C498 C497 1.523 . S
H499 C474 0.950 . S
H500 C476 0.950 . S
H501 C477 0.949 . S
H502 C479 0.950 . S
H503 C481 0.950 . S
C504 C505 1.349 . S
C504 C506 1.327 . S
C504 H529 0.950 . S
C505 C504 1.349 . S
C505 C521 1.349 . S
C506 C504 1.327 . S
C506 C525 1.429 . S
C506 H530 0.950 . S
C507 C524 1.574 . S
C507 C526 1.368 . S
C507 H531 0.949 . S
H508 C512 0.949 . S
C509 C510 1.349 . S
C509 C511 1.327 . S
C509 H532 0.950 . S
C510 C509 1.349 . S
C510 C522 1.349 . S
C511 C509 1.327 . S
C511 C527 1.429 . S
C511 H533 0.950 . S
C512 H508 0.949 . S
C512 C520 1.574 . S
C512 C528 1.368 . S
H513 C521 0.950 . S
H514 C519 0.950 . S
H515 C520 0.949 . S
H516 C522 0.950 . S
H517 C523 0.950 . S
H518 C524 0.949 . S
C519 H514 0.950 . S
C519 C521 1.327 . S
C519 C525 1.429 . S
C520 C512 1.574 . S
C520 H515 0.949 . S
C520 C526 1.368 . S
C521 C505 1.349 . S
C521 H513 0.950 . S
C521 C519 1.327 . S
C522 C510 1.349 . S
C522 H516 0.950 . S
C522 C523 1.327 . S
C523 H517 0.950 . S
C523 C522 1.327 . S
C523 C527 1.429 . S
C524 C507 1.574 . S
C524 H518 0.949 . S
C524 C528 1.368 . S
C525 C506 1.429 . S
C525 C519 1.429 . S
C525 C526 1.523 . S
C526 C507 1.368 . S
C526 C520 1.368 . S
C526 C525 1.523 . S
C527 C511 1.429 . S
C527 C523 1.429 . S
C527 C528 1.523 . S
C528 C512 1.368 . S
C528 C524 1.368 . S
C528 C527 1.523 . S
H529 C504 0.950 . S
H530 C506 0.950 . S
H531 C507 0.949 . S
H532 C509 0.950 . S
H533 C511 0.950 . S
C534 C535 1.349 . S
C534 C536 1.327 . S
C534 H559 0.950 . S
C535 C534 1.349 . S
C535 C551 1.349 . S
C536 C534 1.327 . S
C536 C555 1.429 . S
C536 H560 0.950 . S
C537 C554 1.574 . S
C537 C556 1.368 . S
C537 H561 0.949 . S
H538 C542 0.949 . S
C539 C540 1.349 . S
C539 C541 1.327 . S
C539 H562 0.950 . S
C540 C539 1.349 . S
C540 C552 1.349 . S
C541 C539 1.327 . S
C541 C557 1.429 . S
C541 H563 0.950 . S
C542 H538 0.949 . S
C542 C550 1.574 . S
C542 C558 1.368 . S
H543 C551 0.950 . S
H544 C549 0.950 . S
H545 C550 0.949 . S
H546 C552 0.950 . S
H547 C553 0.950 . S
H548 C554 0.949 . S
C549 H544 0.950 . S
C549 C551 1.327 . S
C549 C555 1.429 . S
C550 C542 1.574 . S
C550 H545 0.949 . S
C550 C556 1.368 . S
C551 C535 1.349 . S
C551 H543 0.950 . S
C551 C549 1.327 . S
C552 C540 1.349 . S
C552 H546 0.950 . S
C552 C553 1.327 . S
C553 H547 0.950 . S
C553 C552 1.327 . S
C553 C557 1.429 . S
C554 C537 1.574 . S
C554 H548 0.949 . S
C554 C558 1.368 . S
C555 C536 1.429 . S
C555 C549 1.429 . S
C555 C556 1.523 . S
C556 C537 1.368 . S
C556 C550 1.368 . S
C556 C555 1.523 . S
C557 C541 1.429 . S
C557 C553 1.429 . S
C557 C558 1.523 . S
C558 C542 1.368 . S
C558 C554 1.368 . S
C558 C557 1.523 . S
H559 C534 0.950 . S
H560 C536 0.950 . S
H561 C537 0.949 . S
H562 C539 0.950 . S
H563 C541 0.950 . S
C210 C169 1.389 . S
C205 C27 1.413 . S
C235 N6 1.320 . S
C240 C133 1.348 . S
C265 C16 1.397 . S
C270 C193 1.358 . S
C295 N14 1.340 . S
C300 C157 1.322 . S
C325 C57 1.413 . S
C330 C97 1.390 . S
C355 N36 1.319 . S
C360 C61 1.348 . S
C390 C121 1.358 . S
C385 C46 1.397 . S
C420 C85 1.321 . S
C415 N44 1.340 . S
C445 C10 1.385 . S
C450 C91 1.383 1_565 S
C475 C1 1.525 . S
C480 C127 1.524 . S
C510 C163 1.384 . S
C505 C40 1.385 . S
C535 C31 1.524 . S
C540 C199 1.523 . S
