# Generated by pormake.
# Topology zzz, (3,6)-cn, num edge types: 1
# Building blocks:
#     Node 0, Type 0, BuildingBlock: BETDAH_clean_linker_0, # of connection points: 3
#     Node 1, Type 0, BuildingBlock: BETDAH_clean_linker_0, # of connection points: 3
#     Node 2, Type 0, BuildingBlock: BETDAH_clean_linker_0, # of connection points: 3
#     Node 3, Type 0, BuildingBlock: BETDAH_clean_linker_0, # of connection points: 3
#     Node 4, Type 0, BuildingBlock: BETDAH_clean_linker_0, # of connection points: 3
#     Node 5, Type 0, BuildingBlock: BETDAH_clean_linker_0, # of connection points: 3
#     Node 6, Type 0, BuildingBlock: BETDAH_clean_linker_0, # of connection points: 3
#     Node 7, Type 0, BuildingBlock: BETDAH_clean_linker_0, # of connection points: 3
#     Node 8, Type 1, BuildingBlock: PAMTOO_clean_sbu_0, # of connection points: 6
#     Node 9, Type 1, BuildingBlock: PAMTOO_clean_sbu_0, # of connection points: 6
#     Node 10, Type 1, BuildingBlock: PAMTOO_clean_sbu_0, # of connection points: 6
#     Node 11, Type 1, BuildingBlock: PAMTOO_clean_sbu_0, # of connection points: 6
#     Edge 12, Type (0, 1), None
#     Edge 13, Type (0, 1), None
#     Edge 14, Type (0, 1), None
#     Edge 15, Type (0, 1), None
#     Edge 16, Type (0, 1), None
#     Edge 17, Type (0, 1), None
#     Edge 18, Type (0, 1), None
#     Edge 19, Type (0, 1), None
#     Edge 20, Type (0, 1), None
#     Edge 21, Type (0, 1), None
#     Edge 22, Type (0, 1), None
#     Edge 23, Type (0, 1), None
#     Edge 24, Type (0, 1), None
#     Edge 25, Type (0, 1), None
#     Edge 26, Type (0, 1), None
#     Edge 27, Type (0, 1), None
#     Edge 28, Type (0, 1), None
#     Edge 29, Type (0, 1), None
#     Edge 30, Type (0, 1), None
#     Edge 31, Type (0, 1), None
#     Edge 32, Type (0, 1), None
#     Edge 33, Type (0, 1), None
#     Edge 34, Type (0, 1), None
#     Edge 35, Type (0, 1), None
# Relax obj value: 0.507
# Max RMSD: 0.297
# Mean RMSD: 0.138
data_MOF--net-zzz--node1-PAMTOO_clean_sbu_0--node2-BETDAH_clean_linker_0--edge1-none
_symmetry_space_group_name_H-M    P1
_symmetry_Int_Tables_number       1
_symmetry_cell_setting            triclinic
loop_
_symmetry_equiv_pos_as_xyz
'x, y, z'
_cell_length_a     27.332028
_cell_length_b     21.203701
_cell_length_c     8.0588807
_cell_angle_alpha  95.380096
_cell_angle_beta   72.929012
_cell_angle_gamma 87.43995
loop_
_atom_site_label
_atom_site_type_symbol
_atom_site_fract_x
_atom_site_fract_y
_atom_site_fract_z
_atom_type_partial_charge
H0 H 0.99517 0.61036 0.6061 0.0
H1 H 0.84425 0.63402 0.62237 0.0
H2 H 0.88271 0.55265 0.0429 0.0
C3 C 0.95598 0.61304 0.68504 0.0
C4 C 0.94482 0.59495 0.85523 0.0
C5 C 0.92049 0.6036 0.59437 0.0
C6 C 0.87088 0.62238 0.69314 0.0
C7 C 0.8546 0.59115 0.84289 0.0
C8 C 0.89228 0.5798 0.93313 0.0
N9 N 0.81066 0.5546 0.85925 0.0
C10 C 0.78815 0.54535 0.72142 0.0
H11 H 0.16839 0.84664 0.69867 0.0
H12 H 0.12625 0.72039 0.32288 0.0
H13 H 1.01118 0.80776 0.78107 0.0
C14 C 0.1403 0.8201 0.65793 0.0
C15 C 0.0889 0.83275 0.75694 0.0
C16 C 0.15422 0.78396 0.49328 0.0
C17 C 0.11657 0.74936 0.44709 0.0
C18 C 1.06557 0.75456 0.55448 0.0
C19 C 1.05129 0.79884 0.70605 0.0
N20 N 1.02798 0.71924 0.50404 0.0
C21 C 1.04049 0.67058 0.36465 0.0
H22 H 0.69504 0.08209 0.60865 0.0
H23 H 0.85821 0.06718 0.3766 0.0
H24 H 0.78655 0.93705 0.74515 0.0
C25 C 0.73215 0.05904 0.59966 0.0
C26 C 0.73305 1.00642 0.68987 0.0
C27 C 0.77672 0.08067 0.4889 0.0
C28 C 0.82495 0.05086 0.46829 0.0
C29 C 0.83026 0.99927 0.55967 0.0
C30 C 0.78351 0.97663 0.67232 0.0
N31 N 0.8816 0.97027 0.53651 0.0
C32 C 0.9293 0.98636 0.42085 0.0
H33 H 0.52973 0.56495 0.51916 0.0
H34 H 0.54738 0.72878 0.23913 0.0
H35 H 0.61326 0.71855 0.66342 0.0
C36 C 0.54224 0.61268 0.50897 0.0
C37 C 0.5718 0.63594 0.61383 0.0
C38 C 0.5344 0.64463 0.37397 0.0
C39 C 0.55222 0.70579 0.34849 0.0
C40 C 0.58001 0.73506 0.4516 0.0
C41 C 0.59083 0.69839 0.58398 0.0
N42 N 0.59914 0.79822 0.41956 0.0
C43 C 0.59223 0.844 0.30284 0.0
H44 H 0.24273 0.56532 0.03698 0.0
H45 H 0.33805 0.46519 0.27192 0.0
H46 H 0.20778 0.37888 0.17844 0.0
C47 C 0.25165 0.52314 0.09082 0.0
C48 C 0.21906 0.47303 0.09766 0.0
C49 C 0.2915 0.52323 0.17004 0.0
C50 C 0.30504 0.46696 0.22538 0.0
C51 C 0.27319 0.41679 0.24426 0.0
C52 C 0.23097 0.41867 0.17361 0.0
N53 N 0.28163 0.3681 0.34708 0.0
C54 C 0.31354 0.37557 0.45642 0.0
H55 H 0.99079 0.21004 0.22719 0.0
H56 H 1.0377 0.35391 0.5414 0.0
H57 H 0.15054 0.2231 0.17323 0.0
C58 C 1.02091 0.23706 0.25436 0.0
C59 C 1.07128 0.2107 0.18464 0.0
C60 C 1.00925 0.27866 0.40824 0.0
C61 C 1.0475 0.31802 0.42982 0.0
C62 C 0.09935 0.29977 0.34105 0.0
C63 C 0.1112 0.24316 0.22466 0.0
N64 N 0.1392 0.33163 0.38715 0.0
C65 C 0.1302 0.38409 0.51439 0.0
H66 H 0.44432 0.93418 0.38529 0.0
H67 H 0.28412 0.96605 0.66404 0.0
H68 H 0.35728 0.09273 0.28826 0.0
C69 C 0.40793 0.96115 0.40598 0.0
C70 C 0.40852 0.01635 0.32564 0.0
C71 C 0.3637 0.94302 0.52625 0.0
C72 C 0.3169 0.97896 0.56322 0.0
C73 C 0.31231 0.03141 0.47361 0.0
C74 C 0.35926 0.05129 0.35552 0.0
N75 N 0.26172 0.06386 0.50273 0.0
C76 C 0.21338 0.05077 0.62113 0.0
H77 H 0.61267 0.44607 0.50914 0.0
H78 H 0.59342 0.28267 0.78962 0.0
H79 H 0.5262 0.29496 0.36952 0.0
C80 C 0.59916 0.39886 0.52093 0.0
C81 C 0.56877 0.37617 0.41876 0.0
C82 C 0.60722 0.36645 0.65418 0.0
C83 C 0.58823 0.30615 0.6815 0.0
C84 C 0.55983 0.27786 0.57915 0.0
C85 C 0.54907 0.31452 0.44821 0.0
N86 N 0.54003 0.21554 0.61106 0.0
C87 C 0.55007 0.16952 0.72082 0.0
Dy88 Dy 1.0371 0.03151 0.9004 0.0
Dy89 Dy 0.10583 0.9992 0.14047 0.0
C90 C 0.16383 0.03716 0.75172 0.0
O91 O 1.03521 0.92661 0.89798 0.0
O92 O 0.11261 0.91446 0.94316 0.0
O93 O 1.01942 0.03163 0.65571 0.0
O94 O 0.96261 0.06813 0.89839 0.0
O95 O 1.02461 0.97609 0.30137 0.0
O96 O 0.9781 0.03314 0.16591 0.0
O97 O 0.08159 0.10128 0.22733 0.0
O98 O 1.06483 0.12484 0.97933 0.0
O99 O 0.12413 0.95545 0.34799 0.0
O100 O 0.1801 1.00859 0.17979 0.0
C101 C 1.07622 0.8907 0.88569 0.0
O102 O 0.12012 0.03098 0.71176 0.0
O103 O 0.16415 0.03423 0.91294 0.0
C104 C 0.9742 0.12891 0.67408 0.0
C105 C 0.98036 0.24953 0.56435 0.0
C106 C 1.01092 0.22976 0.66563 0.0
C107 C 1.01139 0.16786 0.701 0.0
C108 C 0.9349 0.15346 0.61418 0.0
C109 C 0.93815 0.21419 0.55747 0.0
C110 C 0.97623 0.06608 0.72937 0.0
C111 C 0.9795 0.99958 0.29339 0.0
C112 C 0.07731 0.1425 0.12045 0.0
C113 C 0.20895 0.91262 0.24963 0.0
C114 C 0.20289 0.79577 0.35711 0.0
C115 C 0.19888 0.80204 0.18891 0.0
C116 C 0.20118 0.86268 0.13527 0.0
C117 C 0.2342 0.89809 0.37031 0.0
C118 C 0.23636 0.83575 0.41055 0.0
C119 C 0.17225 0.96814 0.29393 0.0
H120 H 1.04254 0.25585 0.68333 0.0
H121 H 1.043 0.14933 0.73958 0.0
H122 H 0.90429 0.12467 0.60049 0.0
H123 H 0.91254 0.22935 0.4863 0.0
H124 H 0.18214 0.76672 0.12109 0.0
H125 H 0.18674 0.872 0.02813 0.0
H126 H 0.24284 0.935 0.4547 0.0
H127 H 0.24917 0.82661 0.52175 0.0
Dy128 Dy 0.56237 0.95968 0.87135 0.0
Dy129 Dy 0.57993 0.05684 0.14893 0.0
C130 C 0.556 0.11428 0.82313 0.0
O131 O 0.65072 0.95134 0.76176 0.0
O132 O 0.65612 0.04 0.93088 0.0
O133 O 0.53947 0.9416 0.63787 0.0
O134 O 0.53818 0.86735 0.80389 0.0
O135 O 0.58144 0.96032 0.26997 0.0
O136 O 0.58499 0.88864 0.03733 0.0
O137 O 0.49242 0.06592 0.26572 0.0
O138 O 0.48454 0.98331 0.08004 0.0
O139 O 0.60208 0.08132 0.38119 0.0
O140 O 0.60477 0.15027 0.19887 0.0
C141 C 0.67967 0.99342 0.80997 0.0
O142 O 0.56729 0.05491 0.74636 0.0
O143 O 0.549 0.12406 -0.00773 0.0
C144 C 0.4677 0.88095 0.69673 0.0
C145 C 0.37236 0.89859 0.64596 0.0
C146 C 0.38111 0.93119 0.79214 0.0
C147 C 0.43057 0.92666 0.80578 0.0
C148 C 0.45235 0.83493 0.58973 0.0
C149 C 0.40348 0.8426 0.56813 0.0
C150 C 0.52228 0.88709 0.67969 0.0
C151 C 0.58524 0.89978 0.20059 0.0
C152 C 0.46233 0.02826 0.2083 0.0
C153 C 0.67442 0.14061 0.3095 0.0
C154 C 0.76901 0.12329 0.3642 0.0
C155 C 0.76046 0.08918 0.2196 0.0
C156 C 0.71121 0.09375 0.20408 0.0
C157 C 0.69003 0.18779 0.41228 0.0
C158 C 0.73839 0.1799 0.43714 0.0
C159 C 0.61987 0.13444 0.32852 0.0
H160 H 0.3561 0.97252 0.86138 0.0
H161 H 0.44072 0.96433 0.88396 0.0
H162 H 0.47954 0.79817 0.50781 0.0
H163 H 0.39565 0.81399 0.46154 0.0
H164 H 0.78519 0.04713 0.15454 0.0
H165 H 0.70077 0.05539 0.12842 0.0
H166 H 0.66334 0.22587 0.48889 0.0
H167 H 0.74623 0.20963 0.54178 0.0
Dy168 Dy 0.62927 0.52505 0.01751 0.0
Dy169 Dy 0.51531 0.47945 0.0049 0.0
C170 C 0.56229 0.41983 0.28349 0.0
O171 O 0.64465 0.45423 0.77846 0.0
O172 O 0.58116 0.407 0.94424 0.0
O173 O 0.70794 0.50512 0.01977 0.0
O174 O 0.66594 0.59372 0.14893 0.0
O175 O 0.53946 0.55434 0.80918 0.0
O176 O 0.61988 0.58668 0.80443 0.0
O177 O 0.50068 0.55515 0.23652 0.0
O178 O 0.56845 0.60356 0.08792 0.0
O179 O 0.49102 0.41479 0.82906 0.0
O180 O 0.43291 0.47125 0.04142 0.0
C181 C 0.61762 0.4045 0.79964 0.0
O182 O 0.59869 0.4599 0.23247 0.0
O183 O 0.52395 0.41789 0.21426 0.0
C184 C 0.72499 0.55014 0.28585 0.0
C185 C 0.76394 0.54523 0.57963 0.0
C186 C 0.75996 0.48911 0.47697 0.0
C187 C 0.74072 0.4915 0.33192 0.0
C188 C 0.7286 0.60571 0.39078 0.0
C189 C 0.74765 0.60326 0.53476 0.0
C190 C 0.70676 0.55584 0.12743 0.0
C191 C 0.57821 0.59114 0.74984 0.0
C192 C 0.52867 0.60471 0.2227 0.0
C193 C 0.40713 0.4207 0.79543 0.0
C194 C 0.34609 0.39001 0.56971 0.0
C195 C 0.38985 0.42458 0.51474 0.0
C196 C 0.41979 0.44017 0.6266 0.0
C197 C 0.36446 0.38448 0.84715 0.0
C198 C 0.3337 0.37046 0.73771 0.0
C199 C 0.44209 0.42738 0.90738 0.0
H200 H 0.77265 0.4435 0.50647 0.0
H201 H 0.7388 0.44753 0.25486 0.0
H202 H 0.71729 0.6517 0.35976 0.0
H203 H 0.75051 0.64736 0.60969 0.0
H204 H 0.40159 0.43905 0.38464 0.0
H205 H 0.45362 0.46586 0.57929 0.0
H206 H 0.35584 0.36503 0.97097 0.0
H207 H 0.30076 0.34316 0.7835 0.0
Dy208 Dy 0.11696 0.57467 0.82568 0.0
Dy209 Dy 1.05267 0.47474 0.05272 0.0
C210 C 0.11581 0.43507 0.65635 0.0
O211 O 1.03769 0.57987 0.79417 0.0
O212 O 0.98906 0.54408 0.04153 0.0
O213 O 0.14041 0.61479 0.58086 0.0
O214 O 0.16673 0.65171 0.79752 0.0
O215 O 1.04823 0.56044 0.24921 0.0
O216 O 1.07171 0.63704 0.06308 0.0
O217 O 0.13391 0.44637 0.06007 0.0
O218 O 0.16733 0.53924 0.97594 0.0
O219 O 1.0285 0.41831 0.26246 0.0
O220 O 0.99819 0.40381 0.04404 0.0
C221 C 0.99202 0.57425 0.90556 0.0
O222 O 0.14619 0.48004 0.66842 0.0
O223 O 1.07134 0.4352 0.77324 0.0
C224 C 0.22508 0.64393 0.51316 0.0
C225 C 0.30612 0.5844 0.24775 0.0
C226 C 0.30775 0.58462 0.42209 0.0
C227 C 0.2649 0.61193 0.5572 0.0
C228 C 0.23464 0.65872 0.34092 0.0
C229 C 0.28144 0.63907 0.21671 0.0
C230 C 0.17227 0.65063 0.63091 0.0
C231 C 1.05346 0.62043 0.22024 0.0
C232 C 0.17149 0.48491 0.03916 0.0
C233 C 0.93939 0.41715 0.32669 0.0
C234 C 0.92419 0.538 0.50467 0.0
C235 C 0.93656 0.48427 0.58182 0.0
C236 C 0.93736 0.42346 0.50198 0.0
C237 C 0.9123 0.46543 0.27293 0.0
C238 C 0.90592 0.52688 0.36069 0.0
C239 C 0.99105 0.39677 0.20812 0.0
H240 H 0.33429 0.55228 0.45519 0.0
H241 H 0.26041 0.60153 0.68976 0.0
H242 H 0.20443 0.67654 0.29443 0.0
H243 H 0.2862 0.64873 0.08345 0.0
H244 H 0.94689 0.48725 0.70088 0.0
H245 H 0.95053 0.38467 0.55931 0.0
H246 H 0.90557 0.45882 0.1469 0.0
H247 H 0.88991 0.56611 0.31201 0.0
loop_
_geom_bond_atom_site_label_1
_geom_bond_atom_site_label_2
_geom_bond_distance
_geom_bond_site_symmetry_2
_ccdc_geom_bond_type
H0 C3 0.929 . S
H1 C6 0.929 . S
H2 C8 0.930 . S
C3 H0 0.929 . S
C3 C4 1.398 . S
C3 C5 1.396 1_554 S
C4 C3 1.398 . S
C4 C8 1.407 . S
C5 C3 1.396 1_556 S
C5 C6 1.394 . S
C6 H1 0.929 . S
C6 C5 1.394 . S
C6 C7 1.382 1_556 S
C7 C6 1.382 1_554 S
C7 C8 1.392 . S
C7 N9 1.420 . S
C8 H2 0.930 . S
C8 C4 1.407 . S
C8 C7 1.392 . S
N9 C7 1.420 . S
N9 C10 1.244 1_554 S
C10 N9 1.244 1_556 S
H11 C14 0.929 . S
H12 C17 0.929 . S
H13 C19 0.930 1_554 S
C14 H11 0.929 . S
C14 C15 1.398 1_655 S
C14 C16 1.400 1_655 S
C15 C14 1.398 1_455 S
C15 C19 1.407 . S
C16 C14 1.400 1_455 S
C16 C17 1.394 . S
C17 H12 0.929 . S
C17 C16 1.394 . S
C17 C18 1.382 . S
C18 C17 1.382 . S
C18 C19 1.392 . S
C18 N20 1.420 . S
C19 H13 0.930 1_556 S
C19 C15 1.407 . S
C19 C18 1.392 . S
N20 C18 1.420 . S
N20 C21 1.244 1_455 S
C21 N20 1.244 1_655 S
H22 C25 0.929 . S
H23 C28 0.929 . S
H24 C30 0.930 . S
C25 H22 0.929 . S
C25 C26 1.398 1_565 S
C25 C27 1.396 1_565 S
C26 C25 1.398 1_545 S
C26 C30 1.407 . S
C27 C25 1.396 1_545 S
C27 C28 1.394 . S
C28 H23 0.929 . S
C28 C27 1.394 . S
C28 C29 1.382 . S
C29 C28 1.382 . S
C29 C30 1.392 . S
C29 N31 1.420 . S
C30 H24 0.930 . S
C30 C26 1.407 . S
C30 C29 1.392 . S
N31 C29 1.420 . S
N31 C32 1.244 1_545 S
C32 N31 1.244 1_565 S
H33 C36 0.929 . S
H34 C39 0.929 . S
H35 C41 0.930 . S
C36 H33 0.929 . S
C36 C37 1.398 . S
C36 C38 1.396 . S
C37 C36 1.398 . S
C37 C41 1.407 . S
C38 C36 1.396 . S
C38 C39 1.394 . S
C39 H34 0.929 . S
C39 C38 1.394 . S
C39 C40 1.382 . S
C40 C39 1.382 . S
C40 C41 1.392 . S
C40 N42 1.420 . S
C41 H35 0.930 . S
C41 C37 1.407 . S
C41 C40 1.392 . S
N42 C40 1.420 . S
N42 C43 1.244 . S
C43 N42 1.244 . S
H44 C47 0.929 . S
H45 C50 0.929 . S
H46 C52 0.930 . S
C47 H44 0.929 . S
C47 C48 1.398 . S
C47 C49 1.396 1_556 S
C48 C47 1.398 . S
C48 C52 1.407 . S
C49 C47 1.396 1_554 S
C49 C50 1.394 . S
C50 H45 0.929 . S
C50 C49 1.394 . S
C50 C51 1.382 1_554 S
C51 C50 1.382 1_556 S
C51 C52 1.392 . S
C51 N53 1.420 . S
C52 H46 0.930 . S
C52 C48 1.407 . S
C52 C51 1.392 . S
N53 C51 1.420 . S
N53 C54 1.244 1_556 S
C54 N53 1.244 1_554 S
H55 C58 0.929 . S
H56 C61 0.929 . S
H57 C63 0.930 1_556 S
C58 H55 0.929 . S
C58 C59 1.398 1_655 S
C58 C60 1.386 1_655 S
C59 C58 1.398 1_455 S
C59 C63 1.407 . S
C60 C58 1.386 1_455 S
C60 C61 1.402 . S
C61 H56 0.929 . S
C61 C60 1.402 . S
C61 C62 1.382 . S
C62 C61 1.382 . S
C62 C63 1.392 . S
C62 N64 1.420 . S
C63 H57 0.930 1_554 S
C63 C59 1.407 . S
C63 C62 1.392 . S
N64 C62 1.420 . S
N64 C65 1.241 1_455 S
C65 N64 1.241 1_655 S
H66 C69 0.929 . S
H67 C72 0.929 . S
H68 C74 0.930 . S
C69 H66 0.929 . S
C69 C70 1.398 1_565 S
C69 C71 1.396 1_565 S
C70 C69 1.398 1_545 S
C70 C74 1.407 . S
C71 C69 1.396 1_545 S
C71 C72 1.394 . S
C72 H67 0.929 . S
C72 C71 1.394 . S
C72 C73 1.382 . S
C73 C72 1.382 . S
C73 C74 1.392 . S
C73 N75 1.420 . S
C74 H68 0.930 . S
C74 C70 1.407 . S
C74 C73 1.392 . S
N75 C73 1.420 . S
N75 C76 1.244 1_545 S
C76 N75 1.244 1_565 S
H77 C80 0.929 . S
H78 C83 0.929 . S
H79 C85 0.930 . S
C80 H77 0.929 . S
C80 C81 1.398 . S
C80 C82 1.396 . S
C81 C80 1.398 . S
C81 C85 1.407 . S
C82 C80 1.396 . S
C82 C83 1.394 . S
C83 H78 0.929 . S
C83 C82 1.394 . S
C83 C84 1.382 . S
C84 C83 1.382 . S
C84 C85 1.392 . S
C84 N86 1.420 . S
C85 H79 0.930 . S
C85 C81 1.407 . S
C85 C84 1.392 . S
N86 C84 1.420 . S
N86 C87 1.244 . S
C87 N86 1.244 . S
Dy88 O91 2.307 1_545 S
Dy88 O93 2.395 1_655 S
Dy88 O94 2.379 . S
Dy88 O96 2.339 1_556 S
Dy88 O98 2.298 1_556 S
Dy88 O102 2.275 1_655 S
Dy88 C110 2.738 . S
Dy89 O92 2.298 1_554 S
Dy89 O95 2.278 1_455 S
Dy89 O97 2.307 1_565 S
Dy89 O99 2.395 1_455 S
Dy89 O100 2.379 . S
Dy89 O103 2.339 1_554 S
Dy89 C119 2.738 . S
C90 O102 1.254 1_565 S
C90 O103 1.257 . S
O91 Dy88 2.307 1_565 S
O91 C101 1.266 . S
O92 Dy89 2.298 1_556 S
O92 C101 1.236 1_455 S
O93 Dy88 2.395 1_455 S
O93 C110 1.255 1_455 S
O94 Dy88 2.379 . S
O94 C110 1.249 . S
O95 Dy89 2.278 1_655 S
O95 C111 1.253 1_565 S
O96 Dy88 2.339 1_554 S
O96 C111 1.257 . S
O97 Dy89 2.307 1_545 S
O97 C112 1.266 . S
O98 Dy88 2.298 1_554 S
O98 C112 1.236 1_655 S
O99 Dy89 2.395 1_655 S
O99 C119 1.255 1_655 S
O100 Dy89 2.379 . S
O100 C119 1.249 . S
C101 O91 1.266 . S
C101 O92 1.236 1_655 S
O102 Dy88 2.275 1_455 S
O102 C90 1.254 1_545 S
O103 Dy89 2.339 1_556 S
O103 C90 1.257 . S
C104 C107 1.344 1_655 S
C104 C108 1.328 . S
C104 C110 1.516 . S
C105 C106 1.304 1_655 S
C105 C109 1.323 . S
C106 C105 1.304 1_455 S
C106 C107 1.371 . S
C106 H120 0.930 . S
C107 C104 1.344 1_455 S
C107 C106 1.371 . S
C107 H121 0.931 . S
C108 C104 1.328 . S
C108 C109 1.433 . S
C108 H122 0.931 . S
C109 C105 1.323 . S
C109 C108 1.433 . S
C109 H123 0.933 . S
C110 Dy88 2.738 . S
C110 O93 1.255 1_655 S
C110 O94 1.249 . S
C110 C104 1.516 . S
C111 O95 1.253 1_545 S
C111 O96 1.257 . S
C112 O97 1.266 . S
C112 O98 1.236 1_455 S
C113 C116 1.344 1_455 S
C113 C117 1.328 . S
C113 C119 1.516 . S
C114 C115 1.304 1_455 S
C114 C118 1.323 . S
C115 C114 1.304 1_655 S
C115 C116 1.371 . S
C115 H124 0.930 . S
C116 C113 1.344 1_655 S
C116 C115 1.371 . S
C116 H125 0.931 . S
C117 C113 1.328 . S
C117 C118 1.433 . S
C117 H126 0.931 . S
C118 C114 1.323 . S
C118 C117 1.433 . S
C118 H127 0.933 . S
C119 Dy89 2.738 . S
C119 O99 1.255 1_455 S
C119 O100 1.249 . S
C119 C113 1.516 . S
H120 C106 0.930 . S
H121 C107 0.931 . S
H122 C108 0.931 . S
H123 C109 0.933 . S
H124 C115 0.930 . S
H125 C116 0.931 . S
H126 C117 0.931 . S
H127 C118 0.933 . S
Dy128 O131 2.307 . S
Dy128 O133 2.395 . S
Dy128 O134 2.379 . S
Dy128 O136 2.339 . S
Dy128 O138 2.298 1_556 S
Dy128 O142 2.275 1_565 S
Dy128 C150 2.738 . S
Dy129 O132 2.298 1_554 S
Dy129 O135 2.275 1_545 S
Dy129 O137 2.307 . S
Dy129 O139 2.395 . S
Dy129 O140 2.379 . S
Dy129 O143 2.339 . S
Dy129 C159 2.738 . S
C130 O142 1.254 . S
C130 O143 1.257 1_556 S
O131 Dy128 2.307 . S
O131 C141 1.266 . S
O132 Dy129 2.298 1_556 S
O132 C141 1.236 1_545 S
O133 Dy128 2.395 . S
O133 C150 1.255 . S
O134 Dy128 2.379 . S
O134 C150 1.249 . S
O135 Dy129 2.275 1_565 S
O135 C151 1.254 . S
O136 Dy128 2.339 . S
O136 C151 1.257 1_556 S
O137 Dy129 2.307 . S
O137 C152 1.266 . S
O138 Dy128 2.298 1_554 S
O138 C152 1.236 1_565 S
O139 Dy129 2.395 . S
O139 C159 1.255 . S
O140 Dy129 2.379 . S
O140 C159 1.249 . S
C141 O131 1.266 . S
C141 O132 1.236 1_565 S
O142 Dy128 2.275 1_545 S
O142 C130 1.254 . S
O143 Dy129 2.339 . S
O143 C130 1.257 1_554 S
C144 C147 1.344 . S
C144 C148 1.328 . S
C144 C150 1.516 . S
C145 C146 1.304 . S
C145 C149 1.323 . S
C146 C145 1.304 . S
C146 C147 1.371 . S
C146 H160 0.930 1_565 S
C147 C144 1.344 . S
C147 C146 1.371 . S
C147 H161 0.931 1_565 S
C148 C144 1.328 . S
C148 C149 1.433 . S
C148 H162 0.931 . S
C149 C145 1.323 . S
C149 C148 1.433 . S
C149 H163 0.933 . S
C150 Dy128 2.738 . S
C150 O133 1.255 . S
C150 O134 1.249 . S
C150 C144 1.516 . S
C151 O135 1.254 . S
C151 O136 1.257 1_554 S
C152 O137 1.266 . S
C152 O138 1.236 1_545 S
C153 C156 1.344 . S
C153 C157 1.328 . S
C153 C159 1.516 . S
C154 C155 1.304 . S
C154 C158 1.323 . S
C155 C154 1.304 . S
C155 C156 1.371 . S
C155 H164 0.930 1_545 S
C156 C153 1.344 . S
C156 C155 1.371 . S
C156 H165 0.931 1_545 S
C157 C153 1.328 . S
C157 C158 1.433 . S
C157 H166 0.931 . S
C158 C154 1.323 . S
C158 C157 1.433 . S
C158 H167 0.933 . S
C159 Dy129 2.738 . S
C159 O139 1.255 . S
C159 O140 1.249 . S
C159 C153 1.516 . S
H160 C146 0.930 1_545 S
H161 C147 0.931 1_545 S
H162 C148 0.931 . S
H163 C149 0.933 . S
H164 C155 0.930 1_565 S
H165 C156 0.931 1_565 S
H166 C157 0.931 . S
H167 C158 0.933 . S
Dy168 O171 2.307 . S
Dy168 O173 2.395 1_556 S
Dy168 O174 2.379 1_556 S
Dy168 O176 2.339 . S
Dy168 O178 2.298 1_556 S
Dy168 O182 2.275 1_556 S
Dy168 C190 2.738 1_556 S
Dy169 O172 2.298 1_554 S
Dy169 O175 2.275 1_554 S
Dy169 O177 2.307 . S
Dy169 O179 2.395 1_554 S
Dy169 O180 2.379 1_554 S
Dy169 O183 2.339 . S
Dy169 C199 2.738 1_554 S
C170 O182 1.254 . S
C170 O183 1.257 . S
O171 Dy168 2.307 . S
O171 C181 1.266 . S
O172 Dy169 2.298 1_556 S
O172 C181 1.236 . S
O173 Dy168 2.395 1_554 S
O173 C190 1.255 . S
O174 Dy168 2.379 1_554 S
O174 C190 1.249 . S
O175 Dy169 2.275 1_556 S
O175 C191 1.254 . S
O176 Dy168 2.339 . S
O176 C191 1.257 . S
O177 Dy169 2.307 . S
O177 C192 1.266 . S
O178 Dy168 2.298 1_554 S
O178 C192 1.236 . S
O179 Dy169 2.395 1_556 S
O179 C199 1.255 . S
O180 Dy169 2.379 1_556 S
O180 C199 1.249 . S
C181 O171 1.266 . S
C181 O172 1.236 . S
O182 Dy168 2.275 1_554 S
O182 C170 1.254 . S
O183 Dy169 2.339 . S
O183 C170 1.257 . S
C184 C187 1.344 . S
C184 C188 1.328 . S
C184 C190 1.516 . S
C185 C186 1.304 . S
C185 C189 1.323 . S
C186 C185 1.304 . S
C186 C187 1.371 . S
C186 H200 0.930 . S
C187 C184 1.344 . S
C187 C186 1.371 . S
C187 H201 0.931 . S
C188 C184 1.328 . S
C188 C189 1.433 . S
C188 H202 0.931 . S
C189 C185 1.323 . S
C189 C188 1.433 . S
C189 H203 0.933 . S
C190 Dy168 2.738 1_554 S
C190 O173 1.255 . S
C190 O174 1.249 . S
C190 C184 1.516 . S
C191 O175 1.254 . S
C191 O176 1.257 . S
C192 O177 1.266 . S
C192 O178 1.236 . S
C193 C196 1.344 . S
C193 C197 1.328 . S
C193 C199 1.516 . S
C194 C195 1.304 . S
C194 C198 1.323 . S
C195 C194 1.304 . S
C195 C196 1.371 . S
C195 H204 0.930 . S
C196 C193 1.344 . S
C196 C195 1.371 . S
C196 H205 0.931 . S
C197 C193 1.328 . S
C197 C198 1.433 . S
C197 H206 0.931 . S
C198 C194 1.323 . S
C198 C197 1.433 . S
C198 H207 0.933 . S
C199 Dy169 2.738 1_556 S
C199 O179 1.255 . S
C199 O180 1.249 . S
C199 C193 1.516 . S
H200 C186 0.930 . S
H201 C187 0.931 . S
H202 C188 0.931 . S
H203 C189 0.933 . S
H204 C195 0.930 . S
H205 C196 0.931 . S
H206 C197 0.931 . S
H207 C198 0.933 . S
Dy208 O211 2.307 1_455 S
Dy208 O213 2.395 . S
Dy208 O214 2.379 . S
Dy208 O216 2.339 1_556 S
Dy208 O218 2.298 . S
Dy208 O222 2.275 . S
Dy208 C230 2.738 . S
Dy209 O212 2.298 . S
Dy209 O215 2.275 . S
Dy209 O217 2.307 1_655 S
Dy209 O219 2.395 . S
Dy209 O220 2.379 . S
Dy209 O223 2.339 1_554 S
Dy209 C239 2.738 . S
C210 O222 1.245 1_655 S
C210 O223 1.265 . S
O211 Dy208 2.307 1_655 S
O211 C221 1.266 1_556 S
O212 Dy209 2.298 . S
O212 C221 1.236 . S
O213 Dy208 2.395 . S
O213 C230 1.255 . S
O214 Dy208 2.379 . S
O214 C230 1.249 . S
O215 Dy209 2.275 . S
O215 C231 1.254 1_655 S
O216 Dy208 2.339 1_554 S
O216 C231 1.257 . S
O217 Dy209 2.307 1_455 S
O217 C232 1.266 1_554 S
O218 Dy208 2.298 . S
O218 C232 1.236 . S
O219 Dy209 2.395 . S
O219 C239 1.255 . S
O220 Dy209 2.379 . S
O220 C239 1.249 . S
C221 O211 1.266 1_554 S
C221 O212 1.236 . S
O222 Dy208 2.275 . S
O222 C210 1.245 1_455 S
O223 Dy209 2.339 1_556 S
O223 C210 1.265 . S
C224 C227 1.344 . S
C224 C228 1.328 . S
C224 C230 1.516 . S
C225 C226 1.304 . S
C225 C229 1.323 . S
C226 C225 1.304 . S
C226 C227 1.371 . S
C226 H240 0.930 . S
C227 C224 1.344 . S
C227 C226 1.371 . S
C227 H241 0.931 . S
C228 C224 1.328 . S
C228 C229 1.433 . S
C228 H242 0.931 . S
C229 C225 1.323 . S
C229 C228 1.433 . S
C229 H243 0.933 . S
C230 Dy208 2.738 . S
C230 O213 1.255 . S
C230 O214 1.249 . S
C230 C224 1.516 . S
C231 O215 1.254 1_455 S
C231 O216 1.257 . S
C232 O217 1.266 1_556 S
C232 O218 1.236 . S
C233 C236 1.344 . S
C233 C237 1.328 . S
C233 C239 1.516 . S
C234 C235 1.304 . S
C234 C238 1.323 . S
C235 C234 1.304 . S
C235 C236 1.371 . S
C235 H244 0.930 . S
C236 C233 1.344 . S
C236 C235 1.371 . S
C236 H245 0.931 . S
C237 C233 1.328 . S
C237 C238 1.433 . S
C237 H246 0.931 . S
C238 C234 1.323 . S
C238 C237 1.433 . S
C238 H247 0.933 . S
C239 Dy209 2.738 . S
C239 O219 1.255 . S
C239 O220 1.249 . S
C239 C233 1.516 . S
H240 C226 0.930 . S
H241 C227 0.931 . S
H242 C228 0.931 . S
H243 C229 0.933 . S
H244 C235 0.930 . S
H245 C236 0.931 . S
H246 C237 0.931 . S
H247 C238 0.933 . S
C76 C90 3.214 . S
C130 C87 2.776 . S
C194 C54 3.628 . S
C210 C65 3.581 . S
C111 C32 3.221 1_545 S
C43 C151 2.788 . S
C10 C185 3.637 . S
C21 C231 3.579 1_655 S
C105 C60 1.046 1_655 S
C145 C71 1.791 1_565 S
C181 C82 1.460 . S
C49 C225 2.973 . S
C16 C114 1.049 . S
C154 C27 1.747 . S
C192 C38 1.429 . S
C5 C234 2.924 . S
C59 C112 3.234 . S
C70 C152 3.531 . S
C170 C81 2.493 . S
C232 C48 4.022 . S
C15 C101 3.240 1_455 S
C141 C26 3.540 1_565 S
C191 C37 2.503 . S
C4 C221 4.030 . S
