# Generated by pormake.
# Topology zzz, (3,6)-cn, num edge types: 1
# Building blocks:
#     Node 0, Type 0, BuildingBlock: KAKCAD_clean_linker_0, # of connection points: 3
#     Node 1, Type 0, BuildingBlock: KAKCAD_clean_linker_0, # of connection points: 3
#     Node 2, Type 0, BuildingBlock: KAKCAD_clean_linker_0, # of connection points: 3
#     Node 3, Type 0, BuildingBlock: KAKCAD_clean_linker_0, # of connection points: 3
#     Node 4, Type 0, BuildingBlock: KAKCAD_clean_linker_0, # of connection points: 3
#     Node 5, Type 0, BuildingBlock: KAKCAD_clean_linker_0, # of connection points: 3
#     Node 6, Type 0, BuildingBlock: KAKCAD_clean_linker_0, # of connection points: 3
#     Node 7, Type 0, BuildingBlock: KAKCAD_clean_linker_0, # of connection points: 3
#     Node 8, Type 1, BuildingBlock: KUMBUR_clean_sbu_1, # of connection points: 6
#     Node 9, Type 1, BuildingBlock: KUMBUR_clean_sbu_1, # of connection points: 6
#     Node 10, Type 1, BuildingBlock: KUMBUR_clean_sbu_1, # of connection points: 6
#     Node 11, Type 1, BuildingBlock: KUMBUR_clean_sbu_1, # of connection points: 6
#     Edge 12, Type (0, 1), BuildingBlock: AJUNOK_clean_linker_0, # of connection points: 2
#     Edge 13, Type (0, 1), BuildingBlock: AJUNOK_clean_linker_0, # of connection points: 2
#     Edge 14, Type (0, 1), BuildingBlock: AJUNOK_clean_linker_0, # of connection points: 2
#     Edge 15, Type (0, 1), BuildingBlock: AJUNOK_clean_linker_0, # of connection points: 2
#     Edge 16, Type (0, 1), BuildingBlock: AJUNOK_clean_linker_0, # of connection points: 2
#     Edge 17, Type (0, 1), BuildingBlock: AJUNOK_clean_linker_0, # of connection points: 2
#     Edge 18, Type (0, 1), BuildingBlock: AJUNOK_clean_linker_0, # of connection points: 2
#     Edge 19, Type (0, 1), BuildingBlock: AJUNOK_clean_linker_0, # of connection points: 2
#     Edge 20, Type (0, 1), BuildingBlock: AJUNOK_clean_linker_0, # of connection points: 2
#     Edge 21, Type (0, 1), BuildingBlock: AJUNOK_clean_linker_0, # of connection points: 2
#     Edge 22, Type (0, 1), BuildingBlock: AJUNOK_clean_linker_0, # of connection points: 2
#     Edge 23, Type (0, 1), BuildingBlock: AJUNOK_clean_linker_0, # of connection points: 2
#     Edge 24, Type (0, 1), BuildingBlock: AJUNOK_clean_linker_0, # of connection points: 2
#     Edge 25, Type (0, 1), BuildingBlock: AJUNOK_clean_linker_0, # of connection points: 2
#     Edge 26, Type (0, 1), BuildingBlock: AJUNOK_clean_linker_0, # of connection points: 2
#     Edge 27, Type (0, 1), BuildingBlock: AJUNOK_clean_linker_0, # of connection points: 2
#     Edge 28, Type (0, 1), BuildingBlock: AJUNOK_clean_linker_0, # of connection points: 2
#     Edge 29, Type (0, 1), BuildingBlock: AJUNOK_clean_linker_0, # of connection points: 2
#     Edge 30, Type (0, 1), BuildingBlock: AJUNOK_clean_linker_0, # of connection points: 2
#     Edge 31, Type (0, 1), BuildingBlock: AJUNOK_clean_linker_0, # of connection points: 2
#     Edge 32, Type (0, 1), BuildingBlock: AJUNOK_clean_linker_0, # of connection points: 2
#     Edge 33, Type (0, 1), BuildingBlock: AJUNOK_clean_linker_0, # of connection points: 2
#     Edge 34, Type (0, 1), BuildingBlock: AJUNOK_clean_linker_0, # of connection points: 2
#     Edge 35, Type (0, 1), BuildingBlock: AJUNOK_clean_linker_0, # of connection points: 2
# Relax obj value: 0.350
# Max RMSD: 0.205
# Mean RMSD: 0.183
data_MOF--net-zzz--node1-KUMBUR_clean_sbu_1--node2-KAKCAD_clean_linker_0--edge1-AJUNOK_clean_linker_0
_symmetry_space_group_name_H-M    P1
_symmetry_Int_Tables_number       1
_symmetry_cell_setting            triclinic
loop_
_symmetry_equiv_pos_as_xyz
'x, y, z'
_cell_length_a     44.095597
_cell_length_b     43.922313
_cell_length_c     16.220696
_cell_angle_alpha  89.729816
_cell_angle_beta   89.650627
_cell_angle_gamma 90.403997
loop_
_atom_site_label
_atom_site_type_symbol
_atom_site_fract_x
_atom_site_fract_y
_atom_site_fract_z
_atom_type_partial_charge
C0 C 0.81614 0.57604 0.91522 0.0
C1 C 0.84183 0.55754 0.91771 0.0
C2 C 0.80245 0.58539 0.98872 0.0
C3 C 0.8137 0.57536 0.06537 0.0
C4 C 0.84101 0.55898 0.06673 0.0
C5 C 0.855 0.55038 0.99363 0.0
C6 C 0.79449 0.5762 0.14104 0.0
C7 C 0.76334 0.57069 0.13448 0.0
C8 C 0.74556 0.56257 0.20297 0.0
C9 C 0.75976 0.56002 0.28154 0.0
C10 C 0.79125 0.56725 0.28982 0.0
C11 C 0.80771 0.57618 0.21934 0.0
C12 C 0.80967 0.56277 0.36663 0.0
C13 C 0.82574 0.5877 0.39981 0.0
C14 C 0.81873 0.53334 0.39027 0.0
C15 C 0.84425 0.52898 0.44111 0.0
C16 C 0.86159 0.55393 0.46957 0.0
C17 C 0.71338 0.55394 0.18359 0.0
C18 C 0.69034 0.57597 0.18614 0.0
C19 C 0.70841 0.52802 0.13465 0.0
C20 C 0.68246 0.52517 0.08536 0.0
C21 C 0.65982 0.54774 0.08464 0.0
C22 C 0.66384 0.57277 0.13817 0.0
C23 C 0.8511 0.58337 0.45087 0.0
H24 H 0.80599 0.5821 0.8568 0.0
H25 H 0.78198 0.5988 0.9853 0.0
H26 H 0.85036 0.55037 0.12372 0.0
H27 H 0.87489 0.53605 0.99655 0.0
H28 H 0.7529 0.57026 0.07415 0.0
H29 H 0.83177 0.58099 0.22488 0.0
H30 H 0.7468 0.55217 0.33451 0.0
H31 H 0.81999 0.61066 0.38121 0.0
H32 H 0.80751 0.5136 0.36434 0.0
H33 H 0.85111 0.50594 0.45541 0.0
H34 H 0.69379 0.59677 0.22056 0.0
H35 H 0.72618 0.51126 0.12815 0.0
H36 H 0.86369 0.60319 0.47121 0.0
H37 H 0.64709 0.59067 0.14044 0.0
H38 H 0.68148 0.50615 0.04338 0.0
C39 C 0.93581 0.8122 0.91757 0.0
C40 C 0.952 0.83962 0.90958 0.0
C41 C 0.9322 0.79872 0.99534 0.0
C42 C 0.94605 0.81184 0.06512 0.0
C43 C 0.95782 0.8416 0.05784 0.0
C44 C 0.96039 0.85548 0.98088 0.0
C45 C 0.95468 0.79264 0.13749 0.0
C46 C 0.96221 0.76206 0.12515 0.0
C47 C 0.97659 0.74455 0.18582 0.0
C48 C 0.98518 0.75901 0.26075 0.0
C49 C 0.97731 0.79004 0.27477 0.0
C50 C 0.96099 0.80577 0.21415 0.0
C51 C 0.98806 0.80886 0.346 0.0
C52 C 0.97099 0.81073 0.41937 0.0
C53 C 1.01025 0.83146 0.33112 0.0
C54 C 1.01424 0.85599 0.38541 0.0
C55 C 0.99614 0.85895 0.45685 0.0
C56 C 0.98294 0.71197 0.16283 0.0
C57 C 0.95928 0.69467 0.12792 0.0
C58 C 1.01265 0.70087 0.15438 0.0
C59 C 0.01852 0.6743 0.10791 0.0
C60 C 0.99491 0.65834 0.0673 0.0
C61 C 0.96514 0.66895 0.07974 0.0
C62 C 0.97521 0.83521 0.47452 0.0
H63 H 0.9287 0.79983 0.86331 0.0
H64 H 0.92135 0.77657 0.9991 0.0
H65 H 0.96852 0.85296 0.10912 0.0
H66 H 0.97283 0.8768 0.97637 0.0
H67 H 0.95862 0.75188 0.06529 0.0
H68 H 0.95486 0.82924 0.22542 0.0
H69 H 0.99784 0.74654 0.30668 0.0
H70 H 0.95319 0.79419 0.43185 0.0
H71 H 0.02316 0.83128 0.27406 0.0
H72 H 0.0305 0.87358 0.36871 0.0
H73 H 0.93613 0.7027 0.13183 0.0
H74 H 0.03154 0.71377 0.17891 0.0
H75 H 0.96147 0.83585 0.52997 0.0
H76 H 0.94617 0.65882 0.04785 0.0
H77 H 0.04179 0.66699 0.10117 0.0
C78 C 0.69617 0.93339 0.06498 0.0
C79 C 0.69577 0.96022 1.01712 0.0
C80 C 0.72204 0.92601 0.11002 0.0
C81 C 0.74777 0.94497 0.10532 0.0
C82 C 0.74946 0.96704 0.04261 0.0
C83 C 0.72348 0.97508 1.00003 0.0
C84 C 0.76641 0.9504 0.1793 0.0
C85 C 0.79704 0.95784 0.17027 0.0
C86 C 0.81208 0.97566 0.22885 0.0
C87 C 0.79583 0.98512 0.30093 0.0
C88 C 0.76521 0.97515 0.3142 0.0
C89 C 0.75133 0.95764 0.25275 0.0
C90 C 0.74493 0.98397 0.38558 0.0
C91 C 0.72858 0.96089 0.42769 0.0
C92 C 0.73534 1.0142 0.39681 0.0
C93 C 0.70942 0.02085 0.44547 0.0
C94 C 0.69213 0.99748 0.48418 0.0
C95 C 0.84309 0.98652 0.2032 0.0
C96 C 0.867 0.96544 0.19812 0.0
C97 C 0.84585 1.01357 0.1569 0.0
C98 C 0.87087 1.01867 0.10398 0.0
C99 C 0.89418 0.99696 0.09575 0.0
C100 C 0.89217 0.97062 0.14564 0.0
C101 C 0.70264 0.96742 0.47516 0.0
H102 H 0.67544 0.92068 0.07672 0.0
H103 H 0.72047 0.9083 0.15661 0.0
H104 H 0.76913 0.98183 0.0365 0.0
H105 H 0.72457 0.99584 0.96405 0.0
H106 H 0.8084 0.95244 0.11264 0.0
H107 H 0.72732 0.95244 0.25857 0.0
H108 H 0.8067 0.99987 0.34532 0.0
H109 H 0.73463 0.93726 0.41886 0.0
H110 H 0.74666 0.03254 0.36371 0.0
H111 H 0.70235 0.04433 0.45061 0.0
H112 H 0.86517 0.94385 0.2304 0.0
H113 H 0.82732 0.02963 0.15608 0.0
H114 H 0.68985 0.94845 0.50061 0.0
H115 H 0.90955 0.95338 0.14185 0.0
H116 H 0.87083 0.03886 0.06547 0.0
C117 C 0.51767 0.7034 0.3859 0.0
C118 C 0.52492 0.70353 0.47043 0.0
C119 C 0.52192 0.72961 0.33652 0.0
C120 C 0.53337 0.75694 0.36986 0.0
C121 C 0.53869 0.7577 0.45529 0.0
C122 C 0.53424 0.73154 0.50492 0.0
C123 C 0.54993 0.77881 0.31381 0.0
C124 C 0.53812 0.80645 0.28102 0.0
C125 C 0.55557 0.82394 0.22305 0.0
C126 C 0.58381 0.81261 0.1967 0.0
C127 C 0.59479 0.78468 0.22568 0.0
C128 C 0.57836 0.76902 0.28689 0.0
C129 C 0.61733 0.76706 0.17729 0.0
C130 C 0.61126 0.76307 0.09326 0.0
C131 C 0.63527 0.74515 0.21729 0.0
C132 C 0.63894 0.7164 0.18186 0.0
C133 C 0.62487 0.70977 0.10634 0.0
C134 C 0.54492 0.85283 0.18235 0.0
C135 C 0.52051 0.85273 0.1267 0.0
C136 C 0.56343 0.87909 0.18501 0.0
C137 C 0.55876 0.90376 0.1311 0.0
C138 C 0.53563 0.90297 0.07152 0.0
C139 C 0.51587 0.8775 0.0722 0.0
C140 C 0.61467 0.73444 0.05813 0.0
H141 H 0.51053 0.68247 0.35654 0.0
H142 H 0.51869 0.72774 0.27056 0.0
H143 H 0.54842 0.77792 0.4828 0.0
H144 H 0.53924 0.73303 0.57002 0.0
H145 H 0.51581 0.81404 0.29962 0.0
H146 H 0.58626 0.74704 0.30842 0.0
H147 H 0.59634 0.82454 0.14852 0.0
H148 H 0.59844 0.77985 0.05919 0.0
H149 H 0.64158 0.74821 0.28119 0.0
H150 H 0.64835 0.69829 0.21913 0.0
H151 H 0.50619 0.8327 0.12159 0.0
H152 H 0.5826 0.87991 0.22644 0.0
H153 H 0.60416 0.73099 0.99883 0.0
H154 H 0.49779 0.87597 1.0275 0.0
H155 H 0.57398 0.92317 0.13441 0.0
C156 C 0.2105 0.42006 0.37105 0.0
C157 C 0.18709 0.41029 0.31815 0.0
C158 C 0.23966 0.42478 0.33996 0.0
C159 C 0.24549 0.41979 0.25606 0.0
C160 C 0.22491 0.40152 0.21198 0.0
C161 C 0.19576 0.39626 0.2439 0.0
C162 C 0.26423 0.44298 0.21194 0.0
C163 C 0.29164 0.45344 0.24504 0.0
C164 C 0.30443 0.4817 0.22125 0.0
C165 C 0.28867 0.49977 0.16203 0.0
C166 C 0.26148 0.48859 0.12546 0.0
C167 C 0.25024 0.46012 0.15006 0.0
C168 C 0.24168 0.5059 0.06693 0.0
C169 C 0.21612 0.52128 0.09794 0.0
C170 C 0.2419 0.49835 0.98267 0.0
C171 C 0.21694 0.50493 0.93179 0.0
C172 C 0.19076 0.51911 0.96353 0.0
C173 C 0.33286 0.49176 0.26532 0.0
C174 C 0.3349 0.51999 0.30593 0.0
C175 C 0.35644 0.47071 0.27827 0.0
C176 C 0.38013 0.47677 0.33347 0.0
C177 C 0.38127 0.50417 0.37795 0.0
C178 C 0.35885 0.52615 0.36126 0.0
C179 C 0.19112 0.52785 0.04715 0.0
H180 H 0.20565 0.42941 0.43125 0.0
H181 H 0.25546 0.43761 0.37737 0.0
H182 H 0.22951 0.3957 0.14831 0.0
H183 H 0.17903 0.3855 0.20488 0.0
H184 H 0.30197 0.44038 0.29419 0.0
H185 H 0.22854 0.45265 0.12583 0.0
H186 H 0.29733 0.52206 0.1449 0.0
H187 H 0.21445 0.52611 0.16324 0.0
H188 H 0.26055 0.48539 0.95737 0.0
H189 H 0.21771 0.49784 0.86796 0.0
H190 H 0.31714 0.53665 0.29843 0.0
H191 H 0.35595 0.44884 0.24766 0.0
H192 H 0.17128 0.53805 0.07497 0.0
H193 H 0.35906 0.54762 0.39376 0.0
H194 H 0.39738 0.45965 0.34235 0.0
C195 C 0.1118 0.25364 0.45234 0.0
C196 C 0.1224 0.22381 0.443 0.0
C197 C 0.11076 0.27311 0.38468 0.0
C198 C 0.12067 0.26322 0.30656 0.0
C199 C 0.13739 0.23608 0.30226 0.0
C200 C 0.13854 0.21656 0.37068 0.0
C201 C 0.1067 0.27686 0.2315 0.0
C202 C 0.09785 0.30739 0.23248 0.0
C203 C 0.07402 0.31777 0.18345 0.0
C204 C 0.0616 0.29794 0.12284 0.0
C205 C 0.07308 0.26785 0.11383 0.0
C206 C 0.0952 0.25775 0.16956 0.0
C207 C 0.06072 0.24468 0.05436 0.0
C208 C 0.04649 0.21812 0.08519 0.0
C209 C 0.06848 0.24546 0.97 0.0
C210 C 0.06307 0.22 0.91881 0.0
C211 C 0.04984 0.19295 0.95062 0.0
C212 C 0.06013 0.34711 0.21091 0.0
C213 C 0.03823 0.34619 0.27449 0.0
C214 C 0.07556 0.37484 0.19675 0.0
C215 C 0.07015 0.40042 0.24682 0.0
C216 C 0.04988 0.39881 0.31424 0.0
C217 C 0.03332 0.37154 0.32562 0.0
C218 C 0.04099 0.19285 0.03429 0.0
H219 H 0.09985 0.26041 0.50777 0.0
H220 H 0.09815 0.29398 0.39218 0.0
H221 H 0.14665 0.22838 0.24406 0.0
H222 H 0.14827 0.19415 0.36318 0.0
H223 H 0.10708 0.32246 0.27898 0.0
H224 H 0.10172 0.23402 0.16807 0.0
H225 H 0.04277 0.30539 0.08548 0.0
H226 H 0.04079 0.21639 0.15013 0.0
H227 H 0.08004 0.26523 0.94446 0.0
H228 H 0.06965 0.22141 0.85448 0.0
H229 H 0.02676 0.32494 0.2893 0.0
H230 H 0.09341 0.37611 0.15064 0.0
H231 H 0.03088 0.17262 0.06164 0.0
H232 H 0.0174 0.36936 0.37644 0.0
H233 H 0.0833 0.42085 0.23595 0.0
C234 C 0.28455 0.10648 0.40782 0.0
C235 C 0.3155 0.11116 0.39274 0.0
C236 C 0.26397 0.11064 0.34416 0.0
C237 C 0.27437 0.11956 0.26505 0.0
C238 C 0.30362 0.13251 0.25891 0.0
C239 C 0.32432 0.12813 0.32281 0.0
C240 C 0.25985 0.10538 0.19131 0.0
C241 C 0.22929 0.0966 0.19552 0.0
C242 C 0.21884 0.0705 0.15492 0.0
C243 C 0.23845 0.05597 0.09706 0.0
C244 C 0.26808 0.06801 0.08143 0.0
C245 C 0.27833 0.09231 0.13003 0.0
C246 C 0.2911 0.05414 1.024 0.0
C247 C 0.31546 0.03761 0.05718 0.0
C248 C 0.29376 0.06416 0.94155 0.0
C249 C 0.32046 0.05889 0.89499 0.0
C250 C 0.34557 0.04396 0.93005 0.0
C251 C 0.19027 0.05672 0.19016 0.0
C252 C 0.1926 0.03324 0.24898 0.0
C253 C 0.16292 0.07315 0.18773 0.0
C254 C 0.13921 0.06713 0.24447 0.0
C255 C 0.1422 0.04476 0.30661 0.0
C256 C 0.16915 0.02751 0.30651 0.0
C257 C 0.34211 0.03249 1.01102 0.0
H258 H 0.2769 0.09445 0.46271 0.0
H259 H 0.24134 0.10168 0.35431 0.0
H260 H 0.31191 0.14165 0.20082 0.0
H261 H 0.34805 0.13331 0.31165 0.0
H262 H 0.21456 0.10737 0.24034 0.0
H263 H 0.30197 0.09894 0.12465 0.0
H264 H 0.2311 0.03536 0.06651 0.0
H265 H 0.31463 0.03024 0.12099 0.0
H266 H 0.27594 0.07778 0.91472 0.0
H267 H 0.32214 0.06814 0.8331 0.0
H268 H 0.21374 0.02106 0.25536 0.0
H269 H 0.1607 0.09212 0.14533 0.0
H270 H 0.36055 1.02042 0.04006 0.0
H271 H 0.17315 1.01078 0.35431 0.0
H272 H 0.11894 0.08086 0.24151 0.0
C273 C 0.47512 0.34461 0.92003 0.0
C274 C 0.50218 0.36157 0.92895 0.0
C275 C 0.46934 0.31834 0.96784 0.0
C276 C 0.49014 0.30804 1.0273 0.0
C277 C 0.51782 0.32401 0.03381 0.0
C278 C 0.5238 0.35024 0.98521 0.0
C279 C 0.47838 0.28897 0.09821 0.0
C280 C 0.48792 0.25899 0.11904 0.0
C281 C 0.47445 0.24347 0.18775 0.0
C282 C 0.4527 0.25876 0.23564 0.0
C283 C 0.44558 0.28948 0.22152 0.0
C284 C 0.45752 0.30344 0.14992 0.0
C285 C 0.43233 0.30887 0.28903 0.0
C286 C 0.43443 0.2997 0.37232 0.0
C287 C 0.42714 0.34003 0.27447 0.0
C288 C 0.43648 0.36133 0.33261 0.0
C289 C 0.44727 0.35154 0.40988 0.0
C290 C 0.4835 0.21239 0.21824 0.0
C291 C 0.46085 0.19013 0.23255 0.0
C292 C 0.51224 0.20752 0.25322 0.0
C293 C 0.51758 0.182 0.3045 0.0
C294 C 0.49428 0.1607 0.32251 0.0
C295 C 0.4661 0.16482 0.28382 0.0
C296 C 0.44085 0.32122 0.43296 0.0
H297 H 0.4573 0.35267 0.88011 0.0
H298 H 0.44729 0.30746 0.96328 0.0
H299 H 0.53393 0.31758 0.08082 0.0
H300 H 0.54498 0.36236 0.99418 0.0
H301 H 0.50504 0.24784 0.08207 0.0
H302 H 0.45262 0.32693 0.13575 0.0
H303 H 0.44288 0.24685 0.28789 0.0
H304 H 0.43517 0.27606 0.39061 0.0
H305 H 0.42069 0.3484 0.21435 0.0
H306 H 0.43866 0.38449 0.31116 0.0
H307 H 0.4383 0.19333 0.20798 0.0
H308 H 0.52994 0.22455 0.24577 0.0
H309 H 0.44551 0.31317 0.49476 0.0
H310 H 0.44767 0.1489 0.29533 0.0
H311 H 0.53946 0.17994 0.33385 0.0
Tb312 Tb 0.98679 0.0436 0.65225 0.0
C313 C 0.10036 0.05282 0.86065 0.0
N314 N 0.09674 0.0392 0.78622 0.0
C315 C 0.14365 0.06108 0.73827 0.0
C316 C 0.12563 0.07171 0.87623 0.0
C317 C 0.11797 0.0429 0.72521 0.0
C318 C 0.14754 0.0755 0.81412 0.0
C319 C 0.08085 0.06252 0.99795 0.0
C320 C 0.07812 0.04832 0.92045 0.0
C321 C 0.10559 0.08198 1.01312 0.0
C322 C 0.12801 0.08644 0.95259 0.0
Tb323 Tb 0.05517 1.0084 0.77384 0.0
N324 N 0.05445 0.02924 0.90365 0.0
C325 C 0.05916 0.056 0.05882 0.0
C326 C 0.03529 1.02041 0.96606 0.0
C327 C 0.03664 0.03437 0.04328 0.0
H328 H 0.11536 0.03149 0.66685 0.0
H329 H 0.02082 0.02776 0.09154 0.0
H330 H 0.92859 0.05115 0.78233 0.0
H331 H 0.99659 0.98946 0.35511 0.0
H332 H 0.01975 1.00168 0.95874 0.0
H333 H 0.06044 0.06643 0.11913 0.0
H334 H 1.01494 1.0179 0.47548 0.0
H335 H 0.16044 0.06395 0.68985 0.0
H336 H 0.10786 0.09328 0.07202 0.0
H337 H 0.14713 0.10126 0.96552 0.0
H338 H 0.87503 0.03504 0.78957 0.0
H339 H 0.16735 0.08975 0.82379 0.0
H340 H 0.94295 0.97272 0.34876 0.0
N341 N 0.93678 0.03026 0.66604 0.0
C342 C 0.9245 1.01485 0.60187 0.0
C343 C 0.88874 0.02908 0.73654 0.0
C344 C 0.89375 1.00586 0.60242 0.0
C345 C 0.91929 0.03779 0.7327 0.0
C346 C 0.8759 1.01302 0.67117 0.0
N347 N 0.97269 1.01613 0.53917 0.0
C348 C 0.99173 1.01031 0.47451 0.0
C349 C 0.93133 0.99193 0.46744 0.0
C350 C 0.94298 1.00791 0.53557 0.0
C351 C 0.95097 0.98504 0.40217 0.0
C352 C 0.98129 0.99436 0.40568 0.0
H353 H 0.85218 1.00645 0.67414 0.0
H354 H 0.85828 0.98304 0.53367 0.0
H355 H 0.89119 0.97095 0.41521 0.0
O356 O 0.99298 0.07622 0.55951 0.0
O357 O 0.98744 0.99312 0.64998 0.0
O358 O 0.03724 0.97962 0.6742 0.0
O359 O 0.95677 0.08083 0.64801 0.0
O360 O 0.03305 0.04999 0.59774 0.0
O361 O 0.06255 1.00973 0.64045 0.0
O362 O 0.06277 0.97189 0.85535 0.0
O363 O 0.05435 0.05879 0.75339 0.0
O364 O 1.00386 0.06739 0.76113 0.0
O365 O 0.09544 0.98313 0.76221 0.0
O366 O 1.00834 0.99576 0.81622 0.0
O367 O 0.98245 0.03924 0.78621 0.0
C368 C 1.00988 0.97343 0.64618 0.0
C369 C 0.98589 0.12482 0.61659 0.0
C370 C 0.02797 0.16127 0.61429 0.0
C371 C 1.00957 0.18245 0.65539 0.0
C372 C 0.96768 0.14634 0.65649 0.0
C373 C 0.97974 0.17479 0.67737 0.0
C374 C 1.01643 0.13202 0.6 0.0
C375 C 0.05623 0.03142 0.58726 0.0
C376 C 0.97363 0.09469 0.59339 0.0
C377 C 0.88188 0.99008 0.53452 0.0
C378 C 0.90061 0.98321 0.46703 0.0
C379 C 0.03172 0.07721 0.77011 0.0
C380 C 0.0829 0.93145 0.7767 0.0
C381 C 0.04958 0.8889 0.7397 0.0
C382 C 0.07188 0.87834 0.68481 0.0
C383 C 0.10504 0.92037 0.7222 0.0
C384 C 0.05569 0.91504 0.78651 0.0
C385 C 0.09956 0.89387 0.67692 0.0
C386 C 0.98489 1.01383 0.82835 0.0
C387 C 0.08584 0.96224 0.81274 0.0
H388 H 0.01775 0.20529 0.6675 0.0
H389 H 0.94423 0.14114 0.67154 0.0
H390 H 0.96562 0.19132 0.70823 0.0
H391 H 0.0312 0.11515 0.57303 0.0
H392 H 0.06775 0.85855 0.64688 0.0
H393 H 0.12611 0.93276 0.71255 0.0
H394 H 0.03874 0.92305 0.82973 0.0
H395 H 0.11654 0.88577 0.63401 0.0
Tb396 Tb 0.53468 0.06522 0.75402 0.0
C397 C 0.55517 0.94591 0.58616 0.0
N398 N 0.54125 0.96921 0.54762 0.0
C399 C 0.57449 0.96351 0.43103 0.0
C400 C 0.58024 0.93112 0.55076 0.0
C401 C 0.54932 0.97705 0.46871 0.0
C402 C 0.59047 0.94088 0.47307 0.0
C403 C 0.5526 0.90828 0.69459 0.0
C404 C 0.54183 0.93496 0.65669 0.0
C405 C 0.57925 0.89478 0.66438 0.0
C406 C 0.59313 0.90625 0.59234 0.0
Tb407 Tb 0.50489 0.99466 0.62152 0.0
N408 N 0.51582 0.94833 0.6813 0.0
C409 C 0.53512 0.895 0.75766 0.0
C410 C 0.49694 0.93348 0.7357 0.0
C411 C 0.50668 0.90713 0.77646 0.0
H412 H 0.53732 0.99498 0.43697 0.0
H413 H 0.49231 0.89629 0.82246 0.0
H414 H 0.47939 0.11509 0.76521 0.0
H415 H 0.65151 0.08495 0.65806 0.0
H416 H 0.47496 0.94287 0.75056 0.0
H417 H 0.54254 0.87451 0.78878 0.0
H418 H 0.61096 0.06226 0.74403 0.0
H419 H 0.58163 0.97062 0.36991 0.0
H420 H 0.58836 0.87461 0.69358 0.0
H421 H 0.61282 0.89486 0.56725 0.0
H422 H 0.46533 0.16359 0.69706 0.0
H423 H 0.60982 0.93029 0.44371 0.0
H424 H 0.63947 0.12589 0.55828 0.0
N425 N 0.52089 0.11105 0.69889 0.0
C426 C 0.54095 0.12464 0.64679 0.0
C427 C 0.48659 0.15274 0.68184 0.0
C428 C 0.53397 0.15207 0.60604 0.0
C429 C 0.49458 0.12537 0.72033 0.0
C430 C 0.50612 0.16586 0.62318 0.0
N431 N 0.57555 0.08733 0.6868 0.0
C432 C 0.60514 0.07928 0.69873 0.0
C433 C 0.59176 0.12638 0.59062 0.0
C434 C 0.56923 0.1119 0.63912 0.0
C435 C 0.62145 0.11548 0.59458 0.0
C436 C 0.62833 0.09244 0.65091 0.0
H437 H 0.49986 0.18698 0.59322 0.0
H438 H 0.55026 0.18591 0.51833 0.0
H439 H 0.6011 0.16341 0.50503 0.0
O440 O 0.55694 0.09636 0.83144 0.0
O441 O 0.50224 0.07001 0.65091 0.0
O442 O 0.51771 0.0365 0.55425 0.0
O443 O 0.52044 0.06885 0.87734 0.0
O444 O 0.56835 0.0302 0.71556 0.0
O445 O 0.5487 1.01687 0.59155 0.0
O446 O 0.47331 1.00776 0.53342 0.0
O447 O 0.5035 0.99307 0.75788 0.0
O448 O 0.54589 1.01894 0.79836 0.0
O449 O 0.47696 0.96087 0.56751 0.0
O450 O 0.46867 1.01476 0.70178 0.0
O451 O 0.48625 0.05612 0.77935 0.0
C452 C 0.50868 0.06391 0.57368 0.0
C453 C 0.55985 0.07958 0.96746 0.0
C454 C 0.59858 0.04727 1.02669 0.0
C455 C 0.59628 0.06354 0.101 0.0
C456 C 0.55774 0.09579 0.04132 0.0
C457 C 0.57587 0.08764 0.10812 0.0
C458 C 0.57982 0.05515 0.96088 0.0
C459 C 0.57209 1.01945 0.64036 0.0
C460 C 0.54165 0.08808 0.89634 0.0
C461 C 0.5554 0.16521 0.55189 0.0
C462 C 0.58429 0.15232 0.54406 0.0
C463 C 0.52614 0.99663 0.80929 0.0
C464 C 0.42776 0.9814 0.54487 0.0
C465 C 0.38086 1.00992 0.53205 0.0
C466 C 0.36655 0.98977 0.58751 0.0
C467 C 0.41324 0.9611 0.59979 0.0
C468 C 0.41119 1.0053 0.51041 0.0
C469 C 0.38266 0.96523 0.62044 0.0
C470 C 0.46448 0.03714 0.75603 0.0
C471 C 0.46072 0.9811 0.52977 0.0
H472 H 0.61061 0.05801 0.15288 0.0
H473 H 0.54225 0.11471 0.04713 0.0
H474 H 0.5744 0.10027 0.16507 0.0
H475 H 0.58091 0.04243 0.90401 0.0
H476 H 0.34305 0.99297 0.60504 0.0
H477 H 0.4256 0.94265 0.62828 0.0
H478 H 0.42243 0.02138 0.46921 0.0
H479 H 0.37159 0.94975 0.66334 0.0
Tb480 Tb 0.55152 0.52316 0.63974 0.0
C481 C 0.44084 0.50527 0.85623 0.0
N482 N 0.44509 0.5278 0.79955 0.0
C483 C 0.39474 0.51926 0.74837 0.0
C484 C 0.41394 0.48775 0.85842 0.0
C485 C 0.42159 0.53642 0.75006 0.0
C486 C 0.39117 0.49435 0.80147 0.0
C487 C 0.45751 0.48109 0.98267 0.0
C488 C 0.46227 0.50185 0.91739 0.0
C489 C 0.43175 0.4621 0.98211 0.0
C490 C 0.41003 0.46536 0.91989 0.0
Tb491 Tb 0.49196 0.55097 0.8023 0.0
N492 N 0.48693 0.52047 0.91559 0.0
C493 C 0.47819 0.48095 0.04794 0.0
C494 C 0.50599 0.52206 0.98161 0.0
C495 C 0.50216 0.50199 0.04823 0.0
H496 H 0.42354 0.5563 0.71077 0.0
H497 H 0.51776 0.50265 0.09945 0.0
H498 H 0.61412 0.55349 0.71546 0.0
H499 H 0.49881 0.5349 0.33907 0.0
H500 H 0.52456 0.53824 0.98165 0.0
H501 H 0.47531 0.4654 0.09948 0.0
H502 H 0.50903 0.50928 0.47028 0.0
H503 H 0.37669 0.52547 0.70674 0.0
H504 H 0.42788 0.4456 0.03099 0.0
H505 H 0.38969 0.45137 0.92191 0.0
H506 H 0.65124 0.5932 0.67501 0.0
H507 H 0.3702 0.48136 0.80079 0.0
H508 H 0.52808 0.58091 0.29887 0.0
N509 N 0.58573 0.56091 0.61175 0.0
C510 C 0.58249 0.57535 0.53804 0.0
C511 C 0.63181 0.58863 0.63641 0.0
C512 C 0.60306 0.59828 0.51264 0.0
C513 C 0.61053 0.56639 0.65967 0.0
C514 C 0.62795 0.60482 0.56289 0.0
N515 N 0.5407 0.54281 0.51166 0.0
C516 C 0.52062 0.53041 0.45704 0.0
C517 C 0.55463 0.58118 0.41072 0.0
C518 C 0.55867 0.56665 0.48757 0.0
C519 C 0.53195 0.57034 0.35836 0.0
C520 C 0.51531 0.54446 0.38096 0.0
H521 H 0.6444 0.62213 0.54524 0.0
H522 H 0.6136 0.63166 0.41773 0.0
H523 H 0.57111 0.61683 0.32895 0.0
O524 O 0.57454 0.50262 0.54164 0.0
O525 O 0.54617 0.57174 0.67489 0.0
O526 O 0.49553 0.57738 0.68735 0.0
O527 O 0.58582 0.49136 0.66619 0.0
O528 O 0.50412 0.50844 0.61417 0.0
O529 O 0.47511 0.546 0.67468 0.0
O530 O 0.50092 0.59606 0.83389 0.0
O531 O 0.51555 0.50713 0.82109 0.0
O532 O 0.52147 0.48735 0.69253 0.0
O533 O 0.46153 0.57331 0.88324 0.0
O534 O 0.54005 0.55929 0.83643 0.0
O535 O 0.56934 0.52391 0.76645 0.0
C536 C 0.52161 0.58751 0.65891 0.0
C537 C 0.58892 0.45286 0.56651 0.0
C538 C 0.5585 0.41002 0.51941 0.0
C539 C 0.58538 0.39445 0.49951 0.0
C540 C 0.61549 0.43723 0.54643 0.0
C541 C 0.61367 0.40788 0.51409 0.0
C542 C 0.56066 0.43878 0.55601 0.0
C543 C 0.47858 0.52392 0.62071 0.0
C544 C 0.59026 0.48499 0.58896 0.0
C545 C 0.59834 0.61362 0.43777 0.0
C546 C 0.57406 0.60522 0.38724 0.0
C547 C 0.51575 0.48349 0.77175 0.0
C548 C 0.48757 0.60817 0.96992 0.0
C549 C 0.52676 0.62982 0.05858 0.0
C550 C 0.50376 0.63941 0.11327 0.0
C551 C 0.46513 0.61792 1.02497 0.0
C552 C 0.51833 0.61239 0.99006 0.0
C553 C 0.4733 0.63282 0.09741 0.0
C554 C 0.56501 0.54302 0.82797 0.0
C555 C 0.47902 0.59715 0.88754 0.0
H556 H 0.58457 0.37224 0.47086 0.0
H557 H 0.63748 0.44798 0.55394 0.0
H558 H 0.6342 0.39586 0.49792 0.0
H559 H 0.54036 0.45085 0.5738 0.0
H560 H 0.50903 0.65314 0.16663 0.0
H561 H 0.44133 0.61475 1.01087 0.0
H562 H 0.53569 0.60332 0.95001 0.0
H563 H 0.45588 0.64063 0.13942 0.0
Tb564 Tb 0.04638 0.5658 0.61518 0.0
C565 C 0.04162 0.45809 0.89677 0.0
N566 N 0.04641 0.46056 0.81456 0.0
C567 C 0.08653 0.42388 0.82403 0.0
C568 C 0.05957 0.4391 0.94668 0.0
C569 C 0.06767 0.44265 0.77718 0.0
C570 C 0.08281 0.42248 0.90947 0.0
C571 C 1.00846 0.46804 1.01229 0.0
C572 C 0.01681 0.47248 0.92902 0.0
C573 C 0.02699 0.45041 0.06369 0.0
C574 C 0.0527 0.43615 0.03102 0.0
Tb575 Tb 1.01629 0.49411 0.74335 0.0
N576 N 0.99921 0.48843 0.87646 0.0
C577 C 0.98096 0.48007 0.03995 0.0
C578 C 0.97162 0.49875 0.90205 0.0
C579 C 0.96217 0.49498 0.98406 0.0
H580 H 0.07097 0.44354 0.71143 0.0
H581 H 0.9404 0.50356 1.00404 0.0
H582 H 0.08614 0.61442 0.72298 0.0
H583 H 0.97033 0.58844 0.36163 0.0
H584 H 0.95722 0.51067 0.85956 0.0
H585 H 0.97359 0.47706 0.10333 0.0
H586 H 1.00854 0.55916 0.43867 0.0
H587 H 0.10389 0.4105 0.79413 0.0
H588 H 0.02094 0.44663 0.12768 0.0
H589 H 0.06633 0.42186 0.07047 0.0
H590 H 0.08259 0.66841 0.7661 0.0
H591 H 0.09719 0.4077 0.9456 0.0
H592 H 0.95585 0.63996 0.40847 0.0
N593 N 0.04627 0.61603 0.65053 0.0
C594 C 0.02458 0.63375 0.61728 0.0
C595 C 0.06594 0.6589 0.72459 0.0
C596 C 0.02171 0.66462 0.63874 0.0
C597 C 0.06792 0.62842 0.70019 0.0
C598 C 0.04233 0.67695 0.69499 0.0
N599 N 1.01396 0.5927 0.53191 0.0
C600 C 1.00205 0.58139 0.46051 0.0
C601 C 0.98653 0.63947 0.51221 0.0
C602 C 1.00752 0.62147 0.55533 0.0
C603 C 0.97223 0.62697 0.44329 0.0
C604 C 0.98045 0.59797 0.41647 0.0
H605 H 0.04097 0.7006 0.71331 0.0
H606 H 0.99649 0.70604 0.61639 0.0
H607 H 0.96549 0.68391 0.50529 0.0
O608 O 0.08955 0.54836 0.5894 0.0
O609 O 1.00416 0.54152 0.58684 0.0
O610 O 0.98245 0.52904 0.70887 0.0
O611 O 0.0738 0.58907 0.52876 0.0
O612 O 0.03542 0.52373 0.54769 0.0
O613 O 0.0504 0.48943 0.64336 0.0
O614 O 0.9901 0.4536 0.75173 0.0
O615 O 0.06557 0.50332 0.74062 0.0
O616 O 0.07094 0.55518 0.73057 0.0
O617 O 0.99465 0.47757 0.63761 0.0
O618 O 1.00827 0.53771 0.81125 0.0
O619 O 0.03232 0.57831 0.74154 0.0
C620 C 0.98011 0.54081 0.63439 0.0
C621 C 0.10532 0.55676 0.451 0.0
C622 C 0.1193 0.51432 0.36117 0.0
C623 C 0.12992 0.53578 0.30241 0.0
C624 C 0.11512 0.57746 0.39037 0.0
C625 C 0.12724 0.56697 0.31638 0.0
C626 C 0.10706 0.52534 0.43554 0.0
C627 C 0.04551 0.49638 0.56549 0.0
C628 C 0.09471 0.56835 0.53122 0.0
C629 C 0.99941 0.68233 0.60017 0.0
C630 C 0.98177 0.66973 0.53692 0.0
C631 C 0.07956 0.52873 0.76109 0.0
C632 C 0.94832 0.45433 0.65991 0.0
C633 C 0.89976 0.47904 0.68404 0.0
C634 C 0.88898 0.46718 0.60931 0.0
C635 C 0.93728 0.44234 0.58592 0.0
C636 C 0.92894 0.47107 0.71018 0.0
C637 C 0.90746 0.44825 0.56169 0.0
C638 C 0.01725 0.56673 0.80557 0.0
C639 C 0.98109 0.45538 0.67551 0.0
H640 H 0.14155 0.52884 0.24682 0.0
H641 H 0.11401 0.60176 0.40101 0.0
H642 H 0.13547 0.58308 0.27061 0.0
H643 H 0.09936 0.50951 0.48232 0.0
H644 H 0.86691 0.47335 0.58608 0.0
H645 H 0.95209 0.42972 0.5452 0.0
H646 H 0.93739 0.47949 0.76786 0.0
H647 H 0.89923 0.43951 0.50364 0.0
C648 C 0.10415 0.06634 0.41045 0.0
C649 C 0.11846 0.04083 0.37427 0.0
C650 C 0.08351 0.06328 0.4774 0.0
C651 C 0.07646 0.03461 0.51231 0.0
H652 H 0.10957 0.08906 0.38849 0.0
H653 H 0.07379 0.08366 0.50365 0.0
S654 S 0.1042 0.96024 0.43527 0.0
N655 N 0.12099 0.98554 0.37447 0.0
N656 N 0.08368 0.98008 0.50097 0.0
C657 C 0.08985 1.00896 0.47535 0.0
C658 C 0.11038 1.01197 0.40654 0.0
C659 C 0.47644 0.13038 0.44773 0.0
C660 C 0.49836 0.13541 0.38506 0.0
C661 C 0.47977 0.10727 0.50789 0.0
C662 C 0.50493 0.08768 0.50758 0.0
H663 H 0.45672 0.14488 0.45142 0.0
H664 H 0.46247 0.10472 0.55514 0.0
S665 S 0.56848 0.09021 0.35664 0.0
N666 N 0.54612 0.11817 0.32691 0.0
N667 N 0.55186 0.07459 0.4381 0.0
C668 C 0.52668 0.09201 0.44456 0.0
C669 C 0.52362 0.1159 0.38422 0.0
C670 C 0.42253 0.53658 0.44405 0.0
C671 C 0.40547 0.50928 0.44226 0.0
C672 C 0.44597 0.54116 0.50195 0.0
C673 C 0.45364 0.51856 0.56006 0.0
H674 H 0.41809 0.55439 0.39943 0.0
H675 H 0.45857 0.56239 0.50025 0.0
S676 S 0.41372 0.44483 0.58976 0.0
N677 N 0.39636 0.46055 0.51041 0.0
N678 N 0.44053 0.46915 0.61709 0.0
C679 C 0.43624 0.49169 0.5609 0.0
C680 C 0.41222 0.48705 0.50262 0.0
C681 C 0.04996 0.41777 0.46168 0.0
C682 C 0.04799 0.42424 0.3766 0.0
C683 C 0.04922 0.44098 0.52159 0.0
C684 C 0.04621 0.47197 0.49994 0.0
H685 H 0.05257 0.39446 0.48239 0.0
H686 H 0.05067 0.43434 0.58557 0.0
S687 S 0.03852 0.50128 0.28551 0.0
N688 N 0.04215 0.46416 0.27412 0.0
N689 N 0.03994 0.50747 0.38572 0.0
C690 C 0.04357 0.4787 0.41495 0.0
C691 C 0.04481 0.45505 0.35382 0.0
C692 C 0.92866 0.97635 0.98167 0.0
C693 C 0.91922 1.00092 0.03182 0.0
C694 C 0.95047 0.98019 0.91773 0.0
C695 C 0.96361 1.00886 0.90031 0.0
H696 H 0.91848 0.95404 0.99025 0.0
H697 H 0.95635 0.96079 0.88003 0.0
S698 S 0.95066 0.07955 1.01985 0.0
N699 N 0.92796 0.05422 0.06418 0.0
N700 N 0.96773 0.06147 0.94388 0.0
C701 C 0.95525 0.03324 0.95171 0.0
C702 C 0.93346 0.0293 1.01718 0.0
C703 C 0.50547 0.94087 0.98503 0.0
C704 C 0.53348 0.92769 1.00633 0.0
C705 C 0.50341 0.96364 0.92317 0.0
C706 C 0.52925 0.97444 0.87982 0.0
H707 H 0.48492 0.93354 1.0164 0.0
H708 H 0.48128 0.97271 0.90861 0.0
S709 S 0.60715 0.94493 0.90411 0.0
N710 N 0.58715 0.92556 0.97294 0.0
N711 N 0.58332 0.96868 0.85986 0.0
C712 C 0.55725 0.96142 0.90034 0.0
C713 C 0.55933 0.93801 0.96238 0.0
C714 C 0.62316 0.57299 0.98398 0.0
C715 C 0.63377 0.5463 1.02355 0.0
C716 C 0.60074 0.57189 0.92193 0.0
C717 C 0.58819 0.54412 0.89525 0.0
H718 H 0.63282 0.59497 0.99916 0.0
H719 H 0.59388 0.59287 0.89257 0.0
S720 S 0.60463 0.46801 0.98318 0.0
N721 N 0.62661 0.49138 0.03581 0.0
N722 N 0.58654 0.48954 0.91617 0.0
C723 C 0.59797 0.51744 0.93481 0.0
C724 C 0.62012 0.51848 0.99948 0.0
C725 C 0.02723 0.63384 0.95522 0.0
C726 C 1.00129 0.63276 1.00664 0.0
C727 C 0.03224 0.61213 0.89278 0.0
C728 C 1.01149 0.58828 0.87661 0.0
H729 H 0.04361 0.65214 0.96135 0.0
H730 H 0.05275 0.61422 0.85665 0.0
S731 S 0.9404 0.57386 0.9948 0.0
N732 N 0.95567 0.60363 0.0406 0.0
N733 N 0.96366 0.56528 0.91842 0.0
C734 C 0.98567 0.58662 0.92807 0.0
C735 C 0.98092 0.60818 0.99364 0.0
C736 C 0.10182 0.20442 0.57776 0.0
C737 C 0.10707 0.1997 0.49299 0.0
C738 C 0.07728 0.19037 0.61861 0.0
C739 C 0.05741 0.17076 0.57649 0.0
H740 H 0.11504 0.22124 0.61074 0.0
H741 H 0.07284 0.19626 0.68228 0.0
S742 S 0.06386 0.14742 0.3569 0.0
N743 N 0.09253 0.17101 0.37117 0.0
N744 N 0.04652 0.14506 0.44699 0.0
C745 C 0.06429 0.16348 0.49391 0.0
C746 C 0.08927 0.17765 0.4526 0.0
C747 C 0.33696 0.08373 0.51497 0.0
C748 C 0.33655 0.08882 0.42923 0.0
C749 C 0.3511 0.05795 0.54834 0.0
C750 C 0.36498 0.0364 0.49683 0.0
H751 H 0.32544 0.09927 0.55608 0.0
H752 H 0.35111 0.05479 0.61463 0.0
S753 S 0.36867 0.0381 0.26846 0.0
N754 N 0.35053 0.06945 0.29375 0.0
N755 N 0.37687 0.02126 0.35659 0.0
C756 C 0.36491 0.04132 0.41133 0.0
C757 C 0.35081 0.0675 0.37749 0.0
C758 C 0.49589 0.35183 0.48924 0.0
C759 C 0.47214 0.36863 0.45279 0.0
C760 C 0.5231 0.36557 0.51272 0.0
C761 C 0.52837 0.3967 0.49945 0.0
H762 H 0.49459 0.32736 0.49602 0.0
H763 H 0.54044 0.35142 0.53987 0.0
S764 S 0.47393 0.45193 0.4109 0.0
N765 N 0.45508 0.41938 0.4137 0.0
N766 N 0.50773 0.44439 0.44829 0.0
C767 C 0.5048 0.41419 0.46553 0.0
C768 C 0.47642 0.4004 0.44467 0.0
C769 C 0.14717 0.4345 0.40564 0.0
C770 C 0.15688 0.42546 0.32665 0.0
C771 C 0.13239 0.46229 0.41708 0.0
C772 C 0.12475 0.48096 0.34934 0.0
H773 H 0.15494 0.42243 0.45985 0.0
H774 H 0.12997 0.47017 0.47977 0.0
S775 S 0.12868 0.45832 0.1294 0.0
N776 N 0.14755 0.43169 0.17905 0.0
N777 N 0.11613 0.48157 0.20127 0.0
C778 C 0.12726 0.4681 0.27032 0.0
C779 C 0.14386 0.44066 0.25855 0.0
C780 C 0.96824 0.87773 0.80511 0.0
C781 C 0.96844 0.84744 0.83276 0.0
C782 C 0.99361 0.89025 0.76518 0.0
C783 C 0.02002 0.87294 0.75193 0.0
H784 H 0.95006 0.89277 0.82358 0.0
H785 H 0.99367 0.91449 0.75302 0.0
S786 S 0.0284 0.79041 0.79431 0.0
N787 N 0.99423 0.79875 0.82914 0.0
N788 N 0.04222 0.82241 0.75522 0.0
C789 C 0.01855 0.8415 0.76798 0.0
C790 C 0.99253 0.82868 0.80799 0.0
C791 C 0.6468 0.97872 0.07524 0.0
C792 C 0.66711 0.97751 1.0077 0.0
C793 C 0.62409 1.00066 0.07945 0.0
C794 C 0.62094 0.02254 1.01693 0.0
H795 H 0.64952 0.96392 0.12822 0.0
H796 H 0.60951 1.0011 0.13344 0.0
S797 S 0.6658 0.02753 0.8227 0.0
N798 N 0.67988 0.99792 0.87198 0.0
N799 N 0.6387 0.04074 0.88298 0.0
C800 C 0.6399 0.02071 0.94698 0.0
C801 C 0.66259 0.99785 0.94166 0.0
C802 C 0.59549 0.66511 0.15995 0.0
C803 C 0.61065 0.67924 0.09294 0.0
C804 C 0.57015 0.64635 0.14761 0.0
C805 C 0.55858 0.64133 0.0682 0.0
H806 H 0.60078 0.67123 0.22286 0.0
H807 H 0.55798 0.63794 0.20123 0.0
S808 S 0.59626 0.66523 0.872 0.0
N809 N 0.61808 0.67937 0.94478 0.0
N810 N 0.56829 0.64745 0.9205 0.0
C811 C 0.57622 0.65173 1.00043 0.0
C812 C 0.60292 0.66964 1.01332 0.0
C813 C 0.88412 0.54622 0.82296 0.0
C814 C 0.85352 0.54244 0.84357 0.0
C815 C 0.89832 0.52618 0.7692 0.0
C816 C 0.88248 0.50178 0.73268 0.0
H817 H 0.89758 0.56375 0.85228 0.0
H818 H 0.92232 0.52935 0.75869 0.0
S819 S 0.80098 0.48342 0.76432 0.0
N820 N 0.807 0.51376 0.82188 0.0
N821 N 0.83374 0.47599 0.71899 0.0
C822 C 0.85124 0.49888 0.74918 0.0
C823 C 0.83674 0.51932 0.80489 0.0
C824 C 0.01809 0.14788 0.90367 0.0
C825 C 0.04547 0.16462 0.89872 0.0
C826 C 1.01385 0.1204 0.86044 0.0
C827 C 0.03694 0.10759 0.81122 0.0
H828 H 0.99958 0.15613 0.94144 0.0
H829 H 0.9922 0.10892 0.86673 0.0
S830 S 0.11193 0.14356 0.76945 0.0
N831 N 0.09555 0.16696 0.83522 0.0
N832 N 0.08728 0.11574 0.75356 0.0
C833 C 0.06404 0.12457 0.80301 0.0
C834 C 0.06835 0.15283 0.84665 0.0
C835 C 0.37838 0.03202 0.80322 0.0
C836 C 0.3759 0.04235 0.88544 0.0
C837 C 0.40683 0.03022 0.76205 0.0
C838 C 0.43415 0.03926 0.8002 0.0
H839 H 0.35819 0.02488 0.77066 0.0
H840 H 0.40742 0.02206 0.69931 0.0
S841 S 0.44022 0.06914 1.01385 0.0
N842 N 0.40361 0.06252 1.00223 0.0
N843 N 0.45631 0.05927 0.92593 0.0
C844 C 0.43182 0.05003 0.88196 0.0
C845 C 0.40303 0.05151 0.92407 0.0
C846 C 0.51908 0.41718 0.92768 0.0
C847 C 0.50671 0.39203 0.88523 0.0
C848 C 0.52201 0.44622 0.89046 0.0
C849 C 0.51308 0.45185 0.80842 0.0
H850 H 0.52592 0.41472 0.99135 0.0
H851 H 0.53136 0.46449 0.92684 0.0
S852 S 0.47873 0.39451 0.66961 0.0
N853 N 0.48533 0.37525 0.75512 0.0
N854 N 0.49087 0.42956 0.68622 0.0
C855 C 0.50095 0.42698 0.7648 0.0
C856 C 0.49768 0.39734 0.80286 0.0
C857 C 0.15217 0.49825 0.86211 0.0
C858 C 0.16258 0.5226 0.91127 0.0
C859 C 0.12559 0.50044 0.81424 0.0
C860 C 0.108 0.52715 0.8124 0.0
H861 H 0.16447 0.47699 0.86134 0.0
H862 H 0.11909 0.48107 0.7773 0.0
S863 S 0.12526 0.59795 0.92805 0.0
N864 N 0.15303 0.57471 0.95333 0.0
N865 N 0.10338 0.5787 0.86426 0.0
C866 C 0.11826 0.55178 0.8606 0.0
C867 C 0.14527 0.54951 0.90983 0.0
C868 C 0.02736 0.90061 0.52481 0.0
C869 C 0.99872 0.8873 0.50966 0.0
C870 C 0.03056 0.92789 0.56954 0.0
C871 C 1.00533 0.94377 0.60092 0.0
H872 H 0.04775 0.88972 0.50241 0.0
H873 H 0.05324 0.93654 0.57955 0.0
S874 S 0.92516 0.91816 0.58394 0.0
N875 N 0.94439 0.89216 0.5328 0.0
N876 N 0.95057 0.94276 0.61797 0.0
C877 C 0.97654 0.93051 0.58781 0.0
C878 C 0.97323 0.90254 0.54241 0.0
C879 C 0.64147 0.02505 0.4957 0.0
C880 C 0.66232 1.00399 0.52859 0.0
C881 C 0.61272 0.02996 0.53242 0.0
C882 C 0.60341 1.01463 0.60493 0.0
H883 H 0.64698 0.03733 0.43949 0.0
H884 H 0.59767 0.0461 0.50383 0.0
S885 S 0.64819 0.95635 0.71535 0.0
N886 N 0.67072 0.96738 0.63911 0.0
N887 N 0.617 0.97666 0.70637 0.0
C888 C 0.62388 0.99371 0.63883 0.0
C889 C 0.65309 0.98839 0.60122 0.0
C890 C 0.50005 0.65325 0.51365 0.0
C891 C 0.52428 0.67428 0.52065 0.0
C892 C 0.49929 0.62566 0.55905 0.0
C893 C 0.52296 0.61734 0.61263 0.0
H894 H 0.48126 0.65826 0.47323 0.0
H895 H 0.48007 0.6105 0.55126 0.0
S896 S 0.59162 0.66398 0.65427 0.0
N897 N 0.57282 0.6842 0.58583 0.0
N898 N 0.57092 0.6331 0.67185 0.0
C899 C 0.54723 0.63811 0.62058 0.0
C900 C 0.54799 0.66626 0.5746 0.0
C901 C 0.89922 0.56685 0.58345 0.0
C902 C 0.89154 0.54953 0.51322 0.0
C903 C 0.92766 0.56387 0.62271 0.0
C904 C 0.94959 0.54318 0.59434 0.0
H905 H 0.88308 0.58286 0.6085 0.0
H906 H 0.93252 0.57791 0.67582 0.0
S907 S 0.94299 0.49543 0.40705 0.0
N908 N 0.91005 0.51298 0.41297 0.0
N909 N 0.9627 0.50715 0.48719 0.0
C910 C 0.94266 0.5265 0.52287 0.0
C911 C 0.91385 0.52954 0.48275 0.0
loop_
_geom_bond_atom_site_label_1
_geom_bond_atom_site_label_2
_geom_bond_distance
_geom_bond_site_symmetry_2
_ccdc_geom_bond_type
C0 C1 1.386 . S
C0 C2 1.397 . S
C0 H24 0.931 . S
C1 C0 1.386 . S
C1 C5 1.397 . S
C2 C0 1.397 . S
C2 C3 1.384 . S
C2 H25 0.930 . S
C3 C2 1.384 . S
C3 C4 1.377 . S
C3 C6 1.481 . S
C4 C3 1.377 . S
C4 C5 1.389 . S
C4 H26 0.929 . S
C5 C1 1.397 . S
C5 C4 1.389 . S
C5 H27 0.931 . S
C6 C3 1.481 . S
C6 C7 1.387 . S
C6 C11 1.390 . S
C7 C6 1.387 . S
C7 C8 1.401 . S
C7 H28 0.930 . S
C8 C7 1.401 . S
C8 C9 1.376 . S
C8 C17 1.511 . S
C9 C8 1.376 . S
C9 C10 1.392 . S
C9 H30 0.931 . S
C10 C9 1.392 . S
C10 C11 1.361 . S
C10 C12 1.500 . S
C11 C6 1.390 . S
C11 C10 1.361 . S
C11 H29 0.931 . S
C12 C10 1.500 . S
C12 C13 1.371 . S
C12 C14 1.365 . S
C13 C12 1.371 . S
C13 C23 1.386 . S
C13 H31 0.931 . S
C14 C12 1.365 . S
C14 C15 1.409 . S
C14 H32 0.929 . S
C15 C14 1.409 . S
C15 C16 1.380 . S
C15 H33 0.930 . S
C16 C15 1.380 . S
C16 C23 1.357 . S
C17 C8 1.511 . S
C17 C18 1.341 . S
C17 C19 1.371 . S
C18 C17 1.341 . S
C18 C22 1.394 . S
C18 H34 0.930 . S
C19 C17 1.371 . S
C19 C20 1.392 . S
C19 H35 0.931 . S
C20 C19 1.392 . S
C20 C21 1.331 . S
C20 H38 0.932 . S
C21 C20 1.331 . S
C21 C22 1.336 . S
C22 C18 1.394 . S
C22 C21 1.336 . S
C22 H37 0.929 . S
C23 C13 1.386 . S
C23 C16 1.357 . S
C23 H36 0.928 . S
H24 C0 0.931 . S
H25 C2 0.930 . S
H26 C4 0.929 . S
H27 C5 0.931 . S
H28 C7 0.930 . S
H29 C11 0.931 . S
H30 C9 0.931 . S
H31 C13 0.931 . S
H32 C14 0.929 . S
H33 C15 0.930 . S
H34 C18 0.930 . S
H35 C19 0.931 . S
H36 C23 0.928 . S
H37 C22 0.929 . S
H38 C20 0.932 . S
C39 C40 1.386 . S
C39 C41 1.397 . S
C39 H63 0.931 . S
C40 C39 1.386 . S
C40 C44 1.397 . S
C41 C39 1.397 . S
C41 C42 1.384 . S
C41 H64 0.930 . S
C42 C41 1.384 . S
C42 C43 1.377 . S
C42 C45 1.481 . S
C43 C42 1.377 . S
C43 C44 1.389 . S
C43 H65 0.929 1_655 S
C44 C40 1.397 . S
C44 C43 1.389 . S
C44 H66 0.931 1_655 S
C45 C42 1.481 . S
C45 C46 1.387 . S
C45 C50 1.390 . S
C46 C45 1.387 . S
C46 C47 1.401 . S
C46 H67 0.930 . S
C47 C46 1.401 . S
C47 C48 1.376 . S
C47 C56 1.511 . S
C48 C47 1.376 . S
C48 C49 1.392 . S
C48 H69 0.931 . S
C49 C48 1.392 . S
C49 C50 1.361 . S
C49 C51 1.500 . S
C50 C45 1.390 . S
C50 C49 1.361 . S
C50 H68 0.931 . S
C51 C49 1.500 . S
C51 C52 1.371 . S
C51 C53 1.365 . S
C52 C51 1.371 . S
C52 C62 1.386 . S
C52 H70 0.931 . S
C53 C51 1.365 . S
C53 C54 1.409 . S
C53 H71 0.929 . S
C54 C53 1.409 . S
C54 C55 1.380 . S
C54 H72 0.930 . S
C55 C54 1.380 . S
C55 C62 1.357 . S
C56 C47 1.511 . S
C56 C57 1.341 . S
C56 C58 1.371 . S
C57 C56 1.341 . S
C57 C61 1.394 . S
C57 H73 0.930 . S
C58 C56 1.371 . S
C58 C59 1.392 . S
C58 H74 0.931 . S
C59 C58 1.392 . S
C59 C60 1.331 . S
C59 H77 0.932 . S
C60 C59 1.331 . S
C60 C61 1.336 . S
C61 C57 1.394 . S
C61 C60 1.336 . S
C61 H76 0.929 . S
C62 C52 1.386 . S
C62 C55 1.357 . S
C62 H75 0.928 . S
H63 C39 0.931 . S
H64 C41 0.930 . S
H65 C43 0.929 1_455 S
H66 C44 0.931 1_455 S
H67 C46 0.930 . S
H68 C50 0.931 . S
H69 C48 0.931 . S
H70 C52 0.931 . S
H71 C53 0.929 . S
H72 C54 0.930 . S
H73 C57 0.930 . S
H74 C58 0.931 . S
H75 C62 0.928 . S
H76 C61 0.929 . S
H77 C59 0.932 . S
C78 C79 1.386 . S
C78 C80 1.397 . S
C78 H102 0.931 . S
C79 C78 1.386 . S
C79 C83 1.397 . S
C80 C78 1.397 . S
C80 C81 1.384 . S
C80 H103 0.930 . S
C81 C80 1.384 . S
C81 C82 1.377 . S
C81 C84 1.481 . S
C82 C81 1.377 . S
C82 C83 1.389 . S
C82 H104 0.929 1_565 S
C83 C79 1.397 . S
C83 C82 1.389 . S
C83 H105 0.931 1_565 S
C84 C81 1.481 . S
C84 C85 1.387 . S
C84 C89 1.390 . S
C85 C84 1.387 . S
C85 C86 1.401 . S
C85 H106 0.930 . S
C86 C85 1.401 . S
C86 C87 1.376 . S
C86 C95 1.511 . S
C87 C86 1.376 . S
C87 C88 1.392 . S
C87 H108 0.931 . S
C88 C87 1.392 . S
C88 C89 1.361 . S
C88 C90 1.500 . S
C89 C84 1.390 . S
C89 C88 1.361 . S
C89 H107 0.931 . S
C90 C88 1.500 . S
C90 C91 1.371 . S
C90 C92 1.365 . S
C91 C90 1.371 . S
C91 C101 1.386 . S
C91 H109 0.931 . S
C92 C90 1.365 . S
C92 C93 1.409 . S
C92 H110 0.929 . S
C93 C92 1.409 . S
C93 C94 1.380 . S
C93 H111 0.930 . S
C94 C93 1.380 . S
C94 C101 1.357 . S
C95 C86 1.511 . S
C95 C96 1.341 . S
C95 C97 1.371 . S
C96 C95 1.341 . S
C96 C100 1.394 . S
C96 H112 0.930 . S
C97 C95 1.371 . S
C97 C98 1.392 . S
C97 H113 0.931 . S
C98 C97 1.392 . S
C98 C99 1.331 . S
C98 H116 0.932 . S
C99 C98 1.331 . S
C99 C100 1.336 . S
C100 C96 1.394 . S
C100 C99 1.336 . S
C100 H115 0.929 . S
C101 C91 1.386 . S
C101 C94 1.357 . S
C101 H114 0.928 . S
H102 C78 0.931 . S
H103 C80 0.930 . S
H104 C82 0.929 1_545 S
H105 C83 0.931 1_545 S
H106 C85 0.930 . S
H107 C89 0.931 . S
H108 C87 0.931 . S
H109 C91 0.931 . S
H110 C92 0.929 . S
H111 C93 0.930 . S
H112 C96 0.930 . S
H113 C97 0.931 . S
H114 C101 0.928 . S
H115 C100 0.929 . S
H116 C98 0.932 . S
C117 C118 1.386 . S
C117 C119 1.397 . S
C117 H141 0.931 . S
C118 C117 1.386 . S
C118 C122 1.397 . S
C119 C117 1.397 . S
C119 C120 1.384 . S
C119 H142 0.930 . S
C120 C119 1.384 . S
C120 C121 1.377 . S
C120 C123 1.481 . S
C121 C120 1.377 . S
C121 C122 1.389 . S
C121 H143 0.929 . S
C122 C118 1.397 . S
C122 C121 1.389 . S
C122 H144 0.931 . S
C123 C120 1.481 . S
C123 C124 1.387 . S
C123 C128 1.390 . S
C124 C123 1.387 . S
C124 C125 1.401 . S
C124 H145 0.930 . S
C125 C124 1.401 . S
C125 C126 1.376 . S
C125 C134 1.511 . S
C126 C125 1.376 . S
C126 C127 1.392 . S
C126 H147 0.931 . S
C127 C126 1.392 . S
C127 C128 1.361 . S
C127 C129 1.500 . S
C128 C123 1.390 . S
C128 C127 1.361 . S
C128 H146 0.931 . S
C129 C127 1.500 . S
C129 C130 1.371 . S
C129 C131 1.365 . S
C130 C129 1.371 . S
C130 C140 1.386 . S
C130 H148 0.931 . S
C131 C129 1.365 . S
C131 C132 1.409 . S
C131 H149 0.929 . S
C132 C131 1.409 . S
C132 C133 1.380 . S
C132 H150 0.930 . S
C133 C132 1.380 . S
C133 C140 1.357 . S
C134 C125 1.511 . S
C134 C135 1.341 . S
C134 C136 1.371 . S
C135 C134 1.341 . S
C135 C139 1.394 . S
C135 H151 0.930 . S
C136 C134 1.371 . S
C136 C137 1.392 . S
C136 H152 0.931 . S
C137 C136 1.392 . S
C137 C138 1.331 . S
C137 H155 0.932 . S
C138 C137 1.331 . S
C138 C139 1.336 . S
C139 C135 1.394 . S
C139 C138 1.336 . S
C139 H154 0.929 . S
C140 C130 1.386 . S
C140 C133 1.357 . S
C140 H153 0.928 . S
H141 C117 0.931 . S
H142 C119 0.930 . S
H143 C121 0.929 . S
H144 C122 0.931 . S
H145 C124 0.930 . S
H146 C128 0.931 . S
H147 C126 0.931 . S
H148 C130 0.931 . S
H149 C131 0.929 . S
H150 C132 0.930 . S
H151 C135 0.930 . S
H152 C136 0.931 . S
H153 C140 0.928 . S
H154 C139 0.929 . S
H155 C137 0.932 . S
C156 C157 1.386 . S
C156 C158 1.397 . S
C156 H180 0.931 . S
C157 C156 1.386 . S
C157 C161 1.397 . S
C158 C156 1.397 . S
C158 C159 1.384 . S
C158 H181 0.930 . S
C159 C158 1.384 . S
C159 C160 1.377 . S
C159 C162 1.481 . S
C160 C159 1.377 . S
C160 C161 1.389 . S
C160 H182 0.929 . S
C161 C157 1.397 . S
C161 C160 1.389 . S
C161 H183 0.931 . S
C162 C159 1.481 . S
C162 C163 1.387 . S
C162 C167 1.390 . S
C163 C162 1.387 . S
C163 C164 1.401 . S
C163 H184 0.930 . S
C164 C163 1.401 . S
C164 C165 1.376 1_554 S
C164 C173 1.511 . S
C165 C164 1.376 1_556 S
C165 C166 1.392 . S
C165 H186 0.931 . S
C166 C165 1.392 . S
C166 C167 1.361 1_556 S
C166 C168 1.500 . S
C167 C162 1.390 . S
C167 C166 1.361 1_554 S
C167 H185 0.931 . S
C168 C166 1.500 . S
C168 C169 1.371 . S
C168 C170 1.365 . S
C169 C168 1.371 . S
C169 C179 1.386 . S
C169 H187 0.931 . S
C170 C168 1.365 . S
C170 C171 1.409 . S
C170 H188 0.929 . S
C171 C170 1.409 . S
C171 C172 1.380 . S
C171 H189 0.930 . S
C172 C171 1.380 . S
C172 C179 1.357 . S
C173 C164 1.511 . S
C173 C174 1.341 . S
C173 C175 1.371 . S
C174 C173 1.341 . S
C174 C178 1.394 . S
C174 H190 0.930 . S
C175 C173 1.371 . S
C175 C176 1.392 . S
C175 H191 0.931 1_554 S
C176 C175 1.392 . S
C176 C177 1.331 . S
C176 H194 0.932 . S
C177 C176 1.331 . S
C177 C178 1.336 . S
C178 C174 1.394 . S
C178 C177 1.336 . S
C178 H193 0.929 . S
C179 C169 1.386 . S
C179 C172 1.357 . S
C179 H192 0.928 . S
H180 C156 0.931 . S
H181 C158 0.930 . S
H182 C160 0.929 . S
H183 C161 0.931 . S
H184 C163 0.930 . S
H185 C167 0.931 . S
H186 C165 0.931 . S
H187 C169 0.931 . S
H188 C170 0.929 . S
H189 C171 0.930 . S
H190 C174 0.930 . S
H191 C175 0.931 1_556 S
H192 C179 0.928 . S
H193 C178 0.929 . S
H194 C176 0.932 . S
C195 C196 1.386 . S
C195 C197 1.397 . S
C195 H219 0.931 . S
C196 C195 1.386 . S
C196 C200 1.397 . S
C197 C195 1.397 . S
C197 C198 1.384 . S
C197 H220 0.930 . S
C198 C197 1.384 . S
C198 C199 1.377 . S
C198 C201 1.481 . S
C199 C198 1.377 . S
C199 C200 1.389 . S
C199 H221 0.929 . S
C200 C196 1.397 . S
C200 C199 1.389 . S
C200 H222 0.931 . S
C201 C198 1.481 . S
C201 C202 1.387 . S
C201 C206 1.390 . S
C202 C201 1.387 . S
C202 C203 1.401 . S
C202 H223 0.930 . S
C203 C202 1.401 . S
C203 C204 1.376 1_554 S
C203 C212 1.511 . S
C204 C203 1.376 1_556 S
C204 C205 1.392 . S
C204 H225 0.931 . S
C205 C204 1.392 . S
C205 C206 1.361 1_556 S
C205 C207 1.500 . S
C206 C201 1.390 . S
C206 C205 1.361 1_554 S
C206 H224 0.931 . S
C207 C205 1.500 . S
C207 C208 1.371 . S
C207 C209 1.365 . S
C208 C207 1.371 . S
C208 C218 1.386 . S
C208 H226 0.931 . S
C209 C207 1.365 . S
C209 C210 1.409 . S
C209 H227 0.929 . S
C210 C209 1.409 . S
C210 C211 1.380 . S
C210 H228 0.930 . S
C211 C210 1.380 . S
C211 C218 1.357 . S
C212 C203 1.511 . S
C212 C213 1.341 . S
C212 C214 1.371 . S
C213 C212 1.341 . S
C213 C217 1.394 . S
C213 H229 0.930 . S
C214 C212 1.371 . S
C214 C215 1.392 . S
C214 H230 0.931 1_554 S
C215 C214 1.392 . S
C215 C216 1.331 . S
C215 H233 0.932 . S
C216 C215 1.331 . S
C216 C217 1.336 . S
C217 C213 1.394 . S
C217 C216 1.336 . S
C217 H232 0.929 . S
C218 C208 1.386 . S
C218 C211 1.357 . S
C218 H231 0.928 . S
H219 C195 0.931 . S
H220 C197 0.930 . S
H221 C199 0.929 . S
H222 C200 0.931 . S
H223 C202 0.930 . S
H224 C206 0.931 . S
H225 C204 0.931 . S
H226 C208 0.931 . S
H227 C209 0.929 . S
H228 C210 0.930 . S
H229 C213 0.930 . S
H230 C214 0.931 1_556 S
H231 C218 0.928 . S
H232 C217 0.929 . S
H233 C215 0.932 . S
C234 C235 1.386 . S
C234 C236 1.397 . S
C234 H258 0.931 . S
C235 C234 1.386 . S
C235 C239 1.397 . S
C236 C234 1.397 . S
C236 C237 1.384 . S
C236 H259 0.930 . S
C237 C236 1.384 . S
C237 C238 1.377 . S
C237 C240 1.481 . S
C238 C237 1.377 . S
C238 C239 1.389 . S
C238 H260 0.929 . S
C239 C235 1.397 . S
C239 C238 1.389 . S
C239 H261 0.931 . S
C240 C237 1.481 . S
C240 C241 1.387 . S
C240 C245 1.390 . S
C241 C240 1.387 . S
C241 C242 1.401 . S
C241 H262 0.930 . S
C242 C241 1.401 . S
C242 C243 1.376 1_554 S
C242 C251 1.511 . S
C243 C242 1.376 1_556 S
C243 C244 1.392 . S
C243 H264 0.931 . S
C244 C243 1.392 . S
C244 C245 1.361 1_556 S
C244 C246 1.500 . S
C245 C240 1.390 . S
C245 C244 1.361 1_554 S
C245 H263 0.931 . S
C246 C244 1.500 . S
C246 C247 1.371 . S
C246 C248 1.365 . S
C247 C246 1.371 . S
C247 C257 1.386 . S
C247 H265 0.931 . S
C248 C246 1.365 . S
C248 C249 1.409 . S
C248 H266 0.929 . S
C249 C248 1.409 . S
C249 C250 1.380 . S
C249 H267 0.930 . S
C250 C249 1.380 . S
C250 C257 1.357 . S
C251 C242 1.511 . S
C251 C252 1.341 . S
C251 C253 1.371 . S
C252 C251 1.341 . S
C252 C256 1.394 . S
C252 H268 0.930 . S
C253 C251 1.371 . S
C253 C254 1.392 . S
C253 H269 0.931 1_554 S
C254 C253 1.392 . S
C254 C255 1.331 . S
C254 H272 0.932 . S
C255 C254 1.331 . S
C255 C256 1.336 . S
C256 C252 1.394 . S
C256 C255 1.336 . S
C256 H271 0.929 . S
C257 C247 1.386 . S
C257 C250 1.357 . S
C257 H270 0.928 . S
H258 C234 0.931 . S
H259 C236 0.930 . S
H260 C238 0.929 . S
H261 C239 0.931 . S
H262 C241 0.930 . S
H263 C245 0.931 . S
H264 C243 0.931 . S
H265 C247 0.931 . S
H266 C248 0.929 . S
H267 C249 0.930 . S
H268 C252 0.930 . S
H269 C253 0.931 1_556 S
H270 C257 0.928 . S
H271 C256 0.929 . S
H272 C254 0.932 . S
C273 C274 1.386 . S
C273 C275 1.397 . S
C273 H297 0.931 . S
C274 C273 1.386 . S
C274 C278 1.397 . S
C275 C273 1.397 . S
C275 C276 1.384 . S
C275 H298 0.930 . S
C276 C275 1.384 . S
C276 C277 1.377 . S
C276 C279 1.481 . S
C277 C276 1.377 . S
C277 C278 1.389 . S
C277 H299 0.929 . S
C278 C274 1.397 . S
C278 C277 1.389 . S
C278 H300 0.931 . S
C279 C276 1.481 . S
C279 C280 1.387 . S
C279 C284 1.390 1_556 S
C280 C279 1.387 . S
C280 C281 1.401 1_556 S
C280 H301 0.930 . S
C281 C280 1.401 1_554 S
C281 C282 1.376 . S
C281 C290 1.511 . S
C282 C281 1.376 . S
C282 C283 1.392 . S
C282 H303 0.931 . S
C283 C282 1.392 . S
C283 C284 1.361 . S
C283 C285 1.500 . S
C284 C279 1.390 1_554 S
C284 C283 1.361 . S
C284 H302 0.931 . S
C285 C283 1.500 . S
C285 C286 1.371 . S
C285 C287 1.365 . S
C286 C285 1.371 . S
C286 C296 1.386 . S
C286 H304 0.931 . S
C287 C285 1.365 . S
C287 C288 1.409 . S
C287 H305 0.929 . S
C288 C287 1.409 . S
C288 C289 1.380 . S
C288 H306 0.930 . S
C289 C288 1.380 . S
C289 C296 1.357 . S
C290 C281 1.511 . S
C290 C291 1.341 . S
C290 C292 1.371 . S
C291 C290 1.341 . S
C291 C295 1.394 . S
C291 H307 0.930 1_554 S
C292 C290 1.371 . S
C292 C293 1.392 . S
C292 H308 0.931 . S
C293 C292 1.392 . S
C293 C294 1.331 . S
C293 H311 0.932 . S
C294 C293 1.331 . S
C294 C295 1.336 . S
C295 C291 1.394 . S
C295 C294 1.336 . S
C295 H310 0.929 . S
C296 C286 1.386 . S
C296 C289 1.357 . S
C296 H309 0.928 . S
H297 C273 0.931 . S
H298 C275 0.930 . S
H299 C277 0.929 . S
H300 C278 0.931 . S
H301 C280 0.930 . S
H302 C284 0.931 . S
H303 C282 0.931 . S
H304 C286 0.931 . S
H305 C287 0.929 . S
H306 C288 0.930 . S
H307 C291 0.930 1_556 S
H308 C292 0.931 . S
H309 C296 0.928 . S
H310 C295 0.929 . S
H311 C293 0.932 . S
Tb312 N341 2.617 . S
Tb312 N347 2.572 . S
Tb312 O356 2.465 . S
Tb312 O357 2.387 1_545 S
Tb312 O359 2.428 . S
Tb312 O360 2.308 1_655 S
Tb312 O364 2.349 1_655 S
Tb312 O367 2.393 . S
Tb312 C376 2.802 . S
C313 N314 1.398 . S
C313 C316 1.416 . S
C313 C320 1.424 . S
N314 C313 1.398 . S
N314 C317 1.331 1_545 S
N314 Tb323 2.608 1_545 S
C315 C317 1.390 1_545 S
C315 C318 1.339 . S
C315 H335 0.930 . S
C316 C313 1.416 . S
C316 C318 1.416 . S
C316 C322 1.448 . S
C317 N314 1.331 1_565 S
C317 C315 1.390 1_565 S
C317 H328 0.930 . S
C318 C315 1.339 . S
C318 C316 1.416 . S
C318 H339 0.930 . S
C319 C320 1.413 . S
C319 C321 1.427 1_556 S
C319 C325 1.416 1_556 S
C320 C313 1.424 . S
C320 C319 1.413 . S
C320 N324 1.361 . S
C321 C319 1.427 1_554 S
C321 C322 1.328 1_554 S
C321 H336 0.929 . S
C322 C316 1.448 . S
C322 C321 1.328 1_556 S
C322 H337 0.930 . S
Tb323 N314 2.608 1_565 S
Tb323 N324 2.572 1_565 S
Tb323 O358 2.349 . S
Tb323 O361 2.393 . S
Tb323 O362 2.465 . S
Tb323 O363 2.387 1_565 S
Tb323 O365 2.428 . S
Tb323 O366 2.306 1_465 S
Tb323 C387 2.802 . S
N324 C320 1.361 . S
N324 Tb323 2.572 1_545 S
N324 C326 1.340 . S
C325 C319 1.416 1_554 S
C325 C327 1.332 . S
C325 H333 0.931 . S
C326 N324 1.340 . S
C326 C327 1.407 1_556 S
C326 H332 0.930 . S
C327 C325 1.332 . S
C327 C326 1.407 1_554 S
C327 H329 0.929 . S
H328 C317 0.930 . S
H329 C327 0.929 . S
H330 C345 0.930 . S
H331 C352 0.929 1_455 S
H332 C326 0.930 . S
H333 C325 0.931 . S
H334 C348 0.930 1_455 S
H335 C315 0.930 . S
H336 C321 0.929 . S
H337 C322 0.930 . S
H338 C343 0.930 . S
H339 C318 0.930 . S
H340 C351 0.931 . S
N341 Tb312 2.617 . S
N341 C342 1.373 1_545 S
N341 C345 1.334 . S
C342 N341 1.373 1_565 S
C342 C344 1.421 . S
C342 C350 1.425 . S
C343 H338 0.930 . S
C343 C345 1.390 . S
C343 C346 1.339 1_545 S
C344 C342 1.421 . S
C344 C346 1.416 . S
C344 C377 1.448 . S
C345 H330 0.930 . S
C345 N341 1.334 . S
C345 C343 1.390 . S
C346 C343 1.339 1_565 S
C346 C344 1.416 . S
C346 H353 0.930 . S
N347 Tb312 2.572 . S
N347 C348 1.340 . S
N347 C350 1.361 1_545 S
C348 H334 0.930 1_655 S
C348 N347 1.340 . S
C348 C352 1.407 1_545 S
C349 C350 1.413 . S
C349 C351 1.416 . S
C349 C378 1.427 . S
C350 C342 1.425 . S
C350 N347 1.361 1_565 S
C350 C349 1.413 . S
C351 H340 0.931 . S
C351 C349 1.416 . S
C351 C352 1.332 . S
C352 H331 0.929 1_655 S
C352 C348 1.407 1_565 S
C352 C351 1.332 . S
H353 C346 0.930 . S
H354 C377 0.930 . S
H355 C378 0.929 . S
O356 Tb312 2.465 . S
O356 C376 1.264 . S
O357 Tb312 2.387 1_565 S
O357 C368 1.264 . S
O358 Tb323 2.349 . S
O358 C368 1.243 1_455 S
O359 Tb312 2.428 . S
O359 C376 1.256 . S
O360 Tb312 2.308 1_455 S
O360 C375 1.266 . S
O361 Tb323 2.393 . S
O361 C375 1.248 1_565 S
O362 Tb323 2.465 . S
O362 C387 1.264 . S
O363 Tb323 2.387 1_545 S
O363 C379 1.264 . S
O364 Tb312 2.349 1_455 S
O364 C379 1.243 . S
O365 Tb323 2.428 . S
O365 C387 1.256 . S
O366 Tb323 2.306 1_645 S
O366 C386 1.268 . S
O367 Tb312 2.393 . S
O367 C386 1.248 . S
C368 O357 1.264 . S
C368 O358 1.243 1_655 S
C369 C372 1.399 . S
C369 C374 1.383 . S
C369 C376 1.496 . S
C370 C371 1.399 . S
C370 C374 1.389 . S
C371 C370 1.399 . S
C371 C373 1.380 . S
C371 H388 0.929 . S
C372 C369 1.399 . S
C372 C373 1.392 . S
C372 H389 0.929 . S
C373 C371 1.380 . S
C373 C372 1.392 . S
C373 H390 0.929 . S
C374 C369 1.383 . S
C374 C370 1.389 . S
C374 H391 0.931 1_655 S
C375 O360 1.266 . S
C375 O361 1.248 1_545 S
C376 Tb312 2.802 . S
C376 O356 1.264 . S
C376 O359 1.256 . S
C376 C369 1.496 . S
C377 C344 1.448 . S
C377 H354 0.930 . S
C377 C378 1.328 . S
C378 C349 1.427 . S
C378 H355 0.929 . S
C378 C377 1.328 . S
C379 O363 1.264 . S
C379 O364 1.243 . S
C380 C383 1.399 . S
C380 C384 1.383 . S
C380 C387 1.496 . S
C381 C382 1.399 . S
C381 C384 1.389 . S
C382 C381 1.399 . S
C382 C385 1.380 . S
C382 H392 0.929 . S
C383 C380 1.399 . S
C383 C385 1.392 . S
C383 H393 0.929 . S
C384 C380 1.383 . S
C384 C381 1.389 . S
C384 H394 0.931 . S
C385 C382 1.380 . S
C385 C383 1.392 . S
C385 H395 0.929 . S
C386 O366 1.268 . S
C386 O367 1.248 . S
C387 Tb323 2.802 . S
C387 O362 1.264 . S
C387 O365 1.256 . S
C387 C380 1.496 . S
H388 C371 0.929 . S
H389 C372 0.929 . S
H390 C373 0.929 . S
H391 C374 0.931 1_455 S
H392 C382 0.929 . S
H393 C383 0.929 . S
H394 C384 0.931 . S
H395 C385 0.929 . S
Tb396 N425 2.617 . S
Tb396 N431 2.572 . S
Tb396 O440 2.465 . S
Tb396 O441 2.387 . S
Tb396 O443 2.428 . S
Tb396 O444 2.308 . S
Tb396 O448 2.349 1_545 S
Tb396 O451 2.393 . S
Tb396 C460 2.802 . S
C397 N398 1.379 . S
C397 C400 1.416 . S
C397 C404 1.424 . S
N398 C397 1.379 . S
N398 C401 1.334 . S
N398 Tb407 2.617 . S
C399 C401 1.390 . S
C399 C402 1.339 . S
C399 H419 0.930 . S
C400 C397 1.416 . S
C400 C402 1.416 . S
C400 C406 1.448 . S
C401 N398 1.334 . S
C401 C399 1.390 . S
C401 H412 0.930 . S
C402 C399 1.339 . S
C402 C400 1.416 . S
C402 H423 0.930 . S
C403 C404 1.413 . S
C403 C405 1.427 . S
C403 C409 1.416 . S
C404 C397 1.424 . S
C404 C403 1.413 . S
C404 N408 1.361 . S
C405 C403 1.427 . S
C405 C406 1.328 . S
C405 H420 0.929 . S
C406 C400 1.448 . S
C406 C405 1.328 . S
C406 H421 0.930 . S
Tb407 N398 2.617 . S
Tb407 N408 2.572 . S
Tb407 O442 2.349 1_565 S
Tb407 O445 2.393 . S
Tb407 O446 2.465 . S
Tb407 O447 2.387 . S
Tb407 O449 2.428 . S
Tb407 O450 2.308 1_565 S
Tb407 C471 2.802 . S
N408 C404 1.361 . S
N408 Tb407 2.572 . S
N408 C410 1.340 . S
C409 C403 1.416 . S
C409 C411 1.332 . S
C409 H417 0.931 . S
C410 N408 1.340 . S
C410 C411 1.407 . S
C410 H416 0.930 . S
C411 C409 1.332 . S
C411 C410 1.407 . S
C411 H413 0.929 . S
H412 C401 0.930 . S
H413 C411 0.929 . S
H414 C429 0.930 . S
H415 C436 0.929 . S
H416 C410 0.930 . S
H417 C409 0.931 . S
H418 C432 0.930 . S
H419 C399 0.930 . S
H420 C405 0.929 . S
H421 C406 0.930 . S
H422 C427 0.930 . S
H423 C402 0.930 . S
H424 C435 0.931 . S
N425 Tb396 2.617 . S
N425 C426 1.379 . S
N425 C429 1.334 . S
C426 N425 1.379 . S
C426 C428 1.416 . S
C426 C434 1.424 . S
C427 H422 0.930 . S
C427 C429 1.390 . S
C427 C430 1.339 . S
C428 C426 1.416 . S
C428 C430 1.416 . S
C428 C461 1.448 . S
C429 H414 0.930 . S
C429 N425 1.334 . S
C429 C427 1.390 . S
C430 C427 1.339 . S
C430 C428 1.416 . S
C430 H437 0.930 . S
N431 Tb396 2.572 . S
N431 C432 1.340 . S
N431 C434 1.361 . S
C432 H418 0.930 . S
C432 N431 1.340 . S
C432 C436 1.407 . S
C433 C434 1.413 . S
C433 C435 1.416 . S
C433 C462 1.427 . S
C434 C426 1.424 . S
C434 N431 1.361 . S
C434 C433 1.413 . S
C435 H424 0.931 . S
C435 C433 1.416 . S
C435 C436 1.332 . S
C436 H415 0.929 . S
C436 C432 1.407 . S
C436 C435 1.332 . S
H437 C430 0.930 . S
H438 C461 0.930 . S
H439 C462 0.929 . S
O440 Tb396 2.465 . S
O440 C460 1.264 . S
O441 Tb396 2.387 . S
O441 C452 1.264 . S
O442 Tb407 2.349 1_545 S
O442 C452 1.243 . S
O443 Tb396 2.428 . S
O443 C460 1.256 . S
O444 Tb396 2.308 . S
O444 C459 1.266 1_545 S
O445 Tb407 2.393 . S
O445 C459 1.248 . S
O446 Tb407 2.465 . S
O446 C471 1.264 . S
O447 Tb407 2.387 . S
O447 C463 1.264 . S
O448 Tb396 2.349 1_565 S
O448 C463 1.243 . S
O449 Tb407 2.428 . S
O449 C471 1.256 . S
O450 Tb407 2.308 1_545 S
O450 C470 1.266 . S
O451 Tb396 2.393 . S
O451 C470 1.248 . S
C452 O441 1.264 . S
C452 O442 1.243 . S
C453 C456 1.399 1_556 S
C453 C458 1.383 . S
C453 C460 1.496 . S
C454 C455 1.399 1_556 S
C454 C458 1.389 . S
C455 C454 1.399 1_554 S
C455 C457 1.380 . S
C455 H472 0.929 . S
C456 C453 1.399 1_554 S
C456 C457 1.392 . S
C456 H473 0.929 . S
C457 C455 1.380 . S
C457 C456 1.392 . S
C457 H474 0.929 . S
C458 C453 1.383 . S
C458 C454 1.389 . S
C458 H475 0.931 . S
C459 O444 1.266 1_565 S
C459 O445 1.248 . S
C460 Tb396 2.802 . S
C460 O440 1.264 . S
C460 O443 1.256 . S
C460 C453 1.496 . S
C461 C428 1.448 . S
C461 H438 0.930 . S
C461 C462 1.328 . S
C462 C433 1.427 . S
C462 H439 0.929 . S
C462 C461 1.328 . S
C463 O447 1.264 . S
C463 O448 1.243 . S
C464 C467 1.399 . S
C464 C468 1.383 . S
C464 C471 1.496 . S
C465 C466 1.399 . S
C465 C468 1.389 . S
C466 C465 1.399 . S
C466 C469 1.380 . S
C466 H476 0.929 . S
C467 C464 1.399 . S
C467 C469 1.392 . S
C467 H477 0.929 . S
C468 C464 1.383 . S
C468 C465 1.389 . S
C468 H478 0.942 . S
C469 C466 1.380 . S
C469 C467 1.392 . S
C469 H479 0.929 . S
C470 O450 1.266 . S
C470 O451 1.248 . S
C471 Tb407 2.802 . S
C471 O446 1.264 . S
C471 O449 1.256 . S
C471 C464 1.496 . S
H472 C455 0.929 . S
H473 C456 0.929 . S
H474 C457 0.929 . S
H475 C458 0.931 . S
H476 C466 0.929 . S
H477 C467 0.929 . S
H478 C468 0.942 . S
H479 C469 0.929 . S
Tb480 N509 2.617 . S
Tb480 N515 2.572 . S
Tb480 O524 2.465 . S
Tb480 O525 2.387 . S
Tb480 O527 2.428 . S
Tb480 O528 2.308 . S
Tb480 O532 2.349 . S
Tb480 O535 2.393 . S
Tb480 C544 2.802 . S
C481 N482 1.379 . S
C481 C484 1.416 . S
C481 C488 1.424 . S
N482 C481 1.379 . S
N482 C485 1.334 . S
N482 Tb491 2.617 . S
C483 C485 1.390 . S
C483 C486 1.339 . S
C483 H503 0.930 . S
C484 C481 1.416 . S
C484 C486 1.416 . S
C484 C490 1.448 . S
C485 N482 1.334 . S
C485 C483 1.390 . S
C485 H496 0.930 . S
C486 C483 1.339 . S
C486 C484 1.416 . S
C486 H507 0.930 . S
C487 C488 1.413 . S
C487 C489 1.427 1_556 S
C487 C493 1.416 1_556 S
C488 C481 1.424 . S
C488 C487 1.413 . S
C488 N492 1.361 . S
C489 C487 1.427 1_554 S
C489 C490 1.328 1_554 S
C489 H504 0.929 . S
C490 C484 1.448 . S
C490 C489 1.328 1_556 S
C490 H505 0.930 . S
Tb491 N482 2.617 . S
Tb491 N492 2.572 . S
Tb491 O526 2.349 . S
Tb491 O529 2.393 . S
Tb491 O530 2.465 . S
Tb491 O531 2.387 . S
Tb491 O533 2.428 . S
Tb491 O534 2.308 . S
Tb491 C555 2.802 . S
N492 C488 1.361 . S
N492 Tb491 2.572 . S
N492 C494 1.340 . S
C493 C487 1.416 1_554 S
C493 C495 1.332 . S
C493 H501 0.931 . S
C494 N492 1.340 . S
C494 C495 1.407 1_556 S
C494 H500 0.930 . S
C495 C493 1.332 . S
C495 C494 1.407 1_554 S
C495 H497 0.929 . S
H496 C485 0.930 . S
H497 C495 0.929 . S
H498 C513 0.930 . S
H499 C520 0.929 . S
H500 C494 0.930 . S
H501 C493 0.931 . S
H502 C516 0.930 . S
H503 C483 0.930 . S
H504 C489 0.929 . S
H505 C490 0.930 . S
H506 C511 0.930 . S
H507 C486 0.930 . S
H508 C519 0.931 . S
N509 Tb480 2.617 . S
N509 C510 1.379 . S
N509 C513 1.334 . S
C510 N509 1.379 . S
C510 C512 1.416 . S
C510 C518 1.424 . S
C511 H506 0.930 . S
C511 C513 1.390 . S
C511 C514 1.339 . S
C512 C510 1.416 . S
C512 C514 1.416 . S
C512 C545 1.448 . S
C513 H498 0.930 . S
C513 N509 1.334 . S
C513 C511 1.390 . S
C514 C511 1.339 . S
C514 C512 1.416 . S
C514 H521 0.930 . S
N515 Tb480 2.572 . S
N515 C516 1.340 . S
N515 C518 1.361 . S
C516 H502 0.930 . S
C516 N515 1.340 . S
C516 C520 1.407 . S
C517 C518 1.413 . S
C517 C519 1.416 . S
C517 C546 1.427 . S
C518 C510 1.424 . S
C518 N515 1.361 . S
C518 C517 1.413 . S
C519 H508 0.931 . S
C519 C517 1.416 . S
C519 C520 1.332 . S
C520 H499 0.929 . S
C520 C516 1.407 . S
C520 C519 1.332 . S
H521 C514 0.930 . S
H522 C545 0.930 . S
H523 C546 0.929 . S
O524 Tb480 2.465 . S
O524 C544 1.264 . S
O525 Tb480 2.387 . S
O525 C536 1.264 . S
O526 Tb491 2.349 . S
O526 C536 1.243 . S
O527 Tb480 2.428 . S
O527 C544 1.256 . S
O528 Tb480 2.308 . S
O528 C543 1.266 . S
O529 Tb491 2.393 . S
O529 C543 1.248 . S
O530 Tb491 2.465 . S
O530 C555 1.264 . S
O531 Tb491 2.387 . S
O531 C547 1.264 . S
O532 Tb480 2.349 . S
O532 C547 1.243 . S
O533 Tb491 2.428 . S
O533 C555 1.256 . S
O534 Tb491 2.308 . S
O534 C554 1.266 . S
O535 Tb480 2.393 . S
O535 C554 1.248 . S
C536 O525 1.264 . S
C536 O526 1.243 . S
C537 C540 1.399 . S
C537 C542 1.383 . S
C537 C544 1.496 . S
C538 C539 1.399 . S
C538 C542 1.389 . S
C539 C538 1.399 . S
C539 C541 1.380 . S
C539 H556 0.929 . S
C540 C537 1.399 . S
C540 C541 1.392 . S
C540 H557 0.929 . S
C541 C539 1.380 . S
C541 C540 1.392 . S
C541 H558 0.929 . S
C542 C537 1.383 . S
C542 C538 1.389 . S
C542 H559 0.931 . S
C543 O528 1.266 . S
C543 O529 1.248 . S
C544 Tb480 2.802 . S
C544 O524 1.264 . S
C544 O527 1.256 . S
C544 C537 1.496 . S
C545 C512 1.448 . S
C545 H522 0.930 . S
C545 C546 1.328 . S
C546 C517 1.427 . S
C546 H523 0.929 . S
C546 C545 1.328 . S
C547 O531 1.264 . S
C547 O532 1.243 . S
C548 C551 1.399 . S
C548 C552 1.383 . S
C548 C555 1.496 . S
C549 C550 1.399 . S
C549 C552 1.389 . S
C550 C549 1.399 . S
C550 C553 1.380 . S
C550 H560 0.929 . S
C551 C548 1.399 . S
C551 C553 1.392 . S
C551 H561 0.929 . S
C552 C548 1.383 . S
C552 C549 1.389 . S
C552 H562 0.931 . S
C553 C550 1.380 . S
C553 C551 1.392 . S
C553 H563 0.929 . S
C554 O534 1.266 . S
C554 O535 1.248 . S
C555 Tb491 2.802 . S
C555 O530 1.264 . S
C555 O533 1.256 . S
C555 C548 1.496 . S
H556 C539 0.929 . S
H557 C540 0.929 . S
H558 C541 0.929 . S
H559 C542 0.931 . S
H560 C550 0.929 . S
H561 C551 0.929 . S
H562 C552 0.931 . S
H563 C553 0.929 . S
Tb564 N593 2.617 . S
Tb564 N599 2.572 . S
Tb564 O608 2.465 . S
Tb564 O609 2.387 1_455 S
Tb564 O611 2.428 . S
Tb564 O612 2.308 . S
Tb564 O616 2.349 . S
Tb564 O619 2.393 . S
Tb564 C628 2.802 . S
C565 N566 1.379 1_455 S
C565 C568 1.416 . S
C565 C572 1.424 . S
N566 C565 1.379 1_655 S
N566 C569 1.334 . S
N566 Tb575 2.617 . S
C567 C569 1.390 1_455 S
C567 C570 1.339 . S
C567 H587 0.930 . S
C568 C565 1.416 . S
C568 C570 1.416 . S
C568 C574 1.448 . S
C569 N566 1.334 . S
C569 C567 1.390 1_655 S
C569 H580 0.930 . S
C570 C567 1.339 . S
C570 C568 1.416 . S
C570 H591 0.930 . S
C571 C572 1.413 . S
C571 C573 1.427 1_556 S
C571 C577 1.416 1_556 S
C572 C565 1.424 . S
C572 C571 1.413 . S
C572 N576 1.361 . S
C573 C571 1.427 1_554 S
C573 C574 1.328 1_554 S
C573 H588 0.929 . S
C574 C568 1.448 . S
C574 C573 1.328 1_556 S
C574 H589 0.930 . S
Tb575 N566 2.617 . S
Tb575 N576 2.572 1_655 S
Tb575 O610 2.349 . S
Tb575 O613 2.393 . S
Tb575 O614 2.465 . S
Tb575 O615 2.387 1_655 S
Tb575 O617 2.428 . S
Tb575 O618 2.308 . S
Tb575 C639 2.802 . S
N576 C572 1.361 . S
N576 Tb575 2.572 1_455 S
N576 C578 1.340 . S
C577 C571 1.416 1_554 S
C577 C579 1.332 . S
C577 H585 0.931 . S
C578 N576 1.340 . S
C578 C579 1.407 1_556 S
C578 H584 0.929 1_455 S
C579 C577 1.332 . S
C579 C578 1.407 1_554 S
C579 H581 0.929 . S
H580 C569 0.930 . S
H581 C579 0.929 . S
H582 C597 0.930 . S
H583 C604 0.929 . S
H584 C578 0.929 1_655 S
H585 C577 0.931 . S
H586 C600 0.930 . S
H587 C567 0.930 . S
H588 C573 0.929 . S
H589 C574 0.930 . S
H590 C595 0.930 . S
H591 C570 0.930 . S
H592 C603 0.931 . S
N593 Tb564 2.617 . S
N593 C594 1.374 1_455 S
N593 C597 1.334 . S
C594 N593 1.374 1_655 S
C594 C596 1.420 . S
C594 C602 1.425 . S
C595 H590 0.930 . S
C595 C597 1.390 . S
C595 C598 1.339 1_455 S
C596 C594 1.420 . S
C596 C598 1.416 . S
C596 C629 1.448 . S
C597 H582 0.930 . S
C597 N593 1.334 . S
C597 C595 1.390 . S
C598 C595 1.339 1_655 S
C598 C596 1.416 . S
C598 H605 0.930 . S
N599 Tb564 2.572 . S
N599 C600 1.340 . S
N599 C602 1.361 1_455 S
C600 H586 0.930 . S
C600 N599 1.340 . S
C600 C604 1.407 1_455 S
C601 C602 1.413 . S
C601 C603 1.416 . S
C601 C630 1.427 . S
C602 C594 1.425 . S
C602 N599 1.361 1_655 S
C602 C601 1.413 . S
C603 H592 0.931 . S
C603 C601 1.416 . S
C603 C604 1.332 . S
C604 H583 0.929 . S
C604 C600 1.407 1_655 S
C604 C603 1.332 . S
H605 C598 0.930 . S
H606 C629 0.930 . S
H607 C630 0.929 . S
O608 Tb564 2.465 . S
O608 C628 1.264 . S
O609 Tb564 2.387 1_655 S
O609 C620 1.264 . S
O610 Tb575 2.349 . S
O610 C620 1.243 . S
O611 Tb564 2.428 . S
O611 C628 1.256 . S
O612 Tb564 2.308 . S
O612 C627 1.266 . S
O613 Tb575 2.393 . S
O613 C627 1.248 1_655 S
O614 Tb575 2.465 . S
O614 C639 1.264 . S
O615 Tb575 2.387 1_455 S
O615 C631 1.264 . S
O616 Tb564 2.349 . S
O616 C631 1.243 . S
O617 Tb575 2.428 . S
O617 C639 1.256 . S
O618 Tb575 2.308 . S
O618 C638 1.266 1_655 S
O619 Tb564 2.393 . S
O619 C638 1.248 . S
C620 O609 1.264 . S
C620 O610 1.243 . S
C621 C624 1.399 . S
C621 C626 1.383 . S
C621 C628 1.496 . S
C622 C623 1.399 . S
C622 C626 1.389 . S
C623 C622 1.399 . S
C623 C625 1.380 . S
C623 H640 0.929 . S
C624 C621 1.399 . S
C624 C625 1.392 . S
C624 H641 0.929 . S
C625 C623 1.380 . S
C625 C624 1.392 . S
C625 H642 0.929 . S
C626 C621 1.383 . S
C626 C622 1.389 . S
C626 H643 0.931 . S
C627 O612 1.266 . S
C627 O613 1.248 1_455 S
C628 Tb564 2.802 . S
C628 O608 1.264 . S
C628 O611 1.256 . S
C628 C621 1.496 . S
C629 C596 1.448 . S
C629 H606 0.930 . S
C629 C630 1.328 . S
C630 C601 1.427 . S
C630 H607 0.929 . S
C630 C629 1.328 . S
C631 O615 1.264 . S
C631 O616 1.243 . S
C632 C635 1.399 . S
C632 C636 1.383 . S
C632 C639 1.496 . S
C633 C634 1.399 . S
C633 C636 1.389 . S
C634 C633 1.399 . S
C634 C637 1.380 . S
C634 H644 0.929 . S
C635 C632 1.399 . S
C635 C637 1.392 . S
C635 H645 0.929 . S
C636 C632 1.383 . S
C636 C633 1.389 . S
C636 H646 0.931 . S
C637 C634 1.380 . S
C637 C635 1.392 . S
C637 H647 0.929 . S
C638 O618 1.266 1_455 S
C638 O619 1.248 . S
C639 Tb575 2.802 . S
C639 O614 1.264 . S
C639 O617 1.256 . S
C639 C632 1.496 . S
H640 C623 0.929 . S
H641 C624 0.929 . S
H642 C625 0.929 . S
H643 C626 0.931 . S
H644 C634 0.929 . S
H645 C635 0.929 . S
H646 C636 0.931 . S
H647 C637 0.929 . S
C648 C649 1.369 . S
C648 C650 1.419 . S
C648 H652 0.930 . S
C649 C648 1.369 . S
C649 C658 1.429 . S
C650 C648 1.419 . S
C650 C651 1.363 . S
C650 H653 0.929 . S
C651 C650 1.363 . S
C651 C657 1.426 . S
H652 C648 0.930 . S
H653 C650 0.929 . S
S654 N655 1.613 . S
S654 N656 1.610 . S
N655 S654 1.613 . S
N655 C658 1.350 1_565 S
N656 S654 1.610 . S
N656 C657 1.354 1_565 S
C657 C651 1.426 . S
C657 N656 1.354 1_545 S
C657 C658 1.433 . S
C658 C649 1.429 . S
C658 N655 1.350 1_545 S
C658 C657 1.433 . S
C659 C660 1.369 . S
C659 C661 1.419 . S
C659 H663 0.930 . S
C660 C659 1.369 . S
C660 C669 1.429 . S
C661 C659 1.419 . S
C661 C662 1.363 . S
C661 H664 0.929 . S
C662 C661 1.363 . S
C662 C668 1.428 . S
H663 C659 0.930 . S
H664 C661 0.929 . S
S665 N666 1.613 . S
S665 N667 1.610 . S
N666 S665 1.613 . S
N666 C669 1.350 . S
N667 S665 1.610 . S
N667 C668 1.351 . S
C668 C662 1.428 . S
C668 N667 1.351 . S
C668 C669 1.434 . S
C669 C660 1.429 . S
C669 N666 1.350 . S
C669 C668 1.434 . S
C670 C671 1.369 . S
C670 C672 1.419 . S
C670 H674 0.930 . S
C671 C670 1.369 . S
C671 C680 1.429 . S
C672 C670 1.419 . S
C672 C673 1.363 . S
C672 H675 0.929 . S
C673 C672 1.363 . S
C673 C679 1.428 . S
H674 C670 0.930 . S
H675 C672 0.929 . S
S676 N677 1.613 . S
S676 N678 1.610 . S
N677 S676 1.613 . S
N677 C680 1.350 . S
N678 S676 1.610 . S
N678 C679 1.351 . S
C679 C673 1.428 . S
C679 N678 1.351 . S
C679 C680 1.434 . S
C680 C671 1.429 . S
C680 N677 1.350 . S
C680 C679 1.434 . S
C681 C682 1.369 . S
C681 C683 1.419 . S
C681 H685 0.930 . S
C682 C681 1.369 . S
C682 C691 1.429 . S
C683 C681 1.419 . S
C683 C684 1.363 . S
C683 H686 0.929 . S
C684 C683 1.363 . S
C684 C690 1.428 . S
H685 C681 0.930 . S
H686 C683 0.929 . S
S687 N688 1.613 . S
S687 N689 1.610 . S
N688 S687 1.613 . S
N688 C691 1.350 1_655 S
N689 S687 1.610 . S
N689 C690 1.351 1_655 S
C690 C684 1.428 . S
C690 N689 1.351 1_455 S
C690 C691 1.434 . S
C691 C682 1.429 . S
C691 N688 1.350 1_455 S
C691 C690 1.434 . S
C692 C693 1.369 . S
C692 C694 1.419 1_554 S
C692 H696 0.930 . S
C693 C692 1.369 . S
C693 C702 1.429 1_565 S
C694 C692 1.419 1_556 S
C694 C695 1.363 . S
C694 H697 0.929 . S
C695 C694 1.363 . S
C695 C701 1.428 1_565 S
H696 C692 0.930 . S
H697 C694 0.929 . S
S698 N699 1.613 . S
S698 N700 1.610 1_554 S
N699 S698 1.613 . S
N699 C702 1.350 . S
N700 S698 1.610 1_556 S
N700 C701 1.351 . S
C701 C695 1.428 1_545 S
C701 N700 1.351 . S
C701 C702 1.434 1_556 S
C702 C693 1.429 1_545 S
C702 N699 1.350 . S
C702 C701 1.434 1_554 S
C703 C704 1.369 . S
C703 C705 1.419 1_554 S
C703 H707 0.930 . S
C704 C703 1.369 . S
C704 C713 1.429 . S
C705 C703 1.419 1_556 S
C705 C706 1.363 . S
C705 H708 0.929 . S
C706 C705 1.363 . S
C706 C712 1.428 . S
H707 C703 0.930 . S
H708 C705 0.929 . S
S709 N710 1.613 1_556 S
S709 N711 1.610 . S
N710 S709 1.613 1_554 S
N710 C713 1.350 . S
N711 S709 1.610 . S
N711 C712 1.351 . S
C712 C706 1.428 . S
C712 N711 1.351 . S
C712 C713 1.434 1_556 S
C713 C704 1.429 . S
C713 N710 1.350 . S
C713 C712 1.434 1_554 S
C714 C715 1.369 . S
C714 C716 1.419 1_554 S
C714 H718 0.930 . S
C715 C714 1.369 . S
C715 C724 1.429 . S
C716 C714 1.419 1_556 S
C716 C717 1.363 . S
C716 H719 0.929 . S
C717 C716 1.363 . S
C717 C723 1.428 . S
H718 C714 0.930 . S
H719 C716 0.929 . S
S720 N721 1.613 . S
S720 N722 1.610 1_554 S
N721 S720 1.613 . S
N721 C724 1.350 . S
N722 S720 1.610 1_556 S
N722 C723 1.351 . S
C723 C717 1.428 . S
C723 N722 1.351 . S
C723 C724 1.434 1_556 S
C724 C715 1.429 . S
C724 N721 1.350 . S
C724 C723 1.434 1_554 S
C725 C726 1.389 . S
C725 C727 1.414 1_654 S
C725 H729 0.916 1_655 S
C726 C725 1.389 . S
C726 C735 1.429 . S
C727 C725 1.414 1_456 S
C727 C728 1.363 1_455 S
C727 H730 0.929 . S
C728 C727 1.363 1_655 S
C728 C734 1.428 . S
H729 C725 0.916 1_455 S
H730 C727 0.929 . S
S731 N732 1.613 . S
S731 N733 1.610 1_554 S
N732 S731 1.613 . S
N732 C735 1.350 . S
N733 S731 1.610 1_556 S
N733 C734 1.351 . S
C734 C728 1.428 . S
C734 N733 1.351 . S
C734 C735 1.434 1_556 S
C735 C726 1.429 . S
C735 N732 1.350 . S
C735 C734 1.434 1_554 S
C736 C737 1.369 . S
C736 C738 1.419 . S
C736 H740 0.930 . S
C737 C736 1.369 . S
C737 C746 1.429 . S
C738 C736 1.419 . S
C738 C739 1.363 1_455 S
C738 H741 0.929 . S
C739 C738 1.363 1_655 S
C739 C745 1.428 . S
H740 C736 0.930 . S
H741 C738 0.929 . S
S742 N743 1.613 . S
S742 N744 1.610 . S
N743 S742 1.613 . S
N743 C746 1.350 1_655 S
N744 S742 1.610 . S
N744 C745 1.351 . S
C745 C739 1.428 . S
C745 N744 1.351 . S
C745 C746 1.434 1_655 S
C746 C737 1.429 . S
C746 N743 1.350 1_455 S
C746 C745 1.434 1_455 S
C747 C748 1.369 . S
C747 C749 1.419 . S
C747 H751 0.930 . S
C748 C747 1.369 . S
C748 C757 1.429 . S
C749 C747 1.419 . S
C749 C750 1.363 1_545 S
C749 H752 0.929 . S
C750 C749 1.363 1_565 S
C750 C756 1.428 1_565 S
H751 C747 0.930 . S
H752 C749 0.929 . S
S753 N754 1.613 . S
S753 N755 1.610 1_545 S
N754 S753 1.613 . S
N754 C757 1.350 . S
N755 S753 1.610 1_565 S
N755 C756 1.351 1_565 S
C756 C750 1.428 1_545 S
C756 N755 1.351 1_545 S
C756 C757 1.434 . S
C757 C748 1.429 . S
C757 N754 1.350 . S
C757 C756 1.434 . S
C758 C759 1.369 . S
C758 C760 1.419 . S
C758 H762 0.930 . S
C759 C758 1.369 . S
C759 C768 1.429 . S
C760 C758 1.419 . S
C760 C761 1.363 . S
C760 H763 0.929 . S
C761 C760 1.363 . S
C761 C767 1.428 . S
H762 C758 0.930 . S
H763 C760 0.929 . S
S764 N765 1.613 . S
S764 N766 1.610 . S
N765 S764 1.613 . S
N765 C768 1.350 . S
N766 S764 1.610 . S
N766 C767 1.351 . S
C767 C761 1.428 . S
C767 N766 1.351 . S
C767 C768 1.434 . S
C768 C759 1.429 . S
C768 N765 1.350 . S
C768 C767 1.434 . S
C769 C770 1.369 . S
C769 C771 1.419 . S
C769 H773 0.930 . S
C770 C769 1.369 . S
C770 C779 1.429 . S
C771 C769 1.419 . S
C771 C772 1.363 . S
C771 H774 0.929 . S
C772 C771 1.363 . S
C772 C778 1.428 . S
H773 C769 0.930 . S
H774 C771 0.929 . S
S775 N776 1.613 . S
S775 N777 1.610 . S
N776 S775 1.613 . S
N776 C779 1.350 . S
N777 S775 1.610 . S
N777 C778 1.351 . S
C778 C772 1.428 . S
C778 N777 1.351 . S
C778 C779 1.434 . S
C779 C770 1.429 . S
C779 N776 1.350 . S
C779 C778 1.434 . S
C780 C781 1.369 . S
C780 C782 1.419 1_554 S
C780 H784 0.930 1_554 S
C781 C780 1.369 . S
C781 C790 1.429 1_655 S
C782 C780 1.419 1_556 S
C782 C783 1.363 1_655 S
C782 H785 0.929 . S
C783 C782 1.363 1_455 S
C783 C789 1.428 1_556 S
H784 C780 0.930 1_556 S
H785 C782 0.929 . S
S786 N787 1.613 . S
S786 N788 1.610 . S
N787 S786 1.613 . S
N787 C790 1.350 . S
N788 S786 1.610 . S
N788 C789 1.351 . S
C789 C783 1.428 1_554 S
C789 N788 1.351 . S
C789 C790 1.434 . S
C790 C781 1.429 1_455 S
C790 N787 1.350 . S
C790 C789 1.434 . S
C791 C792 1.369 . S
C791 C793 1.419 1_565 S
C791 H795 0.930 . S
C792 C791 1.369 . S
C792 C801 1.429 1_554 S
C793 C791 1.419 1_545 S
C793 C794 1.363 1_554 S
C793 H796 0.929 . S
C794 C793 1.363 1_556 S
C794 C800 1.428 . S
H795 C791 0.930 . S
H796 C793 0.929 . S
S797 N798 1.613 1_545 S
S797 N799 1.610 . S
N798 S797 1.613 1_565 S
N798 C801 1.350 . S
N799 S797 1.610 . S
N799 C800 1.351 . S
C800 C794 1.428 . S
C800 N799 1.351 . S
C800 C801 1.434 1_545 S
C801 C792 1.429 1_556 S
C801 N798 1.350 . S
C801 C800 1.434 1_565 S
C802 C803 1.369 . S
C802 C804 1.419 . S
C802 H806 0.930 . S
C803 C802 1.369 . S
C803 C812 1.429 . S
C804 C802 1.419 . S
C804 C805 1.363 1_554 S
C804 H807 0.929 . S
C805 C804 1.363 1_556 S
C805 C811 1.428 . S
H806 C802 0.930 . S
H807 C804 0.929 . S
S808 N809 1.613 1_556 S
S808 N810 1.610 . S
N809 S808 1.613 1_554 S
N809 C812 1.350 . S
N810 S808 1.610 . S
N810 C811 1.351 . S
C811 C805 1.428 . S
C811 N810 1.351 . S
C811 C812 1.434 1_556 S
C812 C803 1.429 . S
C812 N809 1.350 . S
C812 C811 1.434 1_554 S
C813 C814 1.369 . S
C813 C815 1.419 . S
C813 H817 0.930 . S
C814 C813 1.369 . S
C814 C823 1.429 1_554 S
C815 C813 1.419 . S
C815 C816 1.363 1_554 S
C815 H818 0.929 . S
C816 C815 1.363 1_556 S
C816 C822 1.428 . S
H817 C813 0.930 . S
H818 C815 0.929 . S
S819 N820 1.613 . S
S819 N821 1.610 . S
N820 S819 1.613 . S
N820 C823 1.350 . S
N821 S819 1.610 . S
N821 C822 1.351 . S
C822 C816 1.428 . S
C822 N821 1.351 . S
C822 C823 1.434 . S
C823 C814 1.429 1_556 S
C823 N820 1.350 . S
C823 C822 1.434 . S
C824 C825 1.369 . S
C824 C826 1.419 . S
C824 H828 0.930 1_455 S
C825 C824 1.369 . S
C825 C834 1.429 . S
C826 C824 1.419 . S
C826 C827 1.363 . S
C826 H829 0.929 1_455 S
C827 C826 1.363 . S
C827 C833 1.428 . S
H828 C824 0.930 1_655 S
H829 C826 0.929 1_655 S
S830 N831 1.613 . S
S830 N832 1.610 . S
N831 S830 1.613 . S
N831 C834 1.350 . S
N832 S830 1.610 . S
N832 C833 1.351 . S
C833 C827 1.428 . S
C833 N832 1.351 . S
C833 C834 1.434 . S
C834 C825 1.429 . S
C834 N831 1.350 . S
C834 C833 1.434 . S
C835 C836 1.369 . S
C835 C837 1.419 . S
C835 H839 0.930 . S
C836 C835 1.369 . S
C836 C845 1.429 . S
C837 C835 1.419 . S
C837 C838 1.363 . S
C837 H840 0.929 . S
C838 C837 1.363 . S
C838 C844 1.428 . S
H839 C835 0.930 . S
H840 C837 0.929 . S
S841 N842 1.613 . S
S841 N843 1.610 . S
N842 S841 1.613 . S
N842 C845 1.350 . S
N843 S841 1.610 . S
N843 C844 1.351 . S
C844 C838 1.428 . S
C844 N843 1.351 . S
C844 C845 1.434 . S
C845 C836 1.429 . S
C845 N842 1.350 . S
C845 C844 1.434 . S
C846 C847 1.369 . S
C846 C848 1.419 . S
C846 H850 0.930 . S
C847 C846 1.369 . S
C847 C856 1.429 . S
C848 C846 1.419 . S
C848 C849 1.363 . S
C848 H851 0.929 . S
C849 C848 1.363 . S
C849 C855 1.428 . S
H850 C846 0.930 . S
H851 C848 0.929 . S
S852 N853 1.613 . S
S852 N854 1.610 . S
N853 S852 1.613 . S
N853 C856 1.350 . S
N854 S852 1.610 . S
N854 C855 1.351 . S
C855 C849 1.428 . S
C855 N854 1.351 . S
C855 C856 1.434 . S
C856 C847 1.429 . S
C856 N853 1.350 . S
C856 C855 1.434 . S
C857 C858 1.369 . S
C857 C859 1.419 . S
C857 H861 0.930 . S
C858 C857 1.369 . S
C858 C867 1.429 . S
C859 C857 1.419 . S
C859 C860 1.363 . S
C859 H862 0.929 . S
C860 C859 1.363 . S
C860 C866 1.428 . S
H861 C857 0.930 . S
H862 C859 0.929 . S
S863 N864 1.613 . S
S863 N865 1.610 . S
N864 S863 1.613 . S
N864 C867 1.350 . S
N865 S863 1.610 . S
N865 C866 1.351 . S
C866 C860 1.428 . S
C866 N865 1.351 . S
C866 C867 1.434 . S
C867 C858 1.429 . S
C867 N864 1.350 . S
C867 C866 1.434 . S
C868 C869 1.361 1_455 S
C868 C870 1.419 . S
C868 H872 0.938 . S
C869 C868 1.361 1_655 S
C869 C878 1.429 . S
C870 C868 1.419 . S
C870 C871 1.363 1_455 S
C870 H873 0.929 . S
C871 C870 1.363 1_655 S
C871 C877 1.428 . S
H872 C868 0.938 . S
H873 C870 0.929 . S
S874 N875 1.613 . S
S874 N876 1.610 . S
N875 S874 1.613 . S
N875 C878 1.350 . S
N876 S874 1.610 . S
N876 C877 1.351 . S
C877 C871 1.428 . S
C877 N876 1.351 . S
C877 C878 1.434 . S
C878 C869 1.429 . S
C878 N875 1.350 . S
C878 C877 1.434 . S
C879 C880 1.369 . S
C879 C881 1.419 . S
C879 H883 0.930 1_565 S
C880 C879 1.369 . S
C880 C889 1.429 . S
C881 C879 1.419 . S
C881 C882 1.363 . S
C881 H884 0.929 1_565 S
C882 C881 1.363 . S
C882 C888 1.428 . S
H883 C879 0.930 1_545 S
H884 C881 0.929 1_545 S
S885 N886 1.613 . S
S885 N887 1.610 . S
N886 S885 1.613 . S
N886 C889 1.350 . S
N887 S885 1.610 . S
N887 C888 1.351 . S
C888 C882 1.428 . S
C888 N887 1.351 . S
C888 C889 1.434 . S
C889 C880 1.429 . S
C889 N886 1.350 . S
C889 C888 1.434 . S
C890 C891 1.369 . S
C890 C892 1.419 . S
C890 H894 0.930 . S
C891 C890 1.369 . S
C891 C900 1.429 . S
C892 C890 1.419 . S
C892 C893 1.363 . S
C892 H895 0.929 . S
C893 C892 1.363 . S
C893 C899 1.428 . S
H894 C890 0.930 . S
H895 C892 0.929 . S
S896 N897 1.613 . S
S896 N898 1.610 . S
N897 S896 1.613 . S
N897 C900 1.350 . S
N898 S896 1.610 . S
N898 C899 1.351 . S
C899 C893 1.428 . S
C899 N898 1.351 . S
C899 C900 1.434 . S
C900 C891 1.429 . S
C900 N897 1.350 . S
C900 C899 1.434 . S
C901 C902 1.369 . S
C901 C903 1.419 . S
C901 H905 0.930 . S
C902 C901 1.369 . S
C902 C911 1.429 . S
C903 C901 1.419 . S
C903 C904 1.363 . S
C903 H906 0.929 . S
C904 C903 1.363 . S
C904 C910 1.428 . S
H905 C901 0.930 . S
H906 C903 0.929 . S
S907 N908 1.613 . S
S907 N909 1.610 . S
N908 S907 1.613 . S
N908 C911 1.350 . S
N909 S907 1.610 . S
N909 C910 1.351 . S
C910 C904 1.428 . S
C910 N909 1.351 . S
C910 C911 1.434 . S
C911 C902 1.429 . S
C911 N908 1.350 . S
C911 C910 1.434 . S
C649 C255 2.579 . S
C651 C375 2.833 . S
C662 C452 2.839 . S
C660 C294 2.575 . S
C673 C543 2.841 . S
C671 C177 2.583 . S
C684 C627 2.820 . S
C682 C216 2.574 . S
C695 C386 2.833 1_565 S
C693 C99 2.586 . S
C704 C138 2.567 . S
C706 C463 2.837 . S
C715 C21 2.591 . S
C717 C554 2.839 . S
C726 C60 2.582 . S
C728 C638 2.821 1_655 S
C739 C370 0.752 . S
C737 C196 0.742 . S
C750 C465 0.744 . S
C748 C235 0.737 . S
C761 C538 0.774 . S
C759 C289 0.759 . S
C770 C157 0.740 . S
C772 C622 0.752 . S
C781 C40 0.740 . S
C783 C381 0.754 . S
C794 C454 0.756 . S
C792 C79 0.749 . S
C805 C549 0.769 . S
C803 C133 0.776 . S
C814 C1 0.753 . S
C816 C633 0.743 . S
C825 C211 2.897 . S
C827 C379 3.294 . S
C836 C250 2.886 . S
C838 C470 3.394 . S
C849 C547 3.315 . S
C847 C274 2.925 . S
C860 C631 3.311 . S
C858 C172 2.912 . S
C869 C55 2.889 . S
C871 C368 3.297 . S
C882 C459 3.394 . S
C880 C94 2.891 . S
C893 C536 3.320 . S
C891 C118 2.915 . S
C902 C16 2.906 . S
C904 C620 3.314 . S
