# Generated by pormake.
# Topology dag, (6,3)-cn, num edge types: 1
# Building blocks:
#     Node 0, Type 0, BuildingBlock: IZENUY_clean_sbu_0, # of connection points: 6
#     Node 1, Type 0, BuildingBlock: IZENUY_clean_sbu_0, # of connection points: 6
#     Node 2, Type 0, BuildingBlock: IZENUY_clean_sbu_0, # of connection points: 6
#     Node 3, Type 0, BuildingBlock: IZENUY_clean_sbu_0, # of connection points: 6
#     Node 4, Type 1, BuildingBlock: CUQRIR_clean_linker_1, # of connection points: 3
#     Node 5, Type 1, BuildingBlock: CUQRIR_clean_linker_1, # of connection points: 3
#     Node 6, Type 1, BuildingBlock: CUQRIR_clean_linker_1, # of connection points: 3
#     Node 7, Type 1, BuildingBlock: CUQRIR_clean_linker_1, # of connection points: 3
#     Node 8, Type 1, BuildingBlock: CUQRIR_clean_linker_1, # of connection points: 3
#     Node 9, Type 1, BuildingBlock: CUQRIR_clean_linker_1, # of connection points: 3
#     Node 10, Type 1, BuildingBlock: CUQRIR_clean_linker_1, # of connection points: 3
#     Node 11, Type 1, BuildingBlock: CUQRIR_clean_linker_1, # of connection points: 3
#     Edge 12, Type (0, 1), BuildingBlock: TEMPAE_clean_linker_10, # of connection points: 2
#     Edge 13, Type (0, 1), BuildingBlock: TEMPAE_clean_linker_10, # of connection points: 2
#     Edge 14, Type (0, 1), BuildingBlock: TEMPAE_clean_linker_10, # of connection points: 2
#     Edge 15, Type (0, 1), BuildingBlock: TEMPAE_clean_linker_10, # of connection points: 2
#     Edge 16, Type (0, 1), BuildingBlock: TEMPAE_clean_linker_10, # of connection points: 2
#     Edge 17, Type (0, 1), BuildingBlock: TEMPAE_clean_linker_10, # of connection points: 2
#     Edge 18, Type (0, 1), BuildingBlock: TEMPAE_clean_linker_10, # of connection points: 2
#     Edge 19, Type (0, 1), BuildingBlock: TEMPAE_clean_linker_10, # of connection points: 2
#     Edge 20, Type (0, 1), BuildingBlock: TEMPAE_clean_linker_10, # of connection points: 2
#     Edge 21, Type (0, 1), BuildingBlock: TEMPAE_clean_linker_10, # of connection points: 2
#     Edge 22, Type (0, 1), BuildingBlock: TEMPAE_clean_linker_10, # of connection points: 2
#     Edge 23, Type (0, 1), BuildingBlock: TEMPAE_clean_linker_10, # of connection points: 2
#     Edge 24, Type (0, 1), BuildingBlock: TEMPAE_clean_linker_10, # of connection points: 2
#     Edge 25, Type (0, 1), BuildingBlock: TEMPAE_clean_linker_10, # of connection points: 2
#     Edge 26, Type (0, 1), BuildingBlock: TEMPAE_clean_linker_10, # of connection points: 2
#     Edge 27, Type (0, 1), BuildingBlock: TEMPAE_clean_linker_10, # of connection points: 2
#     Edge 28, Type (0, 1), BuildingBlock: TEMPAE_clean_linker_10, # of connection points: 2
#     Edge 29, Type (0, 1), BuildingBlock: TEMPAE_clean_linker_10, # of connection points: 2
#     Edge 30, Type (0, 1), BuildingBlock: TEMPAE_clean_linker_10, # of connection points: 2
#     Edge 31, Type (0, 1), BuildingBlock: TEMPAE_clean_linker_10, # of connection points: 2
#     Edge 32, Type (0, 1), BuildingBlock: TEMPAE_clean_linker_10, # of connection points: 2
#     Edge 33, Type (0, 1), BuildingBlock: TEMPAE_clean_linker_10, # of connection points: 2
#     Edge 34, Type (0, 1), BuildingBlock: TEMPAE_clean_linker_10, # of connection points: 2
#     Edge 35, Type (0, 1), BuildingBlock: TEMPAE_clean_linker_10, # of connection points: 2
# Relax obj value: 0.081
# Max RMSD: 0.077
# Mean RMSD: 0.071
data_MOF--net-dag--node1-IZENUY_clean_sbu_0--node2-CUQRIR_clean_linker_1--edge1-TEMPAE_clean_linker_10
_symmetry_space_group_name_H-M    P1
_symmetry_Int_Tables_number       1
_symmetry_cell_setting            triclinic
loop_
_symmetry_equiv_pos_as_xyz
'x, y, z'
_cell_length_a     37.425734
_cell_length_b     37.932637
_cell_length_c     33.875088
_cell_angle_alpha  92.309073
_cell_angle_beta   89.986887
_cell_angle_gamma 89.871569
loop_
_atom_site_label
_atom_site_type_symbol
_atom_site_fract_x
_atom_site_fract_y
_atom_site_fract_z
_atom_type_partial_charge
Fe0 Fe 0.16364 0.89376 0.04316 0.0
Fe1 Fe 0.08614 0.914 0.02468 0.0
O2 O 0.11883 0.88122 0.03283 0.0
Fe3 Fe 0.10696 0.83592 0.03056 0.0
O4 O 0.12118 0.83052 0.0811 0.0
O5 O 0.17291 0.85687 0.07508 0.0
O6 O 0.15035 0.91922 0.08727 0.0
C7 C 0.12717 0.94345 0.08801 0.0
C8 C 0.17483 0.83663 0.99311 0.0
O9 O 0.10572 0.94681 0.05948 0.0
C10 C 0.06889 0.85988 0.96791 0.0
O11 O 0.16279 0.93292 0.01318 0.0
O12 O 0.11083 0.93038 0.98333 0.0
O13 O 0.15022 0.82059 0.01071 0.0
O14 O 0.17984 0.86921 -0.00027 0.0
C15 C 0.04793 0.86893 0.06919 0.0
O16 O 0.06067 0.88714 0.98869 0.0
O17 O 0.09161 0.83808 0.9798 0.0
C18 C 0.14266 0.94101 0.98494 0.0
O19 O 0.05886 0.89995 0.06516 0.0
O20 O 0.06177 0.843 0.05012 0.0
C21 C 0.15218 0.83716 0.09377 0.0
Fe22 Fe 0.66166 0.60832 0.49345 0.0
Fe23 Fe 0.60596 0.66559 0.51429 0.0
O24 O 0.6175 0.62045 0.50716 0.0
Fe25 Fe 0.58478 0.58754 0.51401 0.0
O26 O 0.61623 0.55472 0.53172 0.0
O27 O 0.66738 0.58276 0.53724 0.0
O28 O 0.68292 0.64522 0.5211 0.0
C29 C 0.67167 0.66518 0.54932 0.0
C30 C 0.61853 0.56019 0.44827 0.0
O31 O 0.6388 0.67189 0.55316 0.0
C32 C 0.54644 0.64104 0.476 0.0
O33 O 0.65917 0.63289 0.44876 0.0
O34 O 0.63689 0.68124 0.47685 0.0
O35 O 0.58937 0.5704 0.46358 0.0
O36 O 0.64826 0.56932 0.46325 0.0
C37 C 0.56878 0.63298 0.57597 0.0
O38 O 0.57236 0.66222 0.47575 0.0
O39 O 0.54721 0.61436 0.49729 0.0
C40 C 0.652 0.66533 0.44781 0.0
O41 O 0.5729 0.65835 0.55322 0.0
O42 O 0.57807 0.60212 0.56509 0.0
C43 C 0.64729 0.55766 0.54614 0.0
Fe44 Fe 0.8923 0.16465 0.00526 0.0
Fe45 Fe 0.91339 0.08679 0.01159 0.0
O46 O 0.88044 0.11944 0.00387 0.0
Fe47 Fe 0.83557 0.10671 0.99496 0.0
O48 O 0.82542 0.14301 0.96247 0.0
O49 O 0.87677 0.16982 0.95517 0.0
O50 O 0.93693 0.15705 0.98409 0.0
C51 C 0.95003 0.13092 0.96459 0.0
C52 C 0.82533 0.1644 0.04462 0.0
O53 O 0.93908 0.09993 0.96933 0.0
C54 C 0.85812 0.06087 0.05416 0.0
O55 O 0.90885 0.16271 0.05563 0.0
O56 O 0.94058 0.11448 0.04515 0.0
O57 O 0.82009 0.13184 0.03828 0.0
O58 O 0.84962 0.18029 0.02635 0.0
C59 C 0.87045 0.05562 0.95101 0.0
O60 O 0.89 0.07162 0.05462 0.0
O61 O 0.83738 0.06819 0.02606 0.0
C62 C 0.93307 0.14186 0.06601 0.0
O63 O 0.89235 0.05296 0.97919 0.0
O64 O 0.84821 0.08066 0.95096 0.0
C65 C 0.84557 0.1629 0.94327 0.0
Fe66 Fe 0.41129 0.41144 0.52224 0.0
Fe67 Fe 0.33413 0.39 0.53954 0.0
O68 O 0.37909 0.3782 0.52938 0.0
Fe69 Fe 0.39169 0.33311 0.52652 0.0
O70 O 0.43702 0.34046 0.54576 0.0
O71 O 0.43837 0.39688 0.56292 0.0
O72 O 0.39076 0.44363 0.55734 0.0
C73 C 0.36894 0.43968 0.58542 0.0
C74 C 0.42902 0.35832 0.46432 0.0
O75 O 0.34681 0.41464 0.58428 0.0
C76 C 0.32409 0.3335 0.48864 0.0
O77 O 0.38672 0.4284 0.48104 0.0
O78 O 0.33449 0.42981 0.51044 0.0
O79 O 0.40665 0.33616 0.47589 0.0
O80 O 0.43728 0.3852 0.48576 0.0
C81 C 0.34632 0.33312 0.58943 0.0
O82 O 0.3187 0.36601 0.49549 0.0
O83 O 0.34861 0.31749 0.50656 0.0
C84 C 0.35483 0.43901 0.48285 0.0
O85 O 0.32532 0.35245 0.57051 0.0
O86 O 0.37761 0.32706 0.57707 0.0
C87 C 0.45048 0.36604 0.56575 0.0
C88 C 0.11762 0.19754 0.31304 0.0
N89 N 0.10512 0.17169 0.28809 0.0
N90 N 0.14889 0.18762 0.32931 0.0
C91 C 0.10065 0.23323 0.31975 0.0
C92 C 0.15502 0.15489 0.31336 0.0
N93 N 0.12827 0.14509 0.28855 0.0
C94 C 0.18865 0.134 0.31907 0.0
H95 H 0.11358 0.25211 0.30008 0.0
H96 H 0.10469 0.24305 0.3507 0.0
H97 H 0.07162 0.2323 0.31314 0.0
H98 H 0.18256 0.10543 0.31981 0.0
H99 H 0.2025 0.14266 0.34674 0.0
H100 H 0.20679 0.13798 0.29372 0.0
C101 C 0.33002 0.654 0.80925 0.0
N102 N 0.35577 0.64062 0.785 0.0
N103 N 0.33958 0.68624 0.82422 0.0
C104 C 0.29596 0.63536 0.81912 0.0
C105 C 0.3721 0.69202 0.80817 0.0
N106 N 0.38196 0.6642 0.78434 0.0
C107 C 0.39262 0.72595 0.81296 0.0
H108 H 0.27499 0.64242 0.79766 0.0
H109 H 0.28662 0.64358 0.84921 0.0
H110 H 0.29974 0.60632 0.81721 0.0
H111 H 0.41214 0.7235 0.83735 0.0
H112 H 0.37458 0.74848 0.82045 0.0
H113 H 0.40765 0.73137 0.78563 0.0
C114 C 0.76672 0.8429 0.23383 0.0
N115 N 0.79425 0.85353 0.21134 0.0
N116 N 0.77372 0.81066 0.24795 0.0
C117 C 0.73394 0.86452 0.24343 0.0
C118 C 0.80638 0.80214 0.23322 0.0
N119 N 0.81871 0.82812 0.2109 0.0
C120 C 0.82691 0.76934 0.24229 0.0
H121 H 0.73905 0.88097 0.27066 0.0
H122 H 0.7106 0.84748 0.24892 0.0
H123 H 0.72763 0.88228 0.21913 0.0
H124 H 0.84455 0.76108 0.21728 0.0
H125 H 0.80849 0.74745 0.24891 0.0
H126 H 0.84394 0.77497 0.26859 0.0
C127 C 0.73953 0.33518 0.71934 0.0
N128 N 0.71224 0.34806 0.69811 0.0
N129 N 0.73047 0.30376 0.73403 0.0
C130 C 0.77385 0.35439 0.72818 0.0
C131 C 0.69659 0.29816 0.72126 0.0
N132 N 0.6855 0.32519 0.69947 0.0
C133 C 0.67382 0.26734 0.73184 0.0
H134 H 0.78293 0.36869 0.7021 0.0
H135 H 0.79509 0.33591 0.73719 0.0
H136 H 0.76915 0.37414 0.7527 0.0
H137 H 0.66042 0.27365 0.76048 0.0
H138 H 0.6903 0.24333 0.7352 0.0
H139 H 0.65301 0.26193 0.70908 0.0
C140 C 0.6259 0.30105 0.23166 0.0
N141 N 0.61374 0.32719 0.25647 0.0
N142 N 0.65843 0.30946 0.21725 0.0
C143 C 0.60759 0.26617 0.22418 0.0
C144 C 0.66562 0.34155 0.23435 0.0
N145 N 0.63842 0.3523 0.25814 0.0
C146 C 0.69882 0.36257 0.22722 0.0
H147 H 0.62736 0.24482 0.21795 0.0
H148 H 0.58997 0.26809 0.19802 0.0
H149 H 0.59084 0.25929 0.24976 0.0
H150 H 0.71002 0.35593 0.19749 0.0
H151 H 0.71915 0.35616 0.24968 0.0
H152 H 0.69311 0.39128 0.23002 0.0
C153 C 0.19587 0.20129 0.80926 0.0
N154 N 0.18244 0.17487 0.83027 0.0
N155 N 0.22922 0.19298 0.7963 0.0
C156 C 0.17562 0.23395 0.799 0.0
C157 C 0.23541 0.16047 0.80996 0.0
N158 N 0.20695 0.14953 0.83068 0.0
C159 C 0.26965 0.14013 0.80428 0.0
H160 H 0.18264 0.24193 0.76881 0.0
H161 H 0.18316 0.25576 0.82015 0.0
H162 H 0.14634 0.22987 0.80095 0.0
H163 H 0.29244 0.15822 0.79984 0.0
H164 H 0.26716 0.12228 0.77767 0.0
H165 H 0.27506 0.1238 0.83007 0.0
C166 C 0.26257 0.66388 0.31469 0.0
N167 N 0.29089 0.65333 0.33605 0.0
N168 N 0.2681 0.69671 0.30169 0.0
C169 C 0.22893 0.64292 0.30793 0.0
C170 C 0.30087 0.70569 0.31571 0.0
N171 N 0.31465 0.67934 0.33669 0.0
C172 C 0.32047 0.73887 0.30621 0.0
H173 H 0.23228 0.62552 0.28106 0.0
H174 H 0.20579 0.66063 0.30333 0.0
H175 H 0.22347 0.62611 0.33329 0.0
H176 H 0.3135 0.75986 0.32867 0.0
H177 H 0.31257 0.74802 0.27675 0.0
H178 H 0.34982 0.73477 0.30682 0.0
C179 C 0.83837 0.84102 0.72688 0.0
N180 N 0.86368 0.85209 0.753 0.0
N181 N 0.84662 0.80855 0.71141 0.0
C182 C 0.80442 0.86068 0.71853 0.0
C183 C 0.87784 0.80028 0.72906 0.0
N184 N 0.88832 0.82689 0.75412 0.0
C185 C 0.89633 0.76515 0.72444 0.0
H186 H 0.78247 0.84974 0.73631 0.0
H187 H 0.79696 0.85732 0.68695 0.0
H188 H 0.80712 0.88925 0.72623 0.0
H189 H 0.92572 0.76865 0.72396 0.0
H190 H 0.88776 0.75063 0.69698 0.0
H191 H 0.88962 0.74919 0.75016 0.0
C192 C 0.158 0.97868 0.14205 0.0
C193 C 0.12684 0.97047 0.12069 0.0
C194 C 0.15827 0.00624 0.17104 0.0
C195 C 0.12645 0.02546 0.1794 0.0
C196 C 0.09453 0.01612 0.15911 0.0
C197 C 0.09528 0.98909 0.12968 0.0
C198 C 0.19284 0.01547 0.19191 0.0
C199 C 0.05941 0.0348 0.16703 0.0
C200 C 0.12143 0.08136 0.27497 0.0
C201 C 0.12826 0.115 0.26142 0.0
C202 C 0.12055 0.05188 0.24857 0.0
C203 C 0.12712 0.05634 0.20789 0.0
C204 C 0.13376 0.09051 0.19418 0.0
C205 C 0.13419 0.11949 0.22121 0.0
C206 C 0.11179 0.01613 0.26392 0.0
C207 C 0.14042 0.0964 0.15101 0.0
H208 H 0.18247 0.96437 0.13516 0.0
H209 H 0.07096 0.98256 0.1136 0.0
H210 H 0.20081 0.04274 0.18516 0.0
H211 H 0.18918 0.01477 0.22437 0.0
H212 H 0.21493 0.99721 0.18303 0.0
H213 H 0.03784 0.01508 0.17038 0.0
H214 H 0.05965 0.05267 0.19373 0.0
H215 H 0.05237 0.05031 0.14105 0.0
H216 H 0.11633 0.0784 0.30615 0.0
H217 H 0.13923 0.14578 0.21113 0.0
H218 H 0.13355 0.99714 0.25633 0.0
H219 H 0.08704 0.00593 0.24949 0.0
H220 H 0.1078 0.01703 0.29645 0.0
H221 H 0.14317 0.12482 0.14488 0.0
H222 H 0.11818 0.0852 0.13289 0.0
H223 H 0.16523 0.08245 0.1414 0.0
C224 C 0.53489 0.60993 0.63329 0.0
C225 C 0.5476 0.6387 0.61267 0.0
C226 C 0.51096 0.6149 0.66494 0.0
C227 C 0.49955 0.64946 0.67628 0.0
C228 C 0.51411 0.67873 0.65732 0.0
C229 C 0.53788 0.67299 0.62567 0.0
C230 C 0.49601 0.5829 0.68422 0.0
C231 C 0.50323 0.71604 0.66912 0.0
C232 C 0.40555 0.65926 0.71683 0.0
C233 C 0.41174 0.66254 0.7575 0.0
C234 C 0.43396 0.65518 0.69013 0.0
C235 C 0.46946 0.65471 0.70459 0.0
C236 C 0.47588 0.65888 0.74574 0.0
C237 C 0.44678 0.66274 0.77181 0.0
C238 C 0.42592 0.65155 0.64646 0.0
C239 C 0.51335 0.65873 0.76215 0.0
H240 H 0.54236 0.58332 0.62366 0.0
H241 H 0.54797 0.69544 0.61032 0.0
H242 H 0.49388 0.58733 0.7167 0.0
H243 H 0.46875 0.57774 0.67267 0.0
H244 H 0.51255 0.55899 0.67785 0.0
H245 H 0.5205 0.73588 0.6553 0.0
H246 H 0.47522 0.72062 0.65988 0.0
H247 H 0.50437 0.72032 0.70168 0.0
H248 H 0.37829 0.65964 0.70606 0.0
H249 H 0.45121 0.66522 0.80341 0.0
H250 H 0.44026 0.62852 0.6328 0.0
H251 H 0.43545 0.67534 0.63168 0.0
H252 H 0.39688 0.64846 0.6405 0.0
H253 H 0.52616 0.63282 0.75518 0.0
H254 H 0.51383 0.66378 0.79468 0.0
H255 H 0.52972 0.67908 0.74806 0.0
C256 C 0.87085 0.01961 0.10849 0.0
C257 C 0.84621 0.0353 0.08336 0.0
C258 C 0.86047 0.9924 0.13292 0.0
C259 C 0.8244 0.98099 0.13258 0.0
C260 C 0.79894 0.99855 0.10951 0.0
C261 C 0.81019 0.02525 0.08492 0.0
C262 C 0.88866 0.97617 0.1585 0.0
C263 C 0.75993 0.98848 0.10997 0.0
C264 C 0.80579 0.8849 0.15088 0.0
C265 C 0.79783 0.88603 0.19123 0.0
C266 C 0.81443 0.91564 0.13149 0.0
C267 C 0.81396 0.94853 0.15284 0.0
C268 C 0.80467 0.94996 0.19341 0.0
C269 C 0.797 0.91853 0.21228 0.0
C270 C 0.82462 0.91268 0.08832 0.0
C271 C 0.80401 0.98449 0.21707 0.0
H272 H 0.89862 0.02768 0.10819 0.0
H273 H 0.79076 0.0378 0.06632 0.0
H274 H 0.88097 0.95014 0.16953 0.0
H275 H 0.91426 0.9732 0.14209 0.0
H276 H 0.89373 0.99428 0.18443 0.0
H277 H 0.7429 0.00793 0.09505 0.0
H278 H 0.75634 0.96233 0.09467 0.0
H279 H 0.75045 0.98627 0.14082 0.0
H280 H 0.80612 0.85964 0.13478 0.0
H281 H 0.79144 0.91913 0.24369 0.0
H282 H 0.84865 0.92875 0.08251 0.0
H283 H 0.8025 0.92291 0.07024 0.0
H284 H 0.83006 0.88494 0.07825 0.0
H285 H 0.83166 0.9947 0.22029 0.0
H286 H 0.79252 0.98164 0.24701 0.0
H287 H 0.78822 0.00441 0.20141 0.0
C288 C 0.50291 0.38866 0.60534 0.0
C289 C 0.4833 0.3601 0.58917 0.0
C290 C 0.53522 0.38334 0.62533 0.0
C291 C 0.54825 0.34853 0.6293 0.0
C292 C 0.52792 0.31956 0.6143 0.0
C293 C 0.49581 0.32568 0.59433 0.0
C294 C 0.55521 0.41553 0.6409 0.0
C295 C 0.54034 0.28203 0.61889 0.0
C296 C 0.64802 0.33388 0.64115 0.0
C297 C 0.65091 0.32985 0.68187 0.0
C298 C 0.61474 0.33998 0.62363 0.0
C299 C 0.58372 0.3422 0.64758 0.0
C300 C 0.58665 0.33838 0.68888 0.0
C301 C 0.62031 0.33217 0.70555 0.0
C302 C 0.61274 0.34371 0.57949 0.0
C303 C 0.55432 0.34148 0.71541 0.0
H304 H 0.4935 0.4154 0.60174 0.0
H305 H 0.48066 0.30339 0.58237 0.0
H306 H 0.57863 0.4094 0.65945 0.0
H307 H 0.56441 0.43085 0.61559 0.0
H308 H 0.53684 0.43295 0.65857 0.0
H309 H 0.52044 0.26241 0.60761 0.0
H310 H 0.56578 0.2775 0.60263 0.0
H311 H 0.54565 0.27731 0.65048 0.0
H312 H 0.67194 0.33217 0.62313 0.0
H313 H 0.62296 0.32975 0.73718 0.0
H314 H 0.59656 0.36716 0.57235 0.0
H315 H 0.59932 0.32025 0.56574 0.0
H316 H 0.63962 0.34609 0.56594 0.0
H317 H 0.54258 0.36828 0.71367 0.0
H318 H 0.56093 0.33678 0.74674 0.0
H319 H 0.53361 0.32228 0.70528 0.0
C320 C 0.63929 0.53466 0.3835 0.0
C321 C 0.61827 0.53191 0.41737 0.0
C322 C 0.64175 0.50645 0.35549 0.0
C323 C 0.62402 0.47433 0.36255 0.0
C324 C 0.60283 0.47154 0.39701 0.0
C325 C 0.59966 0.50068 0.42358 0.0
C326 C 0.66377 0.51082 0.31867 0.0
C327 C 0.58409 0.43792 0.40732 0.0
C328 C 0.60731 0.40712 0.27849 0.0
C329 C 0.63628 0.38418 0.28248 0.0
C330 C 0.60321 0.4369 0.30402 0.0
C331 C 0.62857 0.44354 0.33441 0.0
C332 C 0.65772 0.42011 0.33872 0.0
C333 C 0.66141 0.39083 0.31237 0.0
C334 C 0.57146 0.46089 0.29904 0.0
C335 C 0.68411 0.42518 0.37213 0.0
H336 H 0.65378 0.5589 0.37899 0.0
H337 H 0.58393 0.49842 0.45027 0.0
H338 H 0.68688 0.49245 0.31851 0.0
H339 H 0.6475 0.50401 0.29206 0.0
H340 H 0.67397 0.53815 0.31642 0.0
H341 H 0.59307 0.42993 0.43691 0.0
H342 H 0.55492 0.44295 0.40952 0.0
H343 H 0.58883 0.41556 0.38591 0.0
H344 H 0.58776 0.40141 0.25553 0.0
H345 H 0.68316 0.37232 0.31588 0.0
H346 H 0.58075 0.48816 0.29428 0.0
H347 H 0.55511 0.46177 0.3264 0.0
H348 H 0.55424 0.45212 0.27382 0.0
H349 H 0.69681 0.45152 0.37104 0.0
H350 H 0.7054 0.40471 0.3712 0.0
H351 H 0.66985 0.42419 0.40081 0.0
C352 C 0.98318 0.16291 0.91355 0.0
C353 C 0.98237 0.1364 0.94108 0.0
C354 C 0.01467 0.17005 0.89283 0.0
C355 C 0.04627 0.1511 0.90113 0.0
C356 C 0.04545 0.12432 0.92911 0.0
C357 C 0.0133 0.11694 0.94835 0.0
C358 C 0.01421 0.198 0.86235 0.0
C359 C 0.07878 0.10464 0.94038 0.0
C360 C 0.12397 0.14599 0.82922 0.0
C361 C 0.1468 0.17183 0.84543 0.0
C362 C 0.0906 0.13973 0.84632 0.0
C363 C 0.08028 0.15945 0.88086 0.0
C364 C 0.10325 0.18597 0.89701 0.0
C365 C 0.1362 0.19212 0.87872 0.0
C366 C 0.06693 0.11123 0.8283 0.0
C367 C 0.09375 0.2067 0.93451 0.0
H368 H 0.9591 0.17795 0.90817 0.0
H369 H 0.0127 0.09696 0.97037 0.0
H370 H 0.03239 0.21987 0.87155 0.0
H371 H 0.02415 0.18676 0.83363 0.0
H372 H 0.98704 0.20901 0.85796 0.0
H373 H 0.07244 0.07985 0.95528 0.0
H374 H 0.09574 0.09817 0.91429 0.0
H375 H 0.09473 0.1217 0.96105 0.0
H376 H 0.13275 0.13026 0.80359 0.0
H377 H 0.15447 0.21163 0.89131 0.0
H378 H 0.03998 0.12209 0.82239 0.0
H379 H 0.06358 0.08984 0.84939 0.0
H380 H 0.07805 0.0996 0.80027 0.0
H381 H 0.06732 0.2196 0.93146 0.0
H382 H 0.11391 0.22726 0.94236 0.0
H383 H 0.09168 0.18852 0.95926 0.0
C384 C 0.30667 0.47706 0.4559 0.0
C385 C 0.34265 0.46658 0.45613 0.0
C386 C 0.29534 0.50548 0.43374 0.0
C387 C 0.32067 0.52409 0.41168 0.0
C388 C 0.35675 0.51277 0.4105 0.0
C389 C 0.36726 0.48396 0.43249 0.0
C390 C 0.25649 0.51631 0.43501 0.0
C391 C 0.38453 0.53189 0.38715 0.0
C392 C 0.29251 0.58835 0.33426 0.0
C393 C 0.29511 0.6206 0.3556 0.0
C394 C 0.29967 0.55646 0.35239 0.0
C395 C 0.31021 0.55713 0.39256 0.0
C396 C 0.31218 0.58973 0.41436 0.0
C397 C 0.30426 0.62105 0.39564 0.0
C398 C 0.29674 0.52221 0.32838 0.0
C399 C 0.32317 0.59163 0.4573 0.0
H400 H 0.28738 0.46349 0.47368 0.0
H401 H 0.39507 0.4759 0.43223 0.0
H402 H 0.25373 0.54211 0.45133 0.0
H403 H 0.24622 0.51967 0.40467 0.0
H404 H 0.23955 0.49673 0.44974 0.0
H405 H 0.41194 0.52156 0.39184 0.0
H406 H 0.37822 0.52923 0.35519 0.0
H407 H 0.38414 0.56044 0.39546 0.0
H408 H 0.28583 0.58826 0.30314 0.0
H409 H 0.30587 0.64614 0.41201 0.0
H410 H 0.2804 0.50298 0.34432 0.0
H411 H 0.32369 0.51046 0.32405 0.0
H412 H 0.28462 0.52594 0.2989 0.0
H413 H 0.32697 0.61923 0.46873 0.0
H414 H 0.34839 0.57682 0.46147 0.0
H415 H 0.30236 0.57914 0.47536 0.0
C416 C 0.04177 0.81734 0.91791 0.0
C417 C 0.04826 0.85215 0.93142 0.0
C418 C 0.01829 0.81016 0.88623 0.0
C419 C 0.00132 0.83846 0.86756 0.0
C420 C 0.00951 0.87369 0.87966 0.0
C421 C 0.03282 0.88004 0.91147 0.0
C422 C 0.0105 0.77231 0.87378 0.0
C423 C 0.99369 0.90491 0.85942 0.0
C424 C 0.95252 0.82727 0.76954 0.0
C425 C 0.91701 0.82606 0.78223 0.0
C426 C 0.98059 0.82987 0.79701 0.0
C427 C 0.97266 0.83148 0.83792 0.0
C428 C 0.93668 0.82954 0.8507 0.0
C429 C 0.9093 0.82666 0.8226 0.0
C430 C 0.01849 0.83248 0.78228 0.0
C431 C 0.92702 0.83212 0.894 0.0
H432 H 0.05377 0.79571 0.93318 0.0
H433 H 0.03851 0.90704 0.92121 0.0
H434 H 0.98242 0.76597 0.88121 0.0
H435 H 0.01349 0.76835 0.84131 0.0
H436 H 0.02838 0.7535 0.88856 0.0
H437 H 0.99322 0.92891 0.87934 0.0
H438 H 0.01043 0.91069 0.83344 0.0
H439 H 0.96619 0.8997 0.84864 0.0
H440 H 0.95809 0.8273 0.73815 0.0
H441 H 0.88164 0.82581 0.832 0.0
H442 H 0.03618 0.81421 0.79803 0.0
H443 H 0.02852 0.85964 0.78846 0.0
H444 H 0.02054 0.82639 0.75001 0.0
H445 H 0.94068 0.81091 0.90988 0.0
H446 H 0.89777 0.83003 0.89897 0.0
H447 H 0.93636 0.85771 0.90723 0.0
C448 C 0.88321 0.99365 0.92781 0.0
C449 C 0.86852 0.02679 0.92037 0.0
C450 C 0.88164 0.96578 0.89947 0.0
C451 C 0.86541 0.97128 0.8625 0.0
C452 C 0.85068 0.00471 0.85464 0.0
C453 C 0.85217 0.03205 0.88383 0.0
C454 C 0.89696 0.93032 0.90933 0.0
C455 C 0.83343 0.01155 0.8154 0.0
C456 C 0.89173 0.90672 0.77895 0.0
C457 C 0.86289 0.88335 0.77846 0.0
C458 C 0.89256 0.93601 0.80558 0.0
C459 C 0.8638 0.94183 0.83227 0.0
C460 C 0.83441 0.91836 0.83153 0.0
C461 C 0.8344 0.88929 0.80463 0.0
C462 C 0.92441 0.96036 0.8056 0.0
C463 C 0.80351 0.92338 0.85986 0.0
H464 H 0.89557 0.98926 0.95614 0.0
H465 H 0.84092 0.05766 0.87789 0.0
H466 H 0.8751 0.9107 0.91078 0.0
H467 H 0.91559 0.92075 0.88584 0.0
H468 H 0.9114 0.9312 0.938 0.0
H469 H 0.82349 0.03908 0.81383 0.0
H470 H 0.85293 0.00642 0.79115 0.0
H471 H 0.8107 0.99324 0.81015 0.0
H472 H 0.91376 0.90172 0.7587 0.0
H473 H 0.81257 0.87058 0.80463 0.0
H474 H 0.93674 0.96214 0.83539 0.0
H475 H 0.91562 0.98734 0.79853 0.0
H476 H 0.94508 0.95142 0.78386 0.0
H477 H 0.81303 0.92068 0.8906 0.0
H478 H 0.78186 0.90389 0.85394 0.0
H479 H 0.79222 0.95032 0.85794 0.0
C480 C 0.45587 0.31617 0.41387 0.0
C481 C 0.44929 0.35095 0.42753 0.0
C482 C 0.47907 0.30906 0.38194 0.0
C483 C 0.49554 0.33744 0.3631 0.0
C484 C 0.48679 0.37262 0.37493 0.0
C485 C 0.46399 0.37895 0.40725 0.0
C486 C 0.48753 0.27123 0.36985 0.0
C487 C 0.50242 0.40359 0.35425 0.0
C488 C 0.58948 0.32699 0.32344 0.0
C489 C 0.58368 0.32577 0.28269 0.0
C490 C 0.56083 0.32963 0.34988 0.0
C491 C 0.52547 0.3307 0.33502 0.0
C492 C 0.51944 0.32796 0.29372 0.0
C493 C 0.54882 0.32558 0.2679 0.0
C494 C 0.56848 0.33269 0.39367 0.0
C495 C 0.4822 0.32903 0.27677 0.0
H496 H 0.44435 0.29446 0.42936 0.0
H497 H 0.45819 0.40589 0.41719 0.0
H498 H 0.486 0.2672 0.33728 0.0
H499 H 0.51525 0.26493 0.37884 0.0
H500 H 0.46909 0.25243 0.38372 0.0
H501 H 0.49579 0.42923 0.36954 0.0
H502 H 0.53188 0.40111 0.35206 0.0
H503 H 0.49192 0.40388 0.32366 0.0
H504 H 0.61666 0.3268 0.33444 0.0
H505 H 0.54474 0.32475 0.2362 0.0
H506 H 0.55476 0.31122 0.40895 0.0
H507 H 0.55789 0.35808 0.40624 0.0
H508 H 0.59752 0.33134 0.40026 0.0
H509 H 0.46381 0.31218 0.29341 0.0
H510 H 0.48171 0.32025 0.24509 0.0
H511 H 0.47183 0.35643 0.27937 0.0
C512 C 0.13103 0.98239 0.93067 0.0
C513 C 0.15513 0.96705 0.95667 0.0
C514 C 0.14167 0.0099 0.90691 0.0
C515 C 0.17748 0.02193 0.9088 0.0
C516 C 0.2025 0.00485 0.93284 0.0
C517 C 0.19097 0.97781 0.95677 0.0
C518 C 0.11399 0.02582 0.8804 0.0
C519 C 0.24127 0.01579 0.93414 0.0
C520 C 0.20591 0.08462 0.83009 0.0
C521 C 0.20314 0.11715 0.85082 0.0
C522 C 0.1986 0.0531 0.84884 0.0
C523 C 0.18792 0.0545 0.88897 0.0
C524 C 0.18561 0.08743 0.91006 0.0
C525 C 0.19374 0.11831 0.89077 0.0
C526 C 0.20108 0.01849 0.82547 0.0
C527 C 0.17397 0.09021 0.95278 0.0
H528 H 0.10343 0.97377 0.92971 0.0
H529 H 0.20998 0.96554 0.97612 0.0
H530 H 0.1216 0.05199 0.86974 0.0
H531 H 0.10987 0.0077 0.85426 0.0
H532 H 0.08792 0.02839 0.89595 0.0
H533 H 0.25815 0.99681 0.94997 0.0
H534 H 0.25184 0.01807 0.90373 0.0
H535 H 0.24372 0.0421 0.94939 0.0
H536 H 0.2127 0.08405 0.79898 0.0
H537 H 0.192 0.14365 0.90661 0.0
H538 H 0.17388 0.00737 0.82127 0.0
H539 H 0.217 0.99918 0.84189 0.0
H540 H 0.21339 0.02155 0.79596 0.0
H541 H 0.14988 0.07392 0.95749 0.0
H542 H 0.16801 0.11787 0.96274 0.0
H543 H 0.19551 0.08005 0.97174 0.0
C544 C 0.51369 0.6719 0.42286 0.0
C545 C 0.51322 0.64931 0.45463 0.0
C546 C 0.48224 0.67919 0.40203 0.0
C547 C 0.4496 0.66394 0.41369 0.0
C548 C 0.44891 0.6417 0.44624 0.0
C549 C 0.48074 0.63446 0.46611 0.0
C550 C 0.48399 0.7028 0.36726 0.0
C551 C 0.41452 0.6255 0.46008 0.0
C552 C 0.36016 0.70187 0.38348 0.0
C553 C 0.34984 0.67761 0.35351 0.0
C554 C 0.39316 0.69844 0.40265 0.0
C555 C 0.41619 0.67012 0.39127 0.0
C556 C 0.40616 0.64617 0.36009 0.0
C557 C 0.37303 0.65028 0.34154 0.0
C558 C 0.40276 0.72427 0.436 0.0
C559 C 0.42999 0.61572 0.34702 0.0
H560 H 0.53875 0.68338 0.41383 0.0
H561 H 0.4801 0.61735 0.49098 0.0
H562 H 0.47556 0.68788 0.34001 0.0
H563 H 0.46522 0.72529 0.37169 0.0
H564 H 0.51128 0.71334 0.36263 0.0
H565 H 0.41887 0.60688 0.48412 0.0
H566 H 0.39605 0.64664 0.47098 0.0
H567 H 0.40107 0.61122 0.43512 0.0
H568 H 0.34182 0.72277 0.39268 0.0
H569 H 0.36479 0.63178 0.3181 0.0
H570 H 0.42969 0.73545 0.43113 0.0
H571 H 0.40372 0.71038 0.46418 0.0
H572 H 0.38321 0.74628 0.43918 0.0
H573 H 0.45587 0.62591 0.33637 0.0
H574 H 0.41775 0.59893 0.32305 0.0
H575 H 0.43589 0.59899 0.37235 0.0
C576 C 0.38133 0.50059 0.61233 0.0
C577 C 0.36667 0.46712 0.61759 0.0
C578 C 0.37854 0.52739 0.64183 0.0
C579 C 0.36093 0.5205 0.67769 0.0
C580 C 0.34649 0.48664 0.68347 0.0
C581 C 0.34933 0.46036 0.6532 0.0
C582 C 0.3934 0.56338 0.63382 0.0
C583 C 0.3278 0.47831 0.72146 0.0
C584 C 0.38328 0.58436 0.76301 0.0
C585 C 0.35476 0.60815 0.7616 0.0
C586 C 0.38498 0.55483 0.73683 0.0
C587 C 0.35735 0.54906 0.70875 0.0
C588 C 0.32786 0.57249 0.70817 0.0
C589 C 0.32697 0.60185 0.73465 0.0
C590 C 0.41712 0.53077 0.7379 0.0
C591 C 0.29819 0.56756 0.67831 0.0
H592 H 0.39439 0.50618 0.58471 0.0
H593 H 0.33808 0.43448 0.65748 0.0
H594 H 0.37124 0.58083 0.62491 0.0
H595 H 0.40587 0.57573 0.6606 0.0
H596 H 0.4135 0.56219 0.60966 0.0
H597 H 0.31869 0.45046 0.72164 0.0
H598 H 0.34601 0.48339 0.74689 0.0
H599 H 0.30427 0.49587 0.72595 0.0
H600 H 0.40473 0.58959 0.78391 0.0
H601 H 0.30536 0.62082 0.7332 0.0
H602 H 0.4318 0.5315 0.70948 0.0
H603 H 0.40842 0.50314 0.74146 0.0
H604 H 0.43578 0.53837 0.76227 0.0
H605 H 0.30873 0.57196 0.64829 0.0
H606 H 0.27562 0.58611 0.68421 0.0
H607 H 0.28789 0.54016 0.67827 0.0
C608 C 0.01464 0.83577 0.11903 0.0
C609 C 0.01564 0.86311 0.09255 0.0
C610 C 0.98349 0.82909 0.14049 0.0
C611 C 0.95243 0.84946 0.13406 0.0
C612 C 0.95338 0.87696 0.10698 0.0
C613 C 0.98523 0.8838 0.08696 0.0
C614 C 0.98375 0.80023 0.1699 0.0
C615 C 0.92048 0.89812 0.09755 0.0
C616 C 0.86198 0.81133 0.15915 0.0
C617 C 0.85362 0.8307 0.19386 0.0
C618 C 0.89434 0.81685 0.13948 0.0
C619 C 0.91889 0.84194 0.1555 0.0
C620 C 0.9107 0.86097 0.19119 0.0
C621 C 0.87792 0.85526 0.20982 0.0
C622 C 0.90159 0.79697 0.1008 0.0
C623 C 0.93601 0.88821 0.20888 0.0
H624 H 0.03837 0.81987 0.1232 0.0
H625 H 0.98599 0.90451 0.06581 0.0
H626 H 0.97549 0.8111 0.19942 0.0
H627 H 0.96419 0.7795 0.16091 0.0
H628 H 0.01051 0.78779 0.17254 0.0
H629 H 0.92739 0.9235 0.08421 0.0
H630 H 0.90391 0.88257 0.07602 0.0
H631 H 0.9039 0.9037 0.12416 0.0
H632 H 0.84248 0.79293 0.14675 0.0
H633 H 0.87075 0.87043 0.23646 0.0
H634 H 0.9276 0.783 0.10203 0.0
H635 H 0.90336 0.81587 0.07672 0.0
H636 H 0.88038 0.7774 0.09322 0.0
H637 H 0.92651 0.89929 0.23788 0.0
H638 H 0.93902 0.91015 0.18844 0.0
H639 H 0.96286 0.87637 0.21281 0.0
C640 C 0.64587 0.49523 0.56569 0.0
C641 C 0.66125 0.52884 0.56984 0.0
C642 C 0.65808 0.46734 0.58788 0.0
C643 C 0.68608 0.47323 0.61539 0.0
C644 C 0.702 0.50701 0.61959 0.0
C645 C 0.68956 0.53445 0.59645 0.0
C646 C 0.64111 0.43147 0.58166 0.0
C647 C 0.7317 0.51422 0.6489 0.0
C648 C 0.68521 0.40673 0.69558 0.0
C649 C 0.71005 0.38196 0.68095 0.0
C650 C 0.6787 0.43781 0.67576 0.0
C651 C 0.6975 0.44398 0.64041 0.0
C652 C 0.72389 0.41964 0.62658 0.0
C653 C 0.72981 0.38876 0.64711 0.0
C654 C 0.65007 0.46285 0.69121 0.0
C655 C 0.74422 0.42506 0.58884 0.0
H656 H 0.62437 0.49056 0.54468 0.0
H657 H 0.70149 0.56042 0.59973 0.0
H658 H 0.66117 0.41253 0.56923 0.0
H659 H 0.63207 0.42134 0.61023 0.0
H660 H 0.61792 0.43191 0.56122 0.0
H661 H 0.74198 0.54162 0.64776 0.0
H662 H 0.72192 0.5099 0.67925 0.0
H663 H 0.75414 0.49556 0.64312 0.0
H664 H 0.66995 0.40097 0.72173 0.0
H665 H 0.74861 0.36907 0.6358 0.0
H666 H 0.62694 0.46202 0.67071 0.0
H667 H 0.66024 0.49032 0.69265 0.0
H668 H 0.64053 0.45606 0.72102 0.0
H669 H 0.72598 0.42102 0.56325 0.0
H670 H 0.76701 0.4064 0.58511 0.0
H671 H 0.7545 0.45243 0.58818 0.0
C672 C 0.99085 0.13753 0.10157 0.0
C673 C 0.95593 0.15095 0.10043 0.0
C674 C 0.01299 0.1445 0.13419 0.0
C675 C 0.99976 0.16501 0.16681 0.0
C676 C 0.96471 0.17911 0.16573 0.0
C677 C 0.94321 0.17214 0.13228 0.0
C678 C 0.05061 0.12991 0.13365 0.0
C679 C 0.9498 0.20097 0.20013 0.0
C680 C 0.04972 0.14651 0.26074 0.0
C681 C 0.0752 0.17339 0.26165 0.0
C682 C 0.0234 0.14469 0.23132 0.0
C683 C 0.02271 0.17051 0.20225 0.0
C684 C 0.04739 0.19876 0.20431 0.0
C685 C 0.07354 0.19974 0.23397 0.0
C686 C 0.9979 0.11389 0.22981 0.0
C687 C 0.04772 0.22663 0.17374 0.0
H688 H 0.00104 0.12163 0.07672 0.0
H689 H 0.91621 0.18249 0.13145 0.0
H690 H 0.0558 0.1151 0.16063 0.0
H691 H 0.05582 0.11219 0.10736 0.0
H692 H 0.07003 0.15195 0.13358 0.0
H693 H 0.92256 0.21112 0.19407 0.0
H694 H 0.94865 0.18482 0.22669 0.0
H695 H 0.96763 0.22366 0.20728 0.0
H696 H 0.05135 0.1262 0.28227 0.0
H697 H 0.09382 0.22008 0.23439 0.0
H698 H 0.00393 0.09648 0.20352 0.0
H699 H 0.96999 0.12333 0.22676 0.0
H700 H 0.9998 0.09797 0.25655 0.0
H701 H 0.05808 0.21501 0.1454 0.0
H702 H 0.06486 0.24942 0.18282 0.0
H703 H 0.02027 0.23634 0.16823 0.0
C704 C 0.20301 0.81817 0.13568 0.0
C705 C 0.16621 0.81813 0.1278 0.0
C706 C 0.21725 0.79855 0.16612 0.0
C707 C 0.1941 0.7787 0.18963 0.0
C708 C 0.15681 0.77936 0.1827 0.0
C709 C 0.14329 0.79894 0.15168 0.0
C710 C 0.25722 0.79831 0.17241 0.0
C711 C 0.13131 0.7589 0.20757 0.0
C712 C 0.23815 0.70137 0.23775 0.0
C713 C 0.24629 0.71602 0.27518 0.0
C714 C 0.21987 0.72108 0.21003 0.0
C715 C 0.2094 0.75618 0.22028 0.0
C716 C 0.21634 0.77055 0.25874 0.0
C717 C 0.23497 0.75027 0.28574 0.0
C718 C 0.21329 0.70493 0.16921 0.0
C719 C 0.20528 0.80771 0.27088 0.0
H720 H 0.22095 0.83288 0.1174 0.0
H721 H 0.11479 0.79901 0.14597 0.0
H722 H 0.26362 0.80683 0.20331 0.0
H723 H 0.2677 0.77109 0.16756 0.0
H724 H 0.27143 0.81587 0.15219 0.0
H725 H 0.10292 0.76397 0.20001 0.0
H726 H 0.13667 0.73022 0.20329 0.0
H727 H 0.13546 0.76589 0.23935 0.0
H728 H 0.24737 0.67493 0.22979 0.0
H729 H 0.24132 0.76125 0.31491 0.0
H730 H 0.22896 0.71934 0.14722 0.0
H731 H 0.18468 0.70741 0.16121 0.0
H732 H 0.22094 0.67661 0.16688 0.0
H733 H 0.221 0.82677 0.25399 0.0
H734 H 0.20951 0.81364 0.30292 0.0
H735 H 0.17669 0.81199 0.26384 0.0
C736 C 0.73423 0.67491 0.57327 0.0
C737 C 0.69786 0.68394 0.57528 0.0
C738 C 0.75968 0.6936 0.59608 0.0
C739 C 0.74853 0.72212 0.62135 0.0
C740 C 0.71182 0.73095 0.62414 0.0
C741 C 0.68689 0.71166 0.60119 0.0
C742 C 0.79857 0.68321 0.59264 0.0
C743 C 0.69897 0.76129 0.65074 0.0
C744 C 0.80893 0.75585 0.70446 0.0
C745 C 0.82379 0.78571 0.68803 0.0
C746 C 0.78481 0.73444 0.68283 0.0
C747 C 0.77534 0.74343 0.64402 0.0
C748 C 0.79091 0.77332 0.62713 0.0
C749 C 0.81513 0.79406 0.6494 0.0
C750 C 0.76897 0.70267 0.70172 0.0
C751 C 0.78148 0.78374 0.58586 0.0
H752 H 0.74293 0.65335 0.55357 0.0
H753 H 0.65886 0.71882 0.60298 0.0
H754 H 0.81418 0.70527 0.58082 0.0
H755 H 0.80959 0.67793 0.62223 0.0
H756 H 0.80265 0.6594 0.57295 0.0
H757 H 0.66942 0.76415 0.65034 0.0
H758 H 0.70766 0.75747 0.68158 0.0
H759 H 0.71105 0.78628 0.64131 0.0
H760 H 0.81576 0.74978 0.73452 0.0
H761 H 0.82705 0.81715 0.63698 0.0
H762 H 0.77371 0.6786 0.68272 0.0
H763 H 0.73961 0.706 0.70464 0.0
H764 H 0.78036 0.69848 0.73146 0.0
H765 H 0.7872 0.7616 0.56438 0.0
H766 H 0.7965 0.80734 0.57686 0.0
H767 H 0.75246 0.78951 0.58407 0.0
C768 C 0.801 0.22203 0.07128 0.0
C769 C 0.80061 0.18502 0.0708 0.0
C770 C 0.77729 0.24201 0.09519 0.0
C771 C 0.75281 0.22461 0.11955 0.0
C772 C 0.75243 0.18729 0.11951 0.0
C773 C 0.77625 0.16792 0.095 0.0
C774 C 0.77832 0.28178 0.09425 0.0
C775 C 0.72694 0.16786 0.14544 0.0
C776 C 0.71533 0.27813 0.20713 0.0
C777 C 0.68172 0.28767 0.19299 0.0
C778 C 0.73856 0.25708 0.18377 0.0
C779 C 0.72784 0.24561 0.14528 0.0
C780 C 0.69366 0.25502 0.13104 0.0
C781 C 0.67088 0.27586 0.15526 0.0
C782 C 0.77461 0.24732 0.20015 0.0
C783 C 0.68143 0.24355 0.09006 0.0
H784 H 0.81962 0.2355 0.05259 0.0
H785 H 0.77588 0.13934 0.09496 0.0
H786 H 0.75179 0.292 0.08554 0.0
H787 H 0.78433 0.29324 0.12415 0.0
H788 H 0.79869 0.29123 0.07331 0.0
H789 H 0.73018 0.13877 0.14214 0.0
H790 H 0.73127 0.17607 0.17688 0.0
H791 H 0.69896 0.17473 0.13805 0.0
H792 H 0.72323 0.28707 0.23663 0.0
H793 H 0.64477 0.28347 0.14465 0.0
H794 H 0.79612 0.25812 0.18166 0.0
H795 H 0.7778 0.21821 0.1992 0.0
H796 H 0.77835 0.25747 0.23109 0.0
H797 H 0.69975 0.25423 0.06775 0.0
H798 H 0.65383 0.25259 0.08376 0.0
H799 H 0.68236 0.21436 0.08641 0.0
C800 C 0.29527 0.31328 0.63023 0.0
C801 C 0.33221 0.31382 0.62316 0.0
C802 C 0.28091 0.29372 0.66057 0.0
C803 C 0.30404 0.27455 0.68485 0.0
C804 C 0.34143 0.27573 0.6787 0.0
C805 C 0.3551 0.29521 0.6477 0.0
C806 C 0.24083 0.29285 0.66595 0.0
C807 C 0.36688 0.256 0.70446 0.0
C808 C 0.26146 0.24688 0.78027 0.0
C809 C 0.25101 0.21237 0.76996 0.0
C810 C 0.28046 0.267 0.75351 0.0
C811 C 0.28861 0.2522 0.7155 0.0
C812 C 0.27896 0.21688 0.70552 0.0
C813 C 0.26032 0.19733 0.73303 0.0
C814 C 0.29064 0.30443 0.76534 0.0
C815 C 0.28676 0.20029 0.66516 0.0
H816 H 0.27734 0.32753 0.61143 0.0
H817 H 0.38369 0.29573 0.6426 0.0
H818 H 0.23103 0.2654 0.66143 0.0
H819 H 0.23366 0.30176 0.69652 0.0
H820 H 0.22661 0.30981 0.64503 0.0
H821 H 0.39529 0.26131 0.69732 0.0
H822 H 0.36211 0.26344 0.73604 0.0
H823 H 0.36206 0.22721 0.70067 0.0
H824 H 0.25425 0.25814 0.80909 0.0
H825 H 0.25177 0.17067 0.72527 0.0
H826 H 0.27495 0.32306 0.74777 0.0
H827 H 0.31929 0.30901 0.75895 0.0
H828 H 0.28564 0.31068 0.79719 0.0
H829 H 0.27128 0.21413 0.64249 0.0
H830 H 0.27973 0.17184 0.66312 0.0
H831 H 0.31547 0.20313 0.65786 0.0
C832 C 0.68807 0.67052 0.38594 0.0
C833 C 0.66559 0.6861 0.41489 0.0
C834 C 0.70366 0.69078 0.35679 0.0
C835 C 0.69644 0.72742 0.35647 0.0
C836 C 0.67261 0.74301 0.38452 0.0
C837 C 0.6575 0.72218 0.41341 0.0
C838 C 0.72893 0.67323 0.32728 0.0
C839 C 0.66406 0.78196 0.38491 0.0
C840 C 0.76734 0.78565 0.31307 0.0
C841 C 0.75332 0.79136 0.27564 0.0
C842 C 0.74894 0.76504 0.33976 0.0
C843 C 0.71572 0.74987 0.32856 0.0
C844 C 0.70128 0.75596 0.29077 0.0
C845 C 0.72042 0.77663 0.26463 0.0
C846 C 0.76524 0.75918 0.37976 0.0
C847 C 0.66593 0.74028 0.27785 0.0
H848 H 0.69434 0.64264 0.38669 0.0
H849 H 0.63988 0.73442 0.43539 0.0
H850 H 0.72093 0.67925 0.29674 0.0
H851 H 0.7563 0.68377 0.332 0.0
H852 H 0.72979 0.64413 0.32977 0.0
H853 H 0.64292 0.78946 0.40672 0.0
H854 H 0.68847 0.79738 0.39233 0.0
H855 H 0.65517 0.78962 0.35521 0.0
H856 H 0.79292 0.79717 0.32115 0.0
H857 H 0.7101 0.7809 0.23531 0.0
H858 H 0.7697 0.73056 0.3834 0.0
H859 H 0.74662 0.76851 0.40346 0.0
H860 H 0.79112 0.77311 0.38392 0.0
H861 H 0.66754 0.71106 0.27756 0.0
H862 H 0.65797 0.74841 0.24796 0.0
H863 H 0.64468 0.74845 0.29917 0.0
C864 C 0.85274 0.20294 0.88664 0.0
C865 C 0.83079 0.18167 0.90935 0.0
C866 C 0.83846 0.22246 0.85598 0.0
C867 C 0.80135 0.2208 0.84803 0.0
C868 C 0.77923 0.19875 0.87021 0.0
C869 C 0.79422 0.17936 0.90046 0.0
C870 C 0.86292 0.24542 0.83266 0.0
C871 C 0.7395 0.19636 0.86267 0.0
C872 C 0.75503 0.2973 0.80038 0.0
C873 C 0.74999 0.28371 0.76185 0.0
C874 C 0.77246 0.27736 0.82858 0.0
C875 C 0.78522 0.24314 0.81767 0.0
C876 C 0.78094 0.22974 0.77831 0.0
C877 C 0.76322 0.25027 0.75082 0.0
C878 C 0.77635 0.29252 0.87025 0.0
C879 C 0.79437 0.19351 0.76551 0.0
H880 H 0.88106 0.20469 0.89308 0.0
H881 H 0.77702 0.16297 0.91775 0.0
H882 H 0.86 0.23903 0.80057 0.0
H883 H 0.85537 0.27354 0.8377 0.0
H884 H 0.89143 0.24219 0.84095 0.0
H885 H 0.72622 0.17707 0.88163 0.0
H886 H 0.72696 0.22261 0.86836 0.0
H887 H 0.73438 0.18853 0.83129 0.0
H888 H 0.74458 0.32327 0.80848 0.0
H889 H 0.75928 0.2402 0.72074 0.0
H890 H 0.80483 0.29219 0.87931 0.0
H891 H 0.76142 0.27601 0.89091 0.0
H892 H 0.7662 0.32004 0.87346 0.0
H893 H 0.82314 0.19095 0.77277 0.0
H894 H 0.79074 0.18787 0.73333 0.0
H895 H 0.77988 0.17319 0.78184 0.0
C896 C 0.30148 0.276 0.46002 0.0
C897 C 0.29877 0.31291 0.46329 0.0
C898 C 0.27686 0.25589 0.4376 0.0
C899 C 0.24895 0.27309 0.41776 0.0
C900 C 0.24632 0.31034 0.42036 0.0
C901 C 0.27125 0.32983 0.44317 0.0
C902 C 0.28047 0.21618 0.43554 0.0
C903 C 0.21703 0.32955 0.39933 0.0
C904 C 0.20441 0.22162 0.33308 0.0
C905 C 0.17347 0.20962 0.3513 0.0
C906 C 0.229 0.24284 0.3542 0.0
C907 C 0.22239 0.25193 0.3945 0.0
C908 C 0.1909 0.23993 0.41289 0.0
C909 C 0.1667 0.21889 0.3909 0.0
C910 C 0.26215 0.25525 0.33354 0.0
C911 C 0.18307 0.2489 0.45585 0.0
H912 H 0.32263 0.26265 0.47541 0.0
H913 H 0.26901 0.35833 0.44539 0.0
H914 H 0.256 0.20402 0.44747 0.0
H915 H 0.28323 0.20652 0.40434 0.0
H916 H 0.30389 0.2069 0.45243 0.0
H917 H 0.21914 0.35866 0.4037 0.0
H918 H 0.21799 0.32272 0.36719 0.0
H919 H 0.19056 0.32113 0.41024 0.0
H920 H 0.20917 0.21428 0.30227 0.0
H921 H 0.14262 0.20929 0.40458 0.0
H922 H 0.28629 0.24475 0.34804 0.0
H923 H 0.26378 0.28446 0.33593 0.0
H924 H 0.26269 0.24673 0.30178 0.0
H925 H 0.20451 0.23822 0.4746 0.0
H926 H 0.15704 0.23807 0.46541 0.0
H927 H 0.18271 0.27794 0.46119 0.0
C928 C 0.20011 0.77907 0.96764 0.0
C929 C 0.20025 0.81607 0.96773 0.0
C930 C 0.22421 0.75905 0.9443 0.0
C931 C 0.24887 0.77639 0.9201 0.0
C932 C 0.24918 0.8137 0.91993 0.0
C933 C 0.22496 0.83314 0.9439 0.0
C934 C 0.22322 0.71929 0.94548 0.0
C935 C 0.27487 0.83305 0.89416 0.0
C936 C 0.32948 0.72288 0.88468 0.0
C937 C 0.31792 0.71047 0.84745 0.0
C938 C 0.30759 0.7451 0.90846 0.0
C939 C 0.27361 0.75521 0.89426 0.0
C940 C 0.2624 0.74347 0.85604 0.0
C941 C 0.28472 0.7211 0.83314 0.0
C942 C 0.32034 0.75687 0.94915 0.0
C943 C 0.22654 0.7539 0.83969 0.0
H944 H 0.18128 0.76563 0.98611 0.0
H945 H 0.22517 0.86171 0.94371 0.0
H946 H 0.21691 0.70773 0.9157 0.0
H947 H 0.24983 0.70908 0.95393 0.0
H948 H 0.20305 0.70993 0.9667 0.0
H949 H 0.27201 0.86215 0.89779 0.0
H950 H 0.30278 0.82574 0.90132 0.0
H951 H 0.27031 0.82517 0.86267 0.0
H952 H 0.35527 0.71443 0.89541 0.0
H953 H 0.27627 0.71163 0.80402 0.0
H954 H 0.30249 0.74603 0.97181 0.0
H955 H 0.31912 0.78605 0.95275 0.0
H956 H 0.34812 0.74811 0.95496 0.0
H957 H 0.20486 0.74304 0.85792 0.0
H958 H 0.22278 0.74417 0.8086 0.0
H959 H 0.22363 0.78303 0.8411 0.0
loop_
_geom_bond_atom_site_label_1
_geom_bond_atom_site_label_2
_geom_bond_distance
_geom_bond_site_symmetry_2
_ccdc_geom_bond_type
Fe0 O2 1.918 . S
Fe0 O5 1.997 . S
Fe0 O6 2.002 . S
Fe0 O11 1.976 . S
Fe0 O14 1.996 . S
Fe1 O2 1.918 . S
Fe1 O9 1.997 . S
Fe1 O12 1.996 1_554 S
Fe1 O16 1.976 1_554 S
Fe1 O19 2.002 . S
O2 Fe0 1.918 . S
O2 Fe1 1.918 . S
O2 Fe3 1.918 . S
Fe3 O2 1.918 . S
Fe3 O4 2.002 . S
Fe3 O13 1.976 1_554 S
Fe3 O17 1.996 1_554 S
Fe3 O20 1.997 . S
O4 Fe3 2.002 . S
O4 C21 1.295 . S
O5 Fe0 1.997 . S
O5 C21 1.235 . S
O6 Fe0 2.002 . S
O6 C7 1.295 . S
C7 O6 1.295 . S
C7 O9 1.235 . S
C8 O13 1.287 . S
C8 O14 1.255 1_556 S
O9 Fe1 1.997 . S
O9 C7 1.235 . S
C10 O16 1.287 . S
C10 O17 1.255 . S
O11 Fe0 1.976 . S
O11 C18 1.287 1_554 S
O12 Fe1 1.996 1_556 S
O12 C18 1.255 . S
O13 Fe3 1.976 1_556 S
O13 C8 1.287 . S
O14 Fe0 1.996 . S
O14 C8 1.255 1_554 S
C15 O19 1.295 . S
C15 O20 1.235 . S
O16 Fe1 1.976 1_556 S
O16 C10 1.287 . S
O17 Fe3 1.996 1_556 S
O17 C10 1.255 . S
C18 O11 1.287 1_556 S
C18 O12 1.255 . S
O19 Fe1 2.002 . S
O19 C15 1.295 . S
O20 Fe3 1.997 . S
O20 C15 1.235 . S
C21 O4 1.295 . S
C21 O5 1.235 . S
Fe22 O24 1.918 . S
Fe22 O27 1.997 . S
Fe22 O28 2.002 . S
Fe22 O33 1.976 . S
Fe22 O36 1.996 . S
Fe23 O24 1.918 . S
Fe23 O31 1.997 . S
Fe23 O34 1.996 . S
Fe23 O38 1.976 . S
Fe23 O41 2.002 . S
O24 Fe22 1.918 . S
O24 Fe23 1.918 . S
O24 Fe25 1.918 . S
Fe25 O24 1.918 . S
Fe25 O26 2.002 . S
Fe25 O35 1.976 . S
Fe25 O39 1.996 . S
Fe25 O42 1.997 . S
O26 Fe25 2.002 . S
O26 C43 1.295 . S
O27 Fe22 1.997 . S
O27 C43 1.235 . S
O28 Fe22 2.002 . S
O28 C29 1.295 . S
C29 O28 1.295 . S
C29 O31 1.235 . S
C30 O35 1.287 . S
C30 O36 1.255 . S
O31 Fe23 1.997 . S
O31 C29 1.235 . S
C32 O38 1.287 . S
C32 O39 1.255 . S
O33 Fe22 1.976 . S
O33 C40 1.287 . S
O34 Fe23 1.996 . S
O34 C40 1.255 . S
O35 Fe25 1.976 . S
O35 C30 1.287 . S
O36 Fe22 1.996 . S
O36 C30 1.255 . S
C37 O41 1.295 . S
C37 O42 1.235 . S
O38 Fe23 1.976 . S
O38 C32 1.287 . S
O39 Fe25 1.996 . S
O39 C32 1.255 . S
C40 O33 1.287 . S
C40 O34 1.255 . S
O41 Fe23 2.002 . S
O41 C37 1.295 . S
O42 Fe25 1.997 . S
O42 C37 1.235 . S
C43 O26 1.295 . S
C43 O27 1.235 . S
Fe44 O46 1.918 . S
Fe44 O49 1.997 1_554 S
Fe44 O50 2.002 1_554 S
Fe44 O55 1.976 . S
Fe44 O58 1.996 . S
Fe45 O46 1.918 . S
Fe45 O53 1.997 1_554 S
Fe45 O56 1.996 . S
Fe45 O60 1.976 . S
Fe45 O63 2.002 1_554 S
O46 Fe44 1.918 . S
O46 Fe45 1.918 . S
O46 Fe47 1.918 1_554 S
Fe47 O46 1.918 1_556 S
Fe47 O48 2.002 . S
Fe47 O57 1.976 1_556 S
Fe47 O61 1.996 1_556 S
Fe47 O64 1.997 . S
O48 Fe47 2.002 . S
O48 C65 1.295 . S
O49 Fe44 1.997 1_556 S
O49 C65 1.235 . S
O50 Fe44 2.002 1_556 S
O50 C51 1.295 . S
C51 O50 1.295 . S
C51 O53 1.235 . S
C52 O57 1.287 . S
C52 O58 1.255 . S
O53 Fe45 1.997 1_556 S
O53 C51 1.235 . S
C54 O60 1.287 . S
C54 O61 1.255 . S
O55 Fe44 1.976 . S
O55 C62 1.287 . S
O56 Fe45 1.996 . S
O56 C62 1.255 . S
O57 Fe47 1.976 1_554 S
O57 C52 1.287 . S
O58 Fe44 1.996 . S
O58 C52 1.255 . S
C59 O63 1.295 . S
C59 O64 1.235 . S
O60 Fe45 1.976 . S
O60 C54 1.287 . S
O61 Fe47 1.996 1_554 S
O61 C54 1.255 . S
C62 O55 1.287 . S
C62 O56 1.255 . S
O63 Fe45 2.002 1_556 S
O63 C59 1.295 . S
O64 Fe47 1.997 . S
O64 C59 1.235 . S
C65 O48 1.295 . S
C65 O49 1.235 . S
Fe66 O68 1.918 . S
Fe66 O71 1.997 . S
Fe66 O72 2.002 . S
Fe66 O77 1.976 . S
Fe66 O80 1.996 . S
Fe67 O68 1.918 . S
Fe67 O75 1.997 . S
Fe67 O78 1.996 . S
Fe67 O82 1.976 . S
Fe67 O85 2.002 . S
O68 Fe66 1.918 . S
O68 Fe67 1.918 . S
O68 Fe69 1.918 . S
Fe69 O68 1.918 . S
Fe69 O70 2.002 . S
Fe69 O79 1.976 . S
Fe69 O83 1.996 . S
Fe69 O86 1.997 . S
O70 Fe69 2.002 . S
O70 C87 1.295 . S
O71 Fe66 1.997 . S
O71 C87 1.235 . S
O72 Fe66 2.002 . S
O72 C73 1.295 . S
C73 O72 1.295 . S
C73 O75 1.235 . S
C74 O79 1.287 . S
C74 O80 1.255 . S
O75 Fe67 1.997 . S
O75 C73 1.235 . S
C76 O82 1.287 . S
C76 O83 1.255 . S
O77 Fe66 1.976 . S
O77 C84 1.287 . S
O78 Fe67 1.996 . S
O78 C84 1.255 . S
O79 Fe69 1.976 . S
O79 C74 1.287 . S
O80 Fe66 1.996 . S
O80 C74 1.255 . S
C81 O85 1.295 . S
C81 O86 1.235 . S
O82 Fe67 1.976 . S
O82 C76 1.287 . S
O83 Fe69 1.996 . S
O83 C76 1.255 . S
C84 O77 1.287 . S
C84 O78 1.255 . S
O85 Fe67 2.002 . S
O85 C81 1.295 . S
O86 Fe69 1.997 . S
O86 C81 1.235 . S
C87 O70 1.295 . S
C87 O71 1.235 . S
C88 N89 1.317 . S
C88 N90 1.348 . S
C88 C91 1.485 . S
N89 C88 1.317 . S
N89 N93 1.370 . S
N90 C88 1.348 . S
N90 C92 1.346 . S
C91 C88 1.485 . S
C91 H95 0.960 . S
C91 H96 0.961 . S
C91 H97 0.960 . S
C92 N90 1.346 . S
C92 N93 1.307 . S
C92 C94 1.486 . S
N93 N89 1.370 . S
N93 C92 1.307 . S
C94 C92 1.486 . S
C94 H98 0.960 . S
C94 H99 0.960 . S
C94 H100 0.959 . S
H95 C91 0.960 . S
H96 C91 0.961 . S
H97 C91 0.960 . S
H98 C94 0.960 . S
H99 C94 0.960 . S
H100 C94 0.959 . S
C101 N102 1.317 . S
C101 N103 1.348 . S
C101 C104 1.485 . S
N102 C101 1.317 . S
N102 N106 1.370 . S
N103 C101 1.348 . S
N103 C105 1.346 . S
C104 C101 1.485 . S
C104 H108 0.960 . S
C104 H109 0.961 . S
C104 H110 0.960 . S
C105 N103 1.346 . S
C105 N106 1.307 . S
C105 C107 1.486 . S
N106 N102 1.370 . S
N106 C105 1.307 . S
C107 C105 1.486 . S
C107 H111 0.960 . S
C107 H112 0.960 . S
C107 H113 0.959 . S
H108 C104 0.960 . S
H109 C104 0.961 . S
H110 C104 0.960 . S
H111 C107 0.960 . S
H112 C107 0.960 . S
H113 C107 0.959 . S
C114 N115 1.317 . S
C114 N116 1.348 . S
C114 C117 1.485 . S
N115 C114 1.317 . S
N115 N119 1.370 . S
N116 C114 1.348 . S
N116 C118 1.346 . S
C117 C114 1.485 . S
C117 H121 0.960 . S
C117 H122 0.961 . S
C117 H123 0.960 . S
C118 N116 1.346 . S
C118 N119 1.307 . S
C118 C120 1.486 . S
N119 N115 1.370 . S
N119 C118 1.307 . S
C120 C118 1.486 . S
C120 H124 0.960 . S
C120 H125 0.960 . S
C120 H126 0.959 . S
H121 C117 0.960 . S
H122 C117 0.961 . S
H123 C117 0.960 . S
H124 C120 0.960 . S
H125 C120 0.960 . S
H126 C120 0.959 . S
C127 N128 1.317 . S
C127 N129 1.348 . S
C127 C130 1.485 . S
N128 C127 1.317 . S
N128 N132 1.370 . S
N129 C127 1.348 . S
N129 C131 1.346 . S
C130 C127 1.485 . S
C130 H134 0.960 . S
C130 H135 0.961 . S
C130 H136 0.960 . S
C131 N129 1.346 . S
C131 N132 1.307 . S
C131 C133 1.486 . S
N132 N128 1.370 . S
N132 C131 1.307 . S
C133 C131 1.486 . S
C133 H137 0.960 . S
C133 H138 0.960 . S
C133 H139 0.959 . S
H134 C130 0.960 . S
H135 C130 0.961 . S
H136 C130 0.960 . S
H137 C133 0.960 . S
H138 C133 0.960 . S
H139 C133 0.959 . S
C140 N141 1.317 . S
C140 N142 1.348 . S
C140 C143 1.485 . S
N141 C140 1.317 . S
N141 N145 1.370 . S
N142 C140 1.348 . S
N142 C144 1.346 . S
C143 C140 1.485 . S
C143 H147 0.960 . S
C143 H148 0.961 . S
C143 H149 0.960 . S
C144 N142 1.346 . S
C144 N145 1.307 . S
C144 C146 1.486 . S
N145 N141 1.370 . S
N145 C144 1.307 . S
C146 C144 1.486 . S
C146 H150 0.960 . S
C146 H151 0.960 . S
C146 H152 0.959 . S
H147 C143 0.960 . S
H148 C143 0.961 . S
H149 C143 0.960 . S
H150 C146 0.960 . S
H151 C146 0.960 . S
H152 C146 0.959 . S
C153 N154 1.317 . S
C153 N155 1.348 . S
C153 C156 1.485 . S
N154 C153 1.317 . S
N154 N158 1.370 . S
N155 C153 1.348 . S
N155 C157 1.346 . S
C156 C153 1.485 . S
C156 H160 0.960 . S
C156 H161 0.961 . S
C156 H162 0.960 . S
C157 N155 1.346 . S
C157 N158 1.307 . S
C157 C159 1.486 . S
N158 N154 1.370 . S
N158 C157 1.307 . S
C159 C157 1.486 . S
C159 H163 0.960 . S
C159 H164 0.960 . S
C159 H165 0.959 . S
H160 C156 0.960 . S
H161 C156 0.961 . S
H162 C156 0.960 . S
H163 C159 0.960 . S
H164 C159 0.960 . S
H165 C159 0.959 . S
C166 N167 1.317 . S
C166 N168 1.348 . S
C166 C169 1.485 . S
N167 C166 1.317 . S
N167 N171 1.370 . S
N168 C166 1.348 . S
N168 C170 1.346 . S
C169 C166 1.485 . S
C169 H173 0.960 . S
C169 H174 0.961 . S
C169 H175 0.960 . S
C170 N168 1.346 . S
C170 N171 1.307 . S
C170 C172 1.486 . S
N171 N167 1.370 . S
N171 C170 1.307 . S
C172 C170 1.486 . S
C172 H176 0.960 . S
C172 H177 0.960 . S
C172 H178 0.959 . S
H173 C169 0.960 . S
H174 C169 0.961 . S
H175 C169 0.960 . S
H176 C172 0.960 . S
H177 C172 0.960 . S
H178 C172 0.959 . S
C179 N180 1.317 . S
C179 N181 1.348 . S
C179 C182 1.485 . S
N180 C179 1.317 . S
N180 N184 1.370 . S
N181 C179 1.348 . S
N181 C183 1.346 . S
C182 C179 1.485 . S
C182 H186 0.960 . S
C182 H187 0.961 . S
C182 H188 0.960 . S
C183 N181 1.346 . S
C183 N184 1.307 . S
C183 C185 1.486 . S
N184 N180 1.370 . S
N184 C183 1.307 . S
C185 C183 1.486 . S
C185 H189 0.960 . S
C185 H190 0.960 . S
C185 H191 0.959 . S
H186 C182 0.960 . S
H187 C182 0.961 . S
H188 C182 0.960 . S
H189 C185 0.960 . S
H190 C185 0.960 . S
H191 C185 0.959 . S
C192 C193 1.391 . S
C192 C194 1.394 1_565 S
C192 H208 0.931 . S
C193 C192 1.391 . S
C193 C197 1.376 . S
C194 C192 1.394 1_545 S
C194 C195 1.369 . S
C194 C198 1.531 . S
C195 C194 1.369 . S
C195 C196 1.410 1_545 S
C195 C203 1.503 . S
C196 C195 1.410 1_565 S
C196 C197 1.392 . S
C196 C199 1.511 . S
C197 C193 1.376 . S
C197 C196 1.392 . S
C197 H209 0.929 . S
C198 C194 1.531 . S
C198 H210 0.960 . S
C198 H211 0.962 . S
C198 H212 0.960 . S
C199 C196 1.511 . S
C199 H213 0.961 . S
C199 H214 0.962 1_565 S
C199 H215 0.961 . S
C200 C201 1.370 . S
C200 C202 1.363 . S
C200 H216 0.931 . S
C201 C200 1.370 . S
C201 C205 1.408 . S
C202 C200 1.363 . S
C202 C203 1.370 . S
C202 C206 1.524 . S
C203 C195 1.503 . S
C203 C202 1.370 . S
C203 C204 1.403 . S
C204 C203 1.403 . S
C204 C205 1.404 . S
C204 C207 1.539 . S
C205 C201 1.408 . S
C205 C204 1.404 . S
C205 H217 0.930 . S
C206 C202 1.524 . S
C206 H218 0.956 . S
C206 H219 0.977 . S
C206 H220 0.961 . S
C207 C204 1.539 . S
C207 H221 0.958 . S
C207 H222 0.961 . S
C207 H223 0.960 . S
H208 C192 0.931 . S
H209 C197 0.929 . S
H210 C198 0.960 . S
H211 C198 0.962 . S
H212 C198 0.960 . S
H213 C199 0.961 . S
H214 C199 0.962 1_545 S
H215 C199 0.961 . S
H216 C200 0.931 . S
H217 C205 0.930 . S
H218 C206 0.956 . S
H219 C206 0.977 . S
H220 C206 0.961 . S
H221 C207 0.958 . S
H222 C207 0.961 . S
H223 C207 0.960 . S
C224 C225 1.391 . S
C224 C226 1.394 . S
C224 H240 0.931 . S
C225 C224 1.391 . S
C225 C229 1.376 . S
C226 C224 1.394 . S
C226 C227 1.369 . S
C226 C230 1.531 . S
C227 C226 1.369 . S
C227 C228 1.410 . S
C227 C235 1.503 . S
C228 C227 1.410 . S
C228 C229 1.392 . S
C228 C231 1.511 . S
C229 C225 1.376 . S
C229 C228 1.392 . S
C229 H241 0.929 . S
C230 C226 1.531 . S
C230 H242 0.960 . S
C230 H243 0.962 . S
C230 H244 0.960 . S
C231 C228 1.511 . S
C231 H245 0.961 . S
C231 H246 0.961 . S
C231 H247 0.961 . S
C232 C233 1.370 . S
C232 C234 1.363 . S
C232 H248 0.931 . S
C233 C232 1.370 . S
C233 C237 1.408 . S
C234 C232 1.363 . S
C234 C235 1.370 . S
C234 C238 1.524 . S
C235 C227 1.503 . S
C235 C234 1.370 . S
C235 C236 1.403 . S
C236 C235 1.403 . S
C236 C237 1.404 . S
C236 C239 1.539 . S
C237 C233 1.408 . S
C237 C236 1.404 . S
C237 H249 0.930 . S
C238 C234 1.524 . S
C238 H250 0.956 . S
C238 H251 0.961 . S
C238 H252 0.961 . S
C239 C236 1.539 . S
C239 H253 0.958 . S
C239 H254 0.961 . S
C239 H255 0.960 . S
H240 C224 0.931 . S
H241 C229 0.929 . S
H242 C230 0.960 . S
H243 C230 0.962 . S
H244 C230 0.960 . S
H245 C231 0.961 . S
H246 C231 0.961 . S
H247 C231 0.961 . S
H248 C232 0.931 . S
H249 C237 0.930 . S
H250 C238 0.956 . S
H251 C238 0.961 . S
H252 C238 0.961 . S
H253 C239 0.958 . S
H254 C239 0.961 . S
H255 C239 0.960 . S
C256 C257 1.391 . S
C256 C258 1.394 1_545 S
C256 H272 0.931 . S
C257 C256 1.391 . S
C257 C261 1.376 . S
C258 C256 1.394 1_565 S
C258 C259 1.369 . S
C258 C262 1.531 . S
C259 C258 1.369 . S
C259 C260 1.410 . S
C259 C267 1.503 . S
C260 C259 1.410 . S
C260 C261 1.392 1_565 S
C260 C263 1.511 . S
C261 C257 1.376 . S
C261 C260 1.392 1_545 S
C261 H273 0.929 . S
C262 C258 1.531 . S
C262 H274 0.960 . S
C262 H275 0.962 . S
C262 H276 0.940 1_565 S
C263 C260 1.511 . S
C263 H277 0.961 . S
C263 H278 0.961 . S
C263 H279 0.961 . S
C264 C265 1.370 . S
C264 C266 1.363 . S
C264 H280 0.931 . S
C265 C264 1.370 . S
C265 C269 1.408 . S
C266 C264 1.363 . S
C266 C267 1.370 . S
C266 C270 1.524 . S
C267 C259 1.503 . S
C267 C266 1.370 . S
C267 C268 1.403 . S
C268 C267 1.403 . S
C268 C269 1.404 . S
C268 C271 1.539 . S
C269 C265 1.408 . S
C269 C268 1.404 . S
C269 H281 0.930 . S
C270 C266 1.524 . S
C270 H282 0.956 . S
C270 H283 0.961 . S
C270 H284 0.961 . S
C271 C268 1.539 . S
C271 H285 0.958 . S
C271 H286 0.961 . S
C271 H287 0.960 . S
H272 C256 0.931 . S
H273 C261 0.929 . S
H274 C262 0.960 . S
H275 C262 0.962 . S
H276 C262 0.940 1_545 S
H277 C263 0.961 . S
H278 C263 0.961 . S
H279 C263 0.961 . S
H280 C264 0.931 . S
H281 C269 0.930 . S
H282 C270 0.956 . S
H283 C270 0.961 . S
H284 C270 0.961 . S
H285 C271 0.958 . S
H286 C271 0.961 . S
H287 C271 0.960 . S
C288 C289 1.391 . S
C288 C290 1.394 . S
C288 H304 0.931 . S
C289 C288 1.391 . S
C289 C293 1.376 . S
C290 C288 1.394 . S
C290 C291 1.369 . S
C290 C294 1.531 . S
C291 C290 1.369 . S
C291 C292 1.410 . S
C291 C299 1.503 . S
C292 C291 1.410 . S
C292 C293 1.392 . S
C292 C295 1.511 . S
C293 C289 1.376 . S
C293 C292 1.392 . S
C293 H305 0.929 . S
C294 C290 1.531 . S
C294 H306 0.960 . S
C294 H307 0.962 . S
C294 H308 0.960 . S
C295 C292 1.511 . S
C295 H309 0.961 . S
C295 H310 0.961 . S
C295 H311 0.961 . S
C296 C297 1.370 . S
C296 C298 1.363 . S
C296 H312 0.931 . S
C297 C296 1.370 . S
C297 C301 1.408 . S
C298 C296 1.363 . S
C298 C299 1.370 . S
C298 C302 1.524 . S
C299 C291 1.503 . S
C299 C298 1.370 . S
C299 C300 1.403 . S
C300 C299 1.403 . S
C300 C301 1.404 . S
C300 C303 1.539 . S
C301 C297 1.408 . S
C301 C300 1.404 . S
C301 H313 0.930 . S
C302 C298 1.524 . S
C302 H314 0.956 . S
C302 H315 0.961 . S
C302 H316 0.961 . S
C303 C300 1.539 . S
C303 H317 0.958 . S
C303 H318 0.961 . S
C303 H319 0.960 . S
H304 C288 0.931 . S
H305 C293 0.929 . S
H306 C294 0.960 . S
H307 C294 0.962 . S
H308 C294 0.960 . S
H309 C295 0.961 . S
H310 C295 0.961 . S
H311 C295 0.961 . S
H312 C296 0.931 . S
H313 C301 0.930 . S
H314 C302 0.956 . S
H315 C302 0.961 . S
H316 C302 0.961 . S
H317 C303 0.958 . S
H318 C303 0.961 . S
H319 C303 0.960 . S
C320 C321 1.391 . S
C320 C322 1.394 . S
C320 H336 0.931 . S
C321 C320 1.391 . S
C321 C325 1.376 . S
C322 C320 1.394 . S
C322 C323 1.369 . S
C322 C326 1.531 . S
C323 C322 1.369 . S
C323 C324 1.410 . S
C323 C331 1.503 . S
C324 C323 1.410 . S
C324 C325 1.392 . S
C324 C327 1.511 . S
C325 C321 1.376 . S
C325 C324 1.392 . S
C325 H337 0.929 . S
C326 C322 1.531 . S
C326 H338 0.960 . S
C326 H339 0.962 . S
C326 H340 0.960 . S
C327 C324 1.511 . S
C327 H341 0.961 . S
C327 H342 0.961 . S
C327 H343 0.961 . S
C328 C329 1.370 . S
C328 C330 1.363 . S
C328 H344 0.931 . S
C329 C328 1.370 . S
C329 C333 1.408 . S
C330 C328 1.363 . S
C330 C331 1.370 . S
C330 C334 1.524 . S
C331 C323 1.503 . S
C331 C330 1.370 . S
C331 C332 1.403 . S
C332 C331 1.403 . S
C332 C333 1.404 . S
C332 C335 1.539 . S
C333 C329 1.408 . S
C333 C332 1.404 . S
C333 H345 0.930 . S
C334 C330 1.524 . S
C334 H346 0.956 . S
C334 H347 0.961 . S
C334 H348 0.961 . S
C335 C332 1.539 . S
C335 H349 0.958 . S
C335 H350 0.961 . S
C335 H351 0.960 . S
H336 C320 0.931 . S
H337 C325 0.929 . S
H338 C326 0.960 . S
H339 C326 0.962 . S
H340 C326 0.960 . S
H341 C327 0.961 . S
H342 C327 0.961 . S
H343 C327 0.961 . S
H344 C328 0.931 . S
H345 C333 0.930 . S
H346 C334 0.956 . S
H347 C334 0.961 . S
H348 C334 0.961 . S
H349 C335 0.958 . S
H350 C335 0.961 . S
H351 C335 0.960 . S
C352 C353 1.391 . S
C352 C354 1.394 1_655 S
C352 H368 0.931 . S
C353 C352 1.391 . S
C353 C357 1.376 1_655 S
C354 C352 1.394 1_455 S
C354 C355 1.369 . S
C354 C358 1.531 . S
C355 C354 1.369 . S
C355 C356 1.410 . S
C355 C363 1.503 . S
C356 C355 1.410 . S
C356 C357 1.392 . S
C356 C359 1.511 . S
C357 C353 1.376 1_455 S
C357 C356 1.392 . S
C357 H369 0.929 1_455 S
C358 C354 1.531 . S
C358 H370 0.960 . S
C358 H371 0.962 . S
C358 H372 0.960 1_455 S
C359 C356 1.511 . S
C359 H373 0.961 1_556 S
C359 H374 0.961 . S
C359 H375 0.961 . S
C360 C361 1.370 . S
C360 C362 1.363 . S
C360 H376 0.931 . S
C361 C360 1.370 . S
C361 C365 1.408 . S
C362 C360 1.363 . S
C362 C363 1.370 . S
C362 C366 1.524 . S
C363 C355 1.503 . S
C363 C362 1.370 . S
C363 C364 1.403 . S
C364 C363 1.403 . S
C364 C365 1.404 . S
C364 C367 1.539 . S
C365 C361 1.408 . S
C365 C364 1.404 . S
C365 H377 0.930 . S
C366 C362 1.524 . S
C366 H378 0.956 . S
C366 H379 0.961 . S
C366 H380 0.961 . S
C367 C364 1.539 . S
C367 H381 0.958 . S
C367 H382 0.961 . S
C367 H383 0.960 . S
H368 C352 0.931 . S
H369 C357 0.929 1_655 S
H370 C358 0.960 . S
H371 C358 0.962 . S
H372 C358 0.960 1_655 S
H373 C359 0.961 1_554 S
H374 C359 0.961 . S
H375 C359 0.961 . S
H376 C360 0.931 . S
H377 C365 0.930 . S
H378 C366 0.956 . S
H379 C366 0.961 . S
H380 C366 0.961 . S
H381 C367 0.958 . S
H382 C367 0.961 . S
H383 C367 0.960 . S
C384 C385 1.391 . S
C384 C386 1.394 . S
C384 H400 0.931 . S
C385 C384 1.391 . S
C385 C389 1.376 . S
C386 C384 1.394 . S
C386 C387 1.369 . S
C386 C390 1.531 . S
C387 C386 1.369 . S
C387 C388 1.410 . S
C387 C395 1.503 . S
C388 C387 1.410 . S
C388 C389 1.392 . S
C388 C391 1.511 . S
C389 C385 1.376 . S
C389 C388 1.392 . S
C389 H401 0.929 . S
C390 C386 1.531 . S
C390 H402 0.960 . S
C390 H403 0.962 . S
C390 H404 0.960 . S
C391 C388 1.511 . S
C391 H405 0.961 . S
C391 H406 0.961 . S
C391 H407 0.961 . S
C392 C393 1.370 . S
C392 C394 1.363 . S
C392 H408 0.931 . S
C393 C392 1.370 . S
C393 C397 1.408 . S
C394 C392 1.363 . S
C394 C395 1.370 . S
C394 C398 1.524 . S
C395 C387 1.503 . S
C395 C394 1.370 . S
C395 C396 1.403 . S
C396 C395 1.403 . S
C396 C397 1.404 . S
C396 C399 1.539 . S
C397 C393 1.408 . S
C397 C396 1.404 . S
C397 H409 0.930 . S
C398 C394 1.524 . S
C398 H410 0.956 . S
C398 H411 0.961 . S
C398 H412 0.961 . S
C399 C396 1.539 . S
C399 H413 0.958 . S
C399 H414 0.961 . S
C399 H415 0.960 . S
H400 C384 0.931 . S
H401 C389 0.929 . S
H402 C390 0.960 . S
H403 C390 0.962 . S
H404 C390 0.960 . S
H405 C391 0.961 . S
H406 C391 0.961 . S
H407 C391 0.961 . S
H408 C392 0.931 . S
H409 C397 0.930 . S
H410 C398 0.956 . S
H411 C398 0.961 . S
H412 C398 0.961 . S
H413 C399 0.958 . S
H414 C399 0.961 . S
H415 C399 0.960 . S
C416 C417 1.391 . S
C416 C418 1.385 1_455 S
C416 H432 0.931 . S
C417 C416 1.391 . S
C417 C421 1.376 . S
C418 C416 1.385 1_655 S
C418 C419 1.370 . S
C418 C422 1.538 . S
C419 C418 1.370 . S
C419 C420 1.410 1_655 S
C419 C427 1.503 . S
C420 C419 1.410 1_455 S
C420 C421 1.392 . S
C420 C423 1.511 . S
C421 C417 1.376 . S
C421 C420 1.392 . S
C421 H433 0.929 . S
C422 C418 1.538 . S
C422 H434 0.960 . S
C422 H435 0.962 . S
C422 H436 0.960 . S
C423 C420 1.511 . S
C423 H437 0.961 . S
C423 H438 0.961 . S
C423 H439 0.961 1_455 S
C424 C425 1.370 . S
C424 C426 1.363 . S
C424 H440 0.931 . S
C425 C424 1.370 . S
C425 C429 1.408 . S
C426 C424 1.363 . S
C426 C427 1.370 . S
C426 C430 1.524 1_655 S
C427 C419 1.503 . S
C427 C426 1.370 . S
C427 C428 1.403 . S
C428 C427 1.403 . S
C428 C429 1.404 . S
C428 C431 1.539 . S
C429 C425 1.408 . S
C429 C428 1.404 . S
C429 H441 0.930 . S
C430 C426 1.524 1_455 S
C430 H442 0.956 . S
C430 H443 0.961 . S
C430 H444 0.961 . S
C431 C428 1.539 . S
C431 H445 0.958 . S
C431 H446 0.961 . S
C431 H447 0.960 . S
H432 C416 0.931 . S
H433 C421 0.929 . S
H434 C422 0.960 . S
H435 C422 0.962 . S
H436 C422 0.960 . S
H437 C423 0.961 . S
H438 C423 0.961 . S
H439 C423 0.961 1_655 S
H440 C424 0.931 . S
H441 C429 0.930 . S
H442 C430 0.956 . S
H443 C430 0.961 . S
H444 C430 0.961 . S
H445 C431 0.958 . S
H446 C431 0.961 . S
H447 C431 0.960 . S
C448 C449 1.391 . S
C448 C450 1.394 1_545 S
C448 H464 0.931 . S
C449 C448 1.391 . S
C449 C453 1.376 . S
C450 C448 1.394 1_565 S
C450 C451 1.369 . S
C450 C454 1.531 . S
C451 C450 1.369 . S
C451 C452 1.410 1_565 S
C451 C459 1.503 . S
C452 C451 1.410 1_545 S
C452 C453 1.392 . S
C452 C455 1.511 . S
C453 C449 1.376 . S
C453 C452 1.392 . S
C453 H465 0.929 . S
C454 C450 1.531 . S
C454 H466 0.960 . S
C454 H467 0.962 . S
C454 H468 0.960 . S
C455 C452 1.511 . S
C455 H469 0.961 . S
C455 H470 0.961 1_545 S
C455 H471 0.961 1_545 S
C456 C457 1.370 . S
C456 C458 1.363 . S
C456 H472 0.931 . S
C457 C456 1.370 . S
C457 C461 1.408 . S
C458 C456 1.363 . S
C458 C459 1.370 . S
C458 C462 1.524 . S
C459 C451 1.503 . S
C459 C458 1.370 . S
C459 C460 1.403 . S
C460 C459 1.403 . S
C460 C461 1.404 . S
C460 C463 1.539 . S
C461 C457 1.408 . S
C461 C460 1.404 . S
C461 H473 0.930 . S
C462 C458 1.524 . S
C462 H474 0.956 . S
C462 H475 0.961 1_565 S
C462 H476 0.961 . S
C463 C460 1.539 . S
C463 H477 0.958 . S
C463 H478 0.961 . S
C463 H479 0.960 . S
H464 C448 0.931 . S
H465 C453 0.929 . S
H466 C454 0.960 . S
H467 C454 0.962 . S
H468 C454 0.960 . S
H469 C455 0.961 . S
H470 C455 0.961 1_565 S
H471 C455 0.961 1_565 S
H472 C456 0.931 . S
H473 C461 0.930 . S
H474 C462 0.956 . S
H475 C462 0.961 1_545 S
H476 C462 0.961 . S
H477 C463 0.958 . S
H478 C463 0.961 . S
H479 C463 0.960 . S
C480 C481 1.391 . S
C480 C482 1.394 . S
C480 H496 0.931 . S
C481 C480 1.391 . S
C481 C485 1.376 . S
C482 C480 1.394 . S
C482 C483 1.369 . S
C482 C486 1.531 . S
C483 C482 1.369 . S
C483 C484 1.410 . S
C483 C491 1.503 . S
C484 C483 1.410 . S
C484 C485 1.392 . S
C484 C487 1.511 . S
C485 C481 1.376 . S
C485 C484 1.392 . S
C485 H497 0.929 . S
C486 C482 1.531 . S
C486 H498 0.960 . S
C486 H499 0.962 . S
C486 H500 0.960 . S
C487 C484 1.511 . S
C487 H501 0.961 . S
C487 H502 0.961 . S
C487 H503 0.961 . S
C488 C489 1.370 . S
C488 C490 1.363 . S
C488 H504 0.931 . S
C489 C488 1.370 . S
C489 C493 1.408 . S
C490 C488 1.363 . S
C490 C491 1.370 . S
C490 C494 1.524 . S
C491 C483 1.503 . S
C491 C490 1.370 . S
C491 C492 1.403 . S
C492 C491 1.403 . S
C492 C493 1.404 . S
C492 C495 1.539 . S
C493 C489 1.408 . S
C493 C492 1.404 . S
C493 H505 0.930 . S
C494 C490 1.524 . S
C494 H506 0.956 . S
C494 H507 0.961 . S
C494 H508 0.961 . S
C495 C492 1.539 . S
C495 H509 0.958 . S
C495 H510 0.961 . S
C495 H511 0.960 . S
H496 C480 0.931 . S
H497 C485 0.929 . S
H498 C486 0.960 . S
H499 C486 0.962 . S
H500 C486 0.960 . S
H501 C487 0.961 . S
H502 C487 0.961 . S
H503 C487 0.961 . S
H504 C488 0.931 . S
H505 C493 0.930 . S
H506 C494 0.956 . S
H507 C494 0.961 . S
H508 C494 0.961 . S
H509 C495 0.958 . S
H510 C495 0.961 . S
H511 C495 0.960 . S
C512 C513 1.391 . S
C512 C514 1.394 . S
C512 H528 0.931 . S
C513 C512 1.391 . S
C513 C517 1.376 . S
C514 C512 1.394 . S
C514 C515 1.369 1_565 S
C514 C518 1.531 . S
C515 C514 1.369 1_545 S
C515 C516 1.410 . S
C515 C523 1.503 . S
C516 C515 1.410 . S
C516 C517 1.392 1_545 S
C516 C519 1.511 . S
C517 C513 1.376 . S
C517 C516 1.392 1_565 S
C517 H529 0.929 1_556 S
C518 C514 1.531 . S
C518 H530 0.960 1_565 S
C518 H531 0.962 . S
C518 H532 0.960 . S
C519 C516 1.511 . S
C519 H533 0.961 1_556 S
C519 H534 0.961 . S
C519 H535 0.961 1_556 S
C520 C521 1.370 . S
C520 C522 1.363 . S
C520 H536 0.931 . S
C521 C520 1.370 . S
C521 C525 1.408 . S
C522 C520 1.363 . S
C522 C523 1.370 . S
C522 C526 1.524 . S
C523 C515 1.503 . S
C523 C522 1.370 . S
C523 C524 1.403 . S
C524 C523 1.403 . S
C524 C525 1.404 . S
C524 C527 1.539 . S
C525 C521 1.408 . S
C525 C524 1.404 . S
C525 H537 0.930 . S
C526 C522 1.524 . S
C526 H538 0.956 . S
C526 H539 0.961 . S
C526 H540 0.961 . S
C527 C524 1.539 . S
C527 H541 0.958 . S
C527 H542 0.961 . S
C527 H543 0.960 . S
H528 C512 0.931 . S
H529 C517 0.929 1_554 S
H530 C518 0.960 1_545 S
H531 C518 0.962 . S
H532 C518 0.960 . S
H533 C519 0.961 1_554 S
H534 C519 0.961 . S
H535 C519 0.961 1_554 S
H536 C520 0.931 . S
H537 C525 0.930 . S
H538 C526 0.956 . S
H539 C526 0.961 . S
H540 C526 0.961 . S
H541 C527 0.958 . S
H542 C527 0.961 . S
H543 C527 0.960 . S
C544 C545 1.391 . S
C544 C546 1.394 . S
C544 H560 0.931 . S
C545 C544 1.391 . S
C545 C549 1.376 . S
C546 C544 1.394 . S
C546 C547 1.369 . S
C546 C550 1.531 . S
C547 C546 1.369 . S
C547 C548 1.410 . S
C547 C555 1.503 . S
C548 C547 1.410 . S
C548 C549 1.392 . S
C548 C551 1.511 . S
C549 C545 1.376 . S
C549 C548 1.392 . S
C549 H561 0.929 . S
C550 C546 1.531 . S
C550 H562 0.960 . S
C550 H563 0.962 . S
C550 H564 0.960 . S
C551 C548 1.511 . S
C551 H565 0.961 . S
C551 H566 0.961 . S
C551 H567 0.961 . S
C552 C553 1.370 . S
C552 C554 1.363 . S
C552 H568 0.931 . S
C553 C552 1.370 . S
C553 C557 1.408 . S
C554 C552 1.363 . S
C554 C555 1.370 . S
C554 C558 1.524 . S
C555 C547 1.503 . S
C555 C554 1.370 . S
C555 C556 1.403 . S
C556 C555 1.403 . S
C556 C557 1.404 . S
C556 C559 1.539 . S
C557 C553 1.408 . S
C557 C556 1.404 . S
C557 H569 0.930 . S
C558 C554 1.524 . S
C558 H570 0.956 . S
C558 H571 0.961 . S
C558 H572 0.961 . S
C559 C556 1.539 . S
C559 H573 0.958 . S
C559 H574 0.961 . S
C559 H575 0.960 . S
H560 C544 0.931 . S
H561 C549 0.929 . S
H562 C550 0.960 . S
H563 C550 0.962 . S
H564 C550 0.960 . S
H565 C551 0.961 . S
H566 C551 0.961 . S
H567 C551 0.961 . S
H568 C552 0.931 . S
H569 C557 0.930 . S
H570 C558 0.956 . S
H571 C558 0.961 . S
H572 C558 0.961 . S
H573 C559 0.958 . S
H574 C559 0.961 . S
H575 C559 0.960 . S
C576 C577 1.391 . S
C576 C578 1.394 . S
C576 H592 0.931 . S
C577 C576 1.391 . S
C577 C581 1.376 . S
C578 C576 1.394 . S
C578 C579 1.369 . S
C578 C582 1.531 . S
C579 C578 1.369 . S
C579 C580 1.410 . S
C579 C587 1.503 . S
C580 C579 1.410 . S
C580 C581 1.392 . S
C580 C583 1.511 . S
C581 C577 1.376 . S
C581 C580 1.392 . S
C581 H593 0.929 . S
C582 C578 1.531 . S
C582 H594 0.960 . S
C582 H595 0.962 . S
C582 H596 0.960 . S
C583 C580 1.511 . S
C583 H597 0.961 . S
C583 H598 0.961 . S
C583 H599 0.961 . S
C584 C585 1.370 . S
C584 C586 1.363 . S
C584 H600 0.931 . S
C585 C584 1.370 . S
C585 C589 1.408 . S
C586 C584 1.363 . S
C586 C587 1.370 . S
C586 C590 1.524 . S
C587 C579 1.503 . S
C587 C586 1.370 . S
C587 C588 1.403 . S
C588 C587 1.403 . S
C588 C589 1.404 . S
C588 C591 1.539 . S
C589 C585 1.408 . S
C589 C588 1.404 . S
C589 H601 0.930 . S
C590 C586 1.524 . S
C590 H602 0.956 . S
C590 H603 0.961 . S
C590 H604 0.961 . S
C591 C588 1.539 . S
C591 H605 0.958 . S
C591 H606 0.961 . S
C591 H607 0.960 . S
H592 C576 0.931 . S
H593 C581 0.929 . S
H594 C582 0.960 . S
H595 C582 0.962 . S
H596 C582 0.960 . S
H597 C583 0.961 . S
H598 C583 0.961 . S
H599 C583 0.961 . S
H600 C584 0.931 . S
H601 C589 0.930 . S
H602 C590 0.956 . S
H603 C590 0.961 . S
H604 C590 0.961 . S
H605 C591 0.958 . S
H606 C591 0.961 . S
H607 C591 0.960 . S
C608 C609 1.391 . S
C608 C610 1.394 1_455 S
C608 H624 0.931 . S
C609 C608 1.391 . S
C609 C613 1.376 1_455 S
C610 C608 1.394 1_655 S
C610 C611 1.369 . S
C610 C614 1.531 . S
C611 C610 1.369 . S
C611 C612 1.410 . S
C611 C619 1.503 . S
C612 C611 1.410 . S
C612 C613 1.392 . S
C612 C615 1.511 . S
C613 C609 1.376 1_655 S
C613 C612 1.392 . S
C613 H625 0.929 1_655 S
C614 C610 1.531 . S
C614 H626 0.960 . S
C614 H627 0.962 . S
C614 H628 0.960 . S
C615 C612 1.511 . S
C615 H629 0.961 . S
C615 H630 0.961 . S
C615 H631 0.961 . S
C616 C617 1.370 . S
C616 C618 1.363 . S
C616 H632 0.931 . S
C617 C616 1.370 . S
C617 C621 1.408 . S
C618 C616 1.363 . S
C618 C619 1.370 . S
C618 C622 1.524 . S
C619 C611 1.503 . S
C619 C618 1.370 . S
C619 C620 1.403 . S
C620 C619 1.403 . S
C620 C621 1.404 . S
C620 C623 1.539 . S
C621 C617 1.408 . S
C621 C620 1.404 . S
C621 H633 0.930 . S
C622 C618 1.524 . S
C622 H634 0.956 . S
C622 H635 0.961 . S
C622 H636 0.961 . S
C623 C620 1.539 . S
C623 H637 0.958 . S
C623 H638 0.961 . S
C623 H639 0.960 . S
H624 C608 0.931 . S
H625 C613 0.929 1_455 S
H626 C614 0.960 . S
H627 C614 0.962 . S
H628 C614 0.960 . S
H629 C615 0.961 . S
H630 C615 0.961 . S
H631 C615 0.961 . S
H632 C616 0.931 . S
H633 C621 0.930 . S
H634 C622 0.956 . S
H635 C622 0.961 . S
H636 C622 0.961 . S
H637 C623 0.958 . S
H638 C623 0.961 . S
H639 C623 0.960 . S
C640 C641 1.391 . S
C640 C642 1.394 . S
C640 H656 0.931 . S
C641 C640 1.391 . S
C641 C645 1.376 . S
C642 C640 1.394 . S
C642 C643 1.369 . S
C642 C646 1.531 . S
C643 C642 1.369 . S
C643 C644 1.410 . S
C643 C651 1.503 . S
C644 C643 1.410 . S
C644 C645 1.392 . S
C644 C647 1.511 . S
C645 C641 1.376 . S
C645 C644 1.392 . S
C645 H657 0.929 . S
C646 C642 1.531 . S
C646 H658 0.960 . S
C646 H659 0.962 . S
C646 H660 0.960 . S
C647 C644 1.511 . S
C647 H661 0.961 . S
C647 H662 0.961 . S
C647 H663 0.961 . S
C648 C649 1.370 . S
C648 C650 1.363 . S
C648 H664 0.931 . S
C649 C648 1.370 . S
C649 C653 1.408 . S
C650 C648 1.363 . S
C650 C651 1.370 . S
C650 C654 1.524 . S
C651 C643 1.503 . S
C651 C650 1.370 . S
C651 C652 1.403 . S
C652 C651 1.403 . S
C652 C653 1.404 . S
C652 C655 1.539 . S
C653 C649 1.408 . S
C653 C652 1.404 . S
C653 H665 0.930 . S
C654 C650 1.524 . S
C654 H666 0.956 . S
C654 H667 0.961 . S
C654 H668 0.961 . S
C655 C652 1.539 . S
C655 H669 0.958 . S
C655 H670 0.961 . S
C655 H671 0.960 . S
H656 C640 0.931 . S
H657 C645 0.929 . S
H658 C646 0.960 . S
H659 C646 0.962 . S
H660 C646 0.960 . S
H661 C647 0.961 . S
H662 C647 0.961 . S
H663 C647 0.961 . S
H664 C648 0.931 . S
H665 C653 0.930 . S
H666 C654 0.956 . S
H667 C654 0.961 . S
H668 C654 0.961 . S
H669 C655 0.958 . S
H670 C655 0.961 . S
H671 C655 0.960 . S
C672 C673 1.391 . S
C672 C674 1.394 1_655 S
C672 H688 0.931 . S
C673 C672 1.391 . S
C673 C677 1.376 . S
C674 C672 1.394 1_455 S
C674 C675 1.375 . S
C674 C678 1.531 . S
C675 C674 1.375 . S
C675 C676 1.386 1_455 S
C675 C683 1.520 . S
C676 C675 1.386 1_655 S
C676 C677 1.392 . S
C676 C679 1.511 . S
C677 C673 1.376 . S
C677 C676 1.392 . S
C677 H689 0.929 . S
C678 C674 1.531 . S
C678 H690 0.960 . S
C678 H691 0.962 . S
C678 H692 0.960 . S
C679 C676 1.511 . S
C679 H693 0.961 . S
C679 H694 0.961 . S
C679 H695 0.961 . S
C680 C681 1.370 . S
C680 C682 1.363 . S
C680 H696 0.931 . S
C681 C680 1.370 . S
C681 C685 1.408 . S
C682 C680 1.363 . S
C682 C683 1.370 . S
C682 C686 1.524 . S
C683 C675 1.520 . S
C683 C682 1.370 . S
C683 C684 1.403 . S
C684 C683 1.403 . S
C684 C685 1.404 . S
C684 C687 1.539 . S
C685 C681 1.408 . S
C685 C684 1.404 . S
C685 H697 0.930 . S
C686 C682 1.524 . S
C686 H698 0.956 . S
C686 H699 0.961 1_455 S
C686 H700 0.961 . S
C687 C684 1.539 . S
C687 H701 0.958 . S
C687 H702 0.961 . S
C687 H703 0.960 . S
H688 C672 0.931 . S
H689 C677 0.929 . S
H690 C678 0.960 . S
H691 C678 0.962 . S
H692 C678 0.960 . S
H693 C679 0.961 . S
H694 C679 0.961 . S
H695 C679 0.961 . S
H696 C680 0.931 . S
H697 C685 0.930 . S
H698 C686 0.956 . S
H699 C686 0.961 1_655 S
H700 C686 0.961 . S
H701 C687 0.958 . S
H702 C687 0.961 . S
H703 C687 0.960 . S
C704 C705 1.391 . S
C704 C706 1.394 . S
C704 H720 0.931 . S
C705 C704 1.391 . S
C705 C709 1.376 . S
C706 C704 1.394 . S
C706 C707 1.369 . S
C706 C710 1.531 . S
C707 C706 1.369 . S
C707 C708 1.410 . S
C707 C715 1.503 . S
C708 C707 1.410 . S
C708 C709 1.392 . S
C708 C711 1.511 . S
C709 C705 1.376 . S
C709 C708 1.392 . S
C709 H721 0.929 . S
C710 C706 1.531 . S
C710 H722 0.960 . S
C710 H723 0.962 . S
C710 H724 0.960 . S
C711 C708 1.511 . S
C711 H725 0.961 . S
C711 H726 0.961 . S
C711 H727 0.961 . S
C712 C713 1.370 . S
C712 C714 1.363 . S
C712 H728 0.931 . S
C713 C712 1.370 . S
C713 C717 1.408 . S
C714 C712 1.363 . S
C714 C715 1.370 . S
C714 C718 1.524 . S
C715 C707 1.503 . S
C715 C714 1.370 . S
C715 C716 1.403 . S
C716 C715 1.403 . S
C716 C717 1.404 . S
C716 C719 1.539 . S
C717 C713 1.408 . S
C717 C716 1.404 . S
C717 H729 0.930 . S
C718 C714 1.524 . S
C718 H730 0.956 . S
C718 H731 0.961 . S
C718 H732 0.961 . S
C719 C716 1.539 . S
C719 H733 0.958 . S
C719 H734 0.961 . S
C719 H735 0.960 . S
H720 C704 0.931 . S
H721 C709 0.929 . S
H722 C710 0.960 . S
H723 C710 0.962 . S
H724 C710 0.960 . S
H725 C711 0.961 . S
H726 C711 0.961 . S
H727 C711 0.961 . S
H728 C712 0.931 . S
H729 C717 0.930 . S
H730 C718 0.956 . S
H731 C718 0.961 . S
H732 C718 0.961 . S
H733 C719 0.958 . S
H734 C719 0.961 . S
H735 C719 0.960 . S
C736 C737 1.391 . S
C736 C738 1.394 . S
C736 H752 0.931 . S
C737 C736 1.391 . S
C737 C741 1.376 . S
C738 C736 1.394 . S
C738 C739 1.369 . S
C738 C742 1.531 . S
C739 C738 1.369 . S
C739 C740 1.410 . S
C739 C747 1.503 . S
C740 C739 1.410 . S
C740 C741 1.392 . S
C740 C743 1.511 . S
C741 C737 1.376 . S
C741 C740 1.392 . S
C741 H753 0.929 . S
C742 C738 1.531 . S
C742 H754 0.960 . S
C742 H755 0.962 . S
C742 H756 0.960 . S
C743 C740 1.511 . S
C743 H757 0.961 . S
C743 H758 0.961 . S
C743 H759 0.961 . S
C744 C745 1.370 . S
C744 C746 1.363 . S
C744 H760 0.931 . S
C745 C744 1.370 . S
C745 C749 1.408 . S
C746 C744 1.363 . S
C746 C747 1.370 . S
C746 C750 1.524 . S
C747 C739 1.503 . S
C747 C746 1.370 . S
C747 C748 1.403 . S
C748 C747 1.403 . S
C748 C749 1.404 . S
C748 C751 1.539 . S
C749 C745 1.408 . S
C749 C748 1.404 . S
C749 H761 0.930 . S
C750 C746 1.524 . S
C750 H762 0.956 . S
C750 H763 0.961 . S
C750 H764 0.961 . S
C751 C748 1.539 . S
C751 H765 0.958 . S
C751 H766 0.961 . S
C751 H767 0.960 . S
H752 C736 0.931 . S
H753 C741 0.929 . S
H754 C742 0.960 . S
H755 C742 0.962 . S
H756 C742 0.960 . S
H757 C743 0.961 . S
H758 C743 0.961 . S
H759 C743 0.961 . S
H760 C744 0.931 . S
H761 C749 0.930 . S
H762 C750 0.956 . S
H763 C750 0.961 . S
H764 C750 0.961 . S
H765 C751 0.958 . S
H766 C751 0.961 . S
H767 C751 0.960 . S
C768 C769 1.391 . S
C768 C770 1.394 . S
C768 H784 0.931 . S
C769 C768 1.391 . S
C769 C773 1.376 . S
C770 C768 1.394 . S
C770 C771 1.369 . S
C770 C774 1.531 . S
C771 C770 1.369 . S
C771 C772 1.410 . S
C771 C779 1.503 . S
C772 C771 1.410 . S
C772 C773 1.392 . S
C772 C775 1.511 . S
C773 C769 1.376 . S
C773 C772 1.392 . S
C773 H785 0.929 . S
C774 C770 1.531 . S
C774 H786 0.960 . S
C774 H787 0.962 . S
C774 H788 0.960 . S
C775 C772 1.511 . S
C775 H789 0.961 . S
C775 H790 0.961 . S
C775 H791 0.961 . S
C776 C777 1.370 . S
C776 C778 1.363 . S
C776 H792 0.931 . S
C777 C776 1.370 . S
C777 C781 1.408 . S
C778 C776 1.363 . S
C778 C779 1.370 . S
C778 C782 1.524 . S
C779 C771 1.503 . S
C779 C778 1.370 . S
C779 C780 1.403 . S
C780 C779 1.403 . S
C780 C781 1.404 . S
C780 C783 1.539 . S
C781 C777 1.408 . S
C781 C780 1.404 . S
C781 H793 0.930 . S
C782 C778 1.524 . S
C782 H794 0.956 . S
C782 H795 0.961 . S
C782 H796 0.961 . S
C783 C780 1.539 . S
C783 H797 0.958 . S
C783 H798 0.961 . S
C783 H799 0.960 . S
H784 C768 0.931 . S
H785 C773 0.929 . S
H786 C774 0.960 . S
H787 C774 0.962 . S
H788 C774 0.960 . S
H789 C775 0.961 . S
H790 C775 0.961 . S
H791 C775 0.961 . S
H792 C776 0.931 . S
H793 C781 0.930 . S
H794 C782 0.956 . S
H795 C782 0.961 . S
H796 C782 0.961 . S
H797 C783 0.958 . S
H798 C783 0.961 . S
H799 C783 0.960 . S
C800 C801 1.391 . S
C800 C802 1.394 . S
C800 H816 0.931 . S
C801 C800 1.391 . S
C801 C805 1.376 . S
C802 C800 1.394 . S
C802 C803 1.369 . S
C802 C806 1.531 . S
C803 C802 1.369 . S
C803 C804 1.410 . S
C803 C811 1.503 . S
C804 C803 1.410 . S
C804 C805 1.392 . S
C804 C807 1.511 . S
C805 C801 1.376 . S
C805 C804 1.392 . S
C805 H817 0.929 . S
C806 C802 1.531 . S
C806 H818 0.960 . S
C806 H819 0.962 . S
C806 H820 0.960 . S
C807 C804 1.511 . S
C807 H821 0.961 . S
C807 H822 0.961 . S
C807 H823 0.961 . S
C808 C809 1.370 . S
C808 C810 1.363 . S
C808 H824 0.931 . S
C809 C808 1.370 . S
C809 C813 1.408 . S
C810 C808 1.363 . S
C810 C811 1.370 . S
C810 C814 1.524 . S
C811 C803 1.503 . S
C811 C810 1.370 . S
C811 C812 1.403 . S
C812 C811 1.403 . S
C812 C813 1.404 . S
C812 C815 1.539 . S
C813 C809 1.408 . S
C813 C812 1.404 . S
C813 H825 0.930 . S
C814 C810 1.524 . S
C814 H826 0.956 . S
C814 H827 0.961 . S
C814 H828 0.961 . S
C815 C812 1.539 . S
C815 H829 0.958 . S
C815 H830 0.961 . S
C815 H831 0.960 . S
H816 C800 0.931 . S
H817 C805 0.929 . S
H818 C806 0.960 . S
H819 C806 0.962 . S
H820 C806 0.960 . S
H821 C807 0.961 . S
H822 C807 0.961 . S
H823 C807 0.961 . S
H824 C808 0.931 . S
H825 C813 0.930 . S
H826 C814 0.956 . S
H827 C814 0.961 . S
H828 C814 0.961 . S
H829 C815 0.958 . S
H830 C815 0.961 . S
H831 C815 0.960 . S
C832 C833 1.391 . S
C832 C834 1.394 . S
C832 H848 0.931 . S
C833 C832 1.391 . S
C833 C837 1.376 . S
C834 C832 1.394 . S
C834 C835 1.369 . S
C834 C838 1.531 . S
C835 C834 1.369 . S
C835 C836 1.410 . S
C835 C843 1.503 . S
C836 C835 1.410 . S
C836 C837 1.392 . S
C836 C839 1.511 . S
C837 C833 1.376 . S
C837 C836 1.392 . S
C837 H849 0.929 . S
C838 C834 1.531 . S
C838 H850 0.960 . S
C838 H851 0.962 . S
C838 H852 0.960 . S
C839 C836 1.511 . S
C839 H853 0.961 . S
C839 H854 0.961 . S
C839 H855 0.961 . S
C840 C841 1.370 . S
C840 C842 1.363 . S
C840 H856 0.931 . S
C841 C840 1.370 . S
C841 C845 1.408 . S
C842 C840 1.363 . S
C842 C843 1.370 . S
C842 C846 1.524 . S
C843 C835 1.503 . S
C843 C842 1.370 . S
C843 C844 1.403 . S
C844 C843 1.403 . S
C844 C845 1.404 . S
C844 C847 1.539 . S
C845 C841 1.408 . S
C845 C844 1.404 . S
C845 H857 0.930 . S
C846 C842 1.524 . S
C846 H858 0.956 . S
C846 H859 0.961 . S
C846 H860 0.961 . S
C847 C844 1.539 . S
C847 H861 0.958 . S
C847 H862 0.961 . S
C847 H863 0.960 . S
H848 C832 0.931 . S
H849 C837 0.929 . S
H850 C838 0.960 . S
H851 C838 0.962 . S
H852 C838 0.960 . S
H853 C839 0.961 . S
H854 C839 0.961 . S
H855 C839 0.961 . S
H856 C840 0.931 . S
H857 C845 0.930 . S
H858 C846 0.956 . S
H859 C846 0.961 . S
H860 C846 0.961 . S
H861 C847 0.958 . S
H862 C847 0.961 . S
H863 C847 0.960 . S
C864 C865 1.391 . S
C864 C866 1.394 . S
C864 H880 0.931 . S
C865 C864 1.391 . S
C865 C869 1.376 . S
C866 C864 1.394 . S
C866 C867 1.369 . S
C866 C870 1.531 . S
C867 C866 1.369 . S
C867 C868 1.410 . S
C867 C875 1.503 . S
C868 C867 1.410 . S
C868 C869 1.392 . S
C868 C871 1.511 . S
C869 C865 1.376 . S
C869 C868 1.392 . S
C869 H881 0.929 . S
C870 C866 1.531 . S
C870 H882 0.960 . S
C870 H883 0.962 . S
C870 H884 0.960 . S
C871 C868 1.511 . S
C871 H885 0.961 . S
C871 H886 0.961 . S
C871 H887 0.961 . S
C872 C873 1.370 . S
C872 C874 1.363 . S
C872 H888 0.931 . S
C873 C872 1.370 . S
C873 C877 1.408 . S
C874 C872 1.363 . S
C874 C875 1.370 . S
C874 C878 1.524 . S
C875 C867 1.503 . S
C875 C874 1.370 . S
C875 C876 1.403 . S
C876 C875 1.403 . S
C876 C877 1.404 . S
C876 C879 1.539 . S
C877 C873 1.408 . S
C877 C876 1.404 . S
C877 H889 0.930 . S
C878 C874 1.524 . S
C878 H890 0.956 . S
C878 H891 0.961 . S
C878 H892 0.961 . S
C879 C876 1.539 . S
C879 H893 0.958 . S
C879 H894 0.961 . S
C879 H895 0.960 . S
H880 C864 0.931 . S
H881 C869 0.929 . S
H882 C870 0.960 . S
H883 C870 0.962 . S
H884 C870 0.960 . S
H885 C871 0.961 . S
H886 C871 0.961 . S
H887 C871 0.961 . S
H888 C872 0.931 . S
H889 C877 0.930 . S
H890 C878 0.956 . S
H891 C878 0.961 . S
H892 C878 0.961 . S
H893 C879 0.958 . S
H894 C879 0.961 . S
H895 C879 0.960 . S
C896 C897 1.391 . S
C896 C898 1.394 . S
C896 H912 0.931 . S
C897 C896 1.391 . S
C897 C901 1.376 . S
C898 C896 1.394 . S
C898 C899 1.369 . S
C898 C902 1.531 . S
C899 C898 1.369 . S
C899 C900 1.410 . S
C899 C907 1.503 . S
C900 C899 1.410 . S
C900 C901 1.392 . S
C900 C903 1.511 . S
C901 C897 1.376 . S
C901 C900 1.392 . S
C901 H913 0.929 . S
C902 C898 1.531 . S
C902 H914 0.960 . S
C902 H915 0.962 . S
C902 H916 0.960 . S
C903 C900 1.511 . S
C903 H917 0.961 . S
C903 H918 0.961 . S
C903 H919 0.961 . S
C904 C905 1.370 . S
C904 C906 1.363 . S
C904 H920 0.931 . S
C905 C904 1.370 . S
C905 C909 1.408 . S
C906 C904 1.363 . S
C906 C907 1.370 . S
C906 C910 1.524 . S
C907 C899 1.503 . S
C907 C906 1.370 . S
C907 C908 1.403 . S
C908 C907 1.403 . S
C908 C909 1.404 . S
C908 C911 1.539 . S
C909 C905 1.408 . S
C909 C908 1.404 . S
C909 H921 0.930 . S
C910 C906 1.524 . S
C910 H922 0.956 . S
C910 H923 0.961 . S
C910 H924 0.961 . S
C911 C908 1.539 . S
C911 H925 0.958 . S
C911 H926 0.961 . S
C911 H927 0.960 . S
H912 C896 0.931 . S
H913 C901 0.929 . S
H914 C902 0.960 . S
H915 C902 0.962 . S
H916 C902 0.960 . S
H917 C903 0.961 . S
H918 C903 0.961 . S
H919 C903 0.961 . S
H920 C904 0.931 . S
H921 C909 0.930 . S
H922 C910 0.956 . S
H923 C910 0.961 . S
H924 C910 0.961 . S
H925 C911 0.958 . S
H926 C911 0.961 . S
H927 C911 0.960 . S
C928 C929 1.391 . S
C928 C930 1.394 . S
C928 H944 0.931 . S
C929 C928 1.391 . S
C929 C933 1.376 . S
C930 C928 1.394 . S
C930 C931 1.369 . S
C930 C934 1.531 . S
C931 C930 1.369 . S
C931 C932 1.410 . S
C931 C939 1.503 . S
C932 C931 1.410 . S
C932 C933 1.392 . S
C932 C935 1.511 . S
C933 C929 1.376 . S
C933 C932 1.392 . S
C933 H945 0.929 . S
C934 C930 1.531 . S
C934 H946 0.960 . S
C934 H947 0.962 . S
C934 H948 0.960 . S
C935 C932 1.511 . S
C935 H949 0.961 . S
C935 H950 0.961 . S
C935 H951 0.961 . S
C936 C937 1.370 . S
C936 C938 1.363 . S
C936 H952 0.931 . S
C937 C936 1.370 . S
C937 C941 1.408 . S
C938 C936 1.363 . S
C938 C939 1.370 . S
C938 C942 1.524 . S
C939 C931 1.503 . S
C939 C938 1.370 . S
C939 C940 1.403 . S
C940 C939 1.403 . S
C940 C941 1.404 . S
C940 C943 1.539 . S
C941 C937 1.408 . S
C941 C940 1.404 . S
C941 H953 0.930 . S
C942 C938 1.524 . S
C942 H954 0.956 . S
C942 H955 0.961 . S
C942 H956 0.961 . S
C943 C940 1.539 . S
C943 H957 0.958 . S
C943 H958 0.961 . S
C943 H959 0.960 . S
H944 C928 0.931 . S
H945 C933 0.929 . S
H946 C934 0.960 . S
H947 C934 0.962 . S
H948 C934 0.960 . S
H949 C935 0.961 . S
H950 C935 0.961 . S
H951 C935 0.961 . S
H952 C936 0.931 . S
H953 C941 0.930 . S
H954 C942 0.956 . S
H955 C942 0.961 . S
H956 C942 0.961 . S
H957 C943 0.958 . S
H958 C943 0.961 . S
H959 C943 0.960 . S
C193 C7 1.347 . S
C201 N93 1.372 . S
C225 C37 1.302 . S
C233 N106 1.311 . S
C257 C54 1.295 . S
C265 N115 1.291 . S
C297 N132 1.383 . S
C289 C87 1.388 . S
C329 N145 1.332 . S
C321 C30 1.327 . S
C353 C51 1.379 . S
C361 N154 1.398 . S
C385 C84 1.310 . S
C393 N167 1.323 . S
C417 C10 1.257 . S
C425 N184 1.268 . S
C449 C59 1.366 . S
C457 N180 1.396 . S
C489 N141 1.283 . S
C481 C74 1.287 . S
C521 N158 1.316 . S
C513 C18 1.298 . S
C545 C32 1.360 . S
C553 N171 1.373 . S
C585 N102 1.386 . S
C577 C73 1.377 . S
C609 C15 1.355 . S
C617 N119 1.392 . S
C649 N128 1.358 . S
C641 C43 1.331 . S
C681 N89 1.277 . S
C673 C62 1.276 . S
C713 N168 1.405 . S
C705 C21 1.406 . S
C745 N181 1.383 . S
C737 C29 1.356 . S
C769 C52 1.344 . S
C777 N142 1.354 . S
C809 N155 1.394 . S
C801 C81 1.391 . S
C841 N116 1.375 . S
C833 C40 1.369 . S
C865 C65 1.398 . S
C873 N129 1.397 . S
C905 N90 1.357 . S
C897 C76 1.348 . S
C937 N103 1.382 . S
C929 C8 1.388 . S
