# Generated by pormake.
# Topology ftw, (4,12)-cn, num edge types: 1
# Building blocks:
#     Node 0, Type 0, BuildingBlock: KUFVIS_clean_linker_0, # of connection points: 4
#     Node 1, Type 0, BuildingBlock: KUFVIS_clean_linker_0, # of connection points: 4
#     Node 2, Type 0, BuildingBlock: KUFVIS_clean_linker_0, # of connection points: 4
#     Node 3, Type 1, BuildingBlock: EZIPEK_clean_sbu_0, # of connection points: 12
#     Edge 4, Type (0, 1), BuildingBlock: EZIPEK_clean_linker_0, # of connection points: 2
#     Edge 5, Type (0, 1), BuildingBlock: EZIPEK_clean_linker_0, # of connection points: 2
#     Edge 6, Type (0, 1), BuildingBlock: EZIPEK_clean_linker_0, # of connection points: 2
#     Edge 7, Type (0, 1), BuildingBlock: EZIPEK_clean_linker_0, # of connection points: 2
#     Edge 8, Type (0, 1), BuildingBlock: EZIPEK_clean_linker_0, # of connection points: 2
#     Edge 9, Type (0, 1), BuildingBlock: EZIPEK_clean_linker_0, # of connection points: 2
#     Edge 10, Type (0, 1), BuildingBlock: EZIPEK_clean_linker_0, # of connection points: 2
#     Edge 11, Type (0, 1), BuildingBlock: EZIPEK_clean_linker_0, # of connection points: 2
#     Edge 12, Type (0, 1), BuildingBlock: EZIPEK_clean_linker_0, # of connection points: 2
#     Edge 13, Type (0, 1), BuildingBlock: EZIPEK_clean_linker_0, # of connection points: 2
#     Edge 14, Type (0, 1), BuildingBlock: EZIPEK_clean_linker_0, # of connection points: 2
#     Edge 15, Type (0, 1), BuildingBlock: EZIPEK_clean_linker_0, # of connection points: 2
# Relax obj value: 0.081
# Max RMSD: 0.235
# Mean RMSD: 0.179
data_MOF--net-ftw--node1-EZIPEK_clean_sbu_0--node2-KUFVIS_clean_linker_0--edge1-EZIPEK_clean_linker_0
_symmetry_space_group_name_H-M    P1
_symmetry_Int_Tables_number       1
_symmetry_cell_setting            triclinic
loop_
_symmetry_equiv_pos_as_xyz
'x, y, z'
_cell_length_a     18.255473
_cell_length_b     19.131845
_cell_length_c     18.443831
_cell_angle_alpha  90.129028
_cell_angle_beta   89.654435
_cell_angle_gamma 89.899841
loop_
_atom_site_label
_atom_site_type_symbol
_atom_site_fract_x
_atom_site_fract_y
_atom_site_fract_z
_atom_type_partial_charge
H0 H -0.00043 0.28851 0.51811 0.0
H1 H 0.9694 0.47929 0.63477 0.0
H2 H -0.00816 0.4798 0.40008 0.0
H3 H 0.95692 0.58457 0.40227 0.0
H4 H 0.97578 0.7771 0.51809 0.0
H5 H -0.00211 0.58584 0.63408 0.0
C6 C -0.00416 0.34509 0.51812 0.0
C7 C -0.00606 0.38092 0.45196 0.0
C8 C -0.01137 0.38118 0.5841 0.0
C9 C 0.97976 0.45414 0.58331 0.0
C10 C -0.01722 0.49278 0.51775 0.0
C11 C -0.01003 0.45429 0.45212 0.0
C12 C 0.9781 0.5721 0.51805 0.0
C13 C 0.96656 0.61044 0.45332 0.0
C14 C 0.96877 0.68399 0.45245 0.0
C15 C 0.97565 0.72041 0.51805 0.0
C16 C -0.01733 0.68426 0.58362 0.0
C17 C -0.01314 0.61098 0.58301 0.0
H18 H 0.50001 0.06309 0.77081 0.0
H19 H 0.60732 0.05858 0.56495 0.0
H20 H 0.37448 0.10212 0.58066 0.0
H21 H 0.36725 0.0576 0.47629 0.0
H22 H 0.47194 0.0553 0.26939 0.0
H23 H 0.6009 0.09549 0.4571 0.0
C24 C 0.49751 0.06977 0.7125 0.0
C25 C 0.43026 0.0805 0.67869 0.0
C26 C 0.56119 0.06509 0.67049 0.0
C27 C 0.55733 0.06799 0.59502 0.0
C28 C 0.49018 0.08087 0.56016 0.0
C29 C 0.42728 0.09037 0.60381 0.0
C30 C 0.48471 0.07869 0.47933 0.0
C31 C 0.417 0.0657 0.44552 0.0
C32 C 0.41203 0.06101 0.37022 0.0
C33 C 0.4753 0.06299 0.32757 0.0
C34 C 0.54317 0.07263 0.36031 0.0
C35 C 0.54755 0.08439 0.4349 0.0
H36 H 0.49956 0.77595 0.04565 0.0
H37 H 0.60951 0.57971 0.05591 0.0
H38 H 0.37195 0.58965 0.0415 0.0
H39 H 0.36785 0.48364 0.0692 0.0
H40 H 0.47594 0.28741 0.04443 0.0
H41 H 0.60289 0.47358 0.03029 0.0
C42 C 0.49682 0.71936 0.04794 0.0
C43 C 0.42871 0.686 0.04725 0.0
C44 C 0.56147 0.68027 0.04853 0.0
C45 C 0.55801 0.60709 0.05241 0.0
C46 C 0.48993 0.5713 0.05056 0.0
C47 C 0.42552 0.6127 0.04654 0.0
C48 C 0.48616 0.49201 0.05052 0.0
C49 C 0.41861 0.45622 0.05947 0.0
C50 C 0.41453 0.38311 0.0538 0.0
C51 C 0.47888 0.344 0.04666 0.0
C52 C 0.54684 0.37727 0.0408 0.0
C53 C 0.54987 0.45058 0.03985 0.0
C54 C -0.01285 0.20025 0.83955 0.0
C55 C 0.98082 0.19983 0.19746 0.0
C56 C -0.00559 0.86362 0.83863 0.0
C57 C 0.97705 0.8593 0.1946 0.0
C58 C 0.17543 0.87074 0.03175 0.0
C59 C 0.15916 0.20574 0.03227 0.0
C60 C 0.81722 0.85522 1.01829 0.0
C61 C 0.80048 0.19242 0.02031 0.0
C62 C 0.79878 1.03249 0.18188 0.0
C63 C 0.15348 1.03684 0.20165 0.0
C64 C 0.81899 1.03233 0.83898 0.0
C65 C 0.17174 0.04026 0.85149 0.0
Eu66 Eu 0.98103 0.16632 1.01872 0.0
O67 O 0.04379 0.09547 0.08513 0.0
O68 O 0.92323 0.09218 0.95183 0.0
Eu69 Eu 0.12361 1.03653 0.02505 0.0
Eu70 Eu 0.8516 1.02566 1.0135 0.0
O71 O 0.05198 0.09735 0.95772 0.0
O72 O 0.9179 0.0915 0.08067 0.0
Eu73 Eu -0.00578 1.03183 0.88222 0.0
Eu74 Eu 0.97998 1.0301 0.15623 0.0
O75 O 0.05877 0.97013 0.95617 0.0
O76 O 0.05087 0.97005 0.08566 0.0
O77 O 0.92378 0.96494 0.07977 0.0
O78 O 0.92964 0.96556 0.95173 0.0
Eu79 Eu -0.00575 0.89601 1.01761 0.0
O80 O 0.9759 0.22221 0.90804 0.0
O81 O 0.97507 0.22265 0.12889 0.0
O82 O -0.00071 0.84011 0.90704 0.0
O83 O 0.98153 0.83821 0.12543 0.0
O84 O 0.19157 0.93849 0.03591 0.0
O85 O 0.18229 0.13974 0.0337 0.0
O86 O 0.79362 0.92119 1.01643 0.0
O87 O 0.78433 0.12467 0.02474 0.0
O88 O 0.86642 1.0358 0.20929 0.0
O89 O 0.08385 1.02957 0.22201 0.0
O90 O 0.88893 1.0334 0.81818 0.0
O91 O 0.10422 1.03393 0.82541 0.0
O92 O 0.88725 0.83438 1.01659 0.0
O93 O 0.10781 0.84417 0.02445 0.0
O94 O 0.86831 0.21853 1.01456 0.0
O95 O 0.08949 0.22691 0.02455 0.0
O96 O -0.01435 0.13291 0.21754 0.0
O97 O 0.9787 0.92613 0.21634 0.0
O98 O 0.0006 0.1341 0.82053 0.0
O99 O -0.01047 0.93055 0.81921 0.0
O100 O 0.19024 0.0426 0.92126 0.0
O101 O 0.17853 0.04145 0.13393 0.0
O102 O 0.79403 1.02837 0.90655 0.0
O103 O 0.78166 1.02544 0.11268 0.0
C104 C 0.04648 0.34027 0.33089 0.0
C105 C -0.01145 0.34043 0.38254 0.0
C106 C 0.92564 0.24941 0.31299 0.0
C107 C 0.98073 0.25239 0.25804 0.0
N108 N 0.08635 0.31228 0.20871 0.0
N109 N 0.86333 0.31062 0.41035 0.0
C110 C 0.0386 0.30187 0.26484 0.0
C111 C 0.9252 0.29969 0.36973 0.0
N112 N 0.11044 0.37403 0.34627 0.0
N113 N 0.87424 0.19772 0.31249 0.0
H114 H 0.85991 0.34901 0.45046 0.0
H115 H 0.81318 0.28735 0.39871 0.0
H116 H 0.87084 0.16046 0.27171 0.0
H117 H 0.83856 0.18845 0.35573 0.0
H118 H 0.15771 0.36903 0.31476 0.0
H119 H 0.11822 0.40236 0.39398 0.0
H120 H 0.12456 0.35265 0.20779 0.0
H121 H 0.08412 0.28431 0.16039 0.0
C122 C 0.64309 0.12188 0.28278 0.0
C123 C 0.61063 0.06352 0.31721 0.0
C124 C 0.69746 0.98449 0.25785 0.0
C125 C 0.73565 0.04313 0.23049 0.0
N126 N 0.74383 0.16753 0.21121 0.0
N127 N 0.61133 0.94047 0.34652 0.0
C128 C 0.70826 0.11196 0.24154 0.0
C129 C 0.63936 0.99517 0.30769 0.0
N130 N 0.61002 0.186 0.28769 0.0
N131 N 0.71308 0.91902 0.2322 0.0
H132 H 0.56717 0.94559 0.38231 0.0
H133 H 0.63571 0.8912 0.3476 0.0
H134 H 0.75243 0.90979 0.19211 0.0
H135 H 0.68201 0.87502 0.24481 0.0
H136 H 0.62582 0.22953 0.25778 0.0
H137 H 0.56327 0.19509 0.31916 0.0
H138 H 0.73245 0.21936 0.22409 0.0
H139 H 0.78842 0.16178 0.17612 0.0
C140 C 0.01896 0.71226 0.32759 0.0
C141 C 0.96514 0.7233 0.38228 0.0
C142 C 0.9121 0.81761 0.30902 0.0
C143 C 0.96545 0.80541 0.25335 0.0
N144 N 0.04548 0.71735 0.19992 0.0
N145 N 0.8478 0.77236 0.41457 0.0
C146 C 0.01129 0.7454 0.25916 0.0
C147 C 0.90785 0.77189 0.3699 0.0
N148 N 0.07974 0.67285 0.34155 0.0
N149 N 0.86439 0.87227 0.30345 0.0
H150 H 0.84186 0.73811 0.45813 0.0
H151 H 0.80075 0.80147 0.40429 0.0
H152 H 0.85863 0.90112 0.25615 0.0
H153 H 0.83195 0.89007 0.34636 0.0
H154 H 0.12381 0.66931 0.30546 0.0
H155 H 0.0898 0.64998 0.39177 0.0
H156 H 0.07288 0.66951 0.2018 0.0
H157 H 0.0395 0.73596 0.14751 0.0
C158 C 0.2896 0.10766 0.33394 0.0
C159 C 0.34001 0.05114 0.33612 0.0
C160 C 0.25976 0.98001 0.26094 0.0
C161 C 0.20982 1.03674 0.2581 0.0
N162 N 0.16624 0.14621 0.30711 0.0
N163 N 0.36583 0.92859 0.31867 0.0
C164 C 0.22089 0.0977 0.30017 0.0
C165 C 0.32275 0.98557 0.30493 0.0
N166 N 0.30908 0.17186 0.36029 0.0
N167 N 0.24756 0.92157 0.22011 0.0
H168 H 0.41223 0.93095 0.35134 0.0
H169 H 0.35238 0.87791 0.30308 0.0
H170 H 0.19908 0.91394 0.1916 0.0
H171 H 0.28638 0.88235 0.21202 0.0
H172 H 0.27779 0.21684 0.35317 0.0
H173 H 0.35945 0.1817 0.38459 0.0
H174 H 0.16849 0.18842 0.34277 0.0
H175 H 0.11594 0.14131 0.28132 0.0
C176 C 0.92951 0.72436 0.70397 0.0
C177 C -0.01161 0.72407 0.65316 0.0
C178 C 0.05042 0.81491 0.72326 0.0
C179 C -0.00546 0.81193 0.77751 0.0
N180 N 0.88462 0.7571 0.8235 0.0
N181 N 0.11258 0.75598 0.62409 0.0
C182 C 0.93566 0.76391 0.76948 0.0
C183 C 0.05123 0.76527 0.66595 0.0
N184 N 0.86606 0.68995 0.68781 0.0
N185 N 0.10155 0.86681 0.72446 0.0
H186 H 0.11543 0.7196 0.58193 0.0
H187 H 0.16277 0.77913 0.6358 0.0
H188 H 0.10358 0.90439 0.76497 0.0
H189 H 0.13778 0.87643 0.68178 0.0
H190 H 0.81805 0.69473 0.71818 0.0
H191 H 0.85933 0.66072 0.64054 0.0
H192 H 0.8454 0.71766 0.82459 0.0
H193 H 0.8841 0.78811 0.86994 0.0
C194 C 0.32038 0.12876 0.74341 0.0
C195 C 0.36133 0.07025 0.71927 0.0
C196 C 0.27181 0.99048 0.77331 0.0
C197 C 0.23177 0.04922 0.79864 0.0
N198 N 0.20336 0.17155 0.78712 0.0
N199 N 0.36942 0.94621 0.69582 0.0
C200 C 0.2516 0.11768 0.77739 0.0
C201 C 0.3348 1.00116 0.72927 0.0
N202 N 0.34815 0.19465 0.73578 0.0
N203 N 0.25002 0.92477 0.79225 0.0
H204 H 0.4167 0.95182 0.66436 0.0
H205 H 0.34902 0.89551 0.69457 0.0
H206 H 0.20458 0.91573 0.82526 0.0
H207 H 0.27903 0.87938 0.78005 0.0
H208 H 0.32425 0.23865 0.75952 0.0
H209 H 0.39816 0.20465 0.71018 0.0
H210 H 0.21108 0.22094 0.76473 0.0
H211 H 0.15199 0.16478 0.81112 0.0
C212 C 0.03644 0.35062 0.70975 0.0
C213 C -0.01571 0.34111 0.65377 0.0
C214 C 0.93552 0.23959 0.71786 0.0
C215 C -0.0172 0.25221 0.77811 0.0
N216 N 0.06613 0.33337 0.83603 0.0
N217 N 0.86861 0.29146 0.61901 0.0
C218 C 0.02903 0.31231 0.77586 0.0
C219 C 0.92899 0.29032 0.66245 0.0
N220 N 0.09522 0.39349 0.69881 0.0
N221 N 0.89761 0.17867 0.71128 0.0
H222 H 0.86018 0.33 0.58004 0.0
H223 H 0.82323 0.25947 0.62777 0.0
H224 H 0.89727 0.14008 0.75025 0.0
H225 H 0.87027 0.16444 0.66402 0.0
H226 H 0.13916 0.39626 0.73451 0.0
H227 H 0.10357 0.42119 0.65086 0.0
H228 H 0.09458 0.38048 0.83863 0.0
H229 H 0.06297 0.30783 0.88554 0.0
C230 C 0.66189 0.98896 0.71715 0.0
C231 C 0.6329 0.0568 0.70547 0.0
C232 C 0.73446 0.10977 0.7709 0.0
C233 C 0.76288 0.04181 0.78341 0.0
N234 N 0.76682 0.91949 0.7535 0.0
N235 N 0.64844 0.182 0.70498 0.0
C236 C 0.73081 0.98215 0.75147 0.0
C237 C 0.67176 0.11741 0.72681 0.0
N238 N 0.62234 0.93133 0.69773 0.0
N239 N 0.7655 0.16651 0.80388 0.0
H240 H 0.60122 0.18963 0.67439 0.0
H241 H 0.67857 0.2276 0.71207 0.0
H242 H 0.81067 0.16267 0.83805 0.0
H243 H 0.74382 0.2168 0.8021 0.0
H244 H 0.63671 0.88056 0.71212 0.0
H245 H 0.57227 0.93452 0.67094 0.0
H246 H 0.74948 0.87504 0.72589 0.0
H247 H 0.81793 0.91369 0.77789 0.0
C248 C 0.3015 0.34541 0.98694 0.0
C249 C 0.34249 0.34637 0.0522 0.0
C250 C 0.25477 0.26493 0.10801 0.0
C251 C 0.21769 0.25922 0.04071 0.0
N252 N 0.21203 0.28504 0.91342 0.0
N253 N 0.36068 0.3068 0.17461 0.0
C254 C 0.24204 0.2979 0.97971 0.0
C255 C 0.31941 0.30641 0.11293 0.0
N256 N 0.3202 0.38908 0.93122 0.0
N257 N 0.22762 0.23088 0.1674 0.0
H258 H 0.40536 0.34001 0.18167 0.0
H259 H 0.35307 0.27256 0.21772 0.0
H260 H 0.18195 0.1983 0.16521 0.0
H261 H 0.24648 0.23878 0.21983 0.0
H262 H 0.28739 0.39726 0.88605 0.0
H263 H 0.3662 0.42122 0.932 0.0
H264 H 0.23221 0.30544 0.86504 0.0
H265 H 0.17005 0.24902 0.90605 0.0
C266 C 0.34963 0.77088 0.9806 0.0
C267 C 0.36063 0.72889 0.04251 0.0
C268 C 0.24622 0.77485 0.09556 0.0
C269 C 0.23905 0.82147 0.036 0.0
N270 N 0.29998 0.87801 0.93494 0.0
N271 N 0.32663 0.69904 0.16501 0.0
C272 C 0.29532 0.82369 0.98236 0.0
C273 C 0.3106 0.73267 0.10169 0.0
N274 N 0.39007 0.75951 0.91905 0.0
N275 N 0.19299 0.7728 0.14772 0.0
H276 H 0.37335 0.66831 0.17154 0.0
H277 H 0.29721 0.70585 0.21301 0.0
H278 H 0.14852 0.80699 0.14845 0.0
H279 H 0.19161 0.73583 0.18896 0.0
H280 H 0.37902 0.78443 0.87008 0.0
H281 H 0.42937 0.72002 0.9148 0.0
H282 H 0.34586 0.88625 0.90211 0.0
H283 H 0.26246 0.91874 0.93351 0.0
C284 C 0.66981 0.3363 0.08743 0.0
C285 C 0.61491 0.33443 0.03326 0.0
C286 C 0.6771 0.23552 0.97541 0.0
C287 C 0.73719 0.24234 0.02415 0.0
N288 N 0.79328 0.30672 0.12276 0.0
N289 N 0.5777 0.29478 0.91504 0.0
C290 C 0.73482 0.29573 0.07827 0.0
C291 C 0.62214 0.28789 0.97402 0.0
N292 N 0.65796 0.37314 0.15004 0.0
N293 N 0.67022 0.1784 0.93153 0.0
H294 H 0.53804 0.3339 0.911 0.0
H295 H 0.58574 0.26667 0.86714 0.0
H296 H 0.70863 0.1386 0.92782 0.0
H297 H 0.62277 0.16785 0.9023 0.0
H298 H 0.69201 0.36974 0.19502 0.0
H299 H 0.6104 0.4019 0.16002 0.0
H300 H 0.798 0.3507 0.15584 0.0
H301 H 0.83844 0.27365 0.1252 0.0
C302 C 0.65331 0.74173 0.96978 0.0
C303 C 0.63298 0.71676 0.03947 0.0
C304 C 0.74406 0.76867 0.09105 0.0
C305 C 0.7591 0.80117 0.02335 0.0
N306 N 0.72552 0.82365 0.89938 0.0
N307 N 0.65496 0.70985 0.16784 0.0
C308 C 0.71318 0.78876 0.96288 0.0
C309 C 0.67774 0.73044 0.10045 0.0
N310 N 0.61598 0.71936 0.91001 0.0
N311 N 0.79283 0.77499 0.14657 0.0
H312 H 0.60742 0.68077 0.17647 0.0
H313 H 0.6802 0.72529 0.21571 0.0
H314 H 0.83996 0.8053 0.14271 0.0
H315 H 0.78931 0.74684 0.1947 0.0
H316 H 0.63253 0.72983 0.85703 0.0
H317 H 0.57185 0.6849 0.91305 0.0
H318 H 0.68898 0.82383 0.85625 0.0
H319 H 0.77059 0.85618 0.89134 0.0
loop_
_geom_bond_atom_site_label_1
_geom_bond_atom_site_label_2
_geom_bond_distance
_geom_bond_site_symmetry_2
_ccdc_geom_bond_type
H0 C6 0.930 1_655 S
H1 C9 0.931 . S
H2 C11 0.932 . S
H3 C13 0.930 . S
H4 C15 0.930 . S
H5 C17 0.932 . S
C6 H0 0.930 1_455 S
C6 C7 1.380 1_455 S
C6 C8 1.394 . S
C7 C6 1.380 1_655 S
C7 C11 1.383 . S
C8 C6 1.394 . S
C8 C9 1.400 . S
C9 H1 0.931 . S
C9 C8 1.400 . S
C9 C10 1.375 . S
C10 C9 1.375 . S
C10 C11 1.413 1_455 S
C10 C12 1.501 . S
C11 H2 0.932 . S
C11 C7 1.383 . S
C11 C10 1.413 1_655 S
C12 C10 1.501 . S
C12 C13 1.384 . S
C12 C17 1.407 1_455 S
C13 H3 0.930 . S
C13 C12 1.384 . S
C13 C14 1.389 . S
C14 C13 1.389 . S
C14 C15 1.405 . S
C15 H4 0.930 . S
C15 C14 1.405 . S
C15 C16 1.364 1_455 S
C16 C15 1.364 1_655 S
C16 C17 1.400 . S
C17 H5 0.932 . S
C17 C12 1.407 1_655 S
C17 C16 1.400 . S
H18 C24 0.930 . S
H19 C27 0.931 . S
H20 C29 0.931 . S
H21 C31 0.930 . S
H22 C33 0.930 . S
H23 C35 0.931 . S
C24 H18 0.930 . S
C24 C25 1.380 . S
C24 C26 1.394 1_545 S
C25 C24 1.380 . S
C25 C29 1.382 . S
C26 C24 1.394 1_565 S
C26 C27 1.400 . S
C27 H19 0.931 . S
C27 C26 1.400 . S
C27 C28 1.375 . S
C28 C27 1.375 . S
C28 C29 1.415 1_565 S
C28 C30 1.501 . S
C29 H20 0.931 . S
C29 C25 1.382 . S
C29 C28 1.415 1_545 S
C30 C28 1.501 . S
C30 C31 1.384 . S
C30 C35 1.408 1_565 S
C31 H21 0.930 . S
C31 C30 1.384 . S
C31 C32 1.389 . S
C32 C31 1.389 . S
C32 C33 1.405 . S
C33 H22 0.930 . S
C33 C32 1.405 . S
C33 C34 1.364 1_565 S
C34 C33 1.364 1_545 S
C34 C35 1.400 . S
C35 H23 0.931 . S
C35 C30 1.408 1_545 S
C35 C34 1.400 . S
H36 C42 0.930 1_556 S
H37 C45 0.931 . S
H38 C47 0.930 1_556 S
H39 C49 0.930 . S
H40 C51 0.930 . S
H41 C53 0.931 1_556 S
C42 H36 0.930 1_554 S
C42 C43 1.380 1_554 S
C42 C44 1.394 . S
C43 C42 1.380 1_556 S
C43 C47 1.382 1_556 S
C44 C42 1.394 . S
C44 C45 1.400 . S
C45 H37 0.931 . S
C45 C44 1.400 . S
C45 C46 1.375 . S
C46 C45 1.375 . S
C46 C47 1.416 . S
C46 C48 1.501 . S
C47 H38 0.930 1_554 S
C47 C43 1.382 1_554 S
C47 C46 1.416 . S
C48 C46 1.501 . S
C48 C49 1.384 . S
C48 C53 1.408 . S
C49 H39 0.930 . S
C49 C48 1.384 . S
C49 C50 1.389 . S
C50 C49 1.389 . S
C50 C51 1.405 . S
C51 H40 0.930 . S
C51 C50 1.405 . S
C51 C52 1.365 . S
C52 C51 1.365 . S
C52 C53 1.400 . S
C53 H41 0.931 1_554 S
C53 C48 1.408 . S
C53 C52 1.400 . S
C54 O80 1.283 . S
C54 O98 1.283 . S
C55 O81 1.283 . S
C55 O96 1.283 . S
C56 O82 1.283 . S
C56 O99 1.283 . S
C57 O83 1.283 . S
C57 O97 1.283 . S
C58 O84 1.283 . S
C58 O93 1.283 . S
C59 O85 1.283 . S
C59 O95 1.283 . S
C60 O86 1.283 . S
C60 O92 1.283 . S
C61 O87 1.283 . S
C61 O94 1.283 . S
C62 O88 1.283 . S
C62 O103 1.283 . S
C63 O89 1.283 . S
C63 O101 1.283 . S
C64 O90 1.283 . S
C64 O102 1.283 . S
C65 O91 1.283 . S
C65 O100 1.283 . S
Eu66 O67 2.370 . S
Eu66 O68 2.370 1_454 S
Eu66 O71 2.370 1_554 S
Eu66 O72 2.370 1_455 S
Eu66 O80 2.363 1_554 S
Eu66 O81 2.363 . S
Eu66 O94 2.363 1_455 S
Eu66 O95 2.363 . S
O67 Eu66 2.370 . S
O67 Eu69 2.369 . S
O67 Eu74 2.371 . S
O68 Eu66 2.370 1_656 S
O68 Eu70 2.371 1_556 S
O68 Eu73 2.370 1_655 S
Eu69 O67 2.369 . S
Eu69 O71 2.369 1_554 S
Eu69 O75 2.371 1_544 S
Eu69 O76 2.371 1_545 S
Eu69 O84 2.364 1_545 S
Eu69 O85 2.362 . S
Eu69 O100 2.363 1_544 S
Eu69 O101 2.363 . S
Eu70 O68 2.371 1_554 S
Eu70 O72 2.371 . S
Eu70 O77 2.369 1_545 S
Eu70 O78 2.369 1_544 S
Eu70 O86 2.362 1_545 S
Eu70 O87 2.364 . S
Eu70 O102 2.363 1_554 S
Eu70 O103 2.363 . S
O71 Eu66 2.370 1_556 S
O71 Eu69 2.369 1_556 S
O71 Eu73 2.370 . S
O72 Eu66 2.370 1_655 S
O72 Eu70 2.371 . S
O72 Eu74 2.371 1_655 S
Eu73 O68 2.370 1_455 S
Eu73 O71 2.370 . S
Eu73 O75 2.371 1_545 S
Eu73 O78 2.371 1_445 S
Eu73 O90 2.363 1_455 S
Eu73 O91 2.363 1_545 S
Eu73 O98 2.362 . S
Eu73 O99 2.364 1_545 S
Eu74 O67 2.371 . S
Eu74 O72 2.371 1_455 S
Eu74 O76 2.370 1_545 S
Eu74 O77 2.370 1_445 S
Eu74 O88 2.363 1_455 S
Eu74 O89 2.363 . S
Eu74 O96 2.364 . S
Eu74 O97 2.362 1_545 S
O75 Eu69 2.371 1_566 S
O75 Eu73 2.371 1_565 S
O75 Eu79 2.370 1_556 S
O76 Eu69 2.371 1_565 S
O76 Eu74 2.370 1_565 S
O76 Eu79 2.370 . S
O77 Eu70 2.369 1_565 S
O77 Eu74 2.370 1_665 S
O77 Eu79 2.370 1_655 S
O78 Eu70 2.369 1_566 S
O78 Eu73 2.371 1_665 S
O78 Eu79 2.370 1_656 S
Eu79 O75 2.370 1_554 S
Eu79 O76 2.370 . S
Eu79 O77 2.370 1_455 S
Eu79 O78 2.370 1_454 S
Eu79 O82 2.363 1_554 S
Eu79 O83 2.363 . S
Eu79 O92 2.363 1_455 S
Eu79 O93 2.363 . S
O80 C54 1.283 . S
O80 Eu66 2.363 1_556 S
O81 C55 1.283 . S
O81 Eu66 2.363 . S
O82 C56 1.283 . S
O82 Eu79 2.363 1_556 S
O83 C57 1.283 . S
O83 Eu79 2.363 . S
O84 C58 1.283 . S
O84 Eu69 2.364 1_565 S
O85 C59 1.283 . S
O85 Eu69 2.362 . S
O86 C60 1.283 . S
O86 Eu70 2.362 1_565 S
O87 C61 1.283 . S
O87 Eu70 2.364 . S
O88 C62 1.283 . S
O88 Eu74 2.363 1_655 S
O89 C63 1.283 . S
O89 Eu74 2.363 . S
O90 C64 1.283 . S
O90 Eu73 2.363 1_655 S
O91 C65 1.283 . S
O91 Eu73 2.363 1_565 S
O92 C60 1.283 . S
O92 Eu79 2.363 1_655 S
O93 C58 1.283 . S
O93 Eu79 2.363 . S
O94 C61 1.283 . S
O94 Eu66 2.363 1_655 S
O95 C59 1.283 . S
O95 Eu66 2.363 . S
O96 C55 1.283 . S
O96 Eu74 2.364 . S
O97 C57 1.283 . S
O97 Eu74 2.362 1_565 S
O98 C54 1.283 . S
O98 Eu73 2.362 . S
O99 C56 1.283 . S
O99 Eu73 2.364 1_565 S
O100 C65 1.283 . S
O100 Eu69 2.363 1_566 S
O101 C63 1.283 . S
O101 Eu69 2.363 . S
O102 C64 1.283 . S
O102 Eu70 2.363 1_556 S
O103 C62 1.283 . S
O103 Eu70 2.363 . S
C104 C105 1.363 1_455 S
C104 C110 1.379 . S
C104 N112 1.356 . S
C105 C104 1.363 1_655 S
C105 C111 1.363 . S
C106 C107 1.359 1_655 S
C106 C111 1.379 . S
C106 N113 1.356 . S
C107 C106 1.359 1_455 S
C107 C110 1.367 . S
N108 C110 1.356 . S
N108 H120 0.984 . S
N108 H121 0.985 . S
N109 C111 1.356 . S
N109 H114 0.984 . S
N109 H115 0.985 . S
C110 C104 1.379 . S
C110 C107 1.367 . S
C110 N108 1.356 . S
C111 C105 1.363 . S
C111 C106 1.379 . S
C111 N109 1.356 . S
N112 C104 1.356 . S
N112 H118 0.984 . S
N112 H119 0.984 . S
N113 C106 1.356 . S
N113 H116 0.984 . S
N113 H117 0.985 . S
H114 N109 0.984 . S
H115 N109 0.985 . S
H116 N113 0.984 . S
H117 N113 0.985 . S
H118 N112 0.984 . S
H119 N112 0.984 . S
H120 N108 0.984 . S
H121 N108 0.985 . S
C122 C123 1.363 . S
C122 C128 1.379 . S
C122 N130 1.356 . S
C123 C122 1.363 . S
C123 C129 1.363 1_545 S
C124 C125 1.363 1_565 S
C124 C129 1.379 . S
C124 N131 1.356 . S
C125 C124 1.363 1_545 S
C125 C128 1.363 . S
N126 C128 1.356 . S
N126 H138 0.984 . S
N126 H139 0.985 . S
N127 C129 1.356 . S
N127 H132 0.984 . S
N127 H133 0.985 . S
C128 C122 1.379 . S
C128 C125 1.363 . S
C128 N126 1.356 . S
C129 C123 1.363 1_565 S
C129 C124 1.379 . S
C129 N127 1.356 . S
N130 C122 1.356 . S
N130 H136 0.984 . S
N130 H137 0.984 . S
N131 C124 1.356 . S
N131 H134 0.984 . S
N131 H135 0.985 . S
H132 N127 0.984 . S
H133 N127 0.985 . S
H134 N131 0.984 . S
H135 N131 0.985 . S
H136 N130 0.984 . S
H137 N130 0.984 . S
H138 N126 0.984 . S
H139 N126 0.985 . S
C140 C141 1.363 . S
C140 C146 1.379 . S
C140 N148 1.356 . S
C141 C140 1.363 . S
C141 C147 1.363 1_455 S
C142 C143 1.363 1_655 S
C142 C147 1.379 . S
C142 N149 1.356 . S
C143 C142 1.363 1_455 S
C143 C146 1.363 . S
N144 C146 1.356 . S
N144 H156 0.984 . S
N144 H157 0.985 . S
N145 C147 1.356 . S
N145 H150 0.984 . S
N145 H151 0.985 . S
C146 C140 1.379 . S
C146 C143 1.363 . S
C146 N144 1.356 . S
C147 C141 1.363 1_655 S
C147 C142 1.379 . S
C147 N145 1.356 . S
N148 C140 1.356 . S
N148 H154 0.984 . S
N148 H155 0.984 . S
N149 C142 1.356 . S
N149 H152 0.984 . S
N149 H153 0.985 . S
H150 N145 0.984 . S
H151 N145 0.985 . S
H152 N149 0.984 . S
H153 N149 0.985 . S
H154 N148 0.984 . S
H155 N148 0.984 . S
H156 N144 0.984 . S
H157 N144 0.985 . S
C158 C159 1.363 1_545 S
C158 C164 1.379 . S
C158 N166 1.356 . S
C159 C158 1.363 1_565 S
C159 C165 1.363 . S
C160 C161 1.363 . S
C160 C165 1.379 . S
C160 N167 1.356 . S
C161 C160 1.363 . S
C161 C164 1.363 1_565 S
N162 C164 1.356 . S
N162 H174 0.984 . S
N162 H175 0.985 . S
N163 C165 1.356 . S
N163 H168 0.984 . S
N163 H169 0.985 . S
C164 C158 1.379 . S
C164 C161 1.363 1_545 S
C164 N162 1.356 . S
C165 C159 1.363 . S
C165 C160 1.379 . S
C165 N163 1.356 . S
N166 C158 1.356 . S
N166 H172 0.984 . S
N166 H173 0.984 . S
N167 C160 1.356 . S
N167 H170 0.984 . S
N167 H171 0.985 . S
H168 N163 0.984 . S
H169 N163 0.985 . S
H170 N167 0.984 . S
H171 N167 0.985 . S
H172 N166 0.984 . S
H173 N166 0.984 . S
H174 N162 0.984 . S
H175 N162 0.985 . S
C176 C177 1.363 . S
C176 C182 1.379 . S
C176 N184 1.356 . S
C177 C176 1.363 . S
C177 C183 1.363 1_655 S
C178 C179 1.367 . S
C178 C183 1.379 . S
C178 N185 1.356 . S
C179 C178 1.367 . S
C179 C182 1.358 1_455 S
N180 C182 1.356 . S
N180 H192 0.984 . S
N180 H193 0.985 . S
N181 C183 1.356 . S
N181 H186 0.984 . S
N181 H187 0.985 . S
C182 C176 1.379 . S
C182 C179 1.358 1_655 S
C182 N180 1.356 . S
C183 C177 1.363 1_455 S
C183 C178 1.379 . S
C183 N181 1.356 . S
N184 C176 1.356 . S
N184 H190 0.984 . S
N184 H191 0.984 . S
N185 C178 1.356 . S
N185 H188 0.984 . S
N185 H189 0.985 . S
H186 N181 0.984 . S
H187 N181 0.985 . S
H188 N185 0.984 . S
H189 N185 0.985 . S
H190 N184 0.984 . S
H191 N184 0.984 . S
H192 N180 0.984 . S
H193 N180 0.985 . S
C194 C195 1.363 . S
C194 C200 1.379 . S
C194 N202 1.356 . S
C195 C194 1.363 . S
C195 C201 1.363 1_545 S
C196 C197 1.363 1_565 S
C196 C201 1.379 . S
C196 N203 1.356 . S
C197 C196 1.363 1_545 S
C197 C200 1.363 . S
N198 C200 1.356 . S
N198 H210 0.984 . S
N198 H211 0.985 . S
N199 C201 1.356 . S
N199 H204 0.984 . S
N199 H205 0.985 . S
C200 C194 1.379 . S
C200 C197 1.363 . S
C200 N198 1.356 . S
C201 C195 1.363 1_565 S
C201 C196 1.379 . S
C201 N199 1.356 . S
N202 C194 1.356 . S
N202 H208 0.984 . S
N202 H209 0.984 . S
N203 C196 1.356 . S
N203 H206 0.984 . S
N203 H207 0.985 . S
H204 N199 0.984 . S
H205 N199 0.985 . S
H206 N203 0.984 . S
H207 N203 0.985 . S
H208 N202 0.984 . S
H209 N202 0.984 . S
H210 N198 0.984 . S
H211 N198 0.985 . S
C212 C213 1.363 . S
C212 C218 1.379 . S
C212 N220 1.356 . S
C213 C212 1.363 . S
C213 C219 1.363 1_455 S
C214 C215 1.363 1_655 S
C214 C219 1.379 . S
C214 N221 1.356 . S
C215 C214 1.363 1_455 S
C215 C218 1.363 . S
N216 C218 1.356 . S
N216 H228 0.984 . S
N216 H229 0.985 . S
N217 C219 1.356 . S
N217 H222 0.984 . S
N217 H223 0.985 . S
C218 C212 1.379 . S
C218 C215 1.363 . S
C218 N216 1.356 . S
C219 C213 1.363 1_655 S
C219 C214 1.379 . S
C219 N217 1.356 . S
N220 C212 1.356 . S
N220 H226 0.984 . S
N220 H227 0.984 . S
N221 C214 1.356 . S
N221 H224 0.984 . S
N221 H225 0.985 . S
H222 N217 0.984 . S
H223 N217 0.985 . S
H224 N221 0.984 . S
H225 N221 0.985 . S
H226 N220 0.984 . S
H227 N220 0.984 . S
H228 N216 0.984 . S
H229 N216 0.985 . S
C230 C231 1.363 . S
C230 C236 1.379 . S
C230 N238 1.356 . S
C231 C230 1.363 . S
C231 C237 1.363 1_565 S
C232 C233 1.363 1_545 S
C232 C237 1.379 . S
C232 N239 1.356 . S
C233 C232 1.363 1_565 S
C233 C236 1.363 . S
N234 C236 1.356 . S
N234 H246 0.984 . S
N234 H247 0.985 . S
N235 C237 1.356 . S
N235 H240 0.984 . S
N235 H241 0.985 . S
C236 C230 1.379 . S
C236 C233 1.363 . S
C236 N234 1.356 . S
C237 C231 1.363 1_545 S
C237 C232 1.379 . S
C237 N235 1.356 . S
N238 C230 1.356 . S
N238 H244 0.984 . S
N238 H245 0.984 . S
N239 C232 1.356 . S
N239 H242 0.984 . S
N239 H243 0.985 . S
H240 N235 0.984 . S
H241 N235 0.985 . S
H242 N239 0.984 . S
H243 N239 0.985 . S
H244 N238 0.984 . S
H245 N238 0.984 . S
H246 N234 0.984 . S
H247 N234 0.985 . S
C248 C249 1.363 1_556 S
C248 C254 1.379 . S
C248 N256 1.356 . S
C249 C248 1.363 1_554 S
C249 C255 1.363 . S
C250 C251 1.363 . S
C250 C255 1.379 . S
C250 N257 1.356 . S
C251 C250 1.363 . S
C251 C254 1.363 1_554 S
N252 C254 1.356 . S
N252 H264 0.984 . S
N252 H265 0.985 . S
N253 C255 1.356 . S
N253 H258 0.984 . S
N253 H259 0.985 . S
C254 C248 1.379 . S
C254 C251 1.363 1_556 S
C254 N252 1.356 . S
C255 C249 1.363 . S
C255 C250 1.379 . S
C255 N253 1.356 . S
N256 C248 1.356 . S
N256 H262 0.984 . S
N256 H263 0.984 . S
N257 C250 1.356 . S
N257 H260 0.984 . S
N257 H261 0.985 . S
H258 N253 0.984 . S
H259 N253 0.985 . S
H260 N257 0.984 . S
H261 N257 0.985 . S
H262 N256 0.984 . S
H263 N256 0.984 . S
H264 N252 0.984 . S
H265 N252 0.985 . S
C266 C267 1.363 . S
C266 C272 1.379 . S
C266 N274 1.356 . S
C267 C266 1.363 . S
C267 C273 1.363 1_556 S
C268 C269 1.363 . S
C268 C273 1.379 . S
C268 N275 1.356 . S
C269 C268 1.363 . S
C269 C272 1.363 1_554 S
N270 C272 1.356 . S
N270 H282 0.984 . S
N270 H283 0.985 . S
N271 C273 1.356 . S
N271 H276 0.984 . S
N271 H277 0.985 . S
C272 C266 1.379 . S
C272 C269 1.363 1_556 S
C272 N270 1.356 . S
C273 C267 1.363 1_554 S
C273 C268 1.379 . S
C273 N271 1.356 . S
N274 C266 1.356 . S
N274 H280 0.984 . S
N274 H281 0.984 . S
N275 C268 1.356 . S
N275 H278 0.984 . S
N275 H279 0.985 . S
H276 N271 0.984 . S
H277 N271 0.985 . S
H278 N275 0.984 . S
H279 N275 0.985 . S
H280 N274 0.984 . S
H281 N274 0.984 . S
H282 N270 0.984 . S
H283 N270 0.985 . S
C284 C285 1.363 1_554 S
C284 C290 1.379 . S
C284 N292 1.356 . S
C285 C284 1.363 1_556 S
C285 C291 1.363 . S
C286 C287 1.363 1_556 S
C286 C291 1.379 . S
C286 N293 1.356 . S
C287 C286 1.363 1_554 S
C287 C290 1.363 . S
N288 C290 1.356 . S
N288 H300 0.984 . S
N288 H301 0.985 . S
N289 C291 1.356 . S
N289 H294 0.984 . S
N289 H295 0.985 . S
C290 C284 1.379 . S
C290 C287 1.363 . S
C290 N288 1.356 . S
C291 C285 1.363 . S
C291 C286 1.379 . S
C291 N289 1.356 . S
N292 C284 1.356 . S
N292 H298 0.984 . S
N292 H299 0.984 . S
N293 C286 1.356 . S
N293 H296 0.984 . S
N293 H297 0.985 . S
H294 N289 0.984 . S
H295 N289 0.985 . S
H296 N293 0.984 . S
H297 N293 0.985 . S
H298 N292 0.984 . S
H299 N292 0.984 . S
H300 N288 0.984 . S
H301 N288 0.985 . S
C302 C303 1.363 1_556 S
C302 C308 1.379 . S
C302 N310 1.356 . S
C303 C302 1.363 1_554 S
C303 C309 1.363 . S
C304 C305 1.363 . S
C304 C309 1.379 . S
C304 N311 1.356 . S
C305 C304 1.363 . S
C305 C308 1.363 1_554 S
N306 C308 1.356 . S
N306 H318 0.984 . S
N306 H319 0.985 . S
N307 C309 1.356 . S
N307 H312 0.984 . S
N307 H313 0.985 . S
C308 C302 1.379 . S
C308 C305 1.363 1_556 S
C308 N306 1.356 . S
C309 C303 1.363 . S
C309 C304 1.379 . S
C309 N307 1.356 . S
N310 C302 1.356 . S
N310 H316 0.984 . S
N310 H317 0.984 . S
N311 C304 1.356 . S
N311 H314 0.984 . S
N311 H315 0.985 . S
H312 N307 0.984 . S
H313 N307 0.985 . S
H314 N311 0.984 . S
H315 N311 0.985 . S
H316 N310 0.984 . S
H317 N310 0.984 . S
H318 N306 0.984 . S
H319 N306 0.985 . S
C107 C55 1.833 . S
C105 C7 1.823 . S
C125 C62 1.303 . S
C123 C34 1.295 . S
C143 C57 1.833 . S
C141 C14 1.829 . S
C161 C63 1.304 1_565 S
C159 C32 1.301 . S
C177 C16 1.820 . S
C179 C56 1.834 . S
C197 C65 1.303 1_545 S
C195 C25 1.297 . S
C213 C8 1.823 . S
C215 C54 1.826 . S
C231 C26 1.296 . S
C233 C64 1.298 1_565 S
C249 C50 1.533 . S
C251 C59 1.548 . S
C267 C43 1.528 . S
C269 C58 1.550 . S
C287 C61 1.547 . S
C285 C52 1.524 1_556 S
C305 C60 1.543 . S
C303 C44 1.528 . S
